# Generated by pormake.
# Topology pyr, (3,6)-cn, num edge types: 1
# Building blocks:
#     Node 0, Type 0, BuildingBlock: BETDIP_clean_linker_0, # of connection points: 3
#     Node 1, Type 0, BuildingBlock: BETDIP_clean_linker_0, # of connection points: 3
#     Node 2, Type 0, BuildingBlock: BETDIP_clean_linker_0, # of connection points: 3
#     Node 3, Type 0, BuildingBlock: BETDIP_clean_linker_0, # of connection points: 3
#     Node 4, Type 0, BuildingBlock: BETDIP_clean_linker_0, # of connection points: 3
#     Node 5, Type 0, BuildingBlock: BETDIP_clean_linker_0, # of connection points: 3
#     Node 6, Type 0, BuildingBlock: BETDIP_clean_linker_0, # of connection points: 3
#     Node 7, Type 0, BuildingBlock: BETDIP_clean_linker_0, # of connection points: 3
#     Node 8, Type 1, BuildingBlock: LEVNOQ01_clean_sbu_1, # of connection points: 6
#     Node 9, Type 1, BuildingBlock: LEVNOQ01_clean_sbu_1, # of connection points: 6
#     Node 10, Type 1, BuildingBlock: LEVNOQ01_clean_sbu_1, # of connection points: 6
#     Node 11, Type 1, BuildingBlock: LEVNOQ01_clean_sbu_1, # of connection points: 6
#     Edge 12, Type (0, 1), BuildingBlock: MIFKUJ_clean_linker_0, # of connection points: 2
#     Edge 13, Type (0, 1), BuildingBlock: MIFKUJ_clean_linker_0, # of connection points: 2
#     Edge 14, Type (0, 1), BuildingBlock: MIFKUJ_clean_linker_0, # of connection points: 2
#     Edge 15, Type (0, 1), BuildingBlock: MIFKUJ_clean_linker_0, # of connection points: 2
#     Edge 16, Type (0, 1), BuildingBlock: MIFKUJ_clean_linker_0, # of connection points: 2
#     Edge 17, Type (0, 1), BuildingBlock: MIFKUJ_clean_linker_0, # of connection points: 2
#     Edge 18, Type (0, 1), BuildingBlock: MIFKUJ_clean_linker_0, # of connection points: 2
#     Edge 19, Type (0, 1), BuildingBlock: MIFKUJ_clean_linker_0, # of connection points: 2
#     Edge 20, Type (0, 1), BuildingBlock: MIFKUJ_clean_linker_0, # of connection points: 2
#     Edge 21, Type (0, 1), BuildingBlock: MIFKUJ_clean_linker_0, # of connection points: 2
#     Edge 22, Type (0, 1), BuildingBlock: MIFKUJ_clean_linker_0, # of connection points: 2
#     Edge 23, Type (0, 1), BuildingBlock: MIFKUJ_clean_linker_0, # of connection points: 2
#     Edge 24, Type (0, 1), BuildingBlock: MIFKUJ_clean_linker_0, # of connection points: 2
#     Edge 25, Type (0, 1), BuildingBlock: MIFKUJ_clean_linker_0, # of connection points: 2
#     Edge 26, Type (0, 1), BuildingBlock: MIFKUJ_clean_linker_0, # of connection points: 2
#     Edge 27, Type (0, 1), BuildingBlock: MIFKUJ_clean_linker_0, # of connection points: 2
#     Edge 28, Type (0, 1), BuildingBlock: MIFKUJ_clean_linker_0, # of connection points: 2
#     Edge 29, Type (0, 1), BuildingBlock: MIFKUJ_clean_linker_0, # of connection points: 2
#     Edge 30, Type (0, 1), BuildingBlock: MIFKUJ_clean_linker_0, # of connection points: 2
#     Edge 31, Type (0, 1), BuildingBlock: MIFKUJ_clean_linker_0, # of connection points: 2
#     Edge 32, Type (0, 1), BuildingBlock: MIFKUJ_clean_linker_0, # of connection points: 2
#     Edge 33, Type (0, 1), BuildingBlock: MIFKUJ_clean_linker_0, # of connection points: 2
#     Edge 34, Type (0, 1), BuildingBlock: MIFKUJ_clean_linker_0, # of connection points: 2
#     Edge 35, Type (0, 1), BuildingBlock: MIFKUJ_clean_linker_0, # of connection points: 2
# Relax obj value: 0.081
# Max RMSD: 0.174
# Mean RMSD: 0.137
data_MOF--net-pry--node1-LEVNOQ01_clean_sbu_1--node2-BETDIP_clean_linker_0--edge1-MIFKUJ_clean_linker_0
_symmetry_space_group_name_H-M    P1
_symmetry_Int_Tables_number       1
_symmetry_cell_setting            triclinic
loop_
_symmetry_equiv_pos_as_xyz
'x, y, z'
_cell_length_a     47.455959
_cell_length_b     45.250805
_cell_length_c     47.637609
_cell_angle_alpha  95.426008
_cell_angle_beta   87.190847
_cell_angle_gamma 100.81124
loop_
_atom_site_label
_atom_site_type_symbol
_atom_site_fract_x
_atom_site_fract_y
_atom_site_fract_z
_atom_type_partial_charge
H0 H 0.1176 0.15832 0.17861 0.0
H1 H 0.1792 0.15843 0.10964 0.0
H2 H 0.18311 0.10414 0.17845 0.0
H3 H 0.17053 0.20819 0.11041 0.0
C4 C 0.14733 0.20466 0.11329 0.0
C5 C 0.13597 0.15007 0.16863 0.0
C6 C 0.14881 0.12957 0.18185 0.0
C7 C 0.14719 0.1612 0.14308 0.0
C8 C 0.17128 0.1509 0.12993 0.0
C9 C 0.18445 0.13001 0.14237 0.0
C10 C 0.17306 0.11983 0.16847 0.0
N11 N 0.13335 0.18226 0.13099 0.0
H12 H 0.35883 0.92048 0.67011 0.0
H13 H 0.35689 0.85203 0.60102 0.0
H14 H 0.41462 0.85516 0.6684 0.0
H15 H 0.34111 0.89103 0.5786 0.0
C16 C 0.32533 0.89614 0.59475 0.0
C17 C 0.36688 0.90109 0.66005 0.0
C18 C 0.38868 0.89002 0.67251 0.0
C19 C 0.35553 0.88784 0.63427 0.0
C20 C 0.36606 0.86301 0.62056 0.0
C21 C 0.38728 0.85109 0.63291 0.0
C22 C 0.39848 0.86466 0.65882 0.0
N23 N 0.33231 0.89883 0.62366 0.0
H24 H 0.65903 0.45636 0.87942 0.0
H25 H 0.59321 0.3769 0.86672 0.0
H26 H 0.66464 0.37578 0.91797 0.0
H27 H 0.57066 0.40502 0.84396 0.0
C28 C 0.58741 0.42233 0.83611 0.0
C29 C 0.6497 0.43348 0.88395 0.0
C30 C 0.66434 0.4178 0.90052 0.0
C31 C 0.62395 0.41908 0.87165 0.0
C32 C 0.6127 0.3888 0.87643 0.0
C33 C 0.62702 0.3733 0.89357 0.0
C34 C 0.65281 0.38798 0.90558 0.0
N35 N 0.61176 0.43472 0.85236 0.0
H36 H 0.86293 0.54884 0.39041 0.0
H37 H 0.93753 0.61934 0.39847 0.0
H38 H 0.85771 0.6317 0.44042 0.0
H39 H 0.95622 0.59333 0.36025 0.0
C40 C 0.9374 0.57786 0.35232 0.0
C41 C 0.87326 0.57088 0.39943 0.0
C42 C 0.85732 0.58899 0.41653 0.0
C43 C 0.90191 0.58206 0.39208 0.0
C44 C 0.91515 0.6109 0.40342 0.0
C45 C 0.89954 0.62872 0.42158 0.0
C46 C 0.87044 0.61774 0.42748 0.0
N47 N 0.91593 0.56473 0.37148 0.0
H48 H 0.83182 0.87248 0.91999 0.0
H49 H 0.89445 0.86465 0.85264 0.0
H50 H 0.8396 0.93044 0.85224 0.0
H51 H 0.91945 0.85439 0.89276 0.0
C52 C 0.90243 0.83809 0.90173 0.0
C53 C 0.84214 0.87997 0.90044 0.0
C54 C 0.8332 0.90347 0.88785 0.0
C55 C 0.86487 0.86657 0.88851 0.0
C56 C 0.87771 0.87568 0.86262 0.0
C57 C 0.86863 0.89864 0.84924 0.0
C58 C 0.84688 0.91293 0.86245 0.0
N59 N 0.8737 0.8434 0.90252 0.0
H60 H 0.65982 0.11627 0.35806 0.0
H61 H 0.65837 0.18116 0.42968 0.0
H62 H 0.59656 0.17367 0.36491 0.0
H63 H 0.67763 0.14421 0.45036 0.0
C64 C 0.69291 0.13875 0.43384 0.0
C65 C 0.65018 0.13398 0.36941 0.0
C66 C 0.62647 0.14299 0.35841 0.0
C67 C 0.66141 0.14708 0.39526 0.0
C68 C 0.6493 0.17033 0.41007 0.0
C69 C 0.62579 0.18009 0.39931 0.0
C70 C 0.61426 0.16592 0.37366 0.0
N71 N 0.68564 0.13718 0.40506 0.0
H72 H 0.35787 0.59637 0.15882 0.0
H73 H 0.4184 0.67984 0.17211 0.0
H74 H 0.35182 0.67188 0.11282 0.0
H75 H 0.43974 0.65687 0.19994 0.0
C76 C 0.4246 0.6375 0.20649 0.0
C77 C 0.36665 0.61901 0.15318 0.0
C78 C 0.35265 0.63212 0.13381 0.0
C79 C 0.39072 0.63577 0.16692 0.0
C80 C 0.40083 0.66589 0.16083 0.0
C81 C 0.38692 0.67909 0.14134 0.0
C82 C 0.36311 0.66183 0.12757 0.0
N83 N 0.40193 0.62274 0.18892 0.0
H84 H 0.06414 0.39645 0.63018 0.0
H85 H 0.14247 0.46151 0.62523 0.0
H86 H 0.12912 0.38233 0.5671 0.0
H87 H 0.13507 0.47101 0.66947 0.0
C88 C 0.11325 0.46186 0.67603 0.0
C89 C 0.08425 0.40475 0.61928 0.0
C90 C 0.09437 0.38683 0.59689 0.0
C91 C 0.10168 0.43151 0.62999 0.0
C92 C 0.1287 0.44111 0.61701 0.0
C93 C 0.1391 0.4232 0.5947 0.0
C94 C 0.12131 0.39662 0.58414 0.0
N95 N 0.09339 0.4454 0.65628 0.0
O96 O 0.01837 0.00331 0.58491 0.0
Mg97 Mg 0.04265 0.02508 0.55263 0.0
O98 O 0.98345 0.98715 0.55532 0.0
Mg99 Mg 0.00461 0.00444 0.51104 0.0
O100 O 0.02486 0.05346 0.53108 0.0
O101 O 0.05527 0.06794 0.56673 0.0
O102 O 0.02447 0.02129 0.46648 0.0
O103 O 0.96378 0.02759 0.50704 0.0
Mg104 Mg 0.96324 0.9747 0.45997 0.0
O105 O 0.98376 0.95907 0.49017 0.0
O106 O 0.9941 0.99917 0.4333 0.0
O107 O 0.93234 0.99833 0.47848 0.0
O108 O 0.95694 0.92832 0.45865 0.0
C109 C 0.07073 0.98587 0.52064 0.0
C110 C 0.99312 0.98949 0.5803 0.0
C111 C 0.03975 0.07465 0.54767 0.0
C112 C 0.01711 0.01691 0.44055 0.0
C113 C 0.93914 0.02133 0.49573 0.0
C114 C 0.97329 0.93198 0.48002 0.0
O115 O 0.07864 0.01005 0.53564 0.0
O116 O 0.04469 0.9787 0.51295 0.0
O117 O 0.47031 0.07293 0.05158 0.0
Mg118 Mg 0.51331 0.0715 0.04215 0.0
O119 O 0.46268 0.02962 0.02593 0.0
Mg120 Mg 0.51057 0.02047 0.01319 0.0
O121 O 0.53035 0.07129 0.00135 0.0
O122 O 0.5272 0.11247 0.03078 0.0
O123 O 0.55693 0.00812 0.99868 0.0
O124 O 0.49631 0.01526 0.96493 0.0
Mg125 Mg 0.50178 0.9548 0.98393 0.0
O126 O 0.49171 0.97194 0.02301 0.0
O127 O 0.54664 0.96128 0.97845 0.0
O128 O 0.47873 0.96718 0.95239 0.0
O129 O 0.48148 0.92269 0.00893 0.0
C130 C 0.53742 0.04357 0.07976 0.0
C131 C 0.45295 0.05091 0.04062 0.0
C132 C 0.53511 0.10061 0.00683 0.0
C133 C 0.56501 0.98456 0.98593 0.0
C134 C 0.48342 0.99456 0.94725 0.0
C135 C 0.48109 0.94448 0.02841 0.0
O136 O 0.53943 0.07066 0.07506 0.0
O137 O 0.52547 0.02278 0.06172 0.0
O138 O 0.51674 0.58705 0.54783 0.0
Mg139 Mg 0.50032 0.54531 0.5644 0.0
O140 O 0.48473 0.56041 0.52019 0.0
Mg141 Mg 0.50021 0.5126 0.51524 0.0
O142 O 0.52327 0.51159 0.5575 0.0
O143 O 0.52195 0.54063 0.59849 0.0
O144 O 0.51532 0.46424 0.51016 0.0
O145 O 0.54351 0.53457 0.49804 0.0
Mg146 Mg 0.50179 0.48135 0.4652 0.0
O147 O 0.47801 0.51435 0.47244 0.0
O148 O 0.48513 0.439 0.47986 0.0
O149 O 0.54727 0.49833 0.46433 0.0
O150 O 0.48132 0.48716 0.43073 0.0
C151 C 0.44287 0.5044 0.55279 0.0
C152 C 0.49719 0.58622 0.53075 0.0
C153 C 0.53119 0.51907 0.5833 0.0
C154 C 0.50348 0.43889 0.49799 0.0
C155 C 0.55823 0.52222 0.47906 0.0
C156 C 0.47119 0.50799 0.44616 0.0
O157 O 0.45487 0.52844 0.56677 0.0
O158 O 0.45686 0.49124 0.53355 0.0
O159 O 0.03468 0.47348 0.07502 0.0
Mg160 Mg 0.02887 0.51805 0.08607 0.0
O161 O 0.02334 0.47172 0.03005 0.0
Mg162 Mg 0.00797 0.5182 0.02298 0.0
O163 O 0.99364 0.52644 0.06841 0.0
O164 O 0.99772 0.5283 0.11479 0.0
O165 O 0.99153 0.56701 0.02091 0.0
O166 O 0.96247 0.49078 0.01631 0.0
Mg167 Mg 0.99782 0.53572 0.98065 0.0
O168 O 0.02365 0.50457 0.97556 0.0
O169 O 0.01714 0.5817 0.98399 0.0
O170 O 0.95286 0.52367 0.98907 0.0
O171 O 1.00109 0.51975 0.94052 0.0
C172 C 0.07029 0.55745 0.05011 0.0
C173 C 0.03207 0.45967 0.0506 0.0
C174 C 0.98339 0.53207 0.0935 0.0
C175 C 0.00162 0.5881 0.00501 0.0
C176 C 0.94446 0.50124 0.00319 0.0
C177 C 0.01803 0.50355 0.949 0.0
O178 O 0.06297 0.55209 0.07535 0.0
O179 O 0.05457 0.54562 0.02945 0.0
H180 H 0.09228 0.11605 0.20048 0.0
H181 H 0.07342 0.09961 0.24623 0.0
H182 H 0.15935 0.10067 0.27214 0.0
H183 H 0.17857 0.118 0.22676 0.0
H184 H 0.12094 0.0491 0.28652 0.0
H185 H 0.12561 0.15687 0.29627 0.0
H186 H 0.11589 0.20494 0.28215 0.0
H187 H 0.02521 0.17177 0.29 0.0
H188 H 0.03439 0.1233 0.30374 0.0
H189 H 0.07625 0.03125 0.43204 0.0
H190 H 0.10222 0.05259 0.39018 0.0
H191 H 0.02177 0.06037 0.35589 0.0
H192 H 0.99609 0.03907 0.39699 0.0
H193 H 0.06124 0.1097 0.34758 0.0
H194 H 0.05367 0.00272 0.33311 0.0
H195 H 0.05972 0.952 0.34358 0.0
H196 H 0.15129 0.98051 0.34131 0.0
H197 H 0.14576 0.03162 0.33127 0.0
C198 C 0.10731 0.11317 0.21594 0.0
C199 C 0.13709 0.11862 0.20969 0.0
C200 C 0.09641 0.10357 0.24213 0.0
C201 C 0.11494 0.0991 0.26285 0.0
C202 C 0.14458 0.10387 0.25655 0.0
C203 C 0.15553 0.11369 0.23042 0.0
C204 C 0.10336 0.08988 0.29115 0.0
C205 C 0.10836 0.06265 0.30012 0.0
C206 C 0.08625 0.10706 0.30867 0.0
C207 C 0.0807 0.13637 0.30084 0.0
C208 C 0.1036 0.15975 0.29482 0.0
C209 C 0.09818 0.18708 0.2869 0.0
C210 C 0.06995 0.19138 0.28513 0.0
C211 C 0.04707 0.16839 0.29136 0.0
C212 C 0.05236 0.141 0.29924 0.0
C213 C 0.06426 0.03801 0.41575 0.0
C214 C 0.03411 0.03339 0.41782 0.0
C215 C 0.07906 0.04997 0.39172 0.0
C216 C 0.06396 0.05792 0.36963 0.0
C217 C 0.034 0.05449 0.37247 0.0
C218 C 0.01931 0.0422 0.39604 0.0
C219 C 0.07876 0.06885 0.34302 0.0
C220 C 0.07424 0.09636 0.33425 0.0
C221 C 0.09587 0.05166 0.32547 0.0
C222 C 0.09929 0.02113 0.33192 0.0
C223 C 0.07509 0.99829 0.33521 0.0
C224 C 0.07842 0.96945 0.34098 0.0
C225 C 0.10587 0.96307 0.34323 0.0
C226 C 0.13004 0.98552 0.33966 0.0
C227 C 0.12682 0.01444 0.33394 0.0
H228 H 0.10841 0.94071 0.34765 0.0
H229 H 0.0658 0.21255 0.27898 0.0
H230 H 0.44477 0.89972 0.68876 0.0
H231 H 0.46454 0.92411 0.73341 0.0
H232 H 0.38051 0.93915 0.76247 0.0
H233 H 0.3604 0.91415 0.71831 0.0
H234 H 0.42254 0.9897 0.77415 0.0
H235 H 0.40676 0.88296 0.78539 0.0
H236 H 0.41185 0.83021 0.77186 0.0
H237 H 0.50336 0.85524 0.77789 0.0
H238 H 0.49883 0.90827 0.79107 0.0
H239 H 0.43325 0.00083 0.92528 0.0
H240 H 0.42162 0.99104 0.87518 0.0
H241 H 0.50998 0.98586 0.85369 0.0
H242 H 0.5217 0.9965 0.90364 0.0
H243 H 0.47018 0.93323 0.83614 0.0
H244 H 0.4864 0.03876 0.82844 0.0
H245 H 0.4822 0.09181 0.84146 0.0
H246 H 0.3915 0.06977 0.82851 0.0
H247 H 0.39507 0.01643 0.8158 0.0
C248 C 0.43038 0.90789 0.70473 0.0
C249 C 0.4009 0.90483 0.69979 0.0
C250 C 0.44179 0.92204 0.73021 0.0
C251 C 0.42401 0.93345 0.75135 0.0
C252 C 0.3947 0.93075 0.7464 0.0
C253 C 0.38324 0.91647 0.72104 0.0
C254 C 0.4357 0.94746 0.77894 0.0
C255 C 0.43273 0.97727 0.78782 0.0
C256 C 0.44974 0.93157 0.79646 0.0
C257 C 0.45248 0.89964 0.78891 0.0
C258 C 0.42799 0.87726 0.78363 0.0
C259 C 0.43077 0.84731 0.77605 0.0
C260 C 0.45792 0.8394 0.77393 0.0
C261 C 0.48234 0.86141 0.77949 0.0
C262 C 0.47968 0.89142 0.78703 0.0
C263 C 0.4504 0.99926 0.90966 0.0
C264 C 0.4785 0.00029 0.91815 0.0
C265 C 0.44372 0.9933 0.88109 0.0
C266 C 0.46492 0.98756 0.86069 0.0
C267 C 0.49332 0.99028 0.86903 0.0
C268 C 0.50008 0.99681 0.89749 0.0
C269 C 0.45674 0.97537 0.8315 0.0
C270 C 0.46027 0.94581 0.82236 0.0
C271 C 0.44332 0.99151 0.81375 0.0
C272 C 0.44096 0.02351 0.82146 0.0
C273 C 0.4655 0.04514 0.82865 0.0
C274 C 0.46325 0.07529 0.8359 0.0
C275 C 0.43659 0.08414 0.83589 0.0
C276 C 0.41213 0.06287 0.82855 0.0
C277 C 0.41426 0.03267 0.82129 0.0
H278 H 0.43489 0.1075 0.8415 0.0
H279 H 0.46003 0.8162 0.76803 0.0
H280 H 0.55009 0.39482 0.7963 0.0
H281 H 0.54969 0.40615 0.74695 0.0
H282 H 0.62313 0.47755 0.76077 0.0
H283 H 0.62362 0.46648 0.80986 0.0
H284 H 0.57824 0.49517 0.73665 0.0
H285 H 0.63205 0.4148 0.72246 0.0
H286 H 0.64124 0.36356 0.72654 0.0
H287 H 0.56521 0.32538 0.68096 0.0
H288 H 0.55533 0.3764 0.67694 0.0
H289 H 0.58374 0.53938 0.60422 0.0
H290 H 0.60484 0.51632 0.64052 0.0
H291 H 0.53704 0.43813 0.6313 0.0
H292 H 0.51698 0.46051 0.59378 0.0
H293 H 0.58426 0.42341 0.65197 0.0
H294 H 0.52555 0.49958 0.67282 0.0
H295 H 0.5121 0.54926 0.66997 0.0
H296 H 0.59239 0.59335 0.70511 0.0
H297 H 0.60647 0.54388 0.70778 0.0
C298 C 0.5661 0.41291 0.7887 0.0
C299 C 0.58675 0.42984 0.80681 0.0
C300 C 0.56606 0.41912 0.76056 0.0
C301 C 0.58665 0.44238 0.75027 0.0
C302 C 0.60724 0.45935 0.76836 0.0
C303 C 0.6074 0.45306 0.7964 0.0
C304 C 0.58528 0.45077 0.7213 0.0
C305 C 0.5802 0.47971 0.7181 0.0
C306 C 0.5869 0.43014 0.6973 0.0
C307 C 0.59283 0.39943 0.69961 0.0
C308 C 0.61716 0.39548 0.71351 0.0
C309 C 0.62252 0.36647 0.71577 0.0
C310 C 0.60379 0.34123 0.70407 0.0
C311 C 0.57969 0.34495 0.69003 0.0
C312 C 0.57422 0.37391 0.68772 0.0
C313 C 0.57435 0.5166 0.60898 0.0
C314 C 0.5488 0.50163 0.59666 0.0
C315 C 0.58626 0.50351 0.62973 0.0
C316 C 0.57189 0.47603 0.63917 0.0
C317 C 0.54832 0.45945 0.62441 0.0
C318 C 0.53686 0.47221 0.60305 0.0
C319 C 0.57749 0.46791 0.66741 0.0
C320 C 0.58297 0.43902 0.67053 0.0
C321 C 0.57568 0.48835 0.69159 0.0
C322 C 0.56719 0.5181 0.69018 0.0
C323 C 0.5404 0.51989 0.67976 0.0
C324 C 0.53266 0.548 0.6782 0.0
C325 C 0.55142 0.57445 0.68728 0.0
C326 C 0.57792 0.57285 0.69802 0.0
C327 C 0.58579 0.54479 0.69956 0.0
H328 H 0.54538 0.5962 0.68607 0.0
H329 H 0.60797 0.31878 0.70585 0.0
H330 H 0.97045 0.60597 0.31107 0.0
H331 H 0.96003 0.60343 0.26089 0.0
H332 H 0.87985 0.54313 0.2755 0.0
H333 H 0.89026 0.54519 0.32538 0.0
H334 H 0.91246 0.5225 0.23189 0.0
H335 H 0.88057 0.61671 0.26202 0.0
H336 H 0.88771 0.66823 0.28596 0.0
H337 H 0.96006 0.69565 0.23052 0.0
H338 H 0.95361 0.64427 0.20651 0.0
H339 H 0.92671 0.50519 0.09279 0.0
H340 H 0.89383 0.52015 0.13038 0.0
H341 H 0.95375 0.60355 0.14855 0.0
H342 H 0.98413 0.59017 0.10927 0.0
H343 H 0.91263 0.61046 0.17716 0.0
H344 H 0.96315 0.52337 0.16769 0.0
H345 H 0.97115 0.47349 0.14657 0.0
H346 H 0.88298 0.43529 0.16459 0.0
H347 H 0.87449 0.48505 0.1856 0.0
C348 C 0.95061 0.59224 0.3035 0.0
C349 C 0.93127 0.57575 0.32204 0.0
C350 C 0.94451 0.59108 0.27498 0.0
C351 C 0.91886 0.57358 0.26466 0.0
C352 C 0.89957 0.55704 0.28315 0.0
C353 C 0.90566 0.55815 0.31162 0.0
C354 C 0.91344 0.57035 0.23412 0.0
C355 C 0.9118 0.54161 0.21991 0.0
C356 C 0.91336 0.59544 0.21858 0.0
C357 C 0.91655 0.62661 0.23245 0.0
C358 C 0.89801 0.63372 0.25496 0.0
C359 C 0.90196 0.66291 0.26856 0.0
C360 C 0.92431 0.6852 0.25976 0.0
C361 C 0.94272 0.67839 0.23728 0.0
C362 C 0.93887 0.64927 0.22363 0.0
C363 C 0.93147 0.52774 0.10337 0.0
C364 C 0.95826 0.54621 0.09911 0.0
C365 C 0.91304 0.53605 0.12536 0.0
C366 C 0.9225 0.56173 0.14396 0.0
C367 C 0.94615 0.58302 0.1354 0.0
C368 C 0.96367 0.57542 0.11266 0.0
C369 C 0.91382 0.56285 0.17451 0.0
C370 C 0.91237 0.59111 0.18904 0.0
C371 C 0.91318 0.53767 0.19045 0.0
C372 C 0.91809 0.50788 0.17771 0.0
C373 C 0.94549 0.5043 0.167 0.0
C374 C 0.9501 0.4761 0.15507 0.0
C375 C 0.92755 0.45127 0.15412 0.0
C376 C 0.90038 0.45457 0.16521 0.0
C377 C 0.89565 0.48275 0.1771 0.0
H378 H 0.93115 0.42945 0.14488 0.0
H379 H 0.92737 0.70775 0.27036 0.0
H380 H 0.19824 0.07331 0.1417 0.0
H381 H 0.24116 0.05599 0.12153 0.0
H382 H 0.27133 0.14266 0.08958 0.0
H383 H 0.22902 0.16081 0.11078 0.0
H384 H 0.27825 0.09325 0.04999 0.0
H385 H 0.30025 0.12878 0.14577 0.0
H386 H 0.29177 0.13222 0.19735 0.0
H387 H 0.29289 0.03761 0.1979 0.0
H388 H 0.30095 0.03351 0.1462 0.0
H389 H 0.42787 0.09735 0.0308 0.0
H390 H 0.37921 0.10485 0.04406 0.0
H391 H 0.3595 0.01599 0.07385 0.0
H392 H 0.40862 0.0082 0.05998 0.0
H393 H 0.34504 0.06186 0.11343 0.0
H394 H 0.32735 0.02772 0.01723 0.0
H395 H 0.33647 0.02547 0.96576 0.0
H396 H 0.32799 0.1183 0.96589 0.0
H397 H 0.31923 0.12126 0.01747 0.0
C398 C 0.21407 0.08899 0.13075 0.0
C399 C 0.21003 0.11875 0.12836 0.0
C400 C 0.23858 0.07886 0.11897 0.0
C401 C 0.25965 0.09803 0.10417 0.0
C402 C 0.25536 0.12738 0.10084 0.0
C403 C 0.23099 0.13769 0.11294 0.0
C404 C 0.28653 0.08773 0.09302 0.0
C405 C 0.29297 0.08662 0.06388 0.0
C406 C 0.30548 0.07837 0.111 0.0
C407 C 0.30086 0.08076 0.14209 0.0
C408 C 0.29843 0.10865 0.15686 0.0
C409 C 0.29375 0.11073 0.18612 0.0
C410 C 0.2917 0.08512 0.20088 0.0
C411 C 0.29443 0.05741 0.18642 0.0
C412 C 0.29907 0.05519 0.15714 0.0
C413 C 0.41294 0.07907 0.03951 0.0
C414 C 0.42191 0.05204 0.04402 0.0
C415 C 0.38511 0.08341 0.04715 0.0
C416 C 0.36553 0.061 0.05991 0.0
C417 C 0.37418 0.03359 0.06394 0.0
C418 C 0.4021 0.029 0.05576 0.0
C419 C 0.33685 0.06741 0.07036 0.0
C420 C 0.33014 0.06802 0.09944 0.0
C421 C 0.31772 0.07642 0.05233 0.0
C422 C 0.32284 0.07477 0.02127 0.0
C423 C 0.32765 0.04773 0.00633 0.0
C424 C 0.33271 0.04631 0.97712 0.0
C425 C 0.33286 0.07174 0.96257 0.0
C426 C 0.32788 0.09862 0.9772 0.0
C427 C 0.32282 0.10017 0.00642 0.0
H428 H 0.33679 0.0706 0.93995 0.0
H429 H 0.28807 0.08678 0.22354 0.0
H430 H 0.31368 0.91222 0.54374 0.0
H431 H 0.26855 0.92412 0.52891 0.0
H432 H 0.23012 0.90743 0.61116 0.0
H433 H 0.27545 0.89638 0.62636 0.0
H434 H 0.19663 0.87757 0.56238 0.0
H435 H 0.24408 0.97415 0.60118 0.0
H436 H 0.28349 0.01791 0.60803 0.0
H437 H 0.28127 0.03413 0.52088 0.0
H438 H 0.24213 0.9901 0.51337 0.0
H439 H 0.07085 0.9413 0.55398 0.0
H440 H 0.11313 0.92117 0.56397 0.0
H441 H 0.15894 0.96391 0.49357 0.0
H442 H 0.11695 0.98566 0.48488 0.0
H443 H 0.18905 0.97943 0.5368 0.0
H444 H 0.13932 0.88198 0.49882 0.0
H445 H 0.09847 0.83935 0.49433 0.0
H446 H 0.10375 0.82531 0.58166 0.0
H447 H 0.14438 0.8681 0.58678 0.0
C448 C 0.29562 0.91125 0.55866 0.0
C449 C 0.29807 0.90355 0.58619 0.0
C450 C 0.26992 0.91806 0.5502 0.0
C451 C 0.24605 0.91665 0.56896 0.0
C452 C 0.24832 0.90862 0.59639 0.0
C453 C 0.27424 0.90247 0.60507 0.0
C454 C 0.21868 0.92335 0.55972 0.0
C455 C 0.19479 0.89987 0.55696 0.0
C456 C 0.21655 0.95234 0.55232 0.0
C457 C 0.24045 0.97852 0.55661 0.0
C458 C 0.25226 0.98677 0.58337 0.0
C459 C 0.27448 0.0117 0.5874 0.0
C460 C 0.28496 0.02872 0.56488 0.0
C461 C 0.27319 0.02087 0.53828 0.0
C462 C 0.25099 0.99592 0.53413 0.0
C463 C 0.08949 0.94506 0.53979 0.0
C464 C 0.09048 0.96433 0.51821 0.0
C465 C 0.11382 0.93368 0.5456 0.0
C466 C 0.13943 0.94077 0.52946 0.0
C467 C 0.13956 0.95809 0.5064 0.0
C468 C 0.11541 0.97007 0.50105 0.0
C469 C 0.16678 0.93342 0.53864 0.0
C470 C 0.19077 0.95692 0.5417 0.0
C471 C 0.16891 0.90444 0.54641 0.0
C472 C 0.14479 0.87837 0.54321 0.0
C473 C 0.13169 0.86989 0.5171 0.0
C474 C 0.10857 0.84569 0.51444 0.0
C475 C 0.0985 0.82966 0.5377 0.0
C476 C 0.11157 0.83774 0.56366 0.0
C477 C 0.13468 0.86193 0.56644 0.0
H478 H 0.08058 0.81096 0.5356 0.0
H479 H 0.30213 0.04806 0.56805 0.0
H480 H 0.67901 0.457 0.94657 0.0
H481 H 0.72699 0.47144 0.96649 0.0
H482 H 0.76194 0.42114 0.89594 0.0
H483 H 0.71402 0.40645 0.87642 0.0
H484 H 0.77645 0.40503 0.94463 0.0
H485 H 0.77826 0.49713 0.9031 0.0
H486 H 0.7616 0.54317 0.89251 0.0
H487 H 0.76457 0.57536 0.98023 0.0
H488 H 0.78087 0.52928 0.99143 0.0
H489 H 0.9255 0.457 0.96355 0.0
H490 H 0.87581 0.44036 0.94963 0.0
H491 H 0.84753 0.49449 0.02131 0.0
H492 H 0.89769 0.51203 0.03455 0.0
H493 H 0.8283 0.508 0.9745 0.0
H494 H 0.83033 0.41382 0.01383 0.0
H495 H 0.84993 0.36826 0.02043 0.0
H496 H 0.84283 0.34047 0.93196 0.0
H497 H 0.82349 0.38601 0.92476 0.0
C498 C 0.69718 0.44975 0.93515 0.0
C499 C 0.69326 0.43086 0.91007 0.0
C500 C 0.72445 0.45792 0.94645 0.0
C501 C 0.74795 0.44729 0.93266 0.0
C502 C 0.74406 0.42944 0.90693 0.0
C503 C 0.71686 0.42123 0.89574 0.0
C504 C 0.77609 0.45271 0.94605 0.0
C505 C 0.78796 0.42757 0.95096 0.0
C506 C 0.79071 0.48205 0.95473 0.0
C507 C 0.78041 0.50955 0.94816 0.0
C508 C 0.77503 0.51385 0.92019 0.0
C509 C 0.76573 0.54 0.91406 0.0
C510 C 0.76193 0.56213 0.9357 0.0
C511 C 0.76746 0.55817 0.96351 0.0
C512 C 0.77673 0.53204 0.96975 0.0
C513 C 0.90848 0.46434 0.97686 0.0
C514 C 0.91498 0.48527 1.00027 0.0
C515 C 0.88012 0.45485 0.96895 0.0
C516 C 0.85789 0.46596 0.98458 0.0
C517 C 0.86437 0.48556 0.00905 0.0
C518 C 0.89285 0.49535 0.01675 0.0
C519 C 0.82868 0.4603 0.9733 0.0
C520 C 0.81662 0.48543 0.96861 0.0
C521 C 0.81413 0.43094 0.96436 0.0
C522 C 0.8256 0.40343 0.96875 0.0
C523 C 0.8331 0.39808 0.99576 0.0
C524 C 0.84414 0.37224 0.99961 0.0
C525 C 0.84766 0.35151 0.97663 0.0
C526 C 0.84009 0.35653 0.94975 0.0
C527 C 0.82904 0.38233 0.94578 0.0
H528 H 0.85623 0.33153 0.97966 0.0
H529 H 0.75477 0.58238 0.9309 0.0
H530 H 0.81438 0.61404 0.3998 0.0
H531 H 0.76353 0.60204 0.41379 0.0
H532 H 0.78052 0.53064 0.46091 0.0
H533 H 0.83144 0.54204 0.44592 0.0
H534 H 0.73079 0.51398 0.4356 0.0
H535 H 0.77532 0.59945 0.4936 0.0
H536 H 0.80521 0.6497 0.50406 0.0
H537 H 0.74686 0.69024 0.46093 0.0
H538 H 0.7169 0.64014 0.44966 0.0
H539 H 0.59717 0.5027 0.50783 0.0
H540 H 0.64956 0.51648 0.50295 0.0
H541 H 0.64061 0.57876 0.44209 0.0
H542 H 0.58801 0.56515 0.44731 0.0
H543 H 0.68728 0.59932 0.48014 0.0
H544 H 0.64688 0.51098 0.41789 0.0
H545 H 0.61601 0.46072 0.41084 0.0
H546 H 0.6671 0.42566 0.46702 0.0
H547 H 0.69803 0.47589 0.47472 0.0
C548 C 0.80705 0.5955 0.41278 0.0
C549 C 0.82648 0.57899 0.42203 0.0
C550 C 0.77817 0.5888 0.4209 0.0
C551 C 0.76848 0.56601 0.439 0.0
C552 C 0.78768 0.54848 0.44712 0.0
C553 C 0.8166 0.55491 0.43859 0.0
C554 C 0.7385 0.56134 0.45007 0.0
C555 C 0.72144 0.53255 0.44573 0.0
C556 C 0.72632 0.58562 0.46332 0.0
C557 C 0.74396 0.61595 0.47058 0.0
C558 C 0.76893 0.61904 0.48618 0.0
C559 C 0.7859 0.64751 0.49225 0.0
C560 C 0.77796 0.67314 0.48312 0.0
C561 C 0.75299 0.67036 0.46796 0.0
C562 C 0.736 0.64192 0.46173 0.0
C563 C 0.60656 0.51963 0.49375 0.0
C564 C 0.58912 0.53267 0.47755 0.0
C565 C 0.63629 0.52756 0.49109 0.0
C566 C 0.64875 0.54835 0.47196 0.0
C567 C 0.63123 0.56269 0.45696 0.0
C568 C 0.6014 0.55478 0.4597 0.0
C569 C 0.67972 0.55228 0.46501 0.0
C570 C 0.69687 0.58084 0.47022 0.0
C571 C 0.69212 0.52776 0.45294 0.0
C572 C 0.67465 0.49718 0.44697 0.0
C573 C 0.65152 0.49253 0.42872 0.0
C574 C 0.63398 0.46408 0.42466 0.0
C575 C 0.63955 0.44002 0.43852 0.0
C576 C 0.66281 0.44432 0.45631 0.0
C577 C 0.68038 0.47276 0.46049 0.0
H578 H 0.62587 0.41804 0.43545 0.0
H579 H 0.79114 0.69515 0.48783 0.0
H580 H 0.1707 0.26018 0.09753 0.0
H581 H 0.14621 0.29873 0.08219 0.0
H582 H 0.06484 0.23842 0.08915 0.0
H583 H 0.08923 0.19997 0.10555 0.0
H584 H 0.08374 0.278 0.03367 0.0
H585 H 0.06269 0.27999 0.1342 0.0
H586 H 0.07476 0.28044 0.18401 0.0
H587 H 0.13638 0.36224 0.177 0.0
H588 H 0.12503 0.36192 0.12694 0.0
H589 H 0.00397 0.40286 0.03022 0.0
H590 H 0.01963 0.35457 0.03522 0.0
H591 H 0.0997 0.40368 0.06824 0.0
H592 H 0.08406 0.45124 0.06369 0.0
H593 H 0.07437 0.36435 0.10356 0.0
H594 H 0.09544 0.36292 0.00329 0.0
H595 H 0.08443 0.36254 0.9532 0.0
H596 H 0.02302 0.28038 0.95894 0.0
H597 H 0.03336 0.28052 0.00922 0.0
C598 C 0.14759 0.25508 0.09572 0.0
C599 C 0.13189 0.22715 0.10297 0.0
C600 C 0.13364 0.27709 0.08686 0.0
C601 C 0.10372 0.27144 0.08441 0.0
C602 C 0.08797 0.24321 0.09079 0.0
C603 C 0.1019 0.22136 0.10032 0.0
C604 C 0.08919 0.29601 0.07692 0.0
C605 C 0.08111 0.29666 0.04902 0.0
C606 C 0.0862 0.32055 0.09678 0.0
C607 C 0.09332 0.32067 0.12674 0.0
C608 C 0.0791 0.29783 0.14317 0.0
C609 C 0.08574 0.29812 0.17147 0.0
C610 C 0.1064 0.32129 0.18364 0.0
C611 C 0.12044 0.34425 0.16753 0.0
C612 C 0.11391 0.34403 0.13919 0.0
C613 C 0.02522 0.40317 0.03769 0.0
C614 C 0.04284 0.43076 0.04652 0.0
C615 C 0.03414 0.37561 0.04069 0.0
C616 C 0.06082 0.37537 0.05242 0.0
C617 C 0.07895 0.40309 0.05945 0.0
C618 C 0.07006 0.43032 0.05665 0.0
C619 C 0.06929 0.34694 0.06002 0.0
C620 C 0.07644 0.34558 0.08812 0.0
C621 C 0.0713 0.32187 0.04026 0.0
C622 C 0.06488 0.32196 0.01013 0.0
C623 C 0.07934 0.34496 0.99397 0.0
C624 C 0.07328 0.34474 0.96552 0.0
C625 C 0.05296 0.32151 0.95292 0.0
C626 C 0.0387 0.29841 0.96874 0.0
C627 C 0.04466 0.29854 0.99722 0.0
H628 H 0.04832 0.32136 0.93088 0.0
H629 H 0.11147 0.32151 0.20557 0.0
H630 H 0.61055 0.32667 0.8535 0.0
H631 H 0.5981 0.27266 0.86069 0.0
H632 H 0.60709 0.29424 0.95042 0.0
H633 H 0.61979 0.34787 0.94328 0.0
H634 H 0.63694 0.25165 0.93088 0.0
H635 H 0.54131 0.27294 0.92066 0.0
H636 H 0.50402 0.28956 0.89495 0.0
H637 H 0.51078 0.22067 0.82779 0.0
H638 H 0.54839 0.20388 0.85301 0.0
H639 H 0.55729 0.1594 0.01858 0.0
H640 H 0.57637 0.19659 0.98643 0.0
H641 H 0.5651 0.12825 0.91628 0.0
H642 H 0.54459 0.08988 0.94906 0.0
H643 H 0.54413 0.18404 0.90927 0.0
H644 H 0.63189 0.15574 0.93336 0.0
H645 H 0.66431 0.14135 0.96645 0.0
H646 H 0.66832 0.22695 0.01484 0.0
H647 H 0.63565 0.24172 0.98233 0.0
C648 C 0.60937 0.31977 0.87475 0.0
C649 C 0.61623 0.34124 0.89787 0.0
C650 C 0.60238 0.28901 0.8788 0.0
C651 C 0.60193 0.27951 0.90604 0.0
C652 C 0.6077 0.30111 0.92917 0.0
C653 C 0.61486 0.33168 0.92513 0.0
C654 C 0.59641 0.24714 0.91097 0.0
C655 C 0.61677 0.23672 0.92591 0.0
C656 C 0.57054 0.22742 0.90357 0.0
C657 C 0.54791 0.23744 0.8885 0.0
C658 C 0.53501 0.26151 0.9003 0.0
C659 C 0.51379 0.27093 0.88584 0.0
C660 C 0.50512 0.25626 0.8597 0.0
C661 C 0.51758 0.23207 0.84801 0.0
C662 C 0.53884 0.22258 0.86237 0.0
C663 C 0.55885 0.15187 0.99638 0.0
C664 C 0.54933 0.12158 0.98637 0.0
C665 C 0.57 0.1733 0.978 0.0
C666 C 0.57258 0.16509 0.94909 0.0
C667 C 0.56345 0.13485 0.93866 0.0
C668 C 0.55198 0.11303 0.95733 0.0
C669 C 0.58397 0.1893 0.93064 0.0
C670 C 0.56488 0.19835 0.91304 0.0
C671 C 0.61076 0.20823 0.93623 0.0
C672 C 0.63144 0.1999 0.95521 0.0
C673 C 0.63972 0.17152 0.95102 0.0
C674 C 0.65811 0.16327 0.96972 0.0
C675 C 0.66841 0.18324 0.99269 0.0
C676 C 0.66042 0.21155 0.99697 0.0
C677 C 0.64205 0.21991 0.97835 0.0
H678 H 0.68257 0.17677 0.00719 0.0
H679 H 0.48868 0.26358 0.84854 0.0
H680 H 0.93762 0.67243 0.39627 0.0
H681 H 0.95754 0.72336 0.41667 0.0
H682 H 0.91095 0.70477 0.49496 0.0
H683 H 0.89171 0.6536 0.47519 0.0
H684 H 0.90391 0.75933 0.47115 0.0
H685 H 0.97929 0.70682 0.49376 0.0
H686 H 0.01455 0.67394 0.48011 0.0
H687 H 0.05695 0.73711 0.42284 0.0
H688 H 0.02166 0.77014 0.43582 0.0
H689 H 0.95236 0.90378 0.52651 0.0
H690 H 0.9485 0.84933 0.52945 0.0
H691 H 0.00538 0.84512 0.45618 0.0
H692 H 0.00982 0.89931 0.45394 0.0
H693 H 0.00757 0.79955 0.48452 0.0
H694 H 0.93425 0.84437 0.44924 0.0
H695 H 0.8984 0.87756 0.45089 0.0
H696 H 0.85174 0.83047 0.51785 0.0
H697 H 0.88766 0.79731 0.51691 0.0
C698 C 0.93208 0.67897 0.418 0.0
C699 C 0.91305 0.659 0.4341 0.0
C700 C 0.94335 0.70807 0.42955 0.0
C701 C 0.93573 0.7176 0.4573 0.0
C702 C 0.917 0.69772 0.47349 0.0
C703 C 0.90595 0.66859 0.46209 0.0
C704 C 0.94636 0.74879 0.46912 0.0
C705 C 0.92647 0.76801 0.4748 0.0
C706 C 0.97591 0.76017 0.47263 0.0
C707 C 0.99778 0.74089 0.46571 0.0
C708 C 0.99609 0.71365 0.47821 0.0
C709 C 0.01607 0.69498 0.47057 0.0
C710 C 0.03796 0.70341 0.45061 0.0
C711 C 0.03999 0.73061 0.43832 0.0
C712 C 0.02004 0.74934 0.44585 0.0
C713 C 0.9654 0.89141 0.51225 0.0
C714 C 0.98129 0.90531 0.48996 0.0
C715 C 0.96297 0.86032 0.5137 0.0
C716 C 0.97587 0.84307 0.49242 0.0
C717 C 0.99505 0.85788 0.47268 0.0
C718 C 0.99766 0.88888 0.47143 0.0
C719 C 0.96508 0.81025 0.48677 0.0
C720 C 0.98488 0.79071 0.48187 0.0
C721 C 0.9355 0.79879 0.48263 0.0
C722 C 0.91388 0.81871 0.48334 0.0
C723 C 0.91649 0.84128 0.4645 0.0
C724 C 0.89615 0.86007 0.46528 0.0
C725 C 0.87287 0.85621 0.48455 0.0
C726 C 0.86985 0.83351 0.50302 0.0
C727 C 0.89022 0.81474 0.5024 0.0
H728 H 0.85711 0.87075 0.4851 0.0
H729 H 0.05336 0.68889 0.44467 0.0
H730 H 0.38335 0.79718 0.65488 0.0
H731 H 0.39893 0.75156 0.633 0.0
H732 H 0.42926 0.79778 0.55899 0.0
H733 H 0.41198 0.84293 0.58038 0.0
H734 H 0.40753 0.74276 0.54237 0.0
H735 H 0.47541 0.78679 0.6129 0.0
H736 H 0.49053 0.80824 0.66053 0.0
H737 H 0.45382 0.72425 0.69415 0.0
H738 H 0.43818 0.70241 0.64676 0.0
H739 H 0.52141 0.64431 0.52207 0.0
H740 H 0.49984 0.68941 0.53447 0.0
H741 H 0.42073 0.63268 0.55903 0.0
H742 H 0.44161 0.58766 0.54517 0.0
H743 H 0.4681 0.69316 0.59806 0.0
H744 H 0.39522 0.65304 0.52478 0.0
H745 H 0.38504 0.63305 0.47562 0.0
H746 H 0.43691 0.71298 0.44583 0.0
H747 H 0.44809 0.73297 0.49488 0.0
C748 C 0.39332 0.7975 0.63393 0.0
C749 C 0.39681 0.82358 0.61941 0.0
C750 C 0.40235 0.77148 0.62144 0.0
C751 C 0.41602 0.7713 0.59454 0.0
C752 C 0.41893 0.79726 0.57977 0.0
C753 C 0.40921 0.82309 0.59202 0.0
C754 C 0.4278 0.74432 0.58225 0.0
C755 C 0.42085 0.7321 0.55462 0.0
C756 C 0.44541 0.73022 0.59793 0.0
C757 C 0.45546 0.74304 0.62632 0.0
C758 C 0.4705 0.77293 0.63047 0.0
C759 C 0.47915 0.78516 0.65742 0.0
C760 C 0.47309 0.76764 0.68036 0.0
C761 C 0.45849 0.7378 0.67636 0.0
C762 C 0.44977 0.72547 0.64946 0.0
C763 C 0.49906 0.64155 0.52901 0.0
C764 C 0.48292 0.6126 0.532 0.0
C765 C 0.48684 0.66723 0.53626 0.0
C766 C 0.45856 0.66432 0.54723 0.0
C767 C 0.44228 0.63538 0.54982 0.0
C768 C 0.4542 0.6097 0.54179 0.0
C769 C 0.44715 0.69147 0.55877 0.0
C770 C 0.45454 0.70385 0.58609 0.0
C771 C 0.43027 0.70582 0.54277 0.0
C772 C 0.42292 0.69421 0.51343 0.0
C773 C 0.40481 0.66612 0.50774 0.0
C774 C 0.3988 0.65482 0.4799 0.0
C775 C 0.41045 0.67166 0.4576 0.0
C776 C 0.42801 0.69989 0.46311 0.0
C777 C 0.43423 0.71119 0.49092 0.0
H778 H 0.40577 0.66288 0.43606 0.0
H779 H 0.47974 0.77717 0.70122 0.0
H780 H 0.87326 0.86067 0.80177 0.0
H781 H 0.89079 0.87373 0.75459 0.0
H782 H 0.90999 0.96791 0.78543 0.0
H783 H 0.89084 0.95485 0.83229 0.0
H784 H 0.8902 0.9667 0.73805 0.0
H785 H 0.96324 0.91925 0.76853 0.0
H786 H 0.98432 0.87975 0.78755 0.0
H787 H 0.95305 0.81709 0.71769 0.0
H788 H 0.93147 0.85614 0.69841 0.0
H789 H 0.99505 0.0167 0.63317 0.0
H790 H 0.97037 0.99856 0.67597 0.0
H791 H 0.9268 0.91908 0.62789 0.0
H792 H 0.95147 0.93762 0.5842 0.0
H793 H 0.95635 0.91029 0.68104 0.0
H794 H 0.88756 0.96613 0.65002 0.0
H795 H 0.87416 0.0112 0.63287 0.0
H796 H 0.90708 0.06468 0.70751 0.0
H797 H 0.92102 0.02001 0.72494 0.0
C798 C 0.88141 0.88414 0.79849 0.0
C799 C 0.88082 0.9067 0.82083 0.0
C800 C 0.89162 0.89165 0.77145 0.0
C801 C 0.90238 0.92187 0.76615 0.0
C802 C 0.90185 0.94442 0.78862 0.0
C803 C 0.891 0.93696 0.81552 0.0
C804 C 0.91357 0.93006 0.73723 0.0
C805 C 0.90483 0.95437 0.72584 0.0
C806 C 0.93256 0.91408 0.7207 0.0
C807 C 0.94546 0.89051 0.7322 0.0
C808 C 0.96067 0.89698 0.75734 0.0
C809 C 0.97274 0.87469 0.76814 0.0
C810 C 0.96995 0.8459 0.75388 0.0
C811 C 0.95515 0.83938 0.72874 0.0
C812 C 0.94301 0.86159 0.71785 0.0
C813 C 0.98002 0.99544 0.6315 0.0
C814 C 0.97522 0.97862 0.60518 0.0
C815 C 0.9659 0.98511 0.65609 0.0
C816 C 0.94673 0.95746 0.65528 0.0
C817 C 0.94154 0.94052 0.62903 0.0
C818 C 0.95543 0.9512 0.60407 0.0
C819 C 0.93283 0.94663 0.68221 0.0
C820 C 0.94131 0.92209 0.69326 0.0
C821 C 0.91445 0.96304 0.69886 0.0
C822 C 0.90544 0.98974 0.68871 0.0
C823 C 0.89206 0.98753 0.66271 0.0
C824 C 0.88435 0.013 0.65295 0.0
C825 C 0.88979 0.04079 0.66908 0.0
C826 C 0.90286 0.04314 0.69505 0.0
C827 C 0.91062 0.01774 0.7049 0.0
H828 H 0.88386 0.06049 0.66146 0.0
H829 H 0.97931 0.82868 0.76228 0.0
H830 H 0.65733 0.1309 0.31013 0.0
H831 H 0.63937 0.10813 0.26441 0.0
H832 H 0.55234 0.10107 0.29738 0.0
H833 H 0.57027 0.12362 0.34358 0.0
H834 H 0.56103 0.04903 0.26372 0.0
H835 H 0.57627 0.15489 0.25703 0.0
H836 H 0.60249 0.20748 0.2617 0.0
H837 H 0.66793 0.18361 0.20312 0.0
H838 H 0.6423 0.13072 0.19843 0.0
H839 H 0.50202 0.02823 0.12442 0.0
H840 H 0.51499 0.03958 0.17392 0.0
H841 H 0.60442 0.06069 0.14808 0.0
H842 H 0.59118 0.05056 0.09864 0.0
H843 H 0.59059 0.1059 0.17984 0.0
H844 H 0.57322 0.99797 0.18771 0.0
H845 H 0.54399 0.94669 0.18281 0.0
H846 H 0.479 0.97595 0.23881 0.0
H847 H 0.50769 0.02751 0.24376 0.0
C848 C 0.63436 0.12426 0.3078 0.0
C849 C 0.61524 0.12909 0.33055 0.0
C850 C 0.62411 0.11138 0.28158 0.0
C851 C 0.5945 0.103 0.27738 0.0
C852 C 0.57528 0.10732 0.30012 0.0
C853 C 0.58555 0.12045 0.32642 0.0
C854 C 0.58394 0.09067 0.24892 0.0
C855 C 0.5672 0.06155 0.24537 0.0
C856 C 0.59203 0.10694 0.22497 0.0
C857 C 0.60749 0.13876 0.22758 0.0
C858 C 0.59637 0.16079 0.24532 0.0
C859 C 0.61111 0.19066 0.24794 0.0
C860 C 0.6369 0.19886 0.23277 0.0
C861 C 0.64796 0.17721 0.21488 0.0
C862 C 0.63333 0.14728 0.21222 0.0
C863 C 0.52452 0.03378 0.12947 0.0
C864 C 0.54569 0.03778 0.10781 0.0
C865 C 0.53195 0.04055 0.1578 0.0
C866 C 0.56076 0.05107 0.16493 0.0
C867 C 0.58206 0.05273 0.14324 0.0
C868 C 0.57457 0.04643 0.11498 0.0
C869 C 0.56854 0.06365 0.19426 0.0
C870 C 0.58454 0.09314 0.19805 0.0
C871 C 0.55942 0.0478 0.21836 0.0
C872 C 0.54251 0.01664 0.21593 0.0
C873 C 0.55264 0.99349 0.19888 0.0
C874 C 0.53617 0.96438 0.1961 0.0
C875 C 0.50963 0.95808 0.21044 0.0
C876 C 0.49955 0.98086 0.2277 0.0
C877 C 0.51593 0.01002 0.23053 0.0
H878 H 0.49688 0.93554 0.20822 0.0
H879 H 0.64827 0.222 0.23482 0.0
H880 H 0.45468 0.67016 0.24932 0.0
H881 H 0.45609 0.65714 0.29791 0.0
H882 H 0.39914 0.57243 0.27701 0.0
H883 H 0.39681 0.5859 0.22883 0.0
H884 H 0.38486 0.59501 0.32744 0.0
H885 H 0.47258 0.57745 0.27936 0.0
H886 H 0.51747 0.59106 0.25136 0.0
H887 H 0.54915 0.66056 0.31585 0.0
H888 H 0.50424 0.64757 0.3441 0.0
H889 H 0.43325 0.48989 0.40473 0.0
H890 H 0.41742 0.52225 0.37287 0.0
H891 H 0.45914 0.60127 0.42304 0.0
H892 H 0.47446 0.5688 0.45559 0.0
H893 H 0.47999 0.59213 0.36478 0.0
H894 H 0.39272 0.59838 0.41691 0.0
H895 H 0.34862 0.57784 0.44344 0.0
H896 H 0.31685 0.52208 0.36956 0.0
H897 H 0.36095 0.54199 0.34264 0.0
C898 C 0.44248 0.64879 0.2552 0.0
C899 C 0.42584 0.62894 0.2354 0.0
C900 C 0.44325 0.6414 0.2829 0.0
C901 C 0.42793 0.61368 0.29101 0.0
C902 C 0.411 0.594 0.27126 0.0
C903 C 0.40987 0.60161 0.24369 0.0
C904 C 0.43068 0.60436 0.31956 0.0
C905 C 0.40565 0.59441 0.33564 0.0
C906 C 0.45783 0.6041 0.33048 0.0
C907 C 0.48493 0.6118 0.31366 0.0
C908 C 0.48904 0.59577 0.28747 0.0
C909 C 0.51449 0.60335 0.27158 0.0
C910 C 0.53611 0.62674 0.28178 0.0
C911 C 0.53235 0.64251 0.30795 0.0
C912 C 0.50692 0.63504 0.32392 0.0
C913 C 0.43804 0.51416 0.40957 0.0
C914 C 0.45513 0.52696 0.43239 0.0
C915 C 0.42896 0.5326 0.39143 0.0
C916 C 0.43724 0.56406 0.39565 0.0
C917 C 0.45249 0.577 0.41964 0.0
C918 C 0.46107 0.55848 0.43821 0.0
C919 C 0.43422 0.58235 0.37235 0.0
C920 C 0.45924 0.59374 0.35704 0.0
C921 C 0.4071 0.58319 0.3619 0.0
C922 C 0.3802 0.57165 0.37776 0.0
C923 C 0.37639 0.58164 0.40633 0.0
C924 C 0.35138 0.57012 0.42145 0.0
C925 C 0.32995 0.54865 0.4082 0.0
C926 C 0.33345 0.53874 0.37978 0.0
C927 C 0.35843 0.5502 0.36456 0.0
H928 H 0.31063 0.5397 0.41995 0.0
H929 H 0.55579 0.63259 0.26943 0.0
H930 H 0.15228 0.47096 0.71684 0.0
H931 H 0.14312 0.4667 0.7676 0.0
H932 H 0.05217 0.44396 0.75407 0.0
H933 H 0.06113 0.4473 0.70329 0.0
H934 H 0.08991 0.50368 0.79482 0.0
H935 H 0.0554 0.39423 0.77207 0.0
H936 H 0.06144 0.34337 0.75232 0.0
H937 H 0.13463 0.34884 0.80341 0.0
H938 H 0.1293 0.40006 0.82305 0.0
H939 H 0.99394 0.47404 0.9021 0.0
H940 H 0.01924 0.45606 0.86014 0.0
H941 H 0.09838 0.47438 0.9048 0.0
H942 H 0.07291 0.49256 0.94737 0.0
H943 H 0.07744 0.41574 0.85219 0.0
H944 H 0.10639 0.52534 0.8792 0.0
H945 H 0.09524 0.57431 0.8992 0.0
H946 H 0.02929 0.56731 0.83907 0.0
H947 H 0.03967 0.518 0.81912 0.0
C948 C 0.13037 0.46473 0.72475 0.0
C949 C 0.10738 0.45954 0.70636 0.0
C950 C 0.12525 0.46194 0.75353 0.0
C951 C 0.0971 0.45416 0.76418 0.0
C952 C 0.07409 0.44903 0.7459 0.0
C953 C 0.0792 0.45131 0.71706 0.0
C954 C 0.09133 0.4564 0.79473 0.0
C955 C 0.08758 0.48457 0.80747 0.0
C956 C 0.08862 0.43145 0.81101 0.0
C957 C 0.09239 0.40123 0.79846 0.0
C958 C 0.07314 0.38487 0.77862 0.0
C959 C 0.07633 0.35589 0.76758 0.0
C960 C 0.09853 0.34295 0.77646 0.0
C961 C 0.11755 0.35895 0.79643 0.0
C962 C 0.11448 0.38796 0.80748 0.0
C963 C 0.01654 0.47325 0.90329 0.0
C964 C 0.03174 0.48514 0.92757 0.0
C965 C 0.03086 0.46279 0.87943 0.0
C966 C 0.06056 0.46428 0.87953 0.0
C967 C 0.07536 0.47305 0.90462 0.0
C968 C 0.06088 0.48343 0.92877 0.0
C969 C 0.07593 0.46299 0.85214 0.0
C970 C 0.08108 0.4351 0.83979 0.0
C971 C 0.07978 0.48818 0.836 0.0
C972 C 0.0736 0.51786 0.84792 0.0
C973 C 0.0893 0.5341 0.87048 0.0
C974 C 0.08316 0.56194 0.88176 0.0
C975 C 0.06151 0.57388 0.87047 0.0
C976 C 0.046 0.55802 0.84784 0.0
C977 C 0.05201 0.53013 0.83655 0.0
H978 H 0.05682 0.59545 0.8792 0.0
H979 H 0.10089 0.32047 0.76797 0.0
H980 H 0.77956 0.8745 0.90276 0.0
H981 H 0.73853 0.89692 0.9216 0.0
H982 H 0.79056 0.98582 0.92133 0.0
H983 H 0.83157 0.96349 0.90158 0.0
H984 H 0.74852 0.96563 0.97556 0.0
H985 H 0.75465 0.98139 0.87623 0.0
H986 H 0.76041 0.96536 0.82569 0.0
H987 H 0.68562 0.89588 0.83147 0.0
H988 H 0.67976 0.91115 0.88223 0.0
H989 H 0.61505 0.02713 0.9977 0.0
H990 H 0.6649 0.02203 0.98362 0.0
H991 H 0.63394 0.93302 0.94383 0.0
H992 H 0.5853 0.93776 0.95728 0.0
H993 H 0.67072 0.96407 0.90931 0.0
H994 H 0.66604 0.94471 0.00799 0.0
H995 H 0.66043 0.95743 0.05919 0.0
H996 H 0.73161 0.03134 0.0556 0.0
H997 H 0.73738 0.01929 0.00425 0.0
C998 C 0.78233 0.89881 0.90692 0.0
C999 C 0.80877 0.91723 0.90062 0.0
C1000 C 0.75889 0.91159 0.91771 0.0
C1001 C 0.76149 0.94304 0.92302 0.0
C1002 C 0.7881 0.96151 0.91755 0.0
C1003 C 0.81142 0.94874 0.90611 0.0
C1004 C 0.73571 0.95628 0.93244 0.0
C1005 C 0.73171 0.96595 0.96103 0.0
C1006 C 0.71364 0.95635 0.9136 0.0
C1007 C 0.71698 0.94719 0.88308 0.0
C1008 C 0.73963 0.96247 0.8668 0.0
C1009 C 0.74288 0.95357 0.8381 0.0
C1010 C 0.72344 0.92956 0.82539 0.0
C1011 C 0.70069 0.91444 0.84136 0.0
C1012 C 0.69739 0.92322 0.87009 0.0
C1013 C 0.61897 0.00652 0.98598 0.0
C1014 C 0.59585 0.98299 0.97865 0.0
C1015 C 0.64749 0.00357 0.97799 0.0
C1016 C 0.65331 0.97709 0.96248 0.0
C1017 C 0.63024 0.95376 0.9555 0.0
C1018 C 0.60217 0.95659 0.96342 0.0
C1019 C 0.68294 0.97288 0.95273 0.0
C1020 C 0.68769 0.96461 0.92391 0.0
C1021 C 0.70552 0.97399 0.97147 0.0
C1022 C 0.70185 0.9814 0.00223 0.0
C1023 C 0.68028 0.96389 0.01806 0.0
C1024 C 0.67712 0.97093 0.04712 0.0
C1025 C 0.69557 0.99526 0.06062 0.0
C1026 C 0.71728 0.01256 0.0451 0.0
C1027 C 0.7205 0.00564 0.01602 0.0
H1028 H 0.69311 0.00065 0.08313 0.0
H1029 H 0.72597 0.92272 0.80316 0.0
H1030 H 0.74094 0.13303 0.40079 0.0
H1031 H 0.78427 0.11686 0.41441 0.0
H1032 H 0.74733 0.10475 0.49811 0.0
H1033 H 0.70451 0.12247 0.48484 0.0
H1034 H 0.79989 0.1281 0.50346 0.0
H1035 H 0.75221 0.04366 0.44501 0.0
H1036 H 0.72848 0.01645 0.40269 0.0
H1037 H 0.80541 0.04225 0.35271 0.0
H1038 H 0.82951 0.06993 0.39468 0.0
H1039 H 0.89411 0.02492 0.53302 0.0
H1040 H 0.85342 0.04973 0.52569 0.0
H1041 H 0.89779 0.08788 0.4526 0.0
H1042 H 0.93856 0.06381 0.46034 0.0
H1043 H 0.84165 0.05073 0.44311 0.0
H1044 H 0.88859 0.13478 0.50433 0.0
H1045 H 0.91127 0.15829 0.54846 0.0
H1046 H 0.83329 0.12788 0.59537 0.0
H1047 H 0.81026 0.10383 0.55151 0.0
C1048 C 0.74206 0.12688 0.42208 0.0
C1049 C 0.71927 0.12878 0.44174 0.0
C1050 C 0.76681 0.11743 0.42983 0.0
C1051 C 0.76901 0.1089 0.45719 0.0
C1052 C 0.74627 0.11111 0.47688 0.0
C1053 C 0.72175 0.12113 0.46927 0.0
C1054 C 0.79508 0.09803 0.46534 0.0
C1055 C 0.8087 0.11086 0.49038 0.0
C1056 C 0.80701 0.07574 0.44827 0.0
C1057 C 0.79257 0.05913 0.42295 0.0
C1058 C 0.764 0.04372 0.42496 0.0
C1059 C 0.7505 0.02817 0.40103 0.0
C1060 C 0.7654 0.02769 0.37501 0.0
C1061 C 0.79388 0.04268 0.37287 0.0
C1062 C 0.80748 0.05827 0.39673 0.0
C1063 C 0.89565 0.03983 0.51628 0.0
C1064 C 0.91968 0.04322 0.49769 0.0
C1065 C 0.87232 0.05368 0.51189 0.0
C1066 C 0.87257 0.07051 0.4885 0.0
C1067 C 0.89719 0.07505 0.47078 0.0
C1068 C 0.9206 0.06165 0.47543 0.0
C1069 C 0.84631 0.08099 0.48092 0.0
C1070 C 0.83267 0.06795 0.45606 0.0
C1071 C 0.8341 0.10258 0.49837 0.0
C1072 C 0.8478 0.11728 0.52469 0.0
C1073 C 0.87635 0.1329 0.52408 0.0
C1074 C 0.88926 0.14637 0.54904 0.0
C1075 C 0.87376 0.14452 0.57471 0.0
C1076 C 0.84528 0.12927 0.57547 0.0
C1077 C 0.83228 0.11575 0.55057 0.0
H1078 H 0.88378 0.15495 0.59402 0.0
H1079 H 0.75491 0.01564 0.35652 0.0
H1080 H 0.34027 0.59108 0.0882 0.0
H1081 H 0.2928 0.57408 0.0674 0.0
H1082 H 0.25495 0.62542 0.13529 0.0
H1083 H 0.30194 0.64157 0.15616 0.0
H1084 H 0.22015 0.57404 0.12215 0.0
H1085 H 0.27707 0.65391 0.07122 0.0
H1086 H 0.31927 0.67626 0.04292 0.0
H1087 H 0.30028 0.60327 0.97824 0.0
H1088 H 0.25819 0.58026 0.0064 0.0
H1089 H 0.09742 0.60784 0.07945 0.0
H1090 H 0.14918 0.62046 0.08547 0.0
H1091 H 0.16175 0.55312 0.01805 0.0
H1092 H 0.10978 0.54086 0.01151 0.0
H1093 H 0.20986 0.60481 0.02635 0.0
H1094 H 0.14896 0.52818 0.07735 0.0
H1095 H 0.10598 0.50914 0.1062 0.0
H1096 H 0.13253 0.57898 0.17208 0.0
H1097 H 0.17537 0.59882 0.14334 0.0
C1098 C 0.32155 0.59792 0.09888 0.0
C1099 C 0.32434 0.61738 0.12368 0.0
C1100 C 0.29461 0.58848 0.08696 0.0
C1101 C 0.27045 0.59888 0.0996 0.0
C1102 C 0.27325 0.61709 0.1252 0.0
C1103 C 0.29999 0.6263 0.13711 0.0
C1104 C 0.24253 0.59284 0.08561 0.0
C1105 C 0.21795 0.58075 0.10121 0.0
C1106 C 0.23969 0.60115 0.05808 0.0
C1107 C 0.26471 0.61521 0.04102 0.0
C1108 C 0.28201 0.64255 0.05104 0.0
C1109 C 0.30589 0.65534 0.03503 0.0
C1110 C 0.3125 0.64115 0.00883 0.0
C1111 C 0.29517 0.6142 0.99856 0.0
C1112 C 0.2713 0.60128 0.01453 0.0
C1113 C 0.11136 0.59692 0.06491 0.0
C1114 C 0.0998 0.57321 0.04526 0.0
C1115 C 0.14087 0.60401 0.06844 0.0
C1116 C 0.15902 0.58708 0.05272 0.0
C1117 C 0.14794 0.56626 0.03046 0.0
C1118 C 0.11831 0.5594 0.02665 0.0
C1119 C 0.1877 0.58692 0.0633 0.0
C1120 C 0.21223 0.59765 0.04707 0.0
C1121 C 0.19058 0.5776 0.0904 0.0
C1122 C 0.16527 0.56511 0.10809 0.0
C1123 C 0.14555 0.53957 0.09792 0.0
C1124 C 0.12121 0.52864 0.11425 0.0
C1125 C 0.11651 0.54287 0.14094 0.0
C1126 C 0.13619 0.56799 0.15139 0.0
C1127 C 0.16051 0.57908 0.13509 0.0
H1128 H 0.09764 0.53439 0.15355 0.0
H1129 H 0.331 0.65108 0.99647 0.0
H1130 H 0.17336 0.47832 0.58801 0.0
H1131 H 0.22517 0.48874 0.57947 0.0
H1132 H 0.22627 0.39314 0.57155 0.0
H1133 H 0.17499 0.38264 0.58253 0.0
H1134 H 0.26834 0.41976 0.60135 0.0
H1135 H 0.23389 0.43628 0.51331 0.0
H1136 H 0.20455 0.45692 0.48145 0.0
H1137 H 0.24684 0.54701 0.50788 0.0
H1138 H 0.27612 0.52693 0.54026 0.0
H1139 H 0.41288 0.44758 0.53885 0.0
H1140 H 0.36081 0.43027 0.54397 0.0
H1141 H 0.35134 0.51876 0.5809 0.0
H1142 H 0.40318 0.53608 0.57645 0.0
H1143 H 0.31429 0.4914 0.53267 0.0
H1144 H 0.3465 0.47113 0.62346 0.0
H1145 H 0.37587 0.4476 0.65293 0.0
H1146 H 0.33781 0.35968 0.61627 0.0
H1147 H 0.30853 0.38276 0.58621 0.0
C1148 C 0.18461 0.45951 0.58449 0.0
C1149 C 0.16987 0.42965 0.58573 0.0
C1150 C 0.21421 0.46547 0.5793 0.0
C1151 C 0.22955 0.44167 0.57439 0.0
C1152 C 0.21486 0.41184 0.57513 0.0
C1153 C 0.18538 0.40588 0.58092 0.0
C1154 C 0.26105 0.44799 0.56933 0.0
C1155 C 0.2783 0.43502 0.58597 0.0
C1156 C 0.27413 0.46792 0.54931 0.0
C1157 C 0.25707 0.4801 0.52935 0.0
C1158 C 0.23685 0.4605 0.51242 0.0
C1159 C 0.22022 0.4721 0.49428 0.0
C1160 C 0.22379 0.50326 0.49268 0.0
C1161 C 0.24409 0.52288 0.50915 0.0
C1162 C 0.26073 0.5114 0.52738 0.0
C1163 C 0.39968 0.46322 0.54828 0.0
C1164 C 0.412 0.49311 0.55737 0.0
C1165 C 0.37007 0.45333 0.55115 0.0
C1166 C 0.3525 0.47336 0.56271 0.0
C1167 C 0.36473 0.50311 0.57188 0.0
C1168 C 0.3943 0.51285 0.5695 0.0
C1169 C 0.3212 0.46361 0.565 0.0
C1170 C 0.3041 0.4759 0.54777 0.0
C1171 C 0.30829 0.44255 0.58397 0.0
C1172 C 0.32558 0.42869 0.60235 0.0
C1173 C 0.34458 0.4468 0.62148 0.0
C1174 C 0.36118 0.43354 0.63833 0.0
C1175 C 0.35878 0.40217 0.6364 0.0
C1176 C 0.33969 0.38398 0.6177 0.0
C1177 C 0.32308 0.39714 0.60077 0.0
H1178 H 0.37166 0.39195 0.64945 0.0
H1179 H 0.21087 0.5122 0.47864 0.0
H1180 H 0.95539 0.83441 0.91814 0.0
H1181 H 0.97032 0.7939 0.9408 0.0
H1182 H 0.88334 0.74414 0.93936 0.0
H1183 H 0.86808 0.78572 0.91807 0.0
H1184 H 0.90485 0.73574 0.98586 0.0
H1185 H 0.94056 0.72853 0.88967 0.0
H1186 H 0.96708 0.74702 0.84702 0.0
H1187 H 0.04537 0.76812 0.89232 0.0
H1188 H 0.01927 0.75009 0.93533 0.0
H1189 H 0.94539 0.59385 0.00675 0.0
H1190 H 0.92638 0.63691 0.99313 0.0
H1191 H 0.01238 0.68901 0.98952 0.0
H1192 H 0.03135 0.64512 1.00108 0.0
H1193 H 0.98956 0.69536 0.94527 0.0
H1194 H 0.95315 0.70187 0.04199 0.0
H1195 H 0.92607 0.68204 0.08385 0.0
H1196 H 0.84873 0.66081 0.03705 0.0
H1197 H 0.87541 0.68019 0.99483 0.0
C1198 C 0.93941 0.81488 0.92278 0.0
C1199 C 0.91061 0.81323 0.91616 0.0
C1200 C 0.94801 0.79152 0.93558 0.0
C1201 C 0.92821 0.76529 0.94123 0.0
C1202 C 0.89919 0.76391 0.93517 0.0
C1203 C 0.89045 0.78769 0.92289 0.0
C1204 C 0.93792 0.73935 0.95309 0.0
C1205 C 0.92321 0.72672 0.97677 0.0
C1206 C 0.96216 0.72759 0.94171 0.0
C1207 C 0.97791 0.73818 0.91577 0.0
C1208 C 0.96341 0.73726 0.89057 0.0
C1209 C 0.97836 0.74765 0.86633 0.0
C1210 C 0.00787 0.7588 0.86698 0.0
C1211 C 0.02251 0.7595 0.89185 0.0
C1212 C 0.00765 0.74917 0.91615 0.0
C1213 C 0.96009 0.61488 0.00403 0.0
C1214 C 0.98984 0.6163 0.00548 0.0
C1215 C 0.9492 0.63962 0.99614 0.0
C1216 C 0.96777 0.66672 0.99038 0.0
C1217 C 0.99742 0.66855 0.99361 0.0
C1218 C 0.00831 0.64356 1.00063 0.0
C1219 C 0.95698 0.6921 0.97857 0.0
C1220 C 0.97135 0.70448 0.95463 0.0
C1221 C 0.93242 0.70349 0.98969 0.0
C1222 C 0.91633 0.69227 0.01521 0.0
C1223 C 0.9304 0.69285 0.0406 0.0
C1224 C 0.91512 0.6817 0.0644 0.0
C1225 C 0.88572 0.67011 0.0631 0.0
C1226 C 0.87151 0.66976 0.03803 0.0
C1227 C 0.88669 0.68087 0.01418 0.0
H1228 H 0.87394 0.66146 0.08152 0.0
H1229 H 0.01941 0.76684 0.8482 0.0
H1230 H 0.44129 0.71163 0.13474 0.0
H1231 H 0.45493 0.76534 0.12715 0.0
H1232 H 0.36565 0.77341 0.13111 0.0
H1233 H 0.3519 0.72007 0.1391 0.0
H1234 H 0.39553 0.79517 0.08382 0.0
H1235 H 0.40808 0.8035 0.1847 0.0
H1236 H 0.42828 0.79064 0.2277 0.0
H1237 H 0.5136 0.82252 0.19556 0.0
H1238 H 0.49394 0.83512 0.15216 0.0
H1239 H 0.42738 0.94099 0.05149 0.0
H1240 H 0.4073 0.90446 0.08531 0.0
H1241 H 0.49252 0.88945 0.09926 0.0
H1242 H 0.51245 0.92686 0.06662 0.0
H1243 H 0.46018 0.87331 0.1425 0.0
H1244 H 0.45421 0.85413 0.04196 0.0
H1245 H 0.44084 0.86124 0.994 0.0
H1246 H 0.35163 0.84381 0.01946 0.0
H1247 H 0.36453 0.83705 0.06773 0.0
C1248 C 0.42464 0.72498 0.13433 0.0
C1249 C 0.39553 0.71161 0.1372 0.0
C1250 C 0.43244 0.75561 0.13009 0.0
C1251 C 0.41126 0.7733 0.12884 0.0
C1252 C 0.38227 0.76009 0.13206 0.0
C1253 C 0.37447 0.72958 0.13634 0.0
C1254 C 0.4191 0.80502 0.12206 0.0
C1255 C 0.40908 0.81249 0.09699 0.0
C1256 C 0.43776 0.8271 0.13873 0.0
C1257 C 0.44952 0.82011 0.16511 0.0
C1258 C 0.43115 0.80762 0.18673 0.0
C1259 C 0.44251 0.80038 0.21118 0.0
C1260 C 0.4722 0.80572 0.21434 0.0
C1261 C 0.4906 0.81839 0.19309 0.0
C1262 C 0.47936 0.82562 0.16858 0.0
C1263 C 0.44184 0.93137 0.06331 0.0
C1264 C 0.47133 0.93649 0.05666 0.0
C1265 C 0.43039 0.91021 0.08232 0.0
C1266 C 0.44834 0.89339 0.09391 0.0
C1267 C 0.47821 0.90189 0.09038 0.0
C1268 C 0.48964 0.9234 0.07182 0.0
C1269 C 0.43643 0.86357 0.10427 0.0
C1270 C 0.4459 0.85627 0.12978 0.0
C1271 C 0.41816 0.8411 0.08742 0.0
C1272 C 0.41034 0.84561 0.05855 0.0
C1273 C 0.43176 0.85213 0.03739 0.0
C1274 C 0.42427 0.85605 0.01015 0.0
C1275 C 0.39541 0.85312 0.00372 0.0
C1276 C 0.37398 0.8462 0.02451 0.0
C1277 C 0.38136 0.84236 0.05182 0.0
H1278 H 0.38965 0.8561 0.98261 0.0
H1279 H 0.48095 0.80007 0.23328 0.0
H1280 H 0.04008 0.36465 0.57769 0.0
H1281 H 0.02015 0.31128 0.56291 0.0
H1282 H 0.09759 0.28554 0.58835 0.0
H1283 H 0.11729 0.33811 0.60274 0.0
H1284 H 0.08485 0.2657 0.53399 0.0
H1285 H 0.03978 0.26923 0.62635 0.0
H1286 H 0.00867 0.28638 0.66505 0.0
H1287 H 0.93533 0.25959 0.61294 0.0
H1288 H 0.96616 0.24267 0.57373 0.0
H1289 H 0.077 0.12209 0.57083 0.0
H1290 H 0.07559 0.17527 0.5709 0.0
H1291 H 1.00005 0.1541 0.52068 0.0
H1292 H 1.00109 0.09975 0.52061 0.0
H1293 H 1.00095 0.19846 0.57428 0.0
H1294 H 0.05477 0.1817 0.48651 0.0
H1295 H 0.09199 0.15959 0.45844 0.0
H1296 H 0.1565 0.20811 0.51427 0.0
H1297 H 0.11967 0.23017 0.54288 0.0
C1298 C 0.0525 0.34736 0.58031 0.0
C1299 C 0.08033 0.35521 0.59068 0.0
C1300 C 0.04119 0.31709 0.57194 0.0
C1301 C 0.05767 0.29472 0.57416 0.0
C1302 C 0.08478 0.30259 0.58604 0.0
C1303 C 0.096 0.33253 0.59422 0.0
C1304 C 0.04814 0.2632 0.56273 0.0
C1305 C 0.06623 0.25106 0.54246 0.0
C1306 C 0.02376 0.24432 0.5737 0.0
C1307 C 0.00535 0.25531 0.5969 0.0
C1308 C 0.0171 0.26747 0.62297 0.0
C1309 C 0.9995 0.27701 0.64505 0.0
C1310 C 0.97006 0.27425 0.6414 0.0
C1311 C 0.95816 0.26186 0.61568 0.0
C1312 C 0.97569 0.25232 0.59351 0.0
C1313 C 0.06003 0.12851 0.55969 0.0
C1314 C 0.03912 0.10674 0.54569 0.0
C1315 C 0.05932 0.15896 0.55974 0.0
C1316 C 0.03785 0.1684 0.54566 0.0
C1317 C 0.01681 0.14697 0.53157 0.0
C1318 C 0.01755 0.11614 0.5314 0.0
C1319 C 0.03822 0.20101 0.54633 0.0
C1320 C 0.01859 0.21341 0.56465 0.0
C1321 C 0.06205 0.22007 0.53466 0.0
C1322 C 0.08441 0.20771 0.51675 0.0
C1323 C 0.07689 0.18766 0.49279 0.0
C1324 C 0.09793 0.1751 0.47681 0.0
C1325 C 0.12659 0.18248 0.48454 0.0
C1326 C 0.1343 0.20249 0.50824 0.0
C1327 C 0.11336 0.2151 0.52429 0.0
H1328 H 0.14282 0.17267 0.47218 0.0
H1329 H 0.95645 0.28158 0.65854 0.0
H1330 H 0.6555 0.23409 0.42239 0.0
H1331 H 0.63611 0.2775 0.44419 0.0
H1332 H 0.55005 0.22791 0.43171 0.0
H1333 H 0.56938 0.18464 0.40947 0.0
H1334 H 0.55454 0.28189 0.41507 0.0
H1335 H 0.58285 0.24367 0.49891 0.0
H1336 H 0.61689 0.22759 0.52918 0.0
H1337 H 0.6705 0.31537 0.52989 0.0
H1338 H 0.63694 0.33185 0.49935 0.0
H1339 H 0.47622 0.38055 0.4895 0.0
H1340 H 0.49834 0.33613 0.47814 0.0
H1341 H 0.582 0.39087 0.49239 0.0
H1342 H 0.55972 0.4353 0.50485 0.0
H1343 H 0.58098 0.33593 0.50828 0.0
H1344 H 0.5552 0.37472 0.42527 0.0
H1345 H 0.52358 0.39236 0.39348 0.0
H1346 H 0.46834 0.30536 0.38904 0.0
H1347 H 0.49943 0.28731 0.42112 0.0
C1348 C 0.63244 0.23227 0.42467 0.0
C1349 C 0.61398 0.20587 0.41418 0.0
C1350 C 0.62135 0.25714 0.43722 0.0
C1351 C 0.59155 0.256 0.43996 0.0
C1352 C 0.57311 0.22945 0.42986 0.0
C1353 C 0.58418 0.20472 0.41709 0.0
C1354 C 0.57944 0.28289 0.45185 0.0
C1355 C 0.55998 0.29333 0.43569 0.0
C1356 C 0.58741 0.29879 0.47822 0.0
C1357 C 0.60751 0.28889 0.49665 0.0
C1358 C 0.602 0.25947 0.50537 0.0
C1359 C 0.62119 0.2503 0.5226 0.0
C1360 C 0.64587 0.27042 0.53139 0.0
C1361 C 0.65138 0.29979 0.52304 0.0
C1362 C 0.63227 0.30907 0.5058 0.0
C1363 C 0.49926 0.38294 0.49102 0.0
C1364 C 0.51621 0.4114 0.49807 0.0
C1365 C 0.51194 0.35759 0.48422 0.0
C1366 C 0.54194 0.36024 0.48357 0.0
C1367 C 0.55882 0.38823 0.49255 0.0
C1368 C 0.54605 0.4136 0.49984 0.0
C1369 C 0.55552 0.33432 0.47179 0.0
C1370 C 0.57541 0.3243 0.48778 0.0
C1371 C 0.54828 0.31895 0.44505 0.0
C1372 C 0.52948 0.32977 0.42582 0.0
C1373 C 0.53618 0.35943 0.41769 0.0
C1374 C 0.51838 0.36948 0.39959 0.0
C1375 C 0.49393 0.35002 0.3893 0.0
C1376 C 0.48726 0.32043 0.39706 0.0
C1377 C 0.50497 0.31027 0.41518 0.0
H1378 H 0.48019 0.35785 0.37528 0.0
H1379 H 0.6607 0.26328 0.54473 0.0
loop_
_geom_bond_atom_site_label_1
_geom_bond_atom_site_label_2
_geom_bond_distance
_geom_bond_site_symmetry_2
_ccdc_geom_bond_type
H0 C5 0.930 . S
H1 C8 0.930 . S
H2 C10 0.930 . S
H3 C4 1.016 . S
C4 H3 1.016 . S
C4 N11 1.286 . S
C5 H0 0.930 . S
C5 C6 1.397 . S
C5 C7 1.361 . S
C6 C5 1.397 . S
C6 C10 1.390 . S
C7 C5 1.361 . S
C7 C8 1.393 . S
C7 N11 1.413 . S
C8 H1 0.930 . S
C8 C7 1.393 . S
C8 C9 1.399 . S
C9 C8 1.399 . S
C9 C10 1.381 . S
C10 H2 0.930 . S
C10 C6 1.390 . S
C10 C9 1.381 . S
N11 C4 1.286 . S
N11 C7 1.413 . S
H12 C17 0.930 . S
H13 C20 0.930 . S
H14 C22 0.930 . S
H15 C16 1.016 . S
C16 H15 1.016 . S
C16 N23 1.286 . S
C17 H12 0.930 . S
C17 C18 1.397 . S
C17 C19 1.361 . S
C18 C17 1.397 . S
C18 C22 1.390 . S
C19 C17 1.361 . S
C19 C20 1.393 . S
C19 N23 1.413 . S
C20 H13 0.930 . S
C20 C19 1.393 . S
C20 C21 1.399 . S
C21 C20 1.399 . S
C21 C22 1.381 . S
C22 H14 0.930 . S
C22 C18 1.390 . S
C22 C21 1.381 . S
N23 C16 1.286 . S
N23 C19 1.413 . S
H24 C29 0.930 . S
H25 C32 0.930 . S
H26 C34 0.930 . S
H27 C28 1.016 . S
C28 H27 1.016 . S
C28 N35 1.286 . S
C29 H24 0.930 . S
C29 C30 1.397 . S
C29 C31 1.361 . S
C30 C29 1.397 . S
C30 C34 1.390 . S
C31 C29 1.361 . S
C31 C32 1.393 . S
C31 N35 1.413 . S
C32 H25 0.930 . S
C32 C31 1.393 . S
C32 C33 1.399 . S
C33 C32 1.399 . S
C33 C34 1.381 . S
C34 H26 0.930 . S
C34 C30 1.390 . S
C34 C33 1.381 . S
N35 C28 1.286 . S
N35 C31 1.413 . S
H36 C41 0.930 . S
H37 C44 0.930 . S
H38 C46 0.930 . S
H39 C40 1.016 . S
C40 H39 1.016 . S
C40 N47 1.286 . S
C41 H36 0.930 . S
C41 C42 1.397 . S
C41 C43 1.361 . S
C42 C41 1.397 . S
C42 C46 1.390 . S
C43 C41 1.361 . S
C43 C44 1.393 . S
C43 N47 1.413 . S
C44 H37 0.930 . S
C44 C43 1.393 . S
C44 C45 1.399 . S
C45 C44 1.399 . S
C45 C46 1.381 . S
C46 H38 0.930 . S
C46 C42 1.390 . S
C46 C45 1.381 . S
N47 C40 1.286 . S
N47 C43 1.413 . S
H48 C53 0.930 . S
H49 C56 0.930 . S
H50 C58 0.930 . S
H51 C52 1.016 . S
C52 H51 1.016 . S
C52 N59 1.286 . S
C53 H48 0.930 . S
C53 C54 1.397 . S
C53 C55 1.361 . S
C54 C53 1.397 . S
C54 C58 1.390 . S
C55 C53 1.361 . S
C55 C56 1.393 . S
C55 N59 1.413 . S
C56 H49 0.930 . S
C56 C55 1.393 . S
C56 C57 1.399 . S
C57 C56 1.399 . S
C57 C58 1.381 . S
C58 H50 0.930 . S
C58 C54 1.390 . S
C58 C57 1.381 . S
N59 C52 1.286 . S
N59 C55 1.413 . S
H60 C65 0.930 . S
H61 C68 0.930 . S
H62 C70 0.930 . S
H63 C64 1.016 . S
C64 H63 1.016 . S
C64 N71 1.286 . S
C65 H60 0.930 . S
C65 C66 1.397 . S
C65 C67 1.361 . S
C66 C65 1.397 . S
C66 C70 1.390 . S
C67 C65 1.361 . S
C67 C68 1.393 . S
C67 N71 1.413 . S
C68 H61 0.930 . S
C68 C67 1.393 . S
C68 C69 1.399 . S
C69 C68 1.399 . S
C69 C70 1.381 . S
C70 H62 0.930 . S
C70 C66 1.390 . S
C70 C69 1.381 . S
N71 C64 1.286 . S
N71 C67 1.413 . S
H72 C77 0.930 . S
H73 C80 0.930 . S
H74 C82 0.930 . S
H75 C76 1.016 . S
C76 H75 1.016 . S
C76 N83 1.286 . S
C77 H72 0.930 . S
C77 C78 1.397 . S
C77 C79 1.361 . S
C78 C77 1.397 . S
C78 C82 1.390 . S
C79 C77 1.361 . S
C79 C80 1.393 . S
C79 N83 1.413 . S
C80 H73 0.930 . S
C80 C79 1.393 . S
C80 C81 1.399 . S
C81 C80 1.399 . S
C81 C82 1.381 . S
C82 H74 0.930 . S
C82 C78 1.390 . S
C82 C81 1.381 . S
N83 C76 1.286 . S
N83 C79 1.413 . S
H84 C89 0.930 . S
H85 C92 0.930 . S
H86 C94 0.930 . S
H87 C88 1.016 . S
C88 H87 1.016 . S
C88 N95 1.286 . S
C89 H84 0.930 . S
C89 C90 1.397 . S
C89 C91 1.361 . S
C90 C89 1.397 . S
C90 C94 1.390 . S
C91 C89 1.361 . S
C91 C92 1.393 . S
C91 N95 1.413 . S
C92 H85 0.930 . S
C92 C91 1.393 . S
C92 C93 1.399 . S
C93 C92 1.399 . S
C93 C94 1.381 . S
C94 H86 0.930 . S
C94 C90 1.390 . S
C94 C93 1.381 . S
N95 C88 1.286 . S
N95 C91 1.413 . S
O96 Mg97 1.990 . S
O96 C110 1.253 1_445 S
Mg97 O96 1.990 . S
Mg97 O100 2.180 . S
Mg97 O101 2.117 . S
Mg97 O115 2.030 . S
O98 Mg99 2.072 1_665 S
O98 C110 1.260 . S
Mg99 O98 2.072 1_445 S
Mg99 O100 2.099 . S
Mg99 O102 2.079 . S
Mg99 O103 2.072 1_455 S
Mg99 O105 2.099 1_445 S
Mg99 O116 2.079 1_545 S
O100 Mg97 2.180 . S
O100 Mg99 2.099 . S
O100 C111 1.279 . S
O101 Mg97 2.117 . S
O101 C111 1.250 . S
O102 Mg99 2.079 . S
O102 C112 1.264 . S
O103 Mg99 2.072 1_655 S
O103 C113 1.260 . S
Mg104 O105 2.180 . S
Mg104 O106 2.030 1_565 S
Mg104 O107 1.998 . S
Mg104 O108 2.117 . S
O105 Mg99 2.099 1_665 S
O105 Mg104 2.180 . S
O105 C114 1.279 . S
O106 Mg104 2.030 1_545 S
O106 C112 1.248 1_655 S
O107 Mg104 1.998 . S
O107 C113 1.245 1_565 S
O108 Mg104 2.117 . S
O108 C114 1.250 . S
C109 O115 1.248 1_565 S
C109 O116 1.264 . S
C110 O96 1.253 1_665 S
C110 O98 1.260 . S
C111 O100 1.279 . S
C111 O101 1.250 . S
C112 O102 1.264 . S
C112 O106 1.248 1_455 S
C113 O103 1.260 . S
C113 O107 1.245 1_545 S
C114 O105 1.279 . S
C114 O108 1.250 . S
O115 Mg97 2.030 . S
O115 C109 1.248 1_545 S
O116 Mg99 2.079 1_565 S
O116 C109 1.264 . S
O117 Mg118 1.990 . S
O117 C131 1.253 . S
Mg118 O117 1.990 . S
Mg118 O121 2.180 . S
Mg118 O122 2.117 . S
Mg118 O136 2.030 . S
O119 Mg120 2.072 . S
O119 C131 1.260 . S
Mg120 O119 2.072 . S
Mg120 O121 2.099 . S
Mg120 O123 2.079 . S
Mg120 O124 2.072 1_554 S
Mg120 O126 2.099 1_545 S
Mg120 O137 2.079 . S
O121 Mg118 2.180 . S
O121 Mg120 2.099 . S
O121 C132 1.279 1_554 S
O122 Mg118 2.117 . S
O122 C132 1.250 1_554 S
O123 Mg120 2.079 . S
O123 C133 1.264 1_544 S
O124 Mg120 2.072 1_556 S
O124 C134 1.260 1_545 S
Mg125 O126 2.180 1_556 S
Mg125 O127 2.030 . S
Mg125 O128 1.990 . S
Mg125 O129 2.117 1_556 S
O126 Mg120 2.099 1_565 S
O126 Mg125 2.180 1_554 S
O126 C135 1.279 . S
O127 Mg125 2.030 . S
O127 C133 1.248 . S
O128 Mg125 1.990 . S
O128 C134 1.253 . S
O129 Mg125 2.117 1_554 S
O129 C135 1.250 . S
C130 O136 1.248 . S
C130 O137 1.264 . S
C131 O117 1.253 . S
C131 O119 1.260 . S
C132 O121 1.279 1_556 S
C132 O122 1.250 1_556 S
C133 O123 1.264 1_566 S
C133 O127 1.248 . S
C134 O124 1.260 1_565 S
C134 O128 1.253 . S
C135 O126 1.279 . S
C135 O129 1.250 . S
O136 Mg118 2.030 . S
O136 C130 1.248 . S
O137 Mg120 2.079 . S
O137 C130 1.264 . S
O138 Mg139 1.990 . S
O138 C152 1.253 . S
Mg139 O138 1.990 . S
Mg139 O142 2.180 . S
Mg139 O143 2.117 . S
Mg139 O157 2.030 . S
O140 Mg141 2.072 . S
O140 C152 1.260 . S
Mg141 O140 2.072 . S
Mg141 O142 2.099 . S
Mg141 O144 2.079 . S
Mg141 O145 2.072 . S
Mg141 O147 2.099 . S
Mg141 O158 2.079 . S
O142 Mg139 2.180 . S
O142 Mg141 2.099 . S
O142 C153 1.279 . S
O143 Mg139 2.117 . S
O143 C153 1.250 . S
O144 Mg141 2.079 . S
O144 C154 1.264 . S
O145 Mg141 2.072 . S
O145 C155 1.260 . S
Mg146 O147 2.180 . S
Mg146 O148 2.030 . S
Mg146 O149 1.990 . S
Mg146 O150 2.117 . S
O147 Mg141 2.099 . S
O147 Mg146 2.180 . S
O147 C156 1.279 . S
O148 Mg146 2.030 . S
O148 C154 1.248 . S
O149 Mg146 1.990 . S
O149 C155 1.253 . S
O150 Mg146 2.117 . S
O150 C156 1.250 . S
C151 O157 1.248 . S
C151 O158 1.264 . S
C152 O138 1.253 . S
C152 O140 1.260 . S
C153 O142 1.279 . S
C153 O143 1.250 . S
C154 O144 1.264 . S
C154 O148 1.248 . S
C155 O145 1.260 . S
C155 O149 1.253 . S
C156 O147 1.279 . S
C156 O150 1.250 . S
O157 Mg139 2.030 . S
O157 C151 1.248 . S
O158 Mg141 2.079 . S
O158 C151 1.264 . S
O159 Mg160 1.990 . S
O159 C173 1.253 . S
Mg160 O159 1.990 . S
Mg160 O163 2.180 . S
Mg160 O164 2.117 1_455 S
Mg160 O178 2.030 . S
O161 Mg162 2.072 . S
O161 C173 1.260 . S
Mg162 O161 2.072 . S
Mg162 O163 2.099 . S
Mg162 O165 2.079 . S
Mg162 O166 2.072 1_455 S
Mg162 O168 2.099 1_554 S
Mg162 O179 2.079 . S
O163 Mg160 2.180 . S
O163 Mg162 2.099 . S
O163 C174 1.279 1_455 S
O164 Mg160 2.117 1_655 S
O164 C174 1.250 . S
O165 Mg162 2.079 . S
O165 C175 1.264 1_454 S
O166 Mg162 2.072 1_655 S
O166 C176 1.260 1_554 S
Mg167 O168 2.180 1_655 S
Mg167 O169 2.030 . S
Mg167 O170 1.990 . S
Mg167 O171 2.117 1_655 S
O168 Mg162 2.099 1_556 S
O168 Mg167 2.180 1_455 S
O168 C177 1.279 . S
O169 Mg167 2.030 . S
O169 C175 1.248 . S
O170 Mg167 1.990 . S
O170 C176 1.253 . S
O171 Mg167 2.117 1_455 S
O171 C177 1.250 . S
C172 O178 1.248 . S
C172 O179 1.264 . S
C173 O159 1.253 . S
C173 O161 1.260 . S
C174 O163 1.279 1_655 S
C174 O164 1.250 . S
C175 O165 1.264 1_656 S
C175 O169 1.248 . S
C176 O166 1.260 1_556 S
C176 O170 1.253 . S
C177 O168 1.279 . S
C177 O171 1.250 . S
O178 Mg160 2.030 . S
O178 C172 1.248 . S
O179 Mg162 2.079 . S
O179 C172 1.264 . S
H180 C198 0.951 . S
H181 C200 0.951 . S
H182 C202 0.950 . S
H183 C203 0.950 . S
H184 C205 0.950 . S
H185 C208 0.950 . S
H186 C209 0.950 . S
H187 C211 0.950 . S
H188 C212 0.950 . S
H189 C213 0.951 . S
H190 C215 0.951 . S
H191 C217 0.950 . S
H192 C218 0.950 1_655 S
H193 C220 0.950 . S
H194 C223 0.950 1_545 S
H195 C224 0.950 . S
H196 C226 0.950 . S
H197 C227 0.950 . S
C198 H180 0.951 . S
C198 C199 1.366 . S
C198 C200 1.388 . S
C199 C198 1.366 . S
C199 C203 1.385 . S
C200 H181 0.951 . S
C200 C198 1.388 . S
C200 C201 1.366 . S
C201 C200 1.366 . S
C201 C202 1.414 . S
C201 C204 1.499 . S
C202 H182 0.950 . S
C202 C201 1.414 . S
C202 C203 1.374 . S
C203 H183 0.950 . S
C203 C199 1.385 . S
C203 C202 1.374 . S
C204 C201 1.499 . S
C204 C205 1.373 . S
C204 C206 1.389 . S
C205 H184 0.950 . S
C205 C204 1.373 . S
C205 C221 1.377 . S
C206 C204 1.389 . S
C206 C207 1.524 . S
C206 C220 1.377 . S
C207 C206 1.524 . S
C207 C208 1.397 . S
C207 C212 1.363 . S
C208 H185 0.950 . S
C208 C207 1.397 . S
C208 C209 1.334 . S
C209 H186 0.950 . S
C209 C208 1.334 . S
C209 C210 1.287 . S
C210 C209 1.287 . S
C210 C211 1.524 . S
C210 H229 0.913 . S
C211 H187 0.950 . S
C211 C210 1.524 . S
C211 C212 1.415 . S
C212 H188 0.950 . S
C212 C207 1.363 . S
C212 C211 1.415 . S
C213 H189 0.951 . S
C213 C214 1.366 . S
C213 C215 1.388 . S
C214 C213 1.366 . S
C214 C218 1.385 . S
C215 H190 0.951 . S
C215 C213 1.388 . S
C215 C216 1.366 . S
C216 C215 1.366 . S
C216 C217 1.414 . S
C216 C219 1.499 . S
C217 H191 0.950 . S
C217 C216 1.414 . S
C217 C218 1.374 . S
C218 H192 0.950 1_455 S
C218 C214 1.385 . S
C218 C217 1.374 . S
C219 C216 1.499 . S
C219 C220 1.373 . S
C219 C221 1.389 . S
C220 H193 0.950 . S
C220 C206 1.377 . S
C220 C219 1.373 . S
C221 C205 1.377 . S
C221 C219 1.389 . S
C221 C222 1.524 . S
C222 C221 1.524 . S
C222 C223 1.397 1_545 S
C222 C227 1.363 . S
C223 H194 0.950 1_565 S
C223 C222 1.397 1_565 S
C223 C224 1.334 . S
C224 H195 0.950 . S
C224 C223 1.334 . S
C224 C225 1.287 . S
C225 C224 1.287 . S
C225 C226 1.524 . S
C225 H228 0.999 . S
C226 H196 0.950 . S
C226 C225 1.524 . S
C226 C227 1.415 1_565 S
C227 H197 0.950 . S
C227 C222 1.363 . S
C227 C226 1.415 1_545 S
H228 C225 0.999 . S
H229 C210 0.913 . S
H230 C248 0.951 . S
H231 C250 0.951 . S
H232 C252 0.950 . S
H233 C253 0.950 . S
H234 C255 0.950 . S
H235 C258 0.950 . S
H236 C259 0.950 . S
H237 C261 0.950 . S
H238 C262 0.950 . S
H239 C263 0.951 1_545 S
H240 C265 0.951 . S
H241 C267 0.950 . S
H242 C268 0.950 . S
H243 C270 0.950 . S
H244 C273 0.950 . S
H245 C274 0.950 . S
H246 C276 0.950 . S
H247 C277 0.950 . S
C248 H230 0.951 . S
C248 C249 1.366 . S
C248 C250 1.388 . S
C249 C248 1.366 . S
C249 C253 1.385 . S
C250 H231 0.951 . S
C250 C248 1.388 . S
C250 C251 1.366 . S
C251 C250 1.366 . S
C251 C252 1.414 . S
C251 C254 1.499 . S
C252 H232 0.950 . S
C252 C251 1.414 . S
C252 C253 1.374 . S
C253 H233 0.950 . S
C253 C249 1.385 . S
C253 C252 1.374 . S
C254 C251 1.499 . S
C254 C255 1.373 . S
C254 C256 1.389 . S
C255 H234 0.950 . S
C255 C254 1.373 . S
C255 C271 1.377 . S
C256 C254 1.389 . S
C256 C257 1.524 . S
C256 C270 1.377 . S
C257 C256 1.524 . S
C257 C258 1.397 . S
C257 C262 1.363 . S
C258 H235 0.950 . S
C258 C257 1.397 . S
C258 C259 1.334 . S
C259 H236 0.950 . S
C259 C258 1.334 . S
C259 C260 1.287 . S
C260 C259 1.287 . S
C260 C261 1.524 . S
C260 H279 0.913 . S
C261 H237 0.950 . S
C261 C260 1.524 . S
C261 C262 1.415 . S
C262 H238 0.950 . S
C262 C257 1.363 . S
C262 C261 1.415 . S
C263 H239 0.951 1_565 S
C263 C264 1.366 . S
C263 C265 1.388 . S
C264 C263 1.366 . S
C264 C268 1.385 . S
C265 H240 0.951 . S
C265 C263 1.388 . S
C265 C266 1.366 . S
C266 C265 1.366 . S
C266 C267 1.414 . S
C266 C269 1.499 . S
C267 H241 0.950 . S
C267 C266 1.414 . S
C267 C268 1.374 . S
C268 H242 0.950 . S
C268 C264 1.385 . S
C268 C267 1.374 . S
C269 C266 1.499 . S
C269 C270 1.373 . S
C269 C271 1.389 . S
C270 H243 0.950 . S
C270 C256 1.377 . S
C270 C269 1.373 . S
C271 C255 1.377 . S
C271 C269 1.389 . S
C271 C272 1.524 1_565 S
C272 C271 1.524 1_545 S
C272 C273 1.397 . S
C272 C277 1.363 . S
C273 H244 0.950 . S
C273 C272 1.397 . S
C273 C274 1.334 . S
C274 H245 0.950 . S
C274 C273 1.334 . S
C274 C275 1.287 . S
C275 C274 1.287 . S
C275 C276 1.524 . S
C275 H278 0.999 . S
C276 H246 0.950 . S
C276 C275 1.524 . S
C276 C277 1.415 . S
C277 H247 0.950 . S
C277 C272 1.363 . S
C277 C276 1.415 . S
H278 C275 0.999 . S
H279 C260 0.913 . S
H280 C298 0.951 . S
H281 C300 0.951 . S
H282 C302 0.950 . S
H283 C303 0.950 . S
H284 C305 0.950 . S
H285 C308 0.950 . S
H286 C309 0.950 . S
H287 C311 0.950 . S
H288 C312 0.950 . S
H289 C313 0.951 . S
H290 C315 0.951 . S
H291 C317 0.950 . S
H292 C318 0.950 . S
H293 C320 0.950 . S
H294 C323 0.950 . S
H295 C324 0.950 . S
H296 C326 0.950 . S
H297 C327 0.950 . S
C298 H280 0.951 . S
C298 C299 1.366 . S
C298 C300 1.388 . S
C299 C298 1.366 . S
C299 C303 1.385 . S
C300 H281 0.951 . S
C300 C298 1.388 . S
C300 C301 1.366 . S
C301 C300 1.366 . S
C301 C302 1.414 . S
C301 C304 1.499 . S
C302 H282 0.950 . S
C302 C301 1.414 . S
C302 C303 1.374 . S
C303 H283 0.950 . S
C303 C299 1.385 . S
C303 C302 1.374 . S
C304 C301 1.499 . S
C304 C305 1.373 . S
C304 C306 1.389 . S
C305 H284 0.950 . S
C305 C304 1.373 . S
C305 C321 1.377 . S
C306 C304 1.389 . S
C306 C307 1.524 . S
C306 C320 1.377 . S
C307 C306 1.524 . S
C307 C308 1.397 . S
C307 C312 1.363 . S
C308 H285 0.950 . S
C308 C307 1.397 . S
C308 C309 1.334 . S
C309 H286 0.950 . S
C309 C308 1.334 . S
C309 C310 1.287 . S
C310 C309 1.287 . S
C310 C311 1.524 . S
C310 H329 0.913 . S
C311 H287 0.950 . S
C311 C310 1.524 . S
C311 C312 1.415 . S
C312 H288 0.950 . S
C312 C307 1.363 . S
C312 C311 1.415 . S
C313 H289 0.951 . S
C313 C314 1.366 . S
C313 C315 1.388 . S
C314 C313 1.366 . S
C314 C318 1.385 . S
C315 H290 0.951 . S
C315 C313 1.388 . S
C315 C316 1.366 . S
C316 C315 1.366 . S
C316 C317 1.414 . S
C316 C319 1.499 . S
C317 H291 0.950 . S
C317 C316 1.414 . S
C317 C318 1.374 . S
C318 H292 0.950 . S
C318 C314 1.385 . S
C318 C317 1.374 . S
C319 C316 1.499 . S
C319 C320 1.373 . S
C319 C321 1.389 . S
C320 H293 0.950 . S
C320 C306 1.377 . S
C320 C319 1.373 . S
C321 C305 1.377 . S
C321 C319 1.389 . S
C321 C322 1.524 . S
C322 C321 1.524 . S
C322 C323 1.397 . S
C322 C327 1.363 . S
C323 H294 0.950 . S
C323 C322 1.397 . S
C323 C324 1.334 . S
C324 H295 0.950 . S
C324 C323 1.334 . S
C324 C325 1.287 . S
C325 C324 1.287 . S
C325 C326 1.524 . S
C325 H328 0.999 . S
C326 H296 0.950 . S
C326 C325 1.524 . S
C326 C327 1.415 . S
C327 H297 0.950 . S
C327 C322 1.363 . S
C327 C326 1.415 . S
H328 C325 0.999 . S
H329 C310 0.913 . S
H330 C348 0.951 . S
H331 C350 0.951 . S
H332 C352 0.950 . S
H333 C353 0.950 . S
H334 C355 0.950 . S
H335 C358 0.950 . S
H336 C359 0.950 . S
H337 C361 0.950 . S
H338 C362 0.950 . S
H339 C363 0.951 . S
H340 C365 0.951 . S
H341 C367 0.950 . S
H342 C368 0.950 1_455 S
H343 C370 0.950 . S
H344 C373 0.950 . S
H345 C374 0.950 . S
H346 C376 0.950 . S
H347 C377 0.950 . S
C348 H330 0.951 . S
C348 C349 1.366 . S
C348 C350 1.388 . S
C349 C348 1.366 . S
C349 C353 1.385 . S
C350 H331 0.951 . S
C350 C348 1.388 . S
C350 C351 1.366 . S
C351 C350 1.366 . S
C351 C352 1.414 . S
C351 C354 1.499 . S
C352 H332 0.950 . S
C352 C351 1.414 . S
C352 C353 1.374 . S
C353 H333 0.950 . S
C353 C349 1.385 . S
C353 C352 1.374 . S
C354 C351 1.499 . S
C354 C355 1.373 . S
C354 C356 1.389 . S
C355 H334 0.950 . S
C355 C354 1.373 . S
C355 C371 1.377 . S
C356 C354 1.389 . S
C356 C357 1.524 . S
C356 C370 1.377 . S
C357 C356 1.524 . S
C357 C358 1.397 . S
C357 C362 1.363 . S
C358 H335 0.950 . S
C358 C357 1.397 . S
C358 C359 1.334 . S
C359 H336 0.950 . S
C359 C358 1.334 . S
C359 C360 1.287 . S
C360 C359 1.287 . S
C360 C361 1.524 . S
C360 H379 0.913 . S
C361 H337 0.950 . S
C361 C360 1.524 . S
C361 C362 1.415 . S
C362 H338 0.950 . S
C362 C357 1.363 . S
C362 C361 1.415 . S
C363 H339 0.951 . S
C363 C364 1.366 . S
C363 C365 1.388 . S
C364 C363 1.366 . S
C364 C368 1.385 . S
C365 H340 0.951 . S
C365 C363 1.388 . S
C365 C366 1.366 . S
C366 C365 1.366 . S
C366 C367 1.414 . S
C366 C369 1.499 . S
C367 H341 0.950 . S
C367 C366 1.414 . S
C367 C368 1.374 . S
C368 H342 0.950 1_655 S
C368 C364 1.385 . S
C368 C367 1.374 . S
C369 C366 1.499 . S
C369 C370 1.373 . S
C369 C371 1.389 . S
C370 H343 0.950 . S
C370 C356 1.377 . S
C370 C369 1.373 . S
C371 C355 1.377 . S
C371 C369 1.389 . S
C371 C372 1.524 . S
C372 C371 1.524 . S
C372 C373 1.397 . S
C372 C377 1.363 . S
C373 H344 0.950 . S
C373 C372 1.397 . S
C373 C374 1.334 . S
C374 H345 0.950 . S
C374 C373 1.334 . S
C374 C375 1.287 . S
C375 C374 1.287 . S
C375 C376 1.524 . S
C375 H378 0.999 . S
C376 H346 0.950 . S
C376 C375 1.524 . S
C376 C377 1.415 . S
C377 H347 0.950 . S
C377 C372 1.363 . S
C377 C376 1.415 . S
H378 C375 0.999 . S
H379 C360 0.913 . S
H380 C398 0.951 . S
H381 C400 0.951 . S
H382 C402 0.950 . S
H383 C403 0.950 . S
H384 C405 0.950 . S
H385 C408 0.950 . S
H386 C409 0.950 . S
H387 C411 0.950 . S
H388 C412 0.950 . S
H389 C413 0.951 . S
H390 C415 0.951 . S
H391 C417 0.950 . S
H392 C418 0.950 . S
H393 C420 0.950 . S
H394 C423 0.950 . S
H395 C424 0.950 . S
H396 C426 0.950 . S
H397 C427 0.950 . S
C398 H380 0.951 . S
C398 C399 1.366 . S
C398 C400 1.388 . S
C399 C398 1.366 . S
C399 C403 1.385 . S
C400 H381 0.951 . S
C400 C398 1.388 . S
C400 C401 1.366 . S
C401 C400 1.366 . S
C401 C402 1.414 . S
C401 C404 1.499 . S
C402 H382 0.950 . S
C402 C401 1.414 . S
C402 C403 1.374 . S
C403 H383 0.950 . S
C403 C399 1.385 . S
C403 C402 1.374 . S
C404 C401 1.499 . S
C404 C405 1.373 . S
C404 C406 1.389 . S
C405 H384 0.950 . S
C405 C404 1.373 . S
C405 C421 1.377 . S
C406 C404 1.389 . S
C406 C407 1.524 . S
C406 C420 1.377 . S
C407 C406 1.524 . S
C407 C408 1.397 . S
C407 C412 1.363 . S
C408 H385 0.950 . S
C408 C407 1.397 . S
C408 C409 1.334 . S
C409 H386 0.950 . S
C409 C408 1.334 . S
C409 C410 1.287 . S
C410 C409 1.287 . S
C410 C411 1.524 . S
C410 H429 0.913 . S
C411 H387 0.950 . S
C411 C410 1.524 . S
C411 C412 1.415 . S
C412 H388 0.950 . S
C412 C407 1.363 . S
C412 C411 1.415 . S
C413 H389 0.951 . S
C413 C414 1.366 . S
C413 C415 1.388 . S
C414 C413 1.366 . S
C414 C418 1.385 . S
C415 H390 0.951 . S
C415 C413 1.388 . S
C415 C416 1.366 . S
C416 C415 1.366 . S
C416 C417 1.414 . S
C416 C419 1.499 . S
C417 H391 0.950 . S
C417 C416 1.414 . S
C417 C418 1.374 . S
C418 H392 0.950 . S
C418 C414 1.385 . S
C418 C417 1.374 . S
C419 C416 1.499 . S
C419 C420 1.373 . S
C419 C421 1.389 . S
C420 H393 0.950 . S
C420 C406 1.377 . S
C420 C419 1.373 . S
C421 C405 1.377 . S
C421 C419 1.389 . S
C421 C422 1.524 . S
C422 C421 1.524 . S
C422 C423 1.397 . S
C422 C427 1.363 . S
C423 H394 0.950 . S
C423 C422 1.397 . S
C423 C424 1.334 1_554 S
C424 H395 0.950 . S
C424 C423 1.334 1_556 S
C424 C425 1.287 . S
C425 C424 1.287 . S
C425 C426 1.524 . S
C425 H428 0.999 . S
C426 H396 0.950 . S
C426 C425 1.524 . S
C426 C427 1.415 1_556 S
C427 H397 0.950 . S
C427 C422 1.363 . S
C427 C426 1.415 1_554 S
H428 C425 0.999 . S
H429 C410 0.913 . S
H430 C448 0.951 . S
H431 C450 0.951 . S
H432 C452 0.950 . S
H433 C453 0.950 . S
H434 C455 0.950 . S
H435 C458 0.950 1_565 S
H436 C459 0.950 . S
H437 C461 0.950 . S
H438 C462 0.950 . S
H439 C463 0.951 . S
H440 C465 0.951 . S
H441 C467 0.950 . S
H442 C468 0.950 . S
H443 C470 0.950 . S
H444 C473 0.950 . S
H445 C474 0.950 . S
H446 C476 0.950 . S
H447 C477 0.950 . S
C448 H430 0.951 . S
C448 C449 1.366 . S
C448 C450 1.388 . S
C449 C448 1.366 . S
C449 C453 1.385 . S
C450 H431 0.951 . S
C450 C448 1.388 . S
C450 C451 1.366 . S
C451 C450 1.366 . S
C451 C452 1.414 . S
C451 C454 1.499 . S
C452 H432 0.950 . S
C452 C451 1.414 . S
C452 C453 1.374 . S
C453 H433 0.950 . S
C453 C449 1.385 . S
C453 C452 1.374 . S
C454 C451 1.499 . S
C454 C455 1.373 . S
C454 C456 1.389 . S
C455 H434 0.950 . S
C455 C454 1.373 . S
C455 C471 1.377 . S
C456 C454 1.389 . S
C456 C457 1.524 . S
C456 C470 1.377 . S
C457 C456 1.524 . S
C457 C458 1.397 1_565 S
C457 C462 1.363 1_565 S
C458 H435 0.950 1_545 S
C458 C457 1.397 1_545 S
C458 C459 1.334 . S
C459 H436 0.950 . S
C459 C458 1.334 . S
C459 C460 1.287 . S
C460 C459 1.287 . S
C460 C461 1.524 . S
C460 H479 0.913 . S
C461 H437 0.950 . S
C461 C460 1.524 . S
C461 C462 1.415 . S
C462 H438 0.950 . S
C462 C457 1.363 1_545 S
C462 C461 1.415 . S
C463 H439 0.951 . S
C463 C464 1.366 . S
C463 C465 1.388 . S
C464 C463 1.366 . S
C464 C468 1.385 . S
C465 H440 0.951 . S
C465 C463 1.388 . S
C465 C466 1.366 . S
C466 C465 1.366 . S
C466 C467 1.414 . S
C466 C469 1.499 . S
C467 H441 0.950 . S
C467 C466 1.414 . S
C467 C468 1.374 . S
C468 H442 0.950 . S
C468 C464 1.385 . S
C468 C467 1.374 . S
C469 C466 1.499 . S
C469 C470 1.373 . S
C469 C471 1.389 . S
C470 H443 0.950 . S
C470 C456 1.377 . S
C470 C469 1.373 . S
C471 C455 1.377 . S
C471 C469 1.389 . S
C471 C472 1.524 . S
C472 C471 1.524 . S
C472 C473 1.397 . S
C472 C477 1.363 . S
C473 H444 0.950 . S
C473 C472 1.397 . S
C473 C474 1.334 . S
C474 H445 0.950 . S
C474 C473 1.334 . S
C474 C475 1.287 . S
C475 C474 1.287 . S
C475 C476 1.524 . S
C475 H478 0.999 . S
C476 H446 0.950 . S
C476 C475 1.524 . S
C476 C477 1.415 . S
C477 H447 0.950 . S
C477 C472 1.363 . S
C477 C476 1.415 . S
H478 C475 0.999 . S
H479 C460 0.913 . S
H480 C498 0.951 . S
H481 C500 0.951 . S
H482 C502 0.950 . S
H483 C503 0.950 . S
H484 C505 0.950 . S
H485 C508 0.950 . S
H486 C509 0.950 . S
H487 C511 0.950 . S
H488 C512 0.950 . S
H489 C513 0.951 . S
H490 C515 0.951 . S
H491 C517 0.950 1_554 S
H492 C518 0.950 . S
H493 C520 0.950 . S
H494 C523 0.950 . S
H495 C524 0.950 1_554 S
H496 C526 0.950 . S
H497 C527 0.950 . S
C498 H480 0.951 . S
C498 C499 1.366 . S
C498 C500 1.388 . S
C499 C498 1.366 . S
C499 C503 1.385 . S
C500 H481 0.951 . S
C500 C498 1.388 . S
C500 C501 1.366 . S
C501 C500 1.366 . S
C501 C502 1.414 . S
C501 C504 1.499 . S
C502 H482 0.950 . S
C502 C501 1.414 . S
C502 C503 1.374 . S
C503 H483 0.950 . S
C503 C499 1.385 . S
C503 C502 1.374 . S
C504 C501 1.499 . S
C504 C505 1.373 . S
C504 C506 1.389 . S
C505 H484 0.950 . S
C505 C504 1.373 . S
C505 C521 1.377 . S
C506 C504 1.389 . S
C506 C507 1.524 . S
C506 C520 1.377 . S
C507 C506 1.524 . S
C507 C508 1.397 . S
C507 C512 1.363 . S
C508 H485 0.950 . S
C508 C507 1.397 . S
C508 C509 1.334 . S
C509 H486 0.950 . S
C509 C508 1.334 . S
C509 C510 1.287 . S
C510 C509 1.287 . S
C510 C511 1.524 . S
C510 H529 0.913 . S
C511 H487 0.950 . S
C511 C510 1.524 . S
C511 C512 1.415 . S
C512 H488 0.950 . S
C512 C507 1.363 . S
C512 C511 1.415 . S
C513 H489 0.951 . S
C513 C514 1.366 . S
C513 C515 1.388 . S
C514 C513 1.366 . S
C514 C518 1.385 1_556 S
C515 H490 0.951 . S
C515 C513 1.388 . S
C515 C516 1.366 . S
C516 C515 1.366 . S
C516 C517 1.414 . S
C516 C519 1.499 . S
C517 H491 0.950 1_556 S
C517 C516 1.414 . S
C517 C518 1.374 1_556 S
C518 H492 0.950 . S
C518 C514 1.385 1_554 S
C518 C517 1.374 1_554 S
C519 C516 1.499 . S
C519 C520 1.373 . S
C519 C521 1.389 . S
C520 H493 0.950 . S
C520 C506 1.377 . S
C520 C519 1.373 . S
C521 C505 1.377 . S
C521 C519 1.389 . S
C521 C522 1.524 . S
C522 C521 1.524 . S
C522 C523 1.397 . S
C522 C527 1.363 . S
C523 H494 0.950 . S
C523 C522 1.397 . S
C523 C524 1.334 . S
C524 H495 0.950 1_556 S
C524 C523 1.334 . S
C524 C525 1.287 . S
C525 C524 1.287 . S
C525 C526 1.524 . S
C525 H528 0.999 . S
C526 H496 0.950 . S
C526 C525 1.524 . S
C526 C527 1.415 . S
C527 H497 0.950 . S
C527 C522 1.363 . S
C527 C526 1.415 . S
H528 C525 0.999 . S
H529 C510 0.913 . S
H530 C548 0.951 . S
H531 C550 0.951 . S
H532 C552 0.950 . S
H533 C553 0.950 . S
H534 C555 0.950 . S
H535 C558 0.950 . S
H536 C559 0.950 . S
H537 C561 0.950 . S
H538 C562 0.950 . S
H539 C563 0.951 . S
H540 C565 0.951 . S
H541 C567 0.950 . S
H542 C568 0.950 . S
H543 C570 0.950 . S
H544 C573 0.950 . S
H545 C574 0.950 . S
H546 C576 0.950 . S
H547 C577 0.950 . S
C548 H530 0.951 . S
C548 C549 1.366 . S
C548 C550 1.388 . S
C549 C548 1.366 . S
C549 C553 1.385 . S
C550 H531 0.951 . S
C550 C548 1.388 . S
C550 C551 1.366 . S
C551 C550 1.366 . S
C551 C552 1.414 . S
C551 C554 1.499 . S
C552 H532 0.950 . S
C552 C551 1.414 . S
C552 C553 1.374 . S
C553 H533 0.950 . S
C553 C549 1.385 . S
C553 C552 1.374 . S
C554 C551 1.499 . S
C554 C555 1.373 . S
C554 C556 1.389 . S
C555 H534 0.950 . S
C555 C554 1.373 . S
C555 C571 1.377 . S
C556 C554 1.389 . S
C556 C557 1.524 . S
C556 C570 1.377 . S
C557 C556 1.524 . S
C557 C558 1.397 . S
C557 C562 1.363 . S
C558 H535 0.950 . S
C558 C557 1.397 . S
C558 C559 1.334 . S
C559 H536 0.950 . S
C559 C558 1.334 . S
C559 C560 1.287 . S
C560 C559 1.287 . S
C560 C561 1.524 . S
C560 H579 0.913 . S
C561 H537 0.950 . S
C561 C560 1.524 . S
C561 C562 1.415 . S
C562 H538 0.950 . S
C562 C557 1.363 . S
C562 C561 1.415 . S
C563 H539 0.951 . S
C563 C564 1.366 . S
C563 C565 1.388 . S
C564 C563 1.366 . S
C564 C568 1.385 . S
C565 H540 0.951 . S
C565 C563 1.388 . S
C565 C566 1.366 . S
C566 C565 1.366 . S
C566 C567 1.414 . S
C566 C569 1.499 . S
C567 H541 0.950 . S
C567 C566 1.414 . S
C567 C568 1.374 . S
C568 H542 0.950 . S
C568 C564 1.385 . S
C568 C567 1.374 . S
C569 C566 1.499 . S
C569 C570 1.373 . S
C569 C571 1.389 . S
C570 H543 0.950 . S
C570 C556 1.377 . S
C570 C569 1.373 . S
C571 C555 1.377 . S
C571 C569 1.389 . S
C571 C572 1.524 . S
C572 C571 1.524 . S
C572 C573 1.397 . S
C572 C577 1.363 . S
C573 H544 0.950 . S
C573 C572 1.397 . S
C573 C574 1.334 . S
C574 H545 0.950 . S
C574 C573 1.334 . S
C574 C575 1.287 . S
C575 C574 1.287 . S
C575 C576 1.524 . S
C575 H578 0.999 . S
C576 H546 0.950 . S
C576 C575 1.524 . S
C576 C577 1.415 . S
C577 H547 0.950 . S
C577 C572 1.363 . S
C577 C576 1.415 . S
H578 C575 0.999 . S
H579 C560 0.913 . S
H580 C598 0.951 . S
H581 C600 0.951 . S
H582 C602 0.950 . S
H583 C603 0.950 . S
H584 C605 0.950 . S
H585 C608 0.950 . S
H586 C609 0.950 . S
H587 C611 0.950 . S
H588 C612 0.950 . S
H589 C613 0.951 . S
H590 C615 0.951 . S
H591 C617 0.950 . S
H592 C618 0.950 . S
H593 C620 0.950 . S
H594 C623 0.950 1_554 S
H595 C624 0.950 . S
H596 C626 0.950 . S
H597 C627 0.950 1_554 S
C598 H580 0.951 . S
C598 C599 1.366 . S
C598 C600 1.388 . S
C599 C598 1.366 . S
C599 C603 1.385 . S
C600 H581 0.951 . S
C600 C598 1.388 . S
C600 C601 1.366 . S
C601 C600 1.366 . S
C601 C602 1.414 . S
C601 C604 1.499 . S
C602 H582 0.950 . S
C602 C601 1.414 . S
C602 C603 1.374 . S
C603 H583 0.950 . S
C603 C599 1.385 . S
C603 C602 1.374 . S
C604 C601 1.499 . S
C604 C605 1.373 . S
C604 C606 1.389 . S
C605 H584 0.950 . S
C605 C604 1.373 . S
C605 C621 1.377 . S
C606 C604 1.389 . S
C606 C607 1.524 . S
C606 C620 1.377 . S
C607 C606 1.524 . S
C607 C608 1.397 . S
C607 C612 1.363 . S
C608 H585 0.950 . S
C608 C607 1.397 . S
C608 C609 1.334 . S
C609 H586 0.950 . S
C609 C608 1.334 . S
C609 C610 1.287 . S
C610 C609 1.287 . S
C610 C611 1.524 . S
C610 H629 0.913 . S
C611 H587 0.950 . S
C611 C610 1.524 . S
C611 C612 1.415 . S
C612 H588 0.950 . S
C612 C607 1.363 . S
C612 C611 1.415 . S
C613 H589 0.951 . S
C613 C614 1.366 . S
C613 C615 1.388 . S
C614 C613 1.366 . S
C614 C618 1.385 . S
C615 H590 0.951 . S
C615 C613 1.388 . S
C615 C616 1.366 . S
C616 C615 1.366 . S
C616 C617 1.414 . S
C616 C619 1.499 . S
C617 H591 0.950 . S
C617 C616 1.414 . S
C617 C618 1.374 . S
C618 H592 0.950 . S
C618 C614 1.385 . S
C618 C617 1.374 . S
C619 C616 1.499 . S
C619 C620 1.373 . S
C619 C621 1.389 . S
C620 H593 0.950 . S
C620 C606 1.377 . S
C620 C619 1.373 . S
C621 C605 1.377 . S
C621 C619 1.389 . S
C621 C622 1.524 . S
C622 C621 1.524 . S
C622 C623 1.397 1_554 S
C622 C627 1.363 1_554 S
C623 H594 0.950 1_556 S
C623 C622 1.397 1_556 S
C623 C624 1.334 . S
C624 H595 0.950 . S
C624 C623 1.334 . S
C624 C625 1.287 . S
C625 C624 1.287 . S
C625 C626 1.524 . S
C625 H628 0.999 . S
C626 H596 0.950 . S
C626 C625 1.524 . S
C626 C627 1.415 . S
C627 H597 0.950 1_556 S
C627 C622 1.363 1_556 S
C627 C626 1.415 . S
H628 C625 0.999 . S
H629 C610 0.913 . S
H630 C648 0.951 . S
H631 C650 0.951 . S
H632 C652 0.950 . S
H633 C653 0.950 . S
H634 C655 0.950 . S
H635 C658 0.950 . S
H636 C659 0.950 . S
H637 C661 0.950 . S
H638 C662 0.950 . S
H639 C663 0.951 1_554 S
H640 C665 0.951 . S
H641 C667 0.950 . S
H642 C668 0.950 . S
H643 C670 0.950 . S
H644 C673 0.950 . S
H645 C674 0.950 . S
H646 C676 0.950 . S
H647 C677 0.950 . S
C648 H630 0.951 . S
C648 C649 1.366 . S
C648 C650 1.388 . S
C649 C648 1.366 . S
C649 C653 1.385 . S
C650 H631 0.951 . S
C650 C648 1.388 . S
C650 C651 1.366 . S
C651 C650 1.366 . S
C651 C652 1.414 . S
C651 C654 1.499 . S
C652 H632 0.950 . S
C652 C651 1.414 . S
C652 C653 1.374 . S
C653 H633 0.950 . S
C653 C649 1.385 . S
C653 C652 1.374 . S
C654 C651 1.499 . S
C654 C655 1.373 . S
C654 C656 1.389 . S
C655 H634 0.950 . S
C655 C654 1.373 . S
C655 C671 1.377 . S
C656 C654 1.389 . S
C656 C657 1.524 . S
C656 C670 1.377 . S
C657 C656 1.524 . S
C657 C658 1.397 . S
C657 C662 1.363 . S
C658 H635 0.950 . S
C658 C657 1.397 . S
C658 C659 1.334 . S
C659 H636 0.950 . S
C659 C658 1.334 . S
C659 C660 1.287 . S
C660 C659 1.287 . S
C660 C661 1.524 . S
C660 H679 0.913 . S
C661 H637 0.950 . S
C661 C660 1.524 . S
C661 C662 1.415 . S
C662 H638 0.950 . S
C662 C657 1.363 . S
C662 C661 1.415 . S
C663 H639 0.951 1_556 S
C663 C664 1.366 . S
C663 C665 1.388 . S
C664 C663 1.366 . S
C664 C668 1.385 . S
C665 H640 0.951 . S
C665 C663 1.388 . S
C665 C666 1.366 . S
C666 C665 1.366 . S
C666 C667 1.414 . S
C666 C669 1.499 . S
C667 H641 0.950 . S
C667 C666 1.414 . S
C667 C668 1.374 . S
C668 H642 0.950 . S
C668 C664 1.385 . S
C668 C667 1.374 . S
C669 C666 1.499 . S
C669 C670 1.373 . S
C669 C671 1.389 . S
C670 H643 0.950 . S
C670 C656 1.377 . S
C670 C669 1.373 . S
C671 C655 1.377 . S
C671 C669 1.389 . S
C671 C672 1.524 . S
C672 C671 1.524 . S
C672 C673 1.397 . S
C672 C677 1.363 1_556 S
C673 H644 0.950 . S
C673 C672 1.397 . S
C673 C674 1.334 . S
C674 H645 0.950 . S
C674 C673 1.334 . S
C674 C675 1.287 1_556 S
C675 C674 1.287 1_554 S
C675 C676 1.524 . S
C675 H678 0.999 . S
C676 H646 0.950 . S
C676 C675 1.524 . S
C676 C677 1.415 . S
C677 H647 0.950 . S
C677 C672 1.363 1_554 S
C677 C676 1.415 . S
H678 C675 0.999 . S
H679 C660 0.913 . S
H680 C698 0.951 . S
H681 C700 0.951 . S
H682 C702 0.950 . S
H683 C703 0.950 . S
H684 C705 0.950 . S
H685 C708 0.950 . S
H686 C709 0.950 . S
H687 C711 0.950 . S
H688 C712 0.950 . S
H689 C713 0.951 . S
H690 C715 0.951 . S
H691 C717 0.950 . S
H692 C718 0.950 . S
H693 C720 0.950 . S
H694 C723 0.950 . S
H695 C724 0.950 . S
H696 C726 0.950 . S
H697 C727 0.950 . S
C698 H680 0.951 . S
C698 C699 1.366 . S
C698 C700 1.388 . S
C699 C698 1.366 . S
C699 C703 1.385 . S
C700 H681 0.951 . S
C700 C698 1.388 . S
C700 C701 1.366 . S
C701 C700 1.366 . S
C701 C702 1.414 . S
C701 C704 1.499 . S
C702 H682 0.950 . S
C702 C701 1.414 . S
C702 C703 1.374 . S
C703 H683 0.950 . S
C703 C699 1.385 . S
C703 C702 1.374 . S
C704 C701 1.499 . S
C704 C705 1.373 . S
C704 C706 1.389 . S
C705 H684 0.950 . S
C705 C704 1.373 . S
C705 C721 1.377 . S
C706 C704 1.389 . S
C706 C707 1.524 . S
C706 C720 1.377 . S
C707 C706 1.524 . S
C707 C708 1.397 . S
C707 C712 1.363 . S
C708 H685 0.950 . S
C708 C707 1.397 . S
C708 C709 1.334 . S
C709 H686 0.950 . S
C709 C708 1.334 . S
C709 C710 1.287 1_655 S
C710 C709 1.287 1_455 S
C710 C711 1.524 . S
C710 H729 0.913 . S
C711 H687 0.950 . S
C711 C710 1.524 . S
C711 C712 1.415 1_455 S
C712 H688 0.950 . S
C712 C707 1.363 . S
C712 C711 1.415 1_655 S
C713 H689 0.951 . S
C713 C714 1.366 . S
C713 C715 1.388 . S
C714 C713 1.366 . S
C714 C718 1.385 . S
C715 H690 0.951 . S
C715 C713 1.388 . S
C715 C716 1.366 . S
C716 C715 1.366 . S
C716 C717 1.414 . S
C716 C719 1.499 . S
C717 H691 0.950 . S
C717 C716 1.414 . S
C717 C718 1.374 . S
C718 H692 0.950 . S
C718 C714 1.385 . S
C718 C717 1.374 . S
C719 C716 1.499 . S
C719 C720 1.373 . S
C719 C721 1.389 . S
C720 H693 0.950 . S
C720 C706 1.377 . S
C720 C719 1.373 . S
C721 C705 1.377 . S
C721 C719 1.389 . S
C721 C722 1.524 . S
C722 C721 1.524 . S
C722 C723 1.397 . S
C722 C727 1.363 . S
C723 H694 0.950 . S
C723 C722 1.397 . S
C723 C724 1.334 . S
C724 H695 0.950 . S
C724 C723 1.334 . S
C724 C725 1.287 . S
C725 C724 1.287 . S
C725 C726 1.524 . S
C725 H728 0.999 . S
C726 H696 0.950 . S
C726 C725 1.524 . S
C726 C727 1.415 . S
C727 H697 0.950 . S
C727 C722 1.363 . S
C727 C726 1.415 . S
H728 C725 0.999 . S
H729 C710 0.913 . S
H730 C748 0.951 . S
H731 C750 0.951 . S
H732 C752 0.950 . S
H733 C753 0.950 . S
H734 C755 0.950 . S
H735 C758 0.950 . S
H736 C759 0.950 . S
H737 C761 0.950 . S
H738 C762 0.950 . S
H739 C763 0.951 . S
H740 C765 0.951 . S
H741 C767 0.950 . S
H742 C768 0.950 . S
H743 C770 0.950 . S
H744 C773 0.950 . S
H745 C774 0.950 . S
H746 C776 0.950 . S
H747 C777 0.950 . S
C748 H730 0.951 . S
C748 C749 1.366 . S
C748 C750 1.388 . S
C749 C748 1.366 . S
C749 C753 1.385 . S
C750 H731 0.951 . S
C750 C748 1.388 . S
C750 C751 1.366 . S
C751 C750 1.366 . S
C751 C752 1.414 . S
C751 C754 1.499 . S
C752 H732 0.950 . S
C752 C751 1.414 . S
C752 C753 1.374 . S
C753 H733 0.950 . S
C753 C749 1.385 . S
C753 C752 1.374 . S
C754 C751 1.499 . S
C754 C755 1.373 . S
C754 C756 1.389 . S
C755 H734 0.950 . S
C755 C754 1.373 . S
C755 C771 1.377 . S
C756 C754 1.389 . S
C756 C757 1.524 . S
C756 C770 1.377 . S
C757 C756 1.524 . S
C757 C758 1.397 . S
C757 C762 1.363 . S
C758 H735 0.950 . S
C758 C757 1.397 . S
C758 C759 1.334 . S
C759 H736 0.950 . S
C759 C758 1.334 . S
C759 C760 1.287 . S
C760 C759 1.287 . S
C760 C761 1.524 . S
C760 H779 0.913 . S
C761 H737 0.950 . S
C761 C760 1.524 . S
C761 C762 1.415 . S
C762 H738 0.950 . S
C762 C757 1.363 . S
C762 C761 1.415 . S
C763 H739 0.951 . S
C763 C764 1.366 . S
C763 C765 1.388 . S
C764 C763 1.366 . S
C764 C768 1.385 . S
C765 H740 0.951 . S
C765 C763 1.388 . S
C765 C766 1.366 . S
C766 C765 1.366 . S
C766 C767 1.414 . S
C766 C769 1.499 . S
C767 H741 0.950 . S
C767 C766 1.414 . S
C767 C768 1.374 . S
C768 H742 0.950 . S
C768 C764 1.385 . S
C768 C767 1.374 . S
C769 C766 1.499 . S
C769 C770 1.373 . S
C769 C771 1.389 . S
C770 H743 0.950 . S
C770 C756 1.377 . S
C770 C769 1.373 . S
C771 C755 1.377 . S
C771 C769 1.389 . S
C771 C772 1.524 . S
C772 C771 1.524 . S
C772 C773 1.397 . S
C772 C777 1.363 . S
C773 H744 0.950 . S
C773 C772 1.397 . S
C773 C774 1.334 . S
C774 H745 0.950 . S
C774 C773 1.334 . S
C774 C775 1.287 . S
C775 C774 1.287 . S
C775 C776 1.524 . S
C775 H778 0.999 . S
C776 H746 0.950 . S
C776 C775 1.524 . S
C776 C777 1.415 . S
C777 H747 0.950 . S
C777 C772 1.363 . S
C777 C776 1.415 . S
H778 C775 0.999 . S
H779 C760 0.913 . S
H780 C798 0.951 . S
H781 C800 0.951 . S
H782 C802 0.950 . S
H783 C803 0.950 . S
H784 C805 0.950 . S
H785 C808 0.950 . S
H786 C809 0.950 . S
H787 C811 0.950 . S
H788 C812 0.950 . S
H789 C813 0.951 1_545 S
H790 C815 0.951 1_545 S
H791 C817 0.950 . S
H792 C818 0.950 . S
H793 C820 0.950 . S
H794 C823 0.950 . S
H795 C824 0.950 . S
H796 C826 0.950 . S
H797 C827 0.950 . S
C798 H780 0.951 . S
C798 C799 1.366 . S
C798 C800 1.388 . S
C799 C798 1.366 . S
C799 C803 1.385 . S
C800 H781 0.951 . S
C800 C798 1.388 . S
C800 C801 1.366 . S
C801 C800 1.366 . S
C801 C802 1.414 . S
C801 C804 1.499 . S
C802 H782 0.950 . S
C802 C801 1.414 . S
C802 C803 1.374 . S
C803 H783 0.950 . S
C803 C799 1.385 . S
C803 C802 1.374 . S
C804 C801 1.499 . S
C804 C805 1.373 . S
C804 C806 1.389 . S
C805 H784 0.950 . S
C805 C804 1.373 . S
C805 C821 1.377 . S
C806 C804 1.389 . S
C806 C807 1.524 . S
C806 C820 1.377 . S
C807 C806 1.524 . S
C807 C808 1.397 . S
C807 C812 1.363 . S
C808 H785 0.950 . S
C808 C807 1.397 . S
C808 C809 1.334 . S
C809 H786 0.950 . S
C809 C808 1.334 . S
C809 C810 1.287 . S
C810 C809 1.287 . S
C810 C811 1.524 . S
C810 H829 0.913 . S
C811 H787 0.950 . S
C811 C810 1.524 . S
C811 C812 1.415 . S
C812 H788 0.950 . S
C812 C807 1.363 . S
C812 C811 1.415 . S
C813 H789 0.951 1_565 S
C813 C814 1.366 . S
C813 C815 1.388 . S
C814 C813 1.366 . S
C814 C818 1.385 . S
C815 H790 0.951 1_565 S
C815 C813 1.388 . S
C815 C816 1.366 . S
C816 C815 1.366 . S
C816 C817 1.414 . S
C816 C819 1.499 . S
C817 H791 0.950 . S
C817 C816 1.414 . S
C817 C818 1.374 . S
C818 H792 0.950 . S
C818 C814 1.385 . S
C818 C817 1.374 . S
C819 C816 1.499 . S
C819 C820 1.373 . S
C819 C821 1.389 . S
C820 H793 0.950 . S
C820 C806 1.377 . S
C820 C819 1.373 . S
C821 C805 1.377 . S
C821 C819 1.389 . S
C821 C822 1.524 . S
C822 C821 1.524 . S
C822 C823 1.397 . S
C822 C827 1.363 1_565 S
C823 H794 0.950 . S
C823 C822 1.397 . S
C823 C824 1.334 1_565 S
C824 H795 0.950 . S
C824 C823 1.334 1_545 S
C824 C825 1.287 . S
C825 C824 1.287 . S
C825 C826 1.524 . S
C825 H828 0.999 . S
C826 H796 0.950 . S
C826 C825 1.524 . S
C826 C827 1.415 . S
C827 H797 0.950 . S
C827 C822 1.363 1_545 S
C827 C826 1.415 . S
H828 C825 0.999 . S
H829 C810 0.913 . S
H830 C848 0.951 . S
H831 C850 0.951 . S
H832 C852 0.950 . S
H833 C853 0.950 . S
H834 C855 0.950 . S
H835 C858 0.950 . S
H836 C859 0.950 . S
H837 C861 0.950 . S
H838 C862 0.950 . S
H839 C863 0.951 . S
H840 C865 0.951 . S
H841 C867 0.950 . S
H842 C868 0.950 . S
H843 C870 0.950 . S
H844 C873 0.950 . S
H845 C874 0.950 . S
H846 C876 0.950 . S
H847 C877 0.950 . S
C848 H830 0.951 . S
C848 C849 1.366 . S
C848 C850 1.388 . S
C849 C848 1.366 . S
C849 C853 1.385 . S
C850 H831 0.951 . S
C850 C848 1.388 . S
C850 C851 1.366 . S
C851 C850 1.366 . S
C851 C852 1.414 . S
C851 C854 1.499 . S
C852 H832 0.950 . S
C852 C851 1.414 . S
C852 C853 1.374 . S
C853 H833 0.950 . S
C853 C849 1.385 . S
C853 C852 1.374 . S
C854 C851 1.499 . S
C854 C855 1.373 . S
C854 C856 1.389 . S
C855 H834 0.950 . S
C855 C854 1.373 . S
C855 C871 1.377 . S
C856 C854 1.389 . S
C856 C857 1.524 . S
C856 C870 1.377 . S
C857 C856 1.524 . S
C857 C858 1.397 . S
C857 C862 1.363 . S
C858 H835 0.950 . S
C858 C857 1.397 . S
C858 C859 1.334 . S
C859 H836 0.950 . S
C859 C858 1.334 . S
C859 C860 1.287 . S
C860 C859 1.287 . S
C860 C861 1.524 . S
C860 H879 0.913 . S
C861 H837 0.950 . S
C861 C860 1.524 . S
C861 C862 1.415 . S
C862 H838 0.950 . S
C862 C857 1.363 . S
C862 C861 1.415 . S
C863 H839 0.951 . S
C863 C864 1.366 . S
C863 C865 1.388 . S
C864 C863 1.366 . S
C864 C868 1.385 . S
C865 H840 0.951 . S
C865 C863 1.388 . S
C865 C866 1.366 . S
C866 C865 1.366 . S
C866 C867 1.414 . S
C866 C869 1.499 . S
C867 H841 0.950 . S
C867 C866 1.414 . S
C867 C868 1.374 . S
C868 H842 0.950 . S
C868 C864 1.385 . S
C868 C867 1.374 . S
C869 C866 1.499 . S
C869 C870 1.373 . S
C869 C871 1.389 . S
C870 H843 0.950 . S
C870 C856 1.377 . S
C870 C869 1.373 . S
C871 C855 1.377 . S
C871 C869 1.389 . S
C871 C872 1.524 . S
C872 C871 1.524 . S
C872 C873 1.397 . S
C872 C877 1.363 . S
C873 H844 0.950 . S
C873 C872 1.397 . S
C873 C874 1.334 1_545 S
C874 H845 0.950 . S
C874 C873 1.334 1_565 S
C874 C875 1.287 . S
C875 C874 1.287 . S
C875 C876 1.524 . S
C875 H878 0.999 . S
C876 H846 0.950 . S
C876 C875 1.524 . S
C876 C877 1.415 1_565 S
C877 H847 0.950 . S
C877 C872 1.363 . S
C877 C876 1.415 1_545 S
H878 C875 0.999 . S
H879 C860 0.913 . S
H880 C898 0.951 . S
H881 C900 0.951 . S
H882 C902 0.950 . S
H883 C903 0.950 . S
H884 C905 0.950 . S
H885 C908 0.950 . S
H886 C909 0.950 . S
H887 C911 0.950 . S
H888 C912 0.950 . S
H889 C913 0.951 . S
H890 C915 0.951 . S
H891 C917 0.950 . S
H892 C918 0.950 . S
H893 C920 0.950 . S
H894 C923 0.950 . S
H895 C924 0.950 . S
H896 C926 0.950 . S
H897 C927 0.950 . S
C898 H880 0.951 . S
C898 C899 1.366 . S
C898 C900 1.388 . S
C899 C898 1.366 . S
C899 C903 1.385 . S
C900 H881 0.951 . S
C900 C898 1.388 . S
C900 C901 1.366 . S
C901 C900 1.366 . S
C901 C902 1.414 . S
C901 C904 1.499 . S
C902 H882 0.950 . S
C902 C901 1.414 . S
C902 C903 1.374 . S
C903 H883 0.950 . S
C903 C899 1.385 . S
C903 C902 1.374 . S
C904 C901 1.499 . S
C904 C905 1.373 . S
C904 C906 1.389 . S
C905 H884 0.950 . S
C905 C904 1.373 . S
C905 C921 1.377 . S
C906 C904 1.389 . S
C906 C907 1.524 . S
C906 C920 1.377 . S
C907 C906 1.524 . S
C907 C908 1.397 . S
C907 C912 1.363 . S
C908 H885 0.950 . S
C908 C907 1.397 . S
C908 C909 1.334 . S
C909 H886 0.950 . S
C909 C908 1.334 . S
C909 C910 1.287 . S
C910 C909 1.287 . S
C910 C911 1.524 . S
C910 H929 0.913 . S
C911 H887 0.950 . S
C911 C910 1.524 . S
C911 C912 1.415 . S
C912 H888 0.950 . S
C912 C907 1.363 . S
C912 C911 1.415 . S
C913 H889 0.951 . S
C913 C914 1.366 . S
C913 C915 1.388 . S
C914 C913 1.366 . S
C914 C918 1.385 . S
C915 H890 0.951 . S
C915 C913 1.388 . S
C915 C916 1.366 . S
C916 C915 1.366 . S
C916 C917 1.414 . S
C916 C919 1.499 . S
C917 H891 0.950 . S
C917 C916 1.414 . S
C917 C918 1.374 . S
C918 H892 0.950 . S
C918 C914 1.385 . S
C918 C917 1.374 . S
C919 C916 1.499 . S
C919 C920 1.373 . S
C919 C921 1.389 . S
C920 H893 0.950 . S
C920 C906 1.377 . S
C920 C919 1.373 . S
C921 C905 1.377 . S
C921 C919 1.389 . S
C921 C922 1.524 . S
C922 C921 1.524 . S
C922 C923 1.397 . S
C922 C927 1.363 . S
C923 H894 0.950 . S
C923 C922 1.397 . S
C923 C924 1.334 . S
C924 H895 0.950 . S
C924 C923 1.334 . S
C924 C925 1.287 . S
C925 C924 1.287 . S
C925 C926 1.524 . S
C925 H928 0.999 . S
C926 H896 0.950 . S
C926 C925 1.524 . S
C926 C927 1.415 . S
C927 H897 0.950 . S
C927 C922 1.363 . S
C927 C926 1.415 . S
H928 C925 0.999 . S
H929 C910 0.913 . S
H930 C948 0.951 . S
H931 C950 0.951 . S
H932 C952 0.950 . S
H933 C953 0.950 . S
H934 C955 0.950 . S
H935 C958 0.950 . S
H936 C959 0.950 . S
H937 C961 0.950 . S
H938 C962 0.950 . S
H939 C963 0.951 . S
H940 C965 0.951 . S
H941 C967 0.950 . S
H942 C968 0.950 . S
H943 C970 0.950 . S
H944 C973 0.950 . S
H945 C974 0.950 . S
H946 C976 0.950 . S
H947 C977 0.950 . S
C948 H930 0.951 . S
C948 C949 1.366 . S
C948 C950 1.388 . S
C949 C948 1.366 . S
C949 C953 1.385 . S
C950 H931 0.951 . S
C950 C948 1.388 . S
C950 C951 1.366 . S
C951 C950 1.366 . S
C951 C952 1.414 . S
C951 C954 1.499 . S
C952 H932 0.950 . S
C952 C951 1.414 . S
C952 C953 1.374 . S
C953 H933 0.950 . S
C953 C949 1.385 . S
C953 C952 1.374 . S
C954 C951 1.499 . S
C954 C955 1.373 . S
C954 C956 1.389 . S
C955 H934 0.950 . S
C955 C954 1.373 . S
C955 C971 1.377 . S
C956 C954 1.389 . S
C956 C957 1.524 . S
C956 C970 1.377 . S
C957 C956 1.524 . S
C957 C958 1.397 . S
C957 C962 1.363 . S
C958 H935 0.950 . S
C958 C957 1.397 . S
C958 C959 1.334 . S
C959 H936 0.950 . S
C959 C958 1.334 . S
C959 C960 1.287 . S
C960 C959 1.287 . S
C960 C961 1.524 . S
C960 H979 0.913 . S
C961 H937 0.950 . S
C961 C960 1.524 . S
C961 C962 1.415 . S
C962 H938 0.950 . S
C962 C957 1.363 . S
C962 C961 1.415 . S
C963 H939 0.951 . S
C963 C964 1.366 . S
C963 C965 1.388 . S
C964 C963 1.366 . S
C964 C968 1.385 . S
C965 H940 0.951 . S
C965 C963 1.388 . S
C965 C966 1.366 . S
C966 C965 1.366 . S
C966 C967 1.414 . S
C966 C969 1.499 . S
C967 H941 0.950 . S
C967 C966 1.414 . S
C967 C968 1.374 . S
C968 H942 0.950 . S
C968 C964 1.385 . S
C968 C967 1.374 . S
C969 C966 1.499 . S
C969 C970 1.373 . S
C969 C971 1.389 . S
C970 H943 0.950 . S
C970 C956 1.377 . S
C970 C969 1.373 . S
C971 C955 1.377 . S
C971 C969 1.389 . S
C971 C972 1.524 . S
C972 C971 1.524 . S
C972 C973 1.397 . S
C972 C977 1.363 . S
C973 H944 0.950 . S
C973 C972 1.397 . S
C973 C974 1.334 . S
C974 H945 0.950 . S
C974 C973 1.334 . S
C974 C975 1.287 . S
C975 C974 1.287 . S
C975 C976 1.524 . S
C975 H978 0.999 . S
C976 H946 0.950 . S
C976 C975 1.524 . S
C976 C977 1.415 . S
C977 H947 0.950 . S
C977 C972 1.363 . S
C977 C976 1.415 . S
H978 C975 0.999 . S
H979 C960 0.913 . S
H980 C998 0.951 . S
H981 C1000 0.951 . S
H982 C1002 0.950 . S
H983 C1003 0.950 . S
H984 C1005 0.950 . S
H985 C1008 0.950 . S
H986 C1009 0.950 . S
H987 C1011 0.950 . S
H988 C1012 0.950 . S
H989 C1013 0.951 . S
H990 C1015 0.951 . S
H991 C1017 0.950 . S
H992 C1018 0.950 . S
H993 C1020 0.950 . S
H994 C1023 0.950 . S
H995 C1024 0.950 . S
H996 C1026 0.950 . S
H997 C1027 0.950 1_545 S
C998 H980 0.951 . S
C998 C999 1.366 . S
C998 C1000 1.388 . S
C999 C998 1.366 . S
C999 C1003 1.385 . S
C1000 H981 0.951 . S
C1000 C998 1.388 . S
C1000 C1001 1.366 . S
C1001 C1000 1.366 . S
C1001 C1002 1.414 . S
C1001 C1004 1.499 . S
C1002 H982 0.950 . S
C1002 C1001 1.414 . S
C1002 C1003 1.374 . S
C1003 H983 0.950 . S
C1003 C999 1.385 . S
C1003 C1002 1.374 . S
C1004 C1001 1.499 . S
C1004 C1005 1.373 . S
C1004 C1006 1.389 . S
C1005 H984 0.950 . S
C1005 C1004 1.373 . S
C1005 C1021 1.377 . S
C1006 C1004 1.389 . S
C1006 C1007 1.524 . S
C1006 C1020 1.377 . S
C1007 C1006 1.524 . S
C1007 C1008 1.397 . S
C1007 C1012 1.363 . S
C1008 H985 0.950 . S
C1008 C1007 1.397 . S
C1008 C1009 1.334 . S
C1009 H986 0.950 . S
C1009 C1008 1.334 . S
C1009 C1010 1.287 . S
C1010 C1009 1.287 . S
C1010 C1011 1.524 . S
C1010 H1029 0.913 . S
C1011 H987 0.950 . S
C1011 C1010 1.524 . S
C1011 C1012 1.415 . S
C1012 H988 0.950 . S
C1012 C1007 1.363 . S
C1012 C1011 1.415 . S
C1013 H989 0.951 . S
C1013 C1014 1.366 1_545 S
C1013 C1015 1.388 . S
C1014 C1013 1.366 1_565 S
C1014 C1018 1.385 . S
C1015 H990 0.951 . S
C1015 C1013 1.388 . S
C1015 C1016 1.366 1_545 S
C1016 C1015 1.366 1_565 S
C1016 C1017 1.414 . S
C1016 C1019 1.499 . S
C1017 H991 0.950 . S
C1017 C1016 1.414 . S
C1017 C1018 1.374 . S
C1018 H992 0.950 . S
C1018 C1014 1.385 . S
C1018 C1017 1.374 . S
C1019 C1016 1.499 . S
C1019 C1020 1.373 . S
C1019 C1021 1.389 . S
C1020 H993 0.950 . S
C1020 C1006 1.377 . S
C1020 C1019 1.373 . S
C1021 C1005 1.377 . S
C1021 C1019 1.389 . S
C1021 C1022 1.506 1_556 S
C1022 C1021 1.506 1_554 S
C1022 C1023 1.406 . S
C1022 C1027 1.371 . S
C1023 H994 0.950 . S
C1023 C1022 1.406 . S
C1023 C1024 1.334 . S
C1024 H995 0.950 . S
C1024 C1023 1.334 . S
C1024 C1025 1.287 . S
C1025 C1024 1.287 . S
C1025 C1026 1.524 1_565 S
C1025 H1028 0.999 . S
C1026 H996 0.950 . S
C1026 C1025 1.524 1_545 S
C1026 C1027 1.415 1_545 S
C1027 H997 0.950 1_565 S
C1027 C1022 1.371 . S
C1027 C1026 1.415 1_565 S
H1028 C1025 0.999 . S
H1029 C1010 0.913 . S
H1030 C1048 0.951 . S
H1031 C1050 0.951 . S
H1032 C1052 0.950 . S
H1033 C1053 0.950 . S
H1034 C1055 0.950 . S
H1035 C1058 0.950 . S
H1036 C1059 0.950 . S
H1037 C1061 0.950 . S
H1038 C1062 0.950 . S
H1039 C1063 0.951 . S
H1040 C1065 0.951 . S
H1041 C1067 0.950 . S
H1042 C1068 0.950 . S
H1043 C1070 0.950 . S
H1044 C1073 0.950 . S
H1045 C1074 0.950 . S
H1046 C1076 0.950 . S
H1047 C1077 0.950 . S
C1048 H1030 0.951 . S
C1048 C1049 1.366 . S
C1048 C1050 1.388 . S
C1049 C1048 1.366 . S
C1049 C1053 1.385 . S
C1050 H1031 0.951 . S
C1050 C1048 1.388 . S
C1050 C1051 1.366 . S
C1051 C1050 1.366 . S
C1051 C1052 1.414 . S
C1051 C1054 1.499 . S
C1052 H1032 0.950 . S
C1052 C1051 1.414 . S
C1052 C1053 1.374 . S
C1053 H1033 0.950 . S
C1053 C1049 1.385 . S
C1053 C1052 1.374 . S
C1054 C1051 1.499 . S
C1054 C1055 1.373 . S
C1054 C1056 1.389 . S
C1055 H1034 0.950 . S
C1055 C1054 1.373 . S
C1055 C1071 1.377 . S
C1056 C1054 1.389 . S
C1056 C1057 1.524 . S
C1056 C1070 1.377 . S
C1057 C1056 1.524 . S
C1057 C1058 1.397 . S
C1057 C1062 1.363 . S
C1058 H1035 0.950 . S
C1058 C1057 1.397 . S
C1058 C1059 1.334 . S
C1059 H1036 0.950 . S
C1059 C1058 1.334 . S
C1059 C1060 1.287 . S
C1060 C1059 1.287 . S
C1060 C1061 1.524 . S
C1060 H1079 0.913 . S
C1061 H1037 0.950 . S
C1061 C1060 1.524 . S
C1061 C1062 1.415 . S
C1062 H1038 0.950 . S
C1062 C1057 1.363 . S
C1062 C1061 1.415 . S
C1063 H1039 0.951 . S
C1063 C1064 1.366 . S
C1063 C1065 1.388 . S
C1064 C1063 1.366 . S
C1064 C1068 1.385 . S
C1065 H1040 0.951 . S
C1065 C1063 1.388 . S
C1065 C1066 1.366 . S
C1066 C1065 1.366 . S
C1066 C1067 1.414 . S
C1066 C1069 1.499 . S
C1067 H1041 0.950 . S
C1067 C1066 1.414 . S
C1067 C1068 1.374 . S
C1068 H1042 0.950 . S
C1068 C1064 1.385 . S
C1068 C1067 1.374 . S
C1069 C1066 1.499 . S
C1069 C1070 1.373 . S
C1069 C1071 1.389 . S
C1070 H1043 0.950 . S
C1070 C1056 1.377 . S
C1070 C1069 1.373 . S
C1071 C1055 1.377 . S
C1071 C1069 1.389 . S
C1071 C1072 1.524 . S
C1072 C1071 1.524 . S
C1072 C1073 1.397 . S
C1072 C1077 1.363 . S
C1073 H1044 0.950 . S
C1073 C1072 1.397 . S
C1073 C1074 1.334 . S
C1074 H1045 0.950 . S
C1074 C1073 1.334 . S
C1074 C1075 1.287 . S
C1075 C1074 1.287 . S
C1075 C1076 1.524 . S
C1075 H1078 0.999 . S
C1076 H1046 0.950 . S
C1076 C1075 1.524 . S
C1076 C1077 1.415 . S
C1077 H1047 0.950 . S
C1077 C1072 1.363 . S
C1077 C1076 1.415 . S
H1078 C1075 0.999 . S
H1079 C1060 0.913 . S
H1080 C1098 0.951 . S
H1081 C1100 0.951 . S
H1082 C1102 0.950 . S
H1083 C1103 0.950 . S
H1084 C1105 0.950 . S
H1085 C1108 0.950 . S
H1086 C1109 0.950 . S
H1087 C1111 0.938 1_556 S
H1088 C1112 0.950 . S
H1089 C1113 0.951 . S
H1090 C1115 0.951 . S
H1091 C1117 0.950 . S
H1092 C1118 0.950 . S
H1093 C1120 0.950 . S
H1094 C1123 0.950 . S
H1095 C1124 0.950 . S
H1096 C1126 0.950 . S
H1097 C1127 0.950 . S
C1098 H1080 0.951 . S
C1098 C1099 1.366 . S
C1098 C1100 1.388 . S
C1099 C1098 1.366 . S
C1099 C1103 1.385 . S
C1100 H1081 0.951 . S
C1100 C1098 1.388 . S
C1100 C1101 1.366 . S
C1101 C1100 1.366 . S
C1101 C1102 1.414 . S
C1101 C1104 1.499 . S
C1102 H1082 0.950 . S
C1102 C1101 1.414 . S
C1102 C1103 1.374 . S
C1103 H1083 0.950 . S
C1103 C1099 1.385 . S
C1103 C1102 1.374 . S
C1104 C1101 1.499 . S
C1104 C1105 1.373 . S
C1104 C1106 1.389 . S
C1105 H1084 0.950 . S
C1105 C1104 1.373 . S
C1105 C1121 1.377 . S
C1106 C1104 1.389 . S
C1106 C1107 1.524 . S
C1106 C1120 1.377 . S
C1107 C1106 1.524 . S
C1107 C1108 1.397 . S
C1107 C1112 1.363 . S
C1108 H1085 0.950 . S
C1108 C1107 1.397 . S
C1108 C1109 1.334 . S
C1109 H1086 0.950 . S
C1109 C1108 1.334 . S
C1109 C1110 1.287 . S
C1110 C1109 1.287 . S
C1110 C1111 1.527 . S
C1110 H1129 0.913 1_554 S
C1111 H1087 0.938 1_554 S
C1111 C1110 1.527 . S
C1111 C1112 1.425 . S
C1112 H1088 0.950 . S
C1112 C1107 1.363 . S
C1112 C1111 1.425 . S
C1113 H1089 0.951 . S
C1113 C1114 1.366 . S
C1113 C1115 1.388 . S
C1114 C1113 1.366 . S
C1114 C1118 1.385 . S
C1115 H1090 0.951 . S
C1115 C1113 1.388 . S
C1115 C1116 1.366 . S
C1116 C1115 1.366 . S
C1116 C1117 1.414 . S
C1116 C1119 1.499 . S
C1117 H1091 0.950 . S
C1117 C1116 1.414 . S
C1117 C1118 1.374 . S
C1118 H1092 0.950 . S
C1118 C1114 1.385 . S
C1118 C1117 1.374 . S
C1119 C1116 1.499 . S
C1119 C1120 1.373 . S
C1119 C1121 1.389 . S
C1120 H1093 0.950 . S
C1120 C1106 1.377 . S
C1120 C1119 1.373 . S
C1121 C1105 1.377 . S
C1121 C1119 1.389 . S
C1121 C1122 1.524 . S
C1122 C1121 1.524 . S
C1122 C1123 1.397 . S
C1122 C1127 1.363 . S
C1123 H1094 0.950 . S
C1123 C1122 1.397 . S
C1123 C1124 1.334 . S
C1124 H1095 0.950 . S
C1124 C1123 1.334 . S
C1124 C1125 1.287 . S
C1125 C1124 1.287 . S
C1125 C1126 1.524 . S
C1125 H1128 0.999 . S
C1126 H1096 0.950 . S
C1126 C1125 1.524 . S
C1126 C1127 1.415 . S
C1127 H1097 0.950 . S
C1127 C1122 1.363 . S
C1127 C1126 1.415 . S
H1128 C1125 0.999 . S
H1129 C1110 0.913 1_556 S
H1130 C1148 0.951 . S
H1131 C1150 0.951 . S
H1132 C1152 0.950 . S
H1133 C1153 0.950 . S
H1134 C1155 0.950 . S
H1135 C1158 0.950 . S
H1136 C1159 0.950 . S
H1137 C1161 0.950 . S
H1138 C1162 0.950 . S
H1139 C1163 0.951 . S
H1140 C1165 0.951 . S
H1141 C1167 0.950 . S
H1142 C1168 0.950 . S
H1143 C1170 0.950 . S
H1144 C1173 0.950 . S
H1145 C1174 0.950 . S
H1146 C1176 0.950 . S
H1147 C1177 0.950 . S
C1148 H1130 0.951 . S
C1148 C1149 1.366 . S
C1148 C1150 1.388 . S
C1149 C1148 1.366 . S
C1149 C1153 1.385 . S
C1150 H1131 0.951 . S
C1150 C1148 1.388 . S
C1150 C1151 1.366 . S
C1151 C1150 1.366 . S
C1151 C1152 1.414 . S
C1151 C1154 1.499 . S
C1152 H1132 0.950 . S
C1152 C1151 1.414 . S
C1152 C1153 1.374 . S
C1153 H1133 0.950 . S
C1153 C1149 1.385 . S
C1153 C1152 1.374 . S
C1154 C1151 1.499 . S
C1154 C1155 1.373 . S
C1154 C1156 1.389 . S
C1155 H1134 0.950 . S
C1155 C1154 1.373 . S
C1155 C1171 1.377 . S
C1156 C1154 1.389 . S
C1156 C1157 1.524 . S
C1156 C1170 1.377 . S
C1157 C1156 1.524 . S
C1157 C1158 1.397 . S
C1157 C1162 1.363 . S
C1158 H1135 0.950 . S
C1158 C1157 1.397 . S
C1158 C1159 1.334 . S
C1159 H1136 0.950 . S
C1159 C1158 1.334 . S
C1159 C1160 1.287 . S
C1160 C1159 1.287 . S
C1160 C1161 1.524 . S
C1160 H1179 0.913 . S
C1161 H1137 0.950 . S
C1161 C1160 1.524 . S
C1161 C1162 1.415 . S
C1162 H1138 0.950 . S
C1162 C1157 1.363 . S
C1162 C1161 1.415 . S
C1163 H1139 0.951 . S
C1163 C1164 1.366 . S
C1163 C1165 1.388 . S
C1164 C1163 1.366 . S
C1164 C1168 1.385 . S
C1165 H1140 0.951 . S
C1165 C1163 1.388 . S
C1165 C1166 1.366 . S
C1166 C1165 1.366 . S
C1166 C1167 1.414 . S
C1166 C1169 1.499 . S
C1167 H1141 0.950 . S
C1167 C1166 1.414 . S
C1167 C1168 1.374 . S
C1168 H1142 0.950 . S
C1168 C1164 1.385 . S
C1168 C1167 1.374 . S
C1169 C1166 1.499 . S
C1169 C1170 1.373 . S
C1169 C1171 1.389 . S
C1170 H1143 0.950 . S
C1170 C1156 1.377 . S
C1170 C1169 1.373 . S
C1171 C1155 1.377 . S
C1171 C1169 1.389 . S
C1171 C1172 1.524 . S
C1172 C1171 1.524 . S
C1172 C1173 1.397 . S
C1172 C1177 1.363 . S
C1173 H1144 0.950 . S
C1173 C1172 1.397 . S
C1173 C1174 1.334 . S
C1174 H1145 0.950 . S
C1174 C1173 1.334 . S
C1174 C1175 1.287 . S
C1175 C1174 1.287 . S
C1175 C1176 1.524 . S
C1175 H1178 0.999 . S
C1176 H1146 0.950 . S
C1176 C1175 1.524 . S
C1176 C1177 1.415 . S
C1177 H1147 0.950 . S
C1177 C1172 1.363 . S
C1177 C1176 1.415 . S
H1178 C1175 0.999 . S
H1179 C1160 0.913 . S
H1180 C1198 0.951 . S
H1181 C1200 0.951 . S
H1182 C1202 0.950 . S
H1183 C1203 0.950 . S
H1184 C1205 0.950 . S
H1185 C1208 0.950 . S
H1186 C1209 0.950 . S
H1187 C1211 0.950 . S
H1188 C1212 0.950 . S
H1189 C1213 0.951 . S
H1190 C1215 0.951 . S
H1191 C1217 0.950 1_455 S
H1192 C1218 0.950 . S
H1193 C1220 0.950 . S
H1194 C1223 0.950 . S
H1195 C1224 0.950 . S
H1196 C1226 0.950 . S
H1197 C1227 0.950 . S
C1198 H1180 0.951 . S
C1198 C1199 1.366 . S
C1198 C1200 1.388 . S
C1199 C1198 1.366 . S
C1199 C1203 1.385 . S
C1200 H1181 0.951 . S
C1200 C1198 1.388 . S
C1200 C1201 1.366 . S
C1201 C1200 1.366 . S
C1201 C1202 1.414 . S
C1201 C1204 1.499 . S
C1202 H1182 0.950 . S
C1202 C1201 1.414 . S
C1202 C1203 1.374 . S
C1203 H1183 0.950 . S
C1203 C1199 1.385 . S
C1203 C1202 1.374 . S
C1204 C1201 1.499 . S
C1204 C1205 1.373 . S
C1204 C1206 1.389 . S
C1205 H1184 0.950 . S
C1205 C1204 1.373 . S
C1205 C1221 1.377 . S
C1206 C1204 1.389 . S
C1206 C1207 1.524 . S
C1206 C1220 1.377 . S
C1207 C1206 1.524 . S
C1207 C1208 1.397 . S
C1207 C1212 1.363 1_655 S
C1208 H1185 0.950 . S
C1208 C1207 1.397 . S
C1208 C1209 1.334 . S
C1209 H1186 0.950 . S
C1209 C1208 1.334 . S
C1209 C1210 1.287 1_655 S
C1210 C1209 1.287 1_455 S
C1210 C1211 1.524 . S
C1210 H1229 0.913 . S
C1211 H1187 0.950 . S
C1211 C1210 1.524 . S
C1211 C1212 1.415 . S
C1212 H1188 0.950 . S
C1212 C1207 1.363 1_455 S
C1212 C1211 1.415 . S
C1213 H1189 0.951 . S
C1213 C1214 1.366 . S
C1213 C1215 1.388 . S
C1214 C1213 1.366 . S
C1214 C1218 1.385 1_655 S
C1215 H1190 0.951 . S
C1215 C1213 1.388 . S
C1215 C1216 1.366 . S
C1216 C1215 1.366 . S
C1216 C1217 1.414 . S
C1216 C1219 1.499 . S
C1217 H1191 0.950 1_655 S
C1217 C1216 1.414 . S
C1217 C1218 1.374 1_655 S
C1218 H1192 0.950 . S
C1218 C1214 1.385 1_455 S
C1218 C1217 1.374 1_455 S
C1219 C1216 1.499 . S
C1219 C1220 1.373 . S
C1219 C1221 1.389 . S
C1220 H1193 0.950 . S
C1220 C1206 1.377 . S
C1220 C1219 1.373 . S
C1221 C1205 1.377 . S
C1221 C1219 1.389 . S
C1221 C1222 1.524 . S
C1222 C1221 1.524 . S
C1222 C1223 1.397 1_556 S
C1222 C1227 1.363 . S
C1223 H1194 0.950 . S
C1223 C1222 1.397 1_554 S
C1223 C1224 1.334 . S
C1224 H1195 0.950 . S
C1224 C1223 1.334 . S
C1224 C1225 1.287 . S
C1225 C1224 1.287 . S
C1225 C1226 1.524 . S
C1225 H1228 0.999 . S
C1226 H1196 0.950 . S
C1226 C1225 1.524 . S
C1226 C1227 1.415 1_554 S
C1227 H1197 0.950 . S
C1227 C1222 1.363 . S
C1227 C1226 1.415 1_556 S
H1228 C1225 0.999 . S
H1229 C1210 0.913 . S
H1230 C1248 0.951 . S
H1231 C1250 0.951 . S
H1232 C1252 0.950 . S
H1233 C1253 0.950 . S
H1234 C1255 0.950 . S
H1235 C1258 0.950 . S
H1236 C1259 0.950 . S
H1237 C1261 0.950 . S
H1238 C1262 0.950 . S
H1239 C1263 0.951 . S
H1240 C1265 0.951 . S
H1241 C1267 0.950 . S
H1242 C1268 0.950 . S
H1243 C1270 0.950 . S
H1244 C1273 0.950 . S
H1245 C1274 0.950 . S
H1246 C1276 0.950 . S
H1247 C1277 0.950 . S
C1248 H1230 0.951 . S
C1248 C1249 1.366 . S
C1248 C1250 1.388 . S
C1249 C1248 1.366 . S
C1249 C1253 1.385 . S
C1250 H1231 0.951 . S
C1250 C1248 1.388 . S
C1250 C1251 1.366 . S
C1251 C1250 1.366 . S
C1251 C1252 1.414 . S
C1251 C1254 1.499 . S
C1252 H1232 0.950 . S
C1252 C1251 1.414 . S
C1252 C1253 1.374 . S
C1253 H1233 0.950 . S
C1253 C1249 1.385 . S
C1253 C1252 1.374 . S
C1254 C1251 1.499 . S
C1254 C1255 1.373 . S
C1254 C1256 1.389 . S
C1255 H1234 0.950 . S
C1255 C1254 1.373 . S
C1255 C1271 1.377 . S
C1256 C1254 1.389 . S
C1256 C1257 1.524 . S
C1256 C1270 1.377 . S
C1257 C1256 1.524 . S
C1257 C1258 1.397 . S
C1257 C1262 1.363 . S
C1258 H1235 0.950 . S
C1258 C1257 1.397 . S
C1258 C1259 1.334 . S
C1259 H1236 0.950 . S
C1259 C1258 1.334 . S
C1259 C1260 1.287 . S
C1260 C1259 1.287 . S
C1260 C1261 1.524 . S
C1260 H1279 0.913 . S
C1261 H1237 0.950 . S
C1261 C1260 1.524 . S
C1261 C1262 1.415 . S
C1262 H1238 0.950 . S
C1262 C1257 1.363 . S
C1262 C1261 1.415 . S
C1263 H1239 0.951 . S
C1263 C1264 1.366 . S
C1263 C1265 1.388 . S
C1264 C1263 1.366 . S
C1264 C1268 1.385 . S
C1265 H1240 0.951 . S
C1265 C1263 1.388 . S
C1265 C1266 1.366 . S
C1266 C1265 1.366 . S
C1266 C1267 1.414 . S
C1266 C1269 1.499 . S
C1267 H1241 0.950 . S
C1267 C1266 1.414 . S
C1267 C1268 1.374 . S
C1268 H1242 0.950 . S
C1268 C1264 1.385 . S
C1268 C1267 1.374 . S
C1269 C1266 1.499 . S
C1269 C1270 1.373 . S
C1269 C1271 1.389 . S
C1270 H1243 0.950 . S
C1270 C1256 1.377 . S
C1270 C1269 1.373 . S
C1271 C1255 1.377 . S
C1271 C1269 1.389 . S
C1271 C1272 1.524 . S
C1272 C1271 1.524 . S
C1272 C1273 1.397 . S
C1272 C1277 1.363 . S
C1273 H1244 0.950 . S
C1273 C1272 1.397 . S
C1273 C1274 1.334 1_554 S
C1274 H1245 0.950 . S
C1274 C1273 1.334 1_556 S
C1274 C1275 1.287 . S
C1275 C1274 1.287 . S
C1275 C1276 1.524 1_556 S
C1275 H1278 0.999 . S
C1276 H1246 0.950 . S
C1276 C1275 1.524 1_554 S
C1276 C1277 1.415 . S
C1277 H1247 0.950 . S
C1277 C1272 1.363 . S
C1277 C1276 1.415 . S
H1278 C1275 0.999 . S
H1279 C1260 0.913 . S
H1280 C1298 0.951 . S
H1281 C1300 0.951 . S
H1282 C1302 0.950 . S
H1283 C1303 0.950 . S
H1284 C1305 0.950 . S
H1285 C1308 0.950 . S
H1286 C1309 0.950 . S
H1287 C1311 0.950 . S
H1288 C1312 0.950 . S
H1289 C1313 0.951 . S
H1290 C1315 0.951 . S
H1291 C1317 0.950 . S
H1292 C1318 0.950 1_655 S
H1293 C1320 0.950 . S
H1294 C1323 0.950 . S
H1295 C1324 0.950 . S
H1296 C1326 0.950 . S
H1297 C1327 0.950 . S
C1298 H1280 0.951 . S
C1298 C1299 1.366 . S
C1298 C1300 1.388 . S
C1299 C1298 1.366 . S
C1299 C1303 1.385 . S
C1300 H1281 0.951 . S
C1300 C1298 1.388 . S
C1300 C1301 1.366 . S
C1301 C1300 1.366 . S
C1301 C1302 1.414 . S
C1301 C1304 1.499 . S
C1302 H1282 0.950 . S
C1302 C1301 1.414 . S
C1302 C1303 1.374 . S
C1303 H1283 0.950 . S
C1303 C1299 1.385 . S
C1303 C1302 1.374 . S
C1304 C1301 1.499 . S
C1304 C1305 1.373 . S
C1304 C1306 1.389 . S
C1305 H1284 0.950 . S
C1305 C1304 1.373 . S
C1305 C1321 1.377 . S
C1306 C1304 1.389 . S
C1306 C1307 1.524 . S
C1306 C1320 1.377 . S
C1307 C1306 1.524 . S
C1307 C1308 1.397 . S
C1307 C1312 1.363 1_455 S
C1308 H1285 0.950 . S
C1308 C1307 1.397 . S
C1308 C1309 1.334 . S
C1309 H1286 0.950 . S
C1309 C1308 1.334 . S
C1309 C1310 1.287 1_455 S
C1310 C1309 1.287 1_655 S
C1310 C1311 1.524 . S
C1310 H1329 0.913 . S
C1311 H1287 0.950 . S
C1311 C1310 1.524 . S
C1311 C1312 1.415 . S
C1312 H1288 0.950 . S
C1312 C1307 1.363 1_655 S
C1312 C1311 1.415 . S
C1313 H1289 0.951 . S
C1313 C1314 1.366 . S
C1313 C1315 1.388 . S
C1314 C1313 1.366 . S
C1314 C1318 1.385 . S
C1315 H1290 0.951 . S
C1315 C1313 1.388 . S
C1315 C1316 1.366 . S
C1316 C1315 1.366 . S
C1316 C1317 1.414 . S
C1316 C1319 1.499 . S
C1317 H1291 0.950 . S
C1317 C1316 1.414 . S
C1317 C1318 1.374 . S
C1318 H1292 0.950 1_455 S
C1318 C1314 1.385 . S
C1318 C1317 1.374 . S
C1319 C1316 1.499 . S
C1319 C1320 1.373 . S
C1319 C1321 1.389 . S
C1320 H1293 0.950 . S
C1320 C1306 1.377 . S
C1320 C1319 1.373 . S
C1321 C1305 1.377 . S
C1321 C1319 1.389 . S
C1321 C1322 1.524 . S
C1322 C1321 1.524 . S
C1322 C1323 1.397 . S
C1322 C1327 1.363 . S
C1323 H1294 0.950 . S
C1323 C1322 1.397 . S
C1323 C1324 1.334 . S
C1324 H1295 0.950 . S
C1324 C1323 1.334 . S
C1324 C1325 1.287 . S
C1325 C1324 1.287 . S
C1325 C1326 1.524 . S
C1325 H1328 0.999 . S
C1326 H1296 0.950 . S
C1326 C1325 1.524 . S
C1326 C1327 1.415 . S
C1327 H1297 0.950 . S
C1327 C1322 1.363 . S
C1327 C1326 1.415 . S
H1328 C1325 0.999 . S
H1329 C1310 0.913 . S
H1330 C1348 0.951 . S
H1331 C1350 0.951 . S
H1332 C1352 0.950 . S
H1333 C1353 0.950 . S
H1334 C1355 0.950 . S
H1335 C1358 0.950 . S
H1336 C1359 0.950 . S
H1337 C1361 0.950 . S
H1338 C1362 0.950 . S
H1339 C1363 0.951 . S
H1340 C1365 0.951 . S
H1341 C1367 0.950 . S
H1342 C1368 0.950 . S
H1343 C1370 0.950 . S
H1344 C1373 0.950 . S
H1345 C1374 0.950 . S
H1346 C1376 0.950 . S
H1347 C1377 0.950 . S
C1348 H1330 0.951 . S
C1348 C1349 1.366 . S
C1348 C1350 1.388 . S
C1349 C1348 1.366 . S
C1349 C1353 1.385 . S
C1350 H1331 0.951 . S
C1350 C1348 1.388 . S
C1350 C1351 1.366 . S
C1351 C1350 1.366 . S
C1351 C1352 1.414 . S
C1351 C1354 1.499 . S
C1352 H1332 0.950 . S
C1352 C1351 1.414 . S
C1352 C1353 1.374 . S
C1353 H1333 0.950 . S
C1353 C1349 1.385 . S
C1353 C1352 1.374 . S
C1354 C1351 1.499 . S
C1354 C1355 1.373 . S
C1354 C1356 1.389 . S
C1355 H1334 0.950 . S
C1355 C1354 1.373 . S
C1355 C1371 1.377 . S
C1356 C1354 1.389 . S
C1356 C1357 1.524 . S
C1356 C1370 1.377 . S
C1357 C1356 1.524 . S
C1357 C1358 1.397 . S
C1357 C1362 1.363 . S
C1358 H1335 0.950 . S
C1358 C1357 1.397 . S
C1358 C1359 1.334 . S
C1359 H1336 0.950 . S
C1359 C1358 1.334 . S
C1359 C1360 1.287 . S
C1360 C1359 1.287 . S
C1360 C1361 1.524 . S
C1360 H1379 0.913 . S
C1361 H1337 0.950 . S
C1361 C1360 1.524 . S
C1361 C1362 1.415 . S
C1362 H1338 0.950 . S
C1362 C1357 1.363 . S
C1362 C1361 1.415 . S
C1363 H1339 0.951 . S
C1363 C1364 1.366 . S
C1363 C1365 1.388 . S
C1364 C1363 1.366 . S
C1364 C1368 1.385 . S
C1365 H1340 0.951 . S
C1365 C1363 1.388 . S
C1365 C1366 1.366 . S
C1366 C1365 1.366 . S
C1366 C1367 1.414 . S
C1366 C1369 1.499 . S
C1367 H1341 0.950 . S
C1367 C1366 1.414 . S
C1367 C1368 1.374 . S
C1368 H1342 0.950 . S
C1368 C1364 1.385 . S
C1368 C1367 1.374 . S
C1369 C1366 1.499 . S
C1369 C1370 1.373 . S
C1369 C1371 1.389 . S
C1370 H1343 0.950 . S
C1370 C1356 1.377 . S
C1370 C1369 1.373 . S
C1371 C1355 1.377 . S
C1371 C1369 1.389 . S
C1371 C1372 1.524 . S
C1372 C1371 1.524 . S
C1372 C1373 1.397 . S
C1372 C1377 1.363 . S
C1373 H1344 0.950 . S
C1373 C1372 1.397 . S
C1373 C1374 1.334 . S
C1374 H1345 0.950 . S
C1374 C1373 1.334 . S
C1374 C1375 1.287 . S
C1375 C1374 1.287 . S
C1375 C1376 1.524 . S
C1375 H1378 0.999 . S
C1376 H1346 0.950 . S
C1376 C1375 1.524 . S
C1376 C1377 1.415 . S
C1377 H1347 0.950 . S
C1377 C1372 1.363 . S
C1377 C1376 1.415 . S
H1378 C1375 0.999 . S
H1379 C1360 0.913 . S
C199 C6 1.794 . S
C214 C112 1.737 . S
C249 C18 1.797 . S
C264 C134 1.743 . S
C314 C153 1.243 . S
C299 C28 1.447 . S
C349 C40 1.191 . S
C364 C174 0.996 . S
C414 C131 2.067 . S
C399 C9 2.139 . S
C464 C109 1.661 . S
C449 C16 1.716 . S
C514 C176 1.235 . S
C499 C30 1.302 . S
C564 C155 1.012 . S
C549 C42 1.046 . S
C599 C4 1.714 . S
C614 C173 1.652 . S
C664 C132 1.403 . S
C649 C33 1.668 . S
C699 C45 1.387 . S
C714 C114 1.208 . S
C749 C21 1.748 . S
C764 C152 1.719 . S
C814 C110 1.781 . S
C799 C57 1.868 . S
C849 C66 1.622 . S
C864 C130 1.578 . S
C899 C76 1.556 . S
C914 C156 1.331 . S
C949 C88 1.020 . S
C964 C177 0.876 . S
C999 C54 2.048 . S
C1014 C133 1.987 . S
C1064 C113 1.787 . S
C1049 C64 1.841 . S
C1114 C172 1.039 . S
C1099 C78 1.083 . S
C1164 C151 1.159 . S
C1149 C93 1.194 . S
C1199 C52 1.471 . S
C1214 C175 1.423 . S
C1264 C135 1.352 . S
C1249 C81 1.579 . S
C1314 C111 1.026 . S
C1299 C90 1.166 . S
C1349 C69 1.721 . S
C1364 C154 1.682 . S
