# Generated by pormake.
# Topology tsx, (6,3)-cn, num edge types: 1
# Building blocks:
#     Node 0, Type 0, BuildingBlock: VOLQOD_clean_sbu_1, # of connection points: 6
#     Node 1, Type 0, BuildingBlock: VOLQOD_clean_sbu_1, # of connection points: 6
#     Node 2, Type 1, BuildingBlock: CUQRIR_clean_linker_1, # of connection points: 3
#     Node 3, Type 1, BuildingBlock: CUQRIR_clean_linker_1, # of connection points: 3
#     Node 4, Type 1, BuildingBlock: CUQRIR_clean_linker_1, # of connection points: 3
#     Node 5, Type 1, BuildingBlock: CUQRIR_clean_linker_1, # of connection points: 3
#     Edge 6, Type (0, 1), BuildingBlock: FUNLAD_clean_linker_1, # of connection points: 2
#     Edge 7, Type (0, 1), BuildingBlock: FUNLAD_clean_linker_1, # of connection points: 2
#     Edge 8, Type (0, 1), BuildingBlock: FUNLAD_clean_linker_1, # of connection points: 2
#     Edge 9, Type (0, 1), BuildingBlock: FUNLAD_clean_linker_1, # of connection points: 2
#     Edge 10, Type (0, 1), BuildingBlock: FUNLAD_clean_linker_1, # of connection points: 2
#     Edge 11, Type (0, 1), BuildingBlock: FUNLAD_clean_linker_1, # of connection points: 2
#     Edge 12, Type (0, 1), BuildingBlock: FUNLAD_clean_linker_1, # of connection points: 2
#     Edge 13, Type (0, 1), BuildingBlock: FUNLAD_clean_linker_1, # of connection points: 2
#     Edge 14, Type (0, 1), BuildingBlock: FUNLAD_clean_linker_1, # of connection points: 2
#     Edge 15, Type (0, 1), BuildingBlock: FUNLAD_clean_linker_1, # of connection points: 2
#     Edge 16, Type (0, 1), BuildingBlock: FUNLAD_clean_linker_1, # of connection points: 2
#     Edge 17, Type (0, 1), BuildingBlock: FUNLAD_clean_linker_1, # of connection points: 2
# Relax obj value: 0.077
# Max RMSD: 0.142
# Mean RMSD: 0.125
data_MOF--net-tsx--node1-VOLQOD_clean_sbu_1--node2-CUQRIR_clean_linker_1--edge1-FUNLAD_clean_linker_1
_symmetry_space_group_name_H-M    P1
_symmetry_Int_Tables_number       1
_symmetry_cell_setting            triclinic
loop_
_symmetry_equiv_pos_as_xyz
'x, y, z'
_cell_length_a     20.11095
_cell_length_b     20.967286
_cell_length_c     37.251295
_cell_angle_alpha  79.906388
_cell_angle_beta   90.188015
_cell_angle_gamma 89.924127
loop_
_atom_site_label
_atom_site_type_symbol
_atom_site_fract_x
_atom_site_fract_y
_atom_site_fract_z
_atom_type_partial_charge
O0 O 0.09157 0.95547 0.09001 0.0
Zn1 Zn 0.10841 0.98134 0.03647 0.0
O2 O 0.02608 0.00457 0.01027 0.0
Zn3 Zn 0.00589 0.94016 0.98031 0.0
Zn4 Zn 0.95431 0.00636 0.04527 0.0
Zn5 Zn 0.03655 0.08907 0.97887 0.0
O6 O 0.99148 0.98241 0.92847 0.0
O7 O 0.0368 0.08007 0.92538 0.0
O8 O 0.15573 0.90922 0.01839 0.0
O9 O 0.08302 0.87959 0.97945 0.0
O10 O 0.9263 0.88636 0.99866 0.0
O11 O 0.89182 0.93077 0.04525 0.0
O12 O 0.8993 0.08799 0.03088 0.0
O13 O 0.17019 0.05724 0.0308 0.0
O14 O 0.95656 0.14393 0.98479 0.0
O15 O 0.12019 0.13518 0.9918 0.0
C16 C 0.04473 0.9692 0.11022 0.0
C17 C 0.01129 0.03589 0.91011 0.0
C18 C 0.88665 0.88793 0.02502 0.0
C19 C 0.13898 0.8734 0.99565 0.0
C20 C 0.90636 0.13751 0.00591 0.0
C21 C 0.1687 0.11472 0.01291 0.0
O22 O 0.99086 0.99593 0.09687 0.0
O23 O 0.6061 0.49382 0.5965 0.0
Zn24 Zn 0.62097 0.50566 0.54255 0.0
O25 O 0.53673 0.51011 0.51638 0.0
Zn26 Zn 0.52705 0.43125 0.49535 0.0
Zn27 Zn 0.46449 0.51658 0.55045 0.0
Zn28 Zn 0.53583 0.58744 0.47799 0.0
O29 O 0.51434 0.45585 0.44087 0.0
O30 O 0.53922 0.56103 0.42811 0.0
O31 O 0.67959 0.43311 0.53192 0.0
O32 O 0.61147 0.37691 0.50226 0.0
O33 O 0.44918 0.37623 0.51793 0.0
O34 O 0.40768 0.43772 0.55542 0.0
O35 O 0.40298 0.59188 0.53153 0.0
O36 O 0.66959 0.58974 0.52998 0.0
O37 O 0.45025 0.63823 0.4796 0.0
O38 O 0.6114 0.64845 0.48514 0.0
C39 C 0.55628 0.50344 0.6158 0.0
C40 C 0.52508 0.50751 0.41797 0.0
C41 C 0.40659 0.3865 0.54161 0.0
C42 C 0.66808 0.38481 0.51638 0.0
C43 C 0.40316 0.63475 0.50268 0.0
C44 C 0.66025 0.64201 0.50738 0.0
O45 O 0.49917 0.51802 0.60163 0.0
C46 C 0.01889 0.01858 0.43215 0.0
N47 N 0.05017 0.99044 0.40673 0.0
N48 N 0.96644 0.05465 0.4172 0.0
C49 C 0.04163 0.01392 0.47076 0.0
C50 C 0.96762 0.04815 0.38178 0.0
N51 N 0.01878 0.01 0.37533 0.0
C52 C 0.91961 0.08103 0.35332 0.0
H53 H 0.99838 0.01363 0.48916 0.0
H54 H 0.07266 0.0568 0.47291 0.0
H55 H 0.07239 0.97022 0.4794 0.0
H56 H 0.92778 0.13414 0.34917 0.0
H57 H 0.86781 0.07173 0.36296 0.0
H58 H 0.92536 0.06408 0.32692 0.0
C59 C 0.044 0.98046 0.59154 0.0
N60 N 0.06731 0.02056 0.61313 0.0
N61 N 0.98635 0.95309 0.60462 0.0
C62 C 0.07926 0.96706 0.55829 0.0
C63 C 0.97683 0.97594 0.63615 0.0
N64 N 0.02594 0.01848 0.64105 0.0
C65 C 0.92706 0.94723 0.66458 0.0
H66 H 0.09169 0.01366 0.54057 0.0
H67 H 0.04918 0.93644 0.54308 0.0
H68 H 0.12706 0.9424 0.56669 0.0
H69 H 0.91005 0.899 0.6601 0.0
H70 H 0.88322 0.97976 0.66316 0.0
H71 H 0.9488 0.94091 0.69234 0.0
C72 C 0.55839 0.5453 0.93329 0.0
N73 N 0.57314 0.50126 0.91208 0.0
N74 N 0.49562 0.56774 0.92678 0.0
C75 C 0.60608 0.56642 0.96007 0.0
C76 C 0.47356 0.5372 0.89973 0.0
N77 N 0.52076 0.49657 0.89086 0.0
C78 C 0.40952 0.55275 0.8788 0.0
H79 H 0.62372 0.52346 0.97952 0.0
H80 H 0.58356 0.60173 0.97529 0.0
H81 H 0.65029 0.58877 0.94517 0.0
H82 H 0.39106 0.60182 0.88054 0.0
H83 H 0.37132 0.5168 0.89022 0.0
H84 H 0.41583 0.54999 0.84955 0.0
C85 C 0.5024 0.51035 0.08254 0.0
N86 N 0.53113 0.53701 0.10936 0.0
N87 N 0.46563 0.45813 0.09679 0.0
C88 C 0.50643 0.53747 0.04251 0.0
C89 C 0.47182 0.45455 0.13336 0.0
N90 N 0.51087 0.50333 0.14097 0.0
C91 C 0.4385 0.40436 0.1614 0.0
H92 H 0.48914 0.58848 0.03753 0.0
H93 H 0.47665 0.5092 0.02576 0.0
H94 H 0.5586 0.53619 0.03358 0.0
H95 H 0.43146 0.3582 0.15139 0.0
H96 H 0.38875 0.42249 0.16763 0.0
H97 H 0.46813 0.39429 0.18691 0.0
H98 H 0.26453 0.137 0.03634 0.0
C99 C 0.22339 0.15828 0.01927 0.0
H100 H 0.17903 0.24587 0.99343 0.0
H101 H 0.31618 0.37409 0.11905 0.0
H102 H 0.20194 0.36665 0.13947 0.0
H103 H 0.11728 0.31284 0.10719 0.0
H104 H 0.14672 0.26591 0.05434 0.0
C105 C 0.22133 0.2228 0.0087 0.0
C106 C 0.2704 0.26392 0.02407 0.0
C107 C 0.25197 0.29292 0.05421 0.0
C108 C 0.30059 0.32484 0.07244 0.0
C109 C 0.28126 0.35065 0.10354 0.0
C110 C 0.21575 0.34641 0.11573 0.0
C111 C 0.16812 0.31605 0.09759 0.0
C112 C 0.18575 0.2893 0.06728 0.0
H113 H 0.38201 0.45433 0.05983 0.0
C114 C 0.41807 0.42559 0.07744 0.0
H115 H 0.45791 0.33213 0.09411 0.0
H116 H 0.32018 0.21943 0.96494 0.0
H117 H 0.43377 0.23119 0.94251 0.0
H118 H 0.51786 0.28827 0.97343 0.0
H119 H 0.48918 0.33344 0.02711 0.0
C120 C 0.41864 0.36128 0.0793 0.0
C121 C 0.36729 0.32908 0.05988 0.0
C122 C 0.38504 0.30257 0.02876 0.0
C123 C 0.33653 0.26986 0.01085 0.0
C124 C 0.35539 0.24418 0.97969 0.0
C125 C 0.42026 0.25085 0.96649 0.0
C126 C 0.46762 0.28298 0.9839 0.0
C127 C 0.45054 0.30857 0.01471 0.0
H128 H 0.17008 0.79565 0.96662 0.0
C129 C 0.18571 0.82477 0.98659 0.0
H130 H 0.26364 0.84398 0.02166 0.0
H131 H 0.36701 0.55578 0.01476 0.0
H132 H 0.32065 0.53934 0.07603 0.0
H133 H 0.26186 0.6274 0.09839 0.0
H134 H 0.24815 0.73263 0.05985 0.0
C135 C 0.24691 0.81657 0.00114 0.0
C136 C 0.29231 0.768 0.98994 0.0
C137 C 0.3013 0.7075 0.01302 0.0
C138 C 0.33623 0.65709 0.00017 0.0
C139 C 0.3421 0.59617 0.02338 0.0
C140 C 0.3156 0.58596 0.05847 0.0
C141 C 0.28229 0.63559 0.07112 0.0
C142 C 0.27474 0.69567 0.04872 0.0
H143 H 0.49249 0.659 0.94746 0.0
C144 C 0.46349 0.61774 0.94247 0.0
H145 H 0.37045 0.57136 0.94873 0.0
H146 H 0.29083 0.88171 0.94114 0.0
H147 H 0.33719 0.89991 0.88015 0.0
H148 H 0.39526 0.81205 0.85672 0.0
H149 H 0.40782 0.70632 0.89398 0.0
C150 C 0.39869 0.6146 0.95098 0.0
C151 C 0.36417 0.66829 0.96467 0.0
C152 C 0.35696 0.72998 0.94198 0.0
C153 C 0.32162 0.78007 0.95492 0.0
C154 C 0.31576 0.84152 0.93219 0.0
C155 C 0.34238 0.85273 0.89721 0.0
C156 C 0.37521 0.80334 0.88407 0.0
C157 C 0.38243 0.74267 0.90599 0.0
H158 H 0.83302 0.80139 0.01466 0.0
C159 C 0.83494 0.83751 0.03233 0.0
H160 H 0.79425 0.86793 0.07881 0.0
H161 H 0.57101 0.66694 0.02433 0.0
H162 H 0.55598 0.75013 0.97084 0.0
H163 H 0.6252 0.84867 0.9617 0.0
H164 H 0.70994 0.86416 0.00585 0.0
C165 C 0.79175 0.83363 0.0601 0.0
C166 C 0.74362 0.77897 0.06778 0.0
C167 C 0.69324 0.77146 0.04209 0.0
C168 C 0.65248 0.71526 0.0477 0.0
C169 C 0.60331 0.70852 0.02135 0.0
C170 C 0.59405 0.75606 0.99059 0.0
C171 C 0.63306 0.81149 0.98544 0.0
C172 C 0.68194 0.8195 0.01086 0.0
H173 H 0.55641 0.63163 0.12251 0.0
C174 C 0.56901 0.5962 0.10553 0.0
H175 H 0.63772 0.56984 0.06802 0.0
H176 H 0.83085 0.78152 0.12419 0.0
H177 H 0.84178 0.70057 0.179 0.0
H178 H 0.7707 0.6033 0.18875 0.0
H179 H 0.68818 0.58643 0.14374 0.0
C180 C 0.62199 0.60638 0.08349 0.0
C181 C 0.661 0.66743 0.07934 0.0
C182 C 0.70879 0.67665 0.10602 0.0
C183 C 0.74995 0.73266 0.10031 0.0
C184 C 0.79802 0.74012 0.12714 0.0
C185 C 0.80492 0.69394 0.15874 0.0
C186 C 0.76489 0.63919 0.16423 0.0
C187 C 0.71754 0.63021 0.13821 0.0
H188 H 0.8043 0.17238 0.01263 0.0
C189 C 0.85118 0.18463 0.99868 0.0
H190 H 0.90184 0.24987 0.95854 0.0
H191 H 0.66318 0.36011 0.85992 0.0
H192 H 0.72856 0.30628 0.81936 0.0
H193 H 0.82445 0.23759 0.84269 0.0
H194 H 0.85577 0.22276 0.90645 0.0
C195 C 0.85544 0.23844 0.9731 0.0
C196 C 0.79577 0.27808 0.95978 0.0
C197 C 0.7773 0.2849 0.9224 0.0
C198 C 0.72115 0.32322 0.90899 0.0
C199 C 0.70479 0.33072 0.87149 0.0
C200 C 0.74194 0.30017 0.84793 0.0
C201 C 0.79596 0.26158 0.86107 0.0
C202 C 0.81358 0.25375 0.8978 0.0
H203 H 0.67815 0.48079 0.92341 0.0
C204 C 0.63124 0.46051 0.91619 0.0
H205 H 0.57903 0.37408 0.91355 0.0
H206 H 0.82162 0.2832 0.03173 0.0
H207 H 0.75168 0.33168 0.07253 0.0
H208 H 0.64738 0.38758 0.05049 0.0
H209 H 0.61355 0.39673 0.98728 0.0
C210 C 0.62612 0.39613 0.91873 0.0
C211 C 0.6827 0.35336 0.933 0.0
C212 C 0.69952 0.34474 0.97055 0.0
C213 C 0.75745 0.30907 0.98373 0.0
C214 C 0.7762 0.30643 0.02066 0.0
C215 C 0.73679 0.33465 0.04433 0.0
C216 C 0.67825 0.36636 0.0319 0.0
C217 C 0.65964 0.37159 0.99548 0.0
H218 H 0.68907 0.74532 0.49362 0.0
C219 C 0.70211 0.69892 0.51011 0.0
H220 H 0.76157 0.65009 0.55313 0.0
H221 H 0.92117 0.93092 0.51744 0.0
H222 H 0.94543 0.90476 0.45785 0.0
H223 H 0.89647 0.80851 0.43858 0.0
H224 H 0.82112 0.73865 0.47832 0.0
C225 C 0.7502 0.69592 0.53557 0.0
C226 C 0.77969 0.75507 0.54608 0.0
C227 C 0.82523 0.79401 0.52295 0.0
C228 C 0.85616 0.84777 0.53479 0.0
C229 C 0.89885 0.88782 0.51047 0.0
C230 C 0.91281 0.87366 0.47611 0.0
C231 C 0.88491 0.81958 0.46519 0.0
C232 C 0.84158 0.78001 0.48822 0.0
H233 H 0.9749 0.86553 0.58098 0.0
C234 C 0.94862 0.90522 0.58998 0.0
H235 H 0.85636 0.95119 0.59347 0.0
H236 H 0.68991 0.69393 0.5957 0.0
H237 H 0.66461 0.72089 0.65479 0.0
H238 H 0.72007 0.8126 0.67584 0.0
H239 H 0.80102 0.87784 0.63787 0.0
C240 C 0.88256 0.91101 0.58501 0.0
C241 C 0.84359 0.86079 0.57032 0.0
C242 C 0.79549 0.82382 0.59265 0.0
C243 C 0.76375 0.77077 0.58058 0.0
C244 C 0.71623 0.73428 0.60361 0.0
C245 C 0.70098 0.74936 0.63759 0.0
C246 C 0.7322 0.80098 0.64943 0.0
C247 C 0.77886 0.83793 0.62736 0.0
H248 H 0.77184 0.34985 0.52377 0.0
C249 C 0.72336 0.33949 0.51315 0.0
H250 H 0.66946 0.27964 0.48347 0.0
H251 H 0.92168 0.21458 0.39602 0.0
H252 H 0.86995 0.29762 0.35112 0.0
H253 H 0.77474 0.36079 0.36759 0.0
H254 H 0.73051 0.34111 0.42898 0.0
C255 C 0.7169 0.28909 0.49555 0.0
C256 C 0.77589 0.25183 0.48653 0.0
C257 C 0.80015 0.26294 0.45028 0.0
C258 C 0.85439 0.22586 0.44063 0.0
C259 C 0.87918 0.23976 0.40455 0.0
C260 C 0.85032 0.28773 0.37856 0.0
C261 C 0.79671 0.32328 0.38782 0.0
C262 C 0.77178 0.31137 0.4232 0.0
H263 H 0.86641 0.08981 0.42461 0.0
C264 C 0.91774 0.09071 0.43375 0.0
H265 H 0.98542 0.13685 0.46444 0.0
H266 H 0.74328 0.21961 0.55869 0.0
H267 H 0.79769 0.13866 0.60402 0.0
H268 H 0.89199 0.07467 0.5872 0.0
H269 H 0.93232 0.09072 0.52488 0.0
C270 C 0.93438 0.1324 0.45583 0.0
C271 C 0.8832 0.17643 0.46703 0.0
C272 C 0.86108 0.16728 0.50363 0.0
C273 C 0.80706 0.20479 0.5134 0.0
C274 C 0.78465 0.19317 0.54993 0.0
C275 C 0.8153 0.14672 0.57616 0.0
C276 C 0.86837 0.11057 0.56669 0.0
C277 C 0.89103 0.12029 0.53085 0.0
H278 H 0.31868 0.35192 0.57392 0.0
C279 C 0.35449 0.33879 0.55461 0.0
H280 H 0.38393 0.26607 0.5251 0.0
H281 H 0.1953 0.12223 0.66428 0.0
H282 H 0.28842 0.14167 0.70261 0.0
H283 H 0.38688 0.20223 0.67607 0.0
H284 H 0.39262 0.2441 0.61115 0.0
C285 C 0.35005 0.28023 0.54497 0.0
C286 C 0.29587 0.23521 0.56024 0.0
C287 C 0.29425 0.20949 0.59815 0.0
C288 C 0.23832 0.17316 0.61335 0.0
C289 C 0.23706 0.14942 0.65134 0.0
C290 C 0.29012 0.16027 0.67362 0.0
C291 C 0.34548 0.19449 0.65869 0.0
C292 C 0.3479 0.21874 0.62141 0.0
H293 H 0.17112 0.03502 0.59712 0.0
C294 C 0.12759 0.05757 0.60686 0.0
H295 H 0.08274 0.14601 0.61276 0.0
H296 H 0.28547 0.27338 0.4863 0.0
H297 H 0.19432 0.24986 0.4478 0.0
H298 H 0.098 0.18565 0.4741 0.0
H299 H 0.09193 0.14473 0.5391 0.0
C300 C 0.1275 0.12161 0.60606 0.0
C301 C 0.18511 0.16112 0.59053 0.0
C302 C 0.18777 0.18463 0.55247 0.0
C303 C 0.24338 0.22153 0.53729 0.0
C304 C 0.24451 0.24492 0.49925 0.0
C305 C 0.19253 0.23176 0.47684 0.0
C306 C 0.13828 0.19558 0.49165 0.0
C307 C 0.13553 0.17229 0.529 0.0
H308 H 0.29794 0.661 0.50781 0.0
C309 C 0.34453 0.6777 0.49475 0.0
H310 H 0.3934 0.75159 0.45908 0.0
H311 H 0.14845 0.87262 0.36667 0.0
H312 H 0.22195 0.84309 0.32098 0.0
H313 H 0.32476 0.78128 0.33887 0.0
H314 H 0.35453 0.749 0.40237 0.0
C315 C 0.34662 0.73528 0.47202 0.0
C316 C 0.28549 0.77565 0.46153 0.0
C317 C 0.26898 0.79497 0.42403 0.0
C318 C 0.20986 0.83136 0.41359 0.0
C319 C 0.19376 0.84753 0.37607 0.0
C320 C 0.2352 0.8301 0.34953 0.0
C321 C 0.29299 0.79523 0.3596 0.0
C322 C 0.30967 0.77732 0.39631 0.0
H323 H 0.156 0.97059 0.40102 0.0
C324 C 0.10897 0.95033 0.41178 0.0
H325 H 0.05818 0.87033 0.44056 0.0
H326 H 0.30766 0.76035 0.53541 0.0
H327 H 0.2286 0.77995 0.58109 0.0
H328 H 0.11835 0.82659 0.56327 0.0
H329 H 0.08882 0.85901 0.4997 0.0
C330 C 0.10602 0.88912 0.43026 0.0
C331 C 0.16677 0.84832 0.44058 0.0
C332 C 0.18166 0.82629 0.47802 0.0
C333 C 0.24265 0.79338 0.48846 0.0
C334 C 0.25973 0.77993 0.52597 0.0
C335 C 0.21521 0.79195 0.55253 0.0
C336 C 0.15344 0.81888 0.54248 0.0
C337 C 0.13711 0.83716 0.50576 0.0
H338 H 0.09624 0.92208 0.16016 0.0
C339 C 0.05447 0.95311 0.14998 0.0
H340 H 0.97318 0.00737 0.1639 0.0
H341 H 0.93143 0.8777 0.32566 0.0
H342 H 0.83276 0.84306 0.29703 0.0
H343 H 0.82238 0.85963 0.23003 0.0
H344 H 0.91028 0.91195 0.19129 0.0
C345 C 0.01578 0.97722 0.17365 0.0
C346 C 0.02673 0.96031 0.21377 0.0
C347 C 0.97584 0.92767 0.23603 0.0
C348 C 0.98247 0.91681 0.27465 0.0
C349 C 0.92954 0.88663 0.29621 0.0
C350 C 0.87253 0.86637 0.28011 0.0
C351 C 0.86664 0.87576 0.2424 0.0
C352 C 0.91746 0.90605 0.22049 0.0
H353 H 0.04496 0.04361 0.31889 0.0
C354 C 0.04024 0.00082 0.33996 0.0
H355 H 0.02913 0.89972 0.35066 0.0
H356 H 0.13386 0.02708 0.17977 0.0
H357 H 0.23636 0.05208 0.20845 0.0
H358 H 0.252 0.02201 0.27501 0.0
H359 H 0.16378 0.96833 0.3133 0.0
C360 C 0.04 0.94221 0.33036 0.0
C361 C 0.04045 0.93784 0.29087 0.0
C362 C 0.09391 0.96476 0.26858 0.0
C363 C 0.08629 0.97835 0.23004 0.0
C364 C 0.13806 0.01179 0.20891 0.0
C365 C 0.19711 0.02715 0.22511 0.0
C366 C 0.20582 0.01051 0.26258 0.0
C367 C 0.15482 0.98002 0.28423 0.0
H368 H 0.98173 0.00502 0.85922 0.0
C369 C 0.00683 0.04343 0.87017 0.0
H370 H 0.06113 0.13089 0.85677 0.0
H371 H 0.05918 0.94875 0.72468 0.0
H372 H 0.13007 0.87678 0.76556 0.0
H373 H 0.16372 0.90324 0.82497 0.0
H374 H 0.12355 0.00113 0.84419 0.0
C375 C 0.03628 0.09126 0.84696 0.0
C376 C 0.03602 0.0889 0.80719 0.0
C377 C 0.06551 0.03539 0.7947 0.0
C378 C 0.05122 0.02349 0.75909 0.0
C379 C 0.07309 0.96408 0.74982 0.0
C380 C 0.11318 0.92141 0.77341 0.0
C381 C 0.13175 0.93604 0.80693 0.0
C382 C 0.10803 0.99212 0.81768 0.0
H383 H 0.09445 0.04858 0.68041 0.0
C384 C 0.04228 0.04385 0.67366 0.0
H385 H 0.944 0.05862 0.68965 0.0
H386 H 0.97835 0.19965 0.82156 0.0
H387 H 0.91649 0.2789 0.77881 0.0
H388 H 0.90095 0.26473 0.71494 0.0
H389 H 0.94592 0.17068 0.69358 0.0
C390 C 0.99613 0.05714 0.69728 0.0
C391 C 0.01378 0.06964 0.7344 0.0
C392 C 0.98951 0.12634 0.74601 0.0
C393 C 0.99986 0.13547 0.78261 0.0
C394 C 0.97242 0.19083 0.79397 0.0
C395 C 0.93696 0.23671 0.7697 0.0
C396 C 0.92814 0.22868 0.73375 0.0
C397 C 0.95401 0.17431 0.72188 0.0
H398 H 0.61774 0.49566 0.66544 0.0
C399 C 0.56678 0.49825 0.6554 0.0
H400 H 0.46525 0.49566 0.67032 0.0
H401 H 0.55348 0.35891 0.832 0.0
H402 H 0.5247 0.26283 0.80733 0.0
H403 H 0.49754 0.2703 0.74207 0.0
H404 H 0.49965 0.37396 0.70099 0.0
C405 C 0.5167 0.49552 0.67931 0.0
C406 C 0.53081 0.4913 0.71888 0.0
C407 C 0.52806 0.43068 0.74265 0.0
C408 C 0.5428 0.42651 0.7804 0.0
C409 C 0.54163 0.36502 0.80327 0.0
C410 C 0.5254 0.30944 0.78943 0.0
C411 C 0.51018 0.31364 0.75267 0.0
C412 C 0.51152 0.3734 0.72941 0.0
H413 H 0.47342 0.45255 0.84854 0.0
C414 C 0.52042 0.4695 0.85785 0.0
H415 H 0.6162 0.50274 0.84223 0.0
H416 H 0.53967 0.61501 0.68065 0.0
H417 H 0.56775 0.71136 0.70508 0.0
H418 H 0.59094 0.705 0.77066 0.0
H419 H 0.5866 0.60255 0.81209 0.0
C420 C 0.57087 0.48101 0.83409 0.0
C421 C 0.55912 0.48328 0.79437 0.0
C422 C 0.56186 0.54403 0.77047 0.0
C423 C 0.54788 0.54793 0.7327 0.0
C424 C 0.55032 0.60918 0.70953 0.0
C425 C 0.56613 0.66499 0.7232 0.0
C426 C 0.57921 0.66139 0.7601 0.0
C427 C 0.57687 0.60195 0.7836 0.0
H428 H 0.50145 0.45927 0.37157 0.0
C429 C 0.52037 0.50391 0.37882 0.0
H430 H 0.55725 0.59766 0.35882 0.0
H431 H 0.56875 0.41894 0.22481 0.0
H432 H 0.64876 0.35216 0.26283 0.0
H433 H 0.67951 0.3756 0.32328 0.0
H434 H 0.62904 0.46535 0.34638 0.0
C435 C 0.53924 0.55229 0.35216 0.0
C436 C 0.53165 0.54646 0.31296 0.0
C437 C 0.56519 0.49669 0.29877 0.0
C438 C 0.55049 0.4857 0.26294 0.0
C439 C 0.58032 0.43193 0.25091 0.0
C440 C 0.62614 0.39271 0.27262 0.0
C441 C 0.64327 0.40575 0.30672 0.0
C442 C 0.6134 0.45707 0.31977 0.0
H443 H 0.58073 0.53254 0.18015 0.0
C444 C 0.53001 0.51724 0.17622 0.0
H445 H 0.43415 0.50566 0.19883 0.0
H446 H 0.46254 0.64935 0.3306 0.0
H447 H 0.38884 0.7216 0.29091 0.0
H448 H 0.36888 0.70696 0.2275 0.0
H449 H 0.42201 0.61948 0.20349 0.0
C450 C 0.48632 0.51432 0.20367 0.0
C451 C 0.50558 0.52736 0.24041 0.0
C452 C 0.47551 0.57974 0.2538 0.0
C453 C 0.48815 0.58903 0.29016 0.0
C454 C 0.4556 0.6405 0.30309 0.0
C455 C 0.41304 0.68237 0.2806 0.0
C456 C 0.40173 0.67407 0.24492 0.0
C457 C 0.43239 0.62347 0.23153 0.0
loop_
_geom_bond_atom_site_label_1
_geom_bond_atom_site_label_2
_geom_bond_distance
_geom_bond_site_symmetry_2
_ccdc_geom_bond_type
O0 Zn1 1.953 . S
O0 C16 1.225 . S
Zn1 O0 1.953 . S
Zn1 O2 1.949 1_565 S
Zn1 O8 1.919 . S
Zn1 O13 1.924 1_565 S
O2 Zn1 1.949 1_545 S
O2 Zn3 1.923 1_544 S
O2 Zn4 1.950 1_455 S
O2 Zn5 1.945 1_554 S
Zn3 O2 1.923 1_566 S
Zn3 O6 1.933 . S
Zn3 O9 1.941 . S
Zn3 O10 1.961 1_456 S
Zn4 O2 1.950 1_655 S
Zn4 O11 1.938 1_545 S
Zn4 O12 1.906 . S
Zn4 O22 1.953 . S
Zn5 O2 1.945 1_556 S
Zn5 O7 1.932 . S
Zn5 O14 1.977 1_455 S
Zn5 O15 1.910 . S
O6 Zn3 1.933 . S
O6 C17 1.226 1_565 S
O7 Zn5 1.932 . S
O7 C17 1.307 . S
O8 Zn1 1.919 . S
O8 C19 1.253 . S
O9 Zn3 1.941 . S
O9 C19 1.283 1_556 S
O10 Zn3 1.961 1_654 S
O10 C18 1.322 . S
O11 Zn4 1.938 1_565 S
O11 C18 1.247 . S
O12 Zn4 1.906 . S
O12 C20 1.304 1_554 S
O13 Zn1 1.924 1_545 S
O13 C21 1.311 . S
O14 Zn5 1.977 1_655 S
O14 C20 1.272 . S
O15 Zn5 1.910 . S
O15 C21 1.231 1_556 S
C16 O0 1.225 . S
C16 O22 1.298 1_465 S
C17 O6 1.226 1_545 S
C17 O7 1.307 . S
C18 O10 1.322 . S
C18 O11 1.247 . S
C19 O8 1.253 . S
C19 O9 1.283 1_554 S
C20 O12 1.304 1_556 S
C20 O14 1.272 . S
C21 O13 1.311 . S
C21 O15 1.231 1_554 S
O22 Zn4 1.953 . S
O22 C16 1.298 1_645 S
O23 Zn24 1.953 . S
O23 C39 1.225 . S
Zn24 O23 1.953 . S
Zn24 O25 1.949 . S
Zn24 O31 1.919 . S
Zn24 O36 1.924 . S
O25 Zn24 1.949 . S
O25 Zn26 1.923 . S
O25 Zn27 1.950 . S
O25 Zn28 1.945 . S
Zn26 O25 1.923 . S
Zn26 O29 1.933 . S
Zn26 O32 1.941 . S
Zn26 O33 1.965 . S
Zn27 O25 1.950 . S
Zn27 O34 1.938 . S
Zn27 O35 1.906 . S
Zn27 O45 1.953 . S
Zn28 O25 1.945 . S
Zn28 O30 1.932 . S
Zn28 O37 1.977 . S
Zn28 O38 1.910 . S
O29 Zn26 1.933 . S
O29 C40 1.226 . S
O30 Zn28 1.932 . S
O30 C40 1.307 . S
O31 Zn24 1.919 . S
O31 C42 1.253 . S
O32 Zn26 1.941 . S
O32 C42 1.283 . S
O33 Zn26 1.965 . S
O33 C41 1.303 . S
O34 Zn27 1.938 . S
O34 C41 1.247 . S
O35 Zn27 1.906 . S
O35 C43 1.304 . S
O36 Zn24 1.924 . S
O36 C44 1.311 . S
O37 Zn28 1.977 . S
O37 C43 1.272 . S
O38 Zn28 1.910 . S
O38 C44 1.231 . S
C39 O23 1.225 . S
C39 O45 1.298 . S
C40 O29 1.226 . S
C40 O30 1.307 . S
C41 O33 1.303 . S
C41 O34 1.247 . S
C42 O31 1.253 . S
C42 O32 1.283 . S
C43 O35 1.304 . S
C43 O37 1.272 . S
C44 O36 1.311 . S
C44 O38 1.231 . S
O45 Zn27 1.953 . S
O45 C39 1.298 . S
C46 N47 1.317 1_545 S
C46 N48 1.348 1_455 S
C46 C49 1.485 1_545 S
N47 C46 1.317 1_565 S
N47 N51 1.370 1_565 S
N48 C46 1.348 1_655 S
N48 C50 1.346 . S
C49 C46 1.485 1_565 S
C49 H53 0.960 1_455 S
C49 H54 0.961 1_565 S
C49 H55 0.960 . S
C50 N48 1.346 . S
C50 N51 1.307 1_655 S
C50 C52 1.486 . S
N51 N47 1.370 1_545 S
N51 C50 1.307 1_455 S
C52 C50 1.486 . S
C52 H56 0.960 . S
C52 H57 0.960 . S
C52 H58 0.959 . S
H53 C49 0.960 1_655 S
H54 C49 0.961 1_545 S
H55 C49 0.960 . S
H56 C52 0.960 . S
H57 C52 0.960 . S
H58 C52 0.959 . S
C59 N60 1.317 . S
C59 N61 1.348 1_445 S
C59 C62 1.485 . S
N60 C59 1.317 . S
N60 N64 1.370 . S
N61 C59 1.348 1_665 S
N61 C63 1.346 . S
C62 C59 1.485 . S
C62 H66 0.960 . S
C62 H67 0.961 1_545 S
C62 H68 0.960 . S
C63 N61 1.346 . S
C63 N64 1.307 1_665 S
C63 C65 1.486 . S
N64 N60 1.370 . S
N64 C63 1.307 1_445 S
C65 C63 1.486 . S
C65 H69 0.960 . S
C65 H70 0.960 . S
C65 H71 0.959 . S
H66 C62 0.960 . S
H67 C62 0.961 1_565 S
H68 C62 0.960 . S
H69 C65 0.960 . S
H70 C65 0.960 . S
H71 C65 0.959 . S
C72 N73 1.317 . S
C72 N74 1.348 . S
C72 C75 1.485 . S
N73 C72 1.317 . S
N73 N77 1.370 . S
N74 C72 1.348 . S
N74 C76 1.346 . S
C75 C72 1.485 . S
C75 H79 0.949 1_556 S
C75 H80 0.961 . S
C75 H81 0.960 . S
C76 N74 1.346 . S
C76 N77 1.307 . S
C76 C78 1.486 . S
N77 N73 1.370 . S
N77 C76 1.307 . S
C78 C76 1.486 . S
C78 H82 0.960 . S
C78 H83 0.960 . S
C78 H84 0.959 . S
H79 C75 0.949 1_554 S
H80 C75 0.961 . S
H81 C75 0.960 . S
H82 C78 0.960 . S
H83 C78 0.960 . S
H84 C78 0.959 . S
C85 N86 1.317 . S
C85 N87 1.348 . S
C85 C88 1.485 . S
N86 C85 1.317 . S
N86 N90 1.370 . S
N87 C85 1.348 . S
N87 C89 1.346 . S
C88 C85 1.485 . S
C88 H92 0.960 . S
C88 H93 0.961 . S
C88 H94 0.960 . S
C89 N87 1.346 . S
C89 N90 1.307 . S
C89 C91 1.486 . S
N90 N86 1.370 . S
N90 C89 1.307 . S
C91 C89 1.486 . S
C91 H95 0.960 . S
C91 H96 0.960 . S
C91 H97 0.959 . S
H92 C88 0.960 . S
H93 C88 0.961 . S
H94 C88 0.960 . S
H95 C91 0.960 . S
H96 C91 0.960 . S
H97 C91 0.959 . S
H98 C99 0.951 . S
C99 H98 0.951 . S
C99 C105 1.265 . S
H100 C105 0.950 . S
H101 C109 0.949 . S
H102 C110 0.950 . S
H103 C111 0.951 . S
H104 C112 0.951 . S
C105 C99 1.265 . S
C105 H100 0.950 . S
C105 C106 1.478 . S
C106 C105 1.478 . S
C106 C107 1.397 . S
C106 C123 1.394 . S
C107 C106 1.397 . S
C107 C108 1.438 . S
C107 C112 1.429 . S
C108 C107 1.438 . S
C108 C109 1.428 . S
C108 C121 1.394 . S
C109 H101 0.949 . S
C109 C108 1.428 . S
C109 C110 1.345 . S
C110 H102 0.950 . S
C110 C109 1.345 . S
C110 C111 1.424 . S
C111 H103 0.951 . S
C111 C110 1.424 . S
C111 C112 1.347 . S
C112 H104 0.951 . S
C112 C107 1.429 . S
C112 C111 1.347 . S
H113 C114 0.951 . S
C114 H113 0.951 . S
C114 C120 1.265 . S
H115 C120 0.950 . S
H116 C124 0.949 . S
H117 C125 0.950 . S
H118 C126 0.951 . S
H119 C127 0.951 . S
C120 C114 1.265 . S
C120 H115 0.950 . S
C120 C121 1.478 . S
C121 C108 1.394 . S
C121 C120 1.478 . S
C121 C122 1.397 . S
C122 C121 1.397 . S
C122 C123 1.438 . S
C122 C127 1.429 . S
C123 C106 1.394 . S
C123 C122 1.438 . S
C123 C124 1.428 1_554 S
C124 H116 0.949 . S
C124 C123 1.428 1_556 S
C124 C125 1.345 . S
C125 H117 0.950 . S
C125 C124 1.345 . S
C125 C126 1.424 . S
C126 H118 0.951 . S
C126 C125 1.424 . S
C126 C127 1.347 1_556 S
C127 H119 0.951 . S
C127 C122 1.429 . S
C127 C126 1.347 1_554 S
H128 C129 0.951 . S
C129 H128 0.951 . S
C129 C135 1.265 . S
H130 C135 0.950 1_554 S
H131 C139 0.949 . S
H132 C140 0.950 . S
H133 C141 0.951 . S
H134 C142 0.951 . S
C135 C129 1.265 . S
C135 H130 0.950 1_556 S
C135 C136 1.478 . S
C136 C135 1.478 . S
C136 C137 1.397 1_556 S
C136 C153 1.394 . S
C137 C136 1.397 1_554 S
C137 C138 1.438 1_554 S
C137 C142 1.429 . S
C138 C137 1.438 1_556 S
C138 C139 1.428 1_556 S
C138 C151 1.394 . S
C139 H131 0.949 . S
C139 C138 1.428 1_554 S
C139 C140 1.345 . S
C140 H132 0.950 . S
C140 C139 1.345 . S
C140 C141 1.424 . S
C141 H133 0.951 . S
C141 C140 1.424 . S
C141 C142 1.347 . S
C142 H134 0.951 . S
C142 C137 1.429 . S
C142 C141 1.347 . S
H143 C144 0.951 . S
C144 H143 0.951 . S
C144 C150 1.265 . S
H145 C150 0.950 . S
H146 C154 0.949 . S
H147 C155 0.950 . S
H148 C156 0.951 . S
H149 C157 0.951 . S
C150 C144 1.265 . S
C150 H145 0.950 . S
C150 C151 1.478 . S
C151 C138 1.394 . S
C151 C150 1.478 . S
C151 C152 1.397 . S
C152 C151 1.397 . S
C152 C153 1.438 . S
C152 C157 1.429 . S
C153 C136 1.394 . S
C153 C152 1.438 . S
C153 C154 1.428 . S
C154 H146 0.949 . S
C154 C153 1.428 . S
C154 C155 1.345 . S
C155 H147 0.950 . S
C155 C154 1.345 . S
C155 C156 1.424 . S
C156 H148 0.951 . S
C156 C155 1.424 . S
C156 C157 1.347 . S
C157 H149 0.951 . S
C157 C152 1.429 . S
C157 C156 1.347 . S
H158 C159 0.951 . S
C159 H158 0.951 . S
C159 C165 1.265 . S
H160 C165 0.950 . S
H161 C169 0.949 . S
H162 C170 0.950 . S
H163 C171 0.951 . S
H164 C172 0.951 . S
C165 C159 1.265 . S
C165 H160 0.950 . S
C165 C166 1.478 . S
C166 C165 1.478 . S
C166 C167 1.397 . S
C166 C183 1.394 . S
C167 C166 1.397 . S
C167 C168 1.438 . S
C167 C172 1.429 1_554 S
C168 C167 1.438 . S
C168 C169 1.428 . S
C168 C181 1.394 . S
C169 H161 0.949 . S
C169 C168 1.428 . S
C169 C170 1.345 1_554 S
C170 H162 0.950 . S
C170 C169 1.345 1_556 S
C170 C171 1.424 . S
C171 H163 0.951 . S
C171 C170 1.424 . S
C171 C172 1.347 . S
C172 H164 0.951 . S
C172 C167 1.429 1_556 S
C172 C171 1.347 . S
H173 C174 0.951 . S
C174 H173 0.951 . S
C174 C180 1.265 . S
H175 C180 0.950 . S
H176 C184 0.949 . S
H177 C185 0.950 . S
H178 C186 0.951 . S
H179 C187 0.951 . S
C180 C174 1.265 . S
C180 H175 0.950 . S
C180 C181 1.478 . S
C181 C168 1.394 . S
C181 C180 1.478 . S
C181 C182 1.397 . S
C182 C181 1.397 . S
C182 C183 1.438 . S
C182 C187 1.429 . S
C183 C166 1.394 . S
C183 C182 1.438 . S
C183 C184 1.428 . S
C184 H176 0.949 . S
C184 C183 1.428 . S
C184 C185 1.345 . S
C185 H177 0.950 . S
C185 C184 1.345 . S
C185 C186 1.424 . S
C186 H178 0.951 . S
C186 C185 1.424 . S
C186 C187 1.347 . S
C187 H179 0.951 . S
C187 C182 1.429 . S
C187 C186 1.347 . S
H188 C189 0.951 . S
C189 H188 0.951 . S
C189 C195 1.265 . S
H190 C195 0.950 . S
H191 C199 0.949 . S
H192 C200 0.950 . S
H193 C201 0.951 . S
H194 C202 0.951 . S
C195 C189 1.265 . S
C195 H190 0.950 . S
C195 C196 1.478 . S
C196 C195 1.478 . S
C196 C197 1.397 . S
C196 C213 1.394 . S
C197 C196 1.397 . S
C197 C198 1.438 . S
C197 C202 1.429 . S
C198 C197 1.438 . S
C198 C199 1.428 . S
C198 C211 1.394 . S
C199 H191 0.949 . S
C199 C198 1.428 . S
C199 C200 1.345 . S
C200 H192 0.950 . S
C200 C199 1.345 . S
C200 C201 1.424 . S
C201 H193 0.951 . S
C201 C200 1.424 . S
C201 C202 1.347 . S
C202 H194 0.951 . S
C202 C197 1.429 . S
C202 C201 1.347 . S
H203 C204 0.951 . S
C204 H203 0.951 . S
C204 C210 1.265 . S
H205 C210 0.950 . S
H206 C214 0.949 . S
H207 C215 0.950 . S
H208 C216 0.951 . S
H209 C217 0.951 . S
C210 C204 1.265 . S
C210 H205 0.950 . S
C210 C211 1.478 . S
C211 C198 1.394 . S
C211 C210 1.478 . S
C211 C212 1.397 . S
C212 C211 1.397 . S
C212 C213 1.438 . S
C212 C217 1.429 1_556 S
C213 C196 1.394 . S
C213 C212 1.438 . S
C213 C214 1.428 1_556 S
C214 H206 0.949 . S
C214 C213 1.428 1_554 S
C214 C215 1.345 . S
C215 H207 0.950 . S
C215 C214 1.345 . S
C215 C216 1.424 . S
C216 H208 0.951 . S
C216 C215 1.424 . S
C216 C217 1.347 . S
C217 H209 0.951 . S
C217 C212 1.429 1_554 S
C217 C216 1.347 . S
H218 C219 0.951 . S
C219 H218 0.951 . S
C219 C225 1.265 . S
H220 C225 0.950 . S
H221 C229 0.949 . S
H222 C230 0.950 . S
H223 C231 0.951 . S
H224 C232 0.951 . S
C225 C219 1.265 . S
C225 H220 0.950 . S
C225 C226 1.478 . S
C226 C225 1.478 . S
C226 C227 1.397 . S
C226 C243 1.394 . S
C227 C226 1.397 . S
C227 C228 1.438 . S
C227 C232 1.429 . S
C228 C227 1.438 . S
C228 C229 1.428 . S
C228 C241 1.394 . S
C229 H221 0.949 . S
C229 C228 1.428 . S
C229 C230 1.345 . S
C230 H222 0.950 . S
C230 C229 1.345 . S
C230 C231 1.424 . S
C231 H223 0.951 . S
C231 C230 1.424 . S
C231 C232 1.347 . S
C232 H224 0.951 . S
C232 C227 1.429 . S
C232 C231 1.347 . S
H233 C234 0.951 . S
C234 H233 0.951 . S
C234 C240 1.265 . S
H235 C240 0.950 . S
H236 C244 0.949 . S
H237 C245 0.950 . S
H238 C246 0.951 . S
H239 C247 0.951 . S
C240 C234 1.265 . S
C240 H235 0.950 . S
C240 C241 1.478 . S
C241 C228 1.394 . S
C241 C240 1.478 . S
C241 C242 1.397 . S
C242 C241 1.397 . S
C242 C243 1.438 . S
C242 C247 1.429 . S
C243 C226 1.394 . S
C243 C242 1.438 . S
C243 C244 1.428 . S
C244 H236 0.949 . S
C244 C243 1.428 . S
C244 C245 1.345 . S
C245 H237 0.950 . S
C245 C244 1.345 . S
C245 C246 1.424 . S
C246 H238 0.951 . S
C246 C245 1.424 . S
C246 C247 1.347 . S
C247 H239 0.951 . S
C247 C242 1.429 . S
C247 C246 1.347 . S
H248 C249 0.951 . S
C249 H248 0.951 . S
C249 C255 1.265 . S
H250 C255 0.950 . S
H251 C259 0.949 . S
H252 C260 0.950 . S
H253 C261 0.951 . S
H254 C262 0.951 . S
C255 C249 1.265 . S
C255 H250 0.950 . S
C255 C256 1.478 . S
C256 C255 1.478 . S
C256 C257 1.397 . S
C256 C273 1.394 . S
C257 C256 1.397 . S
C257 C258 1.438 . S
C257 C262 1.429 . S
C258 C257 1.438 . S
C258 C259 1.428 . S
C258 C271 1.394 . S
C259 H251 0.949 . S
C259 C258 1.428 . S
C259 C260 1.345 . S
C260 H252 0.950 . S
C260 C259 1.345 . S
C260 C261 1.424 . S
C261 H253 0.951 . S
C261 C260 1.424 . S
C261 C262 1.347 . S
C262 H254 0.951 . S
C262 C257 1.429 . S
C262 C261 1.347 . S
H263 C264 0.951 . S
C264 H263 0.951 . S
C264 C270 1.265 . S
H265 C270 0.950 . S
H266 C274 0.949 . S
H267 C275 0.950 . S
H268 C276 0.951 . S
H269 C277 0.951 . S
C270 C264 1.265 . S
C270 H265 0.950 . S
C270 C271 1.478 . S
C271 C258 1.394 . S
C271 C270 1.478 . S
C271 C272 1.397 . S
C272 C271 1.397 . S
C272 C273 1.438 . S
C272 C277 1.429 . S
C273 C256 1.394 . S
C273 C272 1.438 . S
C273 C274 1.428 . S
C274 H266 0.949 . S
C274 C273 1.428 . S
C274 C275 1.345 . S
C275 H267 0.950 . S
C275 C274 1.345 . S
C275 C276 1.424 . S
C276 H268 0.951 . S
C276 C275 1.424 . S
C276 C277 1.347 . S
C277 H269 0.951 . S
C277 C272 1.429 . S
C277 C276 1.347 . S
H278 C279 0.951 . S
C279 H278 0.951 . S
C279 C285 1.265 . S
H280 C285 0.950 . S
H281 C289 0.949 . S
H282 C290 0.950 . S
H283 C291 0.951 . S
H284 C292 0.951 . S
C285 C279 1.265 . S
C285 H280 0.950 . S
C285 C286 1.478 . S
C286 C285 1.478 . S
C286 C287 1.397 . S
C286 C303 1.394 . S
C287 C286 1.397 . S
C287 C288 1.438 . S
C287 C292 1.429 . S
C288 C287 1.438 . S
C288 C289 1.428 . S
C288 C301 1.394 . S
C289 H281 0.949 . S
C289 C288 1.428 . S
C289 C290 1.345 . S
C290 H282 0.950 . S
C290 C289 1.345 . S
C290 C291 1.424 . S
C291 H283 0.951 . S
C291 C290 1.424 . S
C291 C292 1.347 . S
C292 H284 0.951 . S
C292 C287 1.429 . S
C292 C291 1.347 . S
H293 C294 0.951 . S
C294 H293 0.951 . S
C294 C300 1.265 . S
H295 C300 0.950 . S
H296 C304 0.949 . S
H297 C305 0.950 . S
H298 C306 0.951 . S
H299 C307 0.951 . S
C300 C294 1.265 . S
C300 H295 0.950 . S
C300 C301 1.478 . S
C301 C288 1.394 . S
C301 C300 1.478 . S
C301 C302 1.397 . S
C302 C301 1.397 . S
C302 C303 1.438 . S
C302 C307 1.429 . S
C303 C286 1.394 . S
C303 C302 1.438 . S
C303 C304 1.428 . S
C304 H296 0.949 . S
C304 C303 1.428 . S
C304 C305 1.345 . S
C305 H297 0.950 . S
C305 C304 1.345 . S
C305 C306 1.424 . S
C306 H298 0.951 . S
C306 C305 1.424 . S
C306 C307 1.347 . S
C307 H299 0.951 . S
C307 C302 1.429 . S
C307 C306 1.347 . S
H308 C309 0.951 . S
C309 H308 0.951 . S
C309 C315 1.265 . S
H310 C315 0.950 . S
H311 C319 0.949 . S
H312 C320 0.950 . S
H313 C321 0.951 . S
H314 C322 0.951 . S
C315 C309 1.265 . S
C315 H310 0.950 . S
C315 C316 1.478 . S
C316 C315 1.478 . S
C316 C317 1.397 . S
C316 C333 1.394 . S
C317 C316 1.397 . S
C317 C318 1.438 . S
C317 C322 1.429 . S
C318 C317 1.438 . S
C318 C319 1.428 . S
C318 C331 1.394 . S
C319 H311 0.949 . S
C319 C318 1.428 . S
C319 C320 1.345 . S
C320 H312 0.950 . S
C320 C319 1.345 . S
C320 C321 1.424 . S
C321 H313 0.951 . S
C321 C320 1.424 . S
C321 C322 1.347 . S
C322 H314 0.951 . S
C322 C317 1.429 . S
C322 C321 1.347 . S
H323 C324 0.951 . S
C324 H323 0.951 . S
C324 C330 1.265 . S
H325 C330 0.950 . S
H326 C334 0.949 . S
H327 C335 0.950 . S
H328 C336 0.951 . S
H329 C337 0.951 . S
C330 C324 1.265 . S
C330 H325 0.950 . S
C330 C331 1.478 . S
C331 C318 1.394 . S
C331 C330 1.478 . S
C331 C332 1.397 . S
C332 C331 1.397 . S
C332 C333 1.438 . S
C332 C337 1.429 . S
C333 C316 1.394 . S
C333 C332 1.438 . S
C333 C334 1.428 . S
C334 H326 0.949 . S
C334 C333 1.428 . S
C334 C335 1.345 . S
C335 H327 0.950 . S
C335 C334 1.345 . S
C335 C336 1.424 . S
C336 H328 0.951 . S
C336 C335 1.424 . S
C336 C337 1.347 . S
C337 H329 0.951 . S
C337 C332 1.429 . S
C337 C336 1.347 . S
H338 C339 0.951 . S
C339 H338 0.951 . S
C339 C345 1.265 1_565 S
H340 C345 0.950 . S
H341 C349 0.949 1_565 S
H342 C350 0.950 . S
H343 C351 0.951 . S
H344 C352 0.951 . S
C345 C339 1.265 1_545 S
C345 H340 0.950 . S
C345 C346 1.478 . S
C346 C345 1.478 . S
C346 C347 1.397 1_455 S
C346 C363 1.394 1_545 S
C347 C346 1.397 1_655 S
C347 C348 1.438 . S
C347 C352 1.429 . S
C348 C347 1.438 . S
C348 C349 1.428 . S
C348 C361 1.394 1_645 S
C349 H341 0.949 1_545 S
C349 C348 1.428 . S
C349 C350 1.345 . S
C350 H342 0.950 . S
C350 C349 1.345 . S
C350 C351 1.424 . S
C351 H343 0.951 . S
C351 C350 1.424 . S
C351 C352 1.347 . S
C352 H344 0.951 . S
C352 C347 1.429 . S
C352 C351 1.347 . S
H353 C354 0.951 . S
C354 H353 0.951 . S
C354 C360 1.265 1_545 S
H355 C360 0.950 . S
H356 C364 0.949 . S
H357 C365 0.950 . S
H358 C366 0.951 . S
H359 C367 0.951 . S
C360 C354 1.265 1_565 S
C360 H355 0.950 . S
C360 C361 1.478 . S
C361 C348 1.394 1_465 S
C361 C360 1.478 . S
C361 C362 1.397 . S
C362 C361 1.397 . S
C362 C363 1.438 . S
C362 C367 1.429 . S
C363 C346 1.394 1_565 S
C363 C362 1.438 . S
C363 C364 1.428 . S
C364 H356 0.949 . S
C364 C363 1.428 . S
C364 C365 1.345 . S
C365 H357 0.950 . S
C365 C364 1.345 . S
C365 C366 1.424 . S
C366 H358 0.951 . S
C366 C365 1.424 . S
C366 C367 1.347 . S
C367 H359 0.951 . S
C367 C362 1.429 . S
C367 C366 1.347 . S
H368 C369 0.951 1_655 S
C369 H368 0.951 1_455 S
C369 C375 1.265 . S
H370 C375 0.950 . S
H371 C379 0.949 . S
H372 C380 0.950 . S
H373 C381 0.951 . S
H374 C382 0.951 . S
C375 C369 1.265 . S
C375 H370 0.950 . S
C375 C376 1.478 . S
C376 C375 1.478 . S
C376 C377 1.397 1_545 S
C376 C393 1.394 . S
C377 C376 1.397 1_565 S
C377 C378 1.438 . S
C377 C382 1.429 . S
C378 C377 1.438 . S
C378 C379 1.428 . S
C378 C391 1.394 1_565 S
C379 H371 0.949 . S
C379 C378 1.428 . S
C379 C380 1.345 . S
C380 H372 0.950 . S
C380 C379 1.345 . S
C380 C381 1.424 . S
C381 H373 0.951 . S
C381 C380 1.424 . S
C381 C382 1.347 . S
C382 H374 0.951 . S
C382 C377 1.429 . S
C382 C381 1.347 . S
H383 C384 0.951 . S
C384 H383 0.951 . S
C384 C390 1.262 1_455 S
H385 C390 0.954 . S
H386 C394 0.949 . S
H387 C395 0.950 . S
H388 C396 0.951 . S
H389 C397 0.951 . S
C390 C384 1.262 1_655 S
C390 H385 0.954 . S
C390 C391 1.477 1_655 S
C391 C378 1.394 1_545 S
C391 C390 1.477 1_455 S
C391 C392 1.397 . S
C392 C391 1.397 . S
C392 C393 1.438 . S
C392 C397 1.429 1_455 S
C393 C376 1.394 . S
C393 C392 1.438 . S
C393 C394 1.428 . S
C394 H386 0.949 . S
C394 C393 1.428 . S
C394 C395 1.345 1_455 S
C395 H387 0.950 . S
C395 C394 1.345 1_655 S
C395 C396 1.424 . S
C396 H388 0.951 . S
C396 C395 1.424 . S
C396 C397 1.347 . S
C397 H389 0.951 . S
C397 C392 1.429 1_655 S
C397 C396 1.347 . S
H398 C399 0.951 . S
C399 H398 0.951 . S
C399 C405 1.265 . S
H400 C405 0.950 . S
H401 C409 0.949 . S
H402 C410 0.950 . S
H403 C411 0.951 . S
H404 C412 0.951 . S
C405 C399 1.265 . S
C405 H400 0.950 . S
C405 C406 1.478 . S
C406 C405 1.478 . S
C406 C407 1.397 . S
C406 C423 1.394 . S
C407 C406 1.397 . S
C407 C408 1.438 . S
C407 C412 1.429 . S
C408 C407 1.438 . S
C408 C409 1.428 . S
C408 C421 1.394 . S
C409 H401 0.949 . S
C409 C408 1.428 . S
C409 C410 1.345 . S
C410 H402 0.950 . S
C410 C409 1.345 . S
C410 C411 1.424 . S
C411 H403 0.951 . S
C411 C410 1.424 . S
C411 C412 1.347 . S
C412 H404 0.951 . S
C412 C407 1.429 . S
C412 C411 1.347 . S
H413 C414 0.951 . S
C414 H413 0.951 . S
C414 C420 1.265 . S
H415 C420 0.950 . S
H416 C424 0.949 . S
H417 C425 0.950 . S
H418 C426 0.951 . S
H419 C427 0.951 . S
C420 C414 1.265 . S
C420 H415 0.950 . S
C420 C421 1.478 . S
C421 C408 1.394 . S
C421 C420 1.478 . S
C421 C422 1.397 . S
C422 C421 1.397 . S
C422 C423 1.438 . S
C422 C427 1.429 . S
C423 C406 1.394 . S
C423 C422 1.438 . S
C423 C424 1.428 . S
C424 H416 0.949 . S
C424 C423 1.428 . S
C424 C425 1.345 . S
C425 H417 0.950 . S
C425 C424 1.345 . S
C425 C426 1.424 . S
C426 H418 0.951 . S
C426 C425 1.424 . S
C426 C427 1.347 . S
C427 H419 0.951 . S
C427 C422 1.429 . S
C427 C426 1.347 . S
H428 C429 0.951 . S
C429 H428 0.951 . S
C429 C435 1.265 . S
H430 C435 0.950 . S
H431 C439 0.949 . S
H432 C440 0.950 . S
H433 C441 0.951 . S
H434 C442 0.951 . S
C435 C429 1.265 . S
C435 H430 0.950 . S
C435 C436 1.478 . S
C436 C435 1.478 . S
C436 C437 1.397 . S
C436 C453 1.394 . S
C437 C436 1.397 . S
C437 C438 1.438 . S
C437 C442 1.429 . S
C438 C437 1.438 . S
C438 C439 1.428 . S
C438 C451 1.394 . S
C439 H431 0.949 . S
C439 C438 1.428 . S
C439 C440 1.345 . S
C440 H432 0.950 . S
C440 C439 1.345 . S
C440 C441 1.424 . S
C441 H433 0.951 . S
C441 C440 1.424 . S
C441 C442 1.347 . S
C442 H434 0.951 . S
C442 C437 1.429 . S
C442 C441 1.347 . S
H443 C444 0.951 . S
C444 H443 0.951 . S
C444 C450 1.265 . S
H445 C450 0.950 . S
H446 C454 0.949 . S
H447 C455 0.950 . S
H448 C456 0.951 . S
H449 C457 0.951 . S
C450 C444 1.265 . S
C450 H445 0.950 . S
C450 C451 1.478 . S
C451 C438 1.394 . S
C451 C450 1.478 . S
C451 C452 1.397 . S
C452 C451 1.397 . S
C452 C453 1.438 . S
C452 C457 1.429 . S
C453 C436 1.394 . S
C453 C452 1.438 . S
C453 C454 1.428 . S
C454 H446 0.949 . S
C454 C453 1.428 . S
C454 C455 1.345 . S
C455 H447 0.950 . S
C455 C454 1.345 . S
C455 C456 1.424 . S
C456 H448 0.951 . S
C456 C455 1.424 . S
C456 C457 1.347 . S
C457 H449 0.951 . S
C457 C452 1.429 . S
C457 C456 1.347 . S
C114 N87 1.391 . S
C99 C21 1.378 . S
C129 C19 1.366 1_556 S
C144 N74 1.382 . S
C159 C18 1.504 . S
C174 N86 1.508 . S
C189 C20 1.514 . S
C204 N73 1.493 . S
C219 C44 1.395 . S
C234 N61 1.379 . S
C249 C42 1.388 . S
C264 N48 1.379 . S
C294 N60 1.486 . S
C279 C41 1.441 . S
C324 N47 1.496 . S
C309 C43 1.507 . S
C339 C16 1.525 . S
C354 N51 1.477 . S
C369 C17 1.478 . S
C384 N64 1.489 . S
C414 N77 1.486 . S
C399 C39 1.518 . S
C429 C40 1.478 . S
C444 N90 1.489 . S
