# Generated by pormake.
# Topology zzz, (3,6)-cn, num edge types: 1
# Building blocks:
#     Node 0, Type 0, BuildingBlock: ESEHIV_clean_linker_0, # of connection points: 3
#     Node 1, Type 0, BuildingBlock: ESEHIV_clean_linker_0, # of connection points: 3
#     Node 2, Type 0, BuildingBlock: ESEHIV_clean_linker_0, # of connection points: 3
#     Node 3, Type 0, BuildingBlock: ESEHIV_clean_linker_0, # of connection points: 3
#     Node 4, Type 0, BuildingBlock: ESEHIV_clean_linker_0, # of connection points: 3
#     Node 5, Type 0, BuildingBlock: ESEHIV_clean_linker_0, # of connection points: 3
#     Node 6, Type 0, BuildingBlock: ESEHIV_clean_linker_0, # of connection points: 3
#     Node 7, Type 0, BuildingBlock: ESEHIV_clean_linker_0, # of connection points: 3
#     Node 8, Type 1, BuildingBlock: KUMJIN_clean_sbu_1, # of connection points: 6
#     Node 9, Type 1, BuildingBlock: KUMJIN_clean_sbu_1, # of connection points: 6
#     Node 10, Type 1, BuildingBlock: KUMJIN_clean_sbu_1, # of connection points: 6
#     Node 11, Type 1, BuildingBlock: KUMJIN_clean_sbu_1, # of connection points: 6
#     Edge 12, Type (0, 1), BuildingBlock: ZUJKAS_clean_linker_0, # of connection points: 2
#     Edge 13, Type (0, 1), BuildingBlock: ZUJKAS_clean_linker_0, # of connection points: 2
#     Edge 14, Type (0, 1), BuildingBlock: ZUJKAS_clean_linker_0, # of connection points: 2
#     Edge 15, Type (0, 1), BuildingBlock: ZUJKAS_clean_linker_0, # of connection points: 2
#     Edge 16, Type (0, 1), BuildingBlock: ZUJKAS_clean_linker_0, # of connection points: 2
#     Edge 17, Type (0, 1), BuildingBlock: ZUJKAS_clean_linker_0, # of connection points: 2
#     Edge 18, Type (0, 1), BuildingBlock: ZUJKAS_clean_linker_0, # of connection points: 2
#     Edge 19, Type (0, 1), BuildingBlock: ZUJKAS_clean_linker_0, # of connection points: 2
#     Edge 20, Type (0, 1), BuildingBlock: ZUJKAS_clean_linker_0, # of connection points: 2
#     Edge 21, Type (0, 1), BuildingBlock: ZUJKAS_clean_linker_0, # of connection points: 2
#     Edge 22, Type (0, 1), BuildingBlock: ZUJKAS_clean_linker_0, # of connection points: 2
#     Edge 23, Type (0, 1), BuildingBlock: ZUJKAS_clean_linker_0, # of connection points: 2
#     Edge 24, Type (0, 1), BuildingBlock: ZUJKAS_clean_linker_0, # of connection points: 2
#     Edge 25, Type (0, 1), BuildingBlock: ZUJKAS_clean_linker_0, # of connection points: 2
#     Edge 26, Type (0, 1), BuildingBlock: ZUJKAS_clean_linker_0, # of connection points: 2
#     Edge 27, Type (0, 1), BuildingBlock: ZUJKAS_clean_linker_0, # of connection points: 2
#     Edge 28, Type (0, 1), BuildingBlock: ZUJKAS_clean_linker_0, # of connection points: 2
#     Edge 29, Type (0, 1), BuildingBlock: ZUJKAS_clean_linker_0, # of connection points: 2
#     Edge 30, Type (0, 1), BuildingBlock: ZUJKAS_clean_linker_0, # of connection points: 2
#     Edge 31, Type (0, 1), BuildingBlock: ZUJKAS_clean_linker_0, # of connection points: 2
#     Edge 32, Type (0, 1), BuildingBlock: ZUJKAS_clean_linker_0, # of connection points: 2
#     Edge 33, Type (0, 1), BuildingBlock: ZUJKAS_clean_linker_0, # of connection points: 2
#     Edge 34, Type (0, 1), BuildingBlock: ZUJKAS_clean_linker_0, # of connection points: 2
#     Edge 35, Type (0, 1), BuildingBlock: ZUJKAS_clean_linker_0, # of connection points: 2
# Relax obj value: 0.311
# Max RMSD: 0.207
# Mean RMSD: 0.180
data_MOF--net-zzz--node1-KUMJIN_clean_sbu_1--node2-ESEHIV_clean_linker_0--edge1-ZUJKAS_clean_linker_0
_symmetry_space_group_name_H-M    P1
_symmetry_Int_Tables_number       1
_symmetry_cell_setting            triclinic
loop_
_symmetry_equiv_pos_as_xyz
'x, y, z'
_cell_length_a     56.801493
_cell_length_b     56.839823
_cell_length_c     21.201961
_cell_angle_alpha  89.800829
_cell_angle_beta   90.086853
_cell_angle_gamma 90.470701
loop_
_atom_site_label
_atom_site_type_symbol
_atom_site_fract_x
_atom_site_fract_y
_atom_site_fract_z
_atom_type_partial_charge
H0 H 0.77852 0.58619 0.30319 0.0
H1 H 0.71934 0.59139 0.18141 0.0
H2 H 0.72186 0.53595 0.32053 0.0
C3 C 0.76058 0.58096 0.29182 0.0
C4 C 0.75089 0.56135 0.32253 0.0
C5 C 0.75061 0.58914 0.23604 0.0
C6 C 0.72705 0.58391 0.22379 0.0
C7 C 0.71624 0.56429 0.25236 0.0
C8 C 0.72882 0.55218 0.30094 0.0
H9 H 0.94771 0.77251 0.32538 0.0
H10 H 0.95133 0.71902 0.1892 0.0
H11 H 1.01295 0.73535 0.29997 0.0
C12 C 0.9578 0.75875 0.3032 0.0
C13 C 0.98137 0.75559 0.32113 0.0
C14 C 0.9508 0.75078 0.24373 0.0
C15 C 0.95969 0.72882 0.22696 0.0
C16 C 0.98268 0.72296 0.24524 0.0
C17 C 0.99443 0.73773 0.28984 0.0
H18 H 0.75896 0.95902 0.29316 0.0
H19 H 0.82044 0.95237 0.18217 0.0
H20 H 0.81518 1.00943 0.31469 0.0
C21 C 0.77717 0.96405 0.2845 0.0
C22 C 0.78648 0.98361 0.31612 0.0
C23 C 0.7879 0.95626 0.22956 0.0
C24 C 0.81201 0.96021 0.22284 0.0
C25 C 0.82206 0.98052 0.24966 0.0
C26 C 0.80873 0.99288 0.29604 0.0
H27 H 0.56735 0.76031 0.25585 0.0
H28 H 0.53897 0.82385 0.33294 0.0
H29 H 0.57677 0.8242 0.15519 0.0
C30 C 0.56614 0.77937 0.25531 0.0
C31 C 0.57416 0.79131 0.2025 0.0
C32 C 0.55638 0.79102 0.30705 0.0
C33 C 0.54954 0.81502 0.29795 0.0
C34 C 0.55632 0.82695 0.24079 0.0
C35 C 0.5712 0.8154 0.19828 0.0
H36 H 0.25659 0.50423 0.03683 0.0
H37 H 0.31646 0.50145 0.15756 0.0
H38 H 0.32428 0.48614 0.95877 0.0
C39 C 0.27551 0.50218 0.04185 0.0
C40 C 0.28886 0.49567 0.98971 0.0
C41 C 0.2854 0.50352 0.10156 0.0
C42 C 0.3093 0.50043 0.11007 0.0
C43 C 0.32382 0.49447 0.05955 0.0
C44 C 0.31356 0.49164 0.99813 0.0
H45 H 0.05935 0.26107 0.03125 0.0
H46 H 0.06512 0.32033 0.15339 0.0
H47 H 0.03985 0.32958 0.96222 0.0
C48 C 0.05819 0.27994 0.03823 0.0
C49 C 0.05016 0.29389 0.98863 0.0
C50 C 0.06379 0.28937 0.09685 0.0
C51 C 0.061 0.31327 0.10714 0.0
C52 C 0.05227 0.32815 0.05992 0.0
C53 C 0.04658 0.31843 0.99948 0.0
H54 H 0.27843 0.08809 0.02163 0.0
H55 H 0.21826 0.08766 0.14025 0.0
H56 H 0.22068 0.041 0.98072 0.0
C57 C 0.26019 0.08287 0.02899 0.0
C58 C 0.25014 0.06571 0.98973 0.0
C59 C 0.24979 0.08827 0.08643 0.0
C60 C 0.2262 0.08263 0.09575 0.0
C61 C 0.21549 0.06492 0.05974 0.0
C62 C 0.22791 0.05569 1.00696 0.0
H63 H 0.44723 0.27841 1.00554 0.0
H64 H 0.50034 0.22598 0.97384 0.0
H65 H 0.45812 0.22496 0.14198 0.0
C66 C 0.45487 0.26145 0.01677 0.0
C67 C 0.45307 0.25382 0.07907 0.0
C68 C 0.4734 0.25316 0.97947 0.0
C69 C 0.48538 0.23242 0.99999 0.0
C70 C 0.47784 0.22064 0.05628 0.0
C71 C 0.46108 0.23153 0.09443 0.0
Eu72 Eu 0.99245 0.03809 0.59632 0.0
C73 C 0.08289 0.0374 0.78088 0.0
N74 N 0.07858 0.02824 0.7227 0.0
C75 C 0.11912 0.03418 0.69431 0.0
C76 C 0.10557 0.04568 0.79746 0.0
C77 C 0.09643 0.02613 0.67999 0.0
C78 C 0.12369 0.04411 0.75315 0.0
C79 C 0.06904 0.04637 0.88647 0.0
C80 C 0.06491 0.03746 0.8253 0.0
C81 C 0.09144 0.0551 0.90242 0.0
C82 C 0.10968 0.05463 0.85818 0.0
Eu83 Eu 0.04054 1.01169 0.70757 0.0
N84 N 0.04353 0.02835 0.8093 0.0
C85 C 0.05069 0.04576 0.9304 0.0
C86 C 0.0261 0.02636 0.85335 0.0
C87 C 0.02916 0.03555 0.91383 0.0
H88 H 0.09367 0.01717 0.63598 0.0
H89 H 0.01509 0.03426 0.94807 0.0
H90 H 0.94223 0.02605 0.67075 0.0
H91 H 0.02402 1.00863 0.36363 0.0
H92 H 1.01 0.01723 0.84285 0.0
H93 H 0.05315 0.05253 0.97769 0.0
H94 H 0.02659 0.02993 0.46246 0.0
H95 H 0.13319 0.03222 0.66043 0.0
H96 H 0.09494 0.06187 0.94926 0.0
H97 H 0.127 0.06096 0.87168 0.0
H98 H 0.90386 1.00767 0.6466 0.0
H99 H 0.14139 0.05 0.76442 0.0
H100 H 0.98751 0.98722 0.3358 0.0
N101 N 0.958 0.01561 0.58456 0.0
C102 C 0.95482 1.0055 0.52707 0.0
C103 C 0.91814 1.00658 0.61304 0.0
C104 C 0.93299 0.99509 0.51097 0.0
C105 C 0.94006 0.0166 0.62709 0.0
C106 C 0.91458 0.99579 0.55473 0.0
N107 N 0.9935 0.01799 0.49788 0.0
C108 C 1.01132 0.01932 0.45474 0.0
C109 C 0.97027 0.99521 0.42407 0.0
C110 C 0.97319 1.00615 0.48337 0.0
C111 C 0.989 0.99564 0.38143 0.0
C112 C 1.00963 1.00767 0.397 0.0
H113 H 0.89744 0.98837 0.54361 0.0
H114 H 0.91322 0.97708 0.43794 0.0
H115 H 0.946 0.97662 0.36261 0.0
O116 O 0.97603 0.05828 0.52154 0.0
O117 O 0.99308 0.99834 0.61314 0.0
O118 O 0.03253 0.99397 0.61379 0.0
O119 O 0.96573 0.06421 0.61835 0.0
O120 O 0.02995 0.04759 0.56302 0.0
O121 O 0.05307 0.01843 0.60727 0.0
O122 O 0.03257 0.97805 0.75249 0.0
O123 O 0.03035 0.04964 0.73088 0.0
O124 O 0.01826 0.06544 0.63592 0.0
O125 O 0.06917 0.98767 0.73009 0.0
O126 O 1.00212 1.00394 0.73311 0.0
O127 O 0.9839 0.03763 0.70092 0.0
C128 C 1.01157 0.98547 0.60111 0.0
C129 C 0.96515 0.09632 0.54953 0.0
C130 C 0.98686 0.12987 0.50957 0.0
C131 C 0.96766 0.14442 0.52314 0.0
C132 C 0.94586 0.1107 0.56248 0.0
C133 C 0.94725 0.13482 0.5499 0.0
C134 C 0.98577 0.10605 0.52463 0.0
C135 C 0.04986 0.03561 0.56632 0.0
C136 C 0.9637 0.07106 0.56002 0.0
C137 C 0.92996 0.98486 0.45134 0.0
C138 C 0.94862 0.98466 0.40838 0.0
C139 C 0.026 0.06793 0.69432 0.0
C140 C 0.06275 0.9498 0.77926 0.0
C141 C 0.05358 0.91368 0.83437 0.0
C142 C 0.07644 0.90555 0.82337 0.0
C143 C 0.08579 0.94189 0.76889 0.0
C144 C 0.04685 0.93575 0.8127 0.0
C145 C 0.09258 0.91978 0.79107 0.0
C146 C 0.98491 0.01917 0.73805 0.0
C147 C 0.05472 0.97213 0.75339 0.0
H148 H 0.96809 0.16293 0.51078 0.0
H149 H 0.92977 0.10326 0.58167 0.0
H150 H 0.9323 0.14594 0.55934 0.0
H151 H 1.00076 0.09494 0.51467 0.0
H152 H 0.08179 0.8884 0.84029 0.0
H153 H 0.09838 0.95258 0.74302 0.0
H154 H 0.02903 0.94174 0.82108 0.0
H155 H 0.11029 0.91361 0.78285 0.0
Eu156 Eu 0.53093 0.04882 0.70701 0.0
C157 C 0.5145 0.94493 0.59462 0.0
N158 N 0.52577 0.96503 0.57625 0.0
C159 C 0.55719 0.94238 0.53232 0.0
C160 C 0.52462 0.9227 0.58371 0.0
C161 C 0.54649 0.96398 0.54385 0.0
C162 C 0.54634 0.92165 0.55289 0.0
C163 C 0.47944 0.92568 0.63621 0.0
C164 C 0.49207 0.94642 0.62049 0.0
C165 C 0.48993 0.90366 0.6279 0.0
C166 C 0.51241 0.90216 0.6015 0.0
Eu167 Eu 0.50539 1.00053 0.59376 0.0
N168 N 0.48188 0.96788 0.62565 0.0
C169 C 0.45616 0.92758 0.65691 0.0
C170 C 0.45849 0.96949 0.64031 0.0
C171 C 0.44553 0.94956 0.65795 0.0
H172 H 0.55448 0.97959 0.52441 0.0
H173 H 0.42717 0.95113 0.67079 0.0
H174 H 0.48789 0.07251 0.79625 0.0
H175 H 0.60568 0.09194 0.59236 0.0
H176 H 0.44941 0.98605 0.63696 0.0
H177 H 0.44592 0.91208 0.66937 0.0
H178 H 0.58192 0.05852 0.63114 0.0
H179 H 0.57358 0.94171 0.50646 0.0
H180 H 0.48047 0.88761 0.63975 0.0
H181 H 0.51994 0.88498 0.59346 0.0
H182 H 0.47413 0.11175 0.82724 0.0
H183 H 0.55451 0.90491 0.54302 0.0
H184 H 0.59255 0.13264 0.6119 0.0
N185 N 0.51498 0.08567 0.73585 0.0
C186 C 0.52706 0.105 0.71564 0.0
C187 C 0.48881 0.11013 0.79512 0.0
C188 C 0.52011 0.1278 0.7337 0.0
C189 C 0.49643 0.08792 0.77649 0.0
C190 C 0.50059 0.13018 0.7733 0.0
N191 N 0.55445 0.07982 0.66678 0.0
C192 C 0.57553 0.07609 0.63769 0.0
C193 C 0.56081 0.12169 0.66077 0.0
C194 C 0.5473 0.102 0.68 0.0
C195 C 0.58173 0.11797 0.62755 0.0
C196 C 0.5892 0.09504 0.6164 0.0
H197 H 0.49486 0.14737 0.78861 0.0
H198 H 0.52819 0.16505 0.72709 0.0
H199 H 0.5637 0.15972 0.6628 0.0
O200 O 0.56341 0.04346 0.7571 0.0
O201 O 0.53025 0.06047 0.60483 0.0
O202 O 0.49764 0.03957 0.57595 0.0
O203 O 0.53275 0.05704 0.80815 0.0
O204 O 0.55639 0.02244 0.66254 0.0
O205 O 0.5405 0.01669 0.56493 0.0
O206 O 0.47384 1.00191 0.54067 0.0
O207 O 0.52516 0.986 0.67951 0.0
O208 O 0.51556 0.01519 0.748 0.0
O209 O 0.50614 0.99145 0.49155 0.0
O210 O 0.48019 1.01123 0.67235 0.0
O211 O 0.49061 0.04911 0.69985 0.0
C212 C 0.51279 0.05679 0.56556 0.0
C213 C 0.56892 0.05171 0.8671 0.0
C214 C 0.60663 0.04531 0.91544 0.0
C215 C 0.59799 0.05336 0.97332 0.0
C216 C 0.55994 0.05967 0.92481 0.0
C217 C 0.57454 0.06045 0.97795 0.0
C218 C 0.59217 0.04442 0.863 0.0
C219 C 0.55897 0.01821 0.60195 0.0
C220 C 0.5547 0.05089 0.8102 0.0
C221 C 0.53327 0.14744 0.71358 0.0
C222 C 0.55351 0.1444 0.67701 0.0
C223 C 0.52347 0.99393 0.73766 0.0
C224 C 0.46884 0.99253 0.4324 0.0
C225 C 0.43004 0.99659 0.38726 0.0
C226 C 0.43887 0.99057 0.32775 0.0
C227 C 0.47794 0.98666 0.37311 0.0
C228 C 0.44489 0.99704 0.43897 0.0
C229 C 0.46284 0.98553 0.32086 0.0
C230 C 0.47507 0.0318 0.69695 0.0
C231 C 0.48351 0.99502 0.48845 0.0
H232 H 0.6092 0.05375 1.01469 0.0
H233 H 0.54182 0.06527 0.92876 0.0
H234 H 0.5677 0.06649 0.02261 0.0
H235 H 0.59928 0.038 0.81882 0.0
H236 H 0.42749 0.99055 0.28671 0.0
H237 H 0.49652 0.98322 0.36715 0.0
H238 H 0.43757 1.00173 0.48445 0.0
H239 H 0.46978 0.98121 0.27487 0.0
Eu240 Eu 0.54217 0.51098 0.59889 0.0
C241 C 0.45314 0.51322 0.78581 0.0
N242 N 0.45742 0.51979 0.72521 0.0
C243 C 0.41957 0.50521 0.69331 0.0
C244 C 0.43199 0.50154 0.80204 0.0
C245 C 0.44095 0.51635 0.6792 0.0
C246 C 0.41517 0.49753 0.75483 0.0
C247 C 0.46506 0.51309 0.89585 0.0
C248 C 0.46944 0.51917 0.83232 0.0
C249 C 0.44461 0.50032 0.91155 0.0
C250 C 0.42803 0.49475 0.86488 0.0
Eu251 Eu 0.4937 0.53874 0.70669 0.0
N252 N 0.48875 0.53213 0.81619 0.0
C253 C 0.48094 0.52078 0.94211 0.0
C254 C 0.50284 0.54174 0.86186 0.0
C255 C 0.49967 0.53554 0.92515 0.0
H256 H 0.44401 0.52264 0.63189 0.0
H257 H 0.51154 0.54231 0.96083 0.0
H258 H 0.59621 0.51509 0.66678 0.0
H259 H 0.51663 0.52885 0.35509 0.0
H260 H 0.51698 0.55372 0.84929 0.0
H261 H 0.47836 0.51621 0.99129 0.0
H262 H 0.51215 0.51273 0.4622 0.0
H263 H 0.40646 0.50267 0.65681 0.0
H264 H 0.44108 0.49535 0.96003 0.0
H265 H 0.41197 0.48556 0.87808 0.0
H266 H 0.63568 0.53004 0.64004 0.0
H267 H 0.39855 0.48893 0.76564 0.0
H268 H 0.55399 0.54831 0.3242 0.0
N269 N 0.58055 0.52636 0.58039 0.0
C270 C 0.58447 0.53543 0.52183 0.0
C271 C 0.62136 0.53203 0.60675 0.0
C272 C 0.60702 0.54377 0.50422 0.0
C273 C 0.59879 0.52395 0.62212 0.0
C274 C 0.62546 0.54219 0.54779 0.0
N275 N 0.54525 0.52546 0.49452 0.0
C276 C 0.52793 0.52229 0.45055 0.0
C277 C 0.57013 0.54355 0.41596 0.0
C278 C 0.56632 0.53507 0.47784 0.0
C279 C 0.55177 0.54191 0.37205 0.0
C280 C 0.53065 0.531 0.38928 0.0
H281 H 0.64306 0.54815 0.53574 0.0
H282 H 0.62791 0.55914 0.4289 0.0
H283 H 0.59553 0.55922 0.35194 0.0
O284 O 0.5383 0.48022 0.5417 0.0
O285 O 0.52975 0.54702 0.56666 0.0
O286 O 0.52388 0.56048 0.66526 0.0
O287 O 0.56985 0.4839 0.60098 0.0
O288 O 0.50359 0.50196 0.57736 0.0
O289 O 0.48499 0.53617 0.60213 0.0
O290 O 0.49753 0.57514 0.73229 0.0
O291 O 0.49155 0.49849 0.69909 0.0
O292 O 0.53075 0.49056 0.68679 0.0
O293 O 0.46306 0.56212 0.70599 0.0
O294 O 0.52663 0.52775 0.76062 0.0
O295 O 0.55684 0.5288 0.68768 0.0
C296 C 0.52677 0.56474 0.60495 0.0
C297 C 0.56599 0.44879 0.53615 0.0
C298 C 0.55714 0.41533 0.47099 0.0
C299 C 0.57891 0.40534 0.48598 0.0
C300 C 0.58784 0.43901 0.55209 0.0
C301 C 0.59425 0.41723 0.52687 0.0
C302 C 0.5508 0.43677 0.49596 0.0
C303 C 0.4865 0.51705 0.568 0.0
C304 C 0.55824 0.47137 0.56014 0.0
C305 C 0.61072 0.55266 0.44311 0.0
C306 C 0.59229 0.55267 0.39923 0.0
C307 C 0.50936 0.48377 0.7029 0.0
C308 C 0.46529 0.59358 0.77995 0.0
C309 C 0.47189 0.62179 0.86413 0.0
C310 C 0.44749 0.624 0.87191 0.0
C311 C 0.44088 0.5957 0.78821 0.0
C312 C 0.48058 0.60658 0.81845 0.0
C313 C 0.43206 0.61078 0.83436 0.0
C314 C 0.54914 0.5294 0.74629 0.0
C315 C 0.47519 0.5798 0.72801 0.0
H316 H 0.58382 0.38845 0.46675 0.0
H317 H 0.59982 0.44812 0.58359 0.0
H318 H 0.61104 0.40958 0.53904 0.0
H319 H 0.53376 0.444 0.48361 0.0
H320 H 0.44044 0.63598 0.90658 0.0
H321 H 0.42868 0.58609 0.75838 0.0
H322 H 0.49946 0.60576 0.81114 0.0
H323 H 0.41324 0.61256 0.84024 0.0
Eu324 Eu 0.03352 0.55042 0.59425 0.0
C325 C 0.03123 0.45828 0.77164 0.0
N326 N 0.02279 0.4638 0.71328 0.0
C327 C 0.02763 0.42375 0.68036 0.0
C328 C 0.03827 0.43512 0.78629 0.0
C329 C 0.02068 0.44684 0.66799 0.0
C330 C 0.03644 0.41785 0.73971 0.0
C331 C 0.04039 0.47021 0.87901 0.0
C332 C 0.03192 0.47553 0.81794 0.0
C333 C 0.04754 0.44725 0.89335 0.0
C334 C 0.04633 0.42972 0.84728 0.0
Eu335 Eu 1.00631 0.50183 0.7034 0.0
N336 N 0.02422 0.49748 0.80356 0.0
C337 C 0.04116 0.48807 0.92425 0.0
C338 C 0.02407 0.51465 0.84848 0.0
C339 C 0.03302 0.51041 0.90879 0.0
H340 H 1.01244 0.45056 0.62332 0.0
H341 H 0.03317 0.52428 0.94367 0.0
H342 H 0.02008 0.60119 0.65963 0.0
H343 H 1.01265 0.51696 0.35649 0.0
H344 H 0.01694 0.53158 0.83844 0.0
H345 H 0.04771 0.48471 0.97143 0.0
H346 H 0.03386 0.51793 0.45649 0.0
H347 H 0.0256 0.41036 0.64455 0.0
H348 H 0.0538 0.4428 0.94018 0.0
H349 H 0.05157 0.41199 0.8594 0.0
H350 H 0.99983 0.63801 0.63139 0.0
H351 H 0.04139 0.39982 0.74944 0.0
H352 H 0.98635 0.54964 0.3275 0.0
N353 N 1.0103 0.58361 0.57562 0.0
C354 C 1.00006 0.58525 0.51786 0.0
C355 C 0.99936 0.62318 0.59953 0.0
C356 C 0.98828 0.60595 0.49958 0.0
C357 C 1.01053 0.60222 0.61589 0.0
C358 C 0.98806 0.62503 0.54123 0.0
N359 N 0.01597 0.5479 0.49214 0.0
C360 C 0.02063 0.53092 0.44851 0.0
C361 C 0.99158 0.56798 0.41576 0.0
C362 C 1.00229 0.56661 0.47586 0.0
C363 C 0.99452 0.54937 0.37371 0.0
C364 C 1.00928 0.53086 0.38999 0.0
H365 H 0.97964 0.64139 0.52833 0.0
H366 H 0.96874 0.62309 0.42486 0.0
H367 H 0.97103 0.58962 0.3522 0.0
O368 O 0.05451 0.56872 0.52398 0.0
O369 O 0.99364 0.5503 0.61202 0.0
O370 O 0.98794 0.51095 0.61105 0.0
O371 O 0.06011 0.57626 0.62287 0.0
O372 O 0.04286 0.51275 0.56408 0.0
O373 O 1.01089 0.49163 0.60059 0.0
O374 O 0.97307 0.50806 0.75209 0.0
O375 O 0.04447 0.5124 0.7269 0.0
O376 O 0.06041 0.52405 0.63201 0.0
O377 O 0.98279 0.47232 0.72378 0.0
O378 O 0.99884 0.53971 0.73314 0.0
O379 O 0.03175 0.55948 0.69834 0.0
C380 C 0.98008 0.53212 0.59949 0.0
C381 C 0.09299 0.57742 0.55654 0.0
C382 C 0.12589 0.55771 0.50862 0.0
C383 C 0.14131 0.57472 0.53344 0.0
C384 C 0.10836 0.59433 0.58195 0.0
C385 C 0.13255 0.59282 0.57082 0.0
C386 C 0.10193 0.55877 0.52128 0.0
C387 C 0.02935 0.4937 0.56362 0.0
C388 C 0.06764 0.57944 0.56552 0.0
C389 C 0.97775 0.60729 0.4398 0.0
C390 C 0.9791 0.58823 0.3984 0.0
C391 C 0.06291 0.51647 0.69057 0.0
C392 C 0.94556 0.47632 0.77698 0.0
C393 C 0.91036 0.48267 0.83866 0.0
C394 C 0.90436 0.45875 0.83274 0.0
C395 C 0.93964 0.45237 0.77153 0.0
C396 C 0.93071 0.49136 0.80961 0.0
C397 C 0.91898 0.44369 0.79905 0.0
C398 C 1.01356 0.55773 0.7363 0.0
C399 C 0.96745 0.48575 0.75062 0.0
H400 H 0.15999 0.57408 0.52329 0.0
H401 H 0.10165 0.60875 0.60973 0.0
H402 H 0.14442 0.60595 0.59007 0.0
H403 H 0.09022 0.54556 0.50137 0.0
H404 H 0.88873 0.45164 0.85523 0.0
H405 H 0.95097 0.44037 0.74642 0.0
H406 H 0.93513 0.50991 0.81315 0.0
H407 H 0.91447 0.42522 0.79501 0.0
H408 H 0.21081 0.02336 0.12431 0.0
H409 H 0.18165 0.01545 0.20743 0.0
H410 H 0.1448 0.07854 0.15446 0.0
H411 H 0.17298 0.08553 0.07 0.0
H412 H 0.17406 0.03968 0.30857 0.0
H413 H 0.08922 0.03907 0.18192 0.0
H414 H 0.11687 0.03759 0.14063 0.0
H415 H 0.10517 0.06559 0.16478 0.0
C416 C 0.19555 0.0346 0.12772 0.0
C417 C 0.19373 0.05458 0.08855 0.0
C418 C 0.17914 0.03042 0.17647 0.0
C419 C 0.16054 0.04618 0.18751 0.0
C420 C 0.15822 0.0655 0.14634 0.0
H421 H 0.05641 0.07284 0.48349 0.0
H422 H 0.08446 0.07567 0.39554 0.0
C423 C 0.17432 0.06944 0.09726 0.0
C424 C 0.14482 0.04376 0.24462 0.0
H425 H 0.08732 0.04681 0.29285 0.0
C426 C 0.15507 0.04095 0.30479 0.0
C427 C 0.11992 0.04549 0.24083 0.0
C428 C 0.10718 0.04685 0.17846 0.0
C429 C 0.14136 0.04051 0.36046 0.0
C430 C 0.11654 0.04282 0.35644 0.0
C431 C 0.1063 0.04537 0.29646 0.0
C432 C 0.10068 0.04194 0.41322 0.0
C433 C 0.15372 0.0382 0.42321 0.0
C434 C 0.10022 0.02209 0.45288 0.0
C435 C 0.0842 0.02044 0.50306 0.0
C436 C 0.06802 0.03859 0.51532 0.0
C437 C 0.06861 0.05858 0.47594 0.0
C438 C 0.08468 0.0602 0.42549 0.0
H439 H 0.1725 0.04372 0.4201 0.0
H440 H 0.14498 0.04886 0.46004 0.0
H441 H 0.15323 0.01949 0.43838 0.0
H442 H 0.11177 1.00742 0.44385 0.0
H443 H 0.08401 1.00445 0.53093 0.0
H444 H 0.45981 0.17639 0.06158 0.0
H445 H 0.46731 0.14783 0.14574 0.0
H446 H 0.5264 0.18964 0.2088 0.0
H447 H 0.51845 0.21854 0.12523 0.0
H448 H 0.50159 0.11969 0.18622 0.0
H449 H 0.48734 0.18824 0.36691 0.0
H450 H 0.48179 0.19333 0.28424 0.0
H451 H 0.51132 0.19509 0.31488 0.0
C452 C 0.47514 0.17888 0.09135 0.0
C453 C 0.48893 0.19947 0.08527 0.0
C454 C 0.47918 0.16272 0.14044 0.0
C455 C 0.49703 0.16675 0.18528 0.0
C456 C 0.5121 0.18629 0.17616 0.0
H457 H 0.53957 0.0955 0.53323 0.0
H458 H 0.53505 0.12165 0.44233 0.0
C459 C 0.508 0.20253 0.12705 0.0
C460 C 0.49911 0.15102 0.24237 0.0
H461 H 0.49951 0.15089 0.40426 0.0
C462 C 0.5011 0.12658 0.23383 0.0
C463 C 0.49816 0.15976 0.30505 0.0
C464 C 0.49429 0.18549 0.31855 0.0
C465 C 0.50283 0.11087 0.28538 0.0
C466 C 0.50224 0.11963 0.34793 0.0
C467 C 0.5001 0.14405 0.3566 0.0
C468 C 0.5043 0.10385 0.40478 0.0
C469 C 0.50582 0.08501 0.27214 0.0
C470 C 0.48827 0.08522 0.41548 0.0
C471 C 0.49085 0.07009 0.46767 0.0
C472 C 0.50942 0.07329 0.51102 0.0
C473 C 0.52509 0.09231 0.50103 0.0
C474 C 0.5225 0.10739 0.44886 0.0
H475 H 0.51214 0.08191 0.22333 0.0
H476 H 0.51844 0.07693 0.30573 0.0
H477 H 0.48858 0.07592 0.27747 0.0
H478 H 0.47368 0.08234 0.38341 0.0
H479 H 0.47833 0.05579 0.47379 0.0
H480 H 0.34203 0.45541 0.11472 0.0
H481 H 0.37144 0.45735 0.19896 0.0
H482 H 0.39048 0.52756 0.14005 0.0
H483 H 0.36034 0.52593 0.05736 0.0
H484 H 0.41699 0.46478 0.2221 0.0
H485 H 0.36817 0.54091 0.3153 0.0
H486 H 0.35757 0.52383 0.24948 0.0
H487 H 0.37968 0.54633 0.2379 0.0
C488 C 0.35343 0.47075 0.11723 0.0
C489 C 0.34883 0.49043 0.07845 0.0
C490 C 0.36997 0.47207 0.16667 0.0
C491 C 0.38263 0.49301 0.17821 0.0
C492 C 0.38038 0.51149 0.13415 0.0
H493 H 0.47134 0.54885 0.48045 0.0
H494 H 0.44621 0.5418 0.38832 0.0
C495 C 0.36361 0.51027 0.08521 0.0
C496 C 0.3968 0.49601 0.23806 0.0
H497 H 0.40376 0.53152 0.36735 0.0
C498 C 0.4141 0.47941 0.25378 0.0
C499 C 0.39285 0.51477 0.28079 0.0
C500 C 0.3734 0.53232 0.2705 0.0
C501 C 0.4282 0.48159 0.30861 0.0
C502 C 0.4247 0.50076 0.35055 0.0
C503 C 0.40692 0.51699 0.33551 0.0
C504 C 0.43964 0.50492 0.40874 0.0
C505 C 0.44721 0.46361 0.31937 0.0
C506 C 0.4442 0.4869 0.45297 0.0
C507 C 0.45935 0.49078 0.50462 0.0
C508 C 0.46944 0.51308 0.5153 0.0
C509 C 0.46381 0.53147 0.47357 0.0
C510 C 0.44938 0.52739 0.42069 0.0
H511 H 0.45221 0.45472 0.27483 0.0
H512 H 0.46325 0.47175 0.34012 0.0
H513 H 0.44054 0.44982 0.3521 0.0
H514 H 0.43615 0.46972 0.44765 0.0
H515 H 0.46299 0.47638 0.53669 0.0
H516 H 1.01113 0.35168 0.08357 0.0
H517 H 1.00714 0.38272 0.16298 0.0
H518 H 0.0828 0.38765 0.17642 0.0
H519 H 0.08653 0.3589 0.09305 0.0
H520 H 0.01697 0.37974 0.27756 0.0
H521 H 0.07375 0.45355 0.19923 0.0
H522 H 0.06609 0.42986 0.14672 0.0
H523 H 0.09005 0.42684 0.20235 0.0
C524 C 0.02682 0.36072 0.10004 0.0
C525 C 0.04915 0.35311 0.08047 0.0
C526 C 0.0246 0.3781 0.14704 0.0
C527 C 0.04465 0.38804 0.1766 0.0
C528 C 0.06688 0.38142 0.15378 0.0
H529 H 0.06999 0.47579 0.51259 0.0
H530 H 0.07353 0.44821 0.42409 0.0
C531 C 0.06904 0.36486 0.10527 0.0
C532 C 0.04241 0.4032 0.2349 0.0
H533 H 0.0639 0.45266 0.3081 0.0
C534 C 0.02706 0.39586 0.28351 0.0
C535 C 0.05585 0.42411 0.24468 0.0
C536 C 0.07217 0.43412 0.19513 0.0
C537 C 0.0249 0.40843 0.34063 0.0
C538 C 0.03819 0.42943 0.34994 0.0
C539 C 0.05369 0.43663 0.30178 0.0
C540 C 0.03596 0.44466 0.40783 0.0
C541 C 1.00885 0.39848 0.39095 0.0
C542 C 0.01378 0.45201 0.42938 0.0
C543 C 1.01179 0.46718 0.48116 0.0
C544 C 0.03193 0.47623 0.51163 0.0
C545 C 0.05416 0.46916 0.49008 0.0
C546 C 0.05614 0.45339 0.43929 0.0
H547 H 1.00703 0.37907 0.38674 0.0
H548 H 0.01535 0.40264 0.43906 0.0
H549 H 0.99102 0.40603 0.38506 0.0
H550 H 0.99788 0.44656 0.40517 0.0
H551 H 0.9944 0.4726 0.49584 0.0
H552 H 0.86381 0.95877 0.22732 0.0
H553 H 0.89125 0.96737 0.14121 0.0
H554 H 0.85406 0.03132 0.09997 0.0
H555 H 0.8263 0.02264 0.18628 0.0
H556 H 0.8624 0.99477 0.99143 0.0
H557 H 0.94328 0.02157 0.1224 0.0
H558 H 0.92605 0.99731 0.15264 0.0
H559 H 0.91413 0.0264 0.15376 0.0
C560 C 0.86209 0.97524 0.20191 0.0
C561 C 0.84308 0.99028 0.21511 0.0
C562 C 0.87762 0.97996 0.1519 0.0
C563 C 0.87478 0.99995 0.11365 0.0
C564 C 0.85666 0.01575 0.12864 0.0
H565 H 0.95889 0.05318 0.7965 0.0
H566 H 0.93139 0.04844 0.88503 0.0
C567 C 0.84107 1.01103 0.17898 0.0
C568 C 0.89014 1.00361 0.05676 0.0
H569 H 0.94673 0.01686 1.01238 0.0
C570 C 0.88079 0.99977 0.99605 0.0
C571 C 0.91424 1.00981 0.0624 0.0
C572 C 0.92518 1.01415 0.12613 0.0
C573 C 0.89495 1.00178 0.94141 0.0
C574 C 0.91901 1.00806 0.94729 0.0
C575 C 0.92829 1.01207 1.00779 0.0
C576 C 0.93484 1.01066 0.89119 0.0
C577 C 0.8843 0.99702 0.8775 0.0
C578 C 0.94596 0.99101 0.86485 0.0
C579 C 0.96196 0.9937 0.81469 0.0
C580 C 0.96698 0.01609 0.78915 0.0
C581 C 0.95535 0.03567 0.81464 0.0
C582 C 0.93965 0.033 0.86541 0.0
H583 H 0.86505 0.99355 0.88013 0.0
H584 H 0.88752 1.01226 0.84566 0.0
H585 H 0.89295 0.98152 0.85613 0.0
H586 H 0.94254 0.97359 0.88379 0.0
H587 H 0.97047 0.97823 0.79599 0.0
H588 H 0.56141 0.8753 0.26442 0.0
H589 H 0.55319 0.90653 0.18655 0.0
H590 H 0.5248 0.8537 0.06129 0.0
H591 H 0.5271 0.82492 0.14343 0.0
H592 H 0.5681 0.9189 0.08829 0.0
H593 H 0.47941 0.89501 1.00552 0.0
H594 H 0.49113 0.88173 0.07557 0.0
H595 H 0.49692 0.86937 0.99825 0.0
C596 C 0.55143 0.87101 0.22238 0.0
C597 C 0.54416 0.84762 0.21148 0.0
C598 C 0.5474 0.88875 0.17644 0.0
C599 C 0.53739 0.88323 0.11686 0.0
C600 C 0.53046 0.85971 0.1071 0.0
H601 H 0.53235 0.94614 0.73882 0.0
H602 H 0.53789 0.92049 0.83108 0.0
C603 C 0.53214 0.84285 0.15477 0.0
C604 C 0.53566 0.90105 0.06328 0.0
H605 H 0.50394 0.9147 0.93001 0.0
C606 C 0.5537 0.91808 0.0548 0.0
C607 C 0.51696 0.90075 0.01806 0.0
C608 C 0.49497 0.88589 0.02548 0.0
C609 C 0.55387 0.93384 1.00285 0.0
C610 C 0.53598 0.93227 0.95638 0.0
C611 C 0.51797 0.91559 0.96471 0.0
C612 C 0.53476 0.94829 0.9 0.0
C613 C 0.57339 0.95192 0.99766 0.0
C614 C 0.53101 0.97251 0.90747 0.0
C615 C 0.52764 0.98718 0.85484 0.0
C616 C 0.5279 0.97808 0.79301 0.0
C617 C 0.53203 0.95385 0.78547 0.0
C618 C 0.53524 0.93913 0.83833 0.0
H619 H 0.58876 0.94729 0.02752 0.0
H620 H 0.57931 0.95397 0.94804 0.0
H621 H 0.56671 0.96919 1.01372 0.0
H622 H 0.53003 0.98003 0.95425 0.0
H623 H 0.52456 1.00571 0.86284 0.0
H624 H 0.70746 0.52045 0.20069 0.0
H625 H 0.67814 0.5114 0.11867 0.0
H626 H 0.6489 0.58072 0.1399 0.0
H627 H 0.67667 0.58888 0.2246 0.0
H628 H 0.61542 0.555 0.1126 0.0
H629 H 0.68459 0.53081 0.94182 0.0
H630 H 0.68393 0.51122 1.00814 0.0
H631 H 0.69156 0.54178 0.01928 0.0
C632 C 0.69406 0.5333 0.18983 0.0
C633 C 0.69443 0.55536 0.21979 0.0
C634 C 0.67768 0.52841 0.14132 0.0
C635 C 0.66169 0.54569 0.12039 0.0
C636 C 0.66098 0.567 0.15388 0.0
H637 H 0.59263 0.55123 0.74727 0.0
H638 H 0.62014 0.55497 0.83634 0.0
C639 C 0.67684 0.57162 0.20308 0.0
C640 C 0.64593 0.5422 0.06358 0.0
H641 H 0.64503 0.52564 0.90791 0.0
C642 C 0.62207 0.54858 0.06802 0.0
C643 C 0.65435 0.53447 1.004 0.0
C644 C 0.68005 0.52944 0.99267 0.0
C645 C 0.60664 0.54732 0.01596 0.0
C646 C 0.6147 0.53824 0.95773 0.0
C647 C 0.63858 0.53216 0.95264 0.0
C648 C 0.59856 0.53506 0.90201 0.0
C649 C 0.58198 0.55664 0.0235 0.0
C650 C 0.57745 0.52213 0.908 0.0
C651 C 0.56159 0.52029 0.85748 0.0
C652 C 0.56658 0.53087 0.79891 0.0
C653 C 0.58819 0.54292 0.79177 0.0
C654 C 0.60396 0.54506 0.84279 0.0
H655 H 0.58102 0.56971 0.06222 0.0
H656 H 0.57566 0.5651 0.97939 0.0
H657 H 0.56987 0.54189 0.03549 0.0
H658 H 0.57312 0.51348 0.95208 0.0
H659 H 0.54542 0.51036 0.8642 0.0
H660 H 0.01497 0.72807 0.15075 0.0
H661 H 0.02155 0.70003 0.06458 0.0
H662 H 0.97963 0.64807 0.16266 0.0
H663 H 0.97293 0.67611 0.24822 0.0
H664 H 0.03967 0.65414 0.05487 0.0
H665 H 0.94461 0.65423 0.99526 0.0
H666 H 0.95752 0.6751 0.04949 0.0
H667 H 0.95089 0.64557 0.07493 0.0
C668 C 1.00813 0.7103 0.15526 0.0
C669 C 0.99399 0.70411 0.2073 0.0
C670 C 1.01151 0.69438 0.10538 0.0
C671 C 1.00061 0.67203 0.10609 0.0
C672 C 0.98784 0.66531 0.16005 0.0
H673 H 0.98095 0.55841 0.83266 0.0
H674 H 0.97865 0.58585 0.92079 0.0
C675 C 0.98446 0.68118 0.20977 0.0
C676 C 1.00198 0.65607 0.04992 0.0
H677 H 0.96836 0.62745 0.93952 0.0
C678 C 0.02409 0.64832 0.02953 0.0
C679 C 0.98166 0.64834 0.01668 0.0
C680 C 0.95733 0.65637 0.03473 0.0
C681 C 0.02647 0.63255 0.97867 0.0
C682 C 1.00616 0.62493 0.9447 0.0
C683 C 0.98403 0.63301 0.96486 0.0
C684 C 1.00732 0.60837 0.88926 0.0
C685 C 0.0508 0.62356 0.96422 0.0
C686 C 0.02375 0.61176 0.84031 0.0
C687 C 0.02583 0.59538 0.79129 0.0
C688 C 1.01064 0.57572 0.78739 0.0
C689 C 0.99315 0.57314 0.83402 0.0
C690 C 0.99174 0.58901 0.8846 0.0
H691 H 0.06238 0.62433 1.00644 0.0
H692 H 0.05027 0.60512 0.94724 0.0
H693 H 0.059 0.63488 0.92745 0.0
H694 H 0.03524 0.62702 0.84005 0.0
H695 H 0.03953 0.59817 0.75657 0.0
H696 H 0.09225 0.251 0.09344 0.0
H697 H 0.08825 0.21708 0.16324 0.0
H698 H 0.04638 0.25826 0.29103 0.0
H699 H 0.04793 0.29132 0.21819 0.0
H700 H 0.09435 0.20211 0.278 0.0
H701 H 0.9989 0.2109 0.23261 0.0
H702 H 0.02043 0.22925 0.19346 0.0
H703 H 1.01005 0.23662 0.27126 0.0
C704 C 0.08246 0.25288 0.13692 0.0
C705 C 0.06948 0.27331 0.14904 0.0
C706 C 0.08035 0.23358 0.17683 0.0
C707 C 0.06604 0.23502 0.23023 0.0
C708 C 0.05662 0.2567 0.2482 0.0
H709 H 0.01392 0.16857 0.53217 0.0
H710 H 0.04104 0.1873 0.45731 0.0
C711 C 0.05792 0.27572 0.20711 0.0
C712 C 0.05863 0.21346 0.26274 0.0
H713 H 1.00983 0.18537 0.31834 0.0
C714 C 0.07589 0.19824 0.28631 0.0
C715 C 0.03445 0.20787 0.27023 0.0
C716 C 0.01495 0.22189 0.23978 0.0
C717 C 0.06951 0.17872 0.32295 0.0
C718 C 0.04559 0.17502 0.33668 0.0
C719 C 0.02828 0.18884 0.30829 0.0
C720 C 0.03783 0.15969 0.38771 0.0
C721 C 0.08814 0.16263 0.34871 0.0
C722 C 0.0281 0.13771 0.37345 0.0
C723 C 1.01272 0.12706 0.41595 0.0
C724 C 1.00674 0.13863 0.47221 0.0
C725 C 0.01816 0.15962 0.48867 0.0
C726 C 0.03384 0.17005 0.4466 0.0
H727 H 0.10552 0.16586 0.32615 0.0
H728 H 0.08987 0.16539 0.4003 0.0
H729 H 0.08286 0.14399 0.3411 0.0
H730 H 0.03074 0.12987 0.3275 0.0
H731 H 1.00401 0.11081 0.40246 0.0
H732 H 0.27916 0.11947 0.1489 0.0
H733 H 0.3079 0.10857 0.23194 0.0
H734 H 0.28332 0.03659 0.22382 0.0
H735 H 0.25523 0.0471 0.14268 0.0
H736 H 0.29651 0.07311 0.35934 0.0
H737 H 0.35817 0.04573 0.16995 0.0
H738 H 0.33592 0.0678 0.15718 0.0
H739 H 0.32796 0.03714 0.15854 0.0
C740 C 0.27968 0.10157 0.16648 0.0
C741 C 0.26485 0.0842 0.14117 0.0
C742 C 0.29588 0.0954 0.2134 0.0
C743 C 0.29718 0.07194 0.2338 0.0
C744 C 0.28205 0.05485 0.20922 0.0
H745 H 0.38893 0.97327 0.36423 0.0
H746 H 0.34972 0.99096 0.3608 0.0
C747 C 0.26606 0.0609 0.16319 0.0
C748 C 0.31575 0.06388 0.27564 0.0
H749 H 0.36402 0.02927 0.27142 0.0
C750 C 0.31167 0.06395 0.34085 0.0
C751 C 0.33495 0.05162 0.25018 0.0
C752 C 0.33966 0.05065 0.1801 0.0
C753 C 0.32623 0.05118 0.38168 0.0
C754 C 0.3448 0.03818 0.35566 0.0
C755 C 0.34926 0.03891 0.29069 0.0
C756 C 0.36169 0.02507 0.39347 0.0
C757 C 0.32143 0.05102 0.45152 0.0
C758 C 0.38059 0.03794 0.41829 0.0
C759 C 0.40284 0.02805 0.41918 0.0
C760 C 0.40611 1.0052 0.39584 0.0
C761 C 0.38665 0.9912 0.38008 0.0
C762 C 0.3643 1.00105 0.38001 0.0
H763 H 0.30431 0.05928 0.46302 0.0
H764 H 0.32147 0.03269 0.46985 0.0
H765 H 0.33567 0.06086 0.47613 0.0
H766 H 0.37884 0.05654 0.42835 0.0
H767 H 0.41775 0.0389 0.43294 0.0
H768 H 0.49093 0.28205 0.07787 0.0
H769 H 0.50228 0.31163 0.15366 0.0
H770 H 0.44144 0.29438 0.26684 0.0
H771 H 0.4294 0.26424 0.18883 0.0
H772 H 0.45448 0.34767 0.21237 0.0
H773 H 0.52393 0.29929 0.3457 0.0
H774 H 0.52131 0.29493 0.262 0.0
H775 H 0.49855 0.28412 0.31327 0.0
C776 C 0.47956 0.28481 0.11802 0.0
C777 C 0.45854 0.27184 0.12614 0.0
C778 C 0.48633 0.30142 0.16163 0.0
C779 C 0.47247 0.30505 0.21469 0.0
C780 C 0.452 0.29164 0.22507 0.0
H781 H 0.51781 0.39311 0.50875 0.0
H782 H 0.48861 0.37353 0.44139 0.0
C783 C 0.44509 0.27477 0.18081 0.0
C784 C 0.47916 0.32412 0.25641 0.0
H785 H 0.52137 0.34002 0.36142 0.0
C786 C 0.46864 0.34606 0.24648 0.0
C787 C 0.49845 0.32173 0.2976 0.0
C788 C 0.51129 0.29876 0.30564 0.0
C789 C 0.4771 0.36605 0.27759 0.0
C790 C 0.49594 0.36342 0.31996 0.0
C791 C 0.50643 0.3415 0.32967 0.0
C792 C 0.50626 0.38293 0.35442 0.0
C793 C 0.46652 0.38976 0.26406 0.0
C794 C 0.52512 0.39515 0.32679 0.0
C795 C 0.54207 0.40564 0.36508 0.0
C796 C 0.54005 0.40375 0.43064 0.0
C797 C 0.51995 0.39363 0.45797 0.0
C798 C 0.50303 0.38322 0.41981 0.0
H799 H 0.4516 0.38861 0.23021 0.0
H800 H 0.46025 0.39776 0.30862 0.0
H801 H 0.48021 0.40167 0.24408 0.0
H802 H 0.52779 0.3948 0.2762 0.0
H803 H 0.557 0.41459 0.34384 0.0
H804 H 0.28152 0.46748 0.18258 0.0
H805 H 0.248 0.45963 0.25235 0.0
H806 H 0.21988 0.52803 0.2075 0.0
H807 H 0.25322 0.53577 0.13683 0.0
H808 H 0.23134 0.48878 0.35595 0.0
H809 H 0.16638 0.47936 0.16216 0.0
H810 H 0.19759 0.47442 0.15186 0.0
H811 H 0.18628 0.50385 0.15296 0.0
C812 C 0.26849 0.48106 0.18942 0.0
C813 C 0.26966 0.50225 0.15535 0.0
C814 C 0.24931 0.47639 0.22807 0.0
C815 C 0.23135 0.49292 0.23257 0.0
C816 C 0.23341 0.51484 0.20236 0.0
H817 H 0.14135 0.56618 0.39144 0.0
H818 H 0.15929 0.53812 0.31962 0.0
C819 C 0.25249 0.51944 0.16334 0.0
C820 C 0.21069 0.48804 0.27112 0.0
H821 H 0.15117 0.4924 0.2632 0.0
C822 C 0.21367 0.48852 0.33639 0.0
C823 C 0.18796 0.48747 0.2443 0.0
C824 C 0.1843 0.48602 0.1739 0.0
C825 C 0.19444 0.49208 0.37582 0.0
C826 C 0.17179 0.49432 0.34851 0.0
C827 C 0.16856 0.49047 0.28376 0.0
C828 C 0.15403 0.50809 0.38153 0.0
C829 C 0.19901 0.49693 0.44482 0.0
C830 C 0.14414 0.5001 0.43829 0.0
C831 C 0.13416 0.51624 0.47962 0.0
C832 C 0.13421 0.54024 0.46396 0.0
C833 C 0.14198 0.54776 0.40469 0.0
C834 C 0.15172 0.53171 0.36339 0.0
H835 H 0.21793 0.49538 0.45744 0.0
H836 H 0.19323 0.51499 0.45682 0.0
H837 H 0.18882 0.48432 0.47426 0.0
H838 H 0.14578 0.48187 0.45255 0.0
H839 H 0.12758 0.51025 0.52491 0.0
H840 H 0.95007 0.74477 0.11244 0.0
H841 H 0.96472 0.77318 0.03659 0.0
H842 H 0.96411 0.82729 0.1779 0.0
H843 H 0.94917 0.79988 0.25452 0.0
H844 H 0.94541 0.82071 1.00377 0.0
H845 H 0.03512 0.82186 0.11001 0.0
H846 H 0.01471 0.79764 0.12103 0.0
H847 H 1.01113 0.82436 0.16482 0.0
C848 C 0.95258 0.76265 0.12833 0.0
C849 C 0.94966 0.76909 0.19233 0.0
C850 C 0.96116 0.77885 0.08436 0.0
C851 C 0.96638 0.80184 0.10301 0.0
C852 C 0.96086 0.80925 0.16374 0.0
H853 H 0.03274 0.92416 0.945 0.0
H854 H 1.00633 0.89858 1.00659 0.0
C855 C 0.95208 0.79325 0.20755 0.0
C856 C 0.97716 0.81852 0.05892 0.0
H857 H 0.02682 0.85107 0.03391 0.0
C858 C 0.96324 0.82731 1.0098 0.0
C859 C 1.00042 0.82684 0.06774 0.0
C860 C 0.01635 0.8171 0.11841 0.0
C861 C 0.97187 0.84492 0.96972 0.0
C862 C 0.99492 0.85352 0.97927 0.0
C863 C 1.00896 0.8445 0.02786 0.0
C864 C 1.00577 0.87077 0.93708 0.0
C865 C 0.95629 0.85455 0.91834 0.0
C866 C 1.0136 0.86349 0.87775 0.0
C867 C 0.02901 0.87772 0.84354 0.0
C868 C 0.03644 0.89931 0.86846 0.0
C869 C 0.02733 0.9073 0.92586 0.0
C870 C 1.01217 0.89294 0.96045 0.0
H871 H 0.93768 0.84875 0.92399 0.0
H872 H 0.95702 0.87408 0.9181 0.0
H873 H 0.96271 0.84838 0.8719 0.0
H874 H 1.00888 0.84628 0.85969 0.0
H875 H 0.03556 0.8717 0.79848 0.0
H876 H 0.79526 0.99004 0.1415 0.0
H877 H 0.76749 1.00459 0.06573 0.0
H878 H 0.71886 0.94879 0.11445 0.0
H879 H 0.74696 0.93389 0.19351 0.0
H880 H 0.74621 0.9817 0.961 0.0
H881 H 0.68363 1.0124 0.14504 0.0
H882 H 0.71403 1.00589 0.16218 0.0
H883 H 0.69309 0.98238 0.15198 0.0
C884 C 0.77921 0.98001 0.1348 0.0
C885 C 0.77363 0.96019 0.17243 0.0
C886 C 0.76321 0.98867 0.09178 0.0
C887 C 0.7414 0.97767 0.08489 0.0
C888 C 0.73584 0.95738 0.11988 0.0
H889 H 0.61901 1.00033 0.89741 0.0
H890 H 0.65876 0.9845 0.90661 0.0
C891 C 0.7519 0.94871 0.16396 0.0
C892 C 0.7244 0.98829 0.04218 0.0
H893 H 0.67239 0.01716 0.03924 0.0
C894 C 0.72995 0.98936 0.9777 0.0
C895 C 0.70392 0.99907 0.0654 0.0
C896 C 0.6983 1.00015 0.13495 0.0
C897 C 0.71472 1.00013 0.93485 0.0
C898 C 0.69374 1.00969 0.95781 0.0
C899 C 0.68864 1.00943 0.02248 0.0
C900 C 0.67539 0.01867 0.91682 0.0
C901 C 0.7208 1.0011 0.8658 0.0
C902 C 0.67224 0.04307 0.91513 0.0
C903 C 0.64959 0.05204 0.9118 0.0
C904 C 0.6304 0.03653 0.9092 0.0
C905 C 0.63386 1.01236 0.90117 0.0
C906 C 0.65647 1.00341 0.90463 0.0
H907 H 0.73914 0.99538 0.85676 0.0
H908 H 0.70852 0.9895 0.83926 0.0
H909 H 0.71857 0.01929 0.84755 0.0
H910 H 0.68684 0.05493 0.92462 0.0
H911 H 0.64694 0.07084 0.91543 0.0
H912 H 0.60741 0.75752 0.19021 0.0
H913 H 0.60386 0.72411 0.11781 0.0
H914 H 0.54674 0.7589 0.02203 0.0
H915 H 0.55036 0.79207 0.09328 0.0
H916 H 0.55874 0.70148 0.1233 0.0
H917 H 0.58186 0.72624 0.87808 0.0
H918 H 0.59441 0.7408 0.94622 0.0
H919 H 0.56547 0.74837 0.91876 0.0
C920 C 0.59515 0.75853 0.15109 0.0
C921 C 0.57935 0.77732 0.14645 0.0
C922 C 0.593 0.73944 0.11035 0.0
C923 C 0.57525 0.73927 0.06442 0.0
C924 C 0.56102 0.75908 0.05599 0.0
H925 H 0.47165 0.66926 0.8743 0.0
H926 H 0.5023 0.69427 0.92092 0.0
C927 C 0.56319 0.77811 0.09649 0.0
C928 C 0.56808 0.7172 0.03404 0.0
H929 H 0.55164 0.69608 0.89059 0.0
C930 C 0.55789 0.69973 0.07239 0.0
C931 C 0.56684 0.71536 0.96789 0.0
C932 C 0.57793 0.73362 0.9253 0.0
C933 C 0.54446 0.68151 0.04605 0.0
C934 C 0.54185 0.68061 0.97986 0.0
C935 C 0.55373 0.69695 0.9414 0.0
C936 C 0.52412 0.66519 0.95062 0.0
C937 C 0.53148 0.66465 0.08918 0.0
C938 C 0.52636 0.64069 0.95265 0.0
C939 C 0.50875 0.62644 0.92696 0.0
C940 C 0.48877 0.63658 0.89893 0.0
C941 C 0.48659 0.66111 0.89719 0.0
C942 C 0.50421 0.67533 0.92273 0.0
H943 H 0.53263 0.66998 0.13946 0.0
H944 H 0.51261 0.66344 0.07569 0.0
H945 H 0.53912 0.64683 0.08466 0.0
H946 H 0.54173 0.63266 0.97371 0.0
H947 H 0.51086 0.60751 0.92799 0.0
H948 H 0.79069 0.61602 0.21975 0.0
H949 H 0.82329 0.60588 0.14845 0.0
H950 H 0.78037 0.55129 0.06528 0.0
H951 H 0.74828 0.56101 0.13434 0.0
H952 H 0.83905 0.55177 0.14398 0.0
H953 H 0.81101 0.59248 0.91711 0.0
H954 H 0.80289 0.60442 0.99301 0.0
H955 H 0.78857 0.57836 0.96392 0.0
C956 C 0.78798 0.60262 0.1842 0.0
C957 C 0.76674 0.58979 0.1817 0.0
C958 C 0.8066 0.59665 0.14447 0.0
C959 C 0.8039 0.57799 0.10202 0.0
C960 C 0.78244 0.56603 0.0972 0.0
H961 H 0.86262 0.48666 0.83928 0.0
H962 H 0.8392 0.51323 0.90416 0.0
C963 C 0.76397 0.57197 0.13616 0.0
C964 C 0.82357 0.56954 0.0644 0.0
H965 H 0.8394 0.5619 0.91132 0.0
C966 C 0.83977 0.55448 0.09332 0.0
C967 C 0.82358 0.57263 0.99848 0.0
C968 C 0.80566 0.58795 0.96606 0.0
C969 C 0.85545 0.5414 0.05699 0.0
C970 C 0.85517 0.54423 0.9907 0.0
C971 C 0.83961 0.56006 0.96227 0.0
C972 C 0.86941 0.52936 0.94969 0.0
C973 C 0.87099 0.52353 0.08923 0.0
C974 C 0.89398 0.53007 0.95368 0.0
C975 C 0.90726 0.51468 0.91785 0.0
C976 C 0.89611 0.49869 0.87677 0.0
C977 C 0.87152 0.49851 0.87154 0.0
C978 C 0.85823 0.5138 0.90786 0.0
H979 H 0.86514 0.51973 0.13822 0.0
H980 H 0.87121 0.50675 0.06255 0.0
H981 H 0.8893 0.53046 0.09134 0.0
H982 H 0.90282 0.54228 0.9851 0.0
H983 H 0.92624 0.51509 0.92289 0.0
H984 H 0.08295 0.27768 0.90745 0.0
H985 H 0.07978 0.24005 0.85216 0.0
H986 H 1.0052 0.23837 0.88768 0.0
H987 H 1.00845 0.27596 0.94419 0.0
H988 H 0.03553 0.19649 0.9343 0.0
H989 H 0.04778 0.21811 0.68018 0.0
H990 H 0.06547 0.23313 0.73829 0.0
H991 H 0.03452 0.23876 0.73392 0.0
C992 C 0.06559 0.27013 0.89992 0.0
C993 C 0.04584 0.2804 0.92905 0.0
C994 C 0.06388 0.24821 0.8694 0.0
C995 C 0.04227 0.23605 0.86597 0.0
C996 C 0.02213 0.24722 0.88987 0.0
H997 H 1.00338 0.10871 0.66032 0.0
H998 H 1.00792 0.14817 0.70505 0.0
C999 C 0.02388 0.26912 0.92082 0.0
C1000 C 0.04102 0.21114 0.84181 0.0
H1001 H 0.04354 0.17821 0.70696 0.0
C1002 C 0.03721 0.19248 0.88454 0.0
C1003 C 0.04362 0.20569 0.77716 0.0
C1004 C 0.04803 0.22486 0.72928 0.0
C1005 C 0.0355 0.16877 0.86433 0.0
C1006 C 0.03755 0.16332 0.7991 0.0
C1007 C 0.04171 0.18207 0.75674 0.0
C1008 C 0.03468 0.13864 0.77311 0.0
C1009 C 0.03098 0.14993 0.91326 0.0
C1010 C 0.04824 0.11966 0.79537 0.0
C1011 C 0.04542 0.09688 0.77007 0.0
C1012 C 0.02933 0.09233 0.72076 0.0
C1013 C 0.01609 0.11139 0.69776 0.0
C1014 C 0.01866 0.13409 0.72362 0.0
H1015 H 0.02372 0.15737 0.95749 0.0
H1016 H 0.01856 0.13633 0.89533 0.0
H1017 H 0.04785 0.14126 0.92527 0.0
H1018 H 0.06132 0.12244 0.8318 0.0
H1019 H 0.05625 0.08292 0.78846 0.0
H1020 H 0.27258 0.02327 0.98637 0.0
H1021 H 0.31001 0.01574 0.93187 0.0
H1022 H 0.30381 0.08163 0.83266 0.0
H1023 H 0.26652 0.08913 0.88672 0.0
H1024 H 0.32296 0.03305 0.76373 0.0
H1025 H 0.36846 0.0667 0.97881 0.0
H1026 H 0.34251 0.04837 0.98638 0.0
H1027 H 0.33992 0.07763 0.95575 0.0
C1028 C 0.27854 0.03552 0.95042 0.0
C1029 C 0.26616 0.05653 0.93977 0.0
C1030 C 0.30019 0.03142 0.92013 0.0
C1031 C 0.3099 0.04824 0.87855 0.0
C1032 C 0.29672 0.06835 0.86429 0.0
H1033 H 0.45101 0.07298 0.71942 0.0
H1034 H 0.41154 0.07745 0.76525 0.0
C1035 C 0.27516 0.07245 0.89451 0.0
C1036 C 0.33449 0.04593 0.85391 0.0
H1037 H 0.39234 0.05594 0.89302 0.0
C1038 C 0.33811 0.03792 0.79211 0.0
C1039 C 0.35433 0.05263 0.89052 0.0
C1040 C 0.35136 0.06188 0.9566 0.0
C1041 C 0.36096 0.03615 0.76643 0.0
C1042 C 0.38082 0.04258 0.80325 0.0
C1043 C 0.37719 0.05092 0.86477 0.0
C1044 C 0.40541 0.04016 0.77867 0.0
C1045 C 0.36383 0.02765 0.69962 0.0
C1046 C 0.41545 0.01781 0.77224 0.0
C1047 C 0.43811 0.01524 0.747 0.0
C1048 C 0.45131 0.03492 0.72647 0.0
C1049 C 0.44144 0.0574 0.73445 0.0
C1050 C 0.4188 0.05998 0.7605 0.0
H1051 H 0.34676 0.0267 0.67408 0.0
H1052 H 0.37599 0.03949 0.67323 0.0
H1053 H 0.3717 1.00984 0.70023 0.0
H1054 H 0.4057 1.00226 0.7868 0.0
H1055 H 0.44536 0.99775 0.74422 0.0
H1056 H 0.44952 0.27176 0.87947 0.0
H1057 H 0.45707 0.31011 0.83008 0.0
H1058 H 0.52349 0.31496 0.92741 0.0
H1059 H 0.51597 0.27641 0.97707 0.0
H1060 H 0.48632 0.35602 0.94095 0.0
H1061 H 0.50948 0.3321 0.69458 0.0
H1062 H 0.48627 0.31587 0.73356 0.0
H1063 H 0.51601 0.31301 0.76062 0.0
C1064 C 0.46631 0.28039 0.88791 0.0
C1065 C 0.48237 0.27053 0.9313 0.0
C1066 C 0.47042 0.3026 0.86043 0.0
C1067 C 0.49078 0.3157 0.87515 0.0
C1068 C 0.50759 0.30534 0.91529 0.0
H1069 H 0.54074 0.44729 0.70431 0.0
H1070 H 0.53578 0.40769 0.74769 0.0
C1071 C 0.50351 0.28299 0.94268 0.0
C1072 C 0.49378 0.34049 0.85087 0.0
H1073 H 0.50508 0.37239 0.71664 0.0
C1074 C 0.4905 0.3596 0.89194 0.0
C1075 C 0.49912 0.34536 0.78696 0.0
C1076 C 0.50305 0.32562 0.741 0.0
C1077 C 0.49231 0.38323 0.87077 0.0
C1078 C 0.4975 0.38812 0.80647 0.0
C1079 C 0.50099 0.36893 0.76575 0.0
C1080 C 0.50021 0.41286 0.78079 0.0
C1081 C 0.48906 0.40277 0.91786 0.0
C1082 C 0.48182 0.42937 0.78377 0.0
C1083 C 0.4846 0.45226 0.75851 0.0
C1084 C 0.50587 0.45937 0.72964 0.0
C1085 C 0.52413 0.44274 0.72645 0.0
C1086 C 0.5213 0.4199 0.75125 0.0
H1087 H 0.49111 0.39641 0.96717 0.0
H1088 H 0.50187 0.4173 0.90947 0.0
H1089 H 0.47106 0.40998 0.91283 0.0
H1090 H 0.46515 0.42449 0.80493 0.0
H1091 H 0.47005 0.46437 0.76175 0.0
H1092 H 0.26346 0.45671 0.95774 0.0
H1093 H 0.22574 0.45766 0.90113 0.0
H1094 H 0.24043 0.52875 0.84184 0.0
H1095 H 0.27812 0.52784 0.89863 0.0
H1096 H 0.19311 0.51351 0.92545 0.0
H1097 H 0.20818 0.46902 0.69581 0.0
H1098 H 0.22191 0.45822 0.76701 0.0
H1099 H 0.2315 0.48563 0.73363 0.0
C1100 C 0.25941 0.47201 0.92921 0.0
C1101 C 0.27444 0.49194 0.93124 0.0
C1102 C 0.23747 0.47274 0.898 0.0
C1103 C 0.22995 0.49337 0.86745 0.0
C1104 C 0.24569 0.51261 0.86498 0.0
H1105 H 0.10611 0.52956 0.64032 0.0
H1106 H 0.14552 0.52376 0.68497 0.0
C1107 C 0.26761 0.51188 0.89626 0.0
C1108 C 0.20516 0.4956 0.84258 0.0
H1109 H 0.17028 0.48403 0.714 0.0
C1110 C 0.1881 0.50702 0.87925 0.0
C1111 C 0.1984 0.48703 0.78262 0.0
C1112 C 0.21582 0.47425 0.74198 0.0
C1113 C 0.16478 0.51041 0.85726 0.0
C1114 C 0.15805 0.50219 0.79648 0.0
C1115 C 0.17516 0.49056 0.76022 0.0
C1116 C 0.13361 0.50573 0.7693 0.0
C1117 C 0.14776 0.52336 0.89899 0.0
C1118 C 0.11333 0.49744 0.80076 0.0
C1119 C 0.09067 0.50096 0.7754 0.0
C1120 C 0.08734 0.51251 0.71705 0.0
C1121 C 0.10769 0.52048 0.68507 0.0
C1122 C 0.1304 0.51715 0.71075 0.0
H1123 H 0.15703 0.53367 0.93604 0.0
H1124 H 0.1366 0.53546 0.87093 0.0
H1125 H 0.13607 0.51042 0.92301 0.0
H1126 H 0.11497 0.48801 0.84497 0.0
H1127 H 0.07575 0.49445 0.80176 0.0
H1128 H 0.01602 0.78748 0.29074 0.0
H1129 H 0.02287 0.82584 0.34104 0.0
H1130 H 0.97312 0.80726 0.48666 0.0
H1131 H 0.96726 0.76879 0.43833 0.0
H1132 H 0.99298 0.86063 0.35579 0.0
H1133 H 0.02155 0.83549 0.59611 0.0
H1134 H 0.02013 0.81448 0.53269 0.0
H1135 H 0.99393 0.82215 0.57563 0.0
C1136 C 1.00763 0.79108 0.3355 0.0
C1137 C 0.99172 0.77462 0.36163 0.0
C1138 C 1.01113 0.8133 0.36364 0.0
C1139 C 0.99881 0.81968 0.41867 0.0
C1140 C 0.98355 0.80285 0.44578 0.0
H1141 H 0.97391 0.95496 0.60924 0.0
H1142 H 0.97015 0.91524 0.56429 0.0
C1143 C 0.98027 0.78065 0.41816 0.0
C1144 C 1.00063 0.84426 0.4453 0.0
H1145 H 1.00946 0.87532 0.5821 0.0
C1146 C 0.99685 0.86373 0.40518 0.0
C1147 C 1.00538 0.84871 0.51006 0.0
C1148 C 1.01069 0.82911 0.55593 0.0
C1149 C 0.99751 0.8871 0.42788 0.0
C1150 C 1.0022 0.8914 0.4924 0.0
C1151 C 1.00582 0.87208 0.53264 0.0
C1152 C 1.00415 0.91586 0.51854 0.0
C1153 C 0.99289 0.90719 0.38302 0.0
C1154 C 0.02452 0.92954 0.50819 0.0
C1155 C 0.02692 0.95206 0.53493 0.0
C1156 C 1.00881 0.96167 0.57186 0.0
C1157 C 0.98818 0.94815 0.58103 0.0
C1158 C 0.98601 0.9254 0.55536 0.0
H1159 H 0.98631 0.90098 0.33654 0.0
H1160 H 0.97979 0.91938 0.40355 0.0
H1161 H 1.00944 0.91732 0.37552 0.0
H1162 H 0.03876 0.92265 0.47998 0.0
H1163 H 0.04293 0.96204 0.52632 0.0
H1164 H 0.75595 0.01852 0.28619 0.0
H1165 H 0.7182 0.02581 0.33862 0.0
H1166 H 0.73832 0.97949 0.49029 0.0
H1167 H 0.77598 0.97224 0.43779 0.0
H1168 H 0.68474 0.98945 0.3642 0.0
H1169 H 0.70961 0.03457 0.58655 0.0
H1170 H 0.72923 0.03319 0.5197 0.0
H1171 H 0.72529 1.00799 0.57008 0.0
C1172 C 0.7529 1.01101 0.33254 0.0
C1173 C 0.76953 0.99558 0.35905 0.0
C1174 C 0.73103 1.01477 0.36193 0.0
C1175 C 0.72523 1.00338 0.41897 0.0
C1176 C 0.74235 0.98896 0.4472 0.0
H1177 H 0.59881 1.00118 0.65987 0.0
H1178 H 0.63804 0.9958 0.61428 0.0
C1179 C 0.76413 0.98507 0.41756 0.0
C1180 C 0.70078 1.00504 0.44613 0.0
H1181 H 0.66997 0.02246 0.57638 0.0
C1182 C 0.6815 0.9968 0.41051 0.0
C1183 C 0.69637 1.01407 0.50712 0.0
C1184 C 0.71615 0.02313 0.5481 0.0
C1185 C 0.65822 0.99708 0.43417 0.0
C1186 C 0.65362 1.00694 0.49452 0.0
C1187 C 0.67305 1.01501 0.53017 0.0
C1188 C 0.62906 1.00926 0.52159 0.0
C1189 C 0.63906 0.98583 0.3948 0.0
C1190 C 0.61044 0.01872 0.48571 0.0
C1191 C 0.58777 0.02117 0.51142 0.0
C1192 C 0.5831 1.01506 0.57461 0.0
C1193 C 0.60173 1.00613 0.61111 0.0
C1194 C 0.62428 1.00308 0.58487 0.0
H1195 H 0.64625 0.97189 0.36387 0.0
H1196 H 0.62503 0.97788 0.42462 0.0
H1197 H 0.63112 0.99935 0.36368 0.0
H1198 H 0.61344 0.02465 0.43784 0.0
H1199 H 0.57396 0.02842 0.4821 0.0
H1200 H 0.51847 0.783 0.39268 0.0
H1201 H 0.51462 0.74852 0.46231 0.0
H1202 H 0.58284 0.72571 0.39713 0.0
H1203 H 0.58988 0.76302 0.35285 0.0
H1204 H 0.507 0.71073 0.46687 0.0
H1205 H 0.5984 0.69172 0.5324 0.0
H1206 H 0.59127 0.72036 0.50344 0.0
H1207 H 0.5992 0.69662 0.44981 0.0
C1208 C 0.53336 0.77144 0.39875 0.0
C1209 C 0.55442 0.77588 0.3657 0.0
C1210 C 0.53095 0.7509 0.43696 0.0
C1211 C 0.54871 0.73325 0.43862 0.0
C1212 C 0.56948 0.73858 0.40541 0.0
H1213 H 0.53768 0.58007 0.48485 0.0
H1214 H 0.54163 0.62069 0.44657 0.0
C1215 C 0.57314 0.76026 0.37641 0.0
C1216 C 0.54513 0.70891 0.46928 0.0
H1217 H 0.57388 0.65834 0.51493 0.0
C1218 C 0.52199 0.69999 0.47857 0.0
C1219 C 0.56408 0.69359 0.48719 0.0
C1220 C 0.58951 0.7013 0.49341 0.0
C1221 C 0.51753 0.67707 0.50234 0.0
C1222 C 0.53642 0.66156 0.51303 0.0
C1223 C 0.55934 0.67004 0.50461 0.0
C1224 C 0.533 0.63677 0.53581 0.0
C1225 C 0.49257 0.66951 0.51633 0.0
C1226 C 0.52728 0.63211 0.59907 0.0
C1227 C 0.52544 0.60886 0.62146 0.0
C1228 C 0.52901 0.58956 0.58106 0.0
C1229 C 0.53472 0.59432 0.51754 0.0
C1230 C 0.53689 0.61761 0.4954 0.0
H1231 H 0.47948 0.68222 0.49794 0.0
H1232 H 0.48887 0.65188 0.49601 0.0
H1233 H 0.49029 0.6681 0.56823 0.0
H1234 H 0.52461 0.64651 0.63152 0.0
H1235 H 0.52133 0.60613 0.67071 0.0
H1236 H 0.78106 0.52611 0.29444 0.0
H1237 H 0.8192 0.51963 0.34583 0.0
H1238 H 0.79939 0.56663 0.49529 0.0
H1239 H 0.76129 0.57292 0.44401 0.0
H1240 H 0.85261 0.55402 0.36433 0.0
H1241 H 0.83001 0.51499 0.59656 0.0
H1242 H 0.80937 0.5157 0.53177 0.0
H1243 H 0.81433 0.54151 0.57898 0.0
C1244 C 0.78424 0.53385 0.34033 0.0
C1245 C 0.76758 0.54926 0.36635 0.0
C1246 C 0.80637 0.53061 0.36905 0.0
C1247 C 0.81243 0.54248 0.42505 0.0
C1248 C 0.79523 0.55675 0.45312 0.0
H1249 H 0.94666 0.56498 0.62925 0.0
H1250 H 0.90631 0.56823 0.58729 0.0
C1251 C 0.77316 0.56009 0.42418 0.0
C1252 C 0.83719 0.54149 0.45106 0.0
H1253 H 0.86942 0.52872 0.58378 0.0
C1254 C 0.8562 0.54829 0.4122 0.0
C1255 C 0.84221 0.53434 0.51383 0.0
C1256 C 0.82295 0.52601 0.55762 0.0
C1257 C 0.87973 0.54826 0.4343 0.0
C1258 C 0.88471 0.54094 0.49682 0.0
C1259 C 0.86575 0.53435 0.53588 0.0
C1260 C 0.90951 0.53937 0.52172 0.0
C1261 C 0.89918 0.55647 0.39094 0.0
C1262 C 0.92492 0.52203 0.49936 0.0
C1263 C 0.94778 0.51981 0.52437 0.0
C1264 C 0.95608 0.53521 0.57146 0.0
C1265 C 0.94089 0.55294 0.59277 0.0
C1266 C 0.91776 0.55476 0.56891 0.0
H1267 H 0.89224 0.56598 0.34907 0.0
H1268 H 0.91166 0.56823 0.41639 0.0
H1269 H 0.90919 0.541 0.37429 0.0
H1270 H 0.91911 0.5099 0.46314 0.0
H1271 H 0.95906 0.50608 0.50656 0.0
loop_
_geom_bond_atom_site_label_1
_geom_bond_atom_site_label_2
_geom_bond_distance
_geom_bond_site_symmetry_2
_ccdc_geom_bond_type
H0 C3 0.931 . S
H1 C6 0.928 . S
H2 C8 0.930 . S
C3 H0 0.931 . S
C3 C4 1.413 . S
C3 C5 1.360 . S
C4 C3 1.413 . S
C4 C8 1.429 . S
C5 C3 1.360 . S
C5 C6 1.372 . S
C6 H1 0.928 . S
C6 C5 1.372 . S
C6 C7 1.404 . S
C7 C6 1.404 . S
C7 C8 1.391 . S
C8 H2 0.930 . S
C8 C4 1.429 . S
C8 C7 1.391 . S
H9 C12 0.931 . S
H10 C15 0.928 . S
H11 C17 0.930 . S
C12 H9 0.931 . S
C12 C13 1.413 . S
C12 C14 1.360 . S
C13 C12 1.413 . S
C13 C17 1.429 . S
C14 C12 1.360 . S
C14 C15 1.372 . S
C15 H10 0.928 . S
C15 C14 1.372 . S
C15 C16 1.404 . S
C16 C15 1.404 . S
C16 C17 1.391 . S
C17 H11 0.930 . S
C17 C13 1.429 . S
C17 C16 1.391 . S
H18 C21 0.931 . S
H19 C24 0.928 . S
H20 C26 0.930 . S
C21 H18 0.931 . S
C21 C22 1.413 . S
C21 C23 1.360 . S
C22 C21 1.413 . S
C22 C26 1.429 . S
C23 C21 1.360 . S
C23 C24 1.372 . S
C24 H19 0.928 . S
C24 C23 1.372 . S
C24 C25 1.404 . S
C25 C24 1.404 . S
C25 C26 1.391 . S
C26 H20 0.930 . S
C26 C22 1.429 . S
C26 C25 1.391 . S
H27 C30 0.931 . S
H28 C33 0.928 . S
H29 C35 0.930 . S
C30 H27 0.931 . S
C30 C31 1.413 . S
C30 C32 1.360 . S
C31 C30 1.413 . S
C31 C35 1.429 . S
C32 C30 1.360 . S
C32 C33 1.372 . S
C33 H28 0.928 . S
C33 C32 1.372 . S
C33 C34 1.404 . S
C34 C33 1.404 . S
C34 C35 1.391 . S
C35 H29 0.930 . S
C35 C31 1.429 . S
C35 C34 1.391 . S
H36 C39 0.931 . S
H37 C42 0.928 . S
H38 C44 0.930 . S
C39 H36 0.931 . S
C39 C40 1.413 1_554 S
C39 C41 1.360 . S
C40 C39 1.413 1_556 S
C40 C44 1.429 . S
C41 C39 1.360 . S
C41 C42 1.372 . S
C42 H37 0.928 . S
C42 C41 1.372 . S
C42 C43 1.404 . S
C43 C42 1.404 . S
C43 C44 1.391 1_554 S
C44 H38 0.930 . S
C44 C40 1.429 . S
C44 C43 1.391 1_556 S
H45 C48 0.931 . S
H46 C51 0.928 . S
H47 C53 0.930 . S
C48 H45 0.931 . S
C48 C49 1.413 1_554 S
C48 C50 1.360 . S
C49 C48 1.413 1_556 S
C49 C53 1.429 . S
C50 C48 1.360 . S
C50 C51 1.372 . S
C51 H46 0.928 . S
C51 C50 1.372 . S
C51 C52 1.404 . S
C52 C51 1.404 . S
C52 C53 1.391 1_554 S
C53 H47 0.930 . S
C53 C49 1.429 . S
C53 C52 1.391 1_556 S
H54 C57 0.931 . S
H55 C60 0.928 . S
H56 C62 0.930 . S
C57 H54 0.931 . S
C57 C58 1.413 1_554 S
C57 C59 1.360 . S
C58 C57 1.413 1_556 S
C58 C62 1.429 . S
C59 C57 1.360 . S
C59 C60 1.372 . S
C60 H55 0.928 . S
C60 C59 1.372 . S
C60 C61 1.404 . S
C61 C60 1.404 . S
C61 C62 1.391 1_554 S
C62 H56 0.930 . S
C62 C58 1.429 . S
C62 C61 1.391 1_556 S
H63 C66 0.931 . S
H64 C69 0.928 . S
H65 C71 0.930 . S
C66 H63 0.931 . S
C66 C67 1.413 . S
C66 C68 1.360 1_554 S
C67 C66 1.413 . S
C67 C71 1.429 . S
C68 C66 1.360 1_556 S
C68 C69 1.372 . S
C69 H64 0.928 . S
C69 C68 1.372 . S
C69 C70 1.404 1_556 S
C70 C69 1.404 1_554 S
C70 C71 1.391 . S
C71 H65 0.930 . S
C71 C67 1.429 . S
C71 C70 1.391 . S
Eu72 N101 2.600 . S
Eu72 N107 2.562 . S
Eu72 O116 2.462 . S
Eu72 O117 2.373 1_545 S
Eu72 O119 2.432 . S
Eu72 O120 2.291 1_655 S
Eu72 O124 2.335 1_655 S
Eu72 O127 2.372 . S
Eu72 C136 2.787 . S
C73 N74 1.365 . S
C73 C76 1.405 . S
C73 C80 1.448 . S
N74 C73 1.365 . S
N74 C77 1.315 1_545 S
N74 Eu83 2.600 1_545 S
C75 C77 1.387 1_545 S
C75 C78 1.367 . S
C75 H95 0.931 . S
C76 C73 1.405 . S
C76 C78 1.403 . S
C76 C82 1.439 . S
C77 N74 1.315 1_565 S
C77 C75 1.387 1_565 S
C77 H88 0.945 . S
C78 C75 1.367 . S
C78 C76 1.403 . S
C78 H99 0.929 . S
C79 C80 1.430 . S
C79 C81 1.387 . S
C79 C85 1.404 . S
C80 C73 1.448 . S
C80 C79 1.430 . S
C80 N84 1.351 . S
C81 C79 1.387 . S
C81 C82 1.374 . S
C81 H96 0.931 . S
C82 C76 1.439 . S
C82 C81 1.374 . S
C82 H97 0.931 . S
Eu83 N74 2.600 1_565 S
Eu83 N84 2.562 1_565 S
Eu83 O118 2.335 . S
Eu83 O121 2.372 . S
Eu83 O122 2.462 . S
Eu83 O123 2.373 1_565 S
Eu83 O125 2.432 . S
Eu83 O126 2.291 1_465 S
Eu83 C147 2.787 . S
N84 C80 1.351 . S
N84 Eu83 2.562 1_545 S
N84 C86 1.325 . S
C85 C79 1.404 . S
C85 C87 1.366 . S
C85 H93 0.930 . S
C86 N84 1.325 . S
C86 C87 1.416 . S
C86 H92 0.901 1_455 S
C87 C85 1.366 . S
C87 C86 1.416 . S
C87 H89 0.930 . S
H88 C77 0.945 . S
H89 C87 0.930 . S
H90 C105 0.930 . S
H91 C112 0.930 1_455 S
H92 C86 0.901 1_655 S
H93 C85 0.930 . S
H94 C108 0.929 1_455 S
H95 C75 0.931 . S
H96 C81 0.931 . S
H97 C82 0.931 . S
H98 C103 0.931 . S
H99 C78 0.929 . S
H100 C111 0.930 . S
N101 Eu72 2.600 . S
N101 C102 1.365 . S
N101 C105 1.319 . S
C102 N101 1.365 . S
C102 C104 1.405 1_545 S
C102 C110 1.448 . S
C103 H98 0.931 . S
C103 C105 1.397 . S
C103 C106 1.378 . S
C104 C102 1.405 1_565 S
C104 C106 1.401 1_565 S
C104 C137 1.439 . S
C105 H90 0.930 . S
C105 N101 1.319 . S
C105 C103 1.397 . S
C106 C103 1.378 . S
C106 C104 1.401 1_545 S
C106 H113 0.922 1_545 S
N107 Eu72 2.562 . S
N107 C108 1.325 . S
N107 C110 1.351 . S
C108 H94 0.929 1_655 S
C108 N107 1.325 . S
C108 C112 1.416 1_545 S
C109 C110 1.430 1_565 S
C109 C111 1.404 . S
C109 C138 1.387 . S
C110 C102 1.448 . S
C110 N107 1.351 . S
C110 C109 1.430 1_545 S
C111 H100 0.930 . S
C111 C109 1.404 . S
C111 C112 1.366 . S
C112 H91 0.930 1_655 S
C112 C108 1.416 1_565 S
C112 C111 1.366 . S
H113 C106 0.922 1_565 S
H114 C137 0.931 . S
H115 C138 0.931 . S
O116 Eu72 2.462 . S
O116 C136 1.252 . S
O117 Eu72 2.373 1_565 S
O117 C128 1.249 . S
O118 Eu83 2.335 . S
O118 C128 1.264 1_455 S
O119 Eu72 2.432 . S
O119 C136 1.268 . S
O120 Eu72 2.291 1_455 S
O120 C135 1.255 . S
O121 Eu83 2.372 . S
O121 C135 1.257 1_565 S
O122 Eu83 2.462 . S
O122 C147 1.252 . S
O123 Eu83 2.373 1_545 S
O123 C139 1.249 . S
O124 Eu72 2.335 1_455 S
O124 C139 1.264 . S
O125 Eu83 2.432 . S
O125 C147 1.268 . S
O126 Eu83 2.291 1_645 S
O126 C146 1.255 . S
O127 Eu72 2.372 . S
O127 C146 1.257 . S
C128 O117 1.249 . S
C128 O118 1.264 1_655 S
C129 C132 1.382 . S
C129 C134 1.390 . S
C129 C136 1.506 . S
C130 C131 1.398 . S
C130 C134 1.392 . S
C131 C130 1.398 . S
C131 C133 1.372 . S
C131 H148 0.931 . S
C132 C129 1.382 . S
C132 C133 1.390 . S
C132 H149 0.931 . S
C133 C131 1.372 . S
C133 C132 1.390 . S
C133 H150 0.929 . S
C134 C129 1.390 . S
C134 C130 1.392 . S
C134 H151 0.930 1_655 S
C135 O120 1.255 . S
C135 O121 1.257 1_545 S
C136 Eu72 2.787 . S
C136 O116 1.252 . S
C136 O119 1.268 . S
C136 C129 1.506 . S
C137 C104 1.439 . S
C137 H114 0.931 . S
C137 C138 1.374 . S
C138 C109 1.387 . S
C138 H115 0.931 . S
C138 C137 1.374 . S
C139 O123 1.249 . S
C139 O124 1.264 . S
C140 C143 1.382 . S
C140 C144 1.390 . S
C140 C147 1.506 . S
C141 C142 1.398 . S
C141 C144 1.392 . S
C142 C141 1.398 . S
C142 C145 1.372 . S
C142 H152 0.931 . S
C143 C140 1.382 . S
C143 C145 1.390 . S
C143 H153 0.931 . S
C144 C140 1.390 . S
C144 C141 1.392 . S
C144 H154 0.930 . S
C145 C142 1.372 . S
C145 C143 1.390 . S
C145 H155 0.929 . S
C146 O126 1.255 . S
C146 O127 1.257 . S
C147 Eu83 2.787 . S
C147 O122 1.252 . S
C147 O125 1.268 . S
C147 C140 1.506 . S
H148 C131 0.931 . S
H149 C132 0.931 . S
H150 C133 0.929 . S
H151 C134 0.930 1_455 S
H152 C142 0.931 . S
H153 C143 0.931 . S
H154 C144 0.930 . S
H155 C145 0.929 . S
Eu156 N185 2.600 . S
Eu156 N191 2.562 . S
Eu156 O200 2.462 . S
Eu156 O201 2.373 . S
Eu156 O203 2.432 . S
Eu156 O204 2.291 . S
Eu156 O208 2.335 1_545 S
Eu156 O211 2.372 . S
Eu156 C220 2.787 . S
C157 N158 1.365 . S
C157 C160 1.405 . S
C157 C164 1.448 . S
N158 C157 1.365 . S
N158 C161 1.319 . S
N158 Eu167 2.600 . S
C159 C161 1.397 . S
C159 C162 1.367 . S
C159 H179 0.931 . S
C160 C157 1.405 . S
C160 C162 1.403 . S
C160 C166 1.439 . S
C161 N158 1.319 . S
C161 C159 1.397 . S
C161 H172 0.930 . S
C162 C159 1.367 . S
C162 C160 1.403 . S
C162 H183 0.929 . S
C163 C164 1.430 . S
C163 C165 1.387 . S
C163 C169 1.404 . S
C164 C157 1.448 . S
C164 C163 1.430 . S
C164 N168 1.351 . S
C165 C163 1.387 . S
C165 C166 1.374 . S
C165 H180 0.931 . S
C166 C160 1.439 . S
C166 C165 1.374 . S
C166 H181 0.931 . S
Eu167 N158 2.600 . S
Eu167 N168 2.562 . S
Eu167 O202 2.335 1_565 S
Eu167 O205 2.372 . S
Eu167 O206 2.462 . S
Eu167 O207 2.373 . S
Eu167 O209 2.432 . S
Eu167 O210 2.291 1_565 S
Eu167 C231 2.787 . S
N168 C164 1.351 . S
N168 Eu167 2.562 . S
N168 C170 1.325 . S
C169 C163 1.404 . S
C169 C171 1.366 . S
C169 H177 0.930 . S
C170 N168 1.325 . S
C170 C171 1.416 . S
C170 H176 0.929 . S
C171 C169 1.366 . S
C171 C170 1.416 . S
C171 H173 0.930 . S
H172 C161 0.930 . S
H173 C171 0.930 . S
H174 C189 0.930 . S
H175 C196 0.930 . S
H176 C170 0.929 . S
H177 C169 0.930 . S
H178 C192 0.929 . S
H179 C159 0.931 . S
H180 C165 0.931 . S
H181 C166 0.931 . S
H182 C187 0.931 . S
H183 C162 0.929 . S
H184 C195 0.930 . S
N185 Eu156 2.600 . S
N185 C186 1.365 . S
N185 C189 1.319 . S
C186 N185 1.365 . S
C186 C188 1.405 . S
C186 C194 1.448 . S
C187 H182 0.931 . S
C187 C189 1.397 . S
C187 C190 1.367 . S
C188 C186 1.405 . S
C188 C190 1.403 . S
C188 C221 1.439 . S
C189 H174 0.930 . S
C189 N185 1.319 . S
C189 C187 1.397 . S
C190 C187 1.367 . S
C190 C188 1.403 . S
C190 H197 0.929 . S
N191 Eu156 2.562 . S
N191 C192 1.325 . S
N191 C194 1.351 . S
C192 H178 0.929 . S
C192 N191 1.325 . S
C192 C196 1.416 . S
C193 C194 1.430 . S
C193 C195 1.404 . S
C193 C222 1.387 . S
C194 C186 1.448 . S
C194 N191 1.351 . S
C194 C193 1.430 . S
C195 H184 0.930 . S
C195 C193 1.404 . S
C195 C196 1.366 . S
C196 H175 0.930 . S
C196 C192 1.416 . S
C196 C195 1.366 . S
H197 C190 0.929 . S
H198 C221 0.931 . S
H199 C222 0.931 . S
O200 Eu156 2.462 . S
O200 C220 1.252 . S
O201 Eu156 2.373 . S
O201 C212 1.249 . S
O202 Eu167 2.335 1_545 S
O202 C212 1.264 . S
O203 Eu156 2.432 . S
O203 C220 1.268 . S
O204 Eu156 2.291 . S
O204 C219 1.249 1_545 S
O205 Eu167 2.372 . S
O205 C219 1.261 . S
O206 Eu167 2.462 . S
O206 C231 1.252 . S
O207 Eu167 2.373 . S
O207 C223 1.249 . S
O208 Eu156 2.335 1_565 S
O208 C223 1.264 . S
O209 Eu167 2.432 . S
O209 C231 1.268 . S
O210 Eu167 2.291 1_545 S
O210 C230 1.255 . S
O211 Eu156 2.372 . S
O211 C230 1.257 . S
C212 O201 1.249 . S
C212 O202 1.264 . S
C213 C216 1.382 . S
C213 C218 1.390 . S
C213 C220 1.506 . S
C214 C215 1.398 . S
C214 C218 1.392 . S
C215 C214 1.398 . S
C215 C217 1.372 . S
C215 H232 0.931 . S
C216 C213 1.382 . S
C216 C217 1.390 . S
C216 H233 0.931 . S
C217 C215 1.372 . S
C217 C216 1.390 . S
C217 H234 0.929 . S
C218 C213 1.390 . S
C218 C214 1.392 . S
C218 H235 0.930 . S
C219 O204 1.249 1_565 S
C219 O205 1.261 . S
C220 Eu156 2.787 . S
C220 O200 1.252 . S
C220 O203 1.268 . S
C220 C213 1.506 . S
C221 C188 1.439 . S
C221 H198 0.931 . S
C221 C222 1.374 . S
C222 C193 1.387 . S
C222 H199 0.931 . S
C222 C221 1.374 . S
C223 O207 1.249 . S
C223 O208 1.264 . S
C224 C227 1.382 . S
C224 C228 1.390 1_565 S
C224 C231 1.506 . S
C225 C226 1.398 1_545 S
C225 C228 1.392 . S
C226 C225 1.398 1_565 S
C226 C229 1.372 . S
C226 H236 0.931 . S
C227 C224 1.382 . S
C227 C229 1.390 . S
C227 H237 0.931 . S
C228 C224 1.390 1_545 S
C228 C225 1.392 . S
C228 H238 0.930 . S
C229 C226 1.372 . S
C229 C227 1.390 . S
C229 H239 0.929 . S
C230 O210 1.255 . S
C230 O211 1.257 . S
C231 Eu167 2.787 . S
C231 O206 1.252 . S
C231 O209 1.268 . S
C231 C224 1.506 . S
H232 C215 0.931 . S
H233 C216 0.931 . S
H234 C217 0.929 . S
H235 C218 0.930 . S
H236 C226 0.931 . S
H237 C227 0.931 . S
H238 C228 0.930 . S
H239 C229 0.929 . S
Eu240 N269 2.600 . S
Eu240 N275 2.562 . S
Eu240 O284 2.462 . S
Eu240 O285 2.373 . S
Eu240 O287 2.432 . S
Eu240 O288 2.291 . S
Eu240 O292 2.335 . S
Eu240 O295 2.372 . S
Eu240 C304 2.787 . S
C241 N242 1.365 . S
C241 C244 1.405 . S
C241 C248 1.448 . S
N242 C241 1.365 . S
N242 C245 1.319 . S
N242 Eu251 2.600 . S
C243 C245 1.397 . S
C243 C246 1.367 . S
C243 H263 0.931 . S
C244 C241 1.405 . S
C244 C246 1.403 . S
C244 C250 1.439 . S
C245 N242 1.319 . S
C245 C243 1.397 . S
C245 H256 0.930 . S
C246 C243 1.367 . S
C246 C244 1.403 . S
C246 H267 0.929 . S
C247 C248 1.430 . S
C247 C249 1.387 . S
C247 C253 1.404 . S
C248 C241 1.448 . S
C248 C247 1.430 . S
C248 N252 1.351 . S
C249 C247 1.387 . S
C249 C250 1.374 . S
C249 H264 0.931 . S
C250 C244 1.439 . S
C250 C249 1.374 . S
C250 H265 0.931 . S
Eu251 N242 2.600 . S
Eu251 N252 2.562 . S
Eu251 O286 2.335 . S
Eu251 O289 2.372 . S
Eu251 O290 2.462 . S
Eu251 O291 2.373 . S
Eu251 O293 2.432 . S
Eu251 O294 2.291 . S
Eu251 C315 2.787 . S
N252 C248 1.351 . S
N252 Eu251 2.562 . S
N252 C254 1.325 . S
C253 C247 1.404 . S
C253 C255 1.366 . S
C253 H261 0.930 . S
C254 N252 1.325 . S
C254 C255 1.416 . S
C254 H260 0.929 . S
C255 C253 1.366 . S
C255 C254 1.416 . S
C255 H257 0.930 . S
H256 C245 0.930 . S
H257 C255 0.930 . S
H258 C273 0.930 . S
H259 C280 0.930 . S
H260 C254 0.929 . S
H261 C253 0.930 . S
H262 C276 0.929 . S
H263 C243 0.931 . S
H264 C249 0.931 . S
H265 C250 0.931 . S
H266 C271 0.931 . S
H267 C246 0.929 . S
H268 C279 0.930 . S
N269 Eu240 2.600 . S
N269 C270 1.365 . S
N269 C273 1.319 . S
C270 N269 1.365 . S
C270 C272 1.405 . S
C270 C278 1.448 . S
C271 H266 0.931 . S
C271 C273 1.397 . S
C271 C274 1.367 . S
C272 C270 1.405 . S
C272 C274 1.403 . S
C272 C305 1.439 . S
C273 H258 0.930 . S
C273 N269 1.319 . S
C273 C271 1.397 . S
C274 C271 1.367 . S
C274 C272 1.403 . S
C274 H281 0.929 . S
N275 Eu240 2.562 . S
N275 C276 1.325 . S
N275 C278 1.351 . S
C276 H262 0.929 . S
C276 N275 1.325 . S
C276 C280 1.416 . S
C277 C278 1.430 . S
C277 C279 1.404 . S
C277 C306 1.387 . S
C278 C270 1.448 . S
C278 N275 1.351 . S
C278 C277 1.430 . S
C279 H268 0.930 . S
C279 C277 1.404 . S
C279 C280 1.366 . S
C280 H259 0.930 . S
C280 C276 1.416 . S
C280 C279 1.366 . S
H281 C274 0.929 . S
H282 C305 0.931 . S
H283 C306 0.931 . S
O284 Eu240 2.462 . S
O284 C304 1.252 . S
O285 Eu240 2.373 . S
O285 C296 1.249 . S
O286 Eu251 2.335 . S
O286 C296 1.264 . S
O287 Eu240 2.432 . S
O287 C304 1.268 . S
O288 Eu240 2.291 . S
O288 C303 1.255 . S
O289 Eu251 2.372 . S
O289 C303 1.257 . S
O290 Eu251 2.462 . S
O290 C315 1.252 . S
O291 Eu251 2.373 . S
O291 C307 1.249 . S
O292 Eu240 2.335 . S
O292 C307 1.264 . S
O293 Eu251 2.432 . S
O293 C315 1.268 . S
O294 Eu251 2.291 . S
O294 C314 1.255 . S
O295 Eu240 2.372 . S
O295 C314 1.257 . S
C296 O285 1.249 . S
C296 O286 1.264 . S
C297 C300 1.382 . S
C297 C302 1.390 . S
C297 C304 1.506 . S
C298 C299 1.398 . S
C298 C302 1.392 . S
C299 C298 1.398 . S
C299 C301 1.372 . S
C299 H316 0.931 . S
C300 C297 1.382 . S
C300 C301 1.390 . S
C300 H317 0.931 . S
C301 C299 1.372 . S
C301 C300 1.390 . S
C301 H318 0.929 . S
C302 C297 1.390 . S
C302 C298 1.392 . S
C302 H319 0.930 . S
C303 O288 1.255 . S
C303 O289 1.257 . S
C304 Eu240 2.787 . S
C304 O284 1.252 . S
C304 O287 1.268 . S
C304 C297 1.506 . S
C305 C272 1.439 . S
C305 H282 0.931 . S
C305 C306 1.374 . S
C306 C277 1.387 . S
C306 H283 0.931 . S
C306 C305 1.374 . S
C307 O291 1.249 . S
C307 O292 1.264 . S
C308 C311 1.382 . S
C308 C312 1.390 . S
C308 C315 1.506 . S
C309 C310 1.398 . S
C309 C312 1.392 . S
C310 C309 1.398 . S
C310 C313 1.372 . S
C310 H320 0.931 . S
C311 C308 1.382 . S
C311 C313 1.390 . S
C311 H321 0.931 . S
C312 C308 1.390 . S
C312 C309 1.392 . S
C312 H322 0.930 . S
C313 C310 1.372 . S
C313 C311 1.390 . S
C313 H323 0.929 . S
C314 O294 1.255 . S
C314 O295 1.257 . S
C315 Eu251 2.787 . S
C315 O290 1.252 . S
C315 O293 1.268 . S
C315 C308 1.506 . S
H316 C299 0.931 . S
H317 C300 0.931 . S
H318 C301 0.929 . S
H319 C302 0.930 . S
H320 C310 0.931 . S
H321 C311 0.931 . S
H322 C312 0.930 . S
H323 C313 0.929 . S
Eu324 N353 2.600 . S
Eu324 N359 2.562 . S
Eu324 O368 2.462 . S
Eu324 O369 2.373 1_455 S
Eu324 O371 2.432 . S
Eu324 O372 2.291 . S
Eu324 O376 2.335 . S
Eu324 O379 2.372 . S
Eu324 C388 2.787 . S
C325 N326 1.365 1_455 S
C325 C328 1.405 . S
C325 C332 1.448 . S
N326 C325 1.365 1_655 S
N326 C329 1.319 . S
N326 Eu335 2.600 . S
C327 C329 1.397 1_455 S
C327 C330 1.367 . S
C327 H347 0.932 . S
C328 C325 1.405 . S
C328 C330 1.403 . S
C328 C334 1.439 . S
C329 N326 1.319 . S
C329 C327 1.397 1_655 S
C329 H340 0.930 . S
C330 C327 1.367 . S
C330 C328 1.403 . S
C330 H351 0.929 . S
C331 C332 1.430 . S
C331 C333 1.387 . S
C331 C337 1.404 . S
C332 C325 1.448 . S
C332 C331 1.430 . S
C332 N336 1.351 . S
C333 C331 1.387 . S
C333 C334 1.374 . S
C333 H348 0.931 . S
C334 C328 1.439 . S
C334 C333 1.374 . S
C334 H349 0.931 . S
Eu335 N326 2.600 . S
Eu335 N336 2.562 1_655 S
Eu335 O370 2.335 . S
Eu335 O373 2.372 . S
Eu335 O374 2.462 . S
Eu335 O375 2.373 1_655 S
Eu335 O377 2.432 . S
Eu335 O378 2.304 . S
Eu335 C399 2.787 . S
N336 C332 1.351 . S
N336 Eu335 2.562 1_455 S
N336 C338 1.325 . S
C337 C331 1.404 . S
C337 C339 1.366 . S
C337 H345 0.930 . S
C338 N336 1.325 . S
C338 C339 1.416 . S
C338 H344 0.929 1_455 S
C339 C337 1.366 . S
C339 C338 1.416 . S
C339 H341 0.930 . S
H340 C329 0.930 . S
H341 C339 0.930 . S
H342 C357 0.930 . S
H343 C364 0.930 . S
H344 C338 0.929 1_655 S
H345 C337 0.930 . S
H346 C360 0.929 . S
H347 C327 0.932 . S
H348 C333 0.931 . S
H349 C334 0.931 . S
H350 C355 0.931 . S
H351 C330 0.929 . S
H352 C363 0.930 . S
N353 Eu324 2.600 . S
N353 C354 1.365 . S
N353 C357 1.319 . S
C354 N353 1.365 . S
C354 C356 1.405 1_455 S
C354 C362 1.450 . S
C355 H350 0.931 . S
C355 C357 1.397 . S
C355 C358 1.367 1_455 S
C356 C354 1.405 1_655 S
C356 C358 1.403 . S
C356 C389 1.439 . S
C357 H342 0.930 . S
C357 N353 1.319 . S
C357 C355 1.397 . S
C358 C355 1.367 1_655 S
C358 C356 1.403 . S
C358 H365 0.929 . S
N359 Eu324 2.562 . S
N359 C360 1.325 . S
N359 C362 1.361 . S
C360 H346 0.929 . S
C360 N359 1.325 . S
C360 C364 1.416 1_455 S
C361 C362 1.418 1_655 S
C361 C363 1.404 . S
C361 C390 1.387 . S
C362 C354 1.450 . S
C362 N359 1.361 . S
C362 C361 1.418 1_455 S
C363 H352 0.930 . S
C363 C361 1.404 . S
C363 C364 1.366 . S
C364 H343 0.930 . S
C364 C360 1.416 1_655 S
C364 C363 1.366 . S
H365 C358 0.929 . S
H366 C389 0.931 . S
H367 C390 0.931 . S
O368 Eu324 2.462 . S
O368 C388 1.252 . S
O369 Eu324 2.373 1_655 S
O369 C380 1.249 . S
O370 Eu335 2.335 . S
O370 C380 1.264 . S
O371 Eu324 2.432 . S
O371 C388 1.268 . S
O372 Eu324 2.291 . S
O372 C387 1.255 . S
O373 Eu335 2.372 . S
O373 C387 1.257 1_655 S
O374 Eu335 2.462 . S
O374 C399 1.252 . S
O375 Eu335 2.373 1_455 S
O375 C391 1.249 . S
O376 Eu324 2.335 . S
O376 C391 1.264 . S
O377 Eu335 2.432 . S
O377 C399 1.268 . S
O378 Eu335 2.304 . S
O378 C398 1.246 1_655 S
O379 Eu324 2.372 . S
O379 C398 1.257 . S
C380 O369 1.249 . S
C380 O370 1.264 . S
C381 C384 1.382 . S
C381 C386 1.390 . S
C381 C388 1.506 . S
C382 C383 1.398 . S
C382 C386 1.392 . S
C383 C382 1.398 . S
C383 C385 1.372 . S
C383 H400 0.931 . S
C384 C381 1.382 . S
C384 C385 1.390 . S
C384 H401 0.931 . S
C385 C383 1.372 . S
C385 C384 1.390 . S
C385 H402 0.929 . S
C386 C381 1.390 . S
C386 C382 1.392 . S
C386 H403 0.930 . S
C387 O372 1.255 . S
C387 O373 1.257 1_455 S
C388 Eu324 2.787 . S
C388 O368 1.252 . S
C388 O371 1.268 . S
C388 C381 1.506 . S
C389 C356 1.439 . S
C389 H366 0.931 . S
C389 C390 1.374 . S
C390 C361 1.387 . S
C390 H367 0.931 . S
C390 C389 1.374 . S
C391 O375 1.249 . S
C391 O376 1.264 . S
C392 C395 1.382 . S
C392 C396 1.390 . S
C392 C399 1.506 . S
C393 C394 1.398 . S
C393 C396 1.392 . S
C394 C393 1.398 . S
C394 C397 1.372 . S
C394 H404 0.931 . S
C395 C392 1.382 . S
C395 C397 1.390 . S
C395 H405 0.931 . S
C396 C392 1.390 . S
C396 C393 1.392 . S
C396 H406 0.930 . S
C397 C394 1.372 . S
C397 C395 1.390 . S
C397 H407 0.929 . S
C398 O378 1.246 1_455 S
C398 O379 1.257 . S
C399 Eu335 2.787 . S
C399 O374 1.252 . S
C399 O377 1.268 . S
C399 C392 1.506 . S
H400 C383 0.931 . S
H401 C384 0.931 . S
H402 C385 0.929 . S
H403 C386 0.930 . S
H404 C394 0.931 . S
H405 C395 0.931 . S
H406 C396 0.930 . S
H407 C397 0.929 . S
H408 C416 0.929 . S
H409 C418 0.930 . S
H410 C420 0.930 . S
H411 C423 0.929 . S
H412 C426 0.930 . S
H413 C428 0.960 . S
H414 C428 0.960 . S
H415 C428 0.960 . S
C416 H408 0.929 . S
C416 C417 1.377 . S
C416 C418 1.384 . S
C417 C416 1.377 . S
C417 C423 1.390 . S
C418 H409 0.930 . S
C418 C416 1.384 . S
C418 C419 1.372 . S
C419 C418 1.372 . S
C419 C420 1.400 . S
C419 C424 1.490 . S
C420 H410 0.930 . S
C420 C419 1.400 . S
C420 C423 1.386 . S
H421 C437 0.930 . S
H422 C438 0.931 . S
C423 H411 0.929 . S
C423 C417 1.390 . S
C423 C420 1.386 . S
C424 C419 1.490 . S
C424 C426 1.395 . S
C424 C427 1.403 . S
H425 C431 0.930 . S
C426 H412 0.930 . S
C426 C424 1.395 . S
C426 C429 1.403 . S
C427 C424 1.403 . S
C427 C428 1.524 . S
C427 C431 1.400 . S
C428 H413 0.960 . S
C428 H414 0.960 . S
C428 H415 0.960 . S
C428 C427 1.524 . S
C429 C426 1.403 . S
C429 C430 1.392 . S
C429 C433 1.495 . S
C430 C429 1.392 . S
C430 C431 1.385 . S
C430 C432 1.478 . S
C431 H425 0.930 . S
C431 C427 1.400 . S
C431 C430 1.385 . S
C432 C430 1.478 . S
C432 C434 1.381 . S
C432 C438 1.383 . S
C433 C429 1.495 . S
C433 H439 0.959 . S
C433 H440 0.961 . S
C433 H441 0.960 . S
C434 C432 1.381 . S
C434 C435 1.396 . S
C434 H442 0.930 1_545 S
C435 C434 1.396 . S
C435 C436 1.394 . S
C435 H443 0.916 1_545 S
C436 C435 1.394 . S
C436 C437 1.377 . S
C437 H421 0.930 . S
C437 C436 1.377 . S
C437 C438 1.379 . S
C438 H422 0.931 . S
C438 C432 1.383 . S
C438 C437 1.379 . S
H439 C433 0.959 . S
H440 C433 0.961 . S
H441 C433 0.960 . S
H442 C434 0.930 1_565 S
H443 C435 0.916 1_565 S
H444 C452 0.929 . S
H445 C454 0.930 . S
H446 C456 0.930 . S
H447 C459 0.929 . S
H448 C462 0.930 . S
H449 C464 0.960 . S
H450 C464 0.960 . S
H451 C464 0.960 . S
C452 H444 0.929 . S
C452 C453 1.377 . S
C452 C454 1.384 . S
C453 C452 1.377 . S
C453 C459 1.390 . S
C454 H445 0.930 . S
C454 C452 1.384 . S
C454 C455 1.372 . S
C455 C454 1.372 . S
C455 C456 1.400 . S
C455 C460 1.490 . S
C456 H446 0.930 . S
C456 C455 1.400 . S
C456 C459 1.386 . S
H457 C473 0.930 . S
H458 C474 0.931 . S
C459 H447 0.929 . S
C459 C453 1.390 . S
C459 C456 1.386 . S
C460 C455 1.490 . S
C460 C462 1.395 . S
C460 C463 1.403 . S
H461 C467 0.930 . S
C462 H448 0.930 . S
C462 C460 1.395 . S
C462 C465 1.403 . S
C463 C460 1.403 . S
C463 C464 1.524 . S
C463 C467 1.400 . S
C464 H449 0.960 . S
C464 H450 0.960 . S
C464 H451 0.960 . S
C464 C463 1.524 . S
C465 C462 1.403 . S
C465 C466 1.392 . S
C465 C469 1.495 . S
C466 C465 1.392 . S
C466 C467 1.385 . S
C466 C468 1.478 . S
C467 H461 0.930 . S
C467 C463 1.400 . S
C467 C466 1.385 . S
C468 C466 1.478 . S
C468 C470 1.381 . S
C468 C474 1.383 . S
C469 C465 1.495 . S
C469 H475 0.959 . S
C469 H476 0.961 . S
C469 H477 0.960 . S
C470 C468 1.381 . S
C470 C471 1.394 . S
C470 H478 0.930 . S
C471 C470 1.394 . S
C471 C472 1.383 . S
C471 H479 0.929 . S
C472 C471 1.383 . S
C472 C473 1.377 . S
C473 H457 0.930 . S
C473 C472 1.377 . S
C473 C474 1.379 . S
C474 H458 0.931 . S
C474 C468 1.383 . S
C474 C473 1.379 . S
H475 C469 0.959 . S
H476 C469 0.961 . S
H477 C469 0.960 . S
H478 C470 0.930 . S
H479 C471 0.929 . S
H480 C488 0.929 . S
H481 C490 0.930 . S
H482 C492 0.930 . S
H483 C495 0.929 . S
H484 C498 0.930 . S
H485 C500 0.960 . S
H486 C500 0.960 . S
H487 C500 0.960 . S
C488 H480 0.929 . S
C488 C489 1.377 . S
C488 C490 1.384 . S
C489 C488 1.377 . S
C489 C495 1.390 . S
C490 H481 0.930 . S
C490 C488 1.384 . S
C490 C491 1.372 . S
C491 C490 1.372 . S
C491 C492 1.400 . S
C491 C496 1.490 . S
C492 H482 0.930 . S
C492 C491 1.400 . S
C492 C495 1.386 . S
H493 C509 0.930 . S
H494 C510 0.931 . S
C495 H483 0.929 . S
C495 C489 1.390 . S
C495 C492 1.386 . S
C496 C491 1.490 . S
C496 C498 1.395 . S
C496 C499 1.403 . S
H497 C503 0.930 . S
C498 H484 0.930 . S
C498 C496 1.395 . S
C498 C501 1.403 . S
C499 C496 1.403 . S
C499 C500 1.524 . S
C499 C503 1.400 . S
C500 H485 0.960 . S
C500 H486 0.960 . S
C500 H487 0.960 . S
C500 C499 1.524 . S
C501 C498 1.403 . S
C501 C502 1.392 . S
C501 C505 1.495 . S
C502 C501 1.392 . S
C502 C503 1.385 . S
C502 C504 1.478 . S
C503 H497 0.930 . S
C503 C499 1.400 . S
C503 C502 1.385 . S
C504 C502 1.478 . S
C504 C506 1.381 . S
C504 C510 1.383 . S
C505 C501 1.495 . S
C505 H511 0.959 . S
C505 H512 0.961 . S
C505 H513 0.960 . S
C506 C504 1.381 . S
C506 C507 1.394 . S
C506 H514 0.930 . S
C507 C506 1.394 . S
C507 C508 1.383 . S
C507 H515 0.929 . S
C508 C507 1.383 . S
C508 C509 1.377 . S
C509 H493 0.930 . S
C509 C508 1.377 . S
C509 C510 1.379 . S
C510 H494 0.931 . S
C510 C504 1.383 . S
C510 C509 1.379 . S
H511 C505 0.959 . S
H512 C505 0.961 . S
H513 C505 0.960 . S
H514 C506 0.930 . S
H515 C507 0.929 . S
H516 C524 0.929 . S
H517 C526 0.930 . S
H518 C528 0.930 . S
H519 C531 0.929 . S
H520 C534 0.930 . S
H521 C536 0.960 . S
H522 C536 0.960 . S
H523 C536 0.960 . S
C524 H516 0.929 . S
C524 C525 1.377 . S
C524 C526 1.384 . S
C525 C524 1.377 . S
C525 C531 1.390 . S
C526 H517 0.930 . S
C526 C524 1.384 . S
C526 C527 1.372 . S
C527 C526 1.372 . S
C527 C528 1.400 . S
C527 C532 1.490 . S
C528 H518 0.930 . S
C528 C527 1.400 . S
C528 C531 1.386 . S
H529 C545 0.930 . S
H530 C546 0.931 . S
C531 H519 0.929 . S
C531 C525 1.390 . S
C531 C528 1.386 . S
C532 C527 1.490 . S
C532 C534 1.395 . S
C532 C535 1.403 . S
H533 C539 0.930 . S
C534 H520 0.930 . S
C534 C532 1.395 . S
C534 C537 1.403 . S
C535 C532 1.403 . S
C535 C536 1.524 . S
C535 C539 1.400 . S
C536 H521 0.960 . S
C536 H522 0.960 . S
C536 H523 0.960 . S
C536 C535 1.524 . S
C537 C534 1.403 . S
C537 C538 1.392 . S
C537 C541 1.495 1_455 S
C538 C537 1.392 . S
C538 C539 1.385 . S
C538 C540 1.478 . S
C539 H533 0.930 . S
C539 C535 1.400 . S
C539 C538 1.385 . S
C540 C538 1.478 . S
C540 C542 1.381 1_455 S
C540 C546 1.383 . S
C541 C537 1.495 1_655 S
C541 H547 0.959 . S
C541 H548 0.961 . S
C541 H549 0.960 . S
C542 C540 1.381 1_655 S
C542 C543 1.394 . S
C542 H550 0.930 . S
C543 C542 1.394 . S
C543 C544 1.383 1_655 S
C543 H551 0.929 . S
C544 C543 1.383 1_455 S
C544 C545 1.377 . S
C545 H529 0.930 . S
C545 C544 1.377 . S
C545 C546 1.379 . S
C546 H530 0.931 . S
C546 C540 1.383 . S
C546 C545 1.379 . S
H547 C541 0.959 . S
H548 C541 0.961 . S
H549 C541 0.960 . S
H550 C542 0.930 . S
H551 C543 0.929 . S
H552 C560 0.929 . S
H553 C562 0.930 . S
H554 C564 0.930 1_545 S
H555 C567 0.929 1_545 S
H556 C570 0.930 . S
H557 C572 0.960 . S
H558 C572 0.960 . S
H559 C572 0.960 1_545 S
C560 H552 0.929 . S
C560 C561 1.377 . S
C560 C562 1.384 . S
C561 C560 1.377 . S
C561 C567 1.390 . S
C562 H553 0.930 . S
C562 C560 1.384 . S
C562 C563 1.372 . S
C563 C562 1.372 . S
C563 C564 1.400 . S
C563 C568 1.490 . S
C564 H554 0.930 1_565 S
C564 C563 1.400 . S
C564 C567 1.386 . S
H565 C581 0.930 . S
H566 C582 0.931 . S
C567 H555 0.929 1_565 S
C567 C561 1.390 . S
C567 C564 1.386 . S
C568 C563 1.490 . S
C568 C570 1.395 1_554 S
C568 C571 1.403 . S
H569 C575 0.930 . S
C570 H556 0.930 . S
C570 C568 1.395 1_556 S
C570 C573 1.403 . S
C571 C568 1.403 . S
C571 C572 1.524 . S
C571 C575 1.400 1_554 S
C572 H557 0.960 . S
C572 H558 0.960 . S
C572 H559 0.960 1_565 S
C572 C571 1.524 . S
C573 C570 1.403 . S
C573 C574 1.392 . S
C573 C577 1.495 . S
C574 C573 1.392 . S
C574 C575 1.385 . S
C574 C576 1.478 . S
C575 H569 0.930 . S
C575 C571 1.400 1_556 S
C575 C574 1.385 . S
C576 C574 1.478 . S
C576 C578 1.381 . S
C576 C582 1.383 1_565 S
C577 C573 1.495 . S
C577 H583 0.959 . S
C577 H584 0.961 . S
C577 H585 0.960 . S
C578 C576 1.381 . S
C578 C579 1.394 . S
C578 H586 0.930 . S
C579 C578 1.394 . S
C579 C580 1.404 . S
C579 H587 0.929 . S
C580 C579 1.404 . S
C580 C581 1.360 1_565 S
C581 H565 0.930 . S
C581 C580 1.360 1_545 S
C581 C582 1.379 . S
C582 H566 0.931 . S
C582 C576 1.383 1_545 S
C582 C581 1.379 . S
H583 C577 0.959 . S
H584 C577 0.961 . S
H585 C577 0.960 . S
H586 C578 0.930 . S
H587 C579 0.929 . S
H588 C596 0.929 . S
H589 C598 0.930 . S
H590 C600 0.930 . S
H591 C603 0.929 . S
H592 C606 0.930 . S
H593 C608 0.960 . S
H594 C608 0.960 1_554 S
H595 C608 0.960 . S
C596 H588 0.929 . S
C596 C597 1.377 . S
C596 C598 1.384 . S
C597 C596 1.377 . S
C597 C603 1.390 . S
C598 H589 0.930 . S
C598 C596 1.384 . S
C598 C599 1.372 . S
C599 C598 1.372 . S
C599 C600 1.400 . S
C599 C604 1.490 . S
C600 H590 0.930 . S
C600 C599 1.400 . S
C600 C603 1.386 . S
H601 C617 0.930 . S
H602 C618 0.931 . S
C603 H591 0.929 . S
C603 C597 1.390 . S
C603 C600 1.386 . S
C604 C599 1.490 . S
C604 C606 1.395 . S
C604 C607 1.403 1_554 S
H605 C611 0.930 . S
C606 H592 0.930 . S
C606 C604 1.395 . S
C606 C609 1.403 1_554 S
C607 C604 1.403 1_556 S
C607 C608 1.524 . S
C607 C611 1.400 . S
C608 H593 0.960 . S
C608 H594 0.960 1_556 S
C608 H595 0.960 . S
C608 C607 1.524 . S
C609 C606 1.403 1_556 S
C609 C610 1.392 . S
C609 C613 1.495 . S
C610 C609 1.392 . S
C610 C611 1.385 . S
C610 C612 1.478 . S
C611 H605 0.930 . S
C611 C607 1.400 . S
C611 C610 1.385 . S
C612 C610 1.478 . S
C612 C614 1.381 . S
C612 C618 1.383 . S
C613 C609 1.495 . S
C613 H619 0.959 1_556 S
C613 H620 0.961 . S
C613 H621 0.960 . S
C614 C612 1.381 . S
C614 C615 1.394 . S
C614 H622 0.930 . S
C615 C614 1.394 . S
C615 C616 1.383 . S
C615 H623 0.929 . S
C616 C615 1.383 . S
C616 C617 1.377 . S
C617 H601 0.930 . S
C617 C616 1.377 . S
C617 C618 1.379 . S
C618 H602 0.931 . S
C618 C612 1.383 . S
C618 C617 1.379 . S
H619 C613 0.959 1_554 S
H620 C613 0.961 . S
H621 C613 0.960 . S
H622 C614 0.930 . S
H623 C615 0.929 . S
H624 C632 0.929 . S
H625 C634 0.930 . S
H626 C636 0.930 . S
H627 C639 0.929 . S
H628 C642 0.930 . S
H629 C644 0.960 . S
H630 C644 0.960 . S
H631 C644 0.960 . S
C632 H624 0.929 . S
C632 C633 1.377 . S
C632 C634 1.384 . S
C633 C632 1.377 . S
C633 C639 1.390 . S
C634 H625 0.930 . S
C634 C632 1.384 . S
C634 C635 1.372 . S
C635 C634 1.372 . S
C635 C636 1.400 . S
C635 C640 1.490 . S
C636 H626 0.930 . S
C636 C635 1.400 . S
C636 C639 1.386 . S
H637 C653 0.930 . S
H638 C654 0.931 . S
C639 H627 0.929 . S
C639 C633 1.390 . S
C639 C636 1.386 . S
C640 C635 1.490 . S
C640 C642 1.395 . S
C640 C643 1.403 1_554 S
H641 C647 0.930 . S
C642 H628 0.930 . S
C642 C640 1.395 . S
C642 C645 1.403 1_554 S
C643 C640 1.403 1_556 S
C643 C644 1.524 . S
C643 C647 1.400 . S
C644 H629 0.960 . S
C644 H630 0.960 . S
C644 H631 0.960 . S
C644 C643 1.524 . S
C645 C642 1.403 1_556 S
C645 C646 1.392 . S
C645 C649 1.495 . S
C646 C645 1.392 . S
C646 C647 1.385 . S
C646 C648 1.478 . S
C647 H641 0.930 . S
C647 C643 1.400 . S
C647 C646 1.385 . S
C648 C646 1.478 . S
C648 C650 1.381 . S
C648 C654 1.383 . S
C649 C645 1.495 . S
C649 H655 0.959 1_556 S
C649 H656 0.961 . S
C649 H657 0.960 . S
C650 C648 1.381 . S
C650 C651 1.394 . S
C650 H658 0.930 . S
C651 C650 1.394 . S
C651 C652 1.383 . S
C651 H659 0.929 . S
C652 C651 1.383 . S
C652 C653 1.377 . S
C653 H637 0.930 . S
C653 C652 1.377 . S
C653 C654 1.379 . S
C654 H638 0.931 . S
C654 C648 1.383 . S
C654 C653 1.379 . S
H655 C649 0.959 1_554 S
H656 C649 0.961 . S
H657 C649 0.960 . S
H658 C650 0.930 . S
H659 C651 0.929 . S
H660 C668 0.929 . S
H661 C670 0.930 . S
H662 C672 0.930 . S
H663 C675 0.929 . S
H664 C678 0.930 1_554 S
H665 C680 0.969 . S
H666 C680 0.962 . S
H667 C680 0.946 1_554 S
C668 H660 0.929 . S
C668 C669 1.377 . S
C668 C670 1.384 . S
C669 C668 1.377 . S
C669 C675 1.390 . S
C670 H661 0.930 . S
C670 C668 1.384 . S
C670 C671 1.372 . S
C671 C670 1.372 . S
C671 C672 1.400 . S
C671 C676 1.490 . S
C672 H662 0.930 . S
C672 C671 1.400 . S
C672 C675 1.386 . S
H673 C689 0.930 . S
H674 C690 0.931 . S
C675 H663 0.929 . S
C675 C669 1.390 . S
C675 C672 1.386 . S
C676 C671 1.490 . S
C676 C678 1.395 1_654 S
C676 C679 1.403 1_554 S
H677 C683 0.930 . S
C678 H664 0.930 1_556 S
C678 C676 1.395 1_456 S
C678 C681 1.403 . S
C679 C676 1.403 1_556 S
C679 C680 1.527 . S
C679 C683 1.400 . S
C680 H665 0.969 . S
C680 H666 0.962 . S
C680 H667 0.946 1_556 S
C680 C679 1.527 . S
C681 C678 1.403 . S
C681 C682 1.392 1_455 S
C681 C685 1.495 . S
C682 C681 1.392 1_655 S
C682 C683 1.385 . S
C682 C684 1.478 . S
C683 H677 0.930 . S
C683 C679 1.400 . S
C683 C682 1.385 . S
C684 C682 1.478 . S
C684 C686 1.381 1_655 S
C684 C690 1.383 . S
C685 C681 1.495 . S
C685 H691 0.959 . S
C685 H692 0.961 . S
C685 H693 0.960 . S
C686 C684 1.381 1_455 S
C686 C687 1.394 . S
C686 H694 0.930 . S
C687 C686 1.394 . S
C687 C688 1.383 1_455 S
C687 H695 0.929 . S
C688 C687 1.383 1_655 S
C688 C689 1.377 . S
C689 H673 0.930 . S
C689 C688 1.377 . S
C689 C690 1.379 . S
C690 H674 0.931 . S
C690 C684 1.383 . S
C690 C689 1.379 . S
H691 C685 0.959 . S
H692 C685 0.961 . S
H693 C685 0.960 . S
H694 C686 0.930 . S
H695 C687 0.929 . S
H696 C704 0.929 . S
H697 C706 0.930 . S
H698 C708 0.930 . S
H699 C711 0.929 . S
H700 C714 0.930 . S
H701 C716 0.960 . S
H702 C716 0.960 . S
H703 C716 0.960 . S
C704 H696 0.929 . S
C704 C705 1.377 . S
C704 C706 1.384 . S
C705 C704 1.377 . S
C705 C711 1.390 . S
C706 H697 0.930 . S
C706 C704 1.384 . S
C706 C707 1.372 . S
C707 C706 1.372 . S
C707 C708 1.400 . S
C707 C712 1.490 . S
C708 H698 0.930 . S
C708 C707 1.400 . S
C708 C711 1.386 . S
H709 C725 0.930 1_655 S
H710 C726 0.931 . S
C711 H699 0.929 . S
C711 C705 1.390 . S
C711 C708 1.386 . S
C712 C707 1.490 . S
C712 C714 1.395 . S
C712 C715 1.403 . S
H713 C719 0.930 1_655 S
C714 H700 0.930 . S
C714 C712 1.395 . S
C714 C717 1.403 . S
C715 C712 1.403 . S
C715 C716 1.524 1_455 S
C715 C719 1.400 . S
C716 H701 0.960 . S
C716 H702 0.960 . S
C716 H703 0.960 . S
C716 C715 1.524 1_655 S
C717 C714 1.403 . S
C717 C718 1.392 . S
C717 C721 1.495 . S
C718 C717 1.392 . S
C718 C719 1.385 . S
C718 C720 1.478 . S
C719 H713 0.930 1_455 S
C719 C715 1.400 . S
C719 C718 1.385 . S
C720 C718 1.478 . S
C720 C722 1.381 . S
C720 C726 1.383 . S
C721 C717 1.495 . S
C721 H727 0.959 . S
C721 H728 0.961 . S
C721 H729 0.960 . S
C722 C720 1.381 . S
C722 C723 1.394 . S
C722 H730 0.930 . S
C723 C722 1.394 . S
C723 C724 1.391 . S
C723 H731 0.929 . S
C724 C723 1.391 . S
C724 C725 1.380 . S
C725 H709 0.930 1_455 S
C725 C724 1.380 . S
C725 C726 1.379 . S
C726 H710 0.931 . S
C726 C720 1.383 . S
C726 C725 1.379 . S
H727 C721 0.959 . S
H728 C721 0.961 . S
H729 C721 0.960 . S
H730 C722 0.930 . S
H731 C723 0.929 . S
H732 C740 0.929 . S
H733 C742 0.930 . S
H734 C744 0.930 . S
H735 C747 0.929 . S
H736 C750 0.930 . S
H737 C752 0.960 . S
H738 C752 0.960 . S
H739 C752 0.960 . S
C740 H732 0.929 . S
C740 C741 1.377 . S
C740 C742 1.384 . S
C741 C740 1.377 . S
C741 C747 1.390 . S
C742 H733 0.930 . S
C742 C740 1.384 . S
C742 C743 1.372 . S
C743 C742 1.372 . S
C743 C744 1.400 . S
C743 C748 1.490 . S
C744 H734 0.930 . S
C744 C743 1.400 . S
C744 C747 1.386 . S
H745 C761 0.930 . S
H746 C762 0.931 . S
C747 H735 0.929 . S
C747 C741 1.390 . S
C747 C744 1.386 . S
C748 C743 1.490 . S
C748 C750 1.395 . S
C748 C751 1.403 . S
H749 C755 0.930 . S
C750 H736 0.930 . S
C750 C748 1.395 . S
C750 C753 1.403 . S
C751 C748 1.403 . S
C751 C752 1.524 . S
C751 C755 1.400 . S
C752 H737 0.960 . S
C752 H738 0.960 . S
C752 H739 0.960 . S
C752 C751 1.524 . S
C753 C750 1.403 . S
C753 C754 1.392 . S
C753 C757 1.495 . S
C754 C753 1.392 . S
C754 C755 1.385 . S
C754 C756 1.478 . S
C755 H749 0.930 . S
C755 C751 1.400 . S
C755 C754 1.385 . S
C756 C754 1.478 . S
C756 C758 1.381 . S
C756 C762 1.383 1_545 S
C757 C753 1.495 . S
C757 H763 0.959 . S
C757 H764 0.961 . S
C757 H765 0.960 . S
C758 C756 1.381 . S
C758 C759 1.394 . S
C758 H766 0.930 . S
C759 C758 1.394 . S
C759 C760 1.383 . S
C759 H767 0.929 . S
C760 C759 1.383 . S
C760 C761 1.377 1_545 S
C761 H745 0.930 . S
C761 C760 1.377 1_565 S
C761 C762 1.379 . S
C762 H746 0.931 . S
C762 C756 1.383 1_565 S
C762 C761 1.379 . S
H763 C757 0.959 . S
H764 C757 0.961 . S
H765 C757 0.960 . S
H766 C758 0.930 . S
H767 C759 0.929 . S
H768 C776 0.929 . S
H769 C778 0.930 . S
H770 C780 0.930 . S
H771 C783 0.929 . S
H772 C786 0.930 . S
H773 C788 0.960 . S
H774 C788 0.960 . S
H775 C788 0.960 . S
C776 H768 0.929 . S
C776 C777 1.377 . S
C776 C778 1.384 . S
C777 C776 1.377 . S
C777 C783 1.390 . S
C778 H769 0.930 . S
C778 C776 1.384 . S
C778 C779 1.372 . S
C779 C778 1.372 . S
C779 C780 1.400 . S
C779 C784 1.490 . S
C780 H770 0.930 . S
C780 C779 1.400 . S
C780 C783 1.386 . S
H781 C797 0.930 . S
H782 C798 0.931 . S
C783 H771 0.929 . S
C783 C777 1.390 . S
C783 C780 1.386 . S
C784 C779 1.490 . S
C784 C786 1.395 . S
C784 C787 1.403 . S
H785 C791 0.930 . S
C786 H772 0.930 . S
C786 C784 1.395 . S
C786 C789 1.403 . S
C787 C784 1.403 . S
C787 C788 1.524 . S
C787 C791 1.400 . S
C788 H773 0.960 . S
C788 H774 0.960 . S
C788 H775 0.960 . S
C788 C787 1.524 . S
C789 C786 1.403 . S
C789 C790 1.392 . S
C789 C793 1.495 . S
C790 C789 1.392 . S
C790 C791 1.385 . S
C790 C792 1.478 . S
C791 H785 0.930 . S
C791 C787 1.400 . S
C791 C790 1.385 . S
C792 C790 1.478 . S
C792 C794 1.381 . S
C792 C798 1.383 . S
C793 C789 1.495 . S
C793 H799 0.959 . S
C793 H800 0.961 . S
C793 H801 0.960 . S
C794 C792 1.381 . S
C794 C795 1.394 . S
C794 H802 0.930 . S
C795 C794 1.394 . S
C795 C796 1.383 . S
C795 H803 0.929 . S
C796 C795 1.383 . S
C796 C797 1.377 . S
C797 H781 0.930 . S
C797 C796 1.377 . S
C797 C798 1.379 . S
C798 H782 0.931 . S
C798 C792 1.383 . S
C798 C797 1.379 . S
H799 C793 0.959 . S
H800 C793 0.961 . S
H801 C793 0.960 . S
H802 C794 0.930 . S
H803 C795 0.929 . S
H804 C812 0.929 . S
H805 C814 0.930 . S
H806 C816 0.930 . S
H807 C819 0.929 . S
H808 C822 0.930 . S
H809 C824 0.960 . S
H810 C824 0.960 . S
H811 C824 0.960 . S
C812 H804 0.929 . S
C812 C813 1.377 . S
C812 C814 1.384 . S
C813 C812 1.377 . S
C813 C819 1.390 . S
C814 H805 0.930 . S
C814 C812 1.384 . S
C814 C815 1.372 . S
C815 C814 1.372 . S
C815 C816 1.400 . S
C815 C820 1.490 . S
C816 H806 0.930 . S
C816 C815 1.400 . S
C816 C819 1.386 . S
H817 C833 0.930 . S
H818 C834 0.931 . S
C819 H807 0.929 . S
C819 C813 1.390 . S
C819 C816 1.386 . S
C820 C815 1.490 . S
C820 C822 1.395 . S
C820 C823 1.403 . S
H821 C827 0.930 . S
C822 H808 0.930 . S
C822 C820 1.395 . S
C822 C825 1.403 . S
C823 C820 1.403 . S
C823 C824 1.524 . S
C823 C827 1.400 . S
C824 H809 0.960 . S
C824 H810 0.960 . S
C824 H811 0.960 . S
C824 C823 1.524 . S
C825 C822 1.403 . S
C825 C826 1.392 . S
C825 C829 1.495 . S
C826 C825 1.392 . S
C826 C827 1.385 . S
C826 C828 1.478 . S
C827 H821 0.930 . S
C827 C823 1.400 . S
C827 C826 1.385 . S
C828 C826 1.478 . S
C828 C830 1.381 . S
C828 C834 1.383 . S
C829 C825 1.495 . S
C829 H835 0.959 . S
C829 H836 0.961 . S
C829 H837 0.960 . S
C830 C828 1.381 . S
C830 C831 1.394 . S
C830 H838 0.930 . S
C831 C830 1.394 . S
C831 C832 1.383 . S
C831 H839 0.929 . S
C832 C831 1.383 . S
C832 C833 1.377 . S
C833 H817 0.930 . S
C833 C832 1.377 . S
C833 C834 1.379 . S
C834 H818 0.931 . S
C834 C828 1.383 . S
C834 C833 1.379 . S
H835 C829 0.959 . S
H836 C829 0.961 . S
H837 C829 0.960 . S
H838 C830 0.930 . S
H839 C831 0.929 . S
H840 C848 0.929 . S
H841 C850 0.930 . S
H842 C852 0.930 . S
H843 C855 0.929 . S
H844 C858 0.930 . S
H845 C860 0.960 . S
H846 C860 0.960 . S
H847 C860 0.960 . S
C848 H840 0.929 . S
C848 C849 1.377 . S
C848 C850 1.384 . S
C849 C848 1.377 . S
C849 C855 1.390 . S
C850 H841 0.930 . S
C850 C848 1.384 . S
C850 C851 1.372 . S
C851 C850 1.372 . S
C851 C852 1.400 . S
C851 C856 1.490 . S
C852 H842 0.930 . S
C852 C851 1.400 . S
C852 C855 1.386 . S
H853 C869 0.930 . S
H854 C870 0.931 . S
C855 H843 0.929 . S
C855 C849 1.390 . S
C855 C852 1.386 . S
C856 C851 1.490 . S
C856 C858 1.395 . S
C856 C859 1.403 1_655 S
H857 C863 0.930 . S
C858 H844 0.930 . S
C858 C856 1.395 . S
C858 C861 1.403 1_554 S
C859 C856 1.403 1_455 S
C859 C860 1.524 . S
C859 C863 1.400 . S
C860 H845 0.960 . S
C860 H846 0.960 . S
C860 H847 0.960 . S
C860 C859 1.524 . S
C861 C858 1.403 1_556 S
C861 C862 1.392 . S
C861 C865 1.495 . S
C862 C861 1.392 . S
C862 C863 1.385 1_656 S
C862 C864 1.478 . S
C863 H857 0.930 . S
C863 C859 1.400 . S
C863 C862 1.385 1_454 S
C864 C862 1.478 . S
C864 C866 1.387 . S
C864 C870 1.383 . S
C865 C861 1.495 . S
C865 H871 0.959 . S
C865 H872 0.961 . S
C865 H873 0.960 . S
C866 C864 1.387 . S
C866 C867 1.385 1_655 S
C866 H874 0.935 . S
C867 C866 1.385 1_455 S
C867 C868 1.383 . S
C867 H875 0.929 . S
C868 C867 1.383 . S
C868 C869 1.377 . S
C869 H853 0.930 . S
C869 C868 1.377 . S
C869 C870 1.379 1_455 S
C870 H854 0.931 . S
C870 C864 1.383 . S
C870 C869 1.379 1_655 S
H871 C865 0.959 . S
H872 C865 0.961 . S
H873 C865 0.960 . S
H874 C866 0.935 . S
H875 C867 0.929 . S
H876 C884 0.929 . S
H877 C886 0.930 1_545 S
H878 C888 0.930 . S
H879 C891 0.929 . S
H880 C894 0.930 . S
H881 C896 0.960 . S
H882 C896 0.960 1_545 S
H883 C896 0.960 . S
C884 H876 0.929 . S
C884 C885 1.377 . S
C884 C886 1.384 . S
C885 C884 1.377 . S
C885 C891 1.390 . S
C886 H877 0.930 1_565 S
C886 C884 1.384 . S
C886 C887 1.372 . S
C887 C886 1.372 . S
C887 C888 1.400 . S
C887 C892 1.490 . S
C888 H878 0.930 . S
C888 C887 1.400 . S
C888 C891 1.386 . S
H889 C905 0.930 . S
H890 C906 0.931 . S
C891 H879 0.929 . S
C891 C885 1.390 . S
C891 C888 1.386 . S
C892 C887 1.490 . S
C892 C894 1.395 1_554 S
C892 C895 1.403 . S
H893 C899 0.929 1_545 S
C894 H880 0.930 . S
C894 C892 1.395 1_556 S
C894 C897 1.403 . S
C895 C892 1.403 . S
C895 C896 1.524 . S
C895 C899 1.400 . S
C896 H881 0.960 . S
C896 H882 0.960 1_565 S
C896 H883 0.960 . S
C896 C895 1.524 . S
C897 C894 1.403 . S
C897 C898 1.392 . S
C897 C901 1.495 . S
C898 C897 1.392 . S
C898 C899 1.385 1_556 S
C898 C900 1.478 1_565 S
C899 H893 0.929 1_565 S
C899 C895 1.400 . S
C899 C898 1.385 1_554 S
C900 C898 1.478 1_545 S
C900 C902 1.381 . S
C900 C906 1.383 1_545 S
C901 C897 1.495 . S
C901 H907 0.959 . S
C901 H908 0.961 . S
C901 H909 0.960 1_565 S
C902 C900 1.381 . S
C902 C903 1.394 . S
C902 H910 0.930 . S
C903 C902 1.394 . S
C903 C904 1.383 . S
C903 H911 0.929 . S
C904 C903 1.383 . S
C904 C905 1.377 1_545 S
C905 H889 0.930 . S
C905 C904 1.377 1_565 S
C905 C906 1.379 . S
C906 H890 0.931 . S
C906 C900 1.383 1_565 S
C906 C905 1.379 . S
H907 C901 0.959 . S
H908 C901 0.961 . S
H909 C901 0.960 1_545 S
H910 C902 0.930 . S
H911 C903 0.929 . S
H912 C920 0.929 . S
H913 C922 0.930 . S
H914 C924 0.930 . S
H915 C927 0.929 . S
H916 C930 0.930 . S
H917 C932 0.960 . S
H918 C932 0.960 . S
H919 C932 0.960 . S
C920 H912 0.929 . S
C920 C921 1.377 . S
C920 C922 1.384 . S
C921 C920 1.377 . S
C921 C927 1.390 . S
C922 H913 0.930 . S
C922 C920 1.384 . S
C922 C923 1.372 . S
C923 C922 1.372 . S
C923 C924 1.400 . S
C923 C928 1.490 . S
C924 H914 0.930 . S
C924 C923 1.400 . S
C924 C927 1.386 . S
H925 C941 0.930 . S
H926 C942 0.931 . S
C927 H915 0.929 . S
C927 C921 1.390 . S
C927 C924 1.386 . S
C928 C923 1.490 . S
C928 C930 1.395 . S
C928 C931 1.403 1_554 S
H929 C935 0.930 . S
C930 H916 0.930 . S
C930 C928 1.395 . S
C930 C933 1.403 . S
C931 C928 1.403 1_556 S
C931 C932 1.524 . S
C931 C935 1.400 . S
C932 H917 0.960 . S
C932 H918 0.960 . S
C932 H919 0.960 . S
C932 C931 1.524 . S
C933 C930 1.403 . S
C933 C934 1.392 1_554 S
C933 C937 1.495 . S
C934 C933 1.392 1_556 S
C934 C935 1.385 . S
C934 C936 1.478 . S
C935 H929 0.930 . S
C935 C931 1.400 . S
C935 C934 1.385 . S
C936 C934 1.478 . S
C936 C938 1.381 . S
C936 C942 1.383 . S
C937 C933 1.495 . S
C937 H943 0.959 . S
C937 H944 0.961 . S
C937 H945 0.960 . S
C938 C936 1.381 . S
C938 C939 1.394 . S
C938 H946 0.930 . S
C939 C938 1.394 . S
C939 C940 1.383 . S
C939 H947 0.929 . S
C940 C939 1.383 . S
C940 C941 1.377 . S
C941 H925 0.930 . S
C941 C940 1.377 . S
C941 C942 1.379 . S
C942 H926 0.931 . S
C942 C936 1.383 . S
C942 C941 1.379 . S
H943 C937 0.959 . S
H944 C937 0.961 . S
H945 C937 0.960 . S
H946 C938 0.930 . S
H947 C939 0.929 . S
H948 C956 0.929 . S
H949 C958 0.930 . S
H950 C960 0.930 . S
H951 C963 0.929 . S
H952 C966 0.930 . S
H953 C968 0.960 . S
H954 C968 0.960 . S
H955 C968 0.960 . S
C956 H948 0.929 . S
C956 C957 1.377 . S
C956 C958 1.384 . S
C957 C956 1.377 . S
C957 C963 1.390 . S
C958 H949 0.930 . S
C958 C956 1.384 . S
C958 C959 1.372 . S
C959 C958 1.372 . S
C959 C960 1.400 . S
C959 C964 1.490 . S
C960 H950 0.930 . S
C960 C959 1.400 . S
C960 C963 1.386 . S
H961 C977 0.930 . S
H962 C978 0.931 . S
C963 H951 0.929 . S
C963 C957 1.390 . S
C963 C960 1.386 . S
C964 C959 1.490 . S
C964 C966 1.395 . S
C964 C967 1.403 1_554 S
H965 C971 0.930 . S
C966 H952 0.930 . S
C966 C964 1.395 . S
C966 C969 1.403 . S
C967 C964 1.403 1_556 S
C967 C968 1.524 . S
C967 C971 1.400 . S
C968 H953 0.960 . S
C968 H954 0.960 . S
C968 H955 0.960 . S
C968 C967 1.524 . S
C969 C966 1.403 . S
C969 C970 1.392 1_554 S
C969 C973 1.495 . S
C970 C969 1.392 1_556 S
C970 C971 1.385 . S
C970 C972 1.478 . S
C971 H965 0.930 . S
C971 C967 1.400 . S
C971 C970 1.385 . S
C972 C970 1.478 . S
C972 C974 1.381 . S
C972 C978 1.383 . S
C973 C969 1.495 . S
C973 H979 0.959 . S
C973 H980 0.961 . S
C973 H981 0.960 . S
C974 C972 1.381 . S
C974 C975 1.394 . S
C974 H982 0.930 . S
C975 C974 1.394 . S
C975 C976 1.383 . S
C975 H983 0.929 . S
C976 C975 1.383 . S
C976 C977 1.377 . S
C977 H961 0.930 . S
C977 C976 1.377 . S
C977 C978 1.379 . S
C978 H962 0.931 . S
C978 C972 1.383 . S
C978 C977 1.379 . S
H979 C973 0.959 . S
H980 C973 0.961 . S
H981 C973 0.960 . S
H982 C974 0.930 . S
H983 C975 0.929 . S
H984 C992 0.929 . S
H985 C994 0.930 . S
H986 C996 0.930 . S
H987 C999 0.929 . S
H988 C1002 0.930 . S
H989 C1004 0.960 . S
H990 C1004 0.960 . S
H991 C1004 0.960 . S
C992 H984 0.929 . S
C992 C993 1.377 . S
C992 C994 1.384 . S
C993 C992 1.377 . S
C993 C999 1.390 . S
C994 H985 0.930 . S
C994 C992 1.384 . S
C994 C995 1.372 . S
C995 C994 1.372 . S
C995 C996 1.400 . S
C995 C1000 1.490 . S
C996 H986 0.930 . S
C996 C995 1.400 . S
C996 C999 1.386 . S
H997 C1013 0.930 1_655 S
H998 C1014 0.931 1_655 S
C999 H987 0.929 . S
C999 C993 1.390 . S
C999 C996 1.386 . S
C1000 C995 1.490 . S
C1000 C1002 1.395 . S
C1000 C1003 1.403 . S
H1001 C1007 0.930 . S
C1002 H988 0.930 . S
C1002 C1000 1.395 . S
C1002 C1005 1.403 . S
C1003 C1000 1.403 . S
C1003 C1004 1.524 . S
C1003 C1007 1.400 . S
C1004 H989 0.960 . S
C1004 H990 0.960 . S
C1004 H991 0.960 . S
C1004 C1003 1.524 . S
C1005 C1002 1.403 . S
C1005 C1006 1.392 . S
C1005 C1009 1.495 . S
C1006 C1005 1.392 . S
C1006 C1007 1.385 . S
C1006 C1008 1.478 . S
C1007 H1001 0.930 . S
C1007 C1003 1.400 . S
C1007 C1006 1.385 . S
C1008 C1006 1.478 . S
C1008 C1010 1.381 . S
C1008 C1014 1.383 . S
C1009 C1005 1.495 . S
C1009 H1015 0.959 . S
C1009 H1016 0.961 . S
C1009 H1017 0.960 . S
C1010 C1008 1.381 . S
C1010 C1011 1.394 . S
C1010 H1018 0.930 . S
C1011 C1010 1.394 . S
C1011 C1012 1.383 . S
C1011 H1019 0.929 . S
C1012 C1011 1.383 . S
C1012 C1013 1.377 . S
C1013 H997 0.930 1_455 S
C1013 C1012 1.377 . S
C1013 C1014 1.379 . S
C1014 H998 0.931 1_455 S
C1014 C1008 1.383 . S
C1014 C1013 1.379 . S
H1015 C1009 0.959 . S
H1016 C1009 0.961 . S
H1017 C1009 0.960 . S
H1018 C1010 0.930 . S
H1019 C1011 0.929 . S
H1020 C1028 0.929 . S
H1021 C1030 0.930 . S
H1022 C1032 0.930 . S
H1023 C1035 0.929 . S
H1024 C1038 0.930 . S
H1025 C1040 0.960 . S
H1026 C1040 0.960 . S
H1027 C1040 0.960 . S
C1028 H1020 0.929 . S
C1028 C1029 1.377 . S
C1028 C1030 1.384 . S
C1029 C1028 1.377 . S
C1029 C1035 1.390 . S
C1030 H1021 0.930 . S
C1030 C1028 1.384 . S
C1030 C1031 1.372 . S
C1031 C1030 1.372 . S
C1031 C1032 1.400 . S
C1031 C1036 1.490 . S
C1032 H1022 0.930 . S
C1032 C1031 1.400 . S
C1032 C1035 1.386 . S
H1033 C1049 0.930 . S
H1034 C1050 0.931 . S
C1035 H1023 0.929 . S
C1035 C1029 1.390 . S
C1035 C1032 1.386 . S
C1036 C1031 1.490 . S
C1036 C1038 1.395 . S
C1036 C1039 1.403 . S
H1037 C1043 0.930 . S
C1038 H1024 0.930 . S
C1038 C1036 1.395 . S
C1038 C1041 1.403 . S
C1039 C1036 1.403 . S
C1039 C1040 1.524 . S
C1039 C1043 1.400 . S
C1040 H1025 0.960 . S
C1040 H1026 0.960 . S
C1040 H1027 0.960 . S
C1040 C1039 1.524 . S
C1041 C1038 1.403 . S
C1041 C1042 1.392 . S
C1041 C1045 1.495 . S
C1042 C1041 1.392 . S
C1042 C1043 1.385 . S
C1042 C1044 1.478 . S
C1043 H1037 0.930 . S
C1043 C1039 1.400 . S
C1043 C1042 1.385 . S
C1044 C1042 1.478 . S
C1044 C1046 1.381 . S
C1044 C1050 1.383 . S
C1045 C1041 1.495 . S
C1045 H1051 0.959 . S
C1045 H1052 0.961 . S
C1045 H1053 0.960 . S
C1046 C1044 1.381 . S
C1046 C1047 1.394 . S
C1046 H1054 0.930 1_545 S
C1047 C1046 1.394 . S
C1047 C1048 1.383 . S
C1047 H1055 0.929 1_545 S
C1048 C1047 1.383 . S
C1048 C1049 1.377 . S
C1049 H1033 0.930 . S
C1049 C1048 1.377 . S
C1049 C1050 1.379 . S
C1050 H1034 0.931 . S
C1050 C1044 1.383 . S
C1050 C1049 1.379 . S
H1051 C1045 0.959 . S
H1052 C1045 0.961 . S
H1053 C1045 0.960 . S
H1054 C1046 0.930 1_565 S
H1055 C1047 0.929 1_565 S
H1056 C1064 0.929 . S
H1057 C1066 0.930 . S
H1058 C1068 0.930 . S
H1059 C1071 0.929 . S
H1060 C1074 0.930 . S
H1061 C1076 0.960 . S
H1062 C1076 0.960 . S
H1063 C1076 0.960 . S
C1064 H1056 0.929 . S
C1064 C1065 1.377 . S
C1064 C1066 1.384 . S
C1065 C1064 1.377 . S
C1065 C1071 1.390 . S
C1066 H1057 0.930 . S
C1066 C1064 1.384 . S
C1066 C1067 1.372 . S
C1067 C1066 1.372 . S
C1067 C1068 1.400 . S
C1067 C1072 1.490 . S
C1068 H1058 0.930 . S
C1068 C1067 1.400 . S
C1068 C1071 1.386 . S
H1069 C1085 0.930 . S
H1070 C1086 0.931 . S
C1071 H1059 0.929 . S
C1071 C1065 1.390 . S
C1071 C1068 1.386 . S
C1072 C1067 1.490 . S
C1072 C1074 1.395 . S
C1072 C1075 1.403 . S
H1073 C1079 0.930 . S
C1074 H1060 0.930 . S
C1074 C1072 1.395 . S
C1074 C1077 1.403 . S
C1075 C1072 1.403 . S
C1075 C1076 1.524 . S
C1075 C1079 1.400 . S
C1076 H1061 0.960 . S
C1076 H1062 0.960 . S
C1076 H1063 0.960 . S
C1076 C1075 1.524 . S
C1077 C1074 1.403 . S
C1077 C1078 1.392 . S
C1077 C1081 1.495 . S
C1078 C1077 1.392 . S
C1078 C1079 1.385 . S
C1078 C1080 1.478 . S
C1079 H1073 0.930 . S
C1079 C1075 1.400 . S
C1079 C1078 1.385 . S
C1080 C1078 1.478 . S
C1080 C1082 1.381 . S
C1080 C1086 1.383 . S
C1081 C1077 1.495 . S
C1081 H1087 0.959 . S
C1081 H1088 0.961 . S
C1081 H1089 0.960 . S
C1082 C1080 1.381 . S
C1082 C1083 1.394 . S
C1082 H1090 0.930 . S
C1083 C1082 1.394 . S
C1083 C1084 1.383 . S
C1083 H1091 0.929 . S
C1084 C1083 1.383 . S
C1084 C1085 1.377 . S
C1085 H1069 0.930 . S
C1085 C1084 1.377 . S
C1085 C1086 1.379 . S
C1086 H1070 0.931 . S
C1086 C1080 1.383 . S
C1086 C1085 1.379 . S
H1087 C1081 0.959 . S
H1088 C1081 0.961 . S
H1089 C1081 0.960 . S
H1090 C1082 0.930 . S
H1091 C1083 0.929 . S
H1092 C1100 0.929 . S
H1093 C1102 0.930 . S
H1094 C1104 0.930 . S
H1095 C1107 0.929 . S
H1096 C1110 0.930 . S
H1097 C1112 0.960 . S
H1098 C1112 0.960 . S
H1099 C1112 0.960 . S
C1100 H1092 0.929 . S
C1100 C1101 1.377 . S
C1100 C1102 1.384 . S
C1101 C1100 1.377 . S
C1101 C1107 1.390 . S
C1102 H1093 0.930 . S
C1102 C1100 1.384 . S
C1102 C1103 1.372 . S
C1103 C1102 1.372 . S
C1103 C1104 1.400 . S
C1103 C1108 1.490 . S
C1104 H1094 0.930 . S
C1104 C1103 1.400 . S
C1104 C1107 1.386 . S
H1105 C1121 0.930 . S
H1106 C1122 0.931 . S
C1107 H1095 0.929 . S
C1107 C1101 1.390 . S
C1107 C1104 1.386 . S
C1108 C1103 1.490 . S
C1108 C1110 1.395 . S
C1108 C1111 1.403 . S
H1109 C1115 0.930 . S
C1110 H1096 0.930 . S
C1110 C1108 1.395 . S
C1110 C1113 1.403 . S
C1111 C1108 1.403 . S
C1111 C1112 1.524 . S
C1111 C1115 1.400 . S
C1112 H1097 0.960 . S
C1112 H1098 0.960 . S
C1112 H1099 0.960 . S
C1112 C1111 1.524 . S
C1113 C1110 1.403 . S
C1113 C1114 1.392 . S
C1113 C1117 1.495 . S
C1114 C1113 1.392 . S
C1114 C1115 1.385 . S
C1114 C1116 1.478 . S
C1115 H1109 0.930 . S
C1115 C1111 1.400 . S
C1115 C1114 1.385 . S
C1116 C1114 1.478 . S
C1116 C1118 1.381 . S
C1116 C1122 1.383 . S
C1117 C1113 1.495 . S
C1117 H1123 0.959 . S
C1117 H1124 0.961 . S
C1117 H1125 0.960 . S
C1118 C1116 1.381 . S
C1118 C1119 1.394 . S
C1118 H1126 0.930 . S
C1119 C1118 1.394 . S
C1119 C1120 1.383 . S
C1119 H1127 0.929 . S
C1120 C1119 1.383 . S
C1120 C1121 1.377 . S
C1121 H1105 0.930 . S
C1121 C1120 1.377 . S
C1121 C1122 1.379 . S
C1122 H1106 0.931 . S
C1122 C1116 1.383 . S
C1122 C1121 1.379 . S
H1123 C1117 0.959 . S
H1124 C1117 0.961 . S
H1125 C1117 0.960 . S
H1126 C1118 0.930 . S
H1127 C1119 0.929 . S
H1128 C1136 0.929 . S
H1129 C1138 0.930 . S
H1130 C1140 0.930 . S
H1131 C1143 0.929 . S
H1132 C1146 0.930 . S
H1133 C1148 0.960 . S
H1134 C1148 0.960 1_455 S
H1135 C1148 0.960 . S
C1136 H1128 0.929 . S
C1136 C1137 1.377 . S
C1136 C1138 1.384 . S
C1137 C1136 1.377 . S
C1137 C1143 1.390 . S
C1138 H1129 0.930 . S
C1138 C1136 1.384 . S
C1138 C1139 1.372 . S
C1139 C1138 1.372 . S
C1139 C1140 1.400 . S
C1139 C1144 1.490 . S
C1140 H1130 0.930 . S
C1140 C1139 1.400 . S
C1140 C1143 1.386 . S
H1141 C1157 0.930 . S
H1142 C1158 0.931 . S
C1143 H1131 0.929 . S
C1143 C1137 1.390 . S
C1143 C1140 1.386 . S
C1144 C1139 1.490 . S
C1144 C1146 1.395 . S
C1144 C1147 1.403 . S
H1145 C1151 0.930 . S
C1146 H1132 0.930 . S
C1146 C1144 1.395 . S
C1146 C1149 1.403 . S
C1147 C1144 1.403 . S
C1147 C1148 1.524 . S
C1147 C1151 1.400 . S
C1148 H1133 0.960 . S
C1148 H1134 0.960 1_655 S
C1148 H1135 0.960 . S
C1148 C1147 1.524 . S
C1149 C1146 1.403 . S
C1149 C1150 1.392 . S
C1149 C1153 1.495 . S
C1150 C1149 1.392 . S
C1150 C1151 1.385 . S
C1150 C1152 1.478 . S
C1151 H1145 0.930 . S
C1151 C1147 1.400 . S
C1151 C1150 1.385 . S
C1152 C1150 1.478 . S
C1152 C1154 1.367 1_655 S
C1152 C1158 1.383 . S
C1153 C1149 1.495 . S
C1153 H1159 0.959 . S
C1153 H1160 0.961 . S
C1153 H1161 0.960 . S
C1154 C1152 1.367 1_455 S
C1154 C1155 1.397 . S
C1154 H1162 0.942 . S
C1155 C1154 1.397 . S
C1155 C1156 1.383 1_455 S
C1155 H1163 0.929 . S
C1156 C1155 1.383 1_655 S
C1156 C1157 1.377 . S
C1157 H1141 0.930 . S
C1157 C1156 1.377 . S
C1157 C1158 1.379 . S
C1158 H1142 0.931 . S
C1158 C1152 1.383 . S
C1158 C1157 1.379 . S
H1159 C1153 0.959 . S
H1160 C1153 0.961 . S
H1161 C1153 0.960 . S
H1162 C1154 0.942 . S
H1163 C1155 0.929 . S
H1164 C1172 0.929 . S
H1165 C1174 0.930 . S
H1166 C1176 0.930 . S
H1167 C1179 0.929 . S
H1168 C1182 0.930 . S
H1169 C1184 0.960 . S
H1170 C1184 0.960 . S
H1171 C1184 0.960 1_565 S
C1172 H1164 0.929 . S
C1172 C1173 1.377 . S
C1172 C1174 1.384 . S
C1173 C1172 1.377 . S
C1173 C1179 1.390 . S
C1174 H1165 0.930 . S
C1174 C1172 1.384 . S
C1174 C1175 1.372 . S
C1175 C1174 1.372 . S
C1175 C1176 1.400 . S
C1175 C1180 1.490 . S
C1176 H1166 0.930 . S
C1176 C1175 1.400 . S
C1176 C1179 1.386 . S
H1177 C1193 0.930 . S
H1178 C1194 0.931 . S
C1179 H1167 0.929 . S
C1179 C1173 1.390 . S
C1179 C1176 1.386 . S
C1180 C1175 1.490 . S
C1180 C1182 1.395 . S
C1180 C1183 1.403 . S
H1181 C1187 0.949 . S
C1182 H1168 0.930 . S
C1182 C1180 1.395 . S
C1182 C1185 1.403 . S
C1183 C1180 1.403 . S
C1183 C1184 1.524 1_565 S
C1183 C1187 1.400 . S
C1184 H1169 0.960 . S
C1184 H1170 0.960 . S
C1184 H1171 0.960 1_545 S
C1184 C1183 1.524 1_545 S
C1185 C1182 1.403 . S
C1185 C1186 1.392 . S
C1185 C1189 1.495 . S
C1186 C1185 1.392 . S
C1186 C1187 1.385 . S
C1186 C1188 1.478 . S
C1187 H1181 0.949 . S
C1187 C1183 1.400 . S
C1187 C1186 1.385 . S
C1188 C1186 1.478 . S
C1188 C1190 1.381 1_565 S
C1188 C1194 1.383 . S
C1189 C1185 1.495 . S
C1189 H1195 0.959 . S
C1189 H1196 0.961 . S
C1189 H1197 0.960 . S
C1190 C1188 1.381 1_545 S
C1190 C1191 1.394 . S
C1190 H1198 0.930 . S
C1191 C1190 1.394 . S
C1191 C1192 1.383 1_545 S
C1191 H1199 0.929 . S
C1192 C1191 1.383 1_565 S
C1192 C1193 1.377 . S
C1193 H1177 0.930 . S
C1193 C1192 1.377 . S
C1193 C1194 1.379 . S
C1194 H1178 0.931 . S
C1194 C1188 1.383 . S
C1194 C1193 1.379 . S
H1195 C1189 0.959 . S
H1196 C1189 0.961 . S
H1197 C1189 0.960 . S
H1198 C1190 0.930 . S
H1199 C1191 0.929 . S
H1200 C1208 0.929 . S
H1201 C1210 0.930 . S
H1202 C1212 0.930 . S
H1203 C1215 0.929 . S
H1204 C1218 0.930 . S
H1205 C1220 0.960 . S
H1206 C1220 0.960 . S
H1207 C1220 0.960 . S
C1208 H1200 0.929 . S
C1208 C1209 1.377 . S
C1208 C1210 1.384 . S
C1209 C1208 1.377 . S
C1209 C1215 1.390 . S
C1210 H1201 0.930 . S
C1210 C1208 1.384 . S
C1210 C1211 1.372 . S
C1211 C1210 1.372 . S
C1211 C1212 1.400 . S
C1211 C1216 1.490 . S
C1212 H1202 0.930 . S
C1212 C1211 1.400 . S
C1212 C1215 1.386 . S
H1213 C1229 0.930 . S
H1214 C1230 0.931 . S
C1215 H1203 0.929 . S
C1215 C1209 1.390 . S
C1215 C1212 1.386 . S
C1216 C1211 1.490 . S
C1216 C1218 1.395 . S
C1216 C1219 1.403 . S
H1217 C1223 0.930 . S
C1218 H1204 0.930 . S
C1218 C1216 1.395 . S
C1218 C1221 1.403 . S
C1219 C1216 1.403 . S
C1219 C1220 1.524 . S
C1219 C1223 1.400 . S
C1220 H1205 0.960 . S
C1220 H1206 0.960 . S
C1220 H1207 0.960 . S
C1220 C1219 1.524 . S
C1221 C1218 1.403 . S
C1221 C1222 1.392 . S
C1221 C1225 1.495 . S
C1222 C1221 1.392 . S
C1222 C1223 1.385 . S
C1222 C1224 1.478 . S
C1223 H1217 0.930 . S
C1223 C1219 1.400 . S
C1223 C1222 1.385 . S
C1224 C1222 1.478 . S
C1224 C1226 1.381 . S
C1224 C1230 1.383 . S
C1225 C1221 1.495 . S
C1225 H1231 0.959 . S
C1225 H1232 0.961 . S
C1225 H1233 0.960 . S
C1226 C1224 1.381 . S
C1226 C1227 1.394 . S
C1226 H1234 0.930 . S
C1227 C1226 1.394 . S
C1227 C1228 1.383 . S
C1227 H1235 0.929 . S
C1228 C1227 1.383 . S
C1228 C1229 1.377 . S
C1229 H1213 0.930 . S
C1229 C1228 1.377 . S
C1229 C1230 1.379 . S
C1230 H1214 0.931 . S
C1230 C1224 1.383 . S
C1230 C1229 1.379 . S
H1231 C1225 0.959 . S
H1232 C1225 0.961 . S
H1233 C1225 0.960 . S
H1234 C1226 0.930 . S
H1235 C1227 0.929 . S
H1236 C1244 0.929 . S
H1237 C1246 0.930 . S
H1238 C1248 0.930 . S
H1239 C1251 0.929 . S
H1240 C1254 0.930 . S
H1241 C1256 0.960 . S
H1242 C1256 0.960 . S
H1243 C1256 0.960 . S
C1244 H1236 0.929 . S
C1244 C1245 1.377 . S
C1244 C1246 1.384 . S
C1245 C1244 1.377 . S
C1245 C1251 1.390 . S
C1246 H1237 0.930 . S
C1246 C1244 1.384 . S
C1246 C1247 1.372 . S
C1247 C1246 1.372 . S
C1247 C1248 1.400 . S
C1247 C1252 1.490 . S
C1248 H1238 0.930 . S
C1248 C1247 1.400 . S
C1248 C1251 1.386 . S
H1249 C1265 0.930 . S
H1250 C1266 0.931 . S
C1251 H1239 0.929 . S
C1251 C1245 1.390 . S
C1251 C1248 1.386 . S
C1252 C1247 1.490 . S
C1252 C1254 1.395 . S
C1252 C1255 1.403 . S
H1253 C1259 0.930 . S
C1254 H1240 0.930 . S
C1254 C1252 1.395 . S
C1254 C1257 1.403 . S
C1255 C1252 1.403 . S
C1255 C1256 1.524 . S
C1255 C1259 1.400 . S
C1256 H1241 0.960 . S
C1256 H1242 0.960 . S
C1256 H1243 0.960 . S
C1256 C1255 1.524 . S
C1257 C1254 1.403 . S
C1257 C1258 1.392 . S
C1257 C1261 1.495 . S
C1258 C1257 1.392 . S
C1258 C1259 1.385 . S
C1258 C1260 1.478 . S
C1259 H1253 0.930 . S
C1259 C1255 1.400 . S
C1259 C1258 1.385 . S
C1260 C1258 1.478 . S
C1260 C1262 1.381 . S
C1260 C1266 1.383 . S
C1261 C1257 1.495 . S
C1261 H1267 0.959 . S
C1261 H1268 0.961 . S
C1261 H1269 0.960 . S
C1262 C1260 1.381 . S
C1262 C1263 1.394 . S
C1262 H1270 0.930 . S
C1263 C1262 1.394 . S
C1263 C1264 1.383 . S
C1263 H1271 0.929 . S
C1264 C1263 1.383 . S
C1264 C1265 1.377 . S
C1265 H1249 0.930 . S
C1265 C1264 1.377 . S
C1265 C1266 1.379 . S
C1266 H1250 0.931 . S
C1266 C1260 1.383 . S
C1266 C1265 1.379 . S
H1267 C1261 0.959 . S
H1268 C1261 0.961 . S
H1269 C1261 0.960 . S
H1270 C1262 0.930 . S
H1271 C1263 0.929 . S
C417 C61 1.741 . S
C436 C135 1.827 . S
C472 C212 1.828 . S
C453 C70 1.753 . S
C508 C303 1.818 . S
C489 C43 1.724 . S
C544 C387 1.802 . S
C525 C52 1.731 . S
C580 C146 1.822 1_565 S
C561 C25 1.746 . S
C597 C34 1.752 . S
C616 C223 1.824 . S
C633 C7 1.731 . S
C652 C314 1.811 . S
C669 C16 1.723 . S
C688 C398 1.793 1_655 S
C724 C130 0.517 1_455 S
C705 C50 0.322 . S
C760 C225 0.647 . S
C741 C59 0.318 . S
C796 C298 0.540 . S
C777 C67 0.314 . S
C813 C41 0.331 . S
C832 C382 0.420 . S
C849 C14 0.318 . S
C868 C141 0.532 . S
C904 C214 0.647 . S
C885 C23 0.283 . S
C940 C309 0.469 . S
C921 C31 0.346 . S
C957 C5 0.319 . S
C976 C393 0.441 . S
C993 C49 1.787 . S
C1012 C139 1.951 . S
C1029 C58 1.776 . S
C1048 C230 1.934 . S
C1084 C307 1.964 . S
C1065 C68 1.800 . S
C1120 C391 1.969 . S
C1101 C40 1.801 . S
C1137 C13 1.786 . S
C1156 C128 1.950 . S
C1192 C219 1.923 . S
C1173 C22 1.781 . S
C1228 C296 1.957 . S
C1209 C32 1.799 . S
C1245 C4 1.802 . S
C1264 C380 1.968 . S
