# Generated by pormake.
# Topology pyr, (3,6)-cn, num edge types: 1
# Building blocks:
#     Node 0, Type 0, BuildingBlock: INOVEN_clean_linker_0, # of connection points: 3
#     Node 1, Type 0, BuildingBlock: INOVEN_clean_linker_0, # of connection points: 3
#     Node 2, Type 0, BuildingBlock: INOVEN_clean_linker_0, # of connection points: 3
#     Node 3, Type 0, BuildingBlock: INOVEN_clean_linker_0, # of connection points: 3
#     Node 4, Type 0, BuildingBlock: INOVEN_clean_linker_0, # of connection points: 3
#     Node 5, Type 0, BuildingBlock: INOVEN_clean_linker_0, # of connection points: 3
#     Node 6, Type 0, BuildingBlock: INOVEN_clean_linker_0, # of connection points: 3
#     Node 7, Type 0, BuildingBlock: INOVEN_clean_linker_0, # of connection points: 3
#     Node 8, Type 1, BuildingBlock: VOLQOD_clean_sbu_1, # of connection points: 6
#     Node 9, Type 1, BuildingBlock: VOLQOD_clean_sbu_1, # of connection points: 6
#     Node 10, Type 1, BuildingBlock: VOLQOD_clean_sbu_1, # of connection points: 6
#     Node 11, Type 1, BuildingBlock: VOLQOD_clean_sbu_1, # of connection points: 6
#     Edge 12, Type (0, 1), BuildingBlock: CIFDUS_clean_linker_0, # of connection points: 2
#     Edge 13, Type (0, 1), BuildingBlock: CIFDUS_clean_linker_0, # of connection points: 2
#     Edge 14, Type (0, 1), BuildingBlock: CIFDUS_clean_linker_0, # of connection points: 2
#     Edge 15, Type (0, 1), BuildingBlock: CIFDUS_clean_linker_0, # of connection points: 2
#     Edge 16, Type (0, 1), BuildingBlock: CIFDUS_clean_linker_0, # of connection points: 2
#     Edge 17, Type (0, 1), BuildingBlock: CIFDUS_clean_linker_0, # of connection points: 2
#     Edge 18, Type (0, 1), BuildingBlock: CIFDUS_clean_linker_0, # of connection points: 2
#     Edge 19, Type (0, 1), BuildingBlock: CIFDUS_clean_linker_0, # of connection points: 2
#     Edge 20, Type (0, 1), BuildingBlock: CIFDUS_clean_linker_0, # of connection points: 2
#     Edge 21, Type (0, 1), BuildingBlock: CIFDUS_clean_linker_0, # of connection points: 2
#     Edge 22, Type (0, 1), BuildingBlock: CIFDUS_clean_linker_0, # of connection points: 2
#     Edge 23, Type (0, 1), BuildingBlock: CIFDUS_clean_linker_0, # of connection points: 2
#     Edge 24, Type (0, 1), BuildingBlock: CIFDUS_clean_linker_0, # of connection points: 2
#     Edge 25, Type (0, 1), BuildingBlock: CIFDUS_clean_linker_0, # of connection points: 2
#     Edge 26, Type (0, 1), BuildingBlock: CIFDUS_clean_linker_0, # of connection points: 2
#     Edge 27, Type (0, 1), BuildingBlock: CIFDUS_clean_linker_0, # of connection points: 2
#     Edge 28, Type (0, 1), BuildingBlock: CIFDUS_clean_linker_0, # of connection points: 2
#     Edge 29, Type (0, 1), BuildingBlock: CIFDUS_clean_linker_0, # of connection points: 2
#     Edge 30, Type (0, 1), BuildingBlock: CIFDUS_clean_linker_0, # of connection points: 2
#     Edge 31, Type (0, 1), BuildingBlock: CIFDUS_clean_linker_0, # of connection points: 2
#     Edge 32, Type (0, 1), BuildingBlock: CIFDUS_clean_linker_0, # of connection points: 2
#     Edge 33, Type (0, 1), BuildingBlock: CIFDUS_clean_linker_0, # of connection points: 2
#     Edge 34, Type (0, 1), BuildingBlock: CIFDUS_clean_linker_0, # of connection points: 2
#     Edge 35, Type (0, 1), BuildingBlock: CIFDUS_clean_linker_0, # of connection points: 2
# Relax obj value: 0.103
# Max RMSD: 0.185
# Mean RMSD: 0.145
data_MOF--net-pry--node1-VOLQOD_clean_sbu_1--node2-INOVEN_clean_linker_0--edge1-CIFDUS_clean_linker_0
_symmetry_space_group_name_H-M    P1
_symmetry_Int_Tables_number       1
_symmetry_cell_setting            triclinic
loop_
_symmetry_equiv_pos_as_xyz
'x, y, z'
_cell_length_a     31.742165
_cell_length_b     32.292205
_cell_length_c     33.857216
_cell_angle_alpha  90.366195
_cell_angle_beta   91.01938
_cell_angle_gamma 95.784037
loop_
_atom_site_label
_atom_site_type_symbol
_atom_site_fract_x
_atom_site_fract_y
_atom_site_fract_z
_atom_type_partial_charge
H0 H 0.07934 0.16572 0.21892 0.0
H1 H 0.17218 0.07771 0.21493 0.0
H2 H 0.16216 0.16521 0.12035 0.0
N3 N 0.09791 0.20237 0.15185 0.0
N4 N 0.10957 0.22013 0.12069 0.0
C5 C 0.10437 0.15201 0.20371 0.0
C6 C 0.12442 0.1199 0.22146 0.0
C7 C 0.11762 0.1682 0.16729 0.0
C8 C 0.1511 0.1517 0.14794 0.0
C9 C 0.17125 0.11892 0.16473 0.0
C10 C 0.15746 0.10317 0.20159 0.0
H11 H 0.38282 0.88208 0.62003 0.0
H12 H 0.46013 0.86683 0.724 0.0
H13 H 0.35847 0.94517 0.72738 0.0
N14 N 0.33067 0.92954 0.65333 0.0
N15 N 0.30074 0.93868 0.67395 0.0
C16 C 0.39137 0.88926 0.6506 0.0
C17 C 0.42417 0.87012 0.66954 0.0
C18 C 0.36738 0.91573 0.67149 0.0
C19 C 0.37783 0.92544 0.71114 0.0
C20 C 0.41191 0.90889 0.73027 0.0
C21 C 0.43481 0.88101 0.70918 0.0
H22 H 0.55285 0.36144 0.91611 0.0
H23 H 0.6532 0.37625 0.00389 0.0
H24 H 0.64428 0.46827 0.91388 0.0
N25 N 0.57387 0.43092 0.87859 0.0
N26 N 0.58686 0.46359 0.86129 0.0
C27 C 0.57975 0.37967 0.92988 0.0
C28 C 0.60145 0.36372 0.96201 0.0
C29 C 0.59434 0.41787 0.91326 0.0
C30 C 0.6314 0.44024 0.92854 0.0
C31 C 0.65353 0.42498 0.9607 0.0
C32 C 0.63709 0.38766 0.97832 0.0
H33 H 0.84708 0.59741 0.37191 0.0
H34 H 0.83552 0.70553 0.44515 0.0
H35 H 0.93739 0.70545 0.36434 0.0
N36 N 0.91332 0.62981 0.33254 0.0
N37 N 0.94496 0.64758 0.31611 0.0
C38 C 0.85861 0.62841 0.38217 0.0
C39 C 0.83685 0.64841 0.41152 0.0
C40 C 0.89472 0.64876 0.36492 0.0
C41 C 0.90978 0.6891 0.37766 0.0
C42 C 0.88878 0.70905 0.40699 0.0
C43 C 0.85258 0.68875 0.42386 0.0
H44 H 0.86278 0.94172 0.84381 0.0
H45 H 0.95508 0.85262 0.8537 0.0
H46 H 0.85515 0.85369 0.93769 0.0
N47 N 0.81864 0.91685 0.90444 0.0
N48 N 0.80675 0.91672 0.93931 0.0
C49 C 0.87681 0.91728 0.85958 0.0
C50 C 0.91288 0.90077 0.84509 0.0
C51 C 0.85691 0.90142 0.89341 0.0
C52 C 0.8721 0.86755 0.91274 0.0
C53 C 0.90708 0.84939 0.89806 0.0
C54 C 0.9282 0.86685 0.86497 0.0
H55 H 0.57732 0.16543 0.36559 0.0
H56 H 0.65573 0.06662 0.38342 0.0
H57 H 0.65555 0.16562 0.47012 0.0
N58 N 0.60173 0.20925 0.4279 0.0
N59 N 0.60715 0.22668 0.46082 0.0
C60 C 0.59959 0.1504 0.38389 0.0
C61 C 0.61352 0.1128 0.37159 0.0
C62 C 0.61444 0.1694 0.41924 0.0
C63 C 0.64391 0.15052 0.44287 0.0
C64 C 0.65957 0.11321 0.43029 0.0
C65 C 0.64339 0.09435 0.3947 0.0
H66 H 0.47115 0.66183 0.1451 0.0
H67 H 0.36517 0.66878 0.06547 0.0
H68 H 0.36175 0.57273 0.15294 0.0
N69 N 0.43733 0.59995 0.18705 0.0
N70 N 0.41446 0.58272 0.21293 0.0
C71 C 0.44086 0.64849 0.13308 0.0
C72 C 0.42114 0.66867 0.10239 0.0
C73 C 0.41968 0.61405 0.15149 0.0
C74 C 0.37895 0.59855 0.13795 0.0
C75 C 0.35959 0.61758 0.10619 0.0
C76 C 0.38121 0.6522 0.08807 0.0
H77 H 0.05425 0.39122 0.62995 0.0
H78 H 0.15063 0.39782 0.54134 0.0
H79 H 0.14088 0.50115 0.61907 0.0
N80 N 0.07697 0.4643 0.66174 0.0
N81 N 0.09588 0.49475 0.67964 0.0
C82 C 0.07902 0.40869 0.61359 0.0
C83 C 0.1 0.3893 0.58335 0.0
C84 C 0.09307 0.44921 0.6262 0.0
C85 C 0.12787 0.47097 0.60779 0.0
C86 C 0.14913 0.45192 0.57796 0.0
C87 C 0.1338 0.41211 0.56453 0.0
O88 O 0.98868 0.12849 0.57441 0.0
Zn89 Zn 0.96147 0.07021 0.57085 0.0
O90 O 0.99347 0.03786 0.53491 0.0
Zn91 Zn 0.95859 0.02124 0.48815 0.0
Zn92 Zn 0.04614 0.06983 0.51852 0.0
Zn93 Zn 0.00777 0.98891 0.56286 0.0
O94 O 0.95022 0.95893 0.48318 0.0
O95 O 0.98505 0.9367 0.53512 0.0
O96 O 0.90311 0.076 0.54878 0.0
O97 O 0.90083 0.04233 0.49114 0.0
O98 O 0.98682 0.0428 0.43818 0.0
O99 O 0.05011 0.07109 0.45894 0.0
O100 O 0.09866 0.04619 0.54069 0.0
O101 O 0.95652 0.04536 0.62604 0.0
O102 O 0.0701 0.98932 0.57045 0.0
O103 O 0.98485 0.98615 0.61701 0.0
C104 C 0.02131 0.14775 0.55922 0.0
C105 C 0.96254 0.92956 0.50394 0.0
C106 C 0.02361 0.06049 0.43106 0.0
C107 C 0.88364 0.06364 0.51701 0.0
C108 C 0.10229 0.01353 0.56086 0.0
C109 C 0.96664 0.01063 0.63897 0.0
O110 O 0.0461 0.12922 0.53751 0.0
O111 O 0.47465 0.11309 0.01414 0.0
Zn112 Zn 0.451 0.05319 0.0234 0.0
O113 O 0.4933 0.02328 0.05194 0.0
Zn114 Zn 0.50633 0.97607 0.02032 0.0
Zn115 Zn 0.54539 0.05955 0.06127 0.0
Zn116 Zn 0.47224 0.00337 0.10298 0.0
O117 O 0.48883 0.92227 0.04679 0.0
O118 O 0.4678 0.94074 0.10593 0.0
O119 O 0.43703 0.02726 0.96874 0.0
O120 O 0.47721 0.97483 0.96788 0.0
O121 O 0.56839 0.97734 0.01082 0.0
O122 O 0.59688 0.03444 0.0418 0.0
O123 O 0.55566 0.07157 0.11878 0.0
O124 O 0.39774 0.05437 0.05616 0.0
O125 O 0.50908 0.02706 0.14862 0.0
O126 O 0.41482 0.02234 0.11131 0.0
C127 C 0.51155 0.13211 0.01932 0.0
C128 C 0.475 0.91282 0.0809 0.0
C129 C 0.60056 0.00168 0.02162 0.0
C130 C 0.45077 0.99635 0.95113 0.0
C131 C 0.54002 0.05537 0.15007 0.0
C132 C 0.38899 0.04167 0.091 0.0
O133 O 0.54142 0.1143 0.03538 0.0
O134 O 0.55302 0.57371 0.62894 0.0
Zn135 Zn 0.54431 0.59406 0.57313 0.0
O136 O 0.50711 0.55236 0.5427 0.0
Zn137 Zn 0.53535 0.53266 0.4966 0.0
Zn138 Zn 0.48994 0.50431 0.57537 0.0
Zn139 Zn 0.45721 0.57746 0.52495 0.0
O140 O 0.50388 0.54214 0.44573 0.0
O141 O 0.45095 0.57633 0.46614 0.0
O142 O 0.60158 0.60369 0.54694 0.0
O143 O 0.59302 0.56267 0.49375 0.0
O144 O 0.54321 0.47161 0.50001 0.0
O145 O 0.51506 0.45267 0.55738 0.0
O146 O 0.42668 0.49145 0.57503 0.0
O147 O 0.51793 0.64914 0.57846 0.0
O148 O 0.40463 0.54548 0.54352 0.0
O149 O 0.45721 0.63567 0.54519 0.0
C150 C 0.53578 0.5426 0.64782 0.0
C151 C 0.47084 0.56032 0.43859 0.0
C152 C 0.53459 0.44422 0.52632 0.0
C153 C 0.61568 0.58896 0.51526 0.0
C154 C 0.39693 0.51144 0.56182 0.0
C155 C 0.48261 0.66024 0.56598 0.0
O156 O 0.50999 0.51508 0.63088 0.0
O157 O 0.98175 0.51715 0.09424 0.0
Zn158 Zn 0.98462 0.49246 0.04014 0.0
O159 O 0.01233 0.53284 0.0042 0.0
Zn160 Zn 0.97043 0.54789 0.96549 0.0
Zn161 Zn 0.0356 0.58275 0.03308 0.0
Zn162 Zn 0.05817 0.50794 0.97829 0.0
O163 O 0.98605 0.53088 0.91069 0.0
O164 O 0.04999 0.50923 0.91959 0.0
O165 O 0.92463 0.47495 0.02305 0.0
O166 O 0.91212 0.52048 0.97645 0.0
O167 O 0.96826 0.6098 0.96463 0.0
O168 O 0.01847 0.63542 0.00717 0.0
O169 O 0.09917 0.58567 0.03638 0.0
O170 O 0.01498 0.44119 0.0439 0.0
O171 O 0.11481 0.53847 0.99236 0.0
O172 O 0.06217 0.44859 0.99628 0.0
C173 C 0.99448 0.55257 0.10914 0.0
C174 C 0.01946 0.51773 0.89718 0.0
C175 C 0.98983 0.64065 0.9813 0.0
C176 C 0.89949 0.49053 -0.00103 0.0
C177 C 0.12614 0.56716 0.01739 0.0
C178 C 0.04413 0.42726 0.02391 0.0
O179 O 0.01476 0.58083 0.08886 0.0
H180 H 0.04507 0.09967 0.24929 0.0
H181 H 0.17702 0.10911 0.28425 0.0
H182 H 0.15764 0.09134 0.35209 0.0
H183 H 0.10311 0.07568 0.40202 0.0
H184 H 0.9711 0.06438 0.36669 0.0
H185 H 0.99057 0.08052 0.29862 0.0
C186 C 0.06953 0.09772 0.2718 0.0
C187 C 0.1124 0.10579 0.2618 0.0
C188 C 0.05815 0.08742 0.31073 0.0
C189 C 0.14381 0.10267 0.29112 0.0
C190 C 0.13274 0.0928 0.32997 0.0
C191 C 0.07858 0.07676 0.37944 0.0
C192 C 0.03569 0.06916 0.38957 0.0
C193 C 0.09001 0.08554 0.34021 0.0
C194 C 0.00436 0.07012 0.35978 0.0
C195 C 0.01545 0.0794 0.32081 0.0
H196 H 0.40615 0.98288 0.76893 0.0
H197 H 0.43862 0.85764 0.78818 0.0
H198 H 0.45288 0.87382 0.85772 0.0
H199 H 0.45561 0.92295 0.91324 0.0
H200 H 0.41823 0.04645 0.89563 0.0
H201 H 0.40451 0.03071 0.82545 0.0
C202 C 0.41573 0.95879 0.78829 0.0
C203 C 0.42152 0.91908 0.77282 0.0
C204 C 0.42242 0.96778 0.82871 0.0
C205 C 0.43485 0.88877 0.79863 0.0
C206 C 0.44251 0.89781 0.83866 0.0
C207 C 0.44425 0.94644 0.89413 0.0
C208 C 0.43814 0.98592 0.90964 0.0
C209 C 0.43636 0.93715 0.85399 0.0
C210 C 0.42299 0.01577 0.88452 0.0
C211 C 0.41545 0.00687 0.84434 0.0
H212 H 0.61403 0.52886 0.81945 0.0
H213 H 0.51833 0.42439 0.82226 0.0
H214 H 0.49233 0.44211 0.75686 0.0
H215 H 0.50006 0.48412 0.69735 0.0
H216 H 0.59683 0.58801 0.69293 0.0
H217 H 0.61896 0.57402 0.76068 0.0
C218 C 0.58716 0.51049 0.8057 0.0
C219 C 0.56831 0.4755 0.82528 0.0
C220 C 0.57281 0.52055 0.76787 0.0
C221 C 0.53349 0.45148 0.80762 0.0
C222 C 0.51868 0.46154 0.77022 0.0
C223 C 0.52586 0.50395 0.71116 0.0
C224 C 0.54705 0.5368 0.68988 0.0
C225 C 0.53865 0.4955 0.74981 0.0
C226 C 0.58009 0.56239 0.70854 0.0
C227 C 0.59282 0.55436 0.74724 0.0
H228 H 0.91882 0.57544 0.27763 0.0
H229 H 0.00936 0.68415 0.27734 0.0
H230 H 0.0353 0.6633 0.21316 0.0
H231 H 0.02811 0.61703 0.15532 0.0
H232 H 0.93716 0.50815 0.15569 0.0
H233 H 0.91556 0.52605 0.22192 0.0
C234 C 0.94458 0.5942 0.26371 0.0
C235 C 0.96227 0.63145 0.28171 0.0
C236 C 0.95891 0.58217 0.22683 0.0
C237 C 0.9956 0.65541 0.26361 0.0
C238 C 0.01018 0.64361 0.22702 0.0
C239 C 0.00371 0.59709 0.16995 0.0
C240 C 0.98394 0.56163 0.15041 0.0
C241 C 0.99141 0.60753 0.20798 0.0
C242 C 0.95281 0.53576 0.17001 0.0
C243 C 0.94035 0.54598 0.20787 0.0
H244 H 0.24232 0.09215 0.19866 0.0
H245 H 0.18275 0.10879 0.08495 0.0
H246 H 0.24459 0.08685 0.05201 0.0
H247 H 0.31662 0.06418 0.05541 0.0
H248 H 0.37298 0.04293 0.16957 0.0
H249 H 0.31086 0.06424 0.20212 0.0
C250 C 0.24223 0.09021 0.16669 0.0
C251 C 0.20775 0.10258 0.14454 0.0
C252 C 0.27745 0.07659 0.14784 0.0
C253 C 0.20906 0.10046 0.10299 0.0
C254 C 0.24436 0.08757 0.08401 0.0
C255 C 0.31517 0.06403 0.08738 0.0
C256 C 0.34957 0.05213 0.10991 0.0
C257 C 0.27895 0.07592 0.10614 0.0
C258 C 0.34699 0.05178 0.15137 0.0
C259 C 0.31149 0.06413 0.17012 0.0
H260 H 0.28904 0.97325 0.60197 0.0
H261 H 0.22829 0.93463 0.7103 0.0
H262 H 0.16064 0.95438 0.68468 0.0
H263 H 0.11885 0.98112 0.63134 0.0
H264 H 0.17917 0.02545 0.52445 0.0
H265 H 0.24731 0.00534 0.54954 0.0
C266 C 0.26088 0.96919 0.61974 0.0
C267 C 0.26296 0.95191 0.65775 0.0
C268 C 0.22236 0.98167 0.60511 0.0
C269 C 0.2268 0.9476 0.68093 0.0
C270 C 0.18833 0.95883 0.66632 0.0
C271 C 0.14694 0.98636 0.61351 0.0
C272 C 0.1441 0.00415 0.57598 0.0
C273 C 0.18572 0.97562 0.62842 0.0
C274 C 0.18077 0.01167 0.55346 0.0
C275 C 0.21958 6e-05 0.56774 0.0
H276 H 0.72218 0.3864 0.98376 0.0
H277 H 0.68203 0.50844 0.96279 0.0
H278 H 0.75489 0.53949 0.97226 0.0
H279 H 0.83062 0.5314 0.98334 0.0
H280 H 0.86887 0.40998 0.00968 0.0
H281 H 0.79558 0.37932 0.00218 0.0
C282 C 0.72882 0.41994 0.98237 0.0
C283 C 0.6964 0.44489 0.97223 0.0
C284 C 0.77052 0.43767 0.98857 0.0
C285 C 0.70634 0.48827 0.96976 0.0
C286 C 0.748 0.50612 0.97532 0.0
C287 C 0.82275 0.49826 0.98753 0.0
C288 C 0.85495 0.47282 0.99653 0.0
C289 C 0.78046 0.481 0.98399 0.0
C290 C 0.84449 0.43009 0.00264 0.0
C291 C 0.80268 0.41257 -0.0017 0.0
H292 H 0.80672 0.65376 0.48632 0.0
H293 H 0.77379 0.60089 0.37092 0.0
H294 H 0.70351 0.57637 0.39376 0.0
H295 H 0.64988 0.57427 0.44451 0.0
H296 H 0.6801 0.63192 0.55833 0.0
H297 H 0.75269 0.65169 0.53741 0.0
C298 C 0.78416 0.6371 0.46601 0.0
C299 C 0.79576 0.62941 0.42684 0.0
C300 C 0.74308 0.62462 0.47879 0.0
C301 C 0.76628 0.60677 0.40137 0.0
C302 C 0.72577 0.59317 0.41425 0.0
C303 C 0.67228 0.59108 0.4649 0.0
C304 C 0.6595 0.60171 0.50293 0.0
C305 C 0.71364 0.60262 0.4526 0.0
C306 C 0.689 0.62362 0.52881 0.0
C307 C 0.73054 0.63474 0.51692 0.0
H308 H 0.13336 0.26409 0.05805 0.0
H309 H 0.04238 0.25457 0.15136 0.0
H310 H 0.01278 0.31693 0.12774 0.0
H311 H 0.01475 0.37577 0.08262 0.0
H312 H 0.10656 0.38705 0.98968 0.0
H313 H 0.13359 0.32234 0.01083 0.0
C314 C 0.10687 0.27573 0.07285 0.0
C315 C 0.09027 0.25502 0.10628 0.0
C316 C 0.09023 0.31189 0.05928 0.0
C317 C 0.0559 0.27007 0.12557 0.0
C318 C 0.03895 0.30574 0.11209 0.0
C319 C 0.0405 0.36405 0.06673 0.0
C320 C 0.05866 0.38648 0.03467 0.0
C321 C 0.05618 0.32715 0.07928 0.0
C322 C 0.09198 0.37057 0.01449 0.0
C323 C 0.10754 0.33358 0.02662 0.0
H324 H 0.5225 0.3211 0.96869 0.0
H325 H 0.65591 0.30757 0.98405 0.0
H326 H 0.63948 0.23583 0.0038 0.0
H327 H 0.5882 0.17635 0.01504 0.0
H328 H 0.45479 0.18674 0.9965 0.0
H329 H 0.47049 0.25997 0.9786 0.0
C330 C 0.54798 0.30243 0.97619 0.0
C331 C 0.59037 0.32023 0.97543 0.0
C332 C 0.53844 0.26046 0.98652 0.0
C333 C 0.62292 0.29541 0.98547 0.0
C334 C 0.61364 0.25406 0.99632 0.0
C335 C 0.56241 0.19451 0.00715 0.0
C336 C 0.52038 0.17606 0.00722 0.0
C337 C 0.57161 0.23627 0.99679 0.0
C338 C 0.48748 0.20012 0.99659 0.0
C339 C 0.49642 0.24203 0.98648 0.0
H340 H 0.90939 0.73778 0.48038 0.0
H341 H 0.90023 0.77615 0.35912 0.0
H342 H 0.92187 0.84846 0.3785 0.0
H343 H 0.94246 0.90053 0.43017 0.0
H344 H 0.95506 0.86147 0.55113 0.0
H345 H 0.93301 0.78947 0.53172 0.0
C346 C 0.91223 0.76213 0.45836 0.0
C347 C 0.90326 0.75216 0.41857 0.0
C348 C 0.92518 0.80327 0.46965 0.0
C349 C 0.90729 0.78348 0.38995 0.0
C350 C 0.91946 0.82467 0.40102 0.0
C351 C 0.94027 0.87622 0.45224 0.0
C352 C 0.95006 0.88616 0.49197 0.0
C353 C 0.92832 0.83491 0.4408 0.0
C354 C 0.94774 0.85443 0.52028 0.0
C355 C 0.93506 0.81333 0.50927 0.0
H356 H 0.3863 0.81158 0.61861 0.0
H357 H 0.50688 0.85035 0.67536 0.0
H358 H 0.53631 0.78967 0.64756 0.0
H359 H 0.52655 0.72343 0.60946 0.0
H360 H 0.40618 0.68849 0.55051 0.0
H361 H 0.37874 0.75065 0.57584 0.0
C362 C 0.4194 0.80773 0.62419 0.0
C363 C 0.44408 0.83581 0.64933 0.0
C364 C 0.43634 0.77323 0.60764 0.0
C365 C 0.48667 0.82906 0.65677 0.0
C366 C 0.50368 0.79441 0.64066 0.0
C367 C 0.49449 0.72965 0.60181 0.0
C368 C 0.46851 0.70086 0.57833 0.0
C369 C 0.47859 0.76588 0.61649 0.0
C370 C 0.42705 0.70974 0.5686 0.0
C371 C 0.41114 0.74535 0.58318 0.0
H372 H 0.92064 0.98079 0.81796 0.0
H373 H 0.94505 0.85585 0.78558 0.0
H374 H 0.96605 0.87976 0.72016 0.0
H375 H 0.97185 0.93435 0.67046 0.0
H376 H 0.94149 0.05801 0.70025 0.0
H377 H 0.92687 0.03582 0.76807 0.0
C378 C 0.93032 0.95863 0.7966 0.0
C379 C 0.93094 0.91641 0.80696 0.0
C380 C 0.94051 0.97216 0.7583 0.0
C381 C 0.94478 0.88858 0.77902 0.0
C382 C 0.95627 0.90212 0.74127 0.0
C383 C 0.96219 0.95663 0.69173 0.0
C384 C 0.95763 -0.00219 0.68017 0.0
C385 C 0.95337 0.94358 0.73037 0.0
C386 C 0.94495 0.02608 0.70823 0.0
C387 C 0.93677 0.01345 0.74704 0.0
H388 H 0.61968 0.15035 0.30095 0.0
H389 H 0.57546 0.03468 0.35624 0.0
H390 H 0.54829 0.00622 0.29226 0.0
H391 H 0.53577 0.0154 0.22078 0.0
H392 H 0.58352 0.13058 0.16584 0.0
H393 H 0.61067 0.15817 0.22951 0.0
C394 C 0.60406 0.11891 0.29884 0.0
C395 C 0.59905 0.09466 0.33297 0.0
C396 C 0.58915 0.1028 0.26213 0.0
C397 C 0.5795 0.05376 0.33011 0.0
C398 C 0.56391 0.03763 0.29367 0.0
C399 C 0.55213 0.04651 0.22283 0.0
C400 C 0.55741 0.07099 0.18871 0.0
C401 C 0.56829 0.06202 0.25951 0.0
C402 C 0.57913 0.11106 0.19165 0.0
C403 C 0.59459 0.12694 0.22804 0.0
H404 H 0.37077 0.57196 0.27737 0.0
H405 H 0.4962 0.57091 0.23145 0.0
H406 H 0.52468 0.561 0.29811 0.0
H407 H 0.5142 0.55758 0.37012 0.0
H408 H 0.38914 0.56527 0.41589 0.0
H409 H 0.36012 0.5679 0.3489 0.0
C410 C 0.40418 0.56888 0.28219 0.0
C411 C 0.43129 0.57204 0.25006 0.0
C412 C 0.4204 0.565 0.32058 0.0
C413 C 0.47476 0.56864 0.25604 0.0
C414 C 0.49102 0.56313 0.29409 0.0
C415 C 0.48059 0.55961 0.36532 0.0
C416 C 0.45389 0.56144 0.39782 0.0
C417 C 0.46423 0.56213 0.32669 0.0
C418 C 0.41042 0.56431 0.39131 0.0
C419 C 0.39374 0.5656 0.35304 0.0
H420 H 0.02191 0.47214 0.71653 0.0
H421 H 0.14215 0.54656 0.72676 0.0
H422 H 0.12867 0.56198 0.79605 0.0
H423 H 0.0855 0.54884 0.85484 0.0
H424 H 0.96321 0.47822 0.84435 0.0
H425 H 0.97438 0.46647 0.77373 0.0
C426 C 0.04477 0.49218 0.73387 0.0
C427 C 0.08335 0.50794 0.71718 0.0
C428 C 0.03659 0.50104 0.77348 0.0
C429 C 0.11244 0.53427 0.7395 0.0
C430 C 0.10486 0.54279 0.77898 0.0
C431 C 0.06127 0.53115 0.83687 0.0
C432 C 0.02401 0.51374 0.85438 0.0
C433 C 0.06756 0.52544 0.79649 0.0
C434 C 0.99225 0.4916 0.83112 0.0
C435 C -0.00133 0.48488 0.79093 0.0
H436 H 0.78869 0.95735 0.00411 0.0
H437 H 0.73554 0.90509 0.8947 0.0
H438 H 0.66639 0.92711 0.91086 0.0
H439 H 0.62109 0.96067 0.95632 0.0
H440 H 0.67464 0.0182 0.06361 0.0
H441 H 0.74382 0.99533 0.04807 0.0
C442 C 0.76178 0.951 0.98404 0.0
C443 C 0.76681 0.92985 0.94846 0.0
C444 C 0.72248 0.96486 0.99304 0.0
C445 C 0.73218 0.92173 0.92216 0.0
C446 C 0.69275 0.93421 0.93141 0.0
C447 C 0.64798 0.96827 0.97622 0.0
C448 C 0.64291 0.99075 0.01113 0.0
C449 C 0.68756 0.95577 0.96674 0.0
C450 C 0.67798 0.00099 0.03646 0.0
C451 C 0.7174 0.98776 0.0277 0.0
H452 H 0.7257 0.15618 0.47105 0.0
H453 H 0.67541 0.0312 0.43767 0.0
H454 H 0.74033 0.00473 0.46132 0.0
H455 H 0.81379 0.01778 0.48715 0.0
H456 H 0.86021 0.14113 0.52743 0.0
H457 H 0.79379 0.16731 0.50637 0.0
C458 C 0.72804 0.12296 0.46989 0.0
C459 C 0.69568 0.09609 0.45148 0.0
C460 C 0.76501 0.1076 0.48465 0.0
C461 C 0.70018 0.0531 0.45025 0.0
C462 C 0.73727 0.03775 0.46406 0.0
C463 C 0.809 0.05026 0.49163 0.0
C464 C 0.84176 0.07767 0.5083 0.0
C465 C 0.77034 0.06487 0.48037 0.0
C466 C 0.83526 0.11954 0.51461 0.0
C467 C 0.7974 0.13453 0.50246 0.0
H468 H 0.32517 0.59894 0.03346 0.0
H469 H 0.2934 0.61127 0.15598 0.0
H470 H 0.21805 0.59871 0.13894 0.0
H471 H 0.16124 0.58563 0.08912 0.0
H472 H 0.19236 0.56837 0.9671 0.0
H473 H 0.26799 0.58188 0.98378 0.0
C474 C 0.3016 0.5985 0.05632 0.0
C475 C 0.31456 0.60578 0.09585 0.0
C476 C 0.25839 0.59091 0.04633 0.0
C477 C 0.28402 0.60514 0.1254 0.0
C478 C 0.241 0.59834 0.11565 0.0
C479 C 0.18464 0.5852 0.06619 0.0
C480 C 0.1715 0.57672 0.02692 0.0
C481 C 0.22784 0.59156 0.07621 0.0
C482 C 0.20196 0.57515 0.99752 0.0
C483 C 0.24509 0.58276 0.00705 0.0
H484 H 0.21863 0.41236 0.58641 0.0
H485 H 0.17654 0.5295 0.55066 0.0
H486 H 0.25039 0.55837 0.54205 0.0
H487 H 0.32643 0.55039 0.54709 0.0
H488 H 0.36765 0.43362 0.5862 0.0
H489 H 0.29411 0.40435 0.59138 0.0
C490 C 0.22567 0.44397 0.57595 0.0
C491 C 0.19256 0.46869 0.56835 0.0
C492 C 0.26779 0.46042 0.57227 0.0
C493 C 0.2018 0.50995 0.55612 0.0
C494 C 0.24385 0.52639 0.55144 0.0
C495 C 0.31937 0.51852 0.55672 0.0
C496 C 0.35248 0.49421 0.56628 0.0
C497 C 0.27706 0.50197 0.55988 0.0
C498 C 0.34278 0.45306 0.57889 0.0
C499 C 0.30077 0.43623 0.58168 0.0
H500 H 0.98145 0.82856 0.93095 0.0
H501 H 0.85414 0.77891 0.89906 0.0
H502 H 0.86838 0.7102 0.92223 0.0
H503 H 0.91694 0.664 0.95048 0.0
H504 H 0.04346 0.71281 0.98611 0.0
H505 H 0.02967 0.78209 0.963 0.0
C506 C 0.957 0.80258 0.92926 0.0
C507 C 0.91684 0.80856 0.9134 0.0
C508 C 0.96523 0.76314 0.94334 0.0
C509 C 0.88518 0.77492 0.91143 0.0
C510 C 0.89332 0.73567 0.92457 0.0
C511 C 0.94154 0.68978 0.95324 0.0
C512 C 0.98125 0.68321 0.96968 0.0
C513 C 0.93321 0.72939 0.94044 0.0
C514 C 0.01257 0.71709 0.97359 0.0
C515 C 0.00475 0.75666 0.96025 0.0
H516 H 0.43801 0.73343 0.15193 0.0
H517 H 0.43788 0.69946 0.02863 0.0
H518 H 0.45651 0.7726 0.01113 0.0
H519 H 0.46886 0.84616 0.03109 0.0
H520 H 0.46421 0.8799 0.15449 0.0
H521 H 0.45125 0.80657 0.17192 0.0
C522 C 0.44298 0.74204 0.12131 0.0
C523 C 0.43741 0.71138 0.09156 0.0
C524 C 0.4522 0.78396 0.11158 0.0
C525 C 0.44255 0.72275 0.0519 0.0
C526 C 0.45294 0.76444 0.04198 0.0
C527 C 0.46524 0.83748 0.06183 0.0
C528 C 0.46742 0.86845 0.09146 0.0
C529 C 0.45719 0.79534 0.07158 0.0
C530 C 0.46238 0.8567 0.13111 0.0
C531 C 0.45513 0.8148 0.14111 0.0
H532 H 0.02377 0.34144 0.58443 0.0
H533 H 0.15738 0.33393 0.56677 0.0
H534 H 0.14445 0.25949 0.55602 0.0
H535 H 0.09598 0.1957 0.55371 0.0
H536 H 0.96368 0.20145 0.57788 0.0
H537 H 0.97568 0.277 0.58526 0.0
C538 C 0.05013 0.32357 0.57848 0.0
C539 C 0.0913 0.3438 0.57563 0.0
C540 C 0.04289 0.28019 0.57401 0.0
C541 C 0.125 0.31984 0.56771 0.0
C542 C 0.11783 0.27696 0.56212 0.0
C543 C 0.06981 0.21353 0.56059 0.0
C544 C 0.02911 0.19312 0.56522 0.0
C545 C 0.07698 0.25679 0.56538 0.0
C546 C 0.99547 0.21649 0.57447 0.0
C547 C 0.00222 0.25969 0.57849 0.0
H548 H 0.5896 0.26096 0.52933 0.0
H549 H 0.59876 0.28441 0.40447 0.0
H550 H 0.5778 0.35429 0.41418 0.0
H551 H 0.55601 0.40852 0.45781 0.0
H552 H 0.54283 0.38483 0.58249 0.0
H553 H 0.56584 0.31542 0.57331 0.0
C554 C 0.58697 0.28159 0.50446 0.0
C555 C 0.59543 0.2676 0.46641 0.0
C556 C 0.57403 0.32159 0.51017 0.0
C557 C 0.59195 0.29434 0.43408 0.0
C558 C 0.58006 0.33434 0.4396 0.0
C559 C 0.55825 0.38824 0.48302 0.0
C560 C 0.54786 0.40192 0.52077 0.0
C561 C 0.57085 0.34823 0.47746 0.0
C562 C 0.55052 0.37503 0.55305 0.0
C563 C 0.56379 0.33536 0.54786 0.0
loop_
_geom_bond_atom_site_label_1
_geom_bond_atom_site_label_2
_geom_bond_distance
_geom_bond_site_symmetry_2
_ccdc_geom_bond_type
H0 C5 0.929 . S
H1 C10 0.931 . S
H2 C8 0.930 . S
N3 N4 1.234 . S
N3 C7 1.453 . S
N4 N3 1.234 . S
C5 H0 0.929 . S
C5 C6 1.373 . S
C5 C7 1.368 . S
C6 C5 1.373 . S
C6 C10 1.397 . S
C7 N3 1.453 . S
C7 C5 1.368 . S
C7 C8 1.373 . S
C8 H2 0.930 . S
C8 C7 1.373 . S
C8 C9 1.371 . S
C9 C8 1.371 . S
C9 C10 1.383 . S
C10 H1 0.931 . S
C10 C6 1.397 . S
C10 C9 1.383 . S
H11 C16 0.929 . S
H12 C21 0.931 . S
H13 C19 0.930 . S
N14 N15 1.234 . S
N14 C18 1.453 . S
N15 N14 1.234 . S
C16 H11 0.929 . S
C16 C17 1.373 . S
C16 C18 1.368 . S
C17 C16 1.373 . S
C17 C21 1.397 . S
C18 N14 1.453 . S
C18 C16 1.368 . S
C18 C19 1.373 . S
C19 H13 0.930 . S
C19 C18 1.373 . S
C19 C20 1.371 . S
C20 C19 1.371 . S
C20 C21 1.383 . S
C21 H12 0.931 . S
C21 C17 1.397 . S
C21 C20 1.383 . S
H22 C27 0.929 . S
H23 C32 0.931 . S
H24 C30 0.930 . S
N25 N26 1.234 . S
N25 C29 1.453 . S
N26 N25 1.234 . S
C27 H22 0.929 . S
C27 C28 1.373 . S
C27 C29 1.368 . S
C28 C27 1.373 . S
C28 C32 1.397 . S
C29 N25 1.453 . S
C29 C27 1.368 . S
C29 C30 1.373 . S
C30 H24 0.930 . S
C30 C29 1.373 . S
C30 C31 1.371 . S
C31 C30 1.371 . S
C31 C32 1.383 . S
C32 H23 0.931 . S
C32 C28 1.397 . S
C32 C31 1.383 . S
H33 C38 0.929 . S
H34 C43 0.931 . S
H35 C41 0.930 . S
N36 N37 1.234 . S
N36 C40 1.453 . S
N37 N36 1.234 . S
C38 H33 0.929 . S
C38 C39 1.373 . S
C38 C40 1.368 . S
C39 C38 1.373 . S
C39 C43 1.397 . S
C40 N36 1.453 . S
C40 C38 1.368 . S
C40 C41 1.373 . S
C41 H35 0.930 . S
C41 C40 1.373 . S
C41 C42 1.371 . S
C42 C41 1.371 . S
C42 C43 1.383 . S
C43 H34 0.931 . S
C43 C39 1.397 . S
C43 C42 1.383 . S
H44 C49 0.929 1_545 S
H45 C54 0.931 . S
H46 C52 0.930 . S
N47 N48 1.234 1_545 S
N47 C51 1.453 1_545 S
N48 N47 1.234 1_565 S
C49 H44 0.929 1_565 S
C49 C50 1.373 . S
C49 C51 1.368 . S
C50 C49 1.373 . S
C50 C54 1.397 . S
C51 N47 1.453 1_565 S
C51 C49 1.368 . S
C51 C52 1.373 . S
C52 H46 0.930 . S
C52 C51 1.373 . S
C52 C53 1.371 . S
C53 C52 1.371 . S
C53 C54 1.383 . S
C54 H45 0.931 . S
C54 C50 1.397 . S
C54 C53 1.383 . S
H55 C60 0.929 . S
H56 C65 0.931 . S
H57 C63 0.930 . S
N58 N59 1.234 . S
N58 C62 1.453 . S
N59 N58 1.234 . S
C60 H55 0.929 . S
C60 C61 1.373 . S
C60 C62 1.368 . S
C61 C60 1.373 . S
C61 C65 1.397 . S
C62 N58 1.453 . S
C62 C60 1.368 . S
C62 C63 1.373 . S
C63 H57 0.930 . S
C63 C62 1.373 . S
C63 C64 1.371 . S
C64 C63 1.371 . S
C64 C65 1.383 . S
C65 H56 0.931 . S
C65 C61 1.397 . S
C65 C64 1.383 . S
H66 C71 0.929 . S
H67 C76 0.931 . S
H68 C74 0.930 . S
N69 N70 1.234 . S
N69 C73 1.453 . S
N70 N69 1.234 . S
C71 H66 0.929 . S
C71 C72 1.373 . S
C71 C73 1.368 . S
C72 C71 1.373 . S
C72 C76 1.397 . S
C73 N69 1.453 . S
C73 C71 1.368 . S
C73 C74 1.373 . S
C74 H68 0.930 . S
C74 C73 1.373 . S
C74 C75 1.371 . S
C75 C74 1.371 . S
C75 C76 1.383 . S
C76 H67 0.931 . S
C76 C72 1.397 . S
C76 C75 1.383 . S
H77 C82 0.929 . S
H78 C87 0.931 . S
H79 C85 0.930 . S
N80 N81 1.234 . S
N80 C84 1.453 . S
N81 N80 1.234 . S
C82 H77 0.929 . S
C82 C83 1.373 . S
C82 C84 1.368 . S
C83 C82 1.373 . S
C83 C87 1.397 . S
C84 N80 1.453 . S
C84 C82 1.368 . S
C84 C85 1.373 . S
C85 H79 0.930 . S
C85 C84 1.373 . S
C85 C86 1.371 . S
C86 C85 1.371 . S
C86 C87 1.383 . S
C87 H78 0.931 . S
C87 C83 1.397 . S
C87 C86 1.383 . S
O88 Zn89 1.953 . S
O88 C104 1.225 1_655 S
Zn89 O88 1.953 . S
Zn89 O90 1.949 1_655 S
Zn89 O96 1.919 . S
Zn89 O101 1.924 . S
O90 Zn89 1.949 1_455 S
O90 Zn91 1.923 1_455 S
O90 Zn92 1.950 . S
O90 Zn93 1.945 1_545 S
Zn91 O90 1.923 1_655 S
Zn91 O94 1.933 1_545 S
Zn91 O97 1.941 . S
Zn91 O98 1.965 1_655 S
Zn92 O90 1.950 . S
Zn92 O99 1.938 . S
Zn92 O100 1.906 . S
Zn92 O110 1.953 . S
Zn93 O90 1.945 1_565 S
Zn93 O95 1.932 1_455 S
Zn93 O102 1.977 . S
Zn93 O103 1.910 1_455 S
O94 Zn91 1.933 1_565 S
O94 C105 1.226 . S
O95 Zn93 1.932 1_655 S
O95 C105 1.307 . S
O96 Zn89 1.919 . S
O96 C107 1.253 . S
O97 Zn91 1.941 . S
O97 C107 1.283 . S
O98 Zn91 1.965 1_455 S
O98 C106 1.303 . S
O99 Zn92 1.938 . S
O99 C106 1.247 . S
O100 Zn92 1.906 . S
O100 C108 1.304 1_545 S
O101 Zn89 1.924 . S
O101 C109 1.311 . S
O102 Zn93 1.977 . S
O102 C108 1.272 . S
O103 Zn93 1.910 1_655 S
O103 C109 1.231 1_565 S
C104 O88 1.225 1_455 S
C104 O110 1.298 . S
C105 O94 1.226 . S
C105 O95 1.307 . S
C106 O98 1.303 . S
C106 O99 1.247 . S
C107 O96 1.253 . S
C107 O97 1.283 . S
C108 O100 1.304 1_565 S
C108 O102 1.272 . S
C109 O101 1.311 . S
C109 O103 1.231 1_545 S
O110 Zn92 1.953 . S
O110 C104 1.298 . S
O111 Zn112 1.953 1_556 S
O111 C127 1.224 1_556 S
Zn112 O111 1.953 1_554 S
Zn112 O113 1.949 . S
Zn112 O119 1.919 1_554 S
Zn112 O124 1.924 . S
O113 Zn112 1.949 . S
O113 Zn114 1.923 1_545 S
O113 Zn115 1.950 . S
O113 Zn116 1.945 . S
Zn114 O113 1.923 1_565 S
Zn114 O117 1.933 . S
Zn114 O120 1.941 1_554 S
Zn114 O121 1.965 . S
Zn115 O113 1.950 . S
Zn115 O122 1.938 . S
Zn115 O123 1.906 . S
Zn115 O133 1.953 . S
Zn116 O113 1.945 . S
Zn116 O118 1.932 1_545 S
Zn116 O125 1.977 . S
Zn116 O126 1.910 . S
O117 Zn114 1.933 . S
O117 C128 1.226 . S
O118 Zn116 1.932 1_565 S
O118 C128 1.307 . S
O119 Zn112 1.919 1_556 S
O119 C130 1.253 1_545 S
O120 Zn114 1.941 1_556 S
O120 C130 1.283 . S
O121 Zn114 1.965 . S
O121 C129 1.303 1_565 S
O122 Zn115 1.938 . S
O122 C129 1.247 . S
O123 Zn115 1.906 . S
O123 C131 1.304 . S
O124 Zn112 1.924 . S
O124 C132 1.311 . S
O125 Zn116 1.977 . S
O125 C131 1.272 . S
O126 Zn116 1.910 . S
O126 C132 1.231 . S
C127 O111 1.224 1_554 S
C127 O133 1.298 . S
C128 O117 1.226 . S
C128 O118 1.307 . S
C129 O121 1.303 1_545 S
C129 O122 1.247 . S
C130 O119 1.253 1_565 S
C130 O120 1.283 . S
C131 O123 1.304 . S
C131 O125 1.272 . S
C132 O124 1.311 . S
C132 O126 1.231 . S
O133 Zn115 1.953 . S
O133 C127 1.298 . S
O134 Zn135 1.953 . S
O134 C150 1.225 . S
Zn135 O134 1.953 . S
Zn135 O136 1.949 . S
Zn135 O142 1.919 . S
Zn135 O147 1.924 . S
O136 Zn135 1.949 . S
O136 Zn137 1.923 . S
O136 Zn138 1.950 . S
O136 Zn139 1.945 . S
Zn137 O136 1.923 . S
Zn137 O140 1.933 . S
Zn137 O143 1.941 . S
Zn137 O144 1.965 . S
Zn138 O136 1.950 . S
Zn138 O145 1.938 . S
Zn138 O146 1.906 . S
Zn138 O156 1.953 . S
Zn139 O136 1.945 . S
Zn139 O141 1.932 . S
Zn139 O148 1.977 . S
Zn139 O149 1.910 . S
O140 Zn137 1.933 . S
O140 C151 1.226 . S
O141 Zn139 1.932 . S
O141 C151 1.307 . S
O142 Zn135 1.919 . S
O142 C153 1.253 . S
O143 Zn137 1.941 . S
O143 C153 1.283 . S
O144 Zn137 1.965 . S
O144 C152 1.303 . S
O145 Zn138 1.938 . S
O145 C152 1.247 . S
O146 Zn138 1.906 . S
O146 C154 1.304 . S
O147 Zn135 1.924 . S
O147 C155 1.311 . S
O148 Zn139 1.977 . S
O148 C154 1.272 . S
O149 Zn139 1.910 . S
O149 C155 1.231 . S
C150 O134 1.225 . S
C150 O156 1.298 . S
C151 O140 1.226 . S
C151 O141 1.307 . S
C152 O144 1.303 . S
C152 O145 1.247 . S
C153 O142 1.253 . S
C153 O143 1.283 . S
C154 O146 1.304 . S
C154 O148 1.272 . S
C155 O147 1.311 . S
C155 O149 1.231 . S
O156 Zn138 1.953 . S
O156 C150 1.298 . S
O157 Zn158 1.953 . S
O157 C173 1.225 . S
Zn158 O157 1.953 . S
Zn158 O159 1.949 1_655 S
Zn158 O165 1.919 . S
Zn158 O170 1.924 . S
O159 Zn158 1.949 1_455 S
O159 Zn160 1.923 1_454 S
O159 Zn161 1.950 . S
O159 Zn162 1.945 1_554 S
Zn160 O159 1.923 1_656 S
Zn160 O163 1.933 1_655 S
Zn160 O166 1.941 . S
Zn160 O167 1.965 . S
Zn161 O159 1.950 . S
Zn161 O168 1.938 . S
Zn161 O169 1.906 . S
Zn161 O179 1.953 . S
Zn162 O159 1.945 1_556 S
Zn162 O164 1.932 . S
Zn162 O171 1.977 1_556 S
Zn162 O172 1.910 1_556 S
O163 Zn160 1.933 1_455 S
O163 C174 1.226 . S
O164 Zn162 1.932 . S
O164 C174 1.307 . S
O165 Zn158 1.919 . S
O165 C176 1.253 1_554 S
O166 Zn160 1.941 . S
O166 C176 1.283 . S
O167 Zn160 1.965 . S
O167 C175 1.303 . S
O168 Zn161 1.938 . S
O168 C175 1.247 1_454 S
O169 Zn161 1.906 . S
O169 C177 1.304 . S
O170 Zn158 1.924 . S
O170 C178 1.311 1_655 S
O171 Zn162 1.977 1_554 S
O171 C177 1.272 . S
O172 Zn162 1.910 1_554 S
O172 C178 1.231 . S
C173 O157 1.225 . S
C173 O179 1.298 1_655 S
C174 O163 1.226 . S
C174 O164 1.307 . S
C175 O167 1.303 . S
C175 O168 1.247 1_656 S
C176 O165 1.253 1_556 S
C176 O166 1.283 . S
C177 O169 1.304 . S
C177 O171 1.272 . S
C178 O170 1.311 1_455 S
C178 O172 1.231 . S
O179 Zn161 1.953 . S
O179 C173 1.298 1_455 S
H180 C186 0.930 . S
H181 C189 0.930 . S
H182 C190 0.930 . S
H183 C191 0.930 . S
H184 C194 0.930 . S
H185 C195 0.930 . S
C186 H180 0.930 . S
C186 C187 1.355 . S
C186 C188 1.415 . S
C187 C186 1.355 . S
C187 C189 1.419 . S
C188 C186 1.415 . S
C188 C193 1.425 . S
C188 C195 1.409 . S
C189 H181 0.930 . S
C189 C187 1.419 . S
C189 C190 1.362 . S
C190 H182 0.930 . S
C190 C189 1.362 . S
C190 C193 1.409 . S
C191 H183 0.930 . S
C191 C192 1.355 . S
C191 C193 1.415 . S
C192 C191 1.355 . S
C192 C194 1.419 . S
C193 C188 1.425 . S
C193 C190 1.409 . S
C193 C191 1.415 . S
C194 H184 0.930 . S
C194 C192 1.419 . S
C194 C195 1.362 . S
C195 H185 0.930 . S
C195 C188 1.409 . S
C195 C194 1.362 . S
H196 C202 0.930 . S
H197 C205 0.930 . S
H198 C206 0.930 . S
H199 C207 0.930 . S
H200 C210 0.930 1_545 S
H201 C211 0.930 1_545 S
C202 H196 0.930 . S
C202 C203 1.355 . S
C202 C204 1.415 . S
C203 C202 1.355 . S
C203 C205 1.419 . S
C204 C202 1.415 . S
C204 C209 1.425 . S
C204 C211 1.409 . S
C205 H197 0.930 . S
C205 C203 1.419 . S
C205 C206 1.362 . S
C206 H198 0.930 . S
C206 C205 1.362 . S
C206 C209 1.409 . S
C207 H199 0.930 . S
C207 C208 1.355 . S
C207 C209 1.415 . S
C208 C207 1.355 . S
C208 C210 1.419 . S
C209 C204 1.425 . S
C209 C206 1.409 . S
C209 C207 1.415 . S
C210 H200 0.930 1_565 S
C210 C208 1.419 . S
C210 C211 1.362 . S
C211 H201 0.930 1_565 S
C211 C204 1.409 . S
C211 C210 1.362 . S
H212 C218 0.930 . S
H213 C221 0.930 . S
H214 C222 0.930 . S
H215 C223 0.930 . S
H216 C226 0.930 . S
H217 C227 0.930 . S
C218 H212 0.930 . S
C218 C219 1.355 . S
C218 C220 1.415 . S
C219 C218 1.355 . S
C219 C221 1.419 . S
C220 C218 1.415 . S
C220 C225 1.425 . S
C220 C227 1.409 . S
C221 H213 0.930 . S
C221 C219 1.419 . S
C221 C222 1.362 . S
C222 H214 0.930 . S
C222 C221 1.362 . S
C222 C225 1.409 . S
C223 H215 0.930 . S
C223 C224 1.355 . S
C223 C225 1.415 . S
C224 C223 1.355 . S
C224 C226 1.419 . S
C225 C220 1.425 . S
C225 C222 1.409 . S
C225 C223 1.415 . S
C226 H216 0.930 . S
C226 C224 1.419 . S
C226 C227 1.362 . S
C227 H217 0.930 . S
C227 C220 1.409 . S
C227 C226 1.362 . S
H228 C234 0.930 . S
H229 C237 0.930 . S
H230 C238 0.930 . S
H231 C239 0.930 . S
H232 C242 0.930 1_455 S
H233 C243 0.930 . S
C234 H228 0.930 . S
C234 C235 1.355 . S
C234 C236 1.415 . S
C235 C234 1.355 . S
C235 C237 1.419 . S
C236 C234 1.415 . S
C236 C241 1.425 . S
C236 C243 1.409 . S
C237 H229 0.930 . S
C237 C235 1.419 . S
C237 C238 1.362 . S
C238 H230 0.930 . S
C238 C237 1.362 . S
C238 C241 1.409 . S
C239 H231 0.930 . S
C239 C240 1.355 . S
C239 C241 1.415 . S
C240 C239 1.355 . S
C240 C242 1.419 . S
C241 C236 1.425 . S
C241 C238 1.409 . S
C241 C239 1.415 . S
C242 H232 0.930 1_655 S
C242 C240 1.419 . S
C242 C243 1.362 . S
C243 H233 0.930 . S
C243 C236 1.409 . S
C243 C242 1.362 . S
H244 C250 0.930 . S
H245 C253 0.930 . S
H246 C254 0.930 . S
H247 C255 0.930 . S
H248 C258 0.930 . S
H249 C259 0.930 . S
C250 H244 0.930 . S
C250 C251 1.355 . S
C250 C252 1.415 . S
C251 C250 1.355 . S
C251 C253 1.419 . S
C252 C250 1.415 . S
C252 C257 1.425 . S
C252 C259 1.409 . S
C253 H245 0.930 . S
C253 C251 1.419 . S
C253 C254 1.362 . S
C254 H246 0.930 . S
C254 C253 1.362 . S
C254 C257 1.409 . S
C255 H247 0.930 . S
C255 C256 1.355 . S
C255 C257 1.415 . S
C256 C255 1.355 . S
C256 C258 1.419 . S
C257 C252 1.425 . S
C257 C254 1.409 . S
C257 C255 1.415 . S
C258 H248 0.930 . S
C258 C256 1.419 . S
C258 C259 1.362 . S
C259 H249 0.930 . S
C259 C252 1.409 . S
C259 C258 1.362 . S
H260 C266 0.930 . S
H261 C269 0.930 . S
H262 C270 0.930 . S
H263 C271 0.930 . S
H264 C274 0.930 . S
H265 C275 0.930 . S
C266 H260 0.930 . S
C266 C267 1.355 . S
C266 C268 1.415 . S
C267 C266 1.355 . S
C267 C269 1.419 . S
C268 C266 1.415 . S
C268 C273 1.425 . S
C268 C275 1.409 . S
C269 H261 0.930 . S
C269 C267 1.419 . S
C269 C270 1.362 . S
C270 H262 0.930 . S
C270 C269 1.362 . S
C270 C273 1.409 . S
C271 H263 0.930 . S
C271 C272 1.355 . S
C271 C273 1.415 . S
C272 C271 1.355 . S
C272 C274 1.419 . S
C273 C268 1.425 . S
C273 C270 1.409 . S
C273 C271 1.415 . S
C274 H264 0.930 . S
C274 C272 1.419 . S
C274 C275 1.362 . S
C275 H265 0.930 . S
C275 C268 1.409 . S
C275 C274 1.362 . S
H276 C282 0.930 . S
H277 C285 0.930 . S
H278 C286 0.930 . S
H279 C287 0.930 . S
H280 C290 0.930 . S
H281 C291 0.930 . S
C282 H276 0.930 . S
C282 C283 1.355 . S
C282 C284 1.415 . S
C283 C282 1.355 . S
C283 C285 1.419 . S
C284 C282 1.415 . S
C284 C289 1.425 . S
C284 C291 1.409 . S
C285 H277 0.930 . S
C285 C283 1.419 . S
C285 C286 1.362 . S
C286 H278 0.930 . S
C286 C285 1.362 . S
C286 C289 1.409 . S
C287 H279 0.930 . S
C287 C288 1.355 . S
C287 C289 1.415 . S
C288 C287 1.355 . S
C288 C290 1.419 . S
C289 C284 1.425 . S
C289 C286 1.409 . S
C289 C287 1.415 . S
C290 H280 0.930 . S
C290 C288 1.419 . S
C290 C291 1.362 . S
C291 H281 0.930 . S
C291 C284 1.409 . S
C291 C290 1.362 . S
H292 C298 0.930 . S
H293 C301 0.930 . S
H294 C302 0.930 . S
H295 C303 0.930 . S
H296 C306 0.930 . S
H297 C307 0.930 . S
C298 H292 0.930 . S
C298 C299 1.355 . S
C298 C300 1.415 . S
C299 C298 1.355 . S
C299 C301 1.419 . S
C300 C298 1.415 . S
C300 C305 1.425 . S
C300 C307 1.409 . S
C301 H293 0.930 . S
C301 C299 1.419 . S
C301 C302 1.362 . S
C302 H294 0.930 . S
C302 C301 1.362 . S
C302 C305 1.409 . S
C303 H295 0.930 . S
C303 C304 1.355 . S
C303 C305 1.415 . S
C304 C303 1.355 . S
C304 C306 1.419 . S
C305 C300 1.425 . S
C305 C302 1.409 . S
C305 C303 1.415 . S
C306 H296 0.930 . S
C306 C304 1.419 . S
C306 C307 1.362 . S
C307 H297 0.930 . S
C307 C300 1.409 . S
C307 C306 1.362 . S
H308 C314 0.930 . S
H309 C317 0.930 . S
H310 C318 0.930 . S
H311 C319 0.930 . S
H312 C322 0.930 . S
H313 C323 0.930 . S
C314 H308 0.930 . S
C314 C315 1.355 . S
C314 C316 1.415 . S
C315 C314 1.355 . S
C315 C317 1.419 . S
C316 C314 1.415 . S
C316 C321 1.425 . S
C316 C323 1.409 . S
C317 H309 0.930 . S
C317 C315 1.419 . S
C317 C318 1.362 . S
C318 H310 0.930 . S
C318 C317 1.362 . S
C318 C321 1.409 . S
C319 H311 0.930 . S
C319 C320 1.355 . S
C319 C321 1.415 . S
C320 C319 1.355 . S
C320 C322 1.419 . S
C321 C316 1.425 . S
C321 C318 1.409 . S
C321 C319 1.415 . S
C322 H312 0.930 . S
C322 C320 1.419 . S
C322 C323 1.362 . S
C323 H313 0.930 . S
C323 C316 1.409 . S
C323 C322 1.362 . S
H324 C330 0.930 . S
H325 C333 0.930 . S
H326 C334 0.930 . S
H327 C335 0.930 . S
H328 C338 0.930 . S
H329 C339 0.930 . S
C330 H324 0.930 . S
C330 C331 1.355 . S
C330 C332 1.415 . S
C331 C330 1.355 . S
C331 C333 1.419 . S
C332 C330 1.415 . S
C332 C337 1.425 . S
C332 C339 1.409 1_556 S
C333 H325 0.930 . S
C333 C331 1.419 . S
C333 C334 1.362 . S
C334 H326 0.930 . S
C334 C333 1.362 . S
C334 C337 1.409 . S
C335 H327 0.930 . S
C335 C336 1.355 1_556 S
C335 C337 1.415 . S
C336 C335 1.355 1_554 S
C336 C338 1.419 . S
C337 C332 1.425 . S
C337 C334 1.409 . S
C337 C335 1.415 . S
C338 H328 0.930 . S
C338 C336 1.419 . S
C338 C339 1.362 . S
C339 H329 0.930 . S
C339 C332 1.409 1_554 S
C339 C338 1.362 . S
H340 C346 0.930 . S
H341 C349 0.930 . S
H342 C350 0.930 . S
H343 C351 0.930 . S
H344 C354 0.930 . S
H345 C355 0.930 . S
C346 H340 0.930 . S
C346 C347 1.355 . S
C346 C348 1.415 . S
C347 C346 1.355 . S
C347 C349 1.419 . S
C348 C346 1.415 . S
C348 C353 1.425 . S
C348 C355 1.409 . S
C349 H341 0.930 . S
C349 C347 1.419 . S
C349 C350 1.362 . S
C350 H342 0.930 . S
C350 C349 1.362 . S
C350 C353 1.409 . S
C351 H343 0.930 . S
C351 C352 1.355 . S
C351 C353 1.415 . S
C352 C351 1.355 . S
C352 C354 1.419 . S
C353 C348 1.425 . S
C353 C350 1.409 . S
C353 C351 1.415 . S
C354 H344 0.930 . S
C354 C352 1.419 . S
C354 C355 1.362 . S
C355 H345 0.930 . S
C355 C348 1.409 . S
C355 C354 1.362 . S
H356 C362 0.930 . S
H357 C365 0.930 . S
H358 C366 0.930 . S
H359 C367 0.930 . S
H360 C370 0.930 . S
H361 C371 0.930 . S
C362 H356 0.930 . S
C362 C363 1.355 . S
C362 C364 1.415 . S
C363 C362 1.355 . S
C363 C365 1.419 . S
C364 C362 1.415 . S
C364 C369 1.425 . S
C364 C371 1.409 . S
C365 H357 0.930 . S
C365 C363 1.419 . S
C365 C366 1.362 . S
C366 H358 0.930 . S
C366 C365 1.362 . S
C366 C369 1.409 . S
C367 H359 0.930 . S
C367 C368 1.355 . S
C367 C369 1.415 . S
C368 C367 1.355 . S
C368 C370 1.419 . S
C369 C364 1.425 . S
C369 C366 1.409 . S
C369 C367 1.415 . S
C370 H360 0.930 . S
C370 C368 1.419 . S
C370 C371 1.362 . S
C371 H361 0.930 . S
C371 C364 1.409 . S
C371 C370 1.362 . S
H372 C378 0.930 . S
H373 C381 0.930 . S
H374 C382 0.930 . S
H375 C383 0.930 . S
H376 C386 0.930 1_455 S
H377 C387 0.930 1_455 S
C378 H372 0.930 . S
C378 C379 1.355 1_545 S
C378 C380 1.415 . S
C379 C378 1.355 1_565 S
C379 C381 1.419 . S
C380 C378 1.415 . S
C380 C385 1.425 1_545 S
C380 C387 1.409 . S
C381 H373 0.930 . S
C381 C379 1.419 . S
C381 C382 1.362 . S
C382 H374 0.930 . S
C382 C381 1.362 . S
C382 C385 1.409 . S
C383 H375 0.930 . S
C383 C384 1.355 1_565 S
C383 C385 1.415 . S
C384 C383 1.355 1_545 S
C384 C386 1.419 . S
C385 C380 1.425 1_565 S
C385 C382 1.409 . S
C385 C383 1.415 . S
C386 H376 0.930 1_655 S
C386 C384 1.419 . S
C386 C387 1.362 . S
C387 H377 0.930 1_655 S
C387 C380 1.409 . S
C387 C386 1.362 . S
H388 C394 0.930 . S
H389 C397 0.930 . S
H390 C398 0.930 1_565 S
H391 C399 0.930 . S
H392 C402 0.930 . S
H393 C403 0.930 . S
C394 H388 0.930 . S
C394 C395 1.355 . S
C394 C396 1.415 . S
C395 C394 1.355 . S
C395 C397 1.419 . S
C396 C394 1.415 . S
C396 C401 1.425 . S
C396 C403 1.409 . S
C397 H389 0.930 . S
C397 C395 1.419 . S
C397 C398 1.362 . S
C398 H390 0.930 1_545 S
C398 C397 1.362 . S
C398 C401 1.409 . S
C399 H391 0.930 . S
C399 C400 1.355 . S
C399 C401 1.415 . S
C400 C399 1.355 . S
C400 C402 1.419 . S
C401 C396 1.425 . S
C401 C398 1.409 . S
C401 C399 1.415 . S
C402 H392 0.930 . S
C402 C400 1.419 . S
C402 C403 1.362 . S
C403 H393 0.930 . S
C403 C396 1.409 . S
C403 C402 1.362 . S
H404 C410 0.930 . S
H405 C413 0.930 . S
H406 C414 0.930 . S
H407 C415 0.930 . S
H408 C418 0.930 . S
H409 C419 0.930 . S
C410 H404 0.930 . S
C410 C411 1.355 . S
C410 C412 1.415 . S
C411 C410 1.355 . S
C411 C413 1.419 . S
C412 C410 1.415 . S
C412 C417 1.425 . S
C412 C419 1.409 . S
C413 H405 0.930 . S
C413 C411 1.419 . S
C413 C414 1.362 . S
C414 H406 0.930 . S
C414 C413 1.362 . S
C414 C417 1.409 . S
C415 H407 0.930 . S
C415 C416 1.355 . S
C415 C417 1.415 . S
C416 C415 1.355 . S
C416 C418 1.419 . S
C417 C412 1.425 . S
C417 C414 1.409 . S
C417 C415 1.415 . S
C418 H408 0.930 . S
C418 C416 1.419 . S
C418 C419 1.362 . S
C419 H409 0.930 . S
C419 C412 1.409 . S
C419 C418 1.362 . S
H420 C426 0.930 . S
H421 C429 0.930 . S
H422 C430 0.930 . S
H423 C431 0.930 . S
H424 C434 0.930 1_655 S
H425 C435 0.930 1_655 S
C426 H420 0.930 . S
C426 C427 1.355 . S
C426 C428 1.415 . S
C427 C426 1.355 . S
C427 C429 1.419 . S
C428 C426 1.415 . S
C428 C433 1.425 . S
C428 C435 1.409 . S
C429 H421 0.930 . S
C429 C427 1.419 . S
C429 C430 1.362 . S
C430 H422 0.930 . S
C430 C429 1.362 . S
C430 C433 1.409 . S
C431 H423 0.930 . S
C431 C432 1.355 . S
C431 C433 1.415 . S
C432 C431 1.355 . S
C432 C434 1.419 . S
C433 C428 1.425 . S
C433 C430 1.409 . S
C433 C431 1.415 . S
C434 H424 0.930 1_455 S
C434 C432 1.419 . S
C434 C435 1.362 . S
C435 H425 0.930 1_455 S
C435 C428 1.409 . S
C435 C434 1.362 . S
H436 C442 0.930 . S
H437 C445 0.930 . S
H438 C446 0.930 . S
H439 C447 0.930 . S
H440 C450 0.930 . S
H441 C451 0.930 . S
C442 H436 0.930 . S
C442 C443 1.355 1_544 S
C442 C444 1.415 . S
C443 C442 1.355 1_566 S
C443 C445 1.419 . S
C444 C442 1.415 . S
C444 C449 1.425 1_544 S
C444 C451 1.409 . S
C445 H437 0.930 . S
C445 C443 1.419 . S
C445 C446 1.362 . S
C446 H438 0.930 . S
C446 C445 1.362 . S
C446 C449 1.409 . S
C447 H439 0.930 . S
C447 C448 1.355 1_566 S
C447 C449 1.415 . S
C448 C447 1.355 1_544 S
C448 C450 1.419 . S
C449 C444 1.425 1_566 S
C449 C446 1.409 . S
C449 C447 1.415 . S
C450 H440 0.930 . S
C450 C448 1.419 . S
C450 C451 1.362 . S
C451 H441 0.930 . S
C451 C444 1.409 . S
C451 C450 1.362 . S
H452 C458 0.930 . S
H453 C461 0.930 . S
H454 C462 0.930 1_565 S
H455 C463 0.930 1_565 S
H456 C466 0.930 . S
H457 C467 0.930 . S
C458 H452 0.930 . S
C458 C459 1.355 . S
C458 C460 1.415 . S
C459 C458 1.355 . S
C459 C461 1.419 . S
C460 C458 1.415 . S
C460 C465 1.425 . S
C460 C467 1.409 . S
C461 H453 0.930 . S
C461 C459 1.419 . S
C461 C462 1.362 . S
C462 H454 0.930 1_545 S
C462 C461 1.362 . S
C462 C465 1.409 . S
C463 H455 0.930 1_545 S
C463 C464 1.355 . S
C463 C465 1.415 . S
C464 C463 1.355 . S
C464 C466 1.419 . S
C465 C460 1.425 . S
C465 C462 1.409 . S
C465 C463 1.415 . S
C466 H456 0.930 . S
C466 C464 1.419 . S
C466 C467 1.362 . S
C467 H457 0.930 . S
C467 C460 1.409 . S
C467 C466 1.362 . S
H468 C474 0.930 . S
H469 C477 0.930 . S
H470 C478 0.930 . S
H471 C479 0.930 . S
H472 C482 0.906 1_556 S
H473 C483 0.930 1_556 S
C474 H468 0.930 . S
C474 C475 1.355 . S
C474 C476 1.415 . S
C475 C474 1.355 . S
C475 C477 1.419 . S
C476 C474 1.415 . S
C476 C481 1.425 . S
C476 C483 1.409 . S
C477 H469 0.930 . S
C477 C475 1.419 . S
C477 C478 1.362 . S
C478 H470 0.930 . S
C478 C477 1.362 . S
C478 C481 1.409 . S
C479 H471 0.930 . S
C479 C480 1.355 . S
C479 C481 1.415 . S
C480 C479 1.355 . S
C480 C482 1.437 . S
C481 C476 1.425 . S
C481 C478 1.409 . S
C481 C479 1.415 . S
C482 H472 0.906 1_554 S
C482 C480 1.437 . S
C482 C483 1.369 . S
C483 H473 0.930 1_554 S
C483 C476 1.409 . S
C483 C482 1.369 . S
H484 C490 0.930 . S
H485 C493 0.930 . S
H486 C494 0.930 . S
H487 C495 0.930 . S
H488 C498 0.930 . S
H489 C499 0.930 . S
C490 H484 0.930 . S
C490 C491 1.355 . S
C490 C492 1.415 . S
C491 C490 1.355 . S
C491 C493 1.419 . S
C492 C490 1.415 . S
C492 C497 1.425 . S
C492 C499 1.409 . S
C493 H485 0.930 . S
C493 C491 1.419 . S
C493 C494 1.362 . S
C494 H486 0.930 . S
C494 C493 1.362 . S
C494 C497 1.409 . S
C495 H487 0.930 . S
C495 C496 1.355 . S
C495 C497 1.415 . S
C496 C495 1.355 . S
C496 C498 1.419 . S
C497 C492 1.425 . S
C497 C494 1.409 . S
C497 C495 1.415 . S
C498 H488 0.930 . S
C498 C496 1.419 . S
C498 C499 1.362 . S
C499 H489 0.930 . S
C499 C492 1.409 . S
C499 C498 1.362 . S
H500 C506 0.930 1_455 S
H501 C509 0.930 . S
H502 C510 0.930 . S
H503 C511 0.930 . S
H504 C514 0.930 . S
H505 C515 0.930 . S
C506 H500 0.930 1_655 S
C506 C507 1.355 . S
C506 C508 1.415 . S
C507 C506 1.355 . S
C507 C509 1.419 . S
C508 C506 1.415 . S
C508 C513 1.425 . S
C508 C515 1.409 1_655 S
C509 H501 0.930 . S
C509 C507 1.419 . S
C509 C510 1.362 . S
C510 H502 0.930 . S
C510 C509 1.362 . S
C510 C513 1.409 . S
C511 H503 0.930 . S
C511 C512 1.355 . S
C511 C513 1.415 . S
C512 C511 1.355 . S
C512 C514 1.419 1_655 S
C513 C508 1.425 . S
C513 C510 1.409 . S
C513 C511 1.415 . S
C514 H504 0.930 . S
C514 C512 1.419 1_455 S
C514 C515 1.362 . S
C515 H505 0.930 . S
C515 C508 1.409 1_455 S
C515 C514 1.362 . S
H516 C522 0.930 . S
H517 C525 0.930 . S
H518 C526 0.930 . S
H519 C527 0.930 . S
H520 C530 0.930 . S
H521 C531 0.930 . S
C522 H516 0.930 . S
C522 C523 1.355 . S
C522 C524 1.415 . S
C523 C522 1.355 . S
C523 C525 1.419 . S
C524 C522 1.415 . S
C524 C529 1.425 . S
C524 C531 1.409 . S
C525 H517 0.930 . S
C525 C523 1.419 . S
C525 C526 1.362 . S
C526 H518 0.930 . S
C526 C525 1.362 . S
C526 C529 1.409 . S
C527 H519 0.930 . S
C527 C528 1.355 . S
C527 C529 1.415 . S
C528 C527 1.355 . S
C528 C530 1.419 . S
C529 C524 1.425 . S
C529 C526 1.409 . S
C529 C527 1.415 . S
C530 H520 0.930 . S
C530 C528 1.419 . S
C530 C531 1.362 . S
C531 H521 0.930 . S
C531 C524 1.409 . S
C531 C530 1.362 . S
H532 C538 0.930 . S
H533 C541 0.930 . S
H534 C542 0.930 . S
H535 C543 0.930 . S
H536 C546 0.930 1_655 S
H537 C547 0.930 1_655 S
C538 H532 0.930 . S
C538 C539 1.355 . S
C538 C540 1.415 . S
C539 C538 1.355 . S
C539 C541 1.419 . S
C540 C538 1.415 . S
C540 C545 1.425 . S
C540 C547 1.409 . S
C541 H533 0.930 . S
C541 C539 1.419 . S
C541 C542 1.362 . S
C542 H534 0.930 . S
C542 C541 1.362 . S
C542 C545 1.409 . S
C543 H535 0.930 . S
C543 C544 1.355 . S
C543 C545 1.415 . S
C544 C543 1.355 . S
C544 C546 1.419 . S
C545 C540 1.425 . S
C545 C542 1.409 . S
C545 C543 1.415 . S
C546 H536 0.930 1_455 S
C546 C544 1.419 . S
C546 C547 1.362 . S
C547 H537 0.930 1_455 S
C547 C540 1.409 . S
C547 C546 1.362 . S
H548 C554 0.930 . S
H549 C557 0.930 . S
H550 C558 0.930 . S
H551 C559 0.930 . S
H552 C562 0.930 . S
H553 C563 0.930 . S
C554 H548 0.930 . S
C554 C555 1.355 . S
C554 C556 1.415 . S
C555 C554 1.355 . S
C555 C557 1.419 . S
C556 C554 1.415 . S
C556 C561 1.425 . S
C556 C563 1.409 . S
C557 H549 0.930 . S
C557 C555 1.419 . S
C557 C558 1.362 . S
C558 H550 0.930 . S
C558 C557 1.362 . S
C558 C561 1.409 . S
C559 H551 0.930 . S
C559 C560 1.355 . S
C559 C561 1.415 . S
C560 C559 1.355 . S
C560 C562 1.419 . S
C561 C556 1.425 . S
C561 C558 1.409 . S
C561 C559 1.415 . S
C562 H552 0.930 . S
C562 C560 1.419 . S
C562 C563 1.362 . S
C563 H553 0.930 . S
C563 C556 1.409 . S
C563 C562 1.362 . S
C187 C6 1.727 . S
C192 C106 1.677 . S
C203 C20 1.871 . S
C208 C130 1.822 . S
C224 C150 1.101 . S
C219 N26 1.114 . S
C235 N37 1.290 . S
C240 C173 1.335 . S
C256 C132 2.016 . S
C251 C9 2.043 . S
C272 C108 1.462 . S
C267 N15 1.481 . S
C288 C176 1.500 . S
C283 C31 1.543 . S
C304 C153 1.402 . S
C299 C39 1.442 . S
C315 N4 1.483 . S
C320 C178 1.422 . S
C336 C127 1.676 . S
C331 C28 1.646 . S
C347 C42 1.371 . S
C352 C105 1.393 . S
C363 C17 1.585 . S
C368 C155 1.524 . S
C384 C109 1.878 . S
C379 C50 1.844 . S
C395 C61 1.657 . S
C400 C131 1.637 . S
C411 N70 1.563 . S
C416 C151 1.590 . S
C427 N81 1.396 . S
C432 C174 1.444 . S
C443 N48 1.360 . S
C448 C129 1.398 . S
C464 C107 1.820 . S
C459 C64 1.839 . S
C480 C177 1.392 . S
C475 C75 1.414 . S
C496 C154 1.364 . S
C491 C86 1.409 . S
C507 C53 1.978 . S
C512 C175 1.946 . S
C528 C128 1.295 . S
C523 C72 1.291 . S
C544 C104 1.578 . S
C539 C83 1.560 . S
C555 N59 1.720 . S
C560 C152 1.716 . S
