# Generated by pormake.
# Topology pyr, (3,6)-cn, num edge types: 1
# Building blocks:
#     Node 0, Type 0, BuildingBlock: ESEHIV_clean_linker_0, # of connection points: 3
#     Node 1, Type 0, BuildingBlock: ESEHIV_clean_linker_0, # of connection points: 3
#     Node 2, Type 0, BuildingBlock: ESEHIV_clean_linker_0, # of connection points: 3
#     Node 3, Type 0, BuildingBlock: ESEHIV_clean_linker_0, # of connection points: 3
#     Node 4, Type 0, BuildingBlock: ESEHIV_clean_linker_0, # of connection points: 3
#     Node 5, Type 0, BuildingBlock: ESEHIV_clean_linker_0, # of connection points: 3
#     Node 6, Type 0, BuildingBlock: ESEHIV_clean_linker_0, # of connection points: 3
#     Node 7, Type 0, BuildingBlock: ESEHIV_clean_linker_0, # of connection points: 3
#     Node 8, Type 1, BuildingBlock: VOLQOD_clean_sbu_1, # of connection points: 6
#     Node 9, Type 1, BuildingBlock: VOLQOD_clean_sbu_1, # of connection points: 6
#     Node 10, Type 1, BuildingBlock: VOLQOD_clean_sbu_1, # of connection points: 6
#     Node 11, Type 1, BuildingBlock: VOLQOD_clean_sbu_1, # of connection points: 6
#     Edge 12, Type (0, 1), BuildingBlock: CIFDUS_clean_linker_0, # of connection points: 2
#     Edge 13, Type (0, 1), BuildingBlock: CIFDUS_clean_linker_0, # of connection points: 2
#     Edge 14, Type (0, 1), BuildingBlock: CIFDUS_clean_linker_0, # of connection points: 2
#     Edge 15, Type (0, 1), BuildingBlock: CIFDUS_clean_linker_0, # of connection points: 2
#     Edge 16, Type (0, 1), BuildingBlock: CIFDUS_clean_linker_0, # of connection points: 2
#     Edge 17, Type (0, 1), BuildingBlock: CIFDUS_clean_linker_0, # of connection points: 2
#     Edge 18, Type (0, 1), BuildingBlock: CIFDUS_clean_linker_0, # of connection points: 2
#     Edge 19, Type (0, 1), BuildingBlock: CIFDUS_clean_linker_0, # of connection points: 2
#     Edge 20, Type (0, 1), BuildingBlock: CIFDUS_clean_linker_0, # of connection points: 2
#     Edge 21, Type (0, 1), BuildingBlock: CIFDUS_clean_linker_0, # of connection points: 2
#     Edge 22, Type (0, 1), BuildingBlock: CIFDUS_clean_linker_0, # of connection points: 2
#     Edge 23, Type (0, 1), BuildingBlock: CIFDUS_clean_linker_0, # of connection points: 2
#     Edge 24, Type (0, 1), BuildingBlock: CIFDUS_clean_linker_0, # of connection points: 2
#     Edge 25, Type (0, 1), BuildingBlock: CIFDUS_clean_linker_0, # of connection points: 2
#     Edge 26, Type (0, 1), BuildingBlock: CIFDUS_clean_linker_0, # of connection points: 2
#     Edge 27, Type (0, 1), BuildingBlock: CIFDUS_clean_linker_0, # of connection points: 2
#     Edge 28, Type (0, 1), BuildingBlock: CIFDUS_clean_linker_0, # of connection points: 2
#     Edge 29, Type (0, 1), BuildingBlock: CIFDUS_clean_linker_0, # of connection points: 2
#     Edge 30, Type (0, 1), BuildingBlock: CIFDUS_clean_linker_0, # of connection points: 2
#     Edge 31, Type (0, 1), BuildingBlock: CIFDUS_clean_linker_0, # of connection points: 2
#     Edge 32, Type (0, 1), BuildingBlock: CIFDUS_clean_linker_0, # of connection points: 2
#     Edge 33, Type (0, 1), BuildingBlock: CIFDUS_clean_linker_0, # of connection points: 2
#     Edge 34, Type (0, 1), BuildingBlock: CIFDUS_clean_linker_0, # of connection points: 2
#     Edge 35, Type (0, 1), BuildingBlock: CIFDUS_clean_linker_0, # of connection points: 2
# Relax obj value: 0.035
# Max RMSD: 0.118
# Mean RMSD: 0.043
data_MOF--net-pry--node1-VOLQOD_clean_sbu_1--node2-ESEHIV_clean_linker_0--edge1-CIFDUS_clean_linker_0
_symmetry_space_group_name_H-M    P1
_symmetry_Int_Tables_number       1
_symmetry_cell_setting            triclinic
loop_
_symmetry_equiv_pos_as_xyz
'x, y, z'
_cell_length_a     30.975736
_cell_length_b     31.017662
_cell_length_c     31.118793
_cell_angle_alpha  90.139997
_cell_angle_beta   89.598629
_cell_angle_gamma 90.055709
loop_
_atom_site_label
_atom_site_type_symbol
_atom_site_fract_x
_atom_site_fract_y
_atom_site_fract_z
_atom_type_partial_charge
H0 H 0.06554 0.17317 0.17129 0.0
H1 H 0.1406 0.05715 0.17342 0.0
H2 H 0.15823 0.14899 0.07105 0.0
C3 C 0.08887 0.15205 0.1559 0.0
C4 C 0.10916 0.16473 0.11752 0.0
C5 C 0.10022 0.11336 0.17606 0.0
C6 C 0.13168 0.08668 0.15724 0.0
C7 C 0.15375 0.09956 0.11967 0.0
C8 C 0.14139 0.13823 0.09965 0.0
H9 H 0.33601 0.92838 0.66648 0.0
H10 H 0.44714 0.85056 0.63673 0.0
H11 H 0.3306 0.83716 0.56318 0.0
C12 C 0.35235 0.90483 0.64639 0.0
C13 C 0.33021 0.88646 0.61177 0.0
C14 C 0.39443 0.89143 0.6562 0.0
C15 C 0.41417 0.85998 0.63023 0.0
C16 C 0.39114 0.83879 0.59762 0.0
C17 C 0.34936 0.85322 0.58775 0.0
H18 H 0.65843 0.36716 0.96209 0.0
H19 H 0.65609 0.46985 0.87025 0.0
H20 H 0.58183 0.35448 0.84853 0.0
C21 C 0.64591 0.38093 0.93278 0.0
C22 C 0.61606 0.3574 0.90832 0.0
C23 C 0.66191 0.42062 0.91825 0.0
C24 C 0.64515 0.43828 0.88039 0.0
C25 C 0.61684 0.41457 0.85426 0.0
C26 C 0.60211 0.37418 0.86888 0.0
H27 H 0.87447 0.63876 0.47295 0.0
H28 H 0.97257 0.65551 0.3769 0.0
H29 H 0.87039 0.56373 0.35662 0.0
C30 C 0.88833 0.62925 0.44231 0.0
C31 C 0.86866 0.59692 0.41748 0.0
C32 C 0.92503 0.65106 0.4272 0.0
C33 C 0.94409 0.63855 0.38815 0.0
C34 C 0.92487 0.6066 0.36239 0.0
C35 C 0.88704 0.58622 0.37737 0.0
H36 H 0.85081 0.95868 0.87654 0.0
H37 H 0.9548 0.86732 0.86499 0.0
H38 H 0.85163 0.8441 0.95424 0.0
C39 C 0.86699 0.92972 0.88725 0.0
C40 C 0.8468 0.90329 0.91809 0.0
C41 C 0.90612 0.91714 0.86772 0.0
C42 C 0.92573 0.87867 0.88094 0.0
C43 C 0.9065 0.85262 0.9123 0.0
C44 C 0.86733 0.86521 0.93121 0.0
H45 H 0.54992 0.14621 0.34505 0.0
H46 H 0.64698 0.04786 0.34859 0.0
H47 H 0.62623 0.13006 0.45857 0.0
C48 C 0.57382 0.12822 0.36291 0.0
C49 C 0.58511 0.14159 0.40442 0.0
C50 C 0.59572 0.094 0.34305 0.0
C51 C 0.62868 0.07273 0.36509 0.0
C52 C 0.64005 0.08539 0.40686 0.0
C53 C 0.61708 0.11911 0.42681 0.0
H54 H 0.36843 0.67627 0.06646 0.0
H55 H 0.34968 0.57244 0.15569 0.0
H56 H 0.45627 0.65983 0.17152 0.0
C57 C 0.37966 0.65766 0.09364 0.0
C58 C 0.41614 0.67138 0.1164 0.0
C59 C 0.35556 0.62205 0.10765 0.0
C60 C 0.36898 0.59919 0.14397 0.0
C61 C 0.40526 0.61261 0.16722 0.0
C62 C 0.4291 0.64838 0.1529 0.0
H63 H 0.08292 0.34245 0.66836 0.0
H64 H 0.15663 0.36518 0.55303 0.0
H65 H 0.16847 0.45125 0.66082 0.0
C66 C 0.10485 0.36233 0.64968 0.0
C67 C 0.12227 0.39973 0.66828 0.0
C68 C 0.11732 0.34938 0.60815 0.0
C69 C 0.14685 0.37483 0.58515 0.0
C70 C 0.16637 0.41091 0.60416 0.0
C71 C 0.15286 0.42411 0.64531 0.0
O72 O 0.98076 0.10543 0.55773 0.0
Zn73 Zn 0.95297 0.04777 0.55032 0.0
O74 O 0.98899 0.00839 0.51688 0.0
Zn75 Zn 0.95571 0.98714 0.46808 0.0
Zn76 Zn 0.03974 0.03955 0.4964 0.0
Zn77 Zn 0.00707 0.96007 0.55293 0.0
O78 O 0.94822 0.92331 0.47167 0.0
O79 O 0.98527 0.90306 0.52919 0.0
O80 O 0.89607 0.05778 0.5229 0.0
O81 O 0.89582 0.01235 0.46769 0.0
O82 O 0.98444 0.00252 0.41147 0.0
O83 O 0.03892 0.04423 0.4322 0.0
O84 O 0.09465 0.00912 0.51313 0.0
O85 O 0.941 0.0243 0.6088 0.0
O86 O 0.07167 0.95644 0.55578 0.0
O87 O 0.98366 0.96684 0.61336 0.0
C88 C 0.01607 0.12153 0.54425 0.0
C89 C 0.96167 0.8942 0.49698 0.0
C90 C 0.01633 0.02704 0.40272 0.0
C91 C 0.87725 0.04061 0.49103 0.0
C92 C 0.1022 0.97723 0.53766 0.0
C93 C 0.95663 0.99308 0.62997 0.0
O94 O 0.04195 0.0998 0.52076 0.0
O95 O 0.4796 0.11083 0.95265 0.0
Zn96 Zn 0.45654 0.04993 0.95746 0.0
O97 O 0.49461 0.01378 0.99254 0.0
Zn98 Zn 0.51718 0.96559 0.95864 0.0
Zn99 Zn 0.54282 0.04787 0.01388 0.0
Zn100 Zn 0.46209 0.99137 0.04126 0.0
O101 O 0.49984 0.90837 0.98385 0.0
O102 O 0.46542 0.92703 0.04387 0.0
O103 O 0.45251 0.02608 0.89745 0.0
O104 O 0.49437 0.96795 0.89851 0.0
O105 O 0.58228 0.96612 0.95662 0.0
O106 O 0.60005 0.02304 0.99609 0.0
O107 O 0.54191 0.05229 0.07839 0.0
O108 O 0.39573 0.05161 0.98191 0.0
O109 O 0.48402 0.0143 0.09695 0.0
O110 O 0.40004 0.00845 0.03853 0.0
C111 C 0.51397 0.12828 0.96679 0.0
C112 C 0.48053 0.89836 0.01864 0.0
C113 C 0.61067 0.99061 0.97329 0.0
C114 C 0.46916 0.99346 0.87878 0.0
C115 C 0.51617 0.03765 0.10689 0.0
C116 C 0.37829 0.03279 0.01401 0.0
O117 O 0.54037 0.1074 0.98996 0.0
O118 O 0.55336 0.50072 0.60153 0.0
Zn119 Zn 0.54827 0.53154 0.5449 0.0
O120 O 0.51601 0.49718 0.50351 0.0
Zn121 Zn 0.55308 0.48408 0.45419 0.0
Zn122 Zn 0.49762 0.44342 0.53029 0.0
Zn123 Zn 0.46509 0.52929 0.48472 0.0
O124 O 0.52899 0.50928 0.39994 0.0
O125 O 0.46563 0.53597 0.42063 0.0
O126 O 0.60799 0.54512 0.52291 0.0
O127 O 0.61295 0.508 0.46189 0.0
O128 O 0.55737 0.42027 0.44459 0.0
O129 O 0.52076 0.39154 0.49898 0.0
O130 O 0.43357 0.43839 0.52973 0.0
O131 O 0.51863 0.588 0.55615 0.0
O132 O 0.40947 0.49969 0.50209 0.0
O133 O 0.46378 0.5887 0.51055 0.0
C134 C 0.53774 0.46552 0.6158 0.0
C135 C 0.49338 0.52769 0.39138 0.0
C136 C 0.54326 0.38749 0.46484 0.0
C137 C 0.62945 0.53266 0.49013 0.0
C138 C 0.40267 0.46286 0.51879 0.0
C139 C 0.48642 0.60686 0.53937 0.0
O140 O 0.51534 0.44067 0.59218 0.0
O141 O 0.96431 0.49684 0.10368 0.0
Zn142 Zn 0.97083 0.47487 0.04276 0.0
O143 O 0.0134 0.50931 0.01072 0.0
Zn144 Zn 0.98791 0.53315 0.95924 0.0
Zn145 Zn 0.03336 0.55696 0.04648 0.0
Zn146 Zn 0.06188 0.47312 0.99331 0.0
O147 O 0.01963 0.5161 0.90538 0.0
O148 O 0.06686 0.468 0.92878 0.0
O149 O 0.91267 0.47579 0.01334 0.0
O150 O 0.92736 0.5124 0.95369 0.0
O151 O 0.98469 0.59734 0.96184 0.0
O152 O 0.01274 0.61445 0.02498 0.0
O153 O 0.09811 0.55798 0.04811 0.0
O154 O 0.99051 0.41298 0.04793 0.0
O155 O 0.11783 0.49771 0.01453 0.0
O156 O 0.0556 0.41383 0.01757 0.0
C157 C 0.98299 0.52686 0.12454 0.0
C158 C 0.04913 0.48847 0.89819 0.0
C159 C 0.99456 0.62525 0.99012 0.0
C160 C 0.90117 0.49132 0.97729 0.0
C161 C 0.12721 0.53206 0.03489 0.0
C162 C 0.02558 0.39408 0.03756 0.0
O163 O 0.01068 0.55145 0.1067 0.0
H164 H 0.05942 0.04068 0.20422 0.0
H165 H 0.10548 0.16513 0.24567 0.0
H166 H 0.08351 0.14934 0.31947 0.0
H167 H 0.05328 0.09962 0.37243 0.0
H168 H 0.00326 0.97643 0.33175 0.0
H169 H 0.02449 0.99216 0.25735 0.0
C170 C 0.0643 0.06426 0.22952 0.0
C171 C 0.0839 0.10397 0.21977 0.0
C172 C 0.05108 0.05514 0.27186 0.0
C173 C 0.09004 0.13452 0.25254 0.0
C174 C 0.07772 0.12544 0.29469 0.0
C175 C 0.04705 0.07618 0.34727 0.0
C176 C 0.02723 0.03676 0.35751 0.0
C177 C 0.05855 0.08577 0.30475 0.0
C178 C 0.01857 0.00701 0.32455 0.0
C179 C 0.03078 0.01595 0.28209 0.0
H180 H 0.39281 0.97203 0.69249 0.0
H181 H 0.4433 0.84359 0.71099 0.0
H182 H 0.47438 0.86537 0.779 0.0
H183 H 0.48264 0.91862 0.83589 0.0
H184 H 0.42752 0.04549 0.82136 0.0
H185 H 0.40237 0.02628 0.74952 0.0
C186 C 0.41055 0.94878 0.7114 0.0
C187 C 0.41583 0.90631 0.69623 0.0
C188 C 0.42722 0.96105 0.75148 0.0
C189 C 0.43944 0.8768 0.72109 0.0
C190 C 0.4569 0.88904 0.76038 0.0
C191 C 0.46553 0.94231 0.8169 0.0
C192 C 0.45687 0.98336 0.83405 0.0
C193 C 0.45042 0.93082 0.77616 0.0
C194 C 0.43443 0.01354 0.80902 0.0
C195 C 0.42003 0.00259 0.76794 0.0
H196 H 0.54275 0.4017 0.80785 0.0
H197 H 0.66913 0.4607 0.79946 0.0
H198 H 0.65433 0.48405 0.72685 0.0
H199 H 0.60727 0.48526 0.66404 0.0
H200 H 0.48505 0.4187 0.66845 0.0
H201 H 0.49716 0.39961 0.74366 0.0
C202 C 0.56734 0.41926 0.79017 0.0
C203 C 0.60675 0.42983 0.80996 0.0
C204 C 0.55962 0.43088 0.74729 0.0
C205 C 0.63782 0.45318 0.78618 0.0
C206 C 0.62971 0.46613 0.74416 0.0
C207 C 0.58326 0.4667 0.68157 0.0
C208 C 0.54532 0.45352 0.66093 0.0
C209 C 0.59091 0.45492 0.72431 0.0
C210 C 0.51466 0.42901 0.68371 0.0
C211 C 0.52148 0.41823 0.72671 0.0
H212 H 0.92534 0.52946 0.31936 0.0
H213 H 0.96113 0.66344 0.3049 0.0
H214 H 0.98489 0.64956 0.23164 0.0
H215 H 0.99185 0.60075 0.1701 0.0
H216 H 0.94912 0.46881 0.18151 0.0
H217 H 0.93049 0.48098 0.2571 0.0
C218 C 0.93795 0.55582 0.30019 0.0
C219 C 0.94155 0.59741 0.31819 0.0
C220 C 0.94986 0.54814 0.25723 0.0
C221 C 0.95884 0.63081 0.29273 0.0
C222 C 0.97198 0.62308 0.25044 0.0
C223 C 0.97867 0.57457 0.18919 0.0
C224 C 0.97195 0.53393 0.17029 0.0
C225 C 0.96721 0.58203 0.23224 0.0
C226 C 0.9544 0.50047 0.19528 0.0
C227 C 0.94388 0.50737 0.23851 0.0
H228 H 0.18428 0.08995 0.037 0.0
H229 H 0.2139 0.05765 0.1687 0.0
H230 H 0.2834 0.02947 0.14619 0.0
H231 H 0.33942 0.02191 0.09125 0.0
H232 H 0.31457 0.06292 0.96135 0.0
H233 H 0.24023 0.08119 0.98143 0.0
C234 C 0.20589 0.07701 0.06096 0.0
C235 C 0.19338 0.07641 0.10465 0.0
C236 C 0.2472 0.06313 0.04826 0.0
C237 C 0.2217 0.05806 0.13475 0.0
C238 C 0.26201 0.04243 0.12203 0.0
C239 C 0.31764 0.03438 0.06714 0.0
C240 C 0.33252 0.04118 0.0249 0.0
C241 C 0.27554 0.04597 0.07916 0.0
C242 C 0.30396 0.05769 0.99417 0.0
C243 C 0.26146 0.06804 0.00562 0.0
H244 H 0.30141 0.93369 0.5451 0.0
H245 H 0.25968 0.86826 0.66003 0.0
H246 H 0.18487 0.88993 0.64683 0.0
H247 H 0.13185 0.92791 0.6029 0.0
H248 H 0.17384 -0.00321 0.48969 0.0
H249 H 0.24816 0.97366 0.50193 0.0
C250 C 0.27571 0.92425 0.56701 0.0
C251 C 0.28542 0.8994 0.60326 0.0
C252 C 0.2331 0.93754 0.55961 0.0
C253 C 0.25244 0.88742 0.63191 0.0
C254 C 0.20987 0.89978 0.62437 0.0
C255 C 0.15722 0.93778 0.58081 0.0
C256 C 0.14729 0.96386 0.54533 0.0
C257 C 0.19986 0.9249 0.58836 0.0
C258 C 0.18064 0.97679 0.51731 0.0
C259 C 0.22313 0.9635 0.52421 0.0
H260 H 0.73002 0.45624 0.87679 0.0
H261 H 0.68312 0.42589 0.00417 0.0
H262 H 0.75328 0.44559 0.03417 0.0
H263 H 0.82953 0.46703 0.02312 0.0
H264 H 0.87367 0.49925 0.89513 0.0
H265 H 0.80243 0.48399 0.8667 0.0
C266 C 0.7344 0.45514 0.91132 0.0
C267 C 0.70119 0.43951 0.9381 0.0
C268 C 0.77454 0.46647 0.92823 0.0
C269 C 0.70825 0.43732 0.98268 0.0
C270 C 0.74836 0.44859 -0.00014 0.0
C271 C 0.82343 0.47083 0.98906 0.0
C272 C 0.85702 0.48383 0.96128 0.0
C273 C 0.78207 0.46228 0.97276 0.0
C274 C 0.8485 0.4892 0.91729 0.0
C275 C 0.80774 0.48045 0.90091 0.0
H276 H 0.80241 0.63482 0.4623 0.0
H277 H 0.84043 0.51394 0.40394 0.0
H278 H 0.76977 0.48354 0.42089 0.0
H279 H 0.69624 0.49199 0.45039 0.0
H280 H 0.66141 0.61039 0.51479 0.0
H281 H 0.73257 0.64053 0.49858 0.0
C282 C 0.796 0.60145 0.45418 0.0
C283 C 0.82698 0.57701 0.43142 0.0
C284 C 0.7558 0.58364 0.46517 0.0
C285 C 0.81707 0.53404 0.42051 0.0
C286 C 0.77672 0.51643 0.43048 0.0
C287 C 0.70443 0.52429 0.46105 0.0
C288 C 0.67365 0.54911 0.48339 0.0
C289 C 0.74566 0.54112 0.45233 0.0
C290 C 0.68469 0.59066 0.4976 0.0
C291 C 0.72526 0.60797 0.4882 0.0
H292 H 0.03068 0.20385 0.10938 0.0
H293 H 0.16663 0.22244 0.08345 0.0
H294 H 0.15196 0.29321 0.0536 0.0
H295 H 0.10158 0.35118 0.03795 0.0
H296 H 0.96617 0.33586 0.06806 0.0
H297 H 0.97977 0.26265 0.09371 0.0
C298 C 0.05711 0.22347 0.09736 0.0
C299 C 0.09963 0.20749 0.09833 0.0
C300 C 0.04864 0.26482 0.08121 0.0
C301 C 0.13345 0.23328 0.08224 0.0
C302 C 0.12518 0.27403 0.0655 0.0
C303 C 0.07488 0.33179 0.04977 0.0
C304 C 0.03291 0.34899 0.05102 0.0
C305 C 0.08301 0.29021 0.06512 0.0
C306 C -0.00117 0.32344 0.06682 0.0
C307 C 0.00657 0.2816 0.0815 0.0
H308 H 0.53605 0.32066 0.90351 0.0
H309 H 0.66692 0.29484 0.94299 0.0
H310 H 0.64599 0.22306 0.96636 0.0
H311 H 0.59158 0.16714 0.97429 0.0
H312 H 0.46133 0.18975 0.93141 0.0
H313 H 0.48119 0.26315 0.91012 0.0
C314 C 0.55999 0.2992 0.91701 0.0
C315 C 0.60284 0.31347 0.92205 0.0
C316 C 0.54796 0.2574 0.92963 0.0
C317 C 0.63346 0.28528 0.93975 0.0
C318 C 0.62165 0.244 0.9528 0.0
C319 C 0.56733 0.18811 0.96054 0.0
C320 C 0.52497 0.17305 0.95466 0.0
C321 C 0.57906 0.22978 0.9479 0.0
C322 C 0.49419 0.20057 0.93629 0.0
C323 C 0.50553 0.24252 0.92413 0.0
H324 H 0.87514 0.71973 0.44254 0.0
H325 H 0.00546 0.67375 0.45613 0.0
H326 H 0.02796 0.74467 0.48348 0.0
H327 H 0.01088 0.82148 0.49849 0.0
H328 H 0.88158 0.86759 0.47684 0.0
H329 H 0.858 0.79487 0.4581 0.0
C330 C 0.90829 0.72508 0.45231 0.0
C331 C 0.93856 0.69171 0.44802 0.0
C332 C 0.92107 0.76604 0.46625 0.0
C333 C 0.98167 0.69911 0.45958 0.0
C334 C 0.99445 0.73958 0.47503 0.0
C335 C 0.97751 0.81525 0.49017 0.0
C336 C 0.94788 0.84952 0.48907 0.0
C337 C 0.96454 0.77354 0.47782 0.0
C338 C 0.90485 0.84154 0.47768 0.0
C339 C 0.89137 0.80006 0.46701 0.0
H340 H 0.43909 0.77749 0.63707 0.0
H341 H 0.38186 0.80835 0.51471 0.0
H342 H 0.40593 0.73892 0.48591 0.0
H343 H 0.44198 0.66872 0.49634 0.0
H344 H 0.5034 0.64182 0.61747 0.0
H345 H 0.47998 0.7115 0.64546 0.0
C346 C 0.4328 0.76994 0.60367 0.0
C347 C 0.40876 0.79851 0.57814 0.0
C348 C 0.44749 0.73063 0.5871 0.0
C349 C 0.39983 0.78693 0.53536 0.0
C350 C 0.41377 0.7473 0.51878 0.0
C351 C 0.4503 0.67826 0.5288 0.0
C352 C 0.47409 0.65009 0.55494 0.0
C353 C 0.43728 0.71872 0.54453 0.0
C354 C 0.48519 0.66298 0.59672 0.0
C355 C 0.4717 0.70273 0.61279 0.0
H356 H 0.86016 0.95319 0.80276 0.0
H357 H 0.9908 0.93108 0.84506 0.0
H358 H 0.01831 0.9529 0.77474 0.0
H359 H 0.00456 0.97178 0.6991 0.0
H360 H 0.87453 -0.00036 0.65933 0.0
H361 H 0.84742 0.98269 0.73132 0.0
C362 C 0.89474 0.95444 0.79734 0.0
C363 C 0.92325 0.93967 0.82906 0.0
C364 C 0.9104 0.96749 0.75708 0.0
C365 C 0.96799 0.94122 0.82088 0.0
C366 C 0.98381 0.95373 0.78069 0.0
C367 C 0.97037 0.97435 0.70649 0.0
C368 C 0.94138 0.98612 0.67416 0.0
C369 C 0.95519 0.96558 0.74814 0.0
C370 C 0.89728 0.99034 0.68392 0.0
C371 C 0.88181 0.98066 0.72496 0.0
H372 H 0.51931 0.07389 0.30641 0.0
H373 H 0.65453 0.09203 0.27816 0.0
H374 H 0.64173 0.07725 0.2021 0.0
H375 H 0.59206 0.05932 0.1438 0.0
H376 H 0.45724 0.03768 0.17231 0.0
H377 H 0.46977 0.05376 0.2481 0.0
C378 C 0.5458 0.07454 0.28343 0.0
C379 C 0.5877 0.08385 0.29751 0.0
C380 C 0.53828 0.06551 0.23995 0.0
C381 C 0.62206 0.08446 0.26783 0.0
C382 C 0.61474 0.07624 0.22443 0.0
C383 C 0.56542 0.05832 0.1666 0.0
C384 C 0.52381 0.04759 0.15254 0.0
C385 C 0.57298 0.06678 0.21014 0.0
C386 C 0.48963 0.0458 0.18245 0.0
C387 C 0.49673 0.05504 0.22575 0.0
H388 H 0.4832 0.58665 0.19762 0.0
H389 H 0.34828 0.59603 0.23175 0.0
H390 H 0.36356 0.56936 0.30366 0.0
H391 H 0.41538 0.54668 0.35778 0.0
H392 H 0.55048 0.53632 0.32445 0.0
H393 H 0.53503 0.56015 0.25131 0.0
C394 C 0.45724 0.58261 0.22085 0.0
C395 C 0.41473 0.59312 0.20944 0.0
C396 C 0.46627 0.5674 0.26227 0.0
C397 C 0.38121 0.58754 0.2396 0.0
C398 C 0.38994 0.57263 0.28082 0.0
C399 C 0.44148 0.5496 0.33454 0.0
C400 C 0.48403 0.54017 0.34663 0.0
C401 C 0.43237 0.56297 0.29264 0.0
C402 C 0.5174 0.54348 0.31595 0.0
C403 C 0.50863 0.55717 0.27416 0.0
H404 H 0.09041 0.47511 0.69937 0.0
H405 H 0.1312 0.34825 0.73789 0.0
H406 H 0.11399 0.36513 0.81288 0.0
H407 H 0.08609 0.41544 0.8672 0.0
H408 H 0.04099 0.54095 0.82845 0.0
H409 H 0.06114 0.52529 0.75394 0.0
C410 C 0.09557 0.45138 0.72436 0.0
C411 C 0.1119 0.41057 0.71343 0.0
C412 C 0.08482 0.46105 0.76724 0.0
C413 C 0.11829 0.37977 0.74576 0.0
C414 C 0.1086 0.38944 0.78855 0.0
C415 C 0.08094 0.43946 0.84248 0.0
C416 C 0.06227 0.47933 0.85333 0.0
C417 C 0.09168 0.4299 0.79964 0.0
C418 C 0.05523 0.50994 0.82087 0.0
C419 C 0.06678 0.50105 0.77828 0.0
H420 H 0.81267 0.97954 0.94573 0.0
H421 H 0.77958 0.84703 0.9192 0.0
H422 H 0.70373 0.86223 0.93423 0.0
H423 H 0.64634 0.9137 0.95176 0.0
H424 H 0.67889 0.04604 0.97992 0.0
H425 H 0.75527 0.03049 0.96711 0.0
C426 C 0.78879 0.95404 0.94354 0.0
C427 C 0.8017 0.91224 0.93155 0.0
C428 C 0.74512 0.96303 0.95208 0.0
C429 C 0.77055 0.87934 0.92902 0.0
C430 C 0.72711 0.88807 0.93721 0.0
C431 C 0.67014 0.93916 0.95503 0.0
C432 C 0.65694 0.98102 0.96634 0.0
C433 C 0.71397 0.92989 0.94823 0.0
C434 C 0.68823 0.01352 0.97115 0.0
C435 C 0.7319 0.00468 0.96382 0.0
H436 H 0.70075 0.13003 0.45098 0.0
H437 H 0.67 0.00208 0.4054 0.0
H438 H 0.74126 0.97683 0.42713 0.0
H439 H 0.81378 0.99241 0.45537 0.0
H440 H 0.84188 0.11938 0.50482 0.0
H441 H 0.76952 0.14358 0.4859 0.0
C442 C 0.70891 0.09628 0.44689 0.0
C443 C 0.68003 0.06808 0.42636 0.0
C444 C 0.74961 0.08194 0.45975 0.0
C445 C 0.69185 0.02466 0.42055 0.0
C446 C 0.73256 0.01017 0.43299 0.0
C447 C 0.80391 0.02533 0.46197 0.0
C448 C 0.83308 0.05429 0.48086 0.0
C449 C 0.76202 0.03879 0.45176 0.0
C450 C 0.81988 0.09662 0.49013 0.0
C451 C 0.77859 0.11046 0.47933 0.0
H452 H 0.32441 0.54412 0.08236 0.0
H453 H 0.29126 0.6789 0.09143 0.0
H454 H 0.2179 0.66306 0.06816 0.0
H455 H 0.16201 0.61052 0.04995 0.0
H456 H 0.19466 0.47568 0.03947 0.0
H457 H 0.2694 0.49186 0.05863 0.0
C458 C 0.30111 0.56994 0.0788 0.0
C459 C 0.31307 0.61253 0.08852 0.0
C460 C 0.25891 0.56058 0.0656 0.0
C461 C 0.28287 0.6459 0.08359 0.0
C462 C 0.24085 0.63685 0.07066 0.0
C463 C 0.18552 0.58469 0.05178 0.0
C464 C 0.17282 0.54196 0.04388 0.0
C465 C 0.22834 0.59425 0.06236 0.0
C466 C 0.20372 0.50887 0.04556 0.0
C467 C 0.24639 0.51807 0.05658 0.0
H468 H 0.23261 0.36659 0.56994 0.0
H469 H 0.18935 0.49635 0.5953 0.0
H470 H 0.25797 0.52471 0.56709 0.0
H471 H 0.33212 0.51154 0.5393 0.0
H472 H 0.37431 0.38058 0.51794 0.0
H473 H 0.30354 0.35369 0.53948 0.0
C474 C 0.23764 0.40118 0.56838 0.0
C475 C 0.20579 0.42939 0.58416 0.0
C476 C 0.27699 0.41693 0.55286 0.0
C477 C 0.21346 0.47404 0.58326 0.0
C478 C 0.25259 0.49018 0.5671 0.0
C479 C 0.32542 0.47722 0.53876 0.0
C480 C 0.35827 0.44801 0.52719 0.0
C481 C 0.28486 0.46183 0.55236 0.0
C482 C 0.34955 0.40359 0.52703 0.0
C483 C 0.30916 0.38819 0.53935 0.0
H484 H 0.93089 0.81866 0.98886 0.0
H485 H 0.92162 0.79029 0.85353 0.0
H486 H 0.94981 0.71789 0.86549 0.0
H487 H 0.97506 0.6623 0.91433 0.0
H488 H 0.98657 0.68992 0.04976 0.0
H489 H 0.96012 0.76323 0.03787 0.0
C490 C 0.93519 0.79645 0.96219 0.0
C491 C 0.92432 0.80941 0.92047 0.0
C492 C 0.9519 0.75501 0.96925 0.0
C493 C 0.93013 0.78082 0.88588 0.0
C494 C 0.94612 0.73951 0.89269 0.0
C495 C 0.97196 0.68437 0.94127 0.0
C496 C 0.98243 0.67064 0.98286 0.0
C497 C 0.95689 0.72623 0.93422 0.0
C498 C 0.97877 0.69979 0.01736 0.0
C499 C 0.96344 0.74161 0.01064 0.0
H500 H 0.44161 0.69994 0.03766 0.0
H501 H 0.4341 0.73717 0.17118 0.0
H502 H 0.45595 0.81042 0.15277 0.0
H503 H 0.47045 0.86529 0.09825 0.0
H504 H 0.47856 0.82887 0.96454 0.0
H505 H 0.46312 0.75385 0.98343 0.0
C506 C 0.44534 0.72406 0.06267 0.0
C507 C 0.43618 0.71331 0.10563 0.0
C508 C 0.45742 0.76627 0.05179 0.0
C509 C 0.44144 0.74458 0.13792 0.0
C510 C 0.4535 0.78657 0.12738 0.0
C511 C 0.46902 0.84088 0.07326 0.0
C512 C 0.47491 0.85259 0.03005 0.0
C513 C 0.46046 0.79798 0.08436 0.0
C514 C 0.4739 0.82058 -0.00195 0.0
C515 C 0.465 0.77775 0.00881 0.0
H516 H 0.0377 0.31177 0.61352 0.0
H517 H 0.16683 0.29092 0.56452 0.0
H518 H 0.14618 0.21997 0.53839 0.0
H519 H 0.09276 0.16239 0.53225 0.0
H520 H 0.96458 0.18102 0.58447 0.0
H521 H 0.98385 0.25388 0.60704 0.0
C522 C 0.06133 0.29165 0.59723 0.0
C523 C 0.1036 0.30695 0.59072 0.0
C524 C 0.04958 0.25027 0.58312 0.0
C525 C 0.13374 0.28052 0.56917 0.0
C526 C 0.12213 0.23967 0.55455 0.0
C527 C 0.06893 0.1824 0.54837 0.0
C528 C 0.02737 0.16615 0.55672 0.0
C529 C 0.08028 0.22408 0.56167 0.0
C530 C 0.99694 0.19259 0.57779 0.0
C531 C 0.00788 0.23432 0.59069 0.0
H532 H 0.58998 0.21753 0.36378 0.0
H533 H 0.54872 0.15955 0.48289 0.0
H534 H 0.53104 0.23102 0.51216 0.0
H535 H 0.53023 0.31007 0.50431 0.0
H536 H 0.57544 0.36714 0.3857 0.0
H537 H 0.5888 0.29577 0.35577 0.0
C538 C 0.57631 0.22056 0.39586 0.0
C539 C 0.56992 0.18358 0.42101 0.0
C540 C 0.5675 0.26151 0.41265 0.0
C541 C 0.55345 0.18777 0.46295 0.0
C542 C 0.54357 0.22852 0.47965 0.0
C543 C 0.54293 0.30689 0.47189 0.0
C544 C 0.55191 0.34396 0.44736 0.0
C545 C 0.55098 0.26567 0.45492 0.0
C546 C 0.56851 0.33924 0.40545 0.0
C547 C 0.57601 0.29842 0.38818 0.0
loop_
_geom_bond_atom_site_label_1
_geom_bond_atom_site_label_2
_geom_bond_distance
_geom_bond_site_symmetry_2
_ccdc_geom_bond_type
H0 C3 0.931 . S
H1 C6 0.928 . S
H2 C8 0.930 . S
C3 H0 0.931 . S
C3 C4 1.413 . S
C3 C5 1.360 . S
C4 C3 1.413 . S
C4 C8 1.429 . S
C5 C3 1.360 . S
C5 C6 1.372 . S
C6 H1 0.928 . S
C6 C5 1.372 . S
C6 C7 1.404 . S
C7 C6 1.404 . S
C7 C8 1.391 . S
C8 H2 0.930 . S
C8 C4 1.429 . S
C8 C7 1.391 . S
H9 C12 0.931 . S
H10 C15 0.928 . S
H11 C17 0.930 . S
C12 H9 0.931 . S
C12 C13 1.413 . S
C12 C14 1.360 . S
C13 C12 1.413 . S
C13 C17 1.429 . S
C14 C12 1.360 . S
C14 C15 1.372 . S
C15 H10 0.928 . S
C15 C14 1.372 . S
C15 C16 1.404 . S
C16 C15 1.404 . S
C16 C17 1.391 . S
C17 H11 0.930 . S
C17 C13 1.429 . S
C17 C16 1.391 . S
H18 C21 0.931 . S
H19 C24 0.928 . S
H20 C26 0.930 . S
C21 H18 0.931 . S
C21 C22 1.413 . S
C21 C23 1.360 . S
C22 C21 1.413 . S
C22 C26 1.429 . S
C23 C21 1.360 . S
C23 C24 1.372 . S
C24 H19 0.928 . S
C24 C23 1.372 . S
C24 C25 1.404 . S
C25 C24 1.404 . S
C25 C26 1.391 . S
C26 H20 0.930 . S
C26 C22 1.429 . S
C26 C25 1.391 . S
H27 C30 0.931 . S
H28 C33 0.928 . S
H29 C35 0.930 . S
C30 H27 0.931 . S
C30 C31 1.413 . S
C30 C32 1.360 . S
C31 C30 1.413 . S
C31 C35 1.429 . S
C32 C30 1.360 . S
C32 C33 1.372 . S
C33 H28 0.928 . S
C33 C32 1.372 . S
C33 C34 1.404 . S
C34 C33 1.404 . S
C34 C35 1.391 . S
C35 H29 0.930 . S
C35 C31 1.429 . S
C35 C34 1.391 . S
H36 C39 0.931 . S
H37 C42 0.928 . S
H38 C44 0.930 . S
C39 H36 0.931 . S
C39 C40 1.413 . S
C39 C41 1.360 . S
C40 C39 1.413 . S
C40 C44 1.429 . S
C41 C39 1.360 . S
C41 C42 1.372 . S
C42 H37 0.928 . S
C42 C41 1.372 . S
C42 C43 1.404 . S
C43 C42 1.404 . S
C43 C44 1.391 . S
C44 H38 0.930 . S
C44 C40 1.429 . S
C44 C43 1.391 . S
H45 C48 0.931 . S
H46 C51 0.928 . S
H47 C53 0.930 . S
C48 H45 0.931 . S
C48 C49 1.413 . S
C48 C50 1.360 . S
C49 C48 1.413 . S
C49 C53 1.429 . S
C50 C48 1.360 . S
C50 C51 1.372 . S
C51 H46 0.928 . S
C51 C50 1.372 . S
C51 C52 1.404 . S
C52 C51 1.404 . S
C52 C53 1.391 . S
C53 H47 0.930 . S
C53 C49 1.429 . S
C53 C52 1.391 . S
H54 C57 0.931 . S
H55 C60 0.928 . S
H56 C62 0.930 . S
C57 H54 0.931 . S
C57 C58 1.413 . S
C57 C59 1.360 . S
C58 C57 1.413 . S
C58 C62 1.429 . S
C59 C57 1.360 . S
C59 C60 1.372 . S
C60 H55 0.928 . S
C60 C59 1.372 . S
C60 C61 1.404 . S
C61 C60 1.404 . S
C61 C62 1.391 . S
C62 H56 0.930 . S
C62 C58 1.429 . S
C62 C61 1.391 . S
H63 C66 0.931 . S
H64 C69 0.928 . S
H65 C71 0.930 . S
C66 H63 0.931 . S
C66 C67 1.413 . S
C66 C68 1.360 . S
C67 C66 1.413 . S
C67 C71 1.429 . S
C68 C66 1.360 . S
C68 C69 1.372 . S
C69 H64 0.928 . S
C69 C68 1.372 . S
C69 C70 1.404 . S
C70 C69 1.404 . S
C70 C71 1.391 . S
C71 H65 0.930 . S
C71 C67 1.429 . S
C71 C70 1.391 . S
O72 Zn73 1.953 . S
O72 C88 1.225 1_655 S
Zn73 O72 1.953 . S
Zn73 O74 1.949 1_655 S
Zn73 O80 1.919 . S
Zn73 O85 1.924 . S
O74 Zn73 1.949 1_455 S
O74 Zn75 1.923 1_445 S
O74 Zn76 1.950 . S
O74 Zn77 1.945 1_545 S
Zn75 O74 1.923 1_665 S
Zn75 O78 1.933 . S
Zn75 O81 1.941 1_565 S
Zn75 O82 1.965 1_665 S
Zn76 O74 1.950 . S
Zn76 O83 1.938 . S
Zn76 O84 1.906 1_545 S
Zn76 O94 1.953 . S
Zn77 O74 1.945 1_565 S
Zn77 O79 1.932 1_455 S
Zn77 O86 1.977 . S
Zn77 O87 1.910 1_455 S
O78 Zn75 1.933 . S
O78 C89 1.226 . S
O79 Zn77 1.932 1_655 S
O79 C89 1.307 . S
O80 Zn73 1.919 . S
O80 C91 1.253 . S
O81 Zn75 1.941 1_545 S
O81 C91 1.283 . S
O82 Zn75 1.965 1_445 S
O82 C90 1.303 . S
O83 Zn76 1.938 . S
O83 C90 1.247 . S
O84 Zn76 1.906 1_565 S
O84 C92 1.304 . S
O85 Zn73 1.924 . S
O85 C93 1.311 1_545 S
O86 Zn77 1.977 . S
O86 C92 1.272 . S
O87 Zn77 1.910 1_655 S
O87 C93 1.231 . S
C88 O72 1.225 1_455 S
C88 O94 1.298 . S
C89 O78 1.226 . S
C89 O79 1.307 . S
C90 O82 1.303 . S
C90 O83 1.247 . S
C91 O80 1.253 . S
C91 O81 1.283 . S
C92 O84 1.304 . S
C92 O86 1.272 . S
C93 O85 1.311 1_565 S
C93 O87 1.231 . S
O94 Zn76 1.953 . S
O94 C88 1.298 . S
O95 Zn96 1.953 . S
O95 C111 1.225 . S
Zn96 O95 1.953 . S
Zn96 O97 1.949 1_556 S
Zn96 O103 1.919 . S
Zn96 O108 1.924 . S
O97 Zn96 1.949 1_554 S
O97 Zn98 1.923 1_544 S
O97 Zn99 1.950 . S
O97 Zn100 1.945 1_545 S
Zn98 O97 1.923 1_566 S
Zn98 O101 1.933 1_556 S
Zn98 O104 1.941 . S
Zn98 O105 1.965 . S
Zn99 O97 1.950 . S
Zn99 O106 1.938 . S
Zn99 O107 1.906 . S
Zn99 O117 1.953 . S
Zn100 O97 1.945 1_565 S
Zn100 O102 1.932 . S
Zn100 O109 1.977 1_565 S
Zn100 O110 1.910 1_565 S
O101 Zn98 1.933 1_554 S
O101 C112 1.226 . S
O102 Zn100 1.932 . S
O102 C112 1.307 . S
O103 Zn96 1.919 . S
O103 C114 1.253 1_545 S
O104 Zn98 1.941 . S
O104 C114 1.283 . S
O105 Zn98 1.965 . S
O105 C113 1.303 . S
O106 Zn99 1.938 . S
O106 C113 1.247 1_544 S
O107 Zn99 1.906 . S
O107 C115 1.304 . S
O108 Zn96 1.924 . S
O108 C116 1.311 1_556 S
O109 Zn100 1.977 1_545 S
O109 C115 1.272 . S
O110 Zn100 1.910 1_545 S
O110 C116 1.231 . S
C111 O95 1.225 . S
C111 O117 1.298 1_556 S
C112 O101 1.226 . S
C112 O102 1.307 . S
C113 O105 1.303 . S
C113 O106 1.247 1_566 S
C114 O103 1.253 1_565 S
C114 O104 1.283 . S
C115 O107 1.304 . S
C115 O109 1.272 . S
C116 O108 1.311 1_554 S
C116 O110 1.231 . S
O117 Zn99 1.953 . S
O117 C111 1.298 1_554 S
O118 Zn119 1.953 . S
O118 C134 1.225 . S
Zn119 O118 1.953 . S
Zn119 O120 1.949 . S
Zn119 O126 1.919 . S
Zn119 O131 1.924 . S
O120 Zn119 1.949 . S
O120 Zn121 1.923 . S
O120 Zn122 1.950 . S
O120 Zn123 1.945 . S
Zn121 O120 1.923 . S
Zn121 O124 1.933 . S
Zn121 O127 1.941 . S
Zn121 O128 1.965 . S
Zn122 O120 1.950 . S
Zn122 O129 1.938 . S
Zn122 O130 1.906 . S
Zn122 O140 1.953 . S
Zn123 O120 1.945 . S
Zn123 O125 1.932 . S
Zn123 O132 1.977 . S
Zn123 O133 1.910 . S
O124 Zn121 1.933 . S
O124 C135 1.226 . S
O125 Zn123 1.932 . S
O125 C135 1.307 . S
O126 Zn119 1.919 . S
O126 C137 1.253 . S
O127 Zn121 1.941 . S
O127 C137 1.283 . S
O128 Zn121 1.965 . S
O128 C136 1.303 . S
O129 Zn122 1.938 . S
O129 C136 1.247 . S
O130 Zn122 1.906 . S
O130 C138 1.304 . S
O131 Zn119 1.924 . S
O131 C139 1.311 . S
O132 Zn123 1.977 . S
O132 C138 1.272 . S
O133 Zn123 1.910 . S
O133 C139 1.231 . S
C134 O118 1.225 . S
C134 O140 1.298 . S
C135 O124 1.226 . S
C135 O125 1.307 . S
C136 O128 1.303 . S
C136 O129 1.247 . S
C137 O126 1.253 . S
C137 O127 1.283 . S
C138 O130 1.304 . S
C138 O132 1.272 . S
C139 O131 1.311 . S
C139 O133 1.231 . S
O140 Zn122 1.953 . S
O140 C134 1.298 . S
O141 Zn142 1.953 . S
O141 C157 1.225 . S
Zn142 O141 1.953 . S
Zn142 O143 1.949 1_655 S
Zn142 O149 1.919 . S
Zn142 O154 1.924 . S
O143 Zn142 1.949 1_455 S
O143 Zn144 1.923 1_454 S
O143 Zn145 1.950 . S
O143 Zn146 1.945 1_554 S
Zn144 O143 1.923 1_656 S
Zn144 O147 1.933 1_655 S
Zn144 O150 1.941 . S
Zn144 O151 1.965 . S
Zn145 O143 1.950 . S
Zn145 O152 1.938 . S
Zn145 O153 1.906 . S
Zn145 O163 1.953 . S
Zn146 O143 1.945 1_556 S
Zn146 O148 1.932 . S
Zn146 O155 1.977 1_556 S
Zn146 O156 1.910 1_556 S
O147 Zn144 1.933 1_455 S
O147 C158 1.226 . S
O148 Zn146 1.932 . S
O148 C158 1.307 . S
O149 Zn142 1.919 . S
O149 C160 1.253 1_554 S
O150 Zn144 1.941 . S
O150 C160 1.283 . S
O151 Zn144 1.965 . S
O151 C159 1.303 . S
O152 Zn145 1.938 . S
O152 C159 1.247 1_454 S
O153 Zn145 1.906 . S
O153 C161 1.304 . S
O154 Zn142 1.924 . S
O154 C162 1.311 1_655 S
O155 Zn146 1.977 1_554 S
O155 C161 1.272 . S
O156 Zn146 1.910 1_554 S
O156 C162 1.231 . S
C157 O141 1.225 . S
C157 O163 1.298 1_655 S
C158 O147 1.226 . S
C158 O148 1.307 . S
C159 O151 1.303 . S
C159 O152 1.247 1_656 S
C160 O149 1.253 1_556 S
C160 O150 1.283 . S
C161 O153 1.304 . S
C161 O155 1.272 . S
C162 O154 1.311 1_455 S
C162 O156 1.231 . S
O163 Zn145 1.953 . S
O163 C157 1.298 1_455 S
H164 C170 0.930 . S
H165 C173 0.930 . S
H166 C174 0.930 . S
H167 C175 0.930 . S
H168 C178 0.930 . S
H169 C179 0.930 . S
C170 H164 0.930 . S
C170 C171 1.355 . S
C170 C172 1.415 . S
C171 C170 1.355 . S
C171 C173 1.419 . S
C172 C170 1.415 . S
C172 C177 1.425 . S
C172 C179 1.409 . S
C173 H165 0.930 . S
C173 C171 1.419 . S
C173 C174 1.362 . S
C174 H166 0.930 . S
C174 C173 1.362 . S
C174 C177 1.409 . S
C175 H167 0.930 . S
C175 C176 1.355 . S
C175 C177 1.415 . S
C176 C175 1.355 . S
C176 C178 1.419 . S
C177 C172 1.425 . S
C177 C174 1.409 . S
C177 C175 1.415 . S
C178 H168 0.930 . S
C178 C176 1.419 . S
C178 C179 1.362 . S
C179 H169 0.930 . S
C179 C172 1.409 . S
C179 C178 1.362 . S
H180 C186 0.930 . S
H181 C189 0.930 . S
H182 C190 0.930 . S
H183 C191 0.930 . S
H184 C194 0.930 . S
H185 C195 0.930 . S
C186 H180 0.930 . S
C186 C187 1.355 . S
C186 C188 1.415 . S
C187 C186 1.355 . S
C187 C189 1.419 . S
C188 C186 1.415 . S
C188 C193 1.425 . S
C188 C195 1.409 . S
C189 H181 0.930 . S
C189 C187 1.419 . S
C189 C190 1.362 . S
C190 H182 0.930 . S
C190 C189 1.362 . S
C190 C193 1.409 . S
C191 H183 0.930 . S
C191 C192 1.355 . S
C191 C193 1.415 . S
C192 C191 1.355 . S
C192 C194 1.419 . S
C193 C188 1.425 . S
C193 C190 1.409 . S
C193 C191 1.415 . S
C194 H184 0.930 . S
C194 C192 1.419 . S
C194 C195 1.362 . S
C195 H185 0.930 . S
C195 C188 1.409 . S
C195 C194 1.362 . S
H196 C202 0.930 . S
H197 C205 0.930 . S
H198 C206 0.930 . S
H199 C207 0.930 . S
H200 C210 0.930 . S
H201 C211 0.930 . S
C202 H196 0.930 . S
C202 C203 1.355 . S
C202 C204 1.415 . S
C203 C202 1.355 . S
C203 C205 1.419 . S
C204 C202 1.415 . S
C204 C209 1.425 . S
C204 C211 1.409 . S
C205 H197 0.930 . S
C205 C203 1.419 . S
C205 C206 1.362 . S
C206 H198 0.930 . S
C206 C205 1.362 . S
C206 C209 1.409 . S
C207 H199 0.930 . S
C207 C208 1.355 . S
C207 C209 1.415 . S
C208 C207 1.355 . S
C208 C210 1.419 . S
C209 C204 1.425 . S
C209 C206 1.409 . S
C209 C207 1.415 . S
C210 H200 0.930 . S
C210 C208 1.419 . S
C210 C211 1.362 . S
C211 H201 0.930 . S
C211 C204 1.409 . S
C211 C210 1.362 . S
H212 C218 0.930 . S
H213 C221 0.930 . S
H214 C222 0.930 . S
H215 C223 0.930 . S
H216 C226 0.930 . S
H217 C227 0.930 . S
C218 H212 0.930 . S
C218 C219 1.355 . S
C218 C220 1.415 . S
C219 C218 1.355 . S
C219 C221 1.419 . S
C220 C218 1.415 . S
C220 C225 1.425 . S
C220 C227 1.409 . S
C221 H213 0.930 . S
C221 C219 1.419 . S
C221 C222 1.362 . S
C222 H214 0.930 . S
C222 C221 1.362 . S
C222 C225 1.409 . S
C223 H215 0.930 . S
C223 C224 1.355 . S
C223 C225 1.415 . S
C224 C223 1.355 . S
C224 C226 1.419 . S
C225 C220 1.425 . S
C225 C222 1.409 . S
C225 C223 1.415 . S
C226 H216 0.930 . S
C226 C224 1.419 . S
C226 C227 1.362 . S
C227 H217 0.930 . S
C227 C220 1.409 . S
C227 C226 1.362 . S
H228 C234 0.930 . S
H229 C237 0.930 . S
H230 C238 0.930 . S
H231 C239 0.930 . S
H232 C242 0.930 1_556 S
H233 C243 0.930 . S
C234 H228 0.930 . S
C234 C235 1.355 . S
C234 C236 1.415 . S
C235 C234 1.355 . S
C235 C237 1.419 . S
C236 C234 1.415 . S
C236 C241 1.425 . S
C236 C243 1.409 . S
C237 H229 0.930 . S
C237 C235 1.419 . S
C237 C238 1.362 . S
C238 H230 0.930 . S
C238 C237 1.362 . S
C238 C241 1.409 . S
C239 H231 0.930 . S
C239 C240 1.355 . S
C239 C241 1.415 . S
C240 C239 1.355 . S
C240 C242 1.419 . S
C241 C236 1.425 . S
C241 C238 1.409 . S
C241 C239 1.415 . S
C242 H232 0.930 1_554 S
C242 C240 1.419 . S
C242 C243 1.362 . S
C243 H233 0.930 . S
C243 C236 1.409 . S
C243 C242 1.362 . S
H244 C250 0.930 . S
H245 C253 0.930 . S
H246 C254 0.930 . S
H247 C255 0.930 . S
H248 C258 0.930 . S
H249 C259 0.930 . S
C250 H244 0.930 . S
C250 C251 1.355 . S
C250 C252 1.415 . S
C251 C250 1.355 . S
C251 C253 1.419 . S
C252 C250 1.415 . S
C252 C257 1.425 . S
C252 C259 1.409 . S
C253 H245 0.930 . S
C253 C251 1.419 . S
C253 C254 1.362 . S
C254 H246 0.930 . S
C254 C253 1.362 . S
C254 C257 1.409 . S
C255 H247 0.930 . S
C255 C256 1.355 . S
C255 C257 1.415 . S
C256 C255 1.355 . S
C256 C258 1.419 . S
C257 C252 1.425 . S
C257 C254 1.409 . S
C257 C255 1.415 . S
C258 H248 0.930 . S
C258 C256 1.419 . S
C258 C259 1.362 . S
C259 H249 0.930 . S
C259 C252 1.409 . S
C259 C258 1.362 . S
H260 C266 0.930 . S
H261 C269 0.930 . S
H262 C270 0.930 . S
H263 C271 0.930 . S
H264 C274 0.930 . S
H265 C275 0.930 . S
C266 H260 0.930 . S
C266 C267 1.355 . S
C266 C268 1.415 . S
C267 C266 1.355 . S
C267 C269 1.419 . S
C268 C266 1.415 . S
C268 C273 1.425 . S
C268 C275 1.409 . S
C269 H261 0.930 . S
C269 C267 1.419 . S
C269 C270 1.362 . S
C270 H262 0.930 . S
C270 C269 1.362 . S
C270 C273 1.409 . S
C271 H263 0.930 . S
C271 C272 1.355 . S
C271 C273 1.415 . S
C272 C271 1.355 . S
C272 C274 1.419 . S
C273 C268 1.425 . S
C273 C270 1.409 . S
C273 C271 1.415 . S
C274 H264 0.930 . S
C274 C272 1.419 . S
C274 C275 1.362 . S
C275 H265 0.930 . S
C275 C268 1.409 . S
C275 C274 1.362 . S
H276 C282 0.930 . S
H277 C285 0.930 . S
H278 C286 0.930 . S
H279 C287 0.930 . S
H280 C290 0.930 . S
H281 C291 0.930 . S
C282 H276 0.930 . S
C282 C283 1.355 . S
C282 C284 1.415 . S
C283 C282 1.355 . S
C283 C285 1.419 . S
C284 C282 1.415 . S
C284 C289 1.425 . S
C284 C291 1.409 . S
C285 H277 0.930 . S
C285 C283 1.419 . S
C285 C286 1.362 . S
C286 H278 0.930 . S
C286 C285 1.362 . S
C286 C289 1.409 . S
C287 H279 0.930 . S
C287 C288 1.355 . S
C287 C289 1.415 . S
C288 C287 1.355 . S
C288 C290 1.419 . S
C289 C284 1.425 . S
C289 C286 1.409 . S
C289 C287 1.415 . S
C290 H280 0.930 . S
C290 C288 1.419 . S
C290 C291 1.362 . S
C291 H281 0.930 . S
C291 C284 1.409 . S
C291 C290 1.362 . S
H292 C298 0.930 . S
H293 C301 0.930 . S
H294 C302 0.930 . S
H295 C303 0.930 . S
H296 C306 0.930 1_655 S
H297 C307 0.930 . S
C298 H292 0.930 . S
C298 C299 1.355 . S
C298 C300 1.415 . S
C299 C298 1.355 . S
C299 C301 1.419 . S
C300 C298 1.415 . S
C300 C305 1.425 . S
C300 C307 1.409 . S
C301 H293 0.930 . S
C301 C299 1.419 . S
C301 C302 1.362 . S
C302 H294 0.930 . S
C302 C301 1.362 . S
C302 C305 1.409 . S
C303 H295 0.930 . S
C303 C304 1.355 . S
C303 C305 1.415 . S
C304 C303 1.355 . S
C304 C306 1.419 . S
C305 C300 1.425 . S
C305 C302 1.409 . S
C305 C303 1.415 . S
C306 H296 0.930 1_455 S
C306 C304 1.419 . S
C306 C307 1.362 . S
C307 H297 0.930 . S
C307 C300 1.409 . S
C307 C306 1.362 . S
H308 C314 0.930 . S
H309 C317 0.930 . S
H310 C318 0.930 . S
H311 C319 0.930 . S
H312 C322 0.916 1_554 S
H313 C323 0.930 . S
C314 H308 0.930 . S
C314 C315 1.355 . S
C314 C316 1.415 . S
C315 C314 1.355 . S
C315 C317 1.419 . S
C316 C314 1.415 . S
C316 C321 1.425 . S
C316 C323 1.409 . S
C317 H309 0.930 . S
C317 C315 1.419 . S
C317 C318 1.362 . S
C318 H310 0.930 . S
C318 C317 1.362 . S
C318 C321 1.409 . S
C319 H311 0.930 . S
C319 C320 1.355 . S
C319 C321 1.415 . S
C320 C319 1.355 . S
C320 C322 1.419 . S
C321 C316 1.425 . S
C321 C318 1.409 . S
C321 C319 1.415 . S
C322 H312 0.916 1_556 S
C322 C320 1.419 . S
C322 C323 1.362 . S
C323 H313 0.930 . S
C323 C316 1.409 . S
C323 C322 1.362 . S
H324 C330 0.930 . S
H325 C333 0.930 . S
H326 C334 0.930 1_455 S
H327 C335 0.930 1_455 S
H328 C338 0.930 . S
H329 C339 0.930 . S
C330 H324 0.930 . S
C330 C331 1.355 . S
C330 C332 1.415 . S
C331 C330 1.355 . S
C331 C333 1.419 . S
C332 C330 1.415 . S
C332 C337 1.425 . S
C332 C339 1.409 . S
C333 H325 0.930 . S
C333 C331 1.419 . S
C333 C334 1.362 . S
C334 H326 0.930 1_655 S
C334 C333 1.362 . S
C334 C337 1.409 . S
C335 H327 0.930 1_655 S
C335 C336 1.355 . S
C335 C337 1.415 . S
C336 C335 1.355 . S
C336 C338 1.419 . S
C337 C332 1.425 . S
C337 C334 1.409 . S
C337 C335 1.415 . S
C338 H328 0.930 . S
C338 C336 1.419 . S
C338 C339 1.362 . S
C339 H329 0.930 . S
C339 C332 1.409 . S
C339 C338 1.362 . S
H340 C346 0.930 . S
H341 C349 0.930 . S
H342 C350 0.930 . S
H343 C351 0.930 . S
H344 C354 0.930 . S
H345 C355 0.930 . S
C346 H340 0.930 . S
C346 C347 1.355 . S
C346 C348 1.415 . S
C347 C346 1.355 . S
C347 C349 1.419 . S
C348 C346 1.415 . S
C348 C353 1.425 . S
C348 C355 1.409 . S
C349 H341 0.930 . S
C349 C347 1.419 . S
C349 C350 1.362 . S
C350 H342 0.930 . S
C350 C349 1.362 . S
C350 C353 1.409 . S
C351 H343 0.930 . S
C351 C352 1.355 . S
C351 C353 1.415 . S
C352 C351 1.355 . S
C352 C354 1.419 . S
C353 C348 1.425 . S
C353 C350 1.409 . S
C353 C351 1.415 . S
C354 H344 0.930 . S
C354 C352 1.419 . S
C354 C355 1.362 . S
C355 H345 0.930 . S
C355 C348 1.409 . S
C355 C354 1.362 . S
H356 C362 0.930 . S
H357 C365 0.930 . S
H358 C366 0.930 1_445 S
H359 C367 0.930 1_455 S
H360 C370 0.930 . S
H361 C371 0.930 . S
C362 H356 0.930 . S
C362 C363 1.355 . S
C362 C364 1.415 . S
C363 C362 1.355 . S
C363 C365 1.419 . S
C364 C362 1.415 . S
C364 C369 1.425 . S
C364 C371 1.409 . S
C365 H357 0.930 . S
C365 C363 1.419 . S
C365 C366 1.362 . S
C366 H358 0.930 1_665 S
C366 C365 1.362 . S
C366 C369 1.409 . S
C367 H359 0.930 1_655 S
C367 C368 1.355 1_545 S
C367 C369 1.415 1_545 S
C368 C367 1.355 1_565 S
C368 C370 1.419 . S
C369 C364 1.425 . S
C369 C366 1.409 . S
C369 C367 1.415 1_565 S
C370 H360 0.930 . S
C370 C368 1.419 . S
C370 C371 1.362 . S
C371 H361 0.930 . S
C371 C364 1.409 . S
C371 C370 1.362 . S
H372 C378 0.930 . S
H373 C381 0.930 . S
H374 C382 0.930 . S
H375 C383 0.930 . S
H376 C386 0.930 1_565 S
H377 C387 0.930 . S
C378 H372 0.930 . S
C378 C379 1.355 . S
C378 C380 1.415 . S
C379 C378 1.355 . S
C379 C381 1.419 . S
C380 C378 1.415 . S
C380 C385 1.425 . S
C380 C387 1.409 . S
C381 H373 0.930 . S
C381 C379 1.419 . S
C381 C382 1.362 . S
C382 H374 0.930 . S
C382 C381 1.362 . S
C382 C385 1.409 . S
C383 H375 0.930 . S
C383 C384 1.355 . S
C383 C385 1.415 . S
C384 C383 1.355 . S
C384 C386 1.419 . S
C385 C380 1.425 . S
C385 C382 1.409 . S
C385 C383 1.415 . S
C386 H376 0.930 1_545 S
C386 C384 1.419 . S
C386 C387 1.362 . S
C387 H377 0.930 . S
C387 C380 1.409 . S
C387 C386 1.362 . S
H388 C394 0.930 . S
H389 C397 0.930 . S
H390 C398 0.930 . S
H391 C399 0.930 . S
H392 C402 0.930 . S
H393 C403 0.930 . S
C394 H388 0.930 . S
C394 C395 1.355 . S
C394 C396 1.415 . S
C395 C394 1.355 . S
C395 C397 1.419 . S
C396 C394 1.415 . S
C396 C401 1.425 . S
C396 C403 1.409 . S
C397 H389 0.930 . S
C397 C395 1.419 . S
C397 C398 1.362 . S
C398 H390 0.930 . S
C398 C397 1.362 . S
C398 C401 1.409 . S
C399 H391 0.930 . S
C399 C400 1.355 . S
C399 C401 1.415 . S
C400 C399 1.355 . S
C400 C402 1.419 . S
C401 C396 1.425 . S
C401 C398 1.409 . S
C401 C399 1.415 . S
C402 H392 0.930 . S
C402 C400 1.419 . S
C402 C403 1.362 . S
C403 H393 0.930 . S
C403 C396 1.409 . S
C403 C402 1.362 . S
H404 C410 0.930 . S
H405 C413 0.930 . S
H406 C414 0.930 . S
H407 C415 0.930 . S
H408 C418 0.930 . S
H409 C419 0.930 . S
C410 H404 0.930 . S
C410 C411 1.355 . S
C410 C412 1.415 . S
C411 C410 1.355 . S
C411 C413 1.419 . S
C412 C410 1.415 . S
C412 C417 1.425 . S
C412 C419 1.409 . S
C413 H405 0.930 . S
C413 C411 1.419 . S
C413 C414 1.362 . S
C414 H406 0.930 . S
C414 C413 1.362 . S
C414 C417 1.409 . S
C415 H407 0.930 . S
C415 C416 1.355 . S
C415 C417 1.415 . S
C416 C415 1.355 . S
C416 C418 1.419 . S
C417 C412 1.425 . S
C417 C414 1.409 . S
C417 C415 1.415 . S
C418 H408 0.930 . S
C418 C416 1.419 . S
C418 C419 1.362 . S
C419 H409 0.930 . S
C419 C412 1.409 . S
C419 C418 1.362 . S
H420 C426 0.930 1_545 S
H421 C429 0.930 . S
H422 C430 0.930 . S
H423 C431 0.930 . S
H424 C434 0.930 . S
H425 C435 0.930 . S
C426 H420 0.930 1_565 S
C426 C427 1.355 . S
C426 C428 1.415 . S
C427 C426 1.355 . S
C427 C429 1.419 . S
C428 C426 1.415 . S
C428 C433 1.425 . S
C428 C435 1.409 1_565 S
C429 H421 0.930 . S
C429 C427 1.419 . S
C429 C430 1.362 . S
C430 H422 0.930 . S
C430 C429 1.362 . S
C430 C433 1.409 . S
C431 H423 0.930 . S
C431 C432 1.355 . S
C431 C433 1.415 . S
C432 C431 1.355 . S
C432 C434 1.419 1_565 S
C433 C428 1.425 . S
C433 C430 1.409 . S
C433 C431 1.415 . S
C434 H424 0.930 . S
C434 C432 1.419 1_545 S
C434 C435 1.362 . S
C435 H425 0.930 . S
C435 C428 1.409 1_545 S
C435 C434 1.362 . S
H436 C442 0.930 . S
H437 C445 0.930 1_565 S
H438 C446 0.930 . S
H439 C447 0.930 1_565 S
H440 C450 0.930 . S
H441 C451 0.930 . S
C442 H436 0.930 . S
C442 C443 1.355 . S
C442 C444 1.415 . S
C443 C442 1.355 . S
C443 C445 1.419 . S
C444 C442 1.415 . S
C444 C449 1.425 . S
C444 C451 1.409 . S
C445 H437 0.930 1_545 S
C445 C443 1.419 . S
C445 C446 1.362 1_545 S
C446 H438 0.930 . S
C446 C445 1.362 1_565 S
C446 C449 1.409 1_565 S
C447 H439 0.930 1_545 S
C447 C448 1.355 . S
C447 C449 1.415 . S
C448 C447 1.355 . S
C448 C450 1.419 . S
C449 C444 1.425 . S
C449 C446 1.409 1_545 S
C449 C447 1.415 . S
C450 H440 0.930 . S
C450 C448 1.419 . S
C450 C451 1.362 . S
C451 H441 0.930 . S
C451 C444 1.409 . S
C451 C450 1.362 . S
H452 C458 0.930 . S
H453 C461 0.930 . S
H454 C462 0.930 . S
H455 C463 0.930 . S
H456 C466 0.930 . S
H457 C467 0.930 . S
C458 H452 0.930 . S
C458 C459 1.355 . S
C458 C460 1.415 . S
C459 C458 1.355 . S
C459 C461 1.419 . S
C460 C458 1.415 . S
C460 C465 1.425 . S
C460 C467 1.409 . S
C461 H453 0.930 . S
C461 C459 1.419 . S
C461 C462 1.362 . S
C462 H454 0.930 . S
C462 C461 1.362 . S
C462 C465 1.409 . S
C463 H455 0.930 . S
C463 C464 1.355 . S
C463 C465 1.415 . S
C464 C463 1.355 . S
C464 C466 1.419 . S
C465 C460 1.425 . S
C465 C462 1.409 . S
C465 C463 1.415 . S
C466 H456 0.930 . S
C466 C464 1.419 . S
C466 C467 1.362 . S
C467 H457 0.930 . S
C467 C460 1.409 . S
C467 C466 1.362 . S
H468 C474 0.930 . S
H469 C477 0.930 . S
H470 C478 0.930 . S
H471 C479 0.930 . S
H472 C482 0.930 . S
H473 C483 0.930 . S
C474 H468 0.930 . S
C474 C475 1.355 . S
C474 C476 1.415 . S
C475 C474 1.355 . S
C475 C477 1.419 . S
C476 C474 1.415 . S
C476 C481 1.425 . S
C476 C483 1.409 . S
C477 H469 0.930 . S
C477 C475 1.419 . S
C477 C478 1.362 . S
C478 H470 0.930 . S
C478 C477 1.362 . S
C478 C481 1.409 . S
C479 H471 0.930 . S
C479 C480 1.355 . S
C479 C481 1.415 . S
C480 C479 1.355 . S
C480 C482 1.419 . S
C481 C476 1.425 . S
C481 C478 1.409 . S
C481 C479 1.415 . S
C482 H472 0.930 . S
C482 C480 1.419 . S
C482 C483 1.362 . S
C483 H473 0.930 . S
C483 C476 1.409 . S
C483 C482 1.362 . S
H484 C490 0.930 . S
H485 C493 0.930 . S
H486 C494 0.930 . S
H487 C495 0.930 . S
H488 C498 0.930 1_455 S
H489 C499 0.930 1_455 S
C490 H484 0.930 . S
C490 C491 1.355 . S
C490 C492 1.415 . S
C491 C490 1.355 . S
C491 C493 1.419 . S
C492 C490 1.415 . S
C492 C497 1.425 . S
C492 C499 1.409 1_556 S
C493 H485 0.930 . S
C493 C491 1.419 . S
C493 C494 1.362 . S
C494 H486 0.930 . S
C494 C493 1.362 . S
C494 C497 1.409 . S
C495 H487 0.930 . S
C495 C496 1.355 . S
C495 C497 1.415 . S
C496 C495 1.355 . S
C496 C498 1.419 1_556 S
C497 C492 1.425 . S
C497 C494 1.409 . S
C497 C495 1.415 . S
C498 H488 0.930 1_655 S
C498 C496 1.419 1_554 S
C498 C499 1.362 . S
C499 H489 0.930 1_655 S
C499 C492 1.409 1_554 S
C499 C498 1.362 . S
H500 C506 0.930 . S
H501 C509 0.930 . S
H502 C510 0.930 . S
H503 C511 0.930 . S
H504 C514 0.930 . S
H505 C515 0.930 . S
C506 H500 0.930 . S
C506 C507 1.355 . S
C506 C508 1.415 . S
C507 C506 1.355 . S
C507 C509 1.419 . S
C508 C506 1.415 . S
C508 C513 1.425 . S
C508 C515 1.409 . S
C509 H501 0.930 . S
C509 C507 1.419 . S
C509 C510 1.362 . S
C510 H502 0.930 . S
C510 C509 1.362 . S
C510 C513 1.409 . S
C511 H503 0.930 . S
C511 C512 1.355 . S
C511 C513 1.415 . S
C512 C511 1.355 . S
C512 C514 1.419 . S
C513 C508 1.425 . S
C513 C510 1.409 . S
C513 C511 1.415 . S
C514 H504 0.930 . S
C514 C512 1.419 . S
C514 C515 1.362 . S
C515 H505 0.930 . S
C515 C508 1.409 . S
C515 C514 1.362 . S
H516 C522 0.930 . S
H517 C525 0.930 . S
H518 C526 0.930 . S
H519 C527 0.930 . S
H520 C530 0.930 1_655 S
H521 C531 0.930 1_655 S
C522 H516 0.930 . S
C522 C523 1.355 . S
C522 C524 1.415 . S
C523 C522 1.355 . S
C523 C525 1.419 . S
C524 C522 1.415 . S
C524 C529 1.425 . S
C524 C531 1.409 . S
C525 H517 0.930 . S
C525 C523 1.419 . S
C525 C526 1.362 . S
C526 H518 0.930 . S
C526 C525 1.362 . S
C526 C529 1.409 . S
C527 H519 0.930 . S
C527 C528 1.355 . S
C527 C529 1.415 . S
C528 C527 1.355 . S
C528 C530 1.419 . S
C529 C524 1.425 . S
C529 C526 1.409 . S
C529 C527 1.415 . S
C530 H520 0.930 1_455 S
C530 C528 1.419 . S
C530 C531 1.362 . S
C531 H521 0.930 1_455 S
C531 C524 1.409 . S
C531 C530 1.362 . S
H532 C538 0.930 . S
H533 C541 0.930 . S
H534 C542 0.930 . S
H535 C543 0.930 . S
H536 C546 0.930 . S
H537 C547 0.930 . S
C538 H532 0.930 . S
C538 C539 1.355 . S
C538 C540 1.415 . S
C539 C538 1.355 . S
C539 C541 1.419 . S
C540 C538 1.415 . S
C540 C545 1.425 . S
C540 C547 1.409 . S
C541 H533 0.930 . S
C541 C539 1.419 . S
C541 C542 1.362 . S
C542 H534 0.930 . S
C542 C541 1.362 . S
C542 C545 1.409 . S
C543 H535 0.930 . S
C543 C544 1.355 . S
C543 C545 1.415 . S
C544 C543 1.355 . S
C544 C546 1.419 . S
C545 C540 1.425 . S
C545 C542 1.409 . S
C545 C543 1.415 . S
C546 H536 0.930 . S
C546 C544 1.419 . S
C546 C547 1.362 . S
C547 H537 0.930 . S
C547 C540 1.409 . S
C547 C546 1.362 . S
C171 C5 1.555 . S
C176 C90 1.534 . S
C187 C14 1.544 . S
C192 C114 1.499 . S
C208 C134 1.408 . S
C203 C25 1.387 . S
C219 C34 1.396 . S
C224 C157 1.413 . S
C240 C116 1.605 . S
C235 C7 1.635 . S
C256 C92 1.622 . S
C251 C13 1.645 . S
C272 C160 1.539 . S
C267 C23 1.562 . S
C288 C137 1.518 . S
C283 C31 1.543 . S
C299 C4 1.429 . S
C304 C162 1.395 . S
C320 C111 1.565 . S
C315 C22 1.547 . S
C331 C32 1.554 . S
C336 C89 1.564 . S
C347 C16 1.430 . S
C352 C139 1.416 . S
C368 C93 1.540 . S
C363 C41 1.572 . S
C379 C50 1.528 . S
C384 C115 1.515 . S
C395 C61 1.596 . S
C400 C135 1.632 . S
C411 C67 1.604 . S
C416 C158 1.641 . S
C427 C40 1.480 . S
C432 C113 1.493 . S
C448 C91 1.462 . S
C443 C52 1.486 . S
C464 C161 1.415 . S
C459 C59 1.474 . S
C480 C138 1.452 . S
C475 C70 1.517 . S
C491 C43 1.692 . S
C496 C159 1.685 . S
C512 C112 1.487 . S
C507 C58 1.453 . S
C528 C88 1.496 . S
C523 C68 1.463 . S
C539 C49 1.721 . S
C544 C136 1.699 . S
