# Generated by pormake.
# Topology pth, (4,4)-cn, num edge types: 1
# Building blocks:
#     Node 0, Type 0, BuildingBlock: AZAVOO_clean_sbu_0, # of connection points: 4
#     Node 1, Type 0, BuildingBlock: AZAVOO_clean_sbu_0, # of connection points: 4
#     Node 2, Type 0, BuildingBlock: AZAVOO_clean_sbu_0, # of connection points: 4
#     Node 3, Type 1, BuildingBlock: NAHDIM_clean_linker_0, # of connection points: 4
#     Node 4, Type 1, BuildingBlock: NAHDIM_clean_linker_0, # of connection points: 4
#     Node 5, Type 1, BuildingBlock: NAHDIM_clean_linker_0, # of connection points: 4
#     Edge 6, Type (0, 1), BuildingBlock: EZIPEK_clean_linker_0, # of connection points: 2
#     Edge 7, Type (0, 1), BuildingBlock: EZIPEK_clean_linker_0, # of connection points: 2
#     Edge 8, Type (0, 1), BuildingBlock: EZIPEK_clean_linker_0, # of connection points: 2
#     Edge 9, Type (0, 1), BuildingBlock: EZIPEK_clean_linker_0, # of connection points: 2
#     Edge 10, Type (0, 1), BuildingBlock: EZIPEK_clean_linker_0, # of connection points: 2
#     Edge 11, Type (0, 1), BuildingBlock: EZIPEK_clean_linker_0, # of connection points: 2
#     Edge 12, Type (0, 1), BuildingBlock: EZIPEK_clean_linker_0, # of connection points: 2
#     Edge 13, Type (0, 1), BuildingBlock: EZIPEK_clean_linker_0, # of connection points: 2
#     Edge 14, Type (0, 1), BuildingBlock: EZIPEK_clean_linker_0, # of connection points: 2
#     Edge 15, Type (0, 1), BuildingBlock: EZIPEK_clean_linker_0, # of connection points: 2
#     Edge 16, Type (0, 1), BuildingBlock: EZIPEK_clean_linker_0, # of connection points: 2
#     Edge 17, Type (0, 1), BuildingBlock: EZIPEK_clean_linker_0, # of connection points: 2
# Relax obj value: 0.087
# Max RMSD: 0.221
# Mean RMSD: 0.131
data_MOF--net-pth--node1-AZAVOO_clean_sbu_0--node2-NAHDIM_clean_linker_0--edge1-EZIPEK_clean_linker_0
_symmetry_space_group_name_H-M    P1
_symmetry_Int_Tables_number       1
_symmetry_cell_setting            triclinic
loop_
_symmetry_equiv_pos_as_xyz
'x, y, z'
_cell_length_a     25.504381
_cell_length_b     26.000613
_cell_length_c     64.3876
_cell_angle_alpha  90.549101
_cell_angle_beta   93.487211
_cell_angle_gamma 122.12813
loop_
_atom_site_label
_atom_site_type_symbol
_atom_site_fract_x
_atom_site_fract_y
_atom_site_fract_z
_atom_type_partial_charge
Mg0 Mg 0.11659 0.09187 0.07213 0.0
O1 O 0.0259 0.02698 0.05281 0.0
O2 O 0.00251 0.08149 0.03199 0.0
Mg3 Mg 0.0807 0.18156 0.0377 0.0
C4 C 0.99062 0.03075 0.03887 0.0
C5 C 0.09979 0.97194 0.08928 0.0
O6 O 0.12791 0.97287 0.07273 0.0
O7 O 0.06597 0.12191 0.09163 0.0
O8 O 0.04916 0.17963 0.07058 0.0
O9 O 0.17131 0.08544 0.04743 0.0
O10 O 0.14542 0.15424 0.04906 0.0
C11 C 0.04395 0.15521 0.08809 0.0
C12 C 0.17084 0.13063 0.03935 0.0
O13 O 0.09229 0.01526 0.09345 0.0
Mg14 Mg 0.97434 0.03874 0.3915 0.0
O15 O 0.06452 0.0743 0.41166 0.0
O16 O 0.0862 0.15809 0.42963 0.0
Mg17 Mg 7e-05 0.1654 0.42495 0.0
C18 C 0.0999 0.11943 0.42436 0.0
C19 C 0.95872 0.9278 0.36866 0.0
O20 O 0.90521 0.90544 0.3768 0.0
O21 O 0.02037 0.12084 0.37112 0.0
O22 O 0.01896 0.19053 0.39104 0.0
O23 O 0.9197 0.97528 0.41603 0.0
O24 O 0.94121 0.0694 0.41389 0.0
C25 C 0.02744 0.17288 0.37372 0.0
C26 C 0.91599 0.01956 0.42346 0.0
O27 O -0.00082 0.9843 0.37111 0.0
Mg28 Mg 0.96391 0.99752 0.71629 0.0
O29 O 0.02596 0.07515 0.74028 0.0
O30 O 0.96387 0.0962 0.75629 0.0
Mg31 Mg 0.86273 0.02064 0.74724 0.0
C32 C 0.01797 0.10879 0.75253 0.0
C33 C 0.05783 0.03965 0.68092 0.0
O34 O 0.01516 0.04213 0.66931 0.0
O35 O 0.94648 0.06213 0.69853 0.0
O36 O 0.87703 0.06866 0.71622 0.0
O37 O 0.95953 0.93054 0.73763 0.0
O38 O 0.89221 0.96022 0.73572 0.0
C39 C 0.91072 0.08176 0.70082 0.0
C40 C 0.91185 0.92847 0.74453 0.0
O41 O 0.04886 0.02339 0.69953 0.0
C42 C 0.89796 0.68947 0.35517 0.0
C43 C 0.95327 0.72039 0.3417 0.0
C44 C 0.96777 0.67619 0.31049 0.0
C45 C 0.03289 0.71138 0.31134 0.0
C46 C 0.06564 0.69444 0.29915 0.0
C47 C 0.03243 0.64146 0.28581 0.0
C48 C 0.96665 0.60668 0.28462 0.0
C49 C 0.93527 0.62515 0.2968 0.0
C50 C 0.13561 0.73306 0.30045 0.0
C51 C 0.92934 0.54953 0.27073 0.0
C52 C 0.08243 0.27453 0.32648 0.0
C53 C 0.08225 0.30924 0.30812 0.0
C54 C 0.12362 0.41489 0.29956 0.0
C55 C 0.07512 0.40054 0.2844 0.0
C56 C 0.06829 0.44602 0.2758 0.0
C57 C 0.1136 0.50793 0.28126 0.0
C58 C 0.16401 0.52283 0.29586 0.0
C59 C 0.16794 0.47596 0.30501 0.0
C60 C 0.01195 0.42698 0.26097 0.0
C61 C 0.21345 0.58814 0.30189 0.0
C62 C 0.08901 0.41023 0.15264 0.0
C63 C 0.04184 0.39789 0.1656 0.0
C64 C 0.03974 0.44518 0.17519 0.0
C65 C 0.08697 0.50627 0.1722 0.0
C66 C 0.13342 0.5189 0.15858 0.0
C67 C 0.13321 0.47043 0.14868 0.0
C68 C 0.98719 0.42949 0.18869 0.0
C69 C 0.18386 0.58338 0.15487 0.0
C70 C 0.88585 0.78511 0.13806 0.0
C71 C 0.94466 0.78365 0.14291 0.0
C72 C 0.9599 0.70161 0.15233 0.0
C73 C 0.92522 0.64771 0.1625 0.0
C74 C 0.95424 0.62204 0.17349 0.0
C75 C 0.01971 0.65148 0.17429 0.0
C76 C 0.05485 0.70513 0.16348 0.0
C77 C 0.02435 0.72906 0.1523 0.0
C78 C 0.91486 0.56329 0.18409 0.0
C79 C 0.1245 0.73677 0.16356 0.0
C80 C 0.06597 0.6213 0.27334 0.0
C81 C 0.08507 0.58517 0.28291 0.0
C82 C 0.10782 0.55631 0.27136 0.0
C83 C 0.11308 0.56481 0.24977 0.0
C84 C 0.13613 0.53683 0.23772 0.0
C85 C 0.13073 0.53621 0.21612 0.0
C86 C 0.10312 0.56449 0.20587 0.0
C87 C 0.08835 0.55605 0.18414 0.0
C88 C 0.06371 0.58702 0.17424 0.0
C89 C 0.05103 0.62465 0.18568 0.0
C90 C 0.06203 0.63074 0.20763 0.0
C91 C 0.04657 0.66536 0.21979 0.0
C92 C 0.05014 0.66441 0.24144 0.0
C93 C 0.06993 0.62935 0.25168 0.0
C94 C 0.09159 0.59926 0.2398 0.0
C95 C 0.08705 0.59947 0.21775 0.0
C96 C 0.1487 0.32561 0.15776 0.0
C97 C 0.08322 0.31354 0.15269 0.0
O98 O 0.93449 0.69035 0.32231 0.0
O99 O 0.92938 0.72396 0.14173 0.0
O100 O 0.0917 0.3649 0.14321 0.0
O101 O 0.12696 0.37115 0.30997 0.0
H102 H 0.98822 0.71252 0.3495 0.0
H103 H 0.88182 0.64068 0.35636 0.0
H104 H 0.8587 0.6924 0.34822 0.0
H105 H 0.91151 0.71121 0.37115 0.0
H106 H 0.05812 0.75242 0.32125 0.0
H107 H 0.88496 0.59889 0.29606 0.0
H108 H 0.1548 0.70626 0.30673 0.0
H109 H 0.15446 0.77493 0.31059 0.0
H110 H 0.15182 0.74615 0.28462 0.0
H111 H 0.87904 0.52456 0.27321 0.0
H112 H 0.9465 0.51874 0.27361 0.0
H113 H 0.935 0.56137 0.25416 0.0
H114 H 0.08117 0.28884 0.29265 0.0
H115 H -0.00221 0.2443 0.33778 0.0
H116 H 0.12773 0.30499 0.33598 0.0
H117 H 0.09572 0.24257 0.32047 0.0
H118 H 0.04131 0.35369 0.27947 0.0
H119 H 0.20533 0.48682 0.31666 0.0
H120 H 0.0243 0.42734 0.24473 0.0
H121 H 0.99503 0.4582 0.26252 0.0
H122 H 0.97318 0.38013 0.26364 0.0
H123 H 0.25321 0.59223 0.31156 0.0
H124 H 0.19311 0.6091 0.31088 0.0
H125 H 0.23093 0.61434 0.28772 0.0
H126 H 0.0608 0.30674 0.16753 0.0
H127 H 0.00587 0.35128 0.16799 0.0
H128 H 0.16869 0.47931 0.13828 0.0
H129 H 0.00425 0.43534 0.20533 0.0
H130 H 0.94784 0.38168 0.18568 0.0
H131 H 0.96966 0.46006 0.18603 0.0
H132 H 0.21857 0.58549 0.14471 0.0
H133 H 0.20807 0.60813 0.16998 0.0
H134 H 0.16286 0.60732 0.14743 0.0
H135 H 0.95782 0.80065 0.1594 0.0
H136 H 0.89724 0.83274 0.1391 0.0
H137 H 0.85158 0.7589 0.14959 0.0
H138 H 0.86347 0.76486 0.12232 0.0
H139 H 0.8752 0.62596 0.16188 0.0
H140 H 0.05091 0.76827 0.14324 0.0
H141 H 0.92499 0.57146 0.20122 0.0
H142 H 0.92627 0.52948 0.17924 0.0
H143 H 0.86439 0.54355 0.18043 0.0
H144 H 0.14561 0.78087 0.1559 0.0
H145 H 0.13633 0.70704 0.15528 0.0
H146 H 0.14545 0.74506 0.17983 0.0
H147 H 0.07825 0.57614 0.29926 0.0
H148 H 0.15605 0.51282 0.24485 0.0
H149 H 0.14662 0.51169 0.20752 0.0
H150 H 0.05113 0.57922 0.1576 0.0
H151 H 0.02934 0.69166 0.21267 0.0
H152 H 0.03547 0.69 0.25005 0.0
H153 H 0.17101 0.32844 0.14315 0.0
H154 H 0.14856 0.29027 0.16724 0.0
H155 H 0.17791 0.36959 0.16688 0.0
C156 C 0.31987 0.0819 0.68934 0.0
C157 C 0.30251 0.0961 0.66783 0.0
C158 C 0.3675 0.09015 0.64215 0.0
C159 C 0.41068 0.15254 0.64024 0.0
C160 C 0.46346 0.1721 0.62921 0.0
C161 C 0.47317 0.12851 0.62006 0.0
C162 C 0.42973 0.06576 0.62197 0.0
C163 C 0.37705 0.04757 0.63276 0.0
C164 C 0.50861 0.23928 0.62718 0.0
C165 C 0.43895 0.01775 0.61273 0.0
C166 C 0.98008 0.30306 0.63584 0.0
C167 C 0.91559 0.24985 0.64031 0.0
C168 C 0.81807 0.24605 0.64057 0.0
C169 C 0.77717 0.18291 0.63735 0.0
C170 C 0.7157 0.15846 0.62922 0.0
C171 C 0.69568 0.19821 0.62365 0.0
C172 C 0.73558 0.26148 0.6283 0.0
C173 C 0.79616 0.28447 0.63702 0.0
C174 C 0.6733 0.09048 0.62559 0.0
C175 C 0.71527 0.30509 0.62309 0.0
C176 C 0.74181 0.07697 0.5037 0.0
C177 C 0.68731 0.03202 0.51215 0.0
C178 C 0.64296 0.04449 0.51789 0.0
C179 C 0.65358 0.1032 0.51526 0.0
C180 C 0.70752 0.14806 0.50623 0.0
C181 C 0.75133 0.13443 0.50073 0.0
C182 C 0.58588 0.99562 0.52758 0.0
C183 C 0.71988 0.21092 0.50321 0.0
C184 C 0.26877 0.01579 0.43924 0.0
C185 C 0.27944 0.06562 0.4552 0.0
C186 C 0.38001 0.1081 0.47548 0.0
C187 C 0.36701 0.05546 0.48573 0.0
C188 C 0.40969 0.05756 0.50114 0.0
C189 C 0.46579 0.11348 0.5066 0.0
C190 C 0.478 0.16673 0.49672 0.0
C191 C 0.43521 0.1631 0.48112 0.0
C192 C 0.39582 -0.0002 0.51115 0.0
C193 C 0.53714 0.22728 0.50223 0.0
C194 C 0.52906 0.14783 0.60874 0.0
C195 C 0.58452 0.16523 0.62046 0.0
C196 C 0.63643 0.17508 0.61079 0.0
C197 C 0.63199 0.16407 0.58901 0.0
C198 C 0.68127 0.16782 0.57897 0.0
C199 C 0.67462 0.15252 0.55785 0.0
C200 C 0.61994 0.1367 0.5457 0.0
C201 C 0.61186 0.11906 0.5244 0.0
C202 C 0.56046 0.11043 0.51218 0.0
C203 C 0.51478 0.11593 0.52101 0.0
C204 C 0.51833 0.12618 0.54283 0.0
C205 C 0.47006 0.12504 0.5527 0.0
C206 C 0.47314 0.13181 0.57435 0.0
C207 C 0.52594 0.143 0.58676 0.0
C208 C 0.57671 0.14861 0.57697 0.0
C209 C 0.57179 0.13755 0.55513 0.0
C210 C 0.79994 0.98837 0.51285 0.0
C211 C 0.78102 0.01259 0.494 0.0
O212 O 0.31493 0.06827 0.65216 0.0
O213 O 0.34209 0.10788 0.45966 0.0
O214 O 0.78727 0.06761 0.49894 0.0
O215 O 0.87928 0.27147 0.64642 0.0
H216 H 0.33257 0.14606 0.66782 0.0
H217 H 0.37061 0.10076 0.69111 0.0
H218 H 0.29569 0.03258 0.69181 0.0
H219 H 0.3086 0.10361 0.70179 0.0
H220 H 0.40335 0.18641 0.64677 0.0
H221 H 0.34313 -0.00039 0.63417 0.0
H222 H 0.55343 0.2533 0.63594 0.0
H223 H 0.49126 0.26718 0.6333 0.0
H224 H 0.51783 0.24906 0.61059 0.0
H225 H 0.40512 0.97163 0.61788 0.0
H226 H 0.48668 0.02857 0.61713 0.0
H227 H 0.43325 0.01689 0.59548 0.0
H228 H 0.89392 0.22432 0.62513 0.0
H229 H 0.00771 0.28581 0.62947 0.0
H230 H 0.0062 0.33211 0.65005 0.0
H231 H 0.97542 0.33165 0.62408 0.0
H232 H 0.79342 0.1528 0.64082 0.0
H233 H 0.82787 0.33301 0.64001 0.0
H234 H 0.62584 0.07504 0.62999 0.0
H235 H 0.69091 0.0657 0.63457 0.0
H236 H 0.6698 0.0782 0.60879 0.0
H237 H 0.75196 0.35301 0.62767 0.0
H238 H 0.6732 0.29277 0.6312 0.0
H239 H 0.7028 0.30161 0.60608 0.0
H240 H 0.73158 0.97654 0.49033 0.0
H241 H 0.67995 0.9878 0.51498 0.0
H242 H 0.79366 0.16884 0.49425 0.0
H243 H 0.58826 0.00868 0.54424 0.0
H244 H 0.58136 0.95072 0.52662 0.0
H245 H 0.54349 0.99103 0.51975 0.0
H246 H 0.76186 0.23942 0.49467 0.0
H247 H 0.72632 0.23384 0.51864 0.0
H248 H 0.67926 0.20776 0.49448 0.0
H249 H 0.25797 0.04028 0.46918 0.0
H250 H 0.28143 0.98514 0.44669 0.0
H251 H 0.21895 0.9877 0.43351 0.0
H252 H 0.29724 0.03435 0.42577 0.0
H253 H 0.32474 0.01236 0.48141 0.0
H254 H 0.44482 0.2034 0.47314 0.0
H255 H 0.3976 0.00567 0.52832 0.0
H256 H 0.43182 0.98991 0.50771 0.0
H257 H 0.3495 0.96013 0.50555 0.0
H258 H 0.53703 0.2653 0.49455 0.0
H259 H 0.57736 0.22577 0.49738 0.0
H260 H 0.54388 0.23671 0.51937 0.0
H261 H 0.58704 0.17032 0.6373 0.0
H262 H 0.72488 0.18068 0.58738 0.0
H263 H 0.71327 0.15408 0.55111 0.0
H264 H 0.55583 0.09907 0.49564 0.0
H265 H 0.42863 0.11688 0.54385 0.0
H266 H 0.43397 0.12875 0.58127 0.0
H267 H 0.79722 0.94576 0.50811 0.0
H268 H 0.76736 0.97759 0.52515 0.0
H269 H 0.84717 0.02083 0.52003 0.0
C270 C 0.8952 0.74484 0.80634 0.0
C271 C 0.83602 0.74674 0.80379 0.0
C272 C 0.75504 0.71454 0.8269 0.0
C273 C 0.72127 0.7425 0.82807 0.0
C274 C 0.65891 0.70892 0.83271 0.0
C275 C 0.63105 0.64669 0.83682 0.0
C276 C 0.66495 0.6181 0.83504 0.0
C277 C 0.72678 0.65254 0.82998 0.0
C278 C 0.62366 0.74031 0.83413 0.0
C279 C 0.63671 0.55181 0.83935 0.0
C280 C 0.16738 0.38441 0.77162 0.0
C281 C 0.20497 0.35696 0.77931 0.0
C282 C 0.28509 0.41703 0.80682 0.0
C283 C 0.33184 0.40433 0.80635 0.0
C284 C 0.39101 0.44447 0.81636 0.0
C285 C 0.40325 0.49857 0.8267 0.0
C286 C 0.35697 0.51315 0.82584 0.0
C287 C 0.29791 0.47139 0.81627 0.0
C288 C 0.43914 0.42749 0.8169 0.0
C289 C 0.36868 0.57124 0.83603 0.0
C290 C 0.31989 0.33851 0.94954 0.0
C291 C 0.37394 0.34791 0.94138 0.0
C292 C 0.41933 0.4053 0.93522 0.0
C293 C 0.4098 0.45405 0.93677 0.0
C294 C 0.35535 0.44485 0.94487 0.0
C295 C 0.31077 0.38684 0.95108 0.0
C296 C 0.4768 0.41331 0.9265 0.0
C297 C 0.34381 0.49587 0.94646 0.0
C298 C 0.81532 0.87001 0.96472 0.0
C299 C 0.78516 0.85031 0.98556 0.0
C300 C 0.70515 0.74469 0.97468 0.0
C301 C 0.69713 0.68741 0.97236 0.0
C302 C 0.64889 0.64168 0.95893 0.0
C303 C 0.60656 0.65325 0.94807 0.0
C304 C 0.61291 0.71038 0.95101 0.0
C305 C 0.66244 0.75569 0.96414 0.0
C306 C 0.64394 0.58153 0.95608 0.0
C307 C 0.56763 0.72384 0.94017 0.0
C308 C 0.57015 0.61331 0.84585 0.0
C309 C 0.51658 0.57588 0.83269 0.0
C310 C 0.46014 0.53525 0.84096 0.0
C311 C 0.45775 0.53007 0.86278 0.0
C312 C 0.40398 0.48464 0.87157 0.0
C313 C 0.4028 0.47896 0.893 0.0
C314 C 0.45458 0.51975 0.90648 0.0
C315 C 0.45494 0.51271 0.92817 0.0
C316 C 0.50429 0.55721 0.94141 0.0
C317 C 0.55627 0.6063 0.93331 0.0
C318 C 0.56007 0.60964 0.91148 0.0
C319 C 0.61477 0.65329 0.90274 0.0
C320 C 0.61845 0.6544 0.88126 0.0
C321 C 0.56672 0.61359 0.86767 0.0
C322 C 0.51068 0.57074 0.87615 0.0
C323 C 0.50817 0.56721 0.89805 0.0
C324 C 0.26149 0.18653 0.94626 0.0
C325 C 0.28357 0.23811 0.96297 0.0
O326 O 0.81541 0.74787 0.82301 0.0
O327 O 0.75464 0.78786 0.98713 0.0
O328 O 0.27516 0.28339 0.95569 0.0
O329 O 0.22595 0.37478 0.79996 0.0
H330 H 0.80254 0.70308 0.79496 0.0
H331 H 0.88436 0.70169 0.81337 0.0
H332 H 0.93253 0.78278 0.81657 0.0
H333 H 0.91294 0.74632 0.79087 0.0
H334 H 0.74399 0.7906 0.82541 0.0
H335 H 0.7538 0.63171 0.82893 0.0
H336 H 0.57754 0.71292 0.82531 0.0
H337 H 0.64922 0.78659 0.82801 0.0
H338 H 0.61558 0.74423 0.85066 0.0
H339 H 0.66818 0.53574 0.8362 0.0
H340 H 0.59245 0.52356 0.82958 0.0
H341 H 0.62585 0.5446 0.8559 0.0
H342 H 0.2453 0.37761 0.76967 0.0
H343 H 0.15193 0.37152 0.75484 0.0
H344 H 0.19683 0.43481 0.77341 0.0
H345 H 0.12586 0.36887 0.78044 0.0
H346 H 0.32093 0.36168 0.79905 0.0
H347 H 0.26107 0.48045 0.81649 0.0
H348 H 0.45425 0.42588 0.83329 0.0
H349 H 0.48059 0.46271 0.80938 0.0
H350 H 0.42149 0.38274 0.80874 0.0
H351 H 0.33408 0.58214 0.83003 0.0
H352 H 0.41598 0.60998 0.83341 0.0
H353 H 0.36548 0.56621 0.85308 0.0
H354 H 0.33357 0.25502 0.96597 0.0
H355 H 0.38051 0.31041 0.93934 0.0
H356 H 0.26857 0.37893 0.95721 0.0
H357 H 0.47527 0.42019 0.90954 0.0
H358 H 0.48083 0.37323 0.9288 0.0
H359 H 0.51913 0.45418 0.93396 0.0
H360 H 0.29962 0.48165 0.9535 0.0
H361 H 0.34222 0.51221 0.9307 0.0
H362 H 0.38274 0.53471 0.95604 0.0
H363 H 0.75138 0.86476 0.9853 0.0
H364 H 0.84466 0.92041 0.96464 0.0
H365 H 0.77891 0.85405 0.95163 0.0
H366 H 0.84423 0.85108 0.96162 0.0
H367 H 0.73004 0.67921 0.98068 0.0
H368 H 0.66703 0.79926 0.96613 0.0
H369 H 0.63955 0.56904 0.93924 0.0
H370 H 0.60155 0.54546 0.96295 0.0
H371 H 0.68475 0.5824 0.96365 0.0
H372 H 0.57354 0.76675 0.94641 0.0
H373 H 0.51912 0.68598 0.94182 0.0
H374 H 0.57476 0.72805 0.92329 0.0
H375 H 0.51919 0.57746 0.81594 0.0
H376 H 0.3627 0.45189 0.86199 0.0
H377 H 0.3606 0.4425 0.89889 0.0
H378 H 0.50331 0.5523 0.95812 0.0
H379 H 0.65586 0.68599 0.91242 0.0
H380 H 0.66225 0.68812 0.87547 0.0
H381 H 0.26357 0.14843 0.95302 0.0
H382 H 0.29263 0.20349 0.93333 0.0
H383 H 0.21387 0.16861 0.93929 0.0
C384 C 0.00194 0.21607 0.10259 0.0
C385 C 0.02081 0.17402 0.10568 0.0
C386 C 0.03945 0.20099 0.1429 0.0
C387 C 0.04311 0.25606 0.13834 0.0
N388 N 0.98525 0.29069 0.11865 0.0
N389 N 0.02242 0.10536 0.13049 0.0
C390 C 0.01121 0.2564 0.11952 0.0
C391 C 0.02799 0.15935 0.1264 0.0
N392 N 0.97411 0.21606 0.08381 0.0
N393 N 0.04464 0.18628 0.16281 0.0
H394 H 0.0052 0.06999 0.11916 0.0
H395 H 0.02988 0.09455 0.14551 0.0
H396 H 0.04854 0.21254 0.17586 0.0
H397 H 0.04854 0.21254 0.17586 0.0
H398 H 0.96638 0.25009 0.07948 0.0
H399 H 0.95716 0.1802 0.07269 0.0
H400 H 0.95963 0.29193 0.10569 0.0
H401 H 0.98279 0.31199 0.132 0.0
C402 C 0.91518 0.04671 0.46054 0.0
C403 C 0.88182 0.01341 0.44188 0.0
C404 C 0.78482 0.99199 0.45539 0.0
C405 C 0.81741 0.01977 0.47505 0.0
N406 N 0.91864 0.09486 0.49243 0.0
N407 N 0.78418 0.94784 0.42198 0.0
C408 C 0.8836 0.05309 0.4766 0.0
C409 C 0.81635 0.98381 0.43948 0.0
N410 N 0.9779 0.07261 0.46314 0.0
N411 N 0.72575 0.97924 0.45113 0.0
H412 H 0.80579 0.94219 0.4097 0.0
H413 H 0.73597 0.91945 0.42043 0.0
H414 H 0.70408 0.99272 0.46112 0.0
H415 H 0.70159 0.96366 0.43654 0.0
H416 H 0.00408 0.09732 0.47677 0.0
H417 H 0.00249 0.06596 0.45219 0.0
H418 H 0.90093 0.10882 0.50385 0.0
H419 H 0.90093 0.10882 0.50385 0.0
C420 C 0.91623 0.90534 0.78177 0.0
C421 C 0.882 0.89052 0.76215 0.0
C422 C 0.80398 0.7909 0.77391 0.0
C423 C 0.84508 0.80081 0.79157 0.0
N424 N 0.92139 0.87665 0.81715 0.0
N425 N 0.79174 0.82133 0.73941 0.0
C426 C 0.89548 0.86108 0.79711 0.0
C427 C 0.82451 0.83454 0.75838 0.0
N428 N 0.97011 0.96084 0.78531 0.0
N429 N 0.74455 0.74138 0.77246 0.0
H430 H 0.8041 0.85284 0.72789 0.0
H431 H 0.75423 0.7782 0.73463 0.0
H432 H 0.72631 0.71082 0.78424 0.0
H433 H 0.71083 0.73459 0.7609 0.0
H434 H 0.002 0.97185 0.79805 0.0
H435 H 0.98422 0.99548 0.77487 0.0
H436 H 0.95449 0.92096 0.82254 0.0
H437 H 0.90522 0.84656 0.82911 0.0
C438 C 0.0177 0.86293 0.09321 0.0
C439 C 0.07011 0.91791 0.10197 0.0
C440 C 0.05219 0.8765 0.13672 0.0
C441 C 0.99505 0.82437 0.12834 0.0
N442 N 0.93933 0.75787 0.09763 0.0
N443 N 0.14008 0.97784 0.1314 0.0
C444 C 0.983 0.81421 0.10627 0.0
C445 C 0.08863 0.92448 0.12352 0.0
N446 N -0.00255 0.85897 0.07272 0.0
N447 N 0.07355 0.87864 0.15694 0.0
H448 H 0.17052 0.01167 0.12194 0.0
H449 H 0.15156 0.99013 0.14721 0.0
H450 H 0.05199 0.84269 0.16675 0.0
H451 H 0.11686 0.91284 0.16351 0.0
H452 H 0.95446 0.8237 0.06624 0.0
H453 H 0.02096 0.89319 0.0624 0.0
H454 H 0.93457 0.74645 0.08179 0.0
H455 H 0.91173 0.72035 0.10619 0.0
C456 C 0.16964 0.12438 0.45497 0.0
C457 C 0.15841 0.12565 0.43314 0.0
C458 C 0.24778 0.11702 0.42746 0.0
C459 C 0.24703 0.09883 0.44822 0.0
N460 N 0.2268 0.11388 0.48348 0.0
N461 N 0.19205 0.1312 0.39855 0.0
C462 C 0.21451 0.11151 0.46249 0.0
C463 C 0.19954 0.12495 0.41938 0.0
N464 N 0.13708 0.13423 0.46883 0.0
N465 N 0.29678 0.13102 0.4161 0.0
H466 H 0.16115 0.14282 0.39235 0.0
H467 H 0.21491 0.12277 0.38742 0.0
H468 H 0.33612 0.13261 0.42255 0.0
H469 H 0.30227 0.14887 0.40141 0.0
H470 H 0.14271 0.13104 0.48487 0.0
H471 H 0.10658 0.14792 0.46456 0.0
H472 H 0.26262 0.11039 0.49057 0.0
H473 H 0.26262 0.11039 0.49057 0.0
C474 C 0.12349 0.20502 0.74943 0.0
C475 C 0.07294 0.16707 0.76151 0.0
C476 C 0.11342 0.25024 0.78802 0.0
C477 C 0.16565 0.28729 0.77623 0.0
N478 N 0.23199 0.2839 0.75153 0.0
N479 N 0.03562 0.14718 0.79586 0.0
C480 C 0.17472 0.25951 0.75887 0.0
C481 C 0.07308 0.18756 0.782 0.0
N482 N 0.12176 0.19237 0.72866 0.0
N483 N 0.09997 0.2741 0.80436 0.0
H484 H 0.00786 0.1005 0.79225 0.0
H485 H 0.03805 0.15914 0.81155 0.0
H486 H 0.12696 0.31906 0.81 0.0
H487 H 0.05835 0.24951 0.81146 0.0
H488 H 0.1564 0.22225 0.71933 0.0
H489 H 0.08313 0.15685 0.72012 0.0
H490 H 0.24032 0.26251 0.73954 0.0
H491 H 0.27232 0.31942 0.75943 0.0
C492 C 0.89979 0.10829 0.66429 0.0
C493 C 0.91218 0.12505 0.6858 0.0
C494 C 0.93012 0.22535 0.67838 0.0
C495 C 0.92019 0.20927 0.65654 0.0
N496 N 0.92189 0.14406 0.62966 0.0
N497 N 0.95636 0.20496 0.71285 0.0
C498 C 0.91296 0.15336 0.64973 0.0
C499 C 0.932 0.18505 0.69276 0.0
N500 N 0.87421 0.04899 0.65767 0.0
N501 N 0.9381 0.27885 0.68562 0.0
H502 H 0.96032 0.17763 0.72377 0.0
H503 H 0.97852 0.25029 0.71815 0.0
H504 H 0.94547 0.31414 0.67629 0.0
H505 H 0.93522 0.2875 0.70121 0.0
H506 H 0.85846 0.03354 0.6422 0.0
H507 H 0.86292 0.01428 0.66789 0.0
H508 H 0.92191 0.10585 0.62463 0.0
H509 H 0.93798 0.1776 0.61879 0.0
C510 C 0.87545 0.96466 0.0313 0.0
C511 C 0.93515 0.9742 0.02955 0.0
C512 C 0.88964 0.88396 0.00575 0.0
C513 C 0.83317 0.88274 0.00418 0.0
N514 N 0.76418 0.89793 0.02351 0.0
N515 N -0.00028 0.94114 0.01616 0.0
C516 C 0.8234 0.91587 0.01946 0.0
C517 C 0.94222 0.93239 0.01752 0.0
N518 N 0.86889 0.0032 0.04391 0.0
N519 N 0.89219 0.83753 -0.00318 0.0
H520 H 0.03922 0.97391 0.02516 0.0
H521 H 0.00924 0.91798 0.00525 0.0
H522 H 0.85393 0.79991 0.98892 0.0
H523 H 0.92997 0.83256 -0.00079 0.0
H524 H 0.82845 0.00389 0.04381 0.0
H525 H 0.90511 0.03646 0.05399 0.0
H526 H 0.75347 0.91725 0.03546 0.0
H527 H 0.72542 0.85831 0.01664 0.0
C528 C 0.93478 0.85431 0.33888 0.0
C529 C 0.97176 0.88655 0.35735 0.0
C530 C 0.0222 0.82856 0.35674 0.0
C531 C 0.97666 0.78845 0.34097 0.0
N532 N 0.91484 0.78371 0.31021 0.0
N533 N 0.05167 0.90586 0.38407 0.0
C534 C 0.94033 0.80741 0.32988 0.0
C535 C 0.01706 0.87533 0.36603 0.0
N536 N 0.89314 0.86752 0.33031 0.0
N537 N 0.07122 0.82275 0.36239 0.0
H538 H 0.04971 0.94063 0.39141 0.0
H539 H 0.07934 0.89405 0.39265 0.0
H540 H 0.07844 0.79162 0.35489 0.0
H541 H 0.10882 0.85353 0.37252 0.0
H542 H 0.85863 0.84042 0.31867 0.0
H543 H 0.89129 0.90459 0.33555 0.0
H544 H 0.89064 0.7979 0.30084 0.0
H545 H 0.92598 0.75683 0.30187 0.0
C546 C 0.16112 0.11004 0.66706 0.0
C547 C 0.1148 0.05077 0.67222 0.0
C548 C 0.1851 0.01525 0.66784 0.0
C549 C 0.23415 0.07638 0.66514 0.0
N550 N 0.25743 0.17137 0.65087 0.0
N551 N 0.07794 0.94409 0.67357 0.0
C552 C 0.21875 0.12075 0.66123 0.0
C553 C 0.12527 0.00261 0.67116 0.0
N554 N 0.15156 0.15683 0.66878 0.0
N555 N 0.19286 0.96738 0.66689 0.0
H556 H 0.03236 0.93211 0.67517 0.0
H557 H 0.0841 0.90748 0.67332 0.0
H558 H 0.23357 0.97017 0.66331 0.0
H559 H 0.23357 0.97017 0.66331 0.0
H560 H 0.18675 0.20223 0.66772 0.0
H561 H 0.10967 0.15075 0.67278 0.0
H562 H 0.24619 0.20292 0.64632 0.0
H563 H 0.29631 0.17719 0.64415 0.0
C564 C 0.16131 0.14441 0.00129 0.0
C565 C 0.19961 0.15601 0.01976 0.0
C566 C 0.28983 0.23353 0.00258 0.0
C567 C 0.25252 0.21652 0.98339 0.0
N568 N 0.14714 0.17458 0.96788 0.0
N569 N 0.30135 0.20776 0.03797 0.0
C570 C 0.18699 0.17789 0.98365 0.0
C571 C 0.26426 0.19949 0.02041 0.0
N572 N 0.0997 0.10044 0.00034 0.0
N573 N 0.34765 0.2855 0.00427 0.0
H574 H 0.284 0.1847 0.0515 0.0
H575 H 0.34967 0.23355 0.0386 0.0
H576 H 0.36487 0.31591 0.99238 0.0
H577 H 0.37507 0.3031 0.01825 0.0
H578 H 0.06976 0.09071 0.98705 0.0
H579 H 0.08029 0.07123 0.01235 0.0
H580 H 0.16067 0.2026 0.95527 0.0
H581 H 0.16067 0.2026 0.95527 0.0
C582 C -0.00413 0.17077 0.33019 0.0
C583 C 0.03407 0.20976 0.35561 0.0
C584 C 0.04736 0.33193 0.34113 0.0
C585 C 0.02404 0.29495 0.31447 0.0
N586 N 0.9562 0.18529 0.29058 0.0
N587 N 0.0853 0.31667 0.38006 0.0
C588 C 0.98435 0.21156 0.30949 0.0
C589 C 0.05819 0.28903 0.36116 0.0
N590 N 0.97327 0.11087 0.32671 0.0
N591 N 0.06047 0.38896 0.34474 0.0
H592 H 0.09754 0.29579 0.39139 0.0
H593 H 0.09877 0.36158 0.38332 0.0
H594 H 0.0541 0.412 0.33265 0.0
H595 H 0.07527 0.41022 0.35958 0.0
H596 H 0.95073 0.08899 0.31236 0.0
H597 H 0.97799 0.08439 0.3377 0.0
H598 H 0.93622 0.13896 0.2873 0.0
H599 H 0.95389 0.21172 0.2789 0.0
loop_
_geom_bond_atom_site_label_1
_geom_bond_atom_site_label_2
_geom_bond_distance
_geom_bond_site_symmetry_2
_ccdc_geom_bond_type
Mg0 O1 2.028 . S
Mg0 O7 1.986 . S
Mg0 O9 2.114 . S
Mg0 O10 2.251 . S
Mg0 O13 2.010 . S
O1 Mg0 2.028 . S
O1 C4 1.250 1_455 S
O2 Mg3 2.028 1_655 S
O2 C4 1.248 . S
Mg3 O2 2.028 1_455 S
Mg3 O8 2.032 . S
Mg3 O10 2.079 . S
C4 O1 1.250 1_655 S
C4 O2 1.248 . S
C5 O6 1.264 1_565 S
C5 O13 1.249 1_565 S
O6 C5 1.264 1_545 S
O7 Mg0 1.986 . S
O7 C11 1.246 . S
O8 Mg3 2.032 . S
O8 C11 1.259 . S
O9 Mg0 2.114 . S
O9 C12 1.252 . S
O10 Mg0 2.251 . S
O10 Mg3 2.079 . S
O10 C12 1.273 . S
C11 O7 1.246 . S
C11 O8 1.259 . S
C12 O9 1.252 . S
C12 O10 1.273 . S
O13 Mg0 2.010 . S
O13 C5 1.249 1_545 S
Mg14 O15 2.028 1_655 S
Mg14 O21 1.986 1_655 S
Mg14 O23 2.114 1_545 S
Mg14 O24 2.251 . S
Mg14 O27 2.010 1_545 S
O15 Mg14 2.028 1_455 S
O15 C18 1.250 . S
O16 Mg17 2.028 . S
O16 C18 1.248 . S
Mg17 O16 2.028 . S
Mg17 O22 2.032 . S
Mg17 O24 2.079 1_455 S
C18 O15 1.250 . S
C18 O16 1.248 . S
C19 O20 1.264 . S
C19 O27 1.249 . S
O20 C19 1.264 . S
O21 Mg14 1.986 1_455 S
O21 C25 1.246 . S
O22 Mg17 2.032 . S
O22 C25 1.259 . S
O23 Mg14 2.114 1_565 S
O23 C26 1.252 1_565 S
O24 Mg14 2.251 . S
O24 Mg17 2.079 1_655 S
O24 C26 1.273 . S
C25 O21 1.246 . S
C25 O22 1.259 . S
C26 O23 1.252 1_545 S
C26 O24 1.273 . S
O27 Mg14 2.010 1_565 S
O27 C19 1.249 . S
Mg28 O29 2.028 . S
Mg28 O35 1.986 1_455 S
Mg28 O37 2.114 1_545 S
Mg28 O38 2.251 1_455 S
Mg28 O41 2.010 . S
O29 Mg28 2.028 . S
O29 C32 1.250 . S
O30 Mg31 2.028 1_455 S
O30 C32 1.248 . S
Mg31 O30 2.028 1_655 S
Mg31 O36 2.032 . S
Mg31 O38 2.079 . S
C32 O29 1.250 . S
C32 O30 1.248 . S
C33 O34 1.264 1_545 S
C33 O41 1.249 . S
O34 C33 1.264 1_565 S
O35 Mg28 1.986 1_655 S
O35 C39 1.246 . S
O36 Mg31 2.032 . S
O36 C39 1.259 . S
O37 Mg28 2.114 1_565 S
O37 C40 1.252 1_455 S
O38 Mg28 2.251 1_655 S
O38 Mg31 2.079 . S
O38 C40 1.273 1_545 S
C39 O35 1.246 . S
C39 O36 1.259 . S
C40 O37 1.252 1_655 S
C40 O38 1.273 1_565 S
O41 Mg28 2.010 . S
O41 C33 1.249 . S
C42 C43 1.560 . S
C42 H103 0.959 . S
C42 H104 0.959 . S
C42 H105 0.960 . S
C43 C42 1.560 . S
C43 O98 1.426 . S
C43 H102 0.980 1_655 S
C44 C45 1.407 1_655 S
C44 C49 1.418 . S
C44 O98 1.334 . S
C45 C44 1.407 1_455 S
C45 C46 1.360 . S
C45 H106 0.929 . S
C46 C45 1.360 . S
C46 C47 1.401 . S
C46 C50 1.527 . S
C47 C46 1.401 . S
C47 C48 1.405 1_455 S
C47 C80 1.587 . S
C48 C47 1.405 1_655 S
C48 C49 1.332 . S
C48 C51 1.496 . S
C49 C44 1.418 . S
C49 C48 1.332 . S
C49 H107 0.929 . S
C50 C46 1.527 . S
C50 H108 0.959 . S
C50 H109 0.961 . S
C50 H110 0.961 . S
C51 C48 1.496 . S
C51 H111 0.960 . S
C51 H112 0.960 . S
C51 H113 0.961 . S
C52 C53 1.517 . S
C52 H115 0.961 . S
C52 H116 0.960 . S
C52 H117 0.959 . S
C53 C52 1.517 . S
C53 O101 1.468 . S
C53 H114 0.980 . S
C54 C55 1.349 . S
C54 C59 1.367 . S
C54 O101 1.408 . S
C55 C54 1.349 . S
C55 C56 1.407 . S
C55 H118 0.930 . S
C56 C55 1.407 . S
C56 C57 1.449 . S
C56 C60 1.535 1_455 S
C57 C56 1.449 . S
C57 C58 1.384 . S
C57 C82 1.553 . S
C58 C57 1.384 . S
C58 C59 1.364 . S
C58 C61 1.450 . S
C59 C54 1.367 . S
C59 C58 1.364 . S
C59 H119 0.931 . S
C60 C56 1.535 1_655 S
C60 H120 0.959 . S
C60 H121 0.961 . S
C60 H122 0.959 . S
C61 C58 1.450 . S
C61 H123 0.960 . S
C61 H124 0.960 . S
C61 H125 0.960 . S
C62 C63 1.309 . S
C62 C67 1.304 . S
C62 O100 1.435 . S
C63 C62 1.309 . S
C63 C64 1.476 . S
C63 H127 0.930 . S
C64 C63 1.476 . S
C64 C65 1.400 . S
C64 C68 1.567 1_455 S
C65 C64 1.400 . S
C65 C66 1.373 . S
C65 C87 1.432 . S
C66 C65 1.373 . S
C66 C67 1.339 . S
C66 C69 1.530 . S
C67 C62 1.304 . S
C67 C66 1.339 . S
C67 H128 0.930 . S
C68 C64 1.567 1_655 S
C68 H129 0.961 . S
C68 H130 0.960 . S
C68 H131 0.958 . S
C69 C66 1.530 . S
C69 H132 0.961 . S
C69 H133 0.960 . S
C69 H134 0.960 . S
C70 C71 1.530 1_655 S
C70 H136 0.961 1_655 S
C70 H137 0.961 . S
C70 H138 0.959 . S
C71 C70 1.530 1_455 S
C71 O99 1.412 1_455 S
C71 H135 0.980 . S
C72 C73 1.288 1_455 S
C72 C77 1.377 . S
C72 O99 1.393 1_455 S
C73 C72 1.288 1_655 S
C73 C74 1.369 . S
C73 H139 0.932 . S
C74 C73 1.369 . S
C74 C75 1.398 1_655 S
C74 C78 1.527 . S
C75 C74 1.398 1_455 S
C75 C76 1.380 . S
C75 C89 1.497 . S
C76 C75 1.380 . S
C76 C77 1.383 . S
C76 C79 1.603 . S
C77 C72 1.377 . S
C77 C76 1.383 . S
C77 H140 0.929 . S
C78 C74 1.527 . S
C78 H141 0.961 . S
C78 H142 0.959 . S
C78 H143 0.959 . S
C79 C76 1.603 . S
C79 H144 0.960 . S
C79 H145 0.962 . S
C79 H146 0.961 . S
C80 C47 1.587 . S
C80 C81 1.360 . S
C80 C93 1.412 . S
C81 C80 1.360 . S
C81 C82 1.365 . S
C81 H147 0.929 . S
C82 C57 1.553 . S
C82 C81 1.365 . S
C82 C83 1.404 . S
C83 C82 1.404 . S
C83 C84 1.395 . S
C83 C94 1.451 . S
C84 C83 1.395 . S
C84 C85 1.322 . S
C84 H148 0.930 . S
C85 C84 1.322 . S
C85 C86 1.459 . S
C85 H149 0.929 . S
C86 C85 1.459 . S
C86 C87 1.445 . S
C86 C95 1.395 . S
C87 C65 1.432 . S
C87 C86 1.445 . S
C87 C88 1.370 . S
C88 C87 1.370 . S
C88 C89 1.438 . S
C88 H150 0.930 . S
C89 C75 1.497 . S
C89 C88 1.438 . S
C89 C90 1.360 . S
C90 C89 1.360 . S
C90 C91 1.401 . S
C90 C95 1.446 . S
C91 C90 1.401 . S
C91 C92 1.347 . S
C91 H151 0.929 . S
C92 C91 1.347 . S
C92 C93 1.455 . S
C92 H152 0.930 . S
C93 C80 1.412 . S
C93 C92 1.455 . S
C93 C94 1.331 . S
C94 C83 1.451 . S
C94 C93 1.331 . S
C94 C95 1.497 . S
C95 C86 1.395 . S
C95 C90 1.446 . S
C95 C94 1.497 . S
C96 C97 1.582 . S
C96 H153 0.962 . S
C96 H154 0.959 . S
C96 H155 0.958 . S
C97 C96 1.582 . S
C97 O100 1.458 . S
C97 H126 0.980 . S
O98 C43 1.426 . S
O98 C44 1.334 . S
O99 C71 1.412 1_655 S
O99 C72 1.393 1_655 S
O100 C62 1.435 . S
O100 C97 1.458 . S
O101 C53 1.468 . S
O101 C54 1.408 . S
H102 C43 0.980 1_455 S
H103 C42 0.959 . S
H104 C42 0.959 . S
H105 C42 0.960 . S
H106 C45 0.929 . S
H107 C49 0.929 . S
H108 C50 0.959 . S
H109 C50 0.961 . S
H110 C50 0.961 . S
H111 C51 0.960 . S
H112 C51 0.960 . S
H113 C51 0.961 . S
H114 C53 0.980 . S
H115 C52 0.961 . S
H116 C52 0.960 . S
H117 C52 0.959 . S
H118 C55 0.930 . S
H119 C59 0.931 . S
H120 C60 0.959 . S
H121 C60 0.961 . S
H122 C60 0.959 . S
H123 C61 0.960 . S
H124 C61 0.960 . S
H125 C61 0.960 . S
H126 C97 0.980 . S
H127 C63 0.930 . S
H128 C67 0.930 . S
H129 C68 0.961 . S
H130 C68 0.960 . S
H131 C68 0.958 . S
H132 C69 0.961 . S
H133 C69 0.960 . S
H134 C69 0.960 . S
H135 C71 0.980 . S
H136 C70 0.961 1_455 S
H137 C70 0.961 . S
H138 C70 0.959 . S
H139 C73 0.932 . S
H140 C77 0.929 . S
H141 C78 0.961 . S
H142 C78 0.959 . S
H143 C78 0.959 . S
H144 C79 0.960 . S
H145 C79 0.962 . S
H146 C79 0.961 . S
H147 C81 0.929 . S
H148 C84 0.930 . S
H149 C85 0.929 . S
H150 C88 0.930 . S
H151 C91 0.929 . S
H152 C92 0.930 . S
H153 C96 0.962 . S
H154 C96 0.959 . S
H155 C96 0.958 . S
C156 C157 1.560 . S
C156 H217 0.959 1_545 S
C156 H218 0.959 1_545 S
C156 H219 0.960 . S
C157 C156 1.560 . S
C157 O212 1.426 . S
C157 H216 0.980 . S
C158 C159 1.407 . S
C158 C163 1.418 . S
C158 O212 1.334 . S
C159 C158 1.407 . S
C159 C160 1.360 . S
C159 H220 0.929 . S
C160 C159 1.360 . S
C160 C161 1.401 . S
C160 C164 1.527 . S
C161 C160 1.401 . S
C161 C162 1.405 . S
C161 C194 1.587 . S
C162 C161 1.405 . S
C162 C163 1.332 . S
C162 C165 1.496 1_545 S
C163 C158 1.418 . S
C163 C162 1.332 . S
C163 H221 0.929 1_545 S
C164 C160 1.527 . S
C164 H222 0.959 . S
C164 H223 0.961 . S
C164 H224 0.961 . S
C165 C162 1.496 1_565 S
C165 H225 0.960 . S
C165 H226 0.960 . S
C165 H227 0.961 . S
C166 C167 1.517 . S
C166 H229 0.961 . S
C166 H230 0.960 . S
C166 H231 0.959 . S
C167 C166 1.517 . S
C167 O215 1.468 . S
C167 H228 0.980 . S
C168 C169 1.349 . S
C168 C173 1.367 . S
C168 O215 1.408 . S
C169 C168 1.349 . S
C169 C170 1.407 . S
C169 H232 0.930 . S
C170 C169 1.407 . S
C170 C171 1.449 . S
C170 C174 1.535 . S
C171 C170 1.449 . S
C171 C172 1.384 . S
C171 C196 1.553 . S
C172 C171 1.384 . S
C172 C173 1.364 . S
C172 C175 1.450 . S
C173 C168 1.367 . S
C173 C172 1.364 . S
C173 H233 0.931 . S
C174 C170 1.535 . S
C174 H234 0.959 . S
C174 H235 0.961 . S
C174 H236 0.959 . S
C175 C172 1.450 . S
C175 H237 0.960 . S
C175 H238 0.960 . S
C175 H239 0.960 . S
C176 C177 1.309 . S
C176 C181 1.304 . S
C176 O214 1.435 . S
C177 C176 1.309 . S
C177 C178 1.476 . S
C177 H241 0.930 . S
C178 C177 1.476 . S
C178 C179 1.400 . S
C178 C182 1.567 . S
C179 C178 1.400 . S
C179 C180 1.373 . S
C179 C201 1.432 . S
C180 C179 1.373 . S
C180 C181 1.339 . S
C180 C183 1.530 . S
C181 C176 1.304 . S
C181 C180 1.339 . S
C181 H242 0.930 . S
C182 C178 1.567 . S
C182 H243 0.961 . S
C182 H244 0.960 1_545 S
C182 H245 0.958 1_545 S
C183 C180 1.530 . S
C183 H246 0.961 . S
C183 H247 0.960 . S
C183 H248 0.960 . S
C184 C185 1.530 . S
C184 H250 0.961 . S
C184 H251 0.961 . S
C184 H252 0.959 . S
C185 C184 1.530 . S
C185 O213 1.412 . S
C185 H249 0.980 . S
C186 C187 1.288 . S
C186 C191 1.377 . S
C186 O213 1.393 . S
C187 C186 1.288 . S
C187 C188 1.369 . S
C187 H253 0.932 1_545 S
C188 C187 1.369 . S
C188 C189 1.398 . S
C188 C192 1.527 1_545 S
C189 C188 1.398 . S
C189 C190 1.380 . S
C189 C203 1.497 . S
C190 C189 1.380 . S
C190 C191 1.383 . S
C190 C193 1.603 . S
C191 C186 1.377 . S
C191 C190 1.383 . S
C191 H254 0.929 . S
C192 C188 1.527 1_565 S
C192 H255 0.961 . S
C192 H256 0.959 . S
C192 H257 0.959 . S
C193 C190 1.603 . S
C193 H258 0.960 . S
C193 H259 0.962 . S
C193 H260 0.961 . S
C194 C161 1.587 . S
C194 C195 1.360 . S
C194 C207 1.412 . S
C195 C194 1.360 . S
C195 C196 1.365 . S
C195 H261 0.929 . S
C196 C171 1.553 . S
C196 C195 1.365 . S
C196 C197 1.404 . S
C197 C196 1.404 . S
C197 C198 1.395 . S
C197 C208 1.451 . S
C198 C197 1.395 . S
C198 C199 1.322 . S
C198 H262 0.930 . S
C199 C198 1.322 . S
C199 C200 1.459 . S
C199 H263 0.929 . S
C200 C199 1.459 . S
C200 C201 1.445 . S
C200 C209 1.395 . S
C201 C179 1.432 . S
C201 C200 1.445 . S
C201 C202 1.370 . S
C202 C201 1.370 . S
C202 C203 1.438 . S
C202 H264 0.930 . S
C203 C189 1.497 . S
C203 C202 1.438 . S
C203 C204 1.360 . S
C204 C203 1.360 . S
C204 C205 1.401 . S
C204 C209 1.446 . S
C205 C204 1.401 . S
C205 C206 1.347 . S
C205 H265 0.929 . S
C206 C205 1.347 . S
C206 C207 1.455 . S
C206 H266 0.930 . S
C207 C194 1.412 . S
C207 C206 1.455 . S
C207 C208 1.331 . S
C208 C197 1.451 . S
C208 C207 1.331 . S
C208 C209 1.497 . S
C209 C200 1.395 . S
C209 C204 1.446 . S
C209 C208 1.497 . S
C210 C211 1.582 . S
C210 H267 0.962 . S
C210 H268 0.959 . S
C210 H269 0.958 . S
C211 C210 1.582 . S
C211 O214 1.458 . S
C211 H240 0.980 . S
O212 C157 1.426 . S
O212 C158 1.334 . S
O213 C185 1.412 . S
O213 C186 1.393 . S
O214 C176 1.435 . S
O214 C211 1.458 . S
O215 C167 1.468 . S
O215 C168 1.408 . S
H216 C157 0.980 . S
H217 C156 0.959 1_565 S
H218 C156 0.959 1_565 S
H219 C156 0.960 . S
H220 C159 0.929 . S
H221 C163 0.929 1_565 S
H222 C164 0.959 . S
H223 C164 0.961 . S
H224 C164 0.961 . S
H225 C165 0.960 . S
H226 C165 0.960 . S
H227 C165 0.961 . S
H228 C167 0.980 . S
H229 C166 0.961 . S
H230 C166 0.960 . S
H231 C166 0.959 . S
H232 C169 0.930 . S
H233 C173 0.931 . S
H234 C174 0.959 . S
H235 C174 0.961 . S
H236 C174 0.959 . S
H237 C175 0.960 . S
H238 C175 0.960 . S
H239 C175 0.960 . S
H240 C211 0.980 . S
H241 C177 0.930 . S
H242 C181 0.930 . S
H243 C182 0.961 . S
H244 C182 0.960 1_565 S
H245 C182 0.958 1_565 S
H246 C183 0.961 . S
H247 C183 0.960 . S
H248 C183 0.960 . S
H249 C185 0.980 . S
H250 C184 0.961 . S
H251 C184 0.961 . S
H252 C184 0.959 . S
H253 C187 0.932 1_565 S
H254 C191 0.929 . S
H255 C192 0.961 . S
H256 C192 0.959 . S
H257 C192 0.959 . S
H258 C193 0.960 . S
H259 C193 0.962 . S
H260 C193 0.961 . S
H261 C195 0.929 . S
H262 C198 0.930 . S
H263 C199 0.929 . S
H264 C202 0.930 . S
H265 C205 0.929 . S
H266 C206 0.930 . S
H267 C210 0.962 . S
H268 C210 0.959 . S
H269 C210 0.958 . S
C270 C271 1.560 . S
C270 H331 0.959 . S
C270 H332 0.959 . S
C270 H333 0.960 . S
C271 C270 1.560 . S
C271 O326 1.426 . S
C271 H330 0.980 . S
C272 C273 1.407 . S
C272 C277 1.418 . S
C272 O326 1.334 . S
C273 C272 1.407 . S
C273 C274 1.360 . S
C273 H334 0.929 . S
C274 C273 1.360 . S
C274 C275 1.401 . S
C274 C278 1.527 . S
C275 C274 1.401 . S
C275 C276 1.405 . S
C275 C308 1.587 . S
C276 C275 1.405 . S
C276 C277 1.332 . S
C276 C279 1.496 . S
C277 C272 1.418 . S
C277 C276 1.332 . S
C277 H335 0.929 . S
C278 C274 1.527 . S
C278 H336 0.959 . S
C278 H337 0.961 . S
C278 H338 0.961 . S
C279 C276 1.496 . S
C279 H339 0.960 . S
C279 H340 0.960 . S
C279 H341 0.961 . S
C280 C281 1.517 . S
C280 H343 0.961 . S
C280 H344 0.960 . S
C280 H345 0.959 . S
C281 C280 1.517 . S
C281 O329 1.468 . S
C281 H342 0.980 . S
C282 C283 1.349 . S
C282 C287 1.367 . S
C282 O329 1.408 . S
C283 C282 1.349 . S
C283 C284 1.407 . S
C283 H346 0.930 . S
C284 C283 1.407 . S
C284 C285 1.449 . S
C284 C288 1.535 . S
C285 C284 1.449 . S
C285 C286 1.384 . S
C285 C310 1.553 . S
C286 C285 1.384 . S
C286 C287 1.364 . S
C286 C289 1.450 . S
C287 C282 1.367 . S
C287 C286 1.364 . S
C287 H347 0.931 . S
C288 C284 1.535 . S
C288 H348 0.959 . S
C288 H349 0.961 . S
C288 H350 0.959 . S
C289 C286 1.450 . S
C289 H351 0.960 . S
C289 H352 0.960 . S
C289 H353 0.960 . S
C290 C291 1.309 . S
C290 C295 1.304 . S
C290 O328 1.435 . S
C291 C290 1.309 . S
C291 C292 1.476 . S
C291 H355 0.930 . S
C292 C291 1.476 . S
C292 C293 1.400 . S
C292 C296 1.567 . S
C293 C292 1.400 . S
C293 C294 1.373 . S
C293 C315 1.432 . S
C294 C293 1.373 . S
C294 C295 1.339 . S
C294 C297 1.530 . S
C295 C290 1.304 . S
C295 C294 1.339 . S
C295 H356 0.930 . S
C296 C292 1.567 . S
C296 H357 0.961 . S
C296 H358 0.960 . S
C296 H359 0.958 . S
C297 C294 1.530 . S
C297 H360 0.961 . S
C297 H361 0.960 . S
C297 H362 0.960 . S
C298 C299 1.530 . S
C298 H364 0.961 1_556 S
C298 H365 0.961 . S
C298 H366 0.959 1_556 S
C299 C298 1.530 . S
C299 O327 1.412 . S
C299 H363 0.980 . S
C300 C301 1.288 . S
C300 C305 1.377 . S
C300 O327 1.393 . S
C301 C300 1.288 . S
C301 C302 1.369 . S
C301 H367 0.932 . S
C302 C301 1.369 . S
C302 C303 1.398 . S
C302 C306 1.527 . S
C303 C302 1.398 . S
C303 C304 1.380 . S
C303 C317 1.497 . S
C304 C303 1.380 . S
C304 C305 1.383 . S
C304 C307 1.603 . S
C305 C300 1.377 . S
C305 C304 1.383 . S
C305 H368 0.929 . S
C306 C302 1.527 . S
C306 H369 0.961 . S
C306 H370 0.959 . S
C306 H371 0.959 . S
C307 C304 1.603 . S
C307 H372 0.960 . S
C307 H373 0.962 . S
C307 H374 0.961 . S
C308 C275 1.587 . S
C308 C309 1.360 . S
C308 C321 1.412 . S
C309 C308 1.360 . S
C309 C310 1.365 . S
C309 H375 0.929 . S
C310 C285 1.553 . S
C310 C309 1.365 . S
C310 C311 1.404 . S
C311 C310 1.404 . S
C311 C312 1.395 . S
C311 C322 1.451 . S
C312 C311 1.395 . S
C312 C313 1.322 . S
C312 H376 0.930 . S
C313 C312 1.322 . S
C313 C314 1.459 . S
C313 H377 0.929 . S
C314 C313 1.459 . S
C314 C315 1.445 . S
C314 C323 1.395 . S
C315 C293 1.432 . S
C315 C314 1.445 . S
C315 C316 1.370 . S
C316 C315 1.370 . S
C316 C317 1.438 . S
C316 H378 0.930 . S
C317 C303 1.497 . S
C317 C316 1.438 . S
C317 C318 1.360 . S
C318 C317 1.360 . S
C318 C319 1.401 . S
C318 C323 1.446 . S
C319 C318 1.401 . S
C319 C320 1.347 . S
C319 H379 0.929 . S
C320 C319 1.347 . S
C320 C321 1.455 . S
C320 H380 0.930 . S
C321 C308 1.412 . S
C321 C320 1.455 . S
C321 C322 1.331 . S
C322 C311 1.451 . S
C322 C321 1.331 . S
C322 C323 1.497 . S
C323 C314 1.395 . S
C323 C318 1.446 . S
C323 C322 1.497 . S
C324 C325 1.582 . S
C324 H381 0.962 1_556 S
C324 H382 0.959 . S
C324 H383 0.956 1_556 S
C325 C324 1.582 . S
C325 O328 1.458 . S
C325 H354 0.980 . S
O326 C271 1.426 . S
O326 C272 1.334 . S
O327 C299 1.412 . S
O327 C300 1.393 . S
O328 C290 1.435 . S
O328 C325 1.458 . S
O329 C281 1.468 . S
O329 C282 1.408 . S
H330 C271 0.980 . S
H331 C270 0.959 . S
H332 C270 0.959 . S
H333 C270 0.960 . S
H334 C273 0.929 . S
H335 C277 0.929 . S
H336 C278 0.959 . S
H337 C278 0.961 . S
H338 C278 0.961 . S
H339 C279 0.960 . S
H340 C279 0.960 . S
H341 C279 0.961 . S
H342 C281 0.980 . S
H343 C280 0.961 . S
H344 C280 0.960 . S
H345 C280 0.959 . S
H346 C283 0.930 . S
H347 C287 0.931 . S
H348 C288 0.959 . S
H349 C288 0.961 . S
H350 C288 0.959 . S
H351 C289 0.960 . S
H352 C289 0.960 . S
H353 C289 0.960 . S
H354 C325 0.980 . S
H355 C291 0.930 . S
H356 C295 0.930 . S
H357 C296 0.961 . S
H358 C296 0.960 . S
H359 C296 0.958 . S
H360 C297 0.961 . S
H361 C297 0.960 . S
H362 C297 0.960 . S
H363 C299 0.980 . S
H364 C298 0.961 1_554 S
H365 C298 0.961 . S
H366 C298 0.959 1_554 S
H367 C301 0.932 . S
H368 C305 0.929 . S
H369 C306 0.961 . S
H370 C306 0.959 . S
H371 C306 0.959 . S
H372 C307 0.960 . S
H373 C307 0.962 . S
H374 C307 0.961 . S
H375 C309 0.929 . S
H376 C312 0.930 . S
H377 C313 0.929 . S
H378 C316 0.930 . S
H379 C319 0.929 . S
H380 C320 0.930 . S
H381 C324 0.962 1_554 S
H382 C324 0.959 . S
H383 C324 0.956 1_554 S
C384 C385 1.363 1_655 S
C384 C390 1.379 . S
C384 N392 1.356 . S
C385 C384 1.363 1_455 S
C385 C391 1.363 . S
C386 C387 1.363 . S
C386 C391 1.379 . S
C386 N393 1.356 . S
C387 C386 1.363 . S
C387 C390 1.363 1_455 S
N388 C390 1.356 . S
N388 H400 0.984 . S
N388 H401 0.985 . S
N389 C391 1.356 . S
N389 H394 0.984 . S
N389 H395 0.985 . S
C390 C384 1.379 . S
C390 C387 1.363 1_655 S
C390 N388 1.356 . S
C391 C385 1.363 . S
C391 C386 1.379 . S
C391 N389 1.356 . S
N392 C384 1.356 . S
N392 H398 0.984 . S
N392 H399 0.984 . S
N393 C386 1.356 . S
N393 H396 0.984 . S
N393 H397 0.985 . S
H394 N389 0.984 . S
H395 N389 0.985 . S
H396 N393 0.984 . S
H397 N393 0.985 . S
H398 N392 0.984 . S
H399 N392 0.984 . S
H400 N388 0.984 . S
H401 N388 0.985 . S
C402 C403 1.363 . S
C402 C408 1.379 . S
C402 N410 1.356 . S
C403 C402 1.363 . S
C403 C409 1.359 1_545 S
C404 C405 1.363 . S
C404 C409 1.370 1_545 S
C404 N411 1.356 1_545 S
C405 C404 1.363 . S
C405 C408 1.363 . S
N406 C408 1.356 . S
N406 H418 0.984 . S
N406 H419 0.985 . S
N407 C409 1.370 . S
N407 H412 0.984 . S
N407 H413 0.985 . S
C408 C402 1.379 . S
C408 C405 1.363 . S
C408 N406 1.356 . S
C409 C403 1.359 1_565 S
C409 C404 1.370 1_565 S
C409 N407 1.370 . S
N410 C402 1.356 . S
N410 H416 0.984 . S
N410 H417 0.984 . S
N411 C404 1.356 1_565 S
N411 H414 0.984 1_565 S
N411 H415 0.985 . S
H412 N407 0.984 . S
H413 N407 0.985 . S
H414 N411 0.984 1_545 S
H415 N411 0.985 . S
H416 N410 0.984 . S
H417 N410 0.984 . S
H418 N406 0.984 . S
H419 N406 0.985 . S
C420 C421 1.363 . S
C420 C426 1.379 . S
C420 N428 1.356 . S
C421 C420 1.363 . S
C421 C427 1.363 . S
C422 C423 1.363 . S
C422 C427 1.379 . S
C422 N429 1.356 . S
C423 C422 1.363 . S
C423 C426 1.363 . S
N424 C426 1.356 . S
N424 H436 0.984 . S
N424 H437 0.985 . S
N425 C427 1.356 . S
N425 H430 0.984 . S
N425 H431 0.985 . S
C426 C420 1.379 . S
C426 C423 1.363 . S
C426 N424 1.356 . S
C427 C421 1.363 . S
C427 C422 1.379 . S
C427 N425 1.356 . S
N428 C420 1.356 . S
N428 H434 0.984 1_655 S
N428 H435 0.984 1_655 S
N429 C422 1.356 . S
N429 H432 0.984 . S
N429 H433 0.985 . S
H430 N425 0.984 . S
H431 N425 0.985 . S
H432 N429 0.984 . S
H433 N429 0.985 . S
H434 N428 0.984 1_455 S
H435 N428 0.984 1_455 S
H436 N424 0.984 . S
H437 N424 0.985 . S
C438 C439 1.363 . S
C438 C444 1.379 . S
C438 N446 1.356 . S
C439 C438 1.363 . S
C439 C445 1.363 . S
C440 C441 1.363 . S
C440 C445 1.379 . S
C440 N447 1.356 . S
C441 C440 1.363 . S
C441 C444 1.363 . S
N442 C444 1.356 1_655 S
N442 H454 0.984 . S
N442 H455 0.979 1_655 S
N443 C445 1.356 1_545 S
N443 H448 0.984 . S
N443 H449 0.985 . S
C444 C438 1.379 . S
C444 C441 1.363 . S
C444 N442 1.356 1_455 S
C445 C439 1.363 . S
C445 C440 1.379 . S
C445 N443 1.356 1_565 S
N446 C438 1.356 . S
N446 H452 0.984 1_455 S
N446 H453 0.984 . S
N447 C440 1.356 . S
N447 H450 0.984 . S
N447 H451 0.985 . S
H448 N443 0.984 . S
H449 N443 0.985 . S
H450 N447 0.984 . S
H451 N447 0.985 . S
H452 N446 0.984 1_655 S
H453 N446 0.984 . S
H454 N442 0.984 . S
H455 N442 0.979 1_455 S
C456 C457 1.363 . S
C456 C462 1.379 . S
C456 N464 1.356 . S
C457 C456 1.363 . S
C457 C463 1.363 . S
C458 C459 1.363 . S
C458 C463 1.379 . S
C458 N465 1.356 . S
C459 C458 1.363 . S
C459 C462 1.363 . S
N460 C462 1.356 . S
N460 H472 0.981 1_545 S
N460 H473 0.985 . S
N461 C463 1.356 . S
N461 H466 0.984 . S
N461 H467 0.985 . S
C462 C456 1.379 . S
C462 C459 1.363 . S
C462 N460 1.356 . S
C463 C457 1.363 . S
C463 C458 1.379 . S
C463 N461 1.356 . S
N464 C456 1.356 . S
N464 H470 0.984 1_545 S
N464 H471 0.984 . S
N465 C458 1.356 . S
N465 H468 0.984 . S
N465 H469 0.985 . S
H466 N461 0.984 . S
H467 N461 0.985 . S
H468 N465 0.984 . S
H469 N465 0.985 . S
H470 N464 0.984 1_565 S
H471 N464 0.984 . S
H472 N460 0.981 1_565 S
H473 N460 0.985 . S
C474 C475 1.363 . S
C474 C480 1.379 . S
C474 N482 1.356 . S
C475 C474 1.363 . S
C475 C481 1.363 . S
C476 C477 1.363 . S
C476 C481 1.379 . S
C476 N483 1.356 . S
C477 C476 1.363 . S
C477 C480 1.363 . S
N478 C480 1.356 . S
N478 H490 0.984 . S
N478 H491 0.985 . S
N479 C481 1.356 . S
N479 H484 0.984 . S
N479 H485 0.985 . S
C480 C474 1.379 . S
C480 C477 1.363 . S
C480 N478 1.356 . S
C481 C475 1.363 . S
C481 C476 1.379 . S
C481 N479 1.356 . S
N482 C474 1.356 . S
N482 H488 0.984 . S
N482 H489 0.984 . S
N483 C476 1.356 . S
N483 H486 0.984 . S
N483 H487 0.985 . S
H484 N479 0.984 . S
H485 N479 0.985 . S
H486 N483 0.984 . S
H487 N483 0.985 . S
H488 N482 0.984 . S
H489 N482 0.984 . S
H490 N478 0.984 . S
H491 N478 0.985 . S
C492 C493 1.363 . S
C492 C498 1.379 . S
C492 N500 1.356 . S
C493 C492 1.363 . S
C493 C499 1.363 . S
C494 C495 1.363 . S
C494 C499 1.379 . S
C494 N501 1.356 . S
C495 C494 1.363 . S
C495 C498 1.363 . S
N496 C498 1.356 . S
N496 H508 0.984 . S
N496 H509 0.985 . S
N497 C499 1.356 . S
N497 H502 0.984 . S
N497 H503 0.985 . S
C498 C492 1.379 . S
C498 C495 1.363 . S
C498 N496 1.356 . S
C499 C493 1.363 . S
C499 C494 1.379 . S
C499 N497 1.356 . S
N500 C492 1.356 . S
N500 H506 0.984 . S
N500 H507 0.984 . S
N501 C494 1.356 . S
N501 H504 0.984 . S
N501 H505 0.985 . S
H502 N497 0.984 . S
H503 N497 0.985 . S
H504 N501 0.984 . S
H505 N501 0.985 . S
H506 N500 0.984 . S
H507 N500 0.984 . S
H508 N496 0.984 . S
H509 N496 0.985 . S
C510 C511 1.363 . S
C510 C516 1.379 . S
C510 N518 1.356 1_565 S
C511 C510 1.363 . S
C511 C517 1.363 . S
C512 C513 1.363 . S
C512 C517 1.379 . S
C512 N519 1.356 . S
C513 C512 1.363 . S
C513 C516 1.363 . S
N514 C516 1.356 1_556 S
N514 H526 0.984 . S
N514 H527 0.985 . S
N515 C517 1.356 . S
N515 H520 0.984 1_655 S
N515 H521 0.985 . S
C516 C510 1.379 . S
C516 C513 1.363 . S
C516 N514 1.356 1_554 S
C517 C511 1.363 . S
C517 C512 1.379 . S
C517 N515 1.356 . S
N518 C510 1.356 1_545 S
N518 H524 0.984 . S
N518 H525 0.984 . S
N519 C512 1.356 . S
N519 H522 0.957 1_554 S
N519 H523 0.985 . S
H520 N515 0.984 1_455 S
H521 N515 0.985 . S
H522 N519 0.957 1_556 S
H523 N519 0.985 . S
H524 N518 0.984 . S
H525 N518 0.984 . S
H526 N514 0.984 . S
H527 N514 0.985 . S
C528 C529 1.363 . S
C528 C534 1.379 . S
C528 N536 1.356 . S
C529 C528 1.363 . S
C529 C535 1.363 1_655 S
C530 C531 1.363 . S
C530 C535 1.379 . S
C530 N537 1.356 . S
C531 C530 1.363 . S
C531 C534 1.363 1_455 S
N532 C534 1.356 . S
N532 H544 0.984 . S
N532 H545 0.985 . S
N533 C535 1.356 . S
N533 H538 0.984 . S
N533 H539 0.985 . S
C534 C528 1.379 . S
C534 C531 1.363 1_655 S
C534 N532 1.356 . S
C535 C529 1.363 1_455 S
C535 C530 1.379 . S
C535 N533 1.356 . S
N536 C528 1.356 . S
N536 H542 0.984 . S
N536 H543 0.984 . S
N537 C530 1.356 . S
N537 H540 0.984 . S
N537 H541 0.985 . S
H538 N533 0.984 . S
H539 N533 0.985 . S
H540 N537 0.984 . S
H541 N537 0.985 . S
H542 N536 0.984 . S
H543 N536 0.984 . S
H544 N532 0.984 . S
H545 N532 0.985 . S
C546 C547 1.363 . S
C546 C552 1.379 . S
C546 N554 1.356 . S
C547 C546 1.363 . S
C547 C553 1.363 . S
C548 C549 1.363 . S
C548 C553 1.379 . S
C548 N555 1.356 1_545 S
C549 C548 1.363 . S
C549 C552 1.363 . S
N550 C552 1.356 . S
N550 H562 0.984 . S
N550 H563 0.985 . S
N551 C553 1.356 1_565 S
N551 H556 0.984 . S
N551 H557 0.985 . S
C552 C546 1.379 . S
C552 C549 1.363 . S
C552 N550 1.356 . S
C553 C547 1.363 . S
C553 C548 1.379 . S
C553 N551 1.356 1_545 S
N554 C546 1.356 . S
N554 H560 0.984 . S
N554 H561 0.984 . S
N555 C548 1.356 1_565 S
N555 H558 0.984 1_565 S
N555 H559 0.985 . S
H556 N551 0.984 . S
H557 N551 0.985 . S
H558 N555 0.984 1_545 S
H559 N555 0.985 . S
H560 N554 0.984 . S
H561 N554 0.984 . S
H562 N550 0.984 . S
H563 N550 0.985 . S
C564 C565 1.363 . S
C564 C570 1.379 . S
C564 N572 1.356 . S
C565 C564 1.363 . S
C565 C571 1.363 . S
C566 C567 1.363 1_554 S
C566 C571 1.379 . S
C566 N573 1.356 1_554 S
C567 C566 1.363 1_556 S
C567 C570 1.363 1_556 S
N568 C570 1.356 1_556 S
N568 H580 0.984 . S
N568 H581 0.985 . S
N569 C571 1.356 . S
N569 H574 0.984 . S
N569 H575 0.985 . S
C570 C564 1.379 . S
C570 C567 1.363 1_554 S
C570 N568 1.356 1_554 S
C571 C565 1.363 . S
C571 C566 1.379 . S
C571 N569 1.356 . S
N572 C564 1.356 . S
N572 H578 0.984 . S
N572 H579 0.984 . S
N573 C566 1.356 1_556 S
N573 H576 0.984 . S
N573 H577 0.985 . S
H574 N569 0.984 . S
H575 N569 0.985 . S
H576 N573 0.984 . S
H577 N573 0.985 . S
H578 N572 0.984 . S
H579 N572 0.984 . S
H580 N568 0.984 . S
H581 N568 0.985 . S
C582 C583 1.363 . S
C582 C588 1.379 . S
C582 N590 1.356 . S
C583 C582 1.363 . S
C583 C589 1.363 . S
C584 C585 1.363 . S
C584 C589 1.379 . S
C584 N591 1.356 . S
C585 C584 1.363 . S
C585 C588 1.363 . S
N586 C588 1.356 1_655 S
N586 H598 0.984 . S
N586 H599 0.985 . S
N587 C589 1.356 . S
N587 H592 0.984 . S
N587 H593 0.985 . S
C588 C582 1.379 . S
C588 C585 1.363 . S
C588 N586 1.356 1_455 S
C589 C583 1.363 . S
C589 C584 1.379 . S
C589 N587 1.356 . S
N590 C582 1.356 . S
N590 H596 0.984 1_455 S
N590 H597 0.984 . S
N591 C584 1.356 . S
N591 H594 0.984 . S
N591 H595 0.985 . S
H592 N587 0.984 . S
H593 N587 0.985 . S
H594 N591 0.984 . S
H595 N591 0.985 . S
H596 N590 0.984 1_655 S
H597 N590 0.984 . S
H598 N586 0.984 . S
H599 N586 0.985 . S
C387 C97 1.130 . S
C385 C11 1.475 . S
C403 C26 1.601 . S
C405 C211 1.287 . S
C421 C40 1.290 . S
C423 C271 1.010 . S
C439 C5 1.233 . S
C441 C71 1.112 . S
C459 C185 1.154 . S
C457 C18 1.503 . S
C475 C32 1.387 . S
C477 C281 0.839 . S
C495 C167 0.787 . S
C493 C39 1.308 . S
C511 C4 1.382 1_565 S
C513 C299 1.091 1_554 S
C531 C43 1.004 1_455 S
C529 C19 1.148 . S
C549 C157 0.922 . S
C547 C33 1.108 . S
C567 C325 1.192 . S
C565 C12 1.494 . S
C583 C25 1.415 . S
C585 C53 0.801 . S
