# Generated by pormake.
# Topology rtl, (3,6)-cn, num edge types: 1
# Building blocks:
#     Node 0, Type 0, BuildingBlock: QEWDON_clean_linker_0, # of connection points: 3
#     Node 1, Type 0, BuildingBlock: QEWDON_clean_linker_0, # of connection points: 3
#     Node 2, Type 0, BuildingBlock: QEWDON_clean_linker_0, # of connection points: 3
#     Node 3, Type 0, BuildingBlock: QEWDON_clean_linker_0, # of connection points: 3
#     Node 4, Type 1, BuildingBlock: KUMJIN_clean_sbu_1, # of connection points: 6
#     Node 5, Type 1, BuildingBlock: KUMJIN_clean_sbu_1, # of connection points: 6
#     Edge 6, Type (0, 1), BuildingBlock: CIFDUS_clean_linker_0, # of connection points: 2
#     Edge 7, Type (0, 1), BuildingBlock: CIFDUS_clean_linker_0, # of connection points: 2
#     Edge 8, Type (0, 1), BuildingBlock: CIFDUS_clean_linker_0, # of connection points: 2
#     Edge 9, Type (0, 1), BuildingBlock: CIFDUS_clean_linker_0, # of connection points: 2
#     Edge 10, Type (0, 1), BuildingBlock: CIFDUS_clean_linker_0, # of connection points: 2
#     Edge 11, Type (0, 1), BuildingBlock: CIFDUS_clean_linker_0, # of connection points: 2
#     Edge 12, Type (0, 1), BuildingBlock: CIFDUS_clean_linker_0, # of connection points: 2
#     Edge 13, Type (0, 1), BuildingBlock: CIFDUS_clean_linker_0, # of connection points: 2
#     Edge 14, Type (0, 1), BuildingBlock: CIFDUS_clean_linker_0, # of connection points: 2
#     Edge 15, Type (0, 1), BuildingBlock: CIFDUS_clean_linker_0, # of connection points: 2
#     Edge 16, Type (0, 1), BuildingBlock: CIFDUS_clean_linker_0, # of connection points: 2
#     Edge 17, Type (0, 1), BuildingBlock: CIFDUS_clean_linker_0, # of connection points: 2
# Relax obj value: 0.085
# Max RMSD: 0.280
# Mean RMSD: 0.213
data_MOF--net-rtl--node1-KUMJIN_clean_sbu_1--node2-QEWDON_clean_linker_0--edge1-CIFDUS_clean_linker_0
_symmetry_space_group_name_H-M    P1
_symmetry_Int_Tables_number       1
_symmetry_cell_setting            triclinic
loop_
_symmetry_equiv_pos_as_xyz
'x, y, z'
_cell_length_a     33.23882
_cell_length_b     33.20639
_cell_length_c     23.673021
_cell_angle_alpha  77.561708
_cell_angle_beta   100.39494
_cell_angle_gamma 91.36125
loop_
_atom_site_label
_atom_site_type_symbol
_atom_site_fract_x
_atom_site_fract_y
_atom_site_fract_z
_atom_type_partial_charge
H0 H 0.23995 0.82168 0.1183 0.0
C1 C 0.22339 0.83672 0.07544 0.0
C2 C 0.18284 0.85075 0.06945 0.0
C3 C 0.24292 0.84336 0.02625 0.0
H4 H 0.13107 0.88275 0.00921 0.0
C5 C 0.16199 0.87109 0.01393 0.0
C6 C 0.18155 0.87855 0.9651 0.0
C7 C 0.22188 0.86464 0.9714 0.0
C8 C 0.28665 0.83251 0.03219 0.0
H9 H 0.23723 0.8711 0.93376 0.0
C10 C 0.30007 0.79126 0.04082 0.0
C11 C 0.34113 0.78255 0.03898 0.0
C12 C 0.31476 0.86452 0.02388 0.0
H13 H 0.30495 0.89638 0.01691 0.0
C14 C 0.35552 0.85583 0.02355 0.0
H15 H 0.27844 0.7664 0.0463 0.0
C16 C 0.36859 0.81519 0.0305 0.0
H17 H 0.40029 0.80916 0.02929 0.0
H18 H 0.37694 0.88074 0.01698 0.0
H19 H 0.74447 0.71065 0.60837 0.0
C20 C 0.72512 0.69933 0.64048 0.0
C21 C 0.68946 0.67743 0.62469 0.0
C22 C 0.73812 0.70362 0.6986 0.0
H23 H 0.63902 0.6431 0.65701 0.0
C24 C 0.66613 0.66058 0.66816 0.0
C25 C 0.67883 0.66437 0.72677 0.0
C26 C 0.71455 0.68635 0.74125 0.0
C27 C 0.77893 0.72128 0.71624 0.0
H28 H 0.72463 0.68915 0.7864 0.0
C29 C 0.79217 0.75819 0.68295 0.0
C30 C 0.83207 0.7725 0.69861 0.0
C31 C 0.80595 0.69952 0.76554 0.0
H32 H 0.79697 0.67082 0.79143 0.0
C33 C 0.84532 0.71376 0.78101 0.0
H34 H 0.77176 0.77547 0.64494 0.0
C35 C 0.85842 0.74985 0.74766 0.0
H36 H 0.88914 0.7604 0.76052 0.0
H37 H 0.86589 0.69657 0.81881 0.0
H38 H 0.80958 0.2027 0.17623 0.0
C39 C 0.82299 0.19658 0.14037 0.0
C40 C 0.86274 0.17965 0.1519 0.0
C41 C 0.7999 0.20377 0.08305 0.0
H42 H 0.90987 0.15667 0.11529 0.0
C43 C 0.87938 0.17022 0.10587 0.0
C44 C 0.8565 0.17594 0.04875 0.0
C45 C 0.81698 0.19343 0.03747 0.0
C46 C 0.75645 0.21772 0.07156 0.0
H47 H 0.79884 0.19757 0.99366 0.0
C48 C 0.74453 0.25352 0.08805 0.0
C49 C 0.70317 0.26667 0.07387 0.0
C50 C 0.72644 0.19485 0.04278 0.0
H51 H 0.73467 0.16699 0.03041 0.0
C52 C 0.68552 0.20744 0.02995 0.0
H53 H 0.76733 0.27173 0.1097 0.0
C54 C 0.67396 0.24323 0.04497 0.0
H55 H 0.64207 0.25288 0.03365 0.0
H56 H 0.66271 0.18959 1.00774 0.0
H57 H 0.3134 0.31761 0.51302 0.0
C58 C 0.32717 0.32828 0.47443 0.0
C59 C 0.34516 0.36746 0.46491 0.0
C60 C 0.32882 0.30173 0.43583 0.0
H61 H 0.37963 0.40887 0.4089 0.0
C62 C 0.36354 0.37995 0.41505 0.0
C63 C 0.36391 0.35479 0.37456 0.0
C64 C 0.34698 0.31531 0.38575 0.0
C65 C 0.31641 0.25809 0.45173 0.0
H66 H 0.34822 0.29493 0.35595 0.0
C67 C 0.2768 0.24734 0.46298 0.0
C68 C 0.2668 0.2055 0.48081 0.0
C69 C 0.34553 0.22672 0.45803 0.0
H70 H 0.37619 0.23424 0.45002 0.0
C71 C 0.33577 0.18545 0.47607 0.0
H72 H 0.25399 0.27126 0.45786 0.0
C73 C 0.29678 0.17486 0.48761 0.0
H74 H 0.28974 0.14253 0.50074 0.0
H75 H 0.35853 0.16155 0.48109 0.0
Eu76 Eu 0.05263 0.9916 0.50775 0.0
C77 C 0.96042 0.14119 0.51242 0.0
N78 N 0.99266 0.12383 0.55374 0.0
C79 C 0.02695 0.18879 0.54168 0.0
C80 C 0.96138 0.18242 0.48129 0.0
C81 C 0.02416 0.14798 0.57188 0.0
C82 C 0.9959 0.20578 0.4951 0.0
C83 C 0.88961 0.13673 0.46623 0.0
C84 C 0.92497 0.11882 0.50501 0.0
C85 C 0.89129 0.17676 0.43215 0.0
C86 C 0.92717 0.19956 0.43959 0.0
Eu87 Eu 0.98685 0.05256 0.59669 0.0
N88 N 0.92454 0.07999 0.53776 0.0
C89 C 0.85344 0.11412 0.46387 0.0
C90 C 0.88904 0.05851 0.53799 0.0
C91 C 0.85302 0.07508 0.50062 0.0
H92 H 0.04743 0.13593 0.60958 0.0
H93 H 0.82507 0.05764 0.49985 0.0
H94 H 0.05508 0.89045 0.56869 0.0
H95 H 0.18643 0.08267 0.45961 0.0
H96 H 0.88896 0.02817 0.56602 0.0
H97 H 0.8256 0.12679 0.43467 0.0
H98 H 0.11418 0.06108 0.44196 0.0
H99 H 0.05278 0.20726 0.55488 0.0
H100 H 0.86469 0.19079 0.40121 0.0
H101 H 0.9276 0.23094 0.41455 0.0
H102 H 0.10208 0.83918 0.64043 0.0
H103 H 0.99789 0.23755 0.47221 0.0
H104 H 0.23529 0.04373 0.54413 0.0
N105 N 0.09728 0.93934 0.5702 0.0
C106 C 0.13624 0.95031 0.58795 0.0
C107 C 0.112 0.87043 0.6264 0.0
C108 C 0.16423 0.92229 0.62845 0.0
C109 C 0.08555 0.89934 0.58573 0.0
C110 C 0.15122 0.88225 0.64903 0.0
N111 N 0.12201 1.01196 0.51739 0.0
C112 C 0.13539 0.04411 0.47913 0.0
C113 C 0.19056 0.99891 0.57221 0.0
C114 C 0.14908 0.98809 0.56055 0.0
C115 C 0.20368 0.03431 0.53674 0.0
C116 C 0.17622 0.05628 0.48885 0.0
H117 H 0.17175 0.85978 0.68027 0.0
H118 H 0.22659 0.9136 0.67621 0.0
H119 H 0.24977 0.98081 0.62661 0.0
O120 O 0.01767 0.965 0.4373 0.0
O121 O 0.04893 0.96501 0.60366 0.0
O122 O 0.04769 0.02198 0.64358 0.0
O123 O 0.08204 0.97517 0.44009 0.0
O124 O 0.05836 0.06072 0.50383 0.0
O125 O 0.05435 0.06658 0.59709 0.0
O126 O 0.96403 0.02347 0.67659 0.0
O127 O 0.96137 0.03745 0.50781 0.0
O128 O 1.01549 0.049 0.46009 0.0
O129 O 0.96945 0.08934 0.65513 0.0
O130 O 0.96308 0.98788 0.59412 0.0
O131 O 0.99688 0.9561 0.53543 0.0
C132 C 0.05653 0.98289 0.6487 0.0
C133 C 0.05503 0.91884 0.4008 0.0
C134 C 0.08451 0.87753 0.34373 0.0
C135 C 0.06658 0.84227 0.3732 0.0
C136 C 0.03771 0.88315 0.42994 0.0
C137 C 0.04349 0.84513 0.41607 0.0
C138 C 0.07856 0.9158 0.35799 0.0
C139 C 0.07155 0.07622 0.55023 0.0
C140 C 0.04948 0.95941 0.41469 0.0
C141 C 0.20475 0.9344 0.64439 0.0
C142 C 0.21794 0.9727 0.6162 0.0
C143 C 0.9763 0.05221 0.46007 0.0
C144 C 0.9803 0.0574 0.75541 0.0
C145 C 0.97547 0.0699 0.852 0.0
C146 C 1.01634 0.05619 0.87231 0.0
C147 C 0.02105 0.0442 0.77651 0.0
C148 C 0.95766 0.07061 0.79306 0.0
C149 C 0.03891 0.04355 0.83471 0.0
C150 C 0.96841 0.95733 0.56801 0.0
C151 C 0.96148 0.05769 0.69413 0.0
H152 H 0.07088 0.81235 0.36367 0.0
H153 H 0.01977 0.88459 0.46337 0.0
H154 H 0.03008 0.81773 0.43874 0.0
H155 H 0.09181 0.94338 0.33528 0.0
H156 H 0.031 0.05566 0.91721 0.0
H157 H 0.03899 0.03444 0.74794 0.0
H158 H 0.92612 0.08074 0.77679 0.0
H159 H 0.07037 0.03323 0.85071 0.0
Eu160 Eu 0.47325 0.49254 0.9955 0.0
C161 C 0.6193 0.6069 0.04718 0.0
N162 N 0.61514 0.56635 0.07095 0.0
C163 C 0.68222 0.5515 0.0561 0.0
C164 C 0.65481 0.62119 0.02487 0.0
C165 C 0.64621 0.53871 0.07698 0.0
C166 C 0.68641 0.59286 0.02946 0.0
C167 C 0.59167 0.67658 0.02251 0.0
C168 C 0.58808 0.63411 0.04595 0.0
C169 C 0.62624 0.69081 0.99806 0.0
C170 C 0.65778 0.66318 0.99934 0.0
Eu171 Eu 0.55374 0.5469 0.10575 0.0
N172 N 0.55529 0.6194 0.07057 0.0
C173 C 0.56105 0.70365 0.0261 0.0
C174 C 0.52741 0.64613 0.07883 0.0
C175 C 0.52916 0.68841 0.05537 0.0
H176 H 0.64323 0.50684 0.09815 0.0
H177 H 0.50631 0.70928 0.0608 0.0
H178 H 0.3891 0.55536 0.9758 0.0
H179 H 0.48893 0.32688 0.08182 0.0
H180 H 0.50417 0.63513 0.10458 0.0
H181 H 0.56263 0.73649 1.00856 0.0
H182 H 0.50914 0.39574 0.03142 0.0
H183 H 0.70666 0.52947 0.06048 0.0
H184 H 0.62933 0.72328 0.97937 0.0
H185 H 0.68461 0.67469 0.98133 0.0
H186 H 0.32416 0.55306 0.01164 0.0
H187 H 0.71424 0.60266 0.01302 0.0
H188 H 0.42415 0.31927 0.12052 0.0
N189 N 0.40798 0.49442 0.02237 0.0
C190 C 0.39552 0.45769 0.05193 0.0
C191 C 0.34428 0.52624 0.02423 0.0
C192 C 0.35755 0.45458 0.07121 0.0
C193 C 0.38186 0.52774 1.00529 0.0
C194 C 0.33239 0.48973 0.05823 0.0
N195 N 0.4569 0.42626 0.04343 0.0
C196 C 0.48093 0.39246 0.04852 0.0
C197 C 0.40747 0.38402 0.09049 0.0
C198 C 0.42018 0.42261 0.06158 0.0
C199 C 0.4328 0.34939 0.09833 0.0
C200 C 0.46949 0.35358 0.07674 0.0
H201 H 0.30307 0.48861 0.07239 0.0
H202 H 0.3166 0.41366 0.11729 0.0
H203 H 0.36026 0.35198 0.13412 0.0
O204 O 0.48646 0.47287 0.91767 0.0
O205 O 0.49227 0.46397 0.09316 0.0
O206 O 0.49531 0.5204 0.1326 0.0
O207 O 0.42419 0.47822 0.92922 0.0
O208 O 0.53922 0.47109 0.0108 0.0
O209 O 0.57024 0.48032 0.10383 0.0
O210 O 0.56661 0.57745 0.17959 0.0
O211 O 0.56486 0.54777 0.01317 0.0
O212 O 0.50109 0.55281 0.95511 0.0
O213 O 0.59179 0.51665 0.18949 0.0
O214 O 0.48633 0.56715 0.08583 0.0
O215 O 0.4614 0.5605 0.99076 0.0
C216 C 0.48447 0.48225 0.13378 0.0
C217 C 0.43475 0.49047 0.8325 0.0
C218 C 0.40257 0.48235 0.73398 0.0
C219 C 0.39486 0.52538 0.71846 0.0
C220 C 0.42777 0.53313 0.81537 0.0
C221 C 0.40813 0.55045 0.75842 0.0
C222 C 0.42342 0.46551 0.79156 0.0
C223 C 0.56853 0.46321 0.0577 0.0
C224 C 0.44801 0.47092 0.89469 0.0
C225 C 0.34545 0.41643 0.10166 0.0
C226 C 0.37024 0.38124 0.11106 0.0
C227 C 0.54049 0.56047 0.9623 0.0
C228 C 0.62753 0.56147 0.24742 0.0
C229 C 0.66051 0.58874 0.33202 0.0
C230 C 0.69594 0.59588 0.30694 0.0
C231 C 0.66326 0.56863 0.22331 0.0
C232 C 0.62645 0.57114 0.30216 0.0
C233 C 0.69734 0.58556 0.25314 0.0
C234 C 0.46282 0.57989 0.0341 0.0
C235 C 0.5898 0.54797 0.21402 0.0
H236 H 0.37777 0.54009 0.67601 0.0
H237 H 0.43612 0.55274 0.84667 0.0
H238 H 0.40195 0.58333 0.74569 0.0
H239 H 0.43033 0.43284 0.80576 0.0
H240 H 0.72264 0.6092 0.3292 0.0
H241 H 0.66468 0.56182 0.18118 0.0
H242 H 0.59866 0.56629 0.32053 0.0
H243 H 0.72478 0.59115 0.23417 0.0
H244 H 0.24485 0.15714 0.57796 0.0
H245 H 0.19535 0.22398 0.40289 0.0
H246 H 0.12868 0.1921 0.41039 0.0
H247 H 0.08698 0.13913 0.46294 0.0
H248 H 0.13629 0.07365 0.63887 0.0
H249 H 0.20038 0.11126 0.63539 0.0
C250 C 0.21916 0.16529 0.54199 0.0
C251 C 0.22492 0.19266 0.48984 0.0
C252 C 0.18106 0.14682 0.5467 0.0
C253 C 0.19149 0.20318 0.44355 0.0
C254 C 0.15351 0.18472 0.44769 0.0
C255 C 0.11164 0.13371 0.50071 0.0
C256 C 0.10741 0.10337 0.55077 0.0
C257 C 0.14828 0.15562 0.49841 0.0
C258 C 0.13906 0.09686 0.59991 0.0
C259 C 0.17572 0.1182 0.59779 0.0
H260 H 0.37311 0.75337 0.95836 0.0
H261 H 0.34355 0.71698 0.13179 0.0
H262 H 0.37783 0.64992 0.14564 0.0
H263 H 0.42066 0.60373 0.11041 0.0
H264 H 0.44713 0.63966 0.93495 0.0
H265 H 0.4096 0.70473 0.91958 0.0
C266 C 0.37373 0.73042 0.99881 0.0
C267 C 0.35607 0.73994 0.04413 0.0
C268 C 0.39326 0.69209 1.00617 0.0
C269 C 0.35679 0.7101 0.09628 0.0
C270 C 0.37662 0.67196 0.10428 0.0
C271 C 0.41785 0.62578 0.06875 0.0
C272 C 0.43692 0.61727 0.02403 0.0
C273 C 0.39567 0.66293 0.05994 0.0
C274 C 0.43266 0.64564 0.96991 0.0
C275 C 0.41135 0.68287 0.96121 0.0
H276 H 0.89365 0.78065 0.63661 0.0
H277 H 0.80495 0.85086 0.68878 0.0
H278 H 0.83807 0.91522 0.65003 0.0
H279 H 0.89623 0.95059 0.60968 0.0
H280 H 0.98306 0.87975 0.5539 0.0
H281 H 0.94666 0.81678 0.58519 0.0
C282 C 0.88118 0.81019 0.63829 0.0
C283 C 0.84703 0.81125 0.66538 0.0
C284 C 0.90036 0.84687 0.61594 0.0
C285 C 0.83103 0.8495 0.6676 0.0
C286 C 0.85017 0.88618 0.6459 0.0
C287 C 0.907 0.92147 0.6038 0.0
C288 C 0.94294 0.92006 0.58036 0.0
C289 C 0.8855 0.88516 0.62129 0.0
C290 C 0.95589 0.88198 0.57228 0.0
C291 C 0.93505 0.84578 0.59025 0.0
H292 H 0.67923 0.33561 0.9933 0.0
H293 H 0.69419 0.28408 0.17893 0.0
H294 H 0.65698 0.34341 0.1927 0.0
H295 H 0.61262 0.40605 0.14873 0.0
H296 H 0.59735 0.45476 0.96166 0.0
H297 H 0.64241 0.40112 0.95169 0.0
C298 C 0.67521 0.33804 0.03694 0.0
C299 C 0.68948 0.30591 0.08507 0.0
C300 C 0.65317 0.37158 0.04407 0.0
C301 C 0.68381 0.30887 0.14141 0.0
C302 C 0.66221 0.34257 0.14909 0.0
C303 C 0.61988 0.40525 0.10613 0.0
C304 C 0.60106 0.43395 0.05587 0.0
C305 C 0.64561 0.37359 0.10038 0.0
C306 C 0.61075 0.43257 1.00088 0.0
C307 C 0.63662 0.40193 0.99505 0.0
H308 H 0.2067 0.88424 0.16483 0.0
H309 H 0.11251 0.8109 0.08774 0.0
H310 H 0.07442 0.81129 0.16711 0.0
H311 H 0.0661 0.83579 0.25534 0.0
H312 H 0.15854 0.91223 0.32986 0.0
H313 H 0.19886 0.90785 0.25448 0.0
C314 C 0.17817 0.8678 0.1662 0.0
C315 C 0.16256 0.84712 0.12115 0.0
C316 C 0.15587 0.86928 0.21098 0.0
C317 C 0.12515 0.8267 0.12237 0.0
C318 C 0.10334 0.82711 0.16752 0.0
C319 C 0.09527 0.85114 0.25543 0.0
C320 C 0.10924 0.87434 0.2982 0.0
C321 C 0.1181 0.84879 0.2116 0.0
C322 C 0.14684 0.89456 0.2971 0.0
C323 C 0.17004 0.89186 0.2542 0.0
H324 H 0.59662 0.66325 0.73111 0.0
H325 H 0.71378 0.61415 0.82914 0.0
H326 H 0.68111 0.57668 0.90863 0.0
H327 H 0.61983 0.55787 0.95072 0.0
H328 H 0.50236 0.60862 0.85746 0.0
H329 H 0.53422 0.64448 0.77511 0.0
C330 C 0.61486 0.64429 0.76992 0.0
C331 C 0.65767 0.64181 0.77436 0.0
C332 C 0.59582 0.62306 0.81624 0.0
C333 C 0.68093 0.61715 0.82497 0.0
C334 C 0.66225 0.59556 0.87041 0.0
C335 C 0.60122 0.57742 0.91303 0.0
C336 C 0.55892 0.58124 0.91104 0.0
C337 C 0.61984 0.59851 0.86673 0.0
C338 C 0.53506 0.60528 0.86041 0.0
C339 C 0.55331 0.62593 0.8134 0.0
H340 H 0.83991 0.1241 0.24129 0.0
H341 H 0.93824 0.20437 0.19611 0.0
H342 H 0.98215 0.17268 0.28915 0.0
H343 H 0.99428 0.11803 0.37933 0.0
H344 H 0.89694 0.03543 0.42196 0.0
H345 H 0.85091 0.0718 0.33406 0.0
C346 C 0.8706 0.13526 0.25273 0.0
C347 C 0.88584 0.16669 0.21253 0.0
C348 C 0.89605 0.11587 0.30519 0.0
C349 C 0.92592 0.18041 0.22689 0.0
C350 C 0.95107 0.16207 0.27971 0.0
C351 C 0.96302 0.10799 0.36907 0.0
C352 C 0.94894 0.07407 0.40665 0.0
C353 C 0.93684 0.12898 0.31839 0.0
C354 C 0.9083 0.06158 0.39356 0.0
C355 C 0.88202 0.08236 0.34339 0.0
H356 H 0.35477 0.3446 0.58557 0.0
H357 H 0.34223 0.45205 0.44286 0.0
H358 H 0.36085 0.4962 0.51267 0.0
H359 H 0.38601 0.50383 0.6126 0.0
H360 H 0.38521 0.39857 0.75683 0.0
H361 H 0.36737 0.35433 0.68742 0.0
C362 C 0.35498 0.37771 0.56948 0.0
C363 C 0.34838 0.39452 0.50849 0.0
C364 C 0.3643 0.40345 0.61006 0.0
C365 C 0.34882 0.43775 0.48924 0.0
C366 C 0.35924 0.46323 0.52921 0.0
C367 C 0.38093 0.47158 0.62983 0.0
C368 C 0.38833 0.45522 0.69104 0.0
C369 C 0.36801 0.4463 0.58966 0.0
C370 C 0.38193 0.41264 0.7106 0.0
C371 C 0.3709 0.38703 0.6707 0.0
H372 H 0.66137 0.60587 0.59268 0.0
H373 H 0.69546 0.72999 0.52022 0.0
H374 H 0.68887 0.71368 0.42337 0.0
H375 H 0.67755 0.66297 0.36025 0.0
H376 H 0.64029 0.54004 0.43096 0.0
H377 H 0.64317 0.55728 0.52721 0.0
C378 C 0.66643 0.62972 0.55556 0.0
C379 C 0.67944 0.66902 0.56424 0.0
C380 C 0.66227 0.62023 0.49964 0.0
C381 C 0.68627 0.69924 0.51533 0.0
C382 C 0.68238 0.68999 0.45977 0.0
C383 C 0.6699 0.64009 0.39678 0.0
C384 C 0.65918 0.60019 0.38891 0.0
C385 C 0.67127 0.65036 0.45168 0.0
C386 C 0.64866 0.57094 0.43614 0.0
C387 C 0.65043 0.58077 0.49113 0.0
H388 H 0.89629 0.1034 0.06068 0.0
H389 H 0.85382 0.21419 0.93279 0.0
H390 H 0.88463 0.1901 0.85913 0.0
H391 H 0.92727 0.13897 0.83301 0.0
H392 H 0.97071 0.02953 0.9633 0.0
H393 H 0.93641 0.05197 0.03427 0.0
C394 C 0.89402 0.12252 0.01683 0.0
C395 C 0.87327 0.16086 1.0026 0.0
C396 C 0.9122 0.10877 0.97518 0.0
C397 C 0.86959 0.18457 0.94497 0.0
C398 C 0.88738 0.17088 0.90293 0.0
C399 C 0.92878 0.11989 0.87674 0.0
C400 C 0.95181 0.08278 0.893 0.0
C401 C 0.9092 0.13321 0.91774 0.0
C402 C 0.95371 0.05848 0.94995 0.0
C403 C 0.934 0.07122 0.99052 0.0
H404 H 0.35848 0.43135 0.30449 0.0
H405 H 0.41594 0.31221 0.32909 0.0
H406 H 0.45715 0.34063 0.25418 0.0
H407 H 0.48151 0.40131 0.18838 0.0
H408 H 0.42559 0.52054 0.16896 0.0
H409 H 0.38007 0.49045 0.23642 0.0
C410 C 0.38003 0.41152 0.29353 0.0
C411 C 0.3845 0.36984 0.32308 0.0
C412 C 0.40455 0.42834 0.25221 0.0
C413 C 0.41174 0.34436 0.30704 0.0
C414 C 0.43569 0.36073 0.2647 0.0
C415 C 0.45921 0.42049 0.19896 0.0
C416 C 0.45702 0.46306 0.17421 0.0
C417 C 0.43316 0.40295 0.23819 0.0
C418 C 0.42817 0.48778 0.18815 0.0
C419 C 0.40194 0.47056 0.22635 0.0
H420 H 0.12832 0.8526 0.87996 0.0
H421 H 0.18906 0.96044 0.92453 0.0
H422 H 0.15501 1.00302 0.83081 0.0
H423 H 0.10861 1.00913 0.73547 0.0
H424 H 0.04829 0.90091 0.69066 0.0
H425 H 0.08177 0.85876 0.78444 0.0
C426 C 0.13393 0.88543 0.86881 0.0
C427 C 0.16092 0.90364 0.90847 0.0
C428 C 0.11452 0.9095 0.81477 0.0
C429 C 0.1683 0.94606 0.89417 0.0
C430 C 0.14888 0.9703 0.84077 0.0
C431 C 0.10258 0.97639 0.7466 0.0
C432 C 0.07612 0.9581 0.70629 0.0
C433 C 0.12196 0.95234 0.80066 0.0
C434 C 0.06893 0.91557 0.72079 0.0
C435 C 0.0879 0.89149 0.7745 0.0
loop_
_geom_bond_atom_site_label_1
_geom_bond_atom_site_label_2
_geom_bond_distance
_geom_bond_site_symmetry_2
_ccdc_geom_bond_type
H0 C1 0.949 . S
C1 H0 0.949 . S
C1 C2 1.395 . S
C1 C3 1.391 . S
C2 C1 1.395 . S
C2 C5 1.390 . S
C3 C1 1.391 . S
C3 C7 1.387 1_554 S
C3 C8 1.491 . S
H4 C5 0.950 . S
C5 C2 1.390 . S
C5 H4 0.950 . S
C5 C6 1.378 1_554 S
C6 C5 1.378 1_556 S
C6 C7 1.409 . S
C7 C3 1.387 1_556 S
C7 C6 1.409 . S
C7 H9 0.951 . S
C8 C3 1.491 . S
C8 C10 1.382 . S
C8 C12 1.404 1_554 S
H9 C7 0.951 . S
C10 C8 1.382 . S
C10 C11 1.390 . S
C10 H15 0.949 . S
C11 C10 1.390 . S
C11 C16 1.399 . S
C12 C8 1.404 1_556 S
C12 H13 0.950 . S
C12 C14 1.375 . S
H13 C12 0.950 . S
C14 C12 1.375 . S
C14 C16 1.382 1_556 S
C14 H18 0.950 . S
H15 C10 0.949 . S
C16 C11 1.399 . S
C16 C14 1.382 1_554 S
C16 H17 0.952 . S
H17 C16 0.952 . S
H18 C14 0.950 . S
H19 C20 0.949 . S
C20 H19 0.949 . S
C20 C21 1.395 . S
C20 C22 1.391 . S
C21 C20 1.395 . S
C21 C24 1.390 . S
C22 C20 1.391 . S
C22 C26 1.387 . S
C22 C27 1.491 . S
H23 C24 0.950 . S
C24 C21 1.390 . S
C24 H23 0.950 . S
C24 C25 1.378 . S
C25 C24 1.378 . S
C25 C26 1.409 . S
C26 C22 1.387 . S
C26 C25 1.409 . S
C26 H28 0.951 . S
C27 C22 1.491 . S
C27 C29 1.382 . S
C27 C31 1.404 . S
H28 C26 0.951 . S
C29 C27 1.382 . S
C29 C30 1.390 . S
C29 H34 0.949 . S
C30 C29 1.390 . S
C30 C35 1.399 . S
C31 C27 1.404 . S
C31 H32 0.950 . S
C31 C33 1.375 . S
H32 C31 0.950 . S
C33 C31 1.375 . S
C33 C35 1.382 . S
C33 H37 0.950 . S
H34 C29 0.949 . S
C35 C30 1.399 . S
C35 C33 1.382 . S
C35 H36 0.952 . S
H36 C35 0.952 . S
H37 C33 0.950 . S
H38 C39 0.949 . S
C39 H38 0.949 . S
C39 C40 1.395 . S
C39 C41 1.391 . S
C40 C39 1.395 . S
C40 C43 1.390 . S
C41 C39 1.391 . S
C41 C45 1.387 . S
C41 C46 1.491 . S
H42 C43 0.950 . S
C43 C40 1.390 . S
C43 H42 0.950 . S
C43 C44 1.378 . S
C44 C43 1.378 . S
C44 C45 1.409 . S
C45 C41 1.387 . S
C45 C44 1.409 . S
C45 H47 0.951 1_554 S
C46 C41 1.491 . S
C46 C48 1.382 . S
C46 C50 1.404 1_554 S
H47 C45 0.951 1_556 S
C48 C46 1.382 . S
C48 C49 1.390 . S
C48 H53 0.949 . S
C49 C48 1.390 . S
C49 C54 1.399 1_554 S
C50 C46 1.404 1_556 S
C50 H51 0.950 . S
C50 C52 1.375 . S
H51 C50 0.950 . S
C52 C50 1.375 . S
C52 C54 1.382 . S
C52 H56 0.950 . S
H53 C48 0.949 . S
C54 C49 1.399 1_556 S
C54 C52 1.382 . S
C54 H55 0.952 . S
H55 C54 0.952 . S
H56 C52 0.950 . S
H57 C58 0.949 . S
C58 H57 0.949 . S
C58 C59 1.395 . S
C58 C60 1.391 . S
C59 C58 1.395 . S
C59 C62 1.390 . S
C60 C58 1.391 . S
C60 C64 1.387 . S
C60 C65 1.491 . S
H61 C62 0.950 . S
C62 C59 1.390 . S
C62 H61 0.950 . S
C62 C63 1.378 . S
C63 C62 1.378 . S
C63 C64 1.409 . S
C64 C60 1.387 . S
C64 C63 1.409 . S
C64 H66 0.951 . S
C65 C60 1.491 . S
C65 C67 1.382 . S
C65 C69 1.404 . S
H66 C64 0.951 . S
C67 C65 1.382 . S
C67 C68 1.390 . S
C67 H72 0.949 . S
C68 C67 1.390 . S
C68 C73 1.399 . S
C69 C65 1.404 . S
C69 H70 0.950 . S
C69 C71 1.375 . S
H70 C69 0.950 . S
C71 C69 1.375 . S
C71 C73 1.382 . S
C71 H75 0.950 . S
H72 C67 0.949 . S
C73 C68 1.399 . S
C73 C71 1.382 . S
C73 H74 0.952 . S
H74 C73 0.952 . S
H75 C71 0.950 . S
Eu76 N105 2.600 . S
Eu76 N111 2.562 . S
Eu76 O120 2.462 . S
Eu76 O121 2.373 . S
Eu76 O123 2.432 . S
Eu76 O124 2.291 1_565 S
Eu76 O128 2.335 1_465 S
Eu76 O131 2.372 1_455 S
Eu76 C140 2.787 . S
C77 N78 1.365 . S
C77 C80 1.405 . S
C77 C84 1.448 . S
N78 C77 1.365 . S
N78 C81 1.319 1_655 S
N78 Eu87 2.600 . S
C79 C81 1.397 . S
C79 C82 1.367 1_455 S
C79 H99 0.931 . S
C80 C77 1.405 . S
C80 C82 1.403 . S
C80 C86 1.439 . S
C81 N78 1.319 1_455 S
C81 C79 1.397 . S
C81 H92 0.930 . S
C82 C79 1.367 1_655 S
C82 C80 1.403 . S
C82 H103 0.929 . S
C83 C84 1.430 . S
C83 C85 1.387 . S
C83 C89 1.404 . S
C84 C77 1.448 . S
C84 C83 1.430 . S
C84 N88 1.351 . S
C85 C83 1.387 . S
C85 C86 1.374 . S
C85 H100 0.931 . S
C86 C80 1.439 . S
C86 C85 1.374 . S
C86 H101 0.931 . S
Eu87 N78 2.600 . S
Eu87 N88 2.562 . S
Eu87 O122 2.335 1_655 S
Eu87 O125 2.372 1_655 S
Eu87 O126 2.462 . S
Eu87 O127 2.373 . S
Eu87 O129 2.432 . S
Eu87 O130 2.291 1_545 S
Eu87 C151 2.787 . S
N88 C84 1.351 . S
N88 Eu87 2.562 . S
N88 C90 1.325 . S
C89 C83 1.404 . S
C89 C91 1.366 . S
C89 H97 0.930 . S
C90 N88 1.325 . S
C90 C91 1.416 . S
C90 H96 0.929 . S
C91 C89 1.366 . S
C91 C90 1.416 . S
C91 H93 0.930 . S
H92 C81 0.930 . S
H93 C91 0.930 . S
H94 C109 0.930 1_655 S
H95 C116 0.930 . S
H96 C90 0.929 . S
H97 C89 0.930 . S
H98 C112 0.929 . S
H99 C79 0.931 . S
H100 C85 0.931 . S
H101 C86 0.931 . S
H102 C107 0.931 1_655 S
H103 C82 0.929 . S
H104 C115 0.930 . S
N105 Eu76 2.600 . S
N105 C106 1.365 . S
N105 C109 1.319 . S
C106 N105 1.365 . S
C106 C108 1.405 . S
C106 C114 1.448 . S
C107 H102 0.931 1_455 S
C107 C109 1.397 . S
C107 C110 1.367 . S
C108 C106 1.405 . S
C108 C110 1.403 . S
C108 C141 1.439 . S
C109 H94 0.930 1_455 S
C109 N105 1.319 . S
C109 C107 1.397 . S
C110 C107 1.367 . S
C110 C108 1.403 . S
C110 H117 0.929 . S
N111 Eu76 2.562 . S
N111 C112 1.325 . S
N111 C114 1.351 . S
C112 H98 0.929 . S
C112 N111 1.325 . S
C112 C116 1.416 . S
C113 C114 1.430 . S
C113 C115 1.404 . S
C113 C142 1.387 . S
C114 C106 1.448 . S
C114 N111 1.351 . S
C114 C113 1.430 . S
C115 H104 0.930 . S
C115 C113 1.404 . S
C115 C116 1.366 . S
C116 H95 0.930 . S
C116 C112 1.416 . S
C116 C115 1.366 . S
H117 C110 0.929 . S
H118 C141 0.931 . S
H119 C142 0.931 . S
O120 Eu76 2.462 . S
O120 C140 1.252 . S
O121 Eu76 2.373 . S
O121 C132 1.249 . S
O122 Eu87 2.335 1_455 S
O122 C132 1.264 1_545 S
O123 Eu76 2.432 . S
O123 C140 1.268 . S
O124 Eu76 2.291 1_545 S
O124 C139 1.255 . S
O125 Eu87 2.372 1_455 S
O125 C139 1.257 . S
O126 Eu87 2.462 . S
O126 C151 1.252 . S
O127 Eu87 2.373 . S
O127 C143 1.249 . S
O128 Eu76 2.335 1_645 S
O128 C143 1.264 . S
O129 Eu87 2.432 . S
O129 C151 1.268 . S
O130 Eu87 2.291 1_565 S
O130 C150 1.255 . S
O131 Eu76 2.372 1_655 S
O131 C150 1.257 . S
C132 O121 1.249 . S
C132 O122 1.264 1_565 S
C133 C136 1.382 . S
C133 C138 1.390 . S
C133 C140 1.506 . S
C134 C135 1.398 . S
C134 C138 1.392 . S
C135 C134 1.398 . S
C135 C137 1.372 . S
C135 H152 0.931 . S
C136 C133 1.382 . S
C136 C137 1.390 . S
C136 H153 0.931 . S
C137 C135 1.372 . S
C137 C136 1.390 . S
C137 H154 0.929 . S
C138 C133 1.390 . S
C138 C134 1.392 . S
C138 H155 0.930 . S
C139 O124 1.255 . S
C139 O125 1.257 . S
C140 Eu76 2.787 . S
C140 O120 1.252 . S
C140 O123 1.268 . S
C140 C133 1.506 . S
C141 C108 1.439 . S
C141 H118 0.931 . S
C141 C142 1.374 . S
C142 C113 1.387 . S
C142 H119 0.931 . S
C142 C141 1.374 . S
C143 O127 1.249 . S
C143 O128 1.264 . S
C144 C147 1.382 . S
C144 C148 1.390 . S
C144 C151 1.506 . S
C145 C146 1.398 . S
C145 C148 1.392 . S
C146 C145 1.398 . S
C146 C149 1.372 . S
C146 H156 0.931 . S
C147 C144 1.382 . S
C147 C149 1.390 . S
C147 H157 0.931 . S
C148 C144 1.390 . S
C148 C145 1.392 . S
C148 H158 0.930 . S
C149 C146 1.372 . S
C149 C147 1.390 . S
C149 H159 0.929 . S
C150 O130 1.255 . S
C150 O131 1.257 . S
C151 Eu87 2.787 . S
C151 O126 1.252 . S
C151 O129 1.268 . S
C151 C144 1.506 . S
H152 C135 0.931 . S
H153 C136 0.931 . S
H154 C137 0.929 . S
H155 C138 0.930 . S
H156 C146 0.931 . S
H157 C147 0.931 . S
H158 C148 0.930 . S
H159 C149 0.929 . S
Eu160 N189 2.604 . S
Eu160 N195 2.564 . S
Eu160 O204 2.444 1_554 S
Eu160 O205 2.393 . S
Eu160 O207 2.414 1_554 S
Eu160 O208 2.295 . S
Eu160 O212 2.326 1_554 S
Eu160 O215 2.379 . S
Eu160 C224 2.767 1_554 S
C161 N162 1.365 . S
C161 C164 1.405 . S
C161 C168 1.448 . S
N162 C161 1.365 . S
N162 C165 1.319 . S
N162 Eu171 2.600 . S
C163 C165 1.397 . S
C163 C166 1.367 . S
C163 H183 0.931 . S
C164 C161 1.405 . S
C164 C166 1.403 . S
C164 C170 1.439 . S
C165 N162 1.319 . S
C165 C163 1.397 . S
C165 H176 0.930 . S
C166 C163 1.367 . S
C166 C164 1.403 . S
C166 H187 0.929 . S
C167 C168 1.430 . S
C167 C169 1.387 . S
C167 C173 1.404 . S
C168 C161 1.448 . S
C168 C167 1.430 . S
C168 N172 1.351 . S
C169 C167 1.387 . S
C169 C170 1.374 . S
C169 H184 0.931 . S
C170 C164 1.439 . S
C170 C169 1.374 . S
C170 H185 0.931 . S
Eu171 N162 2.600 . S
Eu171 N172 2.562 . S
Eu171 O206 2.335 . S
Eu171 O209 2.372 . S
Eu171 O210 2.462 . S
Eu171 O211 2.373 . S
Eu171 O213 2.432 . S
Eu171 O214 2.291 . S
Eu171 C235 2.787 . S
N172 C168 1.351 . S
N172 Eu171 2.562 . S
N172 C174 1.325 . S
C173 C167 1.404 . S
C173 C175 1.366 . S
C173 H181 0.930 . S
C174 N172 1.325 . S
C174 C175 1.416 . S
C174 H180 0.929 . S
C175 C173 1.366 . S
C175 C174 1.416 . S
C175 H177 0.930 . S
H176 C165 0.930 . S
H177 C175 0.930 . S
H178 C193 0.930 . S
H179 C200 0.930 . S
H180 C174 0.929 . S
H181 C173 0.930 . S
H182 C196 0.929 . S
H183 C163 0.931 . S
H184 C169 0.931 . S
H185 C170 0.931 . S
H186 C191 0.931 . S
H187 C166 0.929 . S
H188 C199 0.930 . S
N189 Eu160 2.604 . S
N189 C190 1.365 . S
N189 C193 1.319 1_554 S
C190 N189 1.365 . S
C190 C192 1.405 . S
C190 C198 1.448 . S
C191 H186 0.931 . S
C191 C193 1.397 . S
C191 C194 1.367 1_556 S
C192 C190 1.405 . S
C192 C194 1.403 . S
C192 C225 1.439 . S
C193 H178 0.930 . S
C193 N189 1.319 1_556 S
C193 C191 1.397 . S
C194 C191 1.367 1_554 S
C194 C192 1.403 . S
C194 H201 0.929 . S
N195 Eu160 2.564 . S
N195 C196 1.325 . S
N195 C198 1.351 . S
C196 H182 0.929 . S
C196 N195 1.325 . S
C196 C200 1.416 . S
C197 C198 1.430 . S
C197 C199 1.404 . S
C197 C226 1.387 . S
C198 C190 1.448 . S
C198 N195 1.351 . S
C198 C197 1.430 . S
C199 H188 0.930 . S
C199 C197 1.404 . S
C199 C200 1.366 . S
C200 H179 0.930 . S
C200 C196 1.416 . S
C200 C199 1.366 . S
H201 C194 0.929 . S
H202 C225 0.931 . S
H203 C226 0.931 . S
O204 Eu160 2.444 1_556 S
O204 C224 1.252 . S
O205 Eu160 2.393 . S
O205 C216 1.249 . S
O206 Eu171 2.335 . S
O206 C216 1.264 . S
O207 Eu160 2.414 1_556 S
O207 C224 1.268 . S
O208 Eu160 2.295 . S
O208 C223 1.255 . S
O209 Eu171 2.372 . S
O209 C223 1.257 . S
O210 Eu171 2.462 . S
O210 C235 1.252 . S
O211 Eu171 2.373 . S
O211 C227 1.249 1_554 S
O212 Eu160 2.326 1_556 S
O212 C227 1.264 . S
O213 Eu171 2.432 . S
O213 C235 1.268 . S
O214 Eu171 2.291 . S
O214 C234 1.255 . S
O215 Eu160 2.379 . S
O215 C234 1.257 . S
C216 O205 1.249 . S
C216 O206 1.264 . S
C217 C220 1.382 . S
C217 C222 1.390 . S
C217 C224 1.506 . S
C218 C219 1.398 . S
C218 C222 1.392 . S
C219 C218 1.398 . S
C219 C221 1.372 . S
C219 H236 0.931 . S
C220 C217 1.382 . S
C220 C221 1.390 . S
C220 H237 0.931 . S
C221 C219 1.372 . S
C221 C220 1.390 . S
C221 H238 0.929 . S
C222 C217 1.390 . S
C222 C218 1.392 . S
C222 H239 0.930 . S
C223 O208 1.255 . S
C223 O209 1.257 . S
C224 Eu160 2.767 1_556 S
C224 O204 1.252 . S
C224 O207 1.268 . S
C224 C217 1.506 . S
C225 C192 1.439 . S
C225 H202 0.931 . S
C225 C226 1.374 . S
C226 C197 1.387 . S
C226 H203 0.931 . S
C226 C225 1.374 . S
C227 O211 1.249 1_556 S
C227 O212 1.264 . S
C228 C231 1.382 . S
C228 C232 1.390 . S
C228 C235 1.506 . S
C229 C230 1.398 . S
C229 C232 1.392 . S
C230 C229 1.398 . S
C230 C233 1.372 . S
C230 H240 0.931 . S
C231 C228 1.382 . S
C231 C233 1.390 . S
C231 H241 0.931 . S
C232 C228 1.390 . S
C232 C229 1.392 . S
C232 H242 0.930 . S
C233 C230 1.372 . S
C233 C231 1.390 . S
C233 H243 0.929 . S
C234 O214 1.255 . S
C234 O215 1.257 . S
C235 Eu171 2.787 . S
C235 O210 1.252 . S
C235 O213 1.268 . S
C235 C228 1.506 . S
H236 C219 0.931 . S
H237 C220 0.931 . S
H238 C221 0.929 . S
H239 C222 0.930 . S
H240 C230 0.931 . S
H241 C231 0.931 . S
H242 C232 0.930 . S
H243 C233 0.929 . S
H244 C250 0.930 . S
H245 C253 0.930 . S
H246 C254 0.930 . S
H247 C255 0.930 . S
H248 C258 0.930 . S
H249 C259 0.930 . S
C250 H244 0.930 . S
C250 C251 1.355 . S
C250 C252 1.415 . S
C251 C250 1.355 . S
C251 C253 1.419 . S
C252 C250 1.415 . S
C252 C257 1.425 . S
C252 C259 1.409 . S
C253 H245 0.930 . S
C253 C251 1.419 . S
C253 C254 1.362 . S
C254 H246 0.930 . S
C254 C253 1.362 . S
C254 C257 1.409 . S
C255 H247 0.930 . S
C255 C256 1.355 . S
C255 C257 1.415 . S
C256 C255 1.355 . S
C256 C258 1.419 . S
C257 C252 1.425 . S
C257 C254 1.409 . S
C257 C255 1.415 . S
C258 H248 0.930 . S
C258 C256 1.419 . S
C258 C259 1.362 . S
C259 H249 0.930 . S
C259 C252 1.409 . S
C259 C258 1.362 . S
H260 C266 0.930 . S
H261 C269 0.930 . S
H262 C270 0.930 . S
H263 C271 0.930 . S
H264 C274 0.930 1_556 S
H265 C275 0.930 1_556 S
C266 H260 0.930 . S
C266 C267 1.355 . S
C266 C268 1.415 . S
C267 C266 1.355 . S
C267 C269 1.419 . S
C268 C266 1.415 . S
C268 C273 1.425 . S
C268 C275 1.409 . S
C269 H261 0.930 . S
C269 C267 1.419 . S
C269 C270 1.362 . S
C270 H262 0.930 . S
C270 C269 1.362 . S
C270 C273 1.409 . S
C271 H263 0.930 . S
C271 C272 1.355 . S
C271 C273 1.415 . S
C272 C271 1.355 . S
C272 C274 1.419 . S
C273 C268 1.425 . S
C273 C270 1.409 . S
C273 C271 1.415 . S
C274 H264 0.930 1_554 S
C274 C272 1.419 . S
C274 C275 1.362 . S
C275 H265 0.930 1_554 S
C275 C268 1.409 . S
C275 C274 1.362 . S
H276 C282 0.930 . S
H277 C285 0.930 . S
H278 C286 0.930 . S
H279 C287 0.930 . S
H280 C290 0.930 . S
H281 C291 0.930 . S
C282 H276 0.930 . S
C282 C283 1.355 . S
C282 C284 1.415 . S
C283 C282 1.355 . S
C283 C285 1.419 . S
C284 C282 1.415 . S
C284 C289 1.425 . S
C284 C291 1.409 . S
C285 H277 0.930 . S
C285 C283 1.419 . S
C285 C286 1.362 . S
C286 H278 0.930 . S
C286 C285 1.362 . S
C286 C289 1.409 . S
C287 H279 0.930 . S
C287 C288 1.355 . S
C287 C289 1.415 . S
C288 C287 1.355 . S
C288 C290 1.419 . S
C289 C284 1.425 . S
C289 C286 1.409 . S
C289 C287 1.415 . S
C290 H280 0.930 . S
C290 C288 1.419 . S
C290 C291 1.362 . S
C291 H281 0.930 . S
C291 C284 1.409 . S
C291 C290 1.362 . S
H292 C298 0.930 . S
H293 C301 0.930 . S
H294 C302 0.930 . S
H295 C303 0.930 . S
H296 C306 0.930 . S
H297 C307 0.930 . S
C298 H292 0.930 . S
C298 C299 1.355 . S
C298 C300 1.415 . S
C299 C298 1.355 . S
C299 C301 1.419 . S
C300 C298 1.415 . S
C300 C305 1.425 . S
C300 C307 1.409 . S
C301 H293 0.930 . S
C301 C299 1.419 . S
C301 C302 1.362 . S
C302 H294 0.930 . S
C302 C301 1.362 . S
C302 C305 1.409 . S
C303 H295 0.930 . S
C303 C304 1.355 . S
C303 C305 1.415 . S
C304 C303 1.355 . S
C304 C306 1.419 . S
C305 C300 1.425 . S
C305 C302 1.409 . S
C305 C303 1.415 . S
C306 H296 0.930 . S
C306 C304 1.419 . S
C306 C307 1.362 . S
C307 H297 0.930 . S
C307 C300 1.409 . S
C307 C306 1.362 . S
H308 C314 0.930 . S
H309 C317 0.930 . S
H310 C318 0.930 . S
H311 C319 0.930 . S
H312 C322 0.930 . S
H313 C323 0.930 . S
C314 H308 0.930 . S
C314 C315 1.355 . S
C314 C316 1.415 . S
C315 C314 1.355 . S
C315 C317 1.419 . S
C316 C314 1.415 . S
C316 C321 1.425 . S
C316 C323 1.409 . S
C317 H309 0.930 . S
C317 C315 1.419 . S
C317 C318 1.362 . S
C318 H310 0.930 . S
C318 C317 1.362 . S
C318 C321 1.409 . S
C319 H311 0.930 . S
C319 C320 1.355 . S
C319 C321 1.415 . S
C320 C319 1.355 . S
C320 C322 1.419 . S
C321 C316 1.425 . S
C321 C318 1.409 . S
C321 C319 1.415 . S
C322 H312 0.930 . S
C322 C320 1.419 . S
C322 C323 1.362 . S
C323 H313 0.930 . S
C323 C316 1.409 . S
C323 C322 1.362 . S
H324 C330 0.930 . S
H325 C333 0.930 . S
H326 C334 0.930 . S
H327 C335 0.930 . S
H328 C338 0.930 . S
H329 C339 0.930 . S
C330 H324 0.930 . S
C330 C331 1.355 . S
C330 C332 1.415 . S
C331 C330 1.355 . S
C331 C333 1.419 . S
C332 C330 1.415 . S
C332 C337 1.425 . S
C332 C339 1.409 . S
C333 H325 0.930 . S
C333 C331 1.419 . S
C333 C334 1.362 . S
C334 H326 0.930 . S
C334 C333 1.362 . S
C334 C337 1.409 . S
C335 H327 0.930 . S
C335 C336 1.355 . S
C335 C337 1.415 . S
C336 C335 1.355 . S
C336 C338 1.419 . S
C337 C332 1.425 . S
C337 C334 1.409 . S
C337 C335 1.415 . S
C338 H328 0.930 . S
C338 C336 1.419 . S
C338 C339 1.362 . S
C339 H329 0.930 . S
C339 C332 1.409 . S
C339 C338 1.362 . S
H340 C346 0.930 . S
H341 C349 0.930 . S
H342 C350 0.930 . S
H343 C351 0.930 . S
H344 C354 0.930 . S
H345 C355 0.930 . S
C346 H340 0.930 . S
C346 C347 1.355 . S
C346 C348 1.415 . S
C347 C346 1.355 . S
C347 C349 1.419 . S
C348 C346 1.415 . S
C348 C353 1.425 . S
C348 C355 1.409 . S
C349 H341 0.930 . S
C349 C347 1.419 . S
C349 C350 1.362 . S
C350 H342 0.930 . S
C350 C349 1.362 . S
C350 C353 1.409 . S
C351 H343 0.930 . S
C351 C352 1.355 . S
C351 C353 1.415 . S
C352 C351 1.355 . S
C352 C354 1.419 . S
C353 C348 1.425 . S
C353 C350 1.409 . S
C353 C351 1.415 . S
C354 H344 0.930 . S
C354 C352 1.419 . S
C354 C355 1.362 . S
C355 H345 0.930 . S
C355 C348 1.409 . S
C355 C354 1.362 . S
H356 C362 0.930 . S
H357 C365 0.930 . S
H358 C366 0.930 . S
H359 C367 0.930 . S
H360 C370 0.930 . S
H361 C371 0.930 . S
C362 H356 0.930 . S
C362 C363 1.355 . S
C362 C364 1.415 . S
C363 C362 1.355 . S
C363 C365 1.419 . S
C364 C362 1.415 . S
C364 C369 1.425 . S
C364 C371 1.409 . S
C365 H357 0.930 . S
C365 C363 1.419 . S
C365 C366 1.362 . S
C366 H358 0.930 . S
C366 C365 1.362 . S
C366 C369 1.409 . S
C367 H359 0.930 . S
C367 C368 1.355 . S
C367 C369 1.415 . S
C368 C367 1.355 . S
C368 C370 1.419 . S
C369 C364 1.425 . S
C369 C366 1.409 . S
C369 C367 1.415 . S
C370 H360 0.930 . S
C370 C368 1.419 . S
C370 C371 1.362 . S
C371 H361 0.930 . S
C371 C364 1.409 . S
C371 C370 1.362 . S
H372 C378 0.930 . S
H373 C381 0.930 . S
H374 C382 0.930 . S
H375 C383 0.930 . S
H376 C386 0.930 . S
H377 C387 0.930 . S
C378 H372 0.930 . S
C378 C379 1.355 . S
C378 C380 1.415 . S
C379 C378 1.355 . S
C379 C381 1.419 . S
C380 C378 1.415 . S
C380 C385 1.425 . S
C380 C387 1.409 . S
C381 H373 0.930 . S
C381 C379 1.419 . S
C381 C382 1.362 . S
C382 H374 0.930 . S
C382 C381 1.362 . S
C382 C385 1.409 . S
C383 H375 0.930 . S
C383 C384 1.355 . S
C383 C385 1.415 . S
C384 C383 1.355 . S
C384 C386 1.419 . S
C385 C380 1.425 . S
C385 C382 1.409 . S
C385 C383 1.415 . S
C386 H376 0.930 . S
C386 C384 1.419 . S
C386 C387 1.362 . S
C387 H377 0.930 . S
C387 C380 1.409 . S
C387 C386 1.362 . S
H388 C394 0.930 . S
H389 C397 0.930 . S
H390 C398 0.930 . S
H391 C399 0.930 . S
H392 C402 0.930 . S
H393 C403 0.930 . S
C394 H388 0.930 . S
C394 C395 1.355 . S
C394 C396 1.415 . S
C395 C394 1.355 . S
C395 C397 1.419 . S
C396 C394 1.415 . S
C396 C401 1.425 . S
C396 C403 1.409 . S
C397 H389 0.930 . S
C397 C395 1.419 . S
C397 C398 1.362 . S
C398 H390 0.930 . S
C398 C397 1.362 . S
C398 C401 1.409 . S
C399 H391 0.930 . S
C399 C400 1.355 . S
C399 C401 1.415 . S
C400 C399 1.355 . S
C400 C402 1.419 . S
C401 C396 1.425 . S
C401 C398 1.409 . S
C401 C399 1.415 . S
C402 H392 0.930 . S
C402 C400 1.419 . S
C402 C403 1.362 . S
C403 H393 0.930 . S
C403 C396 1.409 . S
C403 C402 1.362 . S
H404 C410 0.930 . S
H405 C413 0.930 . S
H406 C414 0.930 . S
H407 C415 0.930 . S
H408 C418 0.930 . S
H409 C419 0.930 . S
C410 H404 0.930 . S
C410 C411 1.355 . S
C410 C412 1.415 . S
C411 C410 1.355 . S
C411 C413 1.419 . S
C412 C410 1.415 . S
C412 C417 1.425 . S
C412 C419 1.409 . S
C413 H405 0.930 . S
C413 C411 1.419 . S
C413 C414 1.362 . S
C414 H406 0.930 . S
C414 C413 1.362 . S
C414 C417 1.409 . S
C415 H407 0.930 . S
C415 C416 1.355 . S
C415 C417 1.415 . S
C416 C415 1.355 . S
C416 C418 1.419 . S
C417 C412 1.425 . S
C417 C414 1.409 . S
C417 C415 1.415 . S
C418 H408 0.930 . S
C418 C416 1.419 . S
C418 C419 1.362 . S
C419 H409 0.930 . S
C419 C412 1.409 . S
C419 C418 1.362 . S
H420 C426 0.930 . S
H421 C429 0.930 . S
H422 C430 0.930 1_545 S
H423 C431 0.930 1_545 S
H424 C434 0.930 . S
H425 C435 0.930 . S
C426 H420 0.930 . S
C426 C427 1.355 . S
C426 C428 1.415 . S
C427 C426 1.355 . S
C427 C429 1.419 . S
C428 C426 1.415 . S
C428 C433 1.425 . S
C428 C435 1.409 . S
C429 H421 0.930 . S
C429 C427 1.419 . S
C429 C430 1.362 . S
C430 H422 0.930 1_565 S
C430 C429 1.362 . S
C430 C433 1.409 . S
C431 H423 0.930 1_565 S
C431 C432 1.355 . S
C431 C433 1.415 . S
C432 C431 1.355 . S
C432 C434 1.419 . S
C433 C428 1.425 . S
C433 C430 1.409 . S
C433 C431 1.415 . S
C434 H424 0.930 . S
C434 C432 1.419 . S
C434 C435 1.362 . S
C435 H425 0.930 . S
C435 C428 1.409 . S
C435 C434 1.362 . S
C256 C139 1.668 . S
C251 C68 1.654 . S
C267 C11 1.588 . S
C272 C234 1.683 . S
C283 C30 1.632 . S
C288 C150 1.693 . S
C299 C49 1.595 . S
C304 C223 1.659 . S
C320 C134 1.541 . S
C315 C2 1.648 . S
C336 C227 1.774 . S
C331 C25 1.753 . S
C347 C40 1.661 . S
C352 C143 1.701 . S
C363 C59 1.653 . S
C368 C218 1.544 . S
C384 C229 1.437 . S
C379 C21 1.614 . S
C400 C145 1.463 . S
C395 C44 1.592 1_556 S
C416 C216 1.668 . S
C411 C63 1.671 . S
C427 C6 1.640 . S
C432 C132 1.633 . S
