# Generated by pormake.
# Topology pyr, (3,6)-cn, num edge types: 1
# Building blocks:
#     Node 0, Type 0, BuildingBlock: MIDCAF_clean_linker_0, # of connection points: 3
#     Node 1, Type 0, BuildingBlock: MIDCAF_clean_linker_0, # of connection points: 3
#     Node 2, Type 0, BuildingBlock: MIDCAF_clean_linker_0, # of connection points: 3
#     Node 3, Type 0, BuildingBlock: MIDCAF_clean_linker_0, # of connection points: 3
#     Node 4, Type 0, BuildingBlock: MIDCAF_clean_linker_0, # of connection points: 3
#     Node 5, Type 0, BuildingBlock: MIDCAF_clean_linker_0, # of connection points: 3
#     Node 6, Type 0, BuildingBlock: MIDCAF_clean_linker_0, # of connection points: 3
#     Node 7, Type 0, BuildingBlock: MIDCAF_clean_linker_0, # of connection points: 3
#     Node 8, Type 1, BuildingBlock: MIDCAF_clean_sbu_0, # of connection points: 6
#     Node 9, Type 1, BuildingBlock: MIDCAF_clean_sbu_0, # of connection points: 6
#     Node 10, Type 1, BuildingBlock: MIDCAF_clean_sbu_0, # of connection points: 6
#     Node 11, Type 1, BuildingBlock: MIDCAF_clean_sbu_0, # of connection points: 6
#     Edge 12, Type (0, 1), BuildingBlock: XIVTED_clean_linker_0, # of connection points: 2
#     Edge 13, Type (0, 1), BuildingBlock: XIVTED_clean_linker_0, # of connection points: 2
#     Edge 14, Type (0, 1), BuildingBlock: XIVTED_clean_linker_0, # of connection points: 2
#     Edge 15, Type (0, 1), BuildingBlock: XIVTED_clean_linker_0, # of connection points: 2
#     Edge 16, Type (0, 1), BuildingBlock: XIVTED_clean_linker_0, # of connection points: 2
#     Edge 17, Type (0, 1), BuildingBlock: XIVTED_clean_linker_0, # of connection points: 2
#     Edge 18, Type (0, 1), BuildingBlock: XIVTED_clean_linker_0, # of connection points: 2
#     Edge 19, Type (0, 1), BuildingBlock: XIVTED_clean_linker_0, # of connection points: 2
#     Edge 20, Type (0, 1), BuildingBlock: XIVTED_clean_linker_0, # of connection points: 2
#     Edge 21, Type (0, 1), BuildingBlock: XIVTED_clean_linker_0, # of connection points: 2
#     Edge 22, Type (0, 1), BuildingBlock: XIVTED_clean_linker_0, # of connection points: 2
#     Edge 23, Type (0, 1), BuildingBlock: XIVTED_clean_linker_0, # of connection points: 2
#     Edge 24, Type (0, 1), BuildingBlock: XIVTED_clean_linker_0, # of connection points: 2
#     Edge 25, Type (0, 1), BuildingBlock: XIVTED_clean_linker_0, # of connection points: 2
#     Edge 26, Type (0, 1), BuildingBlock: XIVTED_clean_linker_0, # of connection points: 2
#     Edge 27, Type (0, 1), BuildingBlock: XIVTED_clean_linker_0, # of connection points: 2
#     Edge 28, Type (0, 1), BuildingBlock: XIVTED_clean_linker_0, # of connection points: 2
#     Edge 29, Type (0, 1), BuildingBlock: XIVTED_clean_linker_0, # of connection points: 2
#     Edge 30, Type (0, 1), BuildingBlock: XIVTED_clean_linker_0, # of connection points: 2
#     Edge 31, Type (0, 1), BuildingBlock: XIVTED_clean_linker_0, # of connection points: 2
#     Edge 32, Type (0, 1), BuildingBlock: XIVTED_clean_linker_0, # of connection points: 2
#     Edge 33, Type (0, 1), BuildingBlock: XIVTED_clean_linker_0, # of connection points: 2
#     Edge 34, Type (0, 1), BuildingBlock: XIVTED_clean_linker_0, # of connection points: 2
#     Edge 35, Type (0, 1), BuildingBlock: XIVTED_clean_linker_0, # of connection points: 2
# Relax obj value: 0.019
# Max RMSD: 0.062
# Mean RMSD: 0.023
data_MOF--net-pry--node1-MIDCAF_clean_sbu_0--node2-MIDCAF_clean_linker_0--edge1-XIVTED_clean_linker_0
_symmetry_space_group_name_H-M    P1
_symmetry_Int_Tables_number       1
_symmetry_cell_setting            triclinic
loop_
_symmetry_equiv_pos_as_xyz
'x, y, z'
_cell_length_a     43.677782
_cell_length_b     43.754039
_cell_length_c     43.722963
_cell_angle_alpha  89.856104
_cell_angle_beta   90.149875
_cell_angle_gamma 90.179072
loop_
_atom_site_label
_atom_site_type_symbol
_atom_site_fract_x
_atom_site_fract_y
_atom_site_fract_z
_atom_type_partial_charge
C0 C 0.17313 0.20733 0.32655 0.0
C1 C 0.19006 0.18723 0.34521 0.0
C2 C 0.22185 0.18501 0.34048 0.0
C3 C 0.23606 0.2013 0.31692 0.0
H4 H 0.2924 0.1793 0.23928 0.0
H5 H 0.33321 0.15476 0.21094 0.0
H6 H 0.35661 0.2415 0.16933 0.0
H7 H 0.31469 0.26566 0.1966 0.0
H8 H 0.25608 0.31218 0.18821 0.0
H9 H 0.23056 0.35504 0.16334 0.0
H10 H 0.15296 0.34326 0.22339 0.0
H11 H 0.17867 0.30114 0.24874 0.0
H12 H 0.17365 0.23877 0.28891 0.0
H13 H 0.14859 0.20943 0.32914 0.0
H14 H 0.23587 0.17047 0.35483 0.0
H15 H 0.26048 0.19859 0.31363 0.0
N16 N 0.25976 0.22487 0.25931 0.0
N17 N 0.26025 0.26412 0.22268 0.0
N18 N 0.22104 0.26188 0.2592 0.0
C19 C 0.2731 0.23852 0.23477 0.0
C20 C 0.23421 0.27597 0.23476 0.0
C21 C 0.23384 0.23649 0.27176 0.0
C22 C 0.30006 0.2244 0.21997 0.0
C23 C 0.30643 0.19321 0.22429 0.0
C24 C 0.33005 0.17913 0.20811 0.0
C25 C 0.34823 0.19599 0.18752 0.0
C26 C 0.34268 0.22753 0.18433 0.0
C27 C 0.31873 0.2415 0.20014 0.0
C28 C 0.21945 0.30304 0.22048 0.0
C29 C 0.23366 0.31885 0.19628 0.0
C30 C 0.21896 0.34338 0.18188 0.0
C31 C 0.18966 0.35266 0.19128 0.0
C32 C 0.17572 0.33716 0.21583 0.0
C33 C 0.19044 0.31276 0.23028 0.0
C34 C 0.21899 0.22073 0.29784 0.0
C35 C 0.18748 0.22406 0.30329 0.0
C36 C 0.19595 0.85128 0.72321 0.0
C37 C 0.18587 0.84179 0.69416 0.0
C38 C 0.20023 0.81656 0.68048 0.0
C39 C 0.22451 0.80171 0.69506 0.0
H40 H 0.28093 0.72543 0.68963 0.0
H41 H 0.30713 0.68373 0.66384 0.0
H42 H 0.38632 0.69788 0.72164 0.0
H43 H 0.35993 0.73872 0.74796 0.0
H44 H 0.36241 0.79648 0.79195 0.0
H45 H 0.38778 0.82508 0.83236 0.0
H46 H 0.30071 0.86331 0.85918 0.0
H47 H 0.27568 0.83584 0.81774 0.0
H48 H 0.22779 0.84479 0.75989 0.0
H49 H 0.18513 0.87031 0.73466 0.0
H50 H 0.19345 0.80885 0.65793 0.0
H51 H 0.23539 0.78283 0.6834 0.0
N52 N 0.27651 0.7733 0.72448 0.0
N53 N 0.31567 0.77476 0.76122 0.0
N54 N 0.27575 0.81039 0.76311 0.0
C55 C 0.30288 0.76158 0.73613 0.0
C56 C 0.30217 0.79903 0.77495 0.0
C57 C 0.26279 0.79773 0.73782 0.0
C58 C 0.31829 0.73554 0.7209 0.0
C59 C 0.30388 0.71953 0.69696 0.0
C60 C 0.31896 0.69567 0.68205 0.0
C61 C 0.34887 0.68733 0.69061 0.0
C62 C 0.36309 0.70318 0.71476 0.0
C63 C 0.34798 0.72686 0.72977 0.0
C64 C 0.31706 0.81414 0.8014 0.0
C65 C 0.34864 0.81081 0.80663 0.0
C66 C 0.3632 0.82712 0.83001 0.0
C67 C 0.34644 0.84683 0.84903 0.0
C68 C 0.31457 0.84902 0.84457 0.0
C69 C 0.30013 0.83311 0.82088 0.0
C70 C 0.23524 0.81179 0.72366 0.0
C71 C 0.22035 0.83649 0.73777 0.0
C72 C 0.72408 0.19556 0.84992 0.0
C73 C 0.69451 0.18642 0.84094 0.0
C74 C 0.68092 0.20085 0.81554 0.0
C75 C 0.69615 0.22431 0.8 0.0
H76 H 0.69356 0.27778 0.72096 0.0
H77 H 0.66762 0.30415 0.6792 0.0
H78 H 0.72782 0.38181 0.69122 0.0
H79 H 0.75432 0.35519 0.73209 0.0
H80 H 0.81356 0.34717 0.77481 0.0
H81 H 0.85482 0.37336 0.80181 0.0
H82 H 0.84427 0.31113 0.87801 0.0
H83 H 0.80392 0.28443 0.85078 0.0
H84 H 0.76181 0.22587 0.84238 0.0
H85 H 0.73547 0.18463 0.86905 0.0
H86 H 0.658 0.19479 0.80821 0.0
H87 H 0.6846 0.23532 0.78101 0.0
N88 N 0.72794 0.27379 0.76936 0.0
N89 N 0.76603 0.3117 0.7699 0.0
N90 N 0.76568 0.27352 0.80757 0.0
C91 C 0.7407 0.29922 0.75672 0.0
C92 C 0.77873 0.29894 0.79528 0.0
C93 C 0.74036 0.26073 0.79476 0.0
C94 C 0.72601 0.31436 0.73005 0.0
C95 C 0.70145 0.30038 0.71452 0.0
C96 C 0.68644 0.31558 0.69064 0.0
C97 C 0.69549 0.3452 0.68181 0.0
C98 C 0.72047 0.35885 0.69695 0.0
C99 C 0.7356 0.3436 0.72064 0.0
C100 C 0.80524 0.31373 0.81064 0.0
C101 C 0.82024 0.33888 0.79722 0.0
C102 C 0.84383 0.35403 0.81277 0.0
C103 C 0.85288 0.34449 0.84218 0.0
C104 C 0.83834 0.31887 0.85522 0.0
C105 C 0.81494 0.30363 0.83963 0.0
C106 C 0.7253 0.23412 0.80959 0.0
C107 C 0.73927 0.21915 0.83449 0.0
C108 C 0.69683 0.72053 0.35612 0.0
C109 C 0.68134 0.69584 0.34245 0.0
C110 C 0.69016 0.68663 0.31296 0.0
C111 C 0.71436 0.70128 0.29787 0.0
H112 H 0.76795 0.70059 0.21735 0.0
H113 H 0.79245 0.67261 0.17613 0.0
H114 H 0.87879 0.71602 0.19814 0.0
H115 H 0.85395 0.74497 0.23833 0.0
H116 H 0.8366 0.81778 0.27207 0.0
H117 H 0.86512 0.85813 0.2977 0.0
H118 H 0.82332 0.83263 0.38367 0.0
H119 H 0.79369 0.79336 0.35764 0.0
H120 H 0.73255 0.75374 0.35265 0.0
H121 H 0.69109 0.72795 0.379 0.0
H122 H 0.67848 0.66799 0.30155 0.0
H123 H 0.72078 0.6933 0.27536 0.0
N124 N 0.76907 0.72779 0.27093 0.0
N125 N 0.80863 0.76418 0.2716 0.0
N126 N 0.77148 0.76413 0.31019 0.0
C127 C 0.7948 0.7398 0.25814 0.0
C128 C 0.797 0.77657 0.29754 0.0
C129 C 0.75723 0.73985 0.29695 0.0
C130 C 0.80901 0.72485 0.23131 0.0
C131 C 0.79209 0.7044 0.21315 0.0
C132 C 0.80624 0.6882 0.1896 0.0
C133 C 0.83779 0.69165 0.18392 0.0
C134 C 0.85443 0.71295 0.20146 0.0
C135 C 0.84017 0.72948 0.22471 0.0
C136 C 0.81304 0.80222 0.31283 0.0
C137 C 0.83334 0.82097 0.2964 0.0
C138 C 0.84985 0.84403 0.3112 0.0
C139 C 0.84692 0.84856 0.34294 0.0
C140 C 0.82596 0.83023 0.35919 0.0
C141 C 0.80906 0.8075 0.34427 0.0
C142 C 0.73025 0.72553 0.31189 0.0
C143 C 0.72086 0.73523 0.34102 0.0
C144 C 0.8113 0.98198 0.90781 0.0
C145 C 0.79704 0.97784 0.93629 0.0
C146 C 0.80906 0.95616 0.9568 0.0
C147 C 0.83421 0.93836 0.9487 0.0
H148 H 0.88967 0.86274 0.97696 0.0
H149 H 0.89846 0.81441 0.00411 0.0
H150 H 0.92928 0.77322 0.92013 0.0
H151 H 0.9213 0.82149 0.89313 0.0
H152 H 0.95063 0.87081 0.84341 0.0
H153 H 0.98098 0.88379 0.79827 0.0
H154 H 0.94747 0.97644 0.80211 0.0
H155 H 0.91736 0.96373 0.84704 0.0
H156 H 0.84685 0.96774 0.87747 0.0
H157 H 0.80261 0.99864 0.89163 0.0
H158 H 0.79835 0.95216 0.97877 0.0
H159 H 0.84242 0.92143 0.96485 0.0
N160 N 0.87839 0.89492 0.92605 0.0
N161 N 0.91708 0.88189 0.89136 0.0
N162 N 0.89049 0.92804 0.88559 0.0
C163 C 0.90016 0.87504 0.91651 0.0
C164 C 0.91259 0.90851 0.87595 0.0
C165 C 0.87326 0.92139 0.91057 0.0
C166 C 0.90492 0.84589 0.93295 0.0
C167 C 0.89824 0.84332 0.96431 0.0
C168 C 0.90327 0.81578 0.97985 0.0
C169 C 0.91427 0.79018 0.96408 0.0
C170 C 0.92045 0.7926 0.93268 0.0
C171 C 0.91612 0.82026 0.91732 0.0
C172 C 0.93146 0.91621 0.84885 0.0
C173 C 0.94985 0.894 0.83472 0.0
C174 C 0.96717 0.90135 0.80882 0.0
C175 C 0.96675 0.93115 0.79679 0.0
C176 C 0.94865 0.95338 0.81113 0.0
C177 C 0.93115 0.946 0.83676 0.0
C178 C 0.8481 0.94195 0.91996 0.0
C179 C 0.83672 0.96436 0.89981 0.0
C180 C 0.59183 0.09021 0.30385 0.0
C181 C 0.57262 0.1122 0.29038 0.0
C182 C 0.57121 0.1415 0.30333 0.0
C183 C 0.58854 0.14859 0.32934 0.0
H184 H 0.61672 0.22049 0.38834 0.0
H185 H 0.60717 0.26799 0.41588 0.0
H186 H 0.63624 0.2254 0.50014 0.0
H187 H 0.64665 0.17783 0.47247 0.0
H188 H 0.6955 0.12012 0.46021 0.0
H189 H 0.73956 0.08946 0.4747 0.0
H190 H 0.73739 0.04484 0.38674 0.0
H191 H 0.69315 0.07568 0.372 0.0
H192 H 0.62392 0.0798 0.33927 0.0
H193 H 0.5938 0.06757 0.2941 0.0
H194 H 0.55654 0.15886 0.29348 0.0
H195 H 0.5869 0.17138 0.33878 0.0
N196 N 0.62138 0.16017 0.38596 0.0
N197 N 0.65982 0.147 0.42112 0.0
N198 N 0.64876 0.11459 0.37988 0.0
C199 C 0.63787 0.16674 0.4115 0.0
C200 C 0.66557 0.12096 0.40528 0.0
C201 C 0.62648 0.13398 0.37018 0.0
C202 C 0.63237 0.19546 0.42828 0.0
C203 C 0.6212 0.22125 0.41271 0.0
C204 C 0.61597 0.24847 0.42838 0.0
C205 C 0.62118 0.25026 0.46001 0.0
C206 C 0.63218 0.2245 0.47571 0.0
C207 C 0.63813 0.19741 0.45988 0.0
C208 C 0.69085 0.10051 0.41487 0.0
C209 C 0.70418 0.10363 0.44398 0.0
C210 C 0.72932 0.08586 0.4524 0.0
C211 C 0.7419 0.0647 0.43186 0.0
C212 C 0.72826 0.06109 0.40296 0.0
C213 C 0.70284 0.07866 0.39462 0.0
C214 C 0.60792 0.1266 0.34271 0.0
C215 C 0.60933 0.09734 0.32962 0.0
C216 C 0.30318 0.57449 0.13603 0.0
C217 C 0.29017 0.57724 0.10674 0.0
C218 C 0.30404 0.59685 0.08534 0.0
C219 C 0.33026 0.61345 0.09302 0.0
H220 H 0.37449 0.69523 0.07211 0.0
H221 H 0.38947 0.73996 0.0421 0.0
H222 H 0.47625 0.74273 0.08957 0.0
H223 H 0.46153 0.6981 0.11942 0.0
H224 H 0.47356 0.64661 0.17558 0.0
H225 H 0.50078 0.63523 0.22344 0.0
H226 H 0.41583 0.60624 0.26464 0.0
H227 H 0.38874 0.61674 0.21683 0.0
H228 H 0.33911 0.58832 0.16644 0.0
H229 H 0.29302 0.55947 0.15295 0.0
H230 H 0.29427 0.59987 0.06274 0.0
H231 H 0.34017 0.62842 0.07591 0.0
N232 N 0.38129 0.65115 0.11135 0.0
N233 N 0.42251 0.66098 0.14436 0.0
N234 N 0.38677 0.62271 0.15652 0.0
C235 C 0.40687 0.66749 0.11825 0.0
C236 C 0.41252 0.63872 0.16363 0.0
C237 C 0.37119 0.6286 0.13025 0.0
C238 C 0.41675 0.69313 0.09833 0.0
C239 C 0.39692 0.70515 0.07592 0.0
C240 C 0.40539 0.73086 0.05881 0.0
C241 C 0.43401 0.74484 0.06347 0.0
C242 C 0.45418 0.73225 0.08518 0.0
C243 C 0.44562 0.70678 0.10247 0.0
C244 C 0.42905 0.63244 0.19248 0.0
C245 C 0.46073 0.63787 0.1949 0.0
C246 C 0.47629 0.63136 0.22216 0.0
C247 C 0.46027 0.62013 0.24762 0.0
C248 C 0.42858 0.61519 0.24535 0.0
C249 C 0.41317 0.62098 0.21795 0.0
C250 C 0.34339 0.61076 0.12227 0.0
C251 C 0.32964 0.59095 0.14367 0.0
C252 C 0.13675 0.30481 0.56898 0.0
C253 C 0.10692 0.29283 0.57056 0.0
C254 C 0.08552 0.30694 0.58984 0.0
C255 C 0.09388 0.33208 0.60762 0.0
H256 H 0.06212 0.39332 0.67783 0.0
H257 H 0.03255 0.40498 0.72408 0.0
H258 H 0.11514 0.43563 0.76897 0.0
H259 H 0.14451 0.42487 0.72289 0.0
H260 H 0.18167 0.46794 0.65267 0.0
H261 H 0.22931 0.49567 0.64161 0.0
H262 H 0.26811 0.41356 0.60371 0.0
H263 H 0.22037 0.38601 0.61384 0.0
H264 H 0.16833 0.33869 0.58504 0.0
H265 H 0.15367 0.29449 0.55421 0.0
H266 H 0.06246 0.29798 0.59187 0.0
H267 H 0.07687 0.34208 0.62253 0.0
N268 N 0.11511 0.37796 0.65036 0.0
N269 N 0.15049 0.4161 0.66383 0.0
N270 N 0.15969 0.3849 0.62131 0.0
C271 C 0.12387 0.40095 0.66932 0.0
C272 C 0.16842 0.40828 0.63979 0.0
C273 C 0.13295 0.36976 0.62631 0.0
C274 C 0.1056 0.40829 0.69674 0.0
C275 C 0.07389 0.4026 0.69759 0.0
C276 C 0.05699 0.40926 0.72392 0.0
C277 C 0.07173 0.42088 0.75 0.0
C278 C 0.10338 0.42636 0.74919 0.0
C279 C 0.1201 0.42043 0.72275 0.0
C280 C 0.19734 0.42485 0.63402 0.0
C281 C 0.20043 0.45581 0.64208 0.0
C282 C 0.22756 0.47168 0.63575 0.0
C283 C 0.25225 0.45658 0.62206 0.0
C284 C 0.24939 0.42554 0.61455 0.0
C285 C 0.22206 0.40989 0.62015 0.0
C286 C 0.1238 0.3439 0.60639 0.0
C287 C 0.14506 0.33022 0.58656 0.0
Zn288 Zn 0.98395 0.05189 0.55477 0.0
Zn289 Zn 0.054 0.98101 0.4873 0.0
Zn290 Zn 0.01818 0.01727 0.52068 0.0
C291 C 0.07471 0.04105 0.47865 0.0
C292 C 0.99413 0.97433 0.46511 0.0
O293 O 0.0221 0.00204 0.56913 0.0
O294 O 0.99716 0.03718 0.59539 0.0
C295 C 0.02339 0.09116 0.52486 0.0
O296 O 0.05163 0.04668 0.49608 0.0
O297 O 0.08177 0.01381 0.47238 0.0
O298 O 0.02127 0.96631 0.45944 0.0
O299 O 0.98853 0.99286 0.48729 0.0
O300 O 0.9994 0.09194 0.54084 0.0
O301 O 0.03433 0.06535 0.51589 0.0
O302 O 0.97001 0.01264 0.50464 0.0
O303 O 0.94372 0.03811 0.53943 0.0
C304 C 0.94429 0.02186 0.51565 0.0
O305 O 0.042 0.98431 0.55131 0.0
O306 O 0.06799 0.95361 0.52076 0.0
C307 C 0.01302 0.01315 0.59484 0.0
C308 C 0.05988 0.96125 0.54734 0.0
Zn309 Zn 0.48486 0.05752 0.98014 0.0
Zn310 Zn 0.55244 0.98938 0.05283 0.0
Zn311 Zn 0.51879 0.02273 0.01726 0.0
C312 C 0.59303 0.0194 0.01537 0.0
C313 C 0.51513 0.94887 0.02228 0.0
O314 O 0.4941 0.05666 0.04571 0.0
O315 O 0.47067 0.08643 0.01205 0.0
C316 C 0.545 0.06281 0.96011 0.0
O317 O 0.56745 0.02739 0.00295 0.0
O318 O 0.59316 0.00406 0.03982 0.0
O319 O 0.53901 0.94879 0.03854 0.0
O320 O 0.50343 0.97435 0.01312 0.0
O321 O 0.51827 0.07025 0.95206 0.0
O322 O 0.5493 0.04594 0.98396 0.0
O323 O 0.48564 0.9925 0.99322 0.0
O324 O 0.45659 0.02455 0.96682 0.0
C325 C 0.46293 0.9976 0.97502 0.0
O326 O 0.51344 0.03928 0.06499 0.0
O327 O 0.53691 0.00386 0.09252 0.0
C328 C 0.47697 0.07983 0.03949 0.0
C329 C 0.52144 0.02812 0.09113 0.0
Zn330 Zn 0.55627 0.55517 0.55283 0.0
Zn331 Zn 0.48299 0.48258 0.48234 0.0
Zn332 Zn 0.51924 0.51856 0.51738 0.0
C333 C 0.52739 0.44532 0.50933 0.0
C334 C 0.5095 0.52636 0.44407 0.0
O335 O 0.49057 0.54106 0.55211 0.0
O336 O 0.52266 0.56764 0.58111 0.0
C337 C 0.57759 0.49453 0.55692 0.0
O338 O 0.53685 0.47137 0.51935 0.0
O339 O 0.50309 0.44343 0.49373 0.0
O340 O 0.49364 0.50222 0.4427 0.0
O341 O 0.52022 0.53581 0.46987 0.0
O342 O 0.58446 0.52137 0.56515 0.0
O343 O 0.5542 0.48965 0.53955 0.0
O344 O 0.54113 0.55296 0.48759 0.0
O345 O 0.56813 0.58292 0.51839 0.0
C346 C 0.55902 0.57605 0.49182 0.0
O347 O 0.47219 0.52025 0.53558 0.0
O348 O 0.44398 0.49388 0.50267 0.0
C349 C 0.49572 0.55897 0.57491 0.0
C350 C 0.44605 0.50982 0.52663 0.0
Zn351 Zn 0.0465 0.55688 0.98195 0.0
Zn352 Zn 0.98123 0.48187 0.055 0.0
Zn353 Zn 0.01449 0.52021 0.01873 0.0
C354 C 0.04248 0.48007 0.07487 0.0
C355 C 0.97529 0.46154 0.99461 0.0
O356 O 0.9956 0.56701 0.02205 0.0
O357 O 0.02736 0.59571 0.99482 0.0
C358 C 0.08782 0.53001 0.02268 0.0
O359 O 0.04596 0.49842 0.05202 0.0
O360 O 0.01619 0.47027 0.08195 0.0
O361 O 0.96824 0.45366 0.02151 0.0
O362 O 0.9919 0.48548 0.98985 0.0
O363 O 0.08728 0.54612 0.9987 0.0
O364 O 0.06282 0.51911 0.03395 0.0
O365 O 0.01131 0.50327 0.97108 0.0
O366 O 0.0339 0.53846 0.94243 0.0
C367 C 0.01958 0.51346 0.94466 0.0
O368 O 0.9797 0.54788 0.04277 0.0
O369 O 0.95241 0.51414 0.06907 0.0
C370 C 0.00408 0.59331 0.0117 0.0
C371 C 0.95749 0.54147 0.0611 0.0
H372 H 0.20429 0.12839 0.36172 0.0
H373 H 0.05503 0.09783 0.46023 0.0
H374 H 0.13989 0.20046 0.38139 0.0
H375 H 0.13475 0.04001 0.46284 0.0
H376 H 0.08449 0.13605 0.43139 0.0
H377 H 0.178 0.09564 0.39807 0.0
C378 C 0.1849 0.13762 0.37396 0.0
C379 C 0.17452 0.16749 0.36839 0.0
C380 C 0.09563 0.1152 0.43871 0.0
C381 C 0.14355 0.12937 0.40975 0.0
C382 C 0.07893 0.09355 0.45544 0.0
C383 C 0.09263 0.06596 0.46436 0.0
C384 C 0.12597 0.10879 0.43029 0.0
C385 C 0.12331 0.061 0.45645 0.0
C386 C 0.16972 0.11871 0.39466 0.0
C387 C 0.14856 0.17752 0.38449 0.0
N388 N 0.13884 0.08206 0.43971 0.0
N389 N 0.13384 0.15844 0.40427 0.0
H390 H 0.39714 0.83325 0.8846 0.0
H391 H 0.40215 0.99833 0.96257 0.0
H392 H 0.33239 0.90548 0.866 0.0
H393 H 0.48164 0.94047 0.95724 0.0
H394 H 0.37228 0.9594 0.93584 0.0
H395 H 0.42471 0.86768 0.91923 0.0
C396 C 0.38861 0.85623 0.88775 0.0
C397 C 0.36232 0.86637 0.8721 0.0
C398 C 0.39616 0.95499 0.94085 0.0
C399 C 0.39351 0.90557 0.91223 0.0
C400 C 0.41318 0.97715 0.95616 0.0
C401 C 0.44429 0.97239 0.96243 0.0
C402 C 0.41035 0.92785 0.9315 0.0
C403 C 0.45752 0.94464 0.95351 0.0
C404 C 0.40432 0.87577 0.90767 0.0
C405 C 0.35214 0.89626 0.87777 0.0
N406 N 0.44049 0.92338 0.93834 0.0
N407 N 0.36775 0.91472 0.89726 0.0
H408 H 0.63334 0.34552 0.67126 0.0
H409 H 0.63924 0.49252 0.56517 0.0
H410 H 0.71791 0.3847 0.63815 0.0
H411 H 0.55715 0.43893 0.57707 0.0
H412 H 0.66864 0.45237 0.59073 0.0
H413 H 0.60507 0.37794 0.6356 0.0
C414 C 0.64607 0.36054 0.6562 0.0
C415 C 0.67815 0.36253 0.65807 0.0
C416 C 0.64428 0.44911 0.58736 0.0
C417 C 0.64571 0.40028 0.61758 0.0
C418 C 0.62752 0.47204 0.57284 0.0
C419 C 0.59584 0.46886 0.5689 0.0
C420 C 0.6291 0.42309 0.59868 0.0
C421 C 0.58165 0.44201 0.57933 0.0
C422 C 0.62984 0.37919 0.63592 0.0
C423 C 0.6932 0.38285 0.63815 0.0
N424 N 0.59834 0.42026 0.59408 0.0
N425 N 0.67685 0.40114 0.61903 0.0
H426 H 0.88639 0.70591 0.14599 0.0
H427 H 0.89751 0.53721 0.07684 0.0
H428 H 0.82578 0.63155 0.17037 0.0
H429 H 0.97356 0.60025 0.07625 0.0
H430 H 0.86656 0.57549 0.10292 0.0
H431 H 0.91445 0.6711 0.11249 0.0
C432 C 0.87887 0.68237 0.14433 0.0
C433 C 0.85364 0.67175 0.16131 0.0
C434 C 0.8899 0.58113 0.09675 0.0
C435 C 0.8854 0.63201 0.12251 0.0
C436 C 0.90756 0.55932 0.08184 0.0
C437 C 0.93801 0.56577 0.07399 0.0
C438 C 0.90279 0.60963 0.10405 0.0
C439 C 0.94992 0.59471 0.08111 0.0
C440 C 0.89485 0.66258 0.12507 0.0
C441 C 0.84469 0.64109 0.15754 0.0
N442 N 0.9323 0.61561 0.09584 0.0
N443 N 0.86057 0.62238 0.13867 0.0
H444 H 0.3854 0.14698 0.20225 0.0
H445 H 0.46314 0.14025 0.03708 0.0
H446 H 0.36421 0.20903 0.12816 0.0
H447 H 0.45823 0.06176 0.0967 0.0
H448 H 0.43546 0.17014 0.07508 0.0
H449 H 0.42026 0.11959 0.16824 0.0
C450 C 0.38802 0.15495 0.17894 0.0
C451 C 0.37154 0.18041 0.16816 0.0
C452 C 0.44079 0.14648 0.08006 0.0
C453 C 0.41198 0.14945 0.12941 0.0
C454 C 0.45663 0.12943 0.05842 0.0
C455 C 0.46337 0.09859 0.06397 0.0
C456 C 0.43146 0.13262 0.10749 0.0
C457 C 0.45427 0.08569 0.09193 0.0
C458 C 0.40807 0.13935 0.15963 0.0
C459 C 0.3766 0.18994 0.13785 0.0
N460 N 0.43867 0.10275 0.11268 0.0
N461 N 0.39627 0.17446 0.11962 0.0
H462 H 0.13997 0.81895 0.65755 0.0
H463 H 0.08156 0.98334 0.6018 0.0
H464 H 0.17648 0.90393 0.69227 0.0
H465 H 0.06705 0.89984 0.55166 0.0
H466 H 0.10743 0.95396 0.64225 0.0
H467 H 0.10442 0.84787 0.62556 0.0
C468 C 0.14049 0.84367 0.65857 0.0
C469 C 0.16166 0.85896 0.67736 0.0
C470 C 0.09824 0.94206 0.62256 0.0
C471 C 0.12061 0.89224 0.64101 0.0
C472 C 0.0833 0.95875 0.59966 0.0
C473 C 0.07209 0.94387 0.57356 0.0
C474 C 0.10191 0.91033 0.61918 0.0
C475 C 0.07544 0.9121 0.57148 0.0
C476 C 0.12005 0.86016 0.64039 0.0
C477 C 0.16056 0.89108 0.67828 0.0
N478 N 0.09011 0.89639 0.59394 0.0
N479 N 0.14057 0.90665 0.66017 0.0
H480 H 0.8615 0.40674 0.84428 0.0
H481 H 0.96895 0.39983 0.99075 0.0
H482 H 0.89723 0.32234 0.88106 0.0
H483 H 0.95267 0.48307 0.94044 0.0
H484 H 0.94383 0.37091 0.9499 0.0
H485 H 0.89617 0.43513 0.87768 0.0
C486 C 0.87694 0.3941 0.85898 0.0
C487 C 0.87611 0.362 0.86001 0.0
C488 C 0.94611 0.39545 0.94753 0.0
C489 C 0.91545 0.39453 0.89889 0.0
C490 C 0.96036 0.41193 0.97086 0.0
C491 C 0.963 0.44377 0.96875 0.0
C492 C 0.93381 0.41104 0.92221 0.0
C493 C 0.95142 0.45846 0.94266 0.0
C494 C 0.89664 0.41039 0.8782 0.0
C495 C 0.89646 0.34703 0.87994 0.0
N496 N 0.93704 0.442 0.9205 0.0
N497 N 0.91502 0.36341 0.8988 0.0
H498 H 0.63753 0.71906 0.3809 0.0
H499 H 0.57687 0.55511 0.43581 0.0
H500 H 0.67019 0.63392 0.34358 0.0
H501 H 0.56844 0.63744 0.48902 0.0
H502 H 0.60134 0.58486 0.3949 0.0
H503 H 0.60265 0.69037 0.41385 0.0
C504 C 0.63733 0.69436 0.3795 0.0
C505 C 0.65728 0.67893 0.35972 0.0
C506 C 0.59379 0.59645 0.41538 0.0
C507 C 0.61696 0.64597 0.39713 0.0
C508 C 0.57962 0.57956 0.43856 0.0
C509 C 0.57052 0.59396 0.46565 0.0
C510 C 0.59886 0.62791 0.41943 0.0
C511 C 0.5752 0.62553 0.46845 0.0
C512 C 0.61728 0.67802 0.39823 0.0
C513 C 0.65524 0.64688 0.35834 0.0
N514 N 0.58911 0.64145 0.44566 0.0
N515 N 0.63565 0.63145 0.37698 0.0
H516 H 0.1526 0.39705 0.21552 0.0
H517 H 0.09817 0.46203 0.05292 0.0
H518 H 0.18851 0.36494 0.1295 0.0
H519 H 0.04636 0.47091 0.13617 0.0
H520 H 0.1389 0.43618 0.08187 0.0
H521 H 0.1208 0.43357 0.18769 0.0
C522 C 0.15391 0.3977 0.19079 0.0
C523 C 0.17296 0.37744 0.17486 0.0
C524 C 0.1188 0.4442 0.09383 0.0
C525 C 0.13684 0.41965 0.14287 0.0
C526 C 0.09575 0.45917 0.0774 0.0
C527 C 0.06905 0.46869 0.09229 0.0
C528 C 0.115 0.43881 0.12531 0.0
C529 C 0.06663 0.46385 0.12389 0.0
C530 C 0.13585 0.4187 0.17494 0.0
C531 C 0.17429 0.38008 0.14283 0.0
N532 N 0.08925 0.44916 0.13934 0.0
N533 N 0.15627 0.40059 0.12787 0.0
H534 H 0.69348 0.17809 0.90329 0.0
H535 H 0.54949 0.06696 0.89841 0.0
H536 H 0.65575 0.14163 0.81955 0.0
H537 H 0.59875 0.08692 0.98155 0.0
H538 H 0.58977 0.09237 0.86905 0.0
H539 H 0.66119 0.14292 0.93236 0.0
C540 C 0.67879 0.16239 0.89094 0.0
C541 C 0.67718 0.16312 0.85883 0.0
C542 C 0.5921 0.09084 0.89367 0.0
C543 C 0.63963 0.12316 0.89214 0.0
C544 C 0.56909 0.07638 0.91039 0.0
C545 C 0.57103 0.07472 0.94233 0.0
C546 C 0.61691 0.10437 0.90907 0.0
C547 C 0.59672 0.08739 0.95687 0.0
C548 C 0.66022 0.1424 0.90761 0.0
C549 C 0.65732 0.14244 0.84424 0.0
N550 N 0.61856 0.102 0.94014 0.0
N551 N 0.63913 0.12357 0.86099 0.0
H552 H 0.90663 0.86366 0.33046 0.0
H553 H 0.93607 0.95756 0.48268 0.0
H554 H 0.83323 0.88447 0.39307 0.0
H555 H 0.99662 0.95965 0.40501 0.0
H556 H 0.89763 0.93094 0.45138 0.0
H557 H 0.93982 0.89835 0.35841 0.0
C558 C 0.89722 0.87583 0.34979 0.0
C559 C 0.86686 0.87102 0.35922 0.0
C560 C 0.91914 0.93768 0.44109 0.0
C561 C 0.90544 0.91041 0.39211 0.0
C562 C 0.94091 0.95316 0.45884 0.0
C563 C 0.96929 0.96128 0.44623 0.0
C564 C 0.92623 0.92972 0.41079 0.0
C565 C 0.97498 0.95384 0.4156 0.0
C566 C 0.91637 0.89556 0.36593 0.0
C567 C 0.85655 0.88698 0.38514 0.0
N568 N 0.95377 0.93831 0.39903 0.0
N569 N 0.87586 0.90577 0.40082 0.0
H570 H 0.34797 0.6748 0.62892 0.0
H571 H 0.49482 0.56924 0.63616 0.0
H572 H 0.38858 0.64447 0.71386 0.0
H573 H 0.43942 0.57762 0.55487 0.0
H574 H 0.4552 0.59563 0.66524 0.0
H575 H 0.37967 0.63812 0.60146 0.0
C576 C 0.36317 0.66016 0.64191 0.0
C577 C 0.3658 0.6631 0.67382 0.0
C578 C 0.45141 0.5913 0.64115 0.0
C579 C 0.40265 0.62142 0.64231 0.0
C580 C 0.47404 0.57629 0.62458 0.0
C581 C 0.47023 0.57116 0.59318 0.0
C582 C 0.42506 0.60192 0.62606 0.0
C583 C 0.44299 0.58081 0.57916 0.0
C584 C 0.38138 0.63929 0.62614 0.0
C585 C 0.38627 0.64365 0.68922 0.0
N586 N 0.42156 0.5961 0.59563 0.0
N587 N 0.40411 0.62394 0.67331 0.0
H588 H 0.00171 0.98195 0.78606 0.0
H589 H 0.01004 0.9517 0.60641 0.0
H590 H 0.97083 0.89851 0.74345 0.0
H591 H 0.02698 0.03862 0.64953 0.0
H592 H 0.00811 0.92753 0.65716 0.0
H593 H 0.02317 0.9985 0.73725 0.0
C594 C 0.9997 0.96699 0.76644 0.0
C595 C 0.98395 0.93909 0.76864 0.0
C596 C 0.01286 0.95178 0.65546 0.0
C597 C 0.0084 0.9579 0.71261 0.0
C598 C 0.0142 0.96548 0.62655 0.0
C599 C 0.01854 0.99714 0.62397 0.0
C600 C 0.01575 0.97001 0.68177 0.0
C601 C 0.02338 0.01414 0.65066 0.0
C602 C 0.01205 0.97638 0.7386 0.0
C603 C 0.98268 0.92026 0.7427 0.0
N604 N 0.02155 0.00042 0.67845 0.0
N605 N 0.9943 0.93022 0.7156 0.0
H606 H 0.5657 0.14653 0.23818 0.0
H607 H 0.50364 0.00362 0.14514 0.0
H608 H 0.53961 0.06035 0.27873 0.0
H609 H 0.52782 0.08924 0.10256 0.0
H610 H 0.50646 0.02802 0.19515 0.0
H611 H 0.54265 0.13008 0.18978 0.0
C612 C 0.55462 0.12438 0.23706 0.0
C613 C 0.55506 0.10453 0.26233 0.0
C614 C 0.5106 0.04175 0.17493 0.0
C615 C 0.5289 0.08549 0.20707 0.0
C616 C 0.50886 0.02781 0.14639 0.0
C617 C 0.51569 0.04447 0.11988 0.0
C618 C 0.52003 0.0724 0.17703 0.0
C619 C 0.52236 0.0757 0.12259 0.0
C620 C 0.54156 0.11497 0.2094 0.0
C621 C 0.54044 0.07608 0.25959 0.0
N622 N 0.52495 0.08859 0.15078 0.0
N623 N 0.52829 0.0673 0.23239 0.0
H624 H 0.50834 0.58117 0.25494 0.0
H625 H 0.50352 0.58805 0.43763 0.0
H626 H 0.44834 0.64071 0.30517 0.0
H627 H 0.52246 0.50589 0.38697 0.0
H628 H 0.49949 0.61631 0.38911 0.0
H629 H 0.52946 0.56234 0.3036 0.0
C630 C 0.50016 0.59073 0.27622 0.0
C631 C 0.47643 0.61222 0.27626 0.0
C632 C 0.50516 0.59224 0.38875 0.0
C633 C 0.50048 0.59115 0.33156 0.0
C634 C 0.50763 0.57621 0.41631 0.0
C635 C 0.51314 0.54467 0.41607 0.0
C636 C 0.50855 0.57657 0.36097 0.0
C637 C 0.51798 0.5302 0.38795 0.0
C638 C 0.51209 0.57995 0.30387 0.0
C639 C 0.46642 0.62385 0.30435 0.0
N640 N 0.51541 0.54623 0.36145 0.0
N641 N 0.47839 0.61305 0.33095 0.0
H642 H 0.02322 0.45958 0.75589 0.0
H643 H 0.0268 0.45188 0.93867 0.0
H644 H 0.0816 0.3992 0.80759 0.0
H645 H 0.00465 0.53326 0.88753 0.0
H646 H 0.03081 0.42357 0.89043 0.0
H647 H 0.00075 0.47779 0.80401 0.0
C648 C 0.03073 0.44969 0.77736 0.0
C649 C 0.05443 0.42818 0.77801 0.0
C650 C 0.02441 0.44746 0.88988 0.0
C651 C 0.02893 0.44858 0.83269 0.0
C652 C 0.02193 0.46352 0.91733 0.0
C653 C 0.01554 0.4949 0.9169 0.0
C654 C 0.02033 0.46295 0.86199 0.0
C655 C 0.00981 0.50909 0.88869 0.0
C656 C 0.01805 0.46012 0.8047 0.0
C657 C 0.06357 0.41609 0.80631 0.0
N658 N 0.01257 0.49306 0.86228 0.0
N659 N 0.05093 0.4266 0.83259 0.0
H660 H 0.74669 0.98787 0.90009 0.0
H661 H 0.64585 0.03656 0.043 0.0
H662 H 0.78248 0.00532 0.99044 0.0
H663 H 0.60754 0.01515 0.95465 0.0
H664 H 0.697 0.03615 0.02073 0.0
H665 H 0.69712 0.0082 0.91619 0.0
C666 C 0.7443 0.99657 0.92313 0.0
C667 C 0.76858 0.99447 0.94413 0.0
C668 C 0.67745 0.03207 0.00599 0.0
C669 C 0.71192 0.01741 0.96277 0.0
C670 C 0.64827 0.0324 0.0187 0.0
C671 C 0.62261 0.02576 0.0006 0.0
C672 C 0.68109 0.02436 0.97505 0.0
C673 C 0.62685 0.0205 0.96929 0.0
C674 C 0.71595 0.00802 0.93234 0.0
C675 C 0.76417 0.00591 0.97372 0.0
N676 N 0.65565 0.01942 0.95754 0.0
N677 N 0.73631 0.01656 0.98223 0.0
H678 H 0.79312 0.05555 0.39692 0.0
H679 H 0.89085 0.00519 0.54202 0.0
H680 H 0.75531 0.03612 0.48594 0.0
H681 H 0.93111 0.02597 0.4545 0.0
H682 H 0.84018 0.00595 0.51849 0.0
H683 H 0.84236 0.03497 0.41408 0.0
C684 C 0.79501 0.04638 0.41987 0.0
C685 C 0.77024 0.04799 0.44022 0.0
C686 C 0.86003 0.00984 0.5042 0.0
C687 C 0.82651 0.02474 0.46007 0.0
C688 C 0.88894 0.00931 0.51764 0.0
C689 C 0.915 0.01568 0.50014 0.0
C690 C 0.85707 0.01755 0.47313 0.0
C691 C 0.91145 0.02089 0.46869 0.0
C692 C 0.82316 0.03477 0.4297 0.0
C693 C 0.774 0.03593 0.46973 0.0
N694 N 0.88288 0.02223 0.45622 0.0
N695 N 0.80167 0.02515 0.47885 0.0
H696 H 0.23791 0.57017 0.14088 0.0
H697 H 0.14202 0.51735 0.9959 0.0
H698 H 0.27743 0.54674 0.05374 0.0
H699 H 0.10095 0.53351 0.08387 0.0
H700 H 0.19259 0.51974 0.0195 0.0
H701 H 0.18881 0.54909 0.1236 0.0
C702 C 0.2364 0.56008 0.11833 0.0
C703 C 0.26163 0.56071 0.09849 0.0
C704 C 0.17261 0.52229 0.03387 0.0
C705 C 0.20556 0.53687 0.07849 0.0
C706 C 0.14376 0.52087 0.02037 0.0
C707 C 0.11747 0.52543 0.038 0.0
C708 C 0.17525 0.5291 0.06515 0.0
C709 C 0.1208 0.52985 0.06958 0.0
C710 C 0.20835 0.54816 0.10844 0.0
C711 C 0.25837 0.54741 0.0695 0.0
N712 N 0.14928 0.53212 0.08213 0.0
N713 N 0.2308 0.53639 0.06028 0.0
H714 H 0.25819 0.50651 0.5852 0.0
H715 H 0.44117 0.50386 0.58851 0.0
H716 H 0.31045 0.44389 0.64067 0.0
H717 H 0.38842 0.52286 0.50723 0.0
H718 H 0.39326 0.49872 0.61753 0.0
H719 H 0.30627 0.52894 0.56629 0.0
C720 C 0.27982 0.49802 0.59388 0.0
C721 C 0.2806 0.47324 0.61423 0.0
C722 C 0.39231 0.50472 0.5935 0.0
C723 C 0.33519 0.4988 0.59315 0.0
C724 C 0.41952 0.50784 0.57704 0.0
C725 C 0.41851 0.51356 0.5455 0.0
C726 C 0.36414 0.5078 0.57827 0.0
C727 C 0.38999 0.51821 0.53152 0.0
C728 C 0.30711 0.51071 0.58307 0.0
C729 C 0.30907 0.46283 0.62474 0.0
N730 N 0.36385 0.51505 0.54797 0.0
N731 N 0.33533 0.47558 0.61397 0.0
H732 H 0.95063 0.78179 0.01417 0.0
H733 H 0.94235 0.59943 0.00492 0.0
H734 H 0.89317 0.73306 0.95038 0.0
H735 H 0.02416 0.64962 0.02823 0.0
H736 H 0.91425 0.64799 0.00151 0.0
H737 H 0.96763 0.73269 0.03559 0.0
C738 C 0.94109 0.76074 0.00521 0.0
C739 C 0.9208 0.76126 0.98033 0.0
C740 C 0.93817 0.64821 0.00809 0.0
C741 C 0.93979 0.70546 0.00471 0.0
C742 C 0.95409 0.62062 0.01021 0.0
C743 C 0.98553 0.62079 0.01667 0.0
C744 C 0.95386 0.67588 0.01283 0.0
C745 C 0.99992 0.64873 0.02303 0.0
C746 C 0.95083 0.73285 0.01732 0.0
C747 C 0.90915 0.73346 0.96935 0.0
N748 N 0.98402 0.67524 0.02076 0.0
N749 N 0.91897 0.7066 0.9815 0.0
H750 H 0.39839 0.7954 0.05338 0.0
H751 H 0.54273 0.89609 0.0062 0.0
H752 H 0.48875 0.75959 0.03689 0.0
H753 H 0.45418 0.93443 0.02574 0.0
H754 H 0.52017 0.84504 0.00678 0.0
H755 H 0.41514 0.845 0.03334 0.0
C756 C 0.42158 0.79781 0.04498 0.0
C757 C 0.44237 0.77348 0.04724 0.0
C758 C 0.50545 0.86455 0.01043 0.0
C759 C 0.46174 0.83017 0.02461 0.0
C760 C 0.51834 0.89368 0.01 0.0
C761 C 0.50025 0.91932 0.01605 0.0
C762 C 0.47434 0.86096 0.01767 0.0
C763 C 0.4688 0.91512 0.02088 0.0
C764 C 0.43116 0.82617 0.03369 0.0
C765 C 0.47217 0.77792 0.03617 0.0
N766 N 0.45687 0.88636 0.02207 0.0
N767 N 0.48103 0.80578 0.02566 0.0
H768 H 0.05451 0.28203 0.53793 0.0
H769 H 0.08504 0.1027 0.52737 0.0
H770 H 0.1396 0.23974 0.56464 0.0
H771 H 0.99789 0.14577 0.51096 0.0
H772 H 0.10922 0.15345 0.52935 0.0
H773 H 0.03735 0.23335 0.51668 0.0
C774 C 0.06969 0.26252 0.53906 0.0
C775 C 0.09829 0.26478 0.55354 0.0
C776 C 0.08492 0.15175 0.5247 0.0
C777 C 0.07878 0.20888 0.52936 0.0
C778 C 0.0712 0.12283 0.52335 0.0
C779 C 0.03947 0.12023 0.51916 0.0
C780 C 0.06663 0.17804 0.52201 0.0
C781 C 0.02243 0.14691 0.51445 0.0
C782 C 0.05994 0.23475 0.52684 0.0
C783 C 0.11733 0.23897 0.55376 0.0
N784 N 0.03614 0.17469 0.51632 0.0
N785 N 0.10704 0.21193 0.5423 0.0
H786 H 0.58271 0.25697 0.50852 0.0
H787 H 0.58924 0.43958 0.50332 0.0
H788 H 0.64203 0.30793 0.44832 0.0
H789 H 0.5073 0.38811 0.5231 0.0
H790 H 0.61778 0.3914 0.49953 0.0
H791 H 0.56413 0.30533 0.52997 0.0
C792 C 0.5923 0.27835 0.50038 0.0
C793 C 0.61363 0.27868 0.47648 0.0
C794 C 0.5937 0.39079 0.50536 0.0
C795 C 0.59281 0.33364 0.50088 0.0
C796 C 0.57751 0.41816 0.5077 0.0
C797 C 0.54594 0.41759 0.51334 0.0
C798 C 0.57815 0.36287 0.509 0.0
C799 C 0.53162 0.38935 0.51851 0.0
C800 C 0.58166 0.30582 0.51249 0.0
C801 C 0.62529 0.30688 0.46652 0.0
N802 N 0.54781 0.36304 0.51603 0.0
N803 N 0.61459 0.33331 0.47865 0.0
loop_
_geom_bond_atom_site_label_1
_geom_bond_atom_site_label_2
_geom_bond_distance
_geom_bond_site_symmetry_2
_ccdc_geom_bond_type
C0 C1 1.384 . S
C0 H13 0.947 . S
C0 C35 1.382 . S
C1 C0 1.384 . S
C1 C2 1.378 . S
C2 C1 1.378 . S
C2 C3 1.378 . S
C2 H14 0.952 . S
C3 C2 1.378 . S
C3 H15 0.950 . S
C3 C34 1.383 . S
H4 C23 0.947 . S
H5 C24 0.946 . S
H6 C26 0.953 . S
H7 C27 0.945 . S
H8 C29 0.952 . S
H9 C30 0.949 . S
H10 C32 0.950 . S
H11 C33 0.948 . S
H12 C35 0.951 . S
H13 C0 0.947 . S
H14 C2 0.952 . S
H15 C3 0.950 . S
N16 C19 1.382 . S
N16 C21 1.363 . S
N17 C19 1.371 . S
N17 C20 1.372 . S
N18 C20 1.361 . S
N18 C21 1.377 . S
C19 N16 1.382 . S
C19 N17 1.371 . S
C19 C22 1.480 . S
C20 N17 1.372 . S
C20 N18 1.361 . S
C20 C28 1.457 . S
C21 N16 1.363 . S
C21 N18 1.377 . S
C21 C34 1.479 . S
C22 C19 1.480 . S
C22 C23 1.383 . S
C22 C27 1.385 . S
C23 H4 0.947 . S
C23 C22 1.383 . S
C23 C24 1.388 . S
C24 H5 0.946 . S
C24 C23 1.388 . S
C24 C25 1.384 . S
C25 C24 1.384 . S
C25 C26 1.377 . S
C26 H6 0.953 . S
C26 C25 1.377 . S
C26 C27 1.369 . S
C27 H7 0.945 . S
C27 C22 1.385 . S
C27 C26 1.369 . S
C28 C20 1.457 . S
C28 C29 1.372 . S
C28 C33 1.364 . S
C29 H8 0.952 . S
C29 C28 1.372 . S
C29 C30 1.389 . S
C30 H9 0.949 . S
C30 C29 1.389 . S
C30 C31 1.387 . S
C31 C30 1.387 . S
C31 C32 1.372 . S
C32 H10 0.950 . S
C32 C31 1.372 . S
C32 C33 1.379 . S
C33 H11 0.948 . S
C33 C28 1.364 . S
C33 C32 1.379 . S
C34 C3 1.383 . S
C34 C21 1.479 . S
C34 C35 1.398 . S
C35 C0 1.382 . S
C35 H12 0.951 . S
C35 C34 1.398 . S
C36 C37 1.384 . S
C36 H49 0.947 . S
C36 C71 1.382 . S
C37 C36 1.384 . S
C37 C38 1.378 . S
C38 C37 1.378 . S
C38 C39 1.378 . S
C38 H50 0.952 . S
C39 C38 1.378 . S
C39 H51 0.950 . S
C39 C70 1.383 . S
H40 C59 0.947 . S
H41 C60 0.946 . S
H42 C62 0.953 . S
H43 C63 0.945 . S
H44 C65 0.952 . S
H45 C66 0.949 . S
H46 C68 0.950 . S
H47 C69 0.948 . S
H48 C71 0.951 . S
H49 C36 0.947 . S
H50 C38 0.952 . S
H51 C39 0.950 . S
N52 C55 1.382 . S
N52 C57 1.363 . S
N53 C55 1.371 . S
N53 C56 1.372 . S
N54 C56 1.361 . S
N54 C57 1.377 . S
C55 N52 1.382 . S
C55 N53 1.371 . S
C55 C58 1.480 . S
C56 N53 1.372 . S
C56 N54 1.361 . S
C56 C64 1.457 . S
C57 N52 1.363 . S
C57 N54 1.377 . S
C57 C70 1.479 . S
C58 C55 1.480 . S
C58 C59 1.383 . S
C58 C63 1.385 . S
C59 H40 0.947 . S
C59 C58 1.383 . S
C59 C60 1.388 . S
C60 H41 0.946 . S
C60 C59 1.388 . S
C60 C61 1.384 . S
C61 C60 1.384 . S
C61 C62 1.377 . S
C62 H42 0.953 . S
C62 C61 1.377 . S
C62 C63 1.369 . S
C63 H43 0.945 . S
C63 C58 1.385 . S
C63 C62 1.369 . S
C64 C56 1.457 . S
C64 C65 1.372 . S
C64 C69 1.364 . S
C65 H44 0.952 . S
C65 C64 1.372 . S
C65 C66 1.389 . S
C66 H45 0.949 . S
C66 C65 1.389 . S
C66 C67 1.387 . S
C67 C66 1.387 . S
C67 C68 1.372 . S
C68 H46 0.950 . S
C68 C67 1.372 . S
C68 C69 1.379 . S
C69 H47 0.948 . S
C69 C64 1.364 . S
C69 C68 1.379 . S
C70 C39 1.383 . S
C70 C57 1.479 . S
C70 C71 1.398 . S
C71 C36 1.382 . S
C71 H48 0.951 . S
C71 C70 1.398 . S
C72 C73 1.384 . S
C72 H85 0.947 . S
C72 C107 1.382 . S
C73 C72 1.384 . S
C73 C74 1.378 . S
C74 C73 1.378 . S
C74 C75 1.378 . S
C74 H86 0.952 . S
C75 C74 1.378 . S
C75 H87 0.950 . S
C75 C106 1.383 . S
H76 C95 0.947 . S
H77 C96 0.946 . S
H78 C98 0.953 . S
H79 C99 0.945 . S
H80 C101 0.952 . S
H81 C102 0.949 . S
H82 C104 0.950 . S
H83 C105 0.948 . S
H84 C107 0.951 . S
H85 C72 0.947 . S
H86 C74 0.952 . S
H87 C75 0.950 . S
N88 C91 1.382 . S
N88 C93 1.363 . S
N89 C91 1.371 . S
N89 C92 1.372 . S
N90 C92 1.361 . S
N90 C93 1.377 . S
C91 N88 1.382 . S
C91 N89 1.371 . S
C91 C94 1.480 . S
C92 N89 1.372 . S
C92 N90 1.361 . S
C92 C100 1.457 . S
C93 N88 1.363 . S
C93 N90 1.377 . S
C93 C106 1.479 . S
C94 C91 1.480 . S
C94 C95 1.383 . S
C94 C99 1.385 . S
C95 H76 0.947 . S
C95 C94 1.383 . S
C95 C96 1.388 . S
C96 H77 0.946 . S
C96 C95 1.388 . S
C96 C97 1.384 . S
C97 C96 1.384 . S
C97 C98 1.377 . S
C98 H78 0.953 . S
C98 C97 1.377 . S
C98 C99 1.369 . S
C99 H79 0.945 . S
C99 C94 1.385 . S
C99 C98 1.369 . S
C100 C92 1.457 . S
C100 C101 1.372 . S
C100 C105 1.364 . S
C101 H80 0.952 . S
C101 C100 1.372 . S
C101 C102 1.389 . S
C102 H81 0.949 . S
C102 C101 1.389 . S
C102 C103 1.387 . S
C103 C102 1.387 . S
C103 C104 1.372 . S
C104 H82 0.950 . S
C104 C103 1.372 . S
C104 C105 1.379 . S
C105 H83 0.948 . S
C105 C100 1.364 . S
C105 C104 1.379 . S
C106 C75 1.383 . S
C106 C93 1.479 . S
C106 C107 1.398 . S
C107 C72 1.382 . S
C107 H84 0.951 . S
C107 C106 1.398 . S
C108 C109 1.384 . S
C108 H121 0.947 . S
C108 C143 1.382 . S
C109 C108 1.384 . S
C109 C110 1.378 . S
C110 C109 1.378 . S
C110 C111 1.378 . S
C110 H122 0.952 . S
C111 C110 1.378 . S
C111 H123 0.950 . S
C111 C142 1.383 . S
H112 C131 0.947 . S
H113 C132 0.946 . S
H114 C134 0.953 . S
H115 C135 0.945 . S
H116 C137 0.952 . S
H117 C138 0.949 . S
H118 C140 0.950 . S
H119 C141 0.948 . S
H120 C143 0.951 . S
H121 C108 0.947 . S
H122 C110 0.952 . S
H123 C111 0.950 . S
N124 C127 1.382 . S
N124 C129 1.363 . S
N125 C127 1.371 . S
N125 C128 1.372 . S
N126 C128 1.361 . S
N126 C129 1.377 . S
C127 N124 1.382 . S
C127 N125 1.371 . S
C127 C130 1.480 . S
C128 N125 1.372 . S
C128 N126 1.361 . S
C128 C136 1.457 . S
C129 N124 1.363 . S
C129 N126 1.377 . S
C129 C142 1.479 . S
C130 C127 1.480 . S
C130 C131 1.383 . S
C130 C135 1.385 . S
C131 H112 0.947 . S
C131 C130 1.383 . S
C131 C132 1.388 . S
C132 H113 0.946 . S
C132 C131 1.388 . S
C132 C133 1.384 . S
C133 C132 1.384 . S
C133 C134 1.377 . S
C134 H114 0.953 . S
C134 C133 1.377 . S
C134 C135 1.369 . S
C135 H115 0.945 . S
C135 C130 1.385 . S
C135 C134 1.369 . S
C136 C128 1.457 . S
C136 C137 1.372 . S
C136 C141 1.364 . S
C137 H116 0.952 . S
C137 C136 1.372 . S
C137 C138 1.389 . S
C138 H117 0.949 . S
C138 C137 1.389 . S
C138 C139 1.387 . S
C139 C138 1.387 . S
C139 C140 1.372 . S
C140 H118 0.950 . S
C140 C139 1.372 . S
C140 C141 1.379 . S
C141 H119 0.948 . S
C141 C136 1.364 . S
C141 C140 1.379 . S
C142 C111 1.383 . S
C142 C129 1.479 . S
C142 C143 1.398 . S
C143 C108 1.382 . S
C143 H120 0.951 . S
C143 C142 1.398 . S
C144 C145 1.384 . S
C144 H157 0.947 1_565 S
C144 C179 1.382 . S
C145 C144 1.384 . S
C145 C146 1.378 1_556 S
C146 C145 1.378 1_554 S
C146 C147 1.378 1_554 S
C146 H158 0.952 . S
C147 C146 1.378 1_556 S
C147 H159 0.950 1_556 S
C147 C178 1.383 . S
H148 C167 0.947 . S
H149 C168 0.946 1_554 S
H150 C170 0.953 . S
H151 C171 0.945 . S
H152 C173 0.952 . S
H153 C174 0.949 1_455 S
H154 C176 0.950 . S
H155 C177 0.942 1_545 S
H156 C179 0.951 . S
H157 C144 0.947 1_545 S
H158 C146 0.952 . S
H159 C147 0.950 1_554 S
N160 C163 1.382 . S
N160 C165 1.363 . S
N161 C163 1.371 . S
N161 C164 1.372 . S
N162 C164 1.361 . S
N162 C165 1.377 . S
C163 N160 1.382 . S
C163 N161 1.371 . S
C163 C166 1.480 . S
C164 N161 1.372 . S
C164 N162 1.361 . S
C164 C172 1.457 . S
C165 N160 1.363 . S
C165 N162 1.377 . S
C165 C178 1.479 . S
C166 C163 1.480 . S
C166 C167 1.383 . S
C166 C171 1.385 . S
C167 H148 0.947 . S
C167 C166 1.383 . S
C167 C168 1.388 . S
C168 H149 0.946 1_556 S
C168 C167 1.388 . S
C168 C169 1.384 . S
C169 C168 1.384 . S
C169 C170 1.377 1_655 S
C170 H150 0.953 . S
C170 C169 1.377 1_455 S
C170 C171 1.369 1_455 S
C171 H151 0.945 . S
C171 C166 1.385 . S
C171 C170 1.369 1_655 S
C172 C164 1.457 . S
C172 C173 1.372 . S
C172 C177 1.364 . S
C173 H152 0.952 . S
C173 C172 1.372 . S
C173 C174 1.389 . S
C174 H153 0.949 1_655 S
C174 C173 1.389 . S
C174 C175 1.387 . S
C175 C174 1.387 . S
C175 C176 1.372 1_565 S
C176 H154 0.950 . S
C176 C175 1.372 1_545 S
C176 C177 1.379 1_545 S
C177 H155 0.942 1_565 S
C177 C172 1.364 . S
C177 C176 1.379 1_565 S
C178 C147 1.383 . S
C178 C165 1.479 . S
C178 C179 1.398 . S
C179 C144 1.382 . S
C179 H156 0.951 . S
C179 C178 1.398 . S
C180 C181 1.384 . S
C180 H193 0.947 . S
C180 C215 1.382 . S
C181 C180 1.384 . S
C181 C182 1.378 . S
C182 C181 1.378 . S
C182 C183 1.378 . S
C182 H194 0.952 . S
C183 C182 1.378 . S
C183 H195 0.950 . S
C183 C214 1.383 . S
H184 C203 0.947 . S
H185 C204 0.946 . S
H186 C206 0.953 . S
H187 C207 0.945 . S
H188 C209 0.952 . S
H189 C210 0.949 . S
H190 C212 0.950 . S
H191 C213 0.948 . S
H192 C215 0.951 . S
H193 C180 0.947 . S
H194 C182 0.952 . S
H195 C183 0.950 . S
N196 C199 1.382 . S
N196 C201 1.363 . S
N197 C199 1.371 . S
N197 C200 1.372 . S
N198 C200 1.361 . S
N198 C201 1.377 . S
C199 N196 1.382 . S
C199 N197 1.371 . S
C199 C202 1.480 . S
C200 N197 1.372 . S
C200 N198 1.361 . S
C200 C208 1.457 . S
C201 N196 1.363 . S
C201 N198 1.377 . S
C201 C214 1.479 . S
C202 C199 1.480 . S
C202 C203 1.383 . S
C202 C207 1.385 . S
C203 H184 0.947 . S
C203 C202 1.383 . S
C203 C204 1.388 . S
C204 H185 0.946 . S
C204 C203 1.388 . S
C204 C205 1.384 . S
C205 C204 1.384 . S
C205 C206 1.377 . S
C206 H186 0.953 . S
C206 C205 1.377 . S
C206 C207 1.369 . S
C207 H187 0.945 . S
C207 C202 1.385 . S
C207 C206 1.369 . S
C208 C200 1.457 . S
C208 C209 1.372 . S
C208 C213 1.364 . S
C209 H188 0.952 . S
C209 C208 1.372 . S
C209 C210 1.389 . S
C210 H189 0.949 . S
C210 C209 1.389 . S
C210 C211 1.387 . S
C211 C210 1.387 . S
C211 C212 1.372 . S
C212 H190 0.950 . S
C212 C211 1.372 . S
C212 C213 1.379 . S
C213 H191 0.948 . S
C213 C208 1.364 . S
C213 C212 1.379 . S
C214 C183 1.383 . S
C214 C201 1.479 . S
C214 C215 1.398 . S
C215 C180 1.382 . S
C215 H192 0.951 . S
C215 C214 1.398 . S
C216 C217 1.384 . S
C216 H229 0.947 . S
C216 C251 1.382 . S
C217 C216 1.384 . S
C217 C218 1.378 . S
C218 C217 1.378 . S
C218 C219 1.378 . S
C218 H230 0.952 . S
C219 C218 1.378 . S
C219 H231 0.950 . S
C219 C250 1.383 . S
H220 C239 0.947 . S
H221 C240 0.946 . S
H222 C242 0.953 . S
H223 C243 0.945 . S
H224 C245 0.952 . S
H225 C246 0.949 . S
H226 C248 0.950 . S
H227 C249 0.948 . S
H228 C251 0.951 . S
H229 C216 0.947 . S
H230 C218 0.952 . S
H231 C219 0.950 . S
N232 C235 1.382 . S
N232 C237 1.363 . S
N233 C235 1.371 . S
N233 C236 1.372 . S
N234 C236 1.361 . S
N234 C237 1.377 . S
C235 N232 1.382 . S
C235 N233 1.371 . S
C235 C238 1.480 . S
C236 N233 1.372 . S
C236 N234 1.361 . S
C236 C244 1.457 . S
C237 N232 1.363 . S
C237 N234 1.377 . S
C237 C250 1.479 . S
C238 C235 1.480 . S
C238 C239 1.383 . S
C238 C243 1.385 . S
C239 H220 0.947 . S
C239 C238 1.383 . S
C239 C240 1.388 . S
C240 H221 0.946 . S
C240 C239 1.388 . S
C240 C241 1.384 . S
C241 C240 1.384 . S
C241 C242 1.377 . S
C242 H222 0.953 . S
C242 C241 1.377 . S
C242 C243 1.369 . S
C243 H223 0.945 . S
C243 C238 1.385 . S
C243 C242 1.369 . S
C244 C236 1.457 . S
C244 C245 1.372 . S
C244 C249 1.364 . S
C245 H224 0.952 . S
C245 C244 1.372 . S
C245 C246 1.389 . S
C246 H225 0.949 . S
C246 C245 1.389 . S
C246 C247 1.387 . S
C247 C246 1.387 . S
C247 C248 1.372 . S
C248 H226 0.950 . S
C248 C247 1.372 . S
C248 C249 1.379 . S
C249 H227 0.948 . S
C249 C244 1.364 . S
C249 C248 1.379 . S
C250 C219 1.383 . S
C250 C237 1.479 . S
C250 C251 1.398 . S
C251 C216 1.382 . S
C251 H228 0.951 . S
C251 C250 1.398 . S
C252 C253 1.384 . S
C252 H265 0.947 . S
C252 C287 1.382 . S
C253 C252 1.384 . S
C253 C254 1.378 . S
C254 C253 1.378 . S
C254 C255 1.378 . S
C254 H266 0.952 . S
C255 C254 1.378 . S
C255 H267 0.950 . S
C255 C286 1.383 . S
H256 C275 0.947 . S
H257 C276 0.946 . S
H258 C278 0.953 . S
H259 C279 0.945 . S
H260 C281 0.952 . S
H261 C282 0.949 . S
H262 C284 0.950 . S
H263 C285 0.948 . S
H264 C287 0.951 . S
H265 C252 0.947 . S
H266 C254 0.952 . S
H267 C255 0.950 . S
N268 C271 1.382 . S
N268 C273 1.363 . S
N269 C271 1.371 . S
N269 C272 1.372 . S
N270 C272 1.361 . S
N270 C273 1.377 . S
C271 N268 1.382 . S
C271 N269 1.371 . S
C271 C274 1.480 . S
C272 N269 1.372 . S
C272 N270 1.361 . S
C272 C280 1.457 . S
C273 N268 1.363 . S
C273 N270 1.377 . S
C273 C286 1.479 . S
C274 C271 1.480 . S
C274 C275 1.383 . S
C274 C279 1.385 . S
C275 H256 0.947 . S
C275 C274 1.383 . S
C275 C276 1.388 . S
C276 H257 0.946 . S
C276 C275 1.388 . S
C276 C277 1.384 . S
C277 C276 1.384 . S
C277 C278 1.377 . S
C278 H258 0.953 . S
C278 C277 1.377 . S
C278 C279 1.369 . S
C279 H259 0.945 . S
C279 C274 1.385 . S
C279 C278 1.369 . S
C280 C272 1.457 . S
C280 C281 1.372 . S
C280 C285 1.364 . S
C281 H260 0.952 . S
C281 C280 1.372 . S
C281 C282 1.389 . S
C282 H261 0.949 . S
C282 C281 1.389 . S
C282 C283 1.387 . S
C283 C282 1.387 . S
C283 C284 1.372 . S
C284 H262 0.950 . S
C284 C283 1.372 . S
C284 C285 1.379 . S
C285 H263 0.948 . S
C285 C280 1.364 . S
C285 C284 1.379 . S
C286 C255 1.383 . S
C286 C273 1.479 . S
C286 C287 1.398 . S
C287 C252 1.382 . S
C287 H264 0.951 . S
C287 C286 1.398 . S
Zn288 O294 1.920 . S
Zn288 O300 1.898 . S
Zn288 O303 1.905 . S
Zn289 O297 1.905 1_565 S
Zn289 O298 1.898 . S
Zn289 O306 1.920 . S
Zn290 O293 2.080 1_455 S
Zn290 O296 2.114 . S
Zn290 O299 2.120 1_445 S
Zn290 O301 2.120 . S
Zn290 O302 2.114 1_455 S
Zn290 O305 2.080 . S
C291 O296 1.166 . S
C291 O297 1.182 . S
C292 O298 1.167 1_655 S
C292 O299 1.299 . S
O293 Zn290 2.080 1_655 S
O293 C307 1.305 . S
O294 Zn288 1.920 . S
O294 C307 1.234 . S
C295 O300 1.167 1_455 S
C295 O301 1.299 . S
O296 Zn290 2.114 . S
O296 C291 1.166 . S
O297 Zn289 1.905 1_545 S
O297 C291 1.182 . S
O298 Zn289 1.898 . S
O298 C292 1.167 1_455 S
O299 Zn290 2.120 1_665 S
O299 C292 1.299 . S
O300 Zn288 1.898 . S
O300 C295 1.167 1_655 S
O301 Zn290 2.120 . S
O301 C295 1.299 . S
O302 Zn290 2.114 1_655 S
O302 C304 1.166 . S
O303 Zn288 1.905 . S
O303 C304 1.182 . S
C304 O302 1.166 . S
C304 O303 1.182 . S
O305 Zn290 2.080 . S
O305 C308 1.305 1_545 S
O306 Zn289 1.920 . S
O306 C308 1.234 . S
C307 O293 1.305 . S
C307 O294 1.234 . S
C308 O305 1.305 1_565 S
C308 O306 1.234 . S
Zn309 O315 1.920 1_556 S
Zn309 O321 1.898 . S
Zn309 O324 1.905 . S
Zn310 O318 1.905 . S
Zn310 O319 1.898 . S
Zn310 O327 1.920 . S
Zn311 O314 2.080 . S
Zn311 O317 2.114 1_545 S
Zn311 O320 2.120 1_545 S
Zn311 O322 2.120 . S
Zn311 O323 2.114 1_544 S
Zn311 O326 2.080 . S
C312 O317 1.166 . S
C312 O318 1.182 . S
C313 O319 1.167 . S
C313 O320 1.299 . S
O314 Zn311 2.080 . S
O314 C328 1.305 . S
O315 Zn309 1.920 1_554 S
O315 C328 1.234 . S
C316 O321 1.167 . S
C316 O322 1.299 1_556 S
O317 Zn311 2.114 1_565 S
O317 C312 1.166 . S
O318 Zn310 1.905 . S
O318 C312 1.182 . S
O319 Zn310 1.898 . S
O319 C313 1.167 . S
O320 Zn311 2.120 1_565 S
O320 C313 1.299 . S
O321 Zn309 1.898 . S
O321 C316 1.167 . S
O322 Zn311 2.120 . S
O322 C316 1.299 1_554 S
O323 Zn311 2.114 1_566 S
O323 C325 1.166 . S
O324 Zn309 1.905 . S
O324 C325 1.182 1_545 S
C325 O323 1.166 . S
C325 O324 1.182 1_565 S
O326 Zn311 2.080 . S
O326 C329 1.305 . S
O327 Zn310 1.920 . S
O327 C329 1.234 1_565 S
C328 O314 1.305 . S
C328 O315 1.234 . S
C329 O326 1.305 . S
C329 O327 1.234 1_545 S
Zn330 O336 1.920 . S
Zn330 O342 1.898 . S
Zn330 O345 1.905 . S
Zn331 O339 1.905 . S
Zn331 O340 1.898 . S
Zn331 O348 1.920 . S
Zn332 O335 2.080 . S
Zn332 O338 2.114 . S
Zn332 O341 2.120 . S
Zn332 O343 2.120 . S
Zn332 O344 2.114 . S
Zn332 O347 2.080 . S
C333 O338 1.166 . S
C333 O339 1.182 . S
C334 O340 1.167 . S
C334 O341 1.299 . S
O335 Zn332 2.080 . S
O335 C349 1.305 . S
O336 Zn330 1.920 . S
O336 C349 1.234 . S
C337 O342 1.167 . S
C337 O343 1.299 . S
O338 Zn332 2.114 . S
O338 C333 1.166 . S
O339 Zn331 1.905 . S
O339 C333 1.182 . S
O340 Zn331 1.898 . S
O340 C334 1.167 . S
O341 Zn332 2.120 . S
O341 C334 1.299 . S
O342 Zn330 1.898 . S
O342 C337 1.167 . S
O343 Zn332 2.120 . S
O343 C337 1.299 . S
O344 Zn332 2.114 . S
O344 C346 1.166 . S
O345 Zn330 1.905 . S
O345 C346 1.182 . S
C346 O344 1.166 . S
C346 O345 1.182 . S
O347 Zn332 2.080 . S
O347 C350 1.305 . S
O348 Zn331 1.920 . S
O348 C350 1.234 . S
C349 O335 1.305 . S
C349 O336 1.234 . S
C350 O347 1.305 . S
C350 O348 1.234 . S
Zn351 O357 1.920 . S
Zn351 O363 1.898 . S
Zn351 O366 1.905 . S
Zn352 O360 1.905 1_655 S
Zn352 O361 1.898 . S
Zn352 O369 1.920 . S
Zn353 O356 2.080 1_554 S
Zn353 O359 2.114 . S
Zn353 O362 2.120 1_454 S
Zn353 O364 2.120 . S
Zn353 O365 2.114 1_554 S
Zn353 O368 2.080 . S
C354 O359 1.166 . S
C354 O360 1.182 . S
C355 O361 1.167 1_556 S
C355 O362 1.299 . S
O356 Zn353 2.080 1_556 S
O356 C370 1.305 . S
O357 Zn351 1.920 . S
O357 C370 1.234 . S
C358 O363 1.167 1_554 S
C358 O364 1.299 . S
O359 Zn353 2.114 . S
O359 C354 1.166 . S
O360 Zn352 1.905 1_455 S
O360 C354 1.182 . S
O361 Zn352 1.898 . S
O361 C355 1.167 1_554 S
O362 Zn353 2.120 1_656 S
O362 C355 1.299 . S
O363 Zn351 1.898 . S
O363 C358 1.167 1_556 S
O364 Zn353 2.120 . S
O364 C358 1.299 . S
O365 Zn353 2.114 1_556 S
O365 C367 1.166 . S
O366 Zn351 1.905 . S
O366 C367 1.182 . S
C367 O365 1.166 . S
C367 O366 1.182 . S
O368 Zn353 2.080 . S
O368 C371 1.305 1_455 S
O369 Zn352 1.920 . S
O369 C371 1.234 . S
C370 O356 1.305 . S
C370 O357 1.234 . S
C371 O368 1.305 1_655 S
C371 O369 1.234 . S
H372 C378 0.930 . S
H373 C382 0.930 . S
H374 C387 0.929 . S
H375 C385 0.929 . S
H376 C380 0.929 . S
H377 C386 0.929 . S
C378 H372 0.930 . S
C378 C379 1.367 . S
C378 C386 1.378 . S
C379 C378 1.367 . S
C379 C387 1.433 . S
C380 H376 0.929 . S
C380 C382 1.378 . S
C380 C384 1.350 . S
C381 C384 1.463 . S
C381 C386 1.350 . S
C381 N389 1.427 . S
C382 H373 0.930 . S
C382 C380 1.378 . S
C382 C383 1.367 . S
C383 C382 1.367 . S
C383 C385 1.433 . S
C384 C380 1.350 . S
C384 C381 1.463 . S
C384 N388 1.427 . S
C385 H375 0.929 . S
C385 C383 1.433 . S
C385 N388 1.384 . S
C386 H377 0.929 . S
C386 C378 1.378 . S
C386 C381 1.350 . S
C387 H374 0.929 . S
C387 C379 1.433 . S
C387 N389 1.384 . S
N388 C384 1.427 . S
N388 C385 1.384 . S
N389 C381 1.427 . S
N389 C387 1.384 . S
H390 C396 0.930 . S
H391 C400 0.930 1_545 S
H392 C405 0.929 . S
H393 C403 0.929 . S
H394 C398 0.929 . S
H395 C404 0.929 . S
C396 H390 0.930 . S
C396 C397 1.367 . S
C396 C404 1.378 . S
C397 C396 1.367 . S
C397 C405 1.433 . S
C398 H394 0.929 . S
C398 C400 1.378 . S
C398 C402 1.350 . S
C399 C402 1.463 . S
C399 C404 1.350 . S
C399 N407 1.427 . S
C400 H391 0.930 1_565 S
C400 C398 1.378 . S
C400 C401 1.367 . S
C401 C400 1.367 . S
C401 C403 1.433 . S
C402 C398 1.350 . S
C402 C399 1.463 . S
C402 N406 1.427 . S
C403 H393 0.929 . S
C403 C401 1.433 . S
C403 N406 1.384 . S
C404 H395 0.929 . S
C404 C396 1.378 . S
C404 C399 1.350 . S
C405 H392 0.929 . S
C405 C397 1.433 . S
C405 N407 1.384 . S
N406 C402 1.427 . S
N406 C403 1.384 . S
N407 C399 1.427 . S
N407 C405 1.384 . S
H408 C414 0.930 . S
H409 C418 0.930 . S
H410 C423 0.929 . S
H411 C421 0.929 . S
H412 C416 0.929 . S
H413 C422 0.929 . S
C414 H408 0.930 . S
C414 C415 1.367 . S
C414 C422 1.378 . S
C415 C414 1.367 . S
C415 C423 1.433 . S
C416 H412 0.929 . S
C416 C418 1.378 . S
C416 C420 1.350 . S
C417 C420 1.463 . S
C417 C422 1.350 . S
C417 N425 1.427 . S
C418 H409 0.930 . S
C418 C416 1.378 . S
C418 C419 1.367 . S
C419 C418 1.367 . S
C419 C421 1.433 . S
C420 C416 1.350 . S
C420 C417 1.463 . S
C420 N424 1.427 . S
C421 H411 0.929 . S
C421 C419 1.433 . S
C421 N424 1.384 . S
C422 H413 0.929 . S
C422 C414 1.378 . S
C422 C417 1.350 . S
C423 H410 0.929 . S
C423 C415 1.433 . S
C423 N425 1.384 . S
N424 C420 1.427 . S
N424 C421 1.384 . S
N425 C417 1.427 . S
N425 C423 1.384 . S
H426 C432 0.930 . S
H427 C436 0.930 . S
H428 C441 0.929 . S
H429 C439 0.929 . S
H430 C434 0.929 . S
H431 C440 0.929 . S
C432 H426 0.930 . S
C432 C433 1.367 . S
C432 C440 1.378 . S
C433 C432 1.367 . S
C433 C441 1.433 . S
C434 H430 0.929 . S
C434 C436 1.378 . S
C434 C438 1.350 . S
C435 C438 1.463 . S
C435 C440 1.350 . S
C435 N443 1.427 . S
C436 H427 0.930 . S
C436 C434 1.378 . S
C436 C437 1.367 . S
C437 C436 1.367 . S
C437 C439 1.433 . S
C438 C434 1.350 . S
C438 C435 1.463 . S
C438 N442 1.427 . S
C439 H429 0.929 . S
C439 C437 1.433 . S
C439 N442 1.384 . S
C440 H431 0.929 . S
C440 C432 1.378 . S
C440 C435 1.350 . S
C441 H428 0.929 . S
C441 C433 1.433 . S
C441 N443 1.384 . S
N442 C438 1.427 . S
N442 C439 1.384 . S
N443 C435 1.427 . S
N443 C441 1.384 . S
H444 C450 0.930 . S
H445 C454 0.930 . S
H446 C459 0.929 . S
H447 C457 0.929 . S
H448 C452 0.929 . S
H449 C458 0.929 . S
C450 H444 0.930 . S
C450 C451 1.367 . S
C450 C458 1.378 . S
C451 C450 1.367 . S
C451 C459 1.433 . S
C452 H448 0.929 . S
C452 C454 1.378 . S
C452 C456 1.350 . S
C453 C456 1.463 . S
C453 C458 1.350 . S
C453 N461 1.427 . S
C454 H445 0.930 . S
C454 C452 1.378 . S
C454 C455 1.367 . S
C455 C454 1.367 . S
C455 C457 1.433 . S
C456 C452 1.350 . S
C456 C453 1.463 . S
C456 N460 1.427 . S
C457 H447 0.929 . S
C457 C455 1.433 . S
C457 N460 1.384 . S
C458 H449 0.929 . S
C458 C450 1.378 . S
C458 C453 1.350 . S
C459 H446 0.929 . S
C459 C451 1.433 . S
C459 N461 1.384 . S
N460 C456 1.427 . S
N460 C457 1.384 . S
N461 C453 1.427 . S
N461 C459 1.384 . S
H462 C468 0.930 . S
H463 C472 0.930 1_545 S
H464 C477 0.929 . S
H465 C475 0.929 . S
H466 C470 0.929 . S
H467 C476 0.929 . S
C468 H462 0.930 . S
C468 C469 1.367 . S
C468 C476 1.378 . S
C469 C468 1.367 . S
C469 C477 1.433 . S
C470 H466 0.929 . S
C470 C472 1.378 . S
C470 C474 1.350 . S
C471 C474 1.463 . S
C471 C476 1.350 . S
C471 N479 1.427 . S
C472 H463 0.930 1_565 S
C472 C470 1.378 . S
C472 C473 1.367 . S
C473 C472 1.367 . S
C473 C475 1.433 . S
C474 C470 1.350 . S
C474 C471 1.463 . S
C474 N478 1.427 . S
C475 H465 0.929 . S
C475 C473 1.433 . S
C475 N478 1.384 . S
C476 H467 0.929 . S
C476 C468 1.378 . S
C476 C471 1.350 . S
C477 H464 0.929 . S
C477 C469 1.433 . S
C477 N479 1.384 . S
N478 C474 1.427 . S
N478 C475 1.384 . S
N479 C471 1.427 . S
N479 C477 1.384 . S
H480 C486 0.930 . S
H481 C490 0.930 . S
H482 C495 0.929 . S
H483 C493 0.929 . S
H484 C488 0.929 . S
H485 C494 0.929 . S
C486 H480 0.930 . S
C486 C487 1.367 . S
C486 C494 1.378 . S
C487 C486 1.367 . S
C487 C495 1.433 . S
C488 H484 0.929 . S
C488 C490 1.378 . S
C488 C492 1.350 . S
C489 C492 1.463 . S
C489 C494 1.350 . S
C489 N497 1.427 . S
C490 H481 0.930 . S
C490 C488 1.378 . S
C490 C491 1.367 . S
C491 C490 1.367 . S
C491 C493 1.433 . S
C492 C488 1.350 . S
C492 C489 1.463 . S
C492 N496 1.427 . S
C493 H483 0.929 . S
C493 C491 1.433 . S
C493 N496 1.384 . S
C494 H485 0.929 . S
C494 C486 1.378 . S
C494 C489 1.350 . S
C495 H482 0.929 . S
C495 C487 1.433 . S
C495 N497 1.384 . S
N496 C492 1.427 . S
N496 C493 1.384 . S
N497 C489 1.427 . S
N497 C495 1.384 . S
H498 C504 0.930 . S
H499 C508 0.930 . S
H500 C513 0.929 . S
H501 C511 0.929 . S
H502 C506 0.929 . S
H503 C512 0.929 . S
C504 H498 0.930 . S
C504 C505 1.367 . S
C504 C512 1.378 . S
C505 C504 1.367 . S
C505 C513 1.433 . S
C506 H502 0.929 . S
C506 C508 1.378 . S
C506 C510 1.350 . S
C507 C510 1.463 . S
C507 C512 1.350 . S
C507 N515 1.427 . S
C508 H499 0.930 . S
C508 C506 1.378 . S
C508 C509 1.367 . S
C509 C508 1.367 . S
C509 C511 1.433 . S
C510 C506 1.350 . S
C510 C507 1.463 . S
C510 N514 1.427 . S
C511 H501 0.929 . S
C511 C509 1.433 . S
C511 N514 1.384 . S
C512 H503 0.929 . S
C512 C504 1.378 . S
C512 C507 1.350 . S
C513 H500 0.929 . S
C513 C505 1.433 . S
C513 N515 1.384 . S
N514 C510 1.427 . S
N514 C511 1.384 . S
N515 C507 1.427 . S
N515 C513 1.384 . S
H516 C522 0.930 . S
H517 C526 0.930 . S
H518 C531 0.929 . S
H519 C529 0.929 . S
H520 C524 0.929 . S
H521 C530 0.929 . S
C522 H516 0.930 . S
C522 C523 1.367 . S
C522 C530 1.378 . S
C523 C522 1.367 . S
C523 C531 1.433 . S
C524 H520 0.929 . S
C524 C526 1.378 . S
C524 C528 1.350 . S
C525 C528 1.463 . S
C525 C530 1.350 . S
C525 N533 1.427 . S
C526 H517 0.930 . S
C526 C524 1.378 . S
C526 C527 1.367 . S
C527 C526 1.367 . S
C527 C529 1.433 . S
C528 C524 1.350 . S
C528 C525 1.463 . S
C528 N532 1.427 . S
C529 H519 0.929 . S
C529 C527 1.433 . S
C529 N532 1.384 . S
C530 H521 0.929 . S
C530 C522 1.378 . S
C530 C525 1.350 . S
C531 H518 0.929 . S
C531 C523 1.433 . S
C531 N533 1.384 . S
N532 C528 1.427 . S
N532 C529 1.384 . S
N533 C525 1.427 . S
N533 C531 1.384 . S
H534 C540 0.930 . S
H535 C544 0.930 . S
H536 C549 0.929 . S
H537 C547 0.929 . S
H538 C542 0.929 . S
H539 C548 0.929 . S
C540 H534 0.930 . S
C540 C541 1.367 . S
C540 C548 1.378 . S
C541 C540 1.367 . S
C541 C549 1.433 . S
C542 H538 0.929 . S
C542 C544 1.378 . S
C542 C546 1.350 . S
C543 C546 1.463 . S
C543 C548 1.350 . S
C543 N551 1.427 . S
C544 H535 0.930 . S
C544 C542 1.378 . S
C544 C545 1.367 . S
C545 C544 1.367 . S
C545 C547 1.433 . S
C546 C542 1.350 . S
C546 C543 1.463 . S
C546 N550 1.427 . S
C547 H537 0.929 . S
C547 C545 1.433 . S
C547 N550 1.384 . S
C548 H539 0.929 . S
C548 C540 1.378 . S
C548 C543 1.350 . S
C549 H536 0.929 . S
C549 C541 1.433 . S
C549 N551 1.384 . S
N550 C546 1.427 . S
N550 C547 1.384 . S
N551 C543 1.427 . S
N551 C549 1.384 . S
H552 C558 0.930 . S
H553 C562 0.930 . S
H554 C567 0.929 . S
H555 C565 0.929 1_455 S
H556 C560 0.929 . S
H557 C566 0.929 . S
C558 H552 0.930 . S
C558 C559 1.367 . S
C558 C566 1.378 . S
C559 C558 1.367 . S
C559 C567 1.433 . S
C560 H556 0.929 . S
C560 C562 1.378 . S
C560 C564 1.350 . S
C561 C564 1.463 . S
C561 C566 1.350 . S
C561 N569 1.427 . S
C562 H553 0.930 . S
C562 C560 1.378 . S
C562 C563 1.367 . S
C563 C562 1.367 . S
C563 C565 1.433 . S
C564 C560 1.350 . S
C564 C561 1.463 . S
C564 N568 1.427 . S
C565 H555 0.929 1_655 S
C565 C563 1.433 . S
C565 N568 1.384 . S
C566 H557 0.929 . S
C566 C558 1.378 . S
C566 C561 1.350 . S
C567 H554 0.929 . S
C567 C559 1.433 . S
C567 N569 1.384 . S
N568 C564 1.427 . S
N568 C565 1.384 . S
N569 C561 1.427 . S
N569 C567 1.384 . S
H570 C576 0.930 . S
H571 C580 0.930 . S
H572 C585 0.929 . S
H573 C583 0.929 . S
H574 C578 0.929 . S
H575 C584 0.929 . S
C576 H570 0.930 . S
C576 C577 1.367 . S
C576 C584 1.378 . S
C577 C576 1.367 . S
C577 C585 1.433 . S
C578 H574 0.929 . S
C578 C580 1.378 . S
C578 C582 1.350 . S
C579 C582 1.463 . S
C579 C584 1.350 . S
C579 N587 1.427 . S
C580 H571 0.930 . S
C580 C578 1.378 . S
C580 C581 1.367 . S
C581 C580 1.367 . S
C581 C583 1.433 . S
C582 C578 1.350 . S
C582 C579 1.463 . S
C582 N586 1.427 . S
C583 H573 0.929 . S
C583 C581 1.433 . S
C583 N586 1.384 . S
C584 H575 0.929 . S
C584 C576 1.378 . S
C584 C579 1.350 . S
C585 H572 0.929 . S
C585 C577 1.433 . S
C585 N587 1.384 . S
N586 C582 1.427 . S
N586 C583 1.384 . S
N587 C579 1.427 . S
N587 C585 1.384 . S
H588 C594 0.930 1_455 S
H589 C598 0.930 . S
H590 C603 0.929 . S
H591 C601 0.929 . S
H592 C596 0.929 . S
H593 C602 0.921 1_455 S
C594 H588 0.930 1_655 S
C594 C595 1.367 1_545 S
C594 C602 1.379 . S
C595 C594 1.367 1_565 S
C595 C603 1.433 . S
C596 H592 0.929 . S
C596 C598 1.378 . S
C596 C600 1.350 1_565 S
C597 C600 1.463 . S
C597 C602 1.358 . S
C597 N605 1.427 1_545 S
C598 H589 0.930 . S
C598 C596 1.378 . S
C598 C599 1.367 1_565 S
C599 C598 1.367 1_545 S
C599 C601 1.433 1_655 S
C600 C596 1.350 1_545 S
C600 C597 1.463 . S
C600 N604 1.427 1_655 S
C601 H591 0.929 . S
C601 C599 1.433 1_455 S
C601 N604 1.384 . S
C602 H593 0.921 1_655 S
C602 C594 1.379 . S
C602 C597 1.358 . S
C603 H590 0.929 . S
C603 C595 1.433 . S
C603 N605 1.384 . S
N604 C600 1.427 1_455 S
N604 C601 1.384 . S
N605 C597 1.427 1_565 S
N605 C603 1.384 . S
H606 C612 0.930 . S
H607 C616 0.930 1_565 S
H608 C621 0.929 . S
H609 C619 0.929 . S
H610 C614 0.929 . S
H611 C620 0.929 . S
C612 H606 0.930 . S
C612 C613 1.367 . S
C612 C620 1.378 . S
C613 C612 1.367 . S
C613 C621 1.433 . S
C614 H610 0.929 . S
C614 C616 1.378 . S
C614 C618 1.350 . S
C615 C618 1.463 . S
C615 C620 1.350 . S
C615 N623 1.427 . S
C616 H607 0.930 1_545 S
C616 C614 1.378 . S
C616 C617 1.367 . S
C617 C616 1.367 . S
C617 C619 1.433 . S
C618 C614 1.350 . S
C618 C615 1.463 . S
C618 N622 1.427 . S
C619 H609 0.929 . S
C619 C617 1.433 . S
C619 N622 1.384 . S
C620 H611 0.929 . S
C620 C612 1.378 . S
C620 C615 1.350 . S
C621 H608 0.929 . S
C621 C613 1.433 . S
C621 N623 1.384 . S
N622 C618 1.427 . S
N622 C619 1.384 . S
N623 C615 1.427 . S
N623 C621 1.384 . S
H624 C630 0.930 . S
H625 C634 0.930 . S
H626 C639 0.929 . S
H627 C637 0.929 . S
H628 C632 0.929 . S
H629 C638 0.929 . S
C630 H624 0.930 . S
C630 C631 1.367 . S
C630 C638 1.378 . S
C631 C630 1.367 . S
C631 C639 1.433 . S
C632 H628 0.929 . S
C632 C634 1.378 . S
C632 C636 1.350 . S
C633 C636 1.463 . S
C633 C638 1.350 . S
C633 N641 1.427 . S
C634 H625 0.930 . S
C634 C632 1.378 . S
C634 C635 1.367 . S
C635 C634 1.367 . S
C635 C637 1.433 . S
C636 C632 1.350 . S
C636 C633 1.463 . S
C636 N640 1.427 . S
C637 H627 0.929 . S
C637 C635 1.433 . S
C637 N640 1.384 . S
C638 H629 0.929 . S
C638 C630 1.378 . S
C638 C633 1.350 . S
C639 H626 0.929 . S
C639 C631 1.433 . S
C639 N641 1.384 . S
N640 C636 1.427 . S
N640 C637 1.384 . S
N641 C633 1.427 . S
N641 C639 1.384 . S
H642 C648 0.930 . S
H643 C652 0.930 . S
H644 C657 0.929 . S
H645 C655 0.929 . S
H646 C650 0.929 . S
H647 C656 0.929 . S
C648 H642 0.930 . S
C648 C649 1.367 . S
C648 C656 1.378 . S
C649 C648 1.367 . S
C649 C657 1.433 . S
C650 H646 0.929 . S
C650 C652 1.378 . S
C650 C654 1.350 . S
C651 C654 1.463 . S
C651 C656 1.350 . S
C651 N659 1.427 . S
C652 H643 0.930 . S
C652 C650 1.378 . S
C652 C653 1.367 . S
C653 C652 1.367 . S
C653 C655 1.433 . S
C654 C650 1.350 . S
C654 C651 1.463 . S
C654 N658 1.427 . S
C655 H645 0.929 . S
C655 C653 1.433 . S
C655 N658 1.384 . S
C656 H647 0.929 . S
C656 C648 1.378 . S
C656 C651 1.350 . S
C657 H644 0.929 . S
C657 C649 1.433 . S
C657 N659 1.384 . S
N658 C654 1.427 . S
N658 C655 1.384 . S
N659 C651 1.427 . S
N659 C657 1.384 . S
H660 C666 0.930 . S
H661 C670 0.930 . S
H662 C675 0.929 . S
H663 C673 0.929 . S
H664 C668 0.929 . S
H665 C674 0.929 . S
C666 H660 0.930 . S
C666 C667 1.367 1_545 S
C666 C674 1.378 . S
C667 C666 1.367 1_565 S
C667 C675 1.433 1_556 S
C668 H664 0.929 . S
C668 C670 1.378 . S
C668 C672 1.350 . S
C669 C672 1.463 . S
C669 C674 1.350 1_564 S
C669 N677 1.427 . S
C670 H661 0.930 . S
C670 C668 1.378 . S
C670 C671 1.367 . S
C671 C670 1.367 . S
C671 C673 1.433 1_564 S
C672 C668 1.350 . S
C672 C669 1.463 . S
C672 N676 1.427 1_564 S
C673 H663 0.929 . S
C673 C671 1.433 1_546 S
C673 N676 1.384 . S
C674 H665 0.929 . S
C674 C666 1.378 . S
C674 C669 1.350 1_546 S
C675 H662 0.929 . S
C675 C667 1.433 1_554 S
C675 N677 1.384 . S
N676 C672 1.427 1_546 S
N676 C673 1.384 . S
N677 C669 1.427 . S
N677 C675 1.384 . S
H678 C684 0.930 . S
H679 C688 0.930 . S
H680 C693 0.929 . S
H681 C691 0.929 . S
H682 C686 0.929 . S
H683 C692 0.929 . S
C684 H678 0.930 . S
C684 C685 1.367 . S
C684 C692 1.378 . S
C685 C684 1.367 . S
C685 C693 1.433 . S
C686 H682 0.929 . S
C686 C688 1.378 . S
C686 C690 1.350 . S
C687 C690 1.463 . S
C687 C692 1.350 . S
C687 N695 1.427 . S
C688 H679 0.930 . S
C688 C686 1.378 . S
C688 C689 1.367 . S
C689 C688 1.367 . S
C689 C691 1.433 . S
C690 C686 1.350 . S
C690 C687 1.463 . S
C690 N694 1.427 . S
C691 H681 0.929 . S
C691 C689 1.433 . S
C691 N694 1.384 . S
C692 H683 0.929 . S
C692 C684 1.378 . S
C692 C687 1.350 . S
C693 H680 0.929 . S
C693 C685 1.433 . S
C693 N695 1.384 . S
N694 C690 1.427 . S
N694 C691 1.384 . S
N695 C687 1.427 . S
N695 C693 1.384 . S
H696 C702 0.930 . S
H697 C706 0.959 . S
H698 C711 0.929 1_556 S
H699 C709 0.929 . S
H700 C704 0.929 1_556 S
H701 C710 0.929 . S
C702 H696 0.930 . S
C702 C703 1.367 . S
C702 C710 1.378 . S
C703 C702 1.367 . S
C703 C711 1.433 . S
C704 H700 0.929 1_554 S
C704 C706 1.375 1_554 S
C704 C708 1.350 . S
C705 C708 1.463 . S
C705 C710 1.350 . S
C705 N713 1.427 . S
C706 H697 0.959 . S
C706 C704 1.375 1_556 S
C706 C707 1.342 1_556 S
C707 C706 1.342 1_554 S
C707 C709 1.433 . S
C708 C704 1.350 . S
C708 C705 1.463 . S
C708 N712 1.427 . S
C709 H699 0.929 . S
C709 C707 1.433 . S
C709 N712 1.384 . S
C710 H701 0.929 . S
C710 C702 1.378 . S
C710 C705 1.350 . S
C711 H698 0.929 1_554 S
C711 C703 1.433 . S
C711 N713 1.384 . S
N712 C708 1.427 . S
N712 C709 1.384 . S
N713 C705 1.427 . S
N713 C711 1.384 . S
H714 C720 0.930 . S
H715 C724 0.930 . S
H716 C729 0.929 . S
H717 C727 0.929 . S
H718 C722 0.929 . S
H719 C728 0.929 . S
C720 H714 0.930 . S
C720 C721 1.367 . S
C720 C728 1.378 . S
C721 C720 1.367 . S
C721 C729 1.433 . S
C722 H718 0.929 . S
C722 C724 1.378 . S
C722 C726 1.350 . S
C723 C726 1.463 . S
C723 C728 1.350 . S
C723 N731 1.427 . S
C724 H715 0.930 . S
C724 C722 1.378 . S
C724 C725 1.367 . S
C725 C724 1.367 . S
C725 C727 1.433 . S
C726 C722 1.350 . S
C726 C723 1.463 . S
C726 N730 1.427 . S
C727 H717 0.929 . S
C727 C725 1.433 . S
C727 N730 1.384 . S
C728 H719 0.929 . S
C728 C720 1.378 . S
C728 C723 1.350 . S
C729 H716 0.929 . S
C729 C721 1.433 . S
C729 N731 1.384 . S
N730 C726 1.427 . S
N730 C727 1.384 . S
N731 C723 1.427 . S
N731 C729 1.384 . S
H732 C738 0.930 . S
H733 C742 0.930 . S
H734 C747 0.929 . S
H735 C745 0.929 . S
H736 C740 0.929 . S
H737 C746 0.929 . S
C738 H732 0.930 . S
C738 C739 1.367 1_554 S
C738 C746 1.378 . S
C739 C738 1.367 1_556 S
C739 C747 1.433 1_655 S
C740 H736 0.929 . S
C740 C742 1.378 . S
C740 C744 1.350 . S
C741 C744 1.463 . S
C741 C746 1.350 1_456 S
C741 N749 1.427 . S
C742 H733 0.930 . S
C742 C740 1.378 . S
C742 C743 1.367 . S
C743 C742 1.367 . S
C743 C745 1.433 1_456 S
C744 C740 1.350 . S
C744 C741 1.463 . S
C744 N748 1.427 1_456 S
C745 H735 0.929 . S
C745 C743 1.433 1_654 S
C745 N748 1.384 . S
C746 H737 0.929 . S
C746 C738 1.378 . S
C746 C741 1.350 1_654 S
C747 H734 0.929 . S
C747 C739 1.433 1_455 S
C747 N749 1.384 . S
N748 C744 1.427 1_654 S
N748 C745 1.384 . S
N749 C741 1.427 . S
N749 C747 1.384 . S
H750 C756 0.930 . S
H751 C760 0.930 . S
H752 C765 0.929 . S
H753 C763 0.929 . S
H754 C758 0.929 . S
H755 C764 0.929 . S
C756 H750 0.930 . S
C756 C757 1.367 . S
C756 C764 1.378 . S
C757 C756 1.367 . S
C757 C765 1.433 . S
C758 H754 0.929 . S
C758 C760 1.378 . S
C758 C762 1.350 . S
C759 C762 1.463 . S
C759 C764 1.350 . S
C759 N767 1.427 . S
C760 H751 0.930 . S
C760 C758 1.378 . S
C760 C761 1.367 . S
C761 C760 1.367 . S
C761 C763 1.433 . S
C762 C758 1.350 . S
C762 C759 1.463 . S
C762 N766 1.427 . S
C763 H753 0.929 . S
C763 C761 1.433 . S
C763 N766 1.384 . S
C764 H755 0.929 . S
C764 C756 1.378 . S
C764 C759 1.350 . S
C765 H752 0.929 . S
C765 C757 1.433 . S
C765 N767 1.384 . S
N766 C762 1.427 . S
N766 C763 1.384 . S
N767 C759 1.427 . S
N767 C765 1.384 . S
H768 C774 0.932 1_655 S
H769 C778 0.930 . S
H770 C783 0.929 . S
H771 C781 0.929 . S
H772 C776 0.929 . S
H773 C782 0.929 1_655 S
C774 H768 0.932 1_455 S
C774 C775 1.367 . S
C774 C782 1.378 . S
C775 C774 1.367 . S
C775 C783 1.433 . S
C776 H772 0.929 . S
C776 C778 1.378 . S
C776 C780 1.350 . S
C777 C780 1.463 . S
C777 C782 1.350 . S
C777 N785 1.427 . S
C778 H769 0.930 . S
C778 C776 1.378 . S
C778 C779 1.367 . S
C779 C778 1.367 . S
C779 C781 1.433 1_455 S
C780 C776 1.350 . S
C780 C777 1.463 . S
C780 N784 1.427 . S
C781 H771 0.929 . S
C781 C779 1.433 1_655 S
C781 N784 1.384 1_655 S
C782 H773 0.929 1_455 S
C782 C774 1.378 . S
C782 C777 1.350 . S
C783 H770 0.929 . S
C783 C775 1.433 . S
C783 N785 1.384 . S
N784 C780 1.427 . S
N784 C781 1.384 1_455 S
N785 C777 1.427 . S
N785 C783 1.384 . S
H786 C792 0.930 . S
H787 C796 0.930 . S
H788 C801 0.929 . S
H789 C799 0.929 . S
H790 C794 0.929 . S
H791 C800 0.929 . S
C792 H786 0.930 . S
C792 C793 1.367 . S
C792 C800 1.378 . S
C793 C792 1.367 . S
C793 C801 1.433 . S
C794 H790 0.929 . S
C794 C796 1.378 . S
C794 C798 1.350 . S
C795 C798 1.463 . S
C795 C800 1.350 . S
C795 N803 1.427 . S
C796 H787 0.930 . S
C796 C794 1.378 . S
C796 C797 1.367 . S
C797 C796 1.367 . S
C797 C799 1.433 . S
C798 C794 1.350 . S
C798 C795 1.463 . S
C798 N802 1.427 . S
C799 H789 0.929 . S
C799 C797 1.433 . S
C799 N802 1.384 . S
C800 H791 0.929 . S
C800 C792 1.378 . S
C800 C795 1.350 . S
C801 H788 0.929 . S
C801 C793 1.433 . S
C801 N803 1.384 . S
N802 C798 1.427 . S
N802 C799 1.384 . S
N803 C795 1.427 . S
N803 C801 1.384 . S
C379 C1 1.531 . S
C383 C291 1.440 . S
C397 C67 1.518 . S
C401 C325 1.407 . S
C419 C337 1.384 . S
C415 C97 1.489 . S
C433 C133 1.514 . S
C437 C371 1.404 . S
C455 C328 1.413 . S
C451 C25 1.526 . S
C473 C308 1.398 . S
C469 C37 1.507 . S
C491 C355 1.397 . S
C487 C103 1.497 . S
C509 C346 1.415 . S
C505 C109 1.510 . S
C523 C31 1.531 . S
C527 C354 1.425 . S
C545 C316 1.398 . S
C541 C73 1.495 . S
C559 C139 1.519 . S
C563 C292 1.418 . S
C577 C61 1.510 . S
C581 C349 1.404 . S
C599 C307 1.635 . S
C595 C175 1.748 . S
C613 C181 1.667 . S
C617 C329 1.611 . S
C631 C247 1.765 . S
C635 C334 1.643 . S
C649 C277 1.763 . S
C653 C367 1.652 . S
C667 C145 1.738 . S
C671 C312 1.628 . S
C689 C304 1.638 . S
C685 C211 1.695 . S
C707 C358 1.623 . S
C703 C217 1.741 . S
C725 C350 1.627 . S
C721 C283 1.750 . S
C739 C169 1.725 . S
C743 C370 1.603 . S
C761 C313 1.642 . S
C757 C241 1.750 . S
C779 C295 1.626 . S
C775 C253 1.727 . S
C793 C205 1.685 . S
C797 C333 1.632 . S
