# Generated by pormake.
# Topology rtl, (3,6)-cn, num edge types: 1
# Building blocks:
#     Node 0, Type 0, BuildingBlock: VETTIZ_charged_linker_0, # of connection points: 3
#     Node 1, Type 0, BuildingBlock: VETTIZ_charged_linker_0, # of connection points: 3
#     Node 2, Type 0, BuildingBlock: VETTIZ_charged_linker_0, # of connection points: 3
#     Node 3, Type 0, BuildingBlock: VETTIZ_charged_linker_0, # of connection points: 3
#     Node 4, Type 1, BuildingBlock: FUNLAD_clean_sbu_0, # of connection points: 6
#     Node 5, Type 1, BuildingBlock: FUNLAD_clean_sbu_0, # of connection points: 6
#     Edge 6, Type (0, 1), BuildingBlock: OJICUG_clean_linker_0, # of connection points: 2
#     Edge 7, Type (0, 1), BuildingBlock: OJICUG_clean_linker_0, # of connection points: 2
#     Edge 8, Type (0, 1), BuildingBlock: OJICUG_clean_linker_0, # of connection points: 2
#     Edge 9, Type (0, 1), BuildingBlock: OJICUG_clean_linker_0, # of connection points: 2
#     Edge 10, Type (0, 1), BuildingBlock: OJICUG_clean_linker_0, # of connection points: 2
#     Edge 11, Type (0, 1), BuildingBlock: OJICUG_clean_linker_0, # of connection points: 2
#     Edge 12, Type (0, 1), BuildingBlock: OJICUG_clean_linker_0, # of connection points: 2
#     Edge 13, Type (0, 1), BuildingBlock: OJICUG_clean_linker_0, # of connection points: 2
#     Edge 14, Type (0, 1), BuildingBlock: OJICUG_clean_linker_0, # of connection points: 2
#     Edge 15, Type (0, 1), BuildingBlock: OJICUG_clean_linker_0, # of connection points: 2
#     Edge 16, Type (0, 1), BuildingBlock: OJICUG_clean_linker_0, # of connection points: 2
#     Edge 17, Type (0, 1), BuildingBlock: OJICUG_clean_linker_0, # of connection points: 2
# Relax obj value: 0.027
# Max RMSD: 0.109
# Mean RMSD: 0.090
data_MOF--net-rtl--node1-FUNLAD_clean_sbu_0--node2-VETTIZ_charged_linker_0--edge1-OJICUG_clean_linker_0
_symmetry_space_group_name_H-M    P1
_symmetry_Int_Tables_number       1
_symmetry_cell_setting            triclinic
loop_
_symmetry_equiv_pos_as_xyz
'x, y, z'
_cell_length_a     39.239243
_cell_length_b     31.119781
_cell_length_c     22.015062
_cell_angle_alpha  89.863905
_cell_angle_beta   90.68857
_cell_angle_gamma 90.309251
loop_
_atom_site_label
_atom_site_type_symbol
_atom_site_fract_x
_atom_site_fract_y
_atom_site_fract_z
_atom_type_partial_charge
C0 C 0.08248 0.82227 0.81267 0.0
C1 C 0.05356 0.84871 0.8091 0.0
C2 C 0.03396 0.85512 0.86145 0.0
C3 C 0.07396 0.81303 0.92088 0.0
C4 C 0.09203 0.80451 0.86887 0.0
C5 C 0.12239 0.77631 0.88145 0.0
H6 H 0.22848 0.68257 0.08636 0.0
C7 C 0.09235 0.79354 0.97276 0.0
C8 C 0.12048 0.7714 0.95007 0.0
H9 H 0.23199 0.67655 0.89026 0.0
H10 H 0.18045 0.71803 0.88277 0.0
H11 H 0.20934 0.77952 0.09391 0.0
H12 H 0.14434 0.66747 0.09663 0.0
H13 H 0.13203 0.70264 0.15504 0.0
H14 H 0.17426 0.68027 0.15637 0.0
H15 H 0.20524 0.74682 0.16067 0.0
H16 H 0.17625 0.7903 0.14438 0.0
C17 C 0.15484 0.80105 0.86201 0.0
C18 C 0.11671 0.73292 0.8482 0.0
C19 C 0.0573 0.83316 0.18569 0.0
C20 C 0.0727 0.82744 0.24293 0.0
C21 C 0.10175 0.80116 0.24817 0.0
C22 C 0.11569 0.78172 0.19665 0.0
C23 C 0.10077 0.78932 0.13921 0.0
C24 C 0.07187 0.81438 0.13471 0.0
C25 C 0.06078 0.82187 0.07013 0.0
C26 C 0.08776 0.7972 0.03631 0.0
C27 C 0.11105 0.77796 0.07682 0.0
C28 C 0.06273 0.87096 0.05753 0.0
C29 C 0.02488 0.80167 0.06104 0.0
C30 C 0.21785 0.68968 0.04186 0.0
C31 C 0.23447 0.67646 0.98882 0.0
C32 C 0.22001 0.68691 0.93176 0.0
C33 C 0.18997 0.71084 0.92747 0.0
C34 C 0.17418 0.72479 0.98074 0.0
C35 C 0.18783 0.71371 0.03675 0.0
C36 C 0.16753 0.73171 0.08836 0.0
C37 C 0.13908 0.7545 0.05397 0.0
C38 C 0.14344 0.75079 0.99094 0.0
C39 C 0.19062 0.76356 0.12425 0.0
C40 C 0.15386 0.69374 0.12665 0.0
H41 H 0.02845 0.84436 0.95569 0.0
H42 H 0.09759 0.81612 0.7728 0.0
H43 H 0.08911 0.72593 0.841 0.0
H44 H 0.1263 0.70523 0.87489 0.0
H45 H 0.12887 0.73306 0.8029 0.0
H46 H 0.15377 0.83506 0.87736 0.0
H47 H 0.15733 0.80117 0.8118 0.0
H48 H 0.17847 0.78796 0.88214 0.0
H49 H 0.03544 0.854 0.18004 0.0
H50 H 0.11397 0.79629 0.29201 0.0
H51 H 0.13804 0.76247 0.20329 0.0
H52 H 0.08448 0.8859 0.08277 0.0
H53 H 0.03911 0.88731 0.07203 0.0
H54 H 0.06748 0.87899 0.00958 0.0
H55 H 0.02163 0.77266 0.09009 0.0
H56 H 0.02038 0.79007 0.01416 0.0
H57 H 0.00456 0.82473 0.07312 0.0
H58 H 0.01162 0.87541 0.8598 0.0
C59 C 0.04395 0.83734 0.91721 0.0
C60 C 0.58066 0.69264 0.7027 0.0
C61 C 0.55169 0.66593 0.70604 0.0
C62 C 0.53151 0.65931 0.65352 0.0
C63 C 0.5712 0.70125 0.59429 0.0
C64 C 0.58975 0.71027 0.64648 0.0
C65 C 0.62002 0.73881 0.63398 0.0
H66 H 0.72529 0.82883 0.42755 0.0
C67 C 0.58925 0.72035 0.5424 0.0
C68 C 0.61757 0.74309 0.56523 0.0
H69 H 0.73106 0.83915 0.62321 0.0
H70 H 0.67854 0.79872 0.63198 0.0
H71 H 0.70564 0.73258 0.42347 0.0
H72 H 0.64286 0.84535 0.41593 0.0
H73 H 0.62759 0.80924 0.36036 0.0
H74 H 0.67055 0.82969 0.35564 0.0
H75 H 0.70072 0.76352 0.35514 0.0
H76 H 0.67179 0.72029 0.37378 0.0
C77 C 0.65266 0.7148 0.65447 0.0
C78 C 0.61461 0.7824 0.6663 0.0
C79 C 0.55459 0.6757 0.32928 0.0
C80 C 0.57004 0.68119 0.2726 0.0
C81 C 0.59851 0.70869 0.26777 0.0
C82 C 0.61205 0.7294 0.31923 0.0
C83 C 0.59729 0.7219 0.37622 0.0
C84 C 0.56876 0.69589 0.38032 0.0
C85 C 0.5577 0.68929 0.44475 0.0
C86 C 0.58439 0.71552 0.47883 0.0
C87 C 0.60747 0.73452 0.43853 0.0
C88 C 0.56029 0.64056 0.45919 0.0
C89 C 0.52151 0.70834 0.45154 0.0
C90 C 0.71525 0.82233 0.47229 0.0
C91 C 0.73241 0.83689 0.52476 0.0
C92 C 0.71819 0.82843 0.58211 0.0
C93 C 0.68783 0.80477 0.58713 0.0
C94 C 0.67152 0.78938 0.53426 0.0
C95 C 0.68495 0.79893 0.47805 0.0
C96 C 0.66409 0.78034 0.42675 0.0
C97 C 0.63565 0.75849 0.46138 0.0
C98 C 0.64039 0.76331 0.52436 0.0
C99 C 0.68654 0.74767 0.39245 0.0
C100 C 0.65062 0.81787 0.38704 0.0
H101 H 0.52513 0.6698 0.55916 0.0
H102 H 0.59617 0.699 0.74274 0.0
H103 H 0.58705 0.78941 0.67185 0.0
H104 H 0.62455 0.80989 0.63978 0.0
H105 H 0.6266 0.78254 0.71227 0.0
H106 H 0.65179 0.68084 0.63877 0.0
H107 H 0.65519 0.71454 0.70478 0.0
H108 H 0.67615 0.72865 0.63551 0.0
H109 H 0.53305 0.65413 0.33447 0.0
H110 H 0.61065 0.7135 0.22433 0.0
H111 H 0.63405 0.74945 0.31289 0.0
H112 H 0.58332 0.62654 0.43808 0.0
H113 H 0.53771 0.62281 0.44122 0.0
H114 H 0.56313 0.63335 0.50797 0.0
H115 H 0.51726 0.73552 0.41945 0.0
H116 H 0.51741 0.7223 0.49705 0.0
H117 H 0.5015 0.68379 0.44212 0.0
H118 H 0.50909 0.63888 0.65498 0.0
C119 C 0.54104 0.67697 0.59778 0.0
C120 C 0.91684 0.18687 0.1962 0.0
C121 C 0.94577 0.16045 0.19978 0.0
C122 C 0.96537 0.15404 0.14744 0.0
C123 C 0.92537 0.19611 0.08799 0.0
C124 C 0.90729 0.20462 0.14 0.0
C125 C 0.87693 0.23282 0.12741 0.0
H126 H 0.77087 0.32658 0.92243 0.0
C127 C 0.90697 0.21559 0.03611 0.0
C128 C 0.87884 0.23772 0.05878 0.0
H129 H 0.76731 0.33258 0.11853 0.0
H130 H 0.81885 0.29109 0.12606 0.0
H131 H 0.85501 0.34166 0.91222 0.0
H132 H 0.78999 0.22963 0.91489 0.0
H133 H 0.8231 0.21882 0.86446 0.0
H134 H 0.79412 0.26232 0.84812 0.0
H135 H 0.8251 0.32886 0.85246 0.0
H136 H 0.86733 0.3065 0.85382 0.0
C137 C 0.88259 0.27621 0.16066 0.0
C138 C 0.84447 0.20807 0.14683 0.0
C139 C 0.94205 0.17596 0.82319 0.0
C140 C 0.92665 0.18168 0.76595 0.0
C141 C 0.89761 0.20797 0.76069 0.0
C142 C 0.88366 0.22741 0.81221 0.0
C143 C 0.89857 0.2198 0.86966 0.0
C144 C 0.92748 0.19474 0.87416 0.0
C145 C 0.93856 0.18726 0.93875 0.0
C146 C 0.91157 0.21194 0.97256 0.0
C147 C 0.88829 0.23117 0.93204 0.0
C148 C 0.97446 0.20745 0.94785 0.0
C149 C 0.93659 0.13817 0.95135 0.0
C150 C 0.78149 0.31946 0.96694 0.0
C151 C 0.76486 0.33268 0.01997 0.0
C152 C 0.7793 0.32222 0.07703 0.0
C153 C 0.80934 0.29829 0.08135 0.0
C154 C 0.82514 0.28433 0.02809 0.0
C155 C 0.81151 0.29542 0.97207 0.0
C156 C 0.83181 0.27742 0.92047 0.0
C157 C 0.86025 0.25463 0.95488 0.0
C158 C 0.85588 0.25833 0.0179 0.0
C159 C 0.84549 0.31539 0.8822 0.0
C160 C 0.80873 0.24557 0.88457 0.0
H161 H 0.97088 0.1648 0.05321 0.0
H162 H 0.90172 0.19301 0.23607 0.0
H163 H 0.84555 0.17406 0.13149 0.0
H164 H 0.82085 0.22116 0.12669 0.0
H165 H 0.84197 0.20795 0.19704 0.0
H166 H 0.91019 0.28321 0.16785 0.0
H167 H 0.87044 0.27606 0.20596 0.0
H168 H 0.87299 0.30389 0.13398 0.0
H169 H 0.9639 0.15512 0.82884 0.0
H170 H 0.88539 0.21285 0.71685 0.0
H171 H 0.86132 0.24666 0.80556 0.0
H172 H 0.97773 0.23644 0.91875 0.0
H173 H 0.99478 0.18437 0.93584 0.0
H174 H 0.97894 0.21909 0.99471 0.0
H175 H 0.91483 0.12324 0.92615 0.0
H176 H 0.93188 0.13014 -0.00069 0.0
H177 H 0.96021 0.1218 0.9368 0.0
H178 H 0.98772 0.13376 0.1491 0.0
C179 C 0.95538 0.17182 0.09168 0.0
C180 C 0.41866 0.31652 0.30577 0.0
C181 C 0.44764 0.34322 0.30242 0.0
C182 C 0.46782 0.34983 0.35494 0.0
C183 C 0.42812 0.30791 0.41418 0.0
C184 C 0.40957 0.29889 0.36199 0.0
C185 C 0.37929 0.27037 0.37451 0.0
H186 H 0.27405 0.18036 0.581 0.0
C187 C 0.41008 0.28882 0.46607 0.0
C188 C 0.38174 0.26608 0.44326 0.0
H189 H 0.26823 0.17004 0.38534 0.0
H190 H 0.32075 0.21048 0.37654 0.0
H191 H 0.35648 0.16383 0.59256 0.0
H192 H 0.29369 0.2766 0.58507 0.0
H193 H 0.32756 0.2889 0.63472 0.0
H194 H 0.29864 0.24567 0.65341 0.0
H195 H 0.3288 0.17949 0.65288 0.0
H196 H 0.37176 0.19994 0.64812 0.0
C197 C 0.38469 0.22677 0.34218 0.0
C198 C 0.34666 0.29439 0.35403 0.0
C199 C 0.44475 0.33348 0.67919 0.0
C200 C 0.42931 0.32799 0.73586 0.0
C201 C 0.40084 0.30049 0.7407 0.0
C202 C 0.3873 0.27978 0.68925 0.0
C203 C 0.40205 0.28727 0.63226 0.0
C204 C 0.43058 0.31329 0.62814 0.0
C205 C 0.44164 0.31988 0.56371 0.0
C206 C 0.41494 0.29365 0.52964 0.0
C207 C 0.39187 0.27465 0.56995 0.0
C208 C 0.47783 0.30084 0.55691 0.0
C209 C 0.43905 0.36861 0.54926 0.0
C210 C 0.28408 0.18686 0.53625 0.0
C211 C 0.2669 0.1723 0.48379 0.0
C212 C 0.28111 0.18076 0.42643 0.0
C213 C 0.31147 0.20442 0.4214 0.0
C214 C 0.3278 0.2198 0.47425 0.0
C215 C 0.31438 0.21025 0.53047 0.0
C216 C 0.33525 0.22884 0.58176 0.0
C217 C 0.36368 0.25069 0.54711 0.0
C218 C 0.35893 0.24587 0.48414 0.0
C219 C 0.34873 0.19131 0.62146 0.0
C220 C 0.31281 0.26152 0.61608 0.0
H221 H 0.47421 0.33934 0.44929 0.0
H222 H 0.40314 0.31017 0.26573 0.0
H223 H 0.34753 0.32834 0.36973 0.0
H224 H 0.32316 0.28053 0.37299 0.0
H225 H 0.34412 0.29465 0.30372 0.0
H226 H 0.41225 0.21975 0.33666 0.0
H227 H 0.37271 0.22664 0.29621 0.0
H228 H 0.37473 0.19929 0.36869 0.0
H229 H 0.46629 0.35505 0.67398 0.0
H230 H 0.3887 0.29567 0.78415 0.0
H231 H 0.3653 0.25973 0.6956 0.0
H232 H 0.4821 0.27367 0.58904 0.0
H233 H 0.49784 0.32539 0.56628 0.0
H234 H 0.48191 0.28684 0.51142 0.0
H235 H 0.416 0.38262 0.57035 0.0
H236 H 0.43622 0.37582 0.50048 0.0
H237 H 0.46161 0.38636 0.56726 0.0
H238 H 0.49024 0.37025 0.35347 0.0
C239 C 0.45829 0.33218 0.41067 0.0
C240 C 0.02295 0.94314 0.42505 0.0
N241 N 0.07253 0.04761 0.507 0.0
C242 C 0.10103 0.02287 0.50872 0.0
C243 C 0.13329 0.04192 0.50605 0.0
C244 C 0.13618 0.08682 0.50209 0.0
C245 C 0.10636 0.11154 0.50119 0.0
C246 C 0.07466 0.09118 0.50347 0.0
Zn247 Zn 0.02551 0.01936 0.50637 0.0
C248 C 0.98104 0.05673 0.40848 0.0
N249 N 0.92681 0.96154 0.50184 0.0
C250 C 0.92468 0.91796 0.50536 0.0
C251 C 0.89832 0.98628 0.50009 0.0
C252 C 0.86606 0.96724 0.50272 0.0
C253 C 0.86316 0.92234 0.50666 0.0
C254 C 0.89297 0.89761 0.5076 0.0
Zn255 Zn 0.97384 0.98978 0.50248 0.0
O256 O 0.04285 0.97217 0.44542 0.0
C257 C 0.0183 0.95241 0.60038 0.0
O258 O 0.99191 0.94293 0.44088 0.0
H259 H 0.90061 0.02087 0.49718 0.0
H260 H 0.09875 0.98828 0.51164 0.0
H261 H 0.94764 0.89892 0.5072 0.0
O262 O 0.03971 0.97943 0.57992 0.0
O263 O 0.98866 0.9503 0.57664 0.0
H264 H 0.05169 0.11021 0.50165 0.0
O265 O 0.9565 0.03697 0.56343 0.0
O266 O 0.00744 0.06621 0.56798 0.0
O267 O 0.95964 0.02971 0.42893 0.0
O268 O 0.01068 0.05884 0.43221 0.0
C269 C 0.9764 0.066 0.58381 0.0
H270 H 0.15571 0.02178 0.50746 0.0
H271 H 0.10749 0.14623 0.49745 0.0
H272 H 0.84364 0.98738 0.50128 0.0
H273 H 0.89183 0.86292 0.51133 0.0
C274 C 0.47613 0.4448 0.92173 0.0
N275 N 0.57255 0.46195 0.00194 0.0
C276 C 0.57379 0.41837 0.00629 0.0
C277 C 0.60504 0.39727 0.00795 0.0
C278 C 0.63543 0.42115 0.00494 0.0
C279 C 0.63345 0.46606 -0.00064 0.0
C280 C 0.60156 0.48593 -0.00187 0.0
Zn281 Zn 0.52574 0.49058 0.0029 0.0
C282 C 0.51816 0.55886 0.91108 0.0
N283 N 0.4268 0.54721 0.00656 0.0
C284 C 0.39779 0.52323 0.0104 0.0
C285 C 0.42555 0.59079 0.00222 0.0
C286 C 0.3943 0.61189 0.00061 0.0
C287 C 0.36391 0.58801 0.00365 0.0
C288 C 0.3659 0.5431 0.00922 0.0
Zn289 Zn 0.47361 0.51859 0.00559 0.0
O290 O 0.50714 0.44523 0.93906 0.0
C291 C 0.48119 0.4503 0.09741 0.0
O292 O 0.45578 0.47271 0.94229 0.0
H293 H 0.44888 0.60931 -0.00044 0.0
H294 H 0.55046 0.39985 0.00893 0.0
H295 H 0.39936 0.48861 0.01373 0.0
O296 O 0.51087 0.44955 0.075 0.0
O297 O 0.45952 0.47706 0.07701 0.0
H298 H 0.59999 0.52055 0.9948 0.0
O299 O 0.49221 0.56393 0.06943 0.0
O300 O 0.54356 0.53646 0.06621 0.0
O301 O 0.48847 0.55961 0.93349 0.0
O302 O 0.53982 0.5321 0.93148 0.0
C303 C 0.52321 0.56437 0.08676 0.0
H304 H 0.60539 0.36255 0.01137 0.0
H305 H 0.65629 0.48568 -0.00261 0.0
H306 H 0.39395 0.64661 -0.0028 0.0
H307 H 0.34306 0.52348 0.01122 0.0
C308 C 0.20879 0.16544 0.52836 0.0
C309 C 0.23373 0.14973 0.489 0.0
H310 H 0.15854 0.1577 0.56357 0.0
C311 C 0.22658 0.11274 0.45456 0.0
H312 H 0.21346 0.19412 0.55504 0.0
C313 C 0.19507 0.0919 0.45941 0.0
C314 C 0.17003 0.10792 0.49834 0.0
H315 H 0.24543 0.09978 0.42418 0.0
H316 H 0.19008 0.0637 0.4319 0.0
C317 C 0.17725 0.14483 0.53285 0.0
C318 C 0.27242 0.61985 0.03489 0.0
C319 C 0.26737 0.65318 0.99255 0.0
H320 H 0.30691 0.573 0.07159 0.0
C321 C 0.29416 0.66457 0.9538 0.0
H322 H 0.25216 0.61018 0.06507 0.0
C323 C 0.32532 0.64328 0.95737 0.0
C324 C 0.33047 0.61 -0.0003 0.0
H325 H 0.29121 0.69042 0.92116 0.0
H326 H 0.34537 0.65272 0.92659 0.0
C327 C 0.30362 0.59833 0.03823 0.0
C328 C 0.79054 0.84375 0.48026 0.0
C329 C 0.76559 0.85946 0.51959 0.0
H330 H 0.84081 0.85147 0.44513 0.0
C331 C 0.77273 0.89644 0.55405 0.0
H332 H 0.78588 0.81507 0.45357 0.0
C333 C 0.80424 0.91727 0.54924 0.0
C334 C 0.8293 0.90125 0.51035 0.0
H335 H 0.75387 0.9094 0.5844 0.0
H336 H 0.80923 0.94547 0.57677 0.0
C337 C 0.82209 0.86434 0.47582 0.0
C338 C 0.72694 0.3893 0.97385 0.0
C339 C 0.73197 0.35597 0.0162 0.0
H340 H 0.69247 0.43616 0.9371 0.0
C341 C 0.70516 0.34459 0.05492 0.0
H342 H 0.74721 0.39897 0.9437 0.0
C343 C 0.674 0.36589 0.0513 0.0
C344 C 0.66887 0.39916 0.00895 0.0
H345 H 0.70809 0.31874 0.08757 0.0
H346 H 0.65394 0.35645 0.08205 0.0
C347 C 0.69574 0.41083 0.97046 0.0
C348 C 0.02514 0.85543 0.30632 0.0
C349 C 0.06024 0.85252 0.29513 0.0
H350 H 0.9858 0.88614 0.35658 0.0
C351 C 0.08309 0.87755 0.32976 0.0
H352 H 0.00702 0.83635 0.28031 0.0
C353 C 0.07098 0.90642 0.37282 0.0
C354 C 0.03579 0.91048 0.38251 0.0
H355 H 0.11023 0.8763 0.32156 0.0
H356 H 0.08918 0.92617 0.39763 0.0
C357 C 0.01304 0.88394 0.34989 0.0
C358 C 0.50998 0.6395 0.78293 0.0
C359 C 0.54367 0.64221 0.76244 0.0
H360 H 0.47551 0.61124 0.84627 0.0
C361 C 0.56924 0.61895 0.79302 0.0
H362 H 0.48984 0.65731 0.7603 0.0
C363 C 0.56104 0.59222 0.84183 0.0
C364 C 0.52717 0.58858 0.86131 0.0
H365 H 0.59536 0.62012 0.77771 0.0
H366 H 0.58118 0.57395 0.8637 0.0
C367 C 0.50182 0.61313 0.8321 0.0
C368 C 0.92909 0.11387 0.28727 0.0
C369 C 0.95439 0.13706 0.25644 0.0
H370 H 0.91772 0.0699 0.3592 0.0
C371 C 0.98827 0.13502 0.27745 0.0
H372 H 0.90282 0.11453 0.27159 0.0
C373 C 0.99683 0.10956 0.32761 0.0
C374 C 0.97171 0.08525 0.35728 0.0
H375 H 0.00822 0.15279 0.25464 0.0
H376 H 0.02325 0.10826 0.3423 0.0
C377 C 0.93768 0.08804 0.33704 0.0
C378 C 0.47605 0.35842 0.80124 0.0
C379 C 0.44111 0.35416 0.78801 0.0
H380 H 0.51455 0.39022 0.85433 0.0
C381 C 0.41763 0.37827 0.8212 0.0
H382 H 0.49463 0.34005 0.77634 0.0
C383 C 0.42898 0.40734 0.8653 0.0
C384 C 0.46401 0.4125 0.8774 0.0
H385 H 0.39057 0.37594 0.81135 0.0
H386 H 0.41033 0.42623 0.88922 0.0
C387 C 0.4874 0.38712 0.84581 0.0
C388 C 0.5233 0.65077 0.20722 0.0
C389 C 0.55824 0.65502 0.22045 0.0
H390 H 0.4848 0.61897 0.15413 0.0
C391 C 0.58172 0.6309 0.18727 0.0
H392 H 0.50473 0.66915 0.23211 0.0
C393 C 0.57037 0.60183 0.14318 0.0
C394 C 0.53534 0.59667 0.13108 0.0
H395 H 0.60878 0.63323 0.19713 0.0
H396 H 0.58901 0.58293 0.11927 0.0
C397 C 0.51195 0.62206 0.16266 0.0
C398 C 0.97421 0.15368 0.70256 0.0
C399 C 0.93911 0.1566 0.71374 0.0
H400 H 0.01356 0.12297 0.65231 0.0
C401 C 0.91626 0.13158 0.67911 0.0
H402 H 0.99234 0.17276 0.72858 0.0
C403 C 0.92837 0.10272 0.63604 0.0
C404 C 0.96356 0.09865 0.62635 0.0
H405 H 0.88912 0.13284 0.6873 0.0
H406 H 0.91017 0.08298 0.61122 0.0
C407 C 0.98632 0.12518 0.65899 0.0
C408 C 0.48935 0.36963 0.22553 0.0
C409 C 0.45566 0.36694 0.24602 0.0
H410 H 0.52382 0.39789 0.16219 0.0
C411 C 0.4301 0.39021 0.21545 0.0
H412 H 0.50949 0.35181 0.24814 0.0
C413 C 0.43829 0.41694 0.16665 0.0
C414 C 0.47217 0.42058 0.14717 0.0
H415 H 0.40397 0.38905 0.23077 0.0
H416 H 0.41816 0.43523 0.14479 0.0
C417 C 0.49751 0.39601 0.17636 0.0
C418 C 0.07024 0.89527 0.72161 0.0
C419 C 0.04494 0.8721 0.75244 0.0
H420 H 0.08162 0.93923 0.64966 0.0
C421 C 0.01105 0.87415 0.73144 0.0
H422 H 0.09651 0.89461 0.73729 0.0
C423 C 0.0025 0.8996 0.68127 0.0
C424 C 0.02763 0.9239 0.65159 0.0
H425 H 0.99111 0.85639 0.75426 0.0
H426 H 0.97608 0.90091 0.66658 0.0
C427 C 0.06165 0.9211 0.67183 0.0
loop_
_geom_bond_atom_site_label_1
_geom_bond_atom_site_label_2
_geom_bond_distance
_geom_bond_site_symmetry_2
_ccdc_geom_bond_type
C0 C1 1.391 . S
C0 C4 1.391 . S
C0 H42 0.948 . S
C1 C0 1.391 . S
C1 C2 1.391 . S
C2 C1 1.391 . S
C2 H58 0.947 . S
C2 C59 1.392 . S
C3 C4 1.391 . S
C3 C7 1.397 . S
C3 C59 1.419 . S
C4 C0 1.391 . S
C4 C3 1.391 . S
C4 C5 1.399 . S
C5 C4 1.399 . S
C5 C8 1.396 . S
C5 C17 1.453 . S
C5 C18 1.684 . S
H6 C30 0.948 . S
C7 C3 1.397 . S
C7 C8 1.394 . S
C7 C26 1.723 1_556 S
C8 C5 1.396 . S
C8 C7 1.394 . S
C8 C38 1.708 1_556 S
H9 C32 0.947 . S
H10 C33 0.948 . S
H11 C39 0.982 . S
H12 C40 0.979 . S
H13 C40 0.980 . S
H14 C40 0.983 . S
H15 C39 0.979 . S
H16 C39 0.977 . S
C17 C5 1.453 . S
C17 H46 0.982 . S
C17 H47 0.979 . S
C17 H48 0.977 . S
C18 C5 1.684 . S
C18 H43 0.979 . S
C18 H44 0.980 . S
C18 H45 0.983 . S
C19 C20 1.391 . S
C19 C24 1.391 . S
C19 H49 0.948 . S
C20 C19 1.391 . S
C20 C21 1.391 . S
C21 C20 1.391 . S
C21 C22 1.392 . S
C21 H50 0.947 . S
C22 C21 1.392 . S
C22 C23 1.419 . S
C22 H51 0.948 . S
C23 C22 1.419 . S
C23 C24 1.391 . S
C23 C27 1.397 . S
C24 C19 1.391 . S
C24 C23 1.391 . S
C24 C25 1.399 . S
C25 C24 1.399 . S
C25 C26 1.396 . S
C25 C28 1.453 . S
C25 C29 1.684 . S
C26 C7 1.723 1_554 S
C26 C25 1.396 . S
C26 C27 1.394 . S
C27 C23 1.397 . S
C27 C26 1.394 . S
C27 C37 1.723 . S
C28 C25 1.453 . S
C28 H52 0.982 . S
C28 H53 0.979 . S
C28 H54 0.977 . S
C29 C25 1.684 . S
C29 H55 0.982 . S
C29 H56 0.970 1_554 S
C29 H57 0.983 1_455 S
C30 H6 0.948 . S
C30 C31 1.391 . S
C30 C35 1.391 . S
C31 C30 1.391 . S
C31 C32 1.391 1_554 S
C32 H9 0.947 . S
C32 C31 1.391 1_556 S
C32 C33 1.392 . S
C33 H10 0.948 . S
C33 C32 1.392 . S
C33 C34 1.419 . S
C34 C33 1.419 . S
C34 C35 1.391 1_556 S
C34 C38 1.394 1_556 S
C35 C30 1.391 . S
C35 C34 1.391 1_554 S
C35 C36 1.399 . S
C36 C35 1.399 . S
C36 C37 1.396 . S
C36 C39 1.453 . S
C36 C40 1.684 . S
C37 C27 1.723 . S
C37 C36 1.396 . S
C37 C38 1.413 . S
C38 C8 1.708 1_554 S
C38 C34 1.394 1_554 S
C38 C37 1.413 . S
C39 H11 0.982 . S
C39 H15 0.979 . S
C39 H16 0.977 . S
C39 C36 1.453 . S
C40 H12 0.979 . S
C40 H13 0.980 . S
C40 H14 0.983 . S
C40 C36 1.684 . S
H41 C59 0.948 . S
H42 C0 0.948 . S
H43 C18 0.979 . S
H44 C18 0.980 . S
H45 C18 0.983 . S
H46 C17 0.982 . S
H47 C17 0.979 . S
H48 C17 0.977 . S
H49 C19 0.948 . S
H50 C21 0.947 . S
H51 C22 0.948 . S
H52 C28 0.982 . S
H53 C28 0.979 . S
H54 C28 0.977 . S
H55 C29 0.982 . S
H56 C29 0.970 1_556 S
H57 C29 0.983 1_655 S
H58 C2 0.947 . S
C59 C2 1.392 . S
C59 C3 1.419 . S
C59 H41 0.948 . S
C60 C61 1.391 . S
C60 C64 1.391 . S
C60 H102 0.948 . S
C61 C60 1.391 . S
C61 C62 1.391 . S
C62 C61 1.391 . S
C62 H118 0.947 . S
C62 C119 1.392 . S
C63 C64 1.391 . S
C63 C67 1.397 . S
C63 C119 1.419 . S
C64 C60 1.391 . S
C64 C63 1.391 . S
C64 C65 1.399 . S
C65 C64 1.399 . S
C65 C68 1.396 . S
C65 C77 1.453 . S
C65 C78 1.684 . S
H66 C90 0.948 . S
C67 C63 1.397 . S
C67 C68 1.394 . S
C67 C86 1.723 . S
C68 C65 1.396 . S
C68 C67 1.394 . S
C68 C98 1.723 . S
H69 C92 0.947 . S
H70 C93 0.948 . S
H71 C99 0.982 . S
H72 C100 0.979 . S
H73 C100 0.980 . S
H74 C100 0.983 . S
H75 C99 0.979 . S
H76 C99 0.977 . S
C77 C65 1.453 . S
C77 H106 0.982 . S
C77 H107 0.979 . S
C77 H108 0.977 . S
C78 C65 1.684 . S
C78 H103 0.979 . S
C78 H104 0.980 . S
C78 H105 0.983 . S
C79 C80 1.391 . S
C79 C84 1.391 . S
C79 H109 0.948 . S
C80 C79 1.391 . S
C80 C81 1.391 . S
C81 C80 1.391 . S
C81 C82 1.392 . S
C81 H110 0.947 . S
C82 C81 1.392 . S
C82 C83 1.419 . S
C82 H111 0.948 . S
C83 C82 1.419 . S
C83 C84 1.391 . S
C83 C87 1.397 . S
C84 C79 1.391 . S
C84 C83 1.391 . S
C84 C85 1.399 . S
C85 C84 1.399 . S
C85 C86 1.396 . S
C85 C88 1.453 . S
C85 C89 1.684 . S
C86 C67 1.723 . S
C86 C85 1.396 . S
C86 C87 1.394 . S
C87 C83 1.397 . S
C87 C86 1.394 . S
C87 C97 1.723 . S
C88 C85 1.453 . S
C88 H112 0.982 . S
C88 H113 0.979 . S
C88 H114 0.977 . S
C89 C85 1.684 . S
C89 H115 0.979 . S
C89 H116 0.980 . S
C89 H117 0.983 . S
C90 H66 0.948 . S
C90 C91 1.391 . S
C90 C95 1.391 . S
C91 C90 1.391 . S
C91 C92 1.391 . S
C92 H69 0.947 . S
C92 C91 1.391 . S
C92 C93 1.392 . S
C93 H70 0.948 . S
C93 C92 1.392 . S
C93 C94 1.419 . S
C94 C93 1.419 . S
C94 C95 1.391 . S
C94 C98 1.397 . S
C95 C90 1.391 . S
C95 C94 1.391 . S
C95 C96 1.399 . S
C96 C95 1.399 . S
C96 C97 1.396 . S
C96 C99 1.453 . S
C96 C100 1.684 . S
C97 C87 1.723 . S
C97 C96 1.396 . S
C97 C98 1.394 . S
C98 C68 1.723 . S
C98 C94 1.397 . S
C98 C97 1.394 . S
C99 H71 0.982 . S
C99 H75 0.979 . S
C99 H76 0.977 . S
C99 C96 1.453 . S
C100 H72 0.979 . S
C100 H73 0.980 . S
C100 H74 0.983 . S
C100 C96 1.684 . S
H101 C119 0.948 . S
H102 C60 0.948 . S
H103 C78 0.979 . S
H104 C78 0.980 . S
H105 C78 0.983 . S
H106 C77 0.982 . S
H107 C77 0.979 . S
H108 C77 0.977 . S
H109 C79 0.948 . S
H110 C81 0.947 . S
H111 C82 0.948 . S
H112 C88 0.982 . S
H113 C88 0.979 . S
H114 C88 0.977 . S
H115 C89 0.979 . S
H116 C89 0.980 . S
H117 C89 0.983 . S
H118 C62 0.947 . S
C119 C62 1.392 . S
C119 C63 1.419 . S
C119 H101 0.948 . S
C120 C121 1.391 . S
C120 C124 1.391 . S
C120 H162 0.948 . S
C121 C120 1.391 . S
C121 C122 1.391 . S
C122 C121 1.391 . S
C122 H178 0.947 . S
C122 C179 1.392 . S
C123 C124 1.391 . S
C123 C127 1.397 . S
C123 C179 1.419 . S
C124 C120 1.391 . S
C124 C123 1.391 . S
C124 C125 1.399 . S
C125 C124 1.399 . S
C125 C128 1.396 . S
C125 C137 1.453 . S
C125 C138 1.684 . S
H126 C150 0.948 . S
C127 C123 1.397 . S
C127 C128 1.394 . S
C127 C146 1.723 1_554 S
C128 C125 1.396 . S
C128 C127 1.394 . S
C128 C158 1.723 . S
H129 C152 0.947 . S
H130 C153 0.948 . S
H131 C159 0.982 . S
H132 C160 0.979 . S
H133 C160 0.980 . S
H134 C160 0.983 . S
H135 C159 0.979 . S
H136 C159 0.977 . S
C137 C125 1.453 . S
C137 H166 0.982 . S
C137 H167 0.979 . S
C137 H168 0.977 . S
C138 C125 1.684 . S
C138 H163 0.979 . S
C138 H164 0.980 . S
C138 H165 0.983 . S
C139 C140 1.391 . S
C139 C144 1.391 . S
C139 H169 0.948 . S
C140 C139 1.391 . S
C140 C141 1.391 . S
C141 C140 1.391 . S
C141 C142 1.392 . S
C141 H170 0.947 . S
C142 C141 1.392 . S
C142 C143 1.419 . S
C142 H171 0.948 . S
C143 C142 1.419 . S
C143 C144 1.391 . S
C143 C147 1.397 . S
C144 C139 1.391 . S
C144 C143 1.391 . S
C144 C145 1.399 . S
C145 C144 1.399 . S
C145 C146 1.396 . S
C145 C148 1.453 . S
C145 C149 1.684 . S
C146 C127 1.723 1_556 S
C146 C145 1.396 . S
C146 C147 1.394 . S
C147 C143 1.397 . S
C147 C146 1.394 . S
C147 C157 1.723 . S
C148 C145 1.453 . S
C148 H172 0.982 . S
C148 H173 0.979 . S
C148 H174 0.977 1_556 S
C149 C145 1.684 . S
C149 H175 0.979 . S
C149 H176 0.980 1_556 S
C149 H177 0.983 . S
C150 H126 0.948 . S
C150 C151 1.391 1_556 S
C150 C155 1.391 . S
C151 C150 1.391 1_554 S
C151 C152 1.391 . S
C152 H129 0.947 . S
C152 C151 1.391 . S
C152 C153 1.392 . S
C153 H130 0.948 . S
C153 C152 1.392 . S
C153 C154 1.419 . S
C154 C153 1.419 . S
C154 C155 1.391 1_554 S
C154 C158 1.397 . S
C155 C150 1.391 . S
C155 C154 1.391 1_556 S
C155 C156 1.399 . S
C156 C155 1.399 . S
C156 C157 1.396 . S
C156 C159 1.453 . S
C156 C160 1.684 . S
C157 C147 1.723 . S
C157 C156 1.396 . S
C157 C158 1.394 1_556 S
C158 C128 1.723 . S
C158 C154 1.397 . S
C158 C157 1.394 1_554 S
C159 H131 0.982 . S
C159 H135 0.979 . S
C159 H136 0.977 . S
C159 C156 1.453 . S
C160 H132 0.979 . S
C160 H133 0.980 . S
C160 H134 0.983 . S
C160 C156 1.684 . S
H161 C179 0.948 . S
H162 C120 0.948 . S
H163 C138 0.979 . S
H164 C138 0.980 . S
H165 C138 0.983 . S
H166 C137 0.982 . S
H167 C137 0.979 . S
H168 C137 0.977 . S
H169 C139 0.948 . S
H170 C141 0.947 . S
H171 C142 0.948 . S
H172 C148 0.982 . S
H173 C148 0.979 . S
H174 C148 0.977 1_554 S
H175 C149 0.979 . S
H176 C149 0.980 1_554 S
H177 C149 0.983 . S
H178 C122 0.947 . S
C179 C122 1.392 . S
C179 C123 1.419 . S
C179 H161 0.948 . S
C180 C181 1.391 . S
C180 C184 1.391 . S
C180 H222 0.948 . S
C181 C180 1.391 . S
C181 C182 1.391 . S
C182 C181 1.391 . S
C182 H238 0.947 . S
C182 C239 1.392 . S
C183 C184 1.391 . S
C183 C187 1.397 . S
C183 C239 1.419 . S
C184 C180 1.391 . S
C184 C183 1.391 . S
C184 C185 1.399 . S
C185 C184 1.399 . S
C185 C188 1.396 . S
C185 C197 1.453 . S
C185 C198 1.684 . S
H186 C210 0.948 . S
C187 C183 1.397 . S
C187 C188 1.394 . S
C187 C206 1.723 . S
C188 C185 1.396 . S
C188 C187 1.394 . S
C188 C218 1.723 . S
H189 C212 0.947 . S
H190 C213 0.948 . S
H191 C219 0.982 . S
H192 C220 0.979 . S
H193 C220 0.980 . S
H194 C220 0.983 . S
H195 C219 0.979 . S
H196 C219 0.977 . S
C197 C185 1.453 . S
C197 H226 0.982 . S
C197 H227 0.979 . S
C197 H228 0.977 . S
C198 C185 1.684 . S
C198 H223 0.979 . S
C198 H224 0.980 . S
C198 H225 0.983 . S
C199 C200 1.391 . S
C199 C204 1.391 . S
C199 H229 0.948 . S
C200 C199 1.391 . S
C200 C201 1.391 . S
C201 C200 1.391 . S
C201 C202 1.392 . S
C201 H230 0.947 . S
C202 C201 1.392 . S
C202 C203 1.419 . S
C202 H231 0.948 . S
C203 C202 1.419 . S
C203 C204 1.391 . S
C203 C207 1.397 . S
C204 C199 1.391 . S
C204 C203 1.391 . S
C204 C205 1.399 . S
C205 C204 1.399 . S
C205 C206 1.396 . S
C205 C208 1.453 . S
C205 C209 1.684 . S
C206 C187 1.723 . S
C206 C205 1.396 . S
C206 C207 1.394 . S
C207 C203 1.397 . S
C207 C206 1.394 . S
C207 C217 1.723 . S
C208 C205 1.453 . S
C208 H232 0.982 . S
C208 H233 0.979 . S
C208 H234 0.977 . S
C209 C205 1.684 . S
C209 H235 0.979 . S
C209 H236 0.980 . S
C209 H237 0.983 . S
C210 H186 0.948 . S
C210 C211 1.391 . S
C210 C215 1.391 . S
C211 C210 1.391 . S
C211 C212 1.391 . S
C212 H189 0.947 . S
C212 C211 1.391 . S
C212 C213 1.392 . S
C213 H190 0.948 . S
C213 C212 1.392 . S
C213 C214 1.419 . S
C214 C213 1.419 . S
C214 C215 1.391 . S
C214 C218 1.397 . S
C215 C210 1.391 . S
C215 C214 1.391 . S
C215 C216 1.399 . S
C216 C215 1.399 . S
C216 C217 1.396 . S
C216 C219 1.453 . S
C216 C220 1.684 . S
C217 C207 1.723 . S
C217 C216 1.396 . S
C217 C218 1.394 . S
C218 C188 1.723 . S
C218 C214 1.397 . S
C218 C217 1.394 . S
C219 H191 0.982 . S
C219 H195 0.979 . S
C219 H196 0.977 . S
C219 C216 1.453 . S
C220 H192 0.979 . S
C220 H193 0.980 . S
C220 H194 0.983 . S
C220 C216 1.684 . S
H221 C239 0.948 . S
H222 C180 0.948 . S
H223 C198 0.979 . S
H224 C198 0.980 . S
H225 C198 0.983 . S
H226 C197 0.982 . S
H227 C197 0.979 . S
H228 C197 0.977 . S
H229 C199 0.948 . S
H230 C201 0.947 . S
H231 C202 0.948 . S
H232 C208 0.982 . S
H233 C208 0.979 . S
H234 C208 0.977 . S
H235 C209 0.979 . S
H236 C209 0.980 . S
H237 C209 0.983 . S
H238 C182 0.947 . S
C239 C182 1.392 . S
C239 C183 1.419 . S
C239 H221 0.948 . S
C240 O256 1.251 . S
C240 O258 1.254 1_455 S
N241 C242 1.333 . S
N241 C246 1.307 . S
N241 Zn247 2.020 . S
C242 N241 1.333 . S
C242 C243 1.379 . S
C242 H260 0.952 . S
C243 C242 1.379 . S
C243 C244 1.390 . S
C243 H270 0.949 . S
C244 C243 1.390 . S
C244 C245 1.357 . S
C245 C244 1.357 . S
C245 C246 1.370 . S
C245 H271 0.950 . S
C246 N241 1.307 . S
C246 C245 1.370 . S
C246 H264 0.948 . S
Zn247 N241 2.020 . S
Zn247 O256 2.039 1_545 S
Zn247 O262 2.034 1_545 S
Zn247 O266 2.025 . S
Zn247 O268 2.024 . S
C248 O267 1.246 . S
C248 O268 1.249 1_655 S
N249 C250 1.307 . S
N249 C251 1.333 . S
N249 Zn255 2.020 . S
C250 N249 1.307 . S
C250 C254 1.370 . S
C250 H261 0.948 . S
C251 N249 1.333 . S
C251 C252 1.379 . S
C251 H259 0.952 . S
C252 C251 1.379 . S
C252 C253 1.390 . S
C252 H272 0.949 . S
C253 C252 1.390 . S
C253 C254 1.357 . S
C254 C250 1.370 . S
C254 C253 1.357 . S
C254 H273 0.950 . S
Zn255 N249 2.020 . S
Zn255 O258 2.025 . S
Zn255 O263 2.024 . S
Zn255 O265 2.039 1_565 S
Zn255 O267 2.034 1_565 S
O256 C240 1.251 . S
O256 Zn247 2.039 1_565 S
C257 O262 1.246 . S
C257 O263 1.249 1_455 S
O258 C240 1.254 1_655 S
O258 Zn255 2.025 . S
H259 C251 0.952 . S
H260 C242 0.952 . S
H261 C250 0.948 . S
O262 Zn247 2.034 1_565 S
O262 C257 1.246 . S
O263 Zn255 2.024 . S
O263 C257 1.249 1_655 S
H264 C246 0.948 . S
O265 Zn255 2.039 1_545 S
O265 C269 1.251 . S
O266 Zn247 2.025 . S
O266 C269 1.254 1_455 S
O267 C248 1.246 . S
O267 Zn255 2.034 1_545 S
O268 Zn247 2.024 . S
O268 C248 1.249 1_455 S
C269 O265 1.251 . S
C269 O266 1.254 1_655 S
H270 C243 0.949 . S
H271 C245 0.950 . S
H272 C252 0.949 . S
H273 C254 0.950 . S
C274 O290 1.251 . S
C274 O292 1.254 . S
N275 C276 1.333 1_554 S
N275 C280 1.307 . S
N275 Zn281 2.020 . S
C276 N275 1.333 1_556 S
C276 C277 1.379 . S
C276 H294 0.952 . S
C277 C276 1.379 . S
C277 C278 1.390 1_556 S
C277 H304 0.949 . S
C278 C277 1.390 1_554 S
C278 C279 1.357 . S
C279 C278 1.357 . S
C279 C280 1.370 . S
C279 H305 0.950 . S
C280 N275 1.307 . S
C280 C279 1.370 . S
C280 H298 0.948 . S
Zn281 N275 2.020 . S
Zn281 O290 2.039 1_554 S
Zn281 O296 2.034 . S
Zn281 O300 2.025 . S
Zn281 O302 2.024 1_554 S
C282 O301 1.246 . S
C282 O302 1.249 . S
N283 C284 1.307 1_554 S
N283 C285 1.333 . S
N283 Zn289 2.020 . S
C284 N283 1.307 1_556 S
C284 C288 1.370 . S
C284 H295 0.948 . S
C285 N283 1.333 . S
C285 C286 1.379 . S
C285 H293 0.952 . S
C286 C285 1.379 . S
C286 C287 1.390 . S
C286 H306 0.949 . S
C287 C286 1.390 . S
C287 C288 1.357 1_554 S
C288 C284 1.370 . S
C288 C287 1.357 1_556 S
C288 H307 0.950 . S
Zn289 N283 2.020 . S
Zn289 O292 2.025 1_554 S
Zn289 O297 2.024 . S
Zn289 O299 2.039 . S
Zn289 O301 2.034 1_554 S
O290 C274 1.251 . S
O290 Zn281 2.039 1_556 S
C291 O296 1.246 . S
C291 O297 1.249 . S
O292 C274 1.254 . S
O292 Zn289 2.025 1_556 S
H293 C285 0.952 . S
H294 C276 0.952 . S
H295 C284 0.948 . S
O296 Zn281 2.034 . S
O296 C291 1.246 . S
O297 Zn289 2.024 . S
O297 C291 1.249 . S
H298 C280 0.948 . S
O299 Zn289 2.039 . S
O299 C303 1.251 . S
O300 Zn281 2.025 . S
O300 C303 1.254 . S
O301 C282 1.246 . S
O301 Zn289 2.034 1_556 S
O302 Zn281 2.024 1_556 S
O302 C282 1.249 . S
C303 O299 1.251 . S
C303 O300 1.254 . S
H304 C277 0.949 . S
H305 C279 0.950 . S
H306 C286 0.949 . S
H307 C288 0.950 . S
C308 C309 1.387 . S
C308 H312 0.950 . S
C308 C317 1.390 . S
C309 C308 1.387 . S
C309 C311 1.387 . S
H310 C317 0.950 . S
C311 C309 1.387 . S
C311 C313 1.390 . S
C311 H315 0.950 . S
H312 C308 0.950 . S
C313 C311 1.390 . S
C313 C314 1.387 . S
C313 H316 0.950 . S
C314 C313 1.387 . S
C314 C317 1.387 . S
H315 C311 0.950 . S
H316 C313 0.950 . S
C317 C308 1.390 . S
C317 H310 0.950 . S
C317 C314 1.387 . S
C318 C319 1.387 . S
C318 H322 0.950 . S
C318 C327 1.390 . S
C319 C318 1.387 . S
C319 C321 1.387 1_554 S
H320 C327 0.950 . S
C321 C319 1.387 1_556 S
C321 C323 1.390 . S
C321 H325 0.950 . S
H322 C318 0.950 . S
C323 C321 1.390 . S
C323 C324 1.387 1_556 S
C323 H326 0.950 . S
C324 C323 1.387 1_554 S
C324 C327 1.387 . S
H325 C321 0.950 . S
H326 C323 0.950 . S
C327 C318 1.390 . S
C327 H320 0.950 . S
C327 C324 1.387 . S
C328 C329 1.387 . S
C328 H332 0.950 . S
C328 C337 1.390 . S
C329 C328 1.387 . S
C329 C331 1.387 . S
H330 C337 0.950 . S
C331 C329 1.387 . S
C331 C333 1.390 . S
C331 H335 0.950 . S
H332 C328 0.950 . S
C333 C331 1.390 . S
C333 C334 1.387 . S
C333 H336 0.950 . S
C334 C333 1.387 . S
C334 C337 1.387 . S
H335 C331 0.950 . S
H336 C333 0.950 . S
C337 C328 1.390 . S
C337 H330 0.950 . S
C337 C334 1.387 . S
C338 C339 1.387 1_556 S
C338 H342 0.950 . S
C338 C347 1.390 . S
C339 C338 1.387 1_554 S
C339 C341 1.387 . S
H340 C347 0.950 . S
C341 C339 1.387 . S
C341 C343 1.390 . S
C341 H345 0.950 . S
H342 C338 0.950 . S
C343 C341 1.390 . S
C343 C344 1.387 . S
C343 H346 0.950 . S
C344 C343 1.387 . S
C344 C347 1.387 1_554 S
H345 C341 0.950 . S
H346 C343 0.950 . S
C347 C338 1.390 . S
C347 H340 0.950 . S
C347 C344 1.387 1_556 S
C348 C349 1.387 . S
C348 H352 0.950 . S
C348 C357 1.390 . S
C349 C348 1.387 . S
C349 C351 1.387 . S
H350 C357 0.950 . S
C351 C349 1.387 . S
C351 C353 1.390 . S
C351 H355 0.950 . S
H352 C348 0.950 . S
C353 C351 1.390 . S
C353 C354 1.387 . S
C353 H356 0.950 . S
C354 C353 1.387 . S
C354 C357 1.387 . S
H355 C351 0.950 . S
H356 C353 0.950 . S
C357 C348 1.390 . S
C357 H350 0.950 . S
C357 C354 1.387 . S
C358 C359 1.387 . S
C358 H362 0.950 . S
C358 C367 1.390 . S
C359 C358 1.387 . S
C359 C361 1.387 . S
H360 C367 0.950 . S
C361 C359 1.387 . S
C361 C363 1.390 . S
C361 H365 0.950 . S
H362 C358 0.950 . S
C363 C361 1.390 . S
C363 C364 1.387 . S
C363 H366 0.950 . S
C364 C363 1.387 . S
C364 C367 1.387 . S
H365 C361 0.950 . S
H366 C363 0.950 . S
C367 C358 1.390 . S
C367 H360 0.950 . S
C367 C364 1.387 . S
C368 C369 1.387 . S
C368 H372 0.950 . S
C368 C377 1.390 . S
C369 C368 1.387 . S
C369 C371 1.387 . S
H370 C377 0.950 . S
C371 C369 1.387 . S
C371 C373 1.390 . S
C371 H375 0.950 . S
H372 C368 0.950 . S
C373 C371 1.390 . S
C373 C374 1.387 . S
C373 H376 0.950 . S
C374 C373 1.387 . S
C374 C377 1.387 . S
H375 C371 0.950 . S
H376 C373 0.950 . S
C377 C368 1.390 . S
C377 H370 0.950 . S
C377 C374 1.387 . S
C378 C379 1.387 . S
C378 H382 0.950 . S
C378 C387 1.390 . S
C379 C378 1.387 . S
C379 C381 1.387 . S
H380 C387 0.950 . S
C381 C379 1.387 . S
C381 C383 1.390 . S
C381 H385 0.950 . S
H382 C378 0.950 . S
C383 C381 1.390 . S
C383 C384 1.387 . S
C383 H386 0.950 . S
C384 C383 1.387 . S
C384 C387 1.387 . S
H385 C381 0.950 . S
H386 C383 0.950 . S
C387 C378 1.390 . S
C387 H380 0.950 . S
C387 C384 1.387 . S
C388 C389 1.387 . S
C388 H392 0.950 . S
C388 C397 1.390 . S
C389 C388 1.387 . S
C389 C391 1.387 . S
H390 C397 0.950 . S
C391 C389 1.387 . S
C391 C393 1.390 . S
C391 H395 0.950 . S
H392 C388 0.950 . S
C393 C391 1.390 . S
C393 C394 1.387 . S
C393 H396 0.950 . S
C394 C393 1.387 . S
C394 C397 1.387 . S
H395 C391 0.950 . S
H396 C393 0.950 . S
C397 C388 1.390 . S
C397 H390 0.950 . S
C397 C394 1.387 . S
C398 C399 1.387 . S
C398 H402 0.950 . S
C398 C407 1.390 . S
C399 C398 1.387 . S
C399 C401 1.387 . S
H400 C407 0.950 . S
C401 C399 1.387 . S
C401 C403 1.390 . S
C401 H405 0.950 . S
H402 C398 0.950 . S
C403 C401 1.390 . S
C403 C404 1.387 . S
C403 H406 0.950 . S
C404 C403 1.387 . S
C404 C407 1.387 . S
H405 C401 0.950 . S
H406 C403 0.950 . S
C407 C398 1.390 . S
C407 H400 0.950 . S
C407 C404 1.387 . S
C408 C409 1.387 . S
C408 H412 0.950 . S
C408 C417 1.390 . S
C409 C408 1.387 . S
C409 C411 1.387 . S
H410 C417 0.950 . S
C411 C409 1.387 . S
C411 C413 1.390 . S
C411 H415 0.950 . S
H412 C408 0.950 . S
C413 C411 1.390 . S
C413 C414 1.387 . S
C413 H416 0.950 . S
C414 C413 1.387 . S
C414 C417 1.387 . S
H415 C411 0.950 . S
H416 C413 0.950 . S
C417 C408 1.390 . S
C417 H410 0.950 . S
C417 C414 1.387 . S
C418 C419 1.387 . S
C418 H422 0.950 . S
C418 C427 1.390 . S
C419 C418 1.387 . S
C419 C421 1.387 . S
H420 C427 0.950 . S
C421 C419 1.387 . S
C421 C423 1.390 . S
C421 H425 0.950 . S
H422 C418 0.950 . S
C423 C421 1.390 . S
C423 C424 1.387 . S
C423 H426 0.950 . S
C424 C423 1.387 . S
C424 C427 1.387 . S
H425 C421 0.950 . S
H426 C423 0.950 . S
C427 C418 1.390 . S
C427 H420 0.950 . S
C427 C424 1.387 . S
C314 C244 1.680 . S
C309 C211 1.576 . S
C319 C31 1.584 . S
C324 C287 1.594 . S
C329 C91 1.652 . S
C334 C253 1.679 . S
C339 C151 1.521 . S
C344 C278 1.596 . S
C354 C240 1.689 . S
C349 C20 1.683 . S
C364 C282 1.792 . S
C359 C61 1.728 . S
C369 C121 1.545 . S
C374 C248 1.670 . S
C379 C200 1.663 . S
C384 C274 1.786 . S
C394 C303 1.785 . S
C389 C80 1.761 . S
C404 C269 1.689 . S
C399 C140 1.600 . S
C414 C291 1.791 . S
C409 C181 1.622 . S
C419 C1 1.627 . S
C424 C257 1.671 . S
