# Generated by pormake.
# Topology tsx, (6,3)-cn, num edge types: 1
# Building blocks:
#     Node 0, Type 0, BuildingBlock: MIDCAF_clean_sbu_0, # of connection points: 6
#     Node 1, Type 0, BuildingBlock: MIDCAF_clean_sbu_0, # of connection points: 6
#     Node 2, Type 1, BuildingBlock: KAKCAD_clean_linker_0, # of connection points: 3
#     Node 3, Type 1, BuildingBlock: KAKCAD_clean_linker_0, # of connection points: 3
#     Node 4, Type 1, BuildingBlock: KAKCAD_clean_linker_0, # of connection points: 3
#     Node 5, Type 1, BuildingBlock: KAKCAD_clean_linker_0, # of connection points: 3
#     Edge 6, Type (0, 1), BuildingBlock: ZUJKAS_clean_linker_0, # of connection points: 2
#     Edge 7, Type (0, 1), BuildingBlock: ZUJKAS_clean_linker_0, # of connection points: 2
#     Edge 8, Type (0, 1), BuildingBlock: ZUJKAS_clean_linker_0, # of connection points: 2
#     Edge 9, Type (0, 1), BuildingBlock: ZUJKAS_clean_linker_0, # of connection points: 2
#     Edge 10, Type (0, 1), BuildingBlock: ZUJKAS_clean_linker_0, # of connection points: 2
#     Edge 11, Type (0, 1), BuildingBlock: ZUJKAS_clean_linker_0, # of connection points: 2
#     Edge 12, Type (0, 1), BuildingBlock: ZUJKAS_clean_linker_0, # of connection points: 2
#     Edge 13, Type (0, 1), BuildingBlock: ZUJKAS_clean_linker_0, # of connection points: 2
#     Edge 14, Type (0, 1), BuildingBlock: ZUJKAS_clean_linker_0, # of connection points: 2
#     Edge 15, Type (0, 1), BuildingBlock: ZUJKAS_clean_linker_0, # of connection points: 2
#     Edge 16, Type (0, 1), BuildingBlock: ZUJKAS_clean_linker_0, # of connection points: 2
#     Edge 17, Type (0, 1), BuildingBlock: ZUJKAS_clean_linker_0, # of connection points: 2
# Relax obj value: 0.118
# Max RMSD: 0.182
# Mean RMSD: 0.113
data_MOF--net-tsx--node1-MIDCAF_clean_sbu_0--node2-KAKCAD_clean_linker_0--edge1-ZUJKAS_clean_linker_0
_symmetry_space_group_name_H-M    P1
_symmetry_Int_Tables_number       1
_symmetry_cell_setting            triclinic
loop_
_symmetry_equiv_pos_as_xyz
'x, y, z'
_cell_length_a     29.826885
_cell_length_b     30.964039
_cell_length_c     58.311974
_cell_angle_alpha  90.71151
_cell_angle_beta   94.331742
_cell_angle_gamma 90.067591
loop_
_atom_site_label
_atom_site_type_symbol
_atom_site_fract_x
_atom_site_fract_y
_atom_site_fract_z
_atom_type_partial_charge
Zn0 Zn 0.96437 0.01117 0.98504 0.0
Zn1 Zn 0.11201 0.01217 0.04085 0.0
Zn2 Zn 0.0381 0.0141 0.01287 0.0
C3 C 0.09092 0.09944 0.03272 0.0
C4 C 0.13314 0.96834 0.00159 0.0
O5 O 0.98487 0.97736 0.02928 0.0
O6 O 0.92401 0.98223 0.0053 0.0
C7 C 0.9855 0.09856 0.99288 0.0
O8 O 0.05834 0.08249 0.01983 0.0
O9 O 0.11847 0.0756 0.04414 0.0
O10 O 0.15175 0.98099 0.02066 0.0
O11 O 0.09163 0.97778 0.99604 0.0
O12 O 0.95864 0.07434 0.98089 0.0
O13 O 0.01727 0.0821 0.00623 0.0
O14 O 0.0539 0.98212 0.98023 0.0
O15 O 0.98822 0.97641 0.96004 0.0
C16 C 0.03004 0.96973 0.96196 0.0
O17 O 0.02214 0.98309 0.04541 0.0
O18 O 0.0871 0.98053 0.06632 0.0
C19 C 0.94303 0.96871 0.02389 0.0
C20 C 0.0454 0.97293 0.06411 0.0
Zn21 Zn 0.61161 0.51385 0.53749 0.0
Zn22 Zn 0.46347 0.51105 0.48316 0.0
Zn23 Zn 0.53742 0.51471 0.51058 0.0
C24 C 0.52911 0.47234 0.45899 0.0
C25 C 0.48283 0.59867 0.49156 0.0
O26 O 0.52321 0.48279 0.54316 0.0
O27 O 0.58966 0.47945 0.56267 0.0
C28 C 0.63275 0.47105 0.49828 0.0
O29 O 0.55279 0.4835 0.47755 0.0
O30 O 0.48726 0.47895 0.45722 0.0
O31 O 0.45569 0.57409 0.47999 0.0
O32 O 0.51576 0.58261 0.5043 0.0
O33 O 0.65203 0.48531 0.51684 0.0
O34 O 0.59062 0.47869 0.49331 0.0
O35 O 0.55721 0.58337 0.51757 0.0
O36 O 0.61706 0.57695 0.54209 0.0
C37 C 0.58937 0.60059 0.53065 0.0
O38 O 0.48519 0.47749 0.52757 0.0
O39 O 0.42454 0.48006 0.50335 0.0
C40 C 0.54803 0.47158 0.56117 0.0
C41 C 0.44365 0.46763 0.52215 0.0
C42 C 0.0236 0.94759 0.3137 0.0
C43 C 0.02083 0.98114 0.29764 0.0
C44 C 0.03226 0.95678 0.33719 0.0
C45 C 0.03771 -0.00029 0.34503 0.0
C46 C 0.03505 0.03317 0.32894 0.0
C47 C 0.02685 0.02398 0.30552 0.0
C48 C 0.04477 0.00995 0.36996 0.0
C49 C 0.07651 0.98733 0.38413 0.0
C50 C 0.08338 -0.00273 0.40779 0.0
C51 C 0.05747 0.03021 0.41717 0.0
C52 C 0.02581 0.0533 0.40306 0.0
C53 C 0.01975 0.04288 0.37956 0.0
C54 C 0.99823 0.08817 0.41247 0.0
C55 C 0.97342 0.08104 0.4316 0.0
C56 C 0.99372 0.12779 0.40104 0.0
C57 C 0.9639 0.15911 0.40808 0.0
C58 C 0.93768 0.15143 0.42665 0.0
C59 C 0.11841 0.97376 0.42231 0.0
C60 C 0.12503 0.92927 0.41886 0.0
C61 C 0.14692 0.99576 0.4389 0.0
C62 C 0.18191 0.97399 0.45126 0.0
C63 C 0.18924 0.9297 0.44733 0.0
C64 C 0.16003 0.90762 0.4311 0.0
C65 C 0.94318 0.1123 0.43855 0.0
H66 H 0.01943 0.91426 0.30808 0.0
H67 H 0.03385 0.9304 0.34925 0.0
H68 H 0.03943 0.06653 0.33449 0.0
H69 H 0.02452 0.05054 0.29357 0.0
H70 H 0.09684 0.96283 0.3765 0.0
H71 H 0.9946 0.05992 0.36875 0.0
H72 H 0.06201 0.03807 0.43536 0.0
H73 H 0.97612 0.05067 0.44062 0.0
H74 H 0.01265 0.13419 0.3863 0.0
H75 H 0.96025 0.18876 0.39846 0.0
H76 H 0.10337 0.91113 0.40648 0.0
H77 H 0.14303 0.03009 0.44188 0.0
H78 H 0.92377 0.1057 0.45308 0.0
H79 H 0.16484 0.8737 0.42731 0.0
H80 H 0.20337 0.99195 0.4638 0.0
C81 C 0.0623 0.02617 0.71597 0.0
C82 C 0.05667 0.9843 0.72438 0.0
C83 C 0.05459 0.03464 0.69257 0.0
C84 C 0.0419 0.00133 0.67677 0.0
C85 C 0.03687 0.95928 0.68509 0.0
C86 C 0.04396 0.9509 0.70862 0.0
C87 C 0.03419 0.01073 0.65177 0.0
C88 C 0.0609 0.04139 0.64167 0.0
C89 C 0.05296 0.05244 0.61846 0.0
C90 C 0.01882 0.03089 0.6048 0.0
C91 C 0.99204 -0.00065 0.61445 0.0
C92 C 0.99971 0.99001 0.63802 0.0
C93 C 0.95557 0.97627 0.6003 0.0
C94 C 0.92698 -0.00178 0.58407 0.0
C95 C 0.94808 0.93203 0.60363 0.0
C96 C 0.91232 0.91055 0.59158 0.0
C97 C 0.88316 0.93251 0.57563 0.0
C98 C 0.0806 0.08702 0.60907 0.0
C99 C 0.08939 0.12517 0.62194 0.0
C100 C 0.10081 0.08127 0.58826 0.0
C101 C 0.13076 0.11232 0.58101 0.0
C102 C 0.14077 0.1498 0.59438 0.0
C103 C 0.11912 0.15608 0.61473 0.0
C104 C 0.89116 0.97659 0.57188 0.0
H105 H 0.07275 0.05265 0.72746 0.0
H106 H 0.05812 0.06758 0.68695 0.0
H107 H 0.02767 0.93269 0.67343 0.0
H108 H 0.03873 0.91835 0.71445 0.0
H109 H 0.08853 0.05662 0.65188 0.0
H110 H 0.97793 0.96734 0.64582 0.0
H111 H 0.01305 0.03881 0.58678 0.0
H112 H 0.93157 0.03237 0.58118 0.0
H113 H 0.96975 0.91392 0.61575 0.0
H114 H 0.90697 0.87681 0.59524 0.0
H115 H 0.07389 0.13075 0.63793 0.0
H116 H 0.09473 0.05214 0.57802 0.0
H117 H 0.8697 0.99446 0.55957 0.0
H118 H 0.12627 0.18426 0.62559 0.0
H119 H 0.14643 0.10678 0.56508 0.0
C120 C 0.52161 0.43994 0.81481 0.0
C121 C 0.51319 0.47205 0.7982 0.0
C122 C 0.5303 0.45117 0.83803 0.0
C123 C 0.53097 0.49476 0.84514 0.0
C124 C 0.52257 0.52679 0.82849 0.0
C125 C 0.51368 0.51557 0.80533 0.0
C126 C 0.54025 0.50699 0.86982 0.0
C127 C 0.57341 0.48558 0.88372 0.0
C128 C 0.5826 0.49732 0.90702 0.0
C129 C 0.55822 0.53144 0.91635 0.0
C130 C 0.5251 0.55342 0.90253 0.0
C131 C 0.5162 0.54064 0.87945 0.0
C132 C 0.49879 0.58954 0.91173 0.0
C133 C 0.47712 0.58523 0.93216 0.0
C134 C 0.49177 0.62725 0.89879 0.0
C135 C 0.46192 0.6589 0.9054 0.0
C136 C 0.43823 0.65365 0.92512 0.0
C137 C 0.61845 0.47406 0.92109 0.0
C138 C 0.62234 0.42899 0.91892 0.0
C139 C 0.65074 0.49662 0.93547 0.0
C140 C 0.6873 0.47474 0.9465 0.0
C141 C 0.69227 0.42993 0.94333 0.0
C142 C 0.65875 0.40724 0.92986 0.0
C143 C 0.44705 0.617 0.93878 0.0
H144 H 0.52115 0.40611 0.80985 0.0
H145 H 0.53601 0.42566 0.85045 0.0
H146 H 0.52366 0.56071 0.83327 0.0
H147 H 0.50825 0.54112 0.7929 0.0
H148 H 0.59309 0.46044 0.8762 0.0
H149 H 0.48967 0.55657 0.86902 0.0
H150 H 0.56502 0.54092 0.93422 0.0
H151 H 0.48173 0.55639 0.94238 0.0
H152 H 0.50862 0.63177 0.88317 0.0
H153 H 0.45683 0.68723 0.89482 0.0
H154 H 0.59754 0.41051 0.90839 0.0
H155 H 0.64881 0.53138 0.9374 0.0
H156 H 0.42926 0.61193 0.95404 0.0
H157 H 0.66096 0.37257 0.92752 0.0
H158 H 0.71261 0.49314 0.95673 0.0
C159 C 0.56336 0.51947 0.21708 0.0
C160 C 0.56323 0.47619 0.22399 0.0
C161 C 0.55313 0.53014 0.1941 0.0
C162 C 0.54284 0.49775 0.1774 0.0
C163 C 0.5422 0.45442 0.18436 0.0
C164 C 0.55215 0.44376 0.20744 0.0
C165 C 0.53394 0.5093 0.15278 0.0
C166 C 0.55949 0.5416 0.14328 0.0
C167 C 0.55151 0.55345 0.1202 0.0
C168 C 0.51792 0.5318 0.10621 0.0
C169 C 0.49189 0.4991 0.11538 0.0
C170 C 0.50008 0.48838 0.13874 0.0
C171 C 0.45574 0.47618 0.10092 0.0
C172 C 0.42651 0.49863 0.0852 0.0
C173 C 0.44906 0.43161 0.10353 0.0
C174 C 0.41337 0.41028 0.09132 0.0
C175 C 0.38348 0.43275 0.07594 0.0
C176 C 0.57902 0.58845 0.11115 0.0
C177 C 0.5866 0.62678 0.12402 0.0
C178 C 0.60063 0.58272 0.09075 0.0
C179 C 0.63069 0.61401 0.0839 0.0
C180 C 0.63934 0.65177 0.09722 0.0
C181 C 0.61634 0.65805 0.11715 0.0
C182 C 0.39077 0.47716 0.07286 0.0
H183 H 0.57079 0.54525 0.22952 0.0
H184 H 0.55298 0.5639 0.18945 0.0
H185 H 0.53491 0.42864 0.17191 0.0
H186 H 0.55197 0.4101 0.21228 0.0
H187 H 0.58652 0.55716 0.1538 0.0
H188 H 0.47928 0.46437 0.14619 0.0
H189 H 0.51207 0.54049 0.0883 0.0
H190 H 0.43048 0.53303 0.08287 0.0
H191 H 0.47126 0.41312 0.11521 0.0
H192 H 0.40861 0.37625 0.09447 0.0
H193 H 0.57011 0.63221 0.13974 0.0
H194 H 0.59555 0.55339 0.08056 0.0
H195 H 0.36875 0.49543 0.06099 0.0
H196 H 0.62241 0.68653 0.12791 0.0
H197 H 0.64747 0.60849 0.06829 0.0
H198 H 0.12669 0.14545 0.06918 0.0
H199 H 0.15686 0.21824 0.06932 0.0
H200 H 0.10557 0.23329 0.99867 0.0
H201 H 0.07644 0.15891 0.99827 0.0
H202 H 0.19159 0.25274 0.00339 0.0
H203 H 0.11356 0.33906 0.07269 0.0
H204 H 0.13362 0.2884 0.08372 0.0
H205 H 0.09021 0.28936 0.06039 0.0
C206 C 0.1207 0.16462 0.05384 0.0
C207 C 0.09907 0.14655 0.03374 0.0
C208 C 0.1376 0.20656 0.054 0.0
C209 C 0.13296 0.23177 0.03413 0.0
C210 C 0.10918 0.21465 0.01429 0.0
H211 H 0.29725 0.4629 0.06686 0.0
H212 H 0.23148 0.42252 0.0507 0.0
C213 C 0.0922 0.17232 0.01412 0.0
C214 C 0.15904 0.2727 0.03356 0.0
H215 H 0.19321 0.35769 0.06837 0.0
C216 C 0.19106 0.27644 0.01723 0.0
C217 C 0.15786 0.30454 0.05113 0.0
C218 C 0.12151 0.30531 0.06776 0.0
C219 C 0.22464 0.3084 0.01941 0.0
C220 C 0.22713 0.33644 0.03885 0.0
C221 C 0.19231 0.33556 0.05378 0.0
C222 C 0.26776 0.36312 0.04551 0.0
C223 C 0.25782 0.3108 0.00119 0.0
C224 C 0.31029 0.34353 0.04777 0.0
C225 C 0.34803 0.36671 0.0566 0.0
C226 C 0.34414 0.40989 0.06396 0.0
C227 C 0.30171 0.42989 0.06115 0.0
C228 C 0.26393 0.40672 0.05205 0.0
H229 H 0.24149 0.30171 0.98404 0.0
H230 H 0.27244 0.34365 0.00018 0.0
H231 H 0.2854 0.28743 0.00518 0.0
H232 H 0.31418 0.30967 0.04352 0.0
H233 H 0.38016 0.35035 0.05816 0.0
H234 H 0.22286 0.9712 0.99714 0.0
H235 H 0.26845 0.91788 0.9784 0.0
H236 H 0.14852 0.84756 0.95473 0.0
H237 H 0.10265 0.90054 0.97405 0.0
H238 H 0.21299 0.79695 0.97833 0.0
H239 H 0.29082 0.89084 0.9116 0.0
H240 H 0.29648 0.91698 0.93931 0.0
H241 H 0.24144 0.90911 0.92499 0.0
C242 C 0.2061 0.94492 0.98749 0.0
C243 C 0.15914 0.94034 0.98678 0.0
C244 C 0.23219 0.9146 0.97667 0.0
C245 C 0.21189 0.87902 0.9649 0.0
C246 C 0.16482 0.87504 0.96351 0.0
H247 H 0.37566 0.69178 0.89528 0.0
H248 H 0.31822 0.7444 0.90399 0.0
C249 C 0.1386 0.90557 0.97432 0.0
C250 C 0.24042 0.84401 0.95634 0.0
H251 H 0.32833 0.82513 0.92335 0.0
C252 C 0.23778 0.8029 0.96605 0.0
C253 C 0.2725 0.85169 0.9402 0.0
C254 C 0.27525 0.89444 0.92824 0.0
C255 C 0.2676 0.7698 0.96077 0.0
C256 C 0.30146 0.77829 0.94569 0.0
C257 C 0.30283 0.81883 0.9352 0.0
C258 C 0.33599 0.74572 0.94065 0.0
C259 C 0.26258 0.72606 0.97141 0.0
C260 C 0.36542 0.72921 0.95835 0.0
C261 C 0.3985 0.69915 0.95342 0.0
C262 C 0.40307 0.6854 0.93064 0.0
C263 C 0.37356 0.70216 0.91297 0.0
C264 C 0.34051 0.73208 0.91792 0.0
H265 H 0.22812 0.72118 0.97695 0.0
H266 H 0.27005 0.69971 0.95919 0.0
H267 H 0.28654 0.72355 0.98684 0.0
H268 H 0.36322 0.74002 0.97596 0.0
H269 H 0.421 0.68729 0.96738 0.0
H270 H 0.85451 0.97459 0.03068 0.0
H271 H 0.80786 0.92066 0.04777 0.0
H272 H 0.92549 0.84327 0.06503 0.0
H273 H 0.97253 0.89767 0.04807 0.0
H274 H 0.80175 0.83787 0.02982 0.0
H275 H 0.85617 0.83535 0.12316 0.0
H276 H 0.86868 0.87994 0.10498 0.0
H277 H 0.90043 0.83084 0.10399 0.0
C278 C 0.87056 0.94659 0.03864 0.0
C279 C 0.91709 0.94032 0.03815 0.0
C280 C 0.84391 0.91581 0.04838 0.0
C281 C 0.86317 0.87799 0.05771 0.0
C282 C 0.91 0.87254 0.05827 0.0
H283 H 0.72249 0.63649 0.08177 0.0
H284 H 0.77913 0.68991 0.07267 0.0
C285 C 0.93684 0.9036 0.04859 0.0
C286 C 0.83336 0.84256 0.06423 0.0
H287 H 0.8037 0.78155 0.10916 0.0
C288 C 0.80226 0.82556 0.04717 0.0
C289 C 0.83425 0.82644 0.08685 0.0
C290 C 0.86638 0.8442 0.1059 0.0
C291 C 0.77169 0.79322 0.05215 0.0
C292 C 0.77224 0.77745 0.07475 0.0
C293 C 0.80364 0.79383 0.09182 0.0
C294 C 0.73887 0.74515 0.08092 0.0
C295 C 0.73842 0.77638 0.03338 0.0
C296 C 0.6975 0.75879 0.0883 0.0
C297 C 0.66496 0.7285 0.09327 0.0
C298 C 0.67324 0.68398 0.09095 0.0
C299 C 0.71482 0.67051 0.08343 0.0
C300 C 0.74738 0.70089 0.07848 0.0
H301 H 0.743 0.79138 0.0165 0.0
H302 H 0.742 0.74083 0.03159 0.0
H303 H 0.70366 0.78293 0.03809 0.0
H304 H 0.69027 0.79291 0.09 0.0
H305 H 0.63314 0.73997 0.09874 0.0
H306 H 0.96052 0.14488 0.95523 0.0
H307 H 0.92897 0.21735 0.95414 0.0
H308 H 0.95733 0.23048 0.02755 0.0
H309 H 0.98929 0.15715 0.02866 0.0
H310 H 0.86744 0.24282 0.01301 0.0
H311 H 0.97259 0.34151 0.96009 0.0
H312 H 0.96068 0.28995 0.94666 0.0
H313 H 0.99308 0.29277 0.97402 0.0
C314 C 0.96143 0.16375 0.97104 0.0
C315 C 0.97736 0.14553 0.99201 0.0
C316 C 0.94362 0.20533 0.97039 0.0
C317 C 0.94114 0.22963 0.99072 0.0
C318 C 0.95931 0.21245 0.01162 0.0
H319 H 0.73576 0.4378 0.9866 0.0
H320 H 0.80156 0.39692 0.00226 0.0
C321 C 0.97772 0.17073 0.01224 0.0
C322 C 0.91327 0.26939 0.99008 0.0
H323 H 0.8925 0.3595 0.95788 0.0
C324 C 0.87353 0.26917 0.00156 0.0
C325 C 0.92124 0.30375 0.97515 0.0
C326 C 0.9645 0.30725 0.96348 0.0
C327 C 0.83974 0.30012 0.99683 0.0
C328 C 0.8462 0.33234 0.9804 0.0
C329 C 0.88743 0.33456 0.97033 0.0
C330 C 0.80851 0.35977 0.97105 0.0
C331 C 0.79597 0.2961 0.00804 0.0
C332 C 0.79133 0.35313 0.94823 0.0
C333 C 0.75404 0.37628 0.9393 0.0
C334 C 0.73307 0.40683 0.95296 0.0
C335 C 0.75114 0.41447 0.97566 0.0
C336 C 0.78853 0.39101 0.98466 0.0
H337 H 0.79456 0.26644 0.01848 0.0
H338 H 0.79179 0.32449 0.01947 0.0
H339 H 0.76722 0.29566 0.99477 0.0
H340 H 0.8063 0.32927 0.93741 0.0
H341 H 0.74157 0.37021 0.92162 0.0
H342 H 0.62258 0.64691 0.56754 0.0
H343 H 0.65328 0.71953 0.56792 0.0
H344 H 0.60644 0.7339 0.49657 0.0
H345 H 0.5767 0.65972 0.49597 0.0
H346 H 0.69243 0.75227 0.5025 0.0
H347 H 0.61164 0.84096 0.57009 0.0
H348 H 0.63051 0.7903 0.58163 0.0
H349 H 0.58828 0.7913 0.55775 0.0
C350 C 0.6176 0.66595 0.55209 0.0
C351 C 0.59715 0.64772 0.53175 0.0
C352 C 0.63482 0.70779 0.55238 0.0
C353 C 0.63168 0.73271 0.53238 0.0
C354 C 0.60892 0.71548 0.51228 0.0
H355 H 0.79743 0.9631 0.56538 0.0
H356 H 0.73182 0.92272 0.54897 0.0
C357 C 0.59163 0.67326 0.51198 0.0
C358 C 0.65842 0.77327 0.53202 0.0
H359 H 0.69188 0.85859 0.56677 0.0
C360 C 0.69145 0.77627 0.51616 0.0
C361 C 0.65673 0.80547 0.54938 0.0
C362 C 0.61944 0.80702 0.56546 0.0
C363 C 0.72537 0.80786 0.51865 0.0
C364 C 0.72715 0.83631 0.5379 0.0
C365 C 0.69148 0.83614 0.55233 0.0
C366 C 0.76776 0.86276 0.54491 0.0
C367 C 0.75964 0.80944 0.50093 0.0
C368 C 0.81003 0.84279 0.54792 0.0
C369 C 0.84767 0.86593 0.55691 0.0
C370 C 0.84393 0.90948 0.56365 0.0
C371 C 0.80178 0.92979 0.56015 0.0
C372 C 0.76409 0.90664 0.55091 0.0
H373 H 0.74419 0.79998 0.48366 0.0
H374 H 0.77463 0.84213 0.49988 0.0
H375 H 0.78686 0.78598 0.50551 0.0
H376 H 0.81374 0.80874 0.54409 0.0
H377 H 0.87961 0.84931 0.55901 0.0
H378 H 0.6036 0.39865 0.4741 0.0
H379 H 0.65142 0.34304 0.45804 0.0
H380 H 0.76815 0.42306 0.47447 0.0
H381 H 0.72085 0.47816 0.49075 0.0
H382 H 0.71856 0.33998 0.42439 0.0
H383 H 0.79089 0.31389 0.51363 0.0
H384 H 0.74028 0.34473 0.50722 0.0
H385 H 0.79448 0.36885 0.50448 0.0
C386 C 0.63927 0.40481 0.47364 0.0
C387 C 0.65867 0.44248 0.48379 0.0
C388 C 0.66654 0.37299 0.46458 0.0
C389 C 0.7134 0.37858 0.46561 0.0
C390 C 0.73217 0.41777 0.47397 0.0
H391 H 0.94723 0.23917 0.43036 0.0
H392 H 0.88984 0.29241 0.43886 0.0
C393 C 0.70512 0.44927 0.48316 0.0
C394 C 0.74334 0.34241 0.46003 0.0
H395 H 0.82812 0.27927 0.48376 0.0
C396 C 0.74224 0.3264 0.43737 0.0
C397 C 0.77385 0.32442 0.47711 0.0
C398 C 0.77477 0.3385 0.50202 0.0
C399 C 0.7722 0.29396 0.4312 0.0
C400 C 0.80372 0.27735 0.44812 0.0
C401 C 0.80402 0.29247 0.47084 0.0
C402 C 0.83766 0.24502 0.44247 0.0
C403 C 0.7709 0.2781 0.40662 0.0
C404 C 0.82723 0.20086 0.44205 0.0
C405 C 0.85995 0.17035 0.43731 0.0
C406 C 0.90357 0.18361 0.43286 0.0
C407 C 0.91384 0.22799 0.43349 0.0
C408 C 0.88119 0.2584 0.43834 0.0
H409 H 0.74479 0.29476 0.39538 0.0
H410 H 0.8042 0.28326 0.39976 0.0
H411 H 0.76401 0.24285 0.40592 0.0
H412 H 0.79379 0.19006 0.44536 0.0
H413 H 0.85087 0.13645 0.43668 0.0
H414 H 0.47555 0.40017 0.54868 0.0
H415 H 0.43028 0.34424 0.56568 0.0
H416 H 0.30923 0.41251 0.54336 0.0
H417 H 0.35402 0.4686 0.52673 0.0
H418 H 0.34364 0.35479 0.59781 0.0
H419 H 0.31793 0.28372 0.50957 0.0
H420 H 0.36682 0.31579 0.5188 0.0
H421 H 0.31358 0.34153 0.51248 0.0
C422 C 0.43944 0.40408 0.54822 0.0
C423 C 0.41829 0.43883 0.53652 0.0
C424 C 0.41365 0.37197 0.55775 0.0
C425 C 0.36653 0.37429 0.55557 0.0
C426 C 0.34558 0.41024 0.54514 0.0
H427 H 0.13731 0.23811 0.5974 0.0
H428 H 0.19574 0.28993 0.58934 0.0
C429 C 0.3712 0.44218 0.53566 0.0
C430 C 0.33863 0.33747 0.56187 0.0
H431 H 0.27334 0.25578 0.53778 0.0
C432 C 0.32861 0.33277 0.5848 0.0
C433 C 0.31946 0.30876 0.54482 0.0
C434 C 0.33002 0.31228 0.52001 0.0
C435 C 0.29848 0.30074 0.59099 0.0
C436 C 0.27764 0.27329 0.57372 0.0
C437 C 0.28914 0.27702 0.55095 0.0
C438 C 0.24249 0.24161 0.57872 0.0
C439 C 0.28903 0.29666 0.61592 0.0
C440 C 0.24879 0.19734 0.57467 0.0
C441 C 0.21541 0.16755 0.57928 0.0
C442 C 0.17495 0.18156 0.58785 0.0
C443 C 0.16837 0.22612 0.59125 0.0
C444 C 0.20178 0.2558 0.58672 0.0
H445 H 0.31615 0.31155 0.62754 0.0
H446 H 0.25712 0.31353 0.61884 0.0
H447 H 0.2853 0.26226 0.6206 0.0
H448 H 0.27984 0.1858 0.56829 0.0
H449 H 0.22181 0.13348 0.57668 0.0
H450 H 0.44833 0.64331 0.45501 0.0
H451 H 0.4171 0.71564 0.45493 0.0
H452 H 0.46412 0.73279 0.5263 0.0
H453 H 0.4945 0.65892 0.52658 0.0
H454 H 0.37756 0.75052 0.52019 0.0
H455 H 0.45966 0.83714 0.4533 0.0
H456 H 0.44094 0.78593 0.44162 0.0
H457 H 0.48284 0.78803 0.46564 0.0
C458 C 0.45316 0.66288 0.47054 0.0
C459 C 0.47396 0.64557 0.49077 0.0
C460 C 0.43565 0.70453 0.47042 0.0
C461 C 0.43879 0.73017 0.49049 0.0
C462 C 0.46168 0.7138 0.51052 0.0
H463 H 0.27509 0.96001 0.45819 0.0
H464 H 0.34002 0.91972 0.47466 0.0
C465 C 0.47931 0.67177 0.51064 0.0
C466 C 0.41215 0.7707 0.49095 0.0
H467 H 0.37959 0.85503 0.45653 0.0
C468 C 0.37885 0.77413 0.50667 0.0
C469 C 0.41425 0.80237 0.47378 0.0
C470 C 0.45178 0.80337 0.45784 0.0
C471 C 0.34506 0.80566 0.5042 0.0
C472 C 0.34374 0.8336 0.48512 0.0
C473 C 0.37966 0.83299 0.47085 0.0
C474 C 0.30344 0.86003 0.47813 0.0
C475 C 0.31044 0.80775 0.52175 0.0
C476 C 0.26103 0.84019 0.47476 0.0
C477 C 0.22373 0.8633 0.46574 0.0
C478 C 0.22801 0.90668 0.45933 0.0
C479 C 0.27031 0.92685 0.46318 0.0
C480 C 0.30762 0.90375 0.47246 0.0
H481 H 0.32551 0.79861 0.53902 0.0
H482 H 0.29566 0.84052 0.52296 0.0
H483 H 0.28311 0.78429 0.51686 0.0
H484 H 0.25695 0.80624 0.47833 0.0
H485 H 0.19167 0.8468 0.46335 0.0
H486 H 0.08286 0.92184 0.09772 0.0
H487 H 0.05516 0.90947 0.13522 0.0
H488 H 0.93142 0.97467 0.11393 0.0
H489 H 0.96028 0.98918 0.07657 0.0
H490 H 0.96846 0.01102 0.15072 0.0
H491 H 0.9702 0.83688 0.16727 0.0
H492 H 0.02281 0.85137 0.1566 0.0
H493 H 0.97141 0.85789 0.13856 0.0
C494 C 0.04919 0.93244 0.10077 0.0
C495 C 0.02369 0.95637 0.08419 0.0
C496 C 0.03308 0.92484 0.12219 0.0
C497 C 0.99088 0.9406 0.12741 0.0
C498 C 0.96392 0.96186 0.11024 0.0
H499 H 0.95752 0.92647 0.27661 0.0
H500 H 0.9404 0.91476 0.23512 0.0
C501 C 0.98029 0.96985 0.08882 0.0
C502 C 0.97963 0.94221 0.15179 0.0
H503 H 0.99038 0.88385 0.20119 0.0
C504 C 0.97194 0.98291 0.16162 0.0
C505 C 0.98319 0.90563 0.16613 0.0
C506 C 0.98682 0.86048 0.15647 0.0
C507 C 0.97198 0.98858 0.1855 0.0
C508 C 0.98126 0.95286 0.19997 0.0
C509 C 0.98458 0.91149 0.19011 0.0
C510 C 0.99169 0.95869 0.22508 0.0
C511 C 0.96358 0.03317 0.19498 0.0
C512 C 0.027 0.98622 0.23316 0.0
C513 C 0.0367 0.99301 0.2567 0.0
C514 C 0.01171 0.97191 0.2727 0.0
C515 C 0.97739 0.94308 0.26465 0.0
C516 C 0.96746 0.9365 0.24099 0.0
H517 H 0.94169 0.05224 0.18262 0.0
H518 H 0.94758 0.03173 0.21154 0.0
H519 H 0.99608 0.05061 0.1979 0.0
H520 H 0.04713 0.00257 0.22122 0.0
H521 H 0.06394 0.0147 0.26239 0.0
H522 H 0.10268 0.00219 0.94255 0.0
H523 H 0.11926 0.99093 0.90236 0.0
H524 H 0.02151 0.88788 0.89559 0.0
H525 H 0.00308 0.90084 0.93528 0.0
H526 H 0.14121 0.92908 0.87033 0.0
H527 H 0.9632 0.9806 0.85522 0.0
H528 H 0.9924 0.98136 0.8834 0.0
H529 H 0.97006 0.93149 0.87107 0.0
C530 C 0.08595 0.97617 0.93267 0.0
C531 C 0.05105 0.9529 0.94169 0.0
C532 C 0.09538 0.96976 0.90973 0.0
C533 C 0.07042 0.93959 0.89579 0.0
C534 C 0.04014 0.91222 0.90587 0.0
H535 H 0.0921 0.91232 0.74645 0.0
H536 H 0.098 0.89834 0.78778 0.0
C537 C 0.02986 0.9194 0.92855 0.0
C538 C 0.07032 0.9419 0.8704 0.0
H539 H 0.00166 0.9645 0.82259 0.0
C540 C 0.11074 0.93661 0.85981 0.0
C541 C 0.03062 0.95273 0.85679 0.0
C542 C 0.98672 0.96232 0.86717 0.0
C543 C 0.11251 0.942 0.83596 0.0
C544 C 0.07258 0.952 0.82238 0.0
C545 C 0.03219 0.95663 0.83299 0.0
C546 C 0.07169 0.96058 0.79736 0.0
C547 C 0.15731 0.93855 0.82569 0.0
C548 C 0.05396 -0.00026 0.78893 0.0
C549 C 0.04926 0.00731 0.76536 0.0
C550 C 0.06267 0.97607 0.74956 0.0
C551 C 0.08101 0.93698 0.75806 0.0
C552 C 0.08516 0.92919 0.78174 0.0
H553 H 0.18581 0.94183 0.83902 0.0
H554 H 0.15988 0.90641 0.81727 0.0
H555 H 0.16076 0.96365 0.8125 0.0
H556 H 0.04299 0.02434 0.80063 0.0
H557 H 0.03409 0.03739 0.75956 0.0
H558 H 0.47061 0.49629 0.57972 0.0
H559 H 0.45244 0.4834 0.61946 0.0
H560 H 0.56357 0.39466 0.62817 0.0
H561 H 0.58268 0.40856 0.5889 0.0
H562 H 0.43845 0.41222 0.6504 0.0
H563 H 0.60017 0.49884 0.67033 0.0
H564 H 0.57263 0.49621 0.64174 0.0
H565 H 0.60495 0.45111 0.65293 0.0
C566 C 0.4901 0.47291 0.5899 0.0
C567 C 0.52844 0.4539 0.58151 0.0
C568 C 0.47976 0.46562 0.61258 0.0
C569 C 0.50744 0.43897 0.62688 0.0
C570 C 0.54239 0.41602 0.61752 0.0
H571 H 0.55953 0.41342 0.77383 0.0
H572 H 0.55275 0.40026 0.73225 0.0
C573 C 0.55317 0.42385 0.5951 0.0
C574 C 0.50469 0.44034 0.65213 0.0
H575 H 0.56484 0.4709 0.70182 0.0
C576 C 0.46599 0.42501 0.66169 0.0
C577 C 0.54049 0.45768 0.66676 0.0
C578 C 0.58173 0.4773 0.65747 0.0
C579 C 0.46274 0.42561 0.68566 0.0
C580 C 0.49899 0.44214 0.70021 0.0
C581 C 0.53738 0.45773 0.69059 0.0
C582 C 0.49788 0.44506 0.72551 0.0
C583 C 0.421 0.40814 0.69531 0.0
C584 C 0.46896 0.47432 0.73547 0.0
C585 C 0.47285 0.48201 0.75921 0.0
C586 C 0.50578 0.46059 0.77339 0.0
C587 C 0.53353 0.43008 0.76343 0.0
C588 C 0.52977 0.42258 0.73968 0.0
H589 H 0.40029 0.3886 0.68237 0.0
H590 H 0.42996 0.38793 0.71058 0.0
H591 H 0.40026 0.43549 0.70091 0.0
H592 H 0.44467 0.49254 0.72478 0.0
H593 H 0.45073 0.50542 0.76643 0.0
H594 H 0.61296 0.49145 0.44582 0.0
H595 H 0.6396 0.47964 0.4075 0.0
H596 H 0.51833 0.40879 0.38692 0.0
H597 H 0.4922 0.41937 0.42526 0.0
H598 H 0.59713 0.37761 0.36627 0.0
H599 H 0.5715 0.55527 0.35838 0.0
H600 H 0.61072 0.53766 0.38125 0.0
H601 H 0.55203 0.52522 0.38199 0.0
C602 C 0.59291 0.4718 0.43344 0.0
C603 C 0.55042 0.45648 0.43846 0.0
C604 C 0.60796 0.46545 0.41149 0.0
C605 C 0.58048 0.44409 0.39429 0.0
C606 C 0.53997 0.42548 0.39993 0.0
H607 H 0.51846 0.42051 0.25028 0.0
H608 H 0.53154 0.40858 0.29162 0.0
C609 C 0.525 0.43171 0.42181 0.0
C610 C 0.58992 0.44651 0.36977 0.0
H611 H 0.5866 0.51697 0.32517 0.0
C612 C 0.59559 0.4081 0.35728 0.0
C613 C 0.58759 0.48635 0.35811 0.0
C614 C 0.57982 0.52853 0.37048 0.0
C615 C 0.59803 0.40843 0.3333 0.0
C616 C 0.59375 0.4481 0.32155 0.0
C617 C 0.58994 0.48659 0.3342 0.0
C618 C 0.58969 0.45064 0.29609 0.0
C619 C 0.6047 0.36628 0.32079 0.0
C620 C 0.61774 0.47852 0.28485 0.0
C621 C 0.60996 0.48579 0.26129 0.0
C622 C 0.57393 0.46534 0.24851 0.0
C623 C 0.54681 0.43629 0.25962 0.0
C624 C 0.55443 0.42926 0.28324 0.0
H625 H 0.62223 0.3423 0.33229 0.0
H626 H 0.57138 0.35261 0.31481 0.0
H627 H 0.62438 0.37092 0.30558 0.0
H628 H 0.64498 0.49555 0.29444 0.0
H629 H 0.63173 0.50796 0.25313 0.0
loop_
_geom_bond_atom_site_label_1
_geom_bond_atom_site_label_2
_geom_bond_distance
_geom_bond_site_symmetry_2
_ccdc_geom_bond_type
Zn0 O6 1.902 1_546 S
Zn0 O12 1.898 . S
Zn0 O15 1.905 1_545 S
Zn1 O9 1.905 . S
Zn1 O10 1.898 1_545 S
Zn1 O18 1.920 1_545 S
Zn2 O5 2.080 1_445 S
Zn2 O8 2.114 . S
Zn2 O11 2.120 1_545 S
Zn2 O13 2.120 1_455 S
Zn2 O14 2.114 1_554 S
Zn2 O17 2.080 . S
C3 O8 1.166 . S
C3 O9 1.182 . S
C4 O10 1.167 . S
C4 O11 1.299 . S
O5 Zn2 2.080 1_665 S
O5 C19 1.305 . S
O6 Zn0 1.902 1_564 S
O6 C19 1.248 . S
C7 O12 1.164 . S
C7 O13 1.301 1_556 S
O8 Zn2 2.114 . S
O8 C3 1.166 . S
O9 Zn1 1.905 . S
O9 C3 1.182 . S
O10 Zn1 1.898 1_565 S
O10 C4 1.167 . S
O11 Zn2 2.120 1_565 S
O11 C4 1.299 . S
O12 Zn0 1.898 . S
O12 C7 1.164 . S
O13 Zn2 2.120 1_655 S
O13 C7 1.301 1_554 S
O14 Zn2 2.114 1_556 S
O14 C16 1.166 1_545 S
O15 Zn0 1.905 1_565 S
O15 C16 1.182 1_655 S
C16 O14 1.166 1_565 S
C16 O15 1.182 1_455 S
O17 Zn2 2.080 . S
O17 C20 1.305 1_545 S
O18 Zn1 1.920 1_565 S
O18 C20 1.234 . S
C19 O5 1.305 . S
C19 O6 1.248 . S
C20 O17 1.305 1_565 S
C20 O18 1.234 . S
Zn21 O27 1.920 . S
Zn21 O33 1.898 . S
Zn21 O36 1.905 . S
Zn22 O30 1.905 . S
Zn22 O31 1.898 . S
Zn22 O39 1.920 . S
Zn23 O26 2.080 . S
Zn23 O29 2.114 . S
Zn23 O32 2.120 . S
Zn23 O34 2.120 . S
Zn23 O35 2.114 . S
Zn23 O38 2.080 . S
C24 O29 1.166 . S
C24 O30 1.182 . S
C25 O31 1.167 . S
C25 O32 1.299 . S
O26 Zn23 2.080 . S
O26 C40 1.305 . S
O27 Zn21 1.920 . S
O27 C40 1.234 . S
C28 O33 1.167 . S
C28 O34 1.299 . S
O29 Zn23 2.114 . S
O29 C24 1.166 . S
O30 Zn22 1.905 . S
O30 C24 1.182 . S
O31 Zn22 1.898 . S
O31 C25 1.167 . S
O32 Zn23 2.120 . S
O32 C25 1.299 . S
O33 Zn21 1.898 . S
O33 C28 1.167 . S
O34 Zn23 2.120 . S
O34 C28 1.299 . S
O35 Zn23 2.114 . S
O35 C37 1.166 . S
O36 Zn21 1.905 . S
O36 C37 1.182 . S
C37 O35 1.166 . S
C37 O36 1.182 . S
O38 Zn23 2.080 . S
O38 C41 1.305 . S
O39 Zn22 1.920 . S
O39 C41 1.234 . S
C40 O26 1.305 . S
C40 O27 1.234 . S
C41 O38 1.305 . S
C41 O39 1.234 . S
C42 C43 1.386 1_565 S
C42 C44 1.397 . S
C42 H66 0.931 . S
C43 C42 1.386 1_545 S
C43 C47 1.397 . S
C44 C42 1.397 . S
C44 C45 1.384 1_565 S
C44 H67 0.930 . S
C45 C44 1.384 1_545 S
C45 C46 1.377 . S
C45 C48 1.481 . S
C46 C45 1.377 . S
C46 C47 1.389 . S
C46 H68 0.929 . S
C47 C43 1.397 . S
C47 C46 1.389 . S
C47 H69 0.931 . S
C48 C45 1.481 . S
C48 C49 1.387 . S
C48 C53 1.390 . S
C49 C48 1.387 . S
C49 C50 1.401 . S
C49 H70 0.930 1_545 S
C50 C49 1.401 . S
C50 C51 1.376 . S
C50 C59 1.511 1_545 S
C51 C50 1.376 . S
C51 C52 1.392 . S
C51 H72 0.931 . S
C52 C51 1.392 . S
C52 C53 1.361 . S
C52 C54 1.500 . S
C53 C48 1.390 . S
C53 C52 1.361 . S
C53 H71 0.931 . S
C54 C52 1.500 . S
C54 C55 1.371 1_455 S
C54 C56 1.365 . S
C55 C54 1.371 1_655 S
C55 C65 1.386 . S
C55 H73 0.931 1_655 S
C56 C54 1.365 . S
C56 C57 1.409 1_455 S
C56 H74 0.929 . S
C57 C56 1.409 1_655 S
C57 C58 1.380 . S
C57 H75 0.930 . S
C58 C57 1.380 . S
C58 C65 1.357 . S
C59 C50 1.511 1_565 S
C59 C60 1.341 . S
C59 C61 1.371 . S
C60 C59 1.341 . S
C60 C64 1.394 . S
C60 H76 0.930 . S
C61 C59 1.371 . S
C61 C62 1.392 . S
C61 H77 0.931 1_565 S
C62 C61 1.392 . S
C62 C63 1.331 . S
C62 H80 0.932 . S
C63 C62 1.331 . S
C63 C64 1.336 . S
C64 C60 1.394 . S
C64 C63 1.336 . S
C64 H79 0.929 . S
C65 C55 1.386 . S
C65 C58 1.357 . S
C65 H78 0.928 . S
H66 C42 0.931 . S
H67 C44 0.930 . S
H68 C46 0.929 . S
H69 C47 0.931 . S
H70 C49 0.930 1_565 S
H71 C53 0.931 . S
H72 C51 0.931 . S
H73 C55 0.931 1_455 S
H74 C56 0.929 . S
H75 C57 0.930 . S
H76 C60 0.930 . S
H77 C61 0.931 1_545 S
H78 C65 0.928 . S
H79 C64 0.929 . S
H80 C62 0.932 . S
C81 C82 1.386 . S
C81 C83 1.397 . S
C81 H105 0.931 . S
C82 C81 1.386 . S
C82 C86 1.397 1_545 S
C83 C81 1.397 . S
C83 C84 1.384 . S
C83 H106 0.930 . S
C84 C83 1.384 . S
C84 C85 1.377 1_545 S
C84 C87 1.481 . S
C85 C84 1.377 1_565 S
C85 C86 1.389 . S
C85 H107 0.929 . S
C86 C82 1.397 1_565 S
C86 C85 1.389 . S
C86 H108 0.931 . S
C87 C84 1.481 . S
C87 C88 1.387 . S
C87 C92 1.390 1_455 S
C88 C87 1.387 . S
C88 C89 1.401 . S
C88 H109 0.930 . S
C89 C88 1.401 . S
C89 C90 1.364 1_455 S
C89 C98 1.511 . S
C90 C89 1.364 1_655 S
C90 C91 1.422 . S
C90 H111 0.931 . S
C91 C90 1.422 . S
C91 C92 1.362 . S
C91 C93 1.482 1_545 S
C92 C87 1.390 1_655 S
C92 C91 1.362 . S
C92 H110 0.931 1_545 S
C93 C91 1.482 1_565 S
C93 C94 1.371 . S
C93 C95 1.365 . S
C94 C93 1.371 . S
C94 C104 1.386 . S
C94 H112 0.931 1_565 S
C95 C93 1.365 . S
C95 C96 1.409 . S
C95 H113 0.929 . S
C96 C95 1.409 . S
C96 C97 1.380 . S
C96 H114 0.930 . S
C97 C96 1.380 . S
C97 C104 1.357 . S
C98 C89 1.511 . S
C98 C99 1.341 . S
C98 C100 1.371 . S
C99 C98 1.341 . S
C99 C103 1.394 . S
C99 H115 0.930 . S
C100 C98 1.371 . S
C100 C101 1.392 . S
C100 H116 0.931 . S
C101 C100 1.392 . S
C101 C102 1.331 . S
C101 H119 0.932 . S
C102 C101 1.331 . S
C102 C103 1.336 . S
C103 C99 1.394 . S
C103 C102 1.336 . S
C103 H118 0.929 . S
C104 C94 1.386 . S
C104 C97 1.357 . S
C104 H117 0.928 . S
H105 C81 0.931 . S
H106 C83 0.930 . S
H107 C85 0.929 . S
H108 C86 0.931 . S
H109 C88 0.930 . S
H110 C92 0.931 1_565 S
H111 C90 0.931 . S
H112 C94 0.931 1_545 S
H113 C95 0.929 . S
H114 C96 0.930 . S
H115 C99 0.930 . S
H116 C100 0.931 . S
H117 C104 0.928 . S
H118 C103 0.929 . S
H119 C101 0.932 . S
C120 C121 1.386 . S
C120 C122 1.397 . S
C120 H144 0.931 . S
C121 C120 1.386 . S
C121 C125 1.397 . S
C122 C120 1.397 . S
C122 C123 1.384 . S
C122 H145 0.930 . S
C123 C122 1.384 . S
C123 C124 1.377 . S
C123 C126 1.481 . S
C124 C123 1.377 . S
C124 C125 1.389 . S
C124 H146 0.929 . S
C125 C121 1.397 . S
C125 C124 1.389 . S
C125 H147 0.931 . S
C126 C123 1.481 . S
C126 C127 1.387 . S
C126 C131 1.390 . S
C127 C126 1.387 . S
C127 C128 1.401 . S
C127 H148 0.930 . S
C128 C127 1.401 . S
C128 C129 1.376 . S
C128 C137 1.511 . S
C129 C128 1.376 . S
C129 C130 1.392 . S
C129 H150 0.931 . S
C130 C129 1.392 . S
C130 C131 1.361 . S
C130 C132 1.500 . S
C131 C126 1.390 . S
C131 C130 1.361 . S
C131 H149 0.931 . S
C132 C130 1.500 . S
C132 C133 1.371 . S
C132 C134 1.365 . S
C133 C132 1.371 . S
C133 C143 1.386 . S
C133 H151 0.931 . S
C134 C132 1.365 . S
C134 C135 1.409 . S
C134 H152 0.929 . S
C135 C134 1.409 . S
C135 C136 1.380 . S
C135 H153 0.930 . S
C136 C135 1.380 . S
C136 C143 1.357 . S
C137 C128 1.511 . S
C137 C138 1.341 . S
C137 C139 1.371 . S
C138 C137 1.341 . S
C138 C142 1.394 . S
C138 H154 0.930 . S
C139 C137 1.371 . S
C139 C140 1.392 . S
C139 H155 0.931 . S
C140 C139 1.392 . S
C140 C141 1.331 . S
C140 H158 0.932 . S
C141 C140 1.331 . S
C141 C142 1.336 . S
C142 C138 1.394 . S
C142 C141 1.336 . S
C142 H157 0.929 . S
C143 C133 1.386 . S
C143 C136 1.357 . S
C143 H156 0.928 . S
H144 C120 0.931 . S
H145 C122 0.930 . S
H146 C124 0.929 . S
H147 C125 0.931 . S
H148 C127 0.930 . S
H149 C131 0.931 . S
H150 C129 0.931 . S
H151 C133 0.931 . S
H152 C134 0.929 . S
H153 C135 0.930 . S
H154 C138 0.930 . S
H155 C139 0.931 . S
H156 C143 0.928 . S
H157 C142 0.929 . S
H158 C140 0.932 . S
C159 C160 1.386 . S
C159 C161 1.397 . S
C159 H183 0.931 . S
C160 C159 1.386 . S
C160 C164 1.397 . S
C161 C159 1.397 . S
C161 C162 1.384 . S
C161 H184 0.930 . S
C162 C161 1.384 . S
C162 C163 1.377 . S
C162 C165 1.481 . S
C163 C162 1.377 . S
C163 C164 1.389 . S
C163 H185 0.929 . S
C164 C160 1.397 . S
C164 C163 1.389 . S
C164 H186 0.931 . S
C165 C162 1.481 . S
C165 C166 1.387 . S
C165 C170 1.390 . S
C166 C165 1.387 . S
C166 C167 1.401 . S
C166 H187 0.930 . S
C167 C166 1.401 . S
C167 C168 1.376 . S
C167 C176 1.511 . S
C168 C167 1.376 . S
C168 C169 1.392 . S
C168 H189 0.931 . S
C169 C168 1.392 . S
C169 C170 1.361 . S
C169 C171 1.500 . S
C170 C165 1.390 . S
C170 C169 1.361 . S
C170 H188 0.931 . S
C171 C169 1.500 . S
C171 C172 1.371 . S
C171 C173 1.365 . S
C172 C171 1.371 . S
C172 C182 1.386 . S
C172 H190 0.931 . S
C173 C171 1.365 . S
C173 C174 1.409 . S
C173 H191 0.929 . S
C174 C173 1.409 . S
C174 C175 1.380 . S
C174 H192 0.930 . S
C175 C174 1.380 . S
C175 C182 1.357 . S
C176 C167 1.511 . S
C176 C177 1.341 . S
C176 C178 1.371 . S
C177 C176 1.341 . S
C177 C181 1.394 . S
C177 H193 0.930 . S
C178 C176 1.371 . S
C178 C179 1.392 . S
C178 H194 0.931 . S
C179 C178 1.392 . S
C179 C180 1.331 . S
C179 H197 0.932 . S
C180 C179 1.331 . S
C180 C181 1.336 . S
C181 C177 1.394 . S
C181 C180 1.336 . S
C181 H196 0.929 . S
C182 C172 1.386 . S
C182 C175 1.357 . S
C182 H195 0.928 . S
H183 C159 0.931 . S
H184 C161 0.930 . S
H185 C163 0.929 . S
H186 C164 0.931 . S
H187 C166 0.930 . S
H188 C170 0.931 . S
H189 C168 0.931 . S
H190 C172 0.931 . S
H191 C173 0.929 . S
H192 C174 0.930 . S
H193 C177 0.930 . S
H194 C178 0.931 . S
H195 C182 0.928 . S
H196 C181 0.929 . S
H197 C179 0.932 . S
H198 C206 0.929 . S
H199 C208 0.930 . S
H200 C210 0.930 . S
H201 C213 0.929 . S
H202 C216 0.930 . S
H203 C218 0.960 . S
H204 C218 0.960 . S
H205 C218 0.960 . S
C206 H198 0.929 . S
C206 C207 1.377 . S
C206 C208 1.384 . S
C207 C206 1.377 . S
C207 C213 1.390 . S
C208 H199 0.930 . S
C208 C206 1.384 . S
C208 C209 1.372 . S
C209 C208 1.372 . S
C209 C210 1.400 . S
C209 C214 1.490 . S
C210 H200 0.930 . S
C210 C209 1.400 . S
C210 C213 1.386 . S
H211 C227 0.930 . S
H212 C228 0.931 . S
C213 H201 0.929 . S
C213 C207 1.390 . S
C213 C210 1.386 . S
C214 C209 1.490 . S
C214 C216 1.395 . S
C214 C217 1.403 . S
H215 C221 0.930 . S
C216 H202 0.930 . S
C216 C214 1.395 . S
C216 C219 1.403 . S
C217 C214 1.403 . S
C217 C218 1.524 . S
C217 C221 1.400 . S
C218 H203 0.960 . S
C218 H204 0.960 . S
C218 H205 0.960 . S
C218 C217 1.524 . S
C219 C216 1.403 . S
C219 C220 1.392 . S
C219 C223 1.495 . S
C220 C219 1.392 . S
C220 C221 1.385 . S
C220 C222 1.478 . S
C221 H215 0.930 . S
C221 C217 1.400 . S
C221 C220 1.385 . S
C222 C220 1.478 . S
C222 C224 1.381 . S
C222 C228 1.383 . S
C223 C219 1.495 . S
C223 H229 0.959 . S
C223 H230 0.961 . S
C223 H231 0.960 . S
C224 C222 1.381 . S
C224 C225 1.394 . S
C224 H232 0.930 . S
C225 C224 1.394 . S
C225 C226 1.383 . S
C225 H233 0.929 . S
C226 C225 1.383 . S
C226 C227 1.377 . S
C227 H211 0.930 . S
C227 C226 1.377 . S
C227 C228 1.379 . S
C228 H212 0.931 . S
C228 C222 1.383 . S
C228 C227 1.379 . S
H229 C223 0.959 . S
H230 C223 0.961 . S
H231 C223 0.960 . S
H232 C224 0.930 . S
H233 C225 0.929 . S
H234 C242 0.929 . S
H235 C244 0.930 . S
H236 C246 0.930 . S
H237 C249 0.929 . S
H238 C252 0.932 1_554 S
H239 C254 0.960 . S
H240 C254 0.960 . S
H241 C254 0.960 . S
C242 H234 0.929 . S
C242 C243 1.377 1_554 S
C242 C244 1.384 . S
C243 C242 1.377 1_556 S
C243 C249 1.390 . S
C244 H235 0.930 . S
C244 C242 1.384 . S
C244 C245 1.372 1_554 S
C245 C244 1.372 1_556 S
C245 C246 1.400 . S
C245 C250 1.490 . S
C246 H236 0.930 . S
C246 C245 1.400 . S
C246 C249 1.386 . S
H247 C263 0.930 . S
H248 C264 0.931 . S
C249 H237 0.929 . S
C249 C243 1.390 . S
C249 C246 1.386 . S
C250 C245 1.490 . S
C250 C252 1.393 . S
C250 C253 1.403 . S
H251 C257 0.930 . S
C252 H238 0.932 1_556 S
C252 C250 1.393 . S
C252 C255 1.403 . S
C253 C250 1.403 . S
C253 C254 1.524 . S
C253 C257 1.400 . S
C254 H239 0.960 . S
C254 H240 0.960 . S
C254 H241 0.960 . S
C254 C253 1.524 . S
C255 C252 1.403 . S
C255 C256 1.392 . S
C255 C259 1.495 1_556 S
C256 C255 1.392 . S
C256 C257 1.385 . S
C256 C258 1.478 . S
C257 H251 0.930 . S
C257 C253 1.400 . S
C257 C256 1.385 . S
C258 C256 1.478 . S
C258 C260 1.381 . S
C258 C264 1.383 . S
C259 C255 1.495 1_554 S
C259 H265 0.959 . S
C259 H266 0.961 . S
C259 H267 0.960 . S
C260 C258 1.381 . S
C260 C261 1.394 . S
C260 H268 0.930 . S
C261 C260 1.394 . S
C261 C262 1.383 . S
C261 H269 0.929 . S
C262 C261 1.383 . S
C262 C263 1.377 . S
C263 H247 0.930 . S
C263 C262 1.377 . S
C263 C264 1.379 . S
C264 H248 0.931 . S
C264 C258 1.383 . S
C264 C263 1.379 . S
H265 C259 0.959 . S
H266 C259 0.961 . S
H267 C259 0.960 . S
H268 C260 0.930 . S
H269 C261 0.929 . S
H270 C278 0.929 . S
H271 C280 0.930 . S
H272 C282 0.930 . S
H273 C285 0.929 . S
H274 C288 0.930 . S
H275 C290 0.960 . S
H276 C290 0.960 . S
H277 C290 0.960 . S
C278 H270 0.929 . S
C278 C279 1.377 . S
C278 C280 1.384 . S
C279 C278 1.377 . S
C279 C285 1.390 . S
C280 H271 0.930 . S
C280 C278 1.384 . S
C280 C281 1.372 . S
C281 C280 1.372 . S
C281 C282 1.400 . S
C281 C286 1.490 . S
C282 H272 0.930 . S
C282 C281 1.400 . S
C282 C285 1.386 . S
H283 C299 0.930 . S
H284 C300 0.931 . S
C285 H273 0.929 . S
C285 C279 1.390 . S
C285 C282 1.386 . S
C286 C281 1.490 . S
C286 C288 1.395 . S
C286 C289 1.403 . S
H287 C293 0.930 . S
C288 H274 0.930 . S
C288 C286 1.395 . S
C288 C291 1.403 . S
C289 C286 1.403 . S
C289 C290 1.524 . S
C289 C293 1.400 . S
C290 H275 0.960 . S
C290 H276 0.960 . S
C290 H277 0.960 . S
C290 C289 1.524 . S
C291 C288 1.403 . S
C291 C292 1.392 . S
C291 C295 1.495 . S
C292 C291 1.392 . S
C292 C293 1.385 . S
C292 C294 1.478 . S
C293 H287 0.930 . S
C293 C289 1.400 . S
C293 C292 1.385 . S
C294 C292 1.478 . S
C294 C296 1.381 . S
C294 C300 1.383 . S
C295 C291 1.495 . S
C295 H301 0.959 1_554 S
C295 H302 0.961 . S
C295 H303 0.960 . S
C296 C294 1.381 . S
C296 C297 1.394 . S
C296 H304 0.930 . S
C297 C296 1.394 . S
C297 C298 1.383 . S
C297 H305 0.929 . S
C298 C297 1.383 . S
C298 C299 1.377 . S
C299 H283 0.930 . S
C299 C298 1.377 . S
C299 C300 1.379 . S
C300 H284 0.931 . S
C300 C294 1.383 . S
C300 C299 1.379 . S
H301 C295 0.959 1_556 S
H302 C295 0.961 . S
H303 C295 0.960 . S
H304 C296 0.930 . S
H305 C297 0.929 . S
H306 C314 0.929 . S
H307 C316 0.930 . S
H308 C318 0.930 . S
H309 C321 0.929 . S
H310 C324 0.930 . S
H311 C326 0.960 . S
H312 C326 0.960 . S
H313 C326 0.960 . S
C314 H306 0.929 . S
C314 C315 1.377 1_556 S
C314 C316 1.384 . S
C315 C314 1.377 1_554 S
C315 C321 1.390 . S
C316 H307 0.930 . S
C316 C314 1.384 . S
C316 C317 1.372 . S
C317 C316 1.372 . S
C317 C318 1.400 1_556 S
C317 C322 1.490 . S
C318 H308 0.930 . S
C318 C317 1.400 1_554 S
C318 C321 1.386 . S
H319 C335 0.930 . S
H320 C336 0.931 . S
C321 H309 0.929 . S
C321 C315 1.390 . S
C321 C318 1.386 . S
C322 C317 1.490 . S
C322 C324 1.395 . S
C322 C325 1.403 . S
H323 C329 0.930 . S
C324 H310 0.930 . S
C324 C322 1.395 . S
C324 C327 1.403 . S
C325 C322 1.403 . S
C325 C326 1.524 1_556 S
C325 C329 1.400 . S
C326 H311 0.960 . S
C326 H312 0.960 . S
C326 H313 0.960 . S
C326 C325 1.524 1_554 S
C327 C324 1.403 . S
C327 C328 1.392 . S
C327 C331 1.495 . S
C328 C327 1.392 . S
C328 C329 1.385 . S
C328 C330 1.478 . S
C329 H323 0.930 . S
C329 C325 1.400 . S
C329 C328 1.385 . S
C330 C328 1.478 . S
C330 C332 1.381 . S
C330 C336 1.383 . S
C331 C327 1.495 . S
C331 H337 0.959 . S
C331 H338 0.961 . S
C331 H339 0.960 . S
C332 C330 1.381 . S
C332 C333 1.394 . S
C332 H340 0.930 . S
C333 C332 1.394 . S
C333 C334 1.383 . S
C333 H341 0.929 . S
C334 C333 1.383 . S
C334 C335 1.377 . S
C335 H319 0.930 . S
C335 C334 1.377 . S
C335 C336 1.379 . S
C336 H320 0.931 . S
C336 C330 1.383 . S
C336 C335 1.379 . S
H337 C331 0.959 . S
H338 C331 0.961 . S
H339 C331 0.960 . S
H340 C332 0.930 . S
H341 C333 0.929 . S
H342 C350 0.929 . S
H343 C352 0.930 . S
H344 C354 0.930 . S
H345 C357 0.929 . S
H346 C360 0.930 . S
H347 C362 0.960 . S
H348 C362 0.960 . S
H349 C362 0.960 . S
C350 H342 0.929 . S
C350 C351 1.377 . S
C350 C352 1.384 . S
C351 C350 1.377 . S
C351 C357 1.390 . S
C352 H343 0.930 . S
C352 C350 1.384 . S
C352 C353 1.372 . S
C353 C352 1.372 . S
C353 C354 1.400 . S
C353 C358 1.490 . S
C354 H344 0.930 . S
C354 C353 1.400 . S
C354 C357 1.386 . S
H355 C371 0.930 . S
H356 C372 0.931 . S
C357 H345 0.929 . S
C357 C351 1.390 . S
C357 C354 1.386 . S
C358 C353 1.490 . S
C358 C360 1.395 . S
C358 C361 1.403 . S
H359 C365 0.930 . S
C360 H346 0.930 . S
C360 C358 1.395 . S
C360 C363 1.403 . S
C361 C358 1.403 . S
C361 C362 1.524 . S
C361 C365 1.400 . S
C362 H347 0.960 . S
C362 H348 0.960 . S
C362 H349 0.960 . S
C362 C361 1.524 . S
C363 C360 1.403 . S
C363 C364 1.392 . S
C363 C367 1.495 . S
C364 C363 1.392 . S
C364 C365 1.385 . S
C364 C366 1.478 . S
C365 H359 0.930 . S
C365 C361 1.400 . S
C365 C364 1.385 . S
C366 C364 1.478 . S
C366 C368 1.381 . S
C366 C372 1.383 . S
C367 C363 1.495 . S
C367 H373 0.959 . S
C367 H374 0.961 . S
C367 H375 0.960 . S
C368 C366 1.381 . S
C368 C369 1.394 . S
C368 H376 0.930 . S
C369 C368 1.394 . S
C369 C370 1.383 . S
C369 H377 0.929 . S
C370 C369 1.383 . S
C370 C371 1.377 . S
C371 H355 0.930 . S
C371 C370 1.377 . S
C371 C372 1.379 . S
C372 H356 0.931 . S
C372 C366 1.383 . S
C372 C371 1.379 . S
H373 C367 0.959 . S
H374 C367 0.961 . S
H375 C367 0.960 . S
H376 C368 0.930 . S
H377 C369 0.929 . S
H378 C386 0.929 . S
H379 C388 0.930 . S
H380 C390 0.930 . S
H381 C393 0.929 . S
H382 C396 0.930 . S
H383 C398 0.960 . S
H384 C398 0.960 . S
H385 C398 0.960 . S
C386 H378 0.929 . S
C386 C387 1.377 . S
C386 C388 1.384 . S
C387 C386 1.377 . S
C387 C393 1.390 . S
C388 H379 0.930 . S
C388 C386 1.384 . S
C388 C389 1.372 . S
C389 C388 1.372 . S
C389 C390 1.400 . S
C389 C394 1.490 . S
C390 H380 0.930 . S
C390 C389 1.400 . S
C390 C393 1.386 . S
H391 C407 0.930 . S
H392 C408 0.931 . S
C393 H381 0.929 . S
C393 C387 1.390 . S
C393 C390 1.386 . S
C394 C389 1.490 . S
C394 C396 1.395 . S
C394 C397 1.403 . S
H395 C401 0.930 . S
C396 H382 0.930 . S
C396 C394 1.395 . S
C396 C399 1.403 . S
C397 C394 1.403 . S
C397 C398 1.524 . S
C397 C401 1.400 . S
C398 H383 0.960 . S
C398 H384 0.960 . S
C398 H385 0.960 . S
C398 C397 1.524 . S
C399 C396 1.403 . S
C399 C400 1.392 . S
C399 C403 1.495 . S
C400 C399 1.392 . S
C400 C401 1.385 . S
C400 C402 1.478 . S
C401 H395 0.930 . S
C401 C397 1.400 . S
C401 C400 1.385 . S
C402 C400 1.478 . S
C402 C404 1.381 . S
C402 C408 1.383 . S
C403 C399 1.495 . S
C403 H409 0.959 . S
C403 H410 0.961 . S
C403 H411 0.960 . S
C404 C402 1.381 . S
C404 C405 1.394 . S
C404 H412 0.930 . S
C405 C404 1.394 . S
C405 C406 1.383 . S
C405 H413 0.929 . S
C406 C405 1.383 . S
C406 C407 1.377 . S
C407 H391 0.930 . S
C407 C406 1.377 . S
C407 C408 1.379 . S
C408 H392 0.931 . S
C408 C402 1.383 . S
C408 C407 1.379 . S
H409 C403 0.959 . S
H410 C403 0.961 . S
H411 C403 0.960 . S
H412 C404 0.930 . S
H413 C405 0.929 . S
H414 C422 0.929 . S
H415 C424 0.930 . S
H416 C426 0.930 . S
H417 C429 0.929 . S
H418 C432 0.930 . S
H419 C434 0.960 . S
H420 C434 0.960 . S
H421 C434 0.960 . S
C422 H414 0.929 . S
C422 C423 1.377 . S
C422 C424 1.384 . S
C423 C422 1.377 . S
C423 C429 1.390 . S
C424 H415 0.930 . S
C424 C422 1.384 . S
C424 C425 1.372 . S
C425 C424 1.372 . S
C425 C426 1.400 . S
C425 C430 1.490 . S
C426 H416 0.930 . S
C426 C425 1.400 . S
C426 C429 1.386 . S
H427 C443 0.930 . S
H428 C444 0.931 . S
C429 H417 0.929 . S
C429 C423 1.390 . S
C429 C426 1.386 . S
C430 C425 1.490 . S
C430 C432 1.395 . S
C430 C433 1.403 . S
H431 C437 0.930 . S
C432 H418 0.930 . S
C432 C430 1.395 . S
C432 C435 1.403 . S
C433 C430 1.403 . S
C433 C434 1.524 . S
C433 C437 1.400 . S
C434 H419 0.960 . S
C434 H420 0.960 . S
C434 H421 0.960 . S
C434 C433 1.524 . S
C435 C432 1.403 . S
C435 C436 1.392 . S
C435 C439 1.495 . S
C436 C435 1.392 . S
C436 C437 1.385 . S
C436 C438 1.478 . S
C437 H431 0.930 . S
C437 C433 1.400 . S
C437 C436 1.385 . S
C438 C436 1.478 . S
C438 C440 1.381 . S
C438 C444 1.383 . S
C439 C435 1.495 . S
C439 H445 0.959 . S
C439 H446 0.961 . S
C439 H447 0.960 . S
C440 C438 1.381 . S
C440 C441 1.394 . S
C440 H448 0.930 . S
C441 C440 1.394 . S
C441 C442 1.383 . S
C441 H449 0.929 . S
C442 C441 1.383 . S
C442 C443 1.377 . S
C443 H427 0.930 . S
C443 C442 1.377 . S
C443 C444 1.379 . S
C444 H428 0.931 . S
C444 C438 1.383 . S
C444 C443 1.379 . S
H445 C439 0.959 . S
H446 C439 0.961 . S
H447 C439 0.960 . S
H448 C440 0.930 . S
H449 C441 0.929 . S
H450 C458 0.929 . S
H451 C460 0.930 . S
H452 C462 0.930 . S
H453 C465 0.929 . S
H454 C468 0.930 . S
H455 C470 0.960 . S
H456 C470 0.960 . S
H457 C470 0.960 . S
C458 H450 0.929 . S
C458 C459 1.377 . S
C458 C460 1.384 . S
C459 C458 1.377 . S
C459 C465 1.390 . S
C460 H451 0.930 . S
C460 C458 1.384 . S
C460 C461 1.372 . S
C461 C460 1.372 . S
C461 C462 1.400 . S
C461 C466 1.490 . S
C462 H452 0.930 . S
C462 C461 1.400 . S
C462 C465 1.386 . S
H463 C479 0.930 . S
H464 C480 0.931 . S
C465 H453 0.929 . S
C465 C459 1.390 . S
C465 C462 1.386 . S
C466 C461 1.490 . S
C466 C468 1.395 . S
C466 C469 1.403 . S
H467 C473 0.930 . S
C468 H454 0.930 . S
C468 C466 1.395 . S
C468 C471 1.403 . S
C469 C466 1.403 . S
C469 C470 1.524 . S
C469 C473 1.400 . S
C470 H455 0.960 . S
C470 H456 0.960 . S
C470 H457 0.960 . S
C470 C469 1.524 . S
C471 C468 1.403 . S
C471 C472 1.392 . S
C471 C475 1.495 . S
C472 C471 1.392 . S
C472 C473 1.385 . S
C472 C474 1.478 . S
C473 H467 0.930 . S
C473 C469 1.400 . S
C473 C472 1.385 . S
C474 C472 1.478 . S
C474 C476 1.381 . S
C474 C480 1.383 . S
C475 C471 1.495 . S
C475 H481 0.959 . S
C475 H482 0.961 . S
C475 H483 0.960 . S
C476 C474 1.381 . S
C476 C477 1.394 . S
C476 H484 0.930 . S
C477 C476 1.394 . S
C477 C478 1.383 . S
C477 H485 0.929 . S
C478 C477 1.383 . S
C478 C479 1.377 . S
C479 H463 0.930 . S
C479 C478 1.377 . S
C479 C480 1.379 . S
C480 H464 0.931 . S
C480 C474 1.383 . S
C480 C479 1.379 . S
H481 C475 0.959 . S
H482 C475 0.961 . S
H483 C475 0.960 . S
H484 C476 0.930 . S
H485 C477 0.929 . S
H486 C494 0.929 . S
H487 C496 0.930 . S
H488 C498 0.930 1_655 S
H489 C501 0.929 1_655 S
H490 C504 0.930 . S
H491 C506 0.960 . S
H492 C506 0.960 . S
H493 C506 0.960 . S
C494 H486 0.929 . S
C494 C495 1.377 1_545 S
C494 C496 1.384 . S
C495 C494 1.377 1_565 S
C495 C501 1.390 . S
C496 H487 0.930 . S
C496 C494 1.384 . S
C496 C497 1.372 . S
C497 C496 1.372 . S
C497 C498 1.400 1_545 S
C497 C502 1.490 . S
C498 H488 0.930 1_455 S
C498 C497 1.400 1_565 S
C498 C501 1.386 . S
H499 C515 0.930 . S
H500 C516 0.931 1_655 S
C501 H489 0.929 1_455 S
C501 C495 1.390 . S
C501 C498 1.386 . S
C502 C497 1.490 . S
C502 C504 1.395 . S
C502 C505 1.403 1_545 S
H503 C509 0.930 . S
C504 H490 0.930 . S
C504 C502 1.395 . S
C504 C507 1.403 . S
C505 C502 1.403 1_565 S
C505 C506 1.524 . S
C505 C509 1.400 . S
C506 H491 0.960 . S
C506 H492 0.960 . S
C506 H493 0.960 . S
C506 C505 1.524 . S
C507 C504 1.403 . S
C507 C508 1.392 . S
C507 C511 1.495 . S
C508 C507 1.392 . S
C508 C509 1.385 1_545 S
C508 C510 1.478 . S
C509 H503 0.930 . S
C509 C505 1.400 . S
C509 C508 1.385 1_565 S
C510 C508 1.478 . S
C510 C512 1.381 . S
C510 C516 1.383 . S
C511 C507 1.495 . S
C511 H517 0.959 . S
C511 H518 0.961 . S
C511 H519 0.960 . S
C512 C510 1.381 . S
C512 C513 1.394 . S
C512 H520 0.930 . S
C513 C512 1.394 . S
C513 C514 1.383 . S
C513 H521 0.929 . S
C514 C513 1.383 . S
C514 C515 1.377 . S
C515 H499 0.930 . S
C515 C514 1.377 . S
C515 C516 1.379 . S
C516 H500 0.931 1_455 S
C516 C510 1.383 . S
C516 C515 1.379 . S
H517 C511 0.959 . S
H518 C511 0.961 . S
H519 C511 0.960 . S
H520 C512 0.930 . S
H521 C513 0.929 . S
H522 C530 0.929 . S
H523 C532 0.930 . S
H524 C534 0.930 . S
H525 C537 0.929 . S
H526 C540 0.930 . S
H527 C542 0.960 . S
H528 C542 0.960 . S
H529 C542 0.960 . S
C530 H522 0.929 . S
C530 C531 1.377 1_545 S
C530 C532 1.384 . S
C531 C530 1.377 1_565 S
C531 C537 1.390 . S
C532 H523 0.930 . S
C532 C530 1.384 . S
C532 C533 1.372 . S
C533 C532 1.372 . S
C533 C534 1.400 1_545 S
C533 C538 1.490 . S
C534 H524 0.930 . S
C534 C533 1.400 1_565 S
C534 C537 1.386 . S
H535 C551 0.930 . S
H536 C552 0.931 . S
C537 H525 0.929 . S
C537 C531 1.390 . S
C537 C534 1.386 . S
C538 C533 1.490 . S
C538 C540 1.395 . S
C538 C541 1.403 1_445 S
H539 C545 0.930 1_565 S
C540 H526 0.930 . S
C540 C538 1.395 . S
C540 C543 1.403 . S
C541 C538 1.403 1_665 S
C541 C542 1.524 . S
C541 C545 1.400 1_565 S
C542 H527 0.960 . S
C542 H528 0.960 . S
C542 H529 0.960 . S
C542 C541 1.524 . S
C543 C540 1.403 . S
C543 C544 1.392 . S
C543 C547 1.495 . S
C544 C543 1.392 . S
C544 C545 1.385 1_455 S
C544 C546 1.478 . S
C545 H539 0.930 1_545 S
C545 C541 1.400 1_545 S
C545 C544 1.385 1_655 S
C546 C544 1.478 . S
C546 C548 1.381 . S
C546 C552 1.383 1_545 S
C547 C543 1.495 . S
C547 H553 0.959 . S
C547 H554 0.961 . S
C547 H555 0.960 . S
C548 C546 1.381 . S
C548 C549 1.394 . S
C548 H556 0.930 . S
C549 C548 1.394 . S
C549 C550 1.383 . S
C549 H557 0.929 . S
C550 C549 1.383 . S
C550 C551 1.377 1_545 S
C551 H535 0.930 . S
C551 C550 1.377 1_565 S
C551 C552 1.379 . S
C552 H536 0.931 . S
C552 C546 1.383 1_565 S
C552 C551 1.379 . S
H553 C547 0.959 . S
H554 C547 0.961 . S
H555 C547 0.960 . S
H556 C548 0.930 . S
H557 C549 0.929 . S
H558 C566 0.929 . S
H559 C568 0.930 . S
H560 C570 0.930 . S
H561 C573 0.929 . S
H562 C576 0.930 . S
H563 C578 0.960 . S
H564 C578 0.960 . S
H565 C578 0.960 . S
C566 H558 0.929 . S
C566 C567 1.377 . S
C566 C568 1.384 . S
C567 C566 1.377 . S
C567 C573 1.390 . S
C568 H559 0.930 . S
C568 C566 1.384 . S
C568 C569 1.372 . S
C569 C568 1.372 . S
C569 C570 1.400 . S
C569 C574 1.490 . S
C570 H560 0.930 . S
C570 C569 1.400 . S
C570 C573 1.386 . S
H571 C587 0.930 . S
H572 C588 0.931 . S
C573 H561 0.929 . S
C573 C567 1.390 . S
C573 C570 1.386 . S
C574 C569 1.490 . S
C574 C576 1.395 . S
C574 C577 1.403 . S
H575 C581 0.930 . S
C576 H562 0.930 . S
C576 C574 1.395 . S
C576 C579 1.403 . S
C577 C574 1.403 . S
C577 C578 1.524 . S
C577 C581 1.400 . S
C578 H563 0.960 . S
C578 H564 0.960 . S
C578 H565 0.960 . S
C578 C577 1.524 . S
C579 C576 1.403 . S
C579 C580 1.392 . S
C579 C583 1.495 . S
C580 C579 1.392 . S
C580 C581 1.385 . S
C580 C582 1.478 . S
C581 H575 0.930 . S
C581 C577 1.400 . S
C581 C580 1.385 . S
C582 C580 1.478 . S
C582 C584 1.381 . S
C582 C588 1.383 . S
C583 C579 1.495 . S
C583 H589 0.959 . S
C583 H590 0.961 . S
C583 H591 0.960 . S
C584 C582 1.381 . S
C584 C585 1.394 . S
C584 H592 0.930 . S
C585 C584 1.394 . S
C585 C586 1.383 . S
C585 H593 0.929 . S
C586 C585 1.383 . S
C586 C587 1.377 . S
C587 H571 0.930 . S
C587 C586 1.377 . S
C587 C588 1.379 . S
C588 H572 0.931 . S
C588 C582 1.383 . S
C588 C587 1.379 . S
H589 C583 0.959 . S
H590 C583 0.961 . S
H591 C583 0.960 . S
H592 C584 0.930 . S
H593 C585 0.929 . S
H594 C602 0.929 . S
H595 C604 0.930 . S
H596 C606 0.930 . S
H597 C609 0.929 . S
H598 C612 0.930 . S
H599 C614 0.960 . S
H600 C614 0.960 . S
H601 C614 0.960 . S
C602 H594 0.929 . S
C602 C603 1.377 . S
C602 C604 1.384 . S
C603 C602 1.377 . S
C603 C609 1.390 . S
C604 H595 0.930 . S
C604 C602 1.384 . S
C604 C605 1.372 . S
C605 C604 1.372 . S
C605 C606 1.400 . S
C605 C610 1.490 . S
C606 H596 0.930 . S
C606 C605 1.400 . S
C606 C609 1.386 . S
H607 C623 0.930 . S
H608 C624 0.931 . S
C609 H597 0.929 . S
C609 C603 1.390 . S
C609 C606 1.386 . S
C610 C605 1.490 . S
C610 C612 1.395 . S
C610 C613 1.403 . S
H611 C617 0.930 . S
C612 H598 0.930 . S
C612 C610 1.395 . S
C612 C615 1.403 . S
C613 C610 1.403 . S
C613 C614 1.524 . S
C613 C617 1.400 . S
C614 H599 0.960 . S
C614 H600 0.960 . S
C614 H601 0.960 . S
C614 C613 1.524 . S
C615 C612 1.403 . S
C615 C616 1.392 . S
C615 C619 1.495 . S
C616 C615 1.392 . S
C616 C617 1.385 . S
C616 C618 1.478 . S
C617 H611 0.930 . S
C617 C613 1.400 . S
C617 C616 1.385 . S
C618 C616 1.478 . S
C618 C620 1.381 . S
C618 C624 1.383 . S
C619 C615 1.495 . S
C619 H625 0.959 . S
C619 H626 0.961 . S
C619 H627 0.960 . S
C620 C618 1.381 . S
C620 C621 1.394 . S
C620 H628 0.930 . S
C621 C620 1.394 . S
C621 C622 1.383 . S
C621 H629 0.929 . S
C622 C621 1.383 . S
C622 C623 1.377 . S
C623 H607 0.930 . S
C623 C622 1.377 . S
C623 C624 1.379 . S
C624 H608 0.931 . S
C624 C618 1.383 . S
C624 C623 1.379 . S
H625 C619 0.959 . S
H626 C619 0.961 . S
H627 C619 0.960 . S
H628 C620 0.930 . S
H629 C621 0.929 . S
C226 C175 1.147 . S
C207 C3 1.025 . S
C243 C4 1.504 1_556 S
C262 C136 1.618 . S
C279 C19 1.535 . S
C298 C180 1.644 . S
C315 C7 1.046 1_554 S
C334 C141 1.124 . S
C351 C37 1.031 . S
C370 C97 1.137 . S
C387 C28 1.505 . S
C406 C58 1.597 . S
C442 C102 1.620 . S
C423 C41 1.538 . S
C478 C63 1.139 . S
C459 C25 1.035 . S
C495 C20 1.265 . S
C514 C43 1.427 . S
C531 C16 1.316 . S
C550 C82 1.476 . S
C586 C121 1.410 . S
C567 C40 1.267 . S
C603 C24 1.325 . S
C622 C160 1.471 . S
