# Generated by pormake.
# Topology pth, (4,4)-cn, num edge types: 1
# Building blocks:
#     Node 0, Type 0, BuildingBlock: UXUYUI_clean_sbu_0, # of connection points: 4
#     Node 1, Type 0, BuildingBlock: UXUYUI_clean_sbu_0, # of connection points: 4
#     Node 2, Type 0, BuildingBlock: UXUYUI_clean_sbu_0, # of connection points: 4
#     Node 3, Type 1, BuildingBlock: MIFKUJ_clean_linker_1, # of connection points: 4
#     Node 4, Type 1, BuildingBlock: MIFKUJ_clean_linker_1, # of connection points: 4
#     Node 5, Type 1, BuildingBlock: MIFKUJ_clean_linker_1, # of connection points: 4
#     Edge 6, Type (0, 1), None
#     Edge 7, Type (0, 1), None
#     Edge 8, Type (0, 1), None
#     Edge 9, Type (0, 1), None
#     Edge 10, Type (0, 1), None
#     Edge 11, Type (0, 1), None
#     Edge 12, Type (0, 1), None
#     Edge 13, Type (0, 1), None
#     Edge 14, Type (0, 1), None
#     Edge 15, Type (0, 1), None
#     Edge 16, Type (0, 1), None
#     Edge 17, Type (0, 1), None
# Relax obj value: 0.075
# Max RMSD: 0.209
# Mean RMSD: 0.121
data_MOF--net-pth--node1-UXUYUI_clean_sbu_0--node2-MIFKUJ_clean_linker_1--edge1-none
_symmetry_space_group_name_H-M    P1
_symmetry_Int_Tables_number       1
_symmetry_cell_setting            triclinic
loop_
_symmetry_equiv_pos_as_xyz
'x, y, z'
_cell_length_a     21.687441
_cell_length_b     21.696635
_cell_length_c     46.383746
_cell_angle_alpha  90.040632
_cell_angle_beta   90.269507
_cell_angle_gamma 120.01301
loop_
_atom_site_label
_atom_site_type_symbol
_atom_site_fract_x
_atom_site_fract_y
_atom_site_fract_z
_atom_type_partial_charge
Li0 Li 0.06688 0.057 0.03153 0.0
Li1 Li 0.98709 0.05735 0.06883 0.0
Li2 Li 0.0203 0.96334 0.06851 0.0
Li3 Li 0.93979 0.96258 0.03205 0.0
C4 C 0.15074 0.0841 0.08154 0.0
N5 N 0.28701 0.11641 0.09673 0.0
C6 C 0.18735 0.13337 0.10349 0.0
C7 C 0.18335 0.05126 0.06731 0.0
C8 C 0.25626 0.14902 0.11086 0.0
C9 C 0.25227 0.06827 0.07531 0.0
C10 C 0.92916 0.08231 0.01872 0.0
C11 C 0.81175 0.06623 0.02512 0.0
N12 N 0.82424 0.11298 1.00336 0.0
C13 C 0.94089 0.13015 0.99643 0.0
C14 C 0.86416 0.05007 0.03322 0.0
C15 C 0.88717 0.145 0.98898 0.0
C16 C 0.14598 0.10407 0.97973 0.0
N17 N 0.14254 0.12081 0.00769 0.0
C18 C 0.23707 0.23996 1.00062 0.0
C19 C 0.18702 0.1869 0.01841 0.0
C20 C 0.24083 0.22513 0.97138 0.0
C21 C 0.19532 0.15568 0.9611 0.0
H22 H 0.10863 0.05147 0.97166 0.0
H23 H 0.18196 0.19907 0.04059 0.0
C24 C 0.95607 0.10591 0.12059 0.0
N25 N 0.97525 0.12165 0.09253 0.0
C26 C 0.95848 0.15802 0.1391 0.0
C27 C 0.99892 0.24067 0.09925 0.0
C28 C 0.99587 0.18716 0.08159 0.0
C29 C 0.98145 0.22693 0.12858 0.0
H30 H 0.94158 0.05377 0.12882 0.0
H31 H 0.01232 0.19857 0.05933 0.0
C32 C 0.02928 0.89718 0.01548 0.0
N33 N 0.03755 0.78269 0.99402 0.0
C34 C 0.97039 0.8285 0.01699 0.0
C35 C 0.0921 0.90773 1.00272 0.0
C36 C 0.97569 0.7713 0.00609 0.0
C37 C 0.09531 0.84913 0.99211 0.0
C38 C 0.86564 0.89745 0.08511 0.0
C39 C 0.8564 0.829 0.08351 0.0
C40 C 0.81322 0.90761 0.09798 0.0
C41 C 0.79428 0.77161 0.09442 0.0
C42 C 0.7518 0.84883 0.10861 0.0
N43 N 0.74365 0.78261 0.1066 0.0
C44 C 0.01121 0.89773 0.12092 0.0
C45 C 0.06541 0.86355 0.0849 0.0
C46 C 0.01089 0.84794 0.14005 0.0
N47 N 0.03655 0.90335 0.09373 0.0
C48 C 0.06612 0.81297 0.10332 0.0
C49 C 0.03717 0.80356 0.13113 0.0
H50 H 0.98888 0.93036 0.12741 0.0
H51 H 0.08606 0.86939 0.06334 0.0
C52 C 0.88273 0.89536 0.97978 0.0
N53 N 0.86326 0.90168 0.00695 0.0
C54 C 0.83308 0.84504 0.96071 0.0
C55 C 0.74316 0.81098 0.99742 0.0
C56 C 0.79465 0.86207 0.01579 0.0
C57 C 0.76248 0.80086 0.96965 0.0
H58 H 0.93765 0.92788 0.97327 0.0
H59 H 0.78004 0.8685 0.03732 0.0
O60 O 0.08332 0.06841 0.07411 0.0
O61 O 0.98135 0.0674 0.02622 0.0
O62 O 0.02546 0.95418 0.02593 0.0
O63 O 0.92608 0.95463 0.07465 0.0
H64 H 0.16275 0.15927 0.11469 0.0
H65 H 0.15581 0.01308 0.0503 0.0
H66 H 0.28528 0.18709 0.1278 0.0
H67 H 0.27814 0.0432 0.06448 0.0
H68 H 0.76115 0.04161 0.03615 0.0
H69 H 0.99104 0.15556 0.98502 0.0
H70 H 0.85424 0.01299 0.0505 0.0
H71 H 0.89549 0.18196 0.97177 0.0
H72 H 0.27175 0.29238 0.00959 0.0
H73 H 0.19585 0.14211 0.93866 0.0
H74 H 0.94528 0.14529 0.16161 0.0
H75 H 0.01588 0.29261 0.0901 0.0
H76 H 0.92089 0.81939 0.02617 0.0
H77 H 0.13799 0.96063 1.0011 0.0
H78 H 0.93053 0.71787 0.00715 0.0
H79 H 0.14371 0.85649 0.98232 0.0
H80 H 0.89694 0.82023 0.07423 0.0
H81 H 0.81983 0.96034 0.09968 0.0
H82 H 0.78643 0.71835 0.09329 0.0
H83 H 0.71064 0.85587 0.11849 0.0
H84 H 0.98933 0.84358 0.16144 0.0
H85 H 0.08663 0.77977 0.09543 0.0
H86 H 0.85009 0.84012 0.93934 0.0
H87 H 0.68948 0.77798 1.00531 0.0
Li88 Li 0.98811 0.94772 0.36415 0.0
Li89 Li 0.06855 0.02753 0.40064 0.0
Li90 Li 0.94145 0.99484 0.40113 0.0
Li91 Li 0.02129 0.07493 0.36386 0.0
C92 C 0.9792 0.87271 0.41713 0.0
N93 N 0.97122 0.75008 0.43852 0.0
C94 C 0.03815 0.86302 0.41558 0.0
C95 C 0.91646 0.82039 0.42991 0.0
C96 C 0.033 0.80059 0.42643 0.0
C97 C 0.91339 0.75864 0.44048 0.0
C98 C 0.14284 0.03663 0.34758 0.0
C99 C 0.25674 0.10207 0.32414 0.0
N100 N 0.26498 0.04404 0.32607 0.0
C101 C 0.15218 0.97747 0.34911 0.0
C102 C 0.19524 0.09928 0.33478 0.0
C103 C 0.21437 0.98233 0.33819 0.0
C104 C 0.99732 0.89111 0.31173 0.0
N105 N 0.97191 0.87145 0.33892 0.0
C106 C 0.94229 0.75145 0.32931 0.0
C107 C 0.94298 0.80279 0.34773 0.0
C108 C 0.97131 0.77094 0.30151 0.0
C109 C 0.99765 0.84158 0.29261 0.0
H110 H 0.0197 0.94606 0.30525 0.0
H111 H 0.92226 0.78803 0.36927 0.0
C112 C 0.12545 0.01745 0.45293 0.0
N113 N 0.14502 0.04319 0.42577 0.0
C114 C 0.175 0.01672 0.47202 0.0
C115 C 0.26505 0.07244 0.43536 0.0
C116 C 0.21365 0.07209 0.41696 0.0
C117 C 0.24561 0.04303 0.46311 0.0
H118 H 0.07052 0.99513 0.45941 0.0
H119 H 0.22834 0.09307 0.39543 0.0
C120 C 0.85768 0.93796 0.3511 0.0
N121 N 0.72147 0.83387 0.33588 0.0
C122 C 0.82112 0.95047 0.3291 0.0
C123 C 0.82504 0.87259 0.36537 0.0
C124 C 0.75225 0.89715 0.32172 0.0
C125 C 0.75615 0.82062 0.35735 0.0
C126 C 0.07908 0.15792 0.41398 0.0
C127 C 0.06717 0.19417 0.4362 0.0
C128 C 0.1442 0.1906 0.39958 0.0
C129 C 0.12082 0.26279 0.44365 0.0
C130 C 0.19654 0.25923 0.40767 0.0
N131 N 0.18386 0.29362 0.42935 0.0
C132 C 0.86218 0.9627 0.4529 0.0
C133 C 0.82129 0.00464 0.41426 0.0
C134 C 0.81276 0.96489 0.47153 0.0
N135 N 0.86573 0.98299 0.42496 0.0
C136 C 0.77116 0.00757 0.43205 0.0
C137 C 0.76727 0.98884 0.46126 0.0
H138 H 0.8995 0.94742 0.46096 0.0
H139 H 0.82643 0.02194 0.3921 0.0
C140 C 0.05237 0.15439 0.31212 0.0
N141 N 0.03317 0.15103 0.34017 0.0
C142 C 0.04998 0.20404 0.2936 0.0
C143 C 0.00952 0.24637 0.33344 0.0
C144 C 0.01256 0.19596 0.35111 0.0
C145 C 0.02701 0.25001 0.30411 0.0
H146 H 0.06686 0.11671 0.30388 0.0
H147 H 0.99608 0.19098 0.37336 0.0
O148 O 0.98288 0.93346 0.40673 0.0
O149 O 0.08232 0.03323 0.35805 0.0
O150 O 0.92507 0.98975 0.35854 0.0
O151 O 0.02695 0.09078 0.40647 0.0
H152 H 0.0876 0.90346 0.40638 0.0
H153 H 0.87052 0.82731 0.43157 0.0
H154 H 0.07822 0.79241 0.42533 0.0
H155 H 0.86505 0.71757 0.45028 0.0
H156 H 0.29787 0.15033 0.31431 0.0
H157 H 0.11165 0.92809 0.35833 0.0
H158 H 0.18856 0.14537 0.33314 0.0
H159 H 0.22229 0.93696 0.33926 0.0
H160 H 0.92172 0.69776 0.33719 0.0
H161 H 0.01927 0.85874 0.27122 0.0
H162 H 0.1579 0.9948 0.49337 0.0
H163 H 0.31874 0.09303 0.42749 0.0
H164 H 0.84575 1.0009 0.31787 0.0
H165 H 0.85253 0.86207 0.38242 0.0
H166 H 0.72327 0.90609 0.30474 0.0
H167 H 0.73027 0.76975 0.3682 0.0
H168 H 0.01692 0.1695 0.44753 0.0
H169 H 0.15427 0.16335 0.38236 0.0
H170 H 0.11235 0.29153 0.46079 0.0
H171 H 0.24723 0.28515 0.39671 0.0
H172 H 0.81213 0.95068 0.49395 0.0
H173 H 0.7365 0.02532 0.4231 0.0
H174 H 0.06319 0.20444 0.27109 0.0
H175 H 0.99256 0.28138 0.34259 0.0
Li176 Li 0.05009 0.98396 0.69709 0.0
Li177 Li 0.05337 0.06711 0.73405 0.0
Li178 Li 0.95684 0.93724 0.73545 0.0
Li179 Li 0.95446 0.01783 0.69837 0.0
C180 C 0.0995 0.95062 0.74944 0.0
N181 N 0.17661 0.88942 0.76938 0.0
C182 C 0.17133 0.99344 0.75678 0.0
C183 C 0.06669 0.87677 0.75241 0.0
C184 C 0.20946 0.96144 0.76678 0.0
C185 C 0.10666 0.84683 0.76248 0.0
C186 C 0.09364 0.14784 0.68243 0.0
C187 C 0.09789 0.2597 0.67445 0.0
N188 N 0.16515 0.28756 0.66407 0.0
C189 C 0.16246 0.17727 0.67135 0.0
C190 C 0.06075 0.18907 0.68372 0.0
C191 C 0.19788 0.24813 0.66233 0.0
C192 C 0.11736 0.99842 0.64463 0.0
N193 N 0.1107 0.96999 0.67133 0.0
C194 C 0.20044 0.9402 0.66068 0.0
C195 C 0.15006 0.93992 0.6794 0.0
C196 C 0.21043 0.97159 0.63331 0.0
C197 C 0.16703 0.99979 0.62519 0.0
H198 H 0.08541 0.02203 0.63875 0.0
H199 H 0.14401 0.91725 0.70055 0.0
C200 C 0.10116 0.15199 0.78486 0.0
N201 N 0.11955 0.14356 0.75778 0.0
C202 C 0.15263 0.20156 0.80375 0.0
C203 C 0.24051 0.23326 0.76634 0.0
C204 C 0.1876 0.18281 0.74834 0.0
C205 C 0.22375 0.24247 0.79468 0.0
H206 H 0.04707 0.11844 0.79215 0.0
H207 H 0.20151 0.17307 0.72719 0.0
C208 C 0.91108 0.85531 0.68233 0.0
N209 N 0.84151 0.71802 0.66089 0.0
C210 C 0.84197 0.8261 0.67129 0.0
C211 C 0.94504 0.81498 0.68233 0.0
C212 C 0.80762 0.75649 0.6606 0.0
C213 C 0.9089 0.74559 0.67142 0.0
C214 C 0.91305 0.05671 0.75038 0.0
C215 C 0.8441 0.01579 0.76116 0.0
C216 C 0.9449 0.13082 0.74984 0.0
C217 C 0.80748 0.04971 0.7706 0.0
C218 C 0.90658 0.16275 0.7595 0.0
N219 N 0.83919 0.12187 0.76956 0.0
C220 C 0.89136 0.88404 0.78824 0.0
C221 C 0.85399 0.79415 0.75251 0.0
C222 C 0.84173 0.83575 0.80769 0.0
N223 N 0.8958 0.86289 0.7611 0.0
C224 C 0.80379 0.74406 0.77125 0.0
C225 C 0.79628 0.76485 0.79913 0.0
H226 H 0.92503 0.93915 0.79448 0.0
H227 H 0.85786 0.77818 0.73092 0.0
C228 C 0.90664 0.05551 0.64772 0.0
N229 N 0.88822 0.02804 0.6747 0.0
C230 C 0.85507 0.05348 0.62888 0.0
C231 C 0.767 0.99577 0.6661 0.0
C232 C 0.82001 0.99834 0.68405 0.0
C233 C 0.7838 0.02246 0.63787 0.0
H234 H 0.96086 0.07668 0.64048 0.0
H235 H 0.8061 0.97415 0.70509 0.0
O236 O 0.06128 0.98099 0.73979 0.0
O237 O 0.05804 0.07835 0.69114 0.0
O238 O 0.94545 0.92334 0.6928 0.0
O239 O 0.94986 0.02435 0.7413 0.0
H240 H 0.19737 0.05071 0.75469 0.0
H241 H 0.01112 0.84292 0.74684 0.0
H242 H 0.26515 0.99385 0.77247 0.0
H243 H 0.08208 0.78974 0.76479 0.0
H244 H 0.07311 0.29228 0.67539 0.0
H245 H 0.18847 0.14585 0.66998 0.0
H246 H 0.00684 0.1666 0.69148 0.0
H247 H 0.25137 0.27176 0.65391 0.0
H248 H 0.23304 0.91841 0.66804 0.0
H249 H 0.17197 0.02348 0.60418 0.0
H250 H 0.13728 0.20585 0.82551 0.0
H251 H 0.29422 0.26399 0.75818 0.0
H252 H 0.81512 0.85683 0.67107 0.0
H253 H 0.99844 0.83677 0.69086 0.0
H254 H 0.75404 0.73306 0.65206 0.0
H255 H 0.93439 0.71361 0.67138 0.0
H256 H 0.81892 0.95835 0.76198 0.0
H257 H 0.99891 0.16342 0.74234 0.0
H258 H 0.75388 0.01866 0.77878 0.0
H259 H 0.93053 0.22007 0.75913 0.0
H260 H 0.83846 0.85394 0.82908 0.0
H261 H 0.76939 0.69024 0.76357 0.0
H262 H 0.87048 0.07365 0.6072 0.0
H263 H 0.71319 0.97216 0.6742 0.0
H264 H 0.1001 0.46242 0.16012 0.0
H265 H 0.08896 0.36581 0.12945 0.0
H266 H 0.89272 0.21944 0.17211 0.0
H267 H 0.90453 0.31631 0.2029 0.0
H268 H 0.0199 0.51909 0.16331 0.0
H269 H 0.10397 0.41607 0.22979 0.0
H270 H 0.11576 0.33111 0.26059 0.0
H271 H 0.91951 0.2814 0.30324 0.0
H272 H 0.90839 0.36677 0.27256 0.0
H273 H 0.88593 0.54278 0.26428 0.0
H274 H 0.87357 0.62956 0.29364 0.0
H275 H 0.08221 0.79383 0.26647 0.0
H276 H 0.09359 0.70687 0.23684 0.0
H277 H 0.9886 0.50364 0.26936 0.0
H278 H 0.91493 0.61749 0.19582 0.0
H279 H 0.9263 0.71572 0.16619 0.0
H280 H 0.13489 0.75992 0.13898 0.0
H281 H 0.12255 0.6609 0.16835 0.0
C282 C 0.00345 0.39667 0.18394 0.0
C283 C 0.05483 0.40948 0.16294 0.0
C284 C 0.0481 0.35422 0.1453 0.0
C285 C 0.98953 0.28494 0.14813 0.0
C286 C 0.93877 0.27196 0.16953 0.0
C287 C 0.94556 0.32732 0.18719 0.0
C288 C 0.00767 0.45644 0.20116 0.0
C289 C 0.01416 0.51609 0.18657 0.0
C290 C 1.00084 0.45308 0.23151 0.0
C291 C 0.00506 0.39759 0.24874 0.0
C292 C 0.06294 0.38611 0.2455 0.0
C293 C 0.06972 0.3376 0.26316 0.0
C294 C 0.01895 0.29989 0.28456 0.0
C295 C 0.96039 0.31062 0.28739 0.0
C296 C 0.95367 0.3591 0.26974 0.0
C297 C 0.99043 0.61846 0.24822 0.0
C298 C 0.92883 0.59763 0.26457 0.0
C299 C 0.92196 0.64724 0.28143 0.0
C300 C 0.97684 0.71873 0.28243 0.0
C301 C 0.03834 0.73952 0.26582 0.0
C302 C 0.0451 0.68984 0.24892 0.0
C303 C 0.99809 0.56457 0.23136 0.0
C304 C 0.99435 0.5063 0.2461 0.0
C305 C 0.01042 0.57067 0.2013 0.0
C306 C 0.01807 0.63216 0.18443 0.0
C307 C 0.96341 0.64889 0.18374 0.0
C308 C 0.97016 0.70527 0.16684 0.0
C309 C 0.03165 0.7459 0.15021 0.0
C310 C 0.08652 0.72927 0.15121 0.0
C311 C 0.07965 0.67285 0.16807 0.0
H312 H 0.65121 0.10699 0.4938 0.0
H313 H 0.73703 0.09704 0.4631 0.0
H314 H 0.68508 0.8981 0.50407 0.0
H315 H 0.59961 0.90861 0.53484 0.0
H316 H 0.514 0.02666 0.49585 0.0
H317 H 0.69707 0.1087 0.56554 0.0
H318 H 0.79203 0.11812 0.59706 0.0
H319 H 0.64625 0.91194 0.63307 0.0
H320 H 0.55125 0.90423 0.60216 0.0
H321 H 0.3518 0.88641 0.59497 0.0
H322 H 0.25222 0.87303 0.62406 0.0
H323 H 0.29946 0.08415 0.59909 0.0
H324 H 0.39813 0.09644 0.56962 0.0
H325 H 0.49405 0.98817 0.60154 0.0
H326 H 0.30929 0.9191 0.52734 0.0
H327 H 0.22258 0.93119 0.49766 0.0
H328 H 0.387 0.1406 0.47134 0.0
H329 H 0.47356 0.12767 0.50085 0.0
C330 C 0.61925 0.00887 0.51678 0.0
C331 C 0.65857 0.06142 0.49627 0.0
C332 C 0.70728 0.05538 0.47861 0.0
C333 C 0.71745 0.99638 0.48094 0.0
C334 C 0.67904 0.9445 0.50189 0.0
C335 C 0.63027 0.95058 0.51956 0.0
C336 C 0.56302 0.01205 0.53379 0.0
C337 C 0.51039 0.01948 0.51904 0.0
C338 C 0.55822 0.00296 0.56403 0.0
C339 C 0.61709 0.00568 0.58146 0.0
C340 C 0.68587 0.06525 0.58005 0.0
C341 C 0.74018 0.07051 0.59809 0.0
C342 C 0.72688 0.01612 0.61786 0.0
C343 C 0.65819 0.95571 0.61866 0.0
C344 C 0.60383 0.95084 0.60082 0.0
C345 C 0.38214 0.99225 0.58003 0.0
C346 C 0.34036 0.92962 0.59567 0.0
C347 C 0.28362 0.92218 0.61237 0.0
C348 C 0.26779 0.97754 0.614 0.0
C349 C 0.30931 0.03996 0.59799 0.0
C350 C 0.36597 0.04725 0.58119 0.0
C351 C 0.44416 1.00057 0.56346 0.0
C352 C 0.49803 0.99562 0.57835 0.0
C353 C 0.45142 0.01468 0.53351 0.0
C354 C 0.39777 0.0227 0.51649 0.0
C355 C 0.32642 0.96794 0.51546 0.0
C356 C 0.27688 0.97508 0.49852 0.0
C357 C 0.29777 0.03702 0.48215 0.0
C358 C 0.36926 0.09192 0.4834 0.0
C359 C 0.41874 0.08471 0.50033 0.0
H360 H 0.45646 0.35746 0.83019 0.0
H361 H 0.36155 0.27021 0.79921 0.0
H362 H 0.21513 0.3291 0.83583 0.0
H363 H 0.31005 0.41471 0.86737 0.0
H364 H 0.51304 0.49821 0.83109 0.0
H365 H 0.4081 0.31276 0.89766 0.0
H366 H 0.32285 0.2167 0.92843 0.0
H367 H 0.27089 0.36351 0.96969 0.0
H368 H 0.3565 0.45935 0.939 0.0
H369 H 0.53433 0.65784 0.93203 0.0
H370 H 0.6211 0.75724 0.96155 0.0
H371 H 0.78518 0.71189 0.93498 0.0
H372 H 0.69825 0.61322 0.90526 0.0
H373 H 0.4938 0.5162 0.93686 0.0
H374 H 0.61092 0.70285 0.86392 0.0
H375 H 0.70961 0.78923 0.83444 0.0
H376 H 0.75305 0.62403 0.80743 0.0
H377 H 0.65388 0.53795 0.83671 0.0
C378 C 0.39033 0.39237 0.85117 0.0
C379 C 0.40377 0.35118 0.83165 0.0
C380 C 0.34945 0.30171 0.81377 0.0
C381 C 0.28063 0.29303 0.81472 0.0
C382 C 0.26712 0.33368 0.83468 0.0
C383 C 0.3214 0.38276 0.85273 0.0
C384 C 0.44919 0.44859 0.86862 0.0
C385 C 0.50924 0.50157 0.85429 0.0
C386 C 0.44456 0.45274 0.89888 0.0
C387 C 0.38845 0.39328 0.91588 0.0
C388 C 0.37749 0.32401 0.91301 0.0
C389 C 0.32884 0.26911 0.93067 0.0
C390 C 0.2905 0.28251 0.95171 0.0
C391 C 0.3006 0.35165 0.95412 0.0
C392 C 0.34919 0.40645 0.93646 0.0
C393 C 0.60993 0.6285 0.91626 0.0
C394 C 0.58912 0.66959 0.9325 0.0
C395 C 0.63872 0.72623 0.94944 0.0
C396 C 0.71018 0.74271 0.95062 0.0
C397 C 0.73091 0.70157 0.93418 0.0
C398 C 0.68124 0.64496 0.91722 0.0
C399 C 0.55617 0.56698 0.89919 0.0
C400 C 0.49727 0.51274 0.91365 0.0
C401 C 0.56324 0.56032 0.8692 0.0
C402 C 0.62522 0.61402 0.85261 0.0
C403 C 0.64232 0.68552 0.85194 0.0
C404 C 0.69892 0.73487 0.83513 0.0
C405 C 0.73927 0.71355 0.81854 0.0
C406 C 0.72254 0.64205 0.81963 0.0
C407 C 0.666 0.59283 0.83642 0.0
loop_
_geom_bond_atom_site_label_1
_geom_bond_atom_site_label_2
_geom_bond_distance
_geom_bond_site_symmetry_2
_ccdc_geom_bond_type
Li0 N17 1.990 . S
Li0 O60 1.956 . S
Li0 O61 1.970 1_455 S
Li0 O62 1.961 1_545 S
Li1 N25 1.990 . S
Li1 O60 1.970 1_655 S
Li1 O61 1.956 . S
Li1 O63 1.961 1_545 S
Li2 N47 1.990 . S
Li2 O60 1.961 1_565 S
Li2 O62 1.956 . S
Li2 O63 1.970 1_455 S
Li3 N53 1.990 . S
Li3 O61 1.961 1_565 S
Li3 O62 1.970 1_655 S
Li3 O63 1.956 . S
C4 C6 1.348 . S
C4 C7 1.356 . S
C4 O60 1.325 . S
N5 C8 1.314 . S
N5 C9 1.279 . S
C6 C4 1.348 . S
C6 C8 1.353 . S
C6 H64 0.929 . S
C7 C4 1.356 . S
C7 C9 1.358 . S
C7 H65 0.930 . S
C8 N5 1.314 . S
C8 C6 1.353 . S
C8 H66 0.930 . S
C9 N5 1.279 . S
C9 C7 1.358 . S
C9 H67 0.930 . S
C10 C13 1.348 1_654 S
C10 C14 1.356 . S
C10 O61 1.325 . S
C11 N12 1.279 . S
C11 C14 1.358 1_556 S
C11 H68 0.930 . S
N12 C11 1.279 . S
N12 C15 1.314 . S
C13 C10 1.348 1_456 S
C13 C15 1.353 1_455 S
C13 H69 0.929 . S
C14 C10 1.356 . S
C14 C11 1.358 1_554 S
C14 H70 0.930 . S
C15 N12 1.314 . S
C15 C13 1.353 1_655 S
C15 H71 0.930 1_655 S
C16 N17 1.314 1_556 S
C16 C21 1.353 . S
C16 H22 0.930 . S
N17 Li0 1.990 . S
N17 C16 1.314 1_554 S
N17 C19 1.279 . S
C18 C19 1.358 1_556 S
C18 C20 1.356 . S
C18 H72 0.930 1_556 S
C19 N17 1.279 . S
C19 C18 1.358 1_554 S
C19 H23 0.930 . S
C20 C18 1.356 . S
C20 C21 1.348 . S
C21 C16 1.353 . S
C21 C20 1.348 . S
C21 H73 0.929 . S
H22 C16 0.930 . S
H23 C19 0.930 . S
C24 N25 1.314 . S
C24 C26 1.353 . S
C24 H30 0.930 . S
N25 Li1 1.990 . S
N25 C24 1.314 . S
N25 C28 1.279 . S
C26 C24 1.353 . S
C26 C29 1.348 . S
C26 H74 0.929 . S
C27 C28 1.358 . S
C27 C29 1.356 . S
C27 H75 0.930 . S
C28 N25 1.279 . S
C28 C27 1.358 . S
C28 H31 0.930 . S
C29 C26 1.348 . S
C29 C27 1.356 . S
H30 C24 0.930 . S
H31 C28 0.930 . S
C32 C34 1.348 1_454 S
C32 C35 1.356 . S
C32 O62 1.325 . S
N33 C36 1.314 . S
N33 C37 1.279 . S
C34 C32 1.348 1_656 S
C34 C36 1.353 1_655 S
C34 H76 0.929 . S
C35 C32 1.356 . S
C35 C37 1.358 1_554 S
C35 H77 0.930 . S
C36 N33 1.314 . S
C36 C34 1.353 1_455 S
C36 H78 0.930 1_455 S
C37 N33 1.279 . S
C37 C35 1.358 1_556 S
C37 H79 0.930 . S
C38 C39 1.348 . S
C38 C40 1.356 . S
C38 O63 1.325 . S
C39 C38 1.348 . S
C39 C41 1.353 . S
C39 H80 0.929 . S
C40 C38 1.356 . S
C40 C42 1.358 . S
C40 H81 0.930 . S
C41 C39 1.353 . S
C41 N43 1.314 . S
C41 H82 0.930 . S
C42 C40 1.358 . S
C42 N43 1.279 . S
C42 H83 0.930 . S
N43 C41 1.314 . S
N43 C42 1.279 . S
C44 C46 1.353 . S
C44 N47 1.314 . S
C44 H50 0.930 . S
C45 N47 1.279 . S
C45 C48 1.358 . S
C45 H51 0.930 . S
C46 C44 1.353 . S
C46 C49 1.348 . S
C46 H84 0.929 . S
N47 Li2 1.990 . S
N47 C44 1.314 . S
N47 C45 1.279 . S
C48 C45 1.358 . S
C48 C49 1.356 . S
C48 H85 0.930 . S
C49 C46 1.348 . S
C49 C48 1.356 . S
H50 C44 0.930 . S
H51 C45 0.930 . S
C52 N53 1.314 1_556 S
C52 C54 1.353 . S
C52 H58 0.930 . S
N53 Li3 1.990 . S
N53 C52 1.314 1_554 S
N53 C56 1.279 . S
C54 C52 1.353 . S
C54 C57 1.348 . S
C54 H86 0.929 . S
C55 C56 1.358 1_556 S
C55 C57 1.356 . S
C55 H87 0.930 1_556 S
C56 N53 1.279 . S
C56 C55 1.358 1_554 S
C56 H59 0.930 . S
C57 C54 1.348 . S
C57 C55 1.356 . S
H58 C52 0.930 . S
H59 C56 0.930 . S
O60 Li0 1.956 . S
O60 Li1 1.970 1_455 S
O60 Li2 1.961 1_545 S
O60 C4 1.325 . S
O61 Li0 1.970 1_655 S
O61 Li1 1.956 . S
O61 Li3 1.961 1_545 S
O61 C10 1.325 . S
O62 Li0 1.961 1_565 S
O62 Li2 1.956 . S
O62 Li3 1.970 1_455 S
O62 C32 1.325 . S
O63 Li1 1.961 1_565 S
O63 Li2 1.970 1_655 S
O63 Li3 1.956 . S
O63 C38 1.325 . S
H64 C6 0.929 . S
H65 C7 0.930 . S
H66 C8 0.930 . S
H67 C9 0.930 . S
H68 C11 0.930 . S
H69 C13 0.929 . S
H70 C14 0.930 . S
H71 C15 0.930 1_455 S
H72 C18 0.930 1_554 S
H73 C21 0.929 . S
H74 C26 0.929 . S
H75 C27 0.930 . S
H76 C34 0.929 . S
H77 C35 0.930 . S
H78 C36 0.930 1_655 S
H79 C37 0.930 . S
H80 C39 0.929 . S
H81 C40 0.930 . S
H82 C41 0.930 . S
H83 C42 0.930 . S
H84 C46 0.929 . S
H85 C48 0.930 . S
H86 C54 0.929 . S
H87 C55 0.930 1_554 S
Li88 N105 1.990 . S
Li88 O148 1.956 . S
Li88 O149 1.970 1_665 S
Li88 O150 1.961 . S
Li89 N113 1.990 . S
Li89 O148 1.970 1_445 S
Li89 O149 1.956 . S
Li89 O151 1.961 . S
Li90 N135 1.990 . S
Li90 O148 1.961 . S
Li90 O150 1.956 . S
Li90 O151 1.970 1_665 S
Li91 N141 1.990 . S
Li91 O149 1.961 . S
Li91 O150 1.970 1_445 S
Li91 O151 1.956 . S
C92 C94 1.348 1_655 S
C92 C95 1.356 . S
C92 O148 1.325 . S
N93 C96 1.314 . S
N93 C97 1.279 . S
C94 C92 1.348 1_455 S
C94 C96 1.353 1_455 S
C94 H152 0.929 . S
C95 C92 1.356 . S
C95 C97 1.358 . S
C95 H153 0.930 . S
C96 N93 1.314 . S
C96 C94 1.353 1_655 S
C96 H154 0.930 1_655 S
C97 N93 1.279 . S
C97 C95 1.358 . S
C97 H155 0.930 . S
C98 C101 1.348 1_545 S
C98 C102 1.356 . S
C98 O149 1.325 . S
C99 N100 1.279 . S
C99 C102 1.358 . S
C99 H156 0.930 . S
N100 C99 1.279 . S
N100 C103 1.314 . S
C101 C98 1.348 1_565 S
C101 C103 1.353 1_565 S
C101 H157 0.929 . S
C102 C98 1.356 . S
C102 C99 1.358 . S
C102 H158 0.930 . S
C103 N100 1.314 . S
C103 C101 1.353 1_545 S
C103 H159 0.930 1_545 S
C104 N105 1.314 . S
C104 C109 1.353 . S
C104 H110 0.930 . S
N105 Li88 1.990 . S
N105 C104 1.314 . S
N105 C107 1.279 . S
C106 C107 1.358 . S
C106 C108 1.356 . S
C106 H160 0.930 . S
C107 N105 1.279 . S
C107 C106 1.358 . S
C107 H111 0.930 . S
C108 C106 1.356 . S
C108 C109 1.348 . S
C109 C104 1.353 . S
C109 C108 1.348 . S
C109 H161 0.929 . S
H110 C104 0.930 . S
H111 C107 0.930 . S
C112 N113 1.314 . S
C112 C114 1.353 . S
C112 H118 0.930 . S
N113 Li89 1.990 . S
N113 C112 1.314 . S
N113 C116 1.279 . S
C114 C112 1.353 . S
C114 C117 1.348 . S
C114 H162 0.929 . S
C115 C116 1.358 . S
C115 C117 1.356 . S
C115 H163 0.930 . S
C116 N113 1.279 . S
C116 C115 1.358 . S
C116 H119 0.930 . S
C117 C114 1.348 . S
C117 C115 1.356 . S
H118 C112 0.930 . S
H119 C116 0.930 . S
C120 C122 1.348 1_565 S
C120 C123 1.356 . S
C120 O150 1.325 . S
N121 C124 1.314 . S
N121 C125 1.279 . S
C122 C120 1.348 1_545 S
C122 C124 1.353 1_545 S
C122 H164 0.929 . S
C123 C120 1.356 . S
C123 C125 1.358 . S
C123 H165 0.930 . S
C124 N121 1.314 . S
C124 C122 1.353 1_565 S
C124 H166 0.930 1_565 S
C125 N121 1.279 . S
C125 C123 1.358 . S
C125 H167 0.930 . S
C126 C127 1.348 1_455 S
C126 C128 1.356 . S
C126 O151 1.325 . S
C127 C126 1.348 1_655 S
C127 C129 1.353 1_655 S
C127 H168 0.929 . S
C128 C126 1.356 . S
C128 C130 1.358 . S
C128 H169 0.930 . S
C129 C127 1.353 1_455 S
C129 N131 1.314 . S
C129 H170 0.930 1_455 S
C130 C128 1.358 . S
C130 N131 1.279 . S
C130 H171 0.930 . S
N131 C129 1.314 . S
N131 C130 1.279 . S
C132 C134 1.353 . S
C132 N135 1.314 . S
C132 H138 0.930 . S
C133 N135 1.279 . S
C133 C136 1.358 . S
C133 H139 0.930 . S
C134 C132 1.353 . S
C134 C137 1.348 . S
C134 H172 0.929 . S
N135 Li90 1.990 . S
N135 C132 1.314 . S
N135 C133 1.279 . S
C136 C133 1.358 . S
C136 C137 1.356 . S
C136 H173 0.930 . S
C137 C134 1.348 . S
C137 C136 1.356 . S
H138 C132 0.930 . S
H139 C133 0.930 . S
C140 N141 1.314 . S
C140 C142 1.353 . S
C140 H146 0.930 . S
N141 Li91 1.990 . S
N141 C140 1.314 . S
N141 C144 1.279 . S
C142 C140 1.353 . S
C142 C145 1.348 . S
C142 H174 0.929 . S
C143 C144 1.358 . S
C143 C145 1.356 . S
C143 H175 0.930 . S
C144 N141 1.279 . S
C144 C143 1.358 . S
C144 H147 0.930 . S
C145 C142 1.348 . S
C145 C143 1.356 . S
H146 C140 0.930 . S
H147 C144 0.930 . S
O148 Li88 1.956 . S
O148 Li89 1.970 1_665 S
O148 Li90 1.961 . S
O148 C92 1.325 . S
O149 Li88 1.970 1_445 S
O149 Li89 1.956 . S
O149 Li91 1.961 . S
O149 C98 1.325 . S
O150 Li88 1.961 . S
O150 Li90 1.956 . S
O150 Li91 1.970 1_665 S
O150 C120 1.325 . S
O151 Li89 1.961 . S
O151 Li90 1.970 1_445 S
O151 Li91 1.956 . S
O151 C126 1.325 . S
H152 C94 0.929 . S
H153 C95 0.930 . S
H154 C96 0.930 1_455 S
H155 C97 0.930 . S
H156 C99 0.930 . S
H157 C101 0.929 . S
H158 C102 0.930 . S
H159 C103 0.930 1_565 S
H160 C106 0.930 . S
H161 C109 0.929 . S
H162 C114 0.929 . S
H163 C115 0.930 . S
H164 C122 0.929 . S
H165 C123 0.930 . S
H166 C124 0.930 1_545 S
H167 C125 0.930 . S
H168 C127 0.929 . S
H169 C128 0.930 . S
H170 C129 0.930 1_655 S
H171 C130 0.930 . S
H172 C134 0.929 . S
H173 C136 0.930 . S
H174 C142 0.929 . S
H175 C143 0.930 . S
Li176 N193 1.990 . S
Li176 O236 1.956 . S
Li176 O237 1.970 1_565 S
Li176 O238 1.961 1_455 S
Li177 N201 1.990 . S
Li177 O236 1.970 1_545 S
Li177 O237 1.956 . S
Li177 O239 1.961 1_455 S
Li178 N223 1.990 . S
Li178 O236 1.961 1_655 S
Li178 O238 1.956 . S
Li178 O239 1.970 1_565 S
Li179 N229 1.990 . S
Li179 O237 1.961 1_655 S
Li179 O238 1.970 1_545 S
Li179 O239 1.956 . S
C180 C182 1.348 1_565 S
C180 C183 1.356 . S
C180 O236 1.325 . S
N181 C184 1.314 . S
N181 C185 1.279 . S
C182 C180 1.348 1_545 S
C182 C184 1.353 1_545 S
C182 H240 0.929 . S
C183 C180 1.356 . S
C183 C185 1.358 . S
C183 H241 0.930 . S
C184 N181 1.314 . S
C184 C182 1.353 1_565 S
C184 H242 0.930 1_565 S
C185 N181 1.279 . S
C185 C183 1.358 . S
C185 H243 0.930 . S
C186 C189 1.348 . S
C186 C190 1.356 . S
C186 O237 1.325 . S
C187 N188 1.279 . S
C187 C190 1.358 . S
C187 H244 0.930 . S
N188 C187 1.279 . S
N188 C191 1.314 . S
C189 C186 1.348 . S
C189 C191 1.353 . S
C189 H245 0.929 . S
C190 C186 1.356 . S
C190 C187 1.358 . S
C190 H246 0.930 . S
C191 N188 1.314 . S
C191 C189 1.353 . S
C191 H247 0.930 . S
C192 N193 1.314 . S
C192 C197 1.353 . S
C192 H198 0.930 . S
N193 Li176 1.990 . S
N193 C192 1.314 . S
N193 C195 1.279 . S
C194 C195 1.358 . S
C194 C196 1.356 . S
C194 H248 0.930 . S
C195 N193 1.279 . S
C195 C194 1.358 . S
C195 H199 0.930 . S
C196 C194 1.356 . S
C196 C197 1.348 . S
C197 C192 1.353 . S
C197 C196 1.348 . S
C197 H249 0.929 . S
H198 C192 0.930 . S
H199 C195 0.930 . S
C200 N201 1.314 . S
C200 C202 1.353 . S
C200 H206 0.930 . S
N201 Li177 1.990 . S
N201 C200 1.314 . S
N201 C204 1.279 . S
C202 C200 1.353 . S
C202 C205 1.348 . S
C202 H250 0.929 . S
C203 C204 1.358 . S
C203 C205 1.356 . S
C203 H251 0.930 . S
C204 N201 1.279 . S
C204 C203 1.358 . S
C204 H207 0.930 . S
C205 C202 1.348 . S
C205 C203 1.356 . S
H206 C200 0.930 . S
H207 C204 0.930 . S
C208 C210 1.348 . S
C208 C211 1.356 . S
C208 O238 1.325 . S
N209 C212 1.314 . S
N209 C213 1.279 . S
C210 C208 1.348 . S
C210 C212 1.353 . S
C210 H252 0.929 . S
C211 C208 1.356 . S
C211 C213 1.358 . S
C211 H253 0.930 . S
C212 N209 1.314 . S
C212 C210 1.353 . S
C212 H254 0.930 . S
C213 N209 1.279 . S
C213 C211 1.358 . S
C213 H255 0.930 . S
C214 C215 1.348 1_545 S
C214 C216 1.356 . S
C214 O239 1.325 . S
C215 C214 1.348 1_565 S
C215 C217 1.353 1_565 S
C215 H256 0.929 . S
C216 C214 1.356 . S
C216 C218 1.358 . S
C216 H257 0.930 . S
C217 C215 1.353 1_545 S
C217 N219 1.314 . S
C217 H258 0.930 1_545 S
C218 C216 1.358 . S
C218 N219 1.279 . S
C218 H259 0.930 . S
N219 C217 1.314 . S
N219 C218 1.279 . S
C220 C222 1.353 . S
C220 N223 1.314 . S
C220 H226 0.930 . S
C221 N223 1.279 . S
C221 C224 1.358 . S
C221 H227 0.930 . S
C222 C220 1.353 . S
C222 C225 1.348 . S
C222 H260 0.929 . S
N223 Li178 1.990 . S
N223 C220 1.314 . S
N223 C221 1.279 . S
C224 C221 1.358 . S
C224 C225 1.356 . S
C224 H261 0.930 . S
C225 C222 1.348 . S
C225 C224 1.356 . S
H226 C220 0.930 . S
H227 C221 0.930 . S
C228 N229 1.314 . S
C228 C230 1.353 . S
C228 H234 0.930 . S
N229 Li179 1.990 . S
N229 C228 1.314 . S
N229 C232 1.279 . S
C230 C228 1.353 . S
C230 C233 1.348 . S
C230 H262 0.929 . S
C231 C232 1.358 . S
C231 C233 1.356 . S
C231 H263 0.930 . S
C232 N229 1.279 . S
C232 C231 1.358 . S
C232 H235 0.930 . S
C233 C230 1.348 . S
C233 C231 1.356 . S
H234 C228 0.930 . S
H235 C232 0.930 . S
O236 Li176 1.956 . S
O236 Li177 1.970 1_565 S
O236 Li178 1.961 1_455 S
O236 C180 1.325 . S
O237 Li176 1.970 1_545 S
O237 Li177 1.956 . S
O237 Li179 1.961 1_455 S
O237 C186 1.325 . S
O238 Li176 1.961 1_655 S
O238 Li178 1.956 . S
O238 Li179 1.970 1_565 S
O238 C208 1.325 . S
O239 Li177 1.961 1_655 S
O239 Li178 1.970 1_545 S
O239 Li179 1.956 . S
O239 C214 1.325 . S
H240 C182 0.929 . S
H241 C183 0.930 . S
H242 C184 0.930 1_545 S
H243 C185 0.930 . S
H244 C187 0.930 . S
H245 C189 0.929 . S
H246 C190 0.930 . S
H247 C191 0.930 . S
H248 C194 0.930 . S
H249 C197 0.929 . S
H250 C202 0.929 . S
H251 C203 0.930 . S
H252 C210 0.929 . S
H253 C211 0.930 . S
H254 C212 0.930 . S
H255 C213 0.930 . S
H256 C215 0.929 . S
H257 C216 0.930 . S
H258 C217 0.930 1_565 S
H259 C218 0.930 . S
H260 C222 0.929 . S
H261 C224 0.930 . S
H262 C230 0.929 . S
H263 C231 0.930 . S
H264 C283 0.949 . S
H265 C284 0.950 . S
H266 C286 0.950 . S
H267 C287 0.950 . S
H268 C289 0.950 . S
H269 C292 0.950 . S
H270 C293 0.950 . S
H271 C295 0.951 . S
H272 C296 0.949 . S
H273 C298 0.949 . S
H274 C299 0.950 . S
H275 C301 0.950 . S
H276 C302 0.950 . S
H277 C304 0.950 . S
H278 C307 0.950 . S
H279 C308 0.950 . S
H280 C310 0.951 . S
H281 C311 0.949 . S
C282 C283 1.376 . S
C282 C287 1.386 1_455 S
C282 C288 1.483 . S
C283 H264 0.949 . S
C283 C282 1.376 . S
C283 C284 1.397 . S
C284 H265 0.950 . S
C284 C283 1.397 . S
C284 C285 1.391 . S
C285 C284 1.391 . S
C285 C286 1.405 1_455 S
C286 H266 0.950 . S
C286 C285 1.405 1_655 S
C286 C287 1.367 . S
C287 H267 0.950 . S
C287 C282 1.386 1_655 S
C287 C286 1.367 . S
C288 C282 1.483 . S
C288 C289 1.382 . S
C288 C290 1.403 1_455 S
C289 H268 0.950 . S
C289 C288 1.382 . S
C289 C305 1.411 . S
C290 C288 1.403 1_655 S
C290 C291 1.489 . S
C290 C304 1.411 . S
C291 C290 1.489 . S
C291 C292 1.383 1_655 S
C291 C296 1.382 . S
C292 H269 0.950 . S
C292 C291 1.383 1_455 S
C292 C293 1.395 . S
C293 H270 0.950 . S
C293 C292 1.395 . S
C293 C294 1.288 1_455 S
C294 C293 1.288 1_655 S
C294 C295 1.392 . S
C295 H271 0.951 . S
C295 C294 1.392 . S
C295 C296 1.392 . S
C296 H272 0.949 . S
C296 C291 1.382 . S
C296 C295 1.392 . S
C297 C298 1.376 . S
C297 C302 1.386 1_655 S
C297 C303 1.483 . S
C298 H273 0.949 . S
C298 C297 1.376 . S
C298 C299 1.397 . S
C299 H274 0.950 . S
C299 C298 1.397 . S
C299 C300 1.391 . S
C300 C299 1.391 . S
C300 C301 1.405 1_655 S
C301 H275 0.950 . S
C301 C300 1.405 1_455 S
C301 C302 1.367 . S
C302 H276 0.950 . S
C302 C297 1.386 1_455 S
C302 C301 1.367 . S
C303 C297 1.483 . S
C303 C304 1.382 . S
C303 C305 1.403 1_655 S
C304 H277 0.950 . S
C304 C290 1.411 . S
C304 C303 1.382 . S
C305 C289 1.411 . S
C305 C303 1.403 1_455 S
C305 C306 1.489 . S
C306 C305 1.489 . S
C306 C307 1.383 1_455 S
C306 C311 1.382 . S
C307 H278 0.950 . S
C307 C306 1.383 1_655 S
C307 C308 1.395 . S
C308 H279 0.950 . S
C308 C307 1.395 . S
C308 C309 1.288 1_655 S
C309 C308 1.288 1_455 S
C309 C310 1.392 . S
C310 H280 0.951 . S
C310 C309 1.392 . S
C310 C311 1.392 . S
C311 H281 0.949 . S
C311 C306 1.382 . S
C311 C310 1.392 . S
H312 C331 0.949 . S
H313 C332 0.950 . S
H314 C334 0.950 . S
H315 C335 0.950 . S
H316 C337 0.950 . S
H317 C340 0.950 . S
H318 C341 0.950 . S
H319 C343 0.951 . S
H320 C344 0.949 . S
H321 C346 0.949 . S
H322 C347 0.950 . S
H323 C349 0.950 . S
H324 C350 0.950 . S
H325 C352 0.950 . S
H326 C355 0.950 . S
H327 C356 0.950 . S
H328 C358 0.951 . S
H329 C359 0.949 . S
C330 C331 1.376 . S
C330 C335 1.386 1_545 S
C330 C336 1.483 . S
C331 H312 0.949 . S
C331 C330 1.376 . S
C331 C332 1.397 . S
C332 H313 0.950 . S
C332 C331 1.397 . S
C332 C333 1.391 . S
C333 C332 1.391 . S
C333 C334 1.405 1_545 S
C334 H314 0.950 . S
C334 C333 1.405 1_565 S
C334 C335 1.367 . S
C335 H315 0.950 . S
C335 C330 1.386 1_565 S
C335 C334 1.367 . S
C336 C330 1.483 . S
C336 C337 1.382 . S
C336 C338 1.403 1_545 S
C337 H316 0.950 . S
C337 C336 1.382 . S
C337 C353 1.411 . S
C338 C336 1.403 1_565 S
C338 C339 1.489 . S
C338 C352 1.411 . S
C339 C338 1.489 . S
C339 C340 1.383 1_565 S
C339 C344 1.382 . S
C340 H317 0.950 . S
C340 C339 1.383 1_545 S
C340 C341 1.395 . S
C341 H318 0.950 . S
C341 C340 1.395 . S
C341 C342 1.288 1_545 S
C342 C341 1.288 1_565 S
C342 C343 1.392 . S
C343 H319 0.951 . S
C343 C342 1.392 . S
C343 C344 1.392 . S
C344 H320 0.949 . S
C344 C339 1.382 . S
C344 C343 1.392 . S
C345 C346 1.376 . S
C345 C350 1.386 1_565 S
C345 C351 1.483 . S
C346 H321 0.949 . S
C346 C345 1.376 . S
C346 C347 1.397 . S
C347 H322 0.950 . S
C347 C346 1.397 . S
C347 C348 1.391 . S
C348 C347 1.391 . S
C348 C349 1.405 1_565 S
C349 H323 0.950 . S
C349 C348 1.405 1_545 S
C349 C350 1.367 . S
C350 H324 0.950 . S
C350 C345 1.386 1_545 S
C350 C349 1.367 . S
C351 C345 1.483 . S
C351 C352 1.382 . S
C351 C353 1.403 1_565 S
C352 H325 0.950 . S
C352 C338 1.411 . S
C352 C351 1.382 . S
C353 C337 1.411 . S
C353 C351 1.403 1_545 S
C353 C354 1.489 . S
C354 C353 1.489 . S
C354 C355 1.383 1_545 S
C354 C359 1.382 . S
C355 H326 0.950 . S
C355 C354 1.383 1_565 S
C355 C356 1.395 . S
C356 H327 0.950 . S
C356 C355 1.395 . S
C356 C357 1.288 1_565 S
C357 C356 1.288 1_545 S
C357 C358 1.392 . S
C358 H328 0.951 . S
C358 C357 1.392 . S
C358 C359 1.392 . S
C359 H329 0.949 . S
C359 C354 1.382 . S
C359 C358 1.392 . S
H360 C379 0.949 . S
H361 C380 0.950 . S
H362 C382 0.950 . S
H363 C383 0.950 . S
H364 C385 0.950 . S
H365 C388 0.950 . S
H366 C389 0.950 . S
H367 C391 0.951 . S
H368 C392 0.949 . S
H369 C394 0.949 . S
H370 C395 0.950 . S
H371 C397 0.950 . S
H372 C398 0.950 . S
H373 C400 0.950 . S
H374 C403 0.950 . S
H375 C404 0.950 . S
H376 C406 0.951 . S
H377 C407 0.949 . S
C378 C379 1.376 . S
C378 C383 1.386 . S
C378 C384 1.483 . S
C379 H360 0.949 . S
C379 C378 1.376 . S
C379 C380 1.397 . S
C380 H361 0.950 . S
C380 C379 1.397 . S
C380 C381 1.391 . S
C381 C380 1.391 . S
C381 C382 1.405 . S
C382 H362 0.950 . S
C382 C381 1.405 . S
C382 C383 1.367 . S
C383 H363 0.950 . S
C383 C378 1.386 . S
C383 C382 1.367 . S
C384 C378 1.483 . S
C384 C385 1.382 . S
C384 C386 1.403 . S
C385 H364 0.950 . S
C385 C384 1.382 . S
C385 C401 1.411 . S
C386 C384 1.403 . S
C386 C387 1.489 . S
C386 C400 1.411 . S
C387 C386 1.489 . S
C387 C388 1.383 . S
C387 C392 1.382 . S
C388 H365 0.950 . S
C388 C387 1.383 . S
C388 C389 1.395 . S
C389 H366 0.950 . S
C389 C388 1.395 . S
C389 C390 1.288 . S
C390 C389 1.288 . S
C390 C391 1.392 . S
C391 H367 0.951 . S
C391 C390 1.392 . S
C391 C392 1.392 . S
C392 H368 0.949 . S
C392 C387 1.382 . S
C392 C391 1.392 . S
C393 C394 1.376 . S
C393 C398 1.386 . S
C393 C399 1.483 . S
C394 H369 0.949 . S
C394 C393 1.376 . S
C394 C395 1.397 . S
C395 H370 0.950 . S
C395 C394 1.397 . S
C395 C396 1.391 . S
C396 C395 1.391 . S
C396 C397 1.405 . S
C397 H371 0.950 . S
C397 C396 1.405 . S
C397 C398 1.367 . S
C398 H372 0.950 . S
C398 C393 1.386 . S
C398 C397 1.367 . S
C399 C393 1.483 . S
C399 C400 1.382 . S
C399 C401 1.403 . S
C400 H373 0.950 . S
C400 C386 1.411 . S
C400 C399 1.382 . S
C401 C385 1.411 . S
C401 C399 1.403 . S
C401 C402 1.489 . S
C402 C401 1.489 . S
C402 C403 1.383 . S
C402 C407 1.382 . S
C403 H374 0.950 . S
C403 C402 1.383 . S
C403 C404 1.395 . S
C404 H375 0.950 . S
C404 C403 1.395 . S
C404 C405 1.288 . S
C405 C404 1.288 . S
C405 C406 1.392 . S
C406 H376 0.951 . S
C406 C405 1.392 . S
C406 C407 1.392 . S
C407 H377 0.949 . S
C407 C402 1.382 . S
C407 C406 1.392 . S
C285 C29 2.018 1_455 S
C137 C333 2.019 1_565 S
C225 C405 1.890 . S
C49 C309 1.890 . S
C357 C117 1.890 . S
C205 C381 2.019 . S
C342 C233 2.059 1_565 S
C57 C396 1.960 . S
C300 C108 1.958 . S
C348 C196 1.959 . S
C390 C20 2.057 . S
C145 C294 2.059 1_455 S
