# Generated by pormake.
# Topology cml, (3,6)-cn, num edge types: 1
# Building blocks:
#     Node 0, Type 0, BuildingBlock: CUQRIR_clean_linker_1, # of connection points: 3
#     Node 1, Type 0, BuildingBlock: CUQRIR_clean_linker_1, # of connection points: 3
#     Node 2, Type 0, BuildingBlock: CUQRIR_clean_linker_1, # of connection points: 3
#     Node 3, Type 0, BuildingBlock: CUQRIR_clean_linker_1, # of connection points: 3
#     Node 4, Type 0, BuildingBlock: CUQRIR_clean_linker_1, # of connection points: 3
#     Node 5, Type 0, BuildingBlock: CUQRIR_clean_linker_1, # of connection points: 3
#     Node 6, Type 0, BuildingBlock: CUQRIR_clean_linker_1, # of connection points: 3
#     Node 7, Type 0, BuildingBlock: CUQRIR_clean_linker_1, # of connection points: 3
#     Node 8, Type 1, BuildingBlock: IZENUY_clean_sbu_0, # of connection points: 6
#     Node 9, Type 1, BuildingBlock: IZENUY_clean_sbu_0, # of connection points: 6
#     Node 10, Type 1, BuildingBlock: IZENUY_clean_sbu_0, # of connection points: 6
#     Node 11, Type 1, BuildingBlock: IZENUY_clean_sbu_0, # of connection points: 6
#     Edge 12, Type (0, 1), BuildingBlock: UVAHIK_clean_linker_0, # of connection points: 2
#     Edge 13, Type (0, 1), BuildingBlock: UVAHIK_clean_linker_0, # of connection points: 2
#     Edge 14, Type (0, 1), BuildingBlock: UVAHIK_clean_linker_0, # of connection points: 2
#     Edge 15, Type (0, 1), BuildingBlock: UVAHIK_clean_linker_0, # of connection points: 2
#     Edge 16, Type (0, 1), BuildingBlock: UVAHIK_clean_linker_0, # of connection points: 2
#     Edge 17, Type (0, 1), BuildingBlock: UVAHIK_clean_linker_0, # of connection points: 2
#     Edge 18, Type (0, 1), BuildingBlock: UVAHIK_clean_linker_0, # of connection points: 2
#     Edge 19, Type (0, 1), BuildingBlock: UVAHIK_clean_linker_0, # of connection points: 2
#     Edge 20, Type (0, 1), BuildingBlock: UVAHIK_clean_linker_0, # of connection points: 2
#     Edge 21, Type (0, 1), BuildingBlock: UVAHIK_clean_linker_0, # of connection points: 2
#     Edge 22, Type (0, 1), BuildingBlock: UVAHIK_clean_linker_0, # of connection points: 2
#     Edge 23, Type (0, 1), BuildingBlock: UVAHIK_clean_linker_0, # of connection points: 2
#     Edge 24, Type (0, 1), BuildingBlock: UVAHIK_clean_linker_0, # of connection points: 2
#     Edge 25, Type (0, 1), BuildingBlock: UVAHIK_clean_linker_0, # of connection points: 2
#     Edge 26, Type (0, 1), BuildingBlock: UVAHIK_clean_linker_0, # of connection points: 2
#     Edge 27, Type (0, 1), BuildingBlock: UVAHIK_clean_linker_0, # of connection points: 2
#     Edge 28, Type (0, 1), BuildingBlock: UVAHIK_clean_linker_0, # of connection points: 2
#     Edge 29, Type (0, 1), BuildingBlock: UVAHIK_clean_linker_0, # of connection points: 2
#     Edge 30, Type (0, 1), BuildingBlock: UVAHIK_clean_linker_0, # of connection points: 2
#     Edge 31, Type (0, 1), BuildingBlock: UVAHIK_clean_linker_0, # of connection points: 2
#     Edge 32, Type (0, 1), BuildingBlock: UVAHIK_clean_linker_0, # of connection points: 2
#     Edge 33, Type (0, 1), BuildingBlock: UVAHIK_clean_linker_0, # of connection points: 2
#     Edge 34, Type (0, 1), BuildingBlock: UVAHIK_clean_linker_0, # of connection points: 2
#     Edge 35, Type (0, 1), BuildingBlock: UVAHIK_clean_linker_0, # of connection points: 2
# Relax obj value: 0.001
# Max RMSD: 0.079
# Mean RMSD: 0.058
data_MOF--net-cml--node1-IZENUY_clean_sbu_0--node2-CUQRIR_clean_linker_1--edge1-UVAHIK_clean_linker_0
_symmetry_space_group_name_H-M    P1
_symmetry_Int_Tables_number       1
_symmetry_cell_setting            triclinic
loop_
_symmetry_equiv_pos_as_xyz
'x, y, z'
_cell_length_a     45.70851
_cell_length_b     50.883244
_cell_length_c     43.571565
_cell_angle_alpha  89.988867
_cell_angle_beta   90.010539
_cell_angle_gamma 89.901389
loop_
_atom_site_label
_atom_site_type_symbol
_atom_site_fract_x
_atom_site_fract_y
_atom_site_fract_z
_atom_type_partial_charge
C0 C 0.2616 0.34655 0.02611 0.0
N1 N 0.28059 0.36684 0.02876 0.0
N2 N 0.24713 0.34782 0.99903 0.0
C3 C 0.25599 0.32627 0.05051 0.0
C4 C 0.25792 0.36961 0.9853 0.0
N5 N 0.27811 0.3813 1.00347 0.0
C6 C 0.25079 0.37796 0.95299 0.0
H7 H 0.27132 0.30958 0.04723 0.0
H8 H 0.23331 0.31866 0.04892 0.0
H9 H 0.25962 0.33462 0.07372 0.0
H10 H 0.23311 0.39291 0.95372 0.0
H11 H 0.24313 0.36108 0.93903 0.0
H12 H 0.27014 0.38683 0.94169 0.0
C13 C 0.74628 0.65638 0.52899 0.0
N14 N 0.72656 0.63662 0.53094 0.0
N15 N 0.75767 0.65783 0.50032 0.0
C16 C 0.75567 0.67319 0.55562 0.0
C17 C 0.74415 0.63816 0.4849 0.0
N18 N 0.72548 0.62506 0.5036 0.0
C19 C 0.74646 0.63384 0.45078 0.0
H20 H 0.74143 0.69084 0.55679 0.0
H21 H 0.77868 0.67969 0.55283 0.0
H22 H 0.75349 0.66228 0.57756 0.0
H23 H 0.76427 0.61954 0.44613 0.0
H24 H 0.75162 0.65246 0.43869 0.0
H25 H 0.72578 0.62584 0.44132 0.0
C26 C 0.73733 0.34054 0.02673 0.0
N27 N 0.71866 0.36104 0.03026 0.0
N28 N 0.75241 0.34282 1.00019 0.0
C29 C 0.74245 0.31921 0.05006 0.0
C30 C 0.7425 0.36547 0.98767 0.0
N31 N 0.72208 0.37673 0.00606 0.0
C32 C 0.75101 0.37529 0.95635 0.0
H33 H 0.76504 0.31133 0.04829 0.0
H34 H 0.72697 0.30287 0.04569 0.0
H35 H 0.73881 0.32664 0.07369 0.0
H36 H 0.73226 0.38514 0.94493 0.0
H37 H 0.75885 0.35897 0.9416 0.0
H38 H 0.769 0.38975 0.95881 0.0
C39 C 0.25631 0.65817 0.53418 0.0
N40 N 0.27694 0.63908 0.53536 0.0
N41 N 0.24506 0.66012 0.50549 0.0
C42 C 0.24808 0.67566 0.56066 0.0
C43 C 0.2597 0.64158 0.48924 0.0
N44 N 0.27926 0.62894 0.50739 0.0
C45 C 0.25462 0.63596 0.45573 0.0
H46 H 0.24827 0.66461 0.58256 0.0
H47 H 0.22608 0.68442 0.5573 0.0
H48 H 0.26439 0.69172 0.5625 0.0
H49 H 0.25201 0.65464 0.44286 0.0
H50 H 0.23404 0.62464 0.45326 0.0
H51 H 0.27247 0.62427 0.44532 0.0
C52 C 0.75853 0.85014 0.02851 0.0
N53 N 0.77722 0.87066 0.03093 0.0
N54 N 0.74317 0.85166 1.00196 0.0
C55 C 0.75654 0.82785 0.05113 0.0
C56 C 0.75306 0.87392 0.98847 0.0
N57 N 0.77358 0.88558 0.0062 0.0
C58 C 0.74428 0.88322 0.957 0.0
H59 H 0.77219 0.81223 0.04424 0.0
H60 H 0.73437 0.81915 0.05154 0.0
H61 H 0.76225 0.83456 0.0746 0.0
H62 H 0.74131 0.90484 0.95682 0.0
H63 H 0.72367 0.87385 0.94927 0.0
H64 H 0.76199 0.87834 0.94053 0.0
C65 C 0.24502 0.15543 0.52852 0.0
N66 N 0.22649 0.1348 0.53111 0.0
N67 N 0.2602 0.15397 0.50185 0.0
C68 C 0.24696 0.17778 0.55105 0.0
C69 C 0.25036 0.13164 0.48848 0.0
N70 N 0.23005 0.11988 0.50638 0.0
C71 C 0.25899 0.12234 0.45697 0.0
H72 H 0.23123 0.19332 0.54416 0.0
H73 H 0.26909 0.18657 0.55139 0.0
H74 H 0.24137 0.17109 0.57457 0.0
H75 H 0.26186 0.10072 0.45673 0.0
H76 H 0.27962 0.13166 0.44919 0.0
H77 H 0.24125 0.12733 0.44057 0.0
C78 C 0.24862 0.84846 0.03071 0.0
N79 N 0.22778 0.8673 0.0329 0.0
N80 N 0.25855 0.84656 1.00149 0.0
C81 C 0.2579 0.83082 0.05668 0.0
C82 C 0.24288 0.86487 0.98595 0.0
N83 N 0.22397 0.8773 0.00502 0.0
C84 C 0.24493 0.86969 0.95192 0.0
H85 H 0.26175 0.84248 0.07777 0.0
H86 H 0.27815 0.81978 0.05109 0.0
H87 H 0.24004 0.81669 0.06161 0.0
H88 H 0.22878 0.85701 0.94005 0.0
H89 H 0.26689 0.86482 0.94285 0.0
H90 H 0.23985 0.89049 0.94644 0.0
C91 C 0.75569 0.15771 0.53093 0.0
N92 N 0.77657 0.13885 0.53247 0.0
N93 N 0.74538 0.16001 0.5019 0.0
C94 C 0.74671 0.17494 0.55737 0.0
C95 C 0.76086 0.14193 0.48579 0.0
N96 N 0.78003 0.12925 0.50436 0.0
C97 C 0.75833 0.13755 0.45173 0.0
H98 H 0.74315 0.16296 0.57827 0.0
H99 H 0.72637 0.18602 0.55228 0.0
H100 H 0.76459 0.18903 0.56234 0.0
H101 H 0.77446 0.15024 0.43983 0.0
H102 H 0.73631 0.14269 0.44302 0.0
H103 H 0.76315 0.11677 0.44584 0.0
Fe104 Fe 0.00125 0.8548 0.33029 0.0
Fe105 Fe 0.99929 0.88502 0.39136 0.0
O106 O 0.0007 0.88499 0.35068 0.0
Fe107 Fe 0.0018 0.91517 0.33031 0.0
O108 O 0.96811 0.90759 0.30998 0.0
O109 O 0.98102 0.86746 0.29706 0.0
O110 O 0.9664 0.84485 0.34632 0.0
C111 C 0.96081 0.84366 0.37463 0.0
C112 C 0.04096 0.88271 0.29669 0.0
O113 O 0.97666 0.85537 0.39415 0.0
C114 C 0.03902 0.92621 0.37779 0.0
O115 O 0.02148 0.83654 0.35979 0.0
O116 O 0.03308 0.86633 0.39412 0.0
O117 O 0.02432 0.90256 0.29868 0.0
O118 O 0.03625 0.86251 0.31274 0.0
C119 C 0.96247 0.92609 0.37936 0.0
O120 O 0.02157 0.91469 0.39589 0.0
O121 O 0.03557 0.92482 0.3491 0.0
C122 C 0.03743 0.84429 0.38171 0.0
O123 O 0.96552 0.90385 0.39174 0.0
O124 O 0.97962 0.93345 0.35823 0.0
C125 C 0.96461 0.88734 0.29364 0.0
Fe126 Fe 0.0037 0.12082 0.89157 0.0
Fe127 Fe 0.00254 0.09033 0.8307 0.0
O128 O 0.00299 0.12062 0.85085 0.0
Fe129 Fe 0.00262 0.15069 0.83029 0.0
O130 O 0.0371 0.1609 0.84721 0.0
O131 O 0.0254 0.15097 0.89471 0.0
O132 O 0.03785 0.10251 0.89262 0.0
C133 C 0.04134 0.0802 0.88047 0.0
C134 C 0.96492 0.16078 0.88062 0.0
O135 O 0.02451 0.07251 0.8592 0.0
C136 C 0.96382 0.12236 0.79591 0.0
O137 O 0.982 0.0908 0.8959 0.0
O138 O 0.96857 0.08052 0.84899 0.0
O139 O 0.98125 0.16873 0.85908 0.0
O140 O 0.9696 0.13901 0.89358 0.0
C141 C 0.04017 0.11824 0.79452 0.0
O142 O 0.9804 0.10253 0.79852 0.0
O143 O 0.96817 0.1427 0.81182 0.0
C144 C 0.96482 0.07915 0.87764 0.0
O145 O 0.03647 0.09801 0.81084 0.0
O146 O 0.02375 0.13813 0.79768 0.0
C147 C 0.0417 0.16273 0.87568 0.0
Fe148 Fe 0.49857 0.35489 0.33259 0.0
Fe149 Fe 0.49781 0.38534 0.39326 0.0
O150 O 0.49885 0.38521 0.35258 0.0
Fe151 Fe 0.50027 0.4153 0.33214 0.0
O152 O 0.46667 0.40803 0.31137 0.0
O153 O 0.47828 0.36738 0.29943 0.0
O154 O 0.46358 0.34583 0.34928 0.0
C155 C 0.45921 0.34394 0.37776 0.0
C156 C 0.53869 0.38203 0.29847 0.0
O157 O 0.47613 0.35516 0.39662 0.0
C158 C 0.53665 0.42707 0.37987 0.0
O159 O 0.5191 0.33686 0.36217 0.0
O160 O 0.53202 0.36716 0.39544 0.0
O161 O 0.52301 0.40248 0.3008 0.0
O162 O 0.53336 0.36182 0.31431 0.0
C163 C 0.46048 0.42588 0.38106 0.0
O164 O 0.51911 0.41553 0.39774 0.0
O165 O 0.53407 0.42489 0.35118 0.0
C166 C 0.53596 0.34493 0.38324 0.0
O167 O 0.46368 0.40366 0.39358 0.0
O168 O 0.47773 0.43341 0.36001 0.0
C169 C 0.46262 0.38762 0.29544 0.0
Fe170 Fe 0.50427 0.62162 0.89274 0.0
Fe171 Fe 0.5053 0.59011 0.83249 0.0
O172 O 0.50492 0.62067 0.85206 0.0
Fe173 Fe 0.505 0.65051 0.83107 0.0
O174 O 0.53923 0.66064 0.84858 0.0
O175 O 0.52542 0.65215 0.89581 0.0
O176 O 0.53858 0.60385 0.89544 0.0
C177 C 0.54336 0.58169 0.88341 0.0
C178 C 0.46586 0.6612 0.87997 0.0
O179 O 0.52749 0.57321 0.86168 0.0
C180 C 0.46671 0.62162 0.79666 0.0
O181 O 0.4832 0.59135 0.89728 0.0
O182 O 0.47126 0.57984 0.8504 0.0
O183 O 0.48326 0.66901 0.85928 0.0
O184 O 0.4697 0.63927 0.89284 0.0
C185 C 0.54314 0.61789 0.7963 0.0
O186 O 0.4832 0.60174 0.79991 0.0
O187 O 0.4709 0.64225 0.81214 0.0
C188 C 0.46691 0.57887 0.87897 0.0
O189 O 0.53935 0.59788 0.8129 0.0
O190 O 0.52655 0.6377 0.79891 0.0
C191 C 0.54276 0.66313 0.87715 0.0
C192 C 0.19881 0.33769 0.9771 0.0
C193 C 0.22659 0.3293 0.98663 0.0
C194 C 0.17907 0.31981 0.96433 0.0
C195 C 0.17521 0.25581 0.92515 0.0
H196 H 0.0943 0.25652 0.9519 0.0
C197 C 0.08354 0.19406 0.86731 0.0
C198 C 0.06423 0.18112 0.88738 0.0
C199 C 0.10396 0.21211 0.87865 0.0
C200 C 0.11685 0.25603 0.94426 0.0
H201 H 0.25591 0.2961 0.99022 0.0
H202 H 0.22136 0.26456 0.96798 0.0
H203 H 0.12876 0.28808 0.9735 0.0
H204 H 0.05166 0.17677 0.9352 0.0
H205 H 0.08707 0.20817 0.95474 0.0
H206 H 0.16327 0.22355 0.89609 0.0
C207 C 0.21482 0.28494 0.97023 0.0
C208 C 0.13651 0.27425 0.95642 0.0
C209 C 0.23444 0.30281 0.9832 0.0
C210 C 0.06608 0.1864 0.91901 0.0
C211 C 0.08626 0.20454 0.93026 0.0
C212 C 0.15546 0.2377 0.91277 0.0
C213 C 0.18691 0.29325 0.96066 0.0
C214 C 0.16594 0.27424 0.94716 0.0
C215 C 0.10528 0.21774 0.91022 0.0
C216 C 0.12613 0.23749 0.9224 0.0
H217 H 0.19248 0.35809 0.97959 0.0
H218 H 0.15783 0.32684 0.95695 0.0
H219 H 0.19771 0.25549 0.91736 0.0
H220 H 0.08275 0.1904 0.84284 0.0
H221 H 0.11828 0.22209 0.86265 0.0
C222 C 0.77383 0.7038 0.49358 0.0
C223 C 0.77806 0.67682 0.48832 0.0
C224 C 0.79323 0.72223 0.48132 0.0
C225 C 0.83963 0.73556 0.41746 0.0
H226 H 0.88556 0.7802 0.47097 0.0
C227 C 0.93099 0.80265 0.36998 0.0
C228 C 0.93756 0.82595 0.38573 0.0
C229 C 0.91076 0.78484 0.38206 0.0
C230 C 0.87251 0.76836 0.45555 0.0
H231 H 0.80586 0.64793 0.46642 0.0
H232 H 0.83913 0.68035 0.44365 0.0
H233 H 0.85145 0.74869 0.49309 0.0
H234 H 0.92724 0.8496 0.4256 0.0
H235 H 0.89072 0.81948 0.44578 0.0
H236 H 0.85942 0.7557 0.37983 0.0
C237 C 0.82096 0.68708 0.45757 0.0
C238 C 0.85319 0.75015 0.46835 0.0
C239 C 0.80197 0.66863 0.47045 0.0
C240 C 0.92278 0.8316 0.41317 0.0
C241 C 0.90203 0.81414 0.42487 0.0
C242 C 0.85843 0.75419 0.40459 0.0
C243 C 0.81675 0.714 0.46298 0.0
C244 C 0.8368 0.7335 0.4494 0.0
C245 C 0.89611 0.79022 0.40983 0.0
C246 C 0.87534 0.77079 0.42344 0.0
H247 H 0.75524 0.71064 0.50674 0.0
H248 H 0.78953 0.74295 0.48559 0.0
H249 H 0.82694 0.72299 0.40246 0.0
H250 H 0.94231 0.7977 0.34891 0.0
H251 H 0.90732 0.76652 0.36998 0.0
C252 C 0.76487 0.29876 0.98103 0.0
C253 C 0.77324 0.32462 0.9876 0.0
C254 C 0.78513 0.28091 0.96905 0.0
C255 C 0.85814 0.27752 0.93111 0.0
H256 H 0.85328 0.20421 0.95472 0.0
C257 C 0.93123 0.19916 0.87417 0.0
C258 C 0.94177 0.17845 0.89244 0.0
C259 C 0.91007 0.21646 0.88547 0.0
C260 C 0.85523 0.22464 0.94812 0.0
H261 H 0.80888 0.35236 0.98735 0.0
H262 H 0.84489 0.32106 0.96741 0.0
H263 H 0.81863 0.23558 0.97584 0.0
H264 H 0.93829 0.1596 0.9369 0.0
H265 H 0.90215 0.19031 0.95708 0.0
H266 H 0.89559 0.26684 0.90458 0.0
C267 C 0.82255 0.31455 0.97057 0.0
C268 C 0.83498 0.24264 0.95988 0.0
C269 C 0.80212 0.33247 0.98215 0.0
C270 C 0.93048 0.17528 0.9222 0.0
C271 C 0.90961 0.19285 0.93369 0.0
C272 C 0.87861 0.2596 0.91967 0.0
C273 C 0.81433 0.28849 0.96382 0.0
C274 C 0.83607 0.26932 0.95145 0.0
C275 C 0.8992 0.21377 0.91552 0.0
C276 C 0.87739 0.23287 0.9279 0.0
H277 H 0.74254 0.29253 0.98492 0.0
H278 H 0.77775 0.26125 0.96359 0.0
H279 H 0.85952 0.29779 0.9237 0.0
H280 H 0.93925 0.20194 0.851 0.0
H281 H 0.90214 0.23189 0.87049 0.0
C282 C 0.2295 0.70608 0.49762 0.0
C283 C 0.22432 0.67907 0.49405 0.0
C284 C 0.2097 0.72452 0.48594 0.0
C285 C 0.15389 0.73304 0.42665 0.0
H286 H 0.12608 0.79081 0.47687 0.0
C287 C 0.05913 0.79933 0.38691 0.0
C288 C 0.05967 0.82615 0.39459 0.0
C289 C 0.07974 0.78198 0.39916 0.0
C290 C 0.13396 0.77507 0.46232 0.0
H291 H 0.19447 0.65004 0.476 0.0
H292 H 0.16008 0.68226 0.45472 0.0
H293 H 0.1612 0.7595 0.49808 0.0
H294 H 0.08258 0.85585 0.4209 0.0
H295 H 0.11918 0.82569 0.4416 0.0
H296 H 0.12736 0.7487 0.39066 0.0
C297 C 0.17945 0.68918 0.46653 0.0
C298 C 0.15398 0.75707 0.47456 0.0
C299 C 0.19906 0.67077 0.47859 0.0
C300 C 0.08146 0.83526 0.41468 0.0
C301 C 0.10235 0.81791 0.42669 0.0
C302 C 0.13419 0.75119 0.41427 0.0
C303 C 0.18459 0.71625 0.47006 0.0
C304 C 0.16392 0.73574 0.45693 0.0
C305 C 0.10173 0.79101 0.41912 0.0
C306 C 0.12369 0.77231 0.43202 0.0
H307 H 0.24908 0.71286 0.50912 0.0
H308 H 0.21434 0.74526 0.48874 0.0
H309 H 0.16156 0.71701 0.41239 0.0
H310 H 0.04249 0.79159 0.37171 0.0
H311 H 0.07809 0.76136 0.39328 0.0
C312 C 0.73178 0.81955 0.96145 0.0
C313 C 0.72415 0.83217 0.98894 0.0
C314 C 0.71321 0.80077 0.94856 0.0
C315 C 0.65621 0.75368 0.96833 0.0
H316 H 0.63344 0.75843 0.88276 0.0
C317 C 0.56319 0.69057 0.91954 0.0
C318 C 0.56504 0.68153 0.88913 0.0
C319 C 0.58366 0.70832 0.93102 0.0
C320 C 0.63995 0.75649 0.90654 0.0
H321 H 0.69129 0.83574 0.02431 0.0
H322 H 0.65894 0.80219 1.0023 0.0
H323 H 0.66742 0.79056 0.90412 0.0
H324 H 0.59016 0.68377 0.84702 0.0
H325 H 0.62659 0.7142 0.86738 0.0
H326 H 0.62944 0.7194 0.97086 0.0
C327 C 0.6793 0.80676 0.99076 0.0
C328 C 0.6593 0.775 0.91878 0.0
C329 C 0.69769 0.82583 1.00336 0.0
C330 C 0.58805 0.69049 0.8705 0.0
C331 C 0.60883 0.70805 0.88215 0.0
C332 C 0.63721 0.73497 0.95604 0.0
C333 C 0.68687 0.79408 0.96321 0.0
C334 C 0.6673 0.77393 0.94987 0.0
C335 C 0.60684 0.71725 0.91257 0.0
C336 C 0.62848 0.73633 0.92508 0.0
H337 H 0.75219 0.82423 0.9501 0.0
H338 H 0.71962 0.79117 0.92741 0.0
H339 H 0.66241 0.75219 0.99227 0.0
H340 H 0.54558 0.68428 0.93445 0.0
H341 H 0.58094 0.71536 0.9543 0.0
C342 C 0.27114 0.18603 0.46111 0.0
C343 C 0.27898 0.17357 0.48865 0.0
C344 C 0.28941 0.20502 0.44814 0.0
C345 C 0.34514 0.25316 0.46787 0.0
H346 H 0.36923 0.24817 0.38273 0.0
C347 C 0.43786 0.31713 0.42019 0.0
C348 C 0.43664 0.32572 0.38956 0.0
C349 C 0.41733 0.29935 0.43147 0.0
C350 C 0.36233 0.25019 0.40638 0.0
H351 H 0.31196 0.17046 0.52397 0.0
H352 H 0.34371 0.20444 0.50187 0.0
H353 H 0.33563 0.21561 0.4039 0.0
H354 H 0.41255 0.32269 0.34687 0.0
H355 H 0.37596 0.29222 0.36687 0.0
H356 H 0.37107 0.28794 0.47046 0.0
C357 C 0.32343 0.19955 0.49035 0.0
C358 C 0.3432 0.23143 0.41851 0.0
C359 C 0.30537 0.18026 0.503 0.0
C360 C 0.41415 0.31633 0.37053 0.0
C361 C 0.39329 0.29874 0.38198 0.0
C362 C 0.36386 0.27213 0.45567 0.0
C363 C 0.31562 0.2121 0.46278 0.0
C364 C 0.33479 0.23256 0.44947 0.0
C365 C 0.3947 0.28993 0.4126 0.0
C366 C 0.37311 0.27068 0.42489 0.0
H367 H 0.25078 0.18109 0.4498 0.0
H368 H 0.28284 0.2145 0.42696 0.0
H369 H 0.33859 0.25469 0.4917 0.0
H370 H 0.45507 0.32375 0.43542 0.0
H371 H 0.41964 0.29261 0.45492 0.0
C372 C 0.27204 0.80056 0.99083 0.0
C373 C 0.27856 0.82745 0.98916 0.0
C374 C 0.2915 0.78193 0.97894 0.0
C375 C 0.34959 0.77367 0.92213 0.0
H376 H 0.3734 0.71372 0.97112 0.0
C377 C 0.44432 0.70629 0.88451 0.0
C378 C 0.44303 0.67937 0.89158 0.0
C379 C 0.42342 0.72371 0.89608 0.0
C380 C 0.36663 0.73006 0.95686 0.0
H381 H 0.3104 0.85614 0.97452 0.0
H382 H 0.3443 0.82361 0.95279 0.0
H383 H 0.33831 0.74522 0.99192 0.0
H384 H 0.41838 0.64954 0.91587 0.0
H385 H 0.38127 0.6798 0.93525 0.0
H386 H 0.37719 0.75844 0.88678 0.0
C387 C 0.32412 0.81692 0.9632 0.0
C388 C 0.34662 0.74817 0.96889 0.0
C389 C 0.30485 0.83548 0.97553 0.0
C390 C 0.4201 0.67021 0.91018 0.0
C391 C 0.39892 0.68762 0.92145 0.0
C392 C 0.36925 0.7554 0.90992 0.0
C393 C 0.31764 0.78995 0.96481 0.0
C394 C 0.33814 0.77029 0.95175 0.0
C395 C 0.40038 0.71466 0.91468 0.0
C396 C 0.37833 0.73348 0.92723 0.0
H397 H 0.2518 0.79407 1.00126 0.0
H398 H 0.28589 0.76128 0.98032 0.0
H399 H 0.34308 0.79036 0.90825 0.0
H400 H 0.46184 0.71406 0.87046 0.0
H401 H 0.42573 0.74441 0.89084 0.0
C402 C 0.73138 0.20607 0.49228 0.0
C403 C 0.72503 0.17916 0.49025 0.0
C404 C 0.7116 0.22473 0.48102 0.0
C405 C 0.65267 0.23311 0.42518 0.0
H406 H 0.62913 0.29267 0.47494 0.0
C407 C 0.55712 0.29985 0.38901 0.0
C408 C 0.55848 0.32684 0.39566 0.0
C409 C 0.57808 0.28253 0.40065 0.0
C410 C 0.6358 0.27643 0.46049 0.0
H411 H 0.69316 0.15045 0.47574 0.0
H412 H 0.65868 0.18303 0.45514 0.0
H413 H 0.66476 0.26124 0.49498 0.0
H414 H 0.58316 0.35687 0.41955 0.0
H415 H 0.62039 0.32675 0.43915 0.0
H416 H 0.62445 0.24835 0.39038 0.0
C417 C 0.67897 0.18973 0.46532 0.0
C418 C 0.65612 0.25836 0.47208 0.0
C419 C 0.69858 0.17113 0.477 0.0
C420 C 0.58141 0.33615 0.41417 0.0
C421 C 0.60267 0.31883 0.42553 0.0
C422 C 0.6327 0.25132 0.41342 0.0
C423 C 0.68529 0.21672 0.46721 0.0
C424 C 0.6645 0.23638 0.45465 0.0
C425 C 0.60127 0.29175 0.41892 0.0
C426 C 0.62368 0.27307 0.43104 0.0
H427 H 0.75175 0.21255 0.50245 0.0
H428 H 0.71708 0.24538 0.48262 0.0
H429 H 0.65911 0.21655 0.41106 0.0
H430 H 0.53959 0.29195 0.37508 0.0
H431 H 0.57578 0.26181 0.39561 0.0
C432 C 0.3269 0.40014 0.99422 0.0
C433 C 0.29643 0.40312 0.99514 0.0
C434 C 0.34453 0.42043 0.9831 0.0
C435 C 0.34158 0.47811 0.93213 0.0
H436 H 0.41625 0.49486 0.96943 0.0
C437 C 0.42926 0.54315 0.87301 0.0
C438 C 0.44474 0.56073 0.89185 0.0
C439 C 0.4099 0.52493 0.88592 0.0
C440 C 0.39535 0.49057 0.95886 0.0
H441 H 0.26034 0.42953 0.98639 0.0
H442 H 0.29109 0.46529 0.96699 0.0
H443 H 0.38497 0.46175 0.99292 0.0
H444 H 0.45102 0.57364 0.93892 0.0
H445 H 0.41725 0.54217 0.96117 0.0
H446 H 0.3519 0.50714 0.8982 0.0
C447 C 0.30141 0.44719 0.97442 0.0
C448 C 0.37757 0.47141 0.97216 0.0
C449 C 0.28384 0.42691 0.98563 0.0
C450 C 0.43975 0.56021 0.9237 0.0
C451 C 0.42048 0.54206 0.93654 0.0
C452 C 0.35942 0.49725 0.91876 0.0
C453 C 0.33193 0.44404 0.97261 0.0
C454 C 0.3505 0.46492 0.95894 0.0
C455 C 0.40566 0.52394 0.91789 0.0
C456 C 0.38651 0.50369 0.93198 0.0
H457 H 0.33692 0.38176 1.00107 0.0
H458 H 0.36793 0.41726 0.98171 0.0
H459 H 0.321 0.47333 0.92117 0.0
H460 H 0.43256 0.54305 0.8484 0.0
H461 H 0.39891 0.51112 0.87094 0.0
C462 C 0.71976 0.58144 0.47997 0.0
C463 C 0.70731 0.60311 0.4951 0.0
C464 C 0.70209 0.56133 0.46861 0.0
C465 C 0.6357 0.52568 0.47808 0.0
H466 H 0.63315 0.51782 0.38957 0.0
C467 C 0.55045 0.45897 0.42066 0.0
C468 C 0.55737 0.44627 0.39299 0.0
C469 C 0.56944 0.47743 0.43333 0.0
C470 C 0.63396 0.51927 0.41433 0.0
H471 H 0.6668 0.62051 0.51096 0.0
H472 H 0.63582 0.58439 0.49249 0.0
H473 H 0.66535 0.55056 0.41254 0.0
H474 H 0.58975 0.44262 0.357 0.0
H475 H 0.62386 0.47393 0.3799 0.0
H476 H 0.60548 0.49384 0.48039 0.0
C477 C 0.65928 0.58332 0.48912 0.0
C478 C 0.65224 0.53821 0.42741 0.0
C479 C 0.67694 0.60379 0.49986 0.0
C480 C 0.58384 0.45226 0.3783 0.0
C481 C 0.60326 0.47035 0.39139 0.0
C482 C 0.61793 0.50631 0.4651 0.0
C483 C 0.67172 0.56224 0.47289 0.0
C484 C 0.65298 0.54172 0.45932 0.0
C485 C 0.59627 0.48329 0.41909 0.0
C486 C 0.61647 0.50304 0.43298 0.0
H487 H 0.74317 0.58045 0.47637 0.0
H488 H 0.71209 0.54513 0.45632 0.0
H489 H 0.63623 0.52794 0.5028 0.0
H490 H 0.52996 0.45504 0.43229 0.0
H491 H 0.5627 0.48739 0.45412 0.0
C492 C 0.71953 0.42335 0.99085 0.0
C493 C 0.7053 0.40005 0.99936 0.0
C494 C 0.70342 0.44516 0.98106 0.0
C495 C 0.63063 0.476 0.98192 0.0
H496 H 0.654 0.50565 0.90362 0.0
C497 C 0.57457 0.56738 0.92783 0.0
C498 C 0.56525 0.56382 0.89734 0.0
C499 C 0.59322 0.54907 0.94175 0.0
C500 C 0.6473 0.49762 0.92554 0.0
H501 H 0.66324 0.38141 0.00548 0.0
H502 H 0.6348 0.41986 0.9891 0.0
H503 H 0.68321 0.47055 0.92674 0.0
H504 H 0.56906 0.5388 0.85724 0.0
H505 H 0.6021 0.5072 0.88136 0.0
H506 H 0.59454 0.50298 0.98051 0.0
C507 C 0.65843 0.42122 0.98989 0.0
C508 C 0.6641 0.47768 0.93888 0.0
C509 C 0.67462 0.39928 0.9993 0.0
C510 C 0.57577 0.54206 0.88078 0.0
C511 C 0.59477 0.52402 0.89453 0.0
C512 C 0.61406 0.49624 0.96878 0.0
C513 C 0.67272 0.44418 0.98002 0.0
C514 C 0.65575 0.46645 0.96702 0.0
C515 C 0.60334 0.52713 0.92529 0.0
C516 C 0.62203 0.507 0.94027 0.0
H517 H 0.74317 0.42444 0.99119 0.0
H518 H 0.71498 0.46271 0.97397 0.0
H519 H 0.62378 0.46777 1.00368 0.0
H520 H 0.56678 0.58389 0.94125 0.0
H521 H 0.59966 0.55201 0.96543 0.0
C522 C 0.32087 0.61301 0.47674 0.0
C523 C 0.29908 0.6083 0.49862 0.0
C524 C 0.33886 0.59255 0.46664 0.0
C525 C 0.34126 0.52007 0.46101 0.0
H526 H 0.42225 0.53274 0.43925 0.0
C527 C 0.42147 0.43837 0.41925 0.0
C528 C 0.43962 0.44513 0.39439 0.0
C529 C 0.40386 0.4574 0.43339 0.0
C530 C 0.3996 0.52894 0.44502 0.0
H531 H 0.27978 0.57937 0.52862 0.0
H532 H 0.31164 0.54333 0.51149 0.0
H533 H 0.39366 0.5677 0.46295 0.0
H534 H 0.4526 0.47709 0.3643 0.0
H535 H 0.42199 0.51002 0.38886 0.0
H536 H 0.3474 0.48122 0.44301 0.0
C537 C 0.31439 0.56263 0.50142 0.0
C538 C 0.38319 0.54899 0.4586 0.0
C539 C 0.29634 0.58316 0.51142 0.0
C540 C 0.43907 0.47114 0.38347 0.0
C541 C 0.42167 0.49012 0.3977 0.0
C542 C 0.35777 0.49994 0.44756 0.0
C543 C 0.33561 0.56699 0.47856 0.0
C544 C 0.35367 0.54497 0.46633 0.0
C545 C 0.40422 0.4836 0.4231 0.0
C546 C 0.38698 0.50431 0.43897 0.0
H547 H 0.32346 0.63245 0.467 0.0
H548 H 0.35474 0.59665 0.44884 0.0
H549 H 0.31849 0.51636 0.46632 0.0
H550 H 0.42131 0.41852 0.42822 0.0
H551 H 0.39066 0.4518 0.45296 0.0
C552 C 0.822 0.90142 0.99047 0.0
C553 C 0.79254 0.90659 0.99691 0.0
C554 C 0.83987 0.92112 0.97842 0.0
C555 C 0.8654 0.96022 0.93328 0.0
H556 H 0.86273 0.03205 0.96286 0.0
C557 C 0.92626 0.04435 0.87145 0.0
C558 C 0.94228 0.06138 0.89047 0.0
C559 C 0.90643 0.02647 0.88414 0.0
C560 C 0.86377 0.01206 0.9544 0.0
H561 H 0.75864 0.93617 0.99735 0.0
H562 H 0.78977 0.9709 0.97601 0.0
H563 H 0.83237 0.99861 0.98732 0.0
H564 H 0.94923 0.07354 0.93769 0.0
H565 H 0.91489 0.04237 0.95966 0.0
H566 H 0.89718 0.97351 0.90075 0.0
C567 C 0.7992 0.95171 0.98027 0.0
C568 C 0.84622 0.99296 0.96825 0.0
C569 C 0.78136 0.93193 0.99228 0.0
C570 C 0.93737 0.06065 0.92233 0.0
C571 C 0.91751 0.04289 0.93496 0.0
C572 C 0.88286 0.97932 0.91936 0.0
C573 C 0.82853 0.94637 0.97269 0.0
C574 C 0.847 0.96679 0.95797 0.0
C575 C 0.90207 0.02537 0.91607 0.0
C576 C 0.88237 0.00542 0.92988 0.0
H577 H 0.83087 0.88189 0.99396 0.0
H578 H 0.8625 0.91652 0.97332 0.0
H579 H 0.86619 0.94031 0.92453 0.0
H580 H 0.92941 0.04447 0.84681 0.0
H581 H 0.89456 0.01343 0.86895 0.0
C582 C 0.18161 0.10393 0.49088 0.0
C583 C 0.2111 0.09881 0.49723 0.0
C584 C 0.16373 0.08418 0.47896 0.0
C585 C 0.13826 0.045 0.43388 0.0
H586 H 0.14086 0.97322 0.46369 0.0
C587 C 0.0778 0.96083 0.37188 0.0
C588 C 0.06159 0.94386 0.39081 0.0
C589 C 0.09759 0.97867 0.3847 0.0
C590 C 0.13985 0.9932 0.45517 0.0
H591 H 0.24505 0.06929 0.49767 0.0
H592 H 0.21389 0.03444 0.47659 0.0
H593 H 0.17119 0.00672 0.48812 0.0
H594 H 0.05429 0.93173 0.43798 0.0
H595 H 0.0886 0.96285 0.46018 0.0
H596 H 0.10658 0.03164 0.40129 0.0
C597 C 0.20446 0.05364 0.48081 0.0
C598 C 0.15737 0.01233 0.46901 0.0
C599 C 0.22231 0.07348 0.49267 0.0
C600 C 0.06629 0.94459 0.4227 0.0
C601 C 0.08613 0.96232 0.43546 0.0
C602 C 0.12085 0.02587 0.41998 0.0
C603 C 0.17509 0.05892 0.47329 0.0
C604 C 0.15662 0.03848 0.45864 0.0
C605 C 0.10172 0.9798 0.41666 0.0
C606 C 0.12132 0.99979 0.43056 0.0
H607 H 0.17272 0.12345 0.49432 0.0
H608 H 0.14108 0.08874 0.4739 0.0
H609 H 0.13749 0.06489 0.42507 0.0
H610 H 0.07481 0.9607 0.34722 0.0
H611 H 0.10958 0.99168 0.36958 0.0
C612 C 0.18301 0.89355 0.97344 0.0
C613 C 0.2034 0.89764 0.99697 0.0
C614 C 0.16471 0.91396 0.96383 0.0
C615 C 0.1597 0.98641 0.96284 0.0
H616 H 0.08039 0.97245 0.93592 0.0
C617 C 0.07896 0.06756 0.9202 0.0
C618 C 0.06218 0.06111 0.89419 0.0
C619 C 0.09648 0.04852 0.93452 0.0
C620 C 0.10257 0.97664 0.94315 0.0
H621 H 0.22003 0.92557 0.02993 0.0
H622 H 0.18759 0.96145 0.01358 0.0
H623 H 0.10909 0.93733 0.95914 0.0
H624 H 0.05166 0.02976 0.86222 0.0
H625 H 0.08213 0.99688 0.88702 0.0
H626 H 0.15304 0.02579 0.94665 0.0
C627 C 0.18611 0.94264 1.00207 0.0
C628 C 0.11904 0.9565 0.95647 0.0
C629 C 0.20445 0.92214 0.01164 0.0
C630 C 0.06407 0.03545 0.88233 0.0
C631 C 0.08139 0.01648 0.89668 0.0
C632 C 0.14314 0.00663 0.9496 0.0
C633 C 0.16628 0.93889 0.97773 0.0
C634 C 0.14798 0.96098 0.96601 0.0
C635 C 0.09743 0.02264 0.92321 0.0
C636 C 0.11456 1.00183 0.93912 0.0
H637 H 0.18162 0.87463 0.96218 0.0
H638 H 0.14993 0.91037 0.94487 0.0
H639 H 0.18203 0.9905 0.96962 0.0
H640 H 0.07806 0.08712 0.92994 0.0
H641 H 0.10858 0.05385 0.95496 0.0
C642 C 0.79952 0.08431 0.51008 0.0
C643 C 0.80041 0.10895 0.4957 0.0
C644 C 0.81772 0.0639 0.50004 0.0
C645 C 0.88439 0.05042 0.45376 0.0
H646 H 0.85046 0.9811 0.44395 0.0
C647 C 0.94014 0.97105 0.38062 0.0
C648 C 0.94163 0.94542 0.39261 0.0
C649 C 0.92271 0.99016 0.39459 0.0
C650 C 0.86035 1.00027 0.44688 0.0
H651 H 0.82178 0.13225 0.46088 0.0
H652 H 0.85325 0.09664 0.44276 0.0
H653 H 0.82148 0.01633 0.46699 0.0
H654 H 0.92498 0.91959 0.42818 0.0
H655 H 0.89439 0.95309 0.45255 0.0
H656 H 0.92306 0.03451 0.43322 0.0
C657 C 0.83868 0.0929 0.46185 0.0
C658 C 0.84378 0.02046 0.46016 0.0
C659 C 0.8205 0.11323 0.47193 0.0
C660 C 0.92439 0.93914 0.41835 0.0
C661 C 0.90681 0.95831 0.43229 0.0
C662 C 0.90088 0.0303 0.44042 0.0
C663 C 0.83727 0.06785 0.4755 0.0
C664 C 0.85549 0.04588 0.4634 0.0
C665 C 0.9062 0.98417 0.42087 0.0
C666 C 0.88894 0.00508 0.43644 0.0
H667 H 0.78417 0.08073 0.52853 0.0
H668 H 0.81638 0.045 0.51137 0.0
H669 H 0.89433 0.06959 0.45646 0.0
H670 H 0.95291 0.9766 0.36072 0.0
H671 H 0.92226 0.00974 0.38484 0.0
C672 C 0.29949 0.39641 0.06909 0.0
C673 C 0.29999 0.37201 0.05411 0.0
C674 C 0.31756 0.40096 0.0945 0.0
C675 C 0.38397 0.37547 0.13355 0.0
H676 H 0.35175 0.40919 0.20592 0.0
C677 C 0.43881 0.3654 0.25083 0.0
C678 C 0.442 0.38801 0.2691 0.0
C679 C 0.42144 0.36582 0.22455 0.0
C680 C 0.36116 0.40005 0.18575 0.0
H681 H 0.32012 0.33359 0.05293 0.0
H682 H 0.35133 0.34113 0.09754 0.0
H683 H 0.32213 0.40586 0.15928 0.0
H684 H 0.4284 0.42863 0.27444 0.0
H685 H 0.39771 0.42926 0.22826 0.0
H686 H 0.42271 0.36916 0.16008 0.0
C687 C 0.33725 0.35692 0.08974 0.0
C688 C 0.34423 0.39817 0.15901 0.0
C689 C 0.31921 0.35243 0.06444 0.0
C690 C 0.42649 0.41088 0.26088 0.0
C691 C 0.40889 0.41124 0.23448 0.0
C692 C 0.40078 0.37727 0.16021 0.0
C693 C 0.33657 0.38119 0.10523 0.0
C694 C 0.35526 0.38539 0.13278 0.0
C695 C 0.40664 0.38881 0.21575 0.0
C696 C 0.3894 0.38911 0.18681 0.0
H697 H 0.28476 0.41174 0.06139 0.0
H698 H 0.31671 0.41995 0.10569 0.0
H699 H 0.39342 0.36606 0.11357 0.0
H700 H 0.45014 0.34733 0.25652 0.0
H701 H 0.41966 0.34804 0.211 0.0
C702 C 0.70736 0.60639 0.57064 0.0
C703 C 0.70773 0.63123 0.55666 0.0
C704 C 0.6894 0.60176 0.59618 0.0
C705 C 0.62392 0.62809 0.63571 0.0
H706 H 0.65499 0.59385 0.70831 0.0
C707 C 0.56822 0.63966 0.75215 0.0
C708 C 0.56443 0.61723 0.77057 0.0
C709 C 0.58602 0.63884 0.72619 0.0
C710 C 0.64589 0.60313 0.68807 0.0
H711 H 0.68956 0.67042 0.5575 0.0
H712 H 0.65845 0.66266 0.60207 0.0
H713 H 0.68486 0.5964 0.66169 0.0
H714 H 0.57748 0.57654 0.77667 0.0
H715 H 0.60881 0.57517 0.73103 0.0
H716 H 0.58524 0.63525 0.66198 0.0
C717 C 0.67174 0.64662 0.59347 0.0
C718 C 0.66296 0.60456 0.66137 0.0
C719 C 0.6897 0.6512 0.56819 0.0
C720 C 0.57986 0.59416 0.76295 0.0
C721 C 0.59783 0.59337 0.73686 0.0
C722 C 0.60696 0.62669 0.66227 0.0
C723 C 0.67136 0.62188 0.60785 0.0
C724 C 0.65237 0.61761 0.63513 0.0
C725 C 0.60059 0.61559 0.71785 0.0
C726 C 0.61796 0.61475 0.689 0.0
H727 H 0.72118 0.59076 0.56197 0.0
H728 H 0.68945 0.58245 0.60664 0.0
H729 H 0.61485 0.63773 0.61568 0.0
H730 H 0.557 0.65788 0.75743 0.0
H731 H 0.58823 0.65648 0.71246 0.0
C732 C 0.69996 0.38932 0.07204 0.0
C733 C 0.69935 0.36546 0.05589 0.0
C734 C 0.683 0.39259 0.09854 0.0
C735 C 0.65202 0.35485 0.16135 0.0
H736 H 0.59926 0.41357 0.17386 0.0
C737 C 0.5691 0.35645 0.26106 0.0
C738 C 0.56079 0.38072 0.2737 0.0
C739 C 0.58751 0.35545 0.23546 0.0
C740 C 0.61431 0.39729 0.17111 0.0
H741 H 0.67959 0.32694 0.05351 0.0
H742 H 0.65066 0.33224 0.10038 0.0
H743 H 0.62799 0.41093 0.12675 0.0
H744 H 0.5664 0.42291 0.27042 0.0
H745 H 0.59953 0.42118 0.22669 0.0
H746 H 0.6392 0.3414 0.20578 0.0
C747 C 0.66432 0.34834 0.09272 0.0
C748 C 0.6306 0.39575 0.14398 0.0
C749 C 0.68084 0.34528 0.06602 0.0
C750 C 0.57221 0.40391 0.26098 0.0
C751 C 0.59102 0.4029 0.23571 0.0
C752 C 0.63615 0.35659 0.18867 0.0
C753 C 0.66556 0.37187 0.10946 0.0
C754 C 0.64928 0.37433 0.1387 0.0
C755 C 0.59847 0.37868 0.22218 0.0
C756 C 0.61675 0.37764 0.1938 0.0
H757 H 0.71422 0.40507 0.06468 0.0
H758 H 0.68431 0.41092 0.11109 0.0
H759 H 0.66663 0.33831 0.15797 0.0
H760 H 0.56046 0.33824 0.27017 0.0
H761 H 0.59229 0.33642 0.22552 0.0
C762 C 0.32575 0.64063 0.55886 0.0
C763 C 0.2962 0.6336 0.56063 0.0
C764 C 0.34401 0.63758 0.58435 0.0
C765 C 0.37052 0.64691 0.64727 0.0
H766 H 0.36702 0.58591 0.70051 0.0
C767 C 0.42888 0.64471 0.76457 0.0
C768 C 0.44469 0.62175 0.77163 0.0
C769 C 0.4098 0.64531 0.73949 0.0
C770 C 0.36834 0.60302 0.6858 0.0
H771 H 0.26255 0.6168 0.58926 0.0
H772 H 0.29433 0.61153 0.63424 0.0
H773 H 0.33684 0.58746 0.65425 0.0
H774 H 0.452 0.58115 0.75833 0.0
H775 H 0.41883 0.58229 0.7146 0.0
H776 H 0.40225 0.66235 0.6785 0.0
C777 C 0.30355 0.61936 0.61326 0.0
C778 C 0.35088 0.604 0.65944 0.0
C779 C 0.28532 0.62249 0.58773 0.0
C780 C 0.44025 0.5992 0.75355 0.0
C781 C 0.4211 0.59978 0.72854 0.0
C782 C 0.38786 0.64598 0.67366 0.0
C783 C 0.33299 0.62733 0.61204 0.0
C784 C 0.35182 0.62594 0.63983 0.0
C785 C 0.40596 0.62295 0.72095 0.0
C786 C 0.387 0.62403 0.69323 0.0
H787 H 0.33441 0.64915 0.53798 0.0
H788 H 0.3667 0.64349 0.58249 0.0
H789 H 0.37149 0.66425 0.63289 0.0
H790 H 0.43162 0.66241 0.77806 0.0
H791 H 0.3981 0.66335 0.73453 0.0
C792 C 0.79715 0.89926 0.07146 0.0
C793 C 0.7979 0.8755 0.05519 0.0
C794 C 0.81604 0.90335 0.09629 0.0
C795 C 0.88433 0.87824 0.13206 0.0
H796 H 0.85217 0.9077 0.20695 0.0
C797 C 0.94197 0.86586 0.24784 0.0
C798 C 0.94398 0.88782 0.26734 0.0
C799 C 0.92433 0.86655 0.22175 0.0
C800 C 0.86157 0.89976 0.18609 0.0
H801 H 0.81965 0.83799 0.05065 0.0
H802 H 0.85234 0.84469 0.0943 0.0
H803 H 0.82182 0.90536 0.16084 0.0
H804 H 0.92818 0.92751 0.27503 0.0
H805 H 0.89709 0.92861 0.22925 0.0
H806 H 0.92384 0.87215 0.1574 0.0
C807 C 0.83733 0.86029 0.08805 0.0
C808 C 0.84421 0.89846 0.15964 0.0
C809 C 0.81846 0.85626 0.0633 0.0
C810 C 0.92718 0.91027 0.2605 0.0
C811 C 0.90933 0.9109 0.23433 0.0
C812 C 0.90159 0.87947 0.15845 0.0
C813 C 0.83615 0.88377 0.10509 0.0
C814 C 0.85525 0.88727 0.13245 0.0
C815 C 0.9081 0.88916 0.21443 0.0
C816 C 0.89026 0.88981 0.18591 0.0
H817 H 0.78148 0.91436 0.06534 0.0
H818 H 0.81484 0.92179 0.10864 0.0
H819 H 0.89373 0.87003 0.11135 0.0
H820 H 0.95438 0.84814 0.25244 0.0
H821 H 0.92338 0.84928 0.20724 0.0
C822 C 0.20695 0.10616 0.57183 0.0
C823 C 0.20598 0.1299 0.55551 0.0
C824 C 0.18824 0.10202 0.59679 0.0
C825 C 0.1201 0.12703 0.633 0.0
H826 H 0.15274 0.09757 0.70769 0.0
C827 C 0.06338 0.13977 0.74909 0.0
C828 C 0.06106 0.11774 0.76845 0.0
C829 C 0.08101 0.13902 0.723 0.0
C830 C 0.14323 0.10552 0.68689 0.0
H831 H 0.18401 0.16731 0.55104 0.0
H832 H 0.15167 0.16055 0.59494 0.0
H833 H 0.18279 0.09988 0.66135 0.0
H834 H 0.07641 0.07788 0.77597 0.0
H835 H 0.10753 0.07668 0.7302 0.0
H836 H 0.0808 0.1332 0.65865 0.0
C837 C 0.16669 0.14499 0.58861 0.0
C838 C 0.16039 0.1068 0.66031 0.0
C839 C 0.18537 0.14906 0.56372 0.0
C840 C 0.07764 0.09518 0.76154 0.0
C841 C 0.0955 0.09449 0.73538 0.0
C842 C 0.10304 0.12585 0.65953 0.0
C843 C 0.1681 0.12154 0.6057 0.0
C844 C 0.14918 0.118 0.63319 0.0
C845 C 0.09693 0.11628 0.71556 0.0
C846 C 0.11455 0.11552 0.68692 0.0
H847 H 0.22265 0.09112 0.56563 0.0
H848 H 0.1896 0.0836 0.60916 0.0
H849 H 0.11055 0.13524 0.61236 0.0
H850 H 0.05117 0.15759 0.75375 0.0
H851 H 0.08213 0.15632 0.70856 0.0
C852 C 0.22111 0.88222 0.08622 0.0
C853 C 0.20931 0.87213 0.059 0.0
C854 C 0.20372 0.88458 0.11248 0.0
C855 C 0.15798 0.89914 0.16059 0.0
H856 H 0.10538 0.84147 0.17875 0.0
C857 C 0.06907 0.90473 0.25461 0.0
C858 C 0.06349 0.88209 0.27219 0.0
C859 C 0.08845 0.90387 0.22985 0.0
C860 C 0.12016 0.85761 0.17419 0.0
H861 H 0.17028 0.85748 0.03703 0.0
H862 H 0.13944 0.86188 0.08281 0.0
H863 H 0.13543 0.83998 0.13258 0.0
H864 H 0.0748 0.84096 0.27807 0.0
H865 H 0.10882 0.83953 0.23487 0.0
H866 H 0.14291 0.91664 0.20242 0.0
C867 C 0.16223 0.86756 0.08418 0.0
C868 C 0.13709 0.85694 0.14749 0.0
C869 C 0.17966 0.86528 0.05796 0.0
C870 C 0.07848 0.85874 0.26496 0.0
C871 C 0.09783 0.85787 0.24007 0.0
C872 C 0.14097 0.89986 0.18727 0.0
C873 C 0.17417 0.87685 0.11191 0.0
C874 C 0.15612 0.87773 0.1403 0.0
C875 C 0.10275 0.88035 0.22199 0.0
C876 C 0.12179 0.87914 0.19434 0.0
H877 H 0.24394 0.88779 0.08723 0.0
H878 H 0.21365 0.89168 0.13346 0.0
H879 H 0.1723 0.91555 0.15565 0.0
H880 H 0.058 0.92308 0.25955 0.0
H881 H 0.09151 0.92148 0.21626 0.0
C882 C 0.78389 0.12309 0.58538 0.0
C883 C 0.79535 0.13364 0.55823 0.0
C884 C 0.80158 0.12038 0.61137 0.0
C885 C 0.84791 0.10544 0.65877 0.0
H886 H 0.8998 0.16348 0.67759 0.0
C887 C 0.93671 0.10022 0.75314 0.0
C888 C 0.94165 0.1228 0.77104 0.0
C889 C 0.91753 0.10098 0.72819 0.0
C890 C 0.88523 0.14722 0.67283 0.0
H891 H 0.83408 0.1487 0.53609 0.0
H892 H 0.86544 0.14372 0.58142 0.0
H893 H 0.86959 0.16515 0.63153 0.0
H894 H 0.92944 0.16369 0.77723 0.0
H895 H 0.89582 0.16493 0.73371 0.0
H896 H 0.86334 0.08767 0.70031 0.0
C897 C 0.8427 0.13793 0.58293 0.0
C898 C 0.86822 0.148 0.64619 0.0
C899 C 0.82497 0.14056 0.55696 0.0
C900 C 0.92628 0.14597 0.76387 0.0
C901 C 0.90715 0.14673 0.7388 0.0
C902 C 0.86503 0.10461 0.68537 0.0
C903 C 0.83109 0.12821 0.61061 0.0
C904 C 0.8494 0.12711 0.6388 0.0
C905 C 0.90284 0.12433 0.72045 0.0
C906 C 0.88392 0.12548 0.6927 0.0
H907 H 0.76108 0.11745 0.58655 0.0
H908 H 0.79191 0.11294 0.63233 0.0
H909 H 0.83376 0.08896 0.65365 0.0
H910 H 0.9481 0.08201 0.75802 0.0
H911 H 0.91492 0.08344 0.71439 0.0
loop_
_geom_bond_atom_site_label_1
_geom_bond_atom_site_label_2
_geom_bond_distance
_geom_bond_site_symmetry_2
_ccdc_geom_bond_type
C0 N1 1.317 . S
C0 N2 1.348 . S
C0 C3 1.485 . S
N1 C0 1.317 . S
N1 N5 1.370 . S
N2 C0 1.348 . S
N2 C4 1.346 1_554 S
C3 C0 1.485 . S
C3 H7 0.960 . S
C3 H8 0.961 . S
C3 H9 0.960 . S
C4 N2 1.346 1_556 S
C4 N5 1.307 1_556 S
C4 C6 1.486 . S
N5 N1 1.370 . S
N5 C4 1.307 1_554 S
C6 C4 1.486 . S
C6 H10 0.960 . S
C6 H11 0.960 . S
C6 H12 0.959 . S
H7 C3 0.960 . S
H8 C3 0.961 . S
H9 C3 0.960 . S
H10 C6 0.960 . S
H11 C6 0.960 . S
H12 C6 0.959 . S
C13 N14 1.317 . S
C13 N15 1.348 . S
C13 C16 1.485 . S
N14 C13 1.317 . S
N14 N18 1.370 . S
N15 C13 1.348 . S
N15 C17 1.346 . S
C16 C13 1.485 . S
C16 H20 0.960 . S
C16 H21 0.961 . S
C16 H22 0.960 . S
C17 N15 1.346 . S
C17 N18 1.307 . S
C17 C19 1.486 . S
N18 N14 1.370 . S
N18 C17 1.307 . S
C19 C17 1.486 . S
C19 H23 0.960 . S
C19 H24 0.960 . S
C19 H25 0.959 . S
H20 C16 0.960 . S
H21 C16 0.961 . S
H22 C16 0.960 . S
H23 C19 0.960 . S
H24 C19 0.960 . S
H25 C19 0.959 . S
C26 N27 1.317 . S
C26 N28 1.354 . S
C26 C29 1.485 . S
N27 C26 1.317 . S
N27 N31 1.370 . S
N28 C26 1.354 . S
N28 C30 1.343 1_554 S
C29 C26 1.485 . S
C29 H33 0.960 . S
C29 H34 0.961 . S
C29 H35 0.960 . S
C30 N28 1.343 1_556 S
C30 N31 1.307 1_556 S
C30 C32 1.486 . S
N31 N27 1.370 . S
N31 C30 1.307 1_554 S
C32 C30 1.486 . S
C32 H36 0.960 . S
C32 H37 0.960 . S
C32 H38 0.959 . S
H33 C29 0.960 . S
H34 C29 0.961 . S
H35 C29 0.960 . S
H36 C32 0.960 . S
H37 C32 0.960 . S
H38 C32 0.959 . S
C39 N40 1.317 . S
C39 N41 1.348 . S
C39 C42 1.485 . S
N40 C39 1.317 . S
N40 N44 1.370 . S
N41 C39 1.348 . S
N41 C43 1.346 . S
C42 C39 1.485 . S
C42 H46 0.960 . S
C42 H47 0.961 . S
C42 H48 0.960 . S
C43 N41 1.346 . S
C43 N44 1.307 . S
C43 C45 1.486 . S
N44 N40 1.370 . S
N44 C43 1.307 . S
C45 C43 1.486 . S
C45 H49 0.960 . S
C45 H50 0.960 . S
C45 H51 0.959 . S
H46 C42 0.960 . S
H47 C42 0.961 . S
H48 C42 0.960 . S
H49 C45 0.960 . S
H50 C45 0.960 . S
H51 C45 0.959 . S
C52 N53 1.317 . S
C52 N54 1.348 . S
C52 C55 1.485 . S
N53 C52 1.317 . S
N53 N57 1.370 . S
N54 C52 1.348 . S
N54 C56 1.346 1_554 S
C55 C52 1.485 . S
C55 H59 0.960 . S
C55 H60 0.961 . S
C55 H61 0.960 . S
C56 N54 1.346 1_556 S
C56 N57 1.307 1_556 S
C56 C58 1.486 . S
N57 N53 1.370 . S
N57 C56 1.307 1_554 S
C58 C56 1.486 . S
C58 H62 0.960 . S
C58 H63 0.960 . S
C58 H64 0.959 . S
H59 C55 0.960 . S
H60 C55 0.961 . S
H61 C55 0.960 . S
H62 C58 0.960 . S
H63 C58 0.960 . S
H64 C58 0.959 . S
C65 N66 1.317 . S
C65 N67 1.348 . S
C65 C68 1.485 . S
N66 C65 1.317 . S
N66 N70 1.370 . S
N67 C65 1.348 . S
N67 C69 1.346 . S
C68 C65 1.485 . S
C68 H72 0.960 . S
C68 H73 0.961 . S
C68 H74 0.960 . S
C69 N67 1.346 . S
C69 N70 1.307 . S
C69 C71 1.486 . S
N70 N66 1.370 . S
N70 C69 1.307 . S
C71 C69 1.486 . S
C71 H75 0.960 . S
C71 H76 0.960 . S
C71 H77 0.959 . S
H72 C68 0.960 . S
H73 C68 0.961 . S
H74 C68 0.960 . S
H75 C71 0.960 . S
H76 C71 0.960 . S
H77 C71 0.959 . S
C78 N79 1.317 . S
C78 N80 1.355 . S
C78 C81 1.485 . S
N79 C78 1.317 . S
N79 N83 1.370 . S
N80 C78 1.355 . S
N80 C82 1.343 1_554 S
C81 C78 1.485 . S
C81 H85 0.960 . S
C81 H86 0.961 . S
C81 H87 0.960 . S
C82 N80 1.343 1_556 S
C82 N83 1.307 1_556 S
C82 C84 1.486 . S
N83 N79 1.370 . S
N83 C82 1.307 1_554 S
C84 C82 1.486 . S
C84 H88 0.960 . S
C84 H89 0.960 . S
C84 H90 0.959 . S
H85 C81 0.960 . S
H86 C81 0.961 . S
H87 C81 0.960 . S
H88 C84 0.960 . S
H89 C84 0.960 . S
H90 C84 0.959 . S
C91 N92 1.317 . S
C91 N93 1.348 . S
C91 C94 1.485 . S
N92 C91 1.317 . S
N92 N96 1.370 . S
N93 C91 1.348 . S
N93 C95 1.346 . S
C94 C91 1.485 . S
C94 H98 0.960 . S
C94 H99 0.961 . S
C94 H100 0.960 . S
C95 N93 1.346 . S
C95 N96 1.307 . S
C95 C97 1.486 . S
N96 N92 1.370 . S
N96 C95 1.307 . S
C97 C95 1.486 . S
C97 H101 0.960 . S
C97 H102 0.960 . S
C97 H103 0.959 . S
H98 C94 0.960 . S
H99 C94 0.961 . S
H100 C94 0.960 . S
H101 C97 0.960 . S
H102 C97 0.960 . S
H103 C97 0.959 . S
Fe104 O106 1.918 . S
Fe104 O109 1.997 1_455 S
Fe104 O110 2.002 1_455 S
Fe104 O115 1.976 . S
Fe104 O118 1.996 . S
Fe105 O106 1.918 . S
Fe105 O113 1.997 1_455 S
Fe105 O116 1.996 . S
Fe105 O120 1.976 . S
Fe105 O123 2.002 1_455 S
O106 Fe104 1.918 . S
O106 Fe105 1.918 . S
O106 Fe107 1.918 . S
Fe107 O106 1.918 . S
Fe107 O108 2.002 1_455 S
Fe107 O117 1.976 . S
Fe107 O121 1.996 . S
Fe107 O124 1.997 1_455 S
O108 Fe107 2.002 1_655 S
O108 C125 1.295 . S
O109 Fe104 1.997 1_655 S
O109 C125 1.235 . S
O110 Fe104 2.002 1_655 S
O110 C111 1.295 . S
C111 O110 1.295 . S
C111 O113 1.235 . S
C112 O117 1.287 . S
C112 O118 1.255 . S
O113 Fe105 1.997 1_655 S
O113 C111 1.235 . S
C114 O120 1.287 . S
C114 O121 1.255 . S
O115 Fe104 1.976 . S
O115 C122 1.287 . S
O116 Fe105 1.996 . S
O116 C122 1.255 . S
O117 Fe107 1.976 . S
O117 C112 1.287 . S
O118 Fe104 1.996 . S
O118 C112 1.255 . S
C119 O123 1.295 . S
C119 O124 1.235 . S
O120 Fe105 1.976 . S
O120 C114 1.287 . S
O121 Fe107 1.996 . S
O121 C114 1.255 . S
C122 O115 1.287 . S
C122 O116 1.255 . S
O123 Fe105 2.002 1_655 S
O123 C119 1.295 . S
O124 Fe107 1.997 1_655 S
O124 C119 1.235 . S
C125 O108 1.295 . S
C125 O109 1.235 . S
Fe126 O128 1.919 . S
Fe126 O131 1.984 1_655 S
Fe126 O132 1.989 1_655 S
Fe126 O137 1.989 . S
Fe126 O140 2.008 . S
Fe127 O128 1.919 . S
Fe127 O135 1.983 1_655 S
Fe127 O138 2.009 . S
Fe127 O142 1.989 . S
Fe127 O145 1.989 1_655 S
O128 Fe126 1.919 . S
O128 Fe127 1.919 . S
O128 Fe129 1.919 . S
Fe129 O128 1.919 . S
Fe129 O130 1.989 1_655 S
Fe129 O139 1.989 . S
Fe129 O143 2.009 . S
Fe129 O146 1.983 1_655 S
O130 Fe129 1.989 1_455 S
O130 C147 1.295 . S
O131 Fe126 1.984 1_455 S
O131 C147 1.235 . S
O132 Fe126 1.989 1_455 S
O132 C133 1.295 . S
C133 O132 1.295 . S
C133 O135 1.235 . S
C134 O139 1.287 . S
C134 O140 1.255 . S
O135 Fe127 1.983 1_455 S
O135 C133 1.235 . S
C136 O142 1.287 . S
C136 O143 1.255 . S
O137 Fe126 1.989 . S
O137 C144 1.287 . S
O138 Fe127 2.009 . S
O138 C144 1.255 . S
O139 Fe129 1.989 . S
O139 C134 1.287 . S
O140 Fe126 2.008 . S
O140 C134 1.255 . S
C141 O145 1.295 . S
C141 O146 1.235 . S
O142 Fe127 1.989 . S
O142 C136 1.287 . S
O143 Fe129 2.009 . S
O143 C136 1.255 . S
C144 O137 1.287 . S
C144 O138 1.255 . S
O145 Fe127 1.989 1_455 S
O145 C141 1.295 . S
O146 Fe129 1.983 1_455 S
O146 C141 1.235 . S
C147 O130 1.295 . S
C147 O131 1.235 . S
Fe148 O150 1.918 . S
Fe148 O153 1.997 . S
Fe148 O154 2.002 . S
Fe148 O159 1.976 . S
Fe148 O162 1.996 . S
Fe149 O150 1.918 . S
Fe149 O157 1.997 . S
Fe149 O160 1.996 . S
Fe149 O164 1.976 . S
Fe149 O167 2.002 . S
O150 Fe148 1.918 . S
O150 Fe149 1.918 . S
O150 Fe151 1.918 . S
Fe151 O150 1.918 . S
Fe151 O152 2.002 . S
Fe151 O161 1.976 . S
Fe151 O165 1.996 . S
Fe151 O168 1.997 . S
O152 Fe151 2.002 . S
O152 C169 1.295 . S
O153 Fe148 1.997 . S
O153 C169 1.235 . S
O154 Fe148 2.002 . S
O154 C155 1.295 . S
C155 O154 1.295 . S
C155 O157 1.235 . S
C156 O161 1.287 . S
C156 O162 1.255 . S
O157 Fe149 1.997 . S
O157 C155 1.235 . S
C158 O164 1.287 . S
C158 O165 1.255 . S
O159 Fe148 1.976 . S
O159 C166 1.287 . S
O160 Fe149 1.996 . S
O160 C166 1.255 . S
O161 Fe151 1.976 . S
O161 C156 1.287 . S
O162 Fe148 1.996 . S
O162 C156 1.255 . S
C163 O167 1.295 . S
C163 O168 1.235 . S
O164 Fe149 1.976 . S
O164 C158 1.287 . S
O165 Fe151 1.996 . S
O165 C158 1.255 . S
C166 O159 1.287 . S
C166 O160 1.255 . S
O167 Fe149 2.002 . S
O167 C163 1.295 . S
O168 Fe151 1.997 . S
O168 C163 1.235 . S
C169 O152 1.295 . S
C169 O153 1.235 . S
Fe170 O172 1.918 . S
Fe170 O175 1.997 . S
Fe170 O176 2.002 . S
Fe170 O181 1.976 . S
Fe170 O184 1.996 . S
Fe171 O172 1.918 . S
Fe171 O179 1.997 . S
Fe171 O182 1.996 . S
Fe171 O186 1.976 . S
Fe171 O189 2.002 . S
O172 Fe170 1.918 . S
O172 Fe171 1.918 . S
O172 Fe173 1.918 . S
Fe173 O172 1.918 . S
Fe173 O174 2.002 . S
Fe173 O183 1.976 . S
Fe173 O187 1.996 . S
Fe173 O190 1.997 . S
O174 Fe173 2.002 . S
O174 C191 1.295 . S
O175 Fe170 1.997 . S
O175 C191 1.235 . S
O176 Fe170 2.002 . S
O176 C177 1.295 . S
C177 O176 1.295 . S
C177 O179 1.235 . S
C178 O183 1.287 . S
C178 O184 1.255 . S
O179 Fe171 1.997 . S
O179 C177 1.235 . S
C180 O186 1.287 . S
C180 O187 1.255 . S
O181 Fe170 1.976 . S
O181 C188 1.287 . S
O182 Fe171 1.996 . S
O182 C188 1.255 . S
O183 Fe173 1.976 . S
O183 C178 1.287 . S
O184 Fe170 1.996 . S
O184 C178 1.255 . S
C185 O189 1.295 . S
C185 O190 1.235 . S
O186 Fe171 1.976 . S
O186 C180 1.287 . S
O187 Fe173 1.996 . S
O187 C180 1.255 . S
C188 O181 1.287 . S
C188 O182 1.255 . S
O189 Fe171 2.002 . S
O189 C185 1.295 . S
O190 Fe173 1.997 . S
O190 C185 1.235 . S
C191 O174 1.295 . S
C191 O175 1.235 . S
C192 C193 1.341 1_554 S
C192 C194 1.319 1_554 S
C192 H217 0.966 . S
C193 C192 1.341 1_556 S
C193 C209 1.349 . S
C194 C192 1.319 1_556 S
C194 C213 1.429 . S
C194 H218 0.950 . S
C195 C212 1.574 . S
C195 C214 1.368 . S
C195 H219 0.949 . S
H196 C200 0.949 . S
C197 C198 1.349 . S
C197 C199 1.327 . S
C197 H220 0.950 . S
C198 C197 1.349 . S
C198 C210 1.349 . S
C199 C197 1.327 . S
C199 C215 1.429 . S
C199 H221 0.950 . S
C200 H196 0.949 . S
C200 C208 1.574 . S
C200 C216 1.368 . S
H201 C209 0.950 . S
H202 C207 0.950 . S
H203 C208 0.949 . S
H204 C210 0.950 . S
H205 C211 0.950 . S
H206 C212 0.949 . S
C207 H202 0.950 . S
C207 C209 1.327 . S
C207 C213 1.429 . S
C208 C200 1.574 . S
C208 H203 0.949 . S
C208 C214 1.368 . S
C209 C193 1.349 . S
C209 H201 0.950 . S
C209 C207 1.327 . S
C210 C198 1.349 . S
C210 H204 0.950 . S
C210 C211 1.327 . S
C211 H205 0.950 . S
C211 C210 1.327 . S
C211 C215 1.429 . S
C212 C195 1.574 . S
C212 H206 0.949 . S
C212 C216 1.368 . S
C213 C194 1.429 . S
C213 C207 1.429 . S
C213 C214 1.523 . S
C214 C195 1.368 . S
C214 C208 1.368 . S
C214 C213 1.523 . S
C215 C199 1.429 . S
C215 C211 1.429 . S
C215 C216 1.523 . S
C216 C200 1.368 . S
C216 C212 1.368 . S
C216 C215 1.523 . S
H217 C192 0.966 . S
H218 C194 0.950 . S
H219 C195 0.949 . S
H220 C197 0.950 . S
H221 C199 0.950 . S
C222 C223 1.349 . S
C222 C224 1.327 . S
C222 H247 0.950 . S
C223 C222 1.349 . S
C223 C239 1.349 . S
C224 C222 1.327 . S
C224 C243 1.429 . S
C224 H248 0.950 . S
C225 C242 1.574 . S
C225 C244 1.368 . S
C225 H249 0.949 . S
H226 C230 0.949 . S
C227 C228 1.349 . S
C227 C229 1.327 . S
C227 H250 0.950 . S
C228 C227 1.349 . S
C228 C240 1.349 . S
C229 C227 1.327 . S
C229 C245 1.429 . S
C229 H251 0.950 . S
C230 H226 0.949 . S
C230 C238 1.574 . S
C230 C246 1.368 . S
H231 C239 0.950 . S
H232 C237 0.950 . S
H233 C238 0.949 . S
H234 C240 0.950 . S
H235 C241 0.950 . S
H236 C242 0.949 . S
C237 H232 0.950 . S
C237 C239 1.327 . S
C237 C243 1.429 . S
C238 C230 1.574 . S
C238 H233 0.949 . S
C238 C244 1.368 . S
C239 C223 1.349 . S
C239 H231 0.950 . S
C239 C237 1.327 . S
C240 C228 1.349 . S
C240 H234 0.950 . S
C240 C241 1.327 . S
C241 H235 0.950 . S
C241 C240 1.327 . S
C241 C245 1.429 . S
C242 C225 1.574 . S
C242 H236 0.949 . S
C242 C246 1.368 . S
C243 C224 1.429 . S
C243 C237 1.429 . S
C243 C244 1.523 . S
C244 C225 1.368 . S
C244 C238 1.368 . S
C244 C243 1.523 . S
C245 C229 1.429 . S
C245 C241 1.429 . S
C245 C246 1.523 . S
C246 C230 1.368 . S
C246 C242 1.368 . S
C246 C245 1.523 . S
H247 C222 0.950 . S
H248 C224 0.950 . S
H249 C225 0.949 . S
H250 C227 0.950 . S
H251 C229 0.950 . S
C252 C253 1.349 . S
C252 C254 1.327 . S
C252 H277 0.950 . S
C253 C252 1.349 . S
C253 C269 1.349 . S
C254 C252 1.327 . S
C254 C273 1.429 . S
C254 H278 0.950 . S
C255 C272 1.574 . S
C255 C274 1.368 . S
C255 H279 0.949 . S
H256 C260 0.949 . S
C257 C258 1.349 . S
C257 C259 1.327 . S
C257 H280 0.950 . S
C258 C257 1.349 . S
C258 C270 1.349 . S
C259 C257 1.327 . S
C259 C275 1.429 . S
C259 H281 0.950 . S
C260 H256 0.949 . S
C260 C268 1.574 . S
C260 C276 1.368 . S
H261 C269 0.950 1_554 S
H262 C267 0.950 . S
H263 C268 0.949 . S
H264 C270 0.950 . S
H265 C271 0.950 . S
H266 C272 0.949 . S
C267 H262 0.950 . S
C267 C269 1.327 . S
C267 C273 1.429 . S
C268 C260 1.574 . S
C268 H263 0.949 . S
C268 C274 1.368 . S
C269 C253 1.349 . S
C269 H261 0.950 1_556 S
C269 C267 1.327 . S
C270 C258 1.349 . S
C270 H264 0.950 . S
C270 C271 1.327 . S
C271 H265 0.950 . S
C271 C270 1.327 . S
C271 C275 1.429 . S
C272 C255 1.574 . S
C272 H266 0.949 . S
C272 C276 1.368 . S
C273 C254 1.429 . S
C273 C267 1.429 . S
C273 C274 1.523 . S
C274 C255 1.368 . S
C274 C268 1.368 . S
C274 C273 1.523 . S
C275 C259 1.429 . S
C275 C271 1.429 . S
C275 C276 1.523 . S
C276 C260 1.368 . S
C276 C272 1.368 . S
C276 C275 1.523 . S
H277 C252 0.950 . S
H278 C254 0.950 . S
H279 C255 0.949 . S
H280 C257 0.950 . S
H281 C259 0.950 . S
C282 C283 1.349 . S
C282 C284 1.327 . S
C282 H307 0.950 . S
C283 C282 1.349 . S
C283 C299 1.349 . S
C284 C282 1.327 . S
C284 C303 1.429 . S
C284 H308 0.950 . S
C285 C302 1.574 . S
C285 C304 1.368 . S
C285 H309 0.949 . S
H286 C290 0.949 . S
C287 C288 1.349 . S
C287 C289 1.327 . S
C287 H310 0.950 . S
C288 C287 1.349 . S
C288 C300 1.349 . S
C289 C287 1.327 . S
C289 C305 1.429 . S
C289 H311 0.950 . S
C290 H286 0.949 . S
C290 C298 1.574 . S
C290 C306 1.368 . S
H291 C299 0.950 . S
H292 C297 0.950 . S
H293 C298 0.949 . S
H294 C300 0.950 . S
H295 C301 0.950 . S
H296 C302 0.949 . S
C297 H292 0.950 . S
C297 C299 1.327 . S
C297 C303 1.429 . S
C298 C290 1.574 . S
C298 H293 0.949 . S
C298 C304 1.368 . S
C299 C283 1.349 . S
C299 H291 0.950 . S
C299 C297 1.327 . S
C300 C288 1.349 . S
C300 H294 0.950 . S
C300 C301 1.327 . S
C301 H295 0.950 . S
C301 C300 1.327 . S
C301 C305 1.429 . S
C302 C285 1.574 . S
C302 H296 0.949 . S
C302 C306 1.368 . S
C303 C284 1.429 . S
C303 C297 1.429 . S
C303 C304 1.523 . S
C304 C285 1.368 . S
C304 C298 1.368 . S
C304 C303 1.523 . S
C305 C289 1.429 . S
C305 C301 1.429 . S
C305 C306 1.523 . S
C306 C290 1.368 . S
C306 C302 1.368 . S
C306 C305 1.523 . S
H307 C282 0.950 . S
H308 C284 0.950 . S
H309 C285 0.949 . S
H310 C287 0.950 . S
H311 C289 0.950 . S
C312 C313 1.349 . S
C312 C314 1.327 . S
C312 H337 0.950 . S
C313 C312 1.349 . S
C313 C329 1.349 1_556 S
C314 C312 1.327 . S
C314 C333 1.429 . S
C314 H338 0.950 . S
C315 C332 1.574 . S
C315 C334 1.368 . S
C315 H339 0.949 . S
H316 C320 0.949 . S
C317 C318 1.349 . S
C317 C319 1.327 . S
C317 H340 0.950 . S
C318 C317 1.349 . S
C318 C330 1.349 . S
C319 C317 1.327 . S
C319 C335 1.429 . S
C319 H341 0.950 . S
C320 H316 0.949 . S
C320 C328 1.574 . S
C320 C336 1.368 . S
H321 C329 0.950 . S
H322 C327 0.932 1_554 S
H323 C328 0.949 . S
H324 C330 0.950 . S
H325 C331 0.950 . S
H326 C332 0.949 . S
C327 H322 0.932 1_556 S
C327 C329 1.327 1_556 S
C327 C333 1.429 . S
C328 C320 1.574 . S
C328 H323 0.949 . S
C328 C334 1.368 . S
C329 C313 1.349 1_554 S
C329 H321 0.950 . S
C329 C327 1.327 1_554 S
C330 C318 1.349 . S
C330 H324 0.950 . S
C330 C331 1.327 . S
C331 H325 0.950 . S
C331 C330 1.327 . S
C331 C335 1.429 . S
C332 C315 1.574 . S
C332 H326 0.949 . S
C332 C336 1.368 . S
C333 C314 1.429 . S
C333 C327 1.429 . S
C333 C334 1.523 . S
C334 C315 1.368 . S
C334 C328 1.368 . S
C334 C333 1.523 . S
C335 C319 1.429 . S
C335 C331 1.429 . S
C335 C336 1.523 . S
C336 C320 1.368 . S
C336 C332 1.368 . S
C336 C335 1.523 . S
H337 C312 0.950 . S
H338 C314 0.950 . S
H339 C315 0.949 . S
H340 C317 0.950 . S
H341 C319 0.950 . S
C342 C343 1.349 . S
C342 C344 1.327 . S
C342 H367 0.950 . S
C343 C342 1.349 . S
C343 C359 1.349 . S
C344 C342 1.327 . S
C344 C363 1.429 . S
C344 H368 0.950 . S
C345 C362 1.574 . S
C345 C364 1.368 . S
C345 H369 0.949 . S
H346 C350 0.949 . S
C347 C348 1.349 . S
C347 C349 1.327 . S
C347 H370 0.950 . S
C348 C347 1.349 . S
C348 C360 1.349 . S
C349 C347 1.327 . S
C349 C365 1.429 . S
C349 H371 0.950 . S
C350 H346 0.949 . S
C350 C358 1.574 . S
C350 C366 1.368 . S
H351 C359 0.950 . S
H352 C357 0.950 . S
H353 C358 0.949 . S
H354 C360 0.950 . S
H355 C361 0.950 . S
H356 C362 0.949 . S
C357 H352 0.950 . S
C357 C359 1.327 . S
C357 C363 1.429 . S
C358 C350 1.574 . S
C358 H353 0.949 . S
C358 C364 1.368 . S
C359 C343 1.349 . S
C359 H351 0.950 . S
C359 C357 1.327 . S
C360 C348 1.349 . S
C360 H354 0.950 . S
C360 C361 1.327 . S
C361 H355 0.950 . S
C361 C360 1.327 . S
C361 C365 1.429 . S
C362 C345 1.574 . S
C362 H356 0.949 . S
C362 C366 1.368 . S
C363 C344 1.429 . S
C363 C357 1.429 . S
C363 C364 1.523 . S
C364 C345 1.368 . S
C364 C358 1.368 . S
C364 C363 1.523 . S
C365 C349 1.429 . S
C365 C361 1.429 . S
C365 C366 1.523 . S
C366 C350 1.368 . S
C366 C362 1.368 . S
C366 C365 1.523 . S
H367 C342 0.950 . S
H368 C344 0.950 . S
H369 C345 0.949 . S
H370 C347 0.950 . S
H371 C349 0.950 . S
C372 C373 1.349 . S
C372 C374 1.327 . S
C372 H397 0.950 1_556 S
C373 C372 1.349 . S
C373 C389 1.349 . S
C374 C372 1.327 . S
C374 C393 1.429 . S
C374 H398 0.950 . S
C375 C392 1.574 . S
C375 C394 1.368 . S
C375 H399 0.949 . S
H376 C380 0.949 . S
C377 C378 1.349 . S
C377 C379 1.327 . S
C377 H400 0.950 . S
C378 C377 1.349 . S
C378 C390 1.349 . S
C379 C377 1.327 . S
C379 C395 1.429 . S
C379 H401 0.950 . S
C380 H376 0.949 . S
C380 C388 1.574 . S
C380 C396 1.368 . S
H381 C389 0.950 . S
H382 C387 0.950 . S
H383 C388 0.949 . S
H384 C390 0.950 . S
H385 C391 0.950 . S
H386 C392 0.949 . S
C387 H382 0.950 . S
C387 C389 1.327 . S
C387 C393 1.429 . S
C388 C380 1.574 . S
C388 H383 0.949 . S
C388 C394 1.368 . S
C389 C373 1.349 . S
C389 H381 0.950 . S
C389 C387 1.327 . S
C390 C378 1.349 . S
C390 H384 0.950 . S
C390 C391 1.327 . S
C391 H385 0.950 . S
C391 C390 1.327 . S
C391 C395 1.429 . S
C392 C375 1.574 . S
C392 H386 0.949 . S
C392 C396 1.368 . S
C393 C374 1.429 . S
C393 C387 1.429 . S
C393 C394 1.523 . S
C394 C375 1.368 . S
C394 C388 1.368 . S
C394 C393 1.523 . S
C395 C379 1.429 . S
C395 C391 1.429 . S
C395 C396 1.523 . S
C396 C380 1.368 . S
C396 C392 1.368 . S
C396 C395 1.523 . S
H397 C372 0.950 1_554 S
H398 C374 0.950 . S
H399 C375 0.949 . S
H400 C377 0.950 . S
H401 C379 0.950 . S
C402 C403 1.349 . S
C402 C404 1.327 . S
C402 H427 0.950 . S
C403 C402 1.349 . S
C403 C419 1.349 . S
C404 C402 1.327 . S
C404 C423 1.429 . S
C404 H428 0.950 . S
C405 C422 1.574 . S
C405 C424 1.368 . S
C405 H429 0.949 . S
H406 C410 0.949 . S
C407 C408 1.349 . S
C407 C409 1.327 . S
C407 H430 0.950 . S
C408 C407 1.349 . S
C408 C420 1.349 . S
C409 C407 1.327 . S
C409 C425 1.429 . S
C409 H431 0.950 . S
C410 H406 0.949 . S
C410 C418 1.574 . S
C410 C426 1.368 . S
H411 C419 0.950 . S
H412 C417 0.950 . S
H413 C418 0.949 . S
H414 C420 0.950 . S
H415 C421 0.950 . S
H416 C422 0.949 . S
C417 H412 0.950 . S
C417 C419 1.327 . S
C417 C423 1.429 . S
C418 C410 1.574 . S
C418 H413 0.949 . S
C418 C424 1.368 . S
C419 C403 1.349 . S
C419 H411 0.950 . S
C419 C417 1.327 . S
C420 C408 1.349 . S
C420 H414 0.950 . S
C420 C421 1.327 . S
C421 H415 0.950 . S
C421 C420 1.327 . S
C421 C425 1.429 . S
C422 C405 1.574 . S
C422 H416 0.949 . S
C422 C426 1.368 . S
C423 C404 1.429 . S
C423 C417 1.429 . S
C423 C424 1.523 . S
C424 C405 1.368 . S
C424 C418 1.368 . S
C424 C423 1.523 . S
C425 C409 1.429 . S
C425 C421 1.429 . S
C425 C426 1.523 . S
C426 C410 1.368 . S
C426 C422 1.368 . S
C426 C425 1.523 . S
H427 C402 0.950 . S
H428 C404 0.950 . S
H429 C405 0.949 . S
H430 C407 0.950 . S
H431 C409 0.950 . S
C432 C433 1.349 1_554 S
C432 C434 1.327 1_554 S
C432 H457 0.950 . S
C433 C432 1.349 1_556 S
C433 C449 1.349 . S
C434 C432 1.327 1_556 S
C434 C453 1.429 . S
C434 H458 0.950 1_556 S
C435 C452 1.574 . S
C435 C454 1.368 . S
C435 H459 0.949 . S
H436 C440 0.949 . S
C437 C438 1.349 . S
C437 C439 1.327 . S
C437 H460 0.950 . S
C438 C437 1.349 . S
C438 C450 1.349 . S
C439 C437 1.327 . S
C439 C455 1.429 . S
C439 H461 0.950 . S
C440 H436 0.949 . S
C440 C448 1.574 . S
C440 C456 1.368 . S
H441 C449 0.950 . S
H442 C447 0.950 . S
H443 C448 0.949 . S
H444 C450 0.950 . S
H445 C451 0.950 . S
H446 C452 0.949 . S
C447 H442 0.950 . S
C447 C449 1.327 . S
C447 C453 1.429 . S
C448 C440 1.574 . S
C448 H443 0.949 . S
C448 C454 1.368 . S
C449 C433 1.349 . S
C449 H441 0.950 . S
C449 C447 1.327 . S
C450 C438 1.349 . S
C450 H444 0.950 . S
C450 C451 1.327 . S
C451 H445 0.950 . S
C451 C450 1.327 . S
C451 C455 1.429 . S
C452 C435 1.574 . S
C452 H446 0.949 . S
C452 C456 1.368 . S
C453 C434 1.429 . S
C453 C447 1.429 . S
C453 C454 1.523 . S
C454 C435 1.368 . S
C454 C448 1.368 . S
C454 C453 1.523 . S
C455 C439 1.429 . S
C455 C451 1.429 . S
C455 C456 1.523 . S
C456 C440 1.368 . S
C456 C452 1.368 . S
C456 C455 1.523 . S
H457 C432 0.950 . S
H458 C434 0.950 1_554 S
H459 C435 0.949 . S
H460 C437 0.950 . S
H461 C439 0.950 . S
C462 C463 1.349 . S
C462 C464 1.327 . S
C462 H487 0.950 . S
C463 C462 1.349 . S
C463 C479 1.349 . S
C464 C462 1.327 . S
C464 C483 1.429 . S
C464 H488 0.950 . S
C465 C482 1.574 . S
C465 C484 1.368 . S
C465 H489 0.949 . S
H466 C470 0.949 . S
C467 C468 1.349 . S
C467 C469 1.327 . S
C467 H490 0.950 . S
C468 C467 1.349 . S
C468 C480 1.349 . S
C469 C467 1.327 . S
C469 C485 1.429 . S
C469 H491 0.950 . S
C470 H466 0.949 . S
C470 C478 1.574 . S
C470 C486 1.368 . S
H471 C479 0.950 . S
H472 C477 0.950 . S
H473 C478 0.949 . S
H474 C480 0.950 . S
H475 C481 0.950 . S
H476 C482 0.949 . S
C477 H472 0.950 . S
C477 C479 1.327 . S
C477 C483 1.429 . S
C478 C470 1.574 . S
C478 H473 0.949 . S
C478 C484 1.368 . S
C479 C463 1.349 . S
C479 H471 0.950 . S
C479 C477 1.327 . S
C480 C468 1.349 . S
C480 H474 0.950 . S
C480 C481 1.327 . S
C481 H475 0.950 . S
C481 C480 1.327 . S
C481 C485 1.429 . S
C482 C465 1.574 . S
C482 H476 0.949 . S
C482 C486 1.368 . S
C483 C464 1.429 . S
C483 C477 1.429 . S
C483 C484 1.523 . S
C484 C465 1.368 . S
C484 C478 1.368 . S
C484 C483 1.523 . S
C485 C469 1.429 . S
C485 C481 1.429 . S
C485 C486 1.523 . S
C486 C470 1.368 . S
C486 C482 1.368 . S
C486 C485 1.523 . S
H487 C462 0.950 . S
H488 C464 0.950 . S
H489 C465 0.949 . S
H490 C467 0.950 . S
H491 C469 0.950 . S
C492 C493 1.349 . S
C492 C494 1.327 . S
C492 H517 0.950 . S
C493 C492 1.349 . S
C493 C509 1.349 1_556 S
C494 C492 1.327 . S
C494 C513 1.429 . S
C494 H518 0.950 . S
C495 C512 1.574 . S
C495 C514 1.368 . S
C495 H519 0.949 . S
H496 C500 0.949 . S
C497 C498 1.349 . S
C497 C499 1.327 . S
C497 H520 0.950 . S
C498 C497 1.349 . S
C498 C510 1.349 . S
C499 C497 1.327 . S
C499 C515 1.429 . S
C499 H521 0.950 . S
C500 H496 0.949 . S
C500 C508 1.574 . S
C500 C516 1.368 . S
H501 C509 0.950 . S
H502 C507 0.950 1_554 S
H503 C508 0.949 . S
H504 C510 0.950 . S
H505 C511 0.950 . S
H506 C512 0.949 . S
C507 H502 0.950 1_556 S
C507 C509 1.327 1_556 S
C507 C513 1.429 . S
C508 C500 1.574 . S
C508 H503 0.949 . S
C508 C514 1.368 . S
C509 C493 1.349 1_554 S
C509 H501 0.950 . S
C509 C507 1.327 1_554 S
C510 C498 1.349 . S
C510 H504 0.950 . S
C510 C511 1.327 . S
C511 H505 0.950 . S
C511 C510 1.327 . S
C511 C515 1.429 . S
C512 C495 1.574 . S
C512 H506 0.949 . S
C512 C516 1.368 . S
C513 C494 1.429 . S
C513 C507 1.429 . S
C513 C514 1.523 . S
C514 C495 1.368 . S
C514 C508 1.368 . S
C514 C513 1.523 . S
C515 C499 1.429 . S
C515 C511 1.429 . S
C515 C516 1.523 . S
C516 C500 1.368 . S
C516 C512 1.368 . S
C516 C515 1.523 . S
H517 C492 0.950 . S
H518 C494 0.950 . S
H519 C495 0.949 . S
H520 C497 0.950 . S
H521 C499 0.950 . S
C522 C523 1.349 . S
C522 C524 1.327 . S
C522 H547 0.950 . S
C523 C522 1.349 . S
C523 C539 1.349 . S
C524 C522 1.327 . S
C524 C543 1.429 . S
C524 H548 0.950 . S
C525 C542 1.574 . S
C525 C544 1.368 . S
C525 H549 0.949 . S
H526 C530 0.949 . S
C527 C528 1.349 . S
C527 C529 1.327 . S
C527 H550 0.950 . S
C528 C527 1.349 . S
C528 C540 1.349 . S
C529 C527 1.327 . S
C529 C545 1.429 . S
C529 H551 0.950 . S
C530 H526 0.949 . S
C530 C538 1.574 . S
C530 C546 1.368 . S
H531 C539 0.950 . S
H532 C537 0.950 . S
H533 C538 0.949 . S
H534 C540 0.950 . S
H535 C541 0.950 . S
H536 C542 0.949 . S
C537 H532 0.950 . S
C537 C539 1.327 . S
C537 C543 1.429 . S
C538 C530 1.574 . S
C538 H533 0.949 . S
C538 C544 1.368 . S
C539 C523 1.349 . S
C539 H531 0.950 . S
C539 C537 1.327 . S
C540 C528 1.349 . S
C540 H534 0.950 . S
C540 C541 1.327 . S
C541 H535 0.950 . S
C541 C540 1.327 . S
C541 C545 1.429 . S
C542 C525 1.574 . S
C542 H536 0.949 . S
C542 C546 1.368 . S
C543 C524 1.429 . S
C543 C537 1.429 . S
C543 C544 1.523 . S
C544 C525 1.368 . S
C544 C538 1.368 . S
C544 C543 1.523 . S
C545 C529 1.429 . S
C545 C541 1.429 . S
C545 C546 1.523 . S
C546 C530 1.368 . S
C546 C542 1.368 . S
C546 C545 1.523 . S
H547 C522 0.950 . S
H548 C524 0.950 . S
H549 C525 0.949 . S
H550 C527 0.950 . S
H551 C529 0.950 . S
C552 C553 1.349 1_554 S
C552 C554 1.327 1_554 S
C552 H577 0.950 . S
C553 C552 1.349 1_556 S
C553 C569 1.349 . S
C554 C552 1.327 1_556 S
C554 C573 1.429 . S
C554 H578 0.950 1_556 S
C555 C572 1.573 . S
C555 C574 1.368 . S
C555 H579 0.949 . S
H556 C560 0.949 . S
C557 C558 1.349 . S
C557 C559 1.327 . S
C557 H580 0.950 . S
C558 C557 1.349 . S
C558 C570 1.349 . S
C559 C557 1.327 . S
C559 C575 1.429 . S
C559 H581 0.950 . S
C560 H556 0.949 . S
C560 C568 1.574 . S
C560 C576 1.368 1_565 S
H561 C569 0.950 . S
H562 C567 0.950 . S
H563 C568 0.949 . S
H564 C570 0.950 . S
H565 C571 0.950 . S
H566 C572 0.950 1_545 S
C567 H562 0.950 . S
C567 C569 1.327 . S
C567 C573 1.429 . S
C568 C560 1.574 . S
C568 H563 0.949 . S
C568 C574 1.368 . S
C569 C553 1.349 . S
C569 H561 0.950 . S
C569 C567 1.327 . S
C570 C558 1.349 . S
C570 H564 0.950 . S
C570 C571 1.327 . S
C571 H565 0.950 . S
C571 C570 1.327 . S
C571 C575 1.429 . S
C572 C555 1.573 . S
C572 H566 0.950 1_565 S
C572 C576 1.368 1_565 S
C573 C554 1.429 . S
C573 C567 1.429 . S
C573 C574 1.523 . S
C574 C555 1.368 . S
C574 C568 1.368 . S
C574 C573 1.523 . S
C575 C559 1.429 . S
C575 C571 1.429 . S
C575 C576 1.523 . S
C576 C560 1.368 1_545 S
C576 C572 1.368 1_545 S
C576 C575 1.523 . S
H577 C552 0.950 . S
H578 C554 0.950 1_554 S
H579 C555 0.949 . S
H580 C557 0.950 . S
H581 C559 0.950 . S
C582 C583 1.349 . S
C582 C584 1.327 . S
C582 H607 0.950 . S
C583 C582 1.349 . S
C583 C599 1.349 . S
C584 C582 1.327 . S
C584 C603 1.429 . S
C584 H608 0.950 . S
C585 C602 1.574 . S
C585 C604 1.368 . S
C585 H609 0.949 . S
H586 C590 0.949 1_565 S
C587 C588 1.349 . S
C587 C589 1.327 . S
C587 H610 0.950 . S
C588 C587 1.349 . S
C588 C600 1.349 . S
C589 C587 1.327 . S
C589 C605 1.429 . S
C589 H611 0.950 . S
C590 H586 0.949 1_545 S
C590 C598 1.574 . S
C590 C606 1.368 1_545 S
H591 C599 0.950 . S
H592 C597 0.950 . S
H593 C598 0.949 . S
H594 C600 0.950 . S
H595 C601 0.950 . S
H596 C602 0.949 1_565 S
C597 H592 0.950 . S
C597 C599 1.327 . S
C597 C603 1.429 . S
C598 C590 1.574 . S
C598 H593 0.949 . S
C598 C604 1.368 . S
C599 C583 1.349 . S
C599 H591 0.950 . S
C599 C597 1.327 . S
C600 C588 1.349 . S
C600 H594 0.950 . S
C600 C601 1.327 . S
C601 H595 0.950 . S
C601 C600 1.327 . S
C601 C605 1.429 . S
C602 C585 1.574 . S
C602 H596 0.949 1_545 S
C602 C606 1.368 1_545 S
C603 C584 1.429 . S
C603 C597 1.429 . S
C603 C604 1.523 . S
C604 C585 1.368 . S
C604 C598 1.368 . S
C604 C603 1.523 . S
C605 C589 1.429 . S
C605 C601 1.429 . S
C605 C606 1.523 . S
C606 C590 1.368 1_565 S
C606 C602 1.368 1_565 S
C606 C605 1.523 . S
H607 C582 0.950 . S
H608 C584 0.950 . S
H609 C585 0.949 . S
H610 C587 0.950 . S
H611 C589 0.950 . S
C612 C613 1.349 . S
C612 C614 1.327 . S
C612 H637 0.950 . S
C613 C612 1.349 . S
C613 C629 1.349 . S
C614 C612 1.327 . S
C614 C633 1.429 . S
C614 H638 0.950 . S
C615 C632 1.574 1_565 S
C615 C634 1.368 . S
C615 H639 0.947 1_565 S
H616 C620 0.949 . S
C617 C618 1.349 . S
C617 C619 1.327 . S
C617 H640 0.950 . S
C618 C617 1.349 . S
C618 C630 1.349 . S
C619 C617 1.327 . S
C619 C635 1.429 . S
C619 H641 0.950 . S
C620 H616 0.949 . S
C620 C628 1.574 . S
C620 C636 1.368 1_565 S
H621 C629 0.950 . S
H622 C627 0.950 . S
H623 C628 0.949 . S
H624 C630 0.950 . S
H625 C631 0.950 . S
H626 C632 0.949 . S
C627 H622 0.950 . S
C627 C629 1.327 . S
C627 C633 1.429 . S
C628 C620 1.574 . S
C628 H623 0.949 . S
C628 C634 1.368 . S
C629 C613 1.349 . S
C629 H621 0.950 . S
C629 C627 1.327 . S
C630 C618 1.349 . S
C630 H624 0.950 . S
C630 C631 1.327 . S
C631 H625 0.950 . S
C631 C630 1.327 . S
C631 C635 1.429 . S
C632 C615 1.574 1_545 S
C632 H626 0.949 . S
C632 C636 1.368 . S
C633 C614 1.429 . S
C633 C627 1.429 . S
C633 C634 1.523 . S
C634 C615 1.368 . S
C634 C628 1.368 . S
C634 C633 1.523 . S
C635 C619 1.429 . S
C635 C631 1.429 . S
C635 C636 1.523 . S
C636 C620 1.368 1_545 S
C636 C632 1.368 . S
C636 C635 1.523 . S
H637 C612 0.950 . S
H638 C614 0.950 . S
H639 C615 0.947 1_545 S
H640 C617 0.950 . S
H641 C619 0.950 . S
C642 C643 1.349 . S
C642 C644 1.327 . S
C642 H667 0.950 . S
C643 C642 1.349 . S
C643 C659 1.349 . S
C644 C642 1.327 . S
C644 C663 1.429 . S
C644 H668 0.950 . S
C645 C662 1.574 . S
C645 C664 1.368 . S
C645 H669 0.949 . S
H646 C650 0.949 . S
C647 C648 1.349 . S
C647 C649 1.327 . S
C647 H670 0.950 . S
C648 C647 1.349 . S
C648 C660 1.349 . S
C649 C647 1.327 . S
C649 C665 1.429 . S
C649 H671 0.963 . S
C650 H646 0.949 . S
C650 C658 1.574 1_565 S
C650 C666 1.368 . S
H651 C659 0.950 . S
H652 C657 0.950 . S
H653 C658 0.949 1_565 S
H654 C660 0.950 . S
H655 C661 0.950 . S
H656 C662 0.949 . S
C657 H652 0.950 . S
C657 C659 1.327 . S
C657 C663 1.429 . S
C658 C650 1.574 1_545 S
C658 H653 0.949 1_545 S
C658 C664 1.368 . S
C659 C643 1.349 . S
C659 H651 0.950 . S
C659 C657 1.327 . S
C660 C648 1.349 . S
C660 H654 0.950 . S
C660 C661 1.327 . S
C661 H655 0.950 . S
C661 C660 1.327 . S
C661 C665 1.429 . S
C662 C645 1.574 . S
C662 H656 0.949 . S
C662 C666 1.368 1_545 S
C663 C644 1.429 . S
C663 C657 1.429 . S
C663 C664 1.523 . S
C664 C645 1.368 . S
C664 C658 1.368 . S
C664 C663 1.523 . S
C665 C649 1.429 . S
C665 C661 1.429 . S
C665 C666 1.523 . S
C666 C650 1.368 . S
C666 C662 1.368 1_565 S
C666 C665 1.523 . S
H667 C642 0.950 . S
H668 C644 0.950 . S
H669 C645 0.949 . S
H670 C647 0.950 . S
H671 C649 0.963 . S
C672 C673 1.349 . S
C672 C674 1.327 . S
C672 H697 0.950 . S
C673 C672 1.349 . S
C673 C689 1.349 . S
C674 C672 1.327 . S
C674 C693 1.429 . S
C674 H698 0.950 . S
C675 C692 1.574 . S
C675 C694 1.368 . S
C675 H699 0.949 . S
H676 C680 0.949 . S
C677 C678 1.349 . S
C677 C679 1.327 . S
C677 H700 0.950 . S
C678 C677 1.349 . S
C678 C690 1.349 . S
C679 C677 1.327 . S
C679 C695 1.429 . S
C679 H701 0.950 . S
C680 H676 0.949 . S
C680 C688 1.574 . S
C680 C696 1.368 . S
H681 C689 0.950 . S
H682 C687 0.950 . S
H683 C688 0.949 . S
H684 C690 0.950 . S
H685 C691 0.950 . S
H686 C692 0.949 . S
C687 H682 0.950 . S
C687 C689 1.327 . S
C687 C693 1.429 . S
C688 C680 1.574 . S
C688 H683 0.949 . S
C688 C694 1.368 . S
C689 C673 1.349 . S
C689 H681 0.950 . S
C689 C687 1.327 . S
C690 C678 1.349 . S
C690 H684 0.950 . S
C690 C691 1.327 . S
C691 H685 0.950 . S
C691 C690 1.327 . S
C691 C695 1.429 . S
C692 C675 1.574 . S
C692 H686 0.949 . S
C692 C696 1.368 . S
C693 C674 1.429 . S
C693 C687 1.429 . S
C693 C694 1.523 . S
C694 C675 1.368 . S
C694 C688 1.368 . S
C694 C693 1.523 . S
C695 C679 1.429 . S
C695 C691 1.429 . S
C695 C696 1.523 . S
C696 C680 1.368 . S
C696 C692 1.368 . S
C696 C695 1.523 . S
H697 C672 0.950 . S
H698 C674 0.950 . S
H699 C675 0.949 . S
H700 C677 0.950 . S
H701 C679 0.950 . S
C702 C703 1.349 . S
C702 C704 1.327 . S
C702 H727 0.950 . S
C703 C702 1.349 . S
C703 C719 1.349 . S
C704 C702 1.327 . S
C704 C723 1.429 . S
C704 H728 0.950 . S
C705 C722 1.574 . S
C705 C724 1.368 . S
C705 H729 0.949 . S
H706 C710 0.949 . S
C707 C708 1.349 . S
C707 C709 1.327 . S
C707 H730 0.950 . S
C708 C707 1.349 . S
C708 C720 1.349 . S
C709 C707 1.327 . S
C709 C725 1.429 . S
C709 H731 0.950 . S
C710 H706 0.949 . S
C710 C718 1.574 . S
C710 C726 1.368 . S
H711 C719 0.950 . S
H712 C717 0.950 . S
H713 C718 0.949 . S
H714 C720 0.950 . S
H715 C721 0.950 . S
H716 C722 0.949 . S
C717 H712 0.950 . S
C717 C719 1.327 . S
C717 C723 1.429 . S
C718 C710 1.574 . S
C718 H713 0.949 . S
C718 C724 1.368 . S
C719 C703 1.349 . S
C719 H711 0.950 . S
C719 C717 1.327 . S
C720 C708 1.349 . S
C720 H714 0.950 . S
C720 C721 1.327 . S
C721 H715 0.950 . S
C721 C720 1.327 . S
C721 C725 1.429 . S
C722 C705 1.574 . S
C722 H716 0.949 . S
C722 C726 1.368 . S
C723 C704 1.429 . S
C723 C717 1.429 . S
C723 C724 1.523 . S
C724 C705 1.368 . S
C724 C718 1.368 . S
C724 C723 1.523 . S
C725 C709 1.429 . S
C725 C721 1.429 . S
C725 C726 1.523 . S
C726 C710 1.368 . S
C726 C722 1.368 . S
C726 C725 1.523 . S
H727 C702 0.950 . S
H728 C704 0.950 . S
H729 C705 0.949 . S
H730 C707 0.950 . S
H731 C709 0.950 . S
C732 C733 1.349 . S
C732 C734 1.327 . S
C732 H757 0.950 . S
C733 C732 1.349 . S
C733 C749 1.349 . S
C734 C732 1.327 . S
C734 C753 1.429 . S
C734 H758 0.950 . S
C735 C752 1.574 . S
C735 C754 1.368 . S
C735 H759 0.949 . S
H736 C740 0.949 . S
C737 C738 1.349 . S
C737 C739 1.327 . S
C737 H760 0.950 . S
C738 C737 1.349 . S
C738 C750 1.349 . S
C739 C737 1.327 . S
C739 C755 1.429 . S
C739 H761 0.950 . S
C740 H736 0.949 . S
C740 C748 1.574 . S
C740 C756 1.368 . S
H741 C749 0.950 . S
H742 C747 0.950 . S
H743 C748 0.949 . S
H744 C750 0.950 . S
H745 C751 0.950 . S
H746 C752 0.949 . S
C747 H742 0.950 . S
C747 C749 1.327 . S
C747 C753 1.429 . S
C748 C740 1.574 . S
C748 H743 0.949 . S
C748 C754 1.368 . S
C749 C733 1.349 . S
C749 H741 0.950 . S
C749 C747 1.327 . S
C750 C738 1.349 . S
C750 H744 0.950 . S
C750 C751 1.327 . S
C751 H745 0.950 . S
C751 C750 1.327 . S
C751 C755 1.429 . S
C752 C735 1.574 . S
C752 H746 0.949 . S
C752 C756 1.368 . S
C753 C734 1.429 . S
C753 C747 1.429 . S
C753 C754 1.523 . S
C754 C735 1.368 . S
C754 C748 1.368 . S
C754 C753 1.523 . S
C755 C739 1.429 . S
C755 C751 1.429 . S
C755 C756 1.523 . S
C756 C740 1.368 . S
C756 C752 1.368 . S
C756 C755 1.523 . S
H757 C732 0.950 . S
H758 C734 0.950 . S
H759 C735 0.949 . S
H760 C737 0.950 . S
H761 C739 0.950 . S
C762 C763 1.349 . S
C762 C764 1.327 . S
C762 H787 0.950 . S
C763 C762 1.349 . S
C763 C779 1.349 . S
C764 C762 1.327 . S
C764 C783 1.429 . S
C764 H788 0.950 . S
C765 C782 1.574 . S
C765 C784 1.368 . S
C765 H789 0.949 . S
H766 C770 0.949 . S
C767 C768 1.349 . S
C767 C769 1.327 . S
C767 H790 0.950 . S
C768 C767 1.349 . S
C768 C780 1.349 . S
C769 C767 1.327 . S
C769 C785 1.429 . S
C769 H791 0.950 . S
C770 H766 0.949 . S
C770 C778 1.574 . S
C770 C786 1.368 . S
H771 C779 0.950 . S
H772 C777 0.950 . S
H773 C778 0.949 . S
H774 C780 0.950 . S
H775 C781 0.950 . S
H776 C782 0.949 . S
C777 H772 0.950 . S
C777 C779 1.327 . S
C777 C783 1.429 . S
C778 C770 1.574 . S
C778 H773 0.949 . S
C778 C784 1.368 . S
C779 C763 1.349 . S
C779 H771 0.950 . S
C779 C777 1.327 . S
C780 C768 1.349 . S
C780 H774 0.950 . S
C780 C781 1.327 . S
C781 H775 0.950 . S
C781 C780 1.327 . S
C781 C785 1.429 . S
C782 C765 1.574 . S
C782 H776 0.949 . S
C782 C786 1.368 . S
C783 C764 1.429 . S
C783 C777 1.429 . S
C783 C784 1.523 . S
C784 C765 1.368 . S
C784 C778 1.368 . S
C784 C783 1.523 . S
C785 C769 1.429 . S
C785 C781 1.429 . S
C785 C786 1.523 . S
C786 C770 1.368 . S
C786 C782 1.368 . S
C786 C785 1.523 . S
H787 C762 0.950 . S
H788 C764 0.950 . S
H789 C765 0.949 . S
H790 C767 0.950 . S
H791 C769 0.950 . S
C792 C793 1.349 . S
C792 C794 1.327 . S
C792 H817 0.950 . S
C793 C792 1.349 . S
C793 C809 1.349 . S
C794 C792 1.327 . S
C794 C813 1.429 . S
C794 H818 0.950 . S
C795 C812 1.574 . S
C795 C814 1.368 . S
C795 H819 0.949 . S
H796 C800 0.949 . S
C797 C798 1.349 . S
C797 C799 1.327 . S
C797 H820 0.950 . S
C798 C797 1.349 . S
C798 C810 1.349 . S
C799 C797 1.327 . S
C799 C815 1.429 . S
C799 H821 0.950 . S
C800 H796 0.949 . S
C800 C808 1.574 . S
C800 C816 1.368 . S
H801 C809 0.950 . S
H802 C807 0.950 . S
H803 C808 0.949 . S
H804 C810 0.950 . S
H805 C811 0.950 . S
H806 C812 0.949 . S
C807 H802 0.950 . S
C807 C809 1.327 . S
C807 C813 1.429 . S
C808 C800 1.574 . S
C808 H803 0.949 . S
C808 C814 1.368 . S
C809 C793 1.349 . S
C809 H801 0.950 . S
C809 C807 1.327 . S
C810 C798 1.349 . S
C810 H804 0.950 . S
C810 C811 1.327 . S
C811 H805 0.950 . S
C811 C810 1.327 . S
C811 C815 1.429 . S
C812 C795 1.574 . S
C812 H806 0.949 . S
C812 C816 1.368 . S
C813 C794 1.429 . S
C813 C807 1.429 . S
C813 C814 1.523 . S
C814 C795 1.368 . S
C814 C808 1.368 . S
C814 C813 1.523 . S
C815 C799 1.429 . S
C815 C811 1.429 . S
C815 C816 1.523 . S
C816 C800 1.368 . S
C816 C812 1.368 . S
C816 C815 1.523 . S
H817 C792 0.950 . S
H818 C794 0.950 . S
H819 C795 0.949 . S
H820 C797 0.950 . S
H821 C799 0.950 . S
C822 C823 1.349 . S
C822 C824 1.327 . S
C822 H847 0.950 . S
C823 C822 1.349 . S
C823 C839 1.349 . S
C824 C822 1.327 . S
C824 C843 1.429 . S
C824 H848 0.950 . S
C825 C842 1.574 . S
C825 C844 1.368 . S
C825 H849 0.949 . S
H826 C830 0.949 . S
C827 C828 1.349 . S
C827 C829 1.327 . S
C827 H850 0.950 . S
C828 C827 1.349 . S
C828 C840 1.349 . S
C829 C827 1.327 . S
C829 C845 1.429 . S
C829 H851 0.950 . S
C830 H826 0.949 . S
C830 C838 1.574 . S
C830 C846 1.368 . S
H831 C839 0.950 . S
H832 C837 0.950 . S
H833 C838 0.949 . S
H834 C840 0.950 . S
H835 C841 0.950 . S
H836 C842 0.949 . S
C837 H832 0.950 . S
C837 C839 1.327 . S
C837 C843 1.429 . S
C838 C830 1.574 . S
C838 H833 0.949 . S
C838 C844 1.368 . S
C839 C823 1.349 . S
C839 H831 0.950 . S
C839 C837 1.327 . S
C840 C828 1.349 . S
C840 H834 0.950 . S
C840 C841 1.327 . S
C841 H835 0.950 . S
C841 C840 1.327 . S
C841 C845 1.429 . S
C842 C825 1.574 . S
C842 H836 0.949 . S
C842 C846 1.368 . S
C843 C824 1.429 . S
C843 C837 1.429 . S
C843 C844 1.523 . S
C844 C825 1.368 . S
C844 C838 1.368 . S
C844 C843 1.523 . S
C845 C829 1.429 . S
C845 C841 1.429 . S
C845 C846 1.523 . S
C846 C830 1.368 . S
C846 C842 1.368 . S
C846 C845 1.523 . S
H847 C822 0.950 . S
H848 C824 0.950 . S
H849 C825 0.949 . S
H850 C827 0.950 . S
H851 C829 0.950 . S
C852 C853 1.349 . S
C852 C854 1.327 . S
C852 H877 0.950 . S
C853 C852 1.349 . S
C853 C869 1.349 . S
C854 C852 1.327 . S
C854 C873 1.429 . S
C854 H878 0.950 . S
C855 C872 1.574 . S
C855 C874 1.368 . S
C855 H879 0.949 . S
H856 C860 0.949 . S
C857 C858 1.349 . S
C857 C859 1.327 . S
C857 H880 0.950 . S
C858 C857 1.349 . S
C858 C870 1.349 . S
C859 C857 1.327 . S
C859 C875 1.429 . S
C859 H881 0.950 . S
C860 H856 0.949 . S
C860 C868 1.574 . S
C860 C876 1.368 . S
H861 C869 0.950 . S
H862 C867 0.950 . S
H863 C868 0.949 . S
H864 C870 0.950 . S
H865 C871 0.950 . S
H866 C872 0.949 . S
C867 H862 0.950 . S
C867 C869 1.327 . S
C867 C873 1.429 . S
C868 C860 1.574 . S
C868 H863 0.949 . S
C868 C874 1.368 . S
C869 C853 1.349 . S
C869 H861 0.950 . S
C869 C867 1.327 . S
C870 C858 1.349 . S
C870 H864 0.950 . S
C870 C871 1.327 . S
C871 H865 0.950 . S
C871 C870 1.327 . S
C871 C875 1.429 . S
C872 C855 1.574 . S
C872 H866 0.949 . S
C872 C876 1.368 . S
C873 C854 1.429 . S
C873 C867 1.429 . S
C873 C874 1.523 . S
C874 C855 1.368 . S
C874 C868 1.368 . S
C874 C873 1.523 . S
C875 C859 1.429 . S
C875 C871 1.429 . S
C875 C876 1.523 . S
C876 C860 1.368 . S
C876 C872 1.368 . S
C876 C875 1.523 . S
H877 C852 0.950 . S
H878 C854 0.950 . S
H879 C855 0.949 . S
H880 C857 0.950 . S
H881 C859 0.950 . S
C882 C883 1.349 . S
C882 C884 1.327 . S
C882 H907 0.950 . S
C883 C882 1.349 . S
C883 C899 1.349 . S
C884 C882 1.327 . S
C884 C903 1.429 . S
C884 H908 0.950 . S
C885 C902 1.574 . S
C885 C904 1.368 . S
C885 H909 0.949 . S
H886 C890 0.949 . S
C887 C888 1.349 . S
C887 C889 1.327 . S
C887 H910 0.950 . S
C888 C887 1.349 . S
C888 C900 1.349 . S
C889 C887 1.327 . S
C889 C905 1.429 . S
C889 H911 0.950 . S
C890 H886 0.949 . S
C890 C898 1.574 . S
C890 C906 1.368 . S
H891 C899 0.950 . S
H892 C897 0.950 . S
H893 C898 0.949 . S
H894 C900 0.950 . S
H895 C901 0.950 . S
H896 C902 0.949 . S
C897 H892 0.950 . S
C897 C899 1.327 . S
C897 C903 1.429 . S
C898 C890 1.574 . S
C898 H893 0.949 . S
C898 C904 1.368 . S
C899 C883 1.349 . S
C899 H891 0.950 . S
C899 C897 1.327 . S
C900 C888 1.349 . S
C900 H894 0.950 . S
C900 C901 1.327 . S
C901 H895 0.950 . S
C901 C900 1.327 . S
C901 C905 1.429 . S
C902 C885 1.574 . S
C902 H896 0.949 . S
C902 C906 1.368 . S
C903 C884 1.429 . S
C903 C897 1.429 . S
C903 C904 1.523 . S
C904 C885 1.368 . S
C904 C898 1.368 . S
C904 C903 1.523 . S
C905 C889 1.429 . S
C905 C901 1.429 . S
C905 C906 1.523 . S
C906 C890 1.368 . S
C906 C902 1.368 . S
C906 C905 1.523 . S
H907 C882 0.950 . S
H908 C884 0.950 . S
H909 C885 0.949 . S
H910 C887 0.950 . S
H911 C889 0.950 . S
C193 N2 1.554 1_556 S
C198 C147 1.542 . S
C228 C111 1.543 . S
C223 N15 1.554 . S
C258 C134 1.538 . S
C253 N28 1.529 1_556 S
C288 C122 1.538 . S
C283 N41 1.531 . S
C318 C191 1.542 . S
C313 N54 1.554 1_556 S
C348 C155 1.543 . S
C343 N67 1.554 . S
C373 N80 1.529 1_556 S
C378 C178 1.538 . S
C408 C166 1.538 . S
C403 N93 1.532 . S
C433 N5 1.502 1_556 S
C438 C188 1.508 . S
C468 C158 1.508 . S
C463 N18 1.502 . S
C493 N31 1.532 1_556 S
C498 C177 1.530 . S
C523 N44 1.531 . S
C528 C163 1.530 . S
C558 C144 1.508 . S
C553 N57 1.502 1_556 S
C583 N70 1.502 . S
C588 C114 1.508 . S
C618 C133 1.530 . S
C613 N83 1.532 1_556 S
C648 C119 1.530 . S
C643 N96 1.532 . S
C678 C169 1.534 . S
C673 N1 1.542 . S
C708 C185 1.535 . S
C703 N14 1.542 . S
C733 N27 1.487 . S
C738 C156 1.502 . S
C768 C180 1.502 . S
C763 N40 1.486 . S
C798 C125 1.534 . S
C793 N53 1.542 . S
C823 N66 1.542 . S
C828 C141 1.534 . S
C853 N79 1.487 . S
C858 C112 1.502 . S
C883 N92 1.487 . S
C888 C136 1.502 . S
