# Generated by pormake.
# Topology rtl, (3,6)-cn, num edge types: 1
# Building blocks:
#     Node 0, Type 0, BuildingBlock: BETDIP_clean_linker_0, # of connection points: 3
#     Node 1, Type 0, BuildingBlock: BETDIP_clean_linker_0, # of connection points: 3
#     Node 2, Type 0, BuildingBlock: BETDIP_clean_linker_0, # of connection points: 3
#     Node 3, Type 0, BuildingBlock: BETDIP_clean_linker_0, # of connection points: 3
#     Node 4, Type 1, BuildingBlock: LEVNOQ01_clean_sbu_1, # of connection points: 6
#     Node 5, Type 1, BuildingBlock: LEVNOQ01_clean_sbu_1, # of connection points: 6
#     Edge 6, Type (0, 1), BuildingBlock: FUNLAD_clean_linker_0, # of connection points: 2
#     Edge 7, Type (0, 1), BuildingBlock: FUNLAD_clean_linker_0, # of connection points: 2
#     Edge 8, Type (0, 1), BuildingBlock: FUNLAD_clean_linker_0, # of connection points: 2
#     Edge 9, Type (0, 1), BuildingBlock: FUNLAD_clean_linker_0, # of connection points: 2
#     Edge 10, Type (0, 1), BuildingBlock: FUNLAD_clean_linker_0, # of connection points: 2
#     Edge 11, Type (0, 1), BuildingBlock: FUNLAD_clean_linker_0, # of connection points: 2
#     Edge 12, Type (0, 1), BuildingBlock: FUNLAD_clean_linker_0, # of connection points: 2
#     Edge 13, Type (0, 1), BuildingBlock: FUNLAD_clean_linker_0, # of connection points: 2
#     Edge 14, Type (0, 1), BuildingBlock: FUNLAD_clean_linker_0, # of connection points: 2
#     Edge 15, Type (0, 1), BuildingBlock: FUNLAD_clean_linker_0, # of connection points: 2
#     Edge 16, Type (0, 1), BuildingBlock: FUNLAD_clean_linker_0, # of connection points: 2
#     Edge 17, Type (0, 1), BuildingBlock: FUNLAD_clean_linker_0, # of connection points: 2
# Relax obj value: 0.017
# Max RMSD: 0.119
# Mean RMSD: 0.090
data_MOF--net-rtl--node1-LEVNOQ01_clean_sbu_1--node2-BETDIP_clean_linker_0--edge1-FUNLAD_clean_linker_0
_symmetry_space_group_name_H-M    P1
_symmetry_Int_Tables_number       1
_symmetry_cell_setting            triclinic
loop_
_symmetry_equiv_pos_as_xyz
'x, y, z'
_cell_length_a     41.450619
_cell_length_b     41.475641
_cell_length_c     25.886845
_cell_angle_alpha  91.195205
_cell_angle_beta   99.135125
_cell_angle_gamma 89.457342
loop_
_atom_site_label
_atom_site_type_symbol
_atom_site_fract_x
_atom_site_fract_y
_atom_site_fract_z
_atom_type_partial_charge
H0 H 0.20522 0.80161 0.99657 0.0
H1 H 0.22407 0.82451 0.16156 0.0
H2 H 0.14844 0.87494 0.06141 0.0
H3 H 0.27651 0.80986 0.14885 0.0
C4 C 0.27125 0.7881 0.12499 0.0
C5 C 0.19959 0.81553 0.02995 0.0
C6 C 0.17479 0.83908 0.02302 0.0
C7 C 0.21823 0.81085 0.07942 0.0
C8 C 0.21094 0.82897 0.12275 0.0
C9 C 0.18546 0.85178 0.1166 0.0
C10 C 0.16782 0.85698 0.06653 0.0
N11 N 0.24359 0.78726 0.08472 0.0
H12 H 0.7183 0.71253 0.68572 0.0
H13 H 0.69646 0.72369 0.51921 0.0
H14 H 0.6419 0.65646 0.59572 0.0
H15 H 0.71837 0.77476 0.54289 0.0
C16 C 0.73817 0.76961 0.5745 0.0
C17 C 0.70378 0.70595 0.64843 0.0
C18 C 0.67897 0.68306 0.64622 0.0
C19 C 0.70995 0.72096 0.60325 0.0
C20 C 0.69151 0.71245 0.55446 0.0
C21 C 0.66678 0.68905 0.55126 0.0
C22 C 0.66084 0.67447 0.5975 0.0
N23 N 0.73554 0.74386 0.60878 0.0
H24 H 0.80003 0.20916 0.90619 0.0
H25 H 0.80717 0.23218 0.07012 0.0
H26 H 0.86906 0.15855 0.01845 0.0
H27 H 0.75042 0.23565 0.04164 0.0
C28 C 0.75041 0.25073 0.00779 0.0
C29 C 0.8116 0.20538 0.94618 0.0
C30 C 0.83611 0.18174 0.95726 0.0
C31 C 0.80044 0.22293 0.98672 0.0
C32 C 0.81502 0.21789 0.03885 0.0
C33 C 0.83993 0.19475 0.05079 0.0
C34 C 0.85024 0.17681 0.00964 0.0
N35 N 0.77395 0.24491 0.97427 0.0
H36 H 0.28091 0.33686 0.38961 0.0
H37 H 0.28744 0.32059 0.55406 0.0
H38 H 0.34827 0.39206 0.50004 0.0
H39 H 0.23192 0.30778 0.5252 0.0
C40 C 0.23455 0.29314 0.4908 0.0
C41 C 0.29186 0.34266 0.42954 0.0
C42 C 0.31594 0.36653 0.43974 0.0
C43 C 0.28094 0.32663 0.47037 0.0
C44 C 0.29489 0.33385 0.5224 0.0
C45 C 0.31947 0.3573 0.53355 0.0
C46 C 0.32959 0.37373 0.49189 0.0
N47 N 0.25679 0.30247 0.45753 0.0
O48 O 0.01636 0.059 0.65741 0.0
Mg49 Mg 0.05647 0.0439 0.6217 0.0
O50 O 0.97942 0.03921 0.5937 0.0
Mg51 Mg 0.00877 0.0125 0.53498 0.0
O52 O 0.04966 0.05136 0.54309 0.0
O53 O 0.08681 0.0776 0.60101 0.0
O54 O 0.03998 0.98559 0.47798 0.0
O55 O 0.98263 0.04736 0.46981 0.0
Mg56 Mg 0.96622 0.97519 0.44787 0.0
O57 O 0.96647 0.97485 0.52681 0.0
O58 O 0.00728 0.95294 0.42551 0.0
O59 O 0.94853 0.01832 0.41325 0.0
O60 O 0.93274 0.94502 0.46849 0.0
C61 C 0.06157 0.97499 0.63117 0.0
C62 C 0.98676 0.05441 0.63738 0.0
C63 C 0.07297 0.07243 0.55333 0.0
C64 C 0.03558 0.96336 0.4427 0.0
C65 C 0.9606 0.04531 0.42928 0.0
C66 C 0.94299 0.95395 0.51626 0.0
O67 O 0.07858 -2e-05 0.64223 0.0
O68 O 0.03469 0.97613 0.59923 0.0
O69 O 0.55454 0.50405 0.17475 0.0
Mg70 Mg 0.5379 0.46363 0.12708 0.0
O71 O 0.53142 0.54024 0.1184 0.0
Mg72 Mg 0.50486 0.51318 0.04347 0.0
O73 O 0.54207 0.47124 0.05074 0.0
O74 O 0.57052 0.43331 0.09849 0.0
O75 O 0.47815 0.48577 0.96838 0.0
O76 O 0.54215 0.53772 0.99715 0.0
Mg77 Mg 0.47117 0.56185 0.96046 0.0
O78 O 0.46791 0.55584 0.03734 0.0
O79 O 0.45115 0.52186 0.91575 0.0
O80 O 0.51763 0.57801 0.95108 0.0
O81 O 0.44006 0.59375 0.98824 0.0
C82 C 0.46603 0.46302 0.11683 0.0
C83 C 0.54831 0.53317 0.16247 0.0
C84 C 0.56303 0.44767 0.05446 0.0
C85 C 0.45871 0.49282 0.92663 0.0
C86 C 0.54312 0.56195 0.96781 0.0
C87 C 0.44731 0.5798 0.03267 0.0
O88 O 0.49125 0.44621 0.13218 0.0
O89 O 0.46749 0.48823 0.08971 0.0
C90 C 0.18672 0.26016 0.50392 0.0
C91 C 0.2129 0.26513 0.4768 0.0
C92 C 0.1668 0.2331 0.49266 0.0
C93 C 0.1729 0.21031 0.45421 0.0
C94 C 0.19899 0.21546 0.4269 0.0
C95 C 0.21863 0.24278 0.43766 0.0
C96 C 0.15517 0.1792 0.44698 0.0
C97 C 0.12432 0.17589 0.45627 0.0
C98 C 0.10996 0.14432 0.46625 0.0
C99 C 0.12996 0.1182 0.48553 0.0
C100 C 0.11681 0.09244 0.50881 0.0
C101 C 0.08349 0.09202 0.51267 0.0
H102 H 0.06012 0.16217 0.45175 0.0
C103 C 0.06286 0.11625 0.48889 0.0
C104 C 0.07607 0.14235 0.46604 0.0
H105 H 0.03718 0.11669 0.49257 0.0
H106 H 0.18195 0.27697 0.53447 0.0
H107 H 0.14761 0.22943 0.51578 0.0
H108 H 0.20454 0.19801 0.39776 0.0
H109 H 0.2388 0.24587 0.41631 0.0
H110 H 0.16875 0.15819 0.43651 0.0
H111 H 0.10989 0.19738 0.46159 0.0
H112 H 0.1562 0.11881 0.4875 0.0
H113 H 0.13318 0.07418 0.52779 0.0
C114 C 0.28813 0.7312 0.10672 0.0
C115 C 0.2955 0.76153 0.1306 0.0
C116 C 0.31167 0.70659 0.11146 0.0
C117 C 0.3431 0.71195 0.13991 0.0
C118 C 0.35031 0.74227 0.16382 0.0
C119 C 0.32661 0.76669 0.15978 0.0
C120 C 0.36975 0.68771 0.14035 0.0
C121 C 0.36451 0.65562 0.13744 0.0
C122 C 0.38918 0.63165 0.12451 0.0
C123 C 0.37791 0.60224 0.10067 0.0
C124 C 0.39861 0.58247 0.07606 0.0
C125 C 0.43104 0.59156 0.07569 0.0
H126 H 0.4329 0.66033 0.14931 0.0
C127 C 0.44343 0.61889 0.10458 0.0
C128 C 0.42276 0.6387 0.12931 0.0
H129 H 0.46834 0.62647 0.10421 0.0
H130 H 0.2643 0.72654 0.084 0.0
H131 H 0.30553 0.68386 0.09111 0.0
H132 H 0.37445 0.74717 0.18528 0.0
H133 H 0.33287 0.78991 0.17847 0.0
H134 H 0.39402 0.69715 0.14007 0.0
H135 H 0.34002 0.64685 0.1386 0.0
H136 H 0.35234 0.59589 0.09698 0.0
H137 H 0.38846 0.56172 0.05318 0.0
C138 C 0.76573 0.82101 0.55902 0.0
C139 C 0.76614 0.79194 0.58582 0.0
C140 C 0.79224 0.8421 0.56918 0.0
C141 C 0.81977 0.83437 0.60632 0.0
C142 C 0.82006 0.80526 0.63303 0.0
C143 C 0.79346 0.78437 0.62324 0.0
C144 C 0.84984 0.85425 0.61365 0.0
C145 C 0.84968 0.88609 0.60425 0.0
C146 C 0.87939 0.90446 0.59742 0.0
C147 C 0.90753 0.88886 0.58469 0.0
C148 C 0.93114 0.9063 0.56446 0.0
C149 C 0.92726 0.93953 0.55691 0.0
H150 H 0.85593 0.95094 0.60395 0.0
C151 C 0.9011 0.95572 0.57442 0.0
C152 C 0.8773 0.93826 0.59454 0.0
H153 H 0.8973 0.98128 0.56774 0.0
H154 H 0.74501 0.82731 0.52984 0.0
H155 H 0.79153 0.86379 0.54649 0.0
H156 H 0.84113 0.79847 0.66117 0.0
H157 H 0.79462 0.76203 0.64441 0.0
H158 H 0.87283 0.84175 0.62561 0.0
H159 H 0.82646 0.8989 0.59733 0.0
H160 H 0.91019 0.86292 0.58535 0.0
H161 H 0.9508 0.89331 0.54998 0.0
C162 C 0.72342 0.29725 0.95593 0.0
C163 C 0.72319 0.27388 0.99446 0.0
C164 C 0.69757 0.31946 0.94556 0.0
C165 C 0.67101 0.31834 0.97329 0.0
C166 C 0.67062 0.29438 0.0107 0.0
C167 C 0.69655 0.27265 0.02155 0.0
C168 C 0.64351 0.34187 0.96592 0.0
C169 C 0.64642 0.37281 0.95238 0.0
C170 C 0.62161 0.39735 0.96228 0.0
C171 C 0.63236 0.42715 0.9851 0.0
C172 C 0.61133 0.44657 0.00975 0.0
C173 C 0.57919 0.43669 0.01083 0.0
H174 H 0.57898 0.36732 0.93873 0.0
C175 C 0.56723 0.40913 0.98209 0.0
C176 C 0.58824 0.38966 0.95759 0.0
H177 H 0.54257 0.40095 0.98296 0.0
H178 H 0.7437 0.29866 0.93437 0.0
H179 H 0.69838 0.33726 0.91582 0.0
H180 H 0.65049 0.29292 0.03261 0.0
H181 H 0.69575 0.2548 0.05131 0.0
H182 H 0.62129 0.33456 0.9797 0.0
H183 H 0.66961 0.38127 0.94354 0.0
H184 H 0.65785 0.43381 0.98875 0.0
H185 H 0.62112 0.46753 0.03241 0.0
C186 C 0.14314 0.86932 0.16984 0.0
C187 C 0.17598 0.86899 0.16266 0.0
C188 C 0.1338 0.88474 0.2135 0.0
C189 C 0.15708 0.90032 0.25099 0.0
C190 C 0.18982 0.9008 0.24322 0.0
C191 C 0.19931 0.88485 0.1997 0.0
C192 C 0.14688 0.91658 0.29749 0.0
C193 C 0.12459 0.90285 0.32249 0.0
C194 C 0.10721 0.91893 0.36213 0.0
C195 C 0.08446 0.9004 0.3831 0.0
C196 C 0.06258 0.9149 0.41206 0.0
C197 C 0.06318 0.9483 0.4216 0.0
H198 H 0.12651 0.96745 0.3594 0.0
C199 C 0.08759 0.96675 0.40467 0.0
C200 C 0.10938 0.95222 0.37468 0.0
H201 H 0.08839 0.99261 0.41153 0.0
H202 H 0.12469 0.85724 0.14195 0.0
H203 H 0.1082 0.88469 0.21765 0.0
H204 H 0.20809 0.91299 0.27126 0.0
H205 H 0.22476 0.88514 0.19469 0.0
H206 H 0.1574 0.93982 0.31007 0.0
H207 H 0.11693 0.87841 0.31063 0.0
H208 H 0.08229 0.87474 0.37458 0.0
H209 H 0.04415 0.90011 0.42519 0.0
C210 C 0.66502 0.63631 0.69887 0.0
C211 C 0.67096 0.66943 0.69514 0.0
C212 C 0.65559 0.6241 0.7442 0.0
C213 C 0.65179 0.64491 0.78651 0.0
C214 C 0.65822 0.67786 0.78288 0.0
C215 C 0.66789 0.68997 0.73791 0.0
C216 C 0.63759 0.63408 0.83228 0.0
C217 C 0.6394 0.6036 0.84985 0.0
C218 C 0.62008 0.59235 0.88989 0.0
C219 C 0.61308 0.5593 0.89174 0.0
C220 C 0.59 0.54859 0.92152 0.0
C221 C 0.57349 0.57091 0.94948 0.0
H222 H 0.61207 0.63931 0.92549 0.0
C223 C 0.58259 0.6034 0.95158 0.0
C224 C 0.60611 0.61397 0.92295 0.0
H225 H 0.57038 0.62091 0.97357 0.0
H226 H 0.66729 0.61992 0.66648 0.0
H227 H 0.65001 0.5987 0.74495 0.0
H228 H 0.65507 0.69448 0.8146 0.0
H229 H 0.67186 0.71567 0.73593 0.0
H230 H 0.62385 0.65224 0.8504 0.0
H231 H 0.65327 0.58565 0.83132 0.0
H232 H 0.62388 0.54198 0.86751 0.0
H233 H 0.58322 0.52337 0.91933 0.0
C234 C 0.88728 0.18049 0.12048 0.0
C235 C 0.85389 0.18781 0.10616 0.0
C236 C 0.89962 0.17044 0.17112 0.0
C237 C 0.87881 0.16773 0.20886 0.0
C238 C 0.84578 0.17646 0.19508 0.0
C239 C 0.83345 0.18637 0.14447 0.0
C240 C 0.88925 0.15234 0.26042 0.0
C241 C 0.92044 0.14518 0.28092 0.0
C242 C 0.92895 0.12264 0.3252 0.0
C243 C 0.9604 0.12325 0.3552 0.0
C244 C 0.97035 0.09928 0.39199 0.0
C245 C 0.94916 0.07399 0.39849 0.0
H246 H 0.88333 0.09591 0.31076 0.0
C247 C 0.91738 0.07413 0.37 0.0
C248 C 0.90738 0.09805 0.33386 0.0
H249 H 0.90051 0.05491 0.37417 0.0
H250 H 0.90382 0.18179 0.09215 0.0
H251 H 0.92511 0.16359 0.17941 0.0
H252 H 0.82906 0.17443 0.22305 0.0
H253 H 0.80754 0.19146 0.13481 0.0
H254 H 0.86982 0.14509 0.28125 0.0
H255 H 0.94047 0.1547 0.26367 0.0
H256 H 0.97766 0.14167 0.34895 0.0
H257 H 0.99512 0.09952 0.413 0.0
C258 C 0.36819 0.37043 0.60163 0.0
C259 C 0.33441 0.36495 0.58853 0.0
C260 C 0.38187 0.38004 0.65245 0.0
C261 C 0.36202 0.38426 0.69148 0.0
C262 C 0.32846 0.37776 0.67873 0.0
C263 C 0.31482 0.36811 0.62796 0.0
C264 C 0.3744 0.39911 0.74359 0.0
C265 C 0.40626 0.4012 0.76467 0.0
C266 C 0.4179 0.42271 0.81043 0.0
C267 C 0.44772 0.41621 0.84289 0.0
C268 C 0.46058 0.43818 0.8827 0.0
C269 C 0.44414 0.46735 0.88962 0.0
H270 H 0.37861 0.45795 0.79385 0.0
C271 C 0.41406 0.47343 0.85786 0.0
C272 C 0.40109 0.45146 0.81886 0.0
H273 H 0.40077 0.49567 0.86234 0.0
H274 H 0.38404 0.3678 0.5723 0.0
H275 H 0.40768 0.38542 0.66011 0.0
H276 H 0.31251 0.3811 0.70779 0.0
H277 H 0.28869 0.36434 0.61915 0.0
H278 H 0.35625 0.41004 0.7646 0.0
H279 H 0.42455 0.38784 0.74715 0.0
H280 H 0.46135 0.39442 0.83682 0.0
H281 H 0.48393 0.433 0.90644 0.0
C282 C 0.66258 0.67342 0.45579 0.0
C283 C 0.6474 0.67904 0.50008 0.0
C284 C 0.64503 0.65986 0.40986 0.0
C285 C 0.61193 0.65168 0.40743 0.0
C286 C 0.59645 0.65881 0.45074 0.0
C287 C 0.61385 0.67257 0.49631 0.0
C288 C 0.59404 0.63197 0.36371 0.0
C289 C 0.60121 0.63079 0.31475 0.0
C290 C 0.58615 0.60639 0.27567 0.0
C291 C 0.57863 0.61398 0.22245 0.0
C292 C 0.56547 0.59052 0.18537 0.0
C293 C 0.56058 0.55887 0.2009 0.0
H294 H 0.58722 0.56792 0.33152 0.0
C295 C 0.56838 0.55138 0.25413 0.0
C296 C 0.58088 0.57483 0.29103 0.0
H297 H 0.5649 0.52725 0.26742 0.0
H298 H 0.68843 0.67786 0.45748 0.0
H299 H 0.65796 0.65412 0.37763 0.0
H300 H 0.57099 0.65278 0.44993 0.0
H301 H 0.60118 0.67727 0.52923 0.0
H302 H 0.57438 0.617 0.37284 0.0
H303 H 0.61849 0.64765 0.30311 0.0
H304 H 0.58282 0.63806 0.20962 0.0
H305 H 0.55985 0.59693 0.14456 0.0
C306 C 0.8518 0.17517 0.86747 0.0
C307 C 0.84651 0.16148 0.91465 0.0
C308 C 0.86418 0.15639 0.8294 0.0
C309 C 0.87141 0.12348 0.83778 0.0
C310 C 0.86489 0.10964 0.884 0.0
C311 C 0.85242 0.12832 0.92182 0.0
C312 C 0.88946 0.10388 0.80293 0.0
C313 C 0.89061 0.11046 0.75249 0.0
C314 C 0.91421 0.09385 0.72315 0.0
C315 C 0.9064 0.08838 0.66884 0.0
C316 C 0.92947 0.07448 0.64068 0.0
C317 C 0.961 0.06673 0.66632 0.0
H318 H 0.95282 0.09015 0.79017 0.0
C319 C 0.96862 0.07217 0.72061 0.0
C320 C 0.94556 0.08546 0.74866 0.0
H321 H 0.99267 0.06643 0.74158 0.0
H322 H 0.8477 0.20069 0.86092 0.0
H323 H 0.86956 0.16813 0.79485 0.0
H324 H 0.87025 0.08439 0.89154 0.0
H325 H 0.84791 0.11683 0.95716 0.0
H326 H 0.90338 0.08342 0.82044 0.0
H327 H 0.87457 0.12869 0.73251 0.0
H328 H 0.88251 0.09498 0.64821 0.0
H329 H 0.923 0.07072 0.5988 0.0
C330 C 0.33268 0.36613 0.35086 0.0
C331 C 0.32705 0.38349 0.39577 0.0
C332 C 0.34369 0.38172 0.30972 0.0
C333 C 0.34915 0.41524 0.31227 0.0
C334 C 0.34343 0.43259 0.35717 0.0
C335 C 0.33243 0.41695 0.39841 0.0
C336 C 0.3637 0.43223 0.27144 0.0
C337 C 0.36383 0.42021 0.2227 0.0
C338 C 0.3857 0.43288 0.18795 0.0
C339 C 0.40248 0.41063 0.16033 0.0
C340 C 0.42745 0.42085 0.13439 0.0
C341 C 0.43536 0.45365 0.13411 0.0
H342 H 0.37908 0.48374 0.2051 0.0
C343 C 0.4167 0.47635 0.15773 0.0
C344 C 0.39218 0.466 0.18503 0.0
H345 H 0.4225 0.50178 0.1581 0.0
H346 H 0.32944 0.34023 0.34807 0.0
H347 H 0.34897 0.36701 0.2771 0.0
H348 H 0.34777 0.45832 0.36057 0.0
H349 H 0.32805 0.43106 0.43232 0.0
H350 H 0.37674 0.45445 0.28335 0.0
H351 H 0.35104 0.39801 0.21015 0.0
H352 H 0.39775 0.38503 0.16171 0.0
H353 H 0.44152 0.40294 0.11633 0.0
C354 C 0.15611 0.87795 0.95228 0.0
C355 C 0.15697 0.84623 0.97027 0.0
C356 C 0.13928 0.88529 0.90287 0.0
C357 C 0.12261 0.86112 0.87054 0.0
C358 C 0.12281 0.82949 0.88887 0.0
C359 C 0.14031 0.82197 0.93814 0.0
C360 C 0.10466 0.86927 0.81813 0.0
C361 C 0.11836 0.88854 0.78663 0.0
C362 C 0.10115 0.90317 0.73788 0.0
C363 C 0.12043 0.91731 0.70473 0.0
C364 C 0.10658 0.93828 0.66594 0.0
C365 C 0.07307 0.94547 0.65915 0.0
H366 H 0.05138 0.89784 0.75314 0.0
C367 C 0.05303 0.92902 0.68863 0.0
C368 C 0.06701 0.90803 0.72805 0.0
H369 H 0.02717 0.93458 0.68453 0.0
H370 H 0.16871 0.89706 0.97638 0.0
H371 H 0.13898 0.91004 0.89019 0.0
H372 H 0.10989 0.81057 0.86477 0.0
H373 H 0.14043 0.79739 0.95149 0.0
H374 H 0.08037 0.85954 0.80591 0.0
H375 H 0.1438 0.89531 0.79862 0.0
H376 H 0.14671 0.91394 0.71119 0.0
H377 H 0.12252 0.95073 0.64368 0.0
loop_
_geom_bond_atom_site_label_1
_geom_bond_atom_site_label_2
_geom_bond_distance
_geom_bond_site_symmetry_2
_ccdc_geom_bond_type
H0 C5 0.930 1_556 S
H1 C8 0.930 . S
H2 C10 0.930 . S
H3 C4 1.016 . S
C4 H3 1.016 . S
C4 N11 1.286 . S
C5 H0 0.930 1_554 S
C5 C6 1.397 . S
C5 C7 1.361 . S
C6 C5 1.397 . S
C6 C10 1.390 . S
C7 C5 1.361 . S
C7 C8 1.393 . S
C7 N11 1.413 . S
C8 H1 0.930 . S
C8 C7 1.393 . S
C8 C9 1.399 . S
C9 C8 1.399 . S
C9 C10 1.381 . S
C10 H2 0.930 . S
C10 C6 1.390 . S
C10 C9 1.381 . S
N11 C4 1.286 . S
N11 C7 1.413 . S
H12 C17 0.930 . S
H13 C20 0.930 . S
H14 C22 0.930 . S
H15 C16 1.016 . S
C16 H15 1.016 . S
C16 N23 1.286 . S
C17 H12 0.930 . S
C17 C18 1.397 . S
C17 C19 1.361 . S
C18 C17 1.397 . S
C18 C22 1.390 . S
C19 C17 1.361 . S
C19 C20 1.393 . S
C19 N23 1.413 . S
C20 H13 0.930 . S
C20 C19 1.393 . S
C20 C21 1.399 . S
C21 C20 1.399 . S
C21 C22 1.381 . S
C22 H14 0.930 . S
C22 C18 1.390 . S
C22 C21 1.381 . S
N23 C16 1.286 . S
N23 C19 1.413 . S
H24 C29 0.930 . S
H25 C32 0.930 . S
H26 C34 0.930 . S
H27 C28 1.016 . S
C28 H27 1.016 . S
C28 N35 1.286 1_554 S
C29 H24 0.930 . S
C29 C30 1.397 . S
C29 C31 1.361 . S
C30 C29 1.397 . S
C30 C34 1.390 1_556 S
C31 C29 1.361 . S
C31 C32 1.393 1_556 S
C31 N35 1.413 . S
C32 H25 0.930 . S
C32 C31 1.393 1_554 S
C32 C33 1.399 . S
C33 C32 1.399 . S
C33 C34 1.381 . S
C34 H26 0.930 . S
C34 C30 1.390 1_554 S
C34 C33 1.381 . S
N35 C28 1.286 1_556 S
N35 C31 1.413 . S
H36 C41 0.930 . S
H37 C44 0.930 . S
H38 C46 0.930 . S
H39 C40 1.016 . S
C40 H39 1.016 . S
C40 N47 1.286 . S
C41 H36 0.930 . S
C41 C42 1.397 . S
C41 C43 1.361 . S
C42 C41 1.397 . S
C42 C46 1.390 . S
C43 C41 1.361 . S
C43 C44 1.393 . S
C43 N47 1.413 . S
C44 H37 0.930 . S
C44 C43 1.393 . S
C44 C45 1.399 . S
C45 C44 1.399 . S
C45 C46 1.381 . S
C46 H38 0.930 . S
C46 C42 1.390 . S
C46 C45 1.381 . S
N47 C40 1.286 . S
N47 C43 1.413 . S
O48 Mg49 1.990 . S
O48 C62 1.253 1_455 S
Mg49 O48 1.990 . S
Mg49 O52 2.180 . S
Mg49 O53 2.117 . S
Mg49 O67 2.030 . S
O50 Mg51 2.072 1_655 S
O50 C62 1.260 . S
Mg51 O50 2.072 1_455 S
Mg51 O52 2.099 . S
Mg51 O54 2.079 1_545 S
Mg51 O55 2.072 1_455 S
Mg51 O57 2.099 1_445 S
Mg51 O68 2.079 1_545 S
O52 Mg49 2.180 . S
O52 Mg51 2.099 . S
O52 C63 1.279 . S
O53 Mg49 2.117 . S
O53 C63 1.250 . S
O54 Mg51 2.079 1_565 S
O54 C64 1.264 . S
O55 Mg51 2.072 1_655 S
O55 C65 1.260 . S
Mg56 O57 2.180 . S
Mg56 O58 2.030 1_655 S
Mg56 O59 1.990 1_565 S
Mg56 O60 2.117 . S
O57 Mg51 2.099 1_665 S
O57 Mg56 2.180 . S
O57 C66 1.279 . S
O58 Mg56 2.030 1_455 S
O58 C64 1.248 . S
O59 Mg56 1.990 1_545 S
O59 C65 1.253 . S
O60 Mg56 2.117 . S
O60 C66 1.250 . S
C61 O67 1.248 1_565 S
C61 O68 1.264 . S
C62 O48 1.253 1_655 S
C62 O50 1.260 . S
C63 O52 1.279 . S
C63 O53 1.250 . S
C64 O54 1.264 . S
C64 O58 1.248 . S
C65 O55 1.260 . S
C65 O59 1.253 . S
C66 O57 1.279 . S
C66 O60 1.250 . S
O67 Mg49 2.030 . S
O67 C61 1.248 1_545 S
O68 Mg51 2.079 1_565 S
O68 C61 1.264 . S
O69 Mg70 1.990 . S
O69 C83 1.253 . S
Mg70 O69 1.990 . S
Mg70 O73 2.180 . S
Mg70 O74 2.117 . S
Mg70 O88 2.030 . S
O71 Mg72 2.072 . S
O71 C83 1.260 . S
Mg72 O71 2.072 . S
Mg72 O73 2.099 . S
Mg72 O75 2.079 1_554 S
Mg72 O76 2.072 1_554 S
Mg72 O78 2.099 . S
Mg72 O89 2.079 . S
O73 Mg70 2.180 . S
O73 Mg72 2.099 . S
O73 C84 1.279 . S
O74 Mg70 2.117 . S
O74 C84 1.250 . S
O75 Mg72 2.079 1_556 S
O75 C85 1.264 . S
O76 Mg72 2.072 1_556 S
O76 C86 1.260 . S
Mg77 O78 2.180 1_556 S
Mg77 O79 2.030 . S
Mg77 O80 1.990 . S
Mg77 O81 2.117 . S
O78 Mg72 2.099 . S
O78 Mg77 2.180 1_554 S
O78 C87 1.279 . S
O79 Mg77 2.030 . S
O79 C85 1.248 . S
O80 Mg77 1.990 . S
O80 C86 1.253 . S
O81 Mg77 2.117 . S
O81 C87 1.250 1_556 S
C82 O88 1.248 . S
C82 O89 1.264 . S
C83 O69 1.253 . S
C83 O71 1.260 . S
C84 O73 1.279 . S
C84 O74 1.250 . S
C85 O75 1.264 . S
C85 O79 1.248 . S
C86 O76 1.260 . S
C86 O80 1.253 . S
C87 O78 1.279 . S
C87 O81 1.250 1_554 S
O88 Mg70 2.030 . S
O88 C82 1.248 . S
O89 Mg72 2.079 . S
O89 C82 1.264 . S
C90 C91 1.386 . S
C90 C92 1.383 . S
C90 H106 0.951 . S
C91 C90 1.386 . S
C91 C95 1.383 . S
C92 C90 1.383 . S
C92 C93 1.402 . S
C92 H107 0.951 . S
C93 C92 1.402 . S
C93 C94 1.375 . S
C93 C96 1.481 . S
C94 C93 1.375 . S
C94 C95 1.367 . S
C94 H108 0.951 . S
C95 C91 1.383 . S
C95 C94 1.367 . S
C95 H109 0.950 . S
C96 C93 1.481 . S
C96 C97 1.297 . S
C96 H110 0.950 . S
C97 C96 1.297 . S
C97 C98 1.479 . S
C97 H111 0.950 . S
C98 C97 1.479 . S
C98 C99 1.375 . S
C98 C104 1.404 . S
C99 C98 1.375 . S
C99 C100 1.369 . S
C99 H112 0.950 . S
C100 C99 1.369 . S
C100 C101 1.392 . S
C100 H113 0.951 . S
C101 C100 1.392 . S
C101 C103 1.384 . S
H102 C104 0.949 . S
C103 C101 1.384 . S
C103 C104 1.385 . S
C103 H105 0.950 . S
C104 C98 1.404 . S
C104 H102 0.949 . S
C104 C103 1.385 . S
H105 C103 0.950 . S
H106 C90 0.951 . S
H107 C92 0.951 . S
H108 C94 0.951 . S
H109 C95 0.950 . S
H110 C96 0.950 . S
H111 C97 0.950 . S
H112 C99 0.950 . S
H113 C100 0.951 . S
C114 C115 1.386 . S
C114 C116 1.383 . S
C114 H130 0.951 . S
C115 C114 1.386 . S
C115 C119 1.383 . S
C116 C114 1.383 . S
C116 C117 1.402 . S
C116 H131 0.951 . S
C117 C116 1.402 . S
C117 C118 1.375 . S
C117 C120 1.481 . S
C118 C117 1.375 . S
C118 C119 1.367 . S
C118 H132 0.951 . S
C119 C115 1.383 . S
C119 C118 1.367 . S
C119 H133 0.950 . S
C120 C117 1.481 . S
C120 C121 1.297 . S
C120 H134 0.950 . S
C121 C120 1.297 . S
C121 C122 1.479 . S
C121 H135 0.950 . S
C122 C121 1.479 . S
C122 C123 1.375 . S
C122 C128 1.404 . S
C123 C122 1.375 . S
C123 C124 1.369 . S
C123 H136 0.950 . S
C124 C123 1.369 . S
C124 C125 1.392 . S
C124 H137 0.951 . S
C125 C124 1.392 . S
C125 C127 1.384 . S
H126 C128 0.949 . S
C127 C125 1.384 . S
C127 C128 1.385 . S
C127 H129 0.950 . S
C128 C122 1.404 . S
C128 H126 0.949 . S
C128 C127 1.385 . S
H129 C127 0.950 . S
H130 C114 0.951 . S
H131 C116 0.951 . S
H132 C118 0.951 . S
H133 C119 0.950 . S
H134 C120 0.950 . S
H135 C121 0.950 . S
H136 C123 0.950 . S
H137 C124 0.951 . S
C138 C139 1.386 . S
C138 C140 1.383 . S
C138 H154 0.951 . S
C139 C138 1.386 . S
C139 C143 1.383 . S
C140 C138 1.383 . S
C140 C141 1.402 . S
C140 H155 0.951 . S
C141 C140 1.402 . S
C141 C142 1.375 . S
C141 C144 1.481 . S
C142 C141 1.375 . S
C142 C143 1.367 . S
C142 H156 0.951 . S
C143 C139 1.383 . S
C143 C142 1.367 . S
C143 H157 0.950 . S
C144 C141 1.481 . S
C144 C145 1.297 . S
C144 H158 0.950 . S
C145 C144 1.297 . S
C145 C146 1.479 . S
C145 H159 0.950 . S
C146 C145 1.479 . S
C146 C147 1.375 . S
C146 C152 1.404 . S
C147 C146 1.375 . S
C147 C148 1.369 . S
C147 H160 0.950 . S
C148 C147 1.369 . S
C148 C149 1.392 . S
C148 H161 0.951 . S
C149 C148 1.392 . S
C149 C151 1.384 . S
H150 C152 0.949 . S
C151 C149 1.384 . S
C151 C152 1.385 . S
C151 H153 0.950 . S
C152 C146 1.404 . S
C152 H150 0.949 . S
C152 C151 1.385 . S
H153 C151 0.950 . S
H154 C138 0.951 . S
H155 C140 0.951 . S
H156 C142 0.951 . S
H157 C143 0.950 . S
H158 C144 0.950 . S
H159 C145 0.950 . S
H160 C147 0.950 . S
H161 C148 0.951 . S
C162 C163 1.386 1_556 S
C162 C164 1.383 . S
C162 H178 0.951 . S
C163 C162 1.386 1_554 S
C163 C167 1.383 . S
C164 C162 1.383 . S
C164 C165 1.402 1_556 S
C164 H179 0.951 . S
C165 C164 1.402 1_554 S
C165 C166 1.375 . S
C165 C168 1.481 . S
C166 C165 1.375 . S
C166 C167 1.367 . S
C166 H180 0.951 . S
C167 C163 1.383 . S
C167 C166 1.367 . S
C167 H181 0.950 . S
C168 C165 1.481 . S
C168 C169 1.297 1_554 S
C168 H182 0.950 . S
C169 C168 1.297 1_556 S
C169 C170 1.479 1_556 S
C169 H183 0.950 . S
C170 C169 1.479 1_554 S
C170 C171 1.375 1_554 S
C170 C176 1.404 . S
C171 C170 1.375 1_556 S
C171 C172 1.369 . S
C171 H184 0.950 . S
C172 C171 1.369 . S
C172 C173 1.392 1_556 S
C172 H185 0.951 . S
C173 C172 1.392 1_554 S
C173 C175 1.384 . S
H174 C176 0.949 . S
C175 C173 1.384 . S
C175 C176 1.385 . S
C175 H177 0.950 . S
C176 C170 1.404 . S
C176 H174 0.949 . S
C176 C175 1.385 . S
H177 C175 0.950 . S
H178 C162 0.951 . S
H179 C164 0.951 . S
H180 C166 0.951 . S
H181 C167 0.950 . S
H182 C168 0.950 . S
H183 C169 0.950 . S
H184 C171 0.950 . S
H185 C172 0.951 . S
C186 C187 1.386 . S
C186 C188 1.383 . S
C186 H202 0.951 . S
C187 C186 1.386 . S
C187 C191 1.383 . S
C188 C186 1.383 . S
C188 C189 1.402 . S
C188 H203 0.951 . S
C189 C188 1.402 . S
C189 C190 1.375 . S
C189 C192 1.481 . S
C190 C189 1.375 . S
C190 C191 1.367 . S
C190 H204 0.951 . S
C191 C187 1.383 . S
C191 C190 1.367 . S
C191 H205 0.950 . S
C192 C189 1.481 . S
C192 C193 1.297 . S
C192 H206 0.950 . S
C193 C192 1.297 . S
C193 C194 1.479 . S
C193 H207 0.950 . S
C194 C193 1.479 . S
C194 C195 1.375 . S
C194 C200 1.404 . S
C195 C194 1.375 . S
C195 C196 1.369 . S
C195 H208 0.950 . S
C196 C195 1.369 . S
C196 C197 1.392 . S
C196 H209 0.951 . S
C197 C196 1.392 . S
C197 C199 1.384 . S
H198 C200 0.949 . S
C199 C197 1.384 . S
C199 C200 1.385 . S
C199 H201 0.950 . S
C200 C194 1.404 . S
C200 H198 0.949 . S
C200 C199 1.385 . S
H201 C199 0.950 . S
H202 C186 0.951 . S
H203 C188 0.951 . S
H204 C190 0.951 . S
H205 C191 0.950 . S
H206 C192 0.950 . S
H207 C193 0.950 . S
H208 C195 0.950 . S
H209 C196 0.951 . S
C210 C211 1.386 . S
C210 C212 1.383 . S
C210 H226 0.951 . S
C211 C210 1.386 . S
C211 C215 1.383 . S
C212 C210 1.383 . S
C212 C213 1.402 . S
C212 H227 0.951 . S
C213 C212 1.402 . S
C213 C214 1.375 . S
C213 C216 1.481 . S
C214 C213 1.375 . S
C214 C215 1.367 . S
C214 H228 0.951 . S
C215 C211 1.383 . S
C215 C214 1.367 . S
C215 H229 0.950 . S
C216 C213 1.481 . S
C216 C217 1.297 . S
C216 H230 0.950 . S
C217 C216 1.297 . S
C217 C218 1.479 . S
C217 H231 0.950 . S
C218 C217 1.479 . S
C218 C219 1.375 . S
C218 C224 1.404 . S
C219 C218 1.375 . S
C219 C220 1.369 . S
C219 H232 0.950 . S
C220 C219 1.369 . S
C220 C221 1.392 . S
C220 H233 0.951 . S
C221 C220 1.392 . S
C221 C223 1.384 . S
H222 C224 0.949 . S
C223 C221 1.384 . S
C223 C224 1.385 . S
C223 H225 0.950 . S
C224 C218 1.404 . S
C224 H222 0.949 . S
C224 C223 1.385 . S
H225 C223 0.950 . S
H226 C210 0.951 . S
H227 C212 0.951 . S
H228 C214 0.951 . S
H229 C215 0.950 . S
H230 C216 0.950 . S
H231 C217 0.950 . S
H232 C219 0.950 . S
H233 C220 0.951 . S
C234 C235 1.386 . S
C234 C236 1.383 . S
C234 H250 0.951 . S
C235 C234 1.386 . S
C235 C239 1.383 . S
C236 C234 1.383 . S
C236 C237 1.402 . S
C236 H251 0.951 . S
C237 C236 1.402 . S
C237 C238 1.375 . S
C237 C240 1.481 . S
C238 C237 1.375 . S
C238 C239 1.367 . S
C238 H252 0.951 . S
C239 C235 1.383 . S
C239 C238 1.367 . S
C239 H253 0.950 . S
C240 C237 1.481 . S
C240 C241 1.297 . S
C240 H254 0.950 . S
C241 C240 1.297 . S
C241 C242 1.479 . S
C241 H255 0.950 . S
C242 C241 1.479 . S
C242 C243 1.375 . S
C242 C248 1.404 . S
C243 C242 1.375 . S
C243 C244 1.369 . S
C243 H256 0.950 . S
C244 C243 1.369 . S
C244 C245 1.392 . S
C244 H257 0.951 1_655 S
C245 C244 1.392 . S
C245 C247 1.384 . S
H246 C248 0.949 . S
C247 C245 1.384 . S
C247 C248 1.385 . S
C247 H249 0.950 . S
C248 C242 1.404 . S
C248 H246 0.949 . S
C248 C247 1.385 . S
H249 C247 0.950 . S
H250 C234 0.951 . S
H251 C236 0.951 . S
H252 C238 0.951 . S
H253 C239 0.950 . S
H254 C240 0.950 . S
H255 C241 0.950 . S
H256 C243 0.950 . S
H257 C244 0.951 1_455 S
C258 C259 1.386 . S
C258 C260 1.383 . S
C258 H274 0.951 . S
C259 C258 1.386 . S
C259 C263 1.383 . S
C260 C258 1.383 . S
C260 C261 1.402 . S
C260 H275 0.951 . S
C261 C260 1.402 . S
C261 C262 1.375 . S
C261 C264 1.481 . S
C262 C261 1.375 . S
C262 C263 1.367 . S
C262 H276 0.951 . S
C263 C259 1.383 . S
C263 C262 1.367 . S
C263 H277 0.950 . S
C264 C261 1.481 . S
C264 C265 1.297 . S
C264 H278 0.950 . S
C265 C264 1.297 . S
C265 C266 1.479 . S
C265 H279 0.950 . S
C266 C265 1.479 . S
C266 C267 1.375 . S
C266 C272 1.404 . S
C267 C266 1.375 . S
C267 C268 1.369 . S
C267 H280 0.950 . S
C268 C267 1.369 . S
C268 C269 1.392 . S
C268 H281 0.951 . S
C269 C268 1.392 . S
C269 C271 1.384 . S
H270 C272 0.949 . S
C271 C269 1.384 . S
C271 C272 1.385 . S
C271 H273 0.950 . S
C272 C266 1.404 . S
C272 H270 0.949 . S
C272 C271 1.385 . S
H273 C271 0.950 . S
H274 C258 0.951 . S
H275 C260 0.951 . S
H276 C262 0.951 . S
H277 C263 0.950 . S
H278 C264 0.950 . S
H279 C265 0.950 . S
H280 C267 0.950 . S
H281 C268 0.951 . S
C282 C283 1.386 . S
C282 C284 1.383 . S
C282 H298 0.951 . S
C283 C282 1.386 . S
C283 C287 1.383 . S
C284 C282 1.383 . S
C284 C285 1.402 . S
C284 H299 0.951 . S
C285 C284 1.402 . S
C285 C286 1.375 . S
C285 C288 1.481 . S
C286 C285 1.375 . S
C286 C287 1.367 . S
C286 H300 0.951 . S
C287 C283 1.383 . S
C287 C286 1.367 . S
C287 H301 0.950 . S
C288 C285 1.481 . S
C288 C289 1.297 . S
C288 H302 0.950 . S
C289 C288 1.297 . S
C289 C290 1.479 . S
C289 H303 0.950 . S
C290 C289 1.479 . S
C290 C291 1.375 . S
C290 C296 1.404 . S
C291 C290 1.375 . S
C291 C292 1.369 . S
C291 H304 0.950 . S
C292 C291 1.369 . S
C292 C293 1.392 . S
C292 H305 0.951 . S
C293 C292 1.392 . S
C293 C295 1.384 . S
H294 C296 0.949 . S
C295 C293 1.384 . S
C295 C296 1.385 . S
C295 H297 0.950 . S
C296 C290 1.404 . S
C296 H294 0.949 . S
C296 C295 1.385 . S
H297 C295 0.950 . S
H298 C282 0.951 . S
H299 C284 0.951 . S
H300 C286 0.951 . S
H301 C287 0.950 . S
H302 C288 0.950 . S
H303 C289 0.950 . S
H304 C291 0.950 . S
H305 C292 0.951 . S
C306 C307 1.386 . S
C306 C308 1.383 . S
C306 H322 0.951 . S
C307 C306 1.386 . S
C307 C311 1.383 . S
C308 C306 1.383 . S
C308 C309 1.402 . S
C308 H323 0.951 . S
C309 C308 1.402 . S
C309 C310 1.375 . S
C309 C312 1.481 . S
C310 C309 1.375 . S
C310 C311 1.367 . S
C310 H324 0.951 . S
C311 C307 1.383 . S
C311 C310 1.367 . S
C311 H325 0.950 . S
C312 C309 1.481 . S
C312 C313 1.297 . S
C312 H326 0.950 . S
C313 C312 1.297 . S
C313 C314 1.479 . S
C313 H327 0.950 . S
C314 C313 1.479 . S
C314 C315 1.375 . S
C314 C320 1.404 . S
C315 C314 1.375 . S
C315 C316 1.369 . S
C315 H328 0.950 . S
C316 C315 1.369 . S
C316 C317 1.392 . S
C316 H329 0.951 . S
C317 C316 1.392 . S
C317 C319 1.384 . S
H318 C320 0.949 . S
C319 C317 1.384 . S
C319 C320 1.385 . S
C319 H321 0.950 . S
C320 C314 1.404 . S
C320 H318 0.949 . S
C320 C319 1.385 . S
H321 C319 0.950 . S
H322 C306 0.951 . S
H323 C308 0.951 . S
H324 C310 0.951 . S
H325 C311 0.950 . S
H326 C312 0.950 . S
H327 C313 0.950 . S
H328 C315 0.950 . S
H329 C316 0.951 . S
C330 C331 1.386 . S
C330 C332 1.383 . S
C330 H346 0.951 . S
C331 C330 1.386 . S
C331 C335 1.383 . S
C332 C330 1.383 . S
C332 C333 1.402 . S
C332 H347 0.951 . S
C333 C332 1.402 . S
C333 C334 1.375 . S
C333 C336 1.481 . S
C334 C333 1.375 . S
C334 C335 1.367 . S
C334 H348 0.951 . S
C335 C331 1.383 . S
C335 C334 1.367 . S
C335 H349 0.950 . S
C336 C333 1.481 . S
C336 C337 1.297 . S
C336 H350 0.950 . S
C337 C336 1.297 . S
C337 C338 1.479 . S
C337 H351 0.950 . S
C338 C337 1.479 . S
C338 C339 1.375 . S
C338 C344 1.404 . S
C339 C338 1.375 . S
C339 C340 1.369 . S
C339 H352 0.950 . S
C340 C339 1.369 . S
C340 C341 1.392 . S
C340 H353 0.951 . S
C341 C340 1.392 . S
C341 C343 1.384 . S
H342 C344 0.949 . S
C343 C341 1.384 . S
C343 C344 1.385 . S
C343 H345 0.950 . S
C344 C338 1.404 . S
C344 H342 0.949 . S
C344 C343 1.385 . S
H345 C343 0.950 . S
H346 C330 0.951 . S
H347 C332 0.951 . S
H348 C334 0.951 . S
H349 C335 0.950 . S
H350 C336 0.950 . S
H351 C337 0.950 . S
H352 C339 0.950 . S
H353 C340 0.951 . S
C354 C355 1.386 . S
C354 C356 1.383 . S
C354 H370 0.951 . S
C355 C354 1.386 . S
C355 C359 1.383 . S
C356 C354 1.383 . S
C356 C357 1.402 . S
C356 H371 0.951 . S
C357 C356 1.402 . S
C357 C358 1.375 . S
C357 C360 1.481 . S
C358 C357 1.375 . S
C358 C359 1.367 . S
C358 H372 0.951 . S
C359 C355 1.383 . S
C359 C358 1.367 . S
C359 H373 0.950 . S
C360 C357 1.481 . S
C360 C361 1.297 . S
C360 H374 0.950 . S
C361 C360 1.297 . S
C361 C362 1.479 . S
C361 H375 0.950 . S
C362 C361 1.479 . S
C362 C363 1.375 . S
C362 C368 1.404 . S
C363 C362 1.375 . S
C363 C364 1.369 . S
C363 H376 0.950 . S
C364 C363 1.369 . S
C364 C365 1.392 . S
C364 H377 0.951 1_565 S
C365 C364 1.392 . S
C365 C367 1.384 . S
H366 C368 0.949 . S
C367 C365 1.384 . S
C367 C368 1.385 . S
C367 H369 0.950 . S
C368 C362 1.404 . S
C368 H366 0.949 . S
C368 C367 1.385 . S
H369 C367 0.950 . S
H370 C354 0.951 . S
H371 C356 0.951 . S
H372 C358 0.951 . S
H373 C359 0.950 . S
H374 C360 0.950 . S
H375 C361 0.950 . S
H376 C363 0.950 . S
H377 C364 0.951 1_545 S
C101 C63 1.236 . S
C91 C40 1.454 . S
C115 C4 1.473 . S
C125 C87 1.190 . S
C139 C16 1.616 . S
C149 C66 1.410 . S
C163 C28 1.592 . S
C173 C84 1.430 . S
C197 C64 1.493 . S
C187 C9 1.523 . S
C221 C86 1.573 . S
C211 C18 1.620 . S
C235 C33 1.604 . S
C245 C65 1.578 . S
C259 C45 1.519 . S
C269 C85 1.405 . S
C293 C83 1.427 . S
C283 C21 1.519 . S
C317 C62 1.433 . S
C307 C30 1.537 . S
C341 C82 1.437 . S
C331 C42 1.459 . S
C355 C6 1.453 1_556 S
C365 C61 1.402 . S
