# Generated by pormake.
# Topology ctn, (3,4)-cn, num edge types: 1
# Building blocks:
#     Node 0, Type 0, BuildingBlock: CUQRIR_clean_linker_1, # of connection points: 3
#     Node 1, Type 0, BuildingBlock: CUQRIR_clean_linker_1, # of connection points: 3
#     Node 2, Type 0, BuildingBlock: CUQRIR_clean_linker_1, # of connection points: 3
#     Node 3, Type 0, BuildingBlock: CUQRIR_clean_linker_1, # of connection points: 3
#     Node 4, Type 0, BuildingBlock: CUQRIR_clean_linker_1, # of connection points: 3
#     Node 5, Type 0, BuildingBlock: CUQRIR_clean_linker_1, # of connection points: 3
#     Node 6, Type 0, BuildingBlock: CUQRIR_clean_linker_1, # of connection points: 3
#     Node 7, Type 0, BuildingBlock: CUQRIR_clean_linker_1, # of connection points: 3
#     Node 8, Type 0, BuildingBlock: CUQRIR_clean_linker_1, # of connection points: 3
#     Node 9, Type 0, BuildingBlock: CUQRIR_clean_linker_1, # of connection points: 3
#     Node 10, Type 0, BuildingBlock: CUQRIR_clean_linker_1, # of connection points: 3
#     Node 11, Type 0, BuildingBlock: CUQRIR_clean_linker_1, # of connection points: 3
#     Node 12, Type 0, BuildingBlock: CUQRIR_clean_linker_1, # of connection points: 3
#     Node 13, Type 0, BuildingBlock: CUQRIR_clean_linker_1, # of connection points: 3
#     Node 14, Type 0, BuildingBlock: CUQRIR_clean_linker_1, # of connection points: 3
#     Node 15, Type 0, BuildingBlock: CUQRIR_clean_linker_1, # of connection points: 3
#     Node 16, Type 1, BuildingBlock: KUFVIS_clean_sbu_0, # of connection points: 4
#     Node 17, Type 1, BuildingBlock: KUFVIS_clean_sbu_0, # of connection points: 4
#     Node 18, Type 1, BuildingBlock: KUFVIS_clean_sbu_0, # of connection points: 4
#     Node 19, Type 1, BuildingBlock: KUFVIS_clean_sbu_0, # of connection points: 4
#     Node 20, Type 1, BuildingBlock: KUFVIS_clean_sbu_0, # of connection points: 4
#     Node 21, Type 1, BuildingBlock: KUFVIS_clean_sbu_0, # of connection points: 4
#     Node 22, Type 1, BuildingBlock: KUFVIS_clean_sbu_0, # of connection points: 4
#     Node 23, Type 1, BuildingBlock: KUFVIS_clean_sbu_0, # of connection points: 4
#     Node 24, Type 1, BuildingBlock: KUFVIS_clean_sbu_0, # of connection points: 4
#     Node 25, Type 1, BuildingBlock: KUFVIS_clean_sbu_0, # of connection points: 4
#     Node 26, Type 1, BuildingBlock: KUFVIS_clean_sbu_0, # of connection points: 4
#     Node 27, Type 1, BuildingBlock: KUFVIS_clean_sbu_0, # of connection points: 4
#     Edge 28, Type (0, 1), BuildingBlock: XUDNAN_clean_linker_2, # of connection points: 2
#     Edge 29, Type (0, 1), BuildingBlock: XUDNAN_clean_linker_2, # of connection points: 2
#     Edge 30, Type (0, 1), BuildingBlock: XUDNAN_clean_linker_2, # of connection points: 2
#     Edge 31, Type (0, 1), BuildingBlock: XUDNAN_clean_linker_2, # of connection points: 2
#     Edge 32, Type (0, 1), BuildingBlock: XUDNAN_clean_linker_2, # of connection points: 2
#     Edge 33, Type (0, 1), BuildingBlock: XUDNAN_clean_linker_2, # of connection points: 2
#     Edge 34, Type (0, 1), BuildingBlock: XUDNAN_clean_linker_2, # of connection points: 2
#     Edge 35, Type (0, 1), BuildingBlock: XUDNAN_clean_linker_2, # of connection points: 2
#     Edge 36, Type (0, 1), BuildingBlock: XUDNAN_clean_linker_2, # of connection points: 2
#     Edge 37, Type (0, 1), BuildingBlock: XUDNAN_clean_linker_2, # of connection points: 2
#     Edge 38, Type (0, 1), BuildingBlock: XUDNAN_clean_linker_2, # of connection points: 2
#     Edge 39, Type (0, 1), BuildingBlock: XUDNAN_clean_linker_2, # of connection points: 2
#     Edge 40, Type (0, 1), BuildingBlock: XUDNAN_clean_linker_2, # of connection points: 2
#     Edge 41, Type (0, 1), BuildingBlock: XUDNAN_clean_linker_2, # of connection points: 2
#     Edge 42, Type (0, 1), BuildingBlock: XUDNAN_clean_linker_2, # of connection points: 2
#     Edge 43, Type (0, 1), BuildingBlock: XUDNAN_clean_linker_2, # of connection points: 2
#     Edge 44, Type (0, 1), BuildingBlock: XUDNAN_clean_linker_2, # of connection points: 2
#     Edge 45, Type (0, 1), BuildingBlock: XUDNAN_clean_linker_2, # of connection points: 2
#     Edge 46, Type (0, 1), BuildingBlock: XUDNAN_clean_linker_2, # of connection points: 2
#     Edge 47, Type (0, 1), BuildingBlock: XUDNAN_clean_linker_2, # of connection points: 2
#     Edge 48, Type (0, 1), BuildingBlock: XUDNAN_clean_linker_2, # of connection points: 2
#     Edge 49, Type (0, 1), BuildingBlock: XUDNAN_clean_linker_2, # of connection points: 2
#     Edge 50, Type (0, 1), BuildingBlock: XUDNAN_clean_linker_2, # of connection points: 2
#     Edge 51, Type (0, 1), BuildingBlock: XUDNAN_clean_linker_2, # of connection points: 2
#     Edge 52, Type (0, 1), BuildingBlock: XUDNAN_clean_linker_2, # of connection points: 2
#     Edge 53, Type (0, 1), BuildingBlock: XUDNAN_clean_linker_2, # of connection points: 2
#     Edge 54, Type (0, 1), BuildingBlock: XUDNAN_clean_linker_2, # of connection points: 2
#     Edge 55, Type (0, 1), BuildingBlock: XUDNAN_clean_linker_2, # of connection points: 2
#     Edge 56, Type (0, 1), BuildingBlock: XUDNAN_clean_linker_2, # of connection points: 2
#     Edge 57, Type (0, 1), BuildingBlock: XUDNAN_clean_linker_2, # of connection points: 2
#     Edge 58, Type (0, 1), BuildingBlock: XUDNAN_clean_linker_2, # of connection points: 2
#     Edge 59, Type (0, 1), BuildingBlock: XUDNAN_clean_linker_2, # of connection points: 2
#     Edge 60, Type (0, 1), BuildingBlock: XUDNAN_clean_linker_2, # of connection points: 2
#     Edge 61, Type (0, 1), BuildingBlock: XUDNAN_clean_linker_2, # of connection points: 2
#     Edge 62, Type (0, 1), BuildingBlock: XUDNAN_clean_linker_2, # of connection points: 2
#     Edge 63, Type (0, 1), BuildingBlock: XUDNAN_clean_linker_2, # of connection points: 2
#     Edge 64, Type (0, 1), BuildingBlock: XUDNAN_clean_linker_2, # of connection points: 2
#     Edge 65, Type (0, 1), BuildingBlock: XUDNAN_clean_linker_2, # of connection points: 2
#     Edge 66, Type (0, 1), BuildingBlock: XUDNAN_clean_linker_2, # of connection points: 2
#     Edge 67, Type (0, 1), BuildingBlock: XUDNAN_clean_linker_2, # of connection points: 2
#     Edge 68, Type (0, 1), BuildingBlock: XUDNAN_clean_linker_2, # of connection points: 2
#     Edge 69, Type (0, 1), BuildingBlock: XUDNAN_clean_linker_2, # of connection points: 2
#     Edge 70, Type (0, 1), BuildingBlock: XUDNAN_clean_linker_2, # of connection points: 2
#     Edge 71, Type (0, 1), BuildingBlock: XUDNAN_clean_linker_2, # of connection points: 2
#     Edge 72, Type (0, 1), BuildingBlock: XUDNAN_clean_linker_2, # of connection points: 2
#     Edge 73, Type (0, 1), BuildingBlock: XUDNAN_clean_linker_2, # of connection points: 2
#     Edge 74, Type (0, 1), BuildingBlock: XUDNAN_clean_linker_2, # of connection points: 2
#     Edge 75, Type (0, 1), BuildingBlock: XUDNAN_clean_linker_2, # of connection points: 2
# Relax obj value: 0.092
# Max RMSD: 0.206
# Mean RMSD: 0.137
data_MOF--net-ctn--node1-KUFVIS_clean_sbu_0--node2-CUQRIR_clean_linker_1--edge1-XUDNAN_clean_linker_2
_symmetry_space_group_name_H-M    P1
_symmetry_Int_Tables_number       1
_symmetry_cell_setting            triclinic
loop_
_symmetry_equiv_pos_as_xyz
'x, y, z'
_cell_length_a     50.857499
_cell_length_b     47.400905
_cell_length_c     48.922133
_cell_angle_alpha  97.246194
_cell_angle_beta   89.212514
_cell_angle_gamma 94.144457
loop_
_atom_site_label
_atom_site_type_symbol
_atom_site_fract_x
_atom_site_fract_y
_atom_site_fract_z
_atom_type_partial_charge
C0 C 0.05169 0.02745 0.08173 0.0
N1 N 0.06103 0.03626 0.05787 0.0
N2 N 0.0285 0.03862 0.08904 0.0
C3 C 0.06677 1.01046 0.0994 0.0
C4 C 0.02395 0.0546 0.0687 0.0
N5 N 0.04363 0.05313 0.04951 0.0
C6 C 1.00094 0.073 0.06846 0.0
H7 H 0.05362 0.99988 0.11386 0.0
H8 H 0.08153 0.02506 0.11158 0.0
H9 H 0.0775 0.99412 0.08636 0.0
H10 H 1.00768 0.09431 0.06281 0.0
H11 H 0.99042 0.07571 0.08845 0.0
H12 H 0.98644 0.06279 0.05291 0.0
C13 C 0.30676 0.72643 0.21166 0.0
N14 N 0.3157 0.71005 0.22992 0.0
N15 N 0.32185 0.75114 0.2121 0.0
C16 C 0.28209 0.71923 0.19475 0.0
C17 C 0.3402 0.74949 0.23155 0.0
N18 N 0.3364 0.72458 0.24278 0.0
C19 C 0.36333 0.77103 0.23728 0.0
H20 H 0.28729 0.70749 0.17456 0.0
H21 H 0.27283 0.73884 0.19092 0.0
H22 H 0.26756 0.70558 0.20523 0.0
H23 H 0.35811 0.78753 0.25424 0.0
H24 H 0.36831 0.78183 0.21885 0.0
H25 H 0.38092 0.76079 0.24336 0.0
C26 C 0.98043 0.50244 0.09325 0.0
N27 N 0.99531 0.47958 0.092 0.0
N28 N 0.96053 0.4977 0.07458 0.0
C29 C 0.98504 0.52921 0.11331 0.0
C30 C 0.96393 0.4711 0.06183 0.0
N31 N 0.98496 0.46002 0.0723 0.0
C32 C 0.94555 0.45524 0.04038 0.0
H33 H 0.98627 0.52358 0.13458 0.0
H34 H 0.96965 0.54439 0.11237 0.0
H35 H 1.00405 0.54047 0.10848 0.0
H36 H 0.95111 0.46191 0.02002 0.0
H37 H 0.92491 0.46054 0.04487 0.0
H38 H 0.94668 0.43184 0.03911 0.0
C39 C 0.67406 0.81062 0.21856 0.0
N40 N 0.69921 0.81897 0.21205 0.0
N41 N 0.66784 0.82205 0.24444 0.0
C42 C 0.65601 0.79042 0.20002 0.0
C43 C 0.69007 0.83769 0.25336 0.0
N44 N 0.70925 0.83574 0.2338 0.0
C45 C 0.6925 0.85603 0.2808 0.0
H46 H 0.64704 0.80249 0.18497 0.0
H47 H 0.64003 0.78029 0.2119 0.0
H48 H 0.66726 0.77363 0.18827 0.0
H49 H 0.69994 0.84336 0.29625 0.0
H50 H 0.67303 0.86331 0.28798 0.0
H51 H 0.70648 0.87491 0.27952 0.0
C52 C 0.03166 0.99273 0.50738 0.0
N53 N 0.05425 0.99066 0.5214 0.0
N54 N 0.03454 0.0139 0.49119 0.0
C55 C 1.00615 0.97515 0.51028 0.0
C56 C 0.05953 0.025 0.49604 0.0
N57 N 0.0716 1.0111 0.51446 0.0
C58 C 0.07316 0.04737 0.48044 0.0
H59 H 1.00638 0.95501 0.49604 0.0
H60 H 0.98914 0.98669 0.5048 0.0
H61 H 1.00347 0.96988 0.53166 0.0
H62 H 0.05932 0.06311 0.47578 0.0
H63 H 0.08068 0.03687 0.4606 0.0
H64 H 0.09003 0.05877 0.49229 0.0
C65 C 0.19251 0.71883 0.84073 0.0
N66 N 0.21213 0.70875 0.85453 0.0
N67 N 0.18952 0.7042 0.81527 0.0
C68 C 0.17854 0.7453 0.85055 0.0
C69 C 0.20841 0.6854 0.8136 0.0
N70 N 0.22235 0.68818 0.83738 0.0
C71 C 0.21284 0.66415 0.78874 0.0
H72 H 0.16226 0.73979 0.86468 0.0
H73 H 0.16992 0.75441 0.83319 0.0
H74 H 0.19227 0.76184 0.86187 0.0
H75 H 0.22831 0.6733 0.77556 0.0
H76 H 0.19453 0.65932 0.77643 0.0
H77 H 0.21951 0.64411 0.79494 0.0
C78 C 0.96854 0.55358 0.4719 0.0
N79 N 0.99043 0.57185 0.47262 0.0
N80 N 0.95009 0.56393 0.48996 0.0
C81 C 0.96468 0.52628 0.45265 0.0
C82 C 0.9615 0.58917 0.50167 0.0
N83 N 0.98589 0.59428 0.4909 0.0
C84 C 0.9499 0.60721 0.52583 0.0
H85 H 0.97574 0.52786 0.43312 0.0
H86 H 0.94349 0.52093 0.44798 0.0
H87 H 0.97224 0.50873 0.46261 0.0
H88 H 0.96556 0.61709 0.54022 0.0
H89 H 0.93554 0.59439 0.53734 0.0
H90 H 0.93956 0.62449 0.51821 0.0
C91 C 0.81072 0.83212 0.85719 0.0
N92 N 0.83165 0.81564 0.85287 0.0
N93 N 0.81058 0.85105 0.83868 0.0
C94 C 0.78938 0.82896 0.87844 0.0
C95 C 0.83195 0.84554 0.82271 0.0
N96 N 0.84469 0.82391 0.831 0.0
C97 C 0.84163 0.86271 0.80027 0.0
H98 H 0.77079 0.837 0.87194 0.0
H99 H 0.79561 0.84172 0.89816 0.0
H100 H 0.78559 0.80634 0.88191 0.0
H101 H 0.85829 0.87776 0.80827 0.0
H102 H 0.8259 0.8751 0.79323 0.0
H103 H 0.84904 0.84851 0.78249 0.0
C104 C 0.31779 0.33878 0.36407 0.0
N105 N 0.33755 0.32124 0.35714 0.0
N106 N 0.31282 0.35395 0.34342 0.0
C107 C 0.30123 0.33898 0.38989 0.0
C108 C 0.33007 0.34525 0.32344 0.0
N109 N 0.34621 0.3262 0.33195 0.0
C110 C 0.32801 0.3523 0.29434 0.0
H111 H 0.28434 0.35246 0.38943 0.0
H112 H 0.31361 0.34731 0.40802 0.0
H113 H 0.29346 0.31699 0.3925 0.0
H114 H 0.33679 0.37424 0.29316 0.0
H115 H 0.30707 0.35193 0.2883 0.0
H116 H 0.33766 0.33678 0.27929 0.0
C117 C 0.48091 1.00738 0.5866 0.0
N118 N 0.49498 0.98436 0.58896 0.0
N119 N 0.46318 1.00156 0.56572 0.0
C120 C 0.48509 0.03578 0.6042 0.0
C121 C 0.46692 0.97419 0.55554 0.0
N122 N 0.48609 0.9637 0.56947 0.0
C123 C 0.45109 0.95719 0.53251 0.0
H124 H 0.48972 0.0328 0.6257 0.0
H125 H 0.46779 0.04862 0.60435 0.0
H126 H 0.50199 0.04818 0.59582 0.0
H127 H 0.46171 0.95884 0.51274 0.0
H128 H 0.43132 0.96536 0.53109 0.0
H129 H 0.44868 0.93433 0.5355 0.0
C130 C 0.1729 0.30652 0.71867 0.0
N131 N 0.1958 0.31651 0.70752 0.0
N132 N 0.16509 0.32513 0.74006 0.0
C133 C 0.15891 0.27789 0.70978 0.0
C134 C 0.1839 0.34695 0.74096 0.0
N135 N 0.20287 0.34169 0.72163 0.0
C136 C 0.18535 0.37225 0.763 0.0
H137 H 0.13807 0.27727 0.71679 0.0
H138 H 0.16895 0.26134 0.71895 0.0
H139 H 0.15962 0.2728 0.68702 0.0
H140 H 0.1968 0.36731 0.78073 0.0
H141 H 0.16529 0.37729 0.77038 0.0
H142 H 0.19549 0.39108 0.75499 0.0
C143 C 0.81006 0.22696 0.70329 0.0
N144 N 0.81743 0.21305 0.72434 0.0
N145 N 0.82477 0.25184 0.70283 0.0
C146 C 0.7884 0.21628 0.68308 0.0
C147 C 0.8414 0.25268 0.72434 0.0
N148 N 0.83686 0.22928 0.73768 0.0
C149 C 0.86164 0.27682 0.73285 0.0
H150 H 0.79685 0.20292 0.66533 0.0
H151 H 0.77933 0.23413 0.67507 0.0
H152 H 0.77281 0.20318 0.69276 0.0
H153 H 0.85261 0.29264 0.74813 0.0
H154 H 0.86845 0.28779 0.71505 0.0
H155 H 0.87882 0.26898 0.74259 0.0
C156 C 0.55873 0.52935 0.58781 0.0
N157 N 0.56738 0.54062 0.56485 0.0
N158 N 0.53447 0.53756 0.59547 0.0
C159 C 0.57346 0.50878 0.60187 0.0
C160 C 0.52852 0.55435 0.57636 0.0
N161 N 0.54851 0.55654 0.55774 0.0
C162 C 0.50174 0.56551 0.57394 0.0
H163 H 0.57262 0.4878 0.58885 0.0
H164 H 0.56509 0.50605 0.62249 0.0
H165 H 0.59448 0.51653 0.60444 0.0
H166 H 0.50089 0.58599 0.58758 0.0
H167 H 0.48603 0.55039 0.58069 0.0
H168 H 0.49768 0.56905 0.55246 0.0
C169 C 0.54414 0.47879 0.99745 0.0
N170 N 0.56423 0.48165 0.01607 0.0
N171 N 0.54756 0.49842 0.97955 0.0
C172 C 0.52153 0.45626 0.99583 0.0
C173 C 0.57062 0.51297 0.98739 0.0
N174 N 0.58101 0.50263 1.00917 0.0
C175 C 0.5831 0.5376 0.97396 0.0
H176 H 0.52747 0.43647 1.00321 0.0
H177 H 0.5142 0.45083 0.97448 0.0
H178 H 0.50495 0.46451 1.00869 0.0
H179 H 0.57015 0.54434 0.95832 0.0
H180 H 0.60172 0.53126 0.96368 0.0
H181 H 0.58818 0.55593 0.9899 0.0
C182 C 0.68349 0.21884 0.32843 0.0
N183 N 0.70447 0.2112 0.34199 0.0
N184 N 0.67796 0.20005 0.30563 0.0
C185 C 0.66839 0.24466 0.33745 0.0
C186 C 0.69646 0.18086 0.30566 0.0
N187 N 0.71275 0.1878 0.32752 0.0
C188 C 0.69858 0.15512 0.28459 0.0
H189 H 0.65745 0.2514 0.32028 0.0
H190 H 0.6819 0.2628 0.34642 0.0
H191 H 0.65383 0.23945 0.35348 0.0
H192 H 0.71828 0.15613 0.2746 0.0
H193 H 0.6833 0.15356 0.26843 0.0
H194 H 0.69684 0.1356 0.29505 0.0
C195 C 0.47806 0.0429 0.97458 0.0
N196 N 0.49474 0.06602 0.97141 0.0
N197 N 0.45845 0.05004 0.99256 0.0
C198 C 0.48096 0.01333 0.96021 0.0
C199 C 0.46358 0.07828 1.00012 0.0
N200 N 0.48545 0.08817 0.9871 0.0
C201 C 0.44719 0.09627 0.02035 0.0
H202 H 0.46182 1.00046 0.95896 0.0
H203 H 0.49487 1.00259 0.97201 0.0
H204 H 0.48914 0.0142 0.93915 0.0
H205 H 0.45994 0.11293 0.03276 0.0
H206 H 0.43582 0.08332 0.03438 0.0
H207 H 0.43302 0.10698 1.00883 0.0
Mn208 Mn 0.25554 0.89276 0.04008 0.0
Mn209 Mn 0.25519 0.90711 0.97409 0.0
C210 C 0.23934 0.85833 1.00478 0.0
C211 C 0.27466 0.87506 0.0774 0.0
C212 C 0.21789 0.93262 0.01791 0.0
O213 O 0.28389 0.92584 0.04003 0.0
O214 O 0.28309 0.93219 0.995 0.0
C215 C 0.30754 0.88837 0.95538 0.0
N216 N 0.28082 0.88621 0.95272 0.0
C217 C 0.28304 0.85054 0.91325 0.0
C218 C 0.31057 0.85239 0.9156 0.0
C219 C 0.32286 0.87136 0.93677 0.0
C220 C 0.2688 0.86806 0.93238 0.0
H221 H 0.31711 0.90291 0.9716 0.0
C222 C 0.2928 0.93783 0.01934 0.0
O223 O 0.25712 0.89374 0.08097 0.0
O224 O 0.28181 0.86723 0.05217 0.0
N225 N 0.22952 0.88337 0.95194 0.0
C226 C 0.20274 0.88305 0.95339 0.0
C227 C 0.18745 0.86521 0.93368 0.0
C228 C 0.19986 0.84783 0.91273 0.0
C229 C 0.22743 0.84799 0.91202 0.0
C230 C 0.24164 0.86659 0.93194 0.0
H231 H 0.19311 0.89646 0.96935 0.0
O232 O 0.23089 0.8576 0.0299 0.0
O233 O 0.25537 0.88003 1.00118 0.0
O234 O 0.22614 0.92006 0.03738 0.0
O235 O 0.22752 0.92956 0.99359 0.0
C236 C 0.24135 0.83035 0.89241 0.0
C237 C 0.26913 0.83156 0.89307 0.0
H238 H 0.32246 0.83919 0.90138 0.0
H239 H 0.3441 0.87286 0.93874 0.0
H240 H 0.16617 0.86496 0.93452 0.0
H241 H 0.18801 0.83439 0.89733 0.0
H242 H 0.23086 0.81555 0.87691 0.0
H243 H 0.2796 0.81763 0.87812 0.0
Mn244 Mn 0.16295 0.52272 0.28605 0.0
Mn245 Mn 0.13634 0.58408 0.27697 0.0
C246 C 0.18659 0.5566 0.26308 0.0
C247 C 0.18859 0.49428 0.30961 0.0
C248 C 0.12041 0.52762 0.24286 0.0
O249 O 0.13416 0.52528 0.31566 0.0
O250 O 0.11755 0.56624 0.30747 0.0
C251 C 0.14959 0.61867 0.33039 0.0
N252 N 0.15091 0.61504 0.30234 0.0
C253 C 0.16948 0.66309 0.3017 0.0
C254 C 0.16832 0.66736 0.33057 0.0
C255 C 0.15856 0.64496 0.34498 0.0
C256 C 0.16089 0.63623 0.28833 0.0
H257 H 0.14148 0.60178 0.34154 0.0
C258 C 0.11816 0.54491 0.3212 0.0
O259 O 0.1705 0.48322 0.29227 0.0
O260 O 0.19093 0.52193 0.31434 0.0
N261 N 0.15287 0.60398 0.24892 0.0
C262 C 0.15404 0.59584 0.22124 0.0
C263 C 0.16498 0.61516 0.20396 0.0
C264 C 0.17402 0.64283 0.21525 0.0
C265 C 0.17243 0.65076 0.24379 0.0
C266 C 0.16207 0.63031 0.26005 0.0
H267 H 0.14692 0.5747 0.21247 0.0
O268 O 0.1911 0.52981 0.25841 0.0
O269 O 0.16779 0.56294 0.28065 0.0
O270 O 0.13508 0.5128 0.25542 0.0
O271 O 0.11967 0.55449 0.249 0.0
C272 C 0.18049 0.67821 0.25673 0.0
C273 C 0.17882 0.68444 0.28566 0.0
H274 H 0.17491 0.68772 0.34188 0.0
H275 H 0.15758 0.64808 0.36726 0.0
H276 H 0.16619 0.60884 0.18196 0.0
H277 H 0.18211 0.65781 0.20182 0.0
H278 H 0.18828 0.6946 0.24467 0.0
H279 H 0.18538 0.70553 0.29541 0.0
Mn280 Mn 0.78461 0.6473 0.0298 0.0
Mn281 Mn 0.7337 0.66699 0.99421 0.0
C282 C 0.74278 0.62378 0.03255 0.0
C283 C 0.82115 0.62082 0.03572 0.0
C284 C 0.7539 0.7002 0.04779 0.0
O285 O 0.80339 0.67096 1.00152 0.0
O286 O 0.7678 0.6806 0.97819 0.0
C287 C 0.74219 0.63171 0.94089 0.0
N288 N 0.72627 0.63954 0.96273 0.0
C289 C 0.68935 0.61082 0.94153 0.0
C290 C 0.70531 0.60247 0.91876 0.0
C291 C 0.73192 0.61278 0.91856 0.0
C292 C 0.70088 0.62909 0.9635 0.0
H293 H 0.7625 0.64001 0.94045 0.0
C294 C 0.79271 0.68199 0.98216 0.0
O295 O 0.81775 0.64504 0.05029 0.0
O296 O 0.80417 0.6125 0.01621 0.0
N297 N 0.69924 0.65558 1.00682 0.0
C298 C 0.68629 0.66623 0.03002 0.0
C299 C 0.65968 0.65739 0.03378 0.0
C300 C 0.64639 0.63849 0.01324 0.0
C301 C 0.65984 0.62869 0.98909 0.0
C302 C 0.68652 0.63767 0.98679 0.0
H303 H 0.69622 0.68123 0.04562 0.0
O304 O 0.76033 0.62322 0.0514 0.0
O305 O 0.75027 0.6376 0.01202 0.0
O306 O 0.77154 0.68347 0.05192 0.0
O307 O 0.73921 0.69651 0.02649 0.0
C308 C 0.64764 0.61091 0.96693 0.0
C309 C 0.66238 0.60201 0.94314 0.0
H310 H 0.69735 0.58821 0.90132 0.0
H311 H 0.74437 0.60644 0.90107 0.0
H312 H 0.64935 0.66535 0.05233 0.0
H313 H 0.62578 0.63197 0.01608 0.0
H314 H 0.62697 0.60377 0.96803 0.0
H315 H 0.65284 0.58811 0.92634 0.0
Mn316 Mn 0.87671 0.02024 0.2937 0.0
Mn317 Mn 0.90653 0.95805 0.28592 0.0
C318 C 0.85452 0.97827 0.27318 0.0
C319 C 0.85009 0.05457 0.31616 0.0
C320 C 0.92011 1.00544 0.25099 0.0
O321 O 0.90615 0.02783 0.3226 0.0
O322 O 0.92384 0.98505 0.31599 0.0
C323 C 0.8935 0.93741 0.33952 0.0
N324 N 0.89274 0.93332 0.31147 0.0
C325 C 0.87148 0.88626 0.31143 0.0
C326 C 0.87213 0.88995 0.34031 0.0
C327 C 0.88317 0.91564 0.35441 0.0
C328 C 0.88239 0.90856 0.29768 0.0
H329 H 0.90192 0.95712 0.35047 0.0
C330 C 0.92257 1.01032 0.3288 0.0
O331 O 0.86773 0.06071 0.2981 0.0
O332 O 0.84876 0.02866 0.32247 0.0
N333 N 0.89088 0.93018 0.25802 0.0
C334 C 0.88911 0.93132 0.23042 0.0
C335 C 0.87701 0.90802 0.21346 0.0
C336 C 0.86693 0.88379 0.22502 0.0
C337 C 0.8689 0.88314 0.25349 0.0
C338 C 0.88126 0.90696 0.26936 0.0
H339 H 0.89659 0.95001 0.22148 0.0
O340 O 0.84818 1.00285 0.26728 0.0
O341 O 0.87429 0.97895 0.28985 0.0
O342 O 0.90375 0.02227 0.26253 0.0
O343 O 0.92267 0.98078 0.25794 0.0
C344 C 0.85835 0.86018 0.26685 0.0
C345 C 0.85971 0.8617 0.29579 0.0
H346 H 0.86393 0.87333 0.35189 0.0
H347 H 0.88364 0.91869 0.3767 0.0
H348 H 0.87531 0.9088 0.19155 0.0
H349 H 0.85738 0.86598 0.21191 0.0
H350 H 0.84865 0.8415 0.25512 0.0
H351 H 0.85107 0.84414 0.30586 0.0
Mn352 Mn 0.28153 0.14286 0.5234 0.0
Mn353 Mn 0.23009 0.16211 0.48888 0.0
C354 C 0.24058 0.11651 0.52372 0.0
C355 C 0.31988 0.11794 0.52411 0.0
C356 C 0.24994 0.19371 0.54369 0.0
O357 O 0.29885 0.1707 0.49761 0.0
O358 O 0.26352 0.17557 0.47162 0.0
C359 C 0.23723 0.12557 0.43594 0.0
N360 N 0.2217 0.13437 0.45778 0.0
C361 C 0.18524 0.10271 0.43951 0.0
C362 C 0.20074 0.09366 0.41659 0.0
C363 C 0.22691 0.10502 0.41489 0.0
C364 C 0.1967 0.12311 0.45991 0.0
H365 H 0.25738 0.13399 0.43475 0.0
C366 C 0.28817 0.17968 0.477 0.0
O367 O 0.31572 0.13956 0.54229 0.0
O368 O 0.30214 0.11114 0.50513 0.0
N369 N 0.19629 0.15034 0.50296 0.0
C370 C 0.18412 0.16087 0.52668 0.0
C371 C 0.15757 0.15234 0.53117 0.0
C372 C 0.14381 0.1331 0.51127 0.0
C373 C 0.15685 0.12206 0.48734 0.0
C374 C 0.18311 0.1319 0.48364 0.0
H375 H 0.19439 0.17611 0.54181 0.0
O376 O 0.2582 0.11461 0.54219 0.0
O377 O 0.24781 0.13308 0.50534 0.0
O378 O 0.26655 0.17602 0.54838 0.0
O379 O 0.23681 0.19166 0.52129 0.0
C380 C 0.14473 0.10193 0.46686 0.0
C381 C 0.159 0.09204 0.44308 0.0
H382 H 0.19284 0.07782 0.40032 0.0
H383 H 0.23911 0.09793 0.39742 0.0
H384 H 0.14764 0.16082 0.5498 0.0
H385 H 0.12319 0.12699 0.51451 0.0
H386 H 0.12449 0.09376 0.46929 0.0
H387 H 0.1496 0.07627 0.42765 0.0
Mn388 Mn 0.37983 0.51392 0.79242 0.0
Mn389 Mn 0.40197 0.44778 0.78826 0.0
C390 C 0.35316 0.47419 0.77401 0.0
C391 C 0.35696 0.55144 0.81551 0.0
C392 C 0.41946 0.49027 0.74887 0.0
O393 O 0.41049 0.51956 0.81999 0.0
O394 O 0.42259 0.47435 0.81611 0.0
C395 C 0.38736 0.43333 0.84389 0.0
N396 N 0.38622 0.42694 0.81598 0.0
C397 C 0.3615 0.38234 0.81971 0.0
C398 C 0.36252 0.38837 0.84851 0.0
C399 C 0.37546 0.414 0.86063 0.0
C400 C 0.37395 0.40226 0.80408 0.0
H401 H 0.39731 0.45299 0.85329 0.0
C402 C 0.42484 0.50049 0.82695 0.0
O403 O 0.37404 0.55567 0.79622 0.0
O404 O 0.35419 0.52582 0.82232 0.0
N405 N 0.38353 0.41977 0.76246 0.0
C406 C 0.38156 0.41886 0.73461 0.0
C407 C 0.36778 0.39543 0.71939 0.0
C408 C 0.3563 0.37314 0.73292 0.0
C409 C 0.35853 0.37458 0.76161 0.0
C410 C 0.37256 0.39843 0.77569 0.0
H411 H 0.39007 0.43609 0.72416 0.0
O412 O 0.34941 0.49931 0.76759 0.0
O413 O 0.37266 0.47288 0.79066 0.0
O414 O 0.40589 0.51062 0.7594 0.0
O415 O 0.41927 0.46645 0.75844 0.0
C416 C 0.34649 0.35385 0.7769 0.0
C417 C 0.348 0.35771 0.80593 0.0
H418 H 0.35318 0.37364 0.8615 0.0
H419 H 0.37623 0.41886 0.88283 0.0
H420 H 0.36586 0.39465 0.6973 0.0
H421 H 0.3454 0.35529 0.72115 0.0
H422 H 0.33547 0.33521 0.76658 0.0
H423 H 0.3382 0.34192 0.81748 0.0
Mn424 Mn 0.75987 0.39351 0.53001 0.0
Mn425 Mn 0.75815 0.41232 0.46566 0.0
C426 C 0.74617 0.36028 0.49286 0.0
C427 C 0.7817 0.37406 0.56475 0.0
C428 C 0.71666 0.42811 0.50886 0.0
O429 O 0.7847 0.4297 0.53329 0.0
O430 O 0.78015 0.44108 0.49018 0.0
C431 C 0.81448 0.40609 0.45155 0.0
N432 N 0.78851 0.39916 0.44577 0.0
C433 C 0.7994 0.36851 0.40476 0.0
C434 C 0.82624 0.37547 0.41019 0.0
C435 C 0.83381 0.3943 0.43372 0.0
C436 C 0.78102 0.38105 0.42319 0.0
H437 H 0.82046 0.42046 0.46962 0.0
C438 C 0.78976 0.44584 0.51453 0.0
O439 O 0.76197 0.38977 0.57054 0.0
O440 O 0.7892 0.37067 0.53923 0.0
N441 N 0.73819 0.3861 0.43946 0.0
C442 C 0.71161 0.38022 0.43803 0.0
C443 C 0.70082 0.36132 0.41597 0.0
C444 C 0.71747 0.3486 0.39561 0.0
C445 C 0.74477 0.35494 0.39749 0.0
C446 C 0.75436 0.37428 0.41975 0.0
H447 H 0.6988 0.38977 0.45368 0.0
O448 O 0.73829 0.357 0.51766 0.0
O449 O 0.76097 0.38334 0.49046 0.0
O450 O 0.72735 0.41759 0.52852 0.0
O451 O 0.72593 0.42623 0.48433 0.0
C452 C 0.76288 0.34245 0.37842 0.0
C453 C 0.79017 0.34919 0.38207 0.0
H454 H 0.84121 0.3663 0.39658 0.0
H455 H 0.85449 0.39969 0.43814 0.0
H456 H 0.67972 0.35647 0.41473 0.0
H457 H 0.70912 0.33383 0.37873 0.0
H458 H 0.75603 0.3273 0.36109 0.0
H459 H 0.80392 0.33914 0.3675 0.0
Mn460 Mn 0.66518 0.02565 0.78183 0.0
Mn461 Mn 0.63833 0.08741 0.77456 0.0
C462 C 0.68858 0.06015 0.75937 0.0
C463 C 0.69091 0.99606 0.80404 0.0
C464 C 0.62201 0.03169 0.73956 0.0
O465 O 0.63693 0.0277 0.81197 0.0
O466 O 0.61987 0.06878 0.80479 0.0
C467 C 0.65189 0.121 0.82838 0.0
N468 N 0.65288 0.11801 0.80033 0.0
C469 C 0.66981 0.16674 0.80043 0.0
C470 C 0.66901 0.17036 0.82932 0.0
C471 C 0.66028 0.14729 0.84335 0.0
C472 C 0.66195 0.13983 0.78667 0.0
H473 H 0.64445 0.10361 0.83924 0.0
C474 C 0.62086 0.04717 0.81807 0.0
O475 O 0.67258 0.98574 0.7867 0.0
O476 O 0.69358 0.02366 0.80953 0.0
N477 N 0.6544 0.10808 0.74684 0.0
C478 C 0.65554 0.10047 0.71908 0.0
C479 C 0.66563 0.12049 0.70209 0.0
C480 C 0.67379 0.14831 0.71377 0.0
C481 C 0.67229 0.15566 0.74239 0.0
C482 C 0.66291 0.13452 0.75833 0.0
H483 H 0.64889 0.07925 0.71002 0.0
O484 O 0.69286 0.03334 0.75399 0.0
O485 O 0.67003 0.06623 0.77736 0.0
O486 O 0.6368 0.01653 0.75158 0.0
O487 O 0.62144 0.05848 0.74623 0.0
C488 C 0.67946 0.18319 0.75573 0.0
C489 C 0.6781 0.18877 0.78474 0.0
H490 H 0.6751 0.19072 0.84093 0.0
H491 H 0.65956 0.14992 0.86564 0.0
H492 H 0.66677 0.11462 0.68002 0.0
H493 H 0.68116 0.16384 0.70056 0.0
H494 H 0.68642 0.20012 0.74393 0.0
H495 H 0.68406 0.2099 0.79479 0.0
Mn496 Mn 1.00693 0.24844 0.90434 0.0
Mn497 Mn 0.95061 0.23321 0.93871 0.0
C498 C 0.96879 0.22956 0.88034 0.0
C499 C 0.03804 0.27542 0.88083 0.0
C500 C 0.99825 0.19865 0.93929 0.0
O501 O 1.01158 0.27521 0.94085 0.0
O502 O 0.97331 0.26275 0.96199 0.0
C503 C 0.92602 0.28838 0.94263 0.0
N504 N 0.92501 0.25984 0.93406 0.0
C505 C 0.88141 0.26057 0.91573 0.0
C506 C 0.88199 0.28995 0.92441 0.0
C507 C 0.9044 0.3039 0.9379 0.0
C508 C 0.90341 0.24613 0.92135 0.0
H509 H 0.9432 0.29925 0.95296 0.0
C510 C 0.99532 0.27784 0.9612 0.0
O511 O 0.04426 0.25497 0.89402 0.0
O512 O 0.01338 0.28124 0.88167 0.0
N513 N 0.92722 0.20568 0.91748 0.0
C514 C 0.93097 0.178 0.90789 0.0
C515 C 0.91111 0.16145 0.89232 0.0
C516 C 0.88763 0.17351 0.88679 0.0
C517 C 0.88426 0.20208 0.89678 0.0
C518 C 0.90469 0.2175 0.91228 0.0
H519 H 0.94911 0.16874 0.91184 0.0
O520 O 0.99194 0.22449 0.87003 0.0
O521 O 0.96891 0.24335 0.90502 0.0
O522 O 1.01209 0.21363 0.92398 0.0
O523 O 0.97452 0.20351 0.94575 0.0
C524 C 0.86174 0.21607 0.89131 0.0
C525 C 0.86027 0.24526 0.90089 0.0
H526 H 0.86549 0.30208 0.9205 0.0
H527 H 0.90503 0.3266 0.94455 0.0
H528 H 0.91394 0.13949 0.88448 0.0
H529 H 0.87245 0.16075 0.87456 0.0
H530 H 0.84565 0.2047 0.87934 0.0
H531 H 0.84305 0.25589 0.89613 0.0
Mn532 Mn 0.50536 0.74703 0.40628 0.0
Mn533 Mn 0.45085 0.73276 0.44357 0.0
C534 C 0.46818 0.72227 0.38497 0.0
C535 C 0.5323 0.77388 0.3783 0.0
C536 C 0.50031 0.70109 0.44564 0.0
O537 O 0.51026 0.77669 0.44092 0.0
O538 O 0.4726 0.76538 0.46341 0.0
C539 C 0.42321 0.78543 0.44232 0.0
N540 N 0.42364 0.7566 0.4365 0.0
C541 C 0.37832 0.75211 0.42219 0.0
C542 C 0.37733 0.78174 0.42817 0.0
C543 C 0.39995 0.79849 0.43805 0.0
C544 C 0.40212 0.74034 0.42656 0.0
H545 H 0.4404 0.79832 0.45041 0.0
C546 C 0.4943 0.7806 0.46138 0.0
O547 O 0.54171 0.75586 0.39272 0.0
O548 O 0.5073 0.77763 0.38128 0.0
N549 N 0.42818 0.70194 0.42614 0.0
C550 C 0.43278 0.67384 0.42041 0.0
C551 C 0.41267 0.65441 0.40863 0.0
C552 C 0.38798 0.664 0.40329 0.0
C553 C 0.38368 0.693 0.40957 0.0
C554 C 0.4046 0.71143 0.42082 0.0
H555 H 0.45168 0.66637 0.42466 0.0
O556 O 0.49155 0.71913 0.37453 0.0
O557 O 0.46733 0.73917 0.40803 0.0
O558 O 0.51322 0.71419 0.42804 0.0
O559 O 0.47691 0.70644 0.4531 0.0
C560 C 0.35945 0.70433 0.40521 0.0
C561 C 0.35666 0.7338 0.4119 0.0
H562 H 0.35938 0.79187 0.42503 0.0
H563 H 0.39937 0.82137 0.44262 0.0
H564 H 0.41615 0.63207 0.40383 0.0
H565 H 0.37246 0.64891 0.39438 0.0
H566 H 0.34283 0.69057 0.39674 0.0
H567 H 0.33794 0.74227 0.40845 0.0
Mn568 Mn 0.02996 0.79301 0.65578 0.0
Mn569 Mn 1.00241 0.72828 0.66777 0.0
C570 C 0.03415 0.75311 0.6232 0.0
C571 C 0.03052 0.83773 0.6393 0.0
C572 C 0.05354 0.7547 0.69386 0.0
O573 O 1.0037 0.8031 0.68772 0.0
O574 O 0.98522 0.759 0.69132 0.0
C575 C 0.94914 0.73283 0.64576 0.0
N576 N 0.97158 0.71879 0.64568 0.0
C577 C 0.95284 0.67995 0.61387 0.0
C578 C 0.92945 0.69389 0.61373 0.0
C579 C 0.9277 0.72059 0.62952 0.0
C580 C 0.97383 0.69363 0.62973 0.0
H581 H 0.94759 0.75313 0.65822 0.0
C582 C 0.98696 0.786 0.69842 0.0
O583 O 0.04598 0.83294 0.65874 0.0
O584 O 0.01332 0.81707 0.63044 0.0
N585 N 0.01654 0.69593 0.64678 0.0
C586 C 0.03982 0.68437 0.6505 0.0
C587 C 0.04487 0.6579 0.63577 0.0
C588 C 0.02559 0.64309 0.61811 0.0
C589 C 1.00132 0.65476 0.61559 0.0
C590 C 0.99759 0.68147 0.63038 0.0
H591 H 0.05451 0.69527 0.66452 0.0
O592 O 0.05044 0.77549 0.62343 0.0
O593 O 0.01545 0.75475 0.64166 0.0
O594 O 0.05433 0.77711 0.68194 0.0
O595 O 0.03449 0.7355 0.69105 0.0
C596 C 0.98035 0.64042 0.59979 0.0
C597 C 0.95603 0.65286 0.59917 0.0
H598 H 0.91272 0.68428 0.60159 0.0
H599 H 0.90975 0.73152 0.62948 0.0
H600 H 0.06348 0.64882 0.63822 0.0
H601 H 0.02945 0.62255 0.607 0.0
H602 H 0.98261 0.61964 0.58834 0.0
H603 H 0.94002 0.64159 0.58699 0.0
Mn604 Mn 0.5252 0.28865 0.1516 0.0
Mn605 Mn 0.48354 0.23059 0.15707 0.0
C606 C 0.52061 0.25128 0.11522 0.0
C607 C 0.53571 0.33447 0.13852 0.0
C608 C 0.53781 0.23841 0.18269 0.0
O609 O 0.5025 0.30261 0.1857 0.0
O610 O 0.4772 0.26175 0.18651 0.0
C611 C 0.43573 0.25756 0.14267 0.0
N612 N 0.45211 0.23596 0.13796 0.0
C613 C 0.42553 0.21301 0.10011 0.0
C614 C 0.40829 0.23494 0.10462 0.0
C615 C 0.41347 0.25736 0.12594 0.0
C616 C 0.44757 0.21458 0.1172 0.0
H617 H 0.43965 0.27484 0.15903 0.0
C618 C 0.48443 0.28723 0.19661 0.0
O619 O 0.54984 0.32388 0.15606 0.0
O620 O 0.51438 0.31939 0.13004 0.0
N621 N 0.48678 0.19794 0.13047 0.0
C622 C 0.5038 0.17711 0.13088 0.0
C623 C 0.50005 0.15193 0.11261 0.0
C624 C 0.47921 0.1486 0.09366 0.0
C625 C 0.46153 0.17 0.09409 0.0
C626 C 0.46562 0.19411 0.11364 0.0
H627 H 0.51969 0.17936 0.14558 0.0
O628 O 0.54129 0.26899 0.11705 0.0
O629 O 0.50284 0.25631 0.13424 0.0
O630 O 0.54369 0.26298 0.17513 0.0
O631 O 0.51601 0.22386 0.17652 0.0
C632 C 0.43949 0.16792 0.07662 0.0
C633 C 0.42165 0.18957 0.07944 0.0
H634 H 0.39102 0.23476 0.09187 0.0
H635 H 0.4003 0.27441 0.12952 0.0
H636 H 0.51312 0.13502 0.11333 0.0
H637 H 0.47659 0.12921 0.0794 0.0
H638 H 0.4359 0.14966 0.06115 0.0
H639 H 0.40477 0.18775 0.0659 0.0
H640 H 0.18513 0.72333 0.90167 0.0
H641 H 0.26315 0.72621 0.86528 0.0
H642 H 0.27969 0.75912 0.90547 0.0
H643 H 0.18406 0.79121 0.91662 0.0
H644 H 0.1676 0.79566 0.94966 0.0
H645 H 0.16126 0.7635 0.92626 0.0
H646 H 0.17528 0.73026 0.95928 0.0
H647 H 0.1788 0.76063 0.98551 0.0
H648 H 0.20576 0.73816 0.97795 0.0
H649 H 0.28659 0.79567 0.94622 0.0
H650 H 0.28301 0.83745 0.98105 0.0
H651 H 0.1987 0.81795 0.98699 0.0
C652 C 0.20589 0.73014 0.90278 0.0
C653 C 0.22299 0.72193 0.88058 0.0
C654 C 0.24994 0.73152 0.88238 0.0
C655 C 0.25943 0.75037 0.9051 0.0
C656 C 0.24167 0.7595 0.9258 0.0
C657 C 0.21542 0.74967 0.92493 0.0
C658 C 0.19953 0.76664 0.94697 0.0
C659 C 0.17678 0.78012 0.93417 0.0
C660 C 0.18924 0.74779 0.96872 0.0
C661 C 0.22059 0.78888 0.95905 0.0
C662 C 0.24494 0.7833 0.94743 0.0
C663 C 0.26762 0.80034 0.95529 0.0
C664 C 0.26531 0.82422 0.97485 0.0
C665 C 0.24042 0.83162 0.98567 0.0
C666 C 0.21785 0.81314 0.97844 0.0
H667 H 1.00942 0.6018 0.43191 0.0
H668 H 0.02311 0.53034 0.4754 0.0
H669 H 0.05817 0.51599 0.4419 0.0
H670 H 0.01605 0.56607 0.36532 0.0
H671 H 0.03269 0.59546 0.35052 0.0
H672 H 1.01094 0.60224 0.37958 0.0
H673 H 0.04844 0.63251 0.40719 0.0
H674 H 0.07022 0.62625 0.37802 0.0
H675 H 0.07945 0.61734 0.41116 0.0
H676 H 0.08876 0.50692 0.40121 0.0
H677 H 0.11523 0.50583 0.35848 0.0
H678 H 0.08175 0.58329 0.34079 0.0
C679 C 0.02052 0.58376 0.43476 0.0
C680 C 0.01403 0.56734 0.45639 0.0
C681 C 0.02823 0.54329 0.45913 0.0
C682 C 0.048 0.53495 0.44013 0.0
C683 C 0.05341 0.55095 0.41842 0.0
C684 C 0.04036 0.57509 0.41581 0.0
C685 C 0.04912 0.58766 0.38981 0.0
C686 C 0.02581 0.58786 0.37015 0.0
C687 C 0.06261 0.61772 0.39698 0.0
C688 C 0.06874 0.56657 0.37802 0.0
C689 C 0.07095 0.5456 0.39487 0.0
C690 C 0.08736 0.52341 0.38799 0.0
C691 C 0.10224 0.52287 0.36351 0.0
C692 C 0.10071 0.54439 0.34602 0.0
C693 C 0.08349 0.56641 0.35351 0.0
H694 H 0.83411 0.81814 0.90851 0.0
H695 H 0.84005 0.7609 0.8329 0.0
H696 H 0.8386 0.71981 0.85977 0.0
H697 H 0.86814 0.77642 0.95602 0.0
H698 H 0.84477 0.78497 0.98332 0.0
H699 H 0.85287 0.80984 0.95895 0.0
H700 H 0.80338 0.81021 0.94734 0.0
H701 H 0.79512 0.78533 0.9715 0.0
H702 H 0.78485 0.77702 0.9361 0.0
H703 H 0.82912 0.6844 0.89461 0.0
H704 H 0.81161 0.65867 0.93281 0.0
H705 H 0.80786 0.73891 0.98523 0.0
C706 C 0.83586 0.797 0.8977 0.0
C707 C 0.83742 0.79278 0.86854 0.0
C708 C 0.8395 0.76477 0.85516 0.0
C709 C 0.83843 0.74127 0.87034 0.0
C710 C 0.83524 0.74608 0.89898 0.0
C711 C 0.83408 0.77338 0.91251 0.0
C712 C 0.82691 0.77284 0.94271 0.0
C713 C 0.84953 0.78685 0.96135 0.0
C714 C 0.80104 0.78719 0.94982 0.0
C715 C 0.82351 0.74096 0.94409 0.0
C716 C 0.82894 0.72583 0.91879 0.0
C717 C 0.8254 0.6961 0.91458 0.0
C718 C 0.81558 0.68159 0.93645 0.0
C719 C 0.80923 0.69671 0.96223 0.0
C720 C 0.81355 0.72676 0.96609 0.0
H721 H 0.01919 0.97735 0.44656 0.0
H722 H 1.01092 0.06263 0.48736 0.0
H723 H 0.98222 0.07239 0.44937 0.0
H724 H 0.02201 0.99511 0.37723 0.0
H725 H 1.00343 0.96296 0.36289 0.0
H726 H 0.02298 0.96302 0.39332 0.0
H727 H 0.98178 0.94487 0.41956 0.0
H728 H 0.96215 0.94456 0.38915 0.0
H729 H 0.95257 0.96442 0.42115 0.0
H730 H 0.95375 0.07204 0.40631 0.0
H731 H 0.92779 0.06146 0.36328 0.0
H732 H 0.95593 0.9764 0.35101 0.0
C733 C 1.01116 0.99798 0.44742 0.0
C734 C 0.01719 0.01934 0.46966 0.0
C735 C 1.00655 0.04617 0.47028 0.0
C736 C 0.99028 0.05182 0.44884 0.0
C737 C 0.98488 0.03035 0.42695 0.0
C738 C 0.99501 1.00393 0.42619 0.0
C739 C 0.98628 0.98442 0.40053 0.0
C740 C 1.0101 0.97588 0.38243 0.0
C741 C 0.96971 0.95802 0.40805 0.0
C742 C 0.96962 1.00387 0.38692 0.0
C743 C 0.96897 0.03029 0.40238 0.0
C744 C 0.95425 0.05143 0.39402 0.0
C745 C 0.9396 0.04526 0.36947 0.0
C746 C 0.9398 0.01816 0.35346 0.0
C747 C 0.95536 0.99747 0.36241 0.0
H748 H 0.21421 0.26357 0.69613 0.0
H749 H 0.20482 0.3422 0.66222 0.0
H750 H 0.22025 0.32028 0.61668 0.0
H751 H 0.27388 0.2441 0.65533 0.0
H752 H 0.26374 0.20658 0.65135 0.0
H753 H 0.25408 0.22931 0.68162 0.0
H754 H 0.20508 0.21282 0.67174 0.0
H755 H 0.21455 0.19021 0.64137 0.0
H756 H 0.19128 0.21668 0.63878 0.0
H757 H 0.23083 0.28769 0.57364 0.0
H758 H 0.24095 0.24864 0.53733 0.0
H759 H 0.24639 0.19173 0.59946 0.0
C760 C 0.21586 0.27618 0.67915 0.0
C761 C 0.20834 0.30455 0.68248 0.0
C762 C 0.21077 0.32055 0.65996 0.0
C763 C 0.21935 0.3082 0.63407 0.0
C764 C 0.22587 0.27989 0.63114 0.0
C765 C 0.22475 0.26423 0.6532 0.0
C766 C 0.2323 0.23401 0.64434 0.0
C767 C 0.2575 0.22816 0.65904 0.0
C768 C 0.20944 0.21215 0.64935 0.0
C769 C 0.2372 0.23491 0.61377 0.0
C770 C 0.23322 0.26154 0.60655 0.0
C771 C 0.23455 0.26695 0.57915 0.0
C772 C 0.2402 0.24463 0.55865 0.0
C773 C 0.2449 0.21735 0.56562 0.0
C774 C 0.24354 0.21259 0.59361 0.0
H775 H 0.50851 0.56704 0.63775 0.0
H776 H 0.5201 0.48213 0.59737 0.0
H777 H 0.49123 0.46142 0.63185 0.0
H778 H 0.50753 0.55037 0.70725 0.0
H779 H 0.48181 0.57328 0.71903 0.0
H780 H 0.50303 0.58174 0.69097 0.0
H781 H 0.46228 0.58281 0.66007 0.0
H782 H 0.44091 0.57442 0.68807 0.0
H783 H 0.43883 0.55224 0.65531 0.0
H784 H 0.46372 0.44978 0.6713 0.0
H785 H 0.43654 0.44705 0.71269 0.0
H786 H 0.43952 0.53958 0.72778 0.0
C787 C 0.50475 0.54413 0.63626 0.0
C788 C 0.51685 0.52601 0.61531 0.0
C789 C 0.51144 0.49617 0.61367 0.0
C790 C 0.49498 0.48431 0.63303 0.0
C791 C 0.4837 0.50261 0.65372 0.0
C792 C 0.48806 0.53188 0.65541 0.0
C793 C 0.47331 0.54648 0.6799 0.0
C794 C 0.49257 0.564 0.70051 0.0
C795 C 0.4526 0.56509 0.67026 0.0
C796 C 0.46033 0.52078 0.69186 0.0
C797 C 0.46677 0.49579 0.67631 0.0
C798 C 0.45829 0.46918 0.68349 0.0
C799 C 0.44283 0.46792 0.7072 0.0
C800 C 0.43559 0.49309 0.72358 0.0
C801 C 0.44439 0.51995 0.71559 0.0
H802 H 0.78661 0.28747 0.69543 0.0
H803 H 0.86162 0.25962 0.66411 0.0
H804 H 0.8603 0.29095 0.62724 0.0
H805 H 0.75722 0.28914 0.63017 0.0
H806 H 0.73948 0.32033 0.6406 0.0
H807 H 0.74737 0.29751 0.66564 0.0
H808 H 0.77093 0.34067 0.69559 0.0
H809 H 0.76315 0.36365 0.6706 0.0
H810 H 0.79689 0.36182 0.68065 0.0
H811 H 0.84935 0.32254 0.59217 0.0
H812 H 0.8298 0.35216 0.56094 0.0
H813 H 0.76155 0.36053 0.61476 0.0
C814 C 0.80281 0.28838 0.68091 0.0
C815 C 0.82437 0.27142 0.68252 0.0
C816 C 0.84516 0.27273 0.66318 0.0
C817 C 0.84451 0.29042 0.64226 0.0
C818 C 0.82288 0.30673 0.641 0.0
C819 C 0.80241 0.30596 0.65983 0.0
C820 C 0.78095 0.32467 0.65304 0.0
C821 C 0.75471 0.30684 0.647 0.0
C822 C 0.7778 0.34916 0.67636 0.0
C823 C 0.79235 0.33575 0.62722 0.0
C824 C 0.81662 0.32518 0.62077 0.0
C825 C 0.83051 0.33117 0.59719 0.0
C826 C 0.81921 0.34804 0.57954 0.0
C827 C 0.79425 0.35894 0.58547 0.0
C828 C 0.78086 0.35298 0.60991 0.0
H829 H 0.53866 0.02066 0.59998 0.0
H830 H 0.49572 0.94675 0.62656 0.0
H831 H 0.52702 0.94731 0.66454 0.0
H832 H 0.60539 1.00931 0.62281 0.0
H833 H 0.61237 0.04638 0.63576 0.0
H834 H 0.5902 0.03648 0.60717 0.0
H835 H 0.55395 0.06444 0.63384 0.0
H836 H 0.57595 0.07434 0.66251 0.0
H837 H 0.5442 0.05623 0.66767 0.0
H838 H 0.56223 0.9577 0.7017 0.0
H839 H 0.59436 0.97972 0.73714 0.0
H840 H 0.60902 0.052 0.69149 0.0
C841 C 0.53615 1.00428 0.6135 0.0
C842 C 0.51525 0.98274 0.60928 0.0
C843 C 0.5124 0.96217 0.62793 0.0
C844 C 0.52991 0.96274 0.65005 0.0
C845 C 0.54986 0.98462 0.65395 0.0
C846 C 0.55278 1.00532 0.6364 0.0
C847 C 0.57339 0.02874 0.64722 0.0
C848 C 0.59672 0.03031 0.62703 0.0
C849 C 0.56114 0.05764 0.65317 0.0
C850 C 0.58149 0.01808 0.67367 0.0
C851 C 0.56818 0.99222 0.67682 0.0
C852 C 0.57268 0.97799 0.69944 0.0
C853 C 0.59102 0.99061 0.71946 0.0
C854 C 0.60414 0.01762 0.71722 0.0
C855 C 0.59924 0.03141 0.69391 0.0
H856 H 0.87142 0.19058 0.74943 0.0
H857 H 0.82883 0.26231 0.78476 0.0
H858 H 0.85712 0.26817 0.82592 0.0
H859 H 0.88202 0.16397 0.81973 0.0
H860 H 0.914 0.15211 0.80957 0.0
H861 H 0.88837 0.15087 0.78422 0.0
H862 H 0.91936 0.181 0.75504 0.0
H863 H 0.94495 0.18285 0.7804 0.0
H864 H 0.93363 0.21519 0.77034 0.0
H865 H 0.89646 0.27469 0.8552 0.0
H866 H 0.93646 0.27214 0.88189 0.0
H867 H 0.95104 0.19108 0.83468 0.0
C868 C 0.86741 0.20658 0.76648 0.0
C869 C 0.84794 0.2261 0.76407 0.0
C870 C 0.84352 0.24719 0.78643 0.0
C871 C 0.85963 0.25078 0.80973 0.0
C872 C 0.87965 0.23245 0.81086 0.0
C873 C 0.88295 0.20989 0.79059 0.0
C874 C 0.9064 0.19366 0.79745 0.0
C875 C 0.89715 0.16335 0.80307 0.0
C876 C 0.92732 0.19316 0.77443 0.0
C877 C 0.91652 0.21171 0.82374 0.0
C878 C 0.90084 0.23419 0.83059 0.0
C879 C 0.90792 0.25623 0.85122 0.0
C880 C 0.93066 0.25447 0.86644 0.0
C881 C 0.94567 0.23028 0.86207 0.0
C882 C 0.93905 0.20901 0.83964 0.0
H883 H 0.51454 0.94423 0.52498 0.0
H884 H 0.47198 0.91826 0.59558 0.0
H885 H 0.47814 0.86796 0.57902 0.0
H886 H 0.48143 0.89344 0.47975 0.0
H887 H 0.50816 0.88652 0.45582 0.0
H888 H 0.50764 0.92057 0.47663 0.0
H889 H 0.55382 0.91458 0.49578 0.0
H890 H 0.55465 0.88053 0.47478 0.0
H891 H 0.55942 0.88313 0.51148 0.0
H892 H 0.4825 0.82085 0.55197 0.0
H893 H 0.48167 0.78022 0.51529 0.0
H894 H 0.51768 0.83507 0.45854 0.0
C895 C 0.50806 0.92787 0.53764 0.0
C896 C 0.49501 0.93533 0.56303 0.0
C897 C 0.4844 0.91332 0.57777 0.0
C898 C 0.48729 0.88457 0.56805 0.0
C899 C 0.50003 0.8779 0.54288 0.0
C900 C 0.51007 0.8989 0.52766 0.0
C901 C 0.51853 0.88591 0.49909 0.0
C902 C 0.50301 0.89729 0.4765 0.0
C903 C 0.54839 0.89136 0.49505 0.0
C904 C 0.51105 0.85444 0.50039 0.0
C905 C 0.5009 0.85039 0.5261 0.0
C906 C 0.49077 0.82372 0.53193 0.0
C907 C 0.49035 0.80072 0.51088 0.0
C908 C 0.49985 0.8043 0.48406 0.0
C909 C 0.51093 0.83147 0.47898 0.0
H910 H 0.11123 0.31863 0.74397 0.0
H911 H 0.1837 0.31607 0.78874 0.0
H912 H 0.15823 0.30865 0.83085 0.0
H913 H 0.0733 0.35393 0.8003 0.0
H914 H 0.04298 0.33272 0.79182 0.0
H915 H 0.06658 0.3392 0.76508 0.0
H916 H 0.06824 0.28487 0.75076 0.0
H917 H 0.04434 0.27827 0.77713 0.0
H918 H 0.07552 0.26234 0.77634 0.0
H919 H 0.12608 0.30151 0.86755 0.0
H920 H 0.08837 0.28808 0.89635 0.0
H921 H 0.03504 0.29303 0.82893 0.0
C922 C 0.12151 0.31636 0.76271 0.0
C923 C 0.1494 0.31828 0.76343 0.0
C924 C 0.16237 0.31502 0.78809 0.0
C925 C 0.14808 0.31091 0.81204 0.0
C926 C 0.12069 0.30976 0.81098 0.0
C927 C 0.10739 0.31183 0.78694 0.0
C928 C 0.07772 0.30801 0.79147 0.0
C929 C 0.06436 0.33509 0.78689 0.0
C930 C 0.06575 0.28181 0.77282 0.0
C931 C 0.07658 0.30328 0.8217 0.0
C932 C 0.10172 0.30486 0.83245 0.0
C933 C 0.10628 0.30031 0.85945 0.0
C934 C 0.08471 0.29281 0.87569 0.0
C935 C 0.0588 0.28985 0.86501 0.0
C936 C 0.05457 0.29587 0.83784 0.0
H937 H 0.53788 0.61194 0.5658 0.0
H938 H 0.56046 0.54583 0.5023 0.0
H939 H 0.55528 0.57785 0.46719 0.0
H940 H 0.48502 0.62957 0.52814 0.0
H941 H 0.48769 0.66703 0.54094 0.0
H942 H 0.49891 0.64153 0.56166 0.0
H943 H 0.54516 0.66842 0.56526 0.0
H944 H 0.53404 0.69421 0.54473 0.0
H945 H 0.56273 0.67529 0.53426 0.0
H946 H 0.54436 0.61703 0.43817 0.0
H947 H 0.52569 0.65691 0.41836 0.0
H948 H 0.50308 0.69358 0.50015 0.0
C949 C 0.54219 0.60432 0.54454 0.0
C950 C 0.55001 0.57626 0.53715 0.0
C951 C 0.55531 0.56722 0.50902 0.0
C952 C 0.55208 0.58534 0.48872 0.0
C953 C 0.54305 0.61232 0.49672 0.0
C954 C 0.53798 0.62162 0.52404 0.0
C955 C 0.52516 0.6498 0.52716 0.0
C956 C 0.49756 0.64679 0.54024 0.0
C957 C 0.54283 0.67332 0.54384 0.0
C958 C 0.52355 0.6549 0.49728 0.0
C959 C 0.53458 0.63344 0.48004 0.0
C960 C 0.53565 0.63385 0.45155 0.0
C961 C 0.52504 0.65657 0.44046 0.0
C962 C 0.51282 0.67816 0.45771 0.0
C963 C 0.51213 0.67722 0.48647 0.0
H964 H 0.85409 0.78355 0.78851 0.0
H965 H 0.89179 0.84933 0.84707 0.0
H966 H 0.93308 0.84745 0.81948 0.0
H967 H 0.91438 0.74257 0.77218 0.0
H968 H 0.90498 0.73378 0.73656 0.0
H969 H 0.88 0.73834 0.76293 0.0
H970 H 0.8602 0.77607 0.7369 0.0
H971 H 0.88557 0.77235 0.71095 0.0
H972 H 0.88069 0.80689 0.72959 0.0
H973 H 0.96821 0.84303 0.78113 0.0
H974 H 0.99656 0.83021 0.74033 0.0
H975 H 0.9365 0.76537 0.70828 0.0
C976 C 0.87154 0.79637 0.79621 0.0
C977 C 0.87013 0.81588 0.82045 0.0
C978 C 0.89287 0.83353 0.82914 0.0
C979 C 0.91623 0.83288 0.81333 0.0
C980 C 0.91668 0.8142 0.78889 0.0
C981 C 0.89512 0.79565 0.7808 0.0
C982 C 0.90033 0.77824 0.75329 0.0
C983 C 0.89991 0.74634 0.75643 0.0
C984 C 0.88052 0.78373 0.7314 0.0
C985 C 0.92791 0.79021 0.74688 0.0
C986 C 0.93697 0.81118 0.76744 0.0
C987 C 0.96143 0.82628 0.76516 0.0
C988 C 0.97731 0.81911 0.74176 0.0
C989 C 0.96887 0.79678 0.72106 0.0
C990 C 0.94367 0.78246 0.72375 0.0
H991 H 0.0425 0.93323 0.51479 0.0
H992 H 0.0724 1.00377 0.57357 0.0
H993 H 0.07056 0.97205 0.61017 0.0
H994 H 0.99461 0.90688 0.5597 0.0
H995 H 0.99727 0.86977 0.54712 0.0
H996 H 1.0049 0.89661 0.52468 0.0
H997 H 0.05132 0.87829 0.5152 0.0
H998 H 0.04369 0.85106 0.53725 0.0
H999 H 0.07253 0.8753 0.54377 0.0
H1000 H 0.06269 0.93285 0.64105 0.0
H1001 H 0.05078 0.88964 0.66331 0.0
H1002 H 0.02115 0.84587 0.58545 0.0
C1003 C 0.04903 0.94186 0.53529 0.0
C1004 C 0.05791 0.97101 0.54125 0.0
C1005 C 0.0663 0.98145 0.56832 0.0
C1006 C 0.06492 0.96361 0.58933 0.0
C1007 C 0.05482 0.93536 0.58302 0.0
C1008 C 0.04711 0.92452 0.55659 0.0
C1009 C 0.0352 0.89405 0.55555 0.0
C1010 C 1.00628 0.8917 0.54621 0.0
C1011 C 0.05167 0.87346 0.53684 0.0
C1012 C 0.03727 0.88939 0.58557 0.0
C1013 C 0.0489 0.91341 0.60101 0.0
C1014 C 0.0535 0.91402 0.62912 0.0
C1015 C 0.04655 0.88939 0.64164 0.0
C1016 C 0.03464 0.8645 0.62628 0.0
C1017 C 0.02967 0.86474 0.5979 0.0
H1018 H 0.13677 0.69378 0.80919 0.0
H1019 H 0.20672 0.73147 0.77296 0.0
H1020 H 0.17928 0.74862 0.73774 0.0
H1021 H 0.10254 0.67004 0.74348 0.0
H1022 H 0.07049 0.67737 0.75768 0.0
H1023 H 0.09577 0.66755 0.7794 0.0
H1024 H 0.09041 0.71367 0.81292 0.0
H1025 H 0.06532 0.72377 0.79117 0.0
H1026 H 0.09394 0.74773 0.80001 0.0
H1027 H 0.14417 0.76471 0.70926 0.0
H1028 H 0.10413 0.77442 0.68533 0.0
H1029 H 0.05637 0.7235 0.73777 0.0
C1030 C 0.14613 0.70525 0.79347 0.0
C1031 C 0.1737 0.71129 0.79335 0.0
C1032 C 0.1856 0.72655 0.7729 0.0
C1033 C 0.17017 0.73641 0.75304 0.0
C1034 C 0.14292 0.73047 0.75382 0.0
C1035 C 0.13099 0.71482 0.77318 0.0
C1036 C 0.10132 0.7113 0.76924 0.0
C1037 C 0.09198 0.67968 0.76201 0.0
C1038 C 0.0869 0.72493 0.79486 0.0
C1039 C 0.0984 0.72775 0.74491 0.0
C1040 C 0.12267 0.73885 0.73659 0.0
C1041 C 0.12509 0.75588 0.71538 0.0
C1042 C 0.10217 0.76143 0.70204 0.0
C1043 C 0.07709 0.74972 0.70965 0.0
C1044 C 0.07527 0.73259 0.73138 0.0
H1045 H 0.97726 0.64984 0.49438 0.0
H1046 H 0.03427 0.59151 0.51218 0.0
H1047 H 0.05809 0.63023 0.54295 0.0
H1048 H 0.02491 0.71977 0.50716 0.0
H1049 H 0.99775 0.73885 0.52214 0.0
H1050 H 0.9921 0.7108 0.49387 0.0
H1051 H 0.9569 0.68887 0.52307 0.0
H1052 H 0.96363 0.71279 0.5541 0.0
H1053 H 0.96565 0.67494 0.55372 0.0
H1054 H 0.07242 0.67432 0.57618 0.0
H1055 H 0.07218 0.71549 0.61295 0.0
H1056 H 0.99954 0.73987 0.58068 0.0
C1057 C 0.99562 0.64583 0.50362 0.0
C1058 C 1.00426 0.61794 0.50065 0.0
C1059 C 0.02781 0.61292 0.51364 0.0
C1060 C 0.04133 0.63481 0.53127 0.0
C1061 C 0.03106 0.66159 0.53553 0.0
C1062 C 1.00882 0.66727 0.52177 0.0
C1063 C 0.99887 0.69577 0.53355 0.0
C1064 C 1.00371 0.71759 0.51296 0.0
C1065 C 0.96956 0.69299 0.54168 0.0
C1066 C 0.01685 0.70341 0.55825 0.0
C1067 C 0.03659 0.68474 0.55764 0.0
C1068 C 0.05682 0.68877 0.57703 0.0
C1069 C 0.05643 0.71199 0.59795 0.0
C1070 C 0.03502 0.72957 0.60043 0.0
C1071 C 0.01539 0.72571 0.5799 0.0
H1072 H 0.7362 0.87324 0.20362 0.0
H1073 H 0.74212 0.82595 0.27314 0.0
H1074 H 0.78169 0.85636 0.28923 0.0
H1075 H 0.81173 0.88461 0.19469 0.0
H1076 H 0.80908 0.91933 0.18407 0.0
H1077 H 0.78326 0.89154 0.17571 0.0
H1078 H 0.74913 0.92465 0.19925 0.0
H1079 H 0.77471 0.9524 0.20822 0.0
H1080 H 0.75374 0.93969 0.23474 0.0
H1081 H 0.81044 0.89931 0.30449 0.0
H1082 H 0.83983 0.94312 0.31061 0.0
H1083 H 0.82305 0.95898 0.22758 0.0
C1084 C 0.74666 0.86856 0.22144 0.0
C1085 C 0.73608 0.84755 0.23746 0.0
C1086 C 0.74993 0.84215 0.26089 0.0
C1087 C 0.77229 0.85936 0.27019 0.0
C1088 C 0.7812 0.8812 0.25515 0.0
C1089 C 0.76978 0.88507 0.23055 0.0
C1090 C 0.78357 0.91058 0.21886 0.0
C1091 C 0.79775 0.90094 0.19172 0.0
C1092 C 0.76411 0.93316 0.21505 0.0
C1093 C 0.80325 0.92131 0.24162 0.0
C1094 C 0.80105 0.90416 0.26249 0.0
C1095 C 0.81375 0.91184 0.28758 0.0
C1096 C 0.83053 0.93668 0.29082 0.0
C1097 C 0.8355 0.95298 0.26878 0.0
C1098 C 0.82087 0.94584 0.24415 0.0
H1099 H 0.7589 0.18092 0.30064 0.0
H1100 H 0.71298 0.15665 0.36996 0.0
H1101 H 0.74568 0.12202 0.37797 0.0
H1102 H 0.77582 0.11345 0.27419 0.0
H1103 H 0.80878 0.12408 0.26366 0.0
H1104 H 0.78364 0.14908 0.26584 0.0
H1105 H 0.81266 0.18479 0.2992 0.0
H1106 H 0.83805 0.15995 0.29698 0.0
H1107 H 0.82502 0.17349 0.33012 0.0
H1108 H 0.78049 0.08532 0.37375 0.0
H1109 H 0.81561 0.05261 0.35998 0.0
H1110 H 0.83967 0.10293 0.29463 0.0
C1111 C 0.75625 0.16876 0.31789 0.0
C1112 C 0.73372 0.17135 0.33487 0.0
C1113 C 0.73041 0.15501 0.35707 0.0
C1114 C 0.74881 0.13531 0.36163 0.0
C1115 C 0.77057 0.1326 0.34399 0.0
C1116 C 0.77456 0.1493 0.32284 0.0
C1117 C 0.79867 0.1414 0.30588 0.0
C1118 C 0.79128 0.13141 0.27561 0.0
C1119 C 0.81986 0.1664 0.3082 0.0
C1120 C 0.80723 0.11703 0.32016 0.0
C1121 C 0.79086 0.11224 0.34214 0.0
C1122 C 0.79374 0.0893 0.35695 0.0
C1123 C 0.81371 0.07079 0.34897 0.0
C1124 C 0.83066 0.07541 0.32651 0.0
C1125 C 0.82746 0.09913 0.31229 0.0
H1126 H 0.41513 0.02987 0.9631 0.0
H1127 H 0.45247 0.03118 0.04211 0.0
H1128 H 0.4131 1.00417 0.05903 0.0
H1129 H 0.34962 0.03919 0.9885 0.0
H1130 H 0.33383 0.01552 0.96085 0.0
H1131 H 0.36508 0.03426 0.95501 0.0
H1132 H 0.38531 0.98638 0.93833 0.0
H1133 H 0.35402 0.96754 0.94376 0.0
H1134 H 0.38318 0.95839 0.96019 0.0
H1135 H 0.36881 0.97752 0.06714 0.0
H1136 H 0.3251 0.9508 0.06485 0.0
H1137 H 0.31703 0.96759 0.98022 0.0
C1138 C 0.41496 0.02407 0.98381 0.0
C1139 C 0.43664 0.03225 1.00139 0.0
C1140 C 0.43594 0.02475 0.02847 0.0
C1141 C 0.41368 1.00962 0.0382 0.0
C1142 C 0.39232 1.00216 0.02049 0.0
C1143 C 0.39292 1.00894 0.99377 0.0
C1144 C 0.36754 0.99836 0.97882 0.0
C1145 C 0.35317 0.02333 0.9703 0.0
C1146 C 0.37284 0.97636 0.9538 0.0
C1147 C 0.35254 0.98459 1.00123 0.0
C1148 C 0.36705 0.98705 0.02517 0.0
C1149 C 0.35728 0.9755 0.04848 0.0
C1150 C 0.33232 0.96048 0.04704 0.0
C1151 C 0.31739 0.95706 0.02242 0.0
C1152 C 0.32768 0.96981 0.99947 0.0
H1153 H 0.26709 0.35445 0.31513 0.0
H1154 H 0.32005 0.40531 0.37329 0.0
H1155 H 0.29225 0.4463 0.37358 0.0
H1156 H 0.2551 0.40995 0.27496 0.0
H1157 H 0.22091 0.39852 0.26859 0.0
H1158 H 0.244 0.37291 0.27453 0.0
H1159 H 0.21477 0.35734 0.31454 0.0
H1160 H 0.19163 0.38301 0.30879 0.0
H1161 H 0.20596 0.38369 0.34238 0.0
H1162 H 0.2601 0.48247 0.36525 0.0
H1163 H 0.22623 0.51124 0.349 0.0
H1164 H 0.1939 0.43684 0.29602 0.0
C1165 C 0.2727 0.37428 0.32786 0.0
C1166 C 0.29575 0.37706 0.34405 0.0
C1167 C 0.30243 0.40305 0.36079 0.0
C1168 C 0.28678 0.42631 0.36106 0.0
C1169 C 0.26435 0.42314 0.34454 0.0
C1170 C 0.25726 0.39775 0.32829 0.0
C1171 C 0.23273 0.4003 0.31172 0.0
C1172 C 0.23854 0.39512 0.28061 0.0
C1173 C 0.20992 0.37987 0.31985 0.0
C1174 C 0.22735 0.43117 0.32084 0.0
C1175 C 0.24574 0.44392 0.3399 0.0
C1176 C 0.24546 0.47263 0.35052 0.0
C1177 C 0.22611 0.48882 0.34118 0.0
C1178 C 0.20724 0.47632 0.3214 0.0
C1179 C 0.20779 0.44698 0.31143 0.0
H1180 H 0.10008 0.04091 0.55676 0.0
H1181 H 0.10633 0.98911 0.47801 0.0
H1182 H 0.15235 1.00841 0.47335 0.0
H1183 H 0.12822 0.09685 0.54744 0.0
H1184 H 0.15188 0.10896 0.57439 0.0
H1185 H 0.12365 0.08552 0.58072 0.0
H1186 H 0.1475 0.04478 0.59366 0.0
H1187 H 0.17716 0.06813 0.5941 0.0
H1188 H 0.17607 0.03327 0.57439 0.0
H1189 H 0.19299 0.04082 0.47245 0.0
H1190 H 0.22989 0.07782 0.47919 0.0
H1191 H 0.20003 0.10666 0.56052 0.0
C1192 C 0.11182 0.03201 0.53963 0.0
C1193 C 0.09985 0.01295 0.51797 0.0
C1194 C 0.11542 1.00303 0.49507 0.0
C1195 C 0.14148 0.01414 0.49216 0.0
C1196 C 0.15222 0.0342 0.51304 0.0
C1197 C 0.13848 0.04185 0.53712 0.0
C1198 C 0.1546 0.06462 0.55589 0.0
C1199 C 0.13875 0.0906 0.56511 0.0
C1200 C 0.16442 0.05194 0.58099 0.0
C1201 C 0.17763 0.07135 0.53694 0.0
C1202 C 0.17619 0.05281 0.5127 0.0
C1203 C 0.19464 0.05501 0.49158 0.0
C1204 C 0.21537 0.07628 0.49544 0.0
C1205 C 0.21749 0.09539 0.52007 0.0
C1206 C 0.19862 0.09253 0.54133 0.0
H1207 H 0.79273 0.19722 0.77065 0.0
H1208 H 0.81784 0.16564 0.68832 0.0
H1209 H 0.78766 0.12259 0.68891 0.0
H1210 H 0.78425 0.11925 0.79225 0.0
H1211 H 0.75772 0.12968 0.81527 0.0
H1212 H 0.78498 0.15498 0.81003 0.0
H1213 H 0.75206 0.18931 0.79747 0.0
H1214 H 0.72451 0.16393 0.80023 0.0
H1215 H 0.73078 0.17918 0.76834 0.0
H1216 H 0.74937 0.08834 0.69468 0.0
H1217 H 0.71137 0.05822 0.70911 0.0
H1218 H 0.71171 0.10917 0.78922 0.0
C1219 C 0.79278 0.18049 0.75342 0.0
C1220 C 0.8072 0.18486 0.7292 0.0
C1221 C 0.80666 0.16271 0.70687 0.0
C1222 C 0.78954 0.13824 0.70701 0.0
C1223 C 0.77398 0.1355 0.73027 0.0
C1224 C 0.77648 0.15512 0.7537 0.0
C1225 C 0.75709 0.14674 0.77574 0.0
C1226 C 0.77189 0.13709 0.79974 0.0
C1227 C 0.74 0.17125 0.78604 0.0
C1228 C 0.7412 0.12158 0.7598 0.0
C1229 C 0.75191 0.1151 0.73386 0.0
C1230 C 0.74104 0.0929 0.71509 0.0
C1231 C 0.71929 0.07608 0.72335 0.0
C1232 C 0.70822 0.08167 0.74998 0.0
C1233 C 0.71924 0.10492 0.76841 0.0
H1234 H 0.42448 0.03043 0.5939 0.0
H1235 H 0.4609 0.01384 0.51352 0.0
H1236 H 0.42824 0.0419 0.49389 0.0
H1237 H 0.35809 0.02866 0.57254 0.0
H1238 H 0.34915 0.05799 0.59721 0.0
H1239 H 0.37523 0.03652 0.60492 0.0
H1240 H 0.40735 0.08165 0.6134 0.0
H1241 H 0.38129 0.10331 0.60594 0.0
H1242 H 0.4119 0.10488 0.58699 0.0
H1243 H 0.38916 0.06846 0.48244 0.0
H1244 H 0.35 0.09646 0.48096 0.0
H1245 H 0.34233 0.10133 0.56973 0.0
C1246 C 0.42597 0.03337 0.57234 0.0
C1247 C 0.44538 0.02013 0.55521 0.0
C1248 C 0.44616 0.02375 0.52691 0.0
C1249 C 0.42772 0.03967 0.51563 0.0
C1250 C 0.40881 0.0524 0.53303 0.0
C1251 C 0.40813 0.04993 0.5609 0.0
C1252 C 0.38611 0.0663 0.57514 0.0
C1253 C 0.36595 0.04616 0.58822 0.0
C1254 C 0.39734 0.09047 0.59664 0.0
C1255 C 0.37429 0.07799 0.5509 0.0
C1256 C 0.38745 0.06935 0.52672 0.0
C1257 C 0.37903 0.07579 0.50132 0.0
C1258 C 0.35675 0.09162 0.50064 0.0
C1259 C 0.34347 0.10144 0.52523 0.0
C1260 C 0.3525 0.09461 0.55067 0.0
H1261 H 0.6203 0.54743 0.57306 0.0
H1262 H 0.55956 0.50164 0.52073 0.0
H1263 H 0.59209 0.46953 0.49894 0.0
H1264 H 0.67802 0.53728 0.52463 0.0
H1265 H 0.69954 0.53135 0.55199 0.0
H1266 H 0.67294 0.5544 0.55915 0.0
H1267 H 0.65563 0.52409 0.59692 0.0
H1268 H 0.68172 0.5005 0.58948 0.0
H1269 H 0.64782 0.48638 0.58802 0.0
H1270 H 0.6297 0.43946 0.48618 0.0
H1271 H 0.67024 0.41378 0.48231 0.0
H1272 H 0.70681 0.47544 0.54599 0.0
C1273 C 0.61435 0.53159 0.55595 0.0
C1274 C 0.5877 0.52817 0.54727 0.0
C1275 C 0.58013 0.5058 0.52632 0.0
C1276 C 0.59842 0.48714 0.51423 0.0
C1277 C 0.62426 0.49049 0.52387 0.0
C1278 C 0.63234 0.51218 0.54422 0.0
C1279 C 0.66046 0.50887 0.55304 0.0
C1280 C 0.67883 0.5345 0.54683 0.0
C1281 C 0.66146 0.50471 0.58368 0.0
C1282 C 0.66679 0.48184 0.53464 0.0
C1283 C 0.64563 0.47185 0.51782 0.0
C1284 C 0.64644 0.44721 0.49911 0.0
C1285 C 0.6696 0.4327 0.49706 0.0
C1286 C 0.69168 0.44247 0.51385 0.0
C1287 C 0.69011 0.46725 0.53314 0.0
H1288 H 0.68128 0.23008 0.39049 0.0
H1289 H 0.75586 0.22958 0.34681 0.0
H1290 H 0.776 0.26406 0.38424 0.0
H1291 H 0.68255 0.30063 0.40706 0.0
H1292 H 0.6688 0.30303 0.44139 0.0
H1293 H 0.66043 0.2723 0.41674 0.0
H1294 H 0.67642 0.23726 0.44729 0.0
H1295 H 0.68298 0.26666 0.47404 0.0
H1296 H 0.70862 0.24346 0.46275 0.0
H1297 H 0.78694 0.3012 0.42443 0.0
H1298 H 0.78729 0.34118 0.46207 0.0
H1299 H 0.70407 0.32218 0.47669 0.0
C1300 C 0.70199 0.23682 0.3892 0.0
C1301 C 0.71714 0.22712 0.36592 0.0
C1302 C 0.74415 0.23633 0.36477 0.0
C1303 C 0.75566 0.256 0.38586 0.0
C1304 C 0.73984 0.26617 0.40795 0.0
C1305 C 0.71359 0.25682 0.40983 0.0
C1306 C 0.70015 0.27351 0.43393 0.0
C1307 C 0.67662 0.28828 0.42423 0.0
C1308 C 0.69154 0.25406 0.4558 0.0
C1309 C 0.72258 0.29475 0.44443 0.0
C1310 C 0.74552 0.28939 0.42976 0.0
C1311 C 0.76905 0.30573 0.43586 0.0
C1312 C 0.76899 0.32858 0.45703 0.0
C1313 C 0.74544 0.33551 0.47122 0.0
C1314 C 0.72214 0.31778 0.46551 0.0
H1315 H 0.50472 0.09161 0.9252 0.0
H1316 H 0.53725 0.03796 0.9795 0.0
H1317 H 0.57344 0.02752 0.94623 0.0
H1318 H 0.51669 0.04912 0.86331 0.0
H1319 H 0.52594 0.07772 0.84329 0.0
H1320 H 0.50415 0.0837 0.87245 0.0
H1321 H 0.53558 0.12573 0.89414 0.0
H1322 H 0.55722 0.12029 0.86475 0.0
H1323 H 0.56982 0.12018 0.89899 0.0
H1324 H 0.60269 0.01823 0.90482 0.0
H1325 H 0.62718 0.01602 0.86081 0.0
H1326 H 0.57714 0.07723 0.83323 0.0
C1327 C 0.52008 0.07856 0.93036 0.0
C1328 C 0.51852 0.06576 0.95497 0.0
C1329 C 0.53843 0.0481 0.96084 0.0
C1330 C 0.55889 0.04195 0.942 0.0
C1331 C 0.55936 0.05388 0.91737 0.0
C1332 C 0.54085 0.07234 0.91171 0.0
C1333 C 0.54559 0.08154 0.88328 0.0
C1334 C 0.52166 0.07247 0.86448 0.0
C1335 C 0.55247 0.11386 0.88542 0.0
C1336 C 0.56921 0.06491 0.87368 0.0
C1337 C 0.57671 0.04898 0.89364 0.0
C1338 C 0.59723 0.03093 0.88918 0.0
C1339 C 0.6109 0.02962 0.86394 0.0
C1340 C 0.60423 0.04643 0.8434 0.0
C1341 C 0.5829 0.06416 0.84845 0.0
H1342 H 0.34884 0.31589 0.41059 0.0
H1343 H 0.32561 0.26797 0.3325 0.0
H1344 H 0.31896 0.22407 0.35492 0.0
H1345 H 0.3772 0.25811 0.44444 0.0
H1346 H 0.36175 0.26914 0.47705 0.0
H1347 H 0.37141 0.29512 0.45419 0.0
H1348 H 0.32371 0.31093 0.45507 0.0
H1349 H 0.3139 0.28507 0.47787 0.0
H1350 H 0.29683 0.28472 0.44576 0.0
H1351 H 0.31075 0.18657 0.38596 0.0
H1352 H 0.29484 0.15966 0.42345 0.0
H1353 H 0.31628 0.23268 0.48344 0.0
C1354 C 0.34339 0.29586 0.39812 0.0
C1355 C 0.33914 0.29505 0.3694 0.0
C1356 C 0.33027 0.26879 0.35413 0.0
C1357 C 0.32634 0.2438 0.36679 0.0
C1358 C 0.33022 0.24545 0.39515 0.0
C1359 C 0.33807 0.27092 0.41079 0.0
C1360 C 0.33596 0.26794 0.44144 0.0
C1361 C 0.36321 0.27287 0.45508 0.0
C1362 C 0.31644 0.28837 0.45588 0.0
C1363 C 0.32538 0.23695 0.44058 0.0
C1364 C 0.323 0.22428 0.41358 0.0
C1365 C 0.31267 0.19625 0.40715 0.0
C1366 C 0.30363 0.18108 0.42866 0.0
C1367 C 0.30447 0.19386 0.45643 0.0
C1368 C 0.31608 0.22204 0.46251 0.0
H1369 H 0.5343 0.46578 0.93143 0.0
H1370 H 0.52008 0.54513 0.98151 0.0
H1371 H 0.48887 0.55641 0.94646 0.0
H1372 H 0.53052 0.49094 0.86468 0.0
H1373 H 0.5137 0.45842 0.8486 0.0
H1374 H 0.53569 0.45749 0.87699 0.0
H1375 H 0.49823 0.43261 0.90367 0.0
H1376 H 0.47621 0.43328 0.87529 0.0
H1377 H 0.46736 0.44895 0.90937 0.0
H1378 H 0.45835 0.55821 0.90571 0.0
H1379 H 0.42955 0.54919 0.86465 0.0
H1380 H 0.46326 0.46784 0.84214 0.0
C1381 C 0.52451 0.48546 0.9349 0.0
C1382 C 0.5294 0.50464 0.95906 0.0
C1383 C 0.51646 0.5303 0.96302 0.0
C1384 C 0.49881 0.53683 0.94323 0.0
C1385 C 0.49426 0.51739 0.91959 0.0
C1386 C 0.50666 0.49214 0.91545 0.0
C1387 C 0.49762 0.47434 0.88889 0.0
C1388 C 0.52077 0.47005 0.86859 0.0
C1389 C 0.48405 0.4456 0.89466 0.0
C1390 C 0.4781 0.49337 0.87879 0.0
C1391 C 0.47656 0.51824 0.89658 0.0
C1392 C 0.45948 0.53881 0.89161 0.0
C1393 C 0.44325 0.53357 0.86814 0.0
C1394 C 0.44403 0.50784 0.85 0.0
C1395 C 0.46206 0.48778 0.85543 0.0
H1396 H 0.72822 0.77331 0.2012 0.0
H1397 H 0.6979 0.84311 0.16546 0.0
H1398 H 0.71276 0.82252 0.11914 0.0
H1399 H 0.78643 0.76304 0.15361 0.0
H1400 H 0.7826 0.72481 0.15251 0.0
H1401 H 0.77315 0.74733 0.18301 0.0
H1402 H 0.72639 0.72164 0.18036 0.0
H1403 H 0.73553 0.69929 0.14972 0.0
H1404 H 0.70742 0.72031 0.1493 0.0
H1405 H 0.72484 0.79068 0.0764 0.0
H1406 H 0.73599 0.75177 0.0405 0.0
H1407 H 0.75989 0.70275 0.10384 0.0
C1408 C 0.72579 0.78469 0.18366 0.0
C1409 C 0.71264 0.81012 0.18667 0.0
C1410 C 0.70858 0.824 0.16336 0.0
C1411 C 0.71683 0.81235 0.13708 0.0
C1412 C 0.72915 0.78677 0.13454 0.0
C1413 C 0.73395 0.77327 0.15726 0.0
C1414 C 0.74563 0.74489 0.14864 0.0
C1415 C 0.77362 0.74504 0.16012 0.0
C1416 C 0.72767 0.72007 0.15753 0.0
C1417 C 0.74607 0.7442 0.11753 0.0
C1418 C 0.73649 0.76859 0.10983 0.0
C1419 C 0.7329 0.77178 0.0822 0.0
C1420 C 0.73918 0.74952 0.06194 0.0
C1421 C 0.7492 0.72441 0.06931 0.0
C1422 C 0.75293 0.72198 0.09752 0.0
H1423 H 1.0025 0.99346 0.10917 0.0
H1424 H 0.02442 0.08368 0.12783 0.0
H1425 H 0.99902 0.08503 0.17152 0.0
H1426 H 0.93715 0.99365 0.13655 0.0
H1427 H 0.93822 0.9607 0.15117 0.0
H1428 H 0.95815 0.96674 0.12146 0.0
H1429 H 1.00008 0.95742 0.14744 0.0
H1430 H 0.98024 0.95115 0.17718 0.0
H1431 H 1.0076 0.97772 0.18044 0.0
H1432 H 0.96861 0.07722 0.21111 0.0
H1433 H 0.93926 0.05994 0.24702 0.0
H1434 H 0.94002 0.97363 0.20523 0.0
C1435 C 1.00201 0.01334 0.12269 0.0
C1436 C 0.01496 0.03863 0.11515 0.0
C1437 C 0.01424 0.06429 0.13326 0.0
C1438 C 0.99992 0.0652 0.15802 0.0
C1439 C 0.98691 0.04005 0.16468 0.0
C1440 C 0.98821 0.01447 0.14782 0.0
C1441 C 0.97288 0.99045 0.16024 0.0
C1442 C 0.95026 0.97711 0.14122 0.0
C1443 C 0.9913 0.96785 0.16671 0.0
C1444 C 0.96244 1.00661 0.18645 0.0
C1445 C 0.97057 0.03525 0.18842 0.0
C1446 C 0.9624 0.05478 0.20999 0.0
C1447 C 0.94562 0.04479 0.23022 0.0
C1448 C 0.93749 0.01545 0.22904 0.0
C1449 C 0.94616 0.99613 0.20687 0.0
H1450 H 0.31978 0.74869 0.15642 0.0
H1451 H 0.31488 0.80569 0.23239 0.0
H1452 H 0.30481 0.84489 0.2059 0.0
H1453 H 0.34997 0.80195 0.11458 0.0
H1454 H 0.33172 0.78725 0.08413 0.0
H1455 H 0.34003 0.7644 0.10902 0.0
H1456 H 0.29071 0.74766 0.11352 0.0
H1457 H 0.28225 0.77046 0.0887 0.0
H1458 H 0.26692 0.7738 0.12228 0.0
H1459 H 0.29113 0.87633 0.17132 0.0
H1460 H 0.27752 0.89866 0.13121 0.0
H1461 H 0.29339 0.822 0.07711 0.0
C1462 C 0.31688 0.76958 0.16731 0.0
C1463 C 0.31816 0.77438 0.19639 0.0
C1464 C 0.31422 0.80184 0.21012 0.0
C1465 C 0.30842 0.82411 0.19523 0.0
C1466 C 0.30691 0.81862 0.16656 0.0
C1467 C 0.31132 0.7921 0.1527 0.0
C1468 C 0.30793 0.79163 0.12185 0.0
C1469 C 0.33397 0.78598 0.10649 0.0
C1470 C 0.28563 0.76958 0.11096 0.0
C1471 C 0.30046 0.82186 0.12053 0.0
C1472 C 0.29991 0.83704 0.14657 0.0
C1473 C 0.29192 0.86479 0.15081 0.0
C1474 C 0.28418 0.8773 0.12791 0.0
C1475 C 0.28476 0.86225 0.10101 0.0
C1476 C 0.29331 0.83426 0.09734 0.0
H1477 H 0.04023 0.51385 0.10129 0.0
H1478 H 0.99631 0.44087 0.12845 0.0
H1479 H 0.02743 0.44141 0.16664 0.0
H1480 H 0.10699 0.50256 0.12578 0.0
H1481 H 0.11365 0.53982 0.13814 0.0
H1482 H 0.09221 0.52925 0.10905 0.0
H1483 H 0.05545 0.55769 0.13413 0.0
H1484 H 0.0766 0.56812 0.1634 0.0
H1485 H 0.04468 0.55008 0.16786 0.0
H1486 H 0.0618 0.45261 0.20469 0.0
H1487 H 0.09282 0.47563 0.2408 0.0
H1488 H 0.1086 0.54673 0.19386 0.0
C1489 C 0.03759 0.49757 0.11491 0.0
C1490 C 0.01633 0.47648 0.11098 0.0
C1491 C 0.01323 0.456 0.1297 0.0
C1492 C 0.03064 0.45656 0.15192 0.0
C1493 C 0.05073 0.47832 0.15579 0.0
C1494 C 0.05406 0.49869 0.13792 0.0
C1495 C 0.07439 0.52233 0.14887 0.0
C1496 C 0.09823 0.52355 0.12929 0.0
C1497 C 0.06204 0.55126 0.15386 0.0
C1498 C 0.08179 0.51228 0.17582 0.0
C1499 C 0.06847 0.48645 0.17909 0.0
C1500 C 0.07228 0.47285 0.20229 0.0
C1501 C 0.08997 0.48605 0.22271 0.0
C1502 C 0.10307 0.51303 0.22028 0.0
C1503 C 0.09884 0.52618 0.19643 0.0
H1504 H 0.35226 0.75721 0.28994 0.0
H1505 H 0.3563 0.67284 0.24511 0.0
H1506 H 0.38652 0.66061 0.28055 0.0
H1507 H 0.42193 0.76524 0.30353 0.0
H1508 H 0.41788 0.78716 0.33599 0.0
H1509 H 0.39432 0.78711 0.30885 0.0
H1510 H 0.35729 0.77431 0.34203 0.0
H1511 H 0.38025 0.7726 0.36927 0.0
H1512 H 0.35765 0.74219 0.35792 0.0
H1513 H 0.42086 0.66007 0.31846 0.0
H1514 H 0.45538 0.67098 0.35433 0.0
H1515 H 0.42989 0.75646 0.37312 0.0
C1516 C 0.35945 0.73612 0.28755 0.0
C1517 C 0.35176 0.71597 0.26473 0.0
C1518 C 0.36139 0.68846 0.26265 0.0
C1519 C 0.3788 0.68146 0.28259 0.0
C1520 C 0.38671 0.70233 0.30431 0.0
C1521 C 0.37749 0.72921 0.30659 0.0
C1522 C 0.39073 0.74884 0.33001 0.0
C1523 C 0.40719 0.77354 0.31893 0.0
C1524 C 0.37027 0.76013 0.35115 0.0
C1525 C 0.40834 0.72863 0.34143 0.0
C1526 C 0.40601 0.70194 0.32611 0.0
C1527 C 0.4224 0.68068 0.33089 0.0
C1528 C 0.44194 0.68702 0.35132 0.0
C1529 C 0.44471 0.71419 0.36713 0.0
C1530 C 0.42744 0.73509 0.36223 0.0
H1531 H 0.01227 0.44104 0.02662 0.0
H1532 H 0.97047 0.4139 0.09722 0.0
H1533 H 0.97638 0.36366 0.07969 0.0
H1534 H 0.98017 0.38951 0.98015 0.0
H1535 H 1.00752 0.38352 0.95681 0.0
H1536 H 1.00587 0.41737 0.97777 0.0
H1537 H 0.05195 0.41246 0.99776 0.0
H1538 H 0.05381 0.37855 0.97672 0.0
H1539 H 0.05792 0.38114 0.01351 0.0
H1540 H 0.98107 0.31667 0.05192 0.0
H1541 H 0.98164 0.27631 0.01491 0.0
H1542 H 0.01816 0.33245 0.95965 0.0
C1543 C 1.00571 0.42442 0.03894 0.0
C1544 C 0.99288 0.43142 0.06451 0.0
C1545 C 0.98241 0.40915 0.079 0.0
C1546 C 0.98526 0.38048 0.06883 0.0
C1547 C 0.998 0.37422 0.04359 0.0
C1548 C 1.00793 0.39554 0.02867 0.0
C1549 C 0.01713 0.38291 1.00027 0.0
C1550 C 1.00175 0.39398 0.97741 0.0
C1551 C 0.04698 0.38914 0.99687 0.0
C1552 C 1.01024 0.35129 1.00134 0.0
C1553 C 0.9996 0.34682 0.02673 0.0
C1554 C 0.98979 0.31986 0.03214 0.0
C1555 C 0.99021 0.29701 0.01095 0.0
C1556 C 1.00033 0.30102 0.98448 0.0
C1557 C 1.01106 0.32849 0.97988 0.0
H1558 H 0.66442 0.79882 0.29198 0.0
H1559 H 0.61833 0.83406 0.23263 0.0
H1560 H 0.57825 0.82804 0.26169 0.0
H1561 H 0.61469 0.74554 0.30861 0.0
H1562 H 0.62366 0.74905 0.34446 0.0
H1563 H 0.64812 0.7566 0.31894 0.0
H1564 H 0.65856 0.80693 0.34553 0.0
H1565 H 0.63392 0.79964 0.37099 0.0
H1566 H 0.63234 0.83041 0.35303 0.0
H1567 H 0.54343 0.81865 0.29843 0.0
H1568 H 0.5163 0.80287 0.33689 0.0
H1569 H 0.58577 0.77313 0.37148 0.0
C1570 C 0.64581 0.80519 0.28521 0.0
C1571 C 0.64423 0.81693 0.26024 0.0
C1572 C 0.61968 0.8249 0.2517 0.0
C1573 C 0.59698 0.82171 0.26815 0.0
C1574 C 0.59926 0.81039 0.29297 0.0
C1575 C 0.62305 0.80198 0.30127 0.0
C1576 C 0.62028 0.78973 0.32837 0.0
C1577 C 0.62708 0.75837 0.32487 0.0
C1578 C 0.63728 0.80776 0.3508 0.0
C1579 C 0.59117 0.79244 0.33411 0.0
C1580 C 0.57937 0.80464 0.31363 0.0
C1581 C 0.55251 0.80907 0.31454 0.0
C1582 C 0.53727 0.80019 0.33655 0.0
C1583 C 0.54888 0.78683 0.35726 0.0
C1584 C 0.57627 0.78335 0.35607 0.0
H1585 H 1.00706 0.05627 0.01048 0.0
H1586 H 0.08462 0.09025 0.03854 0.0
H1587 H 0.08347 0.12774 1.00786 0.0
H1588 H 1.00858 0.07805 0.93968 0.0
H1589 H 0.97517 0.08847 0.94272 0.0
H1590 H 0.98508 0.06 0.96061 0.0
H1591 H 0.96889 0.08649 1.00657 0.0
H1592 H 0.95933 0.11527 0.98904 0.0
H1593 H 0.98192 0.12245 0.01756 0.0
H1594 H 0.07151 0.16502 0.97809 0.0
H1595 H 0.0496 0.19999 0.9546 0.0
H1596 H 0.9765 0.14668 0.95261 0.0
C1597 C 0.02407 0.07121 1.00961 0.0
C1598 C 0.04613 0.06998 0.02671 0.0
C1599 C 0.06793 0.09 0.02507 0.0
C1600 C 0.06724 0.11168 1.0079 0.0
C1601 C 0.04437 0.11341 0.99282 0.0
C1602 C 0.0231 0.09371 0.99364 0.0
C1603 C 0.99936 0.1027 0.9792 0.0
C1604 C 0.9916 0.08101 0.95405 0.0
C1605 C 0.976 0.10698 0.99929 0.0
C1606 C 1.01038 0.13083 0.97048 0.0
C1607 C 0.03661 0.13619 0.97787 0.0
C1608 C 0.05104 0.16091 0.97215 0.0
C1609 C 0.03839 0.18067 0.95875 0.0
C1610 C 1.0113 0.17617 0.95177 0.0
C1611 C 0.99718 0.1508 0.95773 0.0
H1612 H 0.37807 0.35828 0.29929 0.0
H1613 H 0.37656 0.27972 0.33682 0.0
H1614 H 0.41645 0.26752 0.31182 0.0
H1615 H 0.39134 0.3235 0.23238 0.0
H1616 H 0.41103 0.35347 0.22186 0.0
H1617 H 0.38534 0.35926 0.24718 0.0
H1618 H 0.41941 0.38745 0.28097 0.0
H1619 H 0.44533 0.38127 0.25587 0.0
H1620 H 0.44837 0.3708 0.28978 0.0
H1621 H 0.45503 0.26124 0.27993 0.0
H1622 H 0.48428 0.25743 0.23943 0.0
H1623 H 0.45656 0.33502 0.21531 0.0
C1624 C 0.38497 0.33778 0.30165 0.0
C1625 C 0.37174 0.31927 0.31915 0.0
C1626 C 0.38435 0.29432 0.32326 0.0
C1627 C 0.40768 0.2871 0.30906 0.0
C1628 C 0.41855 0.30482 0.29053 0.0
C1629 C 0.40735 0.32947 0.28647 0.0
C1630 C 0.42077 0.34295 0.26274 0.0
C1631 C 0.40095 0.3449 0.23967 0.0
C1632 C 0.43427 0.37237 0.27296 0.0
C1633 C 0.44102 0.32155 0.2536 0.0
C1634 C 0.43993 0.30034 0.27075 0.0
C1635 C 0.45604 0.27773 0.26646 0.0
C1636 C 0.4727 0.27585 0.2434 0.0
C1637 C 0.47291 0.29601 0.22425 0.0
C1638 C 0.45737 0.3197 0.22987 0.0
H1639 H 0.52569 0.4656 0.05158 0.0
H1640 H 0.60844 0.45864 0.03175 0.0
H1641 H 0.61119 0.42488 0.06615 0.0
H1642 H 0.52575 0.45311 0.12396 0.0
H1643 H 0.49546 0.43076 0.12068 0.0
H1644 H 0.50135 0.45886 0.09925 0.0
H1645 H 0.49359 0.42229 0.05562 0.0
H1646 H 0.48766 0.39411 0.07686 0.0
H1647 H 0.51276 0.3915 0.05046 0.0
H1648 H 0.60386 0.38918 0.10112 0.0
H1649 H 0.58683 0.35122 0.12838 0.0
H1650 H 0.5071 0.37479 0.11825 0.0
C1651 C 0.54444 0.45702 0.05438 0.0
C1652 C 0.56686 0.46489 0.03873 0.0
C1653 C 0.59111 0.45356 0.04375 0.0
C1654 C 0.59277 0.43412 0.06314 0.0
C1655 C 0.56989 0.42574 0.07709 0.0
C1656 C 0.54609 0.43661 0.0726 0.0
C1657 C 0.52368 0.42144 0.08715 0.0
C1658 C 0.5108 0.44229 0.10906 0.0
C1659 C 0.50322 0.40644 0.06628 0.0
C1660 C 0.53847 0.40002 0.10037 0.0
C1661 C 0.56523 0.40346 0.09503 0.0
C1662 C 0.58295 0.38635 0.10533 0.0
C1663 C 0.57309 0.3649 0.12093 0.0
C1664 C 0.54564 0.36001 0.1255 0.0
C1665 C 0.52818 0.37802 0.11516 0.0
H1666 H 0.66962 0.23858 0.27079 0.0
H1667 H 0.63721 0.16035 0.29891 0.0
H1668 H 0.59846 0.16008 0.2685 0.0
H1669 H 0.60852 0.2708 0.26938 0.0
H1670 H 0.61656 0.28793 0.23917 0.0
H1671 H 0.64242 0.28061 0.26147 0.0
H1672 H 0.66526 0.25246 0.22004 0.0
H1673 H 0.63945 0.25969 0.1976 0.0
H1674 H 0.64698 0.22343 0.19961 0.0
H1675 H 0.56264 0.16959 0.23629 0.0
H1676 H 0.53187 0.18828 0.20565 0.0
H1677 H 0.58716 0.26155 0.19961 0.0
C1678 C 0.65435 0.22139 0.2703 0.0
C1679 C 0.65616 0.19943 0.28702 0.0
C1680 C 0.636 0.17719 0.28605 0.0
C1681 C 0.61403 0.17694 0.26891 0.0
C1682 C 0.61257 0.19916 0.25293 0.0
C1683 C 0.63219 0.22101 0.2535 0.0
C1684 C 0.6253 0.243 0.2353 0.0
C1685 C 0.62306 0.27231 0.25235 0.0
C1686 C 0.64545 0.24473 0.21174 0.0
C1687 C 0.59865 0.23027 0.22455 0.0
C1688 C 0.59176 0.20488 0.23479 0.0
C1689 C 0.56788 0.18941 0.22809 0.0
C1690 C 0.5505 0.20025 0.21062 0.0
C1691 C 0.55695 0.22647 0.20011 0.0
C1692 C 0.58152 0.24146 0.20716 0.0
H1693 H 0.53141 0.10994 0.01155 0.0
H1694 H 0.46129 0.13226 0.97293 0.0
H1695 H 0.46642 0.18065 0.99817 0.0
H1696 H 0.52721 0.13274 0.06727 0.0
H1697 H 0.55504 0.15526 0.08206 0.0
H1698 H 0.55936 0.12852 0.05319 0.0
H1699 H 0.57683 0.15834 0.01794 0.0
H1700 H 0.58128 0.1867 0.04613 0.0
H1701 H 0.5642 0.19245 0.01548 0.0
H1702 H 0.47093 0.21932 0.03686 0.0
H1703 H 0.48027 0.25136 0.08 0.0
H1704 H 0.55002 0.20728 0.09241 0.0
C1705 C 0.5185 0.12581 1.00679 0.0
C1706 C 0.49588 0.11751 0.99043 0.0
C1707 C 0.47877 0.13843 0.98527 0.0
C1708 C 0.48148 0.16592 0.99967 0.0
C1709 C 0.50246 0.17273 0.01786 0.0
C1710 C 0.52179 0.15403 0.02008 0.0
C1711 C 0.54125 0.16631 0.04264 0.0
C1712 C 0.54595 0.14458 0.0626 0.0
C1713 C 0.56743 0.17656 0.02978 0.0
C1714 C 0.52701 0.19185 0.05588 0.0
C1715 C 0.50539 0.19584 0.04032 0.0
C1716 C 0.48827 0.21701 0.04872 0.0
C1717 C 0.49352 0.2349 0.0734 0.0
C1718 C 0.51553 0.23143 0.08964 0.0
C1719 C 0.5329 0.2101 0.08041 0.0
H1720 H 0.23277 0.38054 0.69523 0.0
H1721 H 0.23289 0.32759 0.7611 0.0
H1722 H 0.27241 0.35553 0.78106 0.0
H1723 H 0.30883 0.3878 0.69071 0.0
H1724 H 0.30876 0.42352 0.68173 0.0
H1725 H 0.28206 0.39756 0.67087 0.0
H1726 H 0.24881 0.43195 0.69423 0.0
H1727 H 0.2753 0.45776 0.70578 0.0
H1728 H 0.25219 0.44483 0.73039 0.0
H1729 H 0.30162 0.39723 0.80051 0.0
H1730 H 0.3336 0.4389 0.80974 0.0
H1731 H 0.32301 0.45947 0.72706 0.0
C1732 C 0.24196 0.37413 0.71306 0.0
C1733 C 0.22988 0.3521 0.72686 0.0
C1734 C 0.24211 0.34437 0.75036 0.0
C1735 C 0.2643 0.36028 0.76195 0.0
C1736 C 0.2748 0.38304 0.74899 0.0
C1737 C 0.26513 0.38902 0.72423 0.0
C1738 C 0.28098 0.41444 0.71459 0.0
C1739 C 0.29605 0.40528 0.68788 0.0
C1740 C 0.26325 0.43867 0.71105 0.0
C1741 C 0.29979 0.42269 0.73863 0.0
C1742 C 0.29526 0.40461 0.75849 0.0
C1743 C 0.3068 0.41034 0.7844 0.0
C1744 C 0.32506 0.43389 0.78941 0.0
C1745 C 0.33257 0.45062 0.76829 0.0
C1746 C 0.31889 0.44576 0.74293 0.0
H1747 H 0.26699 0.68087 0.80723 0.0
H1748 H 0.22577 0.65712 0.87971 0.0
H1749 H 0.25919 0.62258 0.88534 0.0
H1750 H 0.28114 0.6126 0.77961 0.0
H1751 H 0.31319 0.62246 0.76612 0.0
H1752 H 0.28847 0.64797 0.7704 0.0
H1753 H 0.32037 0.68342 0.80081 0.0
H1754 H 0.3453 0.65803 0.79655 0.0
H1755 H 0.33507 0.67225 0.83064 0.0
H1756 H 0.29362 0.58603 0.87889 0.0
H1757 H 0.32693 0.55222 0.86244 0.0
H1758 H 0.34615 0.60028 0.79419 0.0
C1759 C 0.26537 0.66871 0.82454 0.0
C1760 C 0.24386 0.67147 0.84306 0.0
C1761 C 0.24227 0.65538 0.86553 0.0
C1762 C 0.2611 0.6357 0.86876 0.0
C1763 C 0.28158 0.63268 0.8495 0.0
C1764 C 0.28399 0.64905 0.82801 0.0
C1765 C 0.30665 0.64042 0.809 0.0
C1766 C 0.29676 0.63025 0.77955 0.0
C1767 C 0.32812 0.665 0.80928 0.0
C1768 C 0.31618 0.61602 0.8226 0.0
C1769 C 0.3016 0.612 0.84605 0.0
C1770 C 0.30546 0.58937 0.86087 0.0
C1771 C 0.32443 0.57022 0.85135 0.0
C1772 C 0.33944 0.57378 0.82724 0.0
C1773 C 0.33547 0.59733 0.81303 0.0
H1774 H 0.93701 0.51094 0.50403 0.0
H1775 H 0.90453 0.58916 0.48808 0.0
H1776 H 0.85973 0.56921 0.49864 0.0
H1777 H 0.88446 0.46387 0.47296 0.0
H1778 H 0.88541 0.4388 0.49767 0.0
H1779 H 0.91481 0.46006 0.49031 0.0
H1780 H 0.91941 0.47859 0.54234 0.0
H1781 H 0.88971 0.45772 0.54973 0.0
H1782 H 0.89248 0.49564 0.56033 0.0
H1783 H 0.81843 0.53965 0.50744 0.0
H1784 H 0.78318 0.50165 0.5119 0.0
H1785 H 0.84203 0.44281 0.52381 0.0
C1786 C 0.92037 0.52372 0.50277 0.0
C1787 C 0.92405 0.55161 0.49535 0.0
C1788 C 0.90197 0.56787 0.49396 0.0
C1789 C 0.87655 0.55673 0.49998 0.0
C1790 C 0.87354 0.52926 0.50746 0.0
C1791 C 0.89481 0.51288 0.50877 0.0
C1792 C 0.88593 0.48348 0.51607 0.0
C1793 C 0.89307 0.46019 0.49287 0.0
C1794 C 0.89758 0.47858 0.54377 0.0
C1795 C 0.85634 0.48575 0.51825 0.0
C1796 C 0.84965 0.51242 0.51335 0.0
C1797 C 0.82343 0.5189 0.5119 0.0
C1798 C 0.80354 0.49732 0.51465 0.0
C1799 C 0.80996 0.46978 0.51921 0.0
C1800 C 0.83666 0.46412 0.52162 0.0
H1801 H 0.77134 0.85639 0.80308 0.0
H1802 H 0.81306 0.89876 0.87489 0.0
H1803 H 0.78603 0.94041 0.87508 0.0
H1804 H 0.76471 0.91821 0.76929 0.0
H1805 H 0.73201 0.90719 0.75652 0.0
H1806 H 0.75432 0.88083 0.76252 0.0
H1807 H 0.71987 0.85883 0.79471 0.0
H1808 H 0.69745 0.88517 0.78883 0.0
H1809 H 0.70671 0.88115 0.82349 0.0
H1810 H 0.75588 0.97849 0.86556 0.0
H1811 H 0.72378 1.00903 0.84858 0.0
H1812 H 0.69996 0.94077 0.78425 0.0
C1813 C 0.77454 0.87448 0.81883 0.0
C1814 C 0.7942 0.87469 0.83897 0.0
C1815 C 0.79802 0.89848 0.85939 0.0
C1816 C 0.78279 0.92211 0.85959 0.0
C1817 C 0.76359 0.92143 0.83936 0.0
C1818 C 0.75926 0.89811 0.81948 0.0
C1819 C 0.73739 0.90276 0.80009 0.0
C1820 C 0.74773 0.90222 0.77035 0.0
C1821 C 0.71397 0.88066 0.8019 0.0
C1822 C 0.73028 0.93243 0.81192 0.0
C1823 C 0.74569 0.9429 0.8345 0.0
C1824 C 0.74352 0.97036 0.84809 0.0
C1825 C 0.72523 0.98759 0.83831 0.0
C1826 C 0.70912 0.97724 0.81531 0.0
C1827 C 0.71165 0.94917 0.80218 0.0
H1828 H 0.63039 0.49974 0.98916 0.0
H1829 H 0.58464 0.53545 0.05831 0.0
H1830 H 0.62289 0.56881 0.074 0.0
H1831 H 0.69845 0.51247 0.02676 0.0
H1832 H 0.71413 0.51963 0.99483 0.0
H1833 H 0.68612 0.49399 0.99453 0.0
H1834 H 0.666 0.52088 0.96006 0.0
H1835 H 0.68949 0.55135 0.96267 0.0
H1836 H 0.655 0.55557 0.97053 0.0
H1837 H 0.66506 0.60119 0.07934 0.0
H1838 H 0.70661 0.63055 0.07361 0.0
H1839 H 0.72248 0.57775 0.9972 0.0
C1840 C 0.62909 0.51354 1.00846 0.0
C1841 C 0.6049 0.51466 0.02301 0.0
C1842 C 0.60327 0.53378 0.04747 0.0
C1843 C 0.62485 0.5529 0.05632 0.0
C1844 C 0.648 0.5524 0.04056 0.0
C1845 C 0.65048 0.53268 0.01749 0.0
C1846 C 0.67629 0.53853 1.00246 0.0
C1847 C 0.69485 0.51475 1.00479 0.0
C1848 C 0.6715 0.54189 0.97213 0.0
C1849 C 0.68677 0.56621 0.01912 0.0
C1850 C 0.67085 0.57295 0.04183 0.0
C1851 C 0.67748 0.59624 0.06149 0.0
C1852 C 0.70101 0.61291 0.05801 0.0
C1853 C 0.71702 0.60722 0.03436 0.0
C1854 C 0.7099 0.58336 0.01479 0.0
H1855 H 0.29303 0.69139 0.27589 0.0
H1856 H 0.3122 0.66552 0.19045 0.0
H1857 H 0.28175 0.62251 0.1902 0.0
H1858 H 0.28385 0.61229 0.29305 0.0
H1859 H 0.25855 0.62216 0.31786 0.0
H1860 H 0.28593 0.64727 0.31252 0.0
H1861 H 0.2529 0.68295 0.3043 0.0
H1862 H 0.22471 0.6581 0.30606 0.0
H1863 H 0.23096 0.67563 0.27548 0.0
H1864 H 0.24471 0.5869 0.19682 0.0
H1865 H 0.20748 0.55603 0.21194 0.0
H1866 H 0.21134 0.60395 0.29349 0.0
C1867 C 0.29172 0.67584 0.25767 0.0
C1868 C 0.30481 0.68165 0.23311 0.0
C1869 C 0.3023 0.66125 0.20939 0.0
C1870 C 0.28499 0.63686 0.20906 0.0
C1871 C 0.27094 0.63261 0.23298 0.0
C1872 C 0.27495 0.65075 0.25725 0.0
C1873 C 0.25646 0.64149 0.27967 0.0
C1874 C 0.27213 0.63013 0.3021 0.0
C1875 C 0.24019 0.66598 0.29212 0.0
C1876 C 0.23959 0.61741 0.26337 0.0
C1877 C 0.24897 0.61214 0.2367 0.0
C1878 C 0.23731 0.59064 0.21771 0.0
C1879 C 0.21604 0.57337 0.22637 0.0
C1880 C 0.20612 0.57806 0.25356 0.0
C1881 C 0.21799 0.60051 0.27228 0.0
H1882 H 0.94164 0.51764 0.02901 0.0
H1883 H 0.92754 0.51418 0.11606 0.0
H1884 H 0.8904 0.54485 0.11487 0.0
H1885 H 0.92607 0.58963 0.0267 0.0
H1886 H 0.90899 0.58286 0.99424 0.0
H1887 H 0.9345 0.56047 1.00155 0.0
H1888 H 0.90193 0.51584 0.99225 0.0
H1889 H 0.87634 0.53808 0.98475 0.0
H1890 H 0.8711 0.51454 0.01083 0.0
H1891 H 0.85789 0.57894 0.10559 0.0
H1892 H 0.82736 0.61016 0.08767 0.0
H1893 H 0.85797 0.58865 1.00506 0.0
C1894 C 0.93054 0.52329 0.04768 0.0
C1895 C 0.9379 0.51429 0.0729 0.0
C1896 C 0.92267 0.52159 0.09683 0.0
C1897 C 0.90151 0.53887 0.09628 0.0
C1898 C 0.89519 0.54808 0.07139 0.0
C1899 C 0.90883 0.54016 0.04735 0.0
C1900 C 0.89726 0.55267 0.02332 0.0
C1901 C 0.91794 0.57259 0.01072 0.0
C1902 C 0.88598 0.52886 1.00149 0.0
C1903 C 0.8754 0.56929 0.03779 0.0
C1904 C 0.8749 0.56644 0.06559 0.0
C1905 C 0.85779 0.58098 0.08381 0.0
C1906 C 0.84061 0.59878 0.07344 0.0
C1907 C 0.84013 0.60167 0.04501 0.0
C1908 C 0.85766 0.58651 0.02684 0.0
H1909 H 0.07412 0.99278 0.01987 0.0
H1910 H 0.10622 0.0653 0.07464 0.0
H1911 H 0.15091 0.04805 0.06789 0.0
H1912 H 0.111 0.94318 0.0434 0.0
H1913 H 0.11658 0.92215 0.01076 0.0
H1914 H 0.08792 0.94241 0.01563 0.0
H1915 H 0.10109 0.96855 0.97361 0.0
H1916 H 0.12954 0.94789 0.96814 0.0
H1917 H 0.13356 0.98628 0.97205 0.0
H1918 H 0.19033 0.01875 0.06176 0.0
H1919 H 0.22318 0.98269 0.05152 0.0
H1920 H 0.16669 0.92939 0.99896 0.0
C1921 C 0.09087 1.00574 0.02908 0.0
C1922 C 0.08698 0.03108 0.04683 0.0
C1923 C 0.10906 0.04661 0.06004 0.0
C1924 C 0.13441 0.0367 0.0566 0.0
C1925 C 0.1375 1.0111 0.03978 0.0
C1926 C 0.11644 0.99609 0.02571 0.0
C1927 C 0.12486 0.96813 0.01051 0.0
C1928 C 0.10915 0.94246 0.02069 0.0
C1929 C 0.1221 0.96769 0.97922 0.0
C1930 C 0.15367 0.96943 0.01884 0.0
C1931 C 0.16049 0.99437 0.03585 0.0
C1932 C 0.18536 0.99946 0.04796 0.0
C1933 C 0.20384 0.97881 0.04221 0.0
C1934 C 0.19757 0.95347 0.02428 0.0
C1935 C 0.17215 0.9488 0.01238 0.0
loop_
_geom_bond_atom_site_label_1
_geom_bond_atom_site_label_2
_geom_bond_distance
_geom_bond_site_symmetry_2
_ccdc_geom_bond_type
C0 N1 1.317 . S
C0 N2 1.386 . S
C0 C3 1.485 1_545 S
N1 C0 1.317 . S
N1 N5 1.370 . S
N2 C0 1.386 . S
N2 C4 1.343 1_455 S
C3 C0 1.485 1_565 S
C3 H7 0.960 . S
C3 H8 0.961 . S
C3 H9 0.960 . S
C4 N2 1.343 1_655 S
C4 N5 1.309 1_655 S
C4 C6 1.484 . S
N5 N1 1.370 . S
N5 C4 1.309 1_455 S
C6 C4 1.484 . S
C6 H10 0.960 . S
C6 H11 0.960 . S
C6 H12 0.959 . S
H7 C3 0.960 . S
H8 C3 0.961 . S
H9 C3 0.960 . S
H10 C6 0.960 . S
H11 C6 0.960 . S
H12 C6 0.959 . S
C13 N14 1.317 . S
C13 N15 1.348 . S
C13 C16 1.485 . S
N14 C13 1.317 . S
N14 N18 1.370 . S
N15 C13 1.348 . S
N15 C17 1.346 . S
C16 C13 1.485 . S
C16 H20 0.960 . S
C16 H21 0.961 . S
C16 H22 0.960 . S
C17 N15 1.346 . S
C17 N18 1.307 . S
C17 C19 1.486 . S
N18 N14 1.370 . S
N18 C17 1.307 . S
C19 C17 1.486 . S
C19 H23 0.960 . S
C19 H24 0.960 . S
C19 H25 0.959 . S
H20 C16 0.960 . S
H21 C16 0.961 . S
H22 C16 0.960 . S
H23 C19 0.960 . S
H24 C19 0.960 . S
H25 C19 0.959 . S
C26 N27 1.317 . S
C26 N28 1.348 . S
C26 C29 1.485 . S
N27 C26 1.317 . S
N27 N31 1.370 . S
N28 C26 1.348 . S
N28 C30 1.346 . S
C29 C26 1.485 . S
C29 H33 0.960 . S
C29 H34 0.961 . S
C29 H35 0.960 . S
C30 N28 1.346 . S
C30 N31 1.307 . S
C30 C32 1.486 . S
N31 N27 1.370 . S
N31 C30 1.307 . S
C32 C30 1.486 . S
C32 H36 0.938 1_554 S
C32 H37 0.960 . S
C32 H38 0.959 . S
H33 C29 0.960 . S
H34 C29 0.961 . S
H35 C29 0.960 . S
H36 C32 0.938 1_556 S
H37 C32 0.960 . S
H38 C32 0.959 . S
C39 N40 1.317 . S
C39 N41 1.348 . S
C39 C42 1.485 . S
N40 C39 1.317 . S
N40 N44 1.370 . S
N41 C39 1.348 . S
N41 C43 1.346 . S
C42 C39 1.485 . S
C42 H46 0.960 . S
C42 H47 0.961 . S
C42 H48 0.960 . S
C43 N41 1.346 . S
C43 N44 1.307 . S
C43 C45 1.486 . S
N44 N40 1.370 . S
N44 C43 1.307 . S
C45 C43 1.486 . S
C45 H49 0.960 . S
C45 H50 0.960 . S
C45 H51 0.959 . S
H46 C42 0.960 . S
H47 C42 0.961 . S
H48 C42 0.960 . S
H49 C45 0.960 . S
H50 C45 0.960 . S
H51 C45 0.959 . S
C52 N53 1.317 . S
C52 N54 1.348 . S
C52 C55 1.485 1_455 S
N53 C52 1.317 . S
N53 N57 1.370 . S
N54 C52 1.348 . S
N54 C56 1.346 1_565 S
C55 C52 1.485 1_655 S
C55 H59 0.961 1_655 S
C55 H60 0.961 . S
C55 H61 0.963 . S
C56 N54 1.346 1_545 S
C56 N57 1.307 1_545 S
C56 C58 1.486 . S
N57 N53 1.370 . S
N57 C56 1.307 1_565 S
C58 C56 1.486 . S
C58 H62 0.960 . S
C58 H63 0.960 . S
C58 H64 0.959 . S
H59 C55 0.961 1_455 S
H60 C55 0.961 . S
H61 C55 0.963 . S
H62 C58 0.960 . S
H63 C58 0.960 . S
H64 C58 0.959 . S
C65 N66 1.317 . S
C65 N67 1.348 . S
C65 C68 1.485 . S
N66 C65 1.317 . S
N66 N70 1.370 . S
N67 C65 1.348 . S
N67 C69 1.346 . S
C68 C65 1.485 . S
C68 H72 0.960 . S
C68 H73 0.961 . S
C68 H74 0.960 . S
C69 N67 1.346 . S
C69 N70 1.307 . S
C69 C71 1.486 . S
N70 N66 1.370 . S
N70 C69 1.307 . S
C71 C69 1.486 . S
C71 H75 0.960 . S
C71 H76 0.960 . S
C71 H77 0.959 . S
H72 C68 0.960 . S
H73 C68 0.961 . S
H74 C68 0.960 . S
H75 C71 0.960 . S
H76 C71 0.960 . S
H77 C71 0.959 . S
C78 N79 1.317 . S
C78 N80 1.348 . S
C78 C81 1.485 . S
N79 C78 1.317 . S
N79 N83 1.370 . S
N80 C78 1.348 . S
N80 C82 1.346 . S
C81 C78 1.485 . S
C81 H85 0.960 . S
C81 H86 0.961 . S
C81 H87 0.960 . S
C82 N80 1.346 . S
C82 N83 1.307 . S
C82 C84 1.486 . S
N83 N79 1.370 . S
N83 C82 1.307 . S
C84 C82 1.486 . S
C84 H88 0.960 . S
C84 H89 0.960 . S
C84 H90 0.959 . S
H85 C81 0.960 . S
H86 C81 0.961 . S
H87 C81 0.960 . S
H88 C84 0.960 . S
H89 C84 0.960 . S
H90 C84 0.959 . S
C91 N92 1.317 . S
C91 N93 1.348 . S
C91 C94 1.485 . S
N92 C91 1.317 . S
N92 N96 1.370 . S
N93 C91 1.348 . S
N93 C95 1.346 . S
C94 C91 1.485 . S
C94 H98 0.960 . S
C94 H99 0.961 . S
C94 H100 0.960 . S
C95 N93 1.346 . S
C95 N96 1.307 . S
C95 C97 1.486 . S
N96 N92 1.370 . S
N96 C95 1.307 . S
C97 C95 1.486 . S
C97 H101 0.960 . S
C97 H102 0.960 . S
C97 H103 0.959 . S
H98 C94 0.960 . S
H99 C94 0.961 . S
H100 C94 0.960 . S
H101 C97 0.960 . S
H102 C97 0.960 . S
H103 C97 0.959 . S
C104 N105 1.317 . S
C104 N106 1.348 . S
C104 C107 1.485 . S
N105 C104 1.317 . S
N105 N109 1.370 . S
N106 C104 1.348 . S
N106 C108 1.346 . S
C107 C104 1.485 . S
C107 H111 0.960 . S
C107 H112 0.961 . S
C107 H113 0.960 . S
C108 N106 1.346 . S
C108 N109 1.307 . S
C108 C110 1.486 . S
N109 N105 1.370 . S
N109 C108 1.307 . S
C110 C108 1.486 . S
C110 H114 0.960 . S
C110 H115 0.960 . S
C110 H116 0.959 . S
H111 C107 0.960 . S
H112 C107 0.961 . S
H113 C107 0.960 . S
H114 C110 0.960 . S
H115 C110 0.960 . S
H116 C110 0.959 . S
C117 N118 1.350 . S
C117 N119 1.348 . S
C117 C120 1.457 1_565 S
N118 C117 1.350 . S
N118 N122 1.370 . S
N119 C117 1.348 . S
N119 C121 1.346 . S
C120 C117 1.457 1_545 S
C120 H124 0.960 . S
C120 H125 0.961 . S
C120 H126 0.960 . S
C121 N119 1.346 . S
C121 N122 1.307 . S
C121 C123 1.486 . S
N122 N118 1.370 . S
N122 C121 1.307 . S
C123 C121 1.486 . S
C123 H127 0.960 . S
C123 H128 0.960 . S
C123 H129 0.959 . S
H124 C120 0.960 . S
H125 C120 0.961 . S
H126 C120 0.960 . S
H127 C123 0.960 . S
H128 C123 0.960 . S
H129 C123 0.959 . S
C130 N131 1.317 . S
C130 N132 1.348 . S
C130 C133 1.485 . S
N131 C130 1.317 . S
N131 N135 1.370 . S
N132 C130 1.348 . S
N132 C134 1.346 . S
C133 C130 1.485 . S
C133 H137 0.960 . S
C133 H138 0.961 . S
C133 H139 0.960 . S
C134 N132 1.346 . S
C134 N135 1.307 . S
C134 C136 1.486 . S
N135 N131 1.370 . S
N135 C134 1.307 . S
C136 C134 1.486 . S
C136 H140 0.960 . S
C136 H141 0.960 . S
C136 H142 0.959 . S
H137 C133 0.960 . S
H138 C133 0.961 . S
H139 C133 0.960 . S
H140 C136 0.960 . S
H141 C136 0.960 . S
H142 C136 0.959 . S
C143 N144 1.317 . S
C143 N145 1.348 . S
C143 C146 1.485 . S
N144 C143 1.317 . S
N144 N148 1.370 . S
N145 C143 1.348 . S
N145 C147 1.346 . S
C146 C143 1.485 . S
C146 H150 0.960 . S
C146 H151 0.961 . S
C146 H152 0.960 . S
C147 N145 1.346 . S
C147 N148 1.307 . S
C147 C149 1.486 . S
N148 N144 1.370 . S
N148 C147 1.307 . S
C149 C147 1.486 . S
C149 H153 0.960 . S
C149 H154 0.960 . S
C149 H155 0.959 . S
H150 C146 0.960 . S
H151 C146 0.961 . S
H152 C146 0.960 . S
H153 C149 0.960 . S
H154 C149 0.960 . S
H155 C149 0.959 . S
C156 N157 1.317 . S
C156 N158 1.348 . S
C156 C159 1.485 . S
N157 C156 1.317 . S
N157 N161 1.370 . S
N158 C156 1.348 . S
N158 C160 1.346 . S
C159 C156 1.485 . S
C159 H163 0.960 . S
C159 H164 0.961 . S
C159 H165 0.960 . S
C160 N158 1.346 . S
C160 N161 1.307 . S
C160 C162 1.486 . S
N161 N157 1.370 . S
N161 C160 1.307 . S
C162 C160 1.486 . S
C162 H166 0.960 . S
C162 H167 0.960 . S
C162 H168 0.959 . S
H163 C159 0.960 . S
H164 C159 0.961 . S
H165 C159 0.960 . S
H166 C162 0.960 . S
H167 C162 0.960 . S
H168 C162 0.959 . S
C169 N170 1.317 . S
C169 N171 1.348 . S
C169 C172 1.485 . S
N170 C169 1.317 . S
N170 N174 1.370 . S
N171 C169 1.348 . S
N171 C173 1.346 . S
C172 C169 1.485 . S
C172 H176 0.960 . S
C172 H177 0.961 . S
C172 H178 0.960 . S
C173 N171 1.346 . S
C173 N174 1.307 . S
C173 C175 1.486 . S
N174 N170 1.370 . S
N174 C173 1.307 . S
C175 C173 1.486 . S
C175 H179 0.960 . S
C175 H180 0.960 . S
C175 H181 0.959 . S
H176 C172 0.960 . S
H177 C172 0.961 . S
H178 C172 0.960 . S
H179 C175 0.960 . S
H180 C175 0.960 . S
H181 C175 0.959 . S
C182 N183 1.317 . S
C182 N184 1.348 . S
C182 C185 1.485 . S
N183 C182 1.317 . S
N183 N187 1.370 . S
N184 C182 1.348 . S
N184 C186 1.346 . S
C185 C182 1.485 . S
C185 H189 0.960 . S
C185 H190 0.961 . S
C185 H191 0.960 . S
C186 N184 1.346 . S
C186 N187 1.307 . S
C186 C188 1.486 . S
N187 N183 1.370 . S
N187 C186 1.307 . S
C188 C186 1.486 . S
C188 H192 0.960 . S
C188 H193 0.960 . S
C188 H194 0.959 . S
H189 C185 0.960 . S
H190 C185 0.961 . S
H191 C185 0.960 . S
H192 C188 0.960 . S
H193 C188 0.960 . S
H194 C188 0.959 . S
C195 N196 1.317 . S
C195 N197 1.348 . S
C195 C198 1.485 . S
N196 C195 1.317 . S
N196 N200 1.370 . S
N197 C195 1.348 . S
N197 C199 1.346 1_556 S
C198 C195 1.485 . S
C198 H202 0.960 . S
C198 H203 0.961 1_545 S
C198 H204 0.962 . S
C199 N197 1.346 1_554 S
C199 N200 1.307 1_554 S
C199 C201 1.486 . S
N200 N196 1.370 . S
N200 C199 1.307 1_556 S
C201 C199 1.486 . S
C201 H205 0.960 . S
C201 H206 0.960 . S
C201 H207 0.959 . S
H202 C198 0.960 . S
H203 C198 0.961 1_565 S
H204 C198 0.962 . S
H205 C201 0.960 . S
H206 C201 0.960 . S
H207 C201 0.959 . S
Mn208 O213 2.095 . S
Mn208 O223 2.162 . S
Mn208 O224 2.297 . S
Mn208 O232 2.385 . S
Mn208 O233 2.209 1_554 S
Mn208 O234 2.094 . S
Mn209 O214 2.121 . S
Mn209 N216 2.257 . S
Mn209 N225 2.282 . S
Mn209 O233 2.215 . S
Mn209 O235 2.117 . S
C210 O232 1.234 1_556 S
C210 O233 1.283 . S
C211 O223 1.281 . S
C211 O224 1.236 . S
C212 O234 1.240 . S
C212 O235 1.264 1_554 S
O213 Mn208 2.095 . S
O213 C222 1.250 . S
O214 Mn209 2.121 . S
O214 C222 1.258 1_556 S
C215 N216 1.326 . S
C215 C219 1.460 . S
C215 H221 0.929 . S
N216 Mn209 2.257 . S
N216 C215 1.326 . S
N216 C220 1.362 . S
C217 C218 1.258 . S
C217 C220 1.431 . S
C217 C237 1.449 . S
C218 C217 1.258 . S
C218 C219 1.477 . S
C218 H238 0.931 . S
C219 C215 1.460 . S
C219 C218 1.477 . S
C219 H239 0.930 . S
C220 N216 1.362 . S
C220 C217 1.431 . S
C220 C230 1.476 . S
H221 C215 0.929 . S
C222 O213 1.250 . S
C222 O214 1.258 1_554 S
O223 Mn208 2.162 . S
O223 C211 1.281 . S
O224 Mn208 2.297 . S
O224 C211 1.236 . S
N225 Mn209 2.282 . S
N225 C226 1.328 . S
N225 C230 1.318 . S
C226 N225 1.328 . S
C226 C227 1.457 . S
C226 H231 0.929 . S
C227 C226 1.457 . S
C227 C228 1.291 . S
C227 H240 0.931 . S
C228 C227 1.291 . S
C228 C229 1.373 . S
C228 H241 0.929 . S
C229 C228 1.373 . S
C229 C230 1.396 . S
C229 C236 1.403 . S
C230 C220 1.476 . S
C230 N225 1.318 . S
C230 C229 1.396 . S
H231 C226 0.929 . S
O232 Mn208 2.385 . S
O232 C210 1.234 1_554 S
O233 Mn208 2.209 1_556 S
O233 Mn209 2.215 . S
O233 C210 1.283 . S
O234 Mn208 2.094 . S
O234 C212 1.240 . S
O235 Mn209 2.117 . S
O235 C212 1.264 1_556 S
C236 C229 1.403 . S
C236 C237 1.399 . S
C236 H242 0.929 . S
C237 C217 1.449 . S
C237 C236 1.399 . S
C237 H243 0.930 . S
H238 C218 0.931 . S
H239 C219 0.930 . S
H240 C227 0.931 . S
H241 C228 0.929 . S
H242 C236 0.929 . S
H243 C237 0.930 . S
Mn244 O249 2.095 . S
Mn244 O259 2.162 . S
Mn244 O260 2.297 . S
Mn244 O268 2.385 . S
Mn244 O269 2.209 . S
Mn244 O270 2.094 . S
Mn245 O250 2.121 . S
Mn245 N252 2.257 . S
Mn245 N261 2.282 . S
Mn245 O269 2.215 . S
Mn245 O271 2.117 . S
C246 O268 1.234 . S
C246 O269 1.283 . S
C247 O259 1.281 . S
C247 O260 1.236 . S
C248 O270 1.240 . S
C248 O271 1.264 . S
O249 Mn244 2.095 . S
O249 C258 1.250 . S
O250 Mn245 2.121 . S
O250 C258 1.258 . S
C251 N252 1.326 . S
C251 C255 1.460 . S
C251 H257 0.929 . S
N252 Mn245 2.257 . S
N252 C251 1.326 . S
N252 C256 1.362 . S
C253 C254 1.258 . S
C253 C256 1.431 . S
C253 C273 1.449 . S
C254 C253 1.258 . S
C254 C255 1.477 . S
C254 H274 0.931 . S
C255 C251 1.460 . S
C255 C254 1.477 . S
C255 H275 0.930 . S
C256 N252 1.362 . S
C256 C253 1.431 . S
C256 C266 1.476 . S
H257 C251 0.929 . S
C258 O249 1.250 . S
C258 O250 1.258 . S
O259 Mn244 2.162 . S
O259 C247 1.281 . S
O260 Mn244 2.297 . S
O260 C247 1.236 . S
N261 Mn245 2.282 . S
N261 C262 1.328 . S
N261 C266 1.318 . S
C262 N261 1.328 . S
C262 C263 1.457 . S
C262 H267 0.929 . S
C263 C262 1.457 . S
C263 C264 1.291 . S
C263 H276 0.931 . S
C264 C263 1.291 . S
C264 C265 1.373 . S
C264 H277 0.929 . S
C265 C264 1.373 . S
C265 C266 1.396 . S
C265 C272 1.403 . S
C266 C256 1.476 . S
C266 N261 1.318 . S
C266 C265 1.396 . S
H267 C262 0.929 . S
O268 Mn244 2.385 . S
O268 C246 1.234 . S
O269 Mn244 2.209 . S
O269 Mn245 2.215 . S
O269 C246 1.283 . S
O270 Mn244 2.094 . S
O270 C248 1.240 . S
O271 Mn245 2.117 . S
O271 C248 1.264 . S
C272 C265 1.403 . S
C272 C273 1.399 . S
C272 H278 0.929 . S
C273 C253 1.449 . S
C273 C272 1.399 . S
C273 H279 0.930 . S
H274 C254 0.931 . S
H275 C255 0.930 . S
H276 C263 0.931 . S
H277 C264 0.929 . S
H278 C272 0.929 . S
H279 C273 0.930 . S
Mn280 O285 2.095 1_554 S
Mn280 O295 2.162 . S
Mn280 O296 2.297 1_554 S
Mn280 O304 2.385 . S
Mn280 O305 2.209 1_554 S
Mn280 O306 2.094 . S
Mn281 O286 2.121 . S
Mn281 N288 2.257 . S
Mn281 N297 2.282 1_556 S
Mn281 O305 2.215 . S
Mn281 O307 2.117 1_556 S
C282 O304 1.234 . S
C282 O305 1.283 1_554 S
C283 O295 1.281 . S
C283 O296 1.236 1_554 S
C284 O306 1.240 . S
C284 O307 1.264 . S
O285 Mn280 2.095 1_556 S
O285 C294 1.250 . S
O286 Mn281 2.121 . S
O286 C294 1.258 . S
C287 N288 1.326 . S
C287 C291 1.460 . S
C287 H293 0.929 . S
N288 Mn281 2.257 . S
N288 C287 1.326 . S
N288 C292 1.362 . S
C289 C290 1.258 . S
C289 C292 1.431 . S
C289 C309 1.449 . S
C290 C289 1.258 . S
C290 C291 1.477 . S
C290 H310 0.931 . S
C291 C287 1.460 . S
C291 C290 1.477 . S
C291 H311 0.930 . S
C292 N288 1.362 . S
C292 C289 1.431 . S
C292 C302 1.476 . S
H293 C287 0.929 . S
C294 O285 1.250 . S
C294 O286 1.258 . S
O295 Mn280 2.162 . S
O295 C283 1.281 . S
O296 Mn280 2.297 1_556 S
O296 C283 1.236 1_556 S
N297 Mn281 2.282 1_554 S
N297 C298 1.328 . S
N297 C302 1.318 1_554 S
C298 N297 1.328 . S
C298 C299 1.457 . S
C298 H303 0.929 . S
C299 C298 1.457 . S
C299 C300 1.291 . S
C299 H312 0.931 . S
C300 C299 1.291 . S
C300 C301 1.373 1_554 S
C300 H313 0.929 . S
C301 C300 1.373 1_556 S
C301 C302 1.396 . S
C301 C308 1.403 . S
C302 C292 1.476 . S
C302 N297 1.318 1_556 S
C302 C301 1.396 . S
H303 C298 0.929 . S
O304 Mn280 2.385 . S
O304 C282 1.234 . S
O305 Mn280 2.209 1_556 S
O305 Mn281 2.215 . S
O305 C282 1.283 1_556 S
O306 Mn280 2.094 . S
O306 C284 1.240 . S
O307 Mn281 2.117 1_554 S
O307 C284 1.264 . S
C308 C301 1.403 . S
C308 C309 1.399 . S
C308 H314 0.929 . S
C309 C289 1.449 . S
C309 C308 1.399 . S
C309 H315 0.930 . S
H310 C290 0.931 . S
H311 C291 0.930 . S
H312 C299 0.931 . S
H313 C300 0.929 . S
H314 C308 0.929 . S
H315 C309 0.930 . S
Mn316 O321 2.095 . S
Mn316 O331 2.162 . S
Mn316 O332 2.297 . S
Mn316 O340 2.385 1_545 S
Mn316 O341 2.209 1_545 S
Mn316 O342 2.094 . S
Mn317 O322 2.121 . S
Mn317 N324 2.257 . S
Mn317 N333 2.282 . S
Mn317 O341 2.215 . S
Mn317 O343 2.117 . S
C318 O340 1.234 . S
C318 O341 1.283 . S
C319 O331 1.281 . S
C319 O332 1.236 . S
C320 O342 1.240 . S
C320 O343 1.264 1_545 S
O321 Mn316 2.095 . S
O321 C330 1.250 . S
O322 Mn317 2.121 . S
O322 C330 1.258 1_565 S
C323 N324 1.326 . S
C323 C327 1.460 . S
C323 H329 0.929 . S
N324 Mn317 2.257 . S
N324 C323 1.326 . S
N324 C328 1.362 . S
C325 C326 1.258 . S
C325 C328 1.431 . S
C325 C345 1.449 . S
C326 C325 1.258 . S
C326 C327 1.477 . S
C326 H346 0.931 . S
C327 C323 1.460 . S
C327 C326 1.477 . S
C327 H347 0.930 . S
C328 N324 1.362 . S
C328 C325 1.431 . S
C328 C338 1.476 . S
H329 C323 0.929 . S
C330 O321 1.250 . S
C330 O322 1.258 1_545 S
O331 Mn316 2.162 . S
O331 C319 1.281 . S
O332 Mn316 2.297 . S
O332 C319 1.236 . S
N333 Mn317 2.282 . S
N333 C334 1.328 . S
N333 C338 1.318 . S
C334 N333 1.328 . S
C334 C335 1.457 . S
C334 H339 0.929 . S
C335 C334 1.457 . S
C335 C336 1.291 . S
C335 H348 0.931 . S
C336 C335 1.291 . S
C336 C337 1.373 . S
C336 H349 0.929 . S
C337 C336 1.373 . S
C337 C338 1.396 . S
C337 C344 1.403 . S
C338 C328 1.476 . S
C338 N333 1.318 . S
C338 C337 1.396 . S
H339 C334 0.929 . S
O340 Mn316 2.385 1_565 S
O340 C318 1.234 . S
O341 Mn316 2.209 1_565 S
O341 Mn317 2.215 . S
O341 C318 1.283 . S
O342 Mn316 2.094 . S
O342 C320 1.240 . S
O343 Mn317 2.117 . S
O343 C320 1.264 1_565 S
C344 C337 1.403 . S
C344 C345 1.399 . S
C344 H350 0.929 . S
C345 C325 1.449 . S
C345 C344 1.399 . S
C345 H351 0.930 . S
H346 C326 0.931 . S
H347 C327 0.930 . S
H348 C335 0.931 . S
H349 C336 0.929 . S
H350 C344 0.929 . S
H351 C345 0.930 . S
Mn352 O357 2.095 . S
Mn352 O367 2.162 . S
Mn352 O368 2.297 . S
Mn352 O376 2.385 . S
Mn352 O377 2.209 . S
Mn352 O378 2.094 . S
Mn353 O358 2.121 . S
Mn353 N360 2.257 . S
Mn353 N369 2.282 . S
Mn353 O377 2.215 . S
Mn353 O379 2.117 . S
C354 O376 1.234 . S
C354 O377 1.283 . S
C355 O367 1.281 . S
C355 O368 1.236 . S
C356 O378 1.240 . S
C356 O379 1.264 . S
O357 Mn352 2.095 . S
O357 C366 1.250 . S
O358 Mn353 2.121 . S
O358 C366 1.258 . S
C359 N360 1.326 . S
C359 C363 1.460 . S
C359 H365 0.929 . S
N360 Mn353 2.257 . S
N360 C359 1.326 . S
N360 C364 1.362 . S
C361 C362 1.258 . S
C361 C364 1.431 . S
C361 C381 1.449 . S
C362 C361 1.258 . S
C362 C363 1.477 . S
C362 H382 0.931 . S
C363 C359 1.460 . S
C363 C362 1.477 . S
C363 H383 0.930 . S
C364 N360 1.362 . S
C364 C361 1.431 . S
C364 C374 1.476 . S
H365 C359 0.929 . S
C366 O357 1.250 . S
C366 O358 1.258 . S
O367 Mn352 2.162 . S
O367 C355 1.281 . S
O368 Mn352 2.297 . S
O368 C355 1.236 . S
N369 Mn353 2.282 . S
N369 C370 1.328 . S
N369 C374 1.318 . S
C370 N369 1.328 . S
C370 C371 1.457 . S
C370 H375 0.929 . S
C371 C370 1.457 . S
C371 C372 1.291 . S
C371 H384 0.931 . S
C372 C371 1.291 . S
C372 C373 1.373 . S
C372 H385 0.929 . S
C373 C372 1.373 . S
C373 C374 1.396 . S
C373 C380 1.403 . S
C374 C364 1.476 . S
C374 N369 1.318 . S
C374 C373 1.396 . S
H375 C370 0.929 . S
O376 Mn352 2.385 . S
O376 C354 1.234 . S
O377 Mn352 2.209 . S
O377 Mn353 2.215 . S
O377 C354 1.283 . S
O378 Mn352 2.094 . S
O378 C356 1.240 . S
O379 Mn353 2.117 . S
O379 C356 1.264 . S
C380 C373 1.403 . S
C380 C381 1.399 . S
C380 H386 0.929 . S
C381 C361 1.449 . S
C381 C380 1.399 . S
C381 H387 0.930 . S
H382 C362 0.931 . S
H383 C363 0.930 . S
H384 C371 0.931 . S
H385 C372 0.929 . S
H386 C380 0.929 . S
H387 C381 0.930 . S
Mn388 O393 2.095 . S
Mn388 O403 2.162 . S
Mn388 O404 2.297 . S
Mn388 O412 2.385 . S
Mn388 O413 2.209 . S
Mn388 O414 2.094 . S
Mn389 O394 2.121 . S
Mn389 N396 2.257 . S
Mn389 N405 2.282 . S
Mn389 O413 2.215 . S
Mn389 O415 2.117 . S
C390 O412 1.234 . S
C390 O413 1.283 . S
C391 O403 1.281 . S
C391 O404 1.236 . S
C392 O414 1.240 . S
C392 O415 1.264 . S
O393 Mn388 2.095 . S
O393 C402 1.250 . S
O394 Mn389 2.121 . S
O394 C402 1.258 . S
C395 N396 1.326 . S
C395 C399 1.460 . S
C395 H401 0.929 . S
N396 Mn389 2.257 . S
N396 C395 1.326 . S
N396 C400 1.362 . S
C397 C398 1.258 . S
C397 C400 1.431 . S
C397 C417 1.449 . S
C398 C397 1.258 . S
C398 C399 1.477 . S
C398 H418 0.931 . S
C399 C395 1.460 . S
C399 C398 1.477 . S
C399 H419 0.930 . S
C400 N396 1.362 . S
C400 C397 1.431 . S
C400 C410 1.476 . S
H401 C395 0.929 . S
C402 O393 1.250 . S
C402 O394 1.258 . S
O403 Mn388 2.162 . S
O403 C391 1.281 . S
O404 Mn388 2.297 . S
O404 C391 1.236 . S
N405 Mn389 2.282 . S
N405 C406 1.328 . S
N405 C410 1.318 . S
C406 N405 1.328 . S
C406 C407 1.457 . S
C406 H411 0.929 . S
C407 C406 1.457 . S
C407 C408 1.291 . S
C407 H420 0.931 . S
C408 C407 1.291 . S
C408 C409 1.373 . S
C408 H421 0.929 . S
C409 C408 1.373 . S
C409 C410 1.396 . S
C409 C416 1.403 . S
C410 C400 1.476 . S
C410 N405 1.318 . S
C410 C409 1.396 . S
H411 C406 0.929 . S
O412 Mn388 2.385 . S
O412 C390 1.234 . S
O413 Mn388 2.209 . S
O413 Mn389 2.215 . S
O413 C390 1.283 . S
O414 Mn388 2.094 . S
O414 C392 1.240 . S
O415 Mn389 2.117 . S
O415 C392 1.264 . S
C416 C409 1.403 . S
C416 C417 1.399 . S
C416 H422 0.929 . S
C417 C397 1.449 . S
C417 C416 1.399 . S
C417 H423 0.930 . S
H418 C398 0.931 . S
H419 C399 0.930 . S
H420 C407 0.931 . S
H421 C408 0.929 . S
H422 C416 0.929 . S
H423 C417 0.930 . S
Mn424 O429 2.095 . S
Mn424 O439 2.162 . S
Mn424 O440 2.297 . S
Mn424 O448 2.385 . S
Mn424 O449 2.209 . S
Mn424 O450 2.094 . S
Mn425 O430 2.121 . S
Mn425 N432 2.257 . S
Mn425 N441 2.282 . S
Mn425 O449 2.215 . S
Mn425 O451 2.117 . S
C426 O448 1.234 . S
C426 O449 1.283 . S
C427 O439 1.281 . S
C427 O440 1.236 . S
C428 O450 1.240 . S
C428 O451 1.264 . S
O429 Mn424 2.095 . S
O429 C438 1.250 . S
O430 Mn425 2.121 . S
O430 C438 1.258 . S
C431 N432 1.326 . S
C431 C435 1.460 . S
C431 H437 0.929 . S
N432 Mn425 2.257 . S
N432 C431 1.326 . S
N432 C436 1.362 . S
C433 C434 1.258 . S
C433 C436 1.431 . S
C433 C453 1.449 . S
C434 C433 1.258 . S
C434 C435 1.477 . S
C434 H454 0.931 . S
C435 C431 1.460 . S
C435 C434 1.477 . S
C435 H455 0.930 . S
C436 N432 1.362 . S
C436 C433 1.431 . S
C436 C446 1.476 . S
H437 C431 0.929 . S
C438 O429 1.250 . S
C438 O430 1.258 . S
O439 Mn424 2.162 . S
O439 C427 1.281 . S
O440 Mn424 2.297 . S
O440 C427 1.236 . S
N441 Mn425 2.282 . S
N441 C442 1.328 . S
N441 C446 1.318 . S
C442 N441 1.328 . S
C442 C443 1.457 . S
C442 H447 0.929 . S
C443 C442 1.457 . S
C443 C444 1.291 . S
C443 H456 0.931 . S
C444 C443 1.291 . S
C444 C445 1.373 . S
C444 H457 0.929 . S
C445 C444 1.373 . S
C445 C446 1.396 . S
C445 C452 1.403 . S
C446 C436 1.476 . S
C446 N441 1.318 . S
C446 C445 1.396 . S
H447 C442 0.929 . S
O448 Mn424 2.385 . S
O448 C426 1.234 . S
O449 Mn424 2.209 . S
O449 Mn425 2.215 . S
O449 C426 1.283 . S
O450 Mn424 2.094 . S
O450 C428 1.240 . S
O451 Mn425 2.117 . S
O451 C428 1.264 . S
C452 C445 1.403 . S
C452 C453 1.399 . S
C452 H458 0.929 . S
C453 C433 1.449 . S
C453 C452 1.399 . S
C453 H459 0.930 . S
H454 C434 0.931 . S
H455 C435 0.930 . S
H456 C443 0.931 . S
H457 C444 0.929 . S
H458 C452 0.929 . S
H459 C453 0.930 . S
Mn460 O465 2.095 . S
Mn460 O475 2.162 1_545 S
Mn460 O476 2.297 . S
Mn460 O484 2.385 . S
Mn460 O485 2.209 . S
Mn460 O486 2.094 1_545 S
Mn461 O466 2.121 . S
Mn461 N468 2.257 . S
Mn461 N477 2.282 . S
Mn461 O485 2.215 . S
Mn461 O487 2.117 . S
C462 O484 1.234 . S
C462 O485 1.283 . S
C463 O475 1.281 . S
C463 O476 1.236 1_565 S
C464 O486 1.240 1_545 S
C464 O487 1.264 . S
O465 Mn460 2.095 . S
O465 C474 1.250 . S
O466 Mn461 2.121 . S
O466 C474 1.258 . S
C467 N468 1.326 . S
C467 C471 1.460 . S
C467 H473 0.929 . S
N468 Mn461 2.257 . S
N468 C467 1.326 . S
N468 C472 1.362 . S
C469 C470 1.258 . S
C469 C472 1.431 . S
C469 C489 1.449 . S
C470 C469 1.258 . S
C470 C471 1.477 . S
C470 H490 0.931 . S
C471 C467 1.460 . S
C471 C470 1.477 . S
C471 H491 0.930 . S
C472 N468 1.362 . S
C472 C469 1.431 . S
C472 C482 1.476 . S
H473 C467 0.929 . S
C474 O465 1.250 . S
C474 O466 1.258 . S
O475 Mn460 2.162 1_565 S
O475 C463 1.281 . S
O476 Mn460 2.297 . S
O476 C463 1.236 1_545 S
N477 Mn461 2.282 . S
N477 C478 1.328 . S
N477 C482 1.318 . S
C478 N477 1.328 . S
C478 C479 1.457 . S
C478 H483 0.929 . S
C479 C478 1.457 . S
C479 C480 1.291 . S
C479 H492 0.931 . S
C480 C479 1.291 . S
C480 C481 1.373 . S
C480 H493 0.929 . S
C481 C480 1.373 . S
C481 C482 1.396 . S
C481 C488 1.403 . S
C482 C472 1.476 . S
C482 N477 1.318 . S
C482 C481 1.396 . S
H483 C478 0.929 . S
O484 Mn460 2.385 . S
O484 C462 1.234 . S
O485 Mn460 2.209 . S
O485 Mn461 2.215 . S
O485 C462 1.283 . S
O486 Mn460 2.094 1_565 S
O486 C464 1.240 1_565 S
O487 Mn461 2.117 . S
O487 C464 1.264 . S
C488 C481 1.403 . S
C488 C489 1.399 . S
C488 H494 0.929 . S
C489 C469 1.449 . S
C489 C488 1.399 . S
C489 H495 0.930 . S
H490 C470 0.931 . S
H491 C471 0.930 . S
H492 C479 0.931 . S
H493 C480 0.929 . S
H494 C488 0.929 . S
H495 C489 0.930 . S
Mn496 O501 2.095 . S
Mn496 O511 2.162 . S
Mn496 O512 2.297 . S
Mn496 O520 2.385 1_455 S
Mn496 O521 2.209 1_455 S
Mn496 O522 2.094 . S
Mn497 O502 2.121 . S
Mn497 N504 2.257 . S
Mn497 N513 2.282 . S
Mn497 O521 2.215 . S
Mn497 O523 2.117 . S
C498 O520 1.234 . S
C498 O521 1.283 . S
C499 O511 1.281 . S
C499 O512 1.236 . S
C500 O522 1.240 . S
C500 O523 1.264 1_455 S
O501 Mn496 2.095 . S
O501 C510 1.225 1_455 S
O502 Mn497 2.121 . S
O502 C510 1.292 . S
C503 N504 1.326 . S
C503 C507 1.460 . S
C503 H509 0.929 . S
N504 Mn497 2.257 . S
N504 C503 1.326 . S
N504 C508 1.362 . S
C505 C506 1.258 . S
C505 C508 1.431 . S
C505 C525 1.449 . S
C506 C505 1.258 . S
C506 C507 1.477 . S
C506 H526 0.931 . S
C507 C503 1.460 . S
C507 C506 1.477 . S
C507 H527 0.930 . S
C508 N504 1.362 . S
C508 C505 1.431 . S
C508 C518 1.476 . S
H509 C503 0.929 . S
C510 O501 1.225 1_655 S
C510 O502 1.292 . S
O511 Mn496 2.162 . S
O511 C499 1.281 . S
O512 Mn496 2.297 . S
O512 C499 1.236 . S
N513 Mn497 2.282 . S
N513 C514 1.328 . S
N513 C518 1.318 . S
C514 N513 1.328 . S
C514 C515 1.457 . S
C514 H519 0.929 . S
C515 C514 1.457 . S
C515 C516 1.291 . S
C515 H528 0.931 . S
C516 C515 1.291 . S
C516 C517 1.373 . S
C516 H529 0.929 . S
C517 C516 1.373 . S
C517 C518 1.396 . S
C517 C524 1.403 . S
C518 C508 1.476 . S
C518 N513 1.318 . S
C518 C517 1.396 . S
H519 C514 0.929 . S
O520 Mn496 2.385 1_655 S
O520 C498 1.234 . S
O521 Mn496 2.209 1_655 S
O521 Mn497 2.215 . S
O521 C498 1.283 . S
O522 Mn496 2.094 . S
O522 C500 1.240 . S
O523 Mn497 2.117 . S
O523 C500 1.264 1_655 S
C524 C517 1.403 . S
C524 C525 1.399 . S
C524 H530 0.929 . S
C525 C505 1.449 . S
C525 C524 1.399 . S
C525 H531 0.930 . S
H526 C506 0.931 . S
H527 C507 0.930 . S
H528 C515 0.931 . S
H529 C516 0.929 . S
H530 C524 0.929 . S
H531 C525 0.930 . S
Mn532 O537 2.095 . S
Mn532 O547 2.162 . S
Mn532 O548 2.297 . S
Mn532 O556 2.385 . S
Mn532 O557 2.209 . S
Mn532 O558 2.094 . S
Mn533 O538 2.121 . S
Mn533 N540 2.257 . S
Mn533 N549 2.282 . S
Mn533 O557 2.215 . S
Mn533 O559 2.117 . S
C534 O556 1.234 . S
C534 O557 1.283 . S
C535 O547 1.281 . S
C535 O548 1.236 . S
C536 O558 1.240 . S
C536 O559 1.264 . S
O537 Mn532 2.095 . S
O537 C546 1.250 . S
O538 Mn533 2.121 . S
O538 C546 1.258 . S
C539 N540 1.326 . S
C539 C543 1.460 . S
C539 H545 0.929 . S
N540 Mn533 2.257 . S
N540 C539 1.326 . S
N540 C544 1.362 . S
C541 C542 1.258 . S
C541 C544 1.431 . S
C541 C561 1.449 . S
C542 C541 1.258 . S
C542 C543 1.477 . S
C542 H562 0.931 . S
C543 C539 1.460 . S
C543 C542 1.477 . S
C543 H563 0.930 . S
C544 N540 1.362 . S
C544 C541 1.431 . S
C544 C554 1.476 . S
H545 C539 0.929 . S
C546 O537 1.250 . S
C546 O538 1.258 . S
O547 Mn532 2.162 . S
O547 C535 1.281 . S
O548 Mn532 2.297 . S
O548 C535 1.236 . S
N549 Mn533 2.282 . S
N549 C550 1.328 . S
N549 C554 1.318 . S
C550 N549 1.328 . S
C550 C551 1.457 . S
C550 H555 0.929 . S
C551 C550 1.457 . S
C551 C552 1.291 . S
C551 H564 0.931 . S
C552 C551 1.291 . S
C552 C553 1.373 . S
C552 H565 0.929 . S
C553 C552 1.373 . S
C553 C554 1.396 . S
C553 C560 1.403 . S
C554 C544 1.476 . S
C554 N549 1.318 . S
C554 C553 1.396 . S
H555 C550 0.929 . S
O556 Mn532 2.385 . S
O556 C534 1.234 . S
O557 Mn532 2.209 . S
O557 Mn533 2.215 . S
O557 C534 1.283 . S
O558 Mn532 2.094 . S
O558 C536 1.240 . S
O559 Mn533 2.117 . S
O559 C536 1.264 . S
C560 C553 1.403 . S
C560 C561 1.399 . S
C560 H566 0.929 . S
C561 C541 1.449 . S
C561 C560 1.399 . S
C561 H567 0.930 . S
H562 C542 0.931 . S
H563 C543 0.930 . S
H564 C551 0.931 . S
H565 C552 0.929 . S
H566 C560 0.929 . S
H567 C561 0.930 . S
Mn568 O573 2.095 . S
Mn568 O583 2.162 . S
Mn568 O584 2.297 . S
Mn568 O592 2.385 . S
Mn568 O593 2.209 . S
Mn568 O594 2.094 . S
Mn569 O574 2.095 1_455 S
Mn569 N576 2.221 1_455 S
Mn569 N585 2.299 . S
Mn569 O593 2.219 . S
Mn569 O595 2.160 . S
C570 O592 1.234 . S
C570 O593 1.283 . S
C571 O583 1.281 . S
C571 O584 1.236 . S
C572 O594 1.240 . S
C572 O595 1.264 . S
O573 Mn568 2.095 . S
O573 C582 1.250 1_455 S
O574 Mn569 2.095 1_655 S
O574 C582 1.258 . S
C575 N576 1.326 . S
C575 C579 1.460 . S
C575 H581 0.929 . S
N576 Mn569 2.221 1_655 S
N576 C575 1.326 . S
N576 C580 1.362 . S
C577 C578 1.258 . S
C577 C580 1.431 . S
C577 C597 1.449 . S
C578 C577 1.258 . S
C578 C579 1.477 . S
C578 H598 0.931 . S
C579 C575 1.460 . S
C579 C578 1.477 . S
C579 H599 0.930 . S
C580 N576 1.362 . S
C580 C577 1.431 . S
C580 C590 1.476 . S
H581 C575 0.929 . S
C582 O573 1.250 1_655 S
C582 O574 1.258 . S
O583 Mn568 2.162 . S
O583 C571 1.281 . S
O584 Mn568 2.297 . S
O584 C571 1.236 . S
N585 Mn569 2.299 . S
N585 C586 1.328 . S
N585 C590 1.318 1_455 S
C586 N585 1.328 . S
C586 C587 1.457 . S
C586 H591 0.929 . S
C587 C586 1.457 . S
C587 C588 1.291 . S
C587 H600 0.931 . S
C588 C587 1.291 . S
C588 C589 1.391 . S
C588 H601 0.929 . S
C589 C588 1.391 . S
C589 C590 1.391 1_455 S
C589 C596 1.389 1_455 S
C590 C580 1.476 . S
C590 N585 1.318 1_655 S
C590 C589 1.391 1_655 S
H591 C586 0.929 . S
O592 Mn568 2.385 . S
O592 C570 1.234 . S
O593 Mn568 2.209 . S
O593 Mn569 2.219 . S
O593 C570 1.283 . S
O594 Mn568 2.094 . S
O594 C572 1.240 . S
O595 Mn569 2.160 . S
O595 C572 1.264 . S
C596 C589 1.389 1_655 S
C596 C597 1.399 . S
C596 H602 0.929 . S
C597 C577 1.449 . S
C597 C596 1.399 . S
C597 H603 0.930 . S
H598 C578 0.931 . S
H599 C579 0.930 . S
H600 C587 0.931 . S
H601 C588 0.929 . S
H602 C596 0.929 . S
H603 C597 0.930 . S
Mn604 O609 2.095 . S
Mn604 O619 2.162 . S
Mn604 O620 2.297 . S
Mn604 O628 2.385 . S
Mn604 O629 2.209 . S
Mn604 O630 2.094 . S
Mn605 O610 2.121 . S
Mn605 N612 2.257 . S
Mn605 N621 2.282 . S
Mn605 O629 2.215 . S
Mn605 O631 2.117 . S
C606 O628 1.234 . S
C606 O629 1.283 . S
C607 O619 1.281 . S
C607 O620 1.236 . S
C608 O630 1.240 . S
C608 O631 1.264 . S
O609 Mn604 2.095 . S
O609 C618 1.250 . S
O610 Mn605 2.121 . S
O610 C618 1.258 . S
C611 N612 1.326 . S
C611 C615 1.460 . S
C611 H617 0.929 . S
N612 Mn605 2.257 . S
N612 C611 1.326 . S
N612 C616 1.362 . S
C613 C614 1.258 . S
C613 C616 1.431 . S
C613 C633 1.449 . S
C614 C613 1.258 . S
C614 C615 1.477 . S
C614 H634 0.931 . S
C615 C611 1.460 . S
C615 C614 1.477 . S
C615 H635 0.930 . S
C616 N612 1.362 . S
C616 C613 1.431 . S
C616 C626 1.476 . S
H617 C611 0.929 . S
C618 O609 1.250 . S
C618 O610 1.258 . S
O619 Mn604 2.162 . S
O619 C607 1.281 . S
O620 Mn604 2.297 . S
O620 C607 1.236 . S
N621 Mn605 2.282 . S
N621 C622 1.328 . S
N621 C626 1.318 . S
C622 N621 1.328 . S
C622 C623 1.457 . S
C622 H627 0.929 . S
C623 C622 1.457 . S
C623 C624 1.291 . S
C623 H636 0.931 . S
C624 C623 1.291 . S
C624 C625 1.373 . S
C624 H637 0.929 . S
C625 C624 1.373 . S
C625 C626 1.396 . S
C625 C632 1.403 . S
C626 C616 1.476 . S
C626 N621 1.318 . S
C626 C625 1.396 . S
H627 C622 0.929 . S
O628 Mn604 2.385 . S
O628 C606 1.234 . S
O629 Mn604 2.209 . S
O629 Mn605 2.215 . S
O629 C606 1.283 . S
O630 Mn604 2.094 . S
O630 C608 1.240 . S
O631 Mn605 2.117 . S
O631 C608 1.264 . S
C632 C625 1.403 . S
C632 C633 1.399 . S
C632 H638 0.929 . S
C633 C613 1.449 . S
C633 C632 1.399 . S
C633 H639 0.930 . S
H634 C614 0.931 . S
H635 C615 0.930 . S
H636 C623 0.931 . S
H637 C624 0.929 . S
H638 C632 0.929 . S
H639 C633 0.930 . S
H640 C652 0.930 . S
H641 C654 0.930 . S
H642 C655 0.930 . S
H643 C659 0.959 . S
H644 C659 0.959 . S
H645 C659 0.961 . S
H646 C660 0.960 . S
H647 C660 0.961 . S
H648 C660 0.959 . S
H649 C663 0.929 . S
H650 C664 0.931 . S
H651 C666 0.930 . S
C652 H640 0.930 . S
C652 C653 1.399 . S
C652 C657 1.399 . S
C653 C652 1.399 . S
C653 C654 1.376 . S
C654 H641 0.930 . S
C654 C653 1.376 . S
C654 C655 1.388 . S
C655 H642 0.930 . S
C655 C654 1.388 . S
C655 C656 1.390 . S
C656 C655 1.390 . S
C656 C657 1.394 . S
C656 C662 1.465 . S
C657 C652 1.399 . S
C657 C656 1.394 . S
C657 C658 1.516 . S
C658 C657 1.516 . S
C658 C659 1.502 . S
C658 C660 1.561 . S
C658 C661 1.526 . S
C659 H643 0.959 . S
C659 H644 0.959 . S
C659 H645 0.961 . S
C659 C658 1.502 . S
C660 H646 0.960 . S
C660 H647 0.961 . S
C660 H648 0.959 . S
C660 C658 1.561 . S
C661 C658 1.526 . S
C661 C662 1.396 . S
C661 C666 1.390 . S
C662 C656 1.465 . S
C662 C661 1.396 . S
C662 C663 1.399 . S
C663 H649 0.929 . S
C663 C662 1.399 . S
C663 C664 1.385 . S
C664 H650 0.931 . S
C664 C663 1.385 . S
C664 C665 1.389 . S
C665 C664 1.389 . S
C665 C666 1.387 . S
C666 H651 0.930 . S
C666 C661 1.390 . S
C666 C665 1.387 . S
H667 C679 0.903 1_655 S
H668 C681 0.930 . S
H669 C682 0.930 . S
H670 C686 0.959 . S
H671 C686 0.959 . S
H672 C686 0.961 . S
H673 C687 0.960 1_655 S
H674 C687 0.961 . S
H675 C687 0.959 . S
H676 C690 0.929 . S
H677 C691 0.931 . S
H678 C693 0.930 . S
C679 H667 0.903 1_455 S
C679 C680 1.398 . S
C679 C684 1.429 . S
C680 C679 1.398 . S
C680 C681 1.388 . S
C681 H668 0.930 . S
C681 C680 1.388 . S
C681 C682 1.388 . S
C682 H669 0.930 . S
C682 C681 1.388 . S
C682 C683 1.390 . S
C683 C682 1.390 . S
C683 C684 1.394 . S
C683 C689 1.465 . S
C684 C679 1.429 . S
C684 C683 1.394 . S
C684 C685 1.516 . S
C685 C684 1.516 . S
C685 C686 1.502 . S
C685 C687 1.561 . S
C685 C688 1.526 . S
C686 H670 0.959 . S
C686 H671 0.959 . S
C686 H672 0.961 . S
C686 C685 1.502 . S
C687 H673 0.960 1_455 S
C687 H674 0.961 . S
C687 H675 0.959 . S
C687 C685 1.561 . S
C688 C685 1.526 . S
C688 C689 1.396 . S
C688 C693 1.390 . S
C689 C683 1.465 . S
C689 C688 1.396 . S
C689 C690 1.399 . S
C690 H676 0.929 . S
C690 C689 1.399 . S
C690 C691 1.385 . S
C691 H677 0.931 . S
C691 C690 1.385 . S
C691 C692 1.389 . S
C692 C691 1.389 . S
C692 C693 1.387 . S
C693 H678 0.930 . S
C693 C688 1.390 . S
C693 C692 1.387 . S
H694 C706 0.930 . S
H695 C708 0.930 . S
H696 C709 0.930 . S
H697 C713 0.959 . S
H698 C713 0.959 . S
H699 C713 0.961 . S
H700 C714 0.960 . S
H701 C714 0.961 . S
H702 C714 0.959 . S
H703 C717 0.929 . S
H704 C718 0.931 . S
H705 C720 0.930 . S
C706 H694 0.930 . S
C706 C707 1.399 . S
C706 C711 1.399 . S
C707 C706 1.399 . S
C707 C708 1.376 . S
C708 H695 0.930 . S
C708 C707 1.376 . S
C708 C709 1.388 . S
C709 H696 0.930 . S
C709 C708 1.388 . S
C709 C710 1.390 . S
C710 C709 1.390 . S
C710 C711 1.394 . S
C710 C716 1.465 . S
C711 C706 1.399 . S
C711 C710 1.394 . S
C711 C712 1.516 . S
C712 C711 1.516 . S
C712 C713 1.502 . S
C712 C714 1.561 . S
C712 C715 1.526 . S
C713 H697 0.959 . S
C713 H698 0.959 . S
C713 H699 0.961 . S
C713 C712 1.502 . S
C714 H700 0.960 . S
C714 H701 0.961 . S
C714 H702 0.959 . S
C714 C712 1.561 . S
C715 C712 1.526 . S
C715 C716 1.396 . S
C715 C720 1.390 . S
C716 C710 1.465 . S
C716 C715 1.396 . S
C716 C717 1.399 . S
C717 H703 0.929 . S
C717 C716 1.399 . S
C717 C718 1.385 . S
C718 H704 0.931 . S
C718 C717 1.385 . S
C718 C719 1.389 . S
C719 C718 1.389 . S
C719 C720 1.387 . S
C720 H705 0.930 . S
C720 C715 1.390 . S
C720 C719 1.387 . S
H721 C733 0.930 1_455 S
H722 C735 0.930 . S
H723 C736 0.930 . S
H724 C740 0.959 1_545 S
H725 C740 0.959 . S
H726 C740 0.961 1_455 S
H727 C741 0.960 . S
H728 C741 0.961 . S
H729 C741 0.959 . S
H730 C744 0.929 . S
H731 C745 0.931 . S
H732 C747 0.930 . S
C733 H721 0.930 1_655 S
C733 C734 1.398 1_655 S
C733 C738 1.399 . S
C734 C733 1.398 1_455 S
C734 C735 1.364 1_465 S
C735 H722 0.930 . S
C735 C734 1.364 1_645 S
C735 C736 1.388 . S
C736 H723 0.930 . S
C736 C735 1.388 . S
C736 C737 1.390 . S
C737 C736 1.390 . S
C737 C738 1.394 1_545 S
C737 C743 1.465 . S
C738 C733 1.399 . S
C738 C737 1.394 1_565 S
C738 C739 1.516 . S
C739 C738 1.516 . S
C739 C740 1.502 . S
C739 C741 1.561 . S
C739 C742 1.526 . S
C740 H724 0.959 1_565 S
C740 H725 0.959 . S
C740 H726 0.961 1_655 S
C740 C739 1.502 . S
C741 H727 0.960 . S
C741 H728 0.961 . S
C741 H729 0.959 . S
C741 C739 1.561 . S
C742 C739 1.526 . S
C742 C743 1.396 1_565 S
C742 C747 1.390 . S
C743 C737 1.465 . S
C743 C742 1.396 1_545 S
C743 C744 1.399 . S
C744 H730 0.929 . S
C744 C743 1.399 . S
C744 C745 1.385 . S
C745 H731 0.931 . S
C745 C744 1.385 . S
C745 C746 1.389 . S
C746 C745 1.389 . S
C746 C747 1.387 1_545 S
C747 H732 0.930 . S
C747 C742 1.390 . S
C747 C746 1.387 1_565 S
H748 C760 0.930 . S
H749 C762 0.930 . S
H750 C763 0.930 . S
H751 C767 0.959 . S
H752 C767 0.959 . S
H753 C767 0.961 . S
H754 C768 0.960 . S
H755 C768 0.961 . S
H756 C768 0.959 . S
H757 C771 0.929 . S
H758 C772 0.931 . S
H759 C774 0.930 . S
C760 H748 0.930 . S
C760 C761 1.399 . S
C760 C765 1.399 . S
C761 C760 1.399 . S
C761 C762 1.376 . S
C762 H749 0.930 . S
C762 C761 1.376 . S
C762 C763 1.388 . S
C763 H750 0.930 . S
C763 C762 1.388 . S
C763 C764 1.390 . S
C764 C763 1.390 . S
C764 C765 1.394 . S
C764 C770 1.465 . S
C765 C760 1.399 . S
C765 C764 1.394 . S
C765 C766 1.516 . S
C766 C765 1.516 . S
C766 C767 1.502 . S
C766 C768 1.561 . S
C766 C769 1.526 . S
C767 H751 0.959 . S
C767 H752 0.959 . S
C767 H753 0.961 . S
C767 C766 1.502 . S
C768 H754 0.960 . S
C768 H755 0.961 . S
C768 H756 0.959 . S
C768 C766 1.561 . S
C769 C766 1.526 . S
C769 C770 1.396 . S
C769 C774 1.390 . S
C770 C764 1.465 . S
C770 C769 1.396 . S
C770 C771 1.399 . S
C771 H757 0.929 . S
C771 C770 1.399 . S
C771 C772 1.385 . S
C772 H758 0.931 . S
C772 C771 1.385 . S
C772 C773 1.389 . S
C773 C772 1.389 . S
C773 C774 1.387 . S
C774 H759 0.930 . S
C774 C769 1.390 . S
C774 C773 1.387 . S
H775 C787 0.930 . S
H776 C789 0.930 . S
H777 C790 0.930 . S
H778 C794 0.959 . S
H779 C794 0.959 . S
H780 C794 0.961 . S
H781 C795 0.960 . S
H782 C795 0.961 . S
H783 C795 0.959 . S
H784 C798 0.929 . S
H785 C799 0.931 . S
H786 C801 0.930 . S
C787 H775 0.930 . S
C787 C788 1.399 . S
C787 C792 1.399 . S
C788 C787 1.399 . S
C788 C789 1.376 . S
C789 H776 0.930 . S
C789 C788 1.376 . S
C789 C790 1.388 . S
C790 H777 0.930 . S
C790 C789 1.388 . S
C790 C791 1.390 . S
C791 C790 1.390 . S
C791 C792 1.394 . S
C791 C797 1.465 . S
C792 C787 1.399 . S
C792 C791 1.394 . S
C792 C793 1.516 . S
C793 C792 1.516 . S
C793 C794 1.502 . S
C793 C795 1.561 . S
C793 C796 1.526 . S
C794 H778 0.959 . S
C794 H779 0.959 . S
C794 H780 0.961 . S
C794 C793 1.502 . S
C795 H781 0.960 . S
C795 H782 0.961 . S
C795 H783 0.959 . S
C795 C793 1.561 . S
C796 C793 1.526 . S
C796 C797 1.396 . S
C796 C801 1.390 . S
C797 C791 1.465 . S
C797 C796 1.396 . S
C797 C798 1.399 . S
C798 H784 0.929 . S
C798 C797 1.399 . S
C798 C799 1.385 . S
C799 H785 0.931 . S
C799 C798 1.385 . S
C799 C800 1.389 . S
C800 C799 1.389 . S
C800 C801 1.387 . S
C801 H786 0.930 . S
C801 C796 1.390 . S
C801 C800 1.387 . S
H802 C814 0.930 . S
H803 C816 0.930 . S
H804 C817 0.930 . S
H805 C821 0.959 . S
H806 C821 0.959 . S
H807 C821 0.961 . S
H808 C822 0.960 . S
H809 C822 0.961 . S
H810 C822 0.959 . S
H811 C825 0.929 . S
H812 C826 0.931 . S
H813 C828 0.930 . S
C814 H802 0.930 . S
C814 C815 1.399 . S
C814 C819 1.399 . S
C815 C814 1.399 . S
C815 C816 1.376 . S
C816 H803 0.930 . S
C816 C815 1.376 . S
C816 C817 1.388 . S
C817 H804 0.930 . S
C817 C816 1.388 . S
C817 C818 1.390 . S
C818 C817 1.390 . S
C818 C819 1.394 . S
C818 C824 1.465 . S
C819 C814 1.399 . S
C819 C818 1.394 . S
C819 C820 1.516 . S
C820 C819 1.516 . S
C820 C821 1.502 . S
C820 C822 1.561 . S
C820 C823 1.526 . S
C821 H805 0.959 . S
C821 H806 0.959 . S
C821 H807 0.961 . S
C821 C820 1.502 . S
C822 H808 0.960 . S
C822 H809 0.961 . S
C822 H810 0.959 . S
C822 C820 1.561 . S
C823 C820 1.526 . S
C823 C824 1.396 . S
C823 C828 1.390 . S
C824 C818 1.465 . S
C824 C823 1.396 . S
C824 C825 1.399 . S
C825 H811 0.929 . S
C825 C824 1.399 . S
C825 C826 1.385 . S
C826 H812 0.931 . S
C826 C825 1.385 . S
C826 C827 1.389 . S
C827 C826 1.389 . S
C827 C828 1.387 . S
C828 H813 0.930 . S
C828 C823 1.390 . S
C828 C827 1.387 . S
H829 C841 0.930 1_545 S
H830 C843 0.930 . S
H831 C844 0.930 . S
H832 C848 0.959 . S
H833 C848 0.959 . S
H834 C848 0.961 . S
H835 C849 0.960 . S
H836 C849 0.961 . S
H837 C849 0.959 . S
H838 C852 0.929 . S
H839 C853 0.931 . S
H840 C855 0.930 . S
C841 H829 0.930 1_565 S
C841 C842 1.399 . S
C841 C846 1.397 . S
C842 C841 1.399 . S
C842 C843 1.376 . S
C843 H830 0.930 . S
C843 C842 1.376 . S
C843 C844 1.388 . S
C844 H831 0.930 . S
C844 C843 1.388 . S
C844 C845 1.390 . S
C845 C844 1.390 . S
C845 C846 1.410 . S
C845 C851 1.465 . S
C846 C841 1.397 . S
C846 C845 1.410 . S
C846 C847 1.504 1_565 S
C847 C846 1.504 1_545 S
C847 C848 1.502 . S
C847 C849 1.561 . S
C847 C850 1.526 . S
C848 H832 0.959 . S
C848 H833 0.959 . S
C848 H834 0.961 . S
C848 C847 1.502 . S
C849 H835 0.960 . S
C849 H836 0.961 . S
C849 H837 0.959 . S
C849 C847 1.561 . S
C850 C847 1.526 . S
C850 C851 1.396 1_545 S
C850 C855 1.390 . S
C851 C845 1.465 . S
C851 C850 1.396 1_565 S
C851 C852 1.399 . S
C852 H838 0.929 . S
C852 C851 1.399 . S
C852 C853 1.385 . S
C853 H839 0.931 . S
C853 C852 1.385 . S
C853 C854 1.389 1_565 S
C854 C853 1.389 1_545 S
C854 C855 1.387 . S
C855 H840 0.930 . S
C855 C850 1.390 . S
C855 C854 1.387 . S
H856 C868 0.930 . S
H857 C870 0.930 . S
H858 C871 0.930 . S
H859 C875 0.959 . S
H860 C875 0.959 . S
H861 C875 0.961 . S
H862 C876 0.960 . S
H863 C876 0.961 . S
H864 C876 0.959 . S
H865 C879 0.929 . S
H866 C880 0.931 . S
H867 C882 0.930 . S
C868 H856 0.930 . S
C868 C869 1.399 . S
C868 C873 1.399 . S
C869 C868 1.399 . S
C869 C870 1.376 . S
C870 H857 0.930 . S
C870 C869 1.376 . S
C870 C871 1.388 . S
C871 H858 0.930 . S
C871 C870 1.388 . S
C871 C872 1.390 . S
C872 C871 1.390 . S
C872 C873 1.394 . S
C872 C878 1.465 . S
C873 C868 1.399 . S
C873 C872 1.394 . S
C873 C874 1.516 . S
C874 C873 1.516 . S
C874 C875 1.502 . S
C874 C876 1.561 . S
C874 C877 1.526 . S
C875 H859 0.959 . S
C875 H860 0.959 . S
C875 H861 0.961 . S
C875 C874 1.502 . S
C876 H862 0.960 . S
C876 H863 0.961 . S
C876 H864 0.959 . S
C876 C874 1.561 . S
C877 C874 1.526 . S
C877 C878 1.396 . S
C877 C882 1.390 . S
C878 C872 1.465 . S
C878 C877 1.396 . S
C878 C879 1.399 . S
C879 H865 0.929 . S
C879 C878 1.399 . S
C879 C880 1.385 . S
C880 H866 0.931 . S
C880 C879 1.385 . S
C880 C881 1.389 . S
C881 C880 1.389 . S
C881 C882 1.387 . S
C882 H867 0.930 . S
C882 C877 1.390 . S
C882 C881 1.387 . S
H883 C895 0.930 . S
H884 C897 0.930 . S
H885 C898 0.930 . S
H886 C902 0.959 . S
H887 C902 0.959 . S
H888 C902 0.961 . S
H889 C903 0.960 . S
H890 C903 0.961 . S
H891 C903 0.959 . S
H892 C906 0.929 . S
H893 C907 0.931 . S
H894 C909 0.930 . S
C895 H883 0.930 . S
C895 C896 1.399 . S
C895 C900 1.399 . S
C896 C895 1.399 . S
C896 C897 1.376 . S
C897 H884 0.930 . S
C897 C896 1.376 . S
C897 C898 1.388 . S
C898 H885 0.930 . S
C898 C897 1.388 . S
C898 C899 1.390 . S
C899 C898 1.390 . S
C899 C900 1.394 . S
C899 C905 1.465 . S
C900 C895 1.399 . S
C900 C899 1.394 . S
C900 C901 1.516 . S
C901 C900 1.516 . S
C901 C902 1.502 . S
C901 C903 1.561 . S
C901 C904 1.526 . S
C902 H886 0.959 . S
C902 H887 0.959 . S
C902 H888 0.961 . S
C902 C901 1.502 . S
C903 H889 0.960 . S
C903 H890 0.961 . S
C903 H891 0.959 . S
C903 C901 1.561 . S
C904 C901 1.526 . S
C904 C905 1.396 . S
C904 C909 1.390 . S
C905 C899 1.465 . S
C905 C904 1.396 . S
C905 C906 1.399 . S
C906 H892 0.929 . S
C906 C905 1.399 . S
C906 C907 1.385 . S
C907 H893 0.931 . S
C907 C906 1.385 . S
C907 C908 1.389 . S
C908 C907 1.389 . S
C908 C909 1.387 . S
C909 H894 0.930 . S
C909 C904 1.390 . S
C909 C908 1.387 . S
H910 C922 0.930 . S
H911 C924 0.930 . S
H912 C925 0.930 . S
H913 C929 0.959 . S
H914 C929 0.959 . S
H915 C929 0.961 . S
H916 C930 0.960 . S
H917 C930 0.961 . S
H918 C930 0.959 . S
H919 C933 0.929 . S
H920 C934 0.931 . S
H921 C936 0.930 . S
C922 H910 0.930 . S
C922 C923 1.399 . S
C922 C927 1.399 . S
C923 C922 1.399 . S
C923 C924 1.376 . S
C924 H911 0.930 . S
C924 C923 1.376 . S
C924 C925 1.388 . S
C925 H912 0.930 . S
C925 C924 1.388 . S
C925 C926 1.390 . S
C926 C925 1.390 . S
C926 C927 1.394 . S
C926 C932 1.465 . S
C927 C922 1.399 . S
C927 C926 1.394 . S
C927 C928 1.516 . S
C928 C927 1.516 . S
C928 C929 1.502 . S
C928 C930 1.561 . S
C928 C931 1.526 . S
C929 H913 0.959 . S
C929 H914 0.959 . S
C929 H915 0.961 . S
C929 C928 1.502 . S
C930 H916 0.960 . S
C930 H917 0.961 . S
C930 H918 0.959 . S
C930 C928 1.561 . S
C931 C928 1.526 . S
C931 C932 1.396 . S
C931 C936 1.390 . S
C932 C926 1.465 . S
C932 C931 1.396 . S
C932 C933 1.399 . S
C933 H919 0.929 . S
C933 C932 1.399 . S
C933 C934 1.385 . S
C934 H920 0.931 . S
C934 C933 1.385 . S
C934 C935 1.389 . S
C935 C934 1.389 . S
C935 C936 1.387 . S
C936 H921 0.930 . S
C936 C931 1.390 . S
C936 C935 1.387 . S
H937 C949 0.930 . S
H938 C951 0.930 . S
H939 C952 0.930 . S
H940 C956 0.959 . S
H941 C956 0.959 . S
H942 C956 0.961 . S
H943 C957 0.960 . S
H944 C957 0.961 . S
H945 C957 0.959 . S
H946 C960 0.929 . S
H947 C961 0.931 . S
H948 C963 0.930 . S
C949 H937 0.930 . S
C949 C950 1.399 . S
C949 C954 1.399 . S
C950 C949 1.399 . S
C950 C951 1.376 . S
C951 H938 0.930 . S
C951 C950 1.376 . S
C951 C952 1.388 . S
C952 H939 0.930 . S
C952 C951 1.388 . S
C952 C953 1.390 . S
C953 C952 1.390 . S
C953 C954 1.394 . S
C953 C959 1.465 . S
C954 C949 1.399 . S
C954 C953 1.394 . S
C954 C955 1.516 . S
C955 C954 1.516 . S
C955 C956 1.502 . S
C955 C957 1.561 . S
C955 C958 1.526 . S
C956 H940 0.959 . S
C956 H941 0.959 . S
C956 H942 0.961 . S
C956 C955 1.502 . S
C957 H943 0.960 . S
C957 H944 0.961 . S
C957 H945 0.959 . S
C957 C955 1.561 . S
C958 C955 1.526 . S
C958 C959 1.396 . S
C958 C963 1.390 . S
C959 C953 1.465 . S
C959 C958 1.396 . S
C959 C960 1.399 . S
C960 H946 0.929 . S
C960 C959 1.399 . S
C960 C961 1.385 . S
C961 H947 0.931 . S
C961 C960 1.385 . S
C961 C962 1.389 . S
C962 C961 1.389 . S
C962 C963 1.387 . S
C963 H948 0.930 . S
C963 C958 1.390 . S
C963 C962 1.387 . S
H964 C976 0.930 . S
H965 C978 0.930 . S
H966 C979 0.930 . S
H967 C983 0.959 . S
H968 C983 0.959 . S
H969 C983 0.961 . S
H970 C984 0.960 . S
H971 C984 0.961 . S
H972 C984 0.959 . S
H973 C987 0.929 . S
H974 C988 0.931 . S
H975 C990 0.930 . S
C976 H964 0.930 . S
C976 C977 1.399 . S
C976 C981 1.399 . S
C977 C976 1.399 . S
C977 C978 1.376 . S
C978 H965 0.930 . S
C978 C977 1.376 . S
C978 C979 1.388 . S
C979 H966 0.930 . S
C979 C978 1.388 . S
C979 C980 1.390 . S
C980 C979 1.390 . S
C980 C981 1.394 . S
C980 C986 1.465 . S
C981 C976 1.399 . S
C981 C980 1.394 . S
C981 C982 1.516 . S
C982 C981 1.516 . S
C982 C983 1.502 . S
C982 C984 1.561 . S
C982 C985 1.526 . S
C983 H967 0.959 . S
C983 H968 0.959 . S
C983 H969 0.961 . S
C983 C982 1.502 . S
C984 H970 0.960 . S
C984 H971 0.961 . S
C984 H972 0.959 . S
C984 C982 1.561 . S
C985 C982 1.526 . S
C985 C986 1.396 . S
C985 C990 1.390 . S
C986 C980 1.465 . S
C986 C985 1.396 . S
C986 C987 1.399 . S
C987 H973 0.929 . S
C987 C986 1.399 . S
C987 C988 1.385 . S
C988 H974 0.931 . S
C988 C987 1.385 . S
C988 C989 1.389 . S
C989 C988 1.389 . S
C989 C990 1.387 . S
C990 H975 0.930 . S
C990 C985 1.390 . S
C990 C989 1.387 . S
H991 C1003 0.930 . S
H992 C1005 0.930 . S
H993 C1006 0.930 . S
H994 C1010 0.959 . S
H995 C1010 0.959 . S
H996 C1010 0.961 . S
H997 C1011 0.960 . S
H998 C1011 0.961 . S
H999 C1011 0.959 . S
H1000 C1014 0.929 . S
H1001 C1015 0.931 . S
H1002 C1017 0.930 . S
C1003 H991 0.930 . S
C1003 C1004 1.399 . S
C1003 C1008 1.399 . S
C1004 C1003 1.399 . S
C1004 C1005 1.376 . S
C1005 H992 0.930 . S
C1005 C1004 1.376 . S
C1005 C1006 1.388 . S
C1006 H993 0.930 . S
C1006 C1005 1.388 . S
C1006 C1007 1.390 . S
C1007 C1006 1.390 . S
C1007 C1008 1.394 . S
C1007 C1013 1.465 . S
C1008 C1003 1.399 . S
C1008 C1007 1.394 . S
C1008 C1009 1.516 . S
C1009 C1008 1.516 . S
C1009 C1010 1.502 . S
C1009 C1011 1.561 . S
C1009 C1012 1.526 . S
C1010 H994 0.959 . S
C1010 H995 0.959 . S
C1010 H996 0.961 . S
C1010 C1009 1.502 . S
C1011 H997 0.960 . S
C1011 H998 0.961 . S
C1011 H999 0.959 . S
C1011 C1009 1.561 . S
C1012 C1009 1.526 . S
C1012 C1013 1.396 . S
C1012 C1017 1.390 . S
C1013 C1007 1.465 . S
C1013 C1012 1.396 . S
C1013 C1014 1.399 . S
C1014 H1000 0.929 . S
C1014 C1013 1.399 . S
C1014 C1015 1.385 . S
C1015 H1001 0.931 . S
C1015 C1014 1.385 . S
C1015 C1016 1.389 . S
C1016 C1015 1.389 . S
C1016 C1017 1.387 . S
C1017 H1002 0.930 . S
C1017 C1012 1.390 . S
C1017 C1016 1.387 . S
H1018 C1030 0.930 . S
H1019 C1032 0.930 . S
H1020 C1033 0.930 . S
H1021 C1037 0.959 . S
H1022 C1037 0.959 . S
H1023 C1037 0.961 . S
H1024 C1038 0.960 . S
H1025 C1038 0.961 . S
H1026 C1038 0.959 . S
H1027 C1041 0.929 . S
H1028 C1042 0.931 . S
H1029 C1044 0.930 . S
C1030 H1018 0.930 . S
C1030 C1031 1.399 . S
C1030 C1035 1.399 . S
C1031 C1030 1.399 . S
C1031 C1032 1.376 . S
C1032 H1019 0.930 . S
C1032 C1031 1.376 . S
C1032 C1033 1.388 . S
C1033 H1020 0.930 . S
C1033 C1032 1.388 . S
C1033 C1034 1.390 . S
C1034 C1033 1.390 . S
C1034 C1035 1.394 . S
C1034 C1040 1.465 . S
C1035 C1030 1.399 . S
C1035 C1034 1.394 . S
C1035 C1036 1.516 . S
C1036 C1035 1.516 . S
C1036 C1037 1.502 . S
C1036 C1038 1.561 . S
C1036 C1039 1.526 . S
C1037 H1021 0.959 . S
C1037 H1022 0.959 . S
C1037 H1023 0.961 . S
C1037 C1036 1.502 . S
C1038 H1024 0.960 . S
C1038 H1025 0.961 . S
C1038 H1026 0.959 . S
C1038 C1036 1.561 . S
C1039 C1036 1.526 . S
C1039 C1040 1.396 . S
C1039 C1044 1.390 . S
C1040 C1034 1.465 . S
C1040 C1039 1.396 . S
C1040 C1041 1.399 . S
C1041 H1027 0.929 . S
C1041 C1040 1.399 . S
C1041 C1042 1.385 . S
C1042 H1028 0.931 . S
C1042 C1041 1.385 . S
C1042 C1043 1.389 . S
C1043 C1042 1.389 . S
C1043 C1044 1.387 . S
C1044 H1029 0.930 . S
C1044 C1039 1.390 . S
C1044 C1043 1.387 . S
H1045 C1057 0.930 . S
H1046 C1059 0.930 . S
H1047 C1060 0.930 . S
H1048 C1064 0.959 . S
H1049 C1064 0.959 . S
H1050 C1064 0.961 . S
H1051 C1065 0.960 . S
H1052 C1065 0.961 . S
H1053 C1065 0.959 . S
H1054 C1068 0.929 . S
H1055 C1069 0.931 . S
H1056 C1071 0.930 . S
C1057 H1045 0.930 . S
C1057 C1058 1.399 . S
C1057 C1062 1.399 . S
C1058 C1057 1.399 . S
C1058 C1059 1.376 1_655 S
C1059 H1046 0.930 . S
C1059 C1058 1.376 1_455 S
C1059 C1060 1.388 . S
C1060 H1047 0.930 . S
C1060 C1059 1.388 . S
C1060 C1061 1.390 . S
C1061 C1060 1.390 . S
C1061 C1062 1.394 1_455 S
C1061 C1067 1.465 . S
C1062 C1057 1.399 . S
C1062 C1061 1.394 1_655 S
C1062 C1063 1.516 . S
C1063 C1062 1.516 . S
C1063 C1064 1.502 . S
C1063 C1065 1.561 . S
C1063 C1066 1.526 . S
C1064 H1048 0.959 . S
C1064 H1049 0.959 . S
C1064 H1050 0.961 . S
C1064 C1063 1.502 . S
C1065 H1051 0.960 . S
C1065 H1052 0.961 . S
C1065 H1053 0.959 . S
C1065 C1063 1.561 . S
C1066 C1063 1.526 . S
C1066 C1067 1.396 1_655 S
C1066 C1071 1.390 . S
C1067 C1061 1.465 . S
C1067 C1066 1.396 1_455 S
C1067 C1068 1.399 . S
C1068 H1054 0.929 . S
C1068 C1067 1.399 . S
C1068 C1069 1.385 . S
C1069 H1055 0.931 . S
C1069 C1068 1.385 . S
C1069 C1070 1.389 . S
C1070 C1069 1.389 . S
C1070 C1071 1.387 1_455 S
C1071 H1056 0.930 . S
C1071 C1066 1.390 . S
C1071 C1070 1.387 1_655 S
H1072 C1084 0.930 . S
H1073 C1086 0.930 . S
H1074 C1087 0.930 . S
H1075 C1091 0.959 . S
H1076 C1091 0.959 . S
H1077 C1091 0.961 . S
H1078 C1092 0.960 . S
H1079 C1092 0.961 . S
H1080 C1092 0.959 . S
H1081 C1095 0.929 . S
H1082 C1096 0.931 . S
H1083 C1098 0.930 . S
C1084 H1072 0.930 . S
C1084 C1085 1.399 . S
C1084 C1089 1.399 . S
C1085 C1084 1.399 . S
C1085 C1086 1.376 . S
C1086 H1073 0.930 . S
C1086 C1085 1.376 . S
C1086 C1087 1.388 . S
C1087 H1074 0.930 . S
C1087 C1086 1.388 . S
C1087 C1088 1.390 . S
C1088 C1087 1.390 . S
C1088 C1089 1.394 . S
C1088 C1094 1.465 . S
C1089 C1084 1.399 . S
C1089 C1088 1.394 . S
C1089 C1090 1.516 . S
C1090 C1089 1.516 . S
C1090 C1091 1.502 . S
C1090 C1092 1.561 . S
C1090 C1093 1.526 . S
C1091 H1075 0.959 . S
C1091 H1076 0.959 . S
C1091 H1077 0.961 . S
C1091 C1090 1.502 . S
C1092 H1078 0.960 . S
C1092 H1079 0.961 . S
C1092 H1080 0.959 . S
C1092 C1090 1.561 . S
C1093 C1090 1.526 . S
C1093 C1094 1.396 . S
C1093 C1098 1.390 . S
C1094 C1088 1.465 . S
C1094 C1093 1.396 . S
C1094 C1095 1.399 . S
C1095 H1081 0.929 . S
C1095 C1094 1.399 . S
C1095 C1096 1.385 . S
C1096 H1082 0.931 . S
C1096 C1095 1.385 . S
C1096 C1097 1.389 . S
C1097 C1096 1.389 . S
C1097 C1098 1.387 . S
C1098 H1083 0.930 . S
C1098 C1093 1.390 . S
C1098 C1097 1.387 . S
H1099 C1111 0.930 . S
H1100 C1113 0.930 . S
H1101 C1114 0.930 . S
H1102 C1118 0.959 . S
H1103 C1118 0.959 . S
H1104 C1118 0.961 . S
H1105 C1119 0.960 . S
H1106 C1119 0.961 . S
H1107 C1119 0.959 . S
H1108 C1122 0.929 . S
H1109 C1123 0.931 . S
H1110 C1125 0.930 . S
C1111 H1099 0.930 . S
C1111 C1112 1.399 . S
C1111 C1116 1.399 . S
C1112 C1111 1.399 . S
C1112 C1113 1.376 . S
C1113 H1100 0.930 . S
C1113 C1112 1.376 . S
C1113 C1114 1.388 . S
C1114 H1101 0.930 . S
C1114 C1113 1.388 . S
C1114 C1115 1.390 . S
C1115 C1114 1.390 . S
C1115 C1116 1.394 . S
C1115 C1121 1.465 . S
C1116 C1111 1.399 . S
C1116 C1115 1.394 . S
C1116 C1117 1.516 . S
C1117 C1116 1.516 . S
C1117 C1118 1.502 . S
C1117 C1119 1.561 . S
C1117 C1120 1.526 . S
C1118 H1102 0.959 . S
C1118 H1103 0.959 . S
C1118 H1104 0.961 . S
C1118 C1117 1.502 . S
C1119 H1105 0.960 . S
C1119 H1106 0.961 . S
C1119 H1107 0.959 . S
C1119 C1117 1.561 . S
C1120 C1117 1.526 . S
C1120 C1121 1.396 . S
C1120 C1125 1.390 . S
C1121 C1115 1.465 . S
C1121 C1120 1.396 . S
C1121 C1122 1.399 . S
C1122 H1108 0.929 . S
C1122 C1121 1.399 . S
C1122 C1123 1.385 . S
C1123 H1109 0.931 . S
C1123 C1122 1.385 . S
C1123 C1124 1.389 . S
C1124 C1123 1.389 . S
C1124 C1125 1.387 . S
C1125 H1110 0.930 . S
C1125 C1120 1.390 . S
C1125 C1124 1.387 . S
H1126 C1138 0.930 . S
H1127 C1140 0.930 . S
H1128 C1141 0.930 . S
H1129 C1145 0.959 . S
H1130 C1145 0.959 . S
H1131 C1145 0.961 . S
H1132 C1146 0.960 . S
H1133 C1146 0.961 . S
H1134 C1146 0.959 . S
H1135 C1149 0.929 . S
H1136 C1150 0.931 . S
H1137 C1152 0.930 . S
C1138 H1126 0.930 . S
C1138 C1139 1.399 1_565 S
C1138 C1143 1.399 . S
C1139 C1138 1.399 1_545 S
C1139 C1140 1.376 1_556 S
C1140 H1127 0.930 . S
C1140 C1139 1.376 1_554 S
C1140 C1141 1.388 . S
C1141 H1128 0.930 . S
C1141 C1140 1.388 . S
C1141 C1142 1.390 1_545 S
C1142 C1141 1.390 1_565 S
C1142 C1143 1.394 1_554 S
C1142 C1148 1.465 . S
C1143 C1138 1.399 . S
C1143 C1142 1.394 1_556 S
C1143 C1144 1.516 . S
C1144 C1143 1.516 . S
C1144 C1145 1.502 . S
C1144 C1146 1.561 . S
C1144 C1147 1.526 . S
C1145 H1129 0.959 . S
C1145 H1130 0.959 . S
C1145 H1131 0.961 . S
C1145 C1144 1.502 . S
C1146 H1132 0.960 . S
C1146 H1133 0.961 . S
C1146 H1134 0.959 . S
C1146 C1144 1.561 . S
C1147 C1144 1.526 . S
C1147 C1148 1.396 1_556 S
C1147 C1152 1.390 . S
C1148 C1142 1.465 . S
C1148 C1147 1.396 1_554 S
C1148 C1149 1.399 . S
C1149 H1135 0.929 . S
C1149 C1148 1.399 . S
C1149 C1150 1.385 . S
C1150 H1136 0.931 . S
C1150 C1149 1.385 . S
C1150 C1151 1.389 . S
C1151 C1150 1.389 . S
C1151 C1152 1.387 1_554 S
C1152 H1137 0.930 . S
C1152 C1147 1.390 . S
C1152 C1151 1.387 1_556 S
H1153 C1165 0.930 . S
H1154 C1167 0.930 . S
H1155 C1168 0.930 . S
H1156 C1172 0.959 . S
H1157 C1172 0.959 . S
H1158 C1172 0.961 . S
H1159 C1173 0.960 . S
H1160 C1173 0.961 . S
H1161 C1173 0.959 . S
H1162 C1176 0.929 . S
H1163 C1177 0.931 . S
H1164 C1179 0.930 . S
C1165 H1153 0.930 . S
C1165 C1166 1.399 . S
C1165 C1170 1.399 . S
C1166 C1165 1.399 . S
C1166 C1167 1.376 . S
C1167 H1154 0.930 . S
C1167 C1166 1.376 . S
C1167 C1168 1.388 . S
C1168 H1155 0.930 . S
C1168 C1167 1.388 . S
C1168 C1169 1.390 . S
C1169 C1168 1.390 . S
C1169 C1170 1.394 . S
C1169 C1175 1.465 . S
C1170 C1165 1.399 . S
C1170 C1169 1.394 . S
C1170 C1171 1.516 . S
C1171 C1170 1.516 . S
C1171 C1172 1.502 . S
C1171 C1173 1.561 . S
C1171 C1174 1.526 . S
C1172 H1156 0.959 . S
C1172 H1157 0.959 . S
C1172 H1158 0.961 . S
C1172 C1171 1.502 . S
C1173 H1159 0.960 . S
C1173 H1160 0.961 . S
C1173 H1161 0.959 . S
C1173 C1171 1.561 . S
C1174 C1171 1.526 . S
C1174 C1175 1.396 . S
C1174 C1179 1.390 . S
C1175 C1169 1.465 . S
C1175 C1174 1.396 . S
C1175 C1176 1.399 . S
C1176 H1162 0.929 . S
C1176 C1175 1.399 . S
C1176 C1177 1.385 . S
C1177 H1163 0.931 . S
C1177 C1176 1.385 . S
C1177 C1178 1.389 . S
C1178 C1177 1.389 . S
C1178 C1179 1.387 . S
C1179 H1164 0.930 . S
C1179 C1174 1.390 . S
C1179 C1178 1.387 . S
H1180 C1192 0.930 . S
H1181 C1194 0.930 . S
H1182 C1195 0.930 . S
H1183 C1199 0.959 . S
H1184 C1199 0.959 . S
H1185 C1199 0.961 . S
H1186 C1200 0.960 . S
H1187 C1200 0.961 . S
H1188 C1200 0.959 . S
H1189 C1203 0.929 . S
H1190 C1204 0.931 . S
H1191 C1206 0.930 . S
C1192 H1180 0.930 . S
C1192 C1193 1.399 . S
C1192 C1197 1.399 . S
C1193 C1192 1.399 . S
C1193 C1194 1.376 . S
C1194 H1181 0.930 . S
C1194 C1193 1.376 . S
C1194 C1195 1.388 . S
C1195 H1182 0.930 . S
C1195 C1194 1.388 . S
C1195 C1196 1.390 . S
C1196 C1195 1.390 . S
C1196 C1197 1.394 . S
C1196 C1202 1.465 . S
C1197 C1192 1.399 . S
C1197 C1196 1.394 . S
C1197 C1198 1.516 . S
C1198 C1197 1.516 . S
C1198 C1199 1.502 . S
C1198 C1200 1.561 . S
C1198 C1201 1.526 . S
C1199 H1183 0.959 . S
C1199 H1184 0.959 . S
C1199 H1185 0.961 . S
C1199 C1198 1.502 . S
C1200 H1186 0.960 . S
C1200 H1187 0.961 . S
C1200 H1188 0.959 . S
C1200 C1198 1.561 . S
C1201 C1198 1.526 . S
C1201 C1202 1.396 . S
C1201 C1206 1.390 . S
C1202 C1196 1.465 . S
C1202 C1201 1.396 . S
C1202 C1203 1.399 . S
C1203 H1189 0.929 . S
C1203 C1202 1.399 . S
C1203 C1204 1.385 . S
C1204 H1190 0.931 . S
C1204 C1203 1.385 . S
C1204 C1205 1.389 . S
C1205 C1204 1.389 . S
C1205 C1206 1.387 . S
C1206 H1191 0.930 . S
C1206 C1201 1.390 . S
C1206 C1205 1.387 . S
H1207 C1219 0.930 . S
H1208 C1221 0.930 . S
H1209 C1222 0.930 . S
H1210 C1226 0.959 . S
H1211 C1226 0.959 . S
H1212 C1226 0.961 . S
H1213 C1227 0.960 . S
H1214 C1227 0.961 . S
H1215 C1227 0.959 . S
H1216 C1230 0.929 . S
H1217 C1231 0.931 . S
H1218 C1233 0.930 . S
C1219 H1207 0.930 . S
C1219 C1220 1.399 . S
C1219 C1224 1.399 . S
C1220 C1219 1.399 . S
C1220 C1221 1.376 . S
C1221 H1208 0.930 . S
C1221 C1220 1.376 . S
C1221 C1222 1.388 . S
C1222 H1209 0.930 . S
C1222 C1221 1.388 . S
C1222 C1223 1.390 . S
C1223 C1222 1.390 . S
C1223 C1224 1.394 . S
C1223 C1229 1.465 . S
C1224 C1219 1.399 . S
C1224 C1223 1.394 . S
C1224 C1225 1.516 . S
C1225 C1224 1.516 . S
C1225 C1226 1.502 . S
C1225 C1227 1.561 . S
C1225 C1228 1.526 . S
C1226 H1210 0.959 . S
C1226 H1211 0.959 . S
C1226 H1212 0.961 . S
C1226 C1225 1.502 . S
C1227 H1213 0.960 . S
C1227 H1214 0.961 . S
C1227 H1215 0.959 . S
C1227 C1225 1.561 . S
C1228 C1225 1.526 . S
C1228 C1229 1.396 . S
C1228 C1233 1.390 . S
C1229 C1223 1.465 . S
C1229 C1228 1.396 . S
C1229 C1230 1.399 . S
C1230 H1216 0.929 . S
C1230 C1229 1.399 . S
C1230 C1231 1.385 . S
C1231 H1217 0.931 . S
C1231 C1230 1.385 . S
C1231 C1232 1.389 . S
C1232 C1231 1.389 . S
C1232 C1233 1.387 . S
C1233 H1218 0.930 . S
C1233 C1228 1.390 . S
C1233 C1232 1.387 . S
H1234 C1246 0.930 . S
H1235 C1248 0.930 . S
H1236 C1249 0.930 . S
H1237 C1253 0.959 . S
H1238 C1253 0.959 . S
H1239 C1253 0.961 . S
H1240 C1254 0.960 . S
H1241 C1254 0.961 . S
H1242 C1254 0.959 . S
H1243 C1257 0.929 . S
H1244 C1258 0.931 . S
H1245 C1260 0.930 . S
C1246 H1234 0.930 . S
C1246 C1247 1.399 . S
C1246 C1251 1.399 . S
C1247 C1246 1.399 . S
C1247 C1248 1.376 . S
C1248 H1235 0.930 . S
C1248 C1247 1.376 . S
C1248 C1249 1.388 . S
C1249 H1236 0.930 . S
C1249 C1248 1.388 . S
C1249 C1250 1.390 . S
C1250 C1249 1.390 . S
C1250 C1251 1.394 . S
C1250 C1256 1.465 . S
C1251 C1246 1.399 . S
C1251 C1250 1.394 . S
C1251 C1252 1.516 . S
C1252 C1251 1.516 . S
C1252 C1253 1.502 . S
C1252 C1254 1.561 . S
C1252 C1255 1.526 . S
C1253 H1237 0.959 . S
C1253 H1238 0.959 . S
C1253 H1239 0.961 . S
C1253 C1252 1.502 . S
C1254 H1240 0.960 . S
C1254 H1241 0.961 . S
C1254 H1242 0.959 . S
C1254 C1252 1.561 . S
C1255 C1252 1.526 . S
C1255 C1256 1.396 . S
C1255 C1260 1.390 . S
C1256 C1250 1.465 . S
C1256 C1255 1.396 . S
C1256 C1257 1.399 . S
C1257 H1243 0.929 . S
C1257 C1256 1.399 . S
C1257 C1258 1.385 . S
C1258 H1244 0.931 . S
C1258 C1257 1.385 . S
C1258 C1259 1.389 . S
C1259 C1258 1.389 . S
C1259 C1260 1.387 . S
C1260 H1245 0.930 . S
C1260 C1255 1.390 . S
C1260 C1259 1.387 . S
H1261 C1273 0.930 . S
H1262 C1275 0.930 . S
H1263 C1276 0.930 . S
H1264 C1280 0.959 . S
H1265 C1280 0.959 . S
H1266 C1280 0.961 . S
H1267 C1281 0.960 . S
H1268 C1281 0.961 . S
H1269 C1281 0.959 . S
H1270 C1284 0.929 . S
H1271 C1285 0.931 . S
H1272 C1287 0.930 . S
C1273 H1261 0.930 . S
C1273 C1274 1.399 . S
C1273 C1278 1.399 . S
C1274 C1273 1.399 . S
C1274 C1275 1.376 . S
C1275 H1262 0.930 . S
C1275 C1274 1.376 . S
C1275 C1276 1.388 . S
C1276 H1263 0.930 . S
C1276 C1275 1.388 . S
C1276 C1277 1.390 . S
C1277 C1276 1.390 . S
C1277 C1278 1.394 . S
C1277 C1283 1.465 . S
C1278 C1273 1.399 . S
C1278 C1277 1.394 . S
C1278 C1279 1.516 . S
C1279 C1278 1.516 . S
C1279 C1280 1.502 . S
C1279 C1281 1.561 . S
C1279 C1282 1.526 . S
C1280 H1264 0.959 . S
C1280 H1265 0.959 . S
C1280 H1266 0.961 . S
C1280 C1279 1.502 . S
C1281 H1267 0.960 . S
C1281 H1268 0.961 . S
C1281 H1269 0.959 . S
C1281 C1279 1.561 . S
C1282 C1279 1.526 . S
C1282 C1283 1.396 . S
C1282 C1287 1.390 . S
C1283 C1277 1.465 . S
C1283 C1282 1.396 . S
C1283 C1284 1.399 . S
C1284 H1270 0.929 . S
C1284 C1283 1.399 . S
C1284 C1285 1.385 . S
C1285 H1271 0.931 . S
C1285 C1284 1.385 . S
C1285 C1286 1.389 . S
C1286 C1285 1.389 . S
C1286 C1287 1.387 . S
C1287 H1272 0.930 . S
C1287 C1282 1.390 . S
C1287 C1286 1.387 . S
H1288 C1300 0.930 . S
H1289 C1302 0.930 . S
H1290 C1303 0.930 . S
H1291 C1307 0.959 . S
H1292 C1307 0.959 . S
H1293 C1307 0.961 . S
H1294 C1308 0.960 . S
H1295 C1308 0.961 . S
H1296 C1308 0.959 . S
H1297 C1311 0.929 . S
H1298 C1312 0.931 . S
H1299 C1314 0.930 . S
C1300 H1288 0.930 . S
C1300 C1301 1.399 . S
C1300 C1305 1.399 . S
C1301 C1300 1.399 . S
C1301 C1302 1.376 . S
C1302 H1289 0.930 . S
C1302 C1301 1.376 . S
C1302 C1303 1.388 . S
C1303 H1290 0.930 . S
C1303 C1302 1.388 . S
C1303 C1304 1.390 . S
C1304 C1303 1.390 . S
C1304 C1305 1.394 . S
C1304 C1310 1.465 . S
C1305 C1300 1.399 . S
C1305 C1304 1.394 . S
C1305 C1306 1.516 . S
C1306 C1305 1.516 . S
C1306 C1307 1.502 . S
C1306 C1308 1.561 . S
C1306 C1309 1.526 . S
C1307 H1291 0.959 . S
C1307 H1292 0.959 . S
C1307 H1293 0.961 . S
C1307 C1306 1.502 . S
C1308 H1294 0.960 . S
C1308 H1295 0.961 . S
C1308 H1296 0.959 . S
C1308 C1306 1.561 . S
C1309 C1306 1.526 . S
C1309 C1310 1.396 . S
C1309 C1314 1.390 . S
C1310 C1304 1.465 . S
C1310 C1309 1.396 . S
C1310 C1311 1.399 . S
C1311 H1297 0.929 . S
C1311 C1310 1.399 . S
C1311 C1312 1.385 . S
C1312 H1298 0.931 . S
C1312 C1311 1.385 . S
C1312 C1313 1.389 . S
C1313 C1312 1.389 . S
C1313 C1314 1.387 . S
C1314 H1299 0.930 . S
C1314 C1309 1.390 . S
C1314 C1313 1.387 . S
H1315 C1327 0.930 . S
H1316 C1329 0.930 . S
H1317 C1330 0.930 1_565 S
H1318 C1334 0.959 . S
H1319 C1334 0.959 . S
H1320 C1334 0.961 . S
H1321 C1335 0.960 . S
H1322 C1335 0.961 . S
H1323 C1335 0.959 . S
H1324 C1338 0.929 1_565 S
H1325 C1339 0.931 1_565 S
H1326 C1341 0.930 . S
C1327 H1315 0.930 . S
C1327 C1328 1.399 . S
C1327 C1332 1.399 . S
C1328 C1327 1.399 . S
C1328 C1329 1.376 . S
C1329 H1316 0.930 . S
C1329 C1328 1.376 . S
C1329 C1330 1.388 . S
C1330 H1317 0.930 1_545 S
C1330 C1329 1.388 . S
C1330 C1331 1.390 . S
C1331 C1330 1.390 . S
C1331 C1332 1.394 . S
C1331 C1337 1.465 . S
C1332 C1327 1.399 . S
C1332 C1331 1.394 . S
C1332 C1333 1.516 . S
C1333 C1332 1.516 . S
C1333 C1334 1.502 . S
C1333 C1335 1.561 . S
C1333 C1336 1.526 . S
C1334 H1318 0.959 . S
C1334 H1319 0.959 . S
C1334 H1320 0.961 . S
C1334 C1333 1.502 . S
C1335 H1321 0.960 . S
C1335 H1322 0.961 . S
C1335 H1323 0.959 . S
C1335 C1333 1.561 . S
C1336 C1333 1.526 . S
C1336 C1337 1.396 . S
C1336 C1341 1.390 . S
C1337 C1331 1.465 . S
C1337 C1336 1.396 . S
C1337 C1338 1.399 . S
C1338 H1324 0.929 1_545 S
C1338 C1337 1.399 . S
C1338 C1339 1.385 . S
C1339 H1325 0.931 1_545 S
C1339 C1338 1.385 . S
C1339 C1340 1.389 . S
C1340 C1339 1.389 . S
C1340 C1341 1.387 . S
C1341 H1326 0.930 . S
C1341 C1336 1.390 . S
C1341 C1340 1.387 . S
H1342 C1354 0.930 . S
H1343 C1356 0.930 . S
H1344 C1357 0.930 . S
H1345 C1361 0.959 . S
H1346 C1361 0.959 . S
H1347 C1361 0.961 . S
H1348 C1362 0.960 . S
H1349 C1362 0.961 . S
H1350 C1362 0.959 . S
H1351 C1365 0.929 . S
H1352 C1366 0.931 . S
H1353 C1368 0.930 . S
C1354 H1342 0.930 . S
C1354 C1355 1.399 . S
C1354 C1359 1.399 . S
C1355 C1354 1.399 . S
C1355 C1356 1.376 . S
C1356 H1343 0.930 . S
C1356 C1355 1.376 . S
C1356 C1357 1.388 . S
C1357 H1344 0.930 . S
C1357 C1356 1.388 . S
C1357 C1358 1.390 . S
C1358 C1357 1.390 . S
C1358 C1359 1.394 . S
C1358 C1364 1.465 . S
C1359 C1354 1.399 . S
C1359 C1358 1.394 . S
C1359 C1360 1.516 . S
C1360 C1359 1.516 . S
C1360 C1361 1.502 . S
C1360 C1362 1.561 . S
C1360 C1363 1.526 . S
C1361 H1345 0.959 . S
C1361 H1346 0.959 . S
C1361 H1347 0.961 . S
C1361 C1360 1.502 . S
C1362 H1348 0.960 . S
C1362 H1349 0.961 . S
C1362 H1350 0.959 . S
C1362 C1360 1.561 . S
C1363 C1360 1.526 . S
C1363 C1364 1.396 . S
C1363 C1368 1.390 . S
C1364 C1358 1.465 . S
C1364 C1363 1.396 . S
C1364 C1365 1.399 . S
C1365 H1351 0.929 . S
C1365 C1364 1.399 . S
C1365 C1366 1.385 . S
C1366 H1352 0.931 . S
C1366 C1365 1.385 . S
C1366 C1367 1.389 . S
C1367 C1366 1.389 . S
C1367 C1368 1.387 . S
C1368 H1353 0.930 . S
C1368 C1363 1.390 . S
C1368 C1367 1.387 . S
H1369 C1381 0.930 . S
H1370 C1383 0.930 . S
H1371 C1384 0.930 . S
H1372 C1388 0.959 . S
H1373 C1388 0.959 . S
H1374 C1388 0.961 . S
H1375 C1389 0.960 . S
H1376 C1389 0.961 . S
H1377 C1389 0.959 . S
H1378 C1392 0.929 . S
H1379 C1393 0.931 . S
H1380 C1395 0.930 . S
C1381 H1369 0.930 . S
C1381 C1382 1.399 . S
C1381 C1386 1.399 . S
C1382 C1381 1.399 . S
C1382 C1383 1.376 . S
C1383 H1370 0.930 . S
C1383 C1382 1.376 . S
C1383 C1384 1.388 . S
C1384 H1371 0.930 . S
C1384 C1383 1.388 . S
C1384 C1385 1.390 . S
C1385 C1384 1.390 . S
C1385 C1386 1.394 . S
C1385 C1391 1.465 . S
C1386 C1381 1.399 . S
C1386 C1385 1.394 . S
C1386 C1387 1.516 . S
C1387 C1386 1.516 . S
C1387 C1388 1.502 . S
C1387 C1389 1.561 . S
C1387 C1390 1.526 . S
C1388 H1372 0.959 . S
C1388 H1373 0.959 . S
C1388 H1374 0.961 . S
C1388 C1387 1.502 . S
C1389 H1375 0.960 . S
C1389 H1376 0.961 . S
C1389 H1377 0.959 . S
C1389 C1387 1.561 . S
C1390 C1387 1.526 . S
C1390 C1391 1.396 . S
C1390 C1395 1.390 . S
C1391 C1385 1.465 . S
C1391 C1390 1.396 . S
C1391 C1392 1.399 . S
C1392 H1378 0.929 . S
C1392 C1391 1.399 . S
C1392 C1393 1.385 . S
C1393 H1379 0.931 . S
C1393 C1392 1.385 . S
C1393 C1394 1.389 . S
C1394 C1393 1.389 . S
C1394 C1395 1.387 . S
C1395 H1380 0.930 . S
C1395 C1390 1.390 . S
C1395 C1394 1.387 . S
H1396 C1408 0.930 . S
H1397 C1410 0.930 . S
H1398 C1411 0.930 . S
H1399 C1415 0.959 . S
H1400 C1415 0.959 . S
H1401 C1415 0.961 . S
H1402 C1416 0.960 . S
H1403 C1416 0.961 . S
H1404 C1416 0.959 . S
H1405 C1419 0.929 . S
H1406 C1420 0.931 . S
H1407 C1422 0.930 . S
C1408 H1396 0.930 . S
C1408 C1409 1.399 . S
C1408 C1413 1.399 . S
C1409 C1408 1.399 . S
C1409 C1410 1.376 . S
C1410 H1397 0.930 . S
C1410 C1409 1.376 . S
C1410 C1411 1.388 . S
C1411 H1398 0.930 . S
C1411 C1410 1.388 . S
C1411 C1412 1.390 . S
C1412 C1411 1.390 . S
C1412 C1413 1.394 . S
C1412 C1418 1.465 . S
C1413 C1408 1.399 . S
C1413 C1412 1.394 . S
C1413 C1414 1.516 . S
C1414 C1413 1.516 . S
C1414 C1415 1.502 . S
C1414 C1416 1.561 . S
C1414 C1417 1.526 . S
C1415 H1399 0.959 . S
C1415 H1400 0.959 . S
C1415 H1401 0.961 . S
C1415 C1414 1.502 . S
C1416 H1402 0.960 . S
C1416 H1403 0.961 . S
C1416 H1404 0.959 . S
C1416 C1414 1.561 . S
C1417 C1414 1.526 . S
C1417 C1418 1.396 . S
C1417 C1422 1.390 . S
C1418 C1412 1.465 . S
C1418 C1417 1.396 . S
C1418 C1419 1.399 . S
C1419 H1405 0.929 . S
C1419 C1418 1.399 . S
C1419 C1420 1.385 . S
C1420 H1406 0.931 . S
C1420 C1419 1.385 . S
C1420 C1421 1.389 . S
C1421 C1420 1.389 . S
C1421 C1422 1.387 . S
C1422 H1407 0.930 . S
C1422 C1417 1.390 . S
C1422 C1421 1.387 . S
H1423 C1435 0.930 . S
H1424 C1437 0.930 . S
H1425 C1438 0.930 . S
H1426 C1442 0.959 . S
H1427 C1442 0.959 . S
H1428 C1442 0.961 . S
H1429 C1443 0.960 . S
H1430 C1443 0.961 . S
H1431 C1443 0.959 . S
H1432 C1446 0.929 . S
H1433 C1447 0.931 . S
H1434 C1449 0.930 . S
C1435 H1423 0.930 . S
C1435 C1436 1.399 1_565 S
C1435 C1440 1.399 . S
C1436 C1435 1.399 1_545 S
C1436 C1437 1.376 . S
C1437 H1424 0.930 . S
C1437 C1436 1.376 . S
C1437 C1438 1.388 . S
C1438 H1425 0.930 . S
C1438 C1437 1.388 . S
C1438 C1439 1.390 . S
C1439 C1438 1.390 . S
C1439 C1440 1.394 1_545 S
C1439 C1445 1.465 . S
C1440 C1435 1.399 . S
C1440 C1439 1.394 1_565 S
C1440 C1441 1.516 . S
C1441 C1440 1.516 . S
C1441 C1442 1.502 . S
C1441 C1443 1.561 . S
C1441 C1444 1.526 . S
C1442 H1426 0.959 . S
C1442 H1427 0.959 . S
C1442 H1428 0.961 . S
C1442 C1441 1.502 . S
C1443 H1429 0.960 . S
C1443 H1430 0.961 . S
C1443 H1431 0.959 . S
C1443 C1441 1.561 . S
C1444 C1441 1.526 . S
C1444 C1445 1.396 1_565 S
C1444 C1449 1.390 . S
C1445 C1439 1.465 . S
C1445 C1444 1.396 1_545 S
C1445 C1446 1.399 . S
C1446 H1432 0.929 . S
C1446 C1445 1.399 . S
C1446 C1447 1.385 . S
C1447 H1433 0.931 . S
C1447 C1446 1.385 . S
C1447 C1448 1.389 . S
C1448 C1447 1.389 . S
C1448 C1449 1.387 1_545 S
C1449 H1434 0.930 . S
C1449 C1444 1.390 . S
C1449 C1448 1.387 1_565 S
H1450 C1462 0.930 . S
H1451 C1464 0.930 . S
H1452 C1465 0.930 . S
H1453 C1469 0.959 . S
H1454 C1469 0.959 . S
H1455 C1469 0.961 . S
H1456 C1470 0.960 . S
H1457 C1470 0.961 . S
H1458 C1470 0.959 . S
H1459 C1473 0.929 . S
H1460 C1474 0.931 . S
H1461 C1476 0.930 . S
C1462 H1450 0.930 . S
C1462 C1463 1.399 . S
C1462 C1467 1.399 . S
C1463 C1462 1.399 . S
C1463 C1464 1.376 . S
C1464 H1451 0.930 . S
C1464 C1463 1.376 . S
C1464 C1465 1.388 . S
C1465 H1452 0.930 . S
C1465 C1464 1.388 . S
C1465 C1466 1.390 . S
C1466 C1465 1.390 . S
C1466 C1467 1.394 . S
C1466 C1472 1.465 . S
C1467 C1462 1.399 . S
C1467 C1466 1.394 . S
C1467 C1468 1.516 . S
C1468 C1467 1.516 . S
C1468 C1469 1.502 . S
C1468 C1470 1.561 . S
C1468 C1471 1.526 . S
C1469 H1453 0.959 . S
C1469 H1454 0.959 . S
C1469 H1455 0.961 . S
C1469 C1468 1.502 . S
C1470 H1456 0.960 . S
C1470 H1457 0.961 . S
C1470 H1458 0.959 . S
C1470 C1468 1.561 . S
C1471 C1468 1.526 . S
C1471 C1472 1.396 . S
C1471 C1476 1.390 . S
C1472 C1466 1.465 . S
C1472 C1471 1.396 . S
C1472 C1473 1.399 . S
C1473 H1459 0.929 . S
C1473 C1472 1.399 . S
C1473 C1474 1.385 . S
C1474 H1460 0.931 . S
C1474 C1473 1.385 . S
C1474 C1475 1.389 . S
C1475 C1474 1.389 . S
C1475 C1476 1.387 . S
C1476 H1461 0.930 . S
C1476 C1471 1.390 . S
C1476 C1475 1.387 . S
H1477 C1489 0.930 . S
H1478 C1491 0.920 1_655 S
H1479 C1492 0.930 . S
H1480 C1496 0.959 . S
H1481 C1496 0.959 . S
H1482 C1496 0.961 . S
H1483 C1497 0.960 . S
H1484 C1497 0.961 . S
H1485 C1497 0.959 . S
H1486 C1500 0.929 . S
H1487 C1501 0.931 . S
H1488 C1503 0.930 . S
C1489 H1477 0.930 . S
C1489 C1490 1.399 . S
C1489 C1494 1.399 . S
C1490 C1489 1.399 . S
C1490 C1491 1.376 . S
C1491 H1478 0.920 1_455 S
C1491 C1490 1.376 . S
C1491 C1492 1.388 . S
C1492 H1479 0.930 . S
C1492 C1491 1.388 . S
C1492 C1493 1.390 . S
C1493 C1492 1.390 . S
C1493 C1494 1.394 . S
C1493 C1499 1.465 . S
C1494 C1489 1.399 . S
C1494 C1493 1.394 . S
C1494 C1495 1.516 . S
C1495 C1494 1.516 . S
C1495 C1496 1.502 . S
C1495 C1497 1.561 . S
C1495 C1498 1.526 . S
C1496 H1480 0.959 . S
C1496 H1481 0.959 . S
C1496 H1482 0.961 . S
C1496 C1495 1.502 . S
C1497 H1483 0.960 . S
C1497 H1484 0.961 . S
C1497 H1485 0.959 . S
C1497 C1495 1.561 . S
C1498 C1495 1.526 . S
C1498 C1499 1.396 . S
C1498 C1503 1.390 . S
C1499 C1493 1.465 . S
C1499 C1498 1.396 . S
C1499 C1500 1.399 . S
C1500 H1486 0.929 . S
C1500 C1499 1.399 . S
C1500 C1501 1.385 . S
C1501 H1487 0.931 . S
C1501 C1500 1.385 . S
C1501 C1502 1.389 . S
C1502 C1501 1.389 . S
C1502 C1503 1.387 . S
C1503 H1488 0.930 . S
C1503 C1498 1.390 . S
C1503 C1502 1.387 . S
H1504 C1516 0.930 . S
H1505 C1518 0.930 . S
H1506 C1519 0.930 . S
H1507 C1523 0.959 . S
H1508 C1523 0.959 . S
H1509 C1523 0.961 . S
H1510 C1524 0.960 . S
H1511 C1524 0.961 . S
H1512 C1524 0.959 . S
H1513 C1527 0.929 . S
H1514 C1528 0.931 . S
H1515 C1530 0.930 . S
C1516 H1504 0.930 . S
C1516 C1517 1.399 . S
C1516 C1521 1.399 . S
C1517 C1516 1.399 . S
C1517 C1518 1.376 . S
C1518 H1505 0.930 . S
C1518 C1517 1.376 . S
C1518 C1519 1.388 . S
C1519 H1506 0.930 . S
C1519 C1518 1.388 . S
C1519 C1520 1.390 . S
C1520 C1519 1.390 . S
C1520 C1521 1.394 . S
C1520 C1526 1.465 . S
C1521 C1516 1.399 . S
C1521 C1520 1.394 . S
C1521 C1522 1.516 . S
C1522 C1521 1.516 . S
C1522 C1523 1.502 . S
C1522 C1524 1.561 . S
C1522 C1525 1.526 . S
C1523 H1507 0.959 . S
C1523 H1508 0.959 . S
C1523 H1509 0.961 . S
C1523 C1522 1.502 . S
C1524 H1510 0.960 . S
C1524 H1511 0.961 . S
C1524 H1512 0.959 . S
C1524 C1522 1.561 . S
C1525 C1522 1.526 . S
C1525 C1526 1.396 . S
C1525 C1530 1.390 . S
C1526 C1520 1.465 . S
C1526 C1525 1.396 . S
C1526 C1527 1.399 . S
C1527 H1513 0.929 . S
C1527 C1526 1.399 . S
C1527 C1528 1.385 . S
C1528 H1514 0.931 . S
C1528 C1527 1.385 . S
C1528 C1529 1.389 . S
C1529 C1528 1.389 . S
C1529 C1530 1.387 . S
C1530 H1515 0.930 . S
C1530 C1525 1.390 . S
C1530 C1529 1.387 . S
H1531 C1543 0.930 . S
H1532 C1545 0.930 . S
H1533 C1546 0.930 . S
H1534 C1550 0.959 . S
H1535 C1550 0.959 . S
H1536 C1550 0.961 . S
H1537 C1551 0.960 . S
H1538 C1551 0.961 . S
H1539 C1551 0.959 1_455 S
H1540 C1554 0.948 . S
H1541 C1555 0.931 . S
H1542 C1557 0.930 . S
C1543 H1531 0.930 . S
C1543 C1544 1.399 . S
C1543 C1548 1.399 1_554 S
C1544 C1543 1.399 . S
C1544 C1545 1.376 1_655 S
C1545 H1532 0.930 . S
C1545 C1544 1.376 1_455 S
C1545 C1546 1.388 . S
C1546 H1533 0.930 . S
C1546 C1545 1.388 . S
C1546 C1547 1.390 . S
C1547 C1546 1.390 . S
C1547 C1548 1.394 1_454 S
C1547 C1553 1.465 1_554 S
C1548 C1543 1.399 1_556 S
C1548 C1547 1.394 1_656 S
C1548 C1549 1.516 . S
C1549 C1548 1.516 . S
C1549 C1550 1.502 . S
C1549 C1551 1.561 . S
C1549 C1552 1.526 . S
C1550 H1534 0.959 . S
C1550 H1535 0.959 . S
C1550 H1536 0.961 . S
C1550 C1549 1.502 . S
C1551 H1537 0.960 . S
C1551 H1538 0.961 . S
C1551 H1539 0.959 1_655 S
C1551 C1549 1.561 . S
C1552 C1549 1.526 . S
C1552 C1553 1.396 1_655 S
C1552 C1557 1.390 . S
C1553 C1547 1.465 1_556 S
C1553 C1552 1.396 1_455 S
C1553 C1554 1.392 1_556 S
C1554 H1540 0.948 . S
C1554 C1553 1.392 1_554 S
C1554 C1555 1.373 1_554 S
C1555 H1541 0.931 . S
C1555 C1554 1.373 1_556 S
C1555 C1556 1.389 . S
C1556 C1555 1.389 . S
C1556 C1557 1.387 1_455 S
C1557 H1542 0.930 . S
C1557 C1552 1.390 . S
C1557 C1556 1.387 1_655 S
H1558 C1570 0.930 . S
H1559 C1572 0.930 . S
H1560 C1573 0.930 . S
H1561 C1577 0.959 . S
H1562 C1577 0.959 . S
H1563 C1577 0.961 . S
H1564 C1578 0.960 . S
H1565 C1578 0.961 . S
H1566 C1578 0.959 . S
H1567 C1581 0.929 . S
H1568 C1582 0.931 . S
H1569 C1584 0.930 . S
C1570 H1558 0.930 . S
C1570 C1571 1.399 . S
C1570 C1575 1.399 . S
C1571 C1570 1.399 . S
C1571 C1572 1.376 . S
C1572 H1559 0.930 . S
C1572 C1571 1.376 . S
C1572 C1573 1.388 . S
C1573 H1560 0.930 . S
C1573 C1572 1.388 . S
C1573 C1574 1.390 . S
C1574 C1573 1.390 . S
C1574 C1575 1.394 . S
C1574 C1580 1.465 . S
C1575 C1570 1.399 . S
C1575 C1574 1.394 . S
C1575 C1576 1.516 . S
C1576 C1575 1.516 . S
C1576 C1577 1.502 . S
C1576 C1578 1.561 . S
C1576 C1579 1.526 . S
C1577 H1561 0.959 . S
C1577 H1562 0.959 . S
C1577 H1563 0.961 . S
C1577 C1576 1.502 . S
C1578 H1564 0.960 . S
C1578 H1565 0.961 . S
C1578 H1566 0.959 . S
C1578 C1576 1.561 . S
C1579 C1576 1.526 . S
C1579 C1580 1.396 . S
C1579 C1584 1.390 . S
C1580 C1574 1.465 . S
C1580 C1579 1.396 . S
C1580 C1581 1.399 . S
C1581 H1567 0.929 . S
C1581 C1580 1.399 . S
C1581 C1582 1.385 . S
C1582 H1568 0.931 . S
C1582 C1581 1.385 . S
C1582 C1583 1.389 . S
C1583 C1582 1.389 . S
C1583 C1584 1.387 . S
C1584 H1569 0.930 . S
C1584 C1579 1.390 . S
C1584 C1583 1.387 . S
H1585 C1597 0.930 1_556 S
H1586 C1599 0.930 . S
H1587 C1600 0.930 . S
H1588 C1604 0.959 . S
H1589 C1604 0.959 . S
H1590 C1604 0.961 . S
H1591 C1605 0.960 . S
H1592 C1605 0.961 . S
H1593 C1605 0.959 . S
H1594 C1608 0.904 1_554 S
H1595 C1609 0.931 . S
H1596 C1611 0.930 1_655 S
C1597 H1585 0.930 1_554 S
C1597 C1598 1.399 . S
C1597 C1602 1.399 1_554 S
C1598 C1597 1.399 . S
C1598 C1599 1.376 . S
C1599 H1586 0.930 . S
C1599 C1598 1.376 . S
C1599 C1600 1.388 . S
C1600 H1587 0.930 . S
C1600 C1599 1.388 . S
C1600 C1601 1.390 . S
C1601 C1600 1.390 . S
C1601 C1602 1.394 1_554 S
C1601 C1607 1.465 1_554 S
C1602 C1597 1.399 1_556 S
C1602 C1601 1.394 1_556 S
C1602 C1603 1.520 . S
C1603 C1602 1.520 . S
C1603 C1604 1.506 . S
C1603 C1605 1.552 1_455 S
C1603 C1606 1.527 . S
C1604 H1588 0.959 . S
C1604 H1589 0.959 . S
C1604 H1590 0.961 . S
C1604 C1603 1.506 . S
C1605 H1591 0.960 . S
C1605 H1592 0.961 . S
C1605 H1593 0.959 . S
C1605 C1603 1.552 1_655 S
C1606 C1603 1.527 . S
C1606 C1607 1.396 . S
C1606 C1611 1.390 . S
C1607 C1601 1.465 1_556 S
C1607 C1606 1.396 . S
C1607 C1608 1.402 . S
C1608 H1594 0.904 1_556 S
C1608 C1607 1.402 . S
C1608 C1609 1.408 . S
C1609 H1595 0.931 . S
C1609 C1608 1.408 . S
C1609 C1610 1.389 . S
C1610 C1609 1.389 . S
C1610 C1611 1.387 . S
C1611 H1596 0.930 1_455 S
C1611 C1606 1.390 . S
C1611 C1610 1.387 . S
H1612 C1624 0.930 . S
H1613 C1626 0.930 . S
H1614 C1627 0.930 . S
H1615 C1631 0.959 . S
H1616 C1631 0.959 . S
H1617 C1631 0.961 . S
H1618 C1632 0.960 . S
H1619 C1632 0.961 . S
H1620 C1632 0.959 . S
H1621 C1635 0.929 . S
H1622 C1636 0.931 . S
H1623 C1638 0.930 . S
C1624 H1612 0.930 . S
C1624 C1625 1.399 . S
C1624 C1629 1.399 . S
C1625 C1624 1.399 . S
C1625 C1626 1.376 . S
C1626 H1613 0.930 . S
C1626 C1625 1.376 . S
C1626 C1627 1.388 . S
C1627 H1614 0.930 . S
C1627 C1626 1.388 . S
C1627 C1628 1.390 . S
C1628 C1627 1.390 . S
C1628 C1629 1.394 . S
C1628 C1634 1.465 . S
C1629 C1624 1.399 . S
C1629 C1628 1.394 . S
C1629 C1630 1.516 . S
C1630 C1629 1.516 . S
C1630 C1631 1.502 . S
C1630 C1632 1.561 . S
C1630 C1633 1.526 . S
C1631 H1615 0.959 . S
C1631 H1616 0.959 . S
C1631 H1617 0.961 . S
C1631 C1630 1.502 . S
C1632 H1618 0.960 . S
C1632 H1619 0.961 . S
C1632 H1620 0.959 . S
C1632 C1630 1.561 . S
C1633 C1630 1.526 . S
C1633 C1634 1.396 . S
C1633 C1638 1.390 . S
C1634 C1628 1.465 . S
C1634 C1633 1.396 . S
C1634 C1635 1.399 . S
C1635 H1621 0.929 . S
C1635 C1634 1.399 . S
C1635 C1636 1.385 . S
C1636 H1622 0.931 . S
C1636 C1635 1.385 . S
C1636 C1637 1.389 . S
C1637 C1636 1.389 . S
C1637 C1638 1.387 . S
C1638 H1623 0.930 . S
C1638 C1633 1.390 . S
C1638 C1637 1.387 . S
H1639 C1651 0.930 . S
H1640 C1653 0.930 . S
H1641 C1654 0.930 1_556 S
H1642 C1658 0.959 . S
H1643 C1658 0.959 . S
H1644 C1658 0.961 . S
H1645 C1659 0.960 . S
H1646 C1659 0.961 . S
H1647 C1659 0.959 . S
H1648 C1662 0.929 . S
H1649 C1663 0.931 . S
H1650 C1665 0.930 . S
C1651 H1639 0.930 . S
C1651 C1652 1.399 . S
C1651 C1656 1.399 . S
C1652 C1651 1.399 . S
C1652 C1653 1.376 1_554 S
C1653 H1640 0.930 . S
C1653 C1652 1.376 1_556 S
C1653 C1654 1.388 1_556 S
C1654 H1641 0.930 1_554 S
C1654 C1653 1.388 1_554 S
C1654 C1655 1.390 . S
C1655 C1654 1.390 . S
C1655 C1656 1.394 . S
C1655 C1661 1.465 . S
C1656 C1651 1.399 . S
C1656 C1655 1.394 . S
C1656 C1657 1.516 . S
C1657 C1656 1.516 . S
C1657 C1658 1.502 . S
C1657 C1659 1.561 . S
C1657 C1660 1.526 . S
C1658 H1642 0.959 . S
C1658 H1643 0.959 . S
C1658 H1644 0.961 . S
C1658 C1657 1.502 . S
C1659 H1645 0.960 . S
C1659 H1646 0.961 . S
C1659 H1647 0.959 . S
C1659 C1657 1.561 . S
C1660 C1657 1.526 . S
C1660 C1661 1.396 . S
C1660 C1665 1.390 . S
C1661 C1655 1.465 . S
C1661 C1660 1.396 . S
C1661 C1662 1.399 . S
C1662 H1648 0.929 . S
C1662 C1661 1.399 . S
C1662 C1663 1.385 . S
C1663 H1649 0.931 . S
C1663 C1662 1.385 . S
C1663 C1664 1.389 . S
C1664 C1663 1.389 . S
C1664 C1665 1.387 . S
C1665 H1650 0.930 . S
C1665 C1660 1.390 . S
C1665 C1664 1.387 . S
H1666 C1678 0.930 . S
H1667 C1680 0.930 . S
H1668 C1681 0.930 . S
H1669 C1685 0.959 . S
H1670 C1685 0.959 . S
H1671 C1685 0.961 . S
H1672 C1686 0.960 . S
H1673 C1686 0.961 . S
H1674 C1686 0.959 . S
H1675 C1689 0.929 . S
H1676 C1690 0.931 . S
H1677 C1692 0.930 . S
C1678 H1666 0.930 . S
C1678 C1679 1.399 . S
C1678 C1683 1.399 . S
C1679 C1678 1.399 . S
C1679 C1680 1.376 . S
C1680 H1667 0.930 . S
C1680 C1679 1.376 . S
C1680 C1681 1.388 . S
C1681 H1668 0.930 . S
C1681 C1680 1.388 . S
C1681 C1682 1.390 . S
C1682 C1681 1.390 . S
C1682 C1683 1.394 . S
C1682 C1688 1.465 . S
C1683 C1678 1.399 . S
C1683 C1682 1.394 . S
C1683 C1684 1.516 . S
C1684 C1683 1.516 . S
C1684 C1685 1.502 . S
C1684 C1686 1.561 . S
C1684 C1687 1.526 . S
C1685 H1669 0.959 . S
C1685 H1670 0.959 . S
C1685 H1671 0.961 . S
C1685 C1684 1.502 . S
C1686 H1672 0.960 . S
C1686 H1673 0.961 . S
C1686 H1674 0.959 . S
C1686 C1684 1.561 . S
C1687 C1684 1.526 . S
C1687 C1688 1.396 . S
C1687 C1692 1.390 . S
C1688 C1682 1.465 . S
C1688 C1687 1.396 . S
C1688 C1689 1.399 . S
C1689 H1675 0.929 . S
C1689 C1688 1.399 . S
C1689 C1690 1.385 . S
C1690 H1676 0.931 . S
C1690 C1689 1.385 . S
C1690 C1691 1.389 . S
C1691 C1690 1.389 . S
C1691 C1692 1.387 . S
C1692 H1677 0.930 . S
C1692 C1687 1.390 . S
C1692 C1691 1.387 . S
H1693 C1705 0.930 1_556 S
H1694 C1707 0.930 . S
H1695 C1708 0.930 . S
H1696 C1712 0.959 . S
H1697 C1712 0.959 . S
H1698 C1712 0.961 1_556 S
H1699 C1713 0.960 1_556 S
H1700 C1713 0.961 . S
H1701 C1713 0.959 . S
H1702 C1716 0.929 . S
H1703 C1717 0.931 . S
H1704 C1719 0.930 . S
C1705 H1693 0.930 1_554 S
C1705 C1706 1.399 . S
C1705 C1710 1.399 . S
C1706 C1705 1.399 . S
C1706 C1707 1.376 . S
C1707 H1694 0.930 . S
C1707 C1706 1.376 . S
C1707 C1708 1.388 . S
C1708 H1695 0.930 . S
C1708 C1707 1.388 . S
C1708 C1709 1.390 . S
C1709 C1708 1.390 . S
C1709 C1710 1.394 . S
C1709 C1715 1.465 . S
C1710 C1705 1.399 . S
C1710 C1709 1.394 . S
C1710 C1711 1.516 . S
C1711 C1710 1.516 . S
C1711 C1712 1.502 . S
C1711 C1713 1.561 . S
C1711 C1714 1.526 . S
C1712 H1696 0.959 . S
C1712 H1697 0.959 . S
C1712 H1698 0.961 1_554 S
C1712 C1711 1.502 . S
C1713 H1699 0.960 1_554 S
C1713 H1700 0.961 . S
C1713 H1701 0.959 . S
C1713 C1711 1.561 . S
C1714 C1711 1.526 . S
C1714 C1715 1.396 . S
C1714 C1719 1.390 . S
C1715 C1709 1.465 . S
C1715 C1714 1.396 . S
C1715 C1716 1.399 . S
C1716 H1702 0.929 . S
C1716 C1715 1.399 . S
C1716 C1717 1.385 . S
C1717 H1703 0.931 . S
C1717 C1716 1.385 . S
C1717 C1718 1.389 . S
C1718 C1717 1.389 . S
C1718 C1719 1.387 . S
C1719 H1704 0.930 . S
C1719 C1714 1.390 . S
C1719 C1718 1.387 . S
H1720 C1732 0.930 . S
H1721 C1734 0.930 . S
H1722 C1735 0.930 . S
H1723 C1739 0.959 . S
H1724 C1739 0.959 . S
H1725 C1739 0.961 . S
H1726 C1740 0.960 . S
H1727 C1740 0.961 . S
H1728 C1740 0.959 . S
H1729 C1743 0.929 . S
H1730 C1744 0.931 . S
H1731 C1746 0.930 . S
C1732 H1720 0.930 . S
C1732 C1733 1.399 . S
C1732 C1737 1.399 . S
C1733 C1732 1.399 . S
C1733 C1734 1.376 . S
C1734 H1721 0.930 . S
C1734 C1733 1.376 . S
C1734 C1735 1.388 . S
C1735 H1722 0.930 . S
C1735 C1734 1.388 . S
C1735 C1736 1.390 . S
C1736 C1735 1.390 . S
C1736 C1737 1.394 . S
C1736 C1742 1.465 . S
C1737 C1732 1.399 . S
C1737 C1736 1.394 . S
C1737 C1738 1.516 . S
C1738 C1737 1.516 . S
C1738 C1739 1.502 . S
C1738 C1740 1.561 . S
C1738 C1741 1.526 . S
C1739 H1723 0.959 . S
C1739 H1724 0.959 . S
C1739 H1725 0.961 . S
C1739 C1738 1.502 . S
C1740 H1726 0.960 . S
C1740 H1727 0.961 . S
C1740 H1728 0.959 . S
C1740 C1738 1.561 . S
C1741 C1738 1.526 . S
C1741 C1742 1.396 . S
C1741 C1746 1.390 . S
C1742 C1736 1.465 . S
C1742 C1741 1.396 . S
C1742 C1743 1.399 . S
C1743 H1729 0.929 . S
C1743 C1742 1.399 . S
C1743 C1744 1.385 . S
C1744 H1730 0.931 . S
C1744 C1743 1.385 . S
C1744 C1745 1.389 . S
C1745 C1744 1.389 . S
C1745 C1746 1.387 . S
C1746 H1731 0.930 . S
C1746 C1741 1.390 . S
C1746 C1745 1.387 . S
H1747 C1759 0.930 . S
H1748 C1761 0.930 . S
H1749 C1762 0.930 . S
H1750 C1766 0.959 . S
H1751 C1766 0.959 . S
H1752 C1766 0.961 . S
H1753 C1767 0.960 . S
H1754 C1767 0.961 . S
H1755 C1767 0.959 . S
H1756 C1770 0.929 . S
H1757 C1771 0.931 . S
H1758 C1773 0.930 . S
C1759 H1747 0.930 . S
C1759 C1760 1.399 . S
C1759 C1764 1.399 . S
C1760 C1759 1.399 . S
C1760 C1761 1.376 . S
C1761 H1748 0.930 . S
C1761 C1760 1.376 . S
C1761 C1762 1.388 . S
C1762 H1749 0.930 . S
C1762 C1761 1.388 . S
C1762 C1763 1.390 . S
C1763 C1762 1.390 . S
C1763 C1764 1.394 . S
C1763 C1769 1.465 . S
C1764 C1759 1.399 . S
C1764 C1763 1.394 . S
C1764 C1765 1.516 . S
C1765 C1764 1.516 . S
C1765 C1766 1.502 . S
C1765 C1767 1.561 . S
C1765 C1768 1.526 . S
C1766 H1750 0.959 . S
C1766 H1751 0.959 . S
C1766 H1752 0.961 . S
C1766 C1765 1.502 . S
C1767 H1753 0.960 . S
C1767 H1754 0.961 . S
C1767 H1755 0.959 . S
C1767 C1765 1.561 . S
C1768 C1765 1.526 . S
C1768 C1769 1.396 . S
C1768 C1773 1.390 . S
C1769 C1763 1.465 . S
C1769 C1768 1.396 . S
C1769 C1770 1.399 . S
C1770 H1756 0.929 . S
C1770 C1769 1.399 . S
C1770 C1771 1.385 . S
C1771 H1757 0.931 . S
C1771 C1770 1.385 . S
C1771 C1772 1.389 . S
C1772 C1771 1.389 . S
C1772 C1773 1.387 . S
C1773 H1758 0.930 . S
C1773 C1768 1.390 . S
C1773 C1772 1.387 . S
H1774 C1786 0.930 . S
H1775 C1788 0.930 . S
H1776 C1789 0.930 . S
H1777 C1793 0.959 . S
H1778 C1793 0.959 . S
H1779 C1793 0.961 . S
H1780 C1794 0.960 . S
H1781 C1794 0.961 . S
H1782 C1794 0.959 . S
H1783 C1797 0.929 . S
H1784 C1798 0.931 . S
H1785 C1800 0.930 . S
C1786 H1774 0.930 . S
C1786 C1787 1.399 . S
C1786 C1791 1.399 . S
C1787 C1786 1.399 . S
C1787 C1788 1.376 . S
C1788 H1775 0.930 . S
C1788 C1787 1.376 . S
C1788 C1789 1.388 . S
C1789 H1776 0.930 . S
C1789 C1788 1.388 . S
C1789 C1790 1.390 . S
C1790 C1789 1.390 . S
C1790 C1791 1.394 . S
C1790 C1796 1.465 . S
C1791 C1786 1.399 . S
C1791 C1790 1.394 . S
C1791 C1792 1.516 . S
C1792 C1791 1.516 . S
C1792 C1793 1.502 . S
C1792 C1794 1.561 . S
C1792 C1795 1.526 . S
C1793 H1777 0.959 . S
C1793 H1778 0.959 . S
C1793 H1779 0.961 . S
C1793 C1792 1.502 . S
C1794 H1780 0.960 . S
C1794 H1781 0.961 . S
C1794 H1782 0.959 . S
C1794 C1792 1.561 . S
C1795 C1792 1.526 . S
C1795 C1796 1.396 . S
C1795 C1800 1.390 . S
C1796 C1790 1.465 . S
C1796 C1795 1.396 . S
C1796 C1797 1.399 . S
C1797 H1783 0.929 . S
C1797 C1796 1.399 . S
C1797 C1798 1.385 . S
C1798 H1784 0.931 . S
C1798 C1797 1.385 . S
C1798 C1799 1.389 . S
C1799 C1798 1.389 . S
C1799 C1800 1.387 . S
C1800 H1785 0.930 . S
C1800 C1795 1.390 . S
C1800 C1799 1.387 . S
H1801 C1813 0.930 . S
H1802 C1815 0.930 . S
H1803 C1816 0.930 . S
H1804 C1820 0.959 . S
H1805 C1820 0.959 . S
H1806 C1820 0.961 . S
H1807 C1821 0.960 . S
H1808 C1821 0.961 . S
H1809 C1821 0.959 . S
H1810 C1824 0.929 . S
H1811 C1825 0.931 . S
H1812 C1827 0.930 . S
C1813 H1801 0.930 . S
C1813 C1814 1.399 . S
C1813 C1818 1.399 . S
C1814 C1813 1.399 . S
C1814 C1815 1.376 . S
C1815 H1802 0.930 . S
C1815 C1814 1.376 . S
C1815 C1816 1.388 . S
C1816 H1803 0.930 . S
C1816 C1815 1.388 . S
C1816 C1817 1.390 . S
C1817 C1816 1.390 . S
C1817 C1818 1.394 . S
C1817 C1823 1.465 . S
C1818 C1813 1.399 . S
C1818 C1817 1.394 . S
C1818 C1819 1.516 . S
C1819 C1818 1.516 . S
C1819 C1820 1.502 . S
C1819 C1821 1.561 . S
C1819 C1822 1.526 . S
C1820 H1804 0.959 . S
C1820 H1805 0.959 . S
C1820 H1806 0.961 . S
C1820 C1819 1.502 . S
C1821 H1807 0.960 . S
C1821 H1808 0.961 . S
C1821 H1809 0.959 . S
C1821 C1819 1.561 . S
C1822 C1819 1.526 . S
C1822 C1823 1.396 . S
C1822 C1827 1.390 . S
C1823 C1817 1.465 . S
C1823 C1822 1.396 . S
C1823 C1824 1.399 . S
C1824 H1810 0.929 . S
C1824 C1823 1.399 . S
C1824 C1825 1.385 . S
C1825 H1811 0.931 . S
C1825 C1824 1.385 . S
C1825 C1826 1.389 . S
C1826 C1825 1.389 . S
C1826 C1827 1.387 . S
C1827 H1812 0.930 . S
C1827 C1822 1.390 . S
C1827 C1826 1.387 . S
H1828 C1840 0.930 . S
H1829 C1842 0.930 . S
H1830 C1843 0.930 . S
H1831 C1847 0.959 . S
H1832 C1847 0.959 . S
H1833 C1847 0.961 . S
H1834 C1848 0.960 . S
H1835 C1848 0.961 . S
H1836 C1848 0.959 . S
H1837 C1851 0.929 . S
H1838 C1852 0.931 . S
H1839 C1854 0.930 . S
C1840 H1828 0.930 . S
C1840 C1841 1.399 . S
C1840 C1845 1.399 . S
C1841 C1840 1.399 . S
C1841 C1842 1.376 1_556 S
C1842 H1829 0.930 . S
C1842 C1841 1.376 1_554 S
C1842 C1843 1.388 . S
C1843 H1830 0.930 . S
C1843 C1842 1.388 . S
C1843 C1844 1.390 . S
C1844 C1843 1.390 . S
C1844 C1845 1.394 1_554 S
C1844 C1850 1.465 . S
C1845 C1840 1.399 . S
C1845 C1844 1.394 1_556 S
C1845 C1846 1.516 . S
C1846 C1845 1.516 . S
C1846 C1847 1.502 . S
C1846 C1848 1.561 . S
C1846 C1849 1.526 . S
C1847 H1831 0.959 . S
C1847 H1832 0.959 . S
C1847 H1833 0.961 . S
C1847 C1846 1.502 . S
C1848 H1834 0.960 . S
C1848 H1835 0.961 . S
C1848 H1836 0.959 . S
C1848 C1846 1.561 . S
C1849 C1846 1.526 . S
C1849 C1850 1.396 1_556 S
C1849 C1854 1.390 . S
C1850 C1844 1.465 . S
C1850 C1849 1.396 1_554 S
C1850 C1851 1.399 . S
C1851 H1837 0.929 . S
C1851 C1850 1.399 . S
C1851 C1852 1.385 . S
C1852 H1838 0.931 . S
C1852 C1851 1.385 . S
C1852 C1853 1.420 . S
C1853 C1852 1.420 . S
C1853 C1854 1.362 1_554 S
C1854 H1839 0.930 . S
C1854 C1849 1.390 . S
C1854 C1853 1.362 1_556 S
H1855 C1867 0.930 . S
H1856 C1869 0.930 . S
H1857 C1870 0.930 . S
H1858 C1874 0.959 . S
H1859 C1874 0.959 . S
H1860 C1874 0.961 . S
H1861 C1875 0.960 . S
H1862 C1875 0.961 . S
H1863 C1875 0.959 . S
H1864 C1878 0.929 . S
H1865 C1879 0.931 . S
H1866 C1881 0.930 . S
C1867 H1855 0.930 . S
C1867 C1868 1.399 . S
C1867 C1872 1.399 . S
C1868 C1867 1.399 . S
C1868 C1869 1.376 . S
C1869 H1856 0.930 . S
C1869 C1868 1.376 . S
C1869 C1870 1.388 . S
C1870 H1857 0.930 . S
C1870 C1869 1.388 . S
C1870 C1871 1.390 . S
C1871 C1870 1.390 . S
C1871 C1872 1.394 . S
C1871 C1877 1.465 . S
C1872 C1867 1.399 . S
C1872 C1871 1.394 . S
C1872 C1873 1.516 . S
C1873 C1872 1.516 . S
C1873 C1874 1.502 . S
C1873 C1875 1.561 . S
C1873 C1876 1.526 . S
C1874 H1858 0.959 . S
C1874 H1859 0.959 . S
C1874 H1860 0.961 . S
C1874 C1873 1.502 . S
C1875 H1861 0.960 . S
C1875 H1862 0.961 . S
C1875 H1863 0.959 . S
C1875 C1873 1.561 . S
C1876 C1873 1.526 . S
C1876 C1877 1.396 . S
C1876 C1881 1.390 . S
C1877 C1871 1.465 . S
C1877 C1876 1.396 . S
C1877 C1878 1.399 . S
C1878 H1864 0.929 . S
C1878 C1877 1.399 . S
C1878 C1879 1.385 . S
C1879 H1865 0.931 . S
C1879 C1878 1.385 . S
C1879 C1880 1.389 . S
C1880 C1879 1.389 . S
C1880 C1881 1.387 . S
C1881 H1866 0.930 . S
C1881 C1876 1.390 . S
C1881 C1880 1.387 . S
H1882 C1894 0.930 . S
H1883 C1896 0.930 . S
H1884 C1897 0.930 . S
H1885 C1901 0.959 . S
H1886 C1901 0.959 . S
H1887 C1901 0.961 . S
H1888 C1902 0.960 . S
H1889 C1902 0.961 . S
H1890 C1902 0.959 . S
H1891 C1905 0.929 . S
H1892 C1906 0.931 . S
H1893 C1908 0.901 1_556 S
C1894 H1882 0.930 . S
C1894 C1895 1.399 . S
C1894 C1899 1.399 . S
C1895 C1894 1.399 . S
C1895 C1896 1.376 . S
C1896 H1883 0.930 . S
C1896 C1895 1.376 . S
C1896 C1897 1.388 . S
C1897 H1884 0.930 . S
C1897 C1896 1.388 . S
C1897 C1898 1.390 . S
C1898 C1897 1.390 . S
C1898 C1899 1.394 . S
C1898 C1904 1.465 . S
C1899 C1894 1.399 . S
C1899 C1898 1.394 . S
C1899 C1900 1.516 1_554 S
C1900 C1899 1.516 1_556 S
C1900 C1901 1.502 . S
C1900 C1902 1.561 . S
C1900 C1903 1.526 1_556 S
C1901 H1885 0.959 . S
C1901 H1886 0.959 . S
C1901 H1887 0.961 . S
C1901 C1900 1.502 . S
C1902 H1888 0.960 . S
C1902 H1889 0.961 . S
C1902 H1890 0.959 . S
C1902 C1900 1.561 . S
C1903 C1900 1.526 1_554 S
C1903 C1904 1.396 . S
C1903 C1908 1.404 . S
C1904 C1898 1.465 . S
C1904 C1903 1.396 . S
C1904 C1905 1.399 . S
C1905 H1891 0.929 . S
C1905 C1904 1.399 . S
C1905 C1906 1.385 . S
C1906 H1892 0.931 . S
C1906 C1905 1.385 . S
C1906 C1907 1.389 . S
C1907 C1906 1.389 . S
C1907 C1908 1.401 . S
C1908 H1893 0.901 1_554 S
C1908 C1903 1.404 . S
C1908 C1907 1.401 . S
H1909 C1921 0.930 . S
H1910 C1923 0.930 . S
H1911 C1924 0.930 . S
H1912 C1928 0.959 . S
H1913 C1928 0.959 . S
H1914 C1928 0.961 . S
H1915 C1929 0.960 1_545 S
H1916 C1929 0.961 . S
H1917 C1929 0.959 1_544 S
H1918 C1932 0.929 . S
H1919 C1933 0.931 . S
H1920 C1935 0.930 1_556 S
C1921 H1909 0.930 . S
C1921 C1922 1.399 . S
C1921 C1926 1.399 . S
C1922 C1921 1.399 . S
C1922 C1923 1.376 . S
C1923 H1910 0.930 . S
C1923 C1922 1.376 . S
C1923 C1924 1.388 . S
C1924 H1911 0.930 . S
C1924 C1923 1.388 . S
C1924 C1925 1.390 . S
C1925 C1924 1.390 . S
C1925 C1926 1.394 . S
C1925 C1931 1.465 . S
C1926 C1921 1.399 . S
C1926 C1925 1.394 . S
C1926 C1927 1.516 . S
C1927 C1926 1.516 . S
C1927 C1928 1.502 1_554 S
C1927 C1929 1.561 1_554 S
C1927 C1930 1.526 . S
C1928 H1912 0.959 . S
C1928 H1913 0.959 . S
C1928 H1914 0.961 . S
C1928 C1927 1.502 1_556 S
C1929 H1915 0.960 1_565 S
C1929 H1916 0.961 . S
C1929 H1917 0.959 1_566 S
C1929 C1927 1.561 1_556 S
C1930 C1927 1.526 . S
C1930 C1931 1.396 . S
C1930 C1935 1.390 . S
C1931 C1925 1.465 . S
C1931 C1930 1.396 . S
C1931 C1932 1.399 . S
C1932 H1918 0.929 . S
C1932 C1931 1.399 . S
C1932 C1933 1.385 . S
C1933 H1919 0.931 . S
C1933 C1932 1.385 . S
C1933 C1934 1.389 . S
C1934 C1933 1.389 . S
C1934 C1935 1.387 . S
C1935 H1920 0.930 1_554 S
C1935 C1930 1.390 . S
C1935 C1934 1.387 . S
C665 C210 1.196 . S
C653 N66 1.114 . S
C692 C258 1.593 . S
C680 N79 1.646 1_455 S
C707 N92 1.727 . S
C719 C294 1.652 . S
C746 C330 1.423 . S
C734 N54 1.466 . S
C773 C356 1.378 . S
C761 N131 1.376 . S
C800 C392 1.266 . S
C788 N158 1.289 . S
C815 N145 1.549 . S
C827 C427 1.546 . S
C854 C464 1.803 . S
C842 N118 1.774 . S
C869 N148 1.835 . S
C881 C498 1.846 . S
C908 C546 1.666 . S
C896 N122 1.707 . S
C923 N132 1.141 . S
C935 C499 1.171 . S
C962 C536 1.544 . S
C950 N161 1.536 . S
C977 N96 1.803 . S
C989 C582 1.814 . S
C1004 N53 1.745 . S
C1016 C571 1.755 . S
C1031 N67 1.092 . S
C1043 C572 1.123 . S
C1058 N83 1.525 . S
C1070 C570 1.515 . S
C1085 N44 1.275 . S
C1097 C318 1.322 . S
C1112 N187 1.458 . S
C1124 C319 1.462 . S
C1151 C222 1.307 . S
C1139 N197 1.313 . S
C1178 C247 1.314 . S
C1166 N106 1.299 . S
C1193 N57 1.875 1_545 S
C1205 C354 1.909 . S
C1232 C462 1.377 . S
C1220 N144 1.332 . S
C1259 C355 1.445 . S
C1247 N119 1.446 1_545 S
C1286 C428 1.836 . S
C1274 N157 1.831 . S
C1313 C426 1.191 . S
C1301 N183 1.099 . S
C1328 N196 1.625 . S
C1340 C474 1.628 . S
C1355 N105 1.742 . S
C1367 C366 1.686 . S
C1394 C402 1.426 . S
C1382 N171 1.453 . S
C1409 N40 1.385 . S
C1421 C284 1.381 . S
C1448 C320 1.289 . S
C1436 N2 1.237 1_655 S
C1475 C211 1.542 . S
C1463 N15 1.525 . S
C1502 C248 1.805 . S
C1490 N27 1.785 1_455 S
C1517 N18 1.861 . S
C1529 C534 1.850 . S
C1544 N31 1.707 . S
C1556 C510 1.674 1_455 S
C1571 N41 1.181 . S
C1583 C535 1.164 . S
C1598 N5 1.476 . S
C1610 C500 1.547 . S
C1637 C618 1.742 . S
C1625 N109 1.856 . S
C1664 C607 1.765 . S
C1652 N170 1.713 1_554 S
C1691 C608 1.083 . S
C1679 N184 1.131 . S
C1706 N200 1.481 1_554 S
C1718 C606 1.526 . S
C1733 N135 1.276 . S
C1745 C390 1.334 . S
C1772 C391 1.463 . S
C1760 N70 1.449 . S
C1799 C438 1.280 . S
C1787 N80 1.315 . S
C1826 C463 1.315 . S
C1814 N93 1.297 . S
C1841 N174 1.900 . S
C1853 C282 1.876 . S
C1880 C246 1.363 . S
C1868 N14 1.402 . S
C1895 N28 1.455 . S
C1907 C283 1.419 . S
C1934 C212 1.861 . S
C1922 N1 1.801 1_565 S
