# Generated by pormake.
# Topology pyr, (3,6)-cn, num edge types: 1
# Building blocks:
#     Node 0, Type 0, BuildingBlock: VETTIZ_charged_linker_0, # of connection points: 3
#     Node 1, Type 0, BuildingBlock: VETTIZ_charged_linker_0, # of connection points: 3
#     Node 2, Type 0, BuildingBlock: VETTIZ_charged_linker_0, # of connection points: 3
#     Node 3, Type 0, BuildingBlock: VETTIZ_charged_linker_0, # of connection points: 3
#     Node 4, Type 0, BuildingBlock: VETTIZ_charged_linker_0, # of connection points: 3
#     Node 5, Type 0, BuildingBlock: VETTIZ_charged_linker_0, # of connection points: 3
#     Node 6, Type 0, BuildingBlock: VETTIZ_charged_linker_0, # of connection points: 3
#     Node 7, Type 0, BuildingBlock: VETTIZ_charged_linker_0, # of connection points: 3
#     Node 8, Type 1, BuildingBlock: INOVEN_clean_sbu_0, # of connection points: 6
#     Node 9, Type 1, BuildingBlock: INOVEN_clean_sbu_0, # of connection points: 6
#     Node 10, Type 1, BuildingBlock: INOVEN_clean_sbu_0, # of connection points: 6
#     Node 11, Type 1, BuildingBlock: INOVEN_clean_sbu_0, # of connection points: 6
#     Edge 12, Type (0, 1), BuildingBlock: TEMPAE_clean_linker_10, # of connection points: 2
#     Edge 13, Type (0, 1), BuildingBlock: TEMPAE_clean_linker_10, # of connection points: 2
#     Edge 14, Type (0, 1), BuildingBlock: TEMPAE_clean_linker_10, # of connection points: 2
#     Edge 15, Type (0, 1), BuildingBlock: TEMPAE_clean_linker_10, # of connection points: 2
#     Edge 16, Type (0, 1), BuildingBlock: TEMPAE_clean_linker_10, # of connection points: 2
#     Edge 17, Type (0, 1), BuildingBlock: TEMPAE_clean_linker_10, # of connection points: 2
#     Edge 18, Type (0, 1), BuildingBlock: TEMPAE_clean_linker_10, # of connection points: 2
#     Edge 19, Type (0, 1), BuildingBlock: TEMPAE_clean_linker_10, # of connection points: 2
#     Edge 20, Type (0, 1), BuildingBlock: TEMPAE_clean_linker_10, # of connection points: 2
#     Edge 21, Type (0, 1), BuildingBlock: TEMPAE_clean_linker_10, # of connection points: 2
#     Edge 22, Type (0, 1), BuildingBlock: TEMPAE_clean_linker_10, # of connection points: 2
#     Edge 23, Type (0, 1), BuildingBlock: TEMPAE_clean_linker_10, # of connection points: 2
#     Edge 24, Type (0, 1), BuildingBlock: TEMPAE_clean_linker_10, # of connection points: 2
#     Edge 25, Type (0, 1), BuildingBlock: TEMPAE_clean_linker_10, # of connection points: 2
#     Edge 26, Type (0, 1), BuildingBlock: TEMPAE_clean_linker_10, # of connection points: 2
#     Edge 27, Type (0, 1), BuildingBlock: TEMPAE_clean_linker_10, # of connection points: 2
#     Edge 28, Type (0, 1), BuildingBlock: TEMPAE_clean_linker_10, # of connection points: 2
#     Edge 29, Type (0, 1), BuildingBlock: TEMPAE_clean_linker_10, # of connection points: 2
#     Edge 30, Type (0, 1), BuildingBlock: TEMPAE_clean_linker_10, # of connection points: 2
#     Edge 31, Type (0, 1), BuildingBlock: TEMPAE_clean_linker_10, # of connection points: 2
#     Edge 32, Type (0, 1), BuildingBlock: TEMPAE_clean_linker_10, # of connection points: 2
#     Edge 33, Type (0, 1), BuildingBlock: TEMPAE_clean_linker_10, # of connection points: 2
#     Edge 34, Type (0, 1), BuildingBlock: TEMPAE_clean_linker_10, # of connection points: 2
#     Edge 35, Type (0, 1), BuildingBlock: TEMPAE_clean_linker_10, # of connection points: 2
# Relax obj value: 0.093
# Max RMSD: 0.126
# Mean RMSD: 0.060
data_MOF--net-pyr--node1-INOVEN_clean_sbu_0--node2-VETTIZ_charged_linker_0--edge1-TEMPAE_clean_linker_10
_symmetry_space_group_name_H-M    P1
_symmetry_Int_Tables_number       1
_symmetry_cell_setting            triclinic
loop_
_symmetry_equiv_pos_as_xyz
'x, y, z'
_cell_length_a     46.374286
_cell_length_b     49.085805
_cell_length_c     44.667368
_cell_angle_alpha  90.785189
_cell_angle_beta   88.836173
_cell_angle_gamma 100.64199
loop_
_atom_site_label
_atom_site_type_symbol
_atom_site_fract_x
_atom_site_fract_y
_atom_site_fract_z
_atom_type_partial_charge
C0 C 0.30221 0.25689 0.32617 0.0
C1 C 0.28425 0.27288 0.34157 0.0
C2 C 0.2821 0.29906 0.3301 0.0
C3 C 0.30903 0.28953 0.28537 0.0
C4 C 0.31449 0.26568 0.29829 0.0
C5 C 0.33192 0.25001 0.2778 0.0
H6 H 0.38657 0.23066 0.13949 0.0
C7 C 0.31982 0.29002 0.25403 0.0
C8 C 0.33403 0.26738 0.24969 0.0
H9 H 0.39291 0.18426 0.22018 0.0
H10 H 0.36808 0.21515 0.24829 0.0
H11 H 0.39752 0.29419 0.16981 0.0
H12 H 0.32119 0.23289 0.14982 0.0
H13 H 0.31051 0.2651 0.14638 0.0
H14 H 0.33894 0.25636 0.12186 0.0
H15 H 0.3865 0.28296 0.13262 0.0
H16 H 0.37158 0.31007 0.15143 0.0
C17 C 0.36238 0.25071 0.29181 0.0
C18 C 0.31385 0.22047 0.27271 0.0
C19 C 0.27923 0.34981 0.18041 0.0
C20 C 0.27846 0.34971 0.14901 0.0
C21 C 0.29729 0.33528 0.13262 0.0
C22 C 0.31493 0.3195 0.14744 0.0
C23 C 0.31334 0.31786 0.17889 0.0
C24 C 0.29623 0.33346 0.19482 0.0
C25 C 0.29536 0.32789 0.22783 0.0
C26 C 0.31433 0.30586 0.22913 0.0
C27 C 0.32481 0.30001 0.20043 0.0
C28 C 0.30935 0.35487 0.24447 0.0
C29 C 0.26295 0.31655 0.23703 0.0
C30 C 0.38257 0.22703 0.16318 0.0
C31 C 0.39223 0.20496 0.1775 0.0
C32 C 0.38657 0.20136 0.20852 0.0
C33 C 0.37186 0.21925 0.22489 0.0
C34 C 0.362 0.24078 0.21018 0.0
C35 C 0.3674 0.24448 0.17986 0.0
C36 C 0.35385 0.26769 0.16788 0.0
C37 C 0.34072 0.27806 0.19636 0.0
C38 C 0.34539 0.26199 0.22093 0.0
C39 C 0.37853 0.28997 0.15451 0.0
C40 C 0.33 0.25511 0.14516 0.0
H41 H 0.29092 0.32698 0.29382 0.0
H42 H 0.30473 0.23679 0.33426 0.0
H43 H 0.29023 0.22126 0.26988 0.0
H44 H 0.3204 0.21023 0.25221 0.0
H45 H 0.31554 0.20692 0.29207 0.0
H46 H 0.36863 0.26912 0.30673 0.0
H47 H 0.36255 0.23199 0.30545 0.0
H48 H 0.38027 0.25266 0.27475 0.0
H49 H 0.26547 0.3612 0.1936 0.0
H50 H 0.29723 0.335 0.10837 0.0
H51 H 0.32819 0.30826 0.13386 0.0
H52 H 0.32518 0.36869 0.22977 0.0
H53 H 0.2924 0.36678 0.25225 0.0
H54 H 0.32243 0.35075 0.26381 0.0
H55 H 0.25259 0.30069 0.22056 0.0
H56 H 0.26027 0.30617 0.25881 0.0
H57 H 0.24997 0.33344 0.23785 0.0
H58 H 0.26938 0.31233 0.34196 0.0
C59 C 0.29452 0.30751 0.30212 0.0
C60 C 0.19211 0.87081 0.6156 0.0
C61 C 0.18449 0.89157 0.63465 0.0
C62 C 0.19681 0.89526 0.66337 0.0
C63 C 0.22443 0.85875 0.65318 0.0
C64 C 0.21227 0.85497 0.62514 0.0
C65 C 0.22447 0.83368 0.60674 0.0
H66 H 0.31697 0.74229 0.59599 0.0
C67 C 0.24535 0.83969 0.65578 0.0
C68 C 0.24552 0.82494 0.62867 0.0
H69 H 0.26336 0.76568 0.52642 0.0
H70 H 0.24364 0.79629 0.56142 0.0
H71 H 0.33948 0.80214 0.61758 0.0
H72 H 0.26923 0.74004 0.65205 0.0
H73 H 0.2891 0.75605 0.68271 0.0
H74 H 0.30724 0.73769 0.65506 0.0
H75 H 0.34629 0.77351 0.63917 0.0
H76 H 0.34027 0.80537 0.65669 0.0
C77 C 0.2407 0.84821 0.57891 0.0
C78 C 0.19897 0.80963 0.59926 0.0
C79 C 0.30417 0.84108 0.75023 0.0
C80 C 0.32671 0.82731 0.75866 0.0
C81 C 0.33411 0.8063 0.73982 0.0
C82 C 0.3201 0.80001 0.71235 0.0
C83 C 0.29858 0.81498 0.70364 0.0
C84 C 0.29065 0.83479 0.72274 0.0
C85 C 0.26788 0.8491 0.70975 0.0
C86 C 0.26369 0.83489 0.67941 0.0
C87 C 0.28168 0.81499 0.67592 0.0
C88 C 0.28113 0.88043 0.70704 0.0
C89 C 0.23981 0.84252 0.72972 0.0
C90 C 0.30049 0.75363 0.58856 0.0
C91 C 0.29106 0.75138 0.55887 0.0
C92 C 0.27048 0.76703 0.54943 0.0
C93 C 0.25929 0.78478 0.56972 0.0
C94 C 0.2694 0.7872 0.59937 0.0
C95 C 0.28972 0.77175 0.60824 0.0
C96 C 0.2998 0.77831 0.63969 0.0
C97 C 0.28188 0.80005 0.64855 0.0
C98 C 0.26399 0.80507 0.62498 0.0
C99 C 0.3332 0.79029 0.63852 0.0
C100 C 0.29116 0.7517 0.65853 0.0
H101 H 0.22529 0.88291 0.69476 0.0
H102 H 0.18291 0.86711 0.59351 0.0
H103 H 0.18453 0.80411 0.6193 0.0
H104 H 0.20654 0.7904 0.59243 0.0
H105 H 0.18527 0.81557 0.58122 0.0
H106 H 0.24938 0.87052 0.58357 0.0
H107 H 0.22581 0.84708 0.55957 0.0
H108 H 0.26027 0.83957 0.57214 0.0
H109 H 0.29758 0.85698 0.76448 0.0
H110 H 0.35142 0.79541 0.74585 0.0
H111 H 0.32705 0.7842 0.69867 0.0
H112 H 0.30526 0.88376 0.70284 0.0
H113 H 0.27728 0.89191 0.7279 0.0
H114 H 0.2726 0.89029 0.68786 0.0
H115 H 0.23643 0.82086 0.73799 0.0
H116 H 0.21959 0.84379 0.71759 0.0
H117 H 0.24136 0.85654 0.74959 0.0
H118 H 0.19189 0.91137 0.67837 0.0
C119 C 0.21652 0.87886 0.67278 0.0
C120 C 0.63321 0.27568 0.89989 0.0
C121 C 0.60742 0.25841 0.88974 0.0
C122 C 0.59338 0.26754 0.86488 0.0
C123 C 0.63041 0.30991 0.86125 0.0
C124 C 0.64413 0.30099 0.88554 0.0
C125 C 0.67116 0.32134 0.89412 0.0
H126 H 0.76819 0.44087 0.8709 0.0
C127 C 0.64778 0.33735 0.85157 0.0
C128 C 0.67172 0.3439 0.87101 0.0
H129 H 0.76764 0.38072 0.94077 0.0
H130 H 0.72353 0.35321 0.92123 0.0
H131 H 0.69899 0.44117 0.87574 0.0
H132 H 0.74815 0.3961 0.81651 0.0
H133 H 0.72207 0.40872 0.79518 0.0
H134 H 0.75006 0.43288 0.81407 0.0
H135 H 0.72124 0.45762 0.84538 0.0
H136 H 0.68363 0.44082 0.84011 0.0
C137 C 0.6663 0.33201 0.92635 0.0
C138 C 0.6979 0.30668 0.89033 0.0
C139 C 0.61676 0.39042 0.76232 0.0
C140 C 0.62936 0.41576 0.74837 0.0
C141 C 0.65559 0.43088 0.76034 0.0
C142 C 0.66904 0.42125 0.785 0.0
C143 C 0.65641 0.39601 0.79846 0.0
C144 C 0.63068 0.38093 0.78713 0.0
C145 C 0.6208 0.35432 0.80442 0.0
C146 C 0.64455 0.35616 0.82803 0.0
C147 C 0.66543 0.3808 0.82433 0.0
C148 C 0.59037 0.35509 0.81877 0.0
C149 C 0.62106 0.32961 0.78268 0.0
C150 C 0.75861 0.42167 0.88183 0.0
C151 C 0.77163 0.41307 0.90757 0.0
C152 C 0.75809 0.38808 0.92122 0.0
C153 C 0.7324 0.37201 0.9097 0.0
C154 C 0.71957 0.38086 0.88417 0.0
C155 C 0.73254 0.40543 0.87076 0.0
C156 C 0.71504 0.41192 0.84443 0.0
C157 C 0.68972 0.3871 0.84409 0.0
C158 C 0.69268 0.36888 0.86735 0.0
C159 C 0.70423 0.43939 0.85144 0.0
C160 C 0.73474 0.41269 0.81594 0.0
H161 H 0.59274 0.29863 0.8321 0.0
H162 H 0.64506 0.26954 0.91853 0.0
H163 H 0.69558 0.29295 0.87016 0.0
H164 H 0.71881 0.32124 0.88671 0.0
H165 H 0.69998 0.29363 0.91001 0.0
H166 H 0.64269 0.33235 0.93097 0.0
H167 H 0.67358 0.31855 0.94335 0.0
H168 H 0.67748 0.35367 0.93008 0.0
H169 H 0.59678 0.37802 0.75385 0.0
H170 H 0.6657 0.4506 0.75084 0.0
H171 H 0.68888 0.43398 0.79269 0.0
H172 H 0.58987 0.37589 0.82876 0.0
H173 H 0.5729 0.35077 0.80178 0.0
H174 H 0.58476 0.34027 0.83724 0.0
H175 H 0.64103 0.33339 0.76799 0.0
H176 H 0.62173 0.31009 0.79435 0.0
H177 H 0.60159 0.32645 0.76807 0.0
H178 H 0.5733 0.25518 0.85656 0.0
C179 C 0.60463 0.293 0.85071 0.0
C180 C 0.91915 0.785 0.37246 0.0
C181 C 0.90748 0.79926 0.39625 0.0
C182 C 0.88093 0.78638 0.41005 0.0
C183 C 0.87772 0.74645 0.37669 0.0
C184 C 0.90374 0.75877 0.36288 0.0
C185 C 0.912 0.74084 0.33732 0.0
H186 H 0.87619 0.62397 0.25031 0.0
C187 C 0.86685 0.71944 0.3616 0.0
C188 C 0.88669 0.71595 0.33822 0.0
H189 H 0.95423 0.68759 0.24331 0.0
H190 H 0.93732 0.71197 0.28534 0.0
H191 H 0.87974 0.61957 0.32188 0.0
H192 H 0.82919 0.6641 0.26675 0.0
H193 H 0.80612 0.64672 0.29505 0.0
H194 H 0.82316 0.62691 0.26801 0.0
H195 H 0.84854 0.60218 0.30156 0.0
H196 H 0.84465 0.6168 0.3384 0.0
C197 C 0.9416 0.73249 0.34462 0.0
C198 C 0.91261 0.75727 0.30798 0.0
C199 C 0.77255 0.65918 0.40082 0.0
C200 C 0.75643 0.63306 0.39245 0.0
C201 C 0.76684 0.61913 0.36774 0.0
C202 C 0.79254 0.63095 0.35176 0.0
C203 C 0.80838 0.65705 0.36052 0.0
C204 C 0.79823 0.67062 0.38475 0.0
C205 C 0.81778 0.69803 0.3912 0.0
C206 C 0.84153 0.69869 0.36708 0.0
C207 C 0.83597 0.67471 0.34899 0.0
C208 C 0.83015 0.69678 0.42304 0.0
C209 C 0.79961 0.72122 0.38694 0.0
C210 C 0.88996 0.643 0.25773 0.0
C211 C 0.91666 0.65366 0.24252 0.0
C212 C 0.93325 0.67887 0.25351 0.0
C213 C 0.92352 0.69304 0.27833 0.0
C214 C 0.89687 0.68207 0.29301 0.0
C215 C 0.88076 0.65723 0.28279 0.0
C216 C 0.85367 0.64781 0.30195 0.0
C217 C 0.85572 0.6713 0.32486 0.0
C218 C 0.88107 0.69161 0.31954 0.0
C219 C 0.85647 0.62005 0.31666 0.0
C220 C 0.82646 0.64606 0.28204 0.0
H221 H 0.84616 0.75192 0.41226 0.0
H222 H 0.93942 0.79427 0.36122 0.0
H223 H 0.89342 0.76788 0.30722 0.0
H224 H 0.91116 0.74395 0.28779 0.0
H225 H 0.93283 0.77337 0.30622 0.0
H226 H 0.94241 0.72751 0.36878 0.0
H227 H 0.96025 0.74961 0.33957 0.0
H228 H 0.94512 0.71361 0.33248 0.0
H229 H 0.76558 0.67043 0.41984 0.0
H230 H 0.75485 0.59917 0.36045 0.0
H231 H 0.79906 0.61932 0.33311 0.0
H232 H 0.83491 0.67582 0.42749 0.0
H233 H 0.81419 0.70127 0.44046 0.0
H234 H 0.85127 0.71103 0.42621 0.0
H235 H 0.78249 0.7152 0.36976 0.0
H236 H 0.81301 0.74067 0.37845 0.0
H237 H 0.7883 0.72566 0.40811 0.0
H238 H 0.87159 0.79647 0.42862 0.0
C239 C 0.86616 0.76029 0.40054 0.0
C240 C 0.72868 0.71621 0.90557 0.0
C241 C 0.74855 0.6995 0.89521 0.0
C242 C 0.75339 0.69707 0.86407 0.0
C243 C 0.72218 0.73027 0.85462 0.0
C244 C 0.71567 0.73127 0.88487 0.0
C245 C 0.69519 0.75112 0.89189 0.0
H246 H 0.62529 0.8517 0.84411 0.0
C247 C 0.70789 0.75056 0.83939 0.0
C248 C 0.69141 0.76244 0.86096 0.0
H249 H 0.62756 0.82068 0.93412 0.0
H250 H 0.65489 0.78634 0.91619 0.0
H251 H 0.61817 0.79087 0.80733 0.0
H252 H 0.68754 0.85694 0.83214 0.0
H253 H 0.70203 0.84176 0.80095 0.0
H254 H 0.66981 0.85708 0.79695 0.0
H255 H 0.62423 0.8254 0.79268 0.0
H256 H 0.64191 0.799 0.77598 0.0
C257 C 0.66608 0.73431 0.90461 0.0
C258 C 0.71097 0.77386 0.91339 0.0
C259 C 0.74248 0.78149 0.73492 0.0
C260 C 0.73884 0.8048 0.71837 0.0
C261 C 0.71564 0.81857 0.72653 0.0
C262 C 0.69841 0.81101 0.75225 0.0
C263 C 0.70485 0.78995 0.7705 0.0
C264 C 0.7258 0.77486 0.76119 0.0
C265 C 0.73103 0.75443 0.78438 0.0
C266 C 0.71074 0.76076 0.80967 0.0
C267 C 0.69552 0.78157 0.80136 0.0
C268 C 0.72127 0.72475 0.77148 0.0
C269 C 0.76383 0.7616 0.79302 0.0
C270 C 0.6316 0.83757 0.86008 0.0
C271 C 0.62415 0.83915 0.89066 0.0
C272 C 0.63255 0.81987 0.91038 0.0
C273 C 0.64875 0.80005 0.89998 0.0
C274 C 0.65716 0.79971 0.8696 0.0
C275 C 0.64832 0.81812 0.8502 0.0
C276 C 0.66081 0.81615 0.81911 0.0
C277 C 0.67799 0.79296 0.82284 0.0
C278 C 0.67586 0.78343 0.85246 0.0
C279 C 0.63504 0.80756 0.79742 0.0
C280 C 0.68096 0.84435 0.81166 0.0
H281 H 0.74531 0.7099 0.8205 0.0
H282 H 0.72402 0.71814 0.92928 0.0
H283 H 0.73461 0.77982 0.90706 0.0
H284 H 0.70234 0.79331 0.91267 0.0
H285 H 0.70963 0.76643 0.93685 0.0
H286 H 0.66075 0.71357 0.89357 0.0
H287 H 0.6675 0.73097 0.92904 0.0
H288 H 0.647 0.74418 0.90038 0.0
H289 H 0.75952 0.76993 0.72888 0.0
H290 H 0.71208 0.83658 0.71443 0.0
H291 H 0.68191 0.82298 0.75787 0.0
H292 H 0.70404 0.7241 0.75438 0.0
H293 H 0.73998 0.71699 0.76061 0.0
H294 H 0.71108 0.70988 0.78877 0.0
H295 H 0.77104 0.78443 0.79539 0.0
H296 H 0.76856 0.75309 0.81466 0.0
H297 H 0.77802 0.75415 0.77558 0.0
H298 H 0.76868 0.68461 0.85531 0.0
C299 C 0.74009 0.71209 0.84379 0.0
C300 C 0.84969 0.20051 0.4506 0.0
C301 C 0.8646 0.18765 0.42823 0.0
C302 C 0.85807 0.19119 0.39795 0.0
C303 C 0.81922 0.21548 0.41308 0.0
C304 C 0.8275 0.21462 0.44249 0.0
C305 C 0.80969 0.2297 0.46328 0.0
H306 H 0.69017 0.28871 0.48441 0.0
C307 C 0.79302 0.22841 0.41249 0.0
C308 C 0.78758 0.23725 0.44173 0.0
H309 H 0.7605 0.28855 0.54615 0.0
H310 H 0.78511 0.26272 0.50989 0.0
H311 H 0.68698 0.22604 0.45712 0.0
H312 H 0.73119 0.30709 0.43006 0.0
H313 H 0.71764 0.28915 0.39748 0.0
H314 H 0.69231 0.29575 0.42667 0.0
H315 H 0.66799 0.25065 0.44067 0.0
H316 H 0.68485 0.22699 0.418 0.0
C317 C 0.79477 0.20937 0.48755 0.0
C318 C 0.83013 0.25573 0.47601 0.0
C319 C 0.73166 0.21836 0.31895 0.0
C320 C 0.7034 0.22323 0.31322 0.0
C321 C 0.68853 0.23634 0.33531 0.0
C322 C 0.70138 0.24384 0.36307 0.0
C323 C 0.72921 0.2378 0.36892 0.0
C324 C 0.74397 0.22551 0.34691 0.0
C325 C 0.77252 0.21913 0.35754 0.0
C326 C 0.77252 0.22972 0.38963 0.0
C327 C 0.74712 0.24055 0.39614 0.0
C328 C 0.77043 0.18726 0.35574 0.0
C329 C 0.79789 0.23585 0.33848 0.0
C330 C 0.71051 0.2824 0.49034 0.0
C331 C 0.7232 0.28975 0.5182 0.0
C332 C 0.75024 0.28245 0.52492 0.0
C333 C 0.76453 0.26784 0.50378 0.0
C334 C 0.75183 0.2612 0.4756 0.0
C335 C 0.72534 0.26867 0.46928 0.0
C336 C 0.71628 0.26229 0.4375 0.0
C337 C 0.74205 0.25027 0.42545 0.0
C338 C 0.76242 0.24906 0.44801 0.0
C339 C 0.68743 0.24052 0.43808 0.0
C340 C 0.71397 0.28985 0.42195 0.0
H341 H 0.83093 0.20622 0.36696 0.0
H342 H 0.85418 0.19874 0.47409 0.0
H343 H 0.85046 0.26165 0.46211 0.0
H344 H 0.81967 0.27429 0.47609 0.0
H345 H 0.83701 0.25217 0.4991 0.0
H346 H 0.7838 0.18956 0.47709 0.0
H347 H 0.81114 0.20456 0.50353 0.0
H348 H 0.77767 0.21748 0.50057 0.0
H349 H 0.74335 0.20783 0.30256 0.0
H350 H 0.66674 0.24033 0.33125 0.0
H351 H 0.68884 0.25347 0.37912 0.0
H352 H 0.74883 0.17645 0.36471 0.0
H353 H 0.77261 0.18026 0.33219 0.0
H354 H 0.78696 0.17964 0.36903 0.0
H355 H 0.79178 0.25497 0.3294 0.0
H356 H 0.8177 0.24339 0.35182 0.0
H357 H 0.80384 0.22338 0.31917 0.0
H358 H 0.87 0.18279 0.38006 0.0
C359 C 0.83544 0.20494 0.3903 0.0
C360 C 0.41839 0.67803 0.29141 0.0
C361 C 0.40641 0.65213 0.30457 0.0
C362 C 0.38092 0.63647 0.29168 0.0
C363 C 0.37947 0.67197 0.25442 0.0
C364 C 0.40456 0.68751 0.26652 0.0
C365 C 0.414 0.71452 0.24984 0.0
H366 H 0.38797 0.80119 0.1382 0.0
C367 C 0.37027 0.6874 0.22881 0.0
C368 C 0.39051 0.71256 0.22594 0.0
H369 H 0.45965 0.81539 0.20014 0.0
H370 H 0.44149 0.77081 0.22304 0.0
H371 H 0.3375 0.77522 0.18631 0.0
H372 H 0.39186 0.73933 0.1238 0.0
H373 H 0.35753 0.71722 0.12402 0.0
H374 H 0.36043 0.75265 0.1121 0.0
H375 H 0.33311 0.77567 0.14649 0.0
H376 H 0.31502 0.74698 0.16882 0.0
C377 C 0.41285 0.73875 0.272 0.0
C378 C 0.44475 0.71468 0.2358 0.0
C379 C 0.27851 0.64556 0.16953 0.0
C380 C 0.26514 0.65458 0.14422 0.0
C381 C 0.27781 0.68039 0.13174 0.0
C382 C 0.303 0.69678 0.14387 0.0
C383 C 0.31621 0.68749 0.16892 0.0
C384 C 0.30404 0.66221 0.18129 0.0
C385 C 0.32165 0.65554 0.20746 0.0
C386 C 0.34621 0.68098 0.20878 0.0
C387 C 0.34274 0.6997 0.18619 0.0
C388 C 0.30161 0.65329 0.2358 0.0
C389 C 0.3336 0.62882 0.19956 0.0
C390 C 0.39968 0.79496 0.1569 0.0
C391 C 0.4253 0.81228 0.16731 0.0
C392 C 0.44001 0.80265 0.19136 0.0
C393 C 0.42932 0.77671 0.2048 0.0
C394 C 0.4036 0.75976 0.19413 0.0
C395 C 0.38944 0.76909 0.17038 0.0
C396 C 0.36291 0.74839 0.16116 0.0
C397 C 0.36303 0.72522 0.1834 0.0
C398 C 0.38687 0.73178 0.20296 0.0
C399 C 0.33558 0.76213 0.16564 0.0
C400 C 0.36813 0.73892 0.12854 0.0
H401 H 0.34826 0.63299 0.25862 0.0
H402 H 0.43783 0.69084 0.3005 0.0
H403 H 0.44609 0.69402 0.22588 0.0
H404 H 0.45001 0.7295 0.21728 0.0
H405 H 0.46203 0.71955 0.25294 0.0
H406 H 0.39245 0.73451 0.28603 0.0
H407 H 0.43185 0.74174 0.28723 0.0
H408 H 0.41242 0.75848 0.26067 0.0
H409 H 0.26962 0.62579 0.17963 0.0
H410 H 0.26795 0.68819 0.11263 0.0
H411 H 0.31122 0.71617 0.13318 0.0
H412 H 0.28743 0.66927 0.23569 0.0
H413 H 0.287 0.63265 0.23696 0.0
H414 H 0.314 0.65713 0.25675 0.0
H415 H 0.33932 0.62804 0.17529 0.0
H416 H 0.35416 0.62765 0.21109 0.0
H417 H 0.31704 0.60999 0.20474 0.0
H418 H 0.37135 0.61629 0.30043 0.0
C419 C 0.36752 0.64615 0.26702 0.0
C420 C 0.11941 0.28329 0.68094 0.0
C421 C 0.1308 0.26866 0.65728 0.0
C422 C 0.15716 0.28137 0.64299 0.0
C423 C 0.16065 0.32188 0.67555 0.0
C424 C 0.13483 0.30973 0.68984 0.0
C425 C 0.12683 0.32804 0.71515 0.0
H426 H 0.15998 0.44924 0.79578 0.0
C427 C 0.17152 0.34926 0.68989 0.0
C428 C 0.15187 0.35312 0.71334 0.0
H429 H 0.08622 0.38233 0.80969 0.0
H430 H 0.10261 0.35709 0.76777 0.0
H431 H 0.15676 0.44918 0.72416 0.0
H432 H 0.20841 0.40966 0.7833 0.0
H433 H 0.23129 0.42462 0.75371 0.0
H434 H 0.21445 0.44656 0.77859 0.0
H435 H 0.18702 0.46845 0.74445 0.0
H436 H 0.19231 0.45265 0.70854 0.0
C437 C 0.09692 0.3359 0.70819 0.0
C438 C 0.12699 0.31227 0.74485 0.0
C439 C 0.26542 0.40925 0.64903 0.0
C440 C 0.28127 0.43572 0.65667 0.0
C441 C 0.27051 0.45025 0.6807 0.0
C442 C 0.24478 0.43871 0.69673 0.0
C443 C 0.22926 0.41225 0.68879 0.0
C444 C 0.23969 0.39807 0.66521 0.0
C445 C 0.22035 0.37035 0.65959 0.0
C446 C 0.19658 0.37012 0.68363 0.0
C447 C 0.20186 0.39467 0.70082 0.0
C448 C 0.20792 0.37058 0.62764 0.0
C449 C 0.23876 0.34752 0.66471 0.0
C450 C 0.14745 0.42902 0.79016 0.0
C451 C 0.12162 0.41801 0.8065 0.0
C452 C 0.10593 0.39172 0.79757 0.0
C453 C 0.11562 0.3769 0.77323 0.0
C454 C 0.14145 0.38822 0.75727 0.0
C455 C 0.15684 0.41395 0.7659 0.0
C456 C 0.18369 0.42305 0.74636 0.0
C457 C 0.18215 0.39858 0.72478 0.0
C458 C 0.15728 0.37803 0.73113 0.0
C459 C 0.18008 0.44984 0.73007 0.0
C460 C 0.21103 0.42639 0.76636 0.0
H461 H 0.19184 0.31588 0.63981 0.0
H462 H 0.09932 0.27415 0.69259 0.0
H463 H 0.14581 0.30111 0.74511 0.0
H464 H 0.12978 0.32614 0.76463 0.0
H465 H 0.10651 0.29668 0.74781 0.0
H466 H 0.09601 0.34128 0.68416 0.0
H467 H 0.07862 0.31835 0.71292 0.0
H468 H 0.0929 0.35432 0.72085 0.0
H469 H 0.27262 0.39754 0.63052 0.0
H470 H 0.28226 0.47048 0.68743 0.0
H471 H 0.23798 0.45087 0.71479 0.0
H472 H 0.20344 0.39145 0.62222 0.0
H473 H 0.2237 0.36525 0.61049 0.0
H474 H 0.18662 0.35647 0.62504 0.0
H475 H 0.25522 0.35387 0.68246 0.0
H476 H 0.22541 0.32792 0.67285 0.0
H477 H 0.25088 0.34326 0.64397 0.0
H478 H 0.1663 0.271 0.6245 0.0
C479 C 0.17198 0.30766 0.65186 0.0
Gd480 Gd 0.03872 0.0428 0.50267 0.0
Gd481 Gd 0.99893 1.02354 0.55475 0.0
C482 C 0.04294 0.08401 0.55855 0.0
C483 C 0.06537 0.05938 0.45315 0.0
C484 C 0.08681 0.08406 0.44453 0.0
C485 C 0.11143 0.08074 0.42721 0.0
C486 C 0.08412 0.11062 0.45501 0.0
C487 C 0.1306 0.13028 0.43067 0.0
C488 C 0.10577 0.13356 0.448 0.0
C489 C 0.13318 0.10357 0.42044 0.0
C490 C 0.0632 1.01799 0.54626 0.0
C491 C 0.99415 0.98257 0.49829 0.0
C492 C 0.97299 1.00639 0.60446 0.0
C493 C 0.94869 0.98363 0.6127 0.0
C494 C 0.92181 0.98999 0.62271 0.0
C495 C 0.95152 0.95567 0.60986 0.0
C496 C 0.90086 0.94089 0.62685 0.0
C497 C 0.92786 0.93453 0.61695 0.0
C498 C 0.89811 0.96889 0.6295 0.0
C499 C 0.97417 0.04899 0.51172 0.0
O500 O 0.04664 0.08265 0.52918 0.0
O501 O 0.02864 0.06228 0.57355 0.0
O502 O 0.07502 0.04274 0.47148 0.0
O503 O 0.03874 0.06303 0.4599 0.0
O504 O 0.07668 0.03982 0.53234 0.0
O505 O 0.03795 1.01011 0.53604 0.0
O506 O 0.98908 0.98419 0.52744 0.0
O507 O 1.0099 1.00379 0.48368 0.0
O508 O 0.96571 1.02628 0.58877 0.0
O509 O 0.99775 0.99958 0.59528 0.0
O510 O 0.96042 1.02768 0.52636 0.0
O511 O 0.99973 0.05631 0.5214 0.0
H512 H 0.11408 0.06035 0.41932 0.0
H513 H 0.06544 0.11364 0.46878 0.0
H514 H 0.10295 0.15386 0.45596 0.0
H515 H 0.15226 0.10019 0.40756 0.0
H516 H 0.919 1.01136 0.625 0.0
H517 H 0.97195 0.95005 0.60215 0.0
H518 H 0.93089 0.91322 0.61508 0.0
H519 H 0.87754 0.97457 0.63661 0.0
Gd520 Gd 0.54251 0.04027 0.03936 0.0
Gd521 Gd 0.48714 1.02492 1.0086 0.0
C522 C 0.48922 0.06649 0.06299 0.0
C523 C 0.59436 0.06012 0.05878 0.0
C524 C 0.60455 0.07723 0.08494 0.0
C525 C 0.63422 0.08195 0.09248 0.0
C526 C 0.58465 0.0895 0.10214 0.0
C527 C 0.62418 0.11171 0.13394 0.0
C528 C 0.5944 0.1067 0.12639 0.0
C529 C 0.64398 0.09903 0.11691 0.0
C530 C 0.5042 0.99866 0.06714 0.0
C531 C 0.54067 0.99588 0.98588 0.0
C532 C 0.43885 1.00087 0.98455 0.0
C533 C 0.4281 0.97378 0.97078 0.0
C534 C 0.40115 0.9693 0.95638 0.0
C535 C 0.4452 0.95296 0.97031 0.0
C536 C 0.40918 0.924 0.93915 0.0
C537 C 0.43585 0.92824 0.95447 0.0
C538 C 0.39172 0.94462 0.94072 0.0
C539 C 0.51721 0.07603 0.99243 0.0
O540 O 0.51764 0.07203 0.0575 0.0
O541 O 0.47276 0.04457 0.05079 0.0
O542 O 0.58065 0.03495 0.06443 0.0
O543 O 0.58119 0.07245 0.03882 0.0
O544 O 0.51972 1.01959 0.08103 0.0
O545 O 0.50935 1.00115 0.03938 0.0
O546 O 0.51278 0.99737 0.98301 0.0
O547 O 0.55726 1.01135 1.00558 0.0
O548 O 0.45988 1.01682 0.96966 0.0
O549 O 0.44325 1.00093 1.01341 0.0
O550 O 0.48913 0.06993 0.99705 0.0
O551 O 0.52822 0.05455 0.99608 0.0
H552 H 0.64982 0.07264 0.07935 0.0
H553 H 0.5616 0.08591 0.0967 0.0
H554 H 0.57863 0.11591 0.13938 0.0
H555 H 0.66709 0.10271 0.12219 0.0
H556 H 0.3878 0.98524 0.95648 0.0
H557 H 0.46604 0.95609 0.98154 0.0
H558 H 0.4497 0.91271 0.95372 0.0
H559 H 0.37136 0.94226 0.92867 0.0
Gd560 Gd 0.51881 0.51011 0.50678 0.0
Gd561 Gd 0.5205 0.55886 0.54462 0.0
C562 C 0.54469 0.51029 0.57546 0.0
C563 C 0.53447 0.46832 0.47983 0.0
C564 C 0.55429 0.45022 0.48975 0.0
C565 C 0.54816 0.4218 0.48316 0.0
C566 C 0.57853 0.461 0.50749 0.0
C567 C 0.59058 0.41518 0.51157 0.0
C568 C 0.59645 0.44364 0.51837 0.0
C569 C 0.56622 0.4044 0.49392 0.0
C570 C 0.46707 0.5104 0.53591 0.0
C571 C 0.49333 0.55828 0.47666 0.0
C572 C 0.5062 0.60151 0.57097 0.0
C573 C 0.48549 0.61886 0.56139 0.0
C574 C 0.49228 0.64771 0.56494 0.0
C575 C 0.45967 0.60677 0.5467 0.0
C576 C 0.44704 0.65213 0.54022 0.0
C577 C 0.44065 0.62323 0.53624 0.0
C578 C 0.47319 0.66425 0.55446 0.0
C579 C 0.57203 0.55821 0.51504 0.0
O580 O 0.54298 0.49937 0.5481 0.0
O581 O 0.53528 0.53366 0.58103 0.0
O582 O 0.50982 0.46633 0.49505 0.0
O583 O 0.54681 0.49399 0.47442 0.0
O584 O 0.46938 0.50241 0.50824 0.0
O585 O 0.49233 0.51745 0.54693 0.0
O586 O 0.49461 0.56876 0.50422 0.0
O587 O 0.5037 0.53547 0.47068 0.0
O588 O 0.52985 0.60304 0.55423 0.0
O589 O 0.4946 0.57606 0.57824 0.0
O590 O 0.57002 0.56591 0.54283 0.0
O591 O 0.54666 0.55157 0.50432 0.0
H592 H 0.52934 0.41307 0.46986 0.0
H593 H 0.58368 0.4829 0.513 0.0
H594 H 0.61524 0.45258 0.5316 0.0
H595 H 0.56103 0.38246 0.48858 0.0
H596 H 0.51235 0.65742 0.57572 0.0
H597 H 0.4541 0.58454 0.54332 0.0
H598 H 0.42051 0.61321 0.52579 0.0
H599 H 0.47882 0.6865 0.55758 0.0
Gd600 Gd 0.02174 0.50685 0.04026 0.0
Gd601 Gd 1.01563 0.56297 1.01121 0.0
C602 C 0.07476 0.55856 0.04754 0.0
C603 C 0.03024 0.45766 0.05225 0.0
C604 C 0.05689 0.44644 0.05912 0.0
C605 C 0.06802 0.44817 0.08825 0.0
C606 C 0.07216 0.43484 0.03619 0.0
C607 C 0.10985 0.42821 0.07105 0.0
C608 C 0.09839 0.42592 0.04205 0.0
C609 C 0.09419 0.43918 0.09413 0.0
C610 C 1.00112 0.54369 0.07706 0.0
C611 C 0.96321 0.50989 1.00109 0.0
C612 C 1.0008 0.61038 1.00265 0.0
C613 C 0.97301 0.6201 0.99706 0.0
C614 C 0.9652 0.6242 0.96747 0.0
C615 C 0.95403 0.62523 1.02062 0.0
C616 C 0.91993 0.63805 0.98482 0.0
C617 C 0.92771 0.63409 1.01454 0.0
C618 C 0.93895 0.63278 0.96143 0.0
C619 C 0.04652 0.53383 0.97296 0.0
O620 O 0.06785 0.53118 0.04489 0.0
O621 O 0.0565 0.57482 0.03918 0.0
O622 O 0.02124 0.47401 0.07238 0.0
O623 O 0.02867 0.46652 1.02497 0.0
O624 O 0.01848 0.52738 0.08531 0.0
O625 O 0.99433 0.53883 0.04988 0.0
O626 O 0.97247 0.53688 0.99751 0.0
O627 O 0.97834 0.49441 1.01639 0.0
O628 O 1.00987 0.59542 0.9812 0.0
O629 O 1.0047 0.60118 0.02943 0.0
O630 O 0.04062 0.55802 0.96725 0.0
O631 O 0.03624 0.52755 0.99879 0.0
H632 H 0.05669 0.45671 0.10653 0.0
H633 H 0.06405 0.43301 1.01357 0.0
H634 H 0.10995 0.41767 1.02374 0.0
H635 H 0.10206 0.44064 0.11687 0.0
H636 H 0.97933 0.62057 0.9488 0.0
H637 H 0.95948 0.62243 0.0437 0.0
H638 H 0.91368 0.63818 0.0331 0.0
H639 H 0.93344 0.63502 0.93825 0.0
C640 C 0.23456 0.26345 0.36617 0.0
C641 C 0.26398 0.26002 0.36585 0.0
C642 C 0.21307 0.24577 0.38272 0.0
C643 C 0.2211 0.22385 0.39891 0.0
C644 C 0.2511 0.22219 0.40141 0.0
C645 C 0.27226 0.24052 0.38505 0.0
C646 C 0.18137 0.24868 0.38004 0.0
C647 C 0.26061 0.19922 0.41862 0.0
C648 C 0.1628 0.17578 0.44394 0.0
C649 C 0.15368 0.15453 0.42292 0.0
C650 C 0.18479 0.19859 0.43663 0.0
C651 C 0.19812 0.19994 0.40779 0.0
C652 C 0.18905 0.17853 0.38656 0.0
C653 C 0.16681 0.15628 0.3943 0.0
C654 C 0.19369 0.22123 0.45964 0.0
C655 C 0.20271 0.17917 0.3555 0.0
H656 H 0.22769 0.27833 0.35147 0.0
H657 H 0.29504 0.23824 0.38569 0.0
H658 H 0.17041 0.23306 0.36374 0.0
H659 H 0.16949 0.24486 0.40182 0.0
H660 H 0.17934 0.26958 0.37209 0.0
H661 H 0.28449 0.20382 0.42319 0.0
H662 H 0.2483 0.1956 0.44017 0.0
H663 H 0.25586 0.17971 0.40529 0.0
H664 H 0.15298 0.17444 0.46622 0.0
H665 H 0.15949 0.14031 0.37772 0.0
H666 H 0.19043 0.24141 0.45074 0.0
H667 H 0.21736 0.22326 0.46445 0.0
H668 H 0.18095 0.2172 0.48097 0.0
H669 H 0.19859 0.1976 0.34336 0.0
H670 H 0.19389 0.16036 0.34208 0.0
H671 H 0.22684 0.1809 0.35696 0.0
C672 C 0.35144 0.86455 0.79266 0.0
C673 C 0.34325 0.83619 0.78624 0.0
C674 C 0.36483 0.87382 0.81959 0.0
C675 C 0.37062 0.85424 0.84057 0.0
C676 C 0.36391 0.82556 0.8336 0.0
C677 C 0.35012 0.81682 0.80646 0.0
C678 C 0.37177 0.90465 0.82599 0.0
C679 C 0.37024 0.80413 0.85519 0.0
C680 C 0.42117 0.89222 0.89843 0.0
C681 C 0.40064 0.89978 0.91894 0.0
C682 C 0.412 0.87442 0.87422 0.0
C683 C 0.38166 0.86435 0.87042 0.0
C684 C 0.36131 0.86938 0.89294 0.0
C685 C 0.37111 0.88696 0.91704 0.0
C686 C 0.43446 0.86886 0.85114 0.0
C687 C 0.32879 0.85882 0.88991 0.0
H688 H 0.34694 0.8796 0.77669 0.0
H689 H 0.34388 0.79486 0.80153 0.0
H690 H 0.35902 0.90963 0.84598 0.0
H691 H 0.39537 0.91117 0.83103 0.0
H692 H 0.36653 0.91708 0.80692 0.0
H693 H 0.36916 0.78353 0.84419 0.0
H694 H 0.39223 0.81061 0.86508 0.0
H695 H 0.35383 0.80191 0.87382 0.0
H696 H 0.44409 0.90192 0.89982 0.0
H697 H 0.35531 0.89219 0.93334 0.0
H698 H 0.43441 0.88288 0.83186 0.0
H699 H 0.42913 0.84723 0.84258 0.0
H700 H 0.45693 0.87258 0.8604 0.0
H701 H 0.32009 0.87096 0.87256 0.0
H702 H 0.31657 0.86079 0.91125 0.0
H703 H 0.32445 0.83679 0.88261 0.0
C704 C 0.63363 0.44052 0.69845 0.0
C705 C 0.61576 0.42694 0.72167 0.0
C706 C 0.62181 0.45307 0.67443 0.0
C707 C 0.59112 0.45221 0.67306 0.0
C708 C 0.5728 0.43785 0.6959 0.0
C709 C 0.58525 0.42544 0.71976 0.0
C710 C 0.64236 0.46765 0.65062 0.0
C711 C 0.53999 0.43606 0.69546 0.0
C712 C 0.56428 0.50879 0.62797 0.0
C713 C 0.55669 0.49549 0.60039 0.0
C714 C 0.5753 0.49501 0.65163 0.0
C715 C 0.5785 0.4669 0.64817 0.0
C716 C 0.57049 0.45325 0.62051 0.0
C717 C 0.56003 0.46767 0.59702 0.0
C718 C 0.5838 0.5107 0.68036 0.0
C719 C 0.5727 0.42321 0.61579 0.0
H720 H 0.65713 0.44142 0.69904 0.0
H721 H 0.57107 0.41524 0.73742 0.0
H722 H 0.63636 0.45828 0.62834 0.0
H723 H 0.64026 0.48978 0.64968 0.0
H724 H 0.66565 0.46654 0.65475 0.0
H725 H 0.52854 0.4229 0.71371 0.0
H726 H 0.53472 0.45713 0.69789 0.0
H727 H 0.53126 0.42749 0.67367 0.0
H728 H 0.56189 0.53021 0.63103 0.0
H729 H 0.55404 0.45693 0.57606 0.0
H730 H 0.60742 0.51131 0.68457 0.0
H731 H 0.57122 0.49989 0.6995 0.0
H732 H 0.57979 0.5323 0.67981 0.0
H733 H 0.5955 0.42031 0.61952 0.0
H734 H 0.56609 0.41558 0.59296 0.0
H735 H 0.55844 0.41023 0.6324 0.0
C736 C 0.94513 0.65301 0.19304 0.0
C737 C 0.92743 0.63852 0.21588 0.0
C738 C 0.95646 0.63907 0.16886 0.0
C739 C 0.94955 0.60974 0.16662 0.0
C740 C 0.93095 0.59501 0.18891 0.0
C741 C 0.9205 0.60941 0.21324 0.0
C742 C 0.97655 0.65576 0.14606 0.0
C743 C 0.92254 0.56382 0.18745 0.0
C744 C 0.96289 0.5725 0.09239 0.0
C745 C 0.98855 0.56237 0.09844 0.0
C746 C 0.95006 0.58816 0.11409 0.0
C747 C 0.96342 0.59431 0.14239 0.0
C748 C 0.98993 0.58493 0.14799 0.0
C749 C 1.00191 0.56897 0.12621 0.0
C750 C 0.9217 0.5974 0.10705 0.0
C751 C 1.00556 0.59143 0.17728 0.0
H752 H 0.95031 0.67542 0.19395 0.0
H753 H 0.90739 0.59755 0.23059 0.0
H754 H 0.99857 0.64998 0.14662 0.0
H755 H 0.96806 0.65102 0.12318 0.0
H756 H 0.97904 0.67844 0.15019 0.0
H757 H 0.90579 0.55555 0.20477 0.0
H758 H 0.9138 0.5571 0.16505 0.0
H759 H 0.94224 0.55444 0.19069 0.0
H760 H 0.95237 0.56751 0.07105 0.0
H761 H 0.02187 0.56147 0.13105 0.0
H762 H 0.92398 0.62011 0.11046 0.0
H763 H 0.9041 0.58732 0.1226 0.0
H764 H 0.91477 0.59218 0.08368 0.0
H765 H 1.00963 0.61411 0.18167 0.0
H766 H 0.02688 0.58418 0.17749 0.0
H767 H 0.99156 0.58141 0.19594 0.0
C768 C 0.39947 0.1775 0.1308 0.0
C769 C 0.40738 0.18525 0.16033 0.0
C770 C 0.41303 0.15837 0.11476 0.0
C771 C 0.43447 0.14609 0.12882 0.0
C772 C 0.44254 0.15369 0.15857 0.0
C773 C 0.42927 0.17347 0.17376 0.0
C774 C 0.40435 0.15124 0.0828 0.0
C775 C 0.46503 0.14076 0.17446 0.0
C776 C 0.44897 0.07782 0.09625 0.0
C777 C 0.47552 0.08644 0.08067 0.0
C778 C 0.43558 0.09697 0.11249 0.0
C779 C 0.44867 0.12544 0.11232 0.0
C780 C 0.47538 0.13422 0.09636 0.0
C781 C 0.48869 0.11455 0.08107 0.0
C782 C 0.40752 0.08674 0.12991 0.0
C783 C 0.48964 0.16446 0.09498 0.0
H784 H 0.3823 0.186 0.12026 0.0
H785 H 0.43615 0.17969 0.19625 0.0
H786 H 0.42406 0.15499 0.06785 0.0
H787 H 0.39453 0.12892 0.08088 0.0
H788 H 0.3883 0.16356 0.07468 0.0
H789 H 0.46802 0.14813 0.19802 0.0
H790 H 0.45827 0.11785 0.1744 0.0
H791 H 0.48651 0.14565 0.16249 0.0
H792 H 0.43886 0.05606 0.09603 0.0
H793 H 0.50906 0.12131 0.0687 0.0
H794 H 0.38955 0.09635 0.12123 0.0
H795 H 0.41033 0.09301 0.15379 0.0
H796 H 0.40073 0.06384 0.12859 0.0
H797 H 0.47412 0.17669 0.08562 0.0
H798 H 0.51005 0.1679 0.08101 0.0
H799 H 0.49506 0.17264 0.11785 0.0
C800 C 0.16641 0.91867 0.59423 0.0
C801 C 0.16486 0.9101 0.62415 0.0
C802 C 0.14834 0.93631 0.58391 0.0
C803 C 0.12881 0.94631 0.60419 0.0
C804 C 0.12728 0.93809 0.63448 0.0
C805 C 0.14506 0.91978 0.64403 0.0
C806 C 0.15026 0.94431 0.55128 0.0
C807 C 0.10705 0.9488 0.65681 0.0
C808 C 0.10535 1.01141 0.57709 0.0
C809 C 0.07815 1.00051 0.56467 0.0
C810 C 0.12135 0.99418 0.59181 0.0
C811 C 0.11007 0.96538 0.59337 0.0
C812 C 0.08199 0.95452 0.58195 0.0
C813 C 0.06617 0.97234 0.56802 0.0
C814 C 0.15087 1.00659 0.60448 0.0
C815 C 0.06946 0.92386 0.58272 0.0
H816 H 0.18207 0.91193 0.57881 0.0
H817 H 0.14335 0.913 0.66708 0.0
H818 H 0.12826 0.93905 0.54112 0.0
H819 H 0.15771 0.96703 0.54924 0.0
H820 H 0.16566 0.93373 0.53818 0.0
H821 H 0.10906 0.94098 0.67975 0.0
H822 H 0.11201 0.9718 0.65749 0.0
H823 H 0.08395 0.94255 0.6498 0.0
H824 H 0.1144 0.03329 0.57474 0.0
H825 H 0.04505 0.96393 0.55843 0.0
H826 H 0.16851 0.99983 0.59073 0.0
H827 H 0.15268 0.9992 0.62761 0.0
H828 H 0.15476 1.02962 0.60481 0.0
H829 H 0.08285 0.91259 0.56786 0.0
H830 H 0.04636 0.91912 0.57521 0.0
H831 H 0.07039 0.91573 0.60565 0.0
C832 C 0.82375 0.43963 0.90232 0.0
C833 C 0.79912 0.42968 0.92053 0.0
C834 C 0.85042 0.4533 0.91477 0.0
C835 C 0.85253 0.45763 0.94621 0.0
C836 C 0.82741 0.44836 0.96456 0.0
C837 C 0.80124 0.4344 0.95159 0.0
C838 C 0.8766 0.46245 0.8943 0.0
C839 C 0.82826 0.45291 0.99805 0.0
C840 C 0.92749 0.46758 0.98378 0.0
C841 C 0.93474 0.49652 0.98736 0.0
C842 C 0.90116 0.45479 0.97011 0.0
C843 C 0.8811 0.47116 0.96007 0.0
C844 C 0.88818 0.50036 0.96385 0.0
C845 C 0.91488 0.51264 0.97716 0.0
C846 C 0.89486 0.42367 0.9663 0.0
C847 C 0.86739 0.51869 0.95403 0.0
H848 H 0.82248 0.43592 0.87836 0.0
H849 H 0.78228 0.42711 0.96587 0.0
H850 H 0.88494 0.48499 0.89724 0.0
H851 H 0.89461 0.45156 0.90025 0.0
H852 H 0.87133 0.45817 0.87035 0.0
H853 H 0.80655 0.44572 1.00906 0.0
H854 H 0.84439 0.44163 1.00786 0.0
H855 H 0.83558 0.47524 1.0033 0.0
H856 H 0.94263 0.45484 0.99128 0.0
H857 H 0.92005 0.53499 0.97982 0.0
H858 H 0.89131 0.41811 0.94232 0.0
H859 H 0.87441 0.41476 0.97872 0.0
H860 H 0.91298 0.4139 0.97445 0.0
H861 H 0.8634 0.51587 0.92969 0.0
H862 H 0.87594 0.54099 0.95864 0.0
H863 H 0.84589 0.51267 0.96579 0.0
C864 C 0.70882 0.637 0.41924 0.0
C865 C 0.72899 0.6205 0.40943 0.0
C866 C 0.68326 0.62571 0.43573 0.0
C867 C 0.67754 0.59714 0.44289 0.0
C868 C 0.69766 0.5803 0.43289 0.0
C869 C 0.723 0.59212 0.41627 0.0
C870 C 0.66241 0.64446 0.44564 0.0
C871 C 0.69264 0.54982 0.44012 0.0
C872 C 0.62628 0.57603 0.51019 0.0
C873 C 0.59939 0.56587 0.49652 0.0
C874 C 0.65194 0.58556 0.49305 0.0
C875 C 0.65081 0.58514 0.46134 0.0
C876 C 0.62384 0.57421 0.44741 0.0
C877 C 0.59854 0.56464 0.46512 0.0
C878 C 0.68015 0.59674 0.50896 0.0
C879 C 0.6215 0.57334 0.41375 0.0
H880 H 0.71287 0.65883 0.41376 0.0
H881 H 0.7385 0.57918 0.40918 0.0
H882 H 0.64017 0.63639 0.43699 0.0
H883 H 0.66056 0.64479 0.47044 0.0
H884 H 0.66961 0.66607 0.43778 0.0
H885 H 0.70992 0.53938 0.43016 0.0
H886 H 0.69222 0.5471 0.46475 0.0
H887 H 0.67101 0.53932 0.43176 0.0
H888 H 0.6272 0.57696 0.53442 0.0
H889 H 0.57788 0.55682 0.45433 0.0
H890 H 0.68725 0.61907 0.50395 0.0
H891 H 0.69782 0.58593 0.50076 0.0
H892 H 0.67782 0.59431 0.53363 0.0
H893 H 0.62627 0.59475 0.4049 0.0
H894 H 0.59936 0.56315 0.40631 0.0
H895 H 0.63801 0.56207 0.40369 0.0
C896 C 0.26215 0.37809 0.10816 0.0
C897 C 0.25571 0.36205 0.13401 0.0
C898 C 0.24036 0.38999 0.09457 0.0
C899 C 0.2116 0.38559 0.10717 0.0
C900 C 0.20495 0.36899 0.13291 0.0
C901 C 0.22699 0.35737 0.14588 0.0
C902 C 0.24814 0.40746 0.06703 0.0
C903 C 0.17454 0.36365 0.14699 0.0
C904 C 0.15815 0.43428 0.09685 0.0
C905 C 0.13776 0.41881 0.07748 0.0
C906 C 0.18328 0.42445 0.10535 0.0
C907 C 0.18824 0.39857 0.09411 0.0
C908 C 0.16862 0.38359 0.07326 0.0
C909 C 0.14355 0.39385 0.06527 0.0
C910 C 0.20368 0.44106 0.12763 0.0
C911 C 0.1732 0.35597 0.06069 0.0
H912 H 0.28429 0.38173 0.09889 0.0
H913 H 0.22165 0.34436 0.16538 0.0
H914 H 0.23327 0.39929 0.04853 0.0
H915 H 0.24504 0.42899 0.07178 0.0
H916 H 0.27118 0.40802 0.05936 0.0
H917 H 0.17298 0.35009 0.16689 0.0
H918 H 0.16826 0.38358 0.15398 0.0
H919 H 0.15829 0.35372 0.13042 0.0
H920 H 0.15416 0.4539 0.10583 0.0
H921 H 0.12786 0.3817 0.0504 0.0
H922 H 0.22679 0.44332 0.11964 0.0
H923 H 0.20187 0.42994 0.14925 0.0
H924 H 0.19852 0.46203 0.13172 0.0
H925 H 0.19621 0.35723 0.05272 0.0
H926 H 0.1583 0.34878 0.04187 0.0
H927 H 0.16906 0.34018 0.07857 0.0
C928 C 0.59716 0.22857 0.93632 0.0
C929 C 0.59531 0.23124 0.90508 0.0
C930 C 0.58597 0.20337 0.95099 0.0
C931 C 0.57231 0.17988 0.9343 0.0
C932 C 0.57049 0.18231 0.90278 0.0
C933 C 0.58195 0.20775 0.88865 0.0
C934 C 0.58842 0.20203 0.98456 0.0
C935 C 0.55618 0.15801 0.88391 0.0
C936 C 0.5617 0.10701 0.96889 0.0
C937 C 0.53218 0.10269 0.97846 0.0
C938 C 0.57511 0.13195 0.95471 0.0
C939 C 0.55872 0.15325 0.94989 0.0
C940 C 0.52902 0.14902 0.95992 0.0
C941 C 0.51625 0.124 0.97399 0.0
C942 C 0.60681 0.13543 0.94466 0.0
C943 C 0.51054 0.1709 0.95555 0.0
H944 H 0.60692 0.24643 0.94956 0.0
H945 H 0.58066 0.20911 0.86455 0.0
H946 H 0.56617 0.1978 0.99506 0.0
H947 H 0.59951 0.18474 0.99058 0.0
H948 H 0.60081 0.22159 0.99425 0.0
H949 H 0.55711 0.16287 0.85966 0.0
H950 H 0.5671 0.14003 0.88735 0.0
H951 H 0.53285 0.15161 0.89095 0.0
H952 H 0.57427 0.09078 0.97224 0.0
H953 H 0.49348 0.12105 0.98138 0.0
H954 H 0.61972 0.15429 0.95517 0.0
H955 H 0.60857 0.13834 0.92005 0.0
H956 H 0.61677 0.11731 0.95044 0.0
H957 H 0.52093 0.1906 0.96648 0.0
H958 H 0.48792 0.16467 0.96487 0.0
H959 H 0.50915 0.1751 0.93132 0.0
C960 C 0.90552 0.84809 0.41321 0.0
C961 C 0.92221 0.82739 0.40722 0.0
C962 C 0.91793 0.87367 0.42649 0.0
C963 C 0.94791 0.87894 0.43439 0.0
C964 C 0.96515 0.85846 0.42764 0.0
C965 C 0.95218 0.83307 0.414 0.0
C966 C 0.89867 0.89483 0.43274 0.0
C967 C 0.99711 0.86299 0.43576 0.0
C968 C 0.98463 0.95436 0.4504 0.0
C969 C 0.98256 0.95607 0.4818 0.0
C970 C 0.9738 0.92947 0.43474 0.0
C971 C 0.96072 0.9054 0.45072 0.0
C972 C 0.95884 0.90694 0.48243 0.0
C973 C 0.9696 0.93213 0.49748 0.0
C974 C 0.97604 0.92902 0.40099 0.0
C975 C 0.94527 0.88193 0.50055 0.0
H976 H 0.88243 0.84411 0.40776 0.0
H977 H 0.96525 0.81721 0.40973 0.0
H978 H 0.89677 0.89823 0.45726 0.0
H979 H 0.90868 0.91501 0.42273 0.0
H980 H 0.87626 0.88828 0.42376 0.0
H981 H 1.00793 0.84578 0.42774 0.0
H982 H 1.00903 0.88268 0.42609 0.0
H983 H 0.99914 0.86484 0.46045 0.0
H984 H 0.99454 0.97259 0.43792 0.0
H985 H 0.96795 0.93296 0.5217 0.0
H986 H 0.95376 0.92389 0.39146 0.0
H987 H 0.98818 0.91265 0.39335 0.0
H988 H 0.98733 0.94921 0.39182 0.0
H989 H 0.92193 0.87522 0.49451 0.0
H990 H 0.94636 0.88615 0.52504 0.0
H991 H 0.95663 0.86439 0.4953 0.0
C992 C 0.32769 0.74741 0.51885 0.0
C993 C 0.30532 0.73434 0.53807 0.0
C994 C 0.35 0.73347 0.50896 0.0
C995 C 0.34971 0.70618 0.51894 0.0
C996 C 0.32467 0.69168 0.53437 0.0
C997 C 0.30272 0.70608 0.54393 0.0
C998 C 0.37577 0.74919 0.49144 0.0
C999 C 0.32308 0.66231 0.54476 0.0
C1000 C 0.40928 0.66366 0.50537 0.0
C1001 C 0.42517 0.6691 0.5319 0.0
C1002 C 0.38574 0.67703 0.49951 0.0
C1003 C 0.37769 0.69581 0.52101 0.0
C1004 C 0.39474 0.70252 0.547 0.0
C1005 C 0.41828 0.68913 0.55204 0.0
C1006 C 0.36869 0.66978 0.47119 0.0
C1007 C 0.38699 0.72252 0.57058 0.0
H1008 H 0.32958 0.76934 0.51436 0.0
H1009 H 0.28525 0.6961 0.55877 0.0
H1010 H 0.39353 0.75774 0.5071 0.0
H1011 H 0.38462 0.73536 0.47523 0.0
H1012 H 0.36963 0.76675 0.47917 0.0
H1013 H 0.30041 0.65259 0.55172 0.0
H1014 H 0.33078 0.64941 0.52682 0.0
H1015 H 0.3376 0.66235 0.56422 0.0
H1016 H 0.41468 0.64836 0.48956 0.0
H1017 H 0.43024 0.6932 0.57272 0.0
H1018 H 0.35997 0.68774 0.46274 0.0
H1019 H 0.34981 0.65284 0.47588 0.0
H1020 H 0.38249 0.66238 0.45332 0.0
H1021 H 0.38529 0.74257 0.56028 0.0
H1022 H 0.40347 0.72658 0.58858 0.0
H1023 H 0.36533 0.71396 0.58098 0.0
C1024 C 0.79167 0.81821 0.70279 0.0
C1025 C 0.76198 0.81771 0.69658 0.0
C1026 C 0.8141 0.8352 0.68671 0.0
C1027 C 0.80677 0.85258 0.66421 0.0
C1028 C 0.7771 0.85056 0.65608 0.0
C1029 C 0.75504 0.83295 0.67222 0.0
C1030 C 0.84553 0.83636 0.69575 0.0
C1031 C 0.7684 0.86869 0.63211 0.0
C1032 C 0.85825 0.92192 0.66042 0.0
C1033 C 0.87589 0.91853 0.63527 0.0
C1034 C 0.83506 0.90094 0.66929 0.0
C1035 C 0.82953 0.87568 0.6529 0.0
C1036 C 0.84693 0.87215 0.62725 0.0
C1037 C 0.86986 0.89368 0.61866 0.0
C1038 C 0.81696 0.90558 0.69678 0.0
C1039 C 0.84177 0.84543 0.60937 0.0
H1040 H 0.79755 0.8069 0.72169 0.0
H1041 H 0.73227 0.83224 0.66672 0.0
H1042 H 0.86009 0.8365 0.67573 0.0
H1043 H 0.85318 0.8558 0.70855 0.0
H1044 H 0.84795 0.81858 0.71 0.0
H1045 H 0.74543 0.8614 0.62496 0.0
H1046 H 0.77035 0.89019 0.64091 0.0
H1047 H 0.78323 0.86938 0.61223 0.0
H1048 H 0.86301 0.94079 0.67371 0.0
H1049 H 0.88311 0.89103 0.59894 0.0
H1050 H 0.82017 0.89089 0.71454 0.0
H1051 H 0.79328 0.90151 0.69142 0.0
H1052 H 0.8229 0.92702 0.70586 0.0
H1053 H 0.84653 0.82833 0.62335 0.0
H1054 H 0.85579 0.84672 0.58879 0.0
H1055 H 0.81844 0.8399 0.60291 0.0
C1056 C 0.70373 0.21568 0.25783 0.0
C1057 C 0.68868 0.21207 0.28543 0.0
C1058 C 0.69188 0.20158 0.23212 0.0
C1059 C 0.66452 0.18327 0.23423 0.0
C1060 C 0.64855 0.18065 0.26171 0.0
C1061 C 0.66081 0.19521 0.28701 0.0
C1062 C 0.70934 0.20519 0.20308 0.0
C1063 C 0.61938 0.16121 0.26486 0.0
C1064 C 0.62561 0.15581 0.16306 0.0
C1065 C 0.63448 0.13012 0.15956 0.0
C1066 C 0.63522 0.17343 0.18726 0.0
C1067 C 0.65393 0.165 0.20849 0.0
C1068 C 0.6628 0.139 0.20515 0.0
C1069 C 0.65306 0.12192 0.18062 0.0
C1070 C 0.62554 0.2011 0.19002 0.0
C1071 C 0.68251 0.12918 0.22755 0.0
H1072 H 0.72519 0.22892 0.2566 0.0
H1073 H 0.6493 0.19218 0.30843 0.0
H1074 H 0.71726 0.18574 0.19735 0.0
H1075 H 0.69529 0.20942 0.18452 0.0
H1076 H 0.72862 0.22234 0.20441 0.0
H1077 H 0.60848 0.16362 0.28686 0.0
H1078 H 0.60444 0.16479 0.24683 0.0
H1079 H 0.62274 0.13947 0.26255 0.0
H1080 H 0.61145 0.16228 0.1466 0.0
H1081 H 0.65963 0.10191 0.17814 0.0
H1082 H 0.64501 0.21808 0.18968 0.0
H1083 H 0.6139 0.20258 0.21175 0.0
H1084 H 0.6108 0.20447 0.17168 0.0
H1085 H 0.70371 0.14393 0.22856 0.0
H1086 H 0.68704 0.10824 0.2219 0.0
H1087 H 0.67223 0.12856 0.25024 0.0
C1088 C 0.45055 0.64424 0.33444 0.0
C1089 C 0.41994 0.64093 0.33135 0.0
C1090 C 0.46309 0.63201 0.35836 0.0
C1091 C 0.44479 0.61589 0.38002 0.0
C1092 C 0.41395 0.61312 0.37747 0.0
C1093 C 0.40203 0.62564 0.35349 0.0
C1094 C 0.49605 0.63593 0.36014 0.0
C1095 C 0.39337 0.59646 0.39991 0.0
C1096 C 0.47479 0.56033 0.42378 0.0
C1097 C 0.48061 0.5729 0.45205 0.0
C1098 C 0.46328 0.57402 0.40036 0.0
C1099 C 0.45768 0.60129 0.40481 0.0
C1100 C 0.46373 0.61418 0.43324 0.0
C1101 C 0.47483 0.59986 0.45641 0.0
C1102 C 0.45687 0.55911 0.3708 0.0
C1103 C 0.45867 0.64329 0.43916 0.0
H1104 H 0.46481 0.65577 0.31764 0.0
H1105 H 0.37841 0.62333 0.35209 0.0
H1106 H 0.50333 0.64422 0.38253 0.0
H1107 H 0.50308 0.61563 0.35729 0.0
H1108 H 0.50734 0.65026 0.34277 0.0
H1109 H 0.36994 0.59623 0.39497 0.0
H1110 H 0.39708 0.57477 0.40004 0.0
H1111 H 0.39785 0.60513 0.42277 0.0
H1112 H 0.47904 0.53957 0.41994 0.0
H1113 H 0.47936 0.61004 0.47793 0.0
H1114 H 0.46952 0.57125 0.35252 0.0
H1115 H 0.43326 0.55722 0.36571 0.0
H1116 H 0.46242 0.53804 0.37071 0.0
H1117 H 0.46477 0.65063 0.46222 0.0
H1118 H 0.43525 0.6443 0.43584 0.0
H1119 H 0.47173 0.65773 0.42295 0.0
C1120 C 0.13098 0.44963 0.85224 0.0
C1121 C 0.11104 0.43387 0.83247 0.0
C1122 C 0.12139 0.46496 0.87628 0.0
C1123 C 0.09102 0.46484 0.88093 0.0
C1124 C 0.07074 0.44856 0.8615 0.0
C1125 C 0.08091 0.43344 0.83763 0.0
C1126 C 0.14379 0.48133 0.89679 0.0
C1127 C 0.03816 0.44716 0.86596 0.0
C1128 C 0.06329 0.4892 0.9569 0.0
C1129 C 0.05922 0.51612 0.95049 0.0
C1130 C 0.07347 0.47219 0.93471 0.0
C1131 C 0.08049 0.48251 0.90533 0.0
C1132 C 0.07708 0.50997 0.89904 0.0
C1133 C 0.06646 0.52625 0.92149 0.0
C1134 C 0.07681 0.44333 0.94326 0.0
C1135 C 0.08443 0.52216 0.86837 0.0
H1136 H 0.15425 0.44979 0.84913 0.0
H1137 H 0.06513 0.42165 0.82261 0.0
H1138 H 0.14217 0.5036 0.89636 0.0
H1139 H 0.13921 0.47416 0.92016 0.0
H1140 H 0.16658 0.47926 0.89044 0.0
H1141 H 0.02509 0.43295 0.84962 0.0
H1142 H 0.03145 0.43998 0.88896 0.0
H1143 H 0.03279 0.46814 0.86365 0.0
H1144 H 0.0584 0.48126 0.97921 0.0
H1145 H 0.06358 0.54705 0.91617 0.0
H1146 H 0.09807 0.44448 0.95463 0.0
H1147 H 0.07636 0.4291 0.92371 0.0
H1148 H 0.05911 0.43426 0.95926 0.0
H1149 H 0.10758 0.52139 0.86225 0.0
H1150 H 0.08125 0.54399 0.86715 0.0
H1151 H 0.0704 0.50969 0.85141 0.0
C1152 C 0.61657 0.88851 0.88978 0.0
C1153 C 0.60944 0.86188 0.90216 0.0
C1154 C 0.60407 0.91052 0.90116 0.0
C1155 C 0.5845 0.90608 0.92604 0.0
C1156 C 0.57683 0.87926 0.93842 0.0
C1157 C 0.58916 0.85743 0.92616 0.0
C1158 C 0.61251 0.93875 0.88708 0.0
C1159 C 0.55627 0.8738 0.96522 0.0
C1160 C 0.57986 0.96788 0.97661 0.0
C1161 C 0.55277 0.97434 0.96883 0.0
C1162 C 0.59039 0.94574 0.96281 0.0
C1163 C 0.57363 0.92988 0.94033 0.0
C1164 C 0.54662 0.9367 0.93179 0.0
C1165 C 0.53642 0.95876 0.94627 0.0
C1166 C 0.61913 0.9389 0.97281 0.0
C1167 C 0.52837 0.92052 0.90759 0.0
H1168 H 0.63263 0.89247 0.87167 0.0
H1169 H 0.58306 0.83691 0.93558 0.0
H1170 H 0.59257 0.94714 0.88184 0.0
H1171 H 0.62543 0.95338 0.90309 0.0
H1172 H 0.6258 0.93817 0.86618 0.0
H1173 H 0.55169 0.85159 0.97153 0.0
H1174 H 0.56601 0.88624 0.98468 0.0
H1175 H 0.53518 0.88034 0.96055 0.0
H1176 H 0.59256 0.97964 0.99416 0.0
H1177 H 0.51545 0.96359 0.94011 0.0
H1178 H 0.63474 0.93992 0.95354 0.0
H1179 H 0.61551 0.91741 0.9814 0.0
H1180 H 0.62945 0.95323 0.99065 0.0
H1181 H 0.54151 0.92099 0.8865 0.0
H1182 H 0.50816 0.92883 0.90315 0.0
H1183 H 0.52191 0.89849 0.91413 0.0
C1184 C 0.88646 0.14502 0.41928 0.0
C1185 C 0.88499 0.16892 0.43654 0.0
C1186 C 0.90306 0.12559 0.42843 0.0
C1187 C 0.91755 0.12952 0.45609 0.0
C1188 C 0.91692 0.15385 0.47325 0.0
C1189 C 0.9012 0.17354 0.46293 0.0
C1190 C 0.90414 0.10036 0.409 0.0
C1191 C 0.93169 0.15849 0.50321 0.0
C1192 C 0.92888 0.06576 0.49776 0.0
C1193 C 0.9593 0.06772 0.4949 0.0
C1194 C 0.91495 0.08569 0.485 0.0
C1195 C 0.93178 0.10741 0.46808 0.0
C1196 C 0.96229 0.1086 0.46384 0.0
C1197 C 0.9758 0.08907 0.47792 0.0
C1198 C 0.88248 0.08421 0.49072 0.0
C1199 C 0.98076 0.13081 0.44501 0.0
H1200 H 0.87378 0.14078 0.39911 0.0
H1201 H 0.90106 0.19223 0.47605 0.0
H1202 H 0.92705 0.09689 0.40644 0.0
H1203 H 0.89113 0.08171 0.41978 0.0
H1204 H 0.8952 0.1023 0.3864 0.0
H1205 H 0.92937 0.17867 0.51365 0.0
H1206 H 0.92197 0.14164 0.51871 0.0
H1207 H 0.95537 0.15782 0.5007 0.0
H1208 H 0.91615 0.04939 0.51116 0.0
H1209 H 0.99936 0.09077 0.476 0.0
H1210 H 0.87078 0.08309 0.46922 0.0
H1211 H 0.87877 0.1033 0.50262 0.0
H1212 H 0.87261 0.06598 0.50438 0.0
H1213 H 0.97047 0.13208 0.42298 0.0
H1214 H 1.00341 0.12692 0.4412 0.0
H1215 H 0.98213 0.15128 0.45625 0.0
C1216 C 0.21418 0.62509 0.14843 0.0
C1217 C 0.23814 0.63761 0.13055 0.0
C1218 C 0.18787 0.61111 0.13552 0.0
C1219 C 0.18536 0.60921 0.10389 0.0
C1220 C 0.20983 0.62103 0.08579 0.0
C1221 C 0.2357 0.63509 0.09926 0.0
C1222 C 0.16241 0.59905 0.15578 0.0
C1223 C 0.20853 0.61929 0.05206 0.0
C1224 C 0.12433 0.55535 0.06871 0.0
C1225 C 0.10336 0.57145 0.06145 0.0
C1226 C 0.15093 0.56722 0.08254 0.0
C1227 C 0.15687 0.59597 0.08964 0.0
C1228 C 0.13575 0.61228 0.08248 0.0
C1229 C 0.10947 0.59993 0.06847 0.0
C1230 C 0.17276 0.54898 0.08945 0.0
C1231 C 0.14087 0.64291 0.08971 0.0
H1232 H 0.21563 0.62703 0.17257 0.0
H1233 H 0.25415 0.64426 0.08516 0.0
H1234 H 0.1437 0.60973 0.15205 0.0
H1235 H 0.15484 0.57678 0.15037 0.0
H1236 H 0.16815 0.60111 0.17983 0.0
H1237 H 0.22985 0.62823 0.04114 0.0
H1238 H 0.2021 0.59736 0.0447 0.0
H1239 H 0.19156 0.63057 0.04409 0.0
H1240 H 0.12001 0.53335 0.06354 0.0
H1241 H 0.09352 0.61268 0.06327 0.0
H1242 H 0.17735 0.54992 0.11376 0.0
H1243 H 0.19384 0.55661 0.07748 0.0
H1244 H 0.16484 0.52699 0.08289 0.0
H1245 H 0.14462 0.64632 0.11404 0.0
H1246 H 0.1221 0.65266 0.08338 0.0
H1247 H 0.16088 0.65362 0.07774 0.0
C1248 C 0.32924 0.43157 0.63063 0.0
C1249 C 0.30881 0.44807 0.6397 0.0
C1250 C 0.35502 0.44276 0.61443 0.0
C1251 C 0.36074 0.47124 0.60684 0.0
C1252 C 0.34033 0.48807 0.61605 0.0
C1253 C 0.31476 0.47635 0.63235 0.0
C1254 C 0.37615 0.42402 0.60532 0.0
C1255 C 0.34533 0.51845 0.60835 0.0
C1256 C 0.43992 0.50411 0.58555 0.0
C1257 C 0.43953 0.50262 0.55415 0.0
C1258 C 0.41442 0.49445 0.60296 0.0
C1259 C 0.38772 0.48315 0.5887 0.0
C1260 C 0.38707 0.48241 0.55697 0.0
C1261 C 0.41289 0.49206 0.54015 0.0
C1262 C 0.41625 0.49568 0.63666 0.0
C1263 C 0.35917 0.47083 0.54072 0.0
H1264 H 0.32523 0.40983 0.6365 0.0
H1265 H 0.29907 0.4893 0.63884 0.0
H1266 H 0.37847 0.42342 0.58056 0.0
H1267 H 0.39819 0.43228 0.61433 0.0
H1268 H 0.36888 0.40249 0.6134 0.0
H1269 H 0.32781 0.52891 0.61773 0.0
H1270 H 0.36676 0.52915 0.61701 0.0
H1271 H 0.34621 0.52086 0.58367 0.0
H1272 H 0.46037 0.51223 0.59659 0.0
H1273 H 0.41232 0.49091 0.51591 0.0
H1274 H 0.41142 0.47437 0.64576 0.0
H1275 H 0.39952 0.50698 0.64622 0.0
H1276 H 0.43823 0.50605 0.64435 0.0
H1277 H 0.35212 0.44856 0.54607 0.0
H1278 H 0.36188 0.47289 0.51604 0.0
H1279 H 0.34128 0.48163 0.54832 0.0
C1280 C 0.77426 0.6611 0.90975 0.0
C1281 C 0.76668 0.68695 0.91632 0.0
C1282 C 0.79646 0.65182 0.9254 0.0
C1283 C 0.8111 0.66859 0.94853 0.0
C1284 C 0.80158 0.69337 0.95722 0.0
C1285 C 0.7796 0.70237 0.94087 0.0
C1286 C 0.8059 0.62525 0.91539 0.0
C1287 C 0.81619 0.71152 0.98219 0.0
C1288 C 0.86585 0.63726 0.99313 0.0
C1289 C 0.89222 0.64763 0.97774 0.0
C1290 C 0.83927 0.64465 0.98468 0.0
C1291 C 0.83908 0.66246 0.96004 0.0
C1292 C 0.86576 0.67364 0.94509 0.0
C1293 C 0.89195 0.66635 0.95434 0.0
C1294 C 0.81134 0.63278 1.00153 0.0
C1295 C 0.86658 0.69267 0.91864 0.0
H1296 H 0.76386 0.64874 0.8913 0.0
H1297 H 0.77401 0.7224 0.94613 0.0
H1298 H 0.82763 0.63023 0.90385 0.0
H1299 H 0.80835 0.61222 0.93493 0.0
H1300 H 0.79009 0.61299 0.89975 0.0
H1301 H 0.80291 0.72705 0.98984 0.0
H1302 H 0.81998 0.69883 1.00158 0.0
H1303 H 0.83789 0.72278 0.97421 0.0
H1304 H 0.86579 0.6227 1.01116 0.0
H1305 H 0.91231 0.67508 0.94285 0.0
H1306 H 0.7971 0.61766 0.98702 0.0
H1307 H 0.79894 0.64941 1.00757 0.0
H1308 H 0.81567 0.62209 1.02227 0.0
H1309 H 0.853 0.68176 0.90039 0.0
H1310 H 0.88921 0.69981 0.90971 0.0
H1311 H 0.85715 0.71112 0.92514 0.0
C1312 C 0.46666 0.84938 0.14737 0.0
C1313 C 0.43651 0.84008 0.15304 0.0
C1314 C 0.47728 0.87507 0.13337 0.0
C1315 C 0.45748 0.89239 0.12497 0.0
C1316 C 0.42707 0.88324 0.13089 0.0
C1317 C 0.41702 0.85734 0.14461 0.0
C1318 C 0.50981 0.88358 0.12729 0.0
C1319 C 0.40505 0.90093 0.12281 0.0
C1320 C 0.48828 0.96996 0.11322 0.0
C1321 C 0.49081 0.97187 0.08189 0.0
C1322 C 0.47718 0.94447 0.12742 0.0
C1323 C 0.46855 0.91997 0.11004 0.0
C1324 C 0.47078 0.92191 0.07834 0.0
C1325 C 0.48167 0.94771 0.06473 0.0
C1326 C 0.47491 0.94373 0.16116 0.0
C1327 C 0.46212 0.89657 0.05871 0.0
H1328 H 0.48201 0.83627 0.15334 0.0
H1329 H 0.39374 0.85074 0.14912 0.0
H1330 H 0.51399 0.88681 0.10293 0.0
H1331 H 0.51824 0.90358 0.13874 0.0
H1332 H 0.52239 0.86787 0.13496 0.0
H1333 H 0.38223 0.89113 0.1291 0.0
H1334 H 0.41042 0.9214 0.13425 0.0
H1335 H 0.40613 0.90479 0.09836 0.0
H1336 H 0.49519 0.98843 0.12674 0.0
H1337 H 0.48353 0.94885 0.04053 0.0
H1338 H 0.48909 0.92986 0.16988 0.0
H1339 H 0.45205 0.93513 0.16837 0.0
H1340 H 0.48155 0.96461 0.17151 0.0
H1341 H 0.47586 0.88101 0.06381 0.0
H1342 H 0.46464 0.9015 0.03448 0.0
H1343 H 0.43896 0.88683 0.06342 0.0
C1344 C 0.13261 0.21964 0.64077 0.0
C1345 C 0.11594 0.24032 0.64695 0.0
C1346 C 0.11998 0.19385 0.62807 0.0
C1347 C 0.08978 0.18832 0.621 0.0
C1348 C 0.07258 0.20877 0.628 0.0
C1349 C 0.08578 0.23439 0.64101 0.0
C1350 C 0.13924 0.17274 0.6215 0.0
C1351 C 0.04039 0.20397 0.62078 0.0
C1352 C 0.06688 0.1346 0.5587 0.0
C1353 C 0.05456 0.11068 0.57476 0.0
C1354 C 0.07782 0.15993 0.57339 0.0
C1355 C 0.07673 0.16167 0.60511 0.0
C1356 C 0.06424 0.13765 0.62148 0.0
C1357 C 0.05326 0.11258 0.60618 0.0
C1358 C 0.09077 0.18486 0.55485 0.0
C1359 C 0.06281 0.13832 0.65526 0.0
H1360 H 0.15583 0.22377 0.6456 0.0
H1361 H 0.07271 0.25021 0.64545 0.0
H1362 H 0.12958 0.15263 0.63188 0.0
H1363 H 0.14055 0.16911 0.59698 0.0
H1364 H 0.16185 0.17949 0.62988 0.0
H1365 H 0.02963 0.22113 0.62905 0.0
H1366 H 0.03771 0.20195 0.59617 0.0
H1367 H 0.02887 0.18429 0.6308 0.0
H1368 H 0.06797 0.13363 0.53446 0.0
H1369 H 0.04384 0.09437 0.61894 0.0
H1370 H 0.11423 0.19178 0.56031 0.0
H1371 H 0.07936 0.20233 0.56028 0.0
H1372 H 0.08915 0.18044 0.53042 0.0
H1373 H 0.08532 0.14361 0.66422 0.0
H1374 H 0.05183 0.11817 0.66476 0.0
H1375 H 0.05077 0.15468 0.66314 0.0
C1376 C 0.68125 0.29953 0.54881 0.0
C1377 C 0.70965 0.30862 0.53736 0.0
C1378 C 0.66255 0.31847 0.5545 0.0
C1379 C 0.67246 0.34674 0.54761 0.0
C1380 C 0.70248 0.35636 0.5405 0.0
C1381 C 0.72089 0.33703 0.53558 0.0
C1382 C 0.63106 0.30764 0.5636 0.0
C1383 C 0.71406 0.3864 0.53348 0.0
C1384 C 0.61991 0.37831 0.50143 0.0
C1385 C 0.61064 0.39706 0.52166 0.0
C1386 C 0.63991 0.36184 0.50985 0.0
C1387 C 0.65065 0.36388 0.53947 0.0
C1388 C 0.64096 0.38239 0.56026 0.0
C1389 C 0.62135 0.39909 0.55094 0.0
C1390 C 0.64986 0.34254 0.48677 0.0
C1391 C 0.65162 0.38505 0.59206 0.0
H1392 H 0.67269 0.27746 0.5502 0.0
H1393 H 0.7429 0.34392 0.5266 0.0
H1394 H 0.62263 0.32249 0.5789 0.0
H1395 H 0.61729 0.305 0.54335 0.0
H1396 H 0.62862 0.28724 0.57477 0.0
H1397 H 0.73841 0.39136 0.53407 0.0
H1398 H 0.70715 0.3909 0.51069 0.0
H1399 H 0.70501 0.40023 0.54949 0.0
H1400 H 0.61212 0.37707 0.47864 0.0
H1401 H 0.61433 0.4137 0.56659 0.0
H1402 H 0.64396 0.32078 0.49443 0.0
H1403 H 0.67409 0.34746 0.48386 0.0
H1404 H 0.63984 0.34395 0.4646 0.0
H1405 H 0.654 0.36464 0.60107 0.0
H1406 H 0.63653 0.39427 0.60707 0.0
H1407 H 0.67346 0.3988 0.59258 0.0
loop_
_geom_bond_atom_site_label_1
_geom_bond_atom_site_label_2
_geom_bond_distance
_geom_bond_site_symmetry_2
_ccdc_geom_bond_type
C0 C1 1.391 . S
C0 C4 1.391 . S
C0 H42 0.948 . S
C1 C0 1.391 . S
C1 C2 1.391 . S
C2 C1 1.391 . S
C2 H58 0.947 . S
C2 C59 1.392 . S
C3 C4 1.391 . S
C3 C7 1.397 . S
C3 C59 1.419 . S
C4 C0 1.391 . S
C4 C3 1.391 . S
C4 C5 1.399 . S
C5 C4 1.399 . S
C5 C8 1.396 . S
C5 C17 1.453 . S
C5 C18 1.684 . S
H6 C30 0.948 . S
C7 C3 1.397 . S
C7 C8 1.394 . S
C7 C26 1.723 . S
C8 C5 1.396 . S
C8 C7 1.394 . S
C8 C38 1.723 . S
H9 C32 0.947 . S
H10 C33 0.948 . S
H11 C39 0.982 . S
H12 C40 0.979 . S
H13 C40 0.980 . S
H14 C40 0.983 . S
H15 C39 0.979 . S
H16 C39 0.977 . S
C17 C5 1.453 . S
C17 H46 0.982 . S
C17 H47 0.979 . S
C17 H48 0.977 . S
C18 C5 1.684 . S
C18 H43 0.979 . S
C18 H44 0.980 . S
C18 H45 0.983 . S
C19 C20 1.391 . S
C19 C24 1.391 . S
C19 H49 0.948 . S
C20 C19 1.391 . S
C20 C21 1.391 . S
C21 C20 1.391 . S
C21 C22 1.392 . S
C21 H50 0.947 . S
C22 C21 1.392 . S
C22 C23 1.419 . S
C22 H51 0.948 . S
C23 C22 1.419 . S
C23 C24 1.391 . S
C23 C27 1.397 . S
C24 C19 1.391 . S
C24 C23 1.391 . S
C24 C25 1.399 . S
C25 C24 1.399 . S
C25 C26 1.396 . S
C25 C28 1.453 . S
C25 C29 1.684 . S
C26 C7 1.723 . S
C26 C25 1.396 . S
C26 C27 1.394 . S
C27 C23 1.397 . S
C27 C26 1.394 . S
C27 C37 1.723 . S
C28 C25 1.453 . S
C28 H52 0.982 . S
C28 H53 0.979 . S
C28 H54 0.977 . S
C29 C25 1.684 . S
C29 H55 0.979 . S
C29 H56 0.980 . S
C29 H57 0.983 . S
C30 H6 0.948 . S
C30 C31 1.391 . S
C30 C35 1.391 . S
C31 C30 1.391 . S
C31 C32 1.391 . S
C32 H9 0.947 . S
C32 C31 1.391 . S
C32 C33 1.392 . S
C33 H10 0.948 . S
C33 C32 1.392 . S
C33 C34 1.419 . S
C34 C33 1.419 . S
C34 C35 1.391 . S
C34 C38 1.397 . S
C35 C30 1.391 . S
C35 C34 1.391 . S
C35 C36 1.399 . S
C36 C35 1.399 . S
C36 C37 1.396 . S
C36 C39 1.453 . S
C36 C40 1.684 . S
C37 C27 1.723 . S
C37 C36 1.396 . S
C37 C38 1.394 . S
C38 C8 1.723 . S
C38 C34 1.397 . S
C38 C37 1.394 . S
C39 H11 0.982 . S
C39 H15 0.979 . S
C39 H16 0.977 . S
C39 C36 1.453 . S
C40 H12 0.979 . S
C40 H13 0.980 . S
C40 H14 0.983 . S
C40 C36 1.684 . S
H41 C59 0.948 . S
H42 C0 0.948 . S
H43 C18 0.979 . S
H44 C18 0.980 . S
H45 C18 0.983 . S
H46 C17 0.982 . S
H47 C17 0.979 . S
H48 C17 0.977 . S
H49 C19 0.948 . S
H50 C21 0.947 . S
H51 C22 0.948 . S
H52 C28 0.982 . S
H53 C28 0.979 . S
H54 C28 0.977 . S
H55 C29 0.979 . S
H56 C29 0.980 . S
H57 C29 0.983 . S
H58 C2 0.947 . S
C59 C2 1.392 . S
C59 C3 1.419 . S
C59 H41 0.948 . S
C60 C61 1.391 . S
C60 C64 1.391 . S
C60 H102 0.948 . S
C61 C60 1.391 . S
C61 C62 1.391 . S
C62 C61 1.391 . S
C62 H118 0.947 . S
C62 C119 1.392 . S
C63 C64 1.391 . S
C63 C67 1.397 . S
C63 C119 1.419 . S
C64 C60 1.391 . S
C64 C63 1.391 . S
C64 C65 1.399 . S
C65 C64 1.399 . S
C65 C68 1.396 . S
C65 C77 1.453 . S
C65 C78 1.684 . S
H66 C90 0.948 . S
C67 C63 1.397 . S
C67 C68 1.394 . S
C67 C86 1.723 . S
C68 C65 1.396 . S
C68 C67 1.394 . S
C68 C98 1.723 . S
H69 C92 0.947 . S
H70 C93 0.948 . S
H71 C99 0.982 . S
H72 C100 0.979 . S
H73 C100 0.980 . S
H74 C100 0.983 . S
H75 C99 0.979 . S
H76 C99 0.977 . S
C77 C65 1.453 . S
C77 H106 0.982 . S
C77 H107 0.979 . S
C77 H108 0.977 . S
C78 C65 1.684 . S
C78 H103 0.979 . S
C78 H104 0.980 . S
C78 H105 0.983 . S
C79 C80 1.391 . S
C79 C84 1.391 . S
C79 H109 0.948 . S
C80 C79 1.391 . S
C80 C81 1.391 . S
C81 C80 1.391 . S
C81 C82 1.392 . S
C81 H110 0.947 . S
C82 C81 1.392 . S
C82 C83 1.419 . S
C82 H111 0.948 . S
C83 C82 1.419 . S
C83 C84 1.391 . S
C83 C87 1.397 . S
C84 C79 1.391 . S
C84 C83 1.391 . S
C84 C85 1.399 . S
C85 C84 1.399 . S
C85 C86 1.396 . S
C85 C88 1.453 . S
C85 C89 1.684 . S
C86 C67 1.723 . S
C86 C85 1.396 . S
C86 C87 1.394 . S
C87 C83 1.397 . S
C87 C86 1.394 . S
C87 C97 1.723 . S
C88 C85 1.453 . S
C88 H112 0.982 . S
C88 H113 0.979 . S
C88 H114 0.977 . S
C89 C85 1.684 . S
C89 H115 0.979 . S
C89 H116 0.980 . S
C89 H117 0.983 . S
C90 H66 0.948 . S
C90 C91 1.391 . S
C90 C95 1.391 . S
C91 C90 1.391 . S
C91 C92 1.391 . S
C92 H69 0.947 . S
C92 C91 1.391 . S
C92 C93 1.392 . S
C93 H70 0.948 . S
C93 C92 1.392 . S
C93 C94 1.419 . S
C94 C93 1.419 . S
C94 C95 1.391 . S
C94 C98 1.397 . S
C95 C90 1.391 . S
C95 C94 1.391 . S
C95 C96 1.399 . S
C96 C95 1.399 . S
C96 C97 1.396 . S
C96 C99 1.453 . S
C96 C100 1.684 . S
C97 C87 1.723 . S
C97 C96 1.396 . S
C97 C98 1.394 . S
C98 C68 1.723 . S
C98 C94 1.397 . S
C98 C97 1.394 . S
C99 H71 0.982 . S
C99 H75 0.979 . S
C99 H76 0.977 . S
C99 C96 1.453 . S
C100 H72 0.979 . S
C100 H73 0.980 . S
C100 H74 0.983 . S
C100 C96 1.684 . S
H101 C119 0.948 . S
H102 C60 0.948 . S
H103 C78 0.979 . S
H104 C78 0.980 . S
H105 C78 0.983 . S
H106 C77 0.982 . S
H107 C77 0.979 . S
H108 C77 0.977 . S
H109 C79 0.948 . S
H110 C81 0.947 . S
H111 C82 0.948 . S
H112 C88 0.982 . S
H113 C88 0.979 . S
H114 C88 0.977 . S
H115 C89 0.979 . S
H116 C89 0.980 . S
H117 C89 0.983 . S
H118 C62 0.947 . S
C119 C62 1.392 . S
C119 C63 1.419 . S
C119 H101 0.948 . S
C120 C121 1.391 . S
C120 C124 1.391 . S
C120 H162 0.948 . S
C121 C120 1.391 . S
C121 C122 1.391 . S
C122 C121 1.391 . S
C122 H178 0.947 . S
C122 C179 1.392 . S
C123 C124 1.391 . S
C123 C127 1.397 . S
C123 C179 1.419 . S
C124 C120 1.391 . S
C124 C123 1.391 . S
C124 C125 1.399 . S
C125 C124 1.399 . S
C125 C128 1.396 . S
C125 C137 1.453 . S
C125 C138 1.684 . S
H126 C150 0.948 . S
C127 C123 1.397 . S
C127 C128 1.394 . S
C127 C146 1.723 . S
C128 C125 1.396 . S
C128 C127 1.394 . S
C128 C158 1.723 . S
H129 C152 0.947 . S
H130 C153 0.948 . S
H131 C159 0.982 . S
H132 C160 0.979 . S
H133 C160 0.980 . S
H134 C160 0.983 . S
H135 C159 0.979 . S
H136 C159 0.977 . S
C137 C125 1.453 . S
C137 H166 0.982 . S
C137 H167 0.979 . S
C137 H168 0.977 . S
C138 C125 1.684 . S
C138 H163 0.979 . S
C138 H164 0.980 . S
C138 H165 0.983 . S
C139 C140 1.391 . S
C139 C144 1.391 . S
C139 H169 0.948 . S
C140 C139 1.391 . S
C140 C141 1.391 . S
C141 C140 1.391 . S
C141 C142 1.392 . S
C141 H170 0.947 . S
C142 C141 1.392 . S
C142 C143 1.419 . S
C142 H171 0.948 . S
C143 C142 1.419 . S
C143 C144 1.391 . S
C143 C147 1.397 . S
C144 C139 1.391 . S
C144 C143 1.391 . S
C144 C145 1.399 . S
C145 C144 1.399 . S
C145 C146 1.396 . S
C145 C148 1.453 . S
C145 C149 1.684 . S
C146 C127 1.723 . S
C146 C145 1.396 . S
C146 C147 1.394 . S
C147 C143 1.397 . S
C147 C146 1.394 . S
C147 C157 1.723 . S
C148 C145 1.453 . S
C148 H172 0.982 . S
C148 H173 0.979 . S
C148 H174 0.977 . S
C149 C145 1.684 . S
C149 H175 0.979 . S
C149 H176 0.980 . S
C149 H177 0.983 . S
C150 H126 0.948 . S
C150 C151 1.391 . S
C150 C155 1.391 . S
C151 C150 1.391 . S
C151 C152 1.391 . S
C152 H129 0.947 . S
C152 C151 1.391 . S
C152 C153 1.392 . S
C153 H130 0.948 . S
C153 C152 1.392 . S
C153 C154 1.419 . S
C154 C153 1.419 . S
C154 C155 1.391 . S
C154 C158 1.397 . S
C155 C150 1.391 . S
C155 C154 1.391 . S
C155 C156 1.399 . S
C156 C155 1.399 . S
C156 C157 1.396 . S
C156 C159 1.453 . S
C156 C160 1.684 . S
C157 C147 1.723 . S
C157 C156 1.396 . S
C157 C158 1.394 . S
C158 C128 1.723 . S
C158 C154 1.397 . S
C158 C157 1.394 . S
C159 H131 0.982 . S
C159 H135 0.979 . S
C159 H136 0.977 . S
C159 C156 1.453 . S
C160 H132 0.979 . S
C160 H133 0.980 . S
C160 H134 0.983 . S
C160 C156 1.684 . S
H161 C179 0.948 . S
H162 C120 0.948 . S
H163 C138 0.979 . S
H164 C138 0.980 . S
H165 C138 0.983 . S
H166 C137 0.982 . S
H167 C137 0.979 . S
H168 C137 0.977 . S
H169 C139 0.948 . S
H170 C141 0.947 . S
H171 C142 0.948 . S
H172 C148 0.982 . S
H173 C148 0.979 . S
H174 C148 0.977 . S
H175 C149 0.979 . S
H176 C149 0.980 . S
H177 C149 0.983 . S
H178 C122 0.947 . S
C179 C122 1.392 . S
C179 C123 1.419 . S
C179 H161 0.948 . S
C180 C181 1.391 . S
C180 C184 1.391 . S
C180 H222 0.948 . S
C181 C180 1.391 . S
C181 C182 1.391 . S
C182 C181 1.391 . S
C182 H238 0.947 . S
C182 C239 1.392 . S
C183 C184 1.391 . S
C183 C187 1.397 . S
C183 C239 1.419 . S
C184 C180 1.391 . S
C184 C183 1.391 . S
C184 C185 1.399 . S
C185 C184 1.399 . S
C185 C188 1.396 . S
C185 C197 1.453 . S
C185 C198 1.684 . S
H186 C210 0.948 . S
C187 C183 1.397 . S
C187 C188 1.394 . S
C187 C206 1.723 . S
C188 C185 1.396 . S
C188 C187 1.394 . S
C188 C218 1.723 . S
H189 C212 0.947 . S
H190 C213 0.948 . S
H191 C219 0.982 . S
H192 C220 0.979 . S
H193 C220 0.980 . S
H194 C220 0.983 . S
H195 C219 0.979 . S
H196 C219 0.977 . S
C197 C185 1.453 . S
C197 H226 0.982 . S
C197 H227 0.979 . S
C197 H228 0.977 . S
C198 C185 1.684 . S
C198 H223 0.979 . S
C198 H224 0.980 . S
C198 H225 0.983 . S
C199 C200 1.391 . S
C199 C204 1.391 . S
C199 H229 0.948 . S
C200 C199 1.391 . S
C200 C201 1.391 . S
C201 C200 1.391 . S
C201 C202 1.392 . S
C201 H230 0.947 . S
C202 C201 1.392 . S
C202 C203 1.419 . S
C202 H231 0.948 . S
C203 C202 1.419 . S
C203 C204 1.391 . S
C203 C207 1.397 . S
C204 C199 1.391 . S
C204 C203 1.391 . S
C204 C205 1.399 . S
C205 C204 1.399 . S
C205 C206 1.396 . S
C205 C208 1.453 . S
C205 C209 1.684 . S
C206 C187 1.723 . S
C206 C205 1.396 . S
C206 C207 1.394 . S
C207 C203 1.397 . S
C207 C206 1.394 . S
C207 C217 1.723 . S
C208 C205 1.453 . S
C208 H232 0.982 . S
C208 H233 0.979 . S
C208 H234 0.977 . S
C209 C205 1.684 . S
C209 H235 0.979 . S
C209 H236 0.980 . S
C209 H237 0.983 . S
C210 H186 0.948 . S
C210 C211 1.391 . S
C210 C215 1.391 . S
C211 C210 1.391 . S
C211 C212 1.391 . S
C212 H189 0.947 . S
C212 C211 1.391 . S
C212 C213 1.392 . S
C213 H190 0.948 . S
C213 C212 1.392 . S
C213 C214 1.419 . S
C214 C213 1.419 . S
C214 C215 1.391 . S
C214 C218 1.397 . S
C215 C210 1.391 . S
C215 C214 1.391 . S
C215 C216 1.399 . S
C216 C215 1.399 . S
C216 C217 1.396 . S
C216 C219 1.453 . S
C216 C220 1.684 . S
C217 C207 1.723 . S
C217 C216 1.396 . S
C217 C218 1.394 . S
C218 C188 1.723 . S
C218 C214 1.397 . S
C218 C217 1.394 . S
C219 H191 0.982 . S
C219 H195 0.979 . S
C219 H196 0.977 . S
C219 C216 1.453 . S
C220 H192 0.979 . S
C220 H193 0.980 . S
C220 H194 0.983 . S
C220 C216 1.684 . S
H221 C239 0.948 . S
H222 C180 0.948 . S
H223 C198 0.979 . S
H224 C198 0.980 . S
H225 C198 0.983 . S
H226 C197 0.982 . S
H227 C197 0.979 . S
H228 C197 0.977 . S
H229 C199 0.948 . S
H230 C201 0.947 . S
H231 C202 0.948 . S
H232 C208 0.982 . S
H233 C208 0.979 . S
H234 C208 0.977 . S
H235 C209 0.979 . S
H236 C209 0.980 . S
H237 C209 0.983 . S
H238 C182 0.947 . S
C239 C182 1.392 . S
C239 C183 1.419 . S
C239 H221 0.948 . S
C240 C241 1.391 . S
C240 C244 1.391 . S
C240 H282 0.948 . S
C241 C240 1.391 . S
C241 C242 1.391 . S
C242 C241 1.391 . S
C242 H298 0.947 . S
C242 C299 1.392 . S
C243 C244 1.391 . S
C243 C247 1.397 . S
C243 C299 1.419 . S
C244 C240 1.391 . S
C244 C243 1.391 . S
C244 C245 1.399 . S
C245 C244 1.399 . S
C245 C248 1.396 . S
C245 C257 1.453 . S
C245 C258 1.684 . S
H246 C270 0.948 . S
C247 C243 1.397 . S
C247 C248 1.394 . S
C247 C266 1.723 . S
C248 C245 1.396 . S
C248 C247 1.394 . S
C248 C278 1.723 . S
H249 C272 0.947 . S
H250 C273 0.948 . S
H251 C279 0.982 . S
H252 C280 0.979 . S
H253 C280 0.980 . S
H254 C280 0.983 . S
H255 C279 0.979 . S
H256 C279 0.977 . S
C257 C245 1.453 . S
C257 H286 0.982 . S
C257 H287 0.979 . S
C257 H288 0.977 . S
C258 C245 1.684 . S
C258 H283 0.979 . S
C258 H284 0.980 . S
C258 H285 0.983 . S
C259 C260 1.391 . S
C259 C264 1.391 . S
C259 H289 0.948 . S
C260 C259 1.391 . S
C260 C261 1.391 . S
C261 C260 1.391 . S
C261 C262 1.392 . S
C261 H290 0.947 . S
C262 C261 1.392 . S
C262 C263 1.419 . S
C262 H291 0.948 . S
C263 C262 1.419 . S
C263 C264 1.391 . S
C263 C267 1.397 . S
C264 C259 1.391 . S
C264 C263 1.391 . S
C264 C265 1.399 . S
C265 C264 1.399 . S
C265 C266 1.396 . S
C265 C268 1.453 . S
C265 C269 1.684 . S
C266 C247 1.723 . S
C266 C265 1.396 . S
C266 C267 1.394 . S
C267 C263 1.397 . S
C267 C266 1.394 . S
C267 C277 1.723 . S
C268 C265 1.453 . S
C268 H292 0.982 . S
C268 H293 0.979 . S
C268 H294 0.977 . S
C269 C265 1.684 . S
C269 H295 0.979 . S
C269 H296 0.980 . S
C269 H297 0.983 . S
C270 H246 0.948 . S
C270 C271 1.391 . S
C270 C275 1.391 . S
C271 C270 1.391 . S
C271 C272 1.391 . S
C272 H249 0.947 . S
C272 C271 1.391 . S
C272 C273 1.392 . S
C273 H250 0.948 . S
C273 C272 1.392 . S
C273 C274 1.419 . S
C274 C273 1.419 . S
C274 C275 1.391 . S
C274 C278 1.397 . S
C275 C270 1.391 . S
C275 C274 1.391 . S
C275 C276 1.399 . S
C276 C275 1.399 . S
C276 C277 1.396 . S
C276 C279 1.453 . S
C276 C280 1.684 . S
C277 C267 1.723 . S
C277 C276 1.396 . S
C277 C278 1.394 . S
C278 C248 1.723 . S
C278 C274 1.397 . S
C278 C277 1.394 . S
C279 H251 0.982 . S
C279 H255 0.979 . S
C279 H256 0.977 . S
C279 C276 1.453 . S
C280 H252 0.979 . S
C280 H253 0.980 . S
C280 H254 0.983 . S
C280 C276 1.684 . S
H281 C299 0.948 . S
H282 C240 0.948 . S
H283 C258 0.979 . S
H284 C258 0.980 . S
H285 C258 0.983 . S
H286 C257 0.982 . S
H287 C257 0.979 . S
H288 C257 0.977 . S
H289 C259 0.948 . S
H290 C261 0.947 . S
H291 C262 0.948 . S
H292 C268 0.982 . S
H293 C268 0.979 . S
H294 C268 0.977 . S
H295 C269 0.979 . S
H296 C269 0.980 . S
H297 C269 0.983 . S
H298 C242 0.947 . S
C299 C242 1.392 . S
C299 C243 1.419 . S
C299 H281 0.948 . S
C300 C301 1.391 . S
C300 C304 1.391 . S
C300 H342 0.948 . S
C301 C300 1.391 . S
C301 C302 1.391 . S
C302 C301 1.391 . S
C302 H358 0.947 . S
C302 C359 1.392 . S
C303 C304 1.391 . S
C303 C307 1.397 . S
C303 C359 1.419 . S
C304 C300 1.391 . S
C304 C303 1.391 . S
C304 C305 1.399 . S
C305 C304 1.399 . S
C305 C308 1.396 . S
C305 C317 1.453 . S
C305 C318 1.684 . S
H306 C330 0.948 . S
C307 C303 1.397 . S
C307 C308 1.394 . S
C307 C326 1.723 . S
C308 C305 1.396 . S
C308 C307 1.394 . S
C308 C338 1.723 . S
H309 C332 0.947 . S
H310 C333 0.948 . S
H311 C339 0.982 . S
H312 C340 0.979 . S
H313 C340 0.980 . S
H314 C340 0.983 . S
H315 C339 0.979 . S
H316 C339 0.977 . S
C317 C305 1.453 . S
C317 H346 0.982 . S
C317 H347 0.979 . S
C317 H348 0.977 . S
C318 C305 1.684 . S
C318 H343 0.979 . S
C318 H344 0.980 . S
C318 H345 0.983 . S
C319 C320 1.391 . S
C319 C324 1.391 . S
C319 H349 0.948 . S
C320 C319 1.391 . S
C320 C321 1.391 . S
C321 C320 1.391 . S
C321 C322 1.392 . S
C321 H350 0.947 . S
C322 C321 1.392 . S
C322 C323 1.419 . S
C322 H351 0.948 . S
C323 C322 1.419 . S
C323 C324 1.391 . S
C323 C327 1.397 . S
C324 C319 1.391 . S
C324 C323 1.391 . S
C324 C325 1.399 . S
C325 C324 1.399 . S
C325 C326 1.396 . S
C325 C328 1.453 . S
C325 C329 1.684 . S
C326 C307 1.723 . S
C326 C325 1.396 . S
C326 C327 1.394 . S
C327 C323 1.397 . S
C327 C326 1.394 . S
C327 C337 1.723 . S
C328 C325 1.453 . S
C328 H352 0.982 . S
C328 H353 0.979 . S
C328 H354 0.977 . S
C329 C325 1.684 . S
C329 H355 0.979 . S
C329 H356 0.980 . S
C329 H357 0.983 . S
C330 H306 0.948 . S
C330 C331 1.391 . S
C330 C335 1.391 . S
C331 C330 1.391 . S
C331 C332 1.391 . S
C332 H309 0.947 . S
C332 C331 1.391 . S
C332 C333 1.392 . S
C333 H310 0.948 . S
C333 C332 1.392 . S
C333 C334 1.419 . S
C334 C333 1.419 . S
C334 C335 1.391 . S
C334 C338 1.397 . S
C335 C330 1.391 . S
C335 C334 1.391 . S
C335 C336 1.399 . S
C336 C335 1.399 . S
C336 C337 1.396 . S
C336 C339 1.453 . S
C336 C340 1.684 . S
C337 C327 1.723 . S
C337 C336 1.396 . S
C337 C338 1.394 . S
C338 C308 1.723 . S
C338 C334 1.397 . S
C338 C337 1.394 . S
C339 H311 0.982 . S
C339 H315 0.979 . S
C339 H316 0.977 . S
C339 C336 1.453 . S
C340 H312 0.979 . S
C340 H313 0.980 . S
C340 H314 0.983 . S
C340 C336 1.684 . S
H341 C359 0.948 . S
H342 C300 0.948 . S
H343 C318 0.979 . S
H344 C318 0.980 . S
H345 C318 0.983 . S
H346 C317 0.982 . S
H347 C317 0.979 . S
H348 C317 0.977 . S
H349 C319 0.948 . S
H350 C321 0.947 . S
H351 C322 0.948 . S
H352 C328 0.982 . S
H353 C328 0.979 . S
H354 C328 0.977 . S
H355 C329 0.979 . S
H356 C329 0.980 . S
H357 C329 0.983 . S
H358 C302 0.947 . S
C359 C302 1.392 . S
C359 C303 1.419 . S
C359 H341 0.948 . S
C360 C361 1.391 . S
C360 C364 1.391 . S
C360 H402 0.948 . S
C361 C360 1.391 . S
C361 C362 1.391 . S
C362 C361 1.391 . S
C362 H418 0.947 . S
C362 C419 1.392 . S
C363 C364 1.391 . S
C363 C367 1.397 . S
C363 C419 1.419 . S
C364 C360 1.391 . S
C364 C363 1.391 . S
C364 C365 1.399 . S
C365 C364 1.399 . S
C365 C368 1.396 . S
C365 C377 1.453 . S
C365 C378 1.684 . S
H366 C390 0.948 . S
C367 C363 1.397 . S
C367 C368 1.394 . S
C367 C386 1.723 . S
C368 C365 1.396 . S
C368 C367 1.394 . S
C368 C398 1.723 . S
H369 C392 0.947 . S
H370 C393 0.948 . S
H371 C399 0.982 . S
H372 C400 0.979 . S
H373 C400 0.980 . S
H374 C400 0.983 . S
H375 C399 0.979 . S
H376 C399 0.977 . S
C377 C365 1.453 . S
C377 H406 0.982 . S
C377 H407 0.979 . S
C377 H408 0.977 . S
C378 C365 1.684 . S
C378 H403 0.979 . S
C378 H404 0.980 . S
C378 H405 0.983 . S
C379 C380 1.391 . S
C379 C384 1.391 . S
C379 H409 0.948 . S
C380 C379 1.391 . S
C380 C381 1.391 . S
C381 C380 1.391 . S
C381 C382 1.392 . S
C381 H410 0.947 . S
C382 C381 1.392 . S
C382 C383 1.419 . S
C382 H411 0.948 . S
C383 C382 1.419 . S
C383 C384 1.391 . S
C383 C387 1.397 . S
C384 C379 1.391 . S
C384 C383 1.391 . S
C384 C385 1.399 . S
C385 C384 1.399 . S
C385 C386 1.396 . S
C385 C388 1.453 . S
C385 C389 1.684 . S
C386 C367 1.723 . S
C386 C385 1.396 . S
C386 C387 1.394 . S
C387 C383 1.397 . S
C387 C386 1.394 . S
C387 C397 1.723 . S
C388 C385 1.453 . S
C388 H412 0.982 . S
C388 H413 0.979 . S
C388 H414 0.977 . S
C389 C385 1.684 . S
C389 H415 0.979 . S
C389 H416 0.980 . S
C389 H417 0.983 . S
C390 H366 0.948 . S
C390 C391 1.391 . S
C390 C395 1.391 . S
C391 C390 1.391 . S
C391 C392 1.391 . S
C392 H369 0.947 . S
C392 C391 1.391 . S
C392 C393 1.392 . S
C393 H370 0.948 . S
C393 C392 1.392 . S
C393 C394 1.419 . S
C394 C393 1.419 . S
C394 C395 1.391 . S
C394 C398 1.397 . S
C395 C390 1.391 . S
C395 C394 1.391 . S
C395 C396 1.399 . S
C396 C395 1.399 . S
C396 C397 1.396 . S
C396 C399 1.453 . S
C396 C400 1.684 . S
C397 C387 1.723 . S
C397 C396 1.396 . S
C397 C398 1.394 . S
C398 C368 1.723 . S
C398 C394 1.397 . S
C398 C397 1.394 . S
C399 H371 0.982 . S
C399 H375 0.979 . S
C399 H376 0.977 . S
C399 C396 1.453 . S
C400 H372 0.979 . S
C400 H373 0.980 . S
C400 H374 0.983 . S
C400 C396 1.684 . S
H401 C419 0.948 . S
H402 C360 0.948 . S
H403 C378 0.979 . S
H404 C378 0.980 . S
H405 C378 0.983 . S
H406 C377 0.982 . S
H407 C377 0.979 . S
H408 C377 0.977 . S
H409 C379 0.948 . S
H410 C381 0.947 . S
H411 C382 0.948 . S
H412 C388 0.982 . S
H413 C388 0.979 . S
H414 C388 0.977 . S
H415 C389 0.979 . S
H416 C389 0.980 . S
H417 C389 0.983 . S
H418 C362 0.947 . S
C419 C362 1.392 . S
C419 C363 1.419 . S
C419 H401 0.948 . S
C420 C421 1.391 . S
C420 C424 1.391 . S
C420 H462 0.948 . S
C421 C420 1.391 . S
C421 C422 1.391 . S
C422 C421 1.391 . S
C422 H478 0.947 . S
C422 C479 1.392 . S
C423 C424 1.391 . S
C423 C427 1.397 . S
C423 C479 1.419 . S
C424 C420 1.391 . S
C424 C423 1.391 . S
C424 C425 1.399 . S
C425 C424 1.399 . S
C425 C428 1.396 . S
C425 C437 1.453 . S
C425 C438 1.684 . S
H426 C450 0.948 . S
C427 C423 1.397 . S
C427 C428 1.394 . S
C427 C446 1.723 . S
C428 C425 1.396 . S
C428 C427 1.394 . S
C428 C458 1.723 . S
H429 C452 0.947 . S
H430 C453 0.948 . S
H431 C459 0.982 . S
H432 C460 0.979 . S
H433 C460 0.980 . S
H434 C460 0.983 . S
H435 C459 0.979 . S
H436 C459 0.977 . S
C437 C425 1.453 . S
C437 H466 0.982 . S
C437 H467 0.979 . S
C437 H468 0.977 . S
C438 C425 1.684 . S
C438 H463 0.979 . S
C438 H464 0.980 . S
C438 H465 0.983 . S
C439 C440 1.391 . S
C439 C444 1.391 . S
C439 H469 0.948 . S
C440 C439 1.391 . S
C440 C441 1.391 . S
C441 C440 1.391 . S
C441 C442 1.392 . S
C441 H470 0.947 . S
C442 C441 1.392 . S
C442 C443 1.419 . S
C442 H471 0.948 . S
C443 C442 1.419 . S
C443 C444 1.391 . S
C443 C447 1.397 . S
C444 C439 1.391 . S
C444 C443 1.391 . S
C444 C445 1.399 . S
C445 C444 1.399 . S
C445 C446 1.396 . S
C445 C448 1.453 . S
C445 C449 1.684 . S
C446 C427 1.723 . S
C446 C445 1.396 . S
C446 C447 1.394 . S
C447 C443 1.397 . S
C447 C446 1.394 . S
C447 C457 1.723 . S
C448 C445 1.453 . S
C448 H472 0.982 . S
C448 H473 0.979 . S
C448 H474 0.977 . S
C449 C445 1.684 . S
C449 H475 0.979 . S
C449 H476 0.980 . S
C449 H477 0.983 . S
C450 H426 0.948 . S
C450 C451 1.391 . S
C450 C455 1.391 . S
C451 C450 1.391 . S
C451 C452 1.391 . S
C452 H429 0.947 . S
C452 C451 1.391 . S
C452 C453 1.392 . S
C453 H430 0.948 . S
C453 C452 1.392 . S
C453 C454 1.419 . S
C454 C453 1.419 . S
C454 C455 1.391 . S
C454 C458 1.397 . S
C455 C450 1.391 . S
C455 C454 1.391 . S
C455 C456 1.399 . S
C456 C455 1.399 . S
C456 C457 1.396 . S
C456 C459 1.453 . S
C456 C460 1.684 . S
C457 C447 1.723 . S
C457 C456 1.396 . S
C457 C458 1.394 . S
C458 C428 1.723 . S
C458 C454 1.397 . S
C458 C457 1.394 . S
C459 H431 0.982 . S
C459 H435 0.979 . S
C459 H436 0.977 . S
C459 C456 1.453 . S
C460 H432 0.979 . S
C460 H433 0.980 . S
C460 H434 0.983 . S
C460 C456 1.684 . S
H461 C479 0.948 . S
H462 C420 0.948 . S
H463 C438 0.979 . S
H464 C438 0.980 . S
H465 C438 0.983 . S
H466 C437 0.982 . S
H467 C437 0.979 . S
H468 C437 0.977 . S
H469 C439 0.948 . S
H470 C441 0.947 . S
H471 C442 0.948 . S
H472 C448 0.982 . S
H473 C448 0.979 . S
H474 C448 0.977 . S
H475 C449 0.979 . S
H476 C449 0.980 . S
H477 C449 0.983 . S
H478 C422 0.947 . S
C479 C422 1.392 . S
C479 C423 1.419 . S
C479 H461 0.948 . S
Gd480 C483 2.818 . S
Gd480 O500 2.377 . S
Gd480 O502 2.448 . S
Gd480 O503 2.506 . S
Gd480 O504 2.435 1_545 S
Gd480 O505 2.717 1_545 S
Gd480 O507 2.395 1_445 S
Gd480 O511 2.327 1_455 S
Gd481 C492 2.818 . S
Gd481 O501 2.395 1_665 S
Gd481 O505 2.327 1_655 S
Gd481 O506 2.377 . S
Gd481 O508 2.448 . S
Gd481 O509 2.506 . S
Gd481 O510 2.435 1_565 S
Gd481 O511 2.717 1_565 S
C482 O500 1.240 . S
C482 O501 1.240 . S
C483 Gd480 2.818 . S
C483 C484 1.510 . S
C483 O502 1.249 . S
C483 O503 1.252 . S
C484 C483 1.510 . S
C484 C485 1.404 . S
C484 C486 1.352 . S
C485 C484 1.404 . S
C485 C489 1.389 . S
C485 H512 0.930 . S
C486 C484 1.352 . S
C486 C488 1.374 . S
C486 H513 0.931 . S
C487 C488 1.359 . S
C487 C489 1.364 . S
C488 C486 1.374 . S
C488 C487 1.359 . S
C488 H514 0.931 . S
C489 C485 1.389 . S
C489 C487 1.364 . S
C489 H515 0.931 . S
C490 O504 1.256 . S
C490 O505 1.257 . S
C491 O506 1.240 . S
C491 O507 1.240 . S
C492 Gd481 2.818 . S
C492 C493 1.510 . S
C492 O508 1.249 . S
C492 O509 1.252 . S
C493 C492 1.510 . S
C493 C494 1.404 . S
C493 C495 1.352 . S
C494 C493 1.404 . S
C494 C498 1.389 . S
C494 H516 0.930 . S
C495 C493 1.352 . S
C495 C497 1.374 . S
C495 H517 0.931 . S
C496 C497 1.359 . S
C496 C498 1.364 . S
C497 C495 1.374 . S
C497 C496 1.359 . S
C497 H518 0.931 . S
C498 C494 1.389 . S
C498 C496 1.364 . S
C498 H519 0.931 . S
C499 O510 1.256 . S
C499 O511 1.257 . S
O500 Gd480 2.377 . S
O500 C482 1.240 . S
O501 Gd481 2.395 1_445 S
O501 C482 1.240 . S
O502 Gd480 2.448 . S
O502 C483 1.249 . S
O503 Gd480 2.506 . S
O503 C483 1.252 . S
O504 Gd480 2.435 1_565 S
O504 C490 1.256 . S
O505 Gd480 2.717 1_565 S
O505 Gd481 2.327 1_455 S
O505 C490 1.257 . S
O506 Gd481 2.377 . S
O506 C491 1.240 . S
O507 Gd480 2.395 1_665 S
O507 C491 1.240 . S
O508 Gd481 2.448 . S
O508 C492 1.249 . S
O509 Gd481 2.506 . S
O509 C492 1.252 . S
O510 Gd481 2.435 1_545 S
O510 C499 1.256 . S
O511 Gd480 2.327 1_655 S
O511 Gd481 2.717 1_545 S
O511 C499 1.257 . S
H512 C485 0.930 . S
H513 C486 0.931 . S
H514 C488 0.931 . S
H515 C489 0.931 . S
H516 C494 0.930 . S
H517 C495 0.931 . S
H518 C497 0.931 . S
H519 C498 0.931 . S
Gd520 C523 2.798 1_565 S
Gd520 O540 2.355 1_565 S
Gd520 O542 2.445 1_565 S
Gd520 O543 2.472 1_565 S
Gd520 O544 2.465 . S
Gd520 O545 2.732 . S
Gd520 O547 2.420 1_554 S
Gd520 O551 2.300 1_564 S
Gd521 C532 2.818 1_545 S
Gd521 O541 2.395 1_556 S
Gd521 O545 2.327 1_546 S
Gd521 O546 2.377 1_545 S
Gd521 O548 2.448 1_545 S
Gd521 O549 2.506 1_545 S
Gd521 O550 2.435 . S
Gd521 O551 2.717 . S
C522 O540 1.240 . S
C522 O541 1.240 . S
C523 Gd520 2.798 1_545 S
C523 C524 1.510 . S
C523 O542 1.249 . S
C523 O543 1.252 . S
C524 C523 1.510 . S
C524 C525 1.404 . S
C524 C526 1.352 . S
C525 C524 1.404 . S
C525 C529 1.389 . S
C525 H552 0.930 . S
C526 C524 1.352 . S
C526 C528 1.374 . S
C526 H553 0.931 . S
C527 C528 1.359 . S
C527 C529 1.364 . S
C528 C526 1.374 . S
C528 C527 1.359 . S
C528 H554 0.931 . S
C529 C525 1.389 . S
C529 C527 1.364 . S
C529 H555 0.931 . S
C530 O544 1.256 . S
C530 O545 1.257 . S
C531 O546 1.240 . S
C531 O547 1.240 . S
C532 Gd521 2.818 1_565 S
C532 C533 1.510 . S
C532 O548 1.249 . S
C532 O549 1.252 . S
C533 C532 1.510 . S
C533 C534 1.404 . S
C533 C535 1.352 . S
C534 C533 1.404 . S
C534 C538 1.389 . S
C534 H556 0.930 . S
C535 C533 1.352 . S
C535 C537 1.374 . S
C535 H557 0.931 . S
C536 C537 1.359 . S
C536 C538 1.364 . S
C537 C535 1.374 . S
C537 C536 1.359 . S
C537 H558 0.931 . S
C538 C534 1.389 . S
C538 C536 1.364 . S
C538 H559 0.931 . S
C539 O550 1.256 . S
C539 O551 1.257 . S
O540 Gd520 2.355 1_545 S
O540 C522 1.240 . S
O541 Gd521 2.395 1_554 S
O541 C522 1.240 . S
O542 Gd520 2.445 1_545 S
O542 C523 1.249 . S
O543 Gd520 2.472 1_545 S
O543 C523 1.252 . S
O544 Gd520 2.465 . S
O544 C530 1.256 . S
O545 Gd520 2.732 . S
O545 Gd521 2.327 1_564 S
O545 C530 1.257 . S
O546 Gd521 2.377 1_565 S
O546 C531 1.240 . S
O547 Gd520 2.420 1_556 S
O547 C531 1.240 . S
O548 Gd521 2.448 1_565 S
O548 C532 1.249 . S
O549 Gd521 2.506 1_565 S
O549 C532 1.252 . S
O550 Gd521 2.435 . S
O550 C539 1.256 . S
O551 Gd520 2.300 1_546 S
O551 Gd521 2.717 . S
O551 C539 1.257 . S
H552 C525 0.930 . S
H553 C526 0.931 . S
H554 C528 0.931 . S
H555 C529 0.931 . S
H556 C534 0.930 . S
H557 C535 0.931 . S
H558 C537 0.931 . S
H559 C538 0.931 . S
Gd560 C563 2.818 . S
Gd560 O580 2.377 . S
Gd560 O582 2.448 . S
Gd560 O583 2.506 . S
Gd560 O584 2.435 . S
Gd560 O585 2.717 . S
Gd560 O587 2.395 . S
Gd560 O591 2.327 . S
Gd561 C572 2.818 . S
Gd561 O581 2.395 . S
Gd561 O585 2.327 . S
Gd561 O586 2.377 . S
Gd561 O588 2.448 . S
Gd561 O589 2.506 . S
Gd561 O590 2.435 . S
Gd561 O591 2.717 . S
C562 O580 1.240 . S
C562 O581 1.240 . S
C563 Gd560 2.818 . S
C563 C564 1.510 . S
C563 O582 1.249 . S
C563 O583 1.252 . S
C564 C563 1.510 . S
C564 C565 1.404 . S
C564 C566 1.352 . S
C565 C564 1.404 . S
C565 C569 1.389 . S
C565 H592 0.930 . S
C566 C564 1.352 . S
C566 C568 1.374 . S
C566 H593 0.931 . S
C567 C568 1.359 . S
C567 C569 1.364 . S
C568 C566 1.374 . S
C568 C567 1.359 . S
C568 H594 0.931 . S
C569 C565 1.389 . S
C569 C567 1.364 . S
C569 H595 0.931 . S
C570 O584 1.256 . S
C570 O585 1.257 . S
C571 O586 1.240 . S
C571 O587 1.240 . S
C572 Gd561 2.818 . S
C572 C573 1.510 . S
C572 O588 1.249 . S
C572 O589 1.252 . S
C573 C572 1.510 . S
C573 C574 1.404 . S
C573 C575 1.352 . S
C574 C573 1.404 . S
C574 C578 1.389 . S
C574 H596 0.930 . S
C575 C573 1.352 . S
C575 C577 1.374 . S
C575 H597 0.931 . S
C576 C577 1.359 . S
C576 C578 1.364 . S
C577 C575 1.374 . S
C577 C576 1.359 . S
C577 H598 0.931 . S
C578 C574 1.389 . S
C578 C576 1.364 . S
C578 H599 0.931 . S
C579 O590 1.256 . S
C579 O591 1.257 . S
O580 Gd560 2.377 . S
O580 C562 1.240 . S
O581 Gd561 2.395 . S
O581 C562 1.240 . S
O582 Gd560 2.448 . S
O582 C563 1.249 . S
O583 Gd560 2.506 . S
O583 C563 1.252 . S
O584 Gd560 2.435 . S
O584 C570 1.256 . S
O585 Gd560 2.717 . S
O585 Gd561 2.327 . S
O585 C570 1.257 . S
O586 Gd561 2.377 . S
O586 C571 1.240 . S
O587 Gd560 2.395 . S
O587 C571 1.240 . S
O588 Gd561 2.448 . S
O588 C572 1.249 . S
O589 Gd561 2.506 . S
O589 C572 1.252 . S
O590 Gd561 2.435 . S
O590 C579 1.256 . S
O591 Gd560 2.327 . S
O591 Gd561 2.717 . S
O591 C579 1.257 . S
H592 C565 0.930 . S
H593 C566 0.931 . S
H594 C568 0.931 . S
H595 C569 0.931 . S
H596 C574 0.930 . S
H597 C575 0.931 . S
H598 C577 0.931 . S
H599 C578 0.931 . S
Gd600 C603 2.818 . S
Gd600 O620 2.377 . S
Gd600 O622 2.448 . S
Gd600 O623 2.506 . S
Gd600 O624 2.435 1_455 S
Gd600 O625 2.717 1_455 S
Gd600 O627 2.395 1_454 S
Gd600 O631 2.327 1_554 S
Gd601 C612 2.818 . S
Gd601 O621 2.395 1_656 S
Gd601 O625 2.327 1_556 S
Gd601 O626 2.377 . S
Gd601 O628 2.448 . S
Gd601 O629 2.506 . S
Gd601 O630 2.435 1_655 S
Gd601 O631 2.717 1_655 S
C602 O620 1.240 . S
C602 O621 1.240 . S
C603 Gd600 2.818 . S
C603 C604 1.510 . S
C603 O622 1.249 . S
C603 O623 1.252 . S
C604 C603 1.510 . S
C604 C605 1.404 . S
C604 C606 1.352 . S
C605 C604 1.404 . S
C605 C609 1.389 . S
C605 H632 0.930 . S
C606 C604 1.352 . S
C606 C608 1.374 . S
C606 H633 0.931 . S
C607 C608 1.359 . S
C607 C609 1.364 . S
C608 C606 1.374 . S
C608 C607 1.359 . S
C608 H634 0.931 . S
C609 C605 1.389 . S
C609 C607 1.364 . S
C609 H635 0.931 . S
C610 O624 1.256 . S
C610 O625 1.257 . S
C611 O626 1.240 . S
C611 O627 1.240 . S
C612 Gd601 2.818 . S
C612 C613 1.510 . S
C612 O628 1.249 . S
C612 O629 1.252 . S
C613 C612 1.510 . S
C613 C614 1.404 . S
C613 C615 1.352 . S
C614 C613 1.404 . S
C614 C618 1.389 . S
C614 H636 0.930 . S
C615 C613 1.352 . S
C615 C617 1.374 . S
C615 H637 0.931 . S
C616 C617 1.359 . S
C616 C618 1.364 . S
C617 C615 1.374 . S
C617 C616 1.359 . S
C617 H638 0.931 . S
C618 C614 1.389 . S
C618 C616 1.364 . S
C618 H639 0.931 . S
C619 O630 1.256 . S
C619 O631 1.257 . S
O620 Gd600 2.377 . S
O620 C602 1.240 . S
O621 Gd601 2.395 1_454 S
O621 C602 1.240 . S
O622 Gd600 2.448 . S
O622 C603 1.249 . S
O623 Gd600 2.506 . S
O623 C603 1.252 . S
O624 Gd600 2.435 1_655 S
O624 C610 1.256 . S
O625 Gd600 2.717 1_655 S
O625 Gd601 2.327 1_554 S
O625 C610 1.257 . S
O626 Gd601 2.377 . S
O626 C611 1.240 . S
O627 Gd600 2.395 1_656 S
O627 C611 1.240 . S
O628 Gd601 2.448 . S
O628 C612 1.249 . S
O629 Gd601 2.506 . S
O629 C612 1.252 . S
O630 Gd601 2.435 1_455 S
O630 C619 1.256 . S
O631 Gd600 2.327 1_556 S
O631 Gd601 2.717 1_455 S
O631 C619 1.257 . S
H632 C605 0.930 . S
H633 C606 0.931 . S
H634 C608 0.931 . S
H635 C609 0.931 . S
H636 C614 0.930 . S
H637 C615 0.931 . S
H638 C617 0.931 . S
H639 C618 0.931 . S
C640 C641 1.391 . S
C640 C642 1.394 . S
C640 H656 0.931 . S
C641 C640 1.391 . S
C641 C645 1.376 . S
C642 C640 1.394 . S
C642 C643 1.369 . S
C642 C646 1.531 . S
C643 C642 1.369 . S
C643 C644 1.410 . S
C643 C651 1.503 . S
C644 C643 1.410 . S
C644 C645 1.392 . S
C644 C647 1.511 . S
C645 C641 1.376 . S
C645 C644 1.392 . S
C645 H657 0.929 . S
C646 C642 1.531 . S
C646 H658 0.960 . S
C646 H659 0.962 . S
C646 H660 0.960 . S
C647 C644 1.511 . S
C647 H661 0.961 . S
C647 H662 0.961 . S
C647 H663 0.961 . S
C648 C649 1.370 . S
C648 C650 1.363 . S
C648 H664 0.931 . S
C649 C648 1.370 . S
C649 C653 1.408 . S
C650 C648 1.363 . S
C650 C651 1.370 . S
C650 C654 1.524 . S
C651 C643 1.503 . S
C651 C650 1.370 . S
C651 C652 1.403 . S
C652 C651 1.403 . S
C652 C653 1.404 . S
C652 C655 1.539 . S
C653 C649 1.408 . S
C653 C652 1.404 . S
C653 H665 0.930 . S
C654 C650 1.524 . S
C654 H666 0.956 . S
C654 H667 0.961 . S
C654 H668 0.961 . S
C655 C652 1.539 . S
C655 H669 0.958 . S
C655 H670 0.961 . S
C655 H671 0.960 . S
H656 C640 0.931 . S
H657 C645 0.929 . S
H658 C646 0.960 . S
H659 C646 0.962 . S
H660 C646 0.960 . S
H661 C647 0.961 . S
H662 C647 0.961 . S
H663 C647 0.961 . S
H664 C648 0.931 . S
H665 C653 0.930 . S
H666 C654 0.956 . S
H667 C654 0.961 . S
H668 C654 0.961 . S
H669 C655 0.958 . S
H670 C655 0.961 . S
H671 C655 0.960 . S
C672 C673 1.391 . S
C672 C674 1.394 . S
C672 H688 0.931 . S
C673 C672 1.391 . S
C673 C677 1.376 . S
C674 C672 1.394 . S
C674 C675 1.369 . S
C674 C678 1.531 . S
C675 C674 1.369 . S
C675 C676 1.410 . S
C675 C683 1.503 . S
C676 C675 1.410 . S
C676 C677 1.392 . S
C676 C679 1.511 . S
C677 C673 1.376 . S
C677 C676 1.392 . S
C677 H689 0.929 . S
C678 C674 1.531 . S
C678 H690 0.960 . S
C678 H691 0.962 . S
C678 H692 0.960 . S
C679 C676 1.511 . S
C679 H693 0.961 . S
C679 H694 0.961 . S
C679 H695 0.961 . S
C680 C681 1.370 . S
C680 C682 1.363 . S
C680 H696 0.931 . S
C681 C680 1.370 . S
C681 C685 1.408 . S
C682 C680 1.363 . S
C682 C683 1.370 . S
C682 C686 1.524 . S
C683 C675 1.503 . S
C683 C682 1.370 . S
C683 C684 1.403 . S
C684 C683 1.403 . S
C684 C685 1.404 . S
C684 C687 1.539 . S
C685 C681 1.408 . S
C685 C684 1.404 . S
C685 H697 0.930 . S
C686 C682 1.524 . S
C686 H698 0.956 . S
C686 H699 0.961 . S
C686 H700 0.961 . S
C687 C684 1.539 . S
C687 H701 0.958 . S
C687 H702 0.961 . S
C687 H703 0.960 . S
H688 C672 0.931 . S
H689 C677 0.929 . S
H690 C678 0.960 . S
H691 C678 0.962 . S
H692 C678 0.960 . S
H693 C679 0.961 . S
H694 C679 0.961 . S
H695 C679 0.961 . S
H696 C680 0.931 . S
H697 C685 0.930 . S
H698 C686 0.956 . S
H699 C686 0.961 . S
H700 C686 0.961 . S
H701 C687 0.958 . S
H702 C687 0.961 . S
H703 C687 0.960 . S
C704 C705 1.391 . S
C704 C706 1.394 . S
C704 H720 0.931 . S
C705 C704 1.391 . S
C705 C709 1.376 . S
C706 C704 1.394 . S
C706 C707 1.369 . S
C706 C710 1.531 . S
C707 C706 1.369 . S
C707 C708 1.410 . S
C707 C715 1.503 . S
C708 C707 1.410 . S
C708 C709 1.392 . S
C708 C711 1.511 . S
C709 C705 1.376 . S
C709 C708 1.392 . S
C709 H721 0.929 . S
C710 C706 1.531 . S
C710 H722 0.960 . S
C710 H723 0.962 . S
C710 H724 0.960 . S
C711 C708 1.511 . S
C711 H725 0.961 . S
C711 H726 0.961 . S
C711 H727 0.961 . S
C712 C713 1.370 . S
C712 C714 1.363 . S
C712 H728 0.931 . S
C713 C712 1.370 . S
C713 C717 1.408 . S
C714 C712 1.363 . S
C714 C715 1.370 . S
C714 C718 1.524 . S
C715 C707 1.503 . S
C715 C714 1.370 . S
C715 C716 1.403 . S
C716 C715 1.403 . S
C716 C717 1.404 . S
C716 C719 1.539 . S
C717 C713 1.408 . S
C717 C716 1.404 . S
C717 H729 0.930 . S
C718 C714 1.524 . S
C718 H730 0.956 . S
C718 H731 0.961 . S
C718 H732 0.961 . S
C719 C716 1.539 . S
C719 H733 0.958 . S
C719 H734 0.961 . S
C719 H735 0.960 . S
H720 C704 0.931 . S
H721 C709 0.929 . S
H722 C710 0.960 . S
H723 C710 0.962 . S
H724 C710 0.960 . S
H725 C711 0.961 . S
H726 C711 0.961 . S
H727 C711 0.961 . S
H728 C712 0.931 . S
H729 C717 0.930 . S
H730 C718 0.956 . S
H731 C718 0.961 . S
H732 C718 0.961 . S
H733 C719 0.958 . S
H734 C719 0.961 . S
H735 C719 0.960 . S
C736 C737 1.391 . S
C736 C738 1.394 . S
C736 H752 0.931 . S
C737 C736 1.391 . S
C737 C741 1.376 . S
C738 C736 1.394 . S
C738 C739 1.369 . S
C738 C742 1.531 . S
C739 C738 1.369 . S
C739 C740 1.410 . S
C739 C747 1.503 . S
C740 C739 1.410 . S
C740 C741 1.392 . S
C740 C743 1.511 . S
C741 C737 1.376 . S
C741 C740 1.392 . S
C741 H753 0.929 . S
C742 C738 1.531 . S
C742 H754 0.960 . S
C742 H755 0.962 . S
C742 H756 0.960 . S
C743 C740 1.511 . S
C743 H757 0.961 . S
C743 H758 0.961 . S
C743 H759 0.961 . S
C744 C745 1.370 . S
C744 C746 1.363 . S
C744 H760 0.931 . S
C745 C744 1.370 . S
C745 C749 1.408 . S
C746 C744 1.363 . S
C746 C747 1.370 . S
C746 C750 1.524 . S
C747 C739 1.503 . S
C747 C746 1.370 . S
C747 C748 1.403 . S
C748 C747 1.403 . S
C748 C749 1.404 . S
C748 C751 1.539 . S
C749 C745 1.408 . S
C749 C748 1.404 . S
C749 H761 0.930 . S
C750 C746 1.524 . S
C750 H762 0.956 . S
C750 H763 0.961 . S
C750 H764 0.961 . S
C751 C748 1.539 . S
C751 H765 0.958 . S
C751 H766 0.961 1_655 S
C751 H767 0.960 . S
H752 C736 0.931 . S
H753 C741 0.929 . S
H754 C742 0.960 . S
H755 C742 0.962 . S
H756 C742 0.960 . S
H757 C743 0.961 . S
H758 C743 0.961 . S
H759 C743 0.961 . S
H760 C744 0.931 . S
H761 C749 0.930 . S
H762 C750 0.956 . S
H763 C750 0.961 . S
H764 C750 0.961 . S
H765 C751 0.958 . S
H766 C751 0.961 1_455 S
H767 C751 0.960 . S
C768 C769 1.391 . S
C768 C770 1.394 . S
C768 H784 0.931 . S
C769 C768 1.391 . S
C769 C773 1.376 . S
C770 C768 1.394 . S
C770 C771 1.369 . S
C770 C774 1.531 . S
C771 C770 1.369 . S
C771 C772 1.410 . S
C771 C779 1.503 . S
C772 C771 1.410 . S
C772 C773 1.392 . S
C772 C775 1.511 . S
C773 C769 1.376 . S
C773 C772 1.392 . S
C773 H785 0.929 . S
C774 C770 1.531 . S
C774 H786 0.960 . S
C774 H787 0.962 . S
C774 H788 0.960 . S
C775 C772 1.511 . S
C775 H789 0.961 . S
C775 H790 0.961 . S
C775 H791 0.961 . S
C776 C777 1.370 . S
C776 C778 1.363 . S
C776 H792 0.931 . S
C777 C776 1.370 . S
C777 C781 1.408 . S
C778 C776 1.363 . S
C778 C779 1.370 . S
C778 C782 1.524 . S
C779 C771 1.503 . S
C779 C778 1.370 . S
C779 C780 1.403 . S
C780 C779 1.403 . S
C780 C781 1.404 . S
C780 C783 1.539 . S
C781 C777 1.408 . S
C781 C780 1.404 . S
C781 H793 0.930 . S
C782 C778 1.524 . S
C782 H794 0.956 . S
C782 H795 0.961 . S
C782 H796 0.961 . S
C783 C780 1.539 . S
C783 H797 0.958 . S
C783 H798 0.961 . S
C783 H799 0.960 . S
H784 C768 0.931 . S
H785 C773 0.929 . S
H786 C774 0.960 . S
H787 C774 0.962 . S
H788 C774 0.960 . S
H789 C775 0.961 . S
H790 C775 0.961 . S
H791 C775 0.961 . S
H792 C776 0.931 . S
H793 C781 0.930 . S
H794 C782 0.956 . S
H795 C782 0.961 . S
H796 C782 0.961 . S
H797 C783 0.958 . S
H798 C783 0.961 . S
H799 C783 0.960 . S
C800 C801 1.391 . S
C800 C802 1.394 . S
C800 H816 0.931 . S
C801 C800 1.391 . S
C801 C805 1.376 . S
C802 C800 1.394 . S
C802 C803 1.369 . S
C802 C806 1.531 . S
C803 C802 1.369 . S
C803 C804 1.410 . S
C803 C811 1.503 . S
C804 C803 1.410 . S
C804 C805 1.392 . S
C804 C807 1.511 . S
C805 C801 1.376 . S
C805 C804 1.392 . S
C805 H817 0.929 . S
C806 C802 1.531 . S
C806 H818 0.960 . S
C806 H819 0.962 . S
C806 H820 0.960 . S
C807 C804 1.511 . S
C807 H821 0.961 . S
C807 H822 0.961 . S
C807 H823 0.961 . S
C808 C809 1.370 . S
C808 C810 1.363 . S
C808 H824 0.931 . S
C809 C808 1.370 . S
C809 C813 1.408 . S
C810 C808 1.363 . S
C810 C811 1.370 . S
C810 C814 1.524 . S
C811 C803 1.503 . S
C811 C810 1.370 . S
C811 C812 1.403 . S
C812 C811 1.403 . S
C812 C813 1.404 . S
C812 C815 1.539 . S
C813 C809 1.408 . S
C813 C812 1.404 . S
C813 H825 0.930 . S
C814 C810 1.524 . S
C814 H826 0.956 . S
C814 H827 0.961 . S
C814 H828 0.961 . S
C815 C812 1.539 . S
C815 H829 0.958 . S
C815 H830 0.961 . S
C815 H831 0.960 . S
H816 C800 0.931 . S
H817 C805 0.929 . S
H818 C806 0.960 . S
H819 C806 0.962 . S
H820 C806 0.960 . S
H821 C807 0.961 . S
H822 C807 0.961 . S
H823 C807 0.961 . S
H824 C808 0.931 . S
H825 C813 0.930 . S
H826 C814 0.956 . S
H827 C814 0.961 . S
H828 C814 0.961 . S
H829 C815 0.958 . S
H830 C815 0.961 . S
H831 C815 0.960 . S
C832 C833 1.391 . S
C832 C834 1.394 . S
C832 H848 0.931 . S
C833 C832 1.391 . S
C833 C837 1.376 . S
C834 C832 1.394 . S
C834 C835 1.369 . S
C834 C838 1.531 . S
C835 C834 1.369 . S
C835 C836 1.410 . S
C835 C843 1.503 . S
C836 C835 1.410 . S
C836 C837 1.392 . S
C836 C839 1.511 . S
C837 C833 1.376 . S
C837 C836 1.392 . S
C837 H849 0.929 . S
C838 C834 1.531 . S
C838 H850 0.960 . S
C838 H851 0.962 . S
C838 H852 0.960 . S
C839 C836 1.511 . S
C839 H853 0.961 . S
C839 H854 0.961 . S
C839 H855 0.961 . S
C840 C841 1.370 . S
C840 C842 1.363 . S
C840 H856 0.931 . S
C841 C840 1.370 . S
C841 C845 1.408 . S
C842 C840 1.363 . S
C842 C843 1.370 . S
C842 C846 1.524 . S
C843 C835 1.503 . S
C843 C842 1.370 . S
C843 C844 1.403 . S
C844 C843 1.403 . S
C844 C845 1.404 . S
C844 C847 1.539 . S
C845 C841 1.408 . S
C845 C844 1.404 . S
C845 H857 0.930 . S
C846 C842 1.524 . S
C846 H858 0.956 . S
C846 H859 0.961 . S
C846 H860 0.961 . S
C847 C844 1.539 . S
C847 H861 0.958 . S
C847 H862 0.961 . S
C847 H863 0.960 . S
H848 C832 0.931 . S
H849 C837 0.929 . S
H850 C838 0.960 . S
H851 C838 0.962 . S
H852 C838 0.960 . S
H853 C839 0.961 . S
H854 C839 0.961 . S
H855 C839 0.961 . S
H856 C840 0.931 . S
H857 C845 0.930 . S
H858 C846 0.956 . S
H859 C846 0.961 . S
H860 C846 0.961 . S
H861 C847 0.958 . S
H862 C847 0.961 . S
H863 C847 0.960 . S
C864 C865 1.391 . S
C864 C866 1.394 . S
C864 H880 0.931 . S
C865 C864 1.391 . S
C865 C869 1.376 . S
C866 C864 1.394 . S
C866 C867 1.369 . S
C866 C870 1.531 . S
C867 C866 1.369 . S
C867 C868 1.410 . S
C867 C875 1.503 . S
C868 C867 1.410 . S
C868 C869 1.392 . S
C868 C871 1.511 . S
C869 C865 1.376 . S
C869 C868 1.392 . S
C869 H881 0.929 . S
C870 C866 1.531 . S
C870 H882 0.960 . S
C870 H883 0.962 . S
C870 H884 0.960 . S
C871 C868 1.511 . S
C871 H885 0.961 . S
C871 H886 0.961 . S
C871 H887 0.961 . S
C872 C873 1.370 . S
C872 C874 1.363 . S
C872 H888 0.931 . S
C873 C872 1.370 . S
C873 C877 1.408 . S
C874 C872 1.363 . S
C874 C875 1.370 . S
C874 C878 1.524 . S
C875 C867 1.503 . S
C875 C874 1.370 . S
C875 C876 1.403 . S
C876 C875 1.403 . S
C876 C877 1.404 . S
C876 C879 1.539 . S
C877 C873 1.408 . S
C877 C876 1.404 . S
C877 H889 0.930 . S
C878 C874 1.524 . S
C878 H890 0.956 . S
C878 H891 0.961 . S
C878 H892 0.961 . S
C879 C876 1.539 . S
C879 H893 0.958 . S
C879 H894 0.961 . S
C879 H895 0.960 . S
H880 C864 0.931 . S
H881 C869 0.929 . S
H882 C870 0.960 . S
H883 C870 0.962 . S
H884 C870 0.960 . S
H885 C871 0.961 . S
H886 C871 0.961 . S
H887 C871 0.961 . S
H888 C872 0.931 . S
H889 C877 0.930 . S
H890 C878 0.956 . S
H891 C878 0.961 . S
H892 C878 0.961 . S
H893 C879 0.958 . S
H894 C879 0.961 . S
H895 C879 0.960 . S
C896 C897 1.391 . S
C896 C898 1.394 . S
C896 H912 0.931 . S
C897 C896 1.391 . S
C897 C901 1.376 . S
C898 C896 1.394 . S
C898 C899 1.369 . S
C898 C902 1.531 . S
C899 C898 1.369 . S
C899 C900 1.410 . S
C899 C907 1.503 . S
C900 C899 1.410 . S
C900 C901 1.392 . S
C900 C903 1.511 . S
C901 C897 1.376 . S
C901 C900 1.392 . S
C901 H913 0.929 . S
C902 C898 1.531 . S
C902 H914 0.960 . S
C902 H915 0.962 . S
C902 H916 0.960 . S
C903 C900 1.511 . S
C903 H917 0.961 . S
C903 H918 0.961 . S
C903 H919 0.961 . S
C904 C905 1.370 . S
C904 C906 1.363 . S
C904 H920 0.931 . S
C905 C904 1.370 . S
C905 C909 1.408 . S
C906 C904 1.363 . S
C906 C907 1.370 . S
C906 C910 1.524 . S
C907 C899 1.503 . S
C907 C906 1.370 . S
C907 C908 1.403 . S
C908 C907 1.403 . S
C908 C909 1.404 . S
C908 C911 1.539 . S
C909 C905 1.408 . S
C909 C908 1.404 . S
C909 H921 0.930 . S
C910 C906 1.524 . S
C910 H922 0.956 . S
C910 H923 0.961 . S
C910 H924 0.961 . S
C911 C908 1.539 . S
C911 H925 0.958 . S
C911 H926 0.961 . S
C911 H927 0.960 . S
H912 C896 0.931 . S
H913 C901 0.929 . S
H914 C902 0.960 . S
H915 C902 0.962 . S
H916 C902 0.960 . S
H917 C903 0.961 . S
H918 C903 0.961 . S
H919 C903 0.961 . S
H920 C904 0.931 . S
H921 C909 0.930 . S
H922 C910 0.956 . S
H923 C910 0.961 . S
H924 C910 0.961 . S
H925 C911 0.958 . S
H926 C911 0.961 . S
H927 C911 0.960 . S
C928 C929 1.391 . S
C928 C930 1.394 . S
C928 H944 0.931 . S
C929 C928 1.391 . S
C929 C933 1.376 . S
C930 C928 1.394 . S
C930 C931 1.369 . S
C930 C934 1.531 . S
C931 C930 1.369 . S
C931 C932 1.410 . S
C931 C939 1.503 . S
C932 C931 1.410 . S
C932 C933 1.392 . S
C932 C935 1.511 . S
C933 C929 1.376 . S
C933 C932 1.392 . S
C933 H945 0.929 . S
C934 C930 1.531 . S
C934 H946 0.960 . S
C934 H947 0.962 . S
C934 H948 0.960 . S
C935 C932 1.511 . S
C935 H949 0.961 . S
C935 H950 0.961 . S
C935 H951 0.961 . S
C936 C937 1.370 . S
C936 C938 1.363 . S
C936 H952 0.931 . S
C937 C936 1.370 . S
C937 C941 1.408 . S
C938 C936 1.363 . S
C938 C939 1.370 . S
C938 C942 1.524 . S
C939 C931 1.503 . S
C939 C938 1.370 . S
C939 C940 1.403 . S
C940 C939 1.403 . S
C940 C941 1.404 . S
C940 C943 1.539 . S
C941 C937 1.408 . S
C941 C940 1.404 . S
C941 H953 0.930 . S
C942 C938 1.524 . S
C942 H954 0.956 . S
C942 H955 0.961 . S
C942 H956 0.961 . S
C943 C940 1.539 . S
C943 H957 0.958 . S
C943 H958 0.961 . S
C943 H959 0.960 . S
H944 C928 0.931 . S
H945 C933 0.929 . S
H946 C934 0.960 . S
H947 C934 0.962 . S
H948 C934 0.960 . S
H949 C935 0.961 . S
H950 C935 0.961 . S
H951 C935 0.961 . S
H952 C936 0.931 . S
H953 C941 0.930 . S
H954 C942 0.956 . S
H955 C942 0.961 . S
H956 C942 0.961 . S
H957 C943 0.958 . S
H958 C943 0.961 . S
H959 C943 0.960 . S
C960 C961 1.391 . S
C960 C962 1.394 . S
C960 H976 0.931 . S
C961 C960 1.391 . S
C961 C965 1.376 . S
C962 C960 1.394 . S
C962 C963 1.369 . S
C962 C966 1.531 . S
C963 C962 1.369 . S
C963 C964 1.410 . S
C963 C971 1.503 . S
C964 C963 1.410 . S
C964 C965 1.392 . S
C964 C967 1.511 . S
C965 C961 1.376 . S
C965 C964 1.392 . S
C965 H977 0.929 . S
C966 C962 1.531 . S
C966 H978 0.960 . S
C966 H979 0.962 . S
C966 H980 0.960 . S
C967 C964 1.511 . S
C967 H981 0.961 . S
C967 H982 0.961 . S
C967 H983 0.961 . S
C968 C969 1.370 . S
C968 C970 1.363 . S
C968 H984 0.931 . S
C969 C968 1.370 . S
C969 C973 1.408 . S
C970 C968 1.363 . S
C970 C971 1.370 . S
C970 C974 1.524 . S
C971 C963 1.503 . S
C971 C970 1.370 . S
C971 C972 1.403 . S
C972 C971 1.403 . S
C972 C973 1.404 . S
C972 C975 1.539 . S
C973 C969 1.408 . S
C973 C972 1.404 . S
C973 H985 0.930 . S
C974 C970 1.524 . S
C974 H986 0.956 . S
C974 H987 0.961 . S
C974 H988 0.961 . S
C975 C972 1.539 . S
C975 H989 0.958 . S
C975 H990 0.961 . S
C975 H991 0.960 . S
H976 C960 0.931 . S
H977 C965 0.929 . S
H978 C966 0.960 . S
H979 C966 0.962 . S
H980 C966 0.960 . S
H981 C967 0.961 . S
H982 C967 0.961 . S
H983 C967 0.961 . S
H984 C968 0.931 . S
H985 C973 0.930 . S
H986 C974 0.956 . S
H987 C974 0.961 . S
H988 C974 0.961 . S
H989 C975 0.958 . S
H990 C975 0.961 . S
H991 C975 0.960 . S
C992 C993 1.391 . S
C992 C994 1.394 . S
C992 H1008 0.931 . S
C993 C992 1.391 . S
C993 C997 1.376 . S
C994 C992 1.394 . S
C994 C995 1.369 . S
C994 C998 1.531 . S
C995 C994 1.369 . S
C995 C996 1.410 . S
C995 C1003 1.503 . S
C996 C995 1.410 . S
C996 C997 1.392 . S
C996 C999 1.511 . S
C997 C993 1.376 . S
C997 C996 1.392 . S
C997 H1009 0.929 . S
C998 C994 1.531 . S
C998 H1010 0.960 . S
C998 H1011 0.962 . S
C998 H1012 0.960 . S
C999 C996 1.511 . S
C999 H1013 0.961 . S
C999 H1014 0.961 . S
C999 H1015 0.961 . S
C1000 C1001 1.370 . S
C1000 C1002 1.363 . S
C1000 H1016 0.931 . S
C1001 C1000 1.370 . S
C1001 C1005 1.408 . S
C1002 C1000 1.363 . S
C1002 C1003 1.370 . S
C1002 C1006 1.524 . S
C1003 C995 1.503 . S
C1003 C1002 1.370 . S
C1003 C1004 1.403 . S
C1004 C1003 1.403 . S
C1004 C1005 1.404 . S
C1004 C1007 1.539 . S
C1005 C1001 1.408 . S
C1005 C1004 1.404 . S
C1005 H1017 0.930 . S
C1006 C1002 1.524 . S
C1006 H1018 0.956 . S
C1006 H1019 0.961 . S
C1006 H1020 0.961 . S
C1007 C1004 1.539 . S
C1007 H1021 0.958 . S
C1007 H1022 0.961 . S
C1007 H1023 0.960 . S
H1008 C992 0.931 . S
H1009 C997 0.929 . S
H1010 C998 0.960 . S
H1011 C998 0.962 . S
H1012 C998 0.960 . S
H1013 C999 0.961 . S
H1014 C999 0.961 . S
H1015 C999 0.961 . S
H1016 C1000 0.931 . S
H1017 C1005 0.930 . S
H1018 C1006 0.956 . S
H1019 C1006 0.961 . S
H1020 C1006 0.961 . S
H1021 C1007 0.958 . S
H1022 C1007 0.961 . S
H1023 C1007 0.960 . S
C1024 C1025 1.391 . S
C1024 C1026 1.394 . S
C1024 H1040 0.931 . S
C1025 C1024 1.391 . S
C1025 C1029 1.376 . S
C1026 C1024 1.394 . S
C1026 C1027 1.369 . S
C1026 C1030 1.531 . S
C1027 C1026 1.369 . S
C1027 C1028 1.410 . S
C1027 C1035 1.503 . S
C1028 C1027 1.410 . S
C1028 C1029 1.392 . S
C1028 C1031 1.511 . S
C1029 C1025 1.376 . S
C1029 C1028 1.392 . S
C1029 H1041 0.929 . S
C1030 C1026 1.531 . S
C1030 H1042 0.960 . S
C1030 H1043 0.962 . S
C1030 H1044 0.960 . S
C1031 C1028 1.511 . S
C1031 H1045 0.961 . S
C1031 H1046 0.961 . S
C1031 H1047 0.961 . S
C1032 C1033 1.370 . S
C1032 C1034 1.363 . S
C1032 H1048 0.931 . S
C1033 C1032 1.370 . S
C1033 C1037 1.408 . S
C1034 C1032 1.363 . S
C1034 C1035 1.370 . S
C1034 C1038 1.524 . S
C1035 C1027 1.503 . S
C1035 C1034 1.370 . S
C1035 C1036 1.403 . S
C1036 C1035 1.403 . S
C1036 C1037 1.404 . S
C1036 C1039 1.539 . S
C1037 C1033 1.408 . S
C1037 C1036 1.404 . S
C1037 H1049 0.930 . S
C1038 C1034 1.524 . S
C1038 H1050 0.956 . S
C1038 H1051 0.961 . S
C1038 H1052 0.961 . S
C1039 C1036 1.539 . S
C1039 H1053 0.958 . S
C1039 H1054 0.961 . S
C1039 H1055 0.960 . S
H1040 C1024 0.931 . S
H1041 C1029 0.929 . S
H1042 C1030 0.960 . S
H1043 C1030 0.962 . S
H1044 C1030 0.960 . S
H1045 C1031 0.961 . S
H1046 C1031 0.961 . S
H1047 C1031 0.961 . S
H1048 C1032 0.931 . S
H1049 C1037 0.930 . S
H1050 C1038 0.956 . S
H1051 C1038 0.961 . S
H1052 C1038 0.961 . S
H1053 C1039 0.958 . S
H1054 C1039 0.961 . S
H1055 C1039 0.960 . S
C1056 C1057 1.391 . S
C1056 C1058 1.394 . S
C1056 H1072 0.931 . S
C1057 C1056 1.391 . S
C1057 C1061 1.376 . S
C1058 C1056 1.394 . S
C1058 C1059 1.369 . S
C1058 C1062 1.531 . S
C1059 C1058 1.369 . S
C1059 C1060 1.410 . S
C1059 C1067 1.503 . S
C1060 C1059 1.410 . S
C1060 C1061 1.392 . S
C1060 C1063 1.511 . S
C1061 C1057 1.376 . S
C1061 C1060 1.392 . S
C1061 H1073 0.929 . S
C1062 C1058 1.531 . S
C1062 H1074 0.960 . S
C1062 H1075 0.962 . S
C1062 H1076 0.960 . S
C1063 C1060 1.511 . S
C1063 H1077 0.961 . S
C1063 H1078 0.961 . S
C1063 H1079 0.961 . S
C1064 C1065 1.370 . S
C1064 C1066 1.363 . S
C1064 H1080 0.931 . S
C1065 C1064 1.370 . S
C1065 C1069 1.408 . S
C1066 C1064 1.363 . S
C1066 C1067 1.370 . S
C1066 C1070 1.524 . S
C1067 C1059 1.503 . S
C1067 C1066 1.370 . S
C1067 C1068 1.403 . S
C1068 C1067 1.403 . S
C1068 C1069 1.404 . S
C1068 C1071 1.539 . S
C1069 C1065 1.408 . S
C1069 C1068 1.404 . S
C1069 H1081 0.930 . S
C1070 C1066 1.524 . S
C1070 H1082 0.956 . S
C1070 H1083 0.961 . S
C1070 H1084 0.961 . S
C1071 C1068 1.539 . S
C1071 H1085 0.958 . S
C1071 H1086 0.961 . S
C1071 H1087 0.960 . S
H1072 C1056 0.931 . S
H1073 C1061 0.929 . S
H1074 C1062 0.960 . S
H1075 C1062 0.962 . S
H1076 C1062 0.960 . S
H1077 C1063 0.961 . S
H1078 C1063 0.961 . S
H1079 C1063 0.961 . S
H1080 C1064 0.931 . S
H1081 C1069 0.930 . S
H1082 C1070 0.956 . S
H1083 C1070 0.961 . S
H1084 C1070 0.961 . S
H1085 C1071 0.958 . S
H1086 C1071 0.961 . S
H1087 C1071 0.960 . S
C1088 C1089 1.391 . S
C1088 C1090 1.394 . S
C1088 H1104 0.931 . S
C1089 C1088 1.391 . S
C1089 C1093 1.376 . S
C1090 C1088 1.394 . S
C1090 C1091 1.369 . S
C1090 C1094 1.531 . S
C1091 C1090 1.369 . S
C1091 C1092 1.410 . S
C1091 C1099 1.503 . S
C1092 C1091 1.410 . S
C1092 C1093 1.392 . S
C1092 C1095 1.511 . S
C1093 C1089 1.376 . S
C1093 C1092 1.392 . S
C1093 H1105 0.929 . S
C1094 C1090 1.531 . S
C1094 H1106 0.960 . S
C1094 H1107 0.962 . S
C1094 H1108 0.960 . S
C1095 C1092 1.511 . S
C1095 H1109 0.961 . S
C1095 H1110 0.961 . S
C1095 H1111 0.961 . S
C1096 C1097 1.370 . S
C1096 C1098 1.363 . S
C1096 H1112 0.931 . S
C1097 C1096 1.370 . S
C1097 C1101 1.408 . S
C1098 C1096 1.363 . S
C1098 C1099 1.370 . S
C1098 C1102 1.524 . S
C1099 C1091 1.503 . S
C1099 C1098 1.370 . S
C1099 C1100 1.403 . S
C1100 C1099 1.403 . S
C1100 C1101 1.404 . S
C1100 C1103 1.539 . S
C1101 C1097 1.408 . S
C1101 C1100 1.404 . S
C1101 H1113 0.930 . S
C1102 C1098 1.524 . S
C1102 H1114 0.956 . S
C1102 H1115 0.961 . S
C1102 H1116 0.961 . S
C1103 C1100 1.539 . S
C1103 H1117 0.958 . S
C1103 H1118 0.961 . S
C1103 H1119 0.960 . S
H1104 C1088 0.931 . S
H1105 C1093 0.929 . S
H1106 C1094 0.960 . S
H1107 C1094 0.962 . S
H1108 C1094 0.960 . S
H1109 C1095 0.961 . S
H1110 C1095 0.961 . S
H1111 C1095 0.961 . S
H1112 C1096 0.931 . S
H1113 C1101 0.930 . S
H1114 C1102 0.956 . S
H1115 C1102 0.961 . S
H1116 C1102 0.961 . S
H1117 C1103 0.958 . S
H1118 C1103 0.961 . S
H1119 C1103 0.960 . S
C1120 C1121 1.391 . S
C1120 C1122 1.394 . S
C1120 H1136 0.931 . S
C1121 C1120 1.391 . S
C1121 C1125 1.376 . S
C1122 C1120 1.394 . S
C1122 C1123 1.369 . S
C1122 C1126 1.531 . S
C1123 C1122 1.369 . S
C1123 C1124 1.410 . S
C1123 C1131 1.503 . S
C1124 C1123 1.410 . S
C1124 C1125 1.392 . S
C1124 C1127 1.511 . S
C1125 C1121 1.376 . S
C1125 C1124 1.392 . S
C1125 H1137 0.929 . S
C1126 C1122 1.531 . S
C1126 H1138 0.960 . S
C1126 H1139 0.962 . S
C1126 H1140 0.960 . S
C1127 C1124 1.511 . S
C1127 H1141 0.961 . S
C1127 H1142 0.961 . S
C1127 H1143 0.961 . S
C1128 C1129 1.370 . S
C1128 C1130 1.363 . S
C1128 H1144 0.931 . S
C1129 C1128 1.370 . S
C1129 C1133 1.408 . S
C1130 C1128 1.363 . S
C1130 C1131 1.370 . S
C1130 C1134 1.524 . S
C1131 C1123 1.503 . S
C1131 C1130 1.370 . S
C1131 C1132 1.403 . S
C1132 C1131 1.403 . S
C1132 C1133 1.404 . S
C1132 C1135 1.539 . S
C1133 C1129 1.408 . S
C1133 C1132 1.404 . S
C1133 H1145 0.930 . S
C1134 C1130 1.524 . S
C1134 H1146 0.956 . S
C1134 H1147 0.961 . S
C1134 H1148 0.961 . S
C1135 C1132 1.539 . S
C1135 H1149 0.958 . S
C1135 H1150 0.961 . S
C1135 H1151 0.960 . S
H1136 C1120 0.931 . S
H1137 C1125 0.929 . S
H1138 C1126 0.960 . S
H1139 C1126 0.962 . S
H1140 C1126 0.960 . S
H1141 C1127 0.961 . S
H1142 C1127 0.961 . S
H1143 C1127 0.961 . S
H1144 C1128 0.931 . S
H1145 C1133 0.930 . S
H1146 C1134 0.956 . S
H1147 C1134 0.961 . S
H1148 C1134 0.961 . S
H1149 C1135 0.958 . S
H1150 C1135 0.961 . S
H1151 C1135 0.960 . S
C1152 C1153 1.391 . S
C1152 C1154 1.394 . S
C1152 H1168 0.931 . S
C1153 C1152 1.391 . S
C1153 C1157 1.376 . S
C1154 C1152 1.394 . S
C1154 C1155 1.369 . S
C1154 C1158 1.531 . S
C1155 C1154 1.369 . S
C1155 C1156 1.410 . S
C1155 C1163 1.503 . S
C1156 C1155 1.410 . S
C1156 C1157 1.392 . S
C1156 C1159 1.511 . S
C1157 C1153 1.376 . S
C1157 C1156 1.392 . S
C1157 H1169 0.929 . S
C1158 C1154 1.531 . S
C1158 H1170 0.960 . S
C1158 H1171 0.962 . S
C1158 H1172 0.960 . S
C1159 C1156 1.511 . S
C1159 H1173 0.961 . S
C1159 H1174 0.961 . S
C1159 H1175 0.961 . S
C1160 C1161 1.370 . S
C1160 C1162 1.363 . S
C1160 H1176 0.931 . S
C1161 C1160 1.370 . S
C1161 C1165 1.408 . S
C1162 C1160 1.363 . S
C1162 C1163 1.370 . S
C1162 C1166 1.524 . S
C1163 C1155 1.503 . S
C1163 C1162 1.370 . S
C1163 C1164 1.403 . S
C1164 C1163 1.403 . S
C1164 C1165 1.404 . S
C1164 C1167 1.539 . S
C1165 C1161 1.408 . S
C1165 C1164 1.404 . S
C1165 H1177 0.930 . S
C1166 C1162 1.524 . S
C1166 H1178 0.956 . S
C1166 H1179 0.961 . S
C1166 H1180 0.961 . S
C1167 C1164 1.539 . S
C1167 H1181 0.958 . S
C1167 H1182 0.961 . S
C1167 H1183 0.960 . S
H1168 C1152 0.931 . S
H1169 C1157 0.929 . S
H1170 C1158 0.960 . S
H1171 C1158 0.962 . S
H1172 C1158 0.960 . S
H1173 C1159 0.961 . S
H1174 C1159 0.961 . S
H1175 C1159 0.961 . S
H1176 C1160 0.931 . S
H1177 C1165 0.930 . S
H1178 C1166 0.956 . S
H1179 C1166 0.961 . S
H1180 C1166 0.961 . S
H1181 C1167 0.958 . S
H1182 C1167 0.961 . S
H1183 C1167 0.960 . S
C1184 C1185 1.391 . S
C1184 C1186 1.394 . S
C1184 H1200 0.931 . S
C1185 C1184 1.391 . S
C1185 C1189 1.376 . S
C1186 C1184 1.394 . S
C1186 C1187 1.369 . S
C1186 C1190 1.531 . S
C1187 C1186 1.369 . S
C1187 C1188 1.410 . S
C1187 C1195 1.503 . S
C1188 C1187 1.410 . S
C1188 C1189 1.392 . S
C1188 C1191 1.511 . S
C1189 C1185 1.376 . S
C1189 C1188 1.392 . S
C1189 H1201 0.929 . S
C1190 C1186 1.531 . S
C1190 H1202 0.960 . S
C1190 H1203 0.962 . S
C1190 H1204 0.960 . S
C1191 C1188 1.511 . S
C1191 H1205 0.961 . S
C1191 H1206 0.961 . S
C1191 H1207 0.961 . S
C1192 C1193 1.370 . S
C1192 C1194 1.363 . S
C1192 H1208 0.931 . S
C1193 C1192 1.370 . S
C1193 C1197 1.408 . S
C1194 C1192 1.363 . S
C1194 C1195 1.370 . S
C1194 C1198 1.524 . S
C1195 C1187 1.503 . S
C1195 C1194 1.370 . S
C1195 C1196 1.403 . S
C1196 C1195 1.403 . S
C1196 C1197 1.404 . S
C1196 C1199 1.539 . S
C1197 C1193 1.408 . S
C1197 C1196 1.404 . S
C1197 H1209 0.930 . S
C1198 C1194 1.524 . S
C1198 H1210 0.956 . S
C1198 H1211 0.961 . S
C1198 H1212 0.961 . S
C1199 C1196 1.539 . S
C1199 H1213 0.958 . S
C1199 H1214 0.961 . S
C1199 H1215 0.960 . S
H1200 C1184 0.931 . S
H1201 C1189 0.929 . S
H1202 C1190 0.960 . S
H1203 C1190 0.962 . S
H1204 C1190 0.960 . S
H1205 C1191 0.961 . S
H1206 C1191 0.961 . S
H1207 C1191 0.961 . S
H1208 C1192 0.931 . S
H1209 C1197 0.930 . S
H1210 C1198 0.956 . S
H1211 C1198 0.961 . S
H1212 C1198 0.961 . S
H1213 C1199 0.958 . S
H1214 C1199 0.961 . S
H1215 C1199 0.960 . S
C1216 C1217 1.391 . S
C1216 C1218 1.394 . S
C1216 H1232 0.931 . S
C1217 C1216 1.391 . S
C1217 C1221 1.376 . S
C1218 C1216 1.394 . S
C1218 C1219 1.369 . S
C1218 C1222 1.531 . S
C1219 C1218 1.369 . S
C1219 C1220 1.410 . S
C1219 C1227 1.503 . S
C1220 C1219 1.410 . S
C1220 C1221 1.392 . S
C1220 C1223 1.511 . S
C1221 C1217 1.376 . S
C1221 C1220 1.392 . S
C1221 H1233 0.929 . S
C1222 C1218 1.531 . S
C1222 H1234 0.960 . S
C1222 H1235 0.962 . S
C1222 H1236 0.960 . S
C1223 C1220 1.511 . S
C1223 H1237 0.961 . S
C1223 H1238 0.961 . S
C1223 H1239 0.961 . S
C1224 C1225 1.370 . S
C1224 C1226 1.363 . S
C1224 H1240 0.931 . S
C1225 C1224 1.370 . S
C1225 C1229 1.408 . S
C1226 C1224 1.363 . S
C1226 C1227 1.370 . S
C1226 C1230 1.524 . S
C1227 C1219 1.503 . S
C1227 C1226 1.370 . S
C1227 C1228 1.403 . S
C1228 C1227 1.403 . S
C1228 C1229 1.404 . S
C1228 C1231 1.539 . S
C1229 C1225 1.408 . S
C1229 C1228 1.404 . S
C1229 H1241 0.930 . S
C1230 C1226 1.524 . S
C1230 H1242 0.956 . S
C1230 H1243 0.961 . S
C1230 H1244 0.961 . S
C1231 C1228 1.539 . S
C1231 H1245 0.958 . S
C1231 H1246 0.961 . S
C1231 H1247 0.960 . S
H1232 C1216 0.931 . S
H1233 C1221 0.929 . S
H1234 C1222 0.960 . S
H1235 C1222 0.962 . S
H1236 C1222 0.960 . S
H1237 C1223 0.961 . S
H1238 C1223 0.961 . S
H1239 C1223 0.961 . S
H1240 C1224 0.931 . S
H1241 C1229 0.930 . S
H1242 C1230 0.956 . S
H1243 C1230 0.961 . S
H1244 C1230 0.961 . S
H1245 C1231 0.958 . S
H1246 C1231 0.961 . S
H1247 C1231 0.960 . S
C1248 C1249 1.391 . S
C1248 C1250 1.394 . S
C1248 H1264 0.931 . S
C1249 C1248 1.391 . S
C1249 C1253 1.376 . S
C1250 C1248 1.394 . S
C1250 C1251 1.369 . S
C1250 C1254 1.531 . S
C1251 C1250 1.369 . S
C1251 C1252 1.410 . S
C1251 C1259 1.503 . S
C1252 C1251 1.410 . S
C1252 C1253 1.392 . S
C1252 C1255 1.511 . S
C1253 C1249 1.376 . S
C1253 C1252 1.392 . S
C1253 H1265 0.929 . S
C1254 C1250 1.531 . S
C1254 H1266 0.960 . S
C1254 H1267 0.962 . S
C1254 H1268 0.960 . S
C1255 C1252 1.511 . S
C1255 H1269 0.961 . S
C1255 H1270 0.961 . S
C1255 H1271 0.961 . S
C1256 C1257 1.370 . S
C1256 C1258 1.363 . S
C1256 H1272 0.931 . S
C1257 C1256 1.370 . S
C1257 C1261 1.408 . S
C1258 C1256 1.363 . S
C1258 C1259 1.370 . S
C1258 C1262 1.524 . S
C1259 C1251 1.503 . S
C1259 C1258 1.370 . S
C1259 C1260 1.403 . S
C1260 C1259 1.403 . S
C1260 C1261 1.404 . S
C1260 C1263 1.539 . S
C1261 C1257 1.408 . S
C1261 C1260 1.404 . S
C1261 H1273 0.930 . S
C1262 C1258 1.524 . S
C1262 H1274 0.956 . S
C1262 H1275 0.961 . S
C1262 H1276 0.961 . S
C1263 C1260 1.539 . S
C1263 H1277 0.958 . S
C1263 H1278 0.961 . S
C1263 H1279 0.960 . S
H1264 C1248 0.931 . S
H1265 C1253 0.929 . S
H1266 C1254 0.960 . S
H1267 C1254 0.962 . S
H1268 C1254 0.960 . S
H1269 C1255 0.961 . S
H1270 C1255 0.961 . S
H1271 C1255 0.961 . S
H1272 C1256 0.931 . S
H1273 C1261 0.930 . S
H1274 C1262 0.956 . S
H1275 C1262 0.961 . S
H1276 C1262 0.961 . S
H1277 C1263 0.958 . S
H1278 C1263 0.961 . S
H1279 C1263 0.960 . S
C1280 C1281 1.391 . S
C1280 C1282 1.394 . S
C1280 H1296 0.931 . S
C1281 C1280 1.391 . S
C1281 C1285 1.376 . S
C1282 C1280 1.394 . S
C1282 C1283 1.369 . S
C1282 C1286 1.531 . S
C1283 C1282 1.369 . S
C1283 C1284 1.410 . S
C1283 C1291 1.503 . S
C1284 C1283 1.410 . S
C1284 C1285 1.392 . S
C1284 C1287 1.511 . S
C1285 C1281 1.376 . S
C1285 C1284 1.392 . S
C1285 H1297 0.929 . S
C1286 C1282 1.531 . S
C1286 H1298 0.960 . S
C1286 H1299 0.962 . S
C1286 H1300 0.960 . S
C1287 C1284 1.511 . S
C1287 H1301 0.961 . S
C1287 H1302 0.961 . S
C1287 H1303 0.961 . S
C1288 C1289 1.370 . S
C1288 C1290 1.363 . S
C1288 H1304 0.931 . S
C1289 C1288 1.370 . S
C1289 C1293 1.408 . S
C1290 C1288 1.363 . S
C1290 C1291 1.370 . S
C1290 C1294 1.524 . S
C1291 C1283 1.503 . S
C1291 C1290 1.370 . S
C1291 C1292 1.403 . S
C1292 C1291 1.403 . S
C1292 C1293 1.404 . S
C1292 C1295 1.539 . S
C1293 C1289 1.408 . S
C1293 C1292 1.404 . S
C1293 H1305 0.930 . S
C1294 C1290 1.524 . S
C1294 H1306 0.956 . S
C1294 H1307 0.961 . S
C1294 H1308 0.961 . S
C1295 C1292 1.539 . S
C1295 H1309 0.958 . S
C1295 H1310 0.961 . S
C1295 H1311 0.960 . S
H1296 C1280 0.931 . S
H1297 C1285 0.929 . S
H1298 C1286 0.960 . S
H1299 C1286 0.962 . S
H1300 C1286 0.960 . S
H1301 C1287 0.961 . S
H1302 C1287 0.961 . S
H1303 C1287 0.961 . S
H1304 C1288 0.931 . S
H1305 C1293 0.930 . S
H1306 C1294 0.956 . S
H1307 C1294 0.961 . S
H1308 C1294 0.961 . S
H1309 C1295 0.958 . S
H1310 C1295 0.961 . S
H1311 C1295 0.960 . S
C1312 C1313 1.391 . S
C1312 C1314 1.394 . S
C1312 H1328 0.931 . S
C1313 C1312 1.391 . S
C1313 C1317 1.376 . S
C1314 C1312 1.394 . S
C1314 C1315 1.369 . S
C1314 C1318 1.531 . S
C1315 C1314 1.369 . S
C1315 C1316 1.410 . S
C1315 C1323 1.503 . S
C1316 C1315 1.410 . S
C1316 C1317 1.392 . S
C1316 C1319 1.511 . S
C1317 C1313 1.376 . S
C1317 C1316 1.392 . S
C1317 H1329 0.929 . S
C1318 C1314 1.531 . S
C1318 H1330 0.960 . S
C1318 H1331 0.962 . S
C1318 H1332 0.960 . S
C1319 C1316 1.511 . S
C1319 H1333 0.961 . S
C1319 H1334 0.961 . S
C1319 H1335 0.961 . S
C1320 C1321 1.370 . S
C1320 C1322 1.363 . S
C1320 H1336 0.931 . S
C1321 C1320 1.370 . S
C1321 C1325 1.408 . S
C1322 C1320 1.363 . S
C1322 C1323 1.370 . S
C1322 C1326 1.524 . S
C1323 C1315 1.503 . S
C1323 C1322 1.370 . S
C1323 C1324 1.403 . S
C1324 C1323 1.403 . S
C1324 C1325 1.404 . S
C1324 C1327 1.539 . S
C1325 C1321 1.408 . S
C1325 C1324 1.404 . S
C1325 H1337 0.930 . S
C1326 C1322 1.524 . S
C1326 H1338 0.956 . S
C1326 H1339 0.961 . S
C1326 H1340 0.961 . S
C1327 C1324 1.539 . S
C1327 H1341 0.958 . S
C1327 H1342 0.961 . S
C1327 H1343 0.960 . S
H1328 C1312 0.931 . S
H1329 C1317 0.929 . S
H1330 C1318 0.960 . S
H1331 C1318 0.962 . S
H1332 C1318 0.960 . S
H1333 C1319 0.961 . S
H1334 C1319 0.961 . S
H1335 C1319 0.961 . S
H1336 C1320 0.931 . S
H1337 C1325 0.930 . S
H1338 C1326 0.956 . S
H1339 C1326 0.961 . S
H1340 C1326 0.961 . S
H1341 C1327 0.958 . S
H1342 C1327 0.961 . S
H1343 C1327 0.960 . S
C1344 C1345 1.391 . S
C1344 C1346 1.394 . S
C1344 H1360 0.931 . S
C1345 C1344 1.391 . S
C1345 C1349 1.376 . S
C1346 C1344 1.394 . S
C1346 C1347 1.369 . S
C1346 C1350 1.531 . S
C1347 C1346 1.369 . S
C1347 C1348 1.410 . S
C1347 C1355 1.503 . S
C1348 C1347 1.410 . S
C1348 C1349 1.392 . S
C1348 C1351 1.511 . S
C1349 C1345 1.376 . S
C1349 C1348 1.392 . S
C1349 H1361 0.929 . S
C1350 C1346 1.531 . S
C1350 H1362 0.960 . S
C1350 H1363 0.962 . S
C1350 H1364 0.960 . S
C1351 C1348 1.511 . S
C1351 H1365 0.961 . S
C1351 H1366 0.961 . S
C1351 H1367 0.961 . S
C1352 C1353 1.370 . S
C1352 C1354 1.363 . S
C1352 H1368 0.931 . S
C1353 C1352 1.370 . S
C1353 C1357 1.408 . S
C1354 C1352 1.363 . S
C1354 C1355 1.370 . S
C1354 C1358 1.524 . S
C1355 C1347 1.503 . S
C1355 C1354 1.370 . S
C1355 C1356 1.403 . S
C1356 C1355 1.403 . S
C1356 C1357 1.404 . S
C1356 C1359 1.539 . S
C1357 C1353 1.408 . S
C1357 C1356 1.404 . S
C1357 H1369 0.930 . S
C1358 C1354 1.524 . S
C1358 H1370 0.956 . S
C1358 H1371 0.961 . S
C1358 H1372 0.961 . S
C1359 C1356 1.539 . S
C1359 H1373 0.958 . S
C1359 H1374 0.961 1_455 S
C1359 H1375 0.960 . S
H1360 C1344 0.931 . S
H1361 C1349 0.929 . S
H1362 C1350 0.960 . S
H1363 C1350 0.962 . S
H1364 C1350 0.960 . S
H1365 C1351 0.961 . S
H1366 C1351 0.961 . S
H1367 C1351 0.961 . S
H1368 C1352 0.931 . S
H1369 C1357 0.930 . S
H1370 C1358 0.956 . S
H1371 C1358 0.961 . S
H1372 C1358 0.961 . S
H1373 C1359 0.958 . S
H1374 C1359 0.961 1_655 S
H1375 C1359 0.960 . S
C1376 C1377 1.391 . S
C1376 C1378 1.394 . S
C1376 H1392 0.931 . S
C1377 C1376 1.391 . S
C1377 C1381 1.376 . S
C1378 C1376 1.394 . S
C1378 C1379 1.369 . S
C1378 C1382 1.531 . S
C1379 C1378 1.369 . S
C1379 C1380 1.410 . S
C1379 C1387 1.503 . S
C1380 C1379 1.410 . S
C1380 C1381 1.392 . S
C1380 C1383 1.511 . S
C1381 C1377 1.376 . S
C1381 C1380 1.392 . S
C1381 H1393 0.929 . S
C1382 C1378 1.531 . S
C1382 H1394 0.960 . S
C1382 H1395 0.962 . S
C1382 H1396 0.960 . S
C1383 C1380 1.511 . S
C1383 H1397 0.961 . S
C1383 H1398 0.961 . S
C1383 H1399 0.961 . S
C1384 C1385 1.370 . S
C1384 C1386 1.363 . S
C1384 H1400 0.931 . S
C1385 C1384 1.370 . S
C1385 C1389 1.408 . S
C1386 C1384 1.363 . S
C1386 C1387 1.370 . S
C1386 C1390 1.524 . S
C1387 C1379 1.503 . S
C1387 C1386 1.370 . S
C1387 C1388 1.403 . S
C1388 C1387 1.403 . S
C1388 C1389 1.404 . S
C1388 C1391 1.539 . S
C1389 C1385 1.408 . S
C1389 C1388 1.404 . S
C1389 H1401 0.930 . S
C1390 C1386 1.524 . S
C1390 H1402 0.956 . S
C1390 H1403 0.961 . S
C1390 H1404 0.961 . S
C1391 C1388 1.539 . S
C1391 H1405 0.958 . S
C1391 H1406 0.961 . S
C1391 H1407 0.960 . S
H1392 C1376 0.931 . S
H1393 C1381 0.929 . S
H1394 C1382 0.960 . S
H1395 C1382 0.962 . S
H1396 C1382 0.960 . S
H1397 C1383 0.961 . S
H1398 C1383 0.961 . S
H1399 C1383 0.961 . S
H1400 C1384 0.931 . S
H1401 C1389 0.930 . S
H1402 C1390 0.956 . S
H1403 C1390 0.961 . S
H1404 C1390 0.961 . S
H1405 C1391 0.958 . S
H1406 C1391 0.961 . S
H1407 C1391 0.960 . S
C641 C1 1.163 . S
C649 C487 1.296 . S
C673 C80 1.011 . S
C681 C536 0.975 . S
C713 C562 2.443 . S
C705 C140 2.439 . S
C737 C211 2.339 . S
C745 C610 2.319 . S
C777 C522 2.500 . S
C769 C31 2.272 . S
C809 C490 0.864 . S
C801 C61 0.937 . S
C841 C611 1.900 . S
C833 C151 1.897 . S
C873 C579 1.573 . S
C865 C200 1.563 . S
C897 C20 1.633 . S
C905 C607 1.772 . S
C937 C539 2.312 . S
C929 C121 2.372 . S
C961 C181 2.277 . S
C969 C491 2.334 . S
C993 C91 0.889 . S
C1001 C576 0.893 . S
C1033 C496 1.298 . S
C1025 C260 1.263 . S
C1057 C320 0.992 . S
C1065 C527 0.986 . S
C1089 C361 2.424 . S
C1097 C571 2.452 . S
C1121 C451 2.356 . S
C1129 C619 2.318 . S
C1153 C271 2.326 . S
C1161 C531 2.505 . S
C1193 C499 0.904 . S
C1185 C301 0.815 . S
C1225 C602 1.892 . S
C1217 C380 1.862 . S
C1257 C570 1.568 . S
C1249 C440 1.587 . S
C1281 C241 1.550 . S
C1289 C616 1.776 . S
C1321 C530 2.326 . S
C1313 C391 2.371 . S
C1353 C482 2.327 . S
C1345 C421 2.297 . S
C1377 C331 0.913 . S
C1385 C567 0.884 . S
