# Generated by pormake.
# Topology anh, (6,3)-cn, num edge types: 1
# Building blocks:
#     Node 0, Type 0, BuildingBlock: BETGAK_clean_sbu_0, # of connection points: 6
#     Node 1, Type 0, BuildingBlock: BETGAK_clean_sbu_0, # of connection points: 6
#     Node 2, Type 0, BuildingBlock: BETGAK_clean_sbu_0, # of connection points: 6
#     Node 3, Type 1, BuildingBlock: BETDAH_clean_linker_0, # of connection points: 3
#     Node 4, Type 1, BuildingBlock: BETDAH_clean_linker_0, # of connection points: 3
#     Node 5, Type 1, BuildingBlock: BETDAH_clean_linker_0, # of connection points: 3
#     Node 6, Type 1, BuildingBlock: BETDAH_clean_linker_0, # of connection points: 3
#     Node 7, Type 1, BuildingBlock: BETDAH_clean_linker_0, # of connection points: 3
#     Node 8, Type 1, BuildingBlock: BETDAH_clean_linker_0, # of connection points: 3
#     Edge 9, Type (0, 1), BuildingBlock: TEMPAE_clean_linker_10, # of connection points: 2
#     Edge 10, Type (0, 1), BuildingBlock: TEMPAE_clean_linker_10, # of connection points: 2
#     Edge 11, Type (0, 1), BuildingBlock: TEMPAE_clean_linker_10, # of connection points: 2
#     Edge 12, Type (0, 1), BuildingBlock: TEMPAE_clean_linker_10, # of connection points: 2
#     Edge 13, Type (0, 1), BuildingBlock: TEMPAE_clean_linker_10, # of connection points: 2
#     Edge 14, Type (0, 1), BuildingBlock: TEMPAE_clean_linker_10, # of connection points: 2
#     Edge 15, Type (0, 1), BuildingBlock: TEMPAE_clean_linker_10, # of connection points: 2
#     Edge 16, Type (0, 1), BuildingBlock: TEMPAE_clean_linker_10, # of connection points: 2
#     Edge 17, Type (0, 1), BuildingBlock: TEMPAE_clean_linker_10, # of connection points: 2
#     Edge 18, Type (0, 1), BuildingBlock: TEMPAE_clean_linker_10, # of connection points: 2
#     Edge 19, Type (0, 1), BuildingBlock: TEMPAE_clean_linker_10, # of connection points: 2
#     Edge 20, Type (0, 1), BuildingBlock: TEMPAE_clean_linker_10, # of connection points: 2
#     Edge 21, Type (0, 1), BuildingBlock: TEMPAE_clean_linker_10, # of connection points: 2
#     Edge 22, Type (0, 1), BuildingBlock: TEMPAE_clean_linker_10, # of connection points: 2
#     Edge 23, Type (0, 1), BuildingBlock: TEMPAE_clean_linker_10, # of connection points: 2
#     Edge 24, Type (0, 1), BuildingBlock: TEMPAE_clean_linker_10, # of connection points: 2
#     Edge 25, Type (0, 1), BuildingBlock: TEMPAE_clean_linker_10, # of connection points: 2
#     Edge 26, Type (0, 1), BuildingBlock: TEMPAE_clean_linker_10, # of connection points: 2
# Relax obj value: 0.151
# Max RMSD: 0.180
# Mean RMSD: 0.111
data_MOF--net-anh--node1-BETGAK_clean_sbu_0--node2-BETDAH_clean_linker_0--edge1-TEMPAE_clean_linker_10
_symmetry_space_group_name_H-M    P1
_symmetry_Int_Tables_number       1
_symmetry_cell_setting            triclinic
loop_
_symmetry_equiv_pos_as_xyz
'x, y, z'
_cell_length_a     31.006237
_cell_length_b     38.448509
_cell_length_c     49.64024
_cell_angle_alpha  93.99449
_cell_angle_beta   91.082032
_cell_angle_gamma 129.70011
loop_
_atom_site_label
_atom_site_type_symbol
_atom_site_fract_x
_atom_site_fract_y
_atom_site_fract_z
_atom_type_partial_charge
La0 La 0.1672 0.55245 0.14565 0.0
La1 La 0.10167 0.57584 0.172 0.0
C2 C 0.22668 0.54917 0.11366 0.0
C3 C 0.28491 0.56684 0.11393 0.0
C4 C 0.31059 0.56539 0.13686 0.0
C5 C 0.35869 0.57 0.13476 0.0
C6 C 0.38242 0.57674 0.10973 0.0
C7 C 0.3613 0.58513 0.08801 0.0
C8 C 0.31228 0.57947 0.08999 0.0
C9 C 0.16987 0.5532 0.19875 0.0
C10 C 0.22467 0.65695 0.16434 0.0
C11 C 1.03128 0.57064 0.19941 0.0
C12 C 0.97054 0.53286 0.1945 0.0
C13 C 0.94979 0.5084 0.16869 0.0
C14 C 0.89392 0.46948 0.16367 0.0
C15 C 0.85714 0.45377 0.18434 0.0
C16 C 0.87763 0.47831 0.21027 0.0
C17 C 0.93433 0.51753 0.2154 0.0
C18 C 0.09996 0.57364 0.11851 0.0
C19 C 1.04514 0.47182 0.15598 0.0
O20 O 0.19529 0.51874 0.13034 0.0
O21 O 0.2188 0.57871 0.11313 0.0
O22 O 0.17555 0.52854 0.18275 0.0
O23 O 0.17042 0.57988 0.18528 0.0
O24 O 0.22423 0.62757 0.14827 0.0
O25 O 0.18295 0.64302 0.1797 0.0
O26 O 1.0544 0.59666 0.17971 0.0
O27 O 1.05995 0.55867 0.20779 0.0
O28 O 0.09811 0.60099 0.13409 0.0
O29 O 0.09786 0.54703 0.1327 0.0
O30 O 1.04749 0.50176 0.17224 0.0
O31 O 1.08433 0.48539 0.13904 0.0
H32 H 0.29085 0.55677 0.1558 0.0
H33 H 0.37327 0.56341 0.15209 0.0
H34 H 0.37967 0.59213 0.06874 0.0
H35 H 0.29364 0.58178 0.07225 0.0
H36 H 0.97714 0.51904 0.15233 0.0
H37 H 0.87931 0.45212 0.14332 0.0
H38 H 0.84999 0.46699 0.22652 0.0
H39 H 0.94996 0.53548 0.23558 0.0
La40 La 0.71518 0.08576 0.48012 0.0
La41 La 0.6361 0.10319 0.46851 0.0
C42 C 0.76343 0.0584 0.49954 0.0
C43 C 0.7465 0.01497 0.50681 0.0
C44 C 0.70212 0.97354 0.49199 0.0
C45 C 0.68755 0.93276 0.49887 0.0
C46 C 0.71711 0.9327 0.5207 0.0
C47 C 0.7608 0.97424 0.53581 0.0
C48 C 0.77531 0.01499 0.5289 0.0
C49 C 0.70603 0.0977 0.42949 0.0
C50 C 0.58341 1.00276 0.46689 0.0
C51 C 0.58984 0.13344 0.4516 0.0
C52 C 0.59671 0.17379 0.46157 0.0
C53 C 0.61374 0.19128 0.48895 0.0
C54 C 0.61997 0.22932 0.49864 0.0
C55 C 0.61025 0.25128 0.48109 0.0
C56 C 0.59407 0.23402 0.45352 0.0
C57 C 0.58723 0.19551 0.44388 0.0
C58 C 0.64765 0.0946 0.51984 0.0
C59 C 0.76932 0.18696 0.47896 0.0
O60 O 0.75902 0.06159 0.47373 0.0
O61 O 0.74538 0.07555 0.51433 0.0
O62 O 0.7521 0.11086 0.44195 0.0
O63 O 0.66634 0.07592 0.44465 0.0
O64 O 0.63157 0.01789 0.47937 0.0
O65 O 0.57827 0.03063 0.45631 0.0
O66 O 0.5674 0.10175 0.46802 0.0
O67 O 0.63358 0.14152 0.44121 0.0
O68 O 0.60231 0.08317 0.50786 0.0
O69 O 0.68595 0.11421 0.50388 0.0
O70 O 0.71857 0.1716 0.47047 0.0
O71 O 0.77779 0.15948 0.48692 0.0
H72 H 0.67916 0.97278 0.47495 0.0
H73 H 0.65322 0.90128 0.48705 0.0
H74 H 0.78478 0.97542 0.55254 0.0
H75 H 0.80956 0.04664 0.54063 0.0
H76 H 0.62184 0.17527 0.50294 0.0
H77 H 0.63158 0.24104 0.52004 0.0
H78 H 0.58714 0.25045 0.43932 0.0
H79 H 0.57468 0.18277 0.42262 0.0
La80 La 0.62546 0.58881 0.85008 0.0
La81 La 0.54367 0.48757 0.84165 0.0
C82 C 0.68097 0.67244 0.84628 0.0
C83 C 0.67211 0.70305 0.83663 0.0
C84 C 0.69482 0.74356 0.85271 0.0
C85 C 0.68979 0.77448 0.84363 0.0
C86 C 0.66209 0.76562 0.81815 0.0
C87 C 0.63885 0.72476 0.80211 0.0
C88 C 0.64359 0.69362 0.8113 0.0
C89 C 0.60102 0.54725 0.89417 0.0
C90 C 0.49209 0.53569 0.84669 0.0
C91 C 0.49478 0.40542 0.84651 0.0
C92 C 0.50863 0.37612 0.83871 0.0
C93 C 0.53364 0.38025 0.81454 0.0
C94 C 0.54916 0.35387 0.80797 0.0
C95 C 0.54077 0.32325 0.82561 0.0
C96 C 0.51614 0.31957 0.84995 0.0
C97 C 0.50017 0.34574 0.8564 0.0
C98 C 0.56621 0.52646 0.79651 0.0
C99 C 0.67827 0.54106 0.84632 0.0
O100 O 0.65677 0.65304 0.86803 0.0
O101 O 0.67763 0.64451 0.82792 0.0
O102 O 0.65058 0.58472 0.89075 0.0
O103 O 0.56789 0.53639 0.87418 0.0
O104 O 0.54314 0.57291 0.8419 0.0
O105 O 0.48383 0.49829 0.8513 0.0
O106 O 0.48178 0.41886 0.82673 0.0
O107 O 0.52932 0.43856 0.86548 0.0
O108 O 0.51824 0.48828 0.80081 0.0
O109 O 0.60093 0.53978 0.81656 0.0
O110 O 0.62562 0.50196 0.8437 0.0
O111 O 0.68906 0.58056 0.84803 0.0
H112 H 0.71724 0.75161 0.87222 0.0
H113 H 0.70875 0.80588 0.85632 0.0
H114 H 0.61682 0.71681 0.78251 0.0
H115 H 0.62548 0.66248 0.79851 0.0
H116 H 0.54148 0.40405 0.80075 0.0
H117 H 0.56728 0.35724 0.7889 0.0
H118 H 0.50996 0.29699 0.86425 0.0
H119 H 0.48189 0.34271 0.87539 0.0
H120 H 0.56643 0.98312 0.23528 0.0
H121 H 0.69679 0.11745 0.21329 0.0
H122 H 0.58018 1.00776 0.15154 0.0
C123 C 0.58794 1.00606 0.2198 0.0
C124 C 0.568 0.98957 0.19253 0.0
C125 C 0.63443 0.05192 0.2275 0.0
C126 C 0.6608 0.08207 0.20747 0.0
C127 C 0.64106 0.06603 0.17995 0.0
C128 C 0.59473 0.01997 0.17274 0.0
N129 N 0.66671 0.09473 0.15883 0.0
C130 C 0.71394 0.14064 0.16231 0.0
H131 H 0.63862 0.50109 0.60239 0.0
H132 H 0.65932 0.62154 0.59289 0.0
H133 H 0.64542 0.54174 0.5231 0.0
C134 C 0.6431 0.52475 0.58962 0.0
C135 C 0.6428 0.51733 0.56145 0.0
C136 C 0.64876 0.56211 0.60139 0.0
C137 C 0.65404 0.59226 0.58428 0.0
C138 C 0.65277 0.58465 0.55602 0.0
C139 C 0.64713 0.54742 0.54493 0.0
N140 N 0.6567 0.61332 0.53785 0.0
C141 C 0.6621 0.65152 0.5452 0.0
H142 H 0.99904 0.54995 0.91903 0.0
H143 H 0.13101 0.54531 0.9034 0.0
H144 H 1.0291 0.53287 0.83671 0.0
C145 C 1.02125 0.54557 0.9045 0.0
C146 C 1.00605 0.53949 0.87664 0.0
C147 C 1.06504 0.54672 0.91433 0.0
C148 C 0.09726 0.54441 0.89588 0.0
C149 C 1.08517 0.53996 0.86778 0.0
C150 C 1.03927 0.53734 0.85832 0.0
N151 N 0.1174 0.53733 0.84857 0.0
C152 C 0.16319 0.53839 0.85395 0.0
H153 H 0.27231 0.66448 0.39324 0.0
H154 H 0.12772 0.53552 0.41539 0.0
H155 H 0.2198 0.65334 0.47407 0.0
C156 C 0.24398 0.64438 0.40837 0.0
C157 C 0.25228 0.66537 0.4345 0.0
C158 C 0.19886 0.59792 0.40112 0.0
C159 C 0.16238 0.57138 0.42079 0.0
C160 C 0.17082 0.59137 0.44733 0.0
C161 C 0.21511 0.6382 0.45384 0.0
N162 N 0.13535 0.56596 0.468 0.0
C163 C 0.09244 0.51896 0.46571 0.0
H164 H 0.64388 0.14582 0.72011 0.0
H165 H 0.67893 0.05565 0.73157 0.0
H166 H 0.63585 0.10226 0.79848 0.0
C167 C 0.64821 0.1266 0.73311 0.0
C168 C 0.63881 0.12783 0.76058 0.0
C169 C 0.66301 0.10095 0.72223 0.0
C170 C 0.66714 0.07528 0.73941 0.0
C171 C 0.65732 0.07596 0.76696 0.0
C172 C 0.64376 0.10243 0.7773 0.0
N173 N 0.66121 0.05109 0.78522 0.0
C174 C 0.66431 0.01718 0.77811 0.0
H175 H 0.56093 0.34328 0.03904 0.0
H176 H 0.41345 0.33017 0.04588 0.0
H177 H 0.45926 0.28329 0.1065 0.0
C178 C 0.52355 0.33064 0.04924 0.0
C179 C 0.51452 0.31143 0.07389 0.0
C180 C 0.48787 0.3383 0.03925 0.0
C181 C 0.44037 0.32323 0.05288 0.0
C182 C 0.42961 0.30237 0.07676 0.0
C183 C 0.46585 0.29572 0.08681 0.0
N184 N 0.39016 0.29717 0.09375 0.0
C185 C 0.39437 0.33482 0.10064 0.0
C186 C 0.45077 0.56695 0.12641 0.0
C187 C 0.41764 0.56341 0.10489 0.0
C188 C 0.46304 0.53757 0.12607 0.0
C189 C 0.44332 0.50534 0.1033 0.0
C190 C 0.41983 0.50791 0.07963 0.0
C191 C 0.40676 0.53668 0.08075 0.0
C192 C 0.4903 0.53708 0.15135 0.0
C193 C 0.40099 0.47571 0.05435 0.0
C194 C 0.46152 0.41662 0.09763 0.0
C195 C 0.4089 0.3786 0.10445 0.0
C196 C 0.47479 0.45902 0.09808 0.0
C197 C 0.43453 0.46311 0.10607 0.0
C198 C 0.38225 0.4249 0.11431 0.0
C199 C 0.3699 0.38282 0.11319 0.0
C200 C 0.53109 0.4989 0.0895 0.0
C201 C 0.33827 0.42793 0.12313 0.0
H202 H 0.46205 0.58925 0.14466 0.0
H203 H 0.3822 0.53388 0.06363 0.0
H204 H 0.45715 0.50958 0.16306 0.0
H205 H 0.51897 0.53011 0.14627 0.0
H206 H 0.5143 0.56982 0.16449 0.0
H207 H 0.39464 0.48805 0.03634 0.0
H208 H 0.43212 0.47103 0.05022 0.0
H209 H 0.36051 0.44196 0.05726 0.0
H210 H 0.49171 0.41286 0.09119 0.0
H211 H 0.32932 0.35305 0.11848 0.0
H212 H 0.55812 0.52291 0.1076 0.0
H213 H 0.52628 0.51769 0.0755 0.0
H214 H 0.55317 0.48815 0.07942 0.0
H215 H 0.35689 0.45646 0.1393 0.0
H216 H 0.30186 0.39611 0.13084 0.0
H217 H 0.32258 0.43481 0.10575 0.0
C218 C 0.87331 0.25322 0.48299 0.0
C219 C 0.81775 0.23622 0.47854 0.0
C220 C 0.91925 0.29923 0.48085 0.0
C221 C 0.90953 0.3291 0.4742 0.0
C222 C 0.85356 0.31227 0.47008 0.0
C223 C 0.8085 0.26616 0.47225 0.0
C224 C 0.97825 0.31582 0.48544 0.0
C225 C 0.8412 0.34292 0.46319 0.0
C226 C 1.02494 0.4566 0.49244 0.0
C227 C 1.0471 0.47106 0.46748 0.0
C228 C 0.98051 0.41048 0.49496 0.0
C229 C 0.95777 0.37809 0.4719 0.0
C230 C 0.98047 0.39274 0.44659 0.0
C231 C 1.025 0.43922 0.44469 0.0
C232 C 0.95759 0.39647 0.52226 0.0
C233 C 0.95744 0.35936 0.42154 0.0
H234 H 0.88102 0.23043 0.48771 0.0
H235 H 0.76583 0.25355 0.46881 0.0
H236 H 1.00092 0.32968 0.46699 0.0
H237 H 1.00184 0.34385 0.50216 0.0
H238 H 0.97878 0.28841 0.49055 0.0
H239 H 0.79536 0.32469 0.46086 0.0
H240 H 0.86109 0.37173 0.47928 0.0
H241 H 0.85953 0.35756 0.44403 0.0
H242 H 1.04229 0.4815 0.51004 0.0
H243 H 1.04236 0.45066 0.4254 0.0
H244 H 0.96047 0.37079 0.52843 0.0
H245 H 0.91245 0.38039 0.52096 0.0
H246 H 0.9805 0.42571 0.53826 0.0
H247 H 0.96021 0.33264 0.42507 0.0
H248 H 0.98034 0.37602 0.40355 0.0
H249 H 0.91231 0.34213 0.41697 0.0
C250 C 0.64533 0.82104 0.82599 0.0
C251 C 0.65857 0.79951 0.80837 0.0
C252 C 0.64538 0.85524 0.81778 0.0
C253 C 0.65911 0.86841 0.79128 0.0
C254 C 0.67115 0.84604 0.77314 0.0
C255 C 0.67064 0.81177 0.78189 0.0
C256 C 0.63182 0.87794 0.83772 0.0
C257 C 0.68602 0.85914 0.74475 0.0
C258 C 0.61617 0.93574 0.76908 0.0
C259 C 0.66567 0.98031 0.77627 0.0
C260 C 0.61419 0.89872 0.77231 0.0
C261 C 0.66283 0.90682 0.78321 0.0
C262 C 0.71374 0.95212 0.78909 0.0
C263 C 0.71446 0.98841 0.7856 0.0
C264 C 0.55923 0.85102 0.76566 0.0
C265 C 0.76653 0.96227 0.80068 0.0
H266 H 0.63512 0.81122 0.84634 0.0
H267 H 0.68138 0.79551 0.76825 0.0
H268 H 0.66873 0.91465 0.8419 0.0
H269 H 0.59652 0.87531 0.82898 0.0
H270 H 0.62019 0.8627 0.85724 0.0
H271 H 0.69085 0.8366 0.7326 0.0
H272 H 0.65311 0.85784 0.73417 0.0
H273 H 0.72604 0.89465 0.74562 0.0
H274 H 0.57835 0.92976 0.76211 0.0
H275 H 0.75251 0.02309 0.7914 0.0
H276 H 0.54198 0.83529 0.78471 0.0
H277 H 0.56584 0.82969 0.75348 0.0
H278 H 0.52751 0.85044 0.75432 0.0
H279 H 0.7607 0.95211 0.82155 0.0
H280 H 0.80383 0.99894 0.80148 0.0
H281 H 0.77511 0.94232 0.78845 0.0
C282 C 0.75579 0.4176 0.18395 0.0
C283 C 0.79687 0.41434 0.17737 0.0
C284 C 0.70212 0.38823 0.17007 0.0
C285 C 0.69007 0.35557 0.14905 0.0
C286 C 0.72846 0.34777 0.14537 0.0
C287 C 0.78154 0.37732 0.15966 0.0
C288 C 0.66106 0.39606 0.17554 0.0
C289 C 0.71687 0.31165 0.12453 0.0
C290 C 0.54886 0.28668 0.10806 0.0
C291 C 0.56071 0.31698 0.08926 0.0
C292 C 0.59082 0.29779 0.12732 0.0
C293 C 0.64606 0.33938 0.12713 0.0
C294 C 0.65943 0.36784 0.10657 0.0
C295 C 0.61657 0.35674 0.08826 0.0
C296 C 0.57569 0.26618 0.14853 0.0
C297 C 0.71866 0.41152 0.1048 0.0
H298 H 0.76707 0.44574 0.1979 0.0
H299 H 0.81276 0.37387 0.15506 0.0
H300 H 0.66313 0.41644 0.16004 0.0
H301 H 0.61736 0.36331 0.17422 0.0
H302 H 0.67092 0.41483 0.19584 0.0
H303 H 0.7204 0.28876 0.13482 0.0
H304 H 0.67469 0.29064 0.11343 0.0
H305 H 0.74924 0.32781 0.10966 0.0
H306 H 0.50624 0.25521 0.10857 0.0
H307 H 0.62678 0.381 0.07429 0.0
H308 H 0.58164 0.28327 0.16888 0.0
H309 H 0.6041 0.25795 0.14867 0.0
H310 H 0.53148 0.234 0.1451 0.0
H311 H 0.7308 0.43627 0.12249 0.0
H312 H 0.72297 0.42734 0.08604 0.0
H313 H 0.74879 0.40506 0.10527 0.0
C314 C 0.54265 0.92173 0.45848 0.0
C315 C 0.53485 0.9535 0.46408 0.0
C316 C 0.49657 0.87486 0.45483 0.0
C317 C 0.44154 0.85938 0.45772 0.0
C318 C 0.43379 0.89144 0.46431 0.0
C319 C 0.48044 0.93816 0.4669 0.0
C320 C 0.50665 0.84206 0.44697 0.0
C321 C 0.37619 0.8764 0.46854 0.0
C322 C 0.31677 0.7453 0.42107 0.0
C323 C 0.29934 0.71553 0.44112 0.0
C324 C 0.36327 0.79182 0.42614 0.0
C325 C 0.39187 0.80993 0.45231 0.0
C326 C 0.37325 0.78074 0.47304 0.0
C327 C 0.32794 0.73387 0.4671 0.0
C328 C 0.38231 0.82146 0.40326 0.0
C329 C 0.40143 0.79897 0.50146 0.0
H330 H 0.58463 0.9336 0.45602 0.0
H331 H 0.47449 0.96276 0.47154 0.0
H332 H 0.48902 0.8163 0.46158 0.0
H333 H 0.48468 0.82358 0.42676 0.0
H334 H 0.55208 0.85948 0.44618 0.0
H335 H 0.37796 0.90526 0.47595 0.0
H336 H 0.34919 0.85989 0.44922 0.0
H337 H 0.35564 0.85085 0.48337 0.0
H338 H 0.2942 0.73238 0.40119 0.0
H339 H 0.31565 0.71159 0.48279 0.0
H340 H 0.42722 0.83901 0.40054 0.0
H341 H 0.37881 0.8481 0.40819 0.0
H342 H 0.35722 0.80172 0.38374 0.0
H343 H 0.44541 0.81228 0.50148 0.0
H344 H 0.37924 0.77256 0.51576 0.0
H345 H 0.40312 0.8277 0.50902 0.0
C346 C 0.52309 0.24953 0.82399 0.0
C347 C 0.55719 0.29505 0.81842 0.0
C348 C 0.53685 0.22205 0.81623 0.0
C349 C 0.58543 0.24028 0.80222 0.0
C350 C 0.62062 0.28637 0.79698 0.0
C351 C 0.60631 0.31325 0.80532 0.0
C352 C 0.4987 0.17322 0.82253 0.0
C353 C 0.67266 0.30704 0.78196 0.0
C354 C 0.64649 0.18033 0.79745 0.0
C355 C 0.62392 0.1557 0.77169 0.0
C356 C 0.63366 0.20744 0.80786 0.0
C357 C 0.59815 0.21062 0.79196 0.0
C358 C 0.57508 0.18579 0.76602 0.0
C359 C 0.58776 0.15832 0.75633 0.0
C360 C 0.65846 0.23295 0.83577 0.0
C361 C 0.53737 0.18857 0.74834 0.0
H362 H 0.48476 0.23493 0.83383 0.0
H363 H 0.63361 0.3486 0.80143 0.0
H364 H 0.47898 0.15015 0.8034 0.0
H365 H 0.52344 0.1659 0.83324 0.0
H366 H 0.46484 0.16518 0.83524 0.0
H367 H 0.69656 0.3438 0.7803 0.0
H368 H 0.70082 0.30284 0.79237 0.0
H369 H 0.66062 0.28906 0.76124 0.0
H370 H 0.67502 0.17905 0.80937 0.0
H371 H 0.56908 0.13873 0.73667 0.0
H372 H 0.62444 0.22408 0.84861 0.0
H373 H 0.68612 0.27008 0.83435 0.0
H374 H 0.6834 0.22538 0.846 0.0
H375 H 0.49965 0.17706 0.75885 0.0
H376 H 0.52337 0.16755 0.72853 0.0
H377 H 0.5599 0.22438 0.74454 0.0
C378 C 0.70287 0.8803 0.55388 0.0
C379 C 0.70426 0.88982 0.52696 0.0
C380 C 0.69382 0.84104 0.55996 0.0
C381 C 0.68622 0.81072 0.53863 0.0
C382 C 0.68649 0.81971 0.51142 0.0
C383 C 0.69546 0.85909 0.50593 0.0
C384 C 0.6933 0.83237 0.5892 0.0
C385 C 0.6787 0.78829 0.48808 0.0
C386 C 0.72187 0.73453 0.5489 0.0
C387 C 0.66832 0.69207 0.54819 0.0
C388 C 0.72844 0.77395 0.54717 0.0
C389 C 0.68014 0.77042 0.54454 0.0
C390 C 0.62598 0.72759 0.54515 0.0
C391 C 0.62072 0.68873 0.54686 0.0
C392 C 0.78688 0.81892 0.54662 0.0
C393 C 0.57353 0.72245 0.54252 0.0
H394 H 0.70895 0.90365 0.57021 0.0
H395 H 0.69722 0.8665 0.48512 0.0
H396 H 0.65379 0.79816 0.59228 0.0
H397 H 0.72861 0.83285 0.59449 0.0
H398 H 0.69717 0.85809 0.60334 0.0
H399 H 0.67811 0.79934 0.46808 0.0
H400 H 0.71333 0.78691 0.48954 0.0
H401 H 0.63872 0.75326 0.48902 0.0
H402 H 0.7585 0.73667 0.54969 0.0
H403 H 0.57931 0.65553 0.54608 0.0
H404 H 0.79327 0.84507 0.56147 0.0
H405 H 0.79211 0.83078 0.52626 0.0
H406 H 0.82006 0.81653 0.55123 0.0
H407 H 0.5776 0.74801 0.55687 0.0
H408 H 0.53531 0.68798 0.54636 0.0
H409 H 0.56772 0.72859 0.52176 0.0
C410 C 0.71949 0.50207 0.83656 0.0
C411 C 0.72645 0.54034 0.84745 0.0
C412 C 0.76415 0.50072 0.83807 0.0
C413 C 0.81719 0.53788 0.85168 0.0
C414 C 0.82435 0.57659 0.86267 0.0
C415 C 0.77956 0.5776 0.86009 0.0
C416 C 0.75404 0.45902 0.82537 0.0
C417 C 0.87897 0.61655 0.87808 0.0
C418 C 0.90935 0.51485 0.88417 0.0
C419 C 0.95527 0.53528 0.86794 0.0
C420 C 0.86479 0.51536 0.87903 0.0
C421 C 0.86362 0.53513 0.85628 0.0
C422 C 0.90782 0.55337 0.83875 0.0
C423 C 0.95309 0.55364 0.84487 0.0
C424 C 0.81963 0.49581 0.89864 0.0
C425 C 0.90777 0.57335 0.81369 0.0
H426 H 0.67899 0.47304 0.82662 0.0
H427 H 0.7857 0.60726 0.86881 0.0
H428 H 0.78998 0.46879 0.8138 0.0
H429 H 0.75023 0.4388 0.84146 0.0
H430 H 0.71491 0.43698 0.81156 0.0
H431 H 0.87856 0.64443 0.88504 0.0
H432 H 0.88717 0.60531 0.89605 0.0
H433 H 0.91442 0.63016 0.8652 0.0
H434 H 0.90839 0.49874 0.90147 0.0
H435 H 0.98752 0.56941 0.83192 0.0
H436 H 0.77795 0.46772 0.88797 0.0
H437 H 0.81776 0.52231 0.90702 0.0
H438 H 0.82703 0.4826 0.91575 0.0
H439 H 0.86655 0.54902 0.80163 0.0
H440 H 0.94156 0.58203 0.80069 0.0
H441 H 0.9138 0.60465 0.81957 0.0
C442 C 0.31768 0.72203 0.14899 0.0
C443 C 0.27444 0.70603 0.16624 0.0
C444 C 0.36567 0.76826 0.15104 0.0
C445 C 0.37072 0.7992 0.17088 0.0
C446 C 0.32686 0.7834 0.18806 0.0
C447 C 0.27923 0.73707 0.18549 0.0
C448 C 0.41139 0.78385 0.13226 0.0
C449 C 0.33078 0.81529 0.20958 0.0
C450 C 0.51552 0.90737 0.19795 0.0
C451 C 0.51925 0.94053 0.18514 0.0
C452 C 0.46794 0.86123 0.19304 0.0
C453 C 0.42299 0.84771 0.17469 0.0
C454 C 0.42722 0.88075 0.16096 0.0
C455 C 0.47533 0.92682 0.16636 0.0
C456 C 0.46521 0.82708 0.20804 0.0
C457 C 0.38026 0.86759 0.14115 0.0
H458 H 0.31426 0.69841 0.13393 0.0
H459 H 0.24609 0.72511 0.19889 0.0
H460 H 0.42062 0.81198 0.12147 0.0
H461 H 0.45071 0.79724 0.1442 0.0
H462 H 0.3998 0.75597 0.11703 0.0
H463 H 0.2922 0.79795 0.22064 0.0
H464 H 0.36721 0.83014 0.22443 0.0
H465 H 0.33797 0.84386 0.20029 0.0
H466 H 0.54977 0.91762 0.2121 0.0
H467 H 0.47775 0.95226 0.15653 0.0
H468 H 0.45726 0.79998 0.19346 0.0
H469 H 0.42968 0.81049 0.22115 0.0
H470 H 0.50455 0.84294 0.22091 0.0
H471 H 0.36917 0.84033 0.12557 0.0
H472 H 0.39158 0.89684 0.13082 0.0
H473 H 0.34212 0.85383 0.15196 0.0
C474 C 0.65901 0.32359 0.51199 0.0
C475 C 0.61635 0.29157 0.49173 0.0
C476 C 0.66351 0.36037 0.52328 0.0
C477 C 0.62515 0.36593 0.51375 0.0
C478 C 0.58286 0.33449 0.49287 0.0
C479 C 0.57869 0.29751 0.48226 0.0
C480 C 0.70895 0.393 0.54566 0.0
C481 C 0.54168 0.33967 0.4819 0.0
C482 C 0.6026 0.43583 0.55938 0.0
C483 C 0.63794 0.47829 0.5492 0.0
C484 C 0.59824 0.39906 0.54812 0.0
C485 C 0.62911 0.40453 0.52579 0.0
C486 C 0.66431 0.44703 0.51519 0.0
C487 C 0.66875 0.48346 0.52717 0.0
C488 C 0.56077 0.35438 0.56021 0.0
C489 C 0.69742 0.45407 0.4912 0.0
H490 H 0.68908 0.31995 0.51908 0.0
H491 H 0.54513 0.27275 0.4669 0.0
H492 H 0.73682 0.42795 0.53949 0.0
H493 H 0.68969 0.39372 0.56408 0.0
H494 H 0.7351 0.38364 0.55097 0.0
H495 H 0.51273 0.31336 0.46489 0.0
H496 H 0.51622 0.33725 0.49824 0.0
H497 H 0.56471 0.37371 0.47471 0.0
H498 H 0.57782 0.4311 0.57604 0.0
H499 H 0.69694 0.51624 0.51941 0.0
H500 H 0.58572 0.34454 0.56684 0.0
H501 H 0.52754 0.32716 0.54469 0.0
H502 H 0.54032 0.35591 0.57786 0.0
H503 H 0.7275 0.44855 0.49629 0.0
H504 H 0.72132 0.48874 0.48478 0.0
H505 H 0.66864 0.42886 0.4738 0.0
C506 C 0.39012 0.49809 0.85397 0.0
C507 C 0.44397 0.53657 0.84809 0.0
C508 C 0.34479 0.49845 0.8557 0.0
C509 C 0.35257 0.53826 0.85148 0.0
C510 C 0.40687 0.57728 0.8456 0.0
C511 C 0.4515 0.57598 0.84399 0.0
C512 C 0.2882 0.45588 0.86195 0.0
C513 C 0.41789 0.6206 0.84088 0.0
C514 C 0.22266 0.52583 0.82972 0.0
C515 C 0.21077 0.53825 0.85395 0.0
C516 C 0.2683 0.52582 0.82866 0.0
C517 C 0.30368 0.53859 0.85244 0.0
C518 C 0.29171 0.55123 0.87703 0.0
C519 C 0.24563 0.55093 0.87749 0.0
C520 C 0.27864 0.51207 0.80194 0.0
C521 C 0.3277 0.56512 0.90294 0.0
H522 H 0.38318 0.46734 0.85729 0.0
H523 H 0.49254 0.60611 0.8395 0.0
H524 H 0.27446 0.46325 0.88038 0.0
H525 H 0.2563 0.44403 0.84503 0.0
H526 H 0.28885 0.42792 0.86522 0.0
H527 H 0.46236 0.64829 0.83701 0.0
H528 H 0.39028 0.61422 0.82327 0.0
H529 H 0.40758 0.63229 0.85876 0.0
H530 H 0.19611 0.5161 0.8114 0.0
H531 H 0.23697 0.56071 0.89631 0.0
H532 H 0.27634 0.48233 0.80372 0.0
H533 H 0.32156 0.54019 0.79644 0.0
H534 H 0.24774 0.5032 0.78525 0.0
H535 H 0.32696 0.53702 0.9078 0.0
H536 H 0.31337 0.57413 0.92036 0.0
H537 H 0.37204 0.59479 0.90037 0.0
C538 C 0.95348 0.40898 0.17332 0.0
C539 C 0.9971 0.4227 0.15676 0.0
C540 C 0.9081 0.36281 0.17486 0.0
C541 C 0.90632 0.32931 0.15966 0.0
C542 C 0.9504 0.34283 0.1431 0.0
C543 C 0.99515 0.38937 0.14175 0.0
C544 C 0.8622 0.34993 0.19291 0.0
C545 C 0.95035 0.30812 0.12685 0.0
C546 C 0.80866 0.20927 0.181 0.0
C547 C 0.76211 0.18818 0.16228 0.0
C548 C 0.85638 0.25518 0.18025 0.0
C549 C 0.85708 0.2802 0.16032 0.0
C550 C 0.80986 0.25862 0.14134 0.0
C551 C 0.76288 0.21277 0.14256 0.0
C552 C 0.90609 0.27682 0.20064 0.0
C553 C 0.80911 0.28393 0.11966 0.0
H554 H 0.95465 0.43435 0.1852 0.0
H555 H 1.02882 0.3996 0.12908 0.0
H556 H 0.82023 0.32485 0.18162 0.0
H557 H 0.8633 0.33359 0.21015 0.0
H558 H 0.8668 0.37986 0.20115 0.0
H559 H 0.98877 0.32414 0.11579 0.0
H560 H 0.94732 0.28502 0.14042 0.0
H561 H 0.91305 0.28687 0.11193 0.0
H562 H 0.80785 0.18981 0.19609 0.0
H563 H 0.72675 0.19602 0.12797 0.0
H564 H 0.91392 0.30564 0.21319 0.0
H565 H 0.9445 0.29081 0.19 0.0
H566 H 0.89958 0.25235 0.21426 0.0
H567 H 0.8193 0.31575 0.12892 0.0
H568 H 0.76777 0.26322 0.10764 0.0
H569 H 0.84183 0.29378 0.10564 0.0
C570 C 0.09832 0.60056 0.07438 0.0
C571 C 0.10124 0.57193 0.08871 0.0
C572 C 0.09711 0.59777 0.04594 0.0
C573 C 0.09933 0.56582 0.03156 0.0
C574 C 0.10416 0.53789 0.04609 0.0
C575 C 0.10467 0.54107 0.07447 0.0
C576 C 0.09162 0.628 0.03123 0.0
C577 C 0.10714 0.50369 0.03162 0.0
C578 C 1.02942 0.52284 0.95987 0.0
C579 C 1.0753 0.54937 0.94416 0.0
C580 C 1.0369 0.52743 0.98821 0.0
C581 C 0.09176 0.55904 0.00135 0.0
C582 C 0.13858 0.5847 0.98562 0.0
C583 C 0.1298 0.5796 0.95717 0.0
C584 C 0.98579 0.49917 0.00413 0.0
C585 C 0.19776 0.61838 -0.00112 0.0
H586 H 0.09587 0.62456 0.08535 0.0
H587 H 0.10717 0.51898 0.08551 0.0
H588 H 0.12543 0.64692 0.01729 0.0
H589 H 1.05087 0.60684 0.01871 0.0
H590 H 0.09373 0.65284 0.04537 0.0
H591 H 0.1163 0.48776 0.04592 0.0
H592 H 1.06649 0.47648 0.01977 0.0
H593 H 0.14011 0.52015 0.01709 0.0
H594 H 0.98726 0.4987 0.94994 0.0
H595 H 0.16542 0.60028 0.94518 0.0
H596 H 0.98273 0.52178 0.01748 0.0
H597 H 0.98977 0.47911 0.01736 0.0
H598 H 0.94613 0.47542 0.99081 0.0
H599 H 0.20287 0.6463 0.01105 0.0
H600 H 0.22979 0.63335 0.98382 0.0
H601 H 0.206 0.60172 0.01299 0.0
C602 C 0.64559 0.07598 0.38712 0.0
C603 C 0.6992 0.09963 0.40027 0.0
C604 C 0.63836 0.07384 0.35886 0.0
C605 C 0.68594 0.09616 0.34352 0.0
C606 C 0.74041 0.12215 0.35694 0.0
C607 C 0.74636 0.12345 0.38518 0.0
C608 C 0.57956 0.04573 0.34532 0.0
C609 C 0.79221 0.14678 0.34137 0.0
C610 C 0.65936 0.0406 0.27224 0.0
C611 C 0.65445 0.06713 0.25665 0.0
C612 C 0.67089 0.05043 0.3004 0.0
C613 C 0.67814 0.08801 0.31339 0.0
C614 C 0.67584 0.11626 0.29767 0.0
C615 C 0.664 0.10547 0.26939 0.0
C616 C 0.67338 0.01959 0.31634 0.0
C617 C 0.68382 0.15681 0.3108 0.0
H618 H 0.6091 0.05781 0.39879 0.0
H619 H 0.78795 0.14219 0.39537 0.0
H620 H 0.57699 0.06562 0.33123 0.0
H621 H 0.56886 0.01546 0.33314 0.0
H622 H 0.54762 0.034 0.36022 0.0
H623 H 0.83159 0.16976 0.35496 0.0
H624 H 0.79287 0.12163 0.32946 0.0
H625 H 0.79149 0.16705 0.32681 0.0
H626 H 0.65288 0.01135 0.26238 0.0
H627 H 0.65997 0.12592 0.25742 0.0
H628 H 0.63937 1.00297 0.33033 0.0
H629 H 0.71396 0.0397 0.3289 0.0
H630 H 0.6687 0.99271 0.30305 0.0
H631 H 0.64837 0.14509 0.32335 0.0
H632 H 0.6858 0.17762 0.29563 0.0
H633 H 0.723 0.17867 0.32453 0.0
C634 C 0.54515 0.50907 0.74651 0.0
C635 C 0.58197 0.53957 0.76882 0.0
C636 C 0.56051 0.5183 0.71996 0.0
C637 C 0.61326 0.55988 0.71546 0.0
C638 C 0.64962 0.59184 0.73785 0.0
C639 C 0.63401 0.58084 0.76434 0.0
C640 C 0.521 0.48269 0.69677 0.0
C641 C 0.70532 0.63723 0.73389 0.0
C642 C 0.66909 0.55524 0.64921 0.0
C643 C 0.647 0.56817 0.63134 0.0
C644 C 0.66044 0.55417 0.67688 0.0
C645 C 0.63091 0.56814 0.68731 0.0
C646 C 0.61269 0.58492 0.66994 0.0
C647 C 0.62008 0.58404 0.64212 0.0
C648 C 0.67985 0.53535 0.69457 0.0
C649 C 0.58288 0.60171 0.68048 0.0
H650 H 0.50489 0.47699 0.7498 0.0
H651 H 0.6627 0.60439 0.78146 0.0
H652 H 0.50961 0.49694 0.68236 0.0
H653 H 0.54222 0.47219 0.68548 0.0
H654 H 0.48169 0.45199 0.70376 0.0
H655 H 0.72433 0.66082 0.75286 0.0
H656 H 0.7351 0.63228 0.72709 0.0
H657 H 0.70011 0.65338 0.71792 0.0
H658 H 0.69183 0.54454 0.64145 0.0
H659 H 0.60257 0.59404 0.62873 0.0
H660 H 0.64274 0.50332 0.70171 0.0
H661 H 0.70583 0.55954 0.71277 0.0
H662 H 0.70475 0.52812 0.68369 0.0
H663 H 0.53958 0.57238 0.6848 0.0
H664 H 0.58006 0.62067 0.66565 0.0
H665 H 0.60492 0.62415 0.69973 0.0
C666 C 0.70675 0.10995 0.56163 0.0
C667 C 0.65531 0.09416 0.54926 0.0
C668 C 0.71329 0.10895 0.58961 0.0
C669 C 0.6683 0.09431 0.60576 0.0
C670 C 0.61653 0.07895 0.59335 0.0
C671 C 0.61039 0.07827 0.56523 0.0
C672 C 0.76852 0.12414 0.60186 0.0
C673 C 0.56806 0.06453 0.60987 0.0
C674 C 0.65432 0.06088 0.67732 0.0
C675 C 0.67253 0.10074 0.69282 0.0
C676 C 0.65668 0.05925 0.64902 0.0
C677 C 0.67588 0.09784 0.63583 0.0
C678 C 0.69695 0.13875 0.65145 0.0
C679 C 0.6963 0.13997 0.67971 0.0
C680 C 0.63618 0.01558 0.63314 0.0
C681 C 0.71683 0.18049 0.63825 0.0
H682 H 0.74205 0.12343 0.54955 0.0
H683 H 0.5706 0.06628 0.5558 0.0
H684 H 0.79236 0.15819 0.61334 0.0
H685 H 0.76126 0.1004 0.6163 0.0
H686 H 0.79494 0.12625 0.58614 0.0
H687 H 0.53091 0.05409 0.59712 0.0
H688 H 0.55511 0.03569 0.62112 0.0
H689 H 0.58143 0.093 0.62507 0.0
H690 H 0.636 0.03032 0.68705 0.0
H691 H 0.71273 0.17154 0.69147 0.0
H692 H 0.66556 0.02266 0.61767 0.0
H693 H 0.5946 0.99873 0.62229 0.0
H694 H 0.63175 0.99157 0.64646 0.0
H695 H 0.75001 0.19013 0.62462 0.0
H696 H 0.7337 0.21008 0.65333 0.0
H697 H 0.68127 0.17296 0.62563 0.0
C698 C 0.62788 0.52762 0.93472 0.0
C699 C 0.58626 0.51844 0.91623 0.0
C700 C 0.61377 0.49865 0.95484 0.0
C701 C 0.55685 0.45949 0.95618 0.0
C702 C 0.51477 0.45036 0.93758 0.0
C703 C 0.52992 0.48031 0.91811 0.0
C704 C 0.65963 0.50991 0.97465 0.0
C705 C 0.4537 0.40881 0.93815 0.0
C706 C 0.52213 0.36187 0.99321 0.0
C707 C 0.50512 0.36862 0.01757 0.0
C708 C 0.53941 0.39133 0.973 0.0
C709 C 0.54066 0.42879 0.97759 0.0
C710 C 0.5243 0.43605 0.00234 0.0
C711 C 0.50656 0.40581 0.02194 0.0
C712 C 0.55555 0.38207 0.94663 0.0
C713 C 0.52563 0.47583 0.00817 0.0
H714 H 0.67146 0.55718 0.93331 0.0
H715 H 0.49758 0.47338 0.90397 0.0
H716 H 0.65062 0.51385 0.99565 0.0
H717 H 0.66085 0.48163 0.97329 0.0
H718 H 0.70176 0.54167 0.97091 0.0
H719 H 0.4265 0.40579 0.92162 0.0
H720 H 0.4492 0.37768 0.93622 0.0
H721 H 0.43822 0.41013 0.95784 0.0
H722 H 0.52114 0.3332 0.98984 0.0
H723 H 0.49456 0.41171 0.04097 0.0
H724 H 0.59919 0.41189 0.94312 0.0
H725 H 0.52765 0.37669 0.92952 0.0
H726 H 0.55265 0.35171 0.94629 0.0
H727 H 0.5692 0.50816 0.00765 0.0
H728 H 0.51055 0.47611 0.02822 0.0
H729 H 0.499 0.47486 0.99237 0.0
C730 C 0.17619 0.58875 0.24417 0.0
C731 C 0.16892 0.55342 0.22845 0.0
C732 C 0.17713 0.59029 0.27251 0.0
C733 C 0.1697 0.55521 0.28539 0.0
C734 C 0.16062 0.51869 0.2695 0.0
C735 C 0.16083 0.51844 0.24117 0.0
C736 C 0.18751 0.63009 0.28869 0.0
C737 C 0.15146 0.48027 0.28244 0.0
C738 C 0.23451 0.5916 0.35778 0.0
C739 C 0.18888 0.57885 0.37239 0.0
C740 C 0.22823 0.58212 0.32953 0.0
C741 C 0.17475 0.55853 0.31553 0.0
C742 C 0.12758 0.54227 0.33035 0.0
C743 C 0.13525 0.55282 0.35865 0.0
C744 C 0.27965 0.60009 0.31455 0.0
C745 C 1.06966 0.51619 0.3162 0.0
H746 H 0.18229 0.61576 0.23434 0.0
H747 H 0.1546 0.49084 0.22896 0.0
H748 H 0.15263 0.61783 0.30176 0.0
H749 H 0.22676 0.64893 0.30222 0.0
H750 H 0.1914 0.65407 0.27556 0.0
H751 H 0.14089 0.45281 0.26717 0.0
H752 H 0.18999 0.49338 0.29502 0.0
H753 H 0.11698 0.46553 0.2961 0.0
H754 H 0.27585 0.61089 0.36837 0.0
H755 H 0.0998 0.54292 0.36976 0.0
H756 H 0.28935 0.6272 0.30244 0.0
H757 H 0.27171 0.57276 0.30023 0.0
H758 H 0.31716 0.61443 0.32852 0.0
H759 H 1.06791 0.5396 0.30538 0.0
H760 H 1.03645 0.50022 0.33067 0.0
H761 H 1.06026 0.4893 0.30086 0.0
loop_
_geom_bond_atom_site_label_1
_geom_bond_atom_site_label_2
_geom_bond_distance
_geom_bond_site_symmetry_2
_ccdc_geom_bond_type
La0 C2 2.928 . S
La0 O20 2.521 . S
La0 O21 2.628 . S
La0 O22 2.554 . S
La0 O23 2.757 . S
La0 O24 2.470 . S
La0 O29 2.482 . S
La0 O31 2.503 1_455 S
La1 C11 2.928 1_455 S
La1 O23 2.482 . S
La1 O25 2.503 . S
La1 O26 2.521 1_455 S
La1 O27 2.628 1_455 S
La1 O28 2.554 . S
La1 O29 2.757 . S
La1 O30 2.470 1_455 S
C2 La0 2.928 . S
C2 C3 1.503 . S
C2 O20 1.261 . S
C2 O21 1.243 . S
C3 C2 1.503 . S
C3 C4 1.394 . S
C3 C8 1.373 . S
C4 C3 1.394 . S
C4 C5 1.380 . S
C4 H32 0.930 . S
C5 C4 1.380 . S
C5 C6 1.376 . S
C5 H33 0.930 . S
C6 C5 1.376 . S
C6 C7 1.370 . S
C7 C6 1.370 . S
C7 C8 1.396 . S
C7 H34 0.929 . S
C8 C3 1.373 . S
C8 C7 1.396 . S
C8 H35 0.929 . S
C9 O22 1.240 . S
C9 O23 1.289 . S
C10 O24 1.258 . S
C10 O25 1.256 . S
C11 La1 2.928 1_655 S
C11 C12 1.503 . S
C11 O26 1.261 . S
C11 O27 1.243 . S
C12 C11 1.503 . S
C12 C13 1.394 . S
C12 C17 1.373 . S
C13 C12 1.394 . S
C13 C14 1.380 . S
C13 H36 0.930 . S
C14 C13 1.380 . S
C14 C15 1.376 . S
C14 H37 0.930 . S
C15 C14 1.376 . S
C15 C16 1.370 . S
C16 C15 1.370 . S
C16 C17 1.396 . S
C16 H38 0.929 . S
C17 C12 1.373 . S
C17 C16 1.396 . S
C17 H39 0.929 . S
C18 O28 1.240 . S
C18 O29 1.289 . S
C19 O30 1.258 . S
C19 O31 1.256 . S
O20 La0 2.521 . S
O20 C2 1.261 . S
O21 La0 2.628 . S
O21 C2 1.243 . S
O22 La0 2.554 . S
O22 C9 1.240 . S
O23 La0 2.757 . S
O23 La1 2.482 . S
O23 C9 1.289 . S
O24 La0 2.470 . S
O24 C10 1.258 . S
O25 La1 2.503 . S
O25 C10 1.256 . S
O26 La1 2.521 1_655 S
O26 C11 1.261 . S
O27 La1 2.628 1_655 S
O27 C11 1.243 . S
O28 La1 2.554 . S
O28 C18 1.240 . S
O29 La0 2.482 . S
O29 La1 2.757 . S
O29 C18 1.289 . S
O30 La1 2.470 1_655 S
O30 C19 1.258 . S
O31 La0 2.503 1_655 S
O31 C19 1.256 . S
H32 C4 0.930 . S
H33 C5 0.930 . S
H34 C7 0.929 . S
H35 C8 0.929 . S
H36 C13 0.930 . S
H37 C14 0.930 . S
H38 C16 0.929 . S
H39 C17 0.929 . S
La40 C42 2.928 1_545 S
La40 O60 2.521 1_545 S
La40 O61 2.628 1_545 S
La40 O62 2.554 . S
La40 O63 2.757 . S
La40 O64 2.470 1_545 S
La40 O69 2.482 . S
La40 O71 2.503 . S
La41 C51 2.928 . S
La41 O63 2.482 . S
La41 O65 2.503 1_545 S
La41 O66 2.521 . S
La41 O67 2.628 . S
La41 O68 2.554 . S
La41 O69 2.757 . S
La41 O70 2.470 . S
C42 La40 2.928 1_565 S
C42 C43 1.503 . S
C42 O60 1.261 . S
C42 O61 1.243 . S
C43 C42 1.503 . S
C43 C44 1.394 . S
C43 C48 1.373 . S
C44 C43 1.394 . S
C44 C45 1.380 . S
C44 H72 0.930 . S
C45 C44 1.380 . S
C45 C46 1.376 . S
C45 H73 0.930 . S
C46 C45 1.376 . S
C46 C47 1.370 . S
C47 C46 1.370 . S
C47 C48 1.396 . S
C47 H74 0.929 . S
C48 C43 1.373 . S
C48 C47 1.396 . S
C48 H75 0.929 . S
C49 O62 1.240 . S
C49 O63 1.289 . S
C50 O64 1.258 . S
C50 O65 1.256 . S
C51 La41 2.928 . S
C51 C52 1.503 . S
C51 O66 1.261 . S
C51 O67 1.243 . S
C52 C51 1.503 . S
C52 C53 1.394 . S
C52 C57 1.373 . S
C53 C52 1.394 . S
C53 C54 1.380 . S
C53 H76 0.930 . S
C54 C53 1.380 . S
C54 C55 1.376 . S
C54 H77 0.930 . S
C55 C54 1.376 . S
C55 C56 1.370 . S
C56 C55 1.370 . S
C56 C57 1.396 . S
C56 H78 0.929 . S
C57 C52 1.373 . S
C57 C56 1.396 . S
C57 H79 0.929 . S
C58 O68 1.240 . S
C58 O69 1.289 . S
C59 O70 1.258 . S
C59 O71 1.256 . S
O60 La40 2.521 1_565 S
O60 C42 1.261 . S
O61 La40 2.628 1_565 S
O61 C42 1.243 . S
O62 La40 2.554 . S
O62 C49 1.240 . S
O63 La40 2.757 . S
O63 La41 2.482 . S
O63 C49 1.289 . S
O64 La40 2.470 1_565 S
O64 C50 1.258 . S
O65 La41 2.503 1_565 S
O65 C50 1.256 . S
O66 La41 2.521 . S
O66 C51 1.261 . S
O67 La41 2.628 . S
O67 C51 1.243 . S
O68 La41 2.554 . S
O68 C58 1.240 . S
O69 La40 2.482 . S
O69 La41 2.757 . S
O69 C58 1.289 . S
O70 La41 2.470 . S
O70 C59 1.258 . S
O71 La40 2.503 . S
O71 C59 1.256 . S
H72 C44 0.930 . S
H73 C45 0.930 . S
H74 C47 0.929 . S
H75 C48 0.929 . S
H76 C53 0.930 . S
H77 C54 0.930 . S
H78 C56 0.929 . S
H79 C57 0.929 . S
La80 C82 2.928 . S
La80 O100 2.521 . S
La80 O101 2.628 . S
La80 O102 2.554 . S
La80 O103 2.757 . S
La80 O104 2.470 . S
La80 O109 2.482 . S
La80 O111 2.503 . S
La81 C91 2.928 . S
La81 O103 2.482 . S
La81 O105 2.503 . S
La81 O106 2.521 . S
La81 O107 2.628 . S
La81 O108 2.554 . S
La81 O109 2.757 . S
La81 O110 2.470 . S
C82 La80 2.928 . S
C82 C83 1.503 . S
C82 O100 1.261 . S
C82 O101 1.243 . S
C83 C82 1.503 . S
C83 C84 1.394 . S
C83 C88 1.373 . S
C84 C83 1.394 . S
C84 C85 1.380 . S
C84 H112 0.930 . S
C85 C84 1.380 . S
C85 C86 1.376 . S
C85 H113 0.930 . S
C86 C85 1.376 . S
C86 C87 1.370 . S
C87 C86 1.370 . S
C87 C88 1.396 . S
C87 H114 0.929 . S
C88 C83 1.373 . S
C88 C87 1.396 . S
C88 H115 0.929 . S
C89 O102 1.240 . S
C89 O103 1.289 . S
C90 O104 1.258 . S
C90 O105 1.256 . S
C91 La81 2.928 . S
C91 C92 1.503 . S
C91 O106 1.261 . S
C91 O107 1.243 . S
C92 C91 1.503 . S
C92 C93 1.394 . S
C92 C97 1.373 . S
C93 C92 1.394 . S
C93 C94 1.380 . S
C93 H116 0.930 . S
C94 C93 1.380 . S
C94 C95 1.376 . S
C94 H117 0.930 . S
C95 C94 1.376 . S
C95 C96 1.370 . S
C96 C95 1.370 . S
C96 C97 1.396 . S
C96 H118 0.929 . S
C97 C92 1.373 . S
C97 C96 1.396 . S
C97 H119 0.929 . S
C98 O108 1.240 . S
C98 O109 1.289 . S
C99 O110 1.258 . S
C99 O111 1.256 . S
O100 La80 2.521 . S
O100 C82 1.261 . S
O101 La80 2.628 . S
O101 C82 1.243 . S
O102 La80 2.554 . S
O102 C89 1.240 . S
O103 La80 2.757 . S
O103 La81 2.482 . S
O103 C89 1.289 . S
O104 La80 2.470 . S
O104 C90 1.258 . S
O105 La81 2.503 . S
O105 C90 1.256 . S
O106 La81 2.521 . S
O106 C91 1.261 . S
O107 La81 2.628 . S
O107 C91 1.243 . S
O108 La81 2.554 . S
O108 C98 1.240 . S
O109 La80 2.482 . S
O109 La81 2.757 . S
O109 C98 1.289 . S
O110 La81 2.470 . S
O110 C99 1.258 . S
O111 La80 2.503 . S
O111 C99 1.256 . S
H112 C84 0.930 . S
H113 C85 0.930 . S
H114 C87 0.929 . S
H115 C88 0.929 . S
H116 C93 0.930 . S
H117 C94 0.930 . S
H118 C96 0.929 . S
H119 C97 0.929 . S
H120 C123 0.929 . S
H121 C126 0.929 . S
H122 C128 0.930 . S
C123 H120 0.929 . S
C123 C124 1.398 . S
C123 C125 1.396 1_565 S
C124 C123 1.398 . S
C124 C128 1.407 1_565 S
C125 C123 1.396 1_545 S
C125 C126 1.394 . S
C126 H121 0.929 . S
C126 C125 1.394 . S
C126 C127 1.382 . S
C127 C126 1.382 . S
C127 C128 1.392 . S
C127 N129 1.420 . S
C128 H122 0.930 . S
C128 C124 1.407 1_545 S
C128 C127 1.392 . S
N129 C127 1.420 . S
N129 C130 1.244 . S
C130 N129 1.244 . S
H131 C134 0.929 . S
H132 C137 0.929 . S
H133 C139 0.930 . S
C134 H131 0.929 . S
C134 C135 1.398 . S
C134 C136 1.396 . S
C135 C134 1.398 . S
C135 C139 1.407 . S
C136 C134 1.396 . S
C136 C137 1.394 . S
C137 H132 0.929 . S
C137 C136 1.394 . S
C137 C138 1.382 . S
C138 C137 1.382 . S
C138 C139 1.392 . S
C138 N140 1.420 . S
C139 H133 0.930 . S
C139 C135 1.407 . S
C139 C138 1.392 . S
N140 C138 1.420 . S
N140 C141 1.244 . S
C141 N140 1.244 . S
H142 C145 0.929 . S
H143 C148 0.929 . S
H144 C150 0.930 . S
C145 H142 0.929 . S
C145 C146 1.398 . S
C145 C147 1.396 . S
C146 C145 1.398 . S
C146 C150 1.407 . S
C147 C145 1.396 . S
C147 C148 1.394 . S
C148 H143 0.929 . S
C148 C147 1.394 . S
C148 C149 1.382 . S
C149 C148 1.382 . S
C149 C150 1.392 . S
C149 N151 1.420 . S
C150 H144 0.930 . S
C150 C146 1.407 . S
C150 C149 1.392 . S
N151 C149 1.420 . S
N151 C152 1.244 . S
C152 N151 1.244 . S
H153 C156 0.929 . S
H154 C159 0.929 . S
H155 C161 0.930 . S
C156 H153 0.929 . S
C156 C157 1.398 . S
C156 C158 1.396 . S
C157 C156 1.398 . S
C157 C161 1.407 . S
C158 C156 1.396 . S
C158 C159 1.394 1_455 S
C159 H154 0.929 . S
C159 C158 1.394 1_655 S
C159 C160 1.382 . S
C160 C159 1.382 . S
C160 C161 1.392 1_655 S
C160 N162 1.420 . S
C161 H155 0.930 . S
C161 C157 1.407 . S
C161 C160 1.392 1_455 S
N162 C160 1.420 . S
N162 C163 1.244 . S
C163 N162 1.244 . S
H164 C167 0.929 . S
H165 C170 0.929 1_565 S
H166 C172 0.930 . S
C167 H164 0.929 . S
C167 C168 1.398 . S
C167 C169 1.396 . S
C168 C167 1.398 . S
C168 C172 1.407 . S
C169 C167 1.396 . S
C169 C170 1.394 . S
C170 H165 0.929 1_545 S
C170 C169 1.394 . S
C170 C171 1.382 . S
C171 C170 1.382 . S
C171 C172 1.392 . S
C171 N173 1.420 . S
C172 H166 0.930 . S
C172 C168 1.407 . S
C172 C171 1.392 . S
N173 C171 1.420 . S
N173 C174 1.244 1_545 S
C174 N173 1.244 1_565 S
H175 C178 0.929 . S
H176 C181 0.929 . S
H177 C183 0.930 . S
C178 H175 0.929 . S
C178 C179 1.398 . S
C178 C180 1.396 . S
C179 C178 1.398 . S
C179 C183 1.407 . S
C180 C178 1.396 . S
C180 C181 1.394 . S
C181 H176 0.929 . S
C181 C180 1.394 . S
C181 C182 1.382 . S
C182 C181 1.382 . S
C182 C183 1.392 . S
C182 N184 1.420 . S
C183 H177 0.930 . S
C183 C179 1.407 . S
C183 C182 1.392 . S
N184 C182 1.420 . S
N184 C185 1.244 . S
C185 N184 1.244 . S
C186 C187 1.391 . S
C186 C188 1.394 . S
C186 H202 0.931 . S
C187 C186 1.391 . S
C187 C191 1.376 . S
C188 C186 1.394 . S
C188 C189 1.369 . S
C188 C192 1.531 . S
C189 C188 1.369 . S
C189 C190 1.410 . S
C189 C197 1.503 . S
C190 C189 1.410 . S
C190 C191 1.392 . S
C190 C193 1.511 . S
C191 C187 1.376 . S
C191 C190 1.392 . S
C191 H203 0.929 . S
C192 C188 1.531 . S
C192 H204 0.960 . S
C192 H205 0.962 . S
C192 H206 0.960 . S
C193 C190 1.511 . S
C193 H207 0.961 . S
C193 H208 0.961 . S
C193 H209 0.961 . S
C194 C195 1.370 . S
C194 C196 1.363 . S
C194 H210 0.931 . S
C195 C194 1.370 . S
C195 C199 1.408 . S
C196 C194 1.363 . S
C196 C197 1.370 . S
C196 C200 1.524 . S
C197 C189 1.503 . S
C197 C196 1.370 . S
C197 C198 1.403 . S
C198 C197 1.403 . S
C198 C199 1.404 . S
C198 C201 1.539 . S
C199 C195 1.408 . S
C199 C198 1.404 . S
C199 H211 0.930 . S
C200 C196 1.524 . S
C200 H212 0.956 . S
C200 H213 0.961 . S
C200 H214 0.961 . S
C201 C198 1.539 . S
C201 H215 0.958 . S
C201 H216 0.961 . S
C201 H217 0.960 . S
H202 C186 0.931 . S
H203 C191 0.929 . S
H204 C192 0.960 . S
H205 C192 0.962 . S
H206 C192 0.960 . S
H207 C193 0.961 . S
H208 C193 0.961 . S
H209 C193 0.961 . S
H210 C194 0.931 . S
H211 C199 0.930 . S
H212 C200 0.956 . S
H213 C200 0.961 . S
H214 C200 0.961 . S
H215 C201 0.958 . S
H216 C201 0.961 . S
H217 C201 0.960 . S
C218 C219 1.391 . S
C218 C220 1.394 . S
C218 H234 0.931 . S
C219 C218 1.391 . S
C219 C223 1.376 . S
C220 C218 1.394 . S
C220 C221 1.369 . S
C220 C224 1.531 . S
C221 C220 1.369 . S
C221 C222 1.410 . S
C221 C229 1.503 . S
C222 C221 1.410 . S
C222 C223 1.392 . S
C222 C225 1.511 . S
C223 C219 1.376 . S
C223 C222 1.392 . S
C223 H235 0.929 . S
C224 C220 1.531 . S
C224 H236 0.960 . S
C224 H237 0.962 . S
C224 H238 0.960 . S
C225 C222 1.511 . S
C225 H239 0.961 . S
C225 H240 0.961 . S
C225 H241 0.961 . S
C226 C227 1.370 . S
C226 C228 1.363 . S
C226 H242 0.931 . S
C227 C226 1.370 . S
C227 C231 1.408 . S
C228 C226 1.363 . S
C228 C229 1.370 . S
C228 C232 1.524 . S
C229 C221 1.503 . S
C229 C228 1.370 . S
C229 C230 1.403 . S
C230 C229 1.403 . S
C230 C231 1.404 . S
C230 C233 1.539 . S
C231 C227 1.408 . S
C231 C230 1.404 . S
C231 H243 0.930 . S
C232 C228 1.524 . S
C232 H244 0.956 . S
C232 H245 0.961 . S
C232 H246 0.961 . S
C233 C230 1.539 . S
C233 H247 0.958 . S
C233 H248 0.961 . S
C233 H249 0.960 . S
H234 C218 0.931 . S
H235 C223 0.929 . S
H236 C224 0.960 . S
H237 C224 0.962 . S
H238 C224 0.960 . S
H239 C225 0.961 . S
H240 C225 0.961 . S
H241 C225 0.961 . S
H242 C226 0.931 . S
H243 C231 0.930 . S
H244 C232 0.956 . S
H245 C232 0.961 . S
H246 C232 0.961 . S
H247 C233 0.958 . S
H248 C233 0.961 . S
H249 C233 0.960 . S
C250 C251 1.391 . S
C250 C252 1.394 . S
C250 H266 0.931 . S
C251 C250 1.391 . S
C251 C255 1.376 . S
C252 C250 1.394 . S
C252 C253 1.369 . S
C252 C256 1.531 . S
C253 C252 1.369 . S
C253 C254 1.410 . S
C253 C261 1.503 . S
C254 C253 1.410 . S
C254 C255 1.392 . S
C254 C257 1.511 . S
C255 C251 1.376 . S
C255 C254 1.392 . S
C255 H267 0.929 . S
C256 C252 1.531 . S
C256 H268 0.960 . S
C256 H269 0.962 . S
C256 H270 0.960 . S
C257 C254 1.511 . S
C257 H271 0.961 . S
C257 H272 0.961 . S
C257 H273 0.961 . S
C258 C259 1.370 . S
C258 C260 1.363 . S
C258 H274 0.931 . S
C259 C258 1.370 . S
C259 C263 1.408 . S
C260 C258 1.363 . S
C260 C261 1.370 . S
C260 C264 1.524 . S
C261 C253 1.503 . S
C261 C260 1.370 . S
C261 C262 1.403 . S
C262 C261 1.403 . S
C262 C263 1.404 . S
C262 C265 1.539 . S
C263 C259 1.408 . S
C263 C262 1.404 . S
C263 H275 0.930 . S
C264 C260 1.524 . S
C264 H276 0.956 . S
C264 H277 0.961 . S
C264 H278 0.961 . S
C265 C262 1.539 . S
C265 H279 0.958 . S
C265 H280 0.961 . S
C265 H281 0.960 . S
H266 C250 0.931 . S
H267 C255 0.929 . S
H268 C256 0.960 . S
H269 C256 0.962 . S
H270 C256 0.960 . S
H271 C257 0.961 . S
H272 C257 0.961 . S
H273 C257 0.961 . S
H274 C258 0.931 . S
H275 C263 0.930 . S
H276 C264 0.956 . S
H277 C264 0.961 . S
H278 C264 0.961 . S
H279 C265 0.958 . S
H280 C265 0.961 . S
H281 C265 0.960 . S
C282 C283 1.391 . S
C282 C284 1.394 . S
C282 H298 0.931 . S
C283 C282 1.391 . S
C283 C287 1.376 . S
C284 C282 1.394 . S
C284 C285 1.369 . S
C284 C288 1.531 . S
C285 C284 1.369 . S
C285 C286 1.410 . S
C285 C293 1.503 . S
C286 C285 1.410 . S
C286 C287 1.392 . S
C286 C289 1.511 . S
C287 C283 1.376 . S
C287 C286 1.392 . S
C287 H299 0.929 . S
C288 C284 1.531 . S
C288 H300 0.960 . S
C288 H301 0.962 . S
C288 H302 0.960 . S
C289 C286 1.511 . S
C289 H303 0.961 . S
C289 H304 0.961 . S
C289 H305 0.961 . S
C290 C291 1.370 . S
C290 C292 1.363 . S
C290 H306 0.931 . S
C291 C290 1.370 . S
C291 C295 1.408 . S
C292 C290 1.363 . S
C292 C293 1.370 . S
C292 C296 1.524 . S
C293 C285 1.503 . S
C293 C292 1.370 . S
C293 C294 1.403 . S
C294 C293 1.403 . S
C294 C295 1.404 . S
C294 C297 1.539 . S
C295 C291 1.408 . S
C295 C294 1.404 . S
C295 H307 0.930 . S
C296 C292 1.524 . S
C296 H308 0.956 . S
C296 H309 0.961 . S
C296 H310 0.961 . S
C297 C294 1.539 . S
C297 H311 0.958 . S
C297 H312 0.961 . S
C297 H313 0.960 . S
H298 C282 0.931 . S
H299 C287 0.929 . S
H300 C288 0.960 . S
H301 C288 0.962 . S
H302 C288 0.960 . S
H303 C289 0.961 . S
H304 C289 0.961 . S
H305 C289 0.961 . S
H306 C290 0.931 . S
H307 C295 0.930 . S
H308 C296 0.956 . S
H309 C296 0.961 . S
H310 C296 0.961 . S
H311 C297 0.958 . S
H312 C297 0.961 . S
H313 C297 0.960 . S
C314 C315 1.391 . S
C314 C316 1.394 . S
C314 H330 0.931 . S
C315 C314 1.391 . S
C315 C319 1.376 . S
C316 C314 1.394 . S
C316 C317 1.369 . S
C316 C320 1.531 . S
C317 C316 1.369 . S
C317 C318 1.410 . S
C317 C325 1.503 . S
C318 C317 1.410 . S
C318 C319 1.392 . S
C318 C321 1.511 . S
C319 C315 1.376 . S
C319 C318 1.392 . S
C319 H331 0.929 . S
C320 C316 1.531 . S
C320 H332 0.960 . S
C320 H333 0.962 . S
C320 H334 0.960 . S
C321 C318 1.511 . S
C321 H335 0.961 . S
C321 H336 0.961 . S
C321 H337 0.961 . S
C322 C323 1.370 . S
C322 C324 1.363 . S
C322 H338 0.931 . S
C323 C322 1.370 . S
C323 C327 1.408 . S
C324 C322 1.363 . S
C324 C325 1.370 . S
C324 C328 1.524 . S
C325 C317 1.503 . S
C325 C324 1.370 . S
C325 C326 1.403 . S
C326 C325 1.403 . S
C326 C327 1.404 . S
C326 C329 1.539 . S
C327 C323 1.408 . S
C327 C326 1.404 . S
C327 H339 0.930 . S
C328 C324 1.524 . S
C328 H340 0.956 . S
C328 H341 0.961 . S
C328 H342 0.961 . S
C329 C326 1.539 . S
C329 H343 0.958 . S
C329 H344 0.961 . S
C329 H345 0.960 . S
H330 C314 0.931 . S
H331 C319 0.929 . S
H332 C320 0.960 . S
H333 C320 0.962 . S
H334 C320 0.960 . S
H335 C321 0.961 . S
H336 C321 0.961 . S
H337 C321 0.961 . S
H338 C322 0.931 . S
H339 C327 0.930 . S
H340 C328 0.956 . S
H341 C328 0.961 . S
H342 C328 0.961 . S
H343 C329 0.958 . S
H344 C329 0.961 . S
H345 C329 0.960 . S
C346 C347 1.391 . S
C346 C348 1.394 . S
C346 H362 0.931 . S
C347 C346 1.391 . S
C347 C351 1.376 . S
C348 C346 1.394 . S
C348 C349 1.369 . S
C348 C352 1.531 . S
C349 C348 1.369 . S
C349 C350 1.410 . S
C349 C357 1.503 . S
C350 C349 1.410 . S
C350 C351 1.392 . S
C350 C353 1.511 . S
C351 C347 1.376 . S
C351 C350 1.392 . S
C351 H363 0.929 . S
C352 C348 1.531 . S
C352 H364 0.960 . S
C352 H365 0.962 . S
C352 H366 0.960 . S
C353 C350 1.511 . S
C353 H367 0.961 . S
C353 H368 0.961 . S
C353 H369 0.961 . S
C354 C355 1.370 . S
C354 C356 1.363 . S
C354 H370 0.931 . S
C355 C354 1.370 . S
C355 C359 1.408 . S
C356 C354 1.363 . S
C356 C357 1.370 . S
C356 C360 1.524 . S
C357 C349 1.503 . S
C357 C356 1.370 . S
C357 C358 1.403 . S
C358 C357 1.403 . S
C358 C359 1.404 . S
C358 C361 1.539 . S
C359 C355 1.408 . S
C359 C358 1.404 . S
C359 H371 0.930 . S
C360 C356 1.524 . S
C360 H372 0.956 . S
C360 H373 0.961 . S
C360 H374 0.961 . S
C361 C358 1.539 . S
C361 H375 0.958 . S
C361 H376 0.961 . S
C361 H377 0.960 . S
H362 C346 0.931 . S
H363 C351 0.929 . S
H364 C352 0.960 . S
H365 C352 0.962 . S
H366 C352 0.960 . S
H367 C353 0.961 . S
H368 C353 0.961 . S
H369 C353 0.961 . S
H370 C354 0.931 . S
H371 C359 0.930 . S
H372 C360 0.956 . S
H373 C360 0.961 . S
H374 C360 0.961 . S
H375 C361 0.958 . S
H376 C361 0.961 . S
H377 C361 0.960 . S
C378 C379 1.391 . S
C378 C380 1.394 . S
C378 H394 0.931 . S
C379 C378 1.391 . S
C379 C383 1.376 . S
C380 C378 1.394 . S
C380 C381 1.369 . S
C380 C384 1.531 . S
C381 C380 1.369 . S
C381 C382 1.410 . S
C381 C389 1.503 . S
C382 C381 1.410 . S
C382 C383 1.392 . S
C382 C385 1.511 . S
C383 C379 1.376 . S
C383 C382 1.392 . S
C383 H395 0.929 . S
C384 C380 1.531 . S
C384 H396 0.960 . S
C384 H397 0.962 . S
C384 H398 0.960 . S
C385 C382 1.511 . S
C385 H399 0.961 . S
C385 H400 0.961 . S
C385 H401 0.961 . S
C386 C387 1.370 . S
C386 C388 1.363 . S
C386 H402 0.931 . S
C387 C386 1.370 . S
C387 C391 1.408 . S
C388 C386 1.363 . S
C388 C389 1.370 . S
C388 C392 1.524 . S
C389 C381 1.503 . S
C389 C388 1.370 . S
C389 C390 1.403 . S
C390 C389 1.403 . S
C390 C391 1.404 . S
C390 C393 1.539 . S
C391 C387 1.408 . S
C391 C390 1.404 . S
C391 H403 0.930 . S
C392 C388 1.524 . S
C392 H404 0.956 . S
C392 H405 0.961 . S
C392 H406 0.961 . S
C393 C390 1.539 . S
C393 H407 0.958 . S
C393 H408 0.961 . S
C393 H409 0.960 . S
H394 C378 0.931 . S
H395 C383 0.929 . S
H396 C384 0.960 . S
H397 C384 0.962 . S
H398 C384 0.960 . S
H399 C385 0.961 . S
H400 C385 0.961 . S
H401 C385 0.961 . S
H402 C386 0.931 . S
H403 C391 0.930 . S
H404 C392 0.956 . S
H405 C392 0.961 . S
H406 C392 0.961 . S
H407 C393 0.958 . S
H408 C393 0.961 . S
H409 C393 0.960 . S
C410 C411 1.391 . S
C410 C412 1.394 . S
C410 H426 0.931 . S
C411 C410 1.391 . S
C411 C415 1.376 . S
C412 C410 1.394 . S
C412 C413 1.369 . S
C412 C416 1.531 . S
C413 C412 1.369 . S
C413 C414 1.410 . S
C413 C421 1.503 . S
C414 C413 1.410 . S
C414 C415 1.392 . S
C414 C417 1.511 . S
C415 C411 1.376 . S
C415 C414 1.392 . S
C415 H427 0.929 . S
C416 C412 1.531 . S
C416 H428 0.960 . S
C416 H429 0.962 . S
C416 H430 0.960 . S
C417 C414 1.511 . S
C417 H431 0.961 . S
C417 H432 0.961 . S
C417 H433 0.961 . S
C418 C419 1.370 . S
C418 C420 1.363 . S
C418 H434 0.931 . S
C419 C418 1.370 . S
C419 C423 1.408 . S
C420 C418 1.363 . S
C420 C421 1.370 . S
C420 C424 1.524 . S
C421 C413 1.503 . S
C421 C420 1.370 . S
C421 C422 1.403 . S
C422 C421 1.403 . S
C422 C423 1.404 . S
C422 C425 1.539 . S
C423 C419 1.408 . S
C423 C422 1.404 . S
C423 H435 0.930 . S
C424 C420 1.524 . S
C424 H436 0.956 . S
C424 H437 0.961 . S
C424 H438 0.961 . S
C425 C422 1.539 . S
C425 H439 0.958 . S
C425 H440 0.961 . S
C425 H441 0.960 . S
H426 C410 0.931 . S
H427 C415 0.929 . S
H428 C416 0.960 . S
H429 C416 0.962 . S
H430 C416 0.960 . S
H431 C417 0.961 . S
H432 C417 0.961 . S
H433 C417 0.961 . S
H434 C418 0.931 . S
H435 C423 0.930 . S
H436 C424 0.956 . S
H437 C424 0.961 . S
H438 C424 0.961 . S
H439 C425 0.958 . S
H440 C425 0.961 . S
H441 C425 0.960 . S
C442 C443 1.391 . S
C442 C444 1.394 . S
C442 H458 0.931 . S
C443 C442 1.391 . S
C443 C447 1.376 . S
C444 C442 1.394 . S
C444 C445 1.369 . S
C444 C448 1.531 . S
C445 C444 1.369 . S
C445 C446 1.410 . S
C445 C453 1.503 . S
C446 C445 1.410 . S
C446 C447 1.392 . S
C446 C449 1.511 . S
C447 C443 1.376 . S
C447 C446 1.392 . S
C447 H459 0.929 . S
C448 C444 1.531 . S
C448 H460 0.960 . S
C448 H461 0.962 . S
C448 H462 0.960 . S
C449 C446 1.511 . S
C449 H463 0.961 . S
C449 H464 0.961 . S
C449 H465 0.961 . S
C450 C451 1.370 . S
C450 C452 1.363 . S
C450 H466 0.931 . S
C451 C450 1.370 . S
C451 C455 1.408 . S
C452 C450 1.363 . S
C452 C453 1.370 . S
C452 C456 1.524 . S
C453 C445 1.503 . S
C453 C452 1.370 . S
C453 C454 1.403 . S
C454 C453 1.403 . S
C454 C455 1.404 . S
C454 C457 1.539 . S
C455 C451 1.408 . S
C455 C454 1.404 . S
C455 H467 0.930 . S
C456 C452 1.524 . S
C456 H468 0.956 . S
C456 H469 0.961 . S
C456 H470 0.961 . S
C457 C454 1.539 . S
C457 H471 0.958 . S
C457 H472 0.961 . S
C457 H473 0.960 . S
H458 C442 0.931 . S
H459 C447 0.929 . S
H460 C448 0.960 . S
H461 C448 0.962 . S
H462 C448 0.960 . S
H463 C449 0.961 . S
H464 C449 0.961 . S
H465 C449 0.961 . S
H466 C450 0.931 . S
H467 C455 0.930 . S
H468 C456 0.956 . S
H469 C456 0.961 . S
H470 C456 0.961 . S
H471 C457 0.958 . S
H472 C457 0.961 . S
H473 C457 0.960 . S
C474 C475 1.391 . S
C474 C476 1.394 . S
C474 H490 0.931 . S
C475 C474 1.391 . S
C475 C479 1.376 . S
C476 C474 1.394 . S
C476 C477 1.369 . S
C476 C480 1.531 . S
C477 C476 1.369 . S
C477 C478 1.410 . S
C477 C485 1.503 . S
C478 C477 1.410 . S
C478 C479 1.392 . S
C478 C481 1.511 . S
C479 C475 1.376 . S
C479 C478 1.392 . S
C479 H491 0.929 . S
C480 C476 1.531 . S
C480 H492 0.960 . S
C480 H493 0.962 . S
C480 H494 0.960 . S
C481 C478 1.511 . S
C481 H495 0.961 . S
C481 H496 0.961 . S
C481 H497 0.961 . S
C482 C483 1.370 . S
C482 C484 1.363 . S
C482 H498 0.931 . S
C483 C482 1.370 . S
C483 C487 1.408 . S
C484 C482 1.363 . S
C484 C485 1.370 . S
C484 C488 1.524 . S
C485 C477 1.503 . S
C485 C484 1.370 . S
C485 C486 1.403 . S
C486 C485 1.403 . S
C486 C487 1.404 . S
C486 C489 1.539 . S
C487 C483 1.408 . S
C487 C486 1.404 . S
C487 H499 0.930 . S
C488 C484 1.524 . S
C488 H500 0.956 . S
C488 H501 0.961 . S
C488 H502 0.961 . S
C489 C486 1.539 . S
C489 H503 0.958 . S
C489 H504 0.961 . S
C489 H505 0.960 . S
H490 C474 0.931 . S
H491 C479 0.929 . S
H492 C480 0.960 . S
H493 C480 0.962 . S
H494 C480 0.960 . S
H495 C481 0.961 . S
H496 C481 0.961 . S
H497 C481 0.961 . S
H498 C482 0.931 . S
H499 C487 0.930 . S
H500 C488 0.956 . S
H501 C488 0.961 . S
H502 C488 0.961 . S
H503 C489 0.958 . S
H504 C489 0.961 . S
H505 C489 0.960 . S
C506 C507 1.391 . S
C506 C508 1.394 . S
C506 H522 0.931 . S
C507 C506 1.391 . S
C507 C511 1.376 . S
C508 C506 1.394 . S
C508 C509 1.369 . S
C508 C512 1.531 . S
C509 C508 1.369 . S
C509 C510 1.410 . S
C509 C517 1.503 . S
C510 C509 1.410 . S
C510 C511 1.392 . S
C510 C513 1.511 . S
C511 C507 1.376 . S
C511 C510 1.392 . S
C511 H523 0.929 . S
C512 C508 1.531 . S
C512 H524 0.960 . S
C512 H525 0.962 . S
C512 H526 0.960 . S
C513 C510 1.511 . S
C513 H527 0.961 . S
C513 H528 0.961 . S
C513 H529 0.961 . S
C514 C515 1.370 . S
C514 C516 1.363 . S
C514 H530 0.931 . S
C515 C514 1.370 . S
C515 C519 1.408 . S
C516 C514 1.363 . S
C516 C517 1.370 . S
C516 C520 1.524 . S
C517 C509 1.503 . S
C517 C516 1.370 . S
C517 C518 1.403 . S
C518 C517 1.403 . S
C518 C519 1.404 . S
C518 C521 1.539 . S
C519 C515 1.408 . S
C519 C518 1.404 . S
C519 H531 0.930 . S
C520 C516 1.524 . S
C520 H532 0.956 . S
C520 H533 0.961 . S
C520 H534 0.961 . S
C521 C518 1.539 . S
C521 H535 0.958 . S
C521 H536 0.961 . S
C521 H537 0.960 . S
H522 C506 0.931 . S
H523 C511 0.929 . S
H524 C512 0.960 . S
H525 C512 0.962 . S
H526 C512 0.960 . S
H527 C513 0.961 . S
H528 C513 0.961 . S
H529 C513 0.961 . S
H530 C514 0.931 . S
H531 C519 0.930 . S
H532 C520 0.956 . S
H533 C520 0.961 . S
H534 C520 0.961 . S
H535 C521 0.958 . S
H536 C521 0.961 . S
H537 C521 0.960 . S
C538 C539 1.391 . S
C538 C540 1.394 . S
C538 H554 0.931 . S
C539 C538 1.391 . S
C539 C543 1.376 . S
C540 C538 1.394 . S
C540 C541 1.369 . S
C540 C544 1.531 . S
C541 C540 1.369 . S
C541 C542 1.410 . S
C541 C549 1.503 . S
C542 C541 1.410 . S
C542 C543 1.392 . S
C542 C545 1.511 . S
C543 C539 1.376 . S
C543 C542 1.392 . S
C543 H555 0.929 . S
C544 C540 1.531 . S
C544 H556 0.960 . S
C544 H557 0.962 . S
C544 H558 0.960 . S
C545 C542 1.511 . S
C545 H559 0.961 . S
C545 H560 0.961 . S
C545 H561 0.961 . S
C546 C547 1.370 . S
C546 C548 1.363 . S
C546 H562 0.931 . S
C547 C546 1.370 . S
C547 C551 1.408 . S
C548 C546 1.363 . S
C548 C549 1.370 . S
C548 C552 1.524 . S
C549 C541 1.503 . S
C549 C548 1.370 . S
C549 C550 1.403 . S
C550 C549 1.403 . S
C550 C551 1.404 . S
C550 C553 1.539 . S
C551 C547 1.408 . S
C551 C550 1.404 . S
C551 H563 0.930 . S
C552 C548 1.524 . S
C552 H564 0.956 . S
C552 H565 0.961 . S
C552 H566 0.961 . S
C553 C550 1.539 . S
C553 H567 0.958 . S
C553 H568 0.961 . S
C553 H569 0.960 . S
H554 C538 0.931 . S
H555 C543 0.929 . S
H556 C544 0.960 . S
H557 C544 0.962 . S
H558 C544 0.960 . S
H559 C545 0.961 . S
H560 C545 0.961 . S
H561 C545 0.961 . S
H562 C546 0.931 . S
H563 C551 0.930 . S
H564 C552 0.956 . S
H565 C552 0.961 . S
H566 C552 0.961 . S
H567 C553 0.958 . S
H568 C553 0.961 . S
H569 C553 0.960 . S
C570 C571 1.391 . S
C570 C572 1.394 . S
C570 H586 0.931 . S
C571 C570 1.391 . S
C571 C575 1.376 . S
C572 C570 1.394 . S
C572 C573 1.369 . S
C572 C576 1.531 . S
C573 C572 1.369 . S
C573 C574 1.410 . S
C573 C581 1.503 1_554 S
C574 C573 1.410 . S
C574 C575 1.392 . S
C574 C577 1.511 . S
C575 C571 1.376 . S
C575 C574 1.392 . S
C575 H587 0.929 . S
C576 C572 1.531 . S
C576 H588 0.960 . S
C576 H589 0.962 . S
C576 H590 0.960 . S
C577 C574 1.511 . S
C577 H591 0.961 . S
C577 H592 0.961 . S
C577 H593 0.961 . S
C578 C579 1.370 . S
C578 C580 1.363 . S
C578 H594 0.931 1_455 S
C579 C578 1.370 . S
C579 C583 1.408 . S
C580 C578 1.363 . S
C580 C581 1.370 . S
C580 C584 1.524 1_455 S
C581 C573 1.503 1_556 S
C581 C580 1.370 . S
C581 C582 1.403 . S
C582 C581 1.403 . S
C582 C583 1.404 . S
C582 C585 1.539 1_556 S
C583 C579 1.408 . S
C583 C582 1.404 . S
C583 H595 0.930 . S
C584 C580 1.524 1_655 S
C584 H596 0.960 . S
C584 H597 0.961 1_556 S
C584 H598 0.961 . S
C585 C582 1.539 1_554 S
C585 H599 0.958 . S
C585 H600 0.961 1_554 S
C585 H601 0.960 . S
H586 C570 0.931 . S
H587 C575 0.929 . S
H588 C576 0.960 . S
H589 C576 0.962 . S
H590 C576 0.960 . S
H591 C577 0.961 . S
H592 C577 0.961 . S
H593 C577 0.961 . S
H594 C578 0.931 1_655 S
H595 C583 0.930 . S
H596 C584 0.960 . S
H597 C584 0.961 1_554 S
H598 C584 0.961 . S
H599 C585 0.958 . S
H600 C585 0.961 1_556 S
H601 C585 0.960 . S
C602 C603 1.391 1_565 S
C602 C604 1.394 . S
C602 H618 0.931 . S
C603 C602 1.391 1_545 S
C603 C607 1.376 . S
C604 C602 1.394 . S
C604 C605 1.369 1_565 S
C604 C608 1.531 . S
C605 C604 1.369 1_545 S
C605 C606 1.410 . S
C605 C613 1.503 . S
C606 C605 1.410 . S
C606 C607 1.392 . S
C606 C609 1.511 . S
C607 C603 1.376 . S
C607 C606 1.392 . S
C607 H619 0.929 . S
C608 C604 1.531 . S
C608 H620 0.960 . S
C608 H621 0.962 . S
C608 H622 0.960 . S
C609 C606 1.511 . S
C609 H623 0.961 . S
C609 H624 0.961 . S
C609 H625 0.961 . S
C610 C611 1.370 . S
C610 C612 1.363 . S
C610 H626 0.931 . S
C611 C610 1.370 . S
C611 C615 1.408 . S
C612 C610 1.363 . S
C612 C613 1.370 . S
C612 C616 1.524 . S
C613 C605 1.503 . S
C613 C612 1.370 . S
C613 C614 1.403 . S
C614 C613 1.403 . S
C614 C615 1.404 . S
C614 C617 1.539 . S
C615 C611 1.408 . S
C615 C614 1.404 . S
C615 H627 0.930 . S
C616 C612 1.524 . S
C616 H628 0.956 . S
C616 H629 0.961 . S
C616 H630 0.961 . S
C617 C614 1.539 . S
C617 H631 0.958 1_545 S
C617 H632 0.961 . S
C617 H633 0.960 . S
H618 C602 0.931 . S
H619 C607 0.929 . S
H620 C608 0.960 . S
H621 C608 0.962 . S
H622 C608 0.960 . S
H623 C609 0.961 . S
H624 C609 0.961 . S
H625 C609 0.961 . S
H626 C610 0.931 . S
H627 C615 0.930 . S
H628 C616 0.956 . S
H629 C616 0.961 . S
H630 C616 0.961 . S
H631 C617 0.958 1_565 S
H632 C617 0.961 . S
H633 C617 0.960 . S
C634 C635 1.391 . S
C634 C636 1.394 . S
C634 H650 0.931 . S
C635 C634 1.391 . S
C635 C639 1.376 . S
C636 C634 1.394 . S
C636 C637 1.369 . S
C636 C640 1.531 . S
C637 C636 1.369 . S
C637 C638 1.410 . S
C637 C645 1.503 . S
C638 C637 1.410 . S
C638 C639 1.392 . S
C638 C641 1.511 . S
C639 C635 1.376 . S
C639 C638 1.392 . S
C639 H651 0.929 . S
C640 C636 1.531 . S
C640 H652 0.960 . S
C640 H653 0.962 . S
C640 H654 0.960 . S
C641 C638 1.511 . S
C641 H655 0.961 . S
C641 H656 0.961 . S
C641 H657 0.961 . S
C642 C643 1.370 . S
C642 C644 1.363 . S
C642 H658 0.931 . S
C643 C642 1.370 . S
C643 C647 1.408 . S
C644 C642 1.363 . S
C644 C645 1.370 . S
C644 C648 1.524 . S
C645 C637 1.503 . S
C645 C644 1.370 . S
C645 C646 1.403 . S
C646 C645 1.403 . S
C646 C647 1.404 . S
C646 C649 1.539 . S
C647 C643 1.408 . S
C647 C646 1.404 . S
C647 H659 0.930 . S
C648 C644 1.524 . S
C648 H660 0.956 . S
C648 H661 0.961 . S
C648 H662 0.961 . S
C649 C646 1.539 . S
C649 H663 0.958 . S
C649 H664 0.961 . S
C649 H665 0.960 . S
H650 C634 0.931 . S
H651 C639 0.929 . S
H652 C640 0.960 . S
H653 C640 0.962 . S
H654 C640 0.960 . S
H655 C641 0.961 . S
H656 C641 0.961 . S
H657 C641 0.961 . S
H658 C642 0.931 . S
H659 C647 0.930 . S
H660 C648 0.956 . S
H661 C648 0.961 . S
H662 C648 0.961 . S
H663 C649 0.958 . S
H664 C649 0.961 . S
H665 C649 0.960 . S
C666 C667 1.391 . S
C666 C668 1.394 . S
C666 H682 0.931 . S
C667 C666 1.391 . S
C667 C671 1.376 . S
C668 C666 1.394 . S
C668 C669 1.369 . S
C668 C672 1.531 . S
C669 C668 1.369 . S
C669 C670 1.410 . S
C669 C677 1.503 . S
C670 C669 1.410 . S
C670 C671 1.392 . S
C670 C673 1.511 . S
C671 C667 1.376 . S
C671 C670 1.392 . S
C671 H683 0.929 . S
C672 C668 1.531 . S
C672 H684 0.960 . S
C672 H685 0.962 . S
C672 H686 0.960 . S
C673 C670 1.511 . S
C673 H687 0.961 1_545 S
C673 H688 0.961 . S
C673 H689 0.961 . S
C674 C675 1.370 1_565 S
C674 C676 1.355 1_565 S
C674 H690 0.931 . S
C675 C674 1.370 1_545 S
C675 C679 1.408 . S
C676 C674 1.355 1_545 S
C676 C677 1.397 . S
C676 C680 1.505 1_545 S
C677 C669 1.503 . S
C677 C676 1.397 . S
C677 C678 1.403 . S
C678 C677 1.403 . S
C678 C679 1.404 . S
C678 C681 1.539 . S
C679 C675 1.408 . S
C679 C678 1.404 . S
C679 H691 0.930 . S
C680 C676 1.505 1_565 S
C680 H692 0.956 . S
C680 H693 0.961 . S
C680 H694 0.961 . S
C681 C678 1.539 . S
C681 H695 0.958 . S
C681 H696 0.961 . S
C681 H697 0.960 . S
H682 C666 0.931 . S
H683 C671 0.929 . S
H684 C672 0.960 . S
H685 C672 0.962 . S
H686 C672 0.960 . S
H687 C673 0.961 1_565 S
H688 C673 0.961 . S
H689 C673 0.961 . S
H690 C674 0.931 . S
H691 C679 0.930 . S
H692 C680 0.956 . S
H693 C680 0.961 . S
H694 C680 0.961 . S
H695 C681 0.958 . S
H696 C681 0.961 . S
H697 C681 0.960 . S
C698 C699 1.391 . S
C698 C700 1.394 . S
C698 H714 0.931 . S
C699 C698 1.391 . S
C699 C703 1.376 . S
C700 C698 1.394 . S
C700 C701 1.369 . S
C700 C704 1.531 . S
C701 C700 1.369 . S
C701 C702 1.410 . S
C701 C709 1.503 . S
C702 C701 1.410 . S
C702 C703 1.392 . S
C702 C705 1.511 . S
C703 C699 1.376 . S
C703 C702 1.392 . S
C703 H715 0.929 . S
C704 C700 1.531 . S
C704 H716 0.960 . S
C704 H717 0.962 . S
C704 H718 0.960 . S
C705 C702 1.511 . S
C705 H719 0.961 . S
C705 H720 0.961 . S
C705 H721 0.961 . S
C706 C707 1.370 . S
C706 C708 1.367 1_554 S
C706 H722 0.931 . S
C707 C706 1.370 . S
C707 C711 1.408 . S
C708 C706 1.367 1_556 S
C708 C709 1.369 . S
C708 C712 1.522 . S
C709 C701 1.503 . S
C709 C708 1.369 . S
C709 C710 1.403 1_556 S
C710 C709 1.403 1_554 S
C710 C711 1.404 . S
C710 C713 1.545 . S
C711 C707 1.408 . S
C711 C710 1.404 . S
C711 H723 0.930 . S
C712 C708 1.522 . S
C712 H724 0.956 . S
C712 H725 0.961 . S
C712 H726 0.961 . S
C713 C710 1.545 . S
C713 H727 0.959 . S
C713 H728 0.969 . S
C713 H729 0.945 1_554 S
H714 C698 0.931 . S
H715 C703 0.929 . S
H716 C704 0.960 . S
H717 C704 0.962 . S
H718 C704 0.960 . S
H719 C705 0.961 . S
H720 C705 0.961 . S
H721 C705 0.961 . S
H722 C706 0.931 . S
H723 C711 0.930 . S
H724 C712 0.956 . S
H725 C712 0.961 . S
H726 C712 0.961 . S
H727 C713 0.959 . S
H728 C713 0.969 . S
H729 C713 0.945 1_556 S
C730 C731 1.391 . S
C730 C732 1.394 . S
C730 H746 0.931 . S
C731 C730 1.391 . S
C731 C735 1.376 . S
C732 C730 1.394 . S
C732 C733 1.369 . S
C732 C736 1.531 . S
C733 C732 1.369 . S
C733 C734 1.410 . S
C733 C741 1.503 . S
C734 C733 1.410 . S
C734 C735 1.392 . S
C734 C737 1.511 . S
C735 C731 1.376 . S
C735 C734 1.392 . S
C735 H747 0.929 . S
C736 C732 1.531 . S
C736 H748 0.960 1_455 S
C736 H749 0.962 . S
C736 H750 0.960 1_455 S
C737 C734 1.511 . S
C737 H751 0.961 . S
C737 H752 0.961 . S
C737 H753 0.961 1_455 S
C738 C739 1.370 . S
C738 C740 1.363 . S
C738 H754 0.931 . S
C739 C738 1.370 . S
C739 C743 1.408 1_455 S
C740 C738 1.363 . S
C740 C741 1.370 . S
C740 C744 1.524 . S
C741 C733 1.503 . S
C741 C740 1.370 . S
C741 C742 1.403 1_455 S
C742 C741 1.403 1_655 S
C742 C743 1.404 . S
C742 C745 1.539 . S
C743 C739 1.408 1_655 S
C743 C742 1.404 . S
C743 H755 0.930 . S
C744 C740 1.524 . S
C744 H756 0.956 . S
C744 H757 0.961 . S
C744 H758 0.961 . S
C745 C742 1.539 . S
C745 H759 0.958 . S
C745 H760 0.961 . S
C745 H761 0.960 . S
H746 C730 0.931 . S
H747 C735 0.929 . S
H748 C736 0.960 1_655 S
H749 C736 0.962 . S
H750 C736 0.960 1_655 S
H751 C737 0.961 . S
H752 C737 0.961 . S
H753 C737 0.961 1_655 S
H754 C738 0.931 . S
H755 C743 0.930 . S
H756 C744 0.956 . S
H757 C744 0.961 . S
H758 C744 0.961 . S
H759 C745 0.958 . S
H760 C745 0.961 . S
H761 C745 0.960 . S
C187 C6 0.647 . S
C195 C185 0.737 . S
C219 C59 1.945 . S
C227 C163 1.886 . S
C251 C86 1.294 . S
C259 C174 1.286 . S
C283 C15 0.234 . S
C291 C179 0.189 . S
C323 C157 1.846 . S
C315 C50 1.872 . S
C355 C168 1.152 . S
C347 C95 1.146 . S
C379 C46 1.314 . S
C387 C141 1.298 . S
C411 C99 3.033 . S
C419 C146 3.015 1_655 S
C443 C10 1.875 . S
C451 C124 1.877 . S
C483 C135 1.155 . S
C475 C55 1.162 . S
C515 C152 3.023 . S
C507 C90 3.042 . S
C539 C19 1.928 . S
C547 C130 1.922 . S
C579 C147 1.736 . S
C571 C18 1.695 . S
C603 C49 1.432 . S
C611 C125 1.466 . S
C635 C98 1.495 . S
C643 C136 1.545 . S
C675 C169 1.512 . S
C667 C58 1.484 . S
C707 C180 1.257 . S
C699 C89 1.195 . S
C731 C9 1.384 . S
C739 C158 1.440 . S
