# Generated by pormake.
# Topology ptr, (4,4)-cn, num edge types: 1
# Building blocks:
#     Node 0, Type 0, BuildingBlock: NAHDIM_clean_sbu_0, # of connection points: 4
#     Node 1, Type 0, BuildingBlock: NAHDIM_clean_sbu_0, # of connection points: 4
#     Node 2, Type 0, BuildingBlock: NAHDIM_clean_sbu_0, # of connection points: 4
#     Node 3, Type 0, BuildingBlock: NAHDIM_clean_sbu_0, # of connection points: 4
#     Node 4, Type 0, BuildingBlock: NAHDIM_clean_sbu_0, # of connection points: 4
#     Node 5, Type 0, BuildingBlock: NAHDIM_clean_sbu_0, # of connection points: 4
#     Node 6, Type 0, BuildingBlock: NAHDIM_clean_sbu_0, # of connection points: 4
#     Node 7, Type 0, BuildingBlock: NAHDIM_clean_sbu_0, # of connection points: 4
#     Node 8, Type 0, BuildingBlock: NAHDIM_clean_sbu_0, # of connection points: 4
#     Node 9, Type 0, BuildingBlock: NAHDIM_clean_sbu_0, # of connection points: 4
#     Node 10, Type 0, BuildingBlock: NAHDIM_clean_sbu_0, # of connection points: 4
#     Node 11, Type 0, BuildingBlock: NAHDIM_clean_sbu_0, # of connection points: 4
#     Node 12, Type 0, BuildingBlock: NAHDIM_clean_sbu_0, # of connection points: 4
#     Node 13, Type 0, BuildingBlock: NAHDIM_clean_sbu_0, # of connection points: 4
#     Node 14, Type 0, BuildingBlock: NAHDIM_clean_sbu_0, # of connection points: 4
#     Node 15, Type 0, BuildingBlock: NAHDIM_clean_sbu_0, # of connection points: 4
#     Node 16, Type 0, BuildingBlock: NAHDIM_clean_sbu_0, # of connection points: 4
#     Node 17, Type 0, BuildingBlock: NAHDIM_clean_sbu_0, # of connection points: 4
#     Node 18, Type 1, BuildingBlock: MIFKUJ_clean_linker_1, # of connection points: 4
#     Node 19, Type 1, BuildingBlock: MIFKUJ_clean_linker_1, # of connection points: 4
#     Node 20, Type 1, BuildingBlock: MIFKUJ_clean_linker_1, # of connection points: 4
#     Node 21, Type 1, BuildingBlock: MIFKUJ_clean_linker_1, # of connection points: 4
#     Node 22, Type 1, BuildingBlock: MIFKUJ_clean_linker_1, # of connection points: 4
#     Node 23, Type 1, BuildingBlock: MIFKUJ_clean_linker_1, # of connection points: 4
#     Node 24, Type 1, BuildingBlock: MIFKUJ_clean_linker_1, # of connection points: 4
#     Node 25, Type 1, BuildingBlock: MIFKUJ_clean_linker_1, # of connection points: 4
#     Node 26, Type 1, BuildingBlock: MIFKUJ_clean_linker_1, # of connection points: 4
#     Node 27, Type 1, BuildingBlock: MIFKUJ_clean_linker_1, # of connection points: 4
#     Node 28, Type 1, BuildingBlock: MIFKUJ_clean_linker_1, # of connection points: 4
#     Node 29, Type 1, BuildingBlock: MIFKUJ_clean_linker_1, # of connection points: 4
#     Node 30, Type 1, BuildingBlock: MIFKUJ_clean_linker_1, # of connection points: 4
#     Node 31, Type 1, BuildingBlock: MIFKUJ_clean_linker_1, # of connection points: 4
#     Node 32, Type 1, BuildingBlock: MIFKUJ_clean_linker_1, # of connection points: 4
#     Node 33, Type 1, BuildingBlock: MIFKUJ_clean_linker_1, # of connection points: 4
#     Node 34, Type 1, BuildingBlock: MIFKUJ_clean_linker_1, # of connection points: 4
#     Node 35, Type 1, BuildingBlock: MIFKUJ_clean_linker_1, # of connection points: 4
#     Edge 36, Type (0, 1), BuildingBlock: AJUNOK_clean_linker_0, # of connection points: 2
#     Edge 37, Type (0, 1), BuildingBlock: AJUNOK_clean_linker_0, # of connection points: 2
#     Edge 38, Type (0, 1), BuildingBlock: AJUNOK_clean_linker_0, # of connection points: 2
#     Edge 39, Type (0, 1), BuildingBlock: AJUNOK_clean_linker_0, # of connection points: 2
#     Edge 40, Type (0, 1), BuildingBlock: AJUNOK_clean_linker_0, # of connection points: 2
#     Edge 41, Type (0, 1), BuildingBlock: AJUNOK_clean_linker_0, # of connection points: 2
#     Edge 42, Type (0, 1), BuildingBlock: AJUNOK_clean_linker_0, # of connection points: 2
#     Edge 43, Type (0, 1), BuildingBlock: AJUNOK_clean_linker_0, # of connection points: 2
#     Edge 44, Type (0, 1), BuildingBlock: AJUNOK_clean_linker_0, # of connection points: 2
#     Edge 45, Type (0, 1), BuildingBlock: AJUNOK_clean_linker_0, # of connection points: 2
#     Edge 46, Type (0, 1), BuildingBlock: AJUNOK_clean_linker_0, # of connection points: 2
#     Edge 47, Type (0, 1), BuildingBlock: AJUNOK_clean_linker_0, # of connection points: 2
#     Edge 48, Type (0, 1), BuildingBlock: AJUNOK_clean_linker_0, # of connection points: 2
#     Edge 49, Type (0, 1), BuildingBlock: AJUNOK_clean_linker_0, # of connection points: 2
#     Edge 50, Type (0, 1), BuildingBlock: AJUNOK_clean_linker_0, # of connection points: 2
#     Edge 51, Type (0, 1), BuildingBlock: AJUNOK_clean_linker_0, # of connection points: 2
#     Edge 52, Type (0, 1), BuildingBlock: AJUNOK_clean_linker_0, # of connection points: 2
#     Edge 53, Type (0, 1), BuildingBlock: AJUNOK_clean_linker_0, # of connection points: 2
#     Edge 54, Type (0, 1), BuildingBlock: AJUNOK_clean_linker_0, # of connection points: 2
#     Edge 55, Type (0, 1), BuildingBlock: AJUNOK_clean_linker_0, # of connection points: 2
#     Edge 56, Type (0, 1), BuildingBlock: AJUNOK_clean_linker_0, # of connection points: 2
#     Edge 57, Type (0, 1), BuildingBlock: AJUNOK_clean_linker_0, # of connection points: 2
#     Edge 58, Type (0, 1), BuildingBlock: AJUNOK_clean_linker_0, # of connection points: 2
#     Edge 59, Type (0, 1), BuildingBlock: AJUNOK_clean_linker_0, # of connection points: 2
#     Edge 60, Type (0, 1), BuildingBlock: AJUNOK_clean_linker_0, # of connection points: 2
#     Edge 61, Type (0, 1), BuildingBlock: AJUNOK_clean_linker_0, # of connection points: 2
#     Edge 62, Type (0, 1), BuildingBlock: AJUNOK_clean_linker_0, # of connection points: 2
#     Edge 63, Type (0, 1), BuildingBlock: AJUNOK_clean_linker_0, # of connection points: 2
#     Edge 64, Type (0, 1), BuildingBlock: AJUNOK_clean_linker_0, # of connection points: 2
#     Edge 65, Type (0, 1), BuildingBlock: AJUNOK_clean_linker_0, # of connection points: 2
#     Edge 66, Type (0, 1), BuildingBlock: AJUNOK_clean_linker_0, # of connection points: 2
#     Edge 67, Type (0, 1), BuildingBlock: AJUNOK_clean_linker_0, # of connection points: 2
#     Edge 68, Type (0, 1), BuildingBlock: AJUNOK_clean_linker_0, # of connection points: 2
#     Edge 69, Type (0, 1), BuildingBlock: AJUNOK_clean_linker_0, # of connection points: 2
#     Edge 70, Type (0, 1), BuildingBlock: AJUNOK_clean_linker_0, # of connection points: 2
#     Edge 71, Type (0, 1), BuildingBlock: AJUNOK_clean_linker_0, # of connection points: 2
#     Edge 72, Type (0, 1), BuildingBlock: AJUNOK_clean_linker_0, # of connection points: 2
#     Edge 73, Type (0, 1), BuildingBlock: AJUNOK_clean_linker_0, # of connection points: 2
#     Edge 74, Type (0, 1), BuildingBlock: AJUNOK_clean_linker_0, # of connection points: 2
#     Edge 75, Type (0, 1), BuildingBlock: AJUNOK_clean_linker_0, # of connection points: 2
#     Edge 76, Type (0, 1), BuildingBlock: AJUNOK_clean_linker_0, # of connection points: 2
#     Edge 77, Type (0, 1), BuildingBlock: AJUNOK_clean_linker_0, # of connection points: 2
#     Edge 78, Type (0, 1), BuildingBlock: AJUNOK_clean_linker_0, # of connection points: 2
#     Edge 79, Type (0, 1), BuildingBlock: AJUNOK_clean_linker_0, # of connection points: 2
#     Edge 80, Type (0, 1), BuildingBlock: AJUNOK_clean_linker_0, # of connection points: 2
#     Edge 81, Type (0, 1), BuildingBlock: AJUNOK_clean_linker_0, # of connection points: 2
#     Edge 82, Type (0, 1), BuildingBlock: AJUNOK_clean_linker_0, # of connection points: 2
#     Edge 83, Type (0, 1), BuildingBlock: AJUNOK_clean_linker_0, # of connection points: 2
#     Edge 84, Type (0, 1), BuildingBlock: AJUNOK_clean_linker_0, # of connection points: 2
#     Edge 85, Type (0, 1), BuildingBlock: AJUNOK_clean_linker_0, # of connection points: 2
#     Edge 86, Type (0, 1), BuildingBlock: AJUNOK_clean_linker_0, # of connection points: 2
#     Edge 87, Type (0, 1), BuildingBlock: AJUNOK_clean_linker_0, # of connection points: 2
#     Edge 88, Type (0, 1), BuildingBlock: AJUNOK_clean_linker_0, # of connection points: 2
#     Edge 89, Type (0, 1), BuildingBlock: AJUNOK_clean_linker_0, # of connection points: 2
#     Edge 90, Type (0, 1), BuildingBlock: AJUNOK_clean_linker_0, # of connection points: 2
#     Edge 91, Type (0, 1), BuildingBlock: AJUNOK_clean_linker_0, # of connection points: 2
#     Edge 92, Type (0, 1), BuildingBlock: AJUNOK_clean_linker_0, # of connection points: 2
#     Edge 93, Type (0, 1), BuildingBlock: AJUNOK_clean_linker_0, # of connection points: 2
#     Edge 94, Type (0, 1), BuildingBlock: AJUNOK_clean_linker_0, # of connection points: 2
#     Edge 95, Type (0, 1), BuildingBlock: AJUNOK_clean_linker_0, # of connection points: 2
#     Edge 96, Type (0, 1), BuildingBlock: AJUNOK_clean_linker_0, # of connection points: 2
#     Edge 97, Type (0, 1), BuildingBlock: AJUNOK_clean_linker_0, # of connection points: 2
#     Edge 98, Type (0, 1), BuildingBlock: AJUNOK_clean_linker_0, # of connection points: 2
#     Edge 99, Type (0, 1), BuildingBlock: AJUNOK_clean_linker_0, # of connection points: 2
#     Edge 100, Type (0, 1), BuildingBlock: AJUNOK_clean_linker_0, # of connection points: 2
#     Edge 101, Type (0, 1), BuildingBlock: AJUNOK_clean_linker_0, # of connection points: 2
#     Edge 102, Type (0, 1), BuildingBlock: AJUNOK_clean_linker_0, # of connection points: 2
#     Edge 103, Type (0, 1), BuildingBlock: AJUNOK_clean_linker_0, # of connection points: 2
#     Edge 104, Type (0, 1), BuildingBlock: AJUNOK_clean_linker_0, # of connection points: 2
#     Edge 105, Type (0, 1), BuildingBlock: AJUNOK_clean_linker_0, # of connection points: 2
#     Edge 106, Type (0, 1), BuildingBlock: AJUNOK_clean_linker_0, # of connection points: 2
#     Edge 107, Type (0, 1), BuildingBlock: AJUNOK_clean_linker_0, # of connection points: 2
# Relax obj value: 0.072
# Max RMSD: 0.247
# Mean RMSD: 0.110
data_MOF--net-ptr--node1-NAHDIM_clean_sbu_0--node2-MIFKUJ_clean_linker_1--edge1-AJUNOK_clean_linker_0
_symmetry_space_group_name_H-M    P1
_symmetry_Int_Tables_number       1
_symmetry_cell_setting            triclinic
loop_
_symmetry_equiv_pos_as_xyz
'x, y, z'
_cell_length_a     71.629723
_cell_length_b     70.219413
_cell_length_c     47.380224
_cell_angle_alpha  91.915178
_cell_angle_beta   89.098545
_cell_angle_gamma 121.89697
loop_
_atom_site_label
_atom_site_type_symbol
_atom_site_fract_x
_atom_site_fract_y
_atom_site_fract_z
_atom_type_partial_charge
C0 C 0.03014 0.33943 0.04457 0.0
O1 O 0.00996 0.32904 0.05434 0.0
O2 O 0.98591 0.32592 0.99534 0.0
Zn3 Zn 0.01035 0.35602 0.01065 0.0
O4 O 0.00187 0.36937 0.04305 0.0
C5 C 0.00332 0.37766 0.96775 0.0
O6 O 0.98355 0.36442 0.97806 0.0
O7 O 0.03512 0.35279 0.02438 0.0
C8 C 0.98313 0.36589 0.05002 0.0
O9 O 0.96561 0.35107 0.03559 0.0
C10 C 0.96974 0.30952 0.00751 0.0
O11 O 0.96693 0.31097 0.03478 0.0
O12 O 0.01935 0.37738 0.97849 0.0
C13 C 0.69188 0.66439 0.98222 0.0
O14 O 0.68552 0.6783 0.97662 0.0
O15 O 0.6596 0.67567 0.02705 0.0
Zn16 Zn 0.65193 0.64547 0.01121 0.0
O17 O 0.6315 0.63541 0.97762 0.0
C18 C 0.62517 0.62608 0.05927 0.0
O19 O 0.62415 0.64411 0.05729 0.0
O20 O 0.67984 0.64791 0.99787 0.0
C21 C 0.61169 0.6304 0.97942 0.0
O22 O 0.60429 0.63298 0.00385 0.0
C23 C 0.6557 0.68926 0.01545 0.0
O24 O 0.64604 0.6839 0.99063 0.0
O25 O 0.63709 0.62288 0.04198 0.0
C26 C 0.33784 0.04204 0.00353 0.0
O27 O 0.32342 0.0287 0.02211 0.0
O28 O 0.3291 0.99219 0.03048 0.0
Zn29 Zn 0.3577 0.01601 0.01374 0.0
O30 O 0.36696 0.00319 0.98184 0.0
C31 C 0.37718 0.02317 0.06938 0.0
O32 O 0.35656 0.01258 0.07752 0.0
O33 O 0.35431 0.04032 0.99785 0.0
C34 C 0.37531 0.99168 0.98753 0.0
O35 O 0.37586 0.98696 0.01398 0.0
C36 C 0.31217 0.97868 0.01595 0.0
O37 O 0.31326 0.9796 0.98829 0.0
O38 O 0.38156 0.02772 0.04345 0.0
C39 C 0.96756 0.66114 0.974 0.0
O40 O 0.9871 0.66896 0.9628 0.0
O41 O 0.01272 0.68154 0.02207 0.0
Zn42 Zn 0.98892 0.64967 0.01116 0.0
O43 O 0.99679 0.63578 0.97863 0.0
C44 C 0.99798 0.633 0.05921 0.0
O45 O 0.01748 0.65058 0.05403 0.0
O46 O 0.96332 0.65126 0.99739 0.0
C47 C 0.0112 0.63044 0.97825 0.0
O48 O 0.02393 0.63498 1.00027 0.0
C49 C 0.03311 0.69128 0.01662 0.0
O50 O 0.04066 0.68051 0.00214 0.0
O51 O 0.98169 0.62944 0.04445 0.0
C52 C 0.29646 0.33554 0.01769 0.0
O53 O 0.29627 0.31869 0.00454 0.0
O54 O 0.34052 0.33127 0.99093 0.0
Zn55 Zn 0.34362 0.35984 0.0064 0.0
O56 O 0.36483 0.37408 0.03907 0.0
C57 C 0.37457 0.38568 0.96634 0.0
O58 O 0.38328 0.37565 0.97863 0.0
O59 O 0.31441 0.35444 0.01983 0.0
C60 C 0.37832 0.36935 0.04872 0.0
O61 O 0.37914 0.35249 0.03739 0.0
C62 C 0.33609 0.31402 0.00438 0.0
O63 O 0.33345 0.31392 0.03188 0.0
O64 O 0.35596 0.38168 0.97489 0.0
C65 C 0.65927 0.97158 0.04506 0.0
O66 O 0.66747 0.99201 0.05569 0.0
O67 O 0.67311 0.01417 0.99179 0.0
Zn68 Zn 0.64408 0.9902 0.00754 0.0
O69 O 0.63475 0.00232 0.04036 0.0
C70 C 0.62309 0.97822 0.95133 0.0
O71 O 0.64254 0.98366 0.94168 0.0
O72 O 0.6479 0.96598 0.02253 0.0
C73 C 0.62333 0.01106 0.0369 0.0
O74 O 0.61864 0.01348 0.01108 0.0
C75 C 0.67503 0.02988 0.97702 0.0
O76 O 0.65756 0.03093 0.97247 0.0
O77 O 0.62031 0.97872 0.97786 0.0
C78 C 0.69452 0.67094 0.37067 0.0
O79 O 0.67337 0.65765 0.37531 0.0
O80 O 0.65305 0.66387 0.32345 0.0
Zn81 Zn 0.67766 0.69295 0.3407 0.0
O82 O 0.66673 0.70392 0.37298 0.0
C83 C 0.68688 0.71144 0.28471 0.0
O84 O 0.6776 0.69025 0.27674 0.0
O85 O 0.70099 0.68804 0.3557 0.0
C86 C 0.65523 0.71234 0.36792 0.0
O87 O 0.6498 0.71259 0.34164 0.0
C88 C 0.63487 0.65077 0.33553 0.0
O89 O 0.63131 0.65619 0.36096 0.0
O90 O 0.68957 0.71659 0.31095 0.0
C91 C 0.34848 0.98216 0.30944 0.0
O92 O 0.3346 0.9837 0.29334 0.0
O93 O 0.31947 0.00135 0.36542 0.0
Zn94 Zn 0.31463 0.97209 0.34962 0.0
O95 O 0.29245 0.95878 0.31787 0.0
C96 C 0.30647 0.95565 0.40673 0.0
O97 O 0.32017 0.9769 0.41356 0.0
O98 O 0.34346 0.97703 0.33511 0.0
C99 C 0.28341 0.96745 0.30501 0.0
O100 O 0.28816 0.9877 0.31259 0.0
C101 C 0.32936 0.01975 0.35259 0.0
O102 O 0.33634 0.02017 0.32669 0.0
O103 O 0.30251 0.9498 0.38075 0.0
C104 C 0.00292 0.37187 0.33231 0.0
O105 O 0.98648 0.35574 0.34627 0.0
O106 O 0.99746 0.32562 0.36668 0.0
Zn107 Zn 0.02482 0.34858 0.34682 0.0
O108 O 0.0323 0.33435 0.31473 0.0
C109 C 0.04751 0.36122 0.40093 0.0
O110 O 0.02785 0.35442 0.41104 0.0
O111 O 0.02099 0.37253 0.33076 0.0
C112 C 0.03951 0.3218 0.32029 0.0
O113 O 0.04015 0.31719 0.34677 0.0
C114 C 0.98142 0.30858 0.35444 0.0
O115 O 0.98252 0.30532 0.32715 0.0
O116 O 0.05011 0.36136 0.37431 0.0
C117 C 0.63174 0.99828 0.32953 0.0
O118 O 0.64607 0.01463 0.34632 0.0
O119 O 0.68115 0.00879 0.35823 0.0
Zn120 Zn 0.65736 0.97864 0.34252 0.0
O121 O 0.66982 0.96843 0.31133 0.0
C122 C 0.64633 0.95895 0.39895 0.0
O123 O 0.65342 0.97944 0.40857 0.0
O124 O 0.63301 0.981 0.32561 0.0
C125 C 0.67813 0.95684 0.31683 0.0
O126 O 0.67912 0.95233 0.34324 0.0
C127 C 0.69725 0.0112 0.37229 0.0
O128 O 0.69845 0.99351 0.37664 0.0
O129 O 0.64587 0.95526 0.37246 0.0
C130 C 0.97873 0.68103 0.37287 0.0
O131 O 0.99088 0.67532 0.38628 0.0
O132 O 0.00874 0.66615 0.31843 0.0
Zn133 Zn 0.01416 0.69523 0.33523 0.0
O134 O 0.03559 0.70627 0.36772 0.0
C135 C 0.04616 0.72162 0.29635 0.0
O136 O 0.05398 0.71044 0.30779 0.0
O137 O 0.98543 0.69054 0.34932 0.0
C138 C 0.04143 0.72552 0.37822 0.0
O139 O 0.03332 0.73662 0.36731 0.0
C140 C 0.01127 0.65216 0.33144 0.0
O141 O 0.0179 0.65657 0.35785 0.0
O142 O 0.02767 0.71803 0.30482 0.0
C143 C 0.33577 0.30209 0.35756 0.0
O144 O 0.35242 0.32119 0.34887 0.0
O145 O 0.33773 0.34607 0.32149 0.0
Zn146 Zn 0.31096 0.32173 0.3411 0.0
O147 O 0.30295 0.33452 0.37439 0.0
C148 C 0.28681 0.30926 0.28767 0.0
O149 O 0.30628 0.31723 0.27619 0.0
O150 O 0.3164 0.29833 0.35548 0.0
C151 C 0.29473 0.34633 0.36987 0.0
O152 O 0.293 0.35084 0.34368 0.0
C153 C 0.35243 0.36371 0.33449 0.0
O154 O 0.34998 0.36629 0.3616 0.0
O155 O 0.28512 0.30848 0.31441 0.0
C156 C 0.36576 0.01632 0.72078 0.0
O157 O 0.34922 0.01465 0.7353 0.0
O158 O 0.31792 0.99398 0.66493 0.0
Zn159 Zn 0.34317 0.02408 0.6786 0.0
O160 O 0.33486 0.03958 0.7083 0.0
C161 C 0.33757 0.0462 0.6359 0.0
O162 O 0.31821 0.0347 0.64798 0.0
O163 O 0.36712 0.0205 0.69463 0.0
C164 C 0.31641 0.0338 0.71941 0.0
O165 O 0.29889 0.0144 0.71213 0.0
C166 C 0.30587 0.97671 0.67936 0.0
O167 O 0.30908 0.97761 0.7067 0.0
O168 O 0.35307 0.04429 0.64518 0.0
C169 C 0.02834 0.33218 0.65097 0.0
O170 O 0.02263 0.34685 0.64686 0.0
O171 O 0.99377 0.34175 0.69222 0.0
Zn172 Zn 0.98715 0.31124 0.6787 0.0
O173 O 0.96597 0.29959 0.64561 0.0
C174 C 0.96267 0.2918 0.72955 0.0
O175 O 0.95952 0.30851 0.72771 0.0
O176 O 0.0155 0.31481 0.66486 0.0
C177 C 0.94527 0.28728 0.64887 0.0
O178 O 0.93736 0.28232 0.67456 0.0
C179 C 0.98028 0.34821 0.69062 0.0
O180 O 0.96066 0.33455 0.67975 0.0
O181 O 0.97441 0.28946 0.71099 0.0
C182 C 0.67415 0.69867 0.63862 0.0
O183 O 0.66581 0.6783 0.62774 0.0
O184 O 0.66037 0.6548 0.689 0.0
Zn185 Zn 0.68961 0.67961 0.67479 0.0
O186 O 0.70054 0.66956 0.64163 0.0
C187 C 0.71063 0.69176 0.73133 0.0
O188 O 0.69144 0.68699 0.74124 0.0
O189 O 0.68567 0.70407 0.66099 0.0
C190 C 0.69482 0.64973 0.63371 0.0
O191 O 0.67939 0.63266 0.64765 0.0
C192 C 0.65805 0.63964 0.70521 0.0
O193 O 0.67552 0.63943 0.71273 0.0
O194 O 0.71302 0.6905 0.70482 0.0
C195 C 0.30554 0.33136 0.6429 0.0
O196 O 0.32652 0.3458 0.63838 0.0
O197 O 0.3488 0.34183 0.68738 0.0
Zn198 Zn 0.32488 0.31161 0.67204 0.0
O199 O 0.3361 0.30173 0.63892 0.0
C200 C 0.31551 0.29186 0.72825 0.0
O201 O 0.32218 0.31226 0.73781 0.0
O202 O 0.30013 0.31449 0.65786 0.0
C203 C 0.34506 0.2905 0.64273 0.0
O204 O 0.34776 0.28632 0.66867 0.0
C205 C 0.36553 0.34504 0.70067 0.0
O206 O 0.3676 0.32786 0.70498 0.0
O207 O 0.31466 0.28809 0.70173 0.0
C208 C 0.63204 0.00476 0.68064 0.0
O209 O 0.6297 0.98851 0.66358 0.0
O210 O 0.67643 0.99677 0.65747 0.0
Zn211 Zn 0.67966 0.02562 0.67197 0.0
O212 O 0.7017 0.04004 0.70361 0.0
C213 C 0.70987 0.05048 0.6305 0.0
O214 O 0.71877 0.04046 0.64233 0.0
O215 O 0.65116 0.02149 0.68612 0.0
C216 C 0.71155 0.03199 0.71592 0.0
O217 O 0.7075 0.01205 0.70804 0.0
C218 C 0.66651 0.97778 0.66893 0.0
O219 O 0.65683 0.97551 0.69345 0.0
O220 O 0.69157 0.0468 0.63987 0.0
C221 C 0.99054 0.63774 0.70876 0.0
O222 O 0.99816 0.65779 0.72032 0.0
O223 O 0.00318 0.68185 0.6581 0.0
Zn224 Zn 0.97444 0.65637 0.67248 0.0
O225 O 0.9629 0.66596 0.70544 0.0
C226 C 0.95385 0.64504 0.61583 0.0
O227 O 0.97355 0.65164 0.606 0.0
O228 O 0.97931 0.63249 0.68614 0.0
C229 C 0.96996 0.68565 0.71541 0.0
O230 O 0.9874 0.70279 0.7042 0.0
C231 C 0.00456 0.69747 0.64364 0.0
O232 O 0.98659 0.69745 0.63845 0.0
O233 O 0.95099 0.64488 0.6424 0.0
H234 H 0.14454 0.33541 0.2205 0.0
H235 H 0.11872 0.33548 0.25467 0.0
H236 H 0.06427 0.28413 0.20504 0.0
H237 H 0.09024 0.28341 0.17104 0.0
H238 H 0.15151 0.3039 0.20949 0.0
H239 H 0.13117 0.34599 0.15163 0.0
H240 H 0.10645 0.35366 0.12592 0.0
H241 H 0.08037 0.29085 0.07913 0.0
H242 H 0.10523 0.28329 0.10471 0.0
H243 H 0.16654 0.28466 0.09318 0.0
H244 H 0.19673 0.2917 0.06144 0.0
H245 H 0.2427 0.34578 0.11732 0.0
H246 H 0.21244 0.3395 0.1481 0.0
H247 H 0.1521 0.31145 0.10585 0.0
H248 H 0.18417 0.27814 0.16066 0.0
H249 H 0.21198 0.2762 0.18809 0.0
H250 H 0.21972 0.33009 0.24322 0.0
H251 H 0.19249 0.33236 0.21573 0.0
C252 C 0.11939 0.30937 0.19318 0.0
C253 C 0.12706 0.32412 0.21686 0.0
C254 C 0.11235 0.32417 0.23637 0.0
C255 C 0.08964 0.30963 0.23251 0.0
C256 C 0.08178 0.29543 0.20836 0.0
C257 C 0.09658 0.29515 0.18891 0.0
C258 C 0.1355 0.30812 0.17433 0.0
C259 C 0.15179 0.30579 0.18682 0.0
C260 C 0.13545 0.30983 0.14471 0.0
C261 C 0.11985 0.31399 0.13021 0.0
C262 C 0.12004 0.33384 0.13594 0.0
C263 C 0.10612 0.3383 0.1211 0.0
C264 C 0.09172 0.32291 0.10044 0.0
C265 C 0.09138 0.30296 0.09495 0.0
C266 C 0.10551 0.29864 0.10952 0.0
C267 C 0.18724 0.31138 0.12319 0.0
C268 C 0.18313 0.29804 0.09856 0.0
C269 C 0.20037 0.30203 0.08051 0.0
C270 C 0.22201 0.31949 0.08672 0.0
C271 C 0.22613 0.33255 0.11164 0.0
C272 C 0.20888 0.3287 0.12953 0.0
C273 C 0.16875 0.30824 0.1412 0.0
C274 C 0.15179 0.30939 0.12849 0.0
C275 C 0.16867 0.30624 0.17084 0.0
C276 C 0.18615 0.30536 0.18616 0.0
C277 C 0.19204 0.2897 0.17845 0.0
C278 C 0.20782 0.28852 0.19414 0.0
C279 C 0.21763 0.30273 0.21798 0.0
C280 C 0.21203 0.31863 0.22528 0.0
C281 C 0.1965 0.31994 0.20954 0.0
H282 H 0.72894 0.89498 0.19835 0.0
H283 H 0.72806 0.92082 0.23372 0.0
H284 H 0.66102 0.89696 0.21023 0.0
H285 H 0.66197 0.8713 0.17496 0.0
H286 H 0.70285 0.84959 0.19855 0.0
H287 H 0.71686 0.90725 0.13339 0.0
H288 H 0.70981 0.93393 0.11141 0.0
H289 H 0.6453 0.87939 0.08586 0.0
H290 H 0.65247 0.85274 0.10762 0.0
H291 H 0.65261 0.7988 0.10118 0.0
H292 H 0.64536 0.76644 0.07152 0.0
H293 H 0.70981 0.77946 0.0914 0.0
H294 H 0.71704 0.81191 0.12119 0.0
H295 H 0.682 0.8418 0.09762 0.0
H296 H 0.66352 0.78514 0.16363 0.0
H297 H 0.66406 0.75663 0.19113 0.0
H298 H 0.73003 0.80552 0.21924 0.0
H299 H 0.72953 0.83409 0.19142 0.0
C300 C 0.69558 0.88134 0.18391 0.0
C301 C 0.71416 0.89553 0.20063 0.0
C302 C 0.71361 0.91018 0.22085 0.0
C303 C 0.69439 0.91068 0.22484 0.0
C304 C 0.67609 0.89702 0.20743 0.0
C305 C 0.67663 0.88239 0.18725 0.0
C306 C 0.69526 0.8641 0.16466 0.0
C307 C 0.69887 0.84818 0.17628 0.0
C308 C 0.68914 0.86179 0.13593 0.0
C309 C 0.68512 0.87804 0.12238 0.0
C310 C 0.70116 0.90106 0.1232 0.0
C311 C 0.69709 0.91628 0.11073 0.0
C312 C 0.67689 0.90873 0.09727 0.0
C313 C 0.66102 0.88564 0.09604 0.0
C314 C 0.6651 0.87043 0.10847 0.0
C315 C 0.68533 0.80771 0.11346 0.0
C316 C 0.66527 0.79483 0.09895 0.0
C317 C 0.66118 0.77643 0.08192 0.0
C318 C 0.67715 0.77067 0.07893 0.0
C319 C 0.69725 0.78359 0.0934 0.0
C320 C 0.70136 0.80204 0.11044 0.0
C321 C 0.68936 0.82713 0.13158 0.0
C322 C 0.68647 0.84345 0.11974 0.0
C323 C 0.69558 0.82945 0.1603 0.0
C324 C 0.69663 0.8117 0.17506 0.0
C325 C 0.67834 0.78963 0.17508 0.0
C326 C 0.67866 0.77333 0.19081 0.0
C327 C 0.6972 0.77881 0.20703 0.0
C328 C 0.71556 0.80085 0.20685 0.0
C329 C 0.71529 0.81714 0.19098 0.0
H330 H 0.10955 0.83865 0.19112 0.0
H331 H 0.08612 0.80952 0.22449 0.0
H332 H 0.1052 0.76572 0.18597 0.0
H333 H 0.12924 0.79513 0.15344 0.0
H334 H 0.15319 0.85823 0.1898 0.0
H335 H 0.09395 0.8127 0.12466 0.0
H336 H 0.06814 0.77801 0.09891 0.0
H337 H 0.12241 0.77998 0.05484 0.0
H338 H 0.14815 0.81315 0.0827 0.0
H339 H 0.19836 0.86231 0.08769 0.0
H340 H 0.23088 0.88826 0.06072 0.0
H341 H 0.22793 0.94404 0.09615 0.0
H342 H 0.19502 0.91793 0.123 0.0
H343 H 0.15838 0.85219 0.0859 0.0
H344 H 0.21489 0.8838 0.15555 0.0
H345 H 0.24322 0.90867 0.18983 0.0
H346 H 0.1992 0.92716 0.22644 0.0
H347 H 0.17112 0.90287 0.19139 0.0
C348 C 0.12107 0.81905 0.16969 0.0
C349 C 0.10847 0.82267 0.18966 0.0
C350 C 0.09505 0.80601 0.20861 0.0
C351 C 0.09412 0.78552 0.20804 0.0
C352 C 0.10594 0.78153 0.1872 0.0
C353 C 0.11945 0.79822 0.16837 0.0
C354 C 0.13769 0.8378 0.15246 0.0
C355 C 0.15403 0.85715 0.16695 0.0
C356 C 0.13922 0.83589 0.12277 0.0
C357 C 0.12311 0.81553 0.10598 0.0
C358 C 0.10033 0.80551 0.10975 0.0
C359 C 0.08553 0.78588 0.09453 0.0
C360 C 0.09317 0.77632 0.07447 0.0
C361 C 0.11594 0.78674 0.07026 0.0
C362 C 0.1307 0.80594 0.08599 0.0
C363 C 0.19419 0.88814 0.10738 0.0
C364 C 0.20452 0.8801 0.08948 0.0
C365 C 0.22307 0.8949 0.07403 0.0
C366 C 0.23169 0.91807 0.07613 0.0
C367 C 0.22153 0.92621 0.09419 0.0
C368 C 0.20281 0.91134 0.10956 0.0
C369 C 0.17437 0.87198 0.12343 0.0
C370 C 0.15727 0.85337 0.10869 0.0
C371 C 0.17265 0.87398 0.15302 0.0
C372 C 0.19091 0.89159 0.17074 0.0
C373 C 0.21154 0.89371 0.17036 0.0
C374 C 0.22761 0.90769 0.1902 0.0
C375 C 0.22322 0.91949 0.21108 0.0
C376 C 0.203 0.91824 0.21057 0.0
C377 C 0.18695 0.90434 0.19063 0.0
H378 H 0.27462 0.17077 0.82538 0.0
H379 H 0.27396 0.19804 0.79513 0.0
H380 H 0.33932 0.24864 0.82344 0.0
H381 H 0.33992 0.22139 0.85368 0.0
H382 H 0.30218 0.15578 0.82159 0.0
H383 H 0.28573 0.19592 0.8922 0.0
H384 H 0.29086 0.22795 0.92121 0.0
H385 H 0.353 0.24016 0.95097 0.0
H386 H 0.34819 0.20858 0.92154 0.0
H387 H 0.34973 0.15587 0.91804 0.0
H388 H 0.35514 0.13079 0.94664 0.0
H389 H 0.29163 0.07501 0.92007 0.0
H390 H 0.28603 0.10028 0.89189 0.0
H391 H 0.3197 0.16657 0.92383 0.0
H392 H 0.34105 0.13293 0.85308 0.0
H393 H 0.34203 0.10524 0.82158 0.0
H394 H 0.27759 0.0844 0.78985 0.0
H395 H 0.27623 0.11155 0.82238 0.0
C396 C 0.30725 0.19404 0.84194 0.0
C397 C 0.28875 0.18778 0.82521 0.0
C398 C 0.28842 0.20333 0.80787 0.0
C399 C 0.30668 0.22539 0.80674 0.0
C400 C 0.32496 0.23179 0.82403 0.0
C401 C 0.3253 0.21624 0.84135 0.0
C402 C 0.30827 0.17703 0.85852 0.0
C403 C 0.30553 0.15789 0.8441 0.0
C404 C 0.31357 0.18026 0.88765 0.0
C405 C 0.31664 0.19992 0.9045 0.0
C406 C 0.30058 0.20565 0.90468 0.0
C407 C 0.30344 0.22381 0.92135 0.0
C408 C 0.32219 0.23625 0.93849 0.0
C409 C 0.33823 0.23054 0.93831 0.0
C410 C 0.3355 0.21258 0.92143 0.0
C411 C 0.31748 0.12994 0.90283 0.0
C412 C 0.33695 0.13824 0.91839 0.0
C413 C 0.34008 0.12392 0.9346 0.0
C414 C 0.32371 0.10105 0.93577 0.0
C415 C 0.30434 0.09266 0.91988 0.0
C416 C 0.30123 0.10701 0.90358 0.0
C417 C 0.31397 0.1456 0.88683 0.0
C418 C 0.31609 0.16436 0.90138 0.0
C419 C 0.3087 0.14232 0.85772 0.0
C420 C 0.30847 0.12422 0.84032 0.0
C421 C 0.32688 0.12206 0.83988 0.0
C422 C 0.32756 0.10644 0.82159 0.0
C423 C 0.31003 0.09294 0.80297 0.0
C424 C 0.29132 0.09459 0.804 0.0
C425 C 0.29058 0.11016 0.82245 0.0
H426 H 0.82795 0.10657 0.82396 0.0
H427 H 0.79995 0.07994 0.79032 0.0
H428 H 0.7558 0.10051 0.82033 0.0
H429 H 0.78414 0.12776 0.85299 0.0
H430 H 0.84717 0.1519 0.8248 0.0
H431 H 0.80146 0.09208 0.89052 0.0
H432 H 0.76556 0.06605 0.91157 0.0
H433 H 0.76097 0.12218 0.94156 0.0
H434 H 0.79649 0.14807 0.91997 0.0
H435 H 0.852 0.19887 0.92941 0.0
H436 H 0.87931 0.23117 0.95786 0.0
H437 H 0.93021 0.22099 0.92571 0.0
H438 H 0.90281 0.18848 0.89735 0.0
H439 H 0.83698 0.15675 0.92794 0.0
H440 H 0.87604 0.21584 0.8666 0.0
H441 H 0.90378 0.2457 0.83778 0.0
H442 H 0.91447 0.19782 0.79255 0.0
H443 H 0.88818 0.16834 0.82334 0.0
C444 C 0.80804 0.11892 0.84127 0.0
C445 C 0.81216 0.10518 0.82344 0.0
C446 C 0.79609 0.08983 0.80444 0.0
C447 C 0.7756 0.08796 0.80297 0.0
C448 C 0.77144 0.10158 0.82105 0.0
C449 C 0.78754 0.117 0.83989 0.0
C450 C 0.82565 0.13627 0.85998 0.0
C451 C 0.84532 0.1527 0.84751 0.0
C452 C 0.82251 0.13792 0.8893 0.0
C453 C 0.80154 0.122 0.90344 0.0
C454 C 0.79269 0.09876 0.90158 0.0
C455 C 0.77227 0.08394 0.91368 0.0
C456 C 0.7604 0.09214 0.92779 0.0
C457 C 0.76958 0.11542 0.93029 0.0
C458 C 0.78996 0.1302 0.91824 0.0
C459 C 0.87538 0.19137 0.911 0.0
C460 C 0.869 0.2034 0.92869 0.0
C461 C 0.88457 0.22185 0.94492 0.0
C462 C 0.90684 0.22866 0.9437 0.0
C463 C 0.91317 0.21628 0.92661 0.0
C464 C 0.89756 0.19773 0.91045 0.0
C465 C 0.8588 0.17247 0.89283 0.0
C466 C 0.83929 0.15574 0.90538 0.0
C467 C 0.86173 0.17116 0.8633 0.0
C468 C 0.88023 0.18979 0.84766 0.0
C469 C 0.88499 0.21186 0.85136 0.0
C470 C 0.90065 0.22892 0.83448 0.0
C471 C 0.91143 0.22423 0.81284 0.0
C472 C 0.90695 0.20221 0.80944 0.0
C473 C 0.89166 0.18524 0.82683 0.0
H474 H 0.80636 0.66986 0.80236 0.0
H475 H 0.7784 0.67144 0.77555 0.0
H476 H 0.78408 0.72334 0.8329 0.0
H477 H 0.8124 0.72195 0.85965 0.0
H478 H 0.84766 0.69908 0.81136 0.0
H479 H 0.78487 0.65701 0.87071 0.0
H480 H 0.75257 0.65005 0.89791 0.0
H481 H 0.79384 0.7088 0.95056 0.0
H482 H 0.82618 0.71579 0.92319 0.0
H483 H 0.88568 0.71162 0.92358 0.0
H484 H 0.91062 0.70346 0.94787 0.0
H485 H 0.89402 0.64931 0.88763 0.0
H486 H 0.86885 0.65714 0.86377 0.0
H487 H 0.84206 0.68638 0.91431 0.0
H488 H 0.9072 0.72053 0.85382 0.0
H489 H 0.9355 0.71981 0.82461 0.0
H490 H 0.88472 0.66741 0.77142 0.0
H491 H 0.85664 0.66778 0.80083 0.0
C492 C 0.81145 0.6957 0.83312 0.0
C493 C 0.8017 0.68166 0.80916 0.0
C494 C 0.78571 0.68255 0.79387 0.0
C495 C 0.77904 0.69744 0.80224 0.0
C496 C 0.78872 0.71148 0.82626 0.0
C497 C 0.80488 0.71069 0.84151 0.0
C498 C 0.82863 0.69463 0.84892 0.0
C499 C 0.84641 0.69625 0.83387 0.0
C500 C 0.82721 0.6912 0.87831 0.0
C501 C 0.80781 0.68703 0.89484 0.0
C502 C 0.78694 0.66839 0.8881 0.0
C503 C 0.76859 0.66432 0.90376 0.0
C504 C 0.77086 0.6788 0.9264 0.0
C505 C 0.79176 0.69741 0.93319 0.0
C506 C 0.81016 0.70139 0.91766 0.0
C507 C 0.87582 0.68535 0.89145 0.0
C508 C 0.88737 0.69796 0.91567 0.0
C509 C 0.90152 0.69327 0.92955 0.0
C510 C 0.90437 0.67596 0.91934 0.0
C511 C 0.89237 0.66299 0.89557 0.0
C512 C 0.8781 0.66754 0.88188 0.0
C513 C 0.86087 0.69035 0.87662 0.0
C514 C 0.84359 0.68965 0.89191 0.0
C515 C 0.86239 0.69389 0.84721 0.0
C516 C 0.87981 0.69416 0.82953 0.0
C517 C 0.90221 0.70887 0.8359 0.0
C518 C 0.91834 0.70857 0.81913 0.0
C519 C 0.91225 0.69359 0.79576 0.0
C520 C 0.88985 0.67901 0.78942 0.0
C521 C 0.87381 0.67933 0.80608 0.0
H522 H 0.80741 0.67062 0.54425 0.0
H523 H 0.77918 0.67058 0.57382 0.0
H524 H 0.72864 0.61517 0.52373 0.0
H525 H 0.75714 0.61502 0.49421 0.0
H526 H 0.81616 0.63778 0.53605 0.0
H527 H 0.79553 0.67998 0.47907 0.0
H528 H 0.76919 0.68549 0.45381 0.0
H529 H 0.75094 0.62685 0.40107 0.0
H530 H 0.77715 0.62125 0.42658 0.0
H531 H 0.84151 0.62721 0.42111 0.0
H532 H 0.87526 0.6358 0.39608 0.0
H533 H 0.91396 0.68802 0.45837 0.0
H534 H 0.88033 0.67978 0.48296 0.0
H535 H 0.82342 0.6516 0.43333 0.0
H536 H 0.85273 0.61621 0.48722 0.0
H537 H 0.88086 0.6144 0.51383 0.0
H538 H 0.88432 0.66353 0.57431 0.0
H539 H 0.85663 0.66564 0.54757 0.0
C540 C 0.78438 0.64285 0.51704 0.0
C541 C 0.79027 0.65841 0.53964 0.0
C542 C 0.77414 0.65846 0.5564 0.0
C543 C 0.75178 0.64285 0.55105 0.0
C544 C 0.7458 0.62723 0.52841 0.0
C545 C 0.76202 0.62725 0.51147 0.0
C546 C 0.80192 0.64306 0.49979 0.0
C547 C 0.81783 0.64086 0.5136 0.0
C548 C 0.8037 0.64648 0.4704 0.0
C549 C 0.78802 0.65001 0.45493 0.0
C550 C 0.78576 0.66825 0.46217 0.0
C551 C 0.77086 0.67147 0.44764 0.0
C552 C 0.75794 0.65647 0.42572 0.0
C553 C 0.76049 0.63844 0.41819 0.0
C554 C 0.77549 0.6353 0.43261 0.0
C555 C 0.85843 0.65258 0.45417 0.0
C556 C 0.85725 0.64062 0.42922 0.0
C557 C 0.87648 0.64556 0.41493 0.0
C558 C 0.89711 0.66254 0.42539 0.0
C559 C 0.89823 0.67473 0.45006 0.0
C560 C 0.87905 0.66996 0.46414 0.0
C561 C 0.83817 0.64712 0.46981 0.0
C562 C 0.82163 0.64812 0.45568 0.0
C563 C 0.83598 0.64289 0.49908 0.0
C564 C 0.85264 0.64118 0.51527 0.0
C565 C 0.85968 0.62673 0.50608 0.0
C566 C 0.87573 0.6257 0.52124 0.0
C567 C 0.88478 0.6389 0.54601 0.0
C568 C 0.8775 0.65308 0.55536 0.0
C569 C 0.86165 0.65425 0.54012 0.0
H570 H 0.39439 0.22557 0.52991 0.0
H571 H 0.39276 0.25197 0.56347 0.0
H572 H 0.32801 0.23088 0.53262 0.0
H573 H 0.32977 0.20468 0.49904 0.0
H574 H 0.366 0.18032 0.53036 0.0
H575 H 0.3858 0.23919 0.46389 0.0
H576 H 0.3805 0.26562 0.43807 0.0
H577 H 0.31995 0.21034 0.40289 0.0
H578 H 0.32476 0.1841 0.42969 0.0
H579 H 0.32512 0.13262 0.42517 0.0
H580 H 0.31926 0.10006 0.39704 0.0
H581 H 0.37659 0.10615 0.43498 0.0
H582 H 0.38306 0.13936 0.46244 0.0
H583 H 0.35432 0.1736 0.42681 0.0
H584 H 0.32763 0.11614 0.4928 0.0
H585 H 0.32288 0.08703 0.52419 0.0
H586 H 0.38524 0.134 0.56386 0.0
H587 H 0.39051 0.16287 0.53136 0.0
C588 C 0.36231 0.21334 0.51178 0.0
C589 C 0.38002 0.22695 0.53005 0.0
C590 C 0.37906 0.24197 0.5492 0.0
C591 C 0.36034 0.2436 0.55048 0.0
C592 C 0.34286 0.23038 0.53166 0.0
C593 C 0.34383 0.21536 0.5125 0.0
C594 C 0.36226 0.19553 0.49398 0.0
C595 C 0.36399 0.17908 0.50759 0.0
C596 C 0.35847 0.19339 0.46452 0.0
C597 C 0.35563 0.20965 0.44886 0.0
C598 C 0.37129 0.23278 0.45082 0.0
C599 C 0.36839 0.24783 0.43578 0.0
C600 C 0.34994 0.23998 0.41821 0.0
C601 C 0.3343 0.21686 0.41632 0.0
C602 C 0.33712 0.20185 0.43146 0.0
C603 C 0.35447 0.13843 0.4461 0.0
C604 C 0.33665 0.1272 0.42722 0.0
C605 C 0.33327 0.10861 0.41117 0.0
C606 C 0.34754 0.10079 0.41388 0.0
C607 C 0.36537 0.11194 0.43267 0.0
C608 C 0.36898 0.13078 0.44843 0.0
C609 C 0.35771 0.15807 0.46322 0.0
C610 C 0.35672 0.17494 0.44952 0.0
C611 C 0.36119 0.16007 0.49281 0.0
C612 C 0.35951 0.14171 0.50955 0.0
C613 C 0.34061 0.12005 0.50766 0.0
C614 C 0.33776 0.10349 0.52587 0.0
C615 C 0.35351 0.1084 0.5468 0.0
C616 C 0.37285 0.12976 0.54792 0.0
C617 C 0.3758 0.14628 0.52949 0.0
H618 H 0.77684 0.16699 0.52398 0.0
H619 H 0.75142 0.13819 0.5564 0.0
H620 H 0.77096 0.09332 0.52292 0.0
H621 H 0.79711 0.12248 0.4917 0.0
H622 H 0.82033 0.18637 0.5254 0.0
H623 H 0.76427 0.14346 0.45475 0.0
H624 H 0.73764 0.10699 0.43274 0.0
H625 H 0.79085 0.0992 0.40419 0.0
H626 H 0.81737 0.13528 0.42693 0.0
H627 H 0.87037 0.19009 0.42724 0.0
H628 H 0.90357 0.21705 0.4019 0.0
H629 H 0.8958 0.27096 0.433 0.0
H630 H 0.86246 0.24394 0.4582 0.0
H631 H 0.82953 0.1774 0.42285 0.0
H632 H 0.88251 0.2098 0.49721 0.0
H633 H 0.90865 0.234 0.5341 0.0
H634 H 0.86517 0.25656 0.55967 0.0
H635 H 0.83888 0.23204 0.52303 0.0
C636 C 0.78868 0.14682 0.50513 0.0
C637 C 0.7754 0.15083 0.52337 0.0
C638 C 0.76074 0.1343 0.54168 0.0
C639 C 0.75907 0.11344 0.54198 0.0
C640 C 0.77191 0.10925 0.52312 0.0
C641 C 0.78669 0.12582 0.50505 0.0
C642 C 0.80614 0.1652 0.48827 0.0
C643 C 0.82201 0.18476 0.50278 0.0
C644 C 0.80879 0.16258 0.45902 0.0
C645 C 0.79279 0.14195 0.44281 0.0
C646 C 0.7702 0.13394 0.44365 0.0
C647 C 0.75503 0.11318 0.431 0.0
C648 C 0.76221 0.10015 0.41725 0.0
C649 C 0.78487 0.10871 0.41522 0.0
C650 C 0.80002 0.12942 0.4279 0.0
C651 C 0.86402 0.21501 0.44483 0.0
C652 C 0.87574 0.2077 0.42853 0.0
C653 C 0.89468 0.22307 0.41408 0.0
C654 C 0.9023 0.24605 0.41576 0.0
C655 C 0.89047 0.25337 0.43182 0.0
C656 C 0.87145 0.23796 0.4462 0.0
C657 C 0.84395 0.19851 0.46015 0.0
C658 C 0.82754 0.17939 0.44529 0.0
C659 C 0.84112 0.20119 0.48931 0.0
C660 C 0.85875 0.21913 0.5074 0.0
C661 C 0.87888 0.22043 0.51023 0.0
C662 C 0.89378 0.23421 0.53135 0.0
C663 C 0.88871 0.24679 0.55006 0.0
C664 C 0.86924 0.24663 0.54593 0.0
C665 C 0.85432 0.23279 0.5249 0.0
H666 H 0.95391 0.51037 0.14988 0.0
H667 H 0.95711 0.5396 0.11974 0.0
H668 H 0.01797 0.5882 0.16147 0.0
H669 H 0.01565 0.55875 0.18983 0.0
H670 H 0.97839 0.49366 0.15134 0.0
H671 H 0.9595 0.5319 0.22245 0.0
H672 H 0.9646 0.56404 0.25117 0.0
H673 H 0.02664 0.57616 0.28144 0.0
H674 H 0.02144 0.54404 0.25294 0.0
H675 H 0.0204 0.4892 0.2502 0.0
H676 H 0.0239 0.4628 0.27858 0.0
H677 H 0.96045 0.40894 0.24865 0.0
H678 H 0.9567 0.43559 0.22082 0.0
H679 H 0.99107 0.50111 0.25473 0.0
H680 H 0.01158 0.46481 0.18546 0.0
H681 H 0.01011 0.43517 0.15535 0.0
H682 H 0.94954 0.42208 0.11829 0.0
H683 H 0.95026 0.45066 0.1499 0.0
C684 C 0.98444 0.53229 0.17235 0.0
C685 C 0.96796 0.52732 0.1525 0.0
C686 C 0.9697 0.54407 0.13545 0.0
C687 C 0.98794 0.56615 0.13794 0.0
C688 C 0.00398 0.57125 0.15854 0.0
C689 C 0.00245 0.55446 0.17518 0.0
C690 C 0.98354 0.51413 0.18878 0.0
C691 C 0.98064 0.49503 0.17406 0.0
C692 C 0.98724 0.51623 0.21831 0.0
C693 C 0.99011 0.53562 0.23552 0.0
C694 C 0.9742 0.54151 0.23525 0.0
C695 C 0.9771 0.5598 0.25166 0.0
C696 C 0.99588 0.57237 0.26876 0.0
C697 C 0.01178 0.56644 0.26897 0.0
C698 C 0.00887 0.54818 0.2526 0.0
C699 C 0.9883 0.46435 0.23338 0.0
C700 C 0.0072 0.47172 0.24981 0.0
C701 C 0.00924 0.45663 0.26589 0.0
C702 C 0.99236 0.4339 0.26598 0.0
C703 C 0.97353 0.42646 0.24931 0.0
C704 C 0.97148 0.44159 0.2332 0.0
C705 C 0.98614 0.48081 0.21725 0.0
C706 C 0.98842 0.49954 0.23206 0.0
C707 C 0.9821 0.47841 0.1878 0.0
C708 C 0.9808 0.45972 0.17041 0.0
C709 C 0.99761 0.45511 0.17151 0.0
C710 C 0.99689 0.43832 0.15401 0.0
C711 C 0.97957 0.42606 0.13462 0.0
C712 C 0.96277 0.43072 0.13352 0.0
C713 C 0.96333 0.44729 0.15134 0.0
H714 H 0.49242 0.44412 0.15802 0.0
H715 H 0.46445 0.41794 0.12406 0.0
H716 H 0.41828 0.43363 0.16032 0.0
H717 H 0.44657 0.46068 0.19308 0.0
H718 H 0.50967 0.48775 0.15951 0.0
H719 H 0.46911 0.42945 0.22795 0.0
H720 H 0.43658 0.40269 0.25482 0.0
H721 H 0.42874 0.45673 0.28519 0.0
H722 H 0.46119 0.48337 0.25849 0.0
H723 H 0.51544 0.53772 0.26062 0.0
H724 H 0.54237 0.57108 0.2878 0.0
H725 H 0.59413 0.56152 0.25753 0.0
H726 H 0.56708 0.52815 0.23005 0.0
H727 H 0.50253 0.49528 0.26286 0.0
H728 H 0.53712 0.5524 0.19731 0.0
H729 H 0.56348 0.58164 0.16654 0.0
H730 H 0.57674 0.53428 0.12507 0.0
H731 H 0.55158 0.5054 0.15757 0.0
C732 C 0.47162 0.45433 0.17824 0.0
C733 C 0.47621 0.44179 0.15881 0.0
C734 C 0.4602 0.42675 0.13952 0.0
C735 C 0.4393 0.42401 0.13926 0.0
C736 C 0.4344 0.43576 0.15962 0.0
C737 C 0.45047 0.45097 0.17868 0.0
C738 C 0.48952 0.47248 0.19596 0.0
C739 C 0.50844 0.48908 0.18226 0.0
C740 C 0.48731 0.47484 0.22539 0.0
C741 C 0.46757 0.4584 0.24124 0.0
C742 C 0.46033 0.4355 0.24032 0.0
C743 C 0.4418 0.42026 0.25565 0.0
C744 C 0.43037 0.42774 0.27233 0.0
C745 C 0.43755 0.45062 0.27301 0.0
C746 C 0.45602 0.46581 0.25771 0.0
C747 C 0.53924 0.53044 0.24329 0.0
C748 C 0.53255 0.54265 0.26004 0.0
C749 C 0.54793 0.56166 0.27564 0.0
C750 C 0.57029 0.56871 0.27504 0.0
C751 C 0.57699 0.55646 0.25831 0.0
C752 C 0.56158 0.53743 0.24264 0.0
C753 C 0.52272 0.51052 0.22639 0.0
C754 C 0.50409 0.49365 0.24022 0.0
C755 C 0.52486 0.50832 0.19689 0.0
C756 C 0.5425 0.52668 0.18008 0.0
C757 C 0.5462 0.54841 0.18229 0.0
C758 C 0.56097 0.56504 0.16426 0.0
C759 C 0.57177 0.5601 0.14291 0.0
C760 C 0.56865 0.53859 0.14129 0.0
C761 C 0.55417 0.52204 0.15974 0.0
H762 H 0.55612 0.05513 0.15322 0.0
H763 H 0.58305 0.05577 0.12008 0.0
H764 H 0.56337 0.98875 0.14343 0.0
H765 H 0.53655 0.98816 0.17646 0.0
H766 H 0.513 0.02792 0.14978 0.0
H767 H 0.56732 0.04419 0.21998 0.0
H768 H 0.59353 0.0403 0.24791 0.0
H769 H 0.54157 0.97407 0.27138 0.0
H770 H 0.51549 0.97776 0.24286 0.0
H771 H 0.45962 0.97625 0.2426 0.0
H772 H 0.42632 0.96895 0.26741 0.0
H773 H 0.4414 0.03534 0.24839 0.0
H774 H 0.47483 0.0427 0.2238 0.0
H775 H 0.50234 0.00617 0.24998 0.0
H776 H 0.44873 0.98833 0.17836 0.0
H777 H 0.42139 0.99158 0.15234 0.0
H778 H 0.47107 0.05943 0.13138 0.0
H779 H 0.49845 0.05621 0.15773 0.0
C780 C 0.54445 0.02169 0.16753 0.0
C781 C 0.55786 0.04072 0.15152 0.0
C782 C 0.57321 0.04108 0.13262 0.0
C783 C 0.57543 0.0224 0.12939 0.0
C784 C 0.5624 0.0036 0.14597 0.0
C785 C 0.54703 0.00323 0.16483 0.0
C786 C 0.5264 0.02028 0.185 0.0
C787 C 0.51095 0.02363 0.17187 0.0
C788 C 0.52328 0.01394 0.21355 0.0
C789 C 0.53945 0.01123 0.22924 0.0
C790 C 0.56162 0.02872 0.23085 0.0
C791 C 0.57651 0.0266 0.24706 0.0
C792 C 0.56947 0.007 0.26209 0.0
C793 C 0.5474 0.98935 0.26002 0.0
C794 C 0.5325 0.99149 0.24385 0.0
C795 C 0.46959 0.00994 0.23112 0.0
C796 C 0.45592 0.98935 0.24411 0.0
C797 C 0.43696 0.98521 0.25832 0.0
C798 C 0.4314 0.00163 0.25987 0.0
C799 C 0.44531 0.02239 0.24734 0.0
C800 C 0.46434 0.02657 0.23328 0.0
C801 C 0.489 0.0137 0.21471 0.0
C802 C 0.5046 0.01071 0.22798 0.0
C803 C 0.49217 0.02018 0.18622 0.0
C804 C 0.47557 0.02216 0.17039 0.0
C805 C 0.4537 0.00403 0.16854 0.0
C806 C 0.43808 0.00592 0.15375 0.0
C807 C 0.44406 0.0259 0.14028 0.0
C808 C 0.46603 0.0439 0.14171 0.0
C809 C 0.48165 0.04205 0.15668 0.0
H810 H 0.48394 0.01007 0.8895 0.0
H811 H 0.45766 0.00886 0.92397 0.0
H812 H 0.4039 0.95906 0.87201 0.0
H813 H 0.43032 0.95972 0.83765 0.0
H814 H 0.49171 0.97953 0.87518 0.0
H815 H 0.46808 0.02144 0.82564 0.0
H816 H 0.44202 0.02896 0.80364 0.0
H817 H 0.4219 0.97275 0.74546 0.0
H818 H 0.44796 0.96519 0.7676 0.0
H819 H 0.50422 0.96286 0.7571 0.0
H820 H 0.53341 0.96819 0.72462 0.0
H821 H 0.58194 0.01926 0.78146 0.0
H822 H 0.55271 0.01496 0.81281 0.0
H823 H 0.49186 0.99065 0.77245 0.0
H824 H 0.52247 0.95377 0.82366 0.0
H825 H 0.55005 0.95036 0.84948 0.0
H826 H 0.56052 0.00439 0.90649 0.0
H827 H 0.53342 0.00802 0.88063 0.0
C828 C 0.45916 0.98497 0.86095 0.0
C829 C 0.46652 0.9988 0.88547 0.0
C830 C 0.45153 0.9981 0.90516 0.0
C831 C 0.42886 0.98366 0.9007 0.0
C832 C 0.42135 0.97027 0.87584 0.0
C833 C 0.43642 0.97074 0.85621 0.0
C834 C 0.47551 0.98492 0.8413 0.0
C835 C 0.49187 0.98218 0.85272 0.0
C836 C 0.47544 0.98787 0.81191 0.0
C837 C 0.45965 0.99247 0.79863 0.0
C838 C 0.45789 0.01056 0.80837 0.0
C839 C 0.44303 0.01487 0.79579 0.0
C840 C 0.42978 0.00124 0.77311 0.0
C841 C 0.43194 0.98349 0.76292 0.0
C842 C 0.44675 0.97914 0.77558 0.0
C843 C 0.52625 0.9883 0.78759 0.0
C844 C 0.52115 0.9753 0.76247 0.0
C845 C 0.53783 0.97828 0.744 0.0
C846 C 0.55994 0.99433 0.75031 0.0
C847 C 0.56503 0.00714 0.77563 0.0
C848 C 0.54834 0.00439 0.79388 0.0
C849 C 0.50841 0.98578 0.80649 0.0
C850 C 0.49163 0.98782 0.79486 0.0
C851 C 0.50851 0.9829 0.83591 0.0
C852 C 0.52587 0.98117 0.85018 0.0
C853 C 0.53094 0.96508 0.84147 0.0
C854 C 0.54665 0.96312 0.85619 0.0
C855 C 0.5573 0.97708 0.87998 0.0
C856 C 0.55238 0.99329 0.88838 0.0
C857 C 0.5369 0.99536 0.87362 0.0
H858 H 0.0455 0.55063 0.87335 0.0
H859 H 0.04407 0.57673 0.90711 0.0
H860 H 0.98773 0.56862 0.86317 0.0
H861 H 0.98744 0.54032 0.83193 0.0
H862 H 0.01933 0.50945 0.86775 0.0
H863 H 0.04265 0.56881 0.80009 0.0
H864 H 0.03846 0.59686 0.77646 0.0
H865 H 0.97459 0.54452 0.74563 0.0
H866 H 0.97898 0.51653 0.76888 0.0
H867 H 0.97853 0.46298 0.76251 0.0
H868 H 0.97239 0.4308 0.73361 0.0
H869 H 0.02936 0.43568 0.77135 0.0
H870 H 0.03658 0.46911 0.79838 0.0
H871 H 0.00816 0.50397 0.76417 0.0
H872 H 0.98293 0.44526 0.83133 0.0
H873 H 0.98168 0.41692 0.86132 0.0
H874 H 0.04474 0.4668 0.89703 0.0
H875 H 0.04644 0.49476 0.86598 0.0
C876 C 0.01668 0.54346 0.84982 0.0
C877 C 0.03272 0.55432 0.87108 0.0
C878 C 0.03203 0.56949 0.89023 0.0
C879 C 0.01554 0.57454 0.88826 0.0
C880 C 0.0002 0.56457 0.86604 0.0
C881 C 0.00039 0.54876 0.84755 0.0
C882 C 0.01606 0.52538 0.8317 0.0
C883 C 0.01744 0.50858 0.84498 0.0
C884 C 0.01275 0.52367 0.8021 0.0
C885 C 0.01103 0.54063 0.78649 0.0
C886 C 0.02779 0.5634 0.78817 0.0
C887 C 0.02532 0.57939 0.7748 0.0
C888 C 0.00603 0.57288 0.75961 0.0
C889 C 0.98963 0.54999 0.75716 0.0
C890 C 0.99213 0.53402 0.77043 0.0
C891 C 0.00793 0.46844 0.78286 0.0
C892 C 0.98996 0.45739 0.76422 0.0
C893 C 0.98632 0.43884 0.74789 0.0
C894 C 0.00044 0.43072 0.75001 0.0
C895 C 0.01847 0.4418 0.76865 0.0
C896 C 0.02237 0.46069 0.78456 0.0
C897 C 0.01137 0.48803 0.80029 0.0
C898 C 0.01053 0.5051 0.78687 0.0
C899 C 0.015 0.48987 0.82983 0.0
C900 C 0.01491 0.4721 0.84612 0.0
C901 C 0.99677 0.44995 0.84501 0.0
C902 C 0.99599 0.43381 0.86234 0.0
C903 C 0.0132 0.43957 0.88139 0.0
C904 C 0.03149 0.46167 0.88212 0.0
C905 C 0.03235 0.47773 0.86461 0.0
H906 H 0.44359 0.50028 0.85617 0.0
H907 H 0.41752 0.47247 0.88911 0.0
H908 H 0.43647 0.42617 0.85966 0.0
H909 H 0.46323 0.45432 0.82793 0.0
H910 H 0.48639 0.51941 0.85917 0.0
H911 H 0.43284 0.47615 0.78749 0.0
H912 H 0.40606 0.44064 0.76381 0.0
H913 H 0.45835 0.43022 0.73894 0.0
H914 H 0.48501 0.46535 0.76355 0.0
H915 H 0.54072 0.52043 0.76868 0.0
H916 H 0.57545 0.54678 0.74555 0.0
H917 H 0.56579 0.60116 0.76752 0.0
H918 H 0.53079 0.57469 0.78997 0.0
H919 H 0.49926 0.50762 0.75873 0.0
H920 H 0.5489 0.54132 0.83719 0.0
H921 H 0.5744 0.56805 0.87287 0.0
H922 H 0.53141 0.59321 0.8873 0.0
H923 H 0.50562 0.56591 0.85213 0.0
C924 C 0.45522 0.47934 0.83931 0.0
C925 C 0.44187 0.484 0.85651 0.0
C926 C 0.42684 0.46803 0.87513 0.0
C927 C 0.42487 0.4471 0.8768 0.0
C928 C 0.43767 0.44219 0.85883 0.0
C929 C 0.4528 0.45819 0.84044 0.0
C930 C 0.47333 0.49727 0.82257 0.0
C931 C 0.48883 0.51713 0.83694 0.0
C932 C 0.47696 0.4939 0.79387 0.0
C933 C 0.46093 0.47336 0.77747 0.0
C934 C 0.43856 0.46626 0.77688 0.0
C935 C 0.4233 0.44608 0.76312 0.0
C936 C 0.43017 0.43277 0.74937 0.0
C937 C 0.45262 0.44014 0.74945 0.0
C938 C 0.46786 0.46028 0.76329 0.0
C939 C 0.53318 0.54559 0.78111 0.0
C940 C 0.54597 0.53799 0.76827 0.0
C941 C 0.56585 0.55305 0.75525 0.0
C942 C 0.5732 0.57595 0.7546 0.0
C943 C 0.56034 0.58353 0.76734 0.0
C944 C 0.54046 0.56847 0.78039 0.0
C945 C 0.51239 0.52957 0.79555 0.0
C946 C 0.49643 0.51016 0.78071 0.0
C947 C 0.50845 0.5331 0.824 0.0
C948 C 0.5254 0.55167 0.84204 0.0
C949 C 0.54519 0.55291 0.84763 0.0
C950 C 0.55973 0.56818 0.86802 0.0
C951 C 0.55471 0.58245 0.88321 0.0
C952 C 0.53545 0.58203 0.87643 0.0
C953 C 0.52081 0.56661 0.85621 0.0
H954 H 0.6049 0.83678 0.49399 0.0
H955 H 0.60355 0.86462 0.46568 0.0
H956 H 0.66952 0.91472 0.49247 0.0
H957 H 0.67082 0.88693 0.52074 0.0
H958 H 0.63291 0.82254 0.48563 0.0
H959 H 0.61599 0.85688 0.56438 0.0
H960 H 0.62154 0.88887 0.5939 0.0
H961 H 0.68774 0.90655 0.61239 0.0
H962 H 0.68225 0.87473 0.58274 0.0
H963 H 0.68345 0.81898 0.57646 0.0
H964 H 0.69 0.79187 0.59826 0.0
H965 H 0.62506 0.73813 0.57281 0.0
H966 H 0.6187 0.76523 0.55071 0.0
H967 H 0.65374 0.83031 0.5866 0.0
H968 H 0.67434 0.80132 0.50853 0.0
H969 H 0.67523 0.77559 0.47327 0.0
H970 H 0.60774 0.75086 0.45107 0.0
H971 H 0.60704 0.77693 0.48616 0.0
C972 C 0.63791 0.85977 0.50961 0.0
C973 C 0.61897 0.85383 0.49402 0.0
C974 C 0.61825 0.86969 0.47779 0.0
C975 C 0.63653 0.89174 0.47666 0.0
C976 C 0.65515 0.89788 0.4931 0.0
C977 C 0.65588 0.88202 0.5093 0.0
C978 C 0.63963 0.84233 0.52411 0.0
C979 C 0.63691 0.82393 0.5079 0.0
C980 C 0.64581 0.84466 0.55283 0.0
C981 C 0.64879 0.86359 0.57116 0.0
C982 C 0.6317 0.86768 0.57475 0.0
C983 C 0.63481 0.88581 0.59171 0.0
C984 C 0.6551 0.90018 0.60516 0.0
C985 C 0.67204 0.89583 0.60195 0.0
C986 C 0.66888 0.87763 0.58517 0.0
C987 C 0.6507 0.79408 0.56166 0.0
C988 C 0.67063 0.80136 0.57561 0.0
C989 C 0.67434 0.78589 0.58808 0.0
C990 C 0.65816 0.76288 0.58687 0.0
C991 C 0.63803 0.7557 0.57344 0.0
C992 C 0.63436 0.77115 0.56089 0.0
C993 C 0.64695 0.8105 0.54811 0.0
C994 C 0.6493 0.82868 0.56447 0.0
C995 C 0.64086 0.80821 0.51937 0.0
C996 C 0.6406 0.79099 0.50004 0.0
C997 C 0.65961 0.7901 0.49642 0.0
C998 C 0.66011 0.7754 0.47625 0.0
C999 C 0.64164 0.76142 0.45918 0.0
C1000 C 0.62236 0.76178 0.46351 0.0
C1001 C 0.6219 0.77655 0.48364 0.0
H1002 H 0.15514 0.7802 0.49078 0.0
H1003 H 0.12676 0.7582 0.45505 0.0
H1004 H 0.087 0.78235 0.49102 0.0
H1005 H 0.11574 0.80504 0.52582 0.0
H1006 H 0.17854 0.82445 0.49683 0.0
H1007 H 0.13057 0.76434 0.55772 0.0
H1008 H 0.09465 0.73762 0.57802 0.0
H1009 H 0.09073 0.7927 0.61404 0.0
H1010 H 0.12645 0.8194 0.59327 0.0
H1011 H 0.18441 0.86995 0.60308 0.0
H1012 H 0.21242 0.90077 0.63276 0.0
H1013 H 0.26124 0.88761 0.60018 0.0
H1014 H 0.23306 0.85624 0.5711 0.0
H1015 H 0.16674 0.82736 0.59989 0.0
H1016 H 0.20978 0.88676 0.53574 0.0
H1017 H 0.24029 0.91456 0.50728 0.0
H1018 H 0.25163 0.86327 0.47498 0.0
H1019 H 0.22092 0.83545 0.50336 0.0
C1020 C 0.13748 0.79406 0.51123 0.0
C1021 C 0.1402 0.78055 0.49114 0.0
C1022 C 0.1239 0.76783 0.47091 0.0
C1023 C 0.10457 0.76839 0.47043 0.0
C1024 C 0.10172 0.78159 0.4909 0.0
C1025 C 0.11805 0.79438 0.51098 0.0
C1026 C 0.15563 0.80924 0.53095 0.0
C1027 C 0.17616 0.82473 0.51949 0.0
C1028 C 0.15228 0.81009 0.56036 0.0
C1029 C 0.13108 0.79385 0.57378 0.0
C1030 C 0.12195 0.77066 0.56992 0.0
C1031 C 0.10152 0.75544 0.5816 0.0
C1032 C 0.08986 0.76316 0.59727 0.0
C1033 C 0.09922 0.78635 0.60161 0.0
C1034 C 0.11969 0.80157 0.59001 0.0
C1035 C 0.20663 0.86088 0.58456 0.0
C1036 C 0.20105 0.87341 0.60261 0.0
C1037 C 0.21702 0.89099 0.61959 0.0
C1038 C 0.23889 0.89643 0.61875 0.0
C1039 C 0.24446 0.88373 0.60108 0.0
C1040 C 0.22841 0.86593 0.58437 0.0
C1041 C 0.18965 0.84288 0.56569 0.0
C1042 C 0.16934 0.82682 0.57733 0.0
C1043 C 0.19309 0.84173 0.53632 0.0
C1044 C 0.2132 0.85907 0.52185 0.0
C1045 C 0.21918 0.88161 0.52309 0.0
C1046 C 0.23667 0.8975 0.50689 0.0
C1047 C 0.24846 0.8911 0.48911 0.0
C1048 C 0.24281 0.86864 0.48849 0.0
C1049 C 0.22532 0.85277 0.50469 0.0
H1050 H 0.14092 0.33634 0.47178 0.0
H1051 H 0.11346 0.33887 0.4451 0.0
H1052 H 0.12171 0.39235 0.50153 0.0
H1053 H 0.14952 0.39 0.52816 0.0
H1054 H 0.18222 0.36461 0.47908 0.0
H1055 H 0.12143 0.32477 0.54004 0.0
H1056 H 0.08932 0.31806 0.56735 0.0
H1057 H 0.13091 0.37697 0.6196 0.0
H1058 H 0.16312 0.38376 0.59199 0.0
H1059 H 0.22586 0.38345 0.58626 0.0
H1060 H 0.25135 0.37654 0.61135 0.0
H1061 H 0.22929 0.3163 0.56019 0.0
H1062 H 0.20368 0.32311 0.53538 0.0
H1063 H 0.17985 0.35541 0.58262 0.0
H1064 H 0.24299 0.38507 0.51798 0.0
H1065 H 0.26917 0.38399 0.48473 0.0
H1066 H 0.21499 0.33179 0.43548 0.0
H1067 H 0.18901 0.33245 0.46878 0.0
C1068 C 0.14727 0.36292 0.50205 0.0
C1069 C 0.1369 0.34867 0.47843 0.0
C1070 C 0.12122 0.35011 0.4632 0.0
C1071 C 0.11548 0.36577 0.4713 0.0
C1072 C 0.12567 0.37995 0.49507 0.0
C1073 C 0.14152 0.37859 0.51027 0.0
C1074 C 0.16449 0.36164 0.51738 0.0
C1075 C 0.18162 0.36242 0.50171 0.0
C1076 C 0.1638 0.35895 0.54689 0.0
C1077 C 0.14458 0.35487 0.56387 0.0
C1078 C 0.12364 0.33624 0.55737 0.0
C1079 C 0.10537 0.33231 0.57311 0.0
C1080 C 0.10775 0.34689 0.59569 0.0
C1081 C 0.12873 0.36549 0.60229 0.0
C1082 C 0.14707 0.36934 0.58663 0.0
C1083 C 0.21305 0.3539 0.55882 0.0
C1084 C 0.22652 0.36875 0.58049 0.0
C1085 C 0.24107 0.36483 0.59473 0.0
C1086 C 0.24211 0.34581 0.58782 0.0
C1087 C 0.22856 0.33091 0.56618 0.0
C1088 C 0.21412 0.33491 0.55183 0.0
C1089 C 0.19737 0.35788 0.54413 0.0
C1090 C 0.18062 0.35784 0.56003 0.0
C1091 C 0.19775 0.35999 0.5145 0.0
C1092 C 0.21401 0.35882 0.4959 0.0
C1093 C 0.23678 0.37313 0.5003 0.0
C1094 C 0.25169 0.37257 0.48132 0.0
C1095 C 0.244 0.35789 0.45757 0.0
C1096 C 0.22129 0.3434 0.4535 0.0
C1097 C 0.20647 0.34379 0.47251 0.0
C1098 C 0.00054 0.40107 0.07988 0.0
C1099 C 0.98168 0.38018 0.0726 0.0
C1100 C -0.00032 0.41556 0.10012 0.0
C1101 C 0.98 0.40971 0.11421 0.0
H1102 H 0.01605 0.4066 0.06936 0.0
H1103 H 0.01451 0.43173 0.10427 0.0
S1104 S 0.92645 0.35602 0.10492 0.0
N1105 N 0.94297 0.35383 0.08216 0.0
N1106 N 0.9415 0.38087 0.12086 0.0
C1107 C 0.96113 0.3886 0.10774 0.0
C1108 C 0.96195 0.3739 0.08682 0.0
C1109 C 0.61875 0.59646 0.09298 0.0
C1110 C 0.61143 0.60916 0.08023 0.0
C1111 C 0.60594 0.58071 0.1134 0.0
C1112 C 0.58526 0.57695 0.12146 0.0
H1113 H 0.63464 0.59899 0.08752 0.0
H1114 H 0.61236 0.57158 0.12313 0.0
S1115 S 0.55755 0.60392 0.09145 0.0
N1116 N 0.58165 0.61588 0.07555 0.0
N1117 N 0.55729 0.58582 0.11305 0.0
C1118 C 0.57752 0.58908 0.1081 0.0
C1119 C 0.59067 0.60529 0.0877 0.0
C1120 C 0.4159 0.0336 0.07844 0.0
C1121 C 0.39474 0.02647 0.08898 0.0
C1122 C 0.43199 0.03411 0.09546 0.0
C1123 C 0.42757 0.02747 0.12366 0.0
H1124 H 0.4199 0.0381 0.05656 0.0
H1125 H 0.44775 0.03892 0.08614 0.0
S1126 S 0.376 0.01018 0.16274 0.0
N1127 N 0.37105 0.01458 0.13043 0.0
N1128 N 0.40142 0.01562 0.16227 0.0
C1129 C 0.40694 0.02137 0.13492 0.0
C1130 C 0.39053 0.02089 0.11765 0.0
C1131 C 0.385 0.99042 0.93668 0.0
C1132 C 0.38694 0.98655 0.96521 0.0
C1133 C 0.39788 0.98842 0.91558 0.0
C1134 C 0.41329 0.9827 0.92232 0.0
H1135 H 0.37389 0.99566 0.93066 0.0
H1136 H 0.39643 0.99228 0.89407 0.0
S1137 S 0.42345 0.9687 0.99289 0.0
N1138 N 0.40447 0.97497 0.99843 0.0
N1139 N 0.42871 0.97149 0.95873 0.0
C1140 C 0.41474 0.9778 0.95038 0.0
C1141 C 0.40153 0.97961 0.97183 0.0
C1142 C 0.9891 0.39602 0.93815 0.0
C1143 C 0.00648 0.39308 0.94493 0.0
C1144 C 0.99138 0.41074 0.9173 0.0
C1145 C 0.01109 0.42313 0.90218 0.0
H1146 H 0.97362 0.38716 0.94935 0.0
H1147 H 0.97769 0.41282 0.91349 0.0
S1148 S 0.06108 0.4204 0.91011 0.0
N1149 N 0.04385 0.40313 0.93387 0.0
N1150 N 0.04797 0.4306 0.89425 0.0
C1151 C 0.02849 0.42005 0.90824 0.0
C1152 C 0.02622 0.40509 0.92967 0.0
C1153 C 0.60553 0.62048 0.92775 0.0
C1154 C 0.59676 0.61995 0.95474 0.0
C1155 C 0.59182 0.60898 0.90452 0.0
C1156 C 0.56881 0.59647 0.90734 0.0
H1157 H 0.62316 0.62954 0.92458 0.0
H1158 H 0.59932 0.6096 0.88426 0.0
S1159 S 0.53747 0.58956 0.97335 0.0
N1160 N 0.56348 0.6061 0.98277 0.0
N1161 N 0.53781 0.58417 0.93924 0.0
C1162 C 0.55979 0.59619 0.93404 0.0
C1163 C 0.57373 0.608 0.95769 0.0
C1164 C 0.03221 0.62187 0.94302 0.0
C1165 C 0.01196 0.61695 0.9543 0.0
C1166 C 0.03317 0.60853 0.92105 0.0
C1167 C 0.01394 0.58941 0.91011 0.0
H1168 H 0.0474 0.63618 0.95115 0.0
H1169 H 0.04916 0.61317 0.91273 0.0
S1170 S 0.95688 0.56856 0.93454 0.0
N1171 N 0.97231 0.59172 0.95369 0.0
N1172 N 0.97403 0.56575 0.91374 0.0
C1173 C 0.99356 0.58428 0.9216 0.0
C1174 C 0.9926 0.59824 0.9434 0.0
C1175 C 0.40842 0.40754 0.9375 0.0
C1176 C 0.38661 0.40136 0.94326 0.0
C1177 C 0.42046 0.42217 0.91591 0.0
C1178 C 0.41123 0.43123 0.89904 0.0
H1179 H 0.41643 0.40118 0.94989 0.0
H1180 H 0.43731 0.42669 0.91268 0.0
S1181 S 0.35453 0.41986 0.90448 0.0
N1182 N 0.35608 0.40517 0.92984 0.0
N1183 N 0.3788 0.43258 0.88891 0.0
C1184 C 0.38942 0.42518 0.90436 0.0
C1185 C 0.37709 0.41025 0.92651 0.0
C1186 C 0.58596 0.97233 0.94336 0.0
C1187 C 0.60546 0.975 0.93192 0.0
C1188 C 0.57019 0.97226 0.92622 0.0
C1189 C 0.57312 0.97463 0.89688 0.0
H1190 H 0.58309 0.97105 0.96592 0.0
H1191 H 0.55576 0.9708 0.9361 0.0
S1192 S 0.62026 0.98052 0.85582 0.0
N1193 N 0.6261 0.97881 0.88887 0.0
N1194 N 0.59627 0.97861 0.85675 0.0
C1195 C 0.59193 0.97625 0.88486 0.0
C1196 C 0.60815 0.97647 0.90235 0.0
C1197 C 0.59933 0.02414 0.05688 0.0
C1198 C 0.61331 0.01608 0.06146 0.0
C1199 C 0.5878 0.02689 0.07915 0.0
C1200 C 0.58972 0.02166 0.10692 0.0
H1201 H 0.59674 0.0278 0.03578 0.0
H1202 H 0.57664 0.03237 0.07439 0.0
S1203 S 0.62582 0.00229 0.131 0.0
N1204 N 0.62964 0.00451 0.09652 0.0
N1205 N 0.60793 0.00979 0.13831 0.0
C1206 C 0.60429 0.01449 0.11209 0.0
C1207 C 0.61612 0.01172 0.08941 0.0
C1208 C 0.97544 0.60216 0.09297 0.0
C1209 C 0.9957 0.61643 0.07974 0.0
C1210 C 0.97306 0.58607 0.11197 0.0
C1211 C 0.99079 0.58354 0.1182 0.0
H1212 H 0.96138 0.60352 0.08876 0.0
H1213 H 0.95725 0.57562 0.12197 0.0
S1214 S 0.04661 0.61519 0.08681 0.0
N1215 N 0.03346 0.62614 0.07304 0.0
N1216 N 0.02879 0.59559 0.10793 0.0
C1217 C 0.01098 0.59742 0.10462 0.0
C1218 C 0.01348 0.61393 0.08561 0.0
C1219 C 0.40433 0.37534 0.08775 0.0
C1220 C 0.39345 0.38333 0.07206 0.0
C1221 C 0.4189 0.38842 0.10969 0.0
C1222 C 0.4232 0.41002 0.11671 0.0
H1223 H 0.4015 0.3588 0.08317 0.0
H1224 H 0.42682 0.38156 0.1213 0.0
S1225 S 0.4003 0.43948 0.08079 0.0
N1226 N 0.38873 0.41468 0.06448 0.0
N1227 N 0.41636 0.43929 0.10523 0.0
C1228 C 0.41263 0.41831 0.101 0.0
C1229 C 0.39772 0.40498 0.07881 0.0
C1230 C 0.65542 0.72257 0.41917 0.0
C1231 C 0.64973 0.72338 0.39108 0.0
C1232 C 0.65219 0.7344 0.44116 0.0
C1233 C 0.64307 0.74744 0.43601 0.0
H1234 H 0.66282 0.71307 0.42423 0.0
H1235 H 0.65711 0.73353 0.46235 0.0
S1236 S 0.62508 0.75506 0.36651 0.0
N1237 N 0.63402 0.73803 0.35957 0.0
N1238 N 0.62829 0.76044 0.40086 0.0
C1239 C 0.63683 0.74801 0.40821 0.0
C1240 C 0.64007 0.73594 0.38578 0.0
C1241 C 0.27765 0.9168 0.42057 0.0
C1242 C 0.29368 0.93903 0.42875 0.0
C1243 C 0.26367 0.90126 0.44039 0.0
C1244 C 0.26509 0.90728 0.46923 0.0
H1245 H 0.27538 0.91143 0.39853 0.0
H1246 H 0.25107 0.88463 0.43288 0.0
S1247 S 0.30566 0.96242 0.50235 0.0
N1248 N 0.3112 0.96569 0.46826 0.0
N1249 N 0.28489 0.9363 0.50545 0.0
C1250 C 0.2816 0.92909 0.47796 0.0
C1251 C 0.29592 0.94498 0.45777 0.0
C1252 C 0.08516 0.36816 0.40807 0.0
C1253 C 0.06568 0.36526 0.41989 0.0
C1254 C 0.10144 0.36903 0.42499 0.0
C1255 C 0.09905 0.36724 0.45444 0.0
H1256 H 0.08761 0.369 0.38542 0.0
H1257 H 0.11588 0.37067 0.41486 0.0
S1258 S 0.0521 0.36102 0.49635 0.0
N1259 N 0.04559 0.36188 0.46333 0.0
N1260 N 0.07634 0.36349 0.49502 0.0
C1261 C 0.0802 0.36535 0.46677 0.0
C1262 C 0.06349 0.36435 0.44953 0.0
C1263 C 0.04789 0.31926 0.26922 0.0
C1264 C 0.04988 0.31532 0.2977 0.0
C1265 C 0.05991 0.3162 0.24782 0.0
C1266 C 0.07447 0.3093 0.25424 0.0
H1267 H 0.0375 0.32545 0.26346 0.0
H1268 H 0.05859 0.32025 0.22637 0.0
S1269 S 0.08418 0.29448 0.32451 0.0
N1270 N 0.06634 0.30225 0.3305 0.0
N1271 N 0.08904 0.29685 0.29024 0.0
C1272 C 0.07584 0.30423 0.28223 0.0
C1273 C 0.06349 0.30711 0.30398 0.0
C1274 C 0.69934 0.75103 0.2732 0.0
C1275 C 0.69168 0.72882 0.26381 0.0
C1276 C 0.70183 0.76727 0.2545 0.0
C1277 C 0.69669 0.76197 0.22568 0.0
H1278 H 0.70288 0.75583 0.29535 0.0
H1279 H 0.70704 0.78389 0.2629 0.0
S1280 S 0.67836 0.7072 0.18952 0.0
N1281 N 0.68062 0.703 0.22305 0.0
N1282 N 0.68536 0.73363 0.18808 0.0
C1283 C 0.68991 0.74018 0.21572 0.0
C1284 C 0.68743 0.72361 0.23471 0.0
C1285 C 0.25963 0.96525 0.26508 0.0
C1286 C 0.2681 0.95493 0.28113 0.0
C1287 C 0.24526 0.9538 0.24232 0.0
C1288 C 0.23894 0.93167 0.23463 0.0
H1289 H 0.26412 0.98233 0.27006 0.0
H1290 H 0.23916 0.96238 0.23054 0.0
S1291 S 0.25531 0.8965 0.27048 0.0
N1292 N 0.26837 0.92082 0.28801 0.0
N1293 N 0.24133 0.89945 0.24549 0.0
C1294 C 0.24709 0.92107 0.25056 0.0
C1295 C 0.26166 0.93265 0.27372 0.0
C1296 C 0.68041 0.94905 0.26532 0.0
C1297 C 0.68459 0.94677 0.29358 0.0
C1298 C 0.6843 0.93792 0.2431 0.0
C1299 C 0.6927 0.92424 0.24824 0.0
H1300 H 0.67349 0.95901 0.26028 0.0
H1301 H 0.68035 0.93972 0.22176 0.0
S1302 S 0.70738 0.91333 0.31804 0.0
N1303 N 0.69853 0.93041 0.32522 0.0
N1304 N 0.70558 0.90937 0.28341 0.0
C1305 C 0.69766 0.92238 0.2762 0.0
C1306 C 0.69366 0.93366 0.29887 0.0
C1307 C 0.04874 0.74704 0.25843 0.0
C1308 C 0.05864 0.73789 0.27393 0.0
C1309 C 0.06022 0.76232 0.23702 0.0
C1310 C 0.08199 0.76896 0.23027 0.0
H1311 H 0.03195 0.7423 0.26273 0.0
H1312 H 0.05194 0.76886 0.22553 0.0
S1313 S 0.11603 0.75131 0.26571 0.0
N1314 N 0.09197 0.73745 0.28164 0.0
N1315 N 0.11345 0.76626 0.2417 0.0
C1316 C 0.09219 0.7602 0.2458 0.0
C1317 C 0.08055 0.74466 0.26754 0.0
C1318 C 0.26983 0.30583 0.24036 0.0
C1319 C 0.26772 0.3044 0.26998 0.0
C1320 C 0.2531 0.3042 0.22342 0.0
C1321 C 0.23376 0.30127 0.23551 0.0
H1322 H 0.28479 0.30892 0.23017 0.0
H1323 H 0.25573 0.30622 0.20085 0.0
S1324 S 0.21881 0.29403 0.31134 0.0
N1325 N 0.24364 0.29793 0.31025 0.0
N1326 N 0.21246 0.29504 0.27832 0.0
C1327 C 0.23092 0.29871 0.26482 0.0
C1328 C 0.24781 0.3002 0.28207 0.0
C1329 C 0.26895 0.35801 0.3866 0.0
C1330 C 0.28428 0.35205 0.39313 0.0
C1331 C 0.25658 0.36065 0.40776 0.0
C1332 C 0.25927 0.35776 0.43629 0.0
H1333 H 0.26575 0.35976 0.36487 0.0
H1334 H 0.24442 0.36448 0.40169 0.0
S1335 S 0.2985 0.34414 0.46507 0.0
N1336 N 0.30245 0.34481 0.43058 0.0
N1337 N 0.27917 0.34997 0.47034 0.0
C1338 C 0.27526 0.35295 0.44337 0.0
C1339 C 0.28776 0.35002 0.42178 0.0
C1340 C 0.64576 0.94596 0.44784 0.0
C1341 C 0.64153 0.94089 0.41874 0.0
C1342 C 0.64359 0.92985 0.46658 0.0
C1343 C 0.6369 0.90797 0.45701 0.0
H1344 H 0.65138 0.96269 0.4562 0.0
H1345 H 0.64745 0.93462 0.48869 0.0
S1346 S 0.62332 0.88576 0.38315 0.0
N1347 N 0.62973 0.91199 0.38149 0.0
N1348 N 0.62588 0.88193 0.4167 0.0
C1349 C 0.63206 0.90246 0.42816 0.0
C1350 C 0.63432 0.91884 0.40905 0.0
C1351 C 0.0655 0.75811 0.41054 0.0
C1352 C 0.0573 0.73564 0.40204 0.0
C1353 C 0.0806 0.76839 0.43274 0.0
C1354 C 0.08813 0.75666 0.44745 0.0
H1355 H 0.0604 0.76801 0.39982 0.0
H1356 H 0.08669 0.78584 0.43813 0.0
S1357 S 0.07103 0.69718 0.43475 0.0
N1358 N 0.05743 0.70173 0.4108 0.0
N1359 N 0.0857 0.72112 0.4528 0.0
C1360 C 0.07996 0.73413 0.43947 0.0
C1361 C 0.06456 0.7236 0.41675 0.0
C1362 C 0.29623 0.04127 0.75771 0.0
C1363 C 0.31489 0.04914 0.74035 0.0
C1364 C 0.2947 0.05548 0.77792 0.0
C1365 C 0.31178 0.07807 0.78151 0.0
H1366 H 0.28278 0.02394 0.75592 0.0
H1367 H 0.28016 0.04868 0.79105 0.0
S1368 S 0.36322 0.1076 0.73975 0.0
N1369 N 0.35029 0.08151 0.72716 0.0
N1370 N 0.34721 0.10807 0.76483 0.0
C1371 C 0.33029 0.08628 0.76393 0.0
C1372 C 0.3319 0.07187 0.74344 0.0
C1373 C 0.93078 0.2717 0.76188 0.0
C1374 C 0.95057 0.27475 0.75115 0.0
C1375 C 0.91846 0.25546 0.78182 0.0
C1376 C 0.92554 0.24178 0.7923 0.0
H1377 H 0.92443 0.2816 0.75436 0.0
H1378 H 0.90299 0.25336 0.78865 0.0
S1379 S 0.97717 0.24429 0.7726 0.0
N1380 N 0.97717 0.26334 0.75306 0.0
N1381 N 0.95438 0.23327 0.79147 0.0
C1382 C 0.94557 0.24495 0.78216 0.0
C1383 C 0.95799 0.26133 0.76141 0.0
C1384 C 0.74844 0.69927 0.73893 0.0
C1385 C 0.72864 0.6957 0.75057 0.0
C1386 C 0.76485 0.70047 0.75593 0.0
C1387 C 0.76228 0.69833 0.78533 0.0
H1388 H 0.75114 0.70055 0.71634 0.0
H1389 H 0.77956 0.70273 0.7459 0.0
S1390 S 0.71436 0.69006 0.82684 0.0
N1391 N 0.70797 0.6911 0.79381 0.0
N1392 N 0.73896 0.69336 0.82568 0.0
C1393 C 0.74305 0.69567 0.79751 0.0
C1394 C 0.72621 0.69435 0.78016 0.0
C1395 C 0.72248 0.66518 0.59489 0.0
C1396 C 0.70707 0.6465 0.61037 0.0
C1397 C 0.7362 0.66356 0.57494 0.0
C1398 C 0.73503 0.64318 0.56947 0.0
H1399 H 0.72444 0.68145 0.5987 0.0
H1400 H 0.7482 0.67854 0.56412 0.0
S1401 S 0.69679 0.5889 0.60269 0.0
N1402 N 0.69074 0.60657 0.61762 0.0
N1403 N 0.71672 0.60366 0.58003 0.0
C1404 C 0.7191 0.62411 0.58374 0.0
C1405 C 0.70508 0.62573 0.6042 0.0
C1406 C 0.36111 0.07205 0.59757 0.0
C1407 C 0.34121 0.06156 0.61273 0.0
C1408 C 0.36494 0.08699 0.57604 0.0
C1409 C 0.34899 0.09192 0.56883 0.0
H1410 H 0.37387 0.06877 0.60236 0.0
H1411 H 0.38048 0.0947 0.56491 0.0
S1412 S 0.29469 0.07004 0.60301 0.0
N1413 N 0.3056 0.05782 0.61936 0.0
N1414 N 0.31302 0.086 0.57934 0.0
C1415 C 0.32912 0.08168 0.5839 0.0
C1416 C 0.32517 0.06649 0.60572 0.0
C1417 C 0.93922 0.28194 0.59642 0.0
C1418 C 0.93039 0.2779 0.62393 0.0
C1419 C 0.92564 0.27225 0.57258 0.0
C1420 C 0.90271 0.25831 0.57529 0.0
H1421 H 0.95681 0.29238 0.59321 0.0
H1422 H 0.93316 0.27556 0.55186 0.0
S1423 S 0.87119 0.24228 0.6423 0.0
N1424 N 0.89704 0.25904 0.65225 0.0
N1425 N 0.87171 0.24073 0.6075 0.0
C1426 C 0.89361 0.25437 0.60255 0.0
C1427 C 0.90739 0.26418 0.62684 0.0
C1428 C 0.35865 0.26642 0.62348 0.0
C1429 C 0.35059 0.28045 0.61843 0.0
C1430 C 0.36238 0.25516 0.6013 0.0
C1431 C 0.35818 0.25744 0.57312 0.0
H1432 H 0.36165 0.26361 0.64483 0.0
H1433 H 0.36789 0.24399 0.60637 0.0
S1434 S 0.33902 0.29373 0.54796 0.0
N1435 N 0.33992 0.29712 0.58267 0.0
N1436 N 0.34708 0.27596 0.54102 0.0
C1437 C 0.35088 0.27199 0.56756 0.0
C1438 C 0.34709 0.28353 0.59017 0.0
C1439 C 0.74323 0.0724 0.60081 0.0
C1440 C 0.72152 0.06617 0.60731 0.0
C1441 C 0.75503 0.08745 0.57948 0.0
C1442 C 0.74562 0.09686 0.56364 0.0
H1443 H 0.7514 0.06585 0.61252 0.0
H1444 H 0.77187 0.09208 0.57575 0.0
S1445 S 0.68888 0.08516 0.57088 0.0
N1446 N 0.69076 0.07006 0.59539 0.0
N1447 N 0.713 0.09821 0.55493 0.0
C1448 C 0.72383 0.09059 0.56952 0.0
C1449 C 0.71176 0.07526 0.5914 0.0
C1450 C 0.91543 0.63585 0.60838 0.0
C1451 C 0.93571 0.64089 0.59669 0.0
C1452 C 0.89885 0.63457 0.59165 0.0
C1453 C 0.90173 0.63804 0.56249 0.0
H1454 H 0.91248 0.63353 0.63085 0.0
H1455 H 0.88376 0.63122 0.60174 0.0
S1456 S 0.95096 0.65041 0.52085 0.0
N1457 N 0.9572 0.64832 0.55356 0.0
N1458 N 0.92587 0.64584 0.52222 0.0
C1459 C 0.92146 0.64215 0.55019 0.0
C1460 C 0.93848 0.64359 0.56726 0.0
C1461 C 0.94049 0.67002 0.75197 0.0
C1462 C 0.95732 0.6889 0.73815 0.0
C1463 C 0.92658 0.6719 0.77135 0.0
C1464 C 0.92893 0.69273 0.7778 0.0
H1465 H 0.93764 0.65347 0.74737 0.0
H1466 H 0.91357 0.65681 0.78098 0.0
S1467 S 0.97089 0.74753 0.74871 0.0
N1468 N 0.97611 0.72938 0.73335 0.0
N1469 N 0.94974 0.73278 0.76977 0.0
C1470 C 0.94617 0.71191 0.7651 0.0
C1471 C 0.96042 0.71003 0.74528 0.0
C1472 C 0.31543 0.27923 0.7772 0.0
C1473 C 0.31131 0.27402 0.7481 0.0
C1474 C 0.31351 0.26331 0.79609 0.0
C1475 C 0.3072 0.2415 0.78671 0.0
H1476 H 0.32068 0.29589 0.78546 0.0
H1477 H 0.31716 0.26818 0.81821 0.0
S1478 S 0.29418 0.21903 0.71292 0.0
N1479 N 0.30015 0.24509 0.71103 0.0
N1480 N 0.29673 0.2154 0.74655 0.0
C1481 C 0.30256 0.23587 0.75785 0.0
C1482 C 0.30457 0.25206 0.73856 0.0
C1483 C 0.73403 0.06804 0.74346 0.0
C1484 C 0.7278 0.04553 0.73851 0.0
C1485 C 0.74935 0.08147 0.7644 0.0
C1486 C 0.75909 0.073 0.78136 0.0
H1487 H 0.72719 0.07552 0.73089 0.0
H1488 H 0.75384 0.09877 0.76704 0.0
S1489 S 0.74782 0.01498 0.77819 0.0
N1490 N 0.73226 0.01521 0.75302 0.0
N1491 N 0.76093 0.04052 0.79266 0.0
C1492 C 0.75294 0.05051 0.77693 0.0
C1493 C 0.73732 0.03677 0.75549 0.0
C1494 C 0.03906 0.31584 0.0727 0.0
C1495 C 0.04647 0.33544 0.05738 0.0
C1496 C 0.05384 0.31178 0.08613 0.0
C1497 C 0.07659 0.32733 0.08515 0.0
H1498 H 0.02164 0.30347 0.07437 0.0
H1499 H 0.0474 0.29656 0.09784 0.0
S1500 S 0.10468 0.38096 0.04751 0.0
N1501 N 0.07825 0.37033 0.04153 0.0
N1502 N 0.10603 0.36276 0.06723 0.0
C1503 C 0.08432 0.34689 0.06978 0.0
C1504 C 0.06927 0.35091 0.05573 0.0
C1505 C 0.67032 0.71482 0.05809 0.0
C1506 C 0.66165 0.7106 0.0305 0.0
C1507 C 0.67562 0.73445 0.07335 0.0
C1508 C 0.67244 0.75064 0.06168 0.0
H1509 H 0.67283 0.70275 0.06826 0.0
H1510 H 0.68183 0.73674 0.0947 0.0
S1511 S 0.65165 0.74867 0.98978 0.0
N1512 N 0.65102 0.72491 0.99176 0.0
N1513 N 0.66117 0.76191 0.02055 0.0
C1514 C 0.6642 0.74695 0.034 0.0
C1515 C 0.65879 0.72692 0.01838 0.0
C1516 C 0.28942 0.96576 0.05981 0.0
C1517 C 0.29127 0.96304 0.03048 0.0
C1518 C 0.26995 0.95143 0.07428 0.0
C1519 C 0.25165 0.93369 0.06006 0.0
H1520 H 0.30311 0.97911 0.0718 0.0
H1521 H 0.26936 0.95399 0.09688 0.0
S1522 S 0.24746 0.91953 0.9834 0.0
N1523 N 0.27272 0.94138 0.9877 0.0
N1524 N 0.23615 0.91444 0.01507 0.0
C1525 C 0.25311 0.93083 0.03078 0.0
C1526 C 0.27289 0.94551 0.01595 0.0
C1527 C 0.34994 0.07187 0.96784 0.0
C1528 C 0.33413 0.05759 0.98751 0.0
C1529 C 0.34646 0.08589 0.9513 0.0
C1530 C 0.32698 0.0861 0.95361 0.0
H1531 H 0.3651 0.07214 0.96494 0.0
H1532 H 0.35899 0.09643 0.93626 0.0
S1533 S 0.28082 0.05295 0.0027 0.0
N1534 N 0.29845 0.0452 0.00889 0.0
N1535 N 0.29208 0.07166 0.97778 0.0
C1536 C 0.31116 0.07221 0.97339 0.0
C1537 C 0.31471 0.05798 0.99037 0.0
C1538 C 0.9356 0.27115 0.00398 0.0
C1539 C 0.95416 0.2889 0.99084 0.0
C1540 C 0.92047 0.25165 0.98867 0.0
C1541 C 0.92342 0.24906 0.9597 0.0
H1542 H 0.93258 0.27232 0.02626 0.0
H1543 H 0.90637 0.23844 0.9996 0.0
S1544 S 0.96881 0.29049 0.9149 0.0
N1545 N 0.97438 0.30251 0.94673 0.0
N1546 N 0.94584 0.26587 0.91821 0.0
C1547 C 0.94185 0.26654 0.94626 0.0
C1548 C 0.95723 0.28646 0.96175 0.0
C1549 C 0.72752 0.6885 0.95757 0.0
C1550 C 0.71244 0.66779 0.96963 0.0
C1551 C 0.74664 0.69207 0.94424 0.0
C1552 C 0.75127 0.67499 0.94219 0.0
H1553 H 0.72451 0.70209 0.95822 0.0
H1554 H 0.75761 0.70814 0.93485 0.0
S1555 S 0.71787 0.61809 0.97116 0.0
N1556 N 0.70397 0.63019 0.97943 0.0
N1557 N 0.73994 0.63699 0.9541 0.0
C1558 C 0.73663 0.65435 0.9545 0.0
C1559 C 0.71723 0.65075 0.96835 0.0
C1560 C 0.93388 0.66363 0.97502 0.0
C1561 C 0.95117 0.66426 0.95965 0.0
C1562 C 0.91882 0.66756 0.96192 0.0
C1563 C 0.92032 0.67183 0.93293 0.0
H1564 H 0.93218 0.66048 0.99742 0.0
H1565 H 0.90583 0.6671 0.97449 0.0
S1566 S 0.96216 0.67494 0.88307 0.0
N1567 N 0.96865 0.66931 0.91366 0.0
N1568 N 0.94027 0.67651 0.88924 0.0
C1569 C 0.93732 0.67227 0.91727 0.0
C1570 C 0.95277 0.66853 0.93059 0.0
C1571 C 0.32832 0.29181 0.95916 0.0
C1572 C 0.33245 0.29382 0.98843 0.0
C1573 C 0.32467 0.27296 0.9433 0.0
C1574 C 0.32532 0.25556 0.95601 0.0
H1575 H 0.32773 0.30483 0.94833 0.0
H1576 H 0.32166 0.27217 0.92082 0.0
S1577 S 0.33518 0.2523 0.03178 0.0
N1578 N 0.33669 0.27649 0.02949 0.0
N1579 N 0.33001 0.24112 0.99946 0.0
C1580 C 0.32938 0.25723 0.98518 0.0
C1581 C 0.33286 0.27634 0.00146 0.0
C1582 C 0.71512 0.04479 0.96988 0.0
C1583 C 0.6966 0.04617 0.96432 0.0
C1584 C 0.73563 0.0596 0.95786 0.0
C1585 C 0.73848 0.07646 0.93993 0.0
H1586 H 0.71384 0.03214 0.98365 0.0
H1587 H 0.74944 0.05801 0.9629 0.0
S1588 S 0.69533 0.08682 0.91737 0.0
N1589 N 0.68252 0.06559 0.93884 0.0
N1590 N 0.72109 0.09331 0.91624 0.0
C1591 C 0.72017 0.07801 0.93397 0.0
C1592 C 0.69924 0.06291 0.94615 0.0
C1593 C 0.65966 0.9361 0.04428 0.0
C1594 C 0.66351 0.95561 0.05897 0.0
C1595 C 0.664 0.92101 0.05681 0.0
C1596 C 0.67231 0.92485 0.0845 0.0
H1597 H 0.65351 0.93254 0.0228 0.0
H1598 H 0.6611 0.90637 0.04459 0.0
S1599 S 0.68341 0.97231 0.13296 0.0
N1600 N 0.67506 0.97728 0.10337 0.0
N1601 N 0.68292 0.94877 0.12687 0.0
C1602 C 0.67582 0.94403 0.09963 0.0
C1603 C 0.67148 0.95943 0.08689 0.0
C1604 C 0.06869 0.71811 0.0404 0.0
C1605 C 0.04848 0.71348 0.02977 0.0
C1606 C 0.08292 0.73841 0.05484 0.0
C1607 C 0.07769 0.75506 0.0587 0.0
H1608 H 0.07326 0.70568 0.03836 0.0
H1609 H 0.09796 0.74085 0.06351 0.0
S1610 S 0.02755 0.75178 0.03206 0.0
N1611 N 0.02422 0.7273 0.02274 0.0
N1612 N 0.05146 0.76602 0.04862 0.0
C1613 C 0.05775 0.75083 0.04731 0.0
C1614 C 0.04305 0.72993 0.03313 0.0
C1615 C 0.26022 0.30992 0.04041 0.0
C1616 C 0.27669 0.3318 0.03305 0.0
C1617 C 0.2424 0.30605 0.05734 0.0
C1618 C 0.24031 0.3239 0.06742 0.0
H1619 H 0.26143 0.29568 0.03386 0.0
H1620 H 0.23051 0.28901 0.06325 0.0
S1621 S 0.2774 0.38401 0.05118 0.0
N1622 N 0.2888 0.37137 0.03527 0.0
N1623 N 0.25504 0.36401 0.0666 0.0
C1624 C 0.25613 0.34575 0.05921 0.0
C1625 C 0.27437 0.34972 0.04213 0.0
C1626 C 0.73292 0.68368 0.38566 0.0
C1627 C 0.71053 0.66657 0.38379 0.0
C1628 C 0.74817 0.68028 0.39919 0.0
C1629 C 0.74167 0.65956 0.41097 0.0
H1630 H 0.73868 0.69998 0.37706 0.0
H1631 H 0.76519 0.69396 0.40038 0.0
S1632 S 0.68526 0.60917 0.41151 0.0
N1633 N 0.68278 0.62795 0.39471 0.0
N1634 N 0.71152 0.6217 0.41999 0.0
C1635 C 0.71947 0.64222 0.40895 0.0
C1636 C 0.70389 0.6457 0.39542 0.0
C1637 C 0.33499 0.04207 0.39723 0.0
C1638 C 0.33401 0.04066 0.36751 0.0
C1639 C 0.33979 0.06175 0.41204 0.0
C1640 C 0.34338 0.08057 0.39768 0.0
H1641 H 0.33229 0.02794 0.4092 0.0
H1642 H 0.34037 0.06215 0.4349 0.0
S1643 S 0.34253 0.08565 0.32019 0.0
N1644 N 0.33712 0.05994 0.32432 0.0
N1645 N 0.34574 0.09682 0.35234 0.0
C1646 C 0.34235 0.07943 0.36807 0.0
C1647 C 0.3378 0.05951 0.35292 0.0
C1648 C 0.94395 0.27377 0.35704 0.0
C1649 C 0.96148 0.2929 0.37067 0.0
C1650 C 0.92489 0.25871 0.37178 0.0
C1651 C 0.92256 0.26228 0.40064 0.0
H1652 H 0.9449 0.27032 0.33479 0.0
H1653 H 0.91178 0.24426 0.36042 0.0
S1654 S 0.96369 0.30918 0.44663 0.0
N1655 N 0.97528 0.31423 0.41515 0.0
N1656 N 0.93943 0.2858 0.44264 0.0
C1657 C 0.93989 0.28121 0.41462 0.0
C1658 C 0.95936 0.29652 0.39971 0.0
C1659 C 0.01664 0.4029 0.29813 0.0
C1660 C 1e-05 0.38804 0.31655 0.0
C1661 C 0.01401 0.41763 0.2819 0.0
C1662 C 0.99464 0.41809 0.28339 0.0
H1663 H 0.03177 0.40302 0.29587 0.0
H1664 H 0.02714 0.42855 0.26776 0.0
S1665 S 0.94669 0.38389 0.32957 0.0
N1666 N 0.96376 0.37549 0.33613 0.0
N1667 N 0.95901 0.40337 0.3057 0.0
C1668 C 0.97801 0.40366 0.302 0.0
C1669 C 0.98067 0.38863 0.31859 0.0
C1670 C 0.62119 0.62561 0.29231 0.0
C1671 C 0.61814 0.62957 0.32088 0.0
C1672 C 0.60577 0.60582 0.27779 0.0
C1673 C 0.58667 0.58919 0.29121 0.0
H1674 H 0.63553 0.63797 0.28089 0.0
H1675 H 0.60866 0.6037 0.25572 0.0
S1676 S 0.57138 0.59046 0.36611 0.0
N1677 N 0.59478 0.61462 0.3623 0.0
N1678 N 0.56596 0.57735 0.33496 0.0
C1679 C 0.5835 0.59271 0.31982 0.0
C1680 C 0.59919 0.61289 0.33465 0.0
C1681 C 0.37588 0.99531 0.27024 0.0
C1682 C 0.36982 0.98696 0.29767 0.0
C1683 C 0.3959 0.0002 0.25837 0.0
C1684 C 0.41061 0.99679 0.27335 0.0
H1685 H 0.36512 0.99818 0.25772 0.0
H1686 H 0.39976 0.00641 0.23711 0.0
S1687 S 0.40309 0.97578 0.34596 0.0
N1688 N 0.3805 0.97581 0.33963 0.0
N1689 N 0.41818 0.98505 0.31714 0.0
C1690 C 0.4049 0.98853 0.30077 0.0
C1691 C 0.38452 0.98364 0.31298 0.0
C1692 C 0.60161 0.98378 0.29354 0.0
C1693 C 0.61533 0.00054 0.31361 0.0
C1694 C 0.58674 0.98592 0.27714 0.0
C1695 C 0.58506 0.00495 0.28005 0.0
H1696 H 0.6025 0.96895 0.29014 0.0
H1697 H 0.57674 0.97276 0.26171 0.0
S1698 S 0.61588 0.05287 0.33077 0.0
N1699 N 0.62536 0.03639 0.33628 0.0
N1700 N 0.59732 0.04024 0.30547 0.0
C1701 C 0.59828 0.02161 0.30035 0.0
C1702 C 0.6134 0.01944 0.31714 0.0
C1703 C 0.00089 0.62774 0.28771 0.0
C1704 C 0.00703 0.63133 0.31643 0.0
C1705 C 0.99705 0.60852 0.27264 0.0
C1706 C -0.00074 0.59212 0.28561 0.0
H1707 H -0.00084 0.63995 0.27657 0.0
H1708 H 0.99271 0.60668 0.25048 0.0
S1709 S 0.01377 0.59259 0.36054 0.0
N1710 N 0.01441 0.61629 0.35745 0.0
N1711 N 0.00702 0.58006 0.32901 0.0
C1712 C 0.00507 0.59523 0.31434 0.0
C1713 C 0.00898 0.61484 0.32977 0.0
C1714 C 0.37493 0.37681 0.2904 0.0
C1715 C 0.37246 0.38049 0.31928 0.0
C1716 C 0.39376 0.39206 0.27546 0.0
C1717 C 0.41081 0.41166 0.28875 0.0
H1718 H 0.36223 0.36199 0.27912 0.0
H1719 H 0.39485 0.38862 0.25323 0.0
S1720 S 0.41308 0.42901 0.36404 0.0
N1721 N 0.38912 0.40519 0.36066 0.0
N1722 N 0.42453 0.43372 0.33249 0.0
C1723 C 0.4087 0.41557 0.31757 0.0
C1724 C 0.38954 0.40002 0.33285 0.0
C1725 C 0.32271 0.26876 0.38771 0.0
C1726 C 0.33962 0.28595 0.37177 0.0
C1727 C 0.3262 0.254 0.4026 0.0
C1728 C 0.34671 0.25579 0.40208 0.0
H1729 H 0.30672 0.26688 0.38918 0.0
H1730 H 0.31281 0.2413 0.41499 0.0
S1731 S 0.39589 0.29663 0.36176 0.0
N1732 N 0.37739 0.30317 0.35529 0.0
N1733 N 0.38376 0.27518 0.38298 0.0
C1734 C 0.36363 0.27257 0.38577 0.0
C1735 C 0.36012 0.28767 0.37067 0.0
C1736 C 0.71333 0.05264 0.37733 0.0
C1737 C 0.71419 0.03368 0.38387 0.0
C1738 C 0.72893 0.07407 0.38812 0.0
C1739 C 0.74604 0.0774 0.40578 0.0
H1740 H 0.70052 0.051 0.36372 0.0
H1741 H 0.72768 0.08818 0.38243 0.0
S1742 S 0.75522 0.03345 0.43065 0.0
N1743 N 0.7334 0.01975 0.40996 0.0
N1744 N 0.76254 0.06002 0.43034 0.0
C1745 C 0.74707 0.05866 0.41269 0.0
C1746 C 0.73119 0.03682 0.40174 0.0
C1747 C 0.95355 0.67128 0.41417 0.0
C1748 C 0.95774 0.6765 0.38543 0.0
C1749 C 0.93393 0.66685 0.42687 0.0
C1750 C 0.91761 0.66721 0.41125 0.0
H1751 H 0.96558 0.67074 0.42713 0.0
H1752 H 0.93141 0.66292 0.44906 0.0
S1753 S 0.92024 0.67992 0.33548 0.0
N1754 N 0.94379 0.68181 0.34174 0.0
N1755 N 0.9068 0.67331 0.36575 0.0
C1756 C 0.92144 0.67229 0.38253 0.0
C1757 C 0.94155 0.67703 0.3696 0.0
C1758 C 0.39785 0.01115 0.71829 0.0
C1759 C 0.3822 0.01291 0.73464 0.0
C1760 C 0.41316 0.00734 0.73084 0.0
C1761 C 0.41356 0.00539 0.76024 0.0
H1762 H 0.39819 0.01251 0.69556 0.0
H1763 H 0.42489 0.00608 0.71747 0.0
S1764 S 0.37616 0.00841 0.81265 0.0
N1765 N 0.36815 0.01227 0.78203 0.0
N1766 N 0.39687 0.00506 0.80536 0.0
C1767 C 0.39812 0.00717 0.77686 0.0
C1768 C 0.38246 0.01092 0.76414 0.0
C1769 C 0.96908 0.37183 0.7171 0.0
C1770 C 0.98572 0.36981 0.70405 0.0
C1771 C 0.97402 0.3916 0.73179 0.0
C1772 C 0.99574 0.41023 0.73359 0.0
H1773 H 0.9522 0.3578 0.71674 0.0
H1774 H 0.96074 0.39208 0.74232 0.0
S1775 S 0.04485 0.41416 0.70017 0.0
N1776 N 0.02452 0.38834 0.69236 0.0
N1777 N 0.03374 0.42589 0.71896 0.0
C1778 C 0.01242 0.40864 0.71975 0.0
C1779 C 0.00742 0.38834 0.7052 0.0
C1780 C 0.63395 0.60746 0.7363 0.0
C1781 C 0.63604 0.62308 0.71663 0.0
C1782 C 0.61356 0.59216 0.74824 0.0
C1783 C 0.59446 0.59193 0.74109 0.0
H1784 H 0.64821 0.60715 0.74283 0.0
H1785 H 0.6128 0.58068 0.76359 0.0
S1786 S 0.5905 0.62818 0.68946 0.0
N1787 N 0.61682 0.63661 0.68972 0.0
N1788 N 0.57857 0.60775 0.71218 0.0
C1789 C 0.59616 0.60712 0.72116 0.0
C1790 C 0.61691 0.62269 0.7089 0.0
C1791 C 0.67462 0.73464 0.63962 0.0
C1792 C 0.67019 0.71492 0.62492 0.0
C1793 C 0.67074 0.75009 0.62717 0.0
C1794 C 0.66232 0.74642 0.59956 0.0
H1795 H 0.68091 0.7381 0.66102 0.0
H1796 H 0.67408 0.76489 0.63941 0.0
S1797 S 0.6497 0.69847 0.55111 0.0
N1798 N 0.65791 0.69319 0.5806 0.0
N1799 N 0.65095 0.72239 0.55725 0.0
C1800 C 0.65821 0.72702 0.58443 0.0
C1801 C 0.66207 0.71125 0.59709 0.0
C1802 C 0.29024 0.95284 0.6355 0.0
C1803 C 0.28877 0.95569 0.66486 0.0
C1804 C 0.2743 0.93339 0.62093 0.0
C1805 C 0.2561 0.91617 0.63507 0.0
H1806 H 0.30386 0.96573 0.62358 0.0
H1807 H 0.27598 0.93201 0.5983 0.0
S1808 S 0.24453 0.91495 0.71173 0.0
N1809 N 0.26772 0.93927 0.7076 0.0
N1810 N 0.23758 0.9028 0.67997 0.0
C1811 C 0.25441 0.91863 0.66437 0.0
C1812 C 0.27081 0.93835 0.67934 0.0
C1813 C 0.06437 0.35659 0.62706 0.0
C1814 C 0.04905 0.33572 0.63859 0.0
C1815 C 0.08361 0.36025 0.61392 0.0
C1816 C 0.08817 0.34311 0.61157 0.0
H1817 H 0.06143 0.37023 0.6279 0.0
H1818 H 0.09471 0.37642 0.60485 0.0
S1819 S 0.05431 0.28587 0.63948 0.0
N1820 N 0.04039 0.29795 0.64776 0.0
N1821 N 0.07657 0.30493 0.6229 0.0
C1822 C 0.07334 0.32235 0.62349 0.0
C1823 C 0.0538 0.31863 0.63708 0.0
C1824 C 0.2953 0.35523 0.61759 0.0
C1825 C 0.28873 0.33465 0.62999 0.0
C1826 C 0.28007 0.35878 0.60437 0.0
C1827 C 0.2577 0.34181 0.60277 0.0
H1828 H 0.31239 0.36879 0.61797 0.0
H1829 H 0.28592 0.3748 0.59487 0.0
S1830 S 0.23166 0.28518 0.63264 0.0
N1831 N 0.25801 0.29722 0.64041 0.0
N1832 N 0.22946 0.30398 0.61543 0.0
C1833 C 0.25079 0.32125 0.6153 0.0
C1834 C 0.26626 0.31766 0.62899 0.0
C1835 C 0.64747 0.93628 0.65984 0.0
C1836 C 0.66465 0.95814 0.65355 0.0
C1837 C 0.64447 0.91756 0.64413 0.0
C1838 C 0.65877 0.92003 0.62192 0.0
H1839 H 0.63591 0.93362 0.67656 0.0
H1840 H 0.63089 0.90104 0.64939 0.0
S1841 S 0.70661 0.97341 0.59735 0.0
N1842 N 0.69642 0.98102 0.62378 0.0
N1843 N 0.69075 0.94581 0.59449 0.0
C1844 C 0.67622 0.94168 0.61573 0.0
C1845 C 0.67916 0.96074 0.63148 0.0
C1846 C 0.04486 0.71362 0.63671 0.0
C1847 C 0.02614 0.71486 0.63205 0.0
C1848 C 0.06536 0.7293 0.62542 0.0
C1849 C 0.06803 0.74695 0.6092 0.0
H1850 H 0.04371 0.70033 0.64904 0.0
H1851 H 0.07928 0.72767 0.62957 0.0
S1852 S 0.02448 0.75771 0.5901 0.0
N1853 N 0.01176 0.73526 0.60965 0.0
N1854 N 0.05037 0.76467 0.58845 0.0
C1855 C 0.04958 0.74852 0.60438 0.0
C1856 C 0.02864 0.73249 0.61577 0.0
C1857 C 0.99137 0.60248 0.70665 0.0
C1858 C 0.99482 0.62157 0.72205 0.0
C1859 C 0.99524 0.58694 0.71882 0.0
C1860 C 0.00266 0.58987 0.74687 0.0
H1861 H 0.98575 0.59954 0.68494 0.0
H1862 H 0.9925 0.57256 0.70612 0.0
S1863 S 0.01273 0.63609 0.797 0.0
N1864 N 0.00533 0.64202 0.76735 0.0
N1865 N 0.01222 0.61261 0.7902 0.0
C1866 C 0.00595 0.60872 0.76262 0.0
C1867 C 0.00212 0.6246 0.75023 0.0
C1868 C 0.39871 0.37044 0.73036 0.0
C1869 C 0.38211 0.36774 0.71208 0.0
C1870 C 0.41428 0.39154 0.74205 0.0
C1871 C 0.41388 0.41079 0.73594 0.0
H1872 H 0.39959 0.35612 0.73603 0.0
H1873 H 0.42649 0.39272 0.75641 0.0
S1874 S 0.3749 0.41328 0.68789 0.0
N1875 N 0.36687 0.38649 0.68753 0.0
N1876 N 0.3963 0.42611 0.70936 0.0
C1877 C 0.39766 0.40847 0.71735 0.0
C1878 C 0.38177 0.38698 0.70544 0.0
C1879 C 0.59493 0.98113 0.7023 0.0
C1880 C 0.61292 0.00254 0.69609 0.0
C1881 C 0.57768 0.97863 0.71945 0.0
C1882 C 0.5777 0.99743 0.73076 0.0
H1883 H 0.59453 0.96619 0.69476 0.0
H1884 H 0.56457 0.96182 0.72455 0.0
S1885 S 0.61953 0.05709 0.71745 0.0
N1886 N 0.62887 0.04284 0.70057 0.0
N1887 N 0.59614 0.03813 0.73206 0.0
C1888 C 0.5951 0.01891 0.72356 0.0
C1889 C 0.61277 0.02146 0.70639 0.0
loop_
_geom_bond_atom_site_label_1
_geom_bond_atom_site_label_2
_geom_bond_distance
_geom_bond_site_symmetry_2
_ccdc_geom_bond_type
C0 O1 1.160 . S
C0 O7 1.185 . S
O1 C0 1.160 . S
O2 Zn3 1.899 1_656 S
O2 C10 1.284 . S
Zn3 O2 1.899 1_454 S
Zn3 O4 2.032 . S
Zn3 O7 2.086 . S
Zn3 O12 1.977 1_554 S
O4 Zn3 2.032 . S
O4 C8 1.278 1_455 S
C5 O6 1.203 1_455 S
C5 O12 1.267 . S
O6 C5 1.203 1_655 S
O7 C0 1.185 . S
O7 Zn3 2.086 . S
C8 O4 1.278 1_655 S
C8 O9 1.211 . S
O9 C8 1.211 . S
C10 O2 1.284 . S
C10 O11 1.273 1_556 S
O11 C10 1.273 1_554 S
O12 Zn3 1.977 1_556 S
O12 C5 1.267 . S
C13 O14 1.160 . S
C13 O20 1.185 1_556 S
O14 C13 1.160 . S
O15 Zn16 1.899 . S
O15 C23 1.284 . S
Zn16 O15 1.899 . S
Zn16 O17 2.032 1_554 S
Zn16 O20 2.086 . S
Zn16 O25 1.977 . S
O17 Zn16 2.032 1_556 S
O17 C21 1.278 . S
C18 O19 1.203 . S
C18 O25 1.267 . S
O19 C18 1.203 . S
O20 C13 1.185 1_554 S
O20 Zn16 2.086 . S
C21 O17 1.278 . S
C21 O22 1.211 . S
O22 C21 1.211 . S
C23 O15 1.284 . S
C23 O24 1.273 . S
O24 C23 1.273 . S
O25 Zn16 1.977 . S
O25 C18 1.267 . S
C26 O27 1.160 . S
C26 O33 1.185 1_556 S
O27 C26 1.160 . S
O28 Zn29 1.899 1_565 S
O28 C36 1.284 . S
Zn29 O28 1.899 1_545 S
Zn29 O30 2.032 1_554 S
Zn29 O33 2.086 . S
Zn29 O38 1.977 . S
O30 Zn29 2.032 1_556 S
O30 C34 1.278 1_545 S
C31 O32 1.203 1_545 S
C31 O38 1.267 . S
O32 C31 1.203 1_565 S
O33 C26 1.185 1_554 S
O33 Zn29 2.086 . S
C34 O30 1.278 1_565 S
C34 O35 1.211 . S
O35 C34 1.211 . S
C36 O28 1.284 . S
C36 O37 1.273 . S
O37 C36 1.273 . S
O38 Zn29 1.977 . S
O38 C31 1.267 . S
C39 O40 1.160 . S
C39 O46 1.185 1_556 S
O40 C39 1.160 . S
O41 Zn42 1.899 1_455 S
O41 C49 1.284 . S
Zn42 O41 1.899 1_655 S
Zn42 O43 2.033 1_654 S
Zn42 O46 2.086 . S
Zn42 O51 1.977 . S
O43 Zn42 2.033 1_456 S
O43 C47 1.274 . S
C44 O45 1.203 1_655 S
C44 O51 1.267 . S
O45 C44 1.203 1_455 S
O46 C39 1.185 1_554 S
O46 Zn42 2.086 . S
C47 O43 1.274 . S
C47 O48 1.211 . S
O48 C47 1.211 . S
C49 O41 1.284 . S
C49 O50 1.273 . S
O50 C49 1.273 . S
O51 Zn42 1.977 . S
O51 C44 1.267 . S
C52 O53 1.160 . S
C52 O59 1.185 . S
O53 C52 1.160 . S
O54 Zn55 1.899 1_556 S
O54 C62 1.284 . S
Zn55 O54 1.899 1_554 S
Zn55 O56 2.032 . S
Zn55 O59 2.086 . S
Zn55 O64 1.977 1_554 S
O56 Zn55 2.032 . S
O56 C60 1.278 . S
C57 O58 1.203 . S
C57 O64 1.267 . S
O58 C57 1.203 . S
O59 C52 1.185 . S
O59 Zn55 2.086 . S
C60 O56 1.278 . S
C60 O61 1.211 . S
O61 C60 1.211 . S
C62 O54 1.284 . S
C62 O63 1.273 1_556 S
O63 C62 1.273 1_554 S
O64 Zn55 1.977 1_556 S
O64 C57 1.267 . S
C65 O66 1.160 . S
C65 O72 1.185 . S
O66 C65 1.160 . S
O67 Zn68 1.899 1_546 S
O67 C75 1.284 . S
Zn68 O67 1.899 1_564 S
Zn68 O69 2.020 1_565 S
Zn68 O72 2.086 . S
Zn68 O77 1.977 1_554 S
O69 Zn68 2.020 1_545 S
O69 C73 1.311 . S
C70 O71 1.203 1_565 S
C70 O77 1.267 . S
O71 C70 1.203 1_545 S
O72 C65 1.185 . S
O72 Zn68 2.086 . S
C73 O69 1.311 . S
C73 O74 1.211 . S
O74 C73 1.211 . S
C75 O67 1.284 . S
C75 O76 1.273 1_556 S
O76 C75 1.273 1_554 S
O77 Zn68 1.977 1_556 S
O77 C70 1.267 . S
C78 O79 1.160 . S
C78 O85 1.185 . S
O79 C78 1.160 . S
O80 Zn81 1.899 . S
O80 C88 1.284 . S
Zn81 O80 1.899 . S
Zn81 O82 2.032 . S
Zn81 O85 2.086 . S
Zn81 O90 1.977 . S
O82 Zn81 2.032 . S
O82 C86 1.278 . S
C83 O84 1.203 . S
C83 O90 1.267 . S
O84 C83 1.203 . S
O85 C78 1.185 . S
O85 Zn81 2.086 . S
C86 O82 1.278 . S
C86 O87 1.211 . S
O87 C86 1.211 . S
C88 O80 1.284 . S
C88 O89 1.273 . S
O89 C88 1.273 . S
O90 Zn81 1.977 . S
O90 C83 1.267 . S
C91 O92 1.160 1_565 S
C91 O98 1.185 . S
O92 C91 1.160 1_545 S
O93 Zn94 1.899 1_545 S
O93 C101 1.284 . S
Zn94 O93 1.899 1_565 S
Zn94 O95 2.032 . S
Zn94 O98 2.086 . S
Zn94 O103 1.977 . S
O95 Zn94 2.032 . S
O95 C99 1.278 . S
C96 O97 1.203 . S
C96 O103 1.267 . S
O97 C96 1.203 . S
O98 C91 1.185 . S
O98 Zn94 2.086 . S
C99 O95 1.278 . S
C99 O100 1.211 . S
O100 C99 1.211 . S
C101 O93 1.284 . S
C101 O102 1.273 . S
O102 C101 1.273 . S
O103 Zn94 1.977 . S
O103 C96 1.267 . S
C104 O105 1.160 1_455 S
C104 O111 1.185 . S
O105 C104 1.160 1_655 S
O106 Zn107 1.899 1_655 S
O106 C114 1.284 . S
Zn107 O106 1.899 1_455 S
Zn107 O108 2.032 . S
Zn107 O111 2.086 . S
Zn107 O116 1.977 . S
O108 Zn107 2.032 . S
O108 C112 1.278 . S
C109 O110 1.203 . S
C109 O116 1.267 . S
O110 C109 1.203 . S
O111 C104 1.185 . S
O111 Zn107 2.086 . S
C112 O108 1.278 . S
C112 O113 1.211 . S
O113 C112 1.211 . S
C114 O106 1.284 . S
C114 O115 1.273 . S
O115 C114 1.273 . S
O116 Zn107 1.977 . S
O116 C109 1.267 . S
C117 O118 1.160 1_565 S
C117 O124 1.185 . S
O118 C117 1.160 1_545 S
O119 Zn120 1.899 1_545 S
O119 C127 1.284 . S
Zn120 O119 1.899 1_565 S
Zn120 O121 2.032 . S
Zn120 O124 2.086 . S
Zn120 O129 1.977 . S
O121 Zn120 2.032 . S
O121 C125 1.278 . S
C122 O123 1.203 . S
C122 O129 1.267 . S
O123 C122 1.203 . S
O124 C117 1.185 . S
O124 Zn120 2.086 . S
C125 O121 1.278 . S
C125 O126 1.211 . S
O126 C125 1.211 . S
C127 O119 1.284 . S
C127 O128 1.273 . S
O128 C127 1.273 . S
O129 Zn120 1.977 . S
O129 C122 1.267 . S
C130 O131 1.160 . S
C130 O137 1.185 . S
O131 C130 1.160 . S
O132 Zn133 1.889 . S
O132 C140 1.327 . S
Zn133 O132 1.889 . S
Zn133 O134 2.032 . S
Zn133 O137 2.086 1_455 S
Zn133 O142 1.977 . S
O134 Zn133 2.032 . S
O134 C138 1.278 . S
C135 O136 1.203 . S
C135 O142 1.267 . S
O136 C135 1.203 . S
O137 C130 1.185 . S
O137 Zn133 2.086 1_655 S
C138 O134 1.278 . S
C138 O139 1.211 . S
O139 C138 1.211 . S
C140 O132 1.327 . S
C140 O141 1.273 . S
O141 C140 1.273 . S
O142 Zn133 1.977 . S
O142 C135 1.267 . S
C143 O144 1.160 . S
C143 O150 1.185 . S
O144 C143 1.160 . S
O145 Zn146 1.899 . S
O145 C153 1.284 . S
Zn146 O145 1.899 . S
Zn146 O147 2.032 . S
Zn146 O150 2.086 . S
Zn146 O155 1.977 . S
O147 Zn146 2.032 . S
O147 C151 1.278 . S
C148 O149 1.203 . S
C148 O155 1.267 . S
O149 C148 1.203 . S
O150 C143 1.185 . S
O150 Zn146 2.086 . S
C151 O147 1.278 . S
C151 O152 1.211 . S
O152 C151 1.211 . S
C153 O145 1.284 . S
C153 O154 1.273 . S
O154 C153 1.273 . S
O155 Zn146 1.977 . S
O155 C148 1.267 . S
C156 O157 1.160 1_545 S
C156 O163 1.185 . S
O157 C156 1.160 1_565 S
O158 Zn159 1.899 1_565 S
O158 C166 1.284 . S
Zn159 O158 1.899 1_545 S
Zn159 O160 2.032 . S
Zn159 O163 2.086 . S
Zn159 O168 1.977 . S
O160 Zn159 2.032 . S
O160 C164 1.278 . S
C161 O162 1.203 . S
C161 O168 1.267 . S
O162 C161 1.203 . S
O163 C156 1.185 . S
O163 Zn159 2.086 . S
C164 O160 1.278 . S
C164 O165 1.211 . S
O165 C164 1.211 . S
C166 O158 1.284 . S
C166 O167 1.273 . S
O167 C166 1.273 . S
O168 Zn159 1.977 . S
O168 C161 1.267 . S
C169 O170 1.160 . S
C169 O176 1.185 . S
O170 C169 1.160 . S
O171 Zn172 1.897 . S
O171 C179 1.293 . S
Zn172 O171 1.897 . S
Zn172 O173 2.032 . S
Zn172 O176 2.086 1_655 S
Zn172 O181 1.977 . S
O173 Zn172 2.032 . S
O173 C177 1.278 . S
C174 O175 1.203 . S
C174 O181 1.267 . S
O175 C174 1.203 . S
O176 C169 1.185 . S
O176 Zn172 2.086 1_455 S
C177 O173 1.278 . S
C177 O178 1.211 . S
O178 C177 1.211 . S
C179 O171 1.293 . S
C179 O180 1.273 . S
O180 C179 1.273 . S
O181 Zn172 1.977 . S
O181 C174 1.267 . S
C182 O183 1.160 . S
C182 O189 1.185 . S
O183 C182 1.160 . S
O184 Zn185 1.899 . S
O184 C192 1.284 . S
Zn185 O184 1.899 . S
Zn185 O186 2.032 . S
Zn185 O189 2.086 . S
Zn185 O194 1.977 . S
O186 Zn185 2.032 . S
O186 C190 1.278 . S
C187 O188 1.203 . S
C187 O194 1.267 . S
O188 C187 1.203 . S
O189 C182 1.185 . S
O189 Zn185 2.086 . S
C190 O186 1.278 . S
C190 O191 1.211 . S
O191 C190 1.211 . S
C192 O184 1.284 . S
C192 O193 1.273 . S
O193 C192 1.273 . S
O194 Zn185 1.977 . S
O194 C187 1.267 . S
C195 O196 1.160 . S
C195 O202 1.185 . S
O196 C195 1.160 . S
O197 Zn198 1.899 . S
O197 C205 1.284 . S
Zn198 O197 1.899 . S
Zn198 O199 2.032 . S
Zn198 O202 2.086 . S
Zn198 O207 1.977 . S
O199 Zn198 2.032 . S
O199 C203 1.278 . S
C200 O201 1.203 . S
C200 O207 1.267 . S
O201 C200 1.203 . S
O202 C195 1.185 . S
O202 Zn198 2.086 . S
C203 O199 1.278 . S
C203 O204 1.211 . S
O204 C203 1.211 . S
C205 O197 1.284 . S
C205 O206 1.273 . S
O206 C205 1.273 . S
O207 Zn198 1.977 . S
O207 C200 1.267 . S
C208 O209 1.160 1_545 S
C208 O215 1.185 . S
O209 C208 1.160 1_565 S
O210 Zn211 1.899 1_565 S
O210 C218 1.284 . S
Zn211 O210 1.899 1_545 S
Zn211 O212 2.032 . S
Zn211 O215 2.086 . S
Zn211 O220 1.977 . S
O212 Zn211 2.032 . S
O212 C216 1.278 . S
C213 O214 1.203 . S
C213 O220 1.267 . S
O214 C213 1.203 . S
O215 C208 1.185 . S
O215 Zn211 2.086 . S
C216 O212 1.278 . S
C216 O217 1.211 . S
O217 C216 1.211 . S
C218 O210 1.284 . S
C218 O219 1.273 . S
O219 C218 1.273 . S
O220 Zn211 1.977 . S
O220 C213 1.267 . S
C221 O222 1.160 1_655 S
C221 O228 1.185 . S
O222 C221 1.160 1_455 S
O223 Zn224 1.899 1_455 S
O223 C231 1.284 . S
Zn224 O223 1.899 1_655 S
Zn224 O225 2.032 . S
Zn224 O228 2.086 . S
Zn224 O233 1.977 . S
O225 Zn224 2.032 . S
O225 C229 1.278 . S
C226 O227 1.203 . S
C226 O233 1.267 . S
O227 C226 1.203 . S
O228 C221 1.185 . S
O228 Zn224 2.086 . S
C229 O225 1.278 . S
C229 O230 1.211 . S
O230 C229 1.211 . S
C231 O223 1.284 . S
C231 O232 1.273 . S
O232 C231 1.273 . S
O233 Zn224 1.977 . S
O233 C226 1.267 . S
H234 C253 0.949 . S
H235 C254 0.950 . S
H236 C256 0.950 . S
H237 C257 0.950 . S
H238 C259 0.950 . S
H239 C262 0.950 . S
H240 C263 0.950 . S
H241 C265 0.951 . S
H242 C266 0.949 . S
H243 C268 0.949 . S
H244 C269 0.950 . S
H245 C271 0.950 . S
H246 C272 0.950 . S
H247 C274 0.950 . S
H248 C277 0.950 . S
H249 C278 0.950 . S
H250 C280 0.951 . S
H251 C281 0.949 . S
C252 C253 1.376 . S
C252 C257 1.386 . S
C252 C258 1.483 . S
C253 H234 0.949 . S
C253 C252 1.376 . S
C253 C254 1.397 . S
C254 H235 0.950 . S
C254 C253 1.397 . S
C254 C255 1.391 . S
C255 C254 1.391 . S
C255 C256 1.405 . S
C256 H236 0.950 . S
C256 C255 1.405 . S
C256 C257 1.367 . S
C257 H237 0.950 . S
C257 C252 1.386 . S
C257 C256 1.367 . S
C258 C252 1.483 . S
C258 C259 1.382 . S
C258 C260 1.403 . S
C259 H238 0.950 . S
C259 C258 1.382 . S
C259 C275 1.411 . S
C260 C258 1.403 . S
C260 C261 1.489 . S
C260 C274 1.411 . S
C261 C260 1.489 . S
C261 C262 1.383 . S
C261 C266 1.382 . S
C262 H239 0.950 . S
C262 C261 1.383 . S
C262 C263 1.395 . S
C263 H240 0.950 . S
C263 C262 1.395 . S
C263 C264 1.288 . S
C264 C263 1.288 . S
C264 C265 1.392 . S
C265 H241 0.951 . S
C265 C264 1.392 . S
C265 C266 1.392 . S
C266 H242 0.949 . S
C266 C261 1.382 . S
C266 C265 1.392 . S
C267 C268 1.376 . S
C267 C272 1.386 . S
C267 C273 1.483 . S
C268 H243 0.949 . S
C268 C267 1.376 . S
C268 C269 1.397 . S
C269 H244 0.950 . S
C269 C268 1.397 . S
C269 C270 1.391 . S
C270 C269 1.391 . S
C270 C271 1.405 . S
C271 H245 0.950 . S
C271 C270 1.405 . S
C271 C272 1.367 . S
C272 H246 0.950 . S
C272 C267 1.386 . S
C272 C271 1.367 . S
C273 C267 1.483 . S
C273 C274 1.382 . S
C273 C275 1.403 . S
C274 H247 0.950 . S
C274 C260 1.411 . S
C274 C273 1.382 . S
C275 C259 1.411 . S
C275 C273 1.403 . S
C275 C276 1.489 . S
C276 C275 1.489 . S
C276 C277 1.383 . S
C276 C281 1.382 . S
C277 H248 0.950 . S
C277 C276 1.383 . S
C277 C278 1.395 . S
C278 H249 0.950 . S
C278 C277 1.395 . S
C278 C279 1.288 . S
C279 C278 1.288 . S
C279 C280 1.392 . S
C280 H250 0.951 . S
C280 C279 1.392 . S
C280 C281 1.392 . S
C281 H251 0.949 . S
C281 C276 1.382 . S
C281 C280 1.392 . S
H282 C301 0.949 . S
H283 C302 0.950 . S
H284 C304 0.950 . S
H285 C305 0.950 . S
H286 C307 0.950 . S
H287 C310 0.950 . S
H288 C311 0.950 . S
H289 C313 0.951 . S
H290 C314 0.949 . S
H291 C316 0.949 . S
H292 C317 0.950 . S
H293 C319 0.950 . S
H294 C320 0.950 . S
H295 C322 0.950 . S
H296 C325 0.950 . S
H297 C326 0.950 . S
H298 C328 0.951 . S
H299 C329 0.949 . S
C300 C301 1.376 . S
C300 C305 1.386 . S
C300 C306 1.483 . S
C301 H282 0.949 . S
C301 C300 1.376 . S
C301 C302 1.397 . S
C302 H283 0.950 . S
C302 C301 1.397 . S
C302 C303 1.391 . S
C303 C302 1.391 . S
C303 C304 1.405 . S
C304 H284 0.950 . S
C304 C303 1.405 . S
C304 C305 1.367 . S
C305 H285 0.950 . S
C305 C300 1.386 . S
C305 C304 1.367 . S
C306 C300 1.483 . S
C306 C307 1.382 . S
C306 C308 1.403 . S
C307 H286 0.950 . S
C307 C306 1.382 . S
C307 C323 1.411 . S
C308 C306 1.403 . S
C308 C309 1.489 . S
C308 C322 1.411 . S
C309 C308 1.489 . S
C309 C310 1.383 . S
C309 C314 1.382 . S
C310 H287 0.950 . S
C310 C309 1.383 . S
C310 C311 1.395 . S
C311 H288 0.950 . S
C311 C310 1.395 . S
C311 C312 1.288 . S
C312 C311 1.288 . S
C312 C313 1.392 . S
C313 H289 0.951 . S
C313 C312 1.392 . S
C313 C314 1.392 . S
C314 H290 0.949 . S
C314 C309 1.382 . S
C314 C313 1.392 . S
C315 C316 1.376 . S
C315 C320 1.386 . S
C315 C321 1.483 . S
C316 H291 0.949 . S
C316 C315 1.376 . S
C316 C317 1.397 . S
C317 H292 0.950 . S
C317 C316 1.397 . S
C317 C318 1.391 . S
C318 C317 1.391 . S
C318 C319 1.405 . S
C319 H293 0.950 . S
C319 C318 1.405 . S
C319 C320 1.367 . S
C320 H294 0.950 . S
C320 C315 1.386 . S
C320 C319 1.367 . S
C321 C315 1.483 . S
C321 C322 1.382 . S
C321 C323 1.403 . S
C322 H295 0.950 . S
C322 C308 1.411 . S
C322 C321 1.382 . S
C323 C307 1.411 . S
C323 C321 1.403 . S
C323 C324 1.489 . S
C324 C323 1.489 . S
C324 C325 1.383 . S
C324 C329 1.382 . S
C325 H296 0.950 . S
C325 C324 1.383 . S
C325 C326 1.395 . S
C326 H297 0.950 . S
C326 C325 1.395 . S
C326 C327 1.288 . S
C327 C326 1.288 . S
C327 C328 1.392 . S
C328 H298 0.951 . S
C328 C327 1.392 . S
C328 C329 1.392 . S
C329 H299 0.949 . S
C329 C324 1.382 . S
C329 C328 1.392 . S
H330 C349 0.949 . S
H331 C350 0.950 . S
H332 C352 0.950 . S
H333 C353 0.950 . S
H334 C355 0.950 . S
H335 C358 0.950 . S
H336 C359 0.950 . S
H337 C361 0.951 . S
H338 C362 0.949 . S
H339 C364 0.949 . S
H340 C365 0.950 . S
H341 C367 0.950 . S
H342 C368 0.950 . S
H343 C370 0.950 . S
H344 C373 0.950 . S
H345 C374 0.950 . S
H346 C376 0.951 . S
H347 C377 0.949 . S
C348 C349 1.376 . S
C348 C353 1.386 . S
C348 C354 1.483 . S
C349 H330 0.949 . S
C349 C348 1.376 . S
C349 C350 1.397 . S
C350 H331 0.950 . S
C350 C349 1.397 . S
C350 C351 1.391 . S
C351 C350 1.391 . S
C351 C352 1.405 . S
C352 H332 0.950 . S
C352 C351 1.405 . S
C352 C353 1.367 . S
C353 H333 0.950 . S
C353 C348 1.386 . S
C353 C352 1.367 . S
C354 C348 1.483 . S
C354 C355 1.382 . S
C354 C356 1.403 . S
C355 H334 0.950 . S
C355 C354 1.382 . S
C355 C371 1.411 . S
C356 C354 1.403 . S
C356 C357 1.489 . S
C356 C370 1.411 . S
C357 C356 1.489 . S
C357 C358 1.383 . S
C357 C362 1.382 . S
C358 H335 0.950 . S
C358 C357 1.383 . S
C358 C359 1.395 . S
C359 H336 0.950 . S
C359 C358 1.395 . S
C359 C360 1.288 . S
C360 C359 1.288 . S
C360 C361 1.392 . S
C361 H337 0.951 . S
C361 C360 1.392 . S
C361 C362 1.392 . S
C362 H338 0.949 . S
C362 C357 1.382 . S
C362 C361 1.392 . S
C363 C364 1.376 . S
C363 C368 1.386 . S
C363 C369 1.483 . S
C364 H339 0.949 . S
C364 C363 1.376 . S
C364 C365 1.397 . S
C365 H340 0.950 . S
C365 C364 1.397 . S
C365 C366 1.391 . S
C366 C365 1.391 . S
C366 C367 1.405 . S
C367 H341 0.950 . S
C367 C366 1.405 . S
C367 C368 1.367 . S
C368 H342 0.950 . S
C368 C363 1.386 . S
C368 C367 1.367 . S
C369 C363 1.483 . S
C369 C370 1.382 . S
C369 C371 1.403 . S
C370 H343 0.950 . S
C370 C356 1.411 . S
C370 C369 1.382 . S
C371 C355 1.411 . S
C371 C369 1.403 . S
C371 C372 1.489 . S
C372 C371 1.489 . S
C372 C373 1.383 . S
C372 C377 1.382 . S
C373 H344 0.950 . S
C373 C372 1.383 . S
C373 C374 1.395 . S
C374 H345 0.950 . S
C374 C373 1.395 . S
C374 C375 1.288 . S
C375 C374 1.288 . S
C375 C376 1.392 . S
C376 H346 0.951 . S
C376 C375 1.392 . S
C376 C377 1.392 . S
C377 H347 0.949 . S
C377 C372 1.382 . S
C377 C376 1.392 . S
H378 C397 0.949 . S
H379 C398 0.950 . S
H380 C400 0.950 . S
H381 C401 0.950 . S
H382 C403 0.950 . S
H383 C406 0.950 . S
H384 C407 0.950 . S
H385 C409 0.951 . S
H386 C410 0.949 . S
H387 C412 0.949 . S
H388 C413 0.950 . S
H389 C415 0.950 . S
H390 C416 0.950 . S
H391 C418 0.950 . S
H392 C421 0.950 . S
H393 C422 0.950 . S
H394 C424 0.951 . S
H395 C425 0.949 . S
C396 C397 1.376 . S
C396 C401 1.386 . S
C396 C402 1.483 . S
C397 H378 0.949 . S
C397 C396 1.376 . S
C397 C398 1.397 . S
C398 H379 0.950 . S
C398 C397 1.397 . S
C398 C399 1.391 . S
C399 C398 1.391 . S
C399 C400 1.405 . S
C400 H380 0.950 . S
C400 C399 1.405 . S
C400 C401 1.367 . S
C401 H381 0.950 . S
C401 C396 1.386 . S
C401 C400 1.367 . S
C402 C396 1.483 . S
C402 C403 1.382 . S
C402 C404 1.403 . S
C403 H382 0.950 . S
C403 C402 1.382 . S
C403 C419 1.411 . S
C404 C402 1.403 . S
C404 C405 1.489 . S
C404 C418 1.411 . S
C405 C404 1.489 . S
C405 C406 1.383 . S
C405 C410 1.382 . S
C406 H383 0.950 . S
C406 C405 1.383 . S
C406 C407 1.395 . S
C407 H384 0.950 . S
C407 C406 1.395 . S
C407 C408 1.288 . S
C408 C407 1.288 . S
C408 C409 1.392 . S
C409 H385 0.951 . S
C409 C408 1.392 . S
C409 C410 1.392 . S
C410 H386 0.949 . S
C410 C405 1.382 . S
C410 C409 1.392 . S
C411 C412 1.376 . S
C411 C416 1.386 . S
C411 C417 1.483 . S
C412 H387 0.949 . S
C412 C411 1.376 . S
C412 C413 1.397 . S
C413 H388 0.950 . S
C413 C412 1.397 . S
C413 C414 1.391 . S
C414 C413 1.391 . S
C414 C415 1.405 . S
C415 H389 0.950 . S
C415 C414 1.405 . S
C415 C416 1.367 . S
C416 H390 0.950 . S
C416 C411 1.386 . S
C416 C415 1.367 . S
C417 C411 1.483 . S
C417 C418 1.382 . S
C417 C419 1.403 . S
C418 H391 0.950 . S
C418 C404 1.411 . S
C418 C417 1.382 . S
C419 C403 1.411 . S
C419 C417 1.403 . S
C419 C420 1.489 . S
C420 C419 1.489 . S
C420 C421 1.383 . S
C420 C425 1.382 . S
C421 H392 0.950 . S
C421 C420 1.383 . S
C421 C422 1.395 . S
C422 H393 0.950 . S
C422 C421 1.395 . S
C422 C423 1.288 . S
C423 C422 1.288 . S
C423 C424 1.392 . S
C424 H394 0.951 . S
C424 C423 1.392 . S
C424 C425 1.392 . S
C425 H395 0.949 . S
C425 C420 1.382 . S
C425 C424 1.392 . S
H426 C445 0.949 . S
H427 C446 0.950 . S
H428 C448 0.950 . S
H429 C449 0.950 . S
H430 C451 0.950 . S
H431 C454 0.950 . S
H432 C455 0.950 . S
H433 C457 0.951 . S
H434 C458 0.949 . S
H435 C460 0.949 . S
H436 C461 0.950 . S
H437 C463 0.950 . S
H438 C464 0.950 . S
H439 C466 0.950 . S
H440 C469 0.950 . S
H441 C470 0.950 . S
H442 C472 0.951 . S
H443 C473 0.949 . S
C444 C445 1.376 . S
C444 C449 1.386 . S
C444 C450 1.483 . S
C445 H426 0.949 . S
C445 C444 1.376 . S
C445 C446 1.397 . S
C446 H427 0.950 . S
C446 C445 1.397 . S
C446 C447 1.391 . S
C447 C446 1.391 . S
C447 C448 1.405 . S
C448 H428 0.950 . S
C448 C447 1.405 . S
C448 C449 1.367 . S
C449 H429 0.950 . S
C449 C444 1.386 . S
C449 C448 1.367 . S
C450 C444 1.483 . S
C450 C451 1.382 . S
C450 C452 1.403 . S
C451 H430 0.950 . S
C451 C450 1.382 . S
C451 C467 1.411 . S
C452 C450 1.403 . S
C452 C453 1.489 . S
C452 C466 1.411 . S
C453 C452 1.489 . S
C453 C454 1.383 . S
C453 C458 1.382 . S
C454 H431 0.950 . S
C454 C453 1.383 . S
C454 C455 1.395 . S
C455 H432 0.950 . S
C455 C454 1.395 . S
C455 C456 1.288 . S
C456 C455 1.288 . S
C456 C457 1.392 . S
C457 H433 0.951 . S
C457 C456 1.392 . S
C457 C458 1.392 . S
C458 H434 0.949 . S
C458 C453 1.382 . S
C458 C457 1.392 . S
C459 C460 1.376 . S
C459 C464 1.386 . S
C459 C465 1.483 . S
C460 H435 0.949 . S
C460 C459 1.376 . S
C460 C461 1.397 . S
C461 H436 0.950 . S
C461 C460 1.397 . S
C461 C462 1.391 . S
C462 C461 1.391 . S
C462 C463 1.405 . S
C463 H437 0.950 . S
C463 C462 1.405 . S
C463 C464 1.367 . S
C464 H438 0.950 . S
C464 C459 1.386 . S
C464 C463 1.367 . S
C465 C459 1.483 . S
C465 C466 1.382 . S
C465 C467 1.403 . S
C466 H439 0.950 . S
C466 C452 1.411 . S
C466 C465 1.382 . S
C467 C451 1.411 . S
C467 C465 1.403 . S
C467 C468 1.489 . S
C468 C467 1.489 . S
C468 C469 1.383 . S
C468 C473 1.382 . S
C469 H440 0.950 . S
C469 C468 1.383 . S
C469 C470 1.395 . S
C470 H441 0.950 . S
C470 C469 1.395 . S
C470 C471 1.288 . S
C471 C470 1.288 . S
C471 C472 1.392 . S
C472 H442 0.951 . S
C472 C471 1.392 . S
C472 C473 1.392 . S
C473 H443 0.949 . S
C473 C468 1.382 . S
C473 C472 1.392 . S
H474 C493 0.949 . S
H475 C494 0.950 . S
H476 C496 0.950 . S
H477 C497 0.950 . S
H478 C499 0.950 . S
H479 C502 0.950 . S
H480 C503 0.950 . S
H481 C505 0.951 . S
H482 C506 0.949 . S
H483 C508 0.949 . S
H484 C509 0.950 . S
H485 C511 0.950 . S
H486 C512 0.950 . S
H487 C514 0.950 . S
H488 C517 0.950 . S
H489 C518 0.950 . S
H490 C520 0.951 . S
H491 C521 0.949 . S
C492 C493 1.376 . S
C492 C497 1.386 . S
C492 C498 1.483 . S
C493 H474 0.949 . S
C493 C492 1.376 . S
C493 C494 1.397 . S
C494 H475 0.950 . S
C494 C493 1.397 . S
C494 C495 1.391 . S
C495 C494 1.391 . S
C495 C496 1.405 . S
C496 H476 0.950 . S
C496 C495 1.405 . S
C496 C497 1.367 . S
C497 H477 0.950 . S
C497 C492 1.386 . S
C497 C496 1.367 . S
C498 C492 1.483 . S
C498 C499 1.382 . S
C498 C500 1.403 . S
C499 H478 0.950 . S
C499 C498 1.382 . S
C499 C515 1.411 . S
C500 C498 1.403 . S
C500 C501 1.489 . S
C500 C514 1.411 . S
C501 C500 1.489 . S
C501 C502 1.383 . S
C501 C506 1.382 . S
C502 H479 0.950 . S
C502 C501 1.383 . S
C502 C503 1.395 . S
C503 H480 0.950 . S
C503 C502 1.395 . S
C503 C504 1.288 . S
C504 C503 1.288 . S
C504 C505 1.392 . S
C505 H481 0.951 . S
C505 C504 1.392 . S
C505 C506 1.392 . S
C506 H482 0.949 . S
C506 C501 1.382 . S
C506 C505 1.392 . S
C507 C508 1.376 . S
C507 C512 1.386 . S
C507 C513 1.483 . S
C508 H483 0.949 . S
C508 C507 1.376 . S
C508 C509 1.397 . S
C509 H484 0.950 . S
C509 C508 1.397 . S
C509 C510 1.391 . S
C510 C509 1.391 . S
C510 C511 1.405 . S
C511 H485 0.950 . S
C511 C510 1.405 . S
C511 C512 1.367 . S
C512 H486 0.950 . S
C512 C507 1.386 . S
C512 C511 1.367 . S
C513 C507 1.483 . S
C513 C514 1.382 . S
C513 C515 1.403 . S
C514 H487 0.950 . S
C514 C500 1.411 . S
C514 C513 1.382 . S
C515 C499 1.411 . S
C515 C513 1.403 . S
C515 C516 1.489 . S
C516 C515 1.489 . S
C516 C517 1.383 . S
C516 C521 1.382 . S
C517 H488 0.950 . S
C517 C516 1.383 . S
C517 C518 1.395 . S
C518 H489 0.950 . S
C518 C517 1.395 . S
C518 C519 1.288 . S
C519 C518 1.288 . S
C519 C520 1.392 . S
C520 H490 0.951 . S
C520 C519 1.392 . S
C520 C521 1.392 . S
C521 H491 0.949 . S
C521 C516 1.382 . S
C521 C520 1.392 . S
H522 C541 0.949 . S
H523 C542 0.950 . S
H524 C544 0.950 . S
H525 C545 0.950 . S
H526 C547 0.950 . S
H527 C550 0.950 . S
H528 C551 0.950 . S
H529 C553 0.951 . S
H530 C554 0.949 . S
H531 C556 0.949 . S
H532 C557 0.950 . S
H533 C559 0.950 . S
H534 C560 0.950 . S
H535 C562 0.950 . S
H536 C565 0.950 . S
H537 C566 0.950 . S
H538 C568 0.951 . S
H539 C569 0.949 . S
C540 C541 1.376 . S
C540 C545 1.386 . S
C540 C546 1.483 . S
C541 H522 0.949 . S
C541 C540 1.376 . S
C541 C542 1.397 . S
C542 H523 0.950 . S
C542 C541 1.397 . S
C542 C543 1.391 . S
C543 C542 1.391 . S
C543 C544 1.405 . S
C544 H524 0.950 . S
C544 C543 1.405 . S
C544 C545 1.367 . S
C545 H525 0.950 . S
C545 C540 1.386 . S
C545 C544 1.367 . S
C546 C540 1.483 . S
C546 C547 1.382 . S
C546 C548 1.403 . S
C547 H526 0.950 . S
C547 C546 1.382 . S
C547 C563 1.411 . S
C548 C546 1.403 . S
C548 C549 1.489 . S
C548 C562 1.411 . S
C549 C548 1.489 . S
C549 C550 1.383 . S
C549 C554 1.382 . S
C550 H527 0.950 . S
C550 C549 1.383 . S
C550 C551 1.395 . S
C551 H528 0.950 . S
C551 C550 1.395 . S
C551 C552 1.288 . S
C552 C551 1.288 . S
C552 C553 1.392 . S
C553 H529 0.951 . S
C553 C552 1.392 . S
C553 C554 1.392 . S
C554 H530 0.949 . S
C554 C549 1.382 . S
C554 C553 1.392 . S
C555 C556 1.376 . S
C555 C560 1.386 . S
C555 C561 1.483 . S
C556 H531 0.949 . S
C556 C555 1.376 . S
C556 C557 1.397 . S
C557 H532 0.950 . S
C557 C556 1.397 . S
C557 C558 1.391 . S
C558 C557 1.391 . S
C558 C559 1.405 . S
C559 H533 0.950 . S
C559 C558 1.405 . S
C559 C560 1.367 . S
C560 H534 0.950 . S
C560 C555 1.386 . S
C560 C559 1.367 . S
C561 C555 1.483 . S
C561 C562 1.382 . S
C561 C563 1.403 . S
C562 H535 0.950 . S
C562 C548 1.411 . S
C562 C561 1.382 . S
C563 C547 1.411 . S
C563 C561 1.403 . S
C563 C564 1.489 . S
C564 C563 1.489 . S
C564 C565 1.383 . S
C564 C569 1.382 . S
C565 H536 0.950 . S
C565 C564 1.383 . S
C565 C566 1.395 . S
C566 H537 0.950 . S
C566 C565 1.395 . S
C566 C567 1.288 . S
C567 C566 1.288 . S
C567 C568 1.392 . S
C568 H538 0.951 . S
C568 C567 1.392 . S
C568 C569 1.392 . S
C569 H539 0.949 . S
C569 C564 1.382 . S
C569 C568 1.392 . S
H570 C589 0.949 . S
H571 C590 0.950 . S
H572 C592 0.950 . S
H573 C593 0.950 . S
H574 C595 0.950 . S
H575 C598 0.950 . S
H576 C599 0.950 . S
H577 C601 0.951 . S
H578 C602 0.949 . S
H579 C604 0.949 . S
H580 C605 0.950 . S
H581 C607 0.950 . S
H582 C608 0.950 . S
H583 C610 0.950 . S
H584 C613 0.950 . S
H585 C614 0.950 . S
H586 C616 0.951 . S
H587 C617 0.949 . S
C588 C589 1.376 . S
C588 C593 1.386 . S
C588 C594 1.483 . S
C589 H570 0.949 . S
C589 C588 1.376 . S
C589 C590 1.397 . S
C590 H571 0.950 . S
C590 C589 1.397 . S
C590 C591 1.391 . S
C591 C590 1.391 . S
C591 C592 1.405 . S
C592 H572 0.950 . S
C592 C591 1.405 . S
C592 C593 1.367 . S
C593 H573 0.950 . S
C593 C588 1.386 . S
C593 C592 1.367 . S
C594 C588 1.483 . S
C594 C595 1.382 . S
C594 C596 1.403 . S
C595 H574 0.950 . S
C595 C594 1.382 . S
C595 C611 1.411 . S
C596 C594 1.403 . S
C596 C597 1.489 . S
C596 C610 1.411 . S
C597 C596 1.489 . S
C597 C598 1.383 . S
C597 C602 1.382 . S
C598 H575 0.950 . S
C598 C597 1.383 . S
C598 C599 1.395 . S
C599 H576 0.950 . S
C599 C598 1.395 . S
C599 C600 1.288 . S
C600 C599 1.288 . S
C600 C601 1.392 . S
C601 H577 0.951 . S
C601 C600 1.392 . S
C601 C602 1.392 . S
C602 H578 0.949 . S
C602 C597 1.382 . S
C602 C601 1.392 . S
C603 C604 1.376 . S
C603 C608 1.386 . S
C603 C609 1.483 . S
C604 H579 0.949 . S
C604 C603 1.376 . S
C604 C605 1.397 . S
C605 H580 0.950 . S
C605 C604 1.397 . S
C605 C606 1.391 . S
C606 C605 1.391 . S
C606 C607 1.405 . S
C607 H581 0.950 . S
C607 C606 1.405 . S
C607 C608 1.367 . S
C608 H582 0.950 . S
C608 C603 1.386 . S
C608 C607 1.367 . S
C609 C603 1.483 . S
C609 C610 1.382 . S
C609 C611 1.403 . S
C610 H583 0.950 . S
C610 C596 1.411 . S
C610 C609 1.382 . S
C611 C595 1.411 . S
C611 C609 1.403 . S
C611 C612 1.489 . S
C612 C611 1.489 . S
C612 C613 1.383 . S
C612 C617 1.382 . S
C613 H584 0.950 . S
C613 C612 1.383 . S
C613 C614 1.395 . S
C614 H585 0.950 . S
C614 C613 1.395 . S
C614 C615 1.288 . S
C615 C614 1.288 . S
C615 C616 1.392 . S
C616 H586 0.951 . S
C616 C615 1.392 . S
C616 C617 1.392 . S
C617 H587 0.949 . S
C617 C612 1.382 . S
C617 C616 1.392 . S
H618 C637 0.949 . S
H619 C638 0.950 . S
H620 C640 0.950 . S
H621 C641 0.950 . S
H622 C643 0.950 . S
H623 C646 0.950 . S
H624 C647 0.950 . S
H625 C649 0.951 . S
H626 C650 0.949 . S
H627 C652 0.949 . S
H628 C653 0.950 . S
H629 C655 0.950 . S
H630 C656 0.950 . S
H631 C658 0.950 . S
H632 C661 0.950 . S
H633 C662 0.950 . S
H634 C664 0.951 . S
H635 C665 0.949 . S
C636 C637 1.376 . S
C636 C641 1.386 . S
C636 C642 1.483 . S
C637 H618 0.949 . S
C637 C636 1.376 . S
C637 C638 1.397 . S
C638 H619 0.950 . S
C638 C637 1.397 . S
C638 C639 1.391 . S
C639 C638 1.391 . S
C639 C640 1.405 . S
C640 H620 0.950 . S
C640 C639 1.405 . S
C640 C641 1.367 . S
C641 H621 0.950 . S
C641 C636 1.386 . S
C641 C640 1.367 . S
C642 C636 1.483 . S
C642 C643 1.382 . S
C642 C644 1.403 . S
C643 H622 0.950 . S
C643 C642 1.382 . S
C643 C659 1.411 . S
C644 C642 1.403 . S
C644 C645 1.489 . S
C644 C658 1.411 . S
C645 C644 1.489 . S
C645 C646 1.383 . S
C645 C650 1.382 . S
C646 H623 0.950 . S
C646 C645 1.383 . S
C646 C647 1.395 . S
C647 H624 0.950 . S
C647 C646 1.395 . S
C647 C648 1.288 . S
C648 C647 1.288 . S
C648 C649 1.392 . S
C649 H625 0.951 . S
C649 C648 1.392 . S
C649 C650 1.392 . S
C650 H626 0.949 . S
C650 C645 1.382 . S
C650 C649 1.392 . S
C651 C652 1.376 . S
C651 C656 1.386 . S
C651 C657 1.483 . S
C652 H627 0.949 . S
C652 C651 1.376 . S
C652 C653 1.397 . S
C653 H628 0.950 . S
C653 C652 1.397 . S
C653 C654 1.391 . S
C654 C653 1.391 . S
C654 C655 1.405 . S
C655 H629 0.950 . S
C655 C654 1.405 . S
C655 C656 1.367 . S
C656 H630 0.950 . S
C656 C651 1.386 . S
C656 C655 1.367 . S
C657 C651 1.483 . S
C657 C658 1.382 . S
C657 C659 1.403 . S
C658 H631 0.950 . S
C658 C644 1.411 . S
C658 C657 1.382 . S
C659 C643 1.411 . S
C659 C657 1.403 . S
C659 C660 1.489 . S
C660 C659 1.489 . S
C660 C661 1.383 . S
C660 C665 1.382 . S
C661 H632 0.950 . S
C661 C660 1.383 . S
C661 C662 1.395 . S
C662 H633 0.950 . S
C662 C661 1.395 . S
C662 C663 1.288 . S
C663 C662 1.288 . S
C663 C664 1.392 . S
C664 H634 0.951 . S
C664 C663 1.392 . S
C664 C665 1.392 . S
C665 H635 0.949 . S
C665 C660 1.382 . S
C665 C664 1.392 . S
H666 C685 0.949 . S
H667 C686 0.950 . S
H668 C688 0.950 . S
H669 C689 0.950 . S
H670 C691 0.950 . S
H671 C694 0.950 . S
H672 C695 0.950 . S
H673 C697 0.951 . S
H674 C698 0.949 . S
H675 C700 0.949 . S
H676 C701 0.950 . S
H677 C703 0.950 . S
H678 C704 0.950 . S
H679 C706 0.950 . S
H680 C709 0.950 . S
H681 C710 0.950 . S
H682 C712 0.951 . S
H683 C713 0.949 . S
C684 C685 1.376 . S
C684 C689 1.386 1_655 S
C684 C690 1.483 . S
C685 H666 0.949 . S
C685 C684 1.376 . S
C685 C686 1.397 . S
C686 H667 0.950 . S
C686 C685 1.397 . S
C686 C687 1.391 . S
C687 C686 1.391 . S
C687 C688 1.405 1_655 S
C688 H668 0.950 . S
C688 C687 1.405 1_455 S
C688 C689 1.367 . S
C689 H669 0.950 . S
C689 C684 1.386 1_455 S
C689 C688 1.367 . S
C690 C684 1.483 . S
C690 C691 1.382 . S
C690 C692 1.403 1_655 S
C691 H670 0.950 . S
C691 C690 1.382 . S
C691 C707 1.411 . S
C692 C690 1.403 1_455 S
C692 C693 1.489 . S
C692 C706 1.411 . S
C693 C692 1.489 . S
C693 C694 1.383 1_455 S
C693 C698 1.382 . S
C694 H671 0.950 . S
C694 C693 1.383 1_655 S
C694 C695 1.395 . S
C695 H672 0.950 . S
C695 C694 1.395 . S
C695 C696 1.288 1_655 S
C696 C695 1.288 1_455 S
C696 C697 1.392 . S
C697 H673 0.951 . S
C697 C696 1.392 . S
C697 C698 1.392 . S
C698 H674 0.949 . S
C698 C693 1.382 . S
C698 C697 1.392 . S
C699 C700 1.376 . S
C699 C704 1.386 1_455 S
C699 C705 1.483 . S
C700 H675 0.949 . S
C700 C699 1.376 . S
C700 C701 1.397 . S
C701 H676 0.950 . S
C701 C700 1.397 . S
C701 C702 1.391 . S
C702 C701 1.391 . S
C702 C703 1.405 1_455 S
C703 H677 0.950 . S
C703 C702 1.405 1_655 S
C703 C704 1.367 . S
C704 H678 0.950 . S
C704 C699 1.386 1_655 S
C704 C703 1.367 . S
C705 C699 1.483 . S
C705 C706 1.382 . S
C705 C707 1.403 1_455 S
C706 H679 0.950 . S
C706 C692 1.411 . S
C706 C705 1.382 . S
C707 C691 1.411 . S
C707 C705 1.403 1_655 S
C707 C708 1.489 . S
C708 C707 1.489 . S
C708 C709 1.383 1_655 S
C708 C713 1.382 . S
C709 H680 0.950 . S
C709 C708 1.383 1_455 S
C709 C710 1.395 . S
C710 H681 0.950 . S
C710 C709 1.395 . S
C710 C711 1.288 1_455 S
C711 C710 1.288 1_655 S
C711 C712 1.392 . S
C712 H682 0.951 . S
C712 C711 1.392 . S
C712 C713 1.392 . S
C713 H683 0.949 . S
C713 C708 1.382 . S
C713 C712 1.392 . S
H714 C733 0.949 . S
H715 C734 0.950 . S
H716 C736 0.950 . S
H717 C737 0.950 . S
H718 C739 0.950 . S
H719 C742 0.950 . S
H720 C743 0.950 . S
H721 C745 0.951 . S
H722 C746 0.949 . S
H723 C748 0.949 . S
H724 C749 0.950 . S
H725 C751 0.950 . S
H726 C752 0.950 . S
H727 C754 0.950 . S
H728 C757 0.950 . S
H729 C758 0.950 . S
H730 C760 0.951 . S
H731 C761 0.949 . S
C732 C733 1.376 . S
C732 C737 1.386 . S
C732 C738 1.483 . S
C733 H714 0.949 . S
C733 C732 1.376 . S
C733 C734 1.397 . S
C734 H715 0.950 . S
C734 C733 1.397 . S
C734 C735 1.391 . S
C735 C734 1.391 . S
C735 C736 1.405 . S
C736 H716 0.950 . S
C736 C735 1.405 . S
C736 C737 1.367 . S
C737 H717 0.950 . S
C737 C732 1.386 . S
C737 C736 1.367 . S
C738 C732 1.483 . S
C738 C739 1.382 . S
C738 C740 1.403 . S
C739 H718 0.950 . S
C739 C738 1.382 . S
C739 C755 1.411 . S
C740 C738 1.403 . S
C740 C741 1.489 . S
C740 C754 1.411 . S
C741 C740 1.489 . S
C741 C742 1.383 . S
C741 C746 1.382 . S
C742 H719 0.950 . S
C742 C741 1.383 . S
C742 C743 1.395 . S
C743 H720 0.950 . S
C743 C742 1.395 . S
C743 C744 1.288 . S
C744 C743 1.288 . S
C744 C745 1.392 . S
C745 H721 0.951 . S
C745 C744 1.392 . S
C745 C746 1.392 . S
C746 H722 0.949 . S
C746 C741 1.382 . S
C746 C745 1.392 . S
C747 C748 1.376 . S
C747 C752 1.386 . S
C747 C753 1.483 . S
C748 H723 0.949 . S
C748 C747 1.376 . S
C748 C749 1.397 . S
C749 H724 0.950 . S
C749 C748 1.397 . S
C749 C750 1.391 . S
C750 C749 1.391 . S
C750 C751 1.405 . S
C751 H725 0.950 . S
C751 C750 1.405 . S
C751 C752 1.367 . S
C752 H726 0.950 . S
C752 C747 1.386 . S
C752 C751 1.367 . S
C753 C747 1.483 . S
C753 C754 1.382 . S
C753 C755 1.403 . S
C754 H727 0.950 . S
C754 C740 1.411 . S
C754 C753 1.382 . S
C755 C739 1.411 . S
C755 C753 1.403 . S
C755 C756 1.489 . S
C756 C755 1.489 . S
C756 C757 1.383 . S
C756 C761 1.382 . S
C757 H728 0.950 . S
C757 C756 1.383 . S
C757 C758 1.395 . S
C758 H729 0.950 . S
C758 C757 1.395 . S
C758 C759 1.288 . S
C759 C758 1.288 . S
C759 C760 1.392 . S
C760 H730 0.951 . S
C760 C759 1.392 . S
C760 C761 1.392 . S
C761 H731 0.949 . S
C761 C756 1.382 . S
C761 C760 1.392 . S
H762 C781 0.949 . S
H763 C782 0.950 . S
H764 C784 0.950 . S
H765 C785 0.950 . S
H766 C787 0.950 . S
H767 C790 0.950 . S
H768 C791 0.950 . S
H769 C793 0.951 . S
H770 C794 0.949 . S
H771 C796 0.949 . S
H772 C797 0.950 . S
H773 C799 0.950 . S
H774 C800 0.950 . S
H775 C802 0.950 . S
H776 C805 0.950 . S
H777 C806 0.950 . S
H778 C808 0.951 . S
H779 C809 0.949 . S
C780 C781 1.376 . S
C780 C785 1.386 1_545 S
C780 C786 1.483 . S
C781 H762 0.949 . S
C781 C780 1.376 . S
C781 C782 1.397 . S
C782 H763 0.950 . S
C782 C781 1.397 . S
C782 C783 1.391 . S
C783 C782 1.391 . S
C783 C784 1.405 1_545 S
C784 H764 0.950 . S
C784 C783 1.405 1_565 S
C784 C785 1.367 . S
C785 H765 0.950 . S
C785 C780 1.386 1_565 S
C785 C784 1.367 . S
C786 C780 1.483 . S
C786 C787 1.382 . S
C786 C788 1.403 1_545 S
C787 H766 0.950 . S
C787 C786 1.382 . S
C787 C803 1.411 . S
C788 C786 1.403 1_565 S
C788 C789 1.489 . S
C788 C802 1.411 . S
C789 C788 1.489 . S
C789 C790 1.383 1_565 S
C789 C794 1.382 . S
C790 H767 0.950 . S
C790 C789 1.383 1_545 S
C790 C791 1.395 . S
C791 H768 0.950 . S
C791 C790 1.395 . S
C791 C792 1.288 1_545 S
C792 C791 1.288 1_565 S
C792 C793 1.392 . S
C793 H769 0.951 . S
C793 C792 1.392 . S
C793 C794 1.392 . S
C794 H770 0.949 . S
C794 C789 1.382 . S
C794 C793 1.392 . S
C795 C796 1.376 . S
C795 C800 1.386 1_565 S
C795 C801 1.483 . S
C796 H771 0.949 . S
C796 C795 1.376 . S
C796 C797 1.397 . S
C797 H772 0.950 . S
C797 C796 1.397 . S
C797 C798 1.391 . S
C798 C797 1.391 . S
C798 C799 1.405 1_565 S
C799 H773 0.950 . S
C799 C798 1.405 1_545 S
C799 C800 1.367 . S
C800 H774 0.950 . S
C800 C795 1.386 1_545 S
C800 C799 1.367 . S
C801 C795 1.483 . S
C801 C802 1.382 . S
C801 C803 1.403 1_565 S
C802 H775 0.950 . S
C802 C788 1.411 . S
C802 C801 1.382 . S
C803 C787 1.411 . S
C803 C801 1.403 1_545 S
C803 C804 1.489 . S
C804 C803 1.489 . S
C804 C805 1.383 1_545 S
C804 C809 1.382 . S
C805 H776 0.950 . S
C805 C804 1.383 1_565 S
C805 C806 1.395 . S
C806 H777 0.950 . S
C806 C805 1.395 . S
C806 C807 1.288 1_565 S
C807 C806 1.288 1_545 S
C807 C808 1.392 . S
C808 H778 0.951 . S
C808 C807 1.392 . S
C808 C809 1.392 . S
C809 H779 0.949 . S
C809 C804 1.382 . S
C809 C808 1.392 . S
H810 C829 0.949 . S
H811 C830 0.950 . S
H812 C832 0.950 . S
H813 C833 0.950 . S
H814 C835 0.950 . S
H815 C838 0.950 . S
H816 C839 0.950 . S
H817 C841 0.951 . S
H818 C842 0.949 . S
H819 C844 0.949 . S
H820 C845 0.950 . S
H821 C847 0.950 . S
H822 C848 0.950 . S
H823 C850 0.950 . S
H824 C853 0.950 . S
H825 C854 0.950 . S
H826 C856 0.951 . S
H827 C857 0.949 . S
C828 C829 1.400 . S
C828 C833 1.376 1_545 S
C828 C834 1.469 . S
C829 H810 0.949 . S
C829 C828 1.400 . S
C829 C830 1.397 . S
C830 H811 0.950 . S
C830 C829 1.397 . S
C830 C831 1.391 1_545 S
C831 C830 1.391 1_565 S
C831 C832 1.405 . S
C832 H812 0.950 . S
C832 C831 1.405 . S
C832 C833 1.367 . S
C833 H813 0.950 . S
C833 C828 1.376 1_565 S
C833 C832 1.367 . S
C834 C828 1.469 . S
C834 C835 1.382 . S
C834 C836 1.402 1_545 S
C835 H814 0.950 . S
C835 C834 1.382 . S
C835 C851 1.439 . S
C836 C834 1.402 1_565 S
C836 C837 1.476 . S
C836 C850 1.431 . S
C837 C836 1.476 . S
C837 C838 1.371 1_565 S
C837 C842 1.387 . S
C838 H815 0.950 . S
C838 C837 1.371 1_545 S
C838 C839 1.395 . S
C839 H816 0.950 . S
C839 C838 1.395 . S
C839 C840 1.288 . S
C840 C839 1.288 . S
C840 C841 1.392 1_545 S
C841 H817 0.951 . S
C841 C840 1.392 1_565 S
C841 C842 1.392 . S
C842 H818 0.949 . S
C842 C837 1.387 . S
C842 C841 1.392 . S
C843 C844 1.390 . S
C843 C848 1.380 1_565 S
C843 C849 1.500 . S
C844 H819 0.949 . S
C844 C843 1.390 . S
C844 C845 1.397 . S
C845 H820 0.950 . S
C845 C844 1.397 . S
C845 C846 1.391 1_565 S
C846 C845 1.391 1_545 S
C846 C847 1.405 . S
C847 H821 0.950 . S
C847 C846 1.405 . S
C847 C848 1.367 . S
C848 H822 0.950 . S
C848 C843 1.380 1_545 S
C848 C847 1.367 . S
C849 C843 1.500 . S
C849 C850 1.356 . S
C849 C851 1.402 1_565 S
C850 H823 0.950 . S
C850 C836 1.431 . S
C850 C849 1.356 . S
C851 C835 1.439 . S
C851 C849 1.402 1_545 S
C851 C852 1.476 . S
C852 C851 1.476 . S
C852 C853 1.358 1_545 S
C852 C857 1.394 . S
C853 H824 0.950 . S
C853 C852 1.358 1_565 S
C853 C854 1.395 . S
C854 H825 0.950 . S
C854 C853 1.395 . S
C854 C855 1.288 . S
C855 C854 1.288 . S
C855 C856 1.392 1_565 S
C856 H826 0.951 . S
C856 C855 1.392 1_545 S
C856 C857 1.392 . S
C857 H827 0.949 . S
C857 C852 1.394 . S
C857 C856 1.392 . S
H858 C877 0.949 . S
H859 C878 0.950 . S
H860 C880 0.950 . S
H861 C881 0.950 . S
H862 C883 0.950 . S
H863 C886 0.950 . S
H864 C887 0.950 . S
H865 C889 0.951 . S
H866 C890 0.949 . S
H867 C892 0.949 . S
H868 C893 0.950 . S
H869 C895 0.950 . S
H870 C896 0.950 . S
H871 C898 0.950 . S
H872 C901 0.950 . S
H873 C902 0.950 . S
H874 C904 0.951 . S
H875 C905 0.949 . S
C876 C877 1.376 . S
C876 C881 1.386 1_455 S
C876 C882 1.483 . S
C877 H858 0.949 . S
C877 C876 1.376 . S
C877 C878 1.397 . S
C878 H859 0.950 . S
C878 C877 1.397 . S
C878 C879 1.391 . S
C879 C878 1.391 . S
C879 C880 1.405 1_455 S
C880 H860 0.950 . S
C880 C879 1.405 1_655 S
C880 C881 1.367 . S
C881 H861 0.950 . S
C881 C876 1.386 1_655 S
C881 C880 1.367 . S
C882 C876 1.483 . S
C882 C883 1.382 . S
C882 C884 1.403 1_455 S
C883 H862 0.950 . S
C883 C882 1.382 . S
C883 C899 1.411 . S
C884 C882 1.403 1_655 S
C884 C885 1.489 . S
C884 C898 1.411 . S
C885 C884 1.489 . S
C885 C886 1.383 1_655 S
C885 C890 1.382 . S
C886 H863 0.950 . S
C886 C885 1.383 1_455 S
C886 C887 1.395 . S
C887 H864 0.950 . S
C887 C886 1.395 . S
C887 C888 1.288 1_455 S
C888 C887 1.288 1_655 S
C888 C889 1.392 . S
C889 H865 0.951 . S
C889 C888 1.392 . S
C889 C890 1.392 . S
C890 H866 0.949 . S
C890 C885 1.382 . S
C890 C889 1.392 . S
C891 C892 1.376 . S
C891 C896 1.386 1_655 S
C891 C897 1.483 . S
C892 H867 0.949 . S
C892 C891 1.376 . S
C892 C893 1.397 . S
C893 H868 0.950 . S
C893 C892 1.397 . S
C893 C894 1.391 . S
C894 C893 1.391 . S
C894 C895 1.405 1_655 S
C895 H869 0.950 . S
C895 C894 1.405 1_455 S
C895 C896 1.367 . S
C896 H870 0.950 . S
C896 C891 1.386 1_455 S
C896 C895 1.367 . S
C897 C891 1.483 . S
C897 C898 1.382 . S
C897 C899 1.403 1_655 S
C898 H871 0.950 . S
C898 C884 1.411 . S
C898 C897 1.382 . S
C899 C883 1.411 . S
C899 C897 1.403 1_455 S
C899 C900 1.489 . S
C900 C899 1.489 . S
C900 C901 1.383 1_455 S
C900 C905 1.382 . S
C901 H872 0.950 . S
C901 C900 1.383 1_655 S
C901 C902 1.395 . S
C902 H873 0.950 . S
C902 C901 1.395 . S
C902 C903 1.288 1_655 S
C903 C902 1.288 1_455 S
C903 C904 1.392 . S
C904 H874 0.951 . S
C904 C903 1.392 . S
C904 C905 1.392 . S
C905 H875 0.949 . S
C905 C900 1.382 . S
C905 C904 1.392 . S
H906 C925 0.949 . S
H907 C926 0.950 . S
H908 C928 0.950 . S
H909 C929 0.950 . S
H910 C931 0.950 . S
H911 C934 0.950 . S
H912 C935 0.950 . S
H913 C937 0.951 . S
H914 C938 0.949 . S
H915 C940 0.949 . S
H916 C941 0.950 . S
H917 C943 0.950 . S
H918 C944 0.950 . S
H919 C946 0.950 . S
H920 C949 0.950 . S
H921 C950 0.950 . S
H922 C952 0.951 . S
H923 C953 0.949 . S
C924 C925 1.376 . S
C924 C929 1.386 . S
C924 C930 1.483 . S
C925 H906 0.949 . S
C925 C924 1.376 . S
C925 C926 1.397 . S
C926 H907 0.950 . S
C926 C925 1.397 . S
C926 C927 1.391 . S
C927 C926 1.391 . S
C927 C928 1.405 . S
C928 H908 0.950 . S
C928 C927 1.405 . S
C928 C929 1.367 . S
C929 H909 0.950 . S
C929 C924 1.386 . S
C929 C928 1.367 . S
C930 C924 1.483 . S
C930 C931 1.382 . S
C930 C932 1.403 . S
C931 H910 0.950 . S
C931 C930 1.382 . S
C931 C947 1.411 . S
C932 C930 1.403 . S
C932 C933 1.489 . S
C932 C946 1.411 . S
C933 C932 1.489 . S
C933 C934 1.383 . S
C933 C938 1.382 . S
C934 H911 0.950 . S
C934 C933 1.383 . S
C934 C935 1.395 . S
C935 H912 0.950 . S
C935 C934 1.395 . S
C935 C936 1.288 . S
C936 C935 1.288 . S
C936 C937 1.392 . S
C937 H913 0.951 . S
C937 C936 1.392 . S
C937 C938 1.392 . S
C938 H914 0.949 . S
C938 C933 1.382 . S
C938 C937 1.392 . S
C939 C940 1.376 . S
C939 C944 1.386 . S
C939 C945 1.483 . S
C940 H915 0.949 . S
C940 C939 1.376 . S
C940 C941 1.397 . S
C941 H916 0.950 . S
C941 C940 1.397 . S
C941 C942 1.391 . S
C942 C941 1.391 . S
C942 C943 1.405 . S
C943 H917 0.950 . S
C943 C942 1.405 . S
C943 C944 1.367 . S
C944 H918 0.950 . S
C944 C939 1.386 . S
C944 C943 1.367 . S
C945 C939 1.483 . S
C945 C946 1.382 . S
C945 C947 1.403 . S
C946 H919 0.950 . S
C946 C932 1.411 . S
C946 C945 1.382 . S
C947 C931 1.411 . S
C947 C945 1.403 . S
C947 C948 1.489 . S
C948 C947 1.489 . S
C948 C949 1.383 . S
C948 C953 1.382 . S
C949 H920 0.950 . S
C949 C948 1.383 . S
C949 C950 1.395 . S
C950 H921 0.950 . S
C950 C949 1.395 . S
C950 C951 1.288 . S
C951 C950 1.288 . S
C951 C952 1.392 . S
C952 H922 0.951 . S
C952 C951 1.392 . S
C952 C953 1.392 . S
C953 H923 0.949 . S
C953 C948 1.382 . S
C953 C952 1.392 . S
H954 C973 0.949 . S
H955 C974 0.950 . S
H956 C976 0.950 . S
H957 C977 0.950 . S
H958 C979 0.950 . S
H959 C982 0.950 . S
H960 C983 0.950 . S
H961 C985 0.951 . S
H962 C986 0.949 . S
H963 C988 0.949 . S
H964 C989 0.950 . S
H965 C991 0.950 . S
H966 C992 0.950 . S
H967 C994 0.950 . S
H968 C997 0.950 . S
H969 C998 0.950 . S
H970 C1000 0.951 . S
H971 C1001 0.949 . S
C972 C973 1.376 . S
C972 C977 1.386 . S
C972 C978 1.483 . S
C973 H954 0.949 . S
C973 C972 1.376 . S
C973 C974 1.397 . S
C974 H955 0.950 . S
C974 C973 1.397 . S
C974 C975 1.391 . S
C975 C974 1.391 . S
C975 C976 1.405 . S
C976 H956 0.950 . S
C976 C975 1.405 . S
C976 C977 1.367 . S
C977 H957 0.950 . S
C977 C972 1.386 . S
C977 C976 1.367 . S
C978 C972 1.483 . S
C978 C979 1.382 . S
C978 C980 1.403 . S
C979 H958 0.950 . S
C979 C978 1.382 . S
C979 C995 1.411 . S
C980 C978 1.403 . S
C980 C981 1.489 . S
C980 C994 1.411 . S
C981 C980 1.489 . S
C981 C982 1.383 . S
C981 C986 1.382 . S
C982 H959 0.950 . S
C982 C981 1.383 . S
C982 C983 1.395 . S
C983 H960 0.950 . S
C983 C982 1.395 . S
C983 C984 1.288 . S
C984 C983 1.288 . S
C984 C985 1.392 . S
C985 H961 0.951 . S
C985 C984 1.392 . S
C985 C986 1.392 . S
C986 H962 0.949 . S
C986 C981 1.382 . S
C986 C985 1.392 . S
C987 C988 1.376 . S
C987 C992 1.386 . S
C987 C993 1.483 . S
C988 H963 0.949 . S
C988 C987 1.376 . S
C988 C989 1.397 . S
C989 H964 0.950 . S
C989 C988 1.397 . S
C989 C990 1.391 . S
C990 C989 1.391 . S
C990 C991 1.405 . S
C991 H965 0.950 . S
C991 C990 1.405 . S
C991 C992 1.367 . S
C992 H966 0.950 . S
C992 C987 1.386 . S
C992 C991 1.367 . S
C993 C987 1.483 . S
C993 C994 1.382 . S
C993 C995 1.403 . S
C994 H967 0.950 . S
C994 C980 1.411 . S
C994 C993 1.382 . S
C995 C979 1.411 . S
C995 C993 1.403 . S
C995 C996 1.489 . S
C996 C995 1.489 . S
C996 C997 1.383 . S
C996 C1001 1.382 . S
C997 H968 0.950 . S
C997 C996 1.383 . S
C997 C998 1.395 . S
C998 H969 0.950 . S
C998 C997 1.395 . S
C998 C999 1.288 . S
C999 C998 1.288 . S
C999 C1000 1.392 . S
C1000 H970 0.951 . S
C1000 C999 1.392 . S
C1000 C1001 1.392 . S
C1001 H971 0.949 . S
C1001 C996 1.382 . S
C1001 C1000 1.392 . S
H1002 C1021 0.949 . S
H1003 C1022 0.950 . S
H1004 C1024 0.950 . S
H1005 C1025 0.950 . S
H1006 C1027 0.950 . S
H1007 C1030 0.950 . S
H1008 C1031 0.950 . S
H1009 C1033 0.951 . S
H1010 C1034 0.949 . S
H1011 C1036 0.949 . S
H1012 C1037 0.950 . S
H1013 C1039 0.950 . S
H1014 C1040 0.950 . S
H1015 C1042 0.950 . S
H1016 C1045 0.950 . S
H1017 C1046 0.950 . S
H1018 C1048 0.951 . S
H1019 C1049 0.949 . S
C1020 C1021 1.376 . S
C1020 C1025 1.386 . S
C1020 C1026 1.483 . S
C1021 H1002 0.949 . S
C1021 C1020 1.376 . S
C1021 C1022 1.397 . S
C1022 H1003 0.950 . S
C1022 C1021 1.397 . S
C1022 C1023 1.391 . S
C1023 C1022 1.391 . S
C1023 C1024 1.405 . S
C1024 H1004 0.950 . S
C1024 C1023 1.405 . S
C1024 C1025 1.367 . S
C1025 H1005 0.950 . S
C1025 C1020 1.386 . S
C1025 C1024 1.367 . S
C1026 C1020 1.483 . S
C1026 C1027 1.382 . S
C1026 C1028 1.403 . S
C1027 H1006 0.950 . S
C1027 C1026 1.382 . S
C1027 C1043 1.411 . S
C1028 C1026 1.403 . S
C1028 C1029 1.489 . S
C1028 C1042 1.411 . S
C1029 C1028 1.489 . S
C1029 C1030 1.383 . S
C1029 C1034 1.382 . S
C1030 H1007 0.950 . S
C1030 C1029 1.383 . S
C1030 C1031 1.395 . S
C1031 H1008 0.950 . S
C1031 C1030 1.395 . S
C1031 C1032 1.288 . S
C1032 C1031 1.288 . S
C1032 C1033 1.392 . S
C1033 H1009 0.951 . S
C1033 C1032 1.392 . S
C1033 C1034 1.392 . S
C1034 H1010 0.949 . S
C1034 C1029 1.382 . S
C1034 C1033 1.392 . S
C1035 C1036 1.376 . S
C1035 C1040 1.386 . S
C1035 C1041 1.483 . S
C1036 H1011 0.949 . S
C1036 C1035 1.376 . S
C1036 C1037 1.397 . S
C1037 H1012 0.950 . S
C1037 C1036 1.397 . S
C1037 C1038 1.391 . S
C1038 C1037 1.391 . S
C1038 C1039 1.405 . S
C1039 H1013 0.950 . S
C1039 C1038 1.405 . S
C1039 C1040 1.367 . S
C1040 H1014 0.950 . S
C1040 C1035 1.386 . S
C1040 C1039 1.367 . S
C1041 C1035 1.483 . S
C1041 C1042 1.382 . S
C1041 C1043 1.403 . S
C1042 H1015 0.950 . S
C1042 C1028 1.411 . S
C1042 C1041 1.382 . S
C1043 C1027 1.411 . S
C1043 C1041 1.403 . S
C1043 C1044 1.489 . S
C1044 C1043 1.489 . S
C1044 C1045 1.383 . S
C1044 C1049 1.382 . S
C1045 H1016 0.950 . S
C1045 C1044 1.383 . S
C1045 C1046 1.395 . S
C1046 H1017 0.950 . S
C1046 C1045 1.395 . S
C1046 C1047 1.288 . S
C1047 C1046 1.288 . S
C1047 C1048 1.392 . S
C1048 H1018 0.951 . S
C1048 C1047 1.392 . S
C1048 C1049 1.392 . S
C1049 H1019 0.949 . S
C1049 C1044 1.382 . S
C1049 C1048 1.392 . S
H1050 C1069 0.949 . S
H1051 C1070 0.950 . S
H1052 C1072 0.950 . S
H1053 C1073 0.950 . S
H1054 C1075 0.950 . S
H1055 C1078 0.950 . S
H1056 C1079 0.950 . S
H1057 C1081 0.951 . S
H1058 C1082 0.949 . S
H1059 C1084 0.949 . S
H1060 C1085 0.950 . S
H1061 C1087 0.950 . S
H1062 C1088 0.950 . S
H1063 C1090 0.950 . S
H1064 C1093 0.950 . S
H1065 C1094 0.950 . S
H1066 C1096 0.951 . S
H1067 C1097 0.949 . S
C1068 C1069 1.376 . S
C1068 C1073 1.386 . S
C1068 C1074 1.483 . S
C1069 H1050 0.949 . S
C1069 C1068 1.376 . S
C1069 C1070 1.397 . S
C1070 H1051 0.950 . S
C1070 C1069 1.397 . S
C1070 C1071 1.391 . S
C1071 C1070 1.391 . S
C1071 C1072 1.405 . S
C1072 H1052 0.950 . S
C1072 C1071 1.405 . S
C1072 C1073 1.367 . S
C1073 H1053 0.950 . S
C1073 C1068 1.386 . S
C1073 C1072 1.367 . S
C1074 C1068 1.483 . S
C1074 C1075 1.382 . S
C1074 C1076 1.403 . S
C1075 H1054 0.950 . S
C1075 C1074 1.382 . S
C1075 C1091 1.411 . S
C1076 C1074 1.403 . S
C1076 C1077 1.489 . S
C1076 C1090 1.411 . S
C1077 C1076 1.489 . S
C1077 C1078 1.383 . S
C1077 C1082 1.382 . S
C1078 H1055 0.950 . S
C1078 C1077 1.383 . S
C1078 C1079 1.395 . S
C1079 H1056 0.950 . S
C1079 C1078 1.395 . S
C1079 C1080 1.288 . S
C1080 C1079 1.288 . S
C1080 C1081 1.392 . S
C1081 H1057 0.951 . S
C1081 C1080 1.392 . S
C1081 C1082 1.392 . S
C1082 H1058 0.949 . S
C1082 C1077 1.382 . S
C1082 C1081 1.392 . S
C1083 C1084 1.376 . S
C1083 C1088 1.386 . S
C1083 C1089 1.483 . S
C1084 H1059 0.949 . S
C1084 C1083 1.376 . S
C1084 C1085 1.397 . S
C1085 H1060 0.950 . S
C1085 C1084 1.397 . S
C1085 C1086 1.391 . S
C1086 C1085 1.391 . S
C1086 C1087 1.405 . S
C1087 H1061 0.950 . S
C1087 C1086 1.405 . S
C1087 C1088 1.367 . S
C1088 H1062 0.950 . S
C1088 C1083 1.386 . S
C1088 C1087 1.367 . S
C1089 C1083 1.483 . S
C1089 C1090 1.382 . S
C1089 C1091 1.403 . S
C1090 H1063 0.950 . S
C1090 C1076 1.411 . S
C1090 C1089 1.382 . S
C1091 C1075 1.411 . S
C1091 C1089 1.403 . S
C1091 C1092 1.489 . S
C1092 C1091 1.489 . S
C1092 C1093 1.383 . S
C1092 C1097 1.382 . S
C1093 H1064 0.950 . S
C1093 C1092 1.383 . S
C1093 C1094 1.395 . S
C1094 H1065 0.950 . S
C1094 C1093 1.395 . S
C1094 C1095 1.288 . S
C1095 C1094 1.288 . S
C1095 C1096 1.392 . S
C1096 H1066 0.951 . S
C1096 C1095 1.392 . S
C1096 C1097 1.392 . S
C1097 H1067 0.949 . S
C1097 C1092 1.382 . S
C1097 C1096 1.392 . S
C1098 C1099 1.369 1_455 S
C1098 C1100 1.419 . S
C1098 H1102 0.930 . S
C1099 C1098 1.369 1_655 S
C1099 C1108 1.429 . S
C1100 C1098 1.419 . S
C1100 C1101 1.363 1_455 S
C1100 H1103 0.929 . S
C1101 C1100 1.363 1_655 S
C1101 C1107 1.428 . S
H1102 C1098 0.930 . S
H1103 C1100 0.929 . S
S1104 N1105 1.613 . S
S1104 N1106 1.610 . S
N1105 S1104 1.613 . S
N1105 C1108 1.350 . S
N1106 S1104 1.610 . S
N1106 C1107 1.351 . S
C1107 C1101 1.428 . S
C1107 N1106 1.351 . S
C1107 C1108 1.434 . S
C1108 C1099 1.429 . S
C1108 N1105 1.350 . S
C1108 C1107 1.434 . S
C1109 C1110 1.369 . S
C1109 C1111 1.419 . S
C1109 H1113 0.930 . S
C1110 C1109 1.369 . S
C1110 C1119 1.429 . S
C1111 C1109 1.419 . S
C1111 C1112 1.363 . S
C1111 H1114 0.929 . S
C1112 C1111 1.363 . S
C1112 C1118 1.428 . S
H1113 C1109 0.930 . S
H1114 C1111 0.929 . S
S1115 N1116 1.613 . S
S1115 N1117 1.610 . S
N1116 S1115 1.613 . S
N1116 C1119 1.350 . S
N1117 S1115 1.610 . S
N1117 C1118 1.351 . S
C1118 C1112 1.428 . S
C1118 N1117 1.351 . S
C1118 C1119 1.434 . S
C1119 C1110 1.429 . S
C1119 N1116 1.350 . S
C1119 C1118 1.434 . S
C1120 C1121 1.369 . S
C1120 C1122 1.419 . S
C1120 H1124 0.930 . S
C1121 C1120 1.369 . S
C1121 C1130 1.429 . S
C1122 C1120 1.419 . S
C1122 C1123 1.363 . S
C1122 H1125 0.929 . S
C1123 C1122 1.363 . S
C1123 C1129 1.428 . S
H1124 C1120 0.930 . S
H1125 C1122 0.929 . S
S1126 N1127 1.613 1_565 S
S1126 N1128 1.610 . S
N1127 S1126 1.613 1_545 S
N1127 C1130 1.350 . S
N1128 S1126 1.610 . S
N1128 C1129 1.351 1_565 S
C1129 C1123 1.428 . S
C1129 N1128 1.351 1_545 S
C1129 C1130 1.434 . S
C1130 C1121 1.429 . S
C1130 N1127 1.350 . S
C1130 C1129 1.434 . S
C1131 C1132 1.369 . S
C1131 C1133 1.419 . S
C1131 H1135 0.930 . S
C1132 C1131 1.369 . S
C1132 C1141 1.429 . S
C1133 C1131 1.419 . S
C1133 C1134 1.363 . S
C1133 H1136 0.929 . S
C1134 C1133 1.363 . S
C1134 C1140 1.428 . S
H1135 C1131 0.930 . S
H1136 C1133 0.929 . S
S1137 N1138 1.611 1_545 S
S1137 N1139 1.610 . S
N1138 S1137 1.611 1_565 S
N1138 C1141 1.350 . S
N1139 S1137 1.610 . S
N1139 C1140 1.351 1_545 S
C1140 C1134 1.428 . S
C1140 N1139 1.351 1_565 S
C1140 C1141 1.434 . S
C1141 C1132 1.429 . S
C1141 N1138 1.350 . S
C1141 C1140 1.434 . S
C1142 C1143 1.369 1_655 S
C1142 C1144 1.419 . S
C1142 H1146 0.930 . S
C1143 C1142 1.369 1_455 S
C1143 C1152 1.429 . S
C1144 C1142 1.419 . S
C1144 C1145 1.363 1_655 S
C1144 H1147 0.929 . S
C1145 C1144 1.363 1_455 S
C1145 C1151 1.428 . S
H1146 C1142 0.930 . S
H1147 C1144 0.929 . S
S1148 N1149 1.613 . S
S1148 N1150 1.610 . S
N1149 S1148 1.613 . S
N1149 C1152 1.350 . S
N1150 S1148 1.610 . S
N1150 C1151 1.351 . S
C1151 C1145 1.428 . S
C1151 N1150 1.351 . S
C1151 C1152 1.434 . S
C1152 C1143 1.429 . S
C1152 N1149 1.350 . S
C1152 C1151 1.434 . S
C1153 C1154 1.369 . S
C1153 C1155 1.419 . S
C1153 H1157 0.930 . S
C1154 C1153 1.369 . S
C1154 C1163 1.429 . S
C1155 C1153 1.419 . S
C1155 C1156 1.363 . S
C1155 H1158 0.929 . S
C1156 C1155 1.363 . S
C1156 C1162 1.428 . S
H1157 C1153 0.930 . S
H1158 C1155 0.929 . S
S1159 N1160 1.613 . S
S1159 N1161 1.610 . S
N1160 S1159 1.613 . S
N1160 C1163 1.350 . S
N1161 S1159 1.610 . S
N1161 C1162 1.351 . S
C1162 C1156 1.428 . S
C1162 N1161 1.351 . S
C1162 C1163 1.434 . S
C1163 C1154 1.429 . S
C1163 N1160 1.350 . S
C1163 C1162 1.434 . S
C1164 C1165 1.369 . S
C1164 C1166 1.419 . S
C1164 H1168 0.930 . S
C1165 C1164 1.369 . S
C1165 C1174 1.429 1_455 S
C1166 C1164 1.419 . S
C1166 C1167 1.363 . S
C1166 H1169 0.929 . S
C1167 C1166 1.363 . S
C1167 C1173 1.428 1_455 S
H1168 C1164 0.930 . S
H1169 C1166 0.929 . S
S1170 N1171 1.613 . S
S1170 N1172 1.610 . S
N1171 S1170 1.613 . S
N1171 C1174 1.350 . S
N1172 S1170 1.610 . S
N1172 C1173 1.351 . S
C1173 C1167 1.428 1_655 S
C1173 N1172 1.351 . S
C1173 C1174 1.434 . S
C1174 C1165 1.429 1_655 S
C1174 N1171 1.350 . S
C1174 C1173 1.434 . S
C1175 C1176 1.369 . S
C1175 C1177 1.419 . S
C1175 H1179 0.930 . S
C1176 C1175 1.369 . S
C1176 C1185 1.429 . S
C1177 C1175 1.419 . S
C1177 C1178 1.363 . S
C1177 H1180 0.929 . S
C1178 C1177 1.363 . S
C1178 C1184 1.428 . S
H1179 C1175 0.930 . S
H1180 C1177 0.929 . S
S1181 N1182 1.613 . S
S1181 N1183 1.610 . S
N1182 S1181 1.613 . S
N1182 C1185 1.350 . S
N1183 S1181 1.610 . S
N1183 C1184 1.351 . S
C1184 C1178 1.428 . S
C1184 N1183 1.351 . S
C1184 C1185 1.434 . S
C1185 C1176 1.429 . S
C1185 N1182 1.350 . S
C1185 C1184 1.434 . S
C1186 C1187 1.369 . S
C1186 C1188 1.419 . S
C1186 H1190 0.930 . S
C1187 C1186 1.369 . S
C1187 C1196 1.437 . S
C1188 C1186 1.419 . S
C1188 C1189 1.363 . S
C1188 H1191 0.929 . S
C1189 C1188 1.363 . S
C1189 C1195 1.428 1_565 S
H1190 C1186 0.930 . S
H1191 C1188 0.929 . S
S1192 N1193 1.613 . S
S1192 N1194 1.610 . S
N1193 S1192 1.613 . S
N1193 C1196 1.353 1_545 S
N1194 S1192 1.610 . S
N1194 C1195 1.351 . S
C1195 C1189 1.428 1_545 S
C1195 N1194 1.351 . S
C1195 C1196 1.421 1_545 S
C1196 C1187 1.437 . S
C1196 N1193 1.353 1_565 S
C1196 C1195 1.421 1_565 S
C1197 C1198 1.369 . S
C1197 C1199 1.419 . S
C1197 H1201 0.930 . S
C1198 C1197 1.369 . S
C1198 C1207 1.429 1_545 S
C1199 C1197 1.419 . S
C1199 C1200 1.363 . S
C1199 H1202 0.929 . S
C1200 C1199 1.363 . S
C1200 C1206 1.428 1_545 S
H1201 C1197 0.930 . S
H1202 C1199 0.929 . S
S1203 N1204 1.613 . S
S1203 N1205 1.610 . S
N1204 S1203 1.613 . S
N1204 C1207 1.350 . S
N1205 S1203 1.610 . S
N1205 C1206 1.351 . S
C1206 C1200 1.428 1_565 S
C1206 N1205 1.351 . S
C1206 C1207 1.434 . S
C1207 C1198 1.429 1_565 S
C1207 N1204 1.350 . S
C1207 C1206 1.434 . S
C1208 C1209 1.369 . S
C1208 C1210 1.419 . S
C1208 H1212 0.930 . S
C1209 C1208 1.369 . S
C1209 C1218 1.429 1_655 S
C1210 C1208 1.419 . S
C1210 C1211 1.363 . S
C1210 H1213 0.929 . S
C1211 C1210 1.363 . S
C1211 C1217 1.428 1_655 S
H1212 C1208 0.930 . S
H1213 C1210 0.929 . S
S1214 N1215 1.613 . S
S1214 N1216 1.610 . S
N1215 S1214 1.613 . S
N1215 C1218 1.350 . S
N1216 S1214 1.610 . S
N1216 C1217 1.351 . S
C1217 C1211 1.428 1_455 S
C1217 N1216 1.351 . S
C1217 C1218 1.434 . S
C1218 C1209 1.429 1_455 S
C1218 N1215 1.350 . S
C1218 C1217 1.434 . S
C1219 C1220 1.369 . S
C1219 C1221 1.419 . S
C1219 H1223 0.930 . S
C1220 C1219 1.369 . S
C1220 C1229 1.429 . S
C1221 C1219 1.419 . S
C1221 C1222 1.363 . S
C1221 H1224 0.929 . S
C1222 C1221 1.363 . S
C1222 C1228 1.428 . S
H1223 C1219 0.930 . S
H1224 C1221 0.929 . S
S1225 N1226 1.613 . S
S1225 N1227 1.610 . S
N1226 S1225 1.613 . S
N1226 C1229 1.350 . S
N1227 S1225 1.610 . S
N1227 C1228 1.351 . S
C1228 C1222 1.428 . S
C1228 N1227 1.351 . S
C1228 C1229 1.434 . S
C1229 C1220 1.429 . S
C1229 N1226 1.350 . S
C1229 C1228 1.434 . S
C1230 C1231 1.369 . S
C1230 C1232 1.419 . S
C1230 H1234 0.930 . S
C1231 C1230 1.369 . S
C1231 C1240 1.429 . S
C1232 C1230 1.419 . S
C1232 C1233 1.363 . S
C1232 H1235 0.929 . S
C1233 C1232 1.363 . S
C1233 C1239 1.428 . S
H1234 C1230 0.930 . S
H1235 C1232 0.929 . S
S1236 N1237 1.613 . S
S1236 N1238 1.610 . S
N1237 S1236 1.613 . S
N1237 C1240 1.350 . S
N1238 S1236 1.610 . S
N1238 C1239 1.351 . S
C1239 C1233 1.428 . S
C1239 N1238 1.351 . S
C1239 C1240 1.434 . S
C1240 C1231 1.429 . S
C1240 N1237 1.350 . S
C1240 C1239 1.434 . S
C1241 C1242 1.369 . S
C1241 C1243 1.419 . S
C1241 H1245 0.930 . S
C1242 C1241 1.369 . S
C1242 C1251 1.429 . S
C1243 C1241 1.419 . S
C1243 C1244 1.363 . S
C1243 H1246 0.929 . S
C1244 C1243 1.363 . S
C1244 C1250 1.428 . S
H1245 C1241 0.930 . S
H1246 C1243 0.929 . S
S1247 N1248 1.613 . S
S1247 N1249 1.610 . S
N1248 S1247 1.613 . S
N1248 C1251 1.350 . S
N1249 S1247 1.610 . S
N1249 C1250 1.351 . S
C1250 C1244 1.428 . S
C1250 N1249 1.351 . S
C1250 C1251 1.434 . S
C1251 C1242 1.429 . S
C1251 N1248 1.350 . S
C1251 C1250 1.434 . S
C1252 C1253 1.369 . S
C1252 C1254 1.419 . S
C1252 H1256 0.930 . S
C1253 C1252 1.369 . S
C1253 C1262 1.429 . S
C1254 C1252 1.419 . S
C1254 C1255 1.363 . S
C1254 H1257 0.929 . S
C1255 C1254 1.363 . S
C1255 C1261 1.428 . S
H1256 C1252 0.930 . S
H1257 C1254 0.929 . S
S1258 N1259 1.613 . S
S1258 N1260 1.610 . S
N1259 S1258 1.613 . S
N1259 C1262 1.350 . S
N1260 S1258 1.610 . S
N1260 C1261 1.351 . S
C1261 C1255 1.428 . S
C1261 N1260 1.351 . S
C1261 C1262 1.434 . S
C1262 C1253 1.429 . S
C1262 N1259 1.350 . S
C1262 C1261 1.434 . S
C1263 C1264 1.369 . S
C1263 C1265 1.419 . S
C1263 H1267 0.930 . S
C1264 C1263 1.369 . S
C1264 C1273 1.429 . S
C1265 C1263 1.419 . S
C1265 C1266 1.363 . S
C1265 H1268 0.929 . S
C1266 C1265 1.363 . S
C1266 C1272 1.428 . S
H1267 C1263 0.930 . S
H1268 C1265 0.929 . S
S1269 N1270 1.613 . S
S1269 N1271 1.610 . S
N1270 S1269 1.613 . S
N1270 C1273 1.350 . S
N1271 S1269 1.610 . S
N1271 C1272 1.351 . S
C1272 C1266 1.428 . S
C1272 N1271 1.351 . S
C1272 C1273 1.434 . S
C1273 C1264 1.429 . S
C1273 N1270 1.350 . S
C1273 C1272 1.434 . S
C1274 C1275 1.369 . S
C1274 C1276 1.419 . S
C1274 H1278 0.930 . S
C1275 C1274 1.369 . S
C1275 C1284 1.429 . S
C1276 C1274 1.419 . S
C1276 C1277 1.363 . S
C1276 H1279 0.929 . S
C1277 C1276 1.363 . S
C1277 C1283 1.428 . S
H1278 C1274 0.930 . S
H1279 C1276 0.929 . S
S1280 N1281 1.613 . S
S1280 N1282 1.610 . S
N1281 S1280 1.613 . S
N1281 C1284 1.350 . S
N1282 S1280 1.610 . S
N1282 C1283 1.351 . S
C1283 C1277 1.428 . S
C1283 N1282 1.351 . S
C1283 C1284 1.434 . S
C1284 C1275 1.429 . S
C1284 N1281 1.350 . S
C1284 C1283 1.434 . S
C1285 C1286 1.369 . S
C1285 C1287 1.419 . S
C1285 H1289 0.930 . S
C1286 C1285 1.369 . S
C1286 C1295 1.429 . S
C1287 C1285 1.419 . S
C1287 C1288 1.363 . S
C1287 H1290 0.929 . S
C1288 C1287 1.363 . S
C1288 C1294 1.428 . S
H1289 C1285 0.930 . S
H1290 C1287 0.929 . S
S1291 N1292 1.613 . S
S1291 N1293 1.610 . S
N1292 S1291 1.613 . S
N1292 C1295 1.350 . S
N1293 S1291 1.610 . S
N1293 C1294 1.351 . S
C1294 C1288 1.428 . S
C1294 N1293 1.351 . S
C1294 C1295 1.434 . S
C1295 C1286 1.429 . S
C1295 N1292 1.350 . S
C1295 C1294 1.434 . S
C1296 C1297 1.369 . S
C1296 C1298 1.419 . S
C1296 H1300 0.930 . S
C1297 C1296 1.369 . S
C1297 C1306 1.429 . S
C1298 C1296 1.419 . S
C1298 C1299 1.363 . S
C1298 H1301 0.929 . S
C1299 C1298 1.363 . S
C1299 C1305 1.428 . S
H1300 C1296 0.930 . S
H1301 C1298 0.929 . S
S1302 N1303 1.613 . S
S1302 N1304 1.610 . S
N1303 S1302 1.613 . S
N1303 C1306 1.350 . S
N1304 S1302 1.610 . S
N1304 C1305 1.351 . S
C1305 C1299 1.428 . S
C1305 N1304 1.351 . S
C1305 C1306 1.434 . S
C1306 C1297 1.429 . S
C1306 N1303 1.350 . S
C1306 C1305 1.434 . S
C1307 C1308 1.369 . S
C1307 C1309 1.419 . S
C1307 H1311 0.930 . S
C1308 C1307 1.369 . S
C1308 C1317 1.429 . S
C1309 C1307 1.419 . S
C1309 C1310 1.363 . S
C1309 H1312 0.929 . S
C1310 C1309 1.363 . S
C1310 C1316 1.428 . S
H1311 C1307 0.930 . S
H1312 C1309 0.929 . S
S1313 N1314 1.613 . S
S1313 N1315 1.610 . S
N1314 S1313 1.613 . S
N1314 C1317 1.350 . S
N1315 S1313 1.610 . S
N1315 C1316 1.351 . S
C1316 C1310 1.428 . S
C1316 N1315 1.351 . S
C1316 C1317 1.434 . S
C1317 C1308 1.429 . S
C1317 N1314 1.350 . S
C1317 C1316 1.434 . S
C1318 C1319 1.369 . S
C1318 C1320 1.419 . S
C1318 H1322 0.930 . S
C1319 C1318 1.369 . S
C1319 C1328 1.429 . S
C1320 C1318 1.419 . S
C1320 C1321 1.363 . S
C1320 H1323 0.929 . S
C1321 C1320 1.363 . S
C1321 C1327 1.428 . S
H1322 C1318 0.930 . S
H1323 C1320 0.929 . S
S1324 N1325 1.613 . S
S1324 N1326 1.610 . S
N1325 S1324 1.613 . S
N1325 C1328 1.350 . S
N1326 S1324 1.610 . S
N1326 C1327 1.351 . S
C1327 C1321 1.428 . S
C1327 N1326 1.351 . S
C1327 C1328 1.434 . S
C1328 C1319 1.429 . S
C1328 N1325 1.350 . S
C1328 C1327 1.434 . S
C1329 C1330 1.369 . S
C1329 C1331 1.419 . S
C1329 H1333 0.930 . S
C1330 C1329 1.369 . S
C1330 C1339 1.429 . S
C1331 C1329 1.419 . S
C1331 C1332 1.363 . S
C1331 H1334 0.929 . S
C1332 C1331 1.363 . S
C1332 C1338 1.428 . S
H1333 C1329 0.930 . S
H1334 C1331 0.929 . S
S1335 N1336 1.613 . S
S1335 N1337 1.610 . S
N1336 S1335 1.613 . S
N1336 C1339 1.350 . S
N1337 S1335 1.610 . S
N1337 C1338 1.351 . S
C1338 C1332 1.428 . S
C1338 N1337 1.351 . S
C1338 C1339 1.434 . S
C1339 C1330 1.429 . S
C1339 N1336 1.350 . S
C1339 C1338 1.434 . S
C1340 C1341 1.369 . S
C1340 C1342 1.419 . S
C1340 H1344 0.930 . S
C1341 C1340 1.369 . S
C1341 C1350 1.429 . S
C1342 C1340 1.419 . S
C1342 C1343 1.363 . S
C1342 H1345 0.929 . S
C1343 C1342 1.363 . S
C1343 C1349 1.428 . S
H1344 C1340 0.930 . S
H1345 C1342 0.929 . S
S1346 N1347 1.613 . S
S1346 N1348 1.610 . S
N1347 S1346 1.613 . S
N1347 C1350 1.350 . S
N1348 S1346 1.610 . S
N1348 C1349 1.351 . S
C1349 C1343 1.428 . S
C1349 N1348 1.351 . S
C1349 C1350 1.434 . S
C1350 C1341 1.429 . S
C1350 N1347 1.350 . S
C1350 C1349 1.434 . S
C1351 C1352 1.369 . S
C1351 C1353 1.419 . S
C1351 H1355 0.930 . S
C1352 C1351 1.369 . S
C1352 C1361 1.429 . S
C1353 C1351 1.419 . S
C1353 C1354 1.363 . S
C1353 H1356 0.929 . S
C1354 C1353 1.363 . S
C1354 C1360 1.428 . S
H1355 C1351 0.930 . S
H1356 C1353 0.929 . S
S1357 N1358 1.613 . S
S1357 N1359 1.610 . S
N1358 S1357 1.613 . S
N1358 C1361 1.350 . S
N1359 S1357 1.610 . S
N1359 C1360 1.351 . S
C1360 C1354 1.428 . S
C1360 N1359 1.351 . S
C1360 C1361 1.434 . S
C1361 C1352 1.429 . S
C1361 N1358 1.350 . S
C1361 C1360 1.434 . S
C1362 C1363 1.369 . S
C1362 C1364 1.419 . S
C1362 H1366 0.930 . S
C1363 C1362 1.369 . S
C1363 C1372 1.429 . S
C1364 C1362 1.419 . S
C1364 C1365 1.363 . S
C1364 H1367 0.929 . S
C1365 C1364 1.363 . S
C1365 C1371 1.428 . S
H1366 C1362 0.930 . S
H1367 C1364 0.929 . S
S1368 N1369 1.613 . S
S1368 N1370 1.610 . S
N1369 S1368 1.613 . S
N1369 C1372 1.350 . S
N1370 S1368 1.610 . S
N1370 C1371 1.351 . S
C1371 C1365 1.428 . S
C1371 N1370 1.351 . S
C1371 C1372 1.434 . S
C1372 C1363 1.429 . S
C1372 N1369 1.350 . S
C1372 C1371 1.434 . S
C1373 C1374 1.369 . S
C1373 C1375 1.419 . S
C1373 H1377 0.930 . S
C1374 C1373 1.369 . S
C1374 C1383 1.429 . S
C1375 C1373 1.419 . S
C1375 C1376 1.363 . S
C1375 H1378 0.929 . S
C1376 C1375 1.363 . S
C1376 C1382 1.428 . S
H1377 C1373 0.930 . S
H1378 C1375 0.929 . S
S1379 N1380 1.613 . S
S1379 N1381 1.610 . S
N1380 S1379 1.613 . S
N1380 C1383 1.350 . S
N1381 S1379 1.610 . S
N1381 C1382 1.351 . S
C1382 C1376 1.428 . S
C1382 N1381 1.351 . S
C1382 C1383 1.434 . S
C1383 C1374 1.429 . S
C1383 N1380 1.350 . S
C1383 C1382 1.434 . S
C1384 C1385 1.369 . S
C1384 C1386 1.419 . S
C1384 H1388 0.930 . S
C1385 C1384 1.369 . S
C1385 C1394 1.429 . S
C1386 C1384 1.419 . S
C1386 C1387 1.363 . S
C1386 H1389 0.929 . S
C1387 C1386 1.363 . S
C1387 C1393 1.428 . S
H1388 C1384 0.930 . S
H1389 C1386 0.929 . S
S1390 N1391 1.613 . S
S1390 N1392 1.610 . S
N1391 S1390 1.613 . S
N1391 C1394 1.350 . S
N1392 S1390 1.610 . S
N1392 C1393 1.351 . S
C1393 C1387 1.428 . S
C1393 N1392 1.351 . S
C1393 C1394 1.434 . S
C1394 C1385 1.429 . S
C1394 N1391 1.350 . S
C1394 C1393 1.434 . S
C1395 C1396 1.369 . S
C1395 C1397 1.419 . S
C1395 H1399 0.930 . S
C1396 C1395 1.369 . S
C1396 C1405 1.429 . S
C1397 C1395 1.419 . S
C1397 C1398 1.363 . S
C1397 H1400 0.929 . S
C1398 C1397 1.363 . S
C1398 C1404 1.428 . S
H1399 C1395 0.930 . S
H1400 C1397 0.929 . S
S1401 N1402 1.613 . S
S1401 N1403 1.610 . S
N1402 S1401 1.613 . S
N1402 C1405 1.350 . S
N1403 S1401 1.610 . S
N1403 C1404 1.351 . S
C1404 C1398 1.428 . S
C1404 N1403 1.351 . S
C1404 C1405 1.434 . S
C1405 C1396 1.429 . S
C1405 N1402 1.350 . S
C1405 C1404 1.434 . S
C1406 C1407 1.369 . S
C1406 C1408 1.419 . S
C1406 H1410 0.930 . S
C1407 C1406 1.369 . S
C1407 C1416 1.429 . S
C1408 C1406 1.419 . S
C1408 C1409 1.363 . S
C1408 H1411 0.929 . S
C1409 C1408 1.363 . S
C1409 C1415 1.428 . S
H1410 C1406 0.930 . S
H1411 C1408 0.929 . S
S1412 N1413 1.613 . S
S1412 N1414 1.610 . S
N1413 S1412 1.613 . S
N1413 C1416 1.350 . S
N1414 S1412 1.610 . S
N1414 C1415 1.351 . S
C1415 C1409 1.428 . S
C1415 N1414 1.351 . S
C1415 C1416 1.434 . S
C1416 C1407 1.429 . S
C1416 N1413 1.350 . S
C1416 C1415 1.434 . S
C1417 C1418 1.369 . S
C1417 C1419 1.419 . S
C1417 H1421 0.930 . S
C1418 C1417 1.369 . S
C1418 C1427 1.429 . S
C1419 C1417 1.419 . S
C1419 C1420 1.363 . S
C1419 H1422 0.929 . S
C1420 C1419 1.363 . S
C1420 C1426 1.428 . S
H1421 C1417 0.930 . S
H1422 C1419 0.929 . S
S1423 N1424 1.613 . S
S1423 N1425 1.610 . S
N1424 S1423 1.613 . S
N1424 C1427 1.350 . S
N1425 S1423 1.610 . S
N1425 C1426 1.351 . S
C1426 C1420 1.428 . S
C1426 N1425 1.351 . S
C1426 C1427 1.434 . S
C1427 C1418 1.429 . S
C1427 N1424 1.350 . S
C1427 C1426 1.434 . S
C1428 C1429 1.369 . S
C1428 C1430 1.419 . S
C1428 H1432 0.930 . S
C1429 C1428 1.369 . S
C1429 C1438 1.429 . S
C1430 C1428 1.419 . S
C1430 C1431 1.363 . S
C1430 H1433 0.929 . S
C1431 C1430 1.363 . S
C1431 C1437 1.428 . S
H1432 C1428 0.930 . S
H1433 C1430 0.929 . S
S1434 N1435 1.613 . S
S1434 N1436 1.610 . S
N1435 S1434 1.613 . S
N1435 C1438 1.350 . S
N1436 S1434 1.610 . S
N1436 C1437 1.351 . S
C1437 C1431 1.428 . S
C1437 N1436 1.351 . S
C1437 C1438 1.434 . S
C1438 C1429 1.429 . S
C1438 N1435 1.350 . S
C1438 C1437 1.434 . S
C1439 C1440 1.369 . S
C1439 C1441 1.419 . S
C1439 H1443 0.930 . S
C1440 C1439 1.369 . S
C1440 C1449 1.429 . S
C1441 C1439 1.419 . S
C1441 C1442 1.363 . S
C1441 H1444 0.929 . S
C1442 C1441 1.363 . S
C1442 C1448 1.428 . S
H1443 C1439 0.930 . S
H1444 C1441 0.929 . S
S1445 N1446 1.613 . S
S1445 N1447 1.610 . S
N1446 S1445 1.613 . S
N1446 C1449 1.350 . S
N1447 S1445 1.610 . S
N1447 C1448 1.351 . S
C1448 C1442 1.428 . S
C1448 N1447 1.351 . S
C1448 C1449 1.434 . S
C1449 C1440 1.429 . S
C1449 N1446 1.350 . S
C1449 C1448 1.434 . S
C1450 C1451 1.369 . S
C1450 C1452 1.419 . S
C1450 H1454 0.930 . S
C1451 C1450 1.369 . S
C1451 C1460 1.429 . S
C1452 C1450 1.419 . S
C1452 C1453 1.363 . S
C1452 H1455 0.929 . S
C1453 C1452 1.363 . S
C1453 C1459 1.428 . S
H1454 C1450 0.930 . S
H1455 C1452 0.929 . S
S1456 N1457 1.613 . S
S1456 N1458 1.610 . S
N1457 S1456 1.613 . S
N1457 C1460 1.350 . S
N1458 S1456 1.610 . S
N1458 C1459 1.351 . S
C1459 C1453 1.428 . S
C1459 N1458 1.351 . S
C1459 C1460 1.434 . S
C1460 C1451 1.429 . S
C1460 N1457 1.350 . S
C1460 C1459 1.434 . S
C1461 C1462 1.369 . S
C1461 C1463 1.419 . S
C1461 H1465 0.930 . S
C1462 C1461 1.369 . S
C1462 C1471 1.429 . S
C1463 C1461 1.419 . S
C1463 C1464 1.363 . S
C1463 H1466 0.929 . S
C1464 C1463 1.363 . S
C1464 C1470 1.428 . S
H1465 C1461 0.930 . S
H1466 C1463 0.929 . S
S1467 N1468 1.613 . S
S1467 N1469 1.610 . S
N1468 S1467 1.613 . S
N1468 C1471 1.350 . S
N1469 S1467 1.610 . S
N1469 C1470 1.351 . S
C1470 C1464 1.428 . S
C1470 N1469 1.351 . S
C1470 C1471 1.434 . S
C1471 C1462 1.429 . S
C1471 N1468 1.350 . S
C1471 C1470 1.434 . S
C1472 C1473 1.369 . S
C1472 C1474 1.419 . S
C1472 H1476 0.930 . S
C1473 C1472 1.369 . S
C1473 C1482 1.429 . S
C1474 C1472 1.419 . S
C1474 C1475 1.363 . S
C1474 H1477 0.929 . S
C1475 C1474 1.363 . S
C1475 C1481 1.428 . S
H1476 C1472 0.930 . S
H1477 C1474 0.929 . S
S1478 N1479 1.613 . S
S1478 N1480 1.610 . S
N1479 S1478 1.613 . S
N1479 C1482 1.350 . S
N1480 S1478 1.610 . S
N1480 C1481 1.351 . S
C1481 C1475 1.428 . S
C1481 N1480 1.351 . S
C1481 C1482 1.434 . S
C1482 C1473 1.429 . S
C1482 N1479 1.350 . S
C1482 C1481 1.434 . S
C1483 C1484 1.369 . S
C1483 C1485 1.419 . S
C1483 H1487 0.930 . S
C1484 C1483 1.369 . S
C1484 C1493 1.429 . S
C1485 C1483 1.419 . S
C1485 C1486 1.363 . S
C1485 H1488 0.929 . S
C1486 C1485 1.363 . S
C1486 C1492 1.428 . S
H1487 C1483 0.930 . S
H1488 C1485 0.929 . S
S1489 N1490 1.613 . S
S1489 N1491 1.610 . S
N1490 S1489 1.613 . S
N1490 C1493 1.350 . S
N1491 S1489 1.610 . S
N1491 C1492 1.351 . S
C1492 C1486 1.428 . S
C1492 N1491 1.351 . S
C1492 C1493 1.434 . S
C1493 C1484 1.429 . S
C1493 N1490 1.350 . S
C1493 C1492 1.434 . S
C1494 C1495 1.369 . S
C1494 C1496 1.419 . S
C1494 H1498 0.930 . S
C1495 C1494 1.369 . S
C1495 C1504 1.429 . S
C1496 C1494 1.419 . S
C1496 C1497 1.363 . S
C1496 H1499 0.929 . S
C1497 C1496 1.363 . S
C1497 C1503 1.428 . S
H1498 C1494 0.930 . S
H1499 C1496 0.929 . S
S1500 N1501 1.613 . S
S1500 N1502 1.610 . S
N1501 S1500 1.613 . S
N1501 C1504 1.350 . S
N1502 S1500 1.610 . S
N1502 C1503 1.351 . S
C1503 C1497 1.428 . S
C1503 N1502 1.351 . S
C1503 C1504 1.434 . S
C1504 C1495 1.429 . S
C1504 N1501 1.350 . S
C1504 C1503 1.434 . S
C1505 C1506 1.369 . S
C1505 C1507 1.419 . S
C1505 H1509 0.930 . S
C1506 C1505 1.369 . S
C1506 C1515 1.429 . S
C1507 C1505 1.419 . S
C1507 C1508 1.363 . S
C1507 H1510 0.929 . S
C1508 C1507 1.363 . S
C1508 C1514 1.428 . S
H1509 C1505 0.930 . S
H1510 C1507 0.929 . S
S1511 N1512 1.613 . S
S1511 N1513 1.610 1_556 S
N1512 S1511 1.613 . S
N1512 C1515 1.350 1_556 S
N1513 S1511 1.610 1_554 S
N1513 C1514 1.351 . S
C1514 C1508 1.428 . S
C1514 N1513 1.351 . S
C1514 C1515 1.434 . S
C1515 C1506 1.429 . S
C1515 N1512 1.350 1_554 S
C1515 C1514 1.434 . S
C1516 C1517 1.369 . S
C1516 C1518 1.419 . S
C1516 H1520 0.930 . S
C1517 C1516 1.369 . S
C1517 C1526 1.429 . S
C1518 C1516 1.419 . S
C1518 C1519 1.363 . S
C1518 H1521 0.929 . S
C1519 C1518 1.363 . S
C1519 C1525 1.428 . S
H1520 C1516 0.930 . S
H1521 C1518 0.929 . S
S1522 N1523 1.613 . S
S1522 N1524 1.610 1_556 S
N1523 S1522 1.613 . S
N1523 C1526 1.350 1_556 S
N1524 S1522 1.610 1_554 S
N1524 C1525 1.351 . S
C1525 C1519 1.428 . S
C1525 N1524 1.351 . S
C1525 C1526 1.434 . S
C1526 C1517 1.429 . S
C1526 N1523 1.350 1_554 S
C1526 C1525 1.434 . S
C1527 C1528 1.369 . S
C1527 C1529 1.419 . S
C1527 H1531 0.930 . S
C1528 C1527 1.369 . S
C1528 C1537 1.429 . S
C1529 C1527 1.419 . S
C1529 C1530 1.363 . S
C1529 H1532 0.929 . S
C1530 C1529 1.363 . S
C1530 C1536 1.428 . S
H1531 C1527 0.930 . S
H1532 C1529 0.929 . S
S1533 N1534 1.613 . S
S1533 N1535 1.610 1_554 S
N1534 S1533 1.613 . S
N1534 C1537 1.350 1_554 S
N1535 S1533 1.610 1_556 S
N1535 C1536 1.351 . S
C1536 C1530 1.428 . S
C1536 N1535 1.351 . S
C1536 C1537 1.434 . S
C1537 C1528 1.429 . S
C1537 N1534 1.350 1_556 S
C1537 C1536 1.434 . S
C1538 C1539 1.369 . S
C1538 C1540 1.419 . S
C1538 H1542 0.930 1_556 S
C1539 C1538 1.369 . S
C1539 C1548 1.429 . S
C1540 C1538 1.419 . S
C1540 C1541 1.363 . S
C1540 H1543 0.929 . S
C1541 C1540 1.363 . S
C1541 C1547 1.428 . S
H1542 C1538 0.930 1_554 S
H1543 C1540 0.929 . S
S1544 N1545 1.613 . S
S1544 N1546 1.610 . S
N1545 S1544 1.613 . S
N1545 C1548 1.350 . S
N1546 S1544 1.610 . S
N1546 C1547 1.351 . S
C1547 C1541 1.428 . S
C1547 N1546 1.351 . S
C1547 C1548 1.434 . S
C1548 C1539 1.429 . S
C1548 N1545 1.350 . S
C1548 C1547 1.434 . S
C1549 C1550 1.369 . S
C1549 C1551 1.419 . S
C1549 H1553 0.908 1_556 S
C1550 C1549 1.369 . S
C1550 C1559 1.429 . S
C1551 C1549 1.419 . S
C1551 C1552 1.363 . S
C1551 H1554 0.929 . S
C1552 C1551 1.363 . S
C1552 C1558 1.428 . S
H1553 C1549 0.908 1_554 S
H1554 C1551 0.929 . S
S1555 N1556 1.613 . S
S1555 N1557 1.610 . S
N1556 S1555 1.613 . S
N1556 C1559 1.350 . S
N1557 S1555 1.610 . S
N1557 C1558 1.351 . S
C1558 C1552 1.428 . S
C1558 N1557 1.351 . S
C1558 C1559 1.434 . S
C1559 C1550 1.429 . S
C1559 N1556 1.350 . S
C1559 C1558 1.434 . S
C1560 C1561 1.369 . S
C1560 C1562 1.419 . S
C1560 H1564 0.930 1_556 S
C1561 C1560 1.369 . S
C1561 C1570 1.429 . S
C1562 C1560 1.419 . S
C1562 C1563 1.363 . S
C1562 H1565 0.929 . S
C1563 C1562 1.363 . S
C1563 C1569 1.428 . S
H1564 C1560 0.930 1_554 S
H1565 C1562 0.929 . S
S1566 N1567 1.613 . S
S1566 N1568 1.610 . S
N1567 S1566 1.613 . S
N1567 C1570 1.350 . S
N1568 S1566 1.610 . S
N1568 C1569 1.351 . S
C1569 C1563 1.428 . S
C1569 N1568 1.351 . S
C1569 C1570 1.434 . S
C1570 C1561 1.429 . S
C1570 N1567 1.350 . S
C1570 C1569 1.434 . S
C1571 C1572 1.369 . S
C1571 C1573 1.419 . S
C1571 H1575 0.930 . S
C1572 C1571 1.369 . S
C1572 C1581 1.429 . S
C1573 C1571 1.419 . S
C1573 C1574 1.363 . S
C1573 H1576 0.929 . S
C1574 C1573 1.363 . S
C1574 C1580 1.428 . S
H1575 C1571 0.930 . S
H1576 C1573 0.929 . S
S1577 N1578 1.613 . S
S1577 N1579 1.610 . S
N1578 S1577 1.613 . S
N1578 C1581 1.350 1_554 S
N1579 S1577 1.610 . S
N1579 C1580 1.351 1_554 S
C1580 C1574 1.428 . S
C1580 N1579 1.351 1_556 S
C1580 C1581 1.434 . S
C1581 C1572 1.429 . S
C1581 N1578 1.350 1_556 S
C1581 C1580 1.434 . S
C1582 C1583 1.369 . S
C1582 C1584 1.419 . S
C1582 H1586 0.930 1_556 S
C1583 C1582 1.369 . S
C1583 C1592 1.429 . S
C1584 C1582 1.419 . S
C1584 C1585 1.363 . S
C1584 H1587 0.929 . S
C1585 C1584 1.363 . S
C1585 C1591 1.428 . S
H1586 C1582 0.930 1_554 S
H1587 C1584 0.929 . S
S1588 N1589 1.613 . S
S1588 N1590 1.610 . S
N1589 S1588 1.613 . S
N1589 C1592 1.350 . S
N1590 S1588 1.610 . S
N1590 C1591 1.351 . S
C1591 C1585 1.428 . S
C1591 N1590 1.351 . S
C1591 C1592 1.434 . S
C1592 C1583 1.429 . S
C1592 N1589 1.350 . S
C1592 C1591 1.434 . S
C1593 C1594 1.369 . S
C1593 C1595 1.419 . S
C1593 H1597 0.930 . S
C1594 C1593 1.369 . S
C1594 C1603 1.429 . S
C1595 C1593 1.419 . S
C1595 C1596 1.363 . S
C1595 H1598 0.929 . S
C1596 C1595 1.363 . S
C1596 C1602 1.428 . S
H1597 C1593 0.930 . S
H1598 C1595 0.929 . S
S1599 N1600 1.613 . S
S1599 N1601 1.610 . S
N1600 S1599 1.613 . S
N1600 C1603 1.350 . S
N1601 S1599 1.610 . S
N1601 C1602 1.351 . S
C1602 C1596 1.428 . S
C1602 N1601 1.351 . S
C1602 C1603 1.434 . S
C1603 C1594 1.429 . S
C1603 N1600 1.350 . S
C1603 C1602 1.434 . S
C1604 C1605 1.369 . S
C1604 C1606 1.419 . S
C1604 H1608 0.930 . S
C1605 C1604 1.369 . S
C1605 C1614 1.429 . S
C1606 C1604 1.419 . S
C1606 C1607 1.363 . S
C1606 H1609 0.929 . S
C1607 C1606 1.363 . S
C1607 C1613 1.428 . S
H1608 C1604 0.930 . S
H1609 C1606 0.929 . S
S1610 N1611 1.613 . S
S1610 N1612 1.610 . S
N1611 S1610 1.613 . S
N1611 C1614 1.350 . S
N1612 S1610 1.610 . S
N1612 C1613 1.351 . S
C1613 C1607 1.428 . S
C1613 N1612 1.351 . S
C1613 C1614 1.434 . S
C1614 C1605 1.429 . S
C1614 N1611 1.350 . S
C1614 C1613 1.434 . S
C1615 C1616 1.369 . S
C1615 C1617 1.419 . S
C1615 H1619 0.930 . S
C1616 C1615 1.369 . S
C1616 C1625 1.429 . S
C1617 C1615 1.419 . S
C1617 C1618 1.363 . S
C1617 H1620 0.929 . S
C1618 C1617 1.363 . S
C1618 C1624 1.428 . S
H1619 C1615 0.930 . S
H1620 C1617 0.929 . S
S1621 N1622 1.613 . S
S1621 N1623 1.610 . S
N1622 S1621 1.613 . S
N1622 C1625 1.350 . S
N1623 S1621 1.610 . S
N1623 C1624 1.351 . S
C1624 C1618 1.428 . S
C1624 N1623 1.351 . S
C1624 C1625 1.434 . S
C1625 C1616 1.429 . S
C1625 N1622 1.350 . S
C1625 C1624 1.434 . S
C1626 C1627 1.369 . S
C1626 C1628 1.419 . S
C1626 H1630 0.930 . S
C1627 C1626 1.369 . S
C1627 C1636 1.429 . S
C1628 C1626 1.419 . S
C1628 C1629 1.363 . S
C1628 H1631 0.929 . S
C1629 C1628 1.363 . S
C1629 C1635 1.428 . S
H1630 C1626 0.930 . S
H1631 C1628 0.929 . S
S1632 N1633 1.613 . S
S1632 N1634 1.610 . S
N1633 S1632 1.613 . S
N1633 C1636 1.350 . S
N1634 S1632 1.610 . S
N1634 C1635 1.351 . S
C1635 C1629 1.428 . S
C1635 N1634 1.351 . S
C1635 C1636 1.434 . S
C1636 C1627 1.429 . S
C1636 N1633 1.350 . S
C1636 C1635 1.434 . S
C1637 C1638 1.369 . S
C1637 C1639 1.419 . S
C1637 H1641 0.930 . S
C1638 C1637 1.369 . S
C1638 C1647 1.429 . S
C1639 C1637 1.419 . S
C1639 C1640 1.363 . S
C1639 H1642 0.929 . S
C1640 C1639 1.363 . S
C1640 C1646 1.428 . S
H1641 C1637 0.930 . S
H1642 C1639 0.929 . S
S1643 N1644 1.613 . S
S1643 N1645 1.610 . S
N1644 S1643 1.613 . S
N1644 C1647 1.350 . S
N1645 S1643 1.610 . S
N1645 C1646 1.351 . S
C1646 C1640 1.428 . S
C1646 N1645 1.351 . S
C1646 C1647 1.434 . S
C1647 C1638 1.429 . S
C1647 N1644 1.350 . S
C1647 C1646 1.434 . S
C1648 C1649 1.369 . S
C1648 C1650 1.419 . S
C1648 H1652 0.930 . S
C1649 C1648 1.369 . S
C1649 C1658 1.429 . S
C1650 C1648 1.419 . S
C1650 C1651 1.363 . S
C1650 H1653 0.929 . S
C1651 C1650 1.363 . S
C1651 C1657 1.428 . S
H1652 C1648 0.930 . S
H1653 C1650 0.929 . S
S1654 N1655 1.613 . S
S1654 N1656 1.610 . S
N1655 S1654 1.613 . S
N1655 C1658 1.350 . S
N1656 S1654 1.610 . S
N1656 C1657 1.351 . S
C1657 C1651 1.428 . S
C1657 N1656 1.351 . S
C1657 C1658 1.434 . S
C1658 C1649 1.429 . S
C1658 N1655 1.350 . S
C1658 C1657 1.434 . S
C1659 C1660 1.369 . S
C1659 C1661 1.419 . S
C1659 H1663 0.930 . S
C1660 C1659 1.369 . S
C1660 C1669 1.429 . S
C1661 C1659 1.419 . S
C1661 C1662 1.363 . S
C1661 H1664 0.929 . S
C1662 C1661 1.363 . S
C1662 C1668 1.428 1_455 S
H1663 C1659 0.930 . S
H1664 C1661 0.929 . S
S1665 N1666 1.613 . S
S1665 N1667 1.610 . S
N1666 S1665 1.613 . S
N1666 C1669 1.350 1_655 S
N1667 S1665 1.610 . S
N1667 C1668 1.351 . S
C1668 C1662 1.428 1_655 S
C1668 N1667 1.351 . S
C1668 C1669 1.434 1_655 S
C1669 C1660 1.429 . S
C1669 N1666 1.350 1_455 S
C1669 C1668 1.434 1_455 S
C1670 C1671 1.369 . S
C1670 C1672 1.419 . S
C1670 H1674 0.930 . S
C1671 C1670 1.369 . S
C1671 C1680 1.429 . S
C1672 C1670 1.419 . S
C1672 C1673 1.363 . S
C1672 H1675 0.929 . S
C1673 C1672 1.363 . S
C1673 C1679 1.428 . S
H1674 C1670 0.930 . S
H1675 C1672 0.929 . S
S1676 N1677 1.613 . S
S1676 N1678 1.610 . S
N1677 S1676 1.613 . S
N1677 C1680 1.350 . S
N1678 S1676 1.610 . S
N1678 C1679 1.351 . S
C1679 C1673 1.428 . S
C1679 N1678 1.351 . S
C1679 C1680 1.434 . S
C1680 C1671 1.429 . S
C1680 N1677 1.350 . S
C1680 C1679 1.434 . S
C1681 C1682 1.369 1_545 S
C1681 C1683 1.419 . S
C1681 H1685 0.930 . S
C1682 C1681 1.369 1_565 S
C1682 C1691 1.429 . S
C1683 C1681 1.419 . S
C1683 C1684 1.363 1_545 S
C1683 H1686 0.929 . S
C1684 C1683 1.363 1_565 S
C1684 C1690 1.428 . S
H1685 C1681 0.930 . S
H1686 C1683 0.929 . S
S1687 N1688 1.613 . S
S1687 N1689 1.610 . S
N1688 S1687 1.613 . S
N1688 C1691 1.350 . S
N1689 S1687 1.610 . S
N1689 C1690 1.351 . S
C1690 C1684 1.428 . S
C1690 N1689 1.351 . S
C1690 C1691 1.434 . S
C1691 C1682 1.429 . S
C1691 N1688 1.350 . S
C1691 C1690 1.434 . S
C1692 C1693 1.369 . S
C1692 C1694 1.419 . S
C1692 H1696 0.930 . S
C1693 C1692 1.369 . S
C1693 C1702 1.429 1_565 S
C1694 C1692 1.419 . S
C1694 C1695 1.363 . S
C1694 H1697 0.929 . S
C1695 C1694 1.363 . S
C1695 C1701 1.428 1_565 S
H1696 C1692 0.930 . S
H1697 C1694 0.929 . S
S1698 N1699 1.613 . S
S1698 N1700 1.610 . S
N1699 S1698 1.613 . S
N1699 C1702 1.350 . S
N1700 S1698 1.610 . S
N1700 C1701 1.351 . S
C1701 C1695 1.428 1_545 S
C1701 N1700 1.351 . S
C1701 C1702 1.434 . S
C1702 C1693 1.429 1_545 S
C1702 N1699 1.350 . S
C1702 C1701 1.434 . S
C1703 C1704 1.369 1_655 S
C1703 C1705 1.419 . S
C1703 H1707 0.930 . S
C1704 C1703 1.369 1_455 S
C1704 C1713 1.429 . S
C1705 C1703 1.419 . S
C1705 C1706 1.363 1_655 S
C1705 H1708 0.929 . S
C1706 C1705 1.363 1_455 S
C1706 C1712 1.428 . S
H1707 C1703 0.930 . S
H1708 C1705 0.929 . S
S1709 N1710 1.613 . S
S1709 N1711 1.610 . S
N1710 S1709 1.613 . S
N1710 C1713 1.350 . S
N1711 S1709 1.610 . S
N1711 C1712 1.351 . S
C1712 C1706 1.428 . S
C1712 N1711 1.351 . S
C1712 C1713 1.434 . S
C1713 C1704 1.429 . S
C1713 N1710 1.350 . S
C1713 C1712 1.434 . S
C1714 C1715 1.369 . S
C1714 C1716 1.419 . S
C1714 H1718 0.930 . S
C1715 C1714 1.369 . S
C1715 C1724 1.429 . S
C1716 C1714 1.419 . S
C1716 C1717 1.363 . S
C1716 H1719 0.929 . S
C1717 C1716 1.363 . S
C1717 C1723 1.428 . S
H1718 C1714 0.930 . S
H1719 C1716 0.929 . S
S1720 N1721 1.613 . S
S1720 N1722 1.610 . S
N1721 S1720 1.613 . S
N1721 C1724 1.350 . S
N1722 S1720 1.610 . S
N1722 C1723 1.351 . S
C1723 C1717 1.428 . S
C1723 N1722 1.351 . S
C1723 C1724 1.434 . S
C1724 C1715 1.429 . S
C1724 N1721 1.350 . S
C1724 C1723 1.434 . S
C1725 C1726 1.369 . S
C1725 C1727 1.419 . S
C1725 H1729 0.930 . S
C1726 C1725 1.369 . S
C1726 C1735 1.429 . S
C1727 C1725 1.419 . S
C1727 C1728 1.363 . S
C1727 H1730 0.929 . S
C1728 C1727 1.363 . S
C1728 C1734 1.428 . S
H1729 C1725 0.930 . S
H1730 C1727 0.929 . S
S1731 N1732 1.613 . S
S1731 N1733 1.610 . S
N1732 S1731 1.613 . S
N1732 C1735 1.350 . S
N1733 S1731 1.610 . S
N1733 C1734 1.351 . S
C1734 C1728 1.428 . S
C1734 N1733 1.351 . S
C1734 C1735 1.434 . S
C1735 C1726 1.429 . S
C1735 N1732 1.350 . S
C1735 C1734 1.434 . S
C1736 C1737 1.369 . S
C1736 C1738 1.419 . S
C1736 H1740 0.930 . S
C1737 C1736 1.369 . S
C1737 C1746 1.429 . S
C1738 C1736 1.419 . S
C1738 C1739 1.363 . S
C1738 H1741 0.929 . S
C1739 C1738 1.363 . S
C1739 C1745 1.428 . S
H1740 C1736 0.930 . S
H1741 C1738 0.929 . S
S1742 N1743 1.613 . S
S1742 N1744 1.610 . S
N1743 S1742 1.613 . S
N1743 C1746 1.350 . S
N1744 S1742 1.610 . S
N1744 C1745 1.351 . S
C1745 C1739 1.428 . S
C1745 N1744 1.351 . S
C1745 C1746 1.434 . S
C1746 C1737 1.429 . S
C1746 N1743 1.350 . S
C1746 C1745 1.434 . S
C1747 C1748 1.369 . S
C1747 C1749 1.419 . S
C1747 H1751 0.930 . S
C1748 C1747 1.369 . S
C1748 C1757 1.429 . S
C1749 C1747 1.419 . S
C1749 C1750 1.363 . S
C1749 H1752 0.929 . S
C1750 C1749 1.363 . S
C1750 C1756 1.428 . S
H1751 C1747 0.930 . S
H1752 C1749 0.929 . S
S1753 N1754 1.613 . S
S1753 N1755 1.610 . S
N1754 S1753 1.613 . S
N1754 C1757 1.350 . S
N1755 S1753 1.610 . S
N1755 C1756 1.351 . S
C1756 C1750 1.428 . S
C1756 N1755 1.351 . S
C1756 C1757 1.434 . S
C1757 C1748 1.429 . S
C1757 N1754 1.350 . S
C1757 C1756 1.434 . S
C1758 C1759 1.369 . S
C1758 C1760 1.419 . S
C1758 H1762 0.930 . S
C1759 C1758 1.369 . S
C1759 C1768 1.429 . S
C1760 C1758 1.419 . S
C1760 C1761 1.363 . S
C1760 H1763 0.940 . S
C1761 C1760 1.363 . S
C1761 C1767 1.428 . S
H1762 C1758 0.930 . S
H1763 C1760 0.940 . S
S1764 N1765 1.613 . S
S1764 N1766 1.610 . S
N1765 S1764 1.613 . S
N1765 C1768 1.350 . S
N1766 S1764 1.610 . S
N1766 C1767 1.351 . S
C1767 C1761 1.428 . S
C1767 N1766 1.351 . S
C1767 C1768 1.434 . S
C1768 C1759 1.429 . S
C1768 N1765 1.350 . S
C1768 C1767 1.434 . S
C1769 C1770 1.369 . S
C1769 C1771 1.419 . S
C1769 H1773 0.930 . S
C1770 C1769 1.369 . S
C1770 C1779 1.429 1_655 S
C1771 C1769 1.419 . S
C1771 C1772 1.363 . S
C1771 H1774 0.929 . S
C1772 C1771 1.363 . S
C1772 C1778 1.428 1_655 S
H1773 C1769 0.930 . S
H1774 C1771 0.929 . S
S1775 N1776 1.613 . S
S1775 N1777 1.610 . S
N1776 S1775 1.613 . S
N1776 C1779 1.350 . S
N1777 S1775 1.610 . S
N1777 C1778 1.351 . S
C1778 C1772 1.428 1_455 S
C1778 N1777 1.351 . S
C1778 C1779 1.434 . S
C1779 C1770 1.429 1_455 S
C1779 N1776 1.350 . S
C1779 C1778 1.434 . S
C1780 C1781 1.369 . S
C1780 C1782 1.419 . S
C1780 H1784 0.930 . S
C1781 C1780 1.369 . S
C1781 C1790 1.429 . S
C1782 C1780 1.419 . S
C1782 C1783 1.363 . S
C1782 H1785 0.929 . S
C1783 C1782 1.363 . S
C1783 C1789 1.428 . S
H1784 C1780 0.930 . S
H1785 C1782 0.929 . S
S1786 N1787 1.613 . S
S1786 N1788 1.610 . S
N1787 S1786 1.613 . S
N1787 C1790 1.350 . S
N1788 S1786 1.610 . S
N1788 C1789 1.351 . S
C1789 C1783 1.428 . S
C1789 N1788 1.351 . S
C1789 C1790 1.434 . S
C1790 C1781 1.429 . S
C1790 N1787 1.350 . S
C1790 C1789 1.434 . S
C1791 C1792 1.369 . S
C1791 C1793 1.419 . S
C1791 H1795 0.930 . S
C1792 C1791 1.369 . S
C1792 C1801 1.429 . S
C1793 C1791 1.419 . S
C1793 C1794 1.363 . S
C1793 H1796 0.929 . S
C1794 C1793 1.363 . S
C1794 C1800 1.428 . S
H1795 C1791 0.930 . S
H1796 C1793 0.929 . S
S1797 N1798 1.613 . S
S1797 N1799 1.610 . S
N1798 S1797 1.613 . S
N1798 C1801 1.350 . S
N1799 S1797 1.610 . S
N1799 C1800 1.351 . S
C1800 C1794 1.428 . S
C1800 N1799 1.351 . S
C1800 C1801 1.434 . S
C1801 C1792 1.429 . S
C1801 N1798 1.350 . S
C1801 C1800 1.434 . S
C1802 C1803 1.369 . S
C1802 C1804 1.419 . S
C1802 H1806 0.930 . S
C1803 C1802 1.369 . S
C1803 C1812 1.429 . S
C1804 C1802 1.419 . S
C1804 C1805 1.363 . S
C1804 H1807 0.929 . S
C1805 C1804 1.363 . S
C1805 C1811 1.428 . S
H1806 C1802 0.930 . S
H1807 C1804 0.929 . S
S1808 N1809 1.613 . S
S1808 N1810 1.610 . S
N1809 S1808 1.613 . S
N1809 C1812 1.350 . S
N1810 S1808 1.610 . S
N1810 C1811 1.351 . S
C1811 C1805 1.428 . S
C1811 N1810 1.351 . S
C1811 C1812 1.434 . S
C1812 C1803 1.429 . S
C1812 N1809 1.350 . S
C1812 C1811 1.434 . S
C1813 C1814 1.369 . S
C1813 C1815 1.419 . S
C1813 H1817 0.930 . S
C1814 C1813 1.369 . S
C1814 C1823 1.429 . S
C1815 C1813 1.419 . S
C1815 C1816 1.363 . S
C1815 H1818 0.929 . S
C1816 C1815 1.363 . S
C1816 C1822 1.428 . S
H1817 C1813 0.930 . S
H1818 C1815 0.929 . S
S1819 N1820 1.613 . S
S1819 N1821 1.610 . S
N1820 S1819 1.613 . S
N1820 C1823 1.350 . S
N1821 S1819 1.610 . S
N1821 C1822 1.351 . S
C1822 C1816 1.428 . S
C1822 N1821 1.351 . S
C1822 C1823 1.434 . S
C1823 C1814 1.429 . S
C1823 N1820 1.350 . S
C1823 C1822 1.434 . S
C1824 C1825 1.369 . S
C1824 C1826 1.419 . S
C1824 H1828 0.930 . S
C1825 C1824 1.369 . S
C1825 C1834 1.429 . S
C1826 C1824 1.419 . S
C1826 C1827 1.363 . S
C1826 H1829 0.929 . S
C1827 C1826 1.363 . S
C1827 C1833 1.428 . S
H1828 C1824 0.930 . S
H1829 C1826 0.929 . S
S1830 N1831 1.613 . S
S1830 N1832 1.610 . S
N1831 S1830 1.613 . S
N1831 C1834 1.350 . S
N1832 S1830 1.610 . S
N1832 C1833 1.351 . S
C1833 C1827 1.428 . S
C1833 N1832 1.351 . S
C1833 C1834 1.434 . S
C1834 C1825 1.429 . S
C1834 N1831 1.350 . S
C1834 C1833 1.434 . S
C1835 C1836 1.369 . S
C1835 C1837 1.419 . S
C1835 H1839 0.930 . S
C1836 C1835 1.369 . S
C1836 C1845 1.429 . S
C1837 C1835 1.419 . S
C1837 C1838 1.363 . S
C1837 H1840 0.929 . S
C1838 C1837 1.363 . S
C1838 C1844 1.428 . S
H1839 C1835 0.930 . S
H1840 C1837 0.929 . S
S1841 N1842 1.613 . S
S1841 N1843 1.610 . S
N1842 S1841 1.613 . S
N1842 C1845 1.350 . S
N1843 S1841 1.610 . S
N1843 C1844 1.351 . S
C1844 C1838 1.428 . S
C1844 N1843 1.351 . S
C1844 C1845 1.434 . S
C1845 C1836 1.429 . S
C1845 N1842 1.350 . S
C1845 C1844 1.434 . S
C1846 C1847 1.369 . S
C1846 C1848 1.419 . S
C1846 H1850 0.930 . S
C1847 C1846 1.369 . S
C1847 C1856 1.429 . S
C1848 C1846 1.419 . S
C1848 C1849 1.363 . S
C1848 H1851 0.929 . S
C1849 C1848 1.363 . S
C1849 C1855 1.428 . S
H1850 C1846 0.930 . S
H1851 C1848 0.929 . S
S1852 N1853 1.613 . S
S1852 N1854 1.610 . S
N1853 S1852 1.613 . S
N1853 C1856 1.350 . S
N1854 S1852 1.610 . S
N1854 C1855 1.351 . S
C1855 C1849 1.428 . S
C1855 N1854 1.351 . S
C1855 C1856 1.434 . S
C1856 C1847 1.429 . S
C1856 N1853 1.350 . S
C1856 C1855 1.434 . S
C1857 C1858 1.369 . S
C1857 C1859 1.419 . S
C1857 H1861 0.930 . S
C1858 C1857 1.369 . S
C1858 C1867 1.429 . S
C1859 C1857 1.419 . S
C1859 C1860 1.363 . S
C1859 H1862 0.929 . S
C1860 C1859 1.363 . S
C1860 C1866 1.428 . S
H1861 C1857 0.930 . S
H1862 C1859 0.929 . S
S1863 N1864 1.613 . S
S1863 N1865 1.610 . S
N1864 S1863 1.613 . S
N1864 C1867 1.350 . S
N1865 S1863 1.610 . S
N1865 C1866 1.351 . S
C1866 C1860 1.428 . S
C1866 N1865 1.351 . S
C1866 C1867 1.434 . S
C1867 C1858 1.429 . S
C1867 N1864 1.350 . S
C1867 C1866 1.434 . S
C1868 C1869 1.369 . S
C1868 C1870 1.419 . S
C1868 H1872 0.930 . S
C1869 C1868 1.369 . S
C1869 C1878 1.429 . S
C1870 C1868 1.419 . S
C1870 C1871 1.363 . S
C1870 H1873 0.929 . S
C1871 C1870 1.363 . S
C1871 C1877 1.428 . S
H1872 C1868 0.930 . S
H1873 C1870 0.929 . S
S1874 N1875 1.613 . S
S1874 N1876 1.610 . S
N1875 S1874 1.613 . S
N1875 C1878 1.350 . S
N1876 S1874 1.610 . S
N1876 C1877 1.351 . S
C1877 C1871 1.428 . S
C1877 N1876 1.351 . S
C1877 C1878 1.434 . S
C1878 C1869 1.429 . S
C1878 N1875 1.350 . S
C1878 C1877 1.434 . S
C1879 C1880 1.369 1_565 S
C1879 C1881 1.419 . S
C1879 H1883 0.930 . S
C1880 C1879 1.369 1_545 S
C1880 C1889 1.429 . S
C1881 C1879 1.419 . S
C1881 C1882 1.363 1_565 S
C1881 H1884 0.929 . S
C1882 C1881 1.363 1_545 S
C1882 C1888 1.428 . S
H1883 C1879 0.930 . S
H1884 C1881 0.929 . S
S1885 N1886 1.613 . S
S1885 N1887 1.610 . S
N1886 S1885 1.613 . S
N1886 C1889 1.350 . S
N1887 S1885 1.610 . S
N1887 C1888 1.351 . S
C1888 C1882 1.428 . S
C1888 N1887 1.351 . S
C1888 C1889 1.434 . S
C1889 C1880 1.429 . S
C1889 N1886 1.350 . S
C1889 C1888 1.434 . S
C1099 C8 1.454 . S
C1101 C711 1.508 . S
C1110 C18 1.505 . S
C1112 C759 1.546 . S
C1123 C807 1.534 . S
C1121 C31 1.452 . S
C1132 C34 1.458 . S
C1134 C831 1.534 . S
C1143 C5 1.459 . S
C1145 C903 1.526 . S
C1154 C21 1.528 . S
C1156 C951 1.566 . S
C1165 C47 1.449 . S
C1167 C879 1.523 . S
C1178 C927 1.552 . S
C1176 C57 1.512 . S
C1189 C855 1.544 . S
C1187 C70 1.465 . S
C1198 C73 1.445 . S
C1200 C783 1.523 . S
C1211 C687 1.545 . S
C1209 C44 1.463 . S
C1220 C60 1.528 . S
C1222 C735 1.569 . S
C1231 C86 1.588 . S
C1233 C999 1.623 . S
C1242 C96 1.570 . S
C1244 C1047 1.585 . S
C1255 C1071 1.620 . S
C1253 C109 1.628 . S
C1264 C112 1.614 . S
C1266 C255 1.625 . S
C1275 C83 1.614 . S
C1277 C327 1.634 . S
C1286 C99 1.592 . S
C1288 C375 1.611 . S
C1297 C125 1.539 . S
C1299 C303 1.574 . S
C1308 C135 1.563 . S
C1310 C351 1.591 . S
C1321 C279 1.592 . S
C1319 C148 1.612 . S
C1332 C1095 1.642 . S
C1330 C151 1.664 . S
C1343 C975 1.616 . S
C1341 C122 1.611 . S
C1354 C1023 1.635 . S
C1352 C138 1.616 . S
C1363 C164 1.539 . S
C1365 C423 1.573 . S
C1374 C174 1.556 . S
C1376 C471 1.579 . S
C1385 C187 1.612 . S
C1387 C495 1.616 . S
C1396 C190 1.664 . S
C1398 C543 1.675 . S
C1409 C615 1.628 . S
C1407 C161 1.618 . S
C1420 C663 1.631 . S
C1418 C177 1.612 . S
C1431 C591 1.636 . S
C1429 C203 1.605 . S
C1442 C639 1.600 . S
C1440 C213 1.585 . S
C1451 C226 1.617 . S
C1453 C567 1.584 . S
C1464 C519 1.591 . S
C1462 C229 1.606 . S
C1473 C200 1.614 . S
C1475 C399 1.631 . S
C1486 C447 1.620 . S
C1484 C216 1.600 . S
C1497 C264 1.556 . S
C1495 C0 1.465 . S
C1506 C23 1.498 . S
C1508 C318 1.451 . S
C1519 C366 1.521 . S
C1517 C36 1.562 . S
C1530 C414 1.548 . S
C1528 C26 1.476 . S
C1541 C462 1.493 . S
C1539 C10 1.548 . S
C1552 C504 1.522 . S
C1550 C13 1.445 . S
C1561 C39 1.466 . S
C1563 C510 1.547 . S
C1572 C62 1.490 . S
C1574 C408 1.426 . S
C1583 C75 1.543 . S
C1585 C456 1.476 . S
C1594 C65 1.494 . S
C1596 C312 1.545 . S
C1607 C360 1.484 . S
C1605 C49 1.553 . S
C1616 C52 1.448 . S
C1618 C270 1.504 . S
C1629 C552 1.529 . S
C1627 C78 1.440 . S
C1638 C101 1.562 . S
C1640 C606 1.517 . S
C1649 C114 1.572 . S
C1651 C654 1.528 . S
C1662 C702 1.360 . S
C1660 C104 1.329 . S
C1671 C88 1.485 . S
C1673 C750 1.442 . S
C1682 C91 1.275 . S
C1684 C798 1.289 . S
C1693 C117 1.301 . S
C1695 C792 1.314 . S
C1704 C140 1.321 . S
C1706 C696 1.317 . S
C1717 C744 1.444 . S
C1715 C153 1.488 . S
C1726 C143 1.459 . S
C1728 C600 1.493 . S
C1737 C127 1.574 . S
C1739 C648 1.506 . S
C1750 C558 1.557 . S
C1748 C130 1.511 . S
C1761 C840 1.336 . S
C1759 C156 1.307 . S
C1770 C179 1.318 . S
C1772 C894 1.313 . S
C1781 C192 1.490 . S
C1783 C942 1.460 . S
C1794 C990 1.494 . S
C1792 C182 1.449 . S
C1805 C1038 1.523 . S
C1803 C166 1.570 . S
C1814 C169 1.512 . S
C1816 C1080 1.574 . S
C1825 C195 1.460 . S
C1827 C1086 1.514 . S
C1836 C218 1.560 . S
C1838 C984 1.494 . S
C1849 C1032 1.495 . S
C1847 C231 1.550 . S
C1860 C888 1.339 . S
C1858 C221 1.317 . S
C1871 C936 1.441 . S
C1869 C205 1.491 . S
C1880 C208 1.290 . S
C1882 C846 1.311 . S
