# Generated by pormake.
# Topology zzz, (3,6)-cn, num edge types: 1
# Building blocks:
#     Node 0, Type 0, BuildingBlock: BETDIP_clean_linker_0, # of connection points: 3
#     Node 1, Type 0, BuildingBlock: BETDIP_clean_linker_0, # of connection points: 3
#     Node 2, Type 0, BuildingBlock: BETDIP_clean_linker_0, # of connection points: 3
#     Node 3, Type 0, BuildingBlock: BETDIP_clean_linker_0, # of connection points: 3
#     Node 4, Type 0, BuildingBlock: BETDIP_clean_linker_0, # of connection points: 3
#     Node 5, Type 0, BuildingBlock: BETDIP_clean_linker_0, # of connection points: 3
#     Node 6, Type 0, BuildingBlock: BETDIP_clean_linker_0, # of connection points: 3
#     Node 7, Type 0, BuildingBlock: BETDIP_clean_linker_0, # of connection points: 3
#     Node 8, Type 1, BuildingBlock: GEDQOX_clean_sbu_0, # of connection points: 6
#     Node 9, Type 1, BuildingBlock: GEDQOX_clean_sbu_0, # of connection points: 6
#     Node 10, Type 1, BuildingBlock: GEDQOX_clean_sbu_0, # of connection points: 6
#     Node 11, Type 1, BuildingBlock: GEDQOX_clean_sbu_0, # of connection points: 6
#     Edge 12, Type (0, 1), BuildingBlock: XUDNAN_clean_linker_2, # of connection points: 2
#     Edge 13, Type (0, 1), BuildingBlock: XUDNAN_clean_linker_2, # of connection points: 2
#     Edge 14, Type (0, 1), BuildingBlock: XUDNAN_clean_linker_2, # of connection points: 2
#     Edge 15, Type (0, 1), BuildingBlock: XUDNAN_clean_linker_2, # of connection points: 2
#     Edge 16, Type (0, 1), BuildingBlock: XUDNAN_clean_linker_2, # of connection points: 2
#     Edge 17, Type (0, 1), BuildingBlock: XUDNAN_clean_linker_2, # of connection points: 2
#     Edge 18, Type (0, 1), BuildingBlock: XUDNAN_clean_linker_2, # of connection points: 2
#     Edge 19, Type (0, 1), BuildingBlock: XUDNAN_clean_linker_2, # of connection points: 2
#     Edge 20, Type (0, 1), BuildingBlock: XUDNAN_clean_linker_2, # of connection points: 2
#     Edge 21, Type (0, 1), BuildingBlock: XUDNAN_clean_linker_2, # of connection points: 2
#     Edge 22, Type (0, 1), BuildingBlock: XUDNAN_clean_linker_2, # of connection points: 2
#     Edge 23, Type (0, 1), BuildingBlock: XUDNAN_clean_linker_2, # of connection points: 2
#     Edge 24, Type (0, 1), BuildingBlock: XUDNAN_clean_linker_2, # of connection points: 2
#     Edge 25, Type (0, 1), BuildingBlock: XUDNAN_clean_linker_2, # of connection points: 2
#     Edge 26, Type (0, 1), BuildingBlock: XUDNAN_clean_linker_2, # of connection points: 2
#     Edge 27, Type (0, 1), BuildingBlock: XUDNAN_clean_linker_2, # of connection points: 2
#     Edge 28, Type (0, 1), BuildingBlock: XUDNAN_clean_linker_2, # of connection points: 2
#     Edge 29, Type (0, 1), BuildingBlock: XUDNAN_clean_linker_2, # of connection points: 2
#     Edge 30, Type (0, 1), BuildingBlock: XUDNAN_clean_linker_2, # of connection points: 2
#     Edge 31, Type (0, 1), BuildingBlock: XUDNAN_clean_linker_2, # of connection points: 2
#     Edge 32, Type (0, 1), BuildingBlock: XUDNAN_clean_linker_2, # of connection points: 2
#     Edge 33, Type (0, 1), BuildingBlock: XUDNAN_clean_linker_2, # of connection points: 2
#     Edge 34, Type (0, 1), BuildingBlock: XUDNAN_clean_linker_2, # of connection points: 2
#     Edge 35, Type (0, 1), BuildingBlock: XUDNAN_clean_linker_2, # of connection points: 2
# Relax obj value: 0.127
# Max RMSD: 0.182
# Mean RMSD: 0.085
data_MOF--net-zzz--node1-GEDQOX_clean_sbu_0--node2-BETDIP_clean_linker_0--edge1-XUDNAN_clean_linker_2
_symmetry_space_group_name_H-M    P1
_symmetry_Int_Tables_number       1
_symmetry_cell_setting            triclinic
loop_
_symmetry_equiv_pos_as_xyz
'x, y, z'
_cell_length_a     54.679418
_cell_length_b     53.962059
_cell_length_c     17.219229
_cell_angle_alpha  79.378032
_cell_angle_beta   89.239266
_cell_angle_gamma 99.849711
loop_
_atom_site_label
_atom_site_type_symbol
_atom_site_fract_x
_atom_site_fract_y
_atom_site_fract_z
_atom_type_partial_charge
H0 H 0.77659 0.55811 0.26399 0.0
H1 H 0.78559 0.52825 0.05139 0.0
H2 H 0.84541 0.53566 0.20848 0.0
H3 H 0.76259 0.56165 0.00733 0.0
C4 C 0.74781 0.55555 0.05323 0.0
C5 C 0.78781 0.55023 0.22569 0.0
C6 C 0.81192 0.54658 0.24635 0.0
C7 C 0.77834 0.54417 0.15445 0.0
C8 C 0.79295 0.53366 0.10512 0.0
C9 C 0.81697 0.52983 0.12558 0.0
C10 C 0.82628 0.53688 0.19515 0.0
N11 N 0.75415 0.54869 0.13331 0.0
H12 H 0.01396 0.75176 0.37667 0.0
H13 H 0.03912 0.77641 0.13033 0.0
H14 H 0.03269 0.83195 0.27358 0.0
H15 H 0.01488 0.73723 0.12022 0.0
C16 C 0.02087 0.7251 0.17136 0.0
C17 C 0.02011 0.76689 0.32616 0.0
C18 C 0.02309 0.79285 0.33495 0.0
C19 C 0.02546 0.76053 0.2518 0.0
C20 C 0.03405 0.78054 0.18695 0.0
C21 C 0.03681 0.80613 0.19598 0.0
C22 C 0.03097 0.81194 0.26874 0.0
N23 N 0.0235 0.73418 0.2446 0.0
H24 H 0.77413 0.97504 0.29665 0.0
H25 H 0.76167 0.01534 0.06355 0.0
H26 H 0.70524 1.00217 0.24851 0.0
H27 H 0.81433 0.98046 0.24914 0.0
C28 C 0.81534 0.98623 0.18523 0.0
C29 C 0.76255 0.98492 0.25578 0.0
C30 C 0.73848 0.98696 0.28158 0.0
C31 C 0.77092 0.99515 0.17625 0.0
C32 C 0.75531 1.00749 0.12445 0.0
C33 C 0.73189 0.01026 0.15078 0.0
C34 C 0.72354 0.99994 0.22874 0.0
N35 N 0.79457 0.99357 0.14423 0.0
H36 H 0.54022 0.78805 0.56127 0.0
H37 H 0.51736 0.79548 0.32029 0.0
H38 H 0.51765 0.72103 0.45996 0.0
H39 H 0.55726 0.83083 0.32017 0.0
C40 C 0.54505 0.83828 0.35694 0.0
C41 C 0.53362 0.77939 0.51177 0.0
C42 C 0.52963 0.75247 0.5189 0.0
C43 C 0.53002 0.79509 0.43881 0.0
C44 C 0.52105 0.78361 0.37531 0.0
C45 C 0.51594 0.75694 0.38336 0.0
C46 C 0.5208 0.7417 0.45446 0.0
N47 N 0.53468 0.82232 0.42946 0.0
H48 H 0.27818 0.49393 0.55318 0.0
H49 H 0.27146 0.5295 0.75544 0.0
H50 H 0.2091 0.5156 0.61103 0.0
H51 H 0.29583 0.4975 0.80283 0.0
C52 C 0.31004 0.50299 0.75508 0.0
C53 C 0.26723 0.50244 0.59046 0.0
C54 C 0.24221 0.5036 0.57464 0.0
C55 C 0.27774 0.51104 0.65712 0.0
C56 C 0.26338 0.52218 0.70532 0.0
C57 C 0.23871 0.52432 0.68808 0.0
C58 C 0.22836 0.51469 0.62338 0.0
N59 N 0.30256 0.50807 0.67563 0.0
H60 H 0.04932 0.31296 0.4364 0.0
H61 H 0.02036 0.28324 0.6774 0.0
H62 H 0.02904 0.23165 0.52266 0.0
H63 H 1.00107 0.31917 0.64119 0.0
C64 C 0.01789 0.33327 0.62394 0.0
C65 C 0.04229 0.29699 0.48366 0.0
C66 C 0.03967 0.27154 0.46984 0.0
C67 C 0.03466 0.30164 0.55828 0.0
C68 C 0.02565 0.28041 0.61928 0.0
C69 C 0.0235 0.25538 0.6055 0.0
C70 C 0.03058 0.25125 0.53175 0.0
N71 N 0.03577 0.32732 0.57189 0.0
H72 H 0.28238 0.08332 0.51564 0.0
H73 H 0.29011 0.0423 0.75139 0.0
H74 H 0.35017 0.05615 0.57707 0.0
H75 H 0.26601 0.07068 0.78006 0.0
C76 C 0.25196 0.06871 0.73648 0.0
C77 C 0.29324 0.07321 0.55872 0.0
C78 C 0.31712 0.06985 0.53703 0.0
C79 C 0.28349 0.06377 0.63657 0.0
C80 C 0.29775 0.05046 0.69211 0.0
C81 C 0.32185 0.04738 0.67122 0.0
C82 C 0.33124 0.05727 0.59354 0.0
N83 N 0.25934 0.06766 0.65775 0.0
H84 H 0.53563 0.27661 0.22932 0.0
H85 H 0.54249 0.261 0.48211 0.0
H86 H 0.53678 0.33672 0.36324 0.0
H87 H 0.50336 0.21914 0.38574 0.0
C88 C 0.52295 0.21903 0.39521 0.0
C89 C 0.5364 0.28311 0.28525 0.0
C90 C 0.53467 0.3088 0.28783 0.0
C91 C 0.53855 0.26565 0.35594 0.0
C92 C 0.54005 0.27414 0.42826 0.0
C93 C 0.53928 0.29972 0.43081 0.0
C94 C 0.53644 0.31671 0.36096 0.0
N95 N 0.5408 0.2399 0.35471 0.0
Nd96 Nd 0.0207 0.01997 0.83903 0.0
Nd97 Nd 0.03945 0.04172 0.98506 0.0
C98 C 0.99991 0.98983 0.74274 0.0
C99 C 1.00208 0.96519 0.71708 0.0
C100 C 0.99145 0.94129 0.76328 0.0
C101 C 0.99198 0.91839 0.73583 0.0
C102 C 1.0032 0.91865 0.66145 0.0
C103 C 0.01417 0.94253 0.61593 0.0
C104 C 0.0135 0.96543 0.64313 0.0
C105 C 0.07086 0.03966 0.83277 0.0
C106 C 0.04039 0.98248 0.98954 0.0
C107 C 0.06068 0.07195 0.08038 0.0
C108 C 0.05931 0.09725 0.10277 0.0
C109 C 0.07332 0.12018 0.05991 0.0
C110 C 0.07343 0.14363 0.0845 0.0
C111 C 0.05955 0.14492 0.15273 0.0
C112 C 0.0452 0.12205 0.19474 0.0
C113 C 0.04519 0.09858 0.17037 0.0
C114 C 0.98987 0.0204 0.99583 0.0
C115 C 0.01888 0.07893 0.8347 0.0
O116 O 0.99135 0.98869 0.81493 0.0
O117 O 0.01765 0.00956 0.71965 0.0
O118 O 0.05741 0.04139 0.77113 0.0
O119 O 0.05821 0.02659 0.89238 0.0
O120 O 0.02445 0.98472 0.93286 0.0
O121 O 0.05256 1.00284 0.01395 0.0
O122 O 0.06972 0.07207 0.00949 0.0
O123 O 0.04213 0.053 0.1032 0.0
O124 O 1.00433 0.01879 0.05502 0.0
O125 O 1.00133 0.03421 0.93442 0.0
O126 O 0.0346 0.07694 0.89212 0.0
O127 O 0.00733 0.05852 0.80936 0.0
H128 H 0.98238 0.94021 0.8204 0.0
H129 H 0.98356 0.90043 0.77304 0.0
H130 H 0.02268 0.94365 0.55795 0.0
H131 H 0.02159 0.98342 0.60541 0.0
H132 H 0.08455 0.12001 0.00778 0.0
H133 H 0.08448 0.1608 0.04999 0.0
H134 H 0.03453 0.12211 0.24811 0.0
H135 H 0.03441 0.08136 0.20553 0.0
Nd136 Nd 0.53145 0.01103 0.85736 0.0
Nd137 Nd 0.5246 0.05284 0.96657 0.0
C138 C 0.54397 0.97134 0.8069 0.0
C139 C 0.56715 0.96697 0.76952 0.0
C140 C 0.56871 0.9673 0.68784 0.0
C141 C 0.59102 0.96533 0.6506 0.0
C142 C 0.61235 0.96269 0.69418 0.0
C143 C 0.61052 0.96149 0.77649 0.0
C144 C 0.58824 0.96364 0.81369 0.0
C145 C 0.53373 0.05996 0.7678 0.0
C146 C 0.58086 0.04542 0.91819 0.0
C147 C 0.51843 0.09222 0.03004 0.0
C148 C 0.49753 0.09683 0.07772 0.0
C149 C 0.48494 0.11705 0.04918 0.0
C150 C 0.46318 0.11961 0.08851 0.0
C151 C 0.45361 0.10196 0.15722 0.0
C152 C 0.46687 0.0824 0.18743 0.0
C153 C 0.48847 0.07977 0.14801 0.0
C154 C 0.51645 1.00224 0.04255 0.0
C155 C 0.4759 0.02113 0.89765 0.0
O156 O 0.54459 0.97381 0.88112 0.0
O157 O 0.5318 0.98751 0.76437 0.0
O158 O 0.53493 0.04012 0.73624 0.0
O159 O 0.53119 0.05258 0.8411 0.0
O160 O 0.57157 0.02632 0.88283 0.0
O161 O 0.56701 0.05929 0.94944 0.0
O162 O 0.5139 0.09106 0.956 0.0
O163 O 0.53103 0.07473 0.0634 0.0
O164 O 0.50472 0.01945 0.06141 0.0
O165 O 0.53282 0.01253 0.98834 0.0
O166 O 0.4861 0.04261 0.9199 0.0
O167 O 0.48892 1.00411 0.87986 0.0
H168 H 0.55282 0.96975 0.65218 0.0
H169 H 0.59167 0.96673 0.58705 0.0
H170 H 0.62636 0.95902 0.81233 0.0
H171 H 0.58772 0.9631 0.8769 0.0
H172 H 0.49149 0.13039 0.99492 0.0
H173 H 0.4534 0.13484 0.06351 0.0
H174 H 0.46038 0.06884 0.24127 0.0
H175 H 0.49765 0.06393 0.1717 0.0
Nd176 Nd 0.51718 0.53127 0.97474 0.0
Nd177 Nd 0.54181 0.52888 0.82003 0.0
C178 C 0.48781 0.54272 0.0797 0.0
C179 C 0.48642 0.56822 0.09545 0.0
C180 C 0.46405 0.57385 0.12199 0.0
C181 C 0.46252 0.59893 0.12962 0.0
C182 C 0.48333 0.61866 0.11021 0.0
C183 C 0.50564 0.61279 0.0834 0.0
C184 C 0.50713 0.58787 0.07582 0.0
C185 C 0.56809 0.53976 0.97459 0.0
C186 C 0.53093 0.58426 0.83527 0.0
C187 C 0.57102 0.51851 0.7119 0.0
C188 C 0.57583 0.49392 0.69502 0.0
C189 C 0.58482 0.47617 0.75323 0.0
C190 C 0.58487 0.45119 0.74198 0.0
C191 C 0.5758 0.44358 0.67269 0.0
C192 C 0.56841 0.46179 0.61245 0.0
C193 C 0.5685 0.48677 0.62346 0.0
C194 C 0.49073 0.52049 0.82163 0.0
C195 C 0.52927 0.47637 0.9612 0.0
O196 O 0.4806 0.53916 0.00987 0.0
O197 O 0.50851 0.53438 0.09818 0.0
O198 O 0.55401 0.52719 0.03538 0.0
O199 O 0.55527 0.5485 0.91914 0.0
O200 O 0.51715 0.57177 0.89889 0.0
O201 O 0.54507 0.57248 0.79713 0.0
O202 O 0.57905 0.5246 0.77833 0.0
O203 O 0.54863 0.52322 0.69787 0.0
O204 O 0.50467 0.53361 0.7612 0.0
O205 O 0.50378 0.51152 0.87599 0.0
O206 O 0.54325 0.48905 0.89812 0.0
O207 O 0.5142 0.48773 0.9974 0.0
H208 H 0.44776 0.55898 0.13578 0.0
H209 H 0.44505 0.60292 0.15012 0.0
H210 H 0.52215 0.62736 0.06948 0.0
H211 H 0.52448 0.58399 0.05381 0.0
H212 H 0.59069 0.48112 0.80909 0.0
H213 H 0.59068 0.43749 0.78918 0.0
H214 H 0.5618 0.45648 0.55773 0.0
H215 H 0.56167 0.50014 0.57756 0.0
Nd216 Nd 0.02921 0.54678 0.83022 0.0
Nd217 Nd 0.03167 0.51024 0.98809 0.0
C218 C 0.01577 0.57997 0.71215 0.0
C219 C 0.99259 0.57977 0.66949 0.0
C220 C 0.9875 0.60209 0.62161 0.0
C221 C 0.96497 0.6018 0.58347 0.0
C222 C 0.94698 0.5792 0.59346 0.0
C223 C 0.95231 0.55696 0.64222 0.0
C224 C 0.97495 0.55719 0.67885 0.0
C225 C 0.03295 0.49714 0.8173 0.0
C226 C 0.97677 0.51634 0.93086 0.0
C227 C 0.044 0.47179 0.08864 0.0
C228 C 0.06595 0.47212 0.13739 0.0
C229 C 0.07183 0.44953 0.18164 0.0
C230 C 0.09416 0.45019 0.22131 0.0
C231 C 0.11102 0.47337 0.21569 0.0
C232 C 0.10471 0.49595 0.17265 0.0
C233 C 0.08234 0.49535 0.13447 0.0
C234 C 0.03617 0.55868 0.02435 0.0
C235 C 0.08311 0.54416 0.89317 0.0
O236 O 0.01396 0.58213 0.78627 0.0
O237 O 0.02873 0.56251 0.70188 0.0
O238 O 0.0446 0.51729 0.7695 0.0
O239 O 0.01966 0.50372 0.86797 0.0
O240 O 0.98806 0.53361 0.87094 0.0
O241 O 0.98922 0.50323 0.9841 0.0
O242 O 0.04921 0.47573 0.0124 0.0
O243 O 0.02753 0.48509 0.10683 0.0
O244 O 0.03586 0.5377 0.07499 0.0
O245 O 0.03365 0.55383 0.95505 0.0
O246 O 0.07219 0.52294 0.94039 0.0
O247 O 0.07026 0.55953 0.84927 0.0
H248 H 1.00094 0.61972 0.61359 0.0
H249 H 0.96184 0.6192 0.54542 0.0
H250 H 0.93891 0.5393 0.65305 0.0
H251 H 0.97859 0.53971 0.71529 0.0
H252 H 0.05946 0.4314 0.18428 0.0
H253 H 0.09859 0.43254 0.25436 0.0
H254 H 0.11716 0.51413 0.16838 0.0
H255 H 0.07807 0.51302 0.10102 0.0
H256 H 0.2101 0.06756 0.64622 0.0
H257 H 0.23453 0.06489 0.88589 0.0
H258 H 0.191 0.05944 0.93523 0.0
H259 H 0.15936 0.10297 0.66785 0.0
H260 H 0.13897 0.08564 0.60703 0.0
H261 H 0.17216 0.09038 0.58946 0.0
H262 H 0.16982 0.04136 0.60423 0.0
H263 H 0.13666 0.03649 0.62184 0.0
H264 H 0.15546 0.02044 0.69288 0.0
H265 H 0.14528 0.05098 0.96033 0.0
H266 H 0.09956 0.04186 0.95928 0.0
H267 H 0.10386 0.05222 0.70325 0.0
C268 C 0.20625 0.06603 0.70893 0.0
C269 C 0.22564 0.06659 0.76251 0.0
C270 C 0.2199 0.06452 0.84405 0.0
C271 C 0.19527 0.06144 0.87259 0.0
C272 C 0.17654 0.06075 0.81866 0.0
C273 C 0.18165 0.0632 0.73849 0.0
C274 C 0.15784 0.06138 0.69381 0.0
C275 C 0.15704 0.0866 0.63613 0.0
C276 C 0.15477 0.03856 0.65066 0.0
C277 C 0.13861 0.05698 0.76165 0.0
C278 C 0.1499 0.0567 0.83307 0.0
C279 C 0.1362 0.05156 0.90472 0.0
C280 C 0.11024 0.04643 0.90353 0.0
C281 C 0.0982 0.04674 0.83121 0.0
C282 C 0.1126 0.05233 0.75928 0.0
H283 H 0.50015 0.16901 0.42546 0.0
H284 H 0.56143 0.22119 0.496 0.0
H285 H 0.56976 0.18661 0.60325 0.0
H286 H 0.47842 0.1333 0.61541 0.0
H287 H 0.47214 0.10273 0.58483 0.0
H288 H 0.47065 0.13163 0.51485 0.0
H289 H 0.50263 0.12041 0.42053 0.0
H290 H 0.50395 0.0913 0.4897 0.0
H291 H 0.53207 0.11388 0.45702 0.0
H292 H 0.56845 0.1469 0.71153 0.0
H293 H 0.56329 0.10334 0.79446 0.0
H294 H 0.50688 0.07576 0.64151 0.0
C295 C 0.51547 0.17302 0.46311 0.0
C296 C 0.53007 0.19775 0.45295 0.0
C297 C 0.55008 0.20234 0.50274 0.0
C298 C 0.55482 0.18285 0.56411 0.0
C299 C 0.5398 0.15872 0.57348 0.0
C300 C 0.521 0.15355 0.52278 0.0
C301 C 0.50848 0.12567 0.54253 0.0
C302 C 0.48079 0.1232 0.56579 0.0
C303 C 0.51201 0.11201 0.47333 0.0
C304 C 0.5229 0.11599 0.61297 0.0
C305 C 0.54051 0.13547 0.63115 0.0
C306 C 0.55502 0.13144 0.69691 0.0
C307 C 0.55188 0.10675 0.74397 0.0
C308 C 0.53487 0.08635 0.72371 0.0
C309 C 0.52019 0.09108 0.65759 0.0
H310 H 0.35347 0.52261 0.66167 0.0
H311 H 0.32559 0.48237 0.89618 0.0
H312 H 0.36856 0.48163 0.93729 0.0
H313 H 0.40649 0.49049 0.64895 0.0
H314 H 0.42686 0.51903 0.59916 0.0
H315 H 0.39386 0.51544 0.58647 0.0
H316 H 0.39331 0.55838 0.63275 0.0
H317 H 0.42628 0.56206 0.64576 0.0
H318 H 0.40546 0.56275 0.72707 0.0
H319 H 0.41418 0.48532 0.95405 0.0
H320 H 0.46003 0.49443 0.94661 0.0
H321 H 0.45926 0.53391 0.70333 0.0
C322 C 0.35647 0.51343 0.72132 0.0
C323 C 0.33621 0.5023 0.77573 0.0
C324 C 0.34087 0.49087 0.85362 0.0
C325 C 0.3652 0.49034 0.8775 0.0
C326 C 0.38479 0.50156 0.82296 0.0
C327 C 0.3808 0.513 0.74658 0.0
C328 C 0.40534 0.52446 0.70095 0.0
C329 C 0.40831 0.51158 0.62966 0.0
C330 C 0.40773 0.55365 0.67513 0.0
C331 C 0.42364 0.51766 0.76365 0.0
C332 C 0.41131 0.50431 0.83338 0.0
C333 C 0.42405 0.4958 0.89982 0.0
C334 C 0.4501 0.50109 0.89506 0.0
C335 C 0.46321 0.51496 0.8246 0.0
C336 C 0.44974 0.52332 0.75806 0.0
H337 H 0.04569 0.38343 0.5778 0.0
H338 H 0.99753 0.33331 0.76556 0.0
H339 H 0.99859 0.36875 0.83765 0.0
H340 H 0.08314 0.42263 0.70613 0.0
H341 H 0.08466 0.45227 0.63647 0.0
H342 H 0.08243 0.4225 0.60155 0.0
H343 H 0.04335 0.43178 0.52651 0.0
H344 H 0.04542 0.46152 0.56138 0.0
H345 H 0.01719 0.43812 0.57974 0.0
H346 H 1.00221 0.40937 0.8873 0.0
H347 H 0.00798 0.45368 0.91071 0.0
H348 H 0.05313 0.47977 0.6923 0.0
C349 C 0.03588 0.37989 0.63486 0.0
C350 C 0.02174 0.35536 0.66654 0.0
C351 C 0.0086 0.35177 0.74034 0.0
C352 C 0.00909 0.37182 0.78194 0.0
C353 C 0.0227 0.39578 0.74915 0.0
C354 C 0.03591 0.40008 0.67736 0.0
C355 C 0.04767 0.42836 0.65419 0.0
C356 C 0.07617 0.43162 0.64931 0.0
C357 C 0.03781 0.44067 0.5758 0.0
C358 C 0.03868 0.43907 0.72354 0.0
C359 C 0.02448 0.41975 0.77772 0.0
C360 C 0.01345 0.42466 0.84556 0.0
C361 C 0.0168 0.44995 0.85839 0.0
C362 C 0.03103 0.47029 0.80376 0.0
C363 C 0.04228 0.46464 0.73561 0.0
H364 H 0.86053 0.97975 0.2446 0.0
H365 H 0.82462 1.00006 0.02436 0.0
H366 H 0.865 1.00805 0.951 0.0
H367 H 0.91424 0.02695 0.19955 0.0
H368 H 0.9354 1.00712 0.24573 0.0
H369 H 0.90337 1.00086 0.28063 0.0
H370 H 0.89909 0.95413 0.25843 0.0
H371 H 0.93117 0.96026 0.22352 0.0
H372 H 0.90715 0.94825 0.16241 0.0
H373 H 0.90977 0.01709 0.90197 0.0
H374 H 0.95562 0.02602 0.88208 0.0
H375 H 0.96245 0.99924 0.133 0.0
C376 C 0.86117 0.98551 0.18083 0.0
C377 C 0.83941 0.98928 0.14046 0.0
C378 C 0.84099 0.99706 0.05695 0.0
C379 C 0.86388 1.0016 0.0145 0.0
C380 C 0.88506 0.99811 0.05614 0.0
C381 C 0.88392 0.99009 0.13739 0.0
C382 C 0.90962 0.98888 0.16812 0.0
C383 C 0.91603 1.00704 0.22696 0.0
C384 C 0.91188 0.96123 0.20531 0.0
C385 C 0.92537 0.99811 0.09181 0.0
C386 C 0.91086 1.00314 0.02775 0.0
C387 C 0.92133 0.01296 0.95158 0.0
C388 C 0.94735 0.01799 0.94079 0.0
C389 C 0.96253 0.01326 0.00587 0.0
C390 C 0.9513 1.00287 0.08199 0.0
H391 H 0.56539 0.87281 0.22696 0.0
H392 H 0.50762 0.85986 0.41228 0.0
H393 H 0.49363 0.89987 0.34981 0.0
H394 H 0.58001 0.94229 0.20879 0.0
H395 H 0.58575 0.94796 0.10312 0.0
H396 H 0.59132 0.91863 0.16341 0.0
H397 H 0.56207 0.89265 0.07844 0.0
H398 H 0.5562 0.92194 0.01862 0.0
H399 H 0.53062 0.89823 0.06694 0.0
H400 H 0.48491 0.94042 0.26371 0.0
H401 H 0.48408 0.98022 0.16722 0.0
H402 H 0.54845 0.96777 0.03957 0.0
C403 C 0.54993 0.87856 0.25474 0.0
C404 C 0.5376 0.86326 0.32459 0.0
C405 C 0.51742 0.87133 0.35915 0.0
C406 C 0.5093 0.89397 0.3238 0.0
C407 C 0.52165 0.90843 0.25427 0.0
C408 C 0.54175 0.90122 0.22062 0.0
C409 C 0.55196 0.92031 0.14623 0.0
C410 C 0.57885 0.93306 0.156 0.0
C411 C 0.55009 0.90751 0.07325 0.0
C412 C 0.5343 0.93929 0.14277 0.0
C413 C 0.5169 0.93199 0.20546 0.0
C414 C 0.49853 0.94635 0.2147 0.0
C415 C 0.49817 0.96891 0.15938 0.0
C416 C 0.51611 0.9771 0.09555 0.0
C417 C 0.5343 0.96191 0.08705 0.0
H418 H 0.70378 0.53558 0.14222 0.0
H419 H 0.73354 0.57742 0.91133 0.0
H420 H 0.69093 0.57877 0.86708 0.0
H421 H 0.65238 0.49652 0.07065 0.0
H422 H 0.63106 0.49671 0.15118 0.0
H423 H 0.6639 0.50002 0.16637 0.0
H424 H 0.66316 0.54245 0.21573 0.0
H425 H 0.6303 0.53923 0.20085 0.0
H426 H 0.65104 0.56791 0.1539 0.0
H427 H 0.64534 0.57538 0.8471 0.0
H428 H 0.59945 0.56649 0.8517 0.0
H429 H 0.59874 0.52551 0.09373 0.0
C430 C 0.70129 0.54522 0.08268 0.0
C431 C 0.72194 0.55662 0.03021 0.0
C432 C 0.71794 0.5687 0.95241 0.0
C433 C 0.69382 0.56957 0.92678 0.0
C434 C 0.67383 0.55807 0.97953 0.0
C435 C 0.67723 0.54604 0.05577 0.0
C436 C 0.65244 0.53446 0.09947 0.0
C437 C 0.6498 0.50519 0.1233 0.0
C438 C 0.64904 0.54675 0.17176 0.0
C439 C 0.63465 0.54188 0.03591 0.0
C440 C 0.64742 0.5556 0.96735 0.0
C441 C 0.63512 0.56462 0.90042 0.0
C442 C 0.60906 0.55945 0.90354 0.0
C443 C 0.59556 0.54525 0.97288 0.0
C444 C 0.60859 0.53639 0.03987 0.0
H445 H 0.01077 0.70112 0.04462 0.0
H446 H 0.04117 0.69029 0.2774 0.0
H447 H 0.04986 0.64815 0.25974 0.0
H448 H 0.98078 0.63481 0.05722 0.0
H449 H 0.98722 0.63443 0.95455 0.0
H450 H 0.9837 0.66395 0.98447 0.0
H451 H 0.02694 0.6853 0.91942 0.0
H452 H 0.03068 0.65576 0.88986 0.0
H453 H 0.05369 0.67094 0.94824 0.0
H454 H 0.05557 0.60761 0.21768 0.0
H455 H 0.05554 0.56948 0.15905 0.0
H456 H 0.02081 0.60458 0.95186 0.0
C457 C 0.01923 0.68981 0.09189 0.0
C458 C 0.02531 0.6991 0.16258 0.0
C459 C 0.03627 0.68369 0.22302 0.0
C460 C 0.04137 0.65972 0.21327 0.0
C461 C 0.03532 0.65123 0.14284 0.0
C462 C 0.02428 0.66564 0.08332 0.0
C463 C 0.01907 0.65152 0.01445 0.0
C464 C 0.99103 0.64584 0.00195 0.0
C465 C 0.03346 0.6668 0.93849 0.0
C466 C 0.02902 0.62694 0.04444 0.0
C467 C 0.03838 0.62743 0.11858 0.0
C468 C 0.04828 0.60705 0.15978 0.0
C469 C 0.04818 0.5854 0.12563 0.0
C470 C 0.03827 0.58387 0.05057 0.0
C471 C 0.02884 0.60521 0.00875 0.0
H472 H 0.04927 0.23045 0.71858 0.0
H473 H 0.97721 0.22746 0.61679 0.0
H474 H 0.96619 0.18144 0.67586 0.0
H475 H 0.06113 0.1762 0.67611 0.0
H476 H 0.07627 0.16481 0.76463 0.0
H477 H 0.07651 0.19852 0.73361 0.0
H478 H 0.05651 0.20086 0.86861 0.0
H479 H 0.05698 0.16724 0.9015 0.0
H480 H 0.02825 0.17915 0.90591 0.0
H481 H 0.96704 0.13455 0.71827 0.0
H482 H 0.97695 0.09113 0.76165 0.0
H483 H 0.04817 0.12485 0.83843 0.0
C484 C 0.03061 0.22041 0.71355 0.0
C485 C 0.01373 0.23249 0.66556 0.0
C486 C 0.98995 0.21859 0.6558 0.0
C487 C 0.98369 0.19241 0.68838 0.0
C488 C 1.00134 0.18056 0.73126 0.0
C489 C 0.02406 0.19426 0.74613 0.0
C490 C 0.04073 0.17656 0.78647 0.0
C491 C 0.06508 0.17919 0.73722 0.0
C492 C 0.04591 0.18123 0.87062 0.0
C493 C 0.02437 0.15081 0.78817 0.0
C494 C 1.00169 0.15345 0.75642 0.0
C495 C 0.98447 0.13224 0.74526 0.0
C496 C 0.99036 0.10769 0.76906 0.0
C497 C 0.01323 0.10464 0.80374 0.0
C498 C 0.03036 0.12655 0.81311 0.0
H499 H 0.35638 0.01737 0.64919 0.0
H500 H 0.32557 0.05245 0.82672 0.0
H501 H 0.3582 0.04073 0.91616 0.0
H502 H 0.38232 0.96633 0.78748 0.0
H503 H 0.40975 0.97084 0.72367 0.0
H504 H 0.38047 0.97568 0.68196 0.0
H505 H 0.40069 0.02147 0.61187 0.0
H506 H 0.42989 0.01685 0.65342 0.0
H507 H 0.4161 0.04359 0.66988 0.0
H508 H 0.39816 0.03383 0.97423 0.0
H509 H 0.4423 0.03212 0.99689 0.0
H510 H 0.44879 1.00284 0.78089 0.0
C511 C 0.35611 0.02208 0.7076 0.0
C512 C 0.33827 0.03585 0.7307 0.0
C513 C 0.33862 0.04151 0.80786 0.0
C514 C 0.35721 0.03499 0.85912 0.0
C515 C 0.37527 0.02271 0.83267 0.0
C516 C 0.37477 0.01612 0.75885 0.0
C517 C 0.39824 1.0065 0.73988 0.0
C518 C 0.39233 0.97815 0.73286 0.0
C519 C 0.41203 0.0231 0.66435 0.0
C520 C 0.41261 0.00995 0.81289 0.0
C521 C 0.39875 0.01881 0.86637 0.0
C522 C 0.40893 0.02627 0.93393 0.0
C523 C 0.43404 0.02531 0.94614 0.0
C524 C 0.44872 0.01698 0.89116 0.0
C525 C 0.4377 1.00848 0.82498 0.0
H526 H 0.51071 0.32765 0.49449 0.0
H527 H 0.57884 0.29708 0.52515 0.0
H528 H 0.59275 0.32653 0.6165 0.0
H529 H 0.53687 0.38758 0.46641 0.0
H530 H 0.51368 0.39996 0.51582 0.0
H531 H 0.50501 0.37126 0.4769 0.0
H532 H 0.48713 0.34617 0.61463 0.0
H533 H 0.49506 0.37509 0.65412 0.0
H534 H 0.50618 0.34647 0.69921 0.0
H535 H 0.60352 0.36612 0.67506 0.0
H536 H 0.60906 0.41043 0.70059 0.0
H537 H 0.53438 0.41573 0.6268 0.0
C538 C 0.52792 0.32627 0.52406 0.0
C539 C 0.54363 0.3101 0.50388 0.0
C540 C 0.56637 0.30906 0.54142 0.0
C541 C 0.57443 0.32581 0.59302 0.0
C542 C 0.55934 0.34311 0.60683 0.0
C543 C 0.53626 0.34304 0.57455 0.0
C544 C 0.52542 0.3661 0.58632 0.0
C545 C 0.51996 0.38215 0.50666 0.0
C546 C 0.50207 0.35797 0.64191 0.0
C547 C 0.54666 0.38008 0.62531 0.0
C548 C 0.56582 0.36632 0.63873 0.0
C549 C 0.58837 0.37674 0.66681 0.0
C550 C 0.59142 0.40191 0.68079 0.0
C551 C 0.57218 0.41639 0.66504 0.0
C552 C 0.54941 0.40504 0.63888 0.0
H553 H 0.20598 0.55651 0.64066 0.0
H554 H 0.23422 0.51489 0.8502 0.0
H555 H 0.20075 0.52429 0.93189 0.0
H556 H 0.1791 0.60442 0.73868 0.0
H557 H 0.15263 0.60229 0.6774 0.0
H558 H 0.1825 0.59881 0.63939 0.0
H559 H 0.16284 0.555 0.60619 0.0
H560 H 0.13309 0.55819 0.64449 0.0
H561 H 0.14643 0.53038 0.68349 0.0
H562 H 0.15972 0.5292 0.98482 0.0
H563 H 0.11517 0.5298 0.00508 0.0
H564 H 0.11248 0.56734 0.76101 0.0
C565 C 0.2056 0.55011 0.70415 0.0
C566 C 0.22271 0.53499 0.73915 0.0
C567 C 0.22157 0.52684 0.82226 0.0
C568 C 0.20255 0.53205 0.86908 0.0
C569 C 0.18504 0.54567 0.83193 0.0
C570 C 0.18659 0.55489 0.7513 0.0
C571 C 0.16354 0.56542 0.72378 0.0
C572 C 0.16982 0.59446 0.69301 0.0
C573 C 0.15073 0.5514 0.66085 0.0
C574 C 0.14807 0.55928 0.80063 0.0
C575 C 0.16104 0.54844 0.86267 0.0
C576 C 0.14965 0.5383 0.93725 0.0
C577 C 0.12428 0.5386 0.94813 0.0
C578 C 0.1105 0.54886 0.8848 0.0
C579 C 0.12276 0.56009 0.81096 0.0
H580 H 0.00927 0.83118 0.0902 0.0
H581 H 0.08391 0.83203 0.17047 0.0
H582 H 0.09467 0.87831 0.11497 0.0
H583 H 0.02616 0.88515 0.90488 0.0
H584 H 0.99788 0.89666 0.92198 0.0
H585 H 0.99871 0.86288 0.94668 0.0
H586 H 0.98264 0.86282 0.08894 0.0
H587 H 0.98296 0.89671 0.06606 0.0
H588 H 1.0003 0.88354 0.14706 0.0
H589 H 0.09375 0.92558 0.08283 0.0
H590 H 0.08369 0.96935 0.05057 0.0
H591 H 0.00969 0.93726 0.99062 0.0
C592 C 0.02835 0.8408 0.09047 0.0
C593 C 0.04602 0.82807 0.13218 0.0
C594 C 0.07047 0.8414 0.1361 0.0
C595 C 0.0766 0.86776 0.10576 0.0
C596 C 0.05813 0.8803 0.0707 0.0
C597 C 0.03471 0.8671 0.06026 0.0
C598 C 0.01734 0.88534 0.0295 0.0
C599 C 0.00958 0.88233 0.94577 0.0
C600 C 0.99448 0.88188 0.08631 0.0
C601 C 0.0342 0.91073 0.02837 0.0
C602 C 0.05767 0.90755 0.05197 0.0
C603 C 0.07564 0.92834 0.06212 0.0
C604 C 0.06968 0.95306 0.04494 0.0
C605 C 0.04599 0.95664 0.01794 0.0
C606 C 0.02808 0.93512 0.01032 0.0
H607 H 0.70165 0.99103 0.04473 0.0
H608 H 0.72443 0.05894 0.14412 0.0
H609 H 0.69158 0.07915 0.07342 0.0
H610 H 0.68086 0.02394 0.84949 0.0
H611 H 0.65455 0.9987 0.85054 0.0
H612 H 0.68291 0.99143 0.89417 0.0
H613 H 0.65868 0.97041 0.0267 0.0
H614 H 0.6303 0.97709 0.9831 0.0
H615 H 0.63961 0.9884 0.07228 0.0
H616 H 0.65226 0.08851 0.01257 0.0
H617 H 0.60948 0.08631 0.96664 0.0
H618 H 0.61253 0.01233 0.90541 0.0
C619 C 0.70026 0.01056 0.0485 0.0
C620 C 0.71569 0.02385 0.0977 0.0
C621 C 0.71295 0.04889 0.10491 0.0
C622 C 0.69442 0.06044 0.06501 0.0
C623 C 0.67893 0.04662 0.01829 0.0
C624 C 0.68178 0.02227 0.00936 0.0
C625 C 0.66078 0.01018 0.96468 0.0
C626 C 0.67039 1.00581 0.88496 0.0
C627 C 0.64651 0.98506 0.01471 0.0
C628 C 0.64514 0.03101 0.95299 0.0
C629 C 0.65607 0.05205 0.98315 0.0
C630 C 0.64378 0.07244 0.98693 0.0
C631 C 0.61946 0.071 0.96093 0.0
C632 C 0.60774 0.04928 0.93177 0.0
C633 C 0.62113 0.02948 0.92563 0.0
H634 H 0.47952 0.71514 0.39453 0.0
H635 H 0.53086 0.76973 0.22592 0.0
H636 H 0.5201 0.74324 0.12435 0.0
H637 H 0.49879 0.66357 0.35263 0.0
H638 H 0.46911 0.6424 0.36652 0.0
H639 H 0.47475 0.66892 0.41707 0.0
H640 H 0.43619 0.68562 0.3559 0.0
H641 H 0.43031 0.65894 0.30514 0.0
H642 H 0.4336 0.69125 0.25007 0.0
H643 H 0.51054 0.70705 0.05145 0.0
H644 H 0.50432 0.6643 0.01534 0.0
H645 H 0.46187 0.63218 0.23621 0.0
C646 C 0.48795 0.7219 0.33547 0.0
C647 C 0.50602 0.74442 0.31793 0.0
C648 C 0.5167 0.7527 0.24021 0.0
C649 C 0.51069 0.73775 0.18222 0.0
C650 C 0.49386 0.71478 0.203 0.0
C651 C 0.48251 0.70701 0.27783 0.0
C652 C 0.46861 0.67974 0.29029 0.0
C653 C 0.47842 0.66268 0.3607 0.0
C654 C 0.44051 0.67885 0.30095 0.0
C655 C 0.47506 0.6728 0.21244 0.0
C656 C 0.48899 0.69345 0.16188 0.0
C657 C 0.49924 0.6909 0.08988 0.0
C658 C 0.4958 0.66651 0.07023 0.0
C659 C 0.48263 0.64492 0.12316 0.0
C660 C 0.47147 0.64839 0.19372 0.0
H661 H 0.84907 0.49669 0.1702 0.0
H662 H 0.82374 0.54289 0.96383 0.0
H663 H 0.85894 0.53617 0.88379 0.0
H664 H 0.90825 0.52517 0.14201 0.0
H665 H 0.9223 0.49754 0.17704 0.0
H666 H 0.8915 0.49851 0.21226 0.0
H667 H 0.87454 0.45609 0.16579 0.0
H668 H 0.90548 0.45469 0.1313 0.0
H669 H 0.88034 0.45336 0.06467 0.0
H670 H 0.90088 0.53301 0.83458 0.0
H671 H 0.94558 0.53344 0.8189 0.0
H672 H 0.94573 0.49175 0.05965 0.0
C673 C 0.85047 0.50469 0.1075 0.0
C674 C 0.83366 0.52036 0.07326 0.0
C675 C 0.83611 0.53051 0.99115 0.0
C676 C 0.85615 0.52685 0.9453 0.0
C677 C 0.87343 0.5129 0.98241 0.0
C678 C 0.87063 0.50173 0.06164 0.0
C679 C 0.89371 0.49151 0.09079 0.0
C680 C 0.90457 0.50394 0.15951 0.0
C681 C 0.88818 0.46216 0.11451 0.0
C682 C 0.91055 0.50004 0.0168 0.0
C683 C 0.89823 0.51169 0.95446 0.0
C684 C 0.91051 0.52339 0.88239 0.0
C685 C 0.93605 0.52366 0.87424 0.0
C686 C 0.94926 0.51253 0.93792 0.0
C687 C 0.93612 0.5 0.00943 0.0
H688 H 0.00919 0.24196 0.38689 0.0
H689 H 0.08493 0.2817 0.38724 0.0
H690 H 0.09777 0.25661 0.29139 0.0
H691 H 0.02407 0.18314 0.40086 0.0
H692 H 1.00004 0.17048 0.34089 0.0
H693 H 0.99555 0.19575 0.39162 0.0
H694 H 0.98733 0.22423 0.25966 0.0
H695 H 0.99116 0.19879 0.20835 0.0
H696 H 0.00965 0.23022 0.17742 0.0
H697 H 0.10314 0.22166 0.21241 0.0
H698 H 0.10055 0.18221 0.157 0.0
H699 H 0.02139 0.16372 0.21636 0.0
C700 C 0.02826 0.24631 0.36359 0.0
C701 C 0.04598 0.26425 0.39328 0.0
C702 C 0.07093 0.26868 0.36372 0.0
C703 C 0.07838 0.25423 0.30993 0.0
C704 C 0.06067 0.2354 0.28625 0.0
C705 C 0.036 0.2317 0.31163 0.0
C706 C 0.02109 0.20823 0.28682 0.0
C707 C 0.00952 0.18824 0.35936 0.0
C708 C 1.00113 0.21583 0.22964 0.0
C709 C 0.04123 0.19877 0.2451 0.0
C710 C 0.06388 0.21487 0.24414 0.0
C711 C 0.08538 0.20925 0.21191 0.0
C712 C 0.08371 0.18674 0.18028 0.0
C713 C 0.06074 0.16971 0.18175 0.0
C714 C 0.03926 0.17615 0.21428 0.0
H715 H 0.33455 0.04304 0.43748 0.0
H716 H 0.32826 0.12003 0.46265 0.0
H717 H 0.35929 0.13756 0.35123 0.0
H718 H 0.39611 0.05312 0.4166 0.0
H719 H 0.39888 0.0329 0.34564 0.0
H720 H 0.37181 0.0264 0.41127 0.0
H721 H 0.34316 0.02905 0.29244 0.0
H722 H 0.37014 0.03489 0.22591 0.0
H723 H 0.34858 0.05697 0.21453 0.0
H724 H 0.39716 0.14604 0.25716 0.0
H725 H 0.43599 0.14477 0.18362 0.0
H726 H 0.41688 0.06192 0.22057 0.0
C727 C 0.3388 0.06358 0.41657 0.0
C728 C 0.32881 0.08026 0.45717 0.0
C729 C 0.33532 0.10702 0.43068 0.0
C730 C 0.35304 0.11709 0.3679 0.0
C731 C 0.36374 0.10005 0.33203 0.0
C732 C 0.35642 0.0738 0.3545 0.0
C733 C 0.37274 0.05945 0.31451 0.0
C734 C 0.38564 0.04196 0.37565 0.0
C735 C 0.35776 0.04419 0.2585 0.0
C736 C 0.39117 0.08161 0.26895 0.0
C737 C 0.38556 0.10491 0.27865 0.0
C738 C 0.40134 0.12792 0.24756 0.0
C739 C 0.42337 0.12702 0.20588 0.0
C740 C 0.42954 0.10325 0.19637 0.0
C741 C 0.41286 0.0804 0.22723 0.0
H742 H 0.50442 0.34464 0.27277 0.0
H743 H 0.56043 0.31859 0.14313 0.0
H744 H 0.56254 0.3572 0.03788 0.0
H745 H 0.47394 0.37688 0.10121 0.0
H746 H 0.46969 0.40256 0.15094 0.0
H747 H 0.46964 0.37092 0.20744 0.0
H748 H 0.50468 0.3896 0.29117 0.0
H749 H 0.5051 0.4212 0.23445 0.0
H750 H 0.53322 0.40785 0.2422 0.0
H751 H 0.56206 0.40181 0.95528 0.0
H752 H 0.55823 0.44662 0.90186 0.0
H753 H 0.50389 0.44387 0.0905 0.0
C754 C 0.51673 0.3467 0.2213 0.0
C755 C 0.53225 0.32849 0.2162 0.0
C756 C 0.54811 0.33201 0.14791 0.0
C757 C 0.54954 0.35402 0.08816 0.0
C758 C 0.5349 0.37225 0.09741 0.0
C759 C 0.5186 0.3686 0.16212 0.0
C760 C 0.5065 0.39185 0.16254 0.0
C761 C 0.47826 0.38515 0.15506 0.0
C762 C 0.51276 0.40329 0.23698 0.0
C763 C 0.51887 0.40953 0.08872 0.0
C764 C 0.535 0.39785 0.05138 0.0
C765 C 0.54926 0.41093 0.98378 0.0
C766 C 0.54699 0.43649 0.95389 0.0
C767 C 0.53072 0.44893 0.99162 0.0
C768 C 0.51639 0.43502 0.05971 0.0
H769 H 0.19775 0.47145 0.58068 0.0
H770 H 0.2576 0.51486 0.41791 0.0
H771 H 0.23178 0.50667 0.305 0.0
H772 H 0.17209 0.42401 0.45327 0.0
H773 H 0.14066 0.42427 0.48559 0.0
H774 H 0.16563 0.42903 0.55159 0.0
H775 H 0.15272 0.47163 0.57034 0.0
H776 H 0.12801 0.46719 0.50379 0.0
H777 H 0.15101 0.49609 0.48478 0.0
H778 H 0.19686 0.5007 0.21252 0.0
H779 H 0.15684 0.49489 0.1471 0.0
H780 H 0.11965 0.45521 0.37047 0.0
C781 C 0.20571 0.47845 0.52112 0.0
C782 C 0.22971 0.49366 0.50773 0.0
C783 C 0.23944 0.50283 0.42926 0.0
C784 C 0.22483 0.49837 0.36493 0.0
C785 C 0.20071 0.48442 0.38035 0.0
C786 C 0.19138 0.47421 0.45665 0.0
C787 C 0.16415 0.4622 0.45811 0.0
C788 C 0.16042 0.43315 0.48895 0.0
C789 C 0.14804 0.47506 0.50711 0.0
C790 C 0.15925 0.46817 0.37093 0.0
C791 C 0.18062 0.48078 0.32693 0.0
C792 C 0.18019 0.49033 0.24613 0.0
C793 C 0.15737 0.48707 0.20958 0.0
C794 C 0.13527 0.47436 0.2537 0.0
C795 C 0.13638 0.46444 0.3351 0.0
H796 H 0.05338 0.82808 0.40105 0.0
H797 H 0.98078 0.77968 0.43405 0.0
H798 H 0.96885 0.80416 0.5331 0.0
H799 H 0.05979 0.84176 0.6053 0.0
H800 H 0.07426 0.87449 0.56785 0.0
H801 H 0.0784 0.84974 0.514 0.0
H802 H 0.06204 0.87542 0.38932 0.0
H803 H 0.05737 0.89998 0.4429 0.0
H804 H 0.03181 0.88427 0.39462 0.0
H805 H 0.96332 0.83849 0.61538 0.0
H806 H 0.96482 0.87747 0.67277 0.0
H807 H 0.0405 0.90466 0.57774 0.0
C808 C 0.03525 0.82199 0.43129 0.0
C809 C 0.0181 0.80168 0.41031 0.0
C810 C 0.99442 0.7947 0.45021 0.0
C811 C 0.98744 0.80875 0.50598 0.0
C812 C 1.00435 0.82972 0.5213 0.0
C813 C 0.0279 0.83608 0.48539 0.0
C814 C 0.04178 0.861 0.50414 0.0
C815 C 0.06493 0.85647 0.55061 0.0
C816 C 0.04864 0.88136 0.42825 0.0
C817 C 0.0223 0.86809 0.55528 0.0
C818 C 1.00093 0.84971 0.56554 0.0
C819 C 0.98013 0.85274 0.60834 0.0
C820 C 0.98119 0.875 0.64104 0.0
C821 C 1.0028 0.89431 0.63029 0.0
C822 C 0.02362 0.89048 0.58703 0.0
H823 H 0.69566 0.95331 0.32526 0.0
H824 H 0.75666 0.99936 0.41942 0.0
H825 H 0.73262 0.99239 0.54701 0.0
H826 H 0.65031 0.97825 0.39492 0.0
H827 H 0.62727 0.94948 0.41871 0.0
H828 H 0.65116 0.95212 0.34359 0.0
H829 H 0.66476 0.91071 0.41722 0.0
H830 H 0.64045 0.9075 0.49207 0.0
H831 H 0.67217 0.90796 0.51981 0.0
H832 H 0.69862 0.98823 0.6517 0.0
H833 H 0.65925 0.98499 0.72714 0.0
H834 H 0.6204 0.94072 0.56561 0.0
C835 C 0.70437 0.96082 0.37425 0.0
C836 C 0.72811 0.97652 0.36333 0.0
C837 C 0.73875 0.98679 0.42746 0.0
C838 C 0.72512 0.98305 0.49985 0.0
C839 C 0.70108 0.9687 0.50716 0.0
C840 C 0.69102 0.95727 0.44646 0.0
C841 C 0.66388 0.94546 0.46494 0.0
C842 C 0.6472 0.95704 0.40181 0.0
C843 C 0.6601 0.91617 0.47408 0.0
C844 C 0.65978 0.95327 0.54344 0.0
C845 C 0.6815 0.96628 0.56757 0.0
C846 C 0.68169 0.97742 0.63449 0.0
C847 C 0.65915 0.97539 0.6773 0.0
C848 C 0.63656 0.96242 0.65312 0.0
C849 C 0.6372 0.95083 0.58597 0.0
H850 H 0.55991 0.71716 0.53121 0.0
H851 H 0.50697 0.74512 0.66679 0.0
H852 H 0.5046 0.70637 0.77178 0.0
H853 H 0.53003 0.65588 0.56049 0.0
H854 H 0.5571 0.64078 0.56703 0.0
H855 H 0.55916 0.67289 0.51237 0.0
H856 H 0.59496 0.68925 0.59726 0.0
H857 H 0.5935 0.65702 0.65123 0.0
H858 H 0.59076 0.6825 0.70355 0.0
H859 H 0.50303 0.6609 0.85074 0.0
H860 H 0.50412 0.61507 0.8991 0.0
H861 H 0.55729 0.61674 0.70804 0.0
C862 C 0.54873 0.71567 0.58483 0.0
C863 C 0.53399 0.73437 0.59173 0.0
C864 C 0.5189 0.73139 0.66136 0.0
C865 C 0.51729 0.70928 0.72083 0.0
C866 C 0.53102 0.69046 0.70989 0.0
C867 C 0.5468 0.69372 0.64401 0.0
C868 C 0.55755 0.66977 0.64136 0.0
C869 C 0.55053 0.65922 0.56586 0.0
C870 C 0.58587 0.67495 0.64881 0.0
C871 C 0.5447 0.65205 0.71438 0.0
C872 C 0.52972 0.66436 0.7539 0.0
C873 C 0.51502 0.65131 0.82071 0.0
C874 C 0.5157 0.62516 0.84763 0.0
C875 C 0.53084 0.61214 0.80763 0.0
C876 C 0.54561 0.62601 0.74043 0.0
H877 H 0.83797 0.5182 0.34975 0.0
H878 H 0.81405 0.59179 0.30094 0.0
H879 H 0.84336 0.60725 0.39757 0.0
H880 H 0.85338 0.51642 0.56085 0.0
H881 H 0.8804 0.5024 0.54724 0.0
H882 H 0.85355 0.49567 0.48995 0.0
H883 H 0.88131 0.51134 0.36112 0.0
H884 H 0.90813 0.51857 0.41755 0.0
H885 H 0.8995 0.54319 0.34266 0.0
H886 H 0.87999 0.61621 0.48587 0.0
H887 H 0.91877 0.61753 0.55829 0.0
H888 H 0.92081 0.53925 0.5335 0.0
C889 C 0.83826 0.5373 0.36145 0.0
C890 C 0.82365 0.55377 0.3183 0.0
C891 C 0.82475 0.57872 0.33442 0.0
C892 C 0.84151 0.58769 0.38871 0.0
C893 C 0.85693 0.57142 0.42616 0.0
C894 C 0.85521 0.54664 0.41346 0.0
C895 C 0.87578 0.53394 0.45173 0.0
C896 C 0.86514 0.51074 0.5163 0.0
C897 C 0.89213 0.52633 0.38957 0.0
C898 C 0.88975 0.55555 0.48701 0.0
C899 C 0.87848 0.57691 0.47292 0.0
C900 C 0.88879 0.59948 0.49767 0.0
C901 C 0.91104 0.60013 0.53803 0.0
C902 C 0.92304 0.57848 0.55224 0.0
C903 C 0.91202 0.55599 0.52593 0.0
loop_
_geom_bond_atom_site_label_1
_geom_bond_atom_site_label_2
_geom_bond_distance
_geom_bond_site_symmetry_2
_ccdc_geom_bond_type
H0 C5 0.930 . S
H1 C8 0.930 . S
H2 C10 0.930 . S
H3 C4 1.016 . S
C4 H3 1.016 . S
C4 N11 1.286 1_556 S
C5 H0 0.930 . S
C5 C6 1.397 . S
C5 C7 1.361 . S
C6 C5 1.397 . S
C6 C10 1.390 . S
C7 C5 1.361 . S
C7 C8 1.393 1_554 S
C7 N11 1.413 . S
C8 H1 0.930 . S
C8 C7 1.393 1_556 S
C8 C9 1.399 . S
C9 C8 1.399 . S
C9 C10 1.381 1_556 S
C10 H2 0.930 . S
C10 C6 1.390 . S
C10 C9 1.381 1_554 S
N11 C4 1.286 1_554 S
N11 C7 1.413 . S
H12 C17 0.930 . S
H13 C20 0.930 1_455 S
H14 C22 0.930 . S
H15 C16 1.016 . S
C16 H15 1.016 . S
C16 N23 1.286 1_655 S
C17 H12 0.930 . S
C17 C18 1.397 1_455 S
C17 C19 1.361 . S
C18 C17 1.397 1_655 S
C18 C22 1.390 . S
C19 C17 1.361 . S
C19 C20 1.393 1_455 S
C19 N23 1.413 . S
C20 H13 0.930 1_655 S
C20 C19 1.393 1_655 S
C20 C21 1.399 . S
C21 C20 1.399 . S
C21 C22 1.381 . S
C22 H14 0.930 . S
C22 C18 1.390 . S
C22 C21 1.381 . S
N23 C16 1.286 1_455 S
N23 C19 1.413 . S
H24 C29 0.930 . S
H25 C32 0.930 1_556 S
H26 C34 0.930 . S
H27 C28 1.016 1_556 S
C28 H27 1.016 1_554 S
C28 N35 1.286 . S
C29 H24 0.930 . S
C29 C30 1.397 . S
C29 C31 1.361 . S
C30 C29 1.397 . S
C30 C34 1.390 . S
C31 C29 1.361 . S
C31 C32 1.393 . S
C31 N35 1.413 . S
C32 H25 0.930 1_554 S
C32 C31 1.393 . S
C32 C33 1.399 . S
C33 C32 1.399 . S
C33 C34 1.381 . S
C34 H26 0.930 . S
C34 C30 1.390 . S
C34 C33 1.381 . S
N35 C28 1.286 . S
N35 C31 1.413 . S
H36 C41 0.930 . S
H37 C44 0.930 . S
H38 C46 0.930 . S
H39 C40 1.016 . S
C40 H39 1.016 . S
C40 N47 1.286 . S
C41 H36 0.930 . S
C41 C42 1.397 . S
C41 C43 1.361 . S
C42 C41 1.397 . S
C42 C46 1.390 . S
C43 C41 1.361 . S
C43 C44 1.393 . S
C43 N47 1.413 . S
C44 H37 0.930 . S
C44 C43 1.393 . S
C44 C45 1.399 . S
C45 C44 1.399 . S
C45 C46 1.381 . S
C46 H38 0.930 . S
C46 C42 1.390 . S
C46 C45 1.381 . S
N47 C40 1.286 . S
N47 C43 1.413 . S
H48 C53 0.930 . S
H49 C56 0.930 . S
H50 C58 0.930 . S
H51 C52 1.016 . S
C52 H51 1.016 . S
C52 N59 1.286 . S
C53 H48 0.930 . S
C53 C54 1.397 . S
C53 C55 1.361 . S
C54 C53 1.397 . S
C54 C58 1.390 . S
C55 C53 1.361 . S
C55 C56 1.393 . S
C55 N59 1.413 . S
C56 H49 0.930 . S
C56 C55 1.393 . S
C56 C57 1.399 . S
C57 C56 1.399 . S
C57 C58 1.381 . S
C58 H50 0.930 . S
C58 C54 1.390 . S
C58 C57 1.381 . S
N59 C52 1.286 . S
N59 C55 1.413 . S
H60 C65 0.930 . S
H61 C68 0.930 . S
H62 C70 0.930 . S
H63 C64 1.016 . S
C64 H63 1.016 . S
C64 N71 1.286 . S
C65 H60 0.930 . S
C65 C66 1.397 . S
C65 C67 1.361 . S
C66 C65 1.397 . S
C66 C70 1.390 . S
C67 C65 1.361 . S
C67 C68 1.393 . S
C67 N71 1.413 . S
C68 H61 0.930 . S
C68 C67 1.393 . S
C68 C69 1.399 . S
C69 C68 1.399 . S
C69 C70 1.381 . S
C70 H62 0.930 . S
C70 C66 1.390 . S
C70 C69 1.381 . S
N71 C64 1.286 . S
N71 C67 1.413 . S
H72 C77 0.930 . S
H73 C80 0.930 . S
H74 C82 0.930 . S
H75 C76 1.016 . S
C76 H75 1.016 . S
C76 N83 1.286 . S
C77 H72 0.930 . S
C77 C78 1.397 . S
C77 C79 1.361 . S
C78 C77 1.397 . S
C78 C82 1.390 . S
C79 C77 1.361 . S
C79 C80 1.393 . S
C79 N83 1.413 . S
C80 H73 0.930 . S
C80 C79 1.393 . S
C80 C81 1.399 . S
C81 C80 1.399 . S
C81 C82 1.381 . S
C82 H74 0.930 . S
C82 C78 1.390 . S
C82 C81 1.381 . S
N83 C76 1.286 . S
N83 C79 1.413 . S
H84 C89 0.930 . S
H85 C92 0.930 . S
H86 C94 0.930 . S
H87 C88 1.016 . S
C88 H87 1.016 . S
C88 N95 1.286 . S
C89 H84 0.930 . S
C89 C90 1.397 . S
C89 C91 1.361 . S
C90 C89 1.397 . S
C90 C94 1.390 . S
C91 C89 1.361 . S
C91 C92 1.393 . S
C91 N95 1.413 . S
C92 H85 0.930 . S
C92 C91 1.393 . S
C92 C93 1.399 . S
C93 C92 1.399 . S
C93 C94 1.381 . S
C94 H86 0.930 . S
C94 C90 1.390 . S
C94 C93 1.381 . S
N95 C88 1.286 . S
N95 C91 1.413 . S
Nd96 C98 2.836 1_545 S
Nd96 O116 2.500 1_445 S
Nd96 O117 2.492 1_545 S
Nd96 O118 2.487 . S
Nd96 O119 2.682 . S
Nd96 O120 2.410 1_545 S
Nd96 O125 2.414 1_455 S
Nd96 O127 2.424 . S
Nd97 C107 2.836 . S
Nd97 O119 2.414 1_554 S
Nd97 O121 2.424 1_545 S
Nd97 O122 2.500 . S
Nd97 O123 2.492 . S
Nd97 O124 2.487 1_455 S
Nd97 O125 2.682 1_454 S
Nd97 O126 2.410 1_554 S
C98 Nd96 2.836 1_565 S
C98 C99 1.498 . S
C98 O116 1.258 1_455 S
C98 O117 1.239 . S
C99 C98 1.498 . S
C99 C100 1.366 1_455 S
C99 C104 1.407 . S
C100 C99 1.366 1_655 S
C100 C101 1.392 . S
C100 H128 0.930 . S
C101 C100 1.392 . S
C101 C102 1.398 1_655 S
C101 H129 0.929 . S
C102 C101 1.398 1_455 S
C102 C103 1.352 . S
C103 C102 1.352 . S
C103 C104 1.384 . S
C103 H130 0.930 . S
C104 C99 1.407 . S
C104 C103 1.384 . S
C104 H131 0.929 . S
C105 O118 1.241 . S
C105 O119 1.273 . S
C106 O120 1.251 . S
C106 O121 1.268 1_556 S
C107 Nd97 2.836 . S
C107 C108 1.498 . S
C107 O122 1.258 . S
C107 O123 1.239 . S
C108 C107 1.498 . S
C108 C109 1.366 . S
C108 C113 1.407 . S
C109 C108 1.366 . S
C109 C110 1.392 . S
C109 H132 0.930 . S
C110 C109 1.392 . S
C110 C111 1.398 . S
C110 H133 0.929 . S
C111 C110 1.398 . S
C111 C112 1.352 . S
C112 C111 1.352 . S
C112 C113 1.384 . S
C112 H134 0.930 . S
C113 C108 1.407 . S
C113 C112 1.384 . S
C113 H135 0.929 . S
C114 O124 1.241 1_556 S
C114 O125 1.273 . S
C115 O126 1.251 . S
C115 O127 1.268 . S
O116 Nd96 2.500 1_665 S
O116 C98 1.258 1_655 S
O117 Nd96 2.492 1_565 S
O117 C98 1.239 . S
O118 Nd96 2.487 . S
O118 C105 1.241 . S
O119 Nd96 2.682 . S
O119 Nd97 2.414 1_556 S
O119 C105 1.273 . S
O120 Nd96 2.410 1_565 S
O120 C106 1.251 . S
O121 Nd97 2.424 1_565 S
O121 C106 1.268 1_554 S
O122 Nd97 2.500 . S
O122 C107 1.258 . S
O123 Nd97 2.492 . S
O123 C107 1.239 . S
O124 Nd97 2.487 1_655 S
O124 C114 1.241 1_554 S
O125 Nd96 2.414 1_655 S
O125 Nd97 2.682 1_656 S
O125 C114 1.273 . S
O126 Nd97 2.410 1_556 S
O126 C115 1.251 . S
O127 Nd96 2.424 . S
O127 C115 1.268 . S
H128 C100 0.930 . S
H129 C101 0.929 . S
H130 C103 0.930 . S
H131 C104 0.929 . S
H132 C109 0.930 . S
H133 C110 0.929 . S
H134 C112 0.930 . S
H135 C113 0.929 . S
Nd136 C138 2.836 1_545 S
Nd136 O156 2.500 1_545 S
Nd136 O157 2.492 . S
Nd136 O158 2.487 . S
Nd136 O159 2.682 . S
Nd136 O160 2.410 . S
Nd136 O165 2.414 1_545 S
Nd136 O167 2.424 . S
Nd137 C147 2.836 . S
Nd137 O159 2.414 1_554 S
Nd137 O161 2.424 1_554 S
Nd137 O162 2.500 . S
Nd137 O163 2.492 . S
Nd137 O164 2.487 1_545 S
Nd137 O165 2.682 1_544 S
Nd137 O166 2.410 1_554 S
C138 Nd136 2.836 1_565 S
C138 C139 1.498 . S
C138 O156 1.258 . S
C138 O157 1.239 1_565 S
C139 C138 1.498 . S
C139 C140 1.366 . S
C139 C144 1.407 . S
C140 C139 1.366 . S
C140 C141 1.392 . S
C140 H168 0.930 . S
C141 C140 1.392 . S
C141 C142 1.398 . S
C141 H169 0.929 . S
C142 C141 1.398 . S
C142 C143 1.352 . S
C143 C142 1.352 . S
C143 C144 1.384 . S
C143 H170 0.930 . S
C144 C139 1.407 . S
C144 C143 1.384 . S
C144 H171 0.929 1_565 S
C145 O158 1.241 . S
C145 O159 1.273 . S
C146 O160 1.251 . S
C146 O161 1.268 . S
C147 Nd137 2.836 . S
C147 C148 1.498 . S
C147 O162 1.258 . S
C147 O163 1.239 . S
C148 C147 1.498 . S
C148 C149 1.366 . S
C148 C153 1.407 . S
C149 C148 1.366 . S
C149 C150 1.392 . S
C149 H172 0.930 . S
C150 C149 1.392 . S
C150 C151 1.398 . S
C150 H173 0.929 . S
C151 C150 1.398 . S
C151 C152 1.352 . S
C152 C151 1.352 . S
C152 C153 1.384 . S
C152 H174 0.930 . S
C153 C148 1.407 . S
C153 C152 1.384 . S
C153 H175 0.929 . S
C154 O164 1.241 . S
C154 O165 1.273 1_554 S
C155 O166 1.251 . S
C155 O167 1.268 . S
O156 Nd136 2.500 1_565 S
O156 C138 1.258 . S
O157 Nd136 2.492 . S
O157 C138 1.239 1_545 S
O158 Nd136 2.487 . S
O158 C145 1.241 . S
O159 Nd136 2.682 . S
O159 Nd137 2.414 1_556 S
O159 C145 1.273 . S
O160 Nd136 2.410 . S
O160 C146 1.251 . S
O161 Nd137 2.424 1_556 S
O161 C146 1.268 . S
O162 Nd137 2.500 . S
O162 C147 1.258 . S
O163 Nd137 2.492 . S
O163 C147 1.239 . S
O164 Nd137 2.487 1_565 S
O164 C154 1.241 . S
O165 Nd136 2.414 1_565 S
O165 Nd137 2.682 1_566 S
O165 C154 1.273 1_556 S
O166 Nd137 2.410 1_556 S
O166 C155 1.251 . S
O167 Nd136 2.424 . S
O167 C155 1.268 . S
H168 C140 0.930 . S
H169 C141 0.929 . S
H170 C143 0.930 . S
H171 C144 0.929 1_545 S
H172 C149 0.930 . S
H173 C150 0.929 . S
H174 C152 0.930 . S
H175 C153 0.929 . S
Nd176 C178 2.836 . S
Nd176 O196 2.500 . S
Nd176 O197 2.492 . S
Nd176 O198 2.487 1_554 S
Nd176 O199 2.682 1_554 S
Nd176 O200 2.410 1_554 S
Nd176 O205 2.414 1_554 S
Nd176 O207 2.424 . S
Nd177 C187 2.836 . S
Nd177 O199 2.414 . S
Nd177 O201 2.424 . S
Nd177 O202 2.500 . S
Nd177 O203 2.492 . S
Nd177 O204 2.487 . S
Nd177 O205 2.682 . S
Nd177 O206 2.410 . S
C178 Nd176 2.836 . S
C178 C179 1.498 . S
C178 O196 1.258 . S
C178 O197 1.239 . S
C179 C178 1.498 . S
C179 C180 1.366 . S
C179 C184 1.407 . S
C180 C179 1.366 . S
C180 C181 1.392 . S
C180 H208 0.930 . S
C181 C180 1.392 . S
C181 C182 1.398 . S
C181 H209 0.929 . S
C182 C181 1.398 . S
C182 C183 1.352 . S
C183 C182 1.352 . S
C183 C184 1.384 . S
C183 H210 0.930 . S
C184 C179 1.407 . S
C184 C183 1.384 . S
C184 H211 0.929 . S
C185 O198 1.241 . S
C185 O199 1.273 . S
C186 O200 1.251 . S
C186 O201 1.268 . S
C187 Nd177 2.836 . S
C187 C188 1.498 . S
C187 O202 1.258 . S
C187 O203 1.239 . S
C188 C187 1.498 . S
C188 C189 1.366 . S
C188 C193 1.407 . S
C189 C188 1.366 . S
C189 C190 1.392 . S
C189 H212 0.930 . S
C190 C189 1.392 . S
C190 C191 1.398 . S
C190 H213 0.929 . S
C191 C190 1.398 . S
C191 C192 1.352 . S
C192 C191 1.352 . S
C192 C193 1.384 . S
C192 H214 0.930 . S
C193 C188 1.407 . S
C193 C192 1.384 . S
C193 H215 0.929 . S
C194 O204 1.241 . S
C194 O205 1.273 . S
C195 O206 1.251 . S
C195 O207 1.268 1_556 S
O196 Nd176 2.500 . S
O196 C178 1.258 . S
O197 Nd176 2.492 . S
O197 C178 1.239 . S
O198 Nd176 2.487 1_556 S
O198 C185 1.241 . S
O199 Nd176 2.682 1_556 S
O199 Nd177 2.414 . S
O199 C185 1.273 . S
O200 Nd176 2.410 1_556 S
O200 C186 1.251 . S
O201 Nd177 2.424 . S
O201 C186 1.268 . S
O202 Nd177 2.500 . S
O202 C187 1.258 . S
O203 Nd177 2.492 . S
O203 C187 1.239 . S
O204 Nd177 2.487 . S
O204 C194 1.241 . S
O205 Nd176 2.414 1_556 S
O205 Nd177 2.682 . S
O205 C194 1.273 . S
O206 Nd177 2.410 . S
O206 C195 1.251 . S
O207 Nd176 2.424 . S
O207 C195 1.268 1_554 S
H208 C180 0.930 . S
H209 C181 0.929 . S
H210 C183 0.930 . S
H211 C184 0.929 . S
H212 C189 0.930 . S
H213 C190 0.929 . S
H214 C192 0.930 . S
H215 C193 0.929 . S
Nd216 C218 2.836 1_455 S
Nd216 O236 2.500 1_455 S
Nd216 O237 2.492 1_455 S
Nd216 O238 2.487 . S
Nd216 O239 2.682 . S
Nd216 O240 2.410 1_455 S
Nd216 O245 2.414 . S
Nd216 O247 2.424 . S
Nd217 C227 2.836 . S
Nd217 O239 2.414 1_554 S
Nd217 O241 2.424 1_454 S
Nd217 O242 2.500 . S
Nd217 O243 2.492 . S
Nd217 O244 2.487 . S
Nd217 O245 2.682 1_554 S
Nd217 O246 2.410 1_554 S
C218 Nd216 2.836 1_655 S
C218 C219 1.498 . S
C218 O236 1.258 . S
C218 O237 1.239 . S
C219 C218 1.498 . S
C219 C220 1.366 . S
C219 C224 1.407 . S
C220 C219 1.366 . S
C220 C221 1.392 . S
C220 H248 0.930 . S
C221 C220 1.392 . S
C221 C222 1.398 . S
C221 H249 0.929 . S
C222 C221 1.398 . S
C222 C223 1.352 . S
C223 C222 1.352 . S
C223 C224 1.384 . S
C223 H250 0.930 . S
C224 C219 1.407 . S
C224 C223 1.384 . S
C224 H251 0.929 . S
C225 O238 1.241 . S
C225 O239 1.273 . S
C226 O240 1.251 . S
C226 O241 1.268 . S
C227 Nd217 2.836 . S
C227 C228 1.498 . S
C227 O242 1.258 . S
C227 O243 1.239 . S
C228 C227 1.498 . S
C228 C229 1.366 . S
C228 C233 1.407 . S
C229 C228 1.366 . S
C229 C230 1.392 . S
C229 H252 0.930 . S
C230 C229 1.392 . S
C230 C231 1.398 . S
C230 H253 0.929 . S
C231 C230 1.398 . S
C231 C232 1.352 . S
C232 C231 1.352 . S
C232 C233 1.384 . S
C232 H254 0.930 . S
C233 C228 1.407 . S
C233 C232 1.384 . S
C233 H255 0.929 . S
C234 O244 1.241 1_556 S
C234 O245 1.273 . S
C235 O246 1.251 . S
C235 O247 1.268 . S
O236 Nd216 2.500 1_655 S
O236 C218 1.258 . S
O237 Nd216 2.492 1_655 S
O237 C218 1.239 . S
O238 Nd216 2.487 . S
O238 C225 1.241 . S
O239 Nd216 2.682 . S
O239 Nd217 2.414 1_556 S
O239 C225 1.273 . S
O240 Nd216 2.410 1_655 S
O240 C226 1.251 . S
O241 Nd217 2.424 1_656 S
O241 C226 1.268 . S
O242 Nd217 2.500 . S
O242 C227 1.258 . S
O243 Nd217 2.492 . S
O243 C227 1.239 . S
O244 Nd217 2.487 . S
O244 C234 1.241 1_554 S
O245 Nd216 2.414 . S
O245 Nd217 2.682 1_556 S
O245 C234 1.273 . S
O246 Nd217 2.410 1_556 S
O246 C235 1.251 . S
O247 Nd216 2.424 . S
O247 C235 1.268 . S
H248 C220 0.930 . S
H249 C221 0.929 . S
H250 C223 0.930 . S
H251 C224 0.929 . S
H252 C229 0.930 . S
H253 C230 0.929 . S
H254 C232 0.930 . S
H255 C233 0.929 . S
H256 C268 0.930 . S
H257 C270 0.930 . S
H258 C271 0.930 . S
H259 C275 0.959 . S
H260 C275 0.959 . S
H261 C275 0.961 . S
H262 C276 0.960 . S
H263 C276 0.961 . S
H264 C276 0.959 . S
H265 C279 0.929 . S
H266 C280 0.931 . S
H267 C282 0.930 . S
C268 H256 0.930 . S
C268 C269 1.399 . S
C268 C273 1.399 . S
C269 C268 1.399 . S
C269 C270 1.376 . S
C270 H257 0.930 . S
C270 C269 1.376 . S
C270 C271 1.388 . S
C271 H258 0.930 . S
C271 C270 1.388 . S
C271 C272 1.390 . S
C272 C271 1.390 . S
C272 C273 1.394 . S
C272 C278 1.465 . S
C273 C268 1.399 . S
C273 C272 1.394 . S
C273 C274 1.516 . S
C274 C273 1.516 . S
C274 C275 1.502 . S
C274 C276 1.561 . S
C274 C277 1.526 . S
C275 H259 0.959 . S
C275 H260 0.959 . S
C275 H261 0.961 . S
C275 C274 1.502 . S
C276 H262 0.960 . S
C276 H263 0.961 . S
C276 H264 0.959 . S
C276 C274 1.561 . S
C277 C274 1.526 . S
C277 C278 1.396 . S
C277 C282 1.390 . S
C278 C272 1.465 . S
C278 C277 1.396 . S
C278 C279 1.399 . S
C279 H265 0.929 . S
C279 C278 1.399 . S
C279 C280 1.385 . S
C280 H266 0.931 . S
C280 C279 1.385 . S
C280 C281 1.389 . S
C281 C280 1.389 . S
C281 C282 1.387 . S
C282 H267 0.930 . S
C282 C277 1.390 . S
C282 C281 1.387 . S
H283 C295 0.930 . S
H284 C297 0.930 . S
H285 C298 0.930 . S
H286 C302 0.959 . S
H287 C302 0.959 . S
H288 C302 0.961 . S
H289 C303 0.960 . S
H290 C303 0.961 . S
H291 C303 0.959 . S
H292 C306 0.929 . S
H293 C307 0.931 . S
H294 C309 0.930 . S
C295 H283 0.930 . S
C295 C296 1.399 . S
C295 C300 1.399 . S
C296 C295 1.399 . S
C296 C297 1.376 . S
C297 H284 0.930 . S
C297 C296 1.376 . S
C297 C298 1.388 . S
C298 H285 0.930 . S
C298 C297 1.388 . S
C298 C299 1.390 . S
C299 C298 1.390 . S
C299 C300 1.394 . S
C299 C305 1.465 . S
C300 C295 1.399 . S
C300 C299 1.394 . S
C300 C301 1.516 . S
C301 C300 1.516 . S
C301 C302 1.502 . S
C301 C303 1.561 . S
C301 C304 1.526 . S
C302 H286 0.959 . S
C302 H287 0.959 . S
C302 H288 0.961 . S
C302 C301 1.502 . S
C303 H289 0.960 . S
C303 H290 0.961 . S
C303 H291 0.959 . S
C303 C301 1.561 . S
C304 C301 1.526 . S
C304 C305 1.396 . S
C304 C309 1.390 . S
C305 C299 1.465 . S
C305 C304 1.396 . S
C305 C306 1.399 . S
C306 H292 0.929 . S
C306 C305 1.399 . S
C306 C307 1.385 . S
C307 H293 0.931 . S
C307 C306 1.385 . S
C307 C308 1.389 . S
C308 C307 1.389 . S
C308 C309 1.387 . S
C309 H294 0.930 . S
C309 C304 1.390 . S
C309 C308 1.387 . S
H310 C322 0.930 . S
H311 C324 0.930 . S
H312 C325 0.930 1_554 S
H313 C329 0.959 . S
H314 C329 0.959 . S
H315 C329 0.961 . S
H316 C330 0.960 . S
H317 C330 0.961 . S
H318 C330 0.959 . S
H319 C333 0.929 1_554 S
H320 C334 0.931 1_554 S
H321 C336 0.930 . S
C322 H310 0.930 . S
C322 C323 1.399 . S
C322 C327 1.399 . S
C323 C322 1.399 . S
C323 C324 1.376 . S
C324 H311 0.930 . S
C324 C323 1.376 . S
C324 C325 1.388 . S
C325 H312 0.930 1_556 S
C325 C324 1.388 . S
C325 C326 1.390 . S
C326 C325 1.390 . S
C326 C327 1.394 . S
C326 C332 1.465 . S
C327 C322 1.399 . S
C327 C326 1.394 . S
C327 C328 1.516 . S
C328 C327 1.516 . S
C328 C329 1.502 . S
C328 C330 1.561 . S
C328 C331 1.526 . S
C329 H313 0.959 . S
C329 H314 0.959 . S
C329 H315 0.961 . S
C329 C328 1.502 . S
C330 H316 0.960 . S
C330 H317 0.961 . S
C330 H318 0.959 . S
C330 C328 1.561 . S
C331 C328 1.526 . S
C331 C332 1.396 . S
C331 C336 1.390 . S
C332 C326 1.465 . S
C332 C331 1.396 . S
C332 C333 1.399 . S
C333 H319 0.929 1_556 S
C333 C332 1.399 . S
C333 C334 1.385 . S
C334 H320 0.931 1_556 S
C334 C333 1.385 . S
C334 C335 1.389 . S
C335 C334 1.389 . S
C335 C336 1.387 . S
C336 H321 0.930 . S
C336 C331 1.390 . S
C336 C335 1.387 . S
H337 C349 0.930 . S
H338 C351 0.930 . S
H339 C352 0.930 . S
H340 C356 0.959 . S
H341 C356 0.959 . S
H342 C356 0.961 . S
H343 C357 0.960 . S
H344 C357 0.961 . S
H345 C357 0.959 . S
H346 C360 0.929 . S
H347 C361 0.931 . S
H348 C363 0.930 . S
C349 H337 0.930 . S
C349 C350 1.399 . S
C349 C354 1.399 . S
C350 C349 1.399 . S
C350 C351 1.376 . S
C351 H338 0.930 . S
C351 C350 1.376 . S
C351 C352 1.388 . S
C352 H339 0.930 . S
C352 C351 1.388 . S
C352 C353 1.390 . S
C353 C352 1.390 . S
C353 C354 1.394 . S
C353 C359 1.465 . S
C354 C349 1.399 . S
C354 C353 1.394 . S
C354 C355 1.516 . S
C355 C354 1.516 . S
C355 C356 1.502 . S
C355 C357 1.561 . S
C355 C358 1.526 . S
C356 H340 0.959 . S
C356 H341 0.959 . S
C356 H342 0.961 . S
C356 C355 1.502 . S
C357 H343 0.960 . S
C357 H344 0.961 . S
C357 H345 0.959 . S
C357 C355 1.561 . S
C358 C355 1.526 . S
C358 C359 1.396 . S
C358 C363 1.390 . S
C359 C353 1.465 . S
C359 C358 1.396 . S
C359 C360 1.399 . S
C360 H346 0.929 . S
C360 C359 1.399 . S
C360 C361 1.385 . S
C361 H347 0.931 . S
C361 C360 1.385 . S
C361 C362 1.389 . S
C362 C361 1.389 . S
C362 C363 1.387 . S
C363 H348 0.930 . S
C363 C358 1.390 . S
C363 C362 1.387 . S
H364 C376 0.930 . S
H365 C378 0.930 . S
H366 C379 0.930 . S
H367 C383 0.959 . S
H368 C383 0.959 . S
H369 C383 0.961 . S
H370 C384 0.960 . S
H371 C384 0.961 . S
H372 C384 0.959 1_556 S
H373 C387 0.929 . S
H374 C388 0.931 . S
H375 C390 0.930 1_554 S
C376 H364 0.930 . S
C376 C377 1.399 . S
C376 C381 1.399 . S
C377 C376 1.399 . S
C377 C378 1.376 1_554 S
C378 H365 0.930 . S
C378 C377 1.376 1_556 S
C378 C379 1.388 . S
C379 H366 0.930 . S
C379 C378 1.388 . S
C379 C380 1.390 . S
C380 C379 1.390 . S
C380 C381 1.394 1_556 S
C380 C386 1.465 . S
C381 C376 1.399 . S
C381 C380 1.394 1_554 S
C381 C382 1.516 . S
C382 C381 1.516 . S
C382 C383 1.502 . S
C382 C384 1.561 . S
C382 C385 1.526 1_554 S
C383 H367 0.959 . S
C383 H368 0.959 . S
C383 H369 0.961 . S
C383 C382 1.502 . S
C384 H370 0.960 . S
C384 H371 0.961 . S
C384 H372 0.959 1_554 S
C384 C382 1.561 . S
C385 C382 1.526 1_556 S
C385 C386 1.396 . S
C385 C390 1.390 . S
C386 C380 1.465 . S
C386 C385 1.396 . S
C386 C387 1.399 1_565 S
C387 H373 0.929 . S
C387 C386 1.399 1_545 S
C387 C388 1.385 . S
C388 H374 0.931 . S
C388 C387 1.385 . S
C388 C389 1.405 . S
C389 C388 1.405 . S
C389 C390 1.369 1_545 S
C390 H375 0.930 1_556 S
C390 C385 1.390 . S
C390 C389 1.369 1_565 S
H391 C403 0.930 . S
H392 C405 0.930 . S
H393 C406 0.930 . S
H394 C410 0.959 . S
H395 C410 0.959 . S
H396 C410 0.961 . S
H397 C411 0.960 . S
H398 C411 0.961 . S
H399 C411 0.959 . S
H400 C414 0.929 . S
H401 C415 0.931 . S
H402 C417 0.930 . S
C403 H391 0.930 . S
C403 C404 1.399 . S
C403 C408 1.399 . S
C404 C403 1.399 . S
C404 C405 1.376 . S
C405 H392 0.930 . S
C405 C404 1.376 . S
C405 C406 1.388 . S
C406 H393 0.930 . S
C406 C405 1.388 . S
C406 C407 1.390 . S
C407 C406 1.390 . S
C407 C408 1.394 . S
C407 C413 1.465 . S
C408 C403 1.399 . S
C408 C407 1.394 . S
C408 C409 1.516 . S
C409 C408 1.516 . S
C409 C410 1.502 . S
C409 C411 1.561 . S
C409 C412 1.526 . S
C410 H394 0.959 . S
C410 H395 0.959 . S
C410 H396 0.961 . S
C410 C409 1.502 . S
C411 H397 0.960 . S
C411 H398 0.961 . S
C411 H399 0.959 . S
C411 C409 1.561 . S
C412 C409 1.526 . S
C412 C413 1.396 . S
C412 C417 1.390 . S
C413 C407 1.465 . S
C413 C412 1.396 . S
C413 C414 1.399 . S
C414 H400 0.929 . S
C414 C413 1.399 . S
C414 C415 1.385 . S
C415 H401 0.931 . S
C415 C414 1.385 . S
C415 C416 1.389 . S
C416 C415 1.389 . S
C416 C417 1.387 . S
C417 H402 0.930 . S
C417 C412 1.390 . S
C417 C416 1.387 . S
H418 C430 0.930 1_554 S
H419 C432 0.930 . S
H420 C433 0.930 . S
H421 C437 0.959 . S
H422 C437 0.959 1_554 S
H423 C437 0.961 1_554 S
H424 C438 0.960 . S
H425 C438 0.961 . S
H426 C438 0.959 . S
H427 C441 0.929 . S
H428 C442 0.931 . S
H429 C444 0.930 . S
C430 H418 0.930 1_556 S
C430 C431 1.399 . S
C430 C435 1.399 . S
C431 C430 1.399 . S
C431 C432 1.376 . S
C432 H419 0.930 . S
C432 C431 1.376 . S
C432 C433 1.388 . S
C433 H420 0.930 . S
C433 C432 1.388 . S
C433 C434 1.390 . S
C434 C433 1.390 . S
C434 C435 1.394 . S
C434 C440 1.465 . S
C435 C430 1.399 . S
C435 C434 1.394 . S
C435 C436 1.516 . S
C436 C435 1.516 . S
C436 C437 1.502 . S
C436 C438 1.561 1_556 S
C436 C439 1.526 . S
C437 H421 0.959 . S
C437 H422 0.959 1_556 S
C437 H423 0.961 1_556 S
C437 C436 1.502 . S
C438 H424 0.960 . S
C438 H425 0.961 . S
C438 H426 0.959 . S
C438 C436 1.561 1_554 S
C439 C436 1.526 . S
C439 C440 1.396 . S
C439 C444 1.390 . S
C440 C434 1.465 . S
C440 C439 1.396 . S
C440 C441 1.399 . S
C441 H427 0.929 . S
C441 C440 1.399 . S
C441 C442 1.385 . S
C442 H428 0.931 . S
C442 C441 1.385 . S
C442 C443 1.389 . S
C443 C442 1.389 . S
C443 C444 1.387 . S
C444 H429 0.930 . S
C444 C439 1.390 . S
C444 C443 1.387 . S
H445 C457 0.930 . S
H446 C459 0.930 . S
H447 C460 0.930 . S
H448 C464 0.959 . S
H449 C464 0.959 . S
H450 C464 0.961 . S
H451 C465 0.960 . S
H452 C465 0.961 . S
H453 C465 0.959 . S
H454 C468 0.929 . S
H455 C469 0.931 . S
H456 C471 0.930 . S
C457 H445 0.930 . S
C457 C458 1.397 1_656 S
C457 C462 1.399 1_655 S
C458 C457 1.397 1_454 S
C458 C459 1.387 . S
C459 H446 0.930 . S
C459 C458 1.387 . S
C459 C460 1.388 . S
C460 H447 0.930 . S
C460 C459 1.388 . S
C460 C461 1.390 . S
C461 C460 1.390 . S
C461 C462 1.394 1_554 S
C461 C467 1.465 . S
C462 C457 1.399 1_455 S
C462 C461 1.394 1_556 S
C462 C463 1.516 . S
C463 C462 1.516 . S
C463 C464 1.502 1_455 S
C463 C465 1.561 . S
C463 C466 1.526 . S
C464 H448 0.959 . S
C464 H449 0.959 . S
C464 H450 0.961 . S
C464 C463 1.502 1_655 S
C465 H451 0.960 . S
C465 H452 0.961 . S
C465 H453 0.959 . S
C465 C463 1.561 . S
C466 C463 1.526 . S
C466 C467 1.396 1_556 S
C466 C471 1.390 . S
C467 C461 1.465 . S
C467 C466 1.396 1_554 S
C467 C468 1.399 . S
C468 H454 0.929 . S
C468 C467 1.399 . S
C468 C469 1.385 . S
C469 H455 0.931 . S
C469 C468 1.385 . S
C469 C470 1.389 1_554 S
C470 C469 1.389 1_556 S
C470 C471 1.387 . S
C471 H456 0.930 . S
C471 C466 1.390 . S
C471 C470 1.387 . S
H472 C484 0.930 . S
H473 C486 0.930 . S
H474 C487 0.930 . S
H475 C491 0.959 . S
H476 C491 0.959 . S
H477 C491 0.961 . S
H478 C492 0.960 . S
H479 C492 0.961 . S
H480 C492 0.959 . S
H481 C495 0.929 . S
H482 C496 0.931 . S
H483 C498 0.930 . S
C484 H472 0.930 . S
C484 C485 1.399 . S
C484 C489 1.399 . S
C485 C484 1.399 . S
C485 C486 1.376 . S
C486 H473 0.930 . S
C486 C485 1.376 . S
C486 C487 1.388 . S
C487 H474 0.930 . S
C487 C486 1.388 . S
C487 C488 1.390 . S
C488 C487 1.390 . S
C488 C489 1.394 . S
C488 C494 1.465 . S
C489 C484 1.399 . S
C489 C488 1.394 . S
C489 C490 1.516 . S
C490 C489 1.516 . S
C490 C491 1.502 . S
C490 C492 1.561 . S
C490 C493 1.526 . S
C491 H475 0.959 . S
C491 H476 0.959 . S
C491 H477 0.961 . S
C491 C490 1.502 . S
C492 H478 0.960 . S
C492 H479 0.961 . S
C492 H480 0.959 . S
C492 C490 1.561 . S
C493 C490 1.526 . S
C493 C494 1.396 . S
C493 C498 1.390 . S
C494 C488 1.465 . S
C494 C493 1.396 . S
C494 C495 1.399 . S
C495 H481 0.929 . S
C495 C494 1.399 . S
C495 C496 1.385 . S
C496 H482 0.931 . S
C496 C495 1.385 . S
C496 C497 1.389 . S
C497 C496 1.389 . S
C497 C498 1.387 . S
C498 H483 0.930 . S
C498 C493 1.390 . S
C498 C497 1.387 . S
H499 C511 0.930 . S
H500 C513 0.930 . S
H501 C514 0.930 . S
H502 C518 0.959 . S
H503 C518 0.959 . S
H504 C518 0.961 . S
H505 C519 0.960 . S
H506 C519 0.961 . S
H507 C519 0.959 . S
H508 C522 0.929 . S
H509 C523 0.931 . S
H510 C525 0.930 . S
C511 H499 0.930 . S
C511 C512 1.399 . S
C511 C516 1.399 . S
C512 C511 1.399 . S
C512 C513 1.376 . S
C513 H500 0.930 . S
C513 C512 1.376 . S
C513 C514 1.388 . S
C514 H501 0.930 . S
C514 C513 1.388 . S
C514 C515 1.390 . S
C515 C514 1.390 . S
C515 C516 1.394 . S
C515 C521 1.465 . S
C516 C511 1.399 . S
C516 C515 1.394 . S
C516 C517 1.516 . S
C517 C516 1.516 . S
C517 C518 1.502 . S
C517 C519 1.561 . S
C517 C520 1.526 . S
C518 H502 0.959 . S
C518 H503 0.959 . S
C518 H504 0.961 . S
C518 C517 1.502 . S
C519 H505 0.960 . S
C519 H506 0.961 . S
C519 H507 0.959 . S
C519 C517 1.561 . S
C520 C517 1.526 . S
C520 C521 1.396 . S
C520 C525 1.390 . S
C521 C515 1.465 . S
C521 C520 1.396 . S
C521 C522 1.399 . S
C522 H508 0.929 . S
C522 C521 1.399 . S
C522 C523 1.385 . S
C523 H509 0.931 . S
C523 C522 1.385 . S
C523 C524 1.389 . S
C524 C523 1.389 . S
C524 C525 1.387 . S
C525 H510 0.930 . S
C525 C520 1.390 . S
C525 C524 1.387 . S
H526 C538 0.930 . S
H527 C540 0.930 . S
H528 C541 0.930 . S
H529 C545 0.959 . S
H530 C545 0.959 . S
H531 C545 0.961 . S
H532 C546 0.960 . S
H533 C546 0.961 . S
H534 C546 0.959 . S
H535 C549 0.929 . S
H536 C550 0.931 . S
H537 C552 0.930 . S
C538 H526 0.930 . S
C538 C539 1.399 . S
C538 C543 1.399 . S
C539 C538 1.399 . S
C539 C540 1.376 . S
C540 H527 0.930 . S
C540 C539 1.376 . S
C540 C541 1.388 . S
C541 H528 0.930 . S
C541 C540 1.388 . S
C541 C542 1.390 . S
C542 C541 1.390 . S
C542 C543 1.394 . S
C542 C548 1.465 . S
C543 C538 1.399 . S
C543 C542 1.394 . S
C543 C544 1.516 . S
C544 C543 1.516 . S
C544 C545 1.502 . S
C544 C546 1.561 . S
C544 C547 1.526 . S
C545 H529 0.959 . S
C545 H530 0.959 . S
C545 H531 0.961 . S
C545 C544 1.502 . S
C546 H532 0.960 . S
C546 H533 0.961 . S
C546 H534 0.959 . S
C546 C544 1.561 . S
C547 C544 1.526 . S
C547 C548 1.396 . S
C547 C552 1.390 . S
C548 C542 1.465 . S
C548 C547 1.396 . S
C548 C549 1.399 . S
C549 H535 0.929 . S
C549 C548 1.399 . S
C549 C550 1.385 . S
C550 H536 0.931 . S
C550 C549 1.385 . S
C550 C551 1.389 . S
C551 C550 1.389 . S
C551 C552 1.387 . S
C552 H537 0.930 . S
C552 C547 1.390 . S
C552 C551 1.387 . S
H553 C565 0.930 . S
H554 C567 0.930 1_554 S
H555 C568 0.930 1_554 S
H556 C572 0.959 . S
H557 C572 0.959 . S
H558 C572 0.961 . S
H559 C573 0.960 . S
H560 C573 0.961 . S
H561 C573 0.959 . S
H562 C576 0.929 1_554 S
H563 C577 0.931 1_554 S
H564 C579 0.930 . S
C565 H553 0.930 . S
C565 C566 1.399 . S
C565 C570 1.399 . S
C566 C565 1.399 . S
C566 C567 1.376 . S
C567 H554 0.930 1_556 S
C567 C566 1.376 . S
C567 C568 1.388 . S
C568 H555 0.930 1_556 S
C568 C567 1.388 . S
C568 C569 1.390 . S
C569 C568 1.390 . S
C569 C570 1.394 . S
C569 C575 1.465 . S
C570 C565 1.399 . S
C570 C569 1.394 . S
C570 C571 1.516 . S
C571 C570 1.516 . S
C571 C572 1.502 . S
C571 C573 1.561 . S
C571 C574 1.526 . S
C572 H556 0.959 . S
C572 H557 0.959 . S
C572 H558 0.961 . S
C572 C571 1.502 . S
C573 H559 0.960 . S
C573 H560 0.961 . S
C573 H561 0.959 . S
C573 C571 1.561 . S
C574 C571 1.526 . S
C574 C575 1.396 . S
C574 C579 1.390 . S
C575 C569 1.465 . S
C575 C574 1.396 . S
C575 C576 1.399 . S
C576 H562 0.929 1_556 S
C576 C575 1.399 . S
C576 C577 1.385 . S
C577 H563 0.931 1_556 S
C577 C576 1.385 . S
C577 C578 1.389 . S
C578 C577 1.389 . S
C578 C579 1.387 . S
C579 H564 0.930 . S
C579 C574 1.390 . S
C579 C578 1.387 . S
H580 C592 0.930 . S
H581 C594 0.930 . S
H582 C595 0.930 . S
H583 C599 0.959 . S
H584 C599 0.959 . S
H585 C599 0.961 . S
H586 C600 0.962 . S
H587 C600 0.961 . S
H588 C600 0.959 . S
H589 C603 0.929 . S
H590 C604 0.931 . S
H591 C606 0.924 1_655 S
C592 H580 0.930 . S
C592 C593 1.399 . S
C592 C597 1.399 . S
C593 C592 1.399 . S
C593 C594 1.376 1_654 S
C594 H581 0.930 . S
C594 C593 1.376 1_456 S
C594 C595 1.388 . S
C595 H582 0.930 . S
C595 C594 1.388 . S
C595 C596 1.390 . S
C596 C595 1.390 . S
C596 C597 1.394 1_456 S
C596 C602 1.465 . S
C597 C592 1.399 . S
C597 C596 1.394 1_654 S
C597 C598 1.516 . S
C598 C597 1.516 . S
C598 C599 1.502 . S
C598 C600 1.561 1_655 S
C598 C601 1.526 1_655 S
C599 H583 0.959 . S
C599 H584 0.959 . S
C599 H585 0.961 . S
C599 C598 1.502 . S
C600 H586 0.962 . S
C600 H587 0.961 . S
C600 H588 0.959 . S
C600 C598 1.561 1_455 S
C601 C598 1.526 1_455 S
C601 C602 1.396 1_554 S
C601 C606 1.390 . S
C602 C596 1.465 . S
C602 C601 1.396 1_556 S
C602 C603 1.399 . S
C603 H589 0.929 . S
C603 C602 1.399 . S
C603 C604 1.385 . S
C604 H590 0.931 . S
C604 C603 1.385 . S
C604 C605 1.389 . S
C605 C604 1.389 . S
C605 C606 1.387 1_556 S
C606 H591 0.924 1_455 S
C606 C601 1.390 . S
C606 C605 1.387 1_554 S
H607 C619 0.930 . S
H608 C621 0.930 . S
H609 C622 0.930 . S
H610 C626 0.959 1_545 S
H611 C626 0.959 1_545 S
H612 C626 0.961 . S
H613 C627 0.960 . S
H614 C627 0.961 . S
H615 C627 0.959 . S
H616 C630 0.929 . S
H617 C631 0.923 1_545 S
H618 C633 0.930 1_545 S
C619 H607 0.930 . S
C619 C620 1.399 1_556 S
C619 C624 1.399 . S
C620 C619 1.399 1_554 S
C620 C621 1.376 . S
C621 H608 0.930 . S
C621 C620 1.376 . S
C621 C622 1.388 . S
C622 H609 0.930 . S
C622 C621 1.388 . S
C622 C623 1.390 . S
C623 C622 1.390 . S
C623 C624 1.394 1_554 S
C623 C629 1.465 . S
C624 C619 1.399 . S
C624 C623 1.394 1_556 S
C624 C625 1.516 . S
C625 C624 1.516 . S
C625 C626 1.502 . S
C625 C627 1.561 . S
C625 C628 1.526 . S
C626 H610 0.959 1_565 S
C626 H611 0.959 1_565 S
C626 H612 0.961 . S
C626 C625 1.502 . S
C627 H613 0.960 . S
C627 H614 0.961 . S
C627 H615 0.959 . S
C627 C625 1.561 . S
C628 C625 1.526 . S
C628 C629 1.396 1_556 S
C628 C633 1.390 . S
C629 C623 1.465 . S
C629 C628 1.396 1_554 S
C629 C630 1.399 . S
C630 H616 0.929 . S
C630 C629 1.399 . S
C630 C631 1.394 . S
C631 H617 0.923 1_565 S
C631 C630 1.394 . S
C631 C632 1.388 1_564 S
C632 C631 1.388 1_546 S
C632 C633 1.387 1_545 S
C633 H618 0.930 1_565 S
C633 C628 1.390 . S
C633 C632 1.387 1_565 S
H634 C646 0.930 . S
H635 C648 0.930 . S
H636 C649 0.930 . S
H637 C653 0.959 . S
H638 C653 0.959 . S
H639 C653 0.961 . S
H640 C654 0.960 . S
H641 C654 0.961 . S
H642 C654 0.959 . S
H643 C657 0.929 . S
H644 C658 0.931 . S
H645 C660 0.930 . S
C646 H634 0.930 . S
C646 C647 1.399 . S
C646 C651 1.399 . S
C647 C646 1.399 . S
C647 C648 1.376 . S
C648 H635 0.930 . S
C648 C647 1.376 . S
C648 C649 1.388 . S
C649 H636 0.930 . S
C649 C648 1.388 . S
C649 C650 1.390 . S
C650 C649 1.390 . S
C650 C651 1.394 . S
C650 C656 1.465 . S
C651 C646 1.399 . S
C651 C650 1.394 . S
C651 C652 1.516 . S
C652 C651 1.516 . S
C652 C653 1.502 . S
C652 C654 1.561 . S
C652 C655 1.526 . S
C653 H637 0.959 . S
C653 H638 0.959 . S
C653 H639 0.961 . S
C653 C652 1.502 . S
C654 H640 0.960 . S
C654 H641 0.961 . S
C654 H642 0.959 . S
C654 C652 1.561 . S
C655 C652 1.526 . S
C655 C656 1.396 . S
C655 C660 1.390 . S
C656 C650 1.465 . S
C656 C655 1.396 . S
C656 C657 1.399 . S
C657 H643 0.929 . S
C657 C656 1.399 . S
C657 C658 1.385 . S
C658 H644 0.931 . S
C658 C657 1.385 . S
C658 C659 1.389 . S
C659 C658 1.389 . S
C659 C660 1.387 . S
C660 H645 0.930 . S
C660 C655 1.390 . S
C660 C659 1.387 . S
H661 C673 0.930 1_554 S
H662 C675 0.930 . S
H663 C676 0.930 . S
H664 C680 0.959 . S
H665 C680 0.959 . S
H666 C680 0.961 . S
H667 C681 0.960 . S
H668 C681 0.961 . S
H669 C681 0.959 . S
H670 C684 0.929 . S
H671 C685 0.931 . S
H672 C687 0.930 1_554 S
C673 H661 0.930 1_556 S
C673 C674 1.399 . S
C673 C678 1.399 . S
C674 C673 1.399 . S
C674 C675 1.376 . S
C675 H662 0.930 . S
C675 C674 1.376 . S
C675 C676 1.388 . S
C676 H663 0.930 . S
C676 C675 1.388 . S
C676 C677 1.390 . S
C677 C676 1.390 . S
C677 C678 1.394 . S
C677 C683 1.465 . S
C678 C673 1.399 . S
C678 C677 1.394 . S
C678 C679 1.516 1_556 S
C679 C678 1.516 1_554 S
C679 C680 1.502 . S
C679 C681 1.561 . S
C679 C682 1.526 1_554 S
C680 H664 0.959 . S
C680 H665 0.959 . S
C680 H666 0.961 . S
C680 C679 1.502 . S
C681 H667 0.960 . S
C681 H668 0.961 . S
C681 H669 0.959 . S
C681 C679 1.561 . S
C682 C679 1.526 1_556 S
C682 C683 1.396 . S
C682 C687 1.390 . S
C683 C677 1.465 . S
C683 C682 1.396 . S
C683 C684 1.399 . S
C684 H670 0.929 . S
C684 C683 1.399 . S
C684 C685 1.385 . S
C685 H671 0.931 . S
C685 C684 1.385 . S
C685 C686 1.389 . S
C686 C685 1.389 . S
C686 C687 1.387 . S
C687 H672 0.930 1_556 S
C687 C682 1.390 . S
C687 C686 1.387 . S
H688 C700 0.930 . S
H689 C702 0.930 . S
H690 C703 0.930 . S
H691 C707 0.959 . S
H692 C707 0.959 . S
H693 C707 0.961 . S
H694 C708 0.960 . S
H695 C708 0.961 . S
H696 C708 0.959 . S
H697 C711 0.929 . S
H698 C712 0.931 . S
H699 C714 0.930 . S
C700 H688 0.930 . S
C700 C701 1.399 . S
C700 C705 1.399 . S
C701 C700 1.399 . S
C701 C702 1.376 . S
C702 H689 0.930 . S
C702 C701 1.376 . S
C702 C703 1.388 . S
C703 H690 0.930 . S
C703 C702 1.388 . S
C703 C704 1.390 . S
C704 C703 1.390 . S
C704 C705 1.394 . S
C704 C710 1.465 . S
C705 C700 1.399 . S
C705 C704 1.394 . S
C705 C706 1.516 . S
C706 C705 1.516 . S
C706 C707 1.502 . S
C706 C708 1.561 . S
C706 C709 1.526 . S
C707 H691 0.959 . S
C707 H692 0.959 . S
C707 H693 0.961 . S
C707 C706 1.502 . S
C708 H694 0.960 . S
C708 H695 0.961 . S
C708 H696 0.959 . S
C708 C706 1.561 . S
C709 C706 1.526 . S
C709 C710 1.396 . S
C709 C714 1.390 . S
C710 C704 1.465 . S
C710 C709 1.396 . S
C710 C711 1.399 . S
C711 H697 0.929 . S
C711 C710 1.399 . S
C711 C712 1.385 . S
C712 H698 0.931 . S
C712 C711 1.385 . S
C712 C713 1.389 . S
C713 C712 1.389 . S
C713 C714 1.387 . S
C714 H699 0.930 . S
C714 C709 1.390 . S
C714 C713 1.387 . S
H715 C727 0.930 . S
H716 C729 0.930 . S
H717 C730 0.930 . S
H718 C734 0.959 . S
H719 C734 0.959 . S
H720 C734 0.961 . S
H721 C735 0.960 . S
H722 C735 0.961 . S
H723 C735 0.959 . S
H724 C738 0.929 . S
H725 C739 0.931 . S
H726 C741 0.930 . S
C727 H715 0.930 . S
C727 C728 1.399 . S
C727 C732 1.399 . S
C728 C727 1.399 . S
C728 C729 1.376 . S
C729 H716 0.930 . S
C729 C728 1.376 . S
C729 C730 1.388 . S
C730 H717 0.930 . S
C730 C729 1.388 . S
C730 C731 1.390 . S
C731 C730 1.390 . S
C731 C732 1.394 . S
C731 C737 1.465 . S
C732 C727 1.399 . S
C732 C731 1.394 . S
C732 C733 1.516 . S
C733 C732 1.516 . S
C733 C734 1.502 . S
C733 C735 1.561 . S
C733 C736 1.526 . S
C734 H718 0.959 . S
C734 H719 0.959 . S
C734 H720 0.961 . S
C734 C733 1.502 . S
C735 H721 0.960 . S
C735 H722 0.961 . S
C735 H723 0.959 . S
C735 C733 1.561 . S
C736 C733 1.526 . S
C736 C737 1.396 . S
C736 C741 1.390 . S
C737 C731 1.465 . S
C737 C736 1.396 . S
C737 C738 1.399 . S
C738 H724 0.929 . S
C738 C737 1.399 . S
C738 C739 1.385 . S
C739 H725 0.931 . S
C739 C738 1.385 . S
C739 C740 1.389 . S
C740 C739 1.389 . S
C740 C741 1.387 . S
C741 H726 0.930 . S
C741 C736 1.390 . S
C741 C740 1.387 . S
H742 C754 0.930 . S
H743 C756 0.930 . S
H744 C757 0.930 . S
H745 C761 0.959 . S
H746 C761 0.959 . S
H747 C761 0.961 . S
H748 C762 0.960 . S
H749 C762 0.961 . S
H750 C762 0.959 . S
H751 C765 0.929 . S
H752 C766 0.931 . S
H753 C768 0.930 1_556 S
C754 H742 0.930 . S
C754 C755 1.399 . S
C754 C759 1.399 . S
C755 C754 1.399 . S
C755 C756 1.376 . S
C756 H743 0.930 . S
C756 C755 1.376 . S
C756 C757 1.388 . S
C757 H744 0.930 . S
C757 C756 1.388 . S
C757 C758 1.390 . S
C758 C757 1.390 . S
C758 C759 1.394 . S
C758 C764 1.465 . S
C759 C754 1.399 . S
C759 C758 1.394 . S
C759 C760 1.516 . S
C760 C759 1.516 . S
C760 C761 1.502 1_554 S
C760 C762 1.561 . S
C760 C763 1.526 . S
C761 H745 0.959 . S
C761 H746 0.959 . S
C761 H747 0.961 . S
C761 C760 1.502 1_556 S
C762 H748 0.960 . S
C762 H749 0.961 . S
C762 H750 0.959 . S
C762 C760 1.561 . S
C763 C760 1.526 . S
C763 C764 1.396 . S
C763 C768 1.390 . S
C764 C758 1.465 . S
C764 C763 1.396 . S
C764 C765 1.399 . S
C765 H751 0.929 . S
C765 C764 1.399 . S
C765 C766 1.385 . S
C766 H752 0.931 . S
C766 C765 1.385 . S
C766 C767 1.389 . S
C767 C766 1.389 . S
C767 C768 1.387 . S
C768 H753 0.930 1_554 S
C768 C763 1.390 . S
C768 C767 1.387 . S
H769 C781 0.930 . S
H770 C783 0.930 . S
H771 C784 0.930 . S
H772 C788 0.959 . S
H773 C788 0.959 . S
H774 C788 0.961 . S
H775 C789 0.960 . S
H776 C789 0.961 . S
H777 C789 0.959 . S
H778 C792 0.929 . S
H779 C793 0.931 . S
H780 C795 0.930 . S
C781 H769 0.930 . S
C781 C782 1.399 . S
C781 C786 1.399 . S
C782 C781 1.399 . S
C782 C783 1.376 . S
C783 H770 0.930 . S
C783 C782 1.376 . S
C783 C784 1.388 . S
C784 H771 0.930 . S
C784 C783 1.388 . S
C784 C785 1.390 . S
C785 C784 1.390 . S
C785 C786 1.394 . S
C785 C791 1.465 . S
C786 C781 1.399 . S
C786 C785 1.394 . S
C786 C787 1.516 . S
C787 C786 1.516 . S
C787 C788 1.502 . S
C787 C789 1.561 . S
C787 C790 1.526 . S
C788 H772 0.959 . S
C788 H773 0.959 . S
C788 H774 0.961 . S
C788 C787 1.502 . S
C789 H775 0.960 . S
C789 H776 0.961 . S
C789 H777 0.959 . S
C789 C787 1.561 . S
C790 C787 1.526 . S
C790 C791 1.396 . S
C790 C795 1.390 . S
C791 C785 1.465 . S
C791 C790 1.396 . S
C791 C792 1.399 . S
C792 H778 0.929 . S
C792 C791 1.399 . S
C792 C793 1.385 . S
C793 H779 0.931 . S
C793 C792 1.385 . S
C793 C794 1.389 . S
C794 C793 1.389 . S
C794 C795 1.387 . S
C795 H780 0.930 . S
C795 C790 1.390 . S
C795 C794 1.387 . S
H796 C808 0.930 . S
H797 C810 0.930 . S
H798 C811 0.930 . S
H799 C815 0.959 . S
H800 C815 0.959 . S
H801 C815 0.961 . S
H802 C816 0.960 . S
H803 C816 0.961 . S
H804 C816 0.959 . S
H805 C819 0.929 . S
H806 C820 0.931 . S
H807 C822 0.930 . S
C808 H796 0.930 . S
C808 C809 1.399 1_455 S
C808 C813 1.399 . S
C809 C808 1.399 1_655 S
C809 C810 1.376 . S
C810 H797 0.930 . S
C810 C809 1.376 . S
C810 C811 1.388 . S
C811 H798 0.930 . S
C811 C810 1.388 . S
C811 C812 1.390 . S
C812 C811 1.390 . S
C812 C813 1.394 1_655 S
C812 C818 1.465 . S
C813 C808 1.399 . S
C813 C812 1.394 1_455 S
C813 C814 1.516 . S
C814 C813 1.516 . S
C814 C815 1.502 . S
C814 C816 1.561 . S
C814 C817 1.526 . S
C815 H799 0.959 . S
C815 H800 0.959 . S
C815 H801 0.961 . S
C815 C814 1.502 . S
C816 H802 0.960 . S
C816 H803 0.961 . S
C816 H804 0.959 . S
C816 C814 1.561 . S
C817 C814 1.526 . S
C817 C818 1.396 1_455 S
C817 C822 1.390 . S
C818 C812 1.465 . S
C818 C817 1.396 1_655 S
C818 C819 1.399 . S
C819 H805 0.929 . S
C819 C818 1.399 . S
C819 C820 1.385 . S
C820 H806 0.931 . S
C820 C819 1.385 . S
C820 C821 1.389 . S
C821 C820 1.389 . S
C821 C822 1.387 1_655 S
C822 H807 0.930 . S
C822 C817 1.390 . S
C822 C821 1.387 1_455 S
H823 C835 0.930 . S
H824 C837 0.930 . S
H825 C838 0.930 . S
H826 C842 0.959 . S
H827 C842 0.959 . S
H828 C842 0.961 . S
H829 C843 0.960 . S
H830 C843 0.961 . S
H831 C843 0.959 . S
H832 C846 0.929 . S
H833 C847 0.931 . S
H834 C849 0.930 . S
C835 H823 0.930 . S
C835 C836 1.399 . S
C835 C840 1.399 . S
C836 C835 1.399 . S
C836 C837 1.376 . S
C837 H824 0.930 . S
C837 C836 1.376 . S
C837 C838 1.388 . S
C838 H825 0.930 . S
C838 C837 1.388 . S
C838 C839 1.390 . S
C839 C838 1.390 . S
C839 C840 1.394 . S
C839 C845 1.465 . S
C840 C835 1.399 . S
C840 C839 1.394 . S
C840 C841 1.516 . S
C841 C840 1.516 . S
C841 C842 1.502 . S
C841 C843 1.561 . S
C841 C844 1.526 . S
C842 H826 0.959 . S
C842 H827 0.959 . S
C842 H828 0.961 . S
C842 C841 1.502 . S
C843 H829 0.960 . S
C843 H830 0.961 . S
C843 H831 0.959 . S
C843 C841 1.561 . S
C844 C841 1.526 . S
C844 C845 1.396 . S
C844 C849 1.390 . S
C845 C839 1.465 . S
C845 C844 1.396 . S
C845 C846 1.399 . S
C846 H832 0.929 . S
C846 C845 1.399 . S
C846 C847 1.385 . S
C847 H833 0.931 . S
C847 C846 1.385 . S
C847 C848 1.389 . S
C848 C847 1.389 . S
C848 C849 1.387 . S
C849 H834 0.930 . S
C849 C844 1.390 . S
C849 C848 1.387 . S
H850 C862 0.930 . S
H851 C864 0.930 . S
H852 C865 0.930 . S
H853 C869 0.959 . S
H854 C869 0.959 . S
H855 C869 0.961 . S
H856 C870 0.960 . S
H857 C870 0.961 . S
H858 C870 0.959 . S
H859 C873 0.929 . S
H860 C874 0.931 . S
H861 C876 0.930 . S
C862 H850 0.930 . S
C862 C863 1.399 . S
C862 C867 1.399 . S
C863 C862 1.399 . S
C863 C864 1.376 . S
C864 H851 0.930 . S
C864 C863 1.376 . S
C864 C865 1.388 . S
C865 H852 0.930 . S
C865 C864 1.388 . S
C865 C866 1.390 . S
C866 C865 1.390 . S
C866 C867 1.394 . S
C866 C872 1.465 . S
C867 C862 1.399 . S
C867 C866 1.394 . S
C867 C868 1.516 . S
C868 C867 1.516 . S
C868 C869 1.502 . S
C868 C870 1.561 . S
C868 C871 1.526 . S
C869 H853 0.959 . S
C869 H854 0.959 . S
C869 H855 0.961 . S
C869 C868 1.502 . S
C870 H856 0.960 . S
C870 H857 0.961 . S
C870 H858 0.959 . S
C870 C868 1.561 . S
C871 C868 1.526 . S
C871 C872 1.396 . S
C871 C876 1.390 . S
C872 C866 1.465 . S
C872 C871 1.396 . S
C872 C873 1.399 . S
C873 H859 0.929 . S
C873 C872 1.399 . S
C873 C874 1.385 . S
C874 H860 0.931 . S
C874 C873 1.385 . S
C874 C875 1.389 . S
C875 C874 1.389 . S
C875 C876 1.387 . S
C876 H861 0.930 . S
C876 C871 1.390 . S
C876 C875 1.387 . S
H877 C889 0.930 . S
H878 C891 0.930 . S
H879 C892 0.930 . S
H880 C896 0.959 . S
H881 C896 0.959 . S
H882 C896 0.961 . S
H883 C897 0.960 . S
H884 C897 0.961 . S
H885 C897 0.959 . S
H886 C900 0.929 . S
H887 C901 0.931 . S
H888 C903 0.930 . S
C889 H877 0.930 . S
C889 C890 1.399 . S
C889 C894 1.399 . S
C890 C889 1.399 . S
C890 C891 1.376 . S
C891 H878 0.930 . S
C891 C890 1.376 . S
C891 C892 1.388 . S
C892 H879 0.930 . S
C892 C891 1.388 . S
C892 C893 1.390 . S
C893 C892 1.390 . S
C893 C894 1.394 . S
C893 C899 1.465 . S
C894 C889 1.399 . S
C894 C893 1.394 . S
C894 C895 1.516 . S
C895 C894 1.516 . S
C895 C896 1.502 . S
C895 C897 1.561 . S
C895 C898 1.526 . S
C896 H880 0.959 . S
C896 H881 0.959 . S
C896 H882 0.961 . S
C896 C895 1.502 . S
C897 H883 0.960 . S
C897 H884 0.961 . S
C897 H885 0.959 . S
C897 C895 1.561 . S
C898 C895 1.526 . S
C898 C899 1.396 . S
C898 C903 1.390 . S
C899 C893 1.465 . S
C899 C898 1.396 . S
C899 C900 1.399 . S
C900 H886 0.929 . S
C900 C899 1.399 . S
C900 C901 1.385 . S
C901 H887 0.931 . S
C901 C900 1.385 . S
C901 C902 1.389 . S
C902 C901 1.389 . S
C902 C903 1.387 . S
C903 H888 0.930 . S
C903 C898 1.390 . S
C903 C902 1.387 . S
C269 C76 1.642 . S
C281 C105 1.684 . S
C308 C145 1.346 . S
C296 C88 1.294 . S
C335 C194 1.355 . S
C323 C52 1.345 . S
C362 C225 1.697 . S
C350 C64 1.701 . S
C389 C114 1.682 . S
C377 C28 1.668 . S
C404 C40 1.374 . S
C416 C154 1.238 . S
C431 C4 1.368 . S
C443 C185 1.312 . S
C458 C16 1.734 1_455 S
C470 C234 1.623 . S
C497 C115 0.942 . S
C485 C69 0.979 . S
C524 C155 1.474 . S
C512 C81 1.391 . S
C551 C191 0.744 . S
C539 C93 0.750 . S
C566 C57 1.105 . S
C578 C235 1.129 . S
C593 C21 0.921 . S
C605 C106 0.941 . S
C632 C146 1.475 . S
C620 C33 1.278 . S
C659 C182 0.804 . S
C647 C45 0.795 . S
C674 C9 1.101 . S
C686 C226 1.135 . S
C701 C66 1.599 . S
C713 C111 1.655 . S
C728 C78 1.437 . S
C740 C151 1.440 . S
C767 C195 1.937 1_554 S
C755 C90 1.743 . S
C794 C231 1.396 . S
C782 C54 1.402 . S
C809 C18 1.602 . S
C821 C102 1.660 1_655 S
C848 C142 1.391 . S
C836 C30 1.397 . S
C875 C186 1.934 . S
C863 C42 1.752 . S
C890 C6 1.434 . S
C902 C222 1.442 . S
