# Generated by pormake.
# Topology pto, (3,4)-cn, num edge types: 1
# Building blocks:
#     Node 0, Type 0, BuildingBlock: MIDCAF_clean_linker_0, # of connection points: 3
#     Node 1, Type 0, BuildingBlock: MIDCAF_clean_linker_0, # of connection points: 3
#     Node 2, Type 0, BuildingBlock: MIDCAF_clean_linker_0, # of connection points: 3
#     Node 3, Type 0, BuildingBlock: MIDCAF_clean_linker_0, # of connection points: 3
#     Node 4, Type 0, BuildingBlock: MIDCAF_clean_linker_0, # of connection points: 3
#     Node 5, Type 0, BuildingBlock: MIDCAF_clean_linker_0, # of connection points: 3
#     Node 6, Type 0, BuildingBlock: MIDCAF_clean_linker_0, # of connection points: 3
#     Node 7, Type 0, BuildingBlock: MIDCAF_clean_linker_0, # of connection points: 3
#     Node 8, Type 1, BuildingBlock: KOZSID_clean_sbu_0, # of connection points: 4
#     Node 9, Type 1, BuildingBlock: KOZSID_clean_sbu_0, # of connection points: 4
#     Node 10, Type 1, BuildingBlock: KOZSID_clean_sbu_0, # of connection points: 4
#     Node 11, Type 1, BuildingBlock: KOZSID_clean_sbu_0, # of connection points: 4
#     Node 12, Type 1, BuildingBlock: KOZSID_clean_sbu_0, # of connection points: 4
#     Node 13, Type 1, BuildingBlock: KOZSID_clean_sbu_0, # of connection points: 4
#     Edge 14, Type (0, 1), BuildingBlock: OJICUG_clean_linker_0, # of connection points: 2
#     Edge 15, Type (0, 1), BuildingBlock: OJICUG_clean_linker_0, # of connection points: 2
#     Edge 16, Type (0, 1), BuildingBlock: OJICUG_clean_linker_0, # of connection points: 2
#     Edge 17, Type (0, 1), BuildingBlock: OJICUG_clean_linker_0, # of connection points: 2
#     Edge 18, Type (0, 1), BuildingBlock: OJICUG_clean_linker_0, # of connection points: 2
#     Edge 19, Type (0, 1), BuildingBlock: OJICUG_clean_linker_0, # of connection points: 2
#     Edge 20, Type (0, 1), BuildingBlock: OJICUG_clean_linker_0, # of connection points: 2
#     Edge 21, Type (0, 1), BuildingBlock: OJICUG_clean_linker_0, # of connection points: 2
#     Edge 22, Type (0, 1), BuildingBlock: OJICUG_clean_linker_0, # of connection points: 2
#     Edge 23, Type (0, 1), BuildingBlock: OJICUG_clean_linker_0, # of connection points: 2
#     Edge 24, Type (0, 1), BuildingBlock: OJICUG_clean_linker_0, # of connection points: 2
#     Edge 25, Type (0, 1), BuildingBlock: OJICUG_clean_linker_0, # of connection points: 2
#     Edge 26, Type (0, 1), BuildingBlock: OJICUG_clean_linker_0, # of connection points: 2
#     Edge 27, Type (0, 1), BuildingBlock: OJICUG_clean_linker_0, # of connection points: 2
#     Edge 28, Type (0, 1), BuildingBlock: OJICUG_clean_linker_0, # of connection points: 2
#     Edge 29, Type (0, 1), BuildingBlock: OJICUG_clean_linker_0, # of connection points: 2
#     Edge 30, Type (0, 1), BuildingBlock: OJICUG_clean_linker_0, # of connection points: 2
#     Edge 31, Type (0, 1), BuildingBlock: OJICUG_clean_linker_0, # of connection points: 2
#     Edge 32, Type (0, 1), BuildingBlock: OJICUG_clean_linker_0, # of connection points: 2
#     Edge 33, Type (0, 1), BuildingBlock: OJICUG_clean_linker_0, # of connection points: 2
#     Edge 34, Type (0, 1), BuildingBlock: OJICUG_clean_linker_0, # of connection points: 2
#     Edge 35, Type (0, 1), BuildingBlock: OJICUG_clean_linker_0, # of connection points: 2
#     Edge 36, Type (0, 1), BuildingBlock: OJICUG_clean_linker_0, # of connection points: 2
#     Edge 37, Type (0, 1), BuildingBlock: OJICUG_clean_linker_0, # of connection points: 2
# Relax obj value: 0.000
# Max RMSD: 0.028
# Mean RMSD: 0.012
data_MOF--net-pto--node1-KOZSID_clean_sbu_0--node2-MIDCAF_clean_linker_0--edge1-OJICUG_clean_linker_0
_symmetry_space_group_name_H-M    P1
_symmetry_Int_Tables_number       1
_symmetry_cell_setting            triclinic
loop_
_symmetry_equiv_pos_as_xyz
'x, y, z'
_cell_length_a     36.940293
_cell_length_b     49.901212
_cell_length_c     43.512563
_cell_angle_alpha  86.908172
_cell_angle_beta   86.801137
_cell_angle_gamma 93.461509
loop_
_atom_site_label
_atom_site_type_symbol
_atom_site_fract_x
_atom_site_fract_y
_atom_site_fract_z
_atom_type_partial_charge
C0 C 0.34666 0.23739 0.21599 0.0
C1 C 0.36395 0.26167 0.20342 0.0
C2 C 0.3588 0.28545 0.21847 0.0
C3 C 0.33646 0.28501 0.24551 0.0
H4 H 0.25432 0.32879 0.28617 0.0
H5 H 0.2214 0.36783 0.29812 0.0
H6 H 0.18968 0.3316 0.38886 0.0
H7 H 0.22175 0.29191 0.37647 0.0
H8 H 0.23043 0.22899 0.38784 0.0
H9 H 0.22169 0.18781 0.42081 0.0
H10 H 0.28563 0.1463 0.35457 0.0
H11 H 0.29397 0.18722 0.32131 0.0
H12 H 0.31202 0.21781 0.25261 0.0
H13 H 0.35043 0.21878 0.20485 0.0
H14 H 0.37177 0.30443 0.20911 0.0
H15 H 0.33291 0.30369 0.25655 0.0
N16 N 0.2804 0.28278 0.29564 0.0
N17 N 0.25334 0.25945 0.3401 0.0
N18 N 0.29014 0.2372 0.30535 0.0
C19 C 0.25885 0.28257 0.32201 0.0
C20 C 0.26892 0.23667 0.33195 0.0
C21 C 0.29612 0.2602 0.28717 0.0
C22 C 0.24059 0.30707 0.33028 0.0
C23 C 0.24058 0.32913 0.30878 0.0
C24 C 0.22185 0.3517 0.31574 0.0
C25 C 0.20288 0.35297 0.34452 0.0
C26 C 0.20355 0.33116 0.36632 0.0
C27 C 0.2221 0.30844 0.35925 0.0
C28 C 0.26299 0.21153 0.35187 0.0
C29 C 0.24255 0.21109 0.38019 0.0
C30 C 0.23766 0.18751 0.3992 0.0
C31 C 0.25299 0.1638 0.39032 0.0
C32 C 0.27308 0.16414 0.3619 0.0
C33 C 0.27806 0.18771 0.34292 0.0
C34 C 0.31943 0.26068 0.25835 0.0
C35 C 0.32489 0.23685 0.24337 0.0
C36 C 0.19418 0.6756 0.74252 0.0
C37 C 0.17145 0.67428 0.71773 0.0
C38 C 0.16898 0.69745 0.69828 0.0
C39 C 0.18855 0.72145 0.70369 0.0
H40 H 0.20823 0.80037 0.67091 0.0
H41 H 0.20375 0.84104 0.6381 0.0
H42 H 0.27147 0.88575 0.69776 0.0
H43 H 0.27562 0.84535 0.73086 0.0
H44 H 0.3037 0.81678 0.79012 0.0
H45 H 0.34292 0.81768 0.83336 0.0
H46 H 0.33083 0.73104 0.84459 0.0
H47 H 0.29186 0.72996 0.80131 0.0
H48 H 0.23065 0.69976 0.76746 0.0
H49 H 0.19629 0.65825 0.75824 0.0
H50 H 0.15202 0.69702 0.67878 0.0
H51 H 0.18587 0.73892 0.6883 0.0
N52 N 0.22776 0.77118 0.71719 0.0
N53 N 0.26723 0.79521 0.74768 0.0
N54 N 0.25279 0.74931 0.75927 0.0
C55 C 0.24576 0.79469 0.72333 0.0
C56 C 0.27093 0.77261 0.76574 0.0
C57 C 0.2311 0.74839 0.7351 0.0
C58 C 0.24235 0.81948 0.70357 0.0
C59 C 0.22208 0.81886 0.67716 0.0
C60 C 0.21964 0.84215 0.65823 0.0
C61 C 0.23727 0.8666 0.66532 0.0
C62 C 0.25719 0.8673 0.69187 0.0
C63 C 0.25975 0.84403 0.71074 0.0
C64 C 0.29459 0.77329 0.79215 0.0
C65 C 0.30938 0.79789 0.80175 0.0
C66 C 0.33169 0.79845 0.82665 0.0
C67 C 0.33995 0.77444 0.84231 0.0
C68 C 0.32524 0.74986 0.83274 0.0
C69 C 0.30272 0.74929 0.80802 0.0
C70 C 0.21101 0.72283 0.7287 0.0
C71 C 0.21373 0.69954 0.74792 0.0
C72 C 0.72309 0.75806 0.21051 0.0
C73 C 0.69235 0.77345 0.21141 0.0
C74 C 0.68528 0.78824 0.23753 0.0
C75 C 0.70836 0.78774 0.26191 0.0
H76 H 0.77328 0.84327 0.31402 0.0
H77 H 0.77944 0.88186 0.34548 0.0
H78 H 0.8215 0.83184 0.41771 0.0
H79 H 0.81664 0.79339 0.38567 0.0
H80 H 0.86704 0.74255 0.34406 0.0
H81 H 0.8996 0.70199 0.35216 0.0
H82 H 0.811 0.65507 0.31594 0.0
H83 H 0.77972 0.69586 0.30623 0.0
H84 H 0.76899 0.74498 0.2338 0.0
H85 H 0.73011 0.74692 0.1906 0.0
H86 H 0.66157 0.79989 0.2395 0.0
H87 H 0.70209 0.79924 0.28173 0.0
N88 N 0.7672 0.79237 0.30462 0.0
N89 N 0.80702 0.76887 0.33472 0.0
N90 N 0.78003 0.74834 0.29366 0.0
C91 C 0.78951 0.79157 0.32841 0.0
C92 C 0.80224 0.74716 0.31746 0.0
C93 C 0.76247 0.77087 0.28711 0.0
C94 C 0.79429 0.81518 0.34737 0.0
C95 C 0.78395 0.84048 0.33658 0.0
C96 C 0.78732 0.86263 0.35472 0.0
C97 C 0.8007 0.86 0.38429 0.0
C98 C 0.81154 0.83475 0.39491 0.0
C99 C 0.80856 0.81262 0.37659 0.0
C100 C 0.82102 0.7224 0.32427 0.0
C101 C 0.85456 0.72352 0.33794 0.0
C102 C 0.8731 0.70017 0.34276 0.0
C103 C 0.85814 0.67508 0.33458 0.0
C104 C 0.82394 0.67401 0.32181 0.0
C105 C 0.80582 0.6974 0.31641 0.0
C106 C 0.73854 0.77196 0.26109 0.0
C107 C 0.74563 0.75707 0.23521 0.0
C108 C 0.80516 0.20598 0.67198 0.0
C109 C 0.79245 0.18048 0.68492 0.0
C110 C 0.77616 0.17852 0.71504 0.0
C111 C 0.77219 0.20152 0.73158 0.0
H112 H 0.70301 0.23246 0.79927 0.0
H113 H 0.66555 0.22997 0.84749 0.0
H114 H 0.71026 0.30845 0.86814 0.0
H115 H 0.74775 0.31108 0.82008 0.0
H116 H 0.76888 0.34795 0.73616 0.0
H117 H 0.804 0.38995 0.72121 0.0
H118 H 0.90132 0.34603 0.71156 0.0
H119 H 0.86518 0.30417 0.72361 0.0
H120 H 0.81127 0.24824 0.67773 0.0
H121 H 0.81723 0.20838 0.64867 0.0
H122 H 0.76659 0.15918 0.72594 0.0
H123 H 0.7594 0.19925 0.75467 0.0
N124 N 0.75705 0.2507 0.76139 0.0
N125 N 0.77045 0.29672 0.76663 0.0
N126 N 0.79836 0.27509 0.72591 0.0
C127 C 0.75223 0.27321 0.77702 0.0
C128 C 0.79353 0.29774 0.74115 0.0
C129 C 0.77995 0.25151 0.73573 0.0
C130 C 0.72847 0.27196 0.80575 0.0
C131 C 0.70484 0.24923 0.81402 0.0
C132 C 0.68325 0.24783 0.84158 0.0
C133 C 0.68513 0.26897 0.8616 0.0
C134 C 0.70857 0.29172 0.8533 0.0
C135 C 0.72986 0.29328 0.82563 0.0
C136 C 0.81445 0.32299 0.73101 0.0
C137 C 0.79775 0.34747 0.73039 0.0
C138 C 0.81809 0.37157 0.72209 0.0
C139 C 0.85592 0.37181 0.71537 0.0
C140 C 0.87231 0.34699 0.71577 0.0
C141 C 0.85169 0.32287 0.723 0.0
C142 C 0.78472 0.22701 0.71853 0.0
C143 C 0.80151 0.22892 0.68862 0.0
C144 C 0.67395 0.79359 0.83543 0.0
C145 C 0.67326 0.77205 0.85767 0.0
C146 C 0.69522 0.75057 0.85229 0.0
C147 C 0.71738 0.7506 0.8252 0.0
H148 H 0.78954 0.70643 0.78048 0.0
H149 H 0.82535 0.66806 0.7714 0.0
H150 H 0.85812 0.70147 0.67981 0.0
H151 H 0.82213 0.7402 0.68872 0.0
H152 H 0.80674 0.80244 0.67269 0.0
H153 H 0.81594 0.84373 0.63975 0.0
H154 H 0.75159 0.88527 0.70564 0.0
H155 H 0.74261 0.84434 0.73872 0.0
H156 H 0.69621 0.81071 0.79186 0.0
H157 H 0.65757 0.81055 0.83911 0.0
H158 H 0.69496 0.73357 0.86888 0.0
H159 H 0.73393 0.73369 0.82182 0.0
N160 N 0.76035 0.75046 0.76769 0.0
N161 N 0.78662 0.77294 0.7224 0.0
N162 N 0.74649 0.79468 0.75493 0.0
C163 C 0.78256 0.75049 0.74173 0.0
C164 C 0.76868 0.79516 0.7289 0.0
C165 C 0.74212 0.77241 0.77441 0.0
C166 C 0.80309 0.72657 0.7354 0.0
C167 C 0.80414 0.70567 0.75829 0.0
C168 C 0.8248 0.68369 0.75319 0.0
C169 C 0.84468 0.68192 0.72501 0.0
C170 C 0.84291 0.70233 0.70172 0.0
C171 C 0.82247 0.72455 0.70692 0.0
C172 C 0.77393 0.81999 0.70842 0.0
C173 C 0.79454 0.82036 0.6802 0.0
C174 C 0.79972 0.84398 0.66124 0.0
C175 C 0.78461 0.86775 0.67018 0.0
C176 C 0.76401 0.86737 0.69833 0.0
C177 C 0.75866 0.84379 0.71718 0.0
C178 C 0.71825 0.77221 0.80297 0.0
C179 C 0.69627 0.79372 0.80843 0.0
C180 C 0.82289 0.18991 0.40299 0.0
C181 C 0.80256 0.16608 0.39757 0.0
C182 C 0.77965 0.16609 0.37285 0.0
C183 C 0.77661 0.1895 0.35432 0.0
H184 H 0.73174 0.21836 0.27544 0.0
H185 H 0.69389 0.21818 0.23146 0.0
H186 H 0.6989 0.30507 0.22682 0.0
H187 H 0.73766 0.30531 0.27018 0.0
H188 H 0.7814 0.33562 0.33186 0.0
H189 H 0.81635 0.3772 0.34036 0.0
H190 H 0.91275 0.33263 0.34874 0.0
H191 H 0.87669 0.29105 0.34295 0.0
H192 H 0.83574 0.23136 0.38952 0.0
H193 H 0.84117 0.19046 0.42159 0.0
H194 H 0.76331 0.14815 0.36826 0.0
H195 H 0.75827 0.18881 0.33578 0.0
N196 N 0.76812 0.2389 0.31855 0.0
N197 N 0.78128 0.28518 0.30847 0.0
N198 N 0.81073 0.26192 0.34714 0.0
C199 C 0.76275 0.26203 0.30196 0.0
C200 C 0.80539 0.28521 0.33089 0.0
C201 C 0.79185 0.23868 0.34132 0.0
C202 C 0.73795 0.26186 0.27631 0.0
C203 C 0.72466 0.23745 0.26516 0.0
C204 C 0.70278 0.23733 0.23998 0.0
C205 C 0.69344 0.26161 0.22546 0.0
C206 C 0.70613 0.286 0.23703 0.0
C207 C 0.72821 0.28613 0.26207 0.0
C208 C 0.82642 0.31024 0.33681 0.0
C209 C 0.81002 0.33486 0.33586 0.0
C210 C 0.83027 0.35873 0.34044 0.0
C211 C 0.86775 0.35865 0.34503 0.0
C212 C 0.88394 0.33376 0.34602 0.0
C213 C 0.86337 0.30982 0.34244 0.0
C214 C 0.79645 0.2135 0.36006 0.0
C215 C 0.8199 0.21333 0.38445 0.0
C216 C 0.28329 0.18197 0.68949 0.0
C217 C 0.25231 0.17786 0.67249 0.0
C218 C 0.226 0.1971 0.67311 0.0
C219 C 0.23073 0.21996 0.68998 0.0
H220 H 0.1868 0.29534 0.71016 0.0
H221 H 0.15368 0.33533 0.70018 0.0
H222 H 0.24418 0.38479 0.72965 0.0
H223 H 0.27597 0.34458 0.74147 0.0
H224 H 0.28449 0.29621 0.81828 0.0
H225 H 0.32049 0.29387 0.86326 0.0
H226 H 0.39212 0.24141 0.81686 0.0
H227 H 0.35434 0.24241 0.77275 0.0
H228 H 0.31203 0.20721 0.71937 0.0
H229 H 0.30452 0.16793 0.68911 0.0
H230 H 0.20149 0.19441 0.66079 0.0
H231 H 0.2099 0.23434 0.68998 0.0
N232 N 0.24828 0.27028 0.71834 0.0
N233 N 0.27546 0.29226 0.7583 0.0
N234 N 0.28938 0.24818 0.74847 0.0
C235 C 0.25295 0.29253 0.73467 0.0
C236 C 0.29362 0.27011 0.76539 0.0
C237 C 0.2666 0.24808 0.725 0.0
C238 C 0.23373 0.31686 0.72692 0.0
C239 C 0.19953 0.31482 0.71442 0.0
C240 C 0.1807 0.33783 0.70845 0.0
C241 C 0.19603 0.36348 0.71421 0.0
C242 C 0.23095 0.36544 0.72567 0.0
C243 C 0.24934 0.34239 0.73231 0.0
C244 C 0.31666 0.26952 0.79204 0.0
C245 C 0.308 0.28423 0.81774 0.0
C246 C 0.32887 0.28298 0.8435 0.0
C247 C 0.35953 0.26753 0.8439 0.0
C248 C 0.36837 0.25309 0.81785 0.0
C249 C 0.34691 0.25382 0.79238 0.0
C250 C 0.26163 0.22394 0.70701 0.0
C251 C 0.28775 0.20463 0.70671 0.0
C252 C 0.2021 0.66696 0.31351 0.0
C253 C 0.17703 0.66448 0.33915 0.0
C254 C 0.17196 0.68699 0.3566 0.0
C255 C 0.19155 0.71147 0.34854 0.0
H256 H 0.19971 0.79416 0.36644 0.0
H257 H 0.19593 0.8326 0.39883 0.0
H258 H 0.29953 0.86581 0.35866 0.0
H259 H 0.30332 0.8277 0.32603 0.0
H260 H 0.32887 0.80698 0.26005 0.0
H261 H 0.36761 0.81112 0.21257 0.0
H262 H 0.3211 0.73496 0.18598 0.0
H263 H 0.28214 0.73077 0.23322 0.0
H264 H 0.24045 0.69249 0.28534 0.0
H265 H 0.20619 0.65011 0.29928 0.0
H266 H 0.15298 0.68564 0.3766 0.0
H267 H 0.18697 0.72841 0.36248 0.0
N268 N 0.23469 0.76122 0.33182 0.0
N269 N 0.27631 0.78691 0.29775 0.0
N270 N 0.25916 0.74247 0.2876 0.0
C271 C 0.25427 0.78477 0.32394 0.0
C272 C 0.27875 0.7659 0.27935 0.0
C273 C 0.23717 0.7399 0.31382 0.0
C274 C 0.25182 0.80788 0.34368 0.0
C275 C 0.22169 0.80965 0.36453 0.0
C276 C 0.21939 0.83168 0.38292 0.0
C277 C 0.24746 0.85206 0.38119 0.0
C278 C 0.27765 0.85024 0.36052 0.0
C279 C 0.27968 0.82849 0.34177 0.0
C280 C 0.30236 0.76851 0.25053 0.0
C281 C 0.32678 0.79112 0.24409 0.0
C282 C 0.34912 0.79346 0.21695 0.0
C283 C 0.34731 0.77339 0.19557 0.0
C284 C 0.32277 0.7509 0.20187 0.0
C285 C 0.30064 0.74843 0.22909 0.0
C286 C 0.21647 0.71398 0.32271 0.0
C287 C 0.22153 0.69139 0.30537 0.0
C288 C 0.07527 0.55082 0.38302 0.0
C289 C 0.08495 0.55856 0.41175 0.0
C290 C 0.06443 0.54227 0.43307 0.0
C291 C 0.0436 0.52554 0.41619 0.0
N292 N 0.04973 0.53002 0.38536 0.0
Co293 Co 0.02536 0.51039 0.35233 0.0
N294 N 0.99237 0.48846 0.38362 0.0
C295 C 0.99074 0.49049 0.41456 0.0
C296 C 0.96445 0.47357 0.43002 0.0
C297 C 0.9485 0.45969 0.40769 0.0
C298 C 0.96639 0.46875 0.37978 0.0
N299 N 0.00166 0.49026 0.31931 0.0
C300 C 0.97647 0.46917 0.32166 0.0
C301 C 0.97009 0.4595 0.29294 0.0
C302 C 0.9915 0.47519 0.27176 0.0
C303 C 0.01006 0.49326 0.28858 0.0
N304 N 0.05759 0.53294 0.32095 0.0
C305 C 0.05806 0.53191 0.28991 0.0
C306 C 0.0817 0.55075 0.27429 0.0
C307 C 0.09697 0.56499 0.29664 0.0
C308 C 0.08179 0.55382 0.32473 0.0
N309 N 0.06197 0.48284 0.35462 0.0
C310 C 0.11191 0.44238 0.35684 0.0
C311 C 0.10698 0.45699 0.32934 0.0
C312 C 0.08198 0.4768 0.32871 0.0
C313 C 0.09184 0.44851 0.38338 0.0
C314 C 0.06749 0.46889 0.38184 0.0
N315 N 0.98897 0.53797 0.35003 0.0
C316 C 0.9563 0.56944 0.31977 0.0
C317 C 0.94215 0.58054 0.34638 0.0
C318 C 0.95099 0.56923 0.3749 0.0
C319 C 0.97436 0.54826 0.37617 0.0
C320 C 0.97903 0.54818 0.32212 0.0
H321 H 0.9806 0.54096 0.39858 0.0
H322 H 0.98878 0.54068 0.30098 0.0
H323 H 0.07909 0.48665 0.30682 0.0
H324 H 0.05328 0.47283 0.40292 0.0
C325 C 0.01562 0.50741 0.42851 0.0
C326 C 0.09031 0.56437 0.35425 0.0
C327 C 0.95869 0.45723 0.3505 0.0
C328 C 0.03593 0.51296 0.27614 0.0
H329 H 0.10433 0.57466 0.41672 0.0
H330 H 0.06391 0.5431 0.4579 0.0
H331 H 0.95808 0.47126 0.45464 0.0
H332 H 0.92657 0.44429 0.4116 0.0
H333 H 0.95234 0.44256 0.28765 0.0
H334 H 0.99377 0.47332 0.24707 0.0
H335 H 0.08685 0.55398 0.2496 0.0
H336 H 0.11667 0.58193 0.29264 0.0
H337 H 0.12166 0.45266 0.3081 0.0
H338 H 0.09504 0.43774 0.40525 0.0
H339 H 0.95076 0.57748 0.29702 0.0
H340 H 0.94011 0.57652 0.39628 0.0
C341 C 0.06896 0.56237 0.73626 0.0
C342 C 0.07831 0.57069 0.76489 0.0
C343 C 0.05851 0.55424 0.78645 0.0
C344 C 0.03817 0.53699 0.76986 0.0
N345 N 0.04407 0.54115 0.73895 0.0
Co346 Co 0.01821 0.52196 0.70632 0.0
N347 N 0.98864 0.498 0.73817 0.0
C348 C 0.99128 0.49754 0.76912 0.0
C349 C 0.97008 0.47741 0.78499 0.0
C350 C 0.95288 0.46406 0.76295 0.0
C351 C 0.96417 0.47717 0.7347 0.0
N352 N 0.99145 0.50345 0.67378 0.0
C353 C 0.96473 0.48343 0.67646 0.0
C354 C 0.95212 0.47759 0.64793 0.0
C355 C 0.97215 0.49399 0.62645 0.0
C356 C 0.99545 0.5091 0.64298 0.0
N357 N 0.04875 0.54522 0.67449 0.0
C358 C 0.0484 0.54421 0.64351 0.0
C359 C 0.07254 0.56257 0.6276 0.0
C360 C 0.08921 0.57628 0.64973 0.0
C361 C 0.07404 0.56549 0.67794 0.0
N362 N 0.05536 0.49484 0.70514 0.0
C363 C 0.10579 0.45454 0.70455 0.0
C364 C 0.0929 0.46514 0.6771 0.0
C365 C 0.0678 0.48506 0.67793 0.0
C366 C 0.09326 0.46482 0.73214 0.0
C367 C 0.0687 0.48489 0.73187 0.0
N368 N 0.98117 0.54914 0.70762 0.0
C369 C 0.95102 0.58557 0.68303 0.0
C370 C 0.93407 0.5914 0.71121 0.0
C371 C 0.93972 0.57481 0.73717 0.0
C372 C 0.9632 0.55409 0.73491 0.0
C373 C 0.97405 0.56437 0.68173 0.0
H374 H 0.96675 0.54267 0.75574 0.0
H375 H 0.98633 0.56104 0.65963 0.0
H376 H 0.05868 0.49211 0.65631 0.0
H377 H 0.06062 0.49177 0.75372 0.0
C378 C 0.01388 0.51638 0.78264 0.0
C379 C 0.08363 0.57581 0.70727 0.0
C380 C 0.95105 0.46899 0.70528 0.0
C381 C 0.02265 0.52764 0.63013 0.0
H382 H 0.09719 0.58714 0.76972 0.0
H383 H 0.05873 0.55488 0.81126 0.0
H384 H 0.96773 0.47279 0.80965 0.0
H385 H 0.93441 0.44646 0.7674 0.0
H386 H 0.93089 0.46279 0.64307 0.0
H387 H 0.97028 0.49458 0.60168 0.0
H388 H 0.07672 0.56613 0.60286 0.0
H389 H 0.10968 0.59273 0.64561 0.0
H390 H 0.1021 0.45821 0.65502 0.0
H391 H 0.10166 0.45707 0.75418 0.0
H392 H 0.94748 0.59775 0.66218 0.0
H393 H 0.92633 0.57787 0.75937 0.0
C394 C 0.27162 0.97453 0.57252 0.0
C395 C 0.30452 0.96548 0.58133 0.0
C396 C 0.33112 0.98056 0.56412 0.0
C397 C 0.313 0.99784 0.54586 0.0
N398 N 0.27644 0.99505 0.55069 0.0
Co399 Co 0.2397 0.01469 0.52752 0.0
N400 N 0.27884 0.03682 0.50214 0.0
C401 C 0.31513 0.03629 0.50474 0.0
C402 C 0.3352 0.0548 0.48535 0.0
C403 C 0.31024 0.06831 0.46978 0.0
C404 C 0.27626 0.05716 0.48063 0.0
N405 N 0.20299 0.0332 0.50312 0.0
C406 C 0.2077 0.05295 0.48037 0.0
C407 C 0.17481 0.05988 0.46928 0.0
C408 C 0.14834 0.04407 0.48579 0.0
C409 C 0.16649 0.02843 0.50588 0.0
N410 N 0.20057 0.99373 0.55413 0.0
C411 C 0.16434 0.99608 0.55344 0.0
C412 C 0.14422 0.97927 0.57473 0.0
C413 C 0.16907 0.96524 0.58986 0.0
C414 C 0.20303 0.97433 0.57679 0.0
N415 N 0.2396 0.04323 0.55755 0.0
C416 C 0.24066 0.08564 0.5976 0.0
C417 C 0.20886 0.07764 0.58384 0.0
C418 C 0.20881 0.05634 0.5643 0.0
C419 C 0.2717 0.07178 0.59154 0.0
C420 C 0.27066 0.05093 0.57145 0.0
N421 N 0.23988 0.98612 0.49751 0.0
C422 C 0.20896 0.94932 0.47353 0.0
C423 C 0.24132 0.94308 0.45808 0.0
C424 C 0.27267 0.95934 0.46206 0.0
C425 C 0.2714 0.98042 0.4818 0.0
C426 C 0.20879 0.97088 0.49271 0.0
H427 H 0.29644 0.99161 0.48414 0.0
H428 H 0.18322 0.97455 0.50373 0.0
H429 H 0.1836 0.05101 0.55475 0.0
H430 H 0.2955 0.04164 0.56724 0.0
C431 C 0.32952 0.01754 0.52482 0.0
C432 C 0.23659 0.96278 0.58533 0.0
C433 C 0.24242 0.06682 0.46998 0.0
C434 C 0.14999 0.01174 0.53009 0.0
H435 H 0.30882 0.94954 0.59835 0.0
H436 H 0.36018 0.9791 0.56482 0.0
H437 H 0.36447 0.05808 0.48287 0.0
H438 H 0.31632 0.0846 0.45247 0.0
H439 H 0.17032 0.07534 0.45174 0.0
H440 H 0.11926 0.04471 0.48422 0.0
H441 H 0.11493 0.97673 0.57801 0.0
H442 H 0.16284 0.94954 0.60785 0.0
H443 H 0.18406 0.08771 0.58824 0.0
H444 H 0.29702 0.07749 0.60159 0.0
H445 H 0.18389 0.93732 0.47147 0.0
H446 H 0.29828 0.95591 0.45003 0.0
C447 C 0.4599 0.80179 0.07137 0.0
C448 C 0.45026 0.8269 0.08 0.0
C449 C 0.47252 0.84544 0.06277 0.0
C450 C 0.49431 0.83067 0.04464 0.0
N451 N 0.48701 0.80379 0.0489 0.0
Co452 Co 0.51321 0.77492 0.02832 0.0
N453 N 0.54598 0.80227 0.00299 0.0
C454 C 0.54558 0.82936 0.00322 0.0
C455 C 0.57047 0.84287 0.98254 0.0
C456 C 0.58742 0.82325 0.96779 0.0
C457 C 0.57172 0.79883 0.98038 0.0
N458 N 0.54024 0.74606 0.00851 0.0
C459 C 0.56721 0.748 0.98591 0.0
C460 C 0.57817 0.72286 0.97859 0.0
C461 C 0.55732 0.7044 0.99714 0.0
C462 C 0.53486 0.7192 0.01461 0.0
N463 N 0.47949 0.74756 0.05274 0.0
C464 C 0.47916 0.72049 0.05165 0.0
C465 C 0.45311 0.70691 0.07116 0.0
C466 C 0.43579 0.72643 0.08574 0.0
C467 C 0.45233 0.75093 0.07416 0.0
N468 N 0.47904 0.77509 0.99476 0.0
C469 C 0.43284 0.77529 0.94535 0.0
C470 C 0.44369 0.75118 0.95866 0.0
C471 C 0.46663 0.75154 0.98305 0.0
C472 C 0.44511 0.7993 0.95757 0.0
C473 C 0.4679 0.79873 0.98213 0.0
N474 N 0.54753 0.77474 0.06195 0.0
C475 C 0.57536 0.75116 0.10361 0.0
C476 C 0.5954 0.77455 0.11042 0.0
C477 C 0.59101 0.79804 0.09235 0.0
C478 C 0.56691 0.79775 0.06873 0.0
C479 C 0.55222 0.75163 0.07935 0.0
H480 H 0.5645 0.81646 0.05637 0.0
H481 H 0.53829 0.733 0.07533 0.0
H482 H 0.47411 0.73251 0.99194 0.0
H483 H 0.47646 0.8177 0.99028 0.0
C484 C 0.52147 0.84148 0.02315 0.0
C485 C 0.44281 0.7767 0.08557 0.0
C486 C 0.58167 0.77298 0.96959 0.0
C487 C 0.50588 0.7084 0.03426 0.0
H488 H 0.42943 0.83134 0.09714 0.0
H489 H 0.47289 0.86711 0.06346 0.0
H490 H 0.57544 0.8644 0.97846 0.0
H491 H 0.60869 0.82653 0.9496 0.0
H492 H 0.5984 0.71824 0.96105 0.0
H493 H 0.55751 0.68272 0.99702 0.0
H494 H 0.44814 0.68537 0.0751 0.0
H495 H 0.41412 0.7229 0.10352 0.0
H496 H 0.4344 0.73199 0.95045 0.0
H497 H 0.4378 0.81855 0.9479 0.0
H498 H 0.577 0.73245 0.11712 0.0
H499 H 0.60625 0.81667 0.0961 0.0
C500 C 0.83348 0.97889 0.58179 0.0
C501 C 0.86636 0.97026 0.59117 0.0
C502 C 0.893 0.98599 0.5748 0.0
C503 C 0.87493 0.00316 0.55637 0.0
N504 N 0.83833 0.99968 0.5603 0.0
Co505 Co 0.80163 0.01895 0.53662 0.0
N506 N 0.84085 0.04116 0.51141 0.0
C507 C 0.87712 0.04075 0.51415 0.0
C508 C 0.8972 0.05906 0.49453 0.0
C509 C 0.87228 0.07224 0.47853 0.0
C510 C 0.83832 0.06108 0.48935 0.0
N511 N 0.76492 0.03744 0.51217 0.0
C512 C 0.76972 0.05701 0.48923 0.0
C513 C 0.73688 0.06404 0.47812 0.0
C514 C 0.7103 0.04851 0.49482 0.0
C515 C 0.72835 0.03291 0.51503 0.0
N516 N 0.76237 0.99746 0.56254 0.0
C517 C 0.72608 0.99951 0.56161 0.0
C518 C 0.70598 0.98214 0.58232 0.0
C519 C 0.73087 0.96797 0.5972 0.0
C520 C 0.76484 0.9775 0.58452 0.0
N521 N 0.80069 0.04738 0.5669 0.0
C522 C 0.79939 0.08894 0.60841 0.0
C523 C 0.76774 0.0794 0.59537 0.0
C524 C 0.76896 0.05876 0.57504 0.0
C525 C 0.83169 0.07706 0.60051 0.0
C526 C 0.83174 0.05656 0.57985 0.0
N527 N 0.8025 0.99055 0.50643 0.0
C528 C 0.77085 0.95621 0.47919 0.0
C529 C 0.80342 0.949 0.46498 0.0
C530 C 0.83556 0.96312 0.4718 0.0
C531 C 0.8345 0.98361 0.49247 0.0
C532 C 0.77099 0.97691 0.49946 0.0
H533 H 0.85992 0.99347 0.49686 0.0
H534 H 0.74522 0.98133 0.50942 0.0
H535 H 0.74385 0.05261 0.56598 0.0
H536 H 0.8573 0.04858 0.57462 0.0
C537 C 0.8915 0.02261 0.535 0.0
C538 C 0.79845 0.96609 0.5931 0.0
C539 C 0.80453 0.07042 0.47829 0.0
C540 C 0.71168 0.01568 0.53872 0.0
H541 H 0.87064 0.95399 0.60779 0.0
H542 H 0.92207 0.98478 0.57585 0.0
H543 H 0.92647 0.0625 0.49224 0.0
H544 H 0.87834 0.08835 0.46099 0.0
H545 H 0.73254 0.07925 0.46025 0.0
H546 H 0.68124 0.0491 0.49308 0.0
H547 H 0.67669 0.9794 0.58542 0.0
H548 H 0.72473 0.95195 0.61484 0.0
H549 H 0.74207 0.08815 0.60026 0.0
H550 H 0.85691 0.08343 0.61028 0.0
H551 H 0.74521 0.94566 0.47517 0.0
H552 H 0.86149 0.9586 0.4611 0.0
C553 C 0.47121 0.28783 0.07674 0.0
C554 C 0.45805 0.31238 0.08384 0.0
C555 C 0.47893 0.3317 0.06651 0.0
C556 C 0.50331 0.31791 0.04967 0.0
N557 N 0.49905 0.29091 0.05496 0.0
Co558 Co 0.52766 0.26328 0.03446 0.0
N559 N 0.56103 0.29183 0.01159 0.0
C560 C 0.56066 0.31873 0.01413 0.0
C561 C 0.58637 0.3333 0.99518 0.0
C562 C 0.60404 0.31466 0.97934 0.0
C563 C 0.58804 0.28964 0.98964 0.0
N564 N 0.55536 0.23568 0.01297 0.0
C565 C 0.58206 0.23886 0.99016 0.0
C566 C 0.59277 0.21431 0.98057 0.0
C567 C 0.57149 0.1949 0.99739 0.0
C568 C 0.54918 0.20866 0.01625 0.0
N569 N 0.49528 0.23473 0.05837 0.0
C570 C 0.49734 0.20779 0.05749 0.0
C571 C 0.47366 0.19321 0.07822 0.0
C572 C 0.45566 0.21191 0.09365 0.0
C573 C 0.46919 0.23698 0.08113 0.0
N574 N 0.49424 0.26385 0.00022 0.0
C575 C 0.44882 0.26456 0.95005 0.0
C576 C 0.45264 0.24084 0.96792 0.0
C577 C 0.47553 0.24088 0.99244 0.0
C578 C 0.46803 0.28793 0.95806 0.0
C579 C 0.4899 0.2872 0.98315 0.0
N580 N 0.56102 0.26276 0.06866 0.0
C581 C 0.59527 0.23825 0.10538 0.0
C582 C 0.60567 0.26196 0.11907 0.0
C583 C 0.59378 0.28611 0.10686 0.0
C584 C 0.57158 0.28604 0.08194 0.0
C585 C 0.5733 0.23912 0.08028 0.0
H586 H 0.56298 0.30506 0.07407 0.0
H587 H 0.56645 0.22038 0.0708 0.0
H588 H 0.47771 0.22202 0.00465 0.0
H589 H 0.50327 0.30583 0.98801 0.0
C590 C 0.53273 0.32978 0.03126 0.0
C591 C 0.45744 0.26232 0.09234 0.0
C592 C 0.59738 0.26459 0.97625 0.0
C593 C 0.52226 0.19681 0.03726 0.0
H594 H 0.43616 0.31599 0.1004 0.0
H595 H 0.47731 0.35326 0.06691 0.0
H596 H 0.59055 0.35496 0.9921 0.0
H597 H 0.62531 0.31917 0.9614 0.0
H598 H 0.61352 0.21082 0.96292 0.0
H599 H 0.57193 0.17335 0.99581 0.0
H600 H 0.47042 0.17157 0.08211 0.0
H601 H 0.4354 0.20743 0.11242 0.0
H602 H 0.43795 0.22221 0.96324 0.0
H603 H 0.46683 0.30681 0.94481 0.0
H604 H 0.60427 0.21909 0.11383 0.0
H605 H 0.6009 0.30498 0.11689 0.0
C606 C 0.14692 0.37291 0.36689 0.0
C607 C 0.18125 0.37648 0.35096 0.0
H608 H 0.09813 0.39108 0.38137 0.0
C609 C 0.19373 0.4025 0.3395 0.0
H610 H 0.13621 0.35314 0.37574 0.0
C611 C 0.17168 0.42409 0.34238 0.0
C612 C 0.13685 0.42024 0.35715 0.0
H613 H 0.22035 0.40615 0.32777 0.0
H614 H 0.18163 0.44376 0.33258 0.0
C615 C 0.12502 0.39461 0.37009 0.0
C616 C 0.16465 0.6239 0.71714 0.0
C617 C 0.14965 0.64901 0.71289 0.0
H618 H 0.15525 0.58093 0.71849 0.0
C619 C 0.11319 0.64973 0.70523 0.0
H620 H 0.19277 0.62265 0.72261 0.0
C621 C 0.092 0.62589 0.70268 0.0
C622 C 0.1069 0.60099 0.70775 0.0
H623 H 0.10069 0.6687 0.70216 0.0
H624 H 0.06375 0.62683 0.69746 0.0
C625 C 0.14341 0.60008 0.71461 0.0
C626 C 0.90108 0.64673 0.36316 0.0
C627 C 0.8785 0.65031 0.33847 0.0
H628 H 0.93936 0.62256 0.38465 0.0
C629 C 0.87614 0.63023 0.31704 0.0
H630 H 0.90322 0.66146 0.38045 0.0
C631 C 0.89593 0.60736 0.32008 0.0
C632 C 0.91926 0.60412 0.34428 0.0
H633 H 0.85953 0.63231 0.29743 0.0
H634 H 0.89294 0.59228 0.30327 0.0
C635 C 0.92139 0.62407 0.36589 0.0
C636 C 0.86815 0.42121 0.72365 0.0
C637 C 0.8785 0.39773 0.70974 0.0
H638 H 0.88243 0.46234 0.73208 0.0
C639 C 0.91172 0.39897 0.69191 0.0
H640 H 0.84326 0.42131 0.73794 0.0
C641 C 0.93489 0.42227 0.68991 0.0
C642 C 0.92489 0.44516 0.70478 0.0
H643 H 0.92033 0.38182 0.67987 0.0
H644 H 0.96099 0.42224 0.67726 0.0
C645 C 0.89079 0.44476 0.72068 0.0
C646 C 0.24193 0.11368 0.39873 0.0
C647 C 0.24877 0.13894 0.41089 0.0
H648 H 0.23436 0.07093 0.4082 0.0
C649 C 0.25246 0.14023 0.4428 0.0
H650 H 0.23857 0.11205 0.37432 0.0
C651 C 0.24988 0.11677 0.46202 0.0
C652 C 0.24343 0.09168 0.44969 0.0
H653 H 0.25821 0.15932 0.45282 0.0
H654 H 0.25334 0.11813 0.48646 0.0
C655 C 0.23929 0.09023 0.41801 0.0
C656 C 0.35941 0.79339 0.89148 0.0
C657 C 0.36395 0.77494 0.86852 0.0
H658 H 0.37698 0.80761 0.93406 0.0
C659 C 0.39145 0.75682 0.87081 0.0
H660 H 0.33815 0.80739 0.89049 0.0
C661 C 0.41388 0.75706 0.89559 0.0
C662 C 0.40918 0.77533 0.91879 0.0
H663 H 0.39594 0.74264 0.85319 0.0
H664 H 0.43522 0.74313 0.89634 0.0
C665 C 0.38171 0.79354 0.9164 0.0
C666 C 0.83092 0.88737 0.42382 0.0
C667 C 0.80226 0.8833 0.40427 0.0
H668 H 0.85359 0.91094 0.45852 0.0
C669 C 0.77457 0.90145 0.40434 0.0
H670 H 0.85296 0.87402 0.42411 0.0
C671 C 0.77536 0.92296 0.42355 0.0
C672 C 0.80365 0.92677 0.4435 0.0
H673 H 0.75179 0.89881 0.38993 0.0
H674 H 0.75369 0.93661 0.42272 0.0
C675 C 0.83156 0.9088 0.44326 0.0
C676 C 0.67841 0.27438 0.91856 0.0
C677 C 0.66282 0.26732 0.89112 0.0
H678 H 0.66983 0.27859 0.96724 0.0
C679 C 0.62575 0.2589 0.89205 0.0
H680 H 0.70702 0.2806 0.91857 0.0
C681 C 0.60458 0.25799 0.91977 0.0
C682 C 0.62018 0.26529 0.94701 0.0
H683 H 0.61299 0.25351 0.87124 0.0
H684 H 0.57594 0.25179 0.91995 0.0
C685 C 0.6573 0.27318 0.94632 0.0
C686 C 0.23096 0.9163 0.65722 0.0
C687 C 0.23562 0.89119 0.64479 0.0
H688 H 0.22741 0.95875 0.64785 0.0
C689 C 0.23962 0.88983 0.61257 0.0
H690 H 0.22742 0.91795 0.68191 0.0
C691 C 0.23948 0.91311 0.59327 0.0
C692 C 0.23517 0.93806 0.60585 0.0
H693 H 0.24372 0.87087 0.60231 0.0
H694 H 0.24314 0.91174 0.56854 0.0
C695 C 0.23073 0.93956 0.63787 0.0
C696 C 0.64965 0.79705 0.17738 0.0
C697 C 0.66771 0.77386 0.18538 0.0
H698 H 0.61206 0.81526 0.14853 0.0
C699 C 0.66187 0.75099 0.16832 0.0
H700 H 0.65379 0.81525 0.18953 0.0
C701 C 0.63898 0.75136 0.14385 0.0
C702 C 0.62051 0.77441 0.13612 0.0
H703 H 0.67467 0.73255 0.17397 0.0
H704 H 0.63603 0.7335 0.13092 0.0
C705 C 0.62612 0.79723 0.15333 0.0
C706 C 0.82576 0.15347 0.64649 0.0
C707 C 0.79527 0.15621 0.66667 0.0
H708 H 0.85079 0.13051 0.61207 0.0
C709 C 0.76692 0.13597 0.66851 0.0
H710 H 0.84838 0.16843 0.64481 0.0
C711 C 0.76868 0.11387 0.65022 0.0
C712 C 0.79868 0.11154 0.62938 0.0
H713 H 0.74285 0.13747 0.68354 0.0
H714 H 0.74633 0.09869 0.6523 0.0
C715 C 0.82739 0.13148 0.62801 0.0
C716 C 0.37482 0.25077 0.14832 0.0
C717 C 0.38761 0.26215 0.17482 0.0
H718 H 0.38681 0.24258 0.10102 0.0
C719 C 0.42321 0.27388 0.17391 0.0
H720 H 0.34734 0.24185 0.14842 0.0
C721 C 0.44587 0.27381 0.14712 0.0
C722 C 0.4331 0.26236 0.1207 0.0
H723 H 0.43369 0.28268 0.1941 0.0
H724 H 0.47343 0.28259 0.147 0.0
C725 C 0.39727 0.25118 0.12134 0.0
C726 C 0.89137 0.65185 0.74364 0.0
C727 C 0.86815 0.65924 0.72063 0.0
H728 H 0.93097 0.62532 0.75832 0.0
C729 C 0.86728 0.64466 0.69392 0.0
H730 H 0.89307 0.66307 0.7642 0.0
C731 C 0.88868 0.62264 0.69068 0.0
C732 C 0.91157 0.61499 0.71398 0.0
H733 H 0.84944 0.64989 0.6759 0.0
H734 H 0.88673 0.61133 0.67022 0.0
C735 C 0.91295 0.63012 0.74029 0.0
C736 C 0.88088 0.40849 0.33265 0.0
C737 C 0.89006 0.38435 0.34782 0.0
H738 H 0.89474 0.45053 0.32249 0.0
C739 C 0.92137 0.38493 0.36495 0.0
H740 H 0.85753 0.40906 0.31875 0.0
C741 C 0.94352 0.40855 0.36578 0.0
C742 C 0.93439 0.43235 0.35031 0.0
H743 H 0.92901 0.36716 0.37774 0.0
H744 H 0.96794 0.40823 0.37845 0.0
C745 C 0.90246 0.43228 0.33436 0.0
C746 C 0.15022 0.38992 0.68649 0.0
C747 C 0.17502 0.38788 0.70981 0.0
H748 H 0.10858 0.4121 0.6668 0.0
C749 C 0.1785 0.40895 0.72987 0.0
H750 H 0.14724 0.37444 0.67016 0.0
C751 C 0.15725 0.43103 0.72721 0.0
C752 C 0.13121 0.43246 0.7049 0.0
H753 H 0.19687 0.40814 0.74838 0.0
H754 H 0.16091 0.4468 0.74311 0.0
C755 C 0.12841 0.41183 0.6842 0.0
C756 C 0.11782 0.63845 0.35404 0.0
C757 C 0.15543 0.63869 0.34675 0.0
H758 H 0.06769 0.61434 0.36222 0.0
C759 C 0.17183 0.61406 0.34483 0.0
H760 H 0.10436 0.65707 0.35542 0.0
C761 C 0.15083 0.58977 0.34873 0.0
C762 C 0.11316 0.58973 0.35458 0.0
H763 H 0.20081 0.6136 0.33969 0.0
H764 H 0.16376 0.57103 0.34612 0.0
C765 C 0.09683 0.61412 0.35787 0.0
C766 C 0.79776 0.91769 0.66299 0.0
C767 C 0.78986 0.89286 0.65016 0.0
H768 H 0.80692 0.96045 0.65466 0.0
C769 C 0.78602 0.89231 0.61822 0.0
H770 H 0.80127 0.9187 0.68746 0.0
C771 C 0.78931 0.91615 0.59963 0.0
C772 C 0.79675 0.94081 0.61264 0.0
H773 H 0.77956 0.87354 0.60774 0.0
H774 H 0.78564 0.91541 0.57515 0.0
C775 C 0.8012 0.94149 0.64434 0.0
C776 C 0.67867 0.28073 0.17334 0.0
C777 C 0.67101 0.26153 0.1981 0.0
H778 H 0.66428 0.29574 0.12893 0.0
C779 C 0.6419 0.24225 0.1964 0.0
H780 H 0.70131 0.29554 0.17356 0.0
C781 C 0.62094 0.24222 0.17063 0.0
C782 C 0.62845 0.26157 0.14608 0.0
H783 H 0.63488 0.22742 0.21521 0.0
H784 H 0.59837 0.22736 0.17019 0.0
C785 C 0.65755 0.28081 0.1477 0.0
C786 C 0.23207 0.15571 0.62517 0.0
C787 C 0.24783 0.15382 0.65387 0.0
H788 H 0.21732 0.13553 0.58501 0.0
C789 C 0.25997 0.12891 0.66431 0.0
H790 H 0.22298 0.17461 0.61609 0.0
C791 C 0.2573 0.1067 0.64618 0.0
C792 C 0.24191 0.10877 0.61746 0.0
H793 H 0.27151 0.12649 0.68655 0.0
H794 H 0.26716 0.08783 0.65467 0.0
C795 C 0.22892 0.13336 0.60727 0.0
C796 C 0.40855 0.78321 0.16815 0.0
C797 C 0.3714 0.77558 0.16702 0.0
H798 H 0.46031 0.78932 0.14296 0.0
C799 C 0.35763 0.76936 0.13858 0.0
H800 H 0.41996 0.78789 0.18977 0.0
C801 C 0.38068 0.77032 0.11192 0.0
C802 C 0.41786 0.77724 0.11336 0.0
H803 H 0.32904 0.76374 0.13697 0.0
H804 H 0.36967 0.76524 0.09027 0.0
C805 C 0.43161 0.78396 0.14152 0.0
C806 C 0.80495 0.11596 0.40593 0.0
C807 C 0.80441 0.14151 0.41814 0.0
H808 H 0.80558 0.07332 0.4157 0.0
C809 C 0.80472 0.14337 0.45028 0.0
H810 H 0.80515 0.11387 0.38128 0.0
C811 C 0.80516 0.12023 0.46976 0.0
C812 C 0.80531 0.09489 0.45744 0.0
H813 H 0.8038 0.16267 0.46045 0.0
H814 H 0.80493 0.12204 0.49448 0.0
C815 C 0.8054 0.09282 0.42547 0.0
C816 C 0.38645 0.28906 0.88923 0.0
C817 C 0.38212 0.26657 0.8713 0.0
H818 H 0.40914 0.30576 0.92847 0.0
C819 C 0.39958 0.24323 0.87984 0.0
H820 H 0.37405 0.3076 0.88328 0.0
C821 C 0.42118 0.24256 0.90522 0.0
C822 C 0.42536 0.26503 0.9232 0.0
H823 H 0.3965 0.22529 0.86707 0.0
H824 H 0.43494 0.22447 0.9104 0.0
C825 C 0.40733 0.28818 0.91498 0.0
C826 C 0.27499 0.88251 0.41846 0.0
C827 C 0.24553 0.87511 0.40106 0.0
H828 H 0.29634 0.90903 0.4508 0.0
C829 C 0.21448 0.88997 0.40256 0.0
H830 H 0.29906 0.87112 0.41797 0.0
C831 C 0.21312 0.91212 0.42085 0.0
C832 C 0.24261 0.91961 0.43839 0.0
H833 H 0.19154 0.88477 0.3891 0.0
H834 H 0.18916 0.92358 0.42084 0.0
C835 C 0.27345 0.90435 0.4371 0.0
C836 C 0.61372 0.77955 0.88538 0.0
C837 C 0.64972 0.77202 0.8864 0.0
H838 H 0.56388 0.78543 0.9112 0.0
C839 C 0.66313 0.76459 0.91506 0.0
H840 H 0.60256 0.78512 0.86361 0.0
C841 C 0.64101 0.76483 0.94215 0.0
C842 C 0.6051 0.77224 0.94094 0.0
H843 H 0.69089 0.75902 0.91658 0.0
H844 H 0.65191 0.75935 0.96406 0.0
C845 C 0.59158 0.77961 0.91244 0.0
loop_
_geom_bond_atom_site_label_1
_geom_bond_atom_site_label_2
_geom_bond_distance
_geom_bond_site_symmetry_2
_ccdc_geom_bond_type
C0 C1 1.384 . S
C0 H13 0.947 . S
C0 C35 1.382 . S
C1 C0 1.384 . S
C1 C2 1.378 . S
C2 C1 1.378 . S
C2 C3 1.378 . S
C2 H14 0.952 . S
C3 C2 1.378 . S
C3 H15 0.950 . S
C3 C34 1.383 . S
H4 C23 0.947 . S
H5 C24 0.946 . S
H6 C26 0.953 . S
H7 C27 0.945 . S
H8 C29 0.952 . S
H9 C30 0.949 . S
H10 C32 0.950 . S
H11 C33 0.948 . S
H12 C35 0.951 . S
H13 C0 0.947 . S
H14 C2 0.952 . S
H15 C3 0.950 . S
N16 C19 1.382 . S
N16 C21 1.363 . S
N17 C19 1.371 . S
N17 C20 1.372 . S
N18 C20 1.361 . S
N18 C21 1.377 . S
C19 N16 1.382 . S
C19 N17 1.371 . S
C19 C22 1.480 . S
C20 N17 1.372 . S
C20 N18 1.361 . S
C20 C28 1.457 . S
C21 N16 1.363 . S
C21 N18 1.377 . S
C21 C34 1.479 . S
C22 C19 1.480 . S
C22 C23 1.383 . S
C22 C27 1.385 . S
C23 H4 0.947 . S
C23 C22 1.383 . S
C23 C24 1.388 . S
C24 H5 0.946 . S
C24 C23 1.388 . S
C24 C25 1.384 . S
C25 C24 1.384 . S
C25 C26 1.377 . S
C26 H6 0.953 . S
C26 C25 1.377 . S
C26 C27 1.369 . S
C27 H7 0.945 . S
C27 C22 1.385 . S
C27 C26 1.369 . S
C28 C20 1.457 . S
C28 C29 1.372 . S
C28 C33 1.364 . S
C29 H8 0.952 . S
C29 C28 1.372 . S
C29 C30 1.389 . S
C30 H9 0.949 . S
C30 C29 1.389 . S
C30 C31 1.387 . S
C31 C30 1.387 . S
C31 C32 1.372 . S
C32 H10 0.950 . S
C32 C31 1.372 . S
C32 C33 1.379 . S
C33 H11 0.948 . S
C33 C28 1.364 . S
C33 C32 1.379 . S
C34 C3 1.383 . S
C34 C21 1.479 . S
C34 C35 1.398 . S
C35 C0 1.382 . S
C35 H12 0.951 . S
C35 C34 1.398 . S
C36 C37 1.384 . S
C36 H49 0.947 . S
C36 C71 1.382 . S
C37 C36 1.384 . S
C37 C38 1.378 . S
C38 C37 1.378 . S
C38 C39 1.378 . S
C38 H50 0.952 . S
C39 C38 1.378 . S
C39 H51 0.950 . S
C39 C70 1.383 . S
H40 C59 0.947 . S
H41 C60 0.946 . S
H42 C62 0.953 . S
H43 C63 0.945 . S
H44 C65 0.952 . S
H45 C66 0.949 . S
H46 C68 0.950 . S
H47 C69 0.948 . S
H48 C71 0.951 . S
H49 C36 0.947 . S
H50 C38 0.952 . S
H51 C39 0.950 . S
N52 C55 1.382 . S
N52 C57 1.363 . S
N53 C55 1.371 . S
N53 C56 1.372 . S
N54 C56 1.361 . S
N54 C57 1.377 . S
C55 N52 1.382 . S
C55 N53 1.371 . S
C55 C58 1.480 . S
C56 N53 1.372 . S
C56 N54 1.361 . S
C56 C64 1.457 . S
C57 N52 1.363 . S
C57 N54 1.377 . S
C57 C70 1.479 . S
C58 C55 1.480 . S
C58 C59 1.383 . S
C58 C63 1.385 . S
C59 H40 0.947 . S
C59 C58 1.383 . S
C59 C60 1.388 . S
C60 H41 0.946 . S
C60 C59 1.388 . S
C60 C61 1.384 . S
C61 C60 1.384 . S
C61 C62 1.377 . S
C62 H42 0.953 . S
C62 C61 1.377 . S
C62 C63 1.369 . S
C63 H43 0.945 . S
C63 C58 1.385 . S
C63 C62 1.369 . S
C64 C56 1.457 . S
C64 C65 1.372 . S
C64 C69 1.364 . S
C65 H44 0.952 . S
C65 C64 1.372 . S
C65 C66 1.389 . S
C66 H45 0.949 . S
C66 C65 1.389 . S
C66 C67 1.387 . S
C67 C66 1.387 . S
C67 C68 1.372 . S
C68 H46 0.950 . S
C68 C67 1.372 . S
C68 C69 1.379 . S
C69 H47 0.948 . S
C69 C64 1.364 . S
C69 C68 1.379 . S
C70 C39 1.383 . S
C70 C57 1.479 . S
C70 C71 1.398 . S
C71 C36 1.382 . S
C71 H48 0.951 . S
C71 C70 1.398 . S
C72 C73 1.384 . S
C72 H85 0.947 . S
C72 C107 1.382 . S
C73 C72 1.384 . S
C73 C74 1.378 . S
C74 C73 1.378 . S
C74 C75 1.378 . S
C74 H86 0.952 . S
C75 C74 1.378 . S
C75 H87 0.950 . S
C75 C106 1.383 . S
H76 C95 0.947 . S
H77 C96 0.946 . S
H78 C98 0.953 . S
H79 C99 0.945 . S
H80 C101 0.952 . S
H81 C102 0.949 . S
H82 C104 0.950 . S
H83 C105 0.948 . S
H84 C107 0.951 . S
H85 C72 0.947 . S
H86 C74 0.952 . S
H87 C75 0.950 . S
N88 C91 1.382 . S
N88 C93 1.363 . S
N89 C91 1.371 . S
N89 C92 1.372 . S
N90 C92 1.361 . S
N90 C93 1.377 . S
C91 N88 1.382 . S
C91 N89 1.371 . S
C91 C94 1.480 . S
C92 N89 1.372 . S
C92 N90 1.361 . S
C92 C100 1.457 . S
C93 N88 1.363 . S
C93 N90 1.377 . S
C93 C106 1.479 . S
C94 C91 1.480 . S
C94 C95 1.383 . S
C94 C99 1.385 . S
C95 H76 0.947 . S
C95 C94 1.383 . S
C95 C96 1.388 . S
C96 H77 0.946 . S
C96 C95 1.388 . S
C96 C97 1.384 . S
C97 C96 1.384 . S
C97 C98 1.377 . S
C98 H78 0.953 . S
C98 C97 1.377 . S
C98 C99 1.369 . S
C99 H79 0.945 . S
C99 C94 1.385 . S
C99 C98 1.369 . S
C100 C92 1.457 . S
C100 C101 1.372 . S
C100 C105 1.364 . S
C101 H80 0.952 . S
C101 C100 1.372 . S
C101 C102 1.389 . S
C102 H81 0.949 . S
C102 C101 1.389 . S
C102 C103 1.387 . S
C103 C102 1.387 . S
C103 C104 1.372 . S
C104 H82 0.950 . S
C104 C103 1.372 . S
C104 C105 1.379 . S
C105 H83 0.948 . S
C105 C100 1.364 . S
C105 C104 1.379 . S
C106 C75 1.383 . S
C106 C93 1.479 . S
C106 C107 1.398 . S
C107 C72 1.382 . S
C107 H84 0.951 . S
C107 C106 1.398 . S
C108 C109 1.384 . S
C108 H121 0.947 . S
C108 C143 1.382 . S
C109 C108 1.384 . S
C109 C110 1.378 . S
C110 C109 1.378 . S
C110 C111 1.378 . S
C110 H122 0.952 . S
C111 C110 1.378 . S
C111 H123 0.950 . S
C111 C142 1.383 . S
H112 C131 0.947 . S
H113 C132 0.946 . S
H114 C134 0.953 . S
H115 C135 0.945 . S
H116 C137 0.952 . S
H117 C138 0.949 . S
H118 C140 0.950 . S
H119 C141 0.948 . S
H120 C143 0.951 . S
H121 C108 0.947 . S
H122 C110 0.952 . S
H123 C111 0.950 . S
N124 C127 1.382 . S
N124 C129 1.363 . S
N125 C127 1.371 . S
N125 C128 1.372 . S
N126 C128 1.361 . S
N126 C129 1.377 . S
C127 N124 1.382 . S
C127 N125 1.371 . S
C127 C130 1.480 . S
C128 N125 1.372 . S
C128 N126 1.361 . S
C128 C136 1.457 . S
C129 N124 1.363 . S
C129 N126 1.377 . S
C129 C142 1.479 . S
C130 C127 1.480 . S
C130 C131 1.383 . S
C130 C135 1.385 . S
C131 H112 0.947 . S
C131 C130 1.383 . S
C131 C132 1.388 . S
C132 H113 0.946 . S
C132 C131 1.388 . S
C132 C133 1.384 . S
C133 C132 1.384 . S
C133 C134 1.377 . S
C134 H114 0.953 . S
C134 C133 1.377 . S
C134 C135 1.369 . S
C135 H115 0.945 . S
C135 C130 1.385 . S
C135 C134 1.369 . S
C136 C128 1.457 . S
C136 C137 1.372 . S
C136 C141 1.364 . S
C137 H116 0.952 . S
C137 C136 1.372 . S
C137 C138 1.389 . S
C138 H117 0.949 . S
C138 C137 1.389 . S
C138 C139 1.387 . S
C139 C138 1.387 . S
C139 C140 1.372 . S
C140 H118 0.950 . S
C140 C139 1.372 . S
C140 C141 1.379 . S
C141 H119 0.948 . S
C141 C136 1.364 . S
C141 C140 1.379 . S
C142 C111 1.383 . S
C142 C129 1.479 . S
C142 C143 1.398 . S
C143 C108 1.382 . S
C143 H120 0.951 . S
C143 C142 1.398 . S
C144 C145 1.384 . S
C144 H157 0.947 . S
C144 C179 1.382 . S
C145 C144 1.384 . S
C145 C146 1.378 . S
C146 C145 1.378 . S
C146 C147 1.378 . S
C146 H158 0.952 . S
C147 C146 1.378 . S
C147 H159 0.950 . S
C147 C178 1.383 . S
H148 C167 0.947 . S
H149 C168 0.946 . S
H150 C170 0.953 . S
H151 C171 0.945 . S
H152 C173 0.952 . S
H153 C174 0.949 . S
H154 C176 0.950 . S
H155 C177 0.948 . S
H156 C179 0.951 . S
H157 C144 0.947 . S
H158 C146 0.952 . S
H159 C147 0.950 . S
N160 C163 1.382 . S
N160 C165 1.363 . S
N161 C163 1.371 . S
N161 C164 1.372 . S
N162 C164 1.361 . S
N162 C165 1.377 . S
C163 N160 1.382 . S
C163 N161 1.371 . S
C163 C166 1.480 . S
C164 N161 1.372 . S
C164 N162 1.361 . S
C164 C172 1.457 . S
C165 N160 1.363 . S
C165 N162 1.377 . S
C165 C178 1.479 . S
C166 C163 1.480 . S
C166 C167 1.383 . S
C166 C171 1.385 . S
C167 H148 0.947 . S
C167 C166 1.383 . S
C167 C168 1.388 . S
C168 H149 0.946 . S
C168 C167 1.388 . S
C168 C169 1.384 . S
C169 C168 1.384 . S
C169 C170 1.377 . S
C170 H150 0.953 . S
C170 C169 1.377 . S
C170 C171 1.369 . S
C171 H151 0.945 . S
C171 C166 1.385 . S
C171 C170 1.369 . S
C172 C164 1.457 . S
C172 C173 1.372 . S
C172 C177 1.364 . S
C173 H152 0.952 . S
C173 C172 1.372 . S
C173 C174 1.389 . S
C174 H153 0.949 . S
C174 C173 1.389 . S
C174 C175 1.387 . S
C175 C174 1.387 . S
C175 C176 1.372 . S
C176 H154 0.950 . S
C176 C175 1.372 . S
C176 C177 1.379 . S
C177 H155 0.948 . S
C177 C172 1.364 . S
C177 C176 1.379 . S
C178 C147 1.383 . S
C178 C165 1.479 . S
C178 C179 1.398 . S
C179 C144 1.382 . S
C179 H156 0.951 . S
C179 C178 1.398 . S
C180 C181 1.384 . S
C180 H193 0.947 . S
C180 C215 1.382 . S
C181 C180 1.384 . S
C181 C182 1.378 . S
C182 C181 1.378 . S
C182 C183 1.378 . S
C182 H194 0.952 . S
C183 C182 1.378 . S
C183 H195 0.950 . S
C183 C214 1.383 . S
H184 C203 0.947 . S
H185 C204 0.946 . S
H186 C206 0.953 . S
H187 C207 0.945 . S
H188 C209 0.952 . S
H189 C210 0.949 . S
H190 C212 0.950 . S
H191 C213 0.948 . S
H192 C215 0.951 . S
H193 C180 0.947 . S
H194 C182 0.952 . S
H195 C183 0.950 . S
N196 C199 1.382 . S
N196 C201 1.363 . S
N197 C199 1.371 . S
N197 C200 1.372 . S
N198 C200 1.361 . S
N198 C201 1.377 . S
C199 N196 1.382 . S
C199 N197 1.371 . S
C199 C202 1.480 . S
C200 N197 1.372 . S
C200 N198 1.361 . S
C200 C208 1.457 . S
C201 N196 1.363 . S
C201 N198 1.377 . S
C201 C214 1.479 . S
C202 C199 1.480 . S
C202 C203 1.383 . S
C202 C207 1.385 . S
C203 H184 0.947 . S
C203 C202 1.383 . S
C203 C204 1.388 . S
C204 H185 0.946 . S
C204 C203 1.388 . S
C204 C205 1.384 . S
C205 C204 1.384 . S
C205 C206 1.377 . S
C206 H186 0.953 . S
C206 C205 1.377 . S
C206 C207 1.369 . S
C207 H187 0.945 . S
C207 C202 1.385 . S
C207 C206 1.369 . S
C208 C200 1.457 . S
C208 C209 1.372 . S
C208 C213 1.364 . S
C209 H188 0.952 . S
C209 C208 1.372 . S
C209 C210 1.389 . S
C210 H189 0.949 . S
C210 C209 1.389 . S
C210 C211 1.387 . S
C211 C210 1.387 . S
C211 C212 1.372 . S
C212 H190 0.950 . S
C212 C211 1.372 . S
C212 C213 1.379 . S
C213 H191 0.948 . S
C213 C208 1.364 . S
C213 C212 1.379 . S
C214 C183 1.383 . S
C214 C201 1.479 . S
C214 C215 1.398 . S
C215 C180 1.382 . S
C215 H192 0.951 . S
C215 C214 1.398 . S
C216 C217 1.384 . S
C216 H229 0.947 . S
C216 C251 1.382 . S
C217 C216 1.384 . S
C217 C218 1.378 . S
C218 C217 1.378 . S
C218 C219 1.378 . S
C218 H230 0.952 . S
C219 C218 1.378 . S
C219 H231 0.950 . S
C219 C250 1.383 . S
H220 C239 0.947 . S
H221 C240 0.946 . S
H222 C242 0.953 . S
H223 C243 0.945 . S
H224 C245 0.952 . S
H225 C246 0.949 . S
H226 C248 0.950 . S
H227 C249 0.948 . S
H228 C251 0.951 . S
H229 C216 0.947 . S
H230 C218 0.952 . S
H231 C219 0.950 . S
N232 C235 1.382 . S
N232 C237 1.363 . S
N233 C235 1.371 . S
N233 C236 1.372 . S
N234 C236 1.361 . S
N234 C237 1.377 . S
C235 N232 1.382 . S
C235 N233 1.371 . S
C235 C238 1.480 . S
C236 N233 1.372 . S
C236 N234 1.361 . S
C236 C244 1.457 . S
C237 N232 1.363 . S
C237 N234 1.377 . S
C237 C250 1.479 . S
C238 C235 1.480 . S
C238 C239 1.383 . S
C238 C243 1.385 . S
C239 H220 0.947 . S
C239 C238 1.383 . S
C239 C240 1.388 . S
C240 H221 0.946 . S
C240 C239 1.388 . S
C240 C241 1.384 . S
C241 C240 1.384 . S
C241 C242 1.377 . S
C242 H222 0.953 . S
C242 C241 1.377 . S
C242 C243 1.369 . S
C243 H223 0.945 . S
C243 C238 1.385 . S
C243 C242 1.369 . S
C244 C236 1.457 . S
C244 C245 1.372 . S
C244 C249 1.364 . S
C245 H224 0.952 . S
C245 C244 1.372 . S
C245 C246 1.389 . S
C246 H225 0.949 . S
C246 C245 1.389 . S
C246 C247 1.387 . S
C247 C246 1.387 . S
C247 C248 1.372 . S
C248 H226 0.950 . S
C248 C247 1.372 . S
C248 C249 1.379 . S
C249 H227 0.948 . S
C249 C244 1.364 . S
C249 C248 1.379 . S
C250 C219 1.383 . S
C250 C237 1.479 . S
C250 C251 1.398 . S
C251 C216 1.382 . S
C251 H228 0.951 . S
C251 C250 1.398 . S
C252 C253 1.384 . S
C252 H265 0.947 . S
C252 C287 1.382 . S
C253 C252 1.384 . S
C253 C254 1.378 . S
C254 C253 1.378 . S
C254 C255 1.378 . S
C254 H266 0.952 . S
C255 C254 1.378 . S
C255 H267 0.950 . S
C255 C286 1.383 . S
H256 C275 0.947 . S
H257 C276 0.946 . S
H258 C278 0.953 . S
H259 C279 0.945 . S
H260 C281 0.952 . S
H261 C282 0.949 . S
H262 C284 0.950 . S
H263 C285 0.948 . S
H264 C287 0.951 . S
H265 C252 0.947 . S
H266 C254 0.952 . S
H267 C255 0.950 . S
N268 C271 1.382 . S
N268 C273 1.363 . S
N269 C271 1.371 . S
N269 C272 1.372 . S
N270 C272 1.361 . S
N270 C273 1.377 . S
C271 N268 1.382 . S
C271 N269 1.371 . S
C271 C274 1.480 . S
C272 N269 1.372 . S
C272 N270 1.361 . S
C272 C280 1.457 . S
C273 N268 1.363 . S
C273 N270 1.377 . S
C273 C286 1.479 . S
C274 C271 1.480 . S
C274 C275 1.383 . S
C274 C279 1.385 . S
C275 H256 0.947 . S
C275 C274 1.383 . S
C275 C276 1.388 . S
C276 H257 0.946 . S
C276 C275 1.388 . S
C276 C277 1.384 . S
C277 C276 1.384 . S
C277 C278 1.377 . S
C278 H258 0.953 . S
C278 C277 1.377 . S
C278 C279 1.369 . S
C279 H259 0.945 . S
C279 C274 1.385 . S
C279 C278 1.369 . S
C280 C272 1.457 . S
C280 C281 1.372 . S
C280 C285 1.364 . S
C281 H260 0.952 . S
C281 C280 1.372 . S
C281 C282 1.389 . S
C282 H261 0.949 . S
C282 C281 1.389 . S
C282 C283 1.387 . S
C283 C282 1.387 . S
C283 C284 1.372 . S
C284 H262 0.950 . S
C284 C283 1.372 . S
C284 C285 1.379 . S
C285 H263 0.948 . S
C285 C280 1.364 . S
C285 C284 1.379 . S
C286 C255 1.383 . S
C286 C273 1.479 . S
C286 C287 1.398 . S
C287 C252 1.382 . S
C287 H264 0.951 . S
C287 C286 1.398 . S
C288 C289 1.443 . S
C288 N292 1.376 . S
C288 C326 1.389 . S
C289 C288 1.443 . S
C289 C290 1.340 . S
C289 H329 0.951 . S
C290 C289 1.340 . S
C290 C291 1.439 . S
C290 H330 0.950 . S
C291 C290 1.439 . S
C291 N292 1.374 . S
C291 C325 1.395 . S
N292 C288 1.376 . S
N292 C291 1.374 . S
N292 Co293 2.008 . S
Co293 N292 2.008 . S
Co293 N294 1.995 1_455 S
Co293 N299 2.008 . S
Co293 N304 1.995 . S
Co293 N309 2.282 . S
Co293 N315 2.282 1_455 S
N294 Co293 1.995 1_655 S
N294 C295 1.376 . S
N294 C298 1.383 . S
C295 N294 1.376 . S
C295 C296 1.446 . S
C295 C325 1.391 1_655 S
C296 C295 1.446 . S
C296 C297 1.339 . S
C296 H331 0.949 . S
C297 C296 1.339 . S
C297 C298 1.439 . S
C297 H332 0.950 . S
C298 N294 1.383 . S
C298 C297 1.439 . S
C298 C327 1.392 . S
N299 Co293 2.008 . S
N299 C300 1.376 1_455 S
N299 C303 1.374 . S
C300 N299 1.376 1_655 S
C300 C301 1.443 . S
C300 C327 1.389 . S
C301 C300 1.443 . S
C301 C302 1.340 . S
C301 H333 0.951 . S
C302 C301 1.340 . S
C302 C303 1.439 1_655 S
C302 H334 0.950 . S
C303 N299 1.374 . S
C303 C302 1.439 1_455 S
C303 C328 1.395 . S
N304 Co293 1.995 . S
N304 C305 1.376 . S
N304 C308 1.383 . S
C305 N304 1.376 . S
C305 C306 1.446 . S
C305 C328 1.391 . S
C306 C305 1.446 . S
C306 C307 1.339 . S
C306 H335 0.949 . S
C307 C306 1.339 . S
C307 C308 1.439 . S
C307 H336 0.950 . S
C308 N304 1.383 . S
C308 C307 1.439 . S
C308 C326 1.392 . S
N309 Co293 2.282 . S
N309 C312 1.332 . S
N309 C314 1.332 . S
C310 C311 1.386 . S
C310 C313 1.388 . S
C311 C310 1.386 . S
C311 C312 1.382 . S
C311 H337 0.950 . S
C312 N309 1.332 . S
C312 C311 1.382 . S
C312 H323 0.952 . S
C313 C310 1.388 . S
C313 C314 1.382 . S
C313 H338 0.950 . S
C314 N309 1.332 . S
C314 C313 1.382 . S
C314 H324 0.948 . S
N315 Co293 2.282 1_655 S
N315 C319 1.332 . S
N315 C320 1.332 . S
C316 C317 1.388 . S
C316 C320 1.382 . S
C316 H339 0.950 . S
C317 C316 1.388 . S
C317 C318 1.386 . S
C318 C317 1.386 . S
C318 C319 1.382 . S
C318 H340 0.950 . S
C319 N315 1.332 . S
C319 C318 1.382 . S
C319 H321 0.952 . S
C320 N315 1.332 . S
C320 C316 1.382 . S
C320 H322 0.948 . S
H321 C319 0.952 . S
H322 C320 0.948 . S
H323 C312 0.952 . S
H324 C314 0.948 . S
C325 C291 1.395 . S
C325 C295 1.391 1_455 S
C326 C288 1.389 . S
C326 C308 1.392 . S
C327 C298 1.392 . S
C327 C300 1.389 . S
C328 C303 1.395 . S
C328 C305 1.391 . S
H329 C289 0.951 . S
H330 C290 0.950 . S
H331 C296 0.949 . S
H332 C297 0.950 . S
H333 C301 0.951 . S
H334 C302 0.950 . S
H335 C306 0.949 . S
H336 C307 0.950 . S
H337 C311 0.950 . S
H338 C313 0.950 . S
H339 C316 0.950 . S
H340 C318 0.950 . S
C341 C342 1.443 . S
C341 N345 1.376 . S
C341 C379 1.389 . S
C342 C341 1.443 . S
C342 C343 1.340 . S
C342 H382 0.951 . S
C343 C342 1.340 . S
C343 C344 1.439 . S
C343 H383 0.950 . S
C344 C343 1.439 . S
C344 N345 1.374 . S
C344 C378 1.395 . S
N345 C341 1.376 . S
N345 C344 1.374 . S
N345 Co346 2.008 . S
Co346 N345 2.008 . S
Co346 N347 1.995 1_455 S
Co346 N352 2.008 1_455 S
Co346 N357 1.995 . S
Co346 N362 2.282 . S
Co346 N368 2.282 1_455 S
N347 Co346 1.995 1_655 S
N347 C348 1.376 . S
N347 C351 1.383 . S
C348 N347 1.376 . S
C348 C349 1.446 . S
C348 C378 1.391 1_655 S
C349 C348 1.446 . S
C349 C350 1.339 . S
C349 H384 0.949 . S
C350 C349 1.339 . S
C350 C351 1.439 . S
C350 H385 0.950 . S
C351 N347 1.383 . S
C351 C350 1.439 . S
C351 C380 1.392 . S
N352 Co346 2.008 1_655 S
N352 C353 1.376 . S
N352 C356 1.374 1_655 S
C353 N352 1.376 . S
C353 C354 1.443 . S
C353 C380 1.389 . S
C354 C353 1.443 . S
C354 C355 1.340 . S
C354 H386 0.951 . S
C355 C354 1.340 . S
C355 C356 1.439 1_655 S
C355 H387 0.950 . S
C356 N352 1.374 1_455 S
C356 C355 1.439 1_455 S
C356 C381 1.395 . S
N357 Co346 1.995 . S
N357 C358 1.376 . S
N357 C361 1.383 . S
C358 N357 1.376 . S
C358 C359 1.446 . S
C358 C381 1.391 . S
C359 C358 1.446 . S
C359 C360 1.339 . S
C359 H388 0.949 . S
C360 C359 1.339 . S
C360 C361 1.439 . S
C360 H389 0.950 . S
C361 N357 1.383 . S
C361 C360 1.439 . S
C361 C379 1.392 . S
N362 Co346 2.282 . S
N362 C365 1.332 . S
N362 C367 1.332 . S
C363 C364 1.386 . S
C363 C366 1.388 . S
C364 C363 1.386 . S
C364 C365 1.382 . S
C364 H390 0.950 . S
C365 N362 1.332 . S
C365 C364 1.382 . S
C365 H376 0.952 . S
C366 C363 1.388 . S
C366 C367 1.382 . S
C366 H391 0.950 . S
C367 N362 1.332 . S
C367 C366 1.382 . S
C367 H377 0.948 . S
N368 Co346 2.282 1_655 S
N368 C372 1.332 . S
N368 C373 1.332 . S
C369 C370 1.388 . S
C369 C373 1.382 . S
C369 H392 0.950 . S
C370 C369 1.388 . S
C370 C371 1.386 . S
C371 C370 1.386 . S
C371 C372 1.382 . S
C371 H393 0.950 . S
C372 N368 1.332 . S
C372 C371 1.382 . S
C372 H374 0.952 . S
C373 N368 1.332 . S
C373 C369 1.382 . S
C373 H375 0.948 . S
H374 C372 0.952 . S
H375 C373 0.948 . S
H376 C365 0.952 . S
H377 C367 0.948 . S
C378 C344 1.395 . S
C378 C348 1.391 1_455 S
C379 C341 1.389 . S
C379 C361 1.392 . S
C380 C351 1.392 . S
C380 C353 1.389 . S
C381 C356 1.395 . S
C381 C358 1.391 . S
H382 C342 0.951 . S
H383 C343 0.950 . S
H384 C349 0.949 . S
H385 C350 0.950 . S
H386 C354 0.951 . S
H387 C355 0.950 . S
H388 C359 0.949 . S
H389 C360 0.950 . S
H390 C364 0.950 . S
H391 C366 0.950 . S
H392 C369 0.950 . S
H393 C371 0.950 . S
C394 C395 1.443 . S
C394 N398 1.376 . S
C394 C432 1.389 . S
C395 C394 1.443 . S
C395 C396 1.340 . S
C395 H435 0.951 . S
C396 C395 1.340 . S
C396 C397 1.439 . S
C396 H436 0.950 . S
C397 C396 1.439 . S
C397 N398 1.374 . S
C397 C431 1.395 1_565 S
N398 C394 1.376 . S
N398 C397 1.374 . S
N398 Co399 2.008 1_565 S
Co399 N398 2.008 1_545 S
Co399 N400 1.995 . S
Co399 N405 2.008 . S
Co399 N410 1.995 1_545 S
Co399 N415 2.282 . S
Co399 N421 2.282 1_545 S
N400 Co399 1.995 . S
N400 C401 1.376 . S
N400 C404 1.383 . S
C401 N400 1.376 . S
C401 C402 1.446 . S
C401 C431 1.391 . S
C402 C401 1.446 . S
C402 C403 1.339 . S
C402 H437 0.949 . S
C403 C402 1.339 . S
C403 C404 1.439 . S
C403 H438 0.950 . S
C404 N400 1.383 . S
C404 C403 1.439 . S
C404 C433 1.392 . S
N405 Co399 2.008 . S
N405 C406 1.376 . S
N405 C409 1.374 . S
C406 N405 1.376 . S
C406 C407 1.443 . S
C406 C433 1.389 . S
C407 C406 1.443 . S
C407 C408 1.340 . S
C407 H439 0.951 . S
C408 C407 1.340 . S
C408 C409 1.439 . S
C408 H440 0.950 . S
C409 N405 1.374 . S
C409 C408 1.439 . S
C409 C434 1.395 . S
N410 Co399 1.995 1_565 S
N410 C411 1.376 . S
N410 C414 1.383 . S
C411 N410 1.376 . S
C411 C412 1.446 . S
C411 C434 1.391 1_565 S
C412 C411 1.446 . S
C412 C413 1.339 . S
C412 H441 0.949 . S
C413 C412 1.339 . S
C413 C414 1.439 . S
C413 H442 0.950 . S
C414 N410 1.383 . S
C414 C413 1.439 . S
C414 C432 1.392 . S
N415 Co399 2.282 . S
N415 C418 1.332 . S
N415 C420 1.332 . S
C416 C417 1.386 . S
C416 C419 1.388 . S
C417 C416 1.386 . S
C417 C418 1.382 . S
C417 H443 0.950 . S
C418 N415 1.332 . S
C418 C417 1.382 . S
C418 H429 0.952 . S
C419 C416 1.388 . S
C419 C420 1.382 . S
C419 H444 0.950 . S
C420 N415 1.332 . S
C420 C419 1.382 . S
C420 H430 0.948 . S
N421 Co399 2.282 1_565 S
N421 C425 1.332 . S
N421 C426 1.332 . S
C422 C423 1.388 . S
C422 C426 1.382 . S
C422 H445 0.950 . S
C423 C422 1.388 . S
C423 C424 1.386 . S
C424 C423 1.386 . S
C424 C425 1.382 . S
C424 H446 0.950 . S
C425 N421 1.332 . S
C425 C424 1.382 . S
C425 H427 0.952 . S
C426 N421 1.332 . S
C426 C422 1.382 . S
C426 H428 0.948 . S
H427 C425 0.952 . S
H428 C426 0.948 . S
H429 C418 0.952 . S
H430 C420 0.948 . S
C431 C397 1.395 1_545 S
C431 C401 1.391 . S
C432 C394 1.389 . S
C432 C414 1.392 . S
C433 C404 1.392 . S
C433 C406 1.389 . S
C434 C409 1.395 . S
C434 C411 1.391 1_545 S
H435 C395 0.951 . S
H436 C396 0.950 . S
H437 C402 0.949 . S
H438 C403 0.950 . S
H439 C407 0.951 . S
H440 C408 0.950 . S
H441 C412 0.949 . S
H442 C413 0.950 . S
H443 C417 0.950 . S
H444 C419 0.950 . S
H445 C422 0.950 . S
H446 C424 0.950 . S
C447 C448 1.443 . S
C447 N451 1.376 . S
C447 C485 1.389 . S
C448 C447 1.443 . S
C448 C449 1.340 . S
C448 H488 0.951 . S
C449 C448 1.340 . S
C449 C450 1.439 . S
C449 H489 0.950 . S
C450 C449 1.439 . S
C450 N451 1.374 . S
C450 C484 1.395 . S
N451 C447 1.376 . S
N451 C450 1.374 . S
N451 Co452 2.008 . S
Co452 N451 2.008 . S
Co452 N453 1.994 . S
Co452 N458 2.008 1_554 S
Co452 N463 1.995 . S
Co452 N468 2.282 1_554 S
Co452 N474 2.282 . S
N453 Co452 1.994 . S
N453 C454 1.376 . S
N453 C457 1.383 1_554 S
C454 N453 1.376 . S
C454 C455 1.446 1_554 S
C454 C484 1.391 . S
C455 C454 1.446 1_556 S
C455 C456 1.339 . S
C455 H490 0.949 . S
C456 C455 1.339 . S
C456 C457 1.439 . S
C456 H491 0.950 . S
C457 N453 1.383 1_556 S
C457 C456 1.439 . S
C457 C486 1.392 . S
N458 Co452 2.008 1_556 S
N458 C459 1.376 . S
N458 C462 1.374 1_556 S
C459 N458 1.376 . S
C459 C460 1.443 . S
C459 C486 1.389 . S
C460 C459 1.443 . S
C460 C461 1.340 . S
C460 H492 0.951 . S
C461 C460 1.340 . S
C461 C462 1.424 1_556 S
C461 H493 0.950 . S
C462 N458 1.374 1_554 S
C462 C461 1.424 1_554 S
C462 C487 1.407 . S
N463 Co452 1.995 . S
N463 C464 1.376 . S
N463 C467 1.383 . S
C464 N463 1.376 . S
C464 C465 1.446 . S
C464 C487 1.391 . S
C465 C464 1.446 . S
C465 C466 1.339 . S
C465 H494 0.949 . S
C466 C465 1.339 . S
C466 C467 1.439 . S
C466 H495 0.950 . S
C467 N463 1.383 . S
C467 C466 1.439 . S
C467 C485 1.392 . S
N468 Co452 2.282 1_556 S
N468 C471 1.332 . S
N468 C473 1.332 . S
C469 C470 1.386 . S
C469 C472 1.388 . S
C470 C469 1.386 . S
C470 C471 1.382 . S
C470 H496 0.950 . S
C471 N468 1.332 . S
C471 C470 1.382 . S
C471 H482 0.952 . S
C472 C469 1.388 . S
C472 C473 1.382 . S
C472 H497 0.950 . S
C473 N468 1.332 . S
C473 C472 1.382 . S
C473 H483 0.948 . S
N474 Co452 2.282 . S
N474 C478 1.332 . S
N474 C479 1.332 . S
C475 C476 1.388 . S
C475 C479 1.382 . S
C475 H498 0.950 . S
C476 C475 1.388 . S
C476 C477 1.386 . S
C477 C476 1.386 . S
C477 C478 1.382 . S
C477 H499 0.950 . S
C478 N474 1.332 . S
C478 C477 1.382 . S
C478 H480 0.952 . S
C479 N474 1.332 . S
C479 C475 1.382 . S
C479 H481 0.948 . S
H480 C478 0.952 . S
H481 C479 0.948 . S
H482 C471 0.952 . S
H483 C473 0.948 . S
C484 C450 1.395 . S
C484 C454 1.391 . S
C485 C447 1.389 . S
C485 C467 1.392 . S
C486 C457 1.392 . S
C486 C459 1.389 . S
C487 C462 1.407 . S
C487 C464 1.391 . S
H488 C448 0.951 . S
H489 C449 0.950 . S
H490 C455 0.949 . S
H491 C456 0.950 . S
H492 C460 0.951 . S
H493 C461 0.950 . S
H494 C465 0.949 . S
H495 C466 0.950 . S
H496 C470 0.950 . S
H497 C472 0.950 . S
H498 C475 0.950 . S
H499 C477 0.950 . S
C500 C501 1.443 . S
C500 N504 1.376 1_565 S
C500 C538 1.389 . S
C501 C500 1.443 . S
C501 C502 1.340 . S
C501 H541 0.951 . S
C502 C501 1.340 . S
C502 C503 1.439 1_565 S
C502 H542 0.950 . S
C503 C502 1.439 1_545 S
C503 N504 1.374 . S
C503 C537 1.395 . S
N504 C500 1.376 1_545 S
N504 C503 1.374 . S
N504 Co505 2.008 . S
Co505 N504 2.008 . S
Co505 N506 1.995 . S
Co505 N511 2.008 . S
Co505 N516 1.995 . S
Co505 N521 2.282 . S
Co505 N527 2.282 1_545 S
N506 Co505 1.995 . S
N506 C507 1.376 . S
N506 C510 1.383 . S
C507 N506 1.376 . S
C507 C508 1.446 . S
C507 C537 1.391 . S
C508 C507 1.446 . S
C508 C509 1.339 . S
C508 H543 0.949 . S
C509 C508 1.339 . S
C509 C510 1.439 . S
C509 H544 0.950 . S
C510 N506 1.383 . S
C510 C509 1.439 . S
C510 C539 1.392 . S
N511 Co505 2.008 . S
N511 C512 1.376 . S
N511 C515 1.374 . S
C512 N511 1.376 . S
C512 C513 1.443 . S
C512 C539 1.389 . S
C513 C512 1.443 . S
C513 C514 1.340 . S
C513 H545 0.951 . S
C514 C513 1.340 . S
C514 C515 1.439 . S
C514 H546 0.950 . S
C515 N511 1.374 . S
C515 C514 1.439 . S
C515 C540 1.395 . S
N516 Co505 1.995 . S
N516 C517 1.376 . S
N516 C520 1.383 1_545 S
C517 N516 1.376 . S
C517 C518 1.446 1_545 S
C517 C540 1.391 . S
C518 C517 1.446 1_565 S
C518 C519 1.339 . S
C518 H547 0.949 . S
C519 C518 1.339 . S
C519 C520 1.439 . S
C519 H548 0.950 . S
C520 N516 1.383 1_565 S
C520 C519 1.439 . S
C520 C538 1.392 . S
N521 Co505 2.282 . S
N521 C524 1.332 . S
N521 C526 1.332 . S
C522 C523 1.386 . S
C522 C525 1.388 . S
C523 C522 1.386 . S
C523 C524 1.382 . S
C523 H549 0.950 . S
C524 N521 1.332 . S
C524 C523 1.382 . S
C524 H535 0.952 . S
C525 C522 1.388 . S
C525 C526 1.382 . S
C525 H550 0.950 . S
C526 N521 1.332 . S
C526 C525 1.382 . S
C526 H536 0.948 . S
N527 Co505 2.282 1_565 S
N527 C531 1.332 . S
N527 C532 1.332 . S
C528 C529 1.388 . S
C528 C532 1.382 . S
C528 H551 0.950 . S
C529 C528 1.388 . S
C529 C530 1.386 . S
C530 C529 1.386 . S
C530 C531 1.382 . S
C530 H552 0.950 . S
C531 N527 1.332 . S
C531 C530 1.382 . S
C531 H533 0.952 . S
C532 N527 1.332 . S
C532 C528 1.382 . S
C532 H534 0.948 . S
H533 C531 0.952 . S
H534 C532 0.948 . S
H535 C524 0.952 . S
H536 C526 0.948 . S
C537 C503 1.395 . S
C537 C507 1.391 . S
C538 C500 1.389 . S
C538 C520 1.392 . S
C539 C510 1.392 . S
C539 C512 1.389 . S
C540 C515 1.395 . S
C540 C517 1.391 . S
H541 C501 0.951 . S
H542 C502 0.950 . S
H543 C508 0.949 . S
H544 C509 0.950 . S
H545 C513 0.951 . S
H546 C514 0.950 . S
H547 C518 0.949 . S
H548 C519 0.950 . S
H549 C523 0.950 . S
H550 C525 0.950 . S
H551 C528 0.950 . S
H552 C530 0.950 . S
C553 C554 1.443 . S
C553 N557 1.376 . S
C553 C591 1.389 . S
C554 C553 1.443 . S
C554 C555 1.340 . S
C554 H594 0.951 . S
C555 C554 1.340 . S
C555 C556 1.439 . S
C555 H595 0.950 . S
C556 C555 1.439 . S
C556 N557 1.374 . S
C556 C590 1.395 . S
N557 C553 1.376 . S
N557 C556 1.374 . S
N557 Co558 2.008 . S
Co558 N557 2.008 . S
Co558 N559 1.995 . S
Co558 N564 2.008 . S
Co558 N569 1.995 . S
Co558 N574 2.280 . S
Co558 N580 2.282 . S
N559 Co558 1.995 . S
N559 C560 1.376 . S
N559 C563 1.383 1_554 S
C560 N559 1.376 . S
C560 C561 1.446 1_554 S
C560 C590 1.391 . S
C561 C560 1.446 1_556 S
C561 C562 1.339 . S
C561 H596 0.949 . S
C562 C561 1.339 . S
C562 C563 1.439 . S
C562 H597 0.950 . S
C563 N559 1.383 1_556 S
C563 C562 1.439 . S
C563 C592 1.392 . S
N564 Co558 2.008 . S
N564 C565 1.376 1_554 S
N564 C568 1.374 . S
C565 N564 1.376 1_556 S
C565 C566 1.443 . S
C565 C592 1.389 . S
C566 C565 1.443 . S
C566 C567 1.340 . S
C566 H598 0.951 . S
C567 C566 1.340 . S
C567 C568 1.439 1_556 S
C567 H599 0.950 . S
C568 N564 1.374 . S
C568 C567 1.439 1_554 S
C568 C593 1.395 . S
N569 Co558 1.995 . S
N569 C570 1.376 . S
N569 C573 1.383 . S
C570 N569 1.376 . S
C570 C571 1.446 . S
C570 C593 1.391 . S
C571 C570 1.446 . S
C571 C572 1.339 . S
C571 H600 0.949 . S
C572 C571 1.339 . S
C572 C573 1.439 . S
C572 H601 0.950 . S
C573 N569 1.383 . S
C573 C572 1.439 . S
C573 C591 1.392 . S
N574 Co558 2.280 . S
N574 C577 1.333 1_554 S
N574 C579 1.334 1_554 S
C575 C576 1.386 . S
C575 C578 1.388 . S
C576 C575 1.386 . S
C576 C577 1.382 . S
C576 H602 0.950 . S
C577 N574 1.333 1_556 S
C577 C576 1.382 . S
C577 H588 0.952 1_556 S
C578 C575 1.388 . S
C578 C579 1.382 . S
C578 H603 0.950 . S
C579 N574 1.334 1_556 S
C579 C578 1.382 . S
C579 H589 0.948 . S
N580 Co558 2.282 . S
N580 C584 1.332 . S
N580 C585 1.332 . S
C581 C582 1.388 . S
C581 C585 1.382 . S
C581 H604 0.950 . S
C582 C581 1.388 . S
C582 C583 1.386 . S
C583 C582 1.386 . S
C583 C584 1.382 . S
C583 H605 0.950 . S
C584 N580 1.332 . S
C584 C583 1.382 . S
C584 H586 0.952 . S
C585 N580 1.332 . S
C585 C581 1.382 . S
C585 H587 0.948 . S
H586 C584 0.952 . S
H587 C585 0.948 . S
H588 C577 0.952 1_554 S
H589 C579 0.948 . S
C590 C556 1.395 . S
C590 C560 1.391 . S
C591 C553 1.389 . S
C591 C573 1.392 . S
C592 C563 1.392 . S
C592 C565 1.389 . S
C593 C568 1.395 . S
C593 C570 1.391 . S
H594 C554 0.951 . S
H595 C555 0.950 . S
H596 C561 0.949 . S
H597 C562 0.950 . S
H598 C566 0.951 . S
H599 C567 0.950 . S
H600 C571 0.949 . S
H601 C572 0.950 . S
H602 C576 0.950 . S
H603 C578 0.950 . S
H604 C581 0.950 . S
H605 C583 0.950 . S
C606 C607 1.387 . S
C606 H610 0.950 . S
C606 C615 1.390 . S
C607 C606 1.387 . S
C607 C609 1.387 . S
H608 C615 0.950 . S
C609 C607 1.387 . S
C609 C611 1.390 . S
C609 H613 0.950 . S
H610 C606 0.950 . S
C611 C609 1.390 . S
C611 C612 1.387 . S
C611 H614 0.950 . S
C612 C611 1.387 . S
C612 C615 1.387 . S
H613 C609 0.950 . S
H614 C611 0.950 . S
C615 C606 1.390 . S
C615 H608 0.950 . S
C615 C612 1.387 . S
C616 C617 1.387 . S
C616 H620 0.950 . S
C616 C625 1.390 . S
C617 C616 1.387 . S
C617 C619 1.387 . S
H618 C625 0.950 . S
C619 C617 1.387 . S
C619 C621 1.390 . S
C619 H623 0.950 . S
H620 C616 0.950 . S
C621 C619 1.390 . S
C621 C622 1.387 . S
C621 H624 0.950 . S
C622 C621 1.387 . S
C622 C625 1.387 . S
H623 C619 0.950 . S
H624 C621 0.950 . S
C625 C616 1.390 . S
C625 H618 0.950 . S
C625 C622 1.387 . S
C626 C627 1.387 . S
C626 H630 0.950 . S
C626 C635 1.390 . S
C627 C626 1.387 . S
C627 C629 1.387 . S
H628 C635 0.950 . S
C629 C627 1.387 . S
C629 C631 1.390 . S
C629 H633 0.950 . S
H630 C626 0.950 . S
C631 C629 1.390 . S
C631 C632 1.387 . S
C631 H634 0.950 . S
C632 C631 1.387 . S
C632 C635 1.387 . S
H633 C629 0.950 . S
H634 C631 0.950 . S
C635 C626 1.390 . S
C635 H628 0.950 . S
C635 C632 1.387 . S
C636 C637 1.387 . S
C636 H640 0.950 . S
C636 C645 1.390 . S
C637 C636 1.387 . S
C637 C639 1.387 . S
H638 C645 0.950 . S
C639 C637 1.387 . S
C639 C641 1.390 . S
C639 H643 0.950 . S
H640 C636 0.950 . S
C641 C639 1.390 . S
C641 C642 1.387 . S
C641 H644 0.950 . S
C642 C641 1.387 . S
C642 C645 1.387 . S
H643 C639 0.950 . S
H644 C641 0.950 . S
C645 C636 1.390 . S
C645 H638 0.950 . S
C645 C642 1.387 . S
C646 C647 1.387 . S
C646 H650 0.950 . S
C646 C655 1.390 . S
C647 C646 1.387 . S
C647 C649 1.387 . S
H648 C655 0.950 . S
C649 C647 1.387 . S
C649 C651 1.390 . S
C649 H653 0.950 . S
H650 C646 0.950 . S
C651 C649 1.390 . S
C651 C652 1.387 . S
C651 H654 0.950 . S
C652 C651 1.387 . S
C652 C655 1.387 . S
H653 C649 0.950 . S
H654 C651 0.950 . S
C655 C646 1.390 . S
C655 H648 0.950 . S
C655 C652 1.387 . S
C656 C657 1.387 . S
C656 H660 0.950 . S
C656 C665 1.390 . S
C657 C656 1.387 . S
C657 C659 1.387 . S
H658 C665 0.950 . S
C659 C657 1.387 . S
C659 C661 1.390 . S
C659 H663 0.950 . S
H660 C656 0.950 . S
C661 C659 1.390 . S
C661 C662 1.387 . S
C661 H664 0.950 . S
C662 C661 1.387 . S
C662 C665 1.387 . S
H663 C659 0.950 . S
H664 C661 0.950 . S
C665 C656 1.390 . S
C665 H658 0.950 . S
C665 C662 1.387 . S
C666 C667 1.387 . S
C666 H670 0.950 . S
C666 C675 1.390 . S
C667 C666 1.387 . S
C667 C669 1.387 . S
H668 C675 0.950 . S
C669 C667 1.387 . S
C669 C671 1.390 . S
C669 H673 0.950 . S
H670 C666 0.950 . S
C671 C669 1.390 . S
C671 C672 1.387 . S
C671 H674 0.950 . S
C672 C671 1.387 . S
C672 C675 1.387 . S
H673 C669 0.950 . S
H674 C671 0.950 . S
C675 C666 1.390 . S
C675 H668 0.950 . S
C675 C672 1.387 . S
C676 C677 1.387 . S
C676 H680 0.950 . S
C676 C685 1.390 . S
C677 C676 1.387 . S
C677 C679 1.387 . S
H678 C685 0.950 . S
C679 C677 1.387 . S
C679 C681 1.390 . S
C679 H683 0.950 . S
H680 C676 0.950 . S
C681 C679 1.390 . S
C681 C682 1.387 . S
C681 H684 0.950 . S
C682 C681 1.387 . S
C682 C685 1.387 . S
H683 C679 0.950 . S
H684 C681 0.950 . S
C685 C676 1.390 . S
C685 H678 0.950 . S
C685 C682 1.387 . S
C686 C687 1.387 . S
C686 H690 0.950 . S
C686 C695 1.390 . S
C687 C686 1.387 . S
C687 C689 1.387 . S
H688 C695 0.950 . S
C689 C687 1.387 . S
C689 C691 1.390 . S
C689 H693 0.950 . S
H690 C686 0.950 . S
C691 C689 1.390 . S
C691 C692 1.387 . S
C691 H694 0.950 . S
C692 C691 1.387 . S
C692 C695 1.387 . S
H693 C689 0.950 . S
H694 C691 0.950 . S
C695 C686 1.390 . S
C695 H688 0.950 . S
C695 C692 1.387 . S
C696 C697 1.387 . S
C696 H700 0.950 . S
C696 C705 1.390 . S
C697 C696 1.387 . S
C697 C699 1.387 . S
H698 C705 0.950 . S
C699 C697 1.387 . S
C699 C701 1.390 . S
C699 H703 0.950 . S
H700 C696 0.950 . S
C701 C699 1.390 . S
C701 C702 1.387 . S
C701 H704 0.950 . S
C702 C701 1.387 . S
C702 C705 1.387 . S
H703 C699 0.950 . S
H704 C701 0.950 . S
C705 C696 1.390 . S
C705 H698 0.950 . S
C705 C702 1.387 . S
C706 C707 1.387 . S
C706 H710 0.950 . S
C706 C715 1.390 . S
C707 C706 1.387 . S
C707 C709 1.387 . S
H708 C715 0.950 . S
C709 C707 1.387 . S
C709 C711 1.390 . S
C709 H713 0.950 . S
H710 C706 0.950 . S
C711 C709 1.390 . S
C711 C712 1.387 . S
C711 H714 0.950 . S
C712 C711 1.387 . S
C712 C715 1.387 . S
H713 C709 0.950 . S
H714 C711 0.950 . S
C715 C706 1.390 . S
C715 H708 0.950 . S
C715 C712 1.387 . S
C716 C717 1.387 . S
C716 H720 0.950 . S
C716 C725 1.390 . S
C717 C716 1.387 . S
C717 C719 1.387 . S
H718 C725 0.950 . S
C719 C717 1.387 . S
C719 C721 1.390 . S
C719 H723 0.950 . S
H720 C716 0.950 . S
C721 C719 1.390 . S
C721 C722 1.387 . S
C721 H724 0.950 . S
C722 C721 1.387 . S
C722 C725 1.387 . S
H723 C719 0.950 . S
H724 C721 0.950 . S
C725 C716 1.390 . S
C725 H718 0.950 . S
C725 C722 1.387 . S
C726 C727 1.387 . S
C726 H730 0.950 . S
C726 C735 1.390 . S
C727 C726 1.387 . S
C727 C729 1.387 . S
H728 C735 0.950 . S
C729 C727 1.387 . S
C729 C731 1.390 . S
C729 H733 0.950 . S
H730 C726 0.950 . S
C731 C729 1.390 . S
C731 C732 1.387 . S
C731 H734 0.950 . S
C732 C731 1.387 . S
C732 C735 1.387 . S
H733 C729 0.950 . S
H734 C731 0.950 . S
C735 C726 1.390 . S
C735 H728 0.950 . S
C735 C732 1.387 . S
C736 C737 1.387 . S
C736 H740 0.950 . S
C736 C745 1.390 . S
C737 C736 1.387 . S
C737 C739 1.387 . S
H738 C745 0.950 . S
C739 C737 1.387 . S
C739 C741 1.390 . S
C739 H743 0.950 . S
H740 C736 0.950 . S
C741 C739 1.390 . S
C741 C742 1.387 . S
C741 H744 0.950 . S
C742 C741 1.387 . S
C742 C745 1.387 . S
H743 C739 0.950 . S
H744 C741 0.950 . S
C745 C736 1.390 . S
C745 H738 0.950 . S
C745 C742 1.387 . S
C746 C747 1.387 . S
C746 H750 0.950 . S
C746 C755 1.390 . S
C747 C746 1.387 . S
C747 C749 1.387 . S
H748 C755 0.950 . S
C749 C747 1.387 . S
C749 C751 1.390 . S
C749 H753 0.950 . S
H750 C746 0.950 . S
C751 C749 1.390 . S
C751 C752 1.387 . S
C751 H754 0.950 . S
C752 C751 1.387 . S
C752 C755 1.387 . S
H753 C749 0.950 . S
H754 C751 0.950 . S
C755 C746 1.390 . S
C755 H748 0.950 . S
C755 C752 1.387 . S
C756 C757 1.387 . S
C756 H760 0.950 . S
C756 C765 1.390 . S
C757 C756 1.387 . S
C757 C759 1.387 . S
H758 C765 0.950 . S
C759 C757 1.387 . S
C759 C761 1.390 . S
C759 H763 0.950 . S
H760 C756 0.950 . S
C761 C759 1.390 . S
C761 C762 1.387 . S
C761 H764 0.950 . S
C762 C761 1.387 . S
C762 C765 1.387 . S
H763 C759 0.950 . S
H764 C761 0.950 . S
C765 C756 1.390 . S
C765 H758 0.950 . S
C765 C762 1.387 . S
C766 C767 1.387 . S
C766 H770 0.950 . S
C766 C775 1.390 . S
C767 C766 1.387 . S
C767 C769 1.387 . S
H768 C775 0.950 . S
C769 C767 1.387 . S
C769 C771 1.390 . S
C769 H773 0.950 . S
H770 C766 0.950 . S
C771 C769 1.390 . S
C771 C772 1.387 . S
C771 H774 0.950 . S
C772 C771 1.387 . S
C772 C775 1.387 . S
H773 C769 0.950 . S
H774 C771 0.950 . S
C775 C766 1.390 . S
C775 H768 0.950 . S
C775 C772 1.387 . S
C776 C777 1.387 . S
C776 H780 0.950 . S
C776 C785 1.390 . S
C777 C776 1.387 . S
C777 C779 1.387 . S
H778 C785 0.950 . S
C779 C777 1.387 . S
C779 C781 1.390 . S
C779 H783 0.950 . S
H780 C776 0.950 . S
C781 C779 1.390 . S
C781 C782 1.387 . S
C781 H784 0.950 . S
C782 C781 1.387 . S
C782 C785 1.387 . S
H783 C779 0.950 . S
H784 C781 0.950 . S
C785 C776 1.390 . S
C785 H778 0.950 . S
C785 C782 1.387 . S
C786 C787 1.387 . S
C786 H790 0.950 . S
C786 C795 1.390 . S
C787 C786 1.387 . S
C787 C789 1.387 . S
H788 C795 0.950 . S
C789 C787 1.387 . S
C789 C791 1.390 . S
C789 H793 0.950 . S
H790 C786 0.950 . S
C791 C789 1.390 . S
C791 C792 1.387 . S
C791 H794 0.950 . S
C792 C791 1.387 . S
C792 C795 1.387 . S
H793 C789 0.950 . S
H794 C791 0.950 . S
C795 C786 1.390 . S
C795 H788 0.950 . S
C795 C792 1.387 . S
C796 C797 1.387 . S
C796 H800 0.950 . S
C796 C805 1.390 . S
C797 C796 1.387 . S
C797 C799 1.387 . S
H798 C805 0.950 . S
C799 C797 1.387 . S
C799 C801 1.390 . S
C799 H803 0.950 . S
H800 C796 0.950 . S
C801 C799 1.390 . S
C801 C802 1.387 . S
C801 H804 0.950 . S
C802 C801 1.387 . S
C802 C805 1.387 . S
H803 C799 0.950 . S
H804 C801 0.950 . S
C805 C796 1.390 . S
C805 H798 0.950 . S
C805 C802 1.387 . S
C806 C807 1.387 . S
C806 H810 0.950 . S
C806 C815 1.390 . S
C807 C806 1.387 . S
C807 C809 1.387 . S
H808 C815 0.950 . S
C809 C807 1.387 . S
C809 C811 1.390 . S
C809 H813 0.950 . S
H810 C806 0.950 . S
C811 C809 1.390 . S
C811 C812 1.387 . S
C811 H814 0.950 . S
C812 C811 1.387 . S
C812 C815 1.387 . S
H813 C809 0.950 . S
H814 C811 0.950 . S
C815 C806 1.390 . S
C815 H808 0.950 . S
C815 C812 1.387 . S
C816 C817 1.387 . S
C816 H820 0.950 . S
C816 C825 1.390 . S
C817 C816 1.387 . S
C817 C819 1.387 . S
H818 C825 0.950 . S
C819 C817 1.387 . S
C819 C821 1.390 . S
C819 H823 0.950 . S
H820 C816 0.950 . S
C821 C819 1.390 . S
C821 C822 1.387 . S
C821 H824 0.950 . S
C822 C821 1.387 . S
C822 C825 1.387 . S
H823 C819 0.950 . S
H824 C821 0.950 . S
C825 C816 1.390 . S
C825 H818 0.950 . S
C825 C822 1.387 . S
C826 C827 1.387 . S
C826 H830 0.950 . S
C826 C835 1.390 . S
C827 C826 1.387 . S
C827 C829 1.387 . S
H828 C835 0.950 . S
C829 C827 1.387 . S
C829 C831 1.390 . S
C829 H833 0.950 . S
H830 C826 0.950 . S
C831 C829 1.390 . S
C831 C832 1.387 . S
C831 H834 0.950 . S
C832 C831 1.387 . S
C832 C835 1.387 . S
H833 C829 0.950 . S
H834 C831 0.950 . S
C835 C826 1.390 . S
C835 H828 0.950 . S
C835 C832 1.387 . S
C836 C837 1.387 . S
C836 H840 0.950 . S
C836 C845 1.390 . S
C837 C836 1.387 . S
C837 C839 1.387 . S
H838 C845 0.950 . S
C839 C837 1.387 . S
C839 C841 1.390 . S
C839 H843 0.950 . S
H840 C836 0.950 . S
C841 C839 1.390 . S
C841 C842 1.387 . S
C841 H844 0.950 . S
C842 C841 1.387 . S
C842 C845 1.387 . S
H843 C839 0.950 . S
H844 C841 0.950 . S
C845 C836 1.390 . S
C845 H838 0.950 . S
C845 C842 1.387 . S
C612 C310 1.550 . S
C607 C25 1.552 . S
C622 C379 1.539 . S
C617 C37 1.545 . S
C632 C317 1.556 . S
C627 C103 1.561 . S
C642 C380 1.546 . S
C637 C139 1.549 . S
C652 C433 1.552 . S
C647 C31 1.562 . S
C662 C469 1.526 . S
C657 C67 1.529 . S
C667 C97 1.559 . S
C672 C529 1.571 . S
C682 C592 1.519 . S
C677 C133 1.522 . S
C692 C432 1.539 . S
C687 C61 1.554 . S
C697 C73 1.521 . S
C702 C476 1.532 . S
C712 C522 1.562 . S
C707 C109 1.574 . S
C722 C591 1.527 . S
C717 C1 1.532 . S
C727 C169 1.545 . S
C732 C370 1.550 . S
C742 C327 1.544 . S
C737 C211 1.544 . S
C747 C241 1.550 . S
C752 C363 1.540 . S
C757 C253 1.542 . S
C762 C326 1.542 . S
C772 C538 1.572 . S
C767 C175 1.560 . S
C782 C582 1.525 . S
C777 C205 1.514 . S
C792 C416 1.549 . S
C787 C217 1.559 . S
C797 C283 1.518 . S
C802 C485 1.529 . S
C812 C539 1.560 . S
C807 C181 1.558 . S
C822 C575 1.528 . S
C817 C247 1.531 . S
C832 C423 1.551 . S
C827 C277 1.543 . S
C837 C145 1.526 . S
C842 C486 1.535 . S
