# Generated by pormake.
# Topology pyr, (3,6)-cn, num edge types: 1
# Building blocks:
#     Node 0, Type 0, BuildingBlock: ESEHIV_clean_linker_0, # of connection points: 3
#     Node 1, Type 0, BuildingBlock: ESEHIV_clean_linker_0, # of connection points: 3
#     Node 2, Type 0, BuildingBlock: ESEHIV_clean_linker_0, # of connection points: 3
#     Node 3, Type 0, BuildingBlock: ESEHIV_clean_linker_0, # of connection points: 3
#     Node 4, Type 0, BuildingBlock: ESEHIV_clean_linker_0, # of connection points: 3
#     Node 5, Type 0, BuildingBlock: ESEHIV_clean_linker_0, # of connection points: 3
#     Node 6, Type 0, BuildingBlock: ESEHIV_clean_linker_0, # of connection points: 3
#     Node 7, Type 0, BuildingBlock: ESEHIV_clean_linker_0, # of connection points: 3
#     Node 8, Type 1, BuildingBlock: LEVNOQ01_clean_sbu_1, # of connection points: 6
#     Node 9, Type 1, BuildingBlock: LEVNOQ01_clean_sbu_1, # of connection points: 6
#     Node 10, Type 1, BuildingBlock: LEVNOQ01_clean_sbu_1, # of connection points: 6
#     Node 11, Type 1, BuildingBlock: LEVNOQ01_clean_sbu_1, # of connection points: 6
#     Edge 12, Type (0, 1), BuildingBlock: AJUNOK_clean_linker_0, # of connection points: 2
#     Edge 13, Type (0, 1), BuildingBlock: AJUNOK_clean_linker_0, # of connection points: 2
#     Edge 14, Type (0, 1), BuildingBlock: AJUNOK_clean_linker_0, # of connection points: 2
#     Edge 15, Type (0, 1), BuildingBlock: AJUNOK_clean_linker_0, # of connection points: 2
#     Edge 16, Type (0, 1), BuildingBlock: AJUNOK_clean_linker_0, # of connection points: 2
#     Edge 17, Type (0, 1), BuildingBlock: AJUNOK_clean_linker_0, # of connection points: 2
#     Edge 18, Type (0, 1), BuildingBlock: AJUNOK_clean_linker_0, # of connection points: 2
#     Edge 19, Type (0, 1), BuildingBlock: AJUNOK_clean_linker_0, # of connection points: 2
#     Edge 20, Type (0, 1), BuildingBlock: AJUNOK_clean_linker_0, # of connection points: 2
#     Edge 21, Type (0, 1), BuildingBlock: AJUNOK_clean_linker_0, # of connection points: 2
#     Edge 22, Type (0, 1), BuildingBlock: AJUNOK_clean_linker_0, # of connection points: 2
#     Edge 23, Type (0, 1), BuildingBlock: AJUNOK_clean_linker_0, # of connection points: 2
#     Edge 24, Type (0, 1), BuildingBlock: AJUNOK_clean_linker_0, # of connection points: 2
#     Edge 25, Type (0, 1), BuildingBlock: AJUNOK_clean_linker_0, # of connection points: 2
#     Edge 26, Type (0, 1), BuildingBlock: AJUNOK_clean_linker_0, # of connection points: 2
#     Edge 27, Type (0, 1), BuildingBlock: AJUNOK_clean_linker_0, # of connection points: 2
#     Edge 28, Type (0, 1), BuildingBlock: AJUNOK_clean_linker_0, # of connection points: 2
#     Edge 29, Type (0, 1), BuildingBlock: AJUNOK_clean_linker_0, # of connection points: 2
#     Edge 30, Type (0, 1), BuildingBlock: AJUNOK_clean_linker_0, # of connection points: 2
#     Edge 31, Type (0, 1), BuildingBlock: AJUNOK_clean_linker_0, # of connection points: 2
#     Edge 32, Type (0, 1), BuildingBlock: AJUNOK_clean_linker_0, # of connection points: 2
#     Edge 33, Type (0, 1), BuildingBlock: AJUNOK_clean_linker_0, # of connection points: 2
#     Edge 34, Type (0, 1), BuildingBlock: AJUNOK_clean_linker_0, # of connection points: 2
#     Edge 35, Type (0, 1), BuildingBlock: AJUNOK_clean_linker_0, # of connection points: 2
# Relax obj value: 0.035
# Max RMSD: 0.110
# Mean RMSD: 0.045
data_MOF--net-pry--node1-LEVNOQ01_clean_sbu_1--node2-ESEHIV_clean_linker_0--edge1-AJUNOK_clean_linker_0
_symmetry_space_group_name_H-M    P1
_symmetry_Int_Tables_number       1
_symmetry_cell_setting            triclinic
loop_
_symmetry_equiv_pos_as_xyz
'x, y, z'
_cell_length_a     25.61121
_cell_length_b     24.490018
_cell_length_c     24.323253
_cell_angle_alpha  92.682806
_cell_angle_beta   91.308659
_cell_angle_gamma 93.990506
loop_
_atom_site_label
_atom_site_type_symbol
_atom_site_fract_x
_atom_site_fract_y
_atom_site_fract_z
_atom_type_partial_charge
H0 H 0.07342 0.19198 0.17485 0.0
H1 H 0.18319 0.06925 0.1983 0.0
H2 H 0.19682 0.17244 0.06005 0.0
C3 C 0.10683 0.1706 0.16121 0.0
C4 C 0.13218 0.18612 0.11293 0.0
C5 C 0.12507 0.12854 0.19257 0.0
C6 C 0.16905 0.10202 0.17482 0.0
C7 C 0.19511 0.11725 0.127 0.0
C8 C 0.17602 0.15901 0.09588 0.0
H9 H 0.32651 0.96994 0.64617 0.0
H10 H 0.45041 0.86165 0.66047 0.0
H11 H 0.3395 0.83906 0.52412 0.0
C12 C 0.34751 0.93613 0.62968 0.0
C13 C 0.3287 0.90717 0.58124 0.0
C14 C 0.39094 0.91965 0.65895 0.0
C15 C 0.41777 0.87575 0.63719 0.0
C16 C 0.40014 0.84685 0.58812 0.0
C17 C 0.35472 0.86218 0.56081 0.0
H18 H 0.69842 0.29073 0.92157 0.0
H19 H 0.72219 0.39948 0.79027 0.0
H20 H 0.5745 0.30515 0.80408 0.0
C21 C 0.68499 0.3067 0.88327 0.0
C22 C 0.63535 0.28956 0.86126 0.0
C23 C 0.71511 0.34799 0.85879 0.0
C24 C 0.69724 0.36886 0.80969 0.0
C25 C 0.64618 0.35439 0.78874 0.0
C26 C 0.61526 0.31455 0.8156 0.0
H27 H 0.85085 0.66687 0.46688 0.0
H28 H 0.98172 0.62859 0.36683 0.0
H29 H 0.83557 0.53342 0.34602 0.0
C30 C 0.86948 0.63977 0.43814 0.0
C31 C 0.83889 0.59605 0.41173 0.0
C32 C 0.9213 0.65255 0.42198 0.0
C33 C 0.94229 0.61917 0.3806 0.0
C34 C 0.9107 0.57829 0.3515 0.0
C35 C 0.86009 0.56495 0.36893 0.0
H36 H 0.81057 0.9317 0.84041 0.0
H37 H 0.93731 0.82548 0.84347 0.0
H38 H 0.82744 0.82587 0.97476 0.0
C39 C 0.83219 0.902 0.86136 0.0
C40 C 0.81334 0.88108 0.91053 0.0
C41 C 0.87796 0.88363 0.83779 0.0
C42 C 0.9031 0.84109 0.86239 0.0
C43 C 0.88421 0.81877 0.9113 0.0
C44 C 0.8408 0.84091 0.93595 0.0
H45 H 0.55432 0.13695 0.35205 0.0
H46 H 0.68266 0.0381 0.38144 0.0
H47 H 0.67778 0.1918 0.47051 0.0
C48 C 0.59013 0.13087 0.37462 0.0
C49 C 0.61018 0.17031 0.41576 0.0
C50 C 0.61773 0.08495 0.35943 0.0
C51 C 0.66213 0.0745 0.39092 0.0
C52 C 0.68247 0.11246 0.43216 0.0
C53 C 0.65808 0.16114 0.44251 0.0
H54 H 0.28586 0.74674 0.12219 0.0
H55 H 0.25862 0.61822 0.23331 0.0
H56 H 0.37693 0.74814 0.27281 0.0
C57 C 0.29299 0.73048 0.16217 0.0
C58 C 0.33209 0.7559 0.19828 0.0
C59 C 0.26734 0.68052 0.1745 0.0
C60 C 0.27846 0.65729 0.2244 0.0
C61 C 0.32024 0.67919 0.25852 0.0
C62 C 0.34452 0.73054 0.2471 0.0
H63 H 0.05102 0.35256 0.63519 0.0
H64 H 0.1634 0.37214 0.50701 0.0
H65 H 0.18248 0.46886 0.65945 0.0
C66 C 0.08492 0.37385 0.6181 0.0
C67 C 0.11298 0.41449 0.65126 0.0
C68 C 0.1027 0.35762 0.56589 0.0
C69 C 0.14898 0.38407 0.54702 0.0
C70 C 0.17884 0.42296 0.58122 0.0
C71 C 0.15994 0.43873 0.63283 0.0
O72 O 0.01081 0.02772 0.66957 0.0
Mg73 Mg 0.0645 0.06503 0.61763 0.0
O74 O 0.97188 0.97594 0.60142 0.0
Mg75 Mg 0.00363 0.0091 0.51533 0.0
O76 O 0.03138 0.09522 0.54955 0.0
O77 O 0.07015 0.14831 0.61792 0.0
O78 O 0.036 0.04227 0.43134 0.0
O79 O 0.92057 0.04951 0.50695 0.0
Mg80 Mg 0.94029 0.97073 0.43501 0.0
O81 O 0.98147 0.91816 0.48008 0.0
O82 O 0.97136 0.01955 0.37276 0.0
O83 O 0.86801 0.98557 0.46532 0.0
O84 O 0.93484 0.89491 0.40177 0.0
C85 C 0.12864 0.9874 0.55506 0.0
C86 C 0.97738 0.98979 0.65295 0.0
C87 C 0.04735 0.14344 0.56992 0.0
C88 C 0.01594 0.04351 0.38291 0.0
C89 C 0.87427 0.03052 0.49244 0.0
C90 C 0.96243 0.88143 0.44323 0.0
O91 O 0.13008 0.02399 0.59373 0.0
O92 O 0.08701 0.97488 0.52585 0.0
O93 O 0.43817 0.07145 0.10591 0.0
Mg94 Mg 0.51298 0.07778 0.06949 0.0
O95 O 0.41368 0.01908 0.03369 0.0
Mg96 Mg 0.49811 0.99455 0.01348 0.0
O97 O 0.52576 0.08544 0.98828 0.0
O98 O 0.52101 0.15589 0.05003 0.0
O99 O 0.58263 0.96655 0.99037 0.0
O100 O 0.47008 0.98769 0.91947 0.0
Mg101 Mg 0.48904 0.86768 0.95961 0.0
O102 O 0.46901 0.90859 0.02853 0.0
O103 O 0.57089 0.87916 0.95962 0.0
O104 O 0.44926 0.90005 0.89397 0.0
O105 O 0.45144 0.81917 0.01638 0.0
C106 C 0.56292 0.02162 0.1362 0.0
C107 C 0.40175 0.04747 0.07609 0.0
C108 C 0.52953 0.13791 1.00077 0.0
C109 C 0.60081 0.92168 0.97224 0.0
C110 C 0.45109 0.95053 0.8843 0.0
C111 C 0.44976 0.8634 0.04697 0.0
O112 O 0.58044 0.06427 0.1144 0.0
O113 O 0.5249 0.99309 0.11144 0.0
O114 O 0.52939 0.63532 0.58727 0.0
Mg115 Mg 0.49559 0.55575 0.59802 0.0
O116 O 0.48181 0.60463 0.51586 0.0
Mg117 Mg 0.50724 0.51261 0.50026 0.0
O118 O 0.54077 0.49063 0.58776 0.0
O119 O 0.52134 0.53053 0.66984 0.0
O120 O 0.53041 0.41937 0.48014 0.0
O121 O 0.59186 0.54748 0.48034 0.0
Mg122 Mg 0.5214 0.48145 0.38991 0.0
O123 O 0.46981 0.53477 0.41589 0.0
O124 O 0.50075 0.39925 0.39617 0.0
O125 O 0.59998 0.51064 0.39655 0.0
O126 O 0.48292 0.51164 0.32691 0.0
C127 C 0.39478 0.50032 0.554 0.0
C128 C 0.50041 0.645 0.54703 0.0
C129 C 0.54476 0.49435 0.64134 0.0
C130 C 0.52007 0.38379 0.4403 0.0
C131 C 0.61905 0.53931 0.43776 0.0
C132 C 0.45846 0.53863 0.36388 0.0
O133 O 0.41255 0.53864 0.58764 0.0
O134 O 0.42501 0.47841 0.52004 0.0
O135 O 0.00361 0.37749 0.04754 0.0
Mg136 Mg 0.03044 0.45962 0.07194 0.0
O137 O 0.06282 0.41522 0.99845 0.0
Mg138 Mg 0.01061 0.49775 1.00044 0.0
O139 O 0.97846 0.51187 0.09565 0.0
O140 O 0.01781 0.45667 0.15242 0.0
O141 O 0.96165 0.58337 0.00311 0.0
O142 O 0.93684 0.44145 0.98043 0.0
Mg143 Mg 0.99302 0.53469 0.93227 0.0
O144 O 0.04273 0.48118 0.90591 0.0
O145 O 0.02084 0.61732 0.95054 0.0
O146 O 0.91094 0.50962 0.93544 0.0
O147 O -0.00246 0.53162 0.85001 0.0
C148 C 0.11873 0.53789 0.04998 0.0
C149 C 0.04307 0.37175 0.01894 0.0
C150 C 0.98565 0.49368 0.14467 0.0
C151 C 0.98265 0.62538 0.98061 0.0
C152 C 0.90075 0.46321 0.95478 0.0
C153 C 0.03047 0.49517 0.85657 0.0
O154 O 0.11129 0.49235 0.07228 0.0
O155 O 0.08257 0.55418 0.02007 0.0
C156 C 0.04355 0.0985 0.24158 0.0
C157 C 0.09791 0.11145 0.2434 0.0
C158 C 0.01756 0.078 0.28731 0.0
C159 C 0.0446 0.06999 0.33721 0.0
H160 H 0.0211 0.10258 0.20389 0.0
H161 H 0.97582 0.06753 0.28303 0.0
S162 S 0.18688 0.102 0.36482 0.0
N163 N 0.17765 0.11802 0.30026 0.0
N164 N 0.12885 0.07963 0.38619 0.0
C165 C 0.09876 0.08472 0.34023 0.0
C166 C 0.12535 0.10525 0.29339 0.0
C167 C 0.45672 0.95712 0.73175 0.0
C168 C 0.40421 0.94278 0.71561 0.0
C169 C 0.47133 0.96748 0.78748 0.0
C170 C 0.43392 0.96367 0.82876 0.0
H171 H 0.48707 0.95703 0.70144 0.0
H172 H 0.5126 0.97355 0.79865 0.0
S173 S 0.29114 0.93268 0.8084 0.0
N174 N 0.31431 0.92975 0.74561 0.0
N175 N 0.34224 0.94909 0.85001 0.0
C176 C 0.38105 0.95363 0.81296 0.0
C177 C 0.36603 0.94326 0.7564 0.0
C178 C 0.63829 0.4437 0.74424 0.0
C179 C 0.6233 0.38711 0.74504 0.0
C180 C 0.61466 0.4774 0.7079 0.0
C181 C 0.57473 0.45624 0.67122 0.0
H182 H 0.66669 0.46333 0.77375 0.0
H183 H 0.62628 0.52088 0.71007 0.0
S184 S 0.51592 0.31379 0.6591 0.0
N185 N 0.56422 0.31222 0.70503 0.0
N186 N 0.51762 0.37754 0.63958 0.0
C187 C 0.55873 0.40044 0.67099 0.0
C188 C 0.58343 0.36544 0.70735 0.0
C189 C 0.93082 0.50067 0.28719 0.0
C190 C 0.92686 0.55698 0.29723 0.0
C191 C 0.94744 0.48037 0.23627 0.0
C192 C 0.95956 0.51558 0.1934 0.0
H193 H 0.92241 0.47243 0.31934 0.0
H194 H 0.95196 0.4368 0.23081 0.0
S195 S 0.95084 0.66597 0.19796 0.0
N196 N 0.93289 0.64746 0.25959 0.0
N197 N 0.96389 0.60898 0.16353 0.0
C198 C 0.95334 0.57167 0.20212 0.0
C199 C 0.93713 0.59247 0.25424 0.0
C200 C 0.285 0.09341 0.15428 0.0
C201 C 0.2454 0.09348 0.11327 0.0
C202 C 0.33458 0.07608 0.14215 0.0
C203 C 0.34663 0.05752 0.08858 0.0
H204 H 0.27829 0.10888 0.19581 0.0
H205 H 0.36417 0.07858 0.1749 0.0
S206 S 0.25507 0.04482 0.96737 0.0
N207 N 0.22024 0.07005 0.01767 0.0
N208 N 0.31356 0.03701 0.99475 0.0
C209 C 0.30662 0.05486 0.04763 0.0
C210 C 0.25609 0.07315 0.05995 0.0
C211 C 0.23295 0.887 0.56226 0.0
C212 C 0.27852 0.92171 0.55664 0.0
C213 C 0.183 0.90675 0.5558 0.0
C214 C 0.17763 0.96161 0.54357 0.0
H215 H 0.23594 0.84601 0.57641 0.0
H216 H 0.14884 0.88053 0.56513 0.0
S217 S 0.28448 0.06554 0.51531 0.0
N218 N 0.31489 0.01076 0.53093 0.0
N219 N 0.22126 0.04784 0.51884 0.0
C220 C 0.22274 0.99483 0.53272 0.0
C221 C 0.27325 0.97485 0.53921 0.0
C222 C 0.80434 0.34769 0.90299 0.0
C223 C 0.76054 0.37606 0.88896 0.0
C224 C 0.84892 0.37565 0.92818 0.0
C225 C 0.85064 0.43261 0.93992 0.0
H226 H 0.80483 0.30424 0.89252 0.0
H227 H 0.88313 0.35314 0.93567 0.0
S228 S 0.74205 0.52287 0.92068 0.0
N229 N 0.7186 0.46207 0.89554 0.0
N230 N 0.80246 0.5147 0.9423 0.0
C231 C 0.80564 0.46041 0.92957 0.0
C232 C 0.76049 0.43207 0.90418 0.0
C233 C 0.76267 0.57602 0.4728 0.0
C234 C 0.78205 0.58899 0.42097 0.0
C235 C 0.70884 0.56305 0.47948 0.0
C236 C 0.67337 0.56275 0.43441 0.0
H237 H 0.78945 0.57357 0.50757 0.0
H238 H 0.69542 0.55043 0.51916 0.0
S239 S 0.70392 0.60307 0.29289 0.0
N240 N 0.76108 0.60775 0.3261 0.0
N241 N 0.66059 0.58298 0.33828 0.0
C242 C 0.69214 0.57933 0.38353 0.0
C243 C 0.74637 0.59259 0.37688 0.0
C244 C 0.12204 0.28654 0.1093 0.0
C245 C 0.11549 0.23401 0.08329 0.0
C246 C 0.10274 0.33206 0.08478 0.0
C247 C 0.07561 0.32678 0.03359 0.0
H248 H 0.1409 0.29218 0.1497 0.0
H249 H 0.10628 0.37126 0.10767 0.0
S250 S 0.05019 0.19857 0.94747 0.0
N251 N 0.08276 0.17965 1.00206 0.0
N252 N 0.04458 0.26519 0.95695 0.0
C253 C 0.07032 0.27487 0.00623 0.0
C254 C 0.09085 0.22849 0.03082 0.0
C255 C 0.59827 0.1956 0.8781 0.0
C256 C 0.60152 0.25196 0.89184 0.0
C257 C 0.57193 0.15867 0.91195 0.0
C258 C 0.54848 0.17736 0.96048 0.0
H259 H 0.61796 0.17994 0.84234 0.0
H260 H 0.57221 0.11523 0.9014 0.0
S261 S 0.54174 0.3228 0.00961 0.0
N262 N 0.57631 0.32572 0.95326 0.0
N263 N 0.52599 0.25708 0.01695 0.0
C264 C 0.54894 0.23435 0.97236 0.0
C265 C 0.57585 0.27155 0.938 0.0
C266 C 0.97026 0.73743 0.3932 0.0
C267 C 0.94747 0.70787 0.43606 0.0
C268 C 0.98152 0.79378 0.39894 0.0
C269 C 0.97018 0.82312 0.44743 0.0
H270 H 0.97486 0.71844 0.35271 0.0
H271 H 0.99458 0.81526 0.3632 0.0
S272 S 0.92219 0.76506 0.57625 0.0
N273 N 0.92368 0.71142 0.53258 0.0
N274 N 0.94321 0.81884 0.54225 0.0
C275 C 0.95331 0.79409 0.49287 0.0
C276 C 0.94213 0.73606 0.48732 0.0
C277 C 0.39661 0.74678 0.56062 0.0
C278 C 0.42623 0.79715 0.56939 0.0
C279 C 0.42102 0.69788 0.5505 0.0
C280 C 0.47584 0.69772 0.54812 0.0
H281 H 0.35444 0.74474 0.56415 0.0
H282 H 0.39691 0.65967 0.54652 0.0
S283 S 0.57081 0.81886 0.5638 0.0
N284 N 0.51314 0.84417 0.57151 0.0
N285 N 0.55886 0.752 0.55291 0.0
C286 C 0.50578 0.74784 0.55499 0.0
C287 C 0.481 0.79764 0.56528 0.0
C288 C 0.91372 0.87967 0.74117 0.0
C289 C 0.89993 0.91052 0.7885 0.0
C290 C 0.93578 0.90535 0.69538 0.0
C291 C 0.94551 0.96268 0.6958 0.0
H292 H 0.90777 0.8354 0.73969 0.0
H293 H 0.94733 0.88009 0.66062 0.0
S294 S 0.91533 0.06197 0.80889 0.0
N295 N 0.89687 0.00153 0.83196 0.0
N296 N 0.93761 0.04941 0.74678 0.0
C297 C 0.93063 0.99379 0.74234 0.0
C298 C 0.90811 0.96787 0.78842 0.0
C299 C 0.55254 0.03777 0.28968 0.0
C300 C 0.60488 0.05351 0.30597 0.0
C301 C 0.53914 0.01942 0.23503 0.0
C302 C 0.57762 0.01662 0.1948 0.0
H303 H 0.52141 0.04274 0.3185 0.0
H304 H 0.49809 0.01254 0.22315 0.0
S305 S 0.72042 0.0473 0.21667 0.0
N306 N 0.69561 0.06027 0.27753 0.0
N307 N 0.67017 0.02559 0.17583 0.0
C308 C 0.63023 0.02761 0.2116 0.0
C309 C 0.64395 0.04619 0.26688 0.0
C310 C 0.35323 0.5877 0.2734 0.0
C311 C 0.3475 0.64169 0.29406 0.0
C312 C 0.38707 0.55402 0.29859 0.0
C313 C 0.41715 0.57268 0.34535 0.0
H314 H 0.33415 0.57191 0.23527 0.0
H315 H 0.39139 0.51365 0.27969 0.0
S316 S 0.41578 0.70904 0.41761 0.0
N317 N 0.3723 0.71067 0.36677 0.0
N318 N 0.43852 0.64753 0.41294 0.0
C319 C 0.41046 0.6253 0.3684 0.0
C320 C 0.37517 0.65978 0.3429 0.0
C321 C 0.04196 0.44912 0.70769 0.0
C322 C 0.09274 0.43138 0.70533 0.0
C323 C 0.02212 0.46818 0.75734 0.0
C324 C 0.05207 0.46973 0.80675 0.0
H325 H 0.01782 0.44956 0.67054 0.0
H326 H 0.98299 0.48242 0.75678 0.0
S327 S 0.18596 0.42348 0.82319 0.0
N328 N 0.17183 0.41336 0.75669 0.0
N329 N 0.13404 0.44911 0.85082 0.0
C330 C 0.10222 0.45008 0.80548 0.0
C331 C 0.12278 0.43112 0.75449 0.0
C332 C 0.72647 0.8533 0.94851 0.0
C333 C 0.76173 0.89566 0.93218 0.0
C334 C 0.67594 0.86341 0.96439 0.0
C335 C 0.65763 0.91633 0.96427 0.0
H336 H 0.7371 0.81121 0.94697 0.0
H337 H 0.65034 0.82865 0.97517 0.0
S338 S 0.73562 0.04294 0.93017 0.0
N339 N 0.77626 0.9939 0.92133 0.0
N340 N 0.67997 0.01261 0.94996 0.0
C341 C 0.69295 0.95981 0.95053 0.0
C342 C 0.7451 0.9495 0.93444 0.0
C343 C 0.77916 0.12933 0.4478 0.0
C344 C 0.73152 0.10191 0.46159 0.0
C345 C 0.8272 0.11038 0.46491 0.0
C346 C 0.82857 0.06347 0.49601 0.0
H347 H 0.77929 0.16273 0.42011 0.0
H348 H 0.86305 0.12902 0.44906 0.0
S349 S 0.71456 0.98373 0.55042 0.0
N350 N 0.68855 0.03086 0.51416 0.0
N351 N 0.77866 0.99493 0.54592 0.0
C352 C 0.78121 0.03933 0.51435 0.0
C353 C 0.73259 0.05856 0.49708 0.0
C354 C 0.18897 0.66709 0.11122 0.0
C355 C 0.23508 0.64756 0.13241 0.0
C356 C 0.1532 0.63206 0.07967 0.0
C357 C 0.16247 0.57651 0.0691 0.0
H358 H 0.17902 0.70847 0.12195 0.0
H359 H 0.11632 0.64752 0.06723 0.0
S360 S 0.28312 0.50971 0.10464 0.0
N361 N 0.29289 0.57276 0.13187 0.0
N362 N 0.22441 0.50625 0.0746 0.0
C363 C 0.21057 0.55811 0.08577 0.0
C364 C 0.2473 0.59392 0.11693 0.0
C365 C 0.249 0.49862 0.57569 0.0
C366 C 0.23248 0.44285 0.56666 0.0
C367 C 0.30152 0.51707 0.57047 0.0
C368 C 0.33922 0.48053 0.5553 0.0
H369 H 0.22133 0.52799 0.58831 0.0
H370 H 0.31278 0.56017 0.57894 0.0
S371 S 0.31653 0.33054 0.52736 0.0
N372 N 0.25833 0.35118 0.54248 0.0
N373 N 0.35673 0.38635 0.5307 0.0
C374 C 0.32307 0.42504 0.54433 0.0
C375 C 0.26973 0.40607 0.55043 0.0
C376 C 0.96333 0.7703 0.94035 0.0
C377 C 0.90856 0.77135 0.93606 0.0
C378 C 0.98694 0.72448 0.95959 0.0
C379 C 0.9569 0.67766 0.97563 0.0
H380 H 0.98828 0.80472 0.92761 0.0
H381 H 0.02927 0.72478 0.95961 0.0
S382 S 0.81193 0.66001 0.97446 0.0
N383 N 0.82479 0.72151 0.95096 0.0
N384 N 0.86934 0.6363 0.9882 0.0
C385 C 0.90215 0.67918 0.9743 0.0
C386 C 0.87798 0.72566 0.95413 0.0
C387 C 0.34592 0.84172 0.14718 0.0
C388 C 0.36737 0.80069 0.17766 0.0
C389 C 0.37608 0.87052 0.10924 0.0
C390 C 0.42845 0.85947 0.10173 0.0
H391 H 0.30434 0.84722 0.1482 0.0
H392 H 0.35677 0.89631 0.08127 0.0
S393 S 0.50691 0.76746 0.18042 0.0
N394 N 0.44726 0.75844 0.2042 0.0
N395 N 0.50356 0.81461 0.13446 0.0
C396 C 0.45236 0.82557 0.13787 0.0
C397 C 0.42183 0.79548 0.1757 0.0
C398 C 0.11452 0.26607 0.5207 0.0
C399 C 0.07999 0.30532 0.53839 0.0
C400 C 0.09919 0.21014 0.51971 0.0
C401 C 0.04941 0.19195 0.53714 0.0
H402 H 0.15556 0.27748 0.51502 0.0
H403 H 0.12898 0.18121 0.51365 0.0
S404 S 0.9388 0.27749 0.56496 0.0
N405 N 0.98881 0.32199 0.55493 0.0
N406 N 0.96153 0.21614 0.55724 0.0
C407 C 0.0119 0.23028 0.54461 0.0
C408 C 0.02693 0.2874 0.54409 0.0
C409 C 0.55519 0.24472 0.3835 0.0
C410 C 0.58371 0.22285 0.42648 0.0
C411 C 0.53237 0.29464 0.39025 0.0
C412 C 0.53854 0.32725 0.43958 0.0
H413 H 0.55173 0.22465 0.34292 0.0
H414 H 0.51161 0.30876 0.35492 0.0
S415 S 0.60942 0.29057 0.56569 0.0
N416 N 0.61346 0.23722 0.52251 0.0
N417 N 0.57584 0.33445 0.53247 0.0
C418 C 0.5666 0.30644 0.48331 0.0
C419 C 0.58803 0.25383 0.47733 0.0
loop_
_geom_bond_atom_site_label_1
_geom_bond_atom_site_label_2
_geom_bond_distance
_geom_bond_site_symmetry_2
_ccdc_geom_bond_type
H0 C3 0.931 . S
H1 C6 0.928 . S
H2 C8 0.930 . S
C3 H0 0.931 . S
C3 C4 1.413 . S
C3 C5 1.360 . S
C4 C3 1.413 . S
C4 C8 1.429 . S
C5 C3 1.360 . S
C5 C6 1.372 . S
C6 H1 0.928 . S
C6 C5 1.372 . S
C6 C7 1.404 . S
C7 C6 1.404 . S
C7 C8 1.391 . S
C8 H2 0.930 . S
C8 C4 1.429 . S
C8 C7 1.391 . S
H9 C12 0.931 . S
H10 C15 0.928 . S
H11 C17 0.930 . S
C12 H9 0.931 . S
C12 C13 1.413 . S
C12 C14 1.360 . S
C13 C12 1.413 . S
C13 C17 1.429 . S
C14 C12 1.360 . S
C14 C15 1.372 . S
C15 H10 0.928 . S
C15 C14 1.372 . S
C15 C16 1.404 . S
C16 C15 1.404 . S
C16 C17 1.391 . S
C17 H11 0.930 . S
C17 C13 1.429 . S
C17 C16 1.391 . S
H18 C21 0.931 . S
H19 C24 0.928 . S
H20 C26 0.930 . S
C21 H18 0.931 . S
C21 C22 1.413 . S
C21 C23 1.360 . S
C22 C21 1.413 . S
C22 C26 1.429 . S
C23 C21 1.360 . S
C23 C24 1.372 . S
C24 H19 0.928 . S
C24 C23 1.372 . S
C24 C25 1.404 . S
C25 C24 1.404 . S
C25 C26 1.391 . S
C26 H20 0.930 . S
C26 C22 1.429 . S
C26 C25 1.391 . S
H27 C30 0.931 . S
H28 C33 0.928 . S
H29 C35 0.930 . S
C30 H27 0.931 . S
C30 C31 1.413 . S
C30 C32 1.360 . S
C31 C30 1.413 . S
C31 C35 1.429 . S
C32 C30 1.360 . S
C32 C33 1.372 . S
C33 H28 0.928 . S
C33 C32 1.372 . S
C33 C34 1.404 . S
C34 C33 1.404 . S
C34 C35 1.391 . S
C35 H29 0.930 . S
C35 C31 1.429 . S
C35 C34 1.391 . S
H36 C39 0.931 . S
H37 C42 0.928 . S
H38 C44 0.930 . S
C39 H36 0.931 . S
C39 C40 1.413 . S
C39 C41 1.360 . S
C40 C39 1.413 . S
C40 C44 1.429 . S
C41 C39 1.360 . S
C41 C42 1.372 . S
C42 H37 0.928 . S
C42 C41 1.372 . S
C42 C43 1.404 . S
C43 C42 1.404 . S
C43 C44 1.391 . S
C44 H38 0.930 . S
C44 C40 1.429 . S
C44 C43 1.391 . S
H45 C48 0.931 . S
H46 C51 0.928 . S
H47 C53 0.930 . S
C48 H45 0.931 . S
C48 C49 1.413 . S
C48 C50 1.360 . S
C49 C48 1.413 . S
C49 C53 1.429 . S
C50 C48 1.360 . S
C50 C51 1.372 . S
C51 H46 0.928 . S
C51 C50 1.372 . S
C51 C52 1.404 . S
C52 C51 1.404 . S
C52 C53 1.391 . S
C53 H47 0.930 . S
C53 C49 1.429 . S
C53 C52 1.391 . S
H54 C57 0.931 . S
H55 C60 0.928 . S
H56 C62 0.930 . S
C57 H54 0.931 . S
C57 C58 1.413 . S
C57 C59 1.360 . S
C58 C57 1.413 . S
C58 C62 1.429 . S
C59 C57 1.360 . S
C59 C60 1.372 . S
C60 H55 0.928 . S
C60 C59 1.372 . S
C60 C61 1.404 . S
C61 C60 1.404 . S
C61 C62 1.391 . S
C62 H56 0.930 . S
C62 C58 1.429 . S
C62 C61 1.391 . S
H63 C66 0.931 . S
H64 C69 0.928 . S
H65 C71 0.930 . S
C66 H63 0.931 . S
C66 C67 1.413 . S
C66 C68 1.360 . S
C67 C66 1.413 . S
C67 C71 1.429 . S
C68 C66 1.360 . S
C68 C69 1.372 . S
C69 H64 0.928 . S
C69 C68 1.372 . S
C69 C70 1.404 . S
C70 C69 1.404 . S
C70 C71 1.391 . S
C71 H65 0.930 . S
C71 C67 1.429 . S
C71 C70 1.391 . S
O72 Mg73 1.990 . S
O72 C86 1.253 1_445 S
Mg73 O72 1.990 . S
Mg73 O76 2.180 . S
Mg73 O77 2.117 . S
Mg73 O91 2.030 1_545 S
O74 Mg75 2.072 1_665 S
O74 C86 1.260 . S
Mg75 O74 2.072 1_445 S
Mg75 O76 2.099 . S
Mg75 O78 2.079 . S
Mg75 O79 2.072 1_455 S
Mg75 O81 2.099 1_445 S
Mg75 O92 2.079 1_545 S
O76 Mg73 2.180 . S
O76 Mg75 2.099 . S
O76 C87 1.279 . S
O77 Mg73 2.117 . S
O77 C87 1.250 . S
O78 Mg75 2.079 . S
O78 C88 1.264 . S
O79 Mg75 2.072 1_655 S
O79 C89 1.260 . S
Mg80 O81 2.180 . S
Mg80 O82 2.030 1_565 S
Mg80 O83 1.990 1_565 S
Mg80 O84 2.117 . S
O81 Mg75 2.099 1_665 S
O81 Mg80 2.180 . S
O81 C90 1.279 . S
O82 Mg80 2.030 1_545 S
O82 C88 1.248 1_655 S
O83 Mg80 1.990 1_545 S
O83 C89 1.253 . S
O84 Mg80 2.117 . S
O84 C90 1.250 . S
C85 O91 1.248 . S
C85 O92 1.264 . S
C86 O72 1.253 1_665 S
C86 O74 1.260 . S
C87 O76 1.279 . S
C87 O77 1.250 . S
C88 O78 1.264 . S
C88 O82 1.248 1_455 S
C89 O79 1.260 . S
C89 O83 1.253 . S
C90 O81 1.279 . S
C90 O84 1.250 . S
O91 Mg73 2.030 1_565 S
O91 C85 1.248 . S
O92 Mg75 2.079 1_565 S
O92 C85 1.264 . S
O93 Mg94 1.990 . S
O93 C107 1.253 . S
Mg94 O93 1.990 . S
Mg94 O97 2.180 1_554 S
Mg94 O98 2.117 1_554 S
Mg94 O112 2.030 . S
O95 Mg96 2.072 . S
O95 C107 1.260 . S
Mg96 O95 2.072 . S
Mg96 O97 2.099 1_554 S
Mg96 O99 2.079 1_544 S
Mg96 O100 2.072 1_554 S
Mg96 O102 2.099 1_545 S
Mg96 O113 2.079 . S
O97 Mg94 2.180 1_556 S
O97 Mg96 2.099 1_556 S
O97 C108 1.279 . S
O98 Mg94 2.117 1_556 S
O98 C108 1.250 . S
O99 Mg96 2.079 1_566 S
O99 C109 1.264 . S
O100 Mg96 2.072 1_556 S
O100 C110 1.260 1_545 S
Mg101 O102 2.180 1_556 S
Mg101 O103 2.030 . S
Mg101 O104 1.990 . S
Mg101 O105 2.117 1_556 S
O102 Mg96 2.099 1_565 S
O102 Mg101 2.180 1_554 S
O102 C111 1.279 . S
O103 Mg101 2.030 . S
O103 C109 1.248 . S
O104 Mg101 1.990 . S
O104 C110 1.253 . S
O105 Mg101 2.117 1_554 S
O105 C111 1.250 . S
C106 O112 1.248 . S
C106 O113 1.264 . S
C107 O93 1.253 . S
C107 O95 1.260 . S
C108 O97 1.279 . S
C108 O98 1.250 . S
C109 O99 1.264 . S
C109 O103 1.248 . S
C110 O100 1.260 1_565 S
C110 O104 1.253 . S
C111 O102 1.279 . S
C111 O105 1.250 . S
O112 Mg94 2.030 . S
O112 C106 1.248 . S
O113 Mg96 2.079 . S
O113 C106 1.264 . S
O114 Mg115 1.990 . S
O114 C128 1.253 . S
Mg115 O114 1.990 . S
Mg115 O118 2.180 . S
Mg115 O119 2.117 . S
Mg115 O133 2.030 . S
O116 Mg117 2.072 . S
O116 C128 1.260 . S
Mg117 O116 2.072 . S
Mg117 O118 2.099 . S
Mg117 O120 2.079 . S
Mg117 O121 2.072 . S
Mg117 O123 2.099 . S
Mg117 O134 2.079 . S
O118 Mg115 2.180 . S
O118 Mg117 2.099 . S
O118 C129 1.279 . S
O119 Mg115 2.117 . S
O119 C129 1.250 . S
O120 Mg117 2.079 . S
O120 C130 1.264 . S
O121 Mg117 2.072 . S
O121 C131 1.260 . S
Mg122 O123 2.180 . S
Mg122 O124 2.030 . S
Mg122 O125 1.990 . S
Mg122 O126 2.117 . S
O123 Mg117 2.099 . S
O123 Mg122 2.180 . S
O123 C132 1.279 . S
O124 Mg122 2.030 . S
O124 C130 1.248 . S
O125 Mg122 1.990 . S
O125 C131 1.253 . S
O126 Mg122 2.117 . S
O126 C132 1.250 . S
C127 O133 1.248 . S
C127 O134 1.264 . S
C128 O114 1.253 . S
C128 O116 1.260 . S
C129 O118 1.279 . S
C129 O119 1.250 . S
C130 O120 1.264 . S
C130 O124 1.248 . S
C131 O121 1.260 . S
C131 O125 1.253 . S
C132 O123 1.279 . S
C132 O126 1.250 . S
O133 Mg115 2.030 . S
O133 C127 1.248 . S
O134 Mg117 2.079 . S
O134 C127 1.264 . S
O135 Mg136 1.990 . S
O135 C149 1.253 . S
Mg136 O135 1.990 . S
Mg136 O139 2.180 1_455 S
Mg136 O140 2.117 1_455 S
Mg136 O154 2.030 . S
O137 Mg138 2.072 . S
O137 C149 1.260 . S
Mg138 O137 2.072 . S
Mg138 O139 2.099 1_455 S
Mg138 O141 2.079 1_454 S
Mg138 O142 2.072 1_454 S
Mg138 O144 2.099 1_554 S
Mg138 O155 2.079 . S
O139 Mg136 2.180 1_655 S
O139 Mg138 2.099 1_655 S
O139 C150 1.279 . S
O140 Mg136 2.117 1_655 S
O140 C150 1.250 . S
O141 Mg138 2.079 1_656 S
O141 C151 1.264 . S
O142 Mg138 2.072 1_656 S
O142 C152 1.259 . S
Mg143 O144 2.180 1_655 S
Mg143 O145 2.030 . S
Mg143 O146 1.990 . S
Mg143 O147 2.112 1_655 S
O144 Mg138 2.099 1_556 S
O144 Mg143 2.180 1_455 S
O144 C153 1.279 . S
O145 Mg143 2.030 . S
O145 C151 1.248 . S
O146 Mg143 1.990 . S
O146 C152 1.253 . S
O147 Mg143 2.112 1_455 S
O147 C153 1.256 . S
C148 O154 1.248 . S
C148 O155 1.264 . S
C149 O135 1.253 . S
C149 O137 1.260 . S
C150 O139 1.279 . S
C150 O140 1.250 . S
C151 O141 1.264 . S
C151 O145 1.248 . S
C152 O142 1.259 . S
C152 O146 1.253 . S
C153 O144 1.279 . S
C153 O147 1.256 . S
O154 Mg136 2.030 . S
O154 C148 1.248 . S
O155 Mg138 2.079 . S
O155 C148 1.264 . S
C156 C157 1.369 . S
C156 C158 1.419 . S
C156 H160 0.930 . S
C157 C156 1.369 . S
C157 C166 1.429 . S
C158 C156 1.419 . S
C158 C159 1.363 . S
C158 H161 0.929 1_455 S
C159 C158 1.363 . S
C159 C165 1.428 . S
H160 C156 0.930 . S
H161 C158 0.929 1_655 S
S162 N163 1.613 . S
S162 N164 1.610 . S
N163 S162 1.613 . S
N163 C166 1.350 . S
N164 S162 1.610 . S
N164 C165 1.351 . S
C165 C159 1.428 . S
C165 N164 1.351 . S
C165 C166 1.434 . S
C166 C157 1.429 . S
C166 N163 1.350 . S
C166 C165 1.434 . S
C167 C168 1.369 . S
C167 C169 1.419 . S
C167 H171 0.930 . S
C168 C167 1.369 . S
C168 C177 1.429 . S
C169 C167 1.419 . S
C169 C170 1.363 . S
C169 H172 0.929 . S
C170 C169 1.363 . S
C170 C176 1.428 . S
H171 C167 0.930 . S
H172 C169 0.929 . S
S173 N174 1.613 . S
S173 N175 1.610 . S
N174 S173 1.613 . S
N174 C177 1.350 . S
N175 S173 1.610 . S
N175 C176 1.351 . S
C176 C170 1.428 . S
C176 N175 1.351 . S
C176 C177 1.434 . S
C177 C168 1.429 . S
C177 N174 1.350 . S
C177 C176 1.434 . S
C178 C179 1.369 . S
C178 C180 1.419 . S
C178 H182 0.930 . S
C179 C178 1.369 . S
C179 C188 1.429 . S
C180 C178 1.419 . S
C180 C181 1.363 . S
C180 H183 0.929 . S
C181 C180 1.363 . S
C181 C187 1.428 . S
H182 C178 0.930 . S
H183 C180 0.929 . S
S184 N185 1.613 . S
S184 N186 1.610 . S
N185 S184 1.613 . S
N185 C188 1.350 . S
N186 S184 1.610 . S
N186 C187 1.351 . S
C187 C181 1.428 . S
C187 N186 1.351 . S
C187 C188 1.434 . S
C188 C179 1.429 . S
C188 N185 1.350 . S
C188 C187 1.434 . S
C189 C190 1.369 . S
C189 C191 1.419 . S
C189 H193 0.930 . S
C190 C189 1.369 . S
C190 C199 1.429 . S
C191 C189 1.419 . S
C191 C192 1.363 . S
C191 H194 0.929 . S
C192 C191 1.363 . S
C192 C198 1.428 . S
H193 C189 0.930 . S
H194 C191 0.929 . S
S195 N196 1.613 . S
S195 N197 1.610 . S
N196 S195 1.613 . S
N196 C199 1.350 1_455 S
N197 S195 1.610 . S
N197 C198 1.351 1_455 S
C198 C192 1.428 . S
C198 N197 1.351 1_655 S
C198 C199 1.434 . S
C199 C190 1.429 . S
C199 N196 1.350 1_655 S
C199 C198 1.434 . S
C200 C201 1.369 . S
C200 C202 1.419 . S
C200 H204 0.930 . S
C201 C200 1.369 . S
C201 C210 1.429 . S
C202 C200 1.419 . S
C202 C203 1.363 . S
C202 H205 0.929 . S
C203 C202 1.363 . S
C203 C209 1.428 . S
H204 C200 0.930 . S
H205 C202 0.929 . S
S206 N207 1.613 1_556 S
S206 N208 1.610 . S
N207 S206 1.613 1_554 S
N207 C210 1.350 . S
N208 S206 1.610 . S
N208 C209 1.351 1_556 S
C209 C203 1.428 . S
C209 N208 1.351 1_554 S
C209 C210 1.434 . S
C210 C201 1.429 . S
C210 N207 1.350 . S
C210 C209 1.434 . S
C211 C212 1.369 . S
C211 C213 1.419 . S
C211 H215 0.930 . S
C212 C211 1.369 . S
C212 C221 1.429 . S
C213 C211 1.419 . S
C213 C214 1.363 . S
C213 H216 0.929 . S
C214 C213 1.363 . S
C214 C220 1.428 . S
H215 C211 0.930 . S
H216 C213 0.929 . S
S217 N218 1.613 . S
S217 N219 1.610 . S
N218 S217 1.613 . S
N218 C221 1.350 1_545 S
N219 S217 1.610 . S
N219 C220 1.351 1_545 S
C220 C214 1.428 . S
C220 N219 1.351 1_565 S
C220 C221 1.434 . S
C221 C212 1.429 . S
C221 N218 1.350 1_565 S
C221 C220 1.434 . S
C222 C223 1.369 . S
C222 C224 1.419 . S
C222 H226 0.930 . S
C223 C222 1.369 . S
C223 C232 1.429 . S
C224 C222 1.419 . S
C224 C225 1.363 . S
C224 H227 0.929 . S
C225 C224 1.363 . S
C225 C231 1.428 . S
H226 C222 0.930 . S
H227 C224 0.929 . S
S228 N229 1.613 1_554 S
S228 N230 1.610 . S
N229 S228 1.613 1_556 S
N229 C232 1.350 . S
N230 S228 1.610 . S
N230 C231 1.351 1_554 S
C231 C225 1.428 . S
C231 N230 1.351 1_556 S
C231 C232 1.434 . S
C232 C223 1.429 . S
C232 N229 1.350 . S
C232 C231 1.434 . S
C233 C234 1.369 . S
C233 C235 1.419 . S
C233 H237 0.930 . S
C234 C233 1.369 . S
C234 C243 1.429 . S
C235 C233 1.419 . S
C235 C236 1.363 . S
C235 H238 0.929 . S
C236 C235 1.363 . S
C236 C242 1.428 . S
H237 C233 0.930 . S
H238 C235 0.929 . S
S239 N240 1.613 . S
S239 N241 1.610 . S
N240 S239 1.613 . S
N240 C243 1.350 . S
N241 S239 1.610 . S
N241 C242 1.351 . S
C242 C236 1.428 . S
C242 N241 1.351 . S
C242 C243 1.434 . S
C243 C234 1.429 . S
C243 N240 1.350 . S
C243 C242 1.434 . S
C244 C245 1.369 . S
C244 C246 1.419 . S
C244 H248 0.930 . S
C245 C244 1.369 . S
C245 C254 1.429 . S
C246 C244 1.419 . S
C246 C247 1.363 . S
C246 H249 0.929 . S
C247 C246 1.363 . S
C247 C253 1.428 . S
H248 C244 0.930 . S
H249 C246 0.929 . S
S250 N251 1.613 . S
S250 N252 1.610 . S
N251 S250 1.613 . S
N251 C254 1.350 1_556 S
N252 S250 1.610 . S
N252 C253 1.351 1_556 S
C253 C247 1.428 . S
C253 N252 1.351 1_554 S
C253 C254 1.434 . S
C254 C245 1.429 . S
C254 N251 1.350 1_554 S
C254 C253 1.434 . S
C255 C256 1.369 . S
C255 C257 1.419 . S
C255 H259 0.930 . S
C256 C255 1.369 . S
C256 C265 1.429 . S
C257 C255 1.419 . S
C257 C258 1.363 . S
C257 H260 0.929 . S
C258 C257 1.363 . S
C258 C264 1.428 . S
H259 C255 0.930 . S
H260 C257 0.929 . S
S261 N262 1.613 . S
S261 N263 1.610 . S
N262 S261 1.613 . S
N262 C265 1.350 1_554 S
N263 S261 1.610 . S
N263 C264 1.351 1_554 S
C264 C258 1.428 . S
C264 N263 1.351 1_556 S
C264 C265 1.434 . S
C265 C256 1.429 . S
C265 N262 1.350 1_556 S
C265 C264 1.434 . S
C266 C267 1.369 . S
C266 C268 1.419 . S
C266 H270 0.930 . S
C267 C266 1.369 . S
C267 C276 1.429 . S
C268 C266 1.419 . S
C268 C269 1.363 . S
C268 H271 0.929 . S
C269 C268 1.363 . S
C269 C275 1.428 . S
H270 C266 0.930 . S
H271 C268 0.929 . S
S272 N273 1.613 . S
S272 N274 1.610 . S
N273 S272 1.613 . S
N273 C276 1.350 . S
N274 S272 1.610 . S
N274 C275 1.351 . S
C275 C269 1.428 . S
C275 N274 1.351 . S
C275 C276 1.434 . S
C276 C267 1.429 . S
C276 N273 1.350 . S
C276 C275 1.434 . S
C277 C278 1.369 . S
C277 C279 1.419 . S
C277 H281 0.930 . S
C278 C277 1.369 . S
C278 C287 1.429 . S
C279 C277 1.419 . S
C279 C280 1.363 . S
C279 H282 0.929 . S
C280 C279 1.363 . S
C280 C286 1.428 . S
H281 C277 0.930 . S
H282 C279 0.929 . S
S283 N284 1.613 . S
S283 N285 1.610 . S
N284 S283 1.613 . S
N284 C287 1.350 . S
N285 S283 1.610 . S
N285 C286 1.351 . S
C286 C280 1.428 . S
C286 N285 1.351 . S
C286 C287 1.434 . S
C287 C278 1.429 . S
C287 N284 1.350 . S
C287 C286 1.434 . S
C288 C289 1.369 . S
C288 C290 1.419 . S
C288 H292 0.930 . S
C289 C288 1.369 . S
C289 C298 1.429 . S
C290 C288 1.419 . S
C290 C291 1.363 . S
C290 H293 0.929 . S
C291 C290 1.363 . S
C291 C297 1.428 . S
H292 C288 0.930 . S
H293 C290 0.929 . S
S294 N295 1.616 1_455 S
S294 N296 1.610 . S
N295 S294 1.616 1_655 S
N295 C298 1.347 1_545 S
N296 S294 1.610 . S
N296 C297 1.351 1_445 S
C297 C291 1.428 . S
C297 N296 1.351 1_665 S
C297 C298 1.434 . S
C298 C289 1.429 . S
C298 N295 1.347 1_565 S
C298 C297 1.434 . S
C299 C300 1.369 . S
C299 C301 1.419 . S
C299 H303 0.930 . S
C300 C299 1.369 . S
C300 C309 1.429 . S
C301 C299 1.419 . S
C301 C302 1.363 . S
C301 H304 0.929 . S
C302 C301 1.363 . S
C302 C308 1.428 . S
H303 C299 0.930 . S
H304 C301 0.929 . S
S305 N306 1.613 . S
S305 N307 1.610 . S
N306 S305 1.613 . S
N306 C309 1.350 . S
N307 S305 1.610 . S
N307 C308 1.351 . S
C308 C302 1.428 . S
C308 N307 1.351 . S
C308 C309 1.434 . S
C309 C300 1.429 . S
C309 N306 1.350 . S
C309 C308 1.434 . S
C310 C311 1.369 . S
C310 C312 1.419 . S
C310 H314 0.930 . S
C311 C310 1.369 . S
C311 C320 1.429 . S
C312 C310 1.419 . S
C312 C313 1.363 . S
C312 H315 0.929 . S
C313 C312 1.363 . S
C313 C319 1.428 . S
H314 C310 0.930 . S
H315 C312 0.929 . S
S316 N317 1.613 . S
S316 N318 1.610 . S
N317 S316 1.613 . S
N317 C320 1.350 . S
N318 S316 1.610 . S
N318 C319 1.351 . S
C319 C313 1.428 . S
C319 N318 1.351 . S
C319 C320 1.434 . S
C320 C311 1.429 . S
C320 N317 1.350 . S
C320 C319 1.434 . S
C321 C322 1.369 . S
C321 C323 1.419 . S
C321 H325 0.930 . S
C322 C321 1.369 . S
C322 C331 1.429 . S
C323 C321 1.419 . S
C323 C324 1.363 . S
C323 H326 0.929 1_455 S
C324 C323 1.363 . S
C324 C330 1.428 . S
H325 C321 0.930 . S
H326 C323 0.929 1_655 S
S327 N328 1.613 . S
S327 N329 1.610 . S
N328 S327 1.613 . S
N328 C331 1.350 . S
N329 S327 1.610 . S
N329 C330 1.351 . S
C330 C324 1.428 . S
C330 N329 1.351 . S
C330 C331 1.434 . S
C331 C322 1.429 . S
C331 N328 1.350 . S
C331 C330 1.434 . S
C332 C333 1.369 . S
C332 C334 1.419 . S
C332 H336 0.930 . S
C333 C332 1.369 . S
C333 C342 1.429 . S
C334 C332 1.419 . S
C334 C335 1.363 . S
C334 H337 0.929 . S
C335 C334 1.363 . S
C335 C341 1.428 . S
H336 C332 0.930 . S
H337 C334 0.929 . S
S338 N339 1.613 . S
S338 N340 1.610 . S
N339 S338 1.613 . S
N339 C342 1.350 1_545 S
N340 S338 1.610 . S
N340 C341 1.351 1_545 S
C341 C335 1.428 . S
C341 N340 1.351 1_565 S
C341 C342 1.434 . S
C342 C333 1.429 . S
C342 N339 1.350 1_565 S
C342 C341 1.434 . S
C343 C344 1.369 . S
C343 C345 1.419 . S
C343 H347 0.930 . S
C344 C343 1.369 . S
C344 C353 1.429 . S
C345 C343 1.419 . S
C345 C346 1.363 . S
C345 H348 0.929 . S
C346 C345 1.363 . S
C346 C352 1.428 . S
H347 C343 0.930 . S
H348 C345 0.929 . S
S349 N350 1.613 . S
S349 N351 1.610 . S
N350 S349 1.613 . S
N350 C353 1.350 . S
N351 S349 1.610 . S
N351 C352 1.351 . S
C352 C346 1.428 . S
C352 N351 1.351 . S
C352 C353 1.434 . S
C353 C344 1.429 . S
C353 N350 1.350 . S
C353 C352 1.434 . S
C354 C355 1.369 . S
C354 C356 1.419 . S
C354 H358 0.930 . S
C355 C354 1.369 . S
C355 C364 1.429 . S
C356 C354 1.419 . S
C356 C357 1.363 . S
C356 H359 0.929 . S
C357 C356 1.363 . S
C357 C363 1.428 . S
H358 C354 0.930 . S
H359 C356 0.929 . S
S360 N361 1.613 1_556 S
S360 N362 1.610 . S
N361 S360 1.613 1_554 S
N361 C364 1.350 . S
N362 S360 1.610 . S
N362 C363 1.351 1_556 S
C363 C357 1.428 . S
C363 N362 1.351 1_554 S
C363 C364 1.434 . S
C364 C355 1.429 . S
C364 N361 1.350 . S
C364 C363 1.434 . S
C365 C366 1.369 . S
C365 C367 1.419 . S
C365 H369 0.930 . S
C366 C365 1.369 . S
C366 C375 1.429 . S
C367 C365 1.419 . S
C367 C368 1.363 . S
C367 H370 0.929 . S
C368 C367 1.363 . S
C368 C374 1.428 . S
H369 C365 0.930 . S
H370 C367 0.929 . S
S371 N372 1.613 . S
S371 N373 1.610 . S
N372 S371 1.613 . S
N372 C375 1.350 . S
N373 S371 1.610 . S
N373 C374 1.351 . S
C374 C368 1.428 . S
C374 N373 1.351 . S
C374 C375 1.434 . S
C375 C366 1.429 . S
C375 N372 1.350 . S
C375 C374 1.434 . S
C376 C377 1.369 . S
C376 C378 1.419 . S
C376 H380 0.930 . S
C377 C376 1.369 . S
C377 C386 1.429 . S
C378 C376 1.419 . S
C378 C379 1.363 . S
C378 H381 0.929 1_556 S
C379 C378 1.363 . S
C379 C385 1.428 . S
H380 C376 0.930 . S
H381 C378 0.929 1_554 S
S382 N383 1.613 . S
S382 N384 1.610 . S
N383 S382 1.613 . S
N383 C386 1.350 . S
N384 S382 1.610 . S
N384 C385 1.351 . S
C385 C379 1.428 . S
C385 N384 1.351 . S
C385 C386 1.434 . S
C386 C377 1.429 . S
C386 N383 1.350 . S
C386 C385 1.434 . S
C387 C388 1.369 . S
C387 C389 1.419 . S
C387 H391 0.930 . S
C388 C387 1.369 . S
C388 C397 1.429 . S
C389 C387 1.419 . S
C389 C390 1.363 . S
C389 H392 0.929 . S
C390 C389 1.363 . S
C390 C396 1.428 . S
H391 C387 0.930 . S
H392 C389 0.929 . S
S393 N394 1.613 . S
S393 N395 1.610 . S
N394 S393 1.613 . S
N394 C397 1.350 . S
N395 S393 1.610 . S
N395 C396 1.351 . S
C396 C390 1.428 . S
C396 N395 1.351 . S
C396 C397 1.434 . S
C397 C388 1.429 . S
C397 N394 1.350 . S
C397 C396 1.434 . S
C398 C399 1.369 . S
C398 C400 1.419 . S
C398 H402 0.930 . S
C399 C398 1.369 . S
C399 C408 1.429 . S
C400 C398 1.419 . S
C400 C401 1.363 . S
C400 H403 0.929 . S
C401 C400 1.363 . S
C401 C407 1.428 . S
H402 C398 0.930 . S
H403 C400 0.929 . S
S404 N405 1.613 . S
S404 N406 1.610 . S
N405 S404 1.613 . S
N405 C408 1.350 1_655 S
N406 S404 1.610 . S
N406 C407 1.351 1_655 S
C407 C401 1.428 . S
C407 N406 1.351 1_455 S
C407 C408 1.434 . S
C408 C399 1.429 . S
C408 N405 1.350 1_455 S
C408 C407 1.434 . S
C409 C410 1.369 . S
C409 C411 1.419 . S
C409 H413 0.930 . S
C410 C409 1.369 . S
C410 C419 1.429 . S
C411 C409 1.419 . S
C411 C412 1.363 . S
C411 H414 0.929 . S
C412 C411 1.363 . S
C412 C418 1.428 . S
H413 C409 0.930 . S
H414 C411 0.929 . S
S415 N416 1.613 . S
S415 N417 1.610 . S
N416 S415 1.613 . S
N416 C419 1.350 . S
N417 S415 1.610 . S
N417 C418 1.351 . S
C418 C412 1.428 . S
C418 N417 1.351 . S
C418 C419 1.434 . S
C419 C410 1.429 . S
C419 N416 1.350 . S
C419 C418 1.434 . S
C157 C5 1.541 . S
C159 C88 1.503 . S
C168 C14 1.480 . S
C170 C110 1.407 . S
C181 C129 1.242 . S
C179 C25 1.492 . S
C190 C34 1.679 . S
C192 C150 1.358 . S
C203 C107 1.622 . S
C201 C7 1.672 . S
C214 C85 1.554 . S
C212 C13 1.607 . S
C225 C152 1.349 . S
C223 C23 1.433 . S
C236 C131 1.401 . S
C234 C31 1.465 . S
C245 C4 1.621 . S
C247 C149 1.569 . S
C258 C108 1.276 . S
C256 C22 1.580 . S
C267 C32 1.578 . S
C269 C90 1.400 . S
C278 C16 1.480 . S
C280 C128 1.458 . S
C291 C86 1.483 . S
C289 C41 1.550 . S
C300 C50 1.376 . S
C302 C106 1.329 . S
C311 C61 1.514 . S
C313 C132 1.277 . S
C322 C67 1.616 . S
C324 C153 1.308 . S
C333 C40 1.612 . S
C335 C109 1.580 . S
C346 C89 1.579 . S
C344 C52 1.649 . S
C357 C148 1.305 . S
C355 C59 1.371 . S
C368 C127 1.446 . S
C366 C70 1.504 . S
C377 C43 1.498 . S
C379 C151 1.456 . S
C390 C111 1.265 . S
C388 C58 1.521 . S
C401 C87 1.304 . S
C399 C68 1.483 . S
C410 C49 1.441 . S
C412 C130 1.416 . S
