# Generated by pormake.
# Topology pth, (4,4)-cn, num edge types: 1
# Building blocks:
#     Node 0, Type 0, BuildingBlock: KUFVIS_clean_sbu_0, # of connection points: 4
#     Node 1, Type 0, BuildingBlock: KUFVIS_clean_sbu_0, # of connection points: 4
#     Node 2, Type 0, BuildingBlock: KUFVIS_clean_sbu_0, # of connection points: 4
#     Node 3, Type 1, BuildingBlock: MIFKUJ_clean_linker_1, # of connection points: 4
#     Node 4, Type 1, BuildingBlock: MIFKUJ_clean_linker_1, # of connection points: 4
#     Node 5, Type 1, BuildingBlock: MIFKUJ_clean_linker_1, # of connection points: 4
#     Edge 6, Type (0, 1), BuildingBlock: UVAHIK_clean_linker_0, # of connection points: 2
#     Edge 7, Type (0, 1), BuildingBlock: UVAHIK_clean_linker_0, # of connection points: 2
#     Edge 8, Type (0, 1), BuildingBlock: UVAHIK_clean_linker_0, # of connection points: 2
#     Edge 9, Type (0, 1), BuildingBlock: UVAHIK_clean_linker_0, # of connection points: 2
#     Edge 10, Type (0, 1), BuildingBlock: UVAHIK_clean_linker_0, # of connection points: 2
#     Edge 11, Type (0, 1), BuildingBlock: UVAHIK_clean_linker_0, # of connection points: 2
#     Edge 12, Type (0, 1), BuildingBlock: UVAHIK_clean_linker_0, # of connection points: 2
#     Edge 13, Type (0, 1), BuildingBlock: UVAHIK_clean_linker_0, # of connection points: 2
#     Edge 14, Type (0, 1), BuildingBlock: UVAHIK_clean_linker_0, # of connection points: 2
#     Edge 15, Type (0, 1), BuildingBlock: UVAHIK_clean_linker_0, # of connection points: 2
#     Edge 16, Type (0, 1), BuildingBlock: UVAHIK_clean_linker_0, # of connection points: 2
#     Edge 17, Type (0, 1), BuildingBlock: UVAHIK_clean_linker_0, # of connection points: 2
# Relax obj value: 0.017
# Max RMSD: 0.085
# Mean RMSD: 0.064
data_MOF--net-pth--node1-KUFVIS_clean_sbu_0--node2-MIFKUJ_clean_linker_1--edge1-UVAHIK_clean_linker_0
_symmetry_space_group_name_H-M    P1
_symmetry_Int_Tables_number       1
_symmetry_cell_setting            triclinic
loop_
_symmetry_equiv_pos_as_xyz
'x, y, z'
_cell_length_a     36.344618
_cell_length_b     36.430984
_cell_length_c     80.171964
_cell_angle_alpha  90.418681
_cell_angle_beta   91.717512
_cell_angle_gamma 120.24849
loop_
_atom_site_label
_atom_site_type_symbol
_atom_site_fract_x
_atom_site_fract_y
_atom_site_fract_z
_atom_type_partial_charge
Mn0 Mn 0.0297 0.05343 0.04261 0.0
Mn1 Mn 0.97148 0.08569 0.02021 0.0
C2 C 0.988 0.0132 0.01992 0.0
C3 C 0.03565 0.01599 0.06498 0.0
C4 C 0.06665 0.12353 0.01682 0.0
O5 O 0.02951 0.09789 0.05799 0.0
O6 O 0.9882 0.11544 0.04245 0.0
C7 C 0.89541 0.04832 0.04089 0.0
N8 N 0.9131 0.05194 0.02582 0.0
C9 C 0.8449 0.00266 0.0128 0.0
C10 C 0.82589 0.99864 0.02816 0.0
C11 C 0.85128 0.02151 0.04226 0.0
C12 C 0.88899 0.02999 0.01217 0.0
H13 H 0.91486 0.06566 0.05178 0.0
C14 C 0.01047 0.11891 0.05571 0.0
O15 O 0.06933 0.04636 0.05833 0.0
O16 O 0.99897 0.00856 0.05897 0.0
N17 N 0.95289 0.05955 0.99845 0.0
C18 C 0.97636 0.06596 0.98469 0.0
C19 C 0.95583 0.04488 0.96957 0.0
C20 C 0.91141 0.01772 0.9687 0.0
C21 C 0.88786 0.01215 0.98295 0.0
C22 C 0.91001 0.03433 0.99764 0.0
H23 H 0.01051 0.08678 0.98529 0.0
O24 O 0.01943 0.00889 0.02551 0.0
O25 O 0.98159 0.04054 0.02793 0.0
O26 O 0.07153 0.10019 0.02745 0.0
O27 O 0.0308 0.12093 0.01342 0.0
C28 C 0.84338 0.98492 0.98323 0.0
C29 C 0.82192 0.98011 0.99815 0.0
H30 H 0.7919 0.97784 0.02929 0.0
H31 H 0.83688 0.01839 0.05418 0.0
H32 H 0.97422 0.04939 0.95862 0.0
H33 H 0.89575 0.00118 0.95705 0.0
H34 H 0.82544 0.96713 0.97209 0.0
H35 H 0.78779 0.9587 0.99826 0.0
Mn36 Mn 0.01338 0.04782 0.37313 0.0
Mn37 Mn 0.07544 0.13583 0.39691 0.0
C38 C 0.05314 0.04469 0.39546 0.0
C39 C 0.00553 0.00633 0.34955 0.0
C40 C 0.97914 0.08302 0.3992 0.0
O41 O 0.01651 0.09554 0.35908 0.0
O42 O 0.06421 0.15263 0.37461 0.0
C43 C 0.15436 0.17094 0.37798 0.0
N44 N 0.13401 0.15664 0.39254 0.0
C45 C 0.19873 0.16946 0.40686 0.0
C46 C 0.22045 0.18462 0.39204 0.0
C47 C 0.19814 0.18527 0.37753 0.0
C48 C 0.15513 0.15572 0.40656 0.0
H49 H 0.13726 0.17127 0.36678 0.0
C50 C 0.04027 0.13562 0.36146 0.0
O51 O 0.97253 0.00374 0.35656 0.0
O52 O 0.0427 0.03367 0.356 0.0
N53 N 0.08912 0.12433 0.41878 0.0
C54 C 0.06317 0.10738 0.43188 0.0
C55 C 0.08043 0.10389 0.4473 0.0
C56 C 0.12418 0.1181 0.4491 0.0
C57 C 0.15033 0.13587 0.43549 0.0
C58 C 0.13143 0.13895 0.42049 0.0
H59 H 0.02954 0.09646 0.43059 0.0
O60 O 0.02091 0.01014 0.38915 0.0
O61 O 0.06156 0.07979 0.38826 0.0
O62 O 0.97306 0.05351 0.38884 0.0
O63 O 0.0157 0.11577 0.40253 0.0
C64 C 0.1943 0.15008 0.43615 0.0
C65 C 0.21846 0.16676 0.42184 0.0
H66 H 0.25417 0.19552 0.39162 0.0
H67 H 0.21463 0.19671 0.36602 0.0
H68 H 0.06004 0.09016 0.45774 0.0
H69 H 0.1373 0.11506 0.46097 0.0
H70 H 0.20974 0.14782 0.44755 0.0
H71 H 0.25212 0.17709 0.42244 0.0
Mn72 Mn 0.03038 0.04139 0.70683 0.0
Mn73 Mn 0.99955 0.09897 0.72948 0.0
C74 C 0.07254 0.08275 0.72927 0.0
C75 C 0.06579 0.03559 0.68409 0.0
C76 C 0.96089 0.00357 0.73239 0.0
O77 O 0.98445 0.04191 0.69182 0.0
O78 O 0.97023 0.08525 0.70704 0.0
C79 C 0.0377 0.17744 0.70992 0.0
N80 N 0.03376 0.15788 0.72471 0.0
C81 C 0.08216 0.22442 0.7388 0.0
C82 C 0.08653 0.24533 0.72374 0.0
C83 C 0.06426 0.22172 0.70923 0.0
C84 C 0.05503 0.18027 0.73874 0.0
H85 H 0.02075 0.15937 0.69873 0.0
C86 C 0.96513 0.06265 0.69389 0.0
O87 O 0.03603 0.00202 0.69104 0.0
O88 O 0.07389 0.07219 0.69006 0.0
N89 N 0.02572 0.11469 0.75143 0.0
C90 C 0.02005 0.0894 0.76469 0.0
C91 C 0.04127 0.10793 0.78004 0.0
C92 C 0.06782 0.15223 0.78164 0.0
C93 C 0.07279 0.17764 0.76788 0.0
C94 C 0.05059 0.15742 0.75292 0.0
H95 H -0.00027 0.05532 0.76352 0.0
O96 O 0.07651 0.05154 0.72359 0.0
O97 O 0.04434 0.08907 0.72152 0.0
O98 O 0.98494 0.99925 0.72224 0.0
O99 O 0.96313 0.03908 0.73555 0.0
C100 C 0.09965 0.22215 0.76831 0.0
C101 C 0.10435 0.24551 0.75377 0.0
H102 H 0.10719 0.27944 0.72313 0.0
H103 H 0.06765 0.23761 0.69755 0.0
H104 H 0.03732 0.08809 0.7906 0.0
H105 H 0.08452 0.16636 0.79345 0.0
H106 H 0.11737 0.23864 0.77967 0.0
H107 H 0.12559 0.27963 0.75419 0.0
H108 H 0.08248 0.53587 0.17784 0.0
H109 H 0.08403 0.47988 0.16164 0.0
H110 H 0.97222 0.38556 0.18623 0.0
H111 H 0.96901 0.44197 0.20139 0.0
H112 H 0.02952 0.56228 0.17788 0.0
H113 H 0.08354 0.50939 0.22078 0.0
H114 H 0.08624 0.45553 0.23802 0.0
H115 H 0.96116 0.41785 0.2556 0.0
H116 H 0.95852 0.47163 0.23823 0.0
H117 H 0.9545 0.58388 0.23685 0.0
H118 H 0.94907 0.63935 0.25191 0.0
H119 H 0.06809 0.73443 0.23181 0.0
H120 H 0.07445 0.67855 0.21763 0.0
H121 H 0.01173 0.55855 0.23906 0.0
H122 H 0.96667 0.62348 0.19668 0.0
H123 H 0.97359 0.6831 0.1804 0.0
H124 H 0.09239 0.70292 0.16181 0.0
H125 H 0.08599 0.64407 0.17842 0.0
C126 C 0.0259 0.49327 0.191 0.0
C127 C 0.05817 0.50313 0.17968 0.0
C128 C 0.05931 0.47092 0.17057 0.0
C129 C 0.02839 0.42796 0.17265 0.0
C130 C 0.9963 0.41819 0.18411 0.0
C131 C 0.99479 0.45048 0.19302 0.0
C132 C 0.02409 0.52781 0.20027 0.0
C133 C 0.02624 0.56175 0.1913 0.0
C134 C 0.0192 0.52695 0.21774 0.0
C135 C 0.02072 0.49429 0.22817 0.0
C136 C 0.05663 0.48938 0.22829 0.0
C137 C 0.05823 0.4588 0.2382 0.0
C138 C 0.02387 0.43248 0.24812 0.0
C139 C 0.98789 0.43739 0.24794 0.0
C140 C 0.98647 0.46826 0.23814 0.0
C141 C 0.01461 0.62705 0.22594 0.0
C142 C 0.97958 0.61667 0.23581 0.0
C143 C 0.97629 0.64852 0.24426 0.0
C144 C 0.00795 0.69151 0.24299 0.0
C145 C 0.04328 0.70171 0.23323 0.0
C146 C 0.04676 0.66979 0.22494 0.0
C147 C 0.01727 0.59307 0.21667 0.0
C148 C 0.01507 0.55911 0.22565 0.0
C149 C 0.02314 0.59451 0.19924 0.0
C150 C 0.02609 0.6296 0.18896 0.0
C151 C 0.99443 0.64091 0.18924 0.0
C152 C 0.9984 0.67496 0.17995 0.0
C153 C 0.03363 0.69771 0.16992 0.0
C154 C 0.0648 0.68578 0.16937 0.0
C155 C 0.06112 0.65214 0.17883 0.0
H156 H 0.62331 0.09115 0.53333 0.0
H157 H 0.6808 0.09599 0.51684 0.0
H158 H 0.58947 0.98503 0.48766 0.0
H159 H 0.53264 0.9788 0.50495 0.0
H160 H 0.50239 0.02981 0.50834 0.0
H161 H 0.59173 0.09281 0.57056 0.0
H162 H 0.6514 0.0976 0.58714 0.0
H163 H 0.62731 0.97859 0.5649 0.0
H164 H 0.56841 0.97496 0.54788 0.0
H165 H 0.42336 0.97144 0.57162 0.0
H166 H 0.36732 0.97077 0.58796 0.0
H167 H 0.38382 0.08193 0.56243 0.0
H168 H 0.4412 0.08362 0.5468 0.0
H169 H 0.50649 0.0296 0.57024 0.0
H170 H 0.38586 0.96485 0.52952 0.0
H171 H 0.32629 0.96338 0.51367 0.0
H172 H 0.41309 0.0858 0.49363 0.0
H173 H 0.47241 0.08708 0.50946 0.0
C174 C 0.57368 0.03416 0.52059 0.0
C175 C 0.61579 0.06732 0.52362 0.0
C176 C 0.6486 0.07043 0.51398 0.0
C177 C 0.6399 0.04092 0.50086 0.0
C178 C 0.5976 0.0079 0.49781 0.0
C179 C 0.56492 0.00452 0.5076 0.0
C180 C 0.53839 0.03123 0.53046 0.0
C181 C 0.50326 0.02946 0.52188 0.0
C182 C 0.53948 0.03121 0.54812 0.0
C183 C 0.5757 0.03356 0.55802 0.0
C184 C 0.59936 0.06777 0.56927 0.0
C185 C 0.63335 0.07031 0.5788 0.0
C186 C 0.64406 0.03829 0.57749 0.0
C187 C 0.62035 0.00407 0.5661 0.0
C188 C 0.58651 0.00179 0.55643 0.0
C189 C 0.43617 0.02728 0.55785 0.0
C190 C 0.41498 0.99575 0.56961 0.0
C191 C 0.38263 0.99516 0.57881 0.0
C192 C 0.37084 0.02616 0.57646 0.0
C193 C 0.3923 0.0578 0.56469 0.0
C194 C 0.42481 0.05852 0.55559 0.0
C195 C 0.47047 0.02773 0.5481 0.0
C196 C 0.50547 0.02935 0.5567 0.0
C197 C 0.46939 0.02772 0.53046 0.0
C198 C 0.43343 0.02612 0.52067 0.0
C199 C 0.39196 0.99131 0.5217 0.0
C200 C 0.35807 0.99045 0.51262 0.0
C201 C 0.36513 0.02458 0.5025 0.0
C202 C 0.40671 0.05932 0.50148 0.0
C203 C 0.44061 0.05993 0.5104 0.0
H204 H 0.50424 0.43705 0.85011 0.0
H205 H 0.44441 0.37852 0.83413 0.0
H206 H 0.36368 0.42896 0.84702 0.0
H207 H 0.4233 0.48691 0.86322 0.0
H208 H 0.53722 0.5283 0.84435 0.0
H209 H 0.4791 0.42449 0.88752 0.0
H210 H 0.42292 0.37245 0.90481 0.0
H211 H 0.39734 0.46965 0.92221 0.0
H212 H 0.45292 0.52128 0.90464 0.0
H213 H 0.56278 0.6326 0.90245 0.0
H214 H 0.61865 0.69348 0.91847 0.0
H215 H 0.7123 0.66426 0.90056 0.0
H216 H 0.65619 0.60389 0.88424 0.0
H217 H 0.53758 0.54959 0.90556 0.0
H218 H 0.59466 0.65389 0.86433 0.0
H219 H 0.64729 0.70807 0.84685 0.0
H220 H 0.66988 0.61371 0.82394 0.0
H221 H 0.61916 0.56018 0.84236 0.0
C222 C 0.46801 0.46607 0.85783 0.0
C223 C 0.47354 0.43522 0.84958 0.0
C224 C 0.43941 0.40182 0.84056 0.0
C225 C 0.39959 0.3994 0.83939 0.0
C226 C 0.39414 0.43029 0.84771 0.0
C227 C 0.42803 0.46321 0.85697 0.0
C228 C 0.50429 0.50218 0.86694 0.0
C229 C 0.53794 0.53269 0.85778 0.0
C230 C 0.50411 0.50834 0.88434 0.0
C231 C 0.46988 0.47664 0.89468 0.0
C232 C 0.4611 0.43446 0.89495 0.0
C233 C 0.42931 0.40487 0.90495 0.0
C234 C 0.4057 0.41696 0.91486 0.0
C235 C 0.41464 0.45926 0.91457 0.0
C236 C 0.44654 0.48885 0.90462 0.0
C237 C 0.60535 0.61377 0.89217 0.0
C238 C 0.59539 0.63942 0.90195 0.0
C239 C 0.62736 0.67412 0.91115 0.0
C240 C 0.66996 0.68362 0.9109 0.0
C241 C 0.67993 0.65818 0.90088 0.0
C242 C 0.6479 0.62356 0.8916 0.0
C243 C 0.57088 0.57603 0.883 0.0
C244 C 0.5374 0.54517 0.89215 0.0
C245 C 0.57105 0.56995 0.86554 0.0
C246 C 0.60347 0.60304 0.85493 0.0
C247 C 0.6116 0.645 0.85581 0.0
C248 C 0.64127 0.67588 0.84556 0.0
C249 C 0.66285 0.66535 0.83388 0.0
C250 C 0.65443 0.62319 0.83294 0.0
C251 C 0.62509 0.59241 0.84337 0.0
C252 C 0.02503 0.14542 0.08555 0.0
C253 C 0.01467 0.14957 0.0689 0.0
C254 C 0.02864 0.1745 0.09792 0.0
C255 C 0.05242 0.28356 0.10419 0.0
H256 H 0.98604 0.24425 0.1439 0.0
C257 C 0.06775 0.39715 0.15814 0.0
C258 C 0.02893 0.39373 0.16253 0.0
C259 C 0.06817 0.36623 0.14786 0.0
C260 C 0.00487 0.25558 0.1329 0.0
H261 H 0.00059 0.18779 0.05213 0.0
H262 H 0.00783 0.23891 0.07366 0.0
H263 H 0.98334 0.19239 0.12347 0.0
H264 H 0.96004 0.35435 0.15958 0.0
H265 H 0.96102 0.29987 0.14213 0.0
H266 H 0.07383 0.34667 0.11352 0.0
C267 C 0.01281 0.213 0.07714 0.0
C268 C 0.00352 0.22601 0.1213 0.0
C269 C 0.00842 0.18358 0.06485 0.0
C270 C 0.99057 0.35785 0.15676 0.0
C271 C 0.99104 0.32662 0.14669 0.0
C272 C 0.05436 0.31309 0.11591 0.0
C273 C 0.02283 0.20868 0.09378 0.0
C274 C 0.02676 0.23978 0.10672 0.0
C275 C 0.02982 0.33083 0.14196 0.0
C276 C 0.03012 0.29938 0.13024 0.0
H277 H 0.02989 0.11946 0.08906 0.0
H278 H 0.03648 0.17061 0.11069 0.0
H279 H 0.07079 0.29492 0.09307 0.0
H280 H 0.09793 0.42376 0.16263 0.0
H281 H 0.09851 0.36996 0.14451 0.0
C282 C 0.94501 0.11426 0.41653 0.0
C283 C 0.94243 0.07873 0.40836 0.0
C284 C 0.91146 0.11007 0.42593 0.0
C285 C 0.79684 0.03679 0.43388 0.0
H286 H 0.82553 0.10441 0.47487 0.0
C287 C 0.67459 0.0086 0.48414 0.0
C288 C 0.67459 0.04496 0.49021 0.0
C289 C 0.70672 0.01245 0.47388 0.0
C290 C 0.81706 0.08556 0.4634 0.0
H291 H 0.90231 0.01088 0.40358 0.0
H292 H 0.84422 0.00328 0.42038 0.0
H293 H 0.88224 0.11129 0.4574 0.0
H294 H 0.70843 0.11395 0.48998 0.0
H295 H 0.76506 0.12052 0.4725 0.0
H296 H 0.73153 0.01036 0.44023 0.0
C297 C 0.87179 0.03465 0.41922 0.0
C298 C 0.84952 0.0896 0.45332 0.0
C299 C 0.9052 0.03896 0.40962 0.0
C300 C 0.70776 0.08526 0.48584 0.0
C301 C 0.74014 0.08908 0.47576 0.0
C302 C 0.76438 0.0324 0.44408 0.0
C303 C 0.87464 0.07011 0.42762 0.0
C304 C 0.83986 0.06546 0.43837 0.0
C305 C 0.73986 0.05272 0.46963 0.0
C306 C 0.77419 0.05689 0.45889 0.0
H307 H 0.97306 0.14546 0.41568 0.0
H308 H 0.91444 0.13827 0.43188 0.0
H309 H 0.7881 0.01814 0.42235 0.0
H310 H 0.65004 0.97708 0.48746 0.0
H311 H 0.70604 0.98391 0.4695 0.0
C312 C 0.93415 0.93049 0.74361 0.0
C313 C 0.92922 0.96603 0.74137 0.0
C314 C 0.90554 0.89652 0.75314 0.0
C315 C 0.8252 0.87128 0.7854 0.0
H316 H 0.79109 0.75433 0.77431 0.0
C317 C 0.68565 0.7296 0.81627 0.0
C318 C 0.69351 0.69816 0.82261 0.0
C319 C 0.71483 0.76116 0.8061 0.0
C320 C 0.80064 0.78691 0.77759 0.0
H321 H 0.88932 0.9929 0.74672 0.0
H322 H 0.83887 0.93341 0.76272 0.0
H323 H 0.84066 0.81127 0.75667 0.0
H324 H 0.73836 0.67531 0.82298 0.0
H325 H 0.78875 0.72995 0.8048 0.0
H326 H 0.78436 0.84674 0.80607 0.0
C327 C 0.86557 0.9322 0.75769 0.0
C328 C 0.82912 0.81956 0.76754 0.0
C329 C 0.89439 0.96627 0.74839 0.0
C330 C 0.73093 0.69862 0.81818 0.0
C331 C 0.7599 0.72996 0.80781 0.0
C332 C 0.79641 0.83867 0.79529 0.0
C333 C 0.87114 0.89719 0.76047 0.0
C334 C 0.84156 0.86219 0.77126 0.0
C335 C 0.75231 0.76177 0.80183 0.0
C336 C 0.78367 0.79617 0.79145 0.0
H337 H 0.9608 0.92946 0.73842 0.0
H338 H 0.9111 0.87032 0.75513 0.0
H339 H 0.83485 0.90372 0.78895 0.0
H340 H 0.65675 0.72974 0.81905 0.0
H341 H 0.7079 0.78496 0.80145 0.0
C342 C 0.07768 0.99633 0.08473 0.0
C343 C 0.03823 0.98845 0.07787 0.0
C344 C 0.07961 0.96756 0.09573 0.0
C345 C 0.02156 0.8548 0.10475 0.0
H346 H 0.08482 0.88612 0.14728 0.0
C347 C 0.04775 0.73607 0.14298 0.0
C348 C 0.03762 0.73343 0.15986 0.0
C349 C 0.05047 0.76908 0.13335 0.0
C350 C 0.06705 0.87703 0.13543 0.0
H351 H 0.96985 0.94504 0.07759 0.0
H352 H 0.9734 0.89498 0.09654 0.0
H353 H 0.08447 0.94133 0.13 0.0
H354 H 0.02353 0.76379 0.18004 0.0
H355 H 0.02858 0.82184 0.16317 0.0
H356 H 0.00412 0.79068 0.11006 0.0
C357 C 0.00277 0.9232 0.09339 0.0
C358 C 0.06708 0.90855 0.12553 0.0
C359 C 0.00078 0.95204 0.0826 0.0
C360 C 0.03104 0.76491 0.16701 0.0
C361 C 0.03431 0.79827 0.15742 0.0
C362 C 0.02203 0.82347 0.1145 0.0
C363 C 0.04219 0.93027 0.09984 0.0
C364 C 0.04393 0.8976 0.11018 0.0
C365 C 0.04362 0.80041 0.14045 0.0
C366 C 0.0445 0.83419 0.12999 0.0
H367 H 0.10706 0.02414 0.08133 0.0
H368 H 0.11042 0.97367 0.10054 0.0
H369 H 0.00377 0.84556 0.0929 0.0
H370 H 0.05276 0.71212 0.13713 0.0
H371 H 0.05793 0.77012 0.12031 0.0
C372 C 0.12524 0.05687 0.4027 0.0
C373 C 0.08316 0.04185 0.40724 0.0
C374 C 0.15372 0.05271 0.41346 0.0
C375 C 0.19692 0.01447 0.43446 0.0
H376 H 0.20818 0.05054 0.4809 0.0
C377 C 0.30076 0.98776 0.48314 0.0
C378 C 0.32943 0.02386 0.49281 0.0
C379 C 0.26851 0.98797 0.47327 0.0
C380 C 0.2053 0.04034 0.46796 0.0
H381 H 0.03663 0.00849 0.42587 0.0
H382 H 0.08697 0.0021 0.44509 0.0
H383 H 0.15583 0.05447 0.46216 0.0
H384 H 0.34605 0.08788 0.50024 0.0
H385 H 0.28938 0.08811 0.48307 0.0
H386 H 0.24639 0.00046 0.44019 0.0
C387 C 0.09804 0.0176 0.43332 0.0
C388 C 0.17524 0.04234 0.4573 0.0
C389 C 0.06935 0.02117 0.42239 0.0
C390 C 0.32456 0.05976 0.49278 0.0
C391 C 0.29198 0.05977 0.48308 0.0
C392 C 0.22653 0.01193 0.44516 0.0
C393 C 0.1405 0.03339 0.42894 0.0
C394 C 0.17107 0.02976 0.44042 0.0
C395 C 0.26399 0.02407 0.47307 0.0
C396 C 0.23123 0.02513 0.46198 0.0
H397 H 0.13605 0.07182 0.39081 0.0
H398 H 0.18629 0.06524 0.40981 0.0
H399 H 0.19413 0.00436 0.42151 0.0
H400 H 0.30396 0.95977 0.48287 0.0
H401 H 0.24715 0.95993 0.46575 0.0
C402 C 0.12795 0.15699 0.73674 0.0
C403 C 0.10518 0.11416 0.74101 0.0
C404 C 0.15964 0.18713 0.74763 0.0
C405 C 0.1993 0.20317 0.79195 0.0
H406 H 0.29789 0.30075 0.77421 0.0
C407 C 0.35185 0.32283 0.83094 0.0
C408 C 0.36434 0.36578 0.82892 0.0
C409 C 0.31919 0.2913 0.8207 0.0
C410 C 0.2704 0.27372 0.77931 0.0
H411 H 0.09982 0.06811 0.75907 0.0
H412 H 0.15598 0.12058 0.77811 0.0
H413 H 0.24434 0.24663 0.75512 0.0
H414 H 0.35295 0.40965 0.8147 0.0
H415 H 0.29652 0.35454 0.79649 0.0
H416 H 0.2267 0.23008 0.81621 0.0
C417 C 0.14817 0.13143 0.76673 0.0
C418 C 0.23953 0.24278 0.76839 0.0
C419 C 0.11625 0.10132 0.75583 0.0
C420 C 0.34366 0.37671 0.81654 0.0
C421 C 0.31164 0.34531 0.8061 0.0
C422 C 0.23067 0.2338 0.80288 0.0
C423 C 0.16999 0.17484 0.76285 0.0
C424 C 0.20338 0.20721 0.77455 0.0
C425 C 0.29921 0.30238 0.80807 0.0
C426 C 0.26628 0.26946 0.79663 0.0
H427 H 0.12093 0.16723 0.72502 0.0
H428 H 0.17534 0.22017 0.74421 0.0
H429 H 0.17157 0.1767 0.79717 0.0
H430 H 0.36728 0.3137 0.84046 0.0
H431 H 0.31021 0.25838 0.82238 0.0
C432 C 0.93105 0.04055 0.66497 0.0
C433 C 0.935 0.06066 0.68052 0.0
C434 C 0.90242 0.03894 0.65249 0.0
C435 C 0.83975 0.0902 0.64018 0.0
H436 H 0.77039 0.98654 0.61386 0.0
C437 C 0.68581 0.05599 0.6048 0.0
C438 C 0.6793 0.04042 0.58822 0.0
C439 C 0.7193 0.05908 0.61484 0.0
C440 C 0.78992 0.01585 0.62098 0.0
H441 H 0.91145 0.09451 0.6951 0.0
H442 H 0.86133 0.09089 0.67362 0.0
H443 H 0.82507 0.99097 0.63367 0.0
H444 H 0.70308 0.01554 0.56931 0.0
H445 H 0.76114 0.02002 0.58712 0.0
H446 H 0.80374 0.11456 0.62787 0.0
C447 C 0.88096 0.07719 0.67087 0.0
C448 C 0.82131 0.01846 0.6323 0.0
C449 C 0.9096 0.07899 0.68327 0.0
C450 C 0.7068 0.02723 0.58207 0.0
C451 C 0.74015 0.02992 0.59222 0.0
C452 C 0.80823 0.08743 0.629 0.0
C453 C 0.87706 0.05731 0.6553 0.0
C454 C 0.8461 0.05544 0.64225 0.0
C455 C 0.74692 0.04626 0.60866 0.0
C456 C 0.78252 0.05002 0.61949 0.0
H457 H 0.95021 0.02623 0.66239 0.0
H458 H 0.90052 0.02371 0.64059 0.0
H459 H 0.85895 0.11955 0.64731 0.0
H460 H 0.66471 0.06545 0.61013 0.0
H461 H 0.72328 0.07104 0.62758 0.0
C462 C 0.91393 0.95645 0.01271 0.0
C463 C 0.95629 0.98132 0.00808 0.0
C464 C 0.8838 0.92458 0.00191 0.0
C465 C 0.8611 0.89043 0.95784 0.0
H466 H 0.78243 0.78047 0.9756 0.0
C467 C 0.7446 0.74534 0.91572 0.0
C468 C 0.70345 0.71897 0.92154 0.0
C469 C 0.77617 0.77788 0.92597 0.0
C470 C 0.80378 0.81114 0.97046 0.0
H471 H 0.0015 0.99118 0.98922 0.0
H472 H 0.94847 0.9356 0.97002 0.0
H473 H 0.83614 0.83619 0.99413 0.0
H474 H 0.66342 0.70612 0.94279 0.0
H475 H 0.71787 0.76347 0.9604 0.0
H476 H 0.82838 0.86554 0.93418 0.0
C477 C 0.93837 0.94133 0.98185 0.0
C478 C 0.8346 0.84301 0.98108 0.0
C479 C 0.96863 0.97292 0.99279 0.0
C480 C 0.69457 0.72613 0.9378 0.0
C481 C 0.72601 0.75869 0.948 0.0
C482 C 0.83005 0.85857 0.9472 0.0
C483 C 0.89564 0.91688 0.98632 0.0
C484 C 0.86348 0.883 0.9749 0.0
C485 C 0.76728 0.78478 0.94227 0.0
C486 C 0.80089 0.8186 0.95341 0.0
H487 H 0.90417 0.96165 0.02472 0.0
H488 H 0.8511 0.90634 0.00566 0.0
H489 H 0.88272 0.92115 0.95278 0.0
H490 H 0.75239 0.74096 0.9032 0.0
H491 H 0.80772 0.79718 0.92121 0.0
C492 C 0.96144 0.94569 0.32925 0.0
C493 C 0.00153 0.97774 0.33554 0.0
C494 C 0.95839 0.91649 0.31702 0.0
C495 C 0.02258 0.89727 0.28639 0.0
H496 H 0.9404 0.77841 0.29287 0.0
C497 C 0.04074 0.76094 0.25918 0.0
C498 C 0.00434 0.72549 0.25192 0.0
C499 C 0.03741 0.7927 0.26766 0.0
C500 C 0.96313 0.81152 0.29076 0.0
H501 H 0.06981 0.00506 0.33362 0.0
H502 H 0.06455 0.95413 0.31269 0.0
H503 H 0.93942 0.83282 0.31047 0.0
H504 H 0.93587 0.69627 0.24769 0.0
H505 H 0.93006 0.75134 0.2629 0.0
H506 H 0.04726 0.87571 0.26711 0.0
C507 C 0.03537 0.95169 0.31689 0.0
C508 C 0.9625 0.84275 0.3008 0.0
C509 C 0.0384 0.98081 0.32902 0.0
C510 C 0.96449 0.7227 0.25337 0.0
C511 C 0.96112 0.75431 0.26201 0.0
C512 C 0.02343 0.86605 0.27647 0.0
C513 C 0.99537 0.91881 0.31087 0.0
C514 C 0.99277 0.88598 0.29896 0.0
C515 C 0.99757 0.78964 0.26923 0.0
C516 C 0.99421 0.82283 0.27875 0.0
H517 H 0.93245 0.94258 0.334 0.0
H518 H 0.92708 0.89187 0.31251 0.0
H519 H 0.04578 0.93028 0.28438 0.0
H520 H 0.07182 0.76383 0.25862 0.0
H521 H 0.06597 0.81923 0.27334 0.0
C522 C 0.1252 0.0702 0.66443 0.0
C523 C 0.09178 0.03281 0.67083 0.0
C524 C 0.15288 0.06831 0.65324 0.0
C525 C 0.16676 0.99848 0.6238 0.0
H526 H 0.287 0.07624 0.63374 0.0
C527 C 0.3002 0.9876 0.59023 0.0
C528 C 0.33692 0.02602 0.58646 0.0
C529 C 0.26887 0.98757 0.59996 0.0
C530 C 0.25357 0.05471 0.63062 0.0
H531 H 0.06011 0.96399 0.66998 0.0
H532 H 0.10865 0.96069 0.65029 0.0
H533 H 0.23421 0.07767 0.65124 0.0
H534 H 0.36931 0.09455 0.59001 0.0
H535 H 0.31424 0.09458 0.60647 0.0
H536 H 0.18622 0.97572 0.60308 0.0
C537 C 0.11328 0.99145 0.65397 0.0
C538 C 0.2233 0.05549 0.64068 0.0
C539 C 0.08559 0.99335 0.66526 0.0
C540 C 0.34127 0.06439 0.59249 0.0
C541 C 0.30991 0.06437 0.60214 0.0
C542 C 0.19712 0.99785 0.61365 0.0
C543 C 0.14776 0.02899 0.64813 0.0
C544 C 0.17956 0.02755 0.63735 0.0
C545 C 0.27347 0.02596 0.60612 0.0
C546 C 0.24092 0.0261 0.6169 0.0
H547 H 0.13072 0.10113 0.66839 0.0
H548 H 0.17869 0.09775 0.64872 0.0
H549 H 0.13325 0.97677 0.62088 0.0
H550 H 0.29554 0.95749 0.58561 0.0
H551 H 0.24141 0.95738 0.60289 0.0
C552 C 0.14274 0.15484 0.0084 0.0
C553 C 0.10381 0.15441 0.00741 0.0
C554 C 0.17667 0.18252 0.99867 0.0
C555 C 0.19831 0.24511 0.96035 0.0
H556 H 0.31514 0.30524 0.9779 0.0
C557 C 0.33252 0.38412 0.92617 0.0
C558 C 0.37184 0.38563 0.92547 0.0
C559 C 0.30064 0.35481 0.93618 0.0
C560 C 0.28271 0.28828 0.97278 0.0
H561 H 0.0707 0.18389 0.99577 0.0
H562 H 0.12973 0.23224 0.97916 0.0
H563 H 0.25823 0.25637 0.99565 0.0
H564 H 0.40872 0.35787 0.93486 0.0
H565 H 0.35275 0.30635 0.9523 0.0
H566 H 0.2226 0.27727 0.93757 0.0
C567 C 0.13383 0.21058 0.98713 0.0
C568 C 0.25013 0.26028 0.98293 0.0
C569 C 0.1 0.18296 0.99678 0.0
C570 C 0.3786 0.3572 0.93503 0.0
C571 C 0.34675 0.32801 0.94514 0.0
C572 C 0.23078 0.27313 0.95025 0.0
C573 C 0.17237 0.21034 0.98777 0.0
C574 C 0.20748 0.23873 0.97688 0.0
C575 C 0.30738 0.32643 0.94578 0.0
C576 C 0.27328 0.29536 0.95639 0.0
H577 H 0.14678 0.13323 0.01642 0.0
H578 H 0.20587 0.18137 0.99938 0.0
H579 H 0.16594 0.22829 0.95516 0.0
H580 H 0.32623 0.40535 0.91884 0.0
H581 H 0.2708 0.35468 0.93654 0.0
C582 C 0.00634 0.14985 0.33647 0.0
C583 C 0.03984 0.16436 0.34858 0.0
C584 C 0.00489 0.17788 0.32498 0.0
C585 C 0.04813 0.29322 0.31899 0.0
H586 H 0.00566 0.25771 0.27332 0.0
C587 C 0.0628 0.4118 0.26882 0.0
C588 C 0.02595 0.40061 0.2589 0.0
C589 C 0.0645 0.38223 0.27932 0.0
C590 C 0.01731 0.26793 0.28608 0.0
H591 H 0.09903 0.21934 0.35763 0.0
H592 H 0.09715 0.2677 0.33739 0.0
H593 H 0.00936 0.20735 0.29227 0.0
H594 H 0.96234 0.34946 0.25191 0.0
H595 H 0.96538 0.29759 0.27028 0.0
H596 H 0.05665 0.35395 0.31269 0.0
C597 C 0.07123 0.23504 0.33705 0.0
C598 C 0.01934 0.23909 0.29696 0.0
C599 C 0.07245 0.20719 0.34862 0.0
C600 C 0.99102 0.35903 0.25952 0.0
C601 C 0.99289 0.32929 0.26991 0.0
C602 C 0.04647 0.32209 0.30808 0.0
C603 C 0.03712 0.22095 0.32524 0.0
C604 C 0.03485 0.2514 0.31356 0.0
C605 C 0.02953 0.34072 0.28002 0.0
C606 C 0.0311 0.30979 0.29152 0.0
H607 H 0.98062 0.11709 0.33614 0.0
H608 H 0.9779 0.16597 0.3162 0.0
H609 H 0.05932 0.30362 0.33176 0.0
H610 H 0.09008 0.4437 0.26868 0.0
H611 H 0.09328 0.39181 0.28687 0.0
loop_
_geom_bond_atom_site_label_1
_geom_bond_atom_site_label_2
_geom_bond_distance
_geom_bond_site_symmetry_2
_ccdc_geom_bond_type
Mn0 O5 2.095 . S
Mn0 O15 2.162 . S
Mn0 O16 2.297 1_545 S
Mn0 O24 2.385 1_545 S
Mn0 O25 2.209 1_455 S
Mn0 O26 2.094 . S
Mn1 O6 2.118 . S
Mn1 N8 2.229 1_455 S
Mn1 N17 2.279 1_454 S
Mn1 O25 2.224 1_455 S
Mn1 O27 2.144 . S
C2 O24 1.234 1_655 S
C2 O25 1.283 1_565 S
C3 O15 1.281 1_565 S
C3 O16 1.236 . S
C4 O26 1.240 . S
C4 O27 1.264 . S
O5 Mn0 2.095 . S
O5 C14 1.250 . S
O6 Mn1 2.118 . S
O6 C14 1.258 . S
C7 N8 1.326 . S
C7 C11 1.460 . S
C7 H13 0.929 . S
N8 Mn1 2.229 1_655 S
N8 C7 1.326 . S
N8 C12 1.362 . S
C9 C10 1.260 1_556 S
C9 C12 1.432 1_556 S
C9 C29 1.446 . S
C10 C9 1.260 1_554 S
C10 C11 1.477 . S
C10 H30 0.931 . S
C11 C7 1.460 . S
C11 C10 1.477 . S
C11 H31 0.930 . S
C12 N8 1.362 . S
C12 C9 1.432 1_554 S
C12 C22 1.476 1_554 S
H13 C7 0.929 . S
C14 O5 1.250 . S
C14 O6 1.258 . S
O15 Mn0 2.162 . S
O15 C3 1.281 1_545 S
O16 Mn0 2.297 1_565 S
O16 C3 1.236 . S
N17 Mn1 2.279 1_656 S
N17 C18 1.328 1_655 S
N17 C22 1.318 . S
C18 N17 1.328 1_455 S
C18 C19 1.457 1_455 S
C18 H23 0.929 . S
C19 C18 1.457 1_655 S
C19 C20 1.291 . S
C19 H32 0.931 . S
C20 C19 1.291 . S
C20 C21 1.373 . S
C20 H33 0.929 . S
C21 C20 1.373 . S
C21 C22 1.396 . S
C21 C28 1.403 . S
C22 C12 1.476 1_556 S
C22 N17 1.318 . S
C22 C21 1.396 . S
H23 C18 0.929 . S
O24 Mn0 2.385 1_565 S
O24 C2 1.234 1_455 S
O25 Mn0 2.209 1_655 S
O25 Mn1 2.224 1_655 S
O25 C2 1.283 1_545 S
O26 Mn0 2.094 . S
O26 C4 1.240 . S
O27 Mn1 2.144 . S
O27 C4 1.264 . S
C28 C21 1.403 . S
C28 C29 1.399 . S
C28 H34 0.929 . S
C29 C9 1.446 . S
C29 C28 1.399 . S
C29 H35 0.930 . S
H30 C10 0.931 . S
H31 C11 0.930 . S
H32 C19 0.931 . S
H33 C20 0.929 . S
H34 C28 0.929 . S
H35 C29 0.930 . S
Mn36 O41 2.095 . S
Mn36 O51 2.162 1_545 S
Mn36 O52 2.297 1_655 S
Mn36 O60 2.385 1_655 S
Mn36 O61 2.209 1_655 S
Mn36 O62 2.094 . S
Mn37 O42 2.121 . S
Mn37 N44 2.257 . S
Mn37 N53 2.282 . S
Mn37 O61 2.215 . S
Mn37 O63 2.117 1_455 S
C38 O60 1.234 . S
C38 O61 1.283 . S
C39 O51 1.281 1_455 S
C39 O52 1.236 1_565 S
C40 O62 1.240 . S
C40 O63 1.264 . S
O41 Mn36 2.095 . S
O41 C50 1.250 1_655 S
O42 Mn37 2.121 . S
O42 C50 1.258 . S
C43 N44 1.326 . S
C43 C47 1.460 . S
C43 H49 0.929 . S
N44 Mn37 2.257 . S
N44 C43 1.326 . S
N44 C48 1.362 . S
C45 C46 1.258 . S
C45 C48 1.431 . S
C45 C65 1.449 . S
C46 C45 1.258 . S
C46 C47 1.477 . S
C46 H66 0.931 . S
C47 C43 1.460 . S
C47 C46 1.477 . S
C47 H67 0.930 . S
C48 N44 1.362 . S
C48 C45 1.431 . S
C48 C58 1.476 . S
H49 C43 0.929 . S
C50 O41 1.250 1_455 S
C50 O42 1.258 . S
O51 Mn36 2.162 1_565 S
O51 C39 1.281 1_655 S
O52 Mn36 2.297 1_455 S
O52 C39 1.236 1_545 S
N53 Mn37 2.282 . S
N53 C54 1.328 . S
N53 C58 1.318 . S
C54 N53 1.328 . S
C54 C55 1.457 . S
C54 H59 0.929 . S
C55 C54 1.457 . S
C55 C56 1.291 . S
C55 H68 0.931 . S
C56 C55 1.291 . S
C56 C57 1.373 . S
C56 H69 0.929 . S
C57 C56 1.373 . S
C57 C58 1.396 . S
C57 C64 1.403 . S
C58 C48 1.476 . S
C58 N53 1.318 . S
C58 C57 1.396 . S
H59 C54 0.929 . S
O60 Mn36 2.385 1_455 S
O60 C38 1.234 . S
O61 Mn36 2.209 1_455 S
O61 Mn37 2.215 . S
O61 C38 1.283 . S
O62 Mn36 2.094 . S
O62 C40 1.240 . S
O63 Mn37 2.117 1_655 S
O63 C40 1.264 . S
C64 C57 1.403 . S
C64 C65 1.399 . S
C64 H70 0.929 . S
C65 C45 1.449 . S
C65 C64 1.399 . S
C65 H71 0.930 . S
H66 C46 0.931 . S
H67 C47 0.930 . S
H68 C55 0.931 . S
H69 C56 0.929 . S
H70 C64 0.929 . S
H71 C65 0.930 . S
Mn72 O77 2.095 1_455 S
Mn72 O87 2.162 . S
Mn72 O88 2.297 . S
Mn72 O96 2.385 . S
Mn72 O97 2.209 . S
Mn72 O98 2.094 1_445 S
Mn73 O78 2.121 . S
Mn73 N80 2.257 . S
Mn73 N89 2.282 1_655 S
Mn73 O97 2.215 1_655 S
Mn73 O99 2.117 . S
C74 O96 1.234 . S
C74 O97 1.283 . S
C75 O87 1.281 . S
C75 O88 1.236 . S
C76 O98 1.240 . S
C76 O99 1.264 1_565 S
O77 Mn72 2.095 1_655 S
O77 C86 1.250 . S
O78 Mn73 2.121 . S
O78 C86 1.258 . S
C79 N80 1.326 . S
C79 C83 1.460 1_655 S
C79 H85 0.929 . S
N80 Mn73 2.257 . S
N80 C79 1.326 . S
N80 C84 1.362 1_655 S
C81 C82 1.258 . S
C81 C84 1.431 . S
C81 C101 1.449 . S
C82 C81 1.258 . S
C82 C83 1.477 . S
C82 H102 0.931 . S
C83 C79 1.460 1_455 S
C83 C82 1.477 . S
C83 H103 0.929 1_455 S
C84 N80 1.362 1_455 S
C84 C81 1.431 . S
C84 C94 1.476 . S
H85 C79 0.929 . S
C86 O77 1.250 . S
C86 O78 1.258 . S
O87 Mn72 2.162 . S
O87 C75 1.281 . S
O88 Mn72 2.297 . S
O88 C75 1.236 . S
N89 Mn73 2.282 1_455 S
N89 C90 1.328 . S
N89 C94 1.318 . S
C90 N89 1.328 . S
C90 C91 1.457 . S
C90 H95 0.930 1_455 S
C91 C90 1.457 . S
C91 C92 1.291 . S
C91 H104 0.931 . S
C92 C91 1.291 . S
C92 C93 1.373 . S
C92 H105 0.929 . S
C93 C92 1.373 . S
C93 C94 1.396 . S
C93 C100 1.403 . S
C94 C84 1.476 . S
C94 N89 1.318 . S
C94 C93 1.396 . S
H95 C90 0.930 1_655 S
O96 Mn72 2.385 . S
O96 C74 1.234 . S
O97 Mn72 2.209 . S
O97 Mn73 2.215 1_455 S
O97 C74 1.283 . S
O98 Mn72 2.094 1_665 S
O98 C76 1.240 . S
O99 Mn73 2.117 . S
O99 C76 1.264 1_545 S
C100 C93 1.403 . S
C100 C101 1.399 . S
C100 H106 0.929 . S
C101 C81 1.449 . S
C101 C100 1.399 . S
C101 H107 0.930 . S
H102 C82 0.931 . S
H103 C83 0.929 1_655 S
H104 C91 0.931 . S
H105 C92 0.929 . S
H106 C100 0.929 . S
H107 C101 0.930 . S
H108 C127 0.949 . S
H109 C128 0.950 . S
H110 C130 0.950 . S
H111 C131 0.950 . S
H112 C133 0.950 . S
H113 C136 0.950 . S
H114 C137 0.950 . S
H115 C139 0.951 . S
H116 C140 0.949 . S
H117 C142 0.949 . S
H118 C143 0.950 . S
H119 C145 0.950 . S
H120 C146 0.950 . S
H121 C148 0.950 . S
H122 C151 0.950 . S
H123 C152 0.950 1_655 S
H124 C154 0.951 . S
H125 C155 0.949 . S
C126 C127 1.376 . S
C126 C131 1.386 1_455 S
C126 C132 1.483 . S
C127 H108 0.949 . S
C127 C126 1.376 . S
C127 C128 1.397 . S
C128 H109 0.950 . S
C128 C127 1.397 . S
C128 C129 1.391 . S
C129 C128 1.391 . S
C129 C130 1.405 1_455 S
C130 H110 0.950 . S
C130 C129 1.405 1_655 S
C130 C131 1.367 . S
C131 H111 0.950 . S
C131 C126 1.386 1_655 S
C131 C130 1.367 . S
C132 C126 1.483 . S
C132 C133 1.382 . S
C132 C134 1.403 . S
C133 H112 0.950 . S
C133 C132 1.382 . S
C133 C149 1.411 . S
C134 C132 1.403 . S
C134 C135 1.489 . S
C134 C148 1.411 . S
C135 C134 1.489 . S
C135 C136 1.383 . S
C135 C140 1.382 1_455 S
C136 H113 0.950 . S
C136 C135 1.383 . S
C136 C137 1.395 . S
C137 H114 0.950 . S
C137 C136 1.395 . S
C137 C138 1.288 . S
C138 C137 1.288 . S
C138 C139 1.392 1_455 S
C139 H115 0.951 . S
C139 C138 1.392 1_655 S
C139 C140 1.392 . S
C140 H116 0.949 . S
C140 C135 1.382 1_655 S
C140 C139 1.392 . S
C141 C142 1.376 1_455 S
C141 C146 1.386 . S
C141 C147 1.483 . S
C142 H117 0.949 . S
C142 C141 1.376 1_655 S
C142 C143 1.397 . S
C143 H118 0.950 . S
C143 C142 1.397 . S
C143 C144 1.391 1_655 S
C144 C143 1.391 1_455 S
C144 C145 1.405 . S
C145 H119 0.950 . S
C145 C144 1.405 . S
C145 C146 1.367 . S
C146 H120 0.950 . S
C146 C141 1.386 . S
C146 C145 1.367 . S
C147 C141 1.483 . S
C147 C148 1.382 . S
C147 C149 1.403 . S
C148 H121 0.950 . S
C148 C134 1.411 . S
C148 C147 1.382 . S
C149 C133 1.411 . S
C149 C147 1.403 . S
C149 C150 1.489 . S
C150 C149 1.489 . S
C150 C151 1.383 1_455 S
C150 C155 1.382 . S
C151 H122 0.950 . S
C151 C150 1.383 1_655 S
C151 C152 1.395 1_655 S
C152 H123 0.950 1_455 S
C152 C151 1.395 1_455 S
C152 C153 1.288 . S
C153 C152 1.288 . S
C153 C154 1.392 . S
C154 H124 0.951 . S
C154 C153 1.392 . S
C154 C155 1.392 . S
C155 H125 0.949 . S
C155 C150 1.382 . S
C155 C154 1.392 . S
H156 C175 0.949 . S
H157 C176 0.950 . S
H158 C178 0.950 . S
H159 C179 0.950 . S
H160 C181 0.950 . S
H161 C184 0.950 . S
H162 C185 0.950 . S
H163 C187 0.951 . S
H164 C188 0.949 . S
H165 C190 0.949 . S
H166 C191 0.950 . S
H167 C193 0.950 . S
H168 C194 0.950 . S
H169 C196 0.950 . S
H170 C199 0.950 . S
H171 C200 0.950 . S
H172 C202 0.951 . S
H173 C203 0.949 . S
C174 C175 1.376 . S
C174 C179 1.386 . S
C174 C180 1.483 . S
C175 H156 0.949 . S
C175 C174 1.376 . S
C175 C176 1.397 . S
C176 H157 0.950 . S
C176 C175 1.397 . S
C176 C177 1.391 . S
C177 C176 1.391 . S
C177 C178 1.405 . S
C178 H158 0.950 . S
C178 C177 1.405 . S
C178 C179 1.367 . S
C179 H159 0.950 . S
C179 C174 1.386 . S
C179 C178 1.367 . S
C180 C174 1.483 . S
C180 C181 1.382 . S
C180 C182 1.403 . S
C181 H160 0.950 . S
C181 C180 1.382 . S
C181 C197 1.411 . S
C182 C180 1.403 . S
C182 C183 1.489 . S
C182 C196 1.411 . S
C183 C182 1.489 . S
C183 C184 1.383 . S
C183 C188 1.382 . S
C184 H161 0.950 . S
C184 C183 1.383 . S
C184 C185 1.395 . S
C185 H162 0.950 . S
C185 C184 1.395 . S
C185 C186 1.288 . S
C186 C185 1.288 . S
C186 C187 1.392 . S
C187 H163 0.951 . S
C187 C186 1.392 . S
C187 C188 1.392 . S
C188 H164 0.949 . S
C188 C183 1.382 . S
C188 C187 1.392 . S
C189 C190 1.376 . S
C189 C194 1.386 . S
C189 C195 1.483 . S
C190 H165 0.949 . S
C190 C189 1.376 . S
C190 C191 1.397 . S
C191 H166 0.950 . S
C191 C190 1.397 . S
C191 C192 1.391 . S
C192 C191 1.391 . S
C192 C193 1.405 . S
C193 H167 0.950 . S
C193 C192 1.405 . S
C193 C194 1.367 . S
C194 H168 0.950 . S
C194 C189 1.386 . S
C194 C193 1.367 . S
C195 C189 1.483 . S
C195 C196 1.382 . S
C195 C197 1.403 . S
C196 H169 0.950 . S
C196 C182 1.411 . S
C196 C195 1.382 . S
C197 C181 1.411 . S
C197 C195 1.403 . S
C197 C198 1.489 . S
C198 C197 1.489 . S
C198 C199 1.383 . S
C198 C203 1.382 . S
C199 H170 0.950 . S
C199 C198 1.383 . S
C199 C200 1.395 . S
C200 H171 0.950 . S
C200 C199 1.395 . S
C200 C201 1.288 . S
C201 C200 1.288 . S
C201 C202 1.392 . S
C202 H172 0.951 . S
C202 C201 1.392 . S
C202 C203 1.392 . S
C203 H173 0.949 . S
C203 C198 1.382 . S
C203 C202 1.392 . S
H204 C223 0.949 . S
H205 C224 0.950 . S
H206 C226 0.950 . S
H207 C227 0.950 . S
H208 C229 0.950 . S
H209 C232 0.950 . S
H210 C233 0.950 . S
H211 C235 0.951 . S
H212 C236 0.949 . S
H213 C238 0.949 . S
H214 C239 0.950 . S
H215 C241 0.950 . S
H216 C242 0.950 . S
H217 C244 0.950 . S
H218 C247 0.950 . S
H219 C248 0.950 . S
H220 C250 0.951 . S
H221 C251 0.949 . S
C222 C223 1.376 . S
C222 C227 1.386 . S
C222 C228 1.483 . S
C223 H204 0.949 . S
C223 C222 1.376 . S
C223 C224 1.397 . S
C224 H205 0.950 . S
C224 C223 1.397 . S
C224 C225 1.391 . S
C225 C224 1.391 . S
C225 C226 1.405 . S
C226 H206 0.950 . S
C226 C225 1.405 . S
C226 C227 1.367 . S
C227 H207 0.950 . S
C227 C222 1.386 . S
C227 C226 1.367 . S
C228 C222 1.483 . S
C228 C229 1.382 . S
C228 C230 1.403 . S
C229 H208 0.950 . S
C229 C228 1.382 . S
C229 C245 1.411 . S
C230 C228 1.403 . S
C230 C231 1.489 . S
C230 C244 1.411 . S
C231 C230 1.489 . S
C231 C232 1.383 . S
C231 C236 1.382 . S
C232 H209 0.950 . S
C232 C231 1.383 . S
C232 C233 1.395 . S
C233 H210 0.950 . S
C233 C232 1.395 . S
C233 C234 1.288 . S
C234 C233 1.288 . S
C234 C235 1.392 . S
C235 H211 0.951 . S
C235 C234 1.392 . S
C235 C236 1.392 . S
C236 H212 0.949 . S
C236 C231 1.382 . S
C236 C235 1.392 . S
C237 C238 1.376 . S
C237 C242 1.386 . S
C237 C243 1.483 . S
C238 H213 0.949 . S
C238 C237 1.376 . S
C238 C239 1.397 . S
C239 H214 0.950 . S
C239 C238 1.397 . S
C239 C240 1.391 . S
C240 C239 1.391 . S
C240 C241 1.405 . S
C241 H215 0.950 . S
C241 C240 1.405 . S
C241 C242 1.367 . S
C242 H216 0.950 . S
C242 C237 1.386 . S
C242 C241 1.367 . S
C243 C237 1.483 . S
C243 C244 1.382 . S
C243 C245 1.403 . S
C244 H217 0.950 . S
C244 C230 1.411 . S
C244 C243 1.382 . S
C245 C229 1.411 . S
C245 C243 1.403 . S
C245 C246 1.489 . S
C246 C245 1.489 . S
C246 C247 1.383 . S
C246 C251 1.382 . S
C247 H218 0.950 . S
C247 C246 1.383 . S
C247 C248 1.395 . S
C248 H219 0.950 . S
C248 C247 1.395 . S
C248 C249 1.288 . S
C249 C248 1.288 . S
C249 C250 1.392 . S
C250 H220 0.951 . S
C250 C249 1.392 . S
C250 C251 1.392 . S
C251 H221 0.949 . S
C251 C246 1.382 . S
C251 C250 1.392 . S
C252 C253 1.349 1_655 S
C252 C254 1.327 . S
C252 H277 0.950 . S
C253 C252 1.349 1_455 S
C253 C269 1.349 . S
C254 C252 1.327 . S
C254 C273 1.429 1_655 S
C254 H278 0.950 . S
C255 C272 1.574 . S
C255 C274 1.368 . S
C255 H279 0.949 . S
H256 C260 0.949 . S
C257 C258 1.349 . S
C257 C259 1.327 . S
C257 H280 0.950 . S
C258 C257 1.349 . S
C258 C270 1.349 1_455 S
C259 C257 1.327 . S
C259 C275 1.429 . S
C259 H281 0.950 . S
C260 H256 0.949 . S
C260 C268 1.574 . S
C260 C276 1.368 1_655 S
H261 C269 0.950 . S
H262 C267 0.950 . S
H263 C268 0.949 . S
H264 C270 0.950 . S
H265 C271 0.950 . S
H266 C272 0.949 . S
C267 H262 0.950 . S
C267 C269 1.327 . S
C267 C273 1.429 . S
C268 C260 1.574 . S
C268 H263 0.949 . S
C268 C274 1.368 1_655 S
C269 C253 1.349 . S
C269 H261 0.950 . S
C269 C267 1.327 . S
C270 C258 1.349 1_655 S
C270 H264 0.950 . S
C270 C271 1.327 . S
C271 H265 0.950 . S
C271 C270 1.327 . S
C271 C275 1.429 1_655 S
C272 C255 1.574 . S
C272 H266 0.949 . S
C272 C276 1.368 . S
C273 C254 1.429 1_455 S
C273 C267 1.429 . S
C273 C274 1.523 . S
C274 C255 1.368 . S
C274 C268 1.368 1_455 S
C274 C273 1.523 . S
C275 C259 1.429 . S
C275 C271 1.429 1_455 S
C275 C276 1.523 . S
C276 C260 1.368 1_455 S
C276 C272 1.368 . S
C276 C275 1.523 . S
H277 C252 0.950 . S
H278 C254 0.950 . S
H279 C255 0.949 . S
H280 C257 0.950 . S
H281 C259 0.950 . S
C282 C283 1.349 . S
C282 C284 1.327 . S
C282 H307 0.950 . S
C283 C282 1.349 . S
C283 C299 1.349 . S
C284 C282 1.327 . S
C284 C303 1.429 . S
C284 H308 0.950 . S
C285 C302 1.574 . S
C285 C304 1.368 . S
C285 H309 0.949 1_545 S
H286 C290 0.949 . S
C287 C288 1.349 . S
C287 C289 1.327 . S
C287 H310 0.950 . S
C288 C287 1.349 . S
C288 C300 1.349 . S
C289 C287 1.327 . S
C289 C305 1.429 . S
C289 H311 0.950 . S
C290 H286 0.949 . S
C290 C298 1.574 . S
C290 C306 1.368 . S
H291 C299 0.950 1_565 S
H292 C297 0.950 1_565 S
H293 C298 0.949 . S
H294 C300 0.950 . S
H295 C301 0.950 . S
H296 C302 0.949 . S
C297 H292 0.950 1_545 S
C297 C299 1.327 . S
C297 C303 1.429 . S
C298 C290 1.574 . S
C298 H293 0.949 . S
C298 C304 1.368 . S
C299 C283 1.349 . S
C299 H291 0.950 1_545 S
C299 C297 1.327 . S
C300 C288 1.349 . S
C300 H294 0.950 . S
C300 C301 1.327 . S
C301 H295 0.950 . S
C301 C300 1.327 . S
C301 C305 1.429 . S
C302 C285 1.574 . S
C302 H296 0.949 . S
C302 C306 1.368 . S
C303 C284 1.429 . S
C303 C297 1.429 . S
C303 C304 1.523 . S
C304 C285 1.368 . S
C304 C298 1.368 . S
C304 C303 1.523 . S
C305 C289 1.429 . S
C305 C301 1.429 . S
C305 C306 1.523 . S
C306 C290 1.368 . S
C306 C302 1.368 . S
C306 C305 1.523 . S
H307 C282 0.950 . S
H308 C284 0.950 . S
H309 C285 0.949 1_565 S
H310 C287 0.950 . S
H311 C289 0.950 . S
C312 C313 1.349 . S
C312 C314 1.327 . S
C312 H337 0.950 . S
C313 C312 1.349 . S
C313 C329 1.349 . S
C314 C312 1.327 . S
C314 C333 1.429 . S
C314 H338 0.950 . S
C315 C332 1.574 . S
C315 C334 1.368 . S
C315 H339 0.949 . S
H316 C320 0.949 . S
C317 C318 1.349 . S
C317 C319 1.327 . S
C317 H340 0.950 . S
C318 C317 1.349 . S
C318 C330 1.349 . S
C319 C317 1.327 . S
C319 C335 1.429 . S
C319 H341 0.950 . S
C320 H316 0.949 . S
C320 C328 1.574 . S
C320 C336 1.368 . S
H321 C329 0.950 . S
H322 C327 0.950 . S
H323 C328 0.949 . S
H324 C330 0.950 . S
H325 C331 0.950 . S
H326 C332 0.949 . S
C327 H322 0.950 . S
C327 C329 1.327 . S
C327 C333 1.429 . S
C328 C320 1.574 . S
C328 H323 0.949 . S
C328 C334 1.368 . S
C329 C313 1.349 . S
C329 H321 0.950 . S
C329 C327 1.327 . S
C330 C318 1.349 . S
C330 H324 0.950 . S
C330 C331 1.327 . S
C331 H325 0.950 . S
C331 C330 1.327 . S
C331 C335 1.429 . S
C332 C315 1.574 . S
C332 H326 0.949 . S
C332 C336 1.368 . S
C333 C314 1.429 . S
C333 C327 1.429 . S
C333 C334 1.523 . S
C334 C315 1.368 . S
C334 C328 1.368 . S
C334 C333 1.523 . S
C335 C319 1.429 . S
C335 C331 1.429 . S
C335 C336 1.523 . S
C336 C320 1.368 . S
C336 C332 1.368 . S
C336 C335 1.523 . S
H337 C312 0.950 . S
H338 C314 0.950 . S
H339 C315 0.949 . S
H340 C317 0.950 . S
H341 C319 0.950 . S
C342 C343 1.349 . S
C342 C344 1.327 . S
C342 H367 0.950 . S
C343 C342 1.349 . S
C343 C359 1.349 . S
C344 C342 1.327 . S
C344 C363 1.429 . S
C344 H368 0.950 . S
C345 C362 1.574 . S
C345 C364 1.368 . S
C345 H369 0.949 . S
H346 C350 0.949 . S
C347 C348 1.349 . S
C347 C349 1.327 . S
C347 H370 0.950 . S
C348 C347 1.349 . S
C348 C360 1.349 . S
C349 C347 1.327 . S
C349 C365 1.429 . S
C349 H371 0.950 . S
C350 H346 0.949 . S
C350 C358 1.574 . S
C350 C366 1.368 . S
H351 C359 0.950 . S
H352 C357 0.950 . S
H353 C358 0.949 . S
H354 C360 0.950 . S
H355 C361 0.950 . S
H356 C362 0.949 . S
C357 H352 0.950 . S
C357 C359 1.327 . S
C357 C363 1.429 . S
C358 C350 1.574 . S
C358 H353 0.949 . S
C358 C364 1.368 . S
C359 C343 1.349 . S
C359 H351 0.950 . S
C359 C357 1.327 . S
C360 C348 1.349 . S
C360 H354 0.950 . S
C360 C361 1.327 . S
C361 H355 0.950 . S
C361 C360 1.327 . S
C361 C365 1.429 . S
C362 C345 1.574 . S
C362 H356 0.949 . S
C362 C366 1.368 . S
C363 C344 1.429 . S
C363 C357 1.429 . S
C363 C364 1.523 . S
C364 C345 1.368 . S
C364 C358 1.368 . S
C364 C363 1.523 . S
C365 C349 1.429 . S
C365 C361 1.429 . S
C365 C366 1.523 . S
C366 C350 1.368 . S
C366 C362 1.368 . S
C366 C365 1.523 . S
H367 C342 0.950 . S
H368 C344 0.950 . S
H369 C345 0.949 . S
H370 C347 0.950 . S
H371 C349 0.950 . S
C372 C373 1.349 . S
C372 C374 1.327 . S
C372 H397 0.950 . S
C373 C372 1.349 . S
C373 C389 1.349 . S
C374 C372 1.327 . S
C374 C393 1.429 . S
C374 H398 0.950 . S
C375 C392 1.574 . S
C375 C394 1.368 . S
C375 H399 0.949 . S
H376 C380 0.949 . S
C377 C378 1.349 . S
C377 C379 1.327 . S
C377 H400 0.950 . S
C378 C377 1.349 . S
C378 C390 1.349 . S
C379 C377 1.327 . S
C379 C395 1.429 . S
C379 H401 0.950 . S
C380 H376 0.949 . S
C380 C388 1.574 . S
C380 C396 1.368 . S
H381 C389 0.941 1_565 S
H382 C387 0.950 . S
H383 C388 0.949 . S
H384 C390 0.950 . S
H385 C391 0.950 . S
H386 C392 0.949 . S
C387 H382 0.950 . S
C387 C389 1.327 . S
C387 C393 1.429 . S
C388 C380 1.574 . S
C388 H383 0.949 . S
C388 C394 1.368 . S
C389 C373 1.349 . S
C389 H381 0.941 1_545 S
C389 C387 1.327 . S
C390 C378 1.349 . S
C390 H384 0.950 . S
C390 C391 1.327 . S
C391 H385 0.950 . S
C391 C390 1.327 . S
C391 C395 1.429 . S
C392 C375 1.574 . S
C392 H386 0.949 . S
C392 C396 1.368 . S
C393 C374 1.429 . S
C393 C387 1.429 . S
C393 C394 1.523 . S
C394 C375 1.368 . S
C394 C388 1.368 . S
C394 C393 1.523 . S
C395 C379 1.429 . S
C395 C391 1.429 . S
C395 C396 1.523 . S
C396 C380 1.368 . S
C396 C392 1.368 . S
C396 C395 1.523 . S
H397 C372 0.950 . S
H398 C374 0.950 . S
H399 C375 0.949 . S
H400 C377 0.950 . S
H401 C379 0.950 . S
C402 C403 1.349 . S
C402 C404 1.327 . S
C402 H427 0.950 . S
C403 C402 1.349 . S
C403 C419 1.349 . S
C404 C402 1.327 . S
C404 C423 1.429 . S
C404 H428 0.950 . S
C405 C422 1.574 . S
C405 C424 1.368 . S
C405 H429 0.949 . S
H406 C410 0.949 . S
C407 C408 1.349 . S
C407 C409 1.327 . S
C407 H430 0.950 . S
C408 C407 1.349 . S
C408 C420 1.349 . S
C409 C407 1.327 . S
C409 C425 1.429 . S
C409 H431 0.950 . S
C410 H406 0.949 . S
C410 C418 1.574 . S
C410 C426 1.368 . S
H411 C419 0.950 . S
H412 C417 0.950 . S
H413 C418 0.949 . S
H414 C420 0.950 . S
H415 C421 0.950 . S
H416 C422 0.949 . S
C417 H412 0.950 . S
C417 C419 1.327 . S
C417 C423 1.429 . S
C418 C410 1.574 . S
C418 H413 0.949 . S
C418 C424 1.368 . S
C419 C403 1.349 . S
C419 H411 0.950 . S
C419 C417 1.327 . S
C420 C408 1.349 . S
C420 H414 0.950 . S
C420 C421 1.327 . S
C421 H415 0.950 . S
C421 C420 1.327 . S
C421 C425 1.429 . S
C422 C405 1.574 . S
C422 H416 0.949 . S
C422 C426 1.368 . S
C423 C404 1.429 . S
C423 C417 1.429 . S
C423 C424 1.523 . S
C424 C405 1.368 . S
C424 C418 1.368 . S
C424 C423 1.523 . S
C425 C409 1.429 . S
C425 C421 1.429 . S
C425 C426 1.523 . S
C426 C410 1.368 . S
C426 C422 1.368 . S
C426 C425 1.523 . S
H427 C402 0.950 . S
H428 C404 0.950 . S
H429 C405 0.949 . S
H430 C407 0.950 . S
H431 C409 0.950 . S
C432 C433 1.349 . S
C432 C434 1.327 . S
C432 H457 0.950 . S
C433 C432 1.349 . S
C433 C449 1.349 . S
C434 C432 1.327 . S
C434 C453 1.429 . S
C434 H458 0.950 . S
C435 C452 1.574 . S
C435 C454 1.368 . S
C435 H459 0.949 . S
H436 C440 0.949 . S
C437 C438 1.349 . S
C437 C439 1.327 . S
C437 H460 0.950 . S
C438 C437 1.349 . S
C438 C450 1.349 . S
C439 C437 1.327 . S
C439 C455 1.429 . S
C439 H461 0.950 . S
C440 H436 0.949 . S
C440 C448 1.574 . S
C440 C456 1.368 . S
H441 C449 0.950 . S
H442 C447 0.950 . S
H443 C448 0.949 . S
H444 C450 0.950 . S
H445 C451 0.950 . S
H446 C452 0.949 . S
C447 H442 0.950 . S
C447 C449 1.327 . S
C447 C453 1.429 . S
C448 C440 1.574 . S
C448 H443 0.949 . S
C448 C454 1.368 . S
C449 C433 1.349 . S
C449 H441 0.950 . S
C449 C447 1.327 . S
C450 C438 1.349 . S
C450 H444 0.950 . S
C450 C451 1.327 . S
C451 H445 0.950 . S
C451 C450 1.327 . S
C451 C455 1.429 . S
C452 C435 1.574 . S
C452 H446 0.949 . S
C452 C456 1.368 . S
C453 C434 1.429 . S
C453 C447 1.429 . S
C453 C454 1.523 . S
C454 C435 1.368 . S
C454 C448 1.368 . S
C454 C453 1.523 . S
C455 C439 1.429 . S
C455 C451 1.429 . S
C455 C456 1.523 . S
C456 C440 1.368 . S
C456 C452 1.368 . S
C456 C455 1.523 . S
H457 C432 0.950 . S
H458 C434 0.950 . S
H459 C435 0.949 . S
H460 C437 0.950 . S
H461 C439 0.950 . S
C462 C463 1.349 . S
C462 C464 1.327 . S
C462 H487 0.950 . S
C463 C462 1.349 . S
C463 C479 1.349 1_554 S
C464 C462 1.327 . S
C464 C483 1.429 1_554 S
C464 H488 0.950 . S
C465 C482 1.574 . S
C465 C484 1.368 . S
C465 H489 0.949 . S
H466 C470 0.949 . S
C467 C468 1.349 . S
C467 C469 1.327 . S
C467 H490 0.950 . S
C468 C467 1.349 . S
C468 C480 1.349 . S
C469 C467 1.327 . S
C469 C485 1.429 . S
C469 H491 0.950 . S
C470 H466 0.949 . S
C470 C478 1.574 . S
C470 C486 1.368 . S
H471 C479 0.950 . S
H472 C477 0.950 . S
H473 C478 0.949 . S
H474 C480 0.950 . S
H475 C481 0.950 . S
H476 C482 0.949 . S
C477 H472 0.950 . S
C477 C479 1.327 . S
C477 C483 1.429 . S
C478 C470 1.574 . S
C478 H473 0.949 . S
C478 C484 1.368 . S
C479 C463 1.349 1_556 S
C479 H471 0.950 . S
C479 C477 1.327 . S
C480 C468 1.349 . S
C480 H474 0.950 . S
C480 C481 1.327 . S
C481 H475 0.950 . S
C481 C480 1.327 . S
C481 C485 1.429 . S
C482 C465 1.574 . S
C482 H476 0.949 . S
C482 C486 1.368 . S
C483 C464 1.429 1_556 S
C483 C477 1.429 . S
C483 C484 1.523 . S
C484 C465 1.368 . S
C484 C478 1.368 . S
C484 C483 1.523 . S
C485 C469 1.429 . S
C485 C481 1.429 . S
C485 C486 1.523 . S
C486 C470 1.368 . S
C486 C482 1.368 . S
C486 C485 1.523 . S
H487 C462 0.950 . S
H488 C464 0.950 . S
H489 C465 0.949 . S
H490 C467 0.950 . S
H491 C469 0.950 . S
C492 C493 1.349 1_655 S
C492 C494 1.327 . S
C492 H517 0.950 . S
C493 C492 1.349 1_455 S
C493 C509 1.349 . S
C494 C492 1.327 . S
C494 C513 1.429 1_655 S
C494 H518 0.950 . S
C495 C512 1.574 . S
C495 C514 1.368 . S
C495 H519 0.949 . S
H496 C500 0.949 . S
C497 C498 1.349 . S
C497 C499 1.327 . S
C497 H520 0.950 . S
C498 C497 1.349 . S
C498 C510 1.349 1_455 S
C499 C497 1.327 . S
C499 C515 1.429 . S
C499 H521 0.950 . S
C500 H496 0.949 . S
C500 C508 1.574 . S
C500 C516 1.368 1_655 S
H501 C509 0.950 . S
H502 C507 0.950 . S
H503 C508 0.949 . S
H504 C510 0.950 . S
H505 C511 0.950 . S
H506 C512 0.949 . S
C507 H502 0.950 . S
C507 C509 1.327 . S
C507 C513 1.429 . S
C508 C500 1.574 . S
C508 H503 0.949 . S
C508 C514 1.368 1_655 S
C509 C493 1.349 . S
C509 H501 0.950 . S
C509 C507 1.327 . S
C510 C498 1.349 1_655 S
C510 H504 0.950 . S
C510 C511 1.327 . S
C511 H505 0.950 . S
C511 C510 1.327 . S
C511 C515 1.429 1_655 S
C512 C495 1.574 . S
C512 H506 0.949 . S
C512 C516 1.368 . S
C513 C494 1.429 1_455 S
C513 C507 1.429 . S
C513 C514 1.523 . S
C514 C495 1.368 . S
C514 C508 1.368 1_455 S
C514 C513 1.523 . S
C515 C499 1.429 . S
C515 C511 1.429 1_455 S
C515 C516 1.523 . S
C516 C500 1.368 1_455 S
C516 C512 1.368 . S
C516 C515 1.523 . S
H517 C492 0.950 . S
H518 C494 0.950 . S
H519 C495 0.949 . S
H520 C497 0.950 . S
H521 C499 0.950 . S
C522 C523 1.349 . S
C522 C524 1.327 . S
C522 H547 0.950 . S
C523 C522 1.349 . S
C523 C539 1.349 . S
C524 C522 1.327 . S
C524 C543 1.429 . S
C524 H548 0.950 . S
C525 C542 1.574 . S
C525 C544 1.368 . S
C525 H549 0.949 . S
H526 C530 0.949 . S
C527 C528 1.349 . S
C527 C529 1.327 . S
C527 H550 0.950 . S
C528 C527 1.349 . S
C528 C540 1.349 . S
C529 C527 1.327 . S
C529 C545 1.429 . S
C529 H551 0.950 . S
C530 H526 0.949 . S
C530 C538 1.574 . S
C530 C546 1.368 . S
H531 C539 0.950 1_565 S
H532 C537 0.948 1_565 S
H533 C538 0.949 . S
H534 C540 0.950 . S
H535 C541 0.950 . S
H536 C542 0.949 . S
C537 H532 0.948 1_545 S
C537 C539 1.327 . S
C537 C543 1.429 . S
C538 C530 1.574 . S
C538 H533 0.949 . S
C538 C544 1.368 . S
C539 C523 1.349 . S
C539 H531 0.950 1_545 S
C539 C537 1.327 . S
C540 C528 1.349 . S
C540 H534 0.950 . S
C540 C541 1.327 . S
C541 H535 0.950 . S
C541 C540 1.327 . S
C541 C545 1.429 . S
C542 C525 1.574 . S
C542 H536 0.949 . S
C542 C546 1.368 . S
C543 C524 1.429 . S
C543 C537 1.429 . S
C543 C544 1.523 . S
C544 C525 1.368 . S
C544 C538 1.368 . S
C544 C543 1.523 . S
C545 C529 1.429 . S
C545 C541 1.429 . S
C545 C546 1.523 . S
C546 C530 1.368 . S
C546 C542 1.368 . S
C546 C545 1.523 . S
H547 C522 0.950 . S
H548 C524 0.950 . S
H549 C525 0.949 . S
H550 C527 0.950 . S
H551 C529 0.950 . S
C552 C553 1.349 . S
C552 C554 1.327 . S
C552 H577 0.950 . S
C553 C552 1.349 . S
C553 C569 1.349 1_554 S
C554 C552 1.327 . S
C554 C573 1.429 1_554 S
C554 H578 0.950 . S
C555 C572 1.574 . S
C555 C574 1.368 . S
C555 H579 0.949 . S
H556 C560 0.949 . S
C557 C558 1.349 . S
C557 C559 1.327 . S
C557 H580 0.950 . S
C558 C557 1.349 . S
C558 C570 1.349 . S
C559 C557 1.327 . S
C559 C575 1.429 . S
C559 H581 0.950 . S
C560 H556 0.949 . S
C560 C568 1.574 . S
C560 C576 1.368 . S
H561 C569 0.950 . S
H562 C567 0.950 . S
H563 C568 0.949 . S
H564 C570 0.950 . S
H565 C571 0.950 . S
H566 C572 0.949 . S
C567 H562 0.950 . S
C567 C569 1.327 . S
C567 C573 1.429 . S
C568 C560 1.574 . S
C568 H563 0.949 . S
C568 C574 1.368 . S
C569 C553 1.349 1_556 S
C569 H561 0.950 . S
C569 C567 1.327 . S
C570 C558 1.349 . S
C570 H564 0.950 . S
C570 C571 1.327 . S
C571 H565 0.950 . S
C571 C570 1.327 . S
C571 C575 1.429 . S
C572 C555 1.574 . S
C572 H566 0.949 . S
C572 C576 1.368 . S
C573 C554 1.429 1_556 S
C573 C567 1.429 . S
C573 C574 1.523 . S
C574 C555 1.368 . S
C574 C568 1.368 . S
C574 C573 1.523 . S
C575 C559 1.429 . S
C575 C571 1.429 . S
C575 C576 1.523 . S
C576 C560 1.368 . S
C576 C572 1.368 . S
C576 C575 1.523 . S
H577 C552 0.950 . S
H578 C554 0.950 . S
H579 C555 0.949 . S
H580 C557 0.950 . S
H581 C559 0.950 . S
C582 C583 1.349 1_655 S
C582 C584 1.327 . S
C582 H607 0.950 . S
C583 C582 1.349 1_455 S
C583 C599 1.349 . S
C584 C582 1.327 . S
C584 C603 1.429 1_655 S
C584 H608 0.950 . S
C585 C602 1.574 . S
C585 C604 1.368 . S
C585 H609 0.949 . S
H586 C590 0.949 . S
C587 C588 1.349 . S
C587 C589 1.327 . S
C587 H610 0.950 . S
C588 C587 1.349 . S
C588 C600 1.349 1_455 S
C589 C587 1.327 . S
C589 C605 1.429 . S
C589 H611 0.950 . S
C590 H586 0.949 . S
C590 C598 1.574 . S
C590 C606 1.368 1_655 S
H591 C599 0.950 . S
H592 C597 0.950 . S
H593 C598 0.949 . S
H594 C600 0.950 . S
H595 C601 0.950 . S
H596 C602 0.949 . S
C597 H592 0.950 . S
C597 C599 1.327 . S
C597 C603 1.429 . S
C598 C590 1.574 . S
C598 H593 0.949 . S
C598 C604 1.368 1_655 S
C599 C583 1.349 . S
C599 H591 0.950 . S
C599 C597 1.327 . S
C600 C588 1.349 1_655 S
C600 H594 0.950 . S
C600 C601 1.327 . S
C601 H595 0.950 . S
C601 C600 1.327 . S
C601 C605 1.429 1_655 S
C602 C585 1.574 . S
C602 H596 0.949 . S
C602 C606 1.368 . S
C603 C584 1.429 1_455 S
C603 C597 1.429 . S
C603 C604 1.523 . S
C604 C585 1.368 . S
C604 C598 1.368 1_455 S
C604 C603 1.523 . S
C605 C589 1.429 . S
C605 C601 1.429 1_455 S
C605 C606 1.523 . S
C606 C590 1.368 1_455 S
C606 C602 1.368 . S
C606 C605 1.523 . S
H607 C582 0.950 . S
H608 C584 0.950 . S
H609 C585 0.949 . S
H610 C587 0.950 . S
H611 C589 0.950 . S
C258 C129 1.488 . S
C253 C14 1.436 . S
C283 C40 1.506 . S
C288 C177 1.521 . S
C313 C76 1.486 . S
C318 C249 1.490 . S
C343 C3 1.480 . S
C348 C153 1.473 . S
C378 C201 1.512 . S
C373 C38 1.501 . S
C403 C74 1.474 . S
C408 C225 1.488 . S
C438 C186 1.457 . S
C433 C86 1.415 . S
C463 C2 1.475 . S
C468 C240 1.490 . S
C498 C144 1.479 . S
C493 C39 1.480 . S
C528 C192 1.474 . S
C523 C75 1.476 . S
C558 C234 1.497 . S
C553 C4 1.486 . S
C583 C50 1.436 . S
C588 C138 1.483 . S
