# Generated by pormake.
# Topology zzz, (3,6)-cn, num edge types: 1
# Building blocks:
#     Node 0, Type 0, BuildingBlock: VETTIZ_charged_linker_0, # of connection points: 3
#     Node 1, Type 0, BuildingBlock: VETTIZ_charged_linker_0, # of connection points: 3
#     Node 2, Type 0, BuildingBlock: VETTIZ_charged_linker_0, # of connection points: 3
#     Node 3, Type 0, BuildingBlock: VETTIZ_charged_linker_0, # of connection points: 3
#     Node 4, Type 0, BuildingBlock: VETTIZ_charged_linker_0, # of connection points: 3
#     Node 5, Type 0, BuildingBlock: VETTIZ_charged_linker_0, # of connection points: 3
#     Node 6, Type 0, BuildingBlock: VETTIZ_charged_linker_0, # of connection points: 3
#     Node 7, Type 0, BuildingBlock: VETTIZ_charged_linker_0, # of connection points: 3
#     Node 8, Type 1, BuildingBlock: KUMJIN_clean_sbu_1, # of connection points: 6
#     Node 9, Type 1, BuildingBlock: KUMJIN_clean_sbu_1, # of connection points: 6
#     Node 10, Type 1, BuildingBlock: KUMJIN_clean_sbu_1, # of connection points: 6
#     Node 11, Type 1, BuildingBlock: KUMJIN_clean_sbu_1, # of connection points: 6
#     Edge 12, Type (0, 1), BuildingBlock: ZUJKAS_clean_linker_0, # of connection points: 2
#     Edge 13, Type (0, 1), BuildingBlock: ZUJKAS_clean_linker_0, # of connection points: 2
#     Edge 14, Type (0, 1), BuildingBlock: ZUJKAS_clean_linker_0, # of connection points: 2
#     Edge 15, Type (0, 1), BuildingBlock: ZUJKAS_clean_linker_0, # of connection points: 2
#     Edge 16, Type (0, 1), BuildingBlock: ZUJKAS_clean_linker_0, # of connection points: 2
#     Edge 17, Type (0, 1), BuildingBlock: ZUJKAS_clean_linker_0, # of connection points: 2
#     Edge 18, Type (0, 1), BuildingBlock: ZUJKAS_clean_linker_0, # of connection points: 2
#     Edge 19, Type (0, 1), BuildingBlock: ZUJKAS_clean_linker_0, # of connection points: 2
#     Edge 20, Type (0, 1), BuildingBlock: ZUJKAS_clean_linker_0, # of connection points: 2
#     Edge 21, Type (0, 1), BuildingBlock: ZUJKAS_clean_linker_0, # of connection points: 2
#     Edge 22, Type (0, 1), BuildingBlock: ZUJKAS_clean_linker_0, # of connection points: 2
#     Edge 23, Type (0, 1), BuildingBlock: ZUJKAS_clean_linker_0, # of connection points: 2
#     Edge 24, Type (0, 1), BuildingBlock: ZUJKAS_clean_linker_0, # of connection points: 2
#     Edge 25, Type (0, 1), BuildingBlock: ZUJKAS_clean_linker_0, # of connection points: 2
#     Edge 26, Type (0, 1), BuildingBlock: ZUJKAS_clean_linker_0, # of connection points: 2
#     Edge 27, Type (0, 1), BuildingBlock: ZUJKAS_clean_linker_0, # of connection points: 2
#     Edge 28, Type (0, 1), BuildingBlock: ZUJKAS_clean_linker_0, # of connection points: 2
#     Edge 29, Type (0, 1), BuildingBlock: ZUJKAS_clean_linker_0, # of connection points: 2
#     Edge 30, Type (0, 1), BuildingBlock: ZUJKAS_clean_linker_0, # of connection points: 2
#     Edge 31, Type (0, 1), BuildingBlock: ZUJKAS_clean_linker_0, # of connection points: 2
#     Edge 32, Type (0, 1), BuildingBlock: ZUJKAS_clean_linker_0, # of connection points: 2
#     Edge 33, Type (0, 1), BuildingBlock: ZUJKAS_clean_linker_0, # of connection points: 2
#     Edge 34, Type (0, 1), BuildingBlock: ZUJKAS_clean_linker_0, # of connection points: 2
#     Edge 35, Type (0, 1), BuildingBlock: ZUJKAS_clean_linker_0, # of connection points: 2
# Relax obj value: 0.293
# Max RMSD: 0.212
# Mean RMSD: 0.182
data_MOF--net-zzz--node1-KUMJIN_clean_sbu_1--node2-VETTIZ_charged_linker_0--edge1-ZUJKAS_clean_linker_0
_symmetry_space_group_name_H-M    P1
_symmetry_Int_Tables_number       1
_symmetry_cell_setting            triclinic
loop_
_symmetry_equiv_pos_as_xyz
'x, y, z'
_cell_length_a     69.903148
_cell_length_b     69.818956
_cell_length_c     25.958293
_cell_angle_alpha  89.976253
_cell_angle_beta   89.952153
_cell_angle_gamma 90.284046
loop_
_atom_site_label
_atom_site_type_symbol
_atom_site_fract_x
_atom_site_fract_y
_atom_site_fract_z
_atom_type_partial_charge
C0 C 0.79954 0.54358 0.23455 0.0
C1 C 0.81587 0.55245 0.25677 0.0
C2 C 0.82174 0.57046 0.23827 0.0
C3 C 0.79701 0.56982 0.17332 0.0
C4 C 0.79 0.55285 0.19332 0.0
C5 C 0.77168 0.54688 0.16582 0.0
H6 H 0.70882 0.5665 0.96828 0.0
C7 C 0.78546 0.57522 0.12821 0.0
C8 C 0.77009 0.56222 0.12374 0.0
H9 H 0.70234 0.52172 0.08137 0.0
H10 H 0.73286 0.53099 0.12065 0.0
H11 H 0.72543 0.60033 0.03974 0.0
H12 H 0.74983 0.55664 0.94487 0.0
H13 H 0.76746 0.57458 0.94603 0.0
H14 H 0.74422 0.57967 0.91893 0.0
H15 H 0.7237 0.59916 0.97074 0.0
H16 H 0.74357 0.61089 1.0016 0.0
C17 C 0.75505 0.54804 0.20476 0.0
C18 C 0.77435 0.5267 0.14292 0.0
C19 C 0.81455 0.62208 1.0014 0.0
C20 C 0.81075 0.625 0.94873 0.0
C21 C 0.79243 0.62004 0.92992 0.0
C22 C 0.77921 0.61035 0.96123 0.0
C23 C 0.78452 0.60494 1.01135 0.0
C24 C 0.8017 0.61131 0.03118 0.0
C25 C 0.80596 0.60265 0.08292 0.0
C26 C 0.78888 0.58924 0.08962 0.0
C27 C 0.77629 0.5909 0.04806 0.0
C28 C 0.80609 0.61897 0.12354 0.0
C29 C 0.82512 0.59158 0.07826 0.0
C30 C 0.71376 0.55889 1.00211 0.0
C31 C 0.70297 0.54375 0.02254 0.0
C32 C 0.71032 0.53364 0.06533 0.0
C33 C 0.72792 0.53913 0.08825 0.0
C34 C 0.73835 0.55472 0.06772 0.0
C35 C 0.73121 0.56397 0.02465 0.0
C36 C 0.7445 0.57903 1.00433 0.0
C37 C 0.76005 0.57873 0.04476 0.0
C38 C 0.75676 0.56436 0.08207 0.0
C39 C 0.73382 0.59843 1.00366 0.0
C40 C 0.75186 0.57231 0.95073 0.0
H41 H 0.8179 0.59272 0.18471 0.0
H42 H 0.79435 0.52997 0.24905 0.0
H43 H 0.78794 0.52599 0.12073 0.0
H44 H 0.76276 0.52278 0.11604 0.0
H45 H 0.7749 0.51574 0.17391 0.0
H46 H 0.75579 0.56169 0.22679 0.0
H47 H 0.75571 0.53602 0.23277 0.0
H48 H 0.74092 0.54784 0.186 0.0
H49 H 0.82812 0.62634 0.01797 0.0
H50 H 0.78874 0.62214 0.88985 0.0
H51 H 0.76582 0.60645 0.94405 0.0
H52 H 0.79854 0.63197 0.10955 0.0
H53 H 0.82092 0.62338 0.13354 0.0
H54 H 0.79839 0.61484 0.15926 0.0
H55 H 0.82557 0.5833 0.04165 0.0
H56 H 0.82742 0.58094 0.10883 0.0
H57 H 0.83751 0.6016 0.07834 0.0
H58 H 0.83408 0.57764 0.25478 0.0
C59 C 0.81239 0.57918 0.19723 0.0
C60 C 0.92994 0.80193 0.93293 0.0
C61 C 0.92361 0.821 0.93662 0.0
C62 C 0.92218 0.82935 0.986 0.0
C63 C 0.93746 0.80166 0.02408 0.0
C64 C 0.93668 0.79259 0.97699 0.0
C65 C 0.94528 0.77293 0.97879 0.0
H66 H 0.99824 0.70569 0.09808 0.0
C67 C 0.94847 0.78933 0.05968 0.0
C68 C 0.95282 0.77238 0.03374 0.0
H69 H 0.96909 0.70339 0.95137 0.0
H70 H 0.95657 0.73468 0.96496 0.0
H71 H 0.01125 0.75376 0.08864 0.0
H72 H 0.96166 0.72856 0.16451 0.0
H73 H 0.97515 0.74425 0.20447 0.0
H74 H 0.98557 0.72214 0.18324 0.0
H75 H 0.01399 0.73682 0.14034 0.0
H76 H 1.00823 0.7614 0.15329 0.0
C77 C 0.9617 0.77213 0.93854 0.0
C78 C 0.92888 0.75817 0.97 0.0
C79 C 0.96963 0.81838 0.22814 0.0
C80 C 0.98157 0.81281 0.26884 0.0
C81 C 0.99017 0.79448 0.26597 0.0
C82 C 0.98665 0.78208 0.2236 0.0
C83 C 0.97455 0.78807 0.18325 0.0
C84 C 0.96634 0.80604 0.18665 0.0
C85 C 0.95435 0.81089 0.1409 0.0
C86 C 0.9564 0.79293 0.10899 0.0
C87 C 0.96826 0.77929 0.13323 0.0
C88 C 0.96352 0.82865 0.11436 0.0
C89 C 0.93343 0.81376 0.15936 0.0
C90 C 0.98908 0.71211 0.06932 0.0
C91 C 0.98462 0.7021 0.02327 0.0
C92 C 0.97268 0.71079 0.98682 0.0
C93 C 0.96533 0.72902 0.99497 0.0
C94 C 0.9699 0.73905 0.04019 0.0
C95 C 0.98142 0.73071 0.07709 0.0
C96 C 0.98417 0.74413 0.12289 0.0
C97 C 0.97206 0.76147 0.1073 0.0
C98 C 0.9641 0.75819 0.05819 0.0
C99 C 1.00557 0.74932 0.12689 0.0
C100 C 0.97629 0.73428 0.17167 0.0
H101 H 0.92861 0.82742 0.06551 0.0
H102 H 0.93116 0.79485 0.89601 0.0
H103 H 0.91455 0.76437 0.97805 0.0
H104 H 0.92987 0.74574 0.99645 0.0
H105 H 0.92868 0.75295 0.9296 0.0
H106 H 0.96992 0.78583 0.93816 0.0
H107 H 0.956 0.76974 0.89913 0.0
H108 H 0.97242 0.76101 0.9468 0.0
H109 H 0.96317 0.83244 0.22763 0.0
H110 H 0.99945 0.78966 0.29666 0.0
H111 H 0.99345 0.76833 0.22365 0.0
H112 H 0.97941 0.82808 0.11649 0.0
H113 H 0.95891 0.84213 0.13325 0.0
H114 H 0.9604 0.82963 0.07286 0.0
H115 H 0.93022 0.80492 0.19401 0.0
H116 H 0.92278 0.80905 0.13045 0.0
H117 H 0.93071 0.82895 0.16964 0.0
H118 H 0.91669 0.84373 0.99059 0.0
C119 C 0.92912 0.81983 0.02963 0.0
C120 C 0.816 0.98088 0.06283 0.0
C121 C 0.82615 0.97364 0.01974 0.0
C122 C 0.81732 0.9598 0.9884 0.0
C123 C 0.78889 0.96033 0.04149 0.0
C124 C 0.79735 0.97375 0.07343 0.0
C125 C 0.78421 0.97869 0.11827 0.0
H126 H 0.69594 0.96439 0.23094 0.0
C127 C 0.76978 0.95549 0.06182 0.0
C128 C 0.7668 0.96582 0.10775 0.0
H129 H 0.73955 1.00337 0.28476 0.0
H130 H 0.76103 0.99263 0.216 0.0
H131 H 0.70043 0.97425 0.11553 0.0
H132 H 0.7227 0.92939 0.2106 0.0
H133 H 0.71862 0.9186 0.15054 0.0
H134 H 0.69877 0.92869 0.18584 0.0
H135 H 0.68612 0.95473 0.13914 0.0
H136 H 0.69866 0.95334 0.07877 0.0
C137 C 0.77914 1.00012 0.11475 0.0
C138 C 0.79426 0.9733 0.16904 0.0
C139 C 0.72419 0.9169 0.9501 0.0
C140 C 0.70508 0.91117 0.95752 0.0
C141 C 0.69724 0.91181 1.00749 0.0
C142 C 0.70749 0.92008 0.04812 0.0
C143 C 0.72574 0.92786 0.03865 0.0
C144 C 0.73428 0.92509 0.99133 0.0
C145 C 0.75418 0.93334 0.98953 0.0
C146 C 0.75533 0.94321 0.04185 0.0
C147 C 0.7385 0.94022 0.06982 0.0
C148 C 0.75518 0.94792 0.94447 0.0
C149 C 0.76843 0.91641 0.98503 0.0
C150 C 0.71012 0.97067 0.22815 0.0
C151 C 0.71591 0.98491 0.26276 0.0
C152 C 0.73467 0.99242 0.25826 0.0
C153 C 0.74705 0.98625 0.21821 0.0
C154 C 0.74063 0.97233 0.18264 0.0
C155 C 0.72245 0.96471 0.18902 0.0
C156 C 0.71727 0.95045 0.14846 0.0
C157 C 0.73521 0.95056 0.11594 0.0
C158 C 0.74912 0.9634 0.13537 0.0
C159 C 0.69966 0.95837 0.11889 0.0
C160 C 0.714 0.93075 0.17489 0.0
H161 H 0.79315 0.94282 0.97288 0.0
H162 H 0.82251 0.99147 0.0878 0.0
H163 H 0.80028 0.95861 0.16646 0.0
H164 H 0.78438 0.97324 0.20217 0.0
H165 H 0.80621 0.98338 0.17738 0.0
H166 H 0.77451 1.00382 0.07499 0.0
H167 H 0.79173 1.00919 0.12448 0.0
H168 H 0.76723 1.00404 0.14046 0.0
H169 H 0.73062 0.91628 0.91216 0.0
H170 H 0.68253 0.90752 0.01423 0.0
H171 H 0.70027 0.92123 0.08442 0.0
H172 H 0.74216 0.95701 0.9439 0.0
H173 H 0.75613 0.94044 0.90679 0.0
H174 H 0.76733 0.95799 0.94735 0.0
H175 H 0.76174 0.90245 0.99554 0.0
H176 H 0.78067 0.91796 1.01192 0.0
H177 H 0.77398 0.91495 0.94512 0.0
H178 H 0.82469 0.95417 0.95494 0.0
C179 C 0.79892 0.95317 0.99894 0.0
C180 C 0.54395 0.735 0.23338 0.0
C181 C 0.55221 0.71778 0.25199 0.0
C182 C 0.56947 0.7115 0.23015 0.0
C183 C 0.56994 0.7384 0.17147 0.0
C184 C 0.55335 0.74534 0.1934 0.0
C185 C 0.54782 0.76441 0.16899 0.0
H186 H 0.57179 0.8337 0.98971 0.0
C187 C 0.57625 0.75159 0.1304 0.0
C188 C 0.56378 0.76737 0.12902 0.0
H189 H 0.52237 0.83479 0.08917 0.0
H190 H 0.53188 0.80407 0.12683 0.0
H191 H 0.6028 0.817 0.07084 0.0
H192 H 0.56563 0.79452 0.95487 0.0
H193 H 0.58413 0.77776 0.957 0.0
H194 H 0.58938 0.80225 0.93939 0.0
H195 H 0.60582 0.82045 1.00275 0.0
H196 H 0.61609 0.80015 0.03536 0.0
C197 C 0.54818 0.78001 0.21092 0.0
C198 C 0.52808 0.76209 0.14329 0.0
C199 C 0.62529 0.72818 1.00212 0.0
C200 C 0.63151 0.73578 0.95473 0.0
C201 C 0.62914 0.75552 0.94548 0.0
C202 C 0.61854 0.76684 0.97966 0.0
C203 C 0.61008 0.75828 0.02322 0.0
C204 C 0.61443 0.73957 0.03534 0.0
C205 C 0.60411 0.73278 0.08284 0.0
C206 C 0.59137 0.74989 0.09414 0.0
C207 C 0.59494 0.7647 0.05915 0.0
C208 C 0.61928 0.7296 0.12571 0.0
C209 C 0.59229 0.71465 0.06854 0.0
C210 C 0.56315 0.82764 0.02042 0.0
C211 C 0.5466 0.83696 0.0372 0.0
C212 C 0.53534 0.82799 0.07575 0.0
C213 C 0.5409 0.81022 0.09763 0.0
C214 C 0.55769 0.80114 0.0801 0.0
C215 C 0.56825 0.80999 0.04157 0.0
C216 C 0.58461 0.79815 0.0232 0.0
C217 C 0.58297 0.781 0.05842 0.0
C218 C 0.56725 0.7825 0.09244 0.0
C219 C 0.60339 0.80948 0.03308 0.0
C220 C 0.58095 0.79293 0.96571 0.0
H221 H 0.59124 0.71574 0.1756 0.0
H222 H 0.53078 0.74032 0.24989 0.0
H223 H 0.52774 0.749 0.11889 0.0
H224 H 0.5246 0.77421 0.11778 0.0
H225 H 0.51663 0.76073 0.1728 0.0
H226 H 0.56185 0.77948 0.23276 0.0
H227 H 0.53624 0.7779 0.23866 0.0
H228 H 0.54713 0.79456 0.19467 0.0
H229 H 0.6269 0.71311 1.0107 0.0
H230 H 0.63419 0.76186 0.90985 0.0
H231 H 0.6164 0.78151 0.96913 0.0
H232 H 0.63311 0.73684 0.11682 0.0
H233 H 0.62239 0.71414 0.13107 0.0
H234 H 0.61475 0.7358 0.16312 0.0
H235 H 0.58519 0.71656 0.03054 0.0
H236 H 0.58063 0.71142 0.09578 0.0
H237 H 0.60159 0.70183 0.06598 0.0
H238 H 0.57607 0.69836 0.24332 0.0
C239 C 0.57832 0.72165 0.19054 0.0
C240 C 0.31638 0.48606 0.16671 0.0
C241 C 0.3274 0.4788 0.20827 0.0
C242 C 0.31936 0.46462 0.24011 0.0
C243 C 0.28964 0.4658 0.19279 0.0
C244 C 0.2975 0.47897 0.15905 0.0
C245 C 0.28341 0.48365 0.11605 0.0
H246 H 0.19253 0.46862 0.0193 0.0
C247 C 0.26971 0.46188 0.17769 0.0
C248 C 0.26575 0.47184 0.13172 0.0
H249 H 0.23658 0.5031 0.94811 0.0
H250 H 0.25819 0.49603 0.01984 0.0
H251 H 0.21854 0.43358 0.05604 0.0
H252 H 0.19793 0.48518 0.12542 0.0
H253 H 0.19985 0.46913 0.17694 0.0
H254 H 0.18372 0.46378 0.12451 0.0
H255 H 0.19397 0.43782 0.07252 0.0
H256 H 0.21039 0.42757 0.11821 0.0
C257 C 0.29196 0.47671 0.06462 0.0
C258 C 0.27933 0.50531 0.11673 0.0
C259 C 0.22664 0.42923 0.30809 0.0
C260 C 0.2067 0.42686 0.31027 0.0
C261 C 0.19597 0.42907 0.26469 0.0
C262 C 0.20474 0.43541 0.21915 0.0
C263 C 0.2244 0.43982 0.21928 0.0
C264 C 0.23511 0.43599 0.26267 0.0
C265 C 0.25562 0.44207 0.25662 0.0
C266 C 0.25515 0.45143 0.20364 0.0
C267 C 0.23691 0.44998 0.182 0.0
C268 C 0.26812 0.42373 0.25721 0.0
C269 C 0.26024 0.4567 0.29999 0.0
C270 C 0.20694 0.4744 0.01825 0.0
C271 C 0.21291 0.48602 0.97718 0.0
C272 C 0.23161 0.49391 0.979 0.0
C273 C 0.24417 0.4897 0.02044 0.0
C274 C 0.23792 0.47762 0.06077 0.0
C275 C 0.2194 0.47048 0.05894 0.0
C276 C 0.21421 0.45891 0.10536 0.0
C277 C 0.23289 0.45918 0.13459 0.0
C278 C 0.24703 0.4702 0.10908 0.0
C279 C 0.20885 0.43839 0.08746 0.0
C280 C 0.19804 0.46961 0.13463 0.0
H281 H 0.29563 0.44756 0.25903 0.0
H282 H 0.32234 0.49674 0.14098 0.0
H283 H 0.27555 0.51004 0.15634 0.0
H284 H 0.2672 0.50916 0.09169 0.0
H285 H 0.29211 0.51358 0.10403 0.0
H286 H 0.29726 0.46178 0.06844 0.0
H287 H 0.30419 0.48595 0.05282 0.0
H288 H 0.28136 0.47653 0.03323 0.0
H289 H 0.23529 0.42732 0.34229 0.0
H290 H 0.18056 0.42736 0.26513 0.0
H291 H 0.19566 0.43756 0.18641 0.0
H292 H 0.2596 0.41055 0.24928 0.0
H293 H 0.27514 0.42169 0.29519 0.0
H294 H 0.27921 0.42397 0.22662 0.0
H295 H 0.24815 0.46682 0.30536 0.0
H296 H 0.27275 0.46585 0.29188 0.0
H297 H 0.26268 0.44931 0.33729 0.0
H298 H 0.32741 0.45883 0.27217 0.0
C299 C 0.30076 0.4581 0.23252 0.0
C300 C 0.11662 0.24026 0.28193 0.0
C301 C 0.11772 0.2203 0.28969 0.0
C302 C 0.11321 0.20828 0.2474 0.0
C303 C 0.10156 0.23541 0.19876 0.0
C304 C 0.10762 0.24738 0.23771 0.0
C305 C 0.10058 0.26753 0.23058 0.0
H306 H 0.03238 0.3257 0.14351 0.0
C307 C 0.08924 0.24658 0.16356 0.0
C308 C 0.08834 0.26531 0.18227 0.0
H309 H 0.07992 0.338 0.24531 0.0
H310 H 0.09408 0.30797 0.22421 0.0
H311 H 0.06543 0.30489 0.05236 0.0
H312 H 0.02629 0.27794 0.16117 0.0
H313 H 0.02378 0.26993 0.0963 0.0
H314 H 0.01768 0.29413 0.11248 0.0
H315 H 0.04004 0.30867 0.04801 0.0
H316 H 0.05068 0.28695 0.02467 0.0
C317 C 0.11818 0.28076 0.22151 0.0
C318 C 0.08848 0.27274 0.27876 0.0
C319 C 0.05926 0.21228 0.01269 0.0
C320 C 0.04554 0.21684 0.97542 0.0
C321 C 0.03626 0.23477 0.97911 0.0
C322 C 0.04126 0.2481 0.01827 0.0
C323 C 0.05555 0.24339 0.05442 0.0
C324 C 0.06393 0.22548 0.05129 0.0
C325 C 0.07761 0.22173 0.09428 0.0
C326 C 0.07775 0.24094 0.12116 0.0
C327 C 0.06463 0.25381 0.09873 0.0
C328 C 0.09743 0.21697 0.07086 0.0
C329 C 0.06891 0.20561 0.12864 0.0
C330 C 0.04572 0.32166 0.16156 0.0
C331 C 0.05475 0.3341 0.19758 0.0
C332 C 0.07253 0.32876 0.21821 0.0
C333 C 0.08071 0.31118 0.20638 0.0
C334 C 0.07098 0.29832 0.17427 0.0
C335 C 0.05449 0.3039 0.14936 0.0
C336 C 0.0486 0.28891 0.10954 0.0
C337 C 0.06307 0.27284 0.11962 0.0
C338 C 0.07565 0.27859 0.15915 0.0
C339 C 0.05121 0.29776 0.05556 0.0
C340 C 0.02791 0.28234 0.12021 0.0
H341 H 0.10191 0.20575 0.17219 0.0
H342 H 0.12098 0.25024 0.31149 0.0
H343 H 0.07836 0.2609 0.28832 0.0
H344 H 0.07958 0.28554 0.27397 0.0
H345 H 0.09778 0.2752 0.3128 0.0
H346 H 0.13133 0.27254 0.2121 0.0
H347 H 0.12145 0.2895 0.25619 0.0
H348 H 0.11607 0.29046 0.18812 0.0
H349 H 0.06616 0.19841 1.01234 0.0
H350 H 0.02538 0.23858 0.95129 0.0
H351 H 0.03374 0.26147 0.01942 0.0
H352 H 0.10078 0.22678 0.03826 0.0
H353 H 0.09773 0.20207 0.05592 0.0
H354 H 0.10928 0.21879 0.09854 0.0
H355 H 0.05327 0.20373 0.12221 0.0
H356 H 0.07012 0.20885 0.17028 0.0
H357 H 0.07572 0.19157 0.12073 0.0
H358 H 0.11402 0.19287 0.25011 0.0
C359 C 0.10553 0.21577 0.2019 0.0
C360 C 0.29534 0.0408 0.98775 0.0
C361 C 0.31074 0.05098 0.96436 0.0
C362 C 0.31365 0.07035 0.9776 0.0
C363 C 0.28908 0.06821 0.04233 0.0
C364 C 0.28418 0.05011 0.02589 0.0
C365 C 0.26543 0.04377 0.05104 0.0
H366 H 0.1944 0.06823 0.22424 0.0
C367 C 0.27588 0.07429 0.08241 0.0
C368 C 0.26091 0.06091 0.08619 0.0
H369 H 0.19666 0.01606 0.13565 0.0
H370 H 0.22661 0.02678 0.09569 0.0
H371 H 0.2278 0.06835 0.26619 0.0
H372 H 0.21044 0.09863 0.13676 0.0
H373 H 0.22593 0.11351 0.17311 0.0
H374 H 0.20564 0.10237 0.20409 0.0
H375 H 0.22954 0.09356 0.26916 0.0
H376 H 0.25012 0.07913 0.25313 0.0
C377 C 0.26907 0.02537 0.0822 0.0
C378 C 0.25025 0.04114 1.00859 0.0
C379 C 0.30127 0.11291 0.23071 0.0
C380 C 0.29226 0.12009 0.27535 0.0
C381 C 0.27225 0.12276 0.27437 0.0
C382 C 0.26131 0.11575 0.23321 0.0
C383 C 0.27043 0.10578 0.19338 0.0
C384 C 0.29008 0.10605 0.18996 0.0
C385 C 0.29707 0.0969 0.14097 0.0
C386 C 0.27821 0.08891 0.11954 0.0
C387 C 0.263 0.09313 0.15262 0.0
C388 C 0.31137 0.08074 0.15348 0.0
C389 C 0.30635 0.11272 0.10731 0.0
C390 C 0.20103 0.05923 0.19534 0.0
C391 C 0.19287 0.04154 0.18226 0.0
C392 C 0.20253 0.0299 0.14607 0.0
C393 C 0.21985 0.03616 0.12283 0.0
C394 C 0.22779 0.05403 0.13677 0.0
C395 C 0.21841 0.06494 0.1734 0.0
C396 C 0.22936 0.0825 0.18871 0.0
C397 C 0.24661 0.08102 0.15349 0.0
C398 C 0.24573 0.06445 0.1222 0.0
C399 C 0.23452 0.08094 0.24704 0.0
C400 C 0.21721 0.10028 0.17529 0.0
H401 H 0.30384 0.09423 0.02095 0.0
H402 H 0.29194 0.02631 0.97595 0.0
H403 H 0.25005 0.05384 0.98271 0.0
H404 H 0.23567 0.03962 0.02436 0.0
H405 H 0.25343 0.02831 0.9848 0.0
H406 H 0.28159 0.02734 0.10811 0.0
H407 H 0.27211 0.01315 0.05608 0.0
H408 H 0.2568 0.02147 0.10687 0.0
H409 H 0.31661 0.11115 0.22899 0.0
H410 H 0.26495 0.12923 0.30673 0.0
H411 H 0.24612 0.11772 0.23446 0.0
H412 H 0.30476 0.07 0.17976 0.0
H413 H 0.32446 0.08655 0.17208 0.0
H414 H 0.316 0.07326 0.11799 0.0
H415 H 0.31267 0.12438 0.13112 0.0
H416 H 0.29568 0.11938 0.08122 0.0
H417 H 0.31855 0.10714 0.08458 0.0
H418 H 0.32458 0.07881 0.95847 0.0
C419 C 0.30254 0.07908 0.01544 0.0
C420 C 0.49415 0.30561 0.9957 0.0
C421 C 0.48715 0.32382 0.98066 0.0
C422 C 0.47315 0.33265 1.01117 0.0
C423 C 0.47326 0.30601 0.07087 0.0
C424 C 0.48672 0.29679 0.04089 0.0
C425 C 0.4915 0.27722 0.06345 0.0
H426 H 0.47073 0.21067 0.25265 0.0
C427 C 0.46815 0.29362 0.11489 0.0
C428 C 0.4783 0.27629 0.11067 0.0
H429 H 0.51404 0.20471 0.13551 0.0
H430 H 0.50566 0.23622 0.10062 0.0
H431 H 0.48266 0.24849 0.28438 0.0
H432 H 0.43777 0.23087 0.18334 0.0
H433 H 0.4283 0.24918 0.22221 0.0
H434 H 0.4376 0.2278 0.252 0.0
H435 H 0.45923 0.2433 0.30846 0.0
H436 H 0.46625 0.26719 0.28952 0.0
C437 C 0.51278 0.27723 0.07901 0.0
C438 C 0.48649 0.26165 0.02356 0.0
C439 C 0.42988 0.32159 0.26269 0.0
C440 C 0.42445 0.31393 0.31073 0.0
C441 C 0.42487 0.29393 0.31768 0.0
C442 C 0.4326 0.282 0.27976 0.0
C443 C 0.44012 0.29016 0.23451 0.0
C444 C 0.43772 0.30946 0.22527 0.0
C445 C 0.44609 0.31544 0.17426 0.0
C446 C 0.4557 0.29694 0.15723 0.0
C447 C 0.45222 0.28232 0.19283 0.0
C448 C 0.46086 0.33168 0.18402 0.0
C449 C 0.4293 0.3211 0.13823 0.0
C450 C 0.47822 0.21587 0.21879 0.0
C451 C 0.49275 0.20498 0.1963 0.0
C452 C 0.50265 0.21277 0.15347 0.0
C453 C 0.49777 0.23103 0.1333 0.0
C454 C 0.48312 0.24178 0.15688 0.0
C455 C 0.47389 0.234 0.19933 0.0
C456 C 0.46011 0.2475 0.22373 0.0
C457 C 0.4619 0.26462 0.18843 0.0
C458 C 0.4752 0.26147 0.14836 0.0
C459 C 0.46723 0.25184 0.2794 0.0
C460 C 0.43984 0.23843 0.22068 0.0
H461 H 0.45579 0.33171 0.07723 0.0
H462 H 0.50487 0.29843 0.9727 0.0
H463 H 0.47166 0.26364 1.00909 0.0
H464 H 0.48716 0.2471 0.04 0.0
H465 H 0.4964 0.26237 0.99011 0.0
H466 H 0.51636 0.2904 0.10112 0.0
H467 H 0.52212 0.27681 0.04437 0.0
H468 H 0.51642 0.26504 0.10411 0.0
H469 H 0.42961 0.33689 0.25597 0.0
H470 H 0.42033 0.28762 0.35386 0.0
H471 H 0.43331 0.26702 0.28841 0.0
H472 H 0.47 0.32819 0.21779 0.0
H473 H 0.45358 0.34547 0.19206 0.0
H474 H 0.47083 0.33395 0.15165 0.0
H475 H 0.41525 0.31578 0.15265 0.0
H476 H 0.43074 0.31469 0.09933 0.0
H477 H 0.42814 0.33689 0.1344 0.0
H478 H 0.46763 0.3466 1.0006 0.0
C479 C 0.46623 0.32393 0.05579 0.0
Eu480 Eu 0.99492 0.02679 0.57774 0.0
C481 C 0.05642 0.03266 0.73996 0.0
N482 N 0.05725 0.02534 0.69153 0.0
C483 C 0.08604 0.043 0.67451 0.0
C484 C 0.07008 0.04619 0.75682 0.0
C485 C 0.07212 0.0297 0.65938 0.0
C486 C 0.08491 0.05143 0.72325 0.0
C487 C 0.04072 0.03387 0.8232 0.0
C488 C 0.04189 0.02652 0.77267 0.0
C489 C 0.05392 0.04783 0.83959 0.0
C490 C 0.0686 0.05392 0.80655 0.0
Eu491 Eu 0.03367 1.00258 0.66952 0.0
N492 N 0.02949 0.01274 0.75605 0.0
C493 C 0.02669 0.02655 0.85636 0.0
C494 C 0.01688 1.00449 0.78971 0.0
C495 C 0.01494 0.01158 0.83978 0.0
H496 H 0.07301 0.02307 0.62185 0.0
H497 H 1.00462 1.00523 0.86588 0.0
H498 H 0.9536 0.03006 0.64464 0.0
H499 H 1.00557 1.00075 0.38196 0.0
H500 H 1.00857 0.9921 0.77881 0.0
H501 H 0.02531 0.03185 0.89541 0.0
H502 H 0.01368 0.0185 0.46166 0.0
H503 H 0.09762 0.04673 0.64864 0.0
H504 H 0.05315 0.05371 0.87815 0.0
H505 H 0.07887 0.06445 0.82007 0.0
H506 H 0.92135 0.01559 0.64377 0.0
H507 H 0.09568 0.06179 0.7348 0.0
H508 H 0.9745 0.98374 0.37523 0.0
N509 N 0.96289 0.0155 0.57726 0.0
C510 C 0.95754 1.00477 0.53609 0.0
C511 C 0.93147 0.01221 0.61355 0.0
C512 C 0.93904 0.99669 0.53295 0.0
C513 C 0.9499 0.02008 0.6145 0.0
C514 C 0.9261 1.00021 0.57298 0.0
N515 N 0.98777 1.01105 0.49958 0.0
C516 C 1.00013 0.01108 0.45883 0.0
C517 C 0.96499 0.99244 0.4511 0.0
C518 C 0.97028 1.00268 0.49569 0.0
C519 C 0.97801 0.99149 0.41014 0.0
C520 C 0.99557 1.00107 0.41379 0.0
H521 H 0.91176 0.99426 0.57207 0.0
H522 H 0.91983 0.97939 0.48657 0.0
H523 H 0.94259 0.97564 0.41489 0.0
O524 O 1.00497 0.05263 0.53931 0.0
O525 O 1.00401 0.99641 0.55669 0.0
O526 O 0.01198 0.9821 0.63379 0.0
O527 O 0.97479 0.04919 0.55515 0.0
O528 O 0.02629 0.02993 0.55345 0.0
O529 O 0.04162 1.00322 0.58504 0.0
O530 O 0.04623 0.98192 0.72276 0.0
O531 O 0.033 0.03513 0.65451 0.0
O532 O 1.00119 0.04025 0.65497 0.0
O533 O 0.05773 0.98475 0.64611 0.0
O534 O 1.00252 0.99492 0.68888 0.0
O535 O 0.98676 0.02202 0.662 0.0
C536 C 1.00654 0.98109 0.58533 0.0
C537 C 0.9889 0.07983 0.56919 0.0
C538 C 1.00594 0.10988 0.58508 0.0
C539 C 0.99314 0.11404 0.6252 0.0
C540 C 0.97617 0.08423 0.60941 0.0
C541 C 0.97829 0.1013 0.63706 0.0
C542 C 1.00364 0.09277 0.55725 0.0
C543 C 0.04012 0.01716 0.55132 0.0
C544 C 0.98846 0.0611 0.54278 0.0
C545 C 0.93391 0.98584 0.48947 0.0
C546 C 0.94686 0.98373 0.4486 0.0
C547 C 0.01843 0.04604 0.66665 0.0
C548 C 0.05701 0.95397 0.68125 0.0
C549 C 0.03831 0.92457 0.67128 0.0
C550 C 0.05532 0.91454 0.66125 0.0
C551 C 0.0738 0.94378 0.6712 0.0
C552 C 0.03935 0.94435 0.68113 0.0
C553 C 0.07293 0.92413 0.66125 0.0
C554 C 0.98768 1.0065 0.69078 0.0
C555 C 0.05776 0.9748 0.68842 0.0
H556 H 0.99441 0.12725 0.64677 0.0
H557 H 0.96484 0.07439 0.62022 0.0
H558 H 0.9685 0.10457 0.66812 0.0
H559 H 0.01373 0.0892 0.52702 0.0
H560 H 0.0551 0.89925 0.65437 0.0
H561 H 0.08753 0.95105 0.67057 0.0
H562 H 0.02637 0.95241 0.68762 0.0
H563 H 0.08595 0.91629 0.65359 0.0
Eu564 Eu 0.52647 0.03871 0.6616 0.0
C565 C 0.5134 0.95888 0.54235 0.0
N566 N 0.51742 0.97662 0.52367 0.0
C567 C 0.53898 0.96313 0.46177 0.0
C568 C 0.52258 0.94253 0.52242 0.0
C569 C 0.52924 0.97884 0.48218 0.0
C570 C 0.53587 0.94492 0.48252 0.0
C571 C 0.49338 0.93859 0.59615 0.0
C572 C 0.49904 0.95692 0.57887 0.0
C573 C 0.50311 0.92235 0.57826 0.0
C574 C 0.51772 0.92432 0.54156 0.0
Eu575 Eu 0.50152 1.00243 0.5639 0.0
N576 N 0.48998 0.97287 0.59571 0.0
C577 C 0.47781 0.93713 0.62994 0.0
C578 C 0.47398 0.97147 0.62581 0.0
C579 C 0.46788 0.95363 0.64417 0.0
H580 H 0.53112 0.99275 0.46463 0.0
H581 H 0.4555 0.95261 0.66912 0.0
H582 H 0.48753 0.06427 0.68797 0.0
H583 H 0.59466 0.06155 0.57623 0.0
H584 H 0.46626 0.98423 0.63654 0.0
H585 H 0.47303 0.92332 0.64412 0.0
H586 H 0.57309 0.04004 0.62389 0.0
H587 H 0.5487 0.96504 0.42967 0.0
H588 H 0.49914 0.90817 0.59159 0.0
H589 H 0.52475 0.91161 0.52709 0.0
H590 H 0.47543 0.09716 0.67423 0.0
H591 H 0.54326 0.93273 0.46624 0.0
H592 H 0.58364 0.09376 0.55046 0.0
N593 N 0.5135 0.06933 0.64761 0.0
C594 C 0.52501 0.08232 0.6237 0.0
C595 C 0.48933 0.09313 0.65953 0.0
C596 C 0.51874 0.10122 0.61515 0.0
C597 C 0.49614 0.07454 0.66705 0.0
C598 C 0.50061 0.10649 0.63311 0.0
N599 N 0.54908 0.05858 0.61889 0.0
C600 C 0.56761 0.05345 0.60991 0.0
C601 C 0.55534 0.08985 0.58285 0.0
C602 C 0.54312 0.07666 0.60789 0.0
C603 C 0.57385 0.08407 0.56982 0.0
C604 C 0.58009 0.06587 0.58409 0.0
H605 H 0.49528 0.12088 0.62724 0.0
H606 H 0.52612 0.12878 0.58212 0.0
H607 H 0.55813 0.11883 0.55369 0.0
O608 O 0.54812 0.04953 0.71508 0.0
O609 O 0.50761 0.04778 0.59341 0.0
O610 O 0.51676 0.02802 0.52934 0.0
O611 O 0.51921 0.04488 0.74155 0.0
O612 O 0.54714 0.01759 0.62344 0.0
O613 O 0.53244 1.01078 0.54578 0.0
O614 O 0.47834 0.01866 0.52952 0.0
O615 O 0.50595 0.9917 0.64617 0.0
O616 O 0.53274 1.0073 0.67708 0.0
O617 O 0.48528 0.99074 0.49893 0.0
O618 O 0.48141 0.019 0.61667 0.0
O619 O 0.49796 0.02725 0.69049 0.0
C620 C 0.51287 0.04534 0.54524 0.0
C621 C 0.54357 0.03805 0.80001 0.0
C622 C 0.56052 1.01082 0.83717 0.0
C623 C 0.55244 0.01531 0.88545 0.0
C624 C 0.53599 0.04241 0.84854 0.0
C625 C 0.54046 0.0311 0.89105 0.0
C626 C 0.55603 0.02244 0.79457 0.0
C627 C 0.54789 0.0122 0.57473 0.0
C628 C 0.53676 0.04865 0.75479 0.0
C629 C 0.53073 0.11423 0.5893 0.0
C630 C 0.54895 0.10854 0.57302 0.0
C631 C 0.52064 0.9928 0.67764 0.0
C632 C 0.45248 0.99961 0.50379 0.0
C633 C 0.41945 1.01061 0.5091 0.0
C634 C 0.41355 0.99185 0.52104 0.0
C635 C 0.44634 0.98089 0.51533 0.0
C636 C 0.43895 0.0143 0.50042 0.0
C637 C 0.42695 0.97709 0.52388 0.0
C638 C 0.48191 0.02358 0.66586 0.0
C639 C 0.47292 1.00465 0.49975 0.0
H640 H 0.55506 1.00645 0.9189 0.0
H641 H 0.52621 0.05429 0.85324 0.0
H642 H 0.53432 0.03435 0.92831 0.0
H643 H 0.56194 0.01923 0.757 0.0
H644 H 0.39859 0.98854 0.52741 0.0
H645 H 0.45649 0.96928 0.51862 0.0
H646 H 0.44375 0.0288 0.49249 0.0
H647 H 0.4223 0.96267 0.53299 0.0
Eu648 Eu 0.53276 0.50692 0.55824 0.0
C649 C 0.4581 0.51559 0.70323 0.0
N650 N 0.4639 0.52604 0.66195 0.0
C651 C 0.43159 0.52757 0.63127 0.0
C652 C 0.43877 0.51016 0.70932 0.0
C653 C 0.45088 0.53281 0.62738 0.0
C654 C 0.42555 0.51594 0.67201 0.0
C655 C 0.46559 0.50184 0.78655 0.0
C656 C 0.4713 0.51145 0.74125 0.0
C657 C 0.44655 0.4956 0.79176 0.0
C658 C 0.43317 0.49973 0.75318 0.0
Eu659 Eu 0.49704 0.53269 0.65592 0.0
N660 N 0.48957 0.51763 0.735 0.0
C661 C 0.4791 0.49919 0.82569 0.0
C662 C 0.50247 0.51626 0.77434 0.0
C663 C 0.49755 0.50669 0.81985 0.0
H664 H 0.45534 0.54237 0.59691 0.0
H665 H 0.50796 0.50514 0.85038 0.0
H666 H 0.57317 0.52839 0.59544 0.0
H667 H 0.49806 0.50737 0.36888 0.0
H668 H 0.51673 0.52208 0.7698 0.0
H669 H 0.4753 0.49184 0.86103 0.0
H670 H 0.50545 0.49464 0.45501 0.0
H671 H 0.42138 0.53267 0.60317 0.0
H672 H 0.44193 0.48799 0.82601 0.0
H673 H 0.41842 0.49528 0.75831 0.0
H674 H 0.59592 0.55292 0.5628 0.0
H675 H 0.41057 0.51206 0.67524 0.0
H676 H 0.51641 0.53496 0.33456 0.0
N677 N 0.55519 0.52992 0.5297 0.0
C678 C 0.55251 0.53718 0.4817 0.0
C679 C 0.58371 0.54871 0.53978 0.0
C680 C 0.56496 0.55129 0.46175 0.0
C681 C 0.57086 0.53488 0.55817 0.0
C682 C 0.58062 0.55712 0.49162 0.0
N683 N 0.52599 0.51626 0.4723 0.0
C684 C 0.51277 0.50734 0.44183 0.0
C685 C 0.53404 0.53775 0.40272 0.0
C686 C 0.53723 0.53046 0.45266 0.0
C687 C 0.51933 0.52975 0.37307 0.0
C688 C 0.50889 0.51423 0.39237 0.0
H689 H 0.59052 0.56793 0.47764 0.0
H690 H 0.57063 0.57016 0.39713 0.0
H691 H 0.54356 0.55831 0.34543 0.0
O692 O 0.54335 0.4856 0.50366 0.0
O693 O 0.53189 0.53937 0.57322 0.0
O694 O 0.50025 0.54513 0.57619 0.0
O695 O 0.55753 0.4893 0.57667 0.0
O696 O 0.50112 0.49925 0.54632 0.0
O697 O 0.48558 0.52632 0.57514 0.0
O698 O 0.51184 0.55878 0.67684 0.0
O699 O 0.50635 0.50247 0.67766 0.0
O700 O 0.51229 0.48702 0.60082 0.0
O701 O 0.48105 0.55641 0.69225 0.0
O702 O 0.52871 0.53374 0.67755 0.0
O703 O 0.54405 0.50801 0.6399 0.0
C704 C 0.51722 0.54987 0.55937 0.0
C705 C 0.55385 0.4579 0.54756 0.0
C706 C 0.53354 0.42982 0.56224 0.0
C707 C 0.54938 0.42021 0.58321 0.0
C708 C 0.56947 0.44804 0.56823 0.0
C709 C 0.56723 0.42925 0.58577 0.0
C710 C 0.53601 0.44863 0.54397 0.0
C711 C 0.48624 0.51083 0.54609 0.0
C712 C 0.55556 0.47849 0.53626 0.0
C713 C 0.56139 0.5591 0.41284 0.0
C714 C 0.54594 0.55239 0.38347 0.0
C715 C 0.50841 0.48674 0.65043 0.0
C716 C 0.49739 0.58628 0.71706 0.0
C717 C 0.5167 0.61355 0.74544 0.0
C718 C 0.49985 0.62302 0.7603 0.0
C719 C 0.48074 0.59587 0.73224 0.0
C720 C 0.51525 0.59526 0.7234 0.0
C721 C 0.48201 0.61421 0.75358 0.0
C722 C 0.54294 0.52146 0.67517 0.0
C723 C 0.49652 0.56687 0.69505 0.0
H724 H 0.54794 0.40582 0.59833 0.0
H725 H 0.58326 0.45505 0.57205 0.0
H726 H 0.5793 0.42177 0.60227 0.0
H727 H 0.52397 0.45625 0.52776 0.0
H728 H 0.50046 0.63705 0.77798 0.0
H729 H 0.46681 0.58924 0.72767 0.0
H730 H 0.52813 0.58799 0.71106 0.0
H731 H 0.46913 0.62157 0.76538 0.0
Eu732 Eu 0.0198 0.53328 0.57162 0.0
C733 C 0.01866 0.45471 0.71031 0.0
N734 N 1.00697 0.46054 0.6717 0.0
C735 C 1.00481 0.4284 0.63981 0.0
C736 C 0.02407 0.43536 0.71491 0.0
C737 C 0.99975 0.44773 0.63709 0.0
C738 C 0.0171 0.42219 0.67876 0.0
C739 C 0.03697 0.4626 0.78683 0.0
C740 C 0.02505 0.46813 0.74571 0.0
C741 C 0.04257 0.44338 0.79133 0.0
C742 C 0.03615 0.4298 0.75543 0.0
Eu743 Eu 1.00001 0.49354 0.66809 0.0
N744 N 0.01976 0.48668 0.73954 0.0
C745 C 0.04291 0.47659 0.82211 0.0
C746 C 0.02487 0.50025 0.77485 0.0
C747 C 0.03671 0.49546 0.81629 0.0
H748 H 0.98986 0.4524 0.60781 0.0
H749 H 0.04105 0.50633 0.84367 0.0
H750 H 1.00256 0.57347 0.62398 0.0
H751 H 1.00361 0.5001 0.38496 0.0
H752 H 0.0201 0.51482 0.7706 0.0
H753 H 0.05213 0.47294 0.85413 0.0
H754 H 0.02228 0.50559 0.46375 0.0
H755 H 0.99914 0.41829 0.61208 0.0
H756 H 0.05181 0.43886 0.82251 0.0
H757 H 0.04052 0.415 0.75951 0.0
H758 H 0.97786 0.59772 0.60509 0.0
H759 H 0.02094 0.4072 0.68089 0.0
H760 H 0.97632 0.52116 0.36438 0.0
N761 N 0.99686 0.55725 0.55648 0.0
C762 C 0.98679 0.55581 0.51182 0.0
C763 C 0.98018 0.58597 0.57868 0.0
C764 C 0.97249 0.56926 0.49967 0.0
C765 C 0.99409 0.57221 0.58938 0.0
C766 C 0.96926 0.58443 0.5338 0.0
N767 N 1.00416 0.52758 0.49194 0.0
C768 C 0.00965 0.51396 0.45735 0.0
C769 C 0.97971 0.53835 0.4332 0.0
C770 C 0.99031 0.54041 0.47915 0.0
C771 C 0.98415 0.52324 0.39997 0.0
C772 C 0.99944 0.51123 0.41164 0.0
H773 H 0.95838 0.59503 0.52586 0.0
H774 H 0.95053 0.57706 0.44477 0.0
H775 H 0.95687 0.55006 0.38656 0.0
O776 O 0.04101 0.53834 0.51129 0.0
O777 O 0.98801 0.53128 0.59417 0.0
O778 O 0.98368 0.49926 0.59472 0.0
O779 O 0.03522 0.56058 0.56647 0.0
O780 O 0.02853 0.50207 0.55568 0.0
O781 O 1.00205 0.48552 0.58356 0.0
O782 O 0.97866 0.50426 0.72125 0.0
O783 O 0.03255 0.49541 0.66772 0.0
O784 O 0.04141 0.52479 0.63297 0.0
O785 O 0.97608 0.47529 0.69246 0.0
O786 O 0.99834 0.52485 0.69493 0.0
O787 O 0.02133 0.54334 0.65402 0.0
C788 C 0.97732 0.5163 0.58352 0.0
C789 C 0.06745 0.55484 0.5471 0.0
C790 C 0.09658 0.53769 0.57103 0.0
C791 C 0.10463 0.55505 0.58818 0.0
C792 C 0.07579 0.57202 0.56402 0.0
C793 C 0.0943 0.57209 0.58439 0.0
C794 C 0.07801 0.5378 0.55035 0.0
C795 C 0.01748 0.48667 0.55468 0.0
C796 C 0.04709 0.55423 0.53201 0.0
C797 C 0.96169 0.56698 0.45448 0.0
C798 C 0.96526 0.55155 0.42143 0.0
C799 C 0.04507 0.50927 0.66006 0.0
C800 C 0.94771 0.49388 0.69899 0.0
C801 C 0.92221 0.51743 0.68989 0.0
C802 C 0.91173 0.50429 0.66017 0.0
C803 C 0.93699 0.4809 0.66918 0.0
C804 C 0.94002 0.51203 0.70976 0.0
C805 C 0.91908 0.48611 0.65003 0.0
C806 C 0.00936 0.54023 0.69218 0.0
C807 C 0.96744 0.48943 0.71551 0.0
H808 H 0.11882 0.55545 0.60482 0.0
H809 H 0.06783 0.58529 0.56257 0.0
H810 H 0.10058 0.58537 0.59785 0.0
H811 H 0.07173 0.52452 0.53678 0.0
H812 H 0.89772 0.50801 0.64562 0.0
H813 H 0.94253 0.46684 0.66004 0.0
H814 H 0.94815 0.52226 0.73241 0.0
H815 H 0.9109 0.47607 0.62704 0.0
H816 H 0.16023 0.06224 0.19528 0.0
H817 H 0.13343 0.05538 0.25316 0.0
H818 H 0.15801 1.00053 0.28972 0.0
H819 H 0.18513 1.0075 0.23207 0.0
H820 H 0.10591 0.02608 0.26019 0.0
H821 H 0.15366 0.02653 0.43124 0.0
H822 H 0.1614 0.03504 0.36893 0.0
H823 H 0.15995 1.00977 0.38159 0.0
C824 C 0.1598 0.04858 0.21506 0.0
C825 C 0.17491 0.03547 0.20926 0.0
C826 C 0.14445 0.04467 0.2482 0.0
C827 C 0.14382 0.02761 0.2768 0.0
C828 C 0.15832 0.01397 0.2689 0.0
H829 H 0.06933 0.99218 0.53097 0.0
H830 H 0.09352 0.9941 0.46332 0.0
C831 C 0.1737 0.01785 0.2354 0.0
C832 C 0.12848 0.02472 0.31637 0.0
H833 H 0.12097 0.02046 0.44622 0.0
C834 C 0.10921 0.02478 0.30086 0.0
C835 C 0.1327 0.02311 0.36958 0.0
C836 C 0.15302 0.02376 0.38913 0.0
C837 C 0.09414 0.02309 0.33681 0.0
C838 C 0.09836 0.02176 0.39012 0.0
C839 C 0.11764 0.0215 0.40552 0.0
C840 C 0.08309 0.02056 0.43061 0.0
C841 C 0.07385 0.02238 0.31715 0.0
C842 C 0.0691 0.03489 0.43554 0.0
C843 C 0.0551 0.03381 0.47436 0.0
C844 C 0.05484 0.01846 0.50958 0.0
C845 C 0.06897 1.00424 0.50473 0.0
C846 C 0.0829 1.0053 0.46591 0.0
H847 H 0.07327 0.01789 0.27612 0.0
H848 H 0.06494 0.01235 0.34028 0.0
H849 H 0.0675 0.03688 0.31993 0.0
H850 H 0.06915 0.04709 0.40979 0.0
H851 H 0.04458 0.0451 0.47697 0.0
H852 H 0.52778 0.19164 0.22876 0.0
H853 H 0.53392 0.16317 0.28222 0.0
H854 H 0.47419 0.14785 0.27405 0.0
H855 H 0.4681 0.17597 0.2206 0.0
H856 H 0.51801 0.15573 0.37867 0.0
H857 H 0.49964 0.09669 0.24519 0.0
H858 H 0.50418 0.12083 0.2232 0.0
H859 H 0.4812 0.1144 0.24948 0.0
C860 C 0.5161 0.18187 0.23713 0.0
C861 C 0.49747 0.18603 0.22009 0.0
C862 C 0.51957 0.16568 0.26813 0.0
C863 C 0.50456 0.15316 0.28205 0.0
C864 C 0.48612 0.15698 0.26333 0.0
H865 H 0.49137 0.07819 0.54826 0.0
H866 H 0.4908 0.10443 0.4855 0.0
C867 C 0.48263 0.17314 0.23281 0.0
C868 C 0.50769 0.13695 0.319 0.0
H869 H 0.50089 0.08867 0.33483 0.0
C870 C 0.51442 0.14105 0.36886 0.0
C871 C 0.50319 0.11769 0.30644 0.0
C872 C 0.49683 0.11207 0.25301 0.0
C873 C 0.51616 0.12663 0.40665 0.0
C874 C 0.51085 0.10752 0.39476 0.0
C875 C 0.50474 0.1033 0.34441 0.0
C876 C 0.51154 0.09174 0.43395 0.0
C877 C 0.52393 0.13192 0.45891 0.0
C878 C 0.52308 0.07558 0.42588 0.0
C879 C 0.52353 0.06062 0.46207 0.0
C880 C 0.51237 0.06138 0.50719 0.0
C881 C 0.50056 0.07739 0.51479 0.0
C882 C 0.50021 0.09241 0.47875 0.0
H883 H 0.53145 0.14597 0.45835 0.0
H884 H 0.51195 0.13284 0.48683 0.0
H885 H 0.53402 0.12082 0.4727 0.0
H886 H 0.53188 0.07459 0.39162 0.0
H887 H 0.53274 0.04848 0.45485 0.0
H888 H 0.35985 0.45767 0.2145 0.0
H889 H 0.38844 0.46545 0.26455 0.0
H890 H 0.36771 0.52292 0.28677 0.0
H891 H 0.33866 0.51489 0.23772 0.0
H892 H 0.4179 0.49039 0.26497 0.0
H893 H 0.37127 0.50468 0.43367 0.0
H894 H 0.36212 0.49478 0.37445 0.0
H895 H 0.36682 0.52007 0.37968 0.0
C896 C 0.36168 0.47217 0.22862 0.0
C897 C 0.34698 0.48567 0.22209 0.0
C898 C 0.37801 0.47657 0.25763 0.0
C899 C 0.38007 0.4946 0.28104 0.0
C900 C 0.36625 0.50871 0.27048 0.0
H901 H 0.46209 0.5378 0.50677 0.0
H902 H 0.43698 0.53377 0.44242 0.0
C903 C 0.3498 0.50426 0.24152 0.0
C904 C 0.39586 0.49789 0.31924 0.0
H905 H 0.40446 0.50891 0.4458 0.0
C906 C 0.41492 0.49447 0.30446 0.0
C907 C 0.3921 0.503 0.3712 0.0
C908 C 0.37198 0.50567 0.39099 0.0
C909 C 0.4302 0.49626 0.33971 0.0
C910 C 0.42639 0.50141 0.39146 0.0
C911 C 0.4074 0.50496 0.40618 0.0
C912 C 0.44189 0.50354 0.43081 0.0
C913 C 0.45036 0.4929 0.32118 0.0
C914 C 0.45297 0.48781 0.4466 0.0
C915 C 0.46726 0.49001 0.48433 0.0
C916 C 0.47079 0.508 0.50701 0.0
C917 C 0.4596 0.52365 0.49109 0.0
C918 C 0.44529 0.52142 0.45381 0.0
H919 H 0.45133 0.49306 0.27846 0.0
H920 H 0.46024 0.50394 0.3369 0.0
H921 H 0.45526 0.4787 0.33497 0.0
H922 H 0.45045 0.47378 0.43012 0.0
H923 H 0.47551 0.47763 0.49579 0.0
H924 H 0.02021 0.33927 0.246 0.0
H925 H 0.01105 0.36679 0.29963 0.0
H926 H 0.06225 0.39667 0.25214 0.0
H927 H 0.07098 0.36962 0.19774 0.0
H928 H 0.0301 0.37911 0.38142 0.0
H929 H 0.0259 0.44012 0.24668 0.0
H930 H 0.02643 0.41564 0.22457 0.0
H931 H 0.04832 0.42803 0.24054 0.0
C932 C 0.02901 0.35208 0.24523 0.0
C933 C 0.0462 0.35232 0.21708 0.0
C934 C 0.02393 0.36774 0.2765 0.0
C935 C 0.03586 0.38404 0.28004 0.0
C936 C 0.05248 0.38463 0.24956 0.0
H937 H 0.05015 0.47896 0.49842 0.0
H938 H 0.05446 0.45426 0.43178 0.0
C939 C 0.0575 0.36908 0.21834 0.0
C940 C 0.03215 0.39945 0.31921 0.0
H941 H 0.03024 0.44813 0.33613 0.0
C942 C 0.02989 0.39417 0.37122 0.0
C943 C 0.03197 0.41924 0.30652 0.0
C944 C 0.03309 0.42608 0.25147 0.0
C945 C 0.02795 0.40797 0.41054 0.0
C946 C 0.02821 0.42769 0.39789 0.0
C947 C 0.03028 0.43304 0.346 0.0
C948 C 0.0257 0.44288 0.43798 0.0
C949 C 0.02604 0.40138 0.46567 0.0
C950 C 1.00808 0.4449 0.46331 0.0
C951 C 1.00555 0.45904 0.50098 0.0
C952 C 0.02062 0.47151 0.5148 0.0
C953 C 0.03827 0.46957 0.48909 0.0
C954 C 0.04074 0.45547 0.45091 0.0
H955 H 0.02983 0.38604 0.47029 0.0
H956 H 0.03531 0.41011 0.49135 0.0
H957 H 0.01101 0.40326 0.47846 0.0
H958 H 0.99616 0.43563 0.45353 0.0
H959 H 0.99159 0.46037 0.51864 0.0
H960 H 0.85775 0.95148 1.01136 0.0
H961 H 0.88712 0.95894 0.96437 0.0
H962 H 0.86808 0.01707 0.9434 0.0
H963 H 0.83831 1.00942 0.98998 0.0
H964 H 0.87819 1.00081 0.85286 0.0
H965 H 0.93611 0.98719 0.99281 0.0
H966 H 0.91994 0.96727 0.98784 0.0
H967 H 0.91147 0.98982 1.01229 0.0
C968 C 0.86014 0.96605 0.99839 0.0
C969 C 0.84582 0.97994 1.00499 0.0
C970 C 0.877 0.97033 0.97144 0.0
C971 C 0.88006 0.98865 0.95053 0.0
C972 C 0.86617 1.00285 0.95934 0.0
H973 H 0.96479 0.03369 0.73392 0.0
H974 H 0.93918 0.02942 0.79688 0.0
C975 C 0.84925 0.99856 0.98651 0.0
C976 C 0.89663 0.9922 0.91501 0.0
H977 H 0.94526 0.98771 0.90362 0.0
C978 C 0.89286 0.99818 0.86429 0.0
C979 C 0.91585 0.98859 0.92939 0.0
C980 C 0.92112 0.98305 0.9837 0.0
C981 C 0.90758 1.00019 0.82754 0.0
C982 C 0.92674 0.99636 0.84178 0.0
C983 C 0.93058 0.99052 0.89251 0.0
C984 C 0.94294 0.99884 0.80468 0.0
C985 C 0.90244 1.00593 0.77324 0.0
C986 C 0.95406 0.98315 0.78888 0.0
C987 C 0.96875 0.98553 0.75229 0.0
C988 C 0.97266 1.00368 0.73103 0.0
C989 C 0.96189 0.01941 0.74834 0.0
C990 C 0.94723 0.01702 0.78456 0.0
H991 H 0.88696 1.00381 0.76526 0.0
H992 H 0.90585 0.02133 0.76762 0.0
H993 H 0.91082 0.9976 0.74469 0.0
H994 H 0.95112 0.96899 0.80409 0.0
H995 H 0.97683 0.97313 0.74007 0.0
H996 H 0.56968 0.86799 0.02134 0.0
H997 H 0.5638 0.89569 0.96615 0.0
H998 H 0.50637 0.87549 0.93807 0.0
H999 H 0.51222 0.84766 0.99394 0.0
H1000 H 0.55609 0.8936 0.86383 0.0
H1001 H 0.49764 0.93255 0.96246 0.0
H1002 H 0.51169 0.91442 0.99429 0.0
H1003 H 0.49271 0.90762 0.95128 0.0
C1004 C 0.55564 0.86963 1.0043 0.0
C1005 C 0.54142 0.85556 1.01213 0.0
C1006 C 0.55231 0.88548 0.97254 0.0
C1007 C 0.53463 0.88783 0.94773 0.0
C1008 C 0.52005 0.87427 0.95729 0.0
H1009 H 0.52219 0.95416 0.66288 0.0
H1010 H 0.52473 0.9289 0.7278 0.0
C1011 C 0.52338 0.85834 0.98938 0.0
C1012 C 0.53224 0.90354 0.90883 0.0
H1013 H 0.50553 0.94286 0.87775 0.0
C1014 C 0.54503 0.90438 0.86703 0.0
C1015 C 0.51798 0.9178 0.91294 0.0
C1016 C 0.50431 0.91824 0.95787 0.0
C1017 C 0.54386 0.91879 0.8292 0.0
C1018 C 0.52929 0.93284 0.83249 0.0
C1019 C 0.51665 0.93215 0.87474 0.0
C1020 C 0.52695 0.94829 0.7927 0.0
C1021 C 0.55854 0.91883 0.78657 0.0
C1022 C 0.52651 0.96774 0.80705 0.0
C1023 C 0.5245 0.98219 0.76972 0.0
C1024 C 0.52296 0.97756 0.7172 0.0
C1025 C 0.52311 0.95817 0.70295 0.0
C1026 C 0.52491 0.94371 0.74017 0.0
H1027 H 0.57218 0.91226 0.79937 0.0
H1028 H 0.55302 0.91023 0.75381 0.0
H1029 H 0.56161 0.93351 0.77261 0.0
H1030 H 0.52792 0.97178 0.84716 0.0
H1031 H 0.524 0.997 0.78193 0.0
H1032 H 0.67278 0.56746 1.00773 0.0
H1033 H 0.64439 0.56192 0.95471 0.0
H1034 H 0.66336 0.50435 0.92382 0.0
H1035 H 0.69152 0.50974 0.97865 0.0
H1036 H 0.64353 0.5557 0.8557 0.0
H1037 H 0.60803 0.49378 0.94956 0.0
H1038 H 0.62706 0.50706 0.98026 0.0
H1039 H 0.63245 0.48905 0.93283 0.0
C1040 C 0.67061 0.55344 0.99073 0.0
C1041 C 0.68428 0.53897 0.99779 0.0
C1042 C 0.65441 0.55031 0.96009 0.0
C1043 C 0.65147 0.53266 0.93521 0.0
C1044 C 0.66489 0.51795 0.94339 0.0
H1045 H 0.5727 0.49658 0.69163 0.0
H1046 H 0.59857 0.49924 0.75478 0.0
C1047 C 0.68105 0.52103 0.97475 0.0
C1048 C 0.63524 0.53039 0.89784 0.0
H1049 H 0.59665 0.50232 0.86606 0.0
C1050 C 0.63323 0.54408 0.85839 0.0
C1051 C 0.62171 0.51521 0.90075 0.0
C1052 C 0.62227 0.50055 0.94342 0.0
C1053 C 0.61836 0.54295 0.8219 0.0
C1054 C 0.60493 0.52775 0.82472 0.0
C1055 C 0.60694 0.51396 0.8638 0.0
C1056 C 0.58878 0.52597 0.78725 0.0
C1057 C 0.61736 0.55788 0.77994 0.0
C1058 C 0.57443 0.53998 0.78471 0.0
C1059 C 0.55953 0.53849 0.74867 0.0
C1060 C 0.55862 0.52294 0.71415 0.0
C1061 C 0.57292 0.50881 0.71725 0.0
C1062 C 0.58773 0.51027 0.75353 0.0
H1063 H 0.63102 0.56594 0.77597 0.0
H1064 H 0.61381 0.5512 0.7423 0.0
H1065 H 0.60592 0.56827 0.78938 0.0
H1066 H 0.57474 0.55211 0.8107 0.0
H1067 H 0.54881 0.54962 0.74772 0.0
H1068 H 0.96777 0.66764 0.04298 0.0
H1069 H 0.9737 0.63754 0.99686 0.0
H1070 H 0.02203 0.66363 0.92043 0.0
H1071 H 0.01625 0.69351 0.96725 0.0
H1072 H 0.97091 0.63385 0.89427 0.0
H1073 H 0.04375 0.61163 0.9508 0.0
H1074 H 0.0304 0.62925 0.9866 0.0
H1075 H 0.04306 0.63598 0.92887 0.0
C1076 C 0.98024 0.66659 0.01834 0.0
C1077 C 0.99194 0.68273 1.01008 0.0
C1078 C 0.98346 0.64946 0.99131 0.0
C1079 C 0.99845 0.64808 0.95524 0.0
C1080 C 0.01069 0.66398 0.94884 0.0
H1081 H 0.03058 0.57324 0.70293 0.0
H1082 H 0.02739 0.59831 0.76798 0.0
C1083 C 1.00747 0.68109 0.97593 0.0
C1084 C 0.99998 0.63097 0.92043 0.0
H1085 H 0.03114 0.59743 0.87388 0.0
C1086 C 0.98403 0.62575 0.89039 0.0
C1087 C 0.01708 0.62035 0.91477 0.0
C1088 C 0.03448 0.62445 0.94735 0.0
C1089 C 0.98487 0.61075 0.85405 0.0
C1090 C 1.00207 0.60033 0.84783 0.0
C1091 C 0.01795 0.60537 0.87834 0.0
C1092 C 1.00407 0.58461 0.80883 0.0
C1093 C 0.96749 0.6067 0.82124 0.0
C1094 C 0.99224 0.56824 0.81014 0.0
C1095 C 0.99399 0.5538 0.77271 0.0
C1096 C 1.00771 0.55529 0.73306 0.0
C1097 C 0.01977 0.57154 0.73251 0.0
C1098 C 0.018 0.58593 0.76991 0.0
H1099 H 0.9573 0.61886 0.82143 0.0
H1100 H 0.97166 0.60367 0.78078 0.0
H1101 H 0.95989 0.59393 0.83662 0.0
H1102 H 0.98163 0.56659 0.84027 0.0
H1103 H 0.98451 0.54151 0.77479 0.0
H1104 H 0.12762 0.18333 0.32105 0.0
H1105 H 0.11518 0.16797 0.39802 0.0
H1106 H 0.10152 0.22305 0.46238 0.0
H1107 H 0.11128 0.23848 0.38386 0.0
H1108 H 0.11426 0.16634 0.50242 0.0
H1109 H 0.04906 0.20303 0.42926 0.0
H1110 H 0.07136 0.20363 0.39477 0.0
H1111 H 0.06784 0.21876 0.45014 0.0
C1112 C 0.12187 0.19236 0.35107 0.0
C1113 C 0.11904 0.21215 0.34323 0.0
C1114 C 0.11516 0.18347 0.3959 0.0
C1115 C 0.10636 0.19434 0.43456 0.0
C1116 C 0.10741 0.21433 0.43177 0.0
H1117 H 0.03028 0.12969 0.64945 0.0
H1118 H 0.05616 0.15181 0.62413 0.0
C1119 C 0.1133 0.22318 0.38621 0.0
C1120 C 0.09279 0.18491 0.47057 0.0
H1121 H 0.0449 0.18074 0.49444 0.0
C1122 C 0.09913 0.16969 0.50151 0.0
C1123 C 0.07295 0.18916 0.46874 0.0
C1124 C 0.06481 0.2044 0.4337 0.0
C1125 C 0.08607 0.15805 0.52864 0.0
C1126 C 0.06631 0.162 0.52515 0.0
C1127 C 0.06012 0.17791 0.49705 0.0
C1128 C 0.05152 0.14821 0.54227 0.0
C1129 C 0.09327 0.1409 0.55797 0.0
C1130 C 0.04025 0.1392 0.50469 0.0
C1131 C 0.02542 0.12696 0.51886 0.0
C1132 C 0.02155 0.12334 0.57106 0.0
C1133 C 0.03285 0.13236 0.60893 0.0
C1134 C 0.04776 0.14476 0.59458 0.0
H1135 H 0.10897 0.13904 0.55387 0.0
H1136 H 0.08984 0.14258 0.59947 0.0
H1137 H 0.08597 0.1277 0.5442 0.0
H1138 H 0.04286 0.1418 0.4641 0.0
H1139 H 0.01681 0.12048 0.4888 0.0
H1140 H 0.27925 0.11132 0.37224 0.0
H1141 H 0.29877 0.10183 0.44489 0.0
H1142 H 0.34957 0.11906 0.36222 0.0
H1143 H 0.33004 0.13023 0.29113 0.0
H1144 H 0.31928 0.0725 0.42729 0.0
H1145 H 0.36839 0.12709 0.50396 0.0
H1146 H 0.34753 0.13348 0.46681 0.0
H1147 H 0.36974 0.12758 0.43513 0.0
C1148 C 0.29446 0.11423 0.37039 0.0
C1149 C 0.30309 0.121 0.32476 0.0
C1150 C 0.30566 0.1086 0.41216 0.0
C1151 C 0.32569 0.10939 0.40895 0.0
C1152 C 0.33417 0.11839 0.36617 0.0
H1153 H 0.41823 0.03864 0.43614 0.0
H1154 H 0.39476 0.06414 0.42714 0.0
C1155 C 0.32294 0.12445 0.32485 0.0
C1156 C 0.33746 0.09691 0.4426 0.0
H1157 H 0.38128 0.09408 0.49991 0.0
C1158 C 0.33251 0.07738 0.44481 0.0
C1159 C 0.35476 0.10315 0.46543 0.0
C1160 C 0.36025 0.12403 0.46811 0.0
C1161 C 0.3451 0.06376 0.46491 0.0
C1162 C 0.36308 0.06985 0.48365 0.0
C1163 C 0.3675 0.08948 0.4851 0.0
C1164 C 0.37834 0.05585 0.49425 0.0
C1165 C 0.33973 0.0428 0.4621 0.0
C1166 C 0.37695 0.04288 0.53541 0.0
C1167 C 0.39038 0.02822 0.5407 0.0
C1168 C 0.4054 0.02639 0.50493 0.0
C1169 C 0.40696 0.03977 0.46463 0.0
C1170 C 0.39359 0.05437 0.45946 0.0
H1171 H 0.326 0.04039 0.44153 0.0
H1172 H 0.35112 0.03461 0.44216 0.0
H1173 H 0.33829 0.03696 0.50167 0.0
H1174 H 0.36528 0.04388 0.56275 0.0
H1175 H 0.38902 0.01832 0.57264 0.0
H1176 H 0.44023 0.30937 0.40512 0.0
H1177 H 0.44489 0.33366 0.46995 0.0
H1178 H 0.40921 0.37257 0.38407 0.0
H1179 H 0.40498 0.34811 0.31725 0.0
H1180 H 0.44125 0.38813 0.39711 0.0
H1181 H 0.42304 0.36056 0.58792 0.0
H1182 H 0.43673 0.34221 0.55747 0.0
H1183 H 0.41399 0.34922 0.53029 0.0
C1184 C 0.4326 0.32275 0.40092 0.0
C1185 C 0.42231 0.32683 0.35579 0.0
C1186 C 0.43518 0.33671 0.43856 0.0
C1187 C 0.42724 0.35501 0.4326 0.0
C1188 C 0.41546 0.35856 0.38974 0.0
H1189 H 0.49785 0.44559 0.5765 0.0
H1190 H 0.4669 0.43088 0.5562 0.0
C1191 C 0.41309 0.34461 0.3515 0.0
C1192 C 0.43488 0.37103 0.46434 0.0
H1193 H 0.45444 0.37878 0.58307 0.0
C1194 C 0.44338 0.38654 0.43826 0.0
C1195 C 0.43758 0.3693 0.51825 0.0
C1196 C 0.4271 0.35449 0.54992 0.0
C1197 C 0.45638 0.39874 0.46313 0.0
C1198 C 0.4611 0.39519 0.51512 0.0
C1199 C 0.45104 0.38117 0.54282 0.0
C1200 C 0.47881 0.40328 0.5371 0.0
C1201 C 0.46647 0.41415 0.43245 0.0
C1202 C 0.49559 0.39242 0.53419 0.0
C1203 C 0.5133 0.40083 0.54453 0.0
C1204 C 0.51454 0.42026 0.55833 0.0
C1205 C 0.49749 0.43073 0.56469 0.0
C1206 C 0.47975 0.42232 0.5538 0.0
H1207 H 0.46063 0.41552 0.39283 0.0
H1208 H 0.46505 0.42815 0.45229 0.0
H1209 H 0.48196 0.41084 0.42977 0.0
H1210 H 0.49508 0.37771 0.52091 0.0
H1211 H 0.52605 0.39235 0.53888 0.0
H1212 H 0.21531 0.44775 0.39514 0.0
H1213 H 0.19495 0.45372 0.46833 0.0
H1214 H 0.15479 0.41112 0.41405 0.0
H1215 H 0.1752 0.40541 0.33879 0.0
H1216 H 0.13781 0.44271 0.42254 0.0
H1217 H 0.17722 0.43581 0.60329 0.0
H1218 H 0.1923 0.44917 0.56064 0.0
H1219 H 0.18572 0.4248 0.54467 0.0
C1220 C 0.20261 0.43895 0.39972 0.0
C1221 C 0.19683 0.42617 0.36087 0.0
C1222 C 0.19094 0.44231 0.4422 0.0
C1223 C 0.17334 0.43274 0.44743 0.0
C1224 C 0.16834 0.41865 0.41105 0.0
H1225 H 0.08344 0.50138 0.59288 0.0
H1226 H 0.1002 0.47125 0.57906 0.0
C1227 C 0.17995 0.41545 0.36795 0.0
C1228 C 0.15881 0.44076 0.48313 0.0
H1229 H 0.15605 0.46489 0.59727 0.0
C1230 C 0.14145 0.44686 0.46158 0.0
C1231 C 0.16332 0.4461 0.53436 0.0
C1232 C 0.1806 0.43838 0.56202 0.0
C1233 C 0.12975 0.46 0.48721 0.0
C1234 C 0.13559 0.46718 0.53565 0.0
C1235 C 0.15182 0.45958 0.55966 0.0
C1236 C 0.12685 0.4847 0.55674 0.0
C1237 C 0.11217 0.4675 0.46017 0.0
C1238 C 0.13661 0.50217 0.55107 0.0
C1239 C 0.12709 0.51946 0.55876 0.0
C1240 C 0.10761 0.51953 0.57227 0.0
C1241 C 0.09835 0.5019 0.58185 0.0
C1242 C 0.10791 0.48462 0.57426 0.0
H1243 H 0.11038 0.46132 0.42103 0.0
H1244 H 0.09924 0.46392 0.48314 0.0
H1245 H 0.11298 0.48334 0.45673 0.0
H1246 H 0.15124 0.50246 0.53726 0.0
H1247 H 0.13466 0.5327 0.55073 0.0
H1248 H 0.91107 0.81065 0.83921 0.0
H1249 H 0.91917 0.82728 0.7589 0.0
H1250 H 0.94102 0.8751 0.84612 0.0
H1251 H 0.93383 0.85862 0.92568 0.0
H1252 H 0.92327 0.88459 0.74483 0.0
H1253 H 0.97879 0.82733 0.73938 0.0
H1254 H 0.95382 0.82093 0.74047 0.0
H1255 H 0.96474 0.83112 0.79673 0.0
C1256 C 0.91723 0.82489 0.84133 0.0
C1257 C 0.92227 0.83299 0.88923 0.0
C1258 C 0.92168 0.83441 0.79533 0.0
C1259 C 0.93099 0.85223 0.79675 0.0
C1260 C 0.93381 0.86133 0.84424 0.0
H1261 H 1.00892 0.93088 0.73828 0.0
H1262 H 0.97927 0.91308 0.74669 0.0
C1263 C 0.92958 0.85181 0.89001 0.0
C1264 C 0.94143 0.85989 0.75164 0.0
H1265 H 0.98605 0.85635 0.69971 0.0
C1266 C 0.9367 0.87816 0.73327 0.0
C1267 C 0.95881 0.85135 0.73592 0.0
C1268 C 0.96449 0.83161 0.75397 0.0
C1269 C 0.94983 0.88891 0.70412 0.0
C1270 C 0.96827 0.88138 0.69483 0.0
C1271 C 0.97201 0.86223 0.70751 0.0
C1272 C 0.98484 0.89394 0.6828 0.0
C1273 C 0.94425 0.90867 0.68634 0.0
C1274 C 0.99818 0.88893 0.6447 0.0
C1275 C 0.01531 0.89922 0.63965 0.0
C1276 C 0.01956 0.91445 0.67336 0.0
C1277 C 1.006 0.91957 0.71084 0.0
C1278 C 0.98889 0.90943 0.71551 0.0
H1279 H 0.92888 0.909 0.67563 0.0
H1280 H 0.94634 0.91899 0.71838 0.0
H1281 H 0.95294 0.91343 0.6528 0.0
H1282 H 0.9955 0.87684 0.61953 0.0
H1283 H 0.02531 0.89507 0.60985 0.0
H1284 H 0.67826 0.88304 0.9391 0.0
H1285 H 0.65035 0.88635 0.88284 0.0
H1286 H 0.67347 0.93979 0.82556 0.0
H1287 H 0.70153 0.93572 0.87816 0.0
H1288 H 0.62631 0.90989 0.90155 0.0
H1289 H 0.64402 0.92827 0.70421 0.0
H1290 H 0.66146 0.91659 0.74457 0.0
H1291 H 0.66044 0.94248 0.7406 0.0
C1292 C 0.67774 0.8949 0.91224 0.0
C1293 C 0.69198 0.90917 0.91309 0.0
C1294 C 0.66175 0.89686 0.88022 0.0
C1295 C 0.65955 0.91338 0.84966 0.0
C1296 C 0.67478 0.92659 0.84706 0.0
H1297 H 0.58634 0.99696 0.90679 0.0
H1298 H 0.60594 0.96854 0.89993 0.0
C1299 C 0.69093 0.92434 0.8778 0.0
C1300 C 0.64027 0.91943 0.83151 0.0
H1301 H 0.62116 0.95198 0.74846 0.0
C1302 C 0.62502 0.91844 0.86687 0.0
C1303 C 0.6377 0.92997 0.78538 0.0
C1304 C 0.65179 0.92911 0.74146 0.0
C1305 C 0.60889 0.93006 0.86133 0.0
C1306 C 0.6084 0.94356 0.82079 0.0
C1307 C 0.622 0.94233 0.78113 0.0
C1308 C 0.596 0.96069 0.82375 0.0
C1309 C 0.59314 0.92857 0.90096 0.0
C1310 C 0.58467 0.96644 0.78205 0.0
C1311 C 0.57328 0.9828 0.78593 0.0
C1312 C 0.5732 0.99385 0.83143 0.0
C1313 C 0.58532 0.98845 0.87203 0.0
C1314 C 0.59657 0.97212 0.86818 0.0
H1315 H 0.59083 0.91338 0.91227 0.0
H1316 H 0.59743 0.93653 0.93613 0.0
H1317 H 0.57943 0.93446 0.88653 0.0
H1318 H 0.58445 0.95818 0.74676 0.0
H1319 H 0.56435 0.98651 0.75348 0.0
H1320 H 0.65267 0.70253 0.95568 0.0
H1321 H 0.64678 0.67529 0.89858 0.0
H1322 H 0.61224 0.7112 0.80087 0.0
H1323 H 0.61811 0.73814 0.85673 0.0
H1324 H 0.61133 0.66436 0.90125 0.0
H1325 H 0.62873 0.67331 0.6967 0.0
H1326 H 0.64053 0.68729 0.74603 0.0
H1327 H 0.61812 0.69509 0.71875 0.0
C1328 C 0.6446 0.7048 0.92061 0.0
C1329 C 0.63544 0.72238 0.91157 0.0
C1330 C 0.64129 0.68922 0.88788 0.0
C1331 C 0.62888 0.69107 0.84563 0.0
C1332 C 0.62211 0.70933 0.83258 0.0
H1333 H 0.52724 0.65102 0.7313 0.0
H1334 H 0.55822 0.66582 0.75034 0.0
C1335 C 0.62547 0.72487 0.86503 0.0
C1336 C 0.61868 0.67406 0.82483 0.0
H1337 H 0.59698 0.65818 0.71501 0.0
C1338 C 0.60876 0.6625 0.86036 0.0
C1339 C 0.61522 0.67159 0.77156 0.0
C1340 C 0.62643 0.68241 0.73125 0.0
C1341 C 0.59407 0.65013 0.84457 0.0
C1342 C 0.58939 0.64905 0.79168 0.0
C1343 C 0.60043 0.65925 0.75564 0.0
C1344 C 0.57165 0.63942 0.77436 0.0
C1345 C 0.58258 0.63959 0.88507 0.0
C1346 C 0.56907 0.61966 0.78089 0.0
C1347 C 0.55129 0.61123 0.77101 0.0
C1348 C 0.53581 0.62241 0.75386 0.0
C1349 C 0.53872 0.64209 0.74539 0.0
C1350 C 0.55649 0.65051 0.75556 0.0
H1351 H 0.58632 0.64421 0.92478 0.0
H1352 H 0.56703 0.64188 0.87911 0.0
H1353 H 0.58537 0.624 0.88199 0.0
H1354 H 0.58065 0.61085 0.79504 0.0
H1355 H 0.54953 0.59605 0.77831 0.0
H1356 H 0.8482 0.61429 0.95885 0.0
H1357 H 0.87157 0.61157 0.89181 0.0
H1358 H 0.83373 0.63975 0.78522 0.0
H1359 H 0.81 0.64345 0.85385 0.0
H1360 H 0.84131 0.60369 0.75736 0.0
H1361 H 0.91018 0.63771 0.80172 0.0
H1362 H 0.90131 0.62669 0.8593 0.0
H1363 H 0.88802 0.64593 0.82994 0.0
C1364 C 0.84498 0.62103 0.92236 0.0
C1365 C 0.82683 0.62884 0.91208 0.0
C1366 C 0.85861 0.61943 0.88357 0.0
C1367 C 0.85451 0.62549 0.83333 0.0
C1368 C 0.83722 0.63501 0.82381 0.0
H1369 H 0.90816 0.54335 0.62127 0.0
H1370 H 0.89381 0.57462 0.64012 0.0
C1371 C 0.82357 0.63689 0.86305 0.0
C1372 C 0.86603 0.61741 0.79067 0.0
H1373 H 0.91213 0.60427 0.7673 0.0
C1374 C 0.85682 0.60437 0.75772 0.0
C1375 C 0.88623 0.6184 0.79078 0.0
C1376 C 0.89693 0.63314 0.82207 0.0
C1377 C 0.8672 0.59045 0.73078 0.0
C1378 C 0.88733 0.58993 0.73625 0.0
C1379 C 0.89666 0.60451 0.76386 0.0
C1380 C 0.89826 0.57258 0.72245 0.0
C1381 C 0.85639 0.57521 0.70133 0.0
C1382 C 0.90609 0.56144 0.76215 0.0
C1383 C 0.91422 0.54369 0.75138 0.0
C1384 C 0.91458 0.53673 0.7007 0.0
C1385 C 0.9075 0.54823 0.66069 0.0
C1386 C 0.89946 0.56609 0.67141 0.0
H1387 H 0.84064 0.5766 0.70561 0.0
H1388 H 0.85992 0.57632 0.65976 0.0
H1389 H 0.86062 0.56073 0.71474 0.0
H1390 H 0.90525 0.56615 0.80185 0.0
H1391 H 0.91963 0.53511 0.78291 0.0
H1392 H 0.07122 0.19841 0.91419 0.0
H1393 H 0.06563 0.17147 0.85602 0.0
H1394 H 1.00509 0.17467 0.88656 0.0
H1395 H 0.01067 0.20207 0.94424 0.0
H1396 H 0.05245 0.13727 0.88046 0.0
H1397 H 1.00392 0.16752 0.73322 0.0
H1398 H 0.0167 0.1824 0.77855 0.0
H1399 H 0.99506 0.17026 0.79768 0.0
C1400 C 0.05665 0.19363 0.90778 0.0
C1401 C 0.04139 0.20247 0.93389 0.0
C1402 C 0.05346 0.17813 0.87453 0.0
C1403 C 0.03491 0.1709 0.86626 0.0
C1404 C 0.01952 0.18009 0.89108 0.0
H1405 H 0.99184 0.06611 0.72158 0.0
H1406 H 0.99592 0.09646 0.76759 0.0
C1407 C 0.0227 0.1958 0.9242 0.0
C1408 C 0.03213 0.15298 0.83486 0.0
H1409 H 1.00772 0.13361 0.73274 0.0
C1410 C 0.04278 0.13661 0.84786 0.0
C1411 C 0.01946 0.15185 0.79227 0.0
C1412 C 1.00827 0.16899 0.77421 0.0
C1413 C 0.04098 0.11929 0.82029 0.0
C1414 C 0.0283 0.11815 0.77788 0.0
C1415 C 0.01753 0.13443 0.76496 0.0
C1416 C 0.02575 0.10004 0.7475 0.0
C1417 C 0.05227 0.10213 0.83774 0.0
C1418 C 0.04102 0.09198 0.71969 0.0
C1419 C 0.03868 0.07459 0.693 0.0
C1420 C 0.02107 0.06477 0.69372 0.0
C1421 C 1.00568 0.07314 0.72048 0.0
C1422 C 1.00798 0.09055 0.74686 0.0
H1423 H 0.05824 0.10409 0.87704 0.0
H1424 H 0.04315 0.08907 0.83753 0.0
H1425 H 0.06436 0.09978 0.81079 0.0
H1426 H 0.05477 0.09916 0.7185 0.0
H1427 H 0.05065 0.06889 0.67156 0.0
H1428 H 0.33482 0.02039 0.97687 0.0
H1429 H 0.36277 0.01267 0.92297 0.0
H1430 H 0.34552 0.05544 0.81288 0.0
H1431 H 0.31782 0.06322 0.86657 0.0
H1432 H 0.36945 1.0024 0.81476 0.0
H1433 H 0.39851 0.07411 0.86488 0.0
H1434 H 0.37865 0.06337 0.89892 0.0
H1435 H 0.37497 0.07443 0.83721 0.0
C1436 C 0.33665 0.02764 0.94028 0.0
C1437 C 0.3241 0.0424 0.92595 0.0
C1438 C 0.35272 0.02334 0.90967 0.0
C1439 C 0.35652 0.03376 0.86432 0.0
C1440 C 0.34314 0.04743 0.84808 0.0
H1441 H 0.44534 0.01746 0.62952 0.0
H1442 H 0.41522 0.01906 0.67728 0.0
C1443 C 0.32719 0.05174 0.87857 0.0
C1444 C 0.37511 0.03164 0.83619 0.0
H1445 H 0.41557 0.05646 0.80226 0.0
C1446 C 0.37956 0.01419 0.81208 0.0
C1447 C 0.3885 0.04692 0.83321 0.0
C1448 C 0.38508 0.06572 0.86028 0.0
C1449 C 0.39677 0.01179 0.78428 0.0
C1450 C 0.40988 0.0273 0.77997 0.0
C1451 C 0.40555 0.04459 0.80499 0.0
C1452 C 0.4283 0.02591 0.75059 0.0
C1453 C 0.40092 0.99254 0.76055 0.0
C1454 C 0.44584 0.02972 0.77519 0.0
C1455 C 0.46315 0.02898 0.74783 0.0
C1456 C 0.46342 0.02452 0.69491 0.0
C1457 C 0.44581 0.02086 0.67022 0.0
C1458 C 0.4285 0.0216 0.69766 0.0
H1459 H 0.39228 0.98096 0.77868 0.0
H1460 H 0.39729 0.99297 0.71896 0.0
H1461 H 0.41631 0.9889 0.7642 0.0
H1462 H 0.44615 0.03321 0.81584 0.0
H1463 H 0.47633 0.03192 0.76832 0.0
H1464 H 0.52153 0.34197 0.96563 0.0
H1465 H 0.52827 0.3673 0.90206 0.0
H1466 H 0.47362 0.35672 0.8305 0.0
H1467 H 0.46696 0.33146 0.89373 0.0
H1468 H 0.50318 0.36609 0.75805 0.0
H1469 H 0.49929 0.41835 0.91914 0.0
H1470 H 0.51678 0.39977 0.92658 0.0
H1471 H 0.49177 0.39372 0.92611 0.0
C1472 C 0.51133 0.34455 0.93504 0.0
C1473 C 0.49384 0.33452 0.9342 0.0
C1474 C 0.51504 0.35923 0.89914 0.0
C1475 C 0.50131 0.36422 0.86182 0.0
C1476 C 0.48445 0.35324 0.85875 0.0
H1477 H 0.48012 0.47387 0.71447 0.0
H1478 H 0.47904 0.44387 0.76359 0.0
C1479 C 0.48071 0.33868 0.89471 0.0
C1480 C 0.50354 0.38186 0.82926 0.0
H1481 H 0.50538 0.43083 0.8365 0.0
C1482 C 0.50382 0.38023 0.77521 0.0
C1483 C 0.50399 0.40043 0.8514 0.0
C1484 C 0.50278 0.40331 0.90893 0.0
C1485 C 0.50468 0.39656 0.74302 0.0
C1486 C 0.50534 0.41508 0.76532 0.0
C1487 C 0.50499 0.41668 0.81928 0.0
C1488 C 0.5058 0.43304 0.73365 0.0
C1489 C 0.50428 0.3939 0.68534 0.0
C1490 C 0.52124 0.43719 0.70061 0.0
C1491 C 0.52194 0.45452 0.67307 0.0
C1492 C 0.50718 0.46801 0.6776 0.0
C1493 C 0.49176 0.46385 0.71052 0.0
C1494 C 0.49109 0.44661 0.73833 0.0
H1495 H 0.4996 0.37924 0.67433 0.0
H1496 H 0.49456 0.40443 0.66702 0.0
H1497 H 0.51886 0.39631 0.66958 0.0
H1498 H 0.53303 0.42727 0.69714 0.0
H1499 H 0.53433 0.45768 0.64956 0.0
H1500 H 0.20352 0.52031 0.93008 0.0
H1501 H 0.17689 0.52607 0.86984 0.0
H1502 H 0.16428 0.46561 0.86762 0.0
H1503 H 0.19072 0.45978 0.92694 0.0
H1504 H 0.16628 0.50876 0.76654 0.0
H1505 H 0.1145 0.49197 0.92264 0.0
H1506 H 0.13921 0.49795 0.93533 0.0
H1507 H 0.13286 0.47439 0.91321 0.0
C1508 C 0.19533 0.50822 0.91581 0.0
C1509 C 0.19915 0.48961 0.93395 0.0
C1510 C 0.18004 0.51153 0.88157 0.0
C1511 C 0.1683 0.49631 0.86489 0.0
C1512 C 0.17286 0.47764 0.88055 0.0
H1513 H 0.06187 0.47728 0.70143 0.0
H1514 H 0.09203 0.47514 0.74856 0.0
C1515 C 0.18803 0.47434 0.91453 0.0
C1516 C 0.15062 0.49973 0.83373 0.0
H1517 H 0.1019 0.49471 0.8383 0.0
C1518 C 0.15218 0.50591 0.78234 0.0
C1519 C 0.13218 0.4959 0.85414 0.0
C1520 C 0.12946 0.48983 0.90947 0.0
C1521 C 0.13588 0.50778 0.75054 0.0
C1522 C 0.11747 0.50369 0.77088 0.0
C1523 C 0.11595 0.49781 0.82249 0.0
C1524 C 0.09956 0.50504 0.73938 0.0
C1525 C 0.13852 0.51326 0.69479 0.0
C1526 C 0.09357 0.52257 0.71826 0.0
C1527 C 0.07609 0.5239 0.69179 0.0
C1528 C 0.06414 0.50772 0.68582 0.0
C1529 C 0.07042 0.49013 0.70606 0.0
C1530 C 0.08779 0.48884 0.73278 0.0
H1531 H 0.15366 0.51195 0.68224 0.0
H1532 H 0.12947 0.50407 0.66973 0.0
H1533 H 0.13405 0.52834 0.68912 0.0
H1534 H 0.10216 0.53537 0.72338 0.0
H1535 H 0.07179 0.53771 0.67687 0.0
H1536 H 0.95571 0.83695 0.31442 0.0
H1537 H 0.96182 0.86305 0.37417 0.0
H1538 H 0.02076 0.84572 0.38643 0.0
H1539 H 0.01501 0.82021 0.32319 0.0
H1540 H 0.97184 0.86695 0.46832 0.0
H1541 H 0.02953 0.90021 0.35137 0.0
H1542 H 0.01535 0.88046 0.32789 0.0
H1543 H 0.03494 0.87628 0.37147 0.0
C1544 C 0.97009 0.83873 0.32922 0.0
C1545 C 0.98497 0.82664 0.31247 0.0
C1546 C 0.97353 0.85366 0.36404 0.0
C1547 C 0.99192 0.85695 0.38406 0.0
C1548 C 1.00657 0.84409 0.37033 0.0
H1549 H 0.03322 0.95294 0.57632 0.0
H1550 H 0.02998 0.92188 0.5326 0.0
C1551 C 1.00318 0.82921 0.33471 0.0
C1552 C 0.99545 0.87403 0.41827 0.0
H1553 H 0.02263 0.91477 0.43107 0.0
C1554 C 0.98301 0.87733 0.46005 0.0
C1555 C 0.00994 0.88785 0.40788 0.0
C1556 C 0.02308 0.88618 0.36196 0.0
C1557 C 0.98448 0.89389 0.49098 0.0
C1558 C 0.99889 0.9077 0.48036 0.0
C1559 C 0.01165 0.9042 0.43957 0.0
C1560 C 1.00056 0.92619 0.5095 0.0
C1561 C 0.97032 0.8964 0.53436 0.0
C1562 C 0.98519 0.93914 0.51128 0.0
C1563 C 0.98701 0.95676 0.53685 0.0
C1564 C 1.00425 0.96197 0.56093 0.0
C1565 C 0.01962 0.94909 0.55922 0.0
C1566 C 0.01783 0.93143 0.53369 0.0
H1567 H 0.96594 0.88233 0.55067 0.0
H1568 H 0.97611 0.90543 0.56587 0.0
H1569 H 0.95729 0.9034 0.51906 0.0
H1570 H 0.97182 0.93572 0.49229 0.0
H1571 H 0.97487 0.96627 0.53805 0.0
H1572 H 0.68011 0.99792 0.24366 0.0
H1573 H 0.65431 1.00358 0.30517 0.0
H1574 H 0.69291 0.99223 0.43087 0.0
H1575 H 0.71902 0.98671 0.3688 0.0
H1576 H 0.64047 0.97599 0.37126 0.0
H1577 H 0.66439 0.0398 0.48241 0.0
H1578 H 0.67486 0.03338 0.42121 0.0
H1579 H 0.68116 0.02041 0.47842 0.0
C1580 C 0.68324 0.99703 0.28447 0.0
C1581 C 0.70164 0.99187 0.30132 0.0
C1582 C 0.66843 1.00021 0.31967 0.0
C1583 C 0.67153 0.99837 0.37287 0.0
C1584 C 0.69014 0.99404 0.39014 0.0
H1585 H 0.58281 1.00305 0.61812 0.0
H1586 H 0.61368 0.99907 0.57351 0.0
C1587 C 0.70509 0.99091 0.35466 0.0
C1588 C 0.65482 0.99946 0.40896 0.0
H1589 H 0.63524 0.02531 0.50792 0.0
C1590 C 0.63942 0.98675 0.40125 0.0
C1591 C 0.65339 0.01334 0.4486 0.0
C1592 C 0.66923 0.02764 0.45816 0.0
C1593 C 0.62263 0.98774 0.43105 0.0
C1594 C 0.62089 1.00205 0.46939 0.0
C1595 C 0.63651 0.01437 0.4785 0.0
C1596 C 0.60247 1.00511 0.49758 0.0
C1597 C 0.6068 0.97344 0.42102 0.0
C1598 C 0.58597 1.01019 0.47012 0.0
C1599 C 0.56844 0.01249 0.49539 0.0
C1600 C 0.56685 1.0098 0.54898 0.0
C1601 C 0.58349 1.00513 0.57681 0.0
C1602 C 0.60114 1.00287 0.55136 0.0
H1603 H 0.61227 0.96035 0.40177 0.0
H1604 H 0.59956 0.9692 0.4574 0.0
H1605 H 0.596 0.98002 0.39528 0.0
H1606 H 0.58664 0.01243 0.42886 0.0
H1607 H 0.55614 0.01664 0.47275 0.0
H1608 H 0.56862 0.70714 0.3423 0.0
H1609 H 0.55957 0.68008 0.39696 0.0
H1610 H 0.50781 0.67256 0.30886 0.0
H1611 H 0.51723 0.69948 0.25288 0.0
H1612 H 0.53091 0.66966 0.45927 0.0
H1613 H 0.53189 0.62073 0.29082 0.0
H1614 H 0.54007 0.64521 0.28684 0.0
H1615 H 0.51488 0.63979 0.28564 0.0
C1616 C 0.55504 0.70004 0.33541 0.0
C1617 C 0.54364 0.70549 0.29322 0.0
C1618 C 0.54992 0.68445 0.36657 0.0
C1619 C 0.53326 0.67377 0.35639 0.0
C1620 C 0.52102 0.68014 0.31678 0.0
H1621 H 0.49177 0.56623 0.49344 0.0
H1622 H 0.49518 0.59625 0.44503 0.0
C1623 C 0.52621 0.69579 0.28534 0.0
C1624 C 0.52951 0.65554 0.38563 0.0
H1625 H 0.52387 0.60701 0.37111 0.0
C1626 C 0.52932 0.656 0.43985 0.0
C1627 C 0.52759 0.63754 0.36067 0.0
C1628 C 0.52879 0.63566 0.30284 0.0
C1629 C 0.52719 0.63916 0.46945 0.0
C1630 C 0.52536 0.62122 0.44445 0.0
C1631 C 0.52527 0.62074 0.39035 0.0
C1632 C 0.5235 0.60281 0.47373 0.0
C1633 C 0.52671 0.64072 0.5274 0.0
C1634 C 0.53838 0.59623 0.50556 0.0
C1635 C 0.53648 0.579 0.53317 0.0
C1636 C 0.51967 0.56793 0.52944 0.0
C1637 C 0.50486 0.57447 0.49733 0.0
C1638 C 0.50682 0.5916 0.46948 0.0
H1639 H 0.52386 0.65561 0.5403 0.0
H1640 H 0.51559 0.63109 0.5439 0.0
H1641 H 0.54077 0.63632 0.54318 0.0
H1642 H 0.55152 0.60441 0.50898 0.0
H1643 H 0.54806 0.57444 0.5579 0.0
H1644 H 0.82433 0.56713 0.35104 0.0
H1645 H 0.85044 0.55755 0.40805 0.0
H1646 H 0.86151 0.50867 0.31123 0.0
H1647 H 0.8354 0.51847 0.25346 0.0
H1648 H 0.85945 0.52563 0.46491 0.0
H1649 H 0.91296 0.53663 0.30914 0.0
H1650 H 0.88845 0.5443 0.30315 0.0
H1651 H 0.89446 0.51949 0.29492 0.0
C1652 C 0.83199 0.55404 0.34269 0.0
C1653 C 0.82775 0.54351 0.29787 0.0
C1654 C 0.84702 0.54863 0.37513 0.0
C1655 C 0.85834 0.53265 0.3634 0.0
C1656 C 0.85331 0.52132 0.32055 0.0
H1657 H 0.96309 0.49135 0.51238 0.0
H1658 H 0.93418 0.49455 0.45971 0.0
C1659 C 0.83816 0.52672 0.28803 0.0
C1660 C 0.87578 0.52858 0.39501 0.0
H1661 H 0.92474 0.52655 0.38983 0.0
C1662 C 0.8737 0.52575 0.44831 0.0
C1663 C 0.89448 0.52884 0.3737 0.0
C1664 C 0.89785 0.53264 0.31719 0.0
C1665 C 0.88965 0.5231 0.48062 0.0
C1666 C 0.90833 0.52367 0.45953 0.0
C1667 C 0.91045 0.52619 0.40613 0.0
C1668 C 0.92583 0.52177 0.4922 0.0
C1669 C 0.88628 0.51965 0.53714 0.0
C1670 C 0.9309 0.53604 0.528 0.0
C1671 C 0.94752 0.53429 0.55806 0.0
C1672 C 0.95941 0.51821 0.55294 0.0
C1673 C 0.95419 0.50386 0.51748 0.0
C1674 C 0.93771 0.50572 0.48712 0.0
H1675 H 0.87198 0.51316 0.54424 0.0
H1676 H 0.89735 0.51011 0.55354 0.0
H1677 H 0.8868 0.53359 0.55752 0.0
H1678 H 0.92209 0.54866 0.53225 0.0
H1679 H 0.95109 0.5455 0.58526 0.0
loop_
_geom_bond_atom_site_label_1
_geom_bond_atom_site_label_2
_geom_bond_distance
_geom_bond_site_symmetry_2
_ccdc_geom_bond_type
C0 C1 1.391 . S
C0 C4 1.391 . S
C0 H42 0.948 . S
C1 C0 1.391 . S
C1 C2 1.391 . S
C2 C1 1.391 . S
C2 H58 0.947 . S
C2 C59 1.392 . S
C3 C4 1.391 . S
C3 C7 1.397 . S
C3 C59 1.419 . S
C4 C0 1.391 . S
C4 C3 1.391 . S
C4 C5 1.399 . S
C5 C4 1.399 . S
C5 C8 1.396 . S
C5 C17 1.453 . S
C5 C18 1.684 . S
H6 C30 0.948 . S
C7 C3 1.397 . S
C7 C8 1.394 . S
C7 C26 1.723 . S
C8 C5 1.396 . S
C8 C7 1.394 . S
C8 C38 1.723 . S
H9 C32 0.947 . S
H10 C33 0.948 . S
H11 C39 0.982 . S
H12 C40 0.979 . S
H13 C40 0.980 . S
H14 C40 0.983 . S
H15 C39 0.979 . S
H16 C39 0.977 . S
C17 C5 1.453 . S
C17 H46 0.982 . S
C17 H47 0.979 . S
C17 H48 0.977 . S
C18 C5 1.684 . S
C18 H43 0.979 . S
C18 H44 0.980 . S
C18 H45 0.983 . S
C19 C20 1.391 . S
C19 C24 1.391 . S
C19 H49 0.948 . S
C20 C19 1.391 . S
C20 C21 1.391 . S
C21 C20 1.391 . S
C21 C22 1.392 . S
C21 H50 0.947 1_554 S
C22 C21 1.392 . S
C22 C23 1.419 . S
C22 H51 0.948 . S
C23 C22 1.419 . S
C23 C24 1.391 . S
C23 C27 1.397 . S
C24 C19 1.391 . S
C24 C23 1.391 . S
C24 C25 1.399 . S
C25 C24 1.399 . S
C25 C26 1.396 . S
C25 C28 1.453 . S
C25 C29 1.684 . S
C26 C7 1.723 . S
C26 C25 1.396 . S
C26 C27 1.394 . S
C27 C23 1.397 . S
C27 C26 1.394 . S
C27 C37 1.723 . S
C28 C25 1.453 . S
C28 H52 0.982 . S
C28 H53 0.979 . S
C28 H54 0.977 . S
C29 C25 1.684 . S
C29 H55 0.979 . S
C29 H56 0.980 . S
C29 H57 0.983 . S
C30 H6 0.948 . S
C30 C31 1.391 . S
C30 C35 1.391 . S
C31 C30 1.391 . S
C31 C32 1.391 . S
C32 H9 0.947 . S
C32 C31 1.391 . S
C32 C33 1.392 . S
C33 H10 0.948 . S
C33 C32 1.392 . S
C33 C34 1.419 . S
C34 C33 1.419 . S
C34 C35 1.391 . S
C34 C38 1.397 . S
C35 C30 1.391 . S
C35 C34 1.391 . S
C35 C36 1.399 . S
C36 C35 1.399 . S
C36 C37 1.396 . S
C36 C39 1.453 . S
C36 C40 1.684 . S
C37 C27 1.723 . S
C37 C36 1.396 . S
C37 C38 1.394 . S
C38 C8 1.723 . S
C38 C34 1.397 . S
C38 C37 1.394 . S
C39 H11 0.982 . S
C39 H15 0.979 . S
C39 H16 0.977 . S
C39 C36 1.453 . S
C40 H12 0.979 . S
C40 H13 0.980 . S
C40 H14 0.983 . S
C40 C36 1.684 . S
H41 C59 0.948 . S
H42 C0 0.948 . S
H43 C18 0.979 . S
H44 C18 0.980 . S
H45 C18 0.983 . S
H46 C17 0.982 . S
H47 C17 0.979 . S
H48 C17 0.977 . S
H49 C19 0.948 . S
H50 C21 0.947 1_556 S
H51 C22 0.948 . S
H52 C28 0.982 . S
H53 C28 0.979 . S
H54 C28 0.977 . S
H55 C29 0.979 . S
H56 C29 0.980 . S
H57 C29 0.983 . S
H58 C2 0.947 . S
C59 C2 1.392 . S
C59 C3 1.419 . S
C59 H41 0.948 . S
C60 C61 1.391 . S
C60 C64 1.391 . S
C60 H102 0.948 1_554 S
C61 C60 1.391 . S
C61 C62 1.391 . S
C62 C61 1.391 . S
C62 H118 0.947 . S
C62 C119 1.392 . S
C63 C64 1.391 . S
C63 C67 1.397 . S
C63 C119 1.419 . S
C64 C60 1.391 . S
C64 C63 1.391 . S
C64 C65 1.399 . S
C65 C64 1.399 . S
C65 C68 1.396 . S
C65 C77 1.453 . S
C65 C78 1.684 . S
H66 C90 0.948 . S
C67 C63 1.397 . S
C67 C68 1.394 . S
C67 C86 1.723 . S
C68 C65 1.396 . S
C68 C67 1.394 . S
C68 C98 1.723 . S
H69 C92 0.947 . S
H70 C93 0.948 . S
H71 C99 0.982 . S
H72 C100 0.979 . S
H73 C100 0.980 . S
H74 C100 0.983 . S
H75 C99 0.979 . S
H76 C99 0.977 . S
C77 C65 1.453 . S
C77 H106 0.982 . S
C77 H107 0.979 . S
C77 H108 0.977 . S
C78 C65 1.684 . S
C78 H103 0.979 . S
C78 H104 0.980 . S
C78 H105 0.983 1_554 S
C79 C80 1.391 . S
C79 C84 1.391 . S
C79 H109 0.948 . S
C80 C79 1.391 . S
C80 C81 1.391 . S
C81 C80 1.391 . S
C81 C82 1.392 . S
C81 H110 0.947 . S
C82 C81 1.392 . S
C82 C83 1.419 . S
C82 H111 0.948 . S
C83 C82 1.419 . S
C83 C84 1.391 . S
C83 C87 1.397 . S
C84 C79 1.391 . S
C84 C83 1.391 . S
C84 C85 1.399 . S
C85 C84 1.399 . S
C85 C86 1.396 . S
C85 C88 1.453 . S
C85 C89 1.684 . S
C86 C67 1.723 . S
C86 C85 1.396 . S
C86 C87 1.394 . S
C87 C83 1.397 . S
C87 C86 1.394 . S
C87 C97 1.723 . S
C88 C85 1.453 . S
C88 H112 0.982 . S
C88 H113 0.979 . S
C88 H114 0.977 . S
C89 C85 1.684 . S
C89 H115 0.979 . S
C89 H116 0.980 . S
C89 H117 0.983 . S
C90 H66 0.948 . S
C90 C91 1.391 . S
C90 C95 1.391 . S
C91 C90 1.391 . S
C91 C92 1.391 . S
C92 H69 0.947 . S
C92 C91 1.391 . S
C92 C93 1.392 . S
C93 H70 0.948 . S
C93 C92 1.392 . S
C93 C94 1.419 . S
C94 C93 1.419 . S
C94 C95 1.391 . S
C94 C98 1.397 . S
C95 C90 1.391 . S
C95 C94 1.391 . S
C95 C96 1.399 . S
C96 C95 1.399 . S
C96 C97 1.396 . S
C96 C99 1.453 . S
C96 C100 1.684 . S
C97 C87 1.723 . S
C97 C96 1.396 . S
C97 C98 1.394 . S
C98 C68 1.723 . S
C98 C94 1.397 . S
C98 C97 1.394 . S
C99 H71 0.982 . S
C99 H75 0.979 . S
C99 H76 0.977 . S
C99 C96 1.453 . S
C100 H72 0.979 . S
C100 H73 0.980 . S
C100 H74 0.983 . S
C100 C96 1.684 . S
H101 C119 0.948 . S
H102 C60 0.948 1_556 S
H103 C78 0.979 . S
H104 C78 0.980 . S
H105 C78 0.983 1_556 S
H106 C77 0.982 . S
H107 C77 0.979 . S
H108 C77 0.977 . S
H109 C79 0.948 . S
H110 C81 0.947 . S
H111 C82 0.948 . S
H112 C88 0.982 . S
H113 C88 0.979 . S
H114 C88 0.977 . S
H115 C89 0.979 . S
H116 C89 0.980 . S
H117 C89 0.983 . S
H118 C62 0.947 . S
C119 C62 1.392 . S
C119 C63 1.419 . S
C119 H101 0.948 . S
C120 C121 1.391 . S
C120 C124 1.391 . S
C120 H162 0.948 . S
C121 C120 1.391 . S
C121 C122 1.391 . S
C122 C121 1.391 . S
C122 H178 0.947 . S
C122 C179 1.392 . S
C123 C124 1.391 . S
C123 C127 1.397 . S
C123 C179 1.419 . S
C124 C120 1.391 . S
C124 C123 1.391 . S
C124 C125 1.399 . S
C125 C124 1.399 . S
C125 C128 1.396 . S
C125 C137 1.453 . S
C125 C138 1.684 . S
H126 C150 0.948 . S
C127 C123 1.397 . S
C127 C128 1.394 . S
C127 C146 1.723 . S
C128 C125 1.396 . S
C128 C127 1.394 . S
C128 C158 1.723 . S
H129 C152 0.947 . S
H130 C153 0.948 . S
H131 C159 0.982 . S
H132 C160 0.979 . S
H133 C160 0.980 . S
H134 C160 0.983 . S
H135 C159 0.979 . S
H136 C159 0.977 . S
C137 C125 1.453 . S
C137 H166 0.982 . S
C137 H167 0.979 . S
C137 H168 0.977 . S
C138 C125 1.684 . S
C138 H163 0.979 . S
C138 H164 0.980 . S
C138 H165 0.983 . S
C139 C140 1.391 . S
C139 C144 1.391 . S
C139 H169 0.948 1_554 S
C140 C139 1.391 . S
C140 C141 1.391 . S
C141 C140 1.391 . S
C141 C142 1.392 . S
C141 H170 0.947 . S
C142 C141 1.392 . S
C142 C143 1.419 . S
C142 H171 0.948 . S
C143 C142 1.419 . S
C143 C144 1.391 . S
C143 C147 1.397 . S
C144 C139 1.391 . S
C144 C143 1.391 . S
C144 C145 1.399 . S
C145 C144 1.399 . S
C145 C146 1.396 . S
C145 C148 1.453 . S
C145 C149 1.684 . S
C146 C127 1.723 . S
C146 C145 1.396 . S
C146 C147 1.394 . S
C147 C143 1.397 . S
C147 C146 1.394 . S
C147 C157 1.723 . S
C148 C145 1.453 . S
C148 H172 0.982 . S
C148 H173 0.979 . S
C148 H174 0.977 . S
C149 C145 1.684 . S
C149 H175 0.979 . S
C149 H176 0.980 . S
C149 H177 0.983 1_554 S
C150 H126 0.948 . S
C150 C151 1.391 . S
C150 C155 1.391 . S
C151 C150 1.391 . S
C151 C152 1.391 . S
C152 H129 0.947 . S
C152 C151 1.391 . S
C152 C153 1.392 . S
C153 H130 0.948 . S
C153 C152 1.392 . S
C153 C154 1.419 . S
C154 C153 1.419 . S
C154 C155 1.391 . S
C154 C158 1.397 . S
C155 C150 1.391 . S
C155 C154 1.391 . S
C155 C156 1.399 . S
C156 C155 1.399 . S
C156 C157 1.396 . S
C156 C159 1.453 . S
C156 C160 1.684 . S
C157 C147 1.723 . S
C157 C156 1.396 . S
C157 C158 1.394 . S
C158 C128 1.723 . S
C158 C154 1.397 . S
C158 C157 1.394 . S
C159 H131 0.982 . S
C159 H135 0.979 . S
C159 H136 0.977 . S
C159 C156 1.453 . S
C160 H132 0.979 . S
C160 H133 0.980 . S
C160 H134 0.983 . S
C160 C156 1.684 . S
H161 C179 0.948 . S
H162 C120 0.948 . S
H163 C138 0.979 . S
H164 C138 0.980 . S
H165 C138 0.983 . S
H166 C137 0.982 . S
H167 C137 0.979 . S
H168 C137 0.977 . S
H169 C139 0.948 1_556 S
H170 C141 0.947 . S
H171 C142 0.948 . S
H172 C148 0.982 . S
H173 C148 0.979 . S
H174 C148 0.977 . S
H175 C149 0.979 . S
H176 C149 0.980 . S
H177 C149 0.983 1_556 S
H178 C122 0.947 . S
C179 C122 1.392 . S
C179 C123 1.419 . S
C179 H161 0.948 . S
C180 C181 1.391 . S
C180 C184 1.391 . S
C180 H222 0.948 . S
C181 C180 1.391 . S
C181 C182 1.391 . S
C182 C181 1.391 . S
C182 H238 0.947 . S
C182 C239 1.392 . S
C183 C184 1.391 . S
C183 C187 1.397 . S
C183 C239 1.419 . S
C184 C180 1.391 . S
C184 C183 1.391 . S
C184 C185 1.399 . S
C185 C184 1.399 . S
C185 C188 1.396 . S
C185 C197 1.453 . S
C185 C198 1.684 . S
H186 C210 0.948 . S
C187 C183 1.397 . S
C187 C188 1.394 . S
C187 C206 1.723 . S
C188 C185 1.396 . S
C188 C187 1.394 . S
C188 C218 1.723 . S
H189 C212 0.947 . S
H190 C213 0.948 . S
H191 C219 0.982 . S
H192 C220 0.979 . S
H193 C220 0.980 . S
H194 C220 0.983 . S
H195 C219 0.979 . S
H196 C219 0.977 . S
C197 C185 1.453 . S
C197 H226 0.982 . S
C197 H227 0.979 . S
C197 H228 0.977 . S
C198 C185 1.684 . S
C198 H223 0.979 . S
C198 H224 0.980 . S
C198 H225 0.983 . S
C199 C200 1.391 . S
C199 C204 1.391 . S
C199 H229 0.948 . S
C200 C199 1.391 . S
C200 C201 1.391 . S
C201 C200 1.391 . S
C201 C202 1.392 . S
C201 H230 0.947 1_554 S
C202 C201 1.392 . S
C202 C203 1.419 . S
C202 H231 0.948 . S
C203 C202 1.419 . S
C203 C204 1.391 . S
C203 C207 1.397 . S
C204 C199 1.391 . S
C204 C203 1.391 . S
C204 C205 1.399 . S
C205 C204 1.399 . S
C205 C206 1.396 . S
C205 C208 1.453 . S
C205 C209 1.684 . S
C206 C187 1.723 . S
C206 C205 1.396 . S
C206 C207 1.394 . S
C207 C203 1.397 . S
C207 C206 1.394 . S
C207 C217 1.723 . S
C208 C205 1.453 . S
C208 H232 0.982 . S
C208 H233 0.979 . S
C208 H234 0.977 . S
C209 C205 1.684 . S
C209 H235 0.979 . S
C209 H236 0.980 . S
C209 H237 0.983 . S
C210 H186 0.948 . S
C210 C211 1.391 . S
C210 C215 1.391 . S
C211 C210 1.391 . S
C211 C212 1.391 . S
C212 H189 0.947 . S
C212 C211 1.391 . S
C212 C213 1.392 . S
C213 H190 0.948 . S
C213 C212 1.392 . S
C213 C214 1.419 . S
C214 C213 1.419 . S
C214 C215 1.391 . S
C214 C218 1.397 . S
C215 C210 1.391 . S
C215 C214 1.391 . S
C215 C216 1.399 . S
C216 C215 1.399 . S
C216 C217 1.396 . S
C216 C219 1.453 . S
C216 C220 1.684 . S
C217 C207 1.723 . S
C217 C216 1.396 . S
C217 C218 1.394 . S
C218 C188 1.723 . S
C218 C214 1.397 . S
C218 C217 1.394 . S
C219 H191 0.982 . S
C219 H195 0.979 . S
C219 H196 0.977 . S
C219 C216 1.453 . S
C220 H192 0.979 . S
C220 H193 0.980 . S
C220 H194 0.983 . S
C220 C216 1.684 . S
H221 C239 0.948 . S
H222 C180 0.948 . S
H223 C198 0.979 . S
H224 C198 0.980 . S
H225 C198 0.983 . S
H226 C197 0.982 . S
H227 C197 0.979 . S
H228 C197 0.977 . S
H229 C199 0.948 . S
H230 C201 0.947 1_556 S
H231 C202 0.948 . S
H232 C208 0.982 . S
H233 C208 0.979 . S
H234 C208 0.977 . S
H235 C209 0.979 . S
H236 C209 0.980 . S
H237 C209 0.983 . S
H238 C182 0.947 . S
C239 C182 1.392 . S
C239 C183 1.419 . S
C239 H221 0.948 . S
C240 C241 1.391 . S
C240 C244 1.391 . S
C240 H282 0.948 . S
C241 C240 1.391 . S
C241 C242 1.391 . S
C242 C241 1.391 . S
C242 H298 0.947 . S
C242 C299 1.392 . S
C243 C244 1.391 . S
C243 C247 1.397 . S
C243 C299 1.419 . S
C244 C240 1.391 . S
C244 C243 1.391 . S
C244 C245 1.399 1_554 S
C245 C244 1.399 1_556 S
C245 C248 1.396 1_556 S
C245 C257 1.453 . S
C245 C258 1.684 . S
H246 C270 0.948 . S
C247 C243 1.397 . S
C247 C248 1.394 . S
C247 C266 1.723 . S
C248 C245 1.396 1_554 S
C248 C247 1.394 . S
C248 C278 1.723 1_554 S
H249 C272 0.947 . S
H250 C273 0.948 . S
H251 C279 0.982 . S
H252 C280 0.979 . S
H253 C280 0.980 1_554 S
H254 C280 0.983 . S
H255 C279 0.979 . S
H256 C279 0.977 1_554 S
C257 C245 1.453 . S
C257 H286 0.982 . S
C257 H287 0.979 . S
C257 H288 0.977 . S
C258 C245 1.684 . S
C258 H283 0.979 . S
C258 H284 0.980 . S
C258 H285 0.983 . S
C259 C260 1.391 . S
C259 C264 1.391 . S
C259 H289 0.948 . S
C260 C259 1.391 . S
C260 C261 1.391 . S
C261 C260 1.391 . S
C261 C262 1.392 . S
C261 H290 0.947 . S
C262 C261 1.392 . S
C262 C263 1.419 . S
C262 H291 0.948 . S
C263 C262 1.419 . S
C263 C264 1.391 . S
C263 C267 1.397 . S
C264 C259 1.391 . S
C264 C263 1.391 . S
C264 C265 1.399 . S
C265 C264 1.399 . S
C265 C266 1.396 . S
C265 C268 1.453 . S
C265 C269 1.684 . S
C266 C247 1.723 . S
C266 C265 1.396 . S
C266 C267 1.394 . S
C267 C263 1.397 . S
C267 C266 1.394 . S
C267 C277 1.723 . S
C268 C265 1.453 . S
C268 H292 0.982 . S
C268 H293 0.979 . S
C268 H294 0.977 . S
C269 C265 1.684 . S
C269 H295 0.979 . S
C269 H296 0.980 . S
C269 H297 0.983 . S
C270 H246 0.948 . S
C270 C271 1.391 . S
C270 C275 1.391 . S
C271 C270 1.391 . S
C271 C272 1.391 . S
C272 H249 0.947 . S
C272 C271 1.391 . S
C272 C273 1.392 . S
C273 H250 0.948 . S
C273 C272 1.392 . S
C273 C274 1.419 . S
C274 C273 1.419 . S
C274 C275 1.391 . S
C274 C278 1.397 . S
C275 C270 1.391 . S
C275 C274 1.391 . S
C275 C276 1.399 . S
C276 C275 1.399 . S
C276 C277 1.396 1_556 S
C276 C279 1.453 . S
C276 C280 1.684 . S
C277 C267 1.723 . S
C277 C276 1.396 1_554 S
C277 C278 1.394 1_554 S
C278 C248 1.723 1_556 S
C278 C274 1.397 . S
C278 C277 1.394 1_556 S
C279 H251 0.982 . S
C279 H255 0.979 . S
C279 H256 0.977 1_556 S
C279 C276 1.453 . S
C280 H252 0.979 . S
C280 H253 0.980 1_556 S
C280 H254 0.983 . S
C280 C276 1.684 . S
H281 C299 0.948 . S
H282 C240 0.948 . S
H283 C258 0.979 . S
H284 C258 0.980 . S
H285 C258 0.983 . S
H286 C257 0.982 . S
H287 C257 0.979 . S
H288 C257 0.977 . S
H289 C259 0.948 . S
H290 C261 0.947 . S
H291 C262 0.948 . S
H292 C268 0.982 . S
H293 C268 0.979 . S
H294 C268 0.977 . S
H295 C269 0.979 . S
H296 C269 0.980 . S
H297 C269 0.983 . S
H298 C242 0.947 . S
C299 C242 1.392 . S
C299 C243 1.419 . S
C299 H281 0.948 . S
C300 C301 1.391 . S
C300 C304 1.391 . S
C300 H342 0.948 . S
C301 C300 1.391 . S
C301 C302 1.391 . S
C302 C301 1.391 . S
C302 H358 0.947 . S
C302 C359 1.392 . S
C303 C304 1.391 . S
C303 C307 1.397 . S
C303 C359 1.419 . S
C304 C300 1.391 . S
C304 C303 1.391 . S
C304 C305 1.399 . S
C305 C304 1.399 . S
C305 C308 1.396 . S
C305 C317 1.453 . S
C305 C318 1.684 . S
H306 C330 0.948 . S
C307 C303 1.397 . S
C307 C308 1.394 . S
C307 C326 1.723 . S
C308 C305 1.396 . S
C308 C307 1.394 . S
C308 C338 1.723 . S
H309 C332 0.947 . S
H310 C333 0.948 . S
H311 C339 0.982 . S
H312 C340 0.979 . S
H313 C340 0.980 . S
H314 C340 0.983 . S
H315 C339 0.979 . S
H316 C339 0.977 . S
C317 C305 1.453 . S
C317 H346 0.982 . S
C317 H347 0.979 . S
C317 H348 0.977 . S
C318 C305 1.684 . S
C318 H343 0.979 . S
C318 H344 0.980 . S
C318 H345 0.983 . S
C319 C320 1.391 . S
C319 C324 1.391 . S
C319 H349 0.948 . S
C320 C319 1.391 . S
C320 C321 1.391 . S
C321 C320 1.391 . S
C321 C322 1.392 . S
C321 H350 0.947 . S
C322 C321 1.392 . S
C322 C323 1.419 . S
C322 H351 0.948 . S
C323 C322 1.419 . S
C323 C324 1.391 . S
C323 C327 1.397 . S
C324 C319 1.391 . S
C324 C323 1.391 . S
C324 C325 1.399 . S
C325 C324 1.399 . S
C325 C326 1.396 1_556 S
C325 C328 1.453 . S
C325 C329 1.684 . S
C326 C307 1.723 . S
C326 C325 1.396 1_554 S
C326 C327 1.394 1_554 S
C327 C323 1.397 . S
C327 C326 1.394 1_556 S
C327 C337 1.723 1_556 S
C328 C325 1.453 . S
C328 H352 0.982 . S
C328 H353 0.979 . S
C328 H354 0.977 1_556 S
C329 C325 1.684 . S
C329 H355 0.979 . S
C329 H356 0.980 1_556 S
C329 H357 0.983 . S
C330 H306 0.948 . S
C330 C331 1.391 . S
C330 C335 1.391 . S
C331 C330 1.391 . S
C331 C332 1.391 . S
C332 H309 0.947 . S
C332 C331 1.391 . S
C332 C333 1.392 . S
C333 H310 0.948 . S
C333 C332 1.392 . S
C333 C334 1.419 . S
C334 C333 1.419 . S
C334 C335 1.391 . S
C334 C338 1.397 . S
C335 C330 1.391 . S
C335 C334 1.391 . S
C335 C336 1.399 1_554 S
C336 C335 1.399 1_556 S
C336 C337 1.396 1_556 S
C336 C339 1.453 . S
C336 C340 1.684 . S
C337 C327 1.723 1_554 S
C337 C336 1.396 1_554 S
C337 C338 1.394 . S
C338 C308 1.723 . S
C338 C334 1.397 . S
C338 C337 1.394 . S
C339 H311 0.982 . S
C339 H315 0.979 . S
C339 H316 0.977 . S
C339 C336 1.453 . S
C340 H312 0.979 . S
C340 H313 0.980 . S
C340 H314 0.983 . S
C340 C336 1.684 . S
H341 C359 0.948 . S
H342 C300 0.948 . S
H343 C318 0.979 . S
H344 C318 0.980 . S
H345 C318 0.983 . S
H346 C317 0.982 . S
H347 C317 0.979 . S
H348 C317 0.977 . S
H349 C319 0.948 . S
H350 C321 0.947 . S
H351 C322 0.948 . S
H352 C328 0.982 . S
H353 C328 0.979 . S
H354 C328 0.977 1_554 S
H355 C329 0.979 . S
H356 C329 0.980 1_554 S
H357 C329 0.983 . S
H358 C302 0.947 . S
C359 C302 1.392 . S
C359 C303 1.419 . S
C359 H341 0.948 . S
C360 C361 1.391 . S
C360 C364 1.391 . S
C360 H402 0.948 . S
C361 C360 1.391 . S
C361 C362 1.391 . S
C362 C361 1.391 . S
C362 H418 0.947 . S
C362 C419 1.392 . S
C363 C364 1.391 . S
C363 C367 1.397 . S
C363 C419 1.419 . S
C364 C360 1.391 . S
C364 C363 1.391 . S
C364 C365 1.399 . S
C365 C364 1.399 . S
C365 C368 1.396 . S
C365 C377 1.453 . S
C365 C378 1.684 . S
H366 C390 0.948 . S
C367 C363 1.397 . S
C367 C368 1.394 . S
C367 C386 1.723 1_556 S
C368 C365 1.396 . S
C368 C367 1.394 . S
C368 C398 1.723 1_556 S
H369 C392 0.947 . S
H370 C393 0.948 1_556 S
H371 C399 0.982 . S
H372 C400 0.979 . S
H373 C400 0.980 . S
H374 C400 0.983 . S
H375 C399 0.979 . S
H376 C399 0.977 . S
C377 C365 1.453 . S
C377 H406 0.982 . S
C377 H407 0.979 . S
C377 H408 0.977 . S
C378 C365 1.684 . S
C378 H403 0.979 . S
C378 H404 0.980 . S
C378 H405 0.983 . S
C379 C380 1.391 . S
C379 C384 1.391 . S
C379 H409 0.948 . S
C380 C379 1.391 . S
C380 C381 1.391 . S
C381 C380 1.391 . S
C381 C382 1.392 . S
C381 H410 0.947 . S
C382 C381 1.392 . S
C382 C383 1.419 . S
C382 H411 0.948 . S
C383 C382 1.419 . S
C383 C384 1.391 . S
C383 C387 1.397 . S
C384 C379 1.391 . S
C384 C383 1.391 . S
C384 C385 1.399 . S
C385 C384 1.399 . S
C385 C386 1.396 . S
C385 C388 1.453 . S
C385 C389 1.684 . S
C386 C367 1.723 1_554 S
C386 C385 1.396 . S
C386 C387 1.394 . S
C387 C383 1.397 . S
C387 C386 1.394 . S
C387 C397 1.723 . S
C388 C385 1.453 . S
C388 H412 0.982 . S
C388 H413 0.979 . S
C388 H414 0.977 1_554 S
C389 C385 1.684 . S
C389 H415 0.979 . S
C389 H416 0.980 1_554 S
C389 H417 0.983 . S
C390 H366 0.948 . S
C390 C391 1.391 . S
C390 C395 1.391 . S
C391 C390 1.391 . S
C391 C392 1.391 . S
C392 H369 0.947 . S
C392 C391 1.391 . S
C392 C393 1.392 . S
C393 H370 0.948 1_554 S
C393 C392 1.392 . S
C393 C394 1.419 . S
C394 C393 1.419 . S
C394 C395 1.391 . S
C394 C398 1.397 . S
C395 C390 1.391 . S
C395 C394 1.391 . S
C395 C396 1.399 . S
C396 C395 1.399 . S
C396 C397 1.396 . S
C396 C399 1.453 . S
C396 C400 1.684 . S
C397 C387 1.723 . S
C397 C396 1.396 . S
C397 C398 1.394 . S
C398 C368 1.723 1_554 S
C398 C394 1.397 . S
C398 C397 1.394 . S
C399 H371 0.982 . S
C399 H375 0.979 . S
C399 H376 0.977 . S
C399 C396 1.453 . S
C400 H372 0.979 . S
C400 H373 0.980 . S
C400 H374 0.983 . S
C400 C396 1.684 . S
H401 C419 0.948 . S
H402 C360 0.948 . S
H403 C378 0.979 . S
H404 C378 0.980 . S
H405 C378 0.983 . S
H406 C377 0.982 . S
H407 C377 0.979 . S
H408 C377 0.977 . S
H409 C379 0.948 . S
H410 C381 0.947 . S
H411 C382 0.948 . S
H412 C388 0.982 . S
H413 C388 0.979 . S
H414 C388 0.977 1_556 S
H415 C389 0.979 . S
H416 C389 0.980 1_556 S
H417 C389 0.983 . S
H418 C362 0.947 . S
C419 C362 1.392 . S
C419 C363 1.419 . S
C419 H401 0.948 . S
C420 C421 1.391 . S
C420 C424 1.391 . S
C420 H462 0.948 . S
C421 C420 1.391 . S
C421 C422 1.391 . S
C422 C421 1.391 . S
C422 H478 0.947 . S
C422 C479 1.392 . S
C423 C424 1.391 . S
C423 C427 1.397 . S
C423 C479 1.419 . S
C424 C420 1.391 . S
C424 C423 1.391 . S
C424 C425 1.399 . S
C425 C424 1.399 . S
C425 C428 1.396 . S
C425 C437 1.453 . S
C425 C438 1.684 . S
H426 C450 0.948 . S
C427 C423 1.397 . S
C427 C428 1.394 . S
C427 C446 1.723 1_556 S
C428 C425 1.396 . S
C428 C427 1.394 . S
C428 C458 1.723 1_556 S
H429 C452 0.947 1_556 S
H430 C453 0.948 1_556 S
H431 C459 0.982 . S
H432 C460 0.979 . S
H433 C460 0.980 . S
H434 C460 0.983 . S
H435 C459 0.979 . S
H436 C459 0.977 . S
C437 C425 1.453 . S
C437 H466 0.982 . S
C437 H467 0.979 . S
C437 H468 0.977 . S
C438 C425 1.684 . S
C438 H463 0.979 . S
C438 H464 0.980 . S
C438 H465 0.983 . S
C439 C440 1.391 . S
C439 C444 1.391 . S
C439 H469 0.948 . S
C440 C439 1.391 . S
C440 C441 1.391 . S
C441 C440 1.391 . S
C441 C442 1.392 . S
C441 H470 0.947 . S
C442 C441 1.392 . S
C442 C443 1.419 . S
C442 H471 0.948 . S
C443 C442 1.419 . S
C443 C444 1.391 . S
C443 C447 1.397 . S
C444 C439 1.391 . S
C444 C443 1.391 . S
C444 C445 1.399 . S
C445 C444 1.399 . S
C445 C446 1.396 . S
C445 C448 1.453 . S
C445 C449 1.684 . S
C446 C427 1.723 1_554 S
C446 C445 1.396 . S
C446 C447 1.394 . S
C447 C443 1.397 . S
C447 C446 1.394 . S
C447 C457 1.723 . S
C448 C445 1.453 . S
C448 H472 0.982 . S
C448 H473 0.979 . S
C448 H474 0.977 1_554 S
C449 C445 1.684 . S
C449 H475 0.979 . S
C449 H476 0.980 1_554 S
C449 H477 0.983 . S
C450 H426 0.948 . S
C450 C451 1.391 . S
C450 C455 1.391 . S
C451 C450 1.391 . S
C451 C452 1.391 . S
C452 H429 0.947 1_554 S
C452 C451 1.391 . S
C452 C453 1.392 . S
C453 H430 0.948 1_554 S
C453 C452 1.392 . S
C453 C454 1.419 . S
C454 C453 1.419 . S
C454 C455 1.391 . S
C454 C458 1.397 . S
C455 C450 1.391 . S
C455 C454 1.391 . S
C455 C456 1.399 . S
C456 C455 1.399 . S
C456 C457 1.396 . S
C456 C459 1.453 . S
C456 C460 1.684 . S
C457 C447 1.723 . S
C457 C456 1.396 . S
C457 C458 1.394 . S
C458 C428 1.723 1_554 S
C458 C454 1.397 . S
C458 C457 1.394 . S
C459 H431 0.982 . S
C459 H435 0.979 . S
C459 H436 0.977 . S
C459 C456 1.453 . S
C460 H432 0.979 . S
C460 H433 0.980 . S
C460 H434 0.983 . S
C460 C456 1.684 . S
H461 C479 0.948 . S
H462 C420 0.948 . S
H463 C438 0.979 . S
H464 C438 0.980 . S
H465 C438 0.983 . S
H466 C437 0.982 . S
H467 C437 0.979 . S
H468 C437 0.977 . S
H469 C439 0.948 . S
H470 C441 0.947 . S
H471 C442 0.948 . S
H472 C448 0.982 . S
H473 C448 0.979 . S
H474 C448 0.977 1_556 S
H475 C449 0.979 . S
H476 C449 0.980 1_556 S
H477 C449 0.983 . S
H478 C422 0.947 . S
C479 C422 1.392 . S
C479 C423 1.419 . S
C479 H461 0.948 . S
Eu480 N509 2.600 . S
Eu480 N515 2.562 . S
Eu480 O524 2.463 . S
Eu480 O525 2.373 1_545 S
Eu480 O527 2.432 . S
Eu480 O528 2.291 1_655 S
Eu480 O532 2.335 1_655 S
Eu480 O535 2.372 . S
Eu480 C544 2.787 . S
C481 N482 1.346 1_545 S
C481 C484 1.405 . S
C481 C488 1.448 . S
N482 C481 1.346 1_565 S
N482 C485 1.325 . S
N482 Eu491 2.610 . S
C483 C485 1.397 1_545 S
C483 C486 1.367 . S
C483 H503 0.931 . S
C484 C481 1.405 . S
C484 C486 1.403 . S
C484 C490 1.439 . S
C485 N482 1.325 . S
C485 C483 1.397 1_565 S
C485 H496 0.930 . S
C486 C483 1.367 . S
C486 C484 1.403 . S
C486 H507 0.929 . S
C487 C488 1.430 . S
C487 C489 1.387 . S
C487 C493 1.404 . S
C488 C481 1.448 . S
C488 C487 1.430 . S
C488 N492 1.351 . S
C489 C487 1.387 . S
C489 C490 1.374 . S
C489 H504 0.931 . S
C490 C484 1.439 . S
C490 C489 1.374 . S
C490 H505 0.931 . S
Eu491 N482 2.610 . S
Eu491 N492 2.562 1_565 S
Eu491 O526 2.335 . S
Eu491 O529 2.372 . S
Eu491 O530 2.462 . S
Eu491 O531 2.373 1_565 S
Eu491 O533 2.432 . S
Eu491 O534 2.291 1_465 S
Eu491 C555 2.787 . S
N492 C488 1.351 . S
N492 Eu491 2.562 1_545 S
N492 C494 1.325 . S
C493 C487 1.404 . S
C493 C495 1.366 . S
C493 H501 0.930 . S
C494 N492 1.325 . S
C494 C495 1.416 . S
C494 H500 0.929 1_455 S
C495 C493 1.366 . S
C495 C494 1.416 . S
C495 H497 0.934 1_455 S
H496 C485 0.930 . S
H497 C495 0.934 1_655 S
H498 C513 0.930 . S
H499 C520 0.930 1_455 S
H500 C494 0.929 1_655 S
H501 C493 0.930 . S
H502 C516 0.888 1_455 S
H503 C483 0.931 . S
H504 C489 0.931 . S
H505 C490 0.931 . S
H506 C511 0.931 . S
H507 C486 0.929 . S
H508 C519 0.930 . S
N509 Eu480 2.600 . S
N509 C510 1.365 . S
N509 C513 1.319 . S
C510 N509 1.365 . S
C510 C512 1.390 1_545 S
C510 C518 1.448 . S
C511 H506 0.931 . S
C511 C513 1.397 . S
C511 C514 1.367 . S
C512 C510 1.390 1_565 S
C512 C514 1.398 1_565 S
C512 C545 1.460 . S
C513 H498 0.930 . S
C513 N509 1.319 . S
C513 C511 1.397 . S
C514 C511 1.367 . S
C514 C512 1.398 1_545 S
C514 H521 0.929 1_545 S
N515 Eu480 2.562 . S
N515 C516 1.362 . S
N515 C518 1.351 . S
C516 H502 0.888 1_655 S
C516 N515 1.362 . S
C516 C520 1.415 1_545 S
C517 C518 1.430 1_565 S
C517 C519 1.404 . S
C517 C546 1.387 . S
C518 C510 1.448 . S
C518 N515 1.351 . S
C518 C517 1.430 1_545 S
C519 H508 0.930 . S
C519 C517 1.404 . S
C519 C520 1.368 . S
C520 H499 0.930 1_655 S
C520 C516 1.415 1_565 S
C520 C519 1.368 . S
H521 C514 0.929 1_565 S
H522 C545 0.931 . S
H523 C546 0.931 . S
O524 Eu480 2.463 . S
O524 C544 1.255 . S
O525 Eu480 2.373 1_565 S
O525 C536 1.249 . S
O526 Eu491 2.335 . S
O526 C536 1.264 1_455 S
O527 Eu480 2.432 . S
O527 C544 1.268 . S
O528 Eu480 2.291 1_455 S
O528 C543 1.255 . S
O529 Eu491 2.372 . S
O529 C543 1.257 1_565 S
O530 Eu491 2.462 . S
O530 C555 1.252 . S
O531 Eu491 2.373 1_545 S
O531 C547 1.249 . S
O532 Eu480 2.335 1_455 S
O532 C547 1.264 . S
O533 Eu491 2.432 . S
O533 C555 1.268 . S
O534 Eu491 2.291 1_645 S
O534 C554 1.255 . S
O535 Eu480 2.372 . S
O535 C554 1.257 . S
C536 O525 1.249 . S
C536 O526 1.264 1_655 S
C537 C540 1.382 . S
C537 C542 1.390 . S
C537 C544 1.506 . S
C538 C539 1.398 . S
C538 C542 1.392 . S
C539 C538 1.398 . S
C539 C541 1.372 . S
C539 H556 0.931 . S
C540 C537 1.382 . S
C540 C541 1.390 . S
C540 H557 0.931 . S
C541 C539 1.372 . S
C541 C540 1.390 . S
C541 H558 0.929 . S
C542 C537 1.390 . S
C542 C538 1.392 . S
C542 H559 0.930 1_655 S
C543 O528 1.255 . S
C543 O529 1.257 1_545 S
C544 Eu480 2.787 . S
C544 O524 1.255 . S
C544 O527 1.268 . S
C544 C537 1.506 . S
C545 C512 1.460 . S
C545 H522 0.931 . S
C545 C546 1.374 . S
C546 C517 1.387 . S
C546 H523 0.931 . S
C546 C545 1.374 . S
C547 O531 1.249 . S
C547 O532 1.264 . S
C548 C551 1.382 . S
C548 C552 1.390 . S
C548 C555 1.506 . S
C549 C550 1.398 . S
C549 C552 1.392 . S
C550 C549 1.398 . S
C550 C553 1.372 . S
C550 H560 0.931 . S
C551 C548 1.382 . S
C551 C553 1.390 . S
C551 H561 0.931 . S
C552 C548 1.390 . S
C552 C549 1.392 . S
C552 H562 0.904 1_455 S
C553 C550 1.372 . S
C553 C551 1.390 . S
C553 H563 0.929 . S
C554 O534 1.255 . S
C554 O535 1.257 . S
C555 Eu491 2.787 . S
C555 O530 1.252 . S
C555 O533 1.268 . S
C555 C548 1.506 . S
H556 C539 0.931 . S
H557 C540 0.931 . S
H558 C541 0.929 . S
H559 C542 0.930 1_455 S
H560 C550 0.931 . S
H561 C551 0.931 . S
H562 C552 0.904 1_655 S
H563 C553 0.929 . S
Eu564 N593 2.600 . S
Eu564 N599 2.562 . S
Eu564 O608 2.462 . S
Eu564 O609 2.373 . S
Eu564 O611 2.432 . S
Eu564 O612 2.291 . S
Eu564 O616 2.335 1_545 S
Eu564 O619 2.372 . S
Eu564 C628 2.787 . S
C565 N566 1.365 . S
C565 C568 1.405 . S
C565 C572 1.448 . S
N566 C565 1.365 . S
N566 C569 1.319 . S
N566 Eu575 2.600 . S
C567 C569 1.397 . S
C567 C570 1.367 . S
C567 H587 0.931 . S
C568 C565 1.405 . S
C568 C570 1.403 . S
C568 C574 1.439 . S
C569 N566 1.319 . S
C569 C567 1.397 . S
C569 H580 0.930 . S
C570 C567 1.367 . S
C570 C568 1.403 . S
C570 H591 0.929 . S
C571 C572 1.430 . S
C571 C573 1.387 . S
C571 C577 1.404 . S
C572 C565 1.448 . S
C572 C571 1.430 . S
C572 N576 1.351 . S
C573 C571 1.387 . S
C573 C574 1.374 . S
C573 H588 0.931 . S
C574 C568 1.439 . S
C574 C573 1.374 . S
C574 H589 0.931 . S
Eu575 N566 2.600 . S
Eu575 N576 2.562 . S
Eu575 O610 2.335 1_565 S
Eu575 O613 2.372 . S
Eu575 O614 2.462 . S
Eu575 O615 2.373 . S
Eu575 O617 2.432 . S
Eu575 O618 2.291 1_565 S
Eu575 C639 2.787 . S
N576 C572 1.351 . S
N576 Eu575 2.562 . S
N576 C578 1.325 . S
C577 C571 1.404 . S
C577 C579 1.366 . S
C577 H585 0.930 . S
C578 N576 1.325 . S
C578 C579 1.416 . S
C578 H584 0.929 . S
C579 C577 1.366 . S
C579 C578 1.416 . S
C579 H581 0.930 . S
H580 C569 0.930 . S
H581 C579 0.930 . S
H582 C597 0.930 . S
H583 C604 0.930 . S
H584 C578 0.929 . S
H585 C577 0.930 . S
H586 C600 0.929 . S
H587 C567 0.931 . S
H588 C573 0.931 . S
H589 C574 0.931 . S
H590 C595 0.931 . S
H591 C570 0.929 . S
H592 C603 0.930 . S
N593 Eu564 2.600 . S
N593 C594 1.365 . S
N593 C597 1.319 . S
C594 N593 1.365 . S
C594 C596 1.405 . S
C594 C602 1.448 . S
C595 H590 0.931 . S
C595 C597 1.397 . S
C595 C598 1.367 . S
C596 C594 1.405 . S
C596 C598 1.403 . S
C596 C629 1.439 . S
C597 H582 0.930 . S
C597 N593 1.319 . S
C597 C595 1.397 . S
C598 C595 1.367 . S
C598 C596 1.403 . S
C598 H605 0.929 . S
N599 Eu564 2.562 . S
N599 C600 1.325 . S
N599 C602 1.351 . S
C600 H586 0.929 . S
C600 N599 1.325 . S
C600 C604 1.416 . S
C601 C602 1.430 . S
C601 C603 1.404 . S
C601 C630 1.387 . S
C602 C594 1.448 . S
C602 N599 1.351 . S
C602 C601 1.430 . S
C603 H592 0.930 . S
C603 C601 1.404 . S
C603 C604 1.366 . S
C604 H583 0.930 . S
C604 C600 1.416 . S
C604 C603 1.366 . S
H605 C598 0.929 . S
H606 C629 0.931 . S
H607 C630 0.931 . S
O608 Eu564 2.462 . S
O608 C628 1.252 . S
O609 Eu564 2.373 . S
O609 C620 1.249 . S
O610 Eu575 2.335 1_545 S
O610 C620 1.264 . S
O611 Eu564 2.432 . S
O611 C628 1.268 . S
O612 Eu564 2.291 . S
O612 C627 1.255 1_545 S
O613 Eu575 2.372 . S
O613 C627 1.257 . S
O614 Eu575 2.462 . S
O614 C639 1.252 . S
O615 Eu575 2.373 . S
O615 C631 1.249 . S
O616 Eu564 2.335 1_565 S
O616 C631 1.264 . S
O617 Eu575 2.432 . S
O617 C639 1.268 . S
O618 Eu575 2.291 1_545 S
O618 C638 1.255 . S
O619 Eu564 2.372 . S
O619 C638 1.257 . S
C620 O609 1.249 . S
C620 O610 1.264 . S
C621 C624 1.382 . S
C621 C626 1.390 . S
C621 C628 1.506 . S
C622 C623 1.398 . S
C622 C626 1.392 . S
C623 C622 1.398 . S
C623 C625 1.372 . S
C623 H640 0.931 . S
C624 C621 1.382 . S
C624 C625 1.390 . S
C624 H641 0.931 . S
C625 C623 1.372 . S
C625 C624 1.390 . S
C625 H642 0.929 . S
C626 C621 1.390 . S
C626 C622 1.392 . S
C626 H643 0.930 . S
C627 O612 1.255 1_565 S
C627 O613 1.257 . S
C628 Eu564 2.787 . S
C628 O608 1.252 . S
C628 O611 1.268 . S
C628 C621 1.506 . S
C629 C596 1.439 . S
C629 H606 0.931 . S
C629 C630 1.374 . S
C630 C601 1.387 . S
C630 H607 0.931 . S
C630 C629 1.374 . S
C631 O615 1.249 . S
C631 O616 1.264 . S
C632 C635 1.382 . S
C632 C636 1.390 1_565 S
C632 C639 1.506 . S
C633 C634 1.398 1_545 S
C633 C636 1.392 . S
C634 C633 1.398 1_565 S
C634 C637 1.372 . S
C634 H644 0.931 . S
C635 C632 1.382 . S
C635 C637 1.390 . S
C635 H645 0.931 . S
C636 C632 1.390 1_545 S
C636 C633 1.392 . S
C636 H646 0.930 . S
C637 C634 1.372 . S
C637 C635 1.390 . S
C637 H647 0.929 . S
C638 O618 1.255 . S
C638 O619 1.257 . S
C639 Eu575 2.787 . S
C639 O614 1.252 . S
C639 O617 1.268 . S
C639 C632 1.506 . S
H640 C623 0.931 . S
H641 C624 0.931 . S
H642 C625 0.929 . S
H643 C626 0.930 . S
H644 C634 0.931 . S
H645 C635 0.931 . S
H646 C636 0.930 . S
H647 C637 0.929 . S
Eu648 N677 2.600 . S
Eu648 N683 2.562 . S
Eu648 O692 2.462 . S
Eu648 O693 2.373 . S
Eu648 O695 2.432 . S
Eu648 O696 2.291 . S
Eu648 O700 2.335 . S
Eu648 O703 2.372 . S
Eu648 C712 2.787 . S
C649 N650 1.365 . S
C649 C652 1.405 . S
C649 C656 1.448 . S
N650 C649 1.365 . S
N650 C653 1.319 . S
N650 Eu659 2.600 . S
C651 C653 1.397 . S
C651 C654 1.367 . S
C651 H671 0.931 . S
C652 C649 1.405 . S
C652 C654 1.403 . S
C652 C658 1.439 . S
C653 N650 1.319 . S
C653 C651 1.397 . S
C653 H664 0.930 . S
C654 C651 1.367 . S
C654 C652 1.403 . S
C654 H675 0.929 . S
C655 C656 1.430 . S
C655 C657 1.387 . S
C655 C661 1.404 . S
C656 C649 1.448 . S
C656 C655 1.430 . S
C656 N660 1.351 . S
C657 C655 1.387 . S
C657 C658 1.374 . S
C657 H672 0.931 . S
C658 C652 1.439 . S
C658 C657 1.374 . S
C658 H673 0.931 . S
Eu659 N650 2.600 . S
Eu659 N660 2.562 . S
Eu659 O694 2.335 . S
Eu659 O697 2.372 . S
Eu659 O698 2.462 . S
Eu659 O699 2.373 . S
Eu659 O701 2.432 . S
Eu659 O702 2.291 . S
Eu659 C723 2.787 . S
N660 C656 1.351 . S
N660 Eu659 2.562 . S
N660 C662 1.325 . S
C661 C655 1.404 . S
C661 C663 1.366 . S
C661 H669 0.930 . S
C662 N660 1.325 . S
C662 C663 1.416 . S
C662 H668 0.929 . S
C663 C661 1.366 . S
C663 C662 1.416 . S
C663 H665 0.930 . S
H664 C653 0.930 . S
H665 C663 0.930 . S
H666 C681 0.930 . S
H667 C688 0.930 . S
H668 C662 0.929 . S
H669 C661 0.930 . S
H670 C684 0.929 . S
H671 C651 0.931 . S
H672 C657 0.931 . S
H673 C658 0.931 . S
H674 C679 0.931 . S
H675 C654 0.929 . S
H676 C687 0.930 . S
N677 Eu648 2.600 . S
N677 C678 1.365 . S
N677 C681 1.319 . S
C678 N677 1.365 . S
C678 C680 1.405 . S
C678 C686 1.448 . S
C679 H674 0.931 . S
C679 C681 1.397 . S
C679 C682 1.367 . S
C680 C678 1.405 . S
C680 C682 1.403 . S
C680 C713 1.439 . S
C681 H666 0.930 . S
C681 N677 1.319 . S
C681 C679 1.397 . S
C682 C679 1.367 . S
C682 C680 1.403 . S
C682 H689 0.929 . S
N683 Eu648 2.562 . S
N683 C684 1.325 . S
N683 C686 1.351 . S
C684 H670 0.929 . S
C684 N683 1.325 . S
C684 C688 1.416 . S
C685 C686 1.430 . S
C685 C687 1.404 . S
C685 C714 1.387 . S
C686 C678 1.448 . S
C686 N683 1.351 . S
C686 C685 1.430 . S
C687 H676 0.930 . S
C687 C685 1.404 . S
C687 C688 1.366 . S
C688 H667 0.930 . S
C688 C684 1.416 . S
C688 C687 1.366 . S
H689 C682 0.929 . S
H690 C713 0.931 . S
H691 C714 0.931 . S
O692 Eu648 2.462 . S
O692 C712 1.252 . S
O693 Eu648 2.373 . S
O693 C704 1.249 . S
O694 Eu659 2.335 . S
O694 C704 1.264 . S
O695 Eu648 2.432 . S
O695 C712 1.268 . S
O696 Eu648 2.291 . S
O696 C711 1.255 . S
O697 Eu659 2.372 . S
O697 C711 1.257 . S
O698 Eu659 2.462 . S
O698 C723 1.252 . S
O699 Eu659 2.373 . S
O699 C715 1.249 . S
O700 Eu648 2.335 . S
O700 C715 1.264 . S
O701 Eu659 2.432 . S
O701 C723 1.268 . S
O702 Eu659 2.291 . S
O702 C722 1.255 . S
O703 Eu648 2.372 . S
O703 C722 1.257 . S
C704 O693 1.249 . S
C704 O694 1.264 . S
C705 C708 1.382 . S
C705 C710 1.390 . S
C705 C712 1.506 . S
C706 C707 1.398 . S
C706 C710 1.392 . S
C707 C706 1.398 . S
C707 C709 1.372 . S
C707 H724 0.931 . S
C708 C705 1.382 . S
C708 C709 1.390 . S
C708 H725 0.931 . S
C709 C707 1.372 . S
C709 C708 1.390 . S
C709 H726 0.929 . S
C710 C705 1.390 . S
C710 C706 1.392 . S
C710 H727 0.930 . S
C711 O696 1.255 . S
C711 O697 1.257 . S
C712 Eu648 2.787 . S
C712 O692 1.252 . S
C712 O695 1.268 . S
C712 C705 1.506 . S
C713 C680 1.439 . S
C713 H690 0.931 . S
C713 C714 1.374 . S
C714 C685 1.387 . S
C714 H691 0.931 . S
C714 C713 1.374 . S
C715 O699 1.249 . S
C715 O700 1.264 . S
C716 C719 1.382 . S
C716 C720 1.390 . S
C716 C723 1.506 . S
C717 C718 1.398 . S
C717 C720 1.392 . S
C718 C717 1.398 . S
C718 C721 1.372 . S
C718 H728 0.931 . S
C719 C716 1.382 . S
C719 C721 1.390 . S
C719 H729 0.931 . S
C720 C716 1.390 . S
C720 C717 1.392 . S
C720 H730 0.930 . S
C721 C718 1.372 . S
C721 C719 1.390 . S
C721 H731 0.929 . S
C722 O702 1.255 . S
C722 O703 1.257 . S
C723 Eu659 2.787 . S
C723 O698 1.252 . S
C723 O701 1.268 . S
C723 C716 1.506 . S
H724 C707 0.931 . S
H725 C708 0.931 . S
H726 C709 0.929 . S
H727 C710 0.930 . S
H728 C718 0.931 . S
H729 C719 0.931 . S
H730 C720 0.930 . S
H731 C721 0.929 . S
Eu732 N761 2.600 . S
Eu732 N767 2.562 . S
Eu732 O776 2.462 . S
Eu732 O777 2.373 1_455 S
Eu732 O779 2.432 . S
Eu732 O780 2.291 . S
Eu732 O784 2.335 . S
Eu732 O787 2.372 . S
Eu732 C796 2.787 . S
C733 N734 1.365 1_455 S
C733 C736 1.405 . S
C733 C740 1.448 . S
N734 C733 1.365 1_655 S
N734 C737 1.319 . S
N734 Eu743 2.600 . S
C735 C737 1.382 1_455 S
C735 C738 1.389 . S
C735 H755 0.926 1_455 S
C736 C733 1.405 . S
C736 C738 1.403 . S
C736 C742 1.439 . S
C737 N734 1.319 . S
C737 C735 1.382 1_655 S
C737 H748 0.930 . S
C738 C735 1.389 . S
C738 C736 1.403 . S
C738 H759 0.929 . S
C739 C740 1.430 . S
C739 C741 1.387 . S
C739 C745 1.404 . S
C740 C733 1.448 . S
C740 C739 1.430 . S
C740 N744 1.361 . S
C741 C739 1.387 . S
C741 C742 1.374 . S
C741 H756 0.931 . S
C742 C736 1.439 . S
C742 C741 1.374 . S
C742 H757 0.931 . S
Eu743 N734 2.600 . S
Eu743 N744 2.554 1_655 S
Eu743 O778 2.335 . S
Eu743 O781 2.372 . S
Eu743 O782 2.462 . S
Eu743 O783 2.373 1_655 S
Eu743 O785 2.432 . S
Eu743 O786 2.297 . S
Eu743 C807 2.787 . S
N744 C740 1.361 . S
N744 Eu743 2.554 1_455 S
N744 C746 1.328 . S
C745 C739 1.404 . S
C745 C747 1.366 . S
C745 H753 0.930 . S
C746 N744 1.328 . S
C746 C747 1.416 . S
C746 H752 0.929 1_455 S
C747 C745 1.366 . S
C747 C746 1.416 . S
C747 H749 0.930 . S
H748 C737 0.930 . S
H749 C747 0.930 . S
H750 C765 0.930 . S
H751 C772 0.930 . S
H752 C746 0.929 1_655 S
H753 C745 0.930 . S
H754 C768 0.929 . S
H755 C735 0.926 1_655 S
H756 C741 0.931 . S
H757 C742 0.931 . S
H758 C763 0.931 . S
H759 C738 0.929 . S
H760 C771 0.930 . S
N761 Eu732 2.600 . S
N761 C762 1.365 . S
N761 C765 1.319 . S
C762 N761 1.365 . S
C762 C764 1.405 1_455 S
C762 C770 1.448 . S
C763 H758 0.931 . S
C763 C765 1.397 . S
C763 C766 1.389 . S
C764 C762 1.405 1_655 S
C764 C766 1.398 1_655 S
C764 C797 1.439 . S
C765 H750 0.930 . S
C765 N761 1.319 . S
C765 C763 1.397 . S
C766 C763 1.389 . S
C766 C764 1.398 1_455 S
C766 H773 0.916 1_455 S
N767 Eu732 2.562 . S
N767 C768 1.325 . S
N767 C770 1.351 . S
C768 H754 0.929 . S
C768 N767 1.325 . S
C768 C772 1.416 1_455 S
C769 C770 1.430 1_655 S
C769 C771 1.404 . S
C769 C798 1.387 . S
C770 C762 1.448 . S
C770 N767 1.351 . S
C770 C769 1.430 1_455 S
C771 H760 0.930 . S
C771 C769 1.404 . S
C771 C772 1.366 . S
C772 H751 0.930 . S
C772 C768 1.416 1_655 S
C772 C771 1.366 . S
H773 C766 0.916 1_655 S
H774 C797 0.931 . S
H775 C798 0.931 . S
O776 Eu732 2.462 . S
O776 C796 1.252 . S
O777 Eu732 2.373 1_655 S
O777 C788 1.249 . S
O778 Eu743 2.335 . S
O778 C788 1.264 . S
O779 Eu732 2.432 . S
O779 C796 1.268 . S
O780 Eu732 2.291 . S
O780 C795 1.255 . S
O781 Eu743 2.372 . S
O781 C795 1.257 1_655 S
O782 Eu743 2.462 . S
O782 C807 1.252 . S
O783 Eu743 2.373 1_455 S
O783 C799 1.249 . S
O784 Eu732 2.335 . S
O784 C799 1.264 . S
O785 Eu743 2.432 . S
O785 C807 1.268 . S
O786 Eu743 2.297 . S
O786 C806 1.251 1_655 S
O787 Eu732 2.372 . S
O787 C806 1.257 . S
C788 O777 1.249 . S
C788 O778 1.264 . S
C789 C792 1.382 . S
C789 C794 1.390 . S
C789 C796 1.506 . S
C790 C791 1.398 . S
C790 C794 1.392 . S
C791 C790 1.398 . S
C791 C793 1.372 . S
C791 H808 0.931 . S
C792 C789 1.382 . S
C792 C793 1.390 . S
C792 H809 0.931 . S
C793 C791 1.372 . S
C793 C792 1.390 . S
C793 H810 0.929 . S
C794 C789 1.390 . S
C794 C790 1.392 . S
C794 H811 0.930 . S
C795 O780 1.255 . S
C795 O781 1.257 1_455 S
C796 Eu732 2.787 . S
C796 O776 1.252 . S
C796 O779 1.268 . S
C796 C789 1.506 . S
C797 C764 1.439 . S
C797 H774 0.931 . S
C797 C798 1.374 . S
C798 C769 1.387 . S
C798 H775 0.931 . S
C798 C797 1.374 . S
C799 O783 1.249 . S
C799 O784 1.264 . S
C800 C803 1.382 . S
C800 C804 1.390 . S
C800 C807 1.506 . S
C801 C802 1.398 . S
C801 C804 1.392 . S
C802 C801 1.398 . S
C802 C805 1.372 . S
C802 H812 0.931 . S
C803 C800 1.382 . S
C803 C805 1.390 . S
C803 H813 0.931 . S
C804 C800 1.390 . S
C804 C801 1.392 . S
C804 H814 0.930 . S
C805 C802 1.372 . S
C805 C803 1.390 . S
C805 H815 0.929 . S
C806 O786 1.251 1_455 S
C806 O787 1.257 . S
C807 Eu743 2.787 . S
C807 O782 1.252 . S
C807 O785 1.268 . S
C807 C800 1.506 . S
H808 C791 0.931 . S
H809 C792 0.931 . S
H810 C793 0.929 . S
H811 C794 0.930 . S
H812 C802 0.931 . S
H813 C803 0.931 . S
H814 C804 0.930 . S
H815 C805 0.929 . S
H816 C824 0.929 . S
H817 C826 0.930 . S
H818 C828 0.930 . S
H819 C831 0.929 . S
H820 C834 0.930 . S
H821 C836 0.960 . S
H822 C836 0.960 . S
H823 C836 0.960 . S
C824 H816 0.929 . S
C824 C825 1.377 . S
C824 C826 1.384 . S
C825 C824 1.377 . S
C825 C831 1.390 . S
C826 H817 0.930 . S
C826 C824 1.384 . S
C826 C827 1.372 . S
C827 C826 1.372 . S
C827 C828 1.400 . S
C827 C832 1.490 . S
C828 H818 0.930 . S
C828 C827 1.400 . S
C828 C831 1.386 . S
H829 C845 0.930 1_565 S
H830 C846 0.931 1_565 S
C831 H819 0.929 . S
C831 C825 1.390 . S
C831 C828 1.386 . S
C832 C827 1.490 . S
C832 C834 1.395 . S
C832 C835 1.403 . S
H833 C839 0.930 . S
C834 H820 0.930 . S
C834 C832 1.395 . S
C834 C837 1.403 . S
C835 C832 1.403 . S
C835 C836 1.524 . S
C835 C839 1.400 . S
C836 H821 0.960 . S
C836 H822 0.960 . S
C836 H823 0.960 . S
C836 C835 1.524 . S
C837 C834 1.403 . S
C837 C838 1.392 . S
C837 C841 1.495 . S
C838 C837 1.392 . S
C838 C839 1.385 . S
C838 C840 1.478 . S
C839 H833 0.930 . S
C839 C835 1.400 . S
C839 C838 1.385 . S
C840 C838 1.478 . S
C840 C842 1.381 . S
C840 C846 1.383 . S
C841 C837 1.495 . S
C841 H847 0.959 . S
C841 H848 0.961 . S
C841 H849 0.960 . S
C842 C840 1.381 . S
C842 C843 1.394 . S
C842 H850 0.930 . S
C843 C842 1.394 . S
C843 C844 1.383 . S
C843 H851 0.929 . S
C844 C843 1.383 . S
C844 C845 1.377 . S
C845 H829 0.930 1_545 S
C845 C844 1.377 . S
C845 C846 1.379 . S
C846 H830 0.931 1_545 S
C846 C840 1.383 . S
C846 C845 1.379 . S
H847 C841 0.959 . S
H848 C841 0.961 . S
H849 C841 0.960 . S
H850 C842 0.930 . S
H851 C843 0.929 . S
H852 C860 0.929 . S
H853 C862 0.930 . S
H854 C864 0.930 . S
H855 C867 0.929 . S
H856 C870 0.930 . S
H857 C872 0.960 . S
H858 C872 0.960 . S
H859 C872 0.960 . S
C860 H852 0.929 . S
C860 C861 1.377 . S
C860 C862 1.384 . S
C861 C860 1.377 . S
C861 C867 1.390 . S
C862 H853 0.930 . S
C862 C860 1.384 . S
C862 C863 1.372 . S
C863 C862 1.372 . S
C863 C864 1.400 . S
C863 C868 1.490 . S
C864 H854 0.930 . S
C864 C863 1.400 . S
C864 C867 1.386 . S
H865 C881 0.930 . S
H866 C882 0.931 . S
C867 H855 0.929 . S
C867 C861 1.390 . S
C867 C864 1.386 . S
C868 C863 1.490 . S
C868 C870 1.395 . S
C868 C871 1.403 . S
H869 C875 0.930 . S
C870 H856 0.930 . S
C870 C868 1.395 . S
C870 C873 1.403 . S
C871 C868 1.403 . S
C871 C872 1.524 . S
C871 C875 1.400 . S
C872 H857 0.960 . S
C872 H858 0.960 . S
C872 H859 0.960 . S
C872 C871 1.524 . S
C873 C870 1.403 . S
C873 C874 1.392 . S
C873 C877 1.495 . S
C874 C873 1.392 . S
C874 C875 1.385 . S
C874 C876 1.478 . S
C875 H869 0.930 . S
C875 C871 1.400 . S
C875 C874 1.385 . S
C876 C874 1.478 . S
C876 C878 1.381 . S
C876 C882 1.383 . S
C877 C873 1.495 . S
C877 H883 0.959 . S
C877 H884 0.961 . S
C877 H885 0.960 . S
C878 C876 1.381 . S
C878 C879 1.394 . S
C878 H886 0.930 . S
C879 C878 1.394 . S
C879 C880 1.383 . S
C879 H887 0.929 . S
C880 C879 1.383 . S
C880 C881 1.377 . S
C881 H865 0.930 . S
C881 C880 1.377 . S
C881 C882 1.379 . S
C882 H866 0.931 . S
C882 C876 1.383 . S
C882 C881 1.379 . S
H883 C877 0.959 . S
H884 C877 0.961 . S
H885 C877 0.960 . S
H886 C878 0.930 . S
H887 C879 0.929 . S
H888 C896 0.929 . S
H889 C898 0.930 . S
H890 C900 0.930 . S
H891 C903 0.929 . S
H892 C906 0.930 . S
H893 C908 0.960 . S
H894 C908 0.960 . S
H895 C908 0.960 . S
C896 H888 0.929 . S
C896 C897 1.377 . S
C896 C898 1.384 . S
C897 C896 1.377 . S
C897 C903 1.390 . S
C898 H889 0.930 . S
C898 C896 1.384 . S
C898 C899 1.372 . S
C899 C898 1.372 . S
C899 C900 1.400 . S
C899 C904 1.490 . S
C900 H890 0.930 . S
C900 C899 1.400 . S
C900 C903 1.386 . S
H901 C917 0.930 . S
H902 C918 0.931 . S
C903 H891 0.929 . S
C903 C897 1.390 . S
C903 C900 1.386 . S
C904 C899 1.490 . S
C904 C906 1.395 . S
C904 C907 1.403 . S
H905 C911 0.930 . S
C906 H892 0.930 . S
C906 C904 1.395 . S
C906 C909 1.403 . S
C907 C904 1.403 . S
C907 C908 1.524 . S
C907 C911 1.400 . S
C908 H893 0.960 . S
C908 H894 0.960 . S
C908 H895 0.960 . S
C908 C907 1.524 . S
C909 C906 1.403 . S
C909 C910 1.392 . S
C909 C913 1.495 . S
C910 C909 1.392 . S
C910 C911 1.385 . S
C910 C912 1.478 . S
C911 H905 0.930 . S
C911 C907 1.400 . S
C911 C910 1.385 . S
C912 C910 1.478 . S
C912 C914 1.381 . S
C912 C918 1.383 . S
C913 C909 1.495 . S
C913 H919 0.959 . S
C913 H920 0.961 . S
C913 H921 0.960 . S
C914 C912 1.381 . S
C914 C915 1.394 . S
C914 H922 0.930 . S
C915 C914 1.394 . S
C915 C916 1.383 . S
C915 H923 0.929 . S
C916 C915 1.383 . S
C916 C917 1.377 . S
C917 H901 0.930 . S
C917 C916 1.377 . S
C917 C918 1.379 . S
C918 H902 0.931 . S
C918 C912 1.383 . S
C918 C917 1.379 . S
H919 C913 0.959 . S
H920 C913 0.961 . S
H921 C913 0.960 . S
H922 C914 0.930 . S
H923 C915 0.929 . S
H924 C932 0.929 . S
H925 C934 0.930 . S
H926 C936 0.930 . S
H927 C939 0.929 . S
H928 C942 0.930 . S
H929 C944 0.960 . S
H930 C944 0.960 . S
H931 C944 0.960 . S
C932 H924 0.929 . S
C932 C933 1.377 . S
C932 C934 1.384 . S
C933 C932 1.377 . S
C933 C939 1.390 . S
C934 H925 0.930 . S
C934 C932 1.384 . S
C934 C935 1.372 . S
C935 C934 1.372 . S
C935 C936 1.400 . S
C935 C940 1.490 . S
C936 H926 0.930 . S
C936 C935 1.400 . S
C936 C939 1.386 . S
H937 C953 0.930 . S
H938 C954 0.931 . S
C939 H927 0.929 . S
C939 C933 1.390 . S
C939 C936 1.386 . S
C940 C935 1.490 . S
C940 C942 1.395 . S
C940 C943 1.403 . S
H941 C947 0.930 . S
C942 H928 0.930 . S
C942 C940 1.395 . S
C942 C945 1.403 . S
C943 C940 1.403 . S
C943 C944 1.524 . S
C943 C947 1.400 . S
C944 H929 0.960 . S
C944 H930 0.960 . S
C944 H931 0.960 . S
C944 C943 1.524 . S
C945 C942 1.403 . S
C945 C946 1.392 . S
C945 C949 1.495 . S
C946 C945 1.392 . S
C946 C947 1.385 . S
C946 C948 1.478 . S
C947 H941 0.930 . S
C947 C943 1.400 . S
C947 C946 1.385 . S
C948 C946 1.478 . S
C948 C950 1.381 . S
C948 C954 1.383 . S
C949 C945 1.495 . S
C949 H955 0.959 . S
C949 H956 0.961 . S
C949 H957 0.960 . S
C950 C948 1.381 . S
C950 C951 1.394 . S
C950 H958 0.930 . S
C951 C950 1.394 . S
C951 C952 1.383 . S
C951 H959 0.951 . S
C952 C951 1.383 . S
C952 C953 1.377 . S
C953 H937 0.930 . S
C953 C952 1.377 . S
C953 C954 1.379 . S
C954 H938 0.931 . S
C954 C948 1.383 . S
C954 C953 1.379 . S
H955 C949 0.959 . S
H956 C949 0.961 . S
H957 C949 0.960 . S
H958 C950 0.930 . S
H959 C951 0.951 . S
H960 C968 0.929 . S
H961 C970 0.930 . S
H962 C972 0.930 . S
H963 C975 0.929 . S
H964 C978 0.930 . S
H965 C980 0.960 . S
H966 C980 0.960 . S
H967 C980 0.973 . S
C968 H960 0.929 . S
C968 C969 1.377 . S
C968 C970 1.384 1_554 S
C969 C968 1.377 . S
C969 C975 1.390 . S
C970 H961 0.930 . S
C970 C968 1.384 1_556 S
C970 C971 1.372 . S
C971 C970 1.372 . S
C971 C972 1.400 1_556 S
C971 C976 1.490 . S
C972 H962 0.930 . S
C972 C971 1.400 1_554 S
C972 C975 1.386 . S
H973 C989 0.930 . S
H974 C990 0.931 . S
C975 H963 0.929 . S
C975 C969 1.390 . S
C975 C972 1.386 . S
C976 C971 1.490 . S
C976 C978 1.395 . S
C976 C979 1.403 . S
H977 C983 0.930 . S
C978 H964 0.930 . S
C978 C976 1.395 . S
C978 C981 1.403 . S
C979 C976 1.403 . S
C979 C980 1.524 . S
C979 C983 1.400 . S
C980 H965 0.960 . S
C980 H966 0.960 . S
C980 H967 0.973 . S
C980 C979 1.524 . S
C981 C978 1.403 . S
C981 C982 1.392 . S
C981 C985 1.495 1_565 S
C982 C981 1.392 . S
C982 C983 1.385 . S
C982 C984 1.478 . S
C983 H977 0.930 . S
C983 C979 1.400 . S
C983 C982 1.385 . S
C984 C982 1.478 . S
C984 C986 1.381 . S
C984 C990 1.383 1_565 S
C985 C981 1.495 1_545 S
C985 H991 0.959 . S
C985 H992 0.961 . S
C985 H993 0.960 . S
C986 C984 1.381 . S
C986 C987 1.394 . S
C986 H994 0.930 . S
C987 C986 1.394 . S
C987 C988 1.383 . S
C987 H995 0.929 . S
C988 C987 1.383 . S
C988 C989 1.377 1_565 S
C989 H973 0.930 . S
C989 C988 1.377 1_545 S
C989 C990 1.379 . S
C990 H974 0.931 . S
C990 C984 1.383 1_545 S
C990 C989 1.379 . S
H991 C985 0.959 . S
H992 C985 0.961 . S
H993 C985 0.960 . S
H994 C986 0.930 . S
H995 C987 0.929 . S
H996 C1004 0.929 . S
H997 C1006 0.930 . S
H998 C1008 0.923 1_556 S
H999 C1011 0.929 . S
H1000 C1014 0.930 . S
H1001 C1016 0.960 . S
H1002 C1016 0.960 . S
H1003 C1016 0.960 . S
C1004 H996 0.929 . S
C1004 C1005 1.377 . S
C1004 C1006 1.384 . S
C1005 C1004 1.377 . S
C1005 C1011 1.390 . S
C1006 H997 0.930 . S
C1006 C1004 1.384 . S
C1006 C1007 1.372 1_554 S
C1007 C1006 1.372 1_556 S
C1007 C1008 1.399 1_556 S
C1007 C1012 1.490 . S
C1008 H998 0.923 1_554 S
C1008 C1007 1.399 1_554 S
C1008 C1011 1.393 . S
H1009 C1025 0.930 . S
H1010 C1026 0.931 . S
C1011 H999 0.929 . S
C1011 C1005 1.390 . S
C1011 C1008 1.393 . S
C1012 C1007 1.490 . S
C1012 C1014 1.395 . S
C1012 C1015 1.403 . S
H1013 C1019 0.930 . S
C1014 H1000 0.930 . S
C1014 C1012 1.395 . S
C1014 C1017 1.403 . S
C1015 C1012 1.403 . S
C1015 C1016 1.524 . S
C1015 C1019 1.400 . S
C1016 H1001 0.960 . S
C1016 H1002 0.960 . S
C1016 H1003 0.960 . S
C1016 C1015 1.524 . S
C1017 C1014 1.403 . S
C1017 C1018 1.392 . S
C1017 C1021 1.495 . S
C1018 C1017 1.392 . S
C1018 C1019 1.385 . S
C1018 C1020 1.478 . S
C1019 H1013 0.930 . S
C1019 C1015 1.400 . S
C1019 C1018 1.385 . S
C1020 C1018 1.478 . S
C1020 C1022 1.381 . S
C1020 C1026 1.383 . S
C1021 C1017 1.495 . S
C1021 H1027 0.959 . S
C1021 H1028 0.961 . S
C1021 H1029 0.960 . S
C1022 C1020 1.381 . S
C1022 C1023 1.394 . S
C1022 H1030 0.930 . S
C1023 C1022 1.394 . S
C1023 C1024 1.383 . S
C1023 H1031 0.929 . S
C1024 C1023 1.383 . S
C1024 C1025 1.377 . S
C1025 H1009 0.930 . S
C1025 C1024 1.377 . S
C1025 C1026 1.379 . S
C1026 H1010 0.931 . S
C1026 C1020 1.383 . S
C1026 C1025 1.379 . S
H1027 C1021 0.959 . S
H1028 C1021 0.961 . S
H1029 C1021 0.960 . S
H1030 C1022 0.930 . S
H1031 C1023 0.929 . S
H1032 C1040 0.929 . S
H1033 C1042 0.930 . S
H1034 C1044 0.930 1_556 S
H1035 C1047 0.929 . S
H1036 C1050 0.930 . S
H1037 C1052 0.960 . S
H1038 C1052 0.960 1_554 S
H1039 C1052 0.960 . S
C1040 H1032 0.929 . S
C1040 C1041 1.377 . S
C1040 C1042 1.384 . S
C1041 C1040 1.377 . S
C1041 C1047 1.390 . S
C1042 H1033 0.930 . S
C1042 C1040 1.384 . S
C1042 C1043 1.372 1_554 S
C1043 C1042 1.372 1_556 S
C1043 C1044 1.400 1_556 S
C1043 C1048 1.490 . S
C1044 H1034 0.930 1_554 S
C1044 C1043 1.400 1_554 S
C1044 C1047 1.386 . S
H1045 C1061 0.930 . S
H1046 C1062 0.931 . S
C1047 H1035 0.929 . S
C1047 C1041 1.390 . S
C1047 C1044 1.386 . S
C1048 C1043 1.490 . S
C1048 C1050 1.395 . S
C1048 C1051 1.403 . S
H1049 C1055 0.930 . S
C1050 H1036 0.930 . S
C1050 C1048 1.395 . S
C1050 C1053 1.403 . S
C1051 C1048 1.403 . S
C1051 C1052 1.524 . S
C1051 C1055 1.400 . S
C1052 H1037 0.960 . S
C1052 H1038 0.960 1_556 S
C1052 H1039 0.960 . S
C1052 C1051 1.524 . S
C1053 C1050 1.403 . S
C1053 C1054 1.392 . S
C1053 C1057 1.495 . S
C1054 C1053 1.392 . S
C1054 C1055 1.385 . S
C1054 C1056 1.478 . S
C1055 H1049 0.930 . S
C1055 C1051 1.400 . S
C1055 C1054 1.385 . S
C1056 C1054 1.478 . S
C1056 C1058 1.381 . S
C1056 C1062 1.383 . S
C1057 C1053 1.495 . S
C1057 H1063 0.959 . S
C1057 H1064 0.961 . S
C1057 H1065 0.960 . S
C1058 C1056 1.381 . S
C1058 C1059 1.394 . S
C1058 H1066 0.930 . S
C1059 C1058 1.394 . S
C1059 C1060 1.383 . S
C1059 H1067 0.929 . S
C1060 C1059 1.383 . S
C1060 C1061 1.377 . S
C1061 H1045 0.930 . S
C1061 C1060 1.377 . S
C1061 C1062 1.379 . S
C1062 H1046 0.931 . S
C1062 C1056 1.383 . S
C1062 C1061 1.379 . S
H1063 C1057 0.959 . S
H1064 C1057 0.961 . S
H1065 C1057 0.960 . S
H1066 C1058 0.930 . S
H1067 C1059 0.929 . S
H1068 C1076 0.929 . S
H1069 C1078 0.930 . S
H1070 C1080 0.930 1_556 S
H1071 C1083 0.929 . S
H1072 C1086 0.930 . S
H1073 C1088 0.960 . S
H1074 C1088 0.960 1_554 S
H1075 C1088 0.960 . S
C1076 H1068 0.929 . S
C1076 C1077 1.377 . S
C1076 C1078 1.384 . S
C1077 C1076 1.377 . S
C1077 C1083 1.390 . S
C1078 H1069 0.930 . S
C1078 C1076 1.384 . S
C1078 C1079 1.372 1_554 S
C1079 C1078 1.372 1_556 S
C1079 C1080 1.400 1_556 S
C1079 C1084 1.490 . S
C1080 H1070 0.930 1_554 S
C1080 C1079 1.400 1_554 S
C1080 C1083 1.386 . S
H1081 C1097 0.930 . S
H1082 C1098 0.931 1_455 S
C1083 H1071 0.929 . S
C1083 C1077 1.390 . S
C1083 C1080 1.386 . S
C1084 C1079 1.490 . S
C1084 C1086 1.395 . S
C1084 C1087 1.403 . S
H1085 C1091 0.930 1_455 S
C1086 H1072 0.930 . S
C1086 C1084 1.395 . S
C1086 C1089 1.403 . S
C1087 C1084 1.403 . S
C1087 C1088 1.524 1_655 S
C1087 C1091 1.400 . S
C1088 H1073 0.960 . S
C1088 H1074 0.960 1_556 S
C1088 H1075 0.960 . S
C1088 C1087 1.524 1_455 S
C1089 C1086 1.403 . S
C1089 C1090 1.392 . S
C1089 C1093 1.495 . S
C1090 C1089 1.392 . S
C1090 C1091 1.385 . S
C1090 C1092 1.478 . S
C1091 H1085 0.930 1_655 S
C1091 C1087 1.400 . S
C1091 C1090 1.385 . S
C1092 C1090 1.478 . S
C1092 C1094 1.381 . S
C1092 C1098 1.383 . S
C1093 C1089 1.495 . S
C1093 H1099 0.959 . S
C1093 H1100 0.961 . S
C1093 H1101 0.960 . S
C1094 C1092 1.381 . S
C1094 C1095 1.394 . S
C1094 H1102 0.930 . S
C1095 C1094 1.394 . S
C1095 C1096 1.383 . S
C1095 H1103 0.929 . S
C1096 C1095 1.383 . S
C1096 C1097 1.377 1_655 S
C1097 H1081 0.930 . S
C1097 C1096 1.377 1_455 S
C1097 C1098 1.379 1_455 S
C1098 H1082 0.931 1_655 S
C1098 C1092 1.383 . S
C1098 C1097 1.379 1_655 S
H1099 C1093 0.959 . S
H1100 C1093 0.961 . S
H1101 C1093 0.960 . S
H1102 C1094 0.930 . S
H1103 C1095 0.929 . S
H1104 C1112 0.929 . S
H1105 C1114 0.930 . S
H1106 C1116 0.930 . S
H1107 C1119 0.929 . S
H1108 C1122 0.930 . S
H1109 C1124 0.960 . S
H1110 C1124 0.960 . S
H1111 C1124 0.960 . S
C1112 H1104 0.929 . S
C1112 C1113 1.377 . S
C1112 C1114 1.384 . S
C1113 C1112 1.377 . S
C1113 C1119 1.390 . S
C1114 H1105 0.930 . S
C1114 C1112 1.384 . S
C1114 C1115 1.372 . S
C1115 C1114 1.372 . S
C1115 C1116 1.400 . S
C1115 C1120 1.490 . S
C1116 H1106 0.930 . S
C1116 C1115 1.400 . S
C1116 C1119 1.386 . S
H1117 C1133 0.930 1_655 S
H1118 C1134 0.931 . S
C1119 H1107 0.929 . S
C1119 C1113 1.390 . S
C1119 C1116 1.386 . S
C1120 C1115 1.490 . S
C1120 C1122 1.395 . S
C1120 C1123 1.403 . S
H1121 C1127 0.930 1_655 S
C1122 H1108 0.930 . S
C1122 C1120 1.395 . S
C1122 C1125 1.403 . S
C1123 C1120 1.403 . S
C1123 C1124 1.524 1_455 S
C1123 C1127 1.400 . S
C1124 H1109 0.960 . S
C1124 H1110 0.960 . S
C1124 H1111 0.960 . S
C1124 C1123 1.524 1_655 S
C1125 C1122 1.403 . S
C1125 C1126 1.392 . S
C1125 C1129 1.495 . S
C1126 C1125 1.392 . S
C1126 C1127 1.385 . S
C1126 C1128 1.478 . S
C1127 H1121 0.930 1_455 S
C1127 C1123 1.400 . S
C1127 C1126 1.385 . S
C1128 C1126 1.478 . S
C1128 C1130 1.381 . S
C1128 C1134 1.383 . S
C1129 C1125 1.495 . S
C1129 H1135 0.959 . S
C1129 H1136 0.961 . S
C1129 H1137 0.960 . S
C1130 C1128 1.381 . S
C1130 C1131 1.394 . S
C1130 H1138 0.930 . S
C1131 C1130 1.394 . S
C1131 C1132 1.383 . S
C1131 H1139 0.929 . S
C1132 C1131 1.383 . S
C1132 C1133 1.377 . S
C1133 H1117 0.930 1_455 S
C1133 C1132 1.377 . S
C1133 C1134 1.379 . S
C1134 H1118 0.931 . S
C1134 C1128 1.383 . S
C1134 C1133 1.379 . S
H1135 C1129 0.959 . S
H1136 C1129 0.961 . S
H1137 C1129 0.960 . S
H1138 C1130 0.930 . S
H1139 C1131 0.929 . S
H1140 C1148 0.929 . S
H1141 C1150 0.930 . S
H1142 C1152 0.930 . S
H1143 C1155 0.929 . S
H1144 C1158 0.930 . S
H1145 C1160 0.960 . S
H1146 C1160 0.960 . S
H1147 C1160 0.960 . S
C1148 H1140 0.929 . S
C1148 C1149 1.377 . S
C1148 C1150 1.384 . S
C1149 C1148 1.377 . S
C1149 C1155 1.390 . S
C1150 H1141 0.930 . S
C1150 C1148 1.384 . S
C1150 C1151 1.372 . S
C1151 C1150 1.372 . S
C1151 C1152 1.400 . S
C1151 C1156 1.490 . S
C1152 H1142 0.930 . S
C1152 C1151 1.400 . S
C1152 C1155 1.386 . S
H1153 C1169 0.930 . S
H1154 C1170 0.931 . S
C1155 H1143 0.929 . S
C1155 C1149 1.390 . S
C1155 C1152 1.386 . S
C1156 C1151 1.490 . S
C1156 C1158 1.395 . S
C1156 C1159 1.403 . S
H1157 C1163 0.930 . S
C1158 H1144 0.930 . S
C1158 C1156 1.395 . S
C1158 C1161 1.403 . S
C1159 C1156 1.403 . S
C1159 C1160 1.524 . S
C1159 C1163 1.400 . S
C1160 H1145 0.960 . S
C1160 H1146 0.960 . S
C1160 H1147 0.960 . S
C1160 C1159 1.524 . S
C1161 C1158 1.403 . S
C1161 C1162 1.392 . S
C1161 C1165 1.495 1_545 S
C1162 C1161 1.392 . S
C1162 C1163 1.385 . S
C1162 C1164 1.478 . S
C1163 H1157 0.930 . S
C1163 C1159 1.400 . S
C1163 C1162 1.385 . S
C1164 C1162 1.478 . S
C1164 C1166 1.381 1_545 S
C1164 C1170 1.383 . S
C1165 C1161 1.495 1_565 S
C1165 H1171 0.959 . S
C1165 H1172 0.961 . S
C1165 H1173 0.960 . S
C1166 C1164 1.381 1_565 S
C1166 C1167 1.394 . S
C1166 H1174 0.930 . S
C1167 C1166 1.394 . S
C1167 C1168 1.383 1_565 S
C1167 H1175 0.929 . S
C1168 C1167 1.383 1_545 S
C1168 C1169 1.377 . S
C1169 H1153 0.930 . S
C1169 C1168 1.377 . S
C1169 C1170 1.379 . S
C1170 H1154 0.931 . S
C1170 C1164 1.383 . S
C1170 C1169 1.379 . S
H1171 C1165 0.959 . S
H1172 C1165 0.961 . S
H1173 C1165 0.960 . S
H1174 C1166 0.930 . S
H1175 C1167 0.929 . S
H1176 C1184 0.929 . S
H1177 C1186 0.930 . S
H1178 C1188 0.930 . S
H1179 C1191 0.929 . S
H1180 C1194 0.930 . S
H1181 C1196 0.960 . S
H1182 C1196 0.960 . S
H1183 C1196 0.960 . S
C1184 H1176 0.929 . S
C1184 C1185 1.377 . S
C1184 C1186 1.384 . S
C1185 C1184 1.377 . S
C1185 C1191 1.390 . S
C1186 H1177 0.930 . S
C1186 C1184 1.384 . S
C1186 C1187 1.372 . S
C1187 C1186 1.372 . S
C1187 C1188 1.400 . S
C1187 C1192 1.490 . S
C1188 H1178 0.930 . S
C1188 C1187 1.400 . S
C1188 C1191 1.386 . S
H1189 C1205 0.930 . S
H1190 C1206 0.931 . S
C1191 H1179 0.929 . S
C1191 C1185 1.390 . S
C1191 C1188 1.386 . S
C1192 C1187 1.490 . S
C1192 C1194 1.395 . S
C1192 C1195 1.403 . S
H1193 C1199 0.930 . S
C1194 H1180 0.930 . S
C1194 C1192 1.395 . S
C1194 C1197 1.403 . S
C1195 C1192 1.403 . S
C1195 C1196 1.524 . S
C1195 C1199 1.400 . S
C1196 H1181 0.960 . S
C1196 H1182 0.960 . S
C1196 H1183 0.960 . S
C1196 C1195 1.524 . S
C1197 C1194 1.403 . S
C1197 C1198 1.392 . S
C1197 C1201 1.495 . S
C1198 C1197 1.392 . S
C1198 C1199 1.385 . S
C1198 C1200 1.478 . S
C1199 H1193 0.930 . S
C1199 C1195 1.400 . S
C1199 C1198 1.385 . S
C1200 C1198 1.478 . S
C1200 C1202 1.381 . S
C1200 C1206 1.383 . S
C1201 C1197 1.495 . S
C1201 H1207 0.959 . S
C1201 H1208 0.961 . S
C1201 H1209 0.960 . S
C1202 C1200 1.381 . S
C1202 C1203 1.394 . S
C1202 H1210 0.930 . S
C1203 C1202 1.394 . S
C1203 C1204 1.383 . S
C1203 H1211 0.929 . S
C1204 C1203 1.383 . S
C1204 C1205 1.377 . S
C1205 H1189 0.930 . S
C1205 C1204 1.377 . S
C1205 C1206 1.379 . S
C1206 H1190 0.931 . S
C1206 C1200 1.383 . S
C1206 C1205 1.379 . S
H1207 C1201 0.959 . S
H1208 C1201 0.961 . S
H1209 C1201 0.960 . S
H1210 C1202 0.930 . S
H1211 C1203 0.929 . S
H1212 C1220 0.929 . S
H1213 C1222 0.930 . S
H1214 C1224 0.930 . S
H1215 C1227 0.929 . S
H1216 C1230 0.930 . S
H1217 C1232 0.960 . S
H1218 C1232 0.960 . S
H1219 C1232 0.960 . S
C1220 H1212 0.929 . S
C1220 C1221 1.377 . S
C1220 C1222 1.384 . S
C1221 C1220 1.377 . S
C1221 C1227 1.390 . S
C1222 H1213 0.930 . S
C1222 C1220 1.384 . S
C1222 C1223 1.372 . S
C1223 C1222 1.372 . S
C1223 C1224 1.400 . S
C1223 C1228 1.490 . S
C1224 H1214 0.930 . S
C1224 C1223 1.400 . S
C1224 C1227 1.386 . S
H1225 C1241 0.930 . S
H1226 C1242 0.931 . S
C1227 H1215 0.929 . S
C1227 C1221 1.390 . S
C1227 C1224 1.386 . S
C1228 C1223 1.490 . S
C1228 C1230 1.395 . S
C1228 C1231 1.403 . S
H1229 C1235 0.930 . S
C1230 H1216 0.930 . S
C1230 C1228 1.395 . S
C1230 C1233 1.403 . S
C1231 C1228 1.403 . S
C1231 C1232 1.524 . S
C1231 C1235 1.400 . S
C1232 H1217 0.960 . S
C1232 H1218 0.960 . S
C1232 H1219 0.960 . S
C1232 C1231 1.524 . S
C1233 C1230 1.403 . S
C1233 C1234 1.392 . S
C1233 C1237 1.495 . S
C1234 C1233 1.392 . S
C1234 C1235 1.385 . S
C1234 C1236 1.478 . S
C1235 H1229 0.930 . S
C1235 C1231 1.400 . S
C1235 C1234 1.385 . S
C1236 C1234 1.478 . S
C1236 C1238 1.381 . S
C1236 C1242 1.383 . S
C1237 C1233 1.495 . S
C1237 H1243 0.959 . S
C1237 H1244 0.961 . S
C1237 H1245 0.960 . S
C1238 C1236 1.381 . S
C1238 C1239 1.394 . S
C1238 H1246 0.930 . S
C1239 C1238 1.394 . S
C1239 C1240 1.383 . S
C1239 H1247 0.929 . S
C1240 C1239 1.383 . S
C1240 C1241 1.377 . S
C1241 H1225 0.930 . S
C1241 C1240 1.377 . S
C1241 C1242 1.379 . S
C1242 H1226 0.931 . S
C1242 C1236 1.383 . S
C1242 C1241 1.379 . S
H1243 C1237 0.959 . S
H1244 C1237 0.961 . S
H1245 C1237 0.960 . S
H1246 C1238 0.930 . S
H1247 C1239 0.929 . S
H1248 C1256 0.929 . S
H1249 C1258 0.930 . S
H1250 C1260 0.930 1_554 S
H1251 C1263 0.929 . S
H1252 C1266 0.930 . S
H1253 C1268 0.960 . S
H1254 C1268 0.960 . S
H1255 C1268 0.960 . S
C1256 H1248 0.929 . S
C1256 C1257 1.377 1_556 S
C1256 C1258 1.384 . S
C1257 C1256 1.377 1_554 S
C1257 C1263 1.390 . S
C1258 H1249 0.930 . S
C1258 C1256 1.384 . S
C1258 C1259 1.372 . S
C1259 C1258 1.372 . S
C1259 C1260 1.400 . S
C1259 C1264 1.490 . S
C1260 H1250 0.930 1_556 S
C1260 C1259 1.400 . S
C1260 C1263 1.386 1_556 S
H1261 C1277 0.930 . S
H1262 C1278 0.931 . S
C1263 H1251 0.929 . S
C1263 C1257 1.390 . S
C1263 C1260 1.386 1_554 S
C1264 C1259 1.490 . S
C1264 C1266 1.395 . S
C1264 C1267 1.403 . S
H1265 C1271 0.930 1_455 S
C1266 H1252 0.930 . S
C1266 C1264 1.395 . S
C1266 C1269 1.403 . S
C1267 C1264 1.403 . S
C1267 C1268 1.524 1_655 S
C1267 C1271 1.400 . S
C1268 H1253 0.960 . S
C1268 H1254 0.960 . S
C1268 H1255 0.960 . S
C1268 C1267 1.524 1_455 S
C1269 C1266 1.403 . S
C1269 C1270 1.392 . S
C1269 C1273 1.495 . S
C1270 C1269 1.392 . S
C1270 C1271 1.385 . S
C1270 C1272 1.478 . S
C1271 H1265 0.930 1_655 S
C1271 C1267 1.400 . S
C1271 C1270 1.385 . S
C1272 C1270 1.478 . S
C1272 C1274 1.381 . S
C1272 C1278 1.383 1_655 S
C1273 C1269 1.495 . S
C1273 H1279 0.959 . S
C1273 H1280 0.961 . S
C1273 H1281 0.960 . S
C1274 C1272 1.381 . S
C1274 C1275 1.394 . S
C1274 H1282 0.930 . S
C1275 C1274 1.394 . S
C1275 C1276 1.383 1_655 S
C1275 H1283 0.929 . S
C1276 C1275 1.383 1_455 S
C1276 C1277 1.377 . S
C1277 H1261 0.930 . S
C1277 C1276 1.377 . S
C1277 C1278 1.379 . S
C1278 H1262 0.931 . S
C1278 C1272 1.383 1_455 S
C1278 C1277 1.379 . S
H1279 C1273 0.959 . S
H1280 C1273 0.961 . S
H1281 C1273 0.960 . S
H1282 C1274 0.930 . S
H1283 C1275 0.929 . S
H1284 C1292 0.929 . S
H1285 C1294 0.930 . S
H1286 C1296 0.930 . S
H1287 C1299 0.929 1_554 S
H1288 C1302 0.930 . S
H1289 C1304 0.960 . S
H1290 C1304 0.960 . S
H1291 C1304 0.960 . S
C1292 H1284 0.929 . S
C1292 C1293 1.377 . S
C1292 C1294 1.384 1_554 S
C1293 C1292 1.377 . S
C1293 C1299 1.390 1_554 S
C1294 H1285 0.930 . S
C1294 C1292 1.384 1_556 S
C1294 C1295 1.372 . S
C1295 C1294 1.372 . S
C1295 C1296 1.400 . S
C1295 C1300 1.490 . S
C1296 H1286 0.930 . S
C1296 C1295 1.400 . S
C1296 C1299 1.386 . S
H1297 C1313 0.930 . S
H1298 C1314 0.931 . S
C1299 H1287 0.929 1_556 S
C1299 C1293 1.390 1_556 S
C1299 C1296 1.386 . S
C1300 C1295 1.490 . S
C1300 C1302 1.395 . S
C1300 C1303 1.403 . S
H1301 C1307 0.930 . S
C1302 H1288 0.930 . S
C1302 C1300 1.395 . S
C1302 C1305 1.403 . S
C1303 C1300 1.403 . S
C1303 C1304 1.524 . S
C1303 C1307 1.400 . S
C1304 H1289 0.960 . S
C1304 H1290 0.960 . S
C1304 H1291 0.960 . S
C1304 C1303 1.524 . S
C1305 C1302 1.403 . S
C1305 C1306 1.392 . S
C1305 C1309 1.495 . S
C1306 C1305 1.392 . S
C1306 C1307 1.385 . S
C1306 C1308 1.478 . S
C1307 H1301 0.930 . S
C1307 C1303 1.400 . S
C1307 C1306 1.385 . S
C1308 C1306 1.478 . S
C1308 C1310 1.381 . S
C1308 C1314 1.383 1_565 S
C1309 C1305 1.495 . S
C1309 H1315 0.959 . S
C1309 H1316 0.961 . S
C1309 H1317 0.960 . S
C1310 C1308 1.381 . S
C1310 C1311 1.394 . S
C1310 H1318 0.930 . S
C1311 C1310 1.394 . S
C1311 C1312 1.383 1_565 S
C1311 H1319 0.929 . S
C1312 C1311 1.383 1_545 S
C1312 C1313 1.377 . S
C1313 H1297 0.930 . S
C1313 C1312 1.377 . S
C1313 C1314 1.379 . S
C1314 H1298 0.931 . S
C1314 C1308 1.383 1_545 S
C1314 C1313 1.379 . S
H1315 C1309 0.959 . S
H1316 C1309 0.961 . S
H1317 C1309 0.960 . S
H1318 C1310 0.930 . S
H1319 C1311 0.929 . S
H1320 C1328 0.929 . S
H1321 C1330 0.930 . S
H1322 C1332 0.930 . S
H1323 C1335 0.929 . S
H1324 C1338 0.930 . S
H1325 C1340 0.960 . S
H1326 C1340 0.960 . S
H1327 C1340 0.960 . S
C1328 H1320 0.929 . S
C1328 C1329 1.377 . S
C1328 C1330 1.384 1_554 S
C1329 C1328 1.377 . S
C1329 C1335 1.390 1_554 S
C1330 H1321 0.930 . S
C1330 C1328 1.384 1_556 S
C1330 C1331 1.372 . S
C1331 C1330 1.372 . S
C1331 C1332 1.400 . S
C1331 C1336 1.490 . S
C1332 H1322 0.930 . S
C1332 C1331 1.400 . S
C1332 C1335 1.386 . S
H1333 C1349 0.930 . S
H1334 C1350 0.931 . S
C1335 H1323 0.929 . S
C1335 C1329 1.390 1_556 S
C1335 C1332 1.386 . S
C1336 C1331 1.490 . S
C1336 C1338 1.395 . S
C1336 C1339 1.403 . S
H1337 C1343 0.930 . S
C1338 H1324 0.930 . S
C1338 C1336 1.395 . S
C1338 C1341 1.403 . S
C1339 C1336 1.403 . S
C1339 C1340 1.524 . S
C1339 C1343 1.400 . S
C1340 H1325 0.960 . S
C1340 H1326 0.960 . S
C1340 H1327 0.960 . S
C1340 C1339 1.524 . S
C1341 C1338 1.403 . S
C1341 C1342 1.392 . S
C1341 C1345 1.495 . S
C1342 C1341 1.392 . S
C1342 C1343 1.385 . S
C1342 C1344 1.478 . S
C1343 H1337 0.930 . S
C1343 C1339 1.400 . S
C1343 C1342 1.385 . S
C1344 C1342 1.478 . S
C1344 C1346 1.381 . S
C1344 C1350 1.383 . S
C1345 C1341 1.495 . S
C1345 H1351 0.959 . S
C1345 H1352 0.961 . S
C1345 H1353 0.960 . S
C1346 C1344 1.381 . S
C1346 C1347 1.394 . S
C1346 H1354 0.930 . S
C1347 C1346 1.394 . S
C1347 C1348 1.383 . S
C1347 H1355 0.929 . S
C1348 C1347 1.383 . S
C1348 C1349 1.377 . S
C1349 H1333 0.930 . S
C1349 C1348 1.377 . S
C1349 C1350 1.379 . S
C1350 H1334 0.931 . S
C1350 C1344 1.383 . S
C1350 C1349 1.379 . S
H1351 C1345 0.959 . S
H1352 C1345 0.961 . S
H1353 C1345 0.960 . S
H1354 C1346 0.930 . S
H1355 C1347 0.929 . S
H1356 C1364 0.929 . S
H1357 C1366 0.930 . S
H1358 C1368 0.930 . S
H1359 C1371 0.929 . S
H1360 C1374 0.930 . S
H1361 C1376 0.960 . S
H1362 C1376 0.960 . S
H1363 C1376 0.960 . S
C1364 H1356 0.929 . S
C1364 C1365 1.377 . S
C1364 C1366 1.384 . S
C1365 C1364 1.377 . S
C1365 C1371 1.390 1_554 S
C1366 H1357 0.930 . S
C1366 C1364 1.384 . S
C1366 C1367 1.372 1_554 S
C1367 C1366 1.372 1_556 S
C1367 C1368 1.400 . S
C1367 C1372 1.490 . S
C1368 H1358 0.930 . S
C1368 C1367 1.400 . S
C1368 C1371 1.386 . S
H1369 C1385 0.930 . S
H1370 C1386 0.931 . S
C1371 H1359 0.929 . S
C1371 C1365 1.390 1_556 S
C1371 C1368 1.386 . S
C1372 C1367 1.490 . S
C1372 C1374 1.395 . S
C1372 C1375 1.403 . S
H1373 C1379 0.930 . S
C1374 H1360 0.930 . S
C1374 C1372 1.395 . S
C1374 C1377 1.403 . S
C1375 C1372 1.403 . S
C1375 C1376 1.524 . S
C1375 C1379 1.400 . S
C1376 H1361 0.960 . S
C1376 H1362 0.960 . S
C1376 H1363 0.960 . S
C1376 C1375 1.524 . S
C1377 C1374 1.403 . S
C1377 C1378 1.392 . S
C1377 C1381 1.495 . S
C1378 C1377 1.392 . S
C1378 C1379 1.385 . S
C1378 C1380 1.478 . S
C1379 H1373 0.930 . S
C1379 C1375 1.400 . S
C1379 C1378 1.385 . S
C1380 C1378 1.478 . S
C1380 C1382 1.381 . S
C1380 C1386 1.383 . S
C1381 C1377 1.495 . S
C1381 H1387 0.959 . S
C1381 H1388 0.961 . S
C1381 H1389 0.960 . S
C1382 C1380 1.381 . S
C1382 C1383 1.394 . S
C1382 H1390 0.930 . S
C1383 C1382 1.394 . S
C1383 C1384 1.383 . S
C1383 H1391 0.929 . S
C1384 C1383 1.383 . S
C1384 C1385 1.377 . S
C1385 H1369 0.930 . S
C1385 C1384 1.377 . S
C1385 C1386 1.379 . S
C1386 H1370 0.931 . S
C1386 C1380 1.383 . S
C1386 C1385 1.379 . S
H1387 C1381 0.959 . S
H1388 C1381 0.961 . S
H1389 C1381 0.960 . S
H1390 C1382 0.930 . S
H1391 C1383 0.929 . S
H1392 C1400 0.929 . S
H1393 C1402 0.930 . S
H1394 C1404 0.930 . S
H1395 C1407 0.929 . S
H1396 C1410 0.930 . S
H1397 C1412 0.960 . S
H1398 C1412 0.960 . S
H1399 C1412 0.960 . S
C1400 H1392 0.929 . S
C1400 C1401 1.377 . S
C1400 C1402 1.384 . S
C1401 C1400 1.377 . S
C1401 C1407 1.390 . S
C1402 H1393 0.930 . S
C1402 C1400 1.384 . S
C1402 C1403 1.372 . S
C1403 C1402 1.372 . S
C1403 C1404 1.400 . S
C1403 C1408 1.490 . S
C1404 H1394 0.930 . S
C1404 C1403 1.400 . S
C1404 C1407 1.386 . S
H1405 C1421 0.930 1_655 S
H1406 C1422 0.931 . S
C1407 H1395 0.929 . S
C1407 C1401 1.390 . S
C1407 C1404 1.386 . S
C1408 C1403 1.490 . S
C1408 C1410 1.395 . S
C1408 C1411 1.403 . S
H1409 C1415 0.930 . S
C1410 H1396 0.930 . S
C1410 C1408 1.395 . S
C1410 C1413 1.403 . S
C1411 C1408 1.403 . S
C1411 C1412 1.524 . S
C1411 C1415 1.400 . S
C1412 H1397 0.960 . S
C1412 H1398 0.960 . S
C1412 H1399 0.960 . S
C1412 C1411 1.524 . S
C1413 C1410 1.403 . S
C1413 C1414 1.392 . S
C1413 C1417 1.495 . S
C1414 C1413 1.392 . S
C1414 C1415 1.385 . S
C1414 C1416 1.478 . S
C1415 H1409 0.930 . S
C1415 C1411 1.400 . S
C1415 C1414 1.385 . S
C1416 C1414 1.478 . S
C1416 C1418 1.381 . S
C1416 C1422 1.383 . S
C1417 C1413 1.495 . S
C1417 H1423 0.959 . S
C1417 H1424 0.961 . S
C1417 H1425 0.960 . S
C1418 C1416 1.381 . S
C1418 C1419 1.394 . S
C1418 H1426 0.930 . S
C1419 C1418 1.394 . S
C1419 C1420 1.383 . S
C1419 H1427 0.929 . S
C1420 C1419 1.383 . S
C1420 C1421 1.377 . S
C1421 H1405 0.930 1_455 S
C1421 C1420 1.377 . S
C1421 C1422 1.379 . S
C1422 H1406 0.931 . S
C1422 C1416 1.383 . S
C1422 C1421 1.379 . S
H1423 C1417 0.959 . S
H1424 C1417 0.961 . S
H1425 C1417 0.960 . S
H1426 C1418 0.930 . S
H1427 C1419 0.929 . S
H1428 C1436 0.929 . S
H1429 C1438 0.930 . S
H1430 C1440 0.930 . S
H1431 C1443 0.929 . S
H1432 C1446 0.930 . S
H1433 C1448 0.960 . S
H1434 C1448 0.960 . S
H1435 C1448 0.960 . S
C1436 H1428 0.929 . S
C1436 C1437 1.377 . S
C1436 C1438 1.384 . S
C1437 C1436 1.377 . S
C1437 C1443 1.390 . S
C1438 H1429 0.930 . S
C1438 C1436 1.384 . S
C1438 C1439 1.372 . S
C1439 C1438 1.372 . S
C1439 C1440 1.400 . S
C1439 C1444 1.490 . S
C1440 H1430 0.930 . S
C1440 C1439 1.400 . S
C1440 C1443 1.386 . S
H1441 C1457 0.930 . S
H1442 C1458 0.931 . S
C1443 H1431 0.929 . S
C1443 C1437 1.390 . S
C1443 C1440 1.386 . S
C1444 C1439 1.490 . S
C1444 C1446 1.395 . S
C1444 C1447 1.403 . S
H1445 C1451 0.930 . S
C1446 H1432 0.930 . S
C1446 C1444 1.395 . S
C1446 C1449 1.403 . S
C1447 C1444 1.403 . S
C1447 C1448 1.524 . S
C1447 C1451 1.400 . S
C1448 H1433 0.960 . S
C1448 H1434 0.960 . S
C1448 H1435 0.960 . S
C1448 C1447 1.524 . S
C1449 C1446 1.403 . S
C1449 C1450 1.392 . S
C1449 C1453 1.465 1_545 S
C1450 C1449 1.392 . S
C1450 C1451 1.385 . S
C1450 C1452 1.478 . S
C1451 H1445 0.930 . S
C1451 C1447 1.400 . S
C1451 C1450 1.385 . S
C1452 C1450 1.478 . S
C1452 C1454 1.381 . S
C1452 C1458 1.383 . S
C1453 C1449 1.465 1_565 S
C1453 H1459 0.977 . S
C1453 H1460 0.948 1_565 S
C1453 H1461 0.987 . S
C1454 C1452 1.381 . S
C1454 C1455 1.394 . S
C1454 H1462 0.890 1_545 S
C1455 C1454 1.394 . S
C1455 C1456 1.383 . S
C1455 H1463 0.929 1_545 S
C1456 C1455 1.383 . S
C1456 C1457 1.377 . S
C1457 H1441 0.930 . S
C1457 C1456 1.377 . S
C1457 C1458 1.379 . S
C1458 H1442 0.931 . S
C1458 C1452 1.383 . S
C1458 C1457 1.379 . S
H1459 C1453 0.977 . S
H1460 C1453 0.948 1_545 S
H1461 C1453 0.987 . S
H1462 C1454 0.890 1_565 S
H1463 C1455 0.929 1_565 S
H1464 C1472 0.929 . S
H1465 C1474 0.930 . S
H1466 C1476 0.930 . S
H1467 C1479 0.929 . S
H1468 C1482 0.930 . S
H1469 C1484 0.960 . S
H1470 C1484 0.960 . S
H1471 C1484 0.960 . S
C1472 H1464 0.929 . S
C1472 C1473 1.377 . S
C1472 C1474 1.384 . S
C1473 C1472 1.377 . S
C1473 C1479 1.390 . S
C1474 H1465 0.930 . S
C1474 C1472 1.384 . S
C1474 C1475 1.372 . S
C1475 C1474 1.372 . S
C1475 C1476 1.400 . S
C1475 C1480 1.490 . S
C1476 H1466 0.930 . S
C1476 C1475 1.400 . S
C1476 C1479 1.386 . S
H1477 C1493 0.930 . S
H1478 C1494 0.931 . S
C1479 H1467 0.929 . S
C1479 C1473 1.390 . S
C1479 C1476 1.386 . S
C1480 C1475 1.490 . S
C1480 C1482 1.395 . S
C1480 C1483 1.403 . S
H1481 C1487 0.930 . S
C1482 H1468 0.930 . S
C1482 C1480 1.395 . S
C1482 C1485 1.403 . S
C1483 C1480 1.403 . S
C1483 C1484 1.524 . S
C1483 C1487 1.400 . S
C1484 H1469 0.960 . S
C1484 H1470 0.960 . S
C1484 H1471 0.960 . S
C1484 C1483 1.524 . S
C1485 C1482 1.403 . S
C1485 C1486 1.392 . S
C1485 C1489 1.495 . S
C1486 C1485 1.392 . S
C1486 C1487 1.385 . S
C1486 C1488 1.478 . S
C1487 H1481 0.930 . S
C1487 C1483 1.400 . S
C1487 C1486 1.385 . S
C1488 C1486 1.478 . S
C1488 C1490 1.381 . S
C1488 C1494 1.383 . S
C1489 C1485 1.495 . S
C1489 H1495 0.959 . S
C1489 H1496 0.961 . S
C1489 H1497 0.960 . S
C1490 C1488 1.381 . S
C1490 C1491 1.394 . S
C1490 H1498 0.930 . S
C1491 C1490 1.394 . S
C1491 C1492 1.383 . S
C1491 H1499 0.929 . S
C1492 C1491 1.383 . S
C1492 C1493 1.377 . S
C1493 H1477 0.930 . S
C1493 C1492 1.377 . S
C1493 C1494 1.379 . S
C1494 H1478 0.931 . S
C1494 C1488 1.383 . S
C1494 C1493 1.379 . S
H1495 C1489 0.959 . S
H1496 C1489 0.961 . S
H1497 C1489 0.960 . S
H1498 C1490 0.930 . S
H1499 C1491 0.929 . S
H1500 C1508 0.929 . S
H1501 C1510 0.930 . S
H1502 C1512 0.930 . S
H1503 C1515 0.929 . S
H1504 C1518 0.930 . S
H1505 C1520 0.960 . S
H1506 C1520 0.960 . S
H1507 C1520 0.960 . S
C1508 H1500 0.929 . S
C1508 C1509 1.377 . S
C1508 C1510 1.384 . S
C1509 C1508 1.377 . S
C1509 C1515 1.390 . S
C1510 H1501 0.930 . S
C1510 C1508 1.384 . S
C1510 C1511 1.372 . S
C1511 C1510 1.372 . S
C1511 C1512 1.400 . S
C1511 C1516 1.490 . S
C1512 H1502 0.930 . S
C1512 C1511 1.400 . S
C1512 C1515 1.386 . S
H1513 C1529 0.930 . S
H1514 C1530 0.931 . S
C1515 H1503 0.929 . S
C1515 C1509 1.390 . S
C1515 C1512 1.386 . S
C1516 C1511 1.490 . S
C1516 C1518 1.395 . S
C1516 C1519 1.403 . S
H1517 C1523 0.930 . S
C1518 H1504 0.930 . S
C1518 C1516 1.395 . S
C1518 C1521 1.403 . S
C1519 C1516 1.403 . S
C1519 C1520 1.524 . S
C1519 C1523 1.400 . S
C1520 H1505 0.960 . S
C1520 H1506 0.960 . S
C1520 H1507 0.960 . S
C1520 C1519 1.524 . S
C1521 C1518 1.403 . S
C1521 C1522 1.392 . S
C1521 C1525 1.495 . S
C1522 C1521 1.392 . S
C1522 C1523 1.385 . S
C1522 C1524 1.478 . S
C1523 H1517 0.930 . S
C1523 C1519 1.400 . S
C1523 C1522 1.385 . S
C1524 C1522 1.478 . S
C1524 C1526 1.381 . S
C1524 C1530 1.383 . S
C1525 C1521 1.495 . S
C1525 H1531 0.959 . S
C1525 H1532 0.961 . S
C1525 H1533 0.960 . S
C1526 C1524 1.381 . S
C1526 C1527 1.394 . S
C1526 H1534 0.930 . S
C1527 C1526 1.394 . S
C1527 C1528 1.383 . S
C1527 H1535 0.929 . S
C1528 C1527 1.383 . S
C1528 C1529 1.377 . S
C1529 H1513 0.930 . S
C1529 C1528 1.377 . S
C1529 C1530 1.379 . S
C1530 H1514 0.931 . S
C1530 C1524 1.383 . S
C1530 C1529 1.379 . S
H1531 C1525 0.959 . S
H1532 C1525 0.961 . S
H1533 C1525 0.960 . S
H1534 C1526 0.930 . S
H1535 C1527 0.929 . S
H1536 C1544 0.929 . S
H1537 C1546 0.930 . S
H1538 C1548 0.930 . S
H1539 C1551 0.929 . S
H1540 C1554 0.930 . S
H1541 C1556 0.960 . S
H1542 C1556 0.960 . S
H1543 C1556 0.960 . S
C1544 H1536 0.929 . S
C1544 C1545 1.377 . S
C1544 C1546 1.384 . S
C1545 C1544 1.377 . S
C1545 C1551 1.390 . S
C1546 H1537 0.930 . S
C1546 C1544 1.384 . S
C1546 C1547 1.372 . S
C1547 C1546 1.372 . S
C1547 C1548 1.400 . S
C1547 C1552 1.490 . S
C1548 H1538 0.930 . S
C1548 C1547 1.400 . S
C1548 C1551 1.386 . S
H1549 C1565 0.930 . S
H1550 C1566 0.931 . S
C1551 H1539 0.929 . S
C1551 C1545 1.390 . S
C1551 C1548 1.386 . S
C1552 C1547 1.490 . S
C1552 C1554 1.395 . S
C1552 C1555 1.403 . S
H1553 C1559 0.930 . S
C1554 H1540 0.930 . S
C1554 C1552 1.395 . S
C1554 C1557 1.403 . S
C1555 C1552 1.403 . S
C1555 C1556 1.524 . S
C1555 C1559 1.400 . S
C1556 H1541 0.960 . S
C1556 H1542 0.960 . S
C1556 H1543 0.960 . S
C1556 C1555 1.524 . S
C1557 C1554 1.403 . S
C1557 C1558 1.392 . S
C1557 C1561 1.495 . S
C1558 C1557 1.392 . S
C1558 C1559 1.385 . S
C1558 C1560 1.478 . S
C1559 H1553 0.930 . S
C1559 C1555 1.400 . S
C1559 C1558 1.385 . S
C1560 C1558 1.478 . S
C1560 C1562 1.381 . S
C1560 C1566 1.383 1_655 S
C1561 C1557 1.495 . S
C1561 H1567 0.959 . S
C1561 H1568 0.961 . S
C1561 H1569 0.960 . S
C1562 C1560 1.381 . S
C1562 C1563 1.394 . S
C1562 H1570 0.930 . S
C1563 C1562 1.394 . S
C1563 C1564 1.383 . S
C1563 H1571 0.929 . S
C1564 C1563 1.383 . S
C1564 C1565 1.377 1_655 S
C1565 H1549 0.930 . S
C1565 C1564 1.377 1_455 S
C1565 C1566 1.379 . S
C1566 H1550 0.931 . S
C1566 C1560 1.383 1_455 S
C1566 C1565 1.379 . S
H1567 C1561 0.959 . S
H1568 C1561 0.961 . S
H1569 C1561 0.960 . S
H1570 C1562 0.930 . S
H1571 C1563 0.929 . S
H1572 C1580 0.929 . S
H1573 C1582 0.930 . S
H1574 C1584 0.930 . S
H1575 C1587 0.929 . S
H1576 C1590 0.930 . S
H1577 C1592 0.960 . S
H1578 C1592 0.960 . S
H1579 C1592 0.960 . S
C1580 H1572 0.929 . S
C1580 C1581 1.377 . S
C1580 C1582 1.384 . S
C1581 C1580 1.377 . S
C1581 C1587 1.390 . S
C1582 H1573 0.930 . S
C1582 C1580 1.384 . S
C1582 C1583 1.372 . S
C1583 C1582 1.372 . S
C1583 C1584 1.400 . S
C1583 C1588 1.490 . S
C1584 H1574 0.930 . S
C1584 C1583 1.400 . S
C1584 C1587 1.386 . S
H1585 C1601 0.930 . S
H1586 C1602 0.931 . S
C1587 H1575 0.929 . S
C1587 C1581 1.390 . S
C1587 C1584 1.386 . S
C1588 C1583 1.490 . S
C1588 C1590 1.395 . S
C1588 C1591 1.403 . S
H1589 C1595 0.930 1_545 S
C1590 H1576 0.930 . S
C1590 C1588 1.395 . S
C1590 C1593 1.403 . S
C1591 C1588 1.403 . S
C1591 C1592 1.524 1_565 S
C1591 C1595 1.400 . S
C1592 H1577 0.960 . S
C1592 H1578 0.960 . S
C1592 H1579 0.960 . S
C1592 C1591 1.524 1_545 S
C1593 C1590 1.403 . S
C1593 C1594 1.392 . S
C1593 C1597 1.495 . S
C1594 C1593 1.392 . S
C1594 C1595 1.385 . S
C1594 C1596 1.478 . S
C1595 H1589 0.930 1_565 S
C1595 C1591 1.400 . S
C1595 C1594 1.385 . S
C1596 C1594 1.478 . S
C1596 C1598 1.381 . S
C1596 C1602 1.383 . S
C1597 C1593 1.495 . S
C1597 H1603 0.959 . S
C1597 H1604 0.961 . S
C1597 H1605 0.960 . S
C1598 C1596 1.381 . S
C1598 C1599 1.394 . S
C1598 H1606 0.930 . S
C1599 C1598 1.394 . S
C1599 C1600 1.383 . S
C1599 H1607 0.929 . S
C1600 C1599 1.383 . S
C1600 C1601 1.377 . S
C1601 H1585 0.930 . S
C1601 C1600 1.377 . S
C1601 C1602 1.379 . S
C1602 H1586 0.931 . S
C1602 C1596 1.383 . S
C1602 C1601 1.379 . S
H1603 C1597 0.959 . S
H1604 C1597 0.961 . S
H1605 C1597 0.960 . S
H1606 C1598 0.930 . S
H1607 C1599 0.929 . S
H1608 C1616 0.929 . S
H1609 C1618 0.930 . S
H1610 C1620 0.930 . S
H1611 C1623 0.929 . S
H1612 C1626 0.930 . S
H1613 C1628 0.960 . S
H1614 C1628 0.960 . S
H1615 C1628 0.960 . S
C1616 H1608 0.929 . S
C1616 C1617 1.377 . S
C1616 C1618 1.384 . S
C1617 C1616 1.377 . S
C1617 C1623 1.390 . S
C1618 H1609 0.930 . S
C1618 C1616 1.384 . S
C1618 C1619 1.372 . S
C1619 C1618 1.372 . S
C1619 C1620 1.400 . S
C1619 C1624 1.490 . S
C1620 H1610 0.930 . S
C1620 C1619 1.400 . S
C1620 C1623 1.386 . S
H1621 C1637 0.930 . S
H1622 C1638 0.931 . S
C1623 H1611 0.929 . S
C1623 C1617 1.390 . S
C1623 C1620 1.386 . S
C1624 C1619 1.490 . S
C1624 C1626 1.395 . S
C1624 C1627 1.403 . S
H1625 C1631 0.930 . S
C1626 H1612 0.930 . S
C1626 C1624 1.395 . S
C1626 C1629 1.403 . S
C1627 C1624 1.403 . S
C1627 C1628 1.524 . S
C1627 C1631 1.400 . S
C1628 H1613 0.960 . S
C1628 H1614 0.960 . S
C1628 H1615 0.960 . S
C1628 C1627 1.524 . S
C1629 C1626 1.403 . S
C1629 C1630 1.392 . S
C1629 C1633 1.495 . S
C1630 C1629 1.392 . S
C1630 C1631 1.385 . S
C1630 C1632 1.478 . S
C1631 H1625 0.930 . S
C1631 C1627 1.400 . S
C1631 C1630 1.385 . S
C1632 C1630 1.478 . S
C1632 C1634 1.381 . S
C1632 C1638 1.383 . S
C1633 C1629 1.495 . S
C1633 H1639 0.959 . S
C1633 H1640 0.961 . S
C1633 H1641 0.960 . S
C1634 C1632 1.381 . S
C1634 C1635 1.394 . S
C1634 H1642 0.930 . S
C1635 C1634 1.394 . S
C1635 C1636 1.383 . S
C1635 H1643 0.929 . S
C1636 C1635 1.383 . S
C1636 C1637 1.377 . S
C1637 H1621 0.930 . S
C1637 C1636 1.377 . S
C1637 C1638 1.379 . S
C1638 H1622 0.931 . S
C1638 C1632 1.383 . S
C1638 C1637 1.379 . S
H1639 C1633 0.959 . S
H1640 C1633 0.961 . S
H1641 C1633 0.960 . S
H1642 C1634 0.930 . S
H1643 C1635 0.929 . S
H1644 C1652 0.929 . S
H1645 C1654 0.930 . S
H1646 C1656 0.930 . S
H1647 C1659 0.929 . S
H1648 C1662 0.930 . S
H1649 C1664 0.960 . S
H1650 C1664 0.960 . S
H1651 C1664 0.960 . S
C1652 H1644 0.929 . S
C1652 C1653 1.377 . S
C1652 C1654 1.384 . S
C1653 C1652 1.377 . S
C1653 C1659 1.390 . S
C1654 H1645 0.930 . S
C1654 C1652 1.384 . S
C1654 C1655 1.372 . S
C1655 C1654 1.372 . S
C1655 C1656 1.400 . S
C1655 C1660 1.490 . S
C1656 H1646 0.930 . S
C1656 C1655 1.400 . S
C1656 C1659 1.386 . S
H1657 C1673 0.930 . S
H1658 C1674 0.931 . S
C1659 H1647 0.929 . S
C1659 C1653 1.390 . S
C1659 C1656 1.386 . S
C1660 C1655 1.490 . S
C1660 C1662 1.395 . S
C1660 C1663 1.403 . S
H1661 C1667 0.930 . S
C1662 H1648 0.930 . S
C1662 C1660 1.395 . S
C1662 C1665 1.403 . S
C1663 C1660 1.403 . S
C1663 C1664 1.524 . S
C1663 C1667 1.400 . S
C1664 H1649 0.960 . S
C1664 H1650 0.960 . S
C1664 H1651 0.960 . S
C1664 C1663 1.524 . S
C1665 C1662 1.403 . S
C1665 C1666 1.392 . S
C1665 C1669 1.495 . S
C1666 C1665 1.392 . S
C1666 C1667 1.385 . S
C1666 C1668 1.478 . S
C1667 H1661 0.930 . S
C1667 C1663 1.400 . S
C1667 C1666 1.385 . S
C1668 C1666 1.478 . S
C1668 C1670 1.381 . S
C1668 C1674 1.383 . S
C1669 C1665 1.495 . S
C1669 H1675 0.959 . S
C1669 H1676 0.961 . S
C1669 H1677 0.960 . S
C1670 C1668 1.381 . S
C1670 C1671 1.394 . S
C1670 H1678 0.930 . S
C1671 C1670 1.394 . S
C1671 C1672 1.383 . S
C1671 H1679 0.929 . S
C1672 C1671 1.383 . S
C1672 C1673 1.377 . S
C1673 H1657 0.930 . S
C1673 C1672 1.377 . S
C1673 C1674 1.379 . S
C1674 H1658 0.931 . S
C1674 C1668 1.383 . S
C1674 C1673 1.379 . S
H1675 C1669 0.959 . S
H1676 C1669 0.961 . S
H1677 C1669 0.960 . S
H1678 C1670 0.930 . S
H1679 C1671 0.929 . S
C825 C391 2.171 . S
C844 C543 2.181 . S
C880 C620 2.212 . S
C861 C451 2.188 . S
C916 C711 2.180 . S
C897 C241 1.900 . S
C952 C795 2.176 . S
C933 C331 1.892 . S
C988 C554 2.186 1_565 S
C969 C121 1.952 . S
C1005 C211 2.152 . S
C1024 C631 2.195 . S
C1041 C31 2.136 . S
C1060 C722 2.190 . S
C1077 C91 1.940 . S
C1096 C806 2.174 1_655 S
C1132 C538 0.518 1_455 S
C1113 C301 0.462 . S
C1168 C633 0.466 . S
C1149 C380 0.200 . S
C1204 C706 0.423 . S
C1185 C440 0.238 . S
C1221 C260 0.470 . S
C1240 C790 0.488 . S
C1257 C61 0.403 . S
C1276 C549 0.523 . S
C1312 C622 0.427 . S
C1293 C140 0.388 . S
C1348 C717 0.460 . S
C1329 C200 0.403 . S
C1365 C20 0.384 . S
C1384 C801 0.327 . S
C1401 C320 2.519 . S
C1420 C547 2.656 . S
C1437 C361 2.231 . S
C1456 C638 2.663 . S
C1492 C715 2.665 . S
C1473 C421 2.253 . S
C1528 C799 2.671 . S
C1509 C271 2.537 . S
C1545 C80 2.544 . S
C1564 C536 2.637 . S
C1600 C627 2.667 . S
C1581 C151 2.541 . S
C1636 C704 2.661 . S
C1617 C181 2.224 . S
C1653 C1 2.224 . S
C1672 C788 2.663 . S
