# Generated by pormake.
# Topology tsx, (6,3)-cn, num edge types: 1
# Building blocks:
#     Node 0, Type 0, BuildingBlock: LEVNOQ01_clean_sbu_1, # of connection points: 6
#     Node 1, Type 0, BuildingBlock: LEVNOQ01_clean_sbu_1, # of connection points: 6
#     Node 2, Type 1, BuildingBlock: BELTOD_clean_linker_0, # of connection points: 3
#     Node 3, Type 1, BuildingBlock: BELTOD_clean_linker_0, # of connection points: 3
#     Node 4, Type 1, BuildingBlock: BELTOD_clean_linker_0, # of connection points: 3
#     Node 5, Type 1, BuildingBlock: BELTOD_clean_linker_0, # of connection points: 3
#     Edge 6, Type (0, 1), BuildingBlock: XUDNAN_clean_linker_2, # of connection points: 2
#     Edge 7, Type (0, 1), BuildingBlock: XUDNAN_clean_linker_2, # of connection points: 2
#     Edge 8, Type (0, 1), BuildingBlock: XUDNAN_clean_linker_2, # of connection points: 2
#     Edge 9, Type (0, 1), BuildingBlock: XUDNAN_clean_linker_2, # of connection points: 2
#     Edge 10, Type (0, 1), BuildingBlock: XUDNAN_clean_linker_2, # of connection points: 2
#     Edge 11, Type (0, 1), BuildingBlock: XUDNAN_clean_linker_2, # of connection points: 2
#     Edge 12, Type (0, 1), BuildingBlock: XUDNAN_clean_linker_2, # of connection points: 2
#     Edge 13, Type (0, 1), BuildingBlock: XUDNAN_clean_linker_2, # of connection points: 2
#     Edge 14, Type (0, 1), BuildingBlock: XUDNAN_clean_linker_2, # of connection points: 2
#     Edge 15, Type (0, 1), BuildingBlock: XUDNAN_clean_linker_2, # of connection points: 2
#     Edge 16, Type (0, 1), BuildingBlock: XUDNAN_clean_linker_2, # of connection points: 2
#     Edge 17, Type (0, 1), BuildingBlock: XUDNAN_clean_linker_2, # of connection points: 2
# Relax obj value: 0.118
# Max RMSD: 0.151
# Mean RMSD: 0.110
data_MOF--net-tsx--node1-LEVNOQ01_clean_sbu_1--node2-BELTOD_clean_linker_0--edge1-XUDNAN_clean_linker_2
_symmetry_space_group_name_H-M    P1
_symmetry_Int_Tables_number       1
_symmetry_cell_setting            triclinic
loop_
_symmetry_equiv_pos_as_xyz
'x, y, z'
_cell_length_a     20.991893
_cell_length_b     25.760376
_cell_length_c     41.378004
_cell_angle_alpha  98.229897
_cell_angle_beta   90.898372
_cell_angle_gamma 90.946728
loop_
_atom_site_label
_atom_site_type_symbol
_atom_site_fract_x
_atom_site_fract_y
_atom_site_fract_z
_atom_type_partial_charge
O0 O 0.11692 0.00934 0.06986 0.0
Mg1 Mg 0.15992 0.01276 0.02368 0.0
O2 O 0.0157 0.0149 0.05367 0.0
Mg3 Mg 0.01576 0.01301 -0.00274 0.0
O4 O 0.10761 0.06294 0.00099 0.0
O5 O 0.20958 0.07899 0.01416 0.0
O6 O 0.01956 0.01127 0.94075 0.0
O7 O 0.96684 0.09561 0.00508 0.0
Mg8 Mg 0.87791 0.01215 0.96571 0.0
O9 O 0.922 0.96347 0.99383 0.0
O10 O 0.92167 0.00759 0.91953 0.0
O11 O 0.86446 0.08742 0.99096 0.0
O12 O 0.8209 0.9518 0.97649 0.0
C13 C 0.12127 0.91233 0.98578 0.0
C14 C 0.05777 0.01211 0.07605 0.0
C15 C 0.15697 0.094 0.00229 0.0
C16 C 0.98164 0.00887 0.91609 0.0
C17 C 0.91155 0.11506 0.00319 0.0
C18 C 0.86925 0.93596 0.99179 0.0
O19 O 0.16966 0.94198 0.9927 0.0
O20 O 0.06484 0.92988 0.98957 0.0
O21 O 0.61635 0.52152 0.58342 0.0
Mg22 Mg 0.67273 0.52446 0.54197 0.0
O23 O 0.52058 0.51455 0.55874 0.0
Mg24 Mg 0.53524 0.5164 0.50241 0.0
O25 O 0.6241 0.56741 0.51276 0.0
O26 O 0.71894 0.59332 0.5335 0.0
O27 O 0.5537 0.52082 0.44681 0.0
O28 O 0.48184 0.59713 0.50781 0.0
Mg29 Mg 0.41018 0.51154 0.46245 0.0
O30 O 0.44381 0.46264 0.49319 0.0
O31 O 0.46197 0.50833 0.41932 0.0
O32 O 0.38462 0.58546 0.48641 0.0
O33 O 0.35046 0.45043 0.46576 0.0
C34 C 0.64772 0.41971 0.50192 0.0
C35 C 0.55612 0.51673 0.58441 0.0
C36 C 0.66967 0.6021 0.51625 0.0
C37 C 0.52171 0.51565 0.41998 0.0
C38 C 0.42694 0.6149 0.50199 0.0
C39 C 0.39114 0.4356 0.48615 0.0
O40 O 0.6906 0.45029 0.51626 0.0
O41 O 0.59161 0.43598 0.49656 0.0
P42 P 0.09807 0.05993 0.42524 0.0
H43 H 0.06886 0.14691 0.47568 0.0
H44 H 0.96759 0.18292 0.49384 0.0
H45 H 0.87053 0.04198 0.44715 0.0
H46 H 0.9735 0.0059 0.42882 0.0
H47 H 0.22969 0.06272 0.44868 0.0
H48 H 0.29677 -0.00056 0.46957 0.0
H49 H 0.14398 0.8833 0.45206 0.0
H50 H 0.07502 0.9493 0.43354 0.0
H51 H 0.98308 0.07887 0.38727 0.0
H52 H 0.16759 0.01105 0.36834 0.0
O53 O 0.14163 0.11523 0.42766 0.0
H54 H 0.95801 0.06632 0.32976 0.0
H55 H 0.14585 0.00401 0.30973 0.0
C56 C 0.02844 0.07468 0.44974 0.0
C57 C 0.02621 0.12289 0.47013 0.0
C58 C 0.96783 0.14343 0.4807 0.0
C59 C 0.91047 0.11599 0.47114 0.0
C60 C 0.9137 0.06464 0.45423 0.0
C61 C 0.97258 0.04376 0.44403 0.0
C62 C 0.14705 0.01096 0.43979 0.0
C63 C 0.2102 0.0238 0.44953 0.0
C64 C 0.24912 -0.01301 0.46119 0.0
C65 C 0.22673 0.93548 0.46233 0.0
C66 C 0.16312 0.92258 0.45218 0.0
C67 C 0.12356 0.96014 0.44122 0.0
C68 C 0.0763 0.04368 0.38253 0.0
C69 C 0.01794 0.05997 0.37087 0.0
C70 C 0.00427 0.0542 0.33746 0.0
C71 C 0.05007 0.03488 0.31453 0.0
C72 C 0.10862 0.01822 0.32633 0.0
C73 C 0.12138 0.02238 0.35999 0.0
P74 P 0.06542 0.98188 0.56875 0.0
H75 H 0.04044 0.90915 0.50927 0.0
H76 H 0.943 0.86933 0.48387 0.0
H77 H 0.83189 0.97206 0.55213 0.0
H78 H 0.93083 0.01185 0.57773 0.0
H79 H 0.14952 0.00501 0.51724 0.0
H80 H 0.20757 0.08527 0.50905 0.0
H81 H 0.10586 0.17249 0.58802 0.0
H82 H 0.04741 0.09219 0.59623 0.0
H83 H 0.97109 0.94487 0.61373 0.0
H84 H 0.15188 0.02816 0.62058 0.0
O85 O 0.11967 0.93616 0.55822 0.0
H86 H 0.96992 0.95067 0.67327 0.0
H87 H 0.15109 0.03378 0.67988 0.0
C88 C 0.99274 0.96158 0.5464 0.0
C89 C 0.99519 0.92367 0.51859 0.0
C90 C 0.93913 0.90136 0.50373 0.0
C91 C 0.87939 0.9168 0.51629 0.0
C92 C 0.87716 0.95856 0.54227 0.0
C93 C 0.93356 0.98119 0.55699 0.0
C94 C 0.09549 0.04257 0.55782 0.0
C95 C 0.13867 0.04157 0.53232 0.0
C96 C 0.17154 0.08728 0.52753 0.0
C97 C 0.16149 0.13455 0.54806 0.0
C98 C 0.11503 0.13621 0.57221 0.0
C99 C 0.08155 0.09052 0.57677 0.0
C100 C 0.06045 -0.01213 0.61266 0.0
C101 C 0.00978 0.96547 0.62794 0.0
C102 C 0.00929 0.9686 0.66203 0.0
C103 C 0.06029 -0.00708 0.68128 0.0
C104 C 0.11123 0.01462 0.66577 0.0
C105 C 0.1114 0.01185 0.63185 0.0
P106 P 0.59598 0.56464 0.93052 0.0
H107 H 0.56605 0.66685 0.96648 0.0
H108 H 0.46467 0.7057 0.98263 0.0
H109 H 0.37136 0.55394 0.96134 0.0
H110 H 0.47347 0.51467 0.94468 0.0
H111 H 0.72797 0.53299 0.9253 0.0
H112 H 0.78937 0.4667 0.94789 0.0
H113 H 0.61984 0.41637 0.9935 0.0
H114 H 0.55931 0.4837 0.97179 0.0
H115 H 0.47473 0.57297 0.89384 0.0
H116 H 0.66638 0.52263 0.87216 0.0
O117 O 0.64746 0.61503 0.93181 0.0
H118 H 0.44679 0.5585 0.83673 0.0
H119 H 0.64008 0.51257 0.81396 0.0
C120 C 0.52767 0.58775 0.95414 0.0
C121 C 0.52458 0.64127 0.96627 0.0
C122 C 0.46647 0.6636 0.9755 0.0
C123 C 0.41025 0.63288 0.9726 0.0
C124 C 0.41417 0.57835 0.96387 0.0
C125 C 0.47273 0.55585 0.95466 0.0
C126 C 0.63875 0.51335 0.94654 0.0
C127 C 0.70382 0.50753 0.94003 0.0
C128 C 0.73896 0.46942 0.95291 0.0
C129 C 0.70965 0.43606 0.97253 0.0
C130 C 0.6442 0.44178 0.97883 0.0
C131 C 0.60913 0.48008 0.96601 0.0
C132 C 0.57254 0.54731 0.88793 0.0
C133 C 0.51093 0.55772 0.87707 0.0
C134 C 0.49512 0.55059 0.84384 0.0
C135 C 0.5411 0.53493 0.82025 0.0
C136 C 0.60275 0.52383 0.83116 0.0
C137 C 0.6181 0.52976 0.86463 0.0
P138 P 0.57513 0.47338 0.0768 0.0
H139 H 0.54633 0.37796 0.03237 0.0
H140 H 0.44813 0.33713 0.00983 0.0
H141 H 0.3452 0.4757 0.049 0.0
H142 H 0.44521 0.51549 0.07326 0.0
H143 H 0.71096 0.48957 0.06934 0.0
H144 H 0.77356 0.55822 0.04978 0.0
H145 H 0.60032 0.63067 0.02248 0.0
H146 H 0.53758 0.56117 0.04236 0.0
H147 H 0.48534 0.44466 0.1248 0.0
H148 H 0.63838 0.5576 0.12187 0.0
O149 O 0.62094 0.42162 0.07892 0.0
H150 H 0.48128 0.46782 0.18404 0.0
H151 H 0.63643 0.57939 0.1809 0.0
C152 C 0.503 0.44936 0.055 0.0
C153 C 0.50292 0.40002 0.03583 0.0
C154 C 0.44618 0.37683 0.0225 0.0
C155 C 0.38782 0.40281 0.02747 0.0
C156 C 0.38878 0.45399 0.04506 0.0
C157 C 0.44598 0.47703 0.05876 0.0
C158 C 0.61958 0.51959 0.05675 0.0
C159 C 0.6863 0.51924 0.05819 0.0
C160 C 0.72223 0.55878 0.04695 0.0
C161 C 0.69222 0.60017 0.03436 0.0
C162 C 0.62509 0.59963 0.03215 0.0
C163 C 0.58907 0.55974 0.04335 0.0
C164 C 0.56122 0.50005 0.1187 0.0
C165 C 0.51699 0.47539 0.13677 0.0
C166 C 0.51546 0.48811 0.17076 0.0
C167 C 0.5591 0.52508 0.18742 0.0
C168 C 0.6016 0.55122 0.16901 0.0
C169 C 0.60277 0.53868 0.13503 0.0
H170 H 0.22828 0.13805 0.95949 0.0
H171 H 0.08465 0.17189 0.03277 0.0
H172 H 0.11315 0.26627 0.0382 0.0
H173 H 0.34169 0.20921 0.99379 0.0
H174 H 0.37538 0.23518 0.95948 0.0
H175 H 0.33026 0.17492 0.95287 0.0
H176 H 0.25365 0.21265 0.91291 0.0
H177 H 0.29959 0.27318 0.9187 0.0
H178 H 0.21503 0.27398 0.92564 0.0
H179 H 0.1815 0.3475 0.04902 0.0
H180 H 0.27256 0.40933 0.05895 0.0
H181 H 0.36505 0.32822 0.97367 0.0
C182 C 0.20006 0.16601 0.97494 0.0
C183 C 0.15372 0.14827 -0.00472 0.0
C184 C 0.11913 0.18512 0.01636 0.0
C185 C 0.13538 0.2388 0.01971 0.0
C186 C 0.18487 0.2549 0.001 0.0
C187 C 0.2149 0.21973 0.97793 0.0
C188 C 0.27197 0.24519 0.96407 0.0
C189 C 0.33336 0.2143 0.96783 0.0
C190 C 0.25928 0.25164 0.9282 0.0
C191 C 0.27394 0.29793 0.98559 0.0
C192 C 0.22259 0.30343 0.00624 0.0
C193 C 0.22039 0.3447 0.03203 0.0
C194 C 0.27262 0.37994 0.03746 0.0
C195 C 0.32667 0.37389 0.01719 0.0
C196 C 0.32507 0.33392 0.9899 0.0
H197 H 0.20072 0.86839 0.93994 0.0
H198 H 0.07425 0.83181 0.01535 0.0
H199 H 0.12506 0.74539 0.01439 0.0
H200 H 0.21754 0.72643 0.89669 0.0
H201 H 0.29979 0.73998 0.88857 0.0
H202 H 0.24181 0.79095 0.88906 0.0
H203 H 0.31148 0.85035 0.93207 0.0
H204 H 0.36864 0.7995 0.93246 0.0
H205 H 0.33222 0.82741 0.97 0.0
H206 H 0.20715 0.67288 0.01389 0.0
H207 H 0.3057 0.62006 0.0107 0.0
H208 H 0.3761 0.70576 0.93553 0.0
C209 C 0.18145 0.8408 0.95486 0.0
C210 C 0.13315 0.85597 0.97727 0.0
C211 C 0.11018 0.82005 -0.00261 0.0
C212 C 0.13916 0.77109 -0.00286 0.0
C213 C 0.18988 0.75855 0.97612 0.0
C214 C 0.20949 0.792 0.95465 0.0
C215 C 0.26964 0.77332 0.93746 0.0
C216 C 0.25638 0.75667 0.90077 0.0
C217 C 0.32361 0.81512 0.94339 0.0
C218 C 0.28372 0.72645 0.95428 0.0
C219 C 0.23677 0.71747 0.97599 0.0
C220 C 0.24329 0.67885 -0.00365 0.0
C221 C 0.29932 0.64921 -0.00545 0.0
C222 C 0.34822 0.65935 0.97304 0.0
C223 C 0.33932 0.6975 0.95225 0.0
H224 H 0.76898 0.90115 0.02335 0.0
H225 H 0.95421 0.85565 0.98551 0.0
H226 H 0.93058 0.76359 0.99341 0.0
H227 H 0.76493 0.80799 0.08527 0.0
H228 H 0.68014 0.79769 0.07946 0.0
H229 H 0.71607 0.85997 0.07442 0.0
H230 H 0.66544 0.85153 0.01632 0.0
H231 H 0.63099 0.7886 0.02075 0.0
H232 H 0.68224 0.79492 0.98693 0.0
H233 H 0.87813 0.6746 -0.00264 0.0
H234 H 0.81014 0.59867 0.00576 0.0
H235 H 0.66231 0.70479 0.04456 0.0
C236 C 0.80535 0.87204 0.01777 0.0
C237 C 0.86351 0.88521 0.00408 0.0
C238 C 0.90985 0.84629 -0.0034 0.0
C239 C 0.89648 0.79391 0.0007 0.0
C240 C 0.8372 0.78175 0.01292 0.0
C241 C 0.79323 0.82011 0.02228 0.0
C242 C 0.7325 0.79708 0.03403 0.0
C243 C 0.72286 0.81684 0.07046 0.0
C244 C 0.6744 0.80874 0.01325 0.0
C245 C 0.74781 0.7394 0.02851 0.0
C246 C 0.80832 0.73119 0.01632 0.0
C247 C 0.83136 0.68076 0.00771 0.0
C248 C 0.79231 0.63784 0.0126 0.0
C249 C 0.73093 0.64548 0.02622 0.0
C250 C 0.70858 0.69718 0.0339 0.0
H251 H 0.93071 0.18734 0.96329 0.0
H252 H 0.86228 0.16669 0.05874 0.0
H253 H 0.81483 0.25485 0.06451 0.0
H254 H 0.95624 0.33628 0.97965 0.0
H255 H 0.92758 0.34246 0.93911 0.0
H256 H 0.96984 0.2847 0.94632 0.0
H257 H 0.87491 0.22684 0.92063 0.0
H258 H 0.83172 0.28411 0.91401 0.0
H259 H 0.79657 0.23739 0.93732 0.0
H260 H 0.75785 0.3359 0.05525 0.0
H261 H 0.7005 0.40616 0.03317 0.0
H262 H 0.80249 0.37276 0.94258 0.0
C263 C 0.90889 0.20293 0.98611 0.0
C264 C 0.9019 0.17159 0.01114 0.0
C265 C 0.86983 0.19127 0.03992 0.0
C266 C 0.84251 0.24108 0.04325 0.0
C267 C 0.84759 0.2703 0.01744 0.0
C268 C 0.88081 0.25228 0.98957 0.0
C269 C 0.87174 0.28759 0.96358 0.0
C270 C 0.93512 0.31436 0.95677 0.0
C271 C 0.84195 0.25715 0.93205 0.0
C272 C 0.82583 0.32682 0.98054 0.0
C273 C 0.81334 0.31667 0.01176 0.0
C274 C 0.76837 0.34487 0.03111 0.0
C275 C 0.73547 0.38443 0.01826 0.0
C276 C 0.7471 0.39544 0.9863 0.0
C277 C 0.79349 0.36634 0.96741 0.0
H278 H 0.65881 0.6936 0.55473 0.0
H279 H 0.67741 0.62503 0.45389 0.0
H280 H 0.70866 0.71203 0.43965 0.0
H281 H 0.6134 0.83449 0.53825 0.0
H282 H 0.65999 0.86208 0.57373 0.0
H283 H 0.6174 0.8006 0.57341 0.0
H284 H 0.72241 0.75703 0.58778 0.0
H285 H 0.76531 0.81759 0.58779 0.0
H286 H 0.79007 0.7596 0.56166 0.0
H287 H 0.76694 0.79751 0.43992 0.0
H288 H 0.84342 0.8714 0.45406 0.0
H289 H 0.78841 0.88404 0.55531 0.0
C290 C 0.66561 0.69795 0.52935 0.0
C291 C 0.6645 0.65352 0.50522 0.0
C292 C 0.67632 0.65924 0.47244 0.0
C293 C 0.69427 0.70852 0.46425 0.0
C294 C 0.69926 0.7514 0.48914 0.0
C295 C 0.68374 0.74669 0.52102 0.0
C296 C 0.70384 0.79516 0.54434 0.0
C297 C 0.64516 0.82486 0.55825 0.0
C298 C 0.74804 0.78148 0.57195 0.0
C299 C 0.73889 0.82572 0.5213 0.0
C300 C 0.73382 0.80092 0.48937 0.0
C301 C 0.76965 0.818 0.46464 0.0
C302 C 0.81339 0.85983 0.47295 0.0
C303 C 0.82181 0.88368 0.50582 0.0
C304 C 0.78179 0.86778 0.52985 0.0
H305 H 0.72096 0.36593 0.539 0.0
H306 H 0.61257 0.34762 0.44801 0.0
H307 H 0.65537 0.25785 0.43376 0.0
H308 H 0.85726 0.31092 0.50954 0.0
H309 H 0.87661 0.27919 0.54445 0.0
H310 H 0.82879 0.3368 0.54941 0.0
H311 H 0.73973 0.28616 0.5753 0.0
H312 H 0.78755 0.22815 0.57042 0.0
H313 H 0.70782 0.22556 0.55337 0.0
H314 H 0.72542 0.17657 0.42619 0.0
H315 H 0.81336 0.11398 0.42571 0.0
H316 H 0.87097 0.1851 0.52334 0.0
C317 C 0.70501 0.34258 0.51636 0.0
C318 C 0.66376 0.36358 0.49448 0.0
C319 C 0.64384 0.33198 0.46516 0.0
C320 C 0.66793 0.28104 0.45697 0.0
C321 C 0.71042 0.26216 0.47879 0.0
C322 C 0.72779 0.29194 0.50817 0.0
C323 C 0.77804 0.26546 0.52632 0.0
C324 C 0.83873 0.30015 0.53277 0.0
C325 C 0.75169 0.25044 0.55824 0.0
C326 C 0.78937 0.21731 0.50182 0.0
C327 C 0.74926 0.21536 0.47478 0.0
C328 C 0.75583 0.17712 0.4476 0.0
C329 C 0.80581 0.14139 0.44765 0.0
C330 C 0.84905 0.14437 0.4746 0.0
C331 C 0.8387 0.1816 0.50243 0.0
H332 H 0.32515 0.35069 0.45676 0.0
H333 H 0.41982 0.41443 0.54804 0.0
H334 H 0.37402 0.3414 0.57408 0.0
H335 H 0.18324 0.31549 0.48857 0.0
H336 H 0.17039 0.25568 0.46064 0.0
H337 H 0.21665 0.30866 0.44834 0.0
H338 H 0.31189 0.24697 0.43495 0.0
H339 H 0.26542 0.19342 0.4466 0.0
H340 H 0.34225 0.21025 0.46563 0.0
H341 H 0.30472 0.26821 0.59134 0.0
H342 H 0.23038 0.19426 0.59672 0.0
H343 H 0.18543 0.17824 0.49315 0.0
C344 C 0.33749 0.3486 0.48206 0.0
C345 C 0.37574 0.38799 0.50054 0.0
C346 C 0.39098 0.3842 0.53351 0.0
C347 C 0.36486 0.34312 0.54845 0.0
C348 C 0.32489 0.30605 0.52978 0.0
C349 C 0.31264 0.30783 0.49706 0.0
C350 C 0.26649 0.26477 0.48246 0.0
C351 C 0.20562 0.28754 0.46924 0.0
C352 C 0.29845 0.22658 0.45584 0.0
C353 C 0.25301 0.23917 0.51228 0.0
C354 C 0.28684 0.26349 0.5394 0.0
C355 C 0.27888 0.24841 0.57015 0.0
C356 C 0.23617 0.20686 0.57305 0.0
C357 C 0.20248 0.18081 0.54532 0.0
C358 C 0.21108 0.19732 0.51464 0.0
H359 H 0.31441 0.66213 0.51813 0.0
H360 H 0.51108 0.69482 0.49635 0.0
H361 H 0.48303 0.78553 0.48961 0.0
H362 H 0.24348 0.72332 0.46232 0.0
H363 H 0.17841 0.75168 0.48628 0.0
H364 H 0.21519 0.69346 0.49639 0.0
H365 H 0.23966 0.73896 0.55529 0.0
H366 H 0.20128 0.79716 0.54573 0.0
H367 H 0.28191 0.80117 0.56163 0.0
H368 H 0.42868 0.86317 0.47218 0.0
H369 H 0.3569 0.9284 0.45478 0.0
H370 H 0.19611 0.85004 0.49354 0.0
C371 C 0.35199 0.6892 0.51338 0.0
C372 C 0.41489 0.67174 0.50789 0.0
C373 C 0.46283 0.70773 0.50116 0.0
C374 C 0.44718 0.75921 0.49707 0.0
C375 C 0.38383 0.77434 0.50078 0.0
C376 C 0.3374 0.74098 0.50997 0.0
C377 C 0.27222 0.76563 0.51031 0.0
C378 C 0.22458 0.73148 0.48745 0.0
C379 C 0.2473 0.77638 0.54533 0.0
C380 C 0.28841 0.81634 0.4975 0.0
C381 C 0.35306 0.82079 0.49242 0.0
C382 C 0.37838 0.86123 0.47734 0.0
C383 C 0.33684 0.89842 0.46762 0.0
C384 C 0.27032 0.89565 0.47329 0.0
C385 C 0.24635 0.8539 0.48872 0.0
H386 H 0.10348 0.95659 0.12263 0.0
H387 H 0.97101 0.07824 0.10686 0.0
H388 H 0.95076 0.09471 0.1662 0.0
H389 H 0.00919 0.9079 0.18849 0.0
H390 H 0.07999 0.89298 0.21031 0.0
H391 H 0.08037 0.88859 0.16645 0.0
H392 H 0.17785 0.95237 0.17096 0.0
H393 H 0.17727 0.95758 0.21478 0.0
H394 H 0.17277 0.01589 0.19547 0.0
H395 H 0.95766 0.1063 0.22726 0.0
H396 H 0.97839 0.10487 0.28552 0.0
H397 H 0.09628 0.96779 0.26175 0.0
C398 C 0.06926 -0.01406 0.13171 0.0
C399 C 0.03865 0.01623 0.1104 0.0
C400 C 0.99428 0.05434 0.12289 0.0
C401 C 0.9828 0.06409 0.1565 0.0
C402 C 0.01482 0.03433 0.17702 0.0
C403 C 0.05585 -0.00492 0.16505 0.0
C404 C 0.08418 0.96891 0.1924 0.0
C405 C 0.0621 0.91117 0.18922 0.0
C406 C 0.15735 0.97403 0.19345 0.0
C407 C 0.05503 0.00127 0.22177 0.0
C408 C 0.0153 0.03878 0.21229 0.0
C409 C 0.98692 0.07596 0.23498 0.0
C410 C -0.00128 0.07441 0.26822 0.0
C411 C 0.03778 0.0353 0.27882 0.0
C412 C 0.06609 -0.00177 0.25493 0.0
H413 H 0.918 0.02742 0.86075 0.0
H414 H 0.10341 -0.01415 0.89617 0.0
H415 H 0.14447 0.97909 0.84005 0.0
H416 H 0.91513 0.94241 0.78593 0.0
H417 H 0.87748 -0.01183 0.7629 0.0
H418 H 0.86361 -0.00814 0.80598 0.0
H419 H 0.90177 0.08913 0.81509 0.0
H420 H 0.91547 0.08584 0.77197 0.0
H421 H 0.97909 0.10627 0.80099 0.0
H422 H 0.16374 0.97345 0.77963 0.0
H423 H 0.16073 0.97117 0.71974 0.0
H424 H 0.96297 0.01767 0.72413 0.0
C425 C 0.96733 0.01701 0.85678 0.0
C426 C 0.00746 0.00692 0.88284 0.0
C427 C 0.07184 -0.00611 0.87661 0.0
C428 C 0.09555 -0.01011 0.84481 0.0
C429 C 0.05445 -0.00037 0.81965 0.0
C430 C 0.99186 0.01335 0.82534 0.0
C431 C 0.95747 0.02173 0.79409 0.0
C432 C 0.90004 -0.01624 0.7868 0.0
C433 C 0.93727 0.07915 0.79563 0.0
C434 C 0.00986 0.00883 0.76969 0.0
C435 C 0.06562 -0.00327 0.78497 0.0
C436 C 0.12049 -0.01677 0.76746 0.0
C437 C 0.11836 0.98221 0.73348 0.0
C438 C 0.06166 -0.00565 0.7173 0.0
C439 C 0.0068 0.00778 0.73578 0.0
H440 H 0.59612 0.45795 0.62962 0.0
H441 H 0.45808 0.57459 0.61256 0.0
H442 H 0.4314 0.58663 0.67135 0.0
H443 H 0.50311 0.40238 0.69483 0.0
H444 H 0.57541 0.39157 0.71678 0.0
H445 H 0.57544 0.38682 0.67289 0.0
H446 H 0.66794 0.45538 0.67737 0.0
H447 H 0.6674 0.46133 0.72118 0.0
H448 H 0.65797 0.51877 0.70141 0.0
H449 H 0.43575 0.5972 0.73297 0.0
H450 H 0.45965 0.5984 0.79136 0.0
H451 H 0.58889 0.46888 0.76778 0.0
C452 C 0.55859 0.48461 0.63814 0.0
C453 C 0.52858 0.51509 0.61676 0.0
C454 C 0.48056 0.55027 0.62858 0.0
C455 C 0.46553 0.55751 0.66192 0.0
C456 C 0.49799 0.52829 0.68269 0.0
C457 C 0.5423 0.49147 0.67106 0.0
C458 C 0.57315 0.46722 0.69854 0.0
C459 C 0.55571 0.40851 0.69559 0.0
C460 C 0.6459 0.47625 0.69967 0.0
C461 C 0.54187 0.49811 0.72771 0.0
C462 C 0.49845 0.53291 0.71808 0.0
C463 C 0.46799 0.56886 0.74075 0.0
C464 C 0.48179 0.56897 0.77405 0.0
C465 C 0.52542 0.53301 0.78466 0.0
C466 C 0.55531 0.49694 0.76087 0.0
H467 H 0.5288 0.44454 0.36532 0.0
H468 H 0.57553 0.60552 0.40511 0.0
H469 H 0.5969 0.62546 0.34936 0.0
H470 H 0.65059 0.43559 0.29763 0.0
H471 H 0.59781 0.39348 0.27036 0.0
H472 H 0.59643 0.39103 0.31367 0.0
H473 H 0.47524 0.40844 0.31308 0.0
H474 H 0.47642 0.41251 0.27009 0.0
H475 H 0.44676 0.4664 0.29812 0.0
H476 H 0.59428 0.63044 0.28864 0.0
H477 H 0.58305 0.61774 0.22849 0.0
H478 H 0.54519 0.45161 0.22895 0.0
C479 C 0.54632 0.48331 0.36228 0.0
C480 C 0.55185 0.52335 0.38923 0.0
C481 C 0.57281 0.57416 0.38464 0.0
C482 C 0.58446 0.58584 0.35309 0.0
C483 C 0.57616 0.54587 0.32671 0.0
C484 C 0.55948 0.49521 0.33111 0.0
C485 C 0.55087 0.45992 0.29875 0.0
C486 C 0.60197 0.4175 0.29487 0.0
C487 C 0.48331 0.43542 0.29481 0.0
C488 C 0.56141 0.49923 0.27541 0.0
C489 C 0.57642 0.54851 0.29191 0.0
C490 C 0.58423 0.59172 0.27545 0.0
C491 C 0.57771 0.5841 0.24125 0.0
C492 C 0.56347 0.53363 0.22379 0.0
C493 C 0.5554 0.49084 0.24137 0.0
loop_
_geom_bond_atom_site_label_1
_geom_bond_atom_site_label_2
_geom_bond_distance
_geom_bond_site_symmetry_2
_ccdc_geom_bond_type
O0 Mg1 1.990 . S
O0 C14 1.253 . S
Mg1 O0 1.990 . S
Mg1 O4 2.180 . S
Mg1 O5 2.117 . S
Mg1 O19 2.030 1_545 S
O2 Mg3 2.083 . S
O2 C14 1.260 . S
Mg3 O2 2.083 . S
Mg3 O4 2.100 . S
Mg3 O6 2.068 1_554 S
Mg3 O7 2.072 . S
Mg3 O9 2.097 1_444 S
Mg3 O20 2.079 1_544 S
O4 Mg1 2.180 . S
O4 Mg3 2.100 . S
O4 C15 1.279 . S
O5 Mg1 2.117 . S
O5 C15 1.250 . S
O6 Mg3 2.068 1_556 S
O6 C16 1.264 . S
O7 Mg3 2.072 . S
O7 C17 1.253 1_454 S
Mg8 O9 2.180 1_545 S
Mg8 O10 2.030 . S
Mg8 O11 1.990 . S
Mg8 O12 2.117 1_545 S
O9 Mg3 2.097 1_666 S
O9 Mg8 2.180 1_565 S
O9 C18 1.279 1_556 S
O10 Mg8 2.030 . S
O10 C16 1.248 1_655 S
O11 Mg8 1.990 . S
O11 C17 1.262 . S
O12 Mg8 2.117 1_565 S
O12 C18 1.250 1_556 S
C13 O19 1.248 . S
C13 O20 1.264 1_554 S
C14 O0 1.253 . S
C14 O2 1.260 . S
C15 O4 1.279 . S
C15 O5 1.250 . S
C16 O6 1.264 . S
C16 O10 1.248 1_455 S
C17 O7 1.253 1_656 S
C17 O11 1.262 . S
C18 O9 1.279 1_554 S
C18 O12 1.250 1_554 S
O19 Mg1 2.030 1_565 S
O19 C13 1.248 . S
O20 Mg3 2.079 1_566 S
O20 C13 1.264 1_556 S
O21 Mg22 1.990 . S
O21 C35 1.253 . S
Mg22 O21 1.990 . S
Mg22 O25 2.180 . S
Mg22 O26 2.117 . S
Mg22 O40 2.030 . S
O23 Mg24 2.072 . S
O23 C35 1.260 . S
Mg24 O23 2.072 . S
Mg24 O25 2.099 . S
Mg24 O27 2.079 . S
Mg24 O28 2.072 . S
Mg24 O30 2.099 . S
Mg24 O41 2.079 . S
O25 Mg22 2.180 . S
O25 Mg24 2.099 . S
O25 C36 1.279 . S
O26 Mg22 2.117 . S
O26 C36 1.250 . S
O27 Mg24 2.079 . S
O27 C37 1.264 . S
O28 Mg24 2.072 . S
O28 C38 1.260 . S
Mg29 O30 2.180 . S
Mg29 O31 2.030 . S
Mg29 O32 1.990 . S
Mg29 O33 2.117 . S
O30 Mg24 2.099 . S
O30 Mg29 2.180 . S
O30 C39 1.279 . S
O31 Mg29 2.030 . S
O31 C37 1.248 . S
O32 Mg29 1.990 . S
O32 C38 1.253 . S
O33 Mg29 2.117 . S
O33 C39 1.250 . S
C34 O40 1.248 . S
C34 O41 1.264 . S
C35 O21 1.253 . S
C35 O23 1.260 . S
C36 O25 1.279 . S
C36 O26 1.250 . S
C37 O27 1.264 . S
C37 O31 1.248 . S
C38 O28 1.260 . S
C38 O32 1.253 . S
C39 O30 1.279 . S
C39 O33 1.250 . S
O40 Mg22 2.030 . S
O40 C34 1.248 . S
O41 Mg24 2.079 . S
O41 C34 1.264 . S
P42 O53 1.490 . S
P42 C56 1.812 . S
P42 C62 1.803 1_545 S
P42 C68 1.819 . S
H43 C57 0.941 . S
H44 C58 0.940 . S
H45 C60 0.940 . S
H46 C61 0.940 . S
H47 C63 0.939 . S
H48 C64 0.942 . S
H49 C66 0.940 . S
H50 C67 0.939 . S
H51 C69 0.941 . S
H52 C73 0.939 . S
O53 P42 1.490 . S
H54 C70 0.939 . S
H55 C72 0.940 . S
C56 P42 1.812 . S
C56 C57 1.389 . S
C56 C61 1.391 1_455 S
C57 H43 0.941 . S
C57 C56 1.389 . S
C57 C58 1.397 1_455 S
C58 H44 0.940 . S
C58 C57 1.397 1_655 S
C58 C59 1.378 . S
C59 C58 1.378 . S
C59 C60 1.378 . S
C60 H45 0.940 . S
C60 C59 1.378 . S
C60 C61 1.396 . S
C61 H46 0.940 . S
C61 C56 1.391 1_655 S
C61 C60 1.396 . S
C62 P42 1.803 1_565 S
C62 C63 1.378 . S
C62 C67 1.400 . S
C63 H47 0.939 . S
C63 C62 1.378 . S
C63 C64 1.361 . S
C64 H48 0.942 . S
C64 C63 1.361 . S
C64 C65 1.369 . S
C65 C64 1.369 . S
C65 C66 1.404 . S
C66 H49 0.940 . S
C66 C65 1.404 . S
C66 C67 1.389 . S
C67 H50 0.939 . S
C67 C62 1.400 . S
C67 C66 1.389 . S
C68 P42 1.819 . S
C68 C69 1.391 . S
C68 C73 1.391 1_545 S
C69 H51 0.941 . S
C69 C68 1.391 . S
C69 C70 1.396 . S
C70 H54 0.939 . S
C70 C69 1.396 . S
C70 C71 1.397 . S
C71 C70 1.397 . S
C71 C72 1.385 1_545 S
C72 H55 0.940 . S
C72 C71 1.385 1_565 S
C72 C73 1.388 . S
C73 H52 0.939 . S
C73 C68 1.391 1_565 S
C73 C72 1.388 . S
P74 O85 1.490 1_545 S
P74 C88 1.797 1_445 S
P74 C94 1.803 . S
P74 C100 1.819 . S
H75 C89 0.941 . S
H76 C90 0.939 . S
H77 C92 0.940 1_545 S
H78 C93 0.940 . S
H79 C95 0.939 . S
H80 C96 0.942 . S
H81 C98 0.940 . S
H82 C99 0.955 . S
H83 C101 0.941 1_565 S
H84 C105 0.939 . S
O85 P74 1.490 1_565 S
H86 C102 0.939 1_565 S
H87 C104 0.940 . S
C88 P74 1.797 1_665 S
C88 C89 1.402 1_655 S
C88 C93 1.395 1_565 S
C89 H75 0.941 . S
C89 C88 1.402 1_455 S
C89 C90 1.397 1_455 S
C90 H76 0.939 . S
C90 C89 1.397 1_655 S
C90 C91 1.378 . S
C91 C90 1.378 . S
C91 C92 1.378 . S
C92 H77 0.940 1_565 S
C92 C91 1.378 . S
C92 C93 1.396 1_565 S
C93 H78 0.940 . S
C93 C88 1.395 1_545 S
C93 C92 1.396 1_545 S
C94 P74 1.803 . S
C94 C95 1.378 . S
C94 C99 1.400 . S
C95 H79 0.939 . S
C95 C94 1.378 . S
C95 C96 1.361 . S
C96 H80 0.942 . S
C96 C95 1.361 . S
C96 C97 1.369 . S
C97 C96 1.369 . S
C97 C98 1.404 . S
C98 H81 0.940 . S
C98 C97 1.404 . S
C98 C99 1.389 . S
C99 H82 0.955 . S
C99 C94 1.400 . S
C99 C98 1.389 . S
C100 P74 1.819 . S
C100 C101 1.391 . S
C100 C105 1.391 . S
C101 H83 0.941 1_545 S
C101 C100 1.391 . S
C101 C102 1.396 . S
C102 H86 0.939 1_545 S
C102 C101 1.396 . S
C102 C103 1.397 . S
C103 C102 1.397 . S
C103 C104 1.385 . S
C104 H87 0.940 . S
C104 C103 1.385 . S
C104 C105 1.388 . S
C105 H84 0.939 . S
C105 C100 1.391 . S
C105 C104 1.388 . S
P106 O117 1.490 . S
P106 C120 1.812 . S
P106 C126 1.803 . S
P106 C132 1.819 . S
H107 C121 0.941 . S
H108 C122 0.939 1_554 S
H109 C124 0.940 . S
H110 C125 0.940 . S
H111 C127 0.939 . S
H112 C128 0.942 . S
H113 C130 0.940 . S
H114 C131 0.939 . S
H115 C133 0.941 . S
H116 C137 0.939 . S
O117 P106 1.490 . S
H118 C134 0.939 . S
H119 C136 0.940 . S
C120 P106 1.812 . S
C120 C121 1.389 . S
C120 C125 1.391 . S
C121 H107 0.941 . S
C121 C120 1.389 . S
C121 C122 1.397 . S
C122 H108 0.939 1_556 S
C122 C121 1.397 . S
C122 C123 1.378 . S
C123 C122 1.378 . S
C123 C124 1.378 . S
C124 H109 0.940 . S
C124 C123 1.378 . S
C124 C125 1.396 . S
C125 H110 0.940 . S
C125 C120 1.391 . S
C125 C124 1.396 . S
C126 P106 1.803 . S
C126 C127 1.378 . S
C126 C131 1.400 . S
C127 H111 0.939 . S
C127 C126 1.378 . S
C127 C128 1.361 . S
C128 H112 0.942 . S
C128 C127 1.361 . S
C128 C129 1.369 . S
C129 C128 1.369 . S
C129 C130 1.404 . S
C130 H113 0.940 . S
C130 C129 1.404 . S
C130 C131 1.389 . S
C131 H114 0.939 . S
C131 C126 1.400 . S
C131 C130 1.389 . S
C132 P106 1.819 . S
C132 C133 1.391 . S
C132 C137 1.391 . S
C133 H115 0.941 . S
C133 C132 1.391 . S
C133 C134 1.396 . S
C134 H118 0.939 . S
C134 C133 1.396 . S
C134 C135 1.397 . S
C135 C134 1.397 . S
C135 C136 1.385 . S
C136 H119 0.940 . S
C136 C135 1.385 . S
C136 C137 1.388 . S
C137 H116 0.939 . S
C137 C132 1.391 . S
C137 C136 1.388 . S
P138 O149 1.490 . S
P138 C152 1.812 . S
P138 C158 1.803 . S
P138 C164 1.819 . S
H139 C153 0.941 . S
H140 C154 0.939 . S
H141 C156 0.940 . S
H142 C157 0.940 . S
H143 C159 0.939 . S
H144 C160 0.942 . S
H145 C162 0.940 . S
H146 C163 0.939 . S
H147 C165 0.941 . S
H148 C169 0.939 . S
O149 P138 1.490 . S
H150 C166 0.939 . S
H151 C168 0.940 . S
C152 P138 1.812 . S
C152 C153 1.389 . S
C152 C157 1.391 . S
C153 H139 0.941 . S
C153 C152 1.389 . S
C153 C154 1.397 . S
C154 H140 0.939 . S
C154 C153 1.397 . S
C154 C155 1.378 . S
C155 C154 1.378 . S
C155 C156 1.378 . S
C156 H141 0.940 . S
C156 C155 1.378 . S
C156 C157 1.396 . S
C157 H142 0.940 . S
C157 C152 1.391 . S
C157 C156 1.396 . S
C158 P138 1.803 . S
C158 C159 1.378 . S
C158 C163 1.400 . S
C159 H143 0.939 . S
C159 C158 1.378 . S
C159 C160 1.361 . S
C160 H144 0.942 . S
C160 C159 1.361 . S
C160 C161 1.369 . S
C161 C160 1.369 . S
C161 C162 1.404 . S
C162 H145 0.940 . S
C162 C161 1.404 . S
C162 C163 1.389 . S
C163 H146 0.939 . S
C163 C158 1.400 . S
C163 C162 1.389 . S
C164 P138 1.819 . S
C164 C165 1.391 . S
C164 C169 1.391 . S
C165 H147 0.941 . S
C165 C164 1.391 . S
C165 C166 1.396 . S
C166 H150 0.939 . S
C166 C165 1.396 . S
C166 C167 1.397 . S
C167 C166 1.397 . S
C167 C168 1.385 . S
C168 H151 0.940 . S
C168 C167 1.385 . S
C168 C169 1.388 . S
C169 H148 0.939 . S
C169 C164 1.391 . S
C169 C168 1.388 . S
H170 C182 0.930 . S
H171 C184 0.930 . S
H172 C185 0.930 . S
H173 C189 0.959 . S
H174 C189 0.959 . S
H175 C189 0.961 . S
H176 C190 0.960 . S
H177 C190 0.961 . S
H178 C190 0.959 . S
H179 C193 0.929 . S
H180 C194 0.931 . S
H181 C196 0.930 1_556 S
C182 H170 0.930 . S
C182 C183 1.399 1_556 S
C182 C187 1.399 1_556 S
C183 C182 1.399 1_554 S
C183 C184 1.376 . S
C184 H171 0.930 . S
C184 C183 1.376 . S
C184 C185 1.388 . S
C185 H172 0.930 . S
C185 C184 1.388 . S
C185 C186 1.390 . S
C186 C185 1.390 . S
C186 C187 1.394 . S
C186 C192 1.465 . S
C187 C182 1.399 1_554 S
C187 C186 1.394 . S
C187 C188 1.516 1_554 S
C188 C187 1.516 1_556 S
C188 C189 1.502 . S
C188 C190 1.561 . S
C188 C191 1.526 1_556 S
C189 H173 0.959 . S
C189 H174 0.959 . S
C189 H175 0.961 . S
C189 C188 1.502 . S
C190 H176 0.960 . S
C190 H177 0.961 . S
C190 H178 0.959 . S
C190 C188 1.561 . S
C191 C188 1.526 1_554 S
C191 C192 1.396 . S
C191 C196 1.390 . S
C192 C186 1.465 . S
C192 C191 1.396 . S
C192 C193 1.399 . S
C193 H179 0.929 . S
C193 C192 1.399 . S
C193 C194 1.385 . S
C194 H180 0.931 . S
C194 C193 1.385 . S
C194 C195 1.389 . S
C195 C194 1.389 . S
C195 C196 1.387 . S
C196 H181 0.930 1_554 S
C196 C191 1.390 . S
C196 C195 1.387 . S
H197 C209 0.930 . S
H198 C211 0.930 . S
H199 C212 0.930 . S
H200 C216 0.959 . S
H201 C216 0.959 . S
H202 C216 0.961 . S
H203 C217 0.960 . S
H204 C217 0.961 . S
H205 C217 0.959 . S
H206 C220 0.929 . S
H207 C221 0.931 . S
H208 C223 0.930 . S
C209 H197 0.930 . S
C209 C210 1.399 1_556 S
C209 C214 1.399 . S
C210 C209 1.399 1_554 S
C210 C211 1.376 . S
C211 H198 0.930 . S
C211 C210 1.376 . S
C211 C212 1.388 . S
C212 H199 0.930 . S
C212 C211 1.388 . S
C212 C213 1.390 . S
C213 C212 1.390 . S
C213 C214 1.394 1_554 S
C213 C219 1.465 . S
C214 C209 1.399 . S
C214 C213 1.394 1_556 S
C214 C215 1.516 . S
C215 C214 1.516 . S
C215 C216 1.502 . S
C215 C217 1.561 . S
C215 C218 1.526 . S
C216 H200 0.959 . S
C216 H201 0.959 . S
C216 H202 0.961 . S
C216 C215 1.502 . S
C217 H203 0.960 . S
C217 H204 0.961 . S
C217 H205 0.959 . S
C217 C215 1.561 . S
C218 C215 1.526 . S
C218 C219 1.396 1_556 S
C218 C223 1.390 . S
C219 C213 1.465 . S
C219 C218 1.396 1_554 S
C219 C220 1.399 . S
C220 H206 0.929 . S
C220 C219 1.399 . S
C220 C221 1.385 . S
C221 H207 0.931 . S
C221 C220 1.385 . S
C221 C222 1.389 1_554 S
C222 C221 1.389 1_556 S
C222 C223 1.387 . S
C223 H208 0.930 . S
C223 C218 1.390 . S
C223 C222 1.387 . S
H224 C236 0.930 . S
H225 C238 0.930 . S
H226 C239 0.930 . S
H227 C243 0.959 . S
H228 C243 0.959 . S
H229 C243 0.961 . S
H230 C244 0.960 . S
H231 C244 0.961 . S
H232 C244 0.959 . S
H233 C247 0.929 1_556 S
H234 C248 0.931 . S
H235 C250 0.930 . S
C236 H224 0.930 . S
C236 C237 1.399 . S
C236 C241 1.399 . S
C237 C236 1.399 . S
C237 C238 1.376 1_554 S
C238 H225 0.930 . S
C238 C237 1.376 1_556 S
C238 C239 1.388 . S
C239 H226 0.930 . S
C239 C238 1.388 . S
C239 C240 1.390 1_556 S
C240 C239 1.390 1_554 S
C240 C241 1.394 . S
C240 C246 1.465 . S
C241 C236 1.399 . S
C241 C240 1.394 . S
C241 C242 1.516 . S
C242 C241 1.516 . S
C242 C243 1.502 . S
C242 C244 1.561 . S
C242 C245 1.526 . S
C243 H227 0.959 . S
C243 H228 0.959 . S
C243 H229 0.961 . S
C243 C242 1.502 . S
C244 H230 0.960 . S
C244 H231 0.961 . S
C244 H232 0.959 . S
C244 C242 1.561 . S
C245 C242 1.526 . S
C245 C246 1.396 . S
C245 C250 1.390 . S
C246 C240 1.465 . S
C246 C245 1.396 . S
C246 C247 1.399 . S
C247 H233 0.929 1_554 S
C247 C246 1.399 . S
C247 C248 1.385 . S
C248 H234 0.931 . S
C248 C247 1.385 . S
C248 C249 1.389 . S
C249 C248 1.389 . S
C249 C250 1.387 . S
C250 H235 0.930 . S
C250 C245 1.390 . S
C250 C249 1.387 . S
H251 C263 0.930 . S
H252 C265 0.930 . S
H253 C266 0.930 . S
H254 C270 0.959 . S
H255 C270 0.959 . S
H256 C270 0.961 . S
H257 C271 0.960 . S
H258 C271 0.961 . S
H259 C271 0.959 . S
H260 C274 0.929 . S
H261 C275 0.931 . S
H262 C277 0.930 . S
C263 H251 0.930 . S
C263 C264 1.399 1_556 S
C263 C268 1.399 . S
C264 C263 1.399 1_554 S
C264 C265 1.376 . S
C265 H252 0.930 . S
C265 C264 1.376 . S
C265 C266 1.388 . S
C266 H253 0.930 . S
C266 C265 1.388 . S
C266 C267 1.390 . S
C267 C266 1.390 . S
C267 C268 1.394 1_554 S
C267 C273 1.462 1_554 S
C268 C263 1.399 . S
C268 C267 1.394 1_556 S
C268 C269 1.516 . S
C269 C268 1.516 . S
C269 C270 1.502 . S
C269 C271 1.561 . S
C269 C272 1.526 . S
C270 H254 0.959 . S
C270 H255 0.959 . S
C270 H256 0.961 . S
C270 C269 1.502 . S
C271 H257 0.960 . S
C271 H258 0.961 . S
C271 H259 0.959 . S
C271 C269 1.561 . S
C272 C269 1.526 . S
C272 C273 1.409 . S
C272 C277 1.390 . S
C273 C267 1.462 1_556 S
C273 C272 1.409 . S
C273 C274 1.391 1_556 S
C274 H260 0.929 . S
C274 C273 1.391 1_554 S
C274 C275 1.385 . S
C275 H261 0.931 . S
C275 C274 1.385 . S
C275 C276 1.389 1_554 S
C276 C275 1.389 1_556 S
C276 C277 1.387 . S
C277 H262 0.930 . S
C277 C272 1.390 . S
C277 C276 1.387 . S
H278 C290 0.930 . S
H279 C292 0.930 . S
H280 C293 0.930 . S
H281 C297 0.959 . S
H282 C297 0.959 . S
H283 C297 0.961 . S
H284 C298 0.960 . S
H285 C298 0.961 . S
H286 C298 0.959 . S
H287 C301 0.929 . S
H288 C302 0.931 . S
H289 C304 0.930 . S
C290 H278 0.930 . S
C290 C291 1.399 . S
C290 C295 1.399 . S
C291 C290 1.399 . S
C291 C292 1.376 . S
C292 H279 0.930 . S
C292 C291 1.376 . S
C292 C293 1.388 . S
C293 H280 0.930 . S
C293 C292 1.388 . S
C293 C294 1.390 . S
C294 C293 1.390 . S
C294 C295 1.394 . S
C294 C300 1.465 . S
C295 C290 1.399 . S
C295 C294 1.394 . S
C295 C296 1.516 . S
C296 C295 1.516 . S
C296 C297 1.502 . S
C296 C298 1.561 . S
C296 C299 1.526 . S
C297 H281 0.959 . S
C297 H282 0.959 . S
C297 H283 0.961 . S
C297 C296 1.502 . S
C298 H284 0.960 . S
C298 H285 0.961 . S
C298 H286 0.959 . S
C298 C296 1.561 . S
C299 C296 1.526 . S
C299 C300 1.396 . S
C299 C304 1.390 . S
C300 C294 1.465 . S
C300 C299 1.396 . S
C300 C301 1.399 . S
C301 H287 0.929 . S
C301 C300 1.399 . S
C301 C302 1.385 . S
C302 H288 0.931 . S
C302 C301 1.385 . S
C302 C303 1.389 . S
C303 C302 1.389 . S
C303 C304 1.387 . S
C304 H289 0.930 . S
C304 C299 1.390 . S
C304 C303 1.387 . S
H305 C317 0.930 . S
H306 C319 0.930 . S
H307 C320 0.930 . S
H308 C324 0.959 . S
H309 C324 0.959 . S
H310 C324 0.961 . S
H311 C325 0.960 . S
H312 C325 0.961 . S
H313 C325 0.959 . S
H314 C328 0.929 . S
H315 C329 0.931 . S
H316 C331 0.930 . S
C317 H305 0.930 . S
C317 C318 1.399 . S
C317 C322 1.399 . S
C318 C317 1.399 . S
C318 C319 1.376 . S
C319 H306 0.930 . S
C319 C318 1.376 . S
C319 C320 1.388 . S
C320 H307 0.930 . S
C320 C319 1.388 . S
C320 C321 1.390 . S
C321 C320 1.390 . S
C321 C322 1.394 . S
C321 C327 1.465 . S
C322 C317 1.399 . S
C322 C321 1.394 . S
C322 C323 1.516 . S
C323 C322 1.516 . S
C323 C324 1.502 . S
C323 C325 1.561 . S
C323 C326 1.526 . S
C324 H308 0.959 . S
C324 H309 0.959 . S
C324 H310 0.961 . S
C324 C323 1.502 . S
C325 H311 0.960 . S
C325 H312 0.961 . S
C325 H313 0.959 . S
C325 C323 1.561 . S
C326 C323 1.526 . S
C326 C327 1.396 . S
C326 C331 1.390 . S
C327 C321 1.465 . S
C327 C326 1.396 . S
C327 C328 1.399 . S
C328 H314 0.929 . S
C328 C327 1.399 . S
C328 C329 1.385 . S
C329 H315 0.931 . S
C329 C328 1.385 . S
C329 C330 1.389 . S
C330 C329 1.389 . S
C330 C331 1.387 . S
C331 H316 0.930 . S
C331 C326 1.390 . S
C331 C330 1.387 . S
H332 C344 0.930 . S
H333 C346 0.930 . S
H334 C347 0.930 . S
H335 C351 0.959 . S
H336 C351 0.959 . S
H337 C351 0.961 . S
H338 C352 0.960 . S
H339 C352 0.961 . S
H340 C352 0.959 . S
H341 C355 0.929 . S
H342 C356 0.931 . S
H343 C358 0.930 . S
C344 H332 0.930 . S
C344 C345 1.399 . S
C344 C349 1.399 . S
C345 C344 1.399 . S
C345 C346 1.376 . S
C346 H333 0.930 . S
C346 C345 1.376 . S
C346 C347 1.388 . S
C347 H334 0.930 . S
C347 C346 1.388 . S
C347 C348 1.390 . S
C348 C347 1.390 . S
C348 C349 1.394 . S
C348 C354 1.465 . S
C349 C344 1.399 . S
C349 C348 1.394 . S
C349 C350 1.516 . S
C350 C349 1.516 . S
C350 C351 1.502 . S
C350 C352 1.561 . S
C350 C353 1.526 . S
C351 H335 0.959 . S
C351 H336 0.959 . S
C351 H337 0.961 . S
C351 C350 1.502 . S
C352 H338 0.960 . S
C352 H339 0.961 . S
C352 H340 0.959 . S
C352 C350 1.561 . S
C353 C350 1.526 . S
C353 C354 1.396 . S
C353 C358 1.390 . S
C354 C348 1.465 . S
C354 C353 1.396 . S
C354 C355 1.399 . S
C355 H341 0.929 . S
C355 C354 1.399 . S
C355 C356 1.385 . S
C356 H342 0.931 . S
C356 C355 1.385 . S
C356 C357 1.389 . S
C357 C356 1.389 . S
C357 C358 1.387 . S
C358 H343 0.930 . S
C358 C353 1.390 . S
C358 C357 1.387 . S
H359 C371 0.930 . S
H360 C373 0.930 . S
H361 C374 0.930 . S
H362 C378 0.959 . S
H363 C378 0.959 . S
H364 C378 0.961 . S
H365 C379 0.960 . S
H366 C379 0.961 . S
H367 C379 0.959 . S
H368 C382 0.929 . S
H369 C383 0.931 . S
H370 C385 0.930 . S
C371 H359 0.930 . S
C371 C372 1.399 . S
C371 C376 1.399 . S
C372 C371 1.399 . S
C372 C373 1.376 . S
C373 H360 0.930 . S
C373 C372 1.376 . S
C373 C374 1.388 . S
C374 H361 0.930 . S
C374 C373 1.388 . S
C374 C375 1.390 . S
C375 C374 1.390 . S
C375 C376 1.394 . S
C375 C381 1.465 . S
C376 C371 1.399 . S
C376 C375 1.394 . S
C376 C377 1.516 . S
C377 C376 1.516 . S
C377 C378 1.502 . S
C377 C379 1.561 . S
C377 C380 1.526 . S
C378 H362 0.959 . S
C378 H363 0.959 . S
C378 H364 0.961 . S
C378 C377 1.502 . S
C379 H365 0.960 . S
C379 H366 0.961 . S
C379 H367 0.959 . S
C379 C377 1.561 . S
C380 C377 1.526 . S
C380 C381 1.396 . S
C380 C385 1.390 . S
C381 C375 1.465 . S
C381 C380 1.396 . S
C381 C382 1.399 . S
C382 H368 0.929 . S
C382 C381 1.399 . S
C382 C383 1.385 . S
C383 H369 0.931 . S
C383 C382 1.385 . S
C383 C384 1.389 . S
C384 C383 1.389 . S
C384 C385 1.387 . S
C385 H370 0.930 . S
C385 C380 1.390 . S
C385 C384 1.387 . S
H386 C398 0.930 . S
H387 C400 0.930 . S
H388 C401 0.930 . S
H389 C405 0.959 . S
H390 C405 0.959 . S
H391 C405 0.961 . S
H392 C406 0.960 . S
H393 C406 0.961 . S
H394 C406 0.959 . S
H395 C409 0.929 . S
H396 C410 0.931 . S
H397 C412 0.930 . S
C398 H386 0.930 . S
C398 C399 1.399 1_565 S
C398 C403 1.399 . S
C399 C398 1.399 1_545 S
C399 C400 1.376 . S
C400 H387 0.930 . S
C400 C399 1.376 . S
C400 C401 1.388 . S
C401 H388 0.930 . S
C401 C400 1.388 . S
C401 C402 1.390 . S
C402 C401 1.390 . S
C402 C403 1.394 1_545 S
C402 C408 1.465 . S
C403 C398 1.399 . S
C403 C402 1.394 1_565 S
C403 C404 1.516 . S
C404 C403 1.516 . S
C404 C405 1.502 1_455 S
C404 C406 1.561 . S
C404 C407 1.526 . S
C405 H389 0.959 . S
C405 H390 0.959 . S
C405 H391 0.961 . S
C405 C404 1.502 1_655 S
C406 H392 0.960 . S
C406 H393 0.961 . S
C406 H394 0.959 . S
C406 C404 1.561 . S
C407 C404 1.526 . S
C407 C408 1.396 1_565 S
C407 C412 1.390 . S
C408 C402 1.465 . S
C408 C407 1.396 1_545 S
C408 C409 1.399 . S
C409 H395 0.929 . S
C409 C408 1.399 . S
C409 C410 1.385 . S
C410 H396 0.931 . S
C410 C409 1.385 . S
C410 C411 1.389 . S
C411 C410 1.389 . S
C411 C412 1.387 1_545 S
C412 H397 0.930 . S
C412 C407 1.390 . S
C412 C411 1.387 1_565 S
H413 C425 0.930 . S
H414 C427 0.930 . S
H415 C428 0.930 . S
H416 C432 0.959 . S
H417 C432 0.959 . S
H418 C432 0.961 . S
H419 C433 0.960 . S
H420 C433 0.961 . S
H421 C433 0.959 . S
H422 C436 0.929 1_565 S
H423 C437 0.931 . S
H424 C439 0.930 . S
C425 H413 0.930 . S
C425 C426 1.399 . S
C425 C430 1.399 . S
C426 C425 1.399 . S
C426 C427 1.376 1_545 S
C427 H414 0.930 . S
C427 C426 1.376 1_565 S
C427 C428 1.388 . S
C428 H415 0.930 . S
C428 C427 1.388 . S
C428 C429 1.390 1_565 S
C429 C428 1.390 1_545 S
C429 C430 1.394 . S
C429 C435 1.465 . S
C430 C425 1.399 . S
C430 C429 1.394 . S
C430 C431 1.516 . S
C431 C430 1.516 . S
C431 C432 1.502 1_455 S
C431 C433 1.561 . S
C431 C434 1.526 . S
C432 H416 0.959 . S
C432 H417 0.959 . S
C432 H418 0.961 . S
C432 C431 1.502 1_655 S
C433 H419 0.960 . S
C433 H420 0.961 . S
C433 H421 0.959 . S
C433 C431 1.561 . S
C434 C431 1.526 . S
C434 C435 1.396 . S
C434 C439 1.390 1_455 S
C435 C429 1.465 . S
C435 C434 1.396 . S
C435 C436 1.399 . S
C436 H422 0.929 1_545 S
C436 C435 1.399 . S
C436 C437 1.385 . S
C437 H423 0.931 . S
C437 C436 1.385 . S
C437 C438 1.389 . S
C438 C437 1.389 . S
C438 C439 1.387 1_455 S
C439 H424 0.930 . S
C439 C434 1.390 1_655 S
C439 C438 1.387 1_655 S
H440 C452 0.930 . S
H441 C454 0.930 . S
H442 C455 0.930 . S
H443 C459 0.959 . S
H444 C459 0.959 . S
H445 C459 0.961 . S
H446 C460 0.960 . S
H447 C460 0.961 . S
H448 C460 0.959 . S
H449 C463 0.929 . S
H450 C464 0.931 . S
H451 C466 0.930 . S
C452 H440 0.930 . S
C452 C453 1.399 . S
C452 C457 1.399 . S
C453 C452 1.399 . S
C453 C454 1.376 . S
C454 H441 0.930 . S
C454 C453 1.376 . S
C454 C455 1.388 . S
C455 H442 0.930 . S
C455 C454 1.388 . S
C455 C456 1.390 . S
C456 C455 1.390 . S
C456 C457 1.394 . S
C456 C462 1.465 . S
C457 C452 1.399 . S
C457 C456 1.394 . S
C457 C458 1.516 . S
C458 C457 1.516 . S
C458 C459 1.502 . S
C458 C460 1.561 . S
C458 C461 1.526 . S
C459 H443 0.959 . S
C459 H444 0.959 . S
C459 H445 0.961 . S
C459 C458 1.502 . S
C460 H446 0.960 . S
C460 H447 0.961 . S
C460 H448 0.959 . S
C460 C458 1.561 . S
C461 C458 1.526 . S
C461 C462 1.396 . S
C461 C466 1.390 . S
C462 C456 1.465 . S
C462 C461 1.396 . S
C462 C463 1.399 . S
C463 H449 0.929 . S
C463 C462 1.399 . S
C463 C464 1.385 . S
C464 H450 0.931 . S
C464 C463 1.385 . S
C464 C465 1.389 . S
C465 C464 1.389 . S
C465 C466 1.387 . S
C466 H451 0.930 . S
C466 C461 1.390 . S
C466 C465 1.387 . S
H467 C479 0.930 . S
H468 C481 0.930 . S
H469 C482 0.930 . S
H470 C486 0.959 . S
H471 C486 0.959 . S
H472 C486 0.961 . S
H473 C487 0.960 . S
H474 C487 0.961 . S
H475 C487 0.959 . S
H476 C490 0.929 . S
H477 C491 0.931 . S
H478 C493 0.930 . S
C479 H467 0.930 . S
C479 C480 1.399 . S
C479 C484 1.399 . S
C480 C479 1.399 . S
C480 C481 1.376 . S
C481 H468 0.930 . S
C481 C480 1.376 . S
C481 C482 1.388 . S
C482 H469 0.930 . S
C482 C481 1.388 . S
C482 C483 1.390 . S
C483 C482 1.390 . S
C483 C484 1.394 . S
C483 C489 1.465 . S
C484 C479 1.399 . S
C484 C483 1.394 . S
C484 C485 1.516 . S
C485 C484 1.516 . S
C485 C486 1.502 . S
C485 C487 1.561 . S
C485 C488 1.526 . S
C486 H470 0.959 . S
C486 H471 0.959 . S
C486 H472 0.961 . S
C486 C485 1.502 . S
C487 H473 0.960 . S
C487 H474 0.961 . S
C487 H475 0.959 . S
C487 C485 1.561 . S
C488 C485 1.526 . S
C488 C489 1.396 . S
C488 C493 1.390 . S
C489 C483 1.465 . S
C489 C488 1.396 . S
C489 C490 1.399 . S
C490 H476 0.929 . S
C490 C489 1.399 . S
C490 C491 1.385 . S
C491 H477 0.931 . S
C491 C490 1.385 . S
C491 C492 1.389 . S
C492 C491 1.389 . S
C492 C493 1.387 . S
C493 H478 0.930 . S
C493 C488 1.390 . S
C493 C492 1.387 . S
C195 C155 1.373 . S
C183 C15 1.243 . S
C210 C13 1.448 . S
C222 C123 1.453 . S
C237 C18 1.269 . S
C249 C161 1.401 . S
C264 C17 1.312 1_554 S
C276 C129 1.378 . S
C291 C36 1.273 . S
C303 C91 1.390 . S
C318 C34 1.500 . S
C330 C59 1.443 . S
C357 C97 1.390 . S
C345 C39 1.347 . S
C384 C65 1.323 . S
C372 C38 1.332 . S
C399 C14 1.465 . S
C411 C71 1.486 . S
C426 C16 1.401 . S
C438 C103 1.332 . S
C465 C135 1.488 . S
C453 C35 1.466 . S
C480 C37 1.340 . S
C492 C167 1.410 . S
