# Generated by pormake.
# Topology anh, (6,3)-cn, num edge types: 1
# Building blocks:
#     Node 0, Type 0, BuildingBlock: GEDQOX_clean_sbu_0, # of connection points: 6
#     Node 1, Type 0, BuildingBlock: GEDQOX_clean_sbu_0, # of connection points: 6
#     Node 2, Type 0, BuildingBlock: GEDQOX_clean_sbu_0, # of connection points: 6
#     Node 3, Type 1, BuildingBlock: PAMTOO_clean_linker_0, # of connection points: 3
#     Node 4, Type 1, BuildingBlock: PAMTOO_clean_linker_0, # of connection points: 3
#     Node 5, Type 1, BuildingBlock: PAMTOO_clean_linker_0, # of connection points: 3
#     Node 6, Type 1, BuildingBlock: PAMTOO_clean_linker_0, # of connection points: 3
#     Node 7, Type 1, BuildingBlock: PAMTOO_clean_linker_0, # of connection points: 3
#     Node 8, Type 1, BuildingBlock: PAMTOO_clean_linker_0, # of connection points: 3
#     Edge 9, Type (0, 1), BuildingBlock: EZIPEK_clean_linker_0, # of connection points: 2
#     Edge 10, Type (0, 1), BuildingBlock: EZIPEK_clean_linker_0, # of connection points: 2
#     Edge 11, Type (0, 1), BuildingBlock: EZIPEK_clean_linker_0, # of connection points: 2
#     Edge 12, Type (0, 1), BuildingBlock: EZIPEK_clean_linker_0, # of connection points: 2
#     Edge 13, Type (0, 1), BuildingBlock: EZIPEK_clean_linker_0, # of connection points: 2
#     Edge 14, Type (0, 1), BuildingBlock: EZIPEK_clean_linker_0, # of connection points: 2
#     Edge 15, Type (0, 1), BuildingBlock: EZIPEK_clean_linker_0, # of connection points: 2
#     Edge 16, Type (0, 1), BuildingBlock: EZIPEK_clean_linker_0, # of connection points: 2
#     Edge 17, Type (0, 1), BuildingBlock: EZIPEK_clean_linker_0, # of connection points: 2
#     Edge 18, Type (0, 1), BuildingBlock: EZIPEK_clean_linker_0, # of connection points: 2
#     Edge 19, Type (0, 1), BuildingBlock: EZIPEK_clean_linker_0, # of connection points: 2
#     Edge 20, Type (0, 1), BuildingBlock: EZIPEK_clean_linker_0, # of connection points: 2
#     Edge 21, Type (0, 1), BuildingBlock: EZIPEK_clean_linker_0, # of connection points: 2
#     Edge 22, Type (0, 1), BuildingBlock: EZIPEK_clean_linker_0, # of connection points: 2
#     Edge 23, Type (0, 1), BuildingBlock: EZIPEK_clean_linker_0, # of connection points: 2
#     Edge 24, Type (0, 1), BuildingBlock: EZIPEK_clean_linker_0, # of connection points: 2
#     Edge 25, Type (0, 1), BuildingBlock: EZIPEK_clean_linker_0, # of connection points: 2
#     Edge 26, Type (0, 1), BuildingBlock: EZIPEK_clean_linker_0, # of connection points: 2
# Relax obj value: 0.225
# Max RMSD: 0.216
# Mean RMSD: 0.136
data_MOF--net-anh--node1-GEDQOX_clean_sbu_0--node2-PAMTOO_clean_linker_0--edge1-EZIPEK_clean_linker_0
_symmetry_space_group_name_H-M    P1
_symmetry_Int_Tables_number       1
_symmetry_cell_setting            triclinic
loop_
_symmetry_equiv_pos_as_xyz
'x, y, z'
_cell_length_a     22.91816
_cell_length_b     21.778719
_cell_length_c     36.584374
_cell_angle_alpha  87.590935
_cell_angle_beta   91.818006
_cell_angle_gamma 97.578319
loop_
_atom_site_label
_atom_site_type_symbol
_atom_site_fract_x
_atom_site_fract_y
_atom_site_fract_z
_atom_type_partial_charge
Nd0 Nd 0.12361 0.59415 0.12963 0.0
Nd1 Nd 1.10163 0.45815 0.1361 0.0
C2 C 0.16346 0.71337 0.1185 0.0
C3 C 0.22133 0.75197 0.1172 0.0
C4 C 0.27339 0.72513 0.11414 0.0
C5 C 0.32827 0.75947 0.12168 0.0
C6 C 0.33178 0.82127 0.13203 0.0
C7 C 0.27996 0.84909 0.13288 0.0
C8 C 0.22518 0.81462 0.12566 0.0
C9 C 1.09129 0.55013 0.19859 0.0
C10 C 0.24419 0.51941 0.13388 0.0
C11 C 1.08306 0.33824 0.15537 0.0
C12 C 1.02971 0.29492 0.16401 0.0
C13 C 0.97915 0.31711 0.17618 0.0
C14 C 0.92926 0.27604 0.18541 0.0
C15 C 0.92815 0.21203 0.18146 0.0
C16 C 0.97788 0.18996 0.16782 0.0
C17 C 1.02853 0.23108 0.15954 0.0
C18 C 1.10675 0.5033 0.06468 0.0
C19 C 0.9827 0.53198 0.12285 0.0
O20 O 0.14757 0.67613 0.09169 0.0
O21 O 0.15128 0.68724 0.15052 0.0
O22 O 1.06923 0.59511 0.18132 0.0
O23 O 0.12738 0.52852 0.17898 0.0
O24 O 0.2227 0.57338 0.13395 0.0
O25 O 0.20641 0.46708 0.13455 0.0
O26 O 1.09839 0.38192 0.17847 0.0
O27 O 1.08736 0.35885 0.1215 0.0
O28 O 1.0663 0.46057 0.07666 0.0
O29 O 0.14034 0.52213 0.09077 0.0
O30 O 1.00362 0.48218 0.138 0.0
O31 O 1.0222 0.57961 0.11203 0.0
H32 H 0.27157 0.67696 0.10767 0.0
H33 H 0.36771 0.73711 0.12096 0.0
H34 H 0.28175 0.89662 0.14095 0.0
H35 H 0.18557 0.83599 0.12864 0.0
H36 H 0.97809 0.3662 0.17857 0.0
H37 H 0.89128 0.29424 0.19548 0.0
H38 H 0.97775 0.14083 0.16419 0.0
H39 H 1.06673 0.21309 0.14964 0.0
Nd40 Nd 0.58469 1.01839 0.51228 0.0
Nd41 Nd 0.71381 0.04003 0.49974 0.0
C42 C 0.47767 0.9766 0.53474 0.0
C43 C 0.437 0.92112 0.52552 0.0
C44 C 0.39752 0.89181 0.55136 0.0
C45 C 0.36086 0.83725 0.54286 0.0
C46 C 0.36316 0.81206 0.50831 0.0
C47 C 0.40318 0.84113 0.48276 0.0
C48 C 0.43994 0.89504 0.49131 0.0
C49 C 0.61135 0.0288 0.43911 0.0
C50 C 0.65856 0.8971 0.50658 0.0
C51 C 0.81972 0.07969 0.47534 0.0
C52 C 0.85842 0.13949 0.47267 0.0
C53 C 0.84429 0.18779 0.44858 0.0
C54 C 0.8831 0.24255 0.44468 0.0
C55 C 0.93638 0.25006 0.46488 0.0
C56 C 0.94956 0.20316 0.49006 0.0
C57 C 0.911 0.14806 0.49373 0.0
C58 C 0.68617 1.02372 0.57228 0.0
C59 C 0.64337 0.16208 0.50816 0.0
O60 O 0.52549 0.96595 0.55286 0.0
O61 O 0.48804 1.01865 0.50835 0.0
O62 O 0.56572 0.04817 0.45246 0.0
O63 O 0.6383 1.0007 0.4638 0.0
O64 O 0.61206 0.91893 0.51912 0.0
O65 O 0.70198 0.93509 0.49192 0.0
O66 O 0.77219 0.07376 0.45427 0.0
O67 O 0.81084 0.05494 0.50822 0.0
O68 O 0.73016 1.00235 0.55805 0.0
O69 O 0.66038 0.05595 0.54896 0.0
O70 O 0.69019 0.14047 0.49614 0.0
O71 O 0.5982 0.12372 0.52075 0.0
H72 H 0.39546 0.91078 0.57812 0.0
H73 H 0.33074 0.81483 0.56304 0.0
H74 H 0.40606 0.82185 0.45614 0.0
H75 H 0.47099 0.91615 0.47125 0.0
H76 H 0.80393 0.18294 0.43214 0.0
H77 H 0.87244 0.27835 0.42508 0.0
H78 H 0.99069 0.2083 0.50574 0.0
H79 H 0.92285 0.11163 0.5125 0.0
Nd80 Nd 0.60663 0.56965 0.80455 0.0
Nd81 Nd 0.73464 0.57774 0.82803 0.0
C82 C 0.50944 0.56505 0.76423 0.0
C83 C 0.47383 0.61361 0.75225 0.0
C84 C 0.43366 0.60493 0.72263 0.0
C85 C 0.38497 0.6379 0.721 0.0
C86 C 0.3724 0.66758 0.7529 0.0
C87 C 0.42265 0.69573 0.77207 0.0
C88 C 0.47247 0.66501 0.77398 0.0
C89 C 0.62558 0.57273 0.87935 0.0
C90 C 0.67306 0.70628 0.82083 0.0
C91 C 0.84329 0.58915 0.85396 0.0
C92 C 0.89215 0.559 0.84154 0.0
C93 C 0.93645 0.5446 0.86629 0.0
C94 C 0.98181 0.51423 0.85436 0.0
C95 C 0.98285 0.49741 0.8177 0.0
C96 C 0.93778 0.51024 0.79318 0.0
C97 C 0.89302 0.54146 0.80497 0.0
C98 C 0.71383 0.57275 0.75351 0.0
C99 C 0.66676 0.43903 0.81401 0.0
O100 O 0.5614 0.56897 0.75006 0.0
O101 O 0.50977 0.55143 0.79951 0.0
O102 O 0.58452 0.59925 0.86197 0.0
O103 O 0.65205 0.54295 0.85772 0.0
O104 O 0.62954 0.67531 0.80214 0.0
O105 O 0.71306 0.67698 0.83878 0.0
O106 O 0.8008 0.55203 0.86948 0.0
O107 O 0.82418 0.6294 0.83052 0.0
O108 O 0.75517 0.54768 0.77077 0.0
O109 O 0.6891 0.60284 0.77561 0.0
O110 O 0.71515 0.47137 0.82724 0.0
O111 O 0.62109 0.46638 0.80198 0.0
H112 H 0.43633 0.56887 0.70348 0.0
H113 H 0.35069 0.62563 0.7006 0.0
H114 H 0.41885 0.72896 0.79277 0.0
H115 H 0.50577 0.67632 0.79518 0.0
H116 H 0.93617 0.55719 0.89462 0.0
H117 H 1.01683 0.50479 0.87356 0.0
H118 H 0.93822 0.49778 0.76483 0.0
H119 H 0.85963 0.55252 0.7853 0.0
H120 H 0.73639 0.08845 0.28587 0.0
H121 H 0.57704 0.96241 0.27233 0.0
H122 H 0.68432 1.01869 0.17949 0.0
H123 H 0.55869 1.00818 0.15844 0.0
C124 C 0.54059 0.98031 0.1826 0.0
O125 O 0.58532 0.9543 0.20127 0.0
H126 H 0.52325 1.01507 0.19929 0.0
C127 C 0.70568 0.06014 0.26835 0.0
C128 C 0.71675 0.05769 0.23089 0.0
C129 C 0.65567 1.02546 0.28342 0.0
C130 C 0.61564 0.98926 0.26073 0.0
C131 C 0.62525 0.98775 0.22316 0.0
C132 C 0.67645 1.02086 0.20843 0.0
H133 H 0.67785 0.6716 0.59248 0.0
H134 H 0.66559 0.47329 0.58899 0.0
H135 H 0.65855 0.58339 0.48887 0.0
H136 H 0.60155 0.43815 0.48003 0.0
C137 C 0.61599 0.42706 0.50855 0.0
O138 O 0.66404 0.46961 0.51801 0.0
H139 H 0.57685 0.43257 0.52459 0.0
C140 C 0.67205 0.62979 0.57693 0.0
C141 C 0.66555 0.63473 0.53874 0.0
C142 C 0.67138 0.57196 0.5954 0.0
C143 C 0.66479 0.51806 0.57508 0.0
C144 C 0.6611 0.52168 0.53678 0.0
C145 C 0.66092 0.58023 0.51848 0.0
H146 H 0.12193 0.46881 0.89897 0.0
H147 H 0.29932 0.48855 0.94282 0.0
H148 H 0.2638 0.43929 0.83082 0.0
H149 H 0.42408 0.51622 0.86176 0.0
C150 C 0.38048 0.52618 0.87057 0.0
O151 O 0.34714 0.47057 0.88054 0.0
H152 H 0.39115 0.55443 0.89495 0.0
C153 C 0.1685 0.46689 0.89545 0.0
C154 C 0.18873 0.4538 0.86137 0.0
C155 C 0.20788 0.47821 0.92496 0.0
C156 C 0.26831 0.47824 0.92023 0.0
C157 C 0.28872 0.46541 0.88609 0.0
C158 C 0.24853 0.45022 0.85711 0.0
H159 H 1.04025 0.44864 0.36445 0.0
H160 H 0.20552 0.5662 0.35475 0.0
H161 H 0.15047 0.48978 0.46012 0.0
H162 H 0.20695 0.6512 0.40692 0.0
C163 C 0.24451 0.62962 0.41962 0.0
O164 O 0.23044 0.56623 0.42511 0.0
H165 H 0.27924 0.63832 0.39881 0.0
C166 C 1.0798 0.47282 0.37696 0.0
C167 C 1.0919 0.46281 0.41437 0.0
C168 C 0.12053 0.51026 0.35517 0.0
C169 C 0.173 0.53833 0.37144 0.0
C170 C 0.18193 0.5345 0.40953 0.0
C171 C 0.14144 0.49636 0.43107 0.0
H172 H 0.67981 0.93232 0.73389 0.0
H173 H 0.67809 0.12922 0.73536 0.0
H174 H 0.67952 1.02156 0.83679 0.0
H175 H 0.62471 0.15103 0.84458 0.0
C176 C 0.63655 0.16566 0.81603 0.0
O177 O 0.6835 0.13593 0.80638 0.0
H178 H 0.59578 0.14911 0.80022 0.0
C179 C 0.67881 0.97381 0.74915 0.0
C180 C 0.67837 0.96927 0.78749 0.0
C181 C 0.67783 0.031 0.73015 0.0
C182 C 0.67723 0.08478 0.74988 0.0
C183 C 0.67799 0.08203 0.78822 0.0
C184 C 0.67821 1.02393 0.80716 0.0
H185 H 0.7467 0.53467 0.03669 0.0
H186 H 0.56236 0.54093 0.04493 0.0
H187 H 0.67 0.53225 0.14382 0.0
H188 H 0.51016 0.45423 0.13372 0.0
C189 C 0.50284 0.49401 0.11496 0.0
O190 O 0.55504 0.53786 0.11583 0.0
H191 H 0.49843 0.47274 0.08775 0.0
C192 C 0.70937 0.53427 0.05422 0.0
C193 C 0.71845 0.53323 0.09264 0.0
C194 C 0.65388 0.53807 0.03752 0.0
C195 C 0.60412 0.5375 0.05882 0.0
C196 C 0.60705 0.53339 0.09717 0.0
C197 C 0.66553 0.53199 0.1143 0.0
C198 C 0.34239 0.54425 0.09833 0.0
C199 C 0.31212 0.51863 0.13035 0.0
C200 C 0.41108 0.49826 0.15656 0.0
C201 C 0.44012 0.51596 0.12287 0.0
N202 N 0.43186 0.56145 0.06242 0.0
N203 N 0.31987 0.46827 0.18967 0.0
C204 C 0.40508 0.54122 0.09425 0.0
C205 C 0.34739 0.49492 0.15928 0.0
N206 N 0.3109 0.57156 0.07132 0.0
N207 N 0.44508 0.4871 0.1868 0.0
H208 H 0.2749 0.4677 0.19351 0.0
H209 H 0.3406 0.44324 0.20992 0.0
H210 H 0.49098 0.49307 0.18629 0.0
H211 H 0.42879 0.47927 0.21305 0.0
H212 H 0.32965 0.59783 0.04928 0.0
H213 H 0.26529 0.57027 0.07161 0.0
H214 H 0.40974 0.57195 0.03817 0.0
H215 H 0.4774 0.56738 0.06042 0.0
C216 C 1.03044 0.29703 0.43621 0.0
C217 C 0.98063 0.3046 0.45683 0.0
C218 C 1.0074 0.41752 0.45357 0.0
C219 C 1.05776 0.40949 0.43375 0.0
N220 N 0.12543 0.34245 0.41397 0.0
N221 N 0.92743 0.36966 0.49148 0.0
C222 C 1.07203 0.34938 0.4278 0.0
C223 C 0.97095 0.36426 0.46758 0.0
N224 N 1.03622 0.24057 0.42268 0.0
N225 N 0.99348 0.47586 0.45784 0.0
H226 H 0.90017 0.33137 0.50217 0.0
H227 H 0.92138 0.41116 0.50301 0.0
H228 H 1.02059 0.51566 0.44899 0.0
H229 H 0.9539 0.48481 0.46833 0.0
H230 H 1.06774 0.23406 0.40383 0.0
H231 H 1.00647 0.20083 0.42768 0.0
H232 H 0.14086 0.29972 0.41267 0.0
H233 H 0.15685 0.37987 0.40694 0.0
C234 C 0.73033 0.81275 0.80746 0.0
C235 C 0.67801 0.77594 0.81966 0.0
C236 C 0.62737 0.86949 0.81678 0.0
C237 C 0.6801 0.90616 0.80555 0.0
N238 N 0.78505 0.91566 0.79965 0.0
N239 N 0.58133 0.77246 0.84445 0.0
C240 C 0.7327 0.8786 0.80432 0.0
C241 C 0.62797 0.80544 0.82703 0.0
N242 N 0.77625 0.78497 0.79591 0.0
N243 N 0.57601 0.89507 0.81601 0.0
H244 H 0.58074 0.72609 0.85293 0.0
H245 H 0.5459 0.79244 0.85363 0.0
H246 H 0.57425 0.942 0.80983 0.0
H247 H 0.53483 0.86918 0.81931 0.0
H248 H 0.81253 0.80921 0.78291 0.0
H249 H 0.77593 0.73713 0.79589 0.0
H250 H 0.82573 0.89923 0.802 0.0
H251 H 0.78792 0.96389 0.79713 0.0
C252 C 0.87062 0.4976 0.14033 0.0
C253 C 0.91397 0.53418 0.11778 0.0
C254 C 0.82844 0.58213 0.08959 0.0
C255 C 0.78486 0.53754 0.10654 0.0
N256 N 0.76994 0.4448 0.14509 0.0
N257 N 0.92458 0.59968 0.06255 0.0
C258 C 0.80768 0.49307 0.1311 0.0
C259 C 0.89009 0.57344 0.09025 0.0
N260 N 0.88841 0.46938 0.17197 0.0
N261 N 0.81123 0.63418 0.0728 0.0
H262 H 0.96685 0.58921 0.05852 0.0
H263 H 0.90799 0.62452 0.04047 0.0
H264 H 0.76786 0.6439 0.07313 0.0
H265 H 0.8412 0.67062 0.06262 0.0
H266 H 0.85892 0.44635 0.19065 0.0
H267 H 0.93161 0.47616 0.1821 0.0
H268 H 0.78435 0.40736 0.1598 0.0
H269 H 0.72481 0.4397 0.1392 0.0
C270 C 0.26522 0.7555 0.48779 0.0
C271 C 0.32525 0.75444 0.49805 0.0
C272 C 0.32558 0.6567 0.4677 0.0
C273 C 0.26733 0.66105 0.45443 0.0
N274 N 0.1746 0.69594 0.46629 0.0
N275 N 0.40358 0.69297 0.51101 0.0
C276 C 0.23458 0.70418 0.46952 0.0
C277 C 0.35231 0.70095 0.49255 0.0
N278 N 0.23855 0.80668 0.49334 0.0
N279 N 0.35654 0.61297 0.45494 0.0
H280 H 0.42388 0.72532 0.52924 0.0
H281 H 0.42192 0.65166 0.51126 0.0
H282 H 0.33781 0.57826 0.43779 0.0
H283 H 0.40148 0.61281 0.46013 0.0
H284 H 0.19694 0.81249 0.48252 0.0
H285 H 0.25942 0.84497 0.50694 0.0
H286 H 0.14817 0.72379 0.4789 0.0
H287 H 0.15143 0.65662 0.45474 0.0
C288 C 0.64548 0.3381 0.78048 0.0
C289 C 0.66304 0.36948 0.81322 0.0
C290 C 0.67908 0.26922 0.84316 0.0
C291 C 0.6518 0.23687 0.81284 0.0
N292 N 0.61035 0.24176 0.75129 0.0
N293 N 0.68772 0.36225 0.87786 0.0
C294 C 0.63568 0.27171 0.78104 0.0
C295 C 0.67791 0.33436 0.84505 0.0
N296 N 0.64075 0.37162 0.74831 0.0
N297 N 0.70738 0.23801 0.87001 0.0
H298 H 0.68551 0.40915 0.88113 0.0
H299 H 0.69201 0.33759 0.90262 0.0
H300 H 0.71118 0.19091 0.86915 0.0
H301 H 0.73289 0.26021 0.89087 0.0
H302 H 0.63532 0.35186 0.7228 0.0
H303 H 0.64762 0.41987 0.74648 0.0
H304 H 0.58927 0.26389 0.72988 0.0
H305 H 0.60827 0.19425 0.7483 0.0
C306 C 0.61293 0.78489 0.4996 0.0
C307 C 0.66224 0.82851 0.50971 0.0
C308 C 0.7182 0.74135 0.52533 0.0
C309 C 0.6663 0.69869 0.52151 0.0
N310 N 0.56258 0.67991 0.50686 0.0
N311 N 0.75937 0.84613 0.53851 0.0
C312 C 0.61331 0.72039 0.50873 0.0
C313 C 0.71459 0.80622 0.52377 0.0
N314 N 0.56617 0.80468 0.48056 0.0
N315 N 0.77113 0.71956 0.53088 0.0
H316 H 0.75779 0.89339 0.54043 0.0
H317 H 0.79553 0.83137 0.55261 0.0
H318 H 0.77493 0.67226 0.53202 0.0
H319 H 0.81135 0.74812 0.53044 0.0
H320 H 0.53187 0.77476 0.46914 0.0
H321 H 0.56405 0.85099 0.47309 0.0
H322 H 0.52141 0.69394 0.50171 0.0
H323 H 0.56112 0.63244 0.51257 0.0
C324 C 1.04333 0.41176 0.81879 0.0
C325 C 1.03474 0.47158 0.80546 0.0
C326 C 0.13943 0.50653 0.80996 0.0
C327 C 0.14634 0.4507 0.83015 0.0
N328 N 1.10877 0.3436 0.8443 0.0
N329 N 1.0745 0.56443 0.77257 0.0
C330 C 1.10031 0.40058 0.83016 0.0
C331 C 1.08325 0.51446 0.79483 0.0
N332 N 0.99631 0.36707 0.82311 0.0
N333 N 0.18421 0.5544 0.80927 0.0
H334 H 1.10866 0.59559 0.76185 0.0
H335 H 1.03284 0.57077 0.76197 0.0
H336 H 0.2253 0.55008 0.82106 0.0
H337 H 0.1799 0.59885 0.79888 0.0
H338 H 1.00065 0.3228 0.83406 0.0
H339 H 0.95378 0.37491 0.81481 0.0
H340 H 0.1499 0.33275 0.85358 0.0
H341 H 0.1499 0.33275 0.85358 0.0
C342 C 0.39615 0.86652 0.18365 0.0
C343 C 0.38855 0.85511 0.14576 0.0
C344 C 0.48846 0.90741 0.13545 0.0
C345 C 0.49094 0.93017 0.1714 0.0
N346 N 0.44806 0.92779 0.23111 0.0
N347 N 0.42606 0.86787 0.08471 0.0
C348 C 0.44525 0.90819 0.19603 0.0
C349 C 0.43453 0.87598 0.12142 0.0
N350 N 0.35738 0.83578 0.20796 0.0
N351 N 0.53804 0.91399 0.11512 0.0
H352 H 0.38726 0.84496 0.0734 0.0
H353 H 0.45561 0.88823 0.06527 0.0
H354 H 0.57915 0.93306 0.12535 0.0
H355 H 0.53991 0.89374 0.08996 0.0
H356 H 0.36374 0.83681 0.23624 0.0
H357 H 0.32144 0.80424 0.19995 0.0
H358 H 0.41255 0.92086 0.24854 0.0
H359 H 0.48521 0.95329 0.24258 0.0
C360 C 0.628 0.25701 0.54271 0.0
C361 C 0.64337 0.23117 0.50982 0.0
C362 C 0.65911 0.33682 0.4815 0.0
C363 C 0.63172 0.36029 0.51135 0.0
N364 N 0.59378 0.34248 0.57242 0.0
N365 N 0.67222 0.24797 0.44669 0.0
C366 C 0.6175 0.32037 0.54263 0.0
C367 C 0.65927 0.27158 0.47904 0.0
N368 N 0.62719 0.2221 0.57471 0.0
N369 N 0.68655 0.37703 0.4558 0.0
H370 H 0.67505 0.20135 0.44334 0.0
H371 H 0.67598 0.27416 0.42219 0.0
H372 H 0.68876 0.42503 0.45688 0.0
H373 H 0.71281 0.36331 0.43572 0.0
H374 H 0.62246 0.2398 0.60028 0.0
H375 H 0.638 0.17701 0.57636 0.0
H376 H 0.57409 0.31386 0.59333 0.0
H377 H 0.59194 0.38931 0.57599 0.0
C378 C 0.31973 0.56784 0.7753 0.0
C379 C 0.32602 0.63281 0.77719 0.0
C380 C 0.32933 0.61777 0.84389 0.0
C381 C 0.35171 0.56039 0.839 0.0
N382 N 0.36336 0.47859 0.79746 0.0
N383 N 0.30864 0.71573 0.81427 0.0
C384 C 0.34504 0.53417 0.80392 0.0
C385 C 0.31918 0.65593 0.81214 0.0
N386 N 0.29177 0.53959 0.74596 0.0
N387 N 0.31675 0.63475 0.87794 0.0
H388 H 0.30143 0.74236 0.79051 0.0
H389 H 0.30921 0.73879 0.83866 0.0
H390 H 0.31949 0.60591 0.9012 0.0
H391 H 0.29749 0.6743 0.88258 0.0
H392 H 0.28413 0.49147 0.74434 0.0
H393 H 0.27129 0.5651 0.72568 0.0
H394 H 0.36279 0.46161 0.77119 0.0
H395 H 0.38175 0.45137 0.81768 0.0
C396 C 0.87803 0.12341 0.22076 0.0
C397 C 0.87471 0.16864 0.19189 0.0
C398 C 0.76718 0.14257 0.18907 0.0
C399 C 0.77113 0.0937 0.21562 0.0
N400 N 0.83214 0.02783 0.24958 0.0
N401 N 0.81748 0.21004 0.14246 0.0
C402 C 0.8272 0.08104 0.22922 0.0
C403 C 0.81964 0.17472 0.17412 0.0
N404 N 0.92866 0.12276 0.24146 0.0
N405 N 0.7137 0.16053 0.17938 0.0
H406 H 0.85514 0.23285 0.13011 0.0
H407 H 0.77912 0.21137 0.12655 0.0
H408 H 0.67427 0.13961 0.19042 0.0
H409 H 0.70911 0.20007 0.16306 0.0
H410 H 0.93128 0.09487 0.26516 0.0
H411 H 0.96638 0.15431 0.23722 0.0
H412 H 0.87255 1.01347 0.25721 0.0
H413 H 0.79608 0.99485 0.25556 0.0
C414 C 0.13076 0.54542 0.00144 0.0
C415 C 0.13229 0.49756 0.02873 0.0
C416 C 0.18188 0.43696 -0.01248 0.0
C417 C 0.18451 0.48662 0.96123 0.0
N418 N 0.16983 0.59172 0.94422 0.0
N419 N 0.1732 0.40557 0.0511 0.0
C420 C 0.16132 0.54207 0.96846 0.0
C421 C 0.16184 0.44554 0.02278 0.0
N422 N 1.0994 0.59332 0.00686 0.0
N423 N 0.1965 0.38068 0.97849 0.0
H424 H 0.16062 0.41047 0.07772 0.0
H425 H 0.2005 0.3713 0.04898 0.0
H426 H 0.21164 0.37207 0.95286 0.0
H427 H 0.1885 0.34089 -0.00464 0.0
H428 H 1.09158 0.62652 -0.01337 0.0
H429 H 1.07753 0.59743 0.03106 0.0
H430 H 0.15892 0.63538 0.9494 0.0
H431 H 0.19228 0.59061 0.91992 0.0
C432 C 0.6145 0.08046 0.37571 0.0
C433 C 0.62185 0.02765 0.39897 0.0
C434 C 0.65765 0.97692 0.34683 0.0
C435 C 0.64505 0.02695 0.32325 0.0
N436 N 0.60228 0.12177 0.31369 0.0
N437 N 0.63428 0.9188 0.40318 0.0
C438 C 0.62079 0.07742 0.33725 0.0
C439 C 0.63933 0.97403 0.38367 0.0
N440 N 0.60367 0.1345 0.39024 0.0
N441 N 0.68765 0.93226 0.33415 0.0
H442 H 0.61548 0.9126 0.42875 0.0
H443 H 0.64137 0.87722 0.39209 0.0
H444 H 0.70113 0.93233 0.30717 0.0
H445 H 0.70376 0.89846 0.3512 0.0
H446 H 0.6054 0.17632 0.37517 0.0
H447 H 0.59777 0.13939 0.41797 0.0
H448 H 0.57779 0.15564 0.32178 0.0
H449 H 0.60713 0.12175 0.28543 0.0
C450 C 0.66603 0.61266 0.69493 0.0
C451 C 0.70189 0.57127 0.713 0.0
C452 C 0.72423 0.53642 0.65277 0.0
C453 C 0.68008 0.56888 0.63604 0.0
N454 N 0.59592 0.62235 0.64513 0.0
N455 N 0.7493 0.47823 0.70683 0.0
C456 C 0.64649 0.60175 0.6584 0.0
C457 C 0.72628 0.52828 0.6914 0.0
N458 N 0.65373 0.66487 0.71089 0.0
N459 N 0.76594 0.51556 0.63239 0.0
H460 H 0.74654 0.46495 0.73439 0.0
H461 H 0.76355 0.44452 0.69108 0.0
H462 H 0.7692 0.52459 0.60427 0.0
H463 H 0.80149 0.49598 0.64429 0.0
H464 H 0.62993 0.69688 0.6972 0.0
H465 H 0.67474 0.68165 0.73473 0.0
H466 H 0.56822 0.64266 0.66174 0.0
H467 H 0.57855 0.6126 0.61899 0.0
C468 C 0.6392 0.9886 0.63189 0.0
C469 C 0.6819 0.02882 0.61231 0.0
C470 C 0.72473 0.069 0.67014 0.0
C471 C 0.67779 0.03376 0.68932 0.0
N472 N 0.58197 0.97245 0.68662 0.0
N473 N 0.75874 0.11591 0.61206 0.0
C474 C 0.63231 0.99747 0.66959 0.0
C475 C 0.72248 0.07199 0.63121 0.0
N476 N 0.60735 0.9398 0.61512 0.0
N477 N 0.77312 0.09651 0.68884 0.0
H478 H 0.75873 0.11907 0.58352 0.0
H479 H 0.78492 0.15243 0.62447 0.0
H480 H 0.77802 0.09311 0.71724 0.0
H481 H 0.81098 0.1174 0.67597 0.0
H482 H 0.57943 0.90573 0.62913 0.0
H483 H 0.61397 0.92973 0.58812 0.0
H484 H 0.54547 0.95019 0.67255 0.0
H485 H 0.57433 0.97975 0.71396 0.0
C486 C 0.62155 0.50381 0.93665 0.0
C487 C 0.63013 0.56444 0.92007 0.0
C488 C 0.65068 0.60804 0.98091 0.0
C489 C 0.64778 0.54709 -0.00314 0.0
N490 N 0.63782 0.43678 -0.01031 0.0
N491 N 0.65716 0.67445 0.92582 0.0
C492 C 0.63549 0.49493 0.9746 0.0
C493 C 0.6455 0.61667 0.9421 0.0
N494 N 0.59668 0.45506 0.9166 0.0
N495 N 0.65733 0.65774 0.00302 0.0
H496 H 0.65154 0.683 0.89782 0.0
H497 H 0.67575 0.71345 0.93958 0.0
H498 H 0.66401 0.6536 0.03131 0.0
H499 H 0.65258 0.70272 -0.00619 0.0
H500 H 0.58376 0.41085 0.92787 0.0
H501 H 0.5835 0.45997 0.8892 0.0
H502 H 0.63608 0.39745 0.97426 0.0
H503 H 0.64625 0.42841 0.01753 0.0
C504 C 0.11161 0.59235 0.26181 0.0
C505 C 1.09235 0.5419 0.23909 0.0
C506 C 1.09494 0.47006 0.29202 0.0
C507 C 1.10842 0.52079 0.31532 0.0
N508 N 1.11074 0.63096 0.32271 0.0
N509 N 1.04585 0.43671 0.23562 0.0
C510 C 1.11085 0.58228 0.30035 0.0
C511 C 1.07798 0.48185 0.25512 0.0
N512 N 0.13348 0.64903 0.24708 0.0
N513 N 1.10089 0.41105 0.30428 0.0
H514 H 1.02941 0.44599 0.20937 0.0
H515 H 1.03009 0.39325 0.24705 0.0
H516 H 0.11701 0.40053 0.33045 0.0
H517 H 1.09591 0.37369 0.28703 0.0
H518 H 0.1533 0.68507 0.26295 0.0
H519 H 0.13765 0.65822 0.21911 0.0
H520 H 1.10736 0.67593 0.31271 0.0
H521 H 1.10718 0.62529 0.35104 0.0
loop_
_geom_bond_atom_site_label_1
_geom_bond_atom_site_label_2
_geom_bond_distance
_geom_bond_site_symmetry_2
_ccdc_geom_bond_type
Nd0 C2 2.836 . S
Nd0 O20 2.500 . S
Nd0 O21 2.492 . S
Nd0 O22 2.487 . S
Nd0 O23 2.682 1_455 S
Nd0 O24 2.410 . S
Nd0 O29 2.414 . S
Nd0 O31 2.424 1_455 S
Nd1 C11 2.836 . S
Nd1 O23 2.414 . S
Nd1 O25 2.424 1_655 S
Nd1 O26 2.500 . S
Nd1 O27 2.492 . S
Nd1 O28 2.487 . S
Nd1 O29 2.682 1_655 S
Nd1 O30 2.410 . S
C2 Nd0 2.836 . S
C2 C3 1.498 . S
C2 O20 1.258 . S
C2 O21 1.239 . S
C3 C2 1.498 . S
C3 C4 1.366 . S
C3 C8 1.407 . S
C4 C3 1.366 . S
C4 C5 1.392 . S
C4 H32 0.930 . S
C5 C4 1.392 . S
C5 C6 1.398 . S
C5 H33 0.929 . S
C6 C5 1.398 . S
C6 C7 1.352 . S
C7 C6 1.352 . S
C7 C8 1.384 . S
C7 H34 0.930 . S
C8 C3 1.407 . S
C8 C7 1.384 . S
C8 H35 0.929 . S
C9 O22 1.241 . S
C9 O23 1.273 1_455 S
C10 O24 1.251 . S
C10 O25 1.268 . S
C11 Nd1 2.836 . S
C11 C12 1.498 . S
C11 O26 1.258 . S
C11 O27 1.239 . S
C12 C11 1.498 . S
C12 C13 1.366 . S
C12 C17 1.407 . S
C13 C12 1.366 . S
C13 C14 1.392 . S
C13 H36 0.930 . S
C14 C13 1.392 . S
C14 C15 1.398 . S
C14 H37 0.929 . S
C15 C14 1.398 . S
C15 C16 1.352 . S
C16 C15 1.352 . S
C16 C17 1.384 . S
C16 H38 0.930 . S
C17 C12 1.407 . S
C17 C16 1.384 . S
C17 H39 0.929 . S
C18 O28 1.241 1_455 S
C18 O29 1.273 . S
C19 O30 1.251 . S
C19 O31 1.268 . S
O20 Nd0 2.500 . S
O20 C2 1.258 . S
O21 Nd0 2.492 . S
O21 C2 1.239 . S
O22 Nd0 2.487 . S
O22 C9 1.241 . S
O23 Nd0 2.682 1_655 S
O23 Nd1 2.414 . S
O23 C9 1.273 1_655 S
O24 Nd0 2.410 . S
O24 C10 1.251 . S
O25 Nd1 2.424 1_455 S
O25 C10 1.268 . S
O26 Nd1 2.500 . S
O26 C11 1.258 . S
O27 Nd1 2.492 . S
O27 C11 1.239 . S
O28 Nd1 2.487 . S
O28 C18 1.241 1_655 S
O29 Nd0 2.414 . S
O29 Nd1 2.682 1_455 S
O29 C18 1.273 . S
O30 Nd1 2.410 . S
O30 C19 1.251 . S
O31 Nd0 2.424 1_655 S
O31 C19 1.268 . S
H32 C4 0.930 . S
H33 C5 0.929 . S
H34 C7 0.930 . S
H35 C8 0.929 . S
H36 C13 0.930 . S
H37 C14 0.929 . S
H38 C16 0.930 . S
H39 C17 0.929 . S
Nd40 C42 2.836 . S
Nd40 O60 2.500 . S
Nd40 O61 2.492 . S
Nd40 O62 2.487 . S
Nd40 O63 2.682 1_565 S
Nd40 O64 2.410 . S
Nd40 O69 2.414 . S
Nd40 O71 2.424 1_565 S
Nd41 C51 2.836 . S
Nd41 O63 2.414 . S
Nd41 O65 2.424 1_545 S
Nd41 O66 2.500 . S
Nd41 O67 2.492 . S
Nd41 O68 2.487 . S
Nd41 O69 2.682 1_545 S
Nd41 O70 2.410 . S
C42 Nd40 2.836 . S
C42 C43 1.498 . S
C42 O60 1.258 . S
C42 O61 1.239 . S
C43 C42 1.498 . S
C43 C44 1.366 . S
C43 C48 1.407 . S
C44 C43 1.366 . S
C44 C45 1.392 . S
C44 H72 0.930 . S
C45 C44 1.392 . S
C45 C46 1.398 . S
C45 H73 0.929 . S
C46 C45 1.398 . S
C46 C47 1.352 . S
C47 C46 1.352 . S
C47 C48 1.384 . S
C47 H74 0.930 . S
C48 C43 1.407 . S
C48 C47 1.384 . S
C48 H75 0.929 . S
C49 O62 1.241 1_545 S
C49 O63 1.273 . S
C50 O64 1.251 . S
C50 O65 1.268 . S
C51 Nd41 2.836 . S
C51 C52 1.498 . S
C51 O66 1.258 . S
C51 O67 1.239 . S
C52 C51 1.498 . S
C52 C53 1.366 . S
C52 C57 1.407 . S
C53 C52 1.366 . S
C53 C54 1.392 . S
C53 H76 0.930 . S
C54 C53 1.392 . S
C54 C55 1.398 . S
C54 H77 0.929 . S
C55 C54 1.398 . S
C55 C56 1.352 . S
C56 C55 1.352 . S
C56 C57 1.384 . S
C56 H78 0.930 . S
C57 C52 1.407 . S
C57 C56 1.384 . S
C57 H79 0.929 . S
C58 O68 1.241 . S
C58 O69 1.273 1_545 S
C59 O70 1.251 . S
C59 O71 1.268 . S
O60 Nd40 2.500 . S
O60 C42 1.258 . S
O61 Nd40 2.492 . S
O61 C42 1.239 . S
O62 Nd40 2.487 . S
O62 C49 1.241 1_565 S
O63 Nd40 2.682 1_545 S
O63 Nd41 2.414 . S
O63 C49 1.273 . S
O64 Nd40 2.410 . S
O64 C50 1.251 . S
O65 Nd41 2.424 1_565 S
O65 C50 1.268 . S
O66 Nd41 2.500 . S
O66 C51 1.258 . S
O67 Nd41 2.492 . S
O67 C51 1.239 . S
O68 Nd41 2.487 . S
O68 C58 1.241 . S
O69 Nd40 2.414 . S
O69 Nd41 2.682 1_565 S
O69 C58 1.273 1_565 S
O70 Nd41 2.410 . S
O70 C59 1.251 . S
O71 Nd40 2.424 1_545 S
O71 C59 1.268 . S
H72 C44 0.930 . S
H73 C45 0.929 . S
H74 C47 0.930 . S
H75 C48 0.929 . S
H76 C53 0.930 . S
H77 C54 0.929 . S
H78 C56 0.930 . S
H79 C57 0.929 . S
Nd80 C82 2.836 . S
Nd80 O100 2.500 . S
Nd80 O101 2.492 . S
Nd80 O102 2.487 . S
Nd80 O103 2.682 . S
Nd80 O104 2.410 . S
Nd80 O109 2.414 . S
Nd80 O111 2.424 . S
Nd81 C91 2.836 . S
Nd81 O103 2.414 . S
Nd81 O105 2.424 . S
Nd81 O106 2.500 . S
Nd81 O107 2.492 . S
Nd81 O108 2.487 . S
Nd81 O109 2.682 . S
Nd81 O110 2.410 . S
C82 Nd80 2.836 . S
C82 C83 1.498 . S
C82 O100 1.258 . S
C82 O101 1.239 . S
C83 C82 1.498 . S
C83 C84 1.366 . S
C83 C88 1.407 . S
C84 C83 1.366 . S
C84 C85 1.392 . S
C84 H112 0.930 . S
C85 C84 1.392 . S
C85 C86 1.398 . S
C85 H113 0.929 . S
C86 C85 1.398 . S
C86 C87 1.352 . S
C87 C86 1.352 . S
C87 C88 1.384 . S
C87 H114 0.930 . S
C88 C83 1.407 . S
C88 C87 1.384 . S
C88 H115 0.929 . S
C89 O102 1.241 . S
C89 O103 1.273 . S
C90 O104 1.251 . S
C90 O105 1.268 . S
C91 Nd81 2.836 . S
C91 C92 1.498 . S
C91 O106 1.258 . S
C91 O107 1.239 . S
C92 C91 1.498 . S
C92 C93 1.366 . S
C92 C97 1.407 . S
C93 C92 1.366 . S
C93 C94 1.392 . S
C93 H116 0.930 . S
C94 C93 1.392 . S
C94 C95 1.398 . S
C94 H117 0.929 . S
C95 C94 1.398 . S
C95 C96 1.352 . S
C96 C95 1.352 . S
C96 C97 1.384 . S
C96 H118 0.930 . S
C97 C92 1.407 . S
C97 C96 1.384 . S
C97 H119 0.929 . S
C98 O108 1.241 . S
C98 O109 1.273 . S
C99 O110 1.251 . S
C99 O111 1.268 . S
O100 Nd80 2.500 . S
O100 C82 1.258 . S
O101 Nd80 2.492 . S
O101 C82 1.239 . S
O102 Nd80 2.487 . S
O102 C89 1.241 . S
O103 Nd80 2.682 . S
O103 Nd81 2.414 . S
O103 C89 1.273 . S
O104 Nd80 2.410 . S
O104 C90 1.251 . S
O105 Nd81 2.424 . S
O105 C90 1.268 . S
O106 Nd81 2.500 . S
O106 C91 1.258 . S
O107 Nd81 2.492 . S
O107 C91 1.239 . S
O108 Nd81 2.487 . S
O108 C98 1.241 . S
O109 Nd80 2.414 . S
O109 Nd81 2.682 . S
O109 C98 1.273 . S
O110 Nd81 2.410 . S
O110 C99 1.251 . S
O111 Nd80 2.424 . S
O111 C99 1.268 . S
H112 C84 0.930 . S
H113 C85 0.929 . S
H114 C87 0.930 . S
H115 C88 0.929 . S
H116 C93 0.930 . S
H117 C94 0.929 . S
H118 C96 0.930 . S
H119 C97 0.929 . S
H120 C127 0.929 . S
H121 C130 0.930 . S
H122 C132 0.929 . S
H123 C124 0.969 . S
C124 H123 0.969 . S
C124 O125 1.550 . S
C124 H126 0.973 . S
O125 C124 1.550 . S
O125 C131 1.406 1_565 S
H126 C124 0.973 . S
C127 H120 0.929 . S
C127 C128 1.400 . S
C127 C129 1.364 . S
C128 C127 1.400 . S
C128 C132 1.377 . S
C129 C127 1.364 . S
C129 C130 1.374 1_545 S
C130 H121 0.930 . S
C130 C129 1.374 1_565 S
C130 C131 1.382 1_565 S
C131 O125 1.406 1_545 S
C131 C130 1.382 1_545 S
C131 C132 1.399 . S
C132 H122 0.929 . S
C132 C128 1.377 . S
C132 C131 1.399 . S
H133 C140 0.929 . S
H134 C143 0.930 . S
H135 C145 0.929 . S
H136 C137 0.969 . S
C137 H136 0.969 . S
C137 O138 1.550 . S
C137 H139 0.973 . S
O138 C137 1.550 . S
O138 C144 1.412 . S
H139 C137 0.973 . S
C140 H133 0.929 . S
C140 C141 1.400 . S
C140 C142 1.364 . S
C141 C140 1.400 . S
C141 C145 1.377 . S
C142 C140 1.364 . S
C142 C143 1.374 . S
C143 H134 0.930 . S
C143 C142 1.374 . S
C143 C144 1.383 . S
C144 O138 1.412 . S
C144 C143 1.383 . S
C144 C145 1.394 . S
C145 H135 0.929 . S
C145 C141 1.377 . S
C145 C144 1.394 . S
H146 C153 0.929 . S
H147 C156 0.930 . S
H148 C158 0.929 . S
H149 C150 0.969 . S
C150 H149 0.969 . S
C150 O151 1.550 . S
C150 H152 0.973 . S
O151 C150 1.550 . S
O151 C157 1.412 . S
H152 C150 0.973 . S
C153 H146 0.929 . S
C153 C154 1.400 . S
C153 C155 1.364 1_655 S
C154 C153 1.400 . S
C154 C158 1.377 1_655 S
C155 C153 1.364 1_455 S
C155 C156 1.374 . S
C156 H147 0.930 . S
C156 C155 1.374 . S
C156 C157 1.383 . S
C157 O151 1.412 . S
C157 C156 1.383 . S
C157 C158 1.394 . S
C158 H148 0.929 . S
C158 C154 1.377 1_455 S
C158 C157 1.394 . S
H159 C166 0.929 . S
H160 C169 0.930 . S
H161 C171 0.929 . S
H162 C163 0.969 . S
C163 H162 0.969 . S
C163 O164 1.550 . S
C163 H165 0.973 . S
O164 C163 1.550 . S
O164 C170 1.412 . S
H165 C163 0.973 . S
C166 H159 0.929 . S
C166 C167 1.400 . S
C166 C168 1.364 1_655 S
C167 C166 1.400 . S
C167 C171 1.377 1_655 S
C168 C166 1.364 1_455 S
C168 C169 1.374 . S
C169 H160 0.930 . S
C169 C168 1.374 . S
C169 C170 1.383 . S
C170 O164 1.412 . S
C170 C169 1.383 . S
C170 C171 1.394 . S
C171 H161 0.929 . S
C171 C167 1.377 1_455 S
C171 C170 1.394 . S
H172 C179 0.929 . S
H173 C182 0.930 . S
H174 C184 0.929 . S
H175 C176 0.969 . S
C176 H175 0.969 . S
C176 O177 1.550 . S
C176 H178 0.973 . S
O177 C176 1.550 . S
O177 C183 1.412 . S
H178 C176 0.973 . S
C179 H172 0.929 . S
C179 C180 1.400 . S
C179 C181 1.364 . S
C180 C179 1.400 . S
C180 C184 1.377 . S
C181 C179 1.364 . S
C181 C182 1.374 1_565 S
C182 H173 0.930 . S
C182 C181 1.374 1_545 S
C182 C183 1.383 . S
C183 O177 1.412 . S
C183 C182 1.383 . S
C183 C184 1.394 1_545 S
C184 H174 0.929 . S
C184 C180 1.377 . S
C184 C183 1.394 1_565 S
H185 C192 0.929 . S
H186 C195 0.930 . S
H187 C197 0.929 . S
H188 C189 0.969 . S
C189 H188 0.969 . S
C189 O190 1.550 . S
C189 H191 0.973 . S
O190 C189 1.550 . S
O190 C196 1.412 . S
H191 C189 0.973 . S
C192 H185 0.929 . S
C192 C193 1.400 . S
C192 C194 1.364 . S
C193 C192 1.400 . S
C193 C197 1.377 . S
C194 C192 1.364 . S
C194 C195 1.374 . S
C195 H186 0.930 . S
C195 C194 1.374 . S
C195 C196 1.383 . S
C196 O190 1.412 . S
C196 C195 1.383 . S
C196 C197 1.394 . S
C197 H187 0.929 . S
C197 C193 1.377 . S
C197 C196 1.394 . S
C198 C199 1.363 . S
C198 C204 1.379 . S
C198 N206 1.356 . S
C199 C198 1.363 . S
C199 C205 1.363 . S
C200 C201 1.363 . S
C200 C205 1.379 . S
C200 N207 1.356 . S
C201 C200 1.363 . S
C201 C204 1.363 . S
N202 C204 1.356 . S
N202 H214 0.984 . S
N202 H215 0.985 . S
N203 C205 1.356 . S
N203 H208 0.984 . S
N203 H209 0.985 . S
C204 C198 1.379 . S
C204 C201 1.363 . S
C204 N202 1.356 . S
C205 C199 1.363 . S
C205 C200 1.379 . S
C205 N203 1.356 . S
N206 C198 1.356 . S
N206 H212 0.984 . S
N206 H213 0.984 . S
N207 C200 1.356 . S
N207 H210 0.984 . S
N207 H211 0.985 . S
H208 N203 0.984 . S
H209 N203 0.985 . S
H210 N207 0.984 . S
H211 N207 0.985 . S
H212 N206 0.984 . S
H213 N206 0.984 . S
H214 N202 0.984 . S
H215 N202 0.985 . S
C216 C217 1.363 . S
C216 C222 1.379 . S
C216 N224 1.356 . S
C217 C216 1.363 . S
C217 C223 1.363 . S
C218 C219 1.363 . S
C218 C223 1.379 . S
C218 N225 1.356 . S
C219 C218 1.363 . S
C219 C222 1.363 . S
N220 C222 1.356 . S
N220 H232 0.984 . S
N220 H233 0.985 . S
N221 C223 1.356 . S
N221 H226 0.984 . S
N221 H227 0.985 . S
C222 C216 1.379 . S
C222 C219 1.363 . S
C222 N220 1.356 . S
C223 C217 1.363 . S
C223 C218 1.379 . S
C223 N221 1.356 . S
N224 C216 1.356 . S
N224 H230 0.984 . S
N224 H231 0.984 . S
N225 C218 1.356 . S
N225 H228 0.984 . S
N225 H229 0.985 . S
H226 N221 0.984 . S
H227 N221 0.985 . S
H228 N225 0.984 . S
H229 N225 0.985 . S
H230 N224 0.984 . S
H231 N224 0.984 . S
H232 N220 0.984 . S
H233 N220 0.985 . S
C234 C235 1.363 . S
C234 C240 1.379 . S
C234 N242 1.356 . S
C235 C234 1.363 . S
C235 C241 1.363 . S
C236 C237 1.363 . S
C236 C241 1.379 . S
C236 N243 1.356 . S
C237 C236 1.363 . S
C237 C240 1.363 . S
N238 C240 1.356 . S
N238 H250 0.984 . S
N238 H251 0.985 . S
N239 C241 1.356 . S
N239 H244 0.984 . S
N239 H245 0.985 . S
C240 C234 1.379 . S
C240 C237 1.363 . S
C240 N238 1.356 . S
C241 C235 1.363 . S
C241 C236 1.379 . S
C241 N239 1.356 . S
N242 C234 1.356 . S
N242 H248 0.984 . S
N242 H249 0.984 . S
N243 C236 1.356 . S
N243 H246 0.984 . S
N243 H247 0.985 . S
H244 N239 0.984 . S
H245 N239 0.985 . S
H246 N243 0.984 . S
H247 N243 0.985 . S
H248 N242 0.984 . S
H249 N242 0.984 . S
H250 N238 0.984 . S
H251 N238 0.985 . S
C252 C253 1.363 . S
C252 C258 1.379 . S
C252 N260 1.356 . S
C253 C252 1.363 . S
C253 C259 1.363 . S
C254 C255 1.363 . S
C254 C259 1.379 . S
C254 N261 1.356 . S
C255 C254 1.363 . S
C255 C258 1.363 . S
N256 C258 1.356 . S
N256 H268 0.984 . S
N256 H269 0.985 . S
N257 C259 1.356 . S
N257 H262 0.984 . S
N257 H263 0.985 . S
C258 C252 1.379 . S
C258 C255 1.363 . S
C258 N256 1.356 . S
C259 C253 1.363 . S
C259 C254 1.379 . S
C259 N257 1.356 . S
N260 C252 1.356 . S
N260 H266 0.984 . S
N260 H267 0.984 . S
N261 C254 1.356 . S
N261 H264 0.984 . S
N261 H265 0.985 . S
H262 N257 0.984 . S
H263 N257 0.985 . S
H264 N261 0.984 . S
H265 N261 0.985 . S
H266 N260 0.984 . S
H267 N260 0.984 . S
H268 N256 0.984 . S
H269 N256 0.985 . S
C270 C271 1.363 . S
C270 C276 1.379 . S
C270 N278 1.356 . S
C271 C270 1.363 . S
C271 C277 1.363 . S
C272 C273 1.363 . S
C272 C277 1.379 . S
C272 N279 1.356 . S
C273 C272 1.363 . S
C273 C276 1.363 . S
N274 C276 1.356 . S
N274 H286 0.984 . S
N274 H287 0.985 . S
N275 C277 1.356 . S
N275 H280 0.984 . S
N275 H281 0.985 . S
C276 C270 1.379 . S
C276 C273 1.363 . S
C276 N274 1.356 . S
C277 C271 1.363 . S
C277 C272 1.379 . S
C277 N275 1.356 . S
N278 C270 1.356 . S
N278 H284 0.984 . S
N278 H285 0.984 . S
N279 C272 1.356 . S
N279 H282 0.984 . S
N279 H283 0.985 . S
H280 N275 0.984 . S
H281 N275 0.985 . S
H282 N279 0.984 . S
H283 N279 0.985 . S
H284 N278 0.984 . S
H285 N278 0.984 . S
H286 N274 0.984 . S
H287 N274 0.985 . S
C288 C289 1.363 . S
C288 C294 1.379 . S
C288 N296 1.356 . S
C289 C288 1.363 . S
C289 C295 1.363 . S
C290 C291 1.363 . S
C290 C295 1.379 . S
C290 N297 1.356 . S
C291 C290 1.363 . S
C291 C294 1.363 . S
N292 C294 1.356 . S
N292 H304 0.984 . S
N292 H305 0.985 . S
N293 C295 1.356 . S
N293 H298 0.984 . S
N293 H299 0.985 . S
C294 C288 1.379 . S
C294 C291 1.363 . S
C294 N292 1.356 . S
C295 C289 1.363 . S
C295 C290 1.379 . S
C295 N293 1.356 . S
N296 C288 1.356 . S
N296 H302 0.984 . S
N296 H303 0.984 . S
N297 C290 1.356 . S
N297 H300 0.984 . S
N297 H301 0.985 . S
H298 N293 0.984 . S
H299 N293 0.985 . S
H300 N297 0.984 . S
H301 N297 0.985 . S
H302 N296 0.984 . S
H303 N296 0.984 . S
H304 N292 0.984 . S
H305 N292 0.985 . S
C306 C307 1.363 . S
C306 C312 1.379 . S
C306 N314 1.356 . S
C307 C306 1.363 . S
C307 C313 1.363 . S
C308 C309 1.363 . S
C308 C313 1.379 . S
C308 N315 1.356 . S
C309 C308 1.363 . S
C309 C312 1.363 . S
N310 C312 1.356 . S
N310 H322 0.984 . S
N310 H323 0.985 . S
N311 C313 1.356 . S
N311 H316 0.984 . S
N311 H317 0.985 . S
C312 C306 1.379 . S
C312 C309 1.363 . S
C312 N310 1.356 . S
C313 C307 1.363 . S
C313 C308 1.379 . S
C313 N311 1.356 . S
N314 C306 1.356 . S
N314 H320 0.984 . S
N314 H321 0.984 . S
N315 C308 1.356 . S
N315 H318 0.984 . S
N315 H319 0.985 . S
H316 N311 0.984 . S
H317 N311 0.985 . S
H318 N315 0.984 . S
H319 N315 0.985 . S
H320 N314 0.984 . S
H321 N314 0.984 . S
H322 N310 0.984 . S
H323 N310 0.985 . S
C324 C325 1.363 . S
C324 C330 1.379 . S
C324 N332 1.356 . S
C325 C324 1.363 . S
C325 C331 1.363 . S
C326 C327 1.363 . S
C326 C331 1.379 . S
C326 N333 1.356 . S
C327 C326 1.363 . S
C327 C330 1.363 . S
N328 C330 1.356 1_455 S
N328 H340 0.984 . S
N328 H341 0.985 . S
N329 C331 1.356 . S
N329 H334 0.984 . S
N329 H335 0.985 . S
C330 C324 1.379 . S
C330 C327 1.363 . S
C330 N328 1.356 1_655 S
C331 C325 1.363 . S
C331 C326 1.379 . S
C331 N329 1.356 . S
N332 C324 1.356 . S
N332 H338 0.984 . S
N332 H339 0.984 . S
N333 C326 1.356 . S
N333 H336 0.984 . S
N333 H337 0.985 . S
H334 N329 0.984 . S
H335 N329 0.985 . S
H336 N333 0.984 . S
H337 N333 0.985 . S
H338 N332 0.984 . S
H339 N332 0.984 . S
H340 N328 0.984 . S
H341 N328 0.985 . S
C342 C343 1.363 . S
C342 C348 1.379 . S
C342 N350 1.356 . S
C343 C342 1.363 . S
C343 C349 1.363 . S
C344 C345 1.363 . S
C344 C349 1.379 . S
C344 N351 1.356 . S
C345 C344 1.363 . S
C345 C348 1.363 . S
N346 C348 1.356 . S
N346 H358 0.984 . S
N346 H359 0.985 . S
N347 C349 1.356 . S
N347 H352 0.984 . S
N347 H353 0.985 . S
C348 C342 1.379 . S
C348 C345 1.363 . S
C348 N346 1.356 . S
C349 C343 1.363 . S
C349 C344 1.379 . S
C349 N347 1.356 . S
N350 C342 1.356 . S
N350 H356 0.984 . S
N350 H357 0.984 . S
N351 C344 1.356 . S
N351 H354 0.984 . S
N351 H355 0.985 . S
H352 N347 0.984 . S
H353 N347 0.985 . S
H354 N351 0.984 . S
H355 N351 0.985 . S
H356 N350 0.984 . S
H357 N350 0.984 . S
H358 N346 0.984 . S
H359 N346 0.985 . S
C360 C361 1.363 . S
C360 C366 1.379 . S
C360 N368 1.356 . S
C361 C360 1.363 . S
C361 C367 1.363 . S
C362 C363 1.363 . S
C362 C367 1.379 . S
C362 N369 1.356 . S
C363 C362 1.363 . S
C363 C366 1.363 . S
N364 C366 1.356 . S
N364 H376 0.984 . S
N364 H377 0.985 . S
N365 C367 1.356 . S
N365 H370 0.984 . S
N365 H371 0.985 . S
C366 C360 1.379 . S
C366 C363 1.363 . S
C366 N364 1.356 . S
C367 C361 1.363 . S
C367 C362 1.379 . S
C367 N365 1.356 . S
N368 C360 1.356 . S
N368 H374 0.984 . S
N368 H375 0.984 . S
N369 C362 1.356 . S
N369 H372 0.984 . S
N369 H373 0.985 . S
H370 N365 0.984 . S
H371 N365 0.985 . S
H372 N369 0.984 . S
H373 N369 0.985 . S
H374 N368 0.984 . S
H375 N368 0.984 . S
H376 N364 0.984 . S
H377 N364 0.985 . S
C378 C379 1.363 . S
C378 C384 1.379 . S
C378 N386 1.356 . S
C379 C378 1.363 . S
C379 C385 1.363 . S
C380 C381 1.363 . S
C380 C385 1.379 . S
C380 N387 1.356 . S
C381 C380 1.363 . S
C381 C384 1.363 . S
N382 C384 1.356 . S
N382 H394 0.984 . S
N382 H395 0.985 . S
N383 C385 1.356 . S
N383 H388 0.984 . S
N383 H389 0.985 . S
C384 C378 1.379 . S
C384 C381 1.363 . S
C384 N382 1.356 . S
C385 C379 1.363 . S
C385 C380 1.379 . S
C385 N383 1.356 . S
N386 C378 1.356 . S
N386 H392 0.984 . S
N386 H393 0.984 . S
N387 C380 1.356 . S
N387 H390 0.984 . S
N387 H391 0.985 . S
H388 N383 0.984 . S
H389 N383 0.985 . S
H390 N387 0.984 . S
H391 N387 0.985 . S
H392 N386 0.984 . S
H393 N386 0.984 . S
H394 N382 0.984 . S
H395 N382 0.985 . S
C396 C397 1.363 . S
C396 C402 1.379 . S
C396 N404 1.356 . S
C397 C396 1.363 . S
C397 C403 1.363 . S
C398 C399 1.363 . S
C398 C403 1.379 . S
C398 N405 1.356 . S
C399 C398 1.363 . S
C399 C402 1.363 . S
N400 C402 1.356 . S
N400 H412 0.984 . S
N400 H413 0.985 . S
N401 C403 1.356 . S
N401 H406 0.984 . S
N401 H407 0.985 . S
C402 C396 1.379 . S
C402 C399 1.363 . S
C402 N400 1.356 . S
C403 C397 1.363 . S
C403 C398 1.379 . S
C403 N401 1.356 . S
N404 C396 1.356 . S
N404 H410 0.984 . S
N404 H411 0.984 . S
N405 C398 1.356 . S
N405 H408 0.984 . S
N405 H409 0.985 . S
H406 N401 0.984 . S
H407 N401 0.985 . S
H408 N405 0.984 . S
H409 N405 0.985 . S
H410 N404 0.984 . S
H411 N404 0.984 . S
H412 N400 0.984 . S
H413 N400 0.985 . S
C414 C415 1.363 . S
C414 C420 1.379 1_554 S
C414 N422 1.356 . S
C415 C414 1.363 . S
C415 C421 1.363 . S
C416 C417 1.363 . S
C416 C421 1.379 1_556 S
C416 N423 1.356 . S
C417 C416 1.363 . S
C417 C420 1.363 . S
N418 C420 1.356 . S
N418 H430 0.984 . S
N418 H431 0.985 . S
N419 C421 1.356 . S
N419 H424 0.984 . S
N419 H425 0.985 . S
C420 C414 1.379 1_556 S
C420 C417 1.363 . S
C420 N418 1.356 . S
C421 C415 1.363 . S
C421 C416 1.379 1_554 S
C421 N419 1.356 . S
N422 C414 1.356 . S
N422 H428 0.984 . S
N422 H429 0.984 . S
N423 C416 1.356 . S
N423 H426 0.984 . S
N423 H427 0.985 . S
H424 N419 0.984 . S
H425 N419 0.985 . S
H426 N423 0.984 . S
H427 N423 0.985 . S
H428 N422 0.984 . S
H429 N422 0.984 . S
H430 N418 0.984 . S
H431 N418 0.985 . S
C432 C433 1.363 . S
C432 C438 1.379 . S
C432 N440 1.356 . S
C433 C432 1.363 . S
C433 C439 1.363 1_545 S
C434 C435 1.363 1_565 S
C434 C439 1.379 . S
C434 N441 1.356 . S
C435 C434 1.363 1_545 S
C435 C438 1.363 . S
N436 C438 1.356 . S
N436 H448 0.984 . S
N436 H449 0.985 . S
N437 C439 1.356 . S
N437 H442 0.984 . S
N437 H443 0.985 . S
C438 C432 1.379 . S
C438 C435 1.363 . S
C438 N436 1.356 . S
C439 C433 1.363 1_565 S
C439 C434 1.379 . S
C439 N437 1.356 . S
N440 C432 1.356 . S
N440 H446 0.984 . S
N440 H447 0.984 . S
N441 C434 1.356 . S
N441 H444 0.984 . S
N441 H445 0.985 . S
H442 N437 0.984 . S
H443 N437 0.985 . S
H444 N441 0.984 . S
H445 N441 0.985 . S
H446 N440 0.984 . S
H447 N440 0.984 . S
H448 N436 0.984 . S
H449 N436 0.985 . S
C450 C451 1.363 . S
C450 C456 1.379 . S
C450 N458 1.356 . S
C451 C450 1.363 . S
C451 C457 1.363 . S
C452 C453 1.363 . S
C452 C457 1.379 . S
C452 N459 1.356 . S
C453 C452 1.363 . S
C453 C456 1.363 . S
N454 C456 1.356 . S
N454 H466 0.984 . S
N454 H467 0.985 . S
N455 C457 1.356 . S
N455 H460 0.984 . S
N455 H461 0.985 . S
C456 C450 1.379 . S
C456 C453 1.363 . S
C456 N454 1.356 . S
C457 C451 1.363 . S
C457 C452 1.379 . S
C457 N455 1.356 . S
N458 C450 1.356 . S
N458 H464 0.984 . S
N458 H465 0.984 . S
N459 C452 1.356 . S
N459 H462 0.984 . S
N459 H463 0.985 . S
H460 N455 0.984 . S
H461 N455 0.985 . S
H462 N459 0.984 . S
H463 N459 0.985 . S
H464 N458 0.984 . S
H465 N458 0.984 . S
H466 N454 0.984 . S
H467 N454 0.985 . S
C468 C469 1.363 . S
C468 C474 1.379 . S
C468 N476 1.356 . S
C469 C468 1.363 . S
C469 C475 1.363 1_565 S
C470 C471 1.363 1_545 S
C470 C475 1.379 . S
C470 N477 1.356 . S
C471 C470 1.363 1_565 S
C471 C474 1.363 . S
N472 C474 1.356 . S
N472 H484 0.984 . S
N472 H485 0.985 . S
N473 C475 1.356 . S
N473 H478 0.984 . S
N473 H479 0.985 . S
C474 C468 1.379 . S
C474 C471 1.363 . S
C474 N472 1.356 . S
C475 C469 1.363 1_545 S
C475 C470 1.379 . S
C475 N473 1.356 . S
N476 C468 1.356 . S
N476 H482 0.984 . S
N476 H483 0.984 . S
N477 C470 1.356 . S
N477 H480 0.984 . S
N477 H481 0.985 . S
H478 N473 0.984 . S
H479 N473 0.985 . S
H480 N477 0.984 . S
H481 N477 0.985 . S
H482 N476 0.984 . S
H483 N476 0.984 . S
H484 N472 0.984 . S
H485 N472 0.985 . S
C486 C487 1.363 . S
C486 C492 1.379 . S
C486 N494 1.356 . S
C487 C486 1.363 . S
C487 C493 1.363 . S
C488 C489 1.363 . S
C488 C493 1.379 1_554 S
C488 N495 1.356 . S
C489 C488 1.363 . S
C489 C492 1.363 1_554 S
N490 C492 1.356 1_554 S
N490 H502 0.984 . S
N490 H503 0.985 . S
N491 C493 1.356 . S
N491 H496 0.984 . S
N491 H497 0.985 . S
C492 C486 1.379 . S
C492 C489 1.363 1_556 S
C492 N490 1.356 1_556 S
C493 C487 1.363 . S
C493 C488 1.379 1_556 S
C493 N491 1.356 . S
N494 C486 1.356 . S
N494 H500 0.984 . S
N494 H501 0.984 . S
N495 C488 1.356 . S
N495 H498 0.984 . S
N495 H499 0.985 . S
H496 N491 0.984 . S
H497 N491 0.985 . S
H498 N495 0.984 . S
H499 N495 0.985 . S
H500 N494 0.984 . S
H501 N494 0.984 . S
H502 N490 0.984 . S
H503 N490 0.985 . S
C504 C505 1.363 . S
C504 C510 1.379 . S
C504 N512 1.356 . S
C505 C504 1.363 . S
C505 C511 1.363 1_455 S
C506 C507 1.363 1_655 S
C506 C511 1.379 . S
C506 N513 1.356 . S
C507 C506 1.363 1_455 S
C507 C510 1.363 . S
N508 C510 1.356 . S
N508 H520 0.984 . S
N508 H521 0.985 . S
N509 C511 1.356 . S
N509 H514 0.984 . S
N509 H515 0.985 . S
C510 C504 1.379 . S
C510 C507 1.363 . S
C510 N508 1.356 . S
C511 C505 1.363 1_655 S
C511 C506 1.379 . S
C511 N509 1.356 . S
N512 C504 1.356 . S
N512 H518 0.984 . S
N512 H519 0.984 . S
N513 C506 1.356 . S
N513 H516 0.984 . S
N513 H517 0.985 . S
H514 N509 0.984 . S
H515 N509 0.985 . S
H516 N513 0.984 . S
H517 N513 0.985 . S
H518 N512 0.984 . S
H519 N512 0.984 . S
H520 N508 0.984 . S
H521 N508 0.985 . S
C199 C10 3.168 . S
C201 C189 2.942 . S
C217 C55 1.171 . S
C219 C167 1.183 . S
C235 C90 1.887 . S
C237 C180 1.880 . S
C253 C19 3.024 . S
C255 C193 3.005 . S
C273 C163 1.463 . S
C271 C46 1.425 . S
C291 C176 1.929 . S
C289 C99 2.068 . S
C307 C50 1.883 . S
C309 C141 1.852 . S
C325 C95 0.735 . S
C327 C154 0.727 . S
C343 C6 1.357 . S
C345 C124 1.335 . S
C363 C137 1.869 . S
C361 C59 2.042 . S
C381 C150 1.008 . S
C379 C86 0.868 . S
C397 C15 1.303 . S
C399 C128 1.328 . S
C417 C155 1.174 . S
C415 C18 1.160 . S
C433 C49 1.456 . S
C435 C129 1.534 . S
C451 C98 1.428 . S
C453 C142 1.459 . S
C471 C181 1.478 . S
C469 C58 1.446 1_565 S
C489 C194 1.781 . S
C487 C89 1.687 . S
C505 C9 1.484 . S
C507 C168 1.569 . S
