# Generated by pormake.
# Topology pyr, (3,6)-cn, num edge types: 1
# Building blocks:
#     Node 0, Type 0, BuildingBlock: QEWDON_clean_linker_0, # of connection points: 3
#     Node 1, Type 0, BuildingBlock: QEWDON_clean_linker_0, # of connection points: 3
#     Node 2, Type 0, BuildingBlock: QEWDON_clean_linker_0, # of connection points: 3
#     Node 3, Type 0, BuildingBlock: QEWDON_clean_linker_0, # of connection points: 3
#     Node 4, Type 0, BuildingBlock: QEWDON_clean_linker_0, # of connection points: 3
#     Node 5, Type 0, BuildingBlock: QEWDON_clean_linker_0, # of connection points: 3
#     Node 6, Type 0, BuildingBlock: QEWDON_clean_linker_0, # of connection points: 3
#     Node 7, Type 0, BuildingBlock: QEWDON_clean_linker_0, # of connection points: 3
#     Node 8, Type 1, BuildingBlock: JUFBIX_clean_sbu_0, # of connection points: 6
#     Node 9, Type 1, BuildingBlock: JUFBIX_clean_sbu_0, # of connection points: 6
#     Node 10, Type 1, BuildingBlock: JUFBIX_clean_sbu_0, # of connection points: 6
#     Node 11, Type 1, BuildingBlock: JUFBIX_clean_sbu_0, # of connection points: 6
#     Edge 12, Type (0, 1), BuildingBlock: UVAHIK_clean_linker_0, # of connection points: 2
#     Edge 13, Type (0, 1), BuildingBlock: UVAHIK_clean_linker_0, # of connection points: 2
#     Edge 14, Type (0, 1), BuildingBlock: UVAHIK_clean_linker_0, # of connection points: 2
#     Edge 15, Type (0, 1), BuildingBlock: UVAHIK_clean_linker_0, # of connection points: 2
#     Edge 16, Type (0, 1), BuildingBlock: UVAHIK_clean_linker_0, # of connection points: 2
#     Edge 17, Type (0, 1), BuildingBlock: UVAHIK_clean_linker_0, # of connection points: 2
#     Edge 18, Type (0, 1), BuildingBlock: UVAHIK_clean_linker_0, # of connection points: 2
#     Edge 19, Type (0, 1), BuildingBlock: UVAHIK_clean_linker_0, # of connection points: 2
#     Edge 20, Type (0, 1), BuildingBlock: UVAHIK_clean_linker_0, # of connection points: 2
#     Edge 21, Type (0, 1), BuildingBlock: UVAHIK_clean_linker_0, # of connection points: 2
#     Edge 22, Type (0, 1), BuildingBlock: UVAHIK_clean_linker_0, # of connection points: 2
#     Edge 23, Type (0, 1), BuildingBlock: UVAHIK_clean_linker_0, # of connection points: 2
#     Edge 24, Type (0, 1), BuildingBlock: UVAHIK_clean_linker_0, # of connection points: 2
#     Edge 25, Type (0, 1), BuildingBlock: UVAHIK_clean_linker_0, # of connection points: 2
#     Edge 26, Type (0, 1), BuildingBlock: UVAHIK_clean_linker_0, # of connection points: 2
#     Edge 27, Type (0, 1), BuildingBlock: UVAHIK_clean_linker_0, # of connection points: 2
#     Edge 28, Type (0, 1), BuildingBlock: UVAHIK_clean_linker_0, # of connection points: 2
#     Edge 29, Type (0, 1), BuildingBlock: UVAHIK_clean_linker_0, # of connection points: 2
#     Edge 30, Type (0, 1), BuildingBlock: UVAHIK_clean_linker_0, # of connection points: 2
#     Edge 31, Type (0, 1), BuildingBlock: UVAHIK_clean_linker_0, # of connection points: 2
#     Edge 32, Type (0, 1), BuildingBlock: UVAHIK_clean_linker_0, # of connection points: 2
#     Edge 33, Type (0, 1), BuildingBlock: UVAHIK_clean_linker_0, # of connection points: 2
#     Edge 34, Type (0, 1), BuildingBlock: UVAHIK_clean_linker_0, # of connection points: 2
#     Edge 35, Type (0, 1), BuildingBlock: UVAHIK_clean_linker_0, # of connection points: 2
# Relax obj value: 0.163
# Max RMSD: 0.280
# Mean RMSD: 0.184
data_MOF--net-pry--node1-JUFBIX_clean_sbu_0--node2-QEWDON_clean_linker_0--edge1-UVAHIK_clean_linker_0
_symmetry_space_group_name_H-M    P1
_symmetry_Int_Tables_number       1
_symmetry_cell_setting            triclinic
loop_
_symmetry_equiv_pos_as_xyz
'x, y, z'
_cell_length_a     47.500043
_cell_length_b     45.635993
_cell_length_c     50.671171
_cell_angle_alpha  85.409246
_cell_angle_beta   89.325454
_cell_angle_gamma 100.09177
loop_
_atom_site_label
_atom_site_type_symbol
_atom_site_fract_x
_atom_site_fract_y
_atom_site_fract_z
_atom_type_partial_charge
H0 H 0.26361 0.24961 0.18951 0.0
C1 C 0.24968 0.23688 0.20503 0.0
C2 C 0.25405 0.20801 0.21441 0.0
C3 C 0.22897 0.25073 0.21675 0.0
H4 H 0.24056 0.17156 0.24444 0.0
C5 C 0.23715 0.19334 0.23651 0.0
C6 C 0.21655 0.20704 0.24906 0.0
C7 C 0.21236 0.23551 0.23839 0.0
C8 C 0.23031 0.28357 0.2113 0.0
H9 H 0.19707 0.24673 0.2477 0.0
C10 C 0.2109 0.29666 0.19495 0.0
C11 C 0.21415 0.32831 0.19055 0.0
C12 C 0.25216 0.30219 0.22343 0.0
H13 H 0.26709 0.29271 0.23608 0.0
C14 C 0.25494 0.33308 0.21967 0.0
H15 H 0.19402 0.2825 0.18539 0.0
C16 C 0.23622 0.34601 0.20348 0.0
H17 H 0.23898 0.37016 0.20119 0.0
H18 H 0.27178 0.34713 0.22936 0.0
H19 H 0.37195 0.87598 0.77456 0.0
C20 C 0.38592 0.86474 0.76348 0.0
C21 C 0.41576 0.87219 0.76568 0.0
C22 C 0.3739 0.84206 0.74782 0.0
H23 H 0.45662 0.86272 0.75295 0.0
C24 C 0.43358 0.85693 0.75165 0.0
C25 C 0.42167 0.83486 0.73525 0.0
C26 C 0.39185 0.82731 0.73371 0.0
C27 C 0.34259 0.83416 0.74556 0.0
H28 H 0.38255 0.80999 0.72134 0.0
C29 C 0.32676 0.85619 0.73703 0.0
C30 C 0.29725 0.84865 0.73288 0.0
C31 C 0.32863 0.80445 0.75067 0.0
H32 H 0.34052 0.78713 0.75724 0.0
C33 C 0.29919 0.79694 0.74738 0.0
H34 H 0.33765 0.8791 0.73304 0.0
C35 C 0.28354 0.81882 0.73842 0.0
H36 H 0.26091 0.81223 0.73516 0.0
H37 H 0.28853 0.77399 0.75135 0.0
H38 H 0.70233 0.50568 0.94392 0.0
C39 C 0.69372 0.48197 0.94507 0.0
C40 C 0.70984 0.46138 0.95628 0.0
C41 C 0.66675 0.47207 0.93478 0.0
H42 H 0.71078 0.41491 0.96645 0.0
C43 C 0.69839 0.43077 0.9576 0.0
C44 C 0.67087 0.42052 0.94838 0.0
C45 C 0.65543 0.44141 0.9364 0.0
C46 C 0.64991 0.49394 0.92322 0.0
H47 H 0.63408 0.43409 0.92939 0.0
C48 C 0.64277 0.49428 0.89638 0.0
C49 C 0.62718 0.51555 0.88516 0.0
C50 C 0.64127 0.5148 0.939 0.0
H51 H 0.64663 0.51483 0.95972 0.0
C52 C 0.62529 0.53549 0.92822 0.0
H53 H 0.65021 0.4786 0.88417 0.0
C54 C 0.61823 0.53589 0.90154 0.0
H55 H 0.60563 0.55208 0.8938 0.0
H56 H 0.61838 0.55132 0.94057 0.0
H57 H 0.93263 0.74054 0.40968 0.0
C58 C 0.9241 0.72639 0.42716 0.0
C59 C 0.93735 0.73031 0.45168 0.0
C60 C 0.89863 0.70582 0.42548 0.0
H61 H 0.93476 0.71578 0.49346 0.0
C62 C 0.92546 0.71224 0.4743 0.0
C63 C 0.9002 0.69127 0.47279 0.0
C64 C 0.8872 0.68804 0.4482 0.0
C65 C 0.882 0.70521 0.40088 0.0
H66 H 0.86704 0.6729 0.44697 0.0
C67 C 0.89498 0.70282 0.37628 0.0
C68 C 0.87883 0.70173 0.35311 0.0
C69 C 0.85276 0.70702 0.40208 0.0
H70 H 0.84232 0.7093 0.42074 0.0
C71 C 0.83677 0.7063 0.37917 0.0
H72 H 0.91738 0.7009 0.37536 0.0
C73 C 0.84964 0.70362 0.35483 0.0
H74 H 0.8368 0.70329 0.3373 0.0
H75 H 0.81432 0.70786 0.38029 0.0
H76 H 0.86054 0.87198 0.9133 0.0
C77 C 0.8713 0.88536 0.89626 0.0
C78 C 0.89773 0.87943 0.8869 0.0
C79 C 0.85733 0.90665 0.88254 0.0
H80 H 0.93039 0.89121 0.85607 0.0
C81 C 0.91032 0.89581 0.86359 0.0
C82 C 0.89687 0.91714 0.84925 0.0
C83 C 0.87031 0.92233 0.8591 0.0
C84 C 0.82634 0.90644 0.88854 0.0
H85 H 0.85908 0.93782 0.84804 0.0
C86 C 0.81604 0.92605 0.90537 0.0
C87 C 0.78607 0.92362 0.91033 0.0
C88 C 0.80652 0.88511 0.87686 0.0
H89 H 0.81379 0.86996 0.86396 0.0
C90 C 0.77726 0.88289 0.88163 0.0
H91 H 0.83101 0.94262 0.9146 0.0
C92 C 0.76714 0.90184 0.89822 0.0
H93 H 0.74425 0.89951 0.90163 0.0
H94 H 0.76231 0.86626 0.87245 0.0
H95 H 0.69127 0.19994 0.47928 0.0
C96 C 0.68364 0.19745 0.45935 0.0
C97 C 0.70131 0.18921 0.43986 0.0
C98 C 0.65614 0.20266 0.45332 0.0
H99 H 0.70387 0.1783 0.39928 0.0
C100 C 0.69088 0.1857 0.41428 0.0
C101 C 0.66334 0.19082 0.40814 0.0
C102 C 0.64621 0.19988 0.42755 0.0
C103 C 0.63727 0.20923 0.4745 0.0
H104 H 0.62472 0.20331 0.42297 0.0
C105 C 0.62798 0.23682 0.47366 0.0
C106 C 0.61062 0.24328 0.49433 0.0
C107 C 0.62896 0.18794 0.49595 0.0
H108 H 0.63604 0.16656 0.49688 0.0
C109 C 0.61131 0.19401 0.51625 0.0
H110 H 0.63456 0.2533 0.45712 0.0
C111 C 0.60218 0.2215 0.51551 0.0
H112 H 0.58907 0.22599 0.53183 0.0
H113 H 0.60493 0.17749 0.53274 0.0
H114 H 0.42446 0.70629 0.21069 0.0
C115 C 0.40563 0.70116 0.19889 0.0
C116 C 0.39731 0.72372 0.18174 0.0
C117 C 0.39059 0.67162 0.19971 0.0
H118 H 0.36596 0.73417 0.15376 0.0
C119 C 0.37316 0.7166 0.16615 0.0
C120 C 0.35811 0.68727 0.16639 0.0
C121 C 0.3669 0.66494 0.18339 0.0
C122 C 0.40015 0.64722 0.21659 0.0
H123 H 0.35551 0.64216 0.18369 0.0
C124 C 0.40738 0.6507 0.24322 0.0
C125 C 0.41456 0.62663 0.25937 0.0
C126 C 0.40125 0.61978 0.20615 0.0
H127 H 0.39636 0.61662 0.18563 0.0
C128 C 0.40877 0.59611 0.222 0.0
H129 H 0.4064 0.67161 0.25163 0.0
C130 C 0.41517 0.59938 0.24848 0.0
H131 H 0.42089 0.58065 0.26044 0.0
H132 H 0.40951 0.57509 0.21375 0.0
H133 H 0.10724 0.50496 0.62717 0.0
C134 C 0.10003 0.48271 0.62104 0.0
C135 C 0.11945 0.46828 0.6084 0.0
C136 C 0.07139 0.46871 0.62549 0.0
H137 H 0.12574 0.42815 0.59149 0.0
C138 C 0.1103 0.43959 0.60036 0.0
C139 C 0.08197 0.42486 0.60523 0.0
C140 C 0.06252 0.43971 0.61758 0.0
C141 C 0.05098 0.48405 0.63907 0.0
H142 H 0.04063 0.4285 0.62148 0.0
C143 C 0.05904 0.49874 0.6619 0.0
C144 C 0.03975 0.51297 0.67523 0.0
C145 C 0.02337 0.48396 0.62943 0.0
H146 H 0.01669 0.47302 0.61177 0.0
C147 C 1.00424 0.49838 0.64232 0.0
H148 H 0.0803 0.49882 0.66944 0.0
C149 C 1.01228 0.51275 0.66508 0.0
H150 H 0.99677 0.52312 0.67504 0.0
H151 H 0.98301 0.49822 0.63475 0.0
Co152 Co 0.02733 0.0619 0.53721 0.0
C153 C 0.04799 0.00919 0.53133 0.0
Co154 Co 0.06987 0.06115 0.55356 0.0
C155 C 0.97799 0.08265 0.51402 0.0
C156 C 0.97013 0.03593 0.52659 0.0
N157 N 0.9909 0.06037 0.52434 0.0
N158 N 0.94994 0.07304 0.51017 0.0
C159 C 0.94497 0.04366 0.51794 0.0
H160 H 0.98852 0.10574 0.51086 0.0
H161 H 0.9728 0.01412 0.53511 0.0
C162 C 0.0493 0.11422 0.55866 0.0
N163 N 0.10586 0.06199 0.56693 0.0
C164 C 0.11417 0.04114 0.58396 0.0
C165 C 0.12933 0.08327 0.56228 0.0
N166 N 0.14187 0.04848 0.59022 0.0
C167 C 0.15158 0.07495 0.57653 0.0
C168 C 0.07129 0.08298 0.49969 0.0
O169 O 0.02739 0.10068 0.54777 0.0
O170 O 0.07045 0.10098 0.56291 0.0
O171 O 0.08646 0.07648 0.51915 0.0
O172 O 0.04419 0.07885 0.50316 0.0
O173 O 0.06923 0.02129 0.54402 0.0
H174 H 0.13013 0.10355 0.54947 0.0
H175 H 0.10016 0.02072 0.59133 0.0
O176 O 0.02768 0.02334 0.52647 0.0
O177 O 1.01062 0.04494 0.57144 0.0
O178 O 0.05302 0.04578 0.58787 0.0
C179 C 0.02596 0.03994 0.59118 0.0
H180 H 0.92438 0.02901 0.51812 0.0
H181 H 0.17307 0.08758 0.57706 0.0
Co182 Co 0.51755 0.06651 0.05342 0.0
C183 C 0.51609 0.02367 0.09701 0.0
Co184 Co 0.54587 0.07995 0.0861 0.0
C185 C 0.49671 0.04651 1.00298 0.0
C186 C 0.46334 0.04392 0.03225 0.0
N187 N 0.49178 0.0526 0.02811 0.0
N188 N 0.47246 0.03418 0.9914 0.0
C189 C 0.45144 0.03282 1.00979 0.0
H190 H 0.51782 0.04991 0.99378 0.0
H191 H 0.45195 0.04468 0.05072 0.0
C192 C 0.54739 0.12272 0.04246 0.0
N193 N 0.5715 0.09412 0.11124 0.0
C194 C 0.56708 0.09638 0.13732 0.0
C195 C 0.59853 0.10854 0.10586 0.0
N196 N 0.59015 0.11212 0.14815 0.0
C197 C 0.60997 0.11979 0.12849 0.0
C198 C 0.57193 0.05169 0.04689 0.0
O199 O 0.52889 0.10336 0.03253 0.0
O200 O 0.55682 0.1166 0.06521 0.0
O201 O 0.57573 0.06364 0.06876 0.0
O202 O 0.54752 0.05025 0.03642 0.0
O203 O 0.53465 0.04305 0.10686 0.0
H204 H 0.6088 0.11187 0.08642 0.0
H205 H 0.54688 0.08818 0.14778 0.0
O206 O 0.5064 0.02981 0.07432 0.0
O207 O 0.48797 0.08294 0.07076 0.0
O208 O 0.51586 0.09624 0.10329 0.0
C209 C 0.49154 0.09478 0.09266 0.0
H210 H 0.42902 0.02401 1.00745 0.0
H211 H 0.63093 0.13322 0.13026 0.0
Co212 Co 0.54802 0.58267 0.5635 0.0
C213 C 0.50747 0.58685 0.52487 0.0
Co214 Co 0.50509 0.5578 0.57522 0.0
C215 C 0.60947 0.59817 0.55968 0.0
C216 C 0.58875 0.63377 0.54426 0.0
N217 N 0.5835 0.60499 0.5543 0.0
N218 N 0.63057 0.62177 0.55392 0.0
C219 C 0.6177 0.64421 0.54417 0.0
H220 H 0.61272 0.57689 0.56904 0.0
H221 H 0.57245 0.64672 0.53856 0.0
C222 C 0.54555 0.55386 0.61392 0.0
N223 N 0.46961 0.53577 0.58512 0.0
C224 C 0.44367 0.54333 0.5812 0.0
C225 C 0.46431 0.50902 0.59936 0.0
N226 N 0.42248 0.52251 0.5927 0.0
C227 C 0.43533 0.5009 0.60419 0.0
C228 C 0.5397 0.52487 0.54967 0.0
O229 O 0.56226 0.57 0.59668 0.0
O230 O 0.51945 0.54593 0.6085 0.0
O231 O 0.51536 0.52421 0.56062 0.0
O232 O 0.55802 0.54891 0.54845 0.0
O233 O 0.49097 0.56995 0.54186 0.0
H234 H 0.48053 0.49644 0.60611 0.0
H235 H 0.44045 0.56408 0.57077 0.0
O236 O 0.53353 0.5953 0.53038 0.0
O237 O 0.53786 0.61613 0.57877 0.0
O238 O 0.49503 0.59147 0.58992 0.0
C239 C 0.51347 0.61529 0.58957 0.0
H240 H 0.62846 0.66668 0.53799 0.0
H241 H 0.42452 0.48067 0.6152 0.0
Co242 Co 0.04996 0.58384 0.01687 0.0
C243 C 0.99446 0.56373 0.03847 0.0
Co244 Co 0.04137 0.59983 0.05557 0.0
C245 C 0.06269 0.58275 0.96051 0.0
C246 C 0.04963 0.53931 0.98066 0.0
N247 N 0.05452 0.56865 0.98458 0.0
N248 N 0.0634 0.56321 0.94194 0.0
C249 C 0.05521 0.53591 0.9546 0.0
H250 H 0.06806 0.60678 0.9567 0.0
H251 H 0.04207 0.52144 0.99575 0.0
C252 C 0.09695 0.61975 0.03404 0.0
N253 N 0.03758 0.6142 0.08828 0.0
C254 C 0.016 0.62517 0.09933 0.0
C255 C 0.05833 0.6166 0.10635 0.0
N256 N 0.02285 0.63468 0.12339 0.0
C257 C 0.0494 0.62927 0.12783 0.0
C258 C 0.06346 0.54629 0.0597 0.0
O259 O 0.08859 0.60435 0.01488 0.0
O260 O 0.07943 0.62108 0.0528 0.0
O261 O 0.0548 0.56568 0.07294 0.0
O262 O 0.06279 0.54967 0.03459 0.0
O263 O 1.00312 0.57862 0.05788 0.0
H264 H 0.07879 0.60968 0.10401 0.0
H265 H 0.99597 0.62662 0.08977 0.0
O266 O 1.0116 0.56314 0.01914 0.0
O267 O 0.03688 0.61851 0.9995 0.0
O268 O 0.02804 0.63366 0.03825 0.0
C269 C 0.02765 0.63745 1.01307 0.0
H270 H 0.05263 0.51499 0.94546 0.0
H271 H 0.06134 0.63376 0.14558 0.0
C272 C 0.19451 0.21069 0.29438 0.0
C273 C 0.20078 0.19288 0.27431 0.0
C274 C 0.17974 0.19795 0.31786 0.0
C275 C 0.16155 0.1273 0.3613 0.0
H276 H 0.10422 0.16681 0.39129 0.0
C277 C 0.1147 0.09561 0.46878 0.0
C278 C 0.08524 0.09487 0.47333 0.0
C279 C 0.12794 0.1065 0.44412 0.0
C280 C 0.12002 0.15531 0.38318 0.0
H281 H 0.19615 0.14705 0.26407 0.0
H282 H 0.17092 0.12486 0.30523 0.0
H283 H 0.12838 0.18718 0.34927 0.0
H284 H 0.04678 0.10531 0.45505 0.0
H285 H 0.06989 0.12454 0.41218 0.0
H286 H 0.15324 0.09548 0.39529 0.0
C287 C 0.1775 0.14888 0.30263 0.0
C288 C 0.13413 0.1672 0.35911 0.0
C289 C 0.19209 0.16167 0.27893 0.0
C290 C 0.06948 0.10551 0.4524 0.0
C291 C 0.08281 0.1167 0.42778 0.0
C292 C 0.14765 0.11558 0.38553 0.0
C293 C 0.17093 0.16685 0.32242 0.0
C294 C 0.15523 0.15347 0.34779 0.0
C295 C 0.11227 0.11732 0.4232 0.0
C296 C 0.1267 0.12944 0.39694 0.0
H297 H 0.20144 0.23467 0.29227 0.0
H298 H 0.1757 0.21258 0.33274 0.0
H299 H 0.17774 0.11614 0.35342 0.0
H300 H 0.12764 0.08766 0.48432 0.0
H301 H 0.15068 0.10689 0.44161 0.0
C302 C 0.41735 0.92222 0.78306 0.0
C303 C 0.42795 0.89534 0.78326 0.0
C304 C 0.4262 0.94251 0.80178 0.0
C305 C 0.47888 0.96137 0.85432 0.0
H306 H 0.41516 0.98818 0.88779 0.0
C307 C 0.44637 1.00007 0.96095 0.0
C308 C 0.46969 0.02239 0.96579 0.0
C309 C 0.44345 0.98846 0.93635 0.0
C310 C 0.4332 0.98094 0.87861 0.0
H311 H 0.4571 0.86923 0.8023 0.0
H312 H 0.47226 0.90446 0.83533 0.0
H313 H 0.40737 0.96128 0.8483 0.0
H314 H 0.50836 0.0499 0.94832 0.0
H315 H 0.50335 0.0292 0.90518 0.0
H316 H 0.50436 0.98005 0.88558 0.0
C317 C 0.45744 0.9101 0.82048 0.0
C318 C 0.42883 0.96582 0.85578 0.0
C319 C 0.44871 0.88987 0.80163 0.0
C320 C 0.49025 0.03259 0.94536 0.0
C321 C 0.48738 0.02079 0.92065 0.0
C322 C 0.48327 0.97661 0.87723 0.0
C323 C 0.44568 0.93626 0.82121 0.0
C324 C 0.45146 0.95533 0.84364 0.0
C325 C 0.46381 0.99874 0.91589 0.0
C326 C 0.46029 0.98589 0.88994 0.0
H327 H 0.40171 0.92724 0.76878 0.0
H328 H 0.41718 0.96275 0.80147 0.0
H329 H 0.4968 0.95383 0.84526 0.0
H330 H 0.43049 0.99104 0.97629 0.0
H331 H 0.42541 0.97098 0.93348 0.0
C332 C 0.62165 0.54486 0.84198 0.0
C333 C 0.62081 0.51707 0.85641 0.0
C334 C 0.61541 0.54652 0.81511 0.0
C335 C 0.61559 0.54591 0.75565 0.0
H336 H 0.5545 0.48801 0.73016 0.0
C337 C 0.58531 0.55118 0.64568 0.0
C338 C 0.55596 0.54558 0.64041 0.0
C339 C 0.59488 0.5449 0.67116 0.0
C340 C 0.5715 0.50449 0.73696 0.0
H341 H 0.61281 0.46914 0.85359 0.0
H342 H 0.60297 0.47207 0.80646 0.0
H343 H 0.56769 0.48329 0.77634 0.0
H344 H 0.51368 0.52855 0.65767 0.0
H345 H 0.5302 0.51847 0.70213 0.0
H346 H 0.61841 0.56803 0.71669 0.0
C347 C 0.60791 0.49262 0.8161 0.0
C348 C 0.57937 0.50154 0.76341 0.0
C349 C 0.61393 0.49095 0.8431 0.0
C350 C 0.53645 0.53303 0.66104 0.0
C351 C 0.54598 0.52704 0.68655 0.0
C352 C 0.60755 0.54903 0.72928 0.0
C353 C 0.60847 0.52044 0.80177 0.0
C354 C 0.60128 0.52243 0.7732 0.0
C355 C 0.5753 0.53316 0.69204 0.0
C356 C 0.58516 0.52857 0.71964 0.0
H357 H 0.62733 0.5655 0.85138 0.0
H358 H 0.61564 0.56834 0.8049 0.0
H359 H 0.63292 0.56213 0.76231 0.0
H360 H 0.6009 0.56064 0.63015 0.0
H361 H 0.61765 0.5494 0.6745 0.0
C362 C 0.9197 0.71381 0.31998 0.0
C363 C 0.89222 0.6981 0.32725 0.0
C364 C 0.93254 0.7098 0.29591 0.0
C365 C 0.91759 0.68194 0.23005 0.0
H366 H 0.99688 0.67178 0.23198 0.0
C367 C 0.9765 0.63564 0.1456 0.0
C368 C 1.00573 0.64726 0.14148 0.0
C369 C 0.96115 0.64477 0.16628 0.0
C370 C 0.97487 0.67506 0.23094 0.0
H371 H 0.85663 0.66588 0.31496 0.0
H372 H 0.87908 0.65888 0.27295 0.0
H373 H 0.97321 0.68208 0.27205 0.0
H374 H 0.04125 0.67922 0.15393 0.0
H375 H 1.01449 0.69571 0.1895 0.0
H376 H 0.91932 0.67456 0.18883 0.0
C377 C 0.89051 0.67462 0.28568 0.0
C378 C 0.9613 0.68093 0.25396 0.0
C379 C 0.87768 0.67861 0.30976 0.0
C380 C 0.01885 0.66954 0.1571 0.0
C381 C 1.00355 0.67885 0.1775 0.0
C382 C 0.93124 0.6761 0.2069 0.0
C383 C 0.91818 0.68998 0.27861 0.0
C384 C 0.93253 0.68444 0.2538 0.0
C385 C 0.97481 0.66582 0.18296 0.0
C386 C 0.96007 0.67265 0.20712 0.0
H387 H 0.93125 0.72935 0.33282 0.0
H388 H 0.95372 0.72229 0.29082 0.0
H389 H 0.89544 0.68476 0.22929 0.0
H390 H 0.96601 0.61834 0.13383 0.0
H391 H 0.93905 0.63424 0.17002 0.0
C392 C 0.29339 0.17612 0.21724 0.0
C393 C 0.27749 0.19443 0.20204 0.0
C394 C 0.31599 0.16474 0.20578 0.0
C395 C 0.34881 0.15397 0.13942 0.0
H396 H 0.41302 0.14007 0.18209 0.0
C397 C 0.43923 0.09883 0.09659 0.0
C398 C 0.46733 0.10609 0.1056 0.0
C399 C 0.41632 0.10899 0.10864 0.0
C400 C 0.39553 0.1441 0.16962 0.0
H401 H 0.27327 0.2141 0.16215 0.0
H402 H 0.31297 0.19576 0.14275 0.0
H403 H 0.37374 0.15909 0.20185 0.0
H404 H 0.49305 0.13016 0.1346 0.0
H405 H 0.45354 0.14881 0.15496 0.0
H406 H 0.37113 0.14043 0.10689 0.0
C407 C 0.30776 0.18951 0.16351 0.0
C408 C 0.37249 0.15464 0.1812 0.0
C409 C 0.28499 0.20058 0.17488 0.0
C410 C 0.47176 0.12397 0.12709 0.0
C411 C 0.44886 0.13452 0.13896 0.0
C412 C 0.37196 0.1438 0.12778 0.0
C413 C 0.32383 0.17139 0.17869 0.0
C414 C 0.34859 0.15978 0.16636 0.0
C415 C 0.4206 0.12723 0.12999 0.0
C416 C 0.39582 0.13852 0.14261 0.0
H417 H 0.28885 0.17097 0.23824 0.0
H418 H 0.32722 0.15055 0.21832 0.0
H419 H 0.33091 0.157 0.12712 0.0
H420 H 0.43477 0.08489 0.08029 0.0
H421 H 0.3951 0.10204 0.10129 0.0
C422 C 0.2532 0.87222 0.7304 0.0
C423 C 0.2812 0.87158 0.72147 0.0
C424 C 0.23787 0.89318 0.71883 0.0
C425 C 0.24656 0.96522 0.6783 0.0
H426 H 0.16887 0.93669 0.65766 0.0
C427 C 0.18711 0.03254 0.60342 0.0
C428 C 0.15763 0.03125 0.60765 0.0
C429 C 0.20205 0.01464 0.61956 0.0
C430 C 0.19037 0.94516 0.66367 0.0
H431 H 0.31494 0.89234 0.6932 0.0
H432 H 0.28834 0.929 0.67329 0.0
H433 H 0.19509 0.90259 0.68226 0.0
H434 H 0.12097 0.01125 0.63285 0.0
H435 H 0.14704 0.98018 0.66116 0.0
H436 H 0.24195 0.00774 0.65952 0.0
C437 C 0.27839 0.91359 0.68949 0.0
C438 C 0.20538 0.9256 0.67775 0.0
C439 C 0.29364 0.89259 0.70094 0.0
C440 C 0.14355 0.01228 0.62877 0.0
C441 C 0.1585 0.99449 0.64499 0.0
C442 C 0.23151 0.98483 0.66431 0.0
C443 C 0.2503 0.91398 0.69817 0.0
C444 C 0.23374 0.93533 0.68493 0.0
C445 C 0.18785 0.99519 0.64037 0.0
C446 C 0.20335 0.97493 0.65657 0.0
H447 H 0.24315 0.85658 0.7464 0.0
H448 H 0.21633 0.89317 0.72609 0.0
H449 H 0.26828 0.97342 0.6839 0.0
H450 H 0.19845 0.04671 0.58714 0.0
H451 H 0.22456 0.01541 0.61524 0.0
C452 C 0.74235 0.49482 0.98429 0.0
C453 C 0.73834 0.47167 0.96728 0.0
C454 C 0.76895 0.50356 0.99555 0.0
C455 C 0.83783 0.4775 1.0091 0.0
H456 H 0.86653 0.56144 0.0158 0.0
C457 C 0.95684 0.52687 0.01931 0.0
C458 C 0.96429 0.54908 0.03691 0.0
C459 C 0.92819 0.51552 0.01502 0.0
C460 C 0.8586 0.53787 0.01446 0.0
H461 H 0.75911 0.44009 0.94815 0.0
H462 H 0.80566 0.45579 0.96714 0.0
H463 H 0.81873 0.54612 0.99907 0.0
H464 H 0.94762 0.57619 0.06445 0.0
H465 H 0.89725 0.55653 0.0566 0.0
H466 H 0.87827 0.46951 0.02351 0.0
C467 C 0.78814 0.46665 0.9725 0.0
C468 C 0.83119 0.52906 1.00486 0.0
C469 C 0.76152 0.45775 0.96146 0.0
C470 C 0.94249 0.55897 0.05087 0.0
C471 C 0.91372 0.54791 0.04625 0.0
C472 C 0.86532 0.48636 0.01843 0.0
C473 C 0.79218 0.48952 0.98987 0.0
C474 C 0.82061 0.49879 1.00167 0.0
C475 C 0.90633 0.5264 0.02796 0.0
C476 C 0.87612 0.51667 0.02086 0.0
H477 H 0.72474 0.50569 0.98937 0.0
H478 H 0.77113 0.52098 1.00907 0.0
H479 H 0.83017 0.45394 1.00753 0.0
H480 H 0.97319 0.51878 1.0083 0.0
H481 H 0.92315 0.49914 1.00066 0.0
C482 C 0.86848 0.64753 0.49713 0.0
C483 C 0.88421 0.67666 0.49708 0.0
C484 C 0.84638 0.63731 0.51582 0.0
C485 C 0.79499 0.67307 0.54769 0.0
H486 H 0.75865 0.59188 0.56989 0.0
C487 C 0.67543 0.64851 0.57044 0.0
C488 C 0.6604 0.62362 0.55904 0.0
C489 C 0.70496 0.65188 0.57319 0.0
C490 C 0.76851 0.61469 0.56381 0.0
H491 H 0.89183 0.71623 0.51888 0.0
H492 H 0.85398 0.698 0.55191 0.0
H493 H 0.80963 0.60259 0.55765 0.0
H494 H 0.66376 0.58198 0.54283 0.0
H495 H 0.71576 0.58848 0.5461 0.0
H496 H 0.75404 0.68513 0.55175 0.0
C497 C 0.85815 0.68339 0.53705 0.0
C498 C 0.79773 0.62082 0.55697 0.0
C499 C 0.88007 0.69372 0.51823 0.0
C500 C 0.67509 0.60136 0.55161 0.0
C501 C 0.70481 0.60504 0.55375 0.0
C502 C 0.76591 0.66695 0.55425 0.0
C503 C 0.83981 0.65599 0.53488 0.0
C504 C 0.81105 0.64997 0.54804 0.0
C505 C 0.72023 0.63082 0.56387 0.0
C506 C 0.75203 0.63755 0.56159 0.0
H507 H 0.87163 0.63362 0.48138 0.0
H508 H 0.83277 0.61602 0.51362 0.0
H509 H 0.80431 0.69568 0.54037 0.0
H510 H 0.66429 0.66558 0.57683 0.0
H511 H 0.71594 0.67155 0.5818 0.0
C512 C 0.20834 0.36896 0.1556 0.0
C513 C 0.19555 0.34417 0.17267 0.0
C514 C 0.1919 0.38808 0.14269 0.0
C515 C 0.12032 0.39757 0.12006 0.0
H516 H 0.14837 0.48134 0.12843 0.0
C517 C 0.07986 0.49643 0.05936 0.0
C518 C 0.07527 0.52082 0.07322 0.0
C519 C 0.0921 0.47315 0.07179 0.0
C520 C 0.14009 0.45808 0.12598 0.0
H521 H 0.15487 0.31906 0.18784 0.0
H522 H 0.12582 0.35226 0.16449 0.0
H523 H 0.17377 0.44342 0.14842 0.0
H524 H 0.07994 0.53947 0.11128 0.0
H525 H 0.10173 0.4993 0.13271 0.0
H526 H 0.08687 0.4125 0.09711 0.0
C527 C 0.14884 0.35696 0.16155 0.0
C528 C 0.15481 0.43628 0.1373 0.0
C529 C 0.16546 0.33783 0.17482 0.0
C530 C 0.08306 0.5211 0.09994 0.0
C531 C 0.09572 0.49809 0.11222 0.0
C532 C 0.10581 0.41951 0.10828 0.0
C533 C 0.16199 0.38294 0.14603 0.0
C534 C 0.14526 0.40571 0.13445 0.0
C535 C 0.10058 0.47383 0.09831 0.0
C536 C 0.11551 0.45011 0.11109 0.0
H537 H 0.2314 0.37431 0.15301 0.0
H538 H 0.20276 0.4074 0.13044 0.0
H539 H 0.11239 0.37429 0.1174 0.0
H540 H 0.07413 0.49538 0.03879 0.0
H541 H 0.09569 0.45502 0.06037 0.0
C542 C 0.66258 0.37204 0.97664 0.0
C543 C 0.65782 0.38833 0.95286 0.0
C544 C 0.6506 0.34192 0.98125 0.0
C545 C 0.59115 0.28509 0.96548 0.0
H546 H 0.63925 0.23141 0.99595 0.0
C547 C 0.54901 0.16013 1.00274 0.0
C548 C 0.55878 0.15191 0.0279 0.0
C549 C 0.56077 0.18768 0.98922 0.0
C550 C 0.62552 0.2461 0.98746 0.0
H551 H 0.63621 0.38552 0.91539 0.0
H552 H 0.61455 0.33266 0.92392 0.0
H553 H 0.66061 0.2823 0.97999 0.0
H554 H 0.58829 0.16635 0.05866 0.0
H555 H 0.60842 0.2139 0.03535 0.0
H556 H 0.55584 0.24902 0.974 0.0
C557 C 0.62788 0.34348 0.93878 0.0
C558 C 0.63776 0.27519 0.97829 0.0
C559 C 0.64021 0.37372 0.93398 0.0
C560 C 0.5803 0.17181 0.03928 0.0
C561 C 0.59205 0.19906 0.0258 0.0
C562 C 0.57881 0.25585 0.9748 0.0
C563 C 0.63323 0.32727 0.96239 0.0
C564 C 0.62061 0.29527 0.968 0.0
C565 C 0.58266 0.20725 1.00055 0.0
C566 C 0.5958 0.23642 0.98671 0.0
H567 H 0.67524 0.38265 0.99202 0.0
H568 H 0.65455 0.33016 0.9999 0.0
H569 H 0.57745 0.30017 0.95766 0.0
H570 H 0.53243 0.14527 0.99348 0.0
H571 H 0.55312 0.19346 0.96978 0.0
C572 C 0.95911 0.78422 0.44176 0.0
C573 C 0.96071 0.75613 0.45465 0.0
C574 C 0.97822 0.80961 0.44752 0.0
C575 C 0.02004 0.83891 0.50249 0.0
H576 H 0.04199 0.90713 0.45121 0.0
C577 C 0.06341 0.95904 0.53204 0.0
C578 C 0.04683 0.97951 0.52126 0.0
C579 C 0.0609 0.93059 0.5227 0.0
C580 C 0.03629 0.88818 0.46573 0.0
H581 H 0.98491 0.73254 0.48252 0.0
H582 H 0.01828 0.77717 0.49279 0.0
H583 H 0.02396 0.85813 0.43592 0.0
H584 H 0.01543 0.98666 0.49175 0.0
H585 H 1.01142 0.9376 0.47541 0.0
H586 H 0.03132 0.86938 0.53231 0.0
C587 C 1.00197 0.77942 0.47838 0.0
C588 C 0.02589 0.86017 0.457 0.0
C589 C 0.98287 0.7539 0.4725 0.0
C590 C 0.0284 0.97136 0.50058 0.0
C591 C 0.02629 0.94333 0.49101 0.0
C592 C 0.03062 0.86696 0.51123 0.0
C593 C 0.99941 0.80767 0.4664 0.0
C594 C 0.01644 0.83549 0.47531 0.0
C595 C 0.04229 0.92255 0.50207 0.0
C596 C 0.03765 0.89207 0.49294 0.0
H597 H 0.94202 0.787 0.42834 0.0
H598 H 0.97524 0.83104 0.43827 0.0
H599 H 1.01279 0.82042 0.51713 0.0
H600 H 0.07778 0.96477 0.54801 0.0
H601 H 0.0734 0.91488 0.5316 0.0
C602 C 0.43503 0.81701 0.69247 0.0
C603 C 0.43993 0.81932 0.71955 0.0
C604 C 0.44922 0.79889 0.67819 0.0
C605 C 0.47768 0.73058 0.68875 0.0
H606 H 0.50296 0.74805 0.61519 0.0
C607 C 0.48269 0.63842 0.61917 0.0
C608 C 0.5074 0.64109 0.60303 0.0
C609 C 0.47805 0.66205 0.63353 0.0
C610 C 0.49625 0.74296 0.6358 0.0
H611 H 0.46444 0.80594 0.75273 0.0
H612 H 0.4893 0.77383 0.72769 0.0
H613 H 0.49118 0.78804 0.64039 0.0
H614 H 0.54627 0.67089 0.58874 0.0
H615 H 0.5379 0.71233 0.61367 0.0
H616 H 0.48205 0.68541 0.68402 0.0
C617 C 0.47442 0.78605 0.71758 0.0
C618 C 0.48941 0.76577 0.65015 0.0
C619 C 0.46039 0.80448 0.73183 0.0
C620 C 0.52702 0.66815 0.60102 0.0
C621 C 0.52224 0.69189 0.61523 0.0
C622 C 0.48428 0.70777 0.67435 0.0
C623 C 0.46842 0.78254 0.69079 0.0
C624 C 0.47958 0.75966 0.67663 0.0
C625 C 0.4979 0.6889 0.63189 0.0
C626 C 0.49309 0.71362 0.64761 0.0
H627 H 0.41946 0.82846 0.68256 0.0
H628 H 0.44398 0.79644 0.65764 0.0
H629 H 0.46987 0.72515 0.70903 0.0
H630 H 0.46717 0.61787 0.62113 0.0
H631 H 0.45887 0.65934 0.64591 0.0
C632 C 0.93966 0.9407 0.81939 0.0
C633 C 0.90978 0.93222 0.82315 0.0
C634 C 0.95186 0.95304 0.79465 0.0
C635 C 0.93565 0.95991 0.72225 0.0
H636 H 1.00464 0.01984 0.71802 0.0
C637 C 0.98255 0.02097 0.62139 0.0
C638 C 1.01251 0.0277 0.61768 0.0
C639 C 0.96996 0.0097 0.64627 0.0
C640 C 0.98556 1.00287 0.71872 0.0
H641 H 0.86951 0.93057 0.8031 0.0
H642 H 0.89059 0.95271 0.76043 0.0
H643 H 0.98298 1.00041 0.76115 0.0
H644 H 0.05257 0.02751 0.6377 0.0
H645 H 0.03076 0.00779 0.68081 0.0
H646 H 0.93822 0.96244 0.6798 0.0
C647 C 0.90475 0.94939 0.77656 0.0
C648 C 0.97304 0.99163 0.74363 0.0
C649 C 0.89254 0.93704 0.80132 0.0
C650 C 0.02945 0.02275 0.63968 0.0
C651 C 0.01686 0.01156 0.66457 0.0
C652 C 0.94814 0.9712 0.69734 0.0
C653 C 0.93467 0.95742 0.77268 0.0
C654 C 0.94787 0.96988 0.7459 0.0
C655 C 0.98688 0.00483 0.66835 0.0
C656 C 0.97337 0.99284 0.69509 0.0
H657 H 0.95379 0.93776 0.83562 0.0
H658 H 0.97494 0.95854 0.79268 0.0
H659 H 0.91664 0.94285 0.72291 0.0
H660 H 0.96872 0.02451 0.60504 0.0
H661 H 0.94686 0.00525 0.64825 0.0
C662 C 0.64602 0.20752 0.36405 0.0
C663 C 0.65176 0.18442 0.38199 0.0
C664 C 0.63612 0.20126 0.33886 0.0
C665 C 0.59797 0.14349 0.30087 0.0
H666 H 0.64577 0.18152 0.24089 0.0
C667 C 0.58452 0.10121 0.19648 0.0
C668 C 0.59242 0.12166 0.17443 0.0
C669 C 0.589 0.11019 0.22209 0.0
C670 C 0.63169 0.17114 0.25724 0.0
H671 H 0.65106 0.13685 0.38852 0.0
H672 H 0.63291 0.12571 0.34465 0.0
H673 H 0.65773 0.19554 0.28523 0.0
H674 H 0.60937 0.16769 0.16141 0.0
H675 H 0.61575 0.18399 0.20589 0.0
H676 H 0.57147 0.11952 0.27309 0.0
C677 C 0.63631 0.14859 0.34992 0.0
C678 C 0.63873 0.17912 0.28267 0.0
C679 C 0.64678 0.15494 0.37482 0.0
C680 C 0.60361 0.15149 0.17825 0.0
C681 C 0.60743 0.16068 0.20376 0.0
C682 C 0.59053 0.13593 0.27535 0.0
C683 C 0.63121 0.17173 0.33165 0.0
C684 C 0.62218 0.16506 0.30468 0.0
C685 C 0.60086 0.14003 0.22607 0.0
C686 C 0.60754 0.14933 0.25319 0.0
H687 H 0.64977 0.2304 0.36933 0.0
H688 H 0.63231 0.21941 0.32501 0.0
H689 H 0.58483 0.13248 0.31764 0.0
H690 H 0.57596 0.07806 0.19383 0.0
H691 H 0.58402 0.09347 0.23864 0.0
C692 C 0.44249 0.65215 0.2954 0.0
C693 C 0.42112 0.62932 0.28768 0.0
C694 C 0.45077 0.65243 0.32184 0.0
C695 C 0.42814 0.62306 0.39022 0.0
H696 H 0.50907 0.62616 0.40196 0.0
C697 C 0.46983 0.58217 0.49047 0.0
C698 C 0.49664 0.59608 0.49876 0.0
C699 C 0.46008 0.58997 0.46539 0.0
C700 C 0.48646 0.62585 0.39919 0.0
H701 H 0.39067 0.58985 0.30157 0.0
H702 H 0.40475 0.59061 0.34773 0.0
H703 H 0.4925 0.63447 0.35712 0.0
H704 H 0.53388 0.6298 0.48753 0.0
H705 H 0.51657 0.64404 0.44411 0.0
H706 H 0.42195 0.61447 0.43219 0.0
C707 C 0.41525 0.60816 0.33343 0.0
C708 C 0.47698 0.63057 0.37342 0.0
C709 C 0.40731 0.60761 0.30701 0.0
C710 C 0.51322 0.61846 0.48164 0.0
C711 C 0.50333 0.62651 0.45666 0.0
C712 C 0.43762 0.61868 0.41603 0.0
C713 C 0.43745 0.63021 0.34105 0.0
C714 C 0.44768 0.62866 0.36862 0.0
C715 C 0.47676 0.61215 0.44805 0.0
C716 C 0.46686 0.6194 0.42083 0.0
H717 H 0.45352 0.66905 0.28082 0.0
H718 H 0.46785 0.66978 0.32722 0.0
H719 H 0.40545 0.62178 0.38712 0.0
H720 H 0.45657 0.56476 0.50313 0.0
H721 H 0.43976 0.578 0.45939 0.0
C722 C 0.06371 0.51292 0.7191 0.0
C723 C 0.0479 0.52695 0.70022 0.0
C724 C 0.07041 0.52519 0.74307 0.0
C725 C 0.04436 0.57209 0.78955 0.0
H726 H 0.11616 0.56631 0.82349 0.0
C727 C 0.06015 0.59315 0.89956 0.0
C728 C 0.06967 0.56936 0.91402 0.0
C729 C 0.06239 0.59603 0.87183 0.0
C730 C 0.09605 0.56821 0.81424 0.0
H731 H 0.02749 0.56547 0.69152 0.0
H732 H 0.03888 0.58669 0.73372 0.0
H733 H 0.11043 0.5559 0.77717 0.0
H734 H 0.09087 0.5314 0.91121 0.0
H735 H 0.09478 0.53626 0.86311 0.0
H736 H 0.02953 0.58309 0.82692 0.0
C737 C 0.04594 0.56608 0.72989 0.0
C738 C 0.09275 0.5622 0.78775 0.0
C739 C 0.03934 0.55386 0.70578 0.0
C740 C 0.08309 0.54973 0.90047 0.0
C741 C 0.08558 0.55274 0.87292 0.0
C742 C 0.04765 0.57808 0.81608 0.0
C743 C 0.06139 0.55175 0.74887 0.0
C744 C 0.06653 0.56305 0.77539 0.0
C745 C 0.07455 0.5754 0.85822 0.0
C746 C 0.07319 0.57516 0.82897 0.0
H747 H 0.07018 0.49189 0.71574 0.0
H748 H 0.08182 0.51324 0.75749 0.0
H749 H 0.02383 0.57276 0.78066 0.0
H750 H 0.04964 0.60851 0.90958 0.0
H751 H 0.05389 0.61385 0.86103 0.0
C752 C 0.76061 0.93004 0.95263 0.0
C753 C 0.77303 0.94267 0.92805 0.0
C754 C 0.74156 0.9441 0.96644 0.0
C755 C 0.69126 0.99817 0.95456 0.0
H756 H 0.68405 0.99114 0.03115 0.0
C757 C 0.59187 0.02687 1.00945 0.0
C758 C 0.5958 0.04004 0.03367 0.0
C759 C 0.61435 0.01629 0.99697 0.0
C760 C 0.68576 0.99363 1.00973 0.0
H761 H 0.7751 0.98021 0.89883 0.0
H762 H 0.74252 0.00529 0.92311 0.0
H763 H 0.72269 0.97243 1.0096 0.0
H764 H 0.62705 0.05235 0.0635 0.0
H765 H 0.66605 0.03427 0.0418 0.0
H766 H 0.65453 0.01966 0.95469 0.0
C767 C 0.74736 0.98435 0.9318 0.0
C768 C 0.70792 0.98251 0.99728 0.0
C769 C 0.76654 0.97028 0.91804 0.0
C770 C 0.62299 0.04224 0.04497 0.0
C771 C 0.64546 0.03165 0.03251 0.0
C772 C 0.66906 0.00922 0.96702 0.0
C773 C 0.73394 0.97114 0.95596 0.0
C774 C 0.71104 0.98443 0.96943 0.0
C775 C 0.64161 0.01848 1.00824 0.0
C776 C 0.66577 0.00704 0.99486 0.0
H777 H 0.76444 0.90835 0.96049 0.0
H778 H 0.73161 0.93282 0.98469 0.0
H779 H 0.69246 0.99987 0.93313 0.0
H780 H 0.57132 0.02466 1.00007 0.0
H781 H 0.61014 0.00597 0.97858 0.0
C782 C 0.73403 0.16623 0.47021 0.0
C783 C 0.73012 0.18309 0.44655 0.0
C784 C 0.76099 0.1601 0.47656 0.0
C785 C 0.83052 0.15442 0.4466 0.0
H786 H 0.85237 0.14981 0.52013 0.0
C787 C 0.9346 0.11467 0.48314 0.0
C788 C 0.92874 0.09089 0.50292 0.0
C789 C 0.91336 0.13123 0.47568 0.0
C790 C 0.84661 0.15121 0.49949 0.0
H791 H 0.75142 0.20706 0.41112 0.0
H792 H 0.79878 0.19644 0.42232 0.0
H793 H 0.80943 0.16958 0.50791 0.0
H794 H 0.89676 0.0665 0.53113 0.0
H795 H 0.85991 0.09548 0.51841 0.0
H796 H 0.86766 0.13551 0.43842 0.0
C797 C 0.78087 0.18771 0.4358 0.0
C798 C 0.82197 0.16234 0.4925 0.0
C799 C 0.75379 0.19377 0.42938 0.0
C800 C 0.90167 0.08446 0.51559 0.0
C801 C 0.88072 0.10124 0.5085 0.0
C802 C 0.85538 0.1435 0.4536 0.0
C803 C 0.78475 0.17078 0.45947 0.0
C804 C 0.81309 0.16312 0.46612 0.0
C805 C 0.88626 0.12462 0.48837 0.0
C806 C 0.86308 0.14092 0.48023 0.0
H807 H 0.7161 0.15723 0.48359 0.0
H808 H 0.76304 0.14636 0.49463 0.0
H809 H 0.82421 0.15457 0.42612 0.0
H810 H 0.95534 0.11993 0.47311 0.0
H811 H 0.91808 0.14918 0.46009 0.0
C812 C 0.33488 0.69426 0.1225 0.0
C813 C 0.33375 0.68009 0.14833 0.0
C814 C 0.31176 0.68847 0.10577 0.0
C815 C 0.24765 0.63372 0.09395 0.0
H816 H 0.21905 0.70151 0.05997 0.0
C817 C 0.13473 0.65628 0.05312 0.0
C818 C 0.12737 0.63252 0.03708 0.0
C819 C 0.16279 0.66424 0.06131 0.0
C820 C 0.22698 0.68239 0.06913 0.0
H821 H 0.30732 0.64831 0.17652 0.0
H822 H 0.26718 0.63775 0.14702 0.0
H823 H 0.26237 0.70982 0.08599 0.0
H824 H 0.1438 0.59945 0.01587 0.0
H825 H 0.19302 0.61318 0.03055 0.0
H826 H 0.21189 0.60632 0.07761 0.0
C827 C 0.28609 0.65334 0.13982 0.0
C828 C 0.25179 0.68711 0.08393 0.0
C829 C 0.30912 0.65938 0.1567 0.0
C830 C 0.14896 0.61804 0.02803 0.0
C831 C 0.17701 0.62568 0.03663 0.0
C832 C 0.22306 0.62898 0.07886 0.0
C833 C 0.28707 0.66806 0.11428 0.0
C834 C 0.26206 0.66285 0.09691 0.0
C835 C 0.18397 0.64829 0.05397 0.0
C836 C 0.21217 0.65329 0.06671 0.0
H837 H 0.35374 0.7098 0.1151 0.0
H838 H 0.31324 0.69985 0.08607 0.0
H839 H 0.25524 0.61462 0.10356 0.0
H840 H 0.11847 0.66775 0.06045 0.0
H841 H 0.16746 0.68162 0.07479 0.0
C842 C 0.16297 0.48704 0.57974 0.0
C843 C 0.14986 0.48215 0.60501 0.0
C844 C 0.19239 0.4974 0.57678 0.0
C845 C 0.25737 0.52772 0.6142 0.0
H846 H 0.29638 0.49322 0.56001 0.0
C847 C 0.37574 0.51301 0.61623 0.0
C848 C 0.39241 0.52335 0.59321 0.0
C849 C 0.34633 0.51287 0.61656 0.0
C850 C 0.2857 0.50329 0.57501 0.0
H851 H 0.15667 0.4844 0.64697 0.0
H852 H 0.2082 0.50104 0.64214 0.0
H853 H 0.24437 0.48385 0.56262 0.0
H854 H 0.39171 0.54177 0.55256 0.0
H855 H 0.33979 0.54062 0.55284 0.0
H856 H 0.29917 0.54544 0.62748 0.0
C857 C 0.19592 0.49808 0.6244 0.0
C858 C 0.25585 0.49812 0.57647 0.0
C859 C 0.1664 0.48836 0.62726 0.0
C860 C 0.37924 0.53384 0.57056 0.0
C861 C 0.34968 0.53309 0.5707 0.0
C862 C 0.28724 0.53234 0.61305 0.0
C863 C 0.20943 0.50232 0.59912 0.0
C864 C 0.24122 0.50997 0.59628 0.0
C865 C 0.33302 0.52253 0.5937 0.0
C866 C 0.3016 0.51992 0.5936 0.0
H867 H 0.15046 0.48248 0.56232 0.0
H868 H 0.20179 0.50108 0.55697 0.0
H869 H 0.24699 0.53781 0.62935 0.0
H870 H 0.38552 0.50506 0.63398 0.0
H871 H 0.33385 0.50442 0.63446 0.0
C872 C 0.9112 0.84957 0.92807 0.0
C873 C 0.91129 0.85476 0.90027 0.0
C874 C 0.92398 0.82655 0.94034 0.0
C875 C 0.9757 0.77525 0.92703 0.0
H876 H 0.94227 0.73131 0.99175 0.0
C877 C 1.01473 0.66778 0.97216 0.0
C878 C 0.01553 0.66304 0.99994 0.0
C879 C 1.00245 0.69127 0.9601 0.0
C880 C 0.95218 0.7435 0.97384 0.0
H881 H 0.92434 0.83851 0.86378 0.0
H882 H 0.94627 0.7987 0.88492 0.0
H883 H 0.92025 0.77145 0.97107 0.0
H884 H 1.00397 0.67988 0.03665 0.0
H885 H 0.98294 0.72065 0.01577 0.0
H886 H 1.00754 0.74714 0.92976 0.0
C887 C 0.93701 0.81288 0.89743 0.0
C888 C 0.93948 0.76672 0.96191 0.0
C889 C 0.92433 0.83589 0.8852 0.0
C890 C 1.00381 0.68266 0.01522 0.0
C891 C 0.99146 0.70604 1.00318 0.0
C892 C 0.98836 0.75198 0.93893 0.0
C893 C 0.93719 0.80778 0.92523 0.0
C894 C 0.95097 0.78304 0.93825 0.0
C895 C 0.99045 0.71074 0.9754 0.0
C896 C 0.97684 0.73567 0.96256 0.0
H897 H 0.90164 0.86366 0.94044 0.0
H898 H 0.92388 0.82382 0.96176 0.0
H899 H 0.98568 0.78744 0.90916 0.0
H900 H 0.0234 0.65316 0.95967 0.0
H901 H 1.00189 0.69378 0.93869 0.0
C902 C 0.42436 0.76961 0.20099 0.0
C903 C 0.41406 0.75461 0.17886 0.0
C904 C 0.43755 0.79976 0.19784 0.0
C905 C 0.43247 0.86626 0.15842 0.0
H906 H 0.51317 0.89797 0.16463 0.0
C907 C 0.48453 0.97372 0.09989 0.0
C908 C 0.50541 0.99419 0.1114 0.0
C909 C 0.47396 0.94591 0.113 0.0
C910 C 0.49048 0.8896 0.16336 0.0
H911 H 0.41166 0.75882 0.13598 0.0
H912 H 0.43369 0.81132 0.13077 0.0
H913 H 0.49442 0.84557 0.17979 0.0
H914 H 0.5317 1.00137 0.14581 0.0
H915 H 0.51301 0.95233 0.16892 0.0
H916 H 0.42827 0.90961 0.14151 0.0
C917 C 0.43134 0.79986 0.15047 0.0
C918 C 0.47983 0.85969 0.172 0.0
C919 C 0.41857 0.76989 0.15352 0.0
C920 C 0.5156 0.98608 0.13642 0.0
C921 C 0.50498 0.95801 0.14961 0.0
C922 C 0.44297 0.89604 0.15004 0.0
C923 C 0.4404 0.81519 0.17258 0.0
C924 C 0.45093 0.84766 0.16874 0.0
C925 C 0.48387 0.93773 0.13807 0.0
C926 C 0.47228 0.90776 0.15142 0.0
H927 H 0.42122 0.75843 0.22074 0.0
H928 H 0.44445 0.81131 0.21514 0.0
H929 H 0.41006 0.85739 0.15588 0.0
H930 H 0.47626 0.97908 0.0806 0.0
H931 H 0.45822 0.93059 0.10324 0.0
C932 C 0.08316 0.38392 0.57524 0.0
C933 C 0.07362 0.39331 0.59899 0.0
C934 C 0.0783 0.35369 0.57071 0.0
C935 C 0.03543 0.27985 0.59301 0.0
H936 H 0.10006 0.25036 0.56406 0.0
C937 C 0.07515 0.16099 0.57636 0.0
C938 C 0.05053 0.1454 0.56532 0.0
C939 C 0.07684 0.19094 0.5813 0.0
C940 C 0.08188 0.25817 0.57237 0.0
H941 H 0.05072 0.37838 0.63627 0.0
H942 H 0.04215 0.32555 0.62833 0.0
H943 H 0.10427 0.30323 0.57042 0.0
H944 H 1.00814 0.14889 0.55129 0.0
H945 H 1.01122 0.20116 0.55974 0.0
H946 H 1.01324 0.23457 0.59537 0.0
C947 C 0.05319 0.34162 0.6131 0.0
C948 C 0.08416 0.28856 0.57567 0.0
C949 C 0.05805 0.3719 0.61764 0.0
C950 C 0.02742 0.16023 0.55984 0.0
C951 C 0.02911 0.19017 0.56481 0.0
C952 C 0.03313 0.2494 0.58965 0.0
C953 C 0.0638 0.33212 0.58983 0.0
C954 C 0.06097 0.29979 0.58599 0.0
C955 C 0.05396 0.20596 0.57533 0.0
C956 C 0.05636 0.23821 0.57931 0.0
H957 H 0.09484 0.39995 0.56032 0.0
H958 H 0.08622 0.34717 0.55232 0.0
H959 H 0.01713 0.28782 0.60089 0.0
H960 H 0.09329 0.1502 0.5809 0.0
H961 H 0.09612 0.20235 0.58979 0.0
C962 C 0.57421 0.2755 0.50186 0.0
C963 C 0.60225 0.27304 0.49455 0.0
C964 C 0.56694 0.30347 0.50446 0.0
C965 C 0.59084 0.38493 0.48885 0.0
H966 H 0.5445 0.38978 0.55133 0.0
C967 C 0.57423 0.49646 0.52969 0.0
C968 C 0.54659 0.4975 0.53937 0.0
C969 C 0.58087 0.46976 0.52167 0.0
C970 C 0.55716 0.38877 0.53362 0.0
H971 H 0.64448 0.29794 0.48351 0.0
H972 H 0.63185 0.34688 0.48833 0.0
H973 H 0.55598 0.34193 0.54156 0.0
H974 H 0.50396 0.47169 0.54718 0.0
H975 H 0.51548 0.42545 0.53306 0.0
H976 H 0.59226 0.43211 0.48127 0.0
C977 C 0.61538 0.32721 0.49169 0.0
C978 C 0.5637 0.3613 0.52797 0.0
C979 C 0.62262 0.29919 0.48895 0.0
C980 C 0.52554 0.47161 0.54007 0.0
C981 C 0.53216 0.44505 0.53209 0.0
C982 C 0.58433 0.41254 0.49456 0.0
C983 C 0.58759 0.32961 0.49999 0.0
C984 C 0.5805 0.35899 0.50548 0.0
C985 C 0.55999 0.44366 0.52326 0.0
C986 C 0.56729 0.41467 0.51695 0.0
H987 H 0.55796 0.25574 0.50585 0.0
H988 H 0.54517 0.3046 0.51032 0.0
H989 H 0.60369 0.38384 0.47127 0.0
H990 H 0.5909 0.51606 0.52888 0.0
H991 H 0.60255 0.46931 0.51508 0.0
loop_
_geom_bond_atom_site_label_1
_geom_bond_atom_site_label_2
_geom_bond_distance
_geom_bond_site_symmetry_2
_ccdc_geom_bond_type
H0 C1 0.949 . S
C1 H0 0.949 . S
C1 C2 1.395 . S
C1 C3 1.391 . S
C2 C1 1.395 . S
C2 C5 1.390 . S
C3 C1 1.391 . S
C3 C7 1.387 . S
C3 C8 1.491 . S
H4 C5 0.950 . S
C5 C2 1.390 . S
C5 H4 0.950 . S
C5 C6 1.378 . S
C6 C5 1.378 . S
C6 C7 1.409 . S
C7 C3 1.387 . S
C7 C6 1.409 . S
C7 H9 0.951 . S
C8 C3 1.491 . S
C8 C10 1.382 . S
C8 C12 1.404 . S
H9 C7 0.951 . S
C10 C8 1.382 . S
C10 C11 1.390 . S
C10 H15 0.949 . S
C11 C10 1.390 . S
C11 C16 1.399 . S
C12 C8 1.404 . S
C12 H13 0.950 . S
C12 C14 1.375 . S
H13 C12 0.950 . S
C14 C12 1.375 . S
C14 C16 1.382 . S
C14 H18 0.950 . S
H15 C10 0.949 . S
C16 C11 1.399 . S
C16 C14 1.382 . S
C16 H17 0.952 . S
H17 C16 0.952 . S
H18 C14 0.950 . S
H19 C20 0.949 . S
C20 H19 0.949 . S
C20 C21 1.395 . S
C20 C22 1.391 . S
C21 C20 1.395 . S
C21 C24 1.390 . S
C22 C20 1.391 . S
C22 C26 1.387 . S
C22 C27 1.491 . S
H23 C24 0.950 . S
C24 C21 1.390 . S
C24 H23 0.950 . S
C24 C25 1.378 . S
C25 C24 1.378 . S
C25 C26 1.409 . S
C26 C22 1.387 . S
C26 C25 1.409 . S
C26 H28 0.951 . S
C27 C22 1.491 . S
C27 C29 1.382 . S
C27 C31 1.404 . S
H28 C26 0.951 . S
C29 C27 1.382 . S
C29 C30 1.390 . S
C29 H34 0.949 . S
C30 C29 1.390 . S
C30 C35 1.399 . S
C31 C27 1.404 . S
C31 H32 0.950 . S
C31 C33 1.375 . S
H32 C31 0.950 . S
C33 C31 1.375 . S
C33 C35 1.382 . S
C33 H37 0.950 . S
H34 C29 0.949 . S
C35 C30 1.399 . S
C35 C33 1.382 . S
C35 H36 0.952 . S
H36 C35 0.952 . S
H37 C33 0.950 . S
H38 C39 0.949 . S
C39 H38 0.949 . S
C39 C40 1.395 . S
C39 C41 1.391 . S
C40 C39 1.395 . S
C40 C43 1.390 . S
C41 C39 1.391 . S
C41 C45 1.387 . S
C41 C46 1.491 . S
H42 C43 0.950 . S
C43 C40 1.390 . S
C43 H42 0.950 . S
C43 C44 1.378 . S
C44 C43 1.378 . S
C44 C45 1.409 . S
C45 C41 1.387 . S
C45 C44 1.409 . S
C45 H47 0.951 . S
C46 C41 1.491 . S
C46 C48 1.382 . S
C46 C50 1.404 . S
H47 C45 0.951 . S
C48 C46 1.382 . S
C48 C49 1.390 . S
C48 H53 0.949 . S
C49 C48 1.390 . S
C49 C54 1.399 . S
C50 C46 1.404 . S
C50 H51 0.950 . S
C50 C52 1.375 . S
H51 C50 0.950 . S
C52 C50 1.375 . S
C52 C54 1.382 . S
C52 H56 0.950 . S
H53 C48 0.949 . S
C54 C49 1.399 . S
C54 C52 1.382 . S
C54 H55 0.952 . S
H55 C54 0.952 . S
H56 C52 0.950 . S
H57 C58 0.949 . S
C58 H57 0.949 . S
C58 C59 1.395 . S
C58 C60 1.391 . S
C59 C58 1.395 . S
C59 C62 1.390 . S
C60 C58 1.391 . S
C60 C64 1.387 . S
C60 C65 1.491 . S
H61 C62 0.950 . S
C62 C59 1.390 . S
C62 H61 0.950 . S
C62 C63 1.378 . S
C63 C62 1.378 . S
C63 C64 1.409 . S
C64 C60 1.387 . S
C64 C63 1.409 . S
C64 H66 0.951 . S
C65 C60 1.491 . S
C65 C67 1.382 . S
C65 C69 1.404 . S
H66 C64 0.951 . S
C67 C65 1.382 . S
C67 C68 1.390 . S
C67 H72 0.949 . S
C68 C67 1.390 . S
C68 C73 1.399 . S
C69 C65 1.404 . S
C69 H70 0.950 . S
C69 C71 1.375 . S
H70 C69 0.950 . S
C71 C69 1.375 . S
C71 C73 1.382 . S
C71 H75 0.950 . S
H72 C67 0.949 . S
C73 C68 1.399 . S
C73 C71 1.382 . S
C73 H74 0.952 . S
H74 C73 0.952 . S
H75 C71 0.950 . S
H76 C77 0.949 . S
C77 H76 0.949 . S
C77 C78 1.395 . S
C77 C79 1.391 . S
C78 C77 1.395 . S
C78 C81 1.390 . S
C79 C77 1.391 . S
C79 C83 1.387 . S
C79 C84 1.491 . S
H80 C81 0.950 . S
C81 C78 1.390 . S
C81 H80 0.950 . S
C81 C82 1.378 . S
C82 C81 1.378 . S
C82 C83 1.409 . S
C83 C79 1.387 . S
C83 C82 1.409 . S
C83 H85 0.951 . S
C84 C79 1.491 . S
C84 C86 1.382 . S
C84 C88 1.404 . S
H85 C83 0.951 . S
C86 C84 1.382 . S
C86 C87 1.390 . S
C86 H91 0.949 . S
C87 C86 1.390 . S
C87 C92 1.399 . S
C88 C84 1.404 . S
C88 H89 0.950 . S
C88 C90 1.375 . S
H89 C88 0.950 . S
C90 C88 1.375 . S
C90 C92 1.382 . S
C90 H94 0.950 . S
H91 C86 0.949 . S
C92 C87 1.399 . S
C92 C90 1.382 . S
C92 H93 0.952 . S
H93 C92 0.952 . S
H94 C90 0.950 . S
H95 C96 0.949 . S
C96 H95 0.949 . S
C96 C97 1.395 . S
C96 C98 1.391 . S
C97 C96 1.395 . S
C97 C100 1.390 . S
C98 C96 1.391 . S
C98 C102 1.387 . S
C98 C103 1.491 . S
H99 C100 0.950 . S
C100 C97 1.390 . S
C100 H99 0.950 . S
C100 C101 1.378 . S
C101 C100 1.378 . S
C101 C102 1.409 . S
C102 C98 1.387 . S
C102 C101 1.409 . S
C102 H104 0.951 . S
C103 C98 1.491 . S
C103 C105 1.382 . S
C103 C107 1.404 . S
H104 C102 0.951 . S
C105 C103 1.382 . S
C105 C106 1.390 . S
C105 H110 0.949 . S
C106 C105 1.390 . S
C106 C111 1.399 . S
C107 C103 1.404 . S
C107 H108 0.950 . S
C107 C109 1.375 . S
H108 C107 0.950 . S
C109 C107 1.375 . S
C109 C111 1.382 . S
C109 H113 0.950 . S
H110 C105 0.949 . S
C111 C106 1.399 . S
C111 C109 1.382 . S
C111 H112 0.952 . S
H112 C111 0.952 . S
H113 C109 0.950 . S
H114 C115 0.949 . S
C115 H114 0.949 . S
C115 C116 1.395 . S
C115 C117 1.391 . S
C116 C115 1.395 . S
C116 C119 1.390 . S
C117 C115 1.391 . S
C117 C121 1.387 . S
C117 C122 1.491 . S
H118 C119 0.950 . S
C119 C116 1.390 . S
C119 H118 0.950 . S
C119 C120 1.378 . S
C120 C119 1.378 . S
C120 C121 1.409 . S
C121 C117 1.387 . S
C121 C120 1.409 . S
C121 H123 0.951 . S
C122 C117 1.491 . S
C122 C124 1.382 . S
C122 C126 1.404 . S
H123 C121 0.951 . S
C124 C122 1.382 . S
C124 C125 1.390 . S
C124 H129 0.949 . S
C125 C124 1.390 . S
C125 C130 1.399 . S
C126 C122 1.404 . S
C126 H127 0.950 . S
C126 C128 1.375 . S
H127 C126 0.950 . S
C128 C126 1.375 . S
C128 C130 1.382 . S
C128 H132 0.950 . S
H129 C124 0.949 . S
C130 C125 1.399 . S
C130 C128 1.382 . S
C130 H131 0.952 . S
H131 C130 0.952 . S
H132 C128 0.950 . S
H133 C134 0.949 . S
C134 H133 0.949 . S
C134 C135 1.395 . S
C134 C136 1.391 . S
C135 C134 1.395 . S
C135 C138 1.390 . S
C136 C134 1.391 . S
C136 C140 1.387 . S
C136 C141 1.491 . S
H137 C138 0.950 . S
C138 C135 1.390 . S
C138 H137 0.950 . S
C138 C139 1.378 . S
C139 C138 1.378 . S
C139 C140 1.409 . S
C140 C136 1.387 . S
C140 C139 1.409 . S
C140 H142 0.951 . S
C141 C136 1.491 . S
C141 C143 1.382 . S
C141 C145 1.404 . S
H142 C140 0.951 . S
C143 C141 1.382 . S
C143 C144 1.390 . S
C143 H148 0.949 . S
C144 C143 1.390 . S
C144 C149 1.399 . S
C145 C141 1.404 . S
C145 H146 0.950 . S
C145 C147 1.375 . S
H146 C145 0.950 . S
C147 C145 1.375 . S
C147 C149 1.382 . S
C147 H151 0.950 . S
H148 C143 0.949 . S
C149 C144 1.399 . S
C149 C147 1.382 . S
C149 H150 0.952 . S
H150 C149 0.952 . S
H151 C147 0.950 . S
Co152 N157 2.057 . S
Co152 O169 2.022 . S
Co152 O172 2.048 1_655 S
Co152 O176 2.117 . S
Co152 O177 2.020 . S
C153 O173 1.259 1_665 S
C153 O176 1.258 1_565 S
Co154 N163 2.057 . S
Co154 O170 2.117 . S
Co154 O171 2.020 . S
Co154 O173 2.021 . S
Co154 O178 2.062 . S
C155 N157 1.316 . S
C155 N158 1.347 . S
C155 H160 0.931 . S
C156 N157 1.375 . S
C156 C159 1.350 . S
C156 H161 0.930 . S
N157 Co152 2.057 . S
N157 C155 1.316 . S
N157 C156 1.375 . S
N158 C155 1.347 . S
N158 C159 1.373 . S
C159 C156 1.350 . S
C159 N158 1.373 . S
C159 H180 0.931 . S
H160 C155 0.931 . S
H161 C156 0.930 . S
C162 O169 1.251 1_455 S
C162 O170 1.258 . S
N163 Co154 2.057 . S
N163 C164 1.316 . S
N163 C165 1.375 . S
C164 N163 1.316 . S
C164 N166 1.347 . S
C164 H175 0.931 . S
C165 N163 1.375 . S
C165 C167 1.350 . S
C165 H174 0.930 . S
N166 C164 1.347 . S
N166 C167 1.373 . S
C167 C165 1.350 . S
C167 N166 1.373 . S
C167 H181 0.931 . S
C168 O171 1.256 . S
C168 O172 1.290 . S
O169 Co152 2.022 . S
O169 C162 1.251 1_655 S
O170 Co154 2.117 . S
O170 C162 1.258 . S
O171 Co154 2.020 . S
O171 C168 1.256 . S
O172 Co152 2.048 1_455 S
O172 C168 1.290 . S
O173 C153 1.259 1_445 S
O173 Co154 2.021 . S
H174 C165 0.930 . S
H175 C164 0.931 . S
O176 Co152 2.117 . S
O176 C153 1.258 1_545 S
O177 Co152 2.020 . S
O177 C179 1.256 . S
O178 Co154 2.062 . S
O178 C179 1.255 1_455 S
C179 O177 1.256 . S
C179 O178 1.255 1_655 S
H180 C159 0.931 . S
H181 C167 0.931 . S
Co182 N187 2.057 . S
Co182 O199 2.021 . S
Co182 O202 2.062 . S
Co182 O206 2.117 . S
Co182 O207 2.020 . S
C183 O203 1.259 1_565 S
C183 O206 1.258 1_565 S
Co184 N193 2.057 . S
Co184 O200 2.117 . S
Co184 O201 2.020 . S
Co184 O203 2.021 . S
Co184 O208 2.062 . S
C185 N187 1.316 1_556 S
C185 N188 1.347 . S
C185 H190 0.931 . S
C186 N187 1.375 1_565 S
C186 C189 1.350 1_554 S
C186 H191 0.930 . S
N187 Co182 2.057 . S
N187 C185 1.316 1_554 S
N187 C186 1.375 1_545 S
N188 C185 1.347 . S
N188 C189 1.373 1_545 S
C189 C186 1.350 1_556 S
C189 N188 1.373 1_565 S
C189 H210 0.931 . S
H190 C185 0.931 . S
H191 C186 0.930 . S
C192 O199 1.259 . S
C192 O200 1.258 . S
N193 Co184 2.057 . S
N193 C194 1.316 . S
N193 C195 1.375 . S
C194 N193 1.316 . S
C194 N196 1.347 . S
C194 H205 0.931 . S
C195 N193 1.375 . S
C195 C197 1.350 . S
C195 H204 0.930 . S
N196 C194 1.347 . S
N196 C197 1.373 . S
C197 C195 1.350 . S
C197 N196 1.373 . S
C197 H211 0.931 . S
C198 O201 1.256 . S
C198 O202 1.255 . S
O199 Co182 2.021 . S
O199 C192 1.259 . S
O200 Co184 2.117 . S
O200 C192 1.258 . S
O201 Co184 2.020 . S
O201 C198 1.256 . S
O202 Co182 2.062 . S
O202 C198 1.255 . S
O203 C183 1.259 1_545 S
O203 Co184 2.021 . S
H204 C195 0.930 . S
H205 C194 0.931 . S
O206 Co182 2.117 . S
O206 C183 1.258 1_545 S
O207 Co182 2.020 . S
O207 C209 1.256 . S
O208 Co184 2.062 . S
O208 C209 1.255 . S
C209 O207 1.256 . S
C209 O208 1.255 . S
H210 C189 0.931 . S
H211 C197 0.931 . S
Co212 N217 2.057 . S
Co212 O229 2.021 . S
Co212 O232 2.062 . S
Co212 O236 2.117 . S
Co212 O237 2.020 . S
C213 O233 1.259 . S
C213 O236 1.258 . S
Co214 N223 2.057 . S
Co214 O230 2.117 . S
Co214 O231 2.020 . S
Co214 O233 2.021 . S
Co214 O238 2.062 . S
C215 N217 1.316 . S
C215 N218 1.347 . S
C215 H220 0.931 . S
C216 N217 1.375 . S
C216 C219 1.350 . S
C216 H221 0.930 . S
N217 Co212 2.057 . S
N217 C215 1.316 . S
N217 C216 1.375 . S
N218 C215 1.347 . S
N218 C219 1.373 . S
C219 C216 1.350 . S
C219 N218 1.373 . S
C219 H240 0.931 . S
H220 C215 0.931 . S
H221 C216 0.930 . S
C222 O229 1.259 . S
C222 O230 1.258 . S
N223 Co214 2.057 . S
N223 C224 1.316 . S
N223 C225 1.375 . S
C224 N223 1.316 . S
C224 N226 1.347 . S
C224 H235 0.931 . S
C225 N223 1.375 . S
C225 C227 1.350 . S
C225 H234 0.930 . S
N226 C224 1.347 . S
N226 C227 1.373 . S
C227 C225 1.350 . S
C227 N226 1.373 . S
C227 H241 0.931 . S
C228 O231 1.256 . S
C228 O232 1.255 . S
O229 Co212 2.021 . S
O229 C222 1.259 . S
O230 Co214 2.117 . S
O230 C222 1.258 . S
O231 Co214 2.020 . S
O231 C228 1.256 . S
O232 Co212 2.062 . S
O232 C228 1.255 . S
O233 C213 1.259 . S
O233 Co214 2.021 . S
H234 C225 0.930 . S
H235 C224 0.931 . S
O236 Co212 2.117 . S
O236 C213 1.258 . S
O237 Co212 2.020 . S
O237 C239 1.256 . S
O238 Co214 2.062 . S
O238 C239 1.255 . S
C239 O237 1.256 . S
C239 O238 1.255 . S
H240 C219 0.931 . S
H241 C227 0.931 . S
Co242 N247 2.057 . S
Co242 O259 2.021 1_556 S
Co242 O262 2.062 1_556 S
Co242 O266 2.117 1_455 S
Co242 O267 2.020 . S
C243 O263 1.259 . S
C243 O266 1.258 1_554 S
Co244 N253 2.057 . S
Co244 O260 2.117 . S
Co244 O261 2.020 . S
Co244 O263 2.021 1_455 S
Co244 O268 2.062 . S
C245 N247 1.316 . S
C245 N248 1.347 . S
C245 H250 0.931 . S
C246 N247 1.375 . S
C246 C249 1.350 . S
C246 H251 0.930 1_455 S
N247 Co242 2.057 . S
N247 C245 1.316 . S
N247 C246 1.375 . S
N248 C245 1.347 . S
N248 C249 1.373 . S
C249 C246 1.350 . S
C249 N248 1.373 . S
C249 H270 0.931 . S
H250 C245 0.931 . S
H251 C246 0.930 1_655 S
C252 O259 1.259 . S
C252 O260 1.258 . S
N253 Co244 2.057 . S
N253 C254 1.316 1_455 S
N253 C255 1.375 . S
C254 N253 1.316 1_655 S
C254 N256 1.347 . S
C254 H265 0.931 . S
C255 N253 1.375 . S
C255 C257 1.350 . S
C255 H264 0.930 . S
N256 C254 1.347 . S
N256 C257 1.373 1_655 S
C257 C255 1.350 . S
C257 N256 1.373 1_455 S
C257 H271 0.931 . S
C258 O261 1.256 . S
C258 O262 1.255 . S
O259 Co242 2.021 1_554 S
O259 C252 1.259 . S
O260 Co244 2.117 . S
O260 C252 1.258 . S
O261 Co244 2.020 . S
O261 C258 1.256 . S
O262 Co242 2.062 1_554 S
O262 C258 1.255 . S
O263 C243 1.259 . S
O263 Co244 2.021 1_655 S
H264 C255 0.930 . S
H265 C254 0.931 . S
O266 Co242 2.117 1_655 S
O266 C243 1.258 1_556 S
O267 Co242 2.020 . S
O267 C269 1.256 1_556 S
O268 Co244 2.062 . S
O268 C269 1.255 . S
C269 O267 1.256 1_554 S
C269 O268 1.255 . S
H270 C249 0.931 . S
H271 C257 0.931 . S
C272 C273 1.349 . S
C272 C274 1.327 . S
C272 H297 0.950 . S
C273 C272 1.349 . S
C273 C289 1.349 . S
C274 C272 1.327 . S
C274 C293 1.429 . S
C274 H298 0.950 . S
C275 C292 1.574 . S
C275 C294 1.368 . S
C275 H299 0.949 . S
H276 C280 0.949 . S
C277 C278 1.349 . S
C277 C279 1.327 . S
C277 H300 0.950 . S
C278 C277 1.349 . S
C278 C290 1.349 . S
C279 C277 1.327 . S
C279 C295 1.429 . S
C279 H301 0.950 . S
C280 H276 0.949 . S
C280 C288 1.574 . S
C280 C296 1.368 . S
H281 C289 0.950 . S
H282 C287 0.950 . S
H283 C288 0.949 . S
H284 C290 0.950 . S
H285 C291 0.950 . S
H286 C292 0.949 . S
C287 H282 0.950 . S
C287 C289 1.327 . S
C287 C293 1.429 . S
C288 C280 1.574 . S
C288 H283 0.949 . S
C288 C294 1.368 . S
C289 C273 1.349 . S
C289 H281 0.950 . S
C289 C287 1.327 . S
C290 C278 1.349 . S
C290 H284 0.950 . S
C290 C291 1.327 . S
C291 H285 0.950 . S
C291 C290 1.327 . S
C291 C295 1.429 . S
C292 C275 1.574 . S
C292 H286 0.949 . S
C292 C296 1.368 . S
C293 C274 1.429 . S
C293 C287 1.429 . S
C293 C294 1.523 . S
C294 C275 1.368 . S
C294 C288 1.368 . S
C294 C293 1.523 . S
C295 C279 1.429 . S
C295 C291 1.429 . S
C295 C296 1.523 . S
C296 C280 1.368 . S
C296 C292 1.368 . S
C296 C295 1.523 . S
H297 C272 0.950 . S
H298 C274 0.950 . S
H299 C275 0.949 . S
H300 C277 0.950 . S
H301 C279 0.950 . S
C302 C303 1.349 . S
C302 C304 1.327 . S
C302 H327 0.950 . S
C303 C302 1.349 . S
C303 C319 1.349 . S
C304 C302 1.327 . S
C304 C323 1.429 . S
C304 H328 0.969 . S
C305 C322 1.574 . S
C305 C324 1.368 . S
C305 H329 0.949 . S
H306 C310 0.949 . S
C307 C308 1.349 1_565 S
C307 C309 1.327 . S
C307 H330 0.950 . S
C308 C307 1.349 1_545 S
C308 C320 1.349 . S
C309 C307 1.327 . S
C309 C325 1.429 . S
C309 H331 0.950 . S
C310 H306 0.949 . S
C310 C318 1.574 1_545 S
C310 C326 1.368 1_545 S
H311 C319 0.950 . S
H312 C317 0.950 . S
H313 C318 0.949 1_545 S
H314 C320 0.950 . S
H315 C321 0.950 . S
H316 C322 0.949 . S
C317 H312 0.950 . S
C317 C319 1.327 . S
C317 C323 1.429 . S
C318 C310 1.574 1_565 S
C318 H313 0.949 1_565 S
C318 C324 1.368 . S
C319 C303 1.349 . S
C319 H311 0.950 . S
C319 C317 1.327 . S
C320 C308 1.349 . S
C320 H314 0.950 . S
C320 C321 1.327 . S
C321 H315 0.950 . S
C321 C320 1.327 . S
C321 C325 1.429 1_545 S
C322 C305 1.574 . S
C322 H316 0.949 . S
C322 C326 1.368 . S
C323 C304 1.429 . S
C323 C317 1.429 . S
C323 C324 1.523 . S
C324 C305 1.368 . S
C324 C318 1.368 . S
C324 C323 1.523 . S
C325 C309 1.429 . S
C325 C321 1.429 1_565 S
C325 C326 1.523 . S
C326 C310 1.368 1_565 S
C326 C322 1.368 . S
C326 C325 1.523 . S
H327 C302 0.950 . S
H328 C304 0.969 . S
H329 C305 0.949 . S
H330 C307 0.950 . S
H331 C309 0.950 . S
C332 C333 1.349 . S
C332 C334 1.327 . S
C332 H357 0.950 . S
C333 C332 1.349 . S
C333 C349 1.349 . S
C334 C332 1.327 . S
C334 C353 1.429 . S
C334 H358 0.950 . S
C335 C352 1.574 . S
C335 C354 1.368 . S
C335 H359 0.949 . S
H336 C340 0.949 . S
C337 C338 1.349 . S
C337 C339 1.327 . S
C337 H360 0.950 . S
C338 C337 1.349 . S
C338 C350 1.349 . S
C339 C337 1.327 . S
C339 C355 1.429 . S
C339 H361 0.950 . S
C340 H336 0.949 . S
C340 C348 1.574 . S
C340 C356 1.368 . S
H341 C349 0.950 . S
H342 C347 0.950 . S
H343 C348 0.949 . S
H344 C350 0.950 . S
H345 C351 0.950 . S
H346 C352 0.949 . S
C347 H342 0.950 . S
C347 C349 1.327 . S
C347 C353 1.429 . S
C348 C340 1.574 . S
C348 H343 0.949 . S
C348 C354 1.368 . S
C349 C333 1.349 . S
C349 H341 0.950 . S
C349 C347 1.327 . S
C350 C338 1.349 . S
C350 H344 0.950 . S
C350 C351 1.327 . S
C351 H345 0.950 . S
C351 C350 1.327 . S
C351 C355 1.429 . S
C352 C335 1.574 . S
C352 H346 0.949 . S
C352 C356 1.368 . S
C353 C334 1.429 . S
C353 C347 1.429 . S
C353 C354 1.523 . S
C354 C335 1.368 . S
C354 C348 1.368 . S
C354 C353 1.523 . S
C355 C339 1.429 . S
C355 C351 1.429 . S
C355 C356 1.523 . S
C356 C340 1.368 . S
C356 C352 1.368 . S
C356 C355 1.523 . S
H357 C332 0.950 . S
H358 C334 0.950 . S
H359 C335 0.949 . S
H360 C337 0.950 . S
H361 C339 0.950 . S
C362 C363 1.349 . S
C362 C364 1.327 . S
C362 H387 0.950 . S
C363 C362 1.349 . S
C363 C379 1.349 . S
C364 C362 1.327 . S
C364 C383 1.429 . S
C364 H388 0.950 . S
C365 C382 1.574 . S
C365 C384 1.368 . S
C365 H389 0.949 . S
H366 C370 0.949 1_455 S
C367 C368 1.349 . S
C367 C369 1.327 . S
C367 H390 0.950 . S
C368 C367 1.349 . S
C368 C380 1.349 . S
C369 C367 1.327 . S
C369 C385 1.429 . S
C369 H391 0.950 . S
C370 H366 0.949 1_655 S
C370 C378 1.574 . S
C370 C386 1.368 . S
H371 C379 0.950 . S
H372 C377 0.950 . S
H373 C378 0.949 . S
H374 C380 0.950 1_455 S
H375 C381 0.950 1_455 S
H376 C382 0.949 . S
C377 H372 0.950 . S
C377 C379 1.327 . S
C377 C383 1.429 . S
C378 C370 1.574 . S
C378 H373 0.949 . S
C378 C384 1.368 . S
C379 C363 1.349 . S
C379 H371 0.950 . S
C379 C377 1.327 . S
C380 C368 1.349 . S
C380 H374 0.950 1_655 S
C380 C381 1.327 . S
C381 H375 0.950 1_655 S
C381 C380 1.327 . S
C381 C385 1.429 . S
C382 C365 1.574 . S
C382 H376 0.949 . S
C382 C386 1.368 . S
C383 C364 1.429 . S
C383 C377 1.429 . S
C383 C384 1.523 . S
C384 C365 1.368 . S
C384 C378 1.368 . S
C384 C383 1.523 . S
C385 C369 1.429 . S
C385 C381 1.429 . S
C385 C386 1.523 . S
C386 C370 1.368 . S
C386 C382 1.368 . S
C386 C385 1.523 . S
H387 C362 0.950 . S
H388 C364 0.950 . S
H389 C365 0.949 . S
H390 C367 0.950 . S
H391 C369 0.950 . S
C392 C393 1.349 . S
C392 C394 1.327 . S
C392 H417 0.950 . S
C393 C392 1.349 . S
C393 C409 1.349 . S
C394 C392 1.327 . S
C394 C413 1.429 . S
C394 H418 0.950 . S
C395 C412 1.574 . S
C395 C414 1.368 . S
C395 H419 0.949 . S
H396 C400 0.949 . S
C397 C398 1.349 . S
C397 C399 1.327 . S
C397 H420 0.950 . S
C398 C397 1.349 . S
C398 C410 1.349 . S
C399 C397 1.327 . S
C399 C415 1.429 . S
C399 H421 0.950 . S
C400 H396 0.949 . S
C400 C408 1.574 . S
C400 C416 1.368 . S
H401 C409 0.950 . S
H402 C407 0.950 . S
H403 C408 0.949 . S
H404 C410 0.950 . S
H405 C411 0.950 . S
H406 C412 0.949 . S
C407 H402 0.950 . S
C407 C409 1.327 . S
C407 C413 1.429 . S
C408 C400 1.574 . S
C408 H403 0.949 . S
C408 C414 1.368 . S
C409 C393 1.349 . S
C409 H401 0.950 . S
C409 C407 1.327 . S
C410 C398 1.349 . S
C410 H404 0.950 . S
C410 C411 1.327 . S
C411 H405 0.950 . S
C411 C410 1.327 . S
C411 C415 1.429 . S
C412 C395 1.574 . S
C412 H406 0.949 . S
C412 C416 1.368 . S
C413 C394 1.429 . S
C413 C407 1.429 . S
C413 C414 1.523 . S
C414 C395 1.368 . S
C414 C408 1.368 . S
C414 C413 1.523 . S
C415 C399 1.429 . S
C415 C411 1.429 . S
C415 C416 1.523 . S
C416 C400 1.368 . S
C416 C412 1.368 . S
C416 C415 1.523 . S
H417 C392 0.950 . S
H418 C394 0.950 . S
H419 C395 0.949 . S
H420 C397 0.950 . S
H421 C399 0.950 . S
C422 C423 1.349 . S
C422 C424 1.327 . S
C422 H447 0.950 . S
C423 C422 1.349 . S
C423 C439 1.349 . S
C424 C422 1.327 . S
C424 C443 1.429 . S
C424 H448 0.950 . S
C425 C442 1.574 . S
C425 C444 1.368 1_545 S
C425 H449 0.949 . S
H426 C430 0.949 . S
C427 C428 1.349 . S
C427 C429 1.327 . S
C427 H450 0.950 . S
C428 C427 1.349 . S
C428 C440 1.349 1_545 S
C429 C427 1.327 . S
C429 C445 1.429 . S
C429 H451 0.950 . S
C430 H426 0.949 . S
C430 C438 1.574 . S
C430 C446 1.368 1_565 S
H431 C439 0.950 1_545 S
H432 C437 0.950 . S
H433 C438 0.949 . S
H434 C440 0.950 . S
H435 C441 0.950 . S
H436 C442 0.949 . S
C437 H432 0.950 . S
C437 C439 1.327 1_545 S
C437 C443 1.429 1_545 S
C438 C430 1.574 . S
C438 H433 0.949 . S
C438 C444 1.368 . S
C439 C423 1.349 . S
C439 H431 0.950 1_565 S
C439 C437 1.327 1_565 S
C440 C428 1.349 1_565 S
C440 H434 0.950 . S
C440 C441 1.327 . S
C441 H435 0.950 . S
C441 C440 1.327 . S
C441 C445 1.429 1_565 S
C442 C425 1.574 . S
C442 H436 0.949 . S
C442 C446 1.368 . S
C443 C424 1.429 . S
C443 C437 1.429 1_565 S
C443 C444 1.523 . S
C444 C425 1.368 1_565 S
C444 C438 1.368 . S
C444 C443 1.523 . S
C445 C429 1.429 . S
C445 C441 1.429 1_545 S
C445 C446 1.523 . S
C446 C430 1.368 1_545 S
C446 C442 1.368 . S
C446 C445 1.523 . S
H447 C422 0.950 . S
H448 C424 0.950 . S
H449 C425 0.949 . S
H450 C427 0.950 . S
H451 C429 0.950 . S
C452 C453 1.349 . S
C452 C454 1.327 . S
C452 H477 0.950 . S
C453 C452 1.349 . S
C453 C469 1.349 . S
C454 C452 1.327 . S
C454 C473 1.429 . S
C454 H478 0.950 . S
C455 C472 1.574 . S
C455 C474 1.368 . S
C455 H479 0.949 . S
H456 C460 0.949 . S
C457 C458 1.350 . S
C457 C459 1.323 1_554 S
C457 H480 0.950 . S
C458 C457 1.350 . S
C458 C470 1.346 1_554 S
C459 C457 1.323 1_556 S
C459 C475 1.437 . S
C459 H481 0.946 1_556 S
C460 H456 0.949 . S
C460 C468 1.574 . S
C460 C476 1.368 . S
H461 C469 0.950 . S
H462 C467 0.950 . S
H463 C468 0.949 . S
H464 C470 0.950 . S
H465 C471 0.950 . S
H466 C472 0.949 . S
C467 H462 0.950 . S
C467 C469 1.327 . S
C467 C473 1.429 . S
C468 C460 1.574 . S
C468 H463 0.949 . S
C468 C474 1.368 . S
C469 C453 1.349 . S
C469 H461 0.950 . S
C469 C467 1.327 . S
C470 C458 1.346 1_556 S
C470 H464 0.950 . S
C470 C471 1.327 . S
C471 H465 0.950 . S
C471 C470 1.327 . S
C471 C475 1.429 . S
C472 C455 1.574 . S
C472 H466 0.949 . S
C472 C476 1.368 . S
C473 C454 1.429 . S
C473 C467 1.429 . S
C473 C474 1.523 . S
C474 C455 1.368 . S
C474 C468 1.368 . S
C474 C473 1.523 . S
C475 C459 1.437 . S
C475 C471 1.429 . S
C475 C476 1.523 . S
C476 C460 1.368 . S
C476 C472 1.368 . S
C476 C475 1.523 . S
H477 C452 0.950 . S
H478 C454 0.950 . S
H479 C455 0.949 . S
H480 C457 0.950 . S
H481 C459 0.946 1_554 S
C482 C483 1.349 . S
C482 C484 1.327 . S
C482 H507 0.950 . S
C483 C482 1.349 . S
C483 C499 1.349 . S
C484 C482 1.327 . S
C484 C503 1.429 . S
C484 H508 0.950 . S
C485 C502 1.574 . S
C485 C504 1.368 . S
C485 H509 0.949 . S
H486 C490 0.949 . S
C487 C488 1.349 . S
C487 C489 1.327 . S
C487 H510 0.950 . S
C488 C487 1.349 . S
C488 C500 1.349 . S
C489 C487 1.327 . S
C489 C505 1.429 . S
C489 H511 0.950 . S
C490 H486 0.949 . S
C490 C498 1.574 . S
C490 C506 1.368 . S
H491 C499 0.950 . S
H492 C497 0.950 . S
H493 C498 0.949 . S
H494 C500 0.950 . S
H495 C501 0.950 . S
H496 C502 0.949 . S
C497 H492 0.950 . S
C497 C499 1.327 . S
C497 C503 1.429 . S
C498 C490 1.574 . S
C498 H493 0.949 . S
C498 C504 1.368 . S
C499 C483 1.349 . S
C499 H491 0.950 . S
C499 C497 1.327 . S
C500 C488 1.349 . S
C500 H494 0.950 . S
C500 C501 1.327 . S
C501 H495 0.950 . S
C501 C500 1.327 . S
C501 C505 1.429 . S
C502 C485 1.574 . S
C502 H496 0.949 . S
C502 C506 1.368 . S
C503 C484 1.429 . S
C503 C497 1.429 . S
C503 C504 1.523 . S
C504 C485 1.368 . S
C504 C498 1.368 . S
C504 C503 1.523 . S
C505 C489 1.429 . S
C505 C501 1.429 . S
C505 C506 1.523 . S
C506 C490 1.368 . S
C506 C502 1.368 . S
C506 C505 1.523 . S
H507 C482 0.950 . S
H508 C484 0.950 . S
H509 C485 0.949 . S
H510 C487 0.950 . S
H511 C489 0.950 . S
C512 C513 1.349 . S
C512 C514 1.327 . S
C512 H537 0.950 . S
C513 C512 1.349 . S
C513 C529 1.349 . S
C514 C512 1.327 . S
C514 C533 1.429 . S
C514 H538 0.950 . S
C515 C532 1.574 . S
C515 C534 1.368 . S
C515 H539 0.949 . S
H516 C520 0.949 . S
C517 C518 1.349 . S
C517 C519 1.327 . S
C517 H540 0.950 . S
C518 C517 1.349 . S
C518 C530 1.349 . S
C519 C517 1.327 . S
C519 C535 1.429 . S
C519 H541 0.950 . S
C520 H516 0.949 . S
C520 C528 1.574 . S
C520 C536 1.368 . S
H521 C529 0.950 . S
H522 C527 0.950 . S
H523 C528 0.949 . S
H524 C530 0.950 . S
H525 C531 0.950 . S
H526 C532 0.949 . S
C527 H522 0.950 . S
C527 C529 1.327 . S
C527 C533 1.429 . S
C528 C520 1.574 . S
C528 H523 0.949 . S
C528 C534 1.368 . S
C529 C513 1.349 . S
C529 H521 0.950 . S
C529 C527 1.327 . S
C530 C518 1.349 . S
C530 H524 0.950 . S
C530 C531 1.327 . S
C531 H525 0.950 . S
C531 C530 1.327 . S
C531 C535 1.429 . S
C532 C515 1.574 . S
C532 H526 0.949 . S
C532 C536 1.368 . S
C533 C514 1.429 . S
C533 C527 1.429 . S
C533 C534 1.523 . S
C534 C515 1.368 . S
C534 C528 1.368 . S
C534 C533 1.523 . S
C535 C519 1.429 . S
C535 C531 1.429 . S
C535 C536 1.523 . S
C536 C520 1.368 . S
C536 C532 1.368 . S
C536 C535 1.523 . S
H537 C512 0.950 . S
H538 C514 0.950 . S
H539 C515 0.949 . S
H540 C517 0.950 . S
H541 C519 0.950 . S
C542 C543 1.349 . S
C542 C544 1.322 1_556 S
C542 H567 0.950 1_556 S
C543 C542 1.349 . S
C543 C559 1.349 . S
C544 C542 1.322 1_554 S
C544 C563 1.417 1_554 S
C544 H568 0.968 . S
C545 C562 1.574 . S
C545 C564 1.368 . S
C545 H569 0.949 . S
H546 C550 0.949 . S
C547 C548 1.349 . S
C547 C549 1.322 1_554 S
C547 H570 0.950 1_554 S
C548 C547 1.349 . S
C548 C560 1.349 . S
C549 C547 1.322 1_556 S
C549 C565 1.417 1_556 S
C549 H571 0.967 . S
C550 H546 0.949 . S
C550 C558 1.574 . S
C550 C566 1.368 . S
H551 C559 0.950 . S
H552 C557 0.950 . S
H553 C558 0.949 . S
H554 C560 0.950 . S
H555 C561 0.950 . S
H556 C562 0.949 . S
C557 H552 0.950 . S
C557 C559 1.327 . S
C557 C563 1.429 . S
C558 C550 1.574 . S
C558 H553 0.949 . S
C558 C564 1.368 1_554 S
C559 C543 1.349 . S
C559 H551 0.950 . S
C559 C557 1.327 . S
C560 C548 1.349 . S
C560 H554 0.950 . S
C560 C561 1.327 . S
C561 H555 0.950 . S
C561 C560 1.327 . S
C561 C565 1.429 . S
C562 C545 1.574 . S
C562 H556 0.949 . S
C562 C566 1.368 1_556 S
C563 C544 1.417 1_556 S
C563 C557 1.429 . S
C563 C564 1.523 . S
C564 C545 1.368 . S
C564 C558 1.368 1_556 S
C564 C563 1.523 . S
C565 C549 1.417 1_554 S
C565 C561 1.429 . S
C565 C566 1.523 . S
C566 C550 1.368 . S
C566 C562 1.368 1_554 S
C566 C565 1.523 . S
H567 C542 0.950 1_554 S
H568 C544 0.968 . S
H569 C545 0.949 . S
H570 C547 0.950 1_556 S
H571 C549 0.967 . S
C572 C573 1.349 . S
C572 C574 1.327 . S
C572 H597 0.950 . S
C573 C572 1.349 . S
C573 C589 1.349 . S
C574 C572 1.327 . S
C574 C593 1.429 . S
C574 H598 0.950 . S
C575 C592 1.574 . S
C575 C594 1.368 . S
C575 H599 0.949 . S
H576 C580 0.949 . S
C577 C578 1.349 . S
C577 C579 1.327 . S
C577 H600 0.950 . S
C578 C577 1.349 . S
C578 C590 1.349 . S
C579 C577 1.327 . S
C579 C595 1.429 . S
C579 H601 0.950 . S
C580 H576 0.949 . S
C580 C588 1.574 . S
C580 C596 1.368 . S
H581 C589 0.950 . S
H582 C587 0.950 . S
H583 C588 0.949 . S
H584 C590 0.950 . S
H585 C591 0.950 . S
H586 C592 0.949 . S
C587 H582 0.950 . S
C587 C589 1.327 . S
C587 C593 1.429 . S
C588 C580 1.574 . S
C588 H583 0.949 . S
C588 C594 1.368 . S
C589 C573 1.349 . S
C589 H581 0.950 . S
C589 C587 1.327 . S
C590 C578 1.349 . S
C590 H584 0.950 . S
C590 C591 1.327 . S
C591 H585 0.950 . S
C591 C590 1.327 . S
C591 C595 1.429 . S
C592 C575 1.574 . S
C592 H586 0.949 . S
C592 C596 1.368 . S
C593 C574 1.429 . S
C593 C587 1.429 . S
C593 C594 1.523 . S
C594 C575 1.368 . S
C594 C588 1.368 . S
C594 C593 1.523 . S
C595 C579 1.429 . S
C595 C591 1.429 . S
C595 C596 1.523 . S
C596 C580 1.368 . S
C596 C592 1.368 . S
C596 C595 1.523 . S
H597 C572 0.950 . S
H598 C574 0.950 . S
H599 C575 0.949 . S
H600 C577 0.950 . S
H601 C579 0.950 . S
C602 C603 1.349 . S
C602 C604 1.327 . S
C602 H627 0.950 . S
C603 C602 1.349 . S
C603 C619 1.349 . S
C604 C602 1.327 . S
C604 C623 1.429 . S
C604 H628 0.950 . S
C605 C622 1.574 . S
C605 C624 1.368 . S
C605 H629 0.949 . S
H606 C610 0.949 . S
C607 C608 1.349 . S
C607 C609 1.327 . S
C607 H630 0.950 . S
C608 C607 1.349 . S
C608 C620 1.349 . S
C609 C607 1.327 . S
C609 C625 1.429 . S
C609 H631 0.950 . S
C610 H606 0.949 . S
C610 C618 1.574 . S
C610 C626 1.368 . S
H611 C619 0.950 . S
H612 C617 0.950 . S
H613 C618 0.949 . S
H614 C620 0.950 . S
H615 C621 0.950 . S
H616 C622 0.949 . S
C617 H612 0.950 . S
C617 C619 1.327 . S
C617 C623 1.429 . S
C618 C610 1.574 . S
C618 H613 0.949 . S
C618 C624 1.368 . S
C619 C603 1.349 . S
C619 H611 0.950 . S
C619 C617 1.327 . S
C620 C608 1.349 . S
C620 H614 0.950 . S
C620 C621 1.327 . S
C621 H615 0.950 . S
C621 C620 1.327 . S
C621 C625 1.429 . S
C622 C605 1.574 . S
C622 H616 0.949 . S
C622 C626 1.368 . S
C623 C604 1.429 . S
C623 C617 1.429 . S
C623 C624 1.523 . S
C624 C605 1.368 . S
C624 C618 1.368 . S
C624 C623 1.523 . S
C625 C609 1.429 . S
C625 C621 1.429 . S
C625 C626 1.523 . S
C626 C610 1.368 . S
C626 C622 1.368 . S
C626 C625 1.523 . S
H627 C602 0.950 . S
H628 C604 0.950 . S
H629 C605 0.949 . S
H630 C607 0.950 . S
H631 C609 0.950 . S
C632 C633 1.349 . S
C632 C634 1.327 . S
C632 H657 0.947 1_565 S
C633 C632 1.349 . S
C633 C649 1.349 . S
C634 C632 1.327 . S
C634 C653 1.429 . S
C634 H658 0.950 1_565 S
C635 C652 1.574 . S
C635 C654 1.368 . S
C635 H659 0.949 . S
H636 C640 0.949 1_455 S
C637 C638 1.354 . S
C637 C639 1.326 1_545 S
C637 H660 0.946 1_545 S
C638 C637 1.354 . S
C638 C650 1.349 1_655 S
C639 C637 1.326 1_565 S
C639 C655 1.429 1_565 S
C639 H661 0.950 . S
C640 H636 0.949 1_655 S
C640 C648 1.574 . S
C640 C656 1.368 . S
H641 C649 0.950 . S
H642 C647 0.950 . S
H643 C648 0.949 . S
H644 C650 0.950 . S
H645 C651 0.950 1_455 S
H646 C652 0.949 . S
C647 H642 0.950 . S
C647 C649 1.327 . S
C647 C653 1.429 . S
C648 C640 1.574 . S
C648 H643 0.949 . S
C648 C654 1.368 1_545 S
C649 C633 1.349 . S
C649 H641 0.950 . S
C649 C647 1.327 . S
C650 C638 1.349 1_455 S
C650 H644 0.950 . S
C650 C651 1.327 1_455 S
C651 H645 0.950 1_655 S
C651 C650 1.327 1_655 S
C651 C655 1.429 . S
C652 C635 1.574 . S
C652 H646 0.949 . S
C652 C656 1.368 1_565 S
C653 C634 1.429 . S
C653 C647 1.429 . S
C653 C654 1.523 . S
C654 C635 1.368 . S
C654 C648 1.368 1_565 S
C654 C653 1.523 . S
C655 C639 1.429 1_545 S
C655 C651 1.429 . S
C655 C656 1.523 . S
C656 C640 1.368 . S
C656 C652 1.368 1_545 S
C656 C655 1.523 . S
H657 C632 0.947 1_545 S
H658 C634 0.950 1_545 S
H659 C635 0.949 . S
H660 C637 0.946 1_565 S
H661 C639 0.950 . S
C662 C663 1.349 . S
C662 C664 1.327 . S
C662 H687 0.950 . S
C663 C662 1.349 . S
C663 C679 1.349 . S
C664 C662 1.327 . S
C664 C683 1.429 . S
C664 H688 0.950 . S
C665 C682 1.574 . S
C665 C684 1.368 . S
C665 H689 0.949 . S
H666 C670 0.949 . S
C667 C668 1.349 . S
C667 C669 1.327 . S
C667 H690 0.950 . S
C668 C667 1.349 . S
C668 C680 1.349 . S
C669 C667 1.327 . S
C669 C685 1.429 . S
C669 H691 0.950 . S
C670 H666 0.949 . S
C670 C678 1.574 . S
C670 C686 1.368 . S
H671 C679 0.950 . S
H672 C677 0.950 . S
H673 C678 0.949 . S
H674 C680 0.950 . S
H675 C681 0.950 . S
H676 C682 0.949 . S
C677 H672 0.950 . S
C677 C679 1.327 . S
C677 C683 1.429 . S
C678 C670 1.574 . S
C678 H673 0.949 . S
C678 C684 1.368 . S
C679 C663 1.349 . S
C679 H671 0.950 . S
C679 C677 1.327 . S
C680 C668 1.349 . S
C680 H674 0.950 . S
C680 C681 1.327 . S
C681 H675 0.950 . S
C681 C680 1.327 . S
C681 C685 1.429 . S
C682 C665 1.574 . S
C682 H676 0.949 . S
C682 C686 1.368 . S
C683 C664 1.429 . S
C683 C677 1.429 . S
C683 C684 1.523 . S
C684 C665 1.368 . S
C684 C678 1.368 . S
C684 C683 1.523 . S
C685 C669 1.429 . S
C685 C681 1.429 . S
C685 C686 1.523 . S
C686 C670 1.368 . S
C686 C682 1.368 . S
C686 C685 1.523 . S
H687 C662 0.950 . S
H688 C664 0.950 . S
H689 C665 0.949 . S
H690 C667 0.950 . S
H691 C669 0.950 . S
C692 C693 1.349 . S
C692 C694 1.327 . S
C692 H717 0.950 . S
C693 C692 1.349 . S
C693 C709 1.349 . S
C694 C692 1.327 . S
C694 C713 1.429 . S
C694 H718 0.950 . S
C695 C712 1.574 . S
C695 C714 1.368 . S
C695 H719 0.949 . S
H696 C700 0.949 . S
C697 C698 1.349 . S
C697 C699 1.327 . S
C697 H720 0.950 . S
C698 C697 1.349 . S
C698 C710 1.349 . S
C699 C697 1.327 . S
C699 C715 1.429 . S
C699 H721 0.950 . S
C700 H696 0.949 . S
C700 C708 1.574 . S
C700 C716 1.368 . S
H701 C709 0.950 . S
H702 C707 0.950 . S
H703 C708 0.949 . S
H704 C710 0.950 . S
H705 C711 0.950 . S
H706 C712 0.949 . S
C707 H702 0.950 . S
C707 C709 1.327 . S
C707 C713 1.429 . S
C708 C700 1.574 . S
C708 H703 0.949 . S
C708 C714 1.368 . S
C709 C693 1.349 . S
C709 H701 0.950 . S
C709 C707 1.327 . S
C710 C698 1.349 . S
C710 H704 0.950 . S
C710 C711 1.327 . S
C711 H705 0.950 . S
C711 C710 1.327 . S
C711 C715 1.429 . S
C712 C695 1.574 . S
C712 H706 0.949 . S
C712 C716 1.368 . S
C713 C694 1.429 . S
C713 C707 1.429 . S
C713 C714 1.523 . S
C714 C695 1.368 . S
C714 C708 1.368 . S
C714 C713 1.523 . S
C715 C699 1.429 . S
C715 C711 1.429 . S
C715 C716 1.523 . S
C716 C700 1.368 . S
C716 C712 1.368 . S
C716 C715 1.523 . S
H717 C692 0.950 . S
H718 C694 0.950 . S
H719 C695 0.949 . S
H720 C697 0.950 . S
H721 C699 0.950 . S
C722 C723 1.349 . S
C722 C724 1.327 . S
C722 H747 0.950 . S
C723 C722 1.349 . S
C723 C739 1.349 . S
C724 C722 1.327 . S
C724 C743 1.429 . S
C724 H748 0.950 . S
C725 C742 1.574 . S
C725 C744 1.368 . S
C725 H749 0.949 . S
H726 C730 0.949 . S
C727 C728 1.349 . S
C727 C729 1.327 . S
C727 H750 0.950 . S
C728 C727 1.349 . S
C728 C740 1.349 . S
C729 C727 1.327 . S
C729 C745 1.429 . S
C729 H751 0.950 . S
C730 H726 0.949 . S
C730 C738 1.574 . S
C730 C746 1.368 . S
H731 C739 0.950 . S
H732 C737 0.950 . S
H733 C738 0.949 . S
H734 C740 0.950 . S
H735 C741 0.950 . S
H736 C742 0.949 . S
C737 H732 0.950 . S
C737 C739 1.327 . S
C737 C743 1.429 . S
C738 C730 1.574 . S
C738 H733 0.949 . S
C738 C744 1.368 . S
C739 C723 1.349 . S
C739 H731 0.950 . S
C739 C737 1.327 . S
C740 C728 1.349 . S
C740 H734 0.950 . S
C740 C741 1.327 . S
C741 H735 0.950 . S
C741 C740 1.327 . S
C741 C745 1.429 . S
C742 C725 1.574 . S
C742 H736 0.949 . S
C742 C746 1.368 . S
C743 C724 1.429 . S
C743 C737 1.429 . S
C743 C744 1.523 . S
C744 C725 1.368 . S
C744 C738 1.368 . S
C744 C743 1.523 . S
C745 C729 1.429 . S
C745 C741 1.429 . S
C745 C746 1.523 . S
C746 C730 1.368 . S
C746 C742 1.368 . S
C746 C745 1.523 . S
H747 C722 0.950 . S
H748 C724 0.950 . S
H749 C725 0.949 . S
H750 C727 0.950 . S
H751 C729 0.950 . S
C752 C753 1.349 . S
C752 C754 1.334 . S
C752 H777 0.938 1_556 S
C753 C752 1.349 . S
C753 C769 1.349 1_565 S
C754 C752 1.334 . S
C754 C773 1.436 . S
C754 H778 0.935 1_556 S
C755 C772 1.574 . S
C755 C774 1.368 . S
C755 H779 0.949 . S
H756 C760 0.949 . S
C757 C758 1.349 . S
C757 C759 1.327 . S
C757 H780 0.950 . S
C758 C757 1.349 . S
C758 C770 1.349 . S
C759 C757 1.327 . S
C759 C775 1.429 . S
C759 H781 0.950 1_554 S
C760 H756 0.949 . S
C760 C768 1.574 . S
C760 C776 1.368 1_565 S
H761 C769 0.950 . S
H762 C767 0.950 . S
H763 C768 0.949 . S
H764 C770 0.950 . S
H765 C771 0.950 1_565 S
H766 C772 0.949 . S
C767 H762 0.950 . S
C767 C769 1.327 . S
C767 C773 1.429 1_545 S
C768 C760 1.574 . S
C768 H763 0.949 . S
C768 C774 1.368 1_564 S
C769 C753 1.349 1_545 S
C769 H761 0.950 . S
C769 C767 1.327 . S
C770 C758 1.349 . S
C770 H764 0.950 . S
C770 C771 1.327 . S
C771 H765 0.950 1_545 S
C771 C770 1.327 . S
C771 C775 1.429 . S
C772 C755 1.574 . S
C772 H766 0.949 . S
C772 C776 1.368 1_556 S
C773 C754 1.436 . S
C773 C767 1.429 1_565 S
C773 C774 1.523 1_565 S
C774 C755 1.368 . S
C774 C768 1.368 1_546 S
C774 C773 1.523 1_545 S
C775 C759 1.429 . S
C775 C771 1.429 . S
C775 C776 1.523 . S
C776 C760 1.368 1_545 S
C776 C772 1.368 1_554 S
C776 C775 1.523 . S
H777 C752 0.938 1_554 S
H778 C754 0.935 1_554 S
H779 C755 0.949 . S
H780 C757 0.950 . S
H781 C759 0.950 1_556 S
C782 C783 1.349 . S
C782 C784 1.327 . S
C782 H807 0.950 . S
C783 C782 1.349 . S
C783 C799 1.349 . S
C784 C782 1.327 . S
C784 C803 1.429 . S
C784 H808 0.950 . S
C785 C802 1.574 . S
C785 C804 1.368 . S
C785 H809 0.949 . S
H786 C790 0.949 . S
C787 C788 1.349 . S
C787 C789 1.327 . S
C787 H810 0.950 . S
C788 C787 1.349 . S
C788 C800 1.349 . S
C789 C787 1.327 . S
C789 C805 1.429 . S
C789 H811 0.950 . S
C790 H786 0.949 . S
C790 C798 1.574 . S
C790 C806 1.368 . S
H791 C799 0.950 . S
H792 C797 0.950 . S
H793 C798 0.949 . S
H794 C800 0.950 . S
H795 C801 0.950 . S
H796 C802 0.949 . S
C797 H792 0.950 . S
C797 C799 1.327 . S
C797 C803 1.429 . S
C798 C790 1.574 . S
C798 H793 0.949 . S
C798 C804 1.368 . S
C799 C783 1.349 . S
C799 H791 0.950 . S
C799 C797 1.327 . S
C800 C788 1.349 . S
C800 H794 0.950 . S
C800 C801 1.327 . S
C801 H795 0.950 . S
C801 C800 1.327 . S
C801 C805 1.429 . S
C802 C785 1.574 . S
C802 H796 0.949 . S
C802 C806 1.368 . S
C803 C784 1.429 . S
C803 C797 1.429 . S
C803 C804 1.523 . S
C804 C785 1.368 . S
C804 C798 1.368 . S
C804 C803 1.523 . S
C805 C789 1.429 . S
C805 C801 1.429 . S
C805 C806 1.523 . S
C806 C790 1.368 . S
C806 C802 1.368 . S
C806 C805 1.523 . S
H807 C782 0.950 . S
H808 C784 0.950 . S
H809 C785 0.949 . S
H810 C787 0.950 . S
H811 C789 0.950 . S
C812 C813 1.349 . S
C812 C814 1.327 . S
C812 H837 0.950 . S
C813 C812 1.349 . S
C813 C829 1.349 . S
C814 C812 1.327 . S
C814 C833 1.429 . S
C814 H838 0.950 . S
C815 C832 1.574 . S
C815 C834 1.368 . S
C815 H839 0.949 . S
H816 C820 0.949 . S
C817 C818 1.349 . S
C817 C819 1.327 . S
C817 H840 0.950 . S
C818 C817 1.349 . S
C818 C830 1.349 . S
C819 C817 1.327 . S
C819 C835 1.429 . S
C819 H841 0.950 . S
C820 H816 0.949 . S
C820 C828 1.574 . S
C820 C836 1.368 . S
H821 C829 0.950 . S
H822 C827 0.950 . S
H823 C828 0.949 . S
H824 C830 0.950 . S
H825 C831 0.950 . S
H826 C832 0.949 . S
C827 H822 0.950 . S
C827 C829 1.327 . S
C827 C833 1.429 . S
C828 C820 1.574 . S
C828 H823 0.949 . S
C828 C834 1.368 . S
C829 C813 1.349 . S
C829 H821 0.950 . S
C829 C827 1.327 . S
C830 C818 1.349 . S
C830 H824 0.950 . S
C830 C831 1.327 . S
C831 H825 0.950 . S
C831 C830 1.327 . S
C831 C835 1.429 . S
C832 C815 1.574 . S
C832 H826 0.949 . S
C832 C836 1.368 . S
C833 C814 1.429 . S
C833 C827 1.429 . S
C833 C834 1.523 . S
C834 C815 1.368 . S
C834 C828 1.368 . S
C834 C833 1.523 . S
C835 C819 1.429 . S
C835 C831 1.429 . S
C835 C836 1.523 . S
C836 C820 1.368 . S
C836 C832 1.368 . S
C836 C835 1.523 . S
H837 C812 0.950 . S
H838 C814 0.950 . S
H839 C815 0.949 . S
H840 C817 0.950 . S
H841 C819 0.950 . S
C842 C843 1.349 . S
C842 C844 1.327 . S
C842 H867 0.950 . S
C843 C842 1.349 . S
C843 C859 1.349 . S
C844 C842 1.327 . S
C844 C863 1.429 . S
C844 H868 0.950 . S
C845 C862 1.574 . S
C845 C864 1.368 . S
C845 H869 0.949 . S
H846 C850 0.949 . S
C847 C848 1.349 . S
C847 C849 1.327 . S
C847 H870 0.950 . S
C848 C847 1.349 . S
C848 C860 1.349 . S
C849 C847 1.327 . S
C849 C865 1.429 . S
C849 H871 0.950 . S
C850 H846 0.949 . S
C850 C858 1.574 . S
C850 C866 1.368 . S
H851 C859 0.950 . S
H852 C857 0.950 . S
H853 C858 0.949 . S
H854 C860 0.950 . S
H855 C861 0.950 . S
H856 C862 0.949 . S
C857 H852 0.950 . S
C857 C859 1.327 . S
C857 C863 1.429 . S
C858 C850 1.574 . S
C858 H853 0.949 . S
C858 C864 1.368 . S
C859 C843 1.349 . S
C859 H851 0.950 . S
C859 C857 1.327 . S
C860 C848 1.349 . S
C860 H854 0.950 . S
C860 C861 1.327 . S
C861 H855 0.950 . S
C861 C860 1.327 . S
C861 C865 1.429 . S
C862 C845 1.574 . S
C862 H856 0.949 . S
C862 C866 1.368 . S
C863 C844 1.429 . S
C863 C857 1.429 . S
C863 C864 1.523 . S
C864 C845 1.368 . S
C864 C858 1.368 . S
C864 C863 1.523 . S
C865 C849 1.429 . S
C865 C861 1.429 . S
C865 C866 1.523 . S
C866 C850 1.368 . S
C866 C862 1.368 . S
C866 C865 1.523 . S
H867 C842 0.950 . S
H868 C844 0.950 . S
H869 C845 0.949 . S
H870 C847 0.950 . S
H871 C849 0.950 . S
C872 C873 1.349 . S
C872 C874 1.327 . S
C872 H897 0.950 . S
C873 C872 1.349 . S
C873 C889 1.349 . S
C874 C872 1.327 . S
C874 C893 1.429 . S
C874 H898 0.950 . S
C875 C892 1.574 . S
C875 C894 1.368 . S
C875 H899 0.949 . S
H876 C880 0.949 1_554 S
C877 C878 1.349 . S
C877 C879 1.327 . S
C877 H900 0.950 . S
C878 C877 1.349 . S
C878 C890 1.349 1_456 S
C879 C877 1.327 . S
C879 C895 1.429 1_455 S
C879 H901 0.950 . S
C880 H876 0.949 1_556 S
C880 C888 1.574 . S
C880 C896 1.368 . S
H881 C889 0.950 . S
H882 C887 0.950 . S
H883 C888 0.949 . S
H884 C890 0.950 . S
H885 C891 0.950 . S
H886 C892 0.949 . S
C887 H882 0.950 . S
C887 C889 1.327 . S
C887 C893 1.429 . S
C888 C880 1.574 . S
C888 H883 0.949 . S
C888 C894 1.368 . S
C889 C873 1.349 . S
C889 H881 0.950 . S
C889 C887 1.327 . S
C890 C878 1.349 1_654 S
C890 H884 0.950 . S
C890 C891 1.327 . S
C891 H885 0.950 . S
C891 C890 1.327 . S
C891 C895 1.429 1_554 S
C892 C875 1.574 . S
C892 H886 0.949 . S
C892 C896 1.368 . S
C893 C874 1.429 . S
C893 C887 1.429 . S
C893 C894 1.523 . S
C894 C875 1.368 . S
C894 C888 1.368 . S
C894 C893 1.523 . S
C895 C879 1.429 1_655 S
C895 C891 1.429 1_556 S
C895 C896 1.523 . S
C896 C880 1.368 . S
C896 C892 1.368 . S
C896 C895 1.523 . S
H897 C872 0.950 . S
H898 C874 0.950 . S
H899 C875 0.949 . S
H900 C877 0.950 . S
H901 C879 0.950 . S
C902 C903 1.349 . S
C902 C904 1.327 . S
C902 H927 0.950 . S
C903 C902 1.349 . S
C903 C919 1.349 . S
C904 C902 1.327 . S
C904 C923 1.429 . S
C904 H928 0.950 . S
C905 C922 1.574 . S
C905 C924 1.368 . S
C905 H929 0.949 . S
H906 C910 0.949 . S
C907 C908 1.349 . S
C907 C909 1.327 . S
C907 H930 0.950 . S
C908 C907 1.349 . S
C908 C920 1.349 . S
C909 C907 1.327 . S
C909 C925 1.429 . S
C909 H931 0.950 . S
C910 H906 0.949 . S
C910 C918 1.574 . S
C910 C926 1.368 . S
H911 C919 0.950 . S
H912 C917 0.950 . S
H913 C918 0.949 . S
H914 C920 0.950 . S
H915 C921 0.950 . S
H916 C922 0.949 . S
C917 H912 0.950 . S
C917 C919 1.327 . S
C917 C923 1.429 . S
C918 C910 1.574 . S
C918 H913 0.949 . S
C918 C924 1.368 . S
C919 C903 1.349 . S
C919 H911 0.950 . S
C919 C917 1.327 . S
C920 C908 1.349 . S
C920 H914 0.950 . S
C920 C921 1.327 . S
C921 H915 0.950 . S
C921 C920 1.327 . S
C921 C925 1.429 . S
C922 C905 1.574 . S
C922 H916 0.949 . S
C922 C926 1.368 . S
C923 C904 1.429 . S
C923 C917 1.429 . S
C923 C924 1.523 . S
C924 C905 1.368 . S
C924 C918 1.368 . S
C924 C923 1.523 . S
C925 C909 1.429 . S
C925 C921 1.429 . S
C925 C926 1.523 . S
C926 C910 1.368 . S
C926 C922 1.368 . S
C926 C925 1.523 . S
H927 C902 0.950 . S
H928 C904 0.950 . S
H929 C905 0.949 . S
H930 C907 0.950 . S
H931 C909 0.950 . S
C932 C933 1.349 . S
C932 C934 1.327 . S
C932 H957 0.950 . S
C933 C932 1.349 . S
C933 C949 1.349 . S
C934 C932 1.327 . S
C934 C953 1.429 . S
C934 H958 0.950 . S
C935 C952 1.574 . S
C935 C954 1.368 . S
C935 H959 0.949 . S
H936 C940 0.949 . S
C937 C938 1.349 . S
C937 C939 1.327 . S
C937 H960 0.950 . S
C938 C937 1.349 . S
C938 C950 1.349 . S
C939 C937 1.327 . S
C939 C955 1.429 . S
C939 H961 0.950 . S
C940 H936 0.949 . S
C940 C948 1.574 . S
C940 C956 1.368 . S
H941 C949 0.950 . S
H942 C947 0.950 . S
H943 C948 0.949 . S
H944 C950 0.950 . S
H945 C951 0.950 . S
H946 C952 0.949 . S
C947 H942 0.950 . S
C947 C949 1.327 . S
C947 C953 1.429 . S
C948 C940 1.574 . S
C948 H943 0.949 . S
C948 C954 1.368 . S
C949 C933 1.349 . S
C949 H941 0.950 . S
C949 C947 1.327 . S
C950 C938 1.349 . S
C950 H944 0.950 . S
C950 C951 1.327 . S
C951 H945 0.950 . S
C951 C950 1.327 . S
C951 C955 1.429 . S
C952 C935 1.574 . S
C952 H946 0.949 . S
C952 C956 1.368 . S
C953 C934 1.429 . S
C953 C947 1.429 . S
C953 C954 1.523 . S
C954 C935 1.368 . S
C954 C948 1.368 . S
C954 C953 1.523 . S
C955 C939 1.429 . S
C955 C951 1.429 . S
C955 C956 1.523 . S
C956 C940 1.368 . S
C956 C952 1.368 . S
C956 C955 1.523 . S
H957 C932 0.950 . S
H958 C934 0.950 . S
H959 C935 0.949 . S
H960 C937 0.950 . S
H961 C939 0.950 . S
C962 C963 1.349 . S
C962 C964 1.327 . S
C962 H987 0.950 . S
C963 C962 1.349 . S
C963 C979 1.349 . S
C964 C962 1.327 . S
C964 C983 1.429 . S
C964 H988 0.950 . S
C965 C982 1.574 . S
C965 C984 1.368 . S
C965 H989 0.949 . S
H966 C970 0.949 . S
C967 C968 1.349 . S
C967 C969 1.327 . S
C967 H990 0.950 . S
C968 C967 1.349 . S
C968 C980 1.349 . S
C969 C967 1.327 . S
C969 C985 1.429 . S
C969 H991 0.950 . S
C970 H966 0.949 . S
C970 C978 1.574 . S
C970 C986 1.368 . S
H971 C979 0.950 . S
H972 C977 0.950 . S
H973 C978 0.949 . S
H974 C980 0.950 . S
H975 C981 0.950 . S
H976 C982 0.949 . S
C977 H972 0.950 . S
C977 C979 1.327 . S
C977 C983 1.429 . S
C978 C970 1.574 . S
C978 H973 0.949 . S
C978 C984 1.368 . S
C979 C963 1.349 . S
C979 H971 0.950 . S
C979 C977 1.327 . S
C980 C968 1.349 . S
C980 H974 0.950 . S
C980 C981 1.327 . S
C981 H975 0.950 . S
C981 C980 1.327 . S
C981 C985 1.429 . S
C982 C965 1.574 . S
C982 H976 0.949 . S
C982 C986 1.368 . S
C983 C964 1.429 . S
C983 C977 1.429 . S
C983 C984 1.523 . S
C984 C965 1.368 . S
C984 C978 1.368 . S
C984 C983 1.523 . S
C985 C969 1.429 . S
C985 C981 1.429 . S
C985 C986 1.523 . S
C986 C970 1.368 . S
C986 C982 1.368 . S
C986 C985 1.523 . S
H987 C962 0.950 . S
H988 C964 0.950 . S
H989 C965 0.949 . S
H990 C967 0.950 . S
H991 C969 0.950 . S
C273 C6 2.452 . S
C278 C168 2.476 . S
C303 C21 1.676 . S
C308 N188 1.672 . S
C338 C222 1.250 . S
C333 C49 1.190 . S
C363 C68 0.941 . S
C368 N256 1.009 . S
C398 C209 3.219 . S
C393 C2 3.190 . S
C428 N166 0.887 . S
C423 C30 0.847 . S
C458 C243 1.609 . S
C453 C40 1.597 . S
C488 N218 0.840 . S
C483 C63 0.846 . S
C513 C11 1.626 . S
C518 C258 1.869 . S
C548 C192 1.818 . S
C543 C44 1.809 . S
C573 C59 0.946 . S
C578 C153 0.958 . S
C603 C25 1.765 . S
C608 C239 1.784 . S
C638 C179 2.731 . S
C633 C82 2.714 . S
C663 C101 1.352 . S
C668 N196 1.328 . S
C693 C125 1.680 . S
C698 C213 1.746 . S
C723 C144 0.749 . S
C728 N248 0.748 . S
C753 C87 1.870 . S
C758 C198 2.084 . S
C788 N158 1.895 . S
C783 C97 1.898 . S
C818 C252 1.658 . S
C813 C120 1.655 . S
C848 N226 0.839 . S
C843 C135 0.839 . S
C873 C78 2.206 . S
C878 C269 2.223 1_556 S
C908 C183 1.222 . S
C903 C116 1.209 . S
C938 C162 1.589 . S
C933 C139 1.576 . S
C963 C106 1.377 . S
C968 C228 1.471 . S
