# Generated by pormake.
# Topology pyr, (3,6)-cn, num edge types: 1
# Building blocks:
#     Node 0, Type 0, BuildingBlock: QEWDON_clean_linker_0, # of connection points: 3
#     Node 1, Type 0, BuildingBlock: QEWDON_clean_linker_0, # of connection points: 3
#     Node 2, Type 0, BuildingBlock: QEWDON_clean_linker_0, # of connection points: 3
#     Node 3, Type 0, BuildingBlock: QEWDON_clean_linker_0, # of connection points: 3
#     Node 4, Type 0, BuildingBlock: QEWDON_clean_linker_0, # of connection points: 3
#     Node 5, Type 0, BuildingBlock: QEWDON_clean_linker_0, # of connection points: 3
#     Node 6, Type 0, BuildingBlock: QEWDON_clean_linker_0, # of connection points: 3
#     Node 7, Type 0, BuildingBlock: QEWDON_clean_linker_0, # of connection points: 3
#     Node 8, Type 1, BuildingBlock: JUFBIX_clean_sbu_0, # of connection points: 6
#     Node 9, Type 1, BuildingBlock: JUFBIX_clean_sbu_0, # of connection points: 6
#     Node 10, Type 1, BuildingBlock: JUFBIX_clean_sbu_0, # of connection points: 6
#     Node 11, Type 1, BuildingBlock: JUFBIX_clean_sbu_0, # of connection points: 6
#     Edge 12, Type (0, 1), BuildingBlock: XUDNAN_clean_linker_2, # of connection points: 2
#     Edge 13, Type (0, 1), BuildingBlock: XUDNAN_clean_linker_2, # of connection points: 2
#     Edge 14, Type (0, 1), BuildingBlock: XUDNAN_clean_linker_2, # of connection points: 2
#     Edge 15, Type (0, 1), BuildingBlock: XUDNAN_clean_linker_2, # of connection points: 2
#     Edge 16, Type (0, 1), BuildingBlock: XUDNAN_clean_linker_2, # of connection points: 2
#     Edge 17, Type (0, 1), BuildingBlock: XUDNAN_clean_linker_2, # of connection points: 2
#     Edge 18, Type (0, 1), BuildingBlock: XUDNAN_clean_linker_2, # of connection points: 2
#     Edge 19, Type (0, 1), BuildingBlock: XUDNAN_clean_linker_2, # of connection points: 2
#     Edge 20, Type (0, 1), BuildingBlock: XUDNAN_clean_linker_2, # of connection points: 2
#     Edge 21, Type (0, 1), BuildingBlock: XUDNAN_clean_linker_2, # of connection points: 2
#     Edge 22, Type (0, 1), BuildingBlock: XUDNAN_clean_linker_2, # of connection points: 2
#     Edge 23, Type (0, 1), BuildingBlock: XUDNAN_clean_linker_2, # of connection points: 2
#     Edge 24, Type (0, 1), BuildingBlock: XUDNAN_clean_linker_2, # of connection points: 2
#     Edge 25, Type (0, 1), BuildingBlock: XUDNAN_clean_linker_2, # of connection points: 2
#     Edge 26, Type (0, 1), BuildingBlock: XUDNAN_clean_linker_2, # of connection points: 2
#     Edge 27, Type (0, 1), BuildingBlock: XUDNAN_clean_linker_2, # of connection points: 2
#     Edge 28, Type (0, 1), BuildingBlock: XUDNAN_clean_linker_2, # of connection points: 2
#     Edge 29, Type (0, 1), BuildingBlock: XUDNAN_clean_linker_2, # of connection points: 2
#     Edge 30, Type (0, 1), BuildingBlock: XUDNAN_clean_linker_2, # of connection points: 2
#     Edge 31, Type (0, 1), BuildingBlock: XUDNAN_clean_linker_2, # of connection points: 2
#     Edge 32, Type (0, 1), BuildingBlock: XUDNAN_clean_linker_2, # of connection points: 2
#     Edge 33, Type (0, 1), BuildingBlock: XUDNAN_clean_linker_2, # of connection points: 2
#     Edge 34, Type (0, 1), BuildingBlock: XUDNAN_clean_linker_2, # of connection points: 2
#     Edge 35, Type (0, 1), BuildingBlock: XUDNAN_clean_linker_2, # of connection points: 2
# Relax obj value: 0.182
# Max RMSD: 0.286
# Mean RMSD: 0.183
data_MOF--net-pry--node1-JUFBIX_clean_sbu_0--node2-QEWDON_clean_linker_0--edge1-XUDNAN_clean_linker_2
_symmetry_space_group_name_H-M    P1
_symmetry_Int_Tables_number       1
_symmetry_cell_setting            triclinic
loop_
_symmetry_equiv_pos_as_xyz
'x, y, z'
_cell_length_a     36.912229
_cell_length_b     35.241142
_cell_length_c     39.603403
_cell_angle_alpha  84.021761
_cell_angle_beta   89.064622
_cell_angle_gamma 99.546338
loop_
_atom_site_label
_atom_site_type_symbol
_atom_site_fract_x
_atom_site_fract_y
_atom_site_fract_z
_atom_type_partial_charge
H0 H 0.27487 0.25139 0.17569 0.0
C1 C 0.25978 0.23777 0.19869 0.0
C2 C 0.27024 0.20393 0.2151 0.0
C3 C 0.23288 0.25659 0.21329 0.0
H4 H 0.25895 0.16133 0.25865 0.0
C5 C 0.25128 0.18737 0.24581 0.0
C6 C 0.22379 0.20442 0.2611 0.0
C7 C 0.2145 0.23897 0.24423 0.0
C8 C 0.23114 0.29824 0.19975 0.0
H9 H 0.19533 0.25376 0.25652 0.0
C10 C 0.19819 0.31394 0.19262 0.0
C11 C 0.20028 0.35335 0.17792 0.0
C12 C 0.26505 0.32328 0.19363 0.0
H13 H 0.29064 0.31324 0.19963 0.0
C14 C 0.26698 0.36153 0.17996 0.0
H15 H 0.17163 0.29564 0.19741 0.0
C16 C 0.23519 0.37627 0.17197 0.0
H17 H 0.23795 0.4063 0.16145 0.0
H18 H 0.2935 0.37999 0.17548 0.0
H19 H 0.36284 0.87205 0.80176 0.0
C20 C 0.38248 0.8557 0.79221 0.0
C21 C 0.42035 0.86684 0.79689 0.0
C22 C 0.36959 0.8228 0.77616 0.0
H23 H 0.4746 0.85357 0.78693 0.0
C24 C 0.44536 0.84574 0.7834 0.0
C25 C 0.43236 0.81307 0.76687 0.0
C26 C 0.39453 0.80148 0.76373 0.0
C27 C 0.32995 0.81031 0.77257 0.0
H28 H 0.38449 0.77595 0.75128 0.0
C29 C 0.31031 0.83264 0.75071 0.0
C30 C 0.27281 0.82002 0.74572 0.0
C31 C 0.312 0.77537 0.78991 0.0
H32 H 0.32694 0.75775 0.80676 0.0
C33 C 0.27459 0.76306 0.78567 0.0
H34 H 0.3247 0.85903 0.73665 0.0
C35 C 0.25504 0.78515 0.76367 0.0
H36 H 0.22605 0.77497 0.76074 0.0
H37 H 0.26075 0.7362 0.79927 0.0
H38 H 0.73915 0.51712 0.9417 0.0
C39 C 0.72414 0.48771 0.9448 0.0
C40 C 0.73815 0.4587 0.96489 0.0
C41 C 0.69028 0.47919 0.92946 0.0
H42 H 0.72904 0.39868 0.98502 0.0
C43 C 0.71797 0.42104 0.96961 0.0
C44 C 0.68387 0.41209 0.95437 0.0
C45 C 0.67041 0.44142 0.93399 0.0
C46 C 0.67442 0.51029 0.91048 0.0
H47 H 0.64373 0.43543 0.92281 0.0
C48 C 0.67063 0.51111 0.87524 0.0
C49 C 0.65431 0.54008 0.85743 0.0
C50 C 0.6622 0.53878 0.92784 0.0
H51 H 0.66497 0.53849 0.95505 0.0
C52 C 0.64564 0.5674 0.91022 0.0
H53 H 0.68022 0.48919 0.86177 0.0
C54 C 0.6415 0.56799 0.8752 0.0
H55 H 0.62886 0.59058 0.86187 0.0
H56 H 0.63599 0.58916 0.92374 0.0
H57 H 1.0231 0.69079 0.46262 0.0
C58 C 0.99978 0.68661 0.48042 0.0
C59 C 0.99246 0.71747 0.49756 0.0
C60 C 0.97633 0.65065 0.48552 0.0
H61 H 0.95427 0.73766 0.52979 0.0
C62 C 0.96103 0.71264 0.51887 0.0
C63 C 0.93635 0.67748 0.52299 0.0
C64 C 0.94493 0.64608 0.50704 0.0
C65 C 0.98156 0.61949 0.46476 0.0
H66 H 0.92612 0.61876 0.50967 0.0
C67 C 0.97621 0.62443 0.42973 0.0
C68 C 0.97832 0.59421 0.4096 0.0
C69 C 0.98966 0.58424 0.47982 0.0
H70 H 0.99349 0.57985 0.50693 0.0
C71 C 0.99292 0.55444 0.45984 0.0
H72 H 0.96977 0.65174 0.41829 0.0
C73 C 0.98726 0.5593 0.42492 0.0
H74 H 0.98898 0.53547 0.4101 0.0
H75 H 0.99934 0.5273 0.47152 0.0
H76 H 0.86441 0.87471 0.9134 0.0
C77 C 0.87743 0.89174 0.89076 0.0
C78 C 0.91046 0.88266 0.87708 0.0
C79 C 0.85904 0.91997 0.87348 0.0
H80 H 0.94968 0.89623 0.83427 0.0
C81 C 0.92495 0.90308 0.84544 0.0
C82 C 0.90678 0.93044 0.82688 0.0
C83 C 0.87456 0.93928 0.84207 0.0
C84 C 0.81873 0.92031 0.88092 0.0
H85 H 0.85971 0.9597 0.82834 0.0
C86 C 0.80394 0.94077 0.90602 0.0
C87 C 0.76505 0.94188 0.90837 0.0
C88 C 0.79435 0.90086 0.85919 0.0
H89 H 0.80448 0.88509 0.83997 0.0
C90 C 0.75707 0.90239 0.8608 0.0
H91 H 0.82246 0.95569 0.92308 0.0
C92 C 0.74277 0.92299 0.8844 0.0
H93 H 0.71384 0.92454 0.88293 0.0
H94 H 0.73905 0.88803 0.84302 0.0
H95 H 0.7541 0.26854 0.4567 0.0
C96 C 0.74328 0.26716 0.43148 0.0
C97 C 0.76333 0.25398 0.40609 0.0
C98 C 0.70905 0.27796 0.42468 0.0
H99 H 0.76348 0.23949 0.35464 0.0
C100 C 0.74871 0.25126 0.37387 0.0
C101 C 0.71388 0.26078 0.36707 0.0
C102 C 0.69459 0.27527 0.3923 0.0
C103 C 0.68738 0.28932 0.45231 0.0
H104 H 0.66734 0.28188 0.38756 0.0
C105 C 0.67738 0.32615 0.44977 0.0
C106 C 0.6581 0.33763 0.47677 0.0
C107 C 0.67755 0.26359 0.48175 0.0
H108 H 0.68512 0.23504 0.48407 0.0
C109 C 0.65773 0.27452 0.50833 0.0
H110 H 0.68513 0.34598 0.42703 0.0
C111 C 0.64811 0.31134 0.50598 0.0
H112 H 0.63365 0.31956 0.52736 0.0
H113 H 0.6502 0.25459 0.53099 0.0
H114 H 0.41489 0.73766 0.23319 0.0
C115 C 0.39043 0.73372 0.21835 0.0
C116 C 0.3857 0.76245 0.19216 0.0
C117 C 0.36456 0.69936 0.22465 0.0
H118 H 0.35041 0.77815 0.15184 0.0
C119 C 0.355 0.7561 0.17175 0.0
C120 C 0.32949 0.72178 0.17697 0.0
C121 C 0.33387 0.69388 0.20388 0.0
C122 C 0.37054 0.66869 0.25192 0.0
H123 H 0.31364 0.66767 0.20816 0.0
C124 C 0.38658 0.67849 0.28263 0.0
C125 C 0.39417 0.64963 0.30763 0.0
C126 C 0.36142 0.62934 0.24693 0.0
H127 H 0.34982 0.62062 0.22344 0.0
C128 C 0.36819 0.60061 0.27185 0.0
H129 H 0.39294 0.70859 0.28722 0.0
C130 C 0.3846 0.61057 0.30188 0.0
H131 H 0.39061 0.58761 0.3202 0.0
H132 H 0.36133 0.57045 0.26757 0.0
H133 H 0.19641 0.40051 0.73754 0.0
C134 C 0.17988 0.38751 0.71801 0.0
C135 C 0.18701 0.40217 0.68371 0.0
C136 C 0.15293 0.35475 0.72701 0.0
H137 H 0.17286 0.39384 0.6319 0.0
C138 C 0.1663 0.38425 0.65854 0.0
C139 C 0.13906 0.35196 0.66751 0.0
C140 C 0.13229 0.33749 0.70166 0.0
C141 C 0.14767 0.33707 0.76258 0.0
H142 H 0.11201 0.31164 0.70836 0.0
C143 C 0.14093 0.35957 0.78836 0.0
C144 C 0.13421 0.3427 0.82209 0.0
C145 C 0.14838 0.29744 0.77076 0.0
H146 H 0.15375 0.27956 0.75121 0.0
C147 C 0.14235 0.28064 0.80433 0.0
H148 H 0.13939 0.38991 0.78183 0.0
C149 C 0.1351 0.30305 0.82991 0.0
H150 H 0.13022 0.28944 0.85576 0.0
H151 H 0.14303 0.25012 0.81049 0.0
Co152 Co 0.03299 0.06058 0.52461 0.0
C153 C 0.05137 0.98927 0.51757 0.0
Co154 Co 0.08304 0.05135 0.55109 0.0
C155 C 0.98071 0.10004 0.48822 0.0
C156 C 0.95814 0.04154 0.50709 0.0
N157 N 0.98951 0.0676 0.50484 0.0
N158 N 0.94492 0.09534 0.48052 0.0
C159 C 0.93061 0.05859 0.49228 0.0
H160 H 0.99968 0.1271 0.48343 0.0
H161 H 0.9552 0.01243 0.51976 0.0
C162 C 0.06513 0.1229 0.55704 0.0
N163 N 0.12585 0.04266 0.57151 0.0
C164 C 0.13029 0.00851 0.58806 0.0
C165 C 0.15875 0.06578 0.5725 0.0
N166 N 0.16464 0.00888 0.59895 0.0
C167 C 0.18275 0.045 0.58959 0.0
C168 C 0.09572 0.08536 0.48209 0.0
O169 O 0.03758 0.11 0.54033 0.0
O170 O 0.08911 0.10169 0.56465 0.0
O171 O 0.11038 0.07202 0.50884 0.0
O172 O 0.06089 0.08369 0.48282 0.0
O173 O 0.07683 1.00081 0.53701 0.0
H174 H 0.16503 0.09543 0.561 0.0
H175 H 0.10858 0.98358 0.59196 0.0
O176 O 0.02859 0.01125 0.50846 0.0
O177 O 1.00541 0.03771 0.56696 0.0
O178 O 0.05562 0.03112 0.59358 0.0
C179 C 1.02073 0.02757 0.5944 0.0
H180 H 0.90212 0.04531 0.49087 0.0
H181 H 0.21144 0.05523 0.59386 0.0
Co182 Co 0.51795 0.07842 0.05474 0.0
C183 C 0.51645 0.01963 0.10695 0.0
Co184 Co 0.55543 0.09403 0.09556 0.0
C185 C 0.49396 0.05553 0.98951 0.0
C186 C 0.44879 0.05722 0.02352 0.0
N187 N 0.48583 0.06478 1.02069 0.0
N188 N 0.46358 0.04188 0.9731 0.0
C189 C 0.43508 0.04324 0.99437 0.0
H190 H 0.52166 0.05648 0.97976 0.0
H191 H 0.43264 0.05977 0.04594 0.0
C192 C 0.55722 0.15268 0.0432 0.0
N193 N 0.58739 0.1064 0.12959 0.0
C194 C 0.58999 0.13595 0.14903 0.0
C195 C 0.61329 0.08579 0.14079 0.0
N196 N 0.61648 0.13443 0.17207 0.0
C197 C 0.63126 0.10296 0.16669 0.0
C198 C 0.58948 0.06074 0.04379 0.0
O199 O 0.53425 0.12768 0.03025 0.0
O200 O 0.56942 0.14412 0.07235 0.0
O201 O 0.59471 0.07672 0.07106 0.0
O202 O 0.55727 0.05727 0.032 0.0
O203 O 0.54116 0.04373 0.11873 0.0
H204 H 0.61855 0.05965 0.13096 0.0
H205 H 0.57221 0.15754 0.14681 0.0
O206 O 0.50202 0.02923 0.07915 0.0
O207 O 0.47913 0.09978 0.07843 0.0
O208 O 0.51625 0.11146 0.11985 0.0
C209 C 0.48461 0.11198 0.10749 0.0
H210 H 0.4064 0.03344 0.98978 0.0
H211 H 0.6536 0.09293 0.18039 0.0
Co212 Co 0.57752 0.63809 0.56559 0.0
C213 C 0.52011 0.64397 0.52251 0.0
Co214 Co 0.52888 0.59333 0.57934 0.0
C215 C 0.65343 0.66669 0.55311 0.0
C216 C 0.62367 0.71369 0.55477 0.0
N217 N 0.61913 0.67482 0.55543 0.0
N218 N 0.67922 0.69864 0.55163 0.0
C219 C 0.6608 0.72844 0.55276 0.0
H220 H 0.65956 0.63755 0.55507 0.0
H221 H 0.6016 0.72998 0.55753 0.0
C222 C 0.58605 0.58728 0.62227 0.0
N223 N 0.48852 0.5554 0.59055 0.0
C224 C 0.45317 0.55908 0.59618 0.0
C225 C 0.48938 0.51732 0.59785 0.0
N226 N 0.43215 0.52481 0.6072 0.0
C227 C 0.4548 0.49846 0.60816 0.0
C228 C 0.57748 0.57161 0.53414 0.0
O229 O 0.60222 0.61601 0.60262 0.0
O230 O 0.5534 0.57236 0.61651 0.0
O231 O 0.54728 0.56097 0.55083 0.0
O232 O 0.59552 0.60514 0.5364 0.0
O233 O 0.50438 0.61471 0.54208 0.0
H234 H 0.51385 0.50427 0.59667 0.0
H235 H 0.44339 0.58652 0.59361 0.0
O236 O 0.5526 0.6598 0.52859 0.0
O237 O 0.55929 0.67048 0.59539 0.0
O238 O 0.51106 0.6254 0.60835 0.0
C239 C 0.52955 0.65814 0.61261 0.0
H240 H 0.6733 0.75842 0.55325 0.0
H241 H 0.44698 0.46781 0.61608 0.0
Co242 Co 0.05105 0.60578 0.02644 0.0
C243 C 0.97806 0.57234 0.04164 0.0
Co244 Co 0.02742 0.62359 0.07237 0.0
C245 C 0.06689 0.55253 0.98162 0.0
C246 C 0.08954 0.61056 0.96173 0.0
N247 N 0.06987 0.58956 0.98829 0.0
N248 N 0.08393 0.54928 0.95198 0.0
C249 C 0.09827 0.58581 0.9393 0.0
H250 H 0.05303 0.52835 0.99871 0.0
H251 H 0.0971 0.64175 0.95896 0.0
C252 C 0.10068 0.65582 0.05866 0.0
N253 N 1.0085 0.64033 0.11087 0.0
C254 C 0.9983 0.62028 0.14146 0.0
C255 C 1.00257 0.67661 0.1141 0.0
N256 N 0.98593 0.64259 0.16327 0.0
C257 C 0.98846 0.67798 0.14615 0.0
C258 C 0.06153 0.5571 0.08575 0.0
O259 O 0.09709 0.63696 0.03291 0.0
O260 O 0.07302 0.655 0.07837 0.0
O261 O 0.04436 0.58016 0.10005 0.0
O262 O 0.06697 0.56318 0.05373 0.0
O263 O 0.98215 0.59167 0.06701 0.0
H264 H 1.00869 0.7009 0.09468 0.0
H265 H 0.99977 0.58995 0.1477 0.0
O266 O 1.00469 0.5745 1.02038 0.0
O267 O 0.03543 0.64791 0.99898 0.0
O268 O 1.0105 0.66662 0.0433 0.0
C269 C 1.01719 0.67122 1.01124 0.0
H270 H 0.11372 0.59417 0.91548 0.0
H271 H 0.98166 0.70329 0.15646 0.0
H272 H 0.151 0.18919 0.28923 0.0
H273 H 0.26395 0.18321 0.31484 0.0
H274 H 0.24323 0.1532 0.37217 0.0
H275 H 0.12143 0.21067 0.37371 0.0
H276 H 0.07655 0.18136 0.37326 0.0
H277 H 0.0997 0.20347 0.3339 0.0
H278 H 0.09317 0.13637 0.31157 0.0
H279 H 0.07014 0.11407 0.35091 0.0
H280 H 0.11064 0.09764 0.33598 0.0
H281 H 0.21139 0.1221 0.42659 0.0
H282 H 0.17038 0.09333 0.47536 0.0
H283 H 0.0761 0.11799 0.41807 0.0
C284 C 0.17135 0.18186 0.30702 0.0
C285 C 0.20937 0.18839 0.29682 0.0
C286 C 0.23479 0.17809 0.32127 0.0
C287 C 0.22326 0.16107 0.3542 0.0
C288 C 0.18589 0.15429 0.36316 0.0
C289 C 0.16017 0.16446 0.34048 0.0
C290 C 0.12159 0.15325 0.3572 0.0
C291 C 0.10376 0.18934 0.35966 0.0
C292 C 0.09746 0.12357 0.33775 0.0
C293 C 0.12982 0.13512 0.39253 0.0
C294 C 0.16724 0.13622 0.39515 0.0
C295 C 0.18204 0.1212 0.42481 0.0
C296 C 0.1583 0.10474 0.45256 0.0
C297 C 0.11966 0.10304 0.45112 0.0
C298 C 0.10537 0.11862 0.42035 0.0
H299 H 0.38846 0.88028 0.85604 0.0
H300 H 0.48122 0.92442 0.78615 0.0
H301 H 0.5019 0.97617 0.82286 0.0
H302 H 0.36966 0.97295 0.87585 0.0
H303 H 0.35725 0.95565 0.91963 0.0
H304 H 0.34999 0.92286 0.88747 0.0
H305 H 0.38871 0.87738 0.92074 0.0
H306 H 0.39603 0.90996 0.953 0.0
H307 H 0.43483 0.89645 0.93186 0.0
H308 H 0.51271 0.02226 0.8688 0.0
H309 H 0.51288 0.0578 0.91958 0.0
H310 H 0.41206 0.98277 0.95735 0.0
C311 C 0.41278 0.90118 0.848 0.0
C312 C 0.43302 0.89855 0.81803 0.0
C313 C 0.46535 0.92583 0.80909 0.0
C314 C 0.47716 0.95541 0.82966 0.0
C315 C 0.45628 0.9572 0.85897 0.0
C316 C 0.42477 0.93074 0.86802 0.0
C317 C 0.4075 0.93809 0.90103 0.0
C318 C 0.36881 0.94798 0.89565 0.0
C319 C 0.40675 0.90342 0.92826 0.0
C320 C 0.43426 0.97284 0.90935 0.0
C321 C 0.46226 0.98356 0.8849 0.0
C322 C 0.49078 0.01421 0.88797 0.0
C323 C 0.49073 0.03412 0.91692 0.0
C324 C 0.46232 0.02331 0.94232 0.0
C325 C 0.4337 0.99242 0.93812 0.0
H326 H 0.59183 0.53907 0.8216 0.0
H327 H 0.70968 0.5455 0.80995 0.0
H328 H 0.70499 0.55372 0.74732 0.0
H329 H 0.56807 0.48493 0.74802 0.0
H330 H 0.53046 0.51014 0.7372 0.0
H331 H 0.54312 0.50268 0.78085 0.0
H332 H 0.55088 0.57658 0.78478 0.0
H333 H 0.53831 0.58424 0.7412 0.0
H334 H 0.58132 0.60929 0.75471 0.0
H335 H 0.68793 0.56952 0.68654 0.0
H336 H 0.659 0.58553 0.63196 0.0
H337 H 0.5519 0.56271 0.68355 0.0
C338 C 0.61651 0.54175 0.80574 0.0
C339 C 0.65112 0.54178 0.82026 0.0
C340 C 0.68294 0.54524 0.79902 0.0
C341 C 0.68052 0.54996 0.76356 0.0
C342 C 0.64597 0.55033 0.74994 0.0
C343 C 0.61446 0.54568 0.77039 0.0
C344 C 0.58076 0.54778 0.74951 0.0
C345 C 0.55403 0.50907 0.75417 0.0
C346 C 0.56172 0.58148 0.75806 0.0
C347 C 0.59832 0.55539 0.71418 0.0
C348 C 0.63598 0.55701 0.71488 0.0
C349 C 0.65839 0.56736 0.68555 0.0
C350 C 0.64182 0.57645 0.65476 0.0
C351 C 0.60328 0.5744 0.65364 0.0
C352 C 0.58133 0.56324 0.68363 0.0
H353 H 1.0156 0.5729 0.35576 0.0
H354 H 0.92252 0.62683 0.38076 0.0
H355 H 0.91107 0.6396 0.31985 0.0
H356 H 0.04853 0.63771 0.28506 0.0
H357 H 0.06201 0.60217 0.26 0.0
H358 H 0.06093 0.5938 0.30563 0.0
H359 H 1.01694 0.52872 0.30345 0.0
H360 H 1.01792 0.53691 0.25772 0.0
H361 H 0.97461 0.52805 0.28128 0.0
H362 H 0.91345 0.65268 0.25699 0.0
H363 H 0.92902 0.66401 0.1954 0.0
H364 H 1.01866 0.59943 0.21032 0.0
C365 C 0.99234 0.58661 0.34841 0.0
C366 C 0.97009 0.59908 0.373 0.0
C367 C 0.94028 0.61756 0.36235 0.0
C368 C 0.93333 0.62463 0.32783 0.0
C369 C 0.95617 0.61266 0.30423 0.0
C370 C 0.98491 0.59379 0.31397 0.0
C371 C 1.00656 0.58603 0.28329 0.0
C372 C 0.04688 0.60614 0.28352 0.0
C373 C 1.00383 0.54232 0.28132 0.0
C374 C 0.98611 0.60451 0.25489 0.0
C375 C 0.95699 0.61945 0.26759 0.0
C376 C 0.93575 0.64052 0.24665 0.0
C377 C 0.94481 0.64694 0.21183 0.0
C378 C 0.97467 0.63219 0.19832 0.0
C379 C 0.99513 0.61012 0.22005 0.0
H380 H 0.29311 0.19003 0.14938 0.0
H381 H 0.32594 0.18448 0.25425 0.0
H382 H 0.38234 0.16129 0.23786 0.0
H383 H 0.3275 0.10239 0.13043 0.0
H384 H 0.34323 0.12118 0.08768 0.0
H385 H 0.30517 0.13809 0.10697 0.0
H386 H 0.33921 0.20864 0.09513 0.0
H387 H 0.37738 0.19194 0.07583 0.0
H388 H 0.38486 0.22133 0.11051 0.0
H389 H 0.43683 0.14064 0.21064 0.0
H390 H 0.48377 0.12009 0.17518 0.0
H391 H 0.41725 0.13432 0.08684 0.0
C392 C 0.31217 0.1839 0.16888 0.0
C393 C 0.30436 0.18901 0.20345 0.0
C394 C 0.33041 0.18042 0.22786 0.0
C395 C 0.3629 0.16737 0.21871 0.0
C396 C 0.36961 0.16244 0.1848 0.0
C397 C 0.34492 0.17006 0.16018 0.0
C398 C 0.359 0.16125 0.12565 0.0
C399 C 0.33212 0.1288 0.11187 0.0
C400 C 0.36549 0.19798 0.10028 0.0
C401 C 0.39541 0.1478 0.13477 0.0
C402 C 0.40088 0.14915 0.16909 0.0
C403 C 0.43262 0.13927 0.18379 0.0
C404 C 0.45937 0.12763 0.16323 0.0
C405 C 0.45473 0.1252 0.12794 0.0
C406 C 0.4219 0.13546 0.11366 0.0
H407 H 0.27744 0.89904 0.73488 0.0
H408 H 0.22335 0.79177 0.69995 0.0
H409 H 0.19109 0.82898 0.65754 0.0
H410 H 0.20154 0.95004 0.72588 0.0
H411 H 0.22951 0.99593 0.71123 0.0
H412 H 0.24837 0.96085 0.73889 0.0
H413 H 0.30173 0.96324 0.69495 0.0
H414 H 0.28294 0.99823 0.66707 0.0
H415 H 0.29139 0.95388 0.65196 0.0
H416 H 0.16464 0.87725 0.61938 0.0
H417 H 0.1443 0.93389 0.58843 0.0
H418 H 0.21632 0.01016 0.6471 0.0
C419 C 0.25901 0.88337 0.71816 0.0
C420 C 0.25279 0.84246 0.72083 0.0
C421 C 0.22808 0.82305 0.69876 0.0
C422 C 0.20989 0.84392 0.6744 0.0
C423 C 0.21682 0.88416 0.67235 0.0
C424 C 0.24072 0.90374 0.69361 0.0
C425 C 0.24297 0.94714 0.68629 0.0
C426 C 0.2298 0.9645 0.71742 0.0
C427 C 0.28209 0.96677 0.67436 0.0
C428 C 0.21636 0.94887 0.65771 0.0
C429 C 0.2017 0.91218 0.65007 0.0
C430 C 0.1759 0.90613 0.62514 0.0
C431 C 0.16439 0.93846 0.60784 0.0
C432 C 0.17862 0.97634 0.61556 0.0
C433 C 0.20532 0.98155 0.64051 0.0
H434 H 0.80466 0.49465 0.93653 0.0
H435 H 0.74972 0.44485 0.03243 0.0
H436 H 0.80681 0.46505 0.06249 0.0
H437 H 0.89472 0.46756 0.9572 0.0
H438 H 0.91988 0.51152 0.93498 0.0
H439 H 0.87534 0.49119 0.92093 0.0
H440 H 0.85265 0.55622 0.92596 0.0
H441 H 0.89703 0.57669 0.94008 0.0
H442 H 0.85633 0.57692 0.96578 0.0
H443 H 0.86721 0.49701 0.08241 0.0
H444 H 0.92896 0.53388 0.09059 0.0
H445 H 0.94622 0.55869 0.9814 0.0
C446 C 0.80491 0.4877 0.96382 0.0
C447 C 0.77302 0.46829 0.98232 0.0
C448 C 0.77411 0.45949 1.01792 0.0
C449 C 0.8063 0.47089 0.03515 0.0
C450 C 0.83722 0.49043 1.01624 0.0
C451 C 0.83699 0.49825 0.98131 0.0
C452 C 0.87376 0.52021 0.96709 0.0
C453 C 0.892 0.49617 0.94367 0.0
C454 C 0.86968 0.55986 0.94865 0.0
C455 C 0.89435 0.52448 0.99958 0.0
C456 C 0.87273 0.50721 0.02765 0.0
C457 C 0.88468 0.50997 0.06063 0.0
C458 C 0.91964 0.53104 0.06503 0.0
C459 C 0.94231 0.54853 0.0366 0.0
C460 C 0.92966 0.54478 1.0035 0.0
H461 H 0.86993 0.64269 0.50163 0.0
H462 H 0.91878 0.71142 0.57928 0.0
H463 H 0.85729 0.72301 0.59632 0.0
H464 H 0.80683 0.69824 0.47531 0.0
H465 H 0.76985 0.65939 0.46942 0.0
H466 H 0.81674 0.65195 0.46595 0.0
H467 H 0.80385 0.59336 0.51226 0.0
H468 H 0.75653 0.59988 0.51527 0.0
H469 H 0.78356 0.59905 0.55275 0.0
H470 H 0.79212 0.73574 0.59836 0.0
H471 H 0.72599 0.73927 0.59188 0.0
H472 H 0.71959 0.65854 0.51606 0.0
C473 C 0.86772 0.65879 0.52319 0.0
C474 C 0.89935 0.67637 0.53891 0.0
C475 C 0.89504 0.69811 0.56648 0.0
C476 C 0.86022 0.70479 0.57641 0.0
C477 C 0.82989 0.68875 0.5591 0.0
C478 C 0.83316 0.66523 0.53377 0.0
C479 C 0.79648 0.65272 0.51824 0.0
C480 C 0.79757 0.66641 0.47997 0.0
C481 C 0.78439 0.60863 0.52505 0.0
C482 C 0.77235 0.674 0.53794 0.0
C483 C 0.79211 0.69478 0.56131 0.0
C484 C 0.7762 0.71895 0.58067 0.0
C485 C 0.73888 0.72118 0.57657 0.0
C486 C 0.71803 0.69908 0.55358 0.0
C487 C 0.73505 0.67533 0.53405 0.0
H488 H 0.18659 0.39024 0.11595 0.0
H489 H 0.1432 0.36543 0.21951 0.0
H490 H 0.10107 0.41302 0.20739 0.0
H491 H 0.18877 0.48973 0.10873 0.0
H492 H 0.17569 0.49459 0.06505 0.0
H493 H 0.19873 0.45542 0.08063 0.0
H494 H 0.14554 0.40567 0.06135 0.0
H495 H 0.12258 0.44476 0.04516 0.0
H496 H 0.09904 0.40657 0.07547 0.0
H497 H 0.06864 0.47106 0.1846 0.0
H498 H 0.04571 0.52632 0.15281 0.0
H499 H 0.10975 0.51169 0.06381 0.0
C500 C 0.16725 0.39373 0.13579 0.0
C501 C 0.16787 0.37318 0.16864 0.0
C502 C 0.14275 0.37973 0.19399 0.0
C503 C 0.11898 0.40722 0.18734 0.0
C504 C 0.1202 0.42803 0.15503 0.0
C505 C 0.14331 0.42087 0.12949 0.0
C506 C 0.14078 0.44793 0.09731 0.0
C507 C 0.17822 0.47342 0.08736 0.0
C508 C 0.12611 0.42486 0.0681 0.0
C509 C 0.11314 0.47203 0.10865 0.0
C510 C 0.10155 0.46033 0.14206 0.0
C511 C 0.0773 0.47983 0.15831 0.0
C512 C 0.06444 0.51146 0.14002 0.0
C513 C 0.07548 0.52362 0.10554 0.0
C514 C 0.10024 0.50323 0.08994 0.0
H515 H 0.67478 0.36472 1.01449 0.0
H516 H 0.64254 0.37029 0.90936 0.0
H517 H 0.60455 0.3054 0.92107 0.0
H518 H 0.6835 0.26418 0.02292 0.0
H519 H 0.66628 0.25564 0.06638 0.0
H520 H 0.68988 0.30293 0.04973 0.0
H521 H 0.63367 0.33285 0.06716 0.0
H522 H 0.60982 0.28559 0.08365 0.0
H523 H 0.58897 0.31481 0.052 0.0
H524 H 0.57025 0.23957 0.94446 0.0
H525 H 0.54444 0.17696 0.97705 0.0
H526 H 0.60123 0.21441 0.06608 0.0
C527 C 0.66012 0.35222 0.99375 0.0
C528 C 0.66167 0.37268 0.96098 0.0
C529 C 0.64142 0.35542 0.93479 0.0
C530 C 0.61988 0.31852 0.94115 0.0
C531 C 0.61899 0.29924 0.97379 0.0
C532 C 0.63873 0.31544 0.99959 0.0
C533 C 0.63371 0.2885 0.03226 0.0
C534 C 0.67053 0.27714 0.04346 0.0
C535 C 0.61545 0.30652 0.06042 0.0
C536 C 0.60814 0.25451 1.0208 0.0
C537 C 0.59975 0.2613 0.98707 0.0
C538 C 0.57664 0.23393 0.97089 0.0
C539 C 0.56205 0.19851 0.98963 0.0
C540 C 0.57084 0.1908 0.02408 0.0
C541 C 0.594 0.21939 0.03978 0.0
H542 H 0.03103 0.76154 0.54157 0.0
H543 H 0.99782 0.76231 0.43722 0.0
H544 H 1.01681 0.83342 0.42857 0.0
H545 H 0.99771 0.8395 0.55995 0.0
H546 H 0.03422 0.85973 0.58579 0.0
H547 H 0.02606 0.80867 0.58208 0.0
H548 H 0.09337 0.81201 0.56086 0.0
H549 H 0.10212 0.86311 0.56528 0.0
H550 H 0.11164 0.84622 0.52517 0.0
H551 H 0.02463 0.9038 0.43572 0.0
H552 H 0.03098 0.96899 0.45526 0.0
H553 H 0.06409 0.92301 0.55359 0.0
C554 C 0.02962 0.77664 0.51649 0.0
C555 C 1.01366 0.75678 0.48984 0.0
C556 C 1.01085 0.77718 0.45759 0.0
C557 C 1.02134 0.81751 0.45258 0.0
C558 C 0.03531 0.83664 0.47988 0.0
C559 C 0.04062 0.81678 0.51094 0.0
C560 C 0.05306 0.84436 0.53699 0.0
C561 C 0.02614 0.83765 0.568 0.0
C562 C 0.09239 0.84124 0.54769 0.0
C563 C 0.05179 0.88269 0.51634 0.0
C564 C 0.04154 0.87765 0.48345 0.0
C565 C 0.03392 0.9083 0.461 0.0
C566 C 0.03722 0.94506 0.47236 0.0
C567 C 0.04849 0.95081 0.50566 0.0
C568 C 0.05631 0.91937 0.52771 0.0
H569 H 0.47409 0.82872 0.70818 0.0
H570 H 0.4432 0.74285 0.79459 0.0
H571 H 0.47203 0.69566 0.76618 0.0
H572 H 0.45216 0.76909 0.64752 0.0
H573 H 0.48951 0.78878 0.61754 0.0
H574 H 0.47419 0.81883 0.64696 0.0
H575 H 0.5399 0.83408 0.66944 0.0
H576 H 0.55575 0.80471 0.63952 0.0
H577 H 0.56345 0.79489 0.68417 0.0
H578 H 0.4918 0.65503 0.7251 0.0
H579 H 0.50818 0.62409 0.6753 0.0
H580 H 0.52917 0.73591 0.61493 0.0
C581 C 0.47515 0.80055 0.72159 0.0
C582 C 0.45738 0.78933 0.75373 0.0
C583 C 0.45753 0.75187 0.77024 0.0
C584 C 0.4737 0.72498 0.75427 0.0
C585 C 0.4897 0.73624 0.72191 0.0
C586 C 0.49128 0.77332 0.70591 0.0
C587 C 0.50664 0.77653 0.66974 0.0
C588 C 0.47896 0.78903 0.64394 0.0
C589 C 0.54364 0.80419 0.66548 0.0
C590 C 0.51163 0.73505 0.66743 0.0
C591 C 0.50187 0.71245 0.69795 0.0
C592 C 0.50038 0.67252 0.70133 0.0
C593 C 0.50929 0.65519 0.67285 0.0
C594 C 0.51985 0.67778 0.64152 0.0
C595 C 0.52159 0.71825 0.63884 0.0
H596 H 0.97793 0.95022 0.79514 0.0
H597 H 0.86234 0.94524 0.77344 0.0
H598 H 0.87902 0.96939 0.71395 0.0
H599 H 1.01213 0.03732 0.73811 0.0
H600 H 0.05284 0.02039 0.72435 0.0
H601 H 0.03242 1.00347 0.76598 0.0
H602 H 0.02762 0.93267 0.75233 0.0
H603 H 0.04798 0.9494 0.71064 0.0
H604 H 1.00399 0.91797 0.71514 0.0
H605 H 0.90749 0.99364 0.65547 0.0
H606 H 0.94569 0.01627 0.60331 0.0
H607 H 0.04381 1.00522 0.65987 0.0
C608 C 0.95601 0.95415 0.77799 0.0
C609 C 0.9185 0.94621 0.79013 0.0
C610 C 0.89122 0.952 0.76602 0.0
C611 C 0.90044 0.96543 0.73167 0.0
C612 C 0.93731 0.97308 0.7208 0.0
C613 C 0.96478 0.96764 0.74318 0.0
C614 C 1.00231 0.9779 0.72438 0.0
C615 C 0.02635 0.01178 0.73909 0.0
C616 C 1.02162 0.94237 0.72571 0.0
C617 C 0.99156 0.98986 0.68811 0.0
C618 C 0.95382 0.98677 0.68678 0.0
C619 C 0.93707 0.99612 0.65634 0.0
C620 C 0.95916 0.00902 0.62662 0.0
C621 C 0.99805 0.01273 0.62686 0.0
C622 C 1.01427 1.00279 0.65839 0.0
H623 H 0.70752 0.19125 0.3427 0.0
H624 H 0.67857 0.30541 0.32145 0.0
H625 H 0.64861 0.28548 0.2688 0.0
H626 H 0.72897 0.17634 0.25798 0.0
H627 H 0.7097 0.12554 0.26359 0.0
H628 H 0.72797 0.14921 0.29928 0.0
H629 H 0.66565 0.12671 0.33249 0.0
H630 H 0.64718 0.10294 0.2969 0.0
H631 H 0.6241 0.13841 0.31387 0.0
H632 H 0.62385 0.25228 0.21704 0.0
H633 H 0.60556 0.20921 0.17249 0.0
H634 H 0.64951 0.1171 0.231 0.0
C635 C 0.69516 0.21221 0.32681 0.0
C636 C 0.69577 0.25001 0.33563 0.0
C637 C 0.67847 0.27634 0.31482 0.0
C638 C 0.66148 0.26527 0.28498 0.0
C639 C 0.66173 0.22769 0.27685 0.0
C640 C 0.67795 0.20158 0.29741 0.0
C641 C 0.67448 0.16289 0.28362 0.0
C642 C 0.71254 0.15294 0.27564 0.0
C643 C 0.65147 0.13086 0.30818 0.0
C644 C 0.6543 0.1713 0.25163 0.0
C645 C 0.64703 0.2087 0.24801 0.0
C646 C 0.6292 0.22286 0.21981 0.0
C647 C 0.61877 0.19812 0.19471 0.0
C648 C 0.62622 0.15972 0.19805 0.0
C649 C 0.64391 0.14637 0.22716 0.0
H650 H 0.38191 0.61281 0.3726 0.0
H651 H 0.45111 0.70936 0.31345 0.0
H652 H 0.48662 0.72325 0.36425 0.0
H653 H 0.38302 0.65554 0.45378 0.0
H654 H 0.38517 0.61 0.47837 0.0
H655 H 0.3622 0.61082 0.43855 0.0
H656 H 0.40371 0.56527 0.41687 0.0
H657 H 0.4267 0.56429 0.45656 0.0
H658 H 0.45297 0.57896 0.41724 0.0
H659 H 0.51877 0.72232 0.41991 0.0
H660 H 0.54498 0.70622 0.47556 0.0
H661 H 0.45528 0.60974 0.49788 0.0
C662 C 0.40431 0.63712 0.37033 0.0
C663 C 0.41351 0.66009 0.33895 0.0
C664 C 0.44298 0.69174 0.33727 0.0
C665 C 0.46346 0.69978 0.36599 0.0
C666 C 0.45408 0.67606 0.39631 0.0
C667 C 0.42509 0.64545 0.39868 0.0
C668 C 0.42229 0.62259 0.43346 0.0
C669 C 0.38601 0.62489 0.45214 0.0
C670 C 0.4267 0.58029 0.43086 0.0
C671 C 0.45486 0.64445 0.44999 0.0
C672 C 0.47263 0.67546 0.42832 0.0
C673 C 0.50478 0.69844 0.43727 0.0
C674 C 0.51948 0.68906 0.46894 0.0
C675 C 0.50211 0.65686 0.49121 0.0
C676 C 0.46899 0.63486 0.4817 0.0
H677 H 0.16689 0.41589 0.83238 0.0
H678 H 0.07864 0.32321 0.87042 0.0
H679 H 0.05787 0.36545 0.91012 0.0
H680 H 0.18524 0.4564 0.91356 0.0
H681 H 0.19411 0.50548 0.89347 0.0
H682 H 0.20408 0.46656 0.87066 0.0
H683 H 0.16297 0.48758 0.8221 0.0
H684 H 0.15253 0.52624 0.84489 0.0
H685 H 0.1158 0.49103 0.83173 0.0
H686 H 0.04324 0.41948 0.94127 0.0
H687 H 0.0377 0.48039 0.9645 0.0
H688 H 0.13615 0.53767 0.9066 0.0
C689 C 0.14345 0.40437 0.84936 0.0
C690 C 0.12437 0.36632 0.84845 0.0
C691 C 0.09393 0.35212 0.8711 0.0
C692 C 0.08183 0.37594 0.89356 0.0
C693 C 0.10068 0.41367 0.89314 0.0
C694 C 0.13107 0.42768 0.87191 0.0
C695 C 0.14549 0.46979 0.8754 0.0
C696 C 0.18454 0.47484 0.8891 0.0
C697 C 0.1441 0.49514 0.84152 0.0
C698 C 0.1179 0.47755 0.90135 0.0
C699 C 0.09241 0.44477 0.91135 0.0
C700 C 0.06341 0.44518 0.9341 0.0
C701 C 0.0606 0.47997 0.94725 0.0
C702 C 0.08671 0.5139 0.93769 0.0
C703 C 0.11565 0.51245 0.91435 0.0
H704 H 0.69181 0.92691 0.93366 0.0
H705 H 0.79432 0.00568 0.94224 0.0
H706 H 0.76158 0.04281 0.97885 0.0
H707 H 0.63615 1.00149 0.92287 0.0
H708 H 0.59664 0.97211 0.94521 0.0
H709 H 0.6289 0.94961 0.923 0.0
H710 H 0.63802 0.90672 0.97829 0.0
H711 H 0.60579 0.92907 1.00069 0.0
H712 H 0.65151 0.9292 1.01603 0.0
H713 H 0.71548 0.07223 1.01519 0.0
H714 H 0.66252 0.09213 0.04359 0.0
H715 H 0.58895 0.99943 1.00398 0.0
C716 C 0.70789 0.95233 0.94233 0.0
C717 C 0.74637 0.96313 0.93382 0.0
C718 C 0.76532 0.99594 0.94799 0.0
C719 C 0.74667 0.01759 0.96877 0.0
C720 C 0.70866 0.00674 0.9752 0.0
C721 C 0.68955 0.97491 0.96205 0.0
C722 C 0.6485 0.97013 0.97092 0.0
C723 C 0.62624 0.97354 0.93858 0.0
C724 C 0.63518 0.93148 0.99278 0.0
C725 C 0.64716 1.00425 0.99127 0.0
C726 C 0.68225 0.02469 0.99398 0.0
C727 C 0.68804 0.05647 1.01278 0.0
C728 C 0.65761 0.06759 0.02894 0.0
C729 C 0.62118 0.04781 0.02594 0.0
C730 C 0.61617 0.01569 1.00654 0.0
H731 H 0.77193 0.19966 0.45764 0.0
H732 H 0.83015 0.27203 0.37196 0.0
H733 H 0.88528 0.24161 0.38367 0.0
H734 H 0.85009 0.19698 0.51311 0.0
H735 H 0.83464 0.14696 0.5289 0.0
H736 H 0.80167 0.17743 0.51566 0.0
H737 H 0.77502 0.12865 0.47404 0.0
H738 H 0.80805 0.09821 0.4869 0.0
H739 H 0.80516 0.11531 0.44268 0.0
H740 H 0.93321 0.20129 0.40417 0.0
H741 H 0.96852 0.15201 0.42967 0.0
H742 H 0.87681 0.1047 0.49956 0.0
C743 C 0.79662 0.20971 0.44188 0.0
C744 C 0.79727 0.23852 0.4143 0.0
C745 C 0.82948 0.25015 0.39341 0.0
C746 C 0.86081 0.23314 0.39992 0.0
C747 C 0.85913 0.20438 0.42718 0.0
C748 C 0.82776 0.1927 0.44771 0.0
C749 C 0.83184 0.15932 0.47374 0.0
C750 C 0.82943 0.17088 0.51 0.0
C751 C 0.80333 0.12325 0.46904 0.0
C752 C 0.87025 0.15364 0.46444 0.0
C753 C 0.88585 0.18021 0.43789 0.0
C754 C 0.92127 0.18038 0.42499 0.0
C755 C 0.9411 0.15246 0.43957 0.0
C756 C 0.92511 0.12454 0.46622 0.0
C757 C 0.88938 0.1254 0.47883 0.0
H758 H 0.25565 0.70116 0.19256 0.0
H759 H 0.33507 0.72749 0.108 0.0
H760 H 0.28476 0.7175 0.06771 0.0
H761 H 0.19457 0.62668 0.15747 0.0
H762 H 0.15349 0.64054 0.17405 0.0
H763 H 0.19587 0.65009 0.1959 0.0
H764 H 0.1903 0.72278 0.19245 0.0
H765 H 0.14807 0.71344 0.17024 0.0
H766 H 0.18571 0.74913 0.15165 0.0
H767 H 0.22604 0.70074 0.03691 0.0
H768 H 0.16291 0.67973 1.01803 0.0
H769 H 0.12185 0.66873 0.12249 0.0
C770 C 0.26232 0.70467 0.16556 0.0
C771 C 0.29909 0.71498 0.15326 0.0
C772 C 0.30694 0.71975 0.1178 0.0
C773 C 0.27861 0.71415 0.09477 0.0
C774 C 0.24257 0.70427 0.10765 0.0
C775 C 0.23432 0.69977 0.14219 0.0
C776 C 0.19331 0.68901 0.14937 0.0
C777 C 0.18376 0.64922 0.17043 0.0
C778 C 0.17848 0.72048 0.16697 0.0
C779 C 0.17988 0.68761 0.11354 0.0
C780 C 0.20868 0.69637 0.0898 0.0
C781 C 0.20317 0.69441 0.05521 0.0
C782 C 0.1673 0.68254 0.0447 0.0
C783 C 0.13749 0.67333 0.06869 0.0
C784 C 0.14395 0.6766 0.10343 0.0
H785 H 0.25661 0.4033 0.70503 0.0
H786 H 0.19066 0.46687 0.63796 0.0
H787 H 0.24703 0.51103 0.61509 0.0
H788 H 0.32875 0.48685 0.72058 0.0
H789 H 0.36438 0.45758 0.71994 0.0
H790 H 0.31849 0.43586 0.73493 0.0
H791 H 0.31706 0.38586 0.69116 0.0
H792 H 0.36261 0.40763 0.67574 0.0
H793 H 0.32543 0.40275 0.64671 0.0
H794 H 0.31139 0.54355 0.59544 0.0
H795 H 0.37788 0.55998 0.57963 0.0
H796 H 0.40044 0.47331 0.65871 0.0
C797 C 0.2539 0.42743 0.68648 0.0
C798 C 0.21938 0.43222 0.67362 0.0
C799 C 0.21698 0.46308 0.64829 0.0
C800 C 0.24876 0.4883 0.63529 0.0
C801 C 0.2826 0.48211 0.6479 0.0
C802 C 0.28527 0.45247 0.67306 0.0
C803 C 0.32486 0.44905 0.67968 0.0
C804 C 0.33469 0.45788 0.71594 0.0
C805 C 0.33294 0.40896 0.6729 0.0
C806 C 0.34409 0.48051 0.65356 0.0
C807 C 0.31942 0.49985 0.63589 0.0
C808 C 0.33096 0.52892 0.60942 0.0
C809 C 0.36866 0.53809 0.60062 0.0
C810 C 0.39405 0.51772 0.61787 0.0
C811 C 0.38152 0.48906 0.64494 0.0
H812 H 0.91711 0.8557 0.94649 0.0
H813 H 0.94202 0.83057 0.84434 0.0
H814 H 0.97193 0.77718 0.86789 0.0
H815 H 1.00093 0.83229 0.98456 0.0
H816 H 0.97889 0.80911 0.02407 0.0
H817 H 0.95953 0.84665 0.99989 0.0
H818 H 0.89758 0.80025 0.99878 0.0
H819 H 0.91673 0.76261 0.02303 0.0
H820 H 0.89653 0.75402 0.98281 0.0
H821 H 1.00033 0.72668 0.90113 0.0
H822 H 1.02302 0.67994 0.94221 0.0
H823 H 0.97915 0.73208 0.02523 0.0
C824 C 0.92877 0.83896 0.92902 0.0
C825 C 0.92771 0.84887 0.89311 0.0
C826 C 0.9433 0.82541 0.87167 0.0
C827 C 0.9602 0.79439 0.88489 0.0
C828 C 0.96134 0.786 0.91998 0.0
C829 C 0.94584 0.80725 0.94194 0.0
C830 C 0.95069 0.79096 0.97876 0.0
C831 C 0.97389 0.82158 0.99796 0.0
C832 C 0.91314 0.77608 0.99692 0.0
C833 C 0.97135 0.75747 0.97386 0.0
C834 C 0.97716 0.75556 0.93957 0.0
C835 C 0.9958 0.72786 0.92804 0.0
C836 C 1.00874 0.70126 0.95185 0.0
C837 C 1.00317 0.70171 0.98738 0.0
C838 C 0.98403 0.73056 0.99841 0.0
H839 H 0.40855 0.804 0.13073 0.0
H840 H 0.42307 0.80476 0.23932 0.0
H841 H 0.46346 0.86832 0.22873 0.0
H842 H 0.49944 0.85585 0.10144 0.0
H843 H 0.48135 0.88257 0.06616 0.0
H844 H 0.45821 0.83473 0.08193 0.0
H845 H 0.39784 0.86163 0.09057 0.0
H846 H 0.42078 0.90948 0.07492 0.0
H847 H 0.39781 0.90102 0.1162 0.0
H848 H 0.49887 0.9341 0.20638 0.0
H849 H 0.52364 0.99754 0.17451 0.0
H850 H 0.48084 0.95509 0.08158 0.0
C851 C 0.42017 0.81733 0.15241 0.0
C852 C 0.4125 0.79918 0.1859 0.0
C853 C 0.42895 0.81763 0.21336 0.0
C854 C 0.45181 0.85387 0.20763 0.0
C855 C 0.45784 0.87133 0.17433 0.0
C856 C 0.44237 0.85366 0.14722 0.0
C857 C 0.45035 0.87973 0.11422 0.0
C858 C 0.47374 0.86217 0.08948 0.0
C859 C 0.41457 0.88848 0.09805 0.0
C860 C 0.47207 0.91525 0.12707 0.0
C861 C 0.47676 0.90965 0.16169 0.0
C862 C 0.4955 0.93874 0.17925 0.0
C863 C 0.50947 0.97461 0.16096 0.0
C864 C 0.50397 0.98116 0.12567 0.0
C865 C 0.4853 0.95093 0.10859 0.0
H866 H 0.17279 0.30618 0.63235 0.0
H867 H 0.06787 0.34226 0.64784 0.0
H868 H 0.03815 0.29166 0.61333 0.0
H869 H 0.15741 0.27262 0.54544 0.0
H870 H 0.18041 0.23196 0.55646 0.0
H871 H 0.19438 0.27665 0.57474 0.0
H872 H 0.18443 0.23918 0.63495 0.0
H873 H 0.1698 0.19461 0.61702 0.0
H874 H 0.14014 0.21057 0.64725 0.0
H875 H 1.01911 0.23201 0.58391 0.0
H876 H 1.01159 0.16695 0.56405 0.0
H877 H 0.12872 0.16762 0.57251 0.0
C878 C 0.1439 0.30444 0.627 0.0
C879 C 0.12257 0.32846 0.64152 0.0
C880 C 0.08452 0.3245 0.63589 0.0
C881 C 0.06757 0.29593 0.61643 0.0
C882 C 0.08918 0.27158 0.60332 0.0
C883 C 0.12659 0.27564 0.60834 0.0
C884 C 0.14269 0.24246 0.59634 0.0
C885 C 0.17035 0.25679 0.56646 0.0
C886 C 0.16027 0.22042 0.62564 0.0
C887 C 0.10834 0.21831 0.58496 0.0
C888 C 0.0779 0.23596 0.58833 0.0
C889 C 0.04282 0.21814 0.58077 0.0
C890 C 0.03879 0.18121 0.56966 0.0
C891 C 0.06957 0.16235 0.56705 0.0
C892 C 0.10472 0.18137 0.57447 0.0
H893 H 0.59412 0.35973 0.49655 0.0
H894 H 0.70391 0.40537 0.45472 0.0
H895 H 0.69219 0.47197 0.45772 0.0
H896 H 0.54818 0.43822 0.45635 0.0
H897 H 0.51911 0.43716 0.49357 0.0
H898 H 0.53429 0.39353 0.48335 0.0
H899 H 0.56149 0.38492 0.5431 0.0
H900 H 0.54642 0.42838 0.55344 0.0
H901 H 0.59416 0.42375 0.55681 0.0
H902 H 0.67143 0.53291 0.47256 0.0
H903 H 0.64303 0.58286 0.49755 0.0
H904 H 0.5469 0.49674 0.52906 0.0
C905 C 0.61549 0.38376 0.48754 0.0
C906 C 0.64984 0.37746 0.47529 0.0
C907 C 0.67716 0.4096 0.4637 0.0
C908 C 0.67078 0.44751 0.46537 0.0
C909 C 0.63684 0.4527 0.47834 0.0
C910 C 0.60955 0.42166 0.48896 0.0
C911 C 0.57666 0.43471 0.50447 0.0
C912 C 0.54254 0.42535 0.48315 0.0
C913 C 0.56929 0.4169 0.54165 0.0
C914 C 0.59024 0.4778 0.5021 0.0
C915 C 0.6248 0.48778 0.48659 0.0
C916 C 0.64405 0.52558 0.48413 0.0
C917 C 0.62775 0.55374 0.49841 0.0
C918 C 0.59268 0.54374 0.51504 0.0
C919 C 0.57352 0.50546 0.51612 0.0
loop_
_geom_bond_atom_site_label_1
_geom_bond_atom_site_label_2
_geom_bond_distance
_geom_bond_site_symmetry_2
_ccdc_geom_bond_type
H0 C1 0.949 . S
C1 H0 0.949 . S
C1 C2 1.395 . S
C1 C3 1.391 . S
C2 C1 1.395 . S
C2 C5 1.390 . S
C3 C1 1.391 . S
C3 C7 1.387 . S
C3 C8 1.491 . S
H4 C5 0.950 . S
C5 C2 1.390 . S
C5 H4 0.950 . S
C5 C6 1.378 . S
C6 C5 1.378 . S
C6 C7 1.409 . S
C7 C3 1.387 . S
C7 C6 1.409 . S
C7 H9 0.951 . S
C8 C3 1.491 . S
C8 C10 1.382 . S
C8 C12 1.404 . S
H9 C7 0.951 . S
C10 C8 1.382 . S
C10 C11 1.390 . S
C10 H15 0.949 . S
C11 C10 1.390 . S
C11 C16 1.399 . S
C12 C8 1.404 . S
C12 H13 0.950 . S
C12 C14 1.375 . S
H13 C12 0.950 . S
C14 C12 1.375 . S
C14 C16 1.382 . S
C14 H18 0.950 . S
H15 C10 0.949 . S
C16 C11 1.399 . S
C16 C14 1.382 . S
C16 H17 0.952 . S
H17 C16 0.952 . S
H18 C14 0.950 . S
H19 C20 0.949 . S
C20 H19 0.949 . S
C20 C21 1.395 . S
C20 C22 1.391 . S
C21 C20 1.395 . S
C21 C24 1.390 . S
C22 C20 1.391 . S
C22 C26 1.387 . S
C22 C27 1.491 . S
H23 C24 0.950 . S
C24 C21 1.390 . S
C24 H23 0.950 . S
C24 C25 1.378 . S
C25 C24 1.378 . S
C25 C26 1.409 . S
C26 C22 1.387 . S
C26 C25 1.409 . S
C26 H28 0.951 . S
C27 C22 1.491 . S
C27 C29 1.382 . S
C27 C31 1.404 . S
H28 C26 0.951 . S
C29 C27 1.382 . S
C29 C30 1.390 . S
C29 H34 0.949 . S
C30 C29 1.390 . S
C30 C35 1.399 . S
C31 C27 1.404 . S
C31 H32 0.950 . S
C31 C33 1.375 . S
H32 C31 0.950 . S
C33 C31 1.375 . S
C33 C35 1.382 . S
C33 H37 0.950 . S
H34 C29 0.949 . S
C35 C30 1.399 . S
C35 C33 1.382 . S
C35 H36 0.952 . S
H36 C35 0.952 . S
H37 C33 0.950 . S
H38 C39 0.949 . S
C39 H38 0.949 . S
C39 C40 1.395 . S
C39 C41 1.391 . S
C40 C39 1.395 . S
C40 C43 1.390 . S
C41 C39 1.391 . S
C41 C45 1.387 . S
C41 C46 1.491 . S
H42 C43 0.950 . S
C43 C40 1.390 . S
C43 H42 0.950 . S
C43 C44 1.378 . S
C44 C43 1.378 . S
C44 C45 1.409 . S
C45 C41 1.387 . S
C45 C44 1.409 . S
C45 H47 0.951 . S
C46 C41 1.491 . S
C46 C48 1.382 . S
C46 C50 1.404 . S
H47 C45 0.951 . S
C48 C46 1.382 . S
C48 C49 1.390 . S
C48 H53 0.949 . S
C49 C48 1.390 . S
C49 C54 1.399 . S
C50 C46 1.404 . S
C50 H51 0.950 . S
C50 C52 1.375 . S
H51 C50 0.950 . S
C52 C50 1.375 . S
C52 C54 1.382 . S
C52 H56 0.950 . S
H53 C48 0.949 . S
C54 C49 1.399 . S
C54 C52 1.382 . S
C54 H55 0.952 . S
H55 C54 0.952 . S
H56 C52 0.950 . S
H57 C58 0.949 . S
C58 H57 0.949 . S
C58 C59 1.395 . S
C58 C60 1.391 . S
C59 C58 1.395 . S
C59 C62 1.390 . S
C60 C58 1.391 . S
C60 C64 1.387 . S
C60 C65 1.491 . S
H61 C62 0.950 . S
C62 C59 1.390 . S
C62 H61 0.950 . S
C62 C63 1.378 . S
C63 C62 1.378 . S
C63 C64 1.409 . S
C64 C60 1.387 . S
C64 C63 1.409 . S
C64 H66 0.951 . S
C65 C60 1.491 . S
C65 C67 1.382 . S
C65 C69 1.404 . S
H66 C64 0.951 . S
C67 C65 1.382 . S
C67 C68 1.390 . S
C67 H72 0.949 . S
C68 C67 1.390 . S
C68 C73 1.399 . S
C69 C65 1.404 . S
C69 H70 0.950 . S
C69 C71 1.375 . S
H70 C69 0.950 . S
C71 C69 1.375 . S
C71 C73 1.382 . S
C71 H75 0.950 . S
H72 C67 0.949 . S
C73 C68 1.399 . S
C73 C71 1.382 . S
C73 H74 0.952 . S
H74 C73 0.952 . S
H75 C71 0.950 . S
H76 C77 0.949 . S
C77 H76 0.949 . S
C77 C78 1.395 . S
C77 C79 1.391 . S
C78 C77 1.395 . S
C78 C81 1.390 . S
C79 C77 1.391 . S
C79 C83 1.387 . S
C79 C84 1.491 . S
H80 C81 0.950 . S
C81 C78 1.390 . S
C81 H80 0.950 . S
C81 C82 1.378 . S
C82 C81 1.378 . S
C82 C83 1.409 . S
C83 C79 1.387 . S
C83 C82 1.409 . S
C83 H85 0.951 . S
C84 C79 1.491 . S
C84 C86 1.382 . S
C84 C88 1.404 . S
H85 C83 0.951 . S
C86 C84 1.382 . S
C86 C87 1.390 . S
C86 H91 0.949 . S
C87 C86 1.390 . S
C87 C92 1.399 . S
C88 C84 1.404 . S
C88 H89 0.950 . S
C88 C90 1.375 . S
H89 C88 0.950 . S
C90 C88 1.375 . S
C90 C92 1.382 . S
C90 H94 0.950 . S
H91 C86 0.949 . S
C92 C87 1.399 . S
C92 C90 1.382 . S
C92 H93 0.952 . S
H93 C92 0.952 . S
H94 C90 0.950 . S
H95 C96 0.949 . S
C96 H95 0.949 . S
C96 C97 1.395 . S
C96 C98 1.391 . S
C97 C96 1.395 . S
C97 C100 1.390 . S
C98 C96 1.391 . S
C98 C102 1.387 . S
C98 C103 1.491 . S
H99 C100 0.950 . S
C100 C97 1.390 . S
C100 H99 0.950 . S
C100 C101 1.378 . S
C101 C100 1.378 . S
C101 C102 1.409 . S
C102 C98 1.387 . S
C102 C101 1.409 . S
C102 H104 0.951 . S
C103 C98 1.491 . S
C103 C105 1.382 . S
C103 C107 1.404 . S
H104 C102 0.951 . S
C105 C103 1.382 . S
C105 C106 1.390 . S
C105 H110 0.949 . S
C106 C105 1.390 . S
C106 C111 1.399 . S
C107 C103 1.404 . S
C107 H108 0.950 . S
C107 C109 1.375 . S
H108 C107 0.950 . S
C109 C107 1.375 . S
C109 C111 1.382 . S
C109 H113 0.950 . S
H110 C105 0.949 . S
C111 C106 1.399 . S
C111 C109 1.382 . S
C111 H112 0.952 . S
H112 C111 0.952 . S
H113 C109 0.950 . S
H114 C115 0.949 . S
C115 H114 0.949 . S
C115 C116 1.395 . S
C115 C117 1.391 . S
C116 C115 1.395 . S
C116 C119 1.390 . S
C117 C115 1.391 . S
C117 C121 1.387 . S
C117 C122 1.491 . S
H118 C119 0.950 . S
C119 C116 1.390 . S
C119 H118 0.950 . S
C119 C120 1.378 . S
C120 C119 1.378 . S
C120 C121 1.409 . S
C121 C117 1.387 . S
C121 C120 1.409 . S
C121 H123 0.951 . S
C122 C117 1.491 . S
C122 C124 1.382 . S
C122 C126 1.404 . S
H123 C121 0.951 . S
C124 C122 1.382 . S
C124 C125 1.390 . S
C124 H129 0.949 . S
C125 C124 1.390 . S
C125 C130 1.399 . S
C126 C122 1.404 . S
C126 H127 0.950 . S
C126 C128 1.375 . S
H127 C126 0.950 . S
C128 C126 1.375 . S
C128 C130 1.382 . S
C128 H132 0.950 . S
H129 C124 0.949 . S
C130 C125 1.399 . S
C130 C128 1.382 . S
C130 H131 0.952 . S
H131 C130 0.952 . S
H132 C128 0.950 . S
H133 C134 0.949 . S
C134 H133 0.949 . S
C134 C135 1.395 . S
C134 C136 1.391 . S
C135 C134 1.395 . S
C135 C138 1.390 . S
C136 C134 1.391 . S
C136 C140 1.387 . S
C136 C141 1.491 . S
H137 C138 0.950 . S
C138 C135 1.390 . S
C138 H137 0.950 . S
C138 C139 1.378 . S
C139 C138 1.378 . S
C139 C140 1.409 . S
C140 C136 1.387 . S
C140 C139 1.409 . S
C140 H142 0.951 . S
C141 C136 1.491 . S
C141 C143 1.382 . S
C141 C145 1.404 . S
H142 C140 0.951 . S
C143 C141 1.382 . S
C143 C144 1.390 . S
C143 H148 0.949 . S
C144 C143 1.390 . S
C144 C149 1.399 . S
C145 C141 1.404 . S
C145 H146 0.950 . S
C145 C147 1.375 . S
H146 C145 0.950 . S
C147 C145 1.375 . S
C147 C149 1.382 . S
C147 H151 0.950 . S
H148 C143 0.949 . S
C149 C144 1.399 . S
C149 C147 1.382 . S
C149 H150 0.952 . S
H150 C149 0.952 . S
H151 C147 0.950 . S
Co152 N157 2.057 . S
Co152 O169 2.016 1_655 S
Co152 O172 2.062 1_655 S
Co152 O176 2.117 . S
Co152 O177 2.020 . S
C153 O173 1.259 1_655 S
C153 O176 1.258 1_565 S
Co154 N163 2.057 . S
Co154 O170 2.117 . S
Co154 O171 2.020 . S
Co154 O173 2.021 1_545 S
Co154 O178 2.062 . S
C155 N157 1.316 . S
C155 N158 1.347 . S
C155 H160 0.931 . S
C156 N157 1.375 . S
C156 C159 1.350 . S
C156 H161 0.930 . S
N157 Co152 2.057 . S
N157 C155 1.316 . S
N157 C156 1.375 . S
N158 C155 1.347 . S
N158 C159 1.373 . S
C159 C156 1.350 . S
C159 N158 1.373 . S
C159 H180 0.931 . S
H160 C155 0.931 . S
H161 C156 0.930 . S
C162 O169 1.288 . S
C162 O170 1.258 . S
N163 Co154 2.057 . S
N163 C164 1.316 . S
N163 C165 1.375 . S
C164 N163 1.316 . S
C164 N166 1.347 . S
C164 H175 0.931 1_545 S
C165 N163 1.375 . S
C165 C167 1.350 . S
C165 H174 0.930 . S
N166 C164 1.347 . S
N166 C167 1.373 . S
C167 C165 1.350 . S
C167 N166 1.373 . S
C167 H181 0.931 . S
C168 O171 1.256 . S
C168 O172 1.255 . S
O169 Co152 2.016 1_455 S
O169 C162 1.288 . S
O170 Co154 2.117 . S
O170 C162 1.258 . S
O171 Co154 2.020 . S
O171 C168 1.256 . S
O172 Co152 2.062 1_455 S
O172 C168 1.255 . S
O173 C153 1.259 1_455 S
O173 Co154 2.021 1_565 S
H174 C165 0.930 . S
H175 C164 0.931 1_565 S
O176 Co152 2.117 . S
O176 C153 1.258 1_545 S
O177 Co152 2.020 . S
O177 C179 1.256 . S
O178 Co154 2.062 . S
O178 C179 1.255 1_455 S
C179 O177 1.256 . S
C179 O178 1.255 1_655 S
H180 C159 0.931 . S
H181 C167 0.931 . S
Co182 N187 2.057 1_554 S
Co182 O199 2.021 . S
Co182 O202 2.062 . S
Co182 O206 2.117 1_545 S
Co182 O207 2.020 . S
C183 O203 1.259 . S
C183 O206 1.258 . S
Co184 N193 2.057 . S
Co184 O200 2.117 . S
Co184 O201 2.020 . S
Co184 O203 2.021 1_545 S
Co184 O208 2.062 . S
C185 N187 1.316 . S
C185 N188 1.347 1_545 S
C185 H190 0.931 . S
C186 N187 1.375 1_565 S
C186 C189 1.350 . S
C186 H191 0.930 1_556 S
N187 Co182 2.057 1_556 S
N187 C185 1.316 . S
N187 C186 1.375 1_545 S
N188 C185 1.347 1_565 S
N188 C189 1.373 . S
C189 C186 1.350 . S
C189 N188 1.373 . S
C189 H210 0.931 . S
H190 C185 0.931 . S
H191 C186 0.930 1_554 S
C192 O199 1.259 . S
C192 O200 1.258 . S
N193 Co184 2.057 . S
N193 C194 1.316 . S
N193 C195 1.375 . S
C194 N193 1.316 . S
C194 N196 1.347 . S
C194 H205 0.931 . S
C195 N193 1.375 . S
C195 C197 1.350 . S
C195 H204 0.930 . S
N196 C194 1.347 . S
N196 C197 1.373 . S
C197 C195 1.350 . S
C197 N196 1.373 . S
C197 H211 0.931 . S
C198 O201 1.256 . S
C198 O202 1.255 . S
O199 Co182 2.021 . S
O199 C192 1.259 . S
O200 Co184 2.117 . S
O200 C192 1.258 . S
O201 Co184 2.020 . S
O201 C198 1.256 . S
O202 Co182 2.062 . S
O202 C198 1.255 . S
O203 C183 1.259 . S
O203 Co184 2.021 1_565 S
H204 C195 0.930 . S
H205 C194 0.931 . S
O206 Co182 2.117 1_565 S
O206 C183 1.258 . S
O207 Co182 2.020 . S
O207 C209 1.256 . S
O208 Co184 2.062 . S
O208 C209 1.255 . S
C209 O207 1.256 . S
C209 O208 1.255 . S
H210 C189 0.931 . S
H211 C197 0.931 . S
Co212 N217 2.057 . S
Co212 O229 2.021 . S
Co212 O232 2.062 . S
Co212 O236 2.117 . S
Co212 O237 2.020 . S
C213 O233 1.259 . S
C213 O236 1.258 . S
Co214 N223 2.057 . S
Co214 O230 2.117 . S
Co214 O231 2.020 . S
Co214 O233 2.021 . S
Co214 O238 2.062 . S
C215 N217 1.316 . S
C215 N218 1.347 . S
C215 H220 0.931 . S
C216 N217 1.375 . S
C216 C219 1.350 . S
C216 H221 0.930 . S
N217 Co212 2.057 . S
N217 C215 1.316 . S
N217 C216 1.375 . S
N218 C215 1.347 . S
N218 C219 1.373 . S
C219 C216 1.350 . S
C219 N218 1.373 . S
C219 H240 0.931 . S
H220 C215 0.931 . S
H221 C216 0.930 . S
C222 O229 1.259 . S
C222 O230 1.258 . S
N223 Co214 2.057 . S
N223 C224 1.316 . S
N223 C225 1.375 . S
C224 N223 1.316 . S
C224 N226 1.347 . S
C224 H235 0.931 . S
C225 N223 1.375 . S
C225 C227 1.350 . S
C225 H234 0.930 . S
N226 C224 1.347 . S
N226 C227 1.373 . S
C227 C225 1.350 . S
C227 N226 1.373 . S
C227 H241 0.931 . S
C228 O231 1.256 . S
C228 O232 1.255 . S
O229 Co212 2.021 . S
O229 C222 1.259 . S
O230 Co214 2.117 . S
O230 C222 1.258 . S
O231 Co214 2.020 . S
O231 C228 1.256 . S
O232 Co212 2.062 . S
O232 C228 1.255 . S
O233 C213 1.259 . S
O233 Co214 2.021 . S
H234 C225 0.930 . S
H235 C224 0.931 . S
O236 Co212 2.117 . S
O236 C213 1.258 . S
O237 Co212 2.020 . S
O237 C239 1.256 . S
O238 Co214 2.062 . S
O238 C239 1.255 . S
C239 O237 1.256 . S
C239 O238 1.255 . S
H240 C219 0.931 . S
H241 C227 0.931 . S
Co242 N247 2.057 . S
Co242 O259 2.021 1_556 S
Co242 O262 2.062 1_556 S
Co242 O266 2.117 1_455 S
Co242 O267 2.020 . S
C243 O263 1.259 . S
C243 O266 1.258 1_554 S
Co244 N253 2.057 . S
Co244 O260 2.117 . S
Co244 O261 2.020 . S
Co244 O263 2.021 1_455 S
Co244 O268 2.062 . S
C245 N247 1.316 . S
C245 N248 1.347 . S
C245 H250 0.931 . S
C246 N247 1.375 . S
C246 C249 1.350 . S
C246 H251 0.930 1_455 S
N247 Co242 2.057 . S
N247 C245 1.316 . S
N247 C246 1.375 . S
N248 C245 1.347 . S
N248 C249 1.373 . S
C249 C246 1.350 . S
C249 N248 1.373 . S
C249 H270 0.931 . S
H250 C245 0.931 . S
H251 C246 0.930 1_655 S
C252 O259 1.259 . S
C252 O260 1.258 . S
N253 Co244 2.057 . S
N253 C254 1.316 1_455 S
N253 C255 1.375 . S
C254 N253 1.316 1_655 S
C254 N256 1.347 . S
C254 H265 0.931 . S
C255 N253 1.375 . S
C255 C257 1.350 . S
C255 H264 0.930 . S
N256 C254 1.347 . S
N256 C257 1.373 1_655 S
C257 C255 1.350 . S
C257 N256 1.373 1_455 S
C257 H271 0.931 . S
C258 O261 1.256 . S
C258 O262 1.255 . S
O259 Co242 2.021 1_554 S
O259 C252 1.259 . S
O260 Co244 2.117 . S
O260 C252 1.258 . S
O261 Co244 2.020 . S
O261 C258 1.256 . S
O262 Co242 2.062 1_554 S
O262 C258 1.255 . S
O263 C243 1.259 . S
O263 Co244 2.021 1_655 S
H264 C255 0.930 . S
H265 C254 0.931 . S
O266 Co242 2.117 1_655 S
O266 C243 1.258 1_556 S
O267 Co242 2.020 . S
O267 C269 1.256 1_556 S
O268 Co244 2.062 . S
O268 C269 1.255 . S
C269 O267 1.256 1_554 S
C269 O268 1.255 . S
H270 C249 0.931 . S
H271 C257 0.931 . S
H272 C284 0.930 . S
H273 C286 0.930 . S
H274 C287 0.930 . S
H275 C291 0.959 . S
H276 C291 0.959 . S
H277 C291 0.961 . S
H278 C292 0.960 . S
H279 C292 0.961 . S
H280 C292 0.959 . S
H281 C295 0.929 . S
H282 C296 0.931 . S
H283 C298 0.930 . S
C284 H272 0.930 . S
C284 C285 1.399 . S
C284 C289 1.399 . S
C285 C284 1.399 . S
C285 C286 1.376 . S
C286 H273 0.930 . S
C286 C285 1.376 . S
C286 C287 1.388 . S
C287 H274 0.930 . S
C287 C286 1.388 . S
C287 C288 1.390 . S
C288 C287 1.390 . S
C288 C289 1.394 . S
C288 C294 1.465 . S
C289 C284 1.399 . S
C289 C288 1.394 . S
C289 C290 1.516 . S
C290 C289 1.516 . S
C290 C291 1.502 . S
C290 C292 1.561 . S
C290 C293 1.526 . S
C291 H275 0.959 . S
C291 H276 0.959 . S
C291 H277 0.961 . S
C291 C290 1.502 . S
C292 H278 0.960 . S
C292 H279 0.961 . S
C292 H280 0.959 . S
C292 C290 1.561 . S
C293 C290 1.526 . S
C293 C294 1.396 . S
C293 C298 1.390 . S
C294 C288 1.465 . S
C294 C293 1.396 . S
C294 C295 1.399 . S
C295 H281 0.929 . S
C295 C294 1.399 . S
C295 C296 1.385 . S
C296 H282 0.931 . S
C296 C295 1.385 . S
C296 C297 1.389 . S
C297 C296 1.389 . S
C297 C298 1.387 . S
C298 H283 0.930 . S
C298 C293 1.390 . S
C298 C297 1.387 . S
H299 C311 0.930 . S
H300 C313 0.930 1_545 S
H301 C314 0.930 . S
H302 C318 0.959 . S
H303 C318 0.959 . S
H304 C318 0.961 . S
H305 C319 0.960 . S
H306 C319 0.961 . S
H307 C319 0.959 . S
H308 C322 0.929 . S
H309 C323 0.931 . S
H310 C325 0.930 . S
C311 H299 0.930 . S
C311 C312 1.399 . S
C311 C316 1.399 . S
C312 C311 1.399 . S
C312 C313 1.376 . S
C313 H300 0.930 1_565 S
C313 C312 1.376 . S
C313 C314 1.388 1_565 S
C314 H301 0.930 . S
C314 C313 1.388 1_545 S
C314 C315 1.390 1_545 S
C315 C314 1.390 1_565 S
C315 C316 1.394 . S
C315 C321 1.465 . S
C316 C311 1.399 . S
C316 C315 1.394 . S
C316 C317 1.516 . S
C317 C316 1.516 . S
C317 C318 1.502 . S
C317 C319 1.561 . S
C317 C320 1.526 . S
C318 H302 0.959 . S
C318 H303 0.959 . S
C318 H304 0.961 . S
C318 C317 1.502 . S
C319 H305 0.960 . S
C319 H306 0.961 . S
C319 H307 0.959 . S
C319 C317 1.561 . S
C320 C317 1.526 . S
C320 C321 1.396 . S
C320 C325 1.390 . S
C321 C315 1.465 . S
C321 C320 1.396 . S
C321 C322 1.399 1_565 S
C322 H308 0.929 . S
C322 C321 1.399 1_545 S
C322 C323 1.385 . S
C323 H309 0.931 . S
C323 C322 1.385 . S
C323 C324 1.389 1_545 S
C324 C323 1.389 1_565 S
C324 C325 1.387 . S
C325 H310 0.930 . S
C325 C320 1.390 . S
C325 C324 1.387 . S
H326 C338 0.930 . S
H327 C340 0.930 . S
H328 C341 0.930 . S
H329 C345 0.959 . S
H330 C345 0.959 . S
H331 C345 0.961 . S
H332 C346 0.960 . S
H333 C346 0.961 . S
H334 C346 0.959 . S
H335 C349 0.929 . S
H336 C350 0.931 . S
H337 C352 0.930 . S
C338 H326 0.930 . S
C338 C339 1.399 . S
C338 C343 1.399 . S
C339 C338 1.399 . S
C339 C340 1.376 . S
C340 H327 0.930 . S
C340 C339 1.376 . S
C340 C341 1.388 . S
C341 H328 0.930 . S
C341 C340 1.388 . S
C341 C342 1.390 . S
C342 C341 1.390 . S
C342 C343 1.394 . S
C342 C348 1.465 . S
C343 C338 1.399 . S
C343 C342 1.394 . S
C343 C344 1.516 . S
C344 C343 1.516 . S
C344 C345 1.502 . S
C344 C346 1.561 . S
C344 C347 1.526 . S
C345 H329 0.959 . S
C345 H330 0.959 . S
C345 H331 0.961 . S
C345 C344 1.502 . S
C346 H332 0.960 . S
C346 H333 0.961 . S
C346 H334 0.959 . S
C346 C344 1.561 . S
C347 C344 1.526 . S
C347 C348 1.396 . S
C347 C352 1.390 . S
C348 C342 1.465 . S
C348 C347 1.396 . S
C348 C349 1.399 . S
C349 H335 0.929 . S
C349 C348 1.399 . S
C349 C350 1.385 . S
C350 H336 0.931 . S
C350 C349 1.385 . S
C350 C351 1.389 . S
C351 C350 1.389 . S
C351 C352 1.387 . S
C352 H337 0.930 . S
C352 C347 1.390 . S
C352 C351 1.387 . S
H353 C365 0.930 . S
H354 C367 0.930 . S
H355 C368 0.930 . S
H356 C372 0.959 . S
H357 C372 0.959 . S
H358 C372 0.961 . S
H359 C373 0.960 . S
H360 C373 0.961 . S
H361 C373 0.959 . S
H362 C376 0.929 . S
H363 C377 0.931 . S
H364 C379 0.930 . S
C365 H353 0.930 . S
C365 C366 1.399 . S
C365 C370 1.399 . S
C366 C365 1.399 . S
C366 C367 1.376 . S
C367 H354 0.930 . S
C367 C366 1.376 . S
C367 C368 1.388 . S
C368 H355 0.930 . S
C368 C367 1.388 . S
C368 C369 1.390 . S
C369 C368 1.390 . S
C369 C370 1.394 . S
C369 C375 1.465 . S
C370 C365 1.399 . S
C370 C369 1.394 . S
C370 C371 1.516 . S
C371 C370 1.516 . S
C371 C372 1.502 1_655 S
C371 C373 1.561 . S
C371 C374 1.526 . S
C372 H356 0.959 . S
C372 H357 0.959 . S
C372 H358 0.961 . S
C372 C371 1.502 1_455 S
C373 H359 0.960 . S
C373 H360 0.961 . S
C373 H361 0.959 . S
C373 C371 1.561 . S
C374 C371 1.526 . S
C374 C375 1.396 . S
C374 C379 1.390 . S
C375 C369 1.465 . S
C375 C374 1.396 . S
C375 C376 1.399 . S
C376 H362 0.929 . S
C376 C375 1.399 . S
C376 C377 1.385 . S
C377 H363 0.931 . S
C377 C376 1.385 . S
C377 C378 1.389 . S
C378 C377 1.389 . S
C378 C379 1.387 . S
C379 H364 0.930 . S
C379 C374 1.390 . S
C379 C378 1.387 . S
H380 C392 0.930 . S
H381 C394 0.930 . S
H382 C395 0.930 . S
H383 C399 0.959 . S
H384 C399 0.959 . S
H385 C399 0.961 . S
H386 C400 0.960 . S
H387 C400 0.961 . S
H388 C400 0.959 . S
H389 C403 0.929 . S
H390 C404 0.931 . S
H391 C406 0.930 . S
C392 H380 0.930 . S
C392 C393 1.399 . S
C392 C397 1.399 . S
C393 C392 1.399 . S
C393 C394 1.376 . S
C394 H381 0.930 . S
C394 C393 1.376 . S
C394 C395 1.388 . S
C395 H382 0.930 . S
C395 C394 1.388 . S
C395 C396 1.390 . S
C396 C395 1.390 . S
C396 C397 1.394 . S
C396 C402 1.465 . S
C397 C392 1.399 . S
C397 C396 1.394 . S
C397 C398 1.516 . S
C398 C397 1.516 . S
C398 C399 1.502 . S
C398 C400 1.561 . S
C398 C401 1.526 . S
C399 H383 0.959 . S
C399 H384 0.959 . S
C399 H385 0.961 . S
C399 C398 1.502 . S
C400 H386 0.960 . S
C400 H387 0.961 . S
C400 H388 0.959 . S
C400 C398 1.561 . S
C401 C398 1.526 . S
C401 C402 1.396 . S
C401 C406 1.390 . S
C402 C396 1.465 . S
C402 C401 1.396 . S
C402 C403 1.399 . S
C403 H389 0.929 . S
C403 C402 1.399 . S
C403 C404 1.385 . S
C404 H390 0.931 . S
C404 C403 1.385 . S
C404 C405 1.389 . S
C405 C404 1.389 . S
C405 C406 1.387 . S
C406 H391 0.930 . S
C406 C401 1.390 . S
C406 C405 1.387 . S
H407 C419 0.930 . S
H408 C421 0.930 . S
H409 C422 0.930 . S
H410 C426 0.959 1_565 S
H411 C426 0.959 . S
H412 C426 0.961 . S
H413 C427 0.960 . S
H414 C427 0.961 . S
H415 C427 0.959 . S
H416 C430 0.929 . S
H417 C431 0.931 . S
H418 C433 0.930 . S
C419 H407 0.930 . S
C419 C420 1.399 1_545 S
C419 C424 1.399 . S
C420 C419 1.399 1_565 S
C420 C421 1.376 . S
C421 H408 0.930 . S
C421 C420 1.376 . S
C421 C422 1.388 . S
C422 H409 0.930 . S
C422 C421 1.388 . S
C422 C423 1.390 . S
C423 C422 1.390 . S
C423 C424 1.394 1_565 S
C423 C429 1.465 . S
C424 C419 1.399 . S
C424 C423 1.394 1_545 S
C424 C425 1.516 . S
C425 C424 1.516 . S
C425 C426 1.502 . S
C425 C427 1.561 . S
C425 C428 1.526 . S
C426 H410 0.959 1_545 S
C426 H411 0.959 . S
C426 H412 0.961 . S
C426 C425 1.502 . S
C427 H413 0.960 . S
C427 H414 0.961 . S
C427 H415 0.959 . S
C427 C425 1.561 . S
C428 C425 1.526 . S
C428 C429 1.396 1_545 S
C428 C433 1.390 . S
C429 C423 1.465 . S
C429 C428 1.396 1_565 S
C429 C430 1.399 . S
C430 H416 0.929 . S
C430 C429 1.399 . S
C430 C431 1.385 . S
C431 H417 0.931 . S
C431 C430 1.385 . S
C431 C432 1.389 1_565 S
C432 C431 1.389 1_545 S
C432 C433 1.387 . S
C433 H418 0.930 . S
C433 C428 1.390 . S
C433 C432 1.387 . S
H434 C446 0.930 . S
H435 C448 0.947 . S
H436 C449 0.930 . S
H437 C453 0.959 . S
H438 C453 0.959 . S
H439 C453 0.961 . S
H440 C454 0.960 . S
H441 C454 0.961 . S
H442 C454 0.959 . S
H443 C457 0.929 . S
H444 C458 0.931 . S
H445 C460 0.930 . S
C446 H434 0.930 . S
C446 C447 1.399 . S
C446 C451 1.399 . S
C447 C446 1.399 . S
C447 C448 1.350 1_556 S
C448 H435 0.947 . S
C448 C447 1.350 1_554 S
C448 C449 1.399 . S
C449 H436 0.930 . S
C449 C448 1.399 . S
C449 C450 1.390 1_554 S
C450 C449 1.390 1_556 S
C450 C451 1.394 . S
C450 C456 1.465 1_556 S
C451 C446 1.399 . S
C451 C450 1.394 . S
C451 C452 1.516 . S
C452 C451 1.516 . S
C452 C453 1.502 . S
C452 C454 1.561 . S
C452 C455 1.526 . S
C453 H437 0.959 . S
C453 H438 0.959 . S
C453 H439 0.961 . S
C453 C452 1.502 . S
C454 H440 0.960 . S
C454 H441 0.961 . S
C454 H442 0.959 . S
C454 C452 1.561 . S
C455 C452 1.526 . S
C455 C456 1.396 1_556 S
C455 C460 1.390 . S
C456 C450 1.465 1_554 S
C456 C455 1.396 1_554 S
C456 C457 1.399 . S
C457 H443 0.929 . S
C457 C456 1.399 . S
C457 C458 1.385 . S
C458 H444 0.931 . S
C458 C457 1.385 . S
C458 C459 1.389 . S
C459 C458 1.389 . S
C459 C460 1.387 1_554 S
C460 H445 0.930 . S
C460 C455 1.390 . S
C460 C459 1.387 1_556 S
H461 C473 0.930 . S
H462 C475 0.930 . S
H463 C476 0.930 . S
H464 C480 0.959 . S
H465 C480 0.959 . S
H466 C480 0.961 . S
H467 C481 0.960 . S
H468 C481 0.961 . S
H469 C481 0.959 . S
H470 C484 0.929 . S
H471 C485 0.931 . S
H472 C487 0.930 . S
C473 H461 0.930 . S
C473 C474 1.399 . S
C473 C478 1.399 . S
C474 C473 1.399 . S
C474 C475 1.376 . S
C475 H462 0.930 . S
C475 C474 1.376 . S
C475 C476 1.388 . S
C476 H463 0.930 . S
C476 C475 1.388 . S
C476 C477 1.390 . S
C477 C476 1.390 . S
C477 C478 1.394 . S
C477 C483 1.465 . S
C478 C473 1.399 . S
C478 C477 1.394 . S
C478 C479 1.516 . S
C479 C478 1.516 . S
C479 C480 1.502 . S
C479 C481 1.561 . S
C479 C482 1.526 . S
C480 H464 0.959 . S
C480 H465 0.959 . S
C480 H466 0.961 . S
C480 C479 1.502 . S
C481 H467 0.960 . S
C481 H468 0.961 . S
C481 H469 0.959 . S
C481 C479 1.561 . S
C482 C479 1.526 . S
C482 C483 1.396 . S
C482 C487 1.390 . S
C483 C477 1.465 . S
C483 C482 1.396 . S
C483 C484 1.399 . S
C484 H470 0.929 . S
C484 C483 1.399 . S
C484 C485 1.385 . S
C485 H471 0.931 . S
C485 C484 1.385 . S
C485 C486 1.389 . S
C486 C485 1.389 . S
C486 C487 1.387 . S
C487 H472 0.930 . S
C487 C482 1.390 . S
C487 C486 1.387 . S
H488 C500 0.930 . S
H489 C502 0.930 . S
H490 C503 0.930 . S
H491 C507 0.959 . S
H492 C507 0.959 1_556 S
H493 C507 0.961 . S
H494 C508 0.960 1_556 S
H495 C508 0.961 1_556 S
H496 C508 0.959 . S
H497 C511 0.929 . S
H498 C512 0.931 . S
H499 C514 0.930 . S
C500 H488 0.930 . S
C500 C501 1.399 . S
C500 C505 1.399 . S
C501 C500 1.399 . S
C501 C502 1.376 . S
C502 H489 0.930 . S
C502 C501 1.376 . S
C502 C503 1.388 . S
C503 H490 0.930 . S
C503 C502 1.388 . S
C503 C504 1.390 . S
C504 C503 1.390 . S
C504 C505 1.394 . S
C504 C510 1.465 . S
C505 C500 1.399 . S
C505 C504 1.394 . S
C505 C506 1.516 . S
C506 C505 1.516 . S
C506 C507 1.502 . S
C506 C508 1.561 . S
C506 C509 1.526 . S
C507 H491 0.959 . S
C507 H492 0.959 1_554 S
C507 H493 0.961 . S
C507 C506 1.502 . S
C508 H494 0.960 1_554 S
C508 H495 0.961 1_554 S
C508 H496 0.959 . S
C508 C506 1.561 . S
C509 C506 1.526 . S
C509 C510 1.396 . S
C509 C514 1.390 . S
C510 C504 1.465 . S
C510 C509 1.396 . S
C510 C511 1.399 . S
C511 H497 0.929 . S
C511 C510 1.399 . S
C511 C512 1.385 . S
C512 H498 0.931 . S
C512 C511 1.385 . S
C512 C513 1.389 . S
C513 C512 1.389 . S
C513 C514 1.387 . S
C514 H499 0.930 . S
C514 C509 1.390 . S
C514 C513 1.387 . S
H515 C527 0.930 . S
H516 C529 0.930 . S
H517 C530 0.930 . S
H518 C534 0.959 . S
H519 C534 0.959 . S
H520 C534 0.961 . S
H521 C535 0.960 . S
H522 C535 0.961 . S
H523 C535 0.959 . S
H524 C538 0.929 . S
H525 C539 0.931 . S
H526 C541 0.930 . S
C527 H515 0.930 . S
C527 C528 1.399 1_554 S
C527 C532 1.399 . S
C528 C527 1.399 1_556 S
C528 C529 1.376 . S
C529 H516 0.930 . S
C529 C528 1.376 . S
C529 C530 1.388 . S
C530 H517 0.930 . S
C530 C529 1.388 . S
C530 C531 1.390 . S
C531 C530 1.390 . S
C531 C532 1.394 1_556 S
C531 C537 1.470 . S
C532 C527 1.399 . S
C532 C531 1.394 1_554 S
C532 C533 1.516 . S
C533 C532 1.516 . S
C533 C534 1.502 . S
C533 C535 1.561 . S
C533 C536 1.526 . S
C534 H518 0.959 . S
C534 H519 0.959 . S
C534 H520 0.961 . S
C534 C533 1.502 . S
C535 H521 0.960 . S
C535 H522 0.961 . S
C535 H523 0.959 . S
C535 C533 1.561 . S
C536 C533 1.526 . S
C536 C537 1.377 1_554 S
C536 C541 1.390 . S
C537 C531 1.470 . S
C537 C536 1.377 1_556 S
C537 C538 1.410 . S
C538 H524 0.929 . S
C538 C537 1.410 . S
C538 C539 1.385 . S
C539 H525 0.931 . S
C539 C538 1.385 . S
C539 C540 1.389 1_556 S
C540 C539 1.389 1_554 S
C540 C541 1.387 . S
C541 H526 0.930 . S
C541 C536 1.390 . S
C541 C540 1.387 . S
H542 C554 0.930 . S
H543 C556 0.930 . S
H544 C557 0.930 . S
H545 C561 0.959 . S
H546 C561 0.959 . S
H547 C561 0.961 . S
H548 C562 0.960 . S
H549 C562 0.961 . S
H550 C562 0.959 . S
H551 C565 0.929 . S
H552 C566 0.931 . S
H553 C568 0.930 . S
C554 H542 0.930 . S
C554 C555 1.399 . S
C554 C559 1.399 . S
C555 C554 1.399 . S
C555 C556 1.376 . S
C556 H543 0.930 . S
C556 C555 1.376 . S
C556 C557 1.388 . S
C557 H544 0.930 . S
C557 C556 1.388 . S
C557 C558 1.390 . S
C558 C557 1.390 . S
C558 C559 1.394 . S
C558 C564 1.465 . S
C559 C554 1.399 . S
C559 C558 1.394 . S
C559 C560 1.516 . S
C560 C559 1.516 . S
C560 C561 1.502 . S
C560 C562 1.561 1_655 S
C560 C563 1.526 . S
C561 H545 0.959 . S
C561 H546 0.959 . S
C561 H547 0.961 . S
C561 C560 1.502 . S
C562 H548 0.960 . S
C562 H549 0.961 . S
C562 H550 0.959 . S
C562 C560 1.561 1_455 S
C563 C560 1.526 . S
C563 C564 1.396 . S
C563 C568 1.390 . S
C564 C558 1.465 . S
C564 C563 1.396 . S
C564 C565 1.399 . S
C565 H551 0.929 . S
C565 C564 1.399 . S
C565 C566 1.385 . S
C566 H552 0.931 . S
C566 C565 1.385 . S
C566 C567 1.389 . S
C567 C566 1.389 . S
C567 C568 1.387 . S
C568 H553 0.930 . S
C568 C563 1.390 . S
C568 C567 1.387 . S
H569 C581 0.930 . S
H570 C583 0.930 . S
H571 C584 0.930 . S
H572 C588 0.959 . S
H573 C588 0.959 . S
H574 C588 0.961 . S
H575 C589 0.960 . S
H576 C589 0.961 . S
H577 C589 0.959 . S
H578 C592 0.929 . S
H579 C593 0.931 . S
H580 C595 0.930 . S
C581 H569 0.930 . S
C581 C582 1.399 . S
C581 C586 1.399 . S
C582 C581 1.399 . S
C582 C583 1.376 . S
C583 H570 0.930 . S
C583 C582 1.376 . S
C583 C584 1.388 . S
C584 H571 0.930 . S
C584 C583 1.388 . S
C584 C585 1.390 . S
C585 C584 1.390 . S
C585 C586 1.394 . S
C585 C591 1.465 . S
C586 C581 1.399 . S
C586 C585 1.394 . S
C586 C587 1.516 . S
C587 C586 1.516 . S
C587 C588 1.502 . S
C587 C589 1.561 . S
C587 C590 1.526 . S
C588 H572 0.959 . S
C588 H573 0.959 . S
C588 H574 0.961 . S
C588 C587 1.502 . S
C589 H575 0.960 . S
C589 H576 0.961 . S
C589 H577 0.959 . S
C589 C587 1.561 . S
C590 C587 1.526 . S
C590 C591 1.396 . S
C590 C595 1.390 . S
C591 C585 1.465 . S
C591 C590 1.396 . S
C591 C592 1.399 . S
C592 H578 0.929 . S
C592 C591 1.399 . S
C592 C593 1.385 . S
C593 H579 0.931 . S
C593 C592 1.385 . S
C593 C594 1.389 . S
C594 C593 1.389 . S
C594 C595 1.387 . S
C595 H580 0.930 . S
C595 C590 1.390 . S
C595 C594 1.387 . S
H596 C608 0.930 . S
H597 C610 0.930 . S
H598 C611 0.930 . S
H599 C615 0.959 . S
H600 C615 0.959 . S
H601 C615 0.961 . S
H602 C616 0.960 . S
H603 C616 0.961 . S
H604 C616 0.959 . S
H605 C619 0.929 . S
H606 C620 0.931 . S
H607 C622 0.930 1_455 S
C608 H596 0.930 . S
C608 C609 1.399 . S
C608 C613 1.399 . S
C609 C608 1.399 . S
C609 C610 1.376 1_565 S
C610 H597 0.930 . S
C610 C609 1.376 1_545 S
C610 C611 1.388 . S
C611 H598 0.930 . S
C611 C610 1.388 . S
C611 C612 1.390 . S
C612 C611 1.390 . S
C612 C613 1.394 1_545 S
C612 C618 1.465 . S
C613 C608 1.399 . S
C613 C612 1.394 1_565 S
C613 C614 1.516 . S
C614 C613 1.516 . S
C614 C615 1.502 1_655 S
C614 C616 1.561 . S
C614 C617 1.526 . S
C615 H599 0.959 . S
C615 H600 0.959 . S
C615 H601 0.961 . S
C615 C614 1.502 1_455 S
C616 H602 0.960 . S
C616 H603 0.961 . S
C616 H604 0.959 . S
C616 C614 1.561 . S
C617 C614 1.526 . S
C617 C618 1.396 1_565 S
C617 C622 1.390 . S
C618 C612 1.465 . S
C618 C617 1.396 1_545 S
C618 C619 1.399 . S
C619 H605 0.929 . S
C619 C618 1.399 . S
C619 C620 1.385 . S
C620 H606 0.931 . S
C620 C619 1.385 . S
C620 C621 1.389 . S
C621 C620 1.389 . S
C621 C622 1.387 1_545 S
C622 H607 0.930 1_655 S
C622 C617 1.390 . S
C622 C621 1.387 1_565 S
H623 C635 0.930 . S
H624 C637 0.930 . S
H625 C638 0.930 . S
H626 C642 0.959 . S
H627 C642 0.959 . S
H628 C642 0.961 . S
H629 C643 0.960 . S
H630 C643 0.961 . S
H631 C643 0.959 . S
H632 C646 0.929 . S
H633 C647 0.931 . S
H634 C649 0.930 . S
C635 H623 0.930 . S
C635 C636 1.399 . S
C635 C640 1.399 . S
C636 C635 1.399 . S
C636 C637 1.376 . S
C637 H624 0.930 . S
C637 C636 1.376 . S
C637 C638 1.388 . S
C638 H625 0.930 . S
C638 C637 1.388 . S
C638 C639 1.390 . S
C639 C638 1.390 . S
C639 C640 1.394 . S
C639 C645 1.465 . S
C640 C635 1.399 . S
C640 C639 1.394 . S
C640 C641 1.516 . S
C641 C640 1.516 . S
C641 C642 1.502 . S
C641 C643 1.561 . S
C641 C644 1.526 . S
C642 H626 0.959 . S
C642 H627 0.959 . S
C642 H628 0.961 . S
C642 C641 1.502 . S
C643 H629 0.960 . S
C643 H630 0.961 . S
C643 H631 0.959 . S
C643 C641 1.561 . S
C644 C641 1.526 . S
C644 C645 1.396 . S
C644 C649 1.390 . S
C645 C639 1.465 . S
C645 C644 1.396 . S
C645 C646 1.399 . S
C646 H632 0.929 . S
C646 C645 1.399 . S
C646 C647 1.385 . S
C647 H633 0.931 . S
C647 C646 1.385 . S
C647 C648 1.389 . S
C648 C647 1.389 . S
C648 C649 1.387 . S
C649 H634 0.930 . S
C649 C644 1.390 . S
C649 C648 1.387 . S
H650 C662 0.930 . S
H651 C664 0.930 . S
H652 C665 0.930 . S
H653 C669 0.959 . S
H654 C669 0.959 . S
H655 C669 0.961 . S
H656 C670 0.960 . S
H657 C670 0.961 . S
H658 C670 0.959 . S
H659 C673 0.929 . S
H660 C674 0.931 . S
H661 C676 0.930 . S
C662 H650 0.930 . S
C662 C663 1.399 . S
C662 C667 1.399 . S
C663 C662 1.399 . S
C663 C664 1.376 . S
C664 H651 0.930 . S
C664 C663 1.376 . S
C664 C665 1.388 . S
C665 H652 0.930 . S
C665 C664 1.388 . S
C665 C666 1.390 . S
C666 C665 1.390 . S
C666 C667 1.394 . S
C666 C672 1.465 . S
C667 C662 1.399 . S
C667 C666 1.394 . S
C667 C668 1.516 . S
C668 C667 1.516 . S
C668 C669 1.502 . S
C668 C670 1.561 . S
C668 C671 1.526 . S
C669 H653 0.959 . S
C669 H654 0.959 . S
C669 H655 0.961 . S
C669 C668 1.502 . S
C670 H656 0.960 . S
C670 H657 0.961 . S
C670 H658 0.959 . S
C670 C668 1.561 . S
C671 C668 1.526 . S
C671 C672 1.396 . S
C671 C676 1.390 . S
C672 C666 1.465 . S
C672 C671 1.396 . S
C672 C673 1.399 . S
C673 H659 0.929 . S
C673 C672 1.399 . S
C673 C674 1.385 . S
C674 H660 0.931 . S
C674 C673 1.385 . S
C674 C675 1.389 . S
C675 C674 1.389 . S
C675 C676 1.387 . S
C676 H661 0.930 . S
C676 C671 1.390 . S
C676 C675 1.387 . S
H677 C689 0.930 . S
H678 C691 0.930 . S
H679 C692 0.930 . S
H680 C696 0.959 . S
H681 C696 0.959 . S
H682 C696 0.961 . S
H683 C697 0.960 . S
H684 C697 0.961 . S
H685 C697 0.959 . S
H686 C700 0.929 . S
H687 C701 0.931 . S
H688 C703 0.930 . S
C689 H677 0.930 . S
C689 C690 1.399 . S
C689 C694 1.399 . S
C690 C689 1.399 . S
C690 C691 1.376 . S
C691 H678 0.930 . S
C691 C690 1.376 . S
C691 C692 1.388 . S
C692 H679 0.930 . S
C692 C691 1.388 . S
C692 C693 1.390 . S
C693 C692 1.390 . S
C693 C694 1.394 . S
C693 C699 1.465 . S
C694 C689 1.399 . S
C694 C693 1.394 . S
C694 C695 1.516 . S
C695 C694 1.516 . S
C695 C696 1.502 . S
C695 C697 1.561 . S
C695 C698 1.526 . S
C696 H680 0.959 . S
C696 H681 0.959 . S
C696 H682 0.961 . S
C696 C695 1.502 . S
C697 H683 0.960 . S
C697 H684 0.961 . S
C697 H685 0.959 . S
C697 C695 1.561 . S
C698 C695 1.526 . S
C698 C699 1.396 . S
C698 C703 1.390 . S
C699 C693 1.465 . S
C699 C698 1.396 . S
C699 C700 1.399 . S
C700 H686 0.929 . S
C700 C699 1.399 . S
C700 C701 1.385 . S
C701 H687 0.931 . S
C701 C700 1.385 . S
C701 C702 1.389 . S
C702 C701 1.389 . S
C702 C703 1.387 . S
C703 H688 0.930 . S
C703 C698 1.390 . S
C703 C702 1.387 . S
H704 C716 0.930 . S
H705 C718 0.930 . S
H706 C719 0.930 . S
H707 C723 0.959 . S
H708 C723 0.959 1_554 S
H709 C723 0.961 . S
H710 C724 0.960 . S
H711 C724 0.961 . S
H712 C724 0.959 . S
H713 C727 0.929 . S
H714 C728 0.931 . S
H715 C730 0.930 . S
C716 H704 0.930 . S
C716 C717 1.399 . S
C716 C721 1.399 1_556 S
C717 C716 1.399 . S
C717 C718 1.376 1_565 S
C718 H705 0.930 . S
C718 C717 1.376 1_545 S
C718 C719 1.388 . S
C719 H706 0.930 . S
C719 C718 1.388 . S
C719 C720 1.390 1_556 S
C720 C719 1.390 1_554 S
C720 C721 1.394 1_545 S
C720 C726 1.465 . S
C721 C716 1.399 1_554 S
C721 C720 1.394 1_565 S
C721 C722 1.516 . S
C722 C721 1.516 . S
C722 C723 1.502 1_554 S
C722 C724 1.561 . S
C722 C725 1.526 . S
C723 H707 0.959 . S
C723 H708 0.959 1_556 S
C723 H709 0.961 . S
C723 C722 1.502 1_556 S
C724 H710 0.960 . S
C724 H711 0.961 . S
C724 H712 0.959 . S
C724 C722 1.561 . S
C725 C722 1.526 . S
C725 C726 1.396 1_565 S
C725 C730 1.390 . S
C726 C720 1.465 . S
C726 C725 1.396 1_545 S
C726 C727 1.399 . S
C727 H713 0.929 . S
C727 C726 1.399 . S
C727 C728 1.385 . S
C728 H714 0.931 . S
C728 C727 1.385 . S
C728 C729 1.389 . S
C729 C728 1.389 . S
C729 C730 1.387 1_545 S
C730 H715 0.930 . S
C730 C725 1.390 . S
C730 C729 1.387 1_565 S
H731 C743 0.930 . S
H732 C745 0.930 . S
H733 C746 0.930 . S
H734 C750 0.959 . S
H735 C750 0.959 . S
H736 C750 0.961 . S
H737 C751 0.960 . S
H738 C751 0.961 . S
H739 C751 0.959 . S
H740 C754 0.929 . S
H741 C755 0.931 . S
H742 C757 0.930 . S
C743 H731 0.930 . S
C743 C744 1.399 . S
C743 C748 1.399 . S
C744 C743 1.399 . S
C744 C745 1.376 . S
C745 H732 0.930 . S
C745 C744 1.376 . S
C745 C746 1.388 . S
C746 H733 0.930 . S
C746 C745 1.388 . S
C746 C747 1.390 . S
C747 C746 1.390 . S
C747 C748 1.394 . S
C747 C753 1.465 . S
C748 C743 1.399 . S
C748 C747 1.394 . S
C748 C749 1.516 . S
C749 C748 1.516 . S
C749 C750 1.502 . S
C749 C751 1.561 . S
C749 C752 1.526 . S
C750 H734 0.959 . S
C750 H735 0.959 . S
C750 H736 0.961 . S
C750 C749 1.502 . S
C751 H737 0.960 . S
C751 H738 0.961 . S
C751 H739 0.959 . S
C751 C749 1.561 . S
C752 C749 1.526 . S
C752 C753 1.396 . S
C752 C757 1.390 . S
C753 C747 1.465 . S
C753 C752 1.396 . S
C753 C754 1.399 . S
C754 H740 0.929 . S
C754 C753 1.399 . S
C754 C755 1.385 . S
C755 H741 0.931 . S
C755 C754 1.385 . S
C755 C756 1.389 . S
C756 C755 1.389 . S
C756 C757 1.387 . S
C757 H742 0.930 . S
C757 C752 1.390 . S
C757 C756 1.387 . S
H758 C770 0.930 . S
H759 C772 0.930 . S
H760 C773 0.930 . S
H761 C777 0.959 . S
H762 C777 0.959 . S
H763 C777 0.961 . S
H764 C778 0.960 . S
H765 C778 0.961 . S
H766 C778 0.959 . S
H767 C781 0.929 . S
H768 C782 0.931 . S
H769 C784 0.930 . S
C770 H758 0.930 . S
C770 C771 1.399 . S
C770 C775 1.399 . S
C771 C770 1.399 . S
C771 C772 1.376 . S
C772 H759 0.930 . S
C772 C771 1.376 . S
C772 C773 1.388 . S
C773 H760 0.930 . S
C773 C772 1.388 . S
C773 C774 1.390 . S
C774 C773 1.390 . S
C774 C775 1.394 . S
C774 C780 1.465 . S
C775 C770 1.399 . S
C775 C774 1.394 . S
C775 C776 1.516 . S
C776 C775 1.516 . S
C776 C777 1.502 . S
C776 C778 1.561 . S
C776 C779 1.526 . S
C777 H761 0.959 . S
C777 H762 0.959 . S
C777 H763 0.961 . S
C777 C776 1.502 . S
C778 H764 0.960 . S
C778 H765 0.961 . S
C778 H766 0.959 . S
C778 C776 1.561 . S
C779 C776 1.526 . S
C779 C780 1.396 . S
C779 C784 1.390 . S
C780 C774 1.465 . S
C780 C779 1.396 . S
C780 C781 1.399 . S
C781 H767 0.929 . S
C781 C780 1.399 . S
C781 C782 1.385 . S
C782 H768 0.931 . S
C782 C781 1.385 . S
C782 C783 1.389 . S
C783 C782 1.389 . S
C783 C784 1.387 . S
C784 H769 0.930 . S
C784 C779 1.390 . S
C784 C783 1.387 . S
H785 C797 0.930 . S
H786 C799 0.930 . S
H787 C800 0.930 . S
H788 C804 0.959 . S
H789 C804 0.959 . S
H790 C804 0.961 . S
H791 C805 0.960 . S
H792 C805 0.961 . S
H793 C805 0.959 . S
H794 C808 0.929 . S
H795 C809 0.931 . S
H796 C811 0.930 . S
C797 H785 0.930 . S
C797 C798 1.399 . S
C797 C802 1.399 . S
C798 C797 1.399 . S
C798 C799 1.376 . S
C799 H786 0.930 . S
C799 C798 1.376 . S
C799 C800 1.388 . S
C800 H787 0.930 . S
C800 C799 1.388 . S
C800 C801 1.390 . S
C801 C800 1.390 . S
C801 C802 1.394 . S
C801 C807 1.465 . S
C802 C797 1.399 . S
C802 C801 1.394 . S
C802 C803 1.516 . S
C803 C802 1.516 . S
C803 C804 1.502 . S
C803 C805 1.561 . S
C803 C806 1.526 . S
C804 H788 0.959 . S
C804 H789 0.959 . S
C804 H790 0.961 . S
C804 C803 1.502 . S
C805 H791 0.960 . S
C805 H792 0.961 . S
C805 H793 0.959 . S
C805 C803 1.561 . S
C806 C803 1.526 . S
C806 C807 1.396 . S
C806 C811 1.390 . S
C807 C801 1.465 . S
C807 C806 1.396 . S
C807 C808 1.399 . S
C808 H794 0.929 . S
C808 C807 1.399 . S
C808 C809 1.385 . S
C809 H795 0.931 . S
C809 C808 1.385 . S
C809 C810 1.389 . S
C810 C809 1.389 . S
C810 C811 1.387 . S
C811 H796 0.930 . S
C811 C806 1.390 . S
C811 C810 1.387 . S
H812 C824 0.930 . S
H813 C826 0.930 . S
H814 C827 0.930 . S
H815 C831 0.959 . S
H816 C831 0.959 . S
H817 C831 0.961 . S
H818 C832 0.960 . S
H819 C832 0.961 . S
H820 C832 0.959 . S
H821 C835 0.929 . S
H822 C836 0.929 1_455 S
H823 C838 0.930 . S
C824 H812 0.930 . S
C824 C825 1.399 . S
C824 C829 1.399 . S
C825 C824 1.399 . S
C825 C826 1.376 . S
C826 H813 0.930 . S
C826 C825 1.376 . S
C826 C827 1.388 . S
C827 H814 0.930 . S
C827 C826 1.388 . S
C827 C828 1.390 . S
C828 C827 1.390 . S
C828 C829 1.394 . S
C828 C834 1.465 . S
C829 C824 1.399 . S
C829 C828 1.394 . S
C829 C830 1.516 1_556 S
C830 C829 1.516 1_554 S
C830 C831 1.502 1_655 S
C830 C832 1.561 . S
C830 C833 1.526 1_554 S
C831 H815 0.959 . S
C831 H816 0.959 . S
C831 H817 0.961 . S
C831 C830 1.502 1_455 S
C832 H818 0.960 . S
C832 H819 0.961 . S
C832 H820 0.959 . S
C832 C830 1.561 . S
C833 C830 1.526 1_556 S
C833 C834 1.396 . S
C833 C838 1.390 1_656 S
C834 C828 1.465 . S
C834 C833 1.396 . S
C834 C835 1.399 . S
C835 H821 0.929 . S
C835 C834 1.399 . S
C835 C836 1.385 . S
C836 H822 0.929 1_655 S
C836 C835 1.385 . S
C836 C837 1.389 1_655 S
C837 C836 1.389 1_455 S
C837 C838 1.387 1_556 S
C838 H823 0.930 . S
C838 C833 1.390 1_454 S
C838 C837 1.387 1_554 S
H839 C851 0.930 . S
H840 C853 0.930 . S
H841 C854 0.930 . S
H842 C858 0.959 . S
H843 C858 0.959 . S
H844 C858 0.961 . S
H845 C859 0.960 . S
H846 C859 0.961 . S
H847 C859 0.959 . S
H848 C862 0.929 . S
H849 C863 0.931 . S
H850 C865 0.930 . S
C851 H839 0.930 . S
C851 C852 1.399 . S
C851 C856 1.399 . S
C852 C851 1.399 . S
C852 C853 1.376 . S
C853 H840 0.930 . S
C853 C852 1.376 . S
C853 C854 1.388 . S
C854 H841 0.930 . S
C854 C853 1.388 . S
C854 C855 1.390 . S
C855 C854 1.390 . S
C855 C856 1.394 . S
C855 C861 1.465 . S
C856 C851 1.399 . S
C856 C855 1.394 . S
C856 C857 1.516 . S
C857 C856 1.516 . S
C857 C858 1.502 . S
C857 C859 1.561 . S
C857 C860 1.526 . S
C858 H842 0.959 . S
C858 H843 0.959 . S
C858 H844 0.961 . S
C858 C857 1.502 . S
C859 H845 0.960 . S
C859 H846 0.961 . S
C859 H847 0.959 . S
C859 C857 1.561 . S
C860 C857 1.526 . S
C860 C861 1.396 . S
C860 C865 1.390 . S
C861 C855 1.465 . S
C861 C860 1.396 . S
C861 C862 1.399 . S
C862 H848 0.929 . S
C862 C861 1.399 . S
C862 C863 1.385 . S
C863 H849 0.931 . S
C863 C862 1.385 . S
C863 C864 1.389 . S
C864 C863 1.389 . S
C864 C865 1.387 . S
C865 H850 0.930 . S
C865 C860 1.390 . S
C865 C864 1.387 . S
H866 C878 0.930 . S
H867 C880 0.930 . S
H868 C881 0.930 . S
H869 C885 0.959 . S
H870 C885 0.959 . S
H871 C885 0.961 . S
H872 C886 0.960 . S
H873 C886 0.961 . S
H874 C886 0.959 . S
H875 C889 0.929 . S
H876 C890 0.931 . S
H877 C892 0.930 . S
C878 H866 0.930 . S
C878 C879 1.399 . S
C878 C883 1.399 . S
C879 C878 1.399 . S
C879 C880 1.376 . S
C880 H867 0.930 . S
C880 C879 1.376 . S
C880 C881 1.388 . S
C881 H868 0.930 . S
C881 C880 1.388 . S
C881 C882 1.390 . S
C882 C881 1.390 . S
C882 C883 1.394 . S
C882 C888 1.465 . S
C883 C878 1.399 . S
C883 C882 1.394 . S
C883 C884 1.516 . S
C884 C883 1.516 . S
C884 C885 1.502 . S
C884 C886 1.561 . S
C884 C887 1.526 . S
C885 H869 0.959 . S
C885 H870 0.959 . S
C885 H871 0.961 . S
C885 C884 1.502 . S
C886 H872 0.960 . S
C886 H873 0.961 . S
C886 H874 0.959 . S
C886 C884 1.561 . S
C887 C884 1.526 . S
C887 C888 1.396 . S
C887 C892 1.390 . S
C888 C882 1.465 . S
C888 C887 1.396 . S
C888 C889 1.399 . S
C889 H875 0.929 . S
C889 C888 1.399 . S
C889 C890 1.385 . S
C890 H876 0.931 . S
C890 C889 1.385 . S
C890 C891 1.389 . S
C891 C890 1.389 . S
C891 C892 1.387 . S
C892 H877 0.930 . S
C892 C887 1.390 . S
C892 C891 1.387 . S
H893 C905 0.930 . S
H894 C907 0.930 . S
H895 C908 0.930 . S
H896 C912 0.959 . S
H897 C912 0.959 . S
H898 C912 0.961 . S
H899 C913 0.960 . S
H900 C913 0.961 . S
H901 C913 0.959 . S
H902 C916 0.929 . S
H903 C917 0.931 . S
H904 C919 0.930 . S
C905 H893 0.930 . S
C905 C906 1.399 . S
C905 C910 1.399 . S
C906 C905 1.399 . S
C906 C907 1.376 . S
C907 H894 0.930 . S
C907 C906 1.376 . S
C907 C908 1.388 . S
C908 H895 0.930 . S
C908 C907 1.388 . S
C908 C909 1.390 . S
C909 C908 1.390 . S
C909 C910 1.394 . S
C909 C915 1.465 . S
C910 C905 1.399 . S
C910 C909 1.394 . S
C910 C911 1.516 . S
C911 C910 1.516 . S
C911 C912 1.502 . S
C911 C913 1.561 . S
C911 C914 1.526 . S
C912 H896 0.959 . S
C912 H897 0.959 . S
C912 H898 0.961 . S
C912 C911 1.502 . S
C913 H899 0.960 . S
C913 H900 0.961 . S
C913 H901 0.959 . S
C913 C911 1.561 . S
C914 C911 1.526 . S
C914 C915 1.396 . S
C914 C919 1.390 . S
C915 C909 1.465 . S
C915 C914 1.396 . S
C915 C916 1.399 . S
C916 H902 0.929 . S
C916 C915 1.399 . S
C916 C917 1.385 . S
C917 H903 0.931 . S
C917 C916 1.385 . S
C917 C918 1.389 . S
C918 C917 1.389 . S
C918 C919 1.387 . S
C919 H904 0.930 . S
C919 C914 1.390 . S
C919 C918 1.387 . S
C285 C6 2.423 . S
C297 C168 2.440 . S
C312 C21 1.622 . S
C324 N188 1.623 . S
C351 C222 1.385 . S
C339 C49 1.299 . S
C366 C68 0.895 . S
C378 N256 1.114 . S
C405 C209 3.044 . S
C393 C2 3.007 . S
C432 N166 0.926 . S
C420 C30 0.849 . S
C459 C243 1.717 . S
C447 C40 1.735 . S
C486 N218 0.937 . S
C474 C63 0.930 . S
C501 C11 1.544 . S
C513 C258 1.852 . S
C540 C192 1.817 . S
C528 C44 1.791 . S
C555 C59 1.009 . S
C567 C153 1.011 . S
C582 C25 1.731 . S
C594 C239 1.744 . S
C621 C179 2.620 . S
C609 C82 2.595 . S
C636 C101 1.312 . S
C648 N196 1.273 . S
C663 C125 1.769 . S
C675 C213 1.811 . S
C690 C144 0.862 . S
C702 N248 0.798 . S
C717 C87 1.872 . S
C729 C198 2.052 . S
C756 N158 1.757 . S
C744 C97 1.716 . S
C783 C252 1.733 . S
C771 C120 1.753 . S
C810 N226 0.966 . S
C798 C135 0.976 . S
C825 C78 2.129 . S
C837 C269 2.153 1_556 S
C864 C183 1.312 . S
C852 C116 1.278 . S
C891 C162 1.561 . S
C879 C139 1.572 . S
C906 C106 1.331 . S
C918 C228 1.446 . S
