# Generated by pormake.
# Topology anh, (6,3)-cn, num edge types: 1
# Building blocks:
#     Node 0, Type 0, BuildingBlock: HISSIN_clean_sbu_0, # of connection points: 6
#     Node 1, Type 0, BuildingBlock: HISSIN_clean_sbu_0, # of connection points: 6
#     Node 2, Type 0, BuildingBlock: HISSIN_clean_sbu_0, # of connection points: 6
#     Node 3, Type 1, BuildingBlock: PAMTOO_clean_linker_0, # of connection points: 3
#     Node 4, Type 1, BuildingBlock: PAMTOO_clean_linker_0, # of connection points: 3
#     Node 5, Type 1, BuildingBlock: PAMTOO_clean_linker_0, # of connection points: 3
#     Node 6, Type 1, BuildingBlock: PAMTOO_clean_linker_0, # of connection points: 3
#     Node 7, Type 1, BuildingBlock: PAMTOO_clean_linker_0, # of connection points: 3
#     Node 8, Type 1, BuildingBlock: PAMTOO_clean_linker_0, # of connection points: 3
#     Edge 9, Type (0, 1), BuildingBlock: EZIPEK_clean_linker_0, # of connection points: 2
#     Edge 10, Type (0, 1), BuildingBlock: EZIPEK_clean_linker_0, # of connection points: 2
#     Edge 11, Type (0, 1), BuildingBlock: EZIPEK_clean_linker_0, # of connection points: 2
#     Edge 12, Type (0, 1), BuildingBlock: EZIPEK_clean_linker_0, # of connection points: 2
#     Edge 13, Type (0, 1), BuildingBlock: EZIPEK_clean_linker_0, # of connection points: 2
#     Edge 14, Type (0, 1), BuildingBlock: EZIPEK_clean_linker_0, # of connection points: 2
#     Edge 15, Type (0, 1), BuildingBlock: EZIPEK_clean_linker_0, # of connection points: 2
#     Edge 16, Type (0, 1), BuildingBlock: EZIPEK_clean_linker_0, # of connection points: 2
#     Edge 17, Type (0, 1), BuildingBlock: EZIPEK_clean_linker_0, # of connection points: 2
#     Edge 18, Type (0, 1), BuildingBlock: EZIPEK_clean_linker_0, # of connection points: 2
#     Edge 19, Type (0, 1), BuildingBlock: EZIPEK_clean_linker_0, # of connection points: 2
#     Edge 20, Type (0, 1), BuildingBlock: EZIPEK_clean_linker_0, # of connection points: 2
#     Edge 21, Type (0, 1), BuildingBlock: EZIPEK_clean_linker_0, # of connection points: 2
#     Edge 22, Type (0, 1), BuildingBlock: EZIPEK_clean_linker_0, # of connection points: 2
#     Edge 23, Type (0, 1), BuildingBlock: EZIPEK_clean_linker_0, # of connection points: 2
#     Edge 24, Type (0, 1), BuildingBlock: EZIPEK_clean_linker_0, # of connection points: 2
#     Edge 25, Type (0, 1), BuildingBlock: EZIPEK_clean_linker_0, # of connection points: 2
#     Edge 26, Type (0, 1), BuildingBlock: EZIPEK_clean_linker_0, # of connection points: 2
# Relax obj value: 0.375
# Max RMSD: 0.161
# Mean RMSD: 0.125
data_MOF--net-anh--node1-HISSIN_clean_sbu_0--node2-PAMTOO_clean_linker_0--edge1-EZIPEK_clean_linker_0
_symmetry_space_group_name_H-M    P1
_symmetry_Int_Tables_number       1
_symmetry_cell_setting            triclinic
loop_
_symmetry_equiv_pos_as_xyz
'x, y, z'
_cell_length_a     22.114891
_cell_length_b     22.112947
_cell_length_c     36.501351
_cell_angle_alpha  88.886552
_cell_angle_beta   94.126388
_cell_angle_gamma 120.57976
loop_
_atom_site_label
_atom_site_type_symbol
_atom_site_fract_x
_atom_site_fract_y
_atom_site_fract_z
_atom_type_partial_charge
Eu0 Eu 0.22218 0.61797 0.12873 0.0
Eu1 Eu 0.30317 0.77498 0.16251 0.0
C2 C 0.24478 0.64605 0.21541 0.0
C3 C 1.15295 0.42311 0.11646 0.0
C4 C 1.1783 0.41846 0.15215 0.0
C5 C 1.09805 0.29727 0.10816 0.0
C6 C 1.15974 0.35285 0.16656 0.0
C7 C 1.11608 0.36288 0.09387 0.0
C8 C 1.11614 0.29183 0.14524 0.0
C9 C 1.15547 0.4879 0.10479 0.0
O10 O 0.39167 0.74922 0.15765 0.0
O11 O 0.33683 0.65146 0.12015 0.0
C12 C 0.39483 0.70265 0.13687 0.0
O13 O 0.22604 0.68438 0.08045 0.0
O14 O 0.36094 0.84006 0.21112 0.0
O15 O 0.35151 0.8895 0.16106 0.0
O16 O 0.31996 0.78875 0.10268 0.0
C17 C 0.27597 0.74926 0.07577 0.0
O18 O 1.13353 0.64207 0.13592 0.0
O19 O 0.19471 0.76177 0.14485 0.0
O20 O 0.24332 0.70328 0.2077 0.0
O21 O 1.13022 0.51307 0.12737 0.0
O22 O 0.21406 0.53653 0.09221 0.0
O23 O 0.25105 0.61053 0.18903 0.0
C24 C 0.4654 0.92928 0.18992 0.0
C25 C 0.49055 0.92404 0.15644 0.0
C26 C 0.56975 0.93807 0.22223 0.0
C27 C 0.55147 0.92019 0.15624 0.0
C28 C 0.50813 0.94123 0.22253 0.0
C29 C 0.58885 0.92252 0.18933 0.0
C30 C 0.38869 0.89729 0.192 0.0
C31 C 1.13423 0.70234 0.13751 0.0
H32 H 0.20734 0.46481 0.1698 0.0
H33 H 1.06388 0.25043 0.09154 0.0
H34 H 1.17359 0.34932 0.19528 0.0
H35 H 1.09653 0.36589 0.06622 0.0
H36 H 0.45921 0.91476 0.13071 0.0
H37 H 0.59875 0.94113 0.24802 0.0
H38 H 0.56652 0.91018 0.13053 0.0
H39 H 0.48982 0.94484 0.2487 0.0
Eu40 Eu 0.85666 1.1003 0.49085 0.0
Eu41 Eu 0.77052 0.17742 0.46051 0.0
C42 C 0.79082 0.15541 0.54887 0.0
C43 C 0.87263 0.94311 0.5063 0.0
C44 C 0.82483 0.9022 0.53234 0.0
C45 C 0.82652 0.83852 0.46715 0.0
C46 C 0.77642 0.83135 0.52507 0.0
C47 C 0.8755 0.90967 0.47453 0.0
C48 C 0.77511 0.79991 0.49183 0.0
C49 C 0.90918 1.02081 0.50893 0.0
O50 O 0.88763 0.25438 0.45173 0.0
O51 O 0.94517 0.21528 0.49134 0.0
C52 C 0.94632 0.26414 0.46948 0.0
O53 O 0.87061 1.11649 0.43068 0.0
O54 O 0.6949 0.19063 0.42461 0.0
O55 O 0.76812 0.27465 0.46236 0.0
O56 O 0.76968 1.11546 0.41188 0.0
C57 C 0.82054 1.10406 0.40546 0.0
O58 O 0.74126 1.0106 0.4795 0.0
O59 O 0.67865 1.06726 0.46885 0.0
O60 O 0.75795 0.17026 0.52192 0.0
O61 O 0.91877 1.05306 0.47779 0.0
O62 O 0.88719 1.0471 0.53278 0.0
O63 O 0.83641 0.13606 0.54321 0.0
C64 C 0.65721 0.26298 0.44939 0.0
C65 C 0.66022 0.32656 0.441 0.0
C66 C 0.55121 0.22567 0.48104 0.0
C67 C 0.60932 0.33992 0.45276 0.0
C68 C 0.60242 0.21249 0.46946 0.0
C69 C 0.55465 0.28962 0.4729 0.0
C70 C 0.71368 0.25198 0.43872 0.0
C71 C 0.68063 1.00892 0.47343 0.0
H72 H 0.82152 0.92578 0.55729 0.0
H73 H 0.82625 0.81477 0.44142 0.0
H74 H 0.73722 0.80191 0.54451 0.0
H75 H 0.91222 0.93963 0.45412 0.0
H76 H 0.70257 0.36629 0.42583 0.0
H77 H 0.50953 0.18656 0.49678 0.0
H78 H 0.61292 0.38972 0.44653 0.0
H79 H 0.5998 0.16344 0.47655 0.0
Eu80 Eu 0.64239 0.63197 0.81882 0.0
Eu81 Eu 0.7946 0.69713 0.78571 0.0
C82 C 0.78096 0.70131 0.87183 0.0
C83 C 0.52354 0.64559 0.87893 0.0
C84 C 0.58397 0.70359 0.89564 0.0
C85 C 0.45477 0.69758 0.89523 0.0
C86 C 0.58103 0.76045 0.90899 0.0
C87 C 0.45823 0.64149 0.8802 0.0
C88 C 0.51717 0.75967 0.90699 0.0
C89 C 0.53215 0.59815 0.85475 0.0
O90 O 0.7537 0.57941 0.78146 0.0
O91 O 0.66248 0.53832 0.81926 0.0
C92 C 0.70543 0.52779 0.80009 0.0
O93 O 0.61057 0.58814 0.76161 0.0
O94 O 0.87526 0.7785 0.75315 0.0
O95 O 0.88984 0.69574 0.77618 0.0
O96 O 0.71512 0.66431 0.73636 0.0
C97 C 0.6478 0.61591 0.73323 0.0
O98 O 0.66541 0.7378 0.79375 0.0
O99 O 0.78488 0.7931 0.7994 0.0
O100 O 0.81472 0.6899 0.84728 0.0
O101 O 0.53612 0.6149 0.82016 0.0
O102 O 0.58053 0.58345 0.86613 0.0
O103 O 0.72492 0.70414 0.86148 0.0
C104 C 0.99105 0.80586 0.77071 0.0
C105 C 1.04249 0.83507 0.74508 0.0
C106 C 1.08138 0.86403 0.82012 0.0
C107 C 1.11352 0.87764 0.75703 0.0
C108 C 1.01059 0.82222 0.80819 0.0
C109 C 1.1333 0.89029 0.79474 0.0
C110 C 0.91807 0.7546 0.75857 0.0
C111 C 0.72709 0.79682 0.79401 0.0
H112 H 0.63476 0.70772 0.89591 0.0
H113 H 0.40454 0.69515 0.89461 0.0
H114 H 0.62956 0.80691 0.9189 0.0
H115 H 0.41081 0.59704 0.86772 0.0
H116 H 1.02796 0.823 0.71602 0.0
H117 H 1.09597 0.87364 0.84932 0.0
H118 H 1.15316 0.89778 0.73718 0.0
H119 H 0.97137 0.80042 0.82828 0.0
H120 H 0.94891 1.1087 0.26715 0.0
H121 H 0.80136 0.88795 0.27672 0.0
H122 H 0.94202 0.96068 0.18982 0.0
H123 H 0.75919 0.76504 0.192 0.0
C124 C 0.78932 0.82316 0.19045 0.0
O125 O 0.84013 0.84993 0.21956 0.0
H126 H 0.81519 0.83067 0.16463 0.0
C127 C 0.92793 1.05479 0.25805 0.0
C128 C 0.95154 1.04116 0.22634 0.0
C129 C 0.87364 0.99997 0.27634 0.0
C130 C 0.84435 0.93071 0.26327 0.0
C131 C 0.87037 0.91651 0.23272 0.0
C132 C 0.9245 0.97165 0.21449 0.0
H133 H 0.61128 0.62039 0.56821 0.0
H134 H 0.41055 0.45064 0.59672 0.0
H135 H 0.45576 0.49005 0.48306 0.0
H136 H 0.29336 0.31122 0.50865 0.0
C137 C 0.34202 0.34077 0.52701 0.0
O138 O 0.36002 0.41062 0.52838 0.0
H139 H 0.3239 0.31619 0.55373 0.0
C140 C 0.55904 0.57718 0.55983 0.0
C141 C 0.53848 0.56113 0.52243 0.0
C142 C 0.51399 0.53691 0.58664 0.0
C143 C 0.44614 0.48158 0.57607 0.0
C144 C 0.42513 0.46466 0.53868 0.0
C145 C 0.47172 0.50382 0.51187 0.0
H146 H 0.27562 0.88983 0.91607 0.0
H147 H 0.46588 0.98043 0.9863 0.0
H148 H 0.46646 1.0637 0.87878 0.0
H149 H 0.63724 1.07087 0.95345 0.0
C150 C 0.59471 1.04978 0.93106 0.0
O151 O 0.54568 1.06901 0.93817 0.0
H152 H 0.62409 1.07922 0.9073 0.0
C153 C 0.33089 0.92928 0.92106 0.0
C154 C 0.3662 0.97816 0.89402 0.0
C155 C 0.36696 0.92974 0.95408 0.0
C156 C 0.43828 0.97989 0.96052 0.0
C157 C 0.4749 1.02673 0.93308 0.0
C158 C 0.43852 1.02702 0.89998 0.0
H159 H 1.15154 0.49314 0.3738 0.0
H160 H 0.35291 0.68409 0.37947 0.0
H161 H 0.26888 0.57311 0.47868 0.0
H162 H 0.38115 0.74306 0.4931 0.0
C163 C 0.39632 0.75023 0.4643 0.0
O164 O 0.38088 0.68505 0.45011 0.0
H165 H 0.3609 0.76695 0.45055 0.0
C166 C 0.19735 0.53262 0.39009 0.0
C167 C 0.20215 0.52522 0.42849 0.0
C168 C 0.25079 0.59033 0.37236 0.0
C169 C 0.31083 0.6412 0.39329 0.0
C170 C 0.31829 0.63672 0.4316 0.0
C171 C 0.26335 0.57816 0.44925 0.0
H172 H 0.74017 1.03853 0.70309 0.0
H173 H 0.74085 0.23212 0.71227 0.0
H174 H 0.72879 1.11336 0.80956 0.0
H175 H 0.65292 0.21136 0.81401 0.0
C176 C 0.67672 0.2409 0.789 0.0
O177 O 0.73463 0.23326 0.78294 0.0
H178 H 0.63758 0.21451 0.76529 0.0
C179 C 0.73746 1.07648 0.72024 0.0
C180 C 0.73369 1.06641 0.75844 0.0
C181 C 0.74071 0.13589 0.70372 0.0
C182 C 0.73737 0.186 0.72517 0.0
C183 C 0.73174 0.17874 0.76323 0.0
C184 C 0.73053 1.11859 0.78005 0.0
H185 H 0.91216 0.71649 0.03774 0.0
H186 H 0.70977 0.69933 0.03343 0.0
H187 H 0.81364 0.70065 0.13859 0.0
H188 H 0.68639 0.76932 0.07494 0.0
C189 C 0.6803 0.75047 0.10359 0.0
O190 O 0.6967 0.69656 0.10422 0.0
H191 H 0.72061 0.79463 0.12109 0.0
C192 C 0.86934 0.71283 0.05226 0.0
C193 C 0.87158 0.70808 0.09088 0.0
C194 C 0.81159 0.7094 0.03162 0.0
C195 C 0.75467 0.70324 0.04966 0.0
C196 C 0.75488 0.70269 0.08827 0.0
C197 C 0.81387 0.70443 0.10899 0.0
C198 C 0.49332 0.67095 0.14633 0.0
C199 C 0.46706 0.71262 0.12924 0.0
C200 C 0.5802 0.77983 0.09956 0.0
C201 C 0.60486 0.73441 0.11369 0.0
N202 N 0.59278 0.65357 0.16176 0.0
N203 N 0.48222 0.79804 0.0836 0.0
C204 C 0.56329 0.68416 0.14009 0.0
C205 C 0.50975 0.76437 0.10424 0.0
N206 N 0.45049 0.61734 0.16813 0.0
N207 N 0.62619 0.84222 0.08422 0.0
H208 H 0.43243 0.79044 0.08674 0.0
H209 H 0.50624 0.82885 0.06125 0.0
H210 H 0.67968 0.8607 0.08293 0.0
H211 H 0.61372 0.88065 0.07712 0.0
H212 H 0.46148 0.57938 0.17824 0.0
H213 H 0.40093 0.60782 0.17398 0.0
H214 H 0.56915 0.62219 0.18397 0.0
H215 H 0.64469 0.66604 0.16045 0.0
C216 C 1.0746 0.33045 0.45061 0.0
C217 C 1.01579 0.33202 0.46335 0.0
C218 C 1.08221 0.46204 0.45663 0.0
C219 C 1.14186 0.4606 0.4454 0.0
N220 N 0.19918 0.39418 0.43892 0.0
N221 N 0.97148 0.40249 0.48614 0.0
C222 C 1.13927 0.39493 0.44485 0.0
C223 C 1.02205 0.39888 0.46852 0.0
N224 N 1.06751 0.26734 0.44163 0.0
N225 N 1.08202 0.52371 0.45489 0.0
H226 H 0.9281 0.35826 0.49602 0.0
H227 H 0.97588 0.44955 0.4942 0.0
H228 H 1.12563 0.57107 0.44794 0.0
H229 H 1.03744 0.52715 0.45807 0.0
H230 H 1.10504 0.26261 0.42833 0.0
H231 H 1.02134 0.21942 0.4444 0.0
H232 H 0.20372 0.34971 0.442 0.0
H233 H 0.24658 0.43982 0.43424 0.0
C234 C 0.68186 0.88377 0.80193 0.0
C235 C 0.73143 0.86854 0.78772 0.0
C236 C 0.79252 0.99141 0.76504 0.0
C237 C 0.73647 1.00192 0.77363 0.0
N238 N 0.61981 0.94815 0.79462 0.0
N239 N 0.82542 0.90775 0.74695 0.0
C240 C 0.67914 0.94541 0.79068 0.0
C241 C 0.78484 0.92267 0.76712 0.0
N242 N 0.63903 0.84144 0.82778 0.0
N243 N 0.854 1.04755 0.75492 0.0
H244 H 0.81728 0.85734 0.74429 0.0
H245 H 0.86064 0.94326 0.72894 0.0
H246 H 0.86225 1.09841 0.75402 0.0
H247 H 0.89893 1.04477 0.75151 0.0
H248 H 0.60751 0.85421 0.84175 0.0
H249 H 0.64192 0.79902 0.83855 0.0
H250 H 0.57322 0.9044 0.80191 0.0
H251 H 0.6152 0.99143 0.78711 0.0
C252 C 1.01358 0.65586 0.10089 0.0
C253 C 1.06457 0.70243 0.12855 0.0
C254 C 0.98641 0.75285 0.13443 0.0
C255 C 0.93311 0.70137 0.10941 0.0
N256 N 0.8904 0.58998 0.07882 0.0
N257 N 1.08742 0.78427 0.17791 0.0
C258 C 0.94506 0.64838 0.09617 0.0
C259 C 1.04744 0.74784 0.14711 0.0
N260 N 1.03156 0.62222 0.07674 0.0
N261 N 0.98049 0.80818 0.14528 0.0
H262 H 1.12923 0.77931 0.18927 0.0
H263 H 1.07412 0.81305 0.19442 0.0
H264 H 0.93715 0.81323 0.13707 0.0
H265 H 1.02089 0.8514 0.1601 0.0
H266 H 0.99826 0.59274 0.05424 0.0
H267 H 1.08251 0.63144 0.07587 0.0
H268 H 0.89429 0.5469 0.07129 0.0
H269 H 0.83933 0.58147 0.07598 0.0
C270 C 0.58949 0.88913 0.49848 0.0
C271 C 0.61175 0.93819 0.4694 0.0
C272 C 0.49862 0.85839 0.4337 0.0
C273 C 0.47544 0.80995 0.46317 0.0
N274 N 0.50981 0.77039 0.51847 0.0
N275 N 0.59493 0.95854 0.40548 0.0
C276 C 0.52452 0.82268 0.4939 0.0
C277 C 0.56826 0.91952 0.43594 0.0
N278 N 0.62881 0.90714 0.53131 0.0
N279 N 0.45366 0.84701 0.4035 0.0
H280 H 0.64557 1.00216 0.40571 0.0
H281 H 0.56999 0.94401 0.37919 0.0
H282 H 0.40598 0.80036 0.39857 0.0
H283 H 0.46238 0.88488 0.38388 0.0
H284 H 0.61181 0.87791 0.55499 0.0
H285 H 0.67629 0.9544 0.53578 0.0
H286 H 0.54594 0.773 0.53924 0.0
H287 H 0.46442 0.72092 0.51549 0.0
C288 C 0.75755 0.44626 0.81018 0.0
C289 C 0.6993 0.45514 0.79865 0.0
C290 C 0.62788 0.32604 0.78708 0.0
C291 C 0.68809 0.31757 0.79339 0.0
N292 N 0.81005 0.37231 0.81645 0.0
N293 N 0.58165 0.40237 0.77011 0.0
C294 C 0.75293 0.37862 0.80639 0.0
C295 C 0.63543 0.39464 0.78551 0.0
N296 N 0.81637 0.50187 0.82706 0.0
N297 N 0.56164 0.26803 0.78486 0.0
H298 H 0.5841 0.45067 0.76855 0.0
H299 H 0.53743 0.36202 0.75568 0.0
H300 H 0.55139 0.21684 0.78816 0.0
H301 H 0.51608 0.27104 0.7844 0.0
H302 H 0.8582 0.4988 0.83992 0.0
H303 H 0.82144 0.55091 0.83078 0.0
H304 H 0.86136 0.41473 0.81944 0.0
H305 H 0.80639 0.32448 0.82243 0.0
C306 C 0.64898 0.72301 0.47064 0.0
C307 C 0.71448 0.729 0.48221 0.0
C308 C 0.65453 0.60495 0.49771 0.0
C309 C 0.59045 0.60498 0.49574 0.0
N310 N 0.52113 0.65372 0.47095 0.0
N311 N 0.78234 0.67503 0.50063 0.0
C312 C 0.58567 0.66032 0.47831 0.0
C313 C 0.71815 0.66899 0.49281 0.0
N314 N 0.64841 0.77892 0.4543 0.0
N315 N 0.65366 0.54399 0.50587 0.0
H316 H 0.82936 0.72124 0.49613 0.0
H317 H 0.78929 0.63538 0.51213 0.0
H318 H 0.60657 0.49712 0.50949 0.0
H319 H 0.69762 0.53836 0.5061 0.0
H320 H 0.60324 0.77955 0.44494 0.0
H321 H 0.6947 0.8248 0.44844 0.0
H322 H 0.51288 0.69183 0.45856 0.0
H323 H 0.47445 0.60809 0.47634 0.0
C324 C 0.24195 0.88549 0.81299 0.0
C325 C 0.20806 0.92537 0.80888 0.0
C326 C 0.29624 1.01499 0.85221 0.0
C327 C 0.32626 0.97207 0.85864 0.0
N328 N 0.34355 0.87982 0.83806 0.0
N329 N 0.21337 1.03596 0.81484 0.0
C330 C 0.3048 0.91218 0.83611 0.0
C331 C 0.23935 0.99332 0.82507 0.0
N332 N 0.21119 0.8199 0.79721 0.0
N333 N 0.31895 1.07355 0.87371 0.0
H334 H 1.17157 1.02041 0.79493 0.0
H335 H 0.23676 1.0882 0.82344 0.0
H336 H 0.36183 1.0916 0.89307 0.0
H337 H 0.29389 1.10265 0.87344 0.0
H338 H 0.2285 0.78468 0.80301 0.0
H339 H 1.16572 0.79883 0.77955 0.0
H340 H 0.33464 0.83946 0.82024 0.0
H341 H 0.38876 0.89787 0.85575 0.0
C342 C 0.62737 0.83684 0.20817 0.0
C343 C 0.64137 0.89928 0.18982 0.0
C344 C 0.74901 0.90993 0.16819 0.0
C345 C 0.73865 0.85151 0.19017 0.0
N346 N 0.67655 0.77245 0.23877 0.0
N347 N 0.71811 0.99965 0.1551 0.0
C348 C 0.68053 0.81907 0.21252 0.0
C349 C 0.70291 0.93696 0.17047 0.0
N350 N 0.56186 0.79213 0.21979 0.0
N351 N 0.80237 0.93972 0.14506 0.0
H352 H 0.68751 1.02259 0.15789 0.0
H353 H 0.76315 1.03169 0.14153 0.0
H354 H 0.84234 0.92819 0.14466 0.0
H355 H 0.80573 0.97442 0.12455 0.0
H356 H 0.54697 0.74224 0.22964 0.0
H357 H 0.51989 0.80102 0.21564 0.0
H358 H 0.63862 0.75303 0.25799 0.0
H359 H 0.71516 0.75914 0.24428 0.0
C360 C 0.45112 0.3069 0.46184 0.0
C361 C 0.50235 0.30512 0.48669 0.0
C362 C 0.45054 0.32672 0.53843 0.0
C363 C 0.40051 0.33124 0.51329 0.0
N364 N 0.36951 0.34839 0.45051 0.0
N365 N 0.56208 0.33024 0.54712 0.0
C366 C 0.40578 0.32832 0.4748 0.0
C367 C 0.50528 0.31985 0.52458 0.0
N368 N 0.44425 0.28613 0.42601 0.0
N369 N 0.44604 0.32828 0.57553 0.0
H370 H 0.60349 0.32617 0.53795 0.0
H371 H 0.57158 0.34917 0.57408 0.0
H372 H 0.41263 0.34057 0.58786 0.0
H373 H 0.47417 0.31445 0.59453 0.0
H374 H 0.40265 0.27889 0.40768 0.0
H375 H 0.47647 0.26999 0.41541 0.0
H376 H 0.37713 0.35387 0.42253 0.0
H377 H 0.33788 0.36742 0.45855 0.0
C378 C 0.54212 0.85726 0.95064 0.0
C379 C 0.51913 0.82665 0.91486 0.0
C380 C 0.53483 0.93786 0.89047 0.0
C381 C 0.56289 0.9701 0.92588 0.0
N382 N 0.57216 0.955 -0.00845 0.0
N383 N 0.47758 0.83167 0.85246 0.0
C384 C 0.55996 0.92805 0.95659 0.0
C385 C 0.50964 0.86484 0.88544 0.0
N386 N 0.54803 0.81854 0.97885 0.0
N387 N 0.53448 0.97753 0.86126 0.0
H388 H 0.46461 0.78074 0.84596 0.0
H389 H 0.46032 0.85302 0.83153 0.0
H390 H 0.54815 1.02984 0.8634 0.0
H391 H 0.52152 0.95968 0.83413 0.0
H392 H 0.5743 0.83984 0.00429 0.0
H393 H 0.52881 0.76474 0.97623 0.0
H394 H 0.56405 0.92518 0.01503 0.0
H395 H 0.58338 1.00568 -0.00246 0.0
C396 C 1.00428 0.20354 0.17096 0.0
C397 C 1.07452 0.22468 0.16398 0.0
C398 C 1.06545 1.12387 0.1978 0.0
C399 C 0.99364 1.10044 0.20222 0.0
N400 N 0.89027 1.1076 0.18451 0.0
N401 N 1.16988 0.20147 0.16584 0.0
C402 C 0.96173 0.13708 0.18606 0.0
C403 C 1.10457 0.18363 0.17585 0.0
N404 N 0.97895 0.24817 0.16472 0.0
N405 N 1.09668 1.09082 0.21564 0.0
H406 H 0.1998 0.24555 0.15023 0.0
H407 H 1.1921 0.17009 0.17063 0.0
H408 H 1.06916 1.04665 0.23161 0.0
H409 H 1.15056 1.10969 0.21663 0.0
H410 H 0.93107 0.2384 0.17355 0.0
H411 H 1.00829 0.29822 0.15407 0.0
H412 H 0.86384 1.12974 0.17041 0.0
H413 H 0.85683 1.0574 0.19396 0.0
C414 C 0.32368 0.77348 0.0139 0.0
C415 C 0.28297 0.78133 0.03953 0.0
C416 C 0.28905 0.88096 0.00624 0.0
C417 C 0.33145 0.87446 0.98115 0.0
N418 N 0.3729 0.80448 0.9545 0.0
N419 N 0.20936 0.8268 0.05463 0.0
C420 C 0.34347 0.81723 0.98283 0.0
C421 C 0.2598 0.83002 0.03381 0.0
N422 N 0.34587 0.72646 0.02016 0.0
N423 N 0.27936 0.93732 0.00468 0.0
H424 H 1.18583 0.78832 0.07422 0.0
H425 H 1.18576 0.85697 0.04994 0.0
H426 H 0.29892 0.97497 0.98432 0.0
H427 H 0.25577 0.94926 0.02479 0.0
H428 H 0.38317 0.72459 0.00511 0.0
H429 H 0.32949 0.69146 0.04185 0.0
H430 H 0.37705 0.75985 0.95247 0.0
H431 H 0.38768 0.83564 0.93127 0.0
C432 C 0.81503 1.09623 0.33601 0.0
C433 C 0.81904 1.06898 0.37097 0.0
C434 C 0.85202 0.99089 0.34354 0.0
C435 C 0.84654 1.01666 0.3084 0.0
N436 N 0.79858 1.07474 0.27021 0.0
N437 N 0.81209 0.97082 0.40463 0.0
C438 C 0.82009 1.06325 0.30429 0.0
C439 C 0.8281 1.00995 0.37365 0.0
N440 N 0.81009 0.15524 0.33301 0.0
N441 N 0.88372 0.9518 0.34893 0.0
H442 H 0.79206 0.98176 0.4269 0.0
H443 H 0.81026 0.9228 0.40599 0.0
H444 H 0.90504 0.93877 0.32804 0.0
H445 H 0.89477 0.93809 0.375 0.0
H446 H 0.81445 0.18109 0.30831 0.0
H447 H 0.80732 0.1816 0.3556 0.0
H448 H 0.77374 1.10388 0.26591 0.0
H449 H 0.79814 1.04813 0.24683 0.0
C450 C 0.57397 0.62573 0.68086 0.0
C451 C 0.61143 0.59371 0.69619 0.0
C452 C 0.58137 0.5213 0.64037 0.0
C453 C 0.54136 0.55113 0.62568 0.0
N454 N 0.49086 0.62389 0.6329 0.0
N455 N 0.64333 0.50474 0.69356 0.0
C456 C 0.53486 0.60089 0.64633 0.0
C457 C 0.61283 0.5395 0.67683 0.0
N458 N 0.57792 0.68152 0.69879 0.0
N459 N 0.59144 0.47761 0.61887 0.0
H460 H 0.66962 0.51879 0.71959 0.0
H461 H 0.63874 0.45918 0.68285 0.0
H462 H 0.56756 0.46135 0.59242 0.0
H463 H 0.62676 0.46075 0.62619 0.0
H464 H 0.55843 0.7123 0.68745 0.0
H465 H 0.60533 0.70049 0.72432 0.0
H466 H 0.47807 0.65478 0.64797 0.0
H467 H 0.46263 0.60767 0.60737 0.0
C468 C 0.70668 1.11049 0.59946 0.0
C469 C 0.77485 0.15793 0.58767 0.0
C470 C 0.82024 0.19257 0.65196 0.0
C471 C 0.75162 0.14714 0.66362 0.0
N472 N 0.62706 1.07379 0.64849 0.0
N473 N 0.89224 0.25512 0.60168 0.0
C474 C 0.69403 1.10965 0.6373 0.0
C475 C 0.83033 0.20235 0.61368 0.0
N476 N 0.65499 1.06333 0.57497 0.0
N477 N 0.87633 0.22422 0.67744 0.0
H478 H 0.90083 0.26433 0.57385 0.0
H479 H 0.93231 0.29377 0.61897 0.0
H480 H 0.87113 0.21919 0.70568 0.0
H481 H 0.92852 0.25121 0.67066 0.0
H482 H 0.60723 1.0218 0.58267 0.0
H483 H 0.66157 1.06216 0.54707 0.0
H484 H 0.58221 1.05156 0.63039 0.0
H485 H 0.61611 1.07143 0.67598 0.0
C486 C 0.79242 0.6474 0.93161 0.0
C487 C 0.80187 0.70765 0.91214 0.0
C488 C 0.82659 0.77176 0.97109 0.0
C489 C 0.80973 0.70933 -0.0096 0.0
N490 N 0.7702 0.58578 -0.01054 0.0
N491 N 0.82505 0.82652 0.9129 0.0
C492 C 0.79168 0.64681 0.97075 0.0
C493 C 0.81842 0.76974 0.93184 0.0
N494 N 0.78306 0.59016 0.91267 0.0
N495 N 0.85208 0.83343 -0.00964 0.0
H496 H 0.82515 0.82909 0.88432 0.0
H497 H 0.82751 0.86986 0.9252 0.0
H498 H 0.85775 0.83658 0.019 0.0
H499 H 0.87245 0.8823 0.97819 0.0
H500 H 0.78415 0.54795 0.92511 0.0
H501 H 0.77918 0.58662 0.88412 0.0
H502 H 0.7485 0.53659 0.97683 0.0
H503 H 0.76892 0.58318 0.01797 0.0
C504 C 1.1877 0.61743 0.27576 0.0
C505 C 0.24228 0.62408 0.25465 0.0
C506 C 0.29347 0.59439 0.30927 0.0
C507 C 0.2449 0.59779 0.3314 0.0
N508 N 1.15176 0.62326 0.33618 0.0
N509 N 0.35485 0.6312 0.25344 0.0
C510 C 1.19335 0.61189 0.31474 0.0
C511 C 0.29705 0.61534 0.27189 0.0
N512 N 1.12929 0.61441 0.25846 0.0
N513 N 0.33542 0.56983 0.32378 0.0
H514 H 0.36124 0.64932 0.22663 0.0
H515 H 0.39968 0.63314 0.26595 0.0
H516 H 0.33356 0.55307 0.35081 0.0
H517 H 0.36676 0.55953 0.30804 0.0
H518 H 1.0847 0.60262 0.27193 0.0
H519 H 1.12241 0.61644 0.22997 0.0
H520 H 1.11882 0.64141 0.32589 0.0
H521 H 1.15468 0.6207 0.36476 0.0
loop_
_geom_bond_atom_site_label_1
_geom_bond_atom_site_label_2
_geom_bond_distance
_geom_bond_site_symmetry_2
_ccdc_geom_bond_type
Eu0 C9 2.828 . S
Eu0 O11 2.392 1_655 S
Eu0 O13 2.418 . S
Eu0 O18 2.373 . S
Eu0 O21 2.488 . S
Eu0 O22 2.471 . S
Eu0 O23 2.349 . S
Eu1 O10 2.373 . S
Eu1 O14 2.488 . S
Eu1 O15 2.471 . S
Eu1 O16 2.349 . S
Eu1 O19 2.392 1_455 S
Eu1 O20 2.418 . S
Eu1 C30 2.828 . S
C2 O20 1.244 . S
C2 O23 1.265 1_455 S
C3 C4 1.379 . S
C3 C7 1.373 . S
C3 C9 1.505 . S
C4 C3 1.379 . S
C4 C6 1.369 . S
C4 H32 0.930 . S
C5 C7 1.383 . S
C5 C8 1.382 . S
C5 H33 0.930 . S
C6 C4 1.369 . S
C6 C8 1.392 . S
C6 H34 0.930 . S
C7 C3 1.373 . S
C7 C5 1.383 . S
C7 H35 0.931 . S
C8 C5 1.382 . S
C8 C6 1.392 . S
C9 Eu0 2.828 . S
C9 C3 1.505 . S
C9 O21 1.249 . S
C9 O22 1.244 . S
O10 Eu1 2.373 . S
O10 C12 1.258 . S
O11 Eu0 2.392 1_455 S
O11 C12 1.242 . S
C12 O10 1.258 . S
C12 O11 1.242 . S
O13 Eu0 2.418 . S
O13 C17 1.244 1_655 S
O14 Eu1 2.488 . S
O14 C30 1.249 . S
O15 Eu1 2.471 . S
O15 C30 1.244 . S
O16 Eu1 2.349 . S
O16 C17 1.265 . S
C17 O13 1.244 1_455 S
C17 O16 1.265 . S
O18 Eu0 2.373 . S
O18 C31 1.258 . S
O19 Eu1 2.392 1_655 S
O19 C31 1.242 . S
O20 Eu1 2.418 . S
O20 C2 1.244 . S
O21 Eu0 2.488 . S
O21 C9 1.249 . S
O22 Eu0 2.471 . S
O22 C9 1.244 . S
O23 Eu0 2.349 . S
O23 C2 1.265 1_655 S
C24 C25 1.379 . S
C24 C28 1.373 . S
C24 C30 1.505 . S
C25 C24 1.379 . S
C25 C27 1.369 . S
C25 H36 0.930 . S
C26 C28 1.383 . S
C26 C29 1.382 . S
C26 H37 0.930 . S
C27 C25 1.369 . S
C27 C29 1.392 . S
C27 H38 0.930 . S
C28 C24 1.373 . S
C28 C26 1.383 . S
C28 H39 0.931 . S
C29 C26 1.382 . S
C29 C27 1.392 . S
C30 Eu1 2.828 . S
C30 O14 1.249 . S
C30 O15 1.244 . S
C30 C24 1.505 . S
C31 O18 1.258 . S
C31 O19 1.242 . S
H32 C4 0.930 . S
H33 C5 0.930 . S
H34 C6 0.930 . S
H35 C7 0.931 . S
H36 C25 0.930 . S
H37 C26 0.930 . S
H38 C27 0.930 . S
H39 C28 0.931 . S
Eu40 C49 2.828 . S
Eu40 O51 2.392 1_565 S
Eu40 O53 2.418 . S
Eu40 O58 2.373 . S
Eu40 O61 2.488 . S
Eu40 O62 2.471 . S
Eu40 O63 2.349 1_565 S
Eu41 O50 2.373 . S
Eu41 O54 2.488 . S
Eu41 O55 2.471 . S
Eu41 O56 2.349 . S
Eu41 O59 2.392 1_545 S
Eu41 O60 2.418 . S
Eu41 C70 2.828 . S
C42 O60 1.244 . S
C42 O63 1.265 . S
C43 C44 1.379 . S
C43 C47 1.373 . S
C43 C49 1.505 . S
C44 C43 1.379 . S
C44 C46 1.369 . S
C44 H72 0.930 . S
C45 C47 1.383 . S
C45 C48 1.382 . S
C45 H73 0.930 . S
C46 C44 1.369 . S
C46 C48 1.392 . S
C46 H74 0.930 . S
C47 C43 1.373 . S
C47 C45 1.383 . S
C47 H75 0.931 . S
C48 C45 1.382 . S
C48 C46 1.392 . S
C49 Eu40 2.828 . S
C49 C43 1.505 . S
C49 O61 1.249 . S
C49 O62 1.244 . S
O50 Eu41 2.373 . S
O50 C52 1.258 . S
O51 Eu40 2.392 1_545 S
O51 C52 1.242 . S
C52 O50 1.258 . S
C52 O51 1.242 . S
O53 Eu40 2.418 . S
O53 C57 1.244 1_565 S
O54 Eu41 2.488 . S
O54 C70 1.249 . S
O55 Eu41 2.471 . S
O55 C70 1.244 . S
O56 Eu41 2.349 . S
O56 C57 1.265 . S
C57 O53 1.244 1_545 S
C57 O56 1.265 . S
O58 Eu40 2.373 . S
O58 C71 1.258 . S
O59 Eu41 2.392 1_565 S
O59 C71 1.242 . S
O60 Eu41 2.418 . S
O60 C42 1.244 . S
O61 Eu40 2.488 . S
O61 C49 1.249 . S
O62 Eu40 2.471 . S
O62 C49 1.244 . S
O63 Eu40 2.349 1_545 S
O63 C42 1.265 . S
C64 C65 1.379 . S
C64 C68 1.373 . S
C64 C70 1.505 . S
C65 C64 1.379 . S
C65 C67 1.369 . S
C65 H76 0.930 . S
C66 C68 1.383 . S
C66 C69 1.382 . S
C66 H77 0.930 . S
C67 C65 1.369 . S
C67 C69 1.392 . S
C67 H78 0.930 . S
C68 C64 1.373 . S
C68 C66 1.383 . S
C68 H79 0.931 . S
C69 C66 1.382 . S
C69 C67 1.392 . S
C70 Eu41 2.828 . S
C70 O54 1.249 . S
C70 O55 1.244 . S
C70 C64 1.505 . S
C71 O58 1.258 . S
C71 O59 1.242 . S
H72 C44 0.930 . S
H73 C45 0.930 . S
H74 C46 0.930 . S
H75 C47 0.931 . S
H76 C65 0.930 . S
H77 C66 0.930 . S
H78 C67 0.930 . S
H79 C68 0.931 . S
Eu80 C89 2.828 . S
Eu80 O91 2.392 . S
Eu80 O93 2.418 . S
Eu80 O98 2.373 . S
Eu80 O101 2.488 . S
Eu80 O102 2.471 . S
Eu80 O103 2.349 . S
Eu81 O90 2.373 . S
Eu81 O94 2.488 . S
Eu81 O95 2.471 . S
Eu81 O96 2.349 . S
Eu81 O99 2.392 . S
Eu81 O100 2.418 . S
Eu81 C110 2.828 . S
C82 O100 1.244 . S
C82 O103 1.265 . S
C83 C84 1.379 . S
C83 C87 1.373 . S
C83 C89 1.505 . S
C84 C83 1.379 . S
C84 C86 1.369 . S
C84 H112 0.930 . S
C85 C87 1.383 . S
C85 C88 1.382 . S
C85 H113 0.930 . S
C86 C84 1.369 . S
C86 C88 1.392 . S
C86 H114 0.930 . S
C87 C83 1.373 . S
C87 C85 1.383 . S
C87 H115 0.931 . S
C88 C85 1.382 . S
C88 C86 1.392 . S
C89 Eu80 2.828 . S
C89 C83 1.505 . S
C89 O101 1.249 . S
C89 O102 1.244 . S
O90 Eu81 2.373 . S
O90 C92 1.258 . S
O91 Eu80 2.392 . S
O91 C92 1.242 . S
C92 O90 1.258 . S
C92 O91 1.242 . S
O93 Eu80 2.418 . S
O93 C97 1.244 . S
O94 Eu81 2.488 . S
O94 C110 1.249 . S
O95 Eu81 2.471 . S
O95 C110 1.244 . S
O96 Eu81 2.349 . S
O96 C97 1.265 . S
C97 O93 1.244 . S
C97 O96 1.265 . S
O98 Eu80 2.373 . S
O98 C111 1.258 . S
O99 Eu81 2.392 . S
O99 C111 1.242 . S
O100 Eu81 2.418 . S
O100 C82 1.244 . S
O101 Eu80 2.488 . S
O101 C89 1.249 . S
O102 Eu80 2.471 . S
O102 C89 1.244 . S
O103 Eu80 2.349 . S
O103 C82 1.265 . S
C104 C105 1.379 . S
C104 C108 1.373 . S
C104 C110 1.505 . S
C105 C104 1.379 . S
C105 C107 1.369 . S
C105 H116 0.930 . S
C106 C108 1.383 . S
C106 C109 1.382 . S
C106 H117 0.930 . S
C107 C105 1.369 . S
C107 C109 1.392 . S
C107 H118 0.930 . S
C108 C104 1.373 . S
C108 C106 1.383 . S
C108 H119 0.931 . S
C109 C106 1.382 . S
C109 C107 1.392 . S
C110 Eu81 2.828 . S
C110 O94 1.249 . S
C110 O95 1.244 . S
C110 C104 1.505 . S
C111 O98 1.258 . S
C111 O99 1.242 . S
H112 C84 0.930 . S
H113 C85 0.930 . S
H114 C86 0.930 . S
H115 C87 0.931 . S
H116 C105 0.930 . S
H117 C106 0.930 . S
H118 C107 0.930 . S
H119 C108 0.931 . S
H120 C127 0.929 . S
H121 C130 0.930 1_565 S
H122 C132 0.929 . S
H123 C124 0.969 . S
C124 H123 0.969 . S
C124 O125 1.550 . S
C124 H126 0.973 . S
O125 C124 1.550 . S
O125 C131 1.412 1_565 S
H126 C124 0.973 . S
C127 H120 0.929 . S
C127 C128 1.400 . S
C127 C129 1.364 . S
C128 C127 1.400 . S
C128 C132 1.377 . S
C129 C127 1.364 . S
C129 C130 1.374 . S
C130 H121 0.930 1_545 S
C130 C129 1.374 . S
C130 C131 1.383 . S
C131 O125 1.412 1_545 S
C131 C130 1.383 . S
C131 C132 1.394 . S
C132 H122 0.929 . S
C132 C128 1.377 . S
C132 C131 1.394 . S
H133 C140 0.929 . S
H134 C143 0.930 . S
H135 C145 0.929 . S
H136 C137 0.969 . S
C137 H136 0.969 . S
C137 O138 1.550 . S
C137 H139 0.973 . S
O138 C137 1.550 . S
O138 C144 1.412 . S
H139 C137 0.973 . S
C140 H133 0.929 . S
C140 C141 1.400 . S
C140 C142 1.364 . S
C141 C140 1.400 . S
C141 C145 1.377 . S
C142 C140 1.364 . S
C142 C143 1.374 . S
C143 H134 0.930 . S
C143 C142 1.374 . S
C143 C144 1.383 . S
C144 O138 1.412 . S
C144 C143 1.383 . S
C144 C145 1.394 . S
C145 H135 0.929 . S
C145 C141 1.377 . S
C145 C144 1.394 . S
H146 C153 0.929 1_655 S
H147 C156 0.930 . S
H148 C158 0.929 . S
H149 C150 0.969 . S
C150 H149 0.969 . S
C150 O151 1.550 . S
C150 H152 0.973 . S
O151 C150 1.550 . S
O151 C157 1.412 . S
H152 C150 0.973 . S
C153 H146 0.929 1_455 S
C153 C154 1.400 . S
C153 C155 1.364 . S
C154 C153 1.400 . S
C154 C158 1.377 . S
C155 C153 1.364 . S
C155 C156 1.374 . S
C156 H147 0.930 . S
C156 C155 1.374 . S
C156 C157 1.383 . S
C157 O151 1.412 . S
C157 C156 1.383 . S
C157 C158 1.394 . S
C158 H148 0.929 . S
C158 C154 1.377 . S
C158 C157 1.394 . S
H159 C166 0.929 1_655 S
H160 C169 0.930 . S
H161 C171 0.929 . S
H162 C163 0.969 . S
C163 H162 0.969 . S
C163 O164 1.550 . S
C163 H165 0.973 . S
O164 C163 1.550 . S
O164 C170 1.412 . S
H165 C163 0.973 . S
C166 H159 0.929 1_455 S
C166 C167 1.400 . S
C166 C168 1.364 . S
C167 C166 1.400 . S
C167 C171 1.377 . S
C168 C166 1.364 . S
C168 C169 1.374 . S
C169 H160 0.930 . S
C169 C168 1.374 . S
C169 C170 1.383 . S
C170 O164 1.412 . S
C170 C169 1.383 . S
C170 C171 1.394 . S
C171 H161 0.929 . S
C171 C167 1.377 . S
C171 C170 1.394 . S
H172 C179 0.929 . S
H173 C182 0.930 . S
H174 C184 0.929 . S
H175 C176 0.969 . S
C176 H175 0.969 . S
C176 O177 1.550 . S
C176 H178 0.973 . S
O177 C176 1.550 . S
O177 C183 1.412 . S
H178 C176 0.973 . S
C179 H172 0.929 . S
C179 C180 1.400 . S
C179 C181 1.364 1_565 S
C180 C179 1.400 . S
C180 C184 1.377 1_565 S
C181 C179 1.364 1_545 S
C181 C182 1.374 . S
C182 H173 0.930 . S
C182 C181 1.374 . S
C182 C183 1.383 . S
C183 O177 1.412 . S
C183 C182 1.383 . S
C183 C184 1.394 . S
C184 H174 0.929 . S
C184 C180 1.377 1_545 S
C184 C183 1.394 . S
H185 C192 0.929 . S
H186 C195 0.930 . S
H187 C197 0.929 . S
H188 C189 0.969 . S
C189 H188 0.969 . S
C189 O190 1.550 . S
C189 H191 0.973 . S
O190 C189 1.550 . S
O190 C196 1.412 . S
H191 C189 0.973 . S
C192 H185 0.929 . S
C192 C193 1.400 . S
C192 C194 1.364 . S
C193 C192 1.400 . S
C193 C197 1.377 . S
C194 C192 1.364 . S
C194 C195 1.374 . S
C195 H186 0.930 . S
C195 C194 1.374 . S
C195 C196 1.383 . S
C196 O190 1.412 . S
C196 C195 1.383 . S
C196 C197 1.394 . S
C197 H187 0.929 . S
C197 C193 1.377 . S
C197 C196 1.394 . S
C198 C199 1.363 . S
C198 C204 1.379 . S
C198 N206 1.356 . S
C199 C198 1.363 . S
C199 C205 1.363 . S
C200 C201 1.363 . S
C200 C205 1.379 . S
C200 N207 1.356 . S
C201 C200 1.363 . S
C201 C204 1.363 . S
N202 C204 1.356 . S
N202 H214 0.984 . S
N202 H215 0.985 . S
N203 C205 1.356 . S
N203 H208 0.984 . S
N203 H209 0.985 . S
C204 C198 1.379 . S
C204 C201 1.363 . S
C204 N202 1.356 . S
C205 C199 1.363 . S
C205 C200 1.379 . S
C205 N203 1.356 . S
N206 C198 1.356 . S
N206 H212 0.984 . S
N206 H213 0.984 . S
N207 C200 1.356 . S
N207 H210 0.984 . S
N207 H211 0.985 . S
H208 N203 0.984 . S
H209 N203 0.985 . S
H210 N207 0.984 . S
H211 N207 0.985 . S
H212 N206 0.984 . S
H213 N206 0.984 . S
H214 N202 0.984 . S
H215 N202 0.985 . S
C216 C217 1.363 . S
C216 C222 1.379 . S
C216 N224 1.356 . S
C217 C216 1.363 . S
C217 C223 1.363 . S
C218 C219 1.363 . S
C218 C223 1.379 . S
C218 N225 1.356 . S
C219 C218 1.363 . S
C219 C222 1.363 . S
N220 C222 1.356 . S
N220 H232 0.984 . S
N220 H233 0.985 . S
N221 C223 1.356 . S
N221 H226 0.984 . S
N221 H227 0.985 . S
C222 C216 1.379 . S
C222 C219 1.363 . S
C222 N220 1.356 . S
C223 C217 1.363 . S
C223 C218 1.379 . S
C223 N221 1.356 . S
N224 C216 1.356 . S
N224 H230 0.984 . S
N224 H231 0.984 . S
N225 C218 1.356 . S
N225 H228 0.984 . S
N225 H229 0.985 . S
H226 N221 0.984 . S
H227 N221 0.985 . S
H228 N225 0.984 . S
H229 N225 0.985 . S
H230 N224 0.984 . S
H231 N224 0.984 . S
H232 N220 0.984 . S
H233 N220 0.985 . S
C234 C235 1.363 . S
C234 C240 1.379 . S
C234 N242 1.356 . S
C235 C234 1.363 . S
C235 C241 1.363 . S
C236 C237 1.363 . S
C236 C241 1.379 . S
C236 N243 1.356 . S
C237 C236 1.363 . S
C237 C240 1.363 . S
N238 C240 1.356 . S
N238 H250 0.984 . S
N238 H251 0.985 . S
N239 C241 1.356 . S
N239 H244 0.984 . S
N239 H245 0.985 . S
C240 C234 1.379 . S
C240 C237 1.363 . S
C240 N238 1.356 . S
C241 C235 1.363 . S
C241 C236 1.379 . S
C241 N239 1.356 . S
N242 C234 1.356 . S
N242 H248 0.984 . S
N242 H249 0.984 . S
N243 C236 1.356 . S
N243 H246 0.984 . S
N243 H247 0.985 . S
H244 N239 0.984 . S
H245 N239 0.985 . S
H246 N243 0.984 . S
H247 N243 0.985 . S
H248 N242 0.984 . S
H249 N242 0.984 . S
H250 N238 0.984 . S
H251 N238 0.985 . S
C252 C253 1.363 . S
C252 C258 1.379 . S
C252 N260 1.356 . S
C253 C252 1.363 . S
C253 C259 1.363 . S
C254 C255 1.363 . S
C254 C259 1.379 . S
C254 N261 1.356 . S
C255 C254 1.363 . S
C255 C258 1.363 . S
N256 C258 1.356 . S
N256 H268 0.984 . S
N256 H269 0.985 . S
N257 C259 1.356 . S
N257 H262 0.984 . S
N257 H263 0.985 . S
C258 C252 1.379 . S
C258 C255 1.363 . S
C258 N256 1.356 . S
C259 C253 1.363 . S
C259 C254 1.379 . S
C259 N257 1.356 . S
N260 C252 1.356 . S
N260 H266 0.984 . S
N260 H267 0.984 . S
N261 C254 1.356 . S
N261 H264 0.984 . S
N261 H265 0.985 . S
H262 N257 0.984 . S
H263 N257 0.985 . S
H264 N261 0.984 . S
H265 N261 0.985 . S
H266 N260 0.984 . S
H267 N260 0.984 . S
H268 N256 0.984 . S
H269 N256 0.985 . S
C270 C271 1.363 . S
C270 C276 1.379 . S
C270 N278 1.356 . S
C271 C270 1.363 . S
C271 C277 1.363 . S
C272 C273 1.363 . S
C272 C277 1.379 . S
C272 N279 1.356 . S
C273 C272 1.363 . S
C273 C276 1.363 . S
N274 C276 1.356 . S
N274 H286 0.984 . S
N274 H287 0.985 . S
N275 C277 1.356 . S
N275 H280 0.984 . S
N275 H281 0.985 . S
C276 C270 1.379 . S
C276 C273 1.363 . S
C276 N274 1.356 . S
C277 C271 1.363 . S
C277 C272 1.379 . S
C277 N275 1.356 . S
N278 C270 1.356 . S
N278 H284 0.984 . S
N278 H285 0.984 . S
N279 C272 1.356 . S
N279 H282 0.984 . S
N279 H283 0.985 . S
H280 N275 0.984 . S
H281 N275 0.985 . S
H282 N279 0.984 . S
H283 N279 0.985 . S
H284 N278 0.984 . S
H285 N278 0.984 . S
H286 N274 0.984 . S
H287 N274 0.985 . S
C288 C289 1.363 . S
C288 C294 1.379 . S
C288 N296 1.356 . S
C289 C288 1.363 . S
C289 C295 1.363 . S
C290 C291 1.363 . S
C290 C295 1.379 . S
C290 N297 1.356 . S
C291 C290 1.363 . S
C291 C294 1.363 . S
N292 C294 1.356 . S
N292 H304 0.984 . S
N292 H305 0.985 . S
N293 C295 1.356 . S
N293 H298 0.984 . S
N293 H299 0.985 . S
C294 C288 1.379 . S
C294 C291 1.363 . S
C294 N292 1.356 . S
C295 C289 1.363 . S
C295 C290 1.379 . S
C295 N293 1.356 . S
N296 C288 1.356 . S
N296 H302 0.984 . S
N296 H303 0.984 . S
N297 C290 1.356 . S
N297 H300 0.984 . S
N297 H301 0.985 . S
H298 N293 0.984 . S
H299 N293 0.985 . S
H300 N297 0.984 . S
H301 N297 0.985 . S
H302 N296 0.984 . S
H303 N296 0.984 . S
H304 N292 0.984 . S
H305 N292 0.985 . S
C306 C307 1.363 . S
C306 C312 1.379 . S
C306 N314 1.356 . S
C307 C306 1.363 . S
C307 C313 1.363 . S
C308 C309 1.363 . S
C308 C313 1.379 . S
C308 N315 1.356 . S
C309 C308 1.363 . S
C309 C312 1.363 . S
N310 C312 1.356 . S
N310 H322 0.984 . S
N310 H323 0.985 . S
N311 C313 1.356 . S
N311 H316 0.984 . S
N311 H317 0.985 . S
C312 C306 1.379 . S
C312 C309 1.363 . S
C312 N310 1.356 . S
C313 C307 1.363 . S
C313 C308 1.379 . S
C313 N311 1.356 . S
N314 C306 1.356 . S
N314 H320 0.984 . S
N314 H321 0.984 . S
N315 C308 1.356 . S
N315 H318 0.984 . S
N315 H319 0.985 . S
H316 N311 0.984 . S
H317 N311 0.985 . S
H318 N315 0.984 . S
H319 N315 0.985 . S
H320 N314 0.984 . S
H321 N314 0.984 . S
H322 N310 0.984 . S
H323 N310 0.985 . S
C324 C325 1.363 . S
C324 C330 1.379 . S
C324 N332 1.356 . S
C325 C324 1.363 . S
C325 C331 1.363 . S
C326 C327 1.363 1_455 S
C326 C331 1.379 1_455 S
C326 N333 1.356 . S
C327 C326 1.363 1_655 S
C327 C330 1.363 . S
N328 C330 1.356 . S
N328 H340 0.984 . S
N328 H341 0.985 . S
N329 C331 1.356 . S
N329 H334 0.984 . S
N329 H335 0.985 1_655 S
C330 C324 1.379 . S
C330 C327 1.363 . S
C330 N328 1.356 . S
C331 C325 1.363 . S
C331 C326 1.379 1_655 S
C331 N329 1.356 . S
N332 C324 1.356 . S
N332 H338 0.984 . S
N332 H339 0.984 . S
N333 C326 1.356 . S
N333 H336 0.984 . S
N333 H337 0.985 . S
H334 N329 0.984 . S
H335 N329 0.985 1_455 S
H336 N333 0.984 . S
H337 N333 0.985 . S
H338 N332 0.984 . S
H339 N332 0.984 . S
H340 N328 0.984 . S
H341 N328 0.985 . S
C342 C343 1.363 . S
C342 C348 1.379 . S
C342 N350 1.356 . S
C343 C342 1.363 . S
C343 C349 1.363 . S
C344 C345 1.363 . S
C344 C349 1.379 . S
C344 N351 1.356 . S
C345 C344 1.363 . S
C345 C348 1.363 . S
N346 C348 1.356 . S
N346 H358 0.984 . S
N346 H359 0.985 . S
N347 C349 1.356 . S
N347 H352 0.984 . S
N347 H353 0.985 . S
C348 C342 1.379 . S
C348 C345 1.363 . S
C348 N346 1.356 . S
C349 C343 1.363 . S
C349 C344 1.379 . S
C349 N347 1.356 . S
N350 C342 1.356 . S
N350 H356 0.984 . S
N350 H357 0.984 . S
N351 C344 1.356 . S
N351 H354 0.984 . S
N351 H355 0.985 . S
H352 N347 0.984 . S
H353 N347 0.985 . S
H354 N351 0.984 . S
H355 N351 0.985 . S
H356 N350 0.984 . S
H357 N350 0.984 . S
H358 N346 0.984 . S
H359 N346 0.985 . S
C360 C361 1.363 . S
C360 C366 1.379 . S
C360 N368 1.356 . S
C361 C360 1.363 . S
C361 C367 1.363 . S
C362 C363 1.363 . S
C362 C367 1.379 . S
C362 N369 1.356 . S
C363 C362 1.363 . S
C363 C366 1.363 . S
N364 C366 1.356 . S
N364 H376 0.984 . S
N364 H377 0.985 . S
N365 C367 1.356 . S
N365 H370 0.984 . S
N365 H371 0.985 . S
C366 C360 1.379 . S
C366 C363 1.363 . S
C366 N364 1.356 . S
C367 C361 1.363 . S
C367 C362 1.379 . S
C367 N365 1.356 . S
N368 C360 1.356 . S
N368 H374 0.984 . S
N368 H375 0.984 . S
N369 C362 1.356 . S
N369 H372 0.984 . S
N369 H373 0.985 . S
H370 N365 0.984 . S
H371 N365 0.985 . S
H372 N369 0.984 . S
H373 N369 0.985 . S
H374 N368 0.984 . S
H375 N368 0.984 . S
H376 N364 0.984 . S
H377 N364 0.985 . S
C378 C379 1.363 . S
C378 C384 1.379 . S
C378 N386 1.356 . S
C379 C378 1.363 . S
C379 C385 1.363 . S
C380 C381 1.363 . S
C380 C385 1.379 . S
C380 N387 1.356 . S
C381 C380 1.363 . S
C381 C384 1.363 . S
N382 C384 1.356 . S
N382 H394 0.984 . S
N382 H395 0.985 . S
N383 C385 1.356 . S
N383 H388 0.984 . S
N383 H389 0.985 . S
C384 C378 1.379 . S
C384 C381 1.363 . S
C384 N382 1.356 . S
C385 C379 1.363 . S
C385 C380 1.379 . S
C385 N383 1.356 . S
N386 C378 1.356 . S
N386 H392 0.984 . S
N386 H393 0.984 . S
N387 C380 1.356 . S
N387 H390 0.984 . S
N387 H391 0.985 . S
H388 N383 0.984 . S
H389 N383 0.985 . S
H390 N387 0.984 . S
H391 N387 0.985 . S
H392 N386 0.984 . S
H393 N386 0.984 . S
H394 N382 0.984 . S
H395 N382 0.985 . S
C396 C397 1.363 . S
C396 C402 1.379 . S
C396 N404 1.356 . S
C397 C396 1.363 . S
C397 C403 1.363 . S
C398 C399 1.363 . S
C398 C403 1.379 . S
C398 N405 1.356 . S
C399 C398 1.363 . S
C399 C402 1.363 . S
N400 C402 1.356 . S
N400 H412 0.984 . S
N400 H413 0.985 . S
N401 C403 1.356 . S
N401 H406 0.984 . S
N401 H407 0.985 . S
C402 C396 1.379 . S
C402 C399 1.363 . S
C402 N400 1.356 . S
C403 C397 1.363 . S
C403 C398 1.379 . S
C403 N401 1.356 . S
N404 C396 1.356 . S
N404 H410 0.984 . S
N404 H411 0.984 . S
N405 C398 1.356 . S
N405 H408 0.984 . S
N405 H409 0.985 . S
H406 N401 0.984 . S
H407 N401 0.985 . S
H408 N405 0.984 . S
H409 N405 0.985 . S
H410 N404 0.984 . S
H411 N404 0.984 . S
H412 N400 0.984 . S
H413 N400 0.985 . S
C414 C415 1.363 . S
C414 C420 1.379 1_554 S
C414 N422 1.356 . S
C415 C414 1.363 . S
C415 C421 1.363 . S
C416 C417 1.363 . S
C416 C421 1.379 1_556 S
C416 N423 1.356 . S
C417 C416 1.363 . S
C417 C420 1.363 . S
N418 C420 1.356 . S
N418 H430 0.984 . S
N418 H431 0.985 . S
N419 C421 1.356 . S
N419 H424 0.984 1_455 S
N419 H425 0.983 1_455 S
C420 C414 1.379 1_556 S
C420 C417 1.363 . S
C420 N418 1.356 . S
C421 C415 1.363 . S
C421 C416 1.379 1_554 S
C421 N419 1.356 . S
N422 C414 1.356 . S
N422 H428 0.984 . S
N422 H429 0.984 . S
N423 C416 1.356 . S
N423 H426 0.984 . S
N423 H427 0.985 . S
H424 N419 0.984 1_655 S
H425 N419 0.983 1_655 S
H426 N423 0.984 . S
H427 N423 0.985 . S
H428 N422 0.984 . S
H429 N422 0.984 . S
H430 N418 0.984 . S
H431 N418 0.985 . S
C432 C433 1.363 . S
C432 C438 1.379 . S
C432 N440 1.356 . S
C433 C432 1.363 . S
C433 C439 1.363 1_545 S
C434 C435 1.383 . S
C434 C439 1.373 1_545 S
C434 N441 1.347 1_545 S
C435 C434 1.383 . S
C435 C438 1.363 . S
N436 C438 1.356 . S
N436 H448 0.984 . S
N436 H449 0.985 . S
N437 C439 1.356 . S
N437 H442 0.984 . S
N437 H443 0.985 . S
C438 C432 1.379 . S
C438 C435 1.363 . S
C438 N436 1.356 . S
C439 C433 1.363 1_565 S
C439 C434 1.373 1_565 S
C439 N437 1.356 . S
N440 C432 1.356 . S
N440 H446 0.984 . S
N440 H447 0.984 . S
N441 C434 1.347 1_565 S
N441 H444 0.984 . S
N441 H445 0.985 . S
H442 N437 0.984 . S
H443 N437 0.985 . S
H444 N441 0.984 . S
H445 N441 0.985 . S
H446 N440 0.984 . S
H447 N440 0.984 . S
H448 N436 0.984 . S
H449 N436 0.985 . S
C450 C451 1.363 . S
C450 C456 1.379 . S
C450 N458 1.356 . S
C451 C450 1.363 . S
C451 C457 1.363 . S
C452 C453 1.363 . S
C452 C457 1.379 . S
C452 N459 1.356 . S
C453 C452 1.363 . S
C453 C456 1.363 . S
N454 C456 1.356 . S
N454 H466 0.984 . S
N454 H467 0.985 . S
N455 C457 1.356 . S
N455 H460 0.984 . S
N455 H461 0.985 . S
C456 C450 1.379 . S
C456 C453 1.363 . S
C456 N454 1.356 . S
C457 C451 1.363 . S
C457 C452 1.379 . S
C457 N455 1.356 . S
N458 C450 1.356 . S
N458 H464 0.984 . S
N458 H465 0.984 . S
N459 C452 1.356 . S
N459 H462 0.984 . S
N459 H463 0.985 . S
H460 N455 0.984 . S
H461 N455 0.985 . S
H462 N459 0.984 . S
H463 N459 0.985 . S
H464 N458 0.984 . S
H465 N458 0.984 . S
H466 N454 0.984 . S
H467 N454 0.985 . S
C468 C469 1.363 1_565 S
C468 C474 1.379 . S
C468 N476 1.356 . S
C469 C468 1.363 1_545 S
C469 C475 1.363 . S
C470 C471 1.363 . S
C470 C475 1.379 . S
C470 N477 1.356 . S
C471 C470 1.363 . S
C471 C474 1.363 1_545 S
N472 C474 1.356 . S
N472 H484 0.984 . S
N472 H485 0.985 . S
N473 C475 1.356 . S
N473 H478 0.984 . S
N473 H479 0.985 . S
C474 C468 1.379 . S
C474 C471 1.363 1_565 S
C474 N472 1.356 . S
C475 C469 1.363 . S
C475 C470 1.379 . S
C475 N473 1.356 . S
N476 C468 1.356 . S
N476 H482 0.984 . S
N476 H483 0.984 . S
N477 C470 1.356 . S
N477 H480 0.984 . S
N477 H481 0.985 . S
H478 N473 0.984 . S
H479 N473 0.985 . S
H480 N477 0.984 . S
H481 N477 0.985 . S
H482 N476 0.984 . S
H483 N476 0.984 . S
H484 N472 0.984 . S
H485 N472 0.985 . S
C486 C487 1.363 . S
C486 C492 1.379 . S
C486 N494 1.356 . S
C487 C486 1.363 . S
C487 C493 1.363 . S
C488 C489 1.363 . S
C488 C493 1.379 1_554 S
C488 N495 1.356 . S
C489 C488 1.363 . S
C489 C492 1.363 1_554 S
N490 C492 1.356 1_554 S
N490 H502 0.984 . S
N490 H503 0.985 . S
N491 C493 1.356 . S
N491 H496 0.984 . S
N491 H497 0.985 . S
C492 C486 1.379 . S
C492 C489 1.363 1_556 S
C492 N490 1.356 1_556 S
C493 C487 1.363 . S
C493 C488 1.379 1_556 S
C493 N491 1.356 . S
N494 C486 1.356 . S
N494 H500 0.984 . S
N494 H501 0.984 . S
N495 C488 1.356 . S
N495 H498 0.984 . S
N495 H499 0.985 . S
H496 N491 0.984 . S
H497 N491 0.985 . S
H498 N495 0.984 . S
H499 N495 0.985 . S
H500 N494 0.984 . S
H501 N494 0.984 . S
H502 N490 0.984 . S
H503 N490 0.985 . S
C504 C505 1.363 1_655 S
C504 C510 1.379 . S
C504 N512 1.356 . S
C505 C504 1.363 1_455 S
C505 C511 1.363 . S
C506 C507 1.363 . S
C506 C511 1.379 . S
C506 N513 1.356 . S
C507 C506 1.363 . S
C507 C510 1.363 1_455 S
N508 C510 1.356 . S
N508 H520 0.984 . S
N508 H521 0.985 . S
N509 C511 1.356 . S
N509 H514 0.984 . S
N509 H515 0.985 . S
C510 C504 1.379 . S
C510 C507 1.363 1_655 S
C510 N508 1.356 . S
C511 C505 1.363 . S
C511 C506 1.379 . S
C511 N509 1.356 . S
N512 C504 1.356 . S
N512 H518 0.984 . S
N512 H519 0.984 . S
N513 C506 1.356 . S
N513 H516 0.984 . S
N513 H517 0.985 . S
H514 N509 0.984 . S
H515 N509 0.985 . S
H516 N513 0.984 . S
H517 N513 0.985 . S
H518 N512 0.984 . S
H519 N512 0.984 . S
H520 N508 0.984 . S
H521 N508 0.985 . S
C199 C12 3.063 . S
C201 C189 2.860 . S
C217 C52 2.978 . S
C219 C167 2.942 1_655 S
C235 C111 3.006 . S
C237 C180 2.964 . S
C253 C31 3.087 . S
C255 C193 3.038 . S
C273 C163 2.949 . S
C271 C71 3.178 . S
C291 C176 2.926 . S
C289 C92 3.148 . S
C307 C48 0.550 . S
C309 C141 0.460 . S
C325 C109 0.668 . S
C327 C154 0.566 1_655 S
C343 C29 0.790 . S
C345 C124 0.838 . S
C363 C137 0.713 . S
C361 C69 0.733 . S
C381 C150 0.561 . S
C379 C88 0.627 . S
C397 C8 0.557 . S
C399 C128 0.494 . S
C417 C155 1.141 . S
C415 C17 1.131 . S
C433 C57 1.200 . S
C435 C129 1.191 . S
C451 C97 1.100 . S
C453 C142 1.132 . S
C471 C181 1.837 . S
C469 C42 1.732 . S
C489 C194 1.785 . S
C487 C82 1.762 . S
C505 C2 1.742 . S
C507 C168 1.815 . S
