# Generated by pormake.
# Topology pts, (4,4)-cn, num edge types: 1
# Building blocks:
#     Node 0, Type 0, BuildingBlock: NAWXER_clean_linker_0, # of connection points: 4
#     Node 1, Type 0, BuildingBlock: NAWXER_clean_linker_0, # of connection points: 4
#     Node 2, Type 1, BuildingBlock: AZAVOO_clean_sbu_0, # of connection points: 4
#     Node 3, Type 1, BuildingBlock: AZAVOO_clean_sbu_0, # of connection points: 4
#     Edge 4, Type (0, 1), BuildingBlock: KIFKEQ_clean_linker_1, # of connection points: 2
#     Edge 5, Type (0, 1), BuildingBlock: KIFKEQ_clean_linker_1, # of connection points: 2
#     Edge 6, Type (0, 1), BuildingBlock: KIFKEQ_clean_linker_1, # of connection points: 2
#     Edge 7, Type (0, 1), BuildingBlock: KIFKEQ_clean_linker_1, # of connection points: 2
#     Edge 8, Type (0, 1), BuildingBlock: KIFKEQ_clean_linker_1, # of connection points: 2
#     Edge 9, Type (0, 1), BuildingBlock: KIFKEQ_clean_linker_1, # of connection points: 2
#     Edge 10, Type (0, 1), BuildingBlock: KIFKEQ_clean_linker_1, # of connection points: 2
#     Edge 11, Type (0, 1), BuildingBlock: KIFKEQ_clean_linker_1, # of connection points: 2
# Relax obj value: 0.000
# Max RMSD: 0.035
# Mean RMSD: 0.020
data_MOF--net-pts--node1-AZAVOO_clean_sbu_0--node2-NAWXER_clean_linker_0--edge1-KIFKEQ_clean_linker_1
_symmetry_space_group_name_H-M    P1
_symmetry_Int_Tables_number       1
_symmetry_cell_setting            triclinic
loop_
_symmetry_equiv_pos_as_xyz
'x, y, z'
_cell_length_a     29.75705
_cell_length_b     30.790989
_cell_length_c     42.549354
_cell_angle_alpha  89.787255
_cell_angle_beta   96.213051
_cell_angle_gamma 89.582724
loop_
_atom_site_label
_atom_site_type_symbol
_atom_site_fract_x
_atom_site_fract_y
_atom_site_fract_z
_atom_type_partial_charge
C0 C 0.67509 0.06033 0.96499 0.0
C1 C 0.67779 0.03183 0.93949 0.0
C2 C 0.64017 0.05654 0.98437 0.0
C3 C 0.6076 0.02381 0.97887 0.0
C4 C 0.6452 -0.00097 0.93418 0.0
C5 C 0.61037 -0.00474 0.95353 0.0
C6 C 0.56881 0.02093 0.99789 0.0
C7 C 0.69165 -0.00961 0.06598 0.0
C8 C 0.69676 0.01531 0.09367 0.0
C9 C 0.65176 -0.00686 0.04537 0.0
C10 C 0.61685 0.02199 0.05154 0.0
C11 C 0.66188 0.04387 0.09997 0.0
C12 C 0.62242 0.04726 0.07909 0.0
C13 C 0.57294 0.02331 0.03124 0.0
C14 C 0.38294 -0.00421 0.06444 0.0
C15 C 0.38187 0.02823 0.08756 0.0
C16 C 0.41858 -0.00625 0.04549 0.0
C17 C 0.45329 0.02467 0.0489 0.0
C18 C 0.41685 0.05884 0.09102 0.0
C19 C 0.45218 0.05698 0.07198 0.0
C20 C 0.49227 0.02273 0.02997 0.0
C21 C 0.36814 0.04019 0.95908 0.0
C22 C 0.36449 0.00947 0.93461 0.0
C23 C 0.40815 0.04335 0.97954 0.0
C24 C 0.44463 0.0149 0.97644 0.0
C25 C 0.4011 0.98142 0.93138 0.0
C26 C 0.44066 0.98409 0.95207 0.0
C27 C 0.48826 0.01838 0.99671 0.0
H28 H 0.69919 0.08636 0.96944 0.0
H29 H 0.63809 0.07979 1.0032 0.0
H30 H 0.64659 0.97616 0.91502 0.0
H31 H 0.58553 0.96994 0.9487 0.0
H32 H 0.71779 0.96759 0.06092 0.0
H33 H 0.64784 0.97175 0.02515 0.0
H34 H 0.66508 0.06345 0.12119 0.0
H35 H 0.59596 0.06937 0.08467 0.0
H36 H 0.35685 0.97135 0.06156 0.0
H37 H 0.41932 0.96769 0.02853 0.0
H38 H 0.41682 0.08445 0.10841 0.0
H39 H 0.47868 0.081 0.07522 0.0
H40 H 0.34058 0.06258 0.96175 0.0
H41 H 0.41079 0.06851 0.99732 0.0
H42 H 0.39908 0.95732 0.9128 0.0
H43 H 0.46837 0.96204 0.94896 0.0
N44 N 0.52674 0.01784 0.98211 0.0
N45 N 0.53443 0.02483 0.0458 0.0
C46 C 0.04547 0.63908 0.57599 0.0
C47 C 0.01129 0.64251 0.59629 0.0
C48 C 0.04579 0.60465 0.55473 0.0
C49 C 0.01164 0.57327 0.5531 0.0
C50 C 0.97718 0.61101 0.59457 0.0
C51 C 0.97751 0.57662 0.5733 0.0
C52 C 0.01366 0.53457 0.53286 0.0
C53 C 0.99556 0.64827 0.46513 0.0
C54 C 0.02781 0.65116 0.44332 0.0
C55 C 0.99344 0.61126 0.48409 0.0
C56 C 0.02426 0.57679 0.48221 0.0
C57 C 0.05805 0.61623 0.44119 0.0
C58 C 0.05635 0.57966 0.46043 0.0
C59 C 0.02161 0.53613 0.50071 0.0
C60 C 0.00666 0.34745 0.46152 0.0
C61 C 0.03714 0.3485 0.43839 0.0
C62 C 0.00259 0.38274 0.48159 0.0
C63 C 0.03008 0.4194 0.47989 0.0
C64 C 0.06423 0.38547 0.43651 0.0
C65 C 0.06084 0.42033 0.45706 0.0
C66 C 0.02464 0.45849 0.49954 0.0
C67 C 0.05765 0.35376 0.57367 0.0
C68 C 0.01969 0.34169 0.58877 0.0
C69 C 0.05633 0.39078 0.55452 0.0
C70 C 0.01733 0.41681 0.55043 0.0
C71 C 0.9807 0.36818 0.58457 0.0
C72 C 0.97981 0.40569 0.56593 0.0
C73 C 0.01653 0.45713 0.53164 0.0
H74 H 0.07267 0.66239 0.57712 0.0
H75 H 0.07335 0.60196 0.54017 0.0
H76 H 0.95012 0.61298 0.60962 0.0
H77 H 0.95114 0.55246 0.57269 0.0
H78 H 0.97187 0.67457 0.46761 0.0
H79 H 0.96719 0.60941 0.49977 0.0
H80 H 0.08261 0.61663 0.4242 0.0
H81 H 0.08008 0.55331 0.45809 0.0
H82 H 0.98556 0.31946 0.4641 0.0
H83 H 0.97705 0.38155 0.49782 0.0
H84 H 0.08741 0.3881 0.41868 0.0
H85 H 0.08201 0.44841 0.4548 0.0
H86 H 0.0887 0.33497 0.57689 0.0
H87 H 0.08602 0.39949 0.5433 0.0
H88 H 0.95053 0.35973 0.59526 0.0
H89 H 0.94952 0.4257 0.5632 0.0
N90 N 0.01115 0.49512 0.54692 0.0
N91 N 0.02685 0.49799 0.4855 0.0
Mg92 Mg 0.07727 0.98591 0.28152 0.0
O93 O 0.0068 -0.01242 0.25255 0.0
O94 O 0.9562 -0.01338 0.28782 0.0
Mg95 Mg 0.99209 0.98075 0.33769 0.0
C96 C 0.96597 -0.01154 0.25936 0.0
C97 C 0.14639 0.02926 0.24148 0.0
O98 O 0.1581 0.0467 0.26927 0.0
O99 O 0.06865 0.05667 0.29642 0.0
O100 O 0.01868 0.04964 0.33193 0.0
O101 O 0.07885 0.91339 0.28142 0.0
O102 O 0.05097 0.95263 0.3181 0.0
C103 C 0.04458 0.07266 0.3167 0.0
C104 C 0.05897 0.91486 0.307 0.0
O105 O 0.11228 0.0044 0.23815 0.0
Mg106 Mg 0.98149 0.98142 0.75093 0.0
O107 O 0.05209 0.98231 0.7792 0.0
O108 O 0.10156 0.96737 0.74457 0.0
Mg109 Mg 0.06428 0.95557 0.69552 0.0
C110 C 0.09259 0.97649 0.77251 0.0
C111 C 0.91107 0.03145 0.78515 0.0
O112 O 0.89628 0.03815 0.75528 0.0
O113 O 0.9953 0.04762 0.72883 0.0
O114 O 0.03992 0.02606 0.69261 0.0
O115 O 0.97421 0.90934 0.75843 0.0
O116 O 0.00502 0.93862 0.71866 0.0
C117 C 0.01722 0.05537 0.70519 0.0
C118 C 0.99453 0.90424 0.73331 0.0
O119 O 0.94836 0.01131 0.79177 0.0
H120 H 0.29061 0.01884 0.07165 0.0
H121 H 0.39048 0.04058 0.15133 0.0
H122 H 0.23072 0.0227 0.10666 0.0
H123 H 0.33115 0.04363 0.18631 0.0
H124 H 0.21618 0.08566 0.23873 0.0
H125 H 0.27045 0.08786 0.19989 0.0
H126 H 0.19956 0.98394 0.14815 0.0
H127 H 0.14436 0.98279 0.18651 0.0
C128 C 0.29976 0.02412 0.09668 0.0
C129 C 0.34524 0.02968 0.1087 0.0
C130 C 0.26547 0.02632 0.11675 0.0
C131 C 0.27596 0.03386 0.14933 0.0
C132 C 0.32158 0.0389 0.16128 0.0
C133 C 0.3557 0.03697 0.14123 0.0
C134 C 0.21183 0.06363 0.21886 0.0
C135 C 0.17611 0.03384 0.21587 0.0
C136 C 0.24319 0.06464 0.19669 0.0
C137 C 0.23991 0.0356 0.17109 0.0
C138 C 0.20306 0.00699 0.1674 0.0
C139 C 0.17144 0.00623 0.18949 0.0
H140 H 0.06311 0.26487 0.57907 0.0
H141 H 0.97799 0.32611 0.64253 0.0
H142 H 0.06375 0.19864 0.60965 0.0
H143 H 0.97509 0.25803 0.67148 0.0
H144 H 0.01195 0.13578 0.73284 0.0
H145 H 0.01394 0.20666 0.70644 0.0
H146 H 0.01553 0.14173 0.61656 0.0
H147 H 0.01621 0.07207 0.64301 0.0
C148 C 0.04456 0.26442 0.59959 0.0
C149 C 0.0204 0.30115 0.60812 0.0
C150 C 0.04419 0.22592 0.61688 0.0
C151 C 0.01872 0.2225 0.64277 0.0
C152 C 0.99521 0.25939 0.65177 0.0
C153 C 0.99628 0.29832 0.63477 0.0
C154 C 0.01271 0.13702 0.70745 0.0
C155 C 0.01469 0.09859 0.69001 0.0
C156 C 0.01369 0.17751 0.69228 0.0
C157 C 0.01581 0.18006 0.65936 0.0
C158 C 0.01563 0.1413 0.64201 0.0
C159 C 0.01564 0.10122 0.65716 0.0
H160 H 0.69889 -0.0028 0.1562 0.0
H161 H 0.78565 0.02096 0.0832 0.0
H162 H 0.76467 -0.011 0.19498 0.0
H163 H 0.85208 0.01512 0.12232 0.0
H164 H 0.96384 0.96463 0.19701 0.0
H165 H 0.89946 0.96939 0.15616 0.0
H166 H 0.81977 0.02993 0.22335 0.0
H167 H 0.88287 0.02296 0.26409 0.0
C168 C 0.73222 0.00116 0.14861 0.0
C169 C 0.73729 0.01005 0.11685 0.0
C170 C 0.77004 -0.00325 0.17084 0.0
C171 C 0.81397 0.00203 0.16203 0.0
C172 C 0.81895 0.01039 0.13002 0.0
C173 C 0.78097 0.01401 0.10761 0.0
C174 C 0.93245 0.97888 0.20291 0.0
C175 C 0.92824 -0.00708 0.23384 0.0
C176 C 0.89557 0.98185 0.17948 0.0
C177 C 0.85398 -0.00041 0.18641 0.0
C178 C 0.85058 0.01482 0.2172 0.0
C179 C 0.88699 0.01112 0.24062 0.0
H180 H 0.02982 0.72787 0.58655 0.0
H181 H 0.99291 0.63886 0.65802 0.0
H182 H 0.02998 0.78735 0.624 0.0
H183 H 0.99299 0.69866 0.69564 0.0
H184 H 0.94316 0.83155 0.73521 0.0
H185 H 0.94966 0.76518 0.70446 0.0
H186 H 0.07277 0.81334 0.67211 0.0
H187 H 0.06593 0.87928 0.70248 0.0
C188 C 0.02225 0.72092 0.61038 0.0
C189 C 0.01144 0.67864 0.6193 0.0
C190 C 0.02242 0.75499 0.6319 0.0
C191 C 0.01186 0.74765 0.66291 0.0
C192 C 0.00094 0.70539 0.67187 0.0
C193 C 0.0008 0.67121 0.6503 0.0
C194 C 0.97208 0.82738 0.72206 0.0
C195 C 0.00343 0.86097 0.72055 0.0
C196 C 0.9758 0.78946 0.70443 0.0
C197 C 0.01116 0.78451 0.68524 0.0
C198 C 0.04436 0.81677 0.68585 0.0
C199 C 0.04045 0.85461 0.70325 0.0
H200 H 0.27635 0.00413 0.94707 0.0
H201 H 0.36015 0.00998 0.87057 0.0
H202 H 0.20933 -0.00438 0.90893 0.0
H203 H 0.29358 0.00339 0.83242 0.0
H204 H 0.17751 0.94302 0.77278 0.0
H205 H 0.24138 0.95125 0.81277 0.0
H206 H 0.15892 0.02922 0.86883 0.0
H207 H 0.09413 0.01919 0.82915 0.0
C208 C 0.28024 0.00418 0.92205 0.0
C209 C 0.32336 0.00724 0.91172 0.0
C210 C 0.2419 -0.00055 0.90016 0.0
C211 C 0.24593 -0.00174 0.86749 0.0
C212 C 0.28913 0.00287 0.85733 0.0
C213 C 0.32735 0.00693 0.87917 0.0
C214 C 0.17291 0.96186 0.79366 0.0
C215 C 0.13078 0.98067 0.79768 0.0
C216 C 0.20972 0.96688 0.81657 0.0
C217 C 0.2057 -0.00851 0.84394 0.0
C218 C 0.16327 0.00975 0.84823 0.0
C219 C 0.12614 0.00417 0.82542 0.0
H220 H 0.11186 0.31742 0.41229 0.0
H221 H 0.96852 0.29591 0.41303 0.0
H222 H 0.11583 0.25749 0.37578 0.0
H223 H 0.9734 0.23355 0.37933 0.0
H224 H 0.98018 0.13496 0.30594 0.0
H225 H 0.98048 0.20684 0.3299 0.0
H226 H 0.11632 0.18261 0.37425 0.0
H227 H 0.11658 0.11234 0.34811 0.0
C228 C 0.08111 0.30006 0.40471 0.0
C229 C 0.03988 0.31164 0.41595 0.0
C230 C 0.08355 0.2651 0.38403 0.0
C231 C 0.04503 0.24022 0.37447 0.0
C232 C 0.00377 0.25215 0.3855 0.0
C233 C 0.00114 0.28757 0.4056 0.0
C234 C 0.01052 0.14596 0.31995 0.0
C235 C 0.04849 0.1187 0.32507 0.0
C236 C 0.01056 0.18678 0.33416 0.0
C237 C 0.04803 0.20047 0.35476 0.0
C238 C 0.08696 0.17375 0.35838 0.0
C239 C 0.08725 0.13338 0.34345 0.0
H240 H 0.66892 0.02501 0.87513 0.0
H241 H 0.76767 0.05025 0.95493 0.0
H242 H 0.72746 0.03037 0.83972 0.0
H243 H 0.82625 0.05741 0.91918 0.0
H244 H 0.92308 0.00693 0.84753 0.0
H245 H 0.86798 0.01163 0.88586 0.0
H246 H 0.77626 0.08144 0.81756 0.0
H247 H 0.83082 0.07582 0.77903 0.0
C248 C 0.70316 0.03177 0.88513 0.0
C249 C 0.71362 0.03684 0.91792 0.0
C250 C 0.73668 0.03551 0.86475 0.0
C251 C 0.78161 0.04455 0.87655 0.0
C252 C 0.79206 0.05013 0.90932 0.0
C253 C 0.75842 0.04641 0.92978 0.0
C254 C 0.89145 0.02389 0.84085 0.0
C255 C 0.88114 0.04052 0.81007 0.0
C256 C 0.85987 0.0267 0.86289 0.0
C257 C 0.81737 0.04634 0.85465 0.0
C258 C 0.80823 0.0652 0.82446 0.0
C259 C 0.83968 0.06225 0.80242 0.0
H260 H 0.10291 0.68954 0.42368 0.0
H261 H 0.95711 0.70099 0.41551 0.0
H262 H 0.10604 0.75095 0.38784 0.0
H263 H 0.96085 0.76389 0.38074 0.0
H264 H 0.00626 0.90657 0.35564 0.0
H265 H 0.99564 0.84176 0.38699 0.0
H266 H 0.07801 0.76773 0.32875 0.0
H267 H 0.08813 0.83243 0.2969 0.0
C268 C 0.07147 0.70484 0.41413 0.0
C269 C 0.02971 0.68993 0.42244 0.0
C270 C 0.07337 0.74012 0.39365 0.0
C271 C 0.03367 0.76185 0.3814 0.0
C272 C 0.99195 0.74768 0.38999 0.0
C273 C 0.98993 0.71187 0.41011 0.0
C274 C 0.02147 0.87642 0.3491 0.0
C275 C 0.04808 0.87474 0.32375 0.0
C276 C 0.01529 0.83928 0.36706 0.0
C277 C 0.03626 0.79993 0.36037 0.0
C278 C 0.06179 0.79785 0.33451 0.0
C279 C 0.06734 0.83481 0.31621 0.0
loop_
_geom_bond_atom_site_label_1
_geom_bond_atom_site_label_2
_geom_bond_distance
_geom_bond_site_symmetry_2
_ccdc_geom_bond_type
C0 C1 1.384 . S
C0 C2 1.384 . S
C0 H28 0.931 . S
C1 C0 1.384 . S
C1 C4 1.382 1_545 S
C2 C0 1.384 . S
C2 C3 1.381 . S
C2 H29 0.930 . S
C3 C2 1.381 . S
C3 C5 1.381 1_545 S
C3 C6 1.487 . S
C4 C1 1.382 1_565 S
C4 C5 1.387 . S
C4 H30 0.930 . S
C5 C3 1.381 1_565 S
C5 C4 1.387 . S
C5 H31 0.931 . S
C6 C3 1.487 . S
C6 C13 1.399 1_556 S
C6 N44 1.343 . S
C7 C8 1.384 1_565 S
C7 C9 1.384 . S
C7 H32 0.931 . S
C8 C7 1.384 1_545 S
C8 C11 1.382 . S
C9 C7 1.384 . S
C9 C10 1.381 1_565 S
C9 H33 0.930 . S
C10 C9 1.381 1_545 S
C10 C12 1.381 . S
C10 C13 1.487 . S
C11 C8 1.382 . S
C11 C12 1.387 . S
C11 H34 0.930 . S
C12 C10 1.381 . S
C12 C11 1.387 . S
C12 H35 0.931 . S
C13 C6 1.399 1_554 S
C13 C10 1.487 . S
C13 N45 1.343 . S
C14 C15 1.384 1_565 S
C14 C16 1.384 . S
C14 H36 0.931 . S
C15 C14 1.384 1_545 S
C15 C18 1.382 . S
C16 C14 1.384 . S
C16 C17 1.381 1_565 S
C16 H37 0.930 . S
C17 C16 1.381 1_545 S
C17 C19 1.381 . S
C17 C20 1.487 . S
C18 C15 1.382 . S
C18 C19 1.387 . S
C18 H38 0.930 . S
C19 C17 1.381 . S
C19 C18 1.387 . S
C19 H39 0.931 . S
C20 C17 1.487 . S
C20 C27 1.399 1_554 S
C20 N45 1.343 . S
C21 C22 1.384 . S
C21 C23 1.384 . S
C21 H40 0.931 . S
C22 C21 1.384 . S
C22 C25 1.382 1_545 S
C23 C21 1.384 . S
C23 C24 1.381 . S
C23 H41 0.930 . S
C24 C23 1.381 . S
C24 C26 1.381 1_545 S
C24 C27 1.487 . S
C25 C22 1.382 1_565 S
C25 C26 1.387 . S
C25 H42 0.930 . S
C26 C24 1.381 1_565 S
C26 C25 1.387 . S
C26 H43 0.931 . S
C27 C20 1.399 1_556 S
C27 C24 1.487 . S
C27 N44 1.343 . S
H28 C0 0.931 . S
H29 C2 0.930 . S
H30 C4 0.930 . S
H31 C5 0.931 . S
H32 C7 0.931 . S
H33 C9 0.930 . S
H34 C11 0.930 . S
H35 C12 0.931 . S
H36 C14 0.931 . S
H37 C16 0.930 . S
H38 C18 0.930 . S
H39 C19 0.931 . S
H40 C21 0.931 . S
H41 C23 0.930 . S
H42 C25 0.930 . S
H43 C26 0.931 . S
N44 C6 1.343 . S
N44 C27 1.343 . S
N45 C13 1.343 . S
N45 C20 1.343 . S
C46 C47 1.384 . S
C46 C48 1.384 . S
C46 H74 0.931 . S
C47 C46 1.384 . S
C47 C50 1.382 1_455 S
C48 C46 1.384 . S
C48 C49 1.381 . S
C48 H75 0.930 . S
C49 C48 1.381 . S
C49 C51 1.381 1_455 S
C49 C52 1.487 . S
C50 C47 1.382 1_655 S
C50 C51 1.387 . S
C50 H76 0.930 . S
C51 C49 1.381 1_655 S
C51 C50 1.387 . S
C51 H77 0.931 . S
C52 C49 1.487 . S
C52 C59 1.399 . S
C52 N90 1.343 . S
C53 C54 1.384 . S
C53 C55 1.384 . S
C53 H78 0.931 1_455 S
C54 C53 1.384 . S
C54 C57 1.382 . S
C55 C53 1.384 . S
C55 C56 1.381 . S
C55 H79 0.930 1_455 S
C56 C55 1.381 . S
C56 C58 1.381 . S
C56 C59 1.487 . S
C57 C54 1.382 . S
C57 C58 1.387 . S
C57 H80 0.930 . S
C58 C56 1.381 . S
C58 C57 1.387 . S
C58 H81 0.931 . S
C59 C52 1.399 . S
C59 C56 1.487 . S
C59 N91 1.343 . S
C60 C61 1.384 . S
C60 C62 1.384 . S
C60 H82 0.931 1_455 S
C61 C60 1.384 . S
C61 C64 1.382 . S
C62 C60 1.384 . S
C62 C63 1.381 . S
C62 H83 0.930 1_455 S
C63 C62 1.381 . S
C63 C65 1.381 . S
C63 C66 1.487 . S
C64 C61 1.382 . S
C64 C65 1.387 . S
C64 H84 0.930 . S
C65 C63 1.381 . S
C65 C64 1.387 . S
C65 H85 0.931 . S
C66 C63 1.487 . S
C66 C73 1.399 . S
C66 N91 1.343 . S
C67 C68 1.384 . S
C67 C69 1.384 . S
C67 H86 0.931 . S
C68 C67 1.384 . S
C68 C71 1.382 1_455 S
C69 C67 1.384 . S
C69 C70 1.381 . S
C69 H87 0.930 . S
C70 C69 1.381 . S
C70 C72 1.381 1_455 S
C70 C73 1.487 . S
C71 C68 1.382 1_655 S
C71 C72 1.387 . S
C71 H88 0.930 . S
C72 C70 1.381 1_655 S
C72 C71 1.387 . S
C72 H89 0.931 . S
C73 C66 1.399 . S
C73 C70 1.487 . S
C73 N90 1.343 . S
H74 C46 0.931 . S
H75 C48 0.930 . S
H76 C50 0.930 . S
H77 C51 0.931 . S
H78 C53 0.931 1_655 S
H79 C55 0.930 1_655 S
H80 C57 0.930 . S
H81 C58 0.931 . S
H82 C60 0.931 1_655 S
H83 C62 0.930 1_655 S
H84 C64 0.930 . S
H85 C65 0.931 . S
H86 C67 0.931 . S
H87 C69 0.930 . S
H88 C71 0.930 . S
H89 C72 0.931 . S
N90 C52 1.343 . S
N90 C73 1.343 . S
N91 C59 1.343 . S
N91 C66 1.343 . S
Mg92 O93 2.028 . S
Mg92 O99 1.986 . S
Mg92 O101 2.114 1_545 S
Mg92 O102 2.251 1_545 S
Mg92 O105 2.010 . S
O93 Mg92 2.028 . S
O93 C96 1.250 1_455 S
O94 Mg95 2.028 . S
O94 C96 1.248 . S
Mg95 O94 2.028 . S
Mg95 O100 2.032 1_655 S
Mg95 O102 2.079 1_645 S
C96 O93 1.250 1_655 S
C96 O94 1.248 . S
C97 O98 1.264 . S
C97 O105 1.249 . S
O98 C97 1.264 . S
O99 Mg92 1.986 . S
O99 C103 1.246 . S
O100 Mg95 2.032 1_455 S
O100 C103 1.259 . S
O101 Mg92 2.114 1_565 S
O101 C104 1.252 . S
O102 Mg92 2.251 1_565 S
O102 Mg95 2.079 1_465 S
O102 C104 1.273 . S
C103 O99 1.246 . S
C103 O100 1.259 . S
C104 O101 1.252 . S
C104 O102 1.273 . S
O105 Mg92 2.010 . S
O105 C97 1.249 . S
Mg106 O107 2.028 1_655 S
Mg106 O113 1.986 . S
Mg106 O115 2.114 1_545 S
Mg106 O116 2.251 1_645 S
Mg106 O119 2.010 . S
O107 Mg106 2.028 1_455 S
O107 C110 1.250 . S
O108 Mg109 2.028 . S
O108 C110 1.248 . S
Mg109 O108 2.028 . S
Mg109 O114 2.032 . S
Mg109 O116 2.079 1_545 S
C110 O107 1.250 . S
C110 O108 1.248 . S
C111 O112 1.264 . S
C111 O119 1.249 . S
O112 C111 1.264 . S
O113 Mg106 1.986 . S
O113 C117 1.246 1_655 S
O114 Mg109 2.032 . S
O114 C117 1.259 . S
O115 Mg106 2.114 1_565 S
O115 C118 1.252 1_655 S
O116 Mg106 2.251 1_465 S
O116 Mg109 2.079 1_565 S
O116 C118 1.273 . S
C117 O113 1.246 1_455 S
C117 O114 1.259 . S
C118 O115 1.252 1_455 S
C118 O116 1.273 . S
O119 Mg106 2.010 . S
O119 C111 1.249 . S
H120 C128 0.950 . S
H121 C133 0.950 . S
H122 C130 0.950 . S
H123 C132 0.950 . S
H124 C134 0.950 . S
H125 C136 0.950 . S
H126 C138 0.950 . S
H127 C139 0.949 1_565 S
C128 H120 0.950 . S
C128 C129 1.386 1_565 S
C128 C130 1.391 . S
C129 C128 1.386 1_545 S
C129 C133 1.393 . S
C130 H122 0.950 . S
C130 C128 1.391 . S
C130 C131 1.400 1_565 S
C131 C130 1.400 1_545 S
C131 C132 1.398 . S
C131 C137 1.491 . S
C132 H123 0.950 . S
C132 C131 1.398 . S
C132 C133 1.391 . S
C133 H121 0.950 . S
C133 C129 1.393 . S
C133 C132 1.391 . S
C134 H124 0.950 . S
C134 C135 1.386 . S
C134 C136 1.391 . S
C135 C134 1.386 . S
C135 C139 1.394 . S
C136 H125 0.950 . S
C136 C134 1.391 . S
C136 C137 1.400 . S
C137 C131 1.491 . S
C137 C136 1.400 . S
C137 C138 1.398 1_545 S
C138 H126 0.950 . S
C138 C137 1.398 1_565 S
C138 C139 1.391 1_565 S
C139 H127 0.949 1_545 S
C139 C135 1.394 . S
C139 C138 1.391 1_545 S
H140 C148 0.950 . S
H141 C153 0.950 . S
H142 C150 0.950 . S
H143 C152 0.950 . S
H144 C154 0.953 . S
H145 C156 0.950 1_655 S
H146 C158 0.950 . S
H147 C159 0.950 . S
C148 H140 0.950 . S
C148 C149 1.386 . S
C148 C150 1.391 . S
C149 C148 1.386 . S
C149 C153 1.393 . S
C150 H142 0.950 . S
C150 C148 1.391 . S
C150 C151 1.400 . S
C151 C150 1.400 . S
C151 C152 1.398 . S
C151 C157 1.491 . S
C152 H143 0.950 . S
C152 C151 1.398 . S
C152 C153 1.391 . S
C153 H141 0.950 . S
C153 C149 1.393 . S
C153 C152 1.391 . S
C154 H144 0.953 . S
C154 C155 1.383 1_655 S
C154 C156 1.390 1_655 S
C155 C154 1.383 1_455 S
C155 C159 1.393 . S
C156 H145 0.950 1_455 S
C156 C154 1.390 1_455 S
C156 C157 1.400 . S
C157 C151 1.491 . S
C157 C156 1.400 . S
C157 C158 1.398 . S
C158 H146 0.950 . S
C158 C157 1.398 . S
C158 C159 1.391 . S
C159 H147 0.950 . S
C159 C155 1.393 . S
C159 C158 1.391 . S
H160 C168 0.950 1_565 S
H161 C173 0.950 . S
H162 C170 0.948 1_565 S
H163 C172 0.950 . S
H164 C174 0.950 . S
H165 C176 0.950 . S
H166 C178 0.950 . S
H167 C179 0.950 . S
C168 H160 0.950 1_545 S
C168 C169 1.386 . S
C168 C170 1.391 . S
C169 C168 1.386 . S
C169 C173 1.393 . S
C170 H162 0.948 1_545 S
C170 C168 1.391 . S
C170 C171 1.400 . S
C171 C170 1.400 . S
C171 C172 1.398 . S
C171 C177 1.491 . S
C172 H163 0.950 . S
C172 C171 1.398 . S
C172 C173 1.391 . S
C173 H161 0.950 . S
C173 C169 1.393 . S
C173 C172 1.391 . S
C174 H164 0.950 . S
C174 C175 1.386 . S
C174 C176 1.391 . S
C175 C174 1.386 . S
C175 C179 1.393 . S
C176 H165 0.950 . S
C176 C174 1.391 . S
C176 C177 1.400 . S
C177 C171 1.491 . S
C177 C176 1.400 . S
C177 C178 1.398 . S
C178 H166 0.950 . S
C178 C177 1.398 . S
C178 C179 1.391 . S
C179 H167 0.950 . S
C179 C175 1.393 . S
C179 C178 1.391 . S
H180 C188 0.950 . S
H181 C193 0.950 . S
H182 C190 0.950 . S
H183 C192 0.950 . S
H184 C194 0.950 . S
H185 C196 0.950 . S
H186 C198 0.950 . S
H187 C199 0.950 . S
C188 H180 0.950 . S
C188 C189 1.386 . S
C188 C190 1.391 . S
C189 C188 1.386 . S
C189 C193 1.393 1_455 S
C190 H182 0.950 . S
C190 C188 1.391 . S
C190 C191 1.400 . S
C191 C190 1.400 . S
C191 C192 1.398 1_455 S
C191 C197 1.491 . S
C192 H183 0.950 . S
C192 C191 1.398 1_655 S
C192 C193 1.391 . S
C193 H181 0.950 . S
C193 C189 1.393 1_655 S
C193 C192 1.391 . S
C194 H184 0.950 . S
C194 C195 1.386 1_655 S
C194 C196 1.391 . S
C195 C194 1.386 1_455 S
C195 C199 1.393 . S
C196 H185 0.950 . S
C196 C194 1.391 . S
C196 C197 1.400 1_655 S
C197 C191 1.491 . S
C197 C196 1.400 1_455 S
C197 C198 1.398 . S
C198 H186 0.950 . S
C198 C197 1.398 . S
C198 C199 1.391 . S
C199 H187 0.950 . S
C199 C195 1.393 . S
C199 C198 1.391 . S
H200 C208 0.950 . S
H201 C213 0.950 . S
H202 C210 0.950 . S
H203 C212 0.950 . S
H204 C214 0.950 . S
H205 C216 0.950 . S
H206 C218 0.950 . S
H207 C219 0.950 . S
C208 H200 0.950 . S
C208 C209 1.386 . S
C208 C210 1.391 . S
C209 C208 1.386 . S
C209 C213 1.393 1_545 S
C210 H202 0.950 . S
C210 C208 1.391 . S
C210 C211 1.400 . S
C211 C210 1.400 . S
C211 C212 1.398 1_545 S
C211 C217 1.491 . S
C212 H203 0.950 . S
C212 C211 1.398 1_565 S
C212 C213 1.391 . S
C213 H201 0.950 . S
C213 C209 1.393 1_565 S
C213 C212 1.391 . S
C214 H204 0.950 . S
C214 C215 1.386 1_565 S
C214 C216 1.391 . S
C215 C214 1.386 1_545 S
C215 C219 1.393 . S
C216 H205 0.950 . S
C216 C214 1.391 . S
C216 C217 1.400 1_565 S
C217 C211 1.491 . S
C217 C216 1.400 1_545 S
C217 C218 1.398 . S
C218 H206 0.950 . S
C218 C217 1.398 . S
C218 C219 1.391 . S
C219 H207 0.950 . S
C219 C215 1.393 . S
C219 C218 1.391 . S
H220 C228 0.950 . S
H221 C233 0.967 . S
H222 C230 0.950 . S
H223 C232 0.950 1_655 S
H224 C234 0.950 1_655 S
H225 C236 0.950 1_655 S
H226 C238 0.950 . S
H227 C239 0.950 . S
C228 H220 0.950 . S
C228 C229 1.386 . S
C228 C230 1.391 . S
C229 C228 1.386 . S
C229 C233 1.378 1_455 S
C230 H222 0.950 . S
C230 C228 1.391 . S
C230 C231 1.400 . S
C231 C230 1.400 . S
C231 C232 1.398 . S
C231 C237 1.491 . S
C232 H223 0.950 1_455 S
C232 C231 1.398 . S
C232 C233 1.389 1_455 S
C233 H221 0.967 . S
C233 C229 1.378 1_655 S
C233 C232 1.389 1_655 S
C234 H224 0.950 1_455 S
C234 C235 1.386 . S
C234 C236 1.391 . S
C235 C234 1.386 . S
C235 C239 1.393 . S
C236 H225 0.950 1_455 S
C236 C234 1.391 . S
C236 C237 1.400 . S
C237 C231 1.491 . S
C237 C236 1.400 . S
C237 C238 1.398 . S
C238 H226 0.950 . S
C238 C237 1.398 . S
C238 C239 1.391 . S
C239 H227 0.950 . S
C239 C235 1.393 . S
C239 C238 1.391 . S
H240 C248 0.950 . S
H241 C253 0.950 . S
H242 C250 0.950 . S
H243 C252 0.950 . S
H244 C254 0.954 . S
H245 C256 0.950 . S
H246 C258 0.950 . S
H247 C259 0.950 . S
C248 H240 0.950 . S
C248 C249 1.386 . S
C248 C250 1.391 . S
C249 C248 1.386 . S
C249 C253 1.393 1_545 S
C250 H242 0.950 . S
C250 C248 1.391 . S
C250 C251 1.400 . S
C251 C250 1.400 . S
C251 C252 1.398 1_545 S
C251 C257 1.491 . S
C252 H243 0.950 . S
C252 C251 1.398 1_565 S
C252 C253 1.391 . S
C253 H241 0.950 . S
C253 C249 1.393 1_565 S
C253 C252 1.391 . S
C254 H244 0.954 . S
C254 C255 1.381 1_565 S
C254 C256 1.392 . S
C255 C254 1.381 1_545 S
C255 C259 1.393 . S
C256 H245 0.950 . S
C256 C254 1.392 . S
C256 C257 1.400 1_565 S
C257 C251 1.491 . S
C257 C256 1.400 1_545 S
C257 C258 1.398 . S
C258 H246 0.950 . S
C258 C257 1.398 . S
C258 C259 1.391 . S
C259 H247 0.950 . S
C259 C255 1.393 . S
C259 C258 1.391 . S
H260 C268 0.950 . S
H261 C273 0.962 . S
H262 C270 0.950 . S
H263 C272 0.950 1_655 S
H264 C274 0.950 1_655 S
H265 C276 0.950 1_655 S
H266 C278 0.950 . S
H267 C279 0.950 . S
C268 H260 0.950 . S
C268 C269 1.386 . S
C268 C270 1.391 . S
C269 C268 1.386 . S
C269 C273 1.382 1_455 S
C270 H262 0.950 . S
C270 C268 1.391 . S
C270 C271 1.400 . S
C271 C270 1.400 . S
C271 C272 1.398 . S
C271 C277 1.491 . S
C272 H263 0.950 1_455 S
C272 C271 1.398 . S
C272 C273 1.389 1_455 S
C273 H261 0.962 . S
C273 C269 1.382 1_655 S
C273 C272 1.389 1_655 S
C274 H264 0.950 1_455 S
C274 C275 1.386 . S
C274 C276 1.391 . S
C275 C274 1.386 . S
C275 C279 1.393 . S
C276 H265 0.950 1_455 S
C276 C274 1.391 . S
C276 C277 1.400 . S
C277 C271 1.491 . S
C277 C276 1.400 . S
C277 C278 1.398 . S
C278 H266 0.950 . S
C278 C277 1.398 . S
C278 C279 1.391 . S
C279 H267 0.950 . S
C279 C275 1.393 . S
C279 C278 1.391 . S
C135 C97 1.278 . S
C129 C15 1.505 . S
C155 C117 1.475 . S
C149 C68 1.497 . S
C175 C96 1.459 . S
C169 C8 1.503 . S
C195 C118 1.507 . S
C189 C47 1.504 . S
C215 C110 1.471 . S
C209 C22 1.504 . S
C235 C103 1.476 . S
C229 C61 1.493 . S
C255 C111 1.246 . S
C249 C1 1.503 . S
C269 C54 1.507 . S
C275 C104 1.506 . S
