# Generated by pormake.
# Topology zzz, (3,6)-cn, num edge types: 1
# Building blocks:
#     Node 0, Type 0, BuildingBlock: BELTOD_clean_linker_0, # of connection points: 3
#     Node 1, Type 0, BuildingBlock: BELTOD_clean_linker_0, # of connection points: 3
#     Node 2, Type 0, BuildingBlock: BELTOD_clean_linker_0, # of connection points: 3
#     Node 3, Type 0, BuildingBlock: BELTOD_clean_linker_0, # of connection points: 3
#     Node 4, Type 0, BuildingBlock: BELTOD_clean_linker_0, # of connection points: 3
#     Node 5, Type 0, BuildingBlock: BELTOD_clean_linker_0, # of connection points: 3
#     Node 6, Type 0, BuildingBlock: BELTOD_clean_linker_0, # of connection points: 3
#     Node 7, Type 0, BuildingBlock: BELTOD_clean_linker_0, # of connection points: 3
#     Node 8, Type 1, BuildingBlock: CUWYAW_clean_sbu_0, # of connection points: 6
#     Node 9, Type 1, BuildingBlock: CUWYAW_clean_sbu_0, # of connection points: 6
#     Node 10, Type 1, BuildingBlock: CUWYAW_clean_sbu_0, # of connection points: 6
#     Node 11, Type 1, BuildingBlock: CUWYAW_clean_sbu_0, # of connection points: 6
#     Edge 12, Type (0, 1), BuildingBlock: UVAHIK_clean_linker_0, # of connection points: 2
#     Edge 13, Type (0, 1), BuildingBlock: UVAHIK_clean_linker_0, # of connection points: 2
#     Edge 14, Type (0, 1), BuildingBlock: UVAHIK_clean_linker_0, # of connection points: 2
#     Edge 15, Type (0, 1), BuildingBlock: UVAHIK_clean_linker_0, # of connection points: 2
#     Edge 16, Type (0, 1), BuildingBlock: UVAHIK_clean_linker_0, # of connection points: 2
#     Edge 17, Type (0, 1), BuildingBlock: UVAHIK_clean_linker_0, # of connection points: 2
#     Edge 18, Type (0, 1), BuildingBlock: UVAHIK_clean_linker_0, # of connection points: 2
#     Edge 19, Type (0, 1), BuildingBlock: UVAHIK_clean_linker_0, # of connection points: 2
#     Edge 20, Type (0, 1), BuildingBlock: UVAHIK_clean_linker_0, # of connection points: 2
#     Edge 21, Type (0, 1), BuildingBlock: UVAHIK_clean_linker_0, # of connection points: 2
#     Edge 22, Type (0, 1), BuildingBlock: UVAHIK_clean_linker_0, # of connection points: 2
#     Edge 23, Type (0, 1), BuildingBlock: UVAHIK_clean_linker_0, # of connection points: 2
#     Edge 24, Type (0, 1), BuildingBlock: UVAHIK_clean_linker_0, # of connection points: 2
#     Edge 25, Type (0, 1), BuildingBlock: UVAHIK_clean_linker_0, # of connection points: 2
#     Edge 26, Type (0, 1), BuildingBlock: UVAHIK_clean_linker_0, # of connection points: 2
#     Edge 27, Type (0, 1), BuildingBlock: UVAHIK_clean_linker_0, # of connection points: 2
#     Edge 28, Type (0, 1), BuildingBlock: UVAHIK_clean_linker_0, # of connection points: 2
#     Edge 29, Type (0, 1), BuildingBlock: UVAHIK_clean_linker_0, # of connection points: 2
#     Edge 30, Type (0, 1), BuildingBlock: UVAHIK_clean_linker_0, # of connection points: 2
#     Edge 31, Type (0, 1), BuildingBlock: UVAHIK_clean_linker_0, # of connection points: 2
#     Edge 32, Type (0, 1), BuildingBlock: UVAHIK_clean_linker_0, # of connection points: 2
#     Edge 33, Type (0, 1), BuildingBlock: UVAHIK_clean_linker_0, # of connection points: 2
#     Edge 34, Type (0, 1), BuildingBlock: UVAHIK_clean_linker_0, # of connection points: 2
#     Edge 35, Type (0, 1), BuildingBlock: UVAHIK_clean_linker_0, # of connection points: 2
# Relax obj value: 0.377
# Max RMSD: 0.239
# Mean RMSD: 0.220
data_MOF--net-zzz--node1-CUWYAW_clean_sbu_0--node2-BELTOD_clean_linker_0--edge1-UVAHIK_clean_linker_0
_symmetry_space_group_name_H-M    P1
_symmetry_Int_Tables_number       1
_symmetry_cell_setting            triclinic
loop_
_symmetry_equiv_pos_as_xyz
'x, y, z'
_cell_length_a     69.856088
_cell_length_b     69.903616
_cell_length_c     22.344464
_cell_angle_alpha  89.918317
_cell_angle_beta   90.042434
_cell_angle_gamma 90.008812
loop_
_atom_site_label
_atom_site_type_symbol
_atom_site_fract_x
_atom_site_fract_y
_atom_site_fract_z
_atom_type_partial_charge
P0 P 0.72337 0.47772 0.31604 0.0
H1 H 0.74026 0.4654 0.42855 0.0
H2 H 0.76844 0.47616 0.48214 0.0
H3 H 0.7706 0.52681 0.37124 0.0
H4 H 0.74238 0.51562 0.31663 0.0
H5 H 0.68164 0.47521 0.32312 0.0
H6 H 0.65664 0.48705 0.25747 0.0
H7 H 0.69808 0.52268 0.16641 0.0
H8 H 0.72329 0.50969 0.23026 0.0
H9 H 0.76517 0.47628 0.29514 0.0
H10 H 0.71355 0.45884 0.20347 0.0
O11 O 0.71362 0.45885 0.35023 0.0
H12 H 0.78405 0.46716 0.20888 0.0
H13 H 0.73282 0.44928 0.11647 0.0
C14 C 0.73894 0.48976 0.36878 0.0
C15 C 0.74626 0.47921 0.41709 0.0
C16 C 0.76255 0.4854 0.44783 0.0
C17 C 0.77205 0.50229 0.43079 0.0
C18 C 0.76387 0.51357 0.38505 0.0
C19 C 0.74749 0.50734 0.35428 0.0
C20 C 0.70441 0.49162 0.28211 0.0
C21 C 0.68533 0.48595 0.29013 0.0
C22 C 0.67092 0.49283 0.25229 0.0
C23 C 0.67522 0.50572 0.20565 0.0
C24 C 0.69419 0.51246 0.20077 0.0
C25 C 0.70864 0.50536 0.23826 0.0
C26 C 0.73778 0.46876 0.25537 0.0
C27 C 0.75778 0.47052 0.25671 0.0
C28 C 0.76866 0.46525 0.20725 0.0
C29 C 0.75981 0.45784 0.15588 0.0
C30 C 0.73992 0.45505 0.1556 0.0
C31 C 0.72896 0.46054 0.20511 0.0
P32 P 0.03014 0.72178 0.33014 0.0
H33 H 0.02458 0.73517 0.45296 0.0
H34 H 0.0123 0.76516 0.49159 0.0
H35 H 0.98961 0.77889 0.3166 0.0
H36 H 0.00307 0.74922 0.27752 0.0
H37 H 0.04351 0.6833 0.30886 0.0
H38 H 0.03269 0.65776 0.24368 0.0
H39 H 0.98197 0.69046 0.20065 0.0
H40 H 0.99329 0.71634 0.26545 0.0
H41 H 0.05443 0.75503 0.34447 0.0
H42 H 0.03806 0.71731 0.20052 0.0
O43 O 0.04441 0.71323 0.38381 0.0
H44 H 0.06991 0.77628 0.27297 0.0
H45 H 0.05427 0.738 0.12908 0.0
C46 C 0.01462 0.73974 0.36234 0.0
C47 C 0.01645 0.7443 0.42317 0.0
C48 C 0.00935 0.76161 0.44537 0.0
C49 C 1.00013 0.77477 0.40723 0.0
C50 C 0.99699 0.7694 0.34721 0.0
C51 C 0.00431 0.75216 0.32493 0.0
C52 C 0.01909 0.70165 0.29301 0.0
C53 C 0.02978 0.6848 0.28679 0.0
C54 C 0.02353 0.67012 0.24929 0.0
C55 C 0.00639 0.67192 0.21668 0.0
C56 C 0.99534 0.68862 0.22451 0.0
C57 C 1.0017 0.7034 0.26211 0.0
C58 C 0.0449 0.73471 0.27797 0.0
C59 C 0.05463 0.75105 0.29763 0.0
C60 C 0.06362 0.76313 0.25659 0.0
C61 C 0.06323 0.75896 0.195 0.0
C62 C 0.05453 0.74185 0.176 0.0
C63 C 0.04533 0.72989 0.21707 0.0
P64 P 0.78406 0.02498 0.32499 0.0
H65 H 0.77635 0.01189 0.44739 0.0
H66 H 0.74694 1.0005 0.49441 0.0
H67 H 0.72048 0.99586 0.32005 0.0
H68 H 0.75018 0.00636 0.27353 0.0
H69 H 0.82392 0.03467 0.30798 0.0
H70 H 0.84842 0.02275 0.24066 0.0
H71 H 0.81057 0.97718 0.18514 0.0
H72 H 0.78583 0.98947 0.25317 0.0
H73 H 0.76019 0.05853 0.3437 0.0
H74 H 0.78059 0.0256 0.19361 0.0
O75 O 0.79366 0.03818 0.37951 0.0
H76 H 0.73838 0.07586 0.2773 0.0
H77 H 0.75863 0.04228 0.12787 0.0
C78 C 0.76539 0.01031 0.357 0.0
C79 C 0.76443 0.00781 0.41917 0.0
C80 C 0.74746 1.00153 0.44609 0.0
C81 C 0.73105 0.99777 0.41131 0.0
C82 C 0.73272 0.99859 0.34853 0.0
C83 C 0.74977 0.00467 0.32168 0.0
C84 C 0.80317 0.01277 0.28649 0.0
C85 C 0.82105 0.02175 0.28286 0.0
C86 C 0.83511 0.01488 0.24413 0.0
C87 C 0.83153 0.99895 0.20741 0.0
C88 C 0.81376 0.98953 0.21258 0.0
C89 C 0.79969 0.99639 0.25192 0.0
C90 C 0.77216 0.04089 0.2737 0.0
C91 C 0.76039 0.05541 0.29624 0.0
C92 C 0.7478 0.06517 0.25833 0.0
C93 C 0.74664 0.06037 0.19729 0.0
C94 C 0.75931 0.04658 0.17436 0.0
C95 C 0.7719 0.0369 0.21224 0.0
P96 P 0.47054 0.78892 0.32217 0.0
H97 H 0.47549 0.77663 0.44657 0.0
H98 H 0.48721 0.74687 0.48877 0.0
H99 H 0.51044 0.73123 0.3163 0.0
H100 H 0.49741 0.76054 0.27358 0.0
H101 H 0.46089 0.82925 0.31277 0.0
H102 H 0.47132 0.8545 0.24539 0.0
H103 H 0.51517 0.81722 0.17521 0.0
H104 H 0.50456 0.79184 0.24314 0.0
H105 H 0.44507 0.75675 0.33995 0.0
H106 H 0.46392 0.79132 0.19106 0.0
O107 O 0.4561 0.79798 0.37445 0.0
H108 H 0.43006 0.73441 0.27076 0.0
H109 H 0.44853 0.76931 0.12173 0.0
C110 C 0.48571 0.77107 0.35686 0.0
C111 C 0.4836 0.76711 0.41806 0.0
C112 C 0.49039 0.74993 0.44234 0.0
C113 C 0.4996 0.73629 0.406 0.0
C114 C 0.50305 0.74107 0.34561 0.0
C115 C 0.496 0.75816 0.32122 0.0
C116 C 0.48206 0.80863 0.28382 0.0
C117 C 0.47316 0.82662 0.28438 0.0
C118 C 0.47915 0.84113 0.24562 0.0
C119 C 0.49405 0.83792 0.20461 0.0
C120 C 0.50354 0.82013 0.20589 0.0
C121 C 0.4976 0.80562 0.24521 0.0
C122 C 0.45584 0.77556 0.27085 0.0
C123 C 0.44552 0.75982 0.29243 0.0
C124 C 0.43684 0.74709 0.25272 0.0
C125 C 0.43825 0.74996 0.19056 0.0
C126 C 0.44749 0.76651 0.1693 0.0
C127 C 0.45627 0.77918 0.20911 0.0
P128 P 0.29008 0.46025 0.04785 0.0
H129 H 0.27927 0.453 0.92293 0.0
H130 H 0.25093 0.46252 0.86651 0.0
H131 H 0.23678 0.50342 0.00429 0.0
H132 H 0.26544 0.49415 0.05966 0.0
H133 H 0.32885 0.44577 0.06337 0.0
H134 H 0.35574 0.45756 0.12151 0.0
H135 H 0.32674 0.51161 0.14492 0.0
H136 H 0.2996 0.49953 0.08649 0.0
H137 H 0.25123 0.44625 0.06367 0.0
H138 H 0.29699 0.46605 0.17805 0.0
O139 O 0.29513 0.43873 0.01965 0.0
H140 H 0.22857 0.4503 0.14585 0.0
H141 H 0.27436 0.47039 0.25947 0.0
C142 C 0.27456 0.47279 0.9958 0.0
C143 C 0.27051 0.46454 0.94001 0.0
C144 C 0.25406 0.46981 0.90811 0.0
C145 C 0.24119 0.4834 0.93146 0.0
C146 C 0.24629 0.49294 0.98465 0.0
C147 C 0.26284 0.48773 0.01634 0.0
C148 C 0.3122 0.4718 0.06979 0.0
C149 C 0.32851 0.46043 0.07881 0.0
C150 C 0.34396 0.46721 0.11247 0.0
C151 C 0.34339 0.48549 0.13862 0.0
C152 C 0.32757 0.49737 0.12609 0.0
C153 C 0.31213 0.49059 0.09183 0.0
C154 C 0.27563 0.45668 0.11369 0.0
C155 C 0.25652 0.45101 0.10675 0.0
C156 C 0.24357 0.45337 0.15361 0.0
C157 C 0.24967 0.46116 0.20833 0.0
C158 C 0.26926 0.46452 0.21754 0.0
C159 C 0.28219 0.46225 0.17049 0.0
P160 P 0.0538 0.28781 0.02645 0.0
H161 H 0.04795 0.27567 0.90247 0.0
H162 H 0.03487 0.24612 0.86249 0.0
H163 H 0.01049 0.23298 0.03538 0.0
H164 H 0.02407 0.26254 0.07551 0.0
H165 H 0.07332 0.32142 0.06824 0.0
H166 H 0.06513 0.34633 0.1399 0.0
H167 H 0.00787 0.32354 0.15382 0.0
H168 H 0.01626 0.29831 0.08139 0.0
H169 H 0.0826 0.25853 0.00541 0.0
H170 H 0.05236 0.28215 0.15649 0.0
O171 O 0.06886 0.29593 0.97432 0.0
H172 H 0.09324 0.23171 0.06754 0.0
H173 H 0.06264 0.25553 0.21805 0.0
C174 C 0.03695 0.2715 0.99207 0.0
C175 C 0.03914 0.26688 0.93136 0.0
C176 C 0.03167 0.24981 0.90845 0.0
C177 C 0.02187 0.23688 0.94586 0.0
C178 C 0.01827 0.24237 0.00547 0.0
C179 C 0.02573 0.25951 0.02829 0.0
C180 C 0.04535 0.30814 0.06874 0.0
C181 C 0.05883 0.32199 0.08546 0.0
C182 C 0.05421 0.33613 0.12695 0.0
C183 C 0.03592 0.33679 0.15291 0.0
C184 C 0.02206 0.32341 0.1343 0.0
C185 C 0.02681 0.30903 0.09286 0.0
C186 C 0.06688 0.27246 0.07638 0.0
C187 C 0.0789 0.25837 0.05248 0.0
C188 C 0.08483 0.24297 0.08786 0.0
C189 C 0.07868 0.24142 0.14759 0.0
C190 C 0.06789 0.25639 0.17252 0.0
C191 C 0.06194 0.27171 0.13711 0.0
P192 P 0.22944 0.03727 0.11389 0.0
H193 H 0.24567 0.06501 0.02973 0.0
H194 H 0.27058 0.06092 0.95457 0.0
H195 H 0.26326 0.99966 0.96367 0.0
H196 H 0.23809 0.00387 0.03872 0.0
H197 H 0.19722 0.06172 0.14673 0.0
H198 H 0.16569 0.05404 0.186 0.0
H199 H 0.17403 0.99476 0.13875 0.0
H200 H 0.20575 0.00265 0.09823 0.0
H201 H 0.27015 0.02998 0.12423 0.0
H202 H 0.21879 0.0106 0.21295 0.0
O203 O 0.23372 0.05944 0.13814 0.0
H204 H 0.28878 0.00648 0.17944 0.0
H205 H 0.23725 0.98635 0.2661 0.0
C206 C 0.24009 0.03474 0.04049 0.0
C207 C 0.2488 0.05071 0.01394 0.0
C208 C 0.26325 0.04835 0.97131 0.0
C209 C 0.26929 0.02994 0.95432 0.0
C210 C 0.259 0.01404 0.97581 0.0
C211 C 0.24447 0.01644 0.01851 0.0
C212 C 0.20403 0.0327 0.12036 0.0
C213 C 0.19209 0.04716 0.14268 0.0
C214 C 0.17397 0.04275 0.16523 0.0
C215 C 0.16749 0.02373 0.1665 0.0
C216 C 0.17875 0.00952 0.13907 0.0
C217 C 0.19679 0.01404 0.11533 0.0
C218 C 0.24291 0.02146 0.16194 0.0
C219 C 0.26281 0.02054 0.15512 0.0
C220 C 0.27344 0.00696 0.18641 0.0
C221 C 0.26439 0.99406 0.22557 0.0
C222 C 0.24461 0.99588 0.23555 0.0
C223 C 0.23397 0.00962 0.20439 0.0
P224 P 0.44783 0.2209 0.01044 0.0
H225 H 0.44573 0.23535 0.88839 0.0
H226 H 0.45874 0.26406 0.84447 0.0
H227 H 0.49813 0.26934 0.99312 0.0
H228 H 0.48374 0.24114 0.03916 0.0
H229 H 0.42717 0.1896 0.06256 0.0
H230 H 0.43574 0.16438 0.13269 0.0
H231 H 0.49505 0.18133 0.12213 0.0
H232 H 0.48631 0.20682 0.05078 0.0
H233 H 0.42078 0.25231 0.99945 0.0
H234 H 0.45611 0.2274 0.13752 0.0
O235 O 0.42977 0.21388 0.9667 0.0
H236 H 0.41487 0.28008 0.06343 0.0
H237 H 0.45032 0.2549 0.2011 0.0
C238 C 0.46389 0.23572 0.96687 0.0
C239 C 0.45766 0.24219 0.9107 0.0
C240 C 0.4652 0.25887 0.88539 0.0
C241 C 0.47943 0.26952 0.91526 0.0
C242 C 0.48686 0.26197 0.96915 0.0
C243 C 0.47901 0.24541 0.99498 0.0
C244 C 0.45608 0.20002 0.05081 0.0
C245 C 0.44212 0.18768 0.07399 0.0
C246 C 0.447 0.17335 0.11469 0.0
C247 C 0.46603 0.17101 0.13354 0.0
C248 C 0.48027 0.1828 0.10828 0.0
C249 C 0.47529 0.19736 0.06749 0.0
C250 C 0.43863 0.23765 0.06399 0.0
C251 C 0.42664 0.25246 0.04434 0.0
C252 C 0.4234 0.26837 0.08068 0.0
C253 C 0.43217 0.26968 0.13716 0.0
C254 C 0.4431 0.25419 0.15822 0.0
C255 C 0.44644 0.23839 0.12172 0.0
C256 C 0.9775 0.03256 0.52952 0.0
Eu257 Eu 0.986 0.01349 0.62573 0.0
C258 C 0.9872 0.04886 0.5014 0.0
C259 C 0.9801 0.05709 0.44871 0.0
C260 C 0.98984 0.07237 0.42188 0.0
C261 C 0.00679 0.07958 0.44761 0.0
C262 C 0.01377 0.0712 0.50042 0.0
C263 C 0.00406 0.05603 0.52701 0.0
C264 C 0.96393 1.00157 0.71827 0.0
C265 C 0.00431 0.04256 0.72621 0.0
C266 C 0.01624 0.98115 0.84266 0.0
Eu267 Eu 0.00816 0.99687 0.7407 0.0
C268 C 0.0272 0.96413 0.8599 0.0
C269 C 0.03278 0.96147 0.9195 0.0
C270 C 0.04264 0.94491 0.93633 0.0
C271 C 0.04696 0.93076 0.89371 0.0
C272 C 0.04168 0.93373 0.83369 0.0
C273 C 0.03193 0.95032 0.81689 0.0
C274 C 0.03216 1.00111 0.64412 0.0
C275 C 0.99272 0.96801 0.63592 0.0
O276 O 0.98722 0.01653 0.5289 0.0
O277 O 0.96967 0.03603 0.58167 0.0
O278 O 0.95848 1.00078 0.6626 0.0
O279 O 0.97986 0.00994 0.72221 0.0
O280 O 0.99913 0.03976 0.66979 0.0
O281 O 0.00663 0.02823 0.76437 0.0
O282 O 1.00032 0.97775 0.81323 0.0
O283 O 0.02627 0.99526 0.81986 0.0
O284 O 0.0377 0.99405 0.69503 0.0
O285 O 0.01482 0.00518 0.6494 0.0
O286 O 0.99717 0.97028 0.69325 0.0
O287 O 0.98988 0.98262 0.59908 0.0
H288 H 0.96711 0.0517 0.42832 0.0
H289 H 0.98404 0.07866 0.38142 0.0
H290 H 0.02695 0.07614 0.52078 0.0
H291 H 0.00991 0.04977 0.56727 0.0
H292 H 0.02926 0.97205 0.95314 0.0
H293 H 0.04634 0.94291 0.98301 0.0
H294 H 0.04498 0.92316 0.79983 0.0
H295 H 0.02785 0.95226 0.77046 0.0
C296 C 0.47751 0.98131 0.50843 0.0
Eu297 Eu 0.49124 0.9926 0.61007 0.0
C298 C 0.46081 0.96953 0.49318 0.0
C299 C 0.46086 0.95812 0.44171 0.0
C300 C 0.44471 0.94727 0.42679 0.0
C301 C 0.42821 0.9478 0.46301 0.0
C302 C 0.42857 0.95885 0.51562 0.0
C303 C 0.44474 0.96945 0.53072 0.0
C304 C 0.49504 0.97034 0.71007 0.0
C305 C 0.45926 0.00731 0.70734 0.0
C306 C 0.51874 0.03394 0.81389 0.0
Eu307 Eu 0.50355 0.01828 0.7194 0.0
C308 C 0.53794 0.0387 0.83577 0.0
C309 C 0.5401 0.0532 0.8784 0.0
C310 C 0.55831 0.0584 0.89838 0.0
C311 C 0.5747 0.04923 0.87576 0.0
C312 C 0.57243 0.03467 0.83287 0.0
C313 C 0.55419 0.02943 0.81315 0.0
C314 C 0.4919 0.03678 0.61881 0.0
C315 C 0.53639 1.001 0.6289 0.0
O316 O 0.47366 0.99812 0.53179 0.0
O317 O 0.49143 0.97234 0.53606 0.0
O318 O 0.49038 0.96373 0.65791 0.0
O319 O 0.49744 0.98809 0.70533 0.0
O320 O 0.46278 1.00169 0.65165 0.0
O321 O 0.47311 0.01205 0.74491 0.0
O322 O 0.51448 0.01572 0.81037 0.0
O323 O 0.51291 0.0437 0.7674 0.0
O324 O 0.48768 0.04234 0.67264 0.0
O325 O 0.50233 0.02207 0.62076 0.0
O326 O 0.53233 0.00959 0.68026 0.0
O327 O 0.52295 0.99452 0.59234 0.0
H328 H 0.47329 0.95777 0.41276 0.0
H329 H 0.44505 0.93872 0.38645 0.0
H330 H 0.41611 0.95998 0.54415 0.0
H331 H 0.44453 0.97794 0.57118 0.0
H332 H 0.52767 0.06051 0.89623 0.0
H333 H 0.55952 0.06944 0.93215 0.0
H334 H 0.58475 0.02746 0.81408 0.0
H335 H 0.55277 0.0182 0.78018 0.0
C336 C 0.52977 0.48126 0.52698 0.0
Eu337 Eu 0.51903 0.49823 0.62458 0.0
C338 C 0.52102 0.4651 0.49549 0.0
C339 C 0.52995 0.45678 0.44585 0.0
C340 C 0.52137 0.44124 0.41682 0.0
C341 C 0.50383 0.43385 0.4375 0.0
C342 C 0.49493 0.4424 0.487 0.0
C343 C 0.50345 0.45787 0.51566 0.0
C344 C 0.53972 0.50961 0.7209 0.0
C345 C 0.50053 0.46668 0.7171 0.0
C346 C 0.48601 0.52551 0.84243 0.0
Eu347 Eu 0.49505 0.51196 0.73825 0.0
C348 C 0.47481 0.5418 0.86436 0.0
C349 C 0.46711 0.54132 0.92215 0.0
C350 C 0.45715 0.55711 0.94445 0.0
C351 C 0.45481 0.57368 0.9093 0.0
C352 C 0.46214 0.57384 0.85066 0.0
C353 C 0.472 0.55801 0.82831 0.0
C354 C 0.47187 0.50799 0.63974 0.0
C355 C 0.50958 0.54309 0.63849 0.0
O356 O 0.51948 0.49691 0.52735 0.0
O357 O 0.53699 0.4772 0.57961 0.0
O358 O 0.54541 0.51176 0.66587 0.0
O359 O 0.52419 0.5004 0.72222 0.0
O360 O 0.50698 0.47053 0.66262 0.0
O361 O 0.49663 0.48022 0.75659 0.0
O362 O 0.50198 0.52982 0.81456 0.0
O363 O 0.47626 0.51188 0.81602 0.0
O364 O 0.46571 0.51379 0.69147 0.0
O365 O 0.48947 0.50492 0.64485 0.0
O366 O 0.50454 0.5399 0.69491 0.0
O367 O 0.51378 0.5291 0.60082 0.0
H368 H 0.54353 0.46223 0.42978 0.0
H369 H 0.52857 0.43483 0.37891 0.0
H370 H 0.48127 0.43724 0.50328 0.0
H371 H 0.49624 0.46423 0.55356 0.0
H372 H 0.46901 0.52883 0.9503 0.0
H373 H 0.45142 0.55639 0.98942 0.0
H374 H 0.46083 0.58643 0.82262 0.0
H375 H 0.47776 0.55857 0.78333 0.0
C376 C 0.02909 0.53312 0.54955 0.0
Eu377 Eu 0.01149 0.51677 0.63828 0.0
C378 C 0.04915 0.53161 0.53081 0.0
C379 C 0.0588 0.54759 0.50785 0.0
C380 C 0.07839 0.5465 0.49527 0.0
C381 C 0.08855 0.52948 0.50626 0.0
C382 C 0.07873 0.51349 0.5287 0.0
C383 C 0.05923 0.51453 0.54078 0.0
C384 C 0.99904 0.53506 0.7377 0.0
C385 C 0.04448 0.50005 0.72815 0.0
C386 C 0.98414 0.47289 0.82394 0.0
Eu387 Eu 1.00063 0.49057 0.7353 0.0
C388 C 0.96452 0.46603 0.83452 0.0
C389 C 0.9615 0.44765 0.85789 0.0
C390 C 0.94289 0.44068 0.8655 0.0
C391 C 0.92703 0.45196 0.84939 0.0
C392 C 0.93014 0.47036 0.8259 0.0
C393 C 0.94869 0.47734 0.81871 0.0
C394 C 0.01271 0.47256 0.63438 0.0
C395 C 0.96733 0.50739 0.6446 0.0
O396 O 0.01883 0.51757 0.54366 0.0
O397 O 0.02643 0.54147 0.60113 0.0
O398 O 0.99477 0.54024 0.68351 0.0
O399 O 0.01007 0.52074 0.73717 0.0
O400 O 0.0402 0.50554 0.67307 0.0
O401 O 0.03077 0.4958 0.76636 0.0
O402 O 0.98654 0.49145 0.82209 0.0
O403 O 0.99354 0.46403 0.78179 0.0
O404 O 0.01752 0.46737 0.68804 0.0
O405 O 1.00161 0.48676 0.63645 0.0
O406 O 0.97152 0.49935 0.69674 0.0
O407 O 0.98091 0.51406 0.60938 0.0
H408 H 0.05127 0.56093 0.50055 0.0
H409 H 0.08566 0.55903 0.47792 0.0
H410 H 0.08611 0.50008 0.53647 0.0
H411 H 0.0521 0.50202 0.55871 0.0
H412 H 0.97354 0.43866 0.86993 0.0
H413 H 0.94091 0.42643 0.88357 0.0
H414 H 0.91822 0.47953 0.81418 0.0
H415 H 0.95064 0.49161 0.80085 0.0
C416 C 0.13373 0.02982 0.20149 0.0
C417 C 0.15045 0.01864 0.20329 0.0
C418 C 0.11887 0.02667 0.24245 0.0
C419 C 0.10149 0.99228 0.36 0.0
H420 H 0.0764 0.0374 0.42326 0.0
C421 C 0.06189 0.99333 0.58714 0.0
C422 C 0.04395 0.00237 0.58923 0.0
C423 C 0.07328 0.99451 0.53577 0.0
C424 C 0.08312 0.02464 0.40558 0.0
H425 H 0.1645 0.99518 0.24904 0.0
H426 H 0.13899 0.98994 0.321 0.0
H427 H 0.09894 0.04062 0.34067 0.0
H428 H 0.02392 0.0197 0.5394 0.0
H429 H 0.04399 0.02225 0.4498 0.0
H430 H 0.0862 0.97649 0.42704 0.0
C431 C 0.13696 1.00083 0.28712 0.0
C432 C 0.09601 0.02644 0.3579 0.0
C433 C 0.15168 0.00383 0.2457 0.0
C434 C 0.03764 0.01264 0.53894 0.0
C435 C 0.04917 0.01412 0.48781 0.0
C436 C 0.08881 0.99054 0.40821 0.0
C437 C 0.12046 0.01243 0.28689 0.0
C438 C 0.10558 0.0103 0.33476 0.0
C439 C 0.06712 0.00501 0.48562 0.0
C440 C 0.07964 0.00672 0.43196 0.0
H441 H 0.13231 0.04127 0.16907 0.0
H442 H 0.10626 0.03563 0.23974 0.0
H443 H 0.10816 0.97944 0.34279 0.0
H444 H 0.06714 0.9853 0.62526 0.0
H445 H 0.08711 0.98751 0.53573 0.0
C446 C 0.45894 0.1567 0.23379 0.0
C447 C 0.47039 0.15705 0.18213 0.0
C448 C 0.46185 0.14297 0.2783 0.0
C449 C 0.49659 0.10688 0.33602 0.0
H450 H 0.45133 0.08753 0.41638 0.0
C451 C 0.49867 0.04494 0.51126 0.0
C452 C 0.48864 0.04857 0.5646 0.0
C453 C 0.49661 0.05713 0.46171 0.0
C454 C 0.46412 0.09284 0.39457 0.0
H455 H 0.49427 0.1435 0.13741 0.0
H456 H 0.4992 0.11908 0.21487 0.0
H457 H 0.44792 0.11068 0.33568 0.0
H458 H 0.46825 0.06745 0.60737 0.0
H459 H 0.46438 0.08847 0.5208 0.0
H460 H 0.5127 0.08869 0.395 0.0
C461 C 0.48806 0.12964 0.22131 0.0
C462 C 0.4622 0.10622 0.34838 0.0
C463 C 0.48524 0.1436 0.17681 0.0
C464 C 0.47615 0.06429 0.56686 0.0
C465 C 0.47389 0.07629 0.51719 0.0
C466 C 0.49849 0.0933 0.38198 0.0
C467 C 0.47619 0.12896 0.27233 0.0
C468 C 0.47841 0.11374 0.31909 0.0
C469 C 0.48425 0.073 0.46421 0.0
C470 C 0.48228 0.08635 0.41244 0.0
H471 H 0.44762 0.16712 0.2398 0.0
H472 H 0.45279 0.14338 0.31757 0.0
H473 H 0.50942 0.11239 0.31503 0.0
H474 H 0.50842 0.03293 0.50826 0.0
H475 H 0.50465 0.05412 0.42139 0.0
C476 C 0.3776 0.48613 0.17559 0.0
C477 C 0.35824 0.49113 0.18351 0.0
C478 C 0.39107 0.48939 0.221 0.0
C479 C 0.39885 0.51603 0.36381 0.0
H480 H 0.43572 0.47583 0.39598 0.0
C481 C 0.44072 0.51196 0.58628 0.0
C482 C 0.46009 0.50662 0.58464 0.0
C483 C 0.42933 0.5109 0.53485 0.0
C484 C 0.4257 0.48732 0.38719 0.0
H485 H 0.33806 0.50375 0.24567 0.0
H486 H 0.36141 0.50943 0.32446 0.0
H487 H 0.41416 0.47302 0.31052 0.0
H488 H 0.48269 0.49598 0.52776 0.0
H489 H 0.46284 0.49395 0.43759 0.0
H490 H 0.41018 0.53017 0.44109 0.0
C491 C 0.36631 0.50325 0.2828 0.0
C492 C 0.41332 0.48573 0.33801 0.0
C493 C 0.35287 0.50002 0.23738 0.0
C494 C 0.46783 0.50011 0.53039 0.0
C495 C 0.4564 0.49891 0.47883 0.0
C496 C 0.41118 0.51759 0.41303 0.0
C497 C 0.38556 0.49772 0.27569 0.0
C498 C 0.39956 0.49997 0.32596 0.0
C499 C 0.43699 0.50438 0.48035 0.0
C500 C 0.42463 0.50316 0.42584 0.0
H501 H 0.38232 0.47946 0.13444 0.0
H502 H 0.4058 0.48527 0.21333 0.0
H503 H 0.38874 0.52747 0.35543 0.0
H504 H 0.4343 0.51699 0.62748 0.0
H505 H 0.4144 0.51493 0.53809 0.0
C506 C 0.04516 0.35252 0.24919 0.0
C507 C 0.03207 0.35074 0.20176 0.0
C508 C 0.04249 0.36623 0.29381 0.0
C509 C 0.00646 0.39951 0.36016 0.0
H510 H 0.05198 0.42297 0.42726 0.0
C511 C 0.0042 0.46288 0.52942 0.0
C512 C 0.01552 0.46038 0.5809 0.0
C513 C 0.00597 0.45037 0.48072 0.0
C514 C 0.03913 0.4165 0.40915 0.0
H515 H 0.00566 0.36173 0.16457 0.0
H516 H 1.00115 0.38617 0.24184 0.0
H517 H 0.0551 0.39966 0.34711 0.0
H518 H 0.03793 0.44324 0.62109 0.0
H519 H 0.04134 0.42168 0.53568 0.0
H520 H 0.99056 0.41681 0.42199 0.0
C521 C 0.01338 0.37671 0.24516 0.0
C522 C 0.04089 0.40301 0.36332 0.0
C523 C 0.01595 0.36275 0.20072 0.0
C524 C 0.02901 0.44549 0.58204 0.0
C525 C 0.03099 0.43319 0.53306 0.0
C526 C 0.0047 0.41323 0.4056 0.0
C527 C 0.02676 0.37881 0.29204 0.0
C528 C 0.02462 0.39403 0.33874 0.0
C529 C 0.01935 0.43533 0.4821 0.0
C530 C 0.02105 0.42167 0.4312 0.0
H531 H 0.05755 0.34322 0.25183 0.0
H532 H 0.05282 0.36689 0.3299 0.0
H533 H 0.99359 0.39284 0.34303 0.0
H534 H 0.99367 0.47424 0.52731 0.0
H535 H 0.99692 0.45248 0.44189 0.0
C536 C 0.86553 0.99443 0.173 0.0
C537 C 0.84579 0.99346 0.16081 0.0
C538 C 0.87896 0.99221 0.12718 0.0
C539 C 0.88602 0.97559 0.97116 0.0
H540 H 0.92515 0.01492 0.96809 0.0
C541 C 0.93258 0.99097 0.76154 0.0
C542 C 0.95148 0.99725 0.77011 0.0
C543 C 0.92035 0.98833 0.81052 0.0
C544 C 0.91459 0.00358 0.9686 0.0
H545 H 0.8248 0.98845 0.09097 0.0
H546 H 0.84828 0.98435 0.01113 0.0
H547 H 0.90284 0.0135 0.05128 0.0
H548 H 0.9726 0.00512 0.8367 0.0
H549 H 0.95158 0.99993 0.92215 0.0
H550 H 0.89779 0.9657 0.88825 0.0
C551 C 0.85335 0.9868 0.05629 0.0
C552 C 0.90173 0.0028 0.01643 0.0
C553 C 0.83988 0.9891 0.10217 0.0
C554 C 0.9581 1.00027 0.82868 0.0
C555 C 0.94595 0.99748 0.87766 0.0
C556 C 0.89901 0.97628 0.92338 0.0
C557 C 0.87303 0.98887 0.06797 0.0
C558 C 0.88722 0.98888 0.0182 0.0
C559 C 0.92679 0.9918 0.86927 0.0
C560 C 0.9134 0.99038 0.92125 0.0
H561 H 0.87061 0.9974 0.21784 0.0
H562 H 0.89403 0.99349 0.13792 0.0
H563 H 0.87511 0.96459 0.97145 0.0
H564 H 0.92708 0.98856 0.71685 0.0
H565 H 0.90567 0.98417 0.80207 0.0
C566 C 0.50069 0.84662 0.09743 0.0
C567 C 0.49822 0.85239 0.15719 0.0
C568 C 0.50207 0.86017 0.0515 0.0
C569 C 0.51103 0.91131 0.01705 0.0
H570 H 0.47974 0.90037 0.87793 0.0
C571 C 0.49833 0.96601 0.82197 0.0
C572 C 0.49743 0.95828 0.76406 0.0
C573 C 0.49939 0.95389 0.87219 0.0
C574 C 0.48879 0.90359 0.91598 0.0
H575 H 0.49633 0.87706 0.21563 0.0
H576 H 0.49869 0.90073 0.13523 0.0
H577 H 0.48072 0.87769 0.96025 0.0
H578 H 0.4976 0.93193 0.71309 0.0
H579 H 0.4999 0.91101 0.79946 0.0
H580 H 0.51917 0.93725 0.97213 0.0
C581 C 0.49953 0.88569 0.12402 0.0
C582 C 0.48934 0.89054 0.96331 0.0
C583 C 0.49803 0.87211 0.17004 0.0
C584 C 0.49809 0.93833 0.75719 0.0
C585 C 0.49927 0.92631 0.8069 0.0
C586 C 0.51057 0.92439 0.96928 0.0
C587 C 0.50109 0.87986 0.06402 0.0
C588 C 0.50059 0.8941 0.01423 0.0
C589 C 0.49958 0.93384 0.86521 0.0
C590 C 0.49959 0.92058 0.91778 0.0
H591 H 0.50071 0.83159 0.0857 0.0
H592 H 0.50355 0.85519 0.00585 0.0
H593 H 0.51987 0.91447 0.05562 0.0
H594 H 0.49769 0.98133 0.82853 0.0
H595 H 0.4995 0.96021 0.91641 0.0
C596 C 0.64085 0.51161 0.17433 0.0
C597 C 0.66043 0.51059 0.15942 0.0
C598 C 0.6269 0.51395 0.12983 0.0
C599 C 0.6189 0.53012 0.97476 0.0
H600 H 0.57769 0.493 0.97345 0.0
C601 C 0.57113 0.51892 0.76632 0.0
C602 C 0.55214 0.5128 0.77378 0.0
C603 C 0.58342 0.52052 0.81559 0.0
C604 C 0.58881 0.50377 0.9735 0.0
H605 H 0.68043 0.51175 0.085 0.0
H606 H 0.65618 0.51655 0.00829 0.0
H607 H 0.60056 0.4931 0.05571 0.0
H608 H 0.53094 0.50406 0.83896 0.0
H609 H 0.55201 0.50766 0.92531 0.0
H610 H 0.60713 0.54103 0.8932 0.0
C611 C 0.65169 0.51546 0.05456 0.0
C612 C 0.602 0.50375 0.02073 0.0
C613 C 0.66562 0.51282 0.09886 0.0
C614 C 0.54551 0.50884 0.8318 0.0
C615 C 0.55771 0.5107 0.88127 0.0
C616 C 0.60555 0.53035 0.92795 0.0
C617 C 0.63215 0.51568 0.06937 0.0
C618 C 0.61735 0.51674 0.02148 0.0
C619 C 0.57696 0.51628 0.87387 0.0
C620 C 0.59045 0.51697 0.92605 0.0
H621 H 0.63622 0.51037 0.22039 0.0
H622 H 0.61195 0.51432 0.14268 0.0
H623 H 0.63047 0.54045 0.97446 0.0
H624 H 0.5767 0.52199 0.7221 0.0
H625 H 0.59815 0.52453 0.80749 0.0
C626 C 0.00502 0.63755 0.18228 0.0
C627 C 1.00102 0.65701 0.17173 0.0
C628 C 1.00224 0.62388 0.1374 0.0
C629 C 0.99845 0.62029 0.97199 0.0
H630 H 0.98467 0.56764 0.00598 0.0
C631 C 0.987 0.5654 0.78321 0.0
C632 C 0.99617 0.54764 0.79021 0.0
C633 C 0.98569 0.57816 0.83115 0.0
C634 C 0.98863 0.58227 0.99587 0.0
H635 H 0.99011 0.67706 0.10579 0.0
H636 H 0.98451 0.65318 0.02868 0.0
H637 H 0.98505 0.5911 0.08694 0.0
H638 H 0.01046 0.52899 0.85356 0.0
H639 H 0.00806 0.55131 0.93773 0.0
H640 H 1.00196 0.61147 0.88098 0.0
C641 C 0.99033 0.64854 0.0712 0.0
C642 C 0.98889 0.59575 0.04229 0.0
C643 C 0.99326 0.66224 0.11594 0.0
C644 C 0.00335 0.5426 0.84683 0.0
C645 C 1.00191 0.55535 0.89505 0.0
C646 C 0.99803 0.60688 0.92563 0.0
C647 C 0.99522 0.62922 0.08076 0.0
C648 C 0.99393 0.61494 0.03108 0.0
C649 C 0.99338 0.57343 0.88743 0.0
C650 C 0.99322 0.58769 0.93698 0.0
H651 H 0.0107 0.63289 0.22497 0.0
H652 H 0.00629 0.60922 0.1466 0.0
H653 H 0.00283 0.63477 0.96156 0.0
H654 H 0.98121 0.56965 0.74023 0.0
H655 H 0.97877 0.59184 0.82401 0.0
C656 C 0.07603 0.20583 0.15159 0.0
C657 C 0.08046 0.22309 0.18066 0.0
C658 C 0.07314 0.18912 0.18452 0.0
C659 C 0.05535 0.17591 0.33163 0.0
H660 H 0.06495 0.12419 0.27675 0.0
C661 C 0.02531 0.11015 0.45555 0.0
C662 C 0.01737 0.09566 0.41971 0.0
C663 C 0.03586 0.12497 0.42982 0.0
C664 C 0.06209 0.13856 0.29243 0.0
H665 H 0.08719 0.23596 0.26633 0.0
H666 H 0.08218 0.20667 0.32403 0.0
H667 H 0.0805 0.15109 0.2265 0.0
H668 H 0.01433 0.08532 0.32877 0.0
H669 H 0.03235 0.11153 0.28352 0.0
H670 H 0.03649 0.16354 0.39619 0.0
C671 C 0.08059 0.20619 0.27583 0.0
C672 C 0.07106 0.15394 0.26387 0.0
C673 C 0.0835 0.22293 0.24284 0.0
C674 C 0.02011 0.09638 0.35748 0.0
C675 C 0.03067 0.11123 0.3317 0.0
C676 C 0.04638 0.16057 0.36009 0.0
C677 C 0.0746 0.18932 0.24722 0.0
C678 C 0.0675 0.1728 0.28249 0.0
C679 C 0.03867 0.12567 0.36762 0.0
C680 C 0.04937 0.14176 0.34012 0.0
H681 H 0.0733 0.20549 0.10387 0.0
H682 H 0.06837 0.17642 0.16114 0.0
H683 H 0.052 0.19028 0.34635 0.0
H684 H 0.02328 0.11011 0.50361 0.0
H685 H 0.04193 0.13581 0.45876 0.0
C686 C 0.2728 0.974 0.31556 0.0
C687 C 0.27575 0.97879 0.25515 0.0
C688 C 0.28506 0.96114 0.34448 0.0
C689 C 0.32697 0.9284 0.31764 0.0
H690 H 0.34484 0.95024 0.46684 0.0
C691 C 0.40453 0.93936 0.38293 0.0
C692 C 0.40999 0.9387 0.44348 0.0
C693 C 0.38582 0.9349 0.36606 0.0
C694 C 0.33978 0.94354 0.4261 0.0
H695 H 0.2927 0.97245 0.17634 0.0
H696 H 0.31455 0.95105 0.22692 0.0
H697 H 0.31445 0.96049 0.42576 0.0
H698 H 0.40069 0.93046 0.53261 0.0
H699 H 0.36773 0.92354 0.50318 0.0
H700 H 0.35348 0.91293 0.3156 0.0
C701 C 0.3027 0.95684 0.25227 0.0
C702 C 0.32226 0.94941 0.40241 0.0
C703 C 0.29037 0.96949 0.22338 0.0
C704 C 0.3968 0.9317 0.48584 0.0
C705 C 0.37799 0.92754 0.46905 0.0
C706 C 0.34468 0.92278 0.3409 0.0
C707 C 0.3006 0.95292 0.31368 0.0
C708 C 0.31613 0.94269 0.34625 0.0
C709 C 0.37216 0.9299 0.40941 0.0
C710 C 0.35161 0.93102 0.39387 0.0
H711 H 0.2616 0.98084 0.34126 0.0
H712 H 0.2828 0.95821 0.39155 0.0
H713 H 0.32241 0.92247 0.27521 0.0
H714 H 0.41416 0.9448 0.34902 0.0
H715 H 0.38166 0.93705 0.31981 0.0
C716 C 0.4369 0.30503 0.1396 0.0
C717 C 0.4325 0.28802 0.17018 0.0
C718 C 0.44109 0.3217 0.17124 0.0
C719 C 0.46086 0.33557 0.31638 0.0
H720 H 0.45026 0.38705 0.26051 0.0
C721 C 0.48672 0.40249 0.4429 0.0
C722 C 0.49469 0.41723 0.4081 0.0
C723 C 0.47742 0.38714 0.41571 0.0
C724 C 0.45341 0.37274 0.27635 0.0
H725 H 0.42754 0.27544 0.25748 0.0
H726 H 0.43459 0.3047 0.31297 0.0
H727 H 0.43506 0.35983 0.2111 0.0
H728 H 0.49925 0.42746 0.31763 0.0
H729 H 0.48316 0.40041 0.26984 0.0
H730 H 0.47939 0.34842 0.38104 0.0
C731 C 0.43523 0.30503 0.26455 0.0
C732 C 0.44468 0.35718 0.24822 0.0
C733 C 0.43111 0.28832 0.23286 0.0
C734 C 0.49334 0.41622 0.34548 0.0
C735 C 0.48395 0.40088 0.31823 0.0
C736 C 0.46952 0.35112 0.34457 0.0
C737 C 0.44092 0.32171 0.23413 0.0
C738 C 0.44849 0.3384 0.2675 0.0
C739 C 0.47586 0.38622 0.35313 0.0
C740 C 0.46606 0.36984 0.32443 0.0
H741 H 0.43839 0.30518 0.09135 0.0
H742 H 0.44562 0.33422 0.14643 0.0
H743 H 0.46444 0.32129 0.33156 0.0
H744 H 0.48771 0.4028 0.49128 0.0
H745 H 0.47123 0.3761 0.44375 0.0
C746 C 0.22063 0.4804 0.22995 0.0
C747 C 0.23548 0.46869 0.25126 0.0
C748 C 0.20816 0.48927 0.26965 0.0
C749 C 0.18636 0.48506 0.41465 0.0
H750 H 0.17311 0.53828 0.3874 0.0
C751 C 0.12165 0.51849 0.53171 0.0
C752 C 0.10914 0.52788 0.49208 0.0
C753 C 0.1404 0.51436 0.5145 0.0
C754 C 0.17668 0.52344 0.39571 0.0
H755 H 0.24889 0.45691 0.33064 0.0
H756 H 0.22649 0.47218 0.40075 0.0
H757 H 0.19986 0.52406 0.33316 0.0
H758 H 0.10666 0.54125 0.40492 0.0
H759 H 0.13923 0.53386 0.37441 0.0
H760 H 0.1625 0.484 0.47429 0.0
C761 C 0.22475 0.47453 0.35313 0.0
C762 C 0.192 0.51534 0.36484 0.0
C763 C 0.23748 0.46581 0.31321 0.0
C764 C 0.11605 0.53412 0.43648 0.0
C765 C 0.13475 0.52992 0.41915 0.0
C766 C 0.17092 0.49311 0.44522 0.0
C767 C 0.21017 0.48655 0.33154 0.0
C768 C 0.19651 0.49591 0.37247 0.0
C769 C 0.14696 0.51949 0.45726 0.0
C770 C 0.16549 0.5122 0.43438 0.0
H771 H 0.21898 0.48316 0.1825 0.0
H772 H 0.19685 0.49823 0.25185 0.0
H773 H 0.18954 0.47002 0.42105 0.0
H774 H 0.11674 0.51382 0.57534 0.0
H775 H 0.14956 0.50661 0.54525 0.0
C776 C 0.08561 0.78536 0.16328 0.0
C777 C 0.06987 0.77344 0.1508 0.0
C778 C 0.08966 0.80109 0.12672 0.0
C779 C 0.07811 0.82432 0.9817 0.0
H780 H 0.07849 0.87112 0.07459 0.0
C781 C 0.0484 0.89503 0.89192 0.0
C782 C 0.05587 0.91247 0.91253 0.0
C783 C 0.05546 0.8777 0.91378 0.0
C784 C 0.0789 0.85827 0.04763 0.0
H785 H 0.04673 0.76822 0.08786 0.0
H786 H 0.05402 0.7953 0.02395 0.0
H787 H 0.08214 0.84055 0.12501 0.0
H788 H 0.07732 0.92546 0.96959 0.0
H789 H 0.08987 0.89514 0.00741 0.0
H790 H 0.07426 0.84204 0.90445 0.0
C791 C 0.0633 0.79245 0.06181 0.0
C792 C 0.08099 0.8407 0.07666 0.0
C793 C 0.05914 0.77686 0.09857 0.0
C794 C 0.07111 0.91222 0.9536 0.0
C795 C 0.07827 0.89486 0.97522 0.0
C796 C 0.07617 0.84192 0.95255 0.0
C797 C 0.07818 0.8051 0.07661 0.0
C798 C 0.07994 0.82353 0.04426 0.0
C799 C 0.07024 0.8774 0.95656 0.0
C800 C 0.07583 0.85906 0.98547 0.0
H801 H 0.09442 0.78292 0.20246 0.0
H802 H 0.10136 0.8105 0.13875 0.0
H803 H 0.07749 0.8113 0.95556 0.0
H804 H 0.0365 0.89476 0.86085 0.0
H805 H 0.04866 0.86459 0.89919 0.0
C806 C 0.73352 0.07133 0.09809 0.0
C807 C 0.73074 0.06765 0.15938 0.0
C808 C 0.71787 0.07461 0.06044 0.0
C809 C 0.68228 0.06271 0.99163 0.0
H810 H 0.63581 0.08882 0.03975 0.0
C811 C 0.60778 0.04035 0.90958 0.0
C812 C 0.59403 0.05455 0.89794 0.0
C813 C 0.62561 0.04521 0.93332 0.0
C814 C 0.64875 0.0817 0.02509 0.0
H815 H 0.70936 0.06559 0.22956 0.0
H816 H 0.68224 0.0715 0.1643 0.0
H817 H 0.66518 0.09347 0.09718 0.0
H818 H 0.58855 0.0851 0.89994 0.0
H819 H 0.61968 0.09354 0.9422 0.0
H820 H 0.66576 0.05057 0.92046 0.0
C821 C 0.69649 0.07201 0.14528 0.0
C822 C 0.66552 0.08425 0.05826 0.0
C823 C 0.7121 0.06864 0.18282 0.0
C824 C 0.5987 0.07378 0.9094 0.0
C825 C 0.61653 0.07863 0.93339 0.0
C826 C 0.66551 0.06012 0.9586 0.0
C827 C 0.69914 0.07439 0.0834 0.0
C828 C 0.68233 0.07438 0.04282 0.0
C829 C 0.6301 0.06437 0.94612 0.0
C830 C 0.64845 0.06917 0.97596 0.0
H831 H 0.74774 0.07097 0.07882 0.0
H832 H 0.72036 0.07669 0.01303 0.0
H833 H 0.69494 0.05476 0.97883 0.0
H834 H 0.60456 0.02538 0.90216 0.0
H835 H 0.63563 0.03385 0.94362 0.0
C836 C 0.4441 0.72953 0.10055 0.0
C837 C 0.43219 0.73461 0.14865 0.0
C838 C 0.44033 0.71316 0.06694 0.0
C839 C 0.42714 0.67988 0.99111 0.0
H840 H 0.41857 0.63555 0.09211 0.0
C841 C 0.43409 0.60302 0.89969 0.0
C842 C 0.44587 0.59114 0.93486 0.0
C843 C 0.4272 0.62032 0.92245 0.0
C844 C 0.42084 0.64779 0.06322 0.0
H845 H 0.40612 0.72728 0.19609 0.0
H846 H 0.39959 0.69852 0.13738 0.0
H847 H 0.41575 0.66749 0.13447 0.0
H848 H 0.4593 0.58806 0.02195 0.0
H849 H 0.44724 0.61804 0.06152 0.0
H850 H 0.43341 0.66011 0.92081 0.0
C851 C 0.412 0.70712 0.12635 0.0
C852 C 0.419 0.66612 0.08728 0.0
C853 C 0.41575 0.72356 0.15997 0.0
C854 C 0.45001 0.59666 0.99393 0.0
C855 C 0.44307 0.61388 0.01668 0.0
C856 C 0.42897 0.66154 0.96702 0.0
C857 C 0.42458 0.70144 0.08063 0.0
C858 C 0.42279 0.68236 0.05203 0.0
C859 C 0.43185 0.62606 0.98092 0.0
C860 C 0.42651 0.6453 0.0034 0.0
H861 H 0.45705 0.7375 0.09109 0.0
H862 H 0.45049 0.70906 0.03266 0.0
H863 H 0.4299 0.69212 0.96263 0.0
H864 H 0.43038 0.59904 0.85432 0.0
H865 H 0.41842 0.62933 0.89404 0.0
C866 C 0.77132 0.43587 0.07475 0.0
C867 C 0.77152 0.45391 0.10233 0.0
C868 C 0.78425 0.43177 0.02863 0.0
C869 C 0.8187 0.45446 0.92348 0.0
H870 H 0.85052 0.41026 0.9567 0.0
C871 C 0.89275 0.44858 0.8176 0.0
C872 C 0.90723 0.44516 0.86001 0.0
C873 C 0.87364 0.44468 0.83127 0.0
C874 C 0.84168 0.42257 0.94642 0.0
H875 H 0.78426 0.48214 0.10132 0.0
H876 H 0.80672 0.4751 0.02137 0.0
H877 H 0.82013 0.41406 0.00906 0.0
H878 H 0.91318 0.43399 0.94861 0.0
H879 H 0.87992 0.42747 0.97292 0.0
H880 H 0.84083 0.46384 0.86466 0.0
C881 C 0.79669 0.46408 0.03477 0.0
C882 C 0.82417 0.42463 0.9759 0.0
C883 C 0.78398 0.46808 0.08101 0.0
C884 C 0.90236 0.43665 0.91486 0.0
C885 C 0.88326 0.43283 0.92865 0.0
C886 C 0.83621 0.45245 0.8942 0.0
C887 C 0.79729 0.44577 0.00897 0.0
C888 C 0.81296 0.44107 0.96682 0.0
C889 C 0.86861 0.43736 0.88776 0.0
C890 C 0.84831 0.43694 0.90746 0.0
H891 H 0.76179 0.42474 0.09062 0.0
H892 H 0.78439 0.41756 0.0094 0.0
H893 H 0.8102 0.46714 0.91495 0.0
H894 H 0.89616 0.45482 0.77448 0.0
H895 H 0.86273 0.44803 0.79843 0.0
C896 C 0.02033 0.2012 0.96216 0.0
C897 C 0.01735 0.21709 0.92446 0.0
C898 C 0.01802 0.18252 0.94074 0.0
C899 C 0.0182 0.15462 0.79979 0.0
H900 H 0.99648 0.11461 0.89899 0.0
C901 C 0.00349 0.0782 0.70924 0.0
C902 C 0.00665 0.06259 0.7479 0.0
C903 C 0.00465 0.09704 0.73031 0.0
C904 C 0.00282 0.12553 0.87088 0.0
H905 H 0.00887 0.22555 0.83487 0.0
H906 H 0.00483 0.19299 0.79757 0.0
H907 H 0.99792 0.1473 0.93655 0.0
H908 H 0.0139 0.05477 0.83914 0.0
H909 H 0.01622 0.08754 0.87554 0.0
H910 H 0.02323 0.13285 0.73429 0.0
C911 C 0.00927 0.19501 0.84358 0.0
C912 C 0.0036 0.14434 0.89244 0.0
C913 C 0.01154 0.21372 0.86505 0.0
C914 C 0.01131 0.06638 0.80801 0.0
C915 C 0.01249 0.08522 0.82906 0.0
C916 C 0.01745 0.13581 0.77826 0.0
C917 C 0.01271 0.17913 0.88092 0.0
C918 C 0.01135 0.15915 0.85728 0.0
C919 C 0.00903 0.10084 0.79066 0.0
C920 C 0.0098 0.12096 0.81354 0.0
H921 H 0.0252 0.20314 0.00777 0.0
H922 H 0.02106 0.1707 0.97065 0.0
H923 H 0.02457 0.16555 0.77177 0.0
H924 H 0.99982 0.07591 0.66269 0.0
H925 H 1.00168 0.10862 0.69945 0.0
C926 C 0.28984 0.01376 0.87575 0.0
C927 C 0.28776 0.02737 0.92168 0.0
C928 C 0.30775 0.01072 0.84869 0.0
C929 C 0.35912 0.01489 0.88088 0.0
H930 H 0.36686 0.01447 0.70914 0.0
C931 C 0.43492 0.01858 0.78179 0.0
C932 C 0.43912 0.00867 0.7287 0.0
C933 C 0.41612 0.01993 0.80278 0.0
C934 C 0.36496 0.01422 0.75721 0.0
H935 H 0.30298 0.04825 0.97544 0.0
H936 H 0.33397 0.04291 0.9287 0.0
H937 H 0.33453 0.01822 0.74966 0.0
H938 H 0.42661 0.9924 0.65599 0.0
H939 H 0.39381 0.99429 0.69347 0.0
H940 H 0.38926 0.01058 0.88918 0.0
C941 C 0.32179 0.03468 0.91325 0.0
C942 C 0.3464 0.01643 0.78036 0.0
C943 C 0.30395 0.03789 0.93957 0.0
C944 C 0.42393 1.00019 0.69695 0.0
C945 C 0.40506 1.00137 0.71837 0.0
C946 C 0.37757 0.01245 0.8579 0.0
C947 C 0.32398 0.02096 0.8679 0.0
C948 C 0.34334 0.01716 0.8425 0.0
C949 C 0.40089 0.0112 0.77183 0.0
C950 C 0.38087 0.01247 0.79572 0.0
H951 H 0.27766 0.00541 0.86099 0.0
H952 H 0.30902 1.00001 0.81395 0.0
H953 H 0.35719 0.01502 0.92899 0.0
H954 H 0.44616 0.02551 0.80715 0.0
H955 H 0.41356 0.02807 0.84317 0.0
C956 C 0.48368 0.29396 0.83212 0.0
C957 C 0.48489 0.28914 0.89328 0.0
C958 C 0.48628 0.31285 0.81264 0.0
C959 C 0.48779 0.36331 0.87158 0.0
H960 H 0.50321 0.37435 0.7088 0.0
C961 C 0.48555 0.44089 0.78023 0.0
C962 C 0.49849 0.44631 0.73524 0.0
C963 C 0.48403 0.42172 0.79821 0.0
C964 C 0.49918 0.37171 0.75481 0.0
H965 H 0.49075 0.30096 0.98135 0.0
H966 H 0.49686 0.33317 0.94712 0.0
H967 H 0.5024 0.34158 0.74313 0.0
H968 H 0.5202 0.43586 0.67437 0.0
H969 H 0.51848 0.40284 0.70773 0.0
H970 H 0.48588 0.39348 0.88459 0.0
C971 C 0.49293 0.32256 0.91413 0.0
C972 C 0.49832 0.35266 0.77436 0.0
C973 C 0.48985 0.30376 0.93381 0.0
C974 C 0.50993 0.43213 0.70877 0.0
C975 C 0.5088 0.41305 0.72779 0.0
C976 C 0.48913 0.38237 0.85251 0.0
C977 C 0.49071 0.32758 0.85338 0.0
C978 C 0.49244 0.34807 0.83298 0.0
C979 C 0.49581 0.40745 0.77287 0.0
C980 C 0.49467 0.38696 0.79357 0.0
H981 H 0.48037 0.28321 0.79889 0.0
H982 H 0.48422 0.31586 0.76559 0.0
H983 H 0.48283 0.36065 0.91667 0.0
H984 H 0.4764 0.45145 0.80116 0.0
H985 H 0.47346 0.41817 0.83176 0.0
C986 C 0.21154 0.47016 0.88224 0.0
C987 C 0.22176 0.48606 0.90409 0.0
C988 C 0.1928 0.47212 0.86084 0.0
C989 C 0.15701 0.50745 0.80606 0.0
H990 H 0.12075 0.46784 0.85 0.0
C991 C 0.0798 0.50406 0.70802 0.0
C992 C 0.06492 0.49871 0.74708 0.0
C993 C 0.09901 0.50289 0.72608 0.0
C994 C 0.13061 0.47912 0.83758 0.0
H995 H 0.22015 0.51667 0.91886 0.0
H996 H 0.18734 0.52005 0.88204 0.0
H997 H 0.15386 0.46548 0.88321 0.0
H998 H 0.05875 0.48803 0.83618 0.0
H999 H 0.09209 0.4861 0.86768 0.0
H1000 H 0.13359 0.52123 0.7612 0.0
C1001 C 0.19395 0.50604 0.88115 0.0
C1002 C 0.14972 0.47764 0.85607 0.0
C1003 C 0.21274 0.50407 0.90279 0.0
C1004 C 0.06978 0.49219 0.80471 0.0
C1005 C 0.08897 0.49099 0.82271 0.0
C1006 C 0.13786 0.50889 0.78732 0.0
C1007 C 0.18362 0.49003 0.86062 0.0
C1008 C 0.16322 0.49177 0.8406 0.0
C1009 C 0.10388 0.49628 0.78367 0.0
C1010 C 0.12437 0.49476 0.80296 0.0
H1011 H 0.21779 0.45599 0.88329 0.0
H1012 H 0.18546 0.45949 0.84467 0.0
H1013 H 0.16699 0.51853 0.79287 0.0
H1014 H 0.07664 0.5092 0.66338 0.0
H1015 H 0.11006 0.50691 0.6945 0.0
C1016 C 0.99797 0.81042 0.39008 0.0
C1017 C 0.99565 0.7946 0.42853 0.0
C1018 C 0.99577 0.82913 0.41121 0.0
C1019 C 0.97789 0.8579 0.54123 0.0
H1020 H 0.0126 0.89601 0.47688 0.0
C1021 C 0.99071 0.93233 0.65052 0.0
C1022 C 0.99128 0.94823 0.6118 0.0
C1023 C 0.98994 0.91369 0.62766 0.0
C1024 C 0.00268 0.88558 0.49493 0.0
H1025 H 0.98827 0.78641 0.51937 0.0
H1026 H 0.9853 0.81891 0.55671 0.0
H1027 H 0.01347 0.86351 0.43827 0.0
H1028 H 0.99143 0.95685 0.51846 0.0
H1029 H 0.99032 0.92435 0.47879 0.0
H1030 H 0.9676 0.88006 0.59932 0.0
C1031 C 0.98852 0.81688 0.50978 0.0
C1032 C 0.00309 0.8669 0.47257 0.0
C1033 C 0.9905 0.79813 0.48844 0.0
C1034 C 0.99096 0.94499 0.54967 0.0
C1035 C 0.99043 0.92635 0.52686 0.0
C1036 C 0.97766 0.87657 0.56411 0.0
C1037 C 0.99143 0.83269 0.4717 0.0
C1038 C 0.99067 0.85274 0.49523 0.0
C1039 C 0.98998 0.91047 0.56555 0.0
C1040 C 0.99003 0.89064 0.54113 0.0
H1041 H 1.00219 0.80847 0.34389 0.0
H1042 H 0.99771 0.84082 0.37999 0.0
H1043 H 0.96788 0.84758 0.55932 0.0
H1044 H 0.99094 0.93426 0.6986 0.0
H1045 H 0.98975 0.90176 0.65864 0.0
C1046 C 0.70699 0.00585 0.49121 0.0
C1047 C 0.71191 0.99513 0.44018 0.0
C1048 C 0.68849 0.00508 0.51498 0.0
C1049 C 0.6428 0.97752 0.51214 0.0
H1050 H 0.62128 0.02571 0.56548 0.0
C1051 C 0.56184 0.98804 0.56046 0.0
C1052 C 0.55677 0.99914 0.6105 0.0
C1053 C 0.58096 0.98662 0.54222 0.0
C1054 C 0.62713 0.01208 0.55149 0.0
H1055 H 0.70114 0.97454 0.37584 0.0
H1056 H 0.66874 0.97361 0.4163 0.0
H1057 H 0.65412 0.02464 0.52948 0.0
H1058 H 0.56802 0.01741 0.68062 0.0
H1059 H 0.6013 0.01487 0.649 0.0
H1060 H 0.61556 0.96509 0.53331 0.0
C1061 C 0.67931 0.98248 0.43837 0.0
C1062 C 0.64602 0.01144 0.53089 0.0
C1063 C 0.69788 0.98318 0.41471 0.0
C1064 C 0.57135 0.00868 0.64206 0.0
C1065 C 0.59045 0.00734 0.62363 0.0
C1066 C 0.62383 0.97819 0.53252 0.0
C1067 C 0.67427 0.9937 0.48823 0.0
C1068 C 0.65415 0.99416 0.51096 0.0
C1069 C 0.5955 0.99637 0.5733 0.0
C1070 C 0.61576 0.99548 0.55246 0.0
H1071 H 0.71721 0.01545 0.51177 0.0
H1072 H 0.6853 0.01364 0.55406 0.0
H1073 H 0.64861 0.96391 0.49792 0.0
H1074 H 0.55103 0.98047 0.53504 0.0
H1075 H 0.5843 0.97822 0.50292 0.0
C1076 C 0.50852 0.71353 0.49002 0.0
C1077 C 0.50377 0.71661 0.42946 0.0
C1078 C 0.51032 0.69494 0.51306 0.0
C1079 C 0.49626 0.64455 0.47835 0.0
H1080 H 0.53123 0.6322 0.60757 0.0
C1081 C 0.51074 0.56682 0.55405 0.0
C1082 C 0.51009 0.56313 0.61594 0.0
C1083 C 0.51059 0.58559 0.53229 0.0
C1084 C 0.52131 0.63549 0.57173 0.0
H1085 H 0.49773 0.70208 0.34564 0.0
H1086 H 0.50196 0.67005 0.38467 0.0
H1087 H 0.53063 0.66463 0.56666 0.0
H1088 H 0.50906 0.57647 0.7035 0.0
H1089 H 0.50911 0.60932 0.6653 0.0
H1090 H 0.4873 0.61527 0.48267 0.0
C1091 C 0.5037 0.68196 0.41508 0.0
C1092 C 0.52089 0.65412 0.5483 0.0
C1093 C 0.50164 0.7005 0.39226 0.0
C1094 C 0.50957 0.57876 0.65557 0.0
C1095 C 0.50969 0.59759 0.63375 0.0
C1096 C 0.49688 0.62592 0.5012 0.0
C1097 C 0.50765 0.67885 0.47612 0.0
C1098 C 0.50836 0.65894 0.50116 0.0
C1099 C 0.51002 0.60121 0.57181 0.0
C1100 C 0.5094 0.62115 0.54813 0.0
H1101 H 0.51059 0.72548 0.52009 0.0
H1102 H 0.51326 0.69325 0.56034 0.0
H1103 H 0.48604 0.64769 0.44326 0.0
H1104 H 0.5111 0.55518 0.52212 0.0
H1105 H 0.51102 0.58791 0.48436 0.0
C1106 C 0.7957 0.5027 0.51653 0.0
C1107 C 0.79133 0.50684 0.45634 0.0
C1108 C 0.81443 0.50454 0.53822 0.0
C1109 C 0.86472 0.50553 0.48401 0.0
H1110 H 0.87608 0.52061 0.64711 0.0
C1111 C 0.9424 0.51602 0.56784 0.0
C1112 C 0.94701 0.50859 0.62462 0.0
C1113 C 0.92337 0.51679 0.54827 0.0
C1114 C 0.87313 0.51622 0.60156 0.0
H1115 H 0.80343 0.51683 0.37251 0.0
H1116 H 0.8358 0.52071 0.41076 0.0
H1117 H 0.84302 0.52107 0.61157 0.0
H1118 H 0.93497 0.49626 0.70533 0.0
H1119 H 0.90182 0.49763 0.67131 0.0
H1120 H 0.89482 0.50072 0.47399 0.0
C1121 C 0.82481 0.5156 0.44099 0.0
C1122 C 0.85415 0.51646 0.58113 0.0
C1123 C 0.8061 0.51368 0.41923 0.0
C1124 C 0.93202 0.50213 0.66151 0.0
C1125 C 0.91296 0.503 0.64206 0.0
C1126 C 0.88368 0.50539 0.50433 0.0
C1127 C 0.82936 0.51066 0.50043 0.0
C1128 C 0.84965 0.51106 0.52205 0.0
C1129 C 0.90839 0.51024 0.58502 0.0
C1130 C 0.88815 0.51067 0.56341 0.0
H1131 H 0.78469 0.49763 0.54673 0.0
H1132 H 0.81731 0.50049 0.58414 0.0
H1133 H 0.86187 0.50086 0.43869 0.0
H1134 H 0.95352 0.52117 0.53813 0.0
H1135 H 0.92038 0.52266 0.50437 0.0
loop_
_geom_bond_atom_site_label_1
_geom_bond_atom_site_label_2
_geom_bond_distance
_geom_bond_site_symmetry_2
_ccdc_geom_bond_type
P0 O11 1.490 . S
P0 C14 1.812 . S
P0 C20 1.803 . S
P0 C26 1.819 . S
H1 C15 0.941 . S
H2 C16 0.939 . S
H3 C18 0.940 . S
H4 C19 0.940 . S
H5 C21 0.939 . S
H6 C22 0.942 . S
H7 C24 0.940 . S
H8 C25 0.939 . S
H9 C27 0.941 . S
H10 C31 0.939 . S
O11 P0 1.490 . S
H12 C28 0.939 . S
H13 C30 0.940 . S
C14 P0 1.812 . S
C14 C15 1.389 . S
C14 C19 1.391 . S
C15 H1 0.941 . S
C15 C14 1.389 . S
C15 C16 1.397 . S
C16 H2 0.939 . S
C16 C15 1.397 . S
C16 C17 1.378 . S
C17 C16 1.378 . S
C17 C18 1.378 . S
C18 H3 0.940 . S
C18 C17 1.378 . S
C18 C19 1.396 . S
C19 H4 0.940 . S
C19 C14 1.391 . S
C19 C18 1.396 . S
C20 P0 1.803 . S
C20 C21 1.378 . S
C20 C25 1.400 . S
C21 H5 0.939 . S
C21 C20 1.378 . S
C21 C22 1.361 . S
C22 H6 0.942 . S
C22 C21 1.361 . S
C22 C23 1.369 . S
C23 C22 1.369 . S
C23 C24 1.404 . S
C24 H7 0.940 . S
C24 C23 1.404 . S
C24 C25 1.389 . S
C25 H8 0.939 . S
C25 C20 1.400 . S
C25 C24 1.389 . S
C26 P0 1.819 . S
C26 C27 1.391 . S
C26 C31 1.391 . S
C27 H9 0.941 . S
C27 C26 1.391 . S
C27 C28 1.396 . S
C28 H12 0.939 . S
C28 C27 1.396 . S
C28 C29 1.397 . S
C29 C28 1.397 . S
C29 C30 1.385 . S
C30 H13 0.940 . S
C30 C29 1.385 . S
C30 C31 1.388 . S
C31 H10 0.939 . S
C31 C26 1.391 . S
C31 C30 1.388 . S
P32 O43 1.490 . S
P32 C46 1.812 . S
P32 C52 1.803 . S
P32 C58 1.819 . S
H33 C47 0.941 . S
H34 C48 0.939 . S
H35 C50 0.940 . S
H36 C51 0.950 . S
H37 C53 0.939 . S
H38 C54 0.942 . S
H39 C56 0.940 . S
H40 C57 0.959 . S
H41 C59 0.941 . S
H42 C63 0.929 1_655 S
O43 P32 1.490 . S
H44 C60 0.939 . S
H45 C62 0.940 . S
C46 P32 1.812 . S
C46 C47 1.389 . S
C46 C51 1.375 1_455 S
C47 H33 0.941 . S
C47 C46 1.389 . S
C47 C48 1.397 . S
C48 H34 0.939 . S
C48 C47 1.397 . S
C48 C49 1.378 . S
C49 C48 1.378 . S
C49 C50 1.378 1_455 S
C50 H35 0.940 . S
C50 C49 1.378 1_655 S
C50 C51 1.403 . S
C51 H36 0.950 . S
C51 C46 1.375 1_655 S
C51 C50 1.403 . S
C52 P32 1.803 . S
C52 C53 1.378 . S
C52 C57 1.368 1_455 S
C53 H37 0.939 . S
C53 C52 1.378 . S
C53 C54 1.361 . S
C54 H38 0.942 . S
C54 C53 1.361 . S
C54 C55 1.369 . S
C55 C54 1.369 . S
C55 C56 1.404 1_455 S
C56 H39 0.940 . S
C56 C55 1.404 1_655 S
C56 C57 1.402 . S
C57 H40 0.959 . S
C57 C52 1.368 1_655 S
C57 C56 1.402 . S
C58 P32 1.819 . S
C58 C59 1.391 . S
C58 C63 1.391 . S
C59 H41 0.941 . S
C59 C58 1.391 . S
C59 C60 1.396 . S
C60 H44 0.939 . S
C60 C59 1.396 . S
C60 C61 1.397 . S
C61 C60 1.397 . S
C61 C62 1.385 1_455 S
C62 H45 0.940 . S
C62 C61 1.385 1_655 S
C62 C63 1.388 1_655 S
C63 H42 0.929 1_455 S
C63 C58 1.391 . S
C63 C62 1.388 1_455 S
P64 O75 1.490 . S
P64 C78 1.812 . S
P64 C84 1.803 . S
P64 C90 1.819 . S
H65 C79 0.941 . S
H66 C80 0.939 . S
H67 C82 0.940 . S
H68 C83 0.950 . S
H69 C85 0.939 . S
H70 C86 0.942 . S
H71 C88 0.940 . S
H72 C89 0.959 . S
H73 C91 0.941 . S
H74 C95 0.929 1_565 S
O75 P64 1.490 . S
H76 C92 0.939 . S
H77 C94 0.940 . S
C78 P64 1.812 . S
C78 C79 1.389 . S
C78 C83 1.375 1_545 S
C79 H65 0.941 . S
C79 C78 1.389 . S
C79 C80 1.397 . S
C80 H66 0.939 . S
C80 C79 1.397 . S
C80 C81 1.378 . S
C81 C80 1.378 . S
C81 C82 1.378 1_545 S
C82 H67 0.940 . S
C82 C81 1.378 1_565 S
C82 C83 1.403 . S
C83 H68 0.950 . S
C83 C78 1.375 1_565 S
C83 C82 1.403 . S
C84 P64 1.803 . S
C84 C85 1.378 . S
C84 C89 1.368 1_545 S
C85 H69 0.939 . S
C85 C84 1.378 . S
C85 C86 1.361 . S
C86 H70 0.942 . S
C86 C85 1.361 . S
C86 C87 1.369 . S
C87 C86 1.369 . S
C87 C88 1.404 1_545 S
C88 H71 0.940 . S
C88 C87 1.404 1_565 S
C88 C89 1.402 . S
C89 H72 0.959 . S
C89 C84 1.368 1_565 S
C89 C88 1.402 . S
C90 P64 1.819 . S
C90 C91 1.391 . S
C90 C95 1.391 . S
C91 H73 0.941 . S
C91 C90 1.391 . S
C91 C92 1.396 . S
C92 H76 0.939 . S
C92 C91 1.396 . S
C92 C93 1.397 . S
C93 C92 1.397 . S
C93 C94 1.385 1_545 S
C94 H77 0.940 . S
C94 C93 1.385 1_565 S
C94 C95 1.388 1_565 S
C95 H74 0.929 1_545 S
C95 C90 1.391 . S
C95 C94 1.388 1_545 S
P96 O107 1.490 . S
P96 C110 1.812 . S
P96 C116 1.803 . S
P96 C122 1.819 . S
H97 C111 0.941 . S
H98 C112 0.939 . S
H99 C114 0.940 . S
H100 C115 0.940 . S
H101 C117 0.939 . S
H102 C118 0.942 . S
H103 C120 0.940 . S
H104 C121 0.939 . S
H105 C123 0.941 . S
H106 C127 0.939 . S
O107 P96 1.490 . S
H108 C124 0.939 . S
H109 C126 0.940 . S
C110 P96 1.812 . S
C110 C111 1.389 . S
C110 C115 1.391 . S
C111 H97 0.941 . S
C111 C110 1.389 . S
C111 C112 1.397 . S
C112 H98 0.939 . S
C112 C111 1.397 . S
C112 C113 1.378 . S
C113 C112 1.378 . S
C113 C114 1.378 . S
C114 H99 0.940 . S
C114 C113 1.378 . S
C114 C115 1.396 . S
C115 H100 0.940 . S
C115 C110 1.391 . S
C115 C114 1.396 . S
C116 P96 1.803 . S
C116 C117 1.378 . S
C116 C121 1.400 . S
C117 H101 0.939 . S
C117 C116 1.378 . S
C117 C118 1.361 . S
C118 H102 0.942 . S
C118 C117 1.361 . S
C118 C119 1.369 . S
C119 C118 1.369 . S
C119 C120 1.404 . S
C120 H103 0.940 . S
C120 C119 1.404 . S
C120 C121 1.389 . S
C121 H104 0.939 . S
C121 C116 1.400 . S
C121 C120 1.389 . S
C122 P96 1.819 . S
C122 C123 1.391 . S
C122 C127 1.391 . S
C123 H105 0.941 . S
C123 C122 1.391 . S
C123 C124 1.396 . S
C124 H108 0.939 . S
C124 C123 1.396 . S
C124 C125 1.397 . S
C125 C124 1.397 . S
C125 C126 1.385 . S
C126 H109 0.940 . S
C126 C125 1.385 . S
C126 C127 1.388 . S
C127 H106 0.939 . S
C127 C122 1.391 . S
C127 C126 1.388 . S
P128 O139 1.490 . S
P128 C142 1.812 1_554 S
P128 C148 1.803 . S
P128 C154 1.819 . S
H129 C143 0.941 . S
H130 C144 0.939 . S
H131 C146 0.940 . S
H132 C147 0.940 1_554 S
H133 C149 0.939 . S
H134 C150 0.942 . S
H135 C152 0.940 . S
H136 C153 0.939 . S
H137 C155 0.941 . S
H138 C159 0.939 . S
O139 P128 1.490 . S
H140 C156 0.939 . S
H141 C158 0.940 . S
C142 P128 1.812 1_556 S
C142 C143 1.389 . S
C142 C147 1.391 . S
C143 H129 0.941 . S
C143 C142 1.389 . S
C143 C144 1.397 . S
C144 H130 0.939 . S
C144 C143 1.397 . S
C144 C145 1.378 . S
C145 C144 1.378 . S
C145 C146 1.378 . S
C146 H131 0.940 . S
C146 C145 1.378 . S
C146 C147 1.396 . S
C147 H132 0.940 1_556 S
C147 C142 1.391 . S
C147 C146 1.396 . S
C148 P128 1.803 . S
C148 C149 1.378 . S
C148 C153 1.400 . S
C149 H133 0.939 . S
C149 C148 1.378 . S
C149 C150 1.361 . S
C150 H134 0.942 . S
C150 C149 1.361 . S
C150 C151 1.369 . S
C151 C150 1.369 . S
C151 C152 1.404 . S
C152 H135 0.940 . S
C152 C151 1.404 . S
C152 C153 1.389 . S
C153 H136 0.939 . S
C153 C148 1.400 . S
C153 C152 1.389 . S
C154 P128 1.819 . S
C154 C155 1.391 . S
C154 C159 1.391 . S
C155 H137 0.941 . S
C155 C154 1.391 . S
C155 C156 1.396 . S
C156 H140 0.939 . S
C156 C155 1.396 . S
C156 C157 1.397 . S
C157 C156 1.397 . S
C157 C158 1.385 . S
C158 H141 0.940 . S
C158 C157 1.385 . S
C158 C159 1.388 . S
C159 H138 0.939 . S
C159 C154 1.391 . S
C159 C158 1.388 . S
P160 O171 1.490 . S
P160 C174 1.812 1_554 S
P160 C180 1.803 . S
P160 C186 1.819 . S
H161 C175 0.941 . S
H162 C176 0.939 . S
H163 C178 0.940 . S
H164 C179 0.942 1_554 S
H165 C181 0.939 . S
H166 C182 0.942 . S
H167 C184 0.940 . S
H168 C185 0.951 . S
H169 C187 0.941 . S
H170 C191 0.934 1_655 S
O171 P160 1.490 . S
H172 C188 0.939 . S
H173 C190 0.940 . S
C174 P160 1.812 1_556 S
C174 C175 1.389 . S
C174 C179 1.388 1_455 S
C175 H161 0.941 . S
C175 C174 1.389 . S
C175 C176 1.397 . S
C176 H162 0.939 . S
C176 C175 1.397 . S
C176 C177 1.378 . S
C177 C176 1.378 . S
C177 C178 1.378 1_455 S
C178 H163 0.940 . S
C178 C177 1.378 1_655 S
C178 C179 1.398 . S
C179 H164 0.942 1_556 S
C179 C174 1.388 1_655 S
C179 C178 1.398 . S
C180 P160 1.803 . S
C180 C181 1.378 . S
C180 C185 1.381 1_455 S
C181 H165 0.939 . S
C181 C180 1.378 . S
C181 C182 1.361 . S
C182 H166 0.942 . S
C182 C181 1.361 . S
C182 C183 1.369 . S
C183 C182 1.369 . S
C183 C184 1.404 1_455 S
C184 H167 0.940 . S
C184 C183 1.404 1_655 S
C184 C185 1.397 . S
C185 H168 0.951 . S
C185 C180 1.381 1_655 S
C185 C184 1.397 . S
C186 P160 1.819 . S
C186 C187 1.391 . S
C186 C191 1.391 . S
C187 H169 0.941 . S
C187 C186 1.391 . S
C187 C188 1.396 . S
C188 H172 0.939 . S
C188 C187 1.396 . S
C188 C189 1.397 . S
C189 C188 1.397 . S
C189 C190 1.385 1_455 S
C190 H173 0.940 . S
C190 C189 1.385 1_655 S
C190 C191 1.388 1_655 S
C191 H170 0.934 1_455 S
C191 C186 1.391 . S
C191 C190 1.388 1_455 S
P192 O203 1.490 . S
P192 C206 1.812 1_554 S
P192 C212 1.803 . S
P192 C218 1.819 . S
H193 C207 0.941 . S
H194 C208 0.939 . S
H195 C210 0.940 . S
H196 C211 0.942 1_554 S
H197 C213 0.939 . S
H198 C214 0.942 . S
H199 C216 0.940 . S
H200 C217 0.951 . S
H201 C219 0.941 . S
H202 C223 0.934 1_565 S
O203 P192 1.490 . S
H204 C220 0.939 . S
H205 C222 0.940 . S
C206 P192 1.812 1_556 S
C206 C207 1.389 . S
C206 C211 1.388 1_545 S
C207 H193 0.941 . S
C207 C206 1.389 . S
C207 C208 1.397 . S
C208 H194 0.939 . S
C208 C207 1.397 . S
C208 C209 1.378 . S
C209 C208 1.378 . S
C209 C210 1.378 1_545 S
C210 H195 0.940 . S
C210 C209 1.378 1_565 S
C210 C211 1.398 . S
C211 H196 0.942 1_556 S
C211 C206 1.388 1_565 S
C211 C210 1.398 . S
C212 P192 1.803 . S
C212 C213 1.378 . S
C212 C217 1.381 1_545 S
C213 H197 0.939 . S
C213 C212 1.378 . S
C213 C214 1.361 . S
C214 H198 0.942 . S
C214 C213 1.361 . S
C214 C215 1.369 . S
C215 C214 1.369 . S
C215 C216 1.404 1_545 S
C216 H199 0.940 . S
C216 C215 1.404 1_565 S
C216 C217 1.397 . S
C217 H200 0.951 . S
C217 C212 1.381 1_565 S
C217 C216 1.397 . S
C218 P192 1.819 . S
C218 C219 1.391 . S
C218 C223 1.391 . S
C219 H201 0.941 . S
C219 C218 1.391 . S
C219 C220 1.396 . S
C220 H204 0.939 . S
C220 C219 1.396 . S
C220 C221 1.397 . S
C221 C220 1.397 . S
C221 C222 1.385 1_545 S
C222 H205 0.940 . S
C222 C221 1.385 1_565 S
C222 C223 1.388 1_565 S
C223 H202 0.934 1_545 S
C223 C218 1.391 . S
C223 C222 1.388 1_545 S
P224 O235 1.490 . S
P224 C238 1.812 1_554 S
P224 C244 1.803 . S
P224 C250 1.819 . S
H225 C239 0.941 . S
H226 C240 0.939 . S
H227 C242 0.940 . S
H228 C243 0.940 1_554 S
H229 C245 0.939 . S
H230 C246 0.942 . S
H231 C248 0.940 . S
H232 C249 0.939 . S
H233 C251 0.941 . S
H234 C255 0.939 . S
O235 P224 1.490 . S
H236 C252 0.939 . S
H237 C254 0.940 . S
C238 P224 1.812 1_556 S
C238 C239 1.389 . S
C238 C243 1.391 . S
C239 H225 0.941 . S
C239 C238 1.389 . S
C239 C240 1.397 . S
C240 H226 0.939 . S
C240 C239 1.397 . S
C240 C241 1.378 . S
C241 C240 1.378 . S
C241 C242 1.378 . S
C242 H227 0.940 . S
C242 C241 1.378 . S
C242 C243 1.396 . S
C243 H228 0.940 1_556 S
C243 C238 1.391 . S
C243 C242 1.396 . S
C244 P224 1.803 . S
C244 C245 1.378 . S
C244 C249 1.400 . S
C245 H229 0.939 . S
C245 C244 1.378 . S
C245 C246 1.361 . S
C246 H230 0.942 . S
C246 C245 1.361 . S
C246 C247 1.369 . S
C247 C246 1.369 . S
C247 C248 1.404 . S
C248 H231 0.940 . S
C248 C247 1.404 . S
C248 C249 1.389 . S
C249 H232 0.939 . S
C249 C244 1.400 . S
C249 C248 1.389 . S
C250 P224 1.819 . S
C250 C251 1.391 . S
C250 C255 1.391 . S
C251 H233 0.941 . S
C251 C250 1.391 . S
C251 C252 1.396 . S
C252 H236 0.939 . S
C252 C251 1.396 . S
C252 C253 1.397 . S
C253 C252 1.397 . S
C253 C254 1.385 . S
C254 H237 0.940 . S
C254 C253 1.385 . S
C254 C255 1.388 . S
C255 H234 0.939 . S
C255 C250 1.391 . S
C255 C254 1.388 . S
C256 Eu257 2.835 . S
C256 C258 1.500 . S
C256 O276 1.257 . S
C256 O277 1.260 . S
Eu257 C256 2.835 . S
Eu257 O276 2.473 . S
Eu257 O277 2.480 . S
Eu257 O278 2.430 . S
Eu257 O279 2.670 1_545 S
Eu257 O280 2.394 . S
Eu257 O285 2.355 1_655 S
Eu257 O287 2.374 1_545 S
C258 C256 1.500 . S
C258 C259 1.377 . S
C258 C263 1.377 . S
C259 C258 1.377 . S
C259 C260 1.395 . S
C259 H288 0.931 . S
C260 C259 1.395 . S
C260 C261 1.383 . S
C260 H289 0.931 . S
C261 C260 1.383 . S
C261 C262 1.394 . S
C262 C261 1.394 . S
C262 C263 1.378 . S
C262 H290 0.931 1_655 S
C263 C258 1.377 . S
C263 C262 1.378 . S
C263 H291 0.931 1_655 S
C264 O278 1.282 . S
C264 O279 1.254 1_545 S
C265 O280 1.251 1_455 S
C265 O281 1.251 . S
C266 Eu267 2.835 . S
C266 C268 1.500 . S
C266 O282 1.257 . S
C266 O283 1.260 . S
Eu267 C266 2.835 . S
Eu267 O279 2.355 1_455 S
Eu267 O281 2.374 1_565 S
Eu267 O282 2.473 . S
Eu267 O283 2.480 . S
Eu267 O284 2.430 . S
Eu267 O285 2.670 1_565 S
Eu267 O286 2.394 . S
C268 C266 1.500 . S
C268 C269 1.377 . S
C268 C273 1.377 . S
C269 C268 1.377 . S
C269 C270 1.395 . S
C269 H292 0.931 . S
C270 C269 1.395 . S
C270 C271 1.383 . S
C270 H293 0.931 . S
C271 C270 1.383 . S
C271 C272 1.394 . S
C272 C271 1.394 . S
C272 C273 1.378 . S
C272 H294 0.931 1_455 S
C273 C268 1.377 . S
C273 C272 1.378 . S
C273 H295 0.931 1_455 S
C274 O284 1.275 . S
C274 O285 1.259 1_565 S
C275 O286 1.251 1_655 S
C275 O287 1.251 . S
O276 C256 1.257 . S
O276 Eu257 2.473 . S
O277 C256 1.260 . S
O277 Eu257 2.480 . S
O278 Eu257 2.430 . S
O278 C264 1.282 . S
O279 Eu257 2.670 1_565 S
O279 C264 1.254 1_565 S
O279 Eu267 2.355 1_655 S
O280 Eu257 2.394 . S
O280 C265 1.251 1_655 S
O281 C265 1.251 . S
O281 Eu267 2.374 1_545 S
O282 C266 1.257 . S
O282 Eu267 2.473 . S
O283 C266 1.260 . S
O283 Eu267 2.480 . S
O284 Eu267 2.430 . S
O284 C274 1.275 . S
O285 Eu257 2.355 1_455 S
O285 Eu267 2.670 1_545 S
O285 C274 1.259 1_545 S
O286 Eu267 2.394 . S
O286 C275 1.251 1_455 S
O287 Eu257 2.374 1_565 S
O287 C275 1.251 . S
H288 C259 0.931 . S
H289 C260 0.931 . S
H290 C262 0.931 1_455 S
H291 C263 0.931 1_455 S
H292 C269 0.931 . S
H293 C270 0.931 . S
H294 C272 0.931 1_655 S
H295 C273 0.931 1_655 S
C296 Eu297 2.835 . S
C296 C298 1.500 . S
C296 O316 1.257 . S
C296 O317 1.260 . S
Eu297 C296 2.835 . S
Eu297 O316 2.473 . S
Eu297 O317 2.480 . S
Eu297 O318 2.430 . S
Eu297 O319 2.670 . S
Eu297 O320 2.394 . S
Eu297 O325 2.355 1_565 S
Eu297 O327 2.374 . S
C298 C296 1.500 . S
C298 C299 1.377 . S
C298 C303 1.377 . S
C299 C298 1.377 . S
C299 C300 1.395 . S
C299 H328 0.931 . S
C300 C299 1.395 . S
C300 C301 1.383 . S
C300 H329 0.931 . S
C301 C300 1.383 . S
C301 C302 1.394 . S
C302 C301 1.394 . S
C302 C303 1.378 . S
C302 H330 0.931 1_565 S
C303 C298 1.377 . S
C303 C302 1.378 . S
C303 H331 0.931 1_565 S
C304 O318 1.259 . S
C304 O319 1.270 . S
C305 O320 1.251 1_545 S
C305 O321 1.251 . S
C306 Eu307 2.835 . S
C306 C308 1.500 . S
C306 O322 1.257 . S
C306 O323 1.260 . S
Eu307 C306 2.835 . S
Eu307 O319 2.355 1_545 S
Eu307 O321 2.374 . S
Eu307 O322 2.473 . S
Eu307 O323 2.480 . S
Eu307 O324 2.430 . S
Eu307 O325 2.670 . S
Eu307 O326 2.394 . S
C308 C306 1.500 . S
C308 C309 1.377 . S
C308 C313 1.377 . S
C309 C308 1.377 . S
C309 C310 1.395 . S
C309 H332 0.931 . S
C310 C309 1.395 . S
C310 C311 1.383 . S
C310 H333 0.931 . S
C311 C310 1.383 . S
C311 C312 1.394 . S
C312 C311 1.394 . S
C312 C313 1.378 . S
C312 H334 0.931 1_545 S
C313 C308 1.377 . S
C313 C312 1.378 . S
C313 H335 0.931 1_545 S
C314 O324 1.259 . S
C314 O325 1.270 . S
C315 O326 1.251 1_565 S
C315 O327 1.251 . S
O316 C296 1.257 . S
O316 Eu297 2.473 . S
O317 C296 1.260 . S
O317 Eu297 2.480 . S
O318 Eu297 2.430 . S
O318 C304 1.259 . S
O319 Eu297 2.670 . S
O319 C304 1.270 . S
O319 Eu307 2.355 1_565 S
O320 Eu297 2.394 . S
O320 C305 1.251 1_565 S
O321 C305 1.251 . S
O321 Eu307 2.374 . S
O322 C306 1.257 . S
O322 Eu307 2.473 . S
O323 C306 1.260 . S
O323 Eu307 2.480 . S
O324 Eu307 2.430 . S
O324 C314 1.259 . S
O325 Eu297 2.355 1_545 S
O325 Eu307 2.670 . S
O325 C314 1.270 . S
O326 Eu307 2.394 . S
O326 C315 1.251 1_545 S
O327 Eu297 2.374 . S
O327 C315 1.251 . S
H328 C299 0.931 . S
H329 C300 0.931 . S
H330 C302 0.931 1_545 S
H331 C303 0.931 1_545 S
H332 C309 0.931 . S
H333 C310 0.931 . S
H334 C312 0.931 1_565 S
H335 C313 0.931 1_565 S
C336 Eu337 2.835 . S
C336 C338 1.500 . S
C336 O356 1.257 . S
C336 O357 1.260 . S
Eu337 C336 2.835 . S
Eu337 O356 2.473 . S
Eu337 O357 2.480 . S
Eu337 O358 2.430 . S
Eu337 O359 2.670 . S
Eu337 O360 2.394 . S
Eu337 O365 2.355 . S
Eu337 O367 2.374 . S
C338 C336 1.500 . S
C338 C339 1.377 . S
C338 C343 1.377 . S
C339 C338 1.377 . S
C339 C340 1.395 . S
C339 H368 0.931 . S
C340 C339 1.395 . S
C340 C341 1.383 . S
C340 H369 0.931 . S
C341 C340 1.383 . S
C341 C342 1.394 . S
C342 C341 1.394 . S
C342 C343 1.378 . S
C342 H370 0.931 . S
C343 C338 1.377 . S
C343 C342 1.378 . S
C343 H371 0.931 . S
C344 O358 1.259 . S
C344 O359 1.270 . S
C345 O360 1.251 . S
C345 O361 1.251 . S
C346 Eu347 2.835 . S
C346 C348 1.500 . S
C346 O362 1.257 . S
C346 O363 1.260 . S
Eu347 C346 2.835 . S
Eu347 O359 2.355 . S
Eu347 O361 2.374 . S
Eu347 O362 2.473 . S
Eu347 O363 2.480 . S
Eu347 O364 2.430 . S
Eu347 O365 2.670 . S
Eu347 O366 2.394 . S
C348 C346 1.500 . S
C348 C349 1.377 . S
C348 C353 1.377 . S
C349 C348 1.377 . S
C349 C350 1.395 . S
C349 H372 0.931 . S
C350 C349 1.395 . S
C350 C351 1.383 . S
C350 H373 0.931 . S
C351 C350 1.383 . S
C351 C352 1.394 . S
C352 C351 1.394 . S
C352 C353 1.378 . S
C352 H374 0.931 . S
C353 C348 1.377 . S
C353 C352 1.378 . S
C353 H375 0.931 . S
C354 O364 1.259 . S
C354 O365 1.270 . S
C355 O366 1.251 . S
C355 O367 1.251 . S
O356 C336 1.257 . S
O356 Eu337 2.473 . S
O357 C336 1.260 . S
O357 Eu337 2.480 . S
O358 Eu337 2.430 . S
O358 C344 1.259 . S
O359 Eu337 2.670 . S
O359 C344 1.270 . S
O359 Eu347 2.355 . S
O360 Eu337 2.394 . S
O360 C345 1.251 . S
O361 C345 1.251 . S
O361 Eu347 2.374 . S
O362 C346 1.257 . S
O362 Eu347 2.473 . S
O363 C346 1.260 . S
O363 Eu347 2.480 . S
O364 Eu347 2.430 . S
O364 C354 1.259 . S
O365 Eu337 2.355 . S
O365 Eu347 2.670 . S
O365 C354 1.270 . S
O366 Eu347 2.394 . S
O366 C355 1.251 . S
O367 Eu337 2.374 . S
O367 C355 1.251 . S
H368 C339 0.931 . S
H369 C340 0.931 . S
H370 C342 0.931 . S
H371 C343 0.931 . S
H372 C349 0.931 . S
H373 C350 0.931 . S
H374 C352 0.931 . S
H375 C353 0.931 . S
C376 Eu377 2.835 . S
C376 C378 1.500 . S
C376 O396 1.257 . S
C376 O397 1.260 . S
Eu377 C376 2.835 . S
Eu377 O396 2.473 . S
Eu377 O397 2.480 . S
Eu377 O398 2.430 . S
Eu377 O399 2.670 1_455 S
Eu377 O400 2.394 . S
Eu377 O405 2.355 . S
Eu377 O407 2.374 1_455 S
C378 C376 1.500 . S
C378 C379 1.377 . S
C378 C383 1.377 . S
C379 C378 1.377 . S
C379 C380 1.395 . S
C379 H408 0.931 . S
C380 C379 1.395 . S
C380 C381 1.383 . S
C380 H409 0.931 . S
C381 C380 1.383 . S
C381 C382 1.394 . S
C382 C381 1.394 . S
C382 C383 1.378 . S
C382 H410 0.931 . S
C383 C378 1.377 . S
C383 C382 1.378 . S
C383 H411 0.931 . S
C384 O398 1.275 . S
C384 O399 1.258 1_455 S
C385 O400 1.251 . S
C385 O401 1.251 . S
C386 Eu387 2.835 . S
C386 C388 1.500 . S
C386 O402 1.257 . S
C386 O403 1.260 . S
Eu387 C386 2.835 . S
Eu387 O399 2.355 . S
Eu387 O401 2.374 1_655 S
Eu387 O402 2.473 . S
Eu387 O403 2.480 . S
Eu387 O404 2.430 . S
Eu387 O405 2.670 1_655 S
Eu387 O406 2.394 . S
C388 C386 1.500 . S
C388 C389 1.377 . S
C388 C393 1.377 . S
C389 C388 1.377 . S
C389 C390 1.395 . S
C389 H412 0.931 . S
C390 C389 1.395 . S
C390 C391 1.383 . S
C390 H413 0.931 . S
C391 C390 1.383 . S
C391 C392 1.394 . S
C392 C391 1.394 . S
C392 C393 1.378 . S
C392 H414 0.931 . S
C393 C388 1.377 . S
C393 C392 1.378 . S
C393 H415 0.931 . S
C394 O404 1.268 . S
C394 O405 1.263 1_655 S
C395 O406 1.251 . S
C395 O407 1.251 . S
O396 C376 1.257 . S
O396 Eu377 2.473 . S
O397 C376 1.260 . S
O397 Eu377 2.480 . S
O398 Eu377 2.430 . S
O398 C384 1.275 . S
O399 Eu377 2.670 1_655 S
O399 C384 1.258 1_655 S
O399 Eu387 2.355 . S
O400 Eu377 2.394 . S
O400 C385 1.251 . S
O401 C385 1.251 . S
O401 Eu387 2.374 1_455 S
O402 C386 1.257 . S
O402 Eu387 2.473 . S
O403 C386 1.260 . S
O403 Eu387 2.480 . S
O404 Eu387 2.430 . S
O404 C394 1.268 . S
O405 Eu377 2.355 . S
O405 Eu387 2.670 1_455 S
O405 C394 1.263 1_455 S
O406 Eu387 2.394 . S
O406 C395 1.251 . S
O407 Eu377 2.374 1_655 S
O407 C395 1.251 . S
H408 C379 0.931 . S
H409 C380 0.931 . S
H410 C382 0.931 . S
H411 C383 0.931 . S
H412 C389 0.931 . S
H413 C390 0.931 . S
H414 C392 0.931 . S
H415 C393 0.931 . S
C416 C417 1.352 . S
C416 C418 1.327 . S
C416 H441 0.950 . S
C417 C416 1.352 . S
C417 C433 1.346 1_545 S
C418 C416 1.327 . S
C418 C437 1.437 . S
C418 H442 0.950 . S
C419 C436 1.574 . S
C419 C438 1.355 1_565 S
C419 H443 0.949 . S
H420 C424 0.949 . S
C421 C422 1.322 1_565 S
C421 C423 1.327 . S
C421 H444 0.950 . S
C422 C421 1.322 1_545 S
C422 C434 1.376 . S
C423 C421 1.327 . S
C423 C439 1.408 1_565 S
C423 H445 0.950 . S
C424 H420 0.949 . S
C424 C432 1.574 . S
C424 C440 1.387 . S
H425 C433 0.950 . S
H426 C431 0.950 . S
H427 C432 0.949 . S
H428 C434 0.950 . S
H429 C435 0.950 . S
H430 C436 0.949 . S
C431 H426 0.950 . S
C431 C433 1.327 . S
C431 C437 1.420 1_565 S
C432 C424 1.574 . S
C432 H427 0.949 . S
C432 C438 1.381 . S
C433 C417 1.346 1_565 S
C433 H425 0.950 . S
C433 C431 1.327 . S
C434 C422 1.376 . S
C434 H428 0.950 . S
C434 C435 1.327 . S
C435 H429 0.950 . S
C435 C434 1.327 . S
C435 C439 1.449 . S
C436 C419 1.574 . S
C436 H430 0.949 . S
C436 C440 1.349 1_565 S
C437 C418 1.437 . S
C437 C431 1.420 1_545 S
C437 C438 1.523 . S
C438 C419 1.355 1_545 S
C438 C432 1.381 . S
C438 C437 1.523 . S
C439 C423 1.408 1_545 S
C439 C435 1.449 . S
C439 C440 1.523 . S
C440 C424 1.387 . S
C440 C436 1.349 1_545 S
C440 C439 1.523 . S
H441 C416 0.950 . S
H442 C418 0.950 . S
H443 C419 0.949 . S
H444 C421 0.950 . S
H445 C423 0.950 . S
C446 C447 1.349 . S
C446 C448 1.327 . S
C446 H471 0.950 . S
C447 C446 1.349 . S
C447 C463 1.349 . S
C448 C446 1.327 . S
C448 C467 1.429 . S
C448 H472 0.950 . S
C449 C466 1.574 . S
C449 C468 1.368 . S
C449 H473 0.949 . S
H450 C454 0.949 . S
C451 C452 1.349 . S
C451 C453 1.327 . S
C451 H474 0.950 . S
C452 C451 1.349 . S
C452 C464 1.349 . S
C453 C451 1.327 . S
C453 C469 1.429 . S
C453 H475 0.950 . S
C454 H450 0.949 . S
C454 C462 1.574 . S
C454 C470 1.368 . S
H455 C463 0.950 . S
H456 C461 0.950 . S
H457 C462 0.949 . S
H458 C464 0.950 . S
H459 C465 0.950 . S
H460 C466 0.949 . S
C461 H456 0.950 . S
C461 C463 1.327 . S
C461 C467 1.429 . S
C462 C454 1.574 . S
C462 H457 0.949 . S
C462 C468 1.368 . S
C463 C447 1.349 . S
C463 H455 0.950 . S
C463 C461 1.327 . S
C464 C452 1.349 . S
C464 H458 0.950 . S
C464 C465 1.327 . S
C465 H459 0.950 . S
C465 C464 1.327 . S
C465 C469 1.429 . S
C466 C449 1.574 . S
C466 H460 0.949 . S
C466 C470 1.368 . S
C467 C448 1.429 . S
C467 C461 1.429 . S
C467 C468 1.523 . S
C468 C449 1.368 . S
C468 C462 1.368 . S
C468 C467 1.523 . S
C469 C453 1.429 . S
C469 C465 1.429 . S
C469 C470 1.523 . S
C470 C454 1.368 . S
C470 C466 1.368 . S
C470 C469 1.523 . S
H471 C446 0.950 . S
H472 C448 0.950 . S
H473 C449 0.949 . S
H474 C451 0.950 . S
H475 C453 0.950 . S
C476 C477 1.349 . S
C476 C478 1.327 . S
C476 H501 0.950 . S
C477 C476 1.349 . S
C477 C493 1.349 . S
C478 C476 1.327 . S
C478 C497 1.429 . S
C478 H502 0.950 . S
C479 C496 1.574 . S
C479 C498 1.368 . S
C479 H503 0.949 . S
H480 C484 0.949 . S
C481 C482 1.349 . S
C481 C483 1.327 . S
C481 H504 0.950 . S
C482 C481 1.349 . S
C482 C494 1.349 . S
C483 C481 1.327 . S
C483 C499 1.429 . S
C483 H505 0.950 . S
C484 H480 0.949 . S
C484 C492 1.574 . S
C484 C500 1.368 . S
H485 C493 0.950 . S
H486 C491 0.950 . S
H487 C492 0.949 . S
H488 C494 0.950 . S
H489 C495 0.950 . S
H490 C496 0.949 . S
C491 H486 0.950 . S
C491 C493 1.327 . S
C491 C497 1.429 . S
C492 C484 1.574 . S
C492 H487 0.949 . S
C492 C498 1.368 . S
C493 C477 1.349 . S
C493 H485 0.950 . S
C493 C491 1.327 . S
C494 C482 1.349 . S
C494 H488 0.950 . S
C494 C495 1.327 . S
C495 H489 0.950 . S
C495 C494 1.327 . S
C495 C499 1.429 . S
C496 C479 1.574 . S
C496 H490 0.949 . S
C496 C500 1.368 . S
C497 C478 1.429 . S
C497 C491 1.429 . S
C497 C498 1.523 . S
C498 C479 1.368 . S
C498 C492 1.368 . S
C498 C497 1.523 . S
C499 C483 1.429 . S
C499 C495 1.429 . S
C499 C500 1.523 . S
C500 C484 1.368 . S
C500 C496 1.368 . S
C500 C499 1.523 . S
H501 C476 0.950 . S
H502 C478 0.950 . S
H503 C479 0.949 . S
H504 C481 0.950 . S
H505 C483 0.950 . S
C506 C507 1.351 . S
C506 C508 1.327 . S
C506 H531 0.950 . S
C507 C506 1.351 . S
C507 C523 1.347 1_455 S
C508 C506 1.327 . S
C508 C527 1.436 . S
C508 H532 0.950 . S
C509 C526 1.574 . S
C509 C528 1.357 1_655 S
C509 H533 0.949 . S
H510 C514 0.949 . S
C511 C512 1.324 1_655 S
C511 C513 1.327 . S
C511 H534 0.950 . S
C512 C511 1.324 1_455 S
C512 C524 1.375 . S
C513 C511 1.327 . S
C513 C529 1.410 1_655 S
C513 H535 0.950 . S
C514 H510 0.949 . S
C514 C522 1.574 . S
C514 C530 1.386 . S
H515 C523 0.950 . S
H516 C521 0.950 . S
H517 C522 0.949 . S
H518 C524 0.950 . S
H519 C525 0.950 . S
H520 C526 0.949 . S
C521 H516 0.950 . S
C521 C523 1.327 . S
C521 C527 1.421 1_655 S
C522 C514 1.574 . S
C522 H517 0.949 . S
C522 C528 1.380 . S
C523 C507 1.347 1_655 S
C523 H515 0.950 . S
C523 C521 1.327 . S
C524 C512 1.375 . S
C524 H518 0.950 . S
C524 C525 1.327 . S
C525 H519 0.950 . S
C525 C524 1.327 . S
C525 C529 1.448 . S
C526 C509 1.574 . S
C526 H520 0.949 . S
C526 C530 1.351 1_655 S
C527 C508 1.436 . S
C527 C521 1.421 1_455 S
C527 C528 1.523 . S
C528 C509 1.357 1_455 S
C528 C522 1.380 . S
C528 C527 1.523 . S
C529 C513 1.410 1_455 S
C529 C525 1.448 . S
C529 C530 1.523 . S
C530 C514 1.386 . S
C530 C526 1.351 1_455 S
C530 C529 1.523 . S
H531 C506 0.950 . S
H532 C508 0.950 . S
H533 C509 0.949 . S
H534 C511 0.950 . S
H535 C513 0.950 . S
C536 C537 1.346 . S
C536 C538 1.327 . S
C536 H561 0.950 . S
C537 C536 1.346 . S
C537 C553 1.352 1_545 S
C538 C536 1.327 . S
C538 C557 1.430 1_545 S
C538 H562 0.950 . S
C539 C556 1.574 1_554 S
C539 C558 1.371 . S
C539 H563 0.949 . S
H540 C544 0.949 . S
C541 C542 1.366 . S
C541 C543 1.327 . S
C541 H564 0.950 . S
C542 C541 1.366 . S
C542 C554 1.332 1_565 S
C543 C541 1.327 . S
C543 C559 1.440 . S
C543 H565 0.950 . S
C544 H540 0.949 . S
C544 C552 1.574 1_556 S
C544 C560 1.360 1_545 S
H545 C553 0.950 . S
H546 C551 0.950 . S
H547 C552 0.949 . S
H548 C554 0.950 . S
H549 C555 0.950 . S
H550 C556 0.949 . S
C551 H546 0.950 . S
C551 C553 1.327 . S
C551 C557 1.427 . S
C552 C544 1.574 1_554 S
C552 H547 0.949 . S
C552 C558 1.366 1_545 S
C553 C537 1.352 1_565 S
C553 H545 0.950 . S
C553 C551 1.327 . S
C554 C542 1.332 1_545 S
C554 H548 0.950 . S
C554 C555 1.327 . S
C555 H549 0.950 . S
C555 C554 1.327 . S
C555 C559 1.418 1_545 S
C556 C539 1.574 1_556 S
C556 H550 0.949 . S
C556 C560 1.377 . S
C557 C538 1.430 1_565 S
C557 C551 1.427 . S
C557 C558 1.523 . S
C558 C539 1.371 . S
C558 C552 1.366 1_565 S
C558 C557 1.523 . S
C559 C543 1.440 . S
C559 C555 1.418 1_565 S
C559 C560 1.523 . S
C560 C544 1.360 1_565 S
C560 C556 1.377 . S
C560 C559 1.523 . S
H561 C536 0.950 . S
H562 C538 0.950 . S
H563 C539 0.949 . S
H564 C541 0.950 . S
H565 C543 0.950 . S
C566 C567 1.349 . S
C566 C568 1.327 . S
C566 H591 0.950 . S
C567 C566 1.349 . S
C567 C583 1.349 . S
C568 C566 1.327 . S
C568 C587 1.429 . S
C568 H592 0.950 . S
C569 C586 1.574 1_554 S
C569 C588 1.368 . S
C569 H593 0.949 . S
H570 C574 0.949 . S
C571 C572 1.349 . S
C571 C573 1.327 . S
C571 H594 0.950 . S
C572 C571 1.349 . S
C572 C584 1.349 . S
C573 C571 1.327 . S
C573 C589 1.429 . S
C573 H595 0.950 . S
C574 H570 0.949 . S
C574 C582 1.575 . S
C574 C590 1.368 . S
H575 C583 0.950 . S
H576 C581 0.950 . S
H577 C582 0.949 1_554 S
H578 C584 0.950 . S
H579 C585 0.950 . S
H580 C586 0.949 . S
C581 H576 0.950 . S
C581 C583 1.327 . S
C581 C587 1.429 . S
C582 C574 1.575 . S
C582 H577 0.949 1_556 S
C582 C588 1.367 1_556 S
C583 C567 1.349 . S
C583 H575 0.950 . S
C583 C581 1.327 . S
C584 C572 1.349 . S
C584 H578 0.950 . S
C584 C585 1.327 . S
C585 H579 0.950 . S
C585 C584 1.327 . S
C585 C589 1.429 . S
C586 C569 1.574 1_556 S
C586 H580 0.949 . S
C586 C590 1.368 . S
C587 C568 1.429 . S
C587 C581 1.429 . S
C587 C588 1.523 . S
C588 C569 1.368 . S
C588 C582 1.367 1_554 S
C588 C587 1.523 . S
C589 C573 1.429 . S
C589 C585 1.429 . S
C589 C590 1.523 . S
C590 C574 1.368 . S
C590 C586 1.368 . S
C590 C589 1.523 . S
H591 C566 0.950 . S
H592 C568 0.950 . S
H593 C569 0.949 . S
H594 C571 0.950 . S
H595 C573 0.950 . S
C596 C597 1.349 . S
C596 C598 1.327 . S
C596 H621 0.950 . S
C597 C596 1.349 . S
C597 C613 1.349 . S
C598 C596 1.327 . S
C598 C617 1.429 . S
C598 H622 0.950 . S
C599 C616 1.574 1_554 S
C599 C618 1.368 . S
C599 H623 0.949 . S
H600 C604 0.949 . S
C601 C602 1.349 . S
C601 C603 1.327 . S
C601 H624 0.950 . S
C602 C601 1.349 . S
C602 C614 1.349 . S
C603 C601 1.327 . S
C603 C619 1.429 . S
C603 H625 0.950 . S
C604 H600 0.949 . S
C604 C612 1.574 1_556 S
C604 C620 1.368 . S
H605 C613 0.950 . S
H606 C611 0.950 . S
H607 C612 0.949 . S
H608 C614 0.950 . S
H609 C615 0.950 . S
H610 C616 0.949 . S
C611 H606 0.950 . S
C611 C613 1.327 . S
C611 C617 1.429 . S
C612 C604 1.574 1_554 S
C612 H607 0.949 . S
C612 C618 1.368 . S
C613 C597 1.349 . S
C613 H605 0.950 . S
C613 C611 1.327 . S
C614 C602 1.349 . S
C614 H608 0.950 . S
C614 C615 1.327 . S
C615 H609 0.950 . S
C615 C614 1.327 . S
C615 C619 1.429 . S
C616 C599 1.574 1_556 S
C616 H610 0.949 . S
C616 C620 1.368 . S
C617 C598 1.429 . S
C617 C611 1.429 . S
C617 C618 1.523 . S
C618 C599 1.368 . S
C618 C612 1.368 . S
C618 C617 1.523 . S
C619 C603 1.429 . S
C619 C615 1.429 . S
C619 C620 1.523 . S
C620 C604 1.368 . S
C620 C616 1.368 . S
C620 C619 1.523 . S
H621 C596 0.950 . S
H622 C598 0.950 . S
H623 C599 0.949 . S
H624 C601 0.950 . S
H625 C603 0.950 . S
C626 C627 1.348 1_455 S
C626 C628 1.327 . S
C626 H651 0.950 . S
C627 C626 1.348 1_655 S
C627 C643 1.349 . S
C628 C626 1.327 . S
C628 C647 1.427 1_455 S
C628 H652 0.950 . S
C629 C646 1.574 . S
C629 C648 1.371 1_556 S
C629 H653 0.949 . S
H630 C634 0.949 . S
C631 C632 1.356 . S
C631 C633 1.327 . S
C631 H654 0.950 . S
C632 C631 1.356 . S
C632 C644 1.344 1_655 S
C633 C631 1.327 . S
C633 C649 1.434 . S
C633 H655 0.950 . S
C634 H630 0.949 . S
C634 C642 1.574 . S
C634 C650 1.364 1_454 S
H635 C643 0.950 . S
H636 C641 0.950 . S
H637 C642 0.949 . S
H638 C644 0.950 . S
H639 C645 0.950 . S
H640 C646 0.949 . S
C641 H636 0.950 . S
C641 C643 1.327 . S
C641 C647 1.431 . S
C642 C634 1.574 . S
C642 H637 0.949 . S
C642 C648 1.366 1_455 S
C643 C627 1.349 . S
C643 H635 0.950 . S
C643 C641 1.327 . S
C644 C632 1.344 1_455 S
C644 H638 0.950 . S
C644 C645 1.327 . S
C645 H639 0.950 . S
C645 C644 1.327 . S
C645 C649 1.425 1_455 S
C646 C629 1.574 . S
C646 H640 0.949 . S
C646 C650 1.373 . S
C647 C628 1.427 1_655 S
C647 C641 1.431 . S
C647 C648 1.523 . S
C648 C629 1.371 1_554 S
C648 C642 1.366 1_655 S
C648 C647 1.523 . S
C649 C633 1.434 . S
C649 C645 1.425 1_655 S
C649 C650 1.523 . S
C650 C634 1.364 1_656 S
C650 C646 1.373 . S
C650 C649 1.523 . S
H651 C626 0.950 . S
H652 C628 0.950 . S
H653 C629 0.949 . S
H654 C631 0.950 . S
H655 C633 0.950 . S
C656 C657 1.349 . S
C656 C658 1.327 . S
C656 H681 0.950 . S
C657 C656 1.349 . S
C657 C673 1.349 1_455 S
C658 C656 1.327 . S
C658 C677 1.429 1_455 S
C658 H682 0.950 . S
C659 C676 1.574 . S
C659 C678 1.368 . S
C659 H683 0.949 . S
H660 C664 0.949 1_455 S
C661 C662 1.349 . S
C661 C663 1.327 . S
C661 H684 0.950 . S
C662 C661 1.349 . S
C662 C674 1.349 . S
C663 C661 1.327 . S
C663 C679 1.429 . S
C663 H685 0.950 . S
C664 H660 0.949 1_655 S
C664 C672 1.573 1_655 S
C664 C680 1.368 . S
H665 C673 0.950 . S
H666 C671 0.950 . S
H667 C672 0.950 . S
H668 C674 0.950 . S
H669 C675 0.950 . S
H670 C676 0.949 . S
C671 H666 0.950 . S
C671 C673 1.327 . S
C671 C677 1.429 . S
C672 C664 1.573 1_455 S
C672 H667 0.950 . S
C672 C678 1.367 1_455 S
C673 C657 1.349 1_655 S
C673 H665 0.950 . S
C673 C671 1.327 . S
C674 C662 1.349 . S
C674 H668 0.950 . S
C674 C675 1.327 . S
C675 H669 0.950 . S
C675 C674 1.327 . S
C675 C679 1.429 . S
C676 C659 1.574 . S
C676 H670 0.949 . S
C676 C680 1.368 . S
C677 C658 1.429 1_655 S
C677 C671 1.429 . S
C677 C678 1.523 . S
C678 C659 1.368 . S
C678 C672 1.367 1_655 S
C678 C677 1.523 . S
C679 C663 1.429 . S
C679 C675 1.429 . S
C679 C680 1.523 . S
C680 C664 1.368 . S
C680 C676 1.368 . S
C680 C679 1.523 . S
H681 C656 0.950 . S
H682 C658 0.950 . S
H683 C659 0.949 . S
H684 C661 0.950 . S
H685 C663 0.950 . S
C686 C687 1.349 . S
C686 C688 1.327 . S
C686 H711 0.950 . S
C687 C686 1.349 . S
C687 C703 1.349 1_545 S
C688 C686 1.327 . S
C688 C707 1.429 1_545 S
C688 H712 0.950 . S
C689 C706 1.574 . S
C689 C708 1.368 . S
C689 H713 0.949 . S
H690 C694 0.949 1_545 S
C691 C692 1.349 . S
C691 C693 1.327 . S
C691 H714 0.950 . S
C692 C691 1.349 . S
C692 C704 1.349 . S
C693 C691 1.327 . S
C693 C709 1.429 . S
C693 H715 0.950 . S
C694 H690 0.949 1_565 S
C694 C702 1.570 1_565 S
C694 C710 1.368 . S
H695 C703 0.950 . S
H696 C701 0.950 . S
H697 C702 0.963 . S
H698 C704 0.950 . S
H699 C705 0.950 . S
H700 C706 0.949 . S
C701 H696 0.950 . S
C701 C703 1.327 . S
C701 C707 1.429 . S
C702 C694 1.570 1_545 S
C702 H697 0.963 . S
C702 C708 1.357 1_545 S
C703 C687 1.349 1_565 S
C703 H695 0.950 . S
C703 C701 1.327 . S
C704 C692 1.349 . S
C704 H698 0.950 . S
C704 C705 1.327 . S
C705 H699 0.950 . S
C705 C704 1.327 . S
C705 C709 1.429 . S
C706 C689 1.574 . S
C706 H700 0.949 . S
C706 C710 1.368 . S
C707 C688 1.429 1_565 S
C707 C701 1.429 . S
C707 C708 1.523 . S
C708 C689 1.368 . S
C708 C702 1.357 1_565 S
C708 C707 1.523 . S
C709 C693 1.429 . S
C709 C705 1.429 . S
C709 C710 1.523 . S
C710 C694 1.368 . S
C710 C706 1.368 . S
C710 C709 1.523 . S
H711 C686 0.950 . S
H712 C688 0.950 . S
H713 C689 0.949 . S
H714 C691 0.950 . S
H715 C693 0.950 . S
C716 C717 1.349 . S
C716 C718 1.327 . S
C716 H741 0.950 . S
C717 C716 1.349 . S
C717 C733 1.349 . S
C718 C716 1.327 . S
C718 C737 1.429 . S
C718 H742 0.950 . S
C719 C736 1.574 . S
C719 C738 1.368 . S
C719 H743 0.949 . S
H720 C724 0.949 . S
C721 C722 1.349 . S
C721 C723 1.327 . S
C721 H744 0.950 . S
C722 C721 1.349 . S
C722 C734 1.349 . S
C723 C721 1.327 . S
C723 C739 1.429 . S
C723 H745 0.950 . S
C724 H720 0.949 . S
C724 C732 1.574 . S
C724 C740 1.368 . S
H725 C733 0.950 . S
H726 C731 0.950 . S
H727 C732 0.949 . S
H728 C734 0.950 . S
H729 C735 0.950 . S
H730 C736 0.949 . S
C731 H726 0.950 . S
C731 C733 1.327 . S
C731 C737 1.429 . S
C732 C724 1.574 . S
C732 H727 0.949 . S
C732 C738 1.368 . S
C733 C717 1.349 . S
C733 H725 0.950 . S
C733 C731 1.327 . S
C734 C722 1.349 . S
C734 H728 0.950 . S
C734 C735 1.327 . S
C735 H729 0.950 . S
C735 C734 1.327 . S
C735 C739 1.429 . S
C736 C719 1.574 . S
C736 H730 0.949 . S
C736 C740 1.368 . S
C737 C718 1.429 . S
C737 C731 1.429 . S
C737 C738 1.523 . S
C738 C719 1.368 . S
C738 C732 1.368 . S
C738 C737 1.523 . S
C739 C723 1.429 . S
C739 C735 1.429 . S
C739 C740 1.523 . S
C740 C724 1.368 . S
C740 C736 1.368 . S
C740 C739 1.523 . S
H741 C716 0.950 . S
H742 C718 0.950 . S
H743 C719 0.949 . S
H744 C721 0.950 . S
H745 C723 0.950 . S
C746 C747 1.349 . S
C746 C748 1.327 . S
C746 H771 0.950 . S
C747 C746 1.349 . S
C747 C763 1.349 . S
C748 C746 1.327 . S
C748 C767 1.429 . S
C748 H772 0.950 . S
C749 C766 1.574 . S
C749 C768 1.368 . S
C749 H773 0.949 . S
H750 C754 0.949 . S
C751 C752 1.349 . S
C751 C753 1.327 . S
C751 H774 0.950 . S
C752 C751 1.349 . S
C752 C764 1.349 . S
C753 C751 1.327 . S
C753 C769 1.429 . S
C753 H775 0.950 . S
C754 H750 0.949 . S
C754 C762 1.574 . S
C754 C770 1.368 . S
H755 C763 0.950 . S
H756 C761 0.950 . S
H757 C762 0.949 . S
H758 C764 0.950 . S
H759 C765 0.950 . S
H760 C766 0.949 . S
C761 H756 0.950 . S
C761 C763 1.327 . S
C761 C767 1.429 . S
C762 C754 1.574 . S
C762 H757 0.949 . S
C762 C768 1.368 . S
C763 C747 1.349 . S
C763 H755 0.950 . S
C763 C761 1.327 . S
C764 C752 1.349 . S
C764 H758 0.950 . S
C764 C765 1.327 . S
C765 H759 0.950 . S
C765 C764 1.327 . S
C765 C769 1.429 . S
C766 C749 1.574 . S
C766 H760 0.949 . S
C766 C770 1.368 . S
C767 C748 1.429 . S
C767 C761 1.429 . S
C767 C768 1.523 . S
C768 C749 1.368 . S
C768 C762 1.368 . S
C768 C767 1.523 . S
C769 C753 1.429 . S
C769 C765 1.429 . S
C769 C770 1.523 . S
C770 C754 1.368 . S
C770 C766 1.368 . S
C770 C769 1.523 . S
H771 C746 0.950 . S
H772 C748 0.950 . S
H773 C749 0.949 . S
H774 C751 0.950 . S
H775 C753 0.950 . S
C776 C777 1.349 1_455 S
C776 C778 1.327 . S
C776 H801 0.950 . S
C777 C776 1.349 1_655 S
C777 C793 1.349 . S
C778 C776 1.327 . S
C778 C797 1.429 . S
C778 H802 0.950 . S
C779 C796 1.581 . S
C779 C798 1.368 1_655 S
C779 H803 0.949 . S
H780 C784 0.949 . S
C781 C782 1.349 . S
C781 C783 1.327 . S
C781 H804 0.950 . S
C782 C781 1.349 . S
C782 C794 1.349 . S
C783 C781 1.327 . S
C783 C799 1.429 . S
C783 H805 0.950 1_455 S
C784 H780 0.949 . S
C784 C792 1.574 1_556 S
C784 C800 1.368 . S
H785 C793 0.950 . S
H786 C791 0.950 . S
H787 C792 0.949 . S
H788 C794 0.950 . S
H789 C795 0.950 . S
H790 C796 0.972 . S
C791 H786 0.950 . S
C791 C793 1.327 . S
C791 C797 1.429 1_655 S
C792 C784 1.574 1_554 S
C792 H787 0.949 . S
C792 C798 1.368 . S
C793 C777 1.349 . S
C793 H785 0.950 . S
C793 C791 1.327 . S
C794 C782 1.349 . S
C794 H788 0.950 . S
C794 C795 1.327 . S
C795 H789 0.950 . S
C795 C794 1.327 . S
C795 C799 1.429 . S
C796 C779 1.581 . S
C796 H790 0.972 . S
C796 C800 1.338 1_654 S
C797 C778 1.429 . S
C797 C791 1.429 1_455 S
C797 C798 1.523 . S
C798 C779 1.368 1_455 S
C798 C792 1.368 . S
C798 C797 1.523 . S
C799 C783 1.429 . S
C799 C795 1.429 . S
C799 C800 1.523 . S
C800 C784 1.368 . S
C800 C796 1.338 1_456 S
C800 C799 1.523 . S
H801 C776 0.950 . S
H802 C778 0.950 . S
H803 C779 0.949 . S
H804 C781 0.950 . S
H805 C783 0.950 1_655 S
C806 C807 1.349 1_545 S
C806 C808 1.327 . S
C806 H831 0.950 . S
C807 C806 1.349 1_565 S
C807 C823 1.349 . S
C808 C806 1.327 . S
C808 C827 1.429 . S
C808 H832 0.950 . S
C809 C826 1.574 . S
C809 C828 1.368 1_565 S
C809 H833 0.949 . S
H810 C814 0.949 . S
C811 C812 1.349 . S
C811 C813 1.327 . S
C811 H834 0.950 1_545 S
C812 C811 1.349 . S
C812 C824 1.349 . S
C813 C811 1.327 . S
C813 C829 1.429 . S
C813 H835 0.950 1_545 S
C814 H810 0.949 . S
C814 C822 1.574 1_556 S
C814 C830 1.368 . S
H815 C823 0.950 . S
H816 C821 0.950 . S
H817 C822 0.949 . S
H818 C824 0.950 . S
H819 C825 0.950 . S
H820 C826 0.949 1_556 S
C821 H816 0.950 . S
C821 C823 1.327 . S
C821 C827 1.429 1_565 S
C822 C814 1.574 1_554 S
C822 H817 0.949 . S
C822 C828 1.368 . S
C823 C807 1.349 . S
C823 H815 0.950 . S
C823 C821 1.327 . S
C824 C812 1.349 . S
C824 H818 0.950 . S
C824 C825 1.327 . S
C825 H819 0.950 . S
C825 C824 1.327 . S
C825 C829 1.429 . S
C826 C809 1.574 . S
C826 H820 0.949 1_554 S
C826 C830 1.368 1_564 S
C827 C808 1.429 . S
C827 C821 1.429 1_545 S
C827 C828 1.523 . S
C828 C809 1.368 1_545 S
C828 C822 1.368 . S
C828 C827 1.523 . S
C829 C813 1.429 . S
C829 C825 1.429 . S
C829 C830 1.523 . S
C830 C814 1.368 . S
C830 C826 1.368 1_546 S
C830 C829 1.523 . S
H831 C806 0.950 . S
H832 C808 0.950 . S
H833 C809 0.949 . S
H834 C811 0.950 1_565 S
H835 C813 0.950 1_565 S
C836 C837 1.349 . S
C836 C838 1.327 . S
C836 H861 0.950 . S
C837 C836 1.349 . S
C837 C853 1.349 . S
C838 C836 1.327 . S
C838 C857 1.429 . S
C838 H862 0.950 . S
C839 C856 1.574 . S
C839 C858 1.368 1_556 S
C839 H863 0.949 . S
H840 C844 0.949 . S
C841 C842 1.349 . S
C841 C843 1.327 . S
C841 H864 0.950 . S
C842 C841 1.349 . S
C842 C854 1.349 . S
C843 C841 1.327 . S
C843 C859 1.429 . S
C843 H865 0.950 . S
C844 H840 0.949 . S
C844 C852 1.574 . S
C844 C860 1.368 1_554 S
H845 C853 0.950 . S
H846 C851 0.950 . S
H847 C852 0.949 . S
H848 C854 0.950 . S
H849 C855 0.950 1_554 S
H850 C856 0.949 . S
C851 H846 0.950 . S
C851 C853 1.327 . S
C851 C857 1.429 . S
C852 C844 1.574 . S
C852 H847 0.949 . S
C852 C858 1.368 . S
C853 C837 1.349 . S
C853 H845 0.950 . S
C853 C851 1.327 . S
C854 C842 1.349 . S
C854 H848 0.950 . S
C854 C855 1.327 . S
C855 H849 0.950 1_556 S
C855 C854 1.327 . S
C855 C859 1.429 . S
C856 C839 1.574 . S
C856 H850 0.949 . S
C856 C860 1.368 . S
C857 C838 1.429 . S
C857 C851 1.429 . S
C857 C858 1.523 . S
C858 C839 1.368 1_554 S
C858 C852 1.368 . S
C858 C857 1.523 . S
C859 C843 1.429 . S
C859 C855 1.429 . S
C859 C860 1.523 . S
C860 C844 1.368 1_556 S
C860 C856 1.368 . S
C860 C859 1.523 . S
H861 C836 0.950 . S
H862 C838 0.950 . S
H863 C839 0.949 . S
H864 C841 0.950 . S
H865 C843 0.950 . S
C866 C867 1.349 . S
C866 C868 1.327 . S
C866 H891 0.950 . S
C867 C866 1.349 . S
C867 C883 1.349 . S
C868 C866 1.327 . S
C868 C887 1.429 . S
C868 H892 0.950 . S
C869 C886 1.574 1_554 S
C869 C888 1.368 . S
C869 H893 0.949 . S
H870 C874 0.949 . S
C871 C872 1.349 . S
C871 C873 1.327 . S
C871 H894 0.950 . S
C872 C871 1.349 . S
C872 C884 1.349 . S
C873 C871 1.327 . S
C873 C889 1.429 . S
C873 H895 0.950 . S
C874 H870 0.949 . S
C874 C882 1.574 . S
C874 C890 1.368 1_554 S
H875 C883 0.950 . S
H876 C881 0.950 . S
H877 C882 0.949 . S
H878 C884 0.950 . S
H879 C885 0.950 . S
H880 C886 0.949 . S
C881 H876 0.950 . S
C881 C883 1.327 . S
C881 C887 1.429 . S
C882 C874 1.574 . S
C882 H877 0.949 . S
C882 C888 1.368 . S
C883 C867 1.349 . S
C883 H875 0.950 . S
C883 C881 1.327 . S
C884 C872 1.349 . S
C884 H878 0.950 . S
C884 C885 1.327 . S
C885 H879 0.950 . S
C885 C884 1.327 . S
C885 C889 1.429 . S
C886 C869 1.574 1_556 S
C886 H880 0.949 . S
C886 C890 1.368 . S
C887 C868 1.429 . S
C887 C881 1.429 . S
C887 C888 1.523 . S
C888 C869 1.368 . S
C888 C882 1.368 . S
C888 C887 1.523 . S
C889 C873 1.429 . S
C889 C885 1.429 . S
C889 C890 1.523 . S
C890 C874 1.368 1_556 S
C890 C886 1.368 . S
C890 C889 1.523 . S
H891 C866 0.950 . S
H892 C868 0.950 . S
H893 C869 0.949 . S
H894 C871 0.950 . S
H895 C873 0.950 . S
C896 C897 1.349 1_655 S
C896 C898 1.327 . S
C896 H921 0.950 . S
C897 C896 1.349 1_455 S
C897 C913 1.349 . S
C898 C896 1.327 . S
C898 C917 1.429 1_655 S
C898 H922 0.950 . S
C899 C916 1.574 . S
C899 C918 1.368 . S
C899 H923 0.949 . S
H900 C904 0.949 . S
C901 C902 1.349 . S
C901 C903 1.327 . S
C901 H924 0.950 . S
C902 C901 1.349 . S
C902 C914 1.349 1_455 S
C903 C901 1.327 . S
C903 C919 1.429 . S
C903 H925 0.950 . S
C904 H900 0.949 . S
C904 C912 1.574 . S
C904 C920 1.368 1_655 S
H905 C913 0.950 . S
H906 C911 0.950 . S
H907 C912 0.949 . S
H908 C914 0.950 . S
H909 C915 0.950 . S
H910 C916 0.949 . S
C911 H906 0.950 . S
C911 C913 1.327 . S
C911 C917 1.429 . S
C912 C904 1.574 . S
C912 H907 0.949 . S
C912 C918 1.368 1_655 S
C913 C897 1.349 . S
C913 H905 0.950 . S
C913 C911 1.327 . S
C914 C902 1.349 1_655 S
C914 H908 0.950 . S
C914 C915 1.327 . S
C915 H909 0.950 . S
C915 C914 1.327 . S
C915 C919 1.429 1_655 S
C916 C899 1.574 . S
C916 H910 0.949 . S
C916 C920 1.368 . S
C917 C898 1.429 1_455 S
C917 C911 1.429 . S
C917 C918 1.523 . S
C918 C899 1.368 . S
C918 C912 1.368 1_455 S
C918 C917 1.523 . S
C919 C903 1.429 . S
C919 C915 1.429 1_455 S
C919 C920 1.523 . S
C920 C904 1.368 1_455 S
C920 C916 1.368 . S
C920 C919 1.523 . S
H921 C896 0.950 . S
H922 C898 0.950 . S
H923 C899 0.949 . S
H924 C901 0.950 . S
H925 C903 0.950 . S
C926 C927 1.349 1_565 S
C926 C928 1.327 . S
C926 H951 0.950 . S
C927 C926 1.349 1_545 S
C927 C943 1.349 . S
C928 C926 1.327 . S
C928 C947 1.429 1_565 S
C928 H952 0.950 . S
C929 C946 1.574 . S
C929 C948 1.368 . S
C929 H953 0.949 . S
H930 C934 0.949 . S
C931 C932 1.349 . S
C931 C933 1.327 . S
C931 H954 0.950 . S
C932 C931 1.349 . S
C932 C944 1.349 1_545 S
C933 C931 1.327 . S
C933 C949 1.429 . S
C933 H955 0.950 . S
C934 H930 0.949 . S
C934 C942 1.574 . S
C934 C950 1.368 1_565 S
H935 C943 0.950 . S
H936 C941 0.950 . S
H937 C942 0.949 . S
H938 C944 0.950 . S
H939 C945 0.950 . S
H940 C946 0.949 . S
C941 H936 0.950 . S
C941 C943 1.327 . S
C941 C947 1.429 . S
C942 C934 1.574 . S
C942 H937 0.949 . S
C942 C948 1.368 1_565 S
C943 C927 1.349 . S
C943 H935 0.950 . S
C943 C941 1.327 . S
C944 C932 1.349 1_565 S
C944 H938 0.950 . S
C944 C945 1.327 . S
C945 H939 0.950 . S
C945 C944 1.327 . S
C945 C949 1.429 1_565 S
C946 C929 1.574 . S
C946 H940 0.949 . S
C946 C950 1.368 . S
C947 C928 1.429 1_545 S
C947 C941 1.429 . S
C947 C948 1.523 . S
C948 C929 1.368 . S
C948 C942 1.368 1_545 S
C948 C947 1.523 . S
C949 C933 1.429 . S
C949 C945 1.429 1_545 S
C949 C950 1.523 . S
C950 C934 1.368 1_545 S
C950 C946 1.368 . S
C950 C949 1.523 . S
H951 C926 0.950 . S
H952 C928 0.950 . S
H953 C929 0.949 . S
H954 C931 0.950 . S
H955 C933 0.950 . S
C956 C957 1.349 . S
C956 C958 1.327 . S
C956 H981 0.950 . S
C957 C956 1.349 . S
C957 C973 1.349 . S
C958 C956 1.327 . S
C958 C977 1.429 . S
C958 H982 0.950 . S
C959 C976 1.574 . S
C959 C978 1.368 . S
C959 H983 0.949 . S
H960 C964 0.949 . S
C961 C962 1.349 . S
C961 C963 1.327 . S
C961 H984 0.950 . S
C962 C961 1.349 . S
C962 C974 1.349 . S
C963 C961 1.327 . S
C963 C979 1.429 . S
C963 H985 0.950 . S
C964 H960 0.949 . S
C964 C972 1.574 . S
C964 C980 1.368 . S
H965 C973 0.950 . S
H966 C971 0.950 . S
H967 C972 0.949 . S
H968 C974 0.950 . S
H969 C975 0.950 . S
H970 C976 0.949 . S
C971 H966 0.950 . S
C971 C973 1.327 . S
C971 C977 1.429 . S
C972 C964 1.574 . S
C972 H967 0.949 . S
C972 C978 1.368 . S
C973 C957 1.349 . S
C973 H965 0.950 . S
C973 C971 1.327 . S
C974 C962 1.349 . S
C974 H968 0.950 . S
C974 C975 1.327 . S
C975 H969 0.950 . S
C975 C974 1.327 . S
C975 C979 1.429 . S
C976 C959 1.574 . S
C976 H970 0.949 . S
C976 C980 1.368 . S
C977 C958 1.429 . S
C977 C971 1.429 . S
C977 C978 1.523 . S
C978 C959 1.368 . S
C978 C972 1.368 . S
C978 C977 1.523 . S
C979 C963 1.429 . S
C979 C975 1.429 . S
C979 C980 1.523 . S
C980 C964 1.368 . S
C980 C976 1.368 . S
C980 C979 1.523 . S
H981 C956 0.950 . S
H982 C958 0.950 . S
H983 C959 0.949 . S
H984 C961 0.950 . S
H985 C963 0.950 . S
C986 C987 1.349 . S
C986 C988 1.327 . S
C986 H1011 0.950 . S
C987 C986 1.349 . S
C987 C1003 1.349 . S
C988 C986 1.327 . S
C988 C1007 1.429 . S
C988 H1012 0.950 . S
C989 C1006 1.574 . S
C989 C1008 1.368 . S
C989 H1013 0.949 . S
H990 C994 0.949 . S
C991 C992 1.349 . S
C991 C993 1.327 . S
C991 H1014 0.950 . S
C992 C991 1.349 . S
C992 C1004 1.349 . S
C993 C991 1.327 . S
C993 C1009 1.429 . S
C993 H1015 0.950 . S
C994 H990 0.949 . S
C994 C1002 1.574 . S
C994 C1010 1.368 . S
H995 C1003 0.950 . S
H996 C1001 0.950 . S
H997 C1002 0.949 . S
H998 C1004 0.950 . S
H999 C1005 0.950 . S
H1000 C1006 0.949 . S
C1001 H996 0.950 . S
C1001 C1003 1.327 . S
C1001 C1007 1.429 . S
C1002 C994 1.574 . S
C1002 H997 0.949 . S
C1002 C1008 1.368 . S
C1003 C987 1.349 . S
C1003 H995 0.950 . S
C1003 C1001 1.327 . S
C1004 C992 1.349 . S
C1004 H998 0.950 . S
C1004 C1005 1.327 . S
C1005 H999 0.950 . S
C1005 C1004 1.327 . S
C1005 C1009 1.429 . S
C1006 C989 1.574 . S
C1006 H1000 0.949 . S
C1006 C1010 1.368 . S
C1007 C988 1.429 . S
C1007 C1001 1.429 . S
C1007 C1008 1.523 . S
C1008 C989 1.368 . S
C1008 C1002 1.368 . S
C1008 C1007 1.523 . S
C1009 C993 1.429 . S
C1009 C1005 1.429 . S
C1009 C1010 1.523 . S
C1010 C994 1.368 . S
C1010 C1006 1.368 . S
C1010 C1009 1.523 . S
H1011 C986 0.950 . S
H1012 C988 0.950 . S
H1013 C989 0.949 . S
H1014 C991 0.950 . S
H1015 C993 0.950 . S
C1016 C1017 1.349 . S
C1016 C1018 1.327 . S
C1016 H1041 0.950 . S
C1017 C1016 1.349 . S
C1017 C1033 1.349 1_655 S
C1018 C1016 1.327 . S
C1018 C1037 1.429 . S
C1018 H1042 0.950 . S
C1019 C1036 1.574 . S
C1019 C1038 1.368 1_455 S
C1019 H1043 0.949 . S
H1020 C1024 0.949 . S
C1021 C1022 1.349 1_455 S
C1021 C1023 1.327 . S
C1021 H1044 0.950 . S
C1022 C1021 1.349 1_655 S
C1022 C1034 1.349 . S
C1023 C1021 1.327 . S
C1023 C1039 1.429 1_455 S
C1023 H1045 0.950 . S
C1024 H1020 0.949 . S
C1024 C1032 1.574 . S
C1024 C1040 1.368 . S
H1025 C1033 0.950 . S
H1026 C1031 0.950 . S
H1027 C1032 0.949 . S
H1028 C1034 0.950 . S
H1029 C1035 0.950 . S
H1030 C1036 0.949 . S
C1031 H1026 0.950 . S
C1031 C1033 1.327 . S
C1031 C1037 1.429 1_455 S
C1032 C1024 1.574 . S
C1032 H1027 0.949 . S
C1032 C1038 1.368 . S
C1033 C1017 1.349 1_455 S
C1033 H1025 0.950 . S
C1033 C1031 1.327 . S
C1034 C1022 1.349 . S
C1034 H1028 0.950 . S
C1034 C1035 1.327 . S
C1035 H1029 0.950 . S
C1035 C1034 1.327 . S
C1035 C1039 1.429 . S
C1036 C1019 1.574 . S
C1036 H1030 0.949 . S
C1036 C1040 1.368 1_455 S
C1037 C1018 1.429 . S
C1037 C1031 1.429 1_655 S
C1037 C1038 1.523 . S
C1038 C1019 1.368 1_655 S
C1038 C1032 1.368 . S
C1038 C1037 1.523 . S
C1039 C1023 1.429 1_655 S
C1039 C1035 1.429 . S
C1039 C1040 1.523 . S
C1040 C1024 1.368 . S
C1040 C1036 1.368 1_655 S
C1040 C1039 1.523 . S
H1041 C1016 0.950 . S
H1042 C1018 0.950 . S
H1043 C1019 0.949 . S
H1044 C1021 0.950 . S
H1045 C1023 0.950 . S
C1046 C1047 1.309 1_545 S
C1046 C1048 1.327 . S
C1046 H1071 0.950 . S
C1047 C1046 1.309 1_565 S
C1047 C1063 1.392 . S
C1048 C1046 1.327 . S
C1048 C1067 1.429 1_545 S
C1048 H1072 0.950 . S
C1049 C1066 1.574 . S
C1049 C1068 1.368 . S
C1049 H1073 0.949 . S
H1050 C1054 0.949 . S
C1051 C1052 1.349 . S
C1051 C1053 1.327 . S
C1051 H1074 0.950 . S
C1052 C1051 1.349 . S
C1052 C1064 1.349 1_565 S
C1053 C1051 1.327 . S
C1053 C1069 1.429 . S
C1053 H1075 0.950 . S
C1054 H1050 0.949 . S
C1054 C1062 1.574 . S
C1054 C1070 1.368 1_545 S
H1055 C1063 0.950 . S
H1056 C1061 0.950 . S
H1057 C1062 0.949 . S
H1058 C1064 0.950 . S
H1059 C1065 0.950 . S
H1060 C1066 0.949 . S
C1061 H1056 0.950 . S
C1061 C1063 1.327 . S
C1061 C1067 1.429 . S
C1062 C1054 1.574 . S
C1062 H1057 0.949 . S
C1062 C1068 1.368 1_545 S
C1063 C1047 1.392 . S
C1063 H1055 0.950 . S
C1063 C1061 1.327 . S
C1064 C1052 1.349 1_545 S
C1064 H1058 0.950 . S
C1064 C1065 1.327 . S
C1065 H1059 0.950 . S
C1065 C1064 1.327 . S
C1065 C1069 1.429 1_545 S
C1066 C1049 1.574 . S
C1066 H1060 0.949 . S
C1066 C1070 1.368 . S
C1067 C1048 1.429 1_565 S
C1067 C1061 1.429 . S
C1067 C1068 1.523 . S
C1068 C1049 1.368 . S
C1068 C1062 1.368 1_565 S
C1068 C1067 1.523 . S
C1069 C1053 1.429 . S
C1069 C1065 1.429 1_565 S
C1069 C1070 1.523 . S
C1070 C1054 1.368 1_565 S
C1070 C1066 1.368 . S
C1070 C1069 1.523 . S
H1071 C1046 0.950 . S
H1072 C1048 0.950 . S
H1073 C1049 0.949 . S
H1074 C1051 0.950 . S
H1075 C1053 0.950 . S
C1076 C1077 1.349 . S
C1076 C1078 1.327 . S
C1076 H1101 0.950 . S
C1077 C1076 1.349 . S
C1077 C1093 1.349 . S
C1078 C1076 1.327 . S
C1078 C1097 1.429 . S
C1078 H1102 0.950 . S
C1079 C1096 1.574 . S
C1079 C1098 1.368 . S
C1079 H1103 0.949 . S
H1080 C1084 0.949 . S
C1081 C1082 1.349 . S
C1081 C1083 1.327 . S
C1081 H1104 0.950 . S
C1082 C1081 1.349 . S
C1082 C1094 1.349 . S
C1083 C1081 1.327 . S
C1083 C1099 1.429 . S
C1083 H1105 0.950 . S
C1084 H1080 0.949 . S
C1084 C1092 1.574 . S
C1084 C1100 1.368 . S
H1085 C1093 0.950 . S
H1086 C1091 0.950 . S
H1087 C1092 0.949 . S
H1088 C1094 0.950 . S
H1089 C1095 0.950 . S
H1090 C1096 0.949 . S
C1091 H1086 0.950 . S
C1091 C1093 1.327 . S
C1091 C1097 1.429 . S
C1092 C1084 1.574 . S
C1092 H1087 0.949 . S
C1092 C1098 1.368 . S
C1093 C1077 1.349 . S
C1093 H1085 0.950 . S
C1093 C1091 1.327 . S
C1094 C1082 1.349 . S
C1094 H1088 0.950 . S
C1094 C1095 1.327 . S
C1095 H1089 0.950 . S
C1095 C1094 1.327 . S
C1095 C1099 1.429 . S
C1096 C1079 1.574 . S
C1096 H1090 0.949 . S
C1096 C1100 1.368 . S
C1097 C1078 1.429 . S
C1097 C1091 1.429 . S
C1097 C1098 1.523 . S
C1098 C1079 1.368 . S
C1098 C1092 1.368 . S
C1098 C1097 1.523 . S
C1099 C1083 1.429 . S
C1099 C1095 1.429 . S
C1099 C1100 1.523 . S
C1100 C1084 1.368 . S
C1100 C1096 1.368 . S
C1100 C1099 1.523 . S
H1101 C1076 0.950 . S
H1102 C1078 0.950 . S
H1103 C1079 0.949 . S
H1104 C1081 0.950 . S
H1105 C1083 0.950 . S
C1106 C1107 1.349 . S
C1106 C1108 1.327 . S
C1106 H1131 0.950 . S
C1107 C1106 1.349 . S
C1107 C1123 1.349 . S
C1108 C1106 1.327 . S
C1108 C1127 1.429 . S
C1108 H1132 0.950 . S
C1109 C1126 1.574 . S
C1109 C1128 1.368 . S
C1109 H1133 0.949 . S
H1110 C1114 0.949 . S
C1111 C1112 1.349 . S
C1111 C1113 1.327 . S
C1111 H1134 0.950 . S
C1112 C1111 1.349 . S
C1112 C1124 1.349 . S
C1113 C1111 1.327 . S
C1113 C1129 1.429 . S
C1113 H1135 0.950 . S
C1114 H1110 0.949 . S
C1114 C1122 1.574 . S
C1114 C1130 1.368 . S
H1115 C1123 0.950 . S
H1116 C1121 0.950 . S
H1117 C1122 0.949 . S
H1118 C1124 0.950 . S
H1119 C1125 0.950 . S
H1120 C1126 0.949 . S
C1121 H1116 0.950 . S
C1121 C1123 1.327 . S
C1121 C1127 1.429 . S
C1122 C1114 1.574 . S
C1122 H1117 0.949 . S
C1122 C1128 1.368 . S
C1123 C1107 1.349 . S
C1123 H1115 0.950 . S
C1123 C1121 1.327 . S
C1124 C1112 1.349 . S
C1124 H1118 0.950 . S
C1124 C1125 1.327 . S
C1125 H1119 0.950 . S
C1125 C1124 1.327 . S
C1125 C1129 1.429 . S
C1126 C1109 1.574 . S
C1126 H1120 0.949 . S
C1126 C1130 1.368 . S
C1127 C1108 1.429 . S
C1127 C1121 1.429 . S
C1127 C1128 1.523 . S
C1128 C1109 1.368 . S
C1128 C1122 1.368 . S
C1128 C1127 1.523 . S
C1129 C1113 1.429 . S
C1129 C1125 1.429 . S
C1129 C1130 1.523 . S
C1130 C1114 1.368 . S
C1130 C1126 1.368 . S
C1130 C1129 1.523 . S
H1131 C1106 0.950 . S
H1132 C1108 0.950 . S
H1133 C1109 0.949 . S
H1134 C1111 0.950 . S
H1135 C1113 0.950 . S
C417 C215 1.840 . S
C422 C274 1.952 1_545 S
C452 C314 1.962 . S
C447 C247 1.837 . S
C482 C354 1.964 . S
C477 C151 1.844 . S
C512 C394 1.958 1_455 S
C507 C183 1.843 . S
C542 C264 1.957 1_565 S
C537 C87 1.844 . S
C567 C119 1.848 . S
C572 C304 1.967 . S
C597 C23 1.849 . S
C602 C344 1.963 . S
C627 C55 1.842 1_655 S
C632 C384 1.958 1_655 S
C662 C261 0.240 . S
C657 C189 0.231 . S
C692 C301 0.241 . S
C687 C221 0.235 . S
C722 C341 0.241 . S
C717 C253 0.243 . S
C747 C157 0.239 . S
C752 C381 0.236 . S
C777 C61 0.421 1_655 S
C782 C271 0.232 . S
C812 C311 0.241 . S
C807 C93 0.407 1_565 S
C842 C351 0.241 . S
C837 C125 0.413 . S
C867 C29 0.414 . S
C872 C391 0.242 . S
C897 C177 2.253 . S
C902 C265 2.475 . S
C927 C209 2.241 . S
C932 C305 2.469 . S
C962 C345 2.462 . S
C957 C241 2.232 . S
C992 C385 2.475 . S
C987 C145 2.238 . S
C1017 C49 2.269 1_655 S
C1022 C275 2.490 . S
C1052 C315 2.470 . S
C1047 C81 2.248 1_565 S
C1082 C355 2.462 . S
C1077 C113 2.252 . S
C1107 C17 2.264 . S
C1112 C395 2.481 . S
