# Generated by pormake.
# Topology pyr, (3,6)-cn, num edge types: 1
# Building blocks:
#     Node 0, Type 0, BuildingBlock: BELTOD_clean_linker_0, # of connection points: 3
#     Node 1, Type 0, BuildingBlock: BELTOD_clean_linker_0, # of connection points: 3
#     Node 2, Type 0, BuildingBlock: BELTOD_clean_linker_0, # of connection points: 3
#     Node 3, Type 0, BuildingBlock: BELTOD_clean_linker_0, # of connection points: 3
#     Node 4, Type 0, BuildingBlock: BELTOD_clean_linker_0, # of connection points: 3
#     Node 5, Type 0, BuildingBlock: BELTOD_clean_linker_0, # of connection points: 3
#     Node 6, Type 0, BuildingBlock: BELTOD_clean_linker_0, # of connection points: 3
#     Node 7, Type 0, BuildingBlock: BELTOD_clean_linker_0, # of connection points: 3
#     Node 8, Type 1, BuildingBlock: GEDQOX_clean_sbu_0, # of connection points: 6
#     Node 9, Type 1, BuildingBlock: GEDQOX_clean_sbu_0, # of connection points: 6
#     Node 10, Type 1, BuildingBlock: GEDQOX_clean_sbu_0, # of connection points: 6
#     Node 11, Type 1, BuildingBlock: GEDQOX_clean_sbu_0, # of connection points: 6
#     Edge 12, Type (0, 1), BuildingBlock: XUDNAN_clean_linker_2, # of connection points: 2
#     Edge 13, Type (0, 1), BuildingBlock: XUDNAN_clean_linker_2, # of connection points: 2
#     Edge 14, Type (0, 1), BuildingBlock: XUDNAN_clean_linker_2, # of connection points: 2
#     Edge 15, Type (0, 1), BuildingBlock: XUDNAN_clean_linker_2, # of connection points: 2
#     Edge 16, Type (0, 1), BuildingBlock: XUDNAN_clean_linker_2, # of connection points: 2
#     Edge 17, Type (0, 1), BuildingBlock: XUDNAN_clean_linker_2, # of connection points: 2
#     Edge 18, Type (0, 1), BuildingBlock: XUDNAN_clean_linker_2, # of connection points: 2
#     Edge 19, Type (0, 1), BuildingBlock: XUDNAN_clean_linker_2, # of connection points: 2
#     Edge 20, Type (0, 1), BuildingBlock: XUDNAN_clean_linker_2, # of connection points: 2
#     Edge 21, Type (0, 1), BuildingBlock: XUDNAN_clean_linker_2, # of connection points: 2
#     Edge 22, Type (0, 1), BuildingBlock: XUDNAN_clean_linker_2, # of connection points: 2
#     Edge 23, Type (0, 1), BuildingBlock: XUDNAN_clean_linker_2, # of connection points: 2
#     Edge 24, Type (0, 1), BuildingBlock: XUDNAN_clean_linker_2, # of connection points: 2
#     Edge 25, Type (0, 1), BuildingBlock: XUDNAN_clean_linker_2, # of connection points: 2
#     Edge 26, Type (0, 1), BuildingBlock: XUDNAN_clean_linker_2, # of connection points: 2
#     Edge 27, Type (0, 1), BuildingBlock: XUDNAN_clean_linker_2, # of connection points: 2
#     Edge 28, Type (0, 1), BuildingBlock: XUDNAN_clean_linker_2, # of connection points: 2
#     Edge 29, Type (0, 1), BuildingBlock: XUDNAN_clean_linker_2, # of connection points: 2
#     Edge 30, Type (0, 1), BuildingBlock: XUDNAN_clean_linker_2, # of connection points: 2
#     Edge 31, Type (0, 1), BuildingBlock: XUDNAN_clean_linker_2, # of connection points: 2
#     Edge 32, Type (0, 1), BuildingBlock: XUDNAN_clean_linker_2, # of connection points: 2
#     Edge 33, Type (0, 1), BuildingBlock: XUDNAN_clean_linker_2, # of connection points: 2
#     Edge 34, Type (0, 1), BuildingBlock: XUDNAN_clean_linker_2, # of connection points: 2
#     Edge 35, Type (0, 1), BuildingBlock: XUDNAN_clean_linker_2, # of connection points: 2
# Relax obj value: 0.112
# Max RMSD: 0.158
# Mean RMSD: 0.060
data_MOF--net-pyr--node1-GEDQOX_clean_sbu_0--node2-BELTOD_clean_linker_0--edge1-XUDNAN_clean_linker_2
_symmetry_space_group_name_H-M    P1
_symmetry_Int_Tables_number       1
_symmetry_cell_setting            triclinic
loop_
_symmetry_equiv_pos_as_xyz
'x, y, z'
_cell_length_a     46.227618
_cell_length_b     46.315075
_cell_length_c     40.345027
_cell_angle_alpha  89.647385
_cell_angle_beta   93.838343
_cell_angle_gamma 89.661441
loop_
_atom_site_label
_atom_site_type_symbol
_atom_site_fract_x
_atom_site_fract_y
_atom_site_fract_z
_atom_type_partial_charge
P0 P 0.19875 0.18674 0.17551 0.0
H1 H 0.25377 0.15449 0.19914 0.0
H2 H 0.29418 0.1307 0.17381 0.0
H3 H 0.25304 0.14963 0.07702 0.0
H4 H 0.21256 0.1724 0.10275 0.0
H5 H 0.15383 0.22685 0.19932 0.0
H6 H 0.12775 0.26967 0.17936 0.0
H7 H 0.16861 0.26471 0.08678 0.0
H8 H 0.19563 0.22122 0.10778 0.0
H9 H 0.21385 0.14741 0.23519 0.0
H10 H 0.13429 0.17688 0.18463 0.0
O11 O 0.21975 0.20558 0.20264 0.0
H12 H 0.18635 0.12487 0.27869 0.0
H13 H 0.10691 0.15525 0.22829 0.0
C14 C 0.22857 0.16584 0.15374 0.0
C15 C 0.25289 0.15329 0.17232 0.0
C16 C 0.27688 0.13953 0.15737 0.0
C17 C 0.2787 0.13713 0.12235 0.0
C18 C 0.25405 0.14971 0.10381 0.0
C19 C 0.23 0.16339 0.11886 0.0
C20 C 0.17628 0.21827 0.15515 0.0
C21 C 0.15689 0.23393 0.1742 0.0
C22 C 0.14159 0.25934 0.16236 0.0
C23 C 0.14449 0.2718 0.13034 0.0
C24 C 0.16473 0.25672 0.11134 0.0
C25 C 0.18023 0.23095 0.12341 0.0
C26 C 0.17693 0.16445 0.20529 0.0
C27 C 0.19044 0.14881 0.2327 0.0
C28 C 0.1744 0.13573 0.2582 0.0
C29 C 0.14373 0.13792 0.25839 0.0
C30 C 0.13027 0.15291 0.23039 0.0
C31 C 0.14624 0.16549 0.20469 0.0
P32 P 0.387 0.79615 0.70525 0.0
H33 H 0.44145 0.81308 0.74067 0.0
H34 H 0.45141 0.84203 0.79078 0.0
H35 H 0.3609 0.8385 0.81058 0.0
H36 H 0.35109 0.8094 0.76105 0.0
H37 H 0.36275 0.75608 0.65612 0.0
H38 H 0.37373 0.70641 0.64279 0.0
H39 H 0.43935 0.70325 0.72412 0.0
H40 H 0.4276 0.75349 0.73812 0.0
H41 H 0.3587 0.84351 0.66684 0.0
H42 H 0.33296 0.76646 0.71737 0.0
O43 O 0.40763 0.814 0.67971 0.0
H44 H 0.30833 0.85255 0.64715 0.0
H45 H 0.28236 0.77553 0.69811 0.0
C46 C 0.39546 0.80952 0.74667 0.0
C47 C 0.42391 0.81781 0.75634 0.0
C48 C 0.42959 0.83432 0.78498 0.0
C49 C 0.40681 0.8429 0.8042 0.0
C50 C 0.37877 0.83255 0.7959 0.0
C51 C 0.37318 0.81582 0.76752 0.0
C52 C 0.39356 0.75824 0.69895 0.0
C53 C 0.37883 0.74457 0.67194 0.0
C54 C 0.38517 0.71607 0.66422 0.0
C55 C 0.40705 0.70075 0.68274 0.0
C56 C 0.42216 0.7145 0.70964 0.0
C57 C 0.4154 0.7431 0.71774 0.0
C58 C 0.34958 0.80399 0.69291 0.0
C59 C 0.34217 0.82861 0.67383 0.0
C60 C 0.31332 0.83386 0.66281 0.0
C61 C 0.29138 0.81462 0.67089 0.0
C62 C 0.29883 0.79047 0.69102 0.0
C63 C 0.32768 0.78531 0.70209 0.0
P64 P 0.75949 0.35655 0.78142 0.0
H65 H 0.82065 0.35271 0.80385 0.0
H66 H 0.85126 0.38103 0.84284 0.0
H67 H 0.77774 0.43553 0.86104 0.0
H68 H 0.74765 0.40771 0.82084 0.0
H69 H 0.74246 0.29713 0.76701 0.0
H70 H 0.71904 0.26014 0.79943 0.0
H71 H 0.71543 0.31971 0.88102 0.0
H72 H 0.73855 0.35653 0.84859 0.0
H73 H 0.76213 0.41258 0.74848 0.0
H74 H 0.69802 0.34681 0.76113 0.0
O75 O 0.78016 0.34051 0.75452 0.0
H76 H 0.72682 0.44042 0.7133 0.0
H77 H 0.66262 0.3746 0.72634 0.0
C78 C 0.78212 0.37857 0.8089 0.0
C79 C 0.81125 0.37099 0.81593 0.0
C80 C 0.82861 0.38697 0.83866 0.0
C81 C 0.81698 0.41058 0.85523 0.0
C82 C 0.78756 0.41781 0.84837 0.0
C83 C 0.77031 0.40196 0.82537 0.0
C84 C 0.74286 0.32934 0.80564 0.0
C85 C 0.73682 0.30213 0.79196 0.0
C86 C 0.7233 0.28111 0.8104 0.0
C87 C 0.7157 0.28703 0.84283 0.0
C88 C 0.72155 0.31442 0.85631 0.0
C89 C 0.73476 0.3355 0.83773 0.0
C90 C 0.73258 0.37792 0.75797 0.0
C91 C 0.74033 0.40435 0.74411 0.0
C92 C 0.72012 0.42024 0.72405 0.0
C93 C 0.69189 0.40974 0.71712 0.0
C94 C 0.68425 0.38316 0.73101 0.0
C95 C 0.70445 0.36736 0.75117 0.0
P96 P 0.77667 0.83686 0.26686 0.0
H97 H 0.8375 0.85057 0.25584 0.0
H98 H 0.87161 0.88376 0.28335 0.0
H99 H 0.80252 0.91965 0.33788 0.0
H100 H 0.76889 0.88482 0.31167 0.0
H101 H 0.76653 0.8045 0.20475 0.0
H102 H 0.78784 0.7596 0.18526 0.0
H103 H 0.8485 0.75853 0.27151 0.0
H104 H 0.82706 0.80298 0.29088 0.0
H105 H 0.71839 0.81378 0.27335 0.0
H106 H 0.79786 0.82275 0.33457 0.0
O107 O 0.75204 0.85123 0.23935 0.0
H108 H 0.69755 0.78583 0.31747 0.0
H109 H 0.77802 0.79377 0.37785 0.0
C110 C 0.80088 0.86462 0.28254 0.0
C111 C 0.82968 0.86545 0.27382 0.0
C112 C 0.84915 0.88482 0.28934 0.0
C113 C 0.84 0.90427 0.31328 0.0
C114 C 0.81057 0.90452 0.3203 0.0
C115 C 0.79123 0.88481 0.30509 0.0
C116 C 0.79549 0.80728 0.24901 0.0
C117 C 0.78482 0.79492 0.21905 0.0
C118 C 0.79698 0.76927 0.20796 0.0
C119 C 0.81968 0.75548 0.22702 0.0
C120 C 0.83078 0.76845 0.25653 0.0
C121 C 0.8187 0.79401 0.26748 0.0
C122 C 0.75941 0.82081 0.30098 0.0
C123 C 0.73116 0.81012 0.2965 0.0
C124 C 0.71946 0.7938 0.32158 0.0
C125 C 0.7361 0.78743 0.3513 0.0
C126 C 0.76429 0.79867 0.35571 0.0
C127 C 0.77576 0.81521 0.33084 0.0
P128 P 0.84554 0.85875 0.86848 0.0
H129 H 0.81103 0.84751 0.92869 0.0
H130 H 0.76723 0.86708 0.9508 0.0
H131 H 0.75113 0.91898 0.8626 0.0
H132 H 0.79534 0.89861 0.84023 0.0
H133 H 0.90331 0.8313 0.86091 0.0
H134 H 0.92815 0.78705 0.87849 0.0
H135 H 0.85043 0.75595 0.9195 0.0
H136 H 0.82553 0.80165 0.90207 0.0
H137 H 0.85203 0.9193 0.8439 0.0
H138 H 0.87004 0.83618 0.80338 0.0
O139 O 0.8657 0.87767 0.89635 0.0
H140 H 0.87363 0.94271 0.79781 0.0
H141 H 0.89116 0.85974 0.75542 0.0
C142 C 0.8075 0.87003 0.88158 0.0
C143 C 0.79799 0.86244 0.91322 0.0
C144 C 0.77243 0.87452 0.92646 0.0
C145 C 0.75416 0.89566 0.90946 0.0
C146 C 0.76338 0.90295 0.87736 0.0
C147 C 0.78924 0.89087 0.86413 0.0
C148 C 0.86151 0.82087 0.87838 0.0
C149 C 0.89091 0.81497 0.87288 0.0
C150 C 0.9055 0.78878 0.88335 0.0
C151 C 0.89202 0.76593 0.90044 0.0
C152 C 0.86248 0.77194 0.90656 0.0
C153 C 0.84778 0.79856 0.89603 0.0
C154 C 0.85812 0.8754 0.82819 0.0
C155 C 0.85989 0.90573 0.82463 0.0
C156 C 0.87259 0.91942 0.79728 0.0
C157 C 0.88443 0.90395 0.77075 0.0
C158 C 0.88273 0.87333 0.7743 0.0
C159 C 0.87006 0.85952 0.80213 0.0
P160 P 0.68697 0.28094 0.25304 0.0
H161 H 0.71073 0.31587 0.30731 0.0
H162 H 0.69161 0.355 0.33908 0.0
H163 H 0.60876 0.34748 0.28358 0.0
H164 H 0.62808 0.30706 0.25221 0.0
H165 H 0.74933 0.26888 0.2505 0.0
H166 H 0.78517 0.24803 0.29129 0.0
H167 H 0.71694 0.22891 0.3561 0.0
H168 H 0.68144 0.25044 0.31565 0.0
H169 H 0.68201 0.25908 0.18532 0.0
H170 H 0.63997 0.24484 0.27619 0.0
O171 O 0.7046 0.29846 0.22435 0.0
H172 H 0.65585 0.21859 0.15971 0.0
H173 H 0.61372 0.20386 0.25064 0.0
C174 C 0.67065 0.30803 0.27789 0.0
C175 C 0.68826 0.32214 0.30227 0.0
C176 C 0.67738 0.34491 0.32018 0.0
C177 C 0.64871 0.35468 0.31369 0.0
C178 C 0.63088 0.34035 0.28937 0.0
C179 C 0.64187 0.31727 0.27142 0.0
C180 C 0.71275 0.26131 0.28014 0.0
C181 C 0.74204 0.25986 0.27328 0.0
C182 C 0.76251 0.24782 0.29658 0.0
C183 C 0.75393 0.23711 0.3271 0.0
C184 C 0.72431 0.23744 0.3331 0.0
C185 C 0.70393 0.24944 0.30982 0.0
C186 C 0.66282 0.25516 0.23264 0.0
C187 C 0.66661 0.24768 0.19958 0.0
C188 C 0.6516 0.22445 0.18489 0.0
C189 C 0.63278 0.2079 0.20315 0.0
C190 C 0.62829 0.21603 0.23601 0.0
C191 C 0.64316 0.23952 0.2506 0.0
P192 P 0.35253 0.5919 0.14979 0.0
H193 H 0.32372 0.57557 0.08696 0.0
H194 H 0.27271 0.57061 0.06806 0.0
H195 H 0.24813 0.58711 0.16767 0.0
H196 H 0.29944 0.59194 0.1865 0.0
H197 H 0.40345 0.61799 0.12268 0.0
H198 H 0.414 0.66727 0.10522 0.0
H199 H 0.32802 0.6941 0.1286 0.0
H200 H 0.31751 0.64476 0.14533 0.0
H201 H 0.35511 0.5436 0.19672 0.0
H202 H 0.36921 0.63557 0.20016 0.0
O203 O 0.37357 0.56831 0.1314 0.0
H204 H 0.37074 0.53979 0.2559 0.0
H205 H 0.38544 0.63188 0.2584 0.0
C206 C 0.31533 0.58362 0.13817 0.0
C207 C 0.30739 0.57753 0.10487 0.0
C208 C 0.27824 0.57498 0.09405 0.0
C209 C 0.25644 0.57865 0.11636 0.0
C210 C 0.26449 0.58392 0.15001 0.0
C211 C 0.29377 0.58664 0.16079 0.0
C212 C 0.35952 0.62762 0.13458 0.0
C213 C 0.38676 0.63441 0.12355 0.0
C214 C 0.39282 0.66265 0.11388 0.0
C215 C 0.3718 0.68463 0.11542 0.0
C216 C 0.34449 0.67762 0.12649 0.0
C217 C 0.33846 0.64939 0.13611 0.0
C218 C 0.36113 0.58978 0.19394 0.0
C219 C 0.36138 0.56296 0.21024 0.0
C220 C 0.37047 0.56081 0.24397 0.0
C221 C 0.37944 0.58552 0.26193 0.0
C222 C 0.3783 0.61245 0.24558 0.0
C223 C 0.36917 0.61456 0.21198 0.0
P224 P 0.25226 0.21216 0.74644 0.0
H225 H 0.23112 0.15276 0.74364 0.0
H226 H 0.19763 0.12758 0.7041 0.0
H227 H 0.18842 0.20526 0.64435 0.0
H228 H 0.22177 0.23007 0.68366 0.0
H229 H 0.26667 0.27168 0.76648 0.0
H230 H 0.28895 0.31134 0.73821 0.0
H231 H 0.3024 0.25566 0.65489 0.0
H232 H 0.2812 0.21553 0.68419 0.0
H233 H 0.26162 0.22605 0.81709 0.0
H234 H 0.19273 0.23417 0.7399 0.0
O235 O 0.27616 0.1895 0.76564 0.0
H236 H 0.23243 0.25361 0.85475 0.0
H237 H 0.16378 0.2611 0.77706 0.0
C238 C 0.22973 0.19293 0.71597 0.0
C239 C 0.2222 0.16417 0.72174 0.0
C240 C 0.20281 0.14994 0.69938 0.0
C241 C 0.19056 0.16441 0.67101 0.0
C242 C 0.19795 0.19336 0.6656 0.0
C243 C 0.2172 0.20752 0.68797 0.0
C244 C 0.27143 0.24077 0.72701 0.0
C245 C 0.27448 0.26782 0.74223 0.0
C246 C 0.28711 0.29067 0.72587 0.0
C247 C 0.29694 0.28695 0.69393 0.0
C248 C 0.29515 0.25936 0.67948 0.0
C249 C 0.28281 0.23641 0.69609 0.0
C250 C 0.22916 0.22752 0.7759 0.0
C251 C 0.23999 0.23305 0.80854 0.0
C252 C 0.22344 0.24893 0.8299 0.0
C253 C 0.19577 0.25924 0.81887 0.0
C254 C 0.18477 0.25292 0.78647 0.0
C255 C 0.20141 0.23746 0.76513 0.0
Nd256 Nd 0.02964 0.99417 0.50813 0.0
Nd257 Nd 0.997 0.04621 0.51801 0.0
C258 C 0.04966 0.94105 0.50069 0.0
C259 C 0.0715 0.92286 0.51949 0.0
C260 C 0.06336 0.89677 0.53401 0.0
C261 C 0.08385 0.87996 0.55273 0.0
C262 C 0.11286 0.88896 0.55716 0.0
C263 C 0.12097 0.91488 0.54215 0.0
C264 C 0.10056 0.93168 0.52367 0.0
C265 C 0.0615 0.03298 0.54577 0.0
C266 C 0.98573 0.99547 0.57314 0.0
C267 C 0.97557 0.0988 0.52515 0.0
C268 C 0.95648 0.11796 0.50438 0.0
C269 C 0.95149 0.14631 0.51445 0.0
C270 C 0.93057 0.16345 0.497 0.0
C271 C 0.91414 0.15238 0.46932 0.0
C272 C 0.92015 0.12426 0.45857 0.0
C273 C 0.94119 0.10723 0.47591 0.0
C274 C 0.96796 1.00784 0.47556 0.0
C275 C 0.04159 0.04724 0.45457 0.0
O276 O 0.02573 0.94657 0.51497 0.0
O277 O 0.05936 0.9636 0.48558 0.0
O278 O 0.07224 0.01577 0.52473 0.0
O279 O 0.03507 0.02788 0.54891 0.0
O280 O 0.99897 0.97887 0.55157 0.0
O281 O 0.98601 0.02377 0.56777 0.0
O282 O 1.00145 0.09399 0.51514 0.0
O283 O 0.9633 0.07537 0.53529 0.0
O284 O 0.95559 0.02243 0.4979 0.0
O285 O 0.99419 0.01433 0.47553 0.0
O286 O 0.02678 0.06243 0.47586 0.0
O287 O 0.04328 0.01869 0.45922 0.0
H288 H 0.0411 0.88953 0.53115 0.0
H289 H 0.07687 0.86019 0.56413 0.0
H290 H 0.14324 0.92215 0.54439 0.0
H291 H 0.10766 0.95164 0.51279 0.0
H292 H 0.96317 0.1549 0.53636 0.0
H293 H 0.92688 0.18519 0.50557 0.0
H294 H 0.90775 0.11489 0.43764 0.0
H295 H 0.94477 0.08528 0.46787 0.0
Nd296 Nd 0.51369 0.99795 0.04006 0.0
Nd297 Nd 0.51919 0.03319 0.99427 0.0
C298 C 0.5089 0.95076 0.07722 0.0
C299 C 0.48856 0.92673 0.0797 0.0
C300 C 0.46958 0.9191 0.0526 0.0
C301 C 0.45182 0.89492 0.05456 0.0
C302 C 0.45264 0.87804 0.08373 0.0
C303 C 0.47113 0.88633 0.11112 0.0
C304 C 0.48897 0.91043 0.10906 0.0
C305 C 0.46642 0.03833 0.04501 0.0
C306 C 0.48063 0.98279 0.97022 0.0
C307 C 0.52472 0.07964 0.95649 0.0
C308 C 0.54795 0.10014 0.94953 0.0
C309 C 0.55765 0.12071 0.97319 0.0
C310 C 0.5793 0.14026 0.96615 0.0
C311 C 0.59175 0.13968 0.93532 0.0
C312 C 0.58213 0.119 0.91175 0.0
C313 C 0.56037 0.09953 0.91874 0.0
C314 C 0.56647 0.993 0.98898 0.0
C315 C 0.55025 0.04982 0.06558 0.0
O316 O 0.52295 0.9517 0.05035 0.0
O317 O 0.49997 0.97614 0.0858 0.0
O318 O 0.48466 0.02995 0.069 0.0
O319 O 0.47489 0.02692 0.01814 0.0
O320 O 0.49654 0.97123 0.99485 0.0
O321 O 0.48099 1.01078 0.96707 0.0
O322 O 0.51515 0.08032 0.98613 0.0
O323 O 0.52724 0.05337 0.94557 0.0
O324 O 0.54821 1.00151 0.96511 0.0
O325 O 0.55802 1.00425 0.01602 0.0
O326 O 0.53689 0.06057 0.03862 0.0
O327 O 0.54868 0.02208 0.07073 0.0
H328 H 0.46889 0.93146 0.0297 0.0
H329 H 0.43809 0.889 0.0329 0.0
H330 H 0.47193 0.8741 0.13414 0.0
H331 H 0.50341 0.91611 0.13026 0.0
H332 H 0.5484 0.12195 0.99711 0.0
H333 H 0.58585 0.15619 0.98466 0.0
H334 H 0.59151 0.11774 0.88791 0.0
H335 H 0.55324 0.08397 0.90003 0.0
Nd336 Nd 0.50113 0.49663 0.50259 0.0
Nd337 Nd 0.54613 0.54318 0.51365 0.0
C338 C 0.45385 0.46545 0.49138 0.0
C339 C 0.432 0.45267 0.51164 0.0
C340 C 0.41891 0.42668 0.50162 0.0
C341 C 0.4001 0.41274 0.52207 0.0
C342 C 0.39405 0.42468 0.55282 0.0
C343 C 0.40663 0.45117 0.56239 0.0
C344 C 0.42563 0.46498 0.54203 0.0
C345 C 0.54448 0.48365 0.5507 0.0
C346 C 0.4915 0.54686 0.55775 0.0
C347 C 0.5921 0.57575 0.52773 0.0
C348 C 0.6115 0.59654 0.51294 0.0
C349 C 0.6159 0.6232 0.5286 0.0
C350 C 0.63334 0.64403 0.51509 0.0
C351 C 0.64707 0.63856 0.48569 0.0
C352 C 0.64287 0.61161 0.47013 0.0
C353 C 0.62515 0.59076 0.48361 0.0
C354 C 0.50254 0.55684 0.46632 0.0
C355 C 0.55633 0.49175 0.45954 0.0
O356 O 0.45401 0.49365 0.48906 0.0
O357 O 0.47982 0.45422 0.49577 0.0
O358 O 0.53251 0.46446 0.5311 0.0
O359 O 0.53211 0.50762 0.54624 0.0
O360 O 0.47851 0.52952 0.53561 0.0
O361 O 0.51976 0.55056 0.55867 0.0
O362 O 0.59394 0.54849 0.51966 0.0
O363 O 0.56545 0.58455 0.53023 0.0
O364 O 0.51468 0.57553 0.48641 0.0
O365 O 0.51492 0.53269 0.46973 0.0
O366 O 0.56887 0.51011 0.48097 0.0
O367 O 0.52827 0.48674 0.45894 0.0
H368 H 0.42372 0.41684 0.47831 0.0
H369 H 0.39047 0.39249 0.51397 0.0
H370 H 0.40258 0.46068 0.58611 0.0
H371 H 0.43585 0.48488 0.55037 0.0
H372 H 0.60547 0.6281 0.55119 0.0
H373 H 0.63551 0.66469 0.52739 0.0
H374 H 0.65333 0.60659 0.44762 0.0
H375 H 0.62202 0.5703 0.47104 0.0
Nd376 Nd 0.99766 0.51865 0.042 0.0
Nd377 Nd 0.03723 0.51812 0.98842 0.0
C378 C 0.95278 0.52011 0.0793 0.0
C379 C 0.93494 0.5422 0.09398 0.0
C380 C 0.91331 0.53382 0.11464 0.0
C381 C 0.89777 0.55464 0.13105 0.0
C382 C 0.90372 0.58417 0.12709 0.0
C383 C 0.92485 0.59247 0.10543 0.0
C384 C 0.94039 0.5716 0.08902 0.0
C385 C 0.05015 0.54433 0.05815 0.0
C386 C 0.99334 0.57594 0.98785 0.0
C387 C 0.081 0.51086 0.95065 0.0
C388 C 0.09242 0.48293 0.94032 0.0
C389 C 0.11672 0.48079 0.92151 0.0
C390 C 0.126 0.45364 0.91098 0.0
C391 C 0.11114 0.42839 0.91944 0.0
C392 C 0.08739 0.43086 0.9392 0.0
C393 C 0.07787 0.4578 0.94896 0.0
C394 C 0.98446 0.49495 0.97064 0.0
C395 C 0.04173 0.46116 0.04294 0.0
O396 O 0.95019 0.51804 0.04691 0.0
O397 O 0.97968 0.51856 0.09139 0.0
O398 O 0.03724 0.52774 0.07844 0.0
O399 O 0.03504 0.54763 0.03136 0.0
O400 O 0.98037 0.56094 0.01114 0.0
O401 O 0.01824 0.5653 0.97765 0.0
O402 O 0.08464 0.51615 0.98249 0.0
O403 O 0.05462 0.51652 0.93864 0.0
O404 O 0.99834 0.51174 0.95164 0.0
O405 O 0.99876 0.48983 0.99781 0.0
O406 O 0.05495 0.47667 0.02048 0.0
O407 O 0.0167 0.47155 0.05274 0.0
H408 H 0.90886 0.51116 0.11861 0.0
H409 H 0.88133 0.54761 0.14717 0.0
H410 H 0.93013 0.61501 0.10211 0.0
H411 H 0.95715 0.57836 0.07317 0.0
H412 H 0.1281 0.50002 0.91447 0.0
H413 H 0.14422 0.45253 0.89552 0.0
H414 H 0.07579 0.41197 0.94685 0.0
H415 H 0.05865 0.45898 0.96278 0.0
H416 H 0.14902 0.0866 0.30081 0.0
H417 H 0.0968 0.1642 0.28512 0.0
H418 H 0.06725 0.14966 0.33081 0.0
H419 H 0.08802 0.03944 0.32068 0.0
H420 H 0.1085 0.01864 0.35214 0.0
H421 H 0.12661 0.03491 0.31854 0.0
H422 H 0.16148 0.06102 0.36083 0.0
H423 H 0.14347 0.04483 0.39455 0.0
H424 H 0.14686 0.08351 0.39205 0.0
H425 H 0.04282 0.12765 0.38108 0.0
H426 H 0.0247 0.09955 0.42725 0.0
H427 H 0.08864 0.03282 0.41234 0.0
C428 C 0.13141 0.10068 0.30689 0.0
C429 C 0.12586 0.12705 0.28793 0.0
C430 C 0.10206 0.14398 0.29777 0.0
C431 C 0.08494 0.13585 0.32432 0.0
C432 C 0.09081 0.11005 0.34199 0.0
C433 C 0.11338 0.09246 0.3335 0.0
C434 C 0.11418 0.06538 0.35644 0.0
C435 C 0.10903 0.03796 0.33571 0.0
C436 C 0.14323 0.06357 0.37719 0.0
C437 C 0.08883 0.07057 0.3791 0.0
C438 C 0.07596 0.09678 0.37024 0.0
C439 C 0.05283 0.10705 0.38774 0.0
C440 C 0.04254 0.09065 0.41443 0.0
C441 C 0.05446 0.06328 0.4245 0.0
C442 C 0.07825 0.05327 0.40588 0.0
H443 H 0.44927 0.84497 0.85559 0.0
H444 H 0.37535 0.89207 0.81016 0.0
H445 H 0.38477 0.93201 0.84952 0.0
H446 H 0.43872 0.86823 0.94149 0.0
H447 H 0.47708 0.87059 0.95234 0.0
H448 H 0.46366 0.8449 0.92174 0.0
H449 H 0.4974 0.86652 0.87932 0.0
H450 H 0.51083 0.8923 0.90972 0.0
H451 H 0.49534 0.90461 0.8699 0.0
H452 H 0.40496 0.96878 0.88965 0.0
H453 H 0.43238 0.99844 0.93157 0.0
H454 H 0.49134 0.92665 0.95383 0.0
C455 C 0.43491 0.86357 0.85429 0.0
C456 C 0.41146 0.86539 0.83001 0.0
C457 C 0.39316 0.89007 0.82891 0.0
C458 C 0.39841 0.91292 0.85104 0.0
C459 C 0.42183 0.91062 0.87447 0.0
C460 C 0.43955 0.88642 0.87665 0.0
C461 C 0.46345 0.88969 0.90398 0.0
C462 C 0.46054 0.867 0.93152 0.0
C463 C 0.49353 0.8882 0.88988 0.0
C464 C 0.45683 0.91978 0.91613 0.0
C465 C 0.43278 0.93148 0.89868 0.0
C466 C 0.42353 0.9597 0.90389 0.0
C467 C 0.43927 0.9764 0.92762 0.0
C468 C 0.46373 0.96471 0.94607 0.0
C469 C 0.4724 0.93594 0.94044 0.0
H470 H 0.65454 0.38857 0.66745 0.0
H471 H 0.68144 0.46804 0.71662 0.0
H472 H 0.64682 0.49552 0.67908 0.0
H473 H 0.64571 0.41779 0.58503 0.0
H474 H 0.61426 0.39645 0.57316 0.0
H475 H 0.64096 0.38297 0.60407 0.0
H476 H 0.6011 0.37652 0.64569 0.0
H477 H 0.57426 0.38988 0.61486 0.0
H478 H 0.5785 0.40689 0.65495 0.0
H479 H 0.60937 0.51427 0.63642 0.0
H480 H 0.57154 0.52316 0.59133 0.0
H481 H 0.56889 0.43149 0.56985 0.0
C482 C 0.65294 0.41172 0.67055 0.0
C483 C 0.67069 0.42618 0.69498 0.0
C484 C 0.66828 0.45656 0.69786 0.0
C485 C 0.6486 0.47232 0.67677 0.0
C486 C 0.63153 0.45739 0.6529 0.0
C487 C 0.63348 0.42778 0.64966 0.0
C488 C 0.61281 0.41701 0.62177 0.0
C489 C 0.62944 0.40272 0.59439 0.0
C490 C 0.59033 0.39636 0.63513 0.0
C491 C 0.59891 0.44521 0.60983 0.0
C492 C 0.61 0.46822 0.62817 0.0
C493 C 0.6005 0.49643 0.62191 0.0
C494 C 0.57901 0.50125 0.59629 0.0
C495 C 0.56731 0.47798 0.57724 0.0
C496 C 0.57749 0.44964 0.58405 0.0
H497 H 0.83397 0.73785 0.16517 0.0
H498 H 0.83027 0.70858 0.26721 0.0
H499 H 0.84973 0.66111 0.25213 0.0
H500 H 0.81345 0.66937 0.12637 0.0
H501 H 0.83778 0.67343 0.09358 0.0
H502 H 0.82256 0.70491 0.11205 0.0
H503 H 0.87427 0.7247 0.12591 0.0
H504 H 0.8896 0.69328 0.10753 0.0
H505 H 0.90046 0.7027 0.14981 0.0
H506 H 0.87064 0.61758 0.22677 0.0
H507 H 0.89282 0.58061 0.19269 0.0
H508 H 0.88247 0.6375 0.10668 0.0
C509 C 0.837 0.72132 0.1842 0.0
C510 C 0.83077 0.72689 0.21738 0.0
C511 C 0.8353 0.70486 0.24173 0.0
C512 C 0.84614 0.67779 0.23338 0.0
C513 C 0.85229 0.67306 0.20056 0.0
C514 C 0.84792 0.69414 0.17632 0.0
C515 C 0.85715 0.68361 0.14311 0.0
C516 C 0.83118 0.68278 0.11726 0.0
C517 C 0.88184 0.70218 0.13089 0.0
C518 C 0.86765 0.65346 0.15265 0.0
C519 C 0.86444 0.64779 0.18585 0.0
C520 C 0.87305 0.62163 0.20066 0.0
C521 C 0.88545 0.6007 0.18104 0.0
C522 C 0.88918 0.60607 0.14697 0.0
C523 C 0.88 0.63281 0.13267 0.0
H524 H 0.33618 0.11684 0.14897 0.0
H525 H 0.28397 0.12074 0.05542 0.0
H526 H 0.32363 0.09832 0.02756 0.0
H527 H 0.40636 0.13084 0.1143 0.0
H528 H 0.4266 0.10579 0.14138 0.0
H529 H 0.39421 0.1227 0.15484 0.0
H530 H 0.37271 0.07263 0.16612 0.0
H531 H 0.40506 0.05558 0.15272 0.0
H532 H 0.37012 0.04629 0.13335 0.0
H533 H 0.37187 0.07377 0.00718 0.0
H534 H 0.41961 0.05101 0.99923 0.0
H535 H 0.44281 0.06039 0.10435 0.0
C536 C 0.33261 0.11312 0.1226 0.0
C537 C 0.30523 0.12193 0.1054 0.0
C538 C 0.30348 0.11568 0.07056 0.0
C539 C 0.32648 0.10238 0.05396 0.0
C540 C 0.35263 0.09438 0.07149 0.0
C541 C 0.35576 0.09949 0.10528 0.0
C542 C 0.38624 0.0884 0.1183 0.0
C543 C 0.40443 0.11342 0.1331 0.0
C544 C 0.38336 0.0643 0.14418 0.0
C545 C 0.39971 0.07641 0.08686 0.0
C546 C 0.37981 0.08016 0.06003 0.0
C547 C 0.38724 0.07092 0.02839 0.0
C548 C 0.41491 0.05779 0.02394 0.0
C549 C 0.43625 0.05326 0.05067 0.0
C550 C 0.42781 0.06307 0.08278 0.0
H551 H 0.26089 0.8656 0.66583 0.0
H552 H 0.25375 0.77414 0.64432 0.0
H553 H 0.20479 0.78241 0.61744 0.0
H554 H 0.18397 0.87805 0.68082 0.0
H555 H 0.18349 0.91313 0.66118 0.0
H556 H 0.21651 0.8994 0.68198 0.0
H557 H 0.24318 0.90676 0.62807 0.0
H558 H 0.2103 0.9204 0.60711 0.0
H559 H 0.22898 0.89021 0.59011 0.0
H560 H 0.15879 0.80152 0.58783 0.0
H561 H 0.11947 0.8299 0.55837 0.0
H562 H 0.15654 0.90859 0.60034 0.0
C563 C 0.24892 0.84726 0.65576 0.0
C564 C 0.26109 0.81922 0.65726 0.0
C565 C 0.24467 0.79575 0.6439 0.0
C566 C 0.21689 0.80025 0.62849 0.0
C567 C 0.20576 0.82828 0.6269 0.0
C568 C 0.22119 0.85135 0.6404 0.0
C569 C 0.20512 0.87955 0.63376 0.0
C570 C 0.19678 0.89334 0.66638 0.0
C571 C 0.22296 0.90044 0.61356 0.0
C572 C 0.17868 0.86887 0.61349 0.0
C573 C 0.17924 0.83922 0.61006 0.0
C574 C 0.15788 0.8247 0.59078 0.0
C575 C 0.13556 0.841 0.57425 0.0
C576 C 0.1349 0.87148 0.577 0.0
C577 C 0.15653 0.88536 0.59745 0.0
H578 H 0.86099 0.39171 0.89979 0.0
H579 H 0.81625 0.46934 0.86277 0.0
H580 H 0.85012 0.49893 0.89748 0.0
H581 H 0.88263 0.4189 0.9852 0.0
H582 H 0.91746 0.40114 0.98572 0.0
H583 H 0.88649 0.38556 0.96306 0.0
H584 H 0.91455 0.38508 0.90956 0.0
H585 H 0.94552 0.40054 0.93202 0.0
H586 H 0.92982 0.41822 0.89509 0.0
H587 H 0.8927 0.52035 0.92774 0.0
H588 H 0.94173 0.53218 0.95154 0.0
H589 H 0.95973 0.44141 0.96991 0.0
C590 C 0.85803 0.41491 0.89933 0.0
C591 C 0.83576 0.42813 0.87862 0.0
C592 C 0.83268 0.45858 0.87887 0.0
C593 C 0.85188 0.47563 0.8985 0.0
C594 C 0.87397 0.46195 0.91797 0.0
C595 C 0.8771 0.43227 0.91871 0.0
C596 C 0.90455 0.42319 0.93889 0.0
C597 C 0.89734 0.40619 0.97007 0.0
C598 C 0.9248 0.40575 0.91761 0.0
C599 C 0.91712 0.45247 0.94793 0.0
C600 C 0.89878 0.4745 0.93607 0.0
C601 C 0.90689 0.50337 0.93792 0.0
C602 C 0.93473 0.50989 0.95139 0.0
C603 C 0.95397 0.48768 0.96301 0.0
C604 C 0.94487 0.45871 0.96217 0.0
H605 H 0.7019 0.73929 0.34165 0.0
H606 H 0.74484 0.79149 0.41918 0.0
H607 H 0.72916 0.75743 0.46146 0.0
H608 H 0.63923 0.72299 0.38712 0.0
H609 H 0.63567 0.68697 0.37073 0.0
H610 H 0.65122 0.71498 0.34654 0.0
H611 H 0.69714 0.68333 0.34157 0.0
H612 H 0.68188 0.65537 0.36614 0.0
H613 H 0.71685 0.67017 0.37875 0.0
H614 H 0.7098 0.71733 0.4952 0.0
H615 H 0.68405 0.67639 0.51875 0.0
H616 H 0.65047 0.65253 0.4196 0.0
C617 C 0.7077 0.74389 0.36751 0.0
C618 C 0.72487 0.76805 0.37695 0.0
C619 C 0.73224 0.77287 0.41116 0.0
C620 C 0.72334 0.7537 0.43542 0.0
C621 C 0.70683 0.72996 0.42515 0.0
C622 C 0.69873 0.72519 0.39208 0.0
C623 C 0.68006 0.69853 0.38779 0.0
C624 C 0.64975 0.70634 0.37213 0.0
C625 C 0.69488 0.67549 0.36735 0.0
C626 C 0.67887 0.68913 0.42367 0.0
C627 C 0.69473 0.70737 0.44475 0.0
C628 C 0.69705 0.70305 0.47899 0.0
C629 C 0.68219 0.67981 0.49212 0.0
C630 C 0.66491 0.66137 0.47112 0.0
C631 C 0.66366 0.66598 0.43637 0.0
H632 H 0.15419 0.31889 0.08266 0.0
H633 H 0.09003 0.28896 0.14859 0.0
H634 H 0.06008 0.33147 0.13429 0.0
H635 H 0.14523 0.39668 0.09873 0.0
H636 H 0.14831 0.40837 0.05642 0.0
H637 H 0.16591 0.37546 0.07128 0.0
H638 H 0.13928 0.34732 0.0236 0.0
H639 H 0.12159 0.38016 0.00864 0.0
H640 H 0.10028 0.34914 0.01829 0.0
H641 H 0.03506 0.37902 0.11366 0.0
H642 H 0.018 0.42498 0.08824 0.0
H643 H 0.09495 0.42833 0.03248 0.0
C644 C 0.13382 0.32102 0.09416 0.0
C645 C 0.12579 0.29931 0.11806 0.0
C646 C 0.09836 0.30438 0.13147 0.0
C647 C 0.08056 0.32891 0.12308 0.0
C648 C 0.08926 0.34966 0.1004 0.0
C649 C 0.11524 0.34601 0.08581 0.0
C650 C 0.11885 0.37209 0.06189 0.0
C651 C 0.14622 0.38916 0.07272 0.0
C652 C 0.12009 0.36155 0.02597 0.0
C653 C 0.09115 0.39079 0.06555 0.0
C654 C 0.07451 0.37708 0.08804 0.0
C655 C 0.04815 0.38963 0.09601 0.0
C656 C 0.03845 0.41628 0.08115 0.0
C657 C 0.05441 0.43165 0.05774 0.0
C658 C 0.08155 0.41804 0.05003 0.0
H659 H 0.66982 0.25316 0.82227 0.0
H660 H 0.72892 0.27132 0.90756 0.0
H661 H 0.70425 0.23483 0.94052 0.0
H662 H 0.60672 0.24403 0.86768 0.0
H663 H 0.59205 0.21546 0.84161 0.0
H664 H 0.61495 0.24236 0.82467 0.0
H665 H 0.64927 0.2021 0.80571 0.0
H666 H 0.62649 0.17507 0.82264 0.0
H667 H 0.66451 0.1763 0.83576 0.0
H668 H 0.67303 0.19636 0.96395 0.0
H669 H 0.63676 0.15968 0.97669 0.0
H670 H 0.59736 0.16812 0.87629 0.0
C671 C 0.67775 0.2492 0.84777 0.0
C672 C 0.70131 0.26487 0.8624 0.0
C673 C 0.71077 0.25957 0.89602 0.0
C674 C 0.697 0.23884 0.91483 0.0
C675 C 0.67377 0.22378 0.89966 0.0
C676 C 0.66415 0.22879 0.86694 0.0
C677 C 0.63821 0.21033 0.85679 0.0
C678 C 0.6114 0.22917 0.84713 0.0
C679 C 0.64504 0.18973 0.82856 0.0
C680 C 0.63479 0.19406 0.88888 0.0
C681 C 0.65554 0.20204 0.91329 0.0
C682 C 0.65662 0.19 0.94507 0.0
C683 C 0.63582 0.16931 0.95211 0.0
C684 C 0.61418 0.16101 0.9275 0.0
C685 C 0.61384 0.17362 0.89551 0.0
H686 H 0.84089 0.92027 0.37903 0.0
H687 H 0.88768 0.931 0.28987 0.0
H688 H 0.92528 0.95851 0.32196 0.0
H689 H 0.85589 0.99283 0.41113 0.0
H690 H 0.85899 0.98065 0.45375 0.0
H691 H 0.83555 0.96198 0.42363 0.0
H692 H 0.86252 0.91401 0.43885 0.0
H693 H 0.88622 0.93256 0.46875 0.0
H694 H 0.90126 0.91193 0.43622 0.0
H695 H 0.95946 0.98152 0.36427 0.0
H696 H 0.9858 1.00321 0.41306 0.0
H697 H 0.91487 0.98158 0.47372 0.0
C698 C 0.85865 0.92889 0.36595 0.0
C699 C 0.86132 0.92315 0.33184 0.0
C700 C 0.88535 0.93448 0.31607 0.0
C701 C 0.90675 0.95033 0.33403 0.0
C702 C 0.90363 0.95509 0.36765 0.0
C703 C 0.87998 0.94514 0.38336 0.0
C704 C 0.88184 0.95336 0.41975 0.0
C705 C 0.85656 0.9734 0.42751 0.0
C706 C 0.88303 0.92635 0.4422 0.0
C707 C 0.91043 0.96923 0.4221 0.0
C708 C 0.92275 0.96969 0.39179 0.0
C709 C 0.94987 0.98168 0.38801 0.0
C710 C 0.96469 0.9938 0.41588 0.0
C711 C 0.95216 0.99422 0.44696 0.0
C712 C 0.92468 0.98183 0.45008 0.0
H713 H 0.46142 0.68012 0.67321 0.0
H714 H 0.37077 0.65598 0.66588 0.0
H715 H 0.38331 0.61056 0.63824 0.0
H716 H 0.47669 0.65766 0.59561 0.0
H717 H 0.51275 0.64428 0.60672 0.0
H718 H 0.49753 0.67233 0.63088 0.0
H719 H 0.50631 0.64124 0.68427 0.0
H720 H 0.52188 0.61311 0.66028 0.0
H721 H 0.49203 0.60513 0.68531 0.0
H722 H 0.40475 0.57145 0.60436 0.0
H723 H 0.43375 0.54095 0.56875 0.0
H724 H 0.51044 0.59038 0.59899 0.0
C725 C 0.44439 0.66474 0.66694 0.0
C726 C 0.41516 0.67142 0.67189 0.0
C727 C 0.39331 0.65122 0.66232 0.0
C728 C 0.40024 0.62534 0.64672 0.0
C729 C 0.42916 0.61987 0.64107 0.0
C730 C 0.45094 0.63885 0.65124 0.0
C731 C 0.47987 0.62924 0.63947 0.0
C732 C 0.49242 0.65224 0.61683 0.0
C733 C 0.50129 0.62173 0.6691 0.0
C734 C 0.47079 0.60248 0.62018 0.0
C735 C 0.44152 0.59723 0.62164 0.0
C736 C 0.42781 0.575 0.60358 0.0
C737 C 0.44443 0.55785 0.58332 0.0
C738 C 0.47441 0.56308 0.58128 0.0
C739 C 0.48768 0.58545 0.6004 0.0
H740 H 0.92602 0.88654 0.72226 0.0
H741 H 0.87232 0.95968 0.74674 0.0
H742 H 0.89248 0.98796 0.70277 0.0
H743 H 0.98929 0.92848 0.6991 0.0
H744 H 0.99719 0.90654 0.66405 0.0
H745 H 0.97945 0.89087 0.69828 0.0
H746 H 0.93746 0.87396 0.6579 0.0
H747 H 0.95511 0.88955 0.62354 0.0
H748 H 0.91845 0.89993 0.63087 0.0
H749 H 0.91915 0.01097 0.65579 0.0
H750 H 0.94735 0.0251 0.60908 0.0
H751 H 0.98433 0.93881 0.60723 0.0
C752 C 0.91829 0.90848 0.71856 0.0
C753 C 0.89743 0.92026 0.74039 0.0
C754 C 0.88863 0.94935 0.73287 0.0
C755 C 0.89994 0.96598 0.70703 0.0
C756 C 0.92044 0.95407 0.68695 0.0
C757 C 0.92943 0.9258 0.692 0.0
C758 C 0.95147 0.91864 0.66563 0.0
C759 C 0.98111 0.91064 0.68279 0.0
C760 C 0.93995 0.89404 0.64315 0.0
C761 C 0.95344 0.94717 0.64535 0.0
C762 C 0.93524 0.96719 0.65862 0.0
C763 C 0.93326 0.9952 0.64535 0.0
C764 C 0.94978 1.00316 0.61831 0.0
C765 C 0.96879 0.98369 0.60302 0.0
C766 C 0.97029 0.95482 0.61731 0.0
H767 H 0.60753 0.20012 0.14007 0.0
H768 H 0.62911 0.15499 0.23311 0.0
H769 H 0.61093 0.10954 0.20794 0.0
H770 H 0.54135 0.1608 0.11803 0.0
H771 H 0.54716 0.16059 0.07429 0.0
H772 H 0.56125 0.18963 0.09999 0.0
H773 H 0.61271 0.17942 0.08082 0.0
H774 H 0.59877 0.1502 0.05533 0.0
H775 H 0.62815 0.14373 0.0862 0.0
H776 H 0.59248 0.06846 0.1718 0.0
H777 H 0.57144 0.03563 0.12867 0.0
H778 H 0.56129 0.10768 0.05946 0.0
C779 C 0.60835 0.18069 0.15517 0.0
C780 C 0.61969 0.18115 0.18862 0.0
C781 C 0.62015 0.15528 0.20761 0.0
C782 C 0.6101 0.1293 0.19344 0.0
C783 C 0.59948 0.12953 0.16029 0.0
C784 C 0.59824 0.1546 0.14148 0.0
C785 C 0.58558 0.14902 0.10648 0.0
C786 C 0.55714 0.16602 0.09929 0.0
C787 C 0.60762 0.15601 0.08069 0.0
C788 C 0.58011 0.11686 0.10848 0.0
C789 C 0.58842 0.10598 0.13966 0.0
C790 C 0.58576 0.07677 0.14734 0.0
C791 C 0.5739 0.05826 0.12263 0.0
C792 C 0.56468 0.06906 0.09071 0.0
C793 C 0.56807 0.09874 0.08363 0.0
H794 H 0.41573 0.54353 0.29011 0.0
H795 H 0.37085 0.62284 0.31301 0.0
H796 H 0.39556 0.6225 0.3691 0.0
H797 H 0.41398 0.51089 0.37437 0.0
H798 H 0.44941 0.49481 0.37225 0.0
H799 H 0.42633 0.5 0.33485 0.0
H800 H 0.46706 0.5289 0.30886 0.0
H801 H 0.49013 0.52406 0.34622 0.0
H802 H 0.48221 0.55991 0.33035 0.0
H803 H 0.42899 0.6166 0.42007 0.0
H804 H 0.46649 0.60345 0.46425 0.0
H805 H 0.48749 0.5265 0.4098 0.0
C806 C 0.41043 0.5604 0.30719 0.0
C807 C 0.39142 0.5833 0.29701 0.0
C808 C 0.38564 0.60529 0.32 0.0
C809 C 0.39942 0.60519 0.35202 0.0
C810 C 0.41861 0.58274 0.36089 0.0
C811 C 0.4238 0.5605 0.33936 0.0
C812 C 0.44635 0.53959 0.35462 0.0
C813 C 0.43322 0.50954 0.3593 0.0
C814 C 0.47301 0.53804 0.33377 0.0
C815 C 0.45357 0.554 0.38771 0.0
C816 C 0.43729 0.57885 0.39083 0.0
C817 C 0.4415 0.59692 0.41819 0.0
C818 C 0.46291 0.58938 0.44304 0.0
C819 C 0.47963 0.56393 0.44041 0.0
C820 C 0.47467 0.54588 0.41258 0.0
H821 H 0.21553 0.30642 0.8538 0.0
H822 H 0.13818 0.25619 0.82939 0.0
H823 H 0.10864 0.29285 0.85599 0.0
H824 H 0.19268 0.3344 0.93513 0.0
H825 H 0.20889 0.36908 0.92855 0.0
H826 H 0.2244 0.33703 0.91164 0.0
H827 H 0.2201 0.36061 0.85309 0.0
H828 H 0.20411 0.39248 0.86965 0.0
H829 H 0.18521 0.37329 0.83612 0.0
H830 H 0.08702 0.33719 0.87784 0.0
H831 H 0.07443 0.38525 0.89801 0.0
H832 H 0.16592 0.40654 0.91093 0.0
C833 C 0.19253 0.30269 0.85512 0.0
C834 C 0.17907 0.27848 0.83971 0.0
C835 C 0.14881 0.27467 0.84102 0.0
C836 C 0.13191 0.2953 0.85613 0.0
C837 C 0.14567 0.31945 0.87002 0.0
C838 C 0.17532 0.3231 0.87014 0.0
C839 C 0.18433 0.35201 0.88479 0.0
C840 C 0.20372 0.34787 0.91694 0.0
C841 C 0.19931 0.37069 0.85939 0.0
C842 C 0.15499 0.36437 0.89186 0.0
C843 C 0.13307 0.34511 0.88331 0.0
C844 C 0.10401 0.35219 0.88548 0.0
C845 C 0.09712 0.37958 0.89712 0.0
C846 C 0.11919 0.3996 0.90674 0.0
C847 C 0.14853 0.39178 0.90392 0.0
H848 H 0.69941 0.92195 0.88195 0.0
H849 H 0.74614 0.90447 0.97685 0.0
H850 H 0.70602 0.92565 1.00553 0.0
H851 H 0.66703 0.99133 0.90616 0.0
H852 H 0.63259 0.98561 0.88359 0.0
H853 H 0.66496 0.969 0.86965 0.0
H854 H 0.64091 0.919 0.87191 0.0
H855 H 0.60849 0.93548 0.88586 0.0
H856 H 0.62646 0.90693 0.90998 0.0
H857 H 0.65834 0.95075 0.02645 0.0
H858 H 0.61114 0.97443 0.035 0.0
H859 H 0.5921 0.97666 0.92847 0.0
C860 C 0.70151 0.92249 0.90881 0.0
C861 C 0.72737 0.9103 0.92625 0.0
C862 C 0.72754 0.91229 0.96167 0.0
C863 C 0.70438 0.92482 0.97867 0.0
C864 C 0.67959 0.93611 0.96096 0.0
C865 C 0.67798 0.935 0.9266 0.0
C866 C 0.64849 0.9486 0.91368 0.0
C867 C 0.65357 0.97521 0.89196 0.0
C868 C 0.62999 0.92617 0.89418 0.0
C869 C 0.63394 0.95751 0.94578 0.0
C870 C 0.65246 0.95013 0.97285 0.0
C871 C 0.644 0.95636 1.00505 0.0
C872 C 0.61666 0.97008 0.00985 0.0
C873 C 0.59659 0.97803 0.98294 0.0
C874 C 0.60608 0.97126 0.95023 0.0
H875 H 0.80246 0.20344 0.32008 0.0
H876 H 0.75514 0.24875 0.3935 0.0
H877 H 0.79158 0.23303 0.43742 0.0
H878 H 0.8239 0.14255 0.3715 0.0
H879 H 0.85924 0.13917 0.3555 0.0
H880 H 0.82951 0.15413 0.32968 0.0
H881 H 0.85946 0.20023 0.32023 0.0
H882 H 0.88928 0.18543 0.34609 0.0
H883 H 0.87428 0.22019 0.35558 0.0
H884 H 0.83265 0.21218 0.47341 0.0
H885 H 0.8751 0.18638 0.4995 0.0
H886 H 0.89692 0.15593 0.40259 0.0
C887 C 0.79988 0.21019 0.34536 0.0
C888 C 0.77584 0.22719 0.35337 0.0
C889 C 0.77309 0.23533 0.38683 0.0
C890 C 0.7938 0.22671 0.41193 0.0
C891 C 0.81719 0.21 0.40319 0.0
C892 C 0.82036 0.20176 0.37077 0.0
C893 C 0.84735 0.18341 0.36821 0.0
C894 C 0.83952 0.15301 0.35547 0.0
C895 C 0.86886 0.19821 0.34623 0.0
C896 C 0.85878 0.18259 0.40428 0.0
C897 C 0.84109 0.19814 0.424 0.0
C898 C 0.84682 0.20011 0.45822 0.0
C899 C 0.87116 0.18556 0.47277 0.0
C900 C 0.88956 0.16926 0.45314 0.0
C901 C 0.88326 0.16803 0.41837 0.0
H902 H 0.21096 0.55096 0.14347 0.0
H903 H 0.23219 0.60603 0.06124 0.0
H904 H 0.18117 0.60502 0.03912 0.0
H905 H 0.16104 0.50628 0.09677 0.0
H906 H 0.13639 0.50254 0.12929 0.0
H907 H 0.17433 0.50867 0.13971 0.0
H908 H 0.16146 0.55364 0.17384 0.0
H909 H 0.12345 0.54764 0.16349 0.0
H910 H 0.13937 0.58196 0.15426 0.0
H911 H 0.12878 0.59668 0.02462 0.0
H912 H 0.07783 0.58091 0.01818 0.0
H913 H 0.08988 0.53148 0.10985 0.0
C914 C 0.20474 0.56306 0.12104 0.0
C915 C 0.22552 0.57848 0.10397 0.0
C916 C 0.21668 0.59377 0.07446 0.0
C917 C 0.18774 0.5935 0.06183 0.0
C918 C 0.16785 0.57787 0.07903 0.0
C919 C 0.17588 0.56292 0.10797 0.0
C920 C 0.15031 0.54697 0.12082 0.0
C921 C 0.15586 0.51417 0.12168 0.0
C922 C 0.14323 0.55823 0.15514 0.0
C923 C 0.12677 0.55515 0.09442 0.0
C924 C 0.13739 0.5731 0.07065 0.0
C925 C 0.12012 0.58282 0.04319 0.0
C926 C 0.09124 0.57376 0.03976 0.0
C927 C 0.07997 0.55517 0.06363 0.0
C928 C 0.0979 0.54597 0.09145 0.0
H929 H 0.34201 0.28764 0.65259 0.0
H930 H 0.27684 0.34287 0.69287 0.0
H931 H 0.29496 0.38428 0.66189 0.0
H932 H 0.39901 0.33977 0.65273 0.0
H933 H 0.41191 0.32781 0.6139 0.0
H934 H 0.39443 0.30269 0.64018 0.0
H935 H 0.35727 0.29034 0.59141 0.0
H936 H 0.37462 0.31546 0.56499 0.0
H937 H 0.33642 0.31898 0.57068 0.0
H938 H 0.32015 0.4198 0.62635 0.0
H939 H 0.35006 0.44637 0.5878 0.0
H940 H 0.39713 0.36741 0.56928 0.0
C941 C 0.33136 0.30836 0.65478 0.0
C942 C 0.30811 0.31194 0.67544 0.0
C943 C 0.29509 0.33961 0.6778 0.0
C944 C 0.30506 0.36327 0.66008 0.0
C945 C 0.32794 0.3589 0.63991 0.0
C946 C 0.34086 0.33213 0.63707 0.0
C947 C 0.36476 0.33309 0.61324 0.0
C948 C 0.39427 0.32539 0.63109 0.0
C949 C 0.35784 0.3133 0.58331 0.0
C950 C 0.36325 0.36459 0.60313 0.0
C951 C 0.34197 0.37917 0.61888 0.0
C952 C 0.33684 0.40861 0.6138 0.0
C953 C 0.35395 0.42352 0.592 0.0
C954 C 0.37572 0.40888 0.57547 0.0
C955 C 0.38032 0.37905 0.58118 0.0
H956 H 0.88507 0.72184 0.95241 0.0
H957 H 0.93871 0.7408 0.87073 0.0
H958 H 0.96822 0.69804 0.8849 0.0
H959 H 0.94363 0.69232 0.00993 0.0
H960 H 0.92249 0.66347 0.02597 0.0
H961 H 0.90484 0.69618 0.01059 0.0
H962 H 0.87157 0.66643 0.97013 0.0
H963 H 0.88912 0.63364 0.98547 0.0
H964 H 0.88746 0.64203 0.9417 0.0
H965 H 0.99453 0.65195 0.90792 0.0
H966 H 1.01272 0.60734 0.9356 0.0
H967 H 0.94353 0.6122 1.00291 0.0
C968 C 0.90295 0.71718 0.93728 0.0
C969 C 0.90906 0.73681 0.91035 0.0
C970 C 0.93307 0.72825 0.89199 0.0
C971 C 0.95026 0.70319 0.89976 0.0
C972 C 0.94405 0.68508 0.92629 0.0
C973 C 0.92075 0.69151 0.94476 0.0
C974 C 0.919 0.66751 0.97176 0.0
C975 C 0.92269 0.68065 1.00664 0.0
C976 C 0.89006 0.65145 0.96699 0.0
C977 C 0.9448 0.64692 0.96559 0.0
C978 C 0.95887 0.65787 0.93912 0.0
C979 C 0.98338 0.64342 0.92856 0.0
C980 C 0.99378 0.61761 0.94481 0.0
C981 C 0.98027 0.6049 0.97208 0.0
C982 C 0.95499 0.62041 0.98235 0.0
H983 H 0.42225 0.714 0.13061 0.0
H984 H 0.33668 0.72382 0.08046 0.0
H985 H 0.34765 0.77462 0.06732 0.0
H986 H 0.42639 0.7841 0.1665 0.0
H987 H 0.46442 0.78847 0.1606 0.0
H988 H 0.44985 0.7529 0.16591 0.0
H989 H 0.46975 0.73687 0.11028 0.0
H990 H 0.48457 0.77233 0.10492 0.0
H991 H 0.46014 0.75731 0.07294 0.0
H992 H 0.36809 0.82459 0.06001 0.0
H993 H 0.39657 0.86953 0.05861 0.0
H994 H 0.46911 0.82599 0.11202 0.0
C995 C 0.40592 0.72668 0.11649 0.0
C996 C 0.3786 0.7149 0.10655 0.0
C997 C 0.35765 0.73246 0.08866 0.0
C998 C 0.36372 0.76129 0.08095 0.0
C999 C 0.39084 0.77221 0.09127 0.0
C1000 C 0.41162 0.7554 0.10856 0.0
C1001 C 0.43904 0.77227 0.11689 0.0
C1002 C 0.44528 0.77457 0.15472 0.0
C1003 C 0.46489 0.7589 0.10026 0.0
C1004 C 0.43047 0.80122 0.10159 0.0
C1005 C 0.4026 0.80081 0.08695 0.0
C1006 C 0.38999 0.82513 0.07129 0.0
C1007 C 0.40638 0.85051 0.07048 0.0
C1008 C 0.43508 0.85135 0.08523 0.0
C1009 C 0.44711 0.82627 0.10096 0.0
H1010 H 0.14564 0.12807 0.68382 0.0
H1011 H 0.19047 0.1665 0.60344 0.0
H1012 H 0.15807 0.1409 0.56266 0.0
H1013 H 0.13695 0.05918 0.64834 0.0
H1014 H 0.10142 0.05297 0.66272 0.0
H1015 H 0.1263 0.07639 0.68563 0.0
H1016 H 0.08806 0.11762 0.68104 0.0
H1017 H 0.06309 0.09431 0.65794 0.0
H1018 H 0.07268 0.12867 0.64068 0.0
H1019 H 0.12505 0.1079 0.53114 0.0
H1020 H 0.09258 0.06907 0.51021 0.0
H1021 H 0.06719 0.05256 0.61004 0.0
C1022 C 0.1485 0.13118 0.65762 0.0
C1023 C 0.17048 0.14939 0.64676 0.0
C1024 C 0.1735 0.15301 0.61229 0.0
C1025 C 0.15523 0.13854 0.58895 0.0
C1026 C 0.13388 0.12072 0.60046 0.0
C1027 C 0.13028 0.11702 0.63392 0.0
C1028 C 0.10654 0.09539 0.63954 0.0
C1029 C 0.11853 0.06945 0.66027 0.0
C1030 C 0.08108 0.10987 0.65576 0.0
C1031 C 0.09804 0.08685 0.60402 0.0
C1032 C 0.11402 0.10196 0.58194 0.0
C1033 C 0.112 0.09632 0.54805 0.0
C1034 C 0.0936 0.07424 0.53643 0.0
C1035 C 0.07727 0.05835 0.55856 0.0
C1036 C 0.07897 0.06506 0.59266 0.0
H1037 H 0.59536 0.36268 0.3395 0.0
H1038 H 0.67826 0.40431 0.32947 0.0
H1039 H 0.6631 0.44456 0.36408 0.0
H1040 H 0.55197 0.42981 0.33673 0.0
H1041 H 0.5279 0.41671 0.36672 0.0
H1042 H 0.54473 0.39171 0.33975 0.0
H1043 H 0.56577 0.36278 0.39112 0.0
H1044 H 0.54917 0.38776 0.41821 0.0
H1045 H 0.58767 0.38107 0.42305 0.0
H1046 H 0.6406 0.47852 0.40329 0.0
H1047 H 0.61088 0.50523 0.44174 0.0
H1048 H 0.54176 0.44298 0.42427 0.0
C1049 C 0.61011 0.38052 0.34404 0.0
C1050 C 0.63815 0.38009 0.33201 0.0
C1051 C 0.65689 0.40377 0.33893 0.0
C1052 C 0.64842 0.42689 0.35839 0.0
C1053 C 0.62095 0.4263 0.37051 0.0
C1054 C 0.60192 0.40393 0.36332 0.0
C1055 C 0.57388 0.40834 0.38014 0.0
C1056 C 0.5481 0.41186 0.35429 0.0
C1057 C 0.56885 0.38352 0.40458 0.0
C1058 C 0.58038 0.43638 0.39829 0.0
C1059 C 0.60766 0.44637 0.39242 0.0
C1060 C 0.61904 0.47112 0.40775 0.0
C1061 C 0.60205 0.48609 0.42964 0.0
C1062 C 0.57393 0.47636 0.43581 0.0
C1063 C 0.56301 0.45124 0.4197 0.0
loop_
_geom_bond_atom_site_label_1
_geom_bond_atom_site_label_2
_geom_bond_distance
_geom_bond_site_symmetry_2
_ccdc_geom_bond_type
P0 O11 1.490 . S
P0 C14 1.812 . S
P0 C20 1.803 . S
P0 C26 1.819 . S
H1 C15 0.941 . S
H2 C16 0.939 . S
H3 C18 0.940 . S
H4 C19 0.940 . S
H5 C21 0.939 . S
H6 C22 0.942 . S
H7 C24 0.940 . S
H8 C25 0.939 . S
H9 C27 0.941 . S
H10 C31 0.939 . S
O11 P0 1.490 . S
H12 C28 0.939 . S
H13 C30 0.940 . S
C14 P0 1.812 . S
C14 C15 1.389 . S
C14 C19 1.391 . S
C15 H1 0.941 . S
C15 C14 1.389 . S
C15 C16 1.397 . S
C16 H2 0.939 . S
C16 C15 1.397 . S
C16 C17 1.378 . S
C17 C16 1.378 . S
C17 C18 1.378 . S
C18 H3 0.940 . S
C18 C17 1.378 . S
C18 C19 1.396 . S
C19 H4 0.940 . S
C19 C14 1.391 . S
C19 C18 1.396 . S
C20 P0 1.803 . S
C20 C21 1.378 . S
C20 C25 1.400 . S
C21 H5 0.939 . S
C21 C20 1.378 . S
C21 C22 1.361 . S
C22 H6 0.942 . S
C22 C21 1.361 . S
C22 C23 1.369 . S
C23 C22 1.369 . S
C23 C24 1.404 . S
C24 H7 0.940 . S
C24 C23 1.404 . S
C24 C25 1.389 . S
C25 H8 0.939 . S
C25 C20 1.400 . S
C25 C24 1.389 . S
C26 P0 1.819 . S
C26 C27 1.391 . S
C26 C31 1.391 . S
C27 H9 0.941 . S
C27 C26 1.391 . S
C27 C28 1.396 . S
C28 H12 0.939 . S
C28 C27 1.396 . S
C28 C29 1.397 . S
C29 C28 1.397 . S
C29 C30 1.385 . S
C30 H13 0.940 . S
C30 C29 1.385 . S
C30 C31 1.388 . S
C31 H10 0.939 . S
C31 C26 1.391 . S
C31 C30 1.388 . S
P32 O43 1.490 . S
P32 C46 1.812 . S
P32 C52 1.803 . S
P32 C58 1.819 . S
H33 C47 0.941 . S
H34 C48 0.939 . S
H35 C50 0.940 . S
H36 C51 0.940 . S
H37 C53 0.939 . S
H38 C54 0.942 . S
H39 C56 0.940 . S
H40 C57 0.939 . S
H41 C59 0.941 . S
H42 C63 0.939 . S
O43 P32 1.490 . S
H44 C60 0.939 . S
H45 C62 0.940 . S
C46 P32 1.812 . S
C46 C47 1.389 . S
C46 C51 1.391 . S
C47 H33 0.941 . S
C47 C46 1.389 . S
C47 C48 1.397 . S
C48 H34 0.939 . S
C48 C47 1.397 . S
C48 C49 1.378 . S
C49 C48 1.378 . S
C49 C50 1.378 . S
C50 H35 0.940 . S
C50 C49 1.378 . S
C50 C51 1.396 . S
C51 H36 0.940 . S
C51 C46 1.391 . S
C51 C50 1.396 . S
C52 P32 1.803 . S
C52 C53 1.378 . S
C52 C57 1.400 . S
C53 H37 0.939 . S
C53 C52 1.378 . S
C53 C54 1.361 . S
C54 H38 0.942 . S
C54 C53 1.361 . S
C54 C55 1.369 . S
C55 C54 1.369 . S
C55 C56 1.404 . S
C56 H39 0.940 . S
C56 C55 1.404 . S
C56 C57 1.389 . S
C57 H40 0.939 . S
C57 C52 1.400 . S
C57 C56 1.389 . S
C58 P32 1.819 . S
C58 C59 1.391 . S
C58 C63 1.391 . S
C59 H41 0.941 . S
C59 C58 1.391 . S
C59 C60 1.396 . S
C60 H44 0.939 . S
C60 C59 1.396 . S
C60 C61 1.397 . S
C61 C60 1.397 . S
C61 C62 1.385 . S
C62 H45 0.940 . S
C62 C61 1.385 . S
C62 C63 1.388 . S
C63 H42 0.939 . S
C63 C58 1.391 . S
C63 C62 1.388 . S
P64 O75 1.490 . S
P64 C78 1.812 . S
P64 C84 1.803 . S
P64 C90 1.819 . S
H65 C79 0.941 . S
H66 C80 0.939 . S
H67 C82 0.940 . S
H68 C83 0.940 . S
H69 C85 0.939 . S
H70 C86 0.942 . S
H71 C88 0.940 . S
H72 C89 0.939 . S
H73 C91 0.941 . S
H74 C95 0.939 . S
O75 P64 1.490 . S
H76 C92 0.939 . S
H77 C94 0.940 . S
C78 P64 1.812 . S
C78 C79 1.389 . S
C78 C83 1.391 . S
C79 H65 0.941 . S
C79 C78 1.389 . S
C79 C80 1.397 . S
C80 H66 0.939 . S
C80 C79 1.397 . S
C80 C81 1.378 . S
C81 C80 1.378 . S
C81 C82 1.378 . S
C82 H67 0.940 . S
C82 C81 1.378 . S
C82 C83 1.396 . S
C83 H68 0.940 . S
C83 C78 1.391 . S
C83 C82 1.396 . S
C84 P64 1.803 . S
C84 C85 1.378 . S
C84 C89 1.400 . S
C85 H69 0.939 . S
C85 C84 1.378 . S
C85 C86 1.361 . S
C86 H70 0.942 . S
C86 C85 1.361 . S
C86 C87 1.369 . S
C87 C86 1.369 . S
C87 C88 1.404 . S
C88 H71 0.940 . S
C88 C87 1.404 . S
C88 C89 1.389 . S
C89 H72 0.939 . S
C89 C84 1.400 . S
C89 C88 1.389 . S
C90 P64 1.819 . S
C90 C91 1.391 . S
C90 C95 1.391 . S
C91 H73 0.941 . S
C91 C90 1.391 . S
C91 C92 1.396 . S
C92 H76 0.939 . S
C92 C91 1.396 . S
C92 C93 1.397 . S
C93 C92 1.397 . S
C93 C94 1.385 . S
C94 H77 0.940 . S
C94 C93 1.385 . S
C94 C95 1.388 . S
C95 H74 0.939 . S
C95 C90 1.391 . S
C95 C94 1.388 . S
P96 O107 1.490 . S
P96 C110 1.812 . S
P96 C116 1.803 . S
P96 C122 1.819 . S
H97 C111 0.941 . S
H98 C112 0.939 . S
H99 C114 0.940 . S
H100 C115 0.940 . S
H101 C117 0.939 . S
H102 C118 0.942 . S
H103 C120 0.940 . S
H104 C121 0.939 . S
H105 C123 0.941 . S
H106 C127 0.939 . S
O107 P96 1.490 . S
H108 C124 0.939 . S
H109 C126 0.940 . S
C110 P96 1.812 . S
C110 C111 1.389 . S
C110 C115 1.391 . S
C111 H97 0.941 . S
C111 C110 1.389 . S
C111 C112 1.397 . S
C112 H98 0.939 . S
C112 C111 1.397 . S
C112 C113 1.378 . S
C113 C112 1.378 . S
C113 C114 1.378 . S
C114 H99 0.940 . S
C114 C113 1.378 . S
C114 C115 1.396 . S
C115 H100 0.940 . S
C115 C110 1.391 . S
C115 C114 1.396 . S
C116 P96 1.803 . S
C116 C117 1.378 . S
C116 C121 1.400 . S
C117 H101 0.939 . S
C117 C116 1.378 . S
C117 C118 1.361 . S
C118 H102 0.942 . S
C118 C117 1.361 . S
C118 C119 1.369 . S
C119 C118 1.369 . S
C119 C120 1.404 . S
C120 H103 0.940 . S
C120 C119 1.404 . S
C120 C121 1.389 . S
C121 H104 0.939 . S
C121 C116 1.400 . S
C121 C120 1.389 . S
C122 P96 1.819 . S
C122 C123 1.391 . S
C122 C127 1.391 . S
C123 H105 0.941 . S
C123 C122 1.391 . S
C123 C124 1.396 . S
C124 H108 0.939 . S
C124 C123 1.396 . S
C124 C125 1.397 . S
C125 C124 1.397 . S
C125 C126 1.385 . S
C126 H109 0.940 . S
C126 C125 1.385 . S
C126 C127 1.388 . S
C127 H106 0.939 . S
C127 C122 1.391 . S
C127 C126 1.388 . S
P128 O139 1.490 . S
P128 C142 1.812 . S
P128 C148 1.803 . S
P128 C154 1.819 . S
H129 C143 0.941 . S
H130 C144 0.939 . S
H131 C146 0.940 . S
H132 C147 0.940 . S
H133 C149 0.939 . S
H134 C150 0.942 . S
H135 C152 0.940 . S
H136 C153 0.939 . S
H137 C155 0.941 . S
H138 C159 0.939 . S
O139 P128 1.490 . S
H140 C156 0.939 . S
H141 C158 0.940 . S
C142 P128 1.812 . S
C142 C143 1.389 . S
C142 C147 1.391 . S
C143 H129 0.941 . S
C143 C142 1.389 . S
C143 C144 1.397 . S
C144 H130 0.939 . S
C144 C143 1.397 . S
C144 C145 1.378 . S
C145 C144 1.378 . S
C145 C146 1.378 . S
C146 H131 0.940 . S
C146 C145 1.378 . S
C146 C147 1.396 . S
C147 H132 0.940 . S
C147 C142 1.391 . S
C147 C146 1.396 . S
C148 P128 1.803 . S
C148 C149 1.378 . S
C148 C153 1.400 . S
C149 H133 0.939 . S
C149 C148 1.378 . S
C149 C150 1.361 . S
C150 H134 0.942 . S
C150 C149 1.361 . S
C150 C151 1.369 . S
C151 C150 1.369 . S
C151 C152 1.404 . S
C152 H135 0.940 . S
C152 C151 1.404 . S
C152 C153 1.389 . S
C153 H136 0.939 . S
C153 C148 1.400 . S
C153 C152 1.389 . S
C154 P128 1.819 . S
C154 C155 1.391 . S
C154 C159 1.391 . S
C155 H137 0.941 . S
C155 C154 1.391 . S
C155 C156 1.396 . S
C156 H140 0.939 . S
C156 C155 1.396 . S
C156 C157 1.397 . S
C157 C156 1.397 . S
C157 C158 1.385 . S
C158 H141 0.940 . S
C158 C157 1.385 . S
C158 C159 1.388 . S
C159 H138 0.939 . S
C159 C154 1.391 . S
C159 C158 1.388 . S
P160 O171 1.490 . S
P160 C174 1.812 . S
P160 C180 1.803 . S
P160 C186 1.819 . S
H161 C175 0.941 . S
H162 C176 0.939 . S
H163 C178 0.940 . S
H164 C179 0.940 . S
H165 C181 0.939 . S
H166 C182 0.942 . S
H167 C184 0.940 . S
H168 C185 0.939 . S
H169 C187 0.941 . S
H170 C191 0.939 . S
O171 P160 1.490 . S
H172 C188 0.939 . S
H173 C190 0.940 . S
C174 P160 1.812 . S
C174 C175 1.389 . S
C174 C179 1.391 . S
C175 H161 0.941 . S
C175 C174 1.389 . S
C175 C176 1.397 . S
C176 H162 0.939 . S
C176 C175 1.397 . S
C176 C177 1.378 . S
C177 C176 1.378 . S
C177 C178 1.378 . S
C178 H163 0.940 . S
C178 C177 1.378 . S
C178 C179 1.396 . S
C179 H164 0.940 . S
C179 C174 1.391 . S
C179 C178 1.396 . S
C180 P160 1.803 . S
C180 C181 1.378 . S
C180 C185 1.400 . S
C181 H165 0.939 . S
C181 C180 1.378 . S
C181 C182 1.361 . S
C182 H166 0.942 . S
C182 C181 1.361 . S
C182 C183 1.369 . S
C183 C182 1.369 . S
C183 C184 1.404 . S
C184 H167 0.940 . S
C184 C183 1.404 . S
C184 C185 1.389 . S
C185 H168 0.939 . S
C185 C180 1.400 . S
C185 C184 1.389 . S
C186 P160 1.819 . S
C186 C187 1.391 . S
C186 C191 1.391 . S
C187 H169 0.941 . S
C187 C186 1.391 . S
C187 C188 1.396 . S
C188 H172 0.939 . S
C188 C187 1.396 . S
C188 C189 1.397 . S
C189 C188 1.397 . S
C189 C190 1.385 . S
C190 H173 0.940 . S
C190 C189 1.385 . S
C190 C191 1.388 . S
C191 H170 0.939 . S
C191 C186 1.391 . S
C191 C190 1.388 . S
P192 O203 1.490 . S
P192 C206 1.812 . S
P192 C212 1.803 . S
P192 C218 1.819 . S
H193 C207 0.941 . S
H194 C208 0.939 . S
H195 C210 0.940 . S
H196 C211 0.940 . S
H197 C213 0.939 . S
H198 C214 0.942 . S
H199 C216 0.940 . S
H200 C217 0.939 . S
H201 C219 0.941 . S
H202 C223 0.939 . S
O203 P192 1.490 . S
H204 C220 0.939 . S
H205 C222 0.940 . S
C206 P192 1.812 . S
C206 C207 1.389 . S
C206 C211 1.391 . S
C207 H193 0.941 . S
C207 C206 1.389 . S
C207 C208 1.397 . S
C208 H194 0.939 . S
C208 C207 1.397 . S
C208 C209 1.378 . S
C209 C208 1.378 . S
C209 C210 1.378 . S
C210 H195 0.940 . S
C210 C209 1.378 . S
C210 C211 1.396 . S
C211 H196 0.940 . S
C211 C206 1.391 . S
C211 C210 1.396 . S
C212 P192 1.803 . S
C212 C213 1.378 . S
C212 C217 1.400 . S
C213 H197 0.939 . S
C213 C212 1.378 . S
C213 C214 1.361 . S
C214 H198 0.942 . S
C214 C213 1.361 . S
C214 C215 1.369 . S
C215 C214 1.369 . S
C215 C216 1.404 . S
C216 H199 0.940 . S
C216 C215 1.404 . S
C216 C217 1.389 . S
C217 H200 0.939 . S
C217 C212 1.400 . S
C217 C216 1.389 . S
C218 P192 1.819 . S
C218 C219 1.391 . S
C218 C223 1.391 . S
C219 H201 0.941 . S
C219 C218 1.391 . S
C219 C220 1.396 . S
C220 H204 0.939 . S
C220 C219 1.396 . S
C220 C221 1.397 . S
C221 C220 1.397 . S
C221 C222 1.385 . S
C222 H205 0.940 . S
C222 C221 1.385 . S
C222 C223 1.388 . S
C223 H202 0.939 . S
C223 C218 1.391 . S
C223 C222 1.388 . S
P224 O235 1.490 . S
P224 C238 1.812 . S
P224 C244 1.803 . S
P224 C250 1.819 . S
H225 C239 0.941 . S
H226 C240 0.939 . S
H227 C242 0.940 . S
H228 C243 0.940 . S
H229 C245 0.939 . S
H230 C246 0.942 . S
H231 C248 0.940 . S
H232 C249 0.939 . S
H233 C251 0.941 . S
H234 C255 0.939 . S
O235 P224 1.490 . S
H236 C252 0.939 . S
H237 C254 0.940 . S
C238 P224 1.812 . S
C238 C239 1.389 . S
C238 C243 1.391 . S
C239 H225 0.941 . S
C239 C238 1.389 . S
C239 C240 1.397 . S
C240 H226 0.939 . S
C240 C239 1.397 . S
C240 C241 1.378 . S
C241 C240 1.378 . S
C241 C242 1.378 . S
C242 H227 0.940 . S
C242 C241 1.378 . S
C242 C243 1.396 . S
C243 H228 0.940 . S
C243 C238 1.391 . S
C243 C242 1.396 . S
C244 P224 1.803 . S
C244 C245 1.378 . S
C244 C249 1.400 . S
C245 H229 0.939 . S
C245 C244 1.378 . S
C245 C246 1.361 . S
C246 H230 0.942 . S
C246 C245 1.361 . S
C246 C247 1.369 . S
C247 C246 1.369 . S
C247 C248 1.404 . S
C248 H231 0.940 . S
C248 C247 1.404 . S
C248 C249 1.389 . S
C249 H232 0.939 . S
C249 C244 1.400 . S
C249 C248 1.389 . S
C250 P224 1.819 . S
C250 C251 1.391 . S
C250 C255 1.391 . S
C251 H233 0.941 . S
C251 C250 1.391 . S
C251 C252 1.396 . S
C252 H236 0.939 . S
C252 C251 1.396 . S
C252 C253 1.397 . S
C253 C252 1.397 . S
C253 C254 1.385 . S
C254 H237 0.940 . S
C254 C253 1.385 . S
C254 C255 1.388 . S
C255 H234 0.939 . S
C255 C250 1.391 . S
C255 C254 1.388 . S
Nd256 C258 2.836 . S
Nd256 O276 2.500 . S
Nd256 O277 2.492 . S
Nd256 O278 2.487 1_565 S
Nd256 O279 2.682 1_565 S
Nd256 O280 2.410 . S
Nd256 O285 2.414 1_455 S
Nd256 O287 2.424 1_565 S
Nd257 C267 2.836 . S
Nd257 O279 2.414 1_655 S
Nd257 O281 2.424 1_545 S
Nd257 O282 2.500 . S
Nd257 O283 2.492 . S
Nd257 O284 2.487 1_545 S
Nd257 O285 2.682 1_545 S
Nd257 O286 2.410 . S
C258 Nd256 2.836 . S
C258 C259 1.498 . S
C258 O276 1.258 . S
C258 O277 1.239 . S
C259 C258 1.498 . S
C259 C260 1.366 . S
C259 C264 1.407 . S
C260 C259 1.366 . S
C260 C261 1.392 . S
C260 H288 0.930 . S
C261 C260 1.392 . S
C261 C262 1.398 . S
C261 H289 0.929 . S
C262 C261 1.398 . S
C262 C263 1.352 . S
C263 C262 1.352 . S
C263 C264 1.384 . S
C263 H290 0.930 . S
C264 C259 1.407 . S
C264 C263 1.384 . S
C264 H291 0.929 . S
C265 O278 1.241 . S
C265 O279 1.273 . S
C266 O280 1.251 1_655 S
C266 O281 1.268 . S
C267 Nd257 2.836 . S
C267 C268 1.498 . S
C267 O282 1.258 . S
C267 O283 1.239 . S
C268 C267 1.498 . S
C268 C269 1.366 . S
C268 C273 1.407 . S
C269 C268 1.366 . S
C269 C270 1.392 . S
C269 H292 0.930 . S
C270 C269 1.392 . S
C270 C271 1.398 . S
C270 H293 0.929 . S
C271 C270 1.398 . S
C271 C272 1.352 . S
C272 C271 1.352 . S
C272 C273 1.384 . S
C272 H294 0.930 . S
C273 C268 1.407 . S
C273 C272 1.384 . S
C273 H295 0.929 . S
C274 O284 1.241 . S
C274 O285 1.273 . S
C275 O286 1.251 1_455 S
C275 O287 1.268 . S
O276 Nd256 2.500 . S
O276 C258 1.258 . S
O277 Nd256 2.492 . S
O277 C258 1.239 . S
O278 Nd256 2.487 1_545 S
O278 C265 1.241 . S
O279 Nd256 2.682 1_545 S
O279 Nd257 2.414 1_455 S
O279 C265 1.273 . S
O280 Nd256 2.410 . S
O280 C266 1.251 1_455 S
O281 Nd257 2.424 1_565 S
O281 C266 1.268 . S
O282 Nd257 2.500 . S
O282 C267 1.258 . S
O283 Nd257 2.492 . S
O283 C267 1.239 . S
O284 Nd257 2.487 1_565 S
O284 C274 1.241 . S
O285 Nd256 2.414 1_655 S
O285 Nd257 2.682 1_565 S
O285 C274 1.273 . S
O286 Nd257 2.410 . S
O286 C275 1.251 1_655 S
O287 Nd256 2.424 1_545 S
O287 C275 1.268 . S
H288 C260 0.930 . S
H289 C261 0.929 . S
H290 C263 0.930 . S
H291 C264 0.929 . S
H292 C269 0.930 . S
H293 C270 0.929 . S
H294 C272 0.930 . S
H295 C273 0.929 . S
Nd296 C298 2.836 . S
Nd296 O316 2.500 . S
Nd296 O317 2.492 . S
Nd296 O318 2.487 1_565 S
Nd296 O319 2.682 1_565 S
Nd296 O320 2.410 1_554 S
Nd296 O325 2.414 1_554 S
Nd296 O327 2.424 1_565 S
Nd297 C307 2.836 . S
Nd297 O319 2.414 1_556 S
Nd297 O321 2.424 1_545 S
Nd297 O322 2.500 . S
Nd297 O323 2.492 . S
Nd297 O324 2.487 . S
Nd297 O325 2.682 1_545 S
Nd297 O326 2.410 1_556 S
C298 Nd296 2.836 . S
C298 C299 1.498 . S
C298 O316 1.258 . S
C298 O317 1.239 . S
C299 C298 1.498 . S
C299 C300 1.366 . S
C299 C304 1.407 . S
C300 C299 1.366 . S
C300 C301 1.392 . S
C300 H328 0.930 . S
C301 C300 1.392 . S
C301 C302 1.398 . S
C301 H329 0.929 . S
C302 C301 1.398 . S
C302 C303 1.352 . S
C303 C302 1.352 . S
C303 C304 1.384 . S
C303 H330 0.930 . S
C304 C299 1.407 . S
C304 C303 1.384 . S
C304 H331 0.929 . S
C305 O318 1.241 . S
C305 O319 1.273 . S
C306 O320 1.251 . S
C306 O321 1.268 . S
C307 Nd297 2.836 . S
C307 C308 1.498 . S
C307 O322 1.258 . S
C307 O323 1.239 . S
C308 C307 1.498 . S
C308 C309 1.366 . S
C308 C313 1.407 . S
C309 C308 1.366 . S
C309 C310 1.392 . S
C309 H332 0.930 . S
C310 C309 1.392 . S
C310 C311 1.398 . S
C310 H333 0.929 . S
C311 C310 1.398 . S
C311 C312 1.352 . S
C312 C311 1.352 . S
C312 C313 1.384 . S
C312 H334 0.930 . S
C313 C308 1.407 . S
C313 C312 1.384 . S
C313 H335 0.929 . S
C314 O324 1.241 1_565 S
C314 O325 1.273 . S
C315 O326 1.251 . S
C315 O327 1.268 . S
O316 Nd296 2.500 . S
O316 C298 1.258 . S
O317 Nd296 2.492 . S
O317 C298 1.239 . S
O318 Nd296 2.487 1_545 S
O318 C305 1.241 . S
O319 Nd296 2.682 1_545 S
O319 Nd297 2.414 1_554 S
O319 C305 1.273 . S
O320 Nd296 2.410 1_556 S
O320 C306 1.251 . S
O321 Nd297 2.424 1_565 S
O321 C306 1.268 . S
O322 Nd297 2.500 . S
O322 C307 1.258 . S
O323 Nd297 2.492 . S
O323 C307 1.239 . S
O324 Nd297 2.487 . S
O324 C314 1.241 1_545 S
O325 Nd296 2.414 1_556 S
O325 Nd297 2.682 1_565 S
O325 C314 1.273 . S
O326 Nd297 2.410 1_554 S
O326 C315 1.251 . S
O327 Nd296 2.424 1_545 S
O327 C315 1.268 . S
H328 C300 0.930 . S
H329 C301 0.929 . S
H330 C303 0.930 . S
H331 C304 0.929 . S
H332 C309 0.930 . S
H333 C310 0.929 . S
H334 C312 0.930 . S
H335 C313 0.929 . S
Nd336 C338 2.836 . S
Nd336 O356 2.500 . S
Nd336 O357 2.492 . S
Nd336 O358 2.487 . S
Nd336 O359 2.682 . S
Nd336 O360 2.410 . S
Nd336 O365 2.414 . S
Nd336 O367 2.424 . S
Nd337 C347 2.836 . S
Nd337 O359 2.414 . S
Nd337 O361 2.424 . S
Nd337 O362 2.500 . S
Nd337 O363 2.492 . S
Nd337 O364 2.487 . S
Nd337 O365 2.682 . S
Nd337 O366 2.410 . S
C338 Nd336 2.836 . S
C338 C339 1.498 . S
C338 O356 1.258 . S
C338 O357 1.239 . S
C339 C338 1.498 . S
C339 C340 1.366 . S
C339 C344 1.407 . S
C340 C339 1.366 . S
C340 C341 1.392 . S
C340 H368 0.930 . S
C341 C340 1.392 . S
C341 C342 1.398 . S
C341 H369 0.929 . S
C342 C341 1.398 . S
C342 C343 1.352 . S
C343 C342 1.352 . S
C343 C344 1.384 . S
C343 H370 0.930 . S
C344 C339 1.407 . S
C344 C343 1.384 . S
C344 H371 0.929 . S
C345 O358 1.241 . S
C345 O359 1.273 . S
C346 O360 1.251 . S
C346 O361 1.268 . S
C347 Nd337 2.836 . S
C347 C348 1.498 . S
C347 O362 1.258 . S
C347 O363 1.239 . S
C348 C347 1.498 . S
C348 C349 1.366 . S
C348 C353 1.407 . S
C349 C348 1.366 . S
C349 C350 1.392 . S
C349 H372 0.930 . S
C350 C349 1.392 . S
C350 C351 1.398 . S
C350 H373 0.929 . S
C351 C350 1.398 . S
C351 C352 1.352 . S
C352 C351 1.352 . S
C352 C353 1.384 . S
C352 H374 0.930 . S
C353 C348 1.407 . S
C353 C352 1.384 . S
C353 H375 0.929 . S
C354 O364 1.241 . S
C354 O365 1.273 . S
C355 O366 1.251 . S
C355 O367 1.268 . S
O356 Nd336 2.500 . S
O356 C338 1.258 . S
O357 Nd336 2.492 . S
O357 C338 1.239 . S
O358 Nd336 2.487 . S
O358 C345 1.241 . S
O359 Nd336 2.682 . S
O359 Nd337 2.414 . S
O359 C345 1.273 . S
O360 Nd336 2.410 . S
O360 C346 1.251 . S
O361 Nd337 2.424 . S
O361 C346 1.268 . S
O362 Nd337 2.500 . S
O362 C347 1.258 . S
O363 Nd337 2.492 . S
O363 C347 1.239 . S
O364 Nd337 2.487 . S
O364 C354 1.241 . S
O365 Nd336 2.414 . S
O365 Nd337 2.682 . S
O365 C354 1.273 . S
O366 Nd337 2.410 . S
O366 C355 1.251 . S
O367 Nd336 2.424 . S
O367 C355 1.268 . S
H368 C340 0.930 . S
H369 C341 0.929 . S
H370 C343 0.930 . S
H371 C344 0.929 . S
H372 C349 0.930 . S
H373 C350 0.929 . S
H374 C352 0.930 . S
H375 C353 0.929 . S
Nd376 C378 2.836 . S
Nd376 O396 2.500 . S
Nd376 O397 2.492 . S
Nd376 O398 2.487 1_655 S
Nd376 O399 2.682 1_655 S
Nd376 O400 2.410 . S
Nd376 O405 2.414 1_554 S
Nd376 O407 2.424 1_655 S
Nd377 C387 2.836 . S
Nd377 O399 2.414 1_556 S
Nd377 O401 2.424 1_455 S
Nd377 O402 2.500 . S
Nd377 O403 2.492 . S
Nd377 O404 2.487 1_455 S
Nd377 O405 2.682 1_455 S
Nd377 O406 2.410 . S
C378 Nd376 2.836 . S
C378 C379 1.498 . S
C378 O396 1.258 . S
C378 O397 1.239 . S
C379 C378 1.498 . S
C379 C380 1.366 . S
C379 C384 1.407 . S
C380 C379 1.366 . S
C380 C381 1.392 . S
C380 H408 0.930 . S
C381 C380 1.392 . S
C381 C382 1.398 . S
C381 H409 0.929 . S
C382 C381 1.398 . S
C382 C383 1.352 . S
C383 C382 1.352 . S
C383 C384 1.384 . S
C383 H410 0.930 . S
C384 C379 1.407 . S
C384 C383 1.384 . S
C384 H411 0.929 . S
C385 O398 1.241 . S
C385 O399 1.273 . S
C386 O400 1.251 1_556 S
C386 O401 1.268 . S
C387 Nd377 2.836 . S
C387 C388 1.498 . S
C387 O402 1.258 . S
C387 O403 1.239 . S
C388 C387 1.498 . S
C388 C389 1.366 . S
C388 C393 1.407 . S
C389 C388 1.366 . S
C389 C390 1.392 . S
C389 H412 0.930 . S
C390 C389 1.392 . S
C390 C391 1.398 . S
C390 H413 0.929 . S
C391 C390 1.398 . S
C391 C392 1.352 . S
C392 C391 1.352 . S
C392 C393 1.384 . S
C392 H414 0.930 . S
C393 C388 1.407 . S
C393 C392 1.384 . S
C393 H415 0.929 . S
C394 O404 1.241 . S
C394 O405 1.273 . S
C395 O406 1.251 1_554 S
C395 O407 1.268 . S
O396 Nd376 2.500 . S
O396 C378 1.258 . S
O397 Nd376 2.492 . S
O397 C378 1.239 . S
O398 Nd376 2.487 1_455 S
O398 C385 1.241 . S
O399 Nd376 2.682 1_455 S
O399 Nd377 2.414 1_554 S
O399 C385 1.273 . S
O400 Nd376 2.410 . S
O400 C386 1.251 1_554 S
O401 Nd377 2.424 1_655 S
O401 C386 1.268 . S
O402 Nd377 2.500 . S
O402 C387 1.258 . S
O403 Nd377 2.492 . S
O403 C387 1.239 . S
O404 Nd377 2.487 1_655 S
O404 C394 1.241 . S
O405 Nd376 2.414 1_556 S
O405 Nd377 2.682 1_655 S
O405 C394 1.273 . S
O406 Nd377 2.410 . S
O406 C395 1.251 1_556 S
O407 Nd376 2.424 1_455 S
O407 C395 1.268 . S
H408 C380 0.930 . S
H409 C381 0.929 . S
H410 C383 0.930 . S
H411 C384 0.929 . S
H412 C389 0.930 . S
H413 C390 0.929 . S
H414 C392 0.930 . S
H415 C393 0.929 . S
H416 C428 0.930 . S
H417 C430 0.930 . S
H418 C431 0.930 . S
H419 C435 0.959 . S
H420 C435 0.959 . S
H421 C435 0.961 . S
H422 C436 0.960 . S
H423 C436 0.961 . S
H424 C436 0.959 . S
H425 C439 0.929 . S
H426 C440 0.931 . S
H427 C442 0.930 . S
C428 H416 0.930 . S
C428 C429 1.399 . S
C428 C433 1.399 . S
C429 C428 1.399 . S
C429 C430 1.376 . S
C430 H417 0.930 . S
C430 C429 1.376 . S
C430 C431 1.388 . S
C431 H418 0.930 . S
C431 C430 1.388 . S
C431 C432 1.390 . S
C432 C431 1.390 . S
C432 C433 1.394 . S
C432 C438 1.465 . S
C433 C428 1.399 . S
C433 C432 1.394 . S
C433 C434 1.516 . S
C434 C433 1.516 . S
C434 C435 1.502 . S
C434 C436 1.561 . S
C434 C437 1.526 . S
C435 H419 0.959 . S
C435 H420 0.959 . S
C435 H421 0.961 . S
C435 C434 1.502 . S
C436 H422 0.960 . S
C436 H423 0.961 . S
C436 H424 0.959 . S
C436 C434 1.561 . S
C437 C434 1.526 . S
C437 C438 1.396 . S
C437 C442 1.390 . S
C438 C432 1.465 . S
C438 C437 1.396 . S
C438 C439 1.399 . S
C439 H425 0.929 . S
C439 C438 1.399 . S
C439 C440 1.385 . S
C440 H426 0.931 . S
C440 C439 1.385 . S
C440 C441 1.389 . S
C441 C440 1.389 . S
C441 C442 1.387 . S
C442 H427 0.930 . S
C442 C437 1.390 . S
C442 C441 1.387 . S
H443 C455 0.930 . S
H444 C457 0.930 . S
H445 C458 0.930 . S
H446 C462 0.959 . S
H447 C462 0.959 . S
H448 C462 0.961 . S
H449 C463 0.960 . S
H450 C463 0.961 . S
H451 C463 0.959 . S
H452 C466 0.929 . S
H453 C467 0.931 . S
H454 C469 0.930 . S
C455 H443 0.930 . S
C455 C456 1.399 . S
C455 C460 1.399 . S
C456 C455 1.399 . S
C456 C457 1.376 . S
C457 H444 0.930 . S
C457 C456 1.376 . S
C457 C458 1.388 . S
C458 H445 0.930 . S
C458 C457 1.388 . S
C458 C459 1.390 . S
C459 C458 1.390 . S
C459 C460 1.394 . S
C459 C465 1.465 . S
C460 C455 1.399 . S
C460 C459 1.394 . S
C460 C461 1.516 . S
C461 C460 1.516 . S
C461 C462 1.502 . S
C461 C463 1.561 . S
C461 C464 1.526 . S
C462 H446 0.959 . S
C462 H447 0.959 . S
C462 H448 0.961 . S
C462 C461 1.502 . S
C463 H449 0.960 . S
C463 H450 0.961 . S
C463 H451 0.959 . S
C463 C461 1.561 . S
C464 C461 1.526 . S
C464 C465 1.396 . S
C464 C469 1.390 . S
C465 C459 1.465 . S
C465 C464 1.396 . S
C465 C466 1.399 . S
C466 H452 0.929 . S
C466 C465 1.399 . S
C466 C467 1.385 . S
C467 H453 0.931 . S
C467 C466 1.385 . S
C467 C468 1.389 . S
C468 C467 1.389 . S
C468 C469 1.387 . S
C469 H454 0.930 . S
C469 C464 1.390 . S
C469 C468 1.387 . S
H470 C482 0.930 . S
H471 C484 0.930 . S
H472 C485 0.930 . S
H473 C489 0.959 . S
H474 C489 0.959 . S
H475 C489 0.961 . S
H476 C490 0.960 . S
H477 C490 0.961 . S
H478 C490 0.959 . S
H479 C493 0.929 . S
H480 C494 0.931 . S
H481 C496 0.930 . S
C482 H470 0.930 . S
C482 C483 1.399 . S
C482 C487 1.399 . S
C483 C482 1.399 . S
C483 C484 1.376 . S
C484 H471 0.930 . S
C484 C483 1.376 . S
C484 C485 1.388 . S
C485 H472 0.930 . S
C485 C484 1.388 . S
C485 C486 1.390 . S
C486 C485 1.390 . S
C486 C487 1.394 . S
C486 C492 1.465 . S
C487 C482 1.399 . S
C487 C486 1.394 . S
C487 C488 1.516 . S
C488 C487 1.516 . S
C488 C489 1.502 . S
C488 C490 1.561 . S
C488 C491 1.526 . S
C489 H473 0.959 . S
C489 H474 0.959 . S
C489 H475 0.961 . S
C489 C488 1.502 . S
C490 H476 0.960 . S
C490 H477 0.961 . S
C490 H478 0.959 . S
C490 C488 1.561 . S
C491 C488 1.526 . S
C491 C492 1.396 . S
C491 C496 1.390 . S
C492 C486 1.465 . S
C492 C491 1.396 . S
C492 C493 1.399 . S
C493 H479 0.929 . S
C493 C492 1.399 . S
C493 C494 1.385 . S
C494 H480 0.931 . S
C494 C493 1.385 . S
C494 C495 1.389 . S
C495 C494 1.389 . S
C495 C496 1.387 . S
C496 H481 0.930 . S
C496 C491 1.390 . S
C496 C495 1.387 . S
H497 C509 0.930 . S
H498 C511 0.930 . S
H499 C512 0.930 . S
H500 C516 0.959 . S
H501 C516 0.959 . S
H502 C516 0.961 . S
H503 C517 0.960 . S
H504 C517 0.961 . S
H505 C517 0.959 . S
H506 C520 0.929 . S
H507 C521 0.931 . S
H508 C523 0.930 . S
C509 H497 0.930 . S
C509 C510 1.399 . S
C509 C514 1.399 . S
C510 C509 1.399 . S
C510 C511 1.376 . S
C511 H498 0.930 . S
C511 C510 1.376 . S
C511 C512 1.388 . S
C512 H499 0.930 . S
C512 C511 1.388 . S
C512 C513 1.390 . S
C513 C512 1.390 . S
C513 C514 1.394 . S
C513 C519 1.465 . S
C514 C509 1.399 . S
C514 C513 1.394 . S
C514 C515 1.516 . S
C515 C514 1.516 . S
C515 C516 1.502 . S
C515 C517 1.561 . S
C515 C518 1.526 . S
C516 H500 0.959 . S
C516 H501 0.959 . S
C516 H502 0.961 . S
C516 C515 1.502 . S
C517 H503 0.960 . S
C517 H504 0.961 . S
C517 H505 0.959 . S
C517 C515 1.561 . S
C518 C515 1.526 . S
C518 C519 1.396 . S
C518 C523 1.390 . S
C519 C513 1.465 . S
C519 C518 1.396 . S
C519 C520 1.399 . S
C520 H506 0.929 . S
C520 C519 1.399 . S
C520 C521 1.385 . S
C521 H507 0.931 . S
C521 C520 1.385 . S
C521 C522 1.389 . S
C522 C521 1.389 . S
C522 C523 1.387 . S
C523 H508 0.930 . S
C523 C518 1.390 . S
C523 C522 1.387 . S
H524 C536 0.930 . S
H525 C538 0.930 . S
H526 C539 0.930 . S
H527 C543 0.959 . S
H528 C543 0.959 . S
H529 C543 0.961 . S
H530 C544 0.960 . S
H531 C544 0.961 . S
H532 C544 0.959 . S
H533 C547 0.929 . S
H534 C548 0.931 . S
H535 C550 0.930 . S
C536 H524 0.930 . S
C536 C537 1.399 . S
C536 C541 1.399 . S
C537 C536 1.399 . S
C537 C538 1.376 . S
C538 H525 0.930 . S
C538 C537 1.376 . S
C538 C539 1.388 . S
C539 H526 0.930 . S
C539 C538 1.388 . S
C539 C540 1.390 . S
C540 C539 1.390 . S
C540 C541 1.394 . S
C540 C546 1.465 . S
C541 C536 1.399 . S
C541 C540 1.394 . S
C541 C542 1.516 . S
C542 C541 1.516 . S
C542 C543 1.502 . S
C542 C544 1.561 . S
C542 C545 1.526 . S
C543 H527 0.959 . S
C543 H528 0.959 . S
C543 H529 0.961 . S
C543 C542 1.502 . S
C544 H530 0.960 . S
C544 H531 0.961 . S
C544 H532 0.959 . S
C544 C542 1.561 . S
C545 C542 1.526 . S
C545 C546 1.396 . S
C545 C550 1.390 . S
C546 C540 1.465 . S
C546 C545 1.396 . S
C546 C547 1.399 . S
C547 H533 0.929 . S
C547 C546 1.399 . S
C547 C548 1.385 . S
C548 H534 0.931 . S
C548 C547 1.385 . S
C548 C549 1.389 . S
C549 C548 1.389 . S
C549 C550 1.387 . S
C550 H535 0.930 . S
C550 C545 1.390 . S
C550 C549 1.387 . S
H551 C563 0.930 . S
H552 C565 0.930 . S
H553 C566 0.930 . S
H554 C570 0.959 . S
H555 C570 0.959 . S
H556 C570 0.961 . S
H557 C571 0.960 . S
H558 C571 0.961 . S
H559 C571 0.959 . S
H560 C574 0.929 . S
H561 C575 0.931 . S
H562 C577 0.930 . S
C563 H551 0.930 . S
C563 C564 1.399 . S
C563 C568 1.399 . S
C564 C563 1.399 . S
C564 C565 1.376 . S
C565 H552 0.930 . S
C565 C564 1.376 . S
C565 C566 1.388 . S
C566 H553 0.930 . S
C566 C565 1.388 . S
C566 C567 1.390 . S
C567 C566 1.390 . S
C567 C568 1.394 . S
C567 C573 1.465 . S
C568 C563 1.399 . S
C568 C567 1.394 . S
C568 C569 1.516 . S
C569 C568 1.516 . S
C569 C570 1.502 . S
C569 C571 1.561 . S
C569 C572 1.526 . S
C570 H554 0.959 . S
C570 H555 0.959 . S
C570 H556 0.961 . S
C570 C569 1.502 . S
C571 H557 0.960 . S
C571 H558 0.961 . S
C571 H559 0.959 . S
C571 C569 1.561 . S
C572 C569 1.526 . S
C572 C573 1.396 . S
C572 C577 1.390 . S
C573 C567 1.465 . S
C573 C572 1.396 . S
C573 C574 1.399 . S
C574 H560 0.929 . S
C574 C573 1.399 . S
C574 C575 1.385 . S
C575 H561 0.931 . S
C575 C574 1.385 . S
C575 C576 1.389 . S
C576 C575 1.389 . S
C576 C577 1.387 . S
C577 H562 0.930 . S
C577 C572 1.390 . S
C577 C576 1.387 . S
H578 C590 0.930 . S
H579 C592 0.930 . S
H580 C593 0.930 . S
H581 C597 0.959 . S
H582 C597 0.959 . S
H583 C597 0.961 . S
H584 C598 0.960 . S
H585 C598 0.961 . S
H586 C598 0.959 . S
H587 C601 0.929 . S
H588 C602 0.931 . S
H589 C604 0.930 . S
C590 H578 0.930 . S
C590 C591 1.399 . S
C590 C595 1.399 . S
C591 C590 1.399 . S
C591 C592 1.376 . S
C592 H579 0.930 . S
C592 C591 1.376 . S
C592 C593 1.388 . S
C593 H580 0.930 . S
C593 C592 1.388 . S
C593 C594 1.390 . S
C594 C593 1.390 . S
C594 C595 1.394 . S
C594 C600 1.465 . S
C595 C590 1.399 . S
C595 C594 1.394 . S
C595 C596 1.516 . S
C596 C595 1.516 . S
C596 C597 1.502 . S
C596 C598 1.561 . S
C596 C599 1.526 . S
C597 H581 0.959 . S
C597 H582 0.959 . S
C597 H583 0.961 . S
C597 C596 1.502 . S
C598 H584 0.960 . S
C598 H585 0.961 . S
C598 H586 0.959 . S
C598 C596 1.561 . S
C599 C596 1.526 . S
C599 C600 1.396 . S
C599 C604 1.390 . S
C600 C594 1.465 . S
C600 C599 1.396 . S
C600 C601 1.399 . S
C601 H587 0.929 . S
C601 C600 1.399 . S
C601 C602 1.385 . S
C602 H588 0.931 . S
C602 C601 1.385 . S
C602 C603 1.389 . S
C603 C602 1.389 . S
C603 C604 1.387 . S
C604 H589 0.930 . S
C604 C599 1.390 . S
C604 C603 1.387 . S
H605 C617 0.930 . S
H606 C619 0.930 . S
H607 C620 0.930 . S
H608 C624 0.959 . S
H609 C624 0.959 . S
H610 C624 0.961 . S
H611 C625 0.960 . S
H612 C625 0.961 . S
H613 C625 0.959 . S
H614 C628 0.929 . S
H615 C629 0.931 . S
H616 C631 0.930 . S
C617 H605 0.930 . S
C617 C618 1.399 . S
C617 C622 1.399 . S
C618 C617 1.399 . S
C618 C619 1.376 . S
C619 H606 0.930 . S
C619 C618 1.376 . S
C619 C620 1.388 . S
C620 H607 0.930 . S
C620 C619 1.388 . S
C620 C621 1.390 . S
C621 C620 1.390 . S
C621 C622 1.394 . S
C621 C627 1.465 . S
C622 C617 1.399 . S
C622 C621 1.394 . S
C622 C623 1.516 . S
C623 C622 1.516 . S
C623 C624 1.502 . S
C623 C625 1.561 . S
C623 C626 1.526 . S
C624 H608 0.959 . S
C624 H609 0.959 . S
C624 H610 0.961 . S
C624 C623 1.502 . S
C625 H611 0.960 . S
C625 H612 0.961 . S
C625 H613 0.959 . S
C625 C623 1.561 . S
C626 C623 1.526 . S
C626 C627 1.396 . S
C626 C631 1.390 . S
C627 C621 1.465 . S
C627 C626 1.396 . S
C627 C628 1.399 . S
C628 H614 0.929 . S
C628 C627 1.399 . S
C628 C629 1.385 . S
C629 H615 0.931 . S
C629 C628 1.385 . S
C629 C630 1.389 . S
C630 C629 1.389 . S
C630 C631 1.387 . S
C631 H616 0.930 . S
C631 C626 1.390 . S
C631 C630 1.387 . S
H632 C644 0.930 . S
H633 C646 0.930 . S
H634 C647 0.930 . S
H635 C651 0.959 1_554 S
H636 C651 0.959 . S
H637 C651 0.961 . S
H638 C652 0.960 . S
H639 C652 0.961 . S
H640 C652 0.959 . S
H641 C655 0.929 . S
H642 C656 0.931 . S
H643 C658 0.930 1_556 S
C644 H632 0.930 . S
C644 C645 1.399 . S
C644 C649 1.399 . S
C645 C644 1.399 . S
C645 C646 1.376 . S
C646 H633 0.930 . S
C646 C645 1.376 . S
C646 C647 1.388 . S
C647 H634 0.930 . S
C647 C646 1.388 . S
C647 C648 1.390 . S
C648 C647 1.390 . S
C648 C649 1.394 . S
C648 C654 1.465 . S
C649 C644 1.399 . S
C649 C648 1.394 . S
C649 C650 1.516 . S
C650 C649 1.516 . S
C650 C651 1.502 1_554 S
C650 C652 1.561 1_554 S
C650 C653 1.526 . S
C651 H635 0.959 1_556 S
C651 H636 0.959 . S
C651 H637 0.961 . S
C651 C650 1.502 1_556 S
C652 H638 0.960 . S
C652 H639 0.961 . S
C652 H640 0.959 . S
C652 C650 1.561 1_556 S
C653 C650 1.526 . S
C653 C654 1.396 . S
C653 C658 1.390 . S
C654 C648 1.465 . S
C654 C653 1.396 . S
C654 C655 1.399 . S
C655 H641 0.929 . S
C655 C654 1.399 . S
C655 C656 1.385 . S
C656 H642 0.931 . S
C656 C655 1.385 . S
C656 C657 1.389 . S
C657 C656 1.389 . S
C657 C658 1.387 . S
C658 H643 0.930 1_554 S
C658 C653 1.390 . S
C658 C657 1.387 . S
H659 C671 0.930 . S
H660 C673 0.930 . S
H661 C674 0.930 . S
H662 C678 0.959 . S
H663 C678 0.959 . S
H664 C678 0.961 . S
H665 C679 0.960 . S
H666 C679 0.961 . S
H667 C679 0.959 . S
H668 C682 0.929 . S
H669 C683 0.931 . S
H670 C685 0.930 . S
C671 H659 0.930 . S
C671 C672 1.399 . S
C671 C676 1.399 . S
C672 C671 1.399 . S
C672 C673 1.376 . S
C673 H660 0.930 . S
C673 C672 1.376 . S
C673 C674 1.388 . S
C674 H661 0.930 . S
C674 C673 1.388 . S
C674 C675 1.390 . S
C675 C674 1.390 . S
C675 C676 1.394 . S
C675 C681 1.465 . S
C676 C671 1.399 . S
C676 C675 1.394 . S
C676 C677 1.516 . S
C677 C676 1.516 . S
C677 C678 1.502 . S
C677 C679 1.561 . S
C677 C680 1.526 . S
C678 H662 0.959 . S
C678 H663 0.959 . S
C678 H664 0.961 . S
C678 C677 1.502 . S
C679 H665 0.960 . S
C679 H666 0.961 . S
C679 H667 0.959 . S
C679 C677 1.561 . S
C680 C677 1.526 . S
C680 C681 1.396 . S
C680 C685 1.390 . S
C681 C675 1.465 . S
C681 C680 1.396 . S
C681 C682 1.399 . S
C682 H668 0.929 . S
C682 C681 1.399 . S
C682 C683 1.385 . S
C683 H669 0.931 . S
C683 C682 1.385 . S
C683 C684 1.389 . S
C684 C683 1.389 . S
C684 C685 1.387 . S
C685 H670 0.930 . S
C685 C680 1.390 . S
C685 C684 1.387 . S
H686 C698 0.930 . S
H687 C700 0.930 . S
H688 C701 0.930 . S
H689 C705 0.959 . S
H690 C705 0.959 . S
H691 C705 0.961 . S
H692 C706 0.960 . S
H693 C706 0.961 . S
H694 C706 0.959 . S
H695 C709 0.929 . S
H696 C710 0.931 . S
H697 C712 0.930 . S
C698 H686 0.930 . S
C698 C699 1.399 . S
C698 C703 1.399 . S
C699 C698 1.399 . S
C699 C700 1.376 . S
C700 H687 0.930 . S
C700 C699 1.376 . S
C700 C701 1.388 . S
C701 H688 0.930 . S
C701 C700 1.388 . S
C701 C702 1.390 . S
C702 C701 1.390 . S
C702 C703 1.394 . S
C702 C708 1.465 . S
C703 C698 1.399 . S
C703 C702 1.394 . S
C703 C704 1.516 . S
C704 C703 1.516 . S
C704 C705 1.502 . S
C704 C706 1.561 . S
C704 C707 1.526 . S
C705 H689 0.959 . S
C705 H690 0.959 . S
C705 H691 0.961 . S
C705 C704 1.502 . S
C706 H692 0.960 . S
C706 H693 0.961 . S
C706 H694 0.959 . S
C706 C704 1.561 . S
C707 C704 1.526 . S
C707 C708 1.396 . S
C707 C712 1.390 . S
C708 C702 1.465 . S
C708 C707 1.396 . S
C708 C709 1.399 . S
C709 H695 0.929 . S
C709 C708 1.399 . S
C709 C710 1.385 . S
C710 H696 0.931 . S
C710 C709 1.385 . S
C710 C711 1.389 . S
C711 C710 1.389 . S
C711 C712 1.387 . S
C712 H697 0.930 . S
C712 C707 1.390 . S
C712 C711 1.387 . S
H713 C725 0.930 . S
H714 C727 0.930 . S
H715 C728 0.930 . S
H716 C732 0.959 . S
H717 C732 0.959 . S
H718 C732 0.961 . S
H719 C733 0.960 . S
H720 C733 0.961 . S
H721 C733 0.959 . S
H722 C736 0.929 . S
H723 C737 0.931 . S
H724 C739 0.930 . S
C725 H713 0.930 . S
C725 C726 1.399 . S
C725 C730 1.399 . S
C726 C725 1.399 . S
C726 C727 1.376 . S
C727 H714 0.930 . S
C727 C726 1.376 . S
C727 C728 1.388 . S
C728 H715 0.930 . S
C728 C727 1.388 . S
C728 C729 1.390 . S
C729 C728 1.390 . S
C729 C730 1.394 . S
C729 C735 1.465 . S
C730 C725 1.399 . S
C730 C729 1.394 . S
C730 C731 1.516 . S
C731 C730 1.516 . S
C731 C732 1.502 . S
C731 C733 1.561 . S
C731 C734 1.526 . S
C732 H716 0.959 . S
C732 H717 0.959 . S
C732 H718 0.961 . S
C732 C731 1.502 . S
C733 H719 0.960 . S
C733 H720 0.961 . S
C733 H721 0.959 . S
C733 C731 1.561 . S
C734 C731 1.526 . S
C734 C735 1.396 . S
C734 C739 1.390 . S
C735 C729 1.465 . S
C735 C734 1.396 . S
C735 C736 1.399 . S
C736 H722 0.929 . S
C736 C735 1.399 . S
C736 C737 1.385 . S
C737 H723 0.931 . S
C737 C736 1.385 . S
C737 C738 1.389 . S
C738 C737 1.389 . S
C738 C739 1.387 . S
C739 H724 0.930 . S
C739 C734 1.390 . S
C739 C738 1.387 . S
H740 C752 0.930 . S
H741 C754 0.930 . S
H742 C755 0.930 . S
H743 C759 0.959 . S
H744 C759 0.959 . S
H745 C759 0.961 . S
H746 C760 0.960 . S
H747 C760 0.961 . S
H748 C760 0.959 . S
H749 C763 0.929 . S
H750 C764 0.931 . S
H751 C766 0.930 . S
C752 H740 0.930 . S
C752 C753 1.399 . S
C752 C757 1.399 . S
C753 C752 1.399 . S
C753 C754 1.376 . S
C754 H741 0.930 . S
C754 C753 1.376 . S
C754 C755 1.388 . S
C755 H742 0.930 . S
C755 C754 1.388 . S
C755 C756 1.390 . S
C756 C755 1.390 . S
C756 C757 1.394 . S
C756 C762 1.465 . S
C757 C752 1.399 . S
C757 C756 1.394 . S
C757 C758 1.516 . S
C758 C757 1.516 . S
C758 C759 1.502 . S
C758 C760 1.561 . S
C758 C761 1.526 . S
C759 H743 0.959 . S
C759 H744 0.959 . S
C759 H745 0.961 . S
C759 C758 1.502 . S
C760 H746 0.960 . S
C760 H747 0.961 . S
C760 H748 0.959 . S
C760 C758 1.561 . S
C761 C758 1.526 . S
C761 C762 1.396 . S
C761 C766 1.390 . S
C762 C756 1.465 . S
C762 C761 1.396 . S
C762 C763 1.399 . S
C763 H749 0.929 . S
C763 C762 1.399 . S
C763 C764 1.385 . S
C764 H750 0.931 . S
C764 C763 1.385 . S
C764 C765 1.389 . S
C765 C764 1.389 . S
C765 C766 1.387 . S
C766 H751 0.930 . S
C766 C761 1.390 . S
C766 C765 1.387 . S
H767 C779 0.930 . S
H768 C781 0.930 . S
H769 C782 0.930 . S
H770 C786 0.959 . S
H771 C786 0.959 . S
H772 C786 0.961 . S
H773 C787 0.960 . S
H774 C787 0.961 . S
H775 C787 0.959 . S
H776 C790 0.929 . S
H777 C791 0.931 . S
H778 C793 0.930 . S
C779 H767 0.930 . S
C779 C780 1.399 . S
C779 C784 1.399 . S
C780 C779 1.399 . S
C780 C781 1.376 . S
C781 H768 0.930 . S
C781 C780 1.376 . S
C781 C782 1.388 . S
C782 H769 0.930 . S
C782 C781 1.388 . S
C782 C783 1.390 . S
C783 C782 1.390 . S
C783 C784 1.394 . S
C783 C789 1.465 . S
C784 C779 1.399 . S
C784 C783 1.394 . S
C784 C785 1.516 . S
C785 C784 1.516 . S
C785 C786 1.502 . S
C785 C787 1.561 . S
C785 C788 1.526 . S
C786 H770 0.959 . S
C786 H771 0.959 . S
C786 H772 0.961 . S
C786 C785 1.502 . S
C787 H773 0.960 . S
C787 H774 0.961 . S
C787 H775 0.959 . S
C787 C785 1.561 . S
C788 C785 1.526 . S
C788 C789 1.396 . S
C788 C793 1.390 . S
C789 C783 1.465 . S
C789 C788 1.396 . S
C789 C790 1.399 . S
C790 H776 0.929 . S
C790 C789 1.399 . S
C790 C791 1.385 . S
C791 H777 0.931 . S
C791 C790 1.385 . S
C791 C792 1.389 . S
C792 C791 1.389 . S
C792 C793 1.387 . S
C793 H778 0.930 . S
C793 C788 1.390 . S
C793 C792 1.387 . S
H794 C806 0.930 . S
H795 C808 0.930 . S
H796 C809 0.930 . S
H797 C813 0.959 . S
H798 C813 0.959 . S
H799 C813 0.961 . S
H800 C814 0.960 . S
H801 C814 0.961 . S
H802 C814 0.959 . S
H803 C817 0.929 . S
H804 C818 0.931 . S
H805 C820 0.930 . S
C806 H794 0.930 . S
C806 C807 1.399 . S
C806 C811 1.399 . S
C807 C806 1.399 . S
C807 C808 1.376 . S
C808 H795 0.930 . S
C808 C807 1.376 . S
C808 C809 1.388 . S
C809 H796 0.930 . S
C809 C808 1.388 . S
C809 C810 1.390 . S
C810 C809 1.390 . S
C810 C811 1.394 . S
C810 C816 1.465 . S
C811 C806 1.399 . S
C811 C810 1.394 . S
C811 C812 1.516 . S
C812 C811 1.516 . S
C812 C813 1.502 . S
C812 C814 1.561 . S
C812 C815 1.526 . S
C813 H797 0.959 . S
C813 H798 0.959 . S
C813 H799 0.961 . S
C813 C812 1.502 . S
C814 H800 0.960 . S
C814 H801 0.961 . S
C814 H802 0.959 . S
C814 C812 1.561 . S
C815 C812 1.526 . S
C815 C816 1.396 . S
C815 C820 1.390 . S
C816 C810 1.465 . S
C816 C815 1.396 . S
C816 C817 1.399 . S
C817 H803 0.929 . S
C817 C816 1.399 . S
C817 C818 1.385 . S
C818 H804 0.931 . S
C818 C817 1.385 . S
C818 C819 1.389 . S
C819 C818 1.389 . S
C819 C820 1.387 . S
C820 H805 0.930 . S
C820 C815 1.390 . S
C820 C819 1.387 . S
H821 C833 0.930 . S
H822 C835 0.930 . S
H823 C836 0.930 . S
H824 C840 0.959 . S
H825 C840 0.959 . S
H826 C840 0.961 . S
H827 C841 0.960 . S
H828 C841 0.961 . S
H829 C841 0.959 . S
H830 C844 0.929 . S
H831 C845 0.931 . S
H832 C847 0.930 . S
C833 H821 0.930 . S
C833 C834 1.399 . S
C833 C838 1.399 . S
C834 C833 1.399 . S
C834 C835 1.376 . S
C835 H822 0.930 . S
C835 C834 1.376 . S
C835 C836 1.388 . S
C836 H823 0.930 . S
C836 C835 1.388 . S
C836 C837 1.390 . S
C837 C836 1.390 . S
C837 C838 1.394 . S
C837 C843 1.465 . S
C838 C833 1.399 . S
C838 C837 1.394 . S
C838 C839 1.516 . S
C839 C838 1.516 . S
C839 C840 1.502 . S
C839 C841 1.561 . S
C839 C842 1.526 . S
C840 H824 0.959 . S
C840 H825 0.959 . S
C840 H826 0.961 . S
C840 C839 1.502 . S
C841 H827 0.960 . S
C841 H828 0.961 . S
C841 H829 0.959 . S
C841 C839 1.561 . S
C842 C839 1.526 . S
C842 C843 1.396 . S
C842 C847 1.390 . S
C843 C837 1.465 . S
C843 C842 1.396 . S
C843 C844 1.399 . S
C844 H830 0.929 . S
C844 C843 1.399 . S
C844 C845 1.385 . S
C845 H831 0.931 . S
C845 C844 1.385 . S
C845 C846 1.389 . S
C846 C845 1.389 . S
C846 C847 1.387 . S
C847 H832 0.930 . S
C847 C842 1.390 . S
C847 C846 1.387 . S
H848 C860 0.930 . S
H849 C862 0.930 . S
H850 C863 0.930 . S
H851 C867 0.959 . S
H852 C867 0.959 . S
H853 C867 0.961 . S
H854 C868 0.960 . S
H855 C868 0.961 . S
H856 C868 0.959 . S
H857 C871 0.929 1_554 S
H858 C872 0.931 1_554 S
H859 C874 0.930 . S
C860 H848 0.930 . S
C860 C861 1.399 . S
C860 C865 1.399 . S
C861 C860 1.399 . S
C861 C862 1.376 . S
C862 H849 0.930 . S
C862 C861 1.376 . S
C862 C863 1.388 . S
C863 H850 0.930 . S
C863 C862 1.388 . S
C863 C864 1.390 . S
C864 C863 1.390 . S
C864 C865 1.394 . S
C864 C870 1.465 . S
C865 C860 1.399 . S
C865 C864 1.394 . S
C865 C866 1.516 . S
C866 C865 1.516 . S
C866 C867 1.502 . S
C866 C868 1.561 . S
C866 C869 1.526 . S
C867 H851 0.959 . S
C867 H852 0.959 . S
C867 H853 0.961 . S
C867 C866 1.502 . S
C868 H854 0.960 . S
C868 H855 0.961 . S
C868 H856 0.959 . S
C868 C866 1.561 . S
C869 C866 1.526 . S
C869 C870 1.396 . S
C869 C874 1.390 . S
C870 C864 1.465 . S
C870 C869 1.396 . S
C870 C871 1.399 . S
C871 H857 0.929 1_556 S
C871 C870 1.399 . S
C871 C872 1.385 . S
C872 H858 0.931 1_556 S
C872 C871 1.385 . S
C872 C873 1.389 . S
C873 C872 1.389 . S
C873 C874 1.387 . S
C874 H859 0.930 . S
C874 C869 1.390 . S
C874 C873 1.387 . S
H875 C887 0.930 . S
H876 C889 0.930 . S
H877 C890 0.930 . S
H878 C894 0.959 . S
H879 C894 0.959 . S
H880 C894 0.961 . S
H881 C895 0.960 . S
H882 C895 0.961 . S
H883 C895 0.959 . S
H884 C898 0.929 . S
H885 C899 0.931 . S
H886 C901 0.930 . S
C887 H875 0.930 . S
C887 C888 1.399 . S
C887 C892 1.399 . S
C888 C887 1.399 . S
C888 C889 1.376 . S
C889 H876 0.930 . S
C889 C888 1.376 . S
C889 C890 1.388 . S
C890 H877 0.930 . S
C890 C889 1.388 . S
C890 C891 1.390 . S
C891 C890 1.390 . S
C891 C892 1.394 . S
C891 C897 1.465 . S
C892 C887 1.399 . S
C892 C891 1.394 . S
C892 C893 1.516 . S
C893 C892 1.516 . S
C893 C894 1.502 . S
C893 C895 1.561 . S
C893 C896 1.526 . S
C894 H878 0.959 . S
C894 H879 0.959 . S
C894 H880 0.961 . S
C894 C893 1.502 . S
C895 H881 0.960 . S
C895 H882 0.961 . S
C895 H883 0.959 . S
C895 C893 1.561 . S
C896 C893 1.526 . S
C896 C897 1.396 . S
C896 C901 1.390 . S
C897 C891 1.465 . S
C897 C896 1.396 . S
C897 C898 1.399 . S
C898 H884 0.929 . S
C898 C897 1.399 . S
C898 C899 1.385 . S
C899 H885 0.931 . S
C899 C898 1.385 . S
C899 C900 1.389 . S
C900 C899 1.389 . S
C900 C901 1.387 . S
C901 H886 0.930 . S
C901 C896 1.390 . S
C901 C900 1.387 . S
H902 C914 0.930 . S
H903 C916 0.930 . S
H904 C917 0.930 . S
H905 C921 0.959 . S
H906 C921 0.959 . S
H907 C921 0.961 . S
H908 C922 0.960 . S
H909 C922 0.961 . S
H910 C922 0.959 . S
H911 C925 0.929 . S
H912 C926 0.931 . S
H913 C928 0.930 . S
C914 H902 0.930 . S
C914 C915 1.399 . S
C914 C919 1.399 . S
C915 C914 1.399 . S
C915 C916 1.376 . S
C916 H903 0.930 . S
C916 C915 1.376 . S
C916 C917 1.388 . S
C917 H904 0.930 . S
C917 C916 1.388 . S
C917 C918 1.390 . S
C918 C917 1.390 . S
C918 C919 1.394 . S
C918 C924 1.465 . S
C919 C914 1.399 . S
C919 C918 1.394 . S
C919 C920 1.516 . S
C920 C919 1.516 . S
C920 C921 1.502 . S
C920 C922 1.561 . S
C920 C923 1.526 . S
C921 H905 0.959 . S
C921 H906 0.959 . S
C921 H907 0.961 . S
C921 C920 1.502 . S
C922 H908 0.960 . S
C922 H909 0.961 . S
C922 H910 0.959 . S
C922 C920 1.561 . S
C923 C920 1.526 . S
C923 C924 1.396 . S
C923 C928 1.390 . S
C924 C918 1.465 . S
C924 C923 1.396 . S
C924 C925 1.399 . S
C925 H911 0.929 . S
C925 C924 1.399 . S
C925 C926 1.385 . S
C926 H912 0.931 . S
C926 C925 1.385 . S
C926 C927 1.389 . S
C927 C926 1.389 . S
C927 C928 1.387 . S
C928 H913 0.930 . S
C928 C923 1.390 . S
C928 C927 1.387 . S
H929 C941 0.930 . S
H930 C943 0.930 . S
H931 C944 0.930 . S
H932 C948 0.959 . S
H933 C948 0.959 . S
H934 C948 0.961 . S
H935 C949 0.960 . S
H936 C949 0.961 . S
H937 C949 0.959 . S
H938 C952 0.929 . S
H939 C953 0.931 . S
H940 C955 0.930 . S
C941 H929 0.930 . S
C941 C942 1.399 . S
C941 C946 1.399 . S
C942 C941 1.399 . S
C942 C943 1.376 . S
C943 H930 0.930 . S
C943 C942 1.376 . S
C943 C944 1.388 . S
C944 H931 0.930 . S
C944 C943 1.388 . S
C944 C945 1.390 . S
C945 C944 1.390 . S
C945 C946 1.394 . S
C945 C951 1.465 . S
C946 C941 1.399 . S
C946 C945 1.394 . S
C946 C947 1.516 . S
C947 C946 1.516 . S
C947 C948 1.502 . S
C947 C949 1.561 . S
C947 C950 1.526 . S
C948 H932 0.959 . S
C948 H933 0.959 . S
C948 H934 0.961 . S
C948 C947 1.502 . S
C949 H935 0.960 . S
C949 H936 0.961 . S
C949 H937 0.959 . S
C949 C947 1.561 . S
C950 C947 1.526 . S
C950 C951 1.396 . S
C950 C955 1.390 . S
C951 C945 1.465 . S
C951 C950 1.396 . S
C951 C952 1.399 . S
C952 H938 0.929 . S
C952 C951 1.399 . S
C952 C953 1.385 . S
C953 H939 0.931 . S
C953 C952 1.385 . S
C953 C954 1.389 . S
C954 C953 1.389 . S
C954 C955 1.387 . S
C955 H940 0.930 . S
C955 C950 1.390 . S
C955 C954 1.387 . S
H956 C968 0.930 . S
H957 C970 0.930 . S
H958 C971 0.930 . S
H959 C975 0.959 . S
H960 C975 0.959 . S
H961 C975 0.961 . S
H962 C976 0.960 . S
H963 C976 0.961 . S
H964 C976 0.959 . S
H965 C979 0.929 . S
H966 C980 0.931 1_455 S
H967 C982 0.930 . S
C968 H956 0.930 . S
C968 C969 1.399 . S
C968 C973 1.399 . S
C969 C968 1.399 . S
C969 C970 1.376 . S
C970 H957 0.930 . S
C970 C969 1.376 . S
C970 C971 1.388 . S
C971 H958 0.930 . S
C971 C970 1.388 . S
C971 C972 1.390 . S
C972 C971 1.390 . S
C972 C973 1.394 . S
C972 C978 1.465 . S
C973 C968 1.399 . S
C973 C972 1.394 . S
C973 C974 1.516 . S
C974 C973 1.516 . S
C974 C975 1.502 . S
C974 C976 1.561 . S
C974 C977 1.526 . S
C975 H959 0.959 . S
C975 H960 0.959 . S
C975 H961 0.961 . S
C975 C974 1.502 . S
C976 H962 0.960 . S
C976 H963 0.961 . S
C976 H964 0.959 . S
C976 C974 1.561 . S
C977 C974 1.526 . S
C977 C978 1.396 . S
C977 C982 1.390 . S
C978 C972 1.465 . S
C978 C977 1.396 . S
C978 C979 1.399 . S
C979 H965 0.929 . S
C979 C978 1.399 . S
C979 C980 1.385 . S
C980 H966 0.931 1_655 S
C980 C979 1.385 . S
C980 C981 1.389 . S
C981 C980 1.389 . S
C981 C982 1.387 . S
C982 H967 0.930 . S
C982 C977 1.390 . S
C982 C981 1.387 . S
H983 C995 0.930 . S
H984 C997 0.930 . S
H985 C998 0.930 . S
H986 C1002 0.959 . S
H987 C1002 0.959 . S
H988 C1002 0.961 . S
H989 C1003 0.960 . S
H990 C1003 0.961 . S
H991 C1003 0.959 . S
H992 C1006 0.929 . S
H993 C1007 0.931 . S
H994 C1009 0.930 . S
C995 H983 0.930 . S
C995 C996 1.399 . S
C995 C1000 1.399 . S
C996 C995 1.399 . S
C996 C997 1.376 . S
C997 H984 0.930 . S
C997 C996 1.376 . S
C997 C998 1.388 . S
C998 H985 0.930 . S
C998 C997 1.388 . S
C998 C999 1.390 . S
C999 C998 1.390 . S
C999 C1000 1.394 . S
C999 C1005 1.465 . S
C1000 C995 1.399 . S
C1000 C999 1.394 . S
C1000 C1001 1.516 . S
C1001 C1000 1.516 . S
C1001 C1002 1.502 . S
C1001 C1003 1.561 . S
C1001 C1004 1.526 . S
C1002 H986 0.959 . S
C1002 H987 0.959 . S
C1002 H988 0.961 . S
C1002 C1001 1.502 . S
C1003 H989 0.960 . S
C1003 H990 0.961 . S
C1003 H991 0.959 . S
C1003 C1001 1.561 . S
C1004 C1001 1.526 . S
C1004 C1005 1.396 . S
C1004 C1009 1.390 . S
C1005 C999 1.465 . S
C1005 C1004 1.396 . S
C1005 C1006 1.399 . S
C1006 H992 0.929 . S
C1006 C1005 1.399 . S
C1006 C1007 1.385 . S
C1007 H993 0.931 . S
C1007 C1006 1.385 . S
C1007 C1008 1.389 . S
C1008 C1007 1.389 . S
C1008 C1009 1.387 . S
C1009 H994 0.930 . S
C1009 C1004 1.390 . S
C1009 C1008 1.387 . S
H1010 C1022 0.930 . S
H1011 C1024 0.930 . S
H1012 C1025 0.930 . S
H1013 C1029 0.959 . S
H1014 C1029 0.959 . S
H1015 C1029 0.961 . S
H1016 C1030 0.960 . S
H1017 C1030 0.961 . S
H1018 C1030 0.959 . S
H1019 C1033 0.929 . S
H1020 C1034 0.931 . S
H1021 C1036 0.930 . S
C1022 H1010 0.930 . S
C1022 C1023 1.399 . S
C1022 C1027 1.399 . S
C1023 C1022 1.399 . S
C1023 C1024 1.376 . S
C1024 H1011 0.930 . S
C1024 C1023 1.376 . S
C1024 C1025 1.388 . S
C1025 H1012 0.930 . S
C1025 C1024 1.388 . S
C1025 C1026 1.390 . S
C1026 C1025 1.390 . S
C1026 C1027 1.394 . S
C1026 C1032 1.465 . S
C1027 C1022 1.399 . S
C1027 C1026 1.394 . S
C1027 C1028 1.516 . S
C1028 C1027 1.516 . S
C1028 C1029 1.502 . S
C1028 C1030 1.561 . S
C1028 C1031 1.526 . S
C1029 H1013 0.959 . S
C1029 H1014 0.959 . S
C1029 H1015 0.961 . S
C1029 C1028 1.502 . S
C1030 H1016 0.960 . S
C1030 H1017 0.961 . S
C1030 H1018 0.959 . S
C1030 C1028 1.561 . S
C1031 C1028 1.526 . S
C1031 C1032 1.396 . S
C1031 C1036 1.390 . S
C1032 C1026 1.465 . S
C1032 C1031 1.396 . S
C1032 C1033 1.399 . S
C1033 H1019 0.929 . S
C1033 C1032 1.399 . S
C1033 C1034 1.385 . S
C1034 H1020 0.931 . S
C1034 C1033 1.385 . S
C1034 C1035 1.389 . S
C1035 C1034 1.389 . S
C1035 C1036 1.387 . S
C1036 H1021 0.930 . S
C1036 C1031 1.390 . S
C1036 C1035 1.387 . S
H1037 C1049 0.930 . S
H1038 C1051 0.930 . S
H1039 C1052 0.930 . S
H1040 C1056 0.959 . S
H1041 C1056 0.959 . S
H1042 C1056 0.961 . S
H1043 C1057 0.960 . S
H1044 C1057 0.961 . S
H1045 C1057 0.959 . S
H1046 C1060 0.929 . S
H1047 C1061 0.931 . S
H1048 C1063 0.930 . S
C1049 H1037 0.930 . S
C1049 C1050 1.399 . S
C1049 C1054 1.399 . S
C1050 C1049 1.399 . S
C1050 C1051 1.376 . S
C1051 H1038 0.930 . S
C1051 C1050 1.376 . S
C1051 C1052 1.388 . S
C1052 H1039 0.930 . S
C1052 C1051 1.388 . S
C1052 C1053 1.390 . S
C1053 C1052 1.390 . S
C1053 C1054 1.394 . S
C1053 C1059 1.465 . S
C1054 C1049 1.399 . S
C1054 C1053 1.394 . S
C1054 C1055 1.516 . S
C1055 C1054 1.516 . S
C1055 C1056 1.502 . S
C1055 C1057 1.561 . S
C1055 C1058 1.526 . S
C1056 H1040 0.959 . S
C1056 H1041 0.959 . S
C1056 H1042 0.961 . S
C1056 C1055 1.502 . S
C1057 H1043 0.960 . S
C1057 H1044 0.961 . S
C1057 H1045 0.959 . S
C1057 C1055 1.561 . S
C1058 C1055 1.526 . S
C1058 C1059 1.396 . S
C1058 C1063 1.390 . S
C1059 C1053 1.465 . S
C1059 C1058 1.396 . S
C1059 C1060 1.399 . S
C1060 H1046 0.929 . S
C1060 C1059 1.399 . S
C1060 C1061 1.385 . S
C1061 H1047 0.931 . S
C1061 C1060 1.385 . S
C1061 C1062 1.389 . S
C1062 C1061 1.389 . S
C1062 C1063 1.387 . S
C1063 H1048 0.930 . S
C1063 C1058 1.390 . S
C1063 C1062 1.387 . S
C429 C29 2.843 . S
C441 C275 2.914 . S
C456 C49 2.119 . S
C468 C306 2.365 . S
C495 C345 1.380 . S
C483 C93 1.392 . S
C510 C119 0.582 . S
C522 C382 0.422 . S
C549 C305 2.752 . S
C537 C17 2.814 . S
C576 C262 1.456 . S
C564 C61 1.345 . S
C603 C394 1.378 . S
C591 C81 1.415 . S
C630 C351 1.144 . S
C618 C125 1.101 . S
C645 C23 2.201 . S
C657 C395 2.241 . S
C684 C311 1.250 . S
C672 C87 1.226 . S
C699 C113 0.539 . S
C711 C274 0.564 . S
C726 C55 2.302 . S
C738 C346 2.445 . S
C765 C266 2.840 . S
C753 C157 2.854 . S
C780 C189 2.388 . S
C792 C315 2.411 . S
C807 C221 1.380 . S
C819 C354 1.354 . S
C834 C253 0.538 . S
C846 C391 0.502 . S
C861 C145 2.899 . S
C873 C314 2.840 . S
C900 C271 1.415 . S
C888 C183 1.422 . S
C927 C385 1.454 . S
C915 C209 1.473 . S
C954 C342 1.108 . S
C942 C247 1.059 . S
C969 C151 2.243 . S
C981 C386 2.266 . S
C1008 C302 1.250 . S
C996 C215 1.222 . S
C1035 C265 0.649 . S
C1023 C241 0.585 . S
C1050 C177 2.481 . S
C1062 C355 2.443 . S
