# Generated by pormake.
# Topology rtl, (3,6)-cn, num edge types: 1
# Building blocks:
#     Node 0, Type 0, BuildingBlock: BETDIP_clean_linker_0, # of connection points: 3
#     Node 1, Type 0, BuildingBlock: BETDIP_clean_linker_0, # of connection points: 3
#     Node 2, Type 0, BuildingBlock: BETDIP_clean_linker_0, # of connection points: 3
#     Node 3, Type 0, BuildingBlock: BETDIP_clean_linker_0, # of connection points: 3
#     Node 4, Type 1, BuildingBlock: KUMBUR_clean_sbu_1, # of connection points: 6
#     Node 5, Type 1, BuildingBlock: KUMBUR_clean_sbu_1, # of connection points: 6
#     Edge 6, Type (0, 1), BuildingBlock: CIFDUS_clean_linker_0, # of connection points: 2
#     Edge 7, Type (0, 1), BuildingBlock: CIFDUS_clean_linker_0, # of connection points: 2
#     Edge 8, Type (0, 1), BuildingBlock: CIFDUS_clean_linker_0, # of connection points: 2
#     Edge 9, Type (0, 1), BuildingBlock: CIFDUS_clean_linker_0, # of connection points: 2
#     Edge 10, Type (0, 1), BuildingBlock: CIFDUS_clean_linker_0, # of connection points: 2
#     Edge 11, Type (0, 1), BuildingBlock: CIFDUS_clean_linker_0, # of connection points: 2
#     Edge 12, Type (0, 1), BuildingBlock: CIFDUS_clean_linker_0, # of connection points: 2
#     Edge 13, Type (0, 1), BuildingBlock: CIFDUS_clean_linker_0, # of connection points: 2
#     Edge 14, Type (0, 1), BuildingBlock: CIFDUS_clean_linker_0, # of connection points: 2
#     Edge 15, Type (0, 1), BuildingBlock: CIFDUS_clean_linker_0, # of connection points: 2
#     Edge 16, Type (0, 1), BuildingBlock: CIFDUS_clean_linker_0, # of connection points: 2
#     Edge 17, Type (0, 1), BuildingBlock: CIFDUS_clean_linker_0, # of connection points: 2
# Relax obj value: 0.053
# Max RMSD: 0.227
# Mean RMSD: 0.165
data_MOF--net-rtl--node1-KUMBUR_clean_sbu_1--node2-BETDIP_clean_linker_0--edge1-CIFDUS_clean_linker_0
_symmetry_space_group_name_H-M    P1
_symmetry_Int_Tables_number       1
_symmetry_cell_setting            triclinic
loop_
_symmetry_equiv_pos_as_xyz
'x, y, z'
_cell_length_a     31.241299
_cell_length_b     31.399521
_cell_length_c     24.113273
_cell_angle_alpha  76.388654
_cell_angle_beta   100.37345
_cell_angle_gamma 91.518485
loop_
_atom_site_label
_atom_site_type_symbol
_atom_site_fract_x
_atom_site_fract_y
_atom_site_fract_z
_atom_type_partial_charge
H0 H 0.22544 0.83129 0.94304 0.0
H1 H 0.24839 0.81032 0.1281 0.0
H2 H 0.15948 0.91196 0.0249 0.0
H3 H 0.2944 0.79828 0.96124 0.0
C4 C 0.29537 0.77486 1.00254 0.0
C5 C 0.22024 0.84151 0.98111 0.0
C6 C 0.1893 0.87506 0.976 0.0
C7 C 0.24245 0.81909 0.03617 0.0
C8 C 0.23261 0.82907 0.08596 0.0
C9 C 0.2021 0.86194 0.0822 0.0
C10 C 0.18227 0.88601 0.02724 0.0
N11 N 0.27219 0.78372 0.04423 0.0
H12 H 0.72735 0.71719 0.77005 0.0
H13 H 0.71267 0.73278 0.58439 0.0
H14 H 0.63648 0.63886 0.68247 0.0
H15 H 0.73055 0.80164 0.58775 0.0
C16 C 0.75763 0.79758 0.6239 0.0
C17 C 0.71178 0.70861 0.73032 0.0
C18 C 0.68051 0.6752 0.73231 0.0
C19 C 0.72327 0.73061 0.6768 0.0
C20 C 0.7034 0.71788 0.62564 0.0
C21 C 0.67135 0.68559 0.6273 0.0
C22 C 0.66042 0.66461 0.68071 0.0
N23 N 0.75537 0.76429 0.67515 0.0
H24 H 0.77082 0.21435 0.00767 0.0
H25 H 0.80562 0.19862 0.19226 0.0
H26 H 0.87215 0.12242 0.10731 0.0
H27 H 0.73665 0.22141 0.18337 0.0
C28 C 0.73035 0.2459 0.14261 0.0
C29 C 0.79021 0.19799 0.04875 0.0
C30 C 0.82263 0.16689 0.05059 0.0
C31 C 0.78268 0.20876 0.09962 0.0
C32 C 0.80916 0.18914 0.15299 0.0
C33 C 0.84208 0.15869 0.15557 0.0
C34 C 0.84788 0.1472 0.10456 0.0
N35 N 0.74968 0.24069 0.09528 0.0
H36 H 0.3168 0.29966 0.36509 0.0
H37 H 0.3223 0.30978 0.54134 0.0
H38 H 0.41863 0.37291 0.4451 0.0
H39 H 0.27468 0.23354 0.40319 0.0
C40 C 0.26079 0.24122 0.43792 0.0
C41 C 0.33256 0.31136 0.40237 0.0
C42 C 0.37019 0.33761 0.39896 0.0
C43 C 0.31543 0.30128 0.4546 0.0
C44 C 0.33563 0.31769 0.50167 0.0
C45 C 0.37313 0.34279 0.49914 0.0
C46 C 0.39011 0.35257 0.44774 0.0
N47 N 0.27725 0.27647 0.46272 0.0
Tb48 Tb 0.03676 0.97043 0.51893 0.0
C49 C 0.95489 0.14201 0.5173 0.0
N50 N 0.99421 0.12639 0.54886 0.0
C51 C 0.02512 0.19709 0.51809 0.0
C52 C 0.94966 0.18505 0.48241 0.0
C53 C 0.02821 0.15445 0.55291 0.0
C54 C 0.98591 0.21215 0.48152 0.0
C55 C 0.87678 0.13242 0.49845 0.0
C56 C 0.91893 0.11639 0.52533 0.0
C57 C 0.87161 0.17416 0.46058 0.0
C58 C 0.90803 0.20043 0.4525 0.0
Tb59 Tb 0.99601 0.05529 0.6032 0.0
N60 N 0.92545 0.07612 0.5621 0.0
C61 C 0.84121 0.10642 0.51173 0.0
C62 C 0.89082 0.05163 0.57771 0.0
C63 C 0.84825 0.06612 0.55215 0.0
H64 H 0.05728 0.14468 0.58459 0.0
H65 H 0.82093 0.04624 0.56367 0.0
H66 H 0.96882 0.8871 0.53052 0.0
H67 H 0.21302 0.97625 0.55999 0.0
H68 H 0.89616 0.02068 0.60929 0.0
H69 H 0.80823 0.11756 0.49205 0.0
H70 H 0.13946 0.00747 0.5258 0.0
H71 H 0.05262 0.21869 0.52074 0.0
H72 H 0.83954 0.18694 0.43878 0.0
H73 H 0.90344 0.23323 0.42495 0.0
H74 H 0.9732 0.80748 0.57023 0.0
H75 H 0.98329 0.2455 0.4555 0.0
H76 H 0.22379 0.89684 0.6032 0.0
N77 N 0.03638 0.89694 0.55668 0.0
C78 C 0.07619 0.8774 0.57714 0.0
C79 C 1.00237 0.8268 0.57345 0.0
C80 C 0.08047 0.83159 0.59854 0.0
C81 C 0.99984 0.87225 0.55222 0.0
C82 C 0.04282 0.80639 0.59735 0.0
N83 N 0.10755 0.94721 0.55181 0.0
C84 C 0.14299 0.9732 0.54583 0.0
C85 C 0.15479 0.88379 0.59375 0.0
C86 C 0.11291 0.90324 0.57446 0.0
C87 C 0.19109 0.91053 0.58889 0.0
C88 C 0.18513 0.95537 0.56461 0.0
H89 H 0.04475 0.77108 0.6131 0.0
H90 H 0.12601 0.77715 0.63548 0.0
H91 H 0.19105 0.82285 0.63161 0.0
O92 O 0.0671 0.95796 0.45282 0.0
O93 O 0.05444 0.95457 0.61407 0.0
O94 O 0.05879 0.0215 0.63986 0.0
O95 O 0.99685 0.95055 0.44962 0.0
O96 O 0.0661 0.03516 0.50396 0.0
O97 O 0.06153 0.07007 0.5784 0.0
O98 O 0.97065 0.03983 0.68141 0.0
O99 O 0.95827 0.04341 0.52218 0.0
O100 O 0.0108 0.03517 0.47181 0.0
O101 O 1.00687 0.09778 0.65982 0.0
O102 O 0.97725 0.98579 0.62767 0.0
O103 O 0.97184 0.96154 0.54292 0.0
C104 C 0.06876 0.97958 0.65011 0.0
C105 C 0.02614 0.93476 0.36919 0.0
C106 C 0.05836 0.92046 0.29035 0.0
C107 C 0.01748 0.9081 0.26464 0.0
C108 C 0.98542 0.92263 0.34246 0.0
C109 C 0.9812 0.90942 0.29046 0.0
C110 C 0.06268 0.93401 0.34256 0.0
C111 C 0.07865 0.06523 0.53348 0.0
C112 C 0.03012 0.94797 0.42463 0.0
C113 C 0.12209 0.81228 0.61881 0.0
C114 C 0.15914 0.83831 0.61648 0.0
C115 C 0.9719 0.04857 0.47285 0.0
C116 C 0.94818 0.10323 0.70702 0.0
C117 C 0.90586 0.12342 0.77373 0.0
C118 C 0.88401 0.15586 0.72731 0.0
C119 C 0.92666 0.13699 0.66254 0.0
C120 C 0.93792 0.09671 0.76311 0.0
C121 C 0.89438 0.16248 0.67229 0.0
C122 C 0.96031 0.95993 0.59349 0.0
C123 C 0.9824 0.07663 0.69478 0.0
H124 H 0.01366 0.89758 0.22435 0.0
H125 H 0.95679 0.92316 0.36184 0.0
H126 H 0.94974 0.90003 0.2702 0.0
H127 H 0.09435 0.94338 0.36246 0.0
H128 H 0.85999 0.17753 0.73394 0.0
H129 H 0.93557 0.14468 0.62041 0.0
H130 H 0.95508 0.07151 0.79822 0.0
H131 H 0.87813 0.18831 0.63733 0.0
Tb132 Tb 0.47451 0.49228 1.00048 0.0
C133 C 0.64977 0.55459 0.0884 0.0
N134 N 0.62799 0.5214 0.11796 0.0
C135 C 0.69205 0.47547 0.141 0.0
C136 C 0.69273 0.54872 0.0809 0.0
C137 C 0.64976 0.48344 0.1482 0.0
C138 C 0.71327 0.50791 0.10596 0.0
C139 C 0.65259 0.6321 0.04386 0.0
C140 C 0.63022 0.59564 0.07024 0.0
C141 C 0.69436 0.62599 0.0328 0.0
C142 C 0.71437 0.58431 0.05117 0.0
Tb143 Tb 0.55716 0.53716 0.12083 0.0
N144 N 0.58942 0.59996 0.08038 0.0
C145 C 0.63267 0.67359 0.03091 0.0
C146 C 0.57101 0.64055 0.07175 0.0
C147 C 0.59205 0.67792 0.04597 0.0
H148 H 0.63453 0.45905 0.17777 0.0
H149 H 0.57688 0.70994 0.03748 0.0
H150 H 0.38673 0.55463 0.97826 0.0
H151 H 0.50254 0.31702 0.08334 0.0
H152 H 0.53952 0.64374 0.08316 0.0
H153 H 0.6488 0.70253 0.0107 0.0
H154 H 0.51935 0.39058 0.03116 0.0
H155 H 0.70843 0.4446 0.16317 0.0
H156 H 0.71193 0.65346 0.01167 0.0
H157 H 0.74719 0.58033 0.0442 0.0
H158 H 0.31249 0.54618 1.00045 0.0
H159 H 0.74623 0.50193 0.10109 0.0
H160 H 0.43239 0.30353 0.11783 0.0
N161 N 0.40558 0.4884 0.01885 0.0
C162 C 0.39257 0.44795 0.04398 0.0
C163 C 0.33483 0.51839 0.01345 0.0
C164 C 0.35045 0.44153 0.0573 0.0
C165 C 0.3771 0.5232 1.00156 0.0
C166 C 0.32155 0.47748 0.04194 0.0
N167 N 0.46247 0.42076 0.04335 0.0
C168 C 0.49014 0.3863 0.04946 0.0
C169 C 0.41032 0.37106 0.08549 0.0
C170 C 0.42227 0.41324 0.05786 0.0
C171 C 0.44026 0.33644 0.09655 0.0
C172 C 0.48002 0.34398 0.07751 0.0
H173 H 0.28886 0.47391 0.05141 0.0
H174 H 0.30668 0.39418 0.09703 0.0
H175 H 0.35906 0.33249 0.12178 0.0
O176 O 0.4536 0.45464 0.93948 0.0
O177 O 0.4587 0.49562 0.08517 0.0
O178 O 0.5206 0.47841 0.15294 0.0
O179 O 0.44523 0.52462 0.91593 0.0
O180 O 0.54097 0.46539 0.02229 0.0
O181 O 0.56242 0.4674 0.11851 0.0
O182 O 0.53471 0.56559 0.1812 0.0
O183 O 0.54924 0.56999 0.02841 0.0
O184 O 0.53689 0.51739 0.97624 0.0
O185 O 0.60057 0.54215 0.19676 0.0
O186 O 0.49231 0.57006 0.09117 0.0
O187 O 0.46715 0.5623 0.99653 0.0
C188 C 0.47848 0.47434 0.13672 0.0
C189 C 0.45834 0.48943 0.84379 0.0
C190 C 0.45356 0.46317 0.75523 0.0
C191 C 0.49048 0.48783 0.74306 0.0
C192 C 0.49523 0.51353 0.83097 0.0
C193 C 0.51112 0.5127 0.78077 0.0
C194 C 0.43768 0.46424 0.80597 0.0
C195 C 0.56651 0.45222 0.07305 0.0
C196 C 0.44194 0.48871 0.89744 0.0
C197 C 0.33878 0.39973 0.08589 0.0
C198 C 0.36868 0.36464 0.10014 0.0
C199 C 0.55543 0.55393 0.98499 0.0
C200 C 0.57135 0.54761 0.27846 0.0
C201 C 0.5901 0.5638 0.37396 0.0
C202 C 0.5669 0.52675 0.39673 0.0
C203 C 0.54874 0.51053 0.30185 0.0
C204 C 0.59247 0.57381 0.31469 0.0
C205 C 0.54668 0.50015 0.36092 0.0
C206 C 0.46773 0.58255 0.03896 0.0
C207 C 0.57199 0.56106 0.21617 0.0
H208 H 0.50308 0.48848 0.70388 0.0
H209 H 0.51178 0.53294 0.85968 0.0
H210 H 0.53947 0.53152 0.77094 0.0
H211 H 0.40966 0.44503 0.81658 0.0
H212 H 0.56473 0.51821 0.44235 0.0
H213 H 0.5324 0.49002 0.27443 0.0
H214 H 0.60974 0.60265 0.29644 0.0
H215 H 0.52908 0.4716 0.37893 0.0
H216 H 0.21835 0.17449 0.39879 0.0
H217 H 0.22758 0.2427 0.53601 0.0
H218 H 0.17402 0.19407 0.57934 0.0
H219 H 0.12553 0.13003 0.57994 0.0
H220 H 0.11131 0.06835 0.43523 0.0
H221 H 0.16667 0.11457 0.39578 0.0
C222 C 0.20852 0.1788 0.43807 0.0
C223 C 0.22715 0.21226 0.4638 0.0
C224 C 0.17698 0.15117 0.4624 0.0
C225 C 0.21393 0.21732 0.51486 0.0
C226 C 0.18323 0.18935 0.53994 0.0
C227 C 0.13332 0.12749 0.53892 0.0
C228 C 0.11293 0.09564 0.51083 0.0
C229 C 0.16443 0.15598 0.51417 0.0
C230 C 0.12572 0.09219 0.45867 0.0
C231 C 0.1576 0.1189 0.43546 0.0
H232 H 0.35609 0.75743 0.94344 0.0
H233 H 0.30119 0.70513 0.09688 0.0
H234 H 0.35086 0.642 0.12293 0.0
H235 H 0.41012 0.60103 0.10197 0.0
H236 H 0.46294 0.65169 0.94672 0.0
H237 H 0.41479 0.71627 0.92206 0.0
C238 C 0.35509 0.73216 0.98254 0.0
C239 C 0.32517 0.73613 0.01817 0.0
C240 C 0.38376 0.6958 0.99728 0.0
C241 C 0.32412 0.70315 0.06879 0.0
C242 C 0.35254 0.66695 0.08379 0.0
C243 C 0.41121 0.62654 0.06311 0.0
C244 C 0.44006 0.6221 0.02634 0.0
C245 C 0.38262 0.66297 0.04851 0.0
C246 C 0.44083 0.65467 0.97551 0.0
C247 C 0.41331 0.69148 0.96141 0.0
H248 H 0.82024 0.82945 0.70158 0.0
H249 H 0.78185 0.82717 0.52135 0.0
H250 H 0.84052 0.87639 0.49612 0.0
H251 H 0.90027 0.92302 0.52332 0.0
H252 H 0.9399 0.9284 0.70219 0.0
H253 H 0.88278 0.8766 0.72948 0.0
C254 C 0.8252 0.8394 0.65703 0.0
C255 C 0.79674 0.82444 0.61334 0.0
C256 C 0.85879 0.86901 0.64232 0.0
C257 C 0.80321 0.83819 0.5557 0.0
C258 C 0.83671 0.8665 0.54114 0.0
C259 C 0.89699 0.91247 0.56851 0.0
C260 C 0.92503 0.92919 0.61068 0.0
C261 C 0.86432 0.88258 0.58383 0.0
C262 C 0.91904 0.916 0.66871 0.0
C263 C 0.88642 0.88615 0.6844 0.0
H264 H 0.70287 0.31476 0.04886 0.0
H265 H 0.6882 0.25893 0.2256 0.0
H266 H 0.63728 0.31787 0.22119 0.0
H267 H 0.59595 0.38525 0.16681 0.0
H268 H 0.60996 0.44069 0.9898 0.0
H269 H 0.66175 0.38242 0.99456 0.0
C270 C 0.68854 0.31552 0.08637 0.0
C271 C 0.69935 0.28242 0.13757 0.0
C272 C 0.6591 0.34965 0.08353 0.0
C273 C 0.68042 0.284 0.1857 0.0
C274 C 0.6513 0.31774 0.18326 0.0
C275 C 0.61072 0.38472 0.12957 0.0
C276 C 0.59932 0.4174 0.0782 0.0
C277 C 0.64035 0.3508 0.13245 0.0
C278 C 0.61815 0.41587 0.02989 0.0
C279 C 0.64784 0.38256 0.03257 0.0
H280 H 0.18413 0.93774 0.11202 0.0
H281 H 0.1829 0.79679 0.17018 0.0
H282 H 0.14398 0.80305 0.2467 0.0
H283 H 0.10024 0.84783 0.28709 0.0
H284 H 0.09843 0.98831 0.22795 0.0
H285 H 0.14849 0.98323 0.16198 0.0
C286 C 0.17582 0.90847 0.14196 0.0
C287 C 0.18607 0.86688 0.13487 0.0
C288 C 0.15244 0.91223 0.18531 0.0
C289 C 0.17577 0.82924 0.17472 0.0
C290 C 0.15308 0.83273 0.21826 0.0
C291 C 0.11188 0.87726 0.26079 0.0
C292 C 0.09592 0.9183 0.26182 0.0
C293 C 0.13987 0.87392 0.22256 0.0
C294 C 0.11072 0.95643 0.22772 0.0
C295 C 0.13899 0.95345 0.18981 0.0
H296 H 0.63277 0.70143 0.8031 0.0
H297 H 0.69743 0.58921 0.77982 0.0
H298 H 0.66344 0.54091 0.85444 0.0
H299 H 0.61181 0.52985 0.92301 0.0
H300 H 0.54659 0.64208 0.94562 0.0
H301 H 0.58387 0.69078 0.87534 0.0
C302 C 0.64041 0.66661 0.81585 0.0
C303 C 0.66832 0.64899 0.78696 0.0
C304 C 0.61988 0.63881 0.85806 0.0
C305 C 0.67682 0.60356 0.80247 0.0
C306 C 0.65694 0.57588 0.8446 0.0
C307 C 0.6057 0.56494 0.91218 0.0
C308 C 0.57652 0.58232 0.93947 0.0
C309 C 0.62768 0.59295 0.87191 0.0
C310 C 0.56915 0.62791 0.92547 0.0
C311 C 0.5905 0.65584 0.88525 0.0
H312 H 0.82069 0.12179 0.26113 0.0
H313 H 0.93043 0.15313 0.17385 0.0
H314 H 0.98026 0.12136 0.26373 0.0
H315 H 0.99289 0.08533 0.36758 0.0
H316 H 0.88316 0.04994 0.45364 0.0
H317 H 0.83328 0.08317 0.36458 0.0
C318 C 0.85554 0.12188 0.26203 0.0
C319 C 0.87185 0.13984 0.21098 0.0
C320 C 0.88405 0.10309 0.31381 0.0
C321 C 0.91706 0.13921 0.21252 0.0
C322 C 0.94558 0.12116 0.26391 0.0
C323 C 0.95804 0.08472 0.36672 0.0
C324 C 0.94181 0.06634 0.41766 0.0
C325 C 0.92948 0.10296 0.31483 0.0
C326 C 0.89657 0.06535 0.41563 0.0
C327 C 0.86797 0.08397 0.36449 0.0
H328 H 0.33419 0.38014 0.56877 0.0
H329 H 0.45975 0.34188 0.54402 0.0
H330 H 0.49544 0.37266 0.62425 0.0
H331 H 0.49122 0.41385 0.69768 0.0
H332 H 0.36587 0.45431 0.72061 0.0
H333 H 0.32978 0.41775 0.64637 0.0
C334 C 0.36933 0.37807 0.58144 0.0
C335 C 0.39436 0.35925 0.55006 0.0
C336 C 0.38965 0.39606 0.6274 0.0
C337 C 0.43986 0.35699 0.56677 0.0
C338 C 0.46025 0.37436 0.61281 0.0
C339 C 0.456 0.41486 0.6863 0.0
C340 C 0.4314 0.4374 0.71415 0.0
C341 C 0.43552 0.39469 0.64268 0.0
C342 C 0.3857 0.43717 0.70007 0.0
C343 C 0.36501 0.41655 0.65725 0.0
H344 H 0.70813 0.66405 0.54238 0.0
H345 H 0.5846 0.67633 0.59381 0.0
H346 H 0.54824 0.64161 0.51802 0.0
H347 H 0.55238 0.60142 0.4434 0.0
H348 H 0.67478 0.58992 0.38926 0.0
H349 H 0.7107 0.63098 0.45912 0.0
C350 C 0.67315 0.65998 0.53604 0.0
C351 C 0.6492 0.6721 0.57427 0.0
C352 C 0.65234 0.63961 0.49238 0.0
C353 C 0.60385 0.66657 0.56559 0.0
C354 C 0.58302 0.64668 0.52231 0.0
C355 C 0.58688 0.60816 0.44679 0.0
C356 C 0.6111 0.59212 0.41212 0.0
C357 C 0.6071 0.63187 0.48666 0.0
C358 C 0.65557 0.60179 0.41585 0.0
C359 C 0.67609 0.62515 0.45584 0.0
H360 H 0.90061 0.14684 0.02447 0.0
H361 H 0.7629 0.16001 0.95444 0.0
H362 H 0.77624 0.14331 0.86524 0.0
H363 H 0.82702 0.12795 0.80548 0.0
H364 H 0.96448 0.11452 0.87526 0.0
H365 H 0.95066 0.12529 0.96776 0.0
C366 C 0.87323 0.14524 0.99038 0.0
C367 C 0.83071 0.15516 0.99657 0.0
C368 C 0.88098 0.13478 0.93939 0.0
C369 C 0.79606 0.15363 0.95087 0.0
C370 C 0.80358 0.14355 0.89992 0.0
C371 C 0.85398 0.12708 0.84106 0.0
C372 C 0.89682 0.12097 0.83306 0.0
C373 C 0.84593 0.13458 0.89347 0.0
C374 C 0.9312 0.11892 0.88012 0.0
C375 C 0.92335 0.12567 0.93283 0.0
H376 H 0.34148 0.3997 0.29959 0.0
H377 H 0.44702 0.30863 0.38362 0.0
H378 H 0.49059 0.34291 0.31073 0.0
H379 H 0.50081 0.40235 0.22641 0.0
H380 H 0.3957 0.49457 0.14378 0.0
H381 H 0.35014 0.45661 0.21175 0.0
C382 C 0.37339 0.38646 0.30058 0.0
C383 C 0.39051 0.35083 0.34611 0.0
C384 C 0.3988 0.40721 0.25916 0.0
C385 C 0.43266 0.33516 0.34812 0.0
C386 C 0.45783 0.3552 0.30687 0.0
C387 C 0.46795 0.41411 0.22344 0.0
C388 C 0.45174 0.45124 0.17981 0.0
C389 C 0.44169 0.39191 0.26289 0.0
C390 C 0.40897 0.46588 0.17649 0.0
C391 C 0.38281 0.44416 0.21549 0.0
H392 H 0.20919 0.88887 0.86573 0.0
H393 H 0.1055 0.90894 0.95475 0.0
H394 H 0.06198 0.9461 0.8639 0.0
H395 H 0.0509 0.97117 0.75759 0.0
H396 H 0.1496 0.94352 0.6673 0.0
H397 H 0.19612 0.90939 0.75907 0.0
C398 C 0.17691 0.90063 0.86571 0.0
C399 C 0.16192 0.89663 0.91855 0.0
C400 C 0.15039 0.92015 0.81234 0.0
C401 C 0.11966 0.91284 0.91616 0.0
C402 C 0.09398 0.93369 0.86365 0.0
C403 C 0.08266 0.95765 0.75829 0.0
C404 C 0.09682 0.95939 0.70582 0.0
C405 C 0.10888 0.93748 0.81144 0.0
C406 C 0.13778 0.94168 0.70701 0.0
C407 C 0.16452 0.92252 0.75966 0.0
loop_
_geom_bond_atom_site_label_1
_geom_bond_atom_site_label_2
_geom_bond_distance
_geom_bond_site_symmetry_2
_ccdc_geom_bond_type
H0 C5 0.930 . S
H1 C8 0.930 . S
H2 C10 0.930 . S
H3 C4 1.016 . S
C4 H3 1.016 . S
C4 N11 1.286 . S
C5 H0 0.930 . S
C5 C6 1.397 . S
C5 C7 1.361 1_556 S
C6 C5 1.397 . S
C6 C10 1.390 1_556 S
C7 C5 1.361 1_554 S
C7 C8 1.393 . S
C7 N11 1.413 . S
C8 H1 0.930 . S
C8 C7 1.393 . S
C8 C9 1.399 . S
C9 C8 1.399 . S
C9 C10 1.381 . S
C10 H2 0.930 . S
C10 C6 1.390 1_554 S
C10 C9 1.381 . S
N11 C4 1.286 . S
N11 C7 1.413 . S
H12 C17 0.930 . S
H13 C20 0.930 . S
H14 C22 0.930 . S
H15 C16 1.016 . S
C16 H15 1.016 . S
C16 N23 1.286 . S
C17 H12 0.930 . S
C17 C18 1.397 . S
C17 C19 1.361 . S
C18 C17 1.397 . S
C18 C22 1.390 . S
C19 C17 1.361 . S
C19 C20 1.393 . S
C19 N23 1.413 . S
C20 H13 0.930 . S
C20 C19 1.393 . S
C20 C21 1.399 . S
C21 C20 1.399 . S
C21 C22 1.381 . S
C22 H14 0.930 . S
C22 C18 1.390 . S
C22 C21 1.381 . S
N23 C16 1.286 . S
N23 C19 1.413 . S
H24 C29 0.930 1_556 S
H25 C32 0.930 . S
H26 C34 0.930 . S
H27 C28 1.016 . S
C28 H27 1.016 . S
C28 N35 1.286 . S
C29 H24 0.930 1_554 S
C29 C30 1.397 . S
C29 C31 1.361 . S
C30 C29 1.397 . S
C30 C34 1.390 . S
C31 C29 1.361 . S
C31 C32 1.393 . S
C31 N35 1.413 . S
C32 H25 0.930 . S
C32 C31 1.393 . S
C32 C33 1.399 . S
C33 C32 1.399 . S
C33 C34 1.381 . S
C34 H26 0.930 . S
C34 C30 1.390 . S
C34 C33 1.381 . S
N35 C28 1.286 . S
N35 C31 1.413 . S
H36 C41 0.930 . S
H37 C44 0.930 . S
H38 C46 0.930 . S
H39 C40 1.016 . S
C40 H39 1.016 . S
C40 N47 1.286 . S
C41 H36 0.930 . S
C41 C42 1.397 . S
C41 C43 1.361 . S
C42 C41 1.397 . S
C42 C46 1.390 . S
C43 C41 1.361 . S
C43 C44 1.393 . S
C43 N47 1.413 . S
C44 H37 0.930 . S
C44 C43 1.393 . S
C44 C45 1.399 . S
C45 C44 1.399 . S
C45 C46 1.381 . S
C46 H38 0.930 . S
C46 C42 1.390 . S
C46 C45 1.381 . S
N47 C40 1.286 . S
N47 C43 1.413 . S
Tb48 N77 2.617 . S
Tb48 N83 2.572 . S
Tb48 O92 2.465 . S
Tb48 O93 2.387 . S
Tb48 O95 2.428 . S
Tb48 O96 2.308 1_565 S
Tb48 O100 2.349 1_465 S
Tb48 O103 2.393 1_455 S
Tb48 C112 2.802 . S
C49 N50 1.379 . S
C49 C52 1.416 . S
C49 C56 1.424 . S
N50 C49 1.379 . S
N50 C53 1.334 1_655 S
N50 Tb59 2.617 . S
C51 C53 1.390 . S
C51 C54 1.339 1_455 S
C51 H71 0.930 . S
C52 C49 1.416 . S
C52 C54 1.416 . S
C52 C58 1.448 . S
C53 N50 1.334 1_455 S
C53 C51 1.390 . S
C53 H64 0.930 . S
C54 C51 1.339 1_655 S
C54 C52 1.416 . S
C54 H75 0.930 . S
C55 C56 1.413 . S
C55 C57 1.427 . S
C55 C61 1.416 . S
C56 C49 1.424 . S
C56 C55 1.413 . S
C56 N60 1.361 . S
C57 C55 1.427 . S
C57 C58 1.328 . S
C57 H72 0.929 . S
C58 C52 1.448 . S
C58 C57 1.328 . S
C58 H73 0.930 . S
Tb59 N50 2.617 . S
Tb59 N60 2.572 . S
Tb59 O94 2.349 1_655 S
Tb59 O97 2.393 1_655 S
Tb59 O98 2.465 . S
Tb59 O99 2.387 . S
Tb59 O101 2.428 . S
Tb59 O102 2.308 1_545 S
Tb59 C123 2.802 . S
N60 C56 1.361 . S
N60 Tb59 2.572 . S
N60 C62 1.340 . S
C61 C55 1.416 . S
C61 C63 1.332 . S
C61 H69 0.931 . S
C62 N60 1.340 . S
C62 C63 1.407 . S
C62 H68 0.930 . S
C63 C61 1.332 . S
C63 C62 1.407 . S
C63 H65 0.929 . S
H64 C53 0.930 . S
H65 C63 0.929 . S
H66 C81 0.930 1_655 S
H67 C88 0.929 . S
H68 C62 0.930 . S
H69 C61 0.931 . S
H70 C84 0.930 . S
H71 C51 0.930 . S
H72 C57 0.929 . S
H73 C58 0.930 . S
H74 C79 0.930 1_655 S
H75 C54 0.930 . S
H76 C87 0.931 . S
N77 Tb48 2.617 . S
N77 C78 1.379 . S
N77 C81 1.334 . S
C78 N77 1.379 . S
C78 C80 1.416 . S
C78 C86 1.424 . S
C79 H74 0.930 1_455 S
C79 C81 1.390 . S
C79 C82 1.339 . S
C80 C78 1.416 . S
C80 C82 1.416 . S
C80 C113 1.448 . S
C81 H66 0.930 1_455 S
C81 N77 1.334 . S
C81 C79 1.390 . S
C82 C79 1.339 . S
C82 C80 1.416 . S
C82 H89 0.930 . S
N83 Tb48 2.572 . S
N83 C84 1.340 . S
N83 C86 1.361 . S
C84 H70 0.930 . S
C84 N83 1.340 . S
C84 C88 1.407 . S
C85 C86 1.413 . S
C85 C87 1.416 . S
C85 C114 1.427 . S
C86 C78 1.424 . S
C86 N83 1.361 . S
C86 C85 1.413 . S
C87 H76 0.931 . S
C87 C85 1.416 . S
C87 C88 1.332 . S
C88 H67 0.929 . S
C88 C84 1.407 . S
C88 C87 1.332 . S
H89 C82 0.930 . S
H90 C113 0.930 . S
H91 C114 0.929 . S
O92 Tb48 2.465 . S
O92 C112 1.264 . S
O93 Tb48 2.387 . S
O93 C104 1.264 . S
O94 Tb59 2.349 1_455 S
O94 C104 1.243 1_545 S
O95 Tb48 2.428 . S
O95 C112 1.256 . S
O96 Tb48 2.308 1_545 S
O96 C111 1.266 . S
O97 Tb59 2.393 1_455 S
O97 C111 1.248 . S
O98 Tb59 2.465 . S
O98 C123 1.264 . S
O99 Tb59 2.387 . S
O99 C115 1.264 . S
O100 Tb48 2.349 1_645 S
O100 C115 1.243 . S
O101 Tb59 2.428 . S
O101 C123 1.256 . S
O102 Tb59 2.308 1_565 S
O102 C122 1.266 . S
O103 Tb48 2.393 1_655 S
O103 C122 1.248 . S
C104 O93 1.264 . S
C104 O94 1.243 1_565 S
C105 C108 1.399 . S
C105 C110 1.383 . S
C105 C112 1.496 . S
C106 C107 1.399 . S
C106 C110 1.389 . S
C107 C106 1.399 . S
C107 C109 1.380 . S
C107 H124 0.929 . S
C108 C105 1.399 . S
C108 C109 1.392 . S
C108 H125 0.929 . S
C109 C107 1.380 . S
C109 C108 1.392 . S
C109 H126 0.929 . S
C110 C105 1.383 . S
C110 C106 1.389 . S
C110 H127 0.931 . S
C111 O96 1.266 . S
C111 O97 1.248 . S
C112 Tb48 2.802 . S
C112 O92 1.264 . S
C112 O95 1.256 . S
C112 C105 1.496 . S
C113 C80 1.448 . S
C113 H90 0.930 . S
C113 C114 1.328 . S
C114 C85 1.427 . S
C114 H91 0.929 . S
C114 C113 1.328 . S
C115 O99 1.264 . S
C115 O100 1.243 . S
C116 C119 1.399 . S
C116 C120 1.383 . S
C116 C123 1.496 . S
C117 C118 1.399 . S
C117 C120 1.389 . S
C118 C117 1.399 . S
C118 C121 1.380 . S
C118 H128 0.929 . S
C119 C116 1.399 . S
C119 C121 1.392 . S
C119 H129 0.929 . S
C120 C116 1.383 . S
C120 C117 1.389 . S
C120 H130 0.931 . S
C121 C118 1.380 . S
C121 C119 1.392 . S
C121 H131 0.929 . S
C122 O102 1.266 . S
C122 O103 1.248 . S
C123 Tb59 2.802 . S
C123 O98 1.264 . S
C123 O101 1.256 . S
C123 C116 1.496 . S
H124 C107 0.929 . S
H125 C108 0.929 . S
H126 C109 0.929 . S
H127 C110 0.931 . S
H128 C118 0.929 . S
H129 C119 0.929 . S
H130 C120 0.931 . S
H131 C121 0.929 . S
Tb132 N161 2.617 . S
Tb132 N167 2.572 . S
Tb132 O176 2.465 1_554 S
Tb132 O177 2.387 . S
Tb132 O179 2.428 1_554 S
Tb132 O180 2.308 . S
Tb132 O184 2.349 1_554 S
Tb132 O187 2.393 . S
Tb132 C196 2.802 1_554 S
C133 N134 1.379 . S
C133 C136 1.416 . S
C133 C140 1.424 . S
N134 C133 1.379 . S
N134 C137 1.334 . S
N134 Tb143 2.617 . S
C135 C137 1.390 . S
C135 C138 1.339 . S
C135 H155 0.930 . S
C136 C133 1.416 . S
C136 C138 1.416 . S
C136 C142 1.448 . S
C137 N134 1.334 . S
C137 C135 1.390 . S
C137 H148 0.930 . S
C138 C135 1.339 . S
C138 C136 1.416 . S
C138 H159 0.930 . S
C139 C140 1.413 . S
C139 C141 1.427 . S
C139 C145 1.416 . S
C140 C133 1.424 . S
C140 C139 1.413 . S
C140 N144 1.361 . S
C141 C139 1.427 . S
C141 C142 1.328 . S
C141 H156 0.929 . S
C142 C136 1.448 . S
C142 C141 1.328 . S
C142 H157 0.930 . S
Tb143 N134 2.617 . S
Tb143 N144 2.572 . S
Tb143 O178 2.349 . S
Tb143 O181 2.393 . S
Tb143 O182 2.465 . S
Tb143 O183 2.387 . S
Tb143 O185 2.428 . S
Tb143 O186 2.308 . S
Tb143 C207 2.802 . S
N144 C140 1.361 . S
N144 Tb143 2.572 . S
N144 C146 1.340 . S
C145 C139 1.416 . S
C145 C147 1.332 . S
C145 H153 0.931 . S
C146 N144 1.340 . S
C146 C147 1.407 . S
C146 H152 0.930 . S
C147 C145 1.332 . S
C147 C146 1.407 . S
C147 H149 0.929 . S
H148 C137 0.930 . S
H149 C147 0.929 . S
H150 C165 0.930 . S
H151 C172 0.929 . S
H152 C146 0.930 . S
H153 C145 0.931 . S
H154 C168 0.930 . S
H155 C135 0.930 . S
H156 C141 0.929 . S
H157 C142 0.930 . S
H158 C163 0.930 . S
H159 C138 0.930 . S
H160 C171 0.931 . S
N161 Tb132 2.617 . S
N161 C162 1.379 . S
N161 C165 1.334 1_554 S
C162 N161 1.379 . S
C162 C164 1.416 . S
C162 C170 1.424 . S
C163 H158 0.930 . S
C163 C165 1.390 . S
C163 C166 1.339 1_556 S
C164 C162 1.416 . S
C164 C166 1.416 . S
C164 C197 1.448 . S
C165 H150 0.930 . S
C165 N161 1.334 1_556 S
C165 C163 1.390 . S
C166 C163 1.339 1_554 S
C166 C164 1.416 . S
C166 H173 0.930 . S
N167 Tb132 2.572 . S
N167 C168 1.340 . S
N167 C170 1.361 . S
C168 H154 0.930 . S
C168 N167 1.340 . S
C168 C172 1.407 . S
C169 C170 1.413 . S
C169 C171 1.416 . S
C169 C198 1.427 . S
C170 C162 1.424 . S
C170 N167 1.361 . S
C170 C169 1.413 . S
C171 H160 0.931 . S
C171 C169 1.416 . S
C171 C172 1.332 . S
C172 H151 0.929 . S
C172 C168 1.407 . S
C172 C171 1.332 . S
H173 C166 0.930 . S
H174 C197 0.930 . S
H175 C198 0.929 . S
O176 Tb132 2.465 1_556 S
O176 C196 1.264 . S
O177 Tb132 2.387 . S
O177 C188 1.264 . S
O178 Tb143 2.349 . S
O178 C188 1.243 . S
O179 Tb132 2.428 1_556 S
O179 C196 1.256 . S
O180 Tb132 2.308 . S
O180 C195 1.266 . S
O181 Tb143 2.393 . S
O181 C195 1.248 . S
O182 Tb143 2.465 . S
O182 C207 1.264 . S
O183 Tb143 2.387 . S
O183 C199 1.264 1_554 S
O184 Tb132 2.349 1_556 S
O184 C199 1.243 . S
O185 Tb143 2.428 . S
O185 C207 1.256 . S
O186 Tb143 2.308 . S
O186 C206 1.266 . S
O187 Tb132 2.393 . S
O187 C206 1.248 . S
C188 O177 1.264 . S
C188 O178 1.243 . S
C189 C192 1.399 . S
C189 C194 1.383 . S
C189 C196 1.496 . S
C190 C191 1.399 . S
C190 C194 1.389 . S
C191 C190 1.399 . S
C191 C193 1.380 . S
C191 H208 0.929 . S
C192 C189 1.399 . S
C192 C193 1.392 . S
C192 H209 0.929 . S
C193 C191 1.380 . S
C193 C192 1.392 . S
C193 H210 0.929 . S
C194 C189 1.383 . S
C194 C190 1.389 . S
C194 H211 0.931 . S
C195 O180 1.266 . S
C195 O181 1.248 . S
C196 Tb132 2.802 1_556 S
C196 O176 1.264 . S
C196 O179 1.256 . S
C196 C189 1.496 . S
C197 C164 1.448 . S
C197 H174 0.930 . S
C197 C198 1.328 . S
C198 C169 1.427 . S
C198 H175 0.929 . S
C198 C197 1.328 . S
C199 O183 1.264 1_556 S
C199 O184 1.243 . S
C200 C203 1.399 . S
C200 C204 1.383 . S
C200 C207 1.496 . S
C201 C202 1.399 . S
C201 C204 1.389 . S
C202 C201 1.399 . S
C202 C205 1.380 . S
C202 H212 0.929 . S
C203 C200 1.399 . S
C203 C205 1.392 . S
C203 H213 0.929 . S
C204 C200 1.383 . S
C204 C201 1.389 . S
C204 H214 0.931 . S
C205 C202 1.380 . S
C205 C203 1.392 . S
C205 H215 0.929 . S
C206 O186 1.266 . S
C206 O187 1.248 . S
C207 Tb143 2.802 . S
C207 O182 1.264 . S
C207 O185 1.256 . S
C207 C200 1.496 . S
H208 C191 0.929 . S
H209 C192 0.929 . S
H210 C193 0.929 . S
H211 C194 0.931 . S
H212 C202 0.929 . S
H213 C203 0.929 . S
H214 C204 0.931 . S
H215 C205 0.929 . S
H216 C222 0.930 . S
H217 C225 0.930 . S
H218 C226 0.930 . S
H219 C227 0.930 . S
H220 C230 0.930 . S
H221 C231 0.930 . S
C222 H216 0.930 . S
C222 C223 1.355 . S
C222 C224 1.415 . S
C223 C222 1.355 . S
C223 C225 1.419 . S
C224 C222 1.415 . S
C224 C229 1.425 . S
C224 C231 1.409 . S
C225 H217 0.930 . S
C225 C223 1.419 . S
C225 C226 1.362 . S
C226 H218 0.930 . S
C226 C225 1.362 . S
C226 C229 1.409 . S
C227 H219 0.930 . S
C227 C228 1.355 . S
C227 C229 1.415 . S
C228 C227 1.355 . S
C228 C230 1.419 . S
C229 C224 1.425 . S
C229 C226 1.409 . S
C229 C227 1.415 . S
C230 H220 0.930 . S
C230 C228 1.419 . S
C230 C231 1.362 . S
C231 H221 0.930 . S
C231 C224 1.409 . S
C231 C230 1.362 . S
H232 C238 0.930 . S
H233 C241 0.930 . S
H234 C242 0.930 . S
H235 C243 0.930 . S
H236 C246 0.930 . S
H237 C247 0.930 . S
C238 H232 0.930 . S
C238 C239 1.355 . S
C238 C240 1.415 . S
C239 C238 1.355 . S
C239 C241 1.419 . S
C240 C238 1.415 . S
C240 C245 1.425 . S
C240 C247 1.409 . S
C241 H233 0.930 . S
C241 C239 1.419 . S
C241 C242 1.362 . S
C242 H234 0.930 . S
C242 C241 1.362 . S
C242 C245 1.409 . S
C243 H235 0.930 . S
C243 C244 1.355 . S
C243 C245 1.415 . S
C244 C243 1.355 . S
C244 C246 1.419 . S
C245 C240 1.425 . S
C245 C242 1.409 . S
C245 C243 1.415 . S
C246 H236 0.930 . S
C246 C244 1.419 . S
C246 C247 1.362 . S
C247 H237 0.930 . S
C247 C240 1.409 . S
C247 C246 1.362 . S
H248 C254 0.930 . S
H249 C257 0.930 . S
H250 C258 0.930 . S
H251 C259 0.930 . S
H252 C262 0.930 . S
H253 C263 0.930 . S
C254 H248 0.930 . S
C254 C255 1.355 . S
C254 C256 1.415 . S
C255 C254 1.355 . S
C255 C257 1.419 . S
C256 C254 1.415 . S
C256 C261 1.425 . S
C256 C263 1.409 . S
C257 H249 0.930 . S
C257 C255 1.419 . S
C257 C258 1.362 . S
C258 H250 0.930 . S
C258 C257 1.362 . S
C258 C261 1.409 . S
C259 H251 0.930 . S
C259 C260 1.355 . S
C259 C261 1.415 . S
C260 C259 1.355 . S
C260 C262 1.419 . S
C261 C256 1.425 . S
C261 C258 1.409 . S
C261 C259 1.415 . S
C262 H252 0.930 . S
C262 C260 1.419 . S
C262 C263 1.362 . S
C263 H253 0.930 . S
C263 C256 1.409 . S
C263 C262 1.362 . S
H264 C270 0.930 . S
H265 C273 0.930 . S
H266 C274 0.930 . S
H267 C275 0.930 . S
H268 C278 0.930 . S
H269 C279 0.930 . S
C270 H264 0.930 . S
C270 C271 1.355 . S
C270 C272 1.415 . S
C271 C270 1.355 . S
C271 C273 1.419 . S
C272 C270 1.415 . S
C272 C277 1.425 . S
C272 C279 1.409 . S
C273 H265 0.930 . S
C273 C271 1.419 . S
C273 C274 1.362 . S
C274 H266 0.930 . S
C274 C273 1.362 . S
C274 C277 1.409 . S
C275 H267 0.930 . S
C275 C276 1.355 . S
C275 C277 1.415 . S
C276 C275 1.355 . S
C276 C278 1.419 . S
C277 C272 1.425 . S
C277 C274 1.409 . S
C277 C275 1.415 . S
C278 H268 0.930 . S
C278 C276 1.419 . S
C278 C279 1.362 . S
C279 H269 0.930 . S
C279 C272 1.409 . S
C279 C278 1.362 . S
H280 C286 0.930 . S
H281 C289 0.930 . S
H282 C290 0.930 . S
H283 C291 0.930 . S
H284 C294 0.930 1_545 S
H285 C295 0.930 1_545 S
C286 H280 0.930 . S
C286 C287 1.355 . S
C286 C288 1.415 . S
C287 C286 1.355 . S
C287 C289 1.419 . S
C288 C286 1.415 . S
C288 C293 1.425 . S
C288 C295 1.409 . S
C289 H281 0.930 . S
C289 C287 1.419 . S
C289 C290 1.362 . S
C290 H282 0.930 . S
C290 C289 1.362 . S
C290 C293 1.409 . S
C291 H283 0.930 . S
C291 C292 1.355 . S
C291 C293 1.415 . S
C292 C291 1.355 . S
C292 C294 1.419 . S
C293 C288 1.425 . S
C293 C290 1.409 . S
C293 C291 1.415 . S
C294 H284 0.930 1_565 S
C294 C292 1.419 . S
C294 C295 1.362 . S
C295 H285 0.930 1_565 S
C295 C288 1.409 . S
C295 C294 1.362 . S
H296 C302 0.930 . S
H297 C305 0.930 . S
H298 C306 0.930 . S
H299 C307 0.930 . S
H300 C310 0.930 . S
H301 C311 0.930 . S
C302 H296 0.930 . S
C302 C303 1.355 . S
C302 C304 1.415 . S
C303 C302 1.355 . S
C303 C305 1.419 . S
C304 C302 1.415 . S
C304 C309 1.425 . S
C304 C311 1.409 . S
C305 H297 0.930 . S
C305 C303 1.419 . S
C305 C306 1.362 . S
C306 H298 0.930 . S
C306 C305 1.362 . S
C306 C309 1.409 . S
C307 H299 0.930 . S
C307 C308 1.355 . S
C307 C309 1.415 . S
C308 C307 1.355 . S
C308 C310 1.419 . S
C309 C304 1.425 . S
C309 C306 1.409 . S
C309 C307 1.415 . S
C310 H300 0.930 . S
C310 C308 1.419 . S
C310 C311 1.362 . S
C311 H301 0.930 . S
C311 C304 1.409 . S
C311 C310 1.362 . S
H312 C318 0.930 . S
H313 C321 0.930 . S
H314 C322 0.930 . S
H315 C323 0.930 . S
H316 C326 0.930 . S
H317 C327 0.930 . S
C318 H312 0.930 . S
C318 C319 1.355 . S
C318 C320 1.415 . S
C319 C318 1.355 . S
C319 C321 1.419 . S
C320 C318 1.415 . S
C320 C325 1.425 . S
C320 C327 1.409 . S
C321 H313 0.930 . S
C321 C319 1.419 . S
C321 C322 1.362 . S
C322 H314 0.930 . S
C322 C321 1.362 . S
C322 C325 1.409 . S
C323 H315 0.930 . S
C323 C324 1.355 . S
C323 C325 1.415 . S
C324 C323 1.355 . S
C324 C326 1.419 . S
C325 C320 1.425 . S
C325 C322 1.409 . S
C325 C323 1.415 . S
C326 H316 0.930 . S
C326 C324 1.419 . S
C326 C327 1.362 . S
C327 H317 0.930 . S
C327 C320 1.409 . S
C327 C326 1.362 . S
H328 C334 0.930 . S
H329 C337 0.930 . S
H330 C338 0.930 . S
H331 C339 0.930 . S
H332 C342 0.930 . S
H333 C343 0.930 . S
C334 H328 0.930 . S
C334 C335 1.355 . S
C334 C336 1.415 . S
C335 C334 1.355 . S
C335 C337 1.419 . S
C336 C334 1.415 . S
C336 C341 1.425 . S
C336 C343 1.409 . S
C337 H329 0.930 . S
C337 C335 1.419 . S
C337 C338 1.362 . S
C338 H330 0.930 . S
C338 C337 1.362 . S
C338 C341 1.409 . S
C339 H331 0.930 . S
C339 C340 1.355 . S
C339 C341 1.415 . S
C340 C339 1.355 . S
C340 C342 1.419 . S
C341 C336 1.425 . S
C341 C338 1.409 . S
C341 C339 1.415 . S
C342 H332 0.930 . S
C342 C340 1.419 . S
C342 C343 1.362 . S
C343 H333 0.930 . S
C343 C336 1.409 . S
C343 C342 1.362 . S
H344 C350 0.930 . S
H345 C353 0.930 . S
H346 C354 0.930 . S
H347 C355 0.930 . S
H348 C358 0.930 . S
H349 C359 0.930 . S
C350 H344 0.930 . S
C350 C351 1.355 . S
C350 C352 1.415 . S
C351 C350 1.355 . S
C351 C353 1.419 . S
C352 C350 1.415 . S
C352 C357 1.425 . S
C352 C359 1.409 . S
C353 H345 0.930 . S
C353 C351 1.419 . S
C353 C354 1.362 . S
C354 H346 0.930 . S
C354 C353 1.362 . S
C354 C357 1.409 . S
C355 H347 0.930 . S
C355 C356 1.355 . S
C355 C357 1.415 . S
C356 C355 1.355 . S
C356 C358 1.419 . S
C357 C352 1.425 . S
C357 C354 1.409 . S
C357 C355 1.415 . S
C358 H348 0.930 . S
C358 C356 1.419 . S
C358 C359 1.362 . S
C359 H349 0.930 . S
C359 C352 1.409 . S
C359 C358 1.362 . S
H360 C366 0.930 . S
H361 C369 0.930 . S
H362 C370 0.930 . S
H363 C371 0.930 . S
H364 C374 0.930 . S
H365 C375 0.930 . S
C366 H360 0.930 . S
C366 C367 1.355 . S
C366 C368 1.415 . S
C367 C366 1.355 . S
C367 C369 1.419 . S
C368 C366 1.415 . S
C368 C373 1.425 . S
C368 C375 1.409 . S
C369 H361 0.930 . S
C369 C367 1.419 . S
C369 C370 1.362 . S
C370 H362 0.930 . S
C370 C369 1.362 . S
C370 C373 1.409 . S
C371 H363 0.930 . S
C371 C372 1.355 . S
C371 C373 1.415 . S
C372 C371 1.355 . S
C372 C374 1.419 . S
C373 C368 1.425 . S
C373 C370 1.409 . S
C373 C371 1.415 . S
C374 H364 0.930 . S
C374 C372 1.419 . S
C374 C375 1.362 . S
C375 H365 0.930 . S
C375 C368 1.409 . S
C375 C374 1.362 . S
H376 C382 0.930 . S
H377 C385 0.930 . S
H378 C386 0.930 . S
H379 C387 0.930 . S
H380 C390 0.930 . S
H381 C391 0.930 . S
C382 H376 0.930 . S
C382 C383 1.355 . S
C382 C384 1.415 . S
C383 C382 1.355 . S
C383 C385 1.419 . S
C384 C382 1.415 . S
C384 C389 1.425 . S
C384 C391 1.409 . S
C385 H377 0.930 . S
C385 C383 1.419 . S
C385 C386 1.362 . S
C386 H378 0.930 . S
C386 C385 1.362 . S
C386 C389 1.409 . S
C387 H379 0.930 . S
C387 C388 1.355 . S
C387 C389 1.415 . S
C388 C387 1.355 . S
C388 C390 1.419 . S
C389 C384 1.425 . S
C389 C386 1.409 . S
C389 C387 1.415 . S
C390 H380 0.930 . S
C390 C388 1.419 . S
C390 C391 1.362 . S
C391 H381 0.930 . S
C391 C384 1.409 . S
C391 C390 1.362 . S
H392 C398 0.930 . S
H393 C401 0.930 . S
H394 C402 0.930 . S
H395 C403 0.930 . S
H396 C406 0.930 . S
H397 C407 0.930 . S
C398 H392 0.930 . S
C398 C399 1.355 . S
C398 C400 1.415 . S
C399 C398 1.355 . S
C399 C401 1.419 . S
C400 C398 1.415 . S
C400 C405 1.425 . S
C400 C407 1.409 . S
C401 H393 0.930 . S
C401 C399 1.419 . S
C401 C402 1.362 . S
C402 H394 0.930 . S
C402 C401 1.362 . S
C402 C405 1.409 . S
C403 H395 0.930 . S
C403 C404 1.355 . S
C403 C405 1.415 . S
C404 C403 1.355 . S
C404 C406 1.419 . S
C405 C400 1.425 . S
C405 C402 1.409 . S
C405 C403 1.415 . S
C406 H396 0.930 . S
C406 C404 1.419 . S
C406 C407 1.362 . S
C407 H397 0.930 . S
C407 C400 1.409 . S
C407 C406 1.362 . S
C228 C111 1.642 . S
C223 C40 1.633 . S
C239 C4 1.637 . S
C244 C206 1.639 . S
C255 C16 1.617 . S
C260 C122 1.665 . S
C271 C28 1.614 . S
C276 C195 1.614 . S
C292 C106 1.459 . S
C287 C9 1.606 . S
C308 C199 1.694 . S
C303 C18 1.680 . S
C319 C33 1.607 . S
C324 C115 1.641 . S
C335 C45 1.596 . S
C340 C190 1.370 . S
C356 C201 1.336 . S
C351 C21 1.557 . S
C372 C117 1.327 . S
C367 C30 1.563 1_556 S
C388 C188 1.620 . S
C383 C42 1.630 . S
C399 C6 1.578 . S
C404 C104 1.587 . S
