# Generated by pormake.
# Topology pyr, (3,6)-cn, num edge types: 1
# Building blocks:
#     Node 0, Type 0, BuildingBlock: QEWDON_clean_linker_0, # of connection points: 3
#     Node 1, Type 0, BuildingBlock: QEWDON_clean_linker_0, # of connection points: 3
#     Node 2, Type 0, BuildingBlock: QEWDON_clean_linker_0, # of connection points: 3
#     Node 3, Type 0, BuildingBlock: QEWDON_clean_linker_0, # of connection points: 3
#     Node 4, Type 0, BuildingBlock: QEWDON_clean_linker_0, # of connection points: 3
#     Node 5, Type 0, BuildingBlock: QEWDON_clean_linker_0, # of connection points: 3
#     Node 6, Type 0, BuildingBlock: QEWDON_clean_linker_0, # of connection points: 3
#     Node 7, Type 0, BuildingBlock: QEWDON_clean_linker_0, # of connection points: 3
#     Node 8, Type 1, BuildingBlock: INOVEN_clean_sbu_0, # of connection points: 6
#     Node 9, Type 1, BuildingBlock: INOVEN_clean_sbu_0, # of connection points: 6
#     Node 10, Type 1, BuildingBlock: INOVEN_clean_sbu_0, # of connection points: 6
#     Node 11, Type 1, BuildingBlock: INOVEN_clean_sbu_0, # of connection points: 6
#     Edge 12, Type (0, 1), BuildingBlock: AJUNOK_clean_linker_0, # of connection points: 2
#     Edge 13, Type (0, 1), BuildingBlock: AJUNOK_clean_linker_0, # of connection points: 2
#     Edge 14, Type (0, 1), BuildingBlock: AJUNOK_clean_linker_0, # of connection points: 2
#     Edge 15, Type (0, 1), BuildingBlock: AJUNOK_clean_linker_0, # of connection points: 2
#     Edge 16, Type (0, 1), BuildingBlock: AJUNOK_clean_linker_0, # of connection points: 2
#     Edge 17, Type (0, 1), BuildingBlock: AJUNOK_clean_linker_0, # of connection points: 2
#     Edge 18, Type (0, 1), BuildingBlock: AJUNOK_clean_linker_0, # of connection points: 2
#     Edge 19, Type (0, 1), BuildingBlock: AJUNOK_clean_linker_0, # of connection points: 2
#     Edge 20, Type (0, 1), BuildingBlock: AJUNOK_clean_linker_0, # of connection points: 2
#     Edge 21, Type (0, 1), BuildingBlock: AJUNOK_clean_linker_0, # of connection points: 2
#     Edge 22, Type (0, 1), BuildingBlock: AJUNOK_clean_linker_0, # of connection points: 2
#     Edge 23, Type (0, 1), BuildingBlock: AJUNOK_clean_linker_0, # of connection points: 2
#     Edge 24, Type (0, 1), BuildingBlock: AJUNOK_clean_linker_0, # of connection points: 2
#     Edge 25, Type (0, 1), BuildingBlock: AJUNOK_clean_linker_0, # of connection points: 2
#     Edge 26, Type (0, 1), BuildingBlock: AJUNOK_clean_linker_0, # of connection points: 2
#     Edge 27, Type (0, 1), BuildingBlock: AJUNOK_clean_linker_0, # of connection points: 2
#     Edge 28, Type (0, 1), BuildingBlock: AJUNOK_clean_linker_0, # of connection points: 2
#     Edge 29, Type (0, 1), BuildingBlock: AJUNOK_clean_linker_0, # of connection points: 2
#     Edge 30, Type (0, 1), BuildingBlock: AJUNOK_clean_linker_0, # of connection points: 2
#     Edge 31, Type (0, 1), BuildingBlock: AJUNOK_clean_linker_0, # of connection points: 2
#     Edge 32, Type (0, 1), BuildingBlock: AJUNOK_clean_linker_0, # of connection points: 2
#     Edge 33, Type (0, 1), BuildingBlock: AJUNOK_clean_linker_0, # of connection points: 2
#     Edge 34, Type (0, 1), BuildingBlock: AJUNOK_clean_linker_0, # of connection points: 2
#     Edge 35, Type (0, 1), BuildingBlock: AJUNOK_clean_linker_0, # of connection points: 2
# Relax obj value: 0.216
# Max RMSD: 0.263
# Mean RMSD: 0.197
data_MOF--net-pyr--node1-INOVEN_clean_sbu_0--node2-QEWDON_clean_linker_0--edge1-AJUNOK_clean_linker_0
_symmetry_space_group_name_H-M    P1
_symmetry_Int_Tables_number       1
_symmetry_cell_setting            triclinic
loop_
_symmetry_equiv_pos_as_xyz
'x, y, z'
_cell_length_a     28.584396
_cell_length_b     30.542705
_cell_length_c     28.823905
_cell_angle_alpha  91.661157
_cell_angle_beta   89.245914
_cell_angle_gamma 112.27214
loop_
_atom_site_label
_atom_site_type_symbol
_atom_site_fract_x
_atom_site_fract_y
_atom_site_fract_z
_atom_type_partial_charge
H0 H 0.51274 0.39353 0.22343 0.0
C1 C 0.48906 0.38727 0.25416 0.0
C2 C 0.48044 0.34648 0.27992 0.0
C3 C 0.46262 0.41693 0.26509 0.0
H4 H 0.43814 0.30378 0.3358 0.0
C5 C 0.44672 0.33643 0.31741 0.0
C6 C 0.41957 0.3651 0.32791 0.0
C7 C 0.429 0.40613 0.30295 0.0
C8 C 0.46415 0.45518 0.23372 0.0
H9 H 0.40706 0.42765 0.31075 0.0
C10 C 0.41874 0.45947 0.22085 0.0
C11 C 0.4191 0.49664 0.19322 0.0
C12 C 0.51016 0.48779 0.21705 0.0
H13 H 0.54563 0.48523 0.22627 0.0
C14 C 0.5107 0.52486 0.18931 0.0
H15 H 0.38284 0.43415 0.23286 0.0
C16 C 0.46548 0.52965 0.17785 0.0
H17 H 0.46663 0.55885 0.15679 0.0
H18 H 0.54634 0.55024 0.17705 0.0
H19 H 0.15883 0.90987 0.80389 0.0
C20 C 0.18292 0.89055 0.79551 0.0
C21 C 0.21882 0.88967 0.82778 0.0
C22 C 0.17973 0.86854 0.75157 0.0
H23 H 0.28209 0.86913 0.8389 0.0
C24 C 0.25193 0.86718 0.81546 0.0
C25 C 0.24946 0.84576 0.77153 0.0
C26 C 0.2125 0.84537 0.73998 0.0
C27 C 0.14787 0.87606 0.7154 0.0
H28 H 0.21198 0.83054 0.70525 0.0
C29 C 0.15687 0.92231 0.70179 0.0
C30 C 0.12984 0.93026 0.66491 0.0
C31 C 0.11096 0.83756 0.69247 0.0
H32 H 0.10392 0.80166 0.70236 0.0
C33 C 0.08279 0.84535 0.65666 0.0
H34 H 0.18636 0.952 0.71872 0.0
C35 C 0.09215 0.89141 0.64283 0.0
H36 H 0.06999 0.8967 0.6149 0.0
H37 H 0.05396 0.81562 0.6393 0.0
H38 H 0.75036 0.52357 0.95346 0.0
C39 C 0.73329 0.48685 0.96319 0.0
C40 C 0.76005 0.4677 0.99218 0.0
C41 C 0.68337 0.45943 0.9488 0.0
H42 H 0.75524 0.40586 1.0295 0.0
C43 C 0.73581 0.42055 1.00637 0.0
C44 C 0.68612 0.39248 0.99282 0.0
C45 C 0.66066 0.41211 0.96338 0.0
C46 C 0.65069 0.48199 0.92745 0.0
H47 H 0.62175 0.39142 0.95396 0.0
C48 C 0.66009 0.50388 0.88342 0.0
C49 C 0.62642 0.52389 0.86586 0.0
C50 C 0.608 0.48092 0.95293 0.0
H51 H 0.59997 0.46484 0.98665 0.0
C52 C 0.57536 0.50068 0.9358 0.0
H53 H 0.69269 0.50506 0.86314 0.0
C54 C 0.58441 0.52191 0.89281 0.0
H55 H 0.55814 0.53678 0.88029 0.0
H56 H 0.54274 0.4995 0.95601 0.0
H57 H 0.94533 0.86481 0.42475 0.0
C58 C 0.91516 0.8411 0.44581 0.0
C59 C 0.90497 0.85702 0.48988 0.0
C60 C 0.88373 0.79639 0.42707 0.0
H61 H 0.85554 0.83957 0.54917 0.0
C62 C 0.86392 0.82697 0.51576 0.0
C63 C 0.83202 0.7822 0.49831 0.0
C64 C 0.84206 0.7674 0.45362 0.0
C65 C 0.88587 0.78598 0.37613 0.0
H66 H 0.81631 0.73417 0.43866 0.0
C67 C 0.91452 0.76086 0.356 0.0
C68 C 0.91434 0.75265 0.30688 0.0
C69 C 0.85743 0.80229 0.34696 0.0
H70 H 0.83526 0.82143 0.36136 0.0
C71 C 0.85695 0.7942 0.29919 0.0
H72 H 0.93694 0.74844 0.37817 0.0
C73 C 0.88488 0.7697 0.27938 0.0
H74 H 0.88276 0.76349 0.24213 0.0
H75 H 0.83453 0.80687 0.27728 0.0
H76 H 0.67007 0.79747 1.01156 0.0
C77 C 0.68339 0.80943 0.97702 0.0
C78 C 0.72708 0.80428 0.95962 0.0
C79 C 0.65889 0.83278 0.951 0.0
H80 H 0.78104 0.81982 0.90408 0.0
C81 C 0.74555 0.82152 0.91596 0.0
C82 C 0.72243 0.84587 0.89014 0.0
C83 C 0.67892 0.85133 0.90775 0.0
C84 C 0.615 0.84128 0.97083 0.0
H85 H 0.66156 0.87111 0.88843 0.0
C86 C 0.61533 0.88746 0.97395 0.0
C87 C 0.57522 0.89624 0.99558 0.0
C88 C 0.57348 0.80358 0.98826 0.0
H89 H 0.57249 0.76776 0.98615 0.0
C90 C 0.53279 0.81183 1.00832 0.0
H91 H 0.64739 0.91665 0.96057 0.0
C92 C 0.53364 0.8578 1.01218 0.0
H93 H 0.50235 0.86343 1.02932 0.0
H94 H 0.50084 0.78259 1.02164 0.0
H95 H 0.86184 0.25888 0.61788 0.0
C96 C 0.85514 0.26158 0.58137 0.0
C97 C 0.88615 0.25159 0.54814 0.0
C98 C 0.81347 0.27155 0.56803 0.0
H99 H 0.89876 0.24308 0.47516 0.0
C100 C 0.87635 0.25321 0.50075 0.0
C101 C 0.83552 0.26446 0.48655 0.0
C102 C 0.80456 0.2739 0.52047 0.0
C103 C 0.77678 0.27533 0.6034 0.0
H104 H 0.7719 0.28074 0.50957 0.0
C105 C 0.7516 0.30607 0.59681 0.0
C106 C 0.7129 0.30632 0.62701 0.0
C107 C 0.76445 0.24643 0.64255 0.0
H108 H 0.78217 0.22142 0.6484 0.0
C109 C 0.72768 0.24841 0.67405 0.0
H110 H 0.76171 0.32971 0.5678 0.0
C111 C 0.70171 0.27806 0.66626 0.0
H112 H 0.67221 0.27814 0.69021 0.0
H113 H 0.71845 0.22605 0.70397 0.0
H114 H 0.47288 0.88027 0.29683 0.0
C115 C 0.43505 0.8608 0.28382 0.0
C116 C 0.41242 0.88285 0.25362 0.0
C117 C 0.41035 0.81282 0.29529 0.0
H118 H 0.34841 0.87052 0.20869 0.0
C119 C 0.36471 0.85532 0.23437 0.0
C120 C 0.33935 0.80729 0.24523 0.0
C121 C 0.36212 0.78697 0.27673 0.0
C122 C 0.43972 0.78597 0.31404 0.0
H123 H 0.34363 0.74994 0.28498 0.0
C124 C 0.44589 0.78021 0.36214 0.0
C125 C 0.47328 0.75245 0.37636 0.0
C126 C 0.46044 0.76363 0.28117 0.0
H127 H 0.4559 0.76722 0.24436 0.0
C128 C 0.48657 0.73606 0.29499 0.0
H129 H 0.43009 0.79727 0.38787 0.0
C130 C 0.49284 0.73042 0.3419 0.0
H131 H 0.51311 0.70836 0.35134 0.0
H132 H 0.50198 0.71879 0.26914 0.0
H133 H 0.28772 0.53818 0.80806 0.0
C134 C 0.26683 0.50358 0.79255 0.0
C135 C 0.2805 0.49194 0.74789 0.0
C136 C 0.22806 0.46988 0.81825 0.0
H137 H 0.2664 0.43615 0.69592 0.0
C138 C 0.25464 0.44589 0.72924 0.0
C139 C 0.21608 0.41127 0.75409 0.0
C140 C 0.20297 0.42392 0.79853 0.0
C141 C 0.2207 0.47876 0.86882 0.0
H142 H 0.17384 0.39769 0.81848 0.0
C143 C 0.19973 0.51168 0.88604 0.0
C144 C 0.19249 0.51649 0.9347 0.0
C145 C 0.23504 0.45228 0.90073 0.0
H146 H 0.25128 0.42716 0.88872 0.0
C147 C 0.22897 0.45781 0.94828 0.0
H148 H 0.18786 0.53203 0.86201 0.0
C149 C 0.20779 0.48938 0.9651 0.0
H150 H 0.20277 0.49233 1.00224 0.0
H151 H 0.24035 0.43712 0.97231 0.0
Gd152 Gd 0.08523 0.15456 0.57159 0.0
Gd153 Gd 0.05663 0.11094 0.66572 0.0
C154 C 0.12519 0.22007 0.66646 0.0
C155 C 0.09987 0.20725 0.5003 0.0
C156 C 0.14484 0.24333 0.48071 0.0
C157 C 0.19092 0.25844 0.50471 0.0
C158 C 0.14346 0.25779 0.43534 0.0
C159 C 0.23491 0.29647 0.43555 0.0
C160 C 0.18832 0.28443 0.41287 0.0
C161 C 0.23584 0.28511 0.48222 0.0
C162 C 0.14814 0.11403 0.60279 0.0
C163 C 1.01805 1.04505 0.57192 0.0
C164 C 1.02894 0.05735 0.73658 0.0
C165 C 0.97852 1.0247 0.75054 0.0
C166 C 0.93531 1.03338 0.73867 0.0
C167 C 0.97306 0.98359 0.77405 0.0
C168 C 0.88182 0.96131 0.77594 0.0
C169 C 0.92501 0.95208 0.78669 0.0
C170 C 0.88732 1.00213 0.75171 0.0
C171 C 0.99423 0.14931 0.63029 0.0
O172 O 0.11168 0.21789 0.62233 0.0
O173 O 0.11653 0.18065 0.68926 0.0
O174 O 0.10014 0.16453 0.49831 0.0
O175 O 0.08449 0.21799 0.54041 0.0
O176 O 0.1409 0.11943 0.55943 0.0
O177 O 0.12786 0.13708 0.62696 0.0
O178 O 1.03276 1.04692 0.61554 0.0
O179 O 1.02528 0.08432 0.54959 0.0
O180 O 0.03625 0.10227 0.73838 0.0
O181 O 0.04665 1.04499 0.69863 0.0
O182 O 1.00513 0.1518 0.67381 0.0
O183 O 1.01402 0.12475 0.60888 0.0
H184 H 0.19243 0.24721 0.5398 0.0
H185 H 0.10812 0.24624 0.41646 0.0
H186 H 0.18696 0.29325 0.3769 0.0
H187 H 0.27145 0.29393 0.50016 0.0
H188 H 0.9387 0.06453 0.71966 0.0
H189 H 1.00594 0.97611 0.78297 0.0
H190 H 0.92172 0.92124 0.80618 0.0
H191 H 0.85456 1.01 0.74328 0.0
Gd192 Gd 0.60021 0.14716 0.14683 0.0
Gd193 Gd 0.50197 0.12817 0.10329 0.0
C194 C 0.53401 0.19788 0.19428 0.0
C195 C 0.69432 0.17141 0.16921 0.0
C196 C 0.72457 0.19837 0.20863 0.0
C197 C 0.76825 0.19129 0.22148 0.0
C198 C 0.70638 0.22644 0.23714 0.0
C199 C 0.77185 0.2356 0.29366 0.0
C200 C 0.72982 0.24489 0.27938 0.0
C201 C 0.79192 0.20995 0.26376 0.0
C202 C 0.52284 0.07498 0.1865 0.0
C203 C 0.56637 0.07467 0.05774 0.0
C204 C 0.40782 0.10622 0.08255 0.0
C205 C 0.3723 0.076 1.04761 0.0
C206 C 0.3858 0.078 1.00048 0.0
C207 C 0.3247 1.04395 0.06158 0.0
C208 C 0.30509 1.01547 0.98191 0.0
C209 C 0.2913 1.01369 1.02894 0.0
C210 C 0.35234 1.04816 0.96793 0.0
C211 C 0.57903 0.20159 0.06506 0.0
O212 O 0.58087 0.20095 0.1885 0.0
O213 O 0.49687 0.16651 0.17009 0.0
O214 O 0.65905 0.13108 0.18 0.0
O215 O 0.67853 0.19511 0.14041 0.0
O216 O 0.55997 0.10625 0.20934 0.0
O217 O 0.52967 0.08263 0.14362 0.0
O218 O 0.51988 0.07279 0.06358 0.0
O219 O 0.60441 0.10677 0.08057 0.0
O220 O 0.44442 0.14375 0.06744 0.0
O221 O 0.42283 0.08424 0.11372 0.0
O222 O 0.54378 0.16926 1.04126 0.0
O223 O 0.57167 0.19295 0.10773 0.0
H224 H 0.78246 0.16933 0.20001 0.0
H225 H 0.67257 0.23206 0.22787 0.0
H226 H 0.7137 0.26455 0.30193 0.0
H227 H 0.82385 0.20178 0.27438 0.0
H228 H 0.42245 0.10211 0.98879 0.0
H229 H 0.31368 1.04192 0.09782 0.0
H230 H 0.25496 0.98879 1.04039 0.0
H231 H 0.364 1.04967 0.93189 0.0
Gd232 Gd 0.54782 0.60792 0.59526 0.0
Gd233 Gd 0.56072 0.68878 0.65468 0.0
C234 C 0.59542 0.61174 0.69885 0.0
C235 C 0.5569 0.53889 0.5475 0.0
C236 C 0.5777 0.50338 0.55868 0.0
C237 C 0.55022 0.45557 0.54757 0.0
C238 C 0.62373 0.51657 0.58255 0.0
C239 C 0.61529 0.43458 0.58291 0.0
C240 C 0.64245 0.48245 0.59437 0.0
C241 C 0.56875 0.4213 0.55983 0.0
C242 C 0.46106 0.60033 0.64104 0.0
C243 C 0.51661 0.6854 0.55099 0.0
C244 C 0.54702 0.75476 0.70451 0.0
C245 C 0.50474 0.77045 0.70956 0.0
C246 C 0.50547 0.80299 0.74497 0.0
C247 C 0.46172 0.75016 0.68151 0.0
C248 C 0.41978 0.79406 0.72507 0.0
C249 C 0.41968 0.76216 0.68896 0.0
C250 C 0.46328 0.81476 0.75269 0.0
C251 C 0.64746 0.69681 0.60851 0.0
O252 O 0.58853 0.5922 0.6566 0.0
O253 O 0.58434 0.64921 0.70799 0.0
O254 O 0.51536 0.53525 0.56937 0.0
O255 O 0.58943 0.58253 0.54554 0.0
O256 O 0.46349 0.58976 0.59738 0.0
O257 O 0.50502 0.61537 0.6581 0.0
O258 O 0.5136 0.69847 0.59474 0.0
O259 O 0.53594 0.65349 0.54098 0.0
O260 O 0.57068 0.76251 0.66465 0.0
O261 O 0.53759 0.71227 0.71921 0.0
O262 O 0.64574 0.71061 0.65123 0.0
O263 O 0.6034 0.68133 0.59192 0.0
H264 H 0.51425 0.44473 0.52984 0.0
H265 H 0.64529 0.55321 0.59224 0.0
H266 H 0.67845 0.49358 0.61208 0.0
H267 H 0.54656 0.38445 0.55156 0.0
H268 H 0.53819 0.81849 0.76726 0.0
H269 H 0.46024 0.72442 0.65442 0.0
H270 H 0.38712 0.74641 0.66655 0.0
H271 H 0.46426 0.83929 0.78092 0.0
Gd272 Gd 0.05261 0.59211 0.14211 0.0
Gd273 Gd 0.05349 0.68049 0.08857 0.0
C274 C 0.14711 0.69387 0.15314 0.0
C275 C 0.07884 0.52363 0.1654 0.0
C276 C 0.12816 0.51801 0.16646 0.0
C277 C 0.1541 0.52382 0.20873 0.0
C278 C 0.15071 0.50853 0.12566 0.0
C279 C 0.22432 0.51187 0.16948 0.0
C280 C 0.19832 0.50543 0.12721 0.0
C281 C 0.20177 0.52114 0.21016 0.0
C282 C 1.00853 0.64197 0.19619 0.0
C283 C 0.95465 0.57909 0.0815 0.0
C284 C 1.03052 0.74726 0.05495 0.0
C285 C 0.98304 0.75459 1.04942 0.0
C286 C 0.98329 0.79485 1.02727 0.0
C287 C 0.9371 0.72106 0.06527 0.0
C288 C 0.89183 0.76722 1.03524 0.0
C289 C 0.89169 0.72706 0.05775 0.0
C290 C 0.93801 0.80124 1.02036 0.0
C291 C 0.10525 0.63077 1.04658 0.0
O292 O 0.13229 0.64718 0.15034 0.0
O293 O 0.11896 0.71564 0.13678 0.0
O294 O 0.07335 0.55434 0.19535 0.0
O295 O 0.06 0.52541 0.12467 0.0
O296 O 1.01075 0.602 0.20756 0.0
O297 O 1.02749 0.65072 0.1561 0.0
O298 O 0.9741 0.62557 0.07556 0.0
O299 O 0.97846 0.55702 0.10495 0.0
O300 O 1.03515 0.71299 1.02937 0.0
O301 O 0.04558 0.74793 0.09773 0.0
O302 O 0.119 0.67648 1.04474 0.0
O303 O 0.06425 0.61451 0.06901 0.0
H304 H 0.13773 0.53093 0.24078 0.0
H305 H 0.13192 0.50394 0.09245 0.0
H306 H 0.21513 0.49866 0.09528 0.0
H307 H 0.22088 0.52589 0.24323 0.0
H308 H 1.01839 0.82104 1.01482 0.0
H309 H 0.93631 0.69012 0.08308 0.0
H310 H 0.85651 0.70039 0.0694 0.0
H311 H 0.93889 0.83215 1.00227 0.0
C312 C 0.36686 0.3733 0.39534 0.0
C313 C 0.37385 0.34678 0.35709 0.0
C314 C 0.32179 0.35686 0.42117 0.0
C315 C 0.28227 0.31411 0.40861 0.0
H316 H 0.39632 0.40681 0.4052 0.0
H317 H 0.31748 0.3779 0.45061 0.0
S318 S 0.28213 0.23203 0.31127 0.0
N319 N 0.33765 0.27608 0.30786 0.0
N320 N 0.25337 0.24521 0.35642 0.0
C321 C 0.28904 0.28737 0.37058 0.0
C322 C 0.33476 0.30375 0.34474 0.0
C323 C 0.23938 0.96777 0.8681 0.0
C324 C 0.22849 0.91901 0.87093 0.0
C325 C 0.26113 0.99865 0.90558 0.0
C326 C 0.27225 0.9817 0.94716 0.0
H327 H 0.23454 0.98262 0.83568 0.0
H328 H 0.27177 1.03632 0.9012 0.0
S329 S 0.24482 0.8564 0.97395 0.0
N330 N 0.22533 0.85456 0.91997 0.0
N331 N 0.26659 0.91278 0.99053 0.0
C332 C 0.2579 0.93267 0.95167 0.0
C333 C 0.23595 0.90125 0.91344 0.0
C334 C 0.6406 0.5958 0.81926 0.0
C335 C 0.63237 0.54733 0.81996 0.0
C336 C 0.63122 0.61665 0.77928 0.0
C337 C 0.6129 0.59004 0.73795 0.0
H338 H 0.65147 0.61723 0.85087 0.0
H339 H 0.63639 0.65366 0.78155 0.0
S340 S 0.58685 0.46188 0.72094 0.0
N341 N 0.6065 0.47359 0.77523 0.0
N342 N 0.58935 0.5125 0.69999 0.0
C343 C 0.60715 0.542 0.7374 0.0
C344 C 0.61665 0.52076 0.77835 0.0
C345 C 0.96854 0.74261 0.2401 0.0
C346 C 0.94311 0.72605 0.28245 0.0
C347 C 0.98951 0.71561 0.21257 0.0
C348 C 0.9864 0.67069 0.22593 0.0
H349 H 0.97161 0.77669 0.2276 0.0
H350 H 1.00805 0.73004 0.1804 0.0
S351 S 0.92521 0.61082 0.33387 0.0
N352 N 0.91693 0.66149 0.3363 0.0
N353 N 0.95692 0.61133 0.28544 0.0
C354 C 0.96233 0.65413 0.26875 0.0
C355 C 0.94078 0.68162 0.29674 0.0
C356 C 0.45901 0.26532 0.24739 0.0
C357 C 0.49642 0.30858 0.26178 0.0
C358 C 0.47178 0.22886 0.22814 0.0
C359 C 0.52261 0.23409 0.22246 0.0
H360 H 0.41937 0.26004 0.24991 0.0
H361 H 0.44131 0.19685 0.21635 0.0
S362 S 0.63462 0.33896 0.26037 0.0
N363 N 0.58593 0.3538 0.27297 0.0
N364 N 0.61063 0.28496 0.23709 0.0
C365 C 0.56047 0.27652 0.239 0.0
C366 C 0.54724 0.31396 0.25835 0.0
C367 C 0.14321 1.01524 0.68117 0.0
C368 C 0.14149 0.97902 0.64912 0.0
C369 C 0.14967 0.0605 0.66621 0.0
C370 C 0.15403 0.07079 0.61876 0.0
H371 H 0.13733 1.00801 0.71781 0.0
H372 H 0.14846 0.08677 0.69177 0.0
S373 S 0.16351 0.99118 0.5223 0.0
N374 N 0.15322 0.95866 0.56893 0.0
N375 N 0.16478 1.04334 0.54063 0.0
C376 C 0.15698 1.03609 0.58689 0.0
C377 C 0.15046 0.99016 0.60211 0.0
C378 C 0.82227 0.54361 1.02916 0.0
C379 C 0.81153 0.49725 1.01144 0.0
C380 C 0.86841 0.56985 1.05169 0.0
C381 C 0.90547 0.55057 0.05837 0.0
H382 H 0.79431 0.55942 1.02674 0.0
H383 H 0.8746 0.60517 0.06484 0.0
S384 S 0.8991 0.43317 1.0139 0.0
N385 N 0.84491 0.43556 0.99795 0.0
N386 N 0.92959 0.4835 1.04232 0.0
C387 C 0.89573 0.50479 1.03994 0.0
C388 C 0.84946 0.47859 1.01601 0.0
C389 C 0.73745 0.73674 0.5048 0.0
C390 C 0.78569 0.75388 0.52558 0.0
C391 C 0.69294 0.71658 0.53143 0.0
C392 C 0.6948 0.713 0.58001 0.0
H393 H 0.73387 0.74085 0.46798 0.0
H394 H 0.65678 0.70545 0.51402 0.0
S395 S 0.81149 0.74607 0.65041 0.0
N396 N 0.83232 0.7607 0.59713 0.0
N397 N 0.74918 0.72396 0.64693 0.0
C398 C 0.74276 0.72767 0.60077 0.0
C399 C 0.78796 0.74779 0.57371 0.0
C400 C 0.36267 0.54223 0.19838 0.0
C401 C 0.37085 0.50173 0.18263 0.0
C402 C 0.31535 0.5455 0.1934 0.0
C403 C 0.27486 0.50879 0.17169 0.0
H404 H 0.39253 0.57083 0.21613 0.0
H405 H 0.31021 0.57674 0.20715 0.0
S406 S 0.27764 0.39605 0.12311 0.0
N407 N 0.33522 0.42466 0.14368 0.0
N408 N 0.24646 0.4311 0.13362 0.0
C409 C 0.28306 0.4687 0.15464 0.0
C410 C 0.33099 0.46508 0.16034 0.0
C411 C 0.6317 0.30518 0.98241 0.0
C412 C 0.65995 0.34365 1.0117 0.0
C413 C 0.60687 0.25926 0.99958 0.0
C414 C 0.60904 0.24972 1.04697 0.0
H415 H 0.62889 0.31052 0.94565 0.0
H416 H 0.58533 0.23115 0.97562 0.0
S417 S 0.67679 0.33799 0.13876 0.0
N418 N 0.68712 0.36888 0.09105 0.0
N419 N 0.64203 0.28299 0.12283 0.0
C420 C 0.63744 0.28775 0.07653 0.0
C421 C 0.66241 0.3345 0.05919 0.0
C422 C 0.98685 0.92256 0.5152 0.0
C423 C 0.93422 0.9063 0.50815 0.0
C424 C 1.01382 0.96746 0.53596 0.0
C425 C 0.98944 0.99821 0.54933 0.0
H426 H 1.00705 0.89991 0.50581 0.0
H427 H 0.05398 0.97819 0.54166 0.0
S428 S 0.85281 0.97338 0.5379 0.0
N429 N 0.8591 0.92522 0.51623 0.0
N430 N 0.91005 1.00949 0.55393 0.0
C431 C 0.93724 0.98282 0.54177 0.0
C432 C 0.90961 0.93696 0.52151 0.0
C433 C 0.33987 0.866 0.75251 0.0
C434 C 0.29098 0.83126 0.75655 0.0
C435 C 0.38106 0.85363 0.74138 0.0
C436 C 0.37483 0.80601 0.73422 0.0
H437 H 0.34631 0.90305 0.75842 0.0
H438 H 0.41813 0.88157 0.73861 0.0
S439 S 0.25406 0.70179 0.74188 0.0
N440 N 0.23802 0.7477 0.7526 0.0
N441 N 0.31573 0.72384 0.73262 0.0
C442 C 0.32581 0.77091 0.7377 0.0
C443 C 0.28377 0.78369 0.74869 0.0
C444 C 0.76579 0.92269 0.85189 0.0
C445 C 0.75051 0.87315 0.85022 0.0
C446 C 0.80596 0.95118 0.82445 0.0
C447 C 0.83207 0.93097 0.79467 0.0
H448 H 0.74989 0.93974 0.87758 0.0
H449 H 0.81931 0.98925 0.82948 0.0
S450 S 0.79881 0.80305 0.7698 0.0
N451 N 0.75835 0.80497 0.81051 0.0
N452 N 0.83435 0.85872 0.7591 0.0
C453 C 0.81359 0.88152 0.78902 0.0
C454 C 0.77252 0.85253 0.81671 0.0
C455 C 0.76987 0.23538 0.42461 0.0
C456 C 0.82083 0.26018 0.43684 0.0
C457 C 0.75455 0.22887 0.37827 0.0
C458 C 0.78959 0.24637 0.34216 0.0
H459 H 0.74155 0.21973 0.45099 0.0
H460 H 0.71505 0.20872 0.37058 0.0
S461 S 0.92692 0.31573 0.35501 0.0
N462 N 0.90607 0.30432 0.40881 0.0
N463 N 0.87709 0.29072 0.3212 0.0
C464 C 0.84057 0.27152 0.35355 0.0
C465 C 0.85623 0.27871 0.40099 0.0
C466 C 0.53313 0.7509 0.43853 0.0
C467 C 0.48355 0.7453 0.42607 0.0
C468 C 0.54336 0.73338 0.48009 0.0
C469 C 0.50478 0.71039 0.5119 0.0
H470 H 0.56413 0.76666 0.41455 0.0
H471 H 0.58172 0.73639 0.48664 0.0
S472 S 0.36925 0.6901 0.49893 0.0
N473 N 0.39571 0.71722 0.45094 0.0
N474 N 0.41547 0.68581 0.53002 0.0
C475 C 0.45558 0.70736 0.50182 0.0
C476 C 0.44488 0.72461 0.45882 0.0
C477 C 0.19273 0.59594 0.96336 0.0
C478 C 0.16667 0.54687 0.95594 0.0
C479 C 0.17248 0.62286 0.99218 0.0
C480 C 0.12557 0.60178 1.01518 0.0
H481 H 0.22991 0.6133 0.9483 0.0
H482 H 0.1944 0.66032 0.99738 0.0
S483 S 0.04151 0.47471 1.00516 0.0
N484 N 0.09101 0.47872 0.97288 0.0
N485 N 0.05264 0.52875 1.02569 0.0
C486 C 0.09868 0.55296 1.00676 0.0
C487 C 0.1193 0.52575 0.97762 0.0
C488 C 0.53471 0.9561 0.99546 0.0
C489 C 0.57753 0.94537 1.00374 0.0
C490 C 0.53301 0.99975 1.00968 0.0
C491 C 0.57404 1.03451 1.0329 0.0
H492 H 0.50148 0.92984 0.97935 0.0
H493 H 0.49819 1.00524 1.00444 0.0
S494 S 0.69705 1.02552 0.05901 0.0
N495 N 0.66329 0.9742 1.03379 0.0
N496 N 0.66068 0.05653 0.05967 0.0
C497 C 0.61848 1.02547 1.03842 0.0
C498 C 0.62006 0.98084 1.02412 0.0
C499 C 0.91822 0.18648 0.5457 0.0
C500 C 0.92217 0.23101 0.5638 0.0
C501 C 0.94295 0.16077 0.56694 0.0
C502 C 0.9715 0.17842 0.60735 0.0
H503 H 0.89357 0.17016 0.5166 0.0
H504 H 0.93785 0.12596 0.55289 0.0
S505 S 1.00173 0.29672 0.66301 0.0
N506 N 0.96314 0.29463 0.62007 0.0
N507 N 1.00838 0.24529 0.66099 0.0
C508 C 0.97855 0.22402 0.62405 0.0
C509 C 0.95421 0.25064 0.60192 0.0
C510 C 0.25209 0.79535 0.21601 0.0
C511 C 0.29069 0.77774 0.22125 0.0
C512 C 0.20629 0.76841 0.1935 0.0
C513 C 0.19682 0.72246 0.17538 0.0
H514 H 0.25701 0.83013 0.22996 0.0
H515 H 0.17774 0.78352 0.19102 0.0
S516 S 0.28712 0.66137 0.17568 0.0
N517 N 0.31749 0.71249 0.20286 0.0
N518 N 0.23135 0.66164 0.16204 0.0
C519 C 0.23537 0.70468 0.17969 0.0
C520 C 0.28218 0.73227 0.20219 0.0
C521 C 0.37239 0.54735 0.74311 0.0
C522 C 0.32469 0.52578 0.72176 0.0
C523 C 0.41597 0.57335 0.71732 0.0
C524 C 0.4137 0.57886 0.66907 0.0
H525 H 0.37658 0.54224 0.77962 0.0
H526 H 0.45202 0.58753 0.73505 0.0
S527 S 0.29687 0.53564 0.59791 0.0
N528 N 0.27721 0.5164 0.65038 0.0
N529 N 0.35858 0.56474 0.60217 0.0
C530 C 0.36577 0.55989 0.64794 0.0
C531 C 0.32152 0.5335 0.67414 0.0
C532 C 0.76661 0.74691 0.97813 0.0
C533 C 0.75983 0.78926 0.989 0.0
C534 C 0.80772 0.73842 0.99608 0.0
C535 C 0.84386 0.7726 1.02444 0.0
H536 H 0.74174 0.72156 0.95348 0.0
H537 H 0.81313 0.70641 0.98519 0.0
S538 S 0.84088 0.88764 0.06535 0.0
N539 N 0.79036 0.86415 1.03211 0.0
N540 N 0.86813 0.84862 0.06526 0.0
C541 C 0.8359 0.81391 1.03743 0.0
C542 C 0.79369 0.82213 1.01982 0.0
C543 C 0.49231 0.94929 0.22716 0.0
C544 C 0.44037 0.93308 0.23853 0.0
C545 C 0.5187 0.99525 0.21074 0.0
C546 C 0.49433 1.02699 0.20472 0.0
H547 H 0.51267 0.92595 0.22991 0.0
H548 H 0.5584 1.00584 0.20207 0.0
S549 S 0.36023 1.00434 0.23141 0.0
N550 N 0.36662 0.95458 0.24446 0.0
N551 N 0.41614 1.04003 0.21256 0.0
C552 C 0.4429 1.01183 0.21626 0.0
C553 C 0.41598 0.9652 0.23335 0.0
C554 C 0.17632 0.35487 0.68667 0.0
C555 C 0.19147 0.36175 0.73357 0.0
C556 C 0.15547 0.30935 0.66567 0.0
C557 C 0.14879 0.26806 0.69028 0.0
H558 H 0.18042 0.38508 0.66586 0.0
H559 H 0.14439 0.30673 0.62959 0.0
S560 S 0.18342 0.26614 0.81388 0.0
N561 N 0.19917 0.32291 0.80383 0.0
N562 N 0.15967 0.23767 0.76476 0.0
C563 C 0.16372 0.27435 0.73732 0.0
C564 C 0.18496 0.3209 0.75878 0.0
C565 C 0.67917 0.36805 0.65002 0.0
C566 C 0.68393 0.33575 0.6165 0.0
C567 C 0.65596 0.39932 0.63911 0.0
C568 C 0.63636 0.39897 0.5945 0.0
H569 H 0.69494 0.37019 0.68438 0.0
H570 H 0.65401 0.42442 0.6656 0.0
S571 S 0.63778 0.31961 0.49507 0.0
N572 N 0.66535 0.30353 0.53768 0.0
N573 N 0.62276 0.36319 0.51681 0.0
C574 C 0.63981 0.36597 0.56104 0.0
C575 C 0.66338 0.33415 0.57214 0.0
loop_
_geom_bond_atom_site_label_1
_geom_bond_atom_site_label_2
_geom_bond_distance
_geom_bond_site_symmetry_2
_ccdc_geom_bond_type
H0 C1 0.949 . S
C1 H0 0.949 . S
C1 C2 1.395 . S
C1 C3 1.391 . S
C2 C1 1.395 . S
C2 C5 1.390 . S
C3 C1 1.391 . S
C3 C7 1.387 . S
C3 C8 1.491 . S
H4 C5 0.950 . S
C5 C2 1.390 . S
C5 H4 0.950 . S
C5 C6 1.378 . S
C6 C5 1.378 . S
C6 C7 1.409 . S
C7 C3 1.387 . S
C7 C6 1.409 . S
C7 H9 0.951 . S
C8 C3 1.491 . S
C8 C10 1.382 . S
C8 C12 1.404 . S
H9 C7 0.951 . S
C10 C8 1.382 . S
C10 C11 1.390 . S
C10 H15 0.949 . S
C11 C10 1.390 . S
C11 C16 1.399 . S
C12 C8 1.404 . S
C12 H13 0.950 . S
C12 C14 1.375 . S
H13 C12 0.950 . S
C14 C12 1.375 . S
C14 C16 1.382 . S
C14 H18 0.950 . S
H15 C10 0.949 . S
C16 C11 1.399 . S
C16 C14 1.382 . S
C16 H17 0.952 . S
H17 C16 0.952 . S
H18 C14 0.950 . S
H19 C20 0.949 . S
C20 H19 0.949 . S
C20 C21 1.395 . S
C20 C22 1.391 . S
C21 C20 1.395 . S
C21 C24 1.390 . S
C22 C20 1.391 . S
C22 C26 1.387 . S
C22 C27 1.491 . S
H23 C24 0.950 . S
C24 C21 1.390 . S
C24 H23 0.950 . S
C24 C25 1.378 . S
C25 C24 1.378 . S
C25 C26 1.409 . S
C26 C22 1.387 . S
C26 C25 1.409 . S
C26 H28 0.951 . S
C27 C22 1.491 . S
C27 C29 1.382 . S
C27 C31 1.404 . S
H28 C26 0.951 . S
C29 C27 1.382 . S
C29 C30 1.390 . S
C29 H34 0.949 . S
C30 C29 1.390 . S
C30 C35 1.399 . S
C31 C27 1.404 . S
C31 H32 0.950 . S
C31 C33 1.375 . S
H32 C31 0.950 . S
C33 C31 1.375 . S
C33 C35 1.382 . S
C33 H37 0.950 . S
H34 C29 0.949 . S
C35 C30 1.399 . S
C35 C33 1.382 . S
C35 H36 0.952 . S
H36 C35 0.952 . S
H37 C33 0.950 . S
H38 C39 0.949 . S
C39 H38 0.949 . S
C39 C40 1.395 . S
C39 C41 1.391 . S
C40 C39 1.395 . S
C40 C43 1.390 . S
C41 C39 1.391 . S
C41 C45 1.387 . S
C41 C46 1.491 . S
H42 C43 0.950 . S
C43 C40 1.390 . S
C43 H42 0.950 . S
C43 C44 1.378 . S
C44 C43 1.378 . S
C44 C45 1.409 . S
C45 C41 1.387 . S
C45 C44 1.409 . S
C45 H47 0.951 . S
C46 C41 1.491 . S
C46 C48 1.382 . S
C46 C50 1.404 . S
H47 C45 0.951 . S
C48 C46 1.382 . S
C48 C49 1.390 . S
C48 H53 0.949 . S
C49 C48 1.390 . S
C49 C54 1.399 . S
C50 C46 1.404 . S
C50 H51 0.950 . S
C50 C52 1.375 . S
H51 C50 0.950 . S
C52 C50 1.375 . S
C52 C54 1.382 . S
C52 H56 0.950 . S
H53 C48 0.949 . S
C54 C49 1.399 . S
C54 C52 1.382 . S
C54 H55 0.952 . S
H55 C54 0.952 . S
H56 C52 0.950 . S
H57 C58 0.949 . S
C58 H57 0.949 . S
C58 C59 1.395 . S
C58 C60 1.391 . S
C59 C58 1.395 . S
C59 C62 1.390 . S
C60 C58 1.391 . S
C60 C64 1.387 . S
C60 C65 1.491 . S
H61 C62 0.950 . S
C62 C59 1.390 . S
C62 H61 0.950 . S
C62 C63 1.378 . S
C63 C62 1.378 . S
C63 C64 1.409 . S
C64 C60 1.387 . S
C64 C63 1.409 . S
C64 H66 0.951 . S
C65 C60 1.491 . S
C65 C67 1.382 . S
C65 C69 1.404 . S
H66 C64 0.951 . S
C67 C65 1.382 . S
C67 C68 1.390 . S
C67 H72 0.949 . S
C68 C67 1.390 . S
C68 C73 1.399 . S
C69 C65 1.404 . S
C69 H70 0.950 . S
C69 C71 1.375 . S
H70 C69 0.950 . S
C71 C69 1.375 . S
C71 C73 1.382 . S
C71 H75 0.950 . S
H72 C67 0.949 . S
C73 C68 1.399 . S
C73 C71 1.382 . S
C73 H74 0.952 . S
H74 C73 0.952 . S
H75 C71 0.950 . S
H76 C77 0.949 . S
C77 H76 0.949 . S
C77 C78 1.395 . S
C77 C79 1.391 . S
C78 C77 1.395 . S
C78 C81 1.390 . S
C79 C77 1.391 . S
C79 C83 1.387 . S
C79 C84 1.491 . S
H80 C81 0.950 . S
C81 C78 1.390 . S
C81 H80 0.950 . S
C81 C82 1.378 . S
C82 C81 1.378 . S
C82 C83 1.409 . S
C83 C79 1.387 . S
C83 C82 1.409 . S
C83 H85 0.951 . S
C84 C79 1.491 . S
C84 C86 1.382 . S
C84 C88 1.404 . S
H85 C83 0.951 . S
C86 C84 1.382 . S
C86 C87 1.390 . S
C86 H91 0.949 . S
C87 C86 1.390 . S
C87 C92 1.399 . S
C88 C84 1.404 . S
C88 H89 0.950 . S
C88 C90 1.375 . S
H89 C88 0.950 . S
C90 C88 1.375 . S
C90 C92 1.382 . S
C90 H94 0.950 . S
H91 C86 0.949 . S
C92 C87 1.399 . S
C92 C90 1.382 . S
C92 H93 0.952 . S
H93 C92 0.952 . S
H94 C90 0.950 . S
H95 C96 0.949 . S
C96 H95 0.949 . S
C96 C97 1.395 . S
C96 C98 1.391 . S
C97 C96 1.395 . S
C97 C100 1.390 . S
C98 C96 1.391 . S
C98 C102 1.387 . S
C98 C103 1.491 . S
H99 C100 0.950 . S
C100 C97 1.390 . S
C100 H99 0.950 . S
C100 C101 1.378 . S
C101 C100 1.378 . S
C101 C102 1.409 . S
C102 C98 1.387 . S
C102 C101 1.409 . S
C102 H104 0.951 . S
C103 C98 1.491 . S
C103 C105 1.382 . S
C103 C107 1.404 . S
H104 C102 0.951 . S
C105 C103 1.382 . S
C105 C106 1.390 . S
C105 H110 0.949 . S
C106 C105 1.390 . S
C106 C111 1.399 . S
C107 C103 1.404 . S
C107 H108 0.950 . S
C107 C109 1.375 . S
H108 C107 0.950 . S
C109 C107 1.375 . S
C109 C111 1.382 . S
C109 H113 0.950 . S
H110 C105 0.949 . S
C111 C106 1.399 . S
C111 C109 1.382 . S
C111 H112 0.952 . S
H112 C111 0.952 . S
H113 C109 0.950 . S
H114 C115 0.949 . S
C115 H114 0.949 . S
C115 C116 1.395 . S
C115 C117 1.391 . S
C116 C115 1.395 . S
C116 C119 1.390 . S
C117 C115 1.391 . S
C117 C121 1.387 . S
C117 C122 1.491 . S
H118 C119 0.950 . S
C119 C116 1.390 . S
C119 H118 0.950 . S
C119 C120 1.378 . S
C120 C119 1.378 . S
C120 C121 1.409 . S
C121 C117 1.387 . S
C121 C120 1.409 . S
C121 H123 0.951 . S
C122 C117 1.491 . S
C122 C124 1.382 . S
C122 C126 1.404 . S
H123 C121 0.951 . S
C124 C122 1.382 . S
C124 C125 1.390 . S
C124 H129 0.949 . S
C125 C124 1.390 . S
C125 C130 1.399 . S
C126 C122 1.404 . S
C126 H127 0.950 . S
C126 C128 1.375 . S
H127 C126 0.950 . S
C128 C126 1.375 . S
C128 C130 1.382 . S
C128 H132 0.950 . S
H129 C124 0.949 . S
C130 C125 1.399 . S
C130 C128 1.382 . S
C130 H131 0.952 . S
H131 C130 0.952 . S
H132 C128 0.950 . S
H133 C134 0.949 . S
C134 H133 0.949 . S
C134 C135 1.395 . S
C134 C136 1.391 . S
C135 C134 1.395 . S
C135 C138 1.390 . S
C136 C134 1.391 . S
C136 C140 1.387 . S
C136 C141 1.491 . S
H137 C138 0.950 . S
C138 C135 1.390 . S
C138 H137 0.950 . S
C138 C139 1.378 . S
C139 C138 1.378 . S
C139 C140 1.409 . S
C140 C136 1.387 . S
C140 C139 1.409 . S
C140 H142 0.951 . S
C141 C136 1.491 . S
C141 C143 1.382 . S
C141 C145 1.404 . S
H142 C140 0.951 . S
C143 C141 1.382 . S
C143 C144 1.390 . S
C143 H148 0.949 . S
C144 C143 1.390 . S
C144 C149 1.399 . S
C145 C141 1.404 . S
C145 H146 0.950 . S
C145 C147 1.375 . S
H146 C145 0.950 . S
C147 C145 1.375 . S
C147 C149 1.382 . S
C147 H151 0.950 . S
H148 C143 0.949 . S
C149 C144 1.399 . S
C149 C147 1.382 . S
C149 H150 0.952 . S
H150 C149 0.952 . S
H151 C147 0.950 . S
Gd152 C155 2.818 . S
Gd152 O172 2.377 . S
Gd152 O174 2.448 . S
Gd152 O175 2.506 . S
Gd152 O176 2.435 . S
Gd152 O177 2.717 . S
Gd152 O179 2.395 1_445 S
Gd152 O183 2.327 1_455 S
Gd153 C164 2.818 1_545 S
Gd153 O173 2.395 1_655 S
Gd153 O177 2.327 1_655 S
Gd153 O178 2.377 1_545 S
Gd153 O180 2.448 1_545 S
Gd153 O181 2.506 1_545 S
Gd153 O182 2.435 . S
Gd153 O183 2.717 . S
C154 O172 1.240 . S
C154 O173 1.240 . S
C155 Gd152 2.818 . S
C155 C156 1.510 . S
C155 O174 1.249 . S
C155 O175 1.252 . S
C156 C155 1.510 . S
C156 C157 1.404 . S
C156 C158 1.352 . S
C157 C156 1.404 . S
C157 C161 1.389 . S
C157 H184 0.930 . S
C158 C156 1.352 . S
C158 C160 1.374 . S
C158 H185 0.931 . S
C159 C160 1.359 . S
C159 C161 1.364 . S
C160 C158 1.374 . S
C160 C159 1.359 . S
C160 H186 0.931 . S
C161 C157 1.389 . S
C161 C159 1.364 . S
C161 H187 0.931 . S
C162 O176 1.256 . S
C162 O177 1.257 . S
C163 O178 1.240 . S
C163 O179 1.240 . S
C164 Gd153 2.818 1_565 S
C164 C165 1.510 . S
C164 O180 1.249 . S
C164 O181 1.252 . S
C165 C164 1.510 . S
C165 C166 1.404 . S
C165 C167 1.352 . S
C166 C165 1.404 . S
C166 C170 1.389 . S
C166 H188 0.930 . S
C167 C165 1.352 . S
C167 C169 1.374 . S
C167 H189 0.931 . S
C168 C169 1.359 . S
C168 C170 1.364 . S
C169 C167 1.374 . S
C169 C168 1.359 . S
C169 H190 0.931 . S
C170 C166 1.389 . S
C170 C168 1.364 . S
C170 H191 0.931 . S
C171 O182 1.256 . S
C171 O183 1.257 . S
O172 Gd152 2.377 . S
O172 C154 1.240 . S
O173 Gd153 2.395 1_455 S
O173 C154 1.240 . S
O174 Gd152 2.448 . S
O174 C155 1.249 . S
O175 Gd152 2.506 . S
O175 C155 1.252 . S
O176 Gd152 2.435 . S
O176 C162 1.256 . S
O177 Gd152 2.717 . S
O177 Gd153 2.327 1_455 S
O177 C162 1.257 . S
O178 Gd153 2.377 1_565 S
O178 C163 1.240 . S
O179 Gd152 2.395 1_665 S
O179 C163 1.240 . S
O180 Gd153 2.448 1_565 S
O180 C164 1.249 . S
O181 Gd153 2.506 1_565 S
O181 C164 1.252 . S
O182 Gd153 2.435 . S
O182 C171 1.256 . S
O183 Gd152 2.327 1_655 S
O183 Gd153 2.717 . S
O183 C171 1.257 . S
H184 C157 0.930 . S
H185 C158 0.931 . S
H186 C160 0.931 . S
H187 C161 0.931 . S
H188 C166 0.930 . S
H189 C167 0.931 . S
H190 C169 0.931 . S
H191 C170 0.931 . S
Gd192 C195 2.818 . S
Gd192 O212 2.377 . S
Gd192 O214 2.448 . S
Gd192 O215 2.506 . S
Gd192 O216 2.435 1_545 S
Gd192 O217 2.717 1_545 S
Gd192 O219 2.395 1_545 S
Gd192 O223 2.327 . S
Gd193 C204 2.818 1_544 S
Gd193 O213 2.395 . S
Gd193 O217 2.327 1_545 S
Gd193 O218 2.377 . S
Gd193 O220 2.448 1_554 S
Gd193 O221 2.506 1_545 S
Gd193 O222 2.435 . S
Gd193 O223 2.717 . S
C194 O212 1.240 . S
C194 O213 1.240 . S
C195 Gd192 2.818 . S
C195 C196 1.510 . S
C195 O214 1.249 . S
C195 O215 1.252 . S
C196 C195 1.510 . S
C196 C197 1.404 . S
C196 C198 1.352 . S
C197 C196 1.404 . S
C197 C201 1.389 . S
C197 H224 0.930 . S
C198 C196 1.352 . S
C198 C200 1.374 . S
C198 H225 0.931 . S
C199 C200 1.359 . S
C199 C201 1.364 . S
C200 C198 1.374 . S
C200 C199 1.359 . S
C200 H226 0.931 . S
C201 C197 1.389 . S
C201 C199 1.364 . S
C201 H227 0.931 . S
C202 O216 1.256 . S
C202 O217 1.257 . S
C203 O218 1.240 1_565 S
C203 O219 1.240 . S
C204 Gd193 2.818 1_566 S
C204 C205 1.510 . S
C204 O220 1.249 1_565 S
C204 O221 1.252 1_556 S
C205 C204 1.510 . S
C205 C206 1.404 . S
C205 C207 1.352 . S
C206 C205 1.404 . S
C206 C210 1.389 . S
C206 H228 0.930 . S
C207 C205 1.352 . S
C207 C209 1.374 . S
C207 H229 0.931 . S
C208 C209 1.359 . S
C208 C210 1.364 . S
C209 C207 1.374 . S
C209 C208 1.359 . S
C209 H230 0.931 . S
C210 C206 1.389 . S
C210 C208 1.364 . S
C210 H231 0.931 . S
C211 O222 1.256 . S
C211 O223 1.257 . S
O212 Gd192 2.377 . S
O212 C194 1.240 . S
O213 Gd193 2.395 . S
O213 C194 1.240 . S
O214 Gd192 2.448 . S
O214 C195 1.249 . S
O215 Gd192 2.506 . S
O215 C195 1.252 . S
O216 Gd192 2.435 1_565 S
O216 C202 1.256 . S
O217 Gd192 2.717 1_565 S
O217 Gd193 2.327 1_565 S
O217 C202 1.257 . S
O218 Gd193 2.377 . S
O218 C203 1.240 1_545 S
O219 Gd192 2.395 1_565 S
O219 C203 1.240 . S
O220 Gd193 2.448 1_556 S
O220 C204 1.249 1_545 S
O221 Gd193 2.506 1_565 S
O221 C204 1.252 1_554 S
O222 Gd193 2.435 . S
O222 C211 1.256 . S
O223 Gd192 2.327 . S
O223 Gd193 2.717 . S
O223 C211 1.257 . S
H224 C197 0.930 . S
H225 C198 0.931 . S
H226 C200 0.931 . S
H227 C201 0.931 . S
H228 C206 0.930 . S
H229 C207 0.931 . S
H230 C209 0.931 . S
H231 C210 0.931 . S
Gd232 C235 2.818 . S
Gd232 O252 2.377 . S
Gd232 O254 2.448 . S
Gd232 O255 2.506 . S
Gd232 O256 2.435 . S
Gd232 O257 2.717 . S
Gd232 O259 2.395 . S
Gd232 O263 2.327 . S
Gd233 C244 2.818 . S
Gd233 O253 2.395 . S
Gd233 O257 2.327 . S
Gd233 O258 2.377 . S
Gd233 O260 2.448 . S
Gd233 O261 2.506 . S
Gd233 O262 2.435 . S
Gd233 O263 2.717 . S
C234 O252 1.240 . S
C234 O253 1.240 . S
C235 Gd232 2.818 . S
C235 C236 1.510 . S
C235 O254 1.249 . S
C235 O255 1.252 . S
C236 C235 1.510 . S
C236 C237 1.404 . S
C236 C238 1.352 . S
C237 C236 1.404 . S
C237 C241 1.389 . S
C237 H264 0.930 . S
C238 C236 1.352 . S
C238 C240 1.374 . S
C238 H265 0.931 . S
C239 C240 1.359 . S
C239 C241 1.364 . S
C240 C238 1.374 . S
C240 C239 1.359 . S
C240 H266 0.931 . S
C241 C237 1.389 . S
C241 C239 1.364 . S
C241 H267 0.931 . S
C242 O256 1.256 . S
C242 O257 1.257 . S
C243 O258 1.240 . S
C243 O259 1.240 . S
C244 Gd233 2.818 . S
C244 C245 1.510 . S
C244 O260 1.249 . S
C244 O261 1.252 . S
C245 C244 1.510 . S
C245 C246 1.404 . S
C245 C247 1.352 . S
C246 C245 1.404 . S
C246 C250 1.389 . S
C246 H268 0.930 . S
C247 C245 1.352 . S
C247 C249 1.374 . S
C247 H269 0.931 . S
C248 C249 1.359 . S
C248 C250 1.364 . S
C249 C247 1.374 . S
C249 C248 1.359 . S
C249 H270 0.931 . S
C250 C246 1.389 . S
C250 C248 1.364 . S
C250 H271 0.931 . S
C251 O262 1.256 . S
C251 O263 1.257 . S
O252 Gd232 2.377 . S
O252 C234 1.240 . S
O253 Gd233 2.395 . S
O253 C234 1.240 . S
O254 Gd232 2.448 . S
O254 C235 1.249 . S
O255 Gd232 2.506 . S
O255 C235 1.252 . S
O256 Gd232 2.435 . S
O256 C242 1.256 . S
O257 Gd232 2.717 . S
O257 Gd233 2.327 . S
O257 C242 1.257 . S
O258 Gd233 2.377 . S
O258 C243 1.240 . S
O259 Gd232 2.395 . S
O259 C243 1.240 . S
O260 Gd233 2.448 . S
O260 C244 1.249 . S
O261 Gd233 2.506 . S
O261 C244 1.252 . S
O262 Gd233 2.435 . S
O262 C251 1.256 . S
O263 Gd232 2.327 . S
O263 Gd233 2.717 . S
O263 C251 1.257 . S
H264 C237 0.930 . S
H265 C238 0.931 . S
H266 C240 0.931 . S
H267 C241 0.931 . S
H268 C246 0.930 . S
H269 C247 0.931 . S
H270 C249 0.931 . S
H271 C250 0.931 . S
Gd272 C275 2.818 . S
Gd272 O292 2.377 . S
Gd272 O294 2.448 . S
Gd272 O295 2.506 . S
Gd272 O296 2.435 . S
Gd272 O297 2.717 . S
Gd272 O299 2.395 1_455 S
Gd272 O303 2.327 1_554 S
Gd273 C284 2.816 1_454 S
Gd273 O293 2.398 . S
Gd273 O297 2.331 . S
Gd273 O298 2.376 1_454 S
Gd273 O300 2.445 1_554 S
Gd273 O301 2.506 1_454 S
Gd273 O302 2.432 1_554 S
Gd273 O303 2.717 1_554 S
C274 O292 1.240 . S
C274 O293 1.240 . S
C275 Gd272 2.818 . S
C275 C276 1.510 . S
C275 O294 1.249 . S
C275 O295 1.252 . S
C276 C275 1.510 . S
C276 C277 1.404 . S
C276 C278 1.352 . S
C277 C276 1.404 . S
C277 C281 1.389 . S
C277 H304 0.930 . S
C278 C276 1.352 . S
C278 C280 1.374 . S
C278 H305 0.931 . S
C279 C280 1.359 . S
C279 C281 1.364 . S
C280 C278 1.374 . S
C280 C279 1.359 . S
C280 H306 0.931 . S
C281 C277 1.389 . S
C281 C279 1.364 . S
C281 H307 0.931 . S
C282 O296 1.256 1_655 S
C282 O297 1.257 1_655 S
C283 O298 1.240 . S
C283 O299 1.240 1_556 S
C284 Gd273 2.816 1_656 S
C284 C285 1.510 . S
C284 O300 1.249 1_655 S
C284 O301 1.256 . S
C285 C284 1.510 . S
C285 C286 1.404 . S
C285 C287 1.352 . S
C286 C285 1.404 . S
C286 C290 1.389 . S
C286 H308 0.930 . S
C287 C285 1.352 . S
C287 C289 1.374 . S
C287 H309 0.931 . S
C288 C289 1.359 . S
C288 C290 1.364 . S
C289 C287 1.374 . S
C289 C288 1.359 . S
C289 H310 0.931 . S
C290 C286 1.389 . S
C290 C288 1.364 . S
C290 H311 0.931 . S
C291 O302 1.256 . S
C291 O303 1.257 . S
O292 Gd272 2.377 . S
O292 C274 1.240 . S
O293 Gd273 2.398 . S
O293 C274 1.240 . S
O294 Gd272 2.448 . S
O294 C275 1.249 . S
O295 Gd272 2.506 . S
O295 C275 1.252 . S
O296 Gd272 2.435 . S
O296 C282 1.256 1_455 S
O297 Gd272 2.717 . S
O297 Gd273 2.331 . S
O297 C282 1.257 1_455 S
O298 Gd273 2.376 1_656 S
O298 C283 1.240 . S
O299 Gd272 2.395 1_655 S
O299 C283 1.240 1_554 S
O300 Gd273 2.445 1_556 S
O300 C284 1.249 1_455 S
O301 Gd273 2.506 1_656 S
O301 C284 1.256 . S
O302 Gd273 2.432 1_556 S
O302 C291 1.256 . S
O303 Gd272 2.327 1_556 S
O303 Gd273 2.717 1_556 S
O303 C291 1.257 . S
H304 C277 0.930 . S
H305 C278 0.931 . S
H306 C280 0.931 . S
H307 C281 0.931 . S
H308 C286 0.930 . S
H309 C287 0.931 . S
H310 C289 0.931 . S
H311 C290 0.931 . S
C312 C313 1.369 . S
C312 C314 1.419 . S
C312 H316 0.930 . S
C313 C312 1.369 . S
C313 C322 1.429 . S
C314 C312 1.419 . S
C314 C315 1.363 . S
C314 H317 0.929 . S
C315 C314 1.363 . S
C315 C321 1.428 . S
H316 C312 0.930 . S
H317 C314 0.929 . S
S318 N319 1.613 . S
S318 N320 1.610 . S
N319 S318 1.613 . S
N319 C322 1.350 . S
N320 S318 1.610 . S
N320 C321 1.351 . S
C321 C315 1.428 . S
C321 N320 1.351 . S
C321 C322 1.434 . S
C322 C313 1.429 . S
C322 N319 1.350 . S
C322 C321 1.434 . S
C323 C324 1.369 . S
C323 C325 1.419 . S
C323 H327 0.930 . S
C324 C323 1.369 . S
C324 C333 1.429 . S
C325 C323 1.419 . S
C325 C326 1.363 . S
C325 H328 0.929 . S
C326 C325 1.363 . S
C326 C332 1.428 . S
H327 C323 0.930 . S
H328 C325 0.929 . S
S329 N330 1.613 . S
S329 N331 1.610 . S
N330 S329 1.613 . S
N330 C333 1.350 . S
N331 S329 1.610 . S
N331 C332 1.351 . S
C332 C326 1.428 . S
C332 N331 1.351 . S
C332 C333 1.434 . S
C333 C324 1.429 . S
C333 N330 1.350 . S
C333 C332 1.434 . S
C334 C335 1.369 . S
C334 C336 1.419 . S
C334 H338 0.930 . S
C335 C334 1.369 . S
C335 C344 1.429 . S
C336 C334 1.419 . S
C336 C337 1.363 . S
C336 H339 0.929 . S
C337 C336 1.363 . S
C337 C343 1.428 . S
H338 C334 0.930 . S
H339 C336 0.929 . S
S340 N341 1.613 . S
S340 N342 1.610 . S
N341 S340 1.613 . S
N341 C344 1.350 . S
N342 S340 1.610 . S
N342 C343 1.351 . S
C343 C337 1.428 . S
C343 N342 1.351 . S
C343 C344 1.434 . S
C344 C335 1.429 . S
C344 N341 1.350 . S
C344 C343 1.434 . S
C345 C346 1.369 . S
C345 C347 1.419 . S
C345 H349 0.930 . S
C346 C345 1.369 . S
C346 C355 1.429 . S
C347 C345 1.419 . S
C347 C348 1.363 . S
C347 H350 0.929 . S
C348 C347 1.363 . S
C348 C354 1.428 . S
H349 C345 0.930 . S
H350 C347 0.929 . S
S351 N352 1.613 1_455 S
S351 N353 1.610 . S
N352 S351 1.613 1_655 S
N352 C355 1.350 . S
N353 S351 1.610 . S
N353 C354 1.351 1_455 S
C354 C348 1.428 . S
C354 N353 1.351 1_655 S
C354 C355 1.434 . S
C355 C346 1.429 . S
C355 N352 1.350 . S
C355 C354 1.434 . S
C356 C357 1.369 . S
C356 C358 1.419 . S
C356 H360 0.930 . S
C357 C356 1.369 . S
C357 C366 1.429 . S
C358 C356 1.419 . S
C358 C359 1.363 . S
C358 H361 0.929 . S
C359 C358 1.363 . S
C359 C365 1.428 . S
H360 C356 0.930 . S
H361 C358 0.929 . S
S362 N363 1.613 . S
S362 N364 1.610 . S
N363 S362 1.613 . S
N363 C366 1.350 . S
N364 S362 1.610 . S
N364 C365 1.351 . S
C365 C359 1.428 . S
C365 N364 1.351 . S
C365 C366 1.434 . S
C366 C357 1.429 . S
C366 N363 1.350 . S
C366 C365 1.434 . S
C367 C368 1.369 . S
C367 C369 1.419 . S
C367 H371 0.930 . S
C368 C367 1.369 . S
C368 C377 1.429 . S
C369 C367 1.419 . S
C369 C370 1.363 . S
C369 H372 0.929 1_565 S
C370 C369 1.363 . S
C370 C376 1.428 . S
H371 C367 0.930 . S
H372 C369 0.929 1_545 S
S373 N374 1.613 1_655 S
S373 N375 1.610 1_655 S
N374 S373 1.613 1_455 S
N374 C377 1.350 . S
N375 S373 1.610 1_455 S
N375 C376 1.351 . S
C376 C370 1.428 . S
C376 N375 1.351 . S
C376 C377 1.434 . S
C377 C368 1.429 . S
C377 N374 1.350 . S
C377 C376 1.434 . S
C378 C379 1.369 . S
C378 C380 1.419 . S
C378 H382 0.930 . S
C379 C378 1.369 . S
C379 C388 1.429 . S
C380 C378 1.419 . S
C380 C381 1.363 . S
C380 H383 0.919 1_556 S
C381 C380 1.363 . S
C381 C387 1.428 . S
H382 C378 0.930 . S
H383 C380 0.919 1_554 S
S384 N385 1.613 . S
S384 N386 1.610 . S
N385 S384 1.613 . S
N385 C388 1.350 . S
N386 S384 1.610 . S
N386 C387 1.351 . S
C387 C381 1.428 . S
C387 N386 1.351 . S
C387 C388 1.434 . S
C388 C379 1.429 . S
C388 N385 1.350 . S
C388 C387 1.434 . S
C389 C390 1.369 . S
C389 C391 1.419 . S
C389 H393 0.930 . S
C390 C389 1.369 . S
C390 C399 1.429 . S
C391 C389 1.419 . S
C391 C392 1.363 . S
C391 H394 0.929 . S
C392 C391 1.363 . S
C392 C398 1.428 . S
H393 C389 0.930 . S
H394 C391 0.929 . S
S395 N396 1.613 . S
S395 N397 1.610 . S
N396 S395 1.613 . S
N396 C399 1.350 . S
N397 S395 1.610 . S
N397 C398 1.351 . S
C398 C392 1.428 . S
C398 N397 1.351 . S
C398 C399 1.434 . S
C399 C390 1.429 . S
C399 N396 1.350 . S
C399 C398 1.434 . S
C400 C401 1.369 . S
C400 C402 1.419 . S
C400 H404 0.930 . S
C401 C400 1.369 . S
C401 C410 1.429 . S
C402 C400 1.419 . S
C402 C403 1.363 . S
C402 H405 0.929 . S
C403 C402 1.363 . S
C403 C409 1.428 . S
H404 C400 0.930 . S
H405 C402 0.929 . S
S406 N407 1.613 . S
S406 N408 1.610 . S
N407 S406 1.613 . S
N407 C410 1.350 . S
N408 S406 1.610 . S
N408 C409 1.351 . S
C409 C403 1.428 . S
C409 N408 1.351 . S
C409 C410 1.434 . S
C410 C401 1.429 . S
C410 N407 1.350 . S
C410 C409 1.434 . S
C411 C412 1.369 . S
C411 C413 1.419 . S
C411 H415 0.930 . S
C412 C411 1.369 . S
C412 C421 1.429 1_556 S
C413 C411 1.419 . S
C413 C414 1.363 1_556 S
C413 H416 0.929 . S
C414 C413 1.363 1_554 S
C414 C420 1.428 . S
H415 C411 0.930 . S
H416 C413 0.929 . S
S417 N418 1.613 . S
S417 N419 1.610 . S
N418 S417 1.613 . S
N418 C421 1.350 . S
N419 S417 1.610 . S
N419 C420 1.351 . S
C420 C414 1.428 . S
C420 N419 1.351 . S
C420 C421 1.434 . S
C421 C412 1.429 1_554 S
C421 N418 1.350 . S
C421 C420 1.434 . S
C422 C423 1.369 . S
C422 C424 1.419 . S
C422 H426 0.930 . S
C423 C422 1.369 . S
C423 C432 1.429 . S
C424 C422 1.419 . S
C424 C425 1.363 . S
C424 H427 0.929 . S
C425 C424 1.363 . S
C425 C431 1.428 . S
H426 C422 0.930 . S
H427 C424 0.929 . S
S428 N429 1.613 . S
S428 N430 1.610 . S
N429 S428 1.613 . S
N429 C432 1.350 . S
N430 S428 1.610 . S
N430 C431 1.351 . S
C431 C425 1.428 . S
C431 N430 1.351 . S
C431 C432 1.434 . S
C432 C423 1.429 . S
C432 N429 1.350 . S
C432 C431 1.434 . S
C433 C434 1.369 . S
C433 C435 1.419 . S
C433 H437 0.930 . S
C434 C433 1.369 . S
C434 C443 1.429 . S
C435 C433 1.419 . S
C435 C436 1.363 . S
C435 H438 0.929 . S
C436 C435 1.363 . S
C436 C442 1.428 . S
H437 C433 0.930 . S
H438 C435 0.929 . S
S439 N440 1.613 . S
S439 N441 1.610 . S
N440 S439 1.613 . S
N440 C443 1.350 . S
N441 S439 1.610 . S
N441 C442 1.351 . S
C442 C436 1.428 . S
C442 N441 1.351 . S
C442 C443 1.434 . S
C443 C434 1.429 . S
C443 N440 1.350 . S
C443 C442 1.434 . S
C444 C445 1.369 . S
C444 C446 1.419 . S
C444 H448 0.930 . S
C445 C444 1.369 . S
C445 C454 1.429 . S
C446 C444 1.419 . S
C446 C447 1.363 . S
C446 H449 0.929 . S
C447 C446 1.363 . S
C447 C453 1.428 . S
H448 C444 0.930 . S
H449 C446 0.929 . S
S450 N451 1.613 . S
S450 N452 1.610 . S
N451 S450 1.613 . S
N451 C454 1.350 . S
N452 S450 1.610 . S
N452 C453 1.351 . S
C453 C447 1.428 . S
C453 N452 1.351 . S
C453 C454 1.434 . S
C454 C445 1.429 . S
C454 N451 1.350 . S
C454 C453 1.434 . S
C455 C456 1.369 . S
C455 C457 1.419 . S
C455 H459 0.930 . S
C456 C455 1.369 . S
C456 C465 1.429 . S
C457 C455 1.419 . S
C457 C458 1.363 . S
C457 H460 0.929 . S
C458 C457 1.363 . S
C458 C464 1.428 . S
H459 C455 0.930 . S
H460 C457 0.929 . S
S461 N462 1.613 . S
S461 N463 1.610 . S
N462 S461 1.613 . S
N462 C465 1.350 . S
N463 S461 1.610 . S
N463 C464 1.351 . S
C464 C458 1.428 . S
C464 N463 1.351 . S
C464 C465 1.434 . S
C465 C456 1.429 . S
C465 N462 1.350 . S
C465 C464 1.434 . S
C466 C467 1.369 . S
C466 C468 1.419 . S
C466 H470 0.930 . S
C467 C466 1.369 . S
C467 C476 1.429 . S
C468 C466 1.419 . S
C468 C469 1.363 . S
C468 H471 0.929 . S
C469 C468 1.363 . S
C469 C475 1.428 . S
H470 C466 0.930 . S
H471 C468 0.929 . S
S472 N473 1.613 . S
S472 N474 1.610 . S
N473 S472 1.613 . S
N473 C476 1.350 . S
N474 S472 1.610 . S
N474 C475 1.351 . S
C475 C469 1.428 . S
C475 N474 1.351 . S
C475 C476 1.434 . S
C476 C467 1.429 . S
C476 N473 1.350 . S
C476 C475 1.434 . S
C477 C478 1.369 . S
C477 C479 1.419 . S
C477 H481 0.930 . S
C478 C477 1.369 . S
C478 C487 1.429 . S
C479 C477 1.419 . S
C479 C480 1.363 . S
C479 H482 0.929 . S
C480 C479 1.363 . S
C480 C486 1.428 . S
H481 C477 0.930 . S
H482 C479 0.929 . S
S483 N484 1.613 . S
S483 N485 1.610 . S
N484 S483 1.613 . S
N484 C487 1.350 . S
N485 S483 1.610 . S
N485 C486 1.351 . S
C486 C480 1.428 . S
C486 N485 1.351 . S
C486 C487 1.434 . S
C487 C478 1.429 . S
C487 N484 1.350 . S
C487 C486 1.434 . S
C488 C489 1.369 . S
C488 C490 1.419 . S
C488 H492 0.930 . S
C489 C488 1.369 . S
C489 C498 1.429 . S
C490 C488 1.419 . S
C490 C491 1.374 . S
C490 H493 0.929 . S
C491 C490 1.374 . S
C491 C497 1.428 . S
H492 C488 0.930 . S
H493 C490 0.929 . S
S494 N495 1.613 1_554 S
S494 N496 1.610 . S
N495 S494 1.613 1_556 S
N495 C498 1.350 . S
N496 S494 1.610 . S
N496 C497 1.351 1_554 S
C497 C491 1.428 . S
C497 N496 1.351 1_556 S
C497 C498 1.434 . S
C498 C489 1.429 . S
C498 N495 1.350 . S
C498 C497 1.434 . S
C499 C500 1.369 . S
C499 C501 1.419 . S
C499 H503 0.930 . S
C500 C499 1.369 . S
C500 C509 1.429 . S
C501 C499 1.419 . S
C501 C502 1.363 . S
C501 H504 0.929 . S
C502 C501 1.363 . S
C502 C508 1.428 . S
H503 C499 0.930 . S
H504 C501 0.929 . S
S505 N506 1.613 . S
S505 N507 1.610 . S
N506 S505 1.613 . S
N506 C509 1.350 . S
N507 S505 1.610 . S
N507 C508 1.351 . S
C508 C502 1.428 . S
C508 N507 1.351 . S
C508 C509 1.434 . S
C509 C500 1.429 . S
C509 N506 1.350 . S
C509 C508 1.434 . S
C510 C511 1.369 . S
C510 C512 1.419 . S
C510 H514 0.930 . S
C511 C510 1.369 . S
C511 C520 1.429 . S
C512 C510 1.419 . S
C512 C513 1.363 . S
C512 H515 0.929 . S
C513 C512 1.363 . S
C513 C519 1.428 . S
H514 C510 0.930 . S
H515 C512 0.929 . S
S516 N517 1.613 . S
S516 N518 1.610 . S
N517 S516 1.613 . S
N517 C520 1.350 . S
N518 S516 1.610 . S
N518 C519 1.351 . S
C519 C513 1.428 . S
C519 N518 1.351 . S
C519 C520 1.434 . S
C520 C511 1.429 . S
C520 N517 1.350 . S
C520 C519 1.434 . S
C521 C522 1.369 . S
C521 C523 1.419 . S
C521 H525 0.930 . S
C522 C521 1.369 . S
C522 C531 1.429 . S
C523 C521 1.419 . S
C523 C524 1.363 . S
C523 H526 0.929 . S
C524 C523 1.363 . S
C524 C530 1.428 . S
H525 C521 0.930 . S
H526 C523 0.929 . S
S527 N528 1.613 . S
S527 N529 1.610 . S
N528 S527 1.613 . S
N528 C531 1.350 . S
N529 S527 1.610 . S
N529 C530 1.351 . S
C530 C524 1.428 . S
C530 N529 1.351 . S
C530 C531 1.434 . S
C531 C522 1.429 . S
C531 N528 1.350 . S
C531 C530 1.434 . S
C532 C533 1.369 . S
C532 C534 1.419 . S
C532 H536 0.930 . S
C533 C532 1.369 . S
C533 C542 1.429 . S
C534 C532 1.419 . S
C534 C535 1.363 . S
C534 H537 0.929 . S
C535 C534 1.363 . S
C535 C541 1.428 . S
H536 C532 0.930 . S
H537 C534 0.929 . S
S538 N539 1.613 . S
S538 N540 1.610 . S
N539 S538 1.613 . S
N539 C542 1.350 . S
N540 S538 1.610 . S
N540 C541 1.351 . S
C541 C535 1.428 . S
C541 N540 1.351 . S
C541 C542 1.434 . S
C542 C533 1.429 . S
C542 N539 1.350 . S
C542 C541 1.434 . S
C543 C544 1.369 . S
C543 C545 1.419 . S
C543 H547 0.930 . S
C544 C543 1.369 . S
C544 C553 1.429 . S
C545 C543 1.419 . S
C545 C546 1.363 . S
C545 H548 0.929 . S
C546 C545 1.363 . S
C546 C552 1.428 . S
H547 C543 0.930 . S
H548 C545 0.929 . S
S549 N550 1.613 . S
S549 N551 1.610 . S
N550 S549 1.613 . S
N550 C553 1.350 . S
N551 S549 1.610 . S
N551 C552 1.351 . S
C552 C546 1.428 . S
C552 N551 1.351 . S
C552 C553 1.434 . S
C553 C544 1.429 . S
C553 N550 1.350 . S
C553 C552 1.434 . S
C554 C555 1.369 . S
C554 C556 1.419 . S
C554 H558 0.930 . S
C555 C554 1.369 . S
C555 C564 1.429 . S
C556 C554 1.419 . S
C556 C557 1.363 . S
C556 H559 0.929 . S
C557 C556 1.363 . S
C557 C563 1.428 . S
H558 C554 0.930 . S
H559 C556 0.929 . S
S560 N561 1.613 . S
S560 N562 1.610 . S
N561 S560 1.613 . S
N561 C564 1.350 . S
N562 S560 1.610 . S
N562 C563 1.351 . S
C563 C557 1.428 . S
C563 N562 1.351 . S
C563 C564 1.434 . S
C564 C555 1.429 . S
C564 N561 1.350 . S
C564 C563 1.434 . S
C565 C566 1.369 . S
C565 C567 1.419 . S
C565 H569 0.930 . S
C566 C565 1.369 . S
C566 C575 1.429 . S
C567 C565 1.419 . S
C567 C568 1.363 . S
C567 H570 0.929 . S
C568 C567 1.363 . S
C568 C574 1.428 . S
H569 C565 0.930 . S
H570 C567 0.929 . S
S571 N572 1.613 . S
S571 N573 1.610 . S
N572 S571 1.613 . S
N572 C575 1.350 . S
N573 S571 1.610 . S
N573 C574 1.351 . S
C574 C568 1.428 . S
C574 N573 1.351 . S
C574 C575 1.434 . S
C575 C566 1.429 . S
C575 N572 1.350 . S
C575 C574 1.434 . S
C313 C6 1.232 . S
C315 C159 1.269 . S
C324 C21 1.444 . S
C326 C208 1.488 . S
C337 C234 2.014 . S
C335 C49 2.034 . S
C346 C68 2.185 . S
C348 C282 2.230 . S
C359 C194 2.825 . S
C357 C2 2.674 . S
C370 C162 0.633 1_565 S
C368 C30 0.627 . S
C381 C283 2.004 . S
C379 C40 2.060 . S
C392 C251 1.717 . S
C390 C63 1.715 . S
C401 C11 1.377 . S
C403 C279 1.577 . S
C414 C211 2.611 . S
C412 C44 2.678 . S
C423 C59 2.030 . S
C425 C163 2.039 . S
C434 C25 1.671 . S
C436 C248 1.613 . S
C447 C168 1.375 . S
C445 C82 1.370 . S
C456 C101 1.375 . S
C458 C199 1.393 . S
C467 C125 2.277 . S
C469 C243 2.390 . S
C478 C144 1.990 . S
C480 C291 2.056 . S
C489 C87 1.966 . S
C491 C203 2.122 1_556 S
C502 C171 1.679 . S
C500 C97 1.693 . S
C513 C274 1.778 . S
C511 C120 1.853 . S
C524 C242 1.734 . S
C522 C135 1.845 . S
C533 C78 1.889 . S
C535 C288 2.051 . S
C546 C202 1.966 . S
C544 C116 2.010 . S
C557 C154 2.626 . S
C555 C139 2.623 . S
C566 C106 0.909 . S
C568 C239 1.169 . S
