# Generated by pormake.
# Topology zzz, (3,6)-cn, num edge types: 1
# Building blocks:
#     Node 0, Type 0, BuildingBlock: MIDCAF_clean_linker_0, # of connection points: 3
#     Node 1, Type 0, BuildingBlock: MIDCAF_clean_linker_0, # of connection points: 3
#     Node 2, Type 0, BuildingBlock: MIDCAF_clean_linker_0, # of connection points: 3
#     Node 3, Type 0, BuildingBlock: MIDCAF_clean_linker_0, # of connection points: 3
#     Node 4, Type 0, BuildingBlock: MIDCAF_clean_linker_0, # of connection points: 3
#     Node 5, Type 0, BuildingBlock: MIDCAF_clean_linker_0, # of connection points: 3
#     Node 6, Type 0, BuildingBlock: MIDCAF_clean_linker_0, # of connection points: 3
#     Node 7, Type 0, BuildingBlock: MIDCAF_clean_linker_0, # of connection points: 3
#     Node 8, Type 1, BuildingBlock: BETFAJ_clean_sbu_0, # of connection points: 6
#     Node 9, Type 1, BuildingBlock: BETFAJ_clean_sbu_0, # of connection points: 6
#     Node 10, Type 1, BuildingBlock: BETFAJ_clean_sbu_0, # of connection points: 6
#     Node 11, Type 1, BuildingBlock: BETFAJ_clean_sbu_0, # of connection points: 6
#     Edge 12, Type (0, 1), BuildingBlock: KIFKEQ_clean_linker_1, # of connection points: 2
#     Edge 13, Type (0, 1), BuildingBlock: KIFKEQ_clean_linker_1, # of connection points: 2
#     Edge 14, Type (0, 1), BuildingBlock: KIFKEQ_clean_linker_1, # of connection points: 2
#     Edge 15, Type (0, 1), BuildingBlock: KIFKEQ_clean_linker_1, # of connection points: 2
#     Edge 16, Type (0, 1), BuildingBlock: KIFKEQ_clean_linker_1, # of connection points: 2
#     Edge 17, Type (0, 1), BuildingBlock: KIFKEQ_clean_linker_1, # of connection points: 2
#     Edge 18, Type (0, 1), BuildingBlock: KIFKEQ_clean_linker_1, # of connection points: 2
#     Edge 19, Type (0, 1), BuildingBlock: KIFKEQ_clean_linker_1, # of connection points: 2
#     Edge 20, Type (0, 1), BuildingBlock: KIFKEQ_clean_linker_1, # of connection points: 2
#     Edge 21, Type (0, 1), BuildingBlock: KIFKEQ_clean_linker_1, # of connection points: 2
#     Edge 22, Type (0, 1), BuildingBlock: KIFKEQ_clean_linker_1, # of connection points: 2
#     Edge 23, Type (0, 1), BuildingBlock: KIFKEQ_clean_linker_1, # of connection points: 2
#     Edge 24, Type (0, 1), BuildingBlock: KIFKEQ_clean_linker_1, # of connection points: 2
#     Edge 25, Type (0, 1), BuildingBlock: KIFKEQ_clean_linker_1, # of connection points: 2
#     Edge 26, Type (0, 1), BuildingBlock: KIFKEQ_clean_linker_1, # of connection points: 2
#     Edge 27, Type (0, 1), BuildingBlock: KIFKEQ_clean_linker_1, # of connection points: 2
#     Edge 28, Type (0, 1), BuildingBlock: KIFKEQ_clean_linker_1, # of connection points: 2
#     Edge 29, Type (0, 1), BuildingBlock: KIFKEQ_clean_linker_1, # of connection points: 2
#     Edge 30, Type (0, 1), BuildingBlock: KIFKEQ_clean_linker_1, # of connection points: 2
#     Edge 31, Type (0, 1), BuildingBlock: KIFKEQ_clean_linker_1, # of connection points: 2
#     Edge 32, Type (0, 1), BuildingBlock: KIFKEQ_clean_linker_1, # of connection points: 2
#     Edge 33, Type (0, 1), BuildingBlock: KIFKEQ_clean_linker_1, # of connection points: 2
#     Edge 34, Type (0, 1), BuildingBlock: KIFKEQ_clean_linker_1, # of connection points: 2
#     Edge 35, Type (0, 1), BuildingBlock: KIFKEQ_clean_linker_1, # of connection points: 2
# Relax obj value: 0.450
# Max RMSD: 0.273
# Mean RMSD: 0.255
data_MOF--net-zzz--node1-BETFAJ_clean_sbu_0--node2-MIDCAF_clean_linker_0--edge1-KIFKEQ_clean_linker_1
_symmetry_space_group_name_H-M    P1
_symmetry_Int_Tables_number       1
_symmetry_cell_setting            triclinic
loop_
_symmetry_equiv_pos_as_xyz
'x, y, z'
_cell_length_a     60.364644
_cell_length_b     60.516727
_cell_length_c     18.510814
_cell_angle_alpha  89.742193
_cell_angle_beta   90.135107
_cell_angle_gamma 90.045117
loop_
_atom_site_label
_atom_site_type_symbol
_atom_site_fract_x
_atom_site_fract_y
_atom_site_fract_z
_atom_type_partial_charge
C0 C 0.80953 0.5264 0.41073 0.0
C1 C 0.82317 0.50975 0.44013 0.0
C2 C 0.81602 0.48774 0.43657 0.0
C3 C 0.79656 0.48224 0.40008 0.0
H4 H 0.69556 0.50125 0.29049 0.0
H5 H 0.66187 0.51267 0.22602 0.0
H6 H 0.70169 0.53281 0.04358 0.0
H7 H 0.73508 0.52142 0.10834 0.0
H8 H 0.76897 0.42419 0.26867 0.0
H9 H 0.79306 0.39843 0.20562 0.0
H10 H 0.79009 0.44045 0.0157 0.0
H11 H 0.7645 0.46456 0.07687 0.0
H12 H 0.7806 0.53379 0.34659 0.0
H13 H 0.81469 0.54353 0.41289 0.0
H14 H 0.82602 0.47461 0.45963 0.0
H15 H 0.7922 0.46492 0.39586 0.0
N16 N 0.74987 0.50457 0.28806 0.0
N17 N 0.74117 0.47847 0.1978 0.0
N18 N 0.77056 0.47188 0.27708 0.0
C19 C 0.73668 0.49775 0.23211 0.0
C20 C 0.75785 0.46532 0.22095 0.0
C21 C 0.76697 0.49141 0.31082 0.0
C22 C 0.71788 0.51092 0.20485 0.0
C23 C 0.69707 0.50903 0.2379 0.0
C24 C 0.67779 0.51525 0.20045 0.0
C25 C 0.67901 0.52349 0.12924 0.0
C26 C 0.70007 0.52678 0.09849 0.0
C27 C 0.71925 0.52037 0.13566 0.0
C28 C 0.76531 0.44645 0.17776 0.0
C29 C 0.77271 0.42715 0.21222 0.0
C30 C 0.7868 0.41261 0.1762 0.0
C31 C 0.79467 0.41781 0.10652 0.0
C32 C 0.78477 0.43567 0.06928 0.0
C33 C 0.77003 0.44972 0.10449 0.0
C34 C 0.78376 0.49855 0.3651 0.0
C35 C 0.78996 0.52084 0.37321 0.0
C36 C 1.00296 0.80543 0.42406 0.0
C37 C 0.02115 0.82007 0.42411 0.0
C38 C 0.03966 0.81485 0.38155 0.0
C39 C 0.03922 0.79674 0.33516 0.0
H40 H 0.04078 0.70225 0.25196 0.0
H41 H 0.04138 0.6649 0.20153 0.0
H42 H 0.97641 0.67566 0.10988 0.0
H43 H 0.97598 0.71279 0.16036 0.0
H44 H 0.03878 0.74545 0.02215 0.0
H45 H 0.0512 0.7633 0.91006 0.0
H46 H 0.02684 0.82589 0.98773 0.0
H47 H 0.01487 0.8083 0.09959 0.0
H48 H 0.98777 0.77702 0.37432 0.0
H49 H 0.98842 0.809 0.4561 0.0
H50 H 0.05413 0.82544 0.38138 0.0
H51 H 0.05318 0.79409 0.29951 0.0
N52 N 0.01319 0.74661 0.27217 0.0
N53 N 0.0159 0.74381 0.14543 0.0
N54 N 0.02186 0.77781 0.20108 0.0
C55 C 0.01197 0.73425 0.21055 0.0
C56 C 0.02075 0.76555 0.14024 0.0
C57 C 0.0181 0.76863 0.26697 0.0
C58 C 1.00821 0.71022 0.21085 0.0
C59 C 0.02615 0.69609 0.22463 0.0
C60 C 0.02661 0.67486 0.19466 0.0
C61 C 0.0091 0.66742 0.15056 0.0
C62 C 0.99011 0.68073 0.14383 0.0
C63 C 0.98977 0.70199 0.17321 0.0
C64 C 0.02601 0.77558 0.06964 0.0
C65 C 0.03577 0.76295 0.01457 0.0
C66 C 0.04288 0.7731 0.95063 0.0
C67 C 0.03979 0.79587 0.94023 0.0
C68 C 0.02911 0.80822 0.99397 0.0
C69 C 0.02245 0.79822 0.05826 0.0
C70 C 0.02042 0.78314 0.33068 0.0
C71 C 1.0026 0.78706 0.37757 0.0
C72 C 0.73224 1.0022 0.43952 0.0
C73 C 0.71911 0.98406 0.46133 0.0
C74 C 0.72724 0.96265 0.44853 0.0
C75 C 0.74675 0.95943 0.40941 0.0
H76 H 0.84826 0.9642 0.31196 0.0
H77 H 0.88442 0.9723 0.25829 0.0
H78 H 0.85475 0.02466 0.13165 0.0
H79 H 0.81894 0.0167 0.18663 0.0
H80 H 0.79963 0.95592 0.07371 0.0
H81 H 0.77936 0.95052 0.96134 0.0
H82 H 0.7211 0.93232 0.08337 0.0
H83 H 0.74137 0.93704 0.19468 0.0
H84 H 0.76088 0.01316 0.37994 0.0
H85 H 0.72655 0.01894 0.44817 0.0
H86 H 0.71801 0.94825 0.4661 0.0
H87 H 0.75165 0.9427 0.39631 0.0
N88 N 0.79554 0.98354 0.32154 0.0
N89 N 0.8015 0.9675 0.20736 0.0
N90 N 0.76833 0.96097 0.26799 0.0
C91 C 0.8089 0.97999 0.26305 0.0
C92 C 0.78128 0.9579 0.20926 0.0
C93 C 0.77516 0.97361 0.3242 0.0
C94 C 0.83095 0.99017 0.25469 0.0
C95 C 0.84981 0.97818 0.27556 0.0
C96 C 0.87042 0.98258 0.24363 0.0
C97 C 0.87254 0.99892 0.18954 0.0
C98 C 0.85394 0.01211 0.17342 0.0
C99 C 0.83337 0.00768 0.20535 0.0
C100 C 0.77182 0.94782 0.14329 0.0
C101 C 0.78272 0.94999 0.07651 0.0
C102 C 0.7711 0.94693 0.01193 0.0
C103 C 0.7484 0.94172 0.01314 0.0
C104 C 0.73852 0.93645 0.07985 0.0
C105 C 0.75013 0.93942 0.14423 0.0
C106 C 0.75898 0.97748 0.38301 0.0
C107 C 0.75203 0.99893 0.40079 0.0
C108 C 0.4229 0.72643 0.22384 0.0
C109 C 0.41594 0.73112 0.15285 0.0
C110 C 0.42205 0.75145 0.12154 0.0
C111 C 0.4371 0.76537 0.15667 0.0
H112 H 0.46765 0.82848 0.17917 0.0
H113 H 0.47801 0.86111 0.11187 0.0
H114 H 0.5471 0.84787 0.15516 0.0
H115 H 0.5366 0.81434 0.22231 0.0
H116 H 0.5008 0.76382 0.46065 0.0
H117 H 0.51175 0.73152 0.53202 0.0
H118 H 0.53868 0.7015 0.33987 0.0
H119 H 0.52837 0.73418 0.27002 0.0
H120 H 0.44425 0.73524 0.31112 0.0
H121 H 0.41862 0.71095 0.2499 0.0
H122 H 0.41662 0.75575 0.06747 0.0
H123 H 0.44293 0.77997 0.1285 0.0
N124 N 0.47396 0.7891 0.22267 0.0
N125 N 0.50777 0.78557 0.28556 0.0
N126 N 0.48007 0.7584 0.29655 0.0
C127 C 0.49425 0.79737 0.24012 0.0
C128 C 0.5004 0.7661 0.31446 0.0
C129 C 0.46673 0.76971 0.25074 0.0
C130 C 0.50129 0.81858 0.20599 0.0
C131 C 0.48511 0.83245 0.17506 0.0
C132 C 0.49106 0.85142 0.13679 0.0
C133 C 0.51341 0.85729 0.12808 0.0
C134 C 0.52971 0.84377 0.16038 0.0
C135 C 0.5237 0.82465 0.19935 0.0
C136 C 0.51424 0.75169 0.36031 0.0
C137 C 0.51012 0.75078 0.4348 0.0
C138 C 0.51599 0.73202 0.47523 0.0
C139 C 0.52573 0.71357 0.44166 0.0
C140 C 0.53141 0.71533 0.36806 0.0
C141 C 0.52567 0.73417 0.32788 0.0
C142 C 0.44626 0.75912 0.22361 0.0
C143 C 0.4379 0.74028 0.25881 0.0
C144 C 0.23125 0.50694 1.00482 0.0
C145 C 0.22238 0.49346 0.95003 0.0
C146 C 0.23393 0.47425 0.93071 0.0
C147 C 0.25251 0.46743 0.97006 0.0
H148 H 0.32248 0.50349 0.16584 0.0
H149 H 0.35571 0.51475 0.23299 0.0
H150 H 0.35846 0.45033 0.33389 0.0
H151 H 0.326 0.43906 0.2669 0.0
H152 H 0.27493 0.42007 0.30656 0.0
H153 H 0.24497 0.40328 0.37563 0.0
H154 H 0.20453 0.40172 0.18236 0.0
H155 H 0.23465 0.41694 0.11366 0.0
H156 H 0.25499 0.50947 0.09138 0.0
H157 H 0.22267 0.52183 0.02102 0.0
H158 H 0.22772 0.46368 0.88812 0.0
H159 H 0.25977 0.45149 0.95801 0.0
N160 N 0.29117 0.47505 0.11872 0.0
N161 N 0.28975 0.44508 0.20058 0.0
N162 N 0.26222 0.44915 0.11319 0.0
C163 C 0.30039 0.46335 0.17486 0.0
C164 C 0.27068 0.43786 0.16996 0.0
C165 C 0.27211 0.46757 0.08713 0.0
C166 C 0.32136 0.4704 0.21101 0.0
C167 C 0.33035 0.49169 0.20177 0.0
C168 C 0.34933 0.49818 0.24062 0.0
C169 C 0.35987 0.48344 0.28893 0.0
C170 C 0.35111 0.46205 0.29653 0.0
C171 C 0.33222 0.45566 0.25834 0.0
C172 C 0.25676 0.42082 0.20535 0.0
C173 C 0.25996 0.41523 0.27838 0.0
C174 C 0.24264 0.40578 0.31816 0.0
C175 C 0.22179 0.40217 0.28576 0.0
C176 C 0.22005 0.40447 0.21025 0.0
C177 C 0.2374 0.41355 0.1705 0.0
C178 C 0.26002 0.47963 0.02969 0.0
C179 C 0.24992 0.50002 0.0446 0.0
C180 C 0.99244 0.21865 0.01181 0.0
C181 C 0.01237 0.21562 0.97408 0.0
C182 C 0.02958 0.23112 0.98444 0.0
C183 C 0.02717 0.2486 0.0338 0.0
H184 H 0.05093 0.31793 0.19991 0.0
H185 H 0.0601 0.35419 0.25069 0.0
H186 H 0.99032 0.36991 0.26001 0.0
H187 H 0.98153 0.33412 0.20843 0.0
H188 H 0.97225 0.28978 0.36951 0.0
H189 H 0.95818 0.27234 0.48074 0.0
H190 H 0.98364 0.20949 0.40971 0.0
H191 H 0.99715 0.22649 0.29904 0.0
H192 H 0.97489 0.23696 0.09168 0.0
H193 H 0.97891 0.20701 0.00631 0.0
H194 H 0.04511 0.22939 0.95584 0.0
H195 H 0.04098 0.25966 0.0433 0.0
N196 N 0.01268 0.28708 0.1364 0.0
N197 N 1.00027 0.29096 0.25651 0.0
N198 N 0.9971 0.25691 0.19893 0.0
C199 C 0.00949 0.29988 0.19627 0.0
C200 C 0.9943 0.26945 0.2585 0.0
C201 C 1.00604 0.26545 0.13769 0.0
C202 C 0.01556 0.32344 0.19933 0.0
C203 C 0.03774 0.32968 0.20945 0.0
C204 C 0.0429 0.35029 0.23977 0.0
C205 C 0.02595 0.36495 0.26066 0.0
C206 C 1.00389 0.35931 0.24415 0.0
C207 C 0.99879 0.33878 0.21423 0.0
C208 C 0.98571 0.25944 0.32559 0.0
C209 C 0.97483 0.27225 0.37799 0.0
C210 C 0.96682 0.26236 0.44137 0.0
C211 C 0.97018 0.23973 0.45375 0.0
C212 C 0.98119 0.22707 0.40167 0.0
C213 C 0.98872 0.23676 0.33807 0.0
C214 C 1.00763 0.25065 0.07425 0.0
C215 C 0.99016 0.23583 0.06121 0.0
C216 C 0.30243 0.02749 0.95748 0.0
C217 C 0.31554 0.04558 0.93492 0.0
C218 C 0.30742 0.06702 0.94734 0.0
C219 C 0.28797 0.07034 0.98668 0.0
H220 H 0.18663 0.06727 0.08615 0.0
H221 H 0.15055 0.0601 0.1416 0.0
H222 H 0.1794 1.00688 0.26641 0.0
H223 H 0.21514 0.01393 0.20963 0.0
H224 H 0.2351 0.07514 0.32222 0.0
H225 H 0.25525 0.08081 0.43464 0.0
H226 H 0.3138 0.09815 0.31277 0.0
H227 H 0.29366 0.09311 0.20133 0.0
H228 H 0.27388 0.01669 0.01784 0.0
H229 H 0.30811 0.01073 0.94916 0.0
H230 H 0.31661 0.08138 0.92922 0.0
H231 H 0.28308 0.0871 0.99938 0.0
N232 N 0.23911 0.04674 0.0754 0.0
N233 N 0.23326 0.06318 0.18903 0.0
N234 N 0.26656 0.06914 0.12851 0.0
C235 C 0.22576 0.05061 0.13372 0.0
C236 C 0.25359 0.07253 0.18702 0.0
C237 C 0.25962 0.05642 0.07262 0.0
C238 C 0.20353 0.0408 0.1423 0.0
C239 C 0.18488 0.05329 0.12247 0.0
C240 C 0.16432 0.04943 0.15547 0.0
C241 C 0.16204 0.03314 0.20965 0.0
C242 C 0.18034 0.01943 0.22465 0.0
C243 C 0.20086 0.02332 0.19163 0.0
C244 C 0.26307 0.08276 0.25271 0.0
C245 C 0.25205 0.08093 0.31941 0.0
C246 C 0.2636 0.08417 0.38403 0.0
C247 C 0.28633 0.08922 0.38294 0.0
C248 C 0.29635 0.09416 0.31617 0.0
C249 C 0.28481 0.09099 0.25174 0.0
C250 C 0.27576 0.05236 0.01374 0.0
C251 C 0.2827 0.03086 0.99647 0.0
C252 C 0.41266 0.30458 0.27065 0.0
C253 C 0.41499 0.2979 0.34327 0.0
C254 C 0.41867 0.27534 0.35788 0.0
C255 C 0.42406 0.26086 0.30188 0.0
H256 H 0.5056 0.21635 0.19313 0.0
H257 H 0.51527 0.18285 0.26142 0.0
H258 H 0.44972 0.15679 0.22175 0.0
H259 H 0.44004 0.19047 0.15634 0.0
H260 H 0.4396 0.28121 0.97586 0.0
H261 H 0.45016 0.31419 0.90841 0.0
H262 H 0.51728 0.30765 0.98651 0.0
H263 H 0.50658 0.27417 0.05385 0.0
H264 H 0.41792 0.29649 0.16011 0.0
H265 H 0.40956 0.32165 0.25624 0.0
H266 H 0.4196 0.26932 0.41299 0.0
H267 H 0.42928 0.24425 0.31567 0.0
N268 N 0.44759 0.23677 0.19082 0.0
N269 N 0.47252 0.24011 0.09327 0.0
N270 N 0.44739 0.26861 0.11966 0.0
C271 C 0.46385 0.22801 0.14917 0.0
C272 C 0.46376 0.26041 0.07763 0.0
C273 C 0.43934 0.25713 0.17669 0.0
C274 C 0.47213 0.20587 0.16926 0.0
C275 C 0.49363 0.20305 0.19693 0.0
C276 C 0.49908 0.18389 0.23635 0.0
C277 C 0.48311 0.16726 0.24854 0.0
C278 C 0.46225 0.16945 0.2152 0.0
C279 C 0.45678 0.1886 0.17676 0.0
C280 C 0.47228 0.27507 0.0198 0.0
C281 C 0.45681 0.28632 0.97642 0.0
C282 C 0.46281 0.30539 0.93852 0.0
C283 C 0.48443 0.31388 0.94343 0.0
C284 C 0.50047 0.30154 0.98163 0.0
C285 C 0.49443 0.28226 0.0197 0.0
C286 C 0.42549 0.26872 0.23045 0.0
C287 C 0.41775 0.29009 0.21487 0.0
Sm288 Sm 0.03528 0.01302 0.74502 0.0
Sm289 Sm 0.99928 0.02261 0.65655 0.0
C290 C 0.06557 0.99393 0.82723 0.0
C291 C 0.07799 0.97357 0.81318 0.0
C292 C 0.08263 0.959 0.87004 0.0
C293 C 0.08929 0.93739 0.85549 0.0
C294 C 0.09137 0.93 0.78366 0.0
C295 C 0.08847 0.94527 0.72704 0.0
C296 C 0.08168 0.96683 0.74165 0.0
C297 C 0.0492 0.02803 0.61111 0.0
C298 C 0.01511 0.97333 0.64315 0.0
C299 C 0.96853 0.04119 0.57493 0.0
C300 C 0.95498 0.06071 0.59021 0.0
C301 C 0.94825 0.07455 0.53368 0.0
C302 C 0.9395 0.09538 0.54862 0.0
C303 C 0.93739 0.10272 0.62051 0.0
C304 C 0.94278 0.0881 0.67706 0.0
C305 C 0.95163 0.06732 0.66203 0.0
C306 C 0.9856 0.00739 0.79036 0.0
C307 C 0.01969 0.06257 0.75681 0.0
O308 O 0.04433 0.99099 0.8367 0.0
O309 O 0.06995 0.01067 0.78489 0.0
O310 O 0.03409 0.01391 0.62123 0.0
O311 O 0.05648 0.03544 0.67221 0.0
O312 O 0.0244 0.97801 0.70582 0.0
O313 O 1.00658 0.98938 0.60405 0.0
O314 O 0.98965 0.04527 0.5672 0.0
O315 O 0.96473 0.02387 0.6153 0.0
O316 O 1.0005 0.02173 0.78019 0.0
O317 O 0.9784 0.9999 0.72931 0.0
O318 O 0.00992 0.05761 0.69519 0.0
O319 O 0.02876 0.04677 0.79577 0.0
H320 H 0.0796 0.96384 0.92543 0.0
H321 H 0.09101 0.92605 0.90056 0.0
H322 H 0.09014 0.94021 0.67127 0.0
H323 H 0.07795 0.97778 0.69675 0.0
H324 H 0.95098 0.06981 0.47803 0.0
H325 H 0.93595 0.10629 0.50355 0.0
H326 H 0.94121 0.09312 0.7329 0.0
H327 H 0.95698 0.05691 0.70656 0.0
Sm328 Sm 0.52573 0.02816 0.75658 0.0
Sm329 Sm 0.5086 1.00207 0.63424 0.0
C330 C 0.55124 0.04129 0.86308 0.0
C331 C 0.57372 0.03275 0.87806 0.0
C332 C 0.57682 0.01021 0.89404 0.0
C333 C 0.5978 1.00075 0.88977 0.0
C334 C 0.61616 0.01358 0.86951 0.0
C335 C 0.61336 0.03638 0.85803 0.0
C336 C 0.59231 0.04589 0.86233 0.0
C337 C 0.51153 0.05402 0.6431 0.0
C338 C 0.56105 1.00581 0.64 0.0
C339 C 0.48309 0.98942 0.52719 0.0
C340 C 0.46061 0.99806 0.51294 0.0
C341 C 0.45752 0.02069 0.49833 0.0
C342 C 0.43657 0.03015 0.50358 0.0
C343 C 0.41822 0.01726 0.52354 0.0
C344 C 0.421 0.99439 0.53362 0.0
C345 C 0.44203 0.98487 0.5283 0.0
C346 C 0.52259 0.97612 0.74808 0.0
C347 C 0.47328 0.02405 0.75188 0.0
O348 O 0.53488 0.02738 0.87283 0.0
O349 O 0.54931 0.05252 0.80288 0.0
O350 O 0.52268 0.03646 0.63753 0.0
O351 O 0.50818 0.05894 0.71045 0.0
O352 O 0.55731 0.01218 0.7071 0.0
O353 O 0.54446 1.00266 0.59481 0.0
O354 O 0.49945 1.00337 0.51804 0.0
O355 O 0.48507 0.97788 0.58674 0.0
O356 O 0.51159 0.99379 0.75327 0.0
O357 O 0.52568 0.97102 0.68071 0.0
O358 O 0.47694 0.01773 0.68464 0.0
O359 O 0.48995 0.02728 0.79673 0.0
H360 H 0.56291 0.99951 0.90623 0.0
H361 H 0.59955 0.98325 0.9009 0.0
H362 H 0.62725 0.04669 0.84252 0.0
H363 H 0.59037 0.06324 0.84918 0.0
H364 H 0.47142 0.03143 0.4865 0.0
H365 H 0.43484 0.04771 0.49349 0.0
H366 H 0.40712 0.98403 0.54887 0.0
H367 H 0.44396 0.96745 0.54042 0.0
Sm368 Sm 0.50507 0.52388 0.78272 0.0
Sm369 Sm 0.53046 0.50604 0.64422 0.0
C370 C 0.49377 0.54091 0.90812 0.0
C371 C 0.4768 0.55682 0.93044 0.0
C372 C 0.47962 0.56884 0.99417 0.0
C373 C 0.46415 0.58491 0.01353 0.0
C374 C 0.44558 0.5892 0.96939 0.0
C375 C 0.44262 0.57673 0.90623 0.0
C376 C 0.45814 0.56073 0.88684 0.0
C377 C 0.4753 0.51752 0.66937 0.0
C378 C 0.5226 0.55893 0.65614 0.0
C379 C 0.54003 0.48278 0.52921 0.0
C380 C 0.52891 0.46223 0.5053 0.0
C381 C 0.50973 0.46337 0.4621 0.0
C382 C 0.49594 0.44498 0.45474 0.0
C383 C 0.50128 0.42496 0.48922 0.0
C384 C 0.52132 0.4233 0.52756 0.0
C385 C 0.53501 0.44173 0.53547 0.0
C386 C 0.55704 0.52025 0.75611 0.0
C387 C 0.51102 0.47073 0.76558 0.0
O388 O 0.50989 0.54897 0.8685 0.0
O389 O 0.48631 0.52185 0.885 0.0
O390 O 0.49578 0.51427 0.6706 0.0
O391 O 0.46946 0.52485 0.73213 0.0
O392 O 0.51725 0.55576 0.72496 0.0
O393 O 0.52604 0.54232 0.61125 0.0
O394 O 0.52797 0.50078 0.52599 0.0
O395 O 0.55157 0.48132 0.58919 0.0
O396 O 0.53913 0.50962 0.76268 0.0
O397 O 0.56227 0.52236 0.68821 0.0
O398 O 0.51614 0.47436 0.69709 0.0
O399 O 0.50875 0.48711 0.812 0.0
H400 H 0.49401 0.56612 0.02816 0.0
H401 H 0.4672 0.5945 0.06179 0.0
H402 H 0.42845 0.5795 0.87138 0.0
H403 H 0.4557 0.55164 0.83725 0.0
H404 H 0.5047 0.4788 0.43713 0.0
H405 H 0.48085 0.44656 0.42334 0.0
H406 H 0.52589 0.40805 0.55455 0.0
H407 H 0.54972 0.44019 0.56872 0.0
Sm408 Sm 0.01304 0.50448 0.77442 0.0
Sm409 Sm 0.03229 0.53075 0.62787 0.0
C410 C 0.99482 0.49336 0.89832 0.0
C411 C 0.97762 0.4773 0.91806 0.0
C412 C 0.96115 0.47143 0.86802 0.0
C413 C 0.94436 0.45672 0.88759 0.0
C414 C 0.94385 0.44745 0.95737 0.0
C415 C 0.96096 0.4527 0.00628 0.0
C416 C 0.97767 0.46756 0.98678 0.0
C417 C 0.02268 0.47603 0.66099 0.0
C418 C 0.97834 0.52186 0.64461 0.0
C419 C 0.05224 0.53395 0.50278 0.0
C420 C 0.06814 0.51777 0.473 0.0
C421 C 0.06159 0.50325 0.4178 0.0
C422 C 0.07454 0.48478 0.40103 0.0
C423 C 0.09424 0.48052 0.43929 0.0
C424 C 0.10144 0.49585 0.49106 0.0
C425 C 0.08859 0.51423 0.50769 0.0
C426 C 0.02338 0.55932 0.7409 0.0
C427 C 0.0661 0.51382 0.75784 0.0
O428 O 0.98812 0.51032 0.85952 0.0
O429 O 0.01361 0.48493 0.87612 0.0
O430 O 0.02473 0.49661 0.66438 0.0
O431 O 0.01499 0.46918 0.72264 0.0
O432 O 0.98118 0.51356 0.71072 0.0
O433 O 0.99491 0.5286 0.60269 0.0
O434 O 0.03172 0.52698 0.50848 0.0
O435 O 0.0589 0.545 0.55972 0.0
O436 O 0.0212 0.53871 0.73871 0.0
O437 O 0.03004 0.56617 0.67761 0.0
O438 O 0.06316 0.51699 0.68744 0.0
O439 O 0.04935 0.51204 0.80374 0.0
H440 H 0.96101 0.47857 0.81422 0.0
H441 H 0.93134 0.45331 0.84888 0.0
H442 H 0.96125 0.44558 0.06006 0.0
H443 H 0.99047 0.47166 0.02562 0.0
H444 H 0.04588 0.50551 0.39034 0.0
H445 H 0.06866 0.47334 0.36044 0.0
H446 H 0.11692 0.49347 0.51977 0.0
H447 H 0.09432 0.52508 0.55019 0.0
H448 H 0.1407 0.99663 0.26663 0.0
H449 H 0.13795 0.06794 0.26178 0.0
H450 H 0.11123 0.99602 0.35702 0.0
H451 H 0.10815 0.06726 0.34993 0.0
H452 H 0.08168 0.0578 0.582 0.0
H453 H 0.10638 0.05906 0.47826 0.0
H454 H 0.07178 1.00372 0.3839 0.0
H455 H 0.04701 1.0024 0.48881 0.0
C456 C 0.13364 0.01216 0.28396 0.0
C457 C 0.14188 0.03233 0.25676 0.0
C458 C 0.11657 0.0118 0.33541 0.0
C459 C 0.10739 0.03161 0.36142 0.0
C460 C 0.115 0.05169 0.33199 0.0
C461 C 0.13195 0.05205 0.28049 0.0
C462 C 0.07915 0.04606 0.53873 0.0
C463 C 0.06239 0.03001 0.54371 0.0
C464 C 0.09327 0.04684 0.47893 0.0
C465 C 0.09114 0.03149 0.42243 0.0
C466 C 0.07403 0.01568 0.42664 0.0
C467 C 0.05972 0.01503 0.48644 0.0
H468 H 0.45421 0.1506 0.34827 0.0
H469 H 0.52119 0.14278 0.27084 0.0
H470 H 0.46055 0.1221 0.43862 0.0
H471 H 0.52778 0.11452 0.36368 0.0
H472 H 0.5239 0.05015 0.5012 0.0
H473 H 0.51702 0.07645 0.40249 0.0
H474 H 0.48173 0.11879 0.54998 0.0
H475 H 0.48843 0.09254 0.64782 0.0
C476 C 0.47026 0.14263 0.34981 0.0
C477 C 0.48714 0.14898 0.30161 0.0
C478 C 0.47398 0.12643 0.40249 0.0
C479 C 0.49472 0.11608 0.4089 0.0
C480 C 0.51155 0.12206 0.35996 0.0
C481 C 0.50784 0.1384 0.30716 0.0
C482 C 0.51461 0.06506 0.51226 0.0
C483 C 0.50676 0.06933 0.58229 0.0
C484 C 0.51078 0.08018 0.45587 0.0
C485 C 0.49883 0.09976 0.4682 0.0
C486 C 0.49077 0.10378 0.53822 0.0
C487 C 0.49471 0.08878 0.59449 0.0
H488 H 0.39703 0.45939 0.32389 0.0
H489 H 0.36654 0.52302 0.35787 0.0
H490 H 0.4259 0.4686 0.41095 0.0
H491 H 0.39593 0.5326 0.44282 0.0
H492 H 0.43186 0.52862 0.66167 0.0
H493 H 0.40577 0.5218 0.56381 0.0
H494 H 0.45786 0.49121 0.43962 0.0
H495 H 0.48392 0.49785 0.53911 0.0
C496 C 0.39659 0.47546 0.34934 0.0
C497 C 0.37921 0.49034 0.33434 0.0
C498 C 0.41333 0.48084 0.39882 0.0
C499 C 0.41319 0.50127 0.43474 0.0
C500 C 0.39639 0.51655 0.41723 0.0
C501 C 0.37964 0.51117 0.3677 0.0
C502 C 0.43778 0.52054 0.61331 0.0
C503 C 0.45997 0.51381 0.6079 0.0
C504 C 0.42284 0.51678 0.55681 0.0
C505 C 0.42964 0.50609 0.49325 0.0
C506 C 0.45195 0.4994 0.48778 0.0
C507 C 0.46695 0.50329 0.54447 0.0
H508 H 0.05609 0.36783 0.37141 0.0
H509 H 1.00599 0.40591 0.25973 0.0
H510 H 0.05905 0.39654 0.46245 0.0
H511 H 1.00813 0.43409 0.35302 0.0
H512 H 0.0232 0.48725 0.51753 0.0
H513 H 0.02824 0.46275 0.41411 0.0
H514 H 0.03554 0.40737 0.56036 0.0
H515 H 0.03102 0.43208 0.66284 0.0
C516 C 0.04601 0.38251 0.36523 0.0
C517 C 0.03061 0.38434 0.30827 0.0
C518 C 0.04747 0.39886 0.4183 0.0
C519 C 0.03351 0.41747 0.41618 0.0
C520 C 0.01918 0.42004 0.35665 0.0
C521 C 0.01778 0.40372 0.30337 0.0
C522 C 0.02654 0.47 0.52727 0.0
C523 C 0.02711 0.46169 0.59808 0.0
C524 C 0.02913 0.45585 0.46809 0.0
C525 C 0.03251 0.43304 0.47858 0.0
C526 C 0.03345 0.42487 0.54988 0.0
C527 C 0.03067 0.43899 0.60876 0.0
H528 H 0.89787 0.96482 0.13882 0.0
H529 H 0.89309 0.03603 0.13376 0.0
H530 H 0.92793 0.96635 0.0517 0.0
H531 H 0.92281 0.03747 0.04436 0.0
H532 H 0.9872 0.03299 0.91288 0.0
H533 H 0.96252 0.03089 0.01795 0.0
H534 H 0.92951 0.97462 0.92339 0.0
H535 H 0.9541 0.97666 0.81956 0.0
C536 C 0.90348 0.98088 0.12033 0.0
C537 C 0.8929 1.00031 0.14358 0.0
C538 C 0.92059 0.98172 0.06943 0.0
C539 C 0.92768 1.00201 0.04016 0.0
C540 C 0.91787 0.02155 0.06586 0.0
C541 C 0.90067 0.0207 0.11673 0.0
C542 C 0.97486 0.01999 0.91528 0.0
C543 C 0.97258 1.00499 0.85792 0.0
C544 C 0.96061 0.01889 0.97516 0.0
C545 C 0.94396 1.00259 0.97931 0.0
C546 C 0.94226 0.98721 0.92275 0.0
C547 C 0.95632 0.98844 0.8629 0.0
H548 H 0.54726 0.86151 0.02951 0.0
H549 H 0.4926 0.89748 0.12223 0.0
H550 H 0.55344 0.8917 0.94396 0.0
H551 H 0.49785 0.9269 0.03458 0.0
H552 H 0.51667 0.98352 0.89223 0.0
H553 H 0.51874 0.95667 0.99079 0.0
H554 H 0.53663 0.90585 0.83822 0.0
H555 H 0.53551 0.93298 0.74071 0.0
C556 C 0.53674 0.87596 0.03235 0.0
C557 C 0.51925 0.87687 0.08234 0.0
C558 C 0.54007 0.89318 0.98251 0.0
C559 C 0.52598 0.91175 0.98126 0.0
C560 C 0.50921 0.91308 0.03376 0.0
C561 C 0.50598 0.89598 0.08369 0.0
C562 C 0.52133 0.96666 0.88008 0.0
C563 C 0.52571 0.96031 0.80866 0.0
C564 C 0.52238 0.95118 0.93652 0.0
C565 C 0.52759 0.92889 0.92282 0.0
C566 C 0.53281 0.92283 0.85145 0.0
C567 C 0.53199 0.93837 0.79521 0.0
H568 H 0.64292 0.49615 0.12153 0.0
H569 H 0.66915 0.55686 0.03307 0.0
H570 H 0.61211 0.49784 0.03671 0.0
H571 H 0.63809 0.55877 0.94859 0.0
H572 H 0.5513 0.51202 0.90066 0.0
H573 H 0.57881 0.51561 0.99725 0.0
H574 H 0.62642 0.5401 0.84225 0.0
H575 H 0.5988 0.53705 0.7468 0.0
C576 C 0.64183 0.51019 0.0852 0.0
C577 C 0.65863 0.52633 0.08409 0.0
C578 C 0.62409 0.51116 0.03631 0.0
C579 C 0.62259 0.52834 0.98502 0.0
C580 C 0.63888 0.54502 0.98613 0.0
C581 C 0.65668 0.54399 0.03482 0.0
C582 C 0.56759 0.5184 0.88759 0.0
C583 C 0.57293 0.52412 0.81605 0.0
C584 C 0.58343 0.52034 0.94284 0.0
C585 C 0.60498 0.52804 0.92784 0.0
C586 C 0.60998 0.53439 0.85642 0.0
C587 C 0.59416 0.5325 0.80138 0.0
H588 H 0.04552 0.65703 0.07113 0.0
H589 H 0.97907 0.6346 0.11714 0.0
H590 H 0.04873 0.62937 0.97661 0.0
H591 H 0.98234 0.60681 0.02157 0.0
H592 H 0.00869 0.54781 0.87649 0.0
H593 H 1.00527 0.57191 0.98239 0.0
H594 H 0.02874 0.62705 0.85515 0.0
H595 H 0.03171 0.60321 0.74978 0.0
C596 C 0.03178 0.64583 0.06242 0.0
C597 C 0.01204 0.64804 0.10196 0.0
C598 C 0.03355 0.63014 0.00756 0.0
C599 C 0.01571 0.6161 0.99112 0.0
C600 C 0.99637 0.61741 0.0331 0.0
C601 C 0.99448 0.63335 0.0876 0.0
C602 C 0.01283 0.56512 0.87116 0.0
C603 C 0.02033 0.57364 0.8048 0.0
C604 C 0.01092 0.57889 0.9317 0.0
C605 C 0.01691 0.60132 0.92718 0.0
C606 C 0.02428 0.60978 0.86059 0.0
C607 C 0.02585 0.59614 0.80012 0.0
H608 H 0.92724 0.23712 0.4982 0.0
H609 H 0.99352 0.21628 0.55228 0.0
H610 H 0.91214 0.20832 0.57728 0.0
H611 H 0.97886 0.18738 0.62919 0.0
H612 H 0.90846 0.13051 0.55072 0.0
H613 H 0.91155 0.17037 0.54501 0.0
H614 H 0.95886 0.169 0.72065 0.0
H615 H 0.95693 0.12896 0.72288 0.0
C616 C 0.93854 0.22696 0.52949 0.0
C617 C 0.96147 0.22846 0.51843 0.0
C618 C 0.92994 0.21037 0.57429 0.0
C619 C 0.94422 0.19507 0.60804 0.0
C620 C 0.96723 0.19873 0.60437 0.0
C621 C 0.97575 0.21523 0.55976 0.0
C622 C 0.91916 0.13874 0.5892 0.0
C623 C 0.93312 0.12647 0.63499 0.0
C624 C 0.92069 0.16174 0.58683 0.0
C625 C 0.93607 0.17291 0.63082 0.0
C626 C 0.94736 0.16084 0.68454 0.0
C627 C 0.94608 0.13781 0.68618 0.0
H628 H 0.32358 0.11124 0.42966 0.0
H629 H 0.28206 0.05489 0.47826 0.0
H630 H 0.35407 0.09384 0.49426 0.0
H631 H 0.31212 0.03815 0.54592 0.0
H632 H 0.37791 1.00221 0.47871 0.0
H633 H 0.34291 0.02186 0.48057 0.0
H634 H 0.37392 0.07602 0.59398 0.0
H635 H 0.40915 0.05615 0.59226 0.0
C636 C 0.32065 0.09561 0.45675 0.0
C637 C 0.30067 0.0841 0.44619 0.0
C638 C 0.33809 0.08568 0.49442 0.0
C639 C 0.33569 0.06423 0.52285 0.0
C640 C 0.31461 0.05442 0.52265 0.0
C641 C 0.29725 0.06423 0.48444 0.0
C642 C 0.37715 0.01803 0.50575 0.0
C643 C 0.39635 0.02784 0.53386 0.0
C644 C 0.35702 0.02929 0.50735 0.0
C645 C 0.35564 0.0506 0.53721 0.0
C646 C 0.37453 0.05976 0.56985 0.0
C647 C 0.3947 0.04846 0.56828 0.0
H648 H 0.44394 0.29538 0.45764 0.0
H649 H 0.39677 0.33965 0.3566 0.0
H650 H 0.46149 0.32635 0.5161 0.0
H651 H 0.41578 0.37091 0.41032 0.0
H652 H 0.45639 0.42537 0.50906 0.0
H653 H 0.43079 0.39411 0.50187 0.0
H654 H 0.4859 0.35082 0.45562 0.0
H655 H 0.51124 0.38181 0.46428 0.0
C656 C 0.43673 0.31157 0.44938 0.0
C657 C 0.41942 0.31498 0.39939 0.0
C658 C 0.44718 0.32947 0.48216 0.0
C659 C 0.44083 0.35118 0.46484 0.0
C660 C 0.42145 0.35443 0.42382 0.0
C661 C 0.41066 0.33644 0.39223 0.0
C662 C 0.46294 0.4091 0.49756 0.0
C663 C 0.48578 0.406 0.48668 0.0
C664 C 0.44831 0.3912 0.49379 0.0
C665 C 0.45624 0.36988 0.47873 0.0
C666 C 0.47918 0.36684 0.4693 0.0
C667 C 0.49376 0.38466 0.47355 0.0
H668 H 0.21445 0.42232 0.41578 0.0
H669 H 0.18174 0.38156 0.25619 0.0
H670 H 0.17904 0.43294 0.46364 0.0
H671 H 0.14587 0.39342 0.30284 0.0
H672 H 0.10439 0.46172 0.30918 0.0
H673 H 0.13176 0.43296 0.2869 0.0
H674 H 0.14173 0.42508 0.51664 0.0
H675 H 0.11411 0.45365 0.53908 0.0
C676 C 0.19985 0.41478 0.39247 0.0
C677 C 0.20116 0.40159 0.33011 0.0
C678 C 0.17935 0.42105 0.42007 0.0
C679 C 0.15969 0.41448 0.38573 0.0
C680 C 0.16084 0.39911 0.3293 0.0
C681 C 0.18142 0.39244 0.30245 0.0
C682 C 0.11189 0.45337 0.35497 0.0
C683 C 0.10757 0.46037 0.42576 0.0
C684 C 0.12749 0.43678 0.34226 0.0
C685 C 0.13905 0.42694 0.40011 0.0
C686 C 0.13326 0.43257 0.47107 0.0
C687 C 0.11761 0.44906 0.48377 0.0
H688 H 0.0825 0.79377 0.89374 0.0
H689 H 0.01965 0.82492 0.84903 0.0
H690 H 0.10122 0.82148 0.8192 0.0
H691 H 0.03814 0.85271 0.77591 0.0
H692 H 0.1154 0.89825 0.85551 0.0
H693 H 0.10645 0.85919 0.85978 0.0
H694 H 0.06113 0.86771 0.68076 0.0
H695 H 0.06939 0.907 0.67857 0.0
C696 C 0.07261 0.80601 0.86549 0.0
C697 C 0.04973 0.8076 0.87812 0.0
C698 C 0.08333 0.82193 0.82319 0.0
C699 C 0.07127 0.83959 0.79297 0.0
C700 C 0.04801 0.83937 0.79817 0.0
C701 C 0.03736 0.82356 0.84063 0.0
C702 C 0.10398 0.8917 0.81579 0.0
C703 C 0.09243 0.90591 0.76884 0.0
C704 C 0.09904 0.86917 0.81748 0.0
C705 C 0.08254 0.86045 0.77193 0.0
C706 C 0.07352 0.87407 0.71771 0.0
C707 C 0.07838 0.89662 0.71627 0.0
H708 H 0.71113 0.91972 0.96642 0.0
H709 H 0.75242 0.9763 0.9186 0.0
H710 H 0.68057 0.93707 0.90206 0.0
H711 H 0.72231 0.99297 0.85102 0.0
H712 H 0.65631 0.02883 0.91506 0.0
H713 H 0.69136 0.00923 0.91489 0.0
H714 H 0.66075 0.95467 0.80238 0.0
H715 H 0.62547 0.97446 0.80263 0.0
C716 C 0.714 0.9354 0.93962 0.0
C717 C 0.73394 0.94697 0.95026 0.0
C718 C 0.69651 0.9453 0.90206 0.0
C719 C 0.69883 0.96678 0.87376 0.0
C720 C 0.71987 0.97668 0.8742 0.0
C721 C 0.73727 0.96691 0.91234 0.0
C722 C 0.65717 0.01292 0.88863 0.0
C723 C 0.63807 1.00298 0.8603 0.0
C724 C 0.67733 1.00169 0.888 0.0
C725 C 0.67883 0.9803 0.85883 0.0
C726 C 0.66004 0.97099 0.82603 0.0
C727 C 0.63985 0.98225 0.82671 0.0
H728 H 0.42754 0.72115 0.01483 0.0
H729 H 0.38538 0.69908 0.18918 0.0
H730 H 0.42485 0.68534 0.95933 0.0
H731 H 0.38262 0.66276 0.13284 0.0
H732 H 0.42714 0.61923 0.87583 0.0
H733 H 0.4083 0.65347 0.90651 0.0
H734 H 0.41215 0.63602 0.1329 0.0
H735 H 0.42985 0.60135 0.10192 0.0
C736 C 0.41676 0.70902 0.03969 0.0
C737 C 0.40718 0.71284 0.10764 0.0
C738 C 0.41523 0.68828 0.00763 0.0
C739 C 0.40405 0.67091 0.04273 0.0
C740 C 0.39189 0.67563 0.10553 0.0
C741 C 0.39343 0.69645 0.1377 0.0
C742 C 0.42324 0.62232 0.93196 0.0
C743 C 0.43046 0.60779 0.98666 0.0
C744 C 0.41256 0.64205 0.94955 0.0
C745 C 0.40905 0.64773 0.0222 0.0
C746 C 0.41445 0.63222 0.0763 0.0
C747 C 0.42498 0.61246 0.05868 0.0
H748 H 0.80938 0.41245 0.96562 0.0
H749 H 0.82964 0.40211 0.18782 0.0
H750 H 0.84801 0.41226 0.92934 0.0
H751 H 0.86765 0.39973 0.15015 0.0
H752 H 0.92282 0.44914 0.08702 0.0
H753 H 0.88825 0.432 0.12064 0.0
H754 H 0.88544 0.39879 0.91453 0.0
H755 H 0.92056 0.41614 0.88058 0.0
C756 C 0.82186 0.40945 0.00657 0.0
C757 C 0.81617 0.40854 0.08032 0.0
C758 C 0.84409 0.40896 0.98542 0.0
C759 C 0.86098 0.40692 0.03746 0.0
C760 C 0.85505 0.40221 0.10914 0.0
C761 C 0.83296 0.40324 0.13055 0.0
C762 C 0.91531 0.43764 0.04957 0.0
C763 C 0.92446 0.43413 0.98096 0.0
C764 C 0.89538 0.42769 0.06896 0.0
C765 C 0.884 0.4139 0.02035 0.0
C766 C 0.89368 0.40946 0.95296 0.0
C767 C 0.91374 0.41945 0.9335 0.0
H768 H 0.9824 0.19572 0.88312 0.0
H769 H 0.04909 0.18899 0.96517 0.0
H770 H 0.9851 0.15949 0.82734 0.0
H771 H 0.05221 0.15316 0.90628 0.0
H772 H 0.03871 0.07883 0.88013 0.0
H773 H 0.03823 0.11663 0.9245 0.0
H774 H 1.00112 0.13709 0.73586 0.0
H775 H 1.00106 0.09909 0.6925 0.0
C776 C 0.99779 0.18666 0.88841 0.0
C777 C 0.01544 0.19527 0.92951 0.0
C778 C 0.99942 0.1659 0.85568 0.0
C779 C 0.0188 0.15315 0.86274 0.0
C780 C 0.03686 0.16226 0.90076 0.0
C781 C 0.0352 0.18302 0.93369 0.0
C782 C 0.0305 0.09138 0.84793 0.0
C783 C 0.01994 0.08584 0.78269 0.0
C784 C 0.03038 0.11318 0.87313 0.0
C785 C 0.01973 0.13009 0.83378 0.0
C786 C 0.00931 0.12455 0.76813 0.0
C787 C 0.00939 0.10272 0.74298 0.0
H788 H 0.3528 0.06996 0.96282 0.0
H789 H 0.33041 0.01386 0.83905 0.0
H790 H 0.38997 0.06521 0.91596 0.0
H791 H 0.36814 0.00855 0.79396 0.0
H792 H 0.45896 0.03656 0.88623 0.0
H793 H 0.42104 0.04119 0.92798 0.0
H794 H 0.39664 0.02405 0.71595 0.0
H795 H 0.43469 0.019 0.67456 0.0
C796 C 0.35571 0.05666 0.92508 0.0
C797 C 0.33836 0.04242 0.90445 0.0
C798 C 0.37725 0.05373 0.89892 0.0
C799 C 0.38228 0.03639 0.85137 0.0
C800 C 0.36493 0.0222 0.83006 0.0
C801 C 0.34329 0.02511 0.85649 0.0
C802 C 0.44556 0.03383 0.84831 0.0
C803 C 0.45001 0.02747 0.77684 0.0
C804 C 0.42371 0.03659 0.87221 0.0
C805 C 0.4056 0.03311 0.82542 0.0
C806 C 0.41006 0.02668 0.75388 0.0
C807 C 0.43195 0.02394 0.72994 0.0
H808 H 0.45921 0.35077 0.95973 0.0
H809 H 0.52061 0.3286 0.86556 0.0
H810 H 0.46628 0.38806 0.91599 0.0
H811 H 0.52787 0.36634 0.82202 0.0
H812 H 0.51797 0.43222 0.69063 0.0
H813 H 0.51261 0.39426 0.73283 0.0
H814 H 0.49209 0.41865 0.94098 0.0
H815 H 0.4973 0.45651 0.89898 0.0
C816 C 0.47419 0.35382 0.92914 0.0
C817 C 0.48924 0.33659 0.91558 0.0
C818 C 0.47836 0.37531 0.90472 0.0
C819 C 0.49767 0.38026 0.86562 0.0
C820 C 0.51276 0.36305 0.85159 0.0
C821 C 0.50868 0.34148 0.87688 0.0
C822 C 0.51233 0.42952 0.74543 0.0
C823 C 0.50797 0.44753 0.7912 0.0
C824 C 0.50941 0.40771 0.76976 0.0
C825 C 0.50187 0.40337 0.84026 0.0
C826 C 0.49767 0.42138 0.88609 0.0
C827 C 0.50074 0.44313 0.86201 0.0
H828 H 0.18852 0.46404 0.94042 0.0
H829 H 0.20492 0.532 0.89334 0.0
H830 H 0.15109 0.46993 0.8945 0.0
H831 H 0.16719 0.53788 0.84624 0.0
H832 H 0.10485 0.52665 0.69226 0.0
H833 H 0.14271 0.52304 0.73876 0.0
H834 H 0.11747 0.49294 0.93361 0.0
H835 H 0.07967 0.49677 0.88795 0.0
C836 C 0.18417 0.48022 0.91955 0.0
C837 C 0.19977 0.49751 0.91995 0.0
C838 C 0.16265 0.48363 0.89383 0.0
C839 C 0.15615 0.50437 0.86684 0.0
C840 C 0.17176 0.52169 0.86641 0.0
C841 C 0.19329 0.51837 0.89355 0.0
C842 C 0.10735 0.51931 0.74513 0.0
C843 C 0.08915 0.51194 0.78623 0.0
C844 C 0.12904 0.5174 0.7719 0.0
C845 C 0.13308 0.50769 0.8398 0.0
C846 C 0.11491 0.50038 0.88092 0.0
C847 C 0.09322 0.50264 0.85477 0.0
H848 H 0.0335 0.86001 0.36965 0.0
H849 H 1.00619 0.82982 0.5616 0.0
H850 H 0.03173 0.89605 0.4263 0.0
H851 H 1.00406 0.8664 0.61857 0.0
H852 H 0.02774 0.93509 0.71334 0.0
H853 H 0.0282 0.89746 0.66483 0.0
H854 H 1.00273 0.92197 0.46171 0.0
H855 H 1.00201 0.95928 0.50988 0.0
C856 C 0.02726 0.86103 0.42435 0.0
C857 C 0.02013 0.84193 0.46119 0.0
C858 C 0.026 0.8818 0.45658 0.0
C859 C 0.01757 0.8842 0.5268 0.0
C860 C 0.01069 0.86511 0.56444 0.0
C861 C 0.01177 0.8442 0.5317 0.0
C862 C 0.02213 0.93241 0.65844 0.0
C863 C 0.01493 0.95028 0.61542 0.0
C864 C 0.02234 0.91083 0.63077 0.0
C865 C 0.01579 0.90672 0.55907 0.0
C866 C 1.00825 0.92457 0.51674 0.0
C867 C 1.00775 0.946 0.54455 0.0
H868 H 0.68191 0.95975 0.43192 0.0
H869 H 0.70406 0.01558 0.55749 0.0
H870 H 0.64462 0.96449 0.47773 0.0
H871 H 0.66621 0.02091 0.60143 0.0
H872 H 0.59942 0.01052 0.71852 0.0
H873 H 0.63754 1.00536 0.67818 0.0
H874 H 0.61365 0.98861 0.46519 0.0
H875 H 0.57562 0.99335 0.5059 0.0
C876 C 0.67892 0.97298 0.46983 0.0
C877 C 0.69623 0.98716 0.49129 0.0
C878 C 0.65732 0.97591 0.49537 0.0
C879 C 0.65219 0.99318 0.54306 0.0
C880 C 0.6695 0.0073 0.5652 0.0
C881 C 0.69121 1.00439 0.53943 0.0
C882 C 0.60228 1.00564 0.66315 0.0
C883 C 0.58433 1.00226 0.61566 0.0
C884 C 0.62421 1.00283 0.63983 0.0
C885 C 0.62883 0.99649 0.56833 0.0
C886 C 0.61084 0.99314 0.52094 0.0
C887 C 0.58894 0.99596 0.54424 0.0
H888 H 0.49663 0.69546 0.53904 0.0
H889 H 0.55852 0.68191 0.43115 0.0
H890 H 0.49743 0.65892 0.59376 0.0
H891 H 0.55911 0.64505 0.48552 0.0
H892 H 0.53623 0.57261 0.52174 0.0
H893 H 0.53862 0.61025 0.47497 0.0
H894 H 0.5166 0.63537 0.6806 0.0
H895 H 0.51392 0.5977 0.72727 0.0
C896 C 0.5107 0.68492 0.52807 0.0
C897 C 0.52755 0.69185 0.48055 0.0
C898 C 0.51109 0.66383 0.55941 0.0
C899 C 0.52828 0.64892 0.54398 0.0
C900 C 0.54542 0.65596 0.49779 0.0
C901 C 0.54509 0.67714 0.46663 0.0
C902 C 0.53194 0.58612 0.55721 0.0
C903 C 0.52478 0.582 0.62833 0.0
C904 C 0.53348 0.60777 0.53045 0.0
C905 C 0.5278 0.62592 0.5739 0.0
C906 C 0.52088 0.62181 0.64528 0.0
C907 C 0.51944 0.60016 0.67218 0.0
H908 H 0.86188 0.49251 0.39303 0.0
H909 H 0.83547 0.53749 0.55093 0.0
H910 H 0.89905 0.49778 0.44216 0.0
H911 H 0.87293 0.54263 0.60133 0.0
H912 H 0.93895 0.51797 0.71809 0.0
H913 H 0.9014 0.51776 0.66804 0.0
H914 H 0.92797 0.52786 0.45427 0.0
H915 H 0.96545 0.52825 0.50389 0.0
C916 C 0.8641 0.50364 0.43815 0.0
C917 C 0.84579 0.51456 0.46827 0.0
C918 C 0.88541 0.50675 0.46609 0.0
C919 C 0.88898 0.52062 0.52569 0.0
C920 C 0.87069 0.53175 0.55559 0.0
C921 C 0.84931 0.52894 0.52659 0.0
C922 C 0.93681 0.52033 0.66046 0.0
C923 C 0.95534 0.52304 0.61509 0.0
C924 C 0.91525 0.52035 0.63189 0.0
C925 C 0.91168 0.52274 0.55716 0.0
C926 C 0.93015 0.52583 0.51202 0.0
C927 C 0.95167 0.52613 0.54062 0.0
loop_
_geom_bond_atom_site_label_1
_geom_bond_atom_site_label_2
_geom_bond_distance
_geom_bond_site_symmetry_2
_ccdc_geom_bond_type
C0 C1 1.384 . S
C0 H13 0.947 . S
C0 C35 1.382 . S
C1 C0 1.384 . S
C1 C2 1.378 . S
C2 C1 1.378 . S
C2 C3 1.378 . S
C2 H14 0.952 . S
C3 C2 1.378 . S
C3 H15 0.950 . S
C3 C34 1.383 . S
H4 C23 0.947 . S
H5 C24 0.946 . S
H6 C26 0.953 . S
H7 C27 0.945 . S
H8 C29 0.952 . S
H9 C30 0.949 . S
H10 C32 0.950 . S
H11 C33 0.948 . S
H12 C35 0.951 . S
H13 C0 0.947 . S
H14 C2 0.952 . S
H15 C3 0.950 . S
N16 C19 1.382 . S
N16 C21 1.363 . S
N17 C19 1.371 . S
N17 C20 1.372 . S
N18 C20 1.361 . S
N18 C21 1.377 . S
C19 N16 1.382 . S
C19 N17 1.371 . S
C19 C22 1.480 . S
C20 N17 1.372 . S
C20 N18 1.361 . S
C20 C28 1.457 . S
C21 N16 1.363 . S
C21 N18 1.377 . S
C21 C34 1.479 . S
C22 C19 1.480 . S
C22 C23 1.383 . S
C22 C27 1.385 . S
C23 H4 0.947 . S
C23 C22 1.383 . S
C23 C24 1.388 . S
C24 H5 0.946 . S
C24 C23 1.388 . S
C24 C25 1.384 . S
C25 C24 1.384 . S
C25 C26 1.377 . S
C26 H6 0.953 . S
C26 C25 1.377 . S
C26 C27 1.369 . S
C27 H7 0.945 . S
C27 C22 1.385 . S
C27 C26 1.369 . S
C28 C20 1.457 . S
C28 C29 1.372 . S
C28 C33 1.364 . S
C29 H8 0.952 . S
C29 C28 1.372 . S
C29 C30 1.389 . S
C30 H9 0.949 . S
C30 C29 1.389 . S
C30 C31 1.387 . S
C31 C30 1.387 . S
C31 C32 1.372 . S
C32 H10 0.950 . S
C32 C31 1.372 . S
C32 C33 1.379 . S
C33 H11 0.948 . S
C33 C28 1.364 . S
C33 C32 1.379 . S
C34 C3 1.383 . S
C34 C21 1.479 . S
C34 C35 1.398 . S
C35 C0 1.382 . S
C35 H12 0.951 . S
C35 C34 1.398 . S
C36 C37 1.384 1_655 S
C36 H49 0.948 . S
C36 C71 1.382 1_655 S
C37 C36 1.384 1_455 S
C37 C38 1.378 . S
C38 C37 1.378 . S
C38 C39 1.378 . S
C38 H50 0.952 . S
C39 C38 1.378 . S
C39 H51 0.950 . S
C39 C70 1.383 . S
H40 C59 0.947 . S
H41 C60 0.952 . S
H42 C62 0.953 . S
H43 C63 0.945 . S
H44 C65 0.949 1_655 S
H45 C66 0.956 . S
H46 C68 0.950 . S
H47 C69 0.948 . S
H48 C71 0.951 1_655 S
H49 C36 0.948 . S
H50 C38 0.952 . S
H51 C39 0.950 . S
N52 C55 1.382 . S
N52 C57 1.363 . S
N53 C55 1.371 . S
N53 C56 1.372 . S
N54 C56 1.361 . S
N54 C57 1.377 . S
C55 N52 1.382 . S
C55 N53 1.371 . S
C55 C58 1.480 . S
C56 N53 1.372 . S
C56 N54 1.361 . S
C56 C64 1.457 . S
C57 N52 1.363 . S
C57 N54 1.377 . S
C57 C70 1.479 . S
C58 C55 1.480 . S
C58 C59 1.383 . S
C58 C63 1.385 . S
C59 H40 0.947 . S
C59 C58 1.383 . S
C59 C60 1.386 1_455 S
C60 H41 0.952 . S
C60 C59 1.386 1_655 S
C60 C61 1.381 1_655 S
C61 C60 1.381 1_455 S
C61 C62 1.377 . S
C62 H42 0.953 . S
C62 C61 1.377 . S
C62 C63 1.369 . S
C63 H43 0.945 . S
C63 C58 1.385 . S
C63 C62 1.369 . S
C64 C56 1.457 . S
C64 C65 1.376 . S
C64 C69 1.364 . S
C65 H44 0.949 1_455 S
C65 C64 1.376 . S
C65 C66 1.387 1_455 S
C66 H45 0.956 . S
C66 C65 1.387 1_655 S
C66 C67 1.383 1_655 S
C67 C66 1.383 1_455 S
C67 C68 1.372 . S
C68 H46 0.950 . S
C68 C67 1.372 . S
C68 C69 1.379 . S
C69 H47 0.948 . S
C69 C64 1.364 . S
C69 C68 1.379 . S
C70 C39 1.383 . S
C70 C57 1.479 . S
C70 C71 1.398 . S
C71 C36 1.382 1_455 S
C71 H48 0.951 1_455 S
C71 C70 1.398 . S
C72 C73 1.384 1_565 S
C72 H85 0.948 . S
C72 C107 1.382 1_565 S
C73 C72 1.384 1_545 S
C73 C74 1.378 . S
C74 C73 1.378 . S
C74 C75 1.378 . S
C74 H86 0.952 . S
C75 C74 1.378 . S
C75 H87 0.950 . S
C75 C106 1.383 . S
H76 C95 0.947 . S
H77 C96 0.952 . S
H78 C98 0.953 . S
H79 C99 0.945 . S
H80 C101 0.949 1_565 S
H81 C102 0.957 . S
H82 C104 0.950 . S
H83 C105 0.948 . S
H84 C107 0.951 1_565 S
H85 C72 0.948 . S
H86 C74 0.952 . S
H87 C75 0.950 . S
N88 C91 1.382 . S
N88 C93 1.363 . S
N89 C91 1.371 . S
N89 C92 1.372 . S
N90 C92 1.361 . S
N90 C93 1.377 . S
C91 N88 1.382 . S
C91 N89 1.371 . S
C91 C94 1.480 . S
C92 N89 1.372 . S
C92 N90 1.361 . S
C92 C100 1.457 . S
C93 N88 1.363 . S
C93 N90 1.377 . S
C93 C106 1.479 . S
C94 C91 1.480 . S
C94 C95 1.383 . S
C94 C99 1.385 . S
C95 H76 0.947 . S
C95 C94 1.383 . S
C95 C96 1.386 1_545 S
C96 H77 0.952 . S
C96 C95 1.386 1_565 S
C96 C97 1.381 1_565 S
C97 C96 1.381 1_545 S
C97 C98 1.377 . S
C98 H78 0.953 . S
C98 C97 1.377 . S
C98 C99 1.369 . S
C99 H79 0.945 . S
C99 C94 1.385 . S
C99 C98 1.369 . S
C100 C92 1.457 . S
C100 C101 1.376 . S
C100 C105 1.364 . S
C101 H80 0.949 1_545 S
C101 C100 1.376 . S
C101 C102 1.386 1_545 S
C102 H81 0.957 . S
C102 C101 1.386 1_565 S
C102 C103 1.383 1_565 S
C103 C102 1.383 1_545 S
C103 C104 1.372 . S
C104 H82 0.950 . S
C104 C103 1.372 . S
C104 C105 1.379 . S
C105 H83 0.948 . S
C105 C100 1.364 . S
C105 C104 1.379 . S
C106 C75 1.383 . S
C106 C93 1.479 . S
C106 C107 1.398 . S
C107 C72 1.382 1_545 S
C107 H84 0.951 1_545 S
C107 C106 1.398 . S
C108 C109 1.384 . S
C108 H121 0.947 . S
C108 C143 1.382 . S
C109 C108 1.384 . S
C109 C110 1.378 . S
C110 C109 1.378 . S
C110 C111 1.378 . S
C110 H122 0.952 . S
C111 C110 1.378 . S
C111 H123 0.950 . S
C111 C142 1.383 . S
H112 C131 0.947 . S
H113 C132 0.946 . S
H114 C134 0.953 . S
H115 C135 0.945 . S
H116 C137 0.952 . S
H117 C138 0.949 . S
H118 C140 0.950 . S
H119 C141 0.948 . S
H120 C143 0.951 . S
H121 C108 0.947 . S
H122 C110 0.952 . S
H123 C111 0.950 . S
N124 C127 1.382 . S
N124 C129 1.363 . S
N125 C127 1.371 . S
N125 C128 1.372 . S
N126 C128 1.361 . S
N126 C129 1.377 . S
C127 N124 1.382 . S
C127 N125 1.371 . S
C127 C130 1.480 . S
C128 N125 1.372 . S
C128 N126 1.361 . S
C128 C136 1.457 . S
C129 N124 1.363 . S
C129 N126 1.377 . S
C129 C142 1.479 . S
C130 C127 1.480 . S
C130 C131 1.383 . S
C130 C135 1.385 . S
C131 H112 0.947 . S
C131 C130 1.383 . S
C131 C132 1.388 . S
C132 H113 0.946 . S
C132 C131 1.388 . S
C132 C133 1.384 . S
C133 C132 1.384 . S
C133 C134 1.377 . S
C134 H114 0.953 . S
C134 C133 1.377 . S
C134 C135 1.369 . S
C135 H115 0.945 . S
C135 C130 1.385 . S
C135 C134 1.369 . S
C136 C128 1.457 . S
C136 C137 1.372 . S
C136 C141 1.364 . S
C137 H116 0.952 . S
C137 C136 1.372 . S
C137 C138 1.389 . S
C138 H117 0.949 . S
C138 C137 1.389 . S
C138 C139 1.387 . S
C139 C138 1.387 . S
C139 C140 1.372 . S
C140 H118 0.950 . S
C140 C139 1.372 . S
C140 C141 1.379 . S
C141 H119 0.948 . S
C141 C136 1.364 . S
C141 C140 1.379 . S
C142 C111 1.383 . S
C142 C129 1.479 . S
C142 C143 1.398 . S
C143 C108 1.382 . S
C143 H120 0.951 . S
C143 C142 1.398 . S
C144 C145 1.384 . S
C144 H157 0.947 . S
C144 C179 1.382 . S
C145 C144 1.384 . S
C145 C146 1.378 . S
C146 C145 1.378 . S
C146 C147 1.378 . S
C146 H158 0.952 . S
C147 C146 1.378 . S
C147 H159 0.950 . S
C147 C178 1.383 . S
H148 C167 0.947 1_556 S
H149 C168 0.946 . S
H150 C170 0.953 . S
H151 C171 0.945 . S
H152 C173 0.952 . S
H153 C174 0.949 . S
H154 C176 0.950 . S
H155 C177 0.948 . S
H156 C179 0.951 . S
H157 C144 0.947 . S
H158 C146 0.952 . S
H159 C147 0.950 . S
N160 C163 1.382 1_556 S
N160 C165 1.363 . S
N161 C163 1.371 . S
N161 C164 1.372 . S
N162 C164 1.361 . S
N162 C165 1.377 1_554 S
C163 N160 1.382 1_554 S
C163 N161 1.371 . S
C163 C166 1.480 . S
C164 N161 1.372 . S
C164 N162 1.361 . S
C164 C172 1.457 . S
C165 N160 1.363 . S
C165 N162 1.377 1_556 S
C165 C178 1.479 . S
C166 C163 1.480 . S
C166 C167 1.383 . S
C166 C171 1.385 . S
C167 H148 0.947 1_554 S
C167 C166 1.383 . S
C167 C168 1.388 . S
C168 H149 0.946 . S
C168 C167 1.388 . S
C168 C169 1.384 . S
C169 C168 1.384 . S
C169 C170 1.377 . S
C170 H150 0.953 . S
C170 C169 1.377 . S
C170 C171 1.369 . S
C171 H151 0.945 . S
C171 C166 1.385 . S
C171 C170 1.369 . S
C172 C164 1.457 . S
C172 C173 1.372 . S
C172 C177 1.364 . S
C173 H152 0.952 . S
C173 C172 1.372 . S
C173 C174 1.389 . S
C174 H153 0.949 . S
C174 C173 1.389 . S
C174 C175 1.387 . S
C175 C174 1.387 . S
C175 C176 1.372 . S
C176 H154 0.950 . S
C176 C175 1.372 . S
C176 C177 1.379 . S
C177 H155 0.948 . S
C177 C172 1.364 . S
C177 C176 1.379 . S
C178 C147 1.383 . S
C178 C165 1.479 . S
C178 C179 1.398 . S
C179 C144 1.382 . S
C179 H156 0.951 . S
C179 C178 1.398 . S
C180 C181 1.384 . S
C180 H193 0.948 1_455 S
C180 C215 1.382 . S
C181 C180 1.384 . S
C181 C182 1.378 . S
C182 C181 1.378 . S
C182 C183 1.378 . S
C182 H194 0.952 . S
C183 C182 1.378 . S
C183 H195 0.950 . S
C183 C214 1.383 . S
H184 C203 0.947 1_556 S
H185 C204 0.949 . S
H186 C206 0.953 . S
H187 C207 0.945 . S
H188 C209 0.947 1_655 S
H189 C210 0.954 . S
H190 C212 0.950 . S
H191 C213 0.948 . S
H192 C215 0.950 1_655 S
H193 C180 0.948 1_655 S
H194 C182 0.952 . S
H195 C183 0.950 . S
N196 C199 1.382 1_556 S
N196 C201 1.363 . S
N197 C199 1.371 . S
N197 C200 1.372 . S
N198 C200 1.361 . S
N198 C201 1.377 1_554 S
C199 N196 1.382 1_554 S
C199 N197 1.371 . S
C199 C202 1.480 . S
C200 N197 1.372 . S
C200 N198 1.361 . S
C200 C208 1.457 . S
C201 N196 1.363 . S
C201 N198 1.377 1_556 S
C201 C214 1.479 . S
C202 C199 1.480 . S
C202 C203 1.383 . S
C202 C207 1.385 . S
C203 H184 0.947 1_554 S
C203 C202 1.383 . S
C203 C204 1.387 1_455 S
C204 H185 0.949 . S
C204 C203 1.387 1_655 S
C204 C205 1.382 1_655 S
C205 C204 1.382 1_455 S
C205 C206 1.377 . S
C206 H186 0.953 . S
C206 C205 1.377 . S
C206 C207 1.369 . S
C207 H187 0.945 . S
C207 C202 1.385 . S
C207 C206 1.369 . S
C208 C200 1.457 . S
C208 C209 1.379 . S
C208 C213 1.364 . S
C209 H188 0.947 1_455 S
C209 C208 1.379 . S
C209 C210 1.387 1_455 S
C210 H189 0.954 . S
C210 C209 1.387 1_655 S
C210 C211 1.384 1_655 S
C211 C210 1.384 1_455 S
C211 C212 1.372 . S
C212 H190 0.950 . S
C212 C211 1.372 . S
C212 C213 1.379 . S
C213 H191 0.948 . S
C213 C208 1.364 . S
C213 C212 1.379 . S
C214 C183 1.383 . S
C214 C201 1.479 . S
C214 C215 1.399 . S
C215 C180 1.382 . S
C215 H192 0.950 1_455 S
C215 C214 1.399 . S
C216 C217 1.384 . S
C216 H229 0.948 1_545 S
C216 C251 1.382 . S
C217 C216 1.384 . S
C217 C218 1.378 . S
C218 C217 1.378 . S
C218 C219 1.378 . S
C218 H230 0.952 . S
C219 C218 1.378 . S
C219 H231 0.950 . S
C219 C250 1.383 . S
H220 C239 0.947 1_556 S
H221 C240 0.949 . S
H222 C242 0.953 . S
H223 C243 0.945 . S
H224 C245 0.947 1_565 S
H225 C246 0.954 . S
H226 C248 0.950 . S
H227 C249 0.948 . S
H228 C251 0.950 1_565 S
H229 C216 0.948 1_565 S
H230 C218 0.952 . S
H231 C219 0.950 . S
N232 C235 1.382 1_556 S
N232 C237 1.363 . S
N233 C235 1.371 . S
N233 C236 1.372 . S
N234 C236 1.361 . S
N234 C237 1.377 1_554 S
C235 N232 1.382 1_554 S
C235 N233 1.371 . S
C235 C238 1.480 . S
C236 N233 1.372 . S
C236 N234 1.361 . S
C236 C244 1.457 . S
C237 N232 1.363 . S
C237 N234 1.377 1_556 S
C237 C250 1.479 . S
C238 C235 1.480 . S
C238 C239 1.383 . S
C238 C243 1.385 . S
C239 H220 0.947 1_554 S
C239 C238 1.383 . S
C239 C240 1.387 1_545 S
C240 H221 0.949 . S
C240 C239 1.387 1_565 S
C240 C241 1.382 1_565 S
C241 C240 1.382 1_545 S
C241 C242 1.377 . S
C242 H222 0.953 . S
C242 C241 1.377 . S
C242 C243 1.369 . S
C243 H223 0.945 . S
C243 C238 1.385 . S
C243 C242 1.369 . S
C244 C236 1.457 . S
C244 C245 1.379 . S
C244 C249 1.364 . S
C245 H224 0.947 1_545 S
C245 C244 1.379 . S
C245 C246 1.387 1_545 S
C246 H225 0.954 . S
C246 C245 1.387 1_565 S
C246 C247 1.384 1_565 S
C247 C246 1.384 1_545 S
C247 C248 1.372 . S
C248 H226 0.950 . S
C248 C247 1.372 . S
C248 C249 1.379 . S
C249 H227 0.948 . S
C249 C244 1.364 . S
C249 C248 1.379 . S
C250 C219 1.383 . S
C250 C237 1.479 . S
C250 C251 1.399 . S
C251 C216 1.382 . S
C251 H228 0.950 1_545 S
C251 C250 1.399 . S
C252 C253 1.384 . S
C252 H265 0.947 . S
C252 C287 1.382 . S
C253 C252 1.384 . S
C253 C254 1.378 . S
C254 C253 1.378 . S
C254 C255 1.378 . S
C254 H266 0.952 . S
C255 C254 1.378 . S
C255 H267 0.950 . S
C255 C286 1.383 . S
H256 C275 0.947 . S
H257 C276 0.946 . S
H258 C278 0.953 1_556 S
H259 C279 0.945 1_556 S
H260 C281 0.952 . S
H261 C282 0.949 . S
H262 C284 0.950 . S
H263 C285 0.948 . S
H264 C287 0.951 . S
H265 C252 0.947 . S
H266 C254 0.952 . S
H267 C255 0.950 . S
N268 C271 1.382 . S
N268 C273 1.363 . S
N269 C271 1.371 1_556 S
N269 C272 1.372 . S
N270 C272 1.361 1_554 S
N270 C273 1.377 . S
C271 N268 1.382 . S
C271 N269 1.371 1_554 S
C271 C274 1.480 . S
C272 N269 1.372 . S
C272 N270 1.361 1_556 S
C272 C280 1.457 . S
C273 N268 1.363 . S
C273 N270 1.377 . S
C273 C286 1.479 . S
C274 C271 1.480 . S
C274 C275 1.383 . S
C274 C279 1.385 . S
C275 H256 0.947 . S
C275 C274 1.383 . S
C275 C276 1.388 . S
C276 H257 0.946 . S
C276 C275 1.388 . S
C276 C277 1.384 . S
C277 C276 1.384 . S
C277 C278 1.377 . S
C278 H258 0.953 1_554 S
C278 C277 1.377 . S
C278 C279 1.369 . S
C279 H259 0.945 1_554 S
C279 C274 1.385 . S
C279 C278 1.369 . S
C280 C272 1.457 . S
C280 C281 1.372 . S
C280 C285 1.364 . S
C281 H260 0.952 . S
C281 C280 1.372 . S
C281 C282 1.389 . S
C282 H261 0.949 . S
C282 C281 1.389 . S
C282 C283 1.387 . S
C283 C282 1.387 . S
C283 C284 1.372 . S
C284 H262 0.950 . S
C284 C283 1.372 . S
C284 C285 1.379 . S
C285 H263 0.948 . S
C285 C280 1.364 . S
C285 C284 1.379 . S
C286 C255 1.383 . S
C286 C273 1.479 . S
C286 C287 1.398 . S
C287 C252 1.382 . S
C287 H264 0.951 . S
C287 C286 1.398 . S
Sm288 C290 2.846 . S
Sm288 O308 2.543 . S
Sm288 O309 2.450 . S
Sm288 O310 2.681 1_565 S
Sm288 O311 2.464 . S
Sm288 O312 2.396 . S
Sm288 O316 2.386 1_455 S
Sm288 O319 2.408 1_565 S
Sm289 C299 2.846 . S
Sm289 O310 2.386 1_655 S
Sm289 O313 2.408 1_545 S
Sm289 O314 2.543 . S
Sm289 O315 2.450 . S
Sm289 O316 2.681 1_545 S
Sm289 O317 2.464 . S
Sm289 O318 2.396 . S
C290 Sm288 2.846 . S
C290 C291 1.506 . S
C290 O308 1.261 . S
C290 O309 1.242 . S
C291 C290 1.506 . S
C291 C292 1.358 . S
C291 C296 1.382 . S
C292 C291 1.358 . S
C292 C293 1.385 . S
C292 H320 0.930 1_455 S
C293 C292 1.385 . S
C293 C294 1.395 . S
C293 H321 0.887 1_455 S
C294 C293 1.395 . S
C294 C295 1.335 . S
C295 C294 1.335 . S
C295 C296 1.398 . S
C295 H322 0.930 . S
C296 C291 1.382 . S
C296 C295 1.398 . S
C296 H323 0.929 . S
C297 O310 1.271 1_565 S
C297 O311 1.251 . S
C298 O312 1.252 1_655 S
C298 O313 1.272 . S
C299 Sm289 2.846 . S
C299 C300 1.506 . S
C299 O314 1.261 . S
C299 O315 1.242 . S
C300 C299 1.506 . S
C300 C301 1.358 . S
C300 C305 1.382 . S
C301 C300 1.358 . S
C301 C302 1.385 . S
C301 H324 0.930 1_655 S
C302 C301 1.385 . S
C302 C303 1.395 . S
C302 H325 0.929 1_655 S
C303 C302 1.395 . S
C303 C304 1.335 . S
C304 C303 1.335 . S
C304 C305 1.398 . S
C304 H326 0.930 . S
C305 C300 1.382 . S
C305 C304 1.398 . S
C305 H327 0.929 . S
C306 O316 1.271 1_545 S
C306 O317 1.251 . S
C307 O318 1.252 1_455 S
C307 O319 1.272 . S
O308 Sm288 2.543 . S
O308 C290 1.261 . S
O309 Sm288 2.450 . S
O309 C290 1.242 . S
O310 Sm288 2.681 1_545 S
O310 Sm289 2.386 1_455 S
O310 C297 1.271 1_545 S
O311 Sm288 2.464 . S
O311 C297 1.251 . S
O312 Sm288 2.396 . S
O312 C298 1.252 1_455 S
O313 Sm289 2.408 1_565 S
O313 C298 1.272 . S
O314 Sm289 2.543 . S
O314 C299 1.261 . S
O315 Sm289 2.450 . S
O315 C299 1.242 . S
O316 Sm288 2.386 1_655 S
O316 Sm289 2.681 1_565 S
O316 C306 1.271 1_565 S
O317 Sm289 2.464 . S
O317 C306 1.251 . S
O318 Sm289 2.396 . S
O318 C307 1.252 1_655 S
O319 Sm288 2.408 1_545 S
O319 C307 1.272 . S
H320 C292 0.930 1_655 S
H321 C293 0.887 1_655 S
H322 C295 0.930 . S
H323 C296 0.929 . S
H324 C301 0.930 1_455 S
H325 C302 0.929 1_455 S
H326 C304 0.930 . S
H327 C305 0.929 . S
Sm328 C330 2.846 . S
Sm328 O348 2.543 . S
Sm328 O349 2.450 . S
Sm328 O350 2.681 . S
Sm328 O351 2.464 . S
Sm328 O352 2.396 . S
Sm328 O356 2.386 1_545 S
Sm328 O359 2.408 . S
Sm329 C339 2.846 . S
Sm329 O350 2.386 1_565 S
Sm329 O353 2.408 . S
Sm329 O354 2.543 . S
Sm329 O355 2.450 . S
Sm329 O356 2.681 . S
Sm329 O357 2.464 . S
Sm329 O358 2.396 . S
C330 Sm328 2.846 . S
C330 C331 1.506 . S
C330 O348 1.261 . S
C330 O349 1.242 . S
C331 C330 1.506 . S
C331 C332 1.358 . S
C331 C336 1.382 . S
C332 C331 1.358 . S
C332 C333 1.385 . S
C332 H360 0.930 1_545 S
C333 C332 1.385 . S
C333 C334 1.395 . S
C333 H361 0.929 1_545 S
C334 C333 1.395 . S
C334 C335 1.335 . S
C335 C334 1.335 . S
C335 C336 1.398 . S
C335 H362 0.930 . S
C336 C331 1.382 . S
C336 C335 1.398 . S
C336 H363 0.929 . S
C337 O350 1.271 . S
C337 O351 1.251 . S
C338 O352 1.252 1_565 S
C338 O353 1.272 . S
C339 Sm329 2.846 . S
C339 C340 1.506 . S
C339 O354 1.261 . S
C339 O355 1.242 . S
C340 C339 1.506 . S
C340 C341 1.358 . S
C340 C345 1.382 . S
C341 C340 1.358 . S
C341 C342 1.385 . S
C341 H364 0.930 1_565 S
C342 C341 1.385 . S
C342 C343 1.395 . S
C342 H365 0.929 1_565 S
C343 C342 1.395 . S
C343 C344 1.335 . S
C344 C343 1.335 . S
C344 C345 1.398 . S
C344 H366 0.930 . S
C345 C340 1.382 . S
C345 C344 1.398 . S
C345 H367 0.929 . S
C346 O356 1.271 . S
C346 O357 1.251 . S
C347 O358 1.252 1_545 S
C347 O359 1.272 . S
O348 Sm328 2.543 . S
O348 C330 1.261 . S
O349 Sm328 2.450 . S
O349 C330 1.242 . S
O350 Sm328 2.681 . S
O350 Sm329 2.386 1_545 S
O350 C337 1.271 . S
O351 Sm328 2.464 . S
O351 C337 1.251 . S
O352 Sm328 2.396 . S
O352 C338 1.252 1_545 S
O353 Sm329 2.408 . S
O353 C338 1.272 . S
O354 Sm329 2.543 . S
O354 C339 1.261 . S
O355 Sm329 2.450 . S
O355 C339 1.242 . S
O356 Sm328 2.386 1_565 S
O356 Sm329 2.681 . S
O356 C346 1.271 . S
O357 Sm329 2.464 . S
O357 C346 1.251 . S
O358 Sm329 2.396 . S
O358 C347 1.252 1_565 S
O359 Sm328 2.408 . S
O359 C347 1.272 . S
H360 C332 0.930 1_565 S
H361 C333 0.929 1_565 S
H362 C335 0.930 . S
H363 C336 0.929 . S
H364 C341 0.930 1_545 S
H365 C342 0.929 1_545 S
H366 C344 0.930 . S
H367 C345 0.929 . S
Sm368 C370 2.846 . S
Sm368 O388 2.543 . S
Sm368 O389 2.450 . S
Sm368 O390 2.681 . S
Sm368 O391 2.464 . S
Sm368 O392 2.396 . S
Sm368 O396 2.386 . S
Sm368 O399 2.408 . S
Sm369 C379 2.846 . S
Sm369 O390 2.386 . S
Sm369 O393 2.408 . S
Sm369 O394 2.543 . S
Sm369 O395 2.450 . S
Sm369 O396 2.681 . S
Sm369 O397 2.464 . S
Sm369 O398 2.396 . S
C370 Sm368 2.846 . S
C370 C371 1.506 . S
C370 O388 1.261 . S
C370 O389 1.242 . S
C371 C370 1.506 . S
C371 C372 1.358 . S
C371 C376 1.382 . S
C372 C371 1.358 . S
C372 C373 1.385 . S
C372 H400 0.930 . S
C373 C372 1.385 . S
C373 C374 1.395 . S
C373 H401 0.929 . S
C374 C373 1.395 . S
C374 C375 1.335 . S
C375 C374 1.335 . S
C375 C376 1.398 . S
C375 H402 0.930 . S
C376 C371 1.382 . S
C376 C375 1.398 . S
C376 H403 0.929 . S
C377 O390 1.271 . S
C377 O391 1.251 . S
C378 O392 1.252 . S
C378 O393 1.272 . S
C379 Sm369 2.846 . S
C379 C380 1.506 . S
C379 O394 1.261 . S
C379 O395 1.242 . S
C380 C379 1.506 . S
C380 C381 1.358 . S
C380 C385 1.382 . S
C381 C380 1.358 . S
C381 C382 1.385 . S
C381 H404 0.930 . S
C382 C381 1.385 . S
C382 C383 1.395 . S
C382 H405 0.929 . S
C383 C382 1.395 . S
C383 C384 1.335 . S
C384 C383 1.335 . S
C384 C385 1.398 . S
C384 H406 0.930 . S
C385 C380 1.382 . S
C385 C384 1.398 . S
C385 H407 0.929 . S
C386 O396 1.271 . S
C386 O397 1.251 . S
C387 O398 1.252 . S
C387 O399 1.272 . S
O388 Sm368 2.543 . S
O388 C370 1.261 . S
O389 Sm368 2.450 . S
O389 C370 1.242 . S
O390 Sm368 2.681 . S
O390 Sm369 2.386 . S
O390 C377 1.271 . S
O391 Sm368 2.464 . S
O391 C377 1.251 . S
O392 Sm368 2.396 . S
O392 C378 1.252 . S
O393 Sm369 2.408 . S
O393 C378 1.272 . S
O394 Sm369 2.543 . S
O394 C379 1.261 . S
O395 Sm369 2.450 . S
O395 C379 1.242 . S
O396 Sm368 2.386 . S
O396 Sm369 2.681 . S
O396 C386 1.271 . S
O397 Sm369 2.464 . S
O397 C386 1.251 . S
O398 Sm369 2.396 . S
O398 C387 1.252 . S
O399 Sm368 2.408 . S
O399 C387 1.272 . S
H400 C372 0.930 . S
H401 C373 0.929 . S
H402 C375 0.930 . S
H403 C376 0.929 . S
H404 C381 0.930 . S
H405 C382 0.929 . S
H406 C384 0.930 . S
H407 C385 0.929 . S
Sm408 C410 2.846 . S
Sm408 O428 2.543 . S
Sm408 O429 2.450 . S
Sm408 O430 2.681 1_655 S
Sm408 O431 2.464 . S
Sm408 O432 2.396 . S
Sm408 O436 2.386 . S
Sm408 O439 2.408 1_655 S
Sm409 C419 2.846 . S
Sm409 O430 2.386 . S
Sm409 O433 2.408 1_455 S
Sm409 O434 2.543 . S
Sm409 O435 2.450 . S
Sm409 O436 2.681 1_455 S
Sm409 O437 2.464 . S
Sm409 O438 2.396 . S
C410 Sm408 2.846 . S
C410 C411 1.506 . S
C410 O428 1.261 . S
C410 O429 1.242 . S
C411 C410 1.506 . S
C411 C412 1.358 . S
C411 C416 1.382 . S
C412 C411 1.358 . S
C412 C413 1.385 . S
C412 H440 0.930 . S
C413 C412 1.385 . S
C413 C414 1.395 . S
C413 H441 0.929 . S
C414 C413 1.395 . S
C414 C415 1.335 . S
C415 C414 1.335 . S
C415 C416 1.398 . S
C415 H442 0.930 . S
C416 C411 1.382 . S
C416 C415 1.398 . S
C416 H443 0.929 . S
C417 O430 1.261 1_655 S
C417 O431 1.270 . S
C418 O432 1.252 . S
C418 O433 1.272 . S
C419 Sm409 2.846 . S
C419 C420 1.506 . S
C419 O434 1.261 . S
C419 O435 1.242 . S
C420 C419 1.506 . S
C420 C421 1.358 . S
C420 C425 1.382 . S
C421 C420 1.358 . S
C421 C422 1.385 . S
C421 H444 0.930 . S
C422 C421 1.385 . S
C422 C423 1.395 . S
C422 H445 0.929 . S
C423 C422 1.395 . S
C423 C424 1.335 . S
C424 C423 1.335 . S
C424 C425 1.398 . S
C424 H446 0.930 . S
C425 C420 1.382 . S
C425 C424 1.398 . S
C425 H447 0.929 . S
C426 O436 1.257 1_455 S
C426 O437 1.276 . S
C427 O438 1.252 . S
C427 O439 1.272 . S
O428 Sm408 2.543 . S
O428 C410 1.261 . S
O429 Sm408 2.450 . S
O429 C410 1.242 . S
O430 Sm408 2.681 1_455 S
O430 Sm409 2.386 . S
O430 C417 1.261 1_455 S
O431 Sm408 2.464 . S
O431 C417 1.270 . S
O432 Sm408 2.396 . S
O432 C418 1.252 . S
O433 Sm409 2.408 1_655 S
O433 C418 1.272 . S
O434 Sm409 2.543 . S
O434 C419 1.261 . S
O435 Sm409 2.450 . S
O435 C419 1.242 . S
O436 Sm408 2.386 . S
O436 Sm409 2.681 1_655 S
O436 C426 1.257 1_655 S
O437 Sm409 2.464 . S
O437 C426 1.276 . S
O438 Sm409 2.396 . S
O438 C427 1.252 . S
O439 Sm408 2.408 1_455 S
O439 C427 1.272 . S
H440 C412 0.930 . S
H441 C413 0.929 . S
H442 C415 0.930 . S
H443 C416 0.929 . S
H444 C421 0.930 . S
H445 C422 0.929 . S
H446 C424 0.930 . S
H447 C425 0.929 . S
H448 C456 0.950 . S
H449 C461 0.950 . S
H450 C458 0.950 . S
H451 C460 0.950 . S
H452 C462 0.950 . S
H453 C464 0.950 . S
H454 C466 0.950 . S
H455 C467 0.950 . S
C456 H448 0.950 . S
C456 C457 1.390 . S
C456 C458 1.391 . S
C457 C456 1.390 . S
C457 C461 1.388 1_565 S
C458 H450 0.950 . S
C458 C456 1.391 . S
C458 C459 1.391 1_565 S
C459 C458 1.391 1_545 S
C459 C460 1.407 . S
C459 C465 1.491 . S
C460 H451 0.950 . S
C460 C459 1.407 . S
C460 C461 1.391 . S
C461 H449 0.950 . S
C461 C457 1.388 1_545 S
C461 C460 1.391 . S
C462 H452 0.950 . S
C462 C463 1.386 . S
C462 C464 1.391 . S
C463 C462 1.386 . S
C463 C467 1.393 1_545 S
C464 H453 0.950 . S
C464 C462 1.391 . S
C464 C465 1.400 . S
C465 C459 1.491 . S
C465 C464 1.400 . S
C465 C466 1.398 1_545 S
C466 H454 0.950 . S
C466 C465 1.398 1_565 S
C466 C467 1.391 . S
C467 H455 0.950 . S
C467 C463 1.393 1_565 S
C467 C466 1.391 . S
H468 C476 0.950 . S
H469 C481 0.950 . S
H470 C478 0.950 . S
H471 C480 0.950 . S
H472 C482 0.950 . S
H473 C484 0.950 . S
H474 C486 0.950 . S
H475 C487 0.950 . S
C476 H468 0.950 . S
C476 C477 1.386 . S
C476 C478 1.391 . S
C477 C476 1.386 . S
C477 C481 1.393 . S
C478 H470 0.950 . S
C478 C476 1.391 . S
C478 C479 1.400 . S
C479 C478 1.400 . S
C479 C480 1.398 . S
C479 C485 1.491 . S
C480 H471 0.950 . S
C480 C479 1.398 . S
C480 C481 1.391 . S
C481 H469 0.950 . S
C481 C477 1.393 . S
C481 C480 1.391 . S
C482 H472 0.950 . S
C482 C483 1.386 . S
C482 C484 1.391 . S
C483 C482 1.386 . S
C483 C487 1.393 . S
C484 H473 0.950 . S
C484 C482 1.391 . S
C484 C485 1.400 . S
C485 C479 1.491 . S
C485 C484 1.400 . S
C485 C486 1.398 . S
C486 H474 0.950 . S
C486 C485 1.398 . S
C486 C487 1.391 . S
C487 H475 0.950 . S
C487 C483 1.393 . S
C487 C486 1.391 . S
H488 C496 0.950 . S
H489 C501 0.950 . S
H490 C498 0.950 . S
H491 C500 0.950 . S
H492 C502 0.950 . S
H493 C504 0.950 . S
H494 C506 0.950 . S
H495 C507 0.950 . S
C496 H488 0.950 . S
C496 C497 1.386 . S
C496 C498 1.391 . S
C497 C496 1.386 . S
C497 C501 1.393 . S
C498 H490 0.950 . S
C498 C496 1.391 . S
C498 C499 1.400 . S
C499 C498 1.400 . S
C499 C500 1.398 . S
C499 C505 1.491 . S
C500 H491 0.950 . S
C500 C499 1.398 . S
C500 C501 1.391 . S
C501 H489 0.950 . S
C501 C497 1.393 . S
C501 C500 1.391 . S
C502 H492 0.950 . S
C502 C503 1.386 . S
C502 C504 1.391 . S
C503 C502 1.386 . S
C503 C507 1.393 . S
C504 H493 0.950 . S
C504 C502 1.391 . S
C504 C505 1.400 . S
C505 C499 1.491 . S
C505 C504 1.400 . S
C505 C506 1.398 . S
C506 H494 0.950 . S
C506 C505 1.398 . S
C506 C507 1.391 . S
C507 H495 0.950 . S
C507 C503 1.393 . S
C507 C506 1.391 . S
H508 C516 0.950 . S
H509 C521 0.950 . S
H510 C518 0.950 . S
H511 C520 0.950 . S
H512 C522 0.950 . S
H513 C524 0.950 . S
H514 C526 0.950 . S
H515 C527 0.950 . S
C516 H508 0.950 . S
C516 C517 1.414 . S
C516 C518 1.391 . S
C517 C516 1.414 . S
C517 C521 1.366 1_455 S
C518 H510 0.950 . S
C518 C516 1.391 . S
C518 C519 1.400 . S
C519 C518 1.400 . S
C519 C520 1.398 1_455 S
C519 C525 1.492 . S
C520 H511 0.950 . S
C520 C519 1.398 1_655 S
C520 C521 1.391 . S
C521 H509 0.950 . S
C521 C517 1.366 1_655 S
C521 C520 1.391 . S
C522 H512 0.950 . S
C522 C523 1.386 1_655 S
C522 C524 1.391 . S
C523 C522 1.386 1_455 S
C523 C527 1.393 . S
C524 H513 0.950 . S
C524 C522 1.391 . S
C524 C525 1.375 1_655 S
C525 C519 1.492 . S
C525 C524 1.375 1_455 S
C525 C526 1.424 . S
C526 H514 0.950 . S
C526 C525 1.424 . S
C526 C527 1.391 . S
C527 H515 0.950 . S
C527 C523 1.393 . S
C527 C526 1.391 . S
H528 C536 0.950 . S
H529 C541 0.950 . S
H530 C538 0.950 . S
H531 C540 0.950 . S
H532 C542 0.950 . S
H533 C544 0.950 1_554 S
H534 C546 0.950 . S
H535 C547 0.950 . S
C536 H528 0.950 . S
C536 C537 1.370 1_565 S
C536 C538 1.391 . S
C537 C536 1.370 1_545 S
C537 C541 1.409 . S
C538 H530 0.950 . S
C538 C536 1.391 . S
C538 C539 1.399 . S
C539 C538 1.399 . S
C539 C540 1.399 1_565 S
C539 C545 1.489 1_554 S
C540 H531 0.950 . S
C540 C539 1.399 1_545 S
C540 C541 1.391 . S
C541 H529 0.950 . S
C541 C537 1.409 . S
C541 C540 1.391 . S
C542 H532 0.950 . S
C542 C543 1.386 1_545 S
C542 C544 1.391 . S
C543 C542 1.386 1_565 S
C543 C547 1.393 . S
C544 H533 0.950 1_556 S
C544 C542 1.391 . S
C544 C545 1.376 1_545 S
C545 C539 1.489 1_556 S
C545 C544 1.376 1_565 S
C545 C546 1.427 . S
C546 H534 0.950 . S
C546 C545 1.427 . S
C546 C547 1.391 . S
C547 H535 0.950 . S
C547 C543 1.393 . S
C547 C546 1.391 . S
H548 C556 0.950 . S
H549 C561 0.950 . S
H550 C558 0.950 . S
H551 C560 0.950 . S
H552 C562 0.950 . S
H553 C564 0.950 1_554 S
H554 C566 0.950 . S
H555 C567 0.950 . S
C556 H548 0.950 . S
C556 C557 1.386 . S
C556 C558 1.391 . S
C557 C556 1.386 . S
C557 C561 1.393 . S
C558 H550 0.950 . S
C558 C556 1.391 . S
C558 C559 1.400 . S
C559 C558 1.400 . S
C559 C560 1.398 . S
C559 C565 1.493 . S
C560 H551 0.950 . S
C560 C559 1.398 . S
C560 C561 1.391 . S
C561 H549 0.950 . S
C561 C557 1.393 . S
C561 C560 1.391 . S
C562 H552 0.950 . S
C562 C563 1.386 . S
C562 C564 1.391 . S
C563 C562 1.386 . S
C563 C567 1.393 . S
C564 H553 0.950 1_556 S
C564 C562 1.391 . S
C564 C565 1.400 1_556 S
C565 C559 1.493 . S
C565 C564 1.400 1_554 S
C565 C566 1.396 1_554 S
C566 H554 0.950 . S
C566 C565 1.396 1_556 S
C566 C567 1.391 . S
C567 H555 0.950 . S
C567 C563 1.393 . S
C567 C566 1.391 . S
H568 C576 0.950 . S
H569 C581 0.950 . S
H570 C578 0.950 . S
H571 C580 0.950 . S
H572 C582 0.950 . S
H573 C584 0.950 1_554 S
H574 C586 0.950 . S
H575 C587 0.950 . S
C576 H568 0.950 . S
C576 C577 1.386 . S
C576 C578 1.391 . S
C577 C576 1.386 . S
C577 C581 1.393 . S
C578 H570 0.950 . S
C578 C576 1.391 . S
C578 C579 1.400 . S
C579 C578 1.400 . S
C579 C580 1.398 . S
C579 C585 1.491 1_554 S
C580 H571 0.950 . S
C580 C579 1.398 . S
C580 C581 1.391 . S
C581 H569 0.950 . S
C581 C577 1.393 . S
C581 C580 1.391 . S
C582 H572 0.950 . S
C582 C583 1.386 . S
C582 C584 1.391 . S
C583 C582 1.386 . S
C583 C587 1.393 . S
C584 H573 0.950 1_556 S
C584 C582 1.391 . S
C584 C585 1.400 . S
C585 C579 1.491 1_556 S
C585 C584 1.400 . S
C585 C586 1.398 . S
C586 H574 0.950 . S
C586 C585 1.398 . S
C586 C587 1.391 . S
C587 H575 0.950 . S
C587 C583 1.393 . S
C587 C586 1.391 . S
H588 C596 0.950 . S
H589 C601 0.950 . S
H590 C598 0.950 . S
H591 C600 0.950 . S
H592 C602 0.950 . S
H593 C604 0.950 . S
H594 C606 0.950 . S
H595 C607 0.950 . S
C596 H588 0.950 . S
C596 C597 1.365 1_455 S
C596 C598 1.391 . S
C597 C596 1.365 1_655 S
C597 C601 1.414 . S
C598 H590 0.950 . S
C598 C596 1.391 . S
C598 C599 1.360 1_455 S
C599 C598 1.360 1_655 S
C599 C600 1.438 . S
C599 C605 1.491 1_554 S
C600 H591 0.950 . S
C600 C599 1.438 . S
C600 C601 1.391 . S
C601 H589 0.950 . S
C601 C597 1.414 . S
C601 C600 1.391 . S
C602 H592 0.950 . S
C602 C603 1.386 . S
C602 C604 1.391 . S
C603 C602 1.386 . S
C603 C607 1.393 1_655 S
C604 H593 0.950 . S
C604 C602 1.391 . S
C604 C605 1.446 . S
C605 C599 1.491 1_556 S
C605 C604 1.446 . S
C605 C606 1.354 1_655 S
C606 H594 0.950 . S
C606 C605 1.354 1_455 S
C606 C607 1.391 . S
C607 H595 0.950 . S
C607 C603 1.393 1_455 S
C607 C606 1.391 . S
H608 C616 0.950 . S
H609 C621 0.950 . S
H610 C618 0.950 . S
H611 C620 0.950 1_455 S
H612 C622 0.950 . S
H613 C624 0.950 . S
H614 C626 0.950 . S
H615 C627 0.950 . S
C616 H608 0.950 . S
C616 C617 1.386 1_655 S
C616 C618 1.391 . S
C617 C616 1.386 1_455 S
C617 C621 1.393 . S
C618 H610 0.950 . S
C618 C616 1.391 . S
C618 C619 1.400 . S
C619 C618 1.400 . S
C619 C620 1.398 . S
C619 C625 1.491 . S
C620 H611 0.950 1_655 S
C620 C619 1.398 . S
C620 C621 1.391 1_655 S
C621 H609 0.950 . S
C621 C617 1.393 . S
C621 C620 1.391 1_455 S
C622 H612 0.950 . S
C622 C623 1.386 . S
C622 C624 1.391 . S
C623 C622 1.386 . S
C623 C627 1.393 . S
C624 H613 0.950 . S
C624 C622 1.391 . S
C624 C625 1.400 . S
C625 C619 1.491 . S
C625 C624 1.400 . S
C625 C626 1.398 . S
C626 H614 0.950 . S
C626 C625 1.398 . S
C626 C627 1.391 . S
C627 H615 0.950 . S
C627 C623 1.393 . S
C627 C626 1.391 . S
H628 C636 0.950 . S
H629 C641 0.950 . S
H630 C638 0.950 . S
H631 C640 0.950 . S
H632 C642 0.950 . S
H633 C644 0.950 . S
H634 C646 0.950 1_545 S
H635 C647 0.950 . S
C636 H628 0.950 . S
C636 C637 1.386 . S
C636 C638 1.391 . S
C637 C636 1.386 . S
C637 C641 1.393 1_545 S
C638 H630 0.950 . S
C638 C636 1.391 . S
C638 C639 1.400 1_545 S
C639 C638 1.400 1_565 S
C639 C640 1.398 . S
C639 C645 1.491 . S
C640 H631 0.950 . S
C640 C639 1.398 . S
C640 C641 1.391 . S
C641 H629 0.950 . S
C641 C637 1.393 1_565 S
C641 C640 1.391 . S
C642 H632 0.950 . S
C642 C643 1.386 . S
C642 C644 1.391 . S
C643 C642 1.386 . S
C643 C647 1.393 . S
C644 H633 0.950 . S
C644 C642 1.391 . S
C644 C645 1.400 . S
C645 C639 1.491 . S
C645 C644 1.400 . S
C645 C646 1.398 . S
C646 H634 0.950 1_565 S
C646 C645 1.398 . S
C646 C647 1.391 . S
C647 H635 0.950 . S
C647 C643 1.393 . S
C647 C646 1.391 . S
H648 C656 0.950 . S
H649 C661 0.950 . S
H650 C658 0.950 . S
H651 C660 0.950 . S
H652 C662 0.950 . S
H653 C664 0.950 . S
H654 C666 0.950 . S
H655 C667 0.950 . S
C656 H648 0.950 . S
C656 C657 1.386 . S
C656 C658 1.391 . S
C657 C656 1.386 . S
C657 C661 1.393 . S
C658 H650 0.950 . S
C658 C656 1.391 . S
C658 C659 1.400 . S
C659 C658 1.400 . S
C659 C660 1.398 . S
C659 C665 1.491 . S
C660 H651 0.950 . S
C660 C659 1.398 . S
C660 C661 1.391 . S
C661 H649 0.950 . S
C661 C657 1.393 . S
C661 C660 1.391 . S
C662 H652 0.950 . S
C662 C663 1.386 . S
C662 C664 1.391 . S
C663 C662 1.386 . S
C663 C667 1.393 . S
C664 H653 0.950 . S
C664 C662 1.391 . S
C664 C665 1.400 . S
C665 C659 1.491 . S
C665 C664 1.400 . S
C665 C666 1.398 . S
C666 H654 0.950 . S
C666 C665 1.398 . S
C666 C667 1.391 . S
C667 H655 0.950 . S
C667 C663 1.393 . S
C667 C666 1.391 . S
H668 C676 0.950 . S
H669 C681 0.950 . S
H670 C678 0.950 . S
H671 C680 0.950 . S
H672 C682 0.950 . S
H673 C684 0.950 . S
H674 C686 0.950 . S
H675 C687 0.950 . S
C676 H668 0.950 . S
C676 C677 1.386 . S
C676 C678 1.391 . S
C677 C676 1.386 . S
C677 C681 1.393 . S
C678 H670 0.950 . S
C678 C676 1.391 . S
C678 C679 1.400 . S
C679 C678 1.400 . S
C679 C680 1.398 . S
C679 C685 1.491 . S
C680 H671 0.950 . S
C680 C679 1.398 . S
C680 C681 1.391 . S
C681 H669 0.950 . S
C681 C677 1.393 . S
C681 C680 1.391 . S
C682 H672 0.950 . S
C682 C683 1.386 . S
C682 C684 1.391 . S
C683 C682 1.386 . S
C683 C687 1.393 . S
C684 H673 0.950 . S
C684 C682 1.391 . S
C684 C685 1.400 . S
C685 C679 1.491 . S
C685 C684 1.400 . S
C685 C686 1.398 . S
C686 H674 0.950 . S
C686 C685 1.398 . S
C686 C687 1.391 . S
C687 H675 0.950 . S
C687 C683 1.393 . S
C687 C686 1.391 . S
H688 C696 0.950 . S
H689 C701 0.950 . S
H690 C698 0.950 1_556 S
H691 C700 0.955 . S
H692 C702 0.950 . S
H693 C704 0.950 . S
H694 C706 0.950 . S
H695 C707 0.950 . S
C696 H688 0.950 . S
C696 C697 1.386 1_455 S
C696 C698 1.391 . S
C697 C696 1.386 1_655 S
C697 C701 1.393 . S
C698 H690 0.950 1_554 S
C698 C696 1.391 . S
C698 C699 1.400 . S
C699 C698 1.400 . S
C699 C700 1.398 . S
C699 C705 1.491 . S
C700 H691 0.955 . S
C700 C699 1.398 . S
C700 C701 1.391 1_455 S
C701 H689 0.950 . S
C701 C697 1.393 . S
C701 C700 1.391 1_655 S
C702 H692 0.950 . S
C702 C703 1.386 1_554 S
C702 C704 1.391 . S
C703 C702 1.386 1_556 S
C703 C707 1.393 . S
C704 H693 0.950 . S
C704 C702 1.391 . S
C704 C705 1.400 . S
C705 C699 1.491 . S
C705 C704 1.400 . S
C705 C706 1.398 1_554 S
C706 H694 0.950 . S
C706 C705 1.398 1_556 S
C706 C707 1.391 . S
C707 H695 0.950 . S
C707 C703 1.393 . S
C707 C706 1.391 . S
H708 C716 0.950 . S
H709 C721 0.950 . S
H710 C718 0.950 1_556 S
H711 C720 0.950 . S
H712 C722 0.950 . S
H713 C724 0.950 . S
H714 C726 0.950 . S
H715 C727 0.950 . S
C716 H708 0.950 . S
C716 C717 1.386 . S
C716 C718 1.391 . S
C717 C716 1.386 . S
C717 C721 1.393 1_565 S
C718 H710 0.950 1_554 S
C718 C716 1.391 . S
C718 C719 1.400 1_565 S
C719 C718 1.400 1_545 S
C719 C720 1.398 . S
C719 C725 1.491 . S
C720 H711 0.950 . S
C720 C719 1.398 . S
C720 C721 1.391 . S
C721 H709 0.950 . S
C721 C717 1.393 1_545 S
C721 C720 1.391 . S
C722 H712 0.950 . S
C722 C723 1.386 1_554 S
C722 C724 1.391 . S
C723 C722 1.386 1_556 S
C723 C727 1.393 . S
C724 H713 0.950 . S
C724 C722 1.391 . S
C724 C725 1.400 . S
C725 C719 1.491 . S
C725 C724 1.400 . S
C725 C726 1.398 1_554 S
C726 H714 0.950 . S
C726 C725 1.398 1_556 S
C726 C727 1.391 . S
C727 H715 0.950 . S
C727 C723 1.393 . S
C727 C726 1.391 . S
H728 C736 0.950 . S
H729 C741 0.950 . S
H730 C738 0.950 . S
H731 C740 0.950 1_556 S
H732 C742 0.950 . S
H733 C744 0.950 . S
H734 C746 0.950 . S
H735 C747 0.950 . S
C736 H728 0.950 . S
C736 C737 1.386 . S
C736 C738 1.391 . S
C737 C736 1.386 . S
C737 C741 1.393 . S
C738 H730 0.950 . S
C738 C736 1.391 . S
C738 C739 1.400 . S
C739 C738 1.400 . S
C739 C740 1.398 . S
C739 C745 1.491 . S
C740 H731 0.950 1_554 S
C740 C739 1.398 . S
C740 C741 1.391 . S
C741 H729 0.950 . S
C741 C737 1.393 . S
C741 C740 1.391 . S
C742 H732 0.950 . S
C742 C743 1.386 . S
C742 C744 1.391 . S
C743 C742 1.386 . S
C743 C747 1.393 1_556 S
C744 H733 0.950 . S
C744 C742 1.391 . S
C744 C745 1.400 1_556 S
C745 C739 1.491 . S
C745 C744 1.400 1_554 S
C745 C746 1.398 . S
C746 H734 0.950 . S
C746 C745 1.398 . S
C746 C747 1.391 . S
C747 H735 0.950 . S
C747 C743 1.393 1_554 S
C747 C746 1.391 . S
H748 C756 0.950 . S
H749 C761 0.950 . S
H750 C758 0.950 1_556 S
H751 C760 0.950 . S
H752 C762 0.950 . S
H753 C764 0.950 . S
H754 C766 0.950 . S
H755 C767 0.950 . S
C756 H748 0.950 . S
C756 C757 1.386 . S
C756 C758 1.391 . S
C757 C756 1.386 . S
C757 C761 1.393 . S
C758 H750 0.950 1_554 S
C758 C756 1.391 . S
C758 C759 1.400 . S
C759 C758 1.400 . S
C759 C760 1.398 . S
C759 C765 1.491 . S
C760 H751 0.950 . S
C760 C759 1.398 . S
C760 C761 1.391 . S
C761 H749 0.950 . S
C761 C757 1.393 . S
C761 C760 1.391 . S
C762 H752 0.950 . S
C762 C763 1.386 1_554 S
C762 C764 1.391 . S
C763 C762 1.386 1_556 S
C763 C767 1.393 . S
C764 H753 0.950 . S
C764 C762 1.391 . S
C764 C765 1.400 . S
C765 C759 1.491 . S
C765 C764 1.400 . S
C765 C766 1.398 1_554 S
C766 H754 0.950 . S
C766 C765 1.398 1_556 S
C766 C767 1.391 . S
C767 H755 0.950 . S
C767 C763 1.393 . S
C767 C766 1.391 . S
H768 C776 0.950 . S
H769 C781 0.950 . S
H770 C778 0.950 . S
H771 C780 0.950 . S
H772 C782 0.950 . S
H773 C784 0.950 . S
H774 C786 0.950 . S
H775 C787 0.950 . S
C776 H768 0.950 . S
C776 C777 1.386 1_655 S
C776 C778 1.391 . S
C777 C776 1.386 1_455 S
C777 C781 1.393 . S
C778 H770 0.950 . S
C778 C776 1.391 . S
C778 C779 1.400 1_655 S
C779 C778 1.400 1_455 S
C779 C780 1.398 . S
C779 C785 1.491 . S
C780 H771 0.950 . S
C780 C779 1.398 . S
C780 C781 1.391 . S
C781 H769 0.950 . S
C781 C777 1.393 . S
C781 C780 1.391 . S
C782 H772 0.950 . S
C782 C783 1.386 . S
C782 C784 1.391 . S
C783 C782 1.386 . S
C783 C787 1.393 1_455 S
C784 H773 0.950 . S
C784 C782 1.391 . S
C784 C785 1.400 . S
C785 C779 1.491 . S
C785 C784 1.400 . S
C785 C786 1.398 1_455 S
C786 H774 0.950 . S
C786 C785 1.398 1_655 S
C786 C787 1.391 . S
C787 H775 0.950 . S
C787 C783 1.393 1_655 S
C787 C786 1.391 . S
H788 C796 0.950 . S
H789 C801 0.950 . S
H790 C798 0.950 . S
H791 C800 0.950 . S
H792 C802 0.950 . S
H793 C804 0.950 . S
H794 C806 0.950 . S
H795 C807 0.950 . S
C796 H788 0.950 . S
C796 C797 1.386 . S
C796 C798 1.391 . S
C797 C796 1.386 . S
C797 C801 1.393 1_545 S
C798 H790 0.950 . S
C798 C796 1.391 . S
C798 C799 1.400 . S
C799 C798 1.400 . S
C799 C800 1.398 1_545 S
C799 C805 1.491 . S
C800 H791 0.950 . S
C800 C799 1.398 1_565 S
C800 C801 1.391 . S
C801 H789 0.950 . S
C801 C797 1.393 1_565 S
C801 C800 1.391 . S
C802 H792 0.950 . S
C802 C803 1.386 1_565 S
C802 C804 1.391 . S
C803 C802 1.386 1_545 S
C803 C807 1.393 . S
C804 H793 0.950 . S
C804 C802 1.391 . S
C804 C805 1.400 1_565 S
C805 C799 1.491 . S
C805 C804 1.400 1_545 S
C805 C806 1.398 . S
C806 H794 0.950 . S
C806 C805 1.398 . S
C806 C807 1.391 . S
C807 H795 0.950 . S
C807 C803 1.393 . S
C807 C806 1.391 . S
H808 C816 0.950 . S
H809 C821 0.950 . S
H810 C818 0.950 . S
H811 C820 0.950 . S
H812 C822 0.950 . S
H813 C824 0.950 . S
H814 C826 0.950 . S
H815 C827 0.950 . S
C816 H808 0.950 . S
C816 C817 1.386 . S
C816 C818 1.391 . S
C817 C816 1.386 . S
C817 C821 1.393 . S
C818 H810 0.950 . S
C818 C816 1.391 . S
C818 C819 1.400 . S
C819 C818 1.400 . S
C819 C820 1.398 . S
C819 C825 1.491 . S
C820 H811 0.950 . S
C820 C819 1.398 . S
C820 C821 1.391 . S
C821 H809 0.950 . S
C821 C817 1.393 . S
C821 C820 1.391 . S
C822 H812 0.950 . S
C822 C823 1.386 . S
C822 C824 1.391 . S
C823 C822 1.386 . S
C823 C827 1.393 . S
C824 H813 0.950 . S
C824 C822 1.391 . S
C824 C825 1.400 . S
C825 C819 1.491 . S
C825 C824 1.400 . S
C825 C826 1.398 . S
C826 H814 0.950 . S
C826 C825 1.398 . S
C826 C827 1.391 . S
C827 H815 0.950 . S
C827 C823 1.393 . S
C827 C826 1.391 . S
H828 C836 0.950 . S
H829 C841 0.950 . S
H830 C838 0.950 . S
H831 C840 0.950 . S
H832 C842 0.950 . S
H833 C844 0.950 . S
H834 C846 0.950 . S
H835 C847 0.950 . S
C836 H828 0.950 . S
C836 C837 1.386 . S
C836 C838 1.391 . S
C837 C836 1.386 . S
C837 C841 1.393 . S
C838 H830 0.950 . S
C838 C836 1.391 . S
C838 C839 1.400 . S
C839 C838 1.400 . S
C839 C840 1.398 . S
C839 C845 1.491 . S
C840 H831 0.950 . S
C840 C839 1.398 . S
C840 C841 1.391 . S
C841 H829 0.950 . S
C841 C837 1.393 . S
C841 C840 1.391 . S
C842 H832 0.950 . S
C842 C843 1.386 . S
C842 C844 1.391 . S
C843 C842 1.386 . S
C843 C847 1.393 . S
C844 H833 0.950 . S
C844 C842 1.391 . S
C844 C845 1.400 . S
C845 C839 1.491 . S
C845 C844 1.400 . S
C845 C846 1.398 . S
C846 H834 0.950 . S
C846 C845 1.398 . S
C846 C847 1.391 . S
C847 H835 0.950 . S
C847 C843 1.393 . S
C847 C846 1.391 . S
H848 C856 0.950 . S
H849 C861 0.950 . S
H850 C858 0.950 . S
H851 C860 0.950 . S
H852 C862 0.950 . S
H853 C864 0.950 . S
H854 C866 0.950 . S
H855 C867 0.950 . S
C856 H848 0.950 . S
C856 C857 1.386 1_455 S
C856 C858 1.391 . S
C857 C856 1.386 1_655 S
C857 C861 1.393 . S
C858 H850 0.950 . S
C858 C856 1.391 . S
C858 C859 1.400 1_455 S
C859 C858 1.400 1_655 S
C859 C860 1.398 . S
C859 C865 1.491 . S
C860 H851 0.950 . S
C860 C859 1.398 . S
C860 C861 1.391 . S
C861 H849 0.950 . S
C861 C857 1.393 . S
C861 C860 1.391 . S
C862 H852 0.950 . S
C862 C863 1.386 . S
C862 C864 1.391 . S
C863 C862 1.386 . S
C863 C867 1.393 1_655 S
C864 H853 0.950 . S
C864 C862 1.391 . S
C864 C865 1.400 . S
C865 C859 1.491 . S
C865 C864 1.400 . S
C865 C866 1.398 1_655 S
C866 H854 0.950 . S
C866 C865 1.398 1_455 S
C866 C867 1.391 . S
C867 H855 0.950 . S
C867 C863 1.393 1_455 S
C867 C866 1.391 . S
H868 C876 0.950 . S
H869 C881 0.950 . S
H870 C878 0.950 . S
H871 C880 0.950 . S
H872 C882 0.950 . S
H873 C884 0.950 . S
H874 C886 0.950 . S
H875 C887 0.950 . S
C876 H868 0.950 . S
C876 C877 1.386 . S
C876 C878 1.391 . S
C877 C876 1.386 . S
C877 C881 1.393 1_565 S
C878 H870 0.950 . S
C878 C876 1.391 . S
C878 C879 1.400 . S
C879 C878 1.400 . S
C879 C880 1.398 1_565 S
C879 C885 1.491 . S
C880 H871 0.950 . S
C880 C879 1.398 1_545 S
C880 C881 1.391 . S
C881 H869 0.950 . S
C881 C877 1.393 1_545 S
C881 C880 1.391 . S
C882 H872 0.950 . S
C882 C883 1.386 1_545 S
C882 C884 1.391 . S
C883 C882 1.386 1_565 S
C883 C887 1.393 . S
C884 H873 0.950 . S
C884 C882 1.391 . S
C884 C885 1.400 1_545 S
C885 C879 1.491 . S
C885 C884 1.400 1_565 S
C885 C886 1.398 . S
C886 H874 0.950 . S
C886 C885 1.398 . S
C886 C887 1.391 . S
C887 H875 0.950 . S
C887 C883 1.393 . S
C887 C886 1.391 . S
H888 C896 0.950 . S
H889 C901 0.950 . S
H890 C898 0.950 . S
H891 C900 0.950 . S
H892 C902 0.950 . S
H893 C904 0.950 . S
H894 C906 0.950 . S
H895 C907 0.950 . S
C896 H888 0.950 . S
C896 C897 1.386 . S
C896 C898 1.391 . S
C897 C896 1.386 . S
C897 C901 1.393 . S
C898 H890 0.950 . S
C898 C896 1.391 . S
C898 C899 1.400 . S
C899 C898 1.400 . S
C899 C900 1.398 . S
C899 C905 1.491 . S
C900 H891 0.950 . S
C900 C899 1.398 . S
C900 C901 1.391 . S
C901 H889 0.950 . S
C901 C897 1.393 . S
C901 C900 1.391 . S
C902 H892 0.950 . S
C902 C903 1.386 . S
C902 C904 1.391 . S
C903 C902 1.386 . S
C903 C907 1.393 . S
C904 H893 0.950 . S
C904 C902 1.391 . S
C904 C905 1.400 . S
C905 C899 1.491 . S
C905 C904 1.400 . S
C905 C906 1.398 . S
C906 H894 0.950 . S
C906 C905 1.398 . S
C906 C907 1.391 . S
C907 H895 0.950 . S
C907 C903 1.393 . S
C907 C906 1.391 . S
H908 C916 0.950 . S
H909 C921 0.950 . S
H910 C918 0.950 . S
H911 C920 0.950 . S
H912 C922 0.950 . S
H913 C924 0.950 . S
H914 C926 0.950 . S
H915 C927 0.950 . S
C916 H908 0.950 . S
C916 C917 1.386 . S
C916 C918 1.391 . S
C917 C916 1.386 . S
C917 C921 1.393 . S
C918 H910 0.950 . S
C918 C916 1.391 . S
C918 C919 1.400 . S
C919 C918 1.400 . S
C919 C920 1.398 . S
C919 C925 1.491 . S
C920 H911 0.950 . S
C920 C919 1.398 . S
C920 C921 1.391 . S
C921 H909 0.950 . S
C921 C917 1.393 . S
C921 C920 1.391 . S
C922 H912 0.950 . S
C922 C923 1.386 . S
C922 C924 1.391 . S
C923 C922 1.386 . S
C923 C927 1.393 . S
C924 H913 0.950 . S
C924 C922 1.391 . S
C924 C925 1.400 . S
C925 C919 1.491 . S
C925 C924 1.400 . S
C925 C926 1.398 . S
C926 H914 0.950 . S
C926 C925 1.398 . S
C926 C927 1.391 . S
C927 H915 0.950 . S
C927 C923 1.393 . S
C927 C926 1.391 . S
C457 C241 2.074 1_565 S
C463 C297 2.308 1_545 S
C483 C337 2.333 . S
C477 C277 2.175 . S
C503 C377 2.323 . S
C497 C169 2.099 . S
C523 C417 2.321 1_455 S
C517 C205 2.108 . S
C543 C306 2.313 1_565 S
C537 C97 2.082 . S
C557 C133 2.166 . S
C563 C346 2.340 . S
C577 C25 2.109 . S
C583 C386 2.322 . S
C597 C61 2.110 1_655 S
C603 C426 2.321 1_655 S
C623 C303 0.399 . S
C617 C211 0.377 . S
C643 C343 0.437 . S
C637 C247 0.448 . S
C663 C383 0.463 . S
C657 C253 0.458 . S
C677 C175 0.373 . S
C683 C423 0.418 . S
C697 C67 0.512 1_655 S
C703 C294 0.470 . S
C723 C334 0.461 . S
C717 C103 0.470 1_565 S
C743 C374 0.387 . S
C737 C109 0.351 . S
C757 C31 0.484 . S
C763 C414 0.469 . S
C777 C181 2.842 . S
C783 C307 3.183 . S
C797 C217 2.794 . S
C803 C347 3.158 . S
C823 C387 3.168 . S
C817 C283 2.734 . S
C843 C427 3.173 . S
C837 C145 2.800 . S
C857 C37 2.834 1_655 S
C863 C298 3.188 . S
C883 C338 3.161 . S
C877 C73 2.823 1_565 S
C903 C378 3.165 . S
C897 C139 2.717 . S
C917 C1 2.820 . S
C923 C418 3.171 . S
