# Generated by pormake.
# Topology pth, (4,4)-cn, num edge types: 1
# Building blocks:
#     Node 0, Type 0, BuildingBlock: QUQFOY_clean_sbu_3, # of connection points: 4
#     Node 1, Type 0, BuildingBlock: QUQFOY_clean_sbu_3, # of connection points: 4
#     Node 2, Type 0, BuildingBlock: QUQFOY_clean_sbu_3, # of connection points: 4
#     Node 3, Type 1, BuildingBlock: MUDLON_clean_linker_0, # of connection points: 4
#     Node 4, Type 1, BuildingBlock: MUDLON_clean_linker_0, # of connection points: 4
#     Node 5, Type 1, BuildingBlock: MUDLON_clean_linker_0, # of connection points: 4
#     Edge 6, Type (0, 1), BuildingBlock: XIVTED_clean_linker_0, # of connection points: 2
#     Edge 7, Type (0, 1), BuildingBlock: XIVTED_clean_linker_0, # of connection points: 2
#     Edge 8, Type (0, 1), BuildingBlock: XIVTED_clean_linker_0, # of connection points: 2
#     Edge 9, Type (0, 1), BuildingBlock: XIVTED_clean_linker_0, # of connection points: 2
#     Edge 10, Type (0, 1), BuildingBlock: XIVTED_clean_linker_0, # of connection points: 2
#     Edge 11, Type (0, 1), BuildingBlock: XIVTED_clean_linker_0, # of connection points: 2
#     Edge 12, Type (0, 1), BuildingBlock: XIVTED_clean_linker_0, # of connection points: 2
#     Edge 13, Type (0, 1), BuildingBlock: XIVTED_clean_linker_0, # of connection points: 2
#     Edge 14, Type (0, 1), BuildingBlock: XIVTED_clean_linker_0, # of connection points: 2
#     Edge 15, Type (0, 1), BuildingBlock: XIVTED_clean_linker_0, # of connection points: 2
#     Edge 16, Type (0, 1), BuildingBlock: XIVTED_clean_linker_0, # of connection points: 2
#     Edge 17, Type (0, 1), BuildingBlock: XIVTED_clean_linker_0, # of connection points: 2
# Relax obj value: 0.038
# Max RMSD: 0.098
# Mean RMSD: 0.090
data_MOF--net-pth--node1-QUQFOY_clean_sbu_3--node2-MUDLON_clean_linker_0--edge1-XIVTED_clean_linker_0
_symmetry_space_group_name_H-M    P1
_symmetry_Int_Tables_number       1
_symmetry_cell_setting            triclinic
loop_
_symmetry_equiv_pos_as_xyz
'x, y, z'
_cell_length_a     34.330059
_cell_length_b     34.116564
_cell_length_c     71.197615
_cell_angle_alpha  90.155134
_cell_angle_beta   90.611551
_cell_angle_gamma 120.84555
loop_
_atom_site_label
_atom_site_type_symbol
_atom_site_fract_x
_atom_site_fract_y
_atom_site_fract_z
_atom_type_partial_charge
C0 C 0.9685 0.09022 0.05606 0.0
O1 O 0.93857 0.08003 0.04333 0.0
Cd2 Cd 0.9359 0.03595 0.01635 0.0
O3 O -0.00655 0.07265 0.05587 0.0
Cd4 Cd 0.00228 0.0152 0.0383 0.0
C5 C 0.04993 0.09327 0.0049 0.0
O6 O 0.92551 0.96374 0.02526 0.0
O7 O 0.98163 0.96435 0.01153 0.0
O8 O -0.00471 0.98028 0.06861 0.0
C9 C 0.93909 0.94665 0.01292 0.0
O10 O 0.00902 0.08124 0.00078 0.0
C11 C 0.02753 0.97274 0.06648 0.0
O12 O 0.05932 0.07734 0.01929 0.0
O13 O 0.04945 0.98609 0.05126 0.0
C14 C 0.10273 0.05822 0.38811 0.0
O15 O 0.12208 0.08374 0.37415 0.0
Cd16 Cd 0.08239 0.08834 0.34737 0.0
O17 O 0.05954 0.03557 0.3892 0.0
Cd18 Cd -0.00769 0.02684 0.37127 0.0
C19 C 0.01427 0.97323 0.33663 0.0
O20 O 0.02814 0.10482 0.35972 0.0
O21 O 0.96283 0.05768 0.34744 0.0
O22 O 0.96386 0.03448 0.40137 0.0
C23 C -0.00394 0.09828 0.34875 0.0
O24 O 0.04759 0.01268 0.33283 0.0
C25 C 0.92379 0.00091 0.39898 0.0
O26 O -0.01138 0.96757 0.35044 0.0
O27 O 0.91562 0.97814 0.38381 0.0
C28 C 0.91711 0.05243 0.68448 0.0
O29 O 0.9165 0.07289 0.69929 0.0
Cd30 Cd 0.9649 0.086 0.72619 0.0
O31 O 0.94524 0.03879 0.68298 0.0
Cd32 Cd 0.00688 0.03995 0.70185 0.0
C33 C 0.93513 0.97565 0.73594 0.0
O34 O 0.0412 0.11622 0.71627 0.0
O35 O 0.06019 0.07014 0.72823 0.0
O36 O 0.05729 0.06456 0.67524 0.0
C37 C 0.06627 0.11005 0.72763 0.0
O38 O 0.93725 0.01243 0.74118 0.0
C39 C 0.06333 0.03086 0.67505 0.0
O40 O 0.95414 0.97403 0.72091 0.0
O41 O 0.04148 -0.00034 0.68697 0.0
H42 H 0.90477 0.66613 0.21203 0.0
N43 N 0.96786 0.64841 0.20099 0.0
H44 H 0.90832 0.71215 0.23916 0.0
H45 H 0.02996 0.67653 0.2304 0.0
H46 H 0.03303 0.72117 0.25749 0.0
H47 H 0.04794 0.73104 0.20111 0.0
H48 H 0.07299 0.78919 0.17686 0.0
H49 H 0.93083 0.6401 0.16713 0.0
H50 H 0.95642 0.69813 0.14254 0.0
H51 H 0.91168 0.55871 0.2005 0.0
H52 H 0.05376 0.66166 0.20131 0.0
H53 H 0.93096 0.49902 0.20025 0.0
H54 H 0.07357 0.60282 0.20249 0.0
H55 H 0.97807 0.32665 0.21264 0.0
H56 H 0.96771 0.28038 0.24011 0.0
H57 H 0.09694 0.38675 0.2626 0.0
H58 H 0.1081 0.43173 0.23431 0.0
H59 H 0.10745 0.38133 0.18985 0.0
H60 H 0.09146 0.32947 0.16342 0.0
H61 H 0.96368 0.32312 0.15366 0.0
H62 H 0.97882 0.37251 0.18089 0.0
H63 H 0.97754 0.40284 0.21904 0.0
H64 H 0.95795 0.46177 0.21841 0.0
H65 H 0.07728 0.54705 0.18557 0.0
N66 N 0.05398 0.40831 0.20416 0.0
H67 H 0.09839 0.48891 0.18759 0.0
C68 C 0.96693 0.66779 0.21895 0.0
C69 C 0.93225 0.67715 0.22217 0.0
C70 C 0.9343 0.70334 0.2377 0.0
C71 C 0.97129 0.72078 0.25035 0.0
C72 C 0.0045 0.70889 0.24781 0.0
C73 C 0.0025 0.68284 0.23227 0.0
C74 C 0.98684 0.68129 0.18605 0.0
C75 C 0.02785 0.72325 0.18836 0.0
C76 C 0.04223 0.75654 0.17448 0.0
C77 C 0.01649 0.74821 0.15791 0.0
C78 C 0.97705 0.70532 0.15514 0.0
C79 C 0.96231 0.67227 0.16916 0.0
C80 C 0.98102 0.61449 0.20113 0.0
C81 C 0.94704 0.56833 0.20087 0.0
C82 C 0.95824 0.53431 0.20089 0.0
C83 C 0.00395 0.54582 0.20149 0.0
C84 C 0.03803 0.59236 0.20172 0.0
C85 C 0.02674 0.62629 0.20128 0.0
C86 C 0.04447 0.38241 0.22126 0.0
C87 C 0.00421 0.34005 0.22345 0.0
C88 C -0.00191 0.31377 0.23936 0.0
C89 C 0.03166 0.32951 0.2536 0.0
C90 C 0.07082 0.37297 0.25176 0.0
C91 C 0.07716 0.39897 0.2357 0.0
C92 C 0.04484 0.38131 0.18725 0.0
C93 C 0.07624 0.369 0.18185 0.0
C94 C 0.06704 0.33952 0.16663 0.0
C95 C 0.02626 0.32205 0.15622 0.0
C96 C -0.00488 0.33524 0.16144 0.0
C97 C 0.00404 0.36414 0.17691 0.0
C98 C 0.04024 0.44187 0.20368 0.0
C99 C -7e-05 0.43439 0.21194 0.0
C100 C -0.01165 0.46811 0.21132 0.0
C101 C 0.01604 0.50959 0.20201 0.0
C102 C 0.05562 0.51624 0.19331 0.0
C103 C 0.06764 0.4829 0.19429 0.0
H104 H 0.63904 0.02448 0.55506 0.0
N105 N 0.59664 0.9439 0.53495 0.0
H106 H 0.68995 0.04216 0.58198 0.0
H107 H 0.61267 0.88658 0.55387 0.0
H108 H 0.66325 0.90384 0.58112 0.0
H109 H 0.58476 0.88223 0.50905 0.0
H110 H 0.63768 0.89028 0.48443 0.0
H111 H 0.67278 0.0237 0.52456 0.0
H112 H 0.72443 0.03248 0.49973 0.0
H113 H 0.60623 0.02471 0.52206 0.0
H114 H 0.51165 0.89482 0.54646 0.0
H115 H 0.54972 0.04712 0.52321 0.0
H116 H 0.45472 0.91767 0.54805 0.0
H117 H 0.36205 0.11308 0.55437 0.0
H118 H 0.31333 0.10707 0.58014 0.0
H119 H 0.27843 0.96735 0.58891 0.0
H120 H 0.32561 0.97326 0.56238 0.0
H121 H 0.28501 0.97961 0.5307 0.0
H122 H 0.24015 0.97741 0.50361 0.0
H123 H 0.3579 0.09714 0.48153 0.0
H124 H 0.40138 0.10085 0.50953 0.0
H125 H 0.4593 0.09421 0.54833 0.0
H126 H 0.5136 0.0681 0.54694 0.0
H127 H 0.40585 0.93463 0.52875 0.0
N128 N 0.37177 0.04761 0.53947 0.0
H129 H 0.35167 0.961 0.53061 0.0
C130 C 0.62183 0.95393 0.55243 0.0
C131 C 0.64338 -0.00235 0.56081 0.0
C132 C 0.67253 0.00775 0.57627 0.0
C133 C 0.68092 0.9745 0.5836 0.0
C134 C 0.65803 0.9304 0.57562 0.0
C135 C 0.62882 0.92032 0.5602 0.0
C136 C 0.62435 0.95216 0.51862 0.0
C137 C 0.61477 0.9153 0.50678 0.0
C138 C 0.64506 0.92001 0.49272 0.0
C139 C 0.68565 0.96191 0.49025 0.0
C140 C 0.69398 -0.00053 0.50149 0.0
C141 C 0.66394 -0.00537 0.51559 0.0
C142 C 0.56323 0.95764 0.53412 0.0
C143 C 0.57332 0.0007 0.52756 0.0
C144 C 0.5409 0.01379 0.5284 0.0
C145 C 0.49775 0.98435 0.53586 0.0
C146 C 0.48744 0.94102 0.54206 0.0
C147 C 0.51992 0.92795 0.54121 0.0
C148 C 0.34789 0.04401 0.55653 0.0
C149 C 0.34445 0.08146 0.5621 0.0
C150 C 0.31664 0.07789 0.57693 0.0
C151 C 0.29179 0.03667 0.58676 0.0
C152 C 0.2965 -0.00056 0.58155 0.0
C153 C 0.32403 0.00294 0.5665 0.0
C154 C 0.34635 0.04124 0.52234 0.0
C155 C 0.30116 0.00538 0.52003 0.0
C156 C 0.27559 0.00392 0.50435 0.0
C157 C 0.29498 0.03761 0.49041 0.0
C158 C 0.34122 0.07148 0.4922 0.0
C159 C 0.3664 0.07342 0.50808 0.0
C160 C 0.40172 0.02973 0.53955 0.0
C161 C 0.44749 0.05925 0.5442 0.0
C162 C 0.47844 0.04435 0.54322 0.0
C163 C 0.46419 -0.0006 0.53752 0.0
C164 C 0.41791 0.96938 0.53328 0.0
C165 C 0.3869 0.98441 0.53428 0.0
H166 H 0.69334 0.72251 0.87074 0.0
N167 N 0.6756 0.63465 0.8672 0.0
H168 H 0.73052 0.77398 0.89742 0.0
H169 H 0.69752 0.61449 0.9003 0.0
H170 H 0.73388 0.66594 0.9274 0.0
H171 H 0.75518 0.64966 0.85556 0.0
H172 H 0.79997 0.69791 0.82946 0.0
H173 H 0.64524 0.67023 0.83987 0.0
H174 H 0.68947 0.71746 0.81361 0.0
H175 H 0.61069 0.65703 0.87407 0.0
H176 H 0.63056 0.54608 0.85904 0.0
H177 H 0.52927 0.60428 0.87572 0.0
H178 H 0.54855 0.49309 0.85962 0.0
H179 H 0.3076 0.4322 0.90449 0.0
H180 H 0.26794 0.37703 0.92962 0.0
H181 H 0.29271 0.27975 0.90152 0.0
H182 H 0.3326 0.33471 0.87679 0.0
H183 H 0.37149 0.38088 0.84744 0.0
H184 H 0.33121 0.33581 0.81968 0.0
H185 H 0.22054 0.35815 0.83087 0.0
H186 H 0.26183 0.40443 0.85847 0.0
H187 H 0.3808 0.50387 0.86111 0.0
H188 H 0.46222 0.55759 0.85819 0.0
H189 H 0.4893 0.45673 0.88134 0.0
N190 N 0.33973 0.41829 0.87285 0.0
H191 H 0.40848 0.4029 0.88325 0.0
C192 C 0.69353 0.66471 0.88338 0.0
C193 C 0.70194 0.70969 0.88299 0.0
C194 C 0.72303 0.73909 0.89827 0.0
C195 C 0.73522 0.7239 0.91436 0.0
C196 C 0.7246 0.67834 0.91516 0.0
C197 C 0.70412 0.64909 0.89973 0.0
C198 C 0.69689 0.65605 0.84973 0.0
C199 C 0.74024 0.66346 0.84618 0.0
C200 C 0.76578 0.69109 0.83136 0.0
C201 C 0.74811 0.71137 0.8196 0.0
C202 C 0.70363 0.7018 0.82238 0.0
C203 C 0.67831 0.67471 0.83743 0.0
C204 C 0.6269 0.60525 0.86672 0.0
C205 C 0.59753 0.62133 0.87097 0.0
C206 C 0.55073 0.59106 0.87173 0.0
C207 C 0.53218 0.54421 0.86798 0.0
C208 C 0.56161 0.52867 0.86304 0.0
C209 C 0.60844 0.5589 0.86251 0.0
C210 C 0.3225 0.38761 0.88861 0.0
C211 C 0.30525 0.39932 0.904 0.0
C212 C 0.28279 0.3679 0.91833 0.0
C213 C 0.27692 0.32404 0.91736 0.0
C214 C 0.2963 0.31316 0.90247 0.0
C215 C 0.3191 0.34465 0.8883 0.0
C216 C 0.31964 0.39628 0.85507 0.0
C217 C 0.33906 0.37704 0.84374 0.0
C218 C 0.31574 0.35082 0.82794 0.0
C219 C 0.27247 0.34303 0.82315 0.0
C220 C 0.25399 0.36385 0.83404 0.0
C221 C 0.2774 0.39017 0.84983 0.0
C222 C 0.3882 0.44957 0.87258 0.0
C223 C 0.40445 0.49358 0.86562 0.0
C224 C 0.45101 0.52425 0.86404 0.0
C225 C 0.4825 0.5116 0.86954 0.0
C226 C 0.46614 0.46749 0.87667 0.0
C227 C 0.41958 0.43667 0.87803 0.0
H228 H 0.04503 0.14151 0.07721 0.0
H229 H 0.9432 0.24905 0.14507 0.0
H230 H 0.90946 0.11633 0.0683 0.0
H231 H 0.08551 0.31931 0.13123 0.0
H232 H 0.928 0.19349 0.1201 0.0
H233 H 0.05837 0.1992 0.10089 0.0
C234 C 0.01796 0.14793 0.08031 0.0
C235 C 0.97605 0.12411 0.07078 0.0
C236 C 0.96246 0.22128 0.12255 0.0
C237 C -0.0089 0.18985 0.09793 0.0
C238 C 0.97125 0.25328 0.13672 0.0
C239 C 0.01587 0.28911 0.14045 0.0
C240 C -0.00143 0.22454 0.11226 0.0
C241 C 0.05075 0.29186 0.1293 0.0
C242 C 0.02573 0.18106 0.09373 0.0
C243 C 0.9423 0.13407 0.07529 0.0
N244 N 0.04141 0.25978 0.11586 0.0
N245 N 0.95042 0.16602 0.08869 0.0
H246 H 0.83228 0.93947 0.39576 0.0
H247 H 0.77777 0.00833 0.49547 0.0
H248 H 0.93381 0.03957 0.43364 0.0
H249 H 0.67352 0.92387 0.45483 0.0
H250 H 0.83509 0.01522 0.47374 0.0
H251 H 0.77346 0.92768 0.41813 0.0
C252 C 0.84223 0.95867 0.40884 0.0
C253 C 0.88802 0.99065 0.41282 0.0
C254 C 0.79971 -0.00478 0.46952 0.0
C255 C 0.821 0.97746 0.43839 0.0
C256 C 0.76686 0.99155 0.48189 0.0
C257 C 0.72062 0.96594 0.47692 0.0
C258 C 0.78648 0.97297 0.45199 0.0
C259 C 0.7087 0.94383 0.45931 0.0
C260 C 0.80864 0.95207 0.42155 0.0
C261 C 0.89896 0.01468 0.42995 0.0
N262 N 0.74143 0.94795 0.44745 0.0
N263 N 0.86574 0.00764 0.44205 0.0
H264 H 0.92772 0.97344 0.77385 0.0
H265 H 0.73165 0.71735 0.78215 0.0
H266 H 0.88618 0.88547 0.72495 0.0
H267 H 0.83132 0.78573 0.82635 0.0
H268 H 0.78004 0.78003 0.76077 0.0
H269 H 0.88432 0.90653 0.79354 0.0
C270 C 0.90946 0.93995 0.76728 0.0
C271 C 0.91049 0.93485 0.74778 0.0
C272 C 0.79138 0.78084 0.7751 0.0
C273 C 0.86024 0.85837 0.77018 0.0
C274 C 0.76384 0.74536 0.78726 0.0
C275 C 0.77775 0.74645 0.80596 0.0
C276 C 0.83227 0.81801 0.78191 0.0
C277 C 0.81964 0.78343 0.81197 0.0
C278 C 0.88492 0.90184 0.77852 0.0
C279 C 0.88639 0.89068 0.73997 0.0
N280 N 0.84514 0.81804 0.80006 0.0
N281 N 0.86162 0.854 0.75119 0.0
H282 H 0.01037 0.96713 0.10388 0.0
H283 H 0.02233 0.74568 0.11956 0.0
H284 H 0.06374 0.91837 0.06113 0.0
H285 H 0.03622 0.83479 0.16551 0.0
H286 H 0.03406 0.80577 0.0974 0.0
H287 H 0.01626 0.9166 0.12652 0.0
C288 C 0.02384 0.94612 0.09934 0.0
C289 C 0.03653 0.94679 0.08064 0.0
C290 C 0.03521 0.81232 0.11234 0.0
C291 C 0.04242 0.88825 0.10632 0.0
C292 C 0.02832 0.77806 0.12495 0.0
C293 C 0.02829 0.78538 0.14435 0.0
C294 C 0.041 0.85362 0.11922 0.0
C295 C 0.03632 0.82794 0.15066 0.0
C296 C 0.02729 0.9174 0.11225 0.0
C297 C 0.05379 0.91894 0.07546 0.0
N298 N 0.04169 0.86022 0.13812 0.0
N299 N 0.05552 0.89012 0.08818 0.0
H300 H 0.1915 0.11935 0.39657 0.0
H301 H 0.22199 0.96556 0.47186 0.0
H302 H 0.07848 0.98976 0.41374 0.0
H303 H 0.3025 0.11304 0.47305 0.0
H304 H 0.17414 0.96985 0.44721 0.0
H305 H 0.23842 0.11346 0.42115 0.0
C306 C 0.17656 0.0896 0.4055 0.0
C307 C 0.13097 0.05503 0.40315 0.0
C308 C 0.20241 0.00114 0.45292 0.0
C309 C 0.18469 0.0479 0.43112 0.0
C310 C 0.22972 -0.00117 0.46705 0.0
C311 C 0.26666 0.03901 0.47467 0.0
C312 C 0.21251 0.04383 0.44611 0.0
C313 C 0.27525 0.08102 0.46745 0.0
C314 C 0.20333 0.08637 0.41954 0.0
C315 C 0.11339 0.01731 0.41516 0.0
N316 N 0.24856 0.08228 0.45355 0.0
N317 N 0.14041 0.01455 0.42858 0.0
H318 H 0.08156 0.19681 0.73193 0.0
H319 H 0.26479 0.26113 0.81472 0.0
H320 H 0.12473 0.10618 0.75277 0.0
H321 H 0.21778 0.35074 0.79669 0.0
H322 H 0.21727 0.20629 0.7905 0.0
H323 H 0.13421 0.25558 0.75417 0.0
C324 C 0.10219 0.18932 0.74114 0.0
C325 C 0.09863 0.14648 0.74056 0.0
C326 C 0.21743 0.23801 0.79175 0.0
C327 C 0.15888 0.21347 0.76597 0.0
C328 C 0.24491 0.26958 0.8055 0.0
C329 C 0.24541 0.31072 0.80773 0.0
C330 C 0.19004 0.24745 0.7801 0.0
C331 C 0.2181 0.31926 0.7956 0.0
C332 C 0.13221 0.22286 0.75383 0.0
C333 C 0.12621 0.13865 0.75278 0.0
N334 N 0.19145 0.28785 0.78232 0.0
N335 N 0.15507 0.17177 0.76499 0.0
H336 H 0.90613 0.00639 0.65141 0.0
H337 H 0.69543 0.02679 0.61527 0.0
H338 H 0.85195 0.07624 0.68254 0.0
H339 H 0.74513 0.94998 0.58641 0.0
H340 H 0.75398 0.04763 0.63957 0.0
H341 H 0.84901 0.98803 0.62689 0.0
C342 C 0.88235 0.01805 0.65308 0.0
C343 C 0.88384 0.04283 0.66912 0.0
C344 C 0.75199 0.02612 0.62794 0.0
C345 C 0.81809 0.02172 0.64104 0.0
C346 C 0.71868 0.01435 0.61403 0.0
C347 C 0.71522 0.98642 0.59882 0.0
C348 C 0.78224 0.01005 0.62657 0.0
C349 C 0.74602 0.97096 0.59803 0.0
C350 C 0.84963 0.00744 0.63907 0.0
C351 C 0.85207 0.05699 0.67045 0.0
N352 N 0.77822 0.98303 0.61168 0.0
N353 N 0.82047 0.04618 0.65662 0.0
H354 H 0.9607 0.92788 0.9788 0.0
H355 H 0.71935 0.71591 0.95228 0.0
H356 H 0.84678 0.88856 0.01511 0.0
H357 H 0.81307 0.8056 0.91079 0.0
H358 H 0.76774 0.77028 0.97708 0.0
H359 H 0.90933 0.87359 0.95516 0.0
C360 C 0.92485 0.90762 0.98185 0.0
C361 C 0.9079 0.91277 -0.00107 0.0
C362 C 0.77736 0.77801 0.96251 0.0
C363 C 0.84905 0.85034 0.97194 0.0
C364 C 0.75001 0.74708 0.94844 0.0
C365 C 0.76231 0.75657 0.92954 0.0
C366 C 0.81766 0.81786 0.95757 0.0
C367 C 0.80224 0.79732 0.9252 0.0
C368 C 0.89557 0.87685 0.9683 0.0
C369 C 0.8611 0.8857 0.00207 0.0
N370 N 0.82873 0.82626 0.93912 0.0
N371 N 0.83317 0.85528 0.98871 0.0
H372 H 0.94023 0.88558 0.33604 0.0
H373 H 0.04972 0.7993 0.25971 0.0
H374 H 0.07087 0.97081 0.31071 0.0
H375 H 0.90779 0.72121 0.27367 0.0
H376 H 0.05993 0.85844 0.28179 0.0
H377 H 0.92927 0.82151 0.31624 0.0
C378 C 0.96659 0.89083 0.32637 0.0
C379 C 0.00646 0.93373 0.32499 0.0
C380 C 0.02654 0.82831 0.28013 0.0
C381 C -0.00572 0.8607 0.30251 0.0
C382 C 0.02076 0.79423 0.26764 0.0
C383 C 0.97784 0.75508 0.26487 0.0
C384 C -0.01082 0.82345 0.29001 0.0
C385 C 0.9414 0.751 0.27528 0.0
C386 C 0.96027 0.8543 0.31507 0.0
C387 C 0.03947 0.93854 0.31221 0.0
N388 N 0.94787 0.78483 0.2874 0.0
N389 N 0.03266 0.90253 0.30154 0.0
H390 H 0.13138 0.10245 0.65657 0.0
H391 H 0.20857 0.96164 0.59527 0.0
H392 H 0.07114 0.95745 0.6646 0.0
H393 H 0.30062 0.10173 0.61218 0.0
H394 H 0.15332 0.95807 0.61769 0.0
H395 H 0.18822 0.10201 0.63643 0.0
C396 C 0.12993 0.07042 0.65399 0.0
C397 C 0.09645 0.02988 0.66225 0.0
C398 C 0.18581 0.98939 0.61653 0.0
C399 C 0.16142 0.02921 0.63913 0.0
C400 C 0.21759 0.99147 0.60382 0.0
C401 C 0.25943 0.03227 0.60159 0.0
C402 C 0.19555 0.02855 0.62683 0.0
C403 C 0.26853 0.06991 0.61294 0.0
C404 C 0.1626 0.07029 0.64262 0.0
C405 C 0.09645 0.98944 0.65851 0.0
N406 N 0.23669 0.06729 0.62486 0.0
N407 N 0.1283 0.99001 0.64707 0.0
H408 H 0.13935 0.1539 0.01401 0.0
H409 H 0.20785 0.23845 0.9089 0.0
H410 H 0.04329 0.10691 0.96772 0.0
H411 H 0.27723 0.32851 0.95596 0.0
H412 H 0.15501 0.18066 0.93058 0.0
H413 H 0.19793 0.20988 -0.00699 0.0
C414 C 0.13073 0.15515 -0.00057 0.0
C415 C 0.08644 0.12595 -0.00742 0.0
C416 C 0.18196 0.21297 0.93617 0.0
C417 C 0.15295 0.18893 0.96865 0.0
C418 C 0.21228 0.24579 0.92385 0.0
C419 C 0.24692 0.28823 0.93069 0.0
C420 C 0.18658 0.22234 0.95553 0.0
C421 C 0.25077 0.29623 0.95017 0.0
C422 C 0.16399 0.18713 0.98754 0.0
C423 C 0.07691 0.12903 0.97361 0.0
N424 N 0.22096 0.26344 0.96198 0.0
N425 N 0.10994 0.15976 0.96229 0.0
H426 H 0.92924 0.09826 0.32745 0.0
H427 H 0.09848 0.32161 0.27163 0.0
H428 H 0.07147 0.18122 0.34199 0.0
H429 H 0.95398 0.26835 0.27224 0.0
H430 H 0.08943 0.26862 0.29641 0.0
H431 H 0.93743 0.15771 0.30584 0.0
C432 C 0.96212 0.12907 0.32615 0.0
C433 C -0.00023 0.13479 0.33646 0.0
C434 C 0.05977 0.26883 0.29122 0.0
C435 C 0.00944 0.20258 0.3117 0.0
C436 C 0.0649 0.29935 0.27712 0.0
C437 C 0.02692 0.29959 0.26969 0.0
C438 C 0.01629 0.23772 0.29781 0.0
C439 C 0.98417 0.26893 0.27719 0.0
C440 C 0.96673 0.16301 0.31388 0.0
C441 C 0.04155 0.17543 0.33431 0.0
N442 N 0.97997 0.23897 0.2907 0.0
N443 N 0.04537 0.20759 0.32203 0.0
loop_
_geom_bond_atom_site_label_1
_geom_bond_atom_site_label_2
_geom_bond_distance
_geom_bond_site_symmetry_2
_ccdc_geom_bond_type
C0 O1 1.306 1_455 S
C0 O3 1.160 . S
O1 C0 1.306 1_655 S
O1 Cd2 2.228 . S
Cd2 O1 2.228 . S
Cd2 O6 2.301 . S
Cd2 O10 2.277 1_655 S
O3 C0 1.160 . S
O3 Cd4 2.203 . S
Cd4 O3 2.203 . S
Cd4 O6 2.404 1_455 S
Cd4 O7 2.333 1_445 S
Cd4 O8 2.352 1_445 S
Cd4 O12 2.277 . S
Cd4 O13 2.356 1_545 S
C5 O10 1.209 . S
C5 O12 1.226 . S
O6 Cd2 2.301 . S
O6 Cd4 2.404 1_655 S
O6 C9 1.296 1_545 S
O7 Cd4 2.333 1_665 S
O7 C9 1.214 . S
O8 Cd4 2.352 1_665 S
O8 C11 1.258 1_655 S
C9 O6 1.296 1_565 S
C9 O7 1.214 . S
O10 Cd2 2.277 1_455 S
O10 C5 1.209 . S
C11 O8 1.258 1_455 S
C11 O13 1.282 . S
O12 Cd4 2.277 . S
O12 C5 1.226 . S
O13 Cd4 2.356 1_565 S
O13 C11 1.282 . S
C14 O15 1.306 . S
C14 O17 1.160 . S
O15 C14 1.306 . S
O15 Cd16 2.228 . S
Cd16 O15 2.228 . S
Cd16 O20 2.273 . S
Cd16 O24 2.277 1_545 S
O17 C14 1.160 . S
O17 Cd18 2.203 1_455 S
Cd18 O17 2.203 1_655 S
Cd18 O20 2.411 1_655 S
Cd18 O21 2.333 . S
Cd18 O22 2.352 . S
Cd18 O26 2.277 1_545 S
Cd18 O27 2.356 1_545 S
C19 O24 1.209 . S
C19 O26 1.226 1_455 S
O20 Cd16 2.273 . S
O20 Cd18 2.411 1_455 S
O20 C23 1.320 . S
O21 Cd18 2.333 . S
O21 C23 1.214 1_655 S
O22 Cd18 2.352 . S
O22 C25 1.258 . S
C23 O20 1.320 . S
C23 O21 1.214 1_455 S
O24 Cd16 2.277 1_565 S
O24 C19 1.209 . S
C25 O22 1.258 . S
C25 O27 1.282 1_545 S
O26 Cd18 2.277 1_565 S
O26 C19 1.226 1_655 S
O27 Cd18 2.356 1_565 S
O27 C25 1.282 1_565 S
C28 O29 1.306 . S
C28 O31 1.160 . S
O29 C28 1.306 . S
O29 Cd30 2.228 . S
Cd30 O29 2.228 . S
Cd30 O34 2.273 1_655 S
Cd30 O38 2.277 . S
O31 C28 1.160 . S
O31 Cd32 2.203 1_655 S
Cd32 O31 2.203 1_455 S
Cd32 O34 2.411 . S
Cd32 O35 2.333 . S
Cd32 O36 2.352 . S
Cd32 O40 2.277 1_445 S
Cd32 O41 2.356 1_545 S
C33 O38 1.209 1_565 S
C33 O40 1.226 . S
O34 Cd30 2.273 1_455 S
O34 Cd32 2.411 . S
O34 C37 1.320 . S
O35 Cd32 2.333 . S
O35 C37 1.214 . S
O36 Cd32 2.352 . S
O36 C39 1.258 . S
C37 O34 1.320 . S
C37 O35 1.214 . S
O38 Cd30 2.277 . S
O38 C33 1.209 1_545 S
C39 O36 1.258 . S
C39 O41 1.282 1_545 S
O40 Cd32 2.277 1_665 S
O40 C33 1.226 . S
O41 Cd32 2.356 1_565 S
O41 C39 1.282 1_565 S
H42 C69 0.929 . S
N43 C68 1.433 . S
N43 C74 1.435 . S
N43 C80 1.423 . S
H44 C70 0.930 1_655 S
H45 C73 0.931 . S
H46 C72 0.929 . S
H47 C75 0.930 . S
H48 C76 0.932 . S
H49 C79 0.929 . S
H50 C78 0.923 1_655 S
H51 C81 0.929 . S
H52 C85 0.932 . S
H53 C82 0.931 . S
H54 C84 0.929 . S
H55 C87 0.935 . S
H56 C88 0.930 1_655 S
H57 C90 0.929 . S
H58 C91 0.931 . S
H59 C93 0.930 . S
H60 C94 0.932 . S
H61 C96 0.921 1_655 S
H62 C97 0.929 . S
H63 C99 0.929 . S
H64 C100 0.931 . S
H65 C102 0.929 . S
N66 C86 1.433 . S
N66 C92 1.435 . S
N66 C98 1.423 . S
H67 C103 0.932 . S
C68 N43 1.433 . S
C68 C69 1.363 1_455 S
C68 C73 1.370 . S
C69 H42 0.929 . S
C69 C68 1.363 1_655 S
C69 C70 1.385 1_655 S
C70 H44 0.930 1_455 S
C70 C69 1.385 1_455 S
C70 C71 1.357 . S
C71 C70 1.357 . S
C71 C72 1.406 . S
C72 H46 0.929 . S
C72 C71 1.406 . S
C72 C73 1.391 . S
C73 H45 0.931 . S
C73 C68 1.370 . S
C73 C72 1.391 . S
C74 N43 1.435 . S
C74 C75 1.358 . S
C74 C79 1.371 1_455 S
C75 H47 0.930 . S
C75 C74 1.358 . S
C75 C76 1.405 . S
C76 H48 0.932 . S
C76 C75 1.405 . S
C76 C77 1.383 . S
C77 C76 1.383 . S
C77 C78 1.397 . S
C78 H50 0.923 1_455 S
C78 C77 1.397 . S
C78 C79 1.386 1_455 S
C79 H49 0.929 . S
C79 C74 1.371 1_655 S
C79 C78 1.386 1_655 S
C80 N43 1.423 . S
C80 C81 1.362 1_455 S
C80 C85 1.388 . S
C81 H51 0.929 . S
C81 C80 1.362 1_655 S
C81 C82 1.376 . S
C82 H53 0.931 . S
C82 C81 1.376 . S
C82 C83 1.386 1_655 S
C83 C82 1.386 1_455 S
C83 C84 1.351 . S
C83 C101 1.472 . S
C84 H54 0.929 . S
C84 C83 1.351 . S
C84 C85 1.443 . S
C85 H52 0.932 . S
C85 C80 1.388 . S
C85 C84 1.443 . S
C86 N66 1.433 . S
C86 C87 1.367 1_455 S
C86 C91 1.370 . S
C87 H55 0.935 . S
C87 C86 1.367 1_655 S
C87 C88 1.378 1_655 S
C88 H56 0.930 1_455 S
C88 C87 1.378 1_455 S
C88 C89 1.357 . S
C89 C88 1.357 . S
C89 C90 1.406 . S
C90 H57 0.929 . S
C90 C89 1.406 . S
C90 C91 1.391 . S
C91 H58 0.931 . S
C91 C86 1.370 . S
C91 C90 1.391 . S
C92 N66 1.435 . S
C92 C93 1.358 . S
C92 C97 1.371 1_455 S
C93 H59 0.930 . S
C93 C92 1.358 . S
C93 C94 1.405 . S
C94 H60 0.932 . S
C94 C93 1.405 . S
C94 C95 1.383 . S
C95 C94 1.383 . S
C95 C96 1.412 . S
C96 H61 0.921 1_455 S
C96 C95 1.412 . S
C96 C97 1.374 1_455 S
C97 H62 0.929 . S
C97 C92 1.371 1_655 S
C97 C96 1.374 1_655 S
C98 N66 1.423 . S
C98 C99 1.362 1_455 S
C98 C103 1.388 . S
C99 H63 0.929 . S
C99 C98 1.362 1_655 S
C99 C100 1.376 . S
C100 H64 0.931 . S
C100 C99 1.376 . S
C100 C101 1.393 1_655 S
C101 C83 1.472 . S
C101 C100 1.393 1_455 S
C101 C102 1.358 . S
C102 H65 0.929 . S
C102 C101 1.358 . S
C102 C103 1.443 . S
C103 H67 0.932 . S
C103 C98 1.388 . S
C103 C102 1.443 . S
H104 C131 0.929 . S
N105 C130 1.433 . S
N105 C136 1.435 . S
N105 C142 1.423 . S
H106 C132 0.930 . S
H107 C135 0.931 1_565 S
H108 C134 0.929 1_565 S
H109 C137 0.930 1_565 S
H110 C138 0.932 . S
H111 C141 0.929 . S
H112 C140 0.931 . S
H113 C143 0.929 . S
H114 C147 0.932 . S
H115 C144 0.931 . S
H116 C146 0.929 . S
H117 C149 0.929 . S
H118 C150 0.930 . S
H119 C152 0.929 1_565 S
H120 C153 0.931 1_565 S
H121 C155 0.930 1_565 S
H122 C156 0.932 . S
H123 C158 0.931 . S
H124 C159 0.929 . S
H125 C161 0.929 . S
H126 C162 0.931 . S
H127 C164 0.929 . S
N128 C148 1.433 . S
N128 C154 1.435 . S
N128 C160 1.423 . S
H129 C165 0.932 . S
C130 N105 1.433 . S
C130 C131 1.363 . S
C130 C135 1.370 . S
C131 H104 0.929 . S
C131 C130 1.363 . S
C131 C132 1.385 . S
C132 H106 0.930 . S
C132 C131 1.385 . S
C132 C133 1.357 . S
C133 C132 1.357 . S
C133 C134 1.406 . S
C134 H108 0.929 1_545 S
C134 C133 1.406 . S
C134 C135 1.391 . S
C135 H107 0.931 1_545 S
C135 C130 1.370 . S
C135 C134 1.391 . S
C136 N105 1.435 . S
C136 C137 1.358 . S
C136 C141 1.371 . S
C137 H109 0.930 1_545 S
C137 C136 1.358 . S
C137 C138 1.405 1_545 S
C138 H110 0.932 . S
C138 C137 1.405 1_565 S
C138 C139 1.383 1_565 S
C139 C138 1.383 1_545 S
C139 C140 1.393 . S
C140 H112 0.931 . S
C140 C139 1.393 . S
C140 C141 1.382 . S
C141 H111 0.929 . S
C141 C136 1.371 . S
C141 C140 1.382 . S
C142 N105 1.423 . S
C142 C143 1.362 . S
C142 C147 1.388 . S
C143 H113 0.929 . S
C143 C142 1.362 . S
C143 C144 1.376 . S
C144 H115 0.931 . S
C144 C143 1.376 . S
C144 C145 1.396 . S
C145 C144 1.396 . S
C145 C146 1.348 . S
C145 C163 1.472 . S
C146 H116 0.929 . S
C146 C145 1.348 . S
C146 C147 1.443 . S
C147 H114 0.932 . S
C147 C142 1.388 . S
C147 C146 1.443 . S
C148 N128 1.433 . S
C148 C149 1.363 . S
C148 C153 1.370 . S
C149 H117 0.929 . S
C149 C148 1.363 . S
C149 C150 1.385 . S
C150 H118 0.930 . S
C150 C149 1.385 . S
C150 C151 1.357 . S
C151 C150 1.357 . S
C151 C152 1.406 . S
C152 H119 0.929 1_545 S
C152 C151 1.406 . S
C152 C153 1.391 . S
C153 H120 0.931 1_545 S
C153 C148 1.370 . S
C153 C152 1.391 . S
C154 N128 1.435 . S
C154 C155 1.358 . S
C154 C159 1.371 . S
C155 H121 0.930 1_545 S
C155 C154 1.358 . S
C155 C156 1.405 1_545 S
C156 H122 0.932 . S
C156 C155 1.405 1_565 S
C156 C157 1.383 1_565 S
C157 C156 1.383 1_545 S
C157 C158 1.393 . S
C158 H123 0.931 . S
C158 C157 1.393 . S
C158 C159 1.382 . S
C159 H124 0.929 . S
C159 C154 1.371 . S
C159 C158 1.382 . S
C160 N128 1.423 . S
C160 C161 1.362 . S
C160 C165 1.388 . S
C161 H125 0.929 . S
C161 C160 1.362 . S
C161 C162 1.376 . S
C162 H126 0.931 . S
C162 C161 1.376 . S
C162 C163 1.396 . S
C163 C145 1.472 . S
C163 C162 1.396 . S
C163 C164 1.348 . S
C164 H127 0.929 . S
C164 C163 1.348 . S
C164 C165 1.443 . S
C165 H129 0.932 . S
C165 C160 1.388 . S
C165 C164 1.443 . S
H166 C193 0.929 . S
N167 C192 1.433 . S
N167 C198 1.435 . S
N167 C204 1.423 . S
H168 C194 0.930 . S
H169 C197 0.931 . S
H170 C196 0.929 . S
H171 C199 0.930 . S
H172 C200 0.932 . S
H173 C203 0.929 . S
H174 C202 0.931 . S
H175 C205 0.929 . S
H176 C209 0.932 . S
H177 C206 0.931 . S
H178 C208 0.929 . S
H179 C211 0.929 . S
H180 C212 0.930 . S
H181 C214 0.929 . S
H182 C215 0.931 . S
H183 C217 0.930 . S
H184 C218 0.932 . S
H185 C220 0.931 . S
H186 C221 0.929 . S
H187 C223 0.929 . S
H188 C224 0.931 . S
H189 C226 0.929 . S
N190 C210 1.433 . S
N190 C216 1.435 . S
N190 C222 1.423 . S
H191 C227 0.932 . S
C192 N167 1.433 . S
C192 C193 1.363 . S
C192 C197 1.370 . S
C193 H166 0.929 . S
C193 C192 1.363 . S
C193 C194 1.385 . S
C194 H168 0.930 . S
C194 C193 1.385 . S
C194 C195 1.357 . S
C195 C194 1.357 . S
C195 C196 1.406 . S
C196 H170 0.929 . S
C196 C195 1.406 . S
C196 C197 1.391 . S
C197 H169 0.931 . S
C197 C192 1.370 . S
C197 C196 1.391 . S
C198 N167 1.435 . S
C198 C199 1.358 . S
C198 C203 1.371 . S
C199 H171 0.930 . S
C199 C198 1.358 . S
C199 C200 1.405 . S
C200 H172 0.932 . S
C200 C199 1.405 . S
C200 C201 1.383 . S
C201 C200 1.383 . S
C201 C202 1.393 . S
C202 H174 0.931 . S
C202 C201 1.393 . S
C202 C203 1.382 . S
C203 H173 0.929 . S
C203 C198 1.371 . S
C203 C202 1.382 . S
C204 N167 1.423 . S
C204 C205 1.362 . S
C204 C209 1.388 . S
C205 H175 0.929 . S
C205 C204 1.362 . S
C205 C206 1.376 . S
C206 H177 0.931 . S
C206 C205 1.376 . S
C206 C207 1.396 . S
C207 C206 1.396 . S
C207 C208 1.348 . S
C207 C225 1.472 . S
C208 H178 0.929 . S
C208 C207 1.348 . S
C208 C209 1.443 . S
C209 H176 0.932 . S
C209 C204 1.388 . S
C209 C208 1.443 . S
C210 N190 1.433 . S
C210 C211 1.363 . S
C210 C215 1.370 . S
C211 H179 0.929 . S
C211 C210 1.363 . S
C211 C212 1.385 . S
C212 H180 0.930 . S
C212 C211 1.385 . S
C212 C213 1.357 . S
C213 C212 1.357 . S
C213 C214 1.406 . S
C214 H181 0.929 . S
C214 C213 1.406 . S
C214 C215 1.391 . S
C215 H182 0.931 . S
C215 C210 1.370 . S
C215 C214 1.391 . S
C216 N190 1.435 . S
C216 C217 1.358 . S
C216 C221 1.371 . S
C217 H183 0.930 . S
C217 C216 1.358 . S
C217 C218 1.405 . S
C218 H184 0.932 . S
C218 C217 1.405 . S
C218 C219 1.383 . S
C219 C218 1.383 . S
C219 C220 1.393 . S
C220 H185 0.931 . S
C220 C219 1.393 . S
C220 C221 1.382 . S
C221 H186 0.929 . S
C221 C216 1.371 . S
C221 C220 1.382 . S
C222 N190 1.423 . S
C222 C223 1.362 . S
C222 C227 1.388 . S
C223 H187 0.929 . S
C223 C222 1.362 . S
C223 C224 1.376 . S
C224 H188 0.931 . S
C224 C223 1.376 . S
C224 C225 1.396 . S
C225 C207 1.472 . S
C225 C224 1.396 . S
C225 C226 1.348 . S
C226 H189 0.929 . S
C226 C225 1.348 . S
C226 C227 1.443 . S
C227 H191 0.932 . S
C227 C222 1.388 . S
C227 C226 1.443 . S
H228 C234 0.930 . S
H229 C238 0.930 . S
H230 C243 0.929 . S
H231 C241 0.929 . S
H232 C236 0.929 . S
H233 C242 0.929 . S
C234 H228 0.930 . S
C234 C235 1.367 . S
C234 C242 1.378 . S
C235 C234 1.367 . S
C235 C243 1.433 1_455 S
C236 H232 0.929 . S
C236 C238 1.378 . S
C236 C240 1.350 1_655 S
C237 C240 1.463 . S
C237 C242 1.350 . S
C237 N245 1.427 1_455 S
C238 H229 0.930 . S
C238 C236 1.378 . S
C238 C239 1.367 1_655 S
C239 C238 1.367 1_455 S
C239 C241 1.433 . S
C240 C236 1.350 1_455 S
C240 C237 1.463 . S
C240 N244 1.427 . S
C241 H231 0.929 . S
C241 C239 1.433 . S
C241 N244 1.384 . S
C242 H233 0.929 . S
C242 C234 1.378 . S
C242 C237 1.350 . S
C243 H230 0.929 . S
C243 C235 1.433 1_655 S
C243 N245 1.384 . S
N244 C240 1.427 . S
N244 C241 1.384 . S
N245 C237 1.427 1_655 S
N245 C243 1.384 . S
H246 C252 0.930 . S
H247 C256 0.930 . S
H248 C261 0.929 . S
H249 C259 0.929 . S
H250 C254 0.929 . S
H251 C260 0.929 . S
C252 H246 0.930 . S
C252 C253 1.367 1_565 S
C252 C260 1.378 . S
C253 C252 1.367 1_545 S
C253 C261 1.433 . S
C254 H250 0.929 . S
C254 C256 1.378 . S
C254 C258 1.350 . S
C255 C258 1.463 . S
C255 C260 1.350 1_545 S
C255 N263 1.427 . S
C256 H247 0.930 . S
C256 C254 1.378 . S
C256 C257 1.367 . S
C257 C256 1.367 . S
C257 C259 1.433 1_545 S
C258 C254 1.350 . S
C258 C255 1.463 . S
C258 N262 1.427 1_545 S
C259 H249 0.929 . S
C259 C257 1.433 1_565 S
C259 N262 1.384 . S
C260 H251 0.929 . S
C260 C252 1.378 . S
C260 C255 1.350 1_565 S
C261 H248 0.929 . S
C261 C253 1.433 . S
C261 N263 1.384 . S
N262 C258 1.427 1_565 S
N262 C259 1.384 . S
N263 C255 1.427 . S
N263 C261 1.384 . S
H264 C270 0.930 . S
H265 C274 0.930 . S
H266 C279 0.929 . S
H267 C277 0.929 . S
H268 C272 0.929 . S
H269 C278 0.929 . S
C270 H264 0.930 . S
C270 C271 1.367 . S
C270 C278 1.378 . S
C271 C270 1.367 . S
C271 C279 1.433 . S
C272 H268 0.929 . S
C272 C274 1.378 . S
C272 C276 1.350 . S
C273 C276 1.463 . S
C273 C278 1.350 . S
C273 N281 1.427 . S
C274 H265 0.930 . S
C274 C272 1.378 . S
C274 C275 1.367 . S
C275 C274 1.367 . S
C275 C277 1.433 . S
C276 C272 1.350 . S
C276 C273 1.463 . S
C276 N280 1.427 . S
C277 H267 0.929 . S
C277 C275 1.433 . S
C277 N280 1.384 . S
C278 H269 0.929 . S
C278 C270 1.378 . S
C278 C273 1.350 . S
C279 H266 0.929 . S
C279 C271 1.433 . S
C279 N281 1.384 . S
N280 C276 1.427 . S
N280 C277 1.384 . S
N281 C273 1.427 . S
N281 C279 1.384 . S
H282 C288 0.930 1_655 S
H283 C292 0.930 . S
H284 C297 0.929 . S
H285 C295 0.920 1_655 S
H286 C290 0.929 . S
H287 C296 0.929 1_655 S
C288 H282 0.930 1_455 S
C288 C289 1.367 . S
C288 C296 1.378 . S
C289 C288 1.367 . S
C289 C297 1.433 . S
C290 H286 0.929 . S
C290 C292 1.378 . S
C290 C294 1.350 . S
C291 C294 1.463 . S
C291 C296 1.350 . S
C291 N299 1.427 . S
C292 H283 0.930 . S
C292 C290 1.378 . S
C292 C293 1.367 . S
C293 C292 1.367 . S
C293 C295 1.433 . S
C294 C290 1.350 . S
C294 C291 1.463 . S
C294 N298 1.427 . S
C295 H285 0.920 1_455 S
C295 C293 1.433 . S
C295 N298 1.384 . S
C296 H287 0.929 1_455 S
C296 C288 1.378 . S
C296 C291 1.350 . S
C297 H284 0.929 . S
C297 C289 1.433 . S
C297 N299 1.384 . S
N298 C294 1.427 . S
N298 C295 1.384 . S
N299 C291 1.427 . S
N299 C297 1.384 . S
H300 C306 0.930 . S
H301 C310 0.930 . S
H302 C315 0.929 . S
H303 C313 0.929 . S
H304 C308 0.929 . S
H305 C314 0.929 . S
C306 H300 0.930 . S
C306 C307 1.367 . S
C306 C314 1.378 . S
C307 C306 1.367 . S
C307 C315 1.433 1_545 S
C308 H304 0.929 . S
C308 C310 1.378 . S
C308 C312 1.350 1_565 S
C309 C312 1.463 . S
C309 C314 1.350 . S
C309 N317 1.427 1_545 S
C310 H301 0.930 . S
C310 C308 1.378 . S
C310 C311 1.367 1_565 S
C311 C310 1.367 1_545 S
C311 C313 1.433 . S
C312 C308 1.350 1_545 S
C312 C309 1.463 . S
C312 N316 1.427 . S
C313 H303 0.929 . S
C313 C311 1.433 . S
C313 N316 1.384 . S
C314 H305 0.929 . S
C314 C306 1.378 . S
C314 C309 1.350 . S
C315 H302 0.929 . S
C315 C307 1.433 1_565 S
C315 N317 1.384 . S
N316 C312 1.427 . S
N316 C313 1.384 . S
N317 C309 1.427 1_565 S
N317 C315 1.384 . S
H318 C324 0.930 . S
H319 C328 0.930 . S
H320 C333 0.929 . S
H321 C331 0.929 . S
H322 C326 0.929 . S
H323 C332 0.929 . S
C324 H318 0.930 . S
C324 C325 1.367 . S
C324 C332 1.378 . S
C325 C324 1.367 . S
C325 C333 1.433 . S
C326 H322 0.929 . S
C326 C328 1.378 . S
C326 C330 1.350 . S
C327 C330 1.463 . S
C327 C332 1.350 . S
C327 N335 1.427 . S
C328 H319 0.930 . S
C328 C326 1.378 . S
C328 C329 1.367 . S
C329 C328 1.367 . S
C329 C331 1.433 . S
C330 C326 1.350 . S
C330 C327 1.463 . S
C330 N334 1.427 . S
C331 H321 0.929 . S
C331 C329 1.433 . S
C331 N334 1.384 . S
C332 H323 0.929 . S
C332 C324 1.378 . S
C332 C327 1.350 . S
C333 H320 0.929 . S
C333 C325 1.433 . S
C333 N335 1.384 . S
N334 C330 1.427 . S
N334 C331 1.384 . S
N335 C327 1.427 . S
N335 C333 1.384 . S
H336 C342 0.930 1_565 S
H337 C346 0.930 . S
H338 C351 0.929 . S
H339 C349 0.929 1_565 S
H340 C344 0.929 . S
H341 C350 0.929 1_565 S
C342 H336 0.930 1_545 S
C342 C343 1.367 . S
C342 C350 1.378 . S
C343 C342 1.367 . S
C343 C351 1.433 . S
C344 H340 0.929 . S
C344 C346 1.378 . S
C344 C348 1.350 . S
C345 C348 1.463 . S
C345 C350 1.350 . S
C345 N353 1.427 . S
C346 H337 0.930 . S
C346 C344 1.378 . S
C346 C347 1.367 . S
C347 C346 1.367 . S
C347 C349 1.433 . S
C348 C344 1.350 . S
C348 C345 1.463 . S
C348 N352 1.427 . S
C349 H339 0.929 1_545 S
C349 C347 1.433 . S
C349 N352 1.384 . S
C350 H341 0.929 1_545 S
C350 C342 1.378 . S
C350 C345 1.350 . S
C351 H338 0.929 . S
C351 C343 1.433 . S
C351 N353 1.384 . S
N352 C348 1.427 . S
N352 C349 1.384 . S
N353 C345 1.427 . S
N353 C351 1.384 . S
H354 C360 0.930 . S
H355 C364 0.930 . S
H356 C369 0.929 . S
H357 C367 0.929 . S
H358 C362 0.929 . S
H359 C368 0.929 . S
C360 H354 0.930 . S
C360 C361 1.367 1_556 S
C360 C368 1.378 . S
C361 C360 1.367 1_554 S
C361 C369 1.433 . S
C362 H358 0.929 . S
C362 C364 1.378 . S
C362 C366 1.350 . S
C363 C366 1.463 . S
C363 C368 1.350 . S
C363 N371 1.427 1_556 S
C364 H355 0.930 . S
C364 C362 1.378 . S
C364 C365 1.367 . S
C365 C364 1.367 . S
C365 C367 1.433 . S
C366 C362 1.350 . S
C366 C363 1.463 . S
C366 N370 1.427 . S
C367 H357 0.929 . S
C367 C365 1.433 . S
C367 N370 1.384 . S
C368 H359 0.929 . S
C368 C360 1.378 . S
C368 C363 1.350 . S
C369 H356 0.929 . S
C369 C361 1.433 . S
C369 N371 1.384 . S
N370 C366 1.427 . S
N370 C367 1.384 . S
N371 C363 1.427 1_554 S
N371 C369 1.384 . S
H372 C378 0.930 . S
H373 C382 0.930 . S
H374 C387 0.929 . S
H375 C385 0.929 . S
H376 C380 0.929 . S
H377 C386 0.929 . S
C378 H372 0.930 . S
C378 C379 1.367 1_655 S
C378 C386 1.378 . S
C379 C378 1.367 1_455 S
C379 C387 1.433 . S
C380 H376 0.929 . S
C380 C382 1.378 . S
C380 C384 1.350 . S
C381 C384 1.463 . S
C381 C386 1.350 1_455 S
C381 N389 1.427 . S
C382 H373 0.930 . S
C382 C380 1.378 . S
C382 C383 1.367 . S
C383 C382 1.367 . S
C383 C385 1.433 1_455 S
C384 C380 1.350 . S
C384 C381 1.463 . S
C384 N388 1.427 1_455 S
C385 H375 0.929 . S
C385 C383 1.433 1_655 S
C385 N388 1.384 . S
C386 H377 0.929 . S
C386 C378 1.378 . S
C386 C381 1.350 1_655 S
C387 H374 0.929 . S
C387 C379 1.433 . S
C387 N389 1.384 . S
N388 C384 1.427 1_655 S
N388 C385 1.384 . S
N389 C381 1.427 . S
N389 C387 1.384 . S
H390 C396 0.930 . S
H391 C400 0.930 . S
H392 C405 0.929 . S
H393 C403 0.929 . S
H394 C398 0.929 . S
H395 C404 0.929 . S
C396 H390 0.930 . S
C396 C397 1.367 . S
C396 C404 1.378 . S
C397 C396 1.367 . S
C397 C405 1.433 1_545 S
C398 H394 0.929 . S
C398 C400 1.378 . S
C398 C402 1.350 1_565 S
C399 C402 1.463 . S
C399 C404 1.350 . S
C399 N407 1.427 1_545 S
C400 H391 0.930 . S
C400 C398 1.378 . S
C400 C401 1.367 1_565 S
C401 C400 1.367 1_545 S
C401 C403 1.433 . S
C402 C398 1.350 1_545 S
C402 C399 1.463 . S
C402 N406 1.427 . S
C403 H393 0.929 . S
C403 C401 1.433 . S
C403 N406 1.384 . S
C404 H395 0.929 . S
C404 C396 1.378 . S
C404 C399 1.350 . S
C405 H392 0.929 . S
C405 C397 1.433 1_565 S
C405 N407 1.384 . S
N406 C402 1.427 . S
N406 C403 1.384 . S
N407 C399 1.427 1_565 S
N407 C405 1.384 . S
H408 C414 0.930 . S
H409 C418 0.930 . S
H410 C423 0.929 . S
H411 C421 0.929 . S
H412 C416 0.929 . S
H413 C422 0.929 . S
C414 H408 0.930 . S
C414 C415 1.367 . S
C414 C422 1.378 . S
C415 C414 1.367 . S
C415 C423 1.433 1_554 S
C416 H412 0.929 . S
C416 C418 1.378 . S
C416 C420 1.350 . S
C417 C420 1.463 . S
C417 C422 1.350 1_556 S
C417 N425 1.427 . S
C418 H409 0.930 . S
C418 C416 1.378 . S
C418 C419 1.367 . S
C419 C418 1.367 . S
C419 C421 1.433 . S
C420 C416 1.350 . S
C420 C417 1.463 . S
C420 N424 1.427 . S
C421 H411 0.929 . S
C421 C419 1.433 . S
C421 N424 1.384 . S
C422 H413 0.929 . S
C422 C414 1.378 . S
C422 C417 1.350 1_554 S
C423 H410 0.929 . S
C423 C415 1.433 1_556 S
C423 N425 1.384 . S
N424 C420 1.427 . S
N424 C421 1.384 . S
N425 C417 1.427 . S
N425 C423 1.384 . S
H426 C432 0.930 . S
H427 C436 0.930 . S
H428 C441 0.929 . S
H429 C439 0.929 . S
H430 C434 0.929 . S
H431 C440 0.929 . S
C432 H426 0.930 . S
C432 C433 1.367 1_655 S
C432 C440 1.378 . S
C433 C432 1.367 1_455 S
C433 C441 1.433 . S
C434 H430 0.929 . S
C434 C436 1.378 . S
C434 C438 1.350 . S
C435 C438 1.463 . S
C435 C440 1.350 1_455 S
C435 N443 1.427 . S
C436 H427 0.930 . S
C436 C434 1.378 . S
C436 C437 1.367 . S
C437 C436 1.367 . S
C437 C439 1.433 1_455 S
C438 C434 1.350 . S
C438 C435 1.463 . S
C438 N442 1.427 1_455 S
C439 H429 0.929 . S
C439 C437 1.433 1_655 S
C439 N442 1.384 . S
C440 H431 0.929 . S
C440 C432 1.378 . S
C440 C435 1.350 1_655 S
C441 H428 0.929 . S
C441 C433 1.433 . S
C441 N443 1.384 . S
N442 C438 1.427 1_655 S
N442 C439 1.384 . S
N443 C435 1.427 . S
N443 C441 1.384 . S
C239 C95 1.350 . S
C235 C0 1.359 . S
C253 C25 1.405 . S
C257 C139 1.396 . S
C271 C33 1.437 . S
C275 C201 1.437 . S
C289 C11 1.367 . S
C293 C77 1.361 . S
C311 C157 1.384 . S
C307 C14 1.390 . S
C325 C37 1.445 . S
C329 C219 1.439 . S
C347 C133 1.605 . S
C343 C28 1.693 . S
C361 C9 1.741 . S
C365 C195 1.657 . S
C383 C71 1.669 . S
C379 C19 1.777 . S
C401 C151 1.614 . S
C397 C39 1.713 . S
C419 C213 1.633 . S
C415 C5 1.733 . S
C433 C23 1.773 . S
C437 C89 1.685 . S
