# Generated by pormake.
# Topology ssa, (4,4)-cn, num edge types: 1
# Building blocks:
#     Node 0, Type 0, BuildingBlock: KOZSID_clean_sbu_0, # of connection points: 4
#     Node 1, Type 0, BuildingBlock: KOZSID_clean_sbu_0, # of connection points: 4
#     Node 2, Type 0, BuildingBlock: KOZSID_clean_sbu_0, # of connection points: 4
#     Node 3, Type 0, BuildingBlock: KOZSID_clean_sbu_0, # of connection points: 4
#     Node 4, Type 0, BuildingBlock: KOZSID_clean_sbu_0, # of connection points: 4
#     Node 5, Type 0, BuildingBlock: KOZSID_clean_sbu_0, # of connection points: 4
#     Node 6, Type 1, BuildingBlock: MUDLON_clean_linker_0, # of connection points: 4
#     Node 7, Type 1, BuildingBlock: MUDLON_clean_linker_0, # of connection points: 4
#     Node 8, Type 1, BuildingBlock: MUDLON_clean_linker_0, # of connection points: 4
#     Node 9, Type 1, BuildingBlock: MUDLON_clean_linker_0, # of connection points: 4
#     Node 10, Type 1, BuildingBlock: MUDLON_clean_linker_0, # of connection points: 4
#     Node 11, Type 1, BuildingBlock: MUDLON_clean_linker_0, # of connection points: 4
#     Edge 12, Type (0, 1), BuildingBlock: XUDNAN_clean_linker_2, # of connection points: 2
#     Edge 13, Type (0, 1), BuildingBlock: XUDNAN_clean_linker_2, # of connection points: 2
#     Edge 14, Type (0, 1), BuildingBlock: XUDNAN_clean_linker_2, # of connection points: 2
#     Edge 15, Type (0, 1), BuildingBlock: XUDNAN_clean_linker_2, # of connection points: 2
#     Edge 16, Type (0, 1), BuildingBlock: XUDNAN_clean_linker_2, # of connection points: 2
#     Edge 17, Type (0, 1), BuildingBlock: XUDNAN_clean_linker_2, # of connection points: 2
#     Edge 18, Type (0, 1), BuildingBlock: XUDNAN_clean_linker_2, # of connection points: 2
#     Edge 19, Type (0, 1), BuildingBlock: XUDNAN_clean_linker_2, # of connection points: 2
#     Edge 20, Type (0, 1), BuildingBlock: XUDNAN_clean_linker_2, # of connection points: 2
#     Edge 21, Type (0, 1), BuildingBlock: XUDNAN_clean_linker_2, # of connection points: 2
#     Edge 22, Type (0, 1), BuildingBlock: XUDNAN_clean_linker_2, # of connection points: 2
#     Edge 23, Type (0, 1), BuildingBlock: XUDNAN_clean_linker_2, # of connection points: 2
#     Edge 24, Type (0, 1), BuildingBlock: XUDNAN_clean_linker_2, # of connection points: 2
#     Edge 25, Type (0, 1), BuildingBlock: XUDNAN_clean_linker_2, # of connection points: 2
#     Edge 26, Type (0, 1), BuildingBlock: XUDNAN_clean_linker_2, # of connection points: 2
#     Edge 27, Type (0, 1), BuildingBlock: XUDNAN_clean_linker_2, # of connection points: 2
#     Edge 28, Type (0, 1), BuildingBlock: XUDNAN_clean_linker_2, # of connection points: 2
#     Edge 29, Type (0, 1), BuildingBlock: XUDNAN_clean_linker_2, # of connection points: 2
#     Edge 30, Type (0, 1), BuildingBlock: XUDNAN_clean_linker_2, # of connection points: 2
#     Edge 31, Type (0, 1), BuildingBlock: XUDNAN_clean_linker_2, # of connection points: 2
#     Edge 32, Type (0, 1), BuildingBlock: XUDNAN_clean_linker_2, # of connection points: 2
#     Edge 33, Type (0, 1), BuildingBlock: XUDNAN_clean_linker_2, # of connection points: 2
#     Edge 34, Type (0, 1), BuildingBlock: XUDNAN_clean_linker_2, # of connection points: 2
#     Edge 35, Type (0, 1), BuildingBlock: XUDNAN_clean_linker_2, # of connection points: 2
# Relax obj value: 0.007
# Max RMSD: 0.044
# Mean RMSD: 0.025
data_MOF--net-ssa--node1-KOZSID_clean_sbu_0--node2-MUDLON_clean_linker_0--edge1-XUDNAN_clean_linker_2
_symmetry_space_group_name_H-M    P1
_symmetry_Int_Tables_number       1
_symmetry_cell_setting            triclinic
loop_
_symmetry_equiv_pos_as_xyz
'x, y, z'
_cell_length_a     74.728476
_cell_length_b     76.218438
_cell_length_c     42.436493
_cell_angle_alpha  87.618069
_cell_angle_beta   89.935987
_cell_angle_gamma 121.91387
loop_
_atom_site_label
_atom_site_type_symbol
_atom_site_fract_x
_atom_site_fract_y
_atom_site_fract_z
_atom_type_partial_charge
C0 C 0.97372 0.5041 0.03711 0.0
C1 C 0.95526 0.49898 0.05323 0.0
C2 C 0.95438 0.48829 0.08036 0.0
C3 C 0.97213 0.48728 0.07912 0.0
N4 N 0.98437 0.49673 0.05288 0.0
Co5 Co 0.01084 0.49763 0.04077 0.0
N6 N 0.00991 0.48262 0.08127 0.0
C7 C 0.99619 0.47726 0.10587 0.0
C8 C 1.0002 0.46838 0.13138 0.0
C9 C 0.01756 0.46804 0.12261 0.0
C10 C 0.02302 0.47655 0.09193 0.0
N11 N 0.03656 0.4974 0.0278 0.0
C12 C 0.04627 0.48862 0.04247 0.0
C13 C 0.06272 0.49076 0.02396 0.0
C14 C 0.06366 0.50153 0.9969 0.0
C15 C 0.04765 0.50512 0.0002 0.0
N16 N 0.01244 0.51367 0.00105 0.0
C17 C 0.02785 0.52158 0.97841 0.0
C18 C 0.0255 0.53298 0.95485 0.0
C19 C 0.00757 0.53247 0.96299 0.0
C20 C 0.99987 0.52055 0.99105 0.0
N21 N 0.02848 0.52431 0.06148 0.0
C22 C 0.05291 0.56251 0.08988 0.0
C23 C 0.06112 0.55748 0.06474 0.0
C24 C 0.04865 0.53854 0.05074 0.0
C25 C 0.03245 0.54811 0.1009 0.0
C26 C 0.02071 0.52916 0.08677 0.0
N27 N 0.99322 0.47105 0.02007 0.0
C28 C 0.98415 0.45078 0.97378 0.0
C29 C 0.96827 0.43324 0.99071 0.0
C30 C 0.96506 0.43499 0.02257 0.0
C31 C 0.97756 0.45388 0.03665 0.0
C32 C 0.99637 0.46935 0.9888 0.0
H33 H 0.97426 0.45421 0.06099 0.0
H34 H 0.00834 0.48209 0.97465 0.0
H35 H 0.05569 0.53589 0.03114 0.0
H36 H 0.00537 0.51875 0.09679 0.0
C37 C 0.9787 0.47921 0.10333 0.0
C38 C 0.98063 0.51629 0.00727 0.0
C39 C 0.04058 0.47828 0.07385 0.0
C40 C 0.04341 0.51674 0.97875 0.0
H41 H 0.94374 0.50279 0.04629 0.0
H42 H 0.94243 0.4823 0.09904 0.0
H43 H 0.99134 0.46252 0.15353 0.0
H44 H 0.02522 0.46203 0.13714 0.0
H45 H 0.07307 0.4852 0.02943 0.0
H46 H 0.07481 0.50633 0.97728 0.0
H47 H 0.03549 0.54057 0.93404 0.0
H48 H 1.00091 0.54 0.94969 0.0
H49 H 0.07695 0.56831 0.05548 0.0
H50 H 0.02562 0.55137 0.12064 0.0
H51 H 0.98745 0.45014 0.94914 0.0
H52 H 0.95279 0.4219 0.03661 0.0
C53 C 0.56617 0.03171 0.55025 0.0
C54 C 0.5682 0.03138 0.58286 0.0
C55 C 0.5488 0.01691 0.59558 0.0
C56 C 0.53592 0.00929 0.57034 0.0
N57 N 0.54603 0.01785 0.54236 0.0
Co58 Co 0.53226 0.01279 0.50084 0.0
N59 N 0.50681 0.98686 0.51769 0.0
C60 C 0.50094 0.98157 0.54827 0.0
C61 C 0.4824 0.96278 0.55272 0.0
C62 C 0.4762 0.95588 0.52301 0.0
C63 C 0.49142 0.9709 0.50209 0.0
N64 N 0.51822 0.00774 0.45959 0.0
C65 C 0.50197 0.98997 0.44876 0.0
C66 C 0.4978 0.99297 0.41776 0.0
C67 C 0.51164 0.01342 0.40931 0.0
C68 C 0.52362 0.02172 0.43533 0.0
N69 N 0.55774 0.03868 0.48386 0.0
C70 C 0.55928 0.0489 0.45631 0.0
C71 C 0.57931 0.06528 0.44937 0.0
C72 C 0.59104 0.06564 0.47434 0.0
C73 C 0.57735 0.04969 0.49565 0.0
N74 N 0.54464 0.9969 0.48877 0.0
C75 C 0.55812 0.97101 0.46898 0.0
C76 C 0.55963 0.98671 0.44862 0.0
C77 C 0.55293 0.99951 0.45899 0.0
C78 C 0.55048 0.96909 0.49991 0.0
C79 C 0.5438 0.98215 0.50931 0.0
N80 N 0.51962 0.0285 0.51298 0.0
C81 C 0.52174 0.05639 0.54084 0.0
C82 C 0.49997 0.04764 0.53835 0.0
C83 C 0.48853 0.02987 0.52105 0.0
C84 C 0.49864 0.02061 0.50848 0.0
C85 C 0.53126 0.04663 0.52791 0.0
H86 H 0.48927 0.00661 0.49613 0.0
H87 H 0.54789 0.05336 0.53117 0.0
H88 H 0.554 0.01119 0.44257 0.0
H89 H 0.53739 0.97993 0.53293 0.0
C90 C 0.51484 0.99292 0.57181 0.0
C91 C 0.5829 0.04711 0.52814 0.0
C92 C 0.48983 0.9704 0.46769 0.0
C93 C 0.54266 0.04076 0.43536 0.0
H94 H 0.58197 0.04105 0.59642 0.0
H95 H 0.54461 0.01247 0.62032 0.0
H96 H 0.47468 0.95474 0.5749 0.0
H97 H 0.462 0.94156 0.51738 0.0
H98 H 0.48626 0.98161 0.40253 0.0
H99 H 0.51359 0.02097 0.38629 0.0
H100 H 0.58491 0.07529 0.42816 0.0
H101 H 0.60772 0.07667 0.47674 0.0
H102 H 0.56582 0.98902 0.42469 0.0
H103 H 0.54899 0.95714 0.51642 0.0
H104 H 0.53123 0.07009 0.55402 0.0
H105 H 0.47175 0.02283 0.51792 0.0
C106 C 0.56548 0.53043 0.95967 0.0
C107 C 0.57105 0.54123 0.93055 0.0
C108 C 0.55324 0.53964 0.91909 0.0
C109 C 0.53791 0.52816 0.94182 0.0
N110 N 0.54483 0.5223 0.96718 0.0
Co111 Co 0.52795 0.50619 0.00615 0.0
N112 N 0.50144 0.50268 0.98825 0.0
C113 C 0.49914 0.50895 0.95906 0.0
C114 C 0.47909 0.50433 0.95344 0.0
C115 C 0.46789 0.49461 0.98071 0.0
C116 C 0.48184 0.49387 0.00148 0.0
N117 N 0.51127 0.49091 0.04571 0.0
C118 C 0.491 0.48409 0.054 0.0
C119 C 0.48589 0.47518 0.08444 0.0
C120 C 0.50365 0.47668 0.09599 0.0
C121 C 0.51851 0.48638 0.07207 0.0
N122 N 0.55423 0.50885 0.02348 0.0
C123 C 0.55606 0.50088 0.05151 0.0
C124 C 0.57575 0.50428 0.05631 0.0
C125 C 0.5872 0.51491 0.02963 0.0
C126 C 0.57379 0.51753 0.01012 0.0
N127 N 0.53481 0.53251 0.02471 0.0
C128 C 0.54146 0.56808 0.05345 0.0
C129 C 0.54802 0.55568 0.06776 0.0
C130 C 0.54443 0.53802 0.05322 0.0
C131 C 0.53213 0.56281 0.0241 0.0
C132 C 0.52926 0.54527 0.01005 0.0
N133 N 0.52097 0.47981 0.98767 0.0
C134 C 0.51437 0.44513 0.99365 0.0
C135 C 0.51039 0.44213 0.96156 0.0
C136 C 0.51203 0.45841 0.9427 0.0
C137 C 0.51726 0.47692 0.95611 0.0
C138 C 0.51964 0.46393 0.00608 0.0
H139 H 0.51805 0.4886 0.94045 0.0
H140 H 0.52253 0.46519 0.03067 0.0
H141 H 0.54923 0.52887 0.06582 0.0
H142 H 0.52224 0.54221 0.98751 0.0
C143 C 0.51659 0.52117 0.9389 0.0
C144 C 0.58029 0.52809 0.979 0.0
C145 C 0.4761 0.48586 0.03408 0.0
C146 C 0.53922 0.49103 0.07335 0.0
H147 H 0.58636 0.54923 0.91865 0.0
H148 H 0.55156 0.54576 0.89656 0.0
H149 H 0.47347 0.50829 0.93245 0.0
H150 H 0.45146 0.48923 0.9851 0.0
H151 H 0.47089 0.46839 0.09702 0.0
H152 H 0.50553 0.47139 0.11911 0.0
H153 H 0.58115 0.4996 0.07679 0.0
H154 H 0.60355 0.52008 0.02503 0.0
H155 H 0.55525 0.55919 0.09062 0.0
H156 H 0.52706 0.5722 0.01204 0.0
H157 H 0.51357 0.43307 0.00917 0.0
H158 H 0.50886 0.45677 0.91774 0.0
C159 C 0.00925 0.46402 0.54437 0.0
C160 C 0.99092 0.45047 0.52895 0.0
C161 C 0.98654 0.46233 0.50917 0.0
C162 C 0.00234 0.48239 0.51352 0.0
N163 N 0.01653 0.48385 0.53451 0.0
Co164 Co 0.04109 0.50995 0.54859 0.0
N165 N 0.03997 0.52586 0.51143 0.0
C166 C 0.02332 0.5202 0.49303 0.0
C167 C 0.02787 0.53417 0.46814 0.0
C168 C 0.04866 0.54949 0.4712 0.0
C169 C 0.05558 0.54402 0.49804 0.0
N170 N 0.06558 0.53611 0.56238 0.0
C171 C 0.07905 0.55336 0.5447 0.0
C172 C 0.09466 0.56818 0.563 0.0
C173 C 0.09074 0.55963 0.5933 0.0
C174 C 0.07299 0.54017 0.59172 0.0
N175 N 0.04229 0.49427 0.58602 0.0
C176 C 0.05246 0.50248 0.61279 0.0
C177 C 0.05051 0.4878 0.63475 0.0
C178 C 0.03811 0.46923 0.62113 0.0
C179 C 0.03301 0.4736 0.59155 0.0
N180 N 0.06011 0.50468 0.52512 0.0
C181 C 0.08946 0.50191 0.48868 0.0
C182 C 0.09328 0.50677 0.5203 0.0
C183 C 0.07831 0.50801 0.53822 0.0
C184 C 0.07047 0.49769 0.47589 0.0
C185 C 0.05593 0.49906 0.49456 0.0
N186 N 0.02199 0.51531 0.57187 0.0
C187 C 0.9899 0.50237 0.60236 0.0
C188 C 0.99243 0.52191 0.60026 0.0
C189 C 0.01043 0.53831 0.58472 0.0
C190 C 0.02495 0.53465 0.57046 0.0
C191 C 0.00497 0.49946 0.58838 0.0
H192 H 0.03832 0.54735 0.55763 0.0
H193 H 0.00252 0.48421 0.59035 0.0
H194 H 0.08175 0.51231 0.56235 0.0
H195 H 0.04162 0.49624 0.48392 0.0
C196 C 0.00586 0.49988 0.49561 0.0
C197 C 0.01748 0.45774 0.57111 0.0
C198 C 0.07671 0.5562 0.51099 0.0
C199 C 0.06594 0.52397 0.61467 0.0
H200 H 0.98135 0.43379 0.5323 0.0
H201 H 0.97358 0.45692 0.49317 0.0
H202 H 0.01777 0.53275 0.44889 0.0
H203 H 0.05763 0.56282 0.45514 0.0
H204 H 0.10757 0.58341 0.55518 0.0
H205 H 0.10043 0.56634 0.61356 0.0
H206 H 0.05765 0.4903 0.65761 0.0
H207 H 0.03304 0.45416 0.63202 0.0
H208 H 0.10791 0.51013 0.53078 0.0
H209 H 0.06712 0.49388 0.45142 0.0
H210 H 0.97631 0.4894 0.61461 0.0
H211 H 0.01288 0.55365 0.58268 0.0
C212 C 0.49649 0.9895 0.05849 0.0
C213 C 0.4926 0.9935 0.08853 0.0
C214 C 0.50991 0.0119 0.096 0.0
C215 C 0.52332 0.01806 0.07023 0.0
N216 N 0.51551 0.00483 0.04654 0.0
Co217 Co 0.52989 0.00755 0.00502 0.0
N218 N 0.55642 0.03311 0.01769 0.0
C219 C 0.5602 0.04184 0.04598 0.0
C220 C 0.58016 0.05878 0.04823 0.0
C221 C 0.58968 0.06116 0.0196 0.0
C222 C 0.57481 0.04559 0.0013 0.0
N223 N 0.54402 0.01066 0.96307 0.0
C224 C 0.56307 0.02602 0.95107 0.0
C225 C 0.56584 0.02309 0.91972 0.0
C226 C 0.54812 0.0052 0.91181 0.0
C227 C 0.53544 0.99834 0.93842 0.0
N228 N 0.50358 0.98156 0.99281 0.0
C229 C 0.50006 0.97216 0.96518 0.0
C230 C 0.48098 0.95388 0.96441 0.0
C231 C 0.47191 0.9512 0.99354 0.0
C232 C 0.48607 0.96808 0.01038 0.0
N233 N 0.5191 0.02472 0.98742 0.0
C234 C 0.50517 0.04995 0.96132 0.0
C235 C 0.50194 0.03271 0.94595 0.0
C236 C 0.50884 0.02034 0.95938 0.0
C237 C 0.51521 0.05421 0.99019 0.0
C238 C 0.52208 0.04157 0.00262 0.0
N239 N 0.54061 0.99039 0.02265 0.0
C240 C 0.54806 0.96335 0.01736 0.0
C241 C 0.55364 0.96452 0.04892 0.0
C242 C 0.55299 0.97908 0.06694 0.0
C243 C 0.54668 0.99187 0.05338 0.0
C244 C 0.5415 0.97624 0.00484 0.0
H245 H 0.5467 0.00274 0.06834 0.0
H246 H 0.537 0.97432 0.98082 0.0
H247 H 0.50577 0.0074 0.94651 0.0
H248 H 0.52996 0.04589 0.0244 0.0
C249 C 0.54425 0.03463 0.06917 0.0
C250 C 0.4825 0.97022 0.04333 0.0
C251 C 0.57866 0.04389 0.96813 0.0
C252 C 0.51522 0.9806 0.94076 0.0
H253 H 0.47901 0.98377 0.10394 0.0
H254 H 0.5128 0.01938 0.11817 0.0
H255 H 0.58685 0.06851 0.0681 0.0
H256 H 0.60565 0.07324 0.01276 0.0
H257 H 0.57904 0.03297 0.9038 0.0
H258 H 0.54471 0.99825 0.88914 0.0
H259 H 0.47463 0.94352 0.94519 0.0
H260 H 0.45677 0.93813 0.00173 0.0
H261 H 0.49396 0.02865 0.92369 0.0
H262 H 0.5182 0.06753 0.00284 0.0
H263 H 0.5483 0.95222 0.00257 0.0
H264 H 0.55754 0.98074 0.09139 0.0
C265 C 0.5381 0.55147 0.4985 0.0
C266 C 0.53556 0.56505 0.51598 0.0
C267 C 0.52493 0.5544 0.54316 0.0
C268 C 0.52174 0.53508 0.54086 0.0
N269 N 0.52958 0.53265 0.51377 0.0
Co270 Co 0.52929 0.5073 0.5016 0.0
N271 N 0.51347 0.49163 0.54152 0.0
C272 C 0.50623 0.49841 0.56432 0.0
C273 C 0.49518 0.48395 0.58832 0.0
C274 C 0.49527 0.46685 0.58038 0.0
C275 C 0.50656 0.47195 0.55196 0.0
N276 N 0.52964 0.48221 0.48988 0.0
C277 C 0.52189 0.46369 0.50574 0.0
C278 C 0.52638 0.45085 0.48977 0.0
C279 C 0.53711 0.46154 0.46268 0.0
C280 C 0.53872 0.48025 0.46374 0.0
N281 N 0.54449 0.52271 0.46119 0.0
C282 C 0.5502 0.51537 0.43721 0.0
C283 C 0.55961 0.5292 0.41195 0.0
C284 C 0.55996 0.54647 0.42024 0.0
C285 C 0.55087 0.5422 0.45035 0.0
N286 N 0.5566 0.51774 0.52271 0.0
C287 C 0.5953 0.5321 0.55275 0.0
C288 C 0.59274 0.52632 0.52148 0.0
C289 C 0.57346 0.51927 0.50706 0.0
C290 C 0.57814 0.53063 0.56868 0.0
C291 C 0.55912 0.52351 0.55334 0.0
N292 N 0.50198 0.49684 0.48044 0.0
C293 C 0.47899 0.4794 0.43739 0.0
C294 C 0.46363 0.4826 0.44953 0.0
C295 C 0.46768 0.49291 0.47754 0.0
C296 C 0.48674 0.49971 0.49262 0.0
C297 C 0.49789 0.48665 0.45299 0.0
H298 H 0.48878 0.50728 0.51403 0.0
H299 H 0.50898 0.48392 0.44218 0.0
H300 H 0.57259 0.51509 0.48326 0.0
H301 H 0.5467 0.52283 0.56674 0.0
C302 C 0.51077 0.51868 0.56315 0.0
C303 C 0.54892 0.55726 0.46772 0.0
C304 C 0.51015 0.45751 0.53577 0.0
C305 C 0.54759 0.49583 0.43981 0.0
H306 H 0.54085 0.58101 0.50979 0.0
H307 H 0.52004 0.56005 0.56228 0.0
H308 H 0.488 0.48567 0.60917 0.0
H309 H 0.48783 0.45227 0.594 0.0
H310 H 0.52223 0.43532 0.49687 0.0
H311 H 0.54285 0.45621 0.44423 0.0
H312 H 0.56571 0.52708 0.39025 0.0
H313 H 0.56633 0.56065 0.4058 0.0
H314 H 0.60546 0.52692 0.50822 0.0
H315 H 0.57941 0.5352 0.5928 0.0
H316 H 0.47667 0.47173 0.4155 0.0
H317 H 0.45613 0.49558 0.48794 0.0
H318 H 0.36243 0.51119 0.25738 0.0
N319 N 0.32713 0.48357 0.23064 0.0
H320 H 0.37989 0.50527 0.30143 0.0
H321 H 0.31015 0.44808 0.26883 0.0
H322 H 0.32707 0.44216 0.31355 0.0
H323 H 0.32368 0.44738 0.21486 0.0
H324 H 0.34319 0.44353 0.17249 0.0
H325 H 0.35017 0.51131 0.18468 0.0
H326 H 0.36985 0.50757 0.14195 0.0
H327 H 0.31334 0.50834 0.24226 0.0
H328 H 0.29177 0.44565 0.21978 0.0
H329 H 0.27677 0.49957 0.24563 0.0
H330 H 0.2553 0.43681 0.2228 0.0
H331 H 0.14457 0.42772 0.29401 0.0
H332 H 0.1359 0.4417 0.33813 0.0
H333 H 0.19703 0.49831 0.32677 0.0
H334 H 0.20502 0.48473 0.28182 0.0
H335 H 0.15505 0.41883 0.21428 0.0
H336 H 0.13182 0.41984 0.17474 0.0
H337 H 0.15166 0.4819 0.20017 0.0
H338 H 0.17595 0.48127 0.23724 0.0
H339 H 0.20989 0.4815 0.22199 0.0
H340 H 0.24591 0.48971 0.21313 0.0
H341 H 0.23009 0.43283 0.26412 0.0
N342 N 0.17811 0.44743 0.25523 0.0
H343 H 0.19397 0.42462 0.2725 0.0
C344 C 0.33503 0.48021 0.25979 0.0
C345 C 0.35448 0.49623 0.27001 0.0
C346 C 0.36437 0.4928 0.2953 0.0
C347 C 0.35493 0.47318 0.31104 0.0
C348 C 0.33493 0.45736 0.30168 0.0
C349 C 0.32511 0.46079 0.27621 0.0
C350 C 0.33536 0.47969 0.20281 0.0
C351 C 0.33317 0.46044 0.19855 0.0
C352 C 0.34441 0.45826 0.17428 0.0
C353 C 0.35818 0.47529 0.15401 0.0
C354 C 0.35955 0.49423 0.15743 0.0
C355 C 0.3482 0.49636 0.18158 0.0
C356 C 0.30538 0.47777 0.23083 0.0
C357 C 0.3007 0.49274 0.23778 0.0
C358 C 0.27983 0.48772 0.23952 0.0
C359 C 0.26311 0.46748 0.23446 0.0
C360 C 0.26781 0.45249 0.22712 0.0
C361 C 0.28874 0.45757 0.22525 0.0
C362 C 0.17537 0.45498 0.28447 0.0
C363 C 0.15622 0.44299 0.30148 0.0
C364 C 0.15135 0.45102 0.32682 0.0
C365 C 0.1657 0.47125 0.33597 0.0
C366 C 0.18541 0.48284 0.32002 0.0
C367 C 0.19013 0.47491 0.29439 0.0
C368 C 0.16691 0.44971 0.2292 0.0
C369 C 0.15467 0.43278 0.21066 0.0
C370 C 0.14118 0.43333 0.18837 0.0
C371 C 0.13932 0.45077 0.18457 0.0
C372 C 0.15259 0.4682 0.20199 0.0
C373 C 0.16644 0.4678 0.22367 0.0
C374 C 0.19919 0.45233 0.24791 0.0
C375 C 0.21408 0.47067 0.23093 0.0
C376 C 0.23473 0.47543 0.22609 0.0
C377 C 0.24088 0.46194 0.23797 0.0
C378 C 0.22582 0.44343 0.25433 0.0
C379 C 0.20522 0.43875 0.25927 0.0
H380 H 0.739 0.13091 0.79155 0.0
N381 N 0.73993 0.15432 0.74246 0.0
H382 H 0.71505 0.11814 0.83791 0.0
H383 H 0.70964 0.1633 0.75611 0.0
H384 H 0.68524 0.1499 0.8007 0.0
H385 H 0.72498 0.17467 0.70749 0.0
H386 H 0.70207 0.16146 0.66315 0.0
H387 H 0.73228 0.12231 0.70944 0.0
H388 H 0.71182 0.11021 0.66193 0.0
H389 H 0.77796 0.16149 0.72947 0.0
H390 H 0.74585 0.19194 0.75647 0.0
H391 H 0.81189 0.19396 0.73262 0.0
H392 H 0.77962 0.22417 0.76142 0.0
H393 H 0.90561 0.28702 0.80809 0.0
H394 H 0.91616 0.30703 0.85563 0.0
H395 H 0.87346 0.32755 0.83372 0.0
H396 H 0.86265 0.30708 0.78661 0.0
H397 H 0.87424 0.31486 0.73391 0.0
H398 H 0.89674 0.33945 0.69189 0.0
H399 H 0.93473 0.31206 0.69274 0.0
H400 H 0.91146 0.28685 0.73427 0.0
H401 H 0.86894 0.24697 0.77703 0.0
H402 H 0.83465 0.21539 0.77092 0.0
H403 H 0.80985 0.25216 0.73533 0.0
N404 N 0.87966 0.28564 0.76442 0.0
H405 H 0.84388 0.28357 0.7432 0.0
C406 C 0.72612 0.14786 0.77003 0.0
C407 C 0.7274 0.13523 0.79371 0.0
C408 C 0.71359 0.12785 0.82004 0.0
C409 C 0.69809 0.13291 0.82312 0.0
C410 C 0.69714 0.14591 0.79957 0.0
C411 C 0.71105 0.15343 0.77354 0.0
C412 C 0.72961 0.14897 0.71261 0.0
C413 C 0.72184 0.16039 0.69801 0.0
C414 C 0.70898 0.15289 0.67189 0.0
C415 C 0.70442 0.13431 0.65859 0.0
C416 C 0.71392 0.12399 0.67185 0.0
C417 C 0.72601 0.13106 0.69882 0.0
C418 C 0.7594 0.17412 0.74314 0.0
C419 C 0.77828 0.1752 0.73619 0.0
C420 C 0.79765 0.19376 0.73832 0.0
C421 C 0.79862 0.21172 0.74783 0.0
C422 C 0.77957 0.21075 0.75387 0.0
C423 C 0.76014 0.19219 0.75132 0.0
C424 C 0.88354 0.2957 0.79377 0.0
C425 C 0.89828 0.29556 0.81393 0.0
C426 C 0.90425 0.30695 0.84101 0.0
C427 C 0.8957 0.31892 0.84827 0.0
C428 C 0.88045 0.31862 0.82849 0.0
C429 C 0.87426 0.30693 0.80158 0.0
C430 C 0.89108 0.29884 0.73715 0.0
C431 C 0.88703 0.31372 0.72465 0.0
C432 C 0.90013 0.32801 0.70077 0.0
C433 C 0.9177 0.32789 0.6891 0.0
C434 C 0.92124 0.31248 0.70088 0.0
C435 C 0.90802 0.29811 0.72466 0.0
C436 C 0.8591 0.26758 0.76027 0.0
C437 C 0.85604 0.24813 0.76796 0.0
C438 C 0.83645 0.23011 0.76414 0.0
C439 C 0.81942 0.2311 0.7522 0.0
C440 C 0.82249 0.25072 0.74479 0.0
C441 C 0.8421 0.2688 0.74899 0.0
H442 H 0.56313 0.84769 0.29248 0.0
N443 N 0.60207 0.85764 0.27049 0.0
H444 H 0.55614 0.86317 0.33636 0.0
H445 H 0.6293 0.88162 0.31287 0.0
H446 H 0.62241 0.89707 0.3572 0.0
H447 H 0.62941 0.89166 0.23669 0.0
H448 H 0.62252 0.90667 0.18945 0.0
H449 H 0.56481 0.84063 0.23982 0.0
H450 H 0.55753 0.85604 0.19334 0.0
H451 H 0.5733 0.82096 0.30298 0.0
H452 H 0.62516 0.84874 0.23509 0.0
H453 H 0.57181 0.7883 0.30161 0.0
H454 H 0.62273 0.81582 0.23161 0.0
H455 H 0.5612 0.68814 0.28057 0.0
H456 H 0.55596 0.6641 0.32435 0.0
H457 H 0.61657 0.70975 0.36033 0.0
H458 H 0.62238 0.73281 0.31461 0.0
H459 H 0.61441 0.70259 0.24535 0.0
H460 H 0.60183 0.67783 0.20427 0.0
H461 H 0.55732 0.69537 0.17724 0.0
H462 H 0.5687 0.71859 0.22022 0.0
H463 H 0.56376 0.727 0.27457 0.0
H464 H 0.56331 0.75893 0.27474 0.0
H465 H 0.63101 0.79459 0.2586 0.0
N466 N 0.59827 0.72419 0.26447 0.0
H467 H 0.63079 0.76262 0.25622 0.0
C468 C 0.59686 0.86365 0.29923 0.0
C469 C 0.57614 0.85825 0.30662 0.0
C470 C 0.57216 0.86716 0.3317 0.0
C471 C 0.58875 0.88148 0.35006 0.0
C472 C 0.60927 0.88598 0.34366 0.0
C473 C 0.61325 0.87719 0.31839 0.0
C474 C 0.5976 0.86529 0.2419 0.0
C475 C 0.61377 0.88373 0.22707 0.0
C476 C 0.60983 0.8922 0.20017 0.0
C477 C 0.58949 0.8825 0.18796 0.0
C478 C 0.5733 0.86384 0.20253 0.0
C479 C 0.5774 0.85512 0.22909 0.0
C480 C 0.59965 0.83757 0.2694 0.0
C481 C 0.58427 0.82008 0.28751 0.0
C482 C 0.58328 0.80121 0.28644 0.0
C483 C 0.59732 0.79928 0.26677 0.0
C484 C 0.61207 0.81668 0.24784 0.0
C485 C 0.61336 0.83554 0.2495 0.0
C486 C 0.59252 0.71202 0.29386 0.0
C487 C 0.57325 0.69302 0.29809 0.0
C488 C 0.57021 0.67931 0.32345 0.0
C489 C 0.58611 0.68463 0.34567 0.0
C490 C 0.60433 0.70467 0.34311 0.0
C491 C 0.60759 0.71807 0.31725 0.0
C492 C 0.5926 0.71249 0.23626 0.0
C493 C 0.60208 0.70121 0.23029 0.0
C494 C 0.59489 0.6871 0.20647 0.0
C495 C 0.57832 0.68427 0.18718 0.0
C496 C 0.56965 0.69652 0.19202 0.0
C497 C 0.57643 0.71019 0.21657 0.0
C498 C 0.5973 0.74256 0.26461 0.0
C499 C 0.57838 0.74177 0.27057 0.0
C500 C 0.57824 0.76009 0.27103 0.0
C501 C 0.5971 0.77954 0.26634 0.0
C502 C 0.61603 0.78006 0.26128 0.0
C503 C 0.61603 0.76179 0.26014 0.0
H504 H 0.90653 0.60095 0.83319 0.0
N505 N 0.87907 0.5744 0.79354 0.0
H506 H 0.92102 0.59306 0.87952 0.0
H507 H 0.86453 0.53571 0.82079 0.0
H508 H 0.87841 0.5277 0.86726 0.0
H509 H 0.85901 0.53683 0.76676 0.0
H510 H 0.87389 0.52601 0.72634 0.0
H511 H 0.91412 0.59844 0.7593 0.0
H512 H 0.92864 0.58828 0.71716 0.0
H513 H 0.87574 0.60567 0.77265 0.0
H514 H 0.83861 0.54237 0.80885 0.0
H515 H 0.84382 0.6068 0.76781 0.0
H516 H 0.8067 0.54357 0.80558 0.0
H517 H 0.74274 0.6086 0.80374 0.0
H518 H 0.71857 0.6019 0.84807 0.0
H519 H 0.70286 0.53859 0.8569 0.0
H520 H 0.72739 0.54558 0.81283 0.0
H521 H 0.71792 0.54352 0.7591 0.0
H522 H 0.69646 0.53637 0.71257 0.0
H523 H 0.73329 0.6012 0.68286 0.0
H524 H 0.75495 0.60815 0.72946 0.0
H525 H 0.78749 0.61057 0.79394 0.0
H526 H 0.81864 0.60813 0.79921 0.0
H527 H 0.78255 0.54496 0.77047 0.0
N528 N 0.74939 0.58174 0.77681 0.0
H529 H 0.75128 0.54735 0.76678 0.0
C530 C 0.88444 0.56905 0.82352 0.0
C531 C 0.90004 0.58495 0.841 0.0
C532 C 0.90825 0.58039 0.86747 0.0
C533 C 0.90099 0.55973 0.87695 0.0
C534 C 0.88458 0.54378 0.8603 0.0
C535 C 0.87643 0.54837 0.83381 0.0
C536 C 0.8857 0.56839 0.76636 0.0
C537 C 0.87419 0.54812 0.75602 0.0
C538 C 0.88268 0.54203 0.73257 0.0
C539 C 0.90267 0.55619 0.71863 0.0
C540 C 0.9135 0.57678 0.72787 0.0
C541 C 0.90514 0.58273 0.75165 0.0
C542 C 0.8597 0.57414 0.79147 0.0
C543 C 0.86068 0.59208 0.77985 0.0
C544 C 0.8424 0.59271 0.77734 0.0
C545 C 0.82261 0.57535 0.78668 0.0
C546 C 0.8216 0.55719 0.79795 0.0
C547 C 0.83995 0.55654 0.80015 0.0
C548 C 0.73673 0.57763 0.80492 0.0
C549 C 0.73432 0.5934 0.81564 0.0
C550 C 0.72058 0.58954 0.84095 0.0
C551 C 0.70879 0.5697 0.85585 0.0
C552 C 0.71162 0.55398 0.84563 0.0
C553 C 0.72562 0.55795 0.8205 0.0
C554 C 0.73813 0.57647 0.74775 0.0
C555 C 0.72166 0.55616 0.74239 0.0
C556 C 0.70925 0.5521 0.71584 0.0
C557 C 0.71304 0.56824 0.69412 0.0
C558 C 0.73006 0.58838 0.69893 0.0
C559 C 0.74243 0.59241 0.72553 0.0
C560 C 0.76719 0.57933 0.77959 0.0
C561 C 0.78637 0.59621 0.78885 0.0
C562 C 0.80417 0.59479 0.7916 0.0
C563 C 0.80326 0.57642 0.78486 0.0
C564 C 0.78385 0.55932 0.77606 0.0
C565 C 0.76593 0.56071 0.77363 0.0
H566 H 0.19209 0.68257 0.29004 0.0
N567 N 0.18724 0.71571 0.28863 0.0
H568 H 0.18099 0.65647 0.3332 0.0
H569 H 0.17624 0.71818 0.34697 0.0
H570 H 0.16621 0.69279 0.39111 0.0
H571 H 0.14767 0.70496 0.28046 0.0
H572 H 0.12401 0.68373 0.23972 0.0
H573 H 0.19864 0.70312 0.23665 0.0
H574 H 0.17539 0.68258 0.19501 0.0
H575 H 0.22463 0.71855 0.27583 0.0
H576 H 0.19615 0.7541 0.29109 0.0
H577 H 0.25923 0.75049 0.2685 0.0
H578 H 0.23065 0.78606 0.28579 0.0
H579 H 0.35869 0.84054 0.28318 0.0
H580 H 0.38414 0.85432 0.3249 0.0
H581 H 0.35031 0.87995 0.36583 0.0
H582 H 0.3256 0.86708 0.32256 0.0
H583 H 0.34579 0.88696 0.24723 0.0
H584 H 0.37065 0.9023 0.20242 0.0
H585 H 0.3612 0.84242 0.18543 0.0
H586 H 0.33708 0.82749 0.23131 0.0
H587 H 0.32022 0.81066 0.29313 0.0
H588 H 0.28628 0.77803 0.29555 0.0
H589 H 0.25752 0.80867 0.25024 0.0
N590 N 0.32759 0.84865 0.27196 0.0
H591 H 0.29131 0.84149 0.24989 0.0
C592 C 0.18455 0.7021 0.31521 0.0
C593 C 0.18667 0.685 0.31213 0.0
C594 C 0.18045 0.67014 0.33701 0.0
C595 C 0.17232 0.67229 0.36557 0.0
C596 C 0.17182 0.6903 0.36922 0.0
C597 C 0.17774 0.70495 0.3442 0.0
C598 C 0.1749 0.70578 0.26159 0.0
C599 C 0.15386 0.70041 0.26151 0.0
C600 C 0.1404 0.68832 0.23809 0.0
C601 C 0.14775 0.68139 0.21395 0.0
C602 C 0.16911 0.6874 0.21343 0.0
C603 C 0.18254 0.69939 0.2371 0.0
C604 C 0.20781 0.73407 0.28348 0.0
C605 C 0.22584 0.73327 0.2774 0.0
C606 C 0.24567 0.75158 0.27363 0.0
C607 C 0.24786 0.771 0.27637 0.0
C608 C 0.22966 0.77154 0.28268 0.0
C609 C 0.2099 0.7533 0.28598 0.0
C610 C 0.34042 0.85315 0.29944 0.0
C611 C 0.35661 0.84895 0.30126 0.0
C612 C 0.37111 0.85672 0.32544 0.0
C613 C 0.36956 0.86857 0.34864 0.0
C614 C 0.35238 0.87139 0.34796 0.0
C615 C 0.33808 0.86386 0.32349 0.0
C616 C 0.33953 0.85616 0.24253 0.0
C617 C 0.34883 0.87712 0.23342 0.0
C618 C 0.36298 0.88581 0.20767 0.0
C619 C 0.36803 0.87363 0.19022 0.0
C620 C 0.35794 0.85234 0.19859 0.0
C621 C 0.34393 0.8437 0.22462 0.0
C622 C 0.30819 0.8287 0.27198 0.0
C623 C 0.30661 0.81042 0.28395 0.0
C624 C 0.28714 0.79163 0.28496 0.0
C625 C 0.26896 0.79064 0.27347 0.0
C626 C 0.27094 0.80884 0.26018 0.0
C627 C 0.29028 0.82762 0.25968 0.0
H628 H 0.42331 0.12749 0.71562 0.0
N629 N 0.45551 0.15827 0.74406 0.0
H630 H 0.42484 0.10735 0.6737 0.0
H631 H 0.49072 0.16857 0.70903 0.0
H632 H 0.49289 0.14737 0.66949 0.0
H633 H 0.49432 0.16682 0.76225 0.0
H634 H 0.50163 0.15153 0.80816 0.0
H635 H 0.42873 0.13495 0.79109 0.0
H636 H 0.43602 0.11967 0.83762 0.0
H637 H 0.4265 0.16607 0.72531 0.0
H638 H 0.49065 0.19588 0.7557 0.0
H639 H 0.42876 0.1992 0.72325 0.0
H640 H 0.49271 0.22892 0.75588 0.0
H641 H 0.43159 0.29245 0.7109 0.0
H642 H 0.43723 0.31644 0.66631 0.0
H643 H 0.50458 0.34421 0.67304 0.0
H644 H 0.49877 0.32059 0.71784 0.0
H645 H 0.49941 0.31525 0.77208 0.0
H646 H 0.50747 0.33645 0.81814 0.0
H647 H 0.44115 0.31301 0.83209 0.0
H648 H 0.43335 0.29245 0.78544 0.0
H649 H 0.42885 0.25395 0.75949 0.0
H650 H 0.42858 0.22186 0.75798 0.0
H651 H 0.4942 0.25681 0.7273 0.0
N652 N 0.46071 0.29209 0.74613 0.0
H653 H 0.4945 0.28887 0.73089 0.0
C654 C 0.45688 0.14907 0.71599 0.0
C655 C 0.43846 0.13214 0.70496 0.0
C656 C 0.43946 0.12048 0.68131 0.0
C657 C 0.45907 0.12515 0.6688 0.0
C658 C 0.47748 0.14311 0.67845 0.0
C659 C 0.47634 0.15514 0.70151 0.0
C660 C 0.46086 0.15187 0.7731 0.0
C661 C 0.48151 0.15674 0.77861 0.0
C662 C 0.48568 0.14795 0.80488 0.0
C663 C 0.46936 0.13428 0.82629 0.0
C664 C 0.44893 0.13025 0.8216 0.0
C665 C 0.44473 0.13891 0.79511 0.0
C666 C 0.4582 0.17841 0.74109 0.0
C667 C 0.44107 0.17982 0.73161 0.0
C668 C 0.44235 0.19878 0.73084 0.0
C669 C 0.46077 0.2168 0.7401 0.0
C670 C 0.47828 0.21546 0.74849 0.0
C671 C 0.47708 0.19647 0.74869 0.0
C672 C 0.46466 0.30464 0.71764 0.0
C673 C 0.44752 0.30351 0.70232 0.0
C674 C 0.4508 0.31719 0.67683 0.0
C675 C 0.47138 0.33232 0.6662 0.0
C676 C 0.48854 0.33293 0.68093 0.0
C677 C 0.48523 0.31925 0.70644 0.0
C678 C 0.46576 0.30253 0.77521 0.0
C679 C 0.48664 0.31468 0.78507 0.0
C680 C 0.49121 0.32673 0.81138 0.0
C681 C 0.47492 0.3264 0.82856 0.0
C682 C 0.45398 0.31345 0.81943 0.0
C683 C 0.4495 0.30174 0.79287 0.0
C684 C 0.46151 0.2737 0.74491 0.0
C685 C 0.44315 0.2546 0.75252 0.0
C686 C 0.44302 0.23627 0.7513 0.0
C687 C 0.46129 0.23659 0.74196 0.0
C688 C 0.47986 0.25589 0.73474 0.0
C689 C 0.48001 0.2743 0.73645 0.0
H690 H 0.08203 0.49961 0.09006 0.0
H691 H 0.02652 0.4378 0.0889 0.0
H692 H 0.04634 0.42356 0.1144 0.0
H693 H 0.12021 0.48447 0.07299 0.0
H694 H 0.13978 0.5033 0.09814 0.0
H695 H 0.12137 0.50834 0.0788 0.0
H696 H 0.10976 0.51423 0.13291 0.0
H697 H 0.12805 0.50914 0.15241 0.0
H698 H 0.1005 0.49428 0.16401 0.0
H699 H 0.07134 0.41672 0.1439 0.0
H700 H 0.0998 0.41722 0.17351 0.0
H701 H 0.14035 0.48328 0.15085 0.0
C702 C 0.07422 0.48306 0.09487 0.0
C703 C 0.05283 0.46971 0.08768 0.0
C704 C 0.04293 0.44817 0.09438 0.0
C705 C 0.05406 0.44 0.10874 0.0
C706 C 0.07514 0.45359 0.11573 0.0
C707 C 0.0852 0.47463 0.10871 0.0
C708 C 0.10785 0.48589 0.11909 0.0
C709 C 0.12321 0.4961 0.09055 0.0
C710 C 0.11176 0.50182 0.14356 0.0
C711 C 0.10882 0.46796 0.13379 0.0
C712 C 0.0898 0.44949 0.13158 0.0
C713 C 0.08646 0.43102 0.1452 0.0
C714 C 0.1029 0.43147 0.16179 0.0
C715 C 0.12264 0.45025 0.16446 0.0
C716 C 0.12556 0.46864 0.14967 0.0
H717 H 0.61194 0.04308 0.56223 0.0
H718 H 0.59811 0.08867 0.52659 0.0
H719 H 0.6306 0.11634 0.54976 0.0
H720 H 0.62567 0.0652 0.63686 0.0
H721 H 0.64531 0.05872 0.64419 0.0
H722 H 0.62356 0.04307 0.6193 0.0
H723 H 0.64984 0.04877 0.57425 0.0
H724 H 0.6717 0.06459 0.59898 0.0
H725 H 0.66978 0.07476 0.56088 0.0
H726 H 0.66473 0.13906 0.57661 0.0
H727 H 0.69347 0.15457 0.61391 0.0
H728 H 0.67993 0.09307 0.64261 0.0
C729 C 0.61608 0.05897 0.55875 0.0
C730 C 0.60308 0.06385 0.54121 0.0
C731 C 0.6084 0.08469 0.53849 0.0
C732 C 0.62676 0.10051 0.55174 0.0
C733 C 0.63921 0.09518 0.56888 0.0
C734 C 0.63377 0.07485 0.57328 0.0
C735 C 0.64782 0.07293 0.5971 0.0
C736 C 0.63482 0.05917 0.62608 0.0
C737 C 0.66054 0.06478 0.58188 0.0
C738 C 0.662 0.09536 0.60528 0.0
C739 C 0.65717 0.10797 0.588 0.0
C740 C 0.66839 0.12929 0.59082 0.0
C741 C 0.6846 0.13793 0.6126 0.0
C742 C 0.68901 0.12523 0.63244 0.0
C743 C 0.67756 0.1036 0.62805 0.0
H744 H 0.57685 0.59997 0.07909 0.0
H745 H 0.51049 0.57589 0.06488 0.0
H746 H 0.51304 0.60419 0.09505 0.0
H747 H 0.57893 0.61504 0.15712 0.0
H748 H 0.60457 0.63844 0.1524 0.0
H749 H 0.59776 0.61692 0.12844 0.0
H750 H 0.60647 0.64053 0.07782 0.0
H751 H 0.61339 0.66217 0.10164 0.0
H752 H 0.59374 0.65493 0.072 0.0
H753 H 0.52209 0.63293 0.13114 0.0
H754 H 0.53722 0.66126 0.16752 0.0
H755 H 0.59876 0.66901 0.15367 0.0
C756 C 0.56294 0.60082 0.08215 0.0
C757 C 0.54347 0.58583 0.06973 0.0
C758 C 0.52558 0.58738 0.07403 0.0
C759 C 0.52687 0.60333 0.09118 0.0
C760 C 0.54626 0.6178 0.10337 0.0
C761 C 0.56405 0.61687 0.0987 0.0
C762 C 0.58291 0.63424 0.11454 0.0
C763 C 0.59154 0.62564 0.13961 0.0
C764 C 0.60014 0.64884 0.09003 0.0
C765 C 0.57283 0.64476 0.12955 0.0
C766 C 0.55168 0.635 0.12289 0.0
C767 C 0.53876 0.64102 0.13592 0.0
C768 C 0.54763 0.65736 0.15644 0.0
C769 C 0.56939 0.66782 0.16354 0.0
C770 C 0.58208 0.66145 0.14929 0.0
H771 H 0.99717 0.55021 0.64244 0.0
H772 H 0.95058 0.50005 0.58784 0.0
H773 H 0.92263 0.50443 0.61012 0.0
H774 H 0.96448 0.53629 0.71188 0.0
H775 H 0.9746 0.56261 0.72198 0.0
H776 H 0.99102 0.55638 0.70013 0.0
H777 H 0.99697 0.58371 0.65611 0.0
H778 H 0.98049 0.58996 0.67781 0.0
H779 H 0.97452 0.58224 0.6377 0.0
H780 H 0.89986 0.51431 0.63845 0.0
H781 H 0.88344 0.52729 0.67339 0.0
H782 H 0.94467 0.56925 0.71238 0.0
C783 C 0.9811 0.54034 0.635 0.0
C784 C 0.97594 0.52489 0.61334 0.0
C785 C 0.95474 0.51195 0.60448 0.0
C786 C 0.93883 0.51439 0.61687 0.0
C787 C 0.94439 0.52971 0.63832 0.0
C788 C 0.96497 0.54234 0.64754 0.0
C789 C 0.96653 0.5568 0.6723 0.0
C790 C 0.97463 0.55277 0.70341 0.0
C791 C 0.98045 0.57952 0.66025 0.0
C792 C 0.94362 0.55031 0.67557 0.0
C793 C 0.93114 0.53484 0.65553 0.0
C794 C 0.90946 0.52636 0.65439 0.0
C795 C 0.90025 0.53374 0.67453 0.0
C796 C 0.91266 0.54929 0.69586 0.0
C797 C 0.93468 0.55766 0.69608 0.0
H798 H 0.44425 0.96287 0.06328 0.0
H799 H 0.48398 0.93727 0.06624 0.0
H800 H 0.45736 0.90775 0.10076 0.0
H801 H 0.42723 0.95107 0.14277 0.0
H802 H 0.40073 0.94478 0.13584 0.0
H803 H 0.42191 0.96267 0.1091 0.0
H804 H 0.40178 0.94013 0.0623 0.0
H805 H 0.38047 0.92215 0.0889 0.0
H806 H 0.39323 0.91311 0.06404 0.0
H807 H 0.42795 0.88292 0.13835 0.0
H808 H 0.39807 0.8645 0.17649 0.0
H809 H 0.37669 0.90565 0.14758 0.0
C810 C 0.44707 0.95082 0.07093 0.0
C811 C 0.46594 0.95207 0.06233 0.0
C812 C 0.46945 0.93632 0.07272 0.0
C813 C 0.45446 0.91957 0.0922 0.0
C814 C 0.43604 0.91885 0.10074 0.0
C815 C 0.43225 0.934 0.09033 0.0
C816 C 0.41176 0.93017 0.10429 0.0
C817 C 0.41565 0.94824 0.12418 0.0
C818 C 0.39587 0.92614 0.07833 0.0
C819 C 0.40485 0.91076 0.12475 0.0
C820 C 0.41898 0.9044 0.12218 0.0
C821 C 0.41657 0.88754 0.14016 0.0
C822 C 0.39942 0.87706 0.16164 0.0
C823 C 0.38484 0.88347 0.16501 0.0
C824 C 0.38753 0.90036 0.14579 0.0
H825 H 0.52365 0.44678 0.58858 0.0
H826 H 0.47797 0.4211 0.51482 0.0
H827 H 0.46375 0.38577 0.53884 0.0
H828 H 0.53383 0.4053 0.59623 0.0
H829 H 0.53601 0.40637 0.6385 0.0
H830 H 0.54293 0.42937 0.61479 0.0
H831 H 0.51648 0.43395 0.64751 0.0
H832 H 0.50955 0.41104 0.6714 0.0
H833 H 0.48933 0.41297 0.65145 0.0
H834 H 0.45418 0.35349 0.57186 0.0
H835 H 0.44947 0.32667 0.6117 0.0
H836 H 0.50106 0.3739 0.66443 0.0
C837 C 0.51071 0.43363 0.57755 0.0
C838 C 0.50183 0.43639 0.54997 0.0
C839 C 0.4849 0.41905 0.53598 0.0
C840 C 0.47679 0.39904 0.54942 0.0
C841 C 0.48585 0.39677 0.57678 0.0
C842 C 0.50241 0.41361 0.59071 0.0
C843 C 0.50893 0.40707 0.62049 0.0
C844 C 0.53178 0.41234 0.61729 0.0
C845 C 0.50588 0.41683 0.64942 0.0
C846 C 0.49338 0.38393 0.62128 0.0
C847 C 0.48026 0.37826 0.59582 0.0
C848 C 0.46439 0.35774 0.59187 0.0
C849 C 0.46177 0.34264 0.61469 0.0
C850 C 0.47493 0.34814 0.64115 0.0
C851 C 0.49099 0.36909 0.64421 0.0
H852 H 0.54827 0.95203 0.41274 0.0
H853 H 0.58101 0.95703 0.49944 0.0
H854 H 0.59119 0.93331 0.47965 0.0
H855 H 0.52841 0.89786 0.40231 0.0
H856 H 0.53189 0.90123 0.35999 0.0
H857 H 0.52669 0.91802 0.38152 0.0
H858 H 0.56061 0.95007 0.35691 0.0
H859 H 0.56587 0.9334 0.33524 0.0
H860 H 0.58551 0.95179 0.36079 0.0
H861 H 0.59935 0.91042 0.44877 0.0
H862 H 0.60399 0.8896 0.41005 0.0
H863 H 0.56549 0.89953 0.34417 0.0
C864 C 0.55764 0.9482 0.42755 0.0
C865 C 0.56394 0.95645 0.45759 0.0
C866 C 0.5759 0.95078 0.47644 0.0
C867 C 0.5818 0.93737 0.46535 0.0
C868 C 0.57544 0.92964 0.4355 0.0
C869 C 0.56352 0.93477 0.41696 0.0
C870 C 0.55889 0.92461 0.38563 0.0
C871 C 0.53505 0.90953 0.38217 0.0
C872 C 0.56829 0.94094 0.35802 0.0
C873 C 0.57032 0.91317 0.38918 0.0
C874 C 0.57977 0.91622 0.41809 0.0
C875 C 0.59188 0.9078 0.42616 0.0
C876 C 0.59449 0.89607 0.40402 0.0
C877 C 0.58495 0.8928 0.37424 0.0
C878 C 0.57261 0.90138 0.36698 0.0
H879 H 0.59264 0.51319 0.93191 0.0
H880 H 0.61647 0.56184 0.99826 0.0
H881 H 0.65275 0.57664 0.97636 0.0
H882 H 0.63786 0.50676 0.93239 0.0
H883 H 0.63662 0.50243 0.8908 0.0
H884 H 0.61291 0.49507 0.91307 0.0
H885 H 0.60542 0.51743 0.87419 0.0
H886 H 0.62904 0.52481 0.85177 0.0
H887 H 0.62528 0.54443 0.86691 0.0
H888 H 0.68582 0.58715 0.945 0.0
H889 H 0.71343 0.5928 0.90642 0.0
H890 H 0.6679 0.53706 0.86067 0.0
C891 C 0.60562 0.52682 0.94193 0.0
C892 C 0.60206 0.53643 0.96675 0.0
C893 C 0.61915 0.55433 0.97931 0.0
C894 C 0.6397 0.56276 0.96706 0.0
C895 C 0.64276 0.55301 0.94238 0.0
C896 C 0.62619 0.53541 0.92999 0.0
C897 C 0.63356 0.52843 0.90265 0.0
C898 C 0.63003 0.50689 0.91019 0.0
C899 C 0.62268 0.52881 0.87208 0.0
C900 C 0.65681 0.54501 0.90127 0.0
C901 C 0.66182 0.55899 0.92446 0.0
C902 C 0.68213 0.5762 0.92693 0.0
C903 C 0.69767 0.57932 0.90489 0.0
C904 C 0.69282 0.56529 0.88075 0.0
C905 C 0.67216 0.5478 0.87926 0.0
H906 H 0.08169 0.5925 0.48764 0.0
H907 H 0.11207 0.55737 0.49203 0.0
H908 H 0.14176 0.58469 0.45826 0.0
H909 H 0.0938 0.6084 0.40695 0.0
H910 H 0.09763 0.63356 0.41166 0.0
H911 H 0.08015 0.61221 0.4384 0.0
H912 H 0.10124 0.63346 0.48577 0.0
H913 H 0.11889 0.65485 0.45912 0.0
H914 H 0.12924 0.64405 0.48677 0.0
H915 H 0.16714 0.61532 0.42171 0.0
H916 H 0.18547 0.64581 0.38436 0.0
H917 H 0.1368 0.6593 0.4021 0.0
C918 C 0.09465 0.59065 0.48143 0.0
C919 C 0.09467 0.57288 0.49183 0.0
C920 C 0.11191 0.57095 0.48392 0.0
C921 C 0.12877 0.58636 0.46489 0.0
C922 C 0.12808 0.60357 0.45429 0.0
C923 C 0.11142 0.60574 0.46228 0.0
C924 C 0.11374 0.62499 0.44644 0.0
C925 C 0.09524 0.61945 0.42456 0.0
C926 C 0.11591 0.64024 0.47099 0.0
C927 C 0.13415 0.63322 0.42788 0.0
C928 C 0.14236 0.62083 0.43295 0.0
C929 C 0.16087 0.62515 0.41763 0.0
C930 C 0.1711 0.64244 0.3963 0.0
C931 C 0.16268 0.65509 0.39024 0.0
C932 C 0.14403 0.65036 0.4066 0.0
H933 H 0.51095 0.06491 0.90006 0.0
H934 H 0.48425 0.06574 0.99038 0.0
H935 H 0.47265 0.0881 0.96613 0.0
H936 H 0.5302 0.1179 0.8753 0.0
H937 H 0.52412 0.11226 0.83448 0.0
H938 H 0.53035 0.09648 0.85911 0.0
H939 H 0.49494 0.06368 0.84534 0.0
H940 H 0.48864 0.07935 0.82061 0.0
H941 H 0.47061 0.06273 0.85203 0.0
H942 H 0.46275 0.1093 0.93108 0.0
H943 H 0.45671 0.12877 0.88859 0.0
H944 H 0.49069 0.11442 0.82199 0.0
C945 C 0.50257 0.06972 0.9147 0.0
C946 C 0.49839 0.06354 0.94705 0.0
C947 C 0.4877 0.07042 0.96557 0.0
C948 C 0.481 0.08304 0.95199 0.0
C949 C 0.48531 0.08878 0.91996 0.0
C950 C 0.49596 0.08243 0.90162 0.0
C951 C 0.49875 0.0908 0.86784 0.0
C952 C 0.52225 0.10522 0.85866 0.0
C953 C 0.48756 0.07308 0.84513 0.0
C954 C 0.48784 0.10271 0.86991 0.0
C955 C 0.48011 0.10133 0.90011 0.0
C956 C 0.46887 0.1106 0.90741 0.0
C957 C 0.46545 0.12155 0.88317 0.0
C958 C 0.47341 0.12325 0.85216 0.0
C959 C 0.48478 0.11372 0.84562 0.0
H960 H 0.44477 0.50455 0.43658 0.0
H961 H 0.43828 0.44536 0.42312 0.0
H962 H 0.40717 0.43505 0.3905 0.0
H963 H 0.38752 0.48533 0.43869 0.0
H964 H 0.39159 0.50816 0.41733 0.0
H965 H 0.41174 0.50986 0.44269 0.0
H966 H 0.43886 0.52601 0.39589 0.0
H967 H 0.41883 0.52427 0.3704 0.0
H968 H 0.43326 0.51237 0.35998 0.0
H969 H 0.37912 0.43255 0.35539 0.0
H970 H 0.35662 0.43823 0.31943 0.0
H971 H 0.38071 0.4988 0.35658 0.0
C972 C 0.43645 0.48921 0.42745 0.0
C973 C 0.44384 0.47569 0.43247 0.0
C974 C 0.4329 0.45597 0.41942 0.0
C975 C 0.41515 0.44993 0.40106 0.0
C976 C 0.4085 0.46377 0.39606 0.0
C977 C 0.41875 0.48298 0.40896 0.0
C978 C 0.40944 0.49557 0.39795 0.0
C979 C 0.39948 0.49998 0.42583 0.0
C980 C 0.42609 0.51574 0.37999 0.0
C981 C 0.39276 0.48068 0.37613 0.0
C982 C 0.39229 0.46233 0.37571 0.0
C983 C 0.37907 0.4467 0.35594 0.0
C984 C 0.36623 0.45004 0.3357 0.0
C985 C 0.36672 0.46891 0.33525 0.0
C986 C 0.37995 0.48422 0.35624 0.0
H987 H 0.9515 0.42664 0.93159 0.0
H988 H 0.9563 0.39455 0.01496 0.0
H989 H 0.93606 0.36137 0.9889 0.0
H990 H 0.8984 0.38615 0.91112 0.0
H991 H 0.90425 0.39052 0.86929 0.0
H992 H 0.91803 0.41159 0.89519 0.0
H993 H 0.95382 0.41837 0.87409 0.0
H994 H 0.94017 0.3974 0.84807 0.0
H995 H 0.95862 0.39753 0.87552 0.0
H996 H 0.91746 0.33206 0.95245 0.0
H997 H 0.90139 0.30871 0.90843 0.0
H998 H 0.90849 0.35984 0.84904 0.0
C999 C 0.94826 0.41263 0.9444 0.0
C1000 C 0.95545 0.4132 0.97537 0.0
C1001 C 0.95072 0.39448 0.9914 0.0
C1002 C 0.9393 0.37556 0.97675 0.0
C1003 C 0.93258 0.37559 0.94614 0.0
C1004 C 0.93681 0.39362 0.93019 0.0
C1005 C 0.92836 0.3895 0.89712 0.0
C1006 C 0.91124 0.39475 0.89295 0.0
C1007 C 0.94631 0.4014 0.87224 0.0
C1008 C 0.91907 0.36639 0.89674 0.0
C1009 C 0.9216 0.35865 0.92529 0.0
C1010 C 0.9152 0.33791 0.9301 0.0
C1011 C 0.90616 0.32479 0.90498 0.0
C1012 C 0.90356 0.33245 0.87547 0.0
C1013 C 0.90989 0.35347 0.87154 0.0
H1014 H 0.95787 0.505 0.95362 0.0
H1015 H 0.9759 0.54654 0.03018 0.0
H1016 H 0.95581 0.56117 0.00681 0.0
H1017 H 0.96278 0.54109 0.89296 0.0
H1018 H 0.94062 0.52219 0.87135 0.0
H1019 H 0.95536 0.51438 0.89524 0.0
H1020 H 0.92099 0.48708 0.92574 0.0
H1021 H 0.90614 0.49486 0.90201 0.0
H1022 H 0.90498 0.49512 0.94441 0.0
H1023 H 0.93472 0.57191 0.97379 0.0
H1024 H 0.91485 0.57849 0.93338 0.0
H1025 H 0.91156 0.53034 0.87787 0.0
C1026 C 0.9574 0.51709 0.96544 0.0
C1027 C 0.96823 0.5247 0.99362 0.0
C1028 C 0.96753 0.54056 0.00859 0.0
C1029 C 0.95619 0.54889 0.99551 0.0
C1030 C 0.94571 0.54114 0.96751 0.0
C1031 C 0.94626 0.52561 0.95264 0.0
C1032 C 0.93438 0.52055 0.9222 0.0
C1033 C 0.94917 0.52482 0.89376 0.0
C1034 C 0.9155 0.49807 0.9237 0.0
C1035 C 0.92719 0.53575 0.92208 0.0
C1036 C 0.93377 0.54742 0.94847 0.0
C1037 C 0.92942 0.56282 0.95308 0.0
C1038 C 0.91822 0.56651 0.92994 0.0
C1039 C 0.91154 0.55488 0.90251 0.0
C1040 C 0.91603 0.53922 0.89883 0.0
H1041 H 0.4544 0.96595 0.4414 0.0
H1042 H 0.48568 0.93282 0.4633 0.0
H1043 H 0.45652 0.90164 0.43919 0.0
H1044 H 0.40028 0.92282 0.45274 0.0
H1045 H 0.39096 0.93118 0.41974 0.0
H1046 H 0.41321 0.94996 0.4413 0.0
H1047 H 0.43591 0.96399 0.38953 0.0
H1048 H 0.41371 0.94539 0.36781 0.0
H1049 H 0.4383 0.94636 0.36545 0.0
H1050 H 0.42433 0.87466 0.41071 0.0
H1051 H 0.39332 0.85481 0.37772 0.0
H1052 H 0.38518 0.90722 0.37115 0.0
C1053 C 0.45507 0.95211 0.44101 0.0
C1054 C 0.47231 0.95171 0.4536 0.0
C1055 C 0.4726 0.93332 0.45336 0.0
C1056 C 0.45612 0.91561 0.43987 0.0
C1057 C 0.43953 0.91665 0.42687 0.0
C1058 C 0.439 0.9345 0.4272 0.0
C1059 C 0.42026 0.93219 0.40984 0.0
C1060 C 0.40529 0.93415 0.43225 0.0
C1061 C 0.42748 0.9479 0.38148 0.0
C1062 C 0.41039 0.9103 0.39934 0.0
C1063 C 0.42152 0.90146 0.40975 0.0
C1064 C 0.41553 0.88145 0.4024 0.0
C1065 C 0.39795 0.87035 0.38344 0.0
C1066 C 0.3867 0.87938 0.37163 0.0
C1067 C 0.39301 0.89957 0.38018 0.0
H1068 H 0.52356 0.43571 0.90504 0.0
H1069 H 0.48277 0.40316 0.98711 0.0
H1070 H 0.47118 0.36977 0.96368 0.0
H1071 H 0.48834 0.40291 0.84833 0.0
H1072 H 0.50858 0.4042 0.82336 0.0
H1073 H 0.51472 0.42542 0.84759 0.0
H1074 H 0.54473 0.42271 0.87306 0.0
H1075 H 0.53862 0.4014 0.84895 0.0
H1076 H 0.53887 0.39837 0.89127 0.0
H1077 H 0.46196 0.34008 0.92956 0.0
H1078 H 0.45638 0.31624 0.88753 0.0
H1079 H 0.50349 0.36807 0.82812 0.0
C1080 C 0.51223 0.42156 0.91813 0.0
C1081 C 0.50412 0.42205 0.94797 0.0
C1082 C 0.48944 0.40317 0.96444 0.0
C1083 C 0.48269 0.38412 0.95127 0.0
C1084 C 0.49089 0.38421 0.92172 0.0
C1085 C 0.50542 0.40242 0.90541 0.0
C1086 C 0.51125 0.39827 0.87359 0.0
C1087 C 0.50536 0.40829 0.84663 0.0
C1088 C 0.53477 0.40562 0.87162 0.0
C1089 C 0.49745 0.37489 0.87429 0.0
C1090 C 0.48586 0.36707 0.90229 0.0
C1091 C 0.47114 0.34599 0.9077 0.0
C1092 C 0.46803 0.3326 0.88373 0.0
C1093 C 0.47967 0.34032 0.85481 0.0
C1094 C 0.49474 0.36171 0.85029 0.0
H1095 H 0.09578 0.47039 0.47906 0.0
H1096 H 0.11854 0.53429 0.45146 0.0
H1097 H 0.14337 0.53447 0.41253 0.0
H1098 H 0.14716 0.47387 0.46874 0.0
H1099 H 0.13481 0.44841 0.4535 0.0
H1100 H 0.12074 0.45414 0.48167 0.0
H1101 H 0.09007 0.44224 0.44292 0.0
H1102 H 0.10406 0.43661 0.41461 0.0
H1103 H 0.0955 0.45407 0.40357 0.0
H1104 H 0.1626 0.52652 0.37314 0.0
H1105 H 0.17532 0.51134 0.33595 0.0
H1106 H 0.14108 0.45264 0.39015 0.0
C1107 C 0.10642 0.4845 0.46528 0.0
C1108 C 0.10565 0.50243 0.46825 0.0
C1109 C 0.11927 0.52055 0.44954 0.0
C1110 C 0.13336 0.52077 0.42748 0.0
C1111 C 0.13361 0.50273 0.42466 0.0
C1112 C 0.12061 0.48496 0.44317 0.0
C1113 C 0.12298 0.46729 0.43391 0.0
C1114 C 0.13196 0.46053 0.46108 0.0
C1115 C 0.1019 0.44898 0.42311 0.0
C1116 C 0.1388 0.4777 0.40666 0.0
C1117 C 0.14488 0.49819 0.40195 0.0
C1118 C 0.15832 0.51062 0.37698 0.0
C1119 C 0.16558 0.50185 0.35606 0.0
C1120 C 0.15945 0.48079 0.36017 0.0
C1121 C 0.14609 0.46874 0.38619 0.0
H1122 H 0.61062 0.04253 0.93881 0.0
H1123 H 0.58918 0.08386 0.95887 0.0
H1124 H 0.61993 0.1124 0.92866 0.0
H1125 H 0.66768 0.08031 0.93794 0.0
H1126 H 0.67272 0.06936 0.90478 0.0
H1127 H 0.65082 0.05307 0.93163 0.0
H1128 H 0.62526 0.04118 0.88495 0.0
H1129 H 0.64706 0.05733 0.85798 0.0
H1130 H 0.62472 0.06034 0.85929 0.0
H1131 H 0.65196 0.13581 0.89437 0.0
H1132 H 0.68102 0.15176 0.85465 0.0
H1133 H 0.67924 0.09391 0.85221 0.0
C1134 C 0.61261 0.05768 0.93705 0.0
C1135 C 0.59771 0.06115 0.95118 0.0
C1136 C 0.6006 0.08105 0.94833 0.0
C1137 C 0.61799 0.0973 0.9313 0.0
C1138 C 0.63218 0.09328 0.91704 0.0
C1139 C 0.62956 0.0739 0.91945 0.0
C1140 C 0.64578 0.07308 0.8992 0.0
C1141 C 0.6601 0.0687 0.91961 0.0
C1142 C 0.63506 0.05704 0.87385 0.0
C1143 C 0.65779 0.09496 0.88473 0.0
C1144 C 0.64994 0.10645 0.89581 0.0
C1145 C 0.65819 0.12694 0.88544 0.0
C1146 C 0.6746 0.1358 0.86263 0.0
C1147 C 0.68237 0.12408 0.8499 0.0
C1148 C 0.67398 0.10347 0.86164 0.0
H1149 H 0.52873 0.57612 0.44454 0.0
H1150 H 0.59071 0.58624 0.46013 0.0
H1151 H 0.60717 0.62135 0.43438 0.0
H1152 H 0.53966 0.60073 0.3691 0.0
H1153 H 0.52409 0.61217 0.37432 0.0
H1154 H 0.51729 0.58864 0.39626 0.0
H1155 H 0.5195 0.60589 0.44865 0.0
H1156 H 0.52624 0.6295 0.42685 0.0
H1157 H 0.54327 0.62985 0.4572 0.0
H1158 H 0.61649 0.65345 0.40266 0.0
H1159 H 0.61861 0.68099 0.3679 0.0
H1160 H 0.55046 0.65142 0.37575 0.0
C1161 C 0.54576 0.58596 0.44293 0.0
C1162 C 0.55859 0.57875 0.45427 0.0
C1163 C 0.58078 0.59172 0.45156 0.0
C1164 C 0.59019 0.61161 0.43709 0.0
C1165 C 0.57713 0.61827 0.4258 0.0
C1166 C 0.55541 0.60593 0.42876 0.0
C1167 C 0.54502 0.6165 0.41336 0.0
C1168 C 0.53067 0.60375 0.38668 0.0
C1169 C 0.53279 0.62069 0.43799 0.0
C1170 C 0.56428 0.63646 0.40052 0.0
C1171 C 0.58261 0.63717 0.40814 0.0
C1172 C 0.60229 0.65332 0.39715 0.0
C1173 C 0.6033 0.66908 0.37755 0.0
C1174 C 0.58474 0.66878 0.3692 0.0
C1175 C 0.56501 0.65228 0.38142 0.0
H1176 H 0.51264 0.08848 0.54545 0.0
H1177 H 0.46281 0.02543 0.57206 0.0
H1178 H 0.4457 0.0386 0.60495 0.0
H1179 H 0.51705 0.1087 0.62008 0.0
H1180 H 0.52165 0.13334 0.60548 0.0
H1181 H 0.52914 0.11916 0.58156 0.0
H1182 H 0.50651 0.12017 0.53615 0.0
H1183 H 0.49902 0.13446 0.5599 0.0
H1184 H 0.47901 0.1106 0.54367 0.0
H1185 H 0.43604 0.05812 0.63911 0.0
H1186 H 0.43334 0.08277 0.67086 0.0
H1187 H 0.48823 0.13375 0.62052 0.0
C1188 C 0.49801 0.07747 0.55794 0.0
C1189 C 0.48898 0.0559 0.55592 0.0
C1190 C 0.46982 0.04199 0.57268 0.0
C1191 C 0.46003 0.04932 0.59159 0.0
C1192 C 0.46947 0.07062 0.59338 0.0
C1193 C 0.48792 0.08453 0.57683 0.0
C1194 C 0.49513 0.10663 0.58394 0.0
C1195 C 0.51704 0.1176 0.59864 0.0
C1196 C 0.49489 0.11867 0.55414 0.0
C1197 C 0.47814 0.10289 0.60771 0.0
C1198 C 0.4635 0.082 0.61266 0.0
C1199 C 0.4471 0.07456 0.63491 0.0
C1200 C 0.44561 0.08882 0.65269 0.0
C1201 C 0.4603 0.11043 0.64802 0.0
C1202 C 0.47669 0.11744 0.62489 0.0
H1203 H 0.46912 0.50876 0.07393 0.0
H1204 H 0.4373 0.4516 0.02508 0.0
H1205 H 0.40301 0.44302 0.04875 0.0
H1206 H 0.43842 0.48861 0.14564 0.0
H1207 H 0.43832 0.51176 0.15237 0.0
H1208 H 0.45995 0.51344 0.13071 0.0
H1209 H 0.45388 0.53243 0.08383 0.0
H1210 H 0.43216 0.53075 0.10528 0.0
H1211 H 0.42824 0.52056 0.0666 0.0
H1212 H 0.37252 0.44043 0.07934 0.0
H1213 H 0.34817 0.44388 0.11444 0.0
H1214 H 0.40033 0.50292 0.14296 0.0
C1215 C 0.45485 0.49451 0.06821 0.0
C1216 C 0.45556 0.4808 0.04775 0.0
C1217 C 0.4368 0.46223 0.0407 0.0
C1218 C 0.41737 0.45729 0.05398 0.0
C1219 C 0.41712 0.47116 0.07415 0.0
C1220 C 0.43538 0.4894 0.08121 0.0
C1221 C 0.43095 0.50144 0.10407 0.0
C1222 C 0.4426 0.50395 0.13503 0.0
C1223 C 0.43664 0.52254 0.08903 0.0
C1224 C 0.40735 0.48712 0.10893 0.0
C1225 C 0.39963 0.46974 0.09149 0.0
C1226 C 0.37837 0.45403 0.09298 0.0
C1227 C 0.36468 0.45608 0.11302 0.0
C1228 C 0.37231 0.47373 0.13121 0.0
C1229 C 0.39392 0.48946 0.12885 0.0
H1230 H 0.98966 0.4443 0.62055 0.0
H1231 H 0.01518 0.42296 0.55069 0.0
H1232 H 0.99182 0.38679 0.57239 0.0
H1233 H 0.98574 0.40987 0.6846 0.0
H1234 H 0.96166 0.40639 0.70062 0.0
H1235 H 0.98025 0.43014 0.6791 0.0
H1236 H 0.95084 0.42509 0.64125 0.0
H1237 H 0.93218 0.40123 0.66249 0.0
H1238 H 0.93641 0.40148 0.6206 0.0
H1239 H 0.96528 0.35295 0.60241 0.0
H1240 H 0.9386 0.3246 0.63827 0.0
H1241 H 0.93182 0.36916 0.68899 0.0
C1242 C 0.9904 0.43197 0.61008 0.0
C1243 C 0.00427 0.43618 0.58437 0.0
C1244 C 0.00472 0.41983 0.57069 0.0
C1245 C 0.99152 0.39935 0.5828 0.0
C1246 C 0.97804 0.39568 0.60845 0.0
C1247 C 0.9775 0.4116 0.62194 0.0
C1248 C 0.96186 0.40378 0.64941 0.0
C1249 C 0.97305 0.41309 0.68025 0.0
C1250 C 0.94428 0.40815 0.64304 0.0
C1251 C 0.95357 0.3809 0.64935 0.0
C1252 C 0.96301 0.37646 0.62557 0.0
C1253 C 0.95784 0.35629 0.62114 0.0
C1254 C 0.94274 0.3403 0.64171 0.0
C1255 C 0.93301 0.3446 0.6664 0.0
C1256 C 0.93859 0.36522 0.67004 0.0
H1257 H 0.53977 0.94193 0.10501 0.0
H1258 H 0.58227 0.95619 0.02504 0.0
H1259 H 0.59458 0.93472 0.05041 0.0
H1260 H 0.57367 0.94399 0.16425 0.0
H1261 H 0.55323 0.92274 0.1884 0.0
H1262 H 0.54695 0.93814 0.16301 0.0
H1263 H 0.51854 0.9051 0.13636 0.0
H1264 H 0.52474 0.88957 0.1617 0.0
H1265 H 0.52581 0.88834 0.11946 0.0
H1266 H 0.60455 0.91443 0.0869 0.0
H1267 H 0.61001 0.89524 0.13052 0.0
H1268 H 0.55981 0.89297 0.18536 0.0
C1269 C 0.55158 0.94041 0.09279 0.0
C1270 C 0.56014 0.95072 0.06314 0.0
C1271 C 0.57543 0.94827 0.04768 0.0
C1272 C 0.58253 0.93617 0.06193 0.0
C1273 C 0.57394 0.9264 0.09139 0.0
C1274 C 0.55862 0.9282 0.10647 0.0
C1275 C 0.55225 0.91651 0.13827 0.0
C1276 C 0.55681 0.93122 0.16506 0.0
C1277 C 0.52895 0.89883 0.13897 0.0
C1278 C 0.56673 0.90824 0.1391 0.0
C1279 C 0.57913 0.91411 0.11185 0.0
C1280 C 0.59469 0.90945 0.1081 0.0
C1281 C 0.59772 0.89863 0.13294 0.0
C1282 C 0.58512 0.89244 0.16094 0.0
C1283 C 0.5693 0.89712 0.16384 0.0
H1284 H 0.60147 0.52311 0.61369 0.0
H1285 H 0.63527 0.55797 0.52765 0.0
H1286 H 0.66911 0.57004 0.55374 0.0
H1287 H 0.6365 0.56095 0.66714 0.0
H1288 H 0.63414 0.54196 0.69642 0.0
H1289 H 0.61266 0.53569 0.67059 0.0
H1290 H 0.61318 0.50382 0.65286 0.0
H1291 H 0.63476 0.51008 0.67849 0.0
H1292 H 0.63732 0.50732 0.63703 0.0
H1293 H 0.69934 0.57886 0.58966 0.0
H1294 H 0.72356 0.58397 0.63287 0.0
H1295 H 0.66985 0.54393 0.69552 0.0
C1296 C 0.61597 0.5334 0.60037 0.0
C1297 C 0.61568 0.53954 0.56856 0.0
C1298 C 0.63507 0.55281 0.55188 0.0
C1299 C 0.65438 0.55983 0.56654 0.0
C1300 C 0.65406 0.55344 0.59788 0.0
C1301 C 0.63537 0.54055 0.61461 0.0
C1302 C 0.63935 0.53617 0.64814 0.0
C1303 C 0.63012 0.54418 0.67197 0.0
C1304 C 0.63064 0.51297 0.65449 0.0
C1305 C 0.66322 0.5487 0.64772 0.0
C1306 C 0.67142 0.55852 0.61851 0.0
C1307 C 0.69309 0.57123 0.61263 0.0
C1308 C 0.70672 0.57411 0.63733 0.0
C1309 C 0.69863 0.56431 0.66755 0.0
C1310 C 0.67657 0.55136 0.67258 0.0
H1311 H 0.09172 0.57901 0.11591 0.0
H1312 H 0.04203 0.59102 0.09742 0.0
H1313 H 0.06239 0.62433 0.12343 0.0
H1314 H 0.10179 0.59796 0.19283 0.0
H1315 H 0.12984 0.60884 0.19007 0.0
H1316 H 0.11235 0.58704 0.16735 0.0
H1317 H 0.13299 0.60759 0.1161 0.0
H1318 H 0.15052 0.62951 0.1387 0.0
H1319 H 0.13649 0.63251 0.1065 0.0
H1320 H 0.08768 0.65576 0.15256 0.0
H1321 H 0.11465 0.6818 0.1864 0.0
H1322 H 0.14672 0.64805 0.18909 0.0
C1323 C 0.08536 0.58887 0.11696 0.0
C1324 C 0.06548 0.58269 0.10448 0.0
C1325 C 0.0573 0.59563 0.10684 0.0
C1326 C 0.06877 0.61456 0.12139 0.0
C1327 C 0.0883 0.6202 0.13369 0.0
C1328 C 0.09645 0.60766 0.13188 0.0
C1329 C 0.117 0.61656 0.14912 0.0
C1330 C 0.11512 0.60172 0.17647 0.0
C1331 C 0.13534 0.62186 0.12623 0.0
C1332 C 0.11902 0.63595 0.16115 0.0
C1333 C 0.10247 0.63791 0.1516 0.0
C1334 C 0.1007 0.65436 0.16025 0.0
C1335 C 0.11604 0.66902 0.17968 0.0
C1336 C 0.13282 0.667 0.19067 0.0
C1337 C 0.13437 0.65032 0.18078 0.0
loop_
_geom_bond_atom_site_label_1
_geom_bond_atom_site_label_2
_geom_bond_distance
_geom_bond_site_symmetry_2
_ccdc_geom_bond_type
C0 C1 1.443 . S
C0 N4 1.376 . S
C0 C38 1.389 . S
C1 C0 1.443 . S
C1 C2 1.340 . S
C1 H41 0.951 . S
C2 C1 1.340 . S
C2 C3 1.439 . S
C2 H42 0.950 . S
C3 C2 1.439 . S
C3 N4 1.374 . S
C3 C37 1.395 . S
N4 C0 1.376 . S
N4 C3 1.374 . S
N4 Co5 2.008 1_655 S
Co5 N4 2.008 1_455 S
Co5 N6 1.995 . S
Co5 N11 2.008 . S
Co5 N16 1.995 . S
Co5 N21 2.282 . S
Co5 N27 2.282 1_455 S
N6 Co5 1.995 . S
N6 C7 1.376 1_455 S
N6 C10 1.383 . S
C7 N6 1.376 1_655 S
C7 C8 1.446 . S
C7 C37 1.391 . S
C8 C7 1.446 . S
C8 C9 1.339 1_655 S
C8 H43 0.949 . S
C9 C8 1.339 1_455 S
C9 C10 1.439 . S
C9 H44 0.950 . S
C10 N6 1.383 . S
C10 C9 1.439 . S
C10 C39 1.392 . S
N11 Co5 2.008 . S
N11 C12 1.376 . S
N11 C15 1.374 . S
C12 N11 1.376 . S
C12 C13 1.443 . S
C12 C39 1.389 . S
C13 C12 1.443 . S
C13 C14 1.340 . S
C13 H45 0.951 . S
C14 C13 1.340 . S
C14 C15 1.439 . S
C14 H46 0.955 . S
C15 N11 1.374 . S
C15 C14 1.439 . S
C15 C40 1.395 1_554 S
N16 Co5 1.995 . S
N16 C17 1.376 1_554 S
N16 C20 1.383 1_455 S
C17 N16 1.376 1_556 S
C17 C18 1.446 . S
C17 C40 1.391 . S
C18 C17 1.446 . S
C18 C19 1.339 1_455 S
C18 H47 0.949 . S
C19 C18 1.339 1_655 S
C19 C20 1.439 1_556 S
C19 H48 0.950 . S
C20 N16 1.383 1_655 S
C20 C19 1.439 1_554 S
C20 C38 1.392 . S
N21 Co5 2.282 . S
N21 C24 1.332 . S
N21 C26 1.332 . S
C22 C23 1.386 . S
C22 C25 1.388 . S
C23 C22 1.386 . S
C23 C24 1.382 . S
C23 H49 0.950 . S
C24 N21 1.332 . S
C24 C23 1.382 . S
C24 H35 0.952 . S
C25 C22 1.388 . S
C25 C26 1.382 . S
C25 H50 0.950 . S
C26 N21 1.332 . S
C26 C25 1.382 . S
C26 H36 0.948 . S
N27 Co5 2.282 1_655 S
N27 C31 1.332 . S
N27 C32 1.332 1_554 S
C28 C29 1.388 . S
C28 C32 1.382 . S
C28 H51 0.950 . S
C29 C28 1.388 . S
C29 C30 1.386 1_556 S
C30 C29 1.386 1_554 S
C30 C31 1.382 . S
C30 H52 0.950 . S
C31 N27 1.332 . S
C31 C30 1.382 . S
C31 H33 0.952 . S
C32 N27 1.332 1_556 S
C32 C28 1.382 . S
C32 H34 0.948 . S
H33 C31 0.952 . S
H34 C32 0.948 . S
H35 C24 0.952 . S
H36 C26 0.948 . S
C37 C3 1.395 . S
C37 C7 1.391 . S
C38 C0 1.389 . S
C38 C20 1.392 . S
C39 C10 1.392 . S
C39 C12 1.389 . S
C40 C15 1.395 1_556 S
C40 C17 1.391 . S
H41 C1 0.951 . S
H42 C2 0.950 . S
H43 C8 0.949 . S
H44 C9 0.950 . S
H45 C13 0.951 . S
H46 C14 0.955 . S
H47 C18 0.949 . S
H48 C19 0.950 . S
H49 C23 0.950 . S
H50 C25 0.950 . S
H51 C28 0.950 . S
H52 C30 0.950 . S
C53 C54 1.443 . S
C53 N57 1.376 . S
C53 C91 1.389 . S
C54 C53 1.443 . S
C54 C55 1.340 . S
C54 H94 0.951 . S
C55 C54 1.340 . S
C55 C56 1.439 1_545 S
C55 H95 0.950 1_545 S
C56 C55 1.439 1_565 S
C56 N57 1.374 1_565 S
C56 C90 1.395 . S
N57 C53 1.376 . S
N57 C56 1.374 1_545 S
N57 Co58 2.008 . S
Co58 N57 2.008 . S
Co58 N59 1.995 1_545 S
Co58 N64 2.008 . S
Co58 N69 1.995 . S
Co58 N74 2.282 1_545 S
Co58 N80 2.282 . S
N59 Co58 1.995 1_565 S
N59 C60 1.376 . S
N59 C63 1.383 . S
C60 N59 1.376 . S
C60 C61 1.446 . S
C60 C90 1.391 . S
C61 C60 1.446 . S
C61 C62 1.339 . S
C61 H96 0.949 . S
C62 C61 1.339 . S
C62 C63 1.439 . S
C62 H97 0.950 . S
C63 N59 1.383 . S
C63 C62 1.439 . S
C63 C92 1.392 . S
N64 Co58 2.008 . S
N64 C65 1.376 1_545 S
N64 C68 1.374 . S
C65 N64 1.376 1_565 S
C65 C66 1.443 . S
C65 C92 1.389 . S
C66 C65 1.443 . S
C66 C67 1.340 1_565 S
C66 H98 0.951 . S
C67 C66 1.340 1_545 S
C67 C68 1.439 . S
C67 H99 0.950 . S
C68 N64 1.374 . S
C68 C67 1.439 . S
C68 C93 1.395 . S
N69 Co58 1.995 . S
N69 C70 1.376 . S
N69 C73 1.383 . S
C70 N69 1.376 . S
C70 C71 1.446 . S
C70 C93 1.391 . S
C71 C70 1.446 . S
C71 C72 1.339 . S
C71 H100 0.949 . S
C72 C71 1.339 . S
C72 C73 1.439 . S
C72 H101 0.950 . S
C73 N69 1.383 . S
C73 C72 1.439 . S
C73 C91 1.392 . S
N74 Co58 2.282 1_565 S
N74 C77 1.332 . S
N74 C79 1.332 . S
C75 C76 1.386 . S
C75 C78 1.388 . S
C76 C75 1.386 . S
C76 C77 1.382 . S
C76 H102 0.950 . S
C77 N74 1.332 . S
C77 C76 1.382 . S
C77 H88 0.952 1_565 S
C78 C75 1.388 . S
C78 C79 1.382 . S
C78 H103 0.950 . S
C79 N74 1.332 . S
C79 C78 1.382 . S
C79 H89 0.948 . S
N80 Co58 2.282 . S
N80 C84 1.332 . S
N80 C85 1.332 . S
C81 C82 1.388 . S
C81 C85 1.382 . S
C81 H104 0.950 . S
C82 C81 1.388 . S
C82 C83 1.386 . S
C83 C82 1.386 . S
C83 C84 1.382 . S
C83 H105 0.950 . S
C84 N80 1.332 . S
C84 C83 1.382 . S
C84 H86 0.952 . S
C85 N80 1.332 . S
C85 C81 1.382 . S
C85 H87 0.948 . S
H86 C84 0.952 . S
H87 C85 0.948 . S
H88 C77 0.952 1_545 S
H89 C79 0.948 . S
C90 C56 1.395 . S
C90 C60 1.391 . S
C91 C53 1.389 . S
C91 C73 1.392 . S
C92 C63 1.392 . S
C92 C65 1.389 . S
C93 C68 1.395 . S
C93 C70 1.391 . S
H94 C54 0.951 . S
H95 C55 0.950 1_565 S
H96 C61 0.949 . S
H97 C62 0.950 . S
H98 C66 0.951 . S
H99 C67 0.950 . S
H100 C71 0.949 . S
H101 C72 0.950 . S
H102 C76 0.950 . S
H103 C78 0.950 . S
H104 C81 0.950 . S
H105 C83 0.950 . S
C106 C107 1.443 . S
C106 N110 1.376 . S
C106 C144 1.389 . S
C107 C106 1.443 . S
C107 C108 1.340 . S
C107 H147 0.951 . S
C108 C107 1.340 . S
C108 C109 1.439 . S
C108 H148 0.950 . S
C109 C108 1.439 . S
C109 N110 1.374 . S
C109 C143 1.395 . S
N110 C106 1.376 . S
N110 C109 1.374 . S
N110 Co111 2.008 1_556 S
Co111 N110 2.008 1_554 S
Co111 N112 1.995 1_554 S
Co111 N117 2.008 . S
Co111 N122 1.995 . S
Co111 N127 2.282 . S
Co111 N133 2.282 1_554 S
N112 Co111 1.995 1_556 S
N112 C113 1.376 . S
N112 C116 1.383 1_556 S
C113 N112 1.376 . S
C113 C114 1.446 . S
C113 C143 1.391 . S
C114 C113 1.446 . S
C114 C115 1.339 . S
C114 H149 0.949 . S
C115 C114 1.339 . S
C115 C116 1.439 1_556 S
C115 H150 0.950 . S
C116 N112 1.383 1_554 S
C116 C115 1.439 1_554 S
C116 C145 1.392 . S
N117 Co111 2.008 . S
N117 C118 1.376 . S
N117 C121 1.374 . S
C118 N117 1.376 . S
C118 C119 1.443 . S
C118 C145 1.389 . S
C119 C118 1.443 . S
C119 C120 1.340 . S
C119 H151 0.951 . S
C120 C119 1.340 . S
C120 C121 1.439 . S
C120 H152 0.950 . S
C121 N117 1.374 . S
C121 C120 1.439 . S
C121 C146 1.395 . S
N122 Co111 1.995 . S
N122 C123 1.376 . S
N122 C126 1.384 1_554 S
C123 N122 1.376 . S
C123 C124 1.446 . S
C123 C146 1.391 . S
C124 C123 1.446 . S
C124 C125 1.339 . S
C124 H153 0.949 . S
C125 C124 1.339 . S
C125 C126 1.440 1_554 S
C125 H154 0.950 . S
C126 N122 1.384 1_556 S
C126 C125 1.440 1_556 S
C126 C144 1.390 . S
N127 Co111 2.282 . S
N127 C130 1.332 . S
N127 C132 1.332 . S
C128 C129 1.386 . S
C128 C131 1.388 . S
C129 C128 1.386 . S
C129 C130 1.382 . S
C129 H155 0.950 . S
C130 N127 1.332 . S
C130 C129 1.382 . S
C130 H141 0.952 . S
C131 C128 1.388 . S
C131 C132 1.382 . S
C131 H156 0.950 . S
C132 N127 1.332 . S
C132 C131 1.382 . S
C132 H142 0.948 1_554 S
N133 Co111 2.282 1_556 S
N133 C137 1.332 . S
N133 C138 1.332 . S
C134 C135 1.388 . S
C134 C138 1.382 . S
C134 H157 0.950 . S
C135 C134 1.388 . S
C135 C136 1.386 . S
C136 C135 1.386 . S
C136 C137 1.382 . S
C136 H158 0.950 . S
C137 N133 1.332 . S
C137 C136 1.382 . S
C137 H139 0.952 . S
C138 N133 1.332 . S
C138 C134 1.382 . S
C138 H140 0.948 1_556 S
H139 C137 0.952 . S
H140 C138 0.948 1_554 S
H141 C130 0.952 . S
H142 C132 0.948 1_556 S
C143 C109 1.395 . S
C143 C113 1.391 . S
C144 C106 1.389 . S
C144 C126 1.390 . S
C145 C116 1.392 . S
C145 C118 1.389 . S
C146 C121 1.395 . S
C146 C123 1.391 . S
H147 C107 0.951 . S
H148 C108 0.950 . S
H149 C114 0.949 . S
H150 C115 0.950 . S
H151 C119 0.951 . S
H152 C120 0.950 . S
H153 C124 0.949 . S
H154 C125 0.950 . S
H155 C129 0.950 . S
H156 C131 0.950 . S
H157 C134 0.950 . S
H158 C136 0.950 . S
C159 C160 1.443 1_455 S
C159 N163 1.376 . S
C159 C197 1.389 . S
C160 C159 1.443 1_655 S
C160 C161 1.340 . S
C160 H200 0.951 . S
C161 C160 1.340 . S
C161 C162 1.439 1_655 S
C161 H201 0.950 . S
C162 C161 1.439 1_455 S
C162 N163 1.374 . S
C162 C196 1.395 . S
N163 C159 1.376 . S
N163 C162 1.374 . S
N163 Co164 2.008 . S
Co164 N163 2.008 . S
Co164 N165 1.995 . S
Co164 N170 2.008 . S
Co164 N175 1.995 . S
Co164 N180 2.282 . S
Co164 N186 2.282 . S
N165 Co164 1.995 . S
N165 C166 1.376 . S
N165 C169 1.383 . S
C166 N165 1.376 . S
C166 C167 1.446 . S
C166 C196 1.391 . S
C167 C166 1.446 . S
C167 C168 1.339 . S
C167 H202 0.949 . S
C168 C167 1.339 . S
C168 C169 1.439 . S
C168 H203 0.950 . S
C169 N165 1.383 . S
C169 C168 1.439 . S
C169 C198 1.392 . S
N170 Co164 2.008 . S
N170 C171 1.376 . S
N170 C174 1.374 . S
C171 N170 1.376 . S
C171 C172 1.443 . S
C171 C198 1.389 . S
C172 C171 1.443 . S
C172 C173 1.340 . S
C172 H204 0.951 . S
C173 C172 1.340 . S
C173 C174 1.439 . S
C173 H205 0.950 . S
C174 N170 1.374 . S
C174 C173 1.439 . S
C174 C199 1.395 . S
N175 Co164 1.995 . S
N175 C176 1.376 . S
N175 C179 1.383 . S
C176 N175 1.376 . S
C176 C177 1.446 . S
C176 C199 1.391 . S
C177 C176 1.446 . S
C177 C178 1.339 . S
C177 H206 0.949 . S
C178 C177 1.339 . S
C178 C179 1.439 . S
C178 H207 0.950 . S
C179 N175 1.383 . S
C179 C178 1.439 . S
C179 C197 1.392 . S
N180 Co164 2.282 . S
N180 C183 1.332 . S
N180 C185 1.332 . S
C181 C182 1.386 . S
C181 C184 1.388 . S
C182 C181 1.386 . S
C182 C183 1.382 . S
C182 H208 0.950 . S
C183 N180 1.332 . S
C183 C182 1.382 . S
C183 H194 0.952 . S
C184 C181 1.388 . S
C184 C185 1.382 . S
C184 H209 0.950 . S
C185 N180 1.332 . S
C185 C184 1.382 . S
C185 H195 0.948 . S
N186 Co164 2.282 . S
N186 C190 1.332 . S
N186 C191 1.332 . S
C187 C188 1.388 . S
C187 C191 1.382 . S
C187 H210 0.950 . S
C188 C187 1.388 . S
C188 C189 1.386 . S
C189 C188 1.386 . S
C189 C190 1.382 . S
C189 H211 0.950 1_455 S
C190 N186 1.332 . S
C190 C189 1.382 . S
C190 H192 0.952 . S
C191 N186 1.332 . S
C191 C187 1.382 . S
C191 H193 0.948 . S
H192 C190 0.952 . S
H193 C191 0.948 . S
H194 C183 0.952 . S
H195 C185 0.948 . S
C196 C162 1.395 . S
C196 C166 1.391 . S
C197 C159 1.389 . S
C197 C179 1.392 . S
C198 C169 1.392 . S
C198 C171 1.389 . S
C199 C174 1.395 . S
C199 C176 1.391 . S
H200 C160 0.951 . S
H201 C161 0.950 . S
H202 C167 0.949 . S
H203 C168 0.950 . S
H204 C172 0.951 . S
H205 C173 0.950 . S
H206 C177 0.949 . S
H207 C178 0.950 . S
H208 C182 0.950 . S
H209 C184 0.950 . S
H210 C187 0.950 . S
H211 C189 0.950 1_655 S
C212 C213 1.443 . S
C212 N216 1.376 1_565 S
C212 C250 1.389 . S
C213 C212 1.443 . S
C213 C214 1.340 1_565 S
C213 H253 0.951 . S
C214 C213 1.340 1_545 S
C214 C215 1.439 . S
C214 H254 0.950 . S
C215 C214 1.439 . S
C215 N216 1.374 . S
C215 C249 1.395 . S
N216 C212 1.376 1_545 S
N216 C215 1.374 . S
N216 Co217 2.008 . S
Co217 N216 2.008 . S
Co217 N218 1.995 . S
Co217 N223 2.008 1_554 S
Co217 N228 1.995 1_544 S
Co217 N233 2.282 1_554 S
Co217 N239 2.282 1_545 S
N218 Co217 1.995 . S
N218 C219 1.376 . S
N218 C222 1.383 1_554 S
C219 N218 1.376 . S
C219 C220 1.446 . S
C219 C249 1.391 . S
C220 C219 1.446 . S
C220 C221 1.339 . S
C220 H255 0.949 . S
C221 C220 1.339 . S
C221 C222 1.439 1_554 S
C221 H256 0.950 1_554 S
C222 N218 1.383 1_556 S
C222 C221 1.439 1_556 S
C222 C251 1.392 . S
N223 Co217 2.008 1_556 S
N223 C224 1.376 . S
N223 C227 1.374 1_545 S
C224 N223 1.376 . S
C224 C225 1.443 . S
C224 C251 1.389 . S
C225 C224 1.443 . S
C225 C226 1.340 . S
C225 H257 0.951 . S
C226 C225 1.340 . S
C226 C227 1.439 1_545 S
C226 H258 0.944 1_545 S
C227 N223 1.374 1_565 S
C227 C226 1.439 1_565 S
C227 C252 1.395 . S
N228 Co217 1.995 1_566 S
N228 C229 1.376 . S
N228 C232 1.383 1_556 S
C229 N228 1.376 . S
C229 C230 1.446 . S
C229 C252 1.391 . S
C230 C229 1.446 . S
C230 C231 1.339 . S
C230 H259 0.949 . S
C231 C230 1.339 . S
C231 C232 1.439 1_556 S
C231 H260 0.950 1_556 S
C232 N228 1.383 1_554 S
C232 C231 1.439 1_554 S
C232 C250 1.392 . S
N233 Co217 2.282 1_556 S
N233 C236 1.332 . S
N233 C238 1.332 . S
C234 C235 1.386 . S
C234 C237 1.388 . S
C235 C234 1.386 . S
C235 C236 1.382 . S
C235 H261 0.950 . S
C236 N233 1.332 . S
C236 C235 1.382 . S
C236 H247 0.952 . S
C237 C234 1.388 . S
C237 C238 1.382 . S
C237 H262 0.950 . S
C238 N233 1.332 . S
C238 C237 1.382 . S
C238 H248 0.948 1_556 S
N239 Co217 2.282 1_565 S
N239 C243 1.332 . S
N239 C244 1.332 . S
C240 C241 1.388 . S
C240 C244 1.382 . S
C240 H263 0.950 . S
C241 C240 1.388 . S
C241 C242 1.386 . S
C242 C241 1.386 . S
C242 C243 1.382 . S
C242 H264 0.950 . S
C243 N239 1.332 . S
C243 C242 1.382 . S
C243 H245 0.952 1_565 S
C244 N239 1.332 . S
C244 C240 1.382 . S
C244 H246 0.953 . S
H245 C243 0.952 1_545 S
H246 C244 0.953 . S
H247 C236 0.952 . S
H248 C238 0.948 1_554 S
C249 C215 1.395 . S
C249 C219 1.391 . S
C250 C212 1.389 . S
C250 C232 1.392 . S
C251 C222 1.392 . S
C251 C224 1.389 . S
C252 C227 1.395 . S
C252 C229 1.391 . S
H253 C213 0.951 . S
H254 C214 0.950 . S
H255 C220 0.949 . S
H256 C221 0.950 1_556 S
H257 C225 0.951 . S
H258 C226 0.944 1_565 S
H259 C230 0.949 . S
H260 C231 0.950 1_554 S
H261 C235 0.950 . S
H262 C237 0.950 . S
H263 C240 0.950 . S
H264 C242 0.950 . S
C265 C266 1.443 . S
C265 N269 1.376 . S
C265 C303 1.389 . S
C266 C265 1.443 . S
C266 C267 1.340 . S
C266 H306 0.951 . S
C267 C266 1.340 . S
C267 C268 1.439 . S
C267 H307 0.950 . S
C268 C267 1.439 . S
C268 N269 1.374 . S
C268 C302 1.395 . S
N269 C265 1.376 . S
N269 C268 1.374 . S
N269 Co270 2.008 . S
Co270 N269 2.008 . S
Co270 N271 1.995 . S
Co270 N276 2.008 . S
Co270 N281 1.995 . S
Co270 N286 2.282 . S
Co270 N292 2.282 . S
N271 Co270 1.995 . S
N271 C272 1.376 . S
N271 C275 1.383 . S
C272 N271 1.376 . S
C272 C273 1.446 . S
C272 C302 1.391 . S
C273 C272 1.446 . S
C273 C274 1.339 . S
C273 H308 0.949 . S
C274 C273 1.339 . S
C274 C275 1.439 . S
C274 H309 0.950 . S
C275 N271 1.383 . S
C275 C274 1.439 . S
C275 C304 1.392 . S
N276 Co270 2.008 . S
N276 C277 1.376 . S
N276 C280 1.374 . S
C277 N276 1.376 . S
C277 C278 1.443 . S
C277 C304 1.389 . S
C278 C277 1.443 . S
C278 C279 1.340 . S
C278 H310 0.951 . S
C279 C278 1.340 . S
C279 C280 1.439 . S
C279 H311 0.950 . S
C280 N276 1.374 . S
C280 C279 1.439 . S
C280 C305 1.395 . S
N281 Co270 1.995 . S
N281 C282 1.376 . S
N281 C285 1.383 . S
C282 N281 1.376 . S
C282 C283 1.446 . S
C282 C305 1.391 . S
C283 C282 1.446 . S
C283 C284 1.339 . S
C283 H312 0.949 . S
C284 C283 1.339 . S
C284 C285 1.439 . S
C284 H313 0.950 . S
C285 N281 1.383 . S
C285 C284 1.439 . S
C285 C303 1.392 . S
N286 Co270 2.282 . S
N286 C289 1.332 . S
N286 C291 1.332 . S
C287 C288 1.386 . S
C287 C290 1.388 . S
C288 C287 1.386 . S
C288 C289 1.382 . S
C288 H314 0.950 . S
C289 N286 1.332 . S
C289 C288 1.382 . S
C289 H300 0.952 . S
C290 C287 1.388 . S
C290 C291 1.382 . S
C290 H315 0.950 . S
C291 N286 1.332 . S
C291 C290 1.382 . S
C291 H301 0.948 . S
N292 Co270 2.282 . S
N292 C296 1.332 . S
N292 C297 1.332 . S
C293 C294 1.388 . S
C293 C297 1.382 . S
C293 H316 0.950 . S
C294 C293 1.388 . S
C294 C295 1.386 . S
C295 C294 1.386 . S
C295 C296 1.382 . S
C295 H317 0.950 . S
C296 N292 1.332 . S
C296 C295 1.382 . S
C296 H298 0.952 . S
C297 N292 1.332 . S
C297 C293 1.382 . S
C297 H299 0.948 . S
H298 C296 0.952 . S
H299 C297 0.948 . S
H300 C289 0.952 . S
H301 C291 0.948 . S
C302 C268 1.395 . S
C302 C272 1.391 . S
C303 C265 1.389 . S
C303 C285 1.392 . S
C304 C275 1.392 . S
C304 C277 1.389 . S
C305 C280 1.395 . S
C305 C282 1.391 . S
H306 C266 0.951 . S
H307 C267 0.950 . S
H308 C273 0.949 . S
H309 C274 0.950 . S
H310 C278 0.951 . S
H311 C279 0.950 . S
H312 C283 0.949 . S
H313 C284 0.950 . S
H314 C288 0.950 . S
H315 C290 0.950 . S
H316 C293 0.950 . S
H317 C295 0.950 . S
H318 C345 0.929 . S
N319 C344 1.433 . S
N319 C350 1.435 . S
N319 C356 1.423 . S
H320 C346 0.930 . S
H321 C349 0.931 . S
H322 C348 0.929 . S
H323 C351 0.930 . S
H324 C352 0.932 . S
H325 C355 0.929 . S
H326 C354 0.931 . S
H327 C357 0.929 . S
H328 C361 0.932 . S
H329 C358 0.931 . S
H330 C360 0.929 . S
H331 C363 0.929 . S
H332 C364 0.930 . S
H333 C366 0.929 . S
H334 C367 0.931 . S
H335 C369 0.930 . S
H336 C370 0.932 . S
H337 C372 0.931 . S
H338 C373 0.929 . S
H339 C375 0.929 . S
H340 C376 0.931 . S
H341 C378 0.929 . S
N342 C362 1.433 . S
N342 C368 1.435 . S
N342 C374 1.423 . S
H343 C379 0.932 . S
C344 N319 1.433 . S
C344 C345 1.363 . S
C344 C349 1.370 . S
C345 H318 0.929 . S
C345 C344 1.363 . S
C345 C346 1.385 . S
C346 H320 0.930 . S
C346 C345 1.385 . S
C346 C347 1.357 . S
C347 C346 1.357 . S
C347 C348 1.406 . S
C348 H322 0.929 . S
C348 C347 1.406 . S
C348 C349 1.391 . S
C349 H321 0.931 . S
C349 C344 1.370 . S
C349 C348 1.391 . S
C350 N319 1.435 . S
C350 C351 1.358 . S
C350 C355 1.371 . S
C351 H323 0.930 . S
C351 C350 1.358 . S
C351 C352 1.405 . S
C352 H324 0.932 . S
C352 C351 1.405 . S
C352 C353 1.383 . S
C353 C352 1.383 . S
C353 C354 1.393 . S
C354 H326 0.931 . S
C354 C353 1.393 . S
C354 C355 1.382 . S
C355 H325 0.929 . S
C355 C350 1.371 . S
C355 C354 1.382 . S
C356 N319 1.423 . S
C356 C357 1.362 . S
C356 C361 1.388 . S
C357 H327 0.929 . S
C357 C356 1.362 . S
C357 C358 1.376 . S
C358 H329 0.931 . S
C358 C357 1.376 . S
C358 C359 1.396 . S
C359 C358 1.396 . S
C359 C360 1.348 . S
C359 C377 1.472 . S
C360 H330 0.929 . S
C360 C359 1.348 . S
C360 C361 1.443 . S
C361 H328 0.932 . S
C361 C356 1.388 . S
C361 C360 1.443 . S
C362 N342 1.433 . S
C362 C363 1.363 . S
C362 C367 1.370 . S
C363 H331 0.929 . S
C363 C362 1.363 . S
C363 C364 1.385 . S
C364 H332 0.930 . S
C364 C363 1.385 . S
C364 C365 1.357 . S
C365 C364 1.357 . S
C365 C366 1.406 . S
C366 H333 0.929 . S
C366 C365 1.406 . S
C366 C367 1.391 . S
C367 H334 0.931 . S
C367 C362 1.370 . S
C367 C366 1.391 . S
C368 N342 1.435 . S
C368 C369 1.358 . S
C368 C373 1.371 . S
C369 H335 0.930 . S
C369 C368 1.358 . S
C369 C370 1.405 . S
C370 H336 0.932 . S
C370 C369 1.405 . S
C370 C371 1.383 . S
C371 C370 1.383 . S
C371 C372 1.393 . S
C372 H337 0.931 . S
C372 C371 1.393 . S
C372 C373 1.382 . S
C373 H338 0.929 . S
C373 C368 1.371 . S
C373 C372 1.382 . S
C374 N342 1.423 . S
C374 C375 1.362 . S
C374 C379 1.388 . S
C375 H339 0.929 . S
C375 C374 1.362 . S
C375 C376 1.376 . S
C376 H340 0.931 . S
C376 C375 1.376 . S
C376 C377 1.396 . S
C377 C359 1.472 . S
C377 C376 1.396 . S
C377 C378 1.348 . S
C378 H341 0.929 . S
C378 C377 1.348 . S
C378 C379 1.443 . S
C379 H343 0.932 . S
C379 C374 1.388 . S
C379 C378 1.443 . S
H380 C407 0.929 . S
N381 C406 1.433 . S
N381 C412 1.435 . S
N381 C418 1.423 . S
H382 C408 0.930 . S
H383 C411 0.931 . S
H384 C410 0.929 . S
H385 C413 0.930 . S
H386 C414 0.932 . S
H387 C417 0.929 . S
H388 C416 0.931 . S
H389 C419 0.929 . S
H390 C423 0.932 . S
H391 C420 0.931 . S
H392 C422 0.929 . S
H393 C425 0.929 . S
H394 C426 0.930 . S
H395 C428 0.929 . S
H396 C429 0.931 . S
H397 C431 0.930 . S
H398 C432 0.932 . S
H399 C434 0.931 . S
H400 C435 0.929 . S
H401 C437 0.929 . S
H402 C438 0.931 . S
H403 C440 0.929 . S
N404 C424 1.433 . S
N404 C430 1.435 . S
N404 C436 1.423 . S
H405 C441 0.932 . S
C406 N381 1.433 . S
C406 C407 1.363 . S
C406 C411 1.370 . S
C407 H380 0.929 . S
C407 C406 1.363 . S
C407 C408 1.385 . S
C408 H382 0.930 . S
C408 C407 1.385 . S
C408 C409 1.357 . S
C409 C408 1.357 . S
C409 C410 1.406 . S
C410 H384 0.929 . S
C410 C409 1.406 . S
C410 C411 1.391 . S
C411 H383 0.931 . S
C411 C406 1.370 . S
C411 C410 1.391 . S
C412 N381 1.435 . S
C412 C413 1.358 . S
C412 C417 1.371 . S
C413 H385 0.930 . S
C413 C412 1.358 . S
C413 C414 1.405 . S
C414 H386 0.932 . S
C414 C413 1.405 . S
C414 C415 1.383 . S
C415 C414 1.383 . S
C415 C416 1.393 . S
C416 H388 0.931 . S
C416 C415 1.393 . S
C416 C417 1.382 . S
C417 H387 0.929 . S
C417 C412 1.371 . S
C417 C416 1.382 . S
C418 N381 1.423 . S
C418 C419 1.362 . S
C418 C423 1.388 . S
C419 H389 0.929 . S
C419 C418 1.362 . S
C419 C420 1.376 . S
C420 H391 0.931 . S
C420 C419 1.376 . S
C420 C421 1.396 . S
C421 C420 1.396 . S
C421 C422 1.348 . S
C421 C439 1.472 . S
C422 H392 0.929 . S
C422 C421 1.348 . S
C422 C423 1.443 . S
C423 H390 0.932 . S
C423 C418 1.388 . S
C423 C422 1.443 . S
C424 N404 1.433 . S
C424 C425 1.363 . S
C424 C429 1.370 . S
C425 H393 0.929 . S
C425 C424 1.363 . S
C425 C426 1.385 . S
C426 H394 0.930 . S
C426 C425 1.385 . S
C426 C427 1.357 . S
C427 C426 1.357 . S
C427 C428 1.406 . S
C428 H395 0.929 . S
C428 C427 1.406 . S
C428 C429 1.391 . S
C429 H396 0.931 . S
C429 C424 1.370 . S
C429 C428 1.391 . S
C430 N404 1.435 . S
C430 C431 1.358 . S
C430 C435 1.371 . S
C431 H397 0.930 . S
C431 C430 1.358 . S
C431 C432 1.405 . S
C432 H398 0.932 . S
C432 C431 1.405 . S
C432 C433 1.383 . S
C433 C432 1.383 . S
C433 C434 1.393 . S
C434 H399 0.931 . S
C434 C433 1.393 . S
C434 C435 1.382 . S
C435 H400 0.929 . S
C435 C430 1.371 . S
C435 C434 1.382 . S
C436 N404 1.423 . S
C436 C437 1.362 . S
C436 C441 1.388 . S
C437 H401 0.929 . S
C437 C436 1.362 . S
C437 C438 1.376 . S
C438 H402 0.931 . S
C438 C437 1.376 . S
C438 C439 1.396 . S
C439 C421 1.472 . S
C439 C438 1.396 . S
C439 C440 1.348 . S
C440 H403 0.929 . S
C440 C439 1.348 . S
C440 C441 1.443 . S
C441 H405 0.932 . S
C441 C436 1.388 . S
C441 C440 1.443 . S
H442 C469 0.929 . S
N443 C468 1.433 . S
N443 C474 1.435 . S
N443 C480 1.423 . S
H444 C470 0.930 . S
H445 C473 0.931 . S
H446 C472 0.929 . S
H447 C475 0.930 . S
H448 C476 0.932 . S
H449 C479 0.929 . S
H450 C478 0.931 . S
H451 C481 0.929 . S
H452 C485 0.932 . S
H453 C482 0.931 . S
H454 C484 0.929 . S
H455 C487 0.929 . S
H456 C488 0.930 . S
H457 C490 0.929 . S
H458 C491 0.931 . S
H459 C493 0.930 . S
H460 C494 0.932 . S
H461 C496 0.931 . S
H462 C497 0.929 . S
H463 C499 0.929 . S
H464 C500 0.931 . S
H465 C502 0.929 . S
N466 C486 1.433 . S
N466 C492 1.435 . S
N466 C498 1.423 . S
H467 C503 0.932 . S
C468 N443 1.433 . S
C468 C469 1.363 . S
C468 C473 1.370 . S
C469 H442 0.929 . S
C469 C468 1.363 . S
C469 C470 1.385 . S
C470 H444 0.930 . S
C470 C469 1.385 . S
C470 C471 1.357 . S
C471 C470 1.357 . S
C471 C472 1.406 . S
C472 H446 0.929 . S
C472 C471 1.406 . S
C472 C473 1.391 . S
C473 H445 0.931 . S
C473 C468 1.370 . S
C473 C472 1.391 . S
C474 N443 1.435 . S
C474 C475 1.358 . S
C474 C479 1.371 . S
C475 H447 0.930 . S
C475 C474 1.358 . S
C475 C476 1.405 . S
C476 H448 0.932 . S
C476 C475 1.405 . S
C476 C477 1.383 . S
C477 C476 1.383 . S
C477 C478 1.393 . S
C478 H450 0.931 . S
C478 C477 1.393 . S
C478 C479 1.382 . S
C479 H449 0.929 . S
C479 C474 1.371 . S
C479 C478 1.382 . S
C480 N443 1.423 . S
C480 C481 1.362 . S
C480 C485 1.388 . S
C481 H451 0.929 . S
C481 C480 1.362 . S
C481 C482 1.376 . S
C482 H453 0.931 . S
C482 C481 1.376 . S
C482 C483 1.396 . S
C483 C482 1.396 . S
C483 C484 1.348 . S
C483 C501 1.472 . S
C484 H454 0.929 . S
C484 C483 1.348 . S
C484 C485 1.443 . S
C485 H452 0.932 . S
C485 C480 1.388 . S
C485 C484 1.443 . S
C486 N466 1.433 . S
C486 C487 1.363 . S
C486 C491 1.370 . S
C487 H455 0.929 . S
C487 C486 1.363 . S
C487 C488 1.385 . S
C488 H456 0.930 . S
C488 C487 1.385 . S
C488 C489 1.357 . S
C489 C488 1.357 . S
C489 C490 1.406 . S
C490 H457 0.929 . S
C490 C489 1.406 . S
C490 C491 1.391 . S
C491 H458 0.931 . S
C491 C486 1.370 . S
C491 C490 1.391 . S
C492 N466 1.435 . S
C492 C493 1.358 . S
C492 C497 1.371 . S
C493 H459 0.930 . S
C493 C492 1.358 . S
C493 C494 1.405 . S
C494 H460 0.932 . S
C494 C493 1.405 . S
C494 C495 1.383 . S
C495 C494 1.383 . S
C495 C496 1.393 . S
C496 H461 0.931 . S
C496 C495 1.393 . S
C496 C497 1.382 . S
C497 H462 0.929 . S
C497 C492 1.371 . S
C497 C496 1.382 . S
C498 N466 1.423 . S
C498 C499 1.362 . S
C498 C503 1.388 . S
C499 H463 0.929 . S
C499 C498 1.362 . S
C499 C500 1.376 . S
C500 H464 0.931 . S
C500 C499 1.376 . S
C500 C501 1.396 . S
C501 C483 1.472 . S
C501 C500 1.396 . S
C501 C502 1.348 . S
C502 H465 0.929 . S
C502 C501 1.348 . S
C502 C503 1.443 . S
C503 H467 0.932 . S
C503 C498 1.388 . S
C503 C502 1.443 . S
H504 C531 0.929 . S
N505 C530 1.433 . S
N505 C536 1.435 . S
N505 C542 1.423 . S
H506 C532 0.930 . S
H507 C535 0.931 . S
H508 C534 0.929 . S
H509 C537 0.930 . S
H510 C538 0.932 . S
H511 C541 0.929 . S
H512 C540 0.931 . S
H513 C543 0.929 . S
H514 C547 0.932 . S
H515 C544 0.931 . S
H516 C546 0.929 . S
H517 C549 0.929 . S
H518 C550 0.930 . S
H519 C552 0.929 . S
H520 C553 0.931 . S
H521 C555 0.930 . S
H522 C556 0.932 . S
H523 C558 0.931 . S
H524 C559 0.929 . S
H525 C561 0.929 . S
H526 C562 0.931 . S
H527 C564 0.929 . S
N528 C548 1.433 . S
N528 C554 1.435 . S
N528 C560 1.423 . S
H529 C565 0.932 . S
C530 N505 1.433 . S
C530 C531 1.363 . S
C530 C535 1.370 . S
C531 H504 0.929 . S
C531 C530 1.363 . S
C531 C532 1.385 . S
C532 H506 0.930 . S
C532 C531 1.385 . S
C532 C533 1.357 . S
C533 C532 1.357 . S
C533 C534 1.406 . S
C534 H508 0.929 . S
C534 C533 1.406 . S
C534 C535 1.391 . S
C535 H507 0.931 . S
C535 C530 1.370 . S
C535 C534 1.391 . S
C536 N505 1.435 . S
C536 C537 1.358 . S
C536 C541 1.371 . S
C537 H509 0.930 . S
C537 C536 1.358 . S
C537 C538 1.405 . S
C538 H510 0.932 . S
C538 C537 1.405 . S
C538 C539 1.383 . S
C539 C538 1.383 . S
C539 C540 1.393 . S
C540 H512 0.931 . S
C540 C539 1.393 . S
C540 C541 1.382 . S
C541 H511 0.929 . S
C541 C536 1.371 . S
C541 C540 1.382 . S
C542 N505 1.423 . S
C542 C543 1.362 . S
C542 C547 1.388 . S
C543 H513 0.929 . S
C543 C542 1.362 . S
C543 C544 1.376 . S
C544 H515 0.931 . S
C544 C543 1.376 . S
C544 C545 1.396 . S
C545 C544 1.396 . S
C545 C546 1.348 . S
C545 C563 1.472 . S
C546 H516 0.929 . S
C546 C545 1.348 . S
C546 C547 1.443 . S
C547 H514 0.932 . S
C547 C542 1.388 . S
C547 C546 1.443 . S
C548 N528 1.433 . S
C548 C549 1.363 . S
C548 C553 1.370 . S
C549 H517 0.929 . S
C549 C548 1.363 . S
C549 C550 1.385 . S
C550 H518 0.930 . S
C550 C549 1.385 . S
C550 C551 1.357 . S
C551 C550 1.357 . S
C551 C552 1.406 . S
C552 H519 0.929 . S
C552 C551 1.406 . S
C552 C553 1.391 . S
C553 H520 0.931 . S
C553 C548 1.370 . S
C553 C552 1.391 . S
C554 N528 1.435 . S
C554 C555 1.358 . S
C554 C559 1.371 . S
C555 H521 0.930 . S
C555 C554 1.358 . S
C555 C556 1.405 . S
C556 H522 0.932 . S
C556 C555 1.405 . S
C556 C557 1.383 . S
C557 C556 1.383 . S
C557 C558 1.393 . S
C558 H523 0.931 . S
C558 C557 1.393 . S
C558 C559 1.382 . S
C559 H524 0.929 . S
C559 C554 1.371 . S
C559 C558 1.382 . S
C560 N528 1.423 . S
C560 C561 1.362 . S
C560 C565 1.388 . S
C561 H525 0.929 . S
C561 C560 1.362 . S
C561 C562 1.376 . S
C562 H526 0.931 . S
C562 C561 1.376 . S
C562 C563 1.396 . S
C563 C545 1.472 . S
C563 C562 1.396 . S
C563 C564 1.348 . S
C564 H527 0.929 . S
C564 C563 1.348 . S
C564 C565 1.443 . S
C565 H529 0.932 . S
C565 C560 1.388 . S
C565 C564 1.443 . S
H566 C593 0.929 . S
N567 C592 1.433 . S
N567 C598 1.435 . S
N567 C604 1.423 . S
H568 C594 0.930 . S
H569 C597 0.931 . S
H570 C596 0.929 . S
H571 C599 0.930 . S
H572 C600 0.932 . S
H573 C603 0.929 . S
H574 C602 0.931 . S
H575 C605 0.929 . S
H576 C609 0.932 . S
H577 C606 0.931 . S
H578 C608 0.929 . S
H579 C611 0.929 . S
H580 C612 0.930 . S
H581 C614 0.929 . S
H582 C615 0.931 . S
H583 C617 0.930 . S
H584 C618 0.932 . S
H585 C620 0.931 . S
H586 C621 0.929 . S
H587 C623 0.929 . S
H588 C624 0.931 . S
H589 C626 0.929 . S
N590 C610 1.433 . S
N590 C616 1.435 . S
N590 C622 1.423 . S
H591 C627 0.932 . S
C592 N567 1.433 . S
C592 C593 1.363 . S
C592 C597 1.370 . S
C593 H566 0.929 . S
C593 C592 1.363 . S
C593 C594 1.385 . S
C594 H568 0.930 . S
C594 C593 1.385 . S
C594 C595 1.357 . S
C595 C594 1.357 . S
C595 C596 1.406 . S
C596 H570 0.929 . S
C596 C595 1.406 . S
C596 C597 1.391 . S
C597 H569 0.931 . S
C597 C592 1.370 . S
C597 C596 1.391 . S
C598 N567 1.435 . S
C598 C599 1.358 . S
C598 C603 1.371 . S
C599 H571 0.930 . S
C599 C598 1.358 . S
C599 C600 1.405 . S
C600 H572 0.932 . S
C600 C599 1.405 . S
C600 C601 1.383 . S
C601 C600 1.383 . S
C601 C602 1.393 . S
C602 H574 0.931 . S
C602 C601 1.393 . S
C602 C603 1.382 . S
C603 H573 0.929 . S
C603 C598 1.371 . S
C603 C602 1.382 . S
C604 N567 1.423 . S
C604 C605 1.362 . S
C604 C609 1.388 . S
C605 H575 0.929 . S
C605 C604 1.362 . S
C605 C606 1.376 . S
C606 H577 0.931 . S
C606 C605 1.376 . S
C606 C607 1.396 . S
C607 C606 1.396 . S
C607 C608 1.348 . S
C607 C625 1.472 . S
C608 H578 0.929 . S
C608 C607 1.348 . S
C608 C609 1.443 . S
C609 H576 0.932 . S
C609 C604 1.388 . S
C609 C608 1.443 . S
C610 N590 1.433 . S
C610 C611 1.363 . S
C610 C615 1.370 . S
C611 H579 0.929 . S
C611 C610 1.363 . S
C611 C612 1.385 . S
C612 H580 0.930 . S
C612 C611 1.385 . S
C612 C613 1.357 . S
C613 C612 1.357 . S
C613 C614 1.406 . S
C614 H581 0.929 . S
C614 C613 1.406 . S
C614 C615 1.391 . S
C615 H582 0.931 . S
C615 C610 1.370 . S
C615 C614 1.391 . S
C616 N590 1.435 . S
C616 C617 1.358 . S
C616 C621 1.371 . S
C617 H583 0.930 . S
C617 C616 1.358 . S
C617 C618 1.405 . S
C618 H584 0.932 . S
C618 C617 1.405 . S
C618 C619 1.383 . S
C619 C618 1.383 . S
C619 C620 1.393 . S
C620 H585 0.931 . S
C620 C619 1.393 . S
C620 C621 1.382 . S
C621 H586 0.929 . S
C621 C616 1.371 . S
C621 C620 1.382 . S
C622 N590 1.423 . S
C622 C623 1.362 . S
C622 C627 1.388 . S
C623 H587 0.929 . S
C623 C622 1.362 . S
C623 C624 1.376 . S
C624 H588 0.931 . S
C624 C623 1.376 . S
C624 C625 1.396 . S
C625 C607 1.472 . S
C625 C624 1.396 . S
C625 C626 1.348 . S
C626 H589 0.929 . S
C626 C625 1.348 . S
C626 C627 1.443 . S
C627 H591 0.932 . S
C627 C622 1.388 . S
C627 C626 1.443 . S
H628 C655 0.929 . S
N629 C654 1.433 . S
N629 C660 1.435 . S
N629 C666 1.423 . S
H630 C656 0.930 . S
H631 C659 0.931 . S
H632 C658 0.929 . S
H633 C661 0.930 . S
H634 C662 0.932 . S
H635 C665 0.929 . S
H636 C664 0.931 . S
H637 C667 0.929 . S
H638 C671 0.932 . S
H639 C668 0.931 . S
H640 C670 0.929 . S
H641 C673 0.929 . S
H642 C674 0.930 . S
H643 C676 0.929 . S
H644 C677 0.931 . S
H645 C679 0.930 . S
H646 C680 0.932 . S
H647 C682 0.931 . S
H648 C683 0.929 . S
H649 C685 0.929 . S
H650 C686 0.931 . S
H651 C688 0.929 . S
N652 C672 1.433 . S
N652 C678 1.435 . S
N652 C684 1.423 . S
H653 C689 0.932 . S
C654 N629 1.433 . S
C654 C655 1.363 . S
C654 C659 1.370 . S
C655 H628 0.929 . S
C655 C654 1.363 . S
C655 C656 1.385 . S
C656 H630 0.930 . S
C656 C655 1.385 . S
C656 C657 1.357 . S
C657 C656 1.357 . S
C657 C658 1.406 . S
C658 H632 0.929 . S
C658 C657 1.406 . S
C658 C659 1.391 . S
C659 H631 0.931 . S
C659 C654 1.370 . S
C659 C658 1.391 . S
C660 N629 1.435 . S
C660 C661 1.358 . S
C660 C665 1.371 . S
C661 H633 0.930 . S
C661 C660 1.358 . S
C661 C662 1.405 . S
C662 H634 0.932 . S
C662 C661 1.405 . S
C662 C663 1.383 . S
C663 C662 1.383 . S
C663 C664 1.393 . S
C664 H636 0.931 . S
C664 C663 1.393 . S
C664 C665 1.382 . S
C665 H635 0.929 . S
C665 C660 1.371 . S
C665 C664 1.382 . S
C666 N629 1.423 . S
C666 C667 1.362 . S
C666 C671 1.388 . S
C667 H637 0.929 . S
C667 C666 1.362 . S
C667 C668 1.376 . S
C668 H639 0.931 . S
C668 C667 1.376 . S
C668 C669 1.396 . S
C669 C668 1.396 . S
C669 C670 1.348 . S
C669 C687 1.472 . S
C670 H640 0.929 . S
C670 C669 1.348 . S
C670 C671 1.443 . S
C671 H638 0.932 . S
C671 C666 1.388 . S
C671 C670 1.443 . S
C672 N652 1.433 . S
C672 C673 1.363 . S
C672 C677 1.370 . S
C673 H641 0.929 . S
C673 C672 1.363 . S
C673 C674 1.385 . S
C674 H642 0.930 . S
C674 C673 1.385 . S
C674 C675 1.357 . S
C675 C674 1.357 . S
C675 C676 1.406 . S
C676 H643 0.929 . S
C676 C675 1.406 . S
C676 C677 1.391 . S
C677 H644 0.931 . S
C677 C672 1.370 . S
C677 C676 1.391 . S
C678 N652 1.435 . S
C678 C679 1.358 . S
C678 C683 1.371 . S
C679 H645 0.930 . S
C679 C678 1.358 . S
C679 C680 1.405 . S
C680 H646 0.932 . S
C680 C679 1.405 . S
C680 C681 1.383 . S
C681 C680 1.383 . S
C681 C682 1.393 . S
C682 H647 0.931 . S
C682 C681 1.393 . S
C682 C683 1.382 . S
C683 H648 0.929 . S
C683 C678 1.371 . S
C683 C682 1.382 . S
C684 N652 1.423 . S
C684 C685 1.362 . S
C684 C689 1.388 . S
C685 H649 0.929 . S
C685 C684 1.362 . S
C685 C686 1.376 . S
C686 H650 0.931 . S
C686 C685 1.376 . S
C686 C687 1.396 . S
C687 C669 1.472 . S
C687 C686 1.396 . S
C687 C688 1.348 . S
C688 H651 0.929 . S
C688 C687 1.348 . S
C688 C689 1.443 . S
C689 H653 0.932 . S
C689 C684 1.388 . S
C689 C688 1.443 . S
H690 C702 0.930 . S
H691 C704 0.930 . S
H692 C705 0.930 . S
H693 C709 0.959 . S
H694 C709 0.959 . S
H695 C709 0.961 . S
H696 C710 0.960 . S
H697 C710 0.961 . S
H698 C710 0.959 . S
H699 C713 0.929 . S
H700 C714 0.931 . S
H701 C716 0.930 . S
C702 H690 0.930 . S
C702 C703 1.399 . S
C702 C707 1.399 . S
C703 C702 1.399 . S
C703 C704 1.376 . S
C704 H691 0.930 . S
C704 C703 1.376 . S
C704 C705 1.388 . S
C705 H692 0.930 . S
C705 C704 1.388 . S
C705 C706 1.390 . S
C706 C705 1.390 . S
C706 C707 1.394 . S
C706 C712 1.465 . S
C707 C702 1.399 . S
C707 C706 1.394 . S
C707 C708 1.516 . S
C708 C707 1.516 . S
C708 C709 1.502 . S
C708 C710 1.561 . S
C708 C711 1.526 . S
C709 H693 0.959 . S
C709 H694 0.959 . S
C709 H695 0.961 . S
C709 C708 1.502 . S
C710 H696 0.960 . S
C710 H697 0.961 . S
C710 H698 0.959 . S
C710 C708 1.561 . S
C711 C708 1.526 . S
C711 C712 1.396 . S
C711 C716 1.390 . S
C712 C706 1.465 . S
C712 C711 1.396 . S
C712 C713 1.399 . S
C713 H699 0.929 . S
C713 C712 1.399 . S
C713 C714 1.385 . S
C714 H700 0.931 . S
C714 C713 1.385 . S
C714 C715 1.389 . S
C715 C714 1.389 . S
C715 C716 1.387 . S
C716 H701 0.930 . S
C716 C711 1.390 . S
C716 C715 1.387 . S
H717 C729 0.930 . S
H718 C731 0.930 . S
H719 C732 0.930 . S
H720 C736 0.959 . S
H721 C736 0.959 . S
H722 C736 0.961 . S
H723 C737 0.960 . S
H724 C737 0.961 . S
H725 C737 0.959 . S
H726 C740 0.929 . S
H727 C741 0.931 . S
H728 C743 0.930 . S
C729 H717 0.930 . S
C729 C730 1.399 . S
C729 C734 1.399 . S
C730 C729 1.399 . S
C730 C731 1.376 . S
C731 H718 0.930 . S
C731 C730 1.376 . S
C731 C732 1.388 . S
C732 H719 0.930 . S
C732 C731 1.388 . S
C732 C733 1.390 . S
C733 C732 1.390 . S
C733 C734 1.394 . S
C733 C739 1.465 . S
C734 C729 1.399 . S
C734 C733 1.394 . S
C734 C735 1.516 . S
C735 C734 1.516 . S
C735 C736 1.502 . S
C735 C737 1.561 . S
C735 C738 1.526 . S
C736 H720 0.959 . S
C736 H721 0.959 . S
C736 H722 0.961 . S
C736 C735 1.502 . S
C737 H723 0.960 . S
C737 H724 0.961 . S
C737 H725 0.959 . S
C737 C735 1.561 . S
C738 C735 1.526 . S
C738 C739 1.396 . S
C738 C743 1.390 . S
C739 C733 1.465 . S
C739 C738 1.396 . S
C739 C740 1.399 . S
C740 H726 0.929 . S
C740 C739 1.399 . S
C740 C741 1.385 . S
C741 H727 0.931 . S
C741 C740 1.385 . S
C741 C742 1.389 . S
C742 C741 1.389 . S
C742 C743 1.387 . S
C743 H728 0.930 . S
C743 C738 1.390 . S
C743 C742 1.387 . S
H744 C756 0.930 . S
H745 C758 0.930 . S
H746 C759 0.930 . S
H747 C763 0.959 . S
H748 C763 0.959 . S
H749 C763 0.961 . S
H750 C764 0.960 . S
H751 C764 0.961 . S
H752 C764 0.959 . S
H753 C767 0.929 . S
H754 C768 0.931 . S
H755 C770 0.930 . S
C756 H744 0.930 . S
C756 C757 1.399 . S
C756 C761 1.399 . S
C757 C756 1.399 . S
C757 C758 1.376 . S
C758 H745 0.930 . S
C758 C757 1.376 . S
C758 C759 1.388 . S
C759 H746 0.930 . S
C759 C758 1.388 . S
C759 C760 1.390 . S
C760 C759 1.390 . S
C760 C761 1.394 . S
C760 C766 1.465 . S
C761 C756 1.399 . S
C761 C760 1.394 . S
C761 C762 1.516 . S
C762 C761 1.516 . S
C762 C763 1.502 . S
C762 C764 1.561 . S
C762 C765 1.526 . S
C763 H747 0.959 . S
C763 H748 0.959 . S
C763 H749 0.961 . S
C763 C762 1.502 . S
C764 H750 0.960 . S
C764 H751 0.961 . S
C764 H752 0.959 . S
C764 C762 1.561 . S
C765 C762 1.526 . S
C765 C766 1.396 . S
C765 C770 1.390 . S
C766 C760 1.465 . S
C766 C765 1.396 . S
C766 C767 1.399 . S
C767 H753 0.929 . S
C767 C766 1.399 . S
C767 C768 1.385 . S
C768 H754 0.931 . S
C768 C767 1.385 . S
C768 C769 1.389 . S
C769 C768 1.389 . S
C769 C770 1.387 . S
C770 H755 0.930 . S
C770 C765 1.390 . S
C770 C769 1.387 . S
H771 C783 0.930 . S
H772 C785 0.930 . S
H773 C786 0.930 . S
H774 C790 0.959 . S
H775 C790 0.959 . S
H776 C790 0.961 . S
H777 C791 0.960 . S
H778 C791 0.961 . S
H779 C791 0.959 . S
H780 C794 0.929 . S
H781 C795 0.931 . S
H782 C797 0.930 . S
C783 H771 0.930 . S
C783 C784 1.399 . S
C783 C788 1.399 . S
C784 C783 1.399 . S
C784 C785 1.376 . S
C785 H772 0.930 . S
C785 C784 1.376 . S
C785 C786 1.388 . S
C786 H773 0.930 . S
C786 C785 1.388 . S
C786 C787 1.390 . S
C787 C786 1.390 . S
C787 C788 1.394 . S
C787 C793 1.465 . S
C788 C783 1.399 . S
C788 C787 1.394 . S
C788 C789 1.516 . S
C789 C788 1.516 . S
C789 C790 1.502 . S
C789 C791 1.561 . S
C789 C792 1.526 . S
C790 H774 0.959 . S
C790 H775 0.959 . S
C790 H776 0.961 . S
C790 C789 1.502 . S
C791 H777 0.960 . S
C791 H778 0.961 . S
C791 H779 0.959 . S
C791 C789 1.561 . S
C792 C789 1.526 . S
C792 C793 1.396 . S
C792 C797 1.390 . S
C793 C787 1.465 . S
C793 C792 1.396 . S
C793 C794 1.399 . S
C794 H780 0.929 . S
C794 C793 1.399 . S
C794 C795 1.385 . S
C795 H781 0.931 . S
C795 C794 1.385 . S
C795 C796 1.389 . S
C796 C795 1.389 . S
C796 C797 1.387 . S
C797 H782 0.930 . S
C797 C792 1.390 . S
C797 C796 1.387 . S
H798 C810 0.930 . S
H799 C812 0.930 . S
H800 C813 0.930 . S
H801 C817 0.959 . S
H802 C817 0.959 . S
H803 C817 0.961 . S
H804 C818 0.960 . S
H805 C818 0.961 . S
H806 C818 0.959 . S
H807 C821 0.929 . S
H808 C822 0.931 . S
H809 C824 0.930 . S
C810 H798 0.930 . S
C810 C811 1.399 . S
C810 C815 1.399 . S
C811 C810 1.399 . S
C811 C812 1.376 . S
C812 H799 0.930 . S
C812 C811 1.376 . S
C812 C813 1.388 . S
C813 H800 0.930 . S
C813 C812 1.388 . S
C813 C814 1.390 . S
C814 C813 1.390 . S
C814 C815 1.394 . S
C814 C820 1.465 . S
C815 C810 1.399 . S
C815 C814 1.394 . S
C815 C816 1.516 . S
C816 C815 1.516 . S
C816 C817 1.502 . S
C816 C818 1.561 . S
C816 C819 1.526 . S
C817 H801 0.959 . S
C817 H802 0.959 . S
C817 H803 0.961 . S
C817 C816 1.502 . S
C818 H804 0.960 . S
C818 H805 0.961 . S
C818 H806 0.959 . S
C818 C816 1.561 . S
C819 C816 1.526 . S
C819 C820 1.396 . S
C819 C824 1.390 . S
C820 C814 1.465 . S
C820 C819 1.396 . S
C820 C821 1.399 . S
C821 H807 0.929 . S
C821 C820 1.399 . S
C821 C822 1.385 . S
C822 H808 0.931 . S
C822 C821 1.385 . S
C822 C823 1.389 . S
C823 C822 1.389 . S
C823 C824 1.387 . S
C824 H809 0.930 . S
C824 C819 1.390 . S
C824 C823 1.387 . S
H825 C837 0.930 . S
H826 C839 0.930 . S
H827 C840 0.930 . S
H828 C844 0.959 . S
H829 C844 0.959 . S
H830 C844 0.961 . S
H831 C845 0.960 . S
H832 C845 0.961 . S
H833 C845 0.959 . S
H834 C848 0.929 . S
H835 C849 0.931 . S
H836 C851 0.930 . S
C837 H825 0.930 . S
C837 C838 1.399 . S
C837 C842 1.399 . S
C838 C837 1.399 . S
C838 C839 1.376 . S
C839 H826 0.930 . S
C839 C838 1.376 . S
C839 C840 1.388 . S
C840 H827 0.930 . S
C840 C839 1.388 . S
C840 C841 1.390 . S
C841 C840 1.390 . S
C841 C842 1.394 . S
C841 C847 1.465 . S
C842 C837 1.399 . S
C842 C841 1.394 . S
C842 C843 1.516 . S
C843 C842 1.516 . S
C843 C844 1.502 . S
C843 C845 1.561 . S
C843 C846 1.526 . S
C844 H828 0.959 . S
C844 H829 0.959 . S
C844 H830 0.961 . S
C844 C843 1.502 . S
C845 H831 0.960 . S
C845 H832 0.961 . S
C845 H833 0.959 . S
C845 C843 1.561 . S
C846 C843 1.526 . S
C846 C847 1.396 . S
C846 C851 1.390 . S
C847 C841 1.465 . S
C847 C846 1.396 . S
C847 C848 1.399 . S
C848 H834 0.929 . S
C848 C847 1.399 . S
C848 C849 1.385 . S
C849 H835 0.931 . S
C849 C848 1.385 . S
C849 C850 1.389 . S
C850 C849 1.389 . S
C850 C851 1.387 . S
C851 H836 0.930 . S
C851 C846 1.390 . S
C851 C850 1.387 . S
H852 C864 0.930 . S
H853 C866 0.930 . S
H854 C867 0.930 . S
H855 C871 0.959 . S
H856 C871 0.959 . S
H857 C871 0.961 . S
H858 C872 0.960 . S
H859 C872 0.961 . S
H860 C872 0.959 . S
H861 C875 0.929 . S
H862 C876 0.931 . S
H863 C878 0.930 . S
C864 H852 0.930 . S
C864 C865 1.399 . S
C864 C869 1.399 . S
C865 C864 1.399 . S
C865 C866 1.376 . S
C866 H853 0.930 . S
C866 C865 1.376 . S
C866 C867 1.388 . S
C867 H854 0.930 . S
C867 C866 1.388 . S
C867 C868 1.390 . S
C868 C867 1.390 . S
C868 C869 1.394 . S
C868 C874 1.465 . S
C869 C864 1.399 . S
C869 C868 1.394 . S
C869 C870 1.516 . S
C870 C869 1.516 . S
C870 C871 1.502 . S
C870 C872 1.561 . S
C870 C873 1.526 . S
C871 H855 0.959 . S
C871 H856 0.959 . S
C871 H857 0.961 . S
C871 C870 1.502 . S
C872 H858 0.960 . S
C872 H859 0.961 . S
C872 H860 0.959 . S
C872 C870 1.561 . S
C873 C870 1.526 . S
C873 C874 1.396 . S
C873 C878 1.390 . S
C874 C868 1.465 . S
C874 C873 1.396 . S
C874 C875 1.399 . S
C875 H861 0.929 . S
C875 C874 1.399 . S
C875 C876 1.385 . S
C876 H862 0.931 . S
C876 C875 1.385 . S
C876 C877 1.389 . S
C877 C876 1.389 . S
C877 C878 1.387 . S
C878 H863 0.930 . S
C878 C873 1.390 . S
C878 C877 1.387 . S
H879 C891 0.930 . S
H880 C893 0.930 . S
H881 C894 0.930 . S
H882 C898 0.959 . S
H883 C898 0.959 . S
H884 C898 0.961 . S
H885 C899 0.960 . S
H886 C899 0.961 . S
H887 C899 0.959 . S
H888 C902 0.929 . S
H889 C903 0.931 . S
H890 C905 0.930 . S
C891 H879 0.930 . S
C891 C892 1.399 . S
C891 C896 1.399 . S
C892 C891 1.399 . S
C892 C893 1.376 . S
C893 H880 0.930 . S
C893 C892 1.376 . S
C893 C894 1.388 . S
C894 H881 0.930 . S
C894 C893 1.388 . S
C894 C895 1.390 . S
C895 C894 1.390 . S
C895 C896 1.394 . S
C895 C901 1.465 . S
C896 C891 1.399 . S
C896 C895 1.394 . S
C896 C897 1.516 . S
C897 C896 1.516 . S
C897 C898 1.502 . S
C897 C899 1.561 . S
C897 C900 1.526 . S
C898 H882 0.959 . S
C898 H883 0.959 . S
C898 H884 0.961 . S
C898 C897 1.502 . S
C899 H885 0.960 . S
C899 H886 0.961 . S
C899 H887 0.959 . S
C899 C897 1.561 . S
C900 C897 1.526 . S
C900 C901 1.396 . S
C900 C905 1.390 . S
C901 C895 1.465 . S
C901 C900 1.396 . S
C901 C902 1.399 . S
C902 H888 0.929 . S
C902 C901 1.399 . S
C902 C903 1.385 . S
C903 H889 0.931 . S
C903 C902 1.385 . S
C903 C904 1.389 . S
C904 C903 1.389 . S
C904 C905 1.387 . S
C905 H890 0.930 . S
C905 C900 1.390 . S
C905 C904 1.387 . S
H906 C918 0.930 . S
H907 C920 0.930 . S
H908 C921 0.930 . S
H909 C925 0.959 . S
H910 C925 0.959 . S
H911 C925 0.961 . S
H912 C926 0.960 . S
H913 C926 0.961 . S
H914 C926 0.959 . S
H915 C929 0.929 . S
H916 C930 0.931 . S
H917 C932 0.930 . S
C918 H906 0.930 . S
C918 C919 1.399 . S
C918 C923 1.399 . S
C919 C918 1.399 . S
C919 C920 1.376 . S
C920 H907 0.930 . S
C920 C919 1.376 . S
C920 C921 1.388 . S
C921 H908 0.930 . S
C921 C920 1.388 . S
C921 C922 1.390 . S
C922 C921 1.390 . S
C922 C923 1.394 . S
C922 C928 1.465 . S
C923 C918 1.399 . S
C923 C922 1.394 . S
C923 C924 1.516 . S
C924 C923 1.516 . S
C924 C925 1.502 . S
C924 C926 1.561 . S
C924 C927 1.526 . S
C925 H909 0.959 . S
C925 H910 0.959 . S
C925 H911 0.961 . S
C925 C924 1.502 . S
C926 H912 0.960 . S
C926 H913 0.961 . S
C926 H914 0.959 . S
C926 C924 1.561 . S
C927 C924 1.526 . S
C927 C928 1.396 . S
C927 C932 1.390 . S
C928 C922 1.465 . S
C928 C927 1.396 . S
C928 C929 1.399 . S
C929 H915 0.929 . S
C929 C928 1.399 . S
C929 C930 1.385 . S
C930 H916 0.931 . S
C930 C929 1.385 . S
C930 C931 1.389 . S
C931 C930 1.389 . S
C931 C932 1.387 . S
C932 H917 0.930 . S
C932 C927 1.390 . S
C932 C931 1.387 . S
H933 C945 0.930 . S
H934 C947 0.930 . S
H935 C948 0.930 . S
H936 C952 0.959 . S
H937 C952 0.959 . S
H938 C952 0.961 . S
H939 C953 0.960 . S
H940 C953 0.961 . S
H941 C953 0.959 . S
H942 C956 0.929 . S
H943 C957 0.931 . S
H944 C959 0.930 . S
C945 H933 0.930 . S
C945 C946 1.399 . S
C945 C950 1.399 . S
C946 C945 1.399 . S
C946 C947 1.376 . S
C947 H934 0.930 . S
C947 C946 1.376 . S
C947 C948 1.388 . S
C948 H935 0.930 . S
C948 C947 1.388 . S
C948 C949 1.390 . S
C949 C948 1.390 . S
C949 C950 1.394 . S
C949 C955 1.465 . S
C950 C945 1.399 . S
C950 C949 1.394 . S
C950 C951 1.516 . S
C951 C950 1.516 . S
C951 C952 1.502 . S
C951 C953 1.561 . S
C951 C954 1.526 . S
C952 H936 0.959 . S
C952 H937 0.959 . S
C952 H938 0.961 . S
C952 C951 1.502 . S
C953 H939 0.960 . S
C953 H940 0.961 . S
C953 H941 0.959 . S
C953 C951 1.561 . S
C954 C951 1.526 . S
C954 C955 1.396 . S
C954 C959 1.390 . S
C955 C949 1.465 . S
C955 C954 1.396 . S
C955 C956 1.399 . S
C956 H942 0.929 . S
C956 C955 1.399 . S
C956 C957 1.385 . S
C957 H943 0.931 . S
C957 C956 1.385 . S
C957 C958 1.389 . S
C958 C957 1.389 . S
C958 C959 1.387 . S
C959 H944 0.930 . S
C959 C954 1.390 . S
C959 C958 1.387 . S
H960 C972 0.930 . S
H961 C974 0.930 . S
H962 C975 0.930 . S
H963 C979 0.959 . S
H964 C979 0.959 . S
H965 C979 0.961 . S
H966 C980 0.960 . S
H967 C980 0.961 . S
H968 C980 0.959 . S
H969 C983 0.929 . S
H970 C984 0.931 . S
H971 C986 0.930 . S
C972 H960 0.930 . S
C972 C973 1.399 . S
C972 C977 1.399 . S
C973 C972 1.399 . S
C973 C974 1.376 . S
C974 H961 0.930 . S
C974 C973 1.376 . S
C974 C975 1.388 . S
C975 H962 0.930 . S
C975 C974 1.388 . S
C975 C976 1.390 . S
C976 C975 1.390 . S
C976 C977 1.394 . S
C976 C982 1.465 . S
C977 C972 1.399 . S
C977 C976 1.394 . S
C977 C978 1.516 . S
C978 C977 1.516 . S
C978 C979 1.502 . S
C978 C980 1.561 . S
C978 C981 1.526 . S
C979 H963 0.959 . S
C979 H964 0.959 . S
C979 H965 0.961 . S
C979 C978 1.502 . S
C980 H966 0.960 . S
C980 H967 0.961 . S
C980 H968 0.959 . S
C980 C978 1.561 . S
C981 C978 1.526 . S
C981 C982 1.396 . S
C981 C986 1.390 . S
C982 C976 1.465 . S
C982 C981 1.396 . S
C982 C983 1.399 . S
C983 H969 0.929 . S
C983 C982 1.399 . S
C983 C984 1.385 . S
C984 H970 0.931 . S
C984 C983 1.385 . S
C984 C985 1.389 . S
C985 C984 1.389 . S
C985 C986 1.387 . S
C986 H971 0.930 . S
C986 C981 1.390 . S
C986 C985 1.387 . S
H987 C999 0.930 . S
H988 C1001 0.930 . S
H989 C1002 0.930 . S
H990 C1006 0.959 . S
H991 C1006 0.959 . S
H992 C1006 0.961 . S
H993 C1007 0.960 . S
H994 C1007 0.961 . S
H995 C1007 0.959 . S
H996 C1010 0.929 . S
H997 C1011 0.931 . S
H998 C1013 0.930 . S
C999 H987 0.930 . S
C999 C1000 1.399 . S
C999 C1004 1.399 . S
C1000 C999 1.399 . S
C1000 C1001 1.376 . S
C1001 H988 0.930 . S
C1001 C1000 1.376 . S
C1001 C1002 1.388 . S
C1002 H989 0.930 . S
C1002 C1001 1.388 . S
C1002 C1003 1.390 . S
C1003 C1002 1.390 . S
C1003 C1004 1.394 . S
C1003 C1009 1.465 . S
C1004 C999 1.399 . S
C1004 C1003 1.394 . S
C1004 C1005 1.516 . S
C1005 C1004 1.516 . S
C1005 C1006 1.502 . S
C1005 C1007 1.561 . S
C1005 C1008 1.526 . S
C1006 H990 0.959 . S
C1006 H991 0.959 . S
C1006 H992 0.961 . S
C1006 C1005 1.502 . S
C1007 H993 0.960 . S
C1007 H994 0.961 . S
C1007 H995 0.959 . S
C1007 C1005 1.561 . S
C1008 C1005 1.526 . S
C1008 C1009 1.396 . S
C1008 C1013 1.390 . S
C1009 C1003 1.465 . S
C1009 C1008 1.396 . S
C1009 C1010 1.399 . S
C1010 H996 0.929 . S
C1010 C1009 1.399 . S
C1010 C1011 1.385 . S
C1011 H997 0.931 . S
C1011 C1010 1.385 . S
C1011 C1012 1.389 . S
C1012 C1011 1.389 . S
C1012 C1013 1.387 . S
C1013 H998 0.930 . S
C1013 C1008 1.390 . S
C1013 C1012 1.387 . S
H1014 C1026 0.930 . S
H1015 C1028 0.930 . S
H1016 C1029 0.930 . S
H1017 C1033 0.959 . S
H1018 C1033 0.959 . S
H1019 C1033 0.961 . S
H1020 C1034 0.960 . S
H1021 C1034 0.961 . S
H1022 C1034 0.959 . S
H1023 C1037 0.929 . S
H1024 C1038 0.931 . S
H1025 C1040 0.930 . S
C1026 H1014 0.930 . S
C1026 C1027 1.399 . S
C1026 C1031 1.399 . S
C1027 C1026 1.399 . S
C1027 C1028 1.376 1_556 S
C1028 H1015 0.930 . S
C1028 C1027 1.376 1_554 S
C1028 C1029 1.388 . S
C1029 H1016 0.930 . S
C1029 C1028 1.388 . S
C1029 C1030 1.390 1_554 S
C1030 C1029 1.390 1_556 S
C1030 C1031 1.394 . S
C1030 C1036 1.465 . S
C1031 C1026 1.399 . S
C1031 C1030 1.394 . S
C1031 C1032 1.516 . S
C1032 C1031 1.516 . S
C1032 C1033 1.502 . S
C1032 C1034 1.561 . S
C1032 C1035 1.526 . S
C1033 H1017 0.959 . S
C1033 H1018 0.959 . S
C1033 H1019 0.961 . S
C1033 C1032 1.502 . S
C1034 H1020 0.960 . S
C1034 H1021 0.961 . S
C1034 H1022 0.959 . S
C1034 C1032 1.561 . S
C1035 C1032 1.526 . S
C1035 C1036 1.396 . S
C1035 C1040 1.390 . S
C1036 C1030 1.465 . S
C1036 C1035 1.396 . S
C1036 C1037 1.399 . S
C1037 H1023 0.929 . S
C1037 C1036 1.399 . S
C1037 C1038 1.385 . S
C1038 H1024 0.931 . S
C1038 C1037 1.385 . S
C1038 C1039 1.389 . S
C1039 C1038 1.389 . S
C1039 C1040 1.387 . S
C1040 H1025 0.930 . S
C1040 C1035 1.390 . S
C1040 C1039 1.387 . S
H1041 C1053 0.930 . S
H1042 C1055 0.930 . S
H1043 C1056 0.930 . S
H1044 C1060 0.959 . S
H1045 C1060 0.959 . S
H1046 C1060 0.961 . S
H1047 C1061 0.960 . S
H1048 C1061 0.961 . S
H1049 C1061 0.959 . S
H1050 C1064 0.929 . S
H1051 C1065 0.931 . S
H1052 C1067 0.930 . S
C1053 H1041 0.930 . S
C1053 C1054 1.399 . S
C1053 C1058 1.399 . S
C1054 C1053 1.399 . S
C1054 C1055 1.376 . S
C1055 H1042 0.930 . S
C1055 C1054 1.376 . S
C1055 C1056 1.388 . S
C1056 H1043 0.930 . S
C1056 C1055 1.388 . S
C1056 C1057 1.390 . S
C1057 C1056 1.390 . S
C1057 C1058 1.394 . S
C1057 C1063 1.465 . S
C1058 C1053 1.399 . S
C1058 C1057 1.394 . S
C1058 C1059 1.516 . S
C1059 C1058 1.516 . S
C1059 C1060 1.502 . S
C1059 C1061 1.561 . S
C1059 C1062 1.526 . S
C1060 H1044 0.959 . S
C1060 H1045 0.959 . S
C1060 H1046 0.961 . S
C1060 C1059 1.502 . S
C1061 H1047 0.960 . S
C1061 H1048 0.961 . S
C1061 H1049 0.959 . S
C1061 C1059 1.561 . S
C1062 C1059 1.526 . S
C1062 C1063 1.396 . S
C1062 C1067 1.390 . S
C1063 C1057 1.465 . S
C1063 C1062 1.396 . S
C1063 C1064 1.399 . S
C1064 H1050 0.929 . S
C1064 C1063 1.399 . S
C1064 C1065 1.385 . S
C1065 H1051 0.931 . S
C1065 C1064 1.385 . S
C1065 C1066 1.389 . S
C1066 C1065 1.389 . S
C1066 C1067 1.387 . S
C1067 H1052 0.930 . S
C1067 C1062 1.390 . S
C1067 C1066 1.387 . S
H1068 C1080 0.930 . S
H1069 C1082 0.930 . S
H1070 C1083 0.930 . S
H1071 C1087 0.959 . S
H1072 C1087 0.959 . S
H1073 C1087 0.961 . S
H1074 C1088 0.960 . S
H1075 C1088 0.961 . S
H1076 C1088 0.959 . S
H1077 C1091 0.929 . S
H1078 C1092 0.931 . S
H1079 C1094 0.930 . S
C1080 H1068 0.930 . S
C1080 C1081 1.399 . S
C1080 C1085 1.399 . S
C1081 C1080 1.399 . S
C1081 C1082 1.376 . S
C1082 H1069 0.930 . S
C1082 C1081 1.376 . S
C1082 C1083 1.388 . S
C1083 H1070 0.930 . S
C1083 C1082 1.388 . S
C1083 C1084 1.390 . S
C1084 C1083 1.390 . S
C1084 C1085 1.394 . S
C1084 C1090 1.465 . S
C1085 C1080 1.399 . S
C1085 C1084 1.394 . S
C1085 C1086 1.516 . S
C1086 C1085 1.516 . S
C1086 C1087 1.502 . S
C1086 C1088 1.561 . S
C1086 C1089 1.526 . S
C1087 H1071 0.959 . S
C1087 H1072 0.959 . S
C1087 H1073 0.961 . S
C1087 C1086 1.502 . S
C1088 H1074 0.960 . S
C1088 H1075 0.961 . S
C1088 H1076 0.959 . S
C1088 C1086 1.561 . S
C1089 C1086 1.526 . S
C1089 C1090 1.396 . S
C1089 C1094 1.390 . S
C1090 C1084 1.465 . S
C1090 C1089 1.396 . S
C1090 C1091 1.399 . S
C1091 H1077 0.929 . S
C1091 C1090 1.399 . S
C1091 C1092 1.385 . S
C1092 H1078 0.931 . S
C1092 C1091 1.385 . S
C1092 C1093 1.389 . S
C1093 C1092 1.389 . S
C1093 C1094 1.387 . S
C1094 H1079 0.930 . S
C1094 C1089 1.390 . S
C1094 C1093 1.387 . S
H1095 C1107 0.930 . S
H1096 C1109 0.930 . S
H1097 C1110 0.930 . S
H1098 C1114 0.959 . S
H1099 C1114 0.959 . S
H1100 C1114 0.961 . S
H1101 C1115 0.960 . S
H1102 C1115 0.961 . S
H1103 C1115 0.959 . S
H1104 C1118 0.929 . S
H1105 C1119 0.931 . S
H1106 C1121 0.930 . S
C1107 H1095 0.930 . S
C1107 C1108 1.399 . S
C1107 C1112 1.399 . S
C1108 C1107 1.399 . S
C1108 C1109 1.376 . S
C1109 H1096 0.930 . S
C1109 C1108 1.376 . S
C1109 C1110 1.388 . S
C1110 H1097 0.930 . S
C1110 C1109 1.388 . S
C1110 C1111 1.390 . S
C1111 C1110 1.390 . S
C1111 C1112 1.394 . S
C1111 C1117 1.465 . S
C1112 C1107 1.399 . S
C1112 C1111 1.394 . S
C1112 C1113 1.516 . S
C1113 C1112 1.516 . S
C1113 C1114 1.502 . S
C1113 C1115 1.561 . S
C1113 C1116 1.526 . S
C1114 H1098 0.959 . S
C1114 H1099 0.959 . S
C1114 H1100 0.961 . S
C1114 C1113 1.502 . S
C1115 H1101 0.960 . S
C1115 H1102 0.961 . S
C1115 H1103 0.959 . S
C1115 C1113 1.561 . S
C1116 C1113 1.526 . S
C1116 C1117 1.396 . S
C1116 C1121 1.390 . S
C1117 C1111 1.465 . S
C1117 C1116 1.396 . S
C1117 C1118 1.399 . S
C1118 H1104 0.929 . S
C1118 C1117 1.399 . S
C1118 C1119 1.385 . S
C1119 H1105 0.931 . S
C1119 C1118 1.385 . S
C1119 C1120 1.389 . S
C1120 C1119 1.389 . S
C1120 C1121 1.387 . S
C1121 H1106 0.930 . S
C1121 C1116 1.390 . S
C1121 C1120 1.387 . S
H1122 C1134 0.930 . S
H1123 C1136 0.930 . S
H1124 C1137 0.930 . S
H1125 C1141 0.959 . S
H1126 C1141 0.959 . S
H1127 C1141 0.961 . S
H1128 C1142 0.960 . S
H1129 C1142 0.961 . S
H1130 C1142 0.959 . S
H1131 C1145 0.929 . S
H1132 C1146 0.931 . S
H1133 C1148 0.930 . S
C1134 H1122 0.930 . S
C1134 C1135 1.399 . S
C1134 C1139 1.399 . S
C1135 C1134 1.399 . S
C1135 C1136 1.376 . S
C1136 H1123 0.930 . S
C1136 C1135 1.376 . S
C1136 C1137 1.388 . S
C1137 H1124 0.930 . S
C1137 C1136 1.388 . S
C1137 C1138 1.390 . S
C1138 C1137 1.390 . S
C1138 C1139 1.394 . S
C1138 C1144 1.465 . S
C1139 C1134 1.399 . S
C1139 C1138 1.394 . S
C1139 C1140 1.516 . S
C1140 C1139 1.516 . S
C1140 C1141 1.502 . S
C1140 C1142 1.561 . S
C1140 C1143 1.526 . S
C1141 H1125 0.959 . S
C1141 H1126 0.959 . S
C1141 H1127 0.961 . S
C1141 C1140 1.502 . S
C1142 H1128 0.960 . S
C1142 H1129 0.961 . S
C1142 H1130 0.959 . S
C1142 C1140 1.561 . S
C1143 C1140 1.526 . S
C1143 C1144 1.396 . S
C1143 C1148 1.390 . S
C1144 C1138 1.465 . S
C1144 C1143 1.396 . S
C1144 C1145 1.399 . S
C1145 H1131 0.929 . S
C1145 C1144 1.399 . S
C1145 C1146 1.385 . S
C1146 H1132 0.931 . S
C1146 C1145 1.385 . S
C1146 C1147 1.389 . S
C1147 C1146 1.389 . S
C1147 C1148 1.387 . S
C1148 H1133 0.930 . S
C1148 C1143 1.390 . S
C1148 C1147 1.387 . S
H1149 C1161 0.930 . S
H1150 C1163 0.930 . S
H1151 C1164 0.930 . S
H1152 C1168 0.959 . S
H1153 C1168 0.959 . S
H1154 C1168 0.961 . S
H1155 C1169 0.960 . S
H1156 C1169 0.961 . S
H1157 C1169 0.959 . S
H1158 C1172 0.929 . S
H1159 C1173 0.931 . S
H1160 C1175 0.930 . S
C1161 H1149 0.930 . S
C1161 C1162 1.399 . S
C1161 C1166 1.399 . S
C1162 C1161 1.399 . S
C1162 C1163 1.376 . S
C1163 H1150 0.930 . S
C1163 C1162 1.376 . S
C1163 C1164 1.388 . S
C1164 H1151 0.930 . S
C1164 C1163 1.388 . S
C1164 C1165 1.390 . S
C1165 C1164 1.390 . S
C1165 C1166 1.394 . S
C1165 C1171 1.465 . S
C1166 C1161 1.399 . S
C1166 C1165 1.394 . S
C1166 C1167 1.516 . S
C1167 C1166 1.516 . S
C1167 C1168 1.502 . S
C1167 C1169 1.561 . S
C1167 C1170 1.526 . S
C1168 H1152 0.959 . S
C1168 H1153 0.959 . S
C1168 H1154 0.961 . S
C1168 C1167 1.502 . S
C1169 H1155 0.960 . S
C1169 H1156 0.961 . S
C1169 H1157 0.959 . S
C1169 C1167 1.561 . S
C1170 C1167 1.526 . S
C1170 C1171 1.396 . S
C1170 C1175 1.390 . S
C1171 C1165 1.465 . S
C1171 C1170 1.396 . S
C1171 C1172 1.399 . S
C1172 H1158 0.929 . S
C1172 C1171 1.399 . S
C1172 C1173 1.385 . S
C1173 H1159 0.931 . S
C1173 C1172 1.385 . S
C1173 C1174 1.389 . S
C1174 C1173 1.389 . S
C1174 C1175 1.387 . S
C1175 H1160 0.930 . S
C1175 C1170 1.390 . S
C1175 C1174 1.387 . S
H1176 C1188 0.930 . S
H1177 C1190 0.930 . S
H1178 C1191 0.930 . S
H1179 C1195 0.959 . S
H1180 C1195 0.959 . S
H1181 C1195 0.961 . S
H1182 C1196 0.960 . S
H1183 C1196 0.961 . S
H1184 C1196 0.959 . S
H1185 C1199 0.929 . S
H1186 C1200 0.931 . S
H1187 C1202 0.930 . S
C1188 H1176 0.930 . S
C1188 C1189 1.399 . S
C1188 C1193 1.399 . S
C1189 C1188 1.399 . S
C1189 C1190 1.376 . S
C1190 H1177 0.930 . S
C1190 C1189 1.376 . S
C1190 C1191 1.388 . S
C1191 H1178 0.930 . S
C1191 C1190 1.388 . S
C1191 C1192 1.390 . S
C1192 C1191 1.390 . S
C1192 C1193 1.394 . S
C1192 C1198 1.465 . S
C1193 C1188 1.399 . S
C1193 C1192 1.394 . S
C1193 C1194 1.516 . S
C1194 C1193 1.516 . S
C1194 C1195 1.502 . S
C1194 C1196 1.561 . S
C1194 C1197 1.526 . S
C1195 H1179 0.959 . S
C1195 H1180 0.959 . S
C1195 H1181 0.961 . S
C1195 C1194 1.502 . S
C1196 H1182 0.960 . S
C1196 H1183 0.961 . S
C1196 H1184 0.959 . S
C1196 C1194 1.561 . S
C1197 C1194 1.526 . S
C1197 C1198 1.396 . S
C1197 C1202 1.390 . S
C1198 C1192 1.465 . S
C1198 C1197 1.396 . S
C1198 C1199 1.399 . S
C1199 H1185 0.929 . S
C1199 C1198 1.399 . S
C1199 C1200 1.385 . S
C1200 H1186 0.931 . S
C1200 C1199 1.385 . S
C1200 C1201 1.389 . S
C1201 C1200 1.389 . S
C1201 C1202 1.387 . S
C1202 H1187 0.930 . S
C1202 C1197 1.390 . S
C1202 C1201 1.387 . S
H1203 C1215 0.930 . S
H1204 C1217 0.930 . S
H1205 C1218 0.930 . S
H1206 C1222 0.959 . S
H1207 C1222 0.959 . S
H1208 C1222 0.961 . S
H1209 C1223 0.960 . S
H1210 C1223 0.961 . S
H1211 C1223 0.959 . S
H1212 C1226 0.929 . S
H1213 C1227 0.931 . S
H1214 C1229 0.930 . S
C1215 H1203 0.930 . S
C1215 C1216 1.399 . S
C1215 C1220 1.399 . S
C1216 C1215 1.399 . S
C1216 C1217 1.376 . S
C1217 H1204 0.930 . S
C1217 C1216 1.376 . S
C1217 C1218 1.388 . S
C1218 H1205 0.930 . S
C1218 C1217 1.388 . S
C1218 C1219 1.390 . S
C1219 C1218 1.390 . S
C1219 C1220 1.394 . S
C1219 C1225 1.465 . S
C1220 C1215 1.399 . S
C1220 C1219 1.394 . S
C1220 C1221 1.516 . S
C1221 C1220 1.516 . S
C1221 C1222 1.502 . S
C1221 C1223 1.561 . S
C1221 C1224 1.526 . S
C1222 H1206 0.959 . S
C1222 H1207 0.959 . S
C1222 H1208 0.961 . S
C1222 C1221 1.502 . S
C1223 H1209 0.960 . S
C1223 H1210 0.961 . S
C1223 H1211 0.959 . S
C1223 C1221 1.561 . S
C1224 C1221 1.526 . S
C1224 C1225 1.396 . S
C1224 C1229 1.390 . S
C1225 C1219 1.465 . S
C1225 C1224 1.396 . S
C1225 C1226 1.399 . S
C1226 H1212 0.929 . S
C1226 C1225 1.399 . S
C1226 C1227 1.385 . S
C1227 H1213 0.931 . S
C1227 C1226 1.385 . S
C1227 C1228 1.389 . S
C1228 C1227 1.389 . S
C1228 C1229 1.387 . S
C1229 H1214 0.930 . S
C1229 C1224 1.390 . S
C1229 C1228 1.387 . S
H1230 C1242 0.930 1_455 S
H1231 C1244 0.930 . S
H1232 C1245 0.930 . S
H1233 C1249 0.959 . S
H1234 C1249 0.959 . S
H1235 C1249 0.961 1_455 S
H1236 C1250 0.960 . S
H1237 C1250 0.961 . S
H1238 C1250 0.959 . S
H1239 C1253 0.929 . S
H1240 C1254 0.931 . S
H1241 C1256 0.930 . S
C1242 H1230 0.930 1_655 S
C1242 C1243 1.402 1_655 S
C1242 C1247 1.399 . S
C1243 C1242 1.402 1_455 S
C1243 C1244 1.369 1_455 S
C1244 H1231 0.930 . S
C1244 C1243 1.369 1_655 S
C1244 C1245 1.388 . S
C1245 H1232 0.930 . S
C1245 C1244 1.388 . S
C1245 C1246 1.390 . S
C1246 C1245 1.390 . S
C1246 C1247 1.394 . S
C1246 C1252 1.465 . S
C1247 C1242 1.399 . S
C1247 C1246 1.394 . S
C1247 C1248 1.516 . S
C1248 C1247 1.516 . S
C1248 C1249 1.502 . S
C1248 C1250 1.561 . S
C1248 C1251 1.526 . S
C1249 H1233 0.959 . S
C1249 H1234 0.959 . S
C1249 H1235 0.961 1_655 S
C1249 C1248 1.502 . S
C1250 H1236 0.960 . S
C1250 H1237 0.961 . S
C1250 H1238 0.959 . S
C1250 C1248 1.561 . S
C1251 C1248 1.526 . S
C1251 C1252 1.396 . S
C1251 C1256 1.390 . S
C1252 C1246 1.465 . S
C1252 C1251 1.396 . S
C1252 C1253 1.399 . S
C1253 H1239 0.929 . S
C1253 C1252 1.399 . S
C1253 C1254 1.385 . S
C1254 H1240 0.931 . S
C1254 C1253 1.385 . S
C1254 C1255 1.389 . S
C1255 C1254 1.389 . S
C1255 C1256 1.387 . S
C1256 H1241 0.930 . S
C1256 C1251 1.390 . S
C1256 C1255 1.387 . S
H1257 C1269 0.930 . S
H1258 C1271 0.930 . S
H1259 C1272 0.930 . S
H1260 C1276 0.959 . S
H1261 C1276 0.959 . S
H1262 C1276 0.961 . S
H1263 C1277 0.960 . S
H1264 C1277 0.961 . S
H1265 C1277 0.959 . S
H1266 C1280 0.929 . S
H1267 C1281 0.931 . S
H1268 C1283 0.930 . S
C1269 H1257 0.930 . S
C1269 C1270 1.399 . S
C1269 C1274 1.399 . S
C1270 C1269 1.399 . S
C1270 C1271 1.376 . S
C1271 H1258 0.930 . S
C1271 C1270 1.376 . S
C1271 C1272 1.388 . S
C1272 H1259 0.930 . S
C1272 C1271 1.388 . S
C1272 C1273 1.390 . S
C1273 C1272 1.390 . S
C1273 C1274 1.394 . S
C1273 C1279 1.465 . S
C1274 C1269 1.399 . S
C1274 C1273 1.394 . S
C1274 C1275 1.516 . S
C1275 C1274 1.516 . S
C1275 C1276 1.502 . S
C1275 C1277 1.561 . S
C1275 C1278 1.526 . S
C1276 H1260 0.959 . S
C1276 H1261 0.959 . S
C1276 H1262 0.961 . S
C1276 C1275 1.502 . S
C1277 H1263 0.960 . S
C1277 H1264 0.961 . S
C1277 H1265 0.959 . S
C1277 C1275 1.561 . S
C1278 C1275 1.526 . S
C1278 C1279 1.396 . S
C1278 C1283 1.390 . S
C1279 C1273 1.465 . S
C1279 C1278 1.396 . S
C1279 C1280 1.399 . S
C1280 H1266 0.929 . S
C1280 C1279 1.399 . S
C1280 C1281 1.385 . S
C1281 H1267 0.931 . S
C1281 C1280 1.385 . S
C1281 C1282 1.389 . S
C1282 C1281 1.389 . S
C1282 C1283 1.387 . S
C1283 H1268 0.930 . S
C1283 C1278 1.390 . S
C1283 C1282 1.387 . S
H1284 C1296 0.930 . S
H1285 C1298 0.930 . S
H1286 C1299 0.930 . S
H1287 C1303 0.959 . S
H1288 C1303 0.959 . S
H1289 C1303 0.961 . S
H1290 C1304 0.960 . S
H1291 C1304 0.961 . S
H1292 C1304 0.959 . S
H1293 C1307 0.929 . S
H1294 C1308 0.931 . S
H1295 C1310 0.930 . S
C1296 H1284 0.930 . S
C1296 C1297 1.399 . S
C1296 C1301 1.399 . S
C1297 C1296 1.399 . S
C1297 C1298 1.376 . S
C1298 H1285 0.930 . S
C1298 C1297 1.376 . S
C1298 C1299 1.388 . S
C1299 H1286 0.930 . S
C1299 C1298 1.388 . S
C1299 C1300 1.390 . S
C1300 C1299 1.390 . S
C1300 C1301 1.394 . S
C1300 C1306 1.465 . S
C1301 C1296 1.399 . S
C1301 C1300 1.394 . S
C1301 C1302 1.516 . S
C1302 C1301 1.516 . S
C1302 C1303 1.502 . S
C1302 C1304 1.561 . S
C1302 C1305 1.526 . S
C1303 H1287 0.959 . S
C1303 H1288 0.959 . S
C1303 H1289 0.961 . S
C1303 C1302 1.502 . S
C1304 H1290 0.960 . S
C1304 H1291 0.961 . S
C1304 H1292 0.959 . S
C1304 C1302 1.561 . S
C1305 C1302 1.526 . S
C1305 C1306 1.396 . S
C1305 C1310 1.390 . S
C1306 C1300 1.465 . S
C1306 C1305 1.396 . S
C1306 C1307 1.399 . S
C1307 H1293 0.929 . S
C1307 C1306 1.399 . S
C1307 C1308 1.385 . S
C1308 H1294 0.931 . S
C1308 C1307 1.385 . S
C1308 C1309 1.389 . S
C1309 C1308 1.389 . S
C1309 C1310 1.387 . S
C1310 H1295 0.930 . S
C1310 C1305 1.390 . S
C1310 C1309 1.387 . S
H1311 C1323 0.930 . S
H1312 C1325 0.930 . S
H1313 C1326 0.930 . S
H1314 C1330 0.959 . S
H1315 C1330 0.959 . S
H1316 C1330 0.961 . S
H1317 C1331 0.960 . S
H1318 C1331 0.961 . S
H1319 C1331 0.959 . S
H1320 C1334 0.929 . S
H1321 C1335 0.931 . S
H1322 C1337 0.930 . S
C1323 H1311 0.930 . S
C1323 C1324 1.399 . S
C1323 C1328 1.399 . S
C1324 C1323 1.399 . S
C1324 C1325 1.376 . S
C1325 H1312 0.930 . S
C1325 C1324 1.376 . S
C1325 C1326 1.388 . S
C1326 H1313 0.930 . S
C1326 C1325 1.388 . S
C1326 C1327 1.390 . S
C1327 C1326 1.390 . S
C1327 C1328 1.394 . S
C1327 C1333 1.465 . S
C1328 C1323 1.399 . S
C1328 C1327 1.394 . S
C1328 C1329 1.516 . S
C1329 C1328 1.516 . S
C1329 C1330 1.502 . S
C1329 C1331 1.561 . S
C1329 C1332 1.526 . S
C1330 H1314 0.959 . S
C1330 H1315 0.959 . S
C1330 H1316 0.961 . S
C1330 C1329 1.502 . S
C1331 H1317 0.960 . S
C1331 H1318 0.961 . S
C1331 H1319 0.959 . S
C1331 C1329 1.561 . S
C1332 C1329 1.526 . S
C1332 C1333 1.396 . S
C1332 C1337 1.390 . S
C1333 C1327 1.465 . S
C1333 C1332 1.396 . S
C1333 C1334 1.399 . S
C1334 H1320 0.929 . S
C1334 C1333 1.399 . S
C1334 C1335 1.385 . S
C1335 H1321 0.931 . S
C1335 C1334 1.385 . S
C1335 C1336 1.389 . S
C1336 C1335 1.389 . S
C1336 C1337 1.387 . S
C1337 H1322 0.930 . S
C1337 C1332 1.390 . S
C1337 C1336 1.387 . S
C703 C39 1.750 . S
C715 C371 1.636 . S
C730 C91 1.757 . S
C742 C415 1.719 . S
C769 C495 1.428 . S
C757 C128 1.498 . S
C796 C539 1.444 . S
C784 C188 1.515 1_655 S
C823 C619 1.591 . S
C811 C250 1.672 . S
C850 C675 1.804 . S
C838 C304 1.908 . S
C865 C75 1.869 . S
C877 C471 1.707 . S
C892 C144 1.744 . S
C904 C551 1.646 . S
C931 C595 1.636 . S
C919 C198 1.861 . S
C958 C663 1.495 . S
C946 C234 1.496 . S
C973 C294 1.500 . S
C985 C347 1.426 . S
C1012 C427 1.598 . S
C1000 C29 1.666 . S
C1039 C533 1.830 . S
C1027 C38 1.908 1_556 S
C1054 C92 1.725 . S
C1066 C613 1.515 . S
C1093 C681 1.523 . S
C1081 C135 1.538 . S
C1108 C181 1.675 . S
C1120 C365 1.533 . S
C1135 C251 1.600 . S
C1147 C409 1.550 . S
C1162 C303 1.941 . S
C1174 C489 1.778 . S
C1189 C82 1.846 . S
C1201 C657 1.643 . S
C1228 C353 1.726 . S
C1216 C145 1.784 . S
C1243 C197 1.659 . S
C1255 C433 1.627 . S
C1270 C241 1.444 . S
C1282 C477 1.437 . S
C1297 C287 1.602 . S
C1309 C557 1.592 . S
C1324 C22 1.520 . S
C1336 C601 1.484 . S
