# Generated by pormake.
# Topology zzz, (3,6)-cn, num edge types: 1
# Building blocks:
#     Node 0, Type 0, BuildingBlock: BELTOD_clean_linker_0, # of connection points: 3
#     Node 1, Type 0, BuildingBlock: BELTOD_clean_linker_0, # of connection points: 3
#     Node 2, Type 0, BuildingBlock: BELTOD_clean_linker_0, # of connection points: 3
#     Node 3, Type 0, BuildingBlock: BELTOD_clean_linker_0, # of connection points: 3
#     Node 4, Type 0, BuildingBlock: BELTOD_clean_linker_0, # of connection points: 3
#     Node 5, Type 0, BuildingBlock: BELTOD_clean_linker_0, # of connection points: 3
#     Node 6, Type 0, BuildingBlock: BELTOD_clean_linker_0, # of connection points: 3
#     Node 7, Type 0, BuildingBlock: BELTOD_clean_linker_0, # of connection points: 3
#     Node 8, Type 1, BuildingBlock: PAMTUU_clean_sbu_0, # of connection points: 6
#     Node 9, Type 1, BuildingBlock: PAMTUU_clean_sbu_0, # of connection points: 6
#     Node 10, Type 1, BuildingBlock: PAMTUU_clean_sbu_0, # of connection points: 6
#     Node 11, Type 1, BuildingBlock: PAMTUU_clean_sbu_0, # of connection points: 6
#     Edge 12, Type (0, 1), BuildingBlock: XUDNAN_clean_linker_2, # of connection points: 2
#     Edge 13, Type (0, 1), BuildingBlock: XUDNAN_clean_linker_2, # of connection points: 2
#     Edge 14, Type (0, 1), BuildingBlock: XUDNAN_clean_linker_2, # of connection points: 2
#     Edge 15, Type (0, 1), BuildingBlock: XUDNAN_clean_linker_2, # of connection points: 2
#     Edge 16, Type (0, 1), BuildingBlock: XUDNAN_clean_linker_2, # of connection points: 2
#     Edge 17, Type (0, 1), BuildingBlock: XUDNAN_clean_linker_2, # of connection points: 2
#     Edge 18, Type (0, 1), BuildingBlock: XUDNAN_clean_linker_2, # of connection points: 2
#     Edge 19, Type (0, 1), BuildingBlock: XUDNAN_clean_linker_2, # of connection points: 2
#     Edge 20, Type (0, 1), BuildingBlock: XUDNAN_clean_linker_2, # of connection points: 2
#     Edge 21, Type (0, 1), BuildingBlock: XUDNAN_clean_linker_2, # of connection points: 2
#     Edge 22, Type (0, 1), BuildingBlock: XUDNAN_clean_linker_2, # of connection points: 2
#     Edge 23, Type (0, 1), BuildingBlock: XUDNAN_clean_linker_2, # of connection points: 2
#     Edge 24, Type (0, 1), BuildingBlock: XUDNAN_clean_linker_2, # of connection points: 2
#     Edge 25, Type (0, 1), BuildingBlock: XUDNAN_clean_linker_2, # of connection points: 2
#     Edge 26, Type (0, 1), BuildingBlock: XUDNAN_clean_linker_2, # of connection points: 2
#     Edge 27, Type (0, 1), BuildingBlock: XUDNAN_clean_linker_2, # of connection points: 2
#     Edge 28, Type (0, 1), BuildingBlock: XUDNAN_clean_linker_2, # of connection points: 2
#     Edge 29, Type (0, 1), BuildingBlock: XUDNAN_clean_linker_2, # of connection points: 2
#     Edge 30, Type (0, 1), BuildingBlock: XUDNAN_clean_linker_2, # of connection points: 2
#     Edge 31, Type (0, 1), BuildingBlock: XUDNAN_clean_linker_2, # of connection points: 2
#     Edge 32, Type (0, 1), BuildingBlock: XUDNAN_clean_linker_2, # of connection points: 2
#     Edge 33, Type (0, 1), BuildingBlock: XUDNAN_clean_linker_2, # of connection points: 2
#     Edge 34, Type (0, 1), BuildingBlock: XUDNAN_clean_linker_2, # of connection points: 2
#     Edge 35, Type (0, 1), BuildingBlock: XUDNAN_clean_linker_2, # of connection points: 2
# Relax obj value: 0.367
# Max RMSD: 0.265
# Mean RMSD: 0.210
data_MOF--net-zzz--node1-PAMTUU_clean_sbu_0--node2-BELTOD_clean_linker_0--edge1-XUDNAN_clean_linker_2
_symmetry_space_group_name_H-M    P1
_symmetry_Int_Tables_number       1
_symmetry_cell_setting            triclinic
loop_
_symmetry_equiv_pos_as_xyz
'x, y, z'
_cell_length_a     54.26028
_cell_length_b     57.606036
_cell_length_c     19.250208
_cell_angle_alpha  99.347717
_cell_angle_beta   89.940437
_cell_angle_gamma 89.782655
loop_
_atom_site_label
_atom_site_type_symbol
_atom_site_fract_x
_atom_site_fract_y
_atom_site_fract_z
_atom_type_partial_charge
P0 P 0.73142 0.47133 0.399 0.0
H1 H 0.73428 0.49956 0.54013 0.0
H2 H 0.76948 0.51115 0.61659 0.0
H3 H 0.81875 0.49024 0.4408 0.0
H4 H 0.78358 0.48028 0.36434 0.0
H5 H 0.68063 0.46011 0.36255 0.0
H6 H 0.65311 0.47096 0.2737 0.0
H7 H 0.70605 0.5222 0.2274 0.0
H8 H 0.73394 0.51073 0.31659 0.0
H9 H 0.74779 0.42424 0.41754 0.0
H10 H 0.74885 0.46714 0.25377 0.0
O11 O 0.71547 0.45942 0.45848 0.0
H12 H 0.77558 0.39606 0.34829 0.0
H13 H 0.77754 0.44024 0.18667 0.0
C14 C 0.75605 0.48847 0.44649 0.0
C15 C 0.7526 0.49828 0.51741 0.0
C16 C 0.77292 0.50452 0.56153 0.0
C17 C 0.79727 0.50081 0.53599 0.0
C18 C 0.80049 0.49326 0.46318 0.0
C19 C 0.78013 0.48738 0.41896 0.0
C20 C 0.70926 0.48486 0.34734 0.0
C21 C 0.68608 0.47424 0.33503 0.0
C22 C 0.67023 0.48049 0.28381 0.0
C23 C 0.67722 0.49743 0.24268 0.0
C24 C 0.70008 0.50887 0.25734 0.0
C25 C 0.71598 0.50258 0.30903 0.0
C26 C 0.74607 0.4477 0.34063 0.0
C27 C 0.75347 0.42729 0.36586 0.0
C28 C 0.76962 0.41132 0.32645 0.0
C29 C 0.77919 0.41588 0.26199 0.0
C30 C 0.77037 0.43568 0.23515 0.0
C31 C 0.75389 0.45132 0.27391 0.0
P32 P 0.04304 0.73877 0.4274 0.0
H33 H 0.03815 0.75232 0.58026 0.0
H34 H 0.0173 0.78594 0.64959 0.0
H35 H 0.97985 0.79977 0.46249 0.0
H36 H 1.00024 0.76583 0.39407 0.0
H37 H 0.06738 0.69973 0.34102 0.0
H38 H 0.05255 0.66625 0.2575 0.0
H39 H 0.97745 0.68893 0.3034 0.0
H40 H 0.99247 0.72243 0.38724 0.0
H41 H 0.08176 0.7736 0.45867 0.0
H42 H 0.03205 0.74995 0.28745 0.0
O43 O 0.06482 0.72955 0.47783 0.0
H44 H 0.0927 0.80762 0.40422 0.0
H45 H 0.04237 0.78418 0.23353 0.0
C46 C 0.02081 0.75655 0.48188 0.0
C47 C 0.02469 0.76196 0.55465 0.0
C48 C 0.01292 0.78137 0.59418 0.0
C49 C 0.99729 0.79583 0.56133 0.0
C50 C 0.99164 0.78898 0.48968 0.0
C51 C 1.00333 0.76949 0.45033 0.0
C52 C 0.03106 0.7135 0.37044 0.0
C53 C 0.0477 0.69734 0.33372 0.0
C54 C 0.0392 0.67815 0.28625 0.0
C55 C 0.01382 0.67489 0.27409 0.0
C56 C 0.99712 0.69108 0.3114 0.0
C57 C 1.00569 0.71023 0.35942 0.0
C58 C 0.05646 0.75903 0.37649 0.0
C59 C 0.07382 0.77532 0.40814 0.0
C60 C 0.07979 0.79493 0.37743 0.0
C61 C 0.0682 0.79876 0.31491 0.0
C62 C 0.05186 0.78165 0.28122 0.0
C63 C 0.04597 0.762 0.31196 0.0
P64 P 0.80227 0.03659 0.44322 0.0
H65 H 0.79427 0.03009 0.58882 0.0
H66 H 0.7579 0.02 0.64946 0.0
H67 H 0.7222 0.99682 0.44958 0.0
H68 H 0.75878 0.0083 0.38889 0.0
H69 H 0.85314 0.04763 0.41522 0.0
H70 H 0.88083 0.03506 0.31694 0.0
H71 H 0.82828 0.98232 0.22874 0.0
H72 H 0.80047 0.99498 0.32878 0.0
H73 H 0.77714 0.08045 0.49886 0.0
H74 H 0.78475 0.03507 0.29816 0.0
O75 O 0.81813 0.05288 0.50764 0.0
H76 H 0.74364 0.10174 0.45057 0.0
H77 H 0.75137 0.05608 0.25083 0.0
C78 C 0.77959 0.01988 0.48392 0.0
C79 C 0.779 0.02218 0.55753 0.0
C80 C 0.75787 0.01631 0.59254 0.0
C81 C 0.73661 0.00763 0.55506 0.0
C82 C 0.73785 0.00384 0.48079 0.0
C83 C 0.75907 0.00996 0.44571 0.0
C84 C 0.82468 0.02215 0.38016 0.0
C85 C 0.84779 0.0328 0.37623 0.0
C86 C 0.86374 0.02558 0.31962 0.0
C87 C 0.85684 0.00774 0.26447 0.0
C88 C 0.83414 0.99625 0.27005 0.0
C89 C 0.81827 0.00332 0.32757 0.0
C90 C 0.78377 0.05638 0.40191 0.0
C91 C 0.77236 0.07567 0.4438 0.0
C92 C 0.75326 0.0878 0.41642 0.0
C93 C 0.74526 0.0805 0.34719 0.0
C94 C 0.75756 0.06208 0.30422 0.0
C95 C 0.7767 0.0501 0.33136 0.0
P96 P 0.50327 0.77723 0.20707 0.0
H97 H 0.49109 0.75719 0.33149 0.0
H98 H 0.51203 0.72797 0.38786 0.0
H99 H 0.57721 0.7351 0.26363 0.0
H100 H 0.55549 0.76386 0.20523 0.0
H101 H 0.49609 0.79652 0.07796 0.0
H102 H 0.51019 0.83253 0.03994 0.0
H103 H 0.55532 0.84784 0.22654 0.0
H104 H 0.5407 0.81172 0.26479 0.0
H105 H 0.46275 0.74408 0.19421 0.0
H106 H 0.52724 0.75638 0.07479 0.0
O107 O 0.47781 0.78802 0.24937 0.0
H108 H 0.45592 0.70692 0.1168 0.0
H109 H 0.52 0.71956 0.99457 0.0
C110 C 0.52188 0.76306 0.26516 0.0
C111 C 0.51021 0.75318 0.31828 0.0
C112 C 0.52229 0.73636 0.35058 0.0
C113 C 0.54634 0.72896 0.33013 0.0
C114 C 0.55858 0.7401 0.28003 0.0
C115 C 0.54634 0.75685 0.24733 0.0
C116 C 0.51787 0.8011 0.1732 0.0
C117 C 0.50958 0.80724 0.10971 0.0
C118 C 0.51769 0.8279 0.08801 0.0
C119 C 0.53401 0.84308 0.12998 0.0
C120 C 0.54267 0.83661 0.19311 0.0
C121 C 0.53454 0.81585 0.21469 0.0
C122 C 0.49506 0.75332 0.13902 0.0
C123 C 0.4749 0.7392 0.14952 0.0
C124 C 0.47103 0.71787 0.10499 0.0
C125 C 0.48735 0.71016 0.04901 0.0
C126 C 0.50717 0.72479 0.03743 0.0
C127 C 0.51113 0.74606 0.08257 0.0
P128 P 0.29023 0.46398 0.15926 0.0
H129 H 0.2831 0.4707 0.01287 0.0
H130 H 0.24556 0.47855 0.95117 0.0
H131 H 0.20906 0.50111 0.14987 0.0
H132 H 0.24698 0.49334 0.21195 0.0
H133 H 0.34002 0.44902 0.18453 0.0
H134 H 0.37043 0.46244 0.27482 0.0
H135 H 0.32473 0.52267 0.35136 0.0
H136 H 0.2939 0.50888 0.26013 0.0
H137 H 0.24625 0.43574 0.1276 0.0
H138 H 0.29363 0.45557 0.30735 0.0
O139 O 0.30318 0.44445 0.09608 0.0
H140 H 0.21426 0.42492 0.2043 0.0
H141 H 0.26224 0.44351 0.38382 0.0
C142 C 0.268 0.48111 0.11737 0.0
C143 C 0.26748 0.4783 0.04359 0.0
C144 C 0.2458 0.48259 0.00812 0.0
C145 C 0.22406 0.48991 0.04549 0.0
C146 C 0.22541 0.49545 0.11938 0.0
C147 C 0.24724 0.49115 0.155 0.0
C148 C 0.31488 0.47826 0.21388 0.0
C149 C 0.33672 0.4655 0.21923 0.0
C150 C 0.35401 0.47298 0.27188 0.0
C151 C 0.34998 0.4935 0.32093 0.0
C152 C 0.32848 0.50683 0.31417 0.0
C153 C 0.31093 0.49911 0.2616 0.0
C154 C 0.27183 0.44755 0.21196 0.0
C155 C 0.25015 0.43691 0.18325 0.0
C156 C 0.23189 0.43047 0.22734 0.0
C157 C 0.23537 0.4341 0.30073 0.0
C158 C 0.25868 0.44131 0.32778 0.0
C159 C 0.27671 0.44824 0.2838 0.0
P160 P 0.08183 0.27069 0.20966 0.0
H161 H 0.10845 0.25908 0.07595 0.0
H162 H 0.10292 0.22612 0.9804 0.0
H163 H 0.0312 0.21289 0.06311 0.0
H164 H 0.03651 0.24639 0.15695 0.0
H165 H 0.1022 0.31272 0.29256 0.0
H166 H 0.08249 0.34736 0.35853 0.0
H167 H 0.01347 0.32706 0.25499 0.0
H168 H 0.03359 0.29221 0.188 0.0
H169 H 0.09643 0.22383 0.23128 0.0
H170 H 0.04338 0.27638 0.32089 0.0
O171 O 0.11253 0.27203 0.21389 0.0
H172 H 0.07598 0.19488 0.29155 0.0
H173 H 0.02293 0.24758 0.37967 0.0
C174 C 0.07311 0.25494 0.12446 0.0
C175 C 0.09108 0.24978 0.07184 0.0
C176 C 0.08799 0.23071 0.01753 0.0
C177 C 0.06696 0.21636 0.01537 0.0
C178 C 0.04767 0.22346 0.06311 0.0
C179 C 0.05069 0.24271 0.11701 0.0
C180 C 0.06943 0.29992 0.23496 0.0
C181 C 0.0831 0.31619 0.28149 0.0
C182 C 0.07175 0.33606 0.31948 0.0
C183 C 0.04634 0.33985 0.31256 0.0
C184 C 0.03305 0.32449 0.2618 0.0
C185 C 0.04458 0.30471 0.22289 0.0
C186 C 0.07146 0.25227 0.27098 0.0
C187 C 0.08091 0.22936 0.26553 0.0
C188 C 0.06919 0.21282 0.29974 0.0
C189 C 0.0477 0.21899 0.33929 0.0
C190 C 0.03927 0.24234 0.34854 0.0
C191 C 0.05108 0.25887 0.31484 0.0
P192 P 0.2549 0.04871 0.25922 0.0
H193 H 0.27524 0.06956 0.14208 0.0
H194 H 0.30848 0.05691 0.05915 0.0
H195 H 0.30809 0.98842 0.12277 0.0
H196 H 0.27463 0.00122 0.20565 0.0
H197 H 0.21093 0.07438 0.31465 0.0
H198 H 0.1742 0.06216 0.3715 0.0
H199 H 0.19374 0.98942 0.30233 0.0
H200 H 0.23106 0.00182 0.24597 0.0
H201 H 0.30803 0.04743 0.28149 0.0
H202 H 0.24239 0.03759 0.40047 0.0
O203 O 0.25433 0.0779 0.26386 0.0
H204 H 0.33286 0.03151 0.36739 0.0
H205 H 0.2673 0.02234 0.48778 0.0
C206 C 0.27199 0.03632 0.18006 0.0
C207 C 0.28164 0.05155 0.13679 0.0
C208 C 0.30108 0.04439 0.08991 0.0
C209 C 0.31146 0.02174 0.08478 0.0
C210 C 0.30061 0.00596 0.12469 0.0
C211 C 0.28115 0.01318 0.17179 0.0
C212 C 0.22373 0.03908 0.27431 0.0
C213 C 0.20703 0.05577 0.30918 0.0
C214 C 0.18614 0.04876 0.343 0.0
C215 C 0.18119 0.02483 0.3425 0.0
C216 C 0.197 0.00802 0.30364 0.0
C217 C 0.21821 0.01509 0.27048 0.0
C218 C 0.27321 0.04253 0.33211 0.0
C219 C 0.29894 0.04216 0.3265 0.0
C220 C 0.31319 0.03331 0.3764 0.0
C221 C 0.30197 0.0252 0.43383 0.0
C222 C 0.27638 0.02782 0.44304 0.0
C223 C 0.26211 0.03653 0.39273 0.0
P224 P 0.43947 0.23455 0.40937 0.0
H225 H 0.40989 0.2385 0.28459 0.0
H226 H 0.41769 0.25864 0.18462 0.0
H227 H 0.49392 0.26771 0.24677 0.0
H228 H 0.48618 0.24712 0.34593 0.0
H229 H 0.40978 0.20003 0.46612 0.0
H230 H 0.41834 0.16102 0.49327 0.0
H231 H 0.49219 0.16413 0.41194 0.0
H232 H 0.48319 0.20325 0.38191 0.0
H233 H 0.4236 0.27978 0.48694 0.0
H234 H 0.4897 0.23733 0.46922 0.0
O235 O 0.40918 0.23902 0.42061 0.0
H236 H 0.44652 0.31284 0.55085 0.0
H237 H 0.51288 0.27077 0.53097 0.0
C238 C 0.44728 0.24174 0.32403 0.0
C239 C 0.42847 0.24417 0.27576 0.0
C240 C 0.43295 0.25574 0.21846 0.0
C241 C 0.45632 0.26519 0.20866 0.0
C242 C 0.47561 0.26102 0.2538 0.0
C243 C 0.47118 0.24915 0.31051 0.0
C244 C 0.44583 0.20467 0.42184 0.0
C245 C 0.42772 0.1923 0.45269 0.0
C246 C 0.43259 0.1699 0.46825 0.0
C247 C 0.4559 0.15951 0.45464 0.0
C248 C 0.47407 0.17179 0.42316 0.0
C249 C 0.46896 0.19412 0.40611 0.0
C250 C 0.45483 0.25593 0.47352 0.0
C251 C 0.44284 0.27726 0.49866 0.0
C252 C 0.45596 0.2962 0.5351 0.0
C253 C 0.48144 0.29431 0.54549 0.0
C254 C 0.49322 0.27261 0.52352 0.0
C255 C 0.47993 0.25347 0.48846 0.0
Tb256 Tb 0.99456 0.01648 0.73396 0.0
Tb257 Tb 0.03613 0.99946 0.83988 0.0
C258 C 0.98022 0.00717 0.88653 0.0
C259 C 0.96805 0.04798 0.6011 0.0
C260 C 0.97721 0.08449 0.5235 0.0
C261 C 0.95489 0.08373 0.56033 0.0
C262 C 0.95035 0.06559 0.59867 0.0
C263 C 0.98998 0.04819 0.56244 0.0
C264 C 0.99443 0.06617 0.52354 0.0
C265 C 0.96483 0.03139 0.6508 0.0
O266 O 0.01839 0.04681 0.7637 0.0
O267 O 0.03486 0.03747 0.8657 0.0
O268 O 0.05687 0.00983 0.75202 0.0
O269 O 0.02624 0.00327 0.66935 0.0
O270 O 0.05292 0.00311 0.93899 0.0
O271 O 0.06566 0.97681 0.85362 0.0
O272 O 0.02288 0.96819 0.77181 0.0
O273 O 0.98465 0.98056 0.74219 0.0
O274 O 0.97668 0.01971 0.83614 0.0
O275 O 1.00079 0.9954 0.89184 0.0
C276 C 0.03024 0.05261 0.82334 0.0
O277 O 0.97647 0.01133 0.63626 0.0
O278 O 0.96717 0.0407 0.71677 0.0
C279 C 0.04964 0.00612 0.68591 0.0
C280 C 0.06693 0.96685 0.96813 0.0
C281 C 0.06854 0.93335 0.05997 0.0
C282 C 0.08491 0.9317 1.00274 0.0
C283 C 0.08419 0.94839 0.95749 0.0
C284 C 0.05021 0.96821 0.02456 0.0
C285 C 0.0511 0.95168 0.07014 0.0
C286 C 0.06692 0.98468 0.92093 0.0
C287 C 1.00042 0.96368 0.74811 0.0
H288 H 0.94137 0.0977 0.56222 0.0
H289 H 0.93347 0.06586 0.62892 0.0
H290 H 1.00407 0.03491 0.56408 0.0
H291 H 0.0116 0.06599 0.49476 0.0
H292 H 0.09864 0.91783 0.99396 0.0
H293 H 0.09728 0.947 0.91445 0.0
H294 H 0.03652 0.9821 0.03392 0.0
H295 H 0.03804 0.95318 0.11328 0.0
Tb296 Tb 0.51828 0.98351 0.74622 0.0
Tb297 Tb 0.52612 0.03092 0.86104 0.0
C298 C 0.5381 0.9807 0.8956 0.0
C299 C 0.48601 0.93709 0.63311 0.0
C300 C 0.437 0.93672 0.58831 0.0
C301 C 0.45621 0.93736 0.53978 0.0
C302 C 0.48065 0.93739 0.56201 0.0
C303 C 0.46682 0.9331 0.67907 0.0
C304 C 0.44239 0.93289 0.65662 0.0
C305 C 0.50986 0.94632 0.66146 0.0
O306 O 0.48584 0.98645 0.81508 0.0
O307 O 0.48619 0.02607 0.85711 0.0
O308 O 0.51937 0.0419 0.75979 0.0
O309 O 0.49674 0.01058 0.70705 0.0
O310 O 0.51966 0.05093 0.96073 0.0
O311 O 0.54168 0.06458 0.8835 0.0
O312 O 0.56289 0.01753 0.82858 0.0
O313 O 0.55287 0.99898 0.71803 0.0
O314 O 0.54151 0.97363 0.82812 0.0
O315 O 0.52871 0.00153 0.91921 0.0
C316 C 0.47479 0.00567 0.84712 0.0
O317 O 0.51666 0.96598 0.64175 0.0
O318 O 0.51314 0.94695 0.72879 0.0
C319 C 0.50377 0.03253 0.71131 0.0
C320 C 0.55357 0.07426 1.00103 0.0
C321 C 0.59167 0.08696 0.0984 0.0
C322 C 0.57288 0.10314 0.08989 0.0
C323 C 0.55391 0.09679 0.04145 0.0
C324 C 0.5722 0.05806 0.00943 0.0
C325 C 0.59111 0.06436 0.05757 0.0
C326 C 0.53425 0.06774 0.9487 0.0
C327 C 0.56932 0.00867 0.76366 0.0
H328 H 0.45228 0.94024 0.48665 0.0
H329 H 0.49513 0.94021 0.52553 0.0
H330 H 0.47034 0.93253 0.73414 0.0
H331 H 0.42778 0.93246 0.69481 0.0
H332 H 0.57279 0.12061 0.12085 0.0
H333 H 0.53961 0.10947 0.03526 0.0
H334 H 0.57224 0.04063 0.97812 0.0
H335 H 0.60557 0.05166 0.06176 0.0
Tb336 Tb 0.49645 0.49041 0.83001 0.0
Tb337 Tb 0.53521 0.51006 0.72197 0.0
C338 C 0.47959 0.50582 0.68635 0.0
C339 C 0.46772 0.4477 0.93029 0.0
C340 C 0.4677 0.40221 0.96783 0.0
C341 C 0.44658 0.41111 0.93881 0.0
C342 C 0.44659 0.43361 0.9205 0.0
C343 C 0.48891 0.43891 0.95929 0.0
C344 C 0.48883 0.41643 0.97839 0.0
C345 C 0.46758 0.47064 0.90526 0.0
O346 O 0.52015 0.46151 0.78842 0.0
O347 O 0.52897 0.4727 0.68276 0.0
O348 O 0.5573 0.49581 0.79896 0.0
O349 O 0.53001 0.50098 0.89096 0.0
O350 O 0.54703 0.5112 0.61872 0.0
O351 O 0.56729 0.52907 0.70794 0.0
O352 O 0.52423 0.54034 0.79966 0.0
O353 O 0.48739 0.52742 0.8394 0.0
O354 O 0.47811 0.48967 0.72745 0.0
O355 O 0.49893 0.51947 0.6882 0.0
C356 C 0.52601 0.45624 0.72197 0.0
O357 O 0.48397 0.48619 0.93096 0.0
O358 O 0.46537 0.4694 0.83751 0.0
C359 C 0.55279 0.49875 0.86684 0.0
C360 C 0.5669 0.54647 0.60559 0.0
C361 C 0.57075 0.58602 0.53703 0.0
C362 C 0.5903 0.56978 0.5346 0.0
C363 C 0.58836 0.55018 0.56853 0.0
C364 C 0.54745 0.56274 0.60929 0.0
C365 C 0.54935 0.58236 0.57524 0.0
C366 C 0.56507 0.52551 0.63965 0.0
C367 C 0.50286 0.54437 0.83209 0.0
H368 H 0.42992 0.40072 0.93078 0.0
H369 H 0.4301 0.43993 0.89775 0.0
H370 H 0.50562 0.44926 0.96637 0.0
H371 H 0.50543 0.40999 1.0001 0.0
H372 H 0.60717 0.57224 0.50663 0.0
H373 H 0.6036 0.53785 0.56558 0.0
H374 H 0.53074 0.56012 0.63788 0.0
H375 H 0.53384 0.59434 0.57753 0.0
Tb376 Tb 0.0151 0.51456 0.75994 0.0
Tb377 Tb 0.99917 0.48144 0.8735 0.0
C378 C 0.9994 0.53609 0.90933 0.0
C379 C 0.05406 0.53073 0.62521 0.0
C380 C 0.09312 0.50658 0.54857 0.0
C381 C 0.07155 0.51193 0.51397 0.0
C382 C 0.0522 0.52402 0.552 0.0
C383 C 0.07637 0.52693 0.65885 0.0
C384 C 0.09575 0.51504 0.62077 0.0
C385 C 0.03143 0.53629 0.66695 0.0
O386 O 0.04756 0.51289 0.82732 0.0
O387 O 0.039 0.47769 0.86211 0.0
O388 O 0.99343 0.46122 0.76931 0.0
O389 O 0.02491 0.47834 0.71895 0.0
O390 O 0.98327 0.4782 0.97055 0.0
O391 O 1.00118 0.44848 0.90698 0.0
O392 O 0.96375 0.49261 0.83619 0.0
O393 O 0.97589 0.50826 0.73847 0.0
O394 O 0.99565 0.53712 0.84278 0.0
O395 O 1.00762 0.51668 0.92897 0.0
C396 C 0.05461 0.49441 0.85434 0.0
O397 O 0.01461 0.52005 0.65498 0.0
O398 O 0.03418 0.54376 0.73428 0.0
C399 C 1.00936 0.46096 0.71801 0.0
C400 C 0.96754 0.44041 0.97697 0.0
C401 C 0.92906 0.41331 0.02047 0.0
C402 C 0.95373 0.40598 0.02368 0.0
C403 C 0.97279 0.41949 1.00241 0.0
C404 C 0.94291 0.44708 0.96955 0.0
C405 C 0.92385 0.43372 0.99144 0.0
C406 C 0.98795 0.4557 0.96289 0.0
C407 C 0.9586 0.50099 0.77799 0.0
H408 H 0.06923 0.50591 0.45806 0.0
H409 H 0.03512 0.52659 0.52507 0.0
H410 H 0.07831 0.53161 0.71538 0.0
H411 H 0.11213 0.51108 0.64885 0.0
H412 H 0.95837 0.39018 0.04466 0.0
H413 H 0.99171 0.41397 0.00788 0.0
H414 H 0.9384 0.46308 0.94944 0.0
H415 H 0.90515 0.44016 0.98899 0.0
H416 H 0.16915 0.04205 0.4804 0.0
H417 H 0.14588 0.9914 0.30098 0.0
H418 H 0.1104 0.98054 0.37007 0.0
H419 H 0.15297 0.00648 0.61354 0.0
H420 H 0.14291 0.03133 0.67662 0.0
H421 H 0.16642 0.03503 0.61317 0.0
H422 H 0.14038 0.06781 0.5708 0.0
H423 H 0.11681 0.0642 0.63408 0.0
H424 H 0.10912 0.06166 0.5421 0.0
H425 H 0.07585 0.97719 0.45662 0.0
H426 H 0.04672 0.97921 0.55615 0.0
H427 H 0.09369 0.03013 0.68299 0.0
C428 C 0.15655 0.02869 0.45561 0.0
C429 C 0.16021 0.01768 0.38488 0.0
C430 C 0.14351 2e-05 0.35492 0.0
C431 C 0.12327 0.99381 0.39377 0.0
C432 C 0.1201 0.00513 0.4631 0.0
C433 C 0.13646 0.02201 0.49407 0.0
C434 C 0.12907 0.03127 0.56979 0.0
C435 C 0.14903 0.02569 0.62132 0.0
C436 C 0.12352 0.05781 0.57975 0.0
C437 C 0.1058 0.0172 0.57645 0.0
C438 C 0.10087 0.00237 0.51402 0.0
C439 C 0.07974 0.98851 0.50592 0.0
C440 C 0.06324 0.98983 0.56279 0.0
C441 C 0.06802 0.00461 0.62771 0.0
C442 C 0.08975 0.01833 0.63455 0.0
H443 H 0.49449 0.14839 0.53478 0.0
H444 H 0.42865 0.11918 0.42764 0.0
H445 H 0.43495 0.08226 0.47574 0.0
H446 H 0.53049 0.09329 0.51691 0.0
H447 H 0.54365 0.10076 0.60356 0.0
H448 H 0.53532 0.1237 0.55442 0.0
H449 H 0.50783 0.14308 0.65819 0.0
H450 H 0.51592 0.12015 0.70737 0.0
H451 H 0.48398 0.126 0.69096 0.0
H452 H 0.44735 0.04923 0.54157 0.0
H453 H 0.46431 0.02349 0.62122 0.0
H454 H 0.52109 0.07518 0.6881 0.0
C455 C 0.48179 0.13397 0.52003 0.0
C456 C 0.46125 0.13649 0.47685 0.0
C457 C 0.44457 0.11752 0.46041 0.0
C458 C 0.44803 0.0965 0.48737 0.0
C459 C 0.46821 0.09475 0.53103 0.0
C460 C 0.48481 0.113 0.5472 0.0
C461 C 0.50396 0.10736 0.59925 0.0
C462 C 0.52989 0.10621 0.56656 0.0
C463 C 0.50284 0.12521 0.668 0.0
C464 C 0.49537 0.08327 0.61058 0.0
C465 C 0.47489 0.07613 0.57024 0.0
C466 C 0.46348 0.05462 0.57306 0.0
C467 C 0.47324 0.0401 0.61847 0.0
C468 C 0.49401 0.04729 0.66108 0.0
C469 C 0.50517 0.06914 0.65646 0.0
H470 H 0.37206 0.46539 0.40635 0.0
H471 H 0.36905 0.5374 0.36723 0.0
H472 H 0.40071 0.54855 0.45899 0.0
H473 H 0.38037 0.47991 0.59685 0.0
H474 H 0.40087 0.45547 0.60079 0.0
H475 H 0.37755 0.45333 0.5335 0.0
H476 H 0.41106 0.44302 0.43745 0.0
H477 H 0.43447 0.44515 0.5044 0.0
H478 H 0.43678 0.46259 0.43495 0.0
H479 H 0.43503 0.55117 0.54899 0.0
H480 H 0.46718 0.54582 0.63578 0.0
H481 H 0.44668 0.4725 0.62167 0.0
C482 C 0.37803 0.48353 0.41717 0.0
C483 C 0.36809 0.50053 0.37916 0.0
C484 C 0.37622 0.52411 0.39575 0.0
C485 C 0.39429 0.53058 0.44764 0.0
C486 C 0.40388 0.51334 0.48344 0.0
C487 C 0.39583 0.49034 0.46949 0.0
C488 C 0.40911 0.47522 0.51557 0.0
C489 C 0.39089 0.4654 0.56459 0.0
C490 C 0.42372 0.45532 0.47039 0.0
C491 C 0.42623 0.49319 0.55687 0.0
C492 C 0.42298 0.51505 0.53719 0.0
C493 C 0.43749 0.5342 0.5653 0.0
C494 C 0.45579 0.53096 0.6145 0.0
C495 C 0.45936 0.50881 0.63613 0.0
C496 C 0.44416 0.48974 0.60716 0.0
H497 H 0.06042 0.38539 0.3626 0.0
H498 H 1.00412 0.33377 0.38454 0.0
H499 H 0.98682 0.36023 0.48678 0.0
H500 H 0.07275 0.40257 0.53834 0.0
H501 H 0.07642 0.43352 0.53652 0.0
H502 H 0.08259 0.41246 0.45861 0.0
H503 H 0.05203 0.43369 0.38904 0.0
H504 H 0.04373 0.4548 0.46548 0.0
H505 H 0.0203 0.43719 0.41679 0.0
H506 H 0.97885 0.39011 0.59537 0.0
H507 H 0.9788 0.42263 0.69632 0.0
H508 H 0.04015 0.45486 0.60318 0.0
C509 C 0.04412 0.37989 0.38801 0.0
C510 C 0.03352 0.35757 0.36524 0.0
C511 C 0.01227 0.35096 0.40009 0.0
C512 C 1.00242 0.36581 0.45862 0.0
C513 C 0.01383 0.38733 0.48118 0.0
C514 C 0.03394 0.39457 0.44619 0.0
C515 C 0.0433 0.41817 0.48273 0.0
C516 C 0.07037 0.41657 0.50536 0.0
C517 C 0.03966 0.43707 0.43567 0.0
C518 C 0.0262 0.42243 0.54574 0.0
C519 C 1.00911 0.40461 0.54344 0.0
C520 C 0.99195 0.40432 0.59723 0.0
C521 C 0.99215 0.42282 0.65457 0.0
C522 C 1.00948 0.44131 0.65785 0.0
C523 C 0.02664 0.44103 0.60238 0.0
H524 H 0.90778 0.00447 0.25048 0.0
H525 H 0.84027 0.00189 0.12875 0.0
H526 H 0.86468 0.99943 0.01975 0.0
H527 H 0.94141 0.04055 0.15348 0.0
H528 H 0.97056 0.02571 0.15751 0.0
H529 H 0.94805 0.02532 0.2261 0.0
H530 H 0.94917 0.97978 0.20506 0.0
H531 H 0.97184 0.98003 0.13665 0.0
H532 H 0.94361 0.96384 0.11793 0.0
H533 H 0.89584 0.00185 0.92582 0.0
H534 H 0.93199 0.00508 0.85052 0.0
H535 H 0.98034 0.00403 0.02935 0.0
C536 C 0.89814 0.00304 0.20076 0.0
C537 C 0.87197 0.00322 0.19847 0.0
C538 C 0.86018 0.00135 0.13215 0.0
C539 C 0.87393 0.00013 0.06983 0.0
C540 C 0.89958 0.00048 0.07412 0.0
C541 C 0.91165 0.0015 0.13765 0.0
C542 C 0.93946 0.0021 0.12726 0.0
C543 C 0.95051 0.02477 0.16854 0.0
C544 C 0.95174 0.98013 0.14796 0.0
C545 C 0.94107 0.00187 0.04825 0.0
C546 C 0.91776 0.00103 0.01897 0.0
C547 C 0.91418 0.00214 0.94798 0.0
C548 C 0.93486 0.00412 0.90568 0.0
C549 C 0.95902 0.0047 0.93384 0.0
C550 C 0.96214 0.0033 0.00612 0.0
H551 H 0.54439 0.85304 0.99815 0.0
H552 H 0.53683 0.88581 0.21662 0.0
H553 H 0.54209 0.9249 0.18187 0.0
H554 H 0.58918 0.89548 0.94518 0.0
H555 H 0.57503 0.89442 0.86005 0.0
H556 H 0.57425 0.86895 0.9034 0.0
H557 H 0.52661 0.86795 0.89304 0.0
H558 H 0.52726 0.89338 0.8499 0.0
H559 H 0.50898 0.89378 0.92833 0.0
H560 H 0.54255 0.96067 0.12132 0.0
H561 H 0.53933 0.98978 0.04031 0.0
H562 H 0.54676 0.93344 0.86202 0.0
C563 C 0.54422 0.8684 0.03888 0.0
C564 C 0.5403 0.86629 0.1102 0.0
C565 C 0.54024 0.88688 0.16181 0.0
C566 C 0.5431 0.90921 0.14252 0.0
C567 C 0.54624 0.91067 0.0715 0.0
C568 C 0.54705 0.89078 0.02056 0.0
C569 C 0.54879 0.89713 0.94744 0.0
C570 C 0.57327 0.88849 0.91194 0.0
C571 C 0.52659 0.88749 0.90205 0.0
C572 C 0.54801 0.9237 0.96497 0.0
C573 C 0.54675 0.93123 0.03679 0.0
C574 C 0.54398 0.95499 0.06505 0.0
C575 C 0.54211 0.9714 0.01864 0.0
C576 C 0.54301 0.96395 0.94483 0.0
C577 C 0.54647 0.93981 0.91813 0.0
H578 H 0.62609 0.49816 0.23084 0.0
H579 H 0.69329 0.50443 0.11251 0.0
H580 H 0.66862 0.50682 0.00668 0.0
H581 H 0.59446 0.461 0.0945 0.0
H582 H 0.56457 0.47419 0.11434 0.0
H583 H 0.58718 0.4748 0.18305 0.0
H584 H 0.58355 0.52019 0.21157 0.0
H585 H 0.56079 0.5197 0.14323 0.0
H586 H 0.58807 0.53742 0.14238 0.0
H587 H 0.63729 0.50558 0.91137 0.0
H588 H 0.60121 0.50305 0.83362 0.0
H589 H 0.55334 0.49748 0.01116 0.0
C590 C 0.63566 0.5002 0.18285 0.0
C591 C 0.66182 0.50127 0.18075 0.0
C592 C 0.6734 0.50406 0.11654 0.0
C593 C 0.6595 0.50523 0.0557 0.0
C594 C 0.63392 0.50367 0.0594 0.0
C595 C 0.62203 0.50142 0.12137 0.0
C596 C 0.59428 0.49957 0.11019 0.0
C597 C 0.58456 0.47599 0.12649 0.0
C598 C 0.58088 0.52047 0.15448 0.0
C599 C 0.59249 0.50074 0.03198 0.0
C600 C 0.61565 0.50311 1.00403 0.0
C601 C 0.61906 0.5039 0.9328 0.0
C602 C 0.59834 0.50233 0.8889 0.0
C603 C 0.57426 0.50006 0.91586 0.0
C604 C 0.5714 0.49933 0.98874 0.0
H605 H 0.02967 0.62894 0.25194 0.0
H606 H 0.97881 0.67679 0.17304 0.0
H607 H 0.96716 0.64527 0.07591 0.0
H608 H 0.05191 0.60164 0.08817 0.0
H609 H 0.05431 0.5726 0.11114 0.0
H610 H 0.05681 0.59809 0.17848 0.0
H611 H 0.02119 0.58261 0.24806 0.0
H612 H 0.01866 0.55699 0.18096 0.0
H613 H 0.99206 0.57537 0.20519 0.0
H614 H 0.96458 0.61024 0.98061 0.0
H615 H 0.96944 0.57323 0.89685 0.0
H616 H 0.02118 0.54762 0.03893 0.0
C617 C 0.01587 0.63269 0.21465 0.0
C618 C 1.00508 0.6553 0.22009 0.0
C619 C 0.98704 0.65952 0.17045 0.0
C620 C 0.98039 0.64176 0.11496 0.0
C621 C 0.99175 0.61982 0.11033 0.0
C622 C 1.0089 0.61513 0.15926 0.0
C623 C 0.01914 0.59038 0.14055 0.0
C624 C 0.0472 0.59071 0.12888 0.0
C625 C 0.01235 0.57546 0.19706 0.0
C626 C 1.00559 0.58212 0.07235 0.0
C627 C 0.98983 0.59936 0.05601 0.0
C628 C 0.97655 0.59647 0.99336 0.0
C629 C 0.97952 0.57544 0.94601 0.0
C630 C 0.99553 0.55753 0.96173 0.0
C631 C 1.00848 0.56085 0.02615 0.0
H632 H 0.06318 0.18483 0.41369 0.0
H633 H 0.99852 0.21175 0.32037 0.0
H634 H 0.97338 0.18006 0.3563 0.0
H635 H 0.04966 0.12377 0.36551 0.0
H636 H 0.06065 0.11573 0.44673 0.0
H637 H 0.07357 0.14076 0.41478 0.0
H638 H 0.06263 0.16741 0.53275 0.0
H639 H 0.04987 0.14241 0.56525 0.0
H640 H 0.03132 0.16839 0.56452 0.0
H641 H 0.95573 0.14461 0.39778 0.0
H642 H 0.94608 0.10915 0.44926 0.0
H643 H 0.02186 0.10651 0.52033 0.0
C644 C 0.04372 0.18404 0.40113 0.0
C645 C 0.0327 0.20071 0.36462 0.0
C646 C 1.00718 0.19927 0.3492 0.0
C647 C 0.99281 0.18128 0.36893 0.0
C648 C 1.00424 0.16501 0.40449 0.0
C649 C 0.02904 0.16634 0.42118 0.0
C650 C 0.03666 0.14681 0.46064 0.0
C651 C 0.0563 0.13083 0.41943 0.0
C652 C 0.04564 0.15686 0.53521 0.0
C653 C 0.01235 0.13414 0.46264 0.0
C654 C 0.99391 0.14486 0.42977 0.0
C655 C 0.96996 0.13616 0.42425 0.0
C656 C 0.96463 0.11607 0.4539 0.0
C657 C 0.98317 0.10502 0.48894 0.0
C658 C 1.00733 0.11425 0.49297 0.0
H659 H 0.34894 0.03412 0.48227 0.0
H660 H 0.28851 0.985 0.48271 0.0
H661 H 0.31569 0.95824 0.53529 0.0
H662 H 0.39175 0.99312 0.42027 0.0
H663 H 0.41742 0.00655 0.47081 0.0
H664 H 0.39223 0.02447 0.44968 0.0
H665 H 0.38562 0.04077 0.58196 0.0
H666 H 0.41115 0.02316 0.60351 0.0
H667 H 0.38144 0.02061 0.64349 0.0
H668 H 0.35101 0.93423 0.5716 0.0
H669 H 0.39149 0.91595 0.59146 0.0
H670 H 0.42841 0.97972 0.55743 0.0
C671 C 0.34125 0.01801 0.49504 0.0
C672 C 0.31661 0.01171 0.47857 0.0
C673 C 0.30722 0.99045 0.49611 0.0
C674 C 0.32256 0.97505 0.52563 0.0
C675 C 0.34716 0.98122 0.53748 0.0
C676 C 0.35636 0.00236 0.5235 0.0
C677 C 0.38396 0.00374 0.53294 0.0
C678 C 0.39709 0.00715 0.46433 0.0
C679 C 0.39094 0.02322 0.59414 0.0
C680 C 0.38896 0.97965 0.55103 0.0
C681 C 0.36755 0.96704 0.5551 0.0
C682 C 0.36789 0.944 0.56912 0.0
C683 C 0.39081 0.93369 0.57967 0.0
C684 C 0.41278 0.94634 0.57413 0.0
C685 C 0.41176 0.96957 0.56025 0.0
H686 H 0.47402 0.32632 0.66535 0.0
H687 H 0.52037 0.311 0.47996 0.0
H688 H 0.53998 0.35 0.5102 0.0
H689 H 0.4619 0.38432 0.65578 0.0
H690 H 0.46318 0.39508 0.74906 0.0
H691 H 0.45509 0.36495 0.71802 0.0
H692 H 0.4905 0.35091 0.79142 0.0
H693 H 0.49849 0.3811 0.82307 0.0
H694 H 0.52147 0.36097 0.78045 0.0
H695 H 0.54927 0.39296 0.54968 0.0
H696 H 0.55105 0.43504 0.60397 0.0
H697 H 0.50085 0.42104 0.76768 0.0
C698 C 0.48879 0.331 0.63241 0.0
C699 C 0.49588 0.31572 0.57073 0.0
C700 C 0.51502 0.32239 0.52808 0.0
C701 C 0.52616 0.34452 0.54466 0.0
C702 C 0.51828 0.35951 0.60482 0.0
C703 C 0.50043 0.35283 0.649 0.0
C704 C 0.49442 0.37261 0.70857 0.0
C705 C 0.46703 0.37965 0.70771 0.0
C706 C 0.50167 0.366 0.7801 0.0
C707 C 0.51092 0.39171 0.68924 0.0
C708 C 0.52454 0.38389 0.62929 0.0
C709 C 0.53922 0.39914 0.59775 0.0
C710 C 0.54003 0.42299 0.62856 0.0
C711 C 0.52648 0.43114 0.69052 0.0
C712 C 0.51198 0.41518 0.72132 0.0
H713 H 0.22689 0.46691 0.41686 0.0
H714 H 0.19397 0.40596 0.28864 0.0
H715 H 0.15394 0.41621 0.34705 0.0
H716 H 0.1879 0.46532 0.5802 0.0
H717 H 0.18713 0.49701 0.59815 0.0
H718 H 0.21387 0.48194 0.55699 0.0
H719 H 0.20986 0.50594 0.45483 0.0
H720 H 0.18271 0.5205 0.49397 0.0
H721 H 0.18158 0.50462 0.40527 0.0
H722 H 0.11655 0.43763 0.40069 0.0
H723 H 0.08535 0.46552 0.45869 0.0
H724 H 0.14327 0.51155 0.55414 0.0
C725 C 0.2117 0.45489 0.40346 0.0
C726 C 0.21364 0.43559 0.34808 0.0
C727 C 0.1929 0.42093 0.33059 0.0
C728 C 0.17012 0.42657 0.36363 0.0
C729 C 0.16858 0.44663 0.41486 0.0
C730 C 0.18899 0.46019 0.43608 0.0
C731 C 0.18211 0.48211 0.48704 0.0
C732 C 0.19342 0.48155 0.55993 0.0
C733 C 0.1895 0.5046 0.45851 0.0
C734 C 0.15448 0.47938 0.48848 0.0
C735 C 0.14702 0.45873 0.44694 0.0
C736 C 0.12221 0.4535 0.4349 0.0
C737 C 0.10463 0.46956 0.46732 0.0
C738 C 0.11192 0.49052 0.51135 0.0
C739 C 0.13719 0.49542 0.52187 0.0
H740 H 0.07267 0.80655 0.17774 0.0
H741 H 0.06921 0.84267 0.39387 0.0
H742 H 0.07074 0.88085 0.35214 0.0
H743 H 0.11382 0.84815 0.11172 0.0
H744 H 0.09822 0.84582 0.02827 0.0
H745 H 0.09854 0.82119 0.07522 0.0
H746 H 0.05082 0.81995 0.07174 0.0
H747 H 0.05034 0.84461 0.02504 0.0
H748 H 0.03347 0.84603 0.10634 0.0
H749 H 0.06978 0.91505 0.28752 0.0
H750 H 0.06812 0.94319 0.20352 0.0
H751 H 0.07198 0.88518 0.02912 0.0
C752 C 0.07243 0.82249 0.21628 0.0
C753 C 0.0711 0.82157 0.28916 0.0
C754 C 0.0708 0.84286 0.33789 0.0
C755 C 0.07147 0.86467 0.3147 0.0
C756 C 0.0725 0.86494 0.2426 0.0
C757 C 0.07314 0.84445 0.19404 0.0
C758 C 0.0735 0.84972 0.11943 0.0
C759 C 0.09745 0.84068 0.08143 0.0
C760 C 0.05067 0.83947 0.07824 0.0
C761 C 0.07264 0.87636 0.13373 0.0
C762 C 0.07207 0.88476 0.20516 0.0
C763 C 0.07039 0.90871 0.23145 0.0
C764 C 0.0693 0.92453 0.18341 0.0
C765 C 0.06995 0.91634 0.10996 0.0
C766 C 0.07177 0.89193 0.08501 0.0
H767 H 0.7033 0.05589 0.32821 0.0
H768 H 0.73488 0.12358 0.31061 0.0
H769 H 0.69586 0.1352 0.25751 0.0
H770 H 0.67432 0.04642 0.16851 0.0
H771 H 0.6474 0.0324 0.19741 0.0
H772 H 0.67611 0.03116 0.24305 0.0
H773 H 0.65516 0.04941 0.36054 0.0
H774 H 0.62625 0.05062 0.31521 0.0
H775 H 0.63879 0.07694 0.36611 0.0
H776 H 0.65552 0.13671 0.19181 0.0
H777 H 0.61775 0.1283 0.12045 0.0
H778 H 0.61258 0.06002 0.18674 0.0
C779 C 0.70168 0.07336 0.31456 0.0
C780 C 0.72171 0.08897 0.32318 0.0
C781 C 0.71942 0.11158 0.30448 0.0
C782 C 0.6974 0.11826 0.27459 0.0
C783 C 0.678 0.10219 0.26522 0.0
C784 C 0.6799 0.08029 0.28551 0.0
C785 C 0.65739 0.06544 0.26504 0.0
C786 C 0.66423 0.04252 0.21556 0.0
C787 C 0.64358 0.06031 0.33064 0.0
C788 C 0.64288 0.08194 0.22715 0.0
C789 C 0.65481 0.10318 0.22848 0.0
C790 C 0.64577 0.12035 0.1917 0.0
C791 C 0.62428 0.11546 0.15149 0.0
C792 C 0.61226 0.0935 0.1481 0.0
C793 C 0.62141 0.07691 0.18808 0.0
H794 H 0.52406 0.67878 0.99807 0.0
H795 H 0.44444 0.68707 1.005 0.0
H796 H 0.43986 0.64585 0.94751 0.0
H797 H 0.52597 0.64061 0.82401 0.0
H798 H 0.55127 0.6234 0.84917 0.0
H799 H 0.54824 0.65397 0.88751 0.0
H800 H 0.54894 0.64244 0.01214 0.0
H801 H 0.55167 0.61185 0.97429 0.0
H802 H 0.5268 0.62154 0.03431 0.0
H803 H 0.44385 0.60285 0.89957 0.0
H804 H 0.4562 0.56185 0.85458 0.0
H805 H 0.53316 0.58223 0.87148 0.0
C806 C 0.50564 0.67221 0.98589 0.0
C807 C 0.4846 0.68626 0.00664 0.0
C808 C 0.46086 0.67663 0.99087 0.0
C809 C 0.45805 0.65325 0.95778 0.0
C810 C 0.47916 0.63979 0.9397 0.0
C811 C 0.5025 0.64901 0.9521 0.0
C812 C 0.52216 0.63063 0.92872 0.0
C813 C 0.53783 0.63757 0.86878 0.0
C814 C 0.53834 0.62637 0.99109 0.0
C815 C 0.5062 0.6095 0.90272 0.0
C816 C 0.48145 0.61516 0.9097 0.0
C817 C 0.46316 0.59828 0.8929 0.0
C818 C 0.47036 0.57502 0.86784 0.0
C819 C 0.49562 0.56891 0.85928 0.0
C820 C 0.51371 0.58645 0.87666 0.0
H821 H 0.79078 0.40574 0.12078 0.0
H822 H 0.8177 0.39726 0.32756 0.0
H823 H 0.85782 0.38475 0.27636 0.0
H824 H 0.83325 0.35975 0.01122 0.0
H825 H 0.83731 0.37889 0.94676 0.0
H826 H 0.80839 0.3787 0.99298 0.0
H827 H 0.81173 0.42374 0.03307 0.0
H828 H 0.84059 0.42405 0.98788 0.0
H829 H 0.83871 0.43556 0.0806 0.0
H830 H 0.89705 0.38416 0.2132 0.0
H831 H 0.9316 0.39565 0.14397 0.0
H832 H 0.88106 0.40577 0.97676 0.0
C833 C 0.80485 0.40052 0.15498 0.0
C834 C 0.80085 0.40252 0.22834 0.0
C835 C 0.81984 0.39544 0.27104 0.0
C836 C 0.8429 0.38834 0.24234 0.0
C837 C 0.84679 0.3883 0.17079 0.0
C838 C 0.82817 0.39393 0.12733 0.0
C839 C 0.83818 0.39696 0.05582 0.0
C840 C 0.82872 0.3774 0.99829 0.0
C841 C 0.83195 0.42153 0.03843 0.0
C842 C 0.86552 0.39418 0.06804 0.0
C843 C 0.87001 0.38834 0.13375 0.0
C844 C 0.8938 0.38795 0.16071 0.0
C845 C 0.91339 0.39447 0.12072 0.0
C846 C 0.90911 0.40154 0.05458 0.0
C847 C 0.88494 0.40041 0.02699 0.0
H848 H 0.02843 0.19202 0.94177 0.0
H849 H 0.10549 0.18554 0.99668 0.0
H850 H 0.10513 0.14395 0.94248 0.0
H851 H 1.00958 0.13818 0.9813 0.0
H852 H 0.98826 0.13113 0.90927 0.0
H853 H 0.99503 0.16138 0.94344 0.0
H854 H 1.00818 0.16836 0.81911 0.0
H855 H 1.00127 0.13812 0.78434 0.0
H856 H 0.03142 0.14974 0.77148 0.0
H857 H 0.09531 0.10223 0.90039 0.0
H858 H 0.07716 0.06299 0.86225 0.0
H859 H 1.00696 0.09538 0.82772 0.0
C860 C 0.04535 0.18197 0.94092 0.0
C861 C 0.06709 0.19229 0.97278 0.0
C862 C 0.08877 0.17838 0.97115 0.0
C863 C 0.08873 0.1546 0.94087 0.0
C864 C 0.06694 0.14487 0.91153 0.0
C865 C 0.04572 0.15811 0.9101 0.0
C866 C 0.02448 0.14281 0.87848 0.0
C867 C 1.00308 0.14342 0.93129 0.0
C868 C 0.01583 0.1502 0.80923 0.0
C869 C 0.03689 0.11882 0.86519 0.0
C870 C 0.06143 0.12052 0.88458 0.0
C871 C 0.07629 0.1007 0.88346 0.0
C872 C 0.06583 0.07851 0.86214 0.0
C873 C 0.04085 0.07632 0.84138 0.0
C874 C 0.02627 0.09672 0.84191 0.0
H875 H 0.35233 0.04906 0.06814 0.0
H876 H 0.32249 0.97916 1.00229 0.0
H877 H 0.3603 0.96782 0.93317 0.0
H878 H 0.38247 0.05431 0.90255 0.0
H879 H 0.40873 0.06972 0.94449 0.0
H880 H 0.37913 0.07246 0.98762 0.0
H881 H 0.39836 0.05871 0.09722 0.0
H882 H 0.42799 0.0559 0.0544 0.0
H883 H 0.41479 0.03111 0.08713 0.0
H884 H 0.40202 0.96389 0.87159 0.0
H885 H 0.44397 0.96746 0.82499 0.0
H886 H 0.44686 0.04002 0.93007 0.0
C887 C 0.35351 0.03144 0.03842 0.0
C888 C 0.33414 0.01506 0.0408 0.0
C889 C 0.33696 0.99204 1.00212 0.0
C890 C 0.35839 0.98545 0.96227 0.0
C891 C 0.37707 0.00201 0.96135 0.0
C892 C 0.37484 0.02454 0.99849 0.0
C893 C 0.39785 0.03884 0.99 0.0
C894 C 0.39167 0.06009 0.95402 0.0
C895 C 0.41049 0.04659 0.06143 0.0
C896 C 0.41342 0.02085 0.94236 0.0
C897 C 0.40106 0.99972 0.92633 0.0
C898 C 0.41179 0.98038 0.88388 0.0
C899 C 0.43574 0.9826 0.8576 0.0
C900 C 0.44896 0.00402 0.87357 0.0
C901 C 0.43738 0.02341 0.91637 0.0
H902 H 0.47857 0.30831 0.22893 0.0
H903 H 0.44082 0.25878 0.07112 0.0
H904 H 0.44272 0.28745 0.98842 0.0
H905 H 0.44743 0.35838 0.19504 0.0
H906 H 0.47351 0.37782 0.20986 0.0
H907 H 0.47181 0.35251 0.25341 0.0
H908 H 0.51425 0.33808 0.20127 0.0
H909 H 0.51616 0.36346 0.15773 0.0
H910 H 0.51901 0.33432 0.10739 0.0
H911 H 0.44594 0.32265 0.92642 0.0
H912 H 0.44965 0.36178 0.89046 0.0
H913 H 0.48468 0.3886 0.08966 0.0
C914 C 0.47134 0.30324 0.17626 0.0
C915 C 0.4598 0.28119 0.15609 0.0
C916 C 0.4498 0.27553 0.08753 0.0
C917 C 0.45088 0.29167 0.04019 0.0
C918 C 0.46198 0.31342 0.06222 0.0
C919 C 0.47209 0.3192 0.12862 0.0
C920 C 0.4813 0.34435 0.14127 0.0
C921 C 0.46769 0.35913 0.20356 0.0
C922 C 0.50935 0.34509 0.15256 0.0
C923 C 0.47443 0.35198 0.07208 0.0
C924 C 0.4635 0.33382 0.02695 0.0
C925 C 0.45461 0.33694 0.96118 0.0
C926 C 0.45665 0.35926 0.94139 0.0
C927 C 0.4674 0.37825 0.98729 0.0
C928 C 0.47671 0.37436 0.05303 0.0
H929 H 0.18497 0.52226 0.05361 0.0
H930 H 0.20775 0.4525 0.95355 0.0
H931 H 0.16786 0.44701 0.89253 0.0
H932 H 0.12108 0.5085 0.07888 0.0
H933 H 0.10914 0.53583 0.05829 0.0
H934 H 0.13963 0.53472 0.09462 0.0
H935 H 0.1577 0.55153 0.98871 0.0
H936 H 0.12725 0.55264 0.95204 0.0
H937 H 0.15155 0.5368 0.90049 0.0
H938 H 0.12497 0.44754 0.84767 0.0
H939 H 0.08203 0.45523 0.81537 0.0
H940 H 0.08634 0.52564 0.9352 0.0
C941 C 0.18153 0.50591 0.01857 0.0
C942 C 0.19974 0.48787 0.00796 0.0
C943 C 0.19441 0.46672 0.96175 0.0
C944 C 0.17169 0.46337 0.92703 0.0
C945 C 0.15427 0.4814 0.9381 0.0
C946 C 0.15888 0.50238 0.98211 0.0
C947 C 0.13674 0.51887 0.9835 0.0
C948 C 0.12602 0.52483 0.05827 0.0
C949 C 0.14373 0.54129 0.95445 0.0
C950 C 0.11901 0.50373 0.93417 0.0
C951 C 0.12958 0.48211 0.90924 0.0
C952 C 0.11662 0.46452 0.86607 0.0
C953 C 0.09222 0.46903 0.84803 0.0
C954 C 0.08097 0.49108 0.87181 0.0
C955 C 0.09467 0.50878 0.91502 0.0
H956 H 0.02634 0.82694 0.64592 0.0
H957 H 0.95295 0.81918 0.55612 0.0
H958 H 0.94426 0.86106 0.60255 0.0
H959 H 1.00983 0.8692 0.80635 0.0
H960 H 0.03829 0.88502 0.80305 0.0
H961 H 0.03722 0.85388 0.77064 0.0
H962 H 0.05432 0.86131 0.6504 0.0
H963 H 0.05514 0.89243 0.68196 0.0
H964 H 0.03824 0.88129 0.60308 0.0
H965 H 0.94546 0.90498 0.64881 0.0
H966 H 0.95611 0.94652 0.69227 0.0
H967 H 0.02869 0.92448 0.75139 0.0
C968 C 1.00808 0.83372 0.63819 0.0
C969 C 0.99021 0.81966 0.59809 0.0
C970 C 0.96691 0.8296 0.58682 0.0
C971 C 0.96179 0.85334 0.6132 0.0
C972 C 0.98013 0.86684 0.65097 0.0
C973 C 1.00273 0.85726 0.66395 0.0
C974 C 0.02005 0.87575 0.70095 0.0
C975 C 0.02673 0.87066 0.77463 0.0
C976 C 0.0433 0.87781 0.65641 0.0
C977 C 1.00392 0.89737 0.70533 0.0
C978 C 0.98088 0.89194 0.67688 0.0
C979 C 0.96334 0.90937 0.67204 0.0
C980 C 0.96959 0.93293 0.69669 0.0
C981 C 0.99323 0.93882 0.72536 0.0
C982 C 0.01041 0.92066 0.73019 0.0
H983 H 0.68776 0.01296 0.51413 0.0
H984 H 0.73165 0.99379 0.68515 0.0
H985 H 0.69414 0.99292 0.75605 0.0
H986 H 0.64401 0.04908 0.61597 0.0
H987 H 0.61773 0.03885 0.5626 0.0
H988 H 0.64796 0.03793 0.52354 0.0
H989 H 0.64344 0.99332 0.47892 0.0
H990 H 0.61303 0.99412 0.51697 0.0
H991 H 0.63585 0.97394 0.54043 0.0
H992 H 0.6524 0.9977 0.81354 0.0
H993 H 0.60837 0.00171 0.84666 0.0
H994 H 0.59022 0.01297 0.63529 0.0
C995 C 0.68959 0.00809 0.56585 0.0
C996 C 0.71316 0.00401 0.594 0.0
C997 C 0.71424 0.99786 0.66252 0.0
C998 C 0.69289 0.99711 0.70336 0.0
C999 C 0.67024 0.00195 0.67488 0.0
C1000 C 0.66831 0.00673 0.60707 0.0
C1001 C 0.64148 0.01069 0.5888 0.0
C1002 C 0.63758 0.03562 0.57173 0.0
C1003 C 0.63295 0.99189 0.52765 0.0
C1004 C 0.62877 0.00778 0.65736 0.0
C1005 C 0.64581 0.00305 0.70656 0.0
C1006 C 0.63885 0.00099 0.77508 0.0
C1007 C 0.6138 0.00345 0.79358 0.0
C1008 C 0.59584 0.00745 0.74354 0.0
C1009 C 0.60351 0.00961 0.67443 0.0
H1010 H 0.54237 0.71567 0.4613 0.0
H1011 H 0.57369 0.69368 0.25313 0.0
H1012 H 0.58656 0.65616 0.28749 0.0
H1013 H 0.58772 0.6857 0.56045 0.0
H1014 H 0.56445 0.67759 0.61888 0.0
H1015 H 0.56096 0.70416 0.58159 0.0
H1016 H 0.51836 0.68977 0.5317 0.0
H1017 H 0.52181 0.66309 0.56814 0.0
H1018 H 0.51607 0.66163 0.47532 0.0
H1019 H 0.59183 0.61931 0.33907 0.0
H1020 H 0.59012 0.58621 0.40559 0.0
H1021 H 0.55469 0.63158 0.57966 0.0
C1022 C 0.55225 0.70314 0.42317 0.0
C1023 C 0.55716 0.70787 0.35459 0.0
C1024 C 0.57019 0.69088 0.30651 0.0
C1025 C 0.57743 0.66936 0.32535 0.0
C1026 C 0.57159 0.66502 0.3925 0.0
C1027 C 0.55946 0.68149 0.44091 0.0
C1028 C 0.55379 0.67178 0.50777 0.0
C1029 C 0.56756 0.68563 0.5709 0.0
C1030 C 0.52585 0.67156 0.52149 0.0
C1031 C 0.56401 0.64706 0.48855 0.0
C1032 C 0.57443 0.64361 0.42214 0.0
C1033 C 0.5841 0.62191 0.39162 0.0
C1034 C 0.58311 0.60322 0.42998 0.0
C1035 C 0.57244 0.60628 0.49815 0.0
C1036 C 0.5629 0.62861 0.52765 0.0
H1037 H 0.84591 0.51411 0.51501 0.0
H1038 H 0.79818 0.48979 0.66964 0.0
H1039 H 0.83346 0.48929 0.74906 0.0
H1040 H 0.89714 0.47759 0.54212 0.0
H1041 H 0.92021 0.49908 0.53071 0.0
H1042 H 0.89086 0.49949 0.48734 0.0
H1043 H 0.88426 0.54287 0.54534 0.0
H1044 H 0.91364 0.5426 0.5888 0.0
H1045 H 0.88614 0.55067 0.63975 0.0
H1046 H 0.87424 0.48908 0.81021 0.0
H1047 H 0.91756 0.48972 0.84875 0.0
H1048 H 0.9398 0.51313 0.65466 0.0
C1049 C 0.84275 0.50877 0.56562 0.0
C1050 C 0.81882 0.50233 0.58575 0.0
C1051 C 0.81589 0.49551 0.65297 0.0
C1052 C 0.83597 0.49492 0.69857 0.0
C1053 C 0.85917 0.5011 0.67675 0.0
C1054 C 0.86271 0.50795 0.61196 0.0
C1055 C 0.88982 0.51289 0.60059 0.0
C1056 C 0.90011 0.49627 0.53638 0.0
C1057 C 0.89369 0.5388 0.59319 0.0
C1058 C 0.90093 0.5075 0.66876 0.0
C1059 C 0.88285 0.50081 0.71197 0.0
C1060 C 0.88853 0.49444 0.77696 0.0
C1061 C 0.91329 0.49485 0.79841 0.0
C1062 C 0.9323 0.50156 0.75515 0.0
C1063 C 0.92583 0.50807 0.68946 0.0
loop_
_geom_bond_atom_site_label_1
_geom_bond_atom_site_label_2
_geom_bond_distance
_geom_bond_site_symmetry_2
_ccdc_geom_bond_type
P0 O11 1.490 . S
P0 C14 1.812 . S
P0 C20 1.803 . S
P0 C26 1.819 . S
H1 C15 0.941 . S
H2 C16 0.939 . S
H3 C18 0.940 . S
H4 C19 0.940 . S
H5 C21 0.939 . S
H6 C22 0.942 . S
H7 C24 0.940 . S
H8 C25 0.939 . S
H9 C27 0.941 . S
H10 C31 0.939 . S
O11 P0 1.490 . S
H12 C28 0.939 . S
H13 C30 0.940 . S
C14 P0 1.812 . S
C14 C15 1.389 . S
C14 C19 1.391 . S
C15 H1 0.941 . S
C15 C14 1.389 . S
C15 C16 1.397 . S
C16 H2 0.939 . S
C16 C15 1.397 . S
C16 C17 1.378 . S
C17 C16 1.378 . S
C17 C18 1.378 . S
C18 H3 0.940 . S
C18 C17 1.378 . S
C18 C19 1.396 . S
C19 H4 0.940 . S
C19 C14 1.391 . S
C19 C18 1.396 . S
C20 P0 1.803 . S
C20 C21 1.378 . S
C20 C25 1.400 . S
C21 H5 0.939 . S
C21 C20 1.378 . S
C21 C22 1.361 . S
C22 H6 0.942 . S
C22 C21 1.361 . S
C22 C23 1.369 . S
C23 C22 1.369 . S
C23 C24 1.404 . S
C24 H7 0.940 . S
C24 C23 1.404 . S
C24 C25 1.389 . S
C25 H8 0.939 . S
C25 C20 1.400 . S
C25 C24 1.389 . S
C26 P0 1.819 . S
C26 C27 1.391 . S
C26 C31 1.391 . S
C27 H9 0.941 . S
C27 C26 1.391 . S
C27 C28 1.396 . S
C28 H12 0.939 . S
C28 C27 1.396 . S
C28 C29 1.397 . S
C29 C28 1.397 . S
C29 C30 1.385 . S
C30 H13 0.940 . S
C30 C29 1.385 . S
C30 C31 1.388 . S
C31 H10 0.939 . S
C31 C26 1.391 . S
C31 C30 1.388 . S
P32 O43 1.490 . S
P32 C46 1.812 . S
P32 C52 1.803 . S
P32 C58 1.819 . S
H33 C47 0.941 . S
H34 C48 0.939 . S
H35 C50 0.940 . S
H36 C51 0.940 . S
H37 C53 0.939 . S
H38 C54 0.942 . S
H39 C56 0.940 . S
H40 C57 0.939 . S
H41 C59 0.941 . S
H42 C63 0.939 . S
O43 P32 1.490 . S
H44 C60 0.939 . S
H45 C62 0.940 . S
C46 P32 1.812 . S
C46 C47 1.389 . S
C46 C51 1.391 1_455 S
C47 H33 0.941 . S
C47 C46 1.389 . S
C47 C48 1.397 . S
C48 H34 0.939 . S
C48 C47 1.397 . S
C48 C49 1.378 1_455 S
C49 C48 1.378 1_655 S
C49 C50 1.378 . S
C50 H35 0.940 . S
C50 C49 1.378 . S
C50 C51 1.396 . S
C51 H36 0.940 . S
C51 C46 1.391 1_655 S
C51 C50 1.396 . S
C52 P32 1.803 . S
C52 C53 1.378 . S
C52 C57 1.400 1_455 S
C53 H37 0.939 . S
C53 C52 1.378 . S
C53 C54 1.361 . S
C54 H38 0.942 . S
C54 C53 1.361 . S
C54 C55 1.369 1_455 S
C55 C54 1.369 1_655 S
C55 C56 1.404 . S
C56 H39 0.940 . S
C56 C55 1.404 . S
C56 C57 1.389 . S
C57 H40 0.939 . S
C57 C52 1.400 1_655 S
C57 C56 1.389 . S
C58 P32 1.819 . S
C58 C59 1.391 . S
C58 C63 1.391 1_455 S
C59 H41 0.941 . S
C59 C58 1.391 . S
C59 C60 1.396 . S
C60 H44 0.939 . S
C60 C59 1.396 . S
C60 C61 1.397 1_455 S
C61 C60 1.397 1_655 S
C61 C62 1.385 . S
C62 H45 0.940 . S
C62 C61 1.385 . S
C62 C63 1.388 . S
C63 H42 0.939 . S
C63 C58 1.391 1_655 S
C63 C62 1.388 . S
P64 O75 1.490 . S
P64 C78 1.812 . S
P64 C84 1.803 . S
P64 C90 1.819 . S
H65 C79 0.941 . S
H66 C80 0.939 . S
H67 C82 0.940 . S
H68 C83 0.948 . S
H69 C85 0.939 . S
H70 C86 0.942 . S
H71 C88 0.940 . S
H72 C89 0.962 . S
H73 C91 0.941 . S
H74 C95 0.929 1_565 S
O75 P64 1.490 . S
H76 C92 0.939 . S
H77 C94 0.940 . S
C78 P64 1.812 . S
C78 C79 1.389 . S
C78 C83 1.375 1_545 S
C79 H65 0.941 . S
C79 C78 1.389 . S
C79 C80 1.397 . S
C80 H66 0.939 . S
C80 C79 1.397 . S
C80 C81 1.378 . S
C81 C80 1.378 . S
C81 C82 1.378 1_545 S
C82 H67 0.940 . S
C82 C81 1.378 1_565 S
C82 C83 1.405 . S
C83 H68 0.948 . S
C83 C78 1.375 1_565 S
C83 C82 1.405 . S
C84 P64 1.803 . S
C84 C85 1.378 . S
C84 C89 1.367 1_545 S
C85 H69 0.939 . S
C85 C84 1.378 . S
C85 C86 1.361 . S
C86 H70 0.942 . S
C86 C85 1.361 . S
C86 C87 1.369 . S
C87 C86 1.369 . S
C87 C88 1.404 1_545 S
C88 H71 0.940 . S
C88 C87 1.404 1_565 S
C88 C89 1.400 . S
C89 H72 0.962 . S
C89 C84 1.367 1_565 S
C89 C88 1.400 . S
C90 P64 1.819 . S
C90 C91 1.391 . S
C90 C95 1.391 . S
C91 H73 0.941 . S
C91 C90 1.391 . S
C91 C92 1.396 . S
C92 H76 0.939 . S
C92 C91 1.396 . S
C92 C93 1.397 . S
C93 C92 1.397 . S
C93 C94 1.385 1_545 S
C94 H77 0.940 . S
C94 C93 1.385 1_565 S
C94 C95 1.388 1_565 S
C95 H74 0.929 1_545 S
C95 C90 1.391 . S
C95 C94 1.388 1_545 S
P96 O107 1.490 . S
P96 C110 1.812 . S
P96 C116 1.803 1_554 S
P96 C122 1.819 1_554 S
H97 C111 0.941 . S
H98 C112 0.939 . S
H99 C114 0.940 . S
H100 C115 0.940 . S
H101 C117 0.939 . S
H102 C118 0.942 . S
H103 C120 0.940 1_554 S
H104 C121 0.939 . S
H105 C123 0.941 . S
H106 C127 0.939 . S
O107 P96 1.490 . S
H108 C124 0.939 . S
H109 C126 0.940 . S
C110 P96 1.812 . S
C110 C111 1.389 . S
C110 C115 1.391 . S
C111 H97 0.941 . S
C111 C110 1.389 . S
C111 C112 1.397 . S
C112 H98 0.939 . S
C112 C111 1.397 . S
C112 C113 1.378 . S
C113 C112 1.378 . S
C113 C114 1.378 . S
C114 H99 0.940 . S
C114 C113 1.378 . S
C114 C115 1.396 . S
C115 H100 0.940 . S
C115 C110 1.391 . S
C115 C114 1.396 . S
C116 P96 1.803 1_556 S
C116 C117 1.378 . S
C116 C121 1.400 1_556 S
C117 H101 0.939 . S
C117 C116 1.378 . S
C117 C118 1.361 . S
C118 H102 0.942 . S
C118 C117 1.361 . S
C118 C119 1.369 . S
C119 C118 1.369 . S
C119 C120 1.404 . S
C120 H103 0.940 1_556 S
C120 C119 1.404 . S
C120 C121 1.389 1_556 S
C121 H104 0.939 . S
C121 C116 1.400 1_554 S
C121 C120 1.389 1_554 S
C122 P96 1.819 1_556 S
C122 C123 1.391 . S
C122 C127 1.391 . S
C123 H105 0.941 . S
C123 C122 1.391 . S
C123 C124 1.396 . S
C124 H108 0.939 . S
C124 C123 1.396 . S
C124 C125 1.397 . S
C125 C124 1.397 . S
C125 C126 1.385 . S
C126 H109 0.940 . S
C126 C125 1.385 . S
C126 C127 1.388 . S
C127 H106 0.939 . S
C127 C122 1.391 . S
C127 C126 1.388 . S
P128 O139 1.490 . S
P128 C142 1.812 . S
P128 C148 1.803 . S
P128 C154 1.819 . S
H129 C143 0.941 . S
H130 C144 0.939 . S
H131 C146 0.940 . S
H132 C147 0.940 . S
H133 C149 0.939 . S
H134 C150 0.942 . S
H135 C152 0.940 . S
H136 C153 0.939 . S
H137 C155 0.941 . S
H138 C159 0.939 . S
O139 P128 1.490 . S
H140 C156 0.939 . S
H141 C158 0.940 . S
C142 P128 1.812 . S
C142 C143 1.389 . S
C142 C147 1.391 . S
C143 H129 0.941 . S
C143 C142 1.389 . S
C143 C144 1.397 1_554 S
C144 H130 0.939 . S
C144 C143 1.397 1_556 S
C144 C145 1.378 . S
C145 C144 1.378 . S
C145 C146 1.378 1_556 S
C146 H131 0.940 . S
C146 C145 1.378 1_554 S
C146 C147 1.396 . S
C147 H132 0.940 . S
C147 C142 1.391 . S
C147 C146 1.396 . S
C148 P128 1.803 . S
C148 C149 1.378 . S
C148 C153 1.400 . S
C149 H133 0.939 . S
C149 C148 1.378 . S
C149 C150 1.361 . S
C150 H134 0.942 . S
C150 C149 1.361 . S
C150 C151 1.369 . S
C151 C150 1.369 . S
C151 C152 1.404 . S
C152 H135 0.940 . S
C152 C151 1.404 . S
C152 C153 1.389 . S
C153 H136 0.939 . S
C153 C148 1.400 . S
C153 C152 1.389 . S
C154 P128 1.819 . S
C154 C155 1.391 . S
C154 C159 1.391 . S
C155 H137 0.941 . S
C155 C154 1.391 . S
C155 C156 1.396 . S
C156 H140 0.939 . S
C156 C155 1.396 . S
C156 C157 1.397 . S
C157 C156 1.397 . S
C157 C158 1.385 . S
C158 H141 0.940 . S
C158 C157 1.385 . S
C158 C159 1.388 . S
C159 H138 0.939 . S
C159 C154 1.391 . S
C159 C158 1.388 . S
P160 O171 1.490 . S
P160 C174 1.812 . S
P160 C180 1.803 . S
P160 C186 1.819 . S
H161 C175 0.941 . S
H162 C176 0.939 1_556 S
H163 C178 0.927 1_655 S
H164 C179 0.940 . S
H165 C181 0.939 . S
H166 C182 0.942 . S
H167 C184 0.940 1_655 S
H168 C185 0.939 . S
H169 C187 0.941 . S
H170 C191 0.939 . S
O171 P160 1.490 . S
H172 C188 0.939 . S
H173 C190 0.940 . S
C174 P160 1.812 . S
C174 C175 1.389 . S
C174 C179 1.391 . S
C175 H161 0.941 . S
C175 C174 1.389 . S
C175 C176 1.397 . S
C176 H162 0.939 1_554 S
C176 C175 1.397 . S
C176 C177 1.378 . S
C177 C176 1.378 . S
C177 C178 1.378 . S
C178 H163 0.927 1_455 S
C178 C177 1.378 . S
C178 C179 1.396 . S
C179 H164 0.940 . S
C179 C174 1.391 . S
C179 C178 1.396 . S
C180 P160 1.803 . S
C180 C181 1.378 . S
C180 C185 1.400 . S
C181 H165 0.939 . S
C181 C180 1.378 . S
C181 C182 1.361 . S
C182 H166 0.942 . S
C182 C181 1.361 . S
C182 C183 1.369 . S
C183 C182 1.369 . S
C183 C184 1.404 . S
C184 H167 0.940 1_455 S
C184 C183 1.404 . S
C184 C185 1.389 . S
C185 H168 0.939 . S
C185 C180 1.400 . S
C185 C184 1.389 . S
C186 P160 1.819 . S
C186 C187 1.391 . S
C186 C191 1.391 . S
C187 H169 0.941 . S
C187 C186 1.391 . S
C187 C188 1.396 . S
C188 H172 0.939 . S
C188 C187 1.396 . S
C188 C189 1.397 . S
C189 C188 1.397 . S
C189 C190 1.385 . S
C190 H173 0.940 . S
C190 C189 1.385 . S
C190 C191 1.388 . S
C191 H170 0.939 . S
C191 C186 1.391 . S
C191 C190 1.388 . S
P192 O203 1.490 . S
P192 C206 1.812 . S
P192 C212 1.803 . S
P192 C218 1.819 . S
H193 C207 0.941 . S
H194 C208 0.939 . S
H195 C210 0.940 . S
H196 C211 0.945 . S
H197 C213 0.939 . S
H198 C214 0.942 . S
H199 C216 0.940 . S
H200 C217 0.950 . S
H201 C219 0.941 . S
H202 C223 0.933 1_565 S
O203 P192 1.490 . S
H204 C220 0.939 . S
H205 C222 0.940 . S
C206 P192 1.812 . S
C206 C207 1.389 . S
C206 C211 1.385 1_545 S
C207 H193 0.941 . S
C207 C206 1.389 . S
C207 C208 1.397 1_554 S
C208 H194 0.939 . S
C208 C207 1.397 1_556 S
C208 C209 1.378 . S
C209 C208 1.378 . S
C209 C210 1.378 1_546 S
C210 H195 0.940 . S
C210 C209 1.378 1_564 S
C210 C211 1.398 . S
C211 H196 0.945 . S
C211 C206 1.385 1_565 S
C211 C210 1.398 . S
C212 P192 1.803 . S
C212 C213 1.378 . S
C212 C217 1.380 1_545 S
C213 H197 0.939 . S
C213 C212 1.378 . S
C213 C214 1.361 . S
C214 H198 0.942 . S
C214 C213 1.361 . S
C214 C215 1.369 . S
C215 C214 1.369 . S
C215 C216 1.404 1_545 S
C216 H199 0.940 . S
C216 C215 1.404 1_565 S
C216 C217 1.399 . S
C217 H200 0.950 . S
C217 C212 1.380 1_565 S
C217 C216 1.399 . S
C218 P192 1.819 . S
C218 C219 1.391 . S
C218 C223 1.391 . S
C219 H201 0.941 . S
C219 C218 1.391 . S
C219 C220 1.396 . S
C220 H204 0.939 . S
C220 C219 1.396 . S
C220 C221 1.397 . S
C221 C220 1.397 . S
C221 C222 1.385 1_545 S
C222 H205 0.940 . S
C222 C221 1.385 1_565 S
C222 C223 1.388 1_565 S
C223 H202 0.933 1_545 S
C223 C218 1.391 . S
C223 C222 1.388 1_545 S
P224 O235 1.490 . S
P224 C238 1.812 . S
P224 C244 1.803 . S
P224 C250 1.819 . S
H225 C239 0.941 . S
H226 C240 0.939 . S
H227 C242 0.940 . S
H228 C243 0.940 . S
H229 C245 0.939 . S
H230 C246 0.942 . S
H231 C248 0.940 . S
H232 C249 0.939 . S
H233 C251 0.941 . S
H234 C255 0.939 . S
O235 P224 1.490 . S
H236 C252 0.939 . S
H237 C254 0.940 . S
C238 P224 1.812 . S
C238 C239 1.389 . S
C238 C243 1.391 . S
C239 H225 0.941 . S
C239 C238 1.389 . S
C239 C240 1.397 . S
C240 H226 0.939 . S
C240 C239 1.397 . S
C240 C241 1.378 . S
C241 C240 1.378 . S
C241 C242 1.378 . S
C242 H227 0.940 . S
C242 C241 1.378 . S
C242 C243 1.396 . S
C243 H228 0.940 . S
C243 C238 1.391 . S
C243 C242 1.396 . S
C244 P224 1.803 . S
C244 C245 1.378 . S
C244 C249 1.400 . S
C245 H229 0.939 . S
C245 C244 1.378 . S
C245 C246 1.361 . S
C246 H230 0.942 . S
C246 C245 1.361 . S
C246 C247 1.369 . S
C247 C246 1.369 . S
C247 C248 1.404 . S
C248 H231 0.940 . S
C248 C247 1.404 . S
C248 C249 1.389 . S
C249 H232 0.939 . S
C249 C244 1.400 . S
C249 C248 1.389 . S
C250 P224 1.819 . S
C250 C251 1.391 . S
C250 C255 1.391 . S
C251 H233 0.941 . S
C251 C250 1.391 . S
C251 C252 1.396 . S
C252 H236 0.939 . S
C252 C251 1.396 . S
C252 C253 1.397 . S
C253 C252 1.397 . S
C253 C254 1.385 . S
C254 H237 0.940 . S
C254 C253 1.385 . S
C254 C255 1.388 . S
C255 H234 0.939 . S
C255 C250 1.391 . S
C255 C254 1.388 . S
Tb256 C265 2.764 . S
Tb256 O266 2.325 1_655 S
Tb256 O269 2.303 1_655 S
Tb256 O273 2.322 1_545 S
Tb256 O274 2.349 . S
Tb256 O277 2.415 1_655 S
Tb256 O278 2.399 . S
Tb257 O267 2.322 1_565 S
Tb257 O268 2.349 . S
Tb257 O270 2.415 . S
Tb257 O271 2.399 . S
Tb257 O272 2.325 . S
Tb257 O275 2.303 1_455 S
Tb257 C286 2.764 . S
C258 O274 1.261 . S
C258 O275 1.257 1_545 S
C259 C262 1.358 . S
C259 C263 1.330 . S
C259 C265 1.504 . S
C260 C261 1.373 . S
C260 C264 1.308 . S
C261 C260 1.373 . S
C261 C262 1.429 . S
C261 H288 0.932 . S
C262 C259 1.358 . S
C262 C261 1.429 . S
C262 H289 0.930 . S
C263 C259 1.330 . S
C263 C264 1.394 . S
C263 H290 0.934 1_655 S
C264 C260 1.308 . S
C264 C263 1.394 . S
C264 H291 0.929 1_655 S
C265 Tb256 2.764 . S
C265 C259 1.504 . S
C265 O277 1.239 1_655 S
C265 O278 1.263 . S
O266 Tb256 2.325 1_455 S
O266 C276 1.236 . S
O267 Tb257 2.322 1_545 S
O267 C276 1.257 . S
O268 Tb257 2.349 . S
O268 C279 1.261 . S
O269 Tb256 2.303 1_455 S
O269 C279 1.257 1_545 S
O270 Tb257 2.415 . S
O270 C286 1.239 . S
O271 Tb257 2.399 . S
O271 C286 1.263 . S
O272 Tb257 2.325 . S
O272 C287 1.236 1_455 S
O273 Tb256 2.322 1_565 S
O273 C287 1.257 . S
O274 Tb256 2.349 . S
O274 C258 1.261 . S
O275 Tb257 2.303 1_655 S
O275 C258 1.257 1_565 S
C276 O266 1.236 . S
C276 O267 1.257 . S
O277 Tb256 2.415 1_455 S
O277 C265 1.239 1_455 S
O278 Tb256 2.399 . S
O278 C265 1.263 . S
C279 O268 1.261 . S
C279 O269 1.257 1_565 S
C280 C283 1.358 . S
C280 C284 1.332 . S
C280 C286 1.504 . S
C281 C282 1.373 1_554 S
C281 C285 1.308 1_554 S
C282 C281 1.373 1_556 S
C282 C283 1.429 . S
C282 H292 0.932 . S
C283 C280 1.358 . S
C283 C282 1.429 . S
C283 H293 0.930 . S
C284 C280 1.332 . S
C284 C285 1.394 . S
C284 H294 0.932 1_455 S
C285 C281 1.308 1_556 S
C285 C284 1.394 . S
C285 H295 0.929 1_556 S
C286 Tb257 2.764 . S
C286 O270 1.239 . S
C286 O271 1.263 . S
C286 C280 1.504 . S
C287 O272 1.236 1_655 S
C287 O273 1.257 . S
H288 C261 0.932 . S
H289 C262 0.930 . S
H290 C263 0.934 1_455 S
H291 C264 0.929 1_455 S
H292 C282 0.932 . S
H293 C283 0.930 . S
H294 C284 0.932 1_655 S
H295 C285 0.929 1_554 S
Tb296 C305 2.764 . S
Tb296 O306 2.325 . S
Tb296 O309 2.303 1_565 S
Tb296 O313 2.322 . S
Tb296 O314 2.349 . S
Tb296 O317 2.415 1_565 S
Tb296 O318 2.399 . S
Tb297 O307 2.322 . S
Tb297 O308 2.349 . S
Tb297 O310 2.415 1_545 S
Tb297 O311 2.399 . S
Tb297 O312 2.325 . S
Tb297 O315 2.303 1_545 S
Tb297 C326 2.764 . S
C298 O314 1.261 . S
C298 O315 1.257 . S
C299 C302 1.358 . S
C299 C303 1.303 1_565 S
C299 C305 1.504 . S
C300 C301 1.373 . S
C300 C304 1.340 . S
C301 C300 1.373 . S
C301 C302 1.429 . S
C301 H328 0.932 . S
C302 C299 1.358 . S
C302 C301 1.429 . S
C302 H329 0.930 . S
C303 C299 1.303 1_545 S
C303 C304 1.398 1_545 S
C303 H330 0.961 . S
C304 C300 1.340 . S
C304 C303 1.398 1_565 S
C304 H331 0.896 1_565 S
C305 Tb296 2.764 . S
C305 C299 1.504 . S
C305 O317 1.239 1_565 S
C305 O318 1.263 . S
O306 Tb296 2.325 . S
O306 C316 1.236 1_565 S
O307 Tb297 2.322 . S
O307 C316 1.257 . S
O308 Tb297 2.349 . S
O308 C319 1.261 . S
O309 Tb296 2.303 1_545 S
O309 C319 1.257 . S
O310 Tb297 2.415 1_565 S
O310 C326 1.239 1_565 S
O311 Tb297 2.399 . S
O311 C326 1.263 . S
O312 Tb297 2.325 . S
O312 C327 1.236 1_545 S
O313 Tb296 2.322 . S
O313 C327 1.257 . S
O314 Tb296 2.349 . S
O314 C298 1.261 . S
O315 Tb297 2.303 1_565 S
O315 C298 1.257 . S
C316 O306 1.236 1_545 S
C316 O307 1.257 . S
O317 Tb296 2.415 1_545 S
O317 C305 1.239 1_545 S
O318 Tb296 2.399 . S
O318 C305 1.263 . S
C319 O308 1.261 . S
C319 O309 1.257 . S
C320 C323 1.358 1_556 S
C320 C324 1.312 1_545 S
C320 C326 1.504 . S
C321 C322 1.373 . S
C321 C325 1.308 . S
C322 C321 1.373 . S
C322 C323 1.429 . S
C322 H332 0.932 . S
C323 C320 1.358 1_554 S
C323 C322 1.429 . S
C323 H333 0.930 . S
C324 C320 1.312 1_565 S
C324 C325 1.395 1_566 S
C324 H334 0.952 . S
C325 C321 1.308 . S
C325 C324 1.395 1_544 S
C325 H335 0.929 1_545 S
C326 Tb297 2.764 . S
C326 O310 1.239 1_545 S
C326 O311 1.263 . S
C326 C320 1.504 . S
C327 O312 1.236 1_565 S
C327 O313 1.257 . S
H328 C301 0.932 . S
H329 C302 0.930 . S
H330 C303 0.961 . S
H331 C304 0.896 1_545 S
H332 C322 0.932 . S
H333 C323 0.930 . S
H334 C324 0.952 . S
H335 C325 0.929 1_565 S
Tb336 C345 2.764 . S
Tb336 O346 2.325 . S
Tb336 O349 2.303 . S
Tb336 O353 2.322 . S
Tb336 O354 2.349 . S
Tb336 O357 2.415 . S
Tb336 O358 2.399 . S
Tb337 O347 2.322 . S
Tb337 O348 2.349 . S
Tb337 O350 2.415 . S
Tb337 O351 2.399 . S
Tb337 O352 2.325 . S
Tb337 O355 2.303 . S
Tb337 C366 2.764 . S
C338 O354 1.261 . S
C338 O355 1.257 . S
C339 C342 1.358 . S
C339 C343 1.332 . S
C339 C345 1.504 1_554 S
C340 C341 1.373 . S
C340 C344 1.308 . S
C341 C340 1.373 . S
C341 C342 1.429 . S
C341 H368 0.932 . S
C342 C339 1.358 . S
C342 C341 1.429 . S
C342 H369 0.930 1_554 S
C343 C339 1.332 . S
C343 C344 1.394 . S
C343 H370 0.932 . S
C344 C340 1.308 . S
C344 C343 1.394 . S
C344 H371 0.929 . S
C345 Tb336 2.764 . S
C345 C339 1.504 1_556 S
C345 O357 1.239 . S
C345 O358 1.263 . S
O346 Tb336 2.325 . S
O346 C356 1.236 . S
O347 Tb337 2.322 . S
O347 C356 1.257 . S
O348 Tb337 2.349 . S
O348 C359 1.261 . S
O349 Tb336 2.303 . S
O349 C359 1.257 . S
O350 Tb337 2.415 . S
O350 C366 1.239 . S
O351 Tb337 2.399 . S
O351 C366 1.263 . S
O352 Tb337 2.325 . S
O352 C367 1.236 . S
O353 Tb336 2.322 . S
O353 C367 1.257 . S
O354 Tb336 2.349 . S
O354 C338 1.261 . S
O355 Tb337 2.303 . S
O355 C338 1.257 . S
C356 O346 1.236 . S
C356 O347 1.257 . S
O357 Tb336 2.415 . S
O357 C345 1.239 . S
O358 Tb336 2.399 . S
O358 C345 1.263 . S
C359 O348 1.261 . S
C359 O349 1.257 . S
C360 C363 1.358 . S
C360 C364 1.332 . S
C360 C366 1.504 . S
C361 C362 1.373 . S
C361 C365 1.308 . S
C362 C361 1.373 . S
C362 C363 1.429 . S
C362 H372 0.932 . S
C363 C360 1.358 . S
C363 C362 1.429 . S
C363 H373 0.930 . S
C364 C360 1.332 . S
C364 C365 1.394 . S
C364 H374 0.932 . S
C365 C361 1.308 . S
C365 C364 1.394 . S
C365 H375 0.929 . S
C366 Tb337 2.764 . S
C366 O350 1.239 . S
C366 O351 1.263 . S
C366 C360 1.504 . S
C367 O352 1.236 . S
C367 O353 1.257 . S
H368 C341 0.932 . S
H369 C342 0.930 1_556 S
H370 C343 0.932 . S
H371 C344 0.929 . S
H372 C362 0.932 . S
H373 C363 0.930 . S
H374 C364 0.932 . S
H375 C365 0.929 . S
Tb376 C385 2.764 . S
Tb376 O386 2.325 . S
Tb376 O389 2.303 . S
Tb376 O393 2.322 1_455 S
Tb376 O394 2.349 . S
Tb376 O397 2.415 . S
Tb376 O398 2.399 . S
Tb377 O387 2.322 1_655 S
Tb377 O388 2.349 . S
Tb377 O390 2.415 . S
Tb377 O391 2.399 . S
Tb377 O392 2.325 . S
Tb377 O395 2.303 1_655 S
Tb377 C406 2.764 . S
C378 O394 1.261 . S
C378 O395 1.257 . S
C379 C382 1.358 . S
C379 C383 1.332 . S
C379 C385 1.504 . S
C380 C381 1.373 . S
C380 C384 1.308 . S
C381 C380 1.373 . S
C381 C382 1.429 . S
C381 H408 0.932 . S
C382 C379 1.358 . S
C382 C381 1.429 . S
C382 H409 0.930 . S
C383 C379 1.332 . S
C383 C384 1.394 . S
C383 H410 0.932 . S
C384 C380 1.308 . S
C384 C383 1.394 . S
C384 H411 0.929 . S
C385 Tb376 2.764 . S
C385 C379 1.504 . S
C385 O397 1.239 . S
C385 O398 1.263 . S
O386 Tb376 2.325 . S
O386 C396 1.236 . S
O387 Tb377 2.322 1_455 S
O387 C396 1.257 . S
O388 Tb377 2.349 . S
O388 C399 1.261 1_655 S
O389 Tb376 2.303 . S
O389 C399 1.257 . S
O390 Tb377 2.415 . S
O390 C406 1.239 . S
O391 Tb377 2.399 . S
O391 C406 1.263 . S
O392 Tb377 2.325 . S
O392 C407 1.236 . S
O393 Tb376 2.322 1_655 S
O393 C407 1.257 . S
O394 Tb376 2.349 . S
O394 C378 1.261 . S
O395 Tb377 2.303 1_455 S
O395 C378 1.257 . S
C396 O386 1.236 . S
C396 O387 1.257 . S
O397 Tb376 2.415 . S
O397 C385 1.239 . S
O398 Tb376 2.399 . S
O398 C385 1.263 . S
C399 O388 1.261 1_455 S
C399 O389 1.257 . S
C400 C403 1.358 . S
C400 C404 1.332 . S
C400 C406 1.504 . S
C401 C402 1.373 . S
C401 C405 1.308 . S
C402 C401 1.373 . S
C402 C403 1.429 1_554 S
C402 H412 0.932 . S
C403 C400 1.358 . S
C403 C402 1.429 1_556 S
C403 H413 0.930 . S
C404 C400 1.332 . S
C404 C405 1.394 1_556 S
C404 H414 0.932 . S
C405 C401 1.308 . S
C405 C404 1.394 1_554 S
C405 H415 0.929 . S
C406 Tb377 2.764 . S
C406 O390 1.239 . S
C406 O391 1.263 . S
C406 C400 1.504 . S
C407 O392 1.236 . S
C407 O393 1.257 . S
H408 C381 0.932 . S
H409 C382 0.930 . S
H410 C383 0.932 . S
H411 C384 0.929 . S
H412 C402 0.932 . S
H413 C403 0.930 . S
H414 C404 0.932 . S
H415 C405 0.929 . S
H416 C428 0.930 . S
H417 C430 0.930 . S
H418 C431 0.930 . S
H419 C435 0.959 . S
H420 C435 0.959 . S
H421 C435 0.961 . S
H422 C436 0.960 . S
H423 C436 0.961 . S
H424 C436 0.959 . S
H425 C439 0.929 . S
H426 C440 0.931 . S
H427 C442 0.930 . S
C428 H416 0.930 . S
C428 C429 1.399 1_545 S
C428 C433 1.399 . S
C429 C428 1.399 1_565 S
C429 C430 1.376 . S
C430 H417 0.930 . S
C430 C429 1.376 . S
C430 C431 1.388 . S
C431 H418 0.930 . S
C431 C430 1.388 . S
C431 C432 1.390 . S
C432 C431 1.390 . S
C432 C433 1.394 1_565 S
C432 C438 1.465 . S
C433 C428 1.399 . S
C433 C432 1.394 1_545 S
C433 C434 1.516 . S
C434 C433 1.516 . S
C434 C435 1.502 . S
C434 C436 1.561 . S
C434 C437 1.526 . S
C435 H419 0.959 . S
C435 H420 0.959 . S
C435 H421 0.961 . S
C435 C434 1.502 . S
C436 H422 0.960 . S
C436 H423 0.961 . S
C436 H424 0.959 . S
C436 C434 1.561 . S
C437 C434 1.526 . S
C437 C438 1.396 1_545 S
C437 C442 1.390 . S
C438 C432 1.465 . S
C438 C437 1.396 1_565 S
C438 C439 1.399 . S
C439 H425 0.929 . S
C439 C438 1.399 . S
C439 C440 1.385 . S
C440 H426 0.931 . S
C440 C439 1.385 . S
C440 C441 1.423 . S
C441 C440 1.423 . S
C441 C442 1.354 1_565 S
C442 H427 0.930 . S
C442 C437 1.390 . S
C442 C441 1.354 1_545 S
H443 C455 0.930 . S
H444 C457 0.930 . S
H445 C458 0.930 . S
H446 C462 0.959 . S
H447 C462 0.959 . S
H448 C462 0.961 . S
H449 C463 0.960 . S
H450 C463 0.961 . S
H451 C463 0.959 . S
H452 C466 0.929 . S
H453 C467 0.931 . S
H454 C469 0.930 . S
C455 H443 0.930 . S
C455 C456 1.399 . S
C455 C460 1.399 . S
C456 C455 1.399 . S
C456 C457 1.376 . S
C457 H444 0.930 . S
C457 C456 1.376 . S
C457 C458 1.388 . S
C458 H445 0.930 . S
C458 C457 1.388 . S
C458 C459 1.390 . S
C459 C458 1.390 . S
C459 C460 1.394 . S
C459 C465 1.465 . S
C460 C455 1.399 . S
C460 C459 1.394 . S
C460 C461 1.516 . S
C461 C460 1.516 . S
C461 C462 1.502 . S
C461 C463 1.561 . S
C461 C464 1.526 . S
C462 H446 0.959 . S
C462 H447 0.959 . S
C462 H448 0.961 . S
C462 C461 1.502 . S
C463 H449 0.960 . S
C463 H450 0.961 . S
C463 H451 0.959 . S
C463 C461 1.561 . S
C464 C461 1.526 . S
C464 C465 1.396 . S
C464 C469 1.390 . S
C465 C459 1.465 . S
C465 C464 1.396 . S
C465 C466 1.399 . S
C466 H452 0.929 . S
C466 C465 1.399 . S
C466 C467 1.385 . S
C467 H453 0.931 . S
C467 C466 1.385 . S
C467 C468 1.389 . S
C468 C467 1.389 . S
C468 C469 1.387 . S
C469 H454 0.930 . S
C469 C464 1.390 . S
C469 C468 1.387 . S
H470 C482 0.930 . S
H471 C484 0.930 . S
H472 C485 0.930 . S
H473 C489 0.959 . S
H474 C489 0.959 . S
H475 C489 0.961 . S
H476 C490 0.960 . S
H477 C490 0.961 . S
H478 C490 0.959 . S
H479 C493 0.929 . S
H480 C494 0.931 . S
H481 C496 0.930 . S
C482 H470 0.930 . S
C482 C483 1.399 . S
C482 C487 1.399 . S
C483 C482 1.399 . S
C483 C484 1.376 . S
C484 H471 0.930 . S
C484 C483 1.376 . S
C484 C485 1.388 . S
C485 H472 0.930 . S
C485 C484 1.388 . S
C485 C486 1.390 . S
C486 C485 1.390 . S
C486 C487 1.394 . S
C486 C492 1.465 . S
C487 C482 1.399 . S
C487 C486 1.394 . S
C487 C488 1.516 . S
C488 C487 1.516 . S
C488 C489 1.502 . S
C488 C490 1.561 . S
C488 C491 1.526 . S
C489 H473 0.959 . S
C489 H474 0.959 . S
C489 H475 0.961 . S
C489 C488 1.502 . S
C490 H476 0.960 . S
C490 H477 0.961 . S
C490 H478 0.959 . S
C490 C488 1.561 . S
C491 C488 1.526 . S
C491 C492 1.396 . S
C491 C496 1.390 . S
C492 C486 1.465 . S
C492 C491 1.396 . S
C492 C493 1.399 . S
C493 H479 0.929 . S
C493 C492 1.399 . S
C493 C494 1.385 . S
C494 H480 0.931 . S
C494 C493 1.385 . S
C494 C495 1.389 . S
C495 C494 1.389 . S
C495 C496 1.387 . S
C496 H481 0.930 . S
C496 C491 1.390 . S
C496 C495 1.387 . S
H497 C509 0.930 . S
H498 C511 0.930 . S
H499 C512 0.930 . S
H500 C516 0.959 . S
H501 C516 0.959 . S
H502 C516 0.961 . S
H503 C517 0.960 . S
H504 C517 0.961 . S
H505 C517 0.959 . S
H506 C520 0.929 . S
H507 C521 0.931 . S
H508 C523 0.930 . S
C509 H497 0.930 . S
C509 C510 1.399 . S
C509 C514 1.399 . S
C510 C509 1.399 . S
C510 C511 1.376 . S
C511 H498 0.930 . S
C511 C510 1.376 . S
C511 C512 1.388 . S
C512 H499 0.930 . S
C512 C511 1.388 . S
C512 C513 1.390 . S
C513 C512 1.390 . S
C513 C514 1.394 . S
C513 C519 1.465 . S
C514 C509 1.399 . S
C514 C513 1.394 . S
C514 C515 1.516 . S
C515 C514 1.516 . S
C515 C516 1.502 . S
C515 C517 1.561 1_455 S
C515 C518 1.526 . S
C516 H500 0.959 . S
C516 H501 0.959 . S
C516 H502 0.961 . S
C516 C515 1.502 . S
C517 H503 0.960 . S
C517 H504 0.961 . S
C517 H505 0.959 . S
C517 C515 1.561 1_655 S
C518 C515 1.526 . S
C518 C519 1.396 . S
C518 C523 1.390 . S
C519 C513 1.465 . S
C519 C518 1.396 . S
C519 C520 1.399 . S
C520 H506 0.929 . S
C520 C519 1.399 . S
C520 C521 1.385 . S
C521 H507 0.931 . S
C521 C520 1.385 . S
C521 C522 1.389 . S
C522 C521 1.389 . S
C522 C523 1.387 . S
C523 H508 0.930 . S
C523 C518 1.390 . S
C523 C522 1.387 . S
H524 C536 0.930 . S
H525 C538 0.930 . S
H526 C539 0.930 . S
H527 C543 0.959 1_545 S
H528 C543 0.959 . S
H529 C543 0.961 . S
H530 C544 0.960 . S
H531 C544 0.961 . S
H532 C544 0.959 . S
H533 C547 0.929 . S
H534 C548 0.931 . S
H535 C550 0.930 . S
C536 H524 0.930 . S
C536 C537 1.399 . S
C536 C541 1.399 . S
C537 C536 1.399 . S
C537 C538 1.377 1_565 S
C538 H525 0.930 . S
C538 C537 1.377 1_545 S
C538 C539 1.388 . S
C539 H526 0.930 . S
C539 C538 1.388 . S
C539 C540 1.390 . S
C540 C539 1.390 . S
C540 C541 1.394 1_545 S
C540 C546 1.465 . S
C541 C536 1.399 . S
C541 C540 1.394 1_565 S
C541 C542 1.516 . S
C542 C541 1.516 . S
C542 C543 1.502 . S
C542 C544 1.561 . S
C542 C545 1.526 . S
C543 H527 0.959 1_565 S
C543 H528 0.959 . S
C543 H529 0.961 . S
C543 C542 1.502 . S
C544 H530 0.960 . S
C544 H531 0.961 . S
C544 H532 0.959 . S
C544 C542 1.561 . S
C545 C542 1.526 . S
C545 C546 1.396 1_565 S
C545 C550 1.390 . S
C546 C540 1.465 . S
C546 C545 1.396 1_545 S
C546 C547 1.399 . S
C547 H533 0.929 . S
C547 C546 1.399 . S
C547 C548 1.385 1_554 S
C548 H534 0.931 . S
C548 C547 1.385 1_556 S
C548 C549 1.383 1_545 S
C549 C548 1.383 1_565 S
C549 C550 1.395 1_556 S
C550 H535 0.930 . S
C550 C545 1.390 . S
C550 C549 1.395 1_554 S
H551 C563 0.930 . S
H552 C565 0.929 . S
H553 C566 0.930 1_554 S
H554 C570 0.959 . S
H555 C570 0.959 . S
H556 C570 0.961 . S
H557 C571 0.960 . S
H558 C571 0.961 . S
H559 C571 0.959 . S
H560 C574 0.929 . S
H561 C575 0.931 . S
H562 C577 0.930 . S
C563 H551 0.930 . S
C563 C564 1.399 . S
C563 C568 1.399 . S
C564 C563 1.399 . S
C564 C565 1.377 1_556 S
C565 H552 0.929 . S
C565 C564 1.377 1_554 S
C565 C566 1.389 1_554 S
C566 H553 0.930 1_556 S
C566 C565 1.389 1_556 S
C566 C567 1.390 . S
C567 C566 1.390 . S
C567 C568 1.394 . S
C567 C573 1.465 . S
C568 C563 1.399 . S
C568 C567 1.394 . S
C568 C569 1.516 . S
C569 C568 1.516 . S
C569 C570 1.502 . S
C569 C571 1.561 . S
C569 C572 1.526 . S
C570 H554 0.959 . S
C570 H555 0.959 . S
C570 H556 0.961 . S
C570 C569 1.502 . S
C571 H557 0.960 . S
C571 H558 0.961 . S
C571 H559 0.959 . S
C571 C569 1.561 . S
C572 C569 1.526 . S
C572 C573 1.396 . S
C572 C577 1.390 . S
C573 C567 1.465 . S
C573 C572 1.396 . S
C573 C574 1.399 . S
C574 H560 0.929 . S
C574 C573 1.399 . S
C574 C575 1.385 . S
C575 H561 0.931 . S
C575 C574 1.385 . S
C575 C576 1.389 . S
C576 C575 1.389 . S
C576 C577 1.387 . S
C577 H562 0.930 . S
C577 C572 1.390 . S
C577 C576 1.387 . S
H578 C590 0.930 . S
H579 C592 0.930 . S
H580 C593 0.930 . S
H581 C597 0.959 . S
H582 C597 0.959 . S
H583 C597 0.961 . S
H584 C598 0.960 . S
H585 C598 0.961 . S
H586 C598 0.959 . S
H587 C601 0.929 . S
H588 C602 0.931 . S
H589 C604 0.930 . S
C590 H578 0.930 . S
C590 C591 1.399 . S
C590 C595 1.399 . S
C591 C590 1.399 . S
C591 C592 1.376 . S
C592 H579 0.930 . S
C592 C591 1.376 . S
C592 C593 1.388 . S
C593 H580 0.930 . S
C593 C592 1.388 . S
C593 C594 1.390 . S
C594 C593 1.390 . S
C594 C595 1.394 . S
C594 C600 1.465 . S
C595 C590 1.399 . S
C595 C594 1.394 . S
C595 C596 1.516 . S
C596 C595 1.516 . S
C596 C597 1.502 . S
C596 C598 1.561 . S
C596 C599 1.526 . S
C597 H581 0.959 . S
C597 H582 0.959 . S
C597 H583 0.961 . S
C597 C596 1.502 . S
C598 H584 0.960 . S
C598 H585 0.961 . S
C598 H586 0.959 . S
C598 C596 1.561 . S
C599 C596 1.526 . S
C599 C600 1.396 . S
C599 C604 1.390 . S
C600 C594 1.465 . S
C600 C599 1.396 . S
C600 C601 1.399 . S
C601 H587 0.929 . S
C601 C600 1.399 . S
C601 C602 1.385 1_554 S
C602 H588 0.931 . S
C602 C601 1.385 1_556 S
C602 C603 1.389 . S
C603 C602 1.389 . S
C603 C604 1.387 1_556 S
C604 H589 0.930 . S
C604 C599 1.390 . S
C604 C603 1.387 1_554 S
H605 C617 0.930 . S
H606 C619 0.930 . S
H607 C620 0.930 . S
H608 C624 0.959 . S
H609 C624 0.959 . S
H610 C624 0.961 . S
H611 C625 0.960 . S
H612 C625 0.961 1_455 S
H613 C625 0.959 . S
H614 C628 0.929 . S
H615 C629 0.931 . S
H616 C631 0.930 . S
C617 H605 0.930 . S
C617 C618 1.399 1_455 S
C617 C622 1.397 1_455 S
C618 C617 1.399 1_655 S
C618 C619 1.376 . S
C619 H606 0.930 . S
C619 C618 1.376 . S
C619 C620 1.388 . S
C620 H607 0.930 . S
C620 C619 1.388 . S
C620 C621 1.390 . S
C621 C620 1.390 . S
C621 C622 1.412 . S
C621 C627 1.465 . S
C622 C617 1.397 1_655 S
C622 C621 1.412 . S
C622 C623 1.504 1_655 S
C623 C622 1.504 1_455 S
C623 C624 1.502 . S
C623 C625 1.561 1_455 S
C623 C626 1.526 . S
C624 H608 0.959 . S
C624 H609 0.959 . S
C624 H610 0.961 . S
C624 C623 1.502 . S
C625 H611 0.960 . S
C625 H612 0.961 1_655 S
C625 H613 0.959 . S
C625 C623 1.561 1_655 S
C626 C623 1.526 . S
C626 C627 1.396 1_455 S
C626 C631 1.390 1_554 S
C627 C621 1.465 . S
C627 C626 1.396 1_655 S
C627 C628 1.399 1_554 S
C628 H614 0.929 . S
C628 C627 1.399 1_556 S
C628 C629 1.385 . S
C629 H615 0.931 . S
C629 C628 1.385 . S
C629 C630 1.416 . S
C630 C629 1.416 . S
C630 C631 1.371 1_655 S
C631 H616 0.930 . S
C631 C626 1.390 1_556 S
C631 C630 1.371 1_455 S
H632 C644 0.930 . S
H633 C646 0.929 1_655 S
H634 C647 0.930 . S
H635 C651 0.959 . S
H636 C651 0.959 . S
H637 C651 0.961 . S
H638 C652 0.960 . S
H639 C652 0.961 . S
H640 C652 0.959 1_655 S
H641 C655 0.929 . S
H642 C656 0.931 . S
H643 C658 0.930 1_455 S
C644 H632 0.930 . S
C644 C645 1.399 . S
C644 C649 1.399 . S
C645 C644 1.399 . S
C645 C646 1.381 . S
C646 H633 0.929 1_455 S
C646 C645 1.381 . S
C646 C647 1.386 1_455 S
C647 H634 0.930 . S
C647 C646 1.386 1_655 S
C647 C648 1.390 . S
C648 C647 1.390 . S
C648 C649 1.394 1_655 S
C648 C654 1.465 . S
C649 C644 1.399 . S
C649 C648 1.394 1_455 S
C649 C650 1.516 . S
C650 C649 1.516 . S
C650 C651 1.502 . S
C650 C652 1.561 . S
C650 C653 1.526 1_455 S
C651 H635 0.959 . S
C651 H636 0.959 . S
C651 H637 0.961 . S
C651 C650 1.502 . S
C652 H638 0.960 . S
C652 H639 0.961 . S
C652 H640 0.959 1_455 S
C652 C650 1.561 . S
C653 C650 1.526 1_655 S
C653 C654 1.396 . S
C653 C658 1.390 . S
C654 C648 1.465 . S
C654 C653 1.396 . S
C654 C655 1.399 . S
C655 H641 0.929 . S
C655 C654 1.399 . S
C655 C656 1.385 . S
C656 H642 0.931 . S
C656 C655 1.385 . S
C656 C657 1.389 . S
C657 C656 1.389 . S
C657 C658 1.387 . S
C658 H643 0.930 1_655 S
C658 C653 1.390 . S
C658 C657 1.387 . S
H659 C671 0.930 . S
H660 C673 0.930 . S
H661 C674 0.930 . S
H662 C678 0.959 . S
H663 C678 0.959 . S
H664 C678 0.961 . S
H665 C679 0.960 . S
H666 C679 0.961 . S
H667 C679 0.959 . S
H668 C682 0.929 . S
H669 C683 0.931 . S
H670 C685 0.930 1_545 S
C671 H659 0.930 . S
C671 C672 1.425 . S
C671 C676 1.399 . S
C672 C671 1.425 . S
C672 C673 1.327 1_545 S
C673 H660 0.930 . S
C673 C672 1.327 1_565 S
C673 C674 1.388 . S
C674 H661 0.930 . S
C674 C673 1.388 . S
C674 C675 1.390 . S
C675 C674 1.390 . S
C675 C676 1.394 1_565 S
C675 C681 1.465 . S
C676 C671 1.399 . S
C676 C675 1.394 1_545 S
C676 C677 1.516 . S
C677 C676 1.516 . S
C677 C678 1.502 . S
C677 C679 1.561 . S
C677 C680 1.526 1_545 S
C678 H662 0.959 . S
C678 H663 0.959 . S
C678 H664 0.961 . S
C678 C677 1.502 . S
C679 H665 0.960 . S
C679 H666 0.961 . S
C679 H667 0.959 . S
C679 C677 1.561 . S
C680 C677 1.526 1_565 S
C680 C681 1.396 . S
C680 C685 1.390 . S
C681 C675 1.465 . S
C681 C680 1.396 . S
C681 C682 1.399 . S
C682 H668 0.929 . S
C682 C681 1.399 . S
C682 C683 1.385 . S
C683 H669 0.931 . S
C683 C682 1.385 . S
C683 C684 1.389 . S
C684 C683 1.389 . S
C684 C685 1.387 . S
C685 H670 0.930 1_565 S
C685 C680 1.390 . S
C685 C684 1.387 . S
H686 C698 0.930 . S
H687 C700 0.930 . S
H688 C701 0.930 . S
H689 C705 0.959 . S
H690 C705 0.959 . S
H691 C705 0.961 . S
H692 C706 0.960 . S
H693 C706 0.961 . S
H694 C706 0.959 . S
H695 C709 0.929 . S
H696 C710 0.931 . S
H697 C712 0.930 . S
C698 H686 0.930 . S
C698 C699 1.399 . S
C698 C703 1.399 . S
C699 C698 1.399 . S
C699 C700 1.376 . S
C700 H687 0.930 . S
C700 C699 1.376 . S
C700 C701 1.388 . S
C701 H688 0.930 . S
C701 C700 1.388 . S
C701 C702 1.390 . S
C702 C701 1.390 . S
C702 C703 1.394 . S
C702 C708 1.465 . S
C703 C698 1.399 . S
C703 C702 1.394 . S
C703 C704 1.516 . S
C704 C703 1.516 . S
C704 C705 1.502 . S
C704 C706 1.561 . S
C704 C707 1.526 . S
C705 H689 0.959 . S
C705 H690 0.959 . S
C705 H691 0.961 . S
C705 C704 1.502 . S
C706 H692 0.960 . S
C706 H693 0.961 . S
C706 H694 0.959 . S
C706 C704 1.561 . S
C707 C704 1.526 . S
C707 C708 1.396 . S
C707 C712 1.390 . S
C708 C702 1.465 . S
C708 C707 1.396 . S
C708 C709 1.399 . S
C709 H695 0.929 . S
C709 C708 1.399 . S
C709 C710 1.385 . S
C710 H696 0.931 . S
C710 C709 1.385 . S
C710 C711 1.389 . S
C711 C710 1.389 . S
C711 C712 1.387 . S
C712 H697 0.930 . S
C712 C707 1.390 . S
C712 C711 1.387 . S
H713 C725 0.930 . S
H714 C727 0.930 . S
H715 C728 0.930 . S
H716 C732 0.959 . S
H717 C732 0.959 . S
H718 C732 0.961 . S
H719 C733 0.960 . S
H720 C733 0.961 . S
H721 C733 0.959 . S
H722 C736 0.929 . S
H723 C737 0.931 . S
H724 C739 0.930 . S
C725 H713 0.930 . S
C725 C726 1.399 . S
C725 C730 1.399 . S
C726 C725 1.399 . S
C726 C727 1.376 . S
C727 H714 0.930 . S
C727 C726 1.376 . S
C727 C728 1.388 . S
C728 H715 0.930 . S
C728 C727 1.388 . S
C728 C729 1.390 . S
C729 C728 1.390 . S
C729 C730 1.394 . S
C729 C735 1.465 . S
C730 C725 1.399 . S
C730 C729 1.394 . S
C730 C731 1.516 . S
C731 C730 1.516 . S
C731 C732 1.502 . S
C731 C733 1.561 . S
C731 C734 1.526 . S
C732 H716 0.959 . S
C732 H717 0.959 . S
C732 H718 0.961 . S
C732 C731 1.502 . S
C733 H719 0.960 . S
C733 H720 0.961 . S
C733 H721 0.959 . S
C733 C731 1.561 . S
C734 C731 1.526 . S
C734 C735 1.396 . S
C734 C739 1.390 . S
C735 C729 1.465 . S
C735 C734 1.396 . S
C735 C736 1.399 . S
C736 H722 0.929 . S
C736 C735 1.399 . S
C736 C737 1.385 . S
C737 H723 0.931 . S
C737 C736 1.385 . S
C737 C738 1.389 . S
C738 C737 1.389 . S
C738 C739 1.387 . S
C739 H724 0.930 . S
C739 C734 1.390 . S
C739 C738 1.387 . S
H740 C752 0.930 1_455 S
H741 C754 0.930 . S
H742 C755 0.930 . S
H743 C759 0.959 . S
H744 C759 0.959 1_556 S
H745 C759 0.961 . S
H746 C760 0.949 1_655 S
H747 C760 0.977 . S
H748 C760 0.932 1_655 S
H749 C763 0.929 . S
H750 C764 0.931 . S
H751 C766 0.930 1_556 S
C752 H740 0.930 1_655 S
C752 C753 1.397 . S
C752 C757 1.400 1_655 S
C753 C752 1.397 . S
C753 C754 1.376 . S
C754 H741 0.930 . S
C754 C753 1.376 . S
C754 C755 1.388 . S
C755 H742 0.930 . S
C755 C754 1.388 . S
C755 C756 1.390 1_655 S
C756 C755 1.390 1_455 S
C756 C757 1.394 . S
C756 C762 1.465 . S
C757 C752 1.400 1_455 S
C757 C756 1.394 . S
C757 C758 1.516 . S
C758 C757 1.516 . S
C758 C759 1.502 . S
C758 C760 1.585 1_554 S
C758 C761 1.526 . S
C759 H743 0.959 . S
C759 H744 0.959 1_554 S
C759 H745 0.961 . S
C759 C758 1.502 . S
C760 H746 0.949 1_455 S
C760 H747 0.977 . S
C760 H748 0.932 1_455 S
C760 C758 1.585 1_556 S
C761 C758 1.526 . S
C761 C762 1.396 . S
C761 C766 1.390 . S
C762 C756 1.465 . S
C762 C761 1.396 . S
C762 C763 1.399 . S
C763 H749 0.929 . S
C763 C762 1.399 . S
C763 C764 1.385 . S
C764 H750 0.931 . S
C764 C763 1.385 . S
C764 C765 1.389 . S
C765 C764 1.389 . S
C765 C766 1.387 . S
C766 H751 0.930 1_554 S
C766 C761 1.390 . S
C766 C765 1.387 . S
H767 C779 0.930 . S
H768 C781 0.930 . S
H769 C782 0.930 . S
H770 C786 0.959 . S
H771 C786 0.959 . S
H772 C786 0.961 . S
H773 C787 0.960 . S
H774 C787 0.961 . S
H775 C787 0.959 . S
H776 C790 0.929 . S
H777 C791 0.931 . S
H778 C793 0.930 1_565 S
C779 H767 0.930 . S
C779 C780 1.401 1_565 S
C779 C784 1.399 . S
C780 C779 1.401 1_545 S
C780 C781 1.372 . S
C781 H768 0.930 . S
C781 C780 1.372 . S
C781 C782 1.388 . S
C782 H769 0.930 . S
C782 C781 1.388 . S
C782 C783 1.390 . S
C783 C782 1.390 . S
C783 C784 1.394 1_545 S
C783 C789 1.465 . S
C784 C779 1.399 . S
C784 C783 1.394 1_565 S
C784 C785 1.516 . S
C785 C784 1.516 . S
C785 C786 1.502 . S
C785 C787 1.561 . S
C785 C788 1.526 1_565 S
C786 H770 0.959 . S
C786 H771 0.959 . S
C786 H772 0.961 . S
C786 C785 1.502 . S
C787 H773 0.960 . S
C787 H774 0.961 . S
C787 H775 0.959 . S
C787 C785 1.561 . S
C788 C785 1.526 1_545 S
C788 C789 1.396 . S
C788 C793 1.390 . S
C789 C783 1.465 . S
C789 C788 1.396 . S
C789 C790 1.399 . S
C790 H776 0.929 . S
C790 C789 1.399 . S
C790 C791 1.385 . S
C791 H777 0.931 . S
C791 C790 1.385 . S
C791 C792 1.389 . S
C792 C791 1.389 . S
C792 C793 1.387 . S
C793 H778 0.930 1_545 S
C793 C788 1.390 . S
C793 C792 1.387 . S
H794 C806 0.930 . S
H795 C808 0.930 . S
H796 C809 0.930 . S
H797 C813 0.959 . S
H798 C813 0.959 . S
H799 C813 0.961 . S
H800 C814 0.960 . S
H801 C814 0.961 . S
H802 C814 0.959 . S
H803 C817 0.929 . S
H804 C818 0.931 . S
H805 C820 0.930 . S
C806 H794 0.930 . S
C806 C807 1.399 . S
C806 C811 1.399 . S
C807 C806 1.399 . S
C807 C808 1.376 . S
C808 H795 0.930 . S
C808 C807 1.376 . S
C808 C809 1.388 . S
C809 H796 0.930 . S
C809 C808 1.388 . S
C809 C810 1.390 . S
C810 C809 1.390 . S
C810 C811 1.394 . S
C810 C816 1.465 . S
C811 C806 1.399 . S
C811 C810 1.394 . S
C811 C812 1.516 . S
C812 C811 1.516 . S
C812 C813 1.502 . S
C812 C814 1.561 . S
C812 C815 1.526 . S
C813 H797 0.959 . S
C813 H798 0.959 . S
C813 H799 0.961 . S
C813 C812 1.502 . S
C814 H800 0.960 . S
C814 H801 0.961 . S
C814 H802 0.959 . S
C814 C812 1.561 . S
C815 C812 1.526 . S
C815 C816 1.396 . S
C815 C820 1.390 . S
C816 C810 1.465 . S
C816 C815 1.396 . S
C816 C817 1.399 . S
C817 H803 0.929 . S
C817 C816 1.399 . S
C817 C818 1.385 . S
C818 H804 0.931 . S
C818 C817 1.385 . S
C818 C819 1.389 . S
C819 C818 1.389 . S
C819 C820 1.387 . S
C820 H805 0.930 . S
C820 C815 1.390 . S
C820 C819 1.387 . S
H821 C833 0.930 . S
H822 C835 0.930 . S
H823 C836 0.930 . S
H824 C840 0.959 . S
H825 C840 0.959 . S
H826 C840 0.961 . S
H827 C841 0.960 . S
H828 C841 0.961 . S
H829 C841 0.959 . S
H830 C844 0.929 . S
H831 C845 0.931 . S
H832 C847 0.930 . S
C833 H821 0.930 . S
C833 C834 1.399 . S
C833 C838 1.399 . S
C834 C833 1.399 . S
C834 C835 1.376 . S
C835 H822 0.930 . S
C835 C834 1.376 . S
C835 C836 1.388 . S
C836 H823 0.930 . S
C836 C835 1.388 . S
C836 C837 1.390 . S
C837 C836 1.390 . S
C837 C838 1.394 . S
C837 C843 1.465 . S
C838 C833 1.399 . S
C838 C837 1.394 . S
C838 C839 1.516 . S
C839 C838 1.516 . S
C839 C840 1.502 . S
C839 C841 1.561 . S
C839 C842 1.526 . S
C840 H824 0.959 . S
C840 H825 0.959 . S
C840 H826 0.961 . S
C840 C839 1.502 . S
C841 H827 0.960 . S
C841 H828 0.961 . S
C841 H829 0.959 . S
C841 C839 1.561 . S
C842 C839 1.526 . S
C842 C843 1.396 . S
C842 C847 1.390 . S
C843 C837 1.465 . S
C843 C842 1.396 . S
C843 C844 1.399 . S
C844 H830 0.929 . S
C844 C843 1.399 . S
C844 C845 1.385 . S
C845 H831 0.931 . S
C845 C844 1.385 . S
C845 C846 1.389 . S
C846 C845 1.389 . S
C846 C847 1.387 . S
C847 H832 0.930 . S
C847 C842 1.390 . S
C847 C846 1.387 . S
H848 C860 0.930 . S
H849 C862 0.930 . S
H850 C863 0.930 . S
H851 C867 0.959 . S
H852 C867 0.959 . S
H853 C867 0.961 . S
H854 C868 0.960 . S
H855 C868 0.961 . S
H856 C868 0.959 . S
H857 C871 0.929 1_554 S
H858 C872 0.931 . S
H859 C874 0.930 . S
C860 H848 0.930 . S
C860 C861 1.399 . S
C860 C865 1.399 . S
C861 C860 1.399 . S
C861 C862 1.376 1_556 S
C862 H849 0.930 . S
C862 C861 1.376 1_554 S
C862 C863 1.388 . S
C863 H850 0.930 . S
C863 C862 1.388 . S
C863 C864 1.390 1_554 S
C864 C863 1.390 1_556 S
C864 C865 1.394 . S
C864 C870 1.465 . S
C865 C860 1.399 . S
C865 C864 1.394 . S
C865 C866 1.516 . S
C866 C865 1.516 . S
C866 C867 1.502 1_455 S
C866 C868 1.561 . S
C866 C869 1.526 . S
C867 H851 0.959 . S
C867 H852 0.959 . S
C867 H853 0.961 . S
C867 C866 1.502 1_655 S
C868 H854 0.960 . S
C868 H855 0.961 . S
C868 H856 0.959 . S
C868 C866 1.561 . S
C869 C866 1.526 . S
C869 C870 1.396 . S
C869 C874 1.390 . S
C870 C864 1.465 . S
C870 C869 1.396 . S
C870 C871 1.399 . S
C871 H857 0.929 1_556 S
C871 C870 1.399 . S
C871 C872 1.385 . S
C872 H858 0.931 . S
C872 C871 1.385 . S
C872 C873 1.389 . S
C873 C872 1.389 . S
C873 C874 1.387 . S
C874 H859 0.930 . S
C874 C869 1.390 . S
C874 C873 1.387 . S
H875 C887 0.930 . S
H876 C889 0.930 . S
H877 C890 0.930 . S
H878 C894 0.959 . S
H879 C894 0.959 . S
H880 C894 0.961 . S
H881 C895 0.960 . S
H882 C895 0.961 . S
H883 C895 0.959 1_554 S
H884 C898 0.929 . S
H885 C899 0.931 . S
H886 C901 0.930 . S
C887 H875 0.930 . S
C887 C888 1.374 1_545 S
C887 C892 1.399 . S
C888 C887 1.374 1_565 S
C888 C889 1.405 . S
C889 H876 0.930 . S
C889 C888 1.405 . S
C889 C890 1.388 . S
C890 H877 0.930 . S
C890 C889 1.388 . S
C890 C891 1.390 . S
C891 C890 1.390 . S
C891 C892 1.394 1_565 S
C891 C897 1.465 . S
C892 C887 1.399 . S
C892 C891 1.394 1_545 S
C892 C893 1.516 . S
C893 C892 1.516 . S
C893 C894 1.502 . S
C893 C895 1.561 . S
C893 C896 1.526 . S
C894 H878 0.959 . S
C894 H879 0.959 . S
C894 H880 0.961 . S
C894 C893 1.502 . S
C895 H881 0.960 . S
C895 H882 0.961 . S
C895 H883 0.959 1_556 S
C895 C893 1.561 . S
C896 C893 1.526 . S
C896 C897 1.396 1_545 S
C896 C901 1.390 . S
C897 C891 1.465 . S
C897 C896 1.396 1_565 S
C897 C898 1.399 . S
C898 H884 0.929 . S
C898 C897 1.399 . S
C898 C899 1.385 . S
C899 H885 0.931 . S
C899 C898 1.385 . S
C899 C900 1.389 1_565 S
C900 C899 1.389 1_545 S
C900 C901 1.387 . S
C901 H886 0.930 . S
C901 C896 1.390 . S
C901 C900 1.387 . S
H902 C914 0.930 . S
H903 C916 0.930 . S
H904 C917 0.930 . S
H905 C921 0.959 . S
H906 C921 0.959 . S
H907 C921 0.961 . S
H908 C922 0.960 . S
H909 C922 0.961 . S
H910 C922 0.959 . S
H911 C925 0.929 . S
H912 C926 0.931 . S
H913 C928 0.930 . S
C914 H902 0.930 . S
C914 C915 1.399 . S
C914 C919 1.399 . S
C915 C914 1.399 . S
C915 C916 1.376 . S
C916 H903 0.930 . S
C916 C915 1.376 . S
C916 C917 1.388 . S
C917 H904 0.930 . S
C917 C916 1.388 . S
C917 C918 1.390 . S
C918 C917 1.390 . S
C918 C919 1.394 . S
C918 C924 1.465 . S
C919 C914 1.399 . S
C919 C918 1.394 . S
C919 C920 1.516 . S
C920 C919 1.516 . S
C920 C921 1.502 . S
C920 C922 1.561 . S
C920 C923 1.526 . S
C921 H905 0.959 . S
C921 H906 0.959 . S
C921 H907 0.961 . S
C921 C920 1.502 . S
C922 H908 0.960 . S
C922 H909 0.961 . S
C922 H910 0.959 . S
C922 C920 1.561 . S
C923 C920 1.526 . S
C923 C924 1.396 . S
C923 C928 1.390 . S
C924 C918 1.465 . S
C924 C923 1.396 . S
C924 C925 1.399 . S
C925 H911 0.929 . S
C925 C924 1.399 . S
C925 C926 1.385 . S
C926 H912 0.931 . S
C926 C925 1.385 . S
C926 C927 1.389 . S
C927 C926 1.389 . S
C927 C928 1.387 . S
C928 H913 0.930 . S
C928 C923 1.390 . S
C928 C927 1.387 . S
H929 C941 0.930 . S
H930 C943 0.930 . S
H931 C944 0.930 . S
H932 C948 0.959 1_554 S
H933 C948 0.959 . S
H934 C948 0.961 1_554 S
H935 C949 0.960 . S
H936 C949 0.961 . S
H937 C949 0.959 . S
H938 C952 0.929 . S
H939 C953 0.931 . S
H940 C955 0.930 . S
C941 H929 0.930 . S
C941 C942 1.399 . S
C941 C946 1.399 . S
C942 C941 1.399 . S
C942 C943 1.376 . S
C943 H930 0.930 . S
C943 C942 1.376 . S
C943 C944 1.388 . S
C944 H931 0.930 . S
C944 C943 1.388 . S
C944 C945 1.390 . S
C945 C944 1.390 . S
C945 C946 1.394 . S
C945 C951 1.465 . S
C946 C941 1.399 . S
C946 C945 1.394 . S
C946 C947 1.516 . S
C947 C946 1.516 . S
C947 C948 1.502 . S
C947 C949 1.561 . S
C947 C950 1.526 . S
C948 H932 0.959 1_556 S
C948 H933 0.959 . S
C948 H934 0.961 1_556 S
C948 C947 1.502 . S
C949 H935 0.960 . S
C949 H936 0.961 . S
C949 H937 0.959 . S
C949 C947 1.561 . S
C950 C947 1.526 . S
C950 C951 1.396 . S
C950 C955 1.390 . S
C951 C945 1.465 . S
C951 C950 1.396 . S
C951 C952 1.399 . S
C952 H938 0.929 . S
C952 C951 1.399 . S
C952 C953 1.385 . S
C953 H939 0.931 . S
C953 C952 1.385 . S
C953 C954 1.389 . S
C954 C953 1.389 . S
C954 C955 1.387 . S
C955 H940 0.930 . S
C955 C950 1.390 . S
C955 C954 1.387 . S
H956 C968 0.952 . S
H957 C970 0.930 . S
H958 C971 0.930 . S
H959 C975 0.959 . S
H960 C975 0.959 . S
H961 C975 0.961 . S
H962 C976 0.960 1_455 S
H963 C976 0.961 1_455 S
H964 C976 0.959 . S
H965 C979 0.929 . S
H966 C980 0.931 . S
H967 C982 0.935 . S
C968 H956 0.952 . S
C968 C969 1.383 1_455 S
C968 C973 1.394 1_455 S
C969 C968 1.383 1_655 S
C969 C970 1.376 . S
C970 H957 0.930 . S
C970 C969 1.376 . S
C970 C971 1.388 . S
C971 H958 0.930 . S
C971 C970 1.388 . S
C971 C972 1.390 . S
C972 C971 1.390 . S
C972 C973 1.394 . S
C972 C978 1.465 . S
C973 C968 1.394 1_655 S
C973 C972 1.394 . S
C973 C974 1.516 1_655 S
C974 C973 1.516 1_455 S
C974 C975 1.502 . S
C974 C976 1.561 1_455 S
C974 C977 1.526 1_455 S
C975 H959 0.959 . S
C975 H960 0.959 . S
C975 H961 0.961 . S
C975 C974 1.502 . S
C976 H962 0.960 1_655 S
C976 H963 0.961 1_655 S
C976 H964 0.959 . S
C976 C974 1.561 1_655 S
C977 C974 1.526 1_655 S
C977 C978 1.396 . S
C977 C982 1.388 1_655 S
C978 C972 1.465 . S
C978 C977 1.396 . S
C978 C979 1.399 . S
C979 H965 0.929 . S
C979 C978 1.399 . S
C979 C980 1.385 . S
C980 H966 0.931 . S
C980 C979 1.385 . S
C980 C981 1.389 . S
C981 C980 1.389 . S
C981 C982 1.383 1_655 S
C982 H967 0.935 . S
C982 C977 1.388 1_455 S
C982 C981 1.383 1_455 S
H983 C995 0.930 . S
H984 C997 0.930 . S
H985 C998 0.930 . S
H986 C1002 0.959 . S
H987 C1002 0.959 . S
H988 C1002 0.961 . S
H989 C1003 0.960 . S
H990 C1003 0.961 . S
H991 C1003 0.959 . S
H992 C1006 0.929 . S
H993 C1007 0.931 . S
H994 C1009 0.930 1_545 S
C995 H983 0.930 . S
C995 C996 1.399 1_545 S
C995 C1000 1.399 1_545 S
C996 C995 1.399 1_565 S
C996 C997 1.376 . S
C997 H984 0.930 . S
C997 C996 1.376 . S
C997 C998 1.388 . S
C998 H985 0.930 . S
C998 C997 1.388 . S
C998 C999 1.390 . S
C999 C998 1.390 . S
C999 C1000 1.394 . S
C999 C1005 1.465 . S
C1000 C995 1.399 1_565 S
C1000 C999 1.394 . S
C1000 C1001 1.516 1_565 S
C1001 C1000 1.516 1_545 S
C1001 C1002 1.506 . S
C1001 C1003 1.558 1_545 S
C1001 C1004 1.525 1_545 S
C1002 H986 0.959 . S
C1002 H987 0.959 . S
C1002 H988 0.961 . S
C1002 C1001 1.506 . S
C1003 H989 0.960 . S
C1003 H990 0.961 . S
C1003 H991 0.959 . S
C1003 C1001 1.558 1_565 S
C1004 C1001 1.525 1_565 S
C1004 C1005 1.396 . S
C1004 C1009 1.390 . S
C1005 C999 1.465 . S
C1005 C1004 1.396 . S
C1005 C1006 1.399 . S
C1006 H992 0.929 . S
C1006 C1005 1.399 . S
C1006 C1007 1.385 . S
C1007 H993 0.931 . S
C1007 C1006 1.385 . S
C1007 C1008 1.389 . S
C1008 C1007 1.389 . S
C1008 C1009 1.387 . S
C1009 H994 0.930 1_565 S
C1009 C1004 1.390 . S
C1009 C1008 1.387 . S
H1010 C1022 0.930 . S
H1011 C1024 0.930 . S
H1012 C1025 0.930 . S
H1013 C1029 0.959 . S
H1014 C1029 0.959 . S
H1015 C1029 0.961 . S
H1016 C1030 0.960 . S
H1017 C1030 0.961 . S
H1018 C1030 0.959 . S
H1019 C1033 0.929 . S
H1020 C1034 0.931 . S
H1021 C1036 0.930 . S
C1022 H1010 0.930 . S
C1022 C1023 1.399 . S
C1022 C1027 1.399 . S
C1023 C1022 1.399 . S
C1023 C1024 1.376 . S
C1024 H1011 0.930 . S
C1024 C1023 1.376 . S
C1024 C1025 1.388 . S
C1025 H1012 0.930 . S
C1025 C1024 1.388 . S
C1025 C1026 1.390 . S
C1026 C1025 1.390 . S
C1026 C1027 1.394 . S
C1026 C1032 1.465 . S
C1027 C1022 1.399 . S
C1027 C1026 1.394 . S
C1027 C1028 1.516 . S
C1028 C1027 1.516 . S
C1028 C1029 1.502 . S
C1028 C1030 1.561 . S
C1028 C1031 1.526 . S
C1029 H1013 0.959 . S
C1029 H1014 0.959 . S
C1029 H1015 0.961 . S
C1029 C1028 1.502 . S
C1030 H1016 0.960 . S
C1030 H1017 0.961 . S
C1030 H1018 0.959 . S
C1030 C1028 1.561 . S
C1031 C1028 1.526 . S
C1031 C1032 1.396 . S
C1031 C1036 1.390 . S
C1032 C1026 1.465 . S
C1032 C1031 1.396 . S
C1032 C1033 1.399 . S
C1033 H1019 0.929 . S
C1033 C1032 1.399 . S
C1033 C1034 1.385 . S
C1034 H1020 0.931 . S
C1034 C1033 1.385 . S
C1034 C1035 1.389 . S
C1035 C1034 1.389 . S
C1035 C1036 1.387 . S
C1036 H1021 0.930 . S
C1036 C1031 1.390 . S
C1036 C1035 1.387 . S
H1037 C1049 0.930 . S
H1038 C1051 0.930 . S
H1039 C1052 0.930 . S
H1040 C1056 0.959 . S
H1041 C1056 0.959 . S
H1042 C1056 0.961 . S
H1043 C1057 0.960 . S
H1044 C1057 0.961 . S
H1045 C1057 0.959 . S
H1046 C1060 0.929 . S
H1047 C1061 0.931 . S
H1048 C1063 0.930 . S
C1049 H1037 0.930 . S
C1049 C1050 1.399 . S
C1049 C1054 1.399 . S
C1050 C1049 1.399 . S
C1050 C1051 1.376 . S
C1051 H1038 0.930 . S
C1051 C1050 1.376 . S
C1051 C1052 1.388 . S
C1052 H1039 0.930 . S
C1052 C1051 1.388 . S
C1052 C1053 1.390 . S
C1053 C1052 1.390 . S
C1053 C1054 1.394 . S
C1053 C1059 1.465 . S
C1054 C1049 1.399 . S
C1054 C1053 1.394 . S
C1054 C1055 1.516 . S
C1055 C1054 1.516 . S
C1055 C1056 1.502 . S
C1055 C1057 1.561 . S
C1055 C1058 1.526 . S
C1056 H1040 0.959 . S
C1056 H1041 0.959 . S
C1056 H1042 0.961 . S
C1056 C1055 1.502 . S
C1057 H1043 0.960 . S
C1057 H1044 0.961 . S
C1057 H1045 0.959 . S
C1057 C1055 1.561 . S
C1058 C1055 1.526 . S
C1058 C1059 1.396 . S
C1058 C1063 1.390 . S
C1059 C1053 1.465 . S
C1059 C1058 1.396 . S
C1059 C1060 1.399 . S
C1060 H1046 0.929 . S
C1060 C1059 1.399 . S
C1060 C1061 1.385 . S
C1061 H1047 0.931 . S
C1061 C1060 1.385 . S
C1061 C1062 1.389 . S
C1062 C1061 1.389 . S
C1062 C1063 1.387 . S
C1063 H1048 0.930 . S
C1063 C1058 1.390 . S
C1063 C1062 1.387 . S
C429 C215 2.086 1_565 S
C441 C279 2.196 . S
C468 C319 1.605 . S
C456 C247 1.588 . S
C495 C338 2.264 . S
C483 C151 2.161 . S
C522 C399 1.634 . S
C510 C183 1.500 . S
C549 C258 2.208 1_565 S
C537 C87 2.012 1_565 S
C564 C119 1.480 . S
C576 C298 1.603 . S
C591 C23 2.032 . S
C603 C359 2.274 . S
C618 C55 1.508 . S
C630 C378 1.636 1_655 S
C657 C260 0.838 . S
C645 C189 0.758 . S
C684 C300 0.425 . S
C672 C221 0.381 . S
C711 C356 0.907 . S
C699 C253 0.785 . S
C726 C157 0.281 . S
C738 C380 0.337 . S
C753 C61 0.819 . S
C765 C281 0.737 . S
C792 C321 0.446 . S
C780 C93 0.305 . S
C819 C367 0.873 . S
C807 C125 0.807 . S
C834 C29 0.464 . S
C846 C401 0.534 . S
C861 C177 1.894 1_556 S
C873 C276 2.167 . S
C888 C209 2.530 1_565 S
C900 C316 2.811 . S
C927 C340 1.754 . S
C915 C241 1.772 . S
C954 C396 2.811 . S
C942 C145 2.558 . S
C969 C49 1.975 . S
C981 C287 2.172 . S
C1008 C327 2.810 . S
C996 C81 2.591 1_565 S
C1035 C361 1.775 . S
C1023 C113 1.711 . S
C1050 C17 2.557 . S
C1062 C407 2.789 . S
