# Generated by pormake.
# Topology zzz, (3,6)-cn, num edge types: 1
# Building blocks:
#     Node 0, Type 0, BuildingBlock: VETTIZ_charged_linker_0, # of connection points: 3
#     Node 1, Type 0, BuildingBlock: VETTIZ_charged_linker_0, # of connection points: 3
#     Node 2, Type 0, BuildingBlock: VETTIZ_charged_linker_0, # of connection points: 3
#     Node 3, Type 0, BuildingBlock: VETTIZ_charged_linker_0, # of connection points: 3
#     Node 4, Type 0, BuildingBlock: VETTIZ_charged_linker_0, # of connection points: 3
#     Node 5, Type 0, BuildingBlock: VETTIZ_charged_linker_0, # of connection points: 3
#     Node 6, Type 0, BuildingBlock: VETTIZ_charged_linker_0, # of connection points: 3
#     Node 7, Type 0, BuildingBlock: VETTIZ_charged_linker_0, # of connection points: 3
#     Node 8, Type 1, BuildingBlock: GEDQOX_clean_sbu_0, # of connection points: 6
#     Node 9, Type 1, BuildingBlock: GEDQOX_clean_sbu_0, # of connection points: 6
#     Node 10, Type 1, BuildingBlock: GEDQOX_clean_sbu_0, # of connection points: 6
#     Node 11, Type 1, BuildingBlock: GEDQOX_clean_sbu_0, # of connection points: 6
#     Edge 12, Type (0, 1), BuildingBlock: XUDNAN_clean_linker_2, # of connection points: 2
#     Edge 13, Type (0, 1), BuildingBlock: XUDNAN_clean_linker_2, # of connection points: 2
#     Edge 14, Type (0, 1), BuildingBlock: XUDNAN_clean_linker_2, # of connection points: 2
#     Edge 15, Type (0, 1), BuildingBlock: XUDNAN_clean_linker_2, # of connection points: 2
#     Edge 16, Type (0, 1), BuildingBlock: XUDNAN_clean_linker_2, # of connection points: 2
#     Edge 17, Type (0, 1), BuildingBlock: XUDNAN_clean_linker_2, # of connection points: 2
#     Edge 18, Type (0, 1), BuildingBlock: XUDNAN_clean_linker_2, # of connection points: 2
#     Edge 19, Type (0, 1), BuildingBlock: XUDNAN_clean_linker_2, # of connection points: 2
#     Edge 20, Type (0, 1), BuildingBlock: XUDNAN_clean_linker_2, # of connection points: 2
#     Edge 21, Type (0, 1), BuildingBlock: XUDNAN_clean_linker_2, # of connection points: 2
#     Edge 22, Type (0, 1), BuildingBlock: XUDNAN_clean_linker_2, # of connection points: 2
#     Edge 23, Type (0, 1), BuildingBlock: XUDNAN_clean_linker_2, # of connection points: 2
#     Edge 24, Type (0, 1), BuildingBlock: XUDNAN_clean_linker_2, # of connection points: 2
#     Edge 25, Type (0, 1), BuildingBlock: XUDNAN_clean_linker_2, # of connection points: 2
#     Edge 26, Type (0, 1), BuildingBlock: XUDNAN_clean_linker_2, # of connection points: 2
#     Edge 27, Type (0, 1), BuildingBlock: XUDNAN_clean_linker_2, # of connection points: 2
#     Edge 28, Type (0, 1), BuildingBlock: XUDNAN_clean_linker_2, # of connection points: 2
#     Edge 29, Type (0, 1), BuildingBlock: XUDNAN_clean_linker_2, # of connection points: 2
#     Edge 30, Type (0, 1), BuildingBlock: XUDNAN_clean_linker_2, # of connection points: 2
#     Edge 31, Type (0, 1), BuildingBlock: XUDNAN_clean_linker_2, # of connection points: 2
#     Edge 32, Type (0, 1), BuildingBlock: XUDNAN_clean_linker_2, # of connection points: 2
#     Edge 33, Type (0, 1), BuildingBlock: XUDNAN_clean_linker_2, # of connection points: 2
#     Edge 34, Type (0, 1), BuildingBlock: XUDNAN_clean_linker_2, # of connection points: 2
#     Edge 35, Type (0, 1), BuildingBlock: XUDNAN_clean_linker_2, # of connection points: 2
# Relax obj value: 0.314
# Max RMSD: 0.267
# Mean RMSD: 0.201
data_MOF--net-zzz--node1-GEDQOX_clean_sbu_0--node2-VETTIZ_charged_linker_0--edge1-XUDNAN_clean_linker_2
_symmetry_space_group_name_H-M    P1
_symmetry_Int_Tables_number       1
_symmetry_cell_setting            triclinic
loop_
_symmetry_equiv_pos_as_xyz
'x, y, z'
_cell_length_a     61.996148
_cell_length_b     57.699783
_cell_length_c     21.84036
_cell_angle_alpha  82.137672
_cell_angle_beta   91.03958
_cell_angle_gamma 101.88966
loop_
_atom_site_label
_atom_site_type_symbol
_atom_site_fract_x
_atom_site_fract_y
_atom_site_fract_z
_atom_type_partial_charge
C0 C 0.78902 0.47595 0.35313 0.0
C1 C 0.8081 0.4715 0.38495 0.0
C2 C 0.82036 0.45648 0.3619 0.0
C3 C 0.79637 0.45288 0.2737 0.0
C4 C 0.78337 0.46628 0.29778 0.0
C5 C 0.76393 0.46921 0.2567 0.0
H6 H 0.71832 0.46424 0.97317 0.0
C7 C 0.78791 0.44794 0.21226 0.0
C8 C 0.76878 0.45726 0.20178 0.0
H9 H 0.68967 0.4813 0.13695 0.0
H10 H 0.72127 0.4739 0.19556 0.0
H11 H 0.76914 0.48723 0.99599 0.0
H12 H 0.73013 0.41627 0.04567 0.0
H13 H 0.756 0.41344 0.0197 0.0
H14 H 0.73853 0.42799 0.96738 0.0
H15 H 0.7599 0.46746 0.93981 0.0
H16 H 0.78513 0.46664 0.98164 0.0
C17 C 0.76466 0.4962 0.23813 0.0
C18 C 0.7425 0.45558 0.29148 0.0
C19 C 0.83566 0.41535 0.0739 0.0
C20 C 0.83552 0.41375 0.01032 0.0
C21 C 0.8173 0.41874 0.97513 0.0
C22 C 0.79995 0.42607 1.0026 0.0
C23 C 0.80095 0.42872 0.06579 0.0
C24 C 0.81849 0.42305 0.1003 0.0
C25 C 0.81796 0.42863 0.16529 0.0
C26 C 0.79709 0.4385 0.16452 0.0
C27 C 0.78709 0.43841 0.10638 0.0
C28 C 0.83898 0.44774 0.17508 0.0
C29 C 0.81565 0.40483 0.20961 0.0
C30 C 0.71839 0.46617 0.0217 0.0
C31 C 0.70113 0.47389 0.04915 0.0
C32 C 0.70272 0.47628 0.11292 0.0
C33 C 0.72103 0.47162 0.14762 0.0
C34 C 0.7379 0.46395 0.11916 0.0
C35 C 0.73612 0.46077 0.05762 0.0
C36 C 0.75456 0.45029 0.03652 0.0
C37 C 0.76758 0.4476 0.09566 0.0
C38 C 0.75813 0.45634 0.14356 0.0
C39 C 0.76791 0.46866 0.9855 0.0
C40 C 0.74444 0.42577 0.01572 0.0
H41 H 0.82502 0.43644 0.29119 0.0
H42 H 0.77903 0.48705 0.37033 0.0
H43 H 0.74578 0.44141 0.32829 0.0
H44 H 0.73052 0.44596 0.26066 0.0
H45 H 0.7345 0.46783 0.31389 0.0
H46 H 0.78128 0.50546 0.21976 0.0
H47 H 0.7611 0.50459 0.27863 0.0
H48 H 0.75277 0.49979 0.20173 0.0
H49 H 0.84968 0.4124 0.10199 0.0
H50 H 0.81683 0.41767 0.92598 0.0
H51 H 0.7868 0.43013 0.97316 0.0
H52 H 0.84549 0.45854 0.13063 0.0
H53 H 0.85239 0.43931 0.1963 0.0
H54 H 0.83588 0.46116 0.20354 0.0
H55 H 0.80473 0.38996 0.18959 0.0
H56 H 0.80781 0.40538 0.25431 0.0
H57 H 0.83191 0.39982 0.21825 0.0
H58 H 0.83521 0.45289 0.38476 0.0
C59 C 0.81456 0.44712 0.30689 0.0
C60 C 0.96599 0.77661 0.0224 0.0
C61 C 0.96074 0.79917 0.02255 0.0
C62 C 0.94474 0.80186 0.06468 0.0
C63 C 0.94529 0.76261 0.11738 0.0
C64 C 0.95747 0.75827 0.06974 0.0
C65 C 0.96146 0.73324 0.07989 0.0
H66 H 0.98295 0.6407 0.25588 0.0
C67 C 0.9446 0.74327 0.1686 0.0
C68 C 0.95122 0.72461 0.14458 0.0
H69 H 0.94884 0.63907 0.08098 0.0
H70 H 0.93884 0.67692 0.09217 0.0
H71 H 0.00525 0.70341 0.24501 0.0
H72 H 0.94134 0.6634 0.3166 0.0
H73 H 0.95647 0.68207 0.36774 0.0
H74 H 0.96642 0.6566 0.35013 0.0
H75 H 0.00331 0.67935 0.30784 0.0
H76 H 0.99896 0.7081 0.32088 0.0
C77 C 0.98645 0.73368 0.07992 0.0
C78 C 0.94984 0.71971 0.02827 0.0
C79 C 0.95774 0.77355 0.37467 0.0
C80 C 0.96936 0.7671 0.42764 0.0
C81 C 0.97613 0.74493 0.43391 0.0
C82 C 0.97224 0.73021 0.38623 0.0
C83 C 0.96168 0.73787 0.3317 0.0
C84 C 0.95478 0.75939 0.32703 0.0
C85 C 0.94536 0.76628 0.26528 0.0
C86 C 0.94769 0.74532 0.23253 0.0
C87 C 0.9569 0.72827 0.27175 0.0
C88 C 0.95938 0.79068 0.2352 0.0
C89 C 0.92086 0.76697 0.27446 0.0
C90 C 0.97451 0.64918 0.21815 0.0
C91 C 0.9678 0.63754 0.1656 0.0
C92 C 0.9552 0.64816 0.11984 0.0
C93 C 0.95038 0.67038 0.12392 0.0
C94 C 0.95932 0.68275 0.17183 0.0
C95 C 0.96935 0.67182 0.22103 0.0
C96 C 0.97142 0.68656 0.27474 0.0
C97 C 0.96085 0.70761 0.24762 0.0
C98 C 0.95572 0.70537 0.18587 0.0
C99 C 0.99607 0.69481 0.28827 0.0
C100 C 0.95827 0.67139 0.33066 0.0
H101 H 0.92499 0.78601 0.14459 0.0
H102 H 0.9775 0.77391 0.98869 0.0
H103 H 0.95211 0.73121 0.9827 0.0
H104 H 0.93183 0.71391 0.03765 0.0
H105 H 0.95708 0.70413 0.02227 0.0
H106 H 0.9949 0.74442 0.11528 0.0
H107 H 0.99401 0.74149 0.03403 0.0
H108 H 0.98961 0.7153 0.09042 0.0
H109 H 0.95174 0.79008 0.36905 0.0
H110 H 0.98498 0.73936 0.47464 0.0
H111 H 0.978 0.71375 0.39273 0.0
H112 H 0.96908 0.80109 0.26926 0.0
H113 H 0.94895 0.80271 0.21245 0.0
H114 H 0.97161 0.7882 0.20139 0.0
H115 H 0.9125 0.75117 0.30673 0.0
H116 H 0.91161 0.76638 0.2308 0.0
H117 H 0.91928 0.78335 0.294 0.0
H118 H 0.93994 0.8189 0.06443 0.0
C119 C 0.93669 0.78334 0.11195 0.0
C120 C 0.84156 0.03605 0.06928 0.0
C121 C 0.84953 0.04652 0.00934 0.0
C122 C 0.8354 0.05728 0.96863 0.0
C123 C 0.80692 0.04895 0.04718 0.0
C124 C 0.82011 0.03743 0.08715 0.0
C125 C 0.80841 0.02744 0.14845 0.0
H126 H 0.71321 0.01076 0.31807 0.0
C127 C 0.7859 0.04799 0.07864 0.0
C128 C 0.78635 0.03522 0.13826 0.0
H129 H 0.77209 0.98568 0.37791 0.0
H130 H 0.79034 1.00442 0.27985 0.0
H131 H 0.73736 0.06206 0.26467 0.0
H132 H 0.71245 0.99804 0.18509 0.0
H133 H 0.7068 0.02126 0.13081 0.0
H134 H 0.6949 0.01663 0.2074 0.0
H135 H 0.70859 0.05197 0.25056 0.0
H136 H 0.72665 0.07172 0.19307 0.0
C137 C 0.82177 0.03936 0.20021 0.0
C138 C 0.80562 0.99998 0.15709 0.0
C139 C 0.72689 0.08529 0.96191 0.0
C140 C 0.70463 0.0846 0.97598 0.0
C141 C 0.69678 0.07528 0.03655 0.0
C142 C 0.71031 0.06581 0.08074 0.0
C143 C 0.73192 0.06506 0.06449 0.0
C144 C 0.74002 0.07508 0.00636 0.0
C145 C 0.76298 0.07141 0.99644 0.0
C146 C 0.76718 0.05744 0.0583 0.0
C147 C 0.74893 0.05384 0.09759 0.0
C148 C 0.77849 0.09638 0.98559 0.0
C149 C 0.76238 0.05635 0.94233 0.0
C150 C 0.72994 0.00892 0.31001 0.0
C151 C 0.74101 0.99625 0.35496 0.0
C152 C 0.7631 0.99512 0.34341 0.0
C153 C 0.7736 1.00594 0.28654 0.0
C154 C 0.76192 0.01821 0.2414 0.0
C155 C 0.74053 0.01966 0.25458 0.0
C156 C 0.73035 0.03372 0.20384 0.0
C157 C 0.74891 0.04046 0.1569 0.0
C158 C 0.7675 0.03129 0.17807 0.0
C159 C 0.72526 0.05597 0.22896 0.0
C160 C 0.70997 0.01677 0.18051 0.0
H161 H 0.80488 0.06747 0.95383 0.0
H162 H 0.85185 0.02743 0.10164 0.0
H163 H 0.79932 0.99275 0.11404 0.0
H164 H 0.79363 0.991 0.19384 0.0
H165 H 0.82164 0.99467 0.16809 0.0
H166 H 0.82705 0.05896 0.18592 0.0
H167 H 0.8368 0.03194 0.21075 0.0
H168 H 0.81208 0.03725 0.24319 0.0
H169 H 0.73371 0.09249 0.91635 0.0
H170 H 0.67973 0.07381 0.04932 0.0
H171 H 0.70297 0.05845 0.12506 0.0
H172 H 0.77395 0.10837 0.01679 0.0
H173 H 0.77737 0.105 0.93727 0.0
H174 H 0.79589 0.09588 0.99599 0.0
H175 H 0.74564 0.04541 0.93654 0.0
H176 H 0.77307 0.04308 0.95034 0.0
H177 H 0.76714 0.06795 0.89775 0.0
H178 H 0.84053 0.06464 0.9216 0.0
C179 C 0.81443 0.05873 0.98727 0.0
C180 C 0.56805 0.72541 0.46924 0.0
C181 C 0.57905 0.70795 0.50009 0.0
C182 C 0.60198 0.71078 0.49063 0.0
C183 C 0.60122 0.74353 0.41045 0.0
C184 C 0.57987 0.74366 0.42553 0.0
C185 C 0.57261 0.76522 0.38985 0.0
H186 H 0.59251 0.852 0.13905 0.0
C187 C 0.60845 0.76175 0.35813 0.0
C188 C 0.59267 0.77604 0.34747 0.0
H189 H 0.53748 0.83836 0.26593 0.0
H190 H 0.55376 0.80864 0.33095 0.0
H191 H 0.6322 0.84753 0.24419 0.0
H192 H 0.59584 0.81272 0.11237 0.0
H193 H 0.60692 0.78782 0.14341 0.0
H194 H 0.62449 0.8151 0.10698 0.0
H195 H 0.63377 0.85139 0.1611 0.0
H196 H 0.64909 0.83216 0.20743 0.0
C197 C 0.56916 0.78207 0.43631 0.0
C198 C 0.55174 0.75638 0.35311 0.0
C199 C 0.64556 0.73677 0.18425 0.0
C200 C 0.6512 0.74861 0.12398 0.0
C201 C 0.6561 0.77386 0.11495 0.0
C202 C 0.65133 0.78662 0.16147 0.0
C203 C 0.64122 0.77392 0.21628 0.0
C204 C 0.64075 0.74983 0.22989 0.0
C205 C 0.63157 0.73994 0.29363 0.0
C206 C 0.62412 0.76183 0.31196 0.0
C207 C 0.62824 0.78093 0.26375 0.0
C208 C 0.65027 0.73221 0.3341 0.0
C209 C 0.61192 0.71874 0.2897 0.0
C210 C 0.58407 0.84278 0.18128 0.0
C211 C 0.56374 0.8473 0.19734 0.0
C212 C 0.55325 0.83514 0.25278 0.0
C213 C 0.56264 0.81782 0.29004 0.0
C214 C 0.58254 0.81258 0.27119 0.0
C215 C 0.59293 0.82526 0.21774 0.0
C216 C 0.61336 0.8171 0.20213 0.0
C217 C 0.614 0.79755 0.25602 0.0
C218 C 0.59585 0.79482 0.29654 0.0
C219 C 0.63325 0.83816 0.2034 0.0
C220 C 0.61013 0.80765 0.13829 0.0
H221 H 0.6308 0.73159 0.44209 0.0
H222 H 0.55077 0.72456 0.47821 0.0
H223 H 0.55448 0.74233 0.32569 0.0
H224 H 0.54711 0.77072 0.32012 0.0
H225 H 0.53751 0.74859 0.38482 0.0
H226 H 0.58211 0.78281 0.47235 0.0
H227 H 0.55288 0.77577 0.46 0.0
H228 H 0.5705 0.80071 0.41437 0.0
H229 H 0.64253 0.71752 0.19425 0.0
H230 H 0.66193 0.78367 0.07047 0.0
H231 H 0.65453 0.80577 0.15243 0.0
H232 H 0.66236 0.72619 0.30618 0.0
H233 H 0.6439 0.7166 0.36911 0.0
H234 H 0.65945 0.74718 0.35739 0.0
H235 H 0.59902 0.72439 0.2585 0.0
H236 H 0.60427 0.71153 0.33559 0.0
H237 H 0.61731 0.70365 0.27219 0.0
H238 H 0.6111 0.69837 0.51532 0.0
C239 C 0.61319 0.72892 0.44666 0.0
C240 C 0.33214 0.53424 0.61754 0.0
C241 C 0.3387 0.53914 0.67744 0.0
C242 C 0.32604 0.55128 0.70981 0.0
C243 C 0.30079 0.55308 0.62418 0.0
C244 C 0.3132 0.54138 0.59187 0.0
C245 C 0.30371 0.53757 0.52902 0.0
H246 H 0.22147 0.54899 0.32341 0.0
C247 C 0.2823 0.55833 0.58483 0.0
C248 C 0.28401 0.54957 0.52844 0.0
H249 H 0.27508 0.51322 0.30482 0.0
H250 H 0.29053 0.52522 0.4019 0.0
H251 H 0.21202 0.52978 0.4648 0.0
H252 H 0.24941 0.59518 0.36892 0.0
H253 H 0.23916 0.6033 0.43552 0.0
H254 H 0.22015 0.59066 0.37925 0.0
H255 H 0.19997 0.55192 0.41858 0.0
H256 H 0.20546 0.55324 0.49914 0.0
C257 C 0.29657 0.51032 0.5275 0.0
C258 C 0.32107 0.55053 0.4792 0.0
C259 C 0.22203 0.59291 0.67202 0.0
C260 C 0.20274 0.59915 0.64572 0.0
C261 C 0.19971 0.59975 0.58146 0.0
C262 C 0.21467 0.59254 0.54481 0.0
C263 C 0.23282 0.58439 0.57255 0.0
C264 C 0.23692 0.58579 0.63442 0.0
C265 C 0.25785 0.57763 0.65455 0.0
C266 C 0.26466 0.56964 0.59542 0.0
C267 C 0.24963 0.57322 0.54819 0.0
C268 C 0.25201 0.55642 0.70721 0.0
C269 C 0.27467 0.59941 0.67279 0.0
C270 C 0.23665 0.54397 0.34017 0.0
C271 C 0.24712 0.5302 0.30727 0.0
C272 C 0.26683 0.52388 0.32993 0.0
C273 C 0.27562 0.53074 0.38627 0.0
C274 C 0.26447 0.54394 0.42001 0.0
C275 C 0.24549 0.55058 0.396 0.0
C276 C 0.23532 0.564 0.43773 0.0
C277 C 0.25107 0.56414 0.4916 0.0
C278 C 0.26814 0.55235 0.48144 0.0
C279 C 0.21192 0.54922 0.45606 0.0
C280 C 0.23583 0.58957 0.40383 0.0
H281 H 0.29835 0.5674 0.71073 0.0
H282 H 0.34137 0.5248 0.59149 0.0
H283 H 0.32934 0.56831 0.49132 0.0
H284 H 0.31379 0.5542 0.43332 0.0
H285 H 0.33398 0.54002 0.47509 0.0
H286 H 0.28926 0.50106 0.57272 0.0
H287 H 0.3109 0.5025 0.51788 0.0
H288 H 0.28364 0.50573 0.4933 0.0
H289 H 0.22499 0.59269 0.72109 0.0
H290 H 0.18499 0.60432 0.55993 0.0
H291 H 0.21091 0.59251 0.49673 0.0
H292 H 0.23693 0.54366 0.69567 0.0
H293 H 0.24878 0.56276 0.75128 0.0
H294 H 0.26497 0.54585 0.71522 0.0
H295 H 0.27096 0.61663 0.65026 0.0
H296 H 0.29166 0.59975 0.65728 0.0
H297 H 0.27458 0.59974 0.72351 0.0
H298 H 0.33087 0.55573 0.75538 0.0
C299 C 0.30722 0.55828 0.68357 0.0
C300 C 0.11261 0.23833 0.62538 0.0
C301 C 0.12047 0.21874 0.6089 0.0
C302 C 0.12849 0.22017 0.54806 0.0
C303 C 0.1131 0.25497 0.51756 0.0
C304 C 0.10905 0.25633 0.5786 0.0
C305 C 0.09838 0.27709 0.58509 0.0
H306 H 0.05267 0.36785 0.44874 0.0
C307 C 0.1017 0.27152 0.47886 0.0
C308 C 0.09369 0.28522 0.51755 0.0
H309 H 0.07477 0.35405 0.63669 0.0
H310 H 0.08346 0.31734 0.61624 0.0
H311 H 0.09015 0.3498 0.37092 0.0
H312 H 0.02922 0.30511 0.45017 0.0
H313 H 0.03388 0.30069 0.37359 0.0
H314 H 0.0289 0.32908 0.38841 0.0
H315 H 0.0637 0.35647 0.34924 0.0
H316 H 0.07345 0.33343 0.3174 0.0
C317 C 0.11554 0.29614 0.61383 0.0
C318 C 0.0768 0.26774 0.62344 0.0
C319 C 0.08006 0.25027 0.26799 0.0
C320 C 0.06365 0.25527 0.22671 0.0
C321 C 0.05359 0.2746 0.23403 0.0
C322 C 0.05893 0.28752 0.28501 0.0
C323 C 0.07415 0.28068 0.32922 0.0
C324 C 0.08456 0.26247 0.31906 0.0
C325 C 0.09823 0.25504 0.37217 0.0
C326 C 0.09441 0.2716 0.41703 0.0
C327 C 0.08051 0.28698 0.3922 0.0
C328 C 0.12265 0.2602 0.35023 0.0
C329 C 0.08835 0.22829 0.39576 0.0
C330 C 0.05932 0.3567 0.4851 0.0
C331 C 0.06364 0.3641 0.54411 0.0
C332 C 0.07184 0.349 0.59075 0.0
C333 C 0.07713 0.32779 0.57866 0.0
C334 C 0.07421 0.32129 0.5192 0.0
C335 C 0.0648 0.33501 0.47361 0.0
C336 C 0.06209 0.32358 0.41438 0.0
C337 C 0.07442 0.30314 0.42994 0.0
C338 C 0.08093 0.30188 0.49222 0.0
C339 C 0.07289 0.3418 0.35974 0.0
C340 C 0.03721 0.31417 0.40559 0.0
H341 H 0.12992 0.23752 0.45622 0.0
H342 H 0.10745 0.23846 0.67239 0.0
H343 H 0.0673 0.25109 0.60767 0.0
H344 H 0.06562 0.28049 0.61866 0.0
H345 H 0.08039 0.26362 0.67329 0.0
H346 H 0.13249 0.29252 0.61355 0.0
H347 H 0.11135 0.29679 0.66272 0.0
H348 H 0.11698 0.31425 0.58742 0.0
H349 H 0.08829 0.23576 0.263 0.0
H350 H 0.04104 0.27904 0.20203 0.0
H351 H 0.05071 0.3019 0.28912 0.0
H352 H 0.12574 0.27366 0.30803 0.0
H353 H 0.12751 0.24375 0.33911 0.0
H354 H 0.13412 0.26805 0.385 0.0
H355 H 0.07001 0.22474 0.39483 0.0
H356 H 0.09226 0.22242 0.44384 0.0
H357 H 0.09386 0.21634 0.36627 0.0
H358 H 0.13509 0.20584 0.53337 0.0
C359 C 0.1251 0.23844 0.50251 0.0
C360 C 0.29762 0.99907 0.32028 0.0
C361 C 0.31617 0.9935 0.29323 0.0
C362 C 0.32644 0.97599 0.32566 0.0
C363 C 0.30184 0.97178 0.41272 0.0
C364 C 0.29049 0.9876 0.37995 0.0
C365 C 0.27077 0.99019 0.41663 0.0
H366 H 0.21909 0.97003 0.69826 0.0
C367 C 0.29233 0.96499 0.47548 0.0
C368 C 0.27387 0.97541 0.47859 0.0
H369 H 0.19446 1.00004 0.52506 0.0
H370 H 0.22755 0.99646 0.47253 0.0
H371 H 0.23194 0.92684 0.64444 0.0
H372 H 0.26921 0.99533 0.67829 0.0
H373 H 0.28676 0.97513 0.69582 0.0
H374 H 0.26146 0.971 0.7394 0.0
H375 H 0.23849 0.93435 0.72064 0.0
H376 H 0.25697 0.92212 0.67765 0.0
C377 C 0.24962 0.97901 0.38385 0.0
C378 C 0.27247 0.01682 0.42288 0.0
C379 C 0.33614 0.92422 0.63898 0.0
C380 C 0.33503 0.92068 0.7038 0.0
C381 C 0.3166 0.9251 0.73353 0.0
C382 C 0.29998 0.93389 0.69903 0.0
C383 C 0.30202 0.93869 0.63418 0.0
C384 C 0.31975 0.93354 0.60535 0.0
C385 C 0.32051 0.94182 0.53707 0.0
C386 C 0.30023 0.95282 0.5294 0.0
C387 C 0.28942 0.95081 0.58616 0.0
C388 C 0.31816 0.91953 0.50305 0.0
C389 C 0.34221 0.96074 0.52256 0.0
C390 C 0.22038 0.97551 0.64883 0.0
C391 C 0.2037 0.98497 0.61614 0.0
C392 C 0.20693 0.99272 0.55197 0.0
C393 C 0.22602 0.99032 0.52121 0.0
C394 C 0.24195 0.97974 0.5546 0.0
C395 C 0.23881 0.97253 0.61738 0.0
C396 C 0.25648 0.96042 0.64577 0.0
C397 C 0.27041 0.96067 0.58951 0.0
C398 C 0.26232 0.97256 0.53605 0.0
C399 C 0.24556 0.93461 0.67412 0.0
C400 C 0.26914 0.97605 0.69264 0.0
H401 H 0.32837 0.95244 0.40719 0.0
H402 H 0.2891 0.0121 0.29585 0.0
H403 H 0.28906 0.0246 0.43983 0.0
H404 H 0.26033 0.01956 0.45606 0.0
H405 H 0.26993 0.02719 0.37754 0.0
H406 H 0.25205 0.96329 0.36248 0.0
H407 H 0.24492 0.99213 0.34656 0.0
H408 H 0.23556 0.97202 0.41611 0.0
H409 H 0.35044 0.9217 0.61491 0.0
H410 H 0.31552 0.92264 0.78354 0.0
H411 H 0.28662 0.93743 0.72437 0.0
H412 H 0.3086 0.90326 0.5313 0.0
H413 H 0.33452 0.91583 0.49292 0.0
H414 H 0.3088 0.92123 0.45958 0.0
H415 H 0.34643 0.97166 0.561 0.0
H416 H 0.34122 0.97397 0.48172 0.0
H417 H 0.35628 0.95208 0.51616 0.0
H418 H 0.34078 0.97143 0.30645 0.0
C419 C 0.31935 0.96509 0.38473 0.0
C420 C 0.4767 0.29296 0.21409 0.0
C421 C 0.46613 0.31177 0.19014 0.0
C422 C 0.44419 0.3107 0.20839 0.0
C423 C 0.44562 0.27618 0.28281 0.0
C424 C 0.46569 0.27483 0.2594 0.0
C425 C 0.47267 0.25208 0.28799 0.0
H426 H 0.45268 0.15474 0.51141 0.0
C427 C 0.43929 0.25692 0.33378 0.0
C428 C 0.45413 0.24152 0.33537 0.0
H429 H 0.50533 0.17322 0.37482 0.0
H430 H 0.49096 0.20756 0.33037 0.0
H431 H 0.45745 0.196 0.55607 0.0
H432 H 0.41221 0.16999 0.42563 0.0
H433 H 0.39898 0.1843 0.47638 0.0
H434 H 0.4134 0.1613 0.50775 0.0
H435 H 0.42916 0.19131 0.57508 0.0
H436 H 0.44437 0.22061 0.54352 0.0
C437 C 0.49521 0.25895 0.31916 0.0
C438 C 0.47284 0.23609 0.2368 0.0
C439 C 0.40511 0.2764 0.5213 0.0
C440 C 0.4011 0.26356 0.58115 0.0
C441 C 0.398 0.2384 0.58793 0.0
C442 C 0.40236 0.22688 0.53837 0.0
C443 C 0.41022 0.2407 0.48234 0.0
C444 C 0.40961 0.26464 0.47257 0.0
C445 C 0.41704 0.27609 0.40822 0.0
C446 C 0.42494 0.25548 0.38441 0.0
C447 C 0.42184 0.23525 0.42953 0.0
C448 C 0.43611 0.29791 0.41168 0.0
C449 C 0.39696 0.28318 0.37286 0.0
C450 C 0.46138 0.16613 0.47226 0.0
C451 C 0.48022 0.16085 0.44698 0.0
C452 C 0.49055 0.17632 0.39505 0.0
C453 C 0.48227 0.19644 0.36932 0.0
C454 C 0.46367 0.20156 0.39623 0.0
C455 C 0.45377 0.18661 0.44734 0.0
C456 C 0.43536 0.1956 0.4737 0.0
C457 C 0.43499 0.21785 0.42781 0.0
C458 C 0.45155 0.22127 0.38213 0.0
C459 C 0.44175 0.2012 0.5403 0.0
C460 C 0.41377 0.17678 0.47113 0.0
H461 H 0.41679 0.29157 0.26503 0.0
H462 H 0.49308 0.29259 0.19847 0.0
H463 H 0.45891 0.23731 0.20452 0.0
H464 H 0.4706 0.21695 0.2552 0.0
H465 H 0.48839 0.24166 0.20926 0.0
H466 H 0.49502 0.27341 0.34788 0.0
H467 H 0.50856 0.26554 0.28395 0.0
H468 H 0.49954 0.24397 0.35052 0.0
H469 H 0.40697 0.2956 0.51341 0.0
H470 H 0.3937 0.22779 0.6325 0.0
H471 H 0.4004 0.20782 0.54586 0.0
H472 H 0.44989 0.29254 0.43966 0.0
H473 H 0.43047 0.31211 0.43268 0.0
H474 H 0.44271 0.3062 0.36535 0.0
H475 H 0.38381 0.28504 0.40473 0.0
H476 H 0.3894 0.26959 0.34306 0.0
H477 H 0.40152 0.3009 0.34416 0.0
H478 H 0.43536 0.32433 0.18912 0.0
C479 C 0.43376 0.29263 0.25389 0.0
Nd480 Nd 0.01821 1.00657 0.76519 0.0
Nd481 Nd 0.03597 0.02078 0.88028 0.0
C482 C 0.9953 0.9828 0.68088 0.0
C483 C 0.99202 0.95794 0.66657 0.0
C484 C 0.98214 0.95206 0.61098 0.0
C485 C 0.9799 0.92888 0.59553 0.0
C486 C 0.98753 0.91098 0.6354 0.0
C487 C 0.99719 0.91692 0.69159 0.0
C488 C 0.99948 0.94015 0.70688 0.0
C489 C 0.06308 0.0093 0.77041 0.0
C490 C 0.02097 0.96603 0.88381 0.0
C491 C 0.05599 0.04476 0.96798 0.0
C492 C 0.05551 0.06873 0.98423 0.0
C493 C 0.04539 0.08469 0.94505 0.0
C494 C 0.04463 0.10727 0.96089 0.0
C495 C 0.05386 0.11436 0.01653 0.0
C496 C 0.06406 0.09827 0.05543 0.0
C497 C 0.06486 0.07572 0.03942 0.0
C498 C 0.99115 0.01844 0.87155 0.0
C499 C 0.03853 0.06086 0.75737 0.0
O500 O 0.98676 0.98582 0.73276 0.0
O501 O 0.0151 0.99577 0.67103 0.0
O502 O 0.05274 0.01698 0.72248 0.0
O503 O 0.04979 1.00012 0.81466 0.0
O504 O 0.00896 0.97317 0.83756 0.0
O505 O 0.03698 0.98139 0.90537 0.0
O506 O 0.06526 0.04433 0.91505 0.0
O507 O 0.03768 0.02881 0.97725 0.0
O508 O 1.00071 0.00884 0.91854 0.0
O509 O 0.00506 0.02811 0.82924 0.0
O510 O 0.04786 0.05353 0.80878 0.0
O511 O 0.02257 0.04651 0.73237 0.0
H512 H 0.97628 0.96549 0.57915 0.0
H513 H 0.97207 0.92496 0.55236 0.0
H514 H 0.0035 0.90379 0.72317 0.0
H515 H 0.00738 0.94429 0.74979 0.0
H516 H 0.03792 0.07962 0.90232 0.0
H517 H 0.03644 0.11897 0.93004 0.0
H518 H 0.07167 0.10318 0.0981 0.0
H519 H 0.07277 0.06373 0.07026 0.0
Nd520 Nd 0.53742 0.98757 0.77975 0.0
Nd521 Nd 0.51457 0.01998 0.84861 0.0
C522 C 0.55824 0.95648 0.74086 0.0
C523 C 0.57977 0.9584 0.71068 0.0
C524 C 0.58367 0.93997 0.67941 0.0
C525 C 0.60419 0.94168 0.65126 0.0
C526 C 0.62124 0.96183 0.65414 0.0
C527 C 0.61719 0.98027 0.68553 0.0
C528 C 0.59667 0.97861 0.71331 0.0
C529 C 0.52804 0.02663 0.70542 0.0
C530 C 0.56718 0.03688 0.81378 0.0
C531 C 0.49436 0.05093 0.89052 0.0
C532 C 0.47377 0.04898 0.92556 0.0
C533 C 0.46203 0.06748 0.91614 0.0
C534 C 0.44217 0.06555 0.94796 0.0
C535 C 0.43363 0.04503 0.98997 0.0
C536 C 0.44548 0.02647 0.99889 0.0
C537 C 0.46525 0.02837 0.96683 0.0
C538 C 0.5245 0.98081 0.92152 0.0
C539 C 0.48429 0.97162 0.81004 0.0
O540 O 0.55904 0.96133 0.79777 0.0
O541 O 0.54352 0.9658 0.70778 0.0
O542 O 0.54495 0.01729 0.69794 0.0
O543 O 0.51559 0.01423 0.74841 0.0
O544 O 0.56719 0.01504 0.8024 0.0
O545 O 0.54903 0.04383 0.82741 0.0
O546 O 0.49191 0.04538 0.83436 0.0
O547 O 0.51025 0.04248 0.92023 0.0
O548 O 0.50742 0.98959 0.93099 0.0
O549 O 0.53637 0.9937 0.8784 0.0
O550 O 0.48458 0.99333 0.82304 0.0
O551 O 0.50248 0.96446 0.79753 0.0
H552 H 0.57085 0.92423 0.67691 0.0
H553 H 0.60678 0.9271 0.6278 0.0
H554 H 0.62978 0.99622 0.68777 0.0
H555 H 0.59398 0.99312 0.73689 0.0
H556 H 0.46817 0.0834 0.88386 0.0
H557 H 0.4334 0.08004 0.93907 0.0
H558 H 0.4397 0.01055 0.03145 0.0
H559 H 0.4739 0.01374 0.9744 0.0
Nd560 Nd 0.52007 0.52305 0.89234 0.0
Nd561 Nd 0.52577 0.49548 0.79352 0.0
C562 C 0.51282 0.55605 0.95711 0.0
C563 C 0.52564 0.5805 0.95893 0.0
C564 C 0.53176 0.59619 0.90403 0.0
C565 C 0.54725 0.61744 0.90506 0.0
C566 C 0.55712 0.62334 0.96079 0.0
C567 C 0.55014 0.60821 0.01605 0.0
C568 C 0.53455 0.587 0.01509 0.0
C569 C 0.56076 0.51117 0.89538 0.0
C570 C 0.53827 0.55148 0.75519 0.0
C571 C 0.53153 0.46196 0.72833 0.0
C572 C 0.51905 0.43716 0.73055 0.0
C573 C 0.51453 0.42214 0.78724 0.0
C574 C 0.49955 0.40032 0.79036 0.0
C575 C 0.48868 0.39315 0.73701 0.0
C576 C 0.49395 0.40771 0.67995 0.0
C577 C 0.50899 0.4295 0.6768 0.0
C578 C 0.48523 0.50779 0.79246 0.0
C579 C 0.50831 0.46703 0.93061 0.0
O580 O 0.50245 0.55181 0.9058 0.0
O581 O 0.52293 0.53905 0.9795 0.0
O582 O 0.54931 0.51173 0.94379 0.0
O583 O 0.55145 0.51814 0.84627 0.0
O584 O 0.5279 0.55198 0.80697 0.0
O585 O 0.54278 0.53148 0.74133 0.0
O586 O 0.54343 0.46715 0.77654 0.0
O587 O 0.52045 0.47835 0.70808 0.0
O588 O 0.49705 0.50885 0.74363 0.0
O589 O 0.49455 0.4999 0.84048 0.0
O590 O 0.51909 0.46681 0.87944 0.0
O591 O 0.50315 0.48682 0.94381 0.0
H592 H 0.52527 0.59168 0.85985 0.0
H593 H 0.55211 0.62876 0.86186 0.0
H594 H 0.557 0.61256 0.06002 0.0
H595 H 0.53013 0.57518 0.05795 0.0
H596 H 0.52195 0.42754 0.82966 0.0
H597 H 0.49592 0.38947 0.83487 0.0
H598 H 0.48625 0.4024 0.63774 0.0
H599 H 0.51215 0.4408 0.63268 0.0
Nd600 Nd 0.00742 0.52272 0.8078 0.0
Nd601 Nd 0.03679 0.48824 0.8984 0.0
C602 C 0.97801 0.54869 0.7725 0.0
C603 C 0.95693 0.54345 0.73996 0.0
C604 C 0.94148 0.55799 0.74143 0.0
C605 C 0.92136 0.5528 0.71084 0.0
C606 C 0.91636 0.53297 0.67808 0.0
C607 C 0.9319 0.51829 0.67765 0.0
C608 C 0.9519 0.52341 0.70853 0.0
C609 C 0.02142 0.4889 0.74787 0.0
C610 C 0.98396 0.46858 0.87733 0.0
C611 C 0.06675 0.46304 0.93443 0.0
C612 C 0.08842 0.46833 0.96528 0.0
C613 C 0.08982 0.47093 0.0284 0.0
C614 C 0.11032 0.47727 0.05607 0.0
C615 C 0.12998 0.48112 0.02146 0.0
C616 C 0.12858 0.47819 0.95852 0.0
C617 C 0.10805 0.47179 0.93084 0.0
C618 C 0.02221 0.52165 0.95864 0.0
C619 C 0.0604 0.54207 0.82618 0.0
O620 O 0.97829 0.53707 0.82843 0.0
O621 O 0.99581 0.54946 0.73984 0.0
O622 O 0.01021 0.50395 0.72013 0.0
O623 O 0.02396 0.49265 0.80296 0.0
O624 O 0.98219 0.49016 0.85064 0.0
O625 O 1.003 0.46266 0.89496 0.0
O626 O 0.06583 0.47378 0.87773 0.0
O627 O 0.04902 0.46223 0.96748 0.0
O628 O 0.0328 0.50608 0.98676 0.0
O629 O 0.02052 0.51855 0.90296 0.0
O630 O 0.06212 0.52072 0.85481 0.0
O631 O 0.04134 0.54798 0.80894 0.0
H632 H 0.94497 0.57335 0.76624 0.0
H633 H 0.90969 0.56428 0.7131 0.0
H634 H 0.9289 0.5031 0.65227 0.0
H635 H 0.96354 0.5118 0.70745 0.0
H636 H 0.07508 0.46847 0.0564 0.0
H637 H 0.11071 0.47972 0.10438 0.0
H638 H 0.14335 0.48073 0.93059 0.0
H639 H 0.10753 0.46983 0.88217 0.0
H640 H 0.17643 0.01792 0.59377 0.0
H641 H 0.18295 0.9529 0.71271 0.0
H642 H 0.15011 0.95464 0.77131 0.0
H643 H 0.15498 0.04726 0.70812 0.0
H644 H 0.13539 0.05859 0.65653 0.0
H645 H 0.16069 0.05373 0.62621 0.0
H646 H 0.13858 0.02622 0.55243 0.0
H647 H 0.11327 0.03128 0.58197 0.0
H648 H 0.11748 1.0012 0.58386 0.0
H649 H 0.11626 0.96307 0.81803 0.0
H650 H 0.08121 0.97487 0.83957 0.0
H651 H 0.09467 0.03192 0.68539 0.0
C652 C 0.17099 1.00397 0.63192 0.0
C653 C 0.18293 0.98568 0.64925 0.0
C654 C 0.17488 0.96775 0.69956 0.0
C655 C 0.15604 0.96842 0.73316 0.0
C656 C 0.14498 0.98688 0.71556 0.0
C657 C 0.1519 1.00409 0.66545 0.0
C658 C 0.13604 0.02097 0.65356 0.0
C659 C 0.14746 0.04666 0.6616 0.0
C660 C 0.12573 0.01983 0.58915 0.0
C661 C 0.11912 0.01039 0.70446 0.0
C662 C 0.12479 0.991 0.74046 0.0
C663 C 0.11162 0.97824 0.79012 0.0
C664 C 0.09183 0.98511 0.80228 0.0
C665 C 0.08529 1.00428 0.76421 0.0
C666 C 0.09932 0.01724 0.71539 0.0
H667 H 0.47895 0.14074 0.57021 0.0
H668 H 0.50155 0.1322 0.38884 0.0
H669 H 0.5161 0.09732 0.43567 0.0
H670 H 0.52291 0.12283 0.65897 0.0
H671 H 0.50551 0.10664 0.72255 0.0
H672 H 0.49757 0.13159 0.67541 0.0
H673 H 0.46026 0.10459 0.6526 0.0
H674 H 0.46811 0.07956 0.69975 0.0
H675 H 0.46008 0.07734 0.62067 0.0
H676 H 0.52926 0.06414 0.50239 0.0
H677 H 0.53833 0.03353 0.58342 0.0
H678 H 0.50391 0.06082 0.71972 0.0
C679 C 0.48661 0.13145 0.53974 0.0
C680 C 0.48907 0.13958 0.47535 0.0
C681 C 0.49978 0.12691 0.43826 0.0
C682 C 0.50795 0.10685 0.46439 0.0
C683 C 0.50505 0.09935 0.52767 0.0
C684 C 0.49445 0.1111 0.5648 0.0
C685 C 0.49307 0.09902 0.63136 0.0
C686 C 0.50551 0.11604 0.67461 0.0
C687 C 0.46894 0.08957 0.65231 0.0
C688 C 0.50469 0.07869 0.62588 0.0
C689 C 0.51164 0.0794 0.5657 0.0
C690 C 0.52367 0.06325 0.54947 0.0
C691 C 0.52876 0.04595 0.59587 0.0
C692 C 0.52155 0.04462 0.65767 0.0
C693 C 0.50922 0.06113 0.6727 0.0
H694 H 0.37889 0.54166 0.62246 0.0
H695 H 0.34391 0.52051 0.7981 0.0
H696 H 0.37762 0.51073 0.84762 0.0
H697 H 0.41099 0.49534 0.64168 0.0
H698 H 0.43514 0.51456 0.60435 0.0
H699 H 0.40815 0.51971 0.58304 0.0
H700 H 0.41986 0.56329 0.60708 0.0
H701 H 0.44682 0.5582 0.62893 0.0
H702 H 0.43045 0.56868 0.6824 0.0
H703 H 0.41573 0.50391 0.87864 0.0
H704 H 0.45463 0.49925 0.88678 0.0
H705 H 0.46406 0.52419 0.69066 0.0
C706 C 0.37821 0.53467 0.67115 0.0
C707 C 0.35872 0.53198 0.70636 0.0
C708 C 0.3587 0.52309 0.77025 0.0
C709 C 0.37775 0.51737 0.7988 0.0
C710 C 0.39674 0.52055 0.76291 0.0
C711 C 0.39707 0.52886 0.70039 0.0
C712 C 0.41959 0.53075 0.67219 0.0
C713 C 0.41839 0.51409 0.62238 0.0
C714 C 0.42978 0.55678 0.64613 0.0
C715 C 0.43187 0.5222 0.72855 0.0
C716 C 0.41848 0.51645 0.78055 0.0
C717 C 0.42635 0.50829 0.83813 0.0
C718 C 0.44843 0.50574 0.84241 0.0
C719 C 0.46227 0.51126 0.78938 0.0
C720 C 0.45383 0.51972 0.732 0.0
H721 H 0.02611 0.38293 0.54935 0.0
H722 H 0.09674 0.39802 0.57727 0.0
H723 H 0.09368 0.43248 0.62946 0.0
H724 H 0.02078 0.44783 0.52412 0.0
H725 H 0.99452 0.441 0.5638 0.0
H726 H 1.00256 0.41925 0.52188 0.0
H727 H 0.99623 0.38834 0.62093 0.0
H728 H 0.98866 0.4101 0.66353 0.0
H729 H 0.01075 0.39544 0.69045 0.0
H730 H 0.08251 0.46041 0.69427 0.0
H731 H 0.06446 0.48572 0.75094 0.0
H732 H 1.00143 0.45576 0.67505 0.0
C733 C 0.04096 0.39416 0.56413 0.0
C734 C 0.06171 0.38798 0.55885 0.0
C735 C 0.08075 0.40263 0.58041 0.0
C736 C 0.07916 0.42214 0.61047 0.0
C737 C 0.05842 0.42713 0.6178 0.0
C738 C 0.03969 0.41408 0.59373 0.0
C739 C 0.01937 0.42298 0.6101 0.0
C740 C 0.00868 0.43339 0.55148 0.0
C741 C 1.00278 0.40302 0.64853 0.0
C742 C 0.02957 0.44244 0.64857 0.0
C743 C 0.0521 0.4443 0.65291 0.0
C744 C 0.06495 0.45952 0.6901 0.0
C745 C 0.05457 0.4736 0.72267 0.0
C746 C 0.03169 0.47264 0.71705 0.0
C747 C 0.01904 0.45694 0.67939 0.0
H748 H 0.87416 0.01098 0.03109 0.0
H749 H 0.87689 0.08312 0.93827 0.0
H750 H 0.9118 0.0824 0.8881 0.0
H751 H 0.93376 0.02041 0.06055 0.0
H752 H 0.9353 0.99037 0.0498 0.0
H753 H 0.91018 0.99635 0.07827 0.0
H754 H 0.88877 0.97692 0.98901 0.0
H755 H 0.9139 0.97129 0.95961 0.0
H756 H 0.89733 0.98813 0.91018 0.0
H757 H 0.94491 0.07314 0.84124 0.0
H758 H 0.97811 0.05861 0.81612 0.0
H759 H 0.95649 0.99423 0.94574 0.0
C760 C 0.88226 0.02675 1.00102 0.0
C761 C 0.8723 0.04683 0.9874 0.0
C762 C 0.88366 0.06715 0.94792 0.0
C763 C 0.90361 0.067 0.91922 0.0
C764 C 0.91246 0.04662 0.93141 0.0
C765 C 0.90255 0.02711 0.97262 0.0
C766 C 0.91625 0.00794 0.97921 0.0
C767 C 0.92436 1.00352 0.04592 0.0
C768 C 0.90328 0.98469 0.95824 0.0
C769 C 0.93519 0.01972 0.93493 0.0
C770 C 0.93244 0.04186 0.90709 0.0
C771 C 0.9474 0.05592 0.86319 0.0
C772 C 0.9661 0.04745 0.84877 0.0
C773 C 0.96981 0.02536 0.87901 0.0
C774 C 0.954 0.01122 0.922 0.0
H775 H 0.55154 0.88993 0.21068 0.0
H776 H 0.55315 0.84 0.08028 0.0
H777 H 0.54151 0.86804 0.99693 0.0
H778 H 0.50332 0.9135 0.14087 0.0
H779 H 0.51487 0.94357 0.15514 0.0
H780 H 0.52095 0.91852 0.20636 0.0
H781 H 0.5627 0.93563 0.18851 0.0
H782 H 0.55677 0.96054 0.13663 0.0
H783 H 0.57373 0.9418 0.1108 0.0
H784 H 0.53385 0.90263 0.92564 0.0
H785 H 0.52744 0.94103 0.87162 0.0
H786 H 0.52985 0.96921 0.04607 0.0
C787 C 0.54874 0.88471 0.16495 0.0
C788 C 0.55305 0.86276 0.1518 0.0
C789 C 0.5498 0.8567 0.09115 0.0
C790 C 0.54323 0.87251 0.04354 0.0
C791 C 0.53983 0.89434 0.05723 0.0
C792 C 0.54213 0.90041 0.1165 0.0
C793 C 0.53845 0.92561 0.11742 0.0
C794 C 0.51819 0.92527 0.15732 0.0
C795 C 0.55915 0.94185 0.13966 0.0
C796 C 0.53427 0.93283 0.04937 0.0
C797 C 0.53517 0.91446 0.01565 0.0
C798 C 0.53295 0.9171 0.95158 0.0
C799 C 0.52963 0.93907 0.9211 0.0
C800 C 0.52855 0.95808 0.95453 0.0
C801 C 0.53063 0.95485 0.01957 0.0
H802 H 0.6728 0.50374 0.07008 0.0
H803 H 0.68371 0.4549 0.94401 0.0
H804 H 0.65185 0.46335 0.88364 0.0
H805 H 0.61485 0.4823 0.07667 0.0
H806 H 0.6088 0.51102 0.08431 0.0
H807 H 0.63447 0.50395 0.11229 0.0
H808 H 0.65577 0.54187 0.04437 0.0
H809 H 0.63012 0.54891 0.01564 0.0
H810 H 0.65094 0.54597 0.96233 0.0
H811 H 0.6178 0.47686 0.83659 0.0
H812 H 0.58188 0.48916 0.8181 0.0
H813 H 0.59055 0.52356 0.9837 0.0
C814 C 0.66865 0.49453 0.03025 0.0
C815 C 0.6815 0.4789 0.01207 0.0
C816 C 0.67504 0.46769 0.95857 0.0
C817 C 0.6567 0.47221 0.92381 0.0
C818 C 0.64451 0.4876 0.94347 0.0
C819 C 0.65 0.49818 0.9962 0.0
C820 C 0.63293 0.51195 0.01139 0.0
C821 C 0.62212 0.50168 0.07491 0.0
C822 C 0.64306 0.53876 0.00823 0.0
C823 C 0.61685 0.50722 0.95938 0.0
C824 C 0.62407 0.4937 0.91958 0.0
C825 C 0.61194 0.48734 0.8677 0.0
C826 C 0.59163 0.49444 0.85736 0.0
C827 C 0.58347 0.50707 0.89973 0.0
C828 C 0.59642 0.51379 0.95072 0.0
H829 H 0.00832 0.62678 0.14907 0.0
H830 H 0.93822 0.59675 0.15408 0.0
H831 H 0.94476 0.563 0.10388 0.0
H832 H 0.0192 0.61462 0.0055 0.0
H833 H 0.04533 0.60617 0.02188 0.0
H834 H 0.03606 0.62613 0.06711 0.0
H835 H 0.03968 0.59794 0.16795 0.0
H836 H 0.04963 0.57817 0.12326 0.0
H837 H 0.02619 0.56687 0.17431 0.0
H838 H 0.9579 0.53727 0.03526 0.0
H839 H 0.97797 0.5158 0.97208 0.0
H840 H 0.03994 0.5599 0.01782 0.0
C841 C 0.99454 0.61243 0.14244 0.0
C842 C 0.97277 0.61418 0.15613 0.0
C843 C 0.95502 0.59552 0.14472 0.0
C844 C 0.95857 0.57641 0.11569 0.0
C845 C 0.98004 0.57591 0.0993 0.0
C846 C 0.99786 0.59294 0.11406 0.0
C847 C 0.01915 0.58861 0.08878 0.0
C848 C 0.0306 0.61017 0.04312 0.0
C849 C 0.03457 0.58253 0.14173 0.0
C850 C 0.0104 0.56709 0.05583 0.0
C851 C 0.98775 0.56022 0.06197 0.0
C852 C 0.97569 0.54209 0.0314 0.0
C853 C 0.98713 0.53018 0.99513 0.0
C854 C 0.01036 0.53626 0.99048 0.0
C855 C 0.02213 0.55492 0.02114 0.0
H856 H 0.08411 0.20019 0.68349 0.0
H857 H 0.14415 0.18278 0.61996 0.0
H858 H 0.12801 0.13998 0.64715 0.0
H859 H 0.07416 0.14823 0.81685 0.0
H860 H 0.04479 0.14506 0.8079 0.0
H861 H 0.0626 0.17416 0.79213 0.0
H862 H 0.0454 0.17912 0.68331 0.0
H863 H 0.02846 0.14957 0.69719 0.0
H864 H 0.04696 0.15771 0.63149 0.0
H865 H 0.10266 0.10018 0.65835 0.0
H866 H 0.07398 0.06393 0.68719 0.0
H867 H 0.03206 0.1065 0.75514 0.0
C868 C 0.09446 0.1876 0.6782 0.0
C869 C 0.11521 0.19496 0.6476 0.0
C870 C 0.12794 0.17762 0.64135 0.0
C871 C 0.11893 0.15324 0.65665 0.0
C872 C 0.09759 0.14662 0.6808 0.0
C873 C 0.08597 0.16321 0.69494 0.0
C874 C 0.0632 0.1512 0.72044 0.0
C875 C 0.06107 0.15488 0.78835 0.0
C876 C 0.04494 0.15994 0.6807 0.0
C877 C 0.06343 0.12541 0.71484 0.0
C878 C 0.08337 0.12328 0.69119 0.0
C879 C 0.08717 0.10152 0.6782 0.0
C880 C 0.07066 0.08114 0.6935 0.0
C881 C 0.05079 0.08268 0.72191 0.0
C882 C 0.04691 0.10508 0.73182 0.0
H883 H 0.35564 0.94677 0.78973 0.0
H884 H 0.36012 0.88763 0.69145 0.0
H885 H 0.39845 0.88947 0.72685 0.0
H886 H 0.40346 0.98007 0.7437 0.0
H887 H 0.41135 0.99296 0.8135 0.0
H888 H 0.38275 0.98256 0.79799 0.0
H889 H 0.37788 0.95466 0.90243 0.0
H890 H 0.40651 0.96538 0.91907 0.0
H891 H 0.39578 0.93378 0.92097 0.0
H892 H 0.43799 0.9036 0.75186 0.0
H893 H 0.47492 0.92808 0.76669 0.0
H894 H 0.4446 0.97849 0.84704 0.0
C895 C 0.36428 0.93331 0.7788 0.0
C896 C 0.35491 0.91682 0.73881 0.0
C897 C 0.36701 0.9002 0.72277 0.0
C898 C 0.38875 0.9011 0.74277 0.0
C899 C 0.39804 0.91862 0.77908 0.0
C900 C 0.38603 0.9342 0.79785 0.0
C901 C 0.40066 0.95386 0.82771 0.0
C902 C 0.39949 0.97881 0.79364 0.0
C903 C 0.39486 0.95178 0.89665 0.0
C904 C 0.42292 0.94785 0.81901 0.0
C905 C 0.42107 0.92713 0.79243 0.0
C906 C 0.43962 0.9195 0.77414 0.0
C907 C 0.46053 0.93359 0.78243 0.0
C908 C 0.46265 0.95523 0.80781 0.0
C909 C 0.44357 0.96199 0.82769 0.0
H910 H 0.39252 0.30767 0.59458 0.0
H911 H 0.42075 0.25003 0.69005 0.0
H912 H 0.43977 0.2769 0.76018 0.0
H913 H 0.43901 0.34576 0.57805 0.0
H914 H 0.42968 0.3727 0.58728 0.0
H915 H 0.41083 0.34802 0.56178 0.0
H916 H 0.38414 0.34673 0.65256 0.0
H917 H 0.4027 0.37196 0.67784 0.0
H918 H 0.39418 0.34483 0.73069 0.0
H919 H 0.46431 0.31123 0.79796 0.0
H920 H 0.49039 0.3495 0.80267 0.0
H921 H 0.44905 0.38599 0.67811 0.0
C922 C 0.40203 0.30044 0.6317 0.0
C923 C 0.40521 0.27671 0.63588 0.0
C924 C 0.41761 0.26795 0.68579 0.0
C925 C 0.42871 0.28323 0.72599 0.0
C926 C 0.42721 0.3072 0.71611 0.0
C927 C 0.41381 0.31572 0.6708 0.0
C928 C 0.41847 0.3428 0.66084 0.0
C929 C 0.42489 0.35288 0.59302 0.0
C930 C 0.39869 0.35213 0.68176 0.0
C931 C 0.43781 0.34812 0.70357 0.0
C932 C 0.44209 0.32742 0.73676 0.0
C933 C 0.46072 0.32762 0.7737 0.0
C934 C 0.4755 0.34944 0.77593 0.0
C935 C 0.47177 0.37068 0.74053 0.0
C936 C 0.45235 0.37 0.70546 0.0
H937 H 0.18653 0.56994 0.75012 0.0
H938 H 0.17616 0.6321 0.62679 0.0
H939 H 0.13972 0.62847 0.67523 0.0
H940 H 0.13707 0.53672 0.73789 0.0
H941 H 0.1334 0.52232 0.81671 0.0
H942 H 0.16067 0.53344 0.78531 0.0
H943 H 0.17054 0.55929 0.87383 0.0
H944 H 0.14324 0.54791 0.9061 0.0
H945 H 0.15339 0.57971 0.88843 0.0
H946 H 0.10171 0.61261 0.71923 0.0
H947 H 0.06635 0.58703 0.75857 0.0
H948 H 0.10204 0.53584 0.85476 0.0
C949 C 0.17713 0.58358 0.73565 0.0
C950 C 0.18421 0.60138 0.68503 0.0
C951 C 0.17103 0.61833 0.66563 0.0
C952 C 0.15035 0.61646 0.69307 0.0
C953 C 0.14324 0.59777 0.74045 0.0
C954 C 0.15646 0.58189 0.7625 0.0
C955 C 0.14393 0.56141 0.80733 0.0
C956 C 0.14375 0.53706 0.78543 0.0
C957 C 0.15333 0.56214 0.87281 0.0
C958 C 0.12127 0.56739 0.80379 0.0
C959 C 0.12123 0.58866 0.76612 0.0
C960 C 0.10164 0.59628 0.75026 0.0
C961 C 0.0816 0.58158 0.7726 0.0
C962 C 0.08133 0.55941 0.80986 0.0
C963 C 0.10155 0.55275 0.82692 0.0
H964 H 0.94749 0.83569 0.94841 0.0
H965 H 0.00525 0.81159 0.0255 0.0
H966 H 0.02806 0.8517 0.99337 0.0
H967 H 0.97788 0.87819 0.81518 0.0
H968 H 0.96036 0.89921 0.82009 0.0
H969 H 0.94954 0.8676 0.83966 0.0
H970 H 0.93741 0.87508 0.94709 0.0
H971 H 0.94859 0.90655 0.92874 0.0
H972 H 0.95768 0.88992 0.9968 0.0
H973 H 0.04289 0.89604 0.97033 0.0
H974 H 0.04989 0.94008 0.94141 0.0
H975 H 0.98263 0.9343 0.87691 0.0
C976 C 0.96509 0.8387 0.95622 0.0
C977 C 0.97472 0.82067 0.98873 0.0
C978 C 0.99771 0.82516 0.99943 0.0
C979 C 0.01075 0.8479 0.98186 0.0
C980 C 1.00055 0.86571 0.95265 0.0
C981 C 0.97837 0.86118 0.93819 0.0
C982 C 0.97117 0.88368 0.90968 0.0
C983 C 0.96432 0.88207 0.84213 0.0
C984 C 0.95263 0.88911 0.94789 0.0
C985 C 0.99241 0.90169 0.91354 0.0
C986 C 0.00924 0.89108 0.93816 0.0
C987 C 0.02998 0.90452 0.94973 0.0
C988 C 0.03373 0.92946 0.934 0.0
C989 C 0.01681 0.94041 0.90694 0.0
C990 C 0.99593 0.92632 0.89707 0.0
H991 H 0.66659 0.10174 0.98583 0.0
H992 H 0.70577 0.07753 0.8542 0.0
H993 H 0.67505 0.07456 0.78244 0.0
H994 H 0.62399 0.05895 0.97879 0.0
H995 H 0.60236 0.07505 0.9863 0.0
H996 H 0.62915 0.08552 0.01624 0.0
H997 H 0.63158 0.1268 0.95004 0.0
H998 H 0.60449 0.1165 0.92017 0.0
H999 H 0.62742 0.12856 0.86777 0.0
H1000 H 0.63886 0.06148 0.7409 0.0
H1001 H 0.60041 0.04037 0.73255 0.0
H1002 H 0.58236 0.06965 0.89193 0.0
C1003 C 0.66896 0.09652 0.94113 0.0
C1004 C 0.68873 0.08974 0.9264 0.0
C1005 C 0.69115 0.08333 0.8669 0.0
C1006 C 0.67361 0.08147 0.82548 0.0
C1007 C 0.65367 0.08605 0.84392 0.0
C1008 C 0.65129 0.09378 0.90014 0.0
C1009 C 0.6272 0.09241 0.91493 0.0
C1010 C 0.62029 0.07706 0.97771 0.0
C1011 C 0.62239 0.11757 0.91309 0.0
C1012 C 0.61636 0.08044 0.86145 0.0
C1013 C 0.63198 0.07785 0.81974 0.0
C1014 C 0.62643 0.06411 0.77191 0.0
C1015 C 0.60459 0.052 0.76784 0.0
C1016 C 0.58857 0.05365 0.8114 0.0
C1017 C 0.59429 0.06879 0.85714 0.0
H1018 H 0.65543 0.70229 0.11646 0.0
H1019 H 0.63455 0.76319 0.01129 0.0
H1020 H 0.61421 0.73708 0.94147 0.0
H1021 H 0.65231 0.66329 0.98441 0.0
H1022 H 0.6409 0.63707 0.03764 0.0
H1023 H 0.66077 0.66104 0.06404 0.0
H1024 H 0.63327 0.66341 0.14963 0.0
H1025 H 0.61313 0.64005 0.12283 0.0
H1026 H 0.60625 0.66858 0.12825 0.0
H1027 H 0.58764 0.70437 0.90294 0.0
H1028 H 0.55945 0.66792 0.895 0.0
H1029 H 0.59499 0.62749 0.02855 0.0
C1030 C 0.64726 0.71032 0.07744 0.0
C1031 C 0.64654 0.73488 0.07035 0.0
C1032 C 0.63583 0.7446 0.01793 0.0
C1033 C 0.62397 0.72978 0.97786 0.0
C1034 C 0.62303 0.70528 0.99032 0.0
C1035 C 0.63478 0.69561 0.03819 0.0
C1036 C 0.62776 0.6686 0.04939 0.0
C1037 C 0.64656 0.65681 0.03286 0.0
C1038 C 0.61962 0.65967 0.11645 0.0
C1039 C 0.60908 0.66484 1.0039 0.0
C1040 C 0.60705 0.6861 0.96887 0.0
C1041 C 0.58948 0.68749 0.9287 0.0
C1042 C 0.57347 0.6667 0.92466 0.0
C1043 C 0.57497 0.64487 0.9613 0.0
C1044 C 0.59332 0.64395 1.00021 0.0
H1045 H 0.85579 0.4397 0.90606 0.0
H1046 H 0.8619 0.38199 0.05037 0.0
H1047 H 0.90033 0.38473 0.01744 0.0
H1048 H 0.89552 0.4256 0.78906 0.0
H1049 H 0.90561 0.45713 0.76556 0.0
H1050 H 0.87721 0.44616 0.78912 0.0
H1051 H 0.8822 0.47559 0.87028 0.0
H1052 H 0.91054 0.4863 0.84768 0.0
H1053 H 0.90354 0.47463 0.92728 0.0
H1054 H 0.93992 0.40006 0.98559 0.0
H1055 H 0.97633 0.42549 0.95438 0.0
H1056 H 0.94388 0.47225 0.82898 0.0
C1057 C 0.8648 0.42675 0.92847 0.0
C1058 C 0.85584 0.41056 0.9805 0.0
C1059 C 0.86847 0.39453 0.01032 0.0
C1060 C 0.89029 0.39589 0.99173 0.0
C1061 C 0.89912 0.41309 0.94259 0.0
C1062 C 0.88657 0.42792 0.91044 0.0
C1063 C 0.90063 0.44715 0.86545 0.0
C1064 C 0.89437 0.44379 0.79832 0.0
C1065 C 0.89914 0.47238 0.87855 0.0
C1066 C 0.92318 0.44185 0.88046 0.0
C1067 C 0.92203 0.42186 0.92398 0.0
C1068 C 0.94102 0.41534 0.95018 0.0
C1069 C 0.96164 0.42991 0.93235 0.0
C1070 C 0.963 0.45088 0.8894 0.0
C1071 C 0.9435 0.45631 0.86185 0.0
H1072 H 0.04969 0.20735 0.25236 0.0
H1073 H 0.06292 0.2646 0.09915 0.0
H1074 H 0.05891 0.2345 0.02604 0.0
H1075 H 0.08136 0.17191 0.19912 0.0
H1076 H 0.06353 0.14372 0.22692 0.0
H1077 H 0.06361 0.16941 0.26522 0.0
H1078 H 0.02151 0.16489 0.24941 0.0
H1079 H 0.02119 0.13887 0.21194 0.0
H1080 H 0.01036 0.16356 0.17286 0.0
H1081 H 0.05798 0.19732 0.97162 0.0
H1082 H 0.05877 0.15773 0.94128 0.0
H1083 H 0.04665 0.12546 0.13217 0.0
C1084 C 0.05104 0.21355 0.20318 0.0
C1085 C 0.05638 0.23829 0.1812 0.0
C1086 C 0.05843 0.24576 0.11676 0.0
C1087 C 0.05634 0.22875 0.0751 0.0
C1088 C 0.05206 0.20441 0.09876 0.0
C1089 C 0.04915 0.19692 0.16146 0.0
C1090 C 0.04646 0.17004 0.17637 0.0
C1091 C 0.06483 0.1634 0.21943 0.0
C1092 C 0.02351 0.15868 0.20428 0.0
C1093 C 0.04883 0.16344 0.1125 0.0
C1094 C 0.05184 0.1834 0.06809 0.0
C1095 C 0.0553 0.18161 0.00608 0.0
C1096 C 0.05567 0.15898 0.98923 0.0
C1097 C 0.05276 0.1383 0.03421 0.0
C1098 C 0.04914 0.14079 0.09654 0.0
H1099 H 0.33045 0.97504 0.19633 0.0
H1100 H 0.32712 0.04202 0.26048 0.0
H1101 H 0.35369 0.0637 0.17855 0.0
H1102 H 0.38543 0.98624 0.1769 0.0
H1103 H 0.38614 0.97206 0.10858 0.0
H1104 H 0.36311 0.9624 0.1612 0.0
H1105 H 0.33612 0.97034 0.07263 0.0
H1106 H 0.35908 0.97959 0.01918 0.0
H1107 H 0.34041 0.99927 0.02618 0.0
H1108 H 0.38601 0.07682 0.10397 0.0
H1109 H 0.41904 0.08063 0.0391 0.0
H1110 H 0.4011 1.00493 0.02291 0.0
C1111 C 0.33466 0.99437 0.19151 0.0
C1112 C 0.32662 0.00688 0.23449 0.0
C1113 C 0.33274 0.03213 0.22738 0.0
C1114 C 0.34796 0.04456 0.18121 0.0
C1115 C 0.35665 0.03149 0.14201 0.0
C1116 C 0.34984 0.00696 0.14593 0.0
C1117 C 0.36334 0.99671 0.1033 0.0
C1118 C 0.3752 0.97828 0.13969 0.0
C1119 C 0.34887 0.98584 0.05228 0.0
C1120 C 0.37954 0.01911 0.07703 0.0
C1121 C 0.37524 0.03905 0.09912 0.0
C1122 C 0.38915 0.06141 0.08518 0.0
C1123 C 0.40791 0.06341 0.04806 0.0
C1124 C 0.41277 0.04313 0.02538 0.0
C1125 C 0.39805 0.02081 0.03954 0.0
H1126 H 0.45234 0.33449 0.08172 0.0
H1127 H 0.50624 0.3389 0.21179 0.0
H1128 H 0.52295 0.37911 0.1588 0.0
H1129 H 0.48621 0.36688 0.94526 0.0
H1130 H 0.46432 0.38122 0.91464 0.0
H1131 H 0.45786 0.35206 0.95972 0.0
H1132 H 0.43404 0.36826 0.03338 0.0
H1133 H 0.44086 0.39759 0.98935 0.0
H1134 H 0.44632 0.39365 0.07106 0.0
H1135 H 0.5313 0.42063 0.09994 0.0
H1136 H 0.53381 0.45848 0.02894 0.0
H1137 H 0.47575 0.42668 0.93312 0.0
C1138 C 0.46793 0.34374 0.09809 0.0
C1139 C 0.47808 0.33355 0.15076 0.0
C1140 C 0.49838 0.3462 0.17103 0.0
C1141 C 0.50787 0.36914 0.14155 0.0
C1142 C 0.49704 0.37902 0.09118 0.0
C1143 C 0.4778 0.36651 0.06856 0.0
C1144 C 0.46936 0.38136 0.01411 0.0
C1145 C 0.46946 0.36969 0.95492 0.0
C1146 C 0.44628 0.38545 0.02784 0.0
C1147 C 0.48652 0.40443 0.01072 0.0
C1148 C 0.50226 0.40273 0.05593 0.0
C1149 C 0.51922 0.42206 0.06396 0.0
C1150 C 0.52041 0.44352 0.02398 0.0
C1151 C 0.50481 0.44542 0.97655 0.0
C1152 C 0.4877 0.42564 0.96966 0.0
H1153 H 0.21221 0.49356 0.30459 0.0
H1154 H 0.25628 0.54896 0.18671 0.0
H1155 H 0.23267 0.5398 0.09647 0.0
H1156 H 0.1966 0.45145 0.18635 0.0
H1157 H 0.16865 0.44268 0.21526 0.0
H1158 H 0.19094 0.45114 0.26717 0.0
H1159 H 0.17124 0.4829 0.30077 0.0
H1160 H 0.14911 0.47489 0.24838 0.0
H1161 H 0.16402 0.50543 0.243 0.0
H1162 H 0.20131 0.52819 0.02314 0.0
H1163 H 0.16609 0.51416 0.97197 0.0
H1164 H 0.14304 0.46555 0.13823 0.0
C1165 C 0.21727 0.50304 0.25918 0.0
C1166 C 0.23623 0.52151 0.25175 0.0
C1167 C 0.24208 0.53431 0.19251 0.0
C1168 C 0.22871 0.52929 0.1413 0.0
C1169 C 0.20969 0.51134 0.15038 0.0
C1170 C 0.20418 0.49817 0.20779 0.0
C1171 C 0.18207 0.48119 0.20667 0.0
C1172 C 0.18473 0.45507 0.21962 0.0
C1173 C 0.16565 0.48643 0.2524 0.0
C1174 C 0.17552 0.48748 0.14036 0.0
C1175 C 0.19173 0.5047 0.10835 0.0
C1176 C 0.18873 0.51434 0.04743 0.0
C1177 C 0.16866 0.50618 0.01865 0.0
C1178 C 0.15175 0.48862 0.05084 0.0
C1179 C 0.15551 0.47905 0.1123 0.0
H1180 H 0.98517 0.81521 0.40231 0.0
H1181 H 0.9656 0.75875 0.55531 0.0
H1182 H 0.96998 0.78923 0.62724 0.0
H1183 H 0.02524 0.85531 0.48544 0.0
H1184 H 0.01758 0.88165 0.44438 0.0
H1185 H 0.01516 0.85516 0.40751 0.0
H1186 H 0.97396 0.85538 0.38615 0.0
H1187 H 0.97615 0.8817 0.42348 0.0
H1188 H 0.95575 0.85525 0.44969 0.0
H1189 H 0.97351 0.82707 0.68058 0.0
H1190 H 0.97695 0.86752 0.71019 0.0
H1191 H 0.99379 0.89856 0.52052 0.0
C1192 C 0.98201 0.80915 0.4511 0.0
C1193 C 0.97492 0.78453 0.47315 0.0
C1194 C 0.97121 0.77744 0.5374 0.0
C1195 C 0.97354 0.79468 0.57846 0.0
C1196 C 0.97977 0.81889 0.55457 0.0
C1197 C 0.98416 0.82602 0.49229 0.0
C1198 C 0.98957 0.85302 0.47711 0.0
C1199 C 0.0133 0.8618 0.45215 0.0
C1200 C 0.97286 0.86184 0.43142 0.0
C1201 C 0.98717 0.86017 0.54037 0.0
C1202 C 0.98167 0.84031 0.58468 0.0
C1203 C 0.97805 0.84266 0.6462 0.0
C1204 C 0.98013 0.86579 0.66268 0.0
C1205 C 0.98568 0.88641 0.61789 0.0
C1206 C 0.98931 0.88332 0.55598 0.0
H1207 H 0.70001 0.96793 0.3672 0.0
H1208 H 0.75423 1.00152 0.47392 0.0
H1209 H 0.73022 0.99192 0.56742 0.0
H1210 H 0.6607 0.99149 0.42719 0.0
H1211 H 0.63847 0.96581 0.42758 0.0
H1212 H 0.66087 0.97051 0.37322 0.0
H1213 H 0.66851 0.92859 0.41298 0.0
H1214 H 0.64583 0.92354 0.467 0.0
H1215 H 0.67288 0.92059 0.4943 0.0
H1216 H 0.69837 0.98478 0.64401 0.0
H1217 H 0.66256 0.97851 0.69835 0.0
H1218 H 0.62915 0.95058 0.53954 0.0
C1219 C 0.70704 0.97249 0.41083 0.0
C1220 C 0.72902 0.98531 0.41358 0.0
C1221 C 0.73758 0.99132 0.47112 0.0
C1222 C 0.72399 0.98607 0.52428 0.0
C1223 C 0.70199 0.97456 0.5191 0.0
C1224 C 0.69371 0.96748 0.46389 0.0
C1225 C 0.66909 0.95762 0.46832 0.0
C1226 C 0.65656 0.97224 0.42131 0.0
C1227 C 0.66377 0.931 0.46018 0.0
C1228 C 0.66454 0.96107 0.53394 0.0
C1229 C 0.68373 0.9706 0.56282 0.0
C1230 C 0.68334 0.97694 0.62211 0.0
C1231 C 0.66288 0.97351 0.65241 0.0
C1232 C 0.643 0.96395 0.62339 0.0
C1233 C 0.64403 0.95742 0.56361 0.0
H1234 H 0.59029 0.68631 0.61321 0.0
H1235 H 0.54124 0.67853 0.46928 0.0
H1236 H 0.52542 0.63762 0.51945 0.0
H1237 H 0.60018 0.6283 0.62533 0.0
H1238 H 0.60357 0.62437 0.70799 0.0
H1239 H 0.60985 0.6539 0.66486 0.0
H1240 H 0.58224 0.66833 0.73201 0.0
H1241 H 0.5775 0.63915 0.77683 0.0
H1242 H 0.55454 0.65096 0.74305 0.0
H1243 H 0.51807 0.59582 0.57764 0.0
H1244 H 0.51577 0.55822 0.64952 0.0
H1245 H 0.56815 0.59359 0.75912 0.0
C1246 C 0.5759 0.67619 0.59305 0.0
C1247 C 0.56692 0.68567 0.53738 0.0
C1248 C 0.54816 0.67181 0.51234 0.0
C1249 C 0.53921 0.64845 0.5402 0.0
C1250 C 0.54903 0.6393 0.59358 0.0
C1251 C 0.56664 0.65293 0.62062 0.0
C1252 C 0.5745 0.63867 0.67714 0.0
C1253 C 0.59844 0.63617 0.66826 0.0
C1254 C 0.572 0.64995 0.73573 0.0
C1255 C 0.55862 0.61482 0.6776 0.0
C1256 C 0.5443 0.61547 0.62835 0.0
C1257 C 0.52899 0.59521 0.61678 0.0
C1258 C 0.52794 0.57391 0.65735 0.0
C1259 C 0.54191 0.57311 0.70911 0.0
C1260 C 0.5574 0.59381 0.71948 0.0
H1261 H 0.82618 0.45298 0.49157 0.0
H1262 H 0.81125 0.51875 0.39627 0.0
H1263 H 0.83348 0.54138 0.47188 0.0
H1264 H 0.82969 0.47064 0.65279 0.0
H1265 H 0.85235 0.45581 0.67154 0.0
H1266 H 0.83144 0.44433 0.61869 0.0
H1267 H 0.86171 0.44667 0.53652 0.0
H1268 H 0.88261 0.45844 0.58857 0.0
H1269 H 0.88031 0.47482 0.51312 0.0
H1270 H 0.86287 0.55751 0.54463 0.0
H1271 H 0.89517 0.56559 0.61172 0.0
H1272 H 0.89067 0.48923 0.66143 0.0
C1273 C 0.82703 0.47206 0.48775 0.0
C1274 C 0.8169 0.48408 0.43808 0.0
C1275 C 0.81852 0.50907 0.43448 0.0
C1276 C 0.83123 0.5221 0.47709 0.0
C1277 C 0.84198 0.50984 0.52354 0.0
C1278 C 0.83967 0.48528 0.5298 0.0
C1279 C 0.85471 0.47664 0.5794 0.0
C1280 C 0.84124 0.46093 0.63384 0.0
C1281 C 0.87078 0.46338 0.55277 0.0
C1282 C 0.86666 0.50025 0.59786 0.0
C1283 C 0.85887 0.51917 0.56585 0.0
C1284 C 0.8687 0.5428 0.57118 0.0
C1285 C 0.88705 0.54721 0.60968 0.0
C1286 C 0.89553 0.52809 0.64237 0.0
C1287 C 0.88477 0.50432 0.63704 0.0
loop_
_geom_bond_atom_site_label_1
_geom_bond_atom_site_label_2
_geom_bond_distance
_geom_bond_site_symmetry_2
_ccdc_geom_bond_type
C0 C1 1.391 . S
C0 C4 1.391 . S
C0 H42 0.948 . S
C1 C0 1.391 . S
C1 C2 1.391 . S
C2 C1 1.391 . S
C2 H58 0.947 . S
C2 C59 1.392 . S
C3 C4 1.391 . S
C3 C7 1.397 . S
C3 C59 1.419 . S
C4 C0 1.391 . S
C4 C3 1.391 . S
C4 C5 1.399 . S
C5 C4 1.399 . S
C5 C8 1.396 . S
C5 C17 1.453 . S
C5 C18 1.684 . S
H6 C30 0.948 . S
C7 C3 1.397 . S
C7 C8 1.394 . S
C7 C26 1.723 . S
C8 C5 1.396 . S
C8 C7 1.394 . S
C8 C38 1.723 . S
H9 C32 0.947 . S
H10 C33 0.948 . S
H11 C39 0.982 . S
H12 C40 0.979 . S
H13 C40 0.980 . S
H14 C40 0.983 . S
H15 C39 0.979 . S
H16 C39 0.977 . S
C17 C5 1.453 . S
C17 H46 0.982 . S
C17 H47 0.979 . S
C17 H48 0.977 . S
C18 C5 1.684 . S
C18 H43 0.979 . S
C18 H44 0.980 . S
C18 H45 0.983 . S
C19 C20 1.391 . S
C19 C24 1.391 . S
C19 H49 0.948 . S
C20 C19 1.391 . S
C20 C21 1.391 . S
C21 C20 1.391 . S
C21 C22 1.392 . S
C21 H50 0.947 . S
C22 C21 1.392 . S
C22 C23 1.419 . S
C22 H51 0.948 . S
C23 C22 1.419 . S
C23 C24 1.391 . S
C23 C27 1.397 1_556 S
C24 C19 1.391 . S
C24 C23 1.391 . S
C24 C25 1.399 1_556 S
C25 C24 1.399 1_554 S
C25 C26 1.396 . S
C25 C28 1.453 . S
C25 C29 1.684 . S
C26 C7 1.723 . S
C26 C25 1.396 . S
C26 C27 1.394 . S
C27 C23 1.397 1_554 S
C27 C26 1.394 . S
C27 C37 1.723 . S
C28 C25 1.453 . S
C28 H52 0.982 . S
C28 H53 0.979 . S
C28 H54 0.977 . S
C29 C25 1.684 . S
C29 H55 0.979 . S
C29 H56 0.980 . S
C29 H57 0.983 . S
C30 H6 0.948 . S
C30 C31 1.391 1_556 S
C30 C35 1.391 . S
C31 C30 1.391 1_554 S
C31 C32 1.391 . S
C32 H9 0.947 . S
C32 C31 1.391 . S
C32 C33 1.392 . S
C33 H10 0.948 . S
C33 C32 1.392 . S
C33 C34 1.419 . S
C34 C33 1.419 . S
C34 C35 1.391 1_554 S
C34 C38 1.397 . S
C35 C30 1.391 . S
C35 C34 1.391 1_556 S
C35 C36 1.399 . S
C36 C35 1.399 . S
C36 C37 1.396 1_556 S
C36 C39 1.453 . S
C36 C40 1.684 . S
C37 C27 1.723 . S
C37 C36 1.396 1_554 S
C37 C38 1.394 . S
C38 C8 1.723 . S
C38 C34 1.397 . S
C38 C37 1.394 . S
C39 H11 0.982 . S
C39 H15 0.979 . S
C39 H16 0.977 . S
C39 C36 1.453 . S
C40 H12 0.979 . S
C40 H13 0.980 . S
C40 H14 0.983 . S
C40 C36 1.684 . S
H41 C59 0.948 . S
H42 C0 0.948 . S
H43 C18 0.979 . S
H44 C18 0.980 . S
H45 C18 0.983 . S
H46 C17 0.982 . S
H47 C17 0.979 . S
H48 C17 0.977 . S
H49 C19 0.948 . S
H50 C21 0.947 . S
H51 C22 0.948 . S
H52 C28 0.982 . S
H53 C28 0.979 . S
H54 C28 0.977 . S
H55 C29 0.979 . S
H56 C29 0.980 . S
H57 C29 0.983 . S
H58 C2 0.947 . S
C59 C2 1.392 . S
C59 C3 1.419 . S
C59 H41 0.948 . S
C60 C61 1.391 . S
C60 C64 1.391 . S
C60 H102 0.948 . S
C61 C60 1.391 . S
C61 C62 1.391 . S
C62 C61 1.391 . S
C62 H118 0.947 . S
C62 C119 1.392 . S
C63 C64 1.391 . S
C63 C67 1.397 1_556 S
C63 C119 1.419 . S
C64 C60 1.391 . S
C64 C63 1.391 . S
C64 C65 1.399 . S
C65 C64 1.399 . S
C65 C68 1.397 1_556 S
C65 C77 1.453 . S
C65 C78 1.684 . S
H66 C90 0.948 . S
C67 C63 1.397 1_554 S
C67 C68 1.394 . S
C67 C86 1.723 . S
C68 C65 1.397 1_554 S
C68 C67 1.394 . S
C68 C98 1.723 . S
H69 C92 0.947 . S
H70 C93 0.948 . S
H71 C99 0.982 . S
H72 C100 0.979 . S
H73 C100 0.980 . S
H74 C100 0.983 . S
H75 C99 0.979 . S
H76 C99 0.977 . S
C77 C65 1.453 . S
C77 H106 0.982 . S
C77 H107 0.979 . S
C77 H108 0.977 . S
C78 C65 1.684 . S
C78 H103 0.979 . S
C78 H104 0.980 . S
C78 H105 0.983 . S
C79 C80 1.391 . S
C79 C84 1.391 . S
C79 H109 0.948 . S
C80 C79 1.391 . S
C80 C81 1.391 . S
C81 C80 1.391 . S
C81 C82 1.392 . S
C81 H110 0.947 . S
C82 C81 1.392 . S
C82 C83 1.419 . S
C82 H111 0.948 . S
C83 C82 1.419 . S
C83 C84 1.391 . S
C83 C87 1.397 . S
C84 C79 1.391 . S
C84 C83 1.391 . S
C84 C85 1.399 . S
C85 C84 1.399 . S
C85 C86 1.396 . S
C85 C88 1.453 . S
C85 C89 1.684 . S
C86 C67 1.723 . S
C86 C85 1.396 . S
C86 C87 1.394 . S
C87 C83 1.397 . S
C87 C86 1.394 . S
C87 C97 1.723 . S
C88 C85 1.453 . S
C88 H112 0.982 . S
C88 H113 0.979 . S
C88 H114 0.977 . S
C89 C85 1.684 . S
C89 H115 0.979 . S
C89 H116 0.980 . S
C89 H117 0.983 . S
C90 H66 0.948 . S
C90 C91 1.391 . S
C90 C95 1.391 . S
C91 C90 1.391 . S
C91 C92 1.391 1_554 S
C92 H69 0.947 . S
C92 C91 1.391 1_556 S
C92 C93 1.392 . S
C93 H70 0.948 . S
C93 C92 1.392 . S
C93 C94 1.419 1_556 S
C94 C93 1.419 1_554 S
C94 C95 1.391 . S
C94 C98 1.397 . S
C95 C90 1.391 . S
C95 C94 1.391 . S
C95 C96 1.399 . S
C96 C95 1.399 . S
C96 C97 1.396 . S
C96 C99 1.453 . S
C96 C100 1.684 . S
C97 C87 1.723 . S
C97 C96 1.396 . S
C97 C98 1.394 . S
C98 C68 1.723 . S
C98 C94 1.397 . S
C98 C97 1.394 . S
C99 H71 0.982 . S
C99 H75 0.979 . S
C99 H76 0.977 . S
C99 C96 1.453 . S
C100 H72 0.979 . S
C100 H73 0.980 . S
C100 H74 0.983 . S
C100 C96 1.684 . S
H101 C119 0.948 1_554 S
H102 C60 0.948 . S
H103 C78 0.979 . S
H104 C78 0.980 . S
H105 C78 0.983 . S
H106 C77 0.982 . S
H107 C77 0.979 . S
H108 C77 0.977 . S
H109 C79 0.948 . S
H110 C81 0.947 . S
H111 C82 0.948 . S
H112 C88 0.982 . S
H113 C88 0.979 . S
H114 C88 0.977 . S
H115 C89 0.979 . S
H116 C89 0.980 . S
H117 C89 0.983 . S
H118 C62 0.947 . S
C119 C62 1.392 . S
C119 C63 1.419 . S
C119 H101 0.948 1_556 S
C120 C121 1.391 . S
C120 C124 1.391 1_556 S
C120 H162 0.948 1_556 S
C121 C120 1.391 . S
C121 C122 1.391 . S
C122 C121 1.391 . S
C122 H178 0.947 . S
C122 C179 1.392 . S
C123 C124 1.391 1_556 S
C123 C127 1.398 1_565 S
C123 C179 1.419 . S
C124 C120 1.391 1_554 S
C124 C123 1.391 1_554 S
C124 C125 1.399 . S
C125 C124 1.399 . S
C125 C128 1.396 1_565 S
C125 C137 1.453 1_565 S
C125 C138 1.684 . S
H126 C150 0.948 . S
C127 C123 1.398 1_545 S
C127 C128 1.394 1_556 S
C127 C146 1.723 . S
C128 C125 1.396 1_545 S
C128 C127 1.394 1_554 S
C128 C158 1.723 . S
H129 C152 0.947 . S
H130 C153 0.948 . S
H131 C159 0.982 . S
H132 C160 0.979 . S
H133 C160 0.980 . S
H134 C160 0.983 . S
H135 C159 0.979 . S
H136 C159 0.977 . S
C137 C125 1.453 1_545 S
C137 H166 0.982 . S
C137 H167 0.979 . S
C137 H168 0.977 . S
C138 C125 1.684 . S
C138 H163 0.979 . S
C138 H164 0.980 . S
C138 H165 0.983 . S
C139 C140 1.391 . S
C139 C144 1.391 . S
C139 H169 0.948 . S
C140 C139 1.391 . S
C140 C141 1.391 . S
C141 C140 1.391 . S
C141 C142 1.392 . S
C141 H170 0.947 . S
C142 C141 1.392 . S
C142 C143 1.419 . S
C142 H171 0.948 . S
C143 C142 1.419 . S
C143 C144 1.391 . S
C143 C147 1.397 1_565 S
C144 C139 1.391 . S
C144 C143 1.391 . S
C144 C145 1.399 . S
C145 C144 1.399 . S
C145 C146 1.396 1_565 S
C145 C148 1.453 1_565 S
C145 C149 1.684 . S
C146 C127 1.723 . S
C146 C145 1.396 1_545 S
C146 C147 1.395 . S
C147 C143 1.397 1_545 S
C147 C146 1.395 . S
C147 C157 1.722 1_556 S
C148 C145 1.453 1_545 S
C148 H172 0.982 . S
C148 H173 0.979 . S
C148 H174 0.977 . S
C149 C145 1.684 . S
C149 H175 0.979 . S
C149 H176 0.980 . S
C149 H177 0.983 . S
C150 H126 0.948 . S
C150 C151 1.391 . S
C150 C155 1.391 . S
C151 C150 1.391 . S
C151 C152 1.391 . S
C152 H129 0.947 . S
C152 C151 1.391 . S
C152 C153 1.392 . S
C153 H130 0.948 . S
C153 C152 1.392 . S
C153 C154 1.419 . S
C154 C153 1.419 . S
C154 C155 1.391 . S
C154 C158 1.396 1_565 S
C155 C150 1.391 . S
C155 C154 1.391 . S
C155 C156 1.399 . S
C156 C155 1.399 . S
C156 C157 1.396 1_565 S
C156 C159 1.453 1_565 S
C156 C160 1.684 . S
C157 C147 1.722 1_554 S
C157 C156 1.396 1_545 S
C157 C158 1.394 . S
C158 C128 1.723 . S
C158 C154 1.396 1_545 S
C158 C157 1.394 . S
C159 H131 0.982 . S
C159 H135 0.979 . S
C159 H136 0.977 . S
C159 C156 1.453 1_545 S
C160 H132 0.979 . S
C160 H133 0.980 . S
C160 H134 0.983 . S
C160 C156 1.684 . S
H161 C179 0.948 . S
H162 C120 0.948 1_554 S
H163 C138 0.979 . S
H164 C138 0.980 . S
H165 C138 0.983 . S
H166 C137 0.982 . S
H167 C137 0.979 . S
H168 C137 0.977 . S
H169 C139 0.948 . S
H170 C141 0.947 . S
H171 C142 0.948 . S
H172 C148 0.982 . S
H173 C148 0.979 . S
H174 C148 0.977 . S
H175 C149 0.979 . S
H176 C149 0.980 . S
H177 C149 0.983 . S
H178 C122 0.947 . S
C179 C122 1.392 . S
C179 C123 1.419 . S
C179 H161 0.948 . S
C180 C181 1.391 . S
C180 C184 1.391 . S
C180 H222 0.948 . S
C181 C180 1.391 . S
C181 C182 1.391 . S
C182 C181 1.391 . S
C182 H238 0.947 . S
C182 C239 1.392 . S
C183 C184 1.391 . S
C183 C187 1.397 . S
C183 C239 1.419 . S
C184 C180 1.391 . S
C184 C183 1.391 . S
C184 C185 1.399 . S
C185 C184 1.399 . S
C185 C188 1.396 . S
C185 C197 1.453 . S
C185 C198 1.684 . S
H186 C210 0.948 . S
C187 C183 1.397 . S
C187 C188 1.394 . S
C187 C206 1.723 . S
C188 C185 1.396 . S
C188 C187 1.394 . S
C188 C218 1.723 . S
H189 C212 0.947 . S
H190 C213 0.948 . S
H191 C219 0.982 . S
H192 C220 0.979 . S
H193 C220 0.980 . S
H194 C220 0.983 . S
H195 C219 0.979 . S
H196 C219 0.977 . S
C197 C185 1.453 . S
C197 H226 0.982 . S
C197 H227 0.979 . S
C197 H228 0.977 . S
C198 C185 1.684 . S
C198 H223 0.979 . S
C198 H224 0.980 . S
C198 H225 0.983 . S
C199 C200 1.391 . S
C199 C204 1.391 . S
C199 H229 0.948 . S
C200 C199 1.391 . S
C200 C201 1.391 . S
C201 C200 1.391 . S
C201 C202 1.392 . S
C201 H230 0.947 . S
C202 C201 1.392 . S
C202 C203 1.419 . S
C202 H231 0.948 . S
C203 C202 1.419 . S
C203 C204 1.391 . S
C203 C207 1.397 . S
C204 C199 1.391 . S
C204 C203 1.391 . S
C204 C205 1.399 . S
C205 C204 1.399 . S
C205 C206 1.396 . S
C205 C208 1.453 . S
C205 C209 1.684 . S
C206 C187 1.723 . S
C206 C205 1.396 . S
C206 C207 1.394 . S
C207 C203 1.397 . S
C207 C206 1.394 . S
C207 C217 1.723 . S
C208 C205 1.453 . S
C208 H232 0.982 . S
C208 H233 0.979 . S
C208 H234 0.977 . S
C209 C205 1.684 . S
C209 H235 0.979 . S
C209 H236 0.980 . S
C209 H237 0.983 . S
C210 H186 0.948 . S
C210 C211 1.391 . S
C210 C215 1.391 . S
C211 C210 1.391 . S
C211 C212 1.391 . S
C212 H189 0.947 . S
C212 C211 1.391 . S
C212 C213 1.392 . S
C213 H190 0.948 . S
C213 C212 1.392 . S
C213 C214 1.419 . S
C214 C213 1.419 . S
C214 C215 1.391 . S
C214 C218 1.397 . S
C215 C210 1.391 . S
C215 C214 1.391 . S
C215 C216 1.399 . S
C216 C215 1.399 . S
C216 C217 1.396 . S
C216 C219 1.453 . S
C216 C220 1.684 . S
C217 C207 1.723 . S
C217 C216 1.396 . S
C217 C218 1.394 . S
C218 C188 1.723 . S
C218 C214 1.397 . S
C218 C217 1.394 . S
C219 H191 0.982 . S
C219 H195 0.979 . S
C219 H196 0.977 . S
C219 C216 1.453 . S
C220 H192 0.979 . S
C220 H193 0.980 . S
C220 H194 0.983 . S
C220 C216 1.684 . S
H221 C239 0.948 . S
H222 C180 0.948 . S
H223 C198 0.979 . S
H224 C198 0.980 . S
H225 C198 0.983 . S
H226 C197 0.982 . S
H227 C197 0.979 . S
H228 C197 0.977 . S
H229 C199 0.948 . S
H230 C201 0.947 . S
H231 C202 0.948 . S
H232 C208 0.982 . S
H233 C208 0.979 . S
H234 C208 0.977 . S
H235 C209 0.979 . S
H236 C209 0.980 . S
H237 C209 0.983 . S
H238 C182 0.947 . S
C239 C182 1.392 . S
C239 C183 1.419 . S
C239 H221 0.948 . S
C240 C241 1.391 . S
C240 C244 1.391 . S
C240 H282 0.948 . S
C241 C240 1.391 . S
C241 C242 1.391 . S
C242 C241 1.391 . S
C242 H298 0.947 . S
C242 C299 1.392 . S
C243 C244 1.391 . S
C243 C247 1.397 . S
C243 C299 1.419 . S
C244 C240 1.391 . S
C244 C243 1.391 . S
C244 C245 1.399 . S
C245 C244 1.399 . S
C245 C248 1.396 . S
C245 C257 1.453 . S
C245 C258 1.684 . S
H246 C270 0.948 . S
C247 C243 1.397 . S
C247 C248 1.394 . S
C247 C266 1.723 . S
C248 C245 1.396 . S
C248 C247 1.394 . S
C248 C278 1.723 . S
H249 C272 0.947 . S
H250 C273 0.948 . S
H251 C279 0.982 . S
H252 C280 0.979 . S
H253 C280 0.980 . S
H254 C280 0.983 . S
H255 C279 0.979 . S
H256 C279 0.977 . S
C257 C245 1.453 . S
C257 H286 0.982 . S
C257 H287 0.979 . S
C257 H288 0.977 . S
C258 C245 1.684 . S
C258 H283 0.979 . S
C258 H284 0.980 . S
C258 H285 0.983 . S
C259 C260 1.391 . S
C259 C264 1.391 . S
C259 H289 0.948 . S
C260 C259 1.391 . S
C260 C261 1.391 . S
C261 C260 1.391 . S
C261 C262 1.392 . S
C261 H290 0.947 . S
C262 C261 1.392 . S
C262 C263 1.419 . S
C262 H291 0.948 . S
C263 C262 1.419 . S
C263 C264 1.391 . S
C263 C267 1.397 . S
C264 C259 1.391 . S
C264 C263 1.391 . S
C264 C265 1.399 . S
C265 C264 1.399 . S
C265 C266 1.396 . S
C265 C268 1.453 . S
C265 C269 1.684 . S
C266 C247 1.723 . S
C266 C265 1.396 . S
C266 C267 1.394 . S
C267 C263 1.397 . S
C267 C266 1.394 . S
C267 C277 1.723 . S
C268 C265 1.453 . S
C268 H292 0.982 . S
C268 H293 0.979 . S
C268 H294 0.977 . S
C269 C265 1.684 . S
C269 H295 0.979 . S
C269 H296 0.980 . S
C269 H297 0.983 . S
C270 H246 0.948 . S
C270 C271 1.391 . S
C270 C275 1.391 . S
C271 C270 1.391 . S
C271 C272 1.391 . S
C272 H249 0.947 . S
C272 C271 1.391 . S
C272 C273 1.392 . S
C273 H250 0.948 . S
C273 C272 1.392 . S
C273 C274 1.419 . S
C274 C273 1.419 . S
C274 C275 1.391 . S
C274 C278 1.397 . S
C275 C270 1.391 . S
C275 C274 1.391 . S
C275 C276 1.399 . S
C276 C275 1.399 . S
C276 C277 1.396 . S
C276 C279 1.453 . S
C276 C280 1.684 . S
C277 C267 1.723 . S
C277 C276 1.396 . S
C277 C278 1.394 . S
C278 C248 1.723 . S
C278 C274 1.397 . S
C278 C277 1.394 . S
C279 H251 0.982 . S
C279 H255 0.979 . S
C279 H256 0.977 . S
C279 C276 1.453 . S
C280 H252 0.979 . S
C280 H253 0.980 . S
C280 H254 0.983 . S
C280 C276 1.684 . S
H281 C299 0.948 . S
H282 C240 0.948 . S
H283 C258 0.979 . S
H284 C258 0.980 . S
H285 C258 0.983 . S
H286 C257 0.982 . S
H287 C257 0.979 . S
H288 C257 0.977 . S
H289 C259 0.948 . S
H290 C261 0.947 . S
H291 C262 0.948 . S
H292 C268 0.982 . S
H293 C268 0.979 . S
H294 C268 0.977 . S
H295 C269 0.979 . S
H296 C269 0.980 . S
H297 C269 0.983 . S
H298 C242 0.947 . S
C299 C242 1.392 . S
C299 C243 1.419 . S
C299 H281 0.948 . S
C300 C301 1.391 . S
C300 C304 1.391 . S
C300 H342 0.948 . S
C301 C300 1.391 . S
C301 C302 1.391 . S
C302 C301 1.391 . S
C302 H358 0.947 . S
C302 C359 1.392 . S
C303 C304 1.391 . S
C303 C307 1.397 . S
C303 C359 1.419 . S
C304 C300 1.391 . S
C304 C303 1.391 . S
C304 C305 1.399 . S
C305 C304 1.399 . S
C305 C308 1.396 . S
C305 C317 1.453 . S
C305 C318 1.684 . S
H306 C330 0.948 . S
C307 C303 1.397 . S
C307 C308 1.394 . S
C307 C326 1.723 . S
C308 C305 1.396 . S
C308 C307 1.394 . S
C308 C338 1.723 . S
H309 C332 0.947 . S
H310 C333 0.948 . S
H311 C339 0.982 . S
H312 C340 0.979 . S
H313 C340 0.980 . S
H314 C340 0.983 . S
H315 C339 0.979 . S
H316 C339 0.977 . S
C317 C305 1.453 . S
C317 H346 0.982 . S
C317 H347 0.979 . S
C317 H348 0.977 . S
C318 C305 1.684 . S
C318 H343 0.979 . S
C318 H344 0.980 . S
C318 H345 0.983 . S
C319 C320 1.391 . S
C319 C324 1.391 . S
C319 H349 0.948 . S
C320 C319 1.391 . S
C320 C321 1.391 . S
C321 C320 1.391 . S
C321 C322 1.392 . S
C321 H350 0.947 . S
C322 C321 1.392 . S
C322 C323 1.419 . S
C322 H351 0.948 . S
C323 C322 1.419 . S
C323 C324 1.391 . S
C323 C327 1.397 . S
C324 C319 1.391 . S
C324 C323 1.391 . S
C324 C325 1.399 . S
C325 C324 1.399 . S
C325 C326 1.396 . S
C325 C328 1.453 . S
C325 C329 1.684 . S
C326 C307 1.723 . S
C326 C325 1.396 . S
C326 C327 1.394 . S
C327 C323 1.397 . S
C327 C326 1.394 . S
C327 C337 1.723 . S
C328 C325 1.453 . S
C328 H352 0.982 . S
C328 H353 0.979 . S
C328 H354 0.977 . S
C329 C325 1.684 . S
C329 H355 0.979 . S
C329 H356 0.980 . S
C329 H357 0.983 . S
C330 H306 0.948 . S
C330 C331 1.391 . S
C330 C335 1.391 . S
C331 C330 1.391 . S
C331 C332 1.391 . S
C332 H309 0.947 . S
C332 C331 1.391 . S
C332 C333 1.392 . S
C333 H310 0.948 . S
C333 C332 1.392 . S
C333 C334 1.419 . S
C334 C333 1.419 . S
C334 C335 1.391 . S
C334 C338 1.397 . S
C335 C330 1.391 . S
C335 C334 1.391 . S
C335 C336 1.399 . S
C336 C335 1.399 . S
C336 C337 1.396 . S
C336 C339 1.453 . S
C336 C340 1.684 . S
C337 C327 1.723 . S
C337 C336 1.396 . S
C337 C338 1.394 . S
C338 C308 1.723 . S
C338 C334 1.397 . S
C338 C337 1.394 . S
C339 H311 0.982 . S
C339 H315 0.979 . S
C339 H316 0.977 . S
C339 C336 1.453 . S
C340 H312 0.979 . S
C340 H313 0.980 . S
C340 H314 0.983 . S
C340 C336 1.684 . S
H341 C359 0.948 . S
H342 C300 0.948 . S
H343 C318 0.979 . S
H344 C318 0.980 . S
H345 C318 0.983 . S
H346 C317 0.982 . S
H347 C317 0.979 . S
H348 C317 0.977 . S
H349 C319 0.948 . S
H350 C321 0.947 . S
H351 C322 0.948 . S
H352 C328 0.982 . S
H353 C328 0.979 . S
H354 C328 0.977 . S
H355 C329 0.979 . S
H356 C329 0.980 . S
H357 C329 0.983 . S
H358 C302 0.947 . S
C359 C302 1.392 . S
C359 C303 1.419 . S
C359 H341 0.948 . S
C360 C361 1.391 . S
C360 C364 1.391 . S
C360 H402 0.948 . S
C361 C360 1.391 . S
C361 C362 1.391 . S
C362 C361 1.391 . S
C362 H418 0.947 . S
C362 C419 1.392 . S
C363 C364 1.391 . S
C363 C367 1.396 1_545 S
C363 C419 1.419 . S
C364 C360 1.391 . S
C364 C363 1.391 . S
C364 C365 1.399 . S
C365 C364 1.399 . S
C365 C368 1.396 1_545 S
C365 C377 1.453 1_545 S
C365 C378 1.684 . S
H366 C390 0.948 . S
C367 C363 1.396 1_565 S
C367 C368 1.395 . S
C367 C386 1.723 . S
C368 C365 1.396 1_565 S
C368 C367 1.395 . S
C368 C398 1.722 . S
H369 C392 0.947 . S
H370 C393 0.948 . S
H371 C399 0.982 . S
H372 C400 0.979 . S
H373 C400 0.980 . S
H374 C400 0.983 . S
H375 C399 0.979 . S
H376 C399 0.977 . S
C377 C365 1.453 1_565 S
C377 H406 0.982 . S
C377 H407 0.979 . S
C377 H408 0.977 . S
C378 C365 1.684 . S
C378 H403 0.979 . S
C378 H404 0.980 . S
C378 H405 0.983 . S
C379 C380 1.391 . S
C379 C384 1.391 . S
C379 H409 0.948 . S
C380 C379 1.391 . S
C380 C381 1.391 . S
C381 C380 1.391 . S
C381 C382 1.392 . S
C381 H410 0.947 . S
C382 C381 1.392 . S
C382 C383 1.419 . S
C382 H411 0.948 . S
C383 C382 1.419 . S
C383 C384 1.391 . S
C383 C387 1.397 1_545 S
C384 C379 1.391 . S
C384 C383 1.391 . S
C384 C385 1.399 . S
C385 C384 1.399 . S
C385 C386 1.396 1_545 S
C385 C388 1.453 1_545 S
C385 C389 1.684 . S
C386 C367 1.723 . S
C386 C385 1.396 1_565 S
C386 C387 1.393 . S
C387 C383 1.397 1_565 S
C387 C386 1.393 . S
C387 C397 1.723 . S
C388 C385 1.453 1_565 S
C388 H412 0.982 . S
C388 H413 0.979 . S
C388 H414 0.977 . S
C389 C385 1.684 . S
C389 H415 0.979 . S
C389 H416 0.980 . S
C389 H417 0.983 . S
C390 H366 0.948 . S
C390 C391 1.391 . S
C390 C395 1.391 . S
C391 C390 1.391 . S
C391 C392 1.391 . S
C392 H369 0.947 . S
C392 C391 1.391 . S
C392 C393 1.392 . S
C393 H370 0.948 . S
C393 C392 1.392 . S
C393 C394 1.419 . S
C394 C393 1.419 . S
C394 C395 1.391 . S
C394 C398 1.398 1_545 S
C395 C390 1.391 . S
C395 C394 1.391 . S
C395 C396 1.399 . S
C396 C395 1.399 . S
C396 C397 1.396 1_545 S
C396 C399 1.453 1_545 S
C396 C400 1.684 . S
C397 C387 1.723 . S
C397 C396 1.396 1_565 S
C397 C398 1.394 . S
C398 C368 1.722 . S
C398 C394 1.398 1_565 S
C398 C397 1.394 . S
C399 H371 0.982 . S
C399 H375 0.979 . S
C399 H376 0.977 . S
C399 C396 1.453 1_565 S
C400 H372 0.979 . S
C400 H373 0.980 . S
C400 H374 0.983 . S
C400 C396 1.684 . S
H401 C419 0.948 . S
H402 C360 0.948 . S
H403 C378 0.979 . S
H404 C378 0.980 . S
H405 C378 0.983 . S
H406 C377 0.982 . S
H407 C377 0.979 . S
H408 C377 0.977 . S
H409 C379 0.948 . S
H410 C381 0.947 . S
H411 C382 0.948 . S
H412 C388 0.982 . S
H413 C388 0.979 . S
H414 C388 0.977 . S
H415 C389 0.979 . S
H416 C389 0.980 . S
H417 C389 0.983 . S
H418 C362 0.947 . S
C419 C362 1.392 . S
C419 C363 1.419 . S
C419 H401 0.948 . S
C420 C421 1.391 . S
C420 C424 1.391 . S
C420 H462 0.948 . S
C421 C420 1.391 . S
C421 C422 1.391 . S
C422 C421 1.391 . S
C422 H478 0.947 . S
C422 C479 1.392 . S
C423 C424 1.391 . S
C423 C427 1.397 . S
C423 C479 1.419 . S
C424 C420 1.391 . S
C424 C423 1.391 . S
C424 C425 1.399 . S
C425 C424 1.399 . S
C425 C428 1.396 . S
C425 C437 1.453 . S
C425 C438 1.684 . S
H426 C450 0.948 . S
C427 C423 1.397 . S
C427 C428 1.394 . S
C427 C446 1.723 . S
C428 C425 1.396 . S
C428 C427 1.394 . S
C428 C458 1.723 . S
H429 C452 0.947 . S
H430 C453 0.948 . S
H431 C459 0.982 . S
H432 C460 0.979 . S
H433 C460 0.980 . S
H434 C460 0.983 . S
H435 C459 0.979 . S
H436 C459 0.977 . S
C437 C425 1.453 . S
C437 H466 0.982 . S
C437 H467 0.979 . S
C437 H468 0.977 . S
C438 C425 1.684 . S
C438 H463 0.979 . S
C438 H464 0.980 . S
C438 H465 0.983 . S
C439 C440 1.391 . S
C439 C444 1.391 . S
C439 H469 0.948 . S
C440 C439 1.391 . S
C440 C441 1.391 . S
C441 C440 1.391 . S
C441 C442 1.392 . S
C441 H470 0.947 . S
C442 C441 1.392 . S
C442 C443 1.419 . S
C442 H471 0.948 . S
C443 C442 1.419 . S
C443 C444 1.391 . S
C443 C447 1.397 . S
C444 C439 1.391 . S
C444 C443 1.391 . S
C444 C445 1.399 . S
C445 C444 1.399 . S
C445 C446 1.396 . S
C445 C448 1.453 . S
C445 C449 1.684 . S
C446 C427 1.723 . S
C446 C445 1.396 . S
C446 C447 1.394 . S
C447 C443 1.397 . S
C447 C446 1.394 . S
C447 C457 1.723 . S
C448 C445 1.453 . S
C448 H472 0.982 . S
C448 H473 0.979 . S
C448 H474 0.977 . S
C449 C445 1.684 . S
C449 H475 0.979 . S
C449 H476 0.980 . S
C449 H477 0.983 . S
C450 H426 0.948 . S
C450 C451 1.391 . S
C450 C455 1.391 . S
C451 C450 1.391 . S
C451 C452 1.391 . S
C452 H429 0.947 . S
C452 C451 1.391 . S
C452 C453 1.392 . S
C453 H430 0.948 . S
C453 C452 1.392 . S
C453 C454 1.419 . S
C454 C453 1.419 . S
C454 C455 1.391 . S
C454 C458 1.397 . S
C455 C450 1.391 . S
C455 C454 1.391 . S
C455 C456 1.399 . S
C456 C455 1.399 . S
C456 C457 1.396 . S
C456 C459 1.453 . S
C456 C460 1.684 . S
C457 C447 1.723 . S
C457 C456 1.396 . S
C457 C458 1.394 . S
C458 C428 1.723 . S
C458 C454 1.397 . S
C458 C457 1.394 . S
C459 H431 0.982 . S
C459 H435 0.979 . S
C459 H436 0.977 . S
C459 C456 1.453 . S
C460 H432 0.979 . S
C460 H433 0.980 . S
C460 H434 0.983 . S
C460 C456 1.684 . S
H461 C479 0.948 . S
H462 C420 0.948 . S
H463 C438 0.979 . S
H464 C438 0.980 . S
H465 C438 0.983 . S
H466 C437 0.982 . S
H467 C437 0.979 . S
H468 C437 0.977 . S
H469 C439 0.948 . S
H470 C441 0.947 . S
H471 C442 0.948 . S
H472 C448 0.982 . S
H473 C448 0.979 . S
H474 C448 0.977 . S
H475 C449 0.979 . S
H476 C449 0.980 . S
H477 C449 0.983 . S
H478 C422 0.947 . S
C479 C422 1.392 . S
C479 C423 1.419 . S
C479 H461 0.948 . S
Nd480 C482 2.836 1_455 S
Nd480 O500 2.500 1_455 S
Nd480 O501 2.492 . S
Nd480 O502 2.487 . S
Nd480 O503 2.682 1_565 S
Nd480 O504 2.410 . S
Nd480 O509 2.430 1_455 S
Nd480 O511 2.424 1_565 S
Nd481 C491 2.836 . S
Nd481 O503 2.414 . S
Nd481 O505 2.424 1_545 S
Nd481 O506 2.500 . S
Nd481 O507 2.492 . S
Nd481 O508 2.487 1_455 S
Nd481 O509 2.678 1_445 S
Nd481 O510 2.410 . S
C482 Nd480 2.836 1_655 S
C482 C483 1.498 . S
C482 O500 1.258 . S
C482 O501 1.239 1_655 S
C483 C482 1.498 . S
C483 C484 1.366 . S
C483 C488 1.407 . S
C484 C483 1.366 . S
C484 C485 1.392 . S
C484 H512 0.930 . S
C485 C484 1.392 . S
C485 C486 1.398 . S
C485 H513 0.929 . S
C486 C485 1.398 . S
C486 C487 1.352 . S
C487 C486 1.352 . S
C487 C488 1.384 . S
C487 H514 0.930 . S
C488 C483 1.407 . S
C488 C487 1.384 . S
C488 H515 0.929 1_655 S
C489 O502 1.241 . S
C489 O503 1.273 1_565 S
C490 O504 1.251 . S
C490 O505 1.268 . S
C491 Nd481 2.836 . S
C491 C492 1.498 1_556 S
C491 O506 1.258 . S
C491 O507 1.239 . S
C492 C491 1.498 1_554 S
C492 C493 1.367 . S
C492 C497 1.407 . S
C493 C492 1.367 . S
C493 C494 1.394 . S
C493 H516 0.928 1_554 S
C494 C493 1.394 . S
C494 C495 1.398 . S
C494 H517 0.929 . S
C495 C494 1.398 . S
C495 C496 1.352 . S
C496 C495 1.352 . S
C496 C497 1.384 . S
C496 H518 0.930 . S
C497 C492 1.407 . S
C497 C496 1.384 . S
C497 H519 0.929 . S
C498 O508 1.241 . S
C498 O509 1.250 1_545 S
C499 O510 1.251 . S
C499 O511 1.268 . S
O500 Nd480 2.500 1_655 S
O500 C482 1.258 . S
O501 Nd480 2.492 . S
O501 C482 1.239 1_455 S
O502 Nd480 2.487 . S
O502 C489 1.241 . S
O503 Nd480 2.682 1_545 S
O503 Nd481 2.414 . S
O503 C489 1.273 1_545 S
O504 Nd480 2.410 . S
O504 C490 1.251 . S
O505 Nd481 2.424 1_565 S
O505 C490 1.268 . S
O506 Nd481 2.500 . S
O506 C491 1.258 . S
O507 Nd481 2.492 . S
O507 C491 1.239 . S
O508 Nd481 2.487 1_655 S
O508 C498 1.241 . S
O509 Nd480 2.430 1_655 S
O509 Nd481 2.678 1_665 S
O509 C498 1.250 1_565 S
O510 Nd481 2.410 . S
O510 C499 1.251 . S
O511 Nd480 2.424 1_545 S
O511 C499 1.268 . S
H512 C484 0.930 . S
H513 C485 0.929 . S
H514 C487 0.930 . S
H515 C488 0.929 1_455 S
H516 C493 0.928 1_556 S
H517 C494 0.929 . S
H518 C496 0.930 . S
H519 C497 0.929 . S
Nd520 C522 2.836 . S
Nd520 O540 2.500 . S
Nd520 O541 2.492 . S
Nd520 O542 2.487 1_565 S
Nd520 O543 2.682 1_565 S
Nd520 O544 2.410 1_565 S
Nd520 O549 2.414 . S
Nd520 O551 2.424 . S
Nd521 C531 2.836 . S
Nd521 O543 2.414 . S
Nd521 O545 2.424 . S
Nd521 O546 2.500 . S
Nd521 O547 2.492 1_556 S
Nd521 O548 2.487 1_545 S
Nd521 O549 2.682 1_545 S
Nd521 O550 2.410 1_545 S
C522 Nd520 2.836 . S
C522 C523 1.498 . S
C522 O540 1.258 . S
C522 O541 1.239 . S
C523 C522 1.498 . S
C523 C524 1.366 . S
C523 C528 1.407 . S
C524 C523 1.366 . S
C524 C525 1.392 . S
C524 H552 0.930 . S
C525 C524 1.392 . S
C525 C526 1.398 . S
C525 H553 0.929 . S
C526 C525 1.398 . S
C526 C527 1.352 . S
C527 C526 1.352 . S
C527 C528 1.384 . S
C527 H554 0.930 . S
C528 C523 1.407 . S
C528 C527 1.384 . S
C528 H555 0.929 1_565 S
C529 O542 1.241 . S
C529 O543 1.273 . S
C530 O544 1.251 . S
C530 O545 1.268 . S
C531 Nd521 2.836 . S
C531 C532 1.498 1_556 S
C531 O546 1.258 . S
C531 O547 1.239 1_556 S
C532 C531 1.498 1_554 S
C532 C533 1.366 1_554 S
C532 C537 1.407 . S
C533 C532 1.366 1_556 S
C533 C534 1.392 1_556 S
C533 H556 0.930 . S
C534 C533 1.392 1_554 S
C534 C535 1.398 . S
C534 H557 0.929 . S
C535 C534 1.398 . S
C535 C536 1.352 . S
C536 C535 1.352 . S
C536 C537 1.384 . S
C536 H558 0.930 . S
C537 C532 1.407 . S
C537 C536 1.384 . S
C537 H559 0.929 1_545 S
C538 O548 1.241 . S
C538 O549 1.273 . S
C539 O550 1.251 . S
C539 O551 1.268 . S
O540 Nd520 2.500 . S
O540 C522 1.258 . S
O541 Nd520 2.492 . S
O541 C522 1.239 . S
O542 Nd520 2.487 1_545 S
O542 C529 1.241 . S
O543 Nd520 2.682 1_545 S
O543 Nd521 2.414 . S
O543 C529 1.273 . S
O544 Nd520 2.410 1_545 S
O544 C530 1.251 . S
O545 Nd521 2.424 . S
O545 C530 1.268 . S
O546 Nd521 2.500 . S
O546 C531 1.258 . S
O547 Nd521 2.492 1_554 S
O547 C531 1.239 1_554 S
O548 Nd521 2.487 1_565 S
O548 C538 1.241 . S
O549 Nd520 2.414 . S
O549 Nd521 2.682 1_565 S
O549 C538 1.273 . S
O550 Nd521 2.410 1_565 S
O550 C539 1.251 . S
O551 Nd520 2.424 . S
O551 C539 1.268 . S
H552 C524 0.930 . S
H553 C525 0.929 . S
H554 C527 0.930 . S
H555 C528 0.929 1_545 S
H556 C533 0.930 . S
H557 C534 0.929 . S
H558 C536 0.930 . S
H559 C537 0.929 1_565 S
Nd560 C562 2.836 . S
Nd560 O580 2.500 . S
Nd560 O581 2.492 . S
Nd560 O582 2.487 . S
Nd560 O583 2.682 . S
Nd560 O584 2.410 . S
Nd560 O589 2.414 . S
Nd560 O591 2.424 . S
Nd561 C571 2.836 . S
Nd561 O583 2.414 . S
Nd561 O585 2.424 . S
Nd561 O586 2.500 . S
Nd561 O587 2.492 . S
Nd561 O588 2.487 . S
Nd561 O589 2.682 . S
Nd561 O590 2.410 . S
C562 Nd560 2.836 . S
C562 C563 1.498 . S
C562 O580 1.258 . S
C562 O581 1.239 . S
C563 C562 1.498 . S
C563 C564 1.366 . S
C563 C568 1.407 1_556 S
C564 C563 1.366 . S
C564 C565 1.392 . S
C564 H592 0.930 . S
C565 C564 1.392 . S
C565 C566 1.410 . S
C565 H593 0.929 . S
C566 C565 1.410 . S
C566 C567 1.348 1_556 S
C567 C566 1.348 1_554 S
C567 C568 1.384 . S
C567 H594 0.930 . S
C568 C563 1.407 1_554 S
C568 C567 1.384 . S
C568 H595 0.929 . S
C569 O582 1.241 . S
C569 O583 1.273 . S
C570 O584 1.251 . S
C570 O585 1.268 . S
C571 Nd561 2.836 . S
C571 C572 1.498 . S
C571 O586 1.258 . S
C571 O587 1.239 . S
C572 C571 1.498 . S
C572 C573 1.366 . S
C572 C577 1.407 . S
C573 C572 1.366 . S
C573 C574 1.392 . S
C573 H596 0.930 . S
C574 C573 1.392 . S
C574 C575 1.398 . S
C574 H597 0.929 . S
C575 C574 1.398 . S
C575 C576 1.352 . S
C576 C575 1.352 . S
C576 C577 1.384 . S
C576 H598 0.930 . S
C577 C572 1.407 . S
C577 C576 1.384 . S
C577 H599 0.929 . S
C578 O588 1.241 . S
C578 O589 1.273 . S
C579 O590 1.251 . S
C579 O591 1.268 . S
O580 Nd560 2.500 . S
O580 C562 1.258 . S
O581 Nd560 2.492 . S
O581 C562 1.239 . S
O582 Nd560 2.487 . S
O582 C569 1.241 . S
O583 Nd560 2.682 . S
O583 Nd561 2.414 . S
O583 C569 1.273 . S
O584 Nd560 2.410 . S
O584 C570 1.251 . S
O585 Nd561 2.424 . S
O585 C570 1.268 . S
O586 Nd561 2.500 . S
O586 C571 1.258 . S
O587 Nd561 2.492 . S
O587 C571 1.239 . S
O588 Nd561 2.487 . S
O588 C578 1.241 . S
O589 Nd560 2.414 . S
O589 Nd561 2.682 . S
O589 C578 1.273 . S
O590 Nd561 2.410 . S
O590 C579 1.251 . S
O591 Nd560 2.424 . S
O591 C579 1.268 . S
H592 C564 0.930 . S
H593 C565 0.929 . S
H594 C567 0.930 . S
H595 C568 0.929 . S
H596 C573 0.930 . S
H597 C574 0.929 . S
H598 C576 0.930 . S
H599 C577 0.929 . S
Nd600 C602 2.836 1_455 S
Nd600 O620 2.500 1_455 S
Nd600 O621 2.492 1_455 S
Nd600 O622 2.487 . S
Nd600 O623 2.682 . S
Nd600 O624 2.410 1_455 S
Nd600 O629 2.414 . S
Nd600 O631 2.424 . S
Nd601 C611 2.836 . S
Nd601 O623 2.414 . S
Nd601 O625 2.424 1_455 S
Nd601 O626 2.500 . S
Nd601 O627 2.492 . S
Nd601 O628 2.487 . S
Nd601 O629 2.682 . S
Nd601 O630 2.410 . S
C602 Nd600 2.836 1_655 S
C602 C603 1.498 . S
C602 O620 1.258 . S
C602 O621 1.239 . S
C603 C602 1.498 . S
C603 C604 1.366 . S
C603 C608 1.407 . S
C604 C603 1.366 . S
C604 C605 1.392 . S
C604 H632 0.930 . S
C605 C604 1.392 . S
C605 C606 1.398 . S
C605 H633 0.929 . S
C606 C605 1.398 . S
C606 C607 1.352 . S
C607 C606 1.352 . S
C607 C608 1.384 . S
C607 H634 0.930 . S
C608 C603 1.407 . S
C608 C607 1.384 . S
C608 H635 0.929 . S
C609 O622 1.241 . S
C609 O623 1.273 . S
C610 O624 1.251 . S
C610 O625 1.268 . S
C611 Nd601 2.836 . S
C611 C612 1.498 1_556 S
C611 O626 1.258 . S
C611 O627 1.239 . S
C612 C611 1.498 1_554 S
C612 C613 1.366 . S
C612 C617 1.407 . S
C613 C612 1.366 . S
C613 C614 1.392 . S
C613 H636 0.930 1_554 S
C614 C613 1.392 . S
C614 C615 1.398 . S
C614 H637 0.929 . S
C615 C614 1.398 . S
C615 C616 1.352 . S
C616 C615 1.352 . S
C616 C617 1.384 . S
C616 H638 0.930 . S
C617 C612 1.407 . S
C617 C616 1.384 . S
C617 H639 0.929 . S
C618 O628 1.241 . S
C618 O629 1.273 . S
C619 O630 1.251 . S
C619 O631 1.268 . S
O620 Nd600 2.500 1_655 S
O620 C602 1.258 . S
O621 Nd600 2.492 1_655 S
O621 C602 1.239 . S
O622 Nd600 2.487 . S
O622 C609 1.241 . S
O623 Nd600 2.682 . S
O623 Nd601 2.414 . S
O623 C609 1.273 . S
O624 Nd600 2.410 1_655 S
O624 C610 1.251 . S
O625 Nd601 2.424 1_655 S
O625 C610 1.268 . S
O626 Nd601 2.500 . S
O626 C611 1.258 . S
O627 Nd601 2.492 . S
O627 C611 1.239 . S
O628 Nd601 2.487 . S
O628 C618 1.241 . S
O629 Nd600 2.414 . S
O629 Nd601 2.682 . S
O629 C618 1.273 . S
O630 Nd601 2.410 . S
O630 C619 1.251 . S
O631 Nd600 2.424 . S
O631 C619 1.268 . S
H632 C604 0.930 . S
H633 C605 0.929 . S
H634 C607 0.930 . S
H635 C608 0.929 . S
H636 C613 0.930 1_556 S
H637 C614 0.929 . S
H638 C616 0.930 . S
H639 C617 0.929 . S
H640 C652 0.930 . S
H641 C654 0.930 . S
H642 C655 0.930 . S
H643 C659 0.959 . S
H644 C659 0.959 . S
H645 C659 0.961 . S
H646 C660 0.960 . S
H647 C660 0.961 . S
H648 C660 0.959 . S
H649 C663 0.929 . S
H650 C664 0.931 . S
H651 C666 0.930 . S
C652 H640 0.930 . S
C652 C653 1.399 1_545 S
C652 C657 1.399 . S
C653 C652 1.399 1_565 S
C653 C654 1.376 . S
C654 H641 0.930 . S
C654 C653 1.376 . S
C654 C655 1.388 . S
C655 H642 0.930 . S
C655 C654 1.388 . S
C655 C656 1.390 . S
C656 C655 1.390 . S
C656 C657 1.394 1_565 S
C656 C662 1.465 . S
C657 C652 1.399 . S
C657 C656 1.394 1_545 S
C657 C658 1.516 . S
C658 C657 1.516 . S
C658 C659 1.502 . S
C658 C660 1.561 1_545 S
C658 C661 1.527 . S
C659 H643 0.959 . S
C659 H644 0.959 . S
C659 H645 0.961 . S
C659 C658 1.502 . S
C660 H646 0.960 . S
C660 H647 0.961 . S
C660 H648 0.959 . S
C660 C658 1.561 1_565 S
C661 C658 1.527 . S
C661 C662 1.381 1_545 S
C661 C666 1.402 . S
C662 C656 1.465 . S
C662 C661 1.381 1_565 S
C662 C663 1.399 . S
C663 H649 0.929 . S
C663 C662 1.399 . S
C663 C664 1.385 . S
C664 H650 0.931 . S
C664 C663 1.385 . S
C664 C665 1.389 . S
C665 C664 1.389 . S
C665 C666 1.387 1_565 S
C666 H651 0.930 . S
C666 C661 1.402 . S
C666 C665 1.387 1_545 S
H667 C679 0.930 . S
H668 C681 0.930 . S
H669 C682 0.930 . S
H670 C686 0.959 . S
H671 C686 0.959 . S
H672 C686 0.961 . S
H673 C687 0.960 . S
H674 C687 0.961 . S
H675 C687 0.959 . S
H676 C690 0.929 . S
H677 C691 0.931 . S
H678 C693 0.930 . S
C679 H667 0.930 . S
C679 C680 1.399 . S
C679 C684 1.399 . S
C680 C679 1.399 . S
C680 C681 1.376 . S
C681 H668 0.930 . S
C681 C680 1.376 . S
C681 C682 1.388 . S
C682 H669 0.930 . S
C682 C681 1.388 . S
C682 C683 1.390 . S
C683 C682 1.390 . S
C683 C684 1.394 . S
C683 C689 1.465 . S
C684 C679 1.399 . S
C684 C683 1.394 . S
C684 C685 1.516 . S
C685 C684 1.516 . S
C685 C686 1.502 . S
C685 C687 1.561 . S
C685 C688 1.526 . S
C686 H670 0.959 . S
C686 H671 0.959 . S
C686 H672 0.961 . S
C686 C685 1.502 . S
C687 H673 0.960 . S
C687 H674 0.961 . S
C687 H675 0.959 . S
C687 C685 1.561 . S
C688 C685 1.526 . S
C688 C689 1.396 . S
C688 C693 1.390 . S
C689 C683 1.465 . S
C689 C688 1.396 . S
C689 C690 1.399 . S
C690 H676 0.929 . S
C690 C689 1.399 . S
C690 C691 1.385 . S
C691 H677 0.931 . S
C691 C690 1.385 . S
C691 C692 1.389 . S
C692 C691 1.389 . S
C692 C693 1.387 . S
C693 H678 0.930 . S
C693 C688 1.390 . S
C693 C692 1.387 . S
H694 C706 0.930 . S
H695 C708 0.930 . S
H696 C709 0.930 . S
H697 C713 0.959 . S
H698 C713 0.959 . S
H699 C713 0.961 . S
H700 C714 0.960 . S
H701 C714 0.961 . S
H702 C714 0.959 . S
H703 C717 0.929 . S
H704 C718 0.931 . S
H705 C720 0.930 . S
C706 H694 0.930 . S
C706 C707 1.399 . S
C706 C711 1.399 . S
C707 C706 1.399 . S
C707 C708 1.376 . S
C708 H695 0.930 . S
C708 C707 1.376 . S
C708 C709 1.388 . S
C709 H696 0.930 . S
C709 C708 1.388 . S
C709 C710 1.390 . S
C710 C709 1.390 . S
C710 C711 1.394 . S
C710 C716 1.465 . S
C711 C706 1.399 . S
C711 C710 1.394 . S
C711 C712 1.516 . S
C712 C711 1.516 . S
C712 C713 1.502 . S
C712 C714 1.561 . S
C712 C715 1.526 . S
C713 H697 0.959 . S
C713 H698 0.959 . S
C713 H699 0.961 . S
C713 C712 1.502 . S
C714 H700 0.960 . S
C714 H701 0.961 . S
C714 H702 0.959 . S
C714 C712 1.561 . S
C715 C712 1.526 . S
C715 C716 1.396 . S
C715 C720 1.390 . S
C716 C710 1.465 . S
C716 C715 1.396 . S
C716 C717 1.399 . S
C717 H703 0.929 . S
C717 C716 1.399 . S
C717 C718 1.385 . S
C718 H704 0.931 . S
C718 C717 1.385 . S
C718 C719 1.389 . S
C719 C718 1.389 . S
C719 C720 1.387 . S
C720 H705 0.930 . S
C720 C715 1.390 . S
C720 C719 1.387 . S
H721 C733 0.930 . S
H722 C735 0.930 . S
H723 C736 0.930 . S
H724 C740 0.959 . S
H725 C740 0.959 . S
H726 C740 0.961 . S
H727 C741 0.960 . S
H728 C741 0.961 . S
H729 C741 0.959 . S
H730 C744 0.929 . S
H731 C745 0.931 . S
H732 C747 0.930 . S
C733 H721 0.930 . S
C733 C734 1.399 . S
C733 C738 1.399 . S
C734 C733 1.399 . S
C734 C735 1.376 . S
C735 H722 0.930 . S
C735 C734 1.376 . S
C735 C736 1.388 . S
C736 H723 0.930 . S
C736 C735 1.388 . S
C736 C737 1.390 . S
C737 C736 1.390 . S
C737 C738 1.394 . S
C737 C743 1.465 . S
C738 C733 1.399 . S
C738 C737 1.394 . S
C738 C739 1.516 . S
C739 C738 1.516 . S
C739 C740 1.502 . S
C739 C741 1.561 . S
C739 C742 1.526 . S
C740 H724 0.959 . S
C740 H725 0.959 . S
C740 H726 0.961 . S
C740 C739 1.502 . S
C741 H727 0.960 . S
C741 H728 0.961 . S
C741 H729 0.959 . S
C741 C739 1.561 . S
C742 C739 1.526 . S
C742 C743 1.396 . S
C742 C747 1.390 . S
C743 C737 1.465 . S
C743 C742 1.396 . S
C743 C744 1.399 . S
C744 H730 0.929 . S
C744 C743 1.399 . S
C744 C745 1.385 . S
C745 H731 0.931 . S
C745 C744 1.385 . S
C745 C746 1.389 . S
C746 C745 1.389 . S
C746 C747 1.387 . S
C747 H732 0.930 . S
C747 C742 1.390 . S
C747 C746 1.387 . S
H748 C760 0.930 . S
H749 C762 0.930 . S
H750 C763 0.930 . S
H751 C767 0.959 1_554 S
H752 C767 0.960 1_554 S
H753 C767 0.961 1_554 S
H754 C768 0.960 . S
H755 C768 0.961 . S
H756 C768 0.959 . S
H757 C771 0.929 . S
H758 C772 0.931 . S
H759 C774 0.930 . S
C760 H748 0.930 . S
C760 C761 1.399 1_565 S
C760 C765 1.399 . S
C761 C760 1.399 1_545 S
C761 C762 1.376 . S
C762 H749 0.930 . S
C762 C761 1.376 . S
C762 C763 1.388 . S
C763 H750 0.930 . S
C763 C762 1.388 . S
C763 C764 1.390 . S
C764 C763 1.390 . S
C764 C765 1.394 1_545 S
C764 C770 1.465 . S
C765 C760 1.399 . S
C765 C764 1.394 1_565 S
C765 C766 1.516 . S
C766 C765 1.516 . S
C766 C767 1.502 . S
C766 C768 1.561 . S
C766 C769 1.526 . S
C767 H751 0.959 1_556 S
C767 H752 0.960 1_556 S
C767 H753 0.961 1_556 S
C767 C766 1.502 . S
C768 H754 0.960 . S
C768 H755 0.961 . S
C768 H756 0.959 . S
C768 C766 1.561 . S
C769 C766 1.526 . S
C769 C770 1.396 1_565 S
C769 C774 1.390 . S
C770 C764 1.465 . S
C770 C769 1.396 1_545 S
C770 C771 1.399 . S
C771 H757 0.929 . S
C771 C770 1.399 . S
C771 C772 1.385 . S
C772 H758 0.931 . S
C772 C771 1.385 . S
C772 C773 1.389 . S
C773 C772 1.389 . S
C773 C774 1.387 1_545 S
C774 H759 0.930 . S
C774 C769 1.390 . S
C774 C773 1.387 1_565 S
H775 C787 0.930 . S
H776 C789 0.930 . S
H777 C790 0.930 . S
H778 C794 0.959 . S
H779 C794 0.959 . S
H780 C794 0.961 . S
H781 C795 0.960 . S
H782 C795 0.961 . S
H783 C795 0.959 . S
H784 C798 0.932 . S
H785 C799 0.931 . S
H786 C801 0.930 . S
C787 H775 0.930 . S
C787 C788 1.399 . S
C787 C792 1.399 . S
C788 C787 1.399 . S
C788 C789 1.376 . S
C789 H776 0.930 . S
C789 C788 1.376 . S
C789 C790 1.388 . S
C790 H777 0.930 . S
C790 C789 1.388 . S
C790 C791 1.390 . S
C791 C790 1.390 . S
C791 C792 1.394 . S
C791 C797 1.465 . S
C792 C787 1.399 . S
C792 C791 1.394 . S
C792 C793 1.516 . S
C793 C792 1.516 . S
C793 C794 1.502 . S
C793 C795 1.561 . S
C793 C796 1.526 . S
C794 H778 0.959 . S
C794 H779 0.959 . S
C794 H780 0.961 . S
C794 C793 1.502 . S
C795 H781 0.960 . S
C795 H782 0.961 . S
C795 H783 0.959 . S
C795 C793 1.561 . S
C796 C793 1.526 . S
C796 C797 1.396 . S
C796 C801 1.390 . S
C797 C791 1.465 . S
C797 C796 1.396 . S
C797 C798 1.388 1_554 S
C798 H784 0.932 . S
C798 C797 1.388 1_556 S
C798 C799 1.393 . S
C799 H785 0.931 . S
C799 C798 1.393 . S
C799 C800 1.389 . S
C800 C799 1.389 . S
C800 C801 1.387 1_556 S
C801 H786 0.930 . S
C801 C796 1.390 . S
C801 C800 1.387 1_554 S
H802 C814 0.930 . S
H803 C816 0.930 1_554 S
H804 C817 0.930 . S
H805 C821 0.959 . S
H806 C821 0.959 . S
H807 C821 0.961 . S
H808 C822 0.960 . S
H809 C822 0.961 . S
H810 C822 0.959 . S
H811 C825 0.929 . S
H812 C826 0.931 . S
H813 C828 0.930 . S
C814 H802 0.930 . S
C814 C815 1.399 . S
C814 C819 1.399 . S
C815 C814 1.399 . S
C815 C816 1.376 . S
C816 H803 0.930 1_556 S
C816 C815 1.376 . S
C816 C817 1.388 . S
C817 H804 0.930 . S
C817 C816 1.388 . S
C817 C818 1.390 . S
C818 C817 1.390 . S
C818 C819 1.394 . S
C818 C824 1.465 . S
C819 C814 1.399 . S
C819 C818 1.394 . S
C819 C820 1.516 . S
C820 C819 1.516 . S
C820 C821 1.502 . S
C820 C822 1.561 . S
C820 C823 1.526 . S
C821 H805 0.959 . S
C821 H806 0.959 . S
C821 H807 0.961 . S
C821 C820 1.502 . S
C822 H808 0.960 . S
C822 H809 0.961 . S
C822 H810 0.959 . S
C822 C820 1.561 . S
C823 C820 1.526 . S
C823 C824 1.396 . S
C823 C828 1.390 . S
C824 C818 1.465 . S
C824 C823 1.396 . S
C824 C825 1.399 . S
C825 H811 0.929 . S
C825 C824 1.399 . S
C825 C826 1.385 . S
C826 H812 0.931 . S
C826 C825 1.385 . S
C826 C827 1.389 . S
C827 C826 1.389 . S
C827 C828 1.387 . S
C828 H813 0.930 . S
C828 C823 1.390 . S
C828 C827 1.387 . S
H829 C841 0.930 . S
H830 C843 0.930 . S
H831 C844 0.930 1_554 S
H832 C848 0.959 . S
H833 C848 0.959 . S
H834 C848 0.961 . S
H835 C849 0.960 . S
H836 C849 0.961 1_455 S
H837 C849 0.959 1_554 S
H838 C852 0.929 . S
H839 C853 0.931 . S
H840 C855 0.930 . S
C841 H829 0.930 . S
C841 C842 1.399 1_556 S
C841 C846 1.399 . S
C842 C841 1.399 1_554 S
C842 C843 1.376 . S
C843 H830 0.930 . S
C843 C842 1.376 . S
C843 C844 1.388 1_554 S
C844 H831 0.930 1_556 S
C844 C843 1.388 1_556 S
C844 C845 1.390 . S
C845 C844 1.390 . S
C845 C846 1.394 . S
C845 C851 1.465 . S
C846 C841 1.399 . S
C846 C845 1.394 . S
C846 C847 1.516 . S
C847 C846 1.516 . S
C847 C848 1.502 . S
C847 C849 1.561 . S
C847 C850 1.526 . S
C848 H832 0.959 . S
C848 H833 0.959 . S
C848 H834 0.961 . S
C848 C847 1.502 . S
C849 H835 0.960 . S
C849 H836 0.961 1_655 S
C849 H837 0.959 1_556 S
C849 C847 1.561 . S
C850 C847 1.526 . S
C850 C851 1.396 . S
C850 C855 1.390 . S
C851 C845 1.465 . S
C851 C850 1.396 . S
C851 C852 1.399 . S
C852 H838 0.929 . S
C852 C851 1.399 . S
C852 C853 1.385 . S
C853 H839 0.931 . S
C853 C852 1.385 . S
C853 C854 1.389 . S
C854 C853 1.389 . S
C854 C855 1.387 . S
C855 H840 0.930 . S
C855 C850 1.390 . S
C855 C854 1.387 . S
H856 C868 0.930 . S
H857 C870 0.930 . S
H858 C871 0.930 . S
H859 C875 0.959 . S
H860 C875 0.959 . S
H861 C875 0.961 . S
H862 C876 0.960 . S
H863 C876 0.961 . S
H864 C876 0.959 . S
H865 C879 0.929 . S
H866 C880 0.931 . S
H867 C882 0.930 . S
C868 H856 0.930 . S
C868 C869 1.399 . S
C868 C873 1.399 . S
C869 C868 1.399 . S
C869 C870 1.376 . S
C870 H857 0.930 . S
C870 C869 1.376 . S
C870 C871 1.388 . S
C871 H858 0.930 . S
C871 C870 1.388 . S
C871 C872 1.390 . S
C872 C871 1.390 . S
C872 C873 1.394 . S
C872 C878 1.465 . S
C873 C868 1.399 . S
C873 C872 1.394 . S
C873 C874 1.516 . S
C874 C873 1.516 . S
C874 C875 1.502 . S
C874 C876 1.561 . S
C874 C877 1.526 . S
C875 H859 0.959 . S
C875 H860 0.959 . S
C875 H861 0.961 . S
C875 C874 1.502 . S
C876 H862 0.960 . S
C876 H863 0.961 . S
C876 H864 0.959 . S
C876 C874 1.561 . S
C877 C874 1.526 . S
C877 C878 1.396 . S
C877 C882 1.390 . S
C878 C872 1.465 . S
C878 C877 1.396 . S
C878 C879 1.399 . S
C879 H865 0.929 . S
C879 C878 1.399 . S
C879 C880 1.385 . S
C880 H866 0.931 . S
C880 C879 1.385 . S
C880 C881 1.389 . S
C881 C880 1.389 . S
C881 C882 1.387 . S
C882 H867 0.930 . S
C882 C877 1.390 . S
C882 C881 1.387 . S
H883 C895 0.930 . S
H884 C897 0.930 . S
H885 C898 0.931 . S
H886 C902 0.959 1_545 S
H887 C902 0.959 . S
H888 C902 0.965 . S
H889 C903 0.960 . S
H890 C903 0.961 . S
H891 C903 0.959 . S
H892 C906 0.929 . S
H893 C907 0.931 . S
H894 C909 0.930 . S
C895 H883 0.930 . S
C895 C896 1.413 . S
C895 C900 1.399 . S
C896 C895 1.413 . S
C896 C897 1.378 1_565 S
C897 H884 0.930 . S
C897 C896 1.378 1_545 S
C897 C898 1.401 . S
C898 H885 0.931 . S
C898 C897 1.401 . S
C898 C899 1.378 1_545 S
C899 C898 1.378 1_565 S
C899 C900 1.394 . S
C899 C905 1.465 . S
C900 C895 1.399 . S
C900 C899 1.394 . S
C900 C901 1.516 . S
C901 C900 1.516 . S
C901 C902 1.502 . S
C901 C903 1.561 . S
C901 C904 1.526 . S
C902 H886 0.959 1_565 S
C902 H887 0.959 . S
C902 H888 0.965 . S
C902 C901 1.502 . S
C903 H889 0.960 . S
C903 H890 0.961 . S
C903 H891 0.959 . S
C903 C901 1.561 . S
C904 C901 1.526 . S
C904 C905 1.396 . S
C904 C909 1.390 . S
C905 C899 1.465 . S
C905 C904 1.396 . S
C905 C906 1.399 . S
C906 H892 0.929 . S
C906 C905 1.399 . S
C906 C907 1.385 . S
C907 H893 0.931 . S
C907 C906 1.385 . S
C907 C908 1.389 . S
C908 C907 1.389 . S
C908 C909 1.387 . S
C909 H894 0.930 . S
C909 C904 1.390 . S
C909 C908 1.387 . S
H910 C922 0.930 . S
H911 C924 0.930 . S
H912 C925 0.930 . S
H913 C929 0.959 . S
H914 C929 0.959 . S
H915 C929 0.961 . S
H916 C930 0.960 . S
H917 C930 0.961 . S
H918 C930 0.959 . S
H919 C933 0.929 . S
H920 C934 0.931 . S
H921 C936 0.930 . S
C922 H910 0.930 . S
C922 C923 1.399 . S
C922 C927 1.399 . S
C923 C922 1.399 . S
C923 C924 1.376 . S
C924 H911 0.930 . S
C924 C923 1.376 . S
C924 C925 1.388 . S
C925 H912 0.930 . S
C925 C924 1.388 . S
C925 C926 1.390 . S
C926 C925 1.390 . S
C926 C927 1.394 . S
C926 C932 1.465 . S
C927 C922 1.399 . S
C927 C926 1.394 . S
C927 C928 1.516 . S
C928 C927 1.516 . S
C928 C929 1.502 . S
C928 C930 1.561 . S
C928 C931 1.526 . S
C929 H913 0.959 . S
C929 H914 0.959 . S
C929 H915 0.961 . S
C929 C928 1.502 . S
C930 H916 0.960 . S
C930 H917 0.961 . S
C930 H918 0.959 . S
C930 C928 1.561 . S
C931 C928 1.526 . S
C931 C932 1.396 . S
C931 C936 1.390 . S
C932 C926 1.465 . S
C932 C931 1.396 . S
C932 C933 1.399 . S
C933 H919 0.929 . S
C933 C932 1.399 . S
C933 C934 1.385 . S
C934 H920 0.931 . S
C934 C933 1.385 . S
C934 C935 1.389 . S
C935 C934 1.389 . S
C935 C936 1.387 . S
C936 H921 0.930 . S
C936 C931 1.390 . S
C936 C935 1.387 . S
H937 C949 0.930 . S
H938 C951 0.930 . S
H939 C952 0.930 . S
H940 C956 0.959 . S
H941 C956 0.959 . S
H942 C956 0.961 . S
H943 C957 0.960 . S
H944 C957 0.961 . S
H945 C957 0.959 . S
H946 C960 0.929 . S
H947 C961 0.931 . S
H948 C963 0.930 . S
C949 H937 0.930 . S
C949 C950 1.399 . S
C949 C954 1.399 . S
C950 C949 1.399 . S
C950 C951 1.376 . S
C951 H938 0.930 . S
C951 C950 1.376 . S
C951 C952 1.388 . S
C952 H939 0.930 . S
C952 C951 1.388 . S
C952 C953 1.390 . S
C953 C952 1.390 . S
C953 C954 1.394 . S
C953 C959 1.465 . S
C954 C949 1.399 . S
C954 C953 1.394 . S
C954 C955 1.516 . S
C955 C954 1.516 . S
C955 C956 1.502 . S
C955 C957 1.561 . S
C955 C958 1.526 . S
C956 H940 0.959 . S
C956 H941 0.959 . S
C956 H942 0.961 . S
C956 C955 1.502 . S
C957 H943 0.960 . S
C957 H944 0.961 . S
C957 H945 0.959 . S
C957 C955 1.561 . S
C958 C955 1.526 . S
C958 C959 1.396 . S
C958 C963 1.390 . S
C959 C953 1.465 . S
C959 C958 1.396 . S
C959 C960 1.399 . S
C960 H946 0.929 . S
C960 C959 1.399 . S
C960 C961 1.385 . S
C961 H947 0.931 . S
C961 C960 1.385 . S
C961 C962 1.389 . S
C962 C961 1.389 . S
C962 C963 1.387 . S
C963 H948 0.930 . S
C963 C958 1.390 . S
C963 C962 1.387 . S
H964 C976 0.930 . S
H965 C978 0.930 . S
H966 C979 0.930 . S
H967 C983 0.959 . S
H968 C983 0.959 . S
H969 C983 0.961 . S
H970 C984 0.960 . S
H971 C984 0.961 . S
H972 C984 0.959 . S
H973 C987 0.929 . S
H974 C988 0.880 1_455 S
H975 C990 0.930 . S
C976 H964 0.930 . S
C976 C977 1.399 . S
C976 C981 1.399 . S
C977 C976 1.399 . S
C977 C978 1.376 . S
C978 H965 0.930 . S
C978 C977 1.376 . S
C978 C979 1.388 . S
C979 H966 0.930 . S
C979 C978 1.388 . S
C979 C980 1.390 . S
C980 C979 1.390 . S
C980 C981 1.394 . S
C980 C986 1.465 . S
C981 C976 1.399 . S
C981 C980 1.394 . S
C981 C982 1.516 . S
C982 C981 1.516 . S
C982 C983 1.502 . S
C982 C984 1.561 . S
C982 C985 1.526 . S
C983 H967 0.959 . S
C983 H968 0.959 . S
C983 H969 0.961 . S
C983 C982 1.502 . S
C984 H970 0.960 . S
C984 H971 0.961 . S
C984 H972 0.959 . S
C984 C982 1.561 . S
C985 C982 1.526 . S
C985 C986 1.396 . S
C985 C990 1.390 . S
C986 C980 1.465 . S
C986 C985 1.396 . S
C986 C987 1.399 . S
C987 H973 0.929 . S
C987 C986 1.399 . S
C987 C988 1.409 . S
C988 H974 0.880 1_655 S
C988 C987 1.409 . S
C988 C989 1.417 . S
C989 C988 1.417 . S
C989 C990 1.387 . S
C990 H975 0.930 . S
C990 C985 1.390 . S
C990 C989 1.387 . S
H991 C1003 0.930 . S
H992 C1005 0.930 . S
H993 C1006 0.930 . S
H994 C1010 0.959 . S
H995 C1010 0.959 . S
H996 C1010 0.961 . S
H997 C1011 0.960 . S
H998 C1011 0.961 . S
H999 C1011 0.959 . S
H1000 C1014 0.929 . S
H1001 C1015 0.931 . S
H1002 C1017 0.930 . S
C1003 H991 0.930 . S
C1003 C1004 1.399 . S
C1003 C1008 1.399 . S
C1004 C1003 1.399 . S
C1004 C1005 1.376 . S
C1005 H992 0.930 . S
C1005 C1004 1.376 . S
C1005 C1006 1.388 . S
C1006 H993 0.930 . S
C1006 C1005 1.388 . S
C1006 C1007 1.390 . S
C1007 C1006 1.390 . S
C1007 C1008 1.394 . S
C1007 C1013 1.465 . S
C1008 C1003 1.399 . S
C1008 C1007 1.394 . S
C1008 C1009 1.516 . S
C1009 C1008 1.516 . S
C1009 C1010 1.502 1_545 S
C1009 C1011 1.561 . S
C1009 C1012 1.526 . S
C1010 H994 0.959 . S
C1010 H995 0.959 . S
C1010 H996 0.961 . S
C1010 C1009 1.502 1_565 S
C1011 H997 0.960 . S
C1011 H998 0.961 . S
C1011 H999 0.959 . S
C1011 C1009 1.561 . S
C1012 C1009 1.526 . S
C1012 C1013 1.396 . S
C1012 C1017 1.390 . S
C1013 C1007 1.465 . S
C1013 C1012 1.396 . S
C1013 C1014 1.399 . S
C1014 H1000 0.929 . S
C1014 C1013 1.399 . S
C1014 C1015 1.385 . S
C1015 H1001 0.931 . S
C1015 C1014 1.385 . S
C1015 C1016 1.389 . S
C1016 C1015 1.389 . S
C1016 C1017 1.387 . S
C1017 H1002 0.930 . S
C1017 C1012 1.390 . S
C1017 C1016 1.387 . S
H1018 C1030 0.930 . S
H1019 C1032 0.930 . S
H1020 C1033 0.930 . S
H1021 C1037 0.959 . S
H1022 C1037 0.959 . S
H1023 C1037 0.961 . S
H1024 C1038 0.960 . S
H1025 C1038 0.961 . S
H1026 C1038 0.959 . S
H1027 C1041 0.929 . S
H1028 C1042 0.931 . S
H1029 C1044 0.930 1_556 S
C1030 H1018 0.930 . S
C1030 C1031 1.399 . S
C1030 C1035 1.399 . S
C1031 C1030 1.399 . S
C1031 C1032 1.376 . S
C1032 H1019 0.930 . S
C1032 C1031 1.376 . S
C1032 C1033 1.388 . S
C1033 H1020 0.930 . S
C1033 C1032 1.388 . S
C1033 C1034 1.390 . S
C1034 C1033 1.390 . S
C1034 C1035 1.394 . S
C1034 C1040 1.465 . S
C1035 C1030 1.399 . S
C1035 C1034 1.394 . S
C1035 C1036 1.516 . S
C1036 C1035 1.516 . S
C1036 C1037 1.502 1_554 S
C1036 C1038 1.561 . S
C1036 C1039 1.526 . S
C1037 H1021 0.959 . S
C1037 H1022 0.959 . S
C1037 H1023 0.961 . S
C1037 C1036 1.502 1_556 S
C1038 H1024 0.960 . S
C1038 H1025 0.961 . S
C1038 H1026 0.959 . S
C1038 C1036 1.561 . S
C1039 C1036 1.526 . S
C1039 C1040 1.396 . S
C1039 C1044 1.390 . S
C1040 C1034 1.465 . S
C1040 C1039 1.396 . S
C1040 C1041 1.399 . S
C1041 H1027 0.929 . S
C1041 C1040 1.399 . S
C1041 C1042 1.385 . S
C1042 H1028 0.931 . S
C1042 C1041 1.385 . S
C1042 C1043 1.389 . S
C1043 C1042 1.389 . S
C1043 C1044 1.387 . S
C1044 H1029 0.930 1_554 S
C1044 C1039 1.390 . S
C1044 C1043 1.387 . S
H1045 C1057 0.930 . S
H1046 C1059 0.930 . S
H1047 C1060 0.930 . S
H1048 C1064 0.959 . S
H1049 C1064 0.959 . S
H1050 C1064 0.961 . S
H1051 C1065 0.960 . S
H1052 C1065 0.961 . S
H1053 C1065 0.959 . S
H1054 C1068 0.929 . S
H1055 C1069 0.931 . S
H1056 C1071 0.930 . S
C1057 H1045 0.930 . S
C1057 C1058 1.399 . S
C1057 C1062 1.399 . S
C1058 C1057 1.399 . S
C1058 C1059 1.376 . S
C1059 H1046 0.930 . S
C1059 C1058 1.376 . S
C1059 C1060 1.388 . S
C1060 H1047 0.930 . S
C1060 C1059 1.388 . S
C1060 C1061 1.390 . S
C1061 C1060 1.390 . S
C1061 C1062 1.394 . S
C1061 C1067 1.465 . S
C1062 C1057 1.399 . S
C1062 C1061 1.394 . S
C1062 C1063 1.516 . S
C1063 C1062 1.516 . S
C1063 C1064 1.502 . S
C1063 C1065 1.561 . S
C1063 C1066 1.526 . S
C1064 H1048 0.959 . S
C1064 H1049 0.959 . S
C1064 H1050 0.961 . S
C1064 C1063 1.502 . S
C1065 H1051 0.960 . S
C1065 H1052 0.961 . S
C1065 H1053 0.959 . S
C1065 C1063 1.561 . S
C1066 C1063 1.526 . S
C1066 C1067 1.396 . S
C1066 C1071 1.390 . S
C1067 C1061 1.465 . S
C1067 C1066 1.396 . S
C1067 C1068 1.399 . S
C1068 H1054 0.929 . S
C1068 C1067 1.399 . S
C1068 C1069 1.385 . S
C1069 H1055 0.931 . S
C1069 C1068 1.385 . S
C1069 C1070 1.389 . S
C1070 C1069 1.389 . S
C1070 C1071 1.387 . S
C1071 H1056 0.930 . S
C1071 C1066 1.390 . S
C1071 C1070 1.387 . S
H1072 C1084 0.930 . S
H1073 C1086 0.930 . S
H1074 C1087 0.930 . S
H1075 C1091 0.959 . S
H1076 C1091 0.959 . S
H1077 C1091 0.961 . S
H1078 C1092 0.960 . S
H1079 C1092 0.961 . S
H1080 C1092 0.959 . S
H1081 C1095 0.929 . S
H1082 C1096 0.931 . S
H1083 C1098 0.930 . S
C1084 H1072 0.930 . S
C1084 C1085 1.399 . S
C1084 C1089 1.399 . S
C1085 C1084 1.399 . S
C1085 C1086 1.376 . S
C1086 H1073 0.930 . S
C1086 C1085 1.376 . S
C1086 C1087 1.388 . S
C1087 H1074 0.930 . S
C1087 C1086 1.388 . S
C1087 C1088 1.390 . S
C1088 C1087 1.390 . S
C1088 C1089 1.394 . S
C1088 C1094 1.465 . S
C1089 C1084 1.399 . S
C1089 C1088 1.394 . S
C1089 C1090 1.516 . S
C1090 C1089 1.516 . S
C1090 C1091 1.502 . S
C1090 C1092 1.561 . S
C1090 C1093 1.526 . S
C1091 H1075 0.959 . S
C1091 H1076 0.959 . S
C1091 H1077 0.961 . S
C1091 C1090 1.502 . S
C1092 H1078 0.960 . S
C1092 H1079 0.961 . S
C1092 H1080 0.959 . S
C1092 C1090 1.561 . S
C1093 C1090 1.526 . S
C1093 C1094 1.396 . S
C1093 C1098 1.390 . S
C1094 C1088 1.465 . S
C1094 C1093 1.396 . S
C1094 C1095 1.399 . S
C1095 H1081 0.929 . S
C1095 C1094 1.399 . S
C1095 C1096 1.385 . S
C1096 H1082 0.931 . S
C1096 C1095 1.385 . S
C1096 C1097 1.389 . S
C1097 C1096 1.389 . S
C1097 C1098 1.387 . S
C1098 H1083 0.930 . S
C1098 C1093 1.390 . S
C1098 C1097 1.387 . S
H1099 C1111 0.930 . S
H1100 C1113 0.930 . S
H1101 C1114 0.930 . S
H1102 C1118 0.959 . S
H1103 C1118 0.959 . S
H1104 C1118 0.961 . S
H1105 C1119 0.960 . S
H1106 C1119 0.961 . S
H1107 C1119 0.959 . S
H1108 C1122 0.929 . S
H1109 C1123 0.931 . S
H1110 C1125 0.930 1_565 S
C1111 H1099 0.930 . S
C1111 C1112 1.399 1_565 S
C1111 C1116 1.399 . S
C1112 C1111 1.399 1_545 S
C1112 C1113 1.376 . S
C1113 H1100 0.930 . S
C1113 C1112 1.376 . S
C1113 C1114 1.388 . S
C1114 H1101 0.930 . S
C1114 C1113 1.388 . S
C1114 C1115 1.390 . S
C1115 C1114 1.390 . S
C1115 C1116 1.394 1_545 S
C1115 C1121 1.465 . S
C1116 C1111 1.399 . S
C1116 C1115 1.394 1_565 S
C1116 C1117 1.516 . S
C1117 C1116 1.516 . S
C1117 C1118 1.502 . S
C1117 C1119 1.561 . S
C1117 C1120 1.526 1_565 S
C1118 H1102 0.959 . S
C1118 H1103 0.959 . S
C1118 H1104 0.961 . S
C1118 C1117 1.502 . S
C1119 H1105 0.960 . S
C1119 H1106 0.961 . S
C1119 H1107 0.959 . S
C1119 C1117 1.561 . S
C1120 C1117 1.526 1_545 S
C1120 C1121 1.396 . S
C1120 C1125 1.390 . S
C1121 C1115 1.465 . S
C1121 C1120 1.396 . S
C1121 C1122 1.399 . S
C1122 H1108 0.929 . S
C1122 C1121 1.399 . S
C1122 C1123 1.385 . S
C1123 H1109 0.931 . S
C1123 C1122 1.385 . S
C1123 C1124 1.389 . S
C1124 C1123 1.389 . S
C1124 C1125 1.387 . S
C1125 H1110 0.930 1_545 S
C1125 C1120 1.390 . S
C1125 C1124 1.387 . S
H1126 C1138 0.930 . S
H1127 C1140 0.930 . S
H1128 C1141 0.930 . S
H1129 C1145 0.959 . S
H1130 C1145 0.959 . S
H1131 C1145 0.961 . S
H1132 C1146 0.960 . S
H1133 C1146 0.961 . S
H1134 C1146 0.959 . S
H1135 C1149 0.929 . S
H1136 C1150 0.931 1_554 S
H1137 C1152 0.930 . S
C1138 H1126 0.930 . S
C1138 C1139 1.399 1_556 S
C1138 C1143 1.399 . S
C1139 C1138 1.399 1_554 S
C1139 C1140 1.376 . S
C1140 H1127 0.930 . S
C1140 C1139 1.376 . S
C1140 C1141 1.388 . S
C1141 H1128 0.930 . S
C1141 C1140 1.388 . S
C1141 C1142 1.390 . S
C1142 C1141 1.390 . S
C1142 C1143 1.394 1_554 S
C1142 C1148 1.465 1_554 S
C1143 C1138 1.399 . S
C1143 C1142 1.394 1_556 S
C1143 C1144 1.516 . S
C1144 C1143 1.516 . S
C1144 C1145 1.502 . S
C1144 C1146 1.561 . S
C1144 C1147 1.526 . S
C1145 H1129 0.959 . S
C1145 H1130 0.959 . S
C1145 H1131 0.961 . S
C1145 C1144 1.502 . S
C1146 H1132 0.960 . S
C1146 H1133 0.961 . S
C1146 H1134 0.959 . S
C1146 C1144 1.561 . S
C1147 C1144 1.526 . S
C1147 C1148 1.396 . S
C1147 C1152 1.390 . S
C1148 C1142 1.465 1_556 S
C1148 C1147 1.396 . S
C1148 C1149 1.399 1_556 S
C1149 H1135 0.929 . S
C1149 C1148 1.399 1_554 S
C1149 C1150 1.385 1_554 S
C1150 H1136 0.931 1_556 S
C1150 C1149 1.385 1_556 S
C1150 C1151 1.389 . S
C1151 C1150 1.389 . S
C1151 C1152 1.387 . S
C1152 H1137 0.930 . S
C1152 C1147 1.390 . S
C1152 C1151 1.387 . S
H1153 C1165 0.930 . S
H1154 C1167 0.930 . S
H1155 C1168 0.930 . S
H1156 C1172 0.959 . S
H1157 C1172 0.959 . S
H1158 C1172 0.961 . S
H1159 C1173 0.960 . S
H1160 C1173 0.961 . S
H1161 C1173 0.959 . S
H1162 C1176 0.929 . S
H1163 C1177 0.931 . S
H1164 C1179 0.930 . S
C1165 H1153 0.930 . S
C1165 C1166 1.399 . S
C1165 C1170 1.399 . S
C1166 C1165 1.399 . S
C1166 C1167 1.376 . S
C1167 H1154 0.930 . S
C1167 C1166 1.376 . S
C1167 C1168 1.388 . S
C1168 H1155 0.930 . S
C1168 C1167 1.388 . S
C1168 C1169 1.390 . S
C1169 C1168 1.390 . S
C1169 C1170 1.394 . S
C1169 C1175 1.465 . S
C1170 C1165 1.399 . S
C1170 C1169 1.394 . S
C1170 C1171 1.516 . S
C1171 C1170 1.516 . S
C1171 C1172 1.502 . S
C1171 C1173 1.561 . S
C1171 C1174 1.526 . S
C1172 H1156 0.959 . S
C1172 H1157 0.959 . S
C1172 H1158 0.961 . S
C1172 C1171 1.502 . S
C1173 H1159 0.960 . S
C1173 H1160 0.961 . S
C1173 H1161 0.959 . S
C1173 C1171 1.561 . S
C1174 C1171 1.526 . S
C1174 C1175 1.396 . S
C1174 C1179 1.390 . S
C1175 C1169 1.465 . S
C1175 C1174 1.396 . S
C1175 C1176 1.399 . S
C1176 H1162 0.929 . S
C1176 C1175 1.399 . S
C1176 C1177 1.385 . S
C1177 H1163 0.931 . S
C1177 C1176 1.385 . S
C1177 C1178 1.389 . S
C1178 C1177 1.389 . S
C1178 C1179 1.387 . S
C1179 H1164 0.930 . S
C1179 C1174 1.390 . S
C1179 C1178 1.387 . S
H1180 C1192 0.930 . S
H1181 C1194 0.930 . S
H1182 C1195 0.930 . S
H1183 C1199 0.959 . S
H1184 C1199 0.959 . S
H1185 C1199 0.961 . S
H1186 C1200 0.960 . S
H1187 C1200 0.961 . S
H1188 C1200 0.959 . S
H1189 C1203 0.929 . S
H1190 C1204 0.931 . S
H1191 C1206 0.930 . S
C1192 H1180 0.930 . S
C1192 C1193 1.399 . S
C1192 C1197 1.399 . S
C1193 C1192 1.399 . S
C1193 C1194 1.376 . S
C1194 H1181 0.930 . S
C1194 C1193 1.376 . S
C1194 C1195 1.388 . S
C1195 H1182 0.930 . S
C1195 C1194 1.388 . S
C1195 C1196 1.390 . S
C1196 C1195 1.390 . S
C1196 C1197 1.394 . S
C1196 C1202 1.465 . S
C1197 C1192 1.399 . S
C1197 C1196 1.394 . S
C1197 C1198 1.516 . S
C1198 C1197 1.516 . S
C1198 C1199 1.502 . S
C1198 C1200 1.561 . S
C1198 C1201 1.526 . S
C1199 H1183 0.959 . S
C1199 H1184 0.959 . S
C1199 H1185 0.961 . S
C1199 C1198 1.502 . S
C1200 H1186 0.960 . S
C1200 H1187 0.961 . S
C1200 H1188 0.959 . S
C1200 C1198 1.561 . S
C1201 C1198 1.526 . S
C1201 C1202 1.396 . S
C1201 C1206 1.390 . S
C1202 C1196 1.465 . S
C1202 C1201 1.396 . S
C1202 C1203 1.399 . S
C1203 H1189 0.929 . S
C1203 C1202 1.399 . S
C1203 C1204 1.385 . S
C1204 H1190 0.931 . S
C1204 C1203 1.385 . S
C1204 C1205 1.389 . S
C1205 C1204 1.389 . S
C1205 C1206 1.387 . S
C1206 H1191 0.930 . S
C1206 C1201 1.390 . S
C1206 C1205 1.387 . S
H1207 C1219 0.930 . S
H1208 C1221 0.930 . S
H1209 C1222 0.930 . S
H1210 C1226 0.959 . S
H1211 C1226 0.959 . S
H1212 C1226 0.961 . S
H1213 C1227 0.960 . S
H1214 C1227 0.961 . S
H1215 C1227 0.959 . S
H1216 C1230 0.929 . S
H1217 C1231 0.931 . S
H1218 C1233 0.930 . S
C1219 H1207 0.930 . S
C1219 C1220 1.399 . S
C1219 C1224 1.399 . S
C1220 C1219 1.399 . S
C1220 C1221 1.376 1_565 S
C1221 H1208 0.930 . S
C1221 C1220 1.376 1_545 S
C1221 C1222 1.388 . S
C1222 H1209 0.930 . S
C1222 C1221 1.388 . S
C1222 C1223 1.376 1_545 S
C1223 C1222 1.376 1_565 S
C1223 C1224 1.413 . S
C1223 C1229 1.463 . S
C1224 C1219 1.399 . S
C1224 C1223 1.413 . S
C1224 C1225 1.516 . S
C1225 C1224 1.516 . S
C1225 C1226 1.502 . S
C1225 C1227 1.561 . S
C1225 C1228 1.526 . S
C1226 H1210 0.959 . S
C1226 H1211 0.959 . S
C1226 H1212 0.961 . S
C1226 C1225 1.502 . S
C1227 H1213 0.960 . S
C1227 H1214 0.961 . S
C1227 H1215 0.959 . S
C1227 C1225 1.561 . S
C1228 C1225 1.526 . S
C1228 C1229 1.396 . S
C1228 C1233 1.390 . S
C1229 C1223 1.463 . S
C1229 C1228 1.396 . S
C1229 C1230 1.399 1_565 S
C1230 H1216 0.929 . S
C1230 C1229 1.399 1_545 S
C1230 C1231 1.385 . S
C1231 H1217 0.931 . S
C1231 C1230 1.385 . S
C1231 C1232 1.389 1_545 S
C1232 C1231 1.389 1_565 S
C1232 C1233 1.387 . S
C1233 H1218 0.930 . S
C1233 C1228 1.390 . S
C1233 C1232 1.387 . S
H1234 C1246 0.930 . S
H1235 C1248 0.930 . S
H1236 C1249 0.930 . S
H1237 C1253 0.959 . S
H1238 C1253 0.959 . S
H1239 C1253 0.961 . S
H1240 C1254 0.960 . S
H1241 C1254 0.961 . S
H1242 C1254 0.959 . S
H1243 C1257 0.929 . S
H1244 C1258 0.931 . S
H1245 C1260 0.930 . S
C1246 H1234 0.930 . S
C1246 C1247 1.399 . S
C1246 C1251 1.399 . S
C1247 C1246 1.399 . S
C1247 C1248 1.376 . S
C1248 H1235 0.930 . S
C1248 C1247 1.376 . S
C1248 C1249 1.388 . S
C1249 H1236 0.930 . S
C1249 C1248 1.388 . S
C1249 C1250 1.390 . S
C1250 C1249 1.390 . S
C1250 C1251 1.394 . S
C1250 C1256 1.465 . S
C1251 C1246 1.399 . S
C1251 C1250 1.394 . S
C1251 C1252 1.516 . S
C1252 C1251 1.516 . S
C1252 C1253 1.502 . S
C1252 C1254 1.561 . S
C1252 C1255 1.526 . S
C1253 H1237 0.959 . S
C1253 H1238 0.959 . S
C1253 H1239 0.961 . S
C1253 C1252 1.502 . S
C1254 H1240 0.960 . S
C1254 H1241 0.961 . S
C1254 H1242 0.959 . S
C1254 C1252 1.561 . S
C1255 C1252 1.526 . S
C1255 C1256 1.396 . S
C1255 C1260 1.390 . S
C1256 C1250 1.465 . S
C1256 C1255 1.396 . S
C1256 C1257 1.399 . S
C1257 H1243 0.929 . S
C1257 C1256 1.399 . S
C1257 C1258 1.385 . S
C1258 H1244 0.931 . S
C1258 C1257 1.385 . S
C1258 C1259 1.389 . S
C1259 C1258 1.389 . S
C1259 C1260 1.387 . S
C1260 H1245 0.930 . S
C1260 C1255 1.390 . S
C1260 C1259 1.387 . S
H1261 C1273 0.930 . S
H1262 C1275 0.930 . S
H1263 C1276 0.930 . S
H1264 C1280 0.959 . S
H1265 C1280 0.959 . S
H1266 C1280 0.961 . S
H1267 C1281 0.960 . S
H1268 C1281 0.961 . S
H1269 C1281 0.959 . S
H1270 C1284 0.929 . S
H1271 C1285 0.931 . S
H1272 C1287 0.930 . S
C1273 H1261 0.930 . S
C1273 C1274 1.399 . S
C1273 C1278 1.399 . S
C1274 C1273 1.399 . S
C1274 C1275 1.376 . S
C1275 H1262 0.930 . S
C1275 C1274 1.376 . S
C1275 C1276 1.388 . S
C1276 H1263 0.930 . S
C1276 C1275 1.388 . S
C1276 C1277 1.390 . S
C1277 C1276 1.390 . S
C1277 C1278 1.394 . S
C1277 C1283 1.465 . S
C1278 C1273 1.399 . S
C1278 C1277 1.394 . S
C1278 C1279 1.516 . S
C1279 C1278 1.516 . S
C1279 C1280 1.502 . S
C1279 C1281 1.561 . S
C1279 C1282 1.526 . S
C1280 H1264 0.959 . S
C1280 H1265 0.959 . S
C1280 H1266 0.961 . S
C1280 C1279 1.502 . S
C1281 H1267 0.960 . S
C1281 H1268 0.961 . S
C1281 H1269 0.959 . S
C1281 C1279 1.561 . S
C1282 C1279 1.526 . S
C1282 C1283 1.396 . S
C1282 C1287 1.390 . S
C1283 C1277 1.465 . S
C1283 C1282 1.396 . S
C1283 C1284 1.399 . S
C1284 H1270 0.929 . S
C1284 C1283 1.399 . S
C1284 C1285 1.385 . S
C1285 H1271 0.931 . S
C1285 C1284 1.385 . S
C1285 C1286 1.389 . S
C1286 C1285 1.389 . S
C1286 C1287 1.387 . S
C1287 H1272 0.930 . S
C1287 C1282 1.390 . S
C1287 C1286 1.387 . S
C653 C391 0.957 1_565 S
C665 C489 0.959 . S
C692 C529 1.924 . S
C680 C451 2.156 . S
C719 C578 1.712 . S
C707 C241 1.670 . S
C746 C609 2.197 . S
C734 C331 2.052 . S
C773 C498 0.943 . S
C761 C121 0.898 1_545 S
C788 C211 2.014 . S
C800 C538 2.014 . S
C815 C31 1.724 1_556 S
C827 C569 1.672 . S
C842 C91 2.211 . S
C854 C618 2.156 1_655 S
C881 C499 1.472 . S
C869 C301 1.113 . S
C908 C539 0.960 . S
C896 C380 0.822 1_565 S
C935 C575 0.631 . S
C923 C440 0.598 . S
C950 C260 1.252 . S
C962 C619 1.563 . S
C977 C61 1.157 . S
C989 C490 1.514 1_655 S
C1016 C530 0.913 . S
C1004 C140 0.949 1_545 S
C1043 C566 0.643 1_554 S
C1031 C200 0.615 . S
C1058 C20 1.454 . S
C1070 C610 1.575 . S
C1085 C320 2.134 . S
C1097 C495 2.205 . S
C1112 C361 1.616 . S
C1124 C535 1.753 . S
C1151 C579 2.936 . S
C1139 C421 2.436 . S
C1178 C615 1.793 . S
C1166 C271 1.793 . S
C1193 C80 2.190 . S
C1205 C486 2.207 . S
C1232 C526 1.721 . S
C1220 C151 1.750 . S
C1259 C570 2.937 . S
C1247 C181 2.353 . S
C1274 C1 1.644 . S
C1286 C606 1.823 . S
