# Generated by pormake.
# Topology ptr, (4,4)-cn, num edge types: 1
# Building blocks:
#     Node 0, Type 0, BuildingBlock: AZAVOO_clean_sbu_0, # of connection points: 4
#     Node 1, Type 0, BuildingBlock: AZAVOO_clean_sbu_0, # of connection points: 4
#     Node 2, Type 0, BuildingBlock: AZAVOO_clean_sbu_0, # of connection points: 4
#     Node 3, Type 0, BuildingBlock: AZAVOO_clean_sbu_0, # of connection points: 4
#     Node 4, Type 0, BuildingBlock: AZAVOO_clean_sbu_0, # of connection points: 4
#     Node 5, Type 0, BuildingBlock: AZAVOO_clean_sbu_0, # of connection points: 4
#     Node 6, Type 0, BuildingBlock: AZAVOO_clean_sbu_0, # of connection points: 4
#     Node 7, Type 0, BuildingBlock: AZAVOO_clean_sbu_0, # of connection points: 4
#     Node 8, Type 0, BuildingBlock: AZAVOO_clean_sbu_0, # of connection points: 4
#     Node 9, Type 0, BuildingBlock: AZAVOO_clean_sbu_0, # of connection points: 4
#     Node 10, Type 0, BuildingBlock: AZAVOO_clean_sbu_0, # of connection points: 4
#     Node 11, Type 0, BuildingBlock: AZAVOO_clean_sbu_0, # of connection points: 4
#     Node 12, Type 0, BuildingBlock: AZAVOO_clean_sbu_0, # of connection points: 4
#     Node 13, Type 0, BuildingBlock: AZAVOO_clean_sbu_0, # of connection points: 4
#     Node 14, Type 0, BuildingBlock: AZAVOO_clean_sbu_0, # of connection points: 4
#     Node 15, Type 0, BuildingBlock: AZAVOO_clean_sbu_0, # of connection points: 4
#     Node 16, Type 0, BuildingBlock: AZAVOO_clean_sbu_0, # of connection points: 4
#     Node 17, Type 0, BuildingBlock: AZAVOO_clean_sbu_0, # of connection points: 4
#     Node 18, Type 1, BuildingBlock: KUFVIS_clean_linker_0, # of connection points: 4
#     Node 19, Type 1, BuildingBlock: KUFVIS_clean_linker_0, # of connection points: 4
#     Node 20, Type 1, BuildingBlock: KUFVIS_clean_linker_0, # of connection points: 4
#     Node 21, Type 1, BuildingBlock: KUFVIS_clean_linker_0, # of connection points: 4
#     Node 22, Type 1, BuildingBlock: KUFVIS_clean_linker_0, # of connection points: 4
#     Node 23, Type 1, BuildingBlock: KUFVIS_clean_linker_0, # of connection points: 4
#     Node 24, Type 1, BuildingBlock: KUFVIS_clean_linker_0, # of connection points: 4
#     Node 25, Type 1, BuildingBlock: KUFVIS_clean_linker_0, # of connection points: 4
#     Node 26, Type 1, BuildingBlock: KUFVIS_clean_linker_0, # of connection points: 4
#     Node 27, Type 1, BuildingBlock: KUFVIS_clean_linker_0, # of connection points: 4
#     Node 28, Type 1, BuildingBlock: KUFVIS_clean_linker_0, # of connection points: 4
#     Node 29, Type 1, BuildingBlock: KUFVIS_clean_linker_0, # of connection points: 4
#     Node 30, Type 1, BuildingBlock: KUFVIS_clean_linker_0, # of connection points: 4
#     Node 31, Type 1, BuildingBlock: KUFVIS_clean_linker_0, # of connection points: 4
#     Node 32, Type 1, BuildingBlock: KUFVIS_clean_linker_0, # of connection points: 4
#     Node 33, Type 1, BuildingBlock: KUFVIS_clean_linker_0, # of connection points: 4
#     Node 34, Type 1, BuildingBlock: KUFVIS_clean_linker_0, # of connection points: 4
#     Node 35, Type 1, BuildingBlock: KUFVIS_clean_linker_0, # of connection points: 4
#     Edge 36, Type (0, 1), BuildingBlock: FUNLAD_clean_linker_0, # of connection points: 2
#     Edge 37, Type (0, 1), BuildingBlock: FUNLAD_clean_linker_0, # of connection points: 2
#     Edge 38, Type (0, 1), BuildingBlock: FUNLAD_clean_linker_0, # of connection points: 2
#     Edge 39, Type (0, 1), BuildingBlock: FUNLAD_clean_linker_0, # of connection points: 2
#     Edge 40, Type (0, 1), BuildingBlock: FUNLAD_clean_linker_0, # of connection points: 2
#     Edge 41, Type (0, 1), BuildingBlock: FUNLAD_clean_linker_0, # of connection points: 2
#     Edge 42, Type (0, 1), BuildingBlock: FUNLAD_clean_linker_0, # of connection points: 2
#     Edge 43, Type (0, 1), BuildingBlock: FUNLAD_clean_linker_0, # of connection points: 2
#     Edge 44, Type (0, 1), BuildingBlock: FUNLAD_clean_linker_0, # of connection points: 2
#     Edge 45, Type (0, 1), BuildingBlock: FUNLAD_clean_linker_0, # of connection points: 2
#     Edge 46, Type (0, 1), BuildingBlock: FUNLAD_clean_linker_0, # of connection points: 2
#     Edge 47, Type (0, 1), BuildingBlock: FUNLAD_clean_linker_0, # of connection points: 2
#     Edge 48, Type (0, 1), BuildingBlock: FUNLAD_clean_linker_0, # of connection points: 2
#     Edge 49, Type (0, 1), BuildingBlock: FUNLAD_clean_linker_0, # of connection points: 2
#     Edge 50, Type (0, 1), BuildingBlock: FUNLAD_clean_linker_0, # of connection points: 2
#     Edge 51, Type (0, 1), BuildingBlock: FUNLAD_clean_linker_0, # of connection points: 2
#     Edge 52, Type (0, 1), BuildingBlock: FUNLAD_clean_linker_0, # of connection points: 2
#     Edge 53, Type (0, 1), BuildingBlock: FUNLAD_clean_linker_0, # of connection points: 2
#     Edge 54, Type (0, 1), BuildingBlock: FUNLAD_clean_linker_0, # of connection points: 2
#     Edge 55, Type (0, 1), BuildingBlock: FUNLAD_clean_linker_0, # of connection points: 2
#     Edge 56, Type (0, 1), BuildingBlock: FUNLAD_clean_linker_0, # of connection points: 2
#     Edge 57, Type (0, 1), BuildingBlock: FUNLAD_clean_linker_0, # of connection points: 2
#     Edge 58, Type (0, 1), BuildingBlock: FUNLAD_clean_linker_0, # of connection points: 2
#     Edge 59, Type (0, 1), BuildingBlock: FUNLAD_clean_linker_0, # of connection points: 2
#     Edge 60, Type (0, 1), BuildingBlock: FUNLAD_clean_linker_0, # of connection points: 2
#     Edge 61, Type (0, 1), BuildingBlock: FUNLAD_clean_linker_0, # of connection points: 2
#     Edge 62, Type (0, 1), BuildingBlock: FUNLAD_clean_linker_0, # of connection points: 2
#     Edge 63, Type (0, 1), BuildingBlock: FUNLAD_clean_linker_0, # of connection points: 2
#     Edge 64, Type (0, 1), BuildingBlock: FUNLAD_clean_linker_0, # of connection points: 2
#     Edge 65, Type (0, 1), BuildingBlock: FUNLAD_clean_linker_0, # of connection points: 2
#     Edge 66, Type (0, 1), BuildingBlock: FUNLAD_clean_linker_0, # of connection points: 2
#     Edge 67, Type (0, 1), BuildingBlock: FUNLAD_clean_linker_0, # of connection points: 2
#     Edge 68, Type (0, 1), BuildingBlock: FUNLAD_clean_linker_0, # of connection points: 2
#     Edge 69, Type (0, 1), BuildingBlock: FUNLAD_clean_linker_0, # of connection points: 2
#     Edge 70, Type (0, 1), BuildingBlock: FUNLAD_clean_linker_0, # of connection points: 2
#     Edge 71, Type (0, 1), BuildingBlock: FUNLAD_clean_linker_0, # of connection points: 2
#     Edge 72, Type (0, 1), BuildingBlock: FUNLAD_clean_linker_0, # of connection points: 2
#     Edge 73, Type (0, 1), BuildingBlock: FUNLAD_clean_linker_0, # of connection points: 2
#     Edge 74, Type (0, 1), BuildingBlock: FUNLAD_clean_linker_0, # of connection points: 2
#     Edge 75, Type (0, 1), BuildingBlock: FUNLAD_clean_linker_0, # of connection points: 2
#     Edge 76, Type (0, 1), BuildingBlock: FUNLAD_clean_linker_0, # of connection points: 2
#     Edge 77, Type (0, 1), BuildingBlock: FUNLAD_clean_linker_0, # of connection points: 2
#     Edge 78, Type (0, 1), BuildingBlock: FUNLAD_clean_linker_0, # of connection points: 2
#     Edge 79, Type (0, 1), BuildingBlock: FUNLAD_clean_linker_0, # of connection points: 2
#     Edge 80, Type (0, 1), BuildingBlock: FUNLAD_clean_linker_0, # of connection points: 2
#     Edge 81, Type (0, 1), BuildingBlock: FUNLAD_clean_linker_0, # of connection points: 2
#     Edge 82, Type (0, 1), BuildingBlock: FUNLAD_clean_linker_0, # of connection points: 2
#     Edge 83, Type (0, 1), BuildingBlock: FUNLAD_clean_linker_0, # of connection points: 2
#     Edge 84, Type (0, 1), BuildingBlock: FUNLAD_clean_linker_0, # of connection points: 2
#     Edge 85, Type (0, 1), BuildingBlock: FUNLAD_clean_linker_0, # of connection points: 2
#     Edge 86, Type (0, 1), BuildingBlock: FUNLAD_clean_linker_0, # of connection points: 2
#     Edge 87, Type (0, 1), BuildingBlock: FUNLAD_clean_linker_0, # of connection points: 2
#     Edge 88, Type (0, 1), BuildingBlock: FUNLAD_clean_linker_0, # of connection points: 2
#     Edge 89, Type (0, 1), BuildingBlock: FUNLAD_clean_linker_0, # of connection points: 2
#     Edge 90, Type (0, 1), BuildingBlock: FUNLAD_clean_linker_0, # of connection points: 2
#     Edge 91, Type (0, 1), BuildingBlock: FUNLAD_clean_linker_0, # of connection points: 2
#     Edge 92, Type (0, 1), BuildingBlock: FUNLAD_clean_linker_0, # of connection points: 2
#     Edge 93, Type (0, 1), BuildingBlock: FUNLAD_clean_linker_0, # of connection points: 2
#     Edge 94, Type (0, 1), BuildingBlock: FUNLAD_clean_linker_0, # of connection points: 2
#     Edge 95, Type (0, 1), BuildingBlock: FUNLAD_clean_linker_0, # of connection points: 2
#     Edge 96, Type (0, 1), BuildingBlock: FUNLAD_clean_linker_0, # of connection points: 2
#     Edge 97, Type (0, 1), BuildingBlock: FUNLAD_clean_linker_0, # of connection points: 2
#     Edge 98, Type (0, 1), BuildingBlock: FUNLAD_clean_linker_0, # of connection points: 2
#     Edge 99, Type (0, 1), BuildingBlock: FUNLAD_clean_linker_0, # of connection points: 2
#     Edge 100, Type (0, 1), BuildingBlock: FUNLAD_clean_linker_0, # of connection points: 2
#     Edge 101, Type (0, 1), BuildingBlock: FUNLAD_clean_linker_0, # of connection points: 2
#     Edge 102, Type (0, 1), BuildingBlock: FUNLAD_clean_linker_0, # of connection points: 2
#     Edge 103, Type (0, 1), BuildingBlock: FUNLAD_clean_linker_0, # of connection points: 2
#     Edge 104, Type (0, 1), BuildingBlock: FUNLAD_clean_linker_0, # of connection points: 2
#     Edge 105, Type (0, 1), BuildingBlock: FUNLAD_clean_linker_0, # of connection points: 2
#     Edge 106, Type (0, 1), BuildingBlock: FUNLAD_clean_linker_0, # of connection points: 2
#     Edge 107, Type (0, 1), BuildingBlock: FUNLAD_clean_linker_0, # of connection points: 2
# Relax obj value: 0.078
# Max RMSD: 0.239
# Mean RMSD: 0.131
data_MOF--net-ptr--node1-AZAVOO_clean_sbu_0--node2-KUFVIS_clean_linker_0--edge1-FUNLAD_clean_linker_0
_symmetry_space_group_name_H-M    P1
_symmetry_Int_Tables_number       1
_symmetry_cell_setting            triclinic
loop_
_symmetry_equiv_pos_as_xyz
'x, y, z'
_cell_length_a     92.617874
_cell_length_b     91.207549
_cell_length_c     53.831175
_cell_angle_alpha  91.346323
_cell_angle_beta   91.238854
_cell_angle_gamma 120.05525
loop_
_atom_site_label
_atom_site_type_symbol
_atom_site_fract_x
_atom_site_fract_y
_atom_site_fract_z
_atom_type_partial_charge
Mg0 Mg 0.01327 0.36028 0.97529 0.0
O1 O 0.00604 0.37433 0.00487 0.0
O2 O 0.98791 0.37979 0.98474 0.0
Mg3 Mg 0.98244 0.36871 0.94525 0.0
C4 C 0.99657 0.38084 0.00419 0.0
C5 C 0.03982 0.35338 0.99274 0.0
O6 O 0.04145 0.35623 0.96886 0.0
O7 O 0.98845 0.33562 0.9799 0.0
O8 O 0.97084 0.3419 0.96032 0.0
O9 O 0.03338 0.38515 0.96299 0.0
O10 O 0.00761 0.37224 0.94708 0.0
C11 C 0.97372 0.3316 0.97215 0.0
C12 C 0.02228 0.38555 0.94851 0.0
O13 O 0.02769 0.35346 0.00334 0.0
Mg14 Mg 0.64608 0.64917 0.04172 0.0
O15 O 0.62784 0.6377 0.00746 0.0
O16 O 0.60304 0.63306 0.01995 0.0
Mg17 Mg 0.6051 0.64104 0.06083 0.0
C18 C 0.61234 0.63255 0.00319 0.0
C19 C 0.67988 0.65437 0.02882 0.0
O20 O 0.67696 0.64772 0.05082 0.0
O21 O 0.6472 0.67463 0.03743 0.0
O22 O 0.62227 0.66878 0.0508 0.0
O23 O 0.63933 0.62319 0.05254 0.0
O24 O 0.62614 0.63646 0.06497 0.0
C25 C 0.63655 0.67916 0.04255 0.0
C26 C 0.62703 0.62279 0.06409 0.0
O27 O 0.66895 0.65702 0.01846 0.0
Mg28 Mg 0.36108 0.99375 0.97304 0.0
O29 O 0.37969 0.004 0.00684 0.0
O30 O 0.40264 0.027 0.99449 0.0
Mg31 Mg 0.39914 0.03091 0.95367 0.0
C32 C 0.39445 0.01654 0.01112 0.0
C33 C 0.328 0.96322 0.98694 0.0
O34 O 0.32985 0.95912 0.96414 0.0
O35 O 0.35591 0.01554 0.97805 0.0
O36 O 0.37906 0.03751 0.96444 0.0
O37 O 0.37134 0.97736 0.96155 0.0
O38 O 0.38102 0.00357 0.94948 0.0
C39 C 0.36449 0.03118 0.97314 0.0
C40 C 0.38247 0.99022 0.94999 0.0
O41 O 0.33933 0.97715 -0.00298 0.0
Mg42 Mg 0.99928 0.6536 0.03897 0.0
O43 O 1.00348 0.64121 0.00386 0.0
O44 O 0.02745 0.64144 0.01139 0.0
Mg45 Mg 0.03887 0.65422 0.04922 0.0
C46 C 0.0146 0.63757 -0.00253 0.0
C47 C 0.96357 0.64721 0.02612 0.0
O48 O 0.9604 0.63582 0.04284 0.0
O49 O 0.01916 0.68015 0.02805 0.0
O50 O 0.04272 0.67974 0.03602 0.0
O51 O 0.98645 0.62806 0.05565 0.0
O52 O 0.01344 0.64625 0.06047 0.0
C53 C 0.03509 0.68743 0.02897 0.0
C54 C 1.00104 0.63137 0.06393 0.0
O55 O 0.97851 0.6563 0.01937 0.0
Mg56 Mg 0.36263 0.36026 0.97557 0.0
O57 O 0.38069 0.37317 0.00968 0.0
O58 O 0.40481 0.37489 -0.00032 0.0
Mg59 Mg 0.40258 0.36368 0.96059 0.0
C60 C 0.39593 0.3776 0.01488 0.0
C61 C 0.33732 0.36753 0.00272 0.0
O62 O 0.34863 0.38297 -0.0028 0.0
O63 O 0.35934 0.33445 0.98466 0.0
O64 O 0.38356 0.33709 0.97332 0.0
O65 O 0.37166 0.38573 0.96024 0.0
O66 O 0.38293 0.36981 0.95247 0.0
C67 C 0.36893 0.3283 0.98162 0.0
C68 C 0.38349 0.38413 0.95053 0.0
O69 O 0.33987 0.35535 -0.00246 0.0
Mg70 Mg 0.65172 0.00561 0.036 0.0
O71 O 0.63479 1.00229 0.00179 0.0
O72 O 0.60926 0.98102 0.00943 0.0
Mg73 Mg 0.61013 0.96988 0.04649 0.0
C74 C 0.61932 0.99276 -0.00433 0.0
C75 C 0.68795 0.03344 0.02826 0.0
O76 O 0.6871 0.03396 0.05257 0.0
O77 O 0.6533 0.98252 0.02333 0.0
O78 O 0.62791 0.96127 0.03124 0.0
O79 O 0.6439 0.02271 0.05361 0.0
O80 O 0.63102 0.99499 0.05806 0.0
C81 C 0.64264 0.96672 0.02357 0.0
C82 C 0.63135 0.00916 0.06174 0.0
O83 O 0.67502 0.02298 0.01533 0.0
Mg84 Mg 0.68353 0.69782 0.31495 0.0
O85 O 0.67481 0.70838 0.34736 0.0
O86 O 0.65503 0.71279 0.33059 0.0
Mg87 Mg 0.65077 0.70505 0.28944 0.0
C88 C 0.6641 0.7133 0.34919 0.0
C89 C 0.71104 0.69128 0.33006 0.0
O90 O 0.71332 0.69577 0.30681 0.0
O91 O 0.65977 0.672 0.31659 0.0
O92 O 0.64068 0.67719 0.29944 0.0
O93 O 0.70246 0.72405 0.30585 0.0
O94 O 0.67671 0.71055 0.28973 0.0
C95 C 0.64479 0.66705 0.30909 0.0
C96 C 0.69096 0.72437 0.29221 0.0
O97 O 0.69845 0.69029 0.34072 0.0
Mg98 Mg 0.31519 0.98312 0.37076 0.0
O99 O 0.29676 0.97165 0.33676 0.0
O100 O 0.27227 0.96797 0.34909 0.0
Mg101 Mg 0.27475 0.97686 0.38965 0.0
C102 C 0.28133 0.96682 0.33247 0.0
C103 C 0.343 0.97956 0.34489 0.0
O104 O 0.33438 0.96464 0.35454 0.0
O105 O 0.31716 0.00883 0.3656 0.0
O106 O 0.29264 0.00437 0.37885 0.0
O107 O 0.30756 0.95718 0.3827 0.0
O108 O 0.29519 0.97139 0.39441 0.0
C109 C 0.30705 0.0141 0.3704 0.0
C110 C 0.29555 0.95744 0.39412 0.0
O111 O 0.33788 0.99011 0.3471 0.0
Mg112 Mg 0.02782 0.32913 0.30738 0.0
O113 O 0.04674 0.33582 0.3404 0.0
O114 O 0.07184 0.35403 0.32623 0.0
Mg115 Mg 0.06931 0.35908 0.28566 0.0
C116 C 0.06257 0.34533 0.34363 0.0
C117 C 1.00025 0.30129 0.33815 0.0
O118 O 0.00886 0.29404 0.33174 0.0
O119 O 0.02972 0.35497 0.31258 0.0
O120 O 0.05474 0.37224 0.29755 0.0
O121 O 0.03156 0.30787 0.29492 0.0
O122 O 0.04663 0.33404 0.2826 0.0
C123 C 0.04119 0.36974 0.30703 0.0
C124 C 0.04406 0.31878 0.28274 0.0
O125 O 0.00544 0.31653 0.33233 0.0
Mg126 Mg 0.66473 0.98391 0.36566 0.0
O127 O 0.67194 0.9723 0.33266 0.0
O128 O 0.694 0.97074 0.34698 0.0
Mg129 Mg 0.70075 0.98071 0.38716 0.0
C130 C 0.68327 0.96832 0.32971 0.0
C131 C 0.63564 0.98909 0.35304 0.0
O132 O 0.63404 0.98497 0.37646 0.0
O133 O 0.68708 0.01015 0.35994 0.0
O134 O 0.70841 0.00769 0.37493 0.0
O135 O 0.64791 0.95794 0.3783 0.0
O136 O 0.67445 0.97355 0.39051 0.0
C137 C 0.70262 0.01649 0.36538 0.0
C138 C 0.66075 0.95916 0.39033 0.0
O139 O 0.6477 0.98961 0.34141 0.0
Mg140 Mg 0.02885 0.68695 0.30628 0.0
O141 O 0.04647 0.70072 0.34047 0.0
O142 O 0.07164 0.70506 0.33071 0.0
Mg143 Mg 0.07015 0.69382 0.29183 0.0
C144 C 0.06199 0.70662 0.3458 0.0
C145 C 0.99371 0.68015 0.31622 0.0
O146 O 0.99532 0.68352 0.29251 0.0
O147 O 0.02747 0.662 0.31557 0.0
O148 O 0.05258 0.66681 0.30484 0.0
O149 O 0.03612 0.71207 0.29111 0.0
O150 O 0.04912 0.69781 0.28322 0.0
C151 C 0.03806 0.65706 0.31293 0.0
C152 C 0.04851 0.71155 0.28132 0.0
O153 O 0.00585 0.68052 0.32834 0.0
Mg154 Mg 0.3192 0.3405 0.3692 0.0
O155 O 0.30133 0.33632 0.33593 0.0
O156 O 0.27611 0.31526 0.34523 0.0
Mg157 Mg 0.27784 0.30581 0.3834 0.0
C158 C 0.2858 0.3265 0.33053 0.0
C159 C 0.35543 0.36671 0.35836 0.0
O160 O 0.35616 0.36584 0.38265 0.0
O161 O 0.32 0.31678 0.3576 0.0
O162 O 0.29491 0.29627 0.36832 0.0
O163 O 0.3126 0.3586 0.38637 0.0
O164 O 0.29924 0.33111 0.39284 0.0
C165 C 0.30927 0.30111 0.35955 0.0
C166 C 0.3002 0.34563 0.39595 0.0
O167 O 0.34164 0.35721 0.34655 0.0
Mg168 Mg 0.34951 0.02954 0.64016 0.0
O169 O 0.34336 0.04168 0.67354 0.0
O170 O 0.32244 0.04546 0.66021 0.0
Mg171 Mg 0.31483 0.03555 0.62013 0.0
C172 C 0.33301 0.0469 0.6771 0.0
C173 C 0.38005 0.02697 0.65564 0.0
O174 O 0.38388 0.03434 0.63419 0.0
O175 O 0.32617 0.00376 0.64575 0.0
O176 O 0.30587 0.00827 0.63193 0.0
O177 O 0.36718 0.05548 0.62785 0.0
O178 O 0.34054 0.04093 0.61582 0.0
C179 C 0.31075 0.99853 0.64078 0.0
C180 C 0.35456 0.05501 0.61626 0.0
O181 O 0.36598 0.02308 0.66448 0.0
Mg182 Mg 0.98117 0.31356 0.7102 0.0
O183 O 0.96224 0.30245 0.67685 0.0
O184 O 0.93796 0.29886 0.68996 0.0
Mg185 Mg 0.94129 0.30781 0.73064 0.0
C186 C 0.94681 0.29774 0.67298 0.0
C187 C 0.01475 0.31846 0.69609 0.0
O188 O 0.0136 0.31478 0.71969 0.0
O189 O 0.98351 0.33944 0.70543 0.0
O190 O 0.95925 0.33523 0.71949 0.0
O191 O 0.97346 0.28753 0.72148 0.0
O192 O 0.9616 0.30203 0.73444 0.0
C193 C 0.97356 0.34485 0.71065 0.0
C194 C 0.96171 0.28794 0.73352 0.0
O195 O 1.00297 0.31961 0.68547 0.0
Mg196 Mg 0.69979 0.66307 0.64291 0.0
O197 O 0.71814 0.67103 0.67693 0.0
O198 O 0.74244 0.69267 0.66544 0.0
Mg199 Mg 0.73991 0.69832 0.62513 0.0
C200 C 0.73342 0.68229 0.68162 0.0
C201 C 0.66517 0.63454 0.65423 0.0
O202 O 0.66605 0.63299 0.63005 0.0
O203 O 0.69711 0.68642 0.64929 0.0
O204 O 0.72152 0.70706 0.63655 0.0
O205 O 0.70791 0.64511 0.63025 0.0
O206 O 0.71984 0.67181 0.61948 0.0
C207 C 0.70704 0.70199 0.645 0.0
C208 C 0.71984 0.65766 0.61926 0.0
O209 O 0.67751 0.6467 0.66624 0.0
Mg210 Mg 0.33125 0.31805 0.70509 0.0
O211 O 0.33896 0.30675 0.67223 0.0
O212 O 0.36118 0.30559 0.68692 0.0
Mg213 Mg 0.36722 0.31501 0.72736 0.0
C214 C 0.35058 0.30317 0.66945 0.0
C215 C 0.30795 0.33129 0.69184 0.0
O216 O 0.31289 0.33655 0.71504 0.0
O217 O 0.35363 0.34449 0.69972 0.0
O218 O 0.3748 0.34192 0.71512 0.0
O219 O 0.31439 0.29199 0.71751 0.0
O220 O 0.34084 0.30764 0.73009 0.0
C221 C 0.36913 0.35077 0.70542 0.0
C222 C 0.32716 0.29322 0.72976 0.0
O223 O 0.31404 0.32332 0.68056 0.0
Mg224 Mg 0.69858 0.02199 0.64886 0.0
O225 O 0.71711 0.03554 0.68239 0.0
O226 O 0.74139 0.03816 0.67111 0.0
Mg227 Mg 0.73872 0.02671 0.63209 0.0
C228 C 0.73256 0.04054 0.68684 0.0
C229 C 0.66437 0.01691 0.65874 0.0
O230 O 0.66654 0.02031 0.63507 0.0
O231 O 0.69622 0.99658 0.65814 0.0
O232 O 0.72061 1.00013 0.64587 0.0
O233 O 0.70646 0.04718 0.63348 0.0
O234 O 0.7184 0.03198 0.62494 0.0
C235 C 0.70623 0.99097 0.6548 0.0
C236 C 0.71835 0.04603 0.62313 0.0
O237 O 0.67601 0.01665 0.67137 0.0
Mg238 Mg 0.98848 0.68382 0.70637 0.0
O239 O 0.97154 0.67853 0.6713 0.0
O240 O 0.94658 0.65652 0.67961 0.0
Mg241 Mg 0.94775 0.64705 0.71794 0.0
C242 C 0.95625 0.66802 0.66521 0.0
C243 C 0.02108 0.71642 0.69544 0.0
O244 O 0.01634 0.72103 0.71555 0.0
O245 O 0.99154 0.66125 0.69612 0.0
O246 O 0.96668 0.63938 0.70478 0.0
O247 O 0.97942 0.70043 0.722 0.0
O248 O 0.96759 0.67298 0.72814 0.0
C249 C 0.98156 0.64534 0.6974 0.0
C250 C 0.96727 0.68689 0.73082 0.0
O251 O 0.01185 0.70154 0.68598 0.0
H252 H 0.22877 0.33624 0.1247 0.0
H253 H 0.18606 0.32883 0.08131 0.0
H254 H 0.18702 0.33345 0.16157 0.0
H255 H 0.1604 0.31329 0.15532 0.0
H256 H 0.12192 0.32107 0.12467 0.0
H257 H 0.16759 0.33922 0.08636 0.0
C258 C 0.21647 0.33495 0.12393 0.0
C259 C 0.20863 0.33469 0.14595 0.0
C260 C 0.20853 0.33322 0.10075 0.0
C261 C 0.19227 0.33073 0.09936 0.0
C262 C 0.18402 0.33024 0.12136 0.0
C263 C 0.19266 0.33282 0.14447 0.0
C264 C 0.16638 0.32671 0.12082 0.0
C265 C 0.15606 0.31825 0.14069 0.0
C266 C 0.14019 0.31639 0.14236 0.0
C267 C 0.1341 0.32218 0.12328 0.0
C268 C 0.14378 0.33018 0.10297 0.0
C269 C 0.15993 0.33242 0.10163 0.0
H270 H 0.67978 0.90071 0.12459 0.0
H271 H 0.69072 0.86537 0.08807 0.0
H272 H 0.67733 0.85983 0.16532 0.0
H273 H 0.69443 0.84941 0.16727 0.0
H274 H 0.69307 0.80636 0.1314 0.0
H275 H 0.67916 0.83693 0.08938 0.0
C276 C 0.68096 0.88947 0.12524 0.0
C277 C 0.67832 0.88103 0.14747 0.0
C278 C 0.68521 0.88372 0.10382 0.0
C279 C 0.68694 0.86932 0.10463 0.0
C280 C 0.6844 0.86053 0.12687 0.0
C281 C 0.67989 0.86651 0.14817 0.0
C282 C 0.68678 0.84546 0.12802 0.0
C283 C 0.69196 0.84154 0.15058 0.0
C284 C 0.6941 0.82741 0.15191 0.0
C285 C 0.69182 0.81754 0.13033 0.0
C286 C 0.68666 0.82106 0.10775 0.0
C287 C 0.68381 0.83478 0.10672 0.0
H288 H 0.22157 0.89745 0.12395 0.0
H289 H 0.18247 0.8548 0.08296 0.0
H290 H 0.17614 0.86554 0.15969 0.0
H291 H 0.15828 0.839 0.16018 0.0
H292 H 0.11356 0.80453 0.11898 0.0
H293 H 0.15534 0.84111 0.07986 0.0
C294 C 0.20911 0.88644 0.12329 0.0
C295 C 0.19981 0.88196 0.14468 0.0
C296 C 0.20267 0.87692 0.10101 0.0
C297 C 0.18677 0.86236 0.10014 0.0
C298 C 0.17667 0.85788 0.12117 0.0
C299 C 0.18341 0.86817 0.14327 0.0
C300 C 0.15925 0.84273 0.12024 0.0
C301 C 0.15154 0.83494 0.14241 0.0
C302 C 0.13492 0.82169 0.14207 0.0
C303 C 0.12612 0.81538 0.11933 0.0
C304 C 0.13367 0.82199 0.09694 0.0
C305 C 0.15006 0.83583 0.0974 0.0
H306 H 0.33221 0.11158 0.87829 0.0
H307 H 0.32403 0.14605 0.92285 0.0
H308 H 0.33226 0.15351 0.8441 0.0
H309 H 0.31514 0.1638 0.84759 0.0
H310 H 0.31857 0.20576 0.89001 0.0
H311 H 0.33531 0.17449 0.92346 0.0
C312 C 0.33104 0.12282 0.87974 0.0
C313 C 0.33228 0.13182 0.85847 0.0
C314 C 0.32835 0.12808 0.90294 0.0
C315 C 0.3266 0.14247 0.90488 0.0
C316 C 0.32763 0.15175 0.88366 0.0
C317 C 0.33073 0.14634 0.86055 0.0
C318 C 0.3252 0.16681 0.88549 0.0
C319 C 0.31862 0.17124 0.8649 0.0
C320 C 0.31637 0.18533 0.8664 0.0
C321 C 0.31996 0.19464 0.88893 0.0
C322 C 0.3266 0.19065 0.90954 0.0
C323 C 0.32952 0.17698 0.90767 0.0
H324 H 0.78695 0.11377 0.89312 0.0
H325 H 0.83217 0.14751 0.93458 0.0
H326 H 0.82765 0.15308 0.85552 0.0
H327 H 0.85427 0.16068 0.85726 0.0
H328 H 0.89665 0.20261 0.89419 0.0
H329 H 0.85125 0.17576 0.93305 0.0
C330 C 0.79948 0.12467 0.89366 0.0
C331 C 0.80638 0.13272 0.87169 0.0
C332 C 0.80864 0.13014 0.91629 0.0
C333 C 0.82506 0.14388 0.91706 0.0
C334 C 0.83241 0.15223 0.89511 0.0
C335 C 0.82269 0.14666 0.87258 0.0
C336 C 0.85033 0.16614 0.89529 0.0
C337 C 0.85971 0.16879 0.87381 0.0
C338 C 0.87628 0.18202 0.87321 0.0
C339 C 0.88396 0.19208 0.89475 0.0
C340 C 0.8751 0.18971 0.91643 0.0
C341 C 0.85819 0.17698 0.91655 0.0
H342 H 0.78895 0.68705 0.89608 0.0
H343 H 0.82066 0.67369 0.93689 0.0
H344 H 0.83117 0.69025 0.86112 0.0
H345 H 0.84388 0.67624 0.85962 0.0
H346 H 0.88566 0.67971 0.89993 0.0
H347 H 0.84751 0.68206 0.94026 0.0
C348 C 0.80006 0.68589 0.89712 0.0
C349 C 0.8094 0.68858 0.87604 0.0
C350 C 0.8043 0.68088 0.91917 0.0
C351 C 0.81803 0.67824 0.91999 0.0
C352 C 0.82818 0.68155 0.89914 0.0
C353 C 0.82365 0.68697 0.87734 0.0
C354 C 0.84351 0.67974 0.89985 0.0
C355 C 0.85026 0.67787 0.87739 0.0
C356 C 0.86573 0.67863 0.87736 0.0
C357 C 0.87392 0.67967 0.89992 0.0
C358 C 0.86711 0.68035 0.92249 0.0
C359 C 0.85207 0.68065 0.92256 0.0
H360 H 0.89753 0.66884 0.45306 0.0
H361 H 0.85271 0.6587 0.41309 0.0
H362 H 0.85687 0.66636 0.49304 0.0
H363 H 0.82982 0.64571 0.48833 0.0
H364 H 0.79052 0.65272 0.45896 0.0
H365 H 0.83587 0.67152 0.41953 0.0
C366 C 0.885 0.66692 0.45327 0.0
C367 C 0.87817 0.66765 0.47589 0.0
C368 C 0.87593 0.66378 0.43074 0.0
C369 C 0.85979 0.66155 0.43057 0.0
C370 C 0.85262 0.66227 0.45311 0.0
C371 C 0.86211 0.66564 0.47559 0.0
C372 C 0.83509 0.65889 0.45366 0.0
C373 C 0.82515 0.65048 0.47386 0.0
C374 C 0.80914 0.64827 0.47585 0.0
C375 C 0.80277 0.65407 0.45718 0.0
C376 C 0.81227 0.66238 0.43687 0.0
C377 C 0.82839 0.66464 0.43492 0.0
H378 H 0.35169 0.23799 0.46183 0.0
H379 H 0.35611 0.19864 0.4242 0.0
H380 H 0.34935 0.19747 0.50362 0.0
H381 H 0.36585 0.18582 0.50204 0.0
H382 H 0.35911 0.14027 0.46645 0.0
H383 H 0.34215 0.16996 0.42844 0.0
C384 C 0.35227 0.22642 0.46259 0.0
C385 C 0.35083 0.21886 0.48542 0.0
C386 C 0.35395 0.21906 0.44056 0.0
C387 C 0.35427 0.20388 0.4413 0.0
C388 C 0.35282 0.19591 0.46404 0.0
C389 C 0.35078 0.20343 0.48599 0.0
C390 C 0.3541 0.18019 0.46491 0.0
C391 C 0.36135 0.17707 0.48604 0.0
C392 C 0.36316 0.16271 0.48656 0.0
C393 C 0.35808 0.15159 0.46575 0.0
C394 C 0.35061 0.15418 0.44473 0.0
C395 C 0.34838 0.16832 0.4445 0.0
H396 H 0.88856 0.23232 0.46205 0.0
H397 H 0.8515 0.18838 0.4208 0.0
H398 H 0.84372 0.19824 0.49726 0.0
H399 H 0.82693 0.1717 0.49797 0.0
H400 H 0.78353 0.13482 0.45658 0.0
H401 H 0.82458 0.17236 0.41735 0.0
C402 C 0.87643 0.22083 0.46123 0.0
C403 C 0.86705 0.21576 0.48249 0.0
C404 C 0.8706 0.2112 0.43896 0.0
C405 C 0.85523 0.19599 0.43793 0.0
C406 C 0.84498 0.19088 0.45882 0.0
C407 C 0.85108 0.20129 0.48091 0.0
C408 C 0.82811 0.17489 0.45785 0.0
C409 C 0.82047 0.16711 0.48008 0.0
C410 C 0.80422 0.15318 0.47968 0.0
C411 C 0.7958 0.14612 0.4569 0.0
C412 C 0.80338 0.15267 0.43453 0.0
C413 C 0.81934 0.1672 0.43495 0.0
H414 H 0.9941 0.43901 0.21918 0.0
H415 H 1.00306 0.48502 0.25577 0.0
H416 H 0.98789 0.47502 0.17756 0.0
H417 H 1.00152 0.50261 0.17599 0.0
H418 H 0.99822 0.54294 0.2121 0.0
H419 H 0.99134 0.50097 0.25459 0.0
C420 C 0.99399 0.45082 0.21841 0.0
C421 C 0.99096 0.45609 0.19567 0.0
C422 C 0.99791 0.46105 0.24006 0.0
C423 C 0.99911 0.47697 0.23903 0.0
C424 C 0.9954 0.48238 0.21655 0.0
C425 C 0.99116 0.47158 0.19501 0.0
C426 C 0.99619 0.49924 0.21543 0.0
C427 C 0.99919 0.50773 0.19276 0.0
C428 C 0.99971 0.52331 0.1916 0.0
C429 C 0.99756 0.53074 0.21307 0.0
C430 C 0.99476 0.52282 0.23578 0.0
C431 C 0.99399 0.50707 0.23695 0.0
H432 H 0.44871 0.45646 0.21826 0.0
H433 H 0.49424 0.48699 0.26108 0.0
H434 H 0.49286 0.49041 0.18103 0.0
H435 H 0.51888 0.49594 0.18578 0.0
H436 H 0.56124 0.5384 0.22207 0.0
H437 H 0.51459 0.51481 0.25818 0.0
C438 C 0.46176 0.46629 0.21907 0.0
C439 C 0.46993 0.47265 0.197 0.0
C440 C 0.4704 0.47163 0.24215 0.0
C441 C 0.48758 0.48346 0.24319 0.0
C442 C 0.49604 0.49053 0.22124 0.0
C443 C 0.48691 0.48506 0.19821 0.0
C444 C 0.51432 0.50336 0.22214 0.0
C445 C 0.52421 0.50462 0.20179 0.0
C446 C 0.54101 0.51738 0.20145 0.0
C447 C 0.54839 0.52818 0.22246 0.0
C448 C 0.53901 0.52713 0.24307 0.0
C449 C 0.52192 0.51494 0.2427 0.0
H450 H 0.45097 0.0103 0.22017 0.0
H451 H 0.48899 0.00635 0.26042 0.0
H452 H 0.49516 0.02099 0.18331 0.0
H453 H 0.51412 0.01515 0.18182 0.0
H454 H 0.55728 0.0225 0.22215 0.0
H455 H 0.515 0.01478 0.26264 0.0
C456 C 0.46325 0.01154 0.22064 0.0
C457 C 0.47231 0.01531 0.1991 0.0
C458 C 0.46952 0.00874 0.24271 0.0
C459 C 0.48495 0.00929 0.24323 0.0
C460 C 0.49482 0.0137 0.22188 0.0
C461 C 0.48818 0.01691 0.19998 0.0
C462 C 0.51195 0.01533 0.22226 0.0
C463 C 0.52017 0.01661 0.19977 0.0
C464 C 0.53666 0.01998 0.19987 0.0
C465 C 0.5448 0.02077 0.22233 0.0
C466 C 0.53678 0.01832 0.2448 0.0
C467 C 0.52053 0.01592 0.24484 0.0
H468 H 0.56536 0.00647 0.78805 0.0
H469 H 0.52129 0.99677 0.74658 0.0
H470 H 0.52409 0.00339 0.8268 0.0
H471 H 0.49744 0.98456 0.82257 0.0
H472 H 0.45664 0.98654 0.78774 0.0
H473 H 0.50289 0.0066 0.7505 0.0
C474 C 0.55284 0.00462 0.78784 0.0
C475 C 0.5455 0.00467 0.81024 0.0
C476 C 0.54423 1.00194 0.76503 0.0
C477 C 0.52803 0.99953 0.76434 0.0
C478 C 0.52038 0.99987 0.78664 0.0
C479 C 0.52952 1.00289 0.80945 0.0
C480 C 0.50263 0.99609 0.78647 0.0
C481 C 0.49262 0.98826 0.80692 0.0
C482 C 0.47617 0.98498 0.80752 0.0
C483 C 0.46926 0.98871 0.78701 0.0
C484 C 0.4787 0.99624 0.76627 0.0
C485 C 0.49549 1.00023 0.76621 0.0
H486 H 0.00798 0.56514 0.79876 0.0
H487 H 0.01468 0.52852 0.7572 0.0
H488 H 0.00755 0.5241 0.83648 0.0
H489 H 0.02441 0.51333 0.83379 0.0
H490 H 0.01951 0.4696 0.79459 0.0
H491 H 1.00262 0.49998 0.75883 0.0
C492 C 0.00883 0.5537 0.79826 0.0
C493 C 0.00776 0.54546 0.82032 0.0
C494 C 0.01105 0.54747 0.77552 0.0
C495 C 0.01242 0.53284 0.77482 0.0
C496 C 0.01149 0.52427 0.79679 0.0
C497 C 0.00891 0.53067 0.81944 0.0
C498 C 0.01359 0.50901 0.79617 0.0
C499 C 0.0205 0.50525 0.81707 0.0
C500 C 0.02253 0.49101 0.81666 0.0
C501 C 0.01834 0.48086 0.79486 0.0
C502 C 0.01137 0.48417 0.77399 0.0
C503 C 0.00867 0.49801 0.77479 0.0
H504 H 0.56644 0.55594 0.79245 0.0
H505 H 0.52409 0.51708 0.75094 0.0
H506 H 0.51954 0.53094 0.82692 0.0
H507 H 0.49931 0.50585 0.82879 0.0
H508 H 0.45398 0.47229 0.78858 0.0
H509 H 0.49726 0.50409 0.74803 0.0
C510 C 0.55334 0.54625 0.79159 0.0
C511 C 0.54385 0.54376 0.81247 0.0
C512 C 0.54611 0.53698 0.76931 0.0
C513 C 0.5291 0.52451 0.76811 0.0
C514 C 0.51906 0.52159 0.789 0.0
C515 C 0.52669 0.53196 0.81083 0.0
C516 C 0.50091 0.50777 0.78847 0.0
C517 C 0.49269 0.50155 0.81099 0.0
C518 C 0.4757 0.48935 0.81103 0.0
C519 C 0.46687 0.48246 0.78847 0.0
C520 C 0.47479 0.48735 0.76588 0.0
C521 C 0.49165 0.50022 0.76583 0.0
H522 H 0.66812 0.7792 0.55453 0.0
H523 H 0.67302 0.82244 0.59482 0.0
H524 H 0.65363 0.81153 0.51855 0.0
H525 H 0.66531 0.83918 0.51747 0.0
H526 H 0.6569 0.87507 0.55741 0.0
H527 H 0.6587 0.83585 0.59709 0.0
C528 C 0.66635 0.79009 0.55502 0.0
C529 C 0.66087 0.79452 0.53355 0.0
C530 C 0.67021 0.79986 0.57712 0.0
C531 C 0.66916 0.81467 0.57781 0.0
C532 C 0.66329 0.81933 0.55664 0.0
C533 C 0.65886 0.80882 0.53477 0.0
C534 C 0.66181 0.83501 0.55712 0.0
C535 C 0.66274 0.84341 0.5349 0.0
C536 C 0.66035 0.85742 0.53486 0.0
C537 C 0.6579 0.86371 0.5573 0.0
C538 C 0.65775 0.85625 0.57977 0.0
C539 C 0.65945 0.84178 0.57963 0.0
H540 H 0.12207 0.77913 0.54914 0.0
H541 H 0.1646 0.81565 0.59334 0.0
H542 H 0.16249 0.82024 0.51366 0.0
H543 H 0.18936 0.82948 0.51777 0.0
H544 H 0.22904 0.87307 0.55622 0.0
H545 H 0.18267 0.84407 0.59197 0.0
C546 C 0.13418 0.79061 0.55032 0.0
C547 C 0.14152 0.79883 0.52862 0.0
C548 C 0.1423 0.79686 0.57361 0.0
C549 C 0.15823 0.8114 0.57528 0.0
C550 C 0.16607 0.81985 0.55365 0.0
C551 C 0.15725 0.81363 0.53047 0.0
C552 C 0.18361 0.83459 0.55486 0.0
C553 C 0.19385 0.83776 0.53428 0.0
C554 C 0.21006 0.85173 0.53451 0.0
C555 C 0.21661 0.86203 0.55611 0.0
C556 C 0.2069 0.85917 0.57694 0.0
C557 C 0.19028 0.84569 0.57615 0.0
H558 H 0.11508 0.33714 0.55238 0.0
H559 H 0.15188 0.33331 0.59681 0.0
H560 H 0.16322 0.35372 0.52341 0.0
H561 H 0.17813 0.34147 0.52184 0.0
H562 H 0.22058 0.34848 0.56476 0.0
H563 H 0.17952 0.34672 0.60234 0.0
C564 C 0.12759 0.33908 0.55458 0.0
C565 C 0.13847 0.34537 0.53498 0.0
C566 C 0.13255 0.3352 0.57707 0.0
C567 C 0.14855 0.33709 0.57972 0.0
C568 C 0.15978 0.34324 0.56011 0.0
C569 C 0.15465 0.34793 0.53819 0.0
C570 C 0.17658 0.34445 0.56184 0.0
C571 C 0.18438 0.34366 0.53988 0.0
C572 C 0.20044 0.34576 0.54081 0.0
C573 C 0.20843 0.34755 0.56387 0.0
C574 C 0.20072 0.34743 0.58591 0.0
C575 C 0.18498 0.34621 0.58502 0.0
C576 C 1.00101 0.389 0.05004 0.0
C577 C 0.99595 0.39073 0.026 0.0
C578 C 1.00014 0.39848 0.07027 0.0
C579 C 0.99439 0.40999 0.06669 0.0
C580 C 0.98966 0.41188 0.04264 0.0
C581 C 0.99027 0.40228 0.0226 0.0
C582 C 0.99369 0.42071 0.08728 0.0
C583 C 0.99059 0.41573 0.11085 0.0
C584 C 0.98953 0.42639 0.13128 0.0
C585 C 0.98027 0.41846 0.15205 0.0
C586 C 0.97991 0.42807 0.17238 0.0
C587 C 0.98902 0.4459 0.17255 0.0
H588 H 0.00583 0.45087 0.1157 0.0
C589 C 0.99789 0.45386 0.15144 0.0
C590 C 0.9982 0.44424 0.13105 0.0
H591 H 0.0053 0.46755 0.15117 0.0
H592 H 0.00552 0.38028 0.05323 0.0
H593 H 1.00427 0.39703 0.08854 0.0
H594 H 0.98534 0.42076 0.03932 0.0
H595 H 0.98646 0.40411 0.00431 0.0
H596 H 0.99468 0.43266 0.08237 0.0
H597 H 0.98798 0.40308 0.11519 0.0
H598 H 0.97345 0.40476 0.15272 0.0
H599 H 0.97282 0.42154 0.18826 0.0
C600 C 0.61506 0.59206 0.07291 0.0
C601 C 0.6141 0.60696 0.07479 0.0
C602 C 0.60315 0.57724 0.08375 0.0
C603 C 0.59003 0.57705 0.0967 0.0
C604 C 0.58883 0.5918 0.09792 0.0
C605 C 0.60079 0.60662 0.08728 0.0
C606 C 0.57761 0.56201 0.10977 0.0
C607 C 0.58091 0.55044 0.11942 0.0
C608 C 0.56979 0.53824 0.13758 0.0
C609 C 0.57698 0.53486 0.15827 0.0
C610 C 0.5673 0.52663 0.17844 0.0
C611 C 0.55022 0.52146 0.17807 0.0
H612 H 0.54641 0.53335 0.11999 0.0
C613 C 0.5427 0.52315 0.15619 0.0
C614 C 0.5524 0.53146 0.1361 0.0
H615 H 0.52957 0.51928 0.1553 0.0
H616 H 0.62509 0.59187 0.06322 0.0
H617 H 0.60424 0.566 0.08188 0.0
H618 H 0.57883 0.59199 0.10773 0.0
H619 H 0.5997 0.61785 0.0892 0.0
H620 H 0.56607 0.56168 0.11429 0.0
H621 H 0.59307 0.55164 0.11717 0.0
H622 H 0.59032 0.53972 0.15966 0.0
H623 H 0.57336 0.52526 0.19494 0.0
C624 C 0.3986 0.00473 0.05046 0.0
C625 C 0.40286 0.01872 0.03569 0.0
C626 C 0.40779 0.00662 0.07246 0.0
C627 C 0.42126 0.02259 0.08021 0.0
C628 C 0.42496 0.03669 0.06609 0.0
C629 C 0.416 0.03475 0.04388 0.0
C630 C 0.43162 0.02491 0.10293 0.0
C631 C 0.43566 0.01327 0.10968 0.0
C632 C 0.4463 0.01539 0.13204 0.0
C633 C 0.45518 0.00664 0.13264 0.0
C634 C 0.46436 0.00734 0.15403 0.0
C635 C 0.46462 0.01661 0.17541 0.0
H636 H 0.44004 0.03174 0.15368 0.0
C637 C 0.45606 0.0257 0.17466 0.0
C638 C 0.44699 0.02511 0.15321 0.0
H639 H 0.45606 0.03294 0.1909 0.0
H640 H 0.38852 0.99224 0.04463 0.0
H641 H 0.40437 0.99559 0.08335 0.0
H642 H 0.43514 0.04915 0.07186 0.0
H643 H 0.41947 0.0458 0.03299 0.0
H644 H 0.43702 0.03701 0.11319 0.0
H645 H 0.43158 1.00197 0.09779 0.0
H646 H 0.45478 0.999 0.11663 0.0
H647 H 0.47065 1.00003 0.1542 0.0
C648 C 0.39793 0.97505 0.9394 0.0
C649 C 0.39666 0.98977 0.93869 0.0
C650 C 0.41094 0.97434 0.92779 0.0
C651 C 0.42296 0.98838 0.91528 0.0
C652 C 0.422 1.00325 0.91534 0.0
C653 C 0.40892 0.00391 0.92672 0.0
C654 C 0.43634 0.98789 0.90126 0.0
C655 C 0.43442 0.97368 0.88985 0.0
C656 C 0.44613 0.97436 0.87098 0.0
C657 C 0.43963 0.96395 0.84932 0.0
C658 C 0.44973 0.96657 0.82909 0.0
C659 C 0.46657 0.97942 0.83041 0.0
H660 H 0.46878 0.99412 0.88984 0.0
C661 C 0.47347 0.98872 0.85293 0.0
C662 C 0.46332 0.98624 0.87307 0.0
H663 H 0.48643 0.9987 0.85442 0.0
H664 H 0.38876 0.96397 0.94866 0.0
H665 H 0.41154 0.96281 0.92867 0.0
H666 H 0.43113 0.01427 0.9059 0.0
H667 H 0.40833 0.01542 0.92574 0.0
H668 H 0.44723 1.00001 0.89755 0.0
H669 H 0.42281 0.96178 0.89136 0.0
H670 H 0.42647 0.95458 0.8474 0.0
H671 H 0.44418 0.95914 0.81197 0.0
C672 C 0.01355 0.40237 0.9223 0.0
C673 C 0.02606 0.40126 0.93587 0.0
C674 C 0.01711 0.41735 0.91086 0.0
C675 C 0.03334 0.4315 0.91252 0.0
C676 C 0.04593 0.43031 0.92561 0.0
C677 C 0.04231 0.41541 0.9374 0.0
C678 C 0.03758 0.44708 0.89906 0.0
C679 C 0.02662 0.45253 0.89569 0.0
C680 C 0.02891 0.46581 0.87815 0.0
C681 C 0.01862 0.473 0.87993 0.0
C682 C 0.01775 0.48269 0.86086 0.0
C683 C 0.02702 0.48521 0.83951 0.0
H684 H 0.04719 0.46413 0.85532 0.0
C685 C 0.03832 0.4792 0.83859 0.0
C686 C 0.03926 0.46958 0.8577 0.0
H687 H 0.04562 0.481 0.82231 0.0
H688 H 1.00101 0.39168 0.92028 0.0
H689 H 0.00723 0.41762 0.90013 0.0
H690 H 0.05859 0.44095 0.92679 0.0
H691 H 0.05229 0.41495 0.94757 0.0
H692 H 0.04995 0.45401 0.89162 0.0
H693 H 0.01496 0.44639 0.90534 0.0
H694 H 0.0105 0.47028 0.89544 0.0
H695 H 0.00882 0.48705 0.86194 0.0
C696 C 0.61209 0.61889 0.96196 0.0
C697 C 0.60444 0.62481 0.97851 0.0
C698 C 0.60372 0.61005 0.93982 0.0
C699 C 0.58755 0.60703 0.93378 0.0
C700 C 0.58031 0.61369 0.94971 0.0
C701 C 0.58857 0.62235 0.97191 0.0
C702 C 0.57786 0.59699 0.91114 0.0
C703 C 0.57941 0.58418 0.9012 0.0
C704 C 0.5696 0.57363 0.87891 0.0
C705 C 0.57592 0.56486 0.86548 0.0
C706 C 0.56739 0.55498 0.84423 0.0
C707 C 0.5522 0.5535 0.83596 0.0
H708 H 0.54851 0.57786 0.88132 0.0
C709 C 0.54552 0.56181 0.84978 0.0
C710 C 0.55413 0.57179 0.87107 0.0
H711 H 0.53382 0.56086 0.84386 0.0
H712 H 0.62434 0.62067 0.9664 0.0
H713 H 0.60995 0.60562 0.92754 0.0
H714 H 0.56798 0.61176 0.94534 0.0
H715 H 0.58238 0.62691 0.98409 0.0
H716 H 0.56876 0.5999 0.9032 0.0
H717 H 0.58846 0.58131 0.90952 0.0
H718 H 0.58766 0.56583 0.87125 0.0
H719 H 0.57271 0.5485 0.83418 0.0
C720 C 0.0237 0.62233 0.96809 0.0
C721 C 0.01205 0.62732 0.97421 0.0
C722 C 0.02082 0.61147 0.94754 0.0
C723 C 0.00617 0.60525 0.93254 0.0
C724 C 0.99482 0.61074 0.93799 0.0
C725 C 0.99765 0.62157 0.95871 0.0
C726 C 1.00278 0.59356 0.91065 0.0
C727 C 0.00831 0.58238 0.90966 0.0
C728 C 0.00654 0.57151 0.88736 0.0
C729 C 0.01666 0.56408 0.8863 0.0
C730 C 0.01651 0.55492 0.86498 0.0
C731 C 0.00618 0.55296 0.84422 0.0
H732 H 0.98699 0.57356 0.86726 0.0
C733 C 0.99537 0.55956 0.84574 0.0
C734 C 0.99549 0.56869 0.86705 0.0
H735 H 0.98699 0.55792 0.8302 0.0
H736 H 0.03503 0.62661 0.97938 0.0
H737 H 0.03021 0.60812 0.94338 0.0
H738 H 0.98357 0.60637 0.92647 0.0
H739 H 0.98844 0.6252 0.96279 0.0
H740 H 0.99557 0.59436 0.89517 0.0
H741 H 0.01514 0.58156 0.92573 0.0
H742 H 0.02517 0.56585 0.90172 0.0
H743 H 0.02504 0.55005 0.86436 0.0
C744 C 0.39961 0.41487 0.94096 0.0
C745 C 0.39766 0.39858 0.93904 0.0
C746 C 0.41274 0.42844 0.92949 0.0
C747 C 0.42408 0.42594 0.91557 0.0
C748 C 0.4224 0.40976 0.91438 0.0
C749 C 0.40931 0.39621 0.92592 0.0
C750 C 0.43742 0.43958 0.90132 0.0
C751 C 0.43668 0.45309 0.89335 0.0
C752 C 0.44808 0.46454 0.87472 0.0
C753 C 0.44193 0.47186 0.85798 0.0
C754 C 0.45131 0.48069 0.83796 0.0
C755 C 0.46714 0.4826 0.83449 0.0
H756 H 0.46979 0.46252 0.88533 0.0
C757 C 0.47386 0.47643 0.85227 0.0
C758 C 0.46442 0.46747 0.87226 0.0
H759 H 0.48606 0.47778 0.85004 0.0
H760 H 0.39097 0.41715 0.9513 0.0
H761 H 0.41389 0.44081 0.93164 0.0
H762 H 0.43099 0.40746 0.90393 0.0
H763 H 0.40817 0.38382 0.9241 0.0
H764 H 0.44721 0.43735 0.89483 0.0
H765 H 0.42612 0.4546 0.8979 0.0
H766 H 0.42949 0.46999 0.85964 0.0
H767 H 0.44594 0.48553 0.82465 0.0
C768 C 0.59524 0.98951 0.96935 0.0
C769 C 0.61251 0.99585 0.97251 0.0
C770 C 0.58866 0.99256 0.94783 0.0
C771 C 0.59919 1.00195 0.92886 0.0
C772 C 0.61641 0.00813 0.93184 0.0
C773 C 0.62306 0.00529 0.95359 0.0
C774 C 0.59234 0.00434 0.90513 0.0
C775 C 0.57837 0.00544 0.90359 0.0
C776 C 0.57054 0.0058 0.87946 0.0
C777 C 0.56148 0.01435 0.87788 0.0
C778 C 0.55348 0.01423 0.85542 0.0
C779 C 0.55415 0.00529 0.83424 0.0
H780 H 0.57739 0.98949 0.85916 0.0
C781 C 0.56295 0.99646 0.83613 0.0
C782 C 0.5711 0.99677 0.85837 0.0
H783 H 0.56328 0.98894 0.82051 0.0
H784 H 0.58676 0.98221 0.98359 0.0
H785 H 0.57527 0.98718 0.94586 0.0
H786 H 0.62475 0.0152 0.91732 0.0
H787 H 0.6364 0.0103 0.95543 0.0
H788 H 0.59912 0.00534 0.88844 0.0
H789 H 0.57252 0.00621 0.92047 0.0
H790 H 0.5607 0.02122 0.894 0.0
H791 H 0.54687 0.02122 0.85465 0.0
C792 C 0.61582 0.02428 0.07225 0.0
C793 C 0.61719 0.00964 0.073 0.0
C794 C 0.60242 0.02467 0.08308 0.0
C795 C 0.59022 0.01045 0.09515 0.0
C796 C 0.59142 0.99571 0.09527 0.0
C797 C 0.60476 0.99531 0.08441 0.0
C798 C 0.57645 0.01054 0.10868 0.0
C799 C 0.57717 0.02478 0.1178 0.0
C800 C 0.56539 0.02444 0.13632 0.0
C801 C 0.57142 0.03752 0.15469 0.0
C802 C 0.56169 0.03643 0.17473 0.0
C803 C 0.54563 0.02235 0.17658 0.0
H804 H 0.54361 1.00088 0.12292 0.0
C805 C 0.53903 0.00989 0.15725 0.0
C806 C 0.54884 0.01091 0.13723 0.0
H807 H 0.52663 0.99896 0.15825 0.0
H808 H 0.62507 0.03544 0.06324 0.0
H809 H 0.60172 0.03611 0.08184 0.0
H810 H 0.5822 0.98455 0.10434 0.0
H811 H 0.60545 0.98383 0.08534 0.0
H812 H 0.56629 0.99832 0.11383 0.0
H813 H 0.588 0.03703 0.1146 0.0
H814 H 0.58403 0.04818 0.15427 0.0
H815 H 0.56695 0.0463 0.18931 0.0
C816 C 0.99071 0.60133 0.07571 0.0
C817 C 1.00359 0.61834 0.07587 0.0
C818 C 0.99305 0.58921 0.0878 0.0
C819 C 0.00835 0.59391 0.10035 0.0
C820 C 0.02121 0.61088 0.10027 0.0
C821 C 0.01892 0.62294 0.08806 0.0
C822 C 0.01089 0.58199 0.11567 0.0
C823 C 1.00235 0.56497 0.11202 0.0
C824 C 1.00346 0.55327 0.12982 0.0
C825 C 0.98988 0.53667 0.13096 0.0
C826 C 0.98925 0.5262 0.15001 0.0
C827 C 1.00224 0.53217 0.16814 0.0
H828 H 0.02823 0.57089 0.14592 0.0
C829 C 0.01641 0.54818 0.16592 0.0
C830 C 0.01714 0.55856 0.14677 0.0
H831 H 0.02659 0.55296 0.17973 0.0
H832 H 0.97874 0.59741 0.06652 0.0
H833 H 0.98266 0.57637 0.08801 0.0
H834 H 0.03305 0.6149 0.11001 0.0
H835 H 0.02906 0.63596 0.08872 0.0
H836 H 0.0199 0.5877 0.13114 0.0
H837 H 0.99332 0.55932 0.09653 0.0
H838 H 0.97927 0.53214 0.11797 0.0
H839 H 0.97814 0.51391 0.15155 0.0
C840 C 0.39733 0.39557 0.05208 0.0
C841 C 0.40419 0.38739 0.03833 0.0
C842 C 0.40624 0.4064 0.07256 0.0
C843 C 0.42218 0.40919 0.07971 0.0
C844 C 0.42861 0.40039 0.06662 0.0
C845 C 0.41981 0.38972 0.04613 0.0
C846 C 0.43255 0.42097 0.10068 0.0
C847 C 0.43079 0.43385 0.10985 0.0
C848 C 0.44164 0.44536 0.13068 0.0
C849 C 0.43494 0.45198 0.14773 0.0
C850 C 0.4444 0.46161 0.16872 0.0
C851 C 0.46086 0.46503 0.17284 0.0
H852 H 0.46424 0.44529 0.12075 0.0
C853 C 0.46795 0.45938 0.1549 0.0
C854 C 0.45845 0.44963 0.13403 0.0
H855 H 0.4806 0.4618 0.15758 0.0
H856 H 0.38529 0.394 0.04662 0.0
H857 H 0.40056 0.41248 0.08263 0.0
H858 H 0.44074 0.40209 0.07188 0.0
H859 H 0.42543 0.38351 0.03613 0.0
H860 H 0.4424 0.41911 0.1085 0.0
H861 H 0.42085 0.43577 0.10267 0.0
H862 H 0.42213 0.44913 0.14535 0.0
H863 H 0.43868 0.46598 0.18212 0.0
C864 C 0.65194 0.72757 0.37449 0.0
C865 C 0.66244 0.72055 0.37322 0.0
C866 C 0.6508 0.73518 0.39657 0.0
C867 C 0.66014 0.73601 0.418 0.0
C868 C 0.67021 0.72853 0.41706 0.0
C869 C 0.67146 0.72099 0.39484 0.0
C870 C 0.65942 0.7444 0.44156 0.0
C871 C 0.65683 0.75771 0.44203 0.0
C872 C 0.6568 0.76665 0.46541 0.0
C873 C 0.66246 0.78409 0.46528 0.0
C874 C 0.66331 0.79305 0.48721 0.0
C875 C 0.6582 0.78469 0.50971 0.0
H876 H 0.64605 0.74457 0.48816 0.0
C877 C 0.65169 0.76703 0.50948 0.0
C878 C 0.65107 0.75812 0.48762 0.0
H879 H 0.64721 0.76007 0.52628 0.0
H880 H 0.64466 0.72736 0.35833 0.0
H881 H 0.64247 0.74028 0.39679 0.0
H882 H 0.67739 0.72883 0.43342 0.0
H883 H 0.67958 0.71562 0.39459 0.0
H884 H 0.66213 0.74019 0.45885 0.0
H885 H 0.65588 0.76305 0.42467 0.0
H886 H 0.66677 0.79091 0.44831 0.0
H887 H 0.66853 0.80664 0.48665 0.0
C888 C 0.28294 0.92685 0.40386 0.0
C889 C 0.28245 0.94201 0.40541 0.0
C890 C 0.27104 0.91242 0.41543 0.0
C891 C 0.25842 0.91287 0.42887 0.0
C892 C 0.25758 0.92783 0.42966 0.0
C893 C 0.26954 0.94229 0.41821 0.0
C894 C 0.24621 0.89824 0.44287 0.0
C895 C 0.24971 0.88692 0.45289 0.0
C896 C 0.23883 0.87484 0.47131 0.0
C897 C 0.24627 0.87162 0.49186 0.0
C898 C 0.2367 0.86294 0.51187 0.0
C899 C 0.21948 0.85709 0.51142 0.0
H900 H 0.21524 0.86953 0.45395 0.0
C901 C 0.2118 0.85888 0.48982 0.0
C902 C 0.2214 0.8677 0.46992 0.0
H903 H 0.19855 0.8545 0.48897 0.0
H904 H 0.29263 0.92616 0.3939 0.0
H905 H 0.27179 0.90097 0.4138 0.0
H906 H 0.24792 0.92848 0.43978 0.0
H907 H 0.2688 0.95375 0.41978 0.0
H908 H 0.23474 0.89801 0.44756 0.0
H909 H 0.26186 0.88812 0.45044 0.0
H910 H 0.25966 0.87679 0.49318 0.0
H911 H 0.24288 0.86156 0.52822 0.0
C912 C 0.08818 0.35607 0.37136 0.0
C913 C 0.0707 0.3463 0.36814 0.0
C914 C 0.09608 0.35691 0.39414 0.0
C915 C 0.08669 0.34793 0.41431 0.0
C916 C 0.06922 0.33849 0.41135 0.0
C917 C 0.06128 0.33758 0.38846 0.0
C918 C 0.09479 0.34844 0.43869 0.0
C919 C 0.11033 0.35075 0.44093 0.0
C920 C 0.11817 0.35052 0.46512 0.0
C921 C 0.12963 0.34472 0.46568 0.0
C922 C 0.13662 0.34353 0.48827 0.0
C923 C 0.1325 0.3484 0.5108 0.0
H924 H 0.10627 0.36121 0.48764 0.0
C925 C 0.12168 0.35505 0.51007 0.0
C926 C 0.11456 0.35606 0.4875 0.0
H927 H 0.11858 0.35934 0.52699 0.0
H928 H 0.09587 0.36311 0.35624 0.0
H929 H 0.10952 0.3648 0.39591 0.0
H930 H 0.06168 0.33159 0.42669 0.0
H931 H 0.0478 0.33003 0.3867 0.0
H932 H 0.08732 0.3458 0.45504 0.0
H933 H 0.11714 0.35162 0.42435 0.0
H934 H 0.13276 0.34056 0.44865 0.0
H935 H 0.14479 0.33823 0.48813 0.0
C936 C 0.06983 0.32621 0.25953 0.0
C937 C 0.05523 0.31394 0.27036 0.0
C938 C 0.0801 0.32153 0.24724 0.0
C939 C 0.07592 0.30443 0.2453 0.0
C940 C 0.06131 0.29214 0.25601 0.0
C941 C 0.05115 0.29686 0.26869 0.0
C942 C 0.08571 0.29912 0.22992 0.0
C943 C 0.10226 0.30911 0.22768 0.0
C944 C 0.11178 0.30699 0.20745 0.0
C945 C 0.12929 0.31647 0.20926 0.0
C946 C 0.13871 0.31825 0.18847 0.0
C947 C 0.13076 0.31067 0.1654 0.0
H948 H 0.09049 0.29085 0.18249 0.0
C949 C 0.11336 0.29996 0.16409 0.0
C950 C 0.10393 0.29813 0.18488 0.0
H951 H 0.10695 0.29389 0.14653 0.0
H952 H 0.07324 0.3394 0.2601 0.0
H953 H 0.09096 0.33128 0.23841 0.0
H954 H 0.05769 0.27886 0.2544 0.0
H955 H 0.03992 0.28707 0.2767 0.0
H956 H 0.07893 0.28709 0.21951 0.0
H957 H 0.109 0.32025 0.24008 0.0
H958 H 0.13566 0.32344 0.22637 0.0
H959 H 0.15211 0.32668 0.19 0.0
C960 C 0.68134 0.74085 0.26688 0.0
C961 C 0.69404 0.7402 0.28067 0.0
C962 C 0.68455 0.75564 0.25516 0.0
C963 C 0.7006 0.77011 0.2569 0.0
C964 C 0.71326 0.76949 0.27077 0.0
C965 C 0.70999 0.75475 0.28271 0.0
C966 C 0.70486 0.78532 0.24239 0.0
C967 C 0.69359 0.78988 0.23585 0.0
C968 C 0.69656 0.8027 0.21707 0.0
C969 C 0.68583 0.80939 0.2157 0.0
C970 C 0.68605 0.81882 0.19546 0.0
C971 C 0.69689 0.82154 0.17603 0.0
H972 H 0.71659 0.80144 0.19847 0.0
C973 C 0.70844 0.8159 0.17822 0.0
C974 C 0.70829 0.80656 0.19848 0.0
H975 H 0.71693 0.81785 0.16347 0.0
H976 H 0.66899 0.72984 0.26465 0.0
H977 H 0.67461 0.75544 0.24395 0.0
H978 H 0.72577 0.78037 0.27214 0.0
H979 H 0.7201 0.75468 0.29312 0.0
H980 H 0.71764 0.79272 0.2366 0.0
H981 H 0.68132 0.78343 0.24375 0.0
H982 H 0.67664 0.80657 0.22968 0.0
H983 H 0.67689 0.82288 0.19412 0.0
C984 C 0.25659 0.95431 0.30257 0.0
C985 C 0.27328 0.95881 0.30793 0.0
C986 C 0.24847 0.94568 0.28027 0.0
C987 C 0.25681 0.94119 0.2628 0.0
C988 C 0.27366 0.94623 0.26775 0.0
C989 C 0.28181 0.9549 0.29008 0.0
C990 C 0.24848 0.93138 0.23925 0.0
C991 C 0.23178 0.92141 0.23578 0.0
C992 C 0.2237 0.9111 0.21251 0.0
C993 C 0.20709 0.90645 0.20622 0.0
C994 C 0.19915 0.89682 0.18438 0.0
C995 C 0.20767 0.89156 0.16849 0.0
H996 H 0.24451 0.90797 0.20161 0.0
C997 C 0.22409 0.89576 0.17522 0.0
C998 C 0.232 0.90536 0.19695 0.0
H999 H 0.23083 0.8915 0.1637 0.0
H1000 H 0.24968 0.95733 0.31571 0.0
H1001 H 0.23571 0.94268 0.27689 0.0
H1002 H 0.28047 0.94313 0.25451 0.0
H1003 H 0.29468 0.95822 0.29352 0.0
H1004 H 0.2566 0.93214 0.22448 0.0
H1005 H 0.22356 0.92067 0.25034 0.0
H1006 H 0.20032 0.91051 0.21805 0.0
H1007 H 0.1865 0.89379 0.17969 0.0
C1008 C 0.66955 0.95168 0.28967 0.0
C1009 C 0.68347 0.95944 0.30638 0.0
C1010 C 0.66926 0.94167 0.26926 0.0
C1011 C 0.68293 0.93925 0.26517 0.0
C1012 C 0.69705 0.94763 0.28131 0.0
C1013 C 0.69731 0.95752 0.30165 0.0
C1014 C 0.68327 0.92823 0.24455 0.0
C1015 C 0.66982 0.91673 0.23078 0.0
C1016 C 0.67112 0.90612 0.21054 0.0
C1017 C 0.66075 0.90191 0.18907 0.0
C1018 C 0.66261 0.89313 0.16891 0.0
C1019 C 0.67467 0.88808 0.17003 0.0
H1020 H 0.69041 0.90282 0.22878 0.0
C1021 C 0.68434 0.89134 0.19209 0.0
C1022 C 0.68261 0.90031 0.21215 0.0
H1023 H 0.69372 0.88758 0.19345 0.0
H1024 H 0.6587 0.95294 0.29273 0.0
H1025 H 0.65828 0.93587 0.25696 0.0
H1026 H 0.70786 0.94622 0.27854 0.0
H1027 H 0.70832 0.96341 0.31397 0.0
H1028 H 0.69534 0.92956 0.24081 0.0
H1029 H 0.65766 0.9154 0.23346 0.0
H1030 H 0.65162 0.906 0.1875 0.0
H1031 H 0.65488 0.89062 0.15219 0.0
C1032 C 0.07415 0.72519 0.25629 0.0
C1033 C 0.06198 0.72653 0.26966 0.0
C1034 C 0.08653 0.7392 0.24452 0.0
C1035 C 0.087 0.75483 0.24573 0.0
C1036 C 0.07517 0.75633 0.25993 0.0
C1037 C 0.06274 0.74228 0.27161 0.0
C1038 C 0.09963 0.76895 0.23124 0.0
C1039 C 0.09778 0.7819 0.22359 0.0
C1040 C 0.10857 0.79395 0.20498 0.0
C1041 C 0.10158 0.80095 0.18914 0.0
C1042 C 0.11048 0.81061 0.16936 0.0
C1043 C 0.12666 0.81368 0.16519 0.0
H1044 H 0.13119 0.79324 0.21414 0.0
C1045 C 0.13415 0.80772 0.18202 0.0
C1046 C 0.12519 0.79792 0.20178 0.0
H1047 H 0.14664 0.80998 0.17925 0.0
H1048 H 0.07393 0.71323 0.25445 0.0
H1049 H 0.09552 0.73767 0.23387 0.0
H1050 H 0.0754 0.76826 0.26214 0.0
H1051 H 0.05369 0.74378 0.28214 0.0
H1052 H 0.10985 0.76757 0.22441 0.0
H1053 H 0.08681 0.78254 0.22856 0.0
H1054 H 0.0889 0.79829 0.19137 0.0
H1055 H 0.10451 0.81527 0.15682 0.0
C1056 C 0.26136 0.31825 0.30116 0.0
C1057 C 0.27851 0.32865 0.30704 0.0
C1058 C 0.25418 0.3207 0.27976 0.0
C1059 C 0.26397 0.33371 0.26372 0.0
C1060 C 0.28118 0.34377 0.26916 0.0
C1061 C 0.28839 0.34135 0.29065 0.0
C1062 C 0.2567 0.33667 0.24081 0.0
C1063 C 0.24059 0.33269 0.23847 0.0
C1064 C 0.23273 0.33438 0.21517 0.0
C1065 C 0.21538 0.32417 0.21137 0.0
C1066 C 0.2075 0.32461 0.18921 0.0
C1067 C 0.21681 0.33542 0.17039 0.0
H1068 H 0.25528 0.35426 0.19933 0.0
C1069 C 0.2341 0.34619 0.17461 0.0
C1070 C 0.24199 0.3457 0.19676 0.0
H1071 H 0.24156 0.35495 0.16072 0.0
H1072 H 0.25337 0.30821 0.31317 0.0
H1073 H 0.241 0.31219 0.27575 0.0
H1074 H 0.28906 0.35372 0.25692 0.0
H1075 H 0.30165 0.34954 0.29451 0.0
H1076 H 0.26496 0.34228 0.22556 0.0
H1077 H 0.23248 0.32726 0.25396 0.0
H1078 H 0.20791 0.31544 0.2253 0.0
H1079 H 0.19419 0.31604 0.18651 0.0
C1080 C 0.27439 0.33349 0.42065 0.0
C1081 C 0.28715 0.34733 0.4088 0.0
C1082 C 0.26242 0.33528 0.43359 0.0
C1083 C 0.26291 0.35096 0.43486 0.0
C1084 C 0.27557 0.36472 0.42278 0.0
C1085 C 0.28753 0.36293 0.40981 0.0
C1086 C 0.25154 0.35389 0.45059 0.0
C1087 C 0.23677 0.34138 0.45803 0.0
C1088 C 0.22704 0.344 0.47746 0.0
C1089 C 0.21004 0.33195 0.4794 0.0
C1090 C 0.20107 0.3329 0.49936 0.0
C1091 C 0.20903 0.34583 0.51789 0.0
H1092 H 0.24792 0.3666 0.49533 0.0
C1093 C 0.22584 0.35821 0.5155 0.0
C1094 C 0.23477 0.3573 0.49561 0.0
H1095 H 0.23224 0.36836 0.5295 0.0
H1096 H 0.27387 0.32137 0.4205 0.0
H1097 H 0.25324 0.3245 0.44332 0.0
H1098 H 0.27637 0.37699 0.42368 0.0
H1099 H 0.29721 0.37384 0.40087 0.0
H1100 H 0.25577 0.36691 0.45656 0.0
H1101 H 0.23171 0.32861 0.45015 0.0
H1102 H 0.20382 0.3215 0.46582 0.0
H1103 H 0.18815 0.32311 0.50089 0.0
C1104 C 0.67333 0.94585 0.41692 0.0
C1105 C 0.65978 0.94431 0.40249 0.0
C1106 C 0.67198 0.93197 0.42944 0.0
C1107 C 0.65705 0.91621 0.42768 0.0
C1108 C 0.64365 0.91466 0.41287 0.0
C1109 C 0.645 0.92851 0.40036 0.0
C1110 C 0.65432 0.90169 0.44287 0.0
C1111 C 0.66669 0.89993 0.45333 0.0
C1112 C 0.66371 0.88701 0.472 0.0
C1113 C 0.67589 0.88239 0.47653 0.0
C1114 C 0.67439 0.87191 0.4961 0.0
C1115 C 0.66078 0.86609 0.5117 0.0
H1116 H 0.64029 0.88409 0.4848 0.0
C1117 C 0.64831 0.87017 0.50661 0.0
C1118 C 0.64975 0.88053 0.48707 0.0
H1119 H 0.63768 0.86582 0.51838 0.0
H1120 H 0.68483 0.95789 0.41915 0.0
H1121 H 0.68245 0.9339 0.44121 0.0
H1122 H 0.63195 0.90274 0.41132 0.0
H1123 H 0.63432 0.92687 0.38935 0.0
H1124 H 0.64143 0.89216 0.44579 0.0
H1125 H 0.67953 0.90841 0.44858 0.0
H1126 H 0.68683 0.8873 0.46536 0.0
H1127 H 0.68426 0.86908 0.4998 0.0
C1128 C 0.08669 0.72397 0.37481 0.0
C1129 C 0.06946 0.71667 0.36941 0.0
C1130 C 0.09413 0.73452 0.39597 0.0
C1131 C 0.08455 0.73812 0.41228 0.0
C1132 C 0.06725 0.73036 0.40742 0.0
C1133 C 0.05978 0.71983 0.38614 0.0
C1134 C 0.09215 0.7494 0.43489 0.0
C1135 C 0.10821 0.76207 0.43654 0.0
C1136 C 0.11645 0.77268 0.45955 0.0
C1137 C 0.13392 0.78079 0.46237 0.0
C1138 C 0.14215 0.78988 0.48438 0.0
C1139 C 0.13307 0.79119 0.50404 0.0
H1140 H 0.09405 0.76934 0.47696 0.0
C1141 C 0.11567 0.78387 0.50071 0.0
C1142 C 0.10744 0.77475 0.47871 0.0
H1143 H 0.10837 0.78499 0.5153 0.0
H1144 H 0.09455 0.72171 0.36254 0.0
H1145 H 0.10737 0.73965 0.39956 0.0
H1146 H 0.05953 0.73269 0.41989 0.0
H1147 H 0.04648 0.71437 0.38264 0.0
H1148 H 0.08415 0.74704 0.4505 0.0
H1149 H 0.116 0.76441 0.42065 0.0
H1150 H 0.14121 0.77959 0.44782 0.0
H1151 H 0.15554 0.79527 0.48638 0.0
C1152 C 0.32289 0.0622 0.70444 0.0
C1153 C 0.33396 0.05607 0.70078 0.0
C1154 C 0.32447 0.07209 0.72562 0.0
C1155 C 0.33725 0.0762 0.74369 0.0
C1156 C 0.34792 0.06956 0.74057 0.0
C1157 C 0.34638 0.05968 0.71927 0.0
C1158 C 0.33937 0.08687 0.76632 0.0
C1159 C 0.33474 0.09876 0.76699 0.0
C1160 C 0.33564 0.10869 0.78989 0.0
C1161 C 0.32511 0.11563 0.79129 0.0
C1162 C 0.32455 0.12388 0.81318 0.0
C1163 C 0.33461 0.12543 0.83411 0.0
H1164 H 0.35527 0.10672 0.80977 0.0
C1165 C 0.34588 0.11941 0.83222 0.0
C1166 C 0.34643 0.11117 0.81037 0.0
H1167 H 0.35407 0.12079 0.84788 0.0
H1168 H 0.31303 0.05954 0.69078 0.0
H1169 H 0.31554 0.07633 0.72779 0.0
H1170 H 0.3577 0.0723 0.75442 0.0
H1171 H 0.35508 0.05513 0.71713 0.0
H1172 H 0.3449 0.08472 0.78279 0.0
H1173 H 0.32938 0.10091 0.7503 0.0
H1174 H 0.31681 0.11412 0.7757 0.0
H1175 H 0.31571 0.12835 0.81409 0.0
C1176 C 0.9485 0.25712 0.74229 0.0
C1177 C 0.94852 0.27252 0.74473 0.0
C1178 C 0.93643 0.24265 0.75364 0.0
C1179 C 0.92416 0.24333 0.76776 0.0
C1180 C 0.92388 0.25857 0.7695 0.0
C1181 C 0.93599 0.27304 0.75826 0.0
C1182 C 0.91176 0.22866 0.78154 0.0
C1183 C 0.9147 0.21665 0.79037 0.0
C1184 C 0.90384 0.20456 0.80883 0.0
C1185 C 0.91127 0.20041 0.82834 0.0
C1186 C 0.90198 0.19184 0.84863 0.0
C1187 C 0.88503 0.18704 0.84951 0.0
H1188 H 0.88035 0.20091 0.79345 0.0
C1189 C 0.87722 0.18968 0.82883 0.0
C1190 C 0.88655 0.19838 0.80864 0.0
H1191 H 0.86417 0.1861 0.829 0.0
H1192 H 0.95788 0.25624 0.73175 0.0
H1193 H 0.93677 0.23101 0.75128 0.0
H1194 H 0.91452 0.25942 0.78017 0.0
H1195 H 0.93565 0.28468 0.76055 0.0
H1196 H 0.90069 0.22894 0.78713 0.0
H1197 H 0.92649 0.21724 0.787 0.0
H1198 H 0.92453 0.20481 0.82872 0.0
H1199 H 0.90825 0.18977 0.86423 0.0
C1200 C 0.75701 0.69696 0.71324 0.0
C1201 C 0.74141 0.68289 0.70606 0.0
C1202 C 0.76534 0.69707 0.73524 0.0
C1203 C 0.75825 0.68307 0.75058 0.0
C1204 C 0.74257 0.66911 0.74361 0.0
C1205 C 0.73414 0.66907 0.7217 0.0
C1206 C 0.76737 0.68221 0.77302 0.0
C1207 C 0.77872 0.69601 0.78649 0.0
C1208 C 0.78771 0.69477 0.80872 0.0
C1209 C 0.79123 0.70593 0.8293 0.0
C1210 C 0.79882 0.70433 0.85101 0.0
C1211 C 0.8034 0.69182 0.85223 0.0
H1212 H 0.79071 0.67417 0.79379 0.0
C1213 C 0.80069 0.68125 0.83117 0.0
C1214 C 0.79284 0.68264 0.80964 0.0
H1215 H 0.80405 0.67146 0.8317 0.0
H1216 H 0.76299 0.70781 0.70161 0.0
H1217 H 0.77757 0.70788 0.73965 0.0
H1218 H 0.73689 0.65813 0.75504 0.0
H1219 H 0.7222 0.65799 0.71665 0.0
H1220 H 0.76418 0.6697 0.77911 0.0
H1221 H 0.78074 0.70846 0.78216 0.0
H1222 H 0.78759 0.71551 0.82889 0.0
H1223 H 0.80084 0.71266 0.867 0.0
C1224 C 0.73326 0.6405 0.60837 0.0
C1225 C 0.7334 0.65599 0.60803 0.0
C1226 C 0.74575 0.63872 0.59697 0.0
C1227 C 0.75864 0.65244 0.58506 0.0
C1228 C 0.75906 0.66804 0.58546 0.0
C1229 C 0.74651 0.66977 0.59661 0.0
C1230 C 0.77151 0.6509 0.5712 0.0
C1231 C 0.76851 0.63647 0.55919 0.0
C1232 C 0.77977 0.6366 0.53996 0.0
C1233 C 0.77271 0.62718 0.51762 0.0
C1234 C 0.78256 0.62995 0.49704 0.0
C1235 C 0.79969 0.64195 0.49869 0.0
H1236 H 0.80302 0.65446 0.55956 0.0
C1237 C 0.80707 0.65001 0.5218 0.0
C1238 C 0.79718 0.64739 0.5423 0.0
H1239 H 0.82026 0.65931 0.52354 0.0
H1240 H 0.7234 0.62968 0.61721 0.0
H1241 H 0.74526 0.62663 0.59753 0.0
H1242 H 0.76887 0.67881 0.57644 0.0
H1243 H 0.74698 0.68184 0.59589 0.0
H1244 H 0.78299 0.66261 0.56792 0.0
H1245 H 0.75638 0.62509 0.56025 0.0
H1246 H 0.75935 0.61865 0.51547 0.0
H1247 H 0.77664 0.62349 0.47944 0.0
C1248 C 0.37087 0.08611 0.60849 0.0
C1249 C 0.35591 0.07047 0.60567 0.0
C1250 C 0.37216 0.1007 0.59841 0.0
C1251 C 0.35848 0.09991 0.58524 0.0
C1252 C 0.34347 0.08436 0.58288 0.0
C1253 C 0.34222 0.06978 0.59279 0.0
C1254 C 0.35937 0.11483 0.57323 0.0
C1255 C 0.37356 0.1277 0.56482 0.0
C1256 C 0.37326 0.1401 0.54777 0.0
C1257 C 0.38371 0.14502 0.52746 0.0
C1258 C 0.38138 0.15375 0.50826 0.0
C1259 C 0.36879 0.15802 0.50937 0.0
H1260 H 0.35375 0.14251 0.56575 0.0
C1261 C 0.35949 0.15466 0.53086 0.0
C1262 C 0.36167 0.14571 0.54992 0.0
H1263 H 0.34968 0.1578 0.53207 0.0
H1264 H 0.38161 0.0871 0.61851 0.0
H1265 H 0.38381 0.11254 0.60115 0.0
H1266 H 0.33273 0.08339 0.57285 0.0
H1267 H 0.33056 0.05795 0.5901 0.0
H1268 H 0.34756 0.11414 0.56854 0.0
H1269 H 0.38521 0.12765 0.56717 0.0
H1270 H 0.39286 0.14101 0.52552 0.0
H1271 H 0.3887 0.15624 0.49184 0.0
C1272 C 0.92169 0.28489 0.64374 0.0
C1273 C 0.93862 0.29007 0.64838 0.0
C1274 C 0.91361 0.27678 0.62114 0.0
C1275 C 0.92226 0.27354 0.60263 0.0
C1276 C 0.93931 0.2792 0.60697 0.0
C1277 C 0.9474 0.28731 0.62959 0.0
C1278 C 0.91411 0.2644 0.57862 0.0
C1279 C 0.89749 0.25396 0.57498 0.0
C1280 C 0.8898 0.24411 0.55125 0.0
C1281 C 0.87308 0.23897 0.54488 0.0
C1282 C 0.86551 0.22964 0.52267 0.0
C1283 C 0.87454 0.22522 0.5065 0.0
H1284 H 0.91124 0.24218 0.54005 0.0
C1285 C 0.89109 0.22994 0.51326 0.0
C1286 C 0.89862 0.2392 0.53536 0.0
H1287 H 0.89822 0.22629 0.50153 0.0
H1288 H 0.91457 0.28698 0.65765 0.0
H1289 H 0.90065 0.27322 0.61833 0.0
H1290 H 0.94634 0.27704 0.59296 0.0
H1291 H 0.96046 0.29119 0.63244 0.0
H1292 H 0.92234 0.26601 0.56358 0.0
H1293 H 0.88909 0.25241 0.58971 0.0
H1294 H 0.86592 0.24236 0.55697 0.0
H1295 H 0.85273 0.22616 0.51795 0.0
C1296 C 0.33749 0.28524 0.63021 0.0
C1297 C 0.35169 0.29529 0.64574 0.0
C1298 C 0.33855 0.27645 0.60923 0.0
C1299 C 0.35389 0.27775 0.60332 0.0
C1300 C 0.36812 0.28833 0.61833 0.0
C1301 C 0.36702 0.29685 0.63939 0.0
C1302 C 0.35579 0.26874 0.58139 0.0
C1303 C 0.34353 0.25377 0.57159 0.0
C1304 C 0.34602 0.24484 0.55 0.0
C1305 C 0.33584 0.22716 0.54663 0.0
C1306 C 0.33767 0.21854 0.52612 0.0
C1307 C 0.3496 0.22749 0.50841 0.0
H1308 H 0.36584 0.26737 0.53371 0.0
C1309 C 0.35987 0.24514 0.51195 0.0
C1310 C 0.35805 0.25372 0.53232 0.0
H1311 H 0.36926 0.2524 0.49872 0.0
H1312 H 0.32551 0.28379 0.63466 0.0
H1313 H 0.32741 0.26877 0.59765 0.0
H1314 H 0.38013 0.28974 0.61405 0.0
H1315 H 0.37823 0.3046 0.65086 0.0
H1316 H 0.36822 0.27421 0.57419 0.0
H1317 H 0.33154 0.24744 0.58032 0.0
H1318 H 0.32639 0.22001 0.55984 0.0
H1319 H 0.32944 0.20496 0.52376 0.0
C1320 C 0.73313 0.07662 0.61267 0.0
C1321 C 0.73189 0.06064 0.61092 0.0
C1322 C 0.74556 0.09031 0.60041 0.0
C1323 C 0.7569 0.08823 0.58584 0.0
C1324 C 0.756 0.0724 0.58485 0.0
C1325 C 0.74361 0.05872 0.59719 0.0
C1326 C 0.76941 0.10199 0.57073 0.0
C1327 C 0.76738 0.11466 0.56231 0.0
C1328 C 0.778 0.1263 0.54319 0.0
C1329 C 0.77075 0.1326 0.52656 0.0
C1330 C 0.77956 0.14193 0.50648 0.0
C1331 C 0.79592 0.14539 0.50286 0.0
H1332 H 0.80089 0.12639 0.55334 0.0
C1333 C 0.80363 0.14009 0.52037 0.0
C1334 C 0.79473 0.13058 0.5404 0.0
H1335 H 0.81626 0.14266 0.51799 0.0
H1336 H 0.72445 0.07856 0.62346 0.0
H1337 H 0.74617 0.10244 0.60242 0.0
H1338 H 0.76463 0.07045 0.57392 0.0
H1339 H 0.74302 0.04658 0.59549 0.0
H1340 H 0.77961 0.10049 0.56408 0.0
H1341 H 0.75637 0.11529 0.56705 0.0
H1342 H 0.75796 0.12967 0.52844 0.0
H1343 H 0.77343 0.14607 0.49336 0.0
C1344 C 0.93172 0.66206 0.63766 0.0
C1345 C 0.94912 0.66955 0.6412 0.0
C1346 C 0.92476 0.66353 0.6153 0.0
C1347 C 0.93503 0.67245 0.59583 0.0
C1348 C 0.9524 0.67975 0.59914 0.0
C1349 C 0.95942 0.6785 0.62175 0.0
C1350 C 0.92777 0.67334 0.57147 0.0
C1351 C 0.9135 0.67382 0.56932 0.0
C1352 C 0.90522 0.67289 0.54497 0.0
C1353 C 0.89556 0.68073 0.54253 0.0
C1354 C 0.88696 0.67929 0.52008 0.0
C1355 C 0.88759 0.66968 0.49974 0.0
H1356 H 0.91272 0.65658 0.52621 0.0
C1357 C 0.89712 0.66165 0.50243 0.0
C1358 C 0.90589 0.6633 0.52469 0.0
H1359 H 0.89752 0.65372 0.48749 0.0
H1360 H 0.92341 0.65508 0.65226 0.0
H1361 H 0.91129 0.65733 0.61312 0.0
H1362 H 0.96056 0.6865 0.58427 0.0
H1363 H 0.97286 0.68435 0.62386 0.0
H1364 H 0.9345 0.67381 0.55494 0.0
H1365 H 0.90772 0.67512 0.58594 0.0
H1366 H 0.89472 0.68805 0.558 0.0
H1367 H 0.87989 0.68578 0.51866 0.0
C1368 C 0.94079 0.67278 0.7539 0.0
C1369 C 0.9532 0.68723 0.74268 0.0
C1370 C 0.92802 0.67335 0.76639 0.0
C1371 C 0.92734 0.68842 0.76785 0.0
C1372 C 0.93956 0.70276 0.75619 0.0
C1373 C 0.95232 0.70217 0.74366 0.0
C1374 C 0.91539 0.69024 0.78377 0.0
C1375 C 0.90117 0.67706 0.79154 0.0
C1376 C 0.89151 0.67881 0.81192 0.0
C1377 C 0.87466 0.66639 0.81414 0.0
C1378 C 0.8659 0.66664 0.8349 0.0
C1379 C 0.874 0.67916 0.85393 0.0
H1380 H 0.91243 0.70116 0.83017 0.0
C1381 C 0.89067 0.69183 0.85136 0.0
C1382 C 0.89935 0.69165 0.83067 0.0
H1383 H 0.89716 0.70166 0.86577 0.0
H1384 H 0.94121 0.66113 0.75376 0.0
H1385 H 0.9192 0.66216 0.77576 0.0
H1386 H 0.93945 0.71458 0.75725 0.0
H1387 H 0.96169 0.71353 0.73518 0.0
H1388 H 0.91885 0.70304 0.79004 0.0
H1389 H 0.8967 0.66443 0.78348 0.0
H1390 H 0.86838 0.65625 0.8001 0.0
H1391 H 0.85306 0.65669 0.83657 0.0
C1392 C 0.31128 0.26258 0.74015 0.0
C1393 C 0.3262 0.27832 0.74174 0.0
C1394 C 0.31016 0.24857 0.75195 0.0
C1395 C 0.32395 0.25002 0.76565 0.0
C1396 C 0.33896 0.26562 0.76668 0.0
C1397 C 0.34005 0.27965 0.75502 0.0
C1398 C 0.32317 0.2357 0.77937 0.0
C1399 C 0.30902 0.22329 0.78868 0.0
C1400 C 0.30914 0.211 0.80614 0.0
C1401 C 0.29834 0.20601 0.82605 0.0
C1402 C 0.29991 0.19662 0.84498 0.0
C1403 C 0.31208 0.19175 0.84404 0.0
H1404 H 0.32865 0.20827 0.78875 0.0
C1405 C 0.3219 0.19546 0.82306 0.0
C1406 C 0.32049 0.20506 0.80428 0.0
H1407 H 0.3314 0.19188 0.82193 0.0
H1408 H 0.30041 0.26107 0.72987 0.0
H1409 H 0.29852 0.23664 0.75014 0.0
H1410 H 0.3498 0.26708 0.77701 0.0
H1411 H 0.3517 0.29157 0.7567 0.0
H1412 H 0.33497 0.23641 0.78416 0.0
H1413 H 0.29744 0.22346 0.78615 0.0
H1414 H 0.28935 0.21024 0.82773 0.0
H1415 H 0.29213 0.19382 0.86092 0.0
C1416 C 0.73375 0.05762 0.72511 0.0
C1417 C 0.74107 0.05048 0.71012 0.0
C1418 C 0.74267 0.06839 0.74566 0.0
C1419 C 0.75912 0.07218 0.75161 0.0
C1420 C 0.7661 0.06449 0.73716 0.0
C1421 C 0.75726 0.05386 0.71665 0.0
C1422 C 0.76949 0.08384 0.77273 0.0
C1423 C 0.76655 0.09534 0.78419 0.0
C1424 C 0.7774 0.10657 0.80526 0.0
C1425 C 0.7702 0.11109 0.82446 0.0
C1426 C 0.77979 0.12033 0.8456 0.0
C1427 C 0.79686 0.12548 0.84774 0.0
H1428 H 0.80078 0.10985 0.79188 0.0
C1429 C 0.80431 0.12194 0.82779 0.0
C1430 C 0.79469 0.11257 0.80676 0.0
H1431 H 0.81743 0.12574 0.82893 0.0
H1432 H 0.72127 0.05524 0.72066 0.0
H1433 H 0.73658 0.07361 0.7567 0.0
H1434 H 0.77864 0.06697 0.74142 0.0
H1435 H 0.76328 0.04849 0.70568 0.0
H1436 H 0.7803 0.083 0.77885 0.0
H1437 H 0.75565 0.0962 0.7789 0.0
H1438 H 0.75698 0.10688 0.82357 0.0
H1439 H 0.77377 0.12305 0.86059 0.0
C1440 C 0.06627 0.35227 0.99434 0.0
C1441 C 0.0525 0.35109 0.00669 0.0
C1442 C 0.07875 0.35088 0.00724 0.0
C1443 C 0.07773 0.34808 0.03289 0.0
C1444 C 0.06392 0.34683 0.04522 0.0
C1445 C 0.05143 0.34829 0.03229 0.0
C1446 C 0.09098 0.34701 0.04764 0.0
C1447 C 0.10288 0.34446 0.03775 0.0
C1448 C 0.11555 0.34297 0.05332 0.0
C1449 C 0.12196 0.33277 0.04464 0.0
C1450 C 0.13243 0.32962 0.06008 0.0
C1451 C 0.13674 0.33679 0.08433 0.0
H1452 H 0.117 0.35974 0.08385 0.0
C1453 C 0.13144 0.34806 0.09226 0.0
C1454 C 0.12104 0.3512 0.0769 0.0
H1455 H 0.13471 0.3538 0.11089 0.0
H1456 H 0.06759 0.35456 0.97465 0.0
H1457 H 0.08928 0.35238 -0.00301 0.0
H1458 H 0.06281 0.34478 0.065 0.0
H1459 H 0.04104 0.34738 0.04239 0.0
H1460 H 0.09043 0.34773 0.06774 0.0
H1461 H 0.10275 0.34217 0.01787 0.0
H1462 H 0.11817 0.32651 0.02638 0.0
H1463 H 0.13626 0.32079 0.05367 0.0
C1464 C 0.65756 0.70989 0.03672 0.0
C1465 C 0.64101 0.69713 0.0403 0.0
C1466 C 0.66196 0.72701 0.03765 0.0
C1467 C 0.64983 0.73172 0.04198 0.0
C1468 C 0.63319 0.71887 0.04426 0.0
C1469 C 0.62882 0.70183 0.04343 0.0
C1470 C 0.65405 0.7496 0.04716 0.0
C1471 C 0.66904 0.76339 0.04359 0.0
C1472 C 0.67396 0.78029 0.05521 0.0
C1473 C 0.69058 0.79067 0.0638 0.0
C1474 C 0.69506 0.8049 0.07933 0.0
C1475 C 0.68305 0.80918 0.08621 0.0
H1476 H 0.6495 0.77817 0.05309 0.0
C1477 C 0.66683 0.79987 0.07558 0.0
C1478 C 0.66229 0.78552 0.06017 0.0
H1479 H 0.65737 0.80296 0.0806 0.0
H1480 H 0.66727 0.70672 0.03425 0.0
H1481 H 0.67498 0.73637 0.0361 0.0
H1482 H 0.62355 0.72203 0.0476 0.0
H1483 H 0.61591 0.69236 0.046 0.0
H1484 H 0.64463 0.75127 0.05639 0.0
H1485 H 0.67873 0.76201 0.03478 0.0
H1486 H 0.69987 0.78709 0.06001 0.0
H1487 H 0.70768 0.81196 0.08723 0.0
C1488 C 0.29983 0.93707 0.98847 0.0
C1489 C 0.31249 0.95227 -4e-05 0.0
C1490 C 0.28478 0.92718 0.00014 0.0
C1491 C 0.28211 0.93229 0.02364 0.0
C1492 C 0.29485 0.94739 0.03517 0.0
C1493 C 0.30989 0.95724 0.02354 0.0
C1494 C 0.26605 0.92284 0.0363 0.0
C1495 C 0.2545 0.90644 0.03128 0.0
C1496 C 0.23909 0.89779 0.04564 0.0
C1497 C 0.23264 0.88079 0.0518 0.0
C1498 C 0.2197 0.87331 0.0685 0.0
C1499 C 0.21302 0.88275 0.07898 0.0
H1500 H 0.2355 0.91951 0.04929 0.0
C1501 C 0.21847 0.89921 0.07112 0.0
C1502 C 0.2313 0.90663 0.05448 0.0
H1503 H 0.21335 0.90664 0.07886 0.0
H1504 H 0.30141 0.93293 0.97022 0.0
H1505 H 0.27518 0.91586 0.99035 0.0
H1506 H 0.29312 0.95168 0.05323 0.0
H1507 H 0.31935 0.96888 0.0329 0.0
H1508 H 0.26401 0.92965 0.05139 0.0
H1509 H 0.25692 0.89884 0.01804 0.0
H1510 H 0.23828 0.87364 0.0449 0.0
H1511 H 0.2157 0.86061 0.07444 0.0
C1512 C 0.36671 0.0597 0.97265 0.0
C1513 C 0.35708 0.04221 0.97631 0.0
C1514 C 0.35939 0.06987 0.97276 0.0
C1515 C 0.34222 0.06281 0.97666 0.0
C1516 C 0.33275 0.04548 0.98142 0.0
C1517 C 0.3401 0.03529 0.9814 0.0
C1518 C 0.33343 0.07246 0.97211 0.0
C1519 C 0.34131 0.08953 0.97193 0.0
C1520 C 0.33455 0.09914 0.95875 0.0
C1521 C 0.3436 0.11697 0.96083 0.0
C1522 C 0.34043 0.12663 0.94409 0.0
C1523 C 0.32822 0.11859 0.92492 0.0
H1524 H 0.31389 0.07761 0.93838 0.0
C1525 C 0.31809 0.10089 0.9243 0.0
C1526 C 0.32119 0.09123 0.941 0.0
H1527 H 0.30856 0.09444 0.90965 0.0
H1528 H 0.37983 0.06549 0.96877 0.0
H1529 H 0.36712 0.08302 0.96834 0.0
H1530 H 0.31948 0.03965 0.98426 0.0
H1531 H 0.3323 0.02188 0.98437 0.0
H1532 H 0.32026 0.06504 0.96685 0.0
H1533 H 0.35401 0.09684 0.97957 0.0
H1534 H 0.35394 0.12344 0.97428 0.0
H1535 H 0.34847 0.14028 0.94483 0.0
C1536 C 0.96211 0.30083 0.98179 0.0
C1537 C 0.9595 0.31423 0.97551 0.0
C1538 C 0.94867 0.28413 0.98168 0.0
C1539 C 0.93229 0.28052 0.97548 0.0
C1540 C 0.9297 0.29409 0.97053 0.0
C1541 C 0.94307 0.31068 0.97053 0.0
C1542 C 0.91788 0.26296 0.97111 0.0
C1543 C 0.91785 0.24865 0.97699 0.0
C1544 C 0.90495 0.23164 0.96656 0.0
C1545 C 0.90982 0.21967 0.96101 0.0
C1546 C 0.89933 0.20505 0.94652 0.0
C1547 C 0.88365 0.20197 0.93763 0.0
H1548 H 0.88411 0.2363 0.96456 0.0
C1549 C 0.878 0.21297 0.94538 0.0
C1550 C 0.88856 0.2277 0.95977 0.0
H1551 H 0.86596 0.21087 0.93875 0.0
H1552 H 0.9746 0.30312 0.9857 0.0
H1553 H 0.9514 0.27416 0.98535 0.0
H1554 H 0.91729 0.2918 0.96574 0.0
H1555 H 0.94053 0.32068 0.96587 0.0
H1556 H 0.90722 0.26188 0.96064 0.0
H1557 H 0.92849 0.24942 0.98706 0.0
H1558 H 0.92225 0.22222 0.96628 0.0
H1559 H 0.90394 0.19671 0.9408 0.0
C1560 C 0.70732 0.65522 0.02836 0.0
C1561 C 0.69568 0.6587 0.01672 0.0
C1562 C 0.72235 0.6594 0.01728 0.0
C1563 C 0.72606 0.66713 0.99419 0.0
C1564 C 0.71447 0.6707 0.98265 0.0
C1565 C 0.69941 0.66648 0.99371 0.0
C1566 C 0.74205 0.67219 0.98191 0.0
C1567 C 0.75186 0.66544 0.98652 0.0
C1568 C 0.76722 0.67035 0.97259 0.0
C1569 C 0.77186 0.65819 0.96691 0.0
C1570 C 0.78493 0.66194 0.95093 0.0
C1571 C 0.79358 0.67796 0.94063 0.0
H1572 H 0.77415 0.69673 0.96886 0.0
C1573 C 0.78989 0.69054 0.94808 0.0
C1574 C 0.7769 0.68682 0.96397 0.0
H1575 H 0.79655 0.70307 0.9406 0.0
H1576 H 0.70489 0.64933 0.0462 0.0
H1577 H 0.73109 0.65684 0.02715 0.0
H1578 H 0.71704 0.67677 0.96493 0.0
H1579 H 0.69075 0.6694 0.98428 0.0
H1580 H 0.74539 0.68131 0.9674 0.0
H1581 H 0.74792 0.65512 -0.00086 0.0
H1582 H 0.76477 0.64549 0.97367 0.0
H1583 H 0.78753 0.65202 0.94537 0.0
C1584 C 0.95374 0.66494 0.00445 0.0
C1585 C 0.95005 0.65009 0.01672 0.0
C1586 C 0.94093 0.66795 -0.00322 0.0
C1587 C 0.92414 0.65609 0.00107 0.0
C1588 C 0.92047 0.64111 0.01283 0.0
C1589 C 0.93327 0.63821 0.02081 0.0
C1590 C 0.91014 0.6584 0.99202 0.0
C1591 C 0.91146 0.67373 0.9898 0.0
C1592 C 0.89844 0.67629 0.97717 0.0
C1593 C 0.90347 0.69188 0.96625 0.0
C1594 C 0.89251 0.6939 0.95037 0.0
C1595 C 0.8762 0.68044 0.94543 0.0
H1596 H 0.87699 0.65138 0.98291 0.0
C1597 C 0.87058 0.66543 0.95823 0.0
C1598 C 0.88159 0.66335 0.97406 0.0
H1599 H 0.85809 0.65483 0.95448 0.0
H1600 H 0.96653 0.67434 0.00099 0.0
H1601 H 0.94422 0.67939 0.98703 0.0
H1602 H 0.90765 0.63165 0.01604 0.0
H1603 H 0.92998 0.6266 0.03011 0.0
H1604 H 0.89855 0.64698 0.98653 0.0
H1605 H 0.92312 0.68502 -0.00441 0.0
H1606 H 0.91627 0.70215 0.96856 0.0
H1607 H 0.89716 0.70551 0.94043 0.0
C1608 C 0.37296 0.3031 0.9827 0.0
C1609 C 0.36244 0.30999 0.98535 0.0
C1610 C 0.36644 0.28557 0.982 0.0
C1611 C 0.34919 0.27446 0.98406 0.0
C1612 C 0.33886 0.28139 0.98822 0.0
C1613 C 0.3454 0.29895 0.98899 0.0
C1614 C 0.34124 0.25591 0.97827 0.0
C1615 C 0.34952 0.24722 0.97814 0.0
C1616 C 0.34275 0.23025 0.96532 0.0
C1617 C 0.35407 0.22559 0.95618 0.0
C1618 C 0.3486 0.21161 0.93961 0.0
C1619 C 0.33171 0.20205 0.93197 0.0
H1620 H 0.31631 0.22206 0.9672 0.0
C1621 C 0.32017 0.20566 0.94294 0.0
C1622 C 0.32559 0.2195 0.95967 0.0
H1623 H 0.30703 0.19829 0.93749 0.0
H1624 H 0.38618 0.31122 0.97996 0.0
H1625 H 0.37488 0.2809 0.97828 0.0
H1626 H 0.32552 0.27318 0.98979 0.0
H1627 H 0.33692 0.30379 0.99115 0.0
H1628 H 0.32831 0.24969 0.97163 0.0
H1629 H 0.36242 0.25345 0.98499 0.0
H1630 H 0.36733 0.23347 0.96046 0.0
H1631 H 0.35773 0.20909 0.93132 0.0
C1632 C 0.71809 0.05628 0.03052 0.0
C1633 C 0.70386 0.04452 0.01625 0.0
C1634 C 0.73321 0.0665 0.01921 0.0
C1635 C 0.73438 0.06518 0.99332 0.0
C1636 C 0.72017 0.05336 0.97915 0.0
C1637 C 0.70507 0.0432 0.99043 0.0
C1638 C 0.75014 0.0755 0.98028 0.0
C1639 C 0.76301 0.09039 0.98924 0.0
C1640 C 0.77748 0.10093 0.97379 0.0
C1641 C 0.78483 0.11866 0.97518 0.0
C1642 C 0.79632 0.12859 0.95763 0.0
C1643 C 0.80064 0.12085 0.93866 0.0
H1644 H 0.77828 0.0799 0.95537 0.0
C1645 C 0.79454 0.10333 0.93877 0.0
C1646 C 0.78316 0.09346 0.95628 0.0
H1647 H 0.79785 0.09716 0.92437 0.0
H1648 H 0.7176 0.05752 0.0505 0.0
H1649 H 0.74395 0.07514 0.03088 0.0
H1650 H 0.72072 0.052 0.9592 0.0
H1651 H 0.69438 0.03423 0.97889 0.0
H1652 H 0.75058 0.07113 0.96151 0.0
H1653 H 0.76217 0.09585 0.0069 0.0
H1654 H 0.78084 0.12473 0.98875 0.0
H1655 H 0.80085 0.14209 0.95776 0.0
C1656 C 0.66463 0.95963 0.0118 0.0
C1657 C 0.64796 0.95424 0.01732 0.0
C1658 C 0.67027 0.94799 0.01038 0.0
C1659 C 0.65936 0.93074 0.01469 0.0
C1660 C 0.6424 0.92521 0.01779 0.0
C1661 C 0.63676 0.9368 0.01916 0.0
C1662 C 0.66524 0.9185 0.01926 0.0
C1663 C 0.68092 0.92334 0.02748 0.0
C1664 C 0.68479 0.91228 0.04277 0.0
C1665 C 0.69703 0.92006 0.06201 0.0
C1666 C 0.69819 0.91048 0.08093 0.0
C1667 C 0.68732 0.89289 0.08071 0.0
H1668 H 0.66605 0.88794 0.02603 0.0
C1669 C 0.67644 0.88481 0.06002 0.0
C1670 C 0.67517 0.89443 0.04111 0.0
H1671 H 0.66801 0.87122 0.05944 0.0
H1672 H 0.67353 0.97293 0.00971 0.0
H1673 H 0.68329 0.95272 0.00683 0.0
H1674 H 0.63362 0.91198 0.02078 0.0
H1675 H 0.62377 0.93213 0.02296 0.0
H1676 H 0.65559 0.90532 0.02051 0.0
H1677 H 0.69042 0.93664 0.02771 0.0
H1678 H 0.70477 0.93374 0.06361 0.0
H1679 H 0.70679 0.91694 0.09665 0.0
C1680 C 0.06263 0.71356 0.02274 0.0
C1681 C 0.0452 0.70582 0.0244 0.0
C1682 C 0.07263 0.7312 0.02295 0.0
C1683 C 0.06542 0.74158 0.0248 0.0
C1684 C 0.04793 0.73381 0.02491 0.0
C1685 C 0.03791 0.71613 0.02454 0.0
C1686 C 0.07568 0.76015 0.0307 0.0
C1687 C 0.09212 0.76958 0.02631 0.0
C1688 C 0.10348 0.78626 0.03937 0.0
C1689 C 0.12059 0.79162 0.04177 0.0
C1690 C 0.13108 0.80478 0.05871 0.0
C1691 C 0.12461 0.81283 0.07353 0.0
H1692 H 0.08473 0.79277 0.04992 0.0
C1693 C 0.10802 0.80885 0.06911 0.0
C1694 C 0.09757 0.79581 0.05203 0.0
H1695 H 0.10282 0.81503 0.08017 0.0
H1696 H 0.06868 0.70601 0.02249 0.0
H1697 H 0.08602 0.73655 0.02337 0.0
H1698 H 0.04202 0.74145 0.02648 0.0
H1699 H 0.02454 0.71061 0.02582 0.0
H1700 H 0.0696 0.76563 0.04128 0.0
H1701 H 0.09793 0.76401 0.01522 0.0
H1702 H 0.12561 0.78472 0.03201 0.0
H1703 H 0.14382 0.80756 0.06185 0.0
C1704 C 0.30804 0.34757 0.01525 0.0
C1705 C 0.3212 0.36423 0.01266 0.0
C1706 C 0.29253 0.34453 0.02328 0.0
C1707 C 0.28986 0.35814 0.02888 0.0
C1708 C 0.30315 0.37476 0.02675 0.0
C1709 C 0.31859 0.37779 0.01863 0.0
C1710 C 0.27384 0.35567 0.03832 0.0
C1711 C 0.25902 0.34119 0.03514 0.0
C1712 C 0.2438 0.33865 0.0476 0.0
C1713 C 0.23255 0.32251 0.05599 0.0
C1714 C 0.21978 0.32029 0.07157 0.0
C1715 C 0.21784 0.33411 0.07849 0.0
H1716 H 0.249 0.36464 0.04598 0.0
C1717 C 0.22808 0.3499 0.06831 0.0
C1718 C 0.24094 0.35216 0.05288 0.0
H1719 H 0.22688 0.36075 0.07371 0.0
H1720 H 0.30965 0.33683 0.0109 0.0
H1721 H 0.28285 0.33154 0.02546 0.0
H1722 H 0.30154 0.38549 0.03124 0.0
H1723 H 0.32846 0.39079 0.01691 0.0
H1724 H 0.27447 0.36629 0.04889 0.0
H1725 H 0.25821 0.33039 0.02491 0.0
H1726 H 0.23437 0.31186 0.05197 0.0
H1727 H 0.21217 0.30808 0.0796 0.0
C1728 C 0.73753 0.69023 0.3313 0.0
C1729 C 0.72337 0.68819 0.34344 0.0
C1730 C 0.7496 0.68795 0.34384 0.0
C1731 C 0.74773 0.68343 0.36886 0.0
C1732 C 0.73353 0.68134 0.38095 0.0
C1733 C 0.72147 0.68366 0.3684 0.0
C1734 C 0.7605 0.68143 0.38333 0.0
C1735 C 0.7726 0.67933 0.37318 0.0
C1736 C 0.78481 0.67701 0.38857 0.0
C1737 C 0.79129 0.66707 0.37905 0.0
C1738 C 0.80137 0.66322 0.39418 0.0
C1739 C 0.80519 0.66938 0.41897 0.0
H1740 H 0.78571 0.69257 0.42045 0.0
C1741 C 0.7998 0.68037 0.42785 0.0
C1742 C 0.7898 0.68423 0.41281 0.0
H1743 H 0.80275 0.6854 0.44688 0.0
H1744 H 0.73947 0.69385 0.3121 0.0
H1745 H 0.76048 0.69015 0.3339 0.0
H1746 H 0.73178 0.67797 0.40026 0.0
H1747 H 0.71074 0.68203 0.37831 0.0
H1748 H 0.75941 0.68104 0.40338 0.0
H1749 H 0.77298 0.67809 0.35316 0.0
H1750 H 0.78788 0.6616 0.36028 0.0
H1751 H 0.80535 0.65466 0.38699 0.0
C1752 C 0.30107 0.03808 0.37062 0.0
C1753 C 0.31248 0.0323 0.36774 0.0
C1754 C 0.30647 0.05541 0.37105 0.0
C1755 C 0.3235 0.06744 0.36889 0.0
C1756 C 0.33468 0.06157 0.36446 0.0
C1757 C 0.32927 0.04422 0.36389 0.0
C1758 C 0.33042 0.08606 0.37296 0.0
C1759 C 0.32224 0.09297 0.38434 0.0
C1760 C 0.3305 0.11077 0.39467 0.0
C1761 C 0.32044 0.11745 0.40233 0.0
C1762 C 0.32725 0.13254 0.41686 0.0
C1763 C 0.34423 0.14113 0.42417 0.0
H1764 H 0.35605 0.11555 0.39544 0.0
C1765 C 0.35453 0.1352 0.41497 0.0
C1766 C 0.34778 0.1202 0.40043 0.0
H1767 H 0.36769 0.14163 0.42039 0.0
H1768 H 0.28797 0.02923 0.37313 0.0
H1769 H 0.29722 0.05917 0.37353 0.0
H1770 H 0.34784 0.07046 0.36246 0.0
H1771 H 0.33839 0.04024 0.36142 0.0
H1772 H 0.34335 0.0942 0.36839 0.0
H1773 H 0.3092 0.08506 0.38841 0.0
H1774 H 0.3071 0.11048 0.39826 0.0
H1775 H 0.31902 0.13676 0.4239 0.0
C1776 C 0.97738 0.2738 0.35302 0.0
C1777 C 0.98382 0.29118 0.34939 0.0
C1778 C 0.96139 0.26386 0.36193 0.0
C1779 C 0.95144 0.27108 0.36738 0.0
C1780 C 0.95806 0.28853 0.36439 0.0
C1781 C 0.97404 0.29847 0.35536 0.0
C1782 C 0.93453 0.26109 0.37744 0.0
C1783 C 0.92476 0.24411 0.37417 0.0
C1784 C 0.90867 0.23439 0.38669 0.0
C1785 C 0.90352 0.21779 0.3938 0.0
C1786 C 0.88996 0.20937 0.40917 0.0
C1787 C 0.8813 0.21741 0.41737 0.0
H1788 H 0.90204 0.25414 0.38699 0.0
C1789 C 0.88547 0.23333 0.40843 0.0
C1790 C 0.89894 0.2417 0.39306 0.0
H1791 H 0.87888 0.23971 0.41453 0.0
H1792 H 0.98463 0.26779 0.34876 0.0
H1793 H 0.95705 0.25062 0.36484 0.0
H1794 H 0.95077 0.29448 0.36879 0.0
H1795 H 0.97863 0.31182 0.35283 0.0
H1796 H 0.93015 0.26815 0.38836 0.0
H1797 H 0.92909 0.23692 0.36349 0.0
H1798 H 0.91065 0.21177 0.38882 0.0
H1799 H 0.88701 0.19715 0.41607 0.0
C1800 C 0.02269 0.38198 0.3157 0.0
C1801 C 0.03848 0.38438 0.31019 0.0
C1802 C 0.01969 0.39558 0.31546 0.0
C1803 C 0.03252 0.41195 0.30988 0.0
C1804 C 0.0485 0.41444 0.3058 0.0
C1805 C 0.05146 0.40087 0.30595 0.0
C1806 C 0.02943 0.42615 0.30476 0.0
C1807 C 0.01524 0.42618 0.30974 0.0
C1808 C 0.01058 0.4376 0.29706 0.0
C1809 C 0.99381 0.43104 0.28941 0.0
C1810 C 0.9894 0.43956 0.27237 0.0
C1811 C 1.00164 0.45497 0.26313 0.0
H1812 H 0.03551 0.45955 0.29591 0.0
C1813 C 0.0181 0.46248 0.27279 0.0
C1814 C 0.02256 0.45386 0.28969 0.0
H1815 H 0.02772 0.47436 0.26583 0.0
H1816 H 0.0124 0.36945 0.31909 0.0
H1817 H 0.00711 0.39288 0.31838 0.0
H1818 H 0.05863 0.42685 0.30144 0.0
H1819 H 0.06385 0.40326 0.3019 0.0
H1820 H 0.03873 0.43628 0.294 0.0
H1821 H 0.00569 0.4161 0.32018 0.0
H1822 H 0.98431 0.41864 0.29499 0.0
H1823 H 0.97663 0.43355 0.26508 0.0
C1824 C 0.61503 0.64344 0.30413 0.0
C1825 C 0.63186 0.64886 0.31026 0.0
C1826 C 0.60304 0.62619 0.30272 0.0
C1827 C 0.60758 0.61389 0.30748 0.0
C1828 C 0.62429 0.61935 0.3144 0.0
C1829 C 0.63627 0.63662 0.31595 0.0
C1830 C 0.59583 0.59544 0.30251 0.0
C1831 C 0.57902 0.58819 0.30189 0.0
C1832 C 0.56748 0.57069 0.29145 0.0
C1833 C 0.5515 0.56668 0.28243 0.0
C1834 C 0.54141 0.55162 0.26844 0.0
C1835 C 0.54714 0.5403 0.2633 0.0
H1836 H 0.58424 0.56056 0.29592 0.0
C1837 C 0.56241 0.54352 0.2742 0.0
C1838 C 0.57243 0.55847 0.28834 0.0
H1839 H 0.567 0.53486 0.27067 0.0
H1840 H 0.61115 0.6525 0.29965 0.0
H1841 H 0.59045 0.62261 0.29669 0.0
H1842 H 0.62819 0.61018 0.31798 0.0
H1843 H 0.6491 0.64031 0.32072 0.0
H1844 H 0.60151 0.58792 0.29766 0.0
H1845 H 0.57347 0.59581 0.30703 0.0
H1846 H 0.54722 0.5757 0.28481 0.0
H1847 H 0.52971 0.54947 0.26012 0.0
C1848 C 0.36485 0.9727 0.33214 0.0
C1849 C 0.35921 0.98442 0.33376 0.0
C1850 C 0.38056 0.97742 0.32307 0.0
C1851 C 0.39106 0.99405 0.31551 0.0
C1852 C 0.38525 0.00563 0.31663 0.0
C1853 C 0.36954 1.00091 0.32572 0.0
C1854 C 0.40775 0.99963 0.30526 0.0
C1855 C 0.41657 0.99164 0.30856 0.0
C1856 C 0.43242 0.99684 0.29586 0.0
C1857 C 0.43617 0.98437 0.28788 0.0
C1858 C 0.44948 0.9885 0.27227 0.0
C1859 C 0.45931 0.00519 0.26478 0.0
H1860 H 0.44119 0.02386 0.29682 0.0
C1861 C 0.45652 0.01791 0.27459 0.0
C1862 C 0.44328 0.01381 0.29014 0.0
H1863 H 0.46397 0.03087 0.26893 0.0
H1864 H 0.35716 0.95984 0.33799 0.0
H1865 H 0.3842 0.96789 0.32174 0.0
H1866 H 0.39297 0.01846 0.31064 0.0
H1867 H 0.36558 0.01024 0.3267 0.0
H1868 H 0.41282 0.01077 0.29405 0.0
H1869 H 0.41162 0.98034 0.31933 0.0
H1870 H 0.42813 0.97124 0.29232 0.0
H1871 H 0.45131 0.97849 0.26461 0.0
C1872 C 0.61064 0.99283 0.35441 0.0
C1873 C 0.62396 0.99371 0.34112 0.0
C1874 C 0.59989 0.99773 0.34372 0.0
C1875 C 0.60216 0.00358 0.31938 0.0
C1876 C 0.61547 0.00444 0.30612 0.0
C1877 C 0.6262 0.9995 0.31679 0.0
C1878 C 0.59137 0.00941 0.30741 0.0
C1879 C 0.57581 0.00497 0.31439 0.0
C1880 C 0.56516 0.01013 0.30039 0.0
C1881 C 0.54789 0.99883 0.29744 0.0
C1882 C 0.5381 1.00224 0.28099 0.0
C1883 C 0.54544 0.0171 0.26748 0.0
H1884 H 0.58523 0.03507 0.29146 0.0
C1885 C 0.56233 0.02918 0.27247 0.0
C1886 C 0.5721 0.02575 0.28876 0.0
H1887 H 0.56824 0.04084 0.2625 0.0
H1888 H 0.6086 0.98853 0.37327 0.0
H1889 H 0.59009 0.99726 0.35486 0.0
H1890 H 0.61759 0.00898 0.28738 0.0
H1891 H 0.63636 1.0004 0.30607 0.0
H1892 H 0.59617 0.01698 0.29113 0.0
H1893 H 0.57012 0.99608 0.32904 0.0
H1894 H 0.54219 0.98684 0.30655 0.0
H1895 H 0.52512 0.99269 0.27741 0.0
C1896 C 0.01636 0.6271 0.32196 0.0
C1897 C 0.03298 0.63909 0.31706 0.0
C1898 C 0.01112 0.60978 0.32201 0.0
C1899 C 0.02242 0.60408 0.31699 0.0
C1900 C 0.03926 0.6162 0.31406 0.0
C1901 C 0.04448 0.63345 0.31402 0.0
C1902 C 0.01716 0.58586 0.31231 0.0
C1903 C 1.00141 0.57377 0.30559 0.0
C1904 C 0.99748 0.55761 0.29229 0.0
C1905 C 0.9841 0.55052 0.27467 0.0
C1906 C 0.98222 0.53788 0.25759 0.0
C1907 C 0.99353 0.53189 0.25805 0.0
H1908 H 0.01776 0.55496 0.30842 0.0
C1909 C 0.00576 0.53753 0.27737 0.0
C1910 C 0.00772 0.5503 0.29444 0.0
H1911 H 0.0146 0.53305 0.2781 0.0
H1912 H 0.00721 0.63101 0.3248 0.0
H1913 H 0.99816 0.60099 0.32533 0.0
H1914 H 0.04833 0.61228 0.31049 0.0
H1915 H 0.05744 0.64231 0.31057 0.0
H1916 H 0.02715 0.58299 0.31058 0.0
H1917 H 0.99151 0.57684 0.3057 0.0
H1918 H 0.97586 0.55568 0.27279 0.0
H1919 H 0.97265 0.53364 0.24288 0.0
C1920 C 0.3851 0.39053 0.35849 0.0
C1921 C 0.37005 0.37952 0.34528 0.0
C1922 C 0.39852 0.40344 0.34642 0.0
C1923 C 0.39712 0.40555 0.32084 0.0
C1924 C 0.38218 0.39434 0.30764 0.0
C1925 C 0.36881 0.38144 0.31966 0.0
C1926 C 0.41046 0.41972 0.30738 0.0
C1927 C 0.42666 0.42867 0.31507 0.0
C1928 C 0.43921 0.44216 0.29974 0.0
C1929 C 0.45511 0.44398 0.29764 0.0
C1930 C 0.46603 0.45469 0.2801 0.0
C1931 C 0.46117 0.46379 0.26466 0.0
H1932 H 0.42318 0.45192 0.28783 0.0
C1933 C 0.44592 0.46315 0.26845 0.0
C1934 C 0.43508 0.45251 0.2859 0.0
H1935 H 0.44203 0.47026 0.25698 0.0
H1936 H 0.38643 0.38942 0.37829 0.0
H1937 H 0.40968 0.41199 0.35738 0.0
H1938 H 0.38073 0.39569 0.28793 0.0
H1939 H 0.3574 0.3732 0.30892 0.0
H1940 H 0.40677 0.42243 0.28954 0.0
H1941 H 0.43105 0.42517 0.3315 0.0
H1942 H 0.45866 0.43631 0.30841 0.0
H1943 H 0.47773 0.45497 0.27745 0.0
C1944 C 0.33041 0.29294 0.34723 0.0
C1945 C 0.31407 0.28817 0.35386 0.0
C1946 C 0.33567 0.28098 0.34616 0.0
C1947 C 0.32469 0.26401 0.35194 0.0
C1948 C 0.30797 0.25902 0.35624 0.0
C1949 C 0.30272 0.27093 0.35726 0.0
C1950 C 0.33033 0.2516 0.35673 0.0
C1951 C 0.34624 0.25625 0.3633 0.0
C1952 C 0.35052 0.24549 0.37861 0.0
C1953 C 0.36394 0.25369 0.39604 0.0
C1954 C 0.36595 0.24473 0.41513 0.0
C1955 C 0.35472 0.22732 0.41693 0.0
H1956 H 0.33034 0.22083 0.36508 0.0
C1957 C 0.3425 0.21869 0.3979 0.0
C1958 C 0.34041 0.22771 0.3788 0.0
H1959 H 0.33378 0.20523 0.39883 0.0
H1960 H 0.3394 0.30605 0.34395 0.0
H1961 H 0.34847 0.28528 0.34167 0.0
H1962 H 0.29913 0.24602 0.36039 0.0
H1963 H 0.28995 0.2667 0.36196 0.0
H1964 H 0.32055 0.23866 0.35944 0.0
H1965 H 0.35595 0.26938 0.36201 0.0
H1966 H 0.37209 0.26732 0.39615 0.0
H1967 H 0.37561 0.2516 0.42947 0.0
C1968 C 0.7315 0.04188 0.36613 0.0
C1969 C 0.71416 0.03489 0.36234 0.0
C1970 C 0.74225 0.05944 0.36649 0.0
C1971 C 0.73592 0.07046 0.36304 0.0
C1972 C 0.71869 0.06342 0.35818 0.0
C1973 C 0.70794 0.04585 0.35765 0.0
C1974 C 0.74642 0.0891 0.36799 0.0
C1975 C 0.76322 0.09776 0.36671 0.0
C1976 C 0.77428 0.11494 0.37868 0.0
C1977 C 0.79141 0.12057 0.38201 0.0
C1978 C 0.8016 0.1344 0.39818 0.0
C1979 C 0.79482 0.14284 0.4113 0.0
H1980 H 0.7552 0.12153 0.38691 0.0
C1981 C 0.77822 0.1385 0.4059 0.0
C1982 C 0.76806 0.12479 0.38958 0.0
H1983 H 0.77276 0.14492 0.41576 0.0
H1984 H 0.73675 0.03384 0.36976 0.0
H1985 H 0.75534 0.06426 0.37093 0.0
H1986 H 0.71343 0.07158 0.35567 0.0
H1987 H 0.69467 0.04093 0.35466 0.0
H1988 H 0.73991 0.09541 0.37472 0.0
H1989 H 0.76934 0.09129 0.3589 0.0
H1990 H 0.79667 0.11346 0.37364 0.0
H1991 H 0.81434 0.13744 0.40219 0.0
C1992 C 0.96473 0.67578 0.31488 0.0
C1993 C 0.97797 0.6759 0.3284 0.0
C1994 C 0.94983 0.67175 0.32629 0.0
C1995 C 0.94787 0.66781 0.35155 0.0
C1996 C 0.96104 0.66776 0.36493 0.0
C1997 C 0.97594 0.67181 0.35355 0.0
C1998 C 0.93232 0.66342 0.36465 0.0
C1999 C 0.92094 0.66768 0.35714 0.0
C2000 C 0.90668 0.66461 0.37266 0.0
C2001 C 0.90119 0.67646 0.3733 0.0
C2002 C 0.88982 0.6754 0.39092 0.0
C2003 C 0.8837 0.66237 0.40787 0.0
H2004 H 0.90266 0.64093 0.38744 0.0
C2005 C 0.88798 0.64967 0.40571 0.0
C2006 C 0.89926 0.65069 0.38814 0.0
H2007 H 0.88333 0.63948 0.41863 0.0
H2008 H 0.96583 0.67874 0.2954 0.0
H2009 H 0.93986 0.6715 0.31511 0.0
H2010 H 0.95986 0.66467 0.38437 0.0
H2011 H 0.98585 0.67172 0.36448 0.0
H2012 H 0.93084 0.65743 0.38236 0.0
H2013 H 0.923 0.67512 0.3408 0.0
H2014 H 0.90654 0.68717 0.36132 0.0
H2015 H 0.88676 0.68539 0.39246 0.0
C2016 C 0.40741 0.02761 0.65863 0.0
C2017 C 0.39182 0.02289 0.66862 0.0
C2018 C 0.4184 0.02336 0.67025 0.0
C2019 C 0.41408 0.01431 0.69224 0.0
C2020 C 0.39851 0.00963 0.70222 0.0
C2021 C 0.38753 0.01392 0.69064 0.0
C2022 C 0.42501 0.00883 0.70472 0.0
C2023 C 0.4416 0.01598 0.70166 0.0
C2024 C 0.45196 0.01026 0.71524 0.0
C2025 C 0.46858 0.02207 0.72256 0.0
C2026 C 0.4779 0.01731 0.73781 0.0
C2027 C 0.47074 1.00061 0.74575 0.0
H2028 H 0.43286 0.98365 0.71536 0.0
C2029 C 0.45463 0.98853 0.73669 0.0
C2030 C 0.44535 0.99327 0.72158 0.0
H2031 H 0.44892 0.9755 0.74222 0.0
H2032 H 0.4111 0.03445 0.64161 0.0
H2033 H 0.43005 0.02685 0.66154 0.0
H2034 H 0.39477 1.00255 0.71906 0.0
H2035 H 0.37561 0.01004 0.69879 0.0
H2036 H 0.41913 0.99884 0.71791 0.0
H2037 H 0.44802 0.02704 0.69048 0.0
H2038 H 0.47407 0.03518 0.71756 0.0
H2039 H 0.49027 0.02688 0.74459 0.0
C2040 C 0.96796 0.36908 0.71213 0.0
C2041 C 0.97905 0.36305 0.70787 0.0
C2042 C 0.97351 0.38644 0.71233 0.0
C2043 C 0.99034 0.39822 0.70818 0.0
C2044 C 1.00125 0.39214 0.70293 0.0
C2045 C 0.99567 0.37476 0.70263 0.0
C2046 C 0.99741 0.4168 0.71243 0.0
C2047 C 0.98826 0.42458 0.71218 0.0
C2048 C 0.99465 0.44209 0.72283 0.0
C2049 C 0.98315 0.44636 0.73239 0.0
C2050 C 0.98866 0.46116 0.74719 0.0
C2051 C 0.00576 0.47193 0.75255 0.0
H2052 H 0.02114 0.45158 0.71804 0.0
C2053 C 0.0173 0.46859 0.741 0.0
C2054 C 0.01182 0.45391 0.72603 0.0
H2055 H 0.03057 0.47682 0.74482 0.0
H2056 H 0.95505 0.36043 0.71619 0.0
H2057 H 0.96474 0.3905 0.71706 0.0
H2058 H 0.01429 0.40091 0.69984 0.0
H2059 H 1.00457 0.3706 0.69923 0.0
H2060 H 0.01057 0.42397 0.71787 0.0
H2061 H 0.97512 0.41736 0.70658 0.0
H2062 H 0.96985 0.43764 0.72994 0.0
H2063 H 0.97955 0.46345 0.75607 0.0
C2064 C 0.63706 0.60819 0.65365 0.0
C2065 C 0.65052 0.62165 0.66721 0.0
C2066 C 0.62359 0.59548 0.66588 0.0
C2067 C 0.62327 0.596 0.69199 0.0
C2068 C 0.63669 0.60952 0.70547 0.0
C2069 C 0.65012 0.62224 0.69326 0.0
C2070 C 0.60962 0.58249 0.706 0.0
C2071 C 0.59416 0.57162 0.6964 0.0
C2072 C 0.5808 0.55943 0.71224 0.0
C2073 C 0.56441 0.55628 0.70863 0.0
C2074 C 0.55238 0.5474 0.72614 0.0
C2075 C 0.55661 0.54144 0.74732 0.0
H2076 H 0.59679 0.55349 0.73478 0.0
C2077 C 0.57248 0.54303 0.74946 0.0
C2078 C 0.58445 0.5519 0.73205 0.0
H2079 H 0.57595 0.53835 0.76551 0.0
H2080 H 0.63702 0.6073 0.63355 0.0
H2081 H 0.61372 0.58511 0.65479 0.0
H2082 H 0.63682 0.61023 0.72561 0.0
H2083 H 0.6603 0.63239 0.70427 0.0
H2084 H 0.61223 0.58215 0.7257 0.0
H2085 H 0.59072 0.57277 0.67746 0.0
H2086 H 0.56122 0.56173 0.69326 0.0
H2087 H 0.54024 0.54637 0.72415 0.0
C2088 C 0.71256 0.73184 0.64526 0.0
C2089 C 0.70136 0.71449 0.64817 0.0
C2090 C 0.70692 0.74346 0.64488 0.0
C2091 C 0.68989 0.73801 0.64749 0.0
C2092 C 0.67885 0.7208 0.65161 0.0
C2093 C 0.68451 0.70918 0.65209 0.0
C2094 C 0.68287 0.74924 0.64255 0.0
C2095 C 0.69202 0.76634 0.64287 0.0
C2096 C 0.68599 0.77693 0.63088 0.0
C2097 C 0.69776 0.7922 0.62056 0.0
C2098 C 0.69258 0.80074 0.60463 0.0
C2099 C 0.67555 0.79421 0.59908 0.0
H2100 H 0.65941 0.7601 0.63556 0.0
C2101 C 0.66374 0.77987 0.61114 0.0
C2102 C 0.66889 0.77138 0.62713 0.0
H2103 H 0.65053 0.77466 0.607 0.0
H2104 H 0.72564 0.73641 0.6423 0.0
H2105 H 0.71586 0.75645 0.64108 0.0
H2106 H 0.66565 0.71621 0.65353 0.0
H2107 H 0.67553 0.69592 0.65442 0.0
H2108 H 0.66987 0.74289 0.63619 0.0
H2109 H 0.70501 0.7727 0.64931 0.0
H2110 H 0.71101 0.79688 0.62332 0.0
H2111 H 0.70187 0.81169 0.59527 0.0
C2112 C 0.28102 0.97469 0.63963 0.0
C2113 C 0.29813 0.98036 0.64347 0.0
C2114 C 0.26918 0.95739 0.63895 0.0
C2115 C 0.27416 0.94527 0.64217 0.0
C2116 C 0.29117 0.95098 0.64706 0.0
C2117 C 0.30302 0.96831 0.64785 0.0
C2118 C 0.26245 0.92675 0.63748 0.0
C2119 C 0.24563 0.91926 0.63759 0.0
C2120 C 0.23417 0.90176 0.62705 0.0
C2121 C 0.23923 0.88963 0.62395 0.0
C2122 C 0.22943 0.8748 0.60945 0.0
C2123 C 0.21427 0.87161 0.59817 0.0
H2124 H 0.21386 0.90665 0.62014 0.0
C2125 C 0.20835 0.88276 0.60339 0.0
C2126 C 0.21822 0.8977 0.61777 0.0
H2127 H 0.19676 0.88064 0.5947 0.0
H2128 H 0.27676 0.9836 0.63624 0.0
H2129 H 0.25632 0.95367 0.63456 0.0
H2130 H 0.29541 0.94196 0.64948 0.0
H2131 H 0.31607 0.97218 0.65087 0.0
H2132 H 0.26815 0.91935 0.63198 0.0
H2133 H 0.23996 0.92667 0.64322 0.0
H2134 H 0.25103 0.89179 0.63172 0.0
H2135 H 0.2342 0.8663 0.60573 0.0
C2136 C 0.04169 0.31836 0.69401 0.0
C2137 C 0.02902 0.3201 0.68201 0.0
C2138 C 0.05473 0.31895 0.68062 0.0
C2139 C 0.05544 0.3214 0.65487 0.0
C2140 C 0.04284 0.32328 0.64296 0.0
C2141 C 0.02981 0.32271 0.65635 0.0
C2142 C 0.06859 0.32136 0.63953 0.0
C2143 C 0.08348 0.32411 0.64862 0.0
C2144 C 0.09638 0.32473 0.63203 0.0
C2145 C 0.11335 0.33615 0.63781 0.0
C2146 C 0.12549 0.33866 0.62068 0.0
C2147 C 0.12079 0.32967 0.59763 0.0
H2148 H 0.07907 0.30521 0.6054 0.0
C2149 C 0.10403 0.31714 0.59291 0.0
C2150 C 0.09194 0.31466 0.60994 0.0
H2151 H 0.10015 0.30983 0.57543 0.0
H2152 H 0.04142 0.31623 0.71375 0.0
H2153 H 0.06392 0.31704 0.69046 0.0
H2154 H 0.043 0.32511 0.62312 0.0
H2155 H 0.02023 0.32405 0.64652 0.0
H2156 H 0.06611 0.31974 0.61953 0.0
H2157 H 0.08692 0.32739 0.6682 0.0
H2158 H 0.11711 0.34384 0.65492 0.0
H2159 H 0.13833 0.34841 0.62473 0.0
C2160 C 0.28793 0.3422 0.69302 0.0
C2161 C 0.29439 0.33327 0.68018 0.0
C2162 C 0.27432 0.34308 0.68304 0.0
C2163 C 0.26688 0.33506 0.65989 0.0
C2164 C 0.27346 0.3263 0.64696 0.0
C2165 C 0.28712 0.32547 0.65689 0.0
C2166 C 0.25191 0.33497 0.64898 0.0
C2167 C 0.24742 0.34658 0.65482 0.0
C2168 C 0.23326 0.34672 0.64153 0.0
C2169 C 0.23483 0.36226 0.63505 0.0
C2170 C 0.22304 0.36264 0.61875 0.0
C2171 C 0.2093 0.34747 0.6093 0.0
H2172 H 0.21695 0.31941 0.63895 0.0
C2173 C 0.20687 0.33197 0.61767 0.0
C2174 C 0.21875 0.33158 0.63368 0.0
H2175 H 0.1965 0.32012 0.61023 0.0
H2176 H 0.29317 0.34828 0.71108 0.0
H2177 H 0.26944 0.34964 0.6939 0.0
H2178 H 0.26796 0.31995 0.62911 0.0
H2179 H 0.29172 0.31843 0.64656 0.0
H2180 H 0.24483 0.32543 0.63435 0.0
H2181 H 0.25524 0.35721 0.66754 0.0
H2182 H 0.24581 0.3741 0.64106 0.0
H2183 H 0.22531 0.3747 0.61207 0.0
C2184 C 0.684 0.96138 0.66461 0.0
C2185 C 0.70067 0.97294 0.65936 0.0
C2186 C 0.67833 0.94397 0.66518 0.0
C2187 C 0.68926 0.93776 0.6604 0.0
C2188 C 0.70617 0.9495 0.65707 0.0
C2189 C 0.7118 0.96682 0.65649 0.0
C2190 C 0.68359 0.91939 0.65618 0.0
C2191 C 0.66755 0.90718 0.65158 0.0
C2192 C 0.66289 0.89075 0.63841 0.0
C2193 C 0.64846 0.88322 0.62278 0.0
C2194 C 0.64576 0.87051 0.60522 0.0
C2195 C 0.65738 0.86496 0.60313 0.0
H2196 H 0.68423 0.8886 0.65095 0.0
C2197 C 0.67066 0.8709 0.62082 0.0
C2198 C 0.67339 0.88368 0.63841 0.0
H2199 H 0.67973 0.86675 0.6197 0.0
H2200 H 0.67513 0.96567 0.66729 0.0
H2201 H 0.66532 0.93554 0.66869 0.0
H2202 H 0.71497 0.94521 0.65365 0.0
H2203 H 0.7248 0.97534 0.65281 0.0
H2204 H 0.69337 0.91637 0.65307 0.0
H2205 H 0.65769 0.91021 0.65336 0.0
H2206 H 0.63997 0.88815 0.62265 0.0
H2207 H 0.63531 0.86597 0.59194 0.0
C2208 C 0.04427 0.72219 0.66702 0.0
C2209 C 0.03733 0.72812 0.68482 0.0
C2210 C 0.05986 0.73316 0.65758 0.0
C2211 C 0.06882 0.75033 0.66568 0.0
C2212 C 0.06174 0.75631 0.68311 0.0
C2213 C 0.04624 0.74529 0.69279 0.0
C2214 C 0.08491 0.76249 0.65487 0.0
C2215 C 0.09578 0.75791 0.64665 0.0
C2216 C 0.11021 0.76886 0.63139 0.0
C2217 C 0.11574 0.76094 0.61452 0.0
C2218 C 0.12723 0.77033 0.5968 0.0
C2219 C 0.13362 0.78787 0.59587 0.0
H2220 H 0.11424 0.79332 0.64514 0.0
C2221 C 0.12934 0.79609 0.61414 0.0
C2222 C 0.1177 0.78667 0.6318 0.0
H2223 H 0.13417 0.80963 0.61377 0.0
H2224 H 0.03769 0.70904 0.66044 0.0
H2225 H 0.06464 0.72822 0.6435 0.0
H2226 H 0.06827 0.76953 0.68935 0.0
H2227 H 0.0412 0.75027 0.7064 0.0
H2228 H 0.08742 0.77536 0.6529 0.0
H2229 H 0.09311 0.745 0.64907 0.0
H2230 H 0.11039 0.7473 0.61399 0.0
H2231 H 0.13046 0.76374 0.58294 0.0
C2232 C 0.97724 0.61594 0.69469 0.0
C2233 C 0.98785 0.63348 0.6926 0.0
C2234 C 0.98366 0.60497 0.69454 0.0
C2235 C 1.00089 0.61128 0.69212 0.0
C2236 C 0.01125 0.62864 0.68821 0.0
C2237 C 0.00483 0.63962 0.68837 0.0
C2238 C 0.00881 0.60095 0.69784 0.0
C2239 C 1.00018 0.584 0.70008 0.0
C2240 C 0.00625 0.57465 0.71543 0.0
C2241 C 0.0192 0.58304 0.73373 0.0
C2242 C 0.0217 0.57393 0.7521 0.0
C2243 C 0.01136 0.55629 0.75267 0.0
H2244 H 0.98684 0.55001 0.70105 0.0
C2245 C 0.99948 0.5477 0.73324 0.0
C2246 C 0.99691 0.55683 0.71482 0.0
H2247 H 0.99131 0.53409 0.73337 0.0
H2248 H 0.96407 0.61073 0.69778 0.0
H2249 H 0.97514 0.59181 0.698 0.0
H2250 H 0.02456 0.63389 0.68636 0.0
H2251 H 0.01336 0.65304 0.6865 0.0
H2252 H 0.02205 0.60792 0.70286 0.0
H2253 H 0.98741 0.57678 0.6927 0.0
H2254 H 0.02662 0.5967 0.73535 0.0
H2255 H 0.031 0.5808 0.76689 0.0
C2256 C 0.37501 0.38045 0.69866 0.0
C2257 C 0.38089 0.36908 0.70211 0.0
C2258 C 0.38619 0.39795 0.69867 0.0
C2259 C 0.40348 0.40446 0.70164 0.0
C2260 C 0.40939 0.39301 0.70396 0.0
C2261 C 0.39823 0.37556 0.7042 0.0
C2262 C 0.41473 0.42309 0.70577 0.0
C2263 C 0.43132 0.43116 0.70213 0.0
C2264 C 0.44337 0.44846 0.71285 0.0
C2265 C 0.46025 0.45302 0.71608 0.0
C2266 C 0.47126 0.46716 0.73116 0.0
C2267 C 0.46558 0.477 0.74326 0.0
H2268 H 0.4257 0.45715 0.71961 0.0
C2269 C 0.44929 0.47366 0.73772 0.0
C2270 C 0.43831 0.45961 0.72252 0.0
H2271 H 0.44467 0.48117 0.74671 0.0
H2272 H 0.36174 0.37592 0.69705 0.0
H2273 H 0.38126 0.40646 0.69711 0.0
H2274 H 0.42255 0.39744 0.70699 0.0
H2275 H 0.40322 0.36718 0.70683 0.0
H2276 H 0.40911 0.42992 0.71391 0.0
H2277 H 0.43659 0.42414 0.69337 0.0
H2278 H 0.46463 0.44488 0.70856 0.0
H2279 H 0.48373 0.4694 0.73524 0.0
C2280 C 0.63595 0.01386 0.65581 0.0
C2281 C 0.64853 0.01323 0.67009 0.0
C2282 C 0.62087 0.0102 0.66625 0.0
C2283 C 0.61805 0.0059 0.6913 0.0
C2284 C 0.63057 0.00514 0.70547 0.0
C2285 C 0.64567 0.00883 0.69505 0.0
C2286 C 0.60218 1.00173 0.70326 0.0
C2287 C 0.59145 0.00667 0.69506 0.0
C2288 C 0.57667 0.00356 0.7093 0.0
C2289 C 0.57178 0.01587 0.71015 0.0
C2290 C 0.55982 0.0146 0.7268 0.0
C2291 C 0.55247 1.00087 0.74249 0.0
H2292 H 0.57111 0.97901 0.72249 0.0
C2293 C 0.5562 0.98779 0.73996 0.0
C2294 C 0.56811 0.98905 0.72341 0.0
H2295 H 0.55067 0.97711 0.75199 0.0
H2296 H 0.6377 0.01708 0.63645 0.0
H2297 H 0.61142 0.0105 0.65447 0.0
H2298 H 0.62871 1.00175 0.72478 0.0
H2299 H 0.65505 0.00815 0.70653 0.0
H2300 H 0.59982 0.99521 0.72064 0.0
H2301 H 0.59439 0.01463 0.67913 0.0
H2302 H 0.57803 0.02705 0.6992 0.0
H2303 H 0.55723 0.02491 0.72871 0.0
loop_
_geom_bond_atom_site_label_1
_geom_bond_atom_site_label_2
_geom_bond_distance
_geom_bond_site_symmetry_2
_ccdc_geom_bond_type
Mg0 O1 2.028 1_556 S
Mg0 O7 1.986 1_455 S
Mg0 O9 2.114 . S
Mg0 O10 2.251 1_455 S
Mg0 O13 2.010 1_556 S
O1 Mg0 2.028 1_554 S
O1 C4 1.250 1_455 S
O2 Mg3 2.028 1_554 S
O2 C4 1.248 . S
Mg3 O2 2.028 1_556 S
Mg3 O8 2.032 . S
Mg3 O10 2.079 . S
C4 O1 1.250 1_655 S
C4 O2 1.248 . S
C5 O6 1.256 1_554 S
C5 O13 1.249 . S
O6 C5 1.256 1_556 S
O7 Mg0 1.986 1_655 S
O7 C11 1.246 . S
O8 Mg3 2.032 . S
O8 C11 1.259 . S
O9 Mg0 2.114 . S
O9 C12 1.252 . S
O10 Mg0 2.251 1_655 S
O10 Mg3 2.079 . S
O10 C12 1.273 1_655 S
C11 O7 1.246 . S
C11 O8 1.259 . S
C12 O9 1.252 . S
C12 O10 1.273 1_455 S
O13 Mg0 2.010 1_554 S
O13 C5 1.249 . S
Mg14 O15 2.028 1_554 S
Mg14 O21 1.986 . S
Mg14 O23 2.114 . S
Mg14 O24 2.251 . S
Mg14 O27 2.010 . S
O15 Mg14 2.028 1_556 S
O15 C18 1.250 . S
O16 Mg17 2.028 1_556 S
O16 C18 1.248 . S
Mg17 O16 2.028 1_554 S
Mg17 O22 2.032 . S
Mg17 O24 2.079 . S
C18 O15 1.250 . S
C18 O16 1.248 . S
C19 O20 1.264 . S
C19 O27 1.249 . S
O20 C19 1.264 . S
O21 Mg14 1.986 . S
O21 C25 1.246 . S
O22 Mg17 2.032 . S
O22 C25 1.259 . S
O23 Mg14 2.114 . S
O23 C26 1.252 . S
O24 Mg14 2.251 . S
O24 Mg17 2.079 . S
O24 C26 1.273 . S
C25 O21 1.246 . S
C25 O22 1.259 . S
C26 O23 1.252 . S
C26 O24 1.273 . S
O27 Mg14 2.010 . S
O27 C19 1.249 . S
Mg28 O29 2.023 1_556 S
Mg28 O35 1.985 1_566 S
Mg28 O37 2.114 . S
Mg28 O38 2.251 1_565 S
Mg28 O41 2.010 1_556 S
O29 Mg28 2.023 1_554 S
O29 C32 1.244 1_565 S
O30 Mg31 2.028 1_554 S
O30 C32 1.248 . S
Mg31 O30 2.028 1_556 S
Mg31 O36 2.032 . S
Mg31 O38 2.079 . S
C32 O29 1.244 1_545 S
C32 O30 1.248 . S
C33 O34 1.264 1_554 S
C33 O41 1.249 . S
O34 C33 1.264 1_556 S
O35 Mg28 1.985 1_544 S
O35 C39 1.243 1_554 S
O36 Mg31 2.032 . S
O36 C39 1.259 . S
O37 Mg28 2.114 . S
O37 C40 1.252 . S
O38 Mg28 2.251 1_545 S
O38 Mg31 2.079 . S
O38 C40 1.273 1_545 S
C39 O35 1.243 1_556 S
C39 O36 1.259 . S
C40 O37 1.252 . S
C40 O38 1.273 1_565 S
O41 Mg28 2.010 1_554 S
O41 C33 1.249 . S
Mg42 O43 2.056 1_554 S
Mg42 O49 1.986 1_655 S
Mg42 O51 2.114 . S
Mg42 O52 2.251 1_655 S
Mg42 O55 2.010 . S
O43 Mg42 2.056 1_556 S
O43 C46 1.176 1_655 S
O44 Mg45 2.028 1_556 S
O44 C46 1.248 . S
Mg45 O44 2.028 1_554 S
Mg45 O50 2.032 . S
Mg45 O52 2.079 . S
C46 O43 1.176 1_455 S
C46 O44 1.248 . S
C47 O48 1.264 . S
C47 O55 1.249 . S
O48 C47 1.264 . S
O49 Mg42 1.986 1_455 S
O49 C53 1.246 . S
O50 Mg45 2.032 . S
O50 C53 1.259 . S
O51 Mg42 2.114 . S
O51 C54 1.252 . S
O52 Mg42 2.251 1_455 S
O52 Mg45 2.079 . S
O52 C54 1.273 1_455 S
C53 O49 1.246 . S
C53 O50 1.259 . S
C54 O51 1.252 . S
C54 O52 1.273 1_655 S
O55 Mg42 2.010 . S
O55 C47 1.249 . S
Mg56 O57 2.028 1_556 S
Mg56 O63 1.986 1_556 S
Mg56 O65 2.114 . S
Mg56 O66 2.251 . S
Mg56 O69 2.010 1_556 S
O57 Mg56 2.028 1_554 S
O57 C60 1.250 . S
O58 Mg59 2.028 1_554 S
O58 C60 1.248 . S
Mg59 O58 2.028 1_556 S
Mg59 O64 2.032 . S
Mg59 O66 2.079 . S
C60 O57 1.250 . S
C60 O58 1.248 . S
C61 O62 1.264 . S
C61 O69 1.249 . S
O62 C61 1.264 . S
O63 Mg56 1.986 1_554 S
O63 C67 1.246 1_554 S
O64 Mg59 2.032 . S
O64 C67 1.259 . S
O65 Mg56 2.114 . S
O65 C68 1.252 . S
O66 Mg56 2.251 . S
O66 Mg59 2.079 . S
O66 C68 1.273 . S
C67 O63 1.246 1_556 S
C67 O64 1.259 . S
C68 O65 1.252 . S
C68 O66 1.273 . S
O69 Mg56 2.010 1_554 S
O69 C61 1.249 . S
Mg70 O71 2.028 1_554 S
Mg70 O77 1.986 1_545 S
Mg70 O79 2.114 . S
Mg70 O80 2.251 1_545 S
Mg70 O83 2.010 . S
O71 Mg70 2.028 1_556 S
O71 C74 1.250 1_545 S
O72 Mg73 2.028 1_556 S
O72 C74 1.248 . S
Mg73 O72 2.028 1_554 S
Mg73 O78 2.032 . S
Mg73 O80 2.079 . S
C74 O71 1.250 1_565 S
C74 O72 1.248 . S
C75 O76 1.264 . S
C75 O83 1.249 . S
O76 C75 1.264 . S
O77 Mg70 1.986 1_565 S
O77 C81 1.246 . S
O78 Mg73 2.032 . S
O78 C81 1.259 . S
O79 Mg70 2.114 . S
O79 C82 1.252 . S
O80 Mg70 2.251 1_565 S
O80 Mg73 2.079 . S
O80 C82 1.273 1_565 S
C81 O77 1.246 . S
C81 O78 1.259 . S
C82 O79 1.252 . S
C82 O80 1.273 1_545 S
O83 Mg70 2.010 . S
O83 C75 1.249 . S
Mg84 O85 2.028 . S
Mg84 O91 1.986 . S
Mg84 O93 2.114 . S
Mg84 O94 2.251 . S
Mg84 O97 2.010 . S
O85 Mg84 2.028 . S
O85 C88 1.250 . S
O86 Mg87 2.028 . S
O86 C88 1.248 . S
Mg87 O86 2.028 . S
Mg87 O92 2.032 . S
Mg87 O94 2.079 . S
C88 O85 1.250 . S
C88 O86 1.248 . S
C89 O90 1.264 . S
C89 O97 1.249 . S
O90 C89 1.264 . S
O91 Mg84 1.986 . S
O91 C95 1.246 . S
O92 Mg87 2.032 . S
O92 C95 1.259 . S
O93 Mg84 2.114 . S
O93 C96 1.252 . S
O94 Mg84 2.251 . S
O94 Mg87 2.079 . S
O94 C96 1.273 . S
C95 O91 1.246 . S
C95 O92 1.259 . S
C96 O93 1.252 . S
C96 O94 1.273 . S
O97 Mg84 2.010 . S
O97 C89 1.249 . S
Mg98 O99 2.028 . S
Mg98 O105 1.986 1_565 S
Mg98 O107 2.114 . S
Mg98 O108 2.251 . S
Mg98 O111 2.010 . S
O99 Mg98 2.028 . S
O99 C102 1.250 . S
O100 Mg101 2.028 . S
O100 C102 1.248 . S
Mg101 O100 2.028 . S
Mg101 O106 2.032 1_565 S
Mg101 O108 2.079 . S
C102 O99 1.250 . S
C102 O100 1.248 . S
C103 O104 1.264 . S
C103 O111 1.249 . S
O104 C103 1.264 . S
O105 Mg98 1.986 1_545 S
O105 C109 1.246 . S
O106 Mg101 2.032 1_545 S
O106 C109 1.259 . S
O107 Mg98 2.114 . S
O107 C110 1.252 . S
O108 Mg98 2.251 . S
O108 Mg101 2.079 . S
O108 C110 1.273 . S
C109 O105 1.246 . S
C109 O106 1.259 . S
C110 O107 1.252 . S
C110 O108 1.273 . S
O111 Mg98 2.010 . S
O111 C103 1.249 . S
Mg112 O113 2.028 . S
Mg112 O119 1.986 . S
Mg112 O121 2.114 . S
Mg112 O122 2.251 . S
Mg112 O125 2.010 1_455 S
O113 Mg112 2.028 . S
O113 C116 1.250 . S
O114 Mg115 2.028 . S
O114 C116 1.248 . S
Mg115 O114 2.028 . S
Mg115 O120 2.032 . S
Mg115 O122 2.079 . S
C116 O113 1.250 . S
C116 O114 1.248 . S
C117 O118 1.264 . S
C117 O125 1.249 . S
O118 C117 1.264 . S
O119 Mg112 1.986 . S
O119 C123 1.246 . S
O120 Mg115 2.032 . S
O120 C123 1.259 . S
O121 Mg112 2.114 . S
O121 C124 1.252 . S
O122 Mg112 2.251 . S
O122 Mg115 2.079 . S
O122 C124 1.273 . S
C123 O119 1.246 . S
C123 O120 1.259 . S
C124 O121 1.252 . S
C124 O122 1.273 . S
O125 Mg112 2.010 1_655 S
O125 C117 1.249 . S
Mg126 O127 2.028 . S
Mg126 O133 1.986 1_565 S
Mg126 O135 2.114 . S
Mg126 O136 2.251 . S
Mg126 O139 2.010 . S
O127 Mg126 2.028 . S
O127 C130 1.250 . S
O128 Mg129 2.028 . S
O128 C130 1.248 . S
Mg129 O128 2.028 . S
Mg129 O134 2.032 1_565 S
Mg129 O136 2.079 . S
C130 O127 1.250 . S
C130 O128 1.248 . S
C131 O132 1.264 . S
C131 O139 1.249 . S
O132 C131 1.264 . S
O133 Mg126 1.986 1_545 S
O133 C137 1.246 . S
O134 Mg129 2.032 1_545 S
O134 C137 1.259 . S
O135 Mg126 2.114 . S
O135 C138 1.252 . S
O136 Mg126 2.251 . S
O136 Mg129 2.079 . S
O136 C138 1.273 . S
C137 O133 1.246 . S
C137 O134 1.259 . S
C138 O135 1.252 . S
C138 O136 1.273 . S
O139 Mg126 2.010 . S
O139 C131 1.249 . S
Mg140 O141 2.028 . S
Mg140 O147 1.986 . S
Mg140 O149 2.114 . S
Mg140 O150 2.251 . S
Mg140 O153 2.010 1_455 S
O141 Mg140 2.028 . S
O141 C144 1.250 . S
O142 Mg143 2.028 . S
O142 C144 1.248 . S
Mg143 O142 2.028 . S
Mg143 O148 2.032 . S
Mg143 O150 2.079 . S
C144 O141 1.250 . S
C144 O142 1.248 . S
C145 O146 1.264 . S
C145 O153 1.249 . S
O146 C145 1.264 . S
O147 Mg140 1.986 . S
O147 C151 1.246 . S
O148 Mg143 2.032 . S
O148 C151 1.259 . S
O149 Mg140 2.114 . S
O149 C152 1.252 . S
O150 Mg140 2.251 . S
O150 Mg143 2.079 . S
O150 C152 1.273 . S
C151 O147 1.246 . S
C151 O148 1.259 . S
C152 O149 1.252 . S
C152 O150 1.273 . S
O153 Mg140 2.010 1_655 S
O153 C145 1.249 . S
Mg154 O155 2.028 . S
Mg154 O161 1.986 . S
Mg154 O163 2.114 . S
Mg154 O164 2.251 . S
Mg154 O167 2.010 . S
O155 Mg154 2.028 . S
O155 C158 1.250 . S
O156 Mg157 2.028 . S
O156 C158 1.248 . S
Mg157 O156 2.028 . S
Mg157 O162 2.032 . S
Mg157 O164 2.079 . S
C158 O155 1.250 . S
C158 O156 1.248 . S
C159 O160 1.264 . S
C159 O167 1.249 . S
O160 C159 1.264 . S
O161 Mg154 1.986 . S
O161 C165 1.246 . S
O162 Mg157 2.032 . S
O162 C165 1.259 . S
O163 Mg154 2.114 . S
O163 C166 1.252 . S
O164 Mg154 2.251 . S
O164 Mg157 2.079 . S
O164 C166 1.273 . S
C165 O161 1.246 . S
C165 O162 1.259 . S
C166 O163 1.252 . S
C166 O164 1.273 . S
O167 Mg154 2.010 . S
O167 C159 1.249 . S
Mg168 O169 2.028 . S
Mg168 O175 1.986 1_545 S
Mg168 O177 2.114 . S
Mg168 O178 2.251 . S
Mg168 O181 2.010 . S
O169 Mg168 2.028 . S
O169 C172 1.250 . S
O170 Mg171 2.028 . S
O170 C172 1.248 . S
Mg171 O170 2.028 . S
Mg171 O176 2.027 . S
Mg171 O178 2.079 . S
C172 O169 1.250 . S
C172 O170 1.248 . S
C173 O174 1.264 . S
C173 O181 1.249 . S
O174 C173 1.264 . S
O175 Mg168 1.986 1_565 S
O175 C179 1.246 . S
O176 Mg171 2.027 . S
O176 C179 1.264 1_545 S
O177 Mg168 2.114 . S
O177 C180 1.252 . S
O178 Mg168 2.251 . S
O178 Mg171 2.079 . S
O178 C180 1.273 . S
C179 O175 1.246 . S
C179 O176 1.264 1_565 S
C180 O177 1.252 . S
C180 O178 1.273 . S
O181 Mg168 2.010 . S
O181 C173 1.249 . S
Mg182 O183 2.028 . S
Mg182 O189 1.986 . S
Mg182 O191 2.114 . S
Mg182 O192 2.251 . S
Mg182 O195 2.010 1_655 S
O183 Mg182 2.028 . S
O183 C186 1.250 . S
O184 Mg185 2.028 . S
O184 C186 1.248 . S
Mg185 O184 2.028 . S
Mg185 O190 2.032 . S
Mg185 O192 2.079 . S
C186 O183 1.250 . S
C186 O184 1.248 . S
C187 O188 1.264 . S
C187 O195 1.249 . S
O188 C187 1.264 . S
O189 Mg182 1.986 . S
O189 C193 1.246 . S
O190 Mg185 2.032 . S
O190 C193 1.259 . S
O191 Mg182 2.114 . S
O191 C194 1.252 . S
O192 Mg182 2.251 . S
O192 Mg185 2.079 . S
O192 C194 1.273 . S
C193 O189 1.246 . S
C193 O190 1.259 . S
C194 O191 1.252 . S
C194 O192 1.273 . S
O195 Mg182 2.010 1_455 S
O195 C187 1.249 . S
Mg196 O197 2.028 . S
Mg196 O203 1.986 . S
Mg196 O205 2.114 . S
Mg196 O206 2.251 . S
Mg196 O209 2.010 . S
O197 Mg196 2.028 . S
O197 C200 1.250 . S
O198 Mg199 2.028 . S
O198 C200 1.248 . S
Mg199 O198 2.028 . S
Mg199 O204 2.032 . S
Mg199 O206 2.079 . S
C200 O197 1.250 . S
C200 O198 1.248 . S
C201 O202 1.264 . S
C201 O209 1.249 . S
O202 C201 1.264 . S
O203 Mg196 1.986 . S
O203 C207 1.246 . S
O204 Mg199 2.032 . S
O204 C207 1.259 . S
O205 Mg196 2.114 . S
O205 C208 1.252 . S
O206 Mg196 2.251 . S
O206 Mg199 2.079 . S
O206 C208 1.273 . S
C207 O203 1.246 . S
C207 O204 1.259 . S
C208 O205 1.252 . S
C208 O206 1.273 . S
O209 Mg196 2.010 . S
O209 C201 1.249 . S
Mg210 O211 2.028 . S
Mg210 O217 1.986 . S
Mg210 O219 2.114 . S
Mg210 O220 2.251 . S
Mg210 O223 2.010 . S
O211 Mg210 2.028 . S
O211 C214 1.250 . S
O212 Mg213 2.028 . S
O212 C214 1.248 . S
Mg213 O212 2.028 . S
Mg213 O218 2.032 . S
Mg213 O220 2.079 . S
C214 O211 1.250 . S
C214 O212 1.248 . S
C215 O216 1.264 . S
C215 O223 1.249 . S
O216 C215 1.264 . S
O217 Mg210 1.986 . S
O217 C221 1.246 . S
O218 Mg213 2.032 . S
O218 C221 1.259 . S
O219 Mg210 2.114 . S
O219 C222 1.252 . S
O220 Mg210 2.251 . S
O220 Mg213 2.079 . S
O220 C222 1.273 . S
C221 O217 1.246 . S
C221 O218 1.259 . S
C222 O219 1.252 . S
C222 O220 1.273 . S
O223 Mg210 2.010 . S
O223 C215 1.249 . S
Mg224 O225 2.028 . S
Mg224 O231 1.986 1_545 S
Mg224 O233 2.114 . S
Mg224 O234 2.251 . S
Mg224 O237 2.010 . S
O225 Mg224 2.028 . S
O225 C228 1.250 . S
O226 Mg227 2.028 . S
O226 C228 1.248 . S
Mg227 O226 2.028 . S
Mg227 O232 2.032 1_545 S
Mg227 O234 2.079 . S
C228 O225 1.250 . S
C228 O226 1.248 . S
C229 O230 1.264 . S
C229 O237 1.249 . S
O230 C229 1.264 . S
O231 Mg224 1.986 1_565 S
O231 C235 1.246 . S
O232 Mg227 2.032 1_565 S
O232 C235 1.259 . S
O233 Mg224 2.114 . S
O233 C236 1.252 . S
O234 Mg224 2.251 . S
O234 Mg227 2.079 . S
O234 C236 1.273 . S
C235 O231 1.246 . S
C235 O232 1.259 . S
C236 O233 1.252 . S
C236 O234 1.273 . S
O237 Mg224 2.010 . S
O237 C229 1.249 . S
Mg238 O239 2.028 . S
Mg238 O245 1.986 . S
Mg238 O247 2.114 . S
Mg238 O248 2.251 . S
Mg238 O251 2.010 1_655 S
O239 Mg238 2.028 . S
O239 C242 1.250 . S
O240 Mg241 2.028 . S
O240 C242 1.248 . S
Mg241 O240 2.028 . S
Mg241 O246 2.032 . S
Mg241 O248 2.079 . S
C242 O239 1.250 . S
C242 O240 1.248 . S
C243 O244 1.264 . S
C243 O251 1.249 . S
O244 C243 1.264 . S
O245 Mg238 1.986 . S
O245 C249 1.246 . S
O246 Mg241 2.032 . S
O246 C249 1.259 . S
O247 Mg238 2.114 . S
O247 C250 1.252 . S
O248 Mg238 2.251 . S
O248 Mg241 2.079 . S
O248 C250 1.273 . S
C249 O245 1.246 . S
C249 O246 1.259 . S
C250 O247 1.252 . S
C250 O248 1.273 . S
O251 Mg238 2.010 1_455 S
O251 C243 1.249 . S
H252 C258 0.930 . S
H253 C261 0.931 . S
H254 C263 0.931 . S
H255 C265 0.930 . S
H256 C267 0.930 . S
H257 C269 0.931 . S
C258 H252 0.930 . S
C258 C259 1.380 . S
C258 C260 1.394 . S
C259 C258 1.380 . S
C259 C263 1.382 . S
C260 C258 1.394 . S
C260 C261 1.400 . S
C261 H253 0.931 . S
C261 C260 1.400 . S
C261 C262 1.375 . S
C262 C261 1.375 . S
C262 C263 1.415 . S
C262 C264 1.501 . S
C263 H254 0.931 . S
C263 C259 1.382 . S
C263 C262 1.415 . S
C264 C262 1.501 . S
C264 C265 1.384 . S
C264 C269 1.408 . S
C265 H255 0.930 . S
C265 C264 1.384 . S
C265 C266 1.389 . S
C266 C265 1.389 . S
C266 C267 1.405 . S
C267 H256 0.930 . S
C267 C266 1.405 . S
C267 C268 1.364 . S
C268 C267 1.364 . S
C268 C269 1.400 . S
C269 H257 0.931 . S
C269 C264 1.408 . S
C269 C268 1.400 . S
H270 C276 0.930 . S
H271 C279 0.931 . S
H272 C281 0.931 . S
H273 C283 0.930 . S
H274 C285 0.930 . S
H275 C287 0.931 . S
C276 H270 0.930 . S
C276 C277 1.380 . S
C276 C278 1.394 . S
C277 C276 1.380 . S
C277 C281 1.382 . S
C278 C276 1.394 . S
C278 C279 1.400 . S
C279 H271 0.931 . S
C279 C278 1.400 . S
C279 C280 1.375 . S
C280 C279 1.375 . S
C280 C281 1.415 . S
C280 C282 1.501 . S
C281 H272 0.931 . S
C281 C277 1.382 . S
C281 C280 1.415 . S
C282 C280 1.501 . S
C282 C283 1.384 . S
C282 C287 1.408 . S
C283 H273 0.930 . S
C283 C282 1.384 . S
C283 C284 1.389 . S
C284 C283 1.389 . S
C284 C285 1.405 . S
C285 H274 0.930 . S
C285 C284 1.405 . S
C285 C286 1.364 . S
C286 C285 1.364 . S
C286 C287 1.400 . S
C287 H275 0.931 . S
C287 C282 1.408 . S
C287 C286 1.400 . S
H288 C294 0.930 . S
H289 C297 0.931 . S
H290 C299 0.931 . S
H291 C301 0.930 . S
H292 C303 0.930 . S
H293 C305 0.931 . S
C294 H288 0.930 . S
C294 C295 1.380 . S
C294 C296 1.394 . S
C295 C294 1.380 . S
C295 C299 1.382 . S
C296 C294 1.394 . S
C296 C297 1.400 . S
C297 H289 0.931 . S
C297 C296 1.400 . S
C297 C298 1.375 . S
C298 C297 1.375 . S
C298 C299 1.415 . S
C298 C300 1.501 . S
C299 H290 0.931 . S
C299 C295 1.382 . S
C299 C298 1.415 . S
C300 C298 1.501 . S
C300 C301 1.384 . S
C300 C305 1.408 . S
C301 H291 0.930 . S
C301 C300 1.384 . S
C301 C302 1.389 . S
C302 C301 1.389 . S
C302 C303 1.405 . S
C303 H292 0.930 . S
C303 C302 1.405 . S
C303 C304 1.364 . S
C304 C303 1.364 . S
C304 C305 1.400 . S
C305 H293 0.931 . S
C305 C300 1.408 . S
C305 C304 1.400 . S
H306 C312 0.930 . S
H307 C315 0.931 . S
H308 C317 0.931 . S
H309 C319 0.930 . S
H310 C321 0.930 . S
H311 C323 0.931 . S
C312 H306 0.930 . S
C312 C313 1.380 . S
C312 C314 1.394 . S
C313 C312 1.380 . S
C313 C317 1.382 . S
C314 C312 1.394 . S
C314 C315 1.400 . S
C315 H307 0.931 . S
C315 C314 1.400 . S
C315 C316 1.375 . S
C316 C315 1.375 . S
C316 C317 1.415 . S
C316 C318 1.501 . S
C317 H308 0.931 . S
C317 C313 1.382 . S
C317 C316 1.415 . S
C318 C316 1.501 . S
C318 C319 1.384 . S
C318 C323 1.408 . S
C319 H309 0.930 . S
C319 C318 1.384 . S
C319 C320 1.389 . S
C320 C319 1.389 . S
C320 C321 1.405 . S
C321 H310 0.930 . S
C321 C320 1.405 . S
C321 C322 1.364 . S
C322 C321 1.364 . S
C322 C323 1.400 . S
C323 H311 0.931 . S
C323 C318 1.408 . S
C323 C322 1.400 . S
H324 C330 0.930 . S
H325 C333 0.931 . S
H326 C335 0.931 . S
H327 C337 0.930 . S
H328 C339 0.930 . S
H329 C341 0.931 . S
C330 H324 0.930 . S
C330 C331 1.380 . S
C330 C332 1.394 . S
C331 C330 1.380 . S
C331 C335 1.382 . S
C332 C330 1.394 . S
C332 C333 1.400 . S
C333 H325 0.931 . S
C333 C332 1.400 . S
C333 C334 1.375 . S
C334 C333 1.375 . S
C334 C335 1.415 . S
C334 C336 1.501 . S
C335 H326 0.931 . S
C335 C331 1.382 . S
C335 C334 1.415 . S
C336 C334 1.501 . S
C336 C337 1.384 . S
C336 C341 1.408 . S
C337 H327 0.930 . S
C337 C336 1.384 . S
C337 C338 1.389 . S
C338 C337 1.389 . S
C338 C339 1.405 . S
C339 H328 0.930 . S
C339 C338 1.405 . S
C339 C340 1.364 . S
C340 C339 1.364 . S
C340 C341 1.400 . S
C341 H329 0.931 . S
C341 C336 1.408 . S
C341 C340 1.400 . S
H342 C348 0.930 . S
H343 C351 0.931 . S
H344 C353 0.931 . S
H345 C355 0.930 . S
H346 C357 0.930 . S
H347 C359 0.931 . S
C348 H342 0.930 . S
C348 C349 1.380 . S
C348 C350 1.394 . S
C349 C348 1.380 . S
C349 C353 1.382 . S
C350 C348 1.394 . S
C350 C351 1.400 . S
C351 H343 0.931 . S
C351 C350 1.400 . S
C351 C352 1.375 . S
C352 C351 1.375 . S
C352 C353 1.415 . S
C352 C354 1.501 . S
C353 H344 0.931 . S
C353 C349 1.382 . S
C353 C352 1.415 . S
C354 C352 1.501 . S
C354 C355 1.384 . S
C354 C359 1.408 . S
C355 H345 0.930 . S
C355 C354 1.384 . S
C355 C356 1.389 . S
C356 C355 1.389 . S
C356 C357 1.405 . S
C357 H346 0.930 . S
C357 C356 1.405 . S
C357 C358 1.364 . S
C358 C357 1.364 . S
C358 C359 1.400 . S
C359 H347 0.931 . S
C359 C354 1.408 . S
C359 C358 1.400 . S
H360 C366 0.930 . S
H361 C369 0.931 . S
H362 C371 0.931 . S
H363 C373 0.930 . S
H364 C375 0.930 . S
H365 C377 0.931 . S
C366 H360 0.930 . S
C366 C367 1.380 . S
C366 C368 1.394 . S
C367 C366 1.380 . S
C367 C371 1.382 . S
C368 C366 1.394 . S
C368 C369 1.400 . S
C369 H361 0.931 . S
C369 C368 1.400 . S
C369 C370 1.375 . S
C370 C369 1.375 . S
C370 C371 1.415 . S
C370 C372 1.501 . S
C371 H362 0.931 . S
C371 C367 1.382 . S
C371 C370 1.415 . S
C372 C370 1.501 . S
C372 C373 1.384 . S
C372 C377 1.408 . S
C373 H363 0.930 . S
C373 C372 1.384 . S
C373 C374 1.389 . S
C374 C373 1.389 . S
C374 C375 1.405 . S
C375 H364 0.930 . S
C375 C374 1.405 . S
C375 C376 1.364 . S
C376 C375 1.364 . S
C376 C377 1.400 . S
C377 H365 0.931 . S
C377 C372 1.408 . S
C377 C376 1.400 . S
H378 C384 0.930 . S
H379 C387 0.931 . S
H380 C389 0.931 . S
H381 C391 0.930 . S
H382 C393 0.930 . S
H383 C395 0.931 . S
C384 H378 0.930 . S
C384 C385 1.380 . S
C384 C386 1.394 . S
C385 C384 1.380 . S
C385 C389 1.382 . S
C386 C384 1.394 . S
C386 C387 1.400 . S
C387 H379 0.931 . S
C387 C386 1.400 . S
C387 C388 1.375 . S
C388 C387 1.375 . S
C388 C389 1.415 . S
C388 C390 1.501 . S
C389 H380 0.931 . S
C389 C385 1.382 . S
C389 C388 1.415 . S
C390 C388 1.501 . S
C390 C391 1.384 . S
C390 C395 1.408 . S
C391 H381 0.930 . S
C391 C390 1.384 . S
C391 C392 1.389 . S
C392 C391 1.389 . S
C392 C393 1.405 . S
C393 H382 0.930 . S
C393 C392 1.405 . S
C393 C394 1.364 . S
C394 C393 1.364 . S
C394 C395 1.400 . S
C395 H383 0.931 . S
C395 C390 1.408 . S
C395 C394 1.400 . S
H396 C402 0.930 . S
H397 C405 0.931 . S
H398 C407 0.931 . S
H399 C409 0.930 . S
H400 C411 0.930 . S
H401 C413 0.931 . S
C402 H396 0.930 . S
C402 C403 1.380 . S
C402 C404 1.394 . S
C403 C402 1.380 . S
C403 C407 1.382 . S
C404 C402 1.394 . S
C404 C405 1.400 . S
C405 H397 0.931 . S
C405 C404 1.400 . S
C405 C406 1.375 . S
C406 C405 1.375 . S
C406 C407 1.415 . S
C406 C408 1.501 . S
C407 H398 0.931 . S
C407 C403 1.382 . S
C407 C406 1.415 . S
C408 C406 1.501 . S
C408 C409 1.384 . S
C408 C413 1.408 . S
C409 H399 0.930 . S
C409 C408 1.384 . S
C409 C410 1.389 . S
C410 C409 1.389 . S
C410 C411 1.405 . S
C411 H400 0.930 . S
C411 C410 1.405 . S
C411 C412 1.364 . S
C412 C411 1.364 . S
C412 C413 1.400 . S
C413 H401 0.931 . S
C413 C408 1.408 . S
C413 C412 1.400 . S
H414 C420 0.966 . S
H415 C423 0.931 . S
H416 C425 0.931 . S
H417 C427 0.930 . S
H418 C429 0.894 . S
H419 C431 0.937 1_655 S
C420 H414 0.966 . S
C420 C421 1.382 . S
C420 C422 1.395 1_655 S
C421 C420 1.382 . S
C421 C425 1.382 . S
C422 C420 1.395 1_455 S
C422 C423 1.400 . S
C423 H415 0.931 . S
C423 C422 1.400 . S
C423 C424 1.375 . S
C424 C423 1.375 . S
C424 C425 1.415 1_455 S
C424 C426 1.501 . S
C425 H416 0.931 . S
C425 C421 1.382 . S
C425 C424 1.415 1_655 S
C426 C424 1.501 . S
C426 C427 1.384 . S
C426 C431 1.420 . S
C427 H417 0.930 . S
C427 C426 1.384 . S
C427 C428 1.389 . S
C428 C427 1.389 . S
C428 C429 1.430 . S
C429 H418 0.894 . S
C429 C428 1.430 . S
C429 C430 1.379 . S
C430 C429 1.379 . S
C430 C431 1.391 . S
C431 H419 0.937 1_455 S
C431 C426 1.420 . S
C431 C430 1.391 . S
H432 C438 0.930 . S
H433 C441 0.931 . S
H434 C443 0.931 . S
H435 C445 0.930 . S
H436 C447 0.930 . S
H437 C449 0.931 . S
C438 H432 0.930 . S
C438 C439 1.380 . S
C438 C440 1.394 . S
C439 C438 1.380 . S
C439 C443 1.382 . S
C440 C438 1.394 . S
C440 C441 1.400 . S
C441 H433 0.931 . S
C441 C440 1.400 . S
C441 C442 1.375 . S
C442 C441 1.375 . S
C442 C443 1.415 . S
C442 C444 1.501 . S
C443 H434 0.931 . S
C443 C439 1.382 . S
C443 C442 1.415 . S
C444 C442 1.501 . S
C444 C445 1.384 . S
C444 C449 1.408 . S
C445 H435 0.930 . S
C445 C444 1.384 . S
C445 C446 1.389 . S
C446 C445 1.389 . S
C446 C447 1.405 . S
C447 H436 0.930 . S
C447 C446 1.405 . S
C447 C448 1.364 . S
C448 C447 1.364 . S
C448 C449 1.400 . S
C449 H437 0.931 . S
C449 C444 1.408 . S
C449 C448 1.400 . S
H450 C456 0.937 . S
H451 C459 0.931 . S
H452 C461 0.931 . S
H453 C463 0.930 . S
H454 C465 0.930 . S
H455 C467 0.921 . S
C456 H450 0.937 . S
C456 C457 1.379 . S
C456 C458 1.389 1_545 S
C457 C456 1.379 . S
C457 C461 1.382 . S
C458 C456 1.389 1_565 S
C458 C459 1.400 . S
C459 H451 0.931 . S
C459 C458 1.400 . S
C459 C460 1.375 . S
C460 C459 1.375 . S
C460 C461 1.415 1_565 S
C460 C462 1.501 . S
C461 H452 0.931 . S
C461 C457 1.382 . S
C461 C460 1.415 1_545 S
C462 C460 1.501 . S
C462 C463 1.384 . S
C462 C467 1.396 . S
C463 H453 0.930 . S
C463 C462 1.384 . S
C463 C464 1.389 . S
C464 C463 1.389 . S
C464 C465 1.405 . S
C465 H454 0.930 . S
C465 C464 1.405 . S
C465 C466 1.375 . S
C466 C465 1.375 . S
C466 C467 1.409 . S
C467 H455 0.921 . S
C467 C462 1.396 . S
C467 C466 1.409 . S
H468 C474 0.909 . S
H469 C477 0.931 . S
H470 C479 0.926 . S
H471 C481 0.930 . S
H472 C483 0.930 . S
H473 C485 0.931 . S
C474 H468 0.909 . S
C474 C475 1.385 . S
C474 C476 1.415 1_545 S
C475 C474 1.385 . S
C475 C479 1.402 1_545 S
C476 C474 1.415 1_565 S
C476 C477 1.384 . S
C477 H469 0.931 . S
C477 C476 1.384 . S
C477 C478 1.375 . S
C478 C477 1.375 . S
C478 C479 1.412 . S
C478 C480 1.501 . S
C479 H470 0.926 . S
C479 C475 1.402 1_565 S
C479 C478 1.412 . S
C480 C478 1.501 . S
C480 C481 1.384 . S
C480 C485 1.408 1_565 S
C481 H471 0.930 . S
C481 C480 1.384 . S
C481 C482 1.389 . S
C482 C481 1.389 . S
C482 C483 1.405 . S
C483 H472 0.930 . S
C483 C482 1.405 . S
C483 C484 1.364 1_565 S
C484 C483 1.364 1_545 S
C484 C485 1.400 . S
C485 H473 0.931 . S
C485 C480 1.408 1_545 S
C485 C484 1.400 . S
H486 C492 0.962 . S
H487 C495 0.931 . S
H488 C497 0.934 . S
H489 C499 0.930 . S
H490 C501 0.930 . S
H491 C503 0.931 . S
C492 H486 0.962 . S
C492 C493 1.373 . S
C492 C494 1.371 1_655 S
C493 C492 1.373 . S
C493 C497 1.360 1_655 S
C494 C492 1.371 1_455 S
C494 C495 1.414 . S
C495 H487 0.931 . S
C495 C494 1.414 . S
C495 C496 1.375 . S
C496 C495 1.375 . S
C496 C497 1.420 . S
C496 C498 1.501 . S
C497 H488 0.934 . S
C497 C493 1.360 1_455 S
C497 C496 1.420 . S
C498 C496 1.501 . S
C498 C499 1.384 . S
C498 C503 1.408 1_455 S
C499 H489 0.930 . S
C499 C498 1.384 . S
C499 C500 1.389 . S
C500 C499 1.389 . S
C500 C501 1.405 . S
C501 H490 0.930 . S
C501 C500 1.405 . S
C501 C502 1.364 1_455 S
C502 C501 1.364 1_655 S
C502 C503 1.400 . S
C503 H491 0.931 . S
C503 C498 1.408 1_655 S
C503 C502 1.400 . S
H504 C510 0.930 . S
H505 C513 0.931 . S
H506 C515 0.931 . S
H507 C517 0.930 . S
H508 C519 0.930 . S
H509 C521 0.931 . S
C510 H504 0.930 . S
C510 C511 1.380 . S
C510 C512 1.394 . S
C511 C510 1.380 . S
C511 C515 1.382 . S
C512 C510 1.394 . S
C512 C513 1.400 . S
C513 H505 0.931 . S
C513 C512 1.400 . S
C513 C514 1.375 . S
C514 C513 1.375 . S
C514 C515 1.415 . S
C514 C516 1.501 . S
C515 H506 0.931 . S
C515 C511 1.382 . S
C515 C514 1.415 . S
C516 C514 1.501 . S
C516 C517 1.384 . S
C516 C521 1.408 . S
C517 H507 0.930 . S
C517 C516 1.384 . S
C517 C518 1.389 . S
C518 C517 1.389 . S
C518 C519 1.405 . S
C519 H508 0.930 . S
C519 C518 1.405 . S
C519 C520 1.364 . S
C520 C519 1.364 . S
C520 C521 1.400 . S
C521 H509 0.931 . S
C521 C516 1.408 . S
C521 C520 1.400 . S
H522 C528 0.930 . S
H523 C531 0.931 . S
H524 C533 0.931 . S
H525 C535 0.930 . S
H526 C537 0.930 . S
H527 C539 0.931 . S
C528 H522 0.930 . S
C528 C529 1.380 . S
C528 C530 1.394 . S
C529 C528 1.380 . S
C529 C533 1.382 . S
C530 C528 1.394 . S
C530 C531 1.400 . S
C531 H523 0.931 . S
C531 C530 1.400 . S
C531 C532 1.375 . S
C532 C531 1.375 . S
C532 C533 1.415 . S
C532 C534 1.501 . S
C533 H524 0.931 . S
C533 C529 1.382 . S
C533 C532 1.415 . S
C534 C532 1.501 . S
C534 C535 1.384 . S
C534 C539 1.408 . S
C535 H525 0.930 . S
C535 C534 1.384 . S
C535 C536 1.389 . S
C536 C535 1.389 . S
C536 C537 1.405 . S
C537 H526 0.930 . S
C537 C536 1.405 . S
C537 C538 1.364 . S
C538 C537 1.364 . S
C538 C539 1.400 . S
C539 H527 0.931 . S
C539 C534 1.408 . S
C539 C538 1.400 . S
H540 C546 0.930 . S
H541 C549 0.931 . S
H542 C551 0.931 . S
H543 C553 0.930 . S
H544 C555 0.930 . S
H545 C557 0.931 . S
C546 H540 0.930 . S
C546 C547 1.380 . S
C546 C548 1.394 . S
C547 C546 1.380 . S
C547 C551 1.382 . S
C548 C546 1.394 . S
C548 C549 1.400 . S
C549 H541 0.931 . S
C549 C548 1.400 . S
C549 C550 1.375 . S
C550 C549 1.375 . S
C550 C551 1.415 . S
C550 C552 1.501 . S
C551 H542 0.931 . S
C551 C547 1.382 . S
C551 C550 1.415 . S
C552 C550 1.501 . S
C552 C553 1.384 . S
C552 C557 1.408 . S
C553 H543 0.930 . S
C553 C552 1.384 . S
C553 C554 1.389 . S
C554 C553 1.389 . S
C554 C555 1.405 . S
C555 H544 0.930 . S
C555 C554 1.405 . S
C555 C556 1.364 . S
C556 C555 1.364 . S
C556 C557 1.400 . S
C557 H545 0.931 . S
C557 C552 1.408 . S
C557 C556 1.400 . S
H558 C564 0.930 . S
H559 C567 0.931 . S
H560 C569 0.931 . S
H561 C571 0.930 . S
H562 C573 0.930 . S
H563 C575 0.931 . S
C564 H558 0.930 . S
C564 C565 1.380 . S
C564 C566 1.394 . S
C565 C564 1.380 . S
C565 C569 1.382 . S
C566 C564 1.394 . S
C566 C567 1.400 . S
C567 H559 0.931 . S
C567 C566 1.400 . S
C567 C568 1.375 . S
C568 C567 1.375 . S
C568 C569 1.415 . S
C568 C570 1.501 . S
C569 H560 0.931 . S
C569 C565 1.382 . S
C569 C568 1.415 . S
C570 C568 1.501 . S
C570 C571 1.384 . S
C570 C575 1.408 . S
C571 H561 0.930 . S
C571 C570 1.384 . S
C571 C572 1.389 . S
C572 C571 1.389 . S
C572 C573 1.405 . S
C573 H562 0.930 . S
C573 C572 1.405 . S
C573 C574 1.364 . S
C574 C573 1.364 . S
C574 C575 1.400 . S
C575 H563 0.931 . S
C575 C570 1.408 . S
C575 C574 1.400 . S
C576 C577 1.386 . S
C576 C578 1.383 . S
C576 H592 0.951 . S
C577 C576 1.386 . S
C577 C581 1.383 1_655 S
C578 C576 1.383 . S
C578 C579 1.402 1_655 S
C578 H593 0.951 . S
C579 C578 1.402 1_455 S
C579 C580 1.375 . S
C579 C582 1.481 . S
C580 C579 1.375 . S
C580 C581 1.367 . S
C580 H594 0.951 . S
C581 C577 1.383 1_455 S
C581 C580 1.367 . S
C581 H595 0.950 . S
C582 C579 1.481 . S
C582 C583 1.297 . S
C582 H596 0.950 . S
C583 C582 1.297 . S
C583 C584 1.479 . S
C583 H597 0.959 1_455 S
C584 C583 1.479 . S
C584 C585 1.375 1_455 S
C584 C590 1.404 . S
C585 C584 1.375 1_655 S
C585 C586 1.369 . S
C585 H598 0.950 . S
C586 C585 1.369 . S
C586 C587 1.392 . S
C586 H599 0.951 . S
C587 C586 1.392 . S
C587 C589 1.384 1_655 S
H588 C590 0.949 . S
C589 C587 1.384 1_455 S
C589 C590 1.385 . S
C589 H591 0.950 . S
C590 C584 1.404 . S
C590 H588 0.949 . S
C590 C589 1.385 . S
H591 C589 0.950 . S
H592 C576 0.951 . S
H593 C578 0.951 . S
H594 C580 0.951 . S
H595 C581 0.950 . S
H596 C582 0.950 . S
H597 C583 0.959 1_655 S
H598 C585 0.950 . S
H599 C586 0.951 . S
C600 C601 1.386 . S
C600 C602 1.383 . S
C600 H616 0.951 . S
C601 C600 1.386 . S
C601 C605 1.383 . S
C602 C600 1.383 . S
C602 C603 1.402 . S
C602 H617 0.951 . S
C603 C602 1.402 . S
C603 C604 1.375 . S
C603 C606 1.481 . S
C604 C603 1.375 . S
C604 C605 1.367 . S
C604 H618 0.951 . S
C605 C601 1.383 . S
C605 C604 1.367 . S
C605 H619 0.950 . S
C606 C603 1.481 . S
C606 C607 1.297 . S
C606 H620 0.950 . S
C607 C606 1.297 . S
C607 C608 1.479 . S
C607 H621 0.950 . S
C608 C607 1.479 . S
C608 C609 1.375 . S
C608 C614 1.404 . S
C609 C608 1.375 . S
C609 C610 1.369 . S
C609 H622 0.950 . S
C610 C609 1.369 . S
C610 C611 1.392 . S
C610 H623 0.951 . S
C611 C610 1.392 . S
C611 C613 1.384 . S
H612 C614 0.949 . S
C613 C611 1.384 . S
C613 C614 1.385 . S
C613 H615 0.950 . S
C614 C608 1.404 . S
C614 H612 0.949 . S
C614 C613 1.385 . S
H615 C613 0.950 . S
H616 C600 0.951 . S
H617 C602 0.951 . S
H618 C604 0.951 . S
H619 C605 0.950 . S
H620 C606 0.950 . S
H621 C607 0.950 . S
H622 C609 0.950 . S
H623 C610 0.951 . S
C624 C625 1.332 1_565 S
C624 C626 1.402 1_565 S
C624 H640 0.988 . S
C625 C624 1.332 1_545 S
C625 C629 1.383 . S
C626 C624 1.402 1_545 S
C626 C627 1.402 . S
C626 H641 0.951 1_545 S
C627 C626 1.402 . S
C627 C628 1.375 . S
C627 C630 1.481 . S
C628 C627 1.375 . S
C628 C629 1.367 . S
C628 H642 0.951 . S
C629 C625 1.383 . S
C629 C628 1.367 . S
C629 H643 0.950 . S
C630 C627 1.481 . S
C630 C631 1.297 . S
C630 H644 0.950 . S
C631 C630 1.297 . S
C631 C632 1.479 . S
C631 H645 0.950 . S
C632 C631 1.479 . S
C632 C633 1.375 1_545 S
C632 C638 1.404 . S
C633 C632 1.375 1_565 S
C633 C634 1.369 . S
C633 H646 0.950 . S
C634 C633 1.369 . S
C634 C635 1.392 1_565 S
C634 H647 0.951 . S
C635 C634 1.392 1_545 S
C635 C637 1.384 . S
H636 C638 0.949 . S
C637 C635 1.384 . S
C637 C638 1.385 . S
C637 H639 0.950 . S
C638 C632 1.404 . S
C638 H636 0.949 . S
C638 C637 1.385 . S
H639 C637 0.950 . S
H640 C624 0.988 . S
H641 C626 0.951 1_565 S
H642 C628 0.951 . S
H643 C629 0.950 . S
H644 C630 0.950 . S
H645 C631 0.950 . S
H646 C633 0.950 . S
H647 C634 0.951 . S
C648 C649 1.386 . S
C648 C650 1.383 . S
C648 H664 0.951 . S
C649 C648 1.386 . S
C649 C653 1.383 1_565 S
C650 C648 1.383 . S
C650 C651 1.402 . S
C650 H665 0.951 . S
C651 C650 1.402 . S
C651 C652 1.375 1_565 S
C651 C654 1.481 1_565 S
C652 C651 1.375 1_545 S
C652 C653 1.367 . S
C652 H666 0.951 . S
C653 C649 1.383 1_545 S
C653 C652 1.367 . S
C653 H667 0.950 . S
C654 C651 1.481 1_545 S
C654 C655 1.297 1_545 S
C654 H668 0.950 . S
C655 C654 1.297 1_565 S
C655 C656 1.479 . S
C655 H669 0.950 . S
C656 C655 1.479 . S
C656 C657 1.375 . S
C656 C662 1.404 1_565 S
C657 C656 1.375 . S
C657 C658 1.369 . S
C657 H670 0.950 . S
C658 C657 1.369 . S
C658 C659 1.392 . S
C658 H671 0.951 . S
C659 C658 1.392 . S
C659 C661 1.384 1_565 S
H660 C662 0.949 . S
C661 C659 1.384 1_545 S
C661 C662 1.385 . S
C661 H663 0.950 . S
C662 C656 1.404 1_545 S
C662 H660 0.949 . S
C662 C661 1.385 . S
H663 C661 0.950 . S
H664 C648 0.951 . S
H665 C650 0.951 . S
H666 C652 0.951 . S
H667 C653 0.950 . S
H668 C654 0.950 . S
H669 C655 0.950 . S
H670 C657 0.950 . S
H671 C658 0.951 . S
C672 C673 1.386 . S
C672 C674 1.383 . S
C672 H688 0.951 . S
C673 C672 1.386 . S
C673 C677 1.383 . S
C674 C672 1.383 . S
C674 C675 1.402 . S
C674 H689 0.951 . S
C675 C674 1.402 . S
C675 C676 1.375 . S
C675 C678 1.481 . S
C676 C675 1.375 . S
C676 C677 1.367 . S
C676 H690 0.951 . S
C677 C673 1.383 . S
C677 C676 1.367 . S
C677 H691 0.950 . S
C678 C675 1.481 . S
C678 C679 1.297 . S
C678 H692 0.950 . S
C679 C678 1.297 . S
C679 C680 1.479 . S
C679 H693 0.950 . S
C680 C679 1.479 . S
C680 C681 1.375 . S
C680 C686 1.404 . S
C681 C680 1.375 . S
C681 C682 1.369 . S
C681 H694 0.950 . S
C682 C681 1.369 . S
C682 C683 1.392 . S
C682 H695 0.945 . S
C683 C682 1.392 . S
C683 C685 1.384 . S
H684 C686 0.949 . S
C685 C683 1.384 . S
C685 C686 1.385 . S
C685 H687 0.950 . S
C686 C680 1.404 . S
C686 H684 0.949 . S
C686 C685 1.385 . S
H687 C685 0.950 . S
H688 C672 0.951 . S
H689 C674 0.951 . S
H690 C676 0.951 . S
H691 C677 0.950 . S
H692 C678 0.950 . S
H693 C679 0.950 . S
H694 C681 0.950 . S
H695 C682 0.945 . S
C696 C697 1.386 . S
C696 C698 1.383 . S
C696 H712 0.951 . S
C697 C696 1.386 . S
C697 C701 1.383 . S
C698 C696 1.383 . S
C698 C699 1.402 . S
C698 H713 0.951 . S
C699 C698 1.402 . S
C699 C700 1.375 . S
C699 C702 1.481 . S
C700 C699 1.375 . S
C700 C701 1.367 . S
C700 H714 0.951 . S
C701 C697 1.383 . S
C701 C700 1.367 . S
C701 H715 0.950 . S
C702 C699 1.481 . S
C702 C703 1.297 . S
C702 H716 0.950 . S
C703 C702 1.297 . S
C703 C704 1.479 . S
C703 H717 0.950 . S
C704 C703 1.479 . S
C704 C705 1.375 . S
C704 C710 1.404 . S
C705 C704 1.375 . S
C705 C706 1.369 . S
C705 H718 0.950 . S
C706 C705 1.369 . S
C706 C707 1.392 . S
C706 H719 0.951 . S
C707 C706 1.392 . S
C707 C709 1.384 . S
H708 C710 0.949 . S
C709 C707 1.384 . S
C709 C710 1.385 . S
C709 H711 0.950 . S
C710 C704 1.404 . S
C710 H708 0.949 . S
C710 C709 1.385 . S
H711 C709 0.950 . S
H712 C696 0.951 . S
H713 C698 0.951 . S
H714 C700 0.951 . S
H715 C701 0.950 . S
H716 C702 0.950 . S
H717 C703 0.950 . S
H718 C705 0.950 . S
H719 C706 0.951 . S
C720 C721 1.386 . S
C720 C722 1.383 . S
C720 H736 0.951 . S
C721 C720 1.386 . S
C721 C725 1.383 1_455 S
C722 C720 1.383 . S
C722 C723 1.402 . S
C722 H737 0.951 . S
C723 C722 1.402 . S
C723 C724 1.375 1_455 S
C723 C726 1.499 1_455 S
C724 C723 1.375 1_655 S
C724 C725 1.367 . S
C724 H738 0.951 . S
C725 C721 1.383 1_655 S
C725 C724 1.367 . S
C725 H739 0.950 . S
C726 C723 1.499 1_655 S
C726 C727 1.254 1_655 S
C726 H740 0.980 . S
C727 C726 1.254 1_455 S
C727 C728 1.479 . S
C727 H741 0.950 . S
C728 C727 1.479 . S
C728 C729 1.375 . S
C728 C734 1.404 1_455 S
C729 C728 1.375 . S
C729 C730 1.369 . S
C729 H742 0.950 . S
C730 C729 1.369 . S
C730 C731 1.392 . S
C730 H743 0.951 . S
C731 C730 1.392 . S
C731 C733 1.384 1_455 S
H732 C734 0.949 . S
C733 C731 1.384 1_655 S
C733 C734 1.385 . S
C733 H735 0.950 . S
C734 C728 1.404 1_655 S
C734 H732 0.949 . S
C734 C733 1.385 . S
H735 C733 0.950 . S
H736 C720 0.951 . S
H737 C722 0.951 . S
H738 C724 0.951 . S
H739 C725 0.950 . S
H740 C726 0.980 . S
H741 C727 0.950 . S
H742 C729 0.950 . S
H743 C730 0.951 . S
C744 C745 1.386 . S
C744 C746 1.383 . S
C744 H760 0.951 . S
C745 C744 1.386 . S
C745 C749 1.383 . S
C746 C744 1.383 . S
C746 C747 1.402 . S
C746 H761 0.951 . S
C747 C746 1.402 . S
C747 C748 1.375 . S
C747 C750 1.481 . S
C748 C747 1.375 . S
C748 C749 1.367 . S
C748 H762 0.951 . S
C749 C745 1.383 . S
C749 C748 1.367 . S
C749 H763 0.950 . S
C750 C747 1.481 . S
C750 C751 1.297 . S
C750 H764 0.950 . S
C751 C750 1.297 . S
C751 C752 1.479 . S
C751 H765 0.950 . S
C752 C751 1.479 . S
C752 C753 1.375 . S
C752 C758 1.404 . S
C753 C752 1.375 . S
C753 C754 1.369 . S
C753 H766 0.950 . S
C754 C753 1.369 . S
C754 C755 1.392 . S
C754 H767 0.951 . S
C755 C754 1.392 . S
C755 C757 1.384 . S
H756 C758 0.949 . S
C757 C755 1.384 . S
C757 C758 1.385 . S
C757 H759 0.950 . S
C758 C752 1.404 . S
C758 H756 0.949 . S
C758 C757 1.385 . S
H759 C757 0.950 . S
H760 C744 0.951 . S
H761 C746 0.951 . S
H762 C748 0.951 . S
H763 C749 0.950 . S
H764 C750 0.950 . S
H765 C751 0.950 . S
H766 C753 0.950 . S
H767 C754 0.951 . S
C768 C769 1.348 1_545 S
C768 C770 1.410 . S
C768 H784 0.964 . S
C769 C768 1.348 1_565 S
C769 C773 1.383 . S
C770 C768 1.410 . S
C770 C771 1.416 . S
C770 H785 0.951 . S
C771 C770 1.416 . S
C771 C772 1.331 1_545 S
C771 C774 1.511 . S
C772 C771 1.331 1_565 S
C772 C773 1.367 . S
C772 H786 0.951 . S
C773 C769 1.383 . S
C773 C772 1.367 . S
C773 H787 0.950 . S
C774 C771 1.511 . S
C774 C775 1.297 . S
C774 H788 0.946 1_545 S
C775 C774 1.297 . S
C775 C776 1.479 . S
C775 H789 0.950 . S
C776 C775 1.479 . S
C776 C777 1.375 . S
C776 C782 1.404 . S
C777 C776 1.375 . S
C777 C778 1.369 . S
C777 H790 0.950 . S
C778 C777 1.369 . S
C778 C779 1.392 . S
C778 H791 0.951 . S
C779 C778 1.392 . S
C779 C781 1.384 . S
H780 C782 0.949 . S
C781 C779 1.384 . S
C781 C782 1.385 . S
C781 H783 0.950 . S
C782 C776 1.404 . S
C782 H780 0.949 . S
C782 C781 1.385 . S
H783 C781 0.950 . S
H784 C768 0.964 . S
H785 C770 0.951 . S
H786 C772 0.951 . S
H787 C773 0.950 . S
H788 C774 0.946 1_565 S
H789 C775 0.950 . S
H790 C777 0.950 . S
H791 C778 0.951 . S
C792 C793 1.386 . S
C792 C794 1.383 . S
C792 H808 0.951 . S
C793 C792 1.386 . S
C793 C797 1.383 . S
C794 C792 1.383 . S
C794 C795 1.402 . S
C794 H809 0.951 . S
C795 C794 1.402 . S
C795 C796 1.375 . S
C795 C798 1.481 . S
C796 C795 1.375 . S
C796 C797 1.367 . S
C796 H810 0.951 1_545 S
C797 C793 1.383 . S
C797 C796 1.367 . S
C797 H811 0.944 1_545 S
C798 C795 1.481 . S
C798 C799 1.297 . S
C798 H812 0.962 . S
C799 C798 1.297 . S
C799 C800 1.479 . S
C799 H813 0.950 . S
C800 C799 1.479 . S
C800 C801 1.375 . S
C800 C806 1.404 . S
C801 C800 1.375 . S
C801 C802 1.369 . S
C801 H814 0.950 . S
C802 C801 1.369 . S
C802 C803 1.392 . S
C802 H815 0.951 . S
C803 C802 1.392 . S
C803 C805 1.377 1_545 S
H804 C806 0.958 . S
C805 C803 1.377 1_565 S
C805 C806 1.397 1_565 S
C805 H807 0.950 . S
C806 C800 1.404 . S
C806 H804 0.958 . S
C806 C805 1.397 1_545 S
H807 C805 0.950 . S
H808 C792 0.951 . S
H809 C794 0.951 . S
H810 C796 0.951 1_565 S
H811 C797 0.944 1_565 S
H812 C798 0.962 . S
H813 C799 0.950 . S
H814 C801 0.950 . S
H815 C802 0.951 . S
C816 C817 1.386 . S
C816 C818 1.383 . S
C816 H832 0.951 . S
C817 C816 1.386 . S
C817 C821 1.383 1_655 S
C818 C816 1.383 . S
C818 C819 1.402 1_655 S
C818 H833 0.951 . S
C819 C818 1.402 1_455 S
C819 C820 1.375 . S
C819 C822 1.481 . S
C820 C819 1.375 . S
C820 C821 1.367 . S
C820 H834 0.951 . S
C821 C817 1.383 1_455 S
C821 C820 1.367 . S
C821 H835 0.950 . S
C822 C819 1.481 . S
C822 C823 1.297 1_455 S
C822 H836 0.950 . S
C823 C822 1.297 1_655 S
C823 C824 1.481 1_655 S
C823 H837 0.950 . S
C824 C823 1.481 1_455 S
C824 C825 1.376 1_455 S
C824 C830 1.402 . S
C825 C824 1.376 1_655 S
C825 C826 1.369 . S
C825 H838 0.950 . S
C826 C825 1.369 . S
C826 C827 1.343 1_655 S
C826 H839 0.951 . S
C827 C826 1.343 1_455 S
C827 C829 1.413 . S
H828 C830 0.949 . S
C829 C827 1.413 . S
C829 C830 1.385 . S
C829 H831 0.950 . S
C830 C824 1.402 . S
C830 H828 0.949 . S
C830 C829 1.385 . S
H831 C829 0.950 . S
H832 C816 0.951 . S
H833 C818 0.951 . S
H834 C820 0.951 . S
H835 C821 0.950 . S
H836 C822 0.950 . S
H837 C823 0.950 . S
H838 C825 0.950 . S
H839 C826 0.951 . S
C840 C841 1.386 . S
C840 C842 1.383 . S
C840 H856 0.951 . S
C841 C840 1.386 . S
C841 C845 1.383 . S
C842 C840 1.383 . S
C842 C843 1.402 . S
C842 H857 0.951 . S
C843 C842 1.402 . S
C843 C844 1.375 . S
C843 C846 1.481 . S
C844 C843 1.375 . S
C844 C845 1.367 . S
C844 H858 0.951 . S
C845 C841 1.383 . S
C845 C844 1.367 . S
C845 H859 0.950 . S
C846 C843 1.481 . S
C846 C847 1.297 . S
C846 H860 0.950 . S
C847 C846 1.297 . S
C847 C848 1.479 . S
C847 H861 0.950 . S
C848 C847 1.479 . S
C848 C849 1.375 . S
C848 C854 1.404 . S
C849 C848 1.375 . S
C849 C850 1.369 . S
C849 H862 0.950 . S
C850 C849 1.369 . S
C850 C851 1.392 . S
C850 H863 0.951 . S
C851 C850 1.392 . S
C851 C853 1.384 . S
H852 C854 0.949 . S
C853 C851 1.384 . S
C853 C854 1.385 . S
C853 H855 0.950 . S
C854 C848 1.404 . S
C854 H852 0.949 . S
C854 C853 1.385 . S
H855 C853 0.950 . S
H856 C840 0.951 . S
H857 C842 0.951 . S
H858 C844 0.951 . S
H859 C845 0.950 . S
H860 C846 0.950 . S
H861 C847 0.950 . S
H862 C849 0.950 . S
H863 C850 0.951 . S
C864 C865 1.386 . S
C864 C866 1.383 . S
C864 H880 0.951 . S
C865 C864 1.386 . S
C865 C869 1.383 . S
C866 C864 1.383 . S
C866 C867 1.402 . S
C866 H881 0.951 . S
C867 C866 1.402 . S
C867 C868 1.375 . S
C867 C870 1.481 . S
C868 C867 1.375 . S
C868 C869 1.367 . S
C868 H882 0.951 . S
C869 C865 1.383 . S
C869 C868 1.367 . S
C869 H883 0.950 . S
C870 C867 1.481 . S
C870 C871 1.297 . S
C870 H884 0.950 . S
C871 C870 1.297 . S
C871 C872 1.479 . S
C871 H885 0.950 . S
C872 C871 1.479 . S
C872 C873 1.375 . S
C872 C878 1.404 . S
C873 C872 1.375 . S
C873 C874 1.369 . S
C873 H886 0.950 . S
C874 C873 1.369 . S
C874 C875 1.392 . S
C874 H887 0.951 . S
C875 C874 1.392 . S
C875 C877 1.384 . S
H876 C878 0.949 . S
C877 C875 1.384 . S
C877 C878 1.385 . S
C877 H879 0.950 . S
C878 C872 1.404 . S
C878 H876 0.949 . S
C878 C877 1.385 . S
H879 C877 0.950 . S
H880 C864 0.951 . S
H881 C866 0.951 . S
H882 C868 0.951 . S
H883 C869 0.950 . S
H884 C870 0.950 . S
H885 C871 0.950 . S
H886 C873 0.950 . S
H887 C874 0.951 . S
C888 C889 1.386 . S
C888 C890 1.383 . S
C888 H904 0.951 . S
C889 C888 1.386 . S
C889 C893 1.383 . S
C890 C888 1.383 . S
C890 C891 1.402 . S
C890 H905 0.951 . S
C891 C890 1.402 . S
C891 C892 1.375 . S
C891 C894 1.481 . S
C892 C891 1.375 . S
C892 C893 1.367 . S
C892 H906 0.951 . S
C893 C889 1.383 . S
C893 C892 1.367 . S
C893 H907 0.950 . S
C894 C891 1.481 . S
C894 C895 1.297 . S
C894 H908 0.950 . S
C895 C894 1.297 . S
C895 C896 1.479 . S
C895 H909 0.950 . S
C896 C895 1.479 . S
C896 C897 1.375 . S
C896 C902 1.404 . S
C897 C896 1.375 . S
C897 C898 1.369 . S
C897 H910 0.950 . S
C898 C897 1.369 . S
C898 C899 1.392 . S
C898 H911 0.951 . S
C899 C898 1.392 . S
C899 C901 1.384 . S
H900 C902 0.949 . S
C901 C899 1.384 . S
C901 C902 1.385 . S
C901 H903 0.950 . S
C902 C896 1.404 . S
C902 H900 0.949 . S
C902 C901 1.385 . S
H903 C901 0.950 . S
H904 C888 0.951 . S
H905 C890 0.951 . S
H906 C892 0.951 . S
H907 C893 0.950 . S
H908 C894 0.950 . S
H909 C895 0.950 . S
H910 C897 0.950 . S
H911 C898 0.951 . S
C912 C913 1.386 . S
C912 C914 1.383 . S
C912 H928 0.951 . S
C913 C912 1.386 . S
C913 C917 1.383 . S
C914 C912 1.383 . S
C914 C915 1.402 . S
C914 H929 0.951 . S
C915 C914 1.402 . S
C915 C916 1.375 . S
C915 C918 1.481 . S
C916 C915 1.375 . S
C916 C917 1.367 . S
C916 H930 0.951 . S
C917 C913 1.383 . S
C917 C916 1.367 . S
C917 H931 0.950 . S
C918 C915 1.481 . S
C918 C919 1.297 . S
C918 H932 0.950 . S
C919 C918 1.297 . S
C919 C920 1.479 . S
C919 H933 0.950 . S
C920 C919 1.479 . S
C920 C921 1.375 . S
C920 C926 1.404 . S
C921 C920 1.375 . S
C921 C922 1.369 . S
C921 H934 0.950 . S
C922 C921 1.369 . S
C922 C923 1.392 . S
C922 H935 0.951 . S
C923 C922 1.392 . S
C923 C925 1.384 . S
H924 C926 0.949 . S
C925 C923 1.384 . S
C925 C926 1.385 . S
C925 H927 0.950 . S
C926 C920 1.404 . S
C926 H924 0.949 . S
C926 C925 1.385 . S
H927 C925 0.950 . S
H928 C912 0.951 . S
H929 C914 0.951 . S
H930 C916 0.951 . S
H931 C917 0.950 . S
H932 C918 0.950 . S
H933 C919 0.950 . S
H934 C921 0.950 . S
H935 C922 0.951 . S
C936 C937 1.386 . S
C936 C938 1.383 . S
C936 H952 0.951 . S
C937 C936 1.386 . S
C937 C941 1.383 . S
C938 C936 1.383 . S
C938 C939 1.402 . S
C938 H953 0.951 . S
C939 C938 1.402 . S
C939 C940 1.375 . S
C939 C942 1.481 . S
C940 C939 1.375 . S
C940 C941 1.367 . S
C940 H954 0.951 . S
C941 C937 1.383 . S
C941 C940 1.367 . S
C941 H955 0.950 . S
C942 C939 1.481 . S
C942 C943 1.297 . S
C942 H956 0.950 . S
C943 C942 1.297 . S
C943 C944 1.479 . S
C943 H957 0.950 . S
C944 C943 1.479 . S
C944 C945 1.375 . S
C944 C950 1.404 . S
C945 C944 1.375 . S
C945 C946 1.369 . S
C945 H958 0.950 . S
C946 C945 1.369 . S
C946 C947 1.392 . S
C946 H959 0.951 . S
C947 C946 1.392 . S
C947 C949 1.384 . S
H948 C950 0.949 . S
C949 C947 1.384 . S
C949 C950 1.385 . S
C949 H951 0.950 . S
C950 C944 1.404 . S
C950 H948 0.949 . S
C950 C949 1.385 . S
H951 C949 0.950 . S
H952 C936 0.951 . S
H953 C938 0.951 . S
H954 C940 0.951 . S
H955 C941 0.950 . S
H956 C942 0.950 . S
H957 C943 0.950 . S
H958 C945 0.950 . S
H959 C946 0.951 . S
C960 C961 1.386 . S
C960 C962 1.383 . S
C960 H976 0.951 . S
C961 C960 1.386 . S
C961 C965 1.383 . S
C962 C960 1.383 . S
C962 C963 1.402 . S
C962 H977 0.951 . S
C963 C962 1.402 . S
C963 C964 1.375 . S
C963 C966 1.481 . S
C964 C963 1.375 . S
C964 C965 1.367 . S
C964 H978 0.951 . S
C965 C961 1.383 . S
C965 C964 1.367 . S
C965 H979 0.950 . S
C966 C963 1.481 . S
C966 C967 1.297 . S
C966 H980 0.950 . S
C967 C966 1.297 . S
C967 C968 1.479 . S
C967 H981 0.950 . S
C968 C967 1.479 . S
C968 C969 1.375 . S
C968 C974 1.404 . S
C969 C968 1.375 . S
C969 C970 1.369 . S
C969 H982 0.950 . S
C970 C969 1.369 . S
C970 C971 1.392 . S
C970 H983 0.951 . S
C971 C970 1.392 . S
C971 C973 1.384 . S
H972 C974 0.949 . S
C973 C971 1.384 . S
C973 C974 1.385 . S
C973 H975 0.950 . S
C974 C968 1.404 . S
C974 H972 0.949 . S
C974 C973 1.385 . S
H975 C973 0.950 . S
H976 C960 0.951 . S
H977 C962 0.951 . S
H978 C964 0.951 . S
H979 C965 0.950 . S
H980 C966 0.950 . S
H981 C967 0.950 . S
H982 C969 0.950 . S
H983 C970 0.951 . S
C984 C985 1.386 . S
C984 C986 1.383 . S
C984 H1000 0.951 . S
C985 C984 1.386 . S
C985 C989 1.383 . S
C986 C984 1.383 . S
C986 C987 1.402 . S
C986 H1001 0.951 . S
C987 C986 1.402 . S
C987 C988 1.375 . S
C987 C990 1.481 . S
C988 C987 1.375 . S
C988 C989 1.367 . S
C988 H1002 0.951 . S
C989 C985 1.383 . S
C989 C988 1.367 . S
C989 H1003 0.950 . S
C990 C987 1.481 . S
C990 C991 1.297 . S
C990 H1004 0.950 . S
C991 C990 1.297 . S
C991 C992 1.479 . S
C991 H1005 0.950 . S
C992 C991 1.479 . S
C992 C993 1.375 . S
C992 C998 1.404 . S
C993 C992 1.375 . S
C993 C994 1.369 . S
C993 H1006 0.950 . S
C994 C993 1.369 . S
C994 C995 1.392 . S
C994 H1007 0.951 . S
C995 C994 1.392 . S
C995 C997 1.384 . S
H996 C998 0.949 . S
C997 C995 1.384 . S
C997 C998 1.385 . S
C997 H999 0.950 . S
C998 C992 1.404 . S
C998 H996 0.949 . S
C998 C997 1.385 . S
H999 C997 0.950 . S
H1000 C984 0.951 . S
H1001 C986 0.951 . S
H1002 C988 0.951 . S
H1003 C989 0.950 . S
H1004 C990 0.950 . S
H1005 C991 0.950 . S
H1006 C993 0.950 . S
H1007 C994 0.951 . S
C1008 C1009 1.386 . S
C1008 C1010 1.383 . S
C1008 H1024 0.951 . S
C1009 C1008 1.386 . S
C1009 C1013 1.383 . S
C1010 C1008 1.383 . S
C1010 C1011 1.402 . S
C1010 H1025 0.951 . S
C1011 C1010 1.402 . S
C1011 C1012 1.375 . S
C1011 C1014 1.481 . S
C1012 C1011 1.375 . S
C1012 C1013 1.367 . S
C1012 H1026 0.951 . S
C1013 C1009 1.383 . S
C1013 C1012 1.367 . S
C1013 H1027 0.950 . S
C1014 C1011 1.481 . S
C1014 C1015 1.297 . S
C1014 H1028 0.950 . S
C1015 C1014 1.297 . S
C1015 C1016 1.479 . S
C1015 H1029 0.950 . S
C1016 C1015 1.479 . S
C1016 C1017 1.375 . S
C1016 C1022 1.404 . S
C1017 C1016 1.375 . S
C1017 C1018 1.369 . S
C1017 H1030 0.950 . S
C1018 C1017 1.369 . S
C1018 C1019 1.392 . S
C1018 H1031 0.951 . S
C1019 C1018 1.392 . S
C1019 C1021 1.384 . S
H1020 C1022 0.949 . S
C1021 C1019 1.384 . S
C1021 C1022 1.385 . S
C1021 H1023 0.950 . S
C1022 C1016 1.404 . S
C1022 H1020 0.949 . S
C1022 C1021 1.385 . S
H1023 C1021 0.950 . S
H1024 C1008 0.951 . S
H1025 C1010 0.951 . S
H1026 C1012 0.951 . S
H1027 C1013 0.950 . S
H1028 C1014 0.950 . S
H1029 C1015 0.950 . S
H1030 C1017 0.950 . S
H1031 C1018 0.951 . S
C1032 C1033 1.386 . S
C1032 C1034 1.383 . S
C1032 H1048 0.951 . S
C1033 C1032 1.386 . S
C1033 C1037 1.383 . S
C1034 C1032 1.383 . S
C1034 C1035 1.402 . S
C1034 H1049 0.951 . S
C1035 C1034 1.402 . S
C1035 C1036 1.375 . S
C1035 C1038 1.481 . S
C1036 C1035 1.375 . S
C1036 C1037 1.367 . S
C1036 H1050 0.951 . S
C1037 C1033 1.383 . S
C1037 C1036 1.367 . S
C1037 H1051 0.950 . S
C1038 C1035 1.481 . S
C1038 C1039 1.297 . S
C1038 H1052 0.950 . S
C1039 C1038 1.297 . S
C1039 C1040 1.479 . S
C1039 H1053 0.950 . S
C1040 C1039 1.479 . S
C1040 C1041 1.375 . S
C1040 C1046 1.404 . S
C1041 C1040 1.375 . S
C1041 C1042 1.369 . S
C1041 H1054 0.950 . S
C1042 C1041 1.369 . S
C1042 C1043 1.392 . S
C1042 H1055 0.951 . S
C1043 C1042 1.392 . S
C1043 C1045 1.384 . S
H1044 C1046 0.949 . S
C1045 C1043 1.384 . S
C1045 C1046 1.385 . S
C1045 H1047 0.950 . S
C1046 C1040 1.404 . S
C1046 H1044 0.949 . S
C1046 C1045 1.385 . S
H1047 C1045 0.950 . S
H1048 C1032 0.951 . S
H1049 C1034 0.951 . S
H1050 C1036 0.951 . S
H1051 C1037 0.950 . S
H1052 C1038 0.950 . S
H1053 C1039 0.950 . S
H1054 C1041 0.950 . S
H1055 C1042 0.951 . S
C1056 C1057 1.386 . S
C1056 C1058 1.383 . S
C1056 H1072 0.951 . S
C1057 C1056 1.386 . S
C1057 C1061 1.383 . S
C1058 C1056 1.383 . S
C1058 C1059 1.402 . S
C1058 H1073 0.951 . S
C1059 C1058 1.402 . S
C1059 C1060 1.375 . S
C1059 C1062 1.481 . S
C1060 C1059 1.375 . S
C1060 C1061 1.367 . S
C1060 H1074 0.951 . S
C1061 C1057 1.383 . S
C1061 C1060 1.367 . S
C1061 H1075 0.950 . S
C1062 C1059 1.481 . S
C1062 C1063 1.297 . S
C1062 H1076 0.950 . S
C1063 C1062 1.297 . S
C1063 C1064 1.479 . S
C1063 H1077 0.950 . S
C1064 C1063 1.479 . S
C1064 C1065 1.375 . S
C1064 C1070 1.404 . S
C1065 C1064 1.375 . S
C1065 C1066 1.369 . S
C1065 H1078 0.950 . S
C1066 C1065 1.369 . S
C1066 C1067 1.392 . S
C1066 H1079 0.951 . S
C1067 C1066 1.392 . S
C1067 C1069 1.384 . S
H1068 C1070 0.949 . S
C1069 C1067 1.384 . S
C1069 C1070 1.385 . S
C1069 H1071 0.950 . S
C1070 C1064 1.404 . S
C1070 H1068 0.949 . S
C1070 C1069 1.385 . S
H1071 C1069 0.950 . S
H1072 C1056 0.951 . S
H1073 C1058 0.951 . S
H1074 C1060 0.951 . S
H1075 C1061 0.950 . S
H1076 C1062 0.950 . S
H1077 C1063 0.950 . S
H1078 C1065 0.950 . S
H1079 C1066 0.951 . S
C1080 C1081 1.386 . S
C1080 C1082 1.383 . S
C1080 H1096 0.951 . S
C1081 C1080 1.386 . S
C1081 C1085 1.383 . S
C1082 C1080 1.383 . S
C1082 C1083 1.402 . S
C1082 H1097 0.951 . S
C1083 C1082 1.402 . S
C1083 C1084 1.375 . S
C1083 C1086 1.481 . S
C1084 C1083 1.375 . S
C1084 C1085 1.367 . S
C1084 H1098 0.951 . S
C1085 C1081 1.383 . S
C1085 C1084 1.367 . S
C1085 H1099 0.950 . S
C1086 C1083 1.481 . S
C1086 C1087 1.297 . S
C1086 H1100 0.950 . S
C1087 C1086 1.297 . S
C1087 C1088 1.479 . S
C1087 H1101 0.950 . S
C1088 C1087 1.479 . S
C1088 C1089 1.375 . S
C1088 C1094 1.404 . S
C1089 C1088 1.375 . S
C1089 C1090 1.369 . S
C1089 H1102 0.950 . S
C1090 C1089 1.369 . S
C1090 C1091 1.392 . S
C1090 H1103 0.951 . S
C1091 C1090 1.392 . S
C1091 C1093 1.384 . S
H1092 C1094 0.949 . S
C1093 C1091 1.384 . S
C1093 C1094 1.385 . S
C1093 H1095 0.950 . S
C1094 C1088 1.404 . S
C1094 H1092 0.949 . S
C1094 C1093 1.385 . S
H1095 C1093 0.950 . S
H1096 C1080 0.951 . S
H1097 C1082 0.951 . S
H1098 C1084 0.951 . S
H1099 C1085 0.950 . S
H1100 C1086 0.950 . S
H1101 C1087 0.950 . S
H1102 C1089 0.950 . S
H1103 C1090 0.951 . S
C1104 C1105 1.386 . S
C1104 C1106 1.383 . S
C1104 H1120 0.951 . S
C1105 C1104 1.386 . S
C1105 C1109 1.383 . S
C1106 C1104 1.383 . S
C1106 C1107 1.402 . S
C1106 H1121 0.951 . S
C1107 C1106 1.402 . S
C1107 C1108 1.375 . S
C1107 C1110 1.481 . S
C1108 C1107 1.375 . S
C1108 C1109 1.367 . S
C1108 H1122 0.951 . S
C1109 C1105 1.383 . S
C1109 C1108 1.367 . S
C1109 H1123 0.950 . S
C1110 C1107 1.481 . S
C1110 C1111 1.297 . S
C1110 H1124 0.950 . S
C1111 C1110 1.297 . S
C1111 C1112 1.479 . S
C1111 H1125 0.950 . S
C1112 C1111 1.479 . S
C1112 C1113 1.375 . S
C1112 C1118 1.404 . S
C1113 C1112 1.375 . S
C1113 C1114 1.369 . S
C1113 H1126 0.950 . S
C1114 C1113 1.369 . S
C1114 C1115 1.392 . S
C1114 H1127 0.951 . S
C1115 C1114 1.392 . S
C1115 C1117 1.384 . S
H1116 C1118 0.949 . S
C1117 C1115 1.384 . S
C1117 C1118 1.385 . S
C1117 H1119 0.950 . S
C1118 C1112 1.404 . S
C1118 H1116 0.949 . S
C1118 C1117 1.385 . S
H1119 C1117 0.950 . S
H1120 C1104 0.951 . S
H1121 C1106 0.951 . S
H1122 C1108 0.951 . S
H1123 C1109 0.950 . S
H1124 C1110 0.950 . S
H1125 C1111 0.950 . S
H1126 C1113 0.950 . S
H1127 C1114 0.951 . S
C1128 C1129 1.386 . S
C1128 C1130 1.383 . S
C1128 H1144 0.951 . S
C1129 C1128 1.386 . S
C1129 C1133 1.383 . S
C1130 C1128 1.383 . S
C1130 C1131 1.402 . S
C1130 H1145 0.951 . S
C1131 C1130 1.402 . S
C1131 C1132 1.375 . S
C1131 C1134 1.481 . S
C1132 C1131 1.375 . S
C1132 C1133 1.367 . S
C1132 H1146 0.951 . S
C1133 C1129 1.383 . S
C1133 C1132 1.367 . S
C1133 H1147 0.950 . S
C1134 C1131 1.481 . S
C1134 C1135 1.297 . S
C1134 H1148 0.950 . S
C1135 C1134 1.297 . S
C1135 C1136 1.479 . S
C1135 H1149 0.950 . S
C1136 C1135 1.479 . S
C1136 C1137 1.375 . S
C1136 C1142 1.404 . S
C1137 C1136 1.375 . S
C1137 C1138 1.369 . S
C1137 H1150 0.950 . S
C1138 C1137 1.369 . S
C1138 C1139 1.392 . S
C1138 H1151 0.951 . S
C1139 C1138 1.392 . S
C1139 C1141 1.384 . S
H1140 C1142 0.949 . S
C1141 C1139 1.384 . S
C1141 C1142 1.385 . S
C1141 H1143 0.950 . S
C1142 C1136 1.404 . S
C1142 H1140 0.949 . S
C1142 C1141 1.385 . S
H1143 C1141 0.950 . S
H1144 C1128 0.951 . S
H1145 C1130 0.951 . S
H1146 C1132 0.951 . S
H1147 C1133 0.950 . S
H1148 C1134 0.950 . S
H1149 C1135 0.950 . S
H1150 C1137 0.950 . S
H1151 C1138 0.951 . S
C1152 C1153 1.386 . S
C1152 C1154 1.383 . S
C1152 H1168 0.951 . S
C1153 C1152 1.386 . S
C1153 C1157 1.383 . S
C1154 C1152 1.383 . S
C1154 C1155 1.402 . S
C1154 H1169 0.951 . S
C1155 C1154 1.402 . S
C1155 C1156 1.375 . S
C1155 C1158 1.481 . S
C1156 C1155 1.375 . S
C1156 C1157 1.367 . S
C1156 H1170 0.951 . S
C1157 C1153 1.383 . S
C1157 C1156 1.367 . S
C1157 H1171 0.950 . S
C1158 C1155 1.481 . S
C1158 C1159 1.297 . S
C1158 H1172 0.950 . S
C1159 C1158 1.297 . S
C1159 C1160 1.479 . S
C1159 H1173 0.950 . S
C1160 C1159 1.479 . S
C1160 C1161 1.375 . S
C1160 C1166 1.404 . S
C1161 C1160 1.375 . S
C1161 C1162 1.369 . S
C1161 H1174 0.950 . S
C1162 C1161 1.369 . S
C1162 C1163 1.392 . S
C1162 H1175 0.951 . S
C1163 C1162 1.392 . S
C1163 C1165 1.384 . S
H1164 C1166 0.949 . S
C1165 C1163 1.384 . S
C1165 C1166 1.385 . S
C1165 H1167 0.950 . S
C1166 C1160 1.404 . S
C1166 H1164 0.949 . S
C1166 C1165 1.385 . S
H1167 C1165 0.950 . S
H1168 C1152 0.951 . S
H1169 C1154 0.951 . S
H1170 C1156 0.951 . S
H1171 C1157 0.950 . S
H1172 C1158 0.950 . S
H1173 C1159 0.950 . S
H1174 C1161 0.950 . S
H1175 C1162 0.951 . S
C1176 C1177 1.386 . S
C1176 C1178 1.383 . S
C1176 H1192 0.951 . S
C1177 C1176 1.386 . S
C1177 C1181 1.383 . S
C1178 C1176 1.383 . S
C1178 C1179 1.402 . S
C1178 H1193 0.951 . S
C1179 C1178 1.402 . S
C1179 C1180 1.375 . S
C1179 C1182 1.481 . S
C1180 C1179 1.375 . S
C1180 C1181 1.367 . S
C1180 H1194 0.951 . S
C1181 C1177 1.383 . S
C1181 C1180 1.367 . S
C1181 H1195 0.950 . S
C1182 C1179 1.481 . S
C1182 C1183 1.297 . S
C1182 H1196 0.950 . S
C1183 C1182 1.297 . S
C1183 C1184 1.479 . S
C1183 H1197 0.950 . S
C1184 C1183 1.479 . S
C1184 C1185 1.375 . S
C1184 C1190 1.404 . S
C1185 C1184 1.375 . S
C1185 C1186 1.369 . S
C1185 H1198 0.950 . S
C1186 C1185 1.369 . S
C1186 C1187 1.392 . S
C1186 H1199 0.951 . S
C1187 C1186 1.392 . S
C1187 C1189 1.384 . S
H1188 C1190 0.949 . S
C1189 C1187 1.384 . S
C1189 C1190 1.385 . S
C1189 H1191 0.950 . S
C1190 C1184 1.404 . S
C1190 H1188 0.949 . S
C1190 C1189 1.385 . S
H1191 C1189 0.950 . S
H1192 C1176 0.951 . S
H1193 C1178 0.951 . S
H1194 C1180 0.951 . S
H1195 C1181 0.950 . S
H1196 C1182 0.950 . S
H1197 C1183 0.950 . S
H1198 C1185 0.950 . S
H1199 C1186 0.951 . S
C1200 C1201 1.386 . S
C1200 C1202 1.383 . S
C1200 H1216 0.951 . S
C1201 C1200 1.386 . S
C1201 C1205 1.383 . S
C1202 C1200 1.383 . S
C1202 C1203 1.402 . S
C1202 H1217 0.951 . S
C1203 C1202 1.402 . S
C1203 C1204 1.375 . S
C1203 C1206 1.481 . S
C1204 C1203 1.375 . S
C1204 C1205 1.367 . S
C1204 H1218 0.951 . S
C1205 C1201 1.383 . S
C1205 C1204 1.367 . S
C1205 H1219 0.950 . S
C1206 C1203 1.481 . S
C1206 C1207 1.297 . S
C1206 H1220 0.950 . S
C1207 C1206 1.297 . S
C1207 C1208 1.479 . S
C1207 H1221 0.950 . S
C1208 C1207 1.479 . S
C1208 C1209 1.375 . S
C1208 C1214 1.404 . S
C1209 C1208 1.375 . S
C1209 C1210 1.369 . S
C1209 H1222 0.950 . S
C1210 C1209 1.369 . S
C1210 C1211 1.392 . S
C1210 H1223 0.951 . S
C1211 C1210 1.392 . S
C1211 C1213 1.384 . S
H1212 C1214 0.949 . S
C1213 C1211 1.384 . S
C1213 C1214 1.385 . S
C1213 H1215 0.950 . S
C1214 C1208 1.404 . S
C1214 H1212 0.949 . S
C1214 C1213 1.385 . S
H1215 C1213 0.950 . S
H1216 C1200 0.951 . S
H1217 C1202 0.951 . S
H1218 C1204 0.951 . S
H1219 C1205 0.950 . S
H1220 C1206 0.950 . S
H1221 C1207 0.950 . S
H1222 C1209 0.950 . S
H1223 C1210 0.951 . S
C1224 C1225 1.386 . S
C1224 C1226 1.383 . S
C1224 H1240 0.951 . S
C1225 C1224 1.386 . S
C1225 C1229 1.383 . S
C1226 C1224 1.383 . S
C1226 C1227 1.402 . S
C1226 H1241 0.951 . S
C1227 C1226 1.402 . S
C1227 C1228 1.375 . S
C1227 C1230 1.481 . S
C1228 C1227 1.375 . S
C1228 C1229 1.367 . S
C1228 H1242 0.951 . S
C1229 C1225 1.383 . S
C1229 C1228 1.367 . S
C1229 H1243 0.950 . S
C1230 C1227 1.481 . S
C1230 C1231 1.297 . S
C1230 H1244 0.950 . S
C1231 C1230 1.297 . S
C1231 C1232 1.479 . S
C1231 H1245 0.950 . S
C1232 C1231 1.479 . S
C1232 C1233 1.375 . S
C1232 C1238 1.404 . S
C1233 C1232 1.375 . S
C1233 C1234 1.369 . S
C1233 H1246 0.950 . S
C1234 C1233 1.369 . S
C1234 C1235 1.392 . S
C1234 H1247 0.951 . S
C1235 C1234 1.392 . S
C1235 C1237 1.384 . S
H1236 C1238 0.949 . S
C1237 C1235 1.384 . S
C1237 C1238 1.385 . S
C1237 H1239 0.950 . S
C1238 C1232 1.404 . S
C1238 H1236 0.949 . S
C1238 C1237 1.385 . S
H1239 C1237 0.950 . S
H1240 C1224 0.951 . S
H1241 C1226 0.951 . S
H1242 C1228 0.951 . S
H1243 C1229 0.950 . S
H1244 C1230 0.950 . S
H1245 C1231 0.950 . S
H1246 C1233 0.950 . S
H1247 C1234 0.951 . S
C1248 C1249 1.386 . S
C1248 C1250 1.383 . S
C1248 H1264 0.951 . S
C1249 C1248 1.386 . S
C1249 C1253 1.383 . S
C1250 C1248 1.383 . S
C1250 C1251 1.402 . S
C1250 H1265 0.951 . S
C1251 C1250 1.402 . S
C1251 C1252 1.375 . S
C1251 C1254 1.481 . S
C1252 C1251 1.375 . S
C1252 C1253 1.367 . S
C1252 H1266 0.951 . S
C1253 C1249 1.383 . S
C1253 C1252 1.367 . S
C1253 H1267 0.950 . S
C1254 C1251 1.481 . S
C1254 C1255 1.297 . S
C1254 H1268 0.950 . S
C1255 C1254 1.297 . S
C1255 C1256 1.479 . S
C1255 H1269 0.950 . S
C1256 C1255 1.479 . S
C1256 C1257 1.375 . S
C1256 C1262 1.404 . S
C1257 C1256 1.375 . S
C1257 C1258 1.369 . S
C1257 H1270 0.950 . S
C1258 C1257 1.369 . S
C1258 C1259 1.392 . S
C1258 H1271 0.951 . S
C1259 C1258 1.392 . S
C1259 C1261 1.384 . S
H1260 C1262 0.949 . S
C1261 C1259 1.384 . S
C1261 C1262 1.385 . S
C1261 H1263 0.950 . S
C1262 C1256 1.404 . S
C1262 H1260 0.949 . S
C1262 C1261 1.385 . S
H1263 C1261 0.950 . S
H1264 C1248 0.951 . S
H1265 C1250 0.951 . S
H1266 C1252 0.951 . S
H1267 C1253 0.950 . S
H1268 C1254 0.950 . S
H1269 C1255 0.950 . S
H1270 C1257 0.950 . S
H1271 C1258 0.951 . S
C1272 C1273 1.386 . S
C1272 C1274 1.383 . S
C1272 H1288 0.951 . S
C1273 C1272 1.386 . S
C1273 C1277 1.383 . S
C1274 C1272 1.383 . S
C1274 C1275 1.402 . S
C1274 H1289 0.951 . S
C1275 C1274 1.402 . S
C1275 C1276 1.375 . S
C1275 C1278 1.481 . S
C1276 C1275 1.375 . S
C1276 C1277 1.367 . S
C1276 H1290 0.951 . S
C1277 C1273 1.383 . S
C1277 C1276 1.367 . S
C1277 H1291 0.950 . S
C1278 C1275 1.481 . S
C1278 C1279 1.297 . S
C1278 H1292 0.950 . S
C1279 C1278 1.297 . S
C1279 C1280 1.479 . S
C1279 H1293 0.950 . S
C1280 C1279 1.479 . S
C1280 C1281 1.375 . S
C1280 C1286 1.404 . S
C1281 C1280 1.375 . S
C1281 C1282 1.369 . S
C1281 H1294 0.950 . S
C1282 C1281 1.369 . S
C1282 C1283 1.392 . S
C1282 H1295 0.951 . S
C1283 C1282 1.392 . S
C1283 C1285 1.384 . S
H1284 C1286 0.949 . S
C1285 C1283 1.384 . S
C1285 C1286 1.385 . S
C1285 H1287 0.950 . S
C1286 C1280 1.404 . S
C1286 H1284 0.949 . S
C1286 C1285 1.385 . S
H1287 C1285 0.950 . S
H1288 C1272 0.951 . S
H1289 C1274 0.951 . S
H1290 C1276 0.951 . S
H1291 C1277 0.950 . S
H1292 C1278 0.950 . S
H1293 C1279 0.950 . S
H1294 C1281 0.950 . S
H1295 C1282 0.951 . S
C1296 C1297 1.386 . S
C1296 C1298 1.383 . S
C1296 H1312 0.951 . S
C1297 C1296 1.386 . S
C1297 C1301 1.383 . S
C1298 C1296 1.383 . S
C1298 C1299 1.402 . S
C1298 H1313 0.951 . S
C1299 C1298 1.402 . S
C1299 C1300 1.375 . S
C1299 C1302 1.481 . S
C1300 C1299 1.375 . S
C1300 C1301 1.367 . S
C1300 H1314 0.951 . S
C1301 C1297 1.383 . S
C1301 C1300 1.367 . S
C1301 H1315 0.950 . S
C1302 C1299 1.481 . S
C1302 C1303 1.297 . S
C1302 H1316 0.950 . S
C1303 C1302 1.297 . S
C1303 C1304 1.479 . S
C1303 H1317 0.950 . S
C1304 C1303 1.479 . S
C1304 C1305 1.375 . S
C1304 C1310 1.404 . S
C1305 C1304 1.375 . S
C1305 C1306 1.369 . S
C1305 H1318 0.950 . S
C1306 C1305 1.369 . S
C1306 C1307 1.392 . S
C1306 H1319 0.951 . S
C1307 C1306 1.392 . S
C1307 C1309 1.384 . S
H1308 C1310 0.949 . S
C1309 C1307 1.384 . S
C1309 C1310 1.385 . S
C1309 H1311 0.950 . S
C1310 C1304 1.404 . S
C1310 H1308 0.949 . S
C1310 C1309 1.385 . S
H1311 C1309 0.950 . S
H1312 C1296 0.951 . S
H1313 C1298 0.951 . S
H1314 C1300 0.951 . S
H1315 C1301 0.950 . S
H1316 C1302 0.950 . S
H1317 C1303 0.950 . S
H1318 C1305 0.950 . S
H1319 C1306 0.951 . S
C1320 C1321 1.386 . S
C1320 C1322 1.383 . S
C1320 H1336 0.951 . S
C1321 C1320 1.386 . S
C1321 C1325 1.383 . S
C1322 C1320 1.383 . S
C1322 C1323 1.402 . S
C1322 H1337 0.951 . S
C1323 C1322 1.402 . S
C1323 C1324 1.375 . S
C1323 C1326 1.481 . S
C1324 C1323 1.375 . S
C1324 C1325 1.367 . S
C1324 H1338 0.951 . S
C1325 C1321 1.383 . S
C1325 C1324 1.367 . S
C1325 H1339 0.950 . S
C1326 C1323 1.481 . S
C1326 C1327 1.297 . S
C1326 H1340 0.950 . S
C1327 C1326 1.297 . S
C1327 C1328 1.479 . S
C1327 H1341 0.950 . S
C1328 C1327 1.479 . S
C1328 C1329 1.375 . S
C1328 C1334 1.404 . S
C1329 C1328 1.375 . S
C1329 C1330 1.369 . S
C1329 H1342 0.950 . S
C1330 C1329 1.369 . S
C1330 C1331 1.392 . S
C1330 H1343 0.951 . S
C1331 C1330 1.392 . S
C1331 C1333 1.384 . S
H1332 C1334 0.949 . S
C1333 C1331 1.384 . S
C1333 C1334 1.385 . S
C1333 H1335 0.950 . S
C1334 C1328 1.404 . S
C1334 H1332 0.949 . S
C1334 C1333 1.385 . S
H1335 C1333 0.950 . S
H1336 C1320 0.951 . S
H1337 C1322 0.951 . S
H1338 C1324 0.951 . S
H1339 C1325 0.950 . S
H1340 C1326 0.950 . S
H1341 C1327 0.950 . S
H1342 C1329 0.950 . S
H1343 C1330 0.951 . S
C1344 C1345 1.386 . S
C1344 C1346 1.383 . S
C1344 H1360 0.951 . S
C1345 C1344 1.386 . S
C1345 C1349 1.383 . S
C1346 C1344 1.383 . S
C1346 C1347 1.402 . S
C1346 H1361 0.951 . S
C1347 C1346 1.402 . S
C1347 C1348 1.375 . S
C1347 C1350 1.481 . S
C1348 C1347 1.375 . S
C1348 C1349 1.367 . S
C1348 H1362 0.951 . S
C1349 C1345 1.383 . S
C1349 C1348 1.367 . S
C1349 H1363 0.950 . S
C1350 C1347 1.481 . S
C1350 C1351 1.297 . S
C1350 H1364 0.950 . S
C1351 C1350 1.297 . S
C1351 C1352 1.479 . S
C1351 H1365 0.950 . S
C1352 C1351 1.479 . S
C1352 C1353 1.375 . S
C1352 C1358 1.404 . S
C1353 C1352 1.375 . S
C1353 C1354 1.369 . S
C1353 H1366 0.950 . S
C1354 C1353 1.369 . S
C1354 C1355 1.392 . S
C1354 H1367 0.951 . S
C1355 C1354 1.392 . S
C1355 C1357 1.384 . S
H1356 C1358 0.949 . S
C1357 C1355 1.384 . S
C1357 C1358 1.385 . S
C1357 H1359 0.950 . S
C1358 C1352 1.404 . S
C1358 H1356 0.949 . S
C1358 C1357 1.385 . S
H1359 C1357 0.950 . S
H1360 C1344 0.951 . S
H1361 C1346 0.951 . S
H1362 C1348 0.951 . S
H1363 C1349 0.950 . S
H1364 C1350 0.950 . S
H1365 C1351 0.950 . S
H1366 C1353 0.950 . S
H1367 C1354 0.951 . S
C1368 C1369 1.386 . S
C1368 C1370 1.383 . S
C1368 H1384 0.951 . S
C1369 C1368 1.386 . S
C1369 C1373 1.383 . S
C1370 C1368 1.383 . S
C1370 C1371 1.402 . S
C1370 H1385 0.951 . S
C1371 C1370 1.402 . S
C1371 C1372 1.375 . S
C1371 C1374 1.481 . S
C1372 C1371 1.375 . S
C1372 C1373 1.367 . S
C1372 H1386 0.951 . S
C1373 C1369 1.383 . S
C1373 C1372 1.367 . S
C1373 H1387 0.950 . S
C1374 C1371 1.481 . S
C1374 C1375 1.297 . S
C1374 H1388 0.950 . S
C1375 C1374 1.297 . S
C1375 C1376 1.479 . S
C1375 H1389 0.950 . S
C1376 C1375 1.479 . S
C1376 C1377 1.375 . S
C1376 C1382 1.404 . S
C1377 C1376 1.375 . S
C1377 C1378 1.369 . S
C1377 H1390 0.950 . S
C1378 C1377 1.369 . S
C1378 C1379 1.392 . S
C1378 H1391 0.951 . S
C1379 C1378 1.392 . S
C1379 C1381 1.384 . S
H1380 C1382 0.949 . S
C1381 C1379 1.384 . S
C1381 C1382 1.385 . S
C1381 H1383 0.950 . S
C1382 C1376 1.404 . S
C1382 H1380 0.949 . S
C1382 C1381 1.385 . S
H1383 C1381 0.950 . S
H1384 C1368 0.951 . S
H1385 C1370 0.951 . S
H1386 C1372 0.951 . S
H1387 C1373 0.950 . S
H1388 C1374 0.950 . S
H1389 C1375 0.950 . S
H1390 C1377 0.950 . S
H1391 C1378 0.951 . S
C1392 C1393 1.386 . S
C1392 C1394 1.383 . S
C1392 H1408 0.951 . S
C1393 C1392 1.386 . S
C1393 C1397 1.383 . S
C1394 C1392 1.383 . S
C1394 C1395 1.402 . S
C1394 H1409 0.951 . S
C1395 C1394 1.402 . S
C1395 C1396 1.375 . S
C1395 C1398 1.481 . S
C1396 C1395 1.375 . S
C1396 C1397 1.367 . S
C1396 H1410 0.951 . S
C1397 C1393 1.383 . S
C1397 C1396 1.367 . S
C1397 H1411 0.950 . S
C1398 C1395 1.481 . S
C1398 C1399 1.297 . S
C1398 H1412 0.950 . S
C1399 C1398 1.297 . S
C1399 C1400 1.479 . S
C1399 H1413 0.950 . S
C1400 C1399 1.479 . S
C1400 C1401 1.375 . S
C1400 C1406 1.404 . S
C1401 C1400 1.375 . S
C1401 C1402 1.369 . S
C1401 H1414 0.950 . S
C1402 C1401 1.369 . S
C1402 C1403 1.392 . S
C1402 H1415 0.951 . S
C1403 C1402 1.392 . S
C1403 C1405 1.384 . S
H1404 C1406 0.949 . S
C1405 C1403 1.384 . S
C1405 C1406 1.385 . S
C1405 H1407 0.950 . S
C1406 C1400 1.404 . S
C1406 H1404 0.949 . S
C1406 C1405 1.385 . S
H1407 C1405 0.950 . S
H1408 C1392 0.951 . S
H1409 C1394 0.951 . S
H1410 C1396 0.951 . S
H1411 C1397 0.950 . S
H1412 C1398 0.950 . S
H1413 C1399 0.950 . S
H1414 C1401 0.950 . S
H1415 C1402 0.951 . S
C1416 C1417 1.386 . S
C1416 C1418 1.383 . S
C1416 H1432 0.951 . S
C1417 C1416 1.386 . S
C1417 C1421 1.383 . S
C1418 C1416 1.383 . S
C1418 C1419 1.402 . S
C1418 H1433 0.951 . S
C1419 C1418 1.402 . S
C1419 C1420 1.375 . S
C1419 C1422 1.481 . S
C1420 C1419 1.375 . S
C1420 C1421 1.367 . S
C1420 H1434 0.951 . S
C1421 C1417 1.383 . S
C1421 C1420 1.367 . S
C1421 H1435 0.950 . S
C1422 C1419 1.481 . S
C1422 C1423 1.297 . S
C1422 H1436 0.950 . S
C1423 C1422 1.297 . S
C1423 C1424 1.479 . S
C1423 H1437 0.950 . S
C1424 C1423 1.479 . S
C1424 C1425 1.375 . S
C1424 C1430 1.404 . S
C1425 C1424 1.375 . S
C1425 C1426 1.369 . S
C1425 H1438 0.950 . S
C1426 C1425 1.369 . S
C1426 C1427 1.392 . S
C1426 H1439 0.951 . S
C1427 C1426 1.392 . S
C1427 C1429 1.384 . S
H1428 C1430 0.949 . S
C1429 C1427 1.384 . S
C1429 C1430 1.385 . S
C1429 H1431 0.950 . S
C1430 C1424 1.404 . S
C1430 H1428 0.949 . S
C1430 C1429 1.385 . S
H1431 C1429 0.950 . S
H1432 C1416 0.951 . S
H1433 C1418 0.951 . S
H1434 C1420 0.951 . S
H1435 C1421 0.950 . S
H1436 C1422 0.950 . S
H1437 C1423 0.950 . S
H1438 C1425 0.950 . S
H1439 C1426 0.951 . S
C1440 C1441 1.386 . S
C1440 C1442 1.383 . S
C1440 H1456 0.951 . S
C1441 C1440 1.386 . S
C1441 C1445 1.383 . S
C1442 C1440 1.383 . S
C1442 C1443 1.402 . S
C1442 H1457 0.951 . S
C1443 C1442 1.402 . S
C1443 C1444 1.375 . S
C1443 C1446 1.481 . S
C1444 C1443 1.375 . S
C1444 C1445 1.367 . S
C1444 H1458 0.951 . S
C1445 C1441 1.383 . S
C1445 C1444 1.367 . S
C1445 H1459 0.950 . S
C1446 C1443 1.481 . S
C1446 C1447 1.297 . S
C1446 H1460 0.950 . S
C1447 C1446 1.297 . S
C1447 C1448 1.479 . S
C1447 H1461 0.950 . S
C1448 C1447 1.479 . S
C1448 C1449 1.375 . S
C1448 C1454 1.404 . S
C1449 C1448 1.375 . S
C1449 C1450 1.369 . S
C1449 H1462 0.950 . S
C1450 C1449 1.369 . S
C1450 C1451 1.392 . S
C1450 H1463 0.951 . S
C1451 C1450 1.392 . S
C1451 C1453 1.384 . S
H1452 C1454 0.949 . S
C1453 C1451 1.384 . S
C1453 C1454 1.385 . S
C1453 H1455 0.950 . S
C1454 C1448 1.404 . S
C1454 H1452 0.949 . S
C1454 C1453 1.385 . S
H1455 C1453 0.950 . S
H1456 C1440 0.951 . S
H1457 C1442 0.951 . S
H1458 C1444 0.951 . S
H1459 C1445 0.950 . S
H1460 C1446 0.950 . S
H1461 C1447 0.950 . S
H1462 C1449 0.950 . S
H1463 C1450 0.951 . S
C1464 C1465 1.386 . S
C1464 C1466 1.383 . S
C1464 H1480 0.951 . S
C1465 C1464 1.386 . S
C1465 C1469 1.383 . S
C1466 C1464 1.383 . S
C1466 C1467 1.402 . S
C1466 H1481 0.951 . S
C1467 C1466 1.402 . S
C1467 C1468 1.375 . S
C1467 C1470 1.481 . S
C1468 C1467 1.375 . S
C1468 C1469 1.367 . S
C1468 H1482 0.951 . S
C1469 C1465 1.383 . S
C1469 C1468 1.367 . S
C1469 H1483 0.950 . S
C1470 C1467 1.481 . S
C1470 C1471 1.297 . S
C1470 H1484 0.950 . S
C1471 C1470 1.297 . S
C1471 C1472 1.479 . S
C1471 H1485 0.950 . S
C1472 C1471 1.479 . S
C1472 C1473 1.375 . S
C1472 C1478 1.404 . S
C1473 C1472 1.375 . S
C1473 C1474 1.369 . S
C1473 H1486 0.950 . S
C1474 C1473 1.369 . S
C1474 C1475 1.392 . S
C1474 H1487 0.951 . S
C1475 C1474 1.392 . S
C1475 C1477 1.384 . S
H1476 C1478 0.949 . S
C1477 C1475 1.384 . S
C1477 C1478 1.385 . S
C1477 H1479 0.950 . S
C1478 C1472 1.404 . S
C1478 H1476 0.949 . S
C1478 C1477 1.385 . S
H1479 C1477 0.950 . S
H1480 C1464 0.951 . S
H1481 C1466 0.951 . S
H1482 C1468 0.951 . S
H1483 C1469 0.950 . S
H1484 C1470 0.950 . S
H1485 C1471 0.950 . S
H1486 C1473 0.950 . S
H1487 C1474 0.951 . S
C1488 C1489 1.386 . S
C1488 C1490 1.383 . S
C1488 H1504 0.951 . S
C1489 C1488 1.386 . S
C1489 C1493 1.383 . S
C1490 C1488 1.383 . S
C1490 C1491 1.402 . S
C1490 H1505 0.951 . S
C1491 C1490 1.402 . S
C1491 C1492 1.375 . S
C1491 C1494 1.481 . S
C1492 C1491 1.375 . S
C1492 C1493 1.367 . S
C1492 H1506 0.951 . S
C1493 C1489 1.383 . S
C1493 C1492 1.367 . S
C1493 H1507 0.950 . S
C1494 C1491 1.481 . S
C1494 C1495 1.297 . S
C1494 H1508 0.950 . S
C1495 C1494 1.297 . S
C1495 C1496 1.479 . S
C1495 H1509 0.950 . S
C1496 C1495 1.479 . S
C1496 C1497 1.375 . S
C1496 C1502 1.404 . S
C1497 C1496 1.375 . S
C1497 C1498 1.369 . S
C1497 H1510 0.950 . S
C1498 C1497 1.369 . S
C1498 C1499 1.392 . S
C1498 H1511 0.951 . S
C1499 C1498 1.392 . S
C1499 C1501 1.384 . S
H1500 C1502 0.949 . S
C1501 C1499 1.384 . S
C1501 C1502 1.385 . S
C1501 H1503 0.950 . S
C1502 C1496 1.404 . S
C1502 H1500 0.949 . S
C1502 C1501 1.385 . S
H1503 C1501 0.950 . S
H1504 C1488 0.951 . S
H1505 C1490 0.951 . S
H1506 C1492 0.951 . S
H1507 C1493 0.950 . S
H1508 C1494 0.950 . S
H1509 C1495 0.950 . S
H1510 C1497 0.950 . S
H1511 C1498 0.951 . S
C1512 C1513 1.386 . S
C1512 C1514 1.383 . S
C1512 H1528 0.951 1_556 S
C1513 C1512 1.386 . S
C1513 C1517 1.383 . S
C1514 C1512 1.383 . S
C1514 C1515 1.402 . S
C1514 H1529 0.951 . S
C1515 C1514 1.402 . S
C1515 C1516 1.375 . S
C1515 C1518 1.481 . S
C1516 C1515 1.375 . S
C1516 C1517 1.367 . S
C1516 H1530 0.951 . S
C1517 C1513 1.383 . S
C1517 C1516 1.367 . S
C1517 H1531 0.950 . S
C1518 C1515 1.481 . S
C1518 C1519 1.297 . S
C1518 H1532 0.950 . S
C1519 C1518 1.297 . S
C1519 C1520 1.479 . S
C1519 H1533 0.950 . S
C1520 C1519 1.479 . S
C1520 C1521 1.375 . S
C1520 C1526 1.404 . S
C1521 C1520 1.375 . S
C1521 C1522 1.369 . S
C1521 H1534 0.950 . S
C1522 C1521 1.369 . S
C1522 C1523 1.392 . S
C1522 H1535 0.951 . S
C1523 C1522 1.392 . S
C1523 C1525 1.384 . S
H1524 C1526 0.949 . S
C1525 C1523 1.384 . S
C1525 C1526 1.385 . S
C1525 H1527 0.950 . S
C1526 C1520 1.404 . S
C1526 H1524 0.949 . S
C1526 C1525 1.385 . S
H1527 C1525 0.950 . S
H1528 C1512 0.951 1_554 S
H1529 C1514 0.951 . S
H1530 C1516 0.951 . S
H1531 C1517 0.950 . S
H1532 C1518 0.950 . S
H1533 C1519 0.950 . S
H1534 C1521 0.950 . S
H1535 C1522 0.951 . S
C1536 C1537 1.386 . S
C1536 C1538 1.383 . S
C1536 H1552 0.951 . S
C1537 C1536 1.386 . S
C1537 C1541 1.383 1_556 S
C1538 C1536 1.383 . S
C1538 C1539 1.402 . S
C1538 H1553 0.951 . S
C1539 C1538 1.402 . S
C1539 C1540 1.375 . S
C1539 C1542 1.481 . S
C1540 C1539 1.375 . S
C1540 C1541 1.367 1_556 S
C1540 H1554 0.951 1_556 S
C1541 C1537 1.383 1_554 S
C1541 C1540 1.367 1_554 S
C1541 H1555 0.950 . S
C1542 C1539 1.481 . S
C1542 C1543 1.297 . S
C1542 H1556 0.950 . S
C1543 C1542 1.297 . S
C1543 C1544 1.479 . S
C1543 H1557 0.950 . S
C1544 C1543 1.479 . S
C1544 C1545 1.375 . S
C1544 C1550 1.404 . S
C1545 C1544 1.375 . S
C1545 C1546 1.369 . S
C1545 H1558 0.950 . S
C1546 C1545 1.369 . S
C1546 C1547 1.392 . S
C1546 H1559 0.951 . S
C1547 C1546 1.392 . S
C1547 C1549 1.384 . S
H1548 C1550 0.949 . S
C1549 C1547 1.384 . S
C1549 C1550 1.385 . S
C1549 H1551 0.950 . S
C1550 C1544 1.404 . S
C1550 H1548 0.949 . S
C1550 C1549 1.385 . S
H1551 C1549 0.950 . S
H1552 C1536 0.951 . S
H1553 C1538 0.951 . S
H1554 C1540 0.951 1_554 S
H1555 C1541 0.950 . S
H1556 C1542 0.950 . S
H1557 C1543 0.950 . S
H1558 C1545 0.950 . S
H1559 C1546 0.951 . S
C1560 C1561 1.386 . S
C1560 C1562 1.383 . S
C1560 H1576 0.951 . S
C1561 C1560 1.386 . S
C1561 C1565 1.383 . S
C1562 C1560 1.383 . S
C1562 C1563 1.402 . S
C1562 H1577 0.951 . S
C1563 C1562 1.402 . S
C1563 C1564 1.375 . S
C1563 C1566 1.481 . S
C1564 C1563 1.375 . S
C1564 C1565 1.367 . S
C1564 H1578 0.951 . S
C1565 C1561 1.383 . S
C1565 C1564 1.367 . S
C1565 H1579 0.950 1_556 S
C1566 C1563 1.481 . S
C1566 C1567 1.297 . S
C1566 H1580 0.950 . S
C1567 C1566 1.297 . S
C1567 C1568 1.479 . S
C1567 H1581 0.950 . S
C1568 C1567 1.479 . S
C1568 C1569 1.375 . S
C1568 C1574 1.404 . S
C1569 C1568 1.375 . S
C1569 C1570 1.369 . S
C1569 H1582 0.950 . S
C1570 C1569 1.369 . S
C1570 C1571 1.392 . S
C1570 H1583 0.951 . S
C1571 C1570 1.392 . S
C1571 C1573 1.384 . S
H1572 C1574 0.949 . S
C1573 C1571 1.384 . S
C1573 C1574 1.385 . S
C1573 H1575 0.950 . S
C1574 C1568 1.404 . S
C1574 H1572 0.949 . S
C1574 C1573 1.385 . S
H1575 C1573 0.950 . S
H1576 C1560 0.951 . S
H1577 C1562 0.951 . S
H1578 C1564 0.951 . S
H1579 C1565 0.950 1_554 S
H1580 C1566 0.950 . S
H1581 C1567 0.950 . S
H1582 C1569 0.950 . S
H1583 C1570 0.951 . S
C1584 C1585 1.386 . S
C1584 C1586 1.383 . S
C1584 H1600 0.951 . S
C1585 C1584 1.386 . S
C1585 C1589 1.383 1_556 S
C1586 C1584 1.383 . S
C1586 C1587 1.402 . S
C1586 H1601 0.951 . S
C1587 C1586 1.402 . S
C1587 C1588 1.375 . S
C1587 C1590 1.481 . S
C1588 C1587 1.375 . S
C1588 C1589 1.367 1_556 S
C1588 H1602 0.951 1_556 S
C1589 C1585 1.383 1_554 S
C1589 C1588 1.367 1_554 S
C1589 H1603 0.950 . S
C1590 C1587 1.481 . S
C1590 C1591 1.297 . S
C1590 H1604 0.950 . S
C1591 C1590 1.297 . S
C1591 C1592 1.479 . S
C1591 H1605 0.950 . S
C1592 C1591 1.479 . S
C1592 C1593 1.375 . S
C1592 C1598 1.404 . S
C1593 C1592 1.375 . S
C1593 C1594 1.369 . S
C1593 H1606 0.950 . S
C1594 C1593 1.369 . S
C1594 C1595 1.392 . S
C1594 H1607 0.951 . S
C1595 C1594 1.392 . S
C1595 C1597 1.384 . S
H1596 C1598 0.949 . S
C1597 C1595 1.384 . S
C1597 C1598 1.385 . S
C1597 H1599 0.950 . S
C1598 C1592 1.404 . S
C1598 H1596 0.949 . S
C1598 C1597 1.385 . S
H1599 C1597 0.950 . S
H1600 C1584 0.951 . S
H1601 C1586 0.951 . S
H1602 C1588 0.951 1_554 S
H1603 C1589 0.950 . S
H1604 C1590 0.950 . S
H1605 C1591 0.950 . S
H1606 C1593 0.950 . S
H1607 C1594 0.951 . S
C1608 C1609 1.386 . S
C1608 C1610 1.383 . S
C1608 H1624 0.951 . S
C1609 C1608 1.386 . S
C1609 C1613 1.383 1_556 S
C1610 C1608 1.383 . S
C1610 C1611 1.402 . S
C1610 H1625 0.951 . S
C1611 C1610 1.402 . S
C1611 C1612 1.337 1_556 S
C1611 C1614 1.481 . S
C1612 C1611 1.337 1_554 S
C1612 C1613 1.377 . S
C1612 H1626 0.981 . S
C1613 C1609 1.383 1_554 S
C1613 C1612 1.377 . S
C1613 H1627 0.950 . S
C1614 C1611 1.481 . S
C1614 C1615 1.297 . S
C1614 H1628 0.950 . S
C1615 C1614 1.297 . S
C1615 C1616 1.479 . S
C1615 H1629 0.950 . S
C1616 C1615 1.479 . S
C1616 C1617 1.375 . S
C1616 C1622 1.404 . S
C1617 C1616 1.375 . S
C1617 C1618 1.369 . S
C1617 H1630 0.950 . S
C1618 C1617 1.369 . S
C1618 C1619 1.392 . S
C1618 H1631 0.951 . S
C1619 C1618 1.392 . S
C1619 C1621 1.384 . S
H1620 C1622 0.949 . S
C1621 C1619 1.384 . S
C1621 C1622 1.385 . S
C1621 H1623 0.950 . S
C1622 C1616 1.404 . S
C1622 H1620 0.949 . S
C1622 C1621 1.385 . S
H1623 C1621 0.950 . S
H1624 C1608 0.951 . S
H1625 C1610 0.951 . S
H1626 C1612 0.981 . S
H1627 C1613 0.950 . S
H1628 C1614 0.950 . S
H1629 C1615 0.950 . S
H1630 C1617 0.950 . S
H1631 C1618 0.951 . S
C1632 C1633 1.386 . S
C1632 C1634 1.383 . S
C1632 H1648 0.951 1_556 S
C1633 C1632 1.386 . S
C1633 C1637 1.383 . S
C1634 C1632 1.383 . S
C1634 C1635 1.402 . S
C1634 H1649 0.951 . S
C1635 C1634 1.402 . S
C1635 C1636 1.375 . S
C1635 C1638 1.481 . S
C1636 C1635 1.375 . S
C1636 C1637 1.367 . S
C1636 H1650 0.951 . S
C1637 C1633 1.383 . S
C1637 C1636 1.367 . S
C1637 H1651 0.950 . S
C1638 C1635 1.481 . S
C1638 C1639 1.297 . S
C1638 H1652 0.950 . S
C1639 C1638 1.297 . S
C1639 C1640 1.479 . S
C1639 H1653 0.950 . S
C1640 C1639 1.479 . S
C1640 C1641 1.375 . S
C1640 C1646 1.404 . S
C1641 C1640 1.375 . S
C1641 C1642 1.369 . S
C1641 H1654 0.950 . S
C1642 C1641 1.369 . S
C1642 C1643 1.392 . S
C1642 H1655 0.951 . S
C1643 C1642 1.392 . S
C1643 C1645 1.384 . S
H1644 C1646 0.949 . S
C1645 C1643 1.384 . S
C1645 C1646 1.385 . S
C1645 H1647 0.950 . S
C1646 C1640 1.404 . S
C1646 H1644 0.949 . S
C1646 C1645 1.385 . S
H1647 C1645 0.950 . S
H1648 C1632 0.951 1_554 S
H1649 C1634 0.951 . S
H1650 C1636 0.951 . S
H1651 C1637 0.950 . S
H1652 C1638 0.950 . S
H1653 C1639 0.950 . S
H1654 C1641 0.950 . S
H1655 C1642 0.951 . S
C1656 C1657 1.386 . S
C1656 C1658 1.383 . S
C1656 H1672 0.951 . S
C1657 C1656 1.386 . S
C1657 C1661 1.383 . S
C1658 C1656 1.383 . S
C1658 C1659 1.402 . S
C1658 H1673 0.951 . S
C1659 C1658 1.402 . S
C1659 C1660 1.375 . S
C1659 C1662 1.481 . S
C1660 C1659 1.375 . S
C1660 C1661 1.367 . S
C1660 H1674 0.951 . S
C1661 C1657 1.383 . S
C1661 C1660 1.367 . S
C1661 H1675 0.950 . S
C1662 C1659 1.481 . S
C1662 C1663 1.297 . S
C1662 H1676 0.950 . S
C1663 C1662 1.297 . S
C1663 C1664 1.479 . S
C1663 H1677 0.950 . S
C1664 C1663 1.479 . S
C1664 C1665 1.375 . S
C1664 C1670 1.404 . S
C1665 C1664 1.375 . S
C1665 C1666 1.369 . S
C1665 H1678 0.950 . S
C1666 C1665 1.369 . S
C1666 C1667 1.392 . S
C1666 H1679 0.951 . S
C1667 C1666 1.392 . S
C1667 C1669 1.384 . S
H1668 C1670 0.949 . S
C1669 C1667 1.384 . S
C1669 C1670 1.385 . S
C1669 H1671 0.950 . S
C1670 C1664 1.404 . S
C1670 H1668 0.949 . S
C1670 C1669 1.385 . S
H1671 C1669 0.950 . S
H1672 C1656 0.951 . S
H1673 C1658 0.951 . S
H1674 C1660 0.951 . S
H1675 C1661 0.950 . S
H1676 C1662 0.950 . S
H1677 C1663 0.950 . S
H1678 C1665 0.950 . S
H1679 C1666 0.951 . S
C1680 C1681 1.386 . S
C1680 C1682 1.383 . S
C1680 H1696 0.951 . S
C1681 C1680 1.386 . S
C1681 C1685 1.383 . S
C1682 C1680 1.383 . S
C1682 C1683 1.402 . S
C1682 H1697 0.951 . S
C1683 C1682 1.402 . S
C1683 C1684 1.375 . S
C1683 C1686 1.481 . S
C1684 C1683 1.375 . S
C1684 C1685 1.367 . S
C1684 H1698 0.951 . S
C1685 C1681 1.383 . S
C1685 C1684 1.367 . S
C1685 H1699 0.950 . S
C1686 C1683 1.481 . S
C1686 C1687 1.297 . S
C1686 H1700 0.950 . S
C1687 C1686 1.297 . S
C1687 C1688 1.479 . S
C1687 H1701 0.950 . S
C1688 C1687 1.479 . S
C1688 C1689 1.375 . S
C1688 C1694 1.404 . S
C1689 C1688 1.375 . S
C1689 C1690 1.369 . S
C1689 H1702 0.950 . S
C1690 C1689 1.369 . S
C1690 C1691 1.392 . S
C1690 H1703 0.951 . S
C1691 C1690 1.392 . S
C1691 C1693 1.384 . S
H1692 C1694 0.949 . S
C1693 C1691 1.384 . S
C1693 C1694 1.385 . S
C1693 H1695 0.950 . S
C1694 C1688 1.404 . S
C1694 H1692 0.949 . S
C1694 C1693 1.385 . S
H1695 C1693 0.950 . S
H1696 C1680 0.951 . S
H1697 C1682 0.951 . S
H1698 C1684 0.951 . S
H1699 C1685 0.950 . S
H1700 C1686 0.950 . S
H1701 C1687 0.950 . S
H1702 C1689 0.950 . S
H1703 C1690 0.951 . S
C1704 C1705 1.386 . S
C1704 C1706 1.383 . S
C1704 H1720 0.951 . S
C1705 C1704 1.386 . S
C1705 C1709 1.383 . S
C1706 C1704 1.383 . S
C1706 C1707 1.402 . S
C1706 H1721 0.951 . S
C1707 C1706 1.402 . S
C1707 C1708 1.375 . S
C1707 C1710 1.481 . S
C1708 C1707 1.375 . S
C1708 C1709 1.367 . S
C1708 H1722 0.951 . S
C1709 C1705 1.383 . S
C1709 C1708 1.367 . S
C1709 H1723 0.950 . S
C1710 C1707 1.481 . S
C1710 C1711 1.297 . S
C1710 H1724 0.950 . S
C1711 C1710 1.297 . S
C1711 C1712 1.479 . S
C1711 H1725 0.950 . S
C1712 C1711 1.479 . S
C1712 C1713 1.375 . S
C1712 C1718 1.404 . S
C1713 C1712 1.375 . S
C1713 C1714 1.369 . S
C1713 H1726 0.950 . S
C1714 C1713 1.369 . S
C1714 C1715 1.392 . S
C1714 H1727 0.951 . S
C1715 C1714 1.392 . S
C1715 C1717 1.384 . S
H1716 C1718 0.949 . S
C1717 C1715 1.384 . S
C1717 C1718 1.385 . S
C1717 H1719 0.950 . S
C1718 C1712 1.404 . S
C1718 H1716 0.949 . S
C1718 C1717 1.385 . S
H1719 C1717 0.950 . S
H1720 C1704 0.951 . S
H1721 C1706 0.951 . S
H1722 C1708 0.951 . S
H1723 C1709 0.950 . S
H1724 C1710 0.950 . S
H1725 C1711 0.950 . S
H1726 C1713 0.950 . S
H1727 C1714 0.951 . S
C1728 C1729 1.386 . S
C1728 C1730 1.383 . S
C1728 H1744 0.951 . S
C1729 C1728 1.386 . S
C1729 C1733 1.383 . S
C1730 C1728 1.383 . S
C1730 C1731 1.402 . S
C1730 H1745 0.951 . S
C1731 C1730 1.402 . S
C1731 C1732 1.375 . S
C1731 C1734 1.481 . S
C1732 C1731 1.375 . S
C1732 C1733 1.367 . S
C1732 H1746 0.951 . S
C1733 C1729 1.383 . S
C1733 C1732 1.367 . S
C1733 H1747 0.950 . S
C1734 C1731 1.481 . S
C1734 C1735 1.297 . S
C1734 H1748 0.950 . S
C1735 C1734 1.297 . S
C1735 C1736 1.479 . S
C1735 H1749 0.950 . S
C1736 C1735 1.479 . S
C1736 C1737 1.375 . S
C1736 C1742 1.404 . S
C1737 C1736 1.375 . S
C1737 C1738 1.369 . S
C1737 H1750 0.950 . S
C1738 C1737 1.369 . S
C1738 C1739 1.392 . S
C1738 H1751 0.951 . S
C1739 C1738 1.392 . S
C1739 C1741 1.384 . S
H1740 C1742 0.949 . S
C1741 C1739 1.384 . S
C1741 C1742 1.385 . S
C1741 H1743 0.950 . S
C1742 C1736 1.404 . S
C1742 H1740 0.949 . S
C1742 C1741 1.385 . S
H1743 C1741 0.950 . S
H1744 C1728 0.951 . S
H1745 C1730 0.951 . S
H1746 C1732 0.951 . S
H1747 C1733 0.950 . S
H1748 C1734 0.950 . S
H1749 C1735 0.950 . S
H1750 C1737 0.950 . S
H1751 C1738 0.951 . S
C1752 C1753 1.386 . S
C1752 C1754 1.383 . S
C1752 H1768 0.951 . S
C1753 C1752 1.386 . S
C1753 C1757 1.383 . S
C1754 C1752 1.383 . S
C1754 C1755 1.402 . S
C1754 H1769 0.951 . S
C1755 C1754 1.402 . S
C1755 C1756 1.375 . S
C1755 C1758 1.481 . S
C1756 C1755 1.375 . S
C1756 C1757 1.367 . S
C1756 H1770 0.951 . S
C1757 C1753 1.383 . S
C1757 C1756 1.367 . S
C1757 H1771 0.950 . S
C1758 C1755 1.481 . S
C1758 C1759 1.297 . S
C1758 H1772 0.950 . S
C1759 C1758 1.297 . S
C1759 C1760 1.479 . S
C1759 H1773 0.950 . S
C1760 C1759 1.479 . S
C1760 C1761 1.375 . S
C1760 C1766 1.404 . S
C1761 C1760 1.375 . S
C1761 C1762 1.369 . S
C1761 H1774 0.950 . S
C1762 C1761 1.369 . S
C1762 C1763 1.392 . S
C1762 H1775 0.951 . S
C1763 C1762 1.392 . S
C1763 C1765 1.384 . S
H1764 C1766 0.949 . S
C1765 C1763 1.384 . S
C1765 C1766 1.385 . S
C1765 H1767 0.950 . S
C1766 C1760 1.404 . S
C1766 H1764 0.949 . S
C1766 C1765 1.385 . S
H1767 C1765 0.950 . S
H1768 C1752 0.951 . S
H1769 C1754 0.951 . S
H1770 C1756 0.951 . S
H1771 C1757 0.950 . S
H1772 C1758 0.950 . S
H1773 C1759 0.950 . S
H1774 C1761 0.950 . S
H1775 C1762 0.951 . S
C1776 C1777 1.386 . S
C1776 C1778 1.383 . S
C1776 H1792 0.951 . S
C1777 C1776 1.386 . S
C1777 C1781 1.383 . S
C1778 C1776 1.383 . S
C1778 C1779 1.402 . S
C1778 H1793 0.951 . S
C1779 C1778 1.402 . S
C1779 C1780 1.375 . S
C1779 C1782 1.481 . S
C1780 C1779 1.375 . S
C1780 C1781 1.367 . S
C1780 H1794 0.951 . S
C1781 C1777 1.383 . S
C1781 C1780 1.367 . S
C1781 H1795 0.950 . S
C1782 C1779 1.481 . S
C1782 C1783 1.297 . S
C1782 H1796 0.950 . S
C1783 C1782 1.297 . S
C1783 C1784 1.479 . S
C1783 H1797 0.950 . S
C1784 C1783 1.479 . S
C1784 C1785 1.375 . S
C1784 C1790 1.404 . S
C1785 C1784 1.375 . S
C1785 C1786 1.369 . S
C1785 H1798 0.950 . S
C1786 C1785 1.369 . S
C1786 C1787 1.392 . S
C1786 H1799 0.951 . S
C1787 C1786 1.392 . S
C1787 C1789 1.384 . S
H1788 C1790 0.949 . S
C1789 C1787 1.384 . S
C1789 C1790 1.385 . S
C1789 H1791 0.950 . S
C1790 C1784 1.404 . S
C1790 H1788 0.949 . S
C1790 C1789 1.385 . S
H1791 C1789 0.950 . S
H1792 C1776 0.951 . S
H1793 C1778 0.951 . S
H1794 C1780 0.951 . S
H1795 C1781 0.950 . S
H1796 C1782 0.950 . S
H1797 C1783 0.950 . S
H1798 C1785 0.950 . S
H1799 C1786 0.951 . S
C1800 C1801 1.386 . S
C1800 C1802 1.383 . S
C1800 H1816 0.951 . S
C1801 C1800 1.386 . S
C1801 C1805 1.383 . S
C1802 C1800 1.383 . S
C1802 C1803 1.402 . S
C1802 H1817 0.951 . S
C1803 C1802 1.402 . S
C1803 C1804 1.375 . S
C1803 C1806 1.481 . S
C1804 C1803 1.375 . S
C1804 C1805 1.367 . S
C1804 H1818 0.951 . S
C1805 C1801 1.383 . S
C1805 C1804 1.367 . S
C1805 H1819 0.950 . S
C1806 C1803 1.481 . S
C1806 C1807 1.297 . S
C1806 H1820 0.950 . S
C1807 C1806 1.297 . S
C1807 C1808 1.479 . S
C1807 H1821 0.950 . S
C1808 C1807 1.479 . S
C1808 C1809 1.376 . S
C1808 C1814 1.404 . S
C1809 C1808 1.376 . S
C1809 C1810 1.368 1_455 S
C1809 H1822 0.950 1_455 S
C1810 C1809 1.368 1_655 S
C1810 C1811 1.392 1_655 S
C1810 H1823 0.951 . S
C1811 C1810 1.392 1_455 S
C1811 C1813 1.384 . S
H1812 C1814 0.949 . S
C1813 C1811 1.384 . S
C1813 C1814 1.385 . S
C1813 H1815 0.950 . S
C1814 C1808 1.404 . S
C1814 H1812 0.949 . S
C1814 C1813 1.385 . S
H1815 C1813 0.950 . S
H1816 C1800 0.951 . S
H1817 C1802 0.951 . S
H1818 C1804 0.951 . S
H1819 C1805 0.950 . S
H1820 C1806 0.950 . S
H1821 C1807 0.950 . S
H1822 C1809 0.950 1_655 S
H1823 C1810 0.951 . S
C1824 C1825 1.386 . S
C1824 C1826 1.383 . S
C1824 H1840 0.951 . S
C1825 C1824 1.386 . S
C1825 C1829 1.383 . S
C1826 C1824 1.383 . S
C1826 C1827 1.402 . S
C1826 H1841 0.951 . S
C1827 C1826 1.402 . S
C1827 C1828 1.375 . S
C1827 C1830 1.481 . S
C1828 C1827 1.375 . S
C1828 C1829 1.367 . S
C1828 H1842 0.951 . S
C1829 C1825 1.383 . S
C1829 C1828 1.367 . S
C1829 H1843 0.950 . S
C1830 C1827 1.481 . S
C1830 C1831 1.297 . S
C1830 H1844 0.950 . S
C1831 C1830 1.297 . S
C1831 C1832 1.479 . S
C1831 H1845 0.950 . S
C1832 C1831 1.479 . S
C1832 C1833 1.375 . S
C1832 C1838 1.404 . S
C1833 C1832 1.375 . S
C1833 C1834 1.369 . S
C1833 H1846 0.950 . S
C1834 C1833 1.369 . S
C1834 C1835 1.392 . S
C1834 H1847 0.951 . S
C1835 C1834 1.392 . S
C1835 C1837 1.384 . S
H1836 C1838 0.949 . S
C1837 C1835 1.384 . S
C1837 C1838 1.385 . S
C1837 H1839 0.950 . S
C1838 C1832 1.404 . S
C1838 H1836 0.949 . S
C1838 C1837 1.385 . S
H1839 C1837 0.950 . S
H1840 C1824 0.951 . S
H1841 C1826 0.951 . S
H1842 C1828 0.951 . S
H1843 C1829 0.950 . S
H1844 C1830 0.950 . S
H1845 C1831 0.950 . S
H1846 C1833 0.950 . S
H1847 C1834 0.951 . S
C1848 C1849 1.386 . S
C1848 C1850 1.383 . S
C1848 H1864 0.951 . S
C1849 C1848 1.386 . S
C1849 C1853 1.383 1_565 S
C1850 C1848 1.383 . S
C1850 C1851 1.402 . S
C1850 H1865 0.951 . S
C1851 C1850 1.402 . S
C1851 C1852 1.375 1_565 S
C1851 C1854 1.481 . S
C1852 C1851 1.375 1_545 S
C1852 C1853 1.367 . S
C1852 H1866 0.951 . S
C1853 C1849 1.383 1_545 S
C1853 C1852 1.367 . S
C1853 H1867 0.950 . S
C1854 C1851 1.481 . S
C1854 C1855 1.297 . S
C1854 H1868 0.950 1_565 S
C1855 C1854 1.297 . S
C1855 C1856 1.479 . S
C1855 H1869 0.950 . S
C1856 C1855 1.479 . S
C1856 C1857 1.375 . S
C1856 C1862 1.404 1_565 S
C1857 C1856 1.375 . S
C1857 C1858 1.369 . S
C1857 H1870 0.950 . S
C1858 C1857 1.369 . S
C1858 C1859 1.392 . S
C1858 H1871 0.951 . S
C1859 C1858 1.392 . S
C1859 C1861 1.384 1_565 S
H1860 C1862 0.949 . S
C1861 C1859 1.384 1_545 S
C1861 C1862 1.385 . S
C1861 H1863 0.950 . S
C1862 C1856 1.404 1_545 S
C1862 H1860 0.949 . S
C1862 C1861 1.385 . S
H1863 C1861 0.950 . S
H1864 C1848 0.951 . S
H1865 C1850 0.951 . S
H1866 C1852 0.951 . S
H1867 C1853 0.950 . S
H1868 C1854 0.950 1_545 S
H1869 C1855 0.950 . S
H1870 C1857 0.950 . S
H1871 C1858 0.951 . S
C1872 C1873 1.386 . S
C1872 C1874 1.383 . S
C1872 H1888 0.951 . S
C1873 C1872 1.386 . S
C1873 C1877 1.383 . S
C1874 C1872 1.383 . S
C1874 C1875 1.402 . S
C1874 H1889 0.951 . S
C1875 C1874 1.402 . S
C1875 C1876 1.382 1_565 S
C1875 C1878 1.494 . S
C1876 C1875 1.382 1_545 S
C1876 C1877 1.335 1_545 S
C1876 H1890 0.979 . S
C1877 C1873 1.383 . S
C1877 C1876 1.335 1_565 S
C1877 H1891 0.957 1_565 S
C1878 C1875 1.494 . S
C1878 C1879 1.293 . S
C1878 H1892 0.941 1_565 S
C1879 C1878 1.293 . S
C1879 C1880 1.524 . S
C1879 H1893 0.950 . S
C1880 C1879 1.524 . S
C1880 C1881 1.381 . S
C1880 C1886 1.362 1_565 S
C1881 C1880 1.381 . S
C1881 C1882 1.369 . S
C1881 H1894 0.950 . S
C1882 C1881 1.369 . S
C1882 C1883 1.392 1_565 S
C1882 H1895 0.951 . S
C1883 C1882 1.392 1_545 S
C1883 C1885 1.384 . S
H1884 C1886 0.949 . S
C1885 C1883 1.384 . S
C1885 C1886 1.385 . S
C1885 H1887 0.950 . S
C1886 C1880 1.362 1_545 S
C1886 H1884 0.949 . S
C1886 C1885 1.385 . S
H1887 C1885 0.950 . S
H1888 C1872 0.951 . S
H1889 C1874 0.951 . S
H1890 C1876 0.979 . S
H1891 C1877 0.957 1_545 S
H1892 C1878 0.941 1_545 S
H1893 C1879 0.950 . S
H1894 C1881 0.950 . S
H1895 C1882 0.951 . S
C1896 C1897 1.386 . S
C1896 C1898 1.383 . S
C1896 H1912 0.951 . S
C1897 C1896 1.386 . S
C1897 C1901 1.383 . S
C1898 C1896 1.383 . S
C1898 C1899 1.402 . S
C1898 H1913 0.951 1_455 S
C1899 C1898 1.402 . S
C1899 C1900 1.375 . S
C1899 C1902 1.481 . S
C1900 C1899 1.375 . S
C1900 C1901 1.367 . S
C1900 H1914 0.951 . S
C1901 C1897 1.383 . S
C1901 C1900 1.367 . S
C1901 H1915 0.950 . S
C1902 C1899 1.481 . S
C1902 C1903 1.302 . S
C1902 H1916 0.950 . S
C1903 C1902 1.302 . S
C1903 C1904 1.490 1_455 S
C1903 H1917 0.934 1_455 S
C1904 C1903 1.490 1_655 S
C1904 C1905 1.375 . S
C1904 C1910 1.404 1_655 S
C1905 C1904 1.375 . S
C1905 C1906 1.369 . S
C1905 H1918 0.950 . S
C1906 C1905 1.369 . S
C1906 C1907 1.392 . S
C1906 H1919 0.951 . S
C1907 C1906 1.392 . S
C1907 C1909 1.384 1_655 S
H1908 C1910 0.949 . S
C1909 C1907 1.384 1_455 S
C1909 C1910 1.385 . S
C1909 H1911 0.950 . S
C1910 C1904 1.404 1_455 S
C1910 H1908 0.949 . S
C1910 C1909 1.385 . S
H1911 C1909 0.950 . S
H1912 C1896 0.951 . S
H1913 C1898 0.951 1_655 S
H1914 C1900 0.951 . S
H1915 C1901 0.950 . S
H1916 C1902 0.950 . S
H1917 C1903 0.934 1_655 S
H1918 C1905 0.950 . S
H1919 C1906 0.951 . S
C1920 C1921 1.386 . S
C1920 C1922 1.383 . S
C1920 H1936 0.951 . S
C1921 C1920 1.386 . S
C1921 C1925 1.383 . S
C1922 C1920 1.383 . S
C1922 C1923 1.402 . S
C1922 H1937 0.951 . S
C1923 C1922 1.402 . S
C1923 C1924 1.375 . S
C1923 C1926 1.481 . S
C1924 C1923 1.375 . S
C1924 C1925 1.367 . S
C1924 H1938 0.951 . S
C1925 C1921 1.383 . S
C1925 C1924 1.367 . S
C1925 H1939 0.950 . S
C1926 C1923 1.481 . S
C1926 C1927 1.297 . S
C1926 H1940 0.950 . S
C1927 C1926 1.297 . S
C1927 C1928 1.479 . S
C1927 H1941 0.950 . S
C1928 C1927 1.479 . S
C1928 C1929 1.375 . S
C1928 C1934 1.404 . S
C1929 C1928 1.375 . S
C1929 C1930 1.369 . S
C1929 H1942 0.950 . S
C1930 C1929 1.369 . S
C1930 C1931 1.392 . S
C1930 H1943 0.951 . S
C1931 C1930 1.392 . S
C1931 C1933 1.384 . S
H1932 C1934 0.949 . S
C1933 C1931 1.384 . S
C1933 C1934 1.385 . S
C1933 H1935 0.950 . S
C1934 C1928 1.404 . S
C1934 H1932 0.949 . S
C1934 C1933 1.385 . S
H1935 C1933 0.950 . S
H1936 C1920 0.951 . S
H1937 C1922 0.951 . S
H1938 C1924 0.951 . S
H1939 C1925 0.950 . S
H1940 C1926 0.950 . S
H1941 C1927 0.950 . S
H1942 C1929 0.950 . S
H1943 C1930 0.951 . S
C1944 C1945 1.386 . S
C1944 C1946 1.383 . S
C1944 H1960 0.951 . S
C1945 C1944 1.386 . S
C1945 C1949 1.383 . S
C1946 C1944 1.383 . S
C1946 C1947 1.402 . S
C1946 H1961 0.951 . S
C1947 C1946 1.402 . S
C1947 C1948 1.375 . S
C1947 C1950 1.481 . S
C1948 C1947 1.375 . S
C1948 C1949 1.367 . S
C1948 H1962 0.951 . S
C1949 C1945 1.383 . S
C1949 C1948 1.367 . S
C1949 H1963 0.950 . S
C1950 C1947 1.481 . S
C1950 C1951 1.297 . S
C1950 H1964 0.950 . S
C1951 C1950 1.297 . S
C1951 C1952 1.479 . S
C1951 H1965 0.950 . S
C1952 C1951 1.479 . S
C1952 C1953 1.375 . S
C1952 C1958 1.404 . S
C1953 C1952 1.375 . S
C1953 C1954 1.369 . S
C1953 H1966 0.950 . S
C1954 C1953 1.369 . S
C1954 C1955 1.392 . S
C1954 H1967 0.951 . S
C1955 C1954 1.392 . S
C1955 C1957 1.384 . S
H1956 C1958 0.949 . S
C1957 C1955 1.384 . S
C1957 C1958 1.385 . S
C1957 H1959 0.950 . S
C1958 C1952 1.404 . S
C1958 H1956 0.949 . S
C1958 C1957 1.385 . S
H1959 C1957 0.950 . S
H1960 C1944 0.951 . S
H1961 C1946 0.951 . S
H1962 C1948 0.951 . S
H1963 C1949 0.950 . S
H1964 C1950 0.950 . S
H1965 C1951 0.950 . S
H1966 C1953 0.950 . S
H1967 C1954 0.951 . S
C1968 C1969 1.386 . S
C1968 C1970 1.383 . S
C1968 H1984 0.951 . S
C1969 C1968 1.386 . S
C1969 C1973 1.383 . S
C1970 C1968 1.383 . S
C1970 C1971 1.402 . S
C1970 H1985 0.951 . S
C1971 C1970 1.402 . S
C1971 C1972 1.375 . S
C1971 C1974 1.481 . S
C1972 C1971 1.375 . S
C1972 C1973 1.367 . S
C1972 H1986 0.951 . S
C1973 C1969 1.383 . S
C1973 C1972 1.367 . S
C1973 H1987 0.950 . S
C1974 C1971 1.481 . S
C1974 C1975 1.297 . S
C1974 H1988 0.950 . S
C1975 C1974 1.297 . S
C1975 C1976 1.479 . S
C1975 H1989 0.950 . S
C1976 C1975 1.479 . S
C1976 C1977 1.375 . S
C1976 C1982 1.404 . S
C1977 C1976 1.375 . S
C1977 C1978 1.369 . S
C1977 H1990 0.950 . S
C1978 C1977 1.369 . S
C1978 C1979 1.392 . S
C1978 H1991 0.951 . S
C1979 C1978 1.392 . S
C1979 C1981 1.384 . S
H1980 C1982 0.949 . S
C1981 C1979 1.384 . S
C1981 C1982 1.385 . S
C1981 H1983 0.950 . S
C1982 C1976 1.404 . S
C1982 H1980 0.949 . S
C1982 C1981 1.385 . S
H1983 C1981 0.950 . S
H1984 C1968 0.951 . S
H1985 C1970 0.951 . S
H1986 C1972 0.951 . S
H1987 C1973 0.950 . S
H1988 C1974 0.950 . S
H1989 C1975 0.950 . S
H1990 C1977 0.950 . S
H1991 C1978 0.951 . S
C1992 C1993 1.386 . S
C1992 C1994 1.383 . S
C1992 H2008 0.951 . S
C1993 C1992 1.386 . S
C1993 C1997 1.383 . S
C1994 C1992 1.383 . S
C1994 C1995 1.402 . S
C1994 H2009 0.951 . S
C1995 C1994 1.402 . S
C1995 C1996 1.375 . S
C1995 C1998 1.481 . S
C1996 C1995 1.375 . S
C1996 C1997 1.367 . S
C1996 H2010 0.951 . S
C1997 C1993 1.383 . S
C1997 C1996 1.367 . S
C1997 H2011 0.950 . S
C1998 C1995 1.481 . S
C1998 C1999 1.297 . S
C1998 H2012 0.950 . S
C1999 C1998 1.297 . S
C1999 C2000 1.479 . S
C1999 H2013 0.950 . S
C2000 C1999 1.479 . S
C2000 C2001 1.375 . S
C2000 C2006 1.404 . S
C2001 C2000 1.375 . S
C2001 C2002 1.369 . S
C2001 H2014 0.950 . S
C2002 C2001 1.369 . S
C2002 C2003 1.392 . S
C2002 H2015 0.951 . S
C2003 C2002 1.392 . S
C2003 C2005 1.384 . S
H2004 C2006 0.949 . S
C2005 C2003 1.384 . S
C2005 C2006 1.385 . S
C2005 H2007 0.950 . S
C2006 C2000 1.404 . S
C2006 H2004 0.949 . S
C2006 C2005 1.385 . S
H2007 C2005 0.950 . S
H2008 C1992 0.951 . S
H2009 C1994 0.951 . S
H2010 C1996 0.951 . S
H2011 C1997 0.950 . S
H2012 C1998 0.950 . S
H2013 C1999 0.950 . S
H2014 C2001 0.950 . S
H2015 C2002 0.951 . S
C2016 C2017 1.386 . S
C2016 C2018 1.383 . S
C2016 H2032 0.951 . S
C2017 C2016 1.386 . S
C2017 C2021 1.383 . S
C2018 C2016 1.383 . S
C2018 C2019 1.402 . S
C2018 H2033 0.951 . S
C2019 C2018 1.402 . S
C2019 C2020 1.375 1_545 S
C2019 C2022 1.481 . S
C2020 C2019 1.375 1_565 S
C2020 C2021 1.367 1_565 S
C2020 H2034 0.951 . S
C2021 C2017 1.383 . S
C2021 C2020 1.367 1_545 S
C2021 H2035 0.950 1_545 S
C2022 C2019 1.481 . S
C2022 C2023 1.297 . S
C2022 H2036 0.950 1_545 S
C2023 C2022 1.297 . S
C2023 C2024 1.479 . S
C2023 H2037 0.950 . S
C2024 C2023 1.479 . S
C2024 C2025 1.375 . S
C2024 C2030 1.404 1_545 S
C2025 C2024 1.375 . S
C2025 C2026 1.369 . S
C2025 H2038 0.950 . S
C2026 C2025 1.369 . S
C2026 C2027 1.392 . S
C2026 H2039 0.951 . S
C2027 C2026 1.392 . S
C2027 C2029 1.384 1_545 S
H2028 C2030 0.949 . S
C2029 C2027 1.384 1_565 S
C2029 C2030 1.385 . S
C2029 H2031 0.950 . S
C2030 C2024 1.404 1_565 S
C2030 H2028 0.949 . S
C2030 C2029 1.385 . S
H2031 C2029 0.950 . S
H2032 C2016 0.951 . S
H2033 C2018 0.951 . S
H2034 C2020 0.951 . S
H2035 C2021 0.950 1_565 S
H2036 C2022 0.950 1_565 S
H2037 C2023 0.950 . S
H2038 C2025 0.950 . S
H2039 C2026 0.951 . S
C2040 C2041 1.386 . S
C2040 C2042 1.383 . S
C2040 H2056 0.951 . S
C2041 C2040 1.386 . S
C2041 C2045 1.383 . S
C2042 C2040 1.383 . S
C2042 C2043 1.402 . S
C2042 H2057 0.951 . S
C2043 C2042 1.402 . S
C2043 C2044 1.375 . S
C2043 C2046 1.481 . S
C2044 C2043 1.375 . S
C2044 C2045 1.367 . S
C2044 H2058 0.951 1_655 S
C2045 C2041 1.383 . S
C2045 C2044 1.367 . S
C2045 H2059 0.950 1_655 S
C2046 C2043 1.481 . S
C2046 C2047 1.297 . S
C2046 H2060 0.931 1_655 S
C2047 C2046 1.297 . S
C2047 C2048 1.479 . S
C2047 H2061 0.950 . S
C2048 C2047 1.479 . S
C2048 C2049 1.375 . S
C2048 C2054 1.404 . S
C2049 C2048 1.375 . S
C2049 C2050 1.369 . S
C2049 H2062 0.950 . S
C2050 C2049 1.369 . S
C2050 C2051 1.392 . S
C2050 H2063 0.951 . S
C2051 C2050 1.392 . S
C2051 C2053 1.384 1_655 S
H2052 C2054 0.949 1_455 S
C2053 C2051 1.384 1_455 S
C2053 C2054 1.385 1_455 S
C2053 H2055 0.950 . S
C2054 C2048 1.404 . S
C2054 H2052 0.949 1_655 S
C2054 C2053 1.385 1_655 S
H2055 C2053 0.950 . S
H2056 C2040 0.951 . S
H2057 C2042 0.951 . S
H2058 C2044 0.951 1_455 S
H2059 C2045 0.950 1_455 S
H2060 C2046 0.931 1_455 S
H2061 C2047 0.950 . S
H2062 C2049 0.950 . S
H2063 C2050 0.951 . S
C2064 C2065 1.386 . S
C2064 C2066 1.383 . S
C2064 H2080 0.951 . S
C2065 C2064 1.386 . S
C2065 C2069 1.383 . S
C2066 C2064 1.383 . S
C2066 C2067 1.402 . S
C2066 H2081 0.951 . S
C2067 C2066 1.402 . S
C2067 C2068 1.375 . S
C2067 C2070 1.481 . S
C2068 C2067 1.375 . S
C2068 C2069 1.367 . S
C2068 H2082 0.951 . S
C2069 C2065 1.383 . S
C2069 C2068 1.367 . S
C2069 H2083 0.950 . S
C2070 C2067 1.481 . S
C2070 C2071 1.297 . S
C2070 H2084 0.950 . S
C2071 C2070 1.297 . S
C2071 C2072 1.479 . S
C2071 H2085 0.950 . S
C2072 C2071 1.479 . S
C2072 C2073 1.375 . S
C2072 C2078 1.404 . S
C2073 C2072 1.375 . S
C2073 C2074 1.369 . S
C2073 H2086 0.950 . S
C2074 C2073 1.369 . S
C2074 C2075 1.392 . S
C2074 H2087 0.951 . S
C2075 C2074 1.392 . S
C2075 C2077 1.384 . S
H2076 C2078 0.949 . S
C2077 C2075 1.384 . S
C2077 C2078 1.385 . S
C2077 H2079 0.950 . S
C2078 C2072 1.404 . S
C2078 H2076 0.949 . S
C2078 C2077 1.385 . S
H2079 C2077 0.950 . S
H2080 C2064 0.951 . S
H2081 C2066 0.951 . S
H2082 C2068 0.951 . S
H2083 C2069 0.950 . S
H2084 C2070 0.950 . S
H2085 C2071 0.950 . S
H2086 C2073 0.950 . S
H2087 C2074 0.951 . S
C2088 C2089 1.386 . S
C2088 C2090 1.383 . S
C2088 H2104 0.951 . S
C2089 C2088 1.386 . S
C2089 C2093 1.383 . S
C2090 C2088 1.383 . S
C2090 C2091 1.402 . S
C2090 H2105 0.951 . S
C2091 C2090 1.402 . S
C2091 C2092 1.375 . S
C2091 C2094 1.481 . S
C2092 C2091 1.375 . S
C2092 C2093 1.367 . S
C2092 H2106 0.951 . S
C2093 C2089 1.383 . S
C2093 C2092 1.367 . S
C2093 H2107 0.950 . S
C2094 C2091 1.481 . S
C2094 C2095 1.297 . S
C2094 H2108 0.950 . S
C2095 C2094 1.297 . S
C2095 C2096 1.479 . S
C2095 H2109 0.950 . S
C2096 C2095 1.479 . S
C2096 C2097 1.375 . S
C2096 C2102 1.404 . S
C2097 C2096 1.375 . S
C2097 C2098 1.369 . S
C2097 H2110 0.950 . S
C2098 C2097 1.369 . S
C2098 C2099 1.392 . S
C2098 H2111 0.951 . S
C2099 C2098 1.392 . S
C2099 C2101 1.384 . S
H2100 C2102 0.949 . S
C2101 C2099 1.384 . S
C2101 C2102 1.385 . S
C2101 H2103 0.950 . S
C2102 C2096 1.404 . S
C2102 H2100 0.949 . S
C2102 C2101 1.385 . S
H2103 C2101 0.950 . S
H2104 C2088 0.951 . S
H2105 C2090 0.951 . S
H2106 C2092 0.951 . S
H2107 C2093 0.950 . S
H2108 C2094 0.950 . S
H2109 C2095 0.950 . S
H2110 C2097 0.950 . S
H2111 C2098 0.951 . S
C2112 C2113 1.386 . S
C2112 C2114 1.383 . S
C2112 H2128 0.951 . S
C2113 C2112 1.386 . S
C2113 C2117 1.383 . S
C2114 C2112 1.383 . S
C2114 C2115 1.402 . S
C2114 H2129 0.951 . S
C2115 C2114 1.402 . S
C2115 C2116 1.375 . S
C2115 C2118 1.481 . S
C2116 C2115 1.375 . S
C2116 C2117 1.367 . S
C2116 H2130 0.951 . S
C2117 C2113 1.383 . S
C2117 C2116 1.367 . S
C2117 H2131 0.950 . S
C2118 C2115 1.481 . S
C2118 C2119 1.297 . S
C2118 H2132 0.950 . S
C2119 C2118 1.297 . S
C2119 C2120 1.479 . S
C2119 H2133 0.950 . S
C2120 C2119 1.479 . S
C2120 C2121 1.375 . S
C2120 C2126 1.404 . S
C2121 C2120 1.375 . S
C2121 C2122 1.369 . S
C2121 H2134 0.950 . S
C2122 C2121 1.369 . S
C2122 C2123 1.392 . S
C2122 H2135 0.951 . S
C2123 C2122 1.392 . S
C2123 C2125 1.384 . S
H2124 C2126 0.949 . S
C2125 C2123 1.384 . S
C2125 C2126 1.385 . S
C2125 H2127 0.950 . S
C2126 C2120 1.404 . S
C2126 H2124 0.949 . S
C2126 C2125 1.385 . S
H2127 C2125 0.950 . S
H2128 C2112 0.951 . S
H2129 C2114 0.951 . S
H2130 C2116 0.951 . S
H2131 C2117 0.950 . S
H2132 C2118 0.950 . S
H2133 C2119 0.950 . S
H2134 C2121 0.950 . S
H2135 C2122 0.951 . S
C2136 C2137 1.386 . S
C2136 C2138 1.383 . S
C2136 H2152 0.951 . S
C2137 C2136 1.386 . S
C2137 C2141 1.383 . S
C2138 C2136 1.383 . S
C2138 C2139 1.402 . S
C2138 H2153 0.951 . S
C2139 C2138 1.402 . S
C2139 C2140 1.375 . S
C2139 C2142 1.481 . S
C2140 C2139 1.375 . S
C2140 C2141 1.367 . S
C2140 H2154 0.951 . S
C2141 C2137 1.383 . S
C2141 C2140 1.367 . S
C2141 H2155 0.950 . S
C2142 C2139 1.481 . S
C2142 C2143 1.297 . S
C2142 H2156 0.950 . S
C2143 C2142 1.297 . S
C2143 C2144 1.479 . S
C2143 H2157 0.950 . S
C2144 C2143 1.479 . S
C2144 C2145 1.375 . S
C2144 C2150 1.404 . S
C2145 C2144 1.375 . S
C2145 C2146 1.369 . S
C2145 H2158 0.950 . S
C2146 C2145 1.369 . S
C2146 C2147 1.392 . S
C2146 H2159 0.951 . S
C2147 C2146 1.392 . S
C2147 C2149 1.384 . S
H2148 C2150 0.949 . S
C2149 C2147 1.384 . S
C2149 C2150 1.385 . S
C2149 H2151 0.950 . S
C2150 C2144 1.404 . S
C2150 H2148 0.949 . S
C2150 C2149 1.385 . S
H2151 C2149 0.950 . S
H2152 C2136 0.951 . S
H2153 C2138 0.951 . S
H2154 C2140 0.951 . S
H2155 C2141 0.950 . S
H2156 C2142 0.950 . S
H2157 C2143 0.950 . S
H2158 C2145 0.950 . S
H2159 C2146 0.951 . S
C2160 C2161 1.386 . S
C2160 C2162 1.383 . S
C2160 H2176 0.951 . S
C2161 C2160 1.386 . S
C2161 C2165 1.383 . S
C2162 C2160 1.383 . S
C2162 C2163 1.402 . S
C2162 H2177 0.951 . S
C2163 C2162 1.402 . S
C2163 C2164 1.375 . S
C2163 C2166 1.481 . S
C2164 C2163 1.375 . S
C2164 C2165 1.367 . S
C2164 H2178 0.951 . S
C2165 C2161 1.383 . S
C2165 C2164 1.367 . S
C2165 H2179 0.950 . S
C2166 C2163 1.481 . S
C2166 C2167 1.297 . S
C2166 H2180 0.950 . S
C2167 C2166 1.297 . S
C2167 C2168 1.479 . S
C2167 H2181 0.950 . S
C2168 C2167 1.479 . S
C2168 C2169 1.375 . S
C2168 C2174 1.404 . S
C2169 C2168 1.375 . S
C2169 C2170 1.369 . S
C2169 H2182 0.950 . S
C2170 C2169 1.369 . S
C2170 C2171 1.392 . S
C2170 H2183 0.951 . S
C2171 C2170 1.392 . S
C2171 C2173 1.384 . S
H2172 C2174 0.949 . S
C2173 C2171 1.384 . S
C2173 C2174 1.385 . S
C2173 H2175 0.950 . S
C2174 C2168 1.404 . S
C2174 H2172 0.949 . S
C2174 C2173 1.385 . S
H2175 C2173 0.950 . S
H2176 C2160 0.951 . S
H2177 C2162 0.951 . S
H2178 C2164 0.951 . S
H2179 C2165 0.950 . S
H2180 C2166 0.950 . S
H2181 C2167 0.950 . S
H2182 C2169 0.950 . S
H2183 C2170 0.951 . S
C2184 C2185 1.386 . S
C2184 C2186 1.383 . S
C2184 H2200 0.951 . S
C2185 C2184 1.386 . S
C2185 C2189 1.383 . S
C2186 C2184 1.383 . S
C2186 C2187 1.402 . S
C2186 H2201 0.951 . S
C2187 C2186 1.402 . S
C2187 C2188 1.375 . S
C2187 C2190 1.481 . S
C2188 C2187 1.375 . S
C2188 C2189 1.367 . S
C2188 H2202 0.951 . S
C2189 C2185 1.383 . S
C2189 C2188 1.367 . S
C2189 H2203 0.950 . S
C2190 C2187 1.481 . S
C2190 C2191 1.297 . S
C2190 H2204 0.950 . S
C2191 C2190 1.297 . S
C2191 C2192 1.479 . S
C2191 H2205 0.950 . S
C2192 C2191 1.479 . S
C2192 C2193 1.375 . S
C2192 C2198 1.404 . S
C2193 C2192 1.375 . S
C2193 C2194 1.369 . S
C2193 H2206 0.950 . S
C2194 C2193 1.369 . S
C2194 C2195 1.392 . S
C2194 H2207 0.951 . S
C2195 C2194 1.392 . S
C2195 C2197 1.384 . S
H2196 C2198 0.949 . S
C2197 C2195 1.384 . S
C2197 C2198 1.385 . S
C2197 H2199 0.950 . S
C2198 C2192 1.404 . S
C2198 H2196 0.949 . S
C2198 C2197 1.385 . S
H2199 C2197 0.950 . S
H2200 C2184 0.951 . S
H2201 C2186 0.951 . S
H2202 C2188 0.951 . S
H2203 C2189 0.950 . S
H2204 C2190 0.950 . S
H2205 C2191 0.950 . S
H2206 C2193 0.950 . S
H2207 C2194 0.951 . S
C2208 C2209 1.386 . S
C2208 C2210 1.383 . S
C2208 H2224 0.951 . S
C2209 C2208 1.386 . S
C2209 C2213 1.383 . S
C2210 C2208 1.383 . S
C2210 C2211 1.402 . S
C2210 H2225 0.951 . S
C2211 C2210 1.402 . S
C2211 C2212 1.375 . S
C2211 C2214 1.481 . S
C2212 C2211 1.375 . S
C2212 C2213 1.367 . S
C2212 H2226 0.951 . S
C2213 C2209 1.383 . S
C2213 C2212 1.367 . S
C2213 H2227 0.950 . S
C2214 C2211 1.481 . S
C2214 C2215 1.297 . S
C2214 H2228 0.950 . S
C2215 C2214 1.297 . S
C2215 C2216 1.479 . S
C2215 H2229 0.950 . S
C2216 C2215 1.479 . S
C2216 C2217 1.375 . S
C2216 C2222 1.404 . S
C2217 C2216 1.375 . S
C2217 C2218 1.369 . S
C2217 H2230 0.950 . S
C2218 C2217 1.369 . S
C2218 C2219 1.392 . S
C2218 H2231 0.951 . S
C2219 C2218 1.392 . S
C2219 C2221 1.384 . S
H2220 C2222 0.949 . S
C2221 C2219 1.384 . S
C2221 C2222 1.385 . S
C2221 H2223 0.950 . S
C2222 C2216 1.404 . S
C2222 H2220 0.949 . S
C2222 C2221 1.385 . S
H2223 C2221 0.950 . S
H2224 C2208 0.951 . S
H2225 C2210 0.951 . S
H2226 C2212 0.951 . S
H2227 C2213 0.950 . S
H2228 C2214 0.950 . S
H2229 C2215 0.950 . S
H2230 C2217 0.950 . S
H2231 C2218 0.951 . S
C2232 C2233 1.386 . S
C2232 C2234 1.383 . S
C2232 H2248 0.951 . S
C2233 C2232 1.386 . S
C2233 C2237 1.383 . S
C2234 C2232 1.383 . S
C2234 C2235 1.402 . S
C2234 H2249 0.951 . S
C2235 C2234 1.402 . S
C2235 C2236 1.375 . S
C2235 C2238 1.481 . S
C2236 C2235 1.375 . S
C2236 C2237 1.367 . S
C2236 H2250 0.951 . S
C2237 C2233 1.383 . S
C2237 C2236 1.367 . S
C2237 H2251 0.950 . S
C2238 C2235 1.481 . S
C2238 C2239 1.297 1_655 S
C2238 H2252 0.950 . S
C2239 C2238 1.297 1_455 S
C2239 C2240 1.479 . S
C2239 H2253 0.950 . S
C2240 C2239 1.479 . S
C2240 C2241 1.375 . S
C2240 C2246 1.403 . S
C2241 C2240 1.375 . S
C2241 C2242 1.369 . S
C2241 H2254 0.950 . S
C2242 C2241 1.369 . S
C2242 C2243 1.392 . S
C2242 H2255 0.951 . S
C2243 C2242 1.392 . S
C2243 C2245 1.368 1_455 S
H2244 C2246 0.952 1_655 S
C2245 C2243 1.368 1_655 S
C2245 C2246 1.396 1_655 S
C2245 H2247 0.953 . S
C2246 C2240 1.403 . S
C2246 H2244 0.952 1_455 S
C2246 C2245 1.396 1_455 S
H2247 C2245 0.953 . S
H2248 C2232 0.951 . S
H2249 C2234 0.951 . S
H2250 C2236 0.951 . S
H2251 C2237 0.950 . S
H2252 C2238 0.950 . S
H2253 C2239 0.950 . S
H2254 C2241 0.950 . S
H2255 C2242 0.951 . S
C2256 C2257 1.386 . S
C2256 C2258 1.383 . S
C2256 H2272 0.951 . S
C2257 C2256 1.386 . S
C2257 C2261 1.383 . S
C2258 C2256 1.383 . S
C2258 C2259 1.402 . S
C2258 H2273 0.951 . S
C2259 C2258 1.402 . S
C2259 C2260 1.375 . S
C2259 C2262 1.481 . S
C2260 C2259 1.375 . S
C2260 C2261 1.367 . S
C2260 H2274 0.951 . S
C2261 C2257 1.383 . S
C2261 C2260 1.367 . S
C2261 H2275 0.950 . S
C2262 C2259 1.481 . S
C2262 C2263 1.297 . S
C2262 H2276 0.950 . S
C2263 C2262 1.297 . S
C2263 C2264 1.479 . S
C2263 H2277 0.950 . S
C2264 C2263 1.479 . S
C2264 C2265 1.375 . S
C2264 C2270 1.404 . S
C2265 C2264 1.375 . S
C2265 C2266 1.369 . S
C2265 H2278 0.950 . S
C2266 C2265 1.369 . S
C2266 C2267 1.392 . S
C2266 H2279 0.951 . S
C2267 C2266 1.392 . S
C2267 C2269 1.384 . S
H2268 C2270 0.949 . S
C2269 C2267 1.384 . S
C2269 C2270 1.385 . S
C2269 H2271 0.950 . S
C2270 C2264 1.404 . S
C2270 H2268 0.949 . S
C2270 C2269 1.385 . S
H2271 C2269 0.950 . S
H2272 C2256 0.951 . S
H2273 C2258 0.951 . S
H2274 C2260 0.951 . S
H2275 C2261 0.950 . S
H2276 C2262 0.950 . S
H2277 C2263 0.950 . S
H2278 C2265 0.950 . S
H2279 C2266 0.951 . S
C2280 C2281 1.386 . S
C2280 C2282 1.383 . S
C2280 H2296 0.951 . S
C2281 C2280 1.386 . S
C2281 C2285 1.383 1_545 S
C2282 C2280 1.383 . S
C2282 C2283 1.402 . S
C2282 H2297 0.951 . S
C2283 C2282 1.402 . S
C2283 C2284 1.375 1_545 S
C2283 C2286 1.467 . S
C2284 C2283 1.375 1_565 S
C2284 C2285 1.367 . S
C2284 H2298 0.951 . S
C2285 C2281 1.383 1_565 S
C2285 C2284 1.367 . S
C2285 H2299 0.950 . S
C2286 C2283 1.467 . S
C2286 C2287 1.368 . S
C2286 H2300 0.892 1_545 S
C2287 C2286 1.368 . S
C2287 C2288 1.479 . S
C2287 H2301 0.950 . S
C2288 C2287 1.479 . S
C2288 C2289 1.375 . S
C2288 C2294 1.404 1_545 S
C2289 C2288 1.375 . S
C2289 C2290 1.369 . S
C2289 H2302 0.950 . S
C2290 C2289 1.369 . S
C2290 C2291 1.428 . S
C2290 H2303 0.951 . S
C2291 C2290 1.428 . S
C2291 C2293 1.335 1_545 S
H2292 C2294 0.949 . S
C2293 C2291 1.335 1_565 S
C2293 C2294 1.385 . S
C2293 H2295 0.950 . S
C2294 C2288 1.404 1_565 S
C2294 H2292 0.949 . S
C2294 C2293 1.385 . S
H2295 C2293 0.950 . S
H2296 C2280 0.951 . S
H2297 C2282 0.951 . S
H2298 C2284 0.951 . S
H2299 C2285 0.950 . S
H2300 C2286 0.892 1_565 S
H2301 C2287 0.950 . S
H2302 C2289 0.950 . S
H2303 C2290 0.951 . S
C577 C4 1.528 . S
C587 C421 1.517 . S
C601 C26 1.573 . S
C611 C446 1.508 . S
C635 C457 1.527 . S
C625 C32 1.474 . S
C649 C40 1.495 . S
C659 C482 1.434 . S
C673 C12 1.552 . S
C683 C500 1.533 . S
C697 C18 1.476 . S
C707 C511 1.540 . S
C721 C46 1.496 . S
C731 C493 1.565 1_455 S
C755 C518 1.533 . S
C745 C68 1.535 . S
C779 C475 1.498 . S
C769 C74 1.513 . S
C793 C82 1.477 . S
C803 C464 1.481 1_545 S
C827 C428 1.576 . S
C817 C54 1.533 . S
C841 C60 1.478 . S
C851 C439 1.485 . S
C865 C88 1.592 . S
C875 C529 1.616 . S
C889 C110 1.584 . S
C899 C554 1.530 . S
C923 C565 1.594 . S
C913 C116 1.545 . S
C937 C124 1.527 . S
C947 C266 1.529 . S
C961 C96 1.565 . S
C971 C284 1.568 . S
C985 C102 1.528 . S
C995 C295 1.494 . S
C1009 C130 1.505 . S
C1019 C277 1.559 . S
C1033 C152 1.576 . S
C1043 C302 1.551 . S
C1067 C259 1.550 . S
C1057 C158 1.545 . S
C1091 C572 1.482 . S
C1081 C166 1.528 . S
C1115 C536 1.491 . S
C1105 C138 1.542 . S
C1139 C547 1.564 . S
C1129 C144 1.532 . S
C1153 C172 1.586 . S
C1163 C313 1.551 . S
C1177 C194 1.599 . S
C1187 C338 1.533 . S
C1201 C200 1.552 . S
C1211 C349 1.518 . S
C1225 C208 1.547 . S
C1235 C374 1.495 . S
C1259 C392 1.497 . S
C1249 C180 1.560 . S
C1283 C403 1.552 . S
C1273 C186 1.559 . S
C1307 C385 1.557 . S
C1297 C214 1.577 . S
C1331 C410 1.555 . S
C1321 C236 1.564 . S
C1345 C242 1.537 . S
C1355 C367 1.518 . S
C1379 C356 1.434 . S
C1369 C250 1.504 . S
C1393 C222 1.536 . S
C1403 C320 1.552 . S
C1427 C331 1.499 . S
C1417 C228 1.504 . S
C1451 C268 1.305 . S
C1441 C5 1.228 . S
C1465 C25 1.281 . S
C1475 C286 1.275 . S
C1499 C296 1.255 . S
C1489 C33 1.237 . S
C1523 C314 1.145 . S
C1513 C39 1.232 . S
C1547 C340 1.271 . S
C1537 C11 1.308 . S
C1571 C350 1.181 . S
C1561 C19 1.111 1_556 S
C1585 C47 1.217 1_556 S
C1595 C358 1.260 . S
C1609 C67 1.323 . S
C1619 C322 1.232 . S
C1633 C75 1.162 1_556 S
C1643 C332 1.372 . S
C1657 C81 1.291 . S
C1667 C278 1.239 . S
C1691 C304 1.296 . S
C1681 C53 1.321 . S
C1705 C61 1.203 . S
C1715 C260 1.217 . S
C1739 C376 1.306 . S
C1729 C89 1.199 . S
C1753 C109 1.339 . S
C1763 C394 1.205 . S
C1777 C117 1.193 . S
C1787 C404 1.223 . S
C1811 C422 1.236 . S
C1801 C123 1.203 . S
C1825 C95 1.291 . S
C1835 C448 1.155 . S
C1849 C103 1.104 . S
C1859 C458 1.140 . S
C1873 C131 1.100 . S
C1883 C466 1.283 1_545 S
C1897 C151 1.264 . S
C1907 C430 1.178 1_655 S
C1931 C440 1.241 . S
C1921 C159 1.217 . S
C1945 C165 1.289 . S
C1955 C386 1.165 . S
C1969 C137 1.376 . S
C1979 C412 1.339 . S
C2003 C368 1.369 . S
C1993 C145 1.124 . S
C2027 C484 1.158 . S
C2017 C173 1.137 . S
C2041 C193 1.231 . S
C2051 C502 1.147 . S
C2065 C201 1.192 . S
C2075 C512 1.222 . S
C2099 C530 1.154 . S
C2089 C207 1.248 . S
C2123 C556 1.311 . S
C2113 C179 1.324 . S
C2137 C187 1.195 . S
C2147 C566 1.329 . S
C2161 C215 1.231 . S
C2171 C574 1.301 . S
C2185 C235 1.350 . S
C2195 C538 1.204 . S
C2219 C548 1.275 . S
C2209 C243 1.165 . S
C2243 C494 1.163 . S
C2233 C249 1.219 . S
C2267 C520 1.261 . S
C2257 C221 1.322 . S
C2281 C229 1.053 . S
C2291 C476 1.313 1_545 S
