# Generated by pormake.
# Topology eea, (3,6)-cn, num edge types: 1
# Building blocks:
#     Node 0, Type 0, BuildingBlock: VETTIZ_charged_linker_0, # of connection points: 3
#     Node 1, Type 0, BuildingBlock: VETTIZ_charged_linker_0, # of connection points: 3
#     Node 2, Type 0, BuildingBlock: VETTIZ_charged_linker_0, # of connection points: 3
#     Node 3, Type 0, BuildingBlock: VETTIZ_charged_linker_0, # of connection points: 3
#     Node 4, Type 0, BuildingBlock: VETTIZ_charged_linker_0, # of connection points: 3
#     Node 5, Type 0, BuildingBlock: VETTIZ_charged_linker_0, # of connection points: 3
#     Node 6, Type 0, BuildingBlock: VETTIZ_charged_linker_0, # of connection points: 3
#     Node 7, Type 0, BuildingBlock: VETTIZ_charged_linker_0, # of connection points: 3
#     Node 8, Type 0, BuildingBlock: VETTIZ_charged_linker_0, # of connection points: 3
#     Node 9, Type 0, BuildingBlock: VETTIZ_charged_linker_0, # of connection points: 3
#     Node 10, Type 0, BuildingBlock: VETTIZ_charged_linker_0, # of connection points: 3
#     Node 11, Type 0, BuildingBlock: VETTIZ_charged_linker_0, # of connection points: 3
#     Node 12, Type 0, BuildingBlock: VETTIZ_charged_linker_0, # of connection points: 3
#     Node 13, Type 0, BuildingBlock: VETTIZ_charged_linker_0, # of connection points: 3
#     Node 14, Type 0, BuildingBlock: VETTIZ_charged_linker_0, # of connection points: 3
#     Node 15, Type 0, BuildingBlock: VETTIZ_charged_linker_0, # of connection points: 3
#     Node 16, Type 0, BuildingBlock: VETTIZ_charged_linker_0, # of connection points: 3
#     Node 17, Type 0, BuildingBlock: VETTIZ_charged_linker_0, # of connection points: 3
#     Node 18, Type 1, BuildingBlock: HISSIN_clean_sbu_0, # of connection points: 6
#     Node 19, Type 1, BuildingBlock: HISSIN_clean_sbu_0, # of connection points: 6
#     Node 20, Type 1, BuildingBlock: HISSIN_clean_sbu_0, # of connection points: 6
#     Node 21, Type 1, BuildingBlock: HISSIN_clean_sbu_0, # of connection points: 6
#     Node 22, Type 1, BuildingBlock: HISSIN_clean_sbu_0, # of connection points: 6
#     Node 23, Type 1, BuildingBlock: HISSIN_clean_sbu_0, # of connection points: 6
#     Node 24, Type 1, BuildingBlock: HISSIN_clean_sbu_0, # of connection points: 6
#     Node 25, Type 1, BuildingBlock: HISSIN_clean_sbu_0, # of connection points: 6
#     Node 26, Type 1, BuildingBlock: HISSIN_clean_sbu_0, # of connection points: 6
#     Edge 27, Type (0, 1), BuildingBlock: AJUNOK_clean_linker_0, # of connection points: 2
#     Edge 28, Type (0, 1), BuildingBlock: AJUNOK_clean_linker_0, # of connection points: 2
#     Edge 29, Type (0, 1), BuildingBlock: AJUNOK_clean_linker_0, # of connection points: 2
#     Edge 30, Type (0, 1), BuildingBlock: AJUNOK_clean_linker_0, # of connection points: 2
#     Edge 31, Type (0, 1), BuildingBlock: AJUNOK_clean_linker_0, # of connection points: 2
#     Edge 32, Type (0, 1), BuildingBlock: AJUNOK_clean_linker_0, # of connection points: 2
#     Edge 33, Type (0, 1), BuildingBlock: AJUNOK_clean_linker_0, # of connection points: 2
#     Edge 34, Type (0, 1), BuildingBlock: AJUNOK_clean_linker_0, # of connection points: 2
#     Edge 35, Type (0, 1), BuildingBlock: AJUNOK_clean_linker_0, # of connection points: 2
#     Edge 36, Type (0, 1), BuildingBlock: AJUNOK_clean_linker_0, # of connection points: 2
#     Edge 37, Type (0, 1), BuildingBlock: AJUNOK_clean_linker_0, # of connection points: 2
#     Edge 38, Type (0, 1), BuildingBlock: AJUNOK_clean_linker_0, # of connection points: 2
#     Edge 39, Type (0, 1), BuildingBlock: AJUNOK_clean_linker_0, # of connection points: 2
#     Edge 40, Type (0, 1), BuildingBlock: AJUNOK_clean_linker_0, # of connection points: 2
#     Edge 41, Type (0, 1), BuildingBlock: AJUNOK_clean_linker_0, # of connection points: 2
#     Edge 42, Type (0, 1), BuildingBlock: AJUNOK_clean_linker_0, # of connection points: 2
#     Edge 43, Type (0, 1), BuildingBlock: AJUNOK_clean_linker_0, # of connection points: 2
#     Edge 44, Type (0, 1), BuildingBlock: AJUNOK_clean_linker_0, # of connection points: 2
#     Edge 45, Type (0, 1), BuildingBlock: AJUNOK_clean_linker_0, # of connection points: 2
#     Edge 46, Type (0, 1), BuildingBlock: AJUNOK_clean_linker_0, # of connection points: 2
#     Edge 47, Type (0, 1), BuildingBlock: AJUNOK_clean_linker_0, # of connection points: 2
#     Edge 48, Type (0, 1), BuildingBlock: AJUNOK_clean_linker_0, # of connection points: 2
#     Edge 49, Type (0, 1), BuildingBlock: AJUNOK_clean_linker_0, # of connection points: 2
#     Edge 50, Type (0, 1), BuildingBlock: AJUNOK_clean_linker_0, # of connection points: 2
#     Edge 51, Type (0, 1), BuildingBlock: AJUNOK_clean_linker_0, # of connection points: 2
#     Edge 52, Type (0, 1), BuildingBlock: AJUNOK_clean_linker_0, # of connection points: 2
#     Edge 53, Type (0, 1), BuildingBlock: AJUNOK_clean_linker_0, # of connection points: 2
#     Edge 54, Type (0, 1), BuildingBlock: AJUNOK_clean_linker_0, # of connection points: 2
#     Edge 55, Type (0, 1), BuildingBlock: AJUNOK_clean_linker_0, # of connection points: 2
#     Edge 56, Type (0, 1), BuildingBlock: AJUNOK_clean_linker_0, # of connection points: 2
#     Edge 57, Type (0, 1), BuildingBlock: AJUNOK_clean_linker_0, # of connection points: 2
#     Edge 58, Type (0, 1), BuildingBlock: AJUNOK_clean_linker_0, # of connection points: 2
#     Edge 59, Type (0, 1), BuildingBlock: AJUNOK_clean_linker_0, # of connection points: 2
#     Edge 60, Type (0, 1), BuildingBlock: AJUNOK_clean_linker_0, # of connection points: 2
#     Edge 61, Type (0, 1), BuildingBlock: AJUNOK_clean_linker_0, # of connection points: 2
#     Edge 62, Type (0, 1), BuildingBlock: AJUNOK_clean_linker_0, # of connection points: 2
#     Edge 63, Type (0, 1), BuildingBlock: AJUNOK_clean_linker_0, # of connection points: 2
#     Edge 64, Type (0, 1), BuildingBlock: AJUNOK_clean_linker_0, # of connection points: 2
#     Edge 65, Type (0, 1), BuildingBlock: AJUNOK_clean_linker_0, # of connection points: 2
#     Edge 66, Type (0, 1), BuildingBlock: AJUNOK_clean_linker_0, # of connection points: 2
#     Edge 67, Type (0, 1), BuildingBlock: AJUNOK_clean_linker_0, # of connection points: 2
#     Edge 68, Type (0, 1), BuildingBlock: AJUNOK_clean_linker_0, # of connection points: 2
#     Edge 69, Type (0, 1), BuildingBlock: AJUNOK_clean_linker_0, # of connection points: 2
#     Edge 70, Type (0, 1), BuildingBlock: AJUNOK_clean_linker_0, # of connection points: 2
#     Edge 71, Type (0, 1), BuildingBlock: AJUNOK_clean_linker_0, # of connection points: 2
#     Edge 72, Type (0, 1), BuildingBlock: AJUNOK_clean_linker_0, # of connection points: 2
#     Edge 73, Type (0, 1), BuildingBlock: AJUNOK_clean_linker_0, # of connection points: 2
#     Edge 74, Type (0, 1), BuildingBlock: AJUNOK_clean_linker_0, # of connection points: 2
#     Edge 75, Type (0, 1), BuildingBlock: AJUNOK_clean_linker_0, # of connection points: 2
#     Edge 76, Type (0, 1), BuildingBlock: AJUNOK_clean_linker_0, # of connection points: 2
#     Edge 77, Type (0, 1), BuildingBlock: AJUNOK_clean_linker_0, # of connection points: 2
#     Edge 78, Type (0, 1), BuildingBlock: AJUNOK_clean_linker_0, # of connection points: 2
#     Edge 79, Type (0, 1), BuildingBlock: AJUNOK_clean_linker_0, # of connection points: 2
#     Edge 80, Type (0, 1), BuildingBlock: AJUNOK_clean_linker_0, # of connection points: 2
# Relax obj value: 0.035
# Max RMSD: 0.133
# Mean RMSD: 0.087
data_MOF--net-eea--node1-HISSIN_clean_sbu_0--node2-VETTIZ_charged_linker_0--edge1-AJUNOK_clean_linker_0
_symmetry_space_group_name_H-M    P1
_symmetry_Int_Tables_number       1
_symmetry_cell_setting            triclinic
loop_
_symmetry_equiv_pos_as_xyz
'x, y, z'
_cell_length_a     48.234709
_cell_length_b     48.533456
_cell_length_c     73.629849
_cell_angle_alpha  93.038781
_cell_angle_beta   92.770748
_cell_angle_gamma 119.86117
loop_
_atom_site_label
_atom_site_type_symbol
_atom_site_fract_x
_atom_site_fract_y
_atom_site_fract_z
_atom_type_partial_charge
C0 C 0.24313 0.20397 0.38497 0.0
C1 C 0.24292 0.22977 0.39433 0.0
C2 C 0.25654 0.23939 0.41252 0.0
C3 C 0.26845 0.19639 0.41206 0.0
C4 C 0.25581 0.18764 0.39407 0.0
C5 C 0.25597 0.15851 0.38633 0.0
H6 H 0.27085 0.03086 0.40087 0.0
C7 C 0.27806 0.17334 0.41769 0.0
C8 C 0.27094 0.15124 0.4026 0.0
H9 H 0.23842 0.05287 0.35086 0.0
H10 H 0.25248 0.10477 0.36484 0.0
H11 H 0.33426 0.09891 0.40881 0.0
H12 H 0.24076 0.05901 0.42853 0.0
H13 H 0.26981 0.07787 0.44727 0.0
H14 H 0.26872 0.04563 0.43356 0.0
H15 H 0.32426 0.07558 0.42803 0.0
H16 H 0.34052 0.11827 0.43071 0.0
C17 C 0.27759 0.16779 0.37022 0.0
C18 C 0.2206 0.13208 0.38112 0.0
C19 C 0.32031 0.17928 0.48337 0.0
C20 C 0.33045 0.16053 0.49237 0.0
C21 C 0.33057 0.13507 0.48232 0.0
C22 C 0.3202 0.12794 0.46373 0.0
C23 C 0.30941 0.14633 0.45503 0.0
C24 C 0.31018 0.17192 0.4647 0.0
C25 C 0.29867 0.18928 0.45291 0.0
C26 C 0.29084 0.16977 0.43463 0.0
C27 C 0.29668 0.14434 0.43611 0.0
C28 C 0.32671 0.22383 0.45228 0.0
C29 C 0.26835 0.18693 0.46066 0.0
C30 C 0.26723 0.0471 0.3929 0.0
C31 C 0.25267 0.03758 0.37496 0.0
C32 C 0.2487 0.05943 0.36489 0.0
C33 C 0.25691 0.08952 0.37304 0.0
C34 C 0.26913 0.09777 0.39144 0.0
C35 C 0.27526 0.07724 0.40084 0.0
C36 C 0.28914 0.09046 0.42014 0.0
C37 C 0.28881 0.12163 0.42098 0.0
C38 C 0.27666 0.12548 0.40423 0.0
C39 C 0.32375 0.09597 0.42218 0.0
C40 C 0.26616 0.0671 0.43318 0.0
H41 H 0.27911 0.23108 0.43534 0.0
H42 H 0.23267 0.19599 0.37101 0.0
H43 H 0.20467 0.13294 0.3913 0.0
H44 H 0.21677 0.10771 0.381 0.0
H45 H 0.21175 0.13508 0.36758 0.0
H46 H 0.29729 0.19309 0.37238 0.0
H47 H 0.2636 0.16494 0.35713 0.0
H48 H 0.28999 0.15389 0.36878 0.0
H49 H 0.31958 0.19878 0.49075 0.0
H50 H 0.33864 0.12055 0.4889 0.0
H51 H 0.3206 0.10809 0.45692 0.0
H52 H 0.35008 0.22444 0.45238 0.0
H53 H 0.32804 0.23946 0.46428 0.0
H54 H 0.3251 0.23445 0.43966 0.0
H55 H 0.25293 0.16288 0.46536 0.0
H56 H 0.25281 0.18994 0.45045 0.0
H57 H 0.27492 0.20479 0.47252 0.0
H58 H 0.25711 0.25963 0.41987 0.0
C59 C 0.26937 0.22287 0.42144 0.0
C60 C 0.98127 0.18555 0.394 0.0
C61 C 0.00611 0.21594 0.40077 0.0
C62 C 0.00469 0.22847 0.41823 0.0
C63 C 0.95418 0.18037 0.42173 0.0
C64 C 0.95585 0.16834 0.4046 0.0
C65 C 0.92764 0.13592 0.399 0.0
H66 H 0.78489 0.01258 0.416 0.0
C67 C 0.92397 0.15632 0.42888 0.0
C68 C 0.90855 0.1303 0.41549 0.0
H69 H 0.83777 0.02283 0.36866 0.0
H70 H 0.88016 0.07414 0.38174 0.0
H71 H 0.84493 0.0377 0.44504 0.0
H72 H 0.79815 0.08349 0.42022 0.0
H73 H 0.80856 0.09942 0.44307 0.0
H74 H 0.78152 0.05718 0.43786 0.0
H75 H 0.80781 0.0329 0.45208 0.0
H76 H 0.84611 0.06484 0.46219 0.0
C77 C 0.94012 0.11212 0.39654 0.0
C78 C 0.90962 0.1383 0.38165 0.0
C79 C 0.89042 0.17591 0.49113 0.0
C80 C 0.86273 0.15745 0.5002 0.0
C81 C 0.8393 0.1272 0.49209 0.0
C82 C 0.84273 0.11563 0.4751 0.0
C83 C 0.86997 0.1344 0.46595 0.0
C84 C 0.89343 0.16396 0.47391 0.0
C85 C 0.92051 0.18031 0.46177 0.0
C86 C 0.90929 0.15559 0.44537 0.0
C87 C 0.87961 0.12884 0.44804 0.0
C88 C 0.95173 0.18543 0.47194 0.0
C89 C 0.92201 0.21149 0.45666 0.0
C90 C 0.80569 0.02593 0.40852 0.0
C91 C 0.80782 0.01399 0.39116 0.0
C92 C 0.83528 0.03194 0.38186 0.0
C93 C 0.85999 0.06164 0.38957 0.0
C94 C 0.85736 0.07355 0.40682 0.0
C95 C 0.83066 0.05567 0.41604 0.0
C96 C 0.83217 0.07201 0.43429 0.0
C97 C 0.86417 0.10272 0.43445 0.0
C98 C 0.87867 0.10346 0.41833 0.0
C99 C 0.83256 0.05086 0.44927 0.0
C100 C 0.8036 0.07827 0.43405 0.0
H101 H 0.9792 0.22154 0.44196 0.0
H102 H 0.98121 0.17553 0.38048 0.0
H103 H 0.91059 0.16173 0.38211 0.0
H104 H 0.88375 0.12047 0.38024 0.0
H105 H 0.92045 0.13593 0.36912 0.0
H106 H 0.96171 0.11934 0.40605 0.0
H107 H 0.9469 0.11095 0.38243 0.0
H108 H 0.92262 0.08781 0.39983 0.0
H109 H 0.90888 0.1992 0.49714 0.0
H110 H 0.81818 0.11231 0.499 0.0
H111 H 0.82385 0.09247 0.46974 0.0
H112 H 0.9471 0.16391 0.47889 0.0
H113 H 0.96155 0.20596 0.4825 0.0
H114 H 0.97044 0.18932 0.4627 0.0
H115 H 0.89743 0.2076 0.45366 0.0
H116 H 0.93431 0.22024 0.44421 0.0
H117 H 0.93415 0.23059 0.46804 0.0
H118 H 0.0236 0.25193 0.42374 0.0
C119 C 0.97894 0.21081 0.42878 0.0
C120 C 0.98263 0.79404 0.39712 0.0
C121 C 0.00741 0.78854 0.4031 0.0
C122 C 0.00558 0.77528 0.41995 0.0
C123 C 0.95427 0.77213 0.42396 0.0
C124 C 0.9565 0.78561 0.4076 0.0
C125 C 0.92834 0.78984 0.4028 0.0
H126 H 0.78096 0.76356 0.41883 0.0
C127 C 0.92352 0.76577 0.43123 0.0
C128 C 0.90836 0.77612 0.41873 0.0
H129 H 0.83996 0.81453 0.3762 0.0
H130 H 0.8821 0.80637 0.38832 0.0
H131 H 0.80025 0.70859 0.42049 0.0
H132 H 0.8369 0.80038 0.44998 0.0
H133 H 0.84127 0.77639 0.46552 0.0
H134 H 0.80164 0.76582 0.45601 0.0
H135 H 0.77856 0.71739 0.43677 0.0
H136 H 0.80626 0.70443 0.44373 0.0
C137 C 0.91122 0.76968 0.3845 0.0
C138 C 0.94068 0.82607 0.40243 0.0
C139 C 0.88985 0.71604 0.49186 0.0
C140 C 0.8623 0.70745 0.50137 0.0
C141 C 0.83764 0.71161 0.49338 0.0
C142 C 0.84025 0.72429 0.47649 0.0
C143 C 0.86791 0.73313 0.46728 0.0
C144 C 0.89213 0.72882 0.47486 0.0
C145 C 0.91961 0.73957 0.46281 0.0
C146 C 0.90814 0.75172 0.44709 0.0
C147 C 0.87771 0.74772 0.44986 0.0
C148 C 0.92224 0.71014 0.45646 0.0
C149 C 0.95029 0.76665 0.47362 0.0
C150 C 0.80309 0.77341 0.41223 0.0
C151 C 0.80673 0.78952 0.39634 0.0
C152 C 0.836 0.80144 0.38818 0.0
C153 C 0.8607 0.79689 0.39534 0.0
C154 C 0.85656 0.78052 0.41105 0.0
C155 C 0.82842 0.76967 0.41945 0.0
C156 C 0.82935 0.7548 0.43676 0.0
C157 C 0.86234 0.7578 0.43703 0.0
C158 C 0.87787 0.77241 0.42176 0.0
C159 C 0.80212 0.71947 0.43451 0.0
C160 C 0.82696 0.77508 0.45298 0.0
H161 H 0.97914 0.75693 0.44299 0.0
H162 H 0.98367 0.80508 0.38458 0.0
H163 H 0.96332 0.84069 0.41137 0.0
H164 H 0.92378 0.83299 0.40782 0.0
H165 H 0.9456 0.83365 0.38841 0.0
H166 H 0.90995 0.74613 0.38424 0.0
H167 H 0.92437 0.78192 0.37277 0.0
H168 H 0.88612 0.76408 0.38221 0.0
H169 H 0.9094 0.71346 0.49766 0.0
H170 H 0.81604 0.70487 0.50022 0.0
H171 H 0.82053 0.72675 0.47128 0.0
H172 H 0.89799 0.68885 0.45311 0.0
H173 H 0.93484 0.70438 0.46733 0.0
H174 H 0.9346 0.7132 0.44388 0.0
H175 H 0.94487 0.78353 0.4813 0.0
H176 H 0.96905 0.78122 0.46474 0.0
H177 H 0.9604 0.75694 0.48363 0.0
H178 H 0.02445 0.77097 0.42496 0.0
C179 C 0.97918 0.76701 0.43036 0.0
C180 C 0.18096 0.20434 0.62157 0.0
C181 C 0.2111 0.21246 0.61546 0.0
C182 C 0.22034 0.22935 0.59974 0.0
C183 C 0.16922 0.22766 0.59596 0.0
C184 C 0.16073 0.21243 0.61179 0.0
C185 C 0.1287 0.20689 0.61701 0.0
H186 H 0.99442 0.21506 0.59853 0.0
C187 C 0.14248 0.2321 0.58894 0.0
C188 C 0.11886 0.2203 0.60137 0.0
H189 H 0.02268 0.18447 0.64668 0.0
H190 H 0.07134 0.19445 0.63397 0.0
H191 H 0.06504 0.27755 0.59612 0.0
H192 H 0.02102 0.18277 0.56853 0.0
H193 H 0.03974 0.21101 0.55265 0.0
H194 H 0.00696 0.20993 0.56396 0.0
H195 H 0.032 0.26307 0.57897 0.0
H196 H 0.07281 0.28058 0.57299 0.0
C197 C 0.13407 0.22635 0.63558 0.0
C198 C 0.106 0.17046 0.61714 0.0
C199 C 0.14716 0.27764 0.52772 0.0
C200 C 0.12589 0.28364 0.51721 0.0
C201 C 0.09662 0.27699 0.52417 0.0
C202 C 0.08849 0.26414 0.54109 0.0
C203 C 0.10991 0.25799 0.55134 0.0
C204 C 0.13873 0.26484 0.54458 0.0
C205 C 0.15881 0.25718 0.55732 0.0
C206 C 0.13724 0.24426 0.57276 0.0
C207 C 0.10854 0.24476 0.56926 0.0
C208 C 0.19039 0.28857 0.56369 0.0
C209 C 0.1637 0.23131 0.54723 0.0
C210 C 0.01128 0.21092 0.60645 0.0
C211 C 0.00444 0.19894 0.62376 0.0
C212 C 0.02692 0.19326 0.63329 0.0
C213 C 0.05545 0.19938 0.62594 0.0
C214 C 0.06211 0.21164 0.60883 0.0
C215 C 0.04033 0.21738 0.59937 0.0
C216 C 0.05226 0.2314 0.58158 0.0
C217 C 0.0848 0.23329 0.58209 0.0
C218 C 0.09014 0.22133 0.59805 0.0
C219 C 0.05559 0.26485 0.58226 0.0
C220 C 0.0288 0.20779 0.56575 0.0
H221 H 0.20795 0.24927 0.578 0.0
H222 H 0.17308 0.19177 0.63369 0.0
H223 H 0.10901 0.15742 0.60521 0.0
H224 H 0.08037 0.16339 0.616 0.0
H225 H 0.11125 0.16159 0.62971 0.0
H226 H 0.15897 0.24697 0.63796 0.0
H227 H 0.12996 0.21138 0.64716 0.0
H228 H 0.11867 0.23724 0.63621 0.0
H229 H 0.17016 0.28315 0.52301 0.0
H230 H 0.07982 0.28141 0.51637 0.0
H231 H 0.0658 0.25944 0.54554 0.0
H232 H 0.18673 0.30948 0.56392 0.0
H233 H 0.20942 0.29296 0.55443 0.0
H234 H 0.19939 0.28888 0.57784 0.0
H235 H 0.14087 0.21262 0.53967 0.0
H236 H 0.17102 0.21853 0.5565 0.0
H237 H 0.18188 0.24183 0.53717 0.0
H238 H 0.24389 0.23731 0.59509 0.0
C239 C 0.19953 0.23668 0.5899 0.0
C240 C 0.75908 0.79471 0.63473 0.0
C241 C 0.75762 0.76735 0.62633 0.0
C242 C 0.74276 0.756 0.60846 0.0
C243 C 0.73432 0.80103 0.60694 0.0
C244 C 0.74754 0.81125 0.62479 0.0
C245 C 0.74957 0.84214 0.63123 0.0
H246 H 0.74825 0.97429 0.60968 0.0
C247 C 0.72749 0.82518 0.5999 0.0
C248 C 0.73637 0.8493 0.61411 0.0
H249 H 0.76736 0.95137 0.66317 0.0
H250 H 0.75394 0.89887 0.65055 0.0
H251 H 0.77768 0.94051 0.58565 0.0
H252 H 0.68315 0.91027 0.60173 0.0
H253 H 0.67692 0.88867 0.5806 0.0
H254 H 0.69705 0.93172 0.58198 0.0
H255 H 0.75273 0.95587 0.57761 0.0
H256 H 0.75037 0.92091 0.56628 0.0
C257 C 0.78537 0.86715 0.63644 0.0
C258 C 0.72767 0.836 0.64705 0.0
C259 C 0.68484 0.81406 0.53356 0.0
C260 C 0.67796 0.83396 0.52335 0.0
C261 C 0.6841 0.8635 0.53162 0.0
C262 C 0.69625 0.87292 0.54986 0.0
C263 C 0.70263 0.85272 0.56001 0.0
C264 C 0.69699 0.82385 0.5519 0.0
C265 C 0.70572 0.8059 0.56494 0.0
C266 C 0.71646 0.82835 0.5823 0.0
C267 C 0.71486 0.8558 0.57917 0.0
C268 C 0.73362 0.80276 0.55749 0.0
C269 C 0.67519 0.77369 0.56711 0.0
C270 C 0.74888 0.95786 0.61884 0.0
C271 C 0.75907 0.96721 0.63747 0.0
C272 C 0.76013 0.94502 0.64871 0.0
C273 C 0.75221 0.9145 0.64138 0.0
C274 C 0.74302 0.90598 0.62263 0.0
C275 C 0.74036 0.92709 0.61186 0.0
C276 C 0.72761 0.91302 0.59258 0.0
C277 C 0.72438 0.88039 0.5934 0.0
C278 C 0.73418 0.87672 0.6109 0.0
C279 C 0.75319 0.9336 0.57973 0.0
C280 C 0.69459 0.9109 0.58887 0.0
H281 H 0.72049 0.76315 0.58507 0.0
H282 H 0.77034 0.80387 0.64847 0.0
H283 H 0.70795 0.81071 0.64619 0.0
H284 H 0.71527 0.85001 0.64666 0.0
H285 H 0.74146 0.84133 0.66055 0.0
H286 H 0.80055 0.86589 0.62589 0.0
H287 H 0.79391 0.8628 0.64968 0.0
H288 H 0.79033 0.89193 0.63742 0.0
H289 H 0.68061 0.79134 0.52746 0.0
H290 H 0.67983 0.87959 0.52386 0.0
H291 H 0.70047 0.89573 0.55529 0.0
H292 H 0.75 0.82431 0.5507 0.0
H293 H 0.72444 0.78181 0.54728 0.0
H294 H 0.74917 0.80101 0.56832 0.0
H295 H 0.65386 0.77677 0.56758 0.0
H296 H 0.6765 0.76356 0.57999 0.0
H297 H 0.67035 0.75592 0.55548 0.0
H298 H 0.7408 0.73452 0.60189 0.0
C299 C 0.73104 0.77265 0.59873 0.0
C300 C 0.02859 0.81244 0.62888 0.0
C301 C 1.0026 0.78253 0.62235 0.0
C302 C 1.00253 0.7695 0.6047 0.0
C303 C 0.0541 0.81577 0.60071 0.0
C304 C 0.05396 0.82836 0.61799 0.0
C305 C 0.08341 0.86005 0.62329 0.0
H306 H 0.22592 0.98012 0.60312 0.0
C307 C 0.08424 0.83867 0.59309 0.0
C308 C 0.10142 0.86453 0.6064 0.0
H309 H 0.17761 0.97193 0.65219 0.0
H310 H 0.13402 0.92061 0.6401 0.0
H311 H 0.2124 0.90989 0.59885 0.0
H312 H 0.16243 0.9538 0.57547 0.0
H313 H 0.16304 0.92808 0.55801 0.0
H314 H 0.20039 0.96058 0.56865 0.0
H315 H 0.22598 0.93314 0.57969 0.0
H316 H 0.19774 0.89078 0.5768 0.0
C317 C 0.10149 0.85662 0.64024 0.0
C318 C 0.0729 0.88532 0.62623 0.0
C319 C 0.1098 0.81771 0.52883 0.0
C320 C 0.13687 0.83506 0.51913 0.0
C321 C 0.16271 0.86388 0.52729 0.0
C322 C 0.16181 0.87561 0.54484 0.0
C323 C 0.1348 0.85828 0.55448 0.0
C324 C 0.1094 0.82971 0.5466 0.0
C325 C 0.08337 0.81433 0.55945 0.0
C326 C 0.09724 0.83867 0.57609 0.0
C327 C 0.12731 0.86437 0.57292 0.0
C328 C 0.08023 0.78204 0.56365 0.0
C329 C 0.05225 0.81149 0.55056 0.0
C330 C 0.20588 0.96716 0.61121 0.0
C331 C 0.20533 0.97975 0.62872 0.0
C332 C 0.17887 0.96232 0.63884 0.0
C333 C 0.15345 0.93261 0.63171 0.0
C334 C 0.15432 0.92019 0.61421 0.0
C335 C 0.18021 0.9374 0.60427 0.0
C336 C 0.17682 0.92053 0.58587 0.0
C337 C 0.14456 0.89038 0.58642 0.0
C338 C 0.1316 0.8904 0.60303 0.0
C339 C 0.20469 0.9133 0.58507 0.0
C340 C 0.17581 0.94174 0.57111 0.0
H341 H 0.02666 0.77485 0.58058 0.0
H342 H 0.02909 0.82356 0.64213 0.0
H343 H 0.05128 0.87924 0.61702 0.0
H344 H 0.09116 0.9093 0.6229 0.0
H345 H 0.06689 0.8869 0.64049 0.0
H346 H 0.09894 0.83249 0.63966 0.0
H347 H 0.0919 0.86002 0.65306 0.0
H348 H 0.12765 0.87325 0.64116 0.0
H349 H 0.08975 0.79533 0.52281 0.0
H350 H 0.18367 0.87747 0.51996 0.0
H351 H 0.1823 0.89777 0.5502 0.0
H352 H 0.10421 0.78392 0.56492 0.0
H353 H 0.06524 0.7631 0.55258 0.0
H354 H 0.07016 0.77417 0.57679 0.0
H355 H 0.05758 0.83375 0.54425 0.0
H356 H 0.03466 0.80815 0.56049 0.0
H357 H 0.04071 0.79143 0.53967 0.0
H358 H 0.98274 0.74643 0.59934 0.0
C359 C 0.02809 0.78595 0.59386 0.0
C360 C 0.90904 0.5304 0.71696 0.0
C361 C 0.91361 0.55949 0.72485 0.0
C362 C 0.92774 0.57011 0.74291 0.0
C363 C 0.9322 0.5228 0.74494 0.0
C364 C 0.91843 0.51252 0.72721 0.0
C365 C 0.91426 0.48058 0.72103 0.0
H366 H 0.92348 0.35116 0.74129 0.0
C367 C 0.93829 0.49818 0.75193 0.0
C368 C 0.92784 0.4734 0.73796 0.0
H369 H 0.8875 0.36714 0.6904 0.0
H370 H 0.90128 0.41998 0.7027 0.0
H371 H 0.98667 0.4197 0.74716 0.0
H372 H 0.8935 0.38127 0.76723 0.0
H373 H 0.92174 0.40432 0.78562 0.0
H374 H 0.92241 0.37045 0.77488 0.0
H375 H 0.97539 0.39478 0.7657 0.0
H376 H 0.99324 0.43756 0.76947 0.0
C377 C 0.93473 0.4848 0.7047 0.0
C378 C 0.87785 0.45678 0.71672 0.0
C379 C 0.98595 0.51172 0.8172 0.0
C380 C 0.99324 0.49211 0.82741 0.0
C381 C 0.98829 0.46309 0.81901 0.0
C382 C 0.97572 0.45336 0.80083 0.0
C383 C 0.96789 0.47281 0.79088 0.0
C384 C 0.97328 0.50158 0.799 0.0
C385 C 0.96344 0.51899 0.78621 0.0
C386 C 0.95132 0.49588 0.76912 0.0
C387 C 0.95385 0.46886 0.77204 0.0
C388 C 0.99367 0.55099 0.78324 0.0
C389 C 0.93626 0.52252 0.79441 0.0
C390 C 0.91914 0.36629 0.73269 0.0
C391 C 0.90461 0.35519 0.71484 0.0
C392 C 0.89861 0.37527 0.70423 0.0
C393 C 0.90663 0.40589 0.7114 0.0
C394 C 0.9206 0.41645 0.72942 0.0
C395 C 0.927 0.39689 0.73965 0.0
C396 C 0.94193 0.41198 0.75851 0.0
C397 C 0.94303 0.4437 0.75802 0.0
C398 C 0.93034 0.4461 0.74102 0.0
C399 C 0.976 0.41613 0.7605 0.0
C400 C 0.919 0.391 0.77241 0.0
H401 H 0.94762 0.56125 0.76666 0.0
H402 H 0.89821 0.52163 0.70312 0.0
H403 H 0.86355 0.46203 0.72627 0.0
H404 H 0.87115 0.43184 0.71849 0.0
H405 H 0.86964 0.45821 0.70263 0.0
H406 H 0.95732 0.50831 0.70641 0.0
H407 H 0.92148 0.48364 0.69166 0.0
H408 H 0.94266 0.46704 0.70348 0.0
H409 H 0.98998 0.5344 0.82323 0.0
H410 H 0.99357 0.44754 0.82666 0.0
H411 H 0.97222 0.43086 0.79531 0.0
H412 H 0.01503 0.54799 0.78262 0.0
H413 H 0.99902 0.56942 0.79458 0.0
H414 H 0.99168 0.56026 0.77016 0.0
H415 H 0.92041 0.50119 0.80153 0.0
H416 H 0.92004 0.52413 0.78397 0.0
H417 H 0.94619 0.54369 0.80452 0.0
H418 H 0.93084 0.59213 0.74941 0.0
C419 C 0.93719 0.552 0.75296 0.0
C420 C 0.64179 0.53019 0.72255 0.0
C421 C 0.66888 0.55793 0.73059 0.0
C422 C 0.66867 0.56909 0.74865 0.0
C423 C 0.61518 0.52412 0.75055 0.0
C424 C 0.61556 0.51361 0.73276 0.0
C425 C 0.58622 0.48232 0.72653 0.0
H426 H 0.44897 0.35425 0.74564 0.0
C427 C 0.5847 0.5003 0.75749 0.0
C428 C 0.56791 0.47573 0.7434 0.0
H429 H 0.49516 0.37062 0.69529 0.0
H430 H 0.53596 0.42311 0.7079 0.0
H431 H 0.51259 0.38516 0.77289 0.0
H432 H 0.45418 0.421 0.75072 0.0
H433 H 0.47044 0.44285 0.77203 0.0
H434 H 0.44468 0.40004 0.77088 0.0
H435 H 0.47275 0.37312 0.77893 0.0
H436 H 0.50736 0.40711 0.79083 0.0
C437 C 0.5969 0.45749 0.72217 0.0
C438 C 0.56829 0.48757 0.71023 0.0
C439 C 0.55555 0.51543 0.82185 0.0
C440 C 0.52804 0.49685 0.83103 0.0
C441 C 0.5032 0.46795 0.8222 0.0
C442 C 0.50541 0.45757 0.80458 0.0
C443 C 0.53276 0.47623 0.7955 0.0
C444 C 0.55728 0.50473 0.804 0.0
C445 C 0.58411 0.52137 0.79176 0.0
C446 C 0.5712 0.49835 0.77453 0.0
C447 C 0.54127 0.47183 0.77704 0.0
C448 C 0.6148 0.52359 0.8009 0.0
C449 C 0.58752 0.55404 0.7884 0.0
C450 C 0.4676 0.36938 0.73725 0.0
C451 C 0.46893 0.35835 0.71947 0.0
C452 C 0.49385 0.37856 0.70909 0.0
C453 C 0.51748 0.40904 0.71644 0.0
C454 C 0.5163 0.41946 0.73441 0.0
C455 C 0.49136 0.39996 0.74438 0.0
C456 C 0.49371 0.41528 0.7631 0.0
C457 C 0.52481 0.44679 0.76293 0.0
C458 C 0.53794 0.44895 0.74616 0.0
C459 C 0.49656 0.39414 0.7773 0.0
C460 C 0.46424 0.41994 0.76442 0.0
H461 H 0.64319 0.56187 0.77237 0.0
H462 H 0.64153 0.52082 0.70881 0.0
H463 H 0.57022 0.51138 0.71212 0.0
H464 H 0.54224 0.47036 0.70883 0.0
H465 H 0.57851 0.4864 0.69721 0.0
H466 H 0.61884 0.46302 0.73091 0.0
H467 H 0.60245 0.45717 0.70772 0.0
H468 H 0.57899 0.43309 0.72505 0.0
H469 H 0.57491 0.53787 0.82828 0.0
H470 H 0.482 0.45313 0.82907 0.0
H471 H 0.48566 0.43528 0.79876 0.0
H472 H 0.60893 0.50137 0.80742 0.0
H473 H 0.62666 0.54382 0.81166 0.0
H474 H 0.63228 0.52608 0.79106 0.0
H475 H 0.56349 0.55168 0.78575 0.0
H476 H 0.60041 0.56413 0.7763 0.0
H477 H 0.60009 0.57153 0.80048 0.0
H478 H 0.68937 0.59059 0.75507 0.0
C479 C 0.6419 0.55239 0.75866 0.0
C480 C 0.64202 0.1137 0.72854 0.0
C481 C 0.66948 0.11411 0.73631 0.0
C482 C 0.67045 0.10864 0.75499 0.0
C483 C 0.61723 0.10162 0.75729 0.0
C484 C 0.61678 0.10815 0.73927 0.0
C485 C 0.58776 0.11034 0.73337 0.0
H486 H 0.45669 0.11709 0.75491 0.0
C487 C 0.58744 0.09776 0.76465 0.0
C488 C 0.57053 0.10358 0.75072 0.0
H489 H 0.49705 0.12799 0.70278 0.0
H490 H 0.53663 0.11638 0.71518 0.0
H491 H 0.45709 0.05375 0.76008 0.0
H492 H 0.52313 0.14983 0.78215 0.0
H493 H 0.51381 0.1241 0.79982 0.0
H494 H 0.48223 0.12684 0.78758 0.0
H495 H 0.45063 0.07008 0.78077 0.0
H496 H 0.47389 0.05022 0.78088 0.0
C497 C 0.56807 0.08394 0.71768 0.0
C498 C 0.59952 0.14484 0.72824 0.0
C499 C 0.55781 0.06012 0.82821 0.0
C500 C 0.5314 0.05431 0.83815 0.0
C501 C 0.50781 0.06023 0.83032 0.0
C502 C 0.51038 0.07181 0.81309 0.0
C503 C 0.53676 0.07748 0.80332 0.0
C504 C 0.56005 0.07178 0.81088 0.0
C505 C 0.58665 0.07988 0.79844 0.0
C506 C 0.57437 0.08944 0.78183 0.0
C507 C 0.54529 0.08835 0.78494 0.0
C508 C 0.58879 0.04959 0.79385 0.0
C509 C 0.61802 0.10824 0.80799 0.0
C510 C 0.47414 0.11709 0.7462 0.0
C511 C 0.47461 0.12513 0.72804 0.0
C512 C 0.49713 0.12371 0.71706 0.0
C513 C 0.51997 0.11658 0.72424 0.0
C514 C 0.52024 0.1102 0.7426 0.0
C515 C 0.49696 0.10947 0.75312 0.0
C516 C 0.49939 0.09923 0.77184 0.0
C517 C 0.52917 0.09598 0.77112 0.0
C518 C 0.54141 0.10284 0.75401 0.0
C519 C 0.46869 0.06678 0.77365 0.0
C520 C 0.50476 0.12624 0.78622 0.0
H521 H 0.6466 0.09784 0.77941 0.0
H522 H 0.64016 0.11796 0.71437 0.0
H523 H 0.62102 0.1624 0.73729 0.0
H524 H 0.58182 0.15262 0.73001 0.0
H525 H 0.60628 0.1475 0.71396 0.0
H526 H 0.57013 0.06238 0.71946 0.0
H527 H 0.57664 0.09229 0.70422 0.0
H528 H 0.54205 0.07526 0.71731 0.0
H529 H 0.57641 0.05597 0.83388 0.0
H530 H 0.48696 0.05543 0.83748 0.0
H531 H 0.49163 0.07586 0.808 0.0
H532 H 0.56456 0.02892 0.78947 0.0
H533 H 0.59862 0.04352 0.80598 0.0
H534 H 0.60386 0.05201 0.78258 0.0
H535 H 0.61292 0.12389 0.81713 0.0
H536 H 0.63381 0.12415 0.7982 0.0
H537 H 0.63152 0.09979 0.81644 0.0
H538 H 0.69165 0.11025 0.7618 0.0
C539 C 0.6444 0.10196 0.76538 0.0
C540 C 0.85008 0.53788 0.95543 0.0
C541 C 0.88047 0.54648 0.94955 0.0
C542 C 0.89 0.56374 0.93399 0.0
C543 C 0.83885 0.56198 0.93005 0.0
C544 C 0.82996 0.54607 0.94564 0.0
C545 C 0.79758 0.53986 0.95057 0.0
H546 H 0.66698 0.55526 0.93445 0.0
C547 C 0.81223 0.56661 0.92305 0.0
C548 C 0.78816 0.554 0.93515 0.0
H549 H 0.68985 0.51354 0.97915 0.0
H550 H 0.73858 0.52386 0.9664 0.0
H551 H 0.73996 0.61513 0.93123 0.0
H552 H 0.68939 0.52055 0.90292 0.0
H553 H 0.71023 0.54853 0.88731 0.0
H554 H 0.67848 0.55009 0.89846 0.0
H555 H 0.70459 0.60161 0.91593 0.0
H556 H 0.74355 0.61733 0.90751 0.0
C557 C 0.80218 0.55829 0.9694 0.0
C558 C 0.77503 0.50326 0.94998 0.0
C559 C 0.81993 0.61684 0.86327 0.0
C560 C 0.79915 0.62341 0.85274 0.0
C561 C 0.76909 0.61541 0.85908 0.0
C562 C 0.7602 0.60165 0.87574 0.0
C563 C 0.78141 0.59543 0.88617 0.0
C564 C 0.81064 0.60288 0.87975 0.0
C565 C 0.83005 0.59416 0.89229 0.0
C566 C 0.80768 0.57999 0.90723 0.0
C567 C 0.77918 0.58091 0.90375 0.0
C568 C 0.86141 0.62517 0.89948 0.0
C569 C 0.83531 0.56897 0.88165 0.0
C570 C 0.68236 0.54808 0.94138 0.0
C571 C 0.67444 0.53367 0.958 0.0
C572 C 0.69546 0.52511 0.96658 0.0
C573 C 0.7238 0.53101 0.95907 0.0
C574 C 0.73159 0.54567 0.94268 0.0
C575 C 0.71093 0.55369 0.93394 0.0
C576 C 0.72319 0.56839 0.91633 0.0
C577 C 0.75507 0.56887 0.91638 0.0
C578 C 0.75964 0.55543 0.93191 0.0
C579 C 0.72799 0.6024 0.91765 0.0
C580 C 0.6991 0.54599 0.90032 0.0
H581 H 0.87802 0.58423 0.91241 0.0
H582 H 0.84197 0.52488 0.96739 0.0
H583 H 0.77993 0.49078 0.93855 0.0
H584 H 0.74942 0.49586 0.94741 0.0
H585 H 0.7785 0.49396 0.96285 0.0
H586 H 0.82636 0.58005 0.97162 0.0
H587 H 0.79977 0.54328 0.98075 0.0
H588 H 0.78534 0.56737 0.97061 0.0
H589 H 0.84291 0.62209 0.85864 0.0
H590 H 0.75262 0.62019 0.85122 0.0
H591 H 0.73719 0.59644 0.8799 0.0
H592 H 0.85767 0.64603 0.90041 0.0
H593 H 0.88079 0.63054 0.89032 0.0
H594 H 0.86999 0.62426 0.91351 0.0
H595 H 0.81303 0.55131 0.8732 0.0
H596 H 0.84119 0.55477 0.89061 0.0
H597 H 0.85464 0.58038 0.87233 0.0
H598 H 0.91368 0.57186 0.92949 0.0
C599 C 0.86935 0.57127 0.92417 0.0
C600 C 0.43158 0.13253 0.9677 0.0
C601 C 0.43047 0.10519 0.95962 0.0
C602 C 0.41619 0.09353 0.94167 0.0
C603 C 0.40629 0.13762 0.93972 0.0
C604 C 0.41968 0.14846 0.9575 0.0
C605 C 0.42181 0.1795 0.96355 0.0
H606 H 0.40838 0.30599 0.94254 0.0
C607 C 0.3982 0.16091 0.9326 0.0
C608 C 0.40733 0.18548 0.94654 0.0
H609 H 0.44803 0.29256 0.99297 0.0
H610 H 0.43251 0.2389 0.98154 0.0
H611 H 0.43838 0.27586 0.91655 0.0
H612 H 0.34556 0.23651 0.93721 0.0
H613 H 0.33892 0.21773 0.91512 0.0
H614 H 0.35572 0.26045 0.91823 0.0
H615 H 0.40905 0.28641 0.90936 0.0
H616 H 0.40973 0.25279 0.89833 0.0
C617 C 0.45781 0.20496 0.96799 0.0
C618 C 0.40081 0.17397 0.97975 0.0
C619 C 0.3521 0.14643 0.86674 0.0
C620 C 0.34371 0.16524 0.85645 0.0
C621 C 0.34609 0.19305 0.86506 0.0
C622 C 0.35741 0.2025 0.88344 0.0
C623 C 0.36675 0.18415 0.89338 0.0
C624 C 0.36356 0.15634 0.88515 0.0
C625 C 0.37456 0.1399 0.89805 0.0
C626 C 0.3849 0.16253 0.91529 0.0
C627 C 0.38054 0.18852 0.91234 0.0
C628 C 0.40319 0.13865 0.8902 0.0
C629 C 0.34549 0.10684 0.90063 0.0
C630 C 0.41375 0.29143 0.95106 0.0
C631 C 0.42995 0.30357 0.96851 0.0
C632 C 0.43568 0.28368 0.97944 0.0
C633 C 0.42685 0.25263 0.97272 0.0
C634 C 0.41236 0.24146 0.95483 0.0
C635 C 0.40542 0.2605 0.94447 0.0
C636 C 0.39038 0.24484 0.92569 0.0
C637 C 0.39023 0.21356 0.92634 0.0
C638 C 0.40323 0.21183 0.94339 0.0
C639 C 0.41274 0.26597 0.91163 0.0
C640 C 0.35592 0.23972 0.92378 0.0
H641 H 0.39366 0.09974 0.91802 0.0
H642 H 0.4428 0.14213 0.98141 0.0
H643 H 0.37854 0.15022 0.97764 0.0
H644 H 0.39239 0.19131 0.98129 0.0
H645 H 0.4139 0.17473 0.99277 0.0
H646 H 0.47341 0.1995 0.95965 0.0
H647 H 0.46563 0.20605 0.98257 0.0
H648 H 0.4635 0.22904 0.96464 0.0
H649 H 0.34996 0.1246 0.86059 0.0
H650 H 0.33989 0.20798 0.85742 0.0
H651 H 0.35901 0.22412 0.88908 0.0
H652 H 0.41848 0.16065 0.88345 0.0
H653 H 0.39471 0.11798 0.87986 0.0
H654 H 0.41956 0.13765 0.9008 0.0
H655 H 0.32328 0.10832 0.90137 0.0
H656 H 0.34816 0.09741 0.91351 0.0
H657 H 0.34126 0.08921 0.88903 0.0
H658 H 0.41495 0.07226 0.93529 0.0
C659 C 0.40392 0.10952 0.93169 0.0
C660 C 0.68966 0.1456 0.95872 0.0
C661 C 0.66486 0.11498 0.95231 0.0
C662 C 0.66625 0.10164 0.93509 0.0
C663 C 0.71667 0.14947 0.9311 0.0
C664 C 0.71501 0.16229 0.94798 0.0
C665 C 0.74315 0.19491 0.9532 0.0
H666 H 0.88618 0.3167 0.93529 0.0
C667 C 0.7468 0.17315 0.92374 0.0
C668 C 0.76218 0.19976 0.93674 0.0
H669 H 0.83328 0.30872 0.98235 0.0
H670 H 0.7905 0.25734 0.96963 0.0
H671 H 0.87208 0.24539 0.93209 0.0
H672 H 0.82642 0.29121 0.90603 0.0
H673 H 0.82432 0.26288 0.88938 0.0
H674 H 0.86306 0.29478 0.89898 0.0
H675 H 0.88929 0.27153 0.91444 0.0
H676 H 0.86225 0.22931 0.90926 0.0
C677 C 0.76129 0.19337 0.97077 0.0
C678 C 0.73059 0.2187 0.95509 0.0
C679 C 0.78043 0.15035 0.86232 0.0
C680 C 0.80801 0.16835 0.85307 0.0
C681 C 0.83126 0.19908 0.86068 0.0
C682 C 0.8278 0.21152 0.87737 0.0
C683 C 0.80071 0.19317 0.88672 0.0
C684 C 0.77738 0.1632 0.87922 0.0
C685 C 0.75032 0.14751 0.89143 0.0
C686 C 0.76146 0.17307 0.90738 0.0
C687 C 0.79107 0.19965 0.90441 0.0
C688 C 0.74899 0.11678 0.8973 0.0
C689 C 0.71905 0.14175 0.881 0.0
C690 C 0.86525 0.30385 0.94276 0.0
C691 C 0.86324 0.3164 0.95996 0.0
C692 C 0.83564 0.29912 0.96927 0.0
C693 C 0.81073 0.26937 0.96179 0.0
C694 C 0.81333 0.25673 0.94475 0.0
C695 C 0.8401 0.27404 0.93547 0.0
C696 C 0.83855 0.25692 0.9175 0.0
C697 C 0.80649 0.22636 0.91761 0.0
C698 C 0.79199 0.22642 0.93361 0.0
C699 C 0.86705 0.25052 0.91815 0.0
C700 C 0.8383 0.27741 0.90208 0.0
H701 H 0.6917 0.10746 0.91144 0.0
H702 H 0.68974 0.15623 0.97205 0.0
H703 H 0.70889 0.21098 0.94556 0.0
H704 H 0.74798 0.24278 0.95141 0.0
H705 H 0.72394 0.22059 0.96915 0.0
H706 H 0.7604 0.17001 0.97076 0.0
H707 H 0.75046 0.19627 0.98319 0.0
H708 H 0.78713 0.21125 0.97206 0.0
H709 H 0.76206 0.12675 0.85668 0.0
H710 H 0.85225 0.21366 0.85359 0.0
H711 H 0.84654 0.23499 0.88236 0.0
H712 H 0.77362 0.12091 0.90051 0.0
H713 H 0.73694 0.0971 0.88622 0.0
H714 H 0.7367 0.1087 0.90982 0.0
H715 H 0.72363 0.16267 0.87344 0.0
H716 H 0.70041 0.13862 0.89013 0.0
H717 H 0.70916 0.12054 0.87091 0.0
H718 H 0.64737 0.07798 0.92988 0.0
C719 C 0.69196 0.11878 0.92442 0.0
C720 C 0.56088 0.85597 0.05517 0.0
C721 C 0.56435 0.88431 0.06354 0.0
C722 C 0.57948 0.89513 0.0814 0.0
C723 C 0.58744 0.84969 0.08218 0.0
C724 C 0.57252 0.83913 0.06469 0.0
C725 C 0.57072 0.8086 0.0577 0.0
H726 H 0.6061 0.69252 0.07093 0.0
C727 C 0.59759 0.82717 0.08799 0.0
C728 C 0.58809 0.80321 0.07362 0.0
H729 H 0.54595 0.69643 0.02678 0.0
H730 H 0.55742 0.74811 0.03938 0.0
H731 H 0.66198 0.76818 0.0756 0.0
H732 H 0.57442 0.71064 0.10011 0.0
H733 H 0.60082 0.73851 0.11764 0.0
H734 H 0.61078 0.71081 0.1067 0.0
H735 H 0.65791 0.74019 0.09172 0.0
H736 H 0.66961 0.78092 0.09901 0.0
C737 C 0.5892 0.81476 0.04037 0.0
C738 C 0.53482 0.78223 0.05464 0.0
C739 C 0.64995 0.84065 0.15202 0.0
C740 C 0.66175 0.82304 0.16081 0.0
C741 C 0.66284 0.79819 0.15071 0.0
C742 C 0.65124 0.7901 0.13234 0.0
C743 C 0.63817 0.80686 0.12394 0.0
C744 C 0.63843 0.83223 0.13356 0.0
C745 C 0.62437 0.84777 0.12203 0.0
C746 C 0.61424 0.82647 0.10425 0.0
C747 C 0.62222 0.80248 0.10559 0.0
C748 C 0.65129 0.88226 0.11975 0.0
C749 C 0.59517 0.84567 0.13112 0.0
C750 C 0.59562 0.70462 0.06386 0.0
C751 C 0.57564 0.69054 0.04761 0.0
C752 C 0.5623 0.70707 0.03897 0.0
C753 C 0.56852 0.73691 0.0465 0.0
C754 C 0.58765 0.75009 0.06307 0.0
C755 C 0.60079 0.73394 0.07147 0.0
C756 C 0.61777 0.74988 0.08986 0.0
C757 C 0.61273 0.77836 0.09108 0.0
C758 C 0.59548 0.77857 0.07527 0.0
C759 C 0.65369 0.76023 0.0892 0.0
C760 C 0.60041 0.72641 0.10443 0.0
H761 H 0.60223 0.88733 0.10432 0.0
H762 H 0.54986 0.84737 0.04136 0.0
H763 H 0.51955 0.78792 0.06313 0.0
H764 H 0.53057 0.75893 0.05877 0.0
H765 H 0.52546 0.77926 0.04016 0.0
H766 H 0.61225 0.83782 0.04244 0.0
H767 H 0.57495 0.81596 0.02844 0.0
H768 H 0.59579 0.79651 0.03684 0.0
H769 H 0.64869 0.85979 0.15947 0.0
H770 H 0.67229 0.78466 0.15716 0.0
H771 H 0.65229 0.77062 0.12551 0.0
H772 H 0.6752 0.88398 0.12009 0.0
H773 H 0.65247 0.8993 0.13086 0.0
H774 H 0.64851 0.89043 0.10641 0.0
H775 H 0.5804 0.82168 0.13604 0.0
H776 H 0.57875 0.84885 0.12166 0.0
H777 H 0.60306 0.86366 0.14304 0.0
H778 H 0.58231 0.91689 0.08812 0.0
C779 C 0.59101 0.87796 0.09077 0.0
C780 C 0.30921 0.86528 0.05678 0.0
C781 C 0.3355 0.89369 0.0648 0.0
C782 C 0.33456 0.9047 0.08277 0.0
C783 C 0.28198 0.85827 0.08463 0.0
C784 C 0.2831 0.84791 0.06693 0.0
C785 C 0.25482 0.81582 0.06077 0.0
H786 H 0.12058 0.68407 0.07952 0.0
C787 C 0.25192 0.83352 0.09155 0.0
C788 C 0.23626 0.80858 0.07755 0.0
H789 H 0.16844 0.7022 0.02973 0.0
H790 H 0.20714 0.75544 0.04231 0.0
H791 H 0.1841 0.71807 0.10753 0.0
H792 H 0.12244 0.74919 0.08402 0.0
H793 H 0.13744 0.77148 0.10529 0.0
H794 H 0.11338 0.72851 0.10428 0.0
H795 H 0.14358 0.70399 0.11301 0.0
H796 H 0.17677 0.73907 0.12508 0.0
C797 C 0.26731 0.79234 0.05673 0.0
C798 C 0.23619 0.8197 0.04428 0.0
C799 C 0.21979 0.84753 0.1553 0.0
C800 C 0.19218 0.82828 0.16424 0.0
C801 C 0.16857 0.79863 0.15553 0.0
C802 C 0.1719 0.78831 0.13814 0.0
C803 C 0.19919 0.80776 0.1292 0.0
C804 C 0.22262 0.83691 0.13766 0.0
C805 C 0.24952 0.85435 0.12557 0.0
C806 C 0.23788 0.83107 0.10846 0.0
C807 C 0.20856 0.80368 0.11092 0.0
C808 C 0.28074 0.85831 0.13508 0.0
C809 C 0.25133 0.8862 0.12181 0.0
C810 C 0.13938 0.69966 0.07135 0.0
C811 C 0.14202 0.68881 0.0538 0.0
C812 C 0.16653 0.70981 0.04349 0.0
C813 C 0.18887 0.74077 0.0508 0.0
C814 C 0.1867 0.75095 0.06863 0.0
C815 C 0.16195 0.73073 0.07847 0.0
C816 C 0.16309 0.74596 0.09703 0.0
C817 C 0.19331 0.77828 0.0969 0.0
C818 C 0.20698 0.78092 0.08029 0.0
C819 C 0.16688 0.72579 0.11154 0.0
C820 C 0.13252 0.74884 0.09787 0.0
H821 H 0.30859 0.89661 0.10635 0.0
H822 H 0.30956 0.85599 0.04314 0.0
H823 H 0.23666 0.84285 0.04599 0.0
H824 H 0.21044 0.80143 0.04278 0.0
H825 H 0.24693 0.81914 0.03135 0.0
H826 H 0.28979 0.79936 0.06537 0.0
H827 H 0.27258 0.79174 0.04225 0.0
H828 H 0.25054 0.76781 0.06001 0.0
H829 H 0.23831 0.87042 0.16175 0.0
H830 H 0.14742 0.78328 0.16228 0.0
H831 H 0.15299 0.76549 0.13235 0.0
H832 H 0.27583 0.83647 0.14176 0.0
H833 H 0.29153 0.87868 0.14578 0.0
H834 H 0.29879 0.86169 0.12546 0.0
H835 H 0.22685 0.88251 0.11869 0.0
H836 H 0.26455 0.89669 0.10988 0.0
H837 H 0.26277 0.90392 0.13389 0.0
H838 H 0.35468 0.92667 0.08918 0.0
C839 C 0.30786 0.88722 0.0927 0.0
C840 C 0.31199 0.45036 0.06175 0.0
C841 C 0.33922 0.45008 0.06927 0.0
C842 C 0.33976 0.44321 0.08772 0.0
C843 C 0.28635 0.43576 0.09015 0.0
C844 C 0.28649 0.44389 0.07243 0.0
C845 C 0.25761 0.44642 0.06674 0.0
H846 H 0.11672 0.43519 0.08522 0.0
C847 C 0.25597 0.43059 0.09739 0.0
C848 C 0.23951 0.4375 0.08372 0.0
H849 H 0.16769 0.46607 0.03692 0.0
H850 H 0.20953 0.45776 0.04965 0.0
H851 H 0.12737 0.37715 0.08913 0.0
H852 H 0.17993 0.473 0.11455 0.0
H853 H 0.17553 0.4472 0.13149 0.0
H854 H 0.14031 0.44427 0.11983 0.0
H855 H 0.11374 0.38968 0.10841 0.0
H856 H 0.14071 0.37418 0.11112 0.0
C857 C 0.23884 0.42156 0.05024 0.0
C858 C 0.26923 0.48154 0.06289 0.0
C859 C 0.22214 0.38431 0.15889 0.0
C860 C 0.19394 0.37509 0.16783 0.0
C861 C 0.17045 0.38118 0.1601 0.0
C862 C 0.17419 0.39506 0.14355 0.0
C863 C 0.20181 0.40316 0.13444 0.0
C864 C 0.22545 0.39809 0.14213 0.0
C865 C 0.25327 0.40873 0.13032 0.0
C866 C 0.24164 0.41962 0.11402 0.0
C867 C 0.21154 0.41651 0.11671 0.0
C868 C 0.25703 0.37967 0.12484 0.0
C869 C 0.28342 0.43674 0.14103 0.0
C870 C 0.13706 0.44032 0.0775 0.0
C871 C 0.13874 0.45093 0.05994 0.0
C872 C 0.16553 0.45728 0.0503 0.0
C873 C 0.18999 0.45269 0.0578 0.0
C874 C 0.18793 0.44182 0.07527 0.0
C875 C 0.16183 0.43583 0.08483 0.0
C876 C 0.16368 0.42397 0.1031 0.0
C877 C 0.19557 0.4246 0.10306 0.0
C878 C 0.20952 0.435 0.0867 0.0
C879 C 0.13487 0.38957 0.10314 0.0
C880 C 0.16471 0.4481 0.11814 0.0
H881 H 0.31527 0.43047 0.1119 0.0
H882 H 0.31044 0.45574 0.04779 0.0
H883 H 0.29267 0.49837 0.07062 0.0
H884 H 0.25286 0.48984 0.0674 0.0
H885 H 0.27237 0.4849 0.04817 0.0
H886 H 0.23844 0.39879 0.0522 0.0
H887 H 0.25017 0.43033 0.0374 0.0
H888 H 0.21339 0.41503 0.04838 0.0
H889 H 0.24078 0.38026 0.1646 0.0
H890 H 0.14897 0.37513 0.16691 0.0
H891 H 0.15522 0.39876 0.13844 0.0
H892 H 0.23339 0.35878 0.11969 0.0
H893 H 0.26661 0.37286 0.13675 0.0
H894 H 0.273 0.38393 0.11382 0.0
H895 H 0.27696 0.45201 0.14954 0.0
H896 H 0.3008 0.45298 0.13198 0.0
H897 H 0.29557 0.4279 0.15028 0.0
H898 H 0.36079 0.4443 0.09441 0.0
C899 C 0.31341 0.43566 0.09806 0.0
C900 C 0.51717 0.87401 0.28943 0.0
C901 C 0.54633 0.87973 0.28291 0.0
C902 C 0.55556 0.89489 0.26665 0.0
C903 C 0.50652 0.89733 0.26343 0.0
C904 C 0.49774 0.88292 0.27951 0.0
C905 C 0.46589 0.8782 0.28448 0.0
H906 H 0.33915 0.8997 0.26807 0.0
C907 C 0.48077 0.90327 0.25644 0.0
C908 C 0.45694 0.89213 0.26875 0.0
H909 H 0.35725 0.85281 0.3117 0.0
H910 H 0.40601 0.86219 0.29942 0.0
H911 H 0.41345 0.9573 0.26562 0.0
H912 H 0.35899 0.86377 0.23639 0.0
H913 H 0.38146 0.89142 0.22102 0.0
H914 H 0.35081 0.89521 0.2321 0.0
H915 H 0.37893 0.94608 0.25005 0.0
H916 H 0.41803 0.96023 0.24203 0.0
C917 C 0.4716 0.89792 0.30294 0.0
C918 C 0.44232 0.84186 0.28462 0.0
C919 C 0.4911 0.95493 0.19694 0.0
C920 C 0.47151 0.96341 0.18674 0.0
C921 C 0.44213 0.95726 0.19333 0.0
C922 C 0.43272 0.9434 0.2099 0.0
C923 C 0.45271 0.93521 0.21999 0.0
C924 C 0.48131 0.94095 0.21337 0.0
C925 C 0.49944 0.93039 0.22562 0.0
C926 C 0.47707 0.91722 0.24067 0.0
C927 C 0.44967 0.92015 0.23742 0.0
C928 C 0.53188 0.9602 0.23276 0.0
C929 C 0.50257 0.90402 0.21471 0.0
C930 C 0.35338 0.89108 0.27486 0.0
C931 C 0.34414 0.87562 0.29107 0.0
C932 C 0.36388 0.86531 0.29948 0.0
C933 C 0.39223 0.87061 0.29223 0.0
C934 C 0.40126 0.88624 0.27621 0.0
C935 C 0.38178 0.8958 0.26759 0.0
C936 C 0.39479 0.91065 0.25014 0.0
C937 C 0.42566 0.90922 0.25011 0.0
C938 C 0.42926 0.89505 0.26554 0.0
C939 C 0.40157 0.94539 0.25188 0.0
C940 C 0.3703 0.88945 0.23398 0.0
H941 H 0.54422 0.91494 0.24459 0.0
H942 H 0.50936 0.86236 0.30184 0.0
H943 H 0.44847 0.82779 0.27488 0.0
H944 H 0.41733 0.83489 0.28004 0.0
H945 H 0.44292 0.83373 0.29838 0.0
H946 H 0.49447 0.92111 0.30361 0.0
H947 H 0.47318 0.88496 0.31458 0.0
H948 H 0.453 0.9044 0.30506 0.0
H949 H 0.51349 0.95871 0.19211 0.0
H950 H 0.42659 0.96355 0.18572 0.0
H951 H 0.41026 0.93963 0.21425 0.0
H952 H 0.52925 0.98164 0.23481 0.0
H953 H 0.55031 0.96545 0.22295 0.0
H954 H 0.54116 0.95793 0.24628 0.0
H955 H 0.48039 0.88832 0.20562 0.0
H956 H 0.50551 0.88777 0.22352 0.0
H957 H 0.52295 0.91452 0.20601 0.0
H958 H 0.57823 0.90019 0.26154 0.0
C959 C 0.53584 0.90363 0.25689 0.0
C960 C 0.10497 0.47596 0.30137 0.0
C961 C 0.10511 0.4499 0.29226 0.0
C962 C 0.09443 0.44191 0.27356 0.0
C963 C 0.08552 0.4868 0.27315 0.0
C964 C 0.09536 0.49412 0.29158 0.0
C965 C 0.09544 0.52353 0.29908 0.0
H966 H 0.08806 0.65488 0.28286 0.0
C967 C 0.0785 0.51129 0.26692 0.0
C968 C 0.08429 0.53286 0.28208 0.0
H969 H 0.10737 0.62756 0.33487 0.0
H970 H 0.09716 0.57724 0.32028 0.0
H971 H 0.12329 0.62876 0.25828 0.0
H972 H 0.0256 0.58831 0.27141 0.0
H973 H 0.02333 0.57143 0.24933 0.0
H974 H 0.04042 0.61409 0.25341 0.0
H975 H 0.09674 0.64248 0.25055 0.0
H976 H 0.09833 0.61062 0.23792 0.0
C977 C 0.13039 0.54858 0.30624 0.0
C978 C 0.07093 0.51404 0.31371 0.0
C979 C 0.04379 0.50845 0.20007 0.0
C980 C 0.03706 0.52901 0.19045 0.0
C981 C 0.03908 0.55599 0.19994 0.0
C982 C 0.04823 0.56281 0.21867 0.0
C983 C 0.05541 0.54241 0.22809 0.0
C984 C 0.05295 0.51563 0.21886 0.0
C985 C 0.0615 0.49677 0.23125 0.0
C986 C 0.06888 0.51638 0.24945 0.0
C987 C 0.0655 0.54316 0.24741 0.0
C988 C 0.09154 0.49688 0.22458 0.0
C989 C 0.03171 0.46313 0.23136 0.0
C990 C 0.08931 0.63782 0.29125 0.0
C991 C 0.09851 0.64525 0.31008 0.0
C992 C 0.10064 0.62253 0.32032 0.0
C993 C 0.09469 0.59335 0.31182 0.0
C994 C 0.0866 0.58682 0.29287 0.0
C995 C 0.08305 0.60847 0.28304 0.0
C996 C 0.07276 0.59692 0.26323 0.0
C997 C 0.072 0.56528 0.26263 0.0
C998 C 0.08064 0.55977 0.27994 0.0
C999 C 0.09891 0.62089 0.25176 0.0
C1000 C 0.0389 0.59259 0.25897 0.0
H1001 H 0.07703 0.45313 0.24971 0.0
H1002 H 0.11232 0.48221 0.31583 0.0
H1003 H 0.05088 0.48906 0.31067 0.0
H1004 H 0.05912 0.52859 0.31414 0.0
H1005 H 0.08244 0.51583 0.32749 0.0
H1006 H 0.14761 0.54858 0.29672 0.0
H1007 H 0.13679 0.54326 0.31979 0.0
H1008 H 0.13497 0.57325 0.30733 0.0
H1009 H 0.04235 0.4875 0.19309 0.0
H1010 H 0.03328 0.57173 0.19287 0.0
H1011 H 0.04951 0.58382 0.22506 0.0
H1012 H 0.10785 0.51988 0.219 0.0
H1013 H 0.08474 0.47748 0.2136 0.0
H1014 H 0.10644 0.49477 0.23567 0.0
H1015 H 0.00939 0.46456 0.23136 0.0
H1016 H 0.03202 0.45128 0.24369 0.0
H1017 H 0.02935 0.44753 0.21909 0.0
H1018 H 0.09427 0.42182 0.26629 0.0
C1019 C 0.0846 0.46019 0.26396 0.0
C1020 C 0.36251 0.4683 0.29676 0.0
C1021 C 0.33522 0.4398 0.28956 0.0
C1022 C 0.33382 0.42873 0.27118 0.0
C1023 C 0.38645 0.47407 0.26784 0.0
C1024 C 0.38741 0.48504 0.28572 0.0
C1025 C 0.41687 0.51663 0.29124 0.0
H1026 H 0.55302 0.64329 0.26932 0.0
C1027 C 0.41614 0.49776 0.26011 0.0
C1028 C 0.43371 0.52285 0.27383 0.0
H1029 H 0.51028 0.62864 0.32078 0.0
H1030 H 0.46797 0.57654 0.30872 0.0
H1031 H 0.54595 0.57584 0.26401 0.0
H1032 H 0.48783 0.61305 0.24332 0.0
H1033 H 0.49047 0.58967 0.22515 0.0
H1034 H 0.52657 0.62361 0.23596 0.0
H1035 H 0.5549 0.59711 0.24396 0.0
H1036 H 0.52882 0.55436 0.24271 0.0
C1037 C 0.4363 0.51219 0.30707 0.0
C1038 C 0.40612 0.54127 0.29599 0.0
C1039 C 0.44328 0.4782 0.19595 0.0
C1040 C 0.47036 0.49623 0.18634 0.0
C1041 C 0.49436 0.52654 0.19407 0.0
C1042 C 0.49224 0.53843 0.2113 0.0
C1043 C 0.46578 0.51993 0.22106 0.0
C1044 C 0.44162 0.49046 0.21341 0.0
C1045 C 0.4154 0.47459 0.22612 0.0
C1046 C 0.42862 0.49891 0.2428 0.0
C1047 C 0.45803 0.52546 0.23954 0.0
C1048 C 0.41274 0.44257 0.23039 0.0
C1049 C 0.38412 0.47115 0.21702 0.0
C1050 C 0.53478 0.62864 0.27805 0.0
C1051 C 0.53494 0.64006 0.29602 0.0
C1052 C 0.51047 0.62045 0.30684 0.0
C1053 C 0.48595 0.59016 0.2998 0.0
C1054 C 0.48576 0.57926 0.28171 0.0
C1055 C 0.51013 0.59821 0.27125 0.0
C1056 C 0.5064 0.58232 0.25249 0.0
C1057 C 0.47524 0.55106 0.25328 0.0
C1058 C 0.46326 0.54956 0.27036 0.0
C1059 C 0.53549 0.57723 0.25051 0.0
C1060 C 0.50283 0.60317 0.23837 0.0
H1061 H 0.35686 0.43596 0.24652 0.0
H1062 H 0.36446 0.47763 0.31075 0.0
H1063 H 0.38372 0.53546 0.28763 0.0
H1064 H 0.42367 0.56569 0.29292 0.0
H1065 H 0.4013 0.54166 0.31057 0.0
H1066 H 0.43437 0.48837 0.30525 0.0
H1067 H 0.42732 0.51397 0.32044 0.0
H1068 H 0.4623 0.52943 0.30769 0.0
H1069 H 0.42435 0.45493 0.19021 0.0
H1070 H 0.51501 0.54109 0.18674 0.0
H1071 H 0.5115 0.56158 0.21636 0.0
H1072 H 0.43699 0.44577 0.23364 0.0
H1073 H 0.401 0.42449 0.21848 0.0
H1074 H 0.39931 0.43274 0.24235 0.0
H1075 H 0.38935 0.49216 0.20938 0.0
H1076 H 0.36745 0.47028 0.22702 0.0
H1077 H 0.3716 0.44954 0.2072 0.0
H1078 H 0.31269 0.40739 0.26502 0.0
C1079 C 0.35934 0.44557 0.26035 0.0
Eu1080 Eu 0.49319 0.97944 0.99187 0.0
Eu1081 Eu 0.51825 0.02477 0.03131 0.0
C1082 C 0.48745 0.04143 0.99756 0.0
C1083 C 0.48879 0.96766 0.94098 0.0
C1084 C 0.51199 0.00015 0.94124 0.0
C1085 C 0.4839 0.96439 0.90774 0.0
C1086 C 0.52083 0.01469 0.92492 0.0
C1087 C 0.475 0.94984 0.9241 0.0
C1088 C 0.50658 0.99712 0.90795 0.0
C1089 C 0.47837 0.95299 0.95833 0.0
O1090 O 0.4764 0.97787 0.03644 0.0
O1091 O 0.44924 0.96224 1.00803 0.0
C1092 C 0.44982 0.96091 0.02588 0.0
O1093 O 0.50144 0.94979 0.01153 0.0
O1094 O 0.50754 0.04811 0.05383 0.0
O1095 O 0.55284 0.049 0.05516 0.0
O1096 O 0.53888 0.99204 0.0311 0.0
C1097 C 0.52442 0.96176 0.02492 0.0
O1098 O 0.54692 0.01056 0.9936 0.0
O1099 O 0.55358 0.05394 0.01135 0.0
O1100 O 0.48635 0.03829 0.01514 0.0
O1101 O 0.50066 0.95334 0.96931 0.0
O1102 O 0.46037 0.96128 0.96707 0.0
O1103 O 0.49818 0.02674 0.98724 0.0
C1104 C 0.52663 0.04192 0.08243 0.0
C1105 C 0.5141 0.00927 0.08435 0.0
C1106 C 0.52301 0.05043 0.11493 0.0
C1107 C 0.50596 0.99728 0.1014 0.0
C1108 C 0.53109 0.0624 0.09785 0.0
C1109 C 0.51021 0.01768 0.11689 0.0
C1110 C 0.53295 0.05411 0.0642 0.0
C1111 C 0.56298 0.0413 0.9985 0.0
H1112 H 0.52306 0.01438 0.95411 0.0
H1113 H 0.47244 0.95022 0.8949 0.0
H1114 H 0.53881 0.03976 0.92559 0.0
H1115 H 0.45704 0.92479 0.92358 0.0
H1116 H 0.51031 0.99298 0.07262 0.0
H1117 H 0.52612 0.06668 0.12653 0.0
H1118 H 0.49642 0.97204 0.10251 0.0
H1119 H 0.54035 0.08759 0.09663 0.0
Eu1120 Eu 0.02829 0.50574 0.9903 0.0
Eu1121 Eu 0.98775 0.49343 0.02664 0.0
C1122 C 0.96365 0.44036 0.99242 0.0
C1123 C 0.05143 0.5151 0.94189 0.0
C1124 C 0.01928 0.49659 0.93484 0.0
C1125 C 0.06657 0.53197 0.91175 0.0
C1126 C 0.01084 0.49563 0.91634 0.0
C1127 C 0.07503 0.53283 0.93029 0.0
C1128 C 0.03436 0.51348 0.90464 0.0
C1129 C 0.0602 0.51674 0.9614 0.0
O1130 O 0.03334 0.49348 0.03535 0.0
O1131 O 0.04077 0.47595 1.00764 0.0
C1132 C 0.04593 0.47986 0.0255 0.0
O1133 O 0.06065 0.54419 0.01215 0.0
O1134 O 0.96359 0.46225 0.04779 0.0
O1135 O 0.96624 0.50805 0.04776 0.0
O1136 O 0.02186 0.54625 0.02767 0.0
C1137 C 0.05158 0.55941 0.0234 0.0
O1138 O 0.99511 0.52512 0.98489 0.0
O1139 O 0.95683 0.49921 1.00492 0.0
O1140 O 0.96778 0.44601 0.01025 0.0
O1141 O 0.05906 0.53894 0.97156 0.0
O1142 O 0.04748 0.48955 0.96868 0.0
O1143 O 0.98031 0.46262 0.98175 0.0
C1144 C 0.97087 0.49012 0.07613 0.0
C1145 C 1.00371 0.50311 0.08115 0.0
C1146 C 0.96083 0.48936 0.1081 0.0
C1147 C 0.01506 0.5092 0.09955 0.0
C1148 C 0.94947 0.4832 0.08965 0.0
C1149 C 0.99376 0.50261 0.1132 0.0
C1150 C 0.95901 0.48328 0.05679 0.0
C1151 C 0.96658 0.51562 0.99061 0.0
H1152 H 1.00073 0.48279 0.94364 0.0
H1153 H 0.08512 0.54585 0.90298 0.0
H1154 H 0.98597 0.48054 0.91113 0.0
H1155 H 0.09993 0.54739 0.93557 0.0
H1156 H 0.02052 0.50839 0.07083 0.0
H1157 H 0.94396 0.48413 0.11837 0.0
H1158 H 0.04045 0.5188 0.10311 0.0
H1159 H 0.92403 0.47306 0.08596 0.0
Eu1160 Eu 0.51752 0.48896 0.02894 0.0
Eu1161 Eu 0.48905 0.50325 0.99031 0.0
C1162 C 0.52935 0.55889 0.02213 0.0
C1163 C 0.52035 0.4734 0.07844 0.0
C1164 C 0.50601 0.49153 0.08324 0.0
C1165 C 0.51085 0.45229 0.10814 0.0
C1166 C 0.49487 0.49061 0.10052 0.0
C1167 C 0.52219 0.45338 0.09088 0.0
C1168 C 0.49769 0.47143 0.11331 0.0
C1169 C 0.53242 0.47455 0.06031 0.0
O1170 O 0.54046 0.51743 0.98629 0.0
O1171 O 0.55349 0.49352 1.00898 0.0
C1172 C 0.55937 0.50811 0.99383 0.0
O1173 O 0.48128 0.44242 0.01331 0.0
O1174 O 0.49236 0.53649 0.97055 0.0
O1175 O 0.45485 0.48688 0.96618 0.0
O1176 O 0.49001 0.4581 0.98459 0.0
C1177 C 0.48038 0.43569 0.99576 0.0
O1178 O 0.47615 0.49475 0.0363 0.0
O1179 O 0.44733 0.48154 1.00827 0.0
O1180 O 0.50502 0.54645 0.00967 0.0
O1181 O 0.51198 0.4534 0.04768 0.0
O1182 O 0.54845 0.50267 0.05433 0.0
O1183 O 0.54105 0.54233 0.02944 0.0
C1184 C 0.47918 0.51335 0.94033 0.0
C1185 C 0.49086 0.4932 0.93472 0.0
C1186 C 0.48847 0.53492 0.91073 0.0
C1187 C 0.50118 0.49386 0.91723 0.0
C1188 C 0.47808 0.53421 0.92822 0.0
C1189 C 0.50039 0.51494 0.90511 0.0
C1190 C 0.47003 0.51418 0.95908 0.0
C1191 C 0.44914 0.4846 0.02628 0.0
H1192 H 0.50382 0.50674 0.07371 0.0
H1193 H 0.51262 0.43665 0.1175 0.0
H1194 H 0.48489 0.50563 0.10406 0.0
H1195 H 0.53255 0.43871 0.08729 0.0
H1196 H 0.49208 0.477 0.94387 0.0
H1197 H 0.48742 0.55125 0.90162 0.0
H1198 H 0.50931 0.47752 0.91307 0.0
H1199 H 0.46942 0.55015 0.93236 0.0
Eu1200 Eu 0.15533 0.31099 0.32353 0.0
Eu1201 Eu 0.17759 0.35569 0.36335 0.0
C1202 C 0.14773 0.3732 0.32959 0.0
C1203 C 0.1505 0.29491 0.27242 0.0
C1204 C 0.16315 0.32759 0.27051 0.0
C1205 C 0.15479 0.28655 0.24 0.0
C1206 C 0.17133 0.33961 0.25346 0.0
C1207 C 0.1466 0.27455 0.25706 0.0
C1208 C 0.16699 0.31921 0.23794 0.0
C1209 C 0.14288 0.2824 0.29053 0.0
O1210 O 0.12401 0.32324 0.3607 0.0
O1211 O 0.11932 0.28072 0.34294 0.0
C1212 C 0.10887 0.29256 0.35565 0.0
O1213 O 0.18663 0.29773 0.34041 0.0
O1214 O 0.1679 0.38091 0.38539 0.0
O1215 O 0.2092 0.37469 0.38859 0.0
O1216 O 0.17405 0.30902 0.36821 0.0
C1217 C 0.18537 0.29473 0.35801 0.0
O1218 O 0.19846 0.35751 0.31926 0.0
O1219 O 0.22284 0.3734 0.34847 0.0
O1220 O 0.17024 0.38522 0.34323 0.0
O1221 O 0.16754 0.28808 0.30148 0.0
O1222 O 0.12239 0.2874 0.29898 0.0
O1223 O 0.13401 0.34306 0.32324 0.0
C1224 C 0.17967 0.36801 0.41419 0.0
C1225 C 0.15846 0.33505 0.41419 0.0
C1226 C 0.18179 0.37287 0.44739 0.0
C1227 C 0.14921 0.32108 0.43063 0.0
C1228 C 0.19113 0.38684 0.43091 0.0
C1229 C 0.16102 0.33976 0.44747 0.0
C1230 C 0.19026 0.38233 0.3968 0.0
C1231 C 0.22404 0.37377 0.33065 0.0
H1232 H 0.16671 0.34383 0.28223 0.0
H1233 H 0.1518 0.27028 0.22844 0.0
H1234 H 0.18059 0.36482 0.25236 0.0
H1235 H 0.13738 0.24937 0.25828 0.0
H1236 H 0.14915 0.32007 0.40143 0.0
H1237 H 0.1913 0.38789 0.46013 0.0
H1238 H 0.13267 0.29566 0.43016 0.0
H1239 H 0.20751 0.41228 0.43122 0.0
Eu1240 Eu 0.69145 0.83654 0.32465 0.0
Eu1241 Eu 0.64838 0.82157 0.36005 0.0
C1242 C 0.62861 0.76846 0.32673 0.0
C1243 C 0.71537 0.84643 0.27629 0.0
C1244 C 0.68298 0.82949 0.26957 0.0
C1245 C 0.7307 0.85804 0.24554 0.0
C1246 C 0.67447 0.82692 0.25092 0.0
C1247 C 0.73919 0.86067 0.26423 0.0
C1248 C 0.69824 0.84131 0.23874 0.0
C1249 C 0.72418 0.85054 0.29594 0.0
O1250 O 0.68241 0.80314 0.36601 0.0
O1251 O 0.72155 0.83141 0.34692 0.0
C1252 C 0.71135 0.81368 0.36064 0.0
O1253 O 0.70594 0.88323 0.34063 0.0
O1254 O 0.6173 0.78755 0.37834 0.0
O1255 O 0.62826 0.83675 0.38163 0.0
O1256 O 0.69526 0.86581 0.36896 0.0
C1257 C 0.71046 0.88876 0.35844 0.0
O1258 O 0.64506 0.8328 0.31429 0.0
O1259 O 0.63218 0.84741 0.34123 0.0
O1260 O 0.61829 0.78215 0.33824 0.0
O1261 O 0.71821 0.87036 0.30516 0.0
O1262 O 0.71553 0.82447 0.30396 0.0
O1263 O 0.65832 0.78327 0.32229 0.0
C1264 C 0.62343 0.81026 0.40819 0.0
C1265 C 0.65537 0.82815 0.41573 0.0
C1266 C 0.60648 0.79325 0.43806 0.0
C1267 C 0.66274 0.82901 0.4344 0.0
C1268 C 0.5991 0.79255 0.41939 0.0
C1269 C 0.63832 0.8119 0.4458 0.0
C1270 C 0.61552 0.80927 0.3886 0.0
C1271 C 0.62907 0.84359 0.32326 0.0
H1272 H 0.66432 0.81847 0.27877 0.0
H1273 H 0.7495 0.86876 0.23639 0.0
H1274 H 0.64929 0.81389 0.24602 0.0
H1275 H 0.76431 0.87388 0.26927 0.0
H1276 H 0.67453 0.84163 0.4072 0.0
H1277 H 0.5873 0.77924 0.44645 0.0
H1278 H 0.68747 0.84358 0.44 0.0
H1279 H 0.57441 0.77821 0.4137 0.0
Eu1280 Eu 0.1917 0.83926 0.36332 0.0
Eu1281 Eu 0.1569 0.84288 0.32413 0.0
C1282 C 0.19927 0.90355 0.35129 0.0
C1283 C 0.19961 0.82939 0.4134 0.0
C1284 C 0.16608 0.81221 0.41377 0.0
C1285 C 0.20524 0.83658 0.4465 0.0
C1286 C 0.15221 0.80745 0.43044 0.0
C1287 C 0.21905 0.84116 0.42987 0.0
C1288 C 0.17166 0.82015 0.447 0.0
C1289 C 0.21433 0.83797 0.39602 0.0
O1290 O 0.20761 0.85653 0.31836 0.0
O1291 O 0.22586 0.84065 0.34304 0.0
C1292 C 0.22878 0.85075 0.3266 0.0
O1293 O 0.15636 0.78861 0.3526 0.0
O1294 O 0.15738 0.87351 0.30333 0.0
O1295 O 0.12181 0.82318 0.30032 0.0
O1296 O 0.15417 0.7955 0.32201 0.0
C1297 C 0.149 0.77726 0.33541 0.0
O1298 O 0.14699 0.83985 0.37024 0.0
O1299 O 0.11644 0.82168 0.34276 0.0
O1300 O 0.17051 0.88639 0.34293 0.0
O1301 O 0.20499 0.81489 0.38311 0.0
O1302 O 0.21586 0.86337 0.38993 0.0
O1303 O 0.21578 0.88994 0.35599 0.0
C1304 C 0.14392 0.84808 0.27356 0.0
C1305 C 0.15455 0.82706 0.26789 0.0
C1306 C 0.15281 0.86885 0.24373 0.0
C1307 C 0.16392 0.82674 0.25021 0.0
C1308 C 0.14328 0.86905 0.26138 0.0
C1309 C 0.16306 0.84755 0.2379 0.0
C1310 C 0.1354 0.84978 0.29243 0.0
C1311 C 0.119 0.82667 0.36071 0.0
H1312 H 0.15064 0.80315 0.40116 0.0
H1313 H 0.22091 0.84695 0.45897 0.0
H1314 H 0.12631 0.79424 0.43034 0.0
H1315 H 0.24494 0.85479 0.42984 0.0
H1316 H 0.15574 0.81098 0.27713 0.0
H1317 H 0.15241 0.88555 0.23467 0.0
H1318 H 0.1715 0.80993 0.24608 0.0
H1319 H 0.13568 0.88583 0.26558 0.0
Eu1320 Eu 0.82479 0.64285 0.6568 0.0
Eu1321 Eu 0.84847 0.68769 0.69677 0.0
C1322 C 0.81683 0.70366 0.66256 0.0
C1323 C 0.81896 0.62727 0.606 0.0
C1324 C 0.83831 0.66033 0.60529 0.0
C1325 C 0.81807 0.62028 0.57292 0.0
C1326 C 0.84744 0.67331 0.58859 0.0
C1327 C 0.809 0.6073 0.5897 0.0
C1328 C 0.83744 0.65348 0.57215 0.0
C1329 C 0.8093 0.61407 0.62378 0.0
O1330 O 0.80987 0.63825 0.70091 0.0
O1331 O 0.78129 0.62546 0.67324 0.0
C1332 C 0.78259 0.62254 0.69088 0.0
O1333 O 0.83955 0.61702 0.67609 0.0
O1334 O 0.83409 0.70762 0.71928 0.0
O1335 O 0.88081 0.71165 0.72152 0.0
O1336 O 0.8752 0.66079 0.69533 0.0
C1337 C 0.864 0.63122 0.68859 0.0
O1338 O 0.87669 0.67995 0.65581 0.0
O1339 O 0.88534 0.71934 0.67828 0.0
O1340 O 0.81658 0.70095 0.68023 0.0
O1341 O 0.83221 0.61573 0.63481 0.0
O1342 O 0.79132 0.62269 0.63229 0.0
O1343 O 0.82711 0.68886 0.65197 0.0
C1344 C 0.85288 0.70241 0.7483 0.0
C1345 C 0.84261 0.6702 0.75041 0.0
C1346 C 0.84712 0.71016 0.78058 0.0
C1347 C 0.83454 0.65806 0.76745 0.0
C1348 C 0.85513 0.72228 0.76353 0.0
C1349 C 0.83662 0.67786 0.78274 0.0
C1350 C 0.85939 0.71486 0.73012 0.0
C1351 C 0.89356 0.70922 0.66364 0.0
H1352 H 0.84617 0.67612 0.61771 0.0
H1353 H 0.80929 0.60436 0.56052 0.0
H1354 H 0.86237 0.69892 0.58854 0.0
H1355 H 0.79394 0.58174 0.58993 0.0
H1356 H 0.84059 0.65439 0.73883 0.0
H1357 H 0.84854 0.72593 0.79202 0.0
H1358 H 0.82685 0.6332 0.76872 0.0
H1359 H 0.86265 0.7471 0.76218 0.0
Eu1360 Eu 0.36133 0.17524 0.65659 0.0
Eu1361 Eu 0.31816 0.1593 0.6925 0.0
C1362 C 0.30122 0.10689 0.65923 0.0
C1363 C 0.3844 0.18401 0.60805 0.0
C1364 C 0.35204 0.1667 0.60128 0.0
C1365 C 0.39962 0.19627 0.57731 0.0
C1366 C 0.34349 0.16423 0.58264 0.0
C1367 C 0.40815 0.19881 0.596 0.0
C1368 C 0.36717 0.17908 0.57046 0.0
C1369 C 0.39331 0.187 0.62767 0.0
O1370 O 0.36399 0.16159 0.703 0.0
O1371 O 0.38065 0.15261 0.67559 0.0
C1372 C 0.38209 0.15414 0.69353 0.0
O1373 O 0.39092 0.21509 0.67822 0.0
O1374 O 0.28845 0.12459 0.71094 0.0
O1375 O 0.29698 0.17275 0.71433 0.0
O1376 O 0.35032 0.21263 0.6942 0.0
C1377 C 0.37992 0.22819 0.68966 0.0
O1378 O 0.32659 0.1927 0.65102 0.0
O1379 O 0.28744 0.16372 0.67001 0.0
O1380 O 0.30587 0.11294 0.677 0.0
O1381 O 0.39042 0.20856 0.6374 0.0
O1382 O 0.3821 0.16023 0.63532 0.0
O1383 O 0.31516 0.1297 0.64845 0.0
C1384 C 0.29336 0.14644 0.74086 0.0
C1385 C 0.32518 0.16497 0.74847 0.0
C1386 C 0.27671 0.12832 0.77062 0.0
C1387 C 0.33269 0.16537 0.76708 0.0
C1388 C 0.26919 0.12805 0.752 0.0
C1389 C 0.30855 0.14692 0.77834 0.0
C1390 C 0.28538 0.14536 0.72126 0.0
C1391 C 0.29743 0.18136 0.65618 0.0
H1392 H 0.33342 0.15507 0.61043 0.0
H1393 H 0.41843 0.20729 0.5682 0.0
H1394 H 0.31833 0.15077 0.57773 0.0
H1395 H 0.43326 0.21219 0.60104 0.0
H1396 H 0.34418 0.17922 0.74002 0.0
H1397 H 0.25765 0.11389 0.77898 0.0
H1398 H 0.3573 0.18055 0.77271 0.0
H1399 H 0.24454 0.11343 0.7463 0.0
Eu1400 Eu 0.85105 0.15552 0.6959 0.0
Eu1401 Eu 0.81986 0.1682 0.65808 0.0
C1402 C 0.85782 0.22291 0.68938 0.0
C1403 C 0.85997 0.14598 0.74576 0.0
C1404 C 0.84383 0.16243 0.75035 0.0
C1405 C 0.85257 0.12611 0.7758 0.0
C1406 C 0.83281 0.16132 0.76765 0.0
C1407 C 0.86383 0.12743 0.7585 0.0
C1408 C 0.83749 0.14356 0.7807 0.0
C1409 C 0.87161 0.14719 0.7275 0.0
O1410 O 0.87239 0.18581 0.65499 0.0
O1411 O 0.88278 0.1558 0.67428 0.0
C1412 C 0.88997 0.17357 0.66045 0.0
O1413 O 0.81672 0.10716 0.68192 0.0
O1414 O 0.82463 0.20263 0.63878 0.0
O1415 O 0.78652 0.15344 0.63365 0.0
O1416 O 0.81515 0.12014 0.65246 0.0
C1417 C 0.80981 0.09924 0.66433 0.0
O1418 O 0.80655 0.15524 0.70386 0.0
O1419 O 0.77828 0.14735 0.67599 0.0
O1420 O 0.83055 0.20775 0.67926 0.0
O1421 O 0.85239 0.12381 0.71552 0.0
O1422 O 0.88394 0.17467 0.72062 0.0
O1423 O 0.87375 0.20843 0.6936 0.0
C1424 C 0.81258 0.18036 0.60837 0.0
C1425 C 0.82669 0.16204 0.60356 0.0
C1426 C 0.81998 0.19958 0.57815 0.0
C1427 C 0.83689 0.16208 0.58609 0.0
C1428 C 0.80961 0.19938 0.59561 0.0
C1429 C 0.83334 0.18058 0.57309 0.0
C1430 C 0.80255 0.18097 0.62692 0.0
C1431 C 0.77986 0.14725 0.69393 0.0
H1432 H 0.84004 0.17645 0.7406 0.0
H1433 H 0.85581 0.11155 0.78537 0.0
H1434 H 0.82136 0.17507 0.77099 0.0
H1435 H 0.87561 0.11403 0.75508 0.0
H1436 H 0.82974 0.1476 0.61332 0.0
H1437 H 0.81761 0.21467 0.56861 0.0
H1438 H 0.84699 0.14713 0.58262 0.0
H1439 H 0.79938 0.21418 0.59919 0.0
C1440 C 0.36267 0.91942 0.03712 0.0
C1441 C 0.36461 0.9103 0.05478 0.0
C1442 C 0.39007 0.93466 0.02739 0.0
C1443 C 0.42024 0.94103 0.03496 0.0
H1444 H 0.33991 0.91524 0.03094 0.0
H1445 H 0.38776 0.94235 0.01413 0.0
S1446 S 0.43682 0.91733 0.07959 0.0
N1447 N 0.39827 0.90583 0.07863 0.0
N1448 N 0.44954 0.93388 0.06044 0.0
C1449 C 0.42204 0.93061 0.05228 0.0
C1450 C 0.39431 0.91543 0.06217 0.0
C1451 C 0.10283 0.47462 0.06107 0.0
C1452 C 0.11297 0.45575 0.05157 0.0
C1453 C 0.08058 0.4817 0.05271 0.0
C1454 C 0.06763 0.47017 0.03452 0.0
H1455 H 0.11292 0.48481 0.07487 0.0
H1456 H 0.07417 0.49703 0.06043 0.0
S1457 S 0.08343 0.41625 1.00461 0.0
N1458 N 0.10623 0.42321 0.02368 0.0
N1459 N 0.06468 0.43651 1.00789 0.0
C1460 C 0.07665 0.45015 0.02517 0.0
C1461 C 0.09922 0.44295 0.0337 0.0
C1462 C 0.55864 0.63406 0.05314 0.0
C1463 C 0.56636 0.65752 0.04073 0.0
C1464 C 0.54773 0.60224 0.04705 0.0
C1465 C 0.54347 0.5927 0.02836 0.0
H1466 H 0.56007 0.64006 0.06767 0.0
H1467 H 0.54141 0.5848 0.05699 0.0
S1468 S 0.56329 0.64468 0.99035 0.0
N1469 N 0.57194 0.66912 1.0089 0.0
N1470 N 0.54965 0.60882 0.99749 0.0
C1471 C 0.55174 0.61576 0.01581 0.0
C1472 C 0.5636 0.6483 0.02199 0.0
C1473 C 0.9023 0.37429 0.95812 0.0
C1474 C 0.88979 0.34747 0.96822 0.0
C1475 C 0.92657 0.40418 0.96596 0.0
C1476 C 0.93913 0.40828 0.9842 0.0
H1477 H 0.89277 0.3723 0.94418 0.0
H1478 H 0.93502 0.42432 0.95777 0.0
S1479 S 0.91684 0.34459 0.01573 0.0
N1480 N 0.89339 0.32621 0.99683 0.0
N1481 N 0.93878 0.38235 0.01169 0.0
C1482 C 0.92742 0.38138 0.99426 0.0
C1483 C 0.9028 0.35098 0.98625 0.0
C1484 C 0.64599 0.53408 0.98577 0.0
C1485 C 0.64471 0.52754 0.96672 0.0
C1486 C 0.61827 0.52725 0.99452 0.0
C1487 C 0.58824 0.51412 0.98455 0.0
H1488 H 0.66868 0.54473 0.99402 0.0
H1489 H 0.62047 0.53283 0.00915 0.0
S1490 S 0.57094 0.48964 0.93488 0.0
N1491 N 0.61009 0.50483 0.93851 0.0
N1492 N 0.55835 0.49316 0.95487 0.0
C1493 C 0.58646 0.50728 0.96559 0.0
C1494 C 0.61458 0.51375 0.9567 0.0
C1495 C 0.43709 0.07957 0.98687 0.0
C1496 C 0.44601 0.09009 0.96953 0.0
C1497 C 0.45146 0.06486 0.99631 0.0
C1498 C 0.47529 0.06041 0.9887 0.0
H1499 H 0.41841 0.08212 0.99298 0.0
H1500 H 0.44315 0.05607 0.00933 0.0
S1501 S 0.51039 0.08835 0.94492 0.0
N1502 N 0.48219 0.09808 0.94599 0.0
N1503 N 0.50946 0.0708 0.96366 0.0
C1504 C 0.48541 0.07226 0.97174 0.0
C1505 C 0.47067 0.08699 0.96215 0.0
C1506 C 0.63024 0.06536 0.96733 0.0
C1507 C 0.63852 0.09669 0.96403 0.0
C1508 C 0.6065 0.0481 0.97898 0.0
C1509 C 0.59021 0.06152 0.98789 0.0
H1510 H 0.64245 0.0542 0.96103 0.0
H1511 H 0.6008 0.02393 0.98098 0.0
S1512 S 0.60116 0.14184 0.98265 0.0
N1513 N 0.62736 0.13988 0.9698 0.0
N1514 N 0.58296 0.1075 0.99185 0.0
C1515 C 0.59812 0.09277 0.98464 0.0
C1516 C 0.62218 0.11031 0.97266 0.0
C1517 C 0.90525 0.54086 0.97907 0.0
C1518 C 0.90226 0.53795 0.9598 0.0
C1519 C 0.92571 0.53315 0.989 0.0
C1520 C 0.94443 0.52283 0.98005 0.0
H1521 H 0.89202 0.54961 0.98658 0.0
H1522 H 0.92741 0.53595 1.00378 0.0
S1523 S 0.94326 0.50783 0.93005 0.0
N1524 N 0.9179 0.52105 0.9323 0.0
N1525 N 0.95733 0.50808 0.95098 0.0
C1526 C 0.94143 0.51936 0.96087 0.0
C1527 C 0.92017 0.52656 0.95075 0.0
C1528 C 0.4369 0.34534 0.99257 0.0
C1529 C 0.44235 0.33734 0.975 0.0
C1530 C 0.4493 0.37722 0.99917 0.0
C1531 C 0.46758 0.40225 0.98843 0.0
H1532 H 0.42281 0.32679 1.00124 0.0
H1533 H 0.44431 0.38222 0.01276 0.0
S1534 S 0.49043 0.39384 0.94187 0.0
N1535 N 0.46848 0.35687 0.94729 0.0
N1536 N 0.49149 0.41681 0.95955 0.0
C1537 C 0.47337 0.39453 0.97085 0.0
C1538 C 0.46082 0.36208 0.96417 0.0
C1539 C 0.08624 0.64283 0.04679 0.0
C1540 C 0.11947 0.65558 0.0463 0.0
C1541 C 0.06449 0.61161 0.03948 0.0
C1542 C 0.0752 0.59203 0.03139 0.0
H1543 H 0.07695 0.65725 0.05262 0.0
H1544 H 0.03908 0.60299 0.03996 0.0
S1545 S 0.16014 0.61343 0.02827 0.0
N1546 N 0.16226 0.64576 0.03825 0.0
N1547 N 0.1215 0.5872 0.02432 0.0
C1548 C 0.10848 0.60436 0.03116 0.0
C1549 C 0.13058 0.6361 0.03865 0.0
C1550 C 0.3755 0.48098 0.04515 0.0
C1551 C 0.36699 0.45786 0.05796 0.0
C1552 C 0.40121 0.48868 0.0343 0.0
C1553 C 0.41993 0.47414 0.03609 0.0
H1554 H 0.36266 0.49386 0.04371 0.0
H1555 H 0.40715 0.50692 0.02492 0.0
S1556 S 0.40773 0.41122 0.06647 0.0
N1557 N 0.37889 0.41906 0.07055 0.0
N1558 N 0.42829 0.43527 0.0511 0.0
C1559 C 0.4119 0.45106 0.04866 0.0
C1560 C 0.38526 0.44254 0.05936 0.0
C1561 C 0.5743 0.93612 0.05281 0.0
C1562 C 0.55342 0.90325 0.05344 0.0
C1563 C 0.56482 0.95463 0.04325 0.0
C1564 C 0.53415 0.94098 0.03387 0.0
H1565 H 0.59828 0.9476 0.05964 0.0
H1566 H 0.58177 0.97989 0.04321 0.0
S1567 S 0.4698 0.85624 0.03222 0.0
N1568 N 0.50024 0.85794 0.04453 0.0
N1569 N 0.48248 0.89274 0.02636 0.0
C1570 C 0.51299 0.90811 0.03438 0.0
C1571 C 0.52261 0.88925 0.04422 0.0
C1572 C 0.04088 0.26642 0.3865 0.0
C1573 C 0.03252 0.23486 0.3892 0.0
C1574 C 0.06482 0.2844 0.37511 0.0
C1575 C 0.08134 0.27154 0.36589 0.0
H1576 H 0.02859 0.27724 0.39309 0.0
H1577 H 0.07052 0.30871 0.37361 0.0
S1578 S 0.07004 0.19068 0.36941 0.0
N1579 N 0.04364 0.19189 0.38241 0.0
N1580 N 0.08851 0.22565 0.36091 0.0
C1581 C 0.07328 0.24001 0.36851 0.0
C1582 C 0.04896 0.22171 0.38019 0.0
C1583 C 0.77488 0.79059 0.36867 0.0
C1584 C 0.78044 0.79376 0.38786 0.0
C1585 C 0.75224 0.79673 0.36006 0.0
C1586 C 0.73351 0.80545 0.37024 0.0
H1587 H 0.78836 0.78352 0.36014 0.0
H1588 H 0.74933 0.79458 0.34527 0.0
S1589 S 0.73797 0.81719 0.42065 0.0
N1590 N 0.76521 0.80694 0.41673 0.0
N1591 N 0.72141 0.81676 0.4004 0.0
C1592 C 0.73786 0.80779 0.38937 0.0
C1593 C 0.76155 0.8023 0.39821 0.0
C1594 C 0.25807 0.98939 0.36884 0.0
C1595 C 0.23943 0.00415 0.36741 0.0
C1596 C 0.24502 0.95698 0.36327 0.0
C1597 C 0.21281 0.93811 0.35611 0.0
H1598 H 0.28285 0.00294 0.37449 0.0
H1599 H 0.26029 0.94664 0.3648 0.0
S1600 S 0.15379 0.96557 0.34986 0.0
N1601 N 0.18714 0.99763 0.35858 0.0
N1602 N 0.16262 0.93684 0.34784 0.0
C1603 C 0.19405 0.95279 0.35434 0.0
C1604 C 0.20737 0.98578 0.36006 0.0
C1605 C 0.55003 0.69258 0.31234 0.0
C1606 C 0.5596 0.67279 0.30338 0.0
C1607 C 0.57255 0.72343 0.31969 0.0
C1608 C 0.60562 0.73587 0.31834 0.0
H1609 H 0.52483 0.68421 0.31359 0.0
H1610 H 0.56379 0.73763 0.32643 0.0
S1611 S 0.6432 0.69331 0.29653 0.0
N1612 N 0.60432 0.66739 0.29382 0.0
N1613 N 0.64685 0.72572 0.30743 0.0
C1614 C 0.61557 0.71641 0.30928 0.0
C1615 C 0.59252 0.68482 0.30184 0.0
C1616 C 0.31496 0.87444 0.31875 0.0
C1617 C 0.31441 0.87013 0.29959 0.0
C1618 C 0.28719 0.86778 0.32734 0.0
C1619 C 0.2577 0.85707 0.31716 0.0
H1620 H 0.33714 0.88315 0.32726 0.0
H1621 H 0.28899 0.87152 0.34208 0.0
S1622 S 0.24254 0.84061 0.26677 0.0
N1623 N 0.28113 0.85308 0.2708 0.0
N1624 N 0.22932 0.84184 0.28689 0.0
C1625 C 0.25671 0.85292 0.29801 0.0
C1626 C 0.28492 0.85919 0.28925 0.0
C1627 C 0.09781 0.39766 0.30064 0.0
C1628 C 0.11639 0.43109 0.30221 0.0
C1629 C 0.10801 0.37929 0.30977 0.0
C1630 C 0.13719 0.39363 0.32086 0.0
H1631 H 0.07509 0.38558 0.29237 0.0
H1632 H 0.09278 0.35359 0.30809 0.0
S1633 S 0.19542 0.48045 0.32871 0.0
N1634 N 0.16585 0.47792 0.31512 0.0
N1635 N 0.18495 0.44342 0.33249 0.0
C1636 C 0.15602 0.42711 0.32257 0.0
C1637 C 0.14564 0.44583 0.31319 0.0
C1638 C 0.29787 0.43969 0.31238 0.0
C1639 C 0.30809 0.42254 0.30112 0.0
C1640 C 0.2717 0.42399 0.32293 0.0
C1641 C 0.25482 0.39063 0.3225 0.0
H1642 H 0.30951 0.46541 0.31263 0.0
H1643 H 0.26379 0.43789 0.33081 0.0
S1644 S 0.27283 0.3346 0.2967 0.0
N1645 N 0.30028 0.37021 0.29148 0.0
N1646 N 0.25046 0.34089 0.31073 0.0
C1647 C 0.2651 0.37324 0.31174 0.0
C1648 C 0.29187 0.38912 0.30119 0.0
C1649 C 0.5746 0.87755 0.31194 0.0
C1650 C 0.56698 0.86981 0.29298 0.0
C1651 C 0.59441 0.86879 0.32164 0.0
C1652 C 0.60734 0.85183 0.31278 0.0
H1653 H 0.56558 0.89096 0.31931 0.0
H1654 H 0.59989 0.87573 0.33617 0.0
S1655 S 0.59226 0.8234 0.26344 0.0
N1656 N 0.57223 0.84256 0.26589 0.0
N1657 N 0.60943 0.82616 0.28391 0.0
C1658 C 0.59929 0.84338 0.29384 0.0
C1659 C 0.57917 0.85235 0.284 0.0
C1660 C 0.13697 0.69427 0.33021 0.0
C1661 C 0.10842 0.67757 0.31858 0.0
C1662 C 0.14935 0.72637 0.33637 0.0
C1663 C 0.13387 0.74284 0.33081 0.0
H1664 H 0.15066 0.68293 0.33393 0.0
H1665 H 0.17192 0.73877 0.34479 0.0
S1666 S 0.05626 0.70931 0.30299 0.0
N1667 N 0.06293 0.67914 0.30389 0.0
N1668 N 0.08732 0.74001 0.31473 0.0
C1669 C 0.10468 0.72627 0.31998 0.0
C1670 C 0.09165 0.69346 0.31405 0.0
C1671 C 0.76994 0.95581 0.39292 0.0
C1672 C 0.78175 0.98265 0.38285 0.0
C1673 C 0.7464 0.92563 0.38502 0.0
C1674 C 0.73386 0.92121 0.36675 0.0
H1675 H 0.77952 0.958 0.40687 0.0
H1676 H 0.73856 0.90552 0.3932 0.0
S1677 S 0.75441 0.9847 0.33525 0.0
N1678 N 0.77744 0.00352 0.35422 0.0
N1679 N 0.73345 0.94681 0.33925 0.0
C1680 C 0.74481 0.94811 0.35672 0.0
C1681 C 0.7687 0.97882 0.3648 0.0
C1682 C 0.06684 0.81505 0.40027 0.0
C1683 C 0.03532 0.79735 0.39197 0.0
C1684 C 0.09347 0.82466 0.39 0.0
C1685 C 0.08988 0.81693 0.37093 0.0
H1686 H 0.07103 0.82201 0.41481 0.0
H1687 H 0.11713 0.83832 0.39719 0.0
S1688 S 0.01219 0.76886 0.34282 0.0
N1689 N 1.00191 0.77103 0.36368 0.0
N1690 N 0.0518 0.78916 0.34437 0.0
C1691 C 0.0584 0.79884 0.3625 0.0
C1692 C 0.03124 0.78906 0.373 0.0
C1693 C 0.23554 0.2561 0.36768 0.0
C1694 C 0.2276 0.24584 0.38518 0.0
C1695 C 0.22108 0.27108 0.3587 0.0
C1696 C 0.19816 0.27629 0.36691 0.0
H1697 H 0.25344 0.25296 0.36101 0.0
H1698 H 0.22851 0.27933 0.34544 0.0
S1699 S 0.16647 0.25055 0.41173 0.0
N1700 N 0.19364 0.23959 0.40977 0.0
N1701 N 0.16644 0.26776 0.39299 0.0
C1702 C 0.18931 0.26522 0.38419 0.0
C1703 C 0.20407 0.25003 0.39331 0.0
C1704 C 0.69592 0.58307 0.7028 0.0
C1705 C 0.69787 0.57383 0.72041 0.0
C1706 C 0.72314 0.59771 0.69291 0.0
C1707 C 0.75319 0.60338 0.70026 0.0
H1708 H 0.67328 0.57944 0.69677 0.0
H1709 H 0.7208 0.60544 0.67968 0.0
S1710 S 0.76966 0.57929 0.74478 0.0
N1711 N 0.73133 0.5686 0.74405 0.0
N1712 N 0.78235 0.59562 0.72557 0.0
C1713 C 0.755 0.59293 0.71757 0.0
C1714 C 0.72741 0.57832 0.72763 0.0
C1715 C 0.41891 0.1176 0.72373 0.0
C1716 C 0.45155 0.13445 0.72028 0.0
C1717 C 0.39654 0.12468 0.71547 0.0
C1718 C 0.40596 0.14845 0.70326 0.0
H1719 H 0.41037 0.09819 0.73245 0.0
H1720 H 0.37157 0.11077 0.71818 0.0
S1721 S 0.48869 0.20256 0.69154 0.0
N1722 N 0.49242 0.1788 0.70546 0.0
N1723 N 0.45003 0.19065 0.68929 0.0
C1724 C 0.43846 0.16616 0.70015 0.0
C1725 C 0.46134 0.15953 0.70883 0.0
C1726 C 0.86235 0.30236 0.69997 0.0
C1727 C 0.89398 0.32206 0.70772 0.0
C1728 C 0.851 0.2704 0.69406 0.0
C1729 C 0.87083 0.25688 0.6957 0.0
H1730 H 0.846 0.31153 0.69882 0.0
H1731 H 0.8263 0.25613 0.68838 0.0
S1732 S 0.95646 0.29929 0.71391 0.0
N1733 N 0.94557 0.32654 0.71588 0.0
N1734 N 0.92426 0.26629 0.70493 0.0
C1735 C 0.90275 0.27653 0.70317 0.0
C1736 C 0.91431 0.30916 0.70914 0.0
C1737 C 0.24178 0.03783 0.62587 0.0
C1738 C 0.23168 0.01149 0.63626 0.0
C1739 C 0.26495 0.06853 0.63324 0.0
C1740 C 0.27876 0.07396 0.65129 0.0
H1741 H 0.23098 0.03484 0.61213 0.0
H1742 H 0.27134 0.08824 0.6249 0.0
S1743 S 0.26329 0.01215 0.68329 0.0
N1744 N 0.23924 0.99219 0.6648 0.0
N1745 N 0.28258 0.04988 0.67881 0.0
C1746 C 0.26974 0.04756 0.66156 0.0
C1747 C 0.24624 0.01633 0.65401 0.0
C1748 C 0.95768 0.16492 0.64161 0.0
C1749 C 0.97439 0.19246 0.63223 0.0
C1750 C 0.93067 0.15914 0.65077 0.0
C1751 C 0.91885 0.18042 0.65077 0.0
H1752 H 0.96553 0.14756 0.6419 0.0
H1753 H 0.91876 0.13762 0.65776 0.0
S1754 S 0.95414 0.25658 0.62883 0.0
N1755 N 0.9775 0.24178 0.62411 0.0
N1756 N 0.92621 0.23044 0.64075 0.0
C1757 C 0.93504 0.20789 0.6413 0.0
C1758 C 0.96283 0.21399 0.63216 0.0
C1759 C 0.76713 0.74329 0.65361 0.0
C1760 C 0.77354 0.75202 0.63571 0.0
C1761 C 0.782 0.72855 0.66255 0.0
C1762 C 0.80386 0.72222 0.65388 0.0
H1763 H 0.75002 0.74729 0.66061 0.0
H1764 H 0.77565 0.72132 0.67611 0.0
S1765 S 0.83183 0.74441 0.60789 0.0
N1766 N 0.80523 0.75599 0.61029 0.0
N1767 N 0.83324 0.72854 0.62693 0.0
C1768 C 0.81138 0.7321 0.63623 0.0
C1769 C 0.79618 0.74691 0.62718 0.0
C1770 C 0.9436 0.75176 0.6257 0.0
C1771 C 0.97524 0.76541 0.63368 0.0
C1772 C 0.91734 0.73491 0.63587 0.0
C1773 C 0.92164 0.73131 0.65443 0.0
H1774 H 0.93906 0.75398 0.61145 0.0
H1775 H 0.89342 0.72425 0.62909 0.0
S1776 S 0.9991 0.7616 0.68183 0.0
N1777 N 0.00923 0.7736 0.66135 0.0
N1778 N 0.95947 0.74234 0.68046 0.0
C1779 C 0.95292 0.74529 0.66275 0.0
C1780 C 0.97982 0.76224 0.65237 0.0
C1781 C 0.23586 0.2064 0.6449 0.0
C1782 C 0.23292 0.20379 0.62563 0.0
C1783 C 0.25627 0.1985 0.65474 0.0
C1784 C 0.27503 0.18835 0.6457 0.0
H1785 H 0.22266 0.21507 0.65251 0.0
H1786 H 0.25796 0.20111 0.66952 0.0
S1787 S 0.27427 0.17438 0.59566 0.0
N1788 N 0.24875 0.18736 0.59803 0.0
N1789 N 0.28823 0.1743 0.61656 0.0
C1790 C 0.27216 0.18526 0.62653 0.0
C1791 C 0.25088 0.19256 0.6165 0.0
C1792 C 0.79825 0.01659 0.65709 0.0
C1793 C 0.77033 0.00046 0.64495 0.0
C1794 C 0.81061 0.04851 0.66355 0.0
C1795 C 0.79596 0.06562 0.65773 0.0
H1796 H 0.81115 0.00473 0.66134 0.0
H1797 H 0.83227 0.06015 0.67277 0.0
S1798 S 0.72091 0.03425 0.62769 0.0
N1799 N 0.72674 0.0036 0.62885 0.0
N1800 N 0.75139 0.06431 0.64018 0.0
C1801 C 0.76791 0.04995 0.64588 0.0
C1802 C 0.75474 0.01718 0.63968 0.0
C1803 C 0.45649 0.30617 0.7038 0.0
C1804 C 0.44547 0.32534 0.71199 0.0
C1805 C 0.43508 0.27481 0.69673 0.0
C1806 C 0.40177 0.2613 0.6976 0.0
H1807 H 0.48195 0.31537 0.70304 0.0
H1808 H 0.44485 0.26101 0.69065 0.0
S1809 S 0.36063 0.30211 0.71703 0.0
N1810 N 0.39916 0.32913 0.72009 0.0
N1811 N 0.35873 0.2699 0.70699 0.0
C1812 C 0.39039 0.28024 0.70577 0.0
C1813 C 0.41228 0.31231 0.71292 0.0
C1814 C 0.70567 0.14386 0.71192 0.0
C1815 C 0.6972 0.12137 0.72509 0.0
C1816 C 0.73165 0.15134 0.70132 0.0
C1817 C 0.75069 0.13725 0.70376 0.0
H1818 H 0.6926 0.15641 0.71 0.0
H1819 H 0.73752 0.16909 0.69162 0.0
S1820 S 0.73817 0.07543 0.73507 0.0
N1821 N 0.70913 0.08325 0.73858 0.0
N1822 N 0.75899 0.09903 0.71959 0.0
C1823 C 0.74255 0.11464 0.71664 0.0
C1824 C 0.71564 0.10632 0.72708 0.0
C1825 C 0.87118 0.5626 0.70567 0.0
C1826 C 0.90237 0.578 0.71454 0.0
C1827 C 0.85929 0.57983 0.69671 0.0
C1828 C 0.87812 0.61308 0.69639 0.0
H1829 H 0.8555 0.53717 0.70611 0.0
H1830 H 0.83481 0.56714 0.69055 0.0
S1831 S 0.9627 0.66403 0.71562 0.0
N1832 N 0.95283 0.62785 0.721 0.0
N1833 N 0.93041 0.66038 0.70439 0.0
C1834 C 0.90975 0.62858 0.70463 0.0
C1835 C 0.92189 0.61101 0.71366 0.0
C1836 C 0.46058 0.96534 0.15316 0.0
C1837 C 0.48155 0.97821 0.16919 0.0
C1838 C 0.47006 0.97811 0.13634 0.0
C1839 C 0.50072 0.0046 0.13492 0.0
H1840 H 0.43683 0.94485 0.15355 0.0
H1841 H 0.45315 0.96729 0.12436 0.0
S1842 S 0.56441 0.04752 0.17288 0.0
N1843 N 0.53422 0.01927 0.18258 0.0
N1844 N 0.55198 0.04319 0.15107 0.0
C1845 C 0.52176 0.01789 0.15088 0.0
C1846 C 0.51223 0.00471 0.16796 0.0
C1847 C 1.00202 0.49223 0.16357 0.0
C1848 C 0.02746 0.52229 0.17059 0.0
C1849 C 0.99127 0.48603 0.14498 0.0
C1850 C 0.00583 0.50956 0.13275 0.0
H1851 H 0.98988 0.47362 0.17259 0.0
H1852 H 0.97147 0.46262 0.14013 0.0
S1853 S 0.07402 0.59179 0.14423 0.0
N1854 N 0.06761 0.57546 0.16383 0.0
N1855 N 0.04713 0.56397 0.12895 0.0
C1856 C 0.03161 0.53954 0.13956 0.0
C1857 C 0.04247 0.54587 0.15847 0.0
C1858 C 0.45274 0.47767 0.15315 0.0
C1859 C 0.47464 0.48429 0.16831 0.0
C1860 C 0.45975 0.47231 0.13542 0.0
C1861 C 0.48877 0.47312 0.13228 0.0
H1862 H 0.43085 0.47823 0.15489 0.0
H1863 H 0.44271 0.46831 0.12403 0.0
S1864 S 0.55288 0.48719 0.16777 0.0
N1865 N 0.52533 0.48923 0.17928 0.0
N1866 N 0.5388 0.47974 0.14611 0.0
C1867 C 0.51008 0.47823 0.1475 0.0
C1868 C 0.50294 0.48367 0.16547 0.0
C1869 C 0.03193 0.49886 0.85342 0.0
C1870 C 0.00524 0.50106 0.84693 0.0
C1871 C 0.0419 0.50407 0.87207 0.0
C1872 C 0.02541 0.51147 0.8849 0.0
H1873 H 0.04486 0.49249 0.84402 0.0
H1874 H 0.06195 0.50116 0.87652 0.0
S1875 S 0.95533 0.52202 0.87487 0.0
N1876 N 0.96324 0.51233 0.85472 0.0
N1877 N 0.98246 0.52281 0.88979 0.0
C1878 C 0.99942 0.51489 0.87855 0.0
C1879 C 0.98926 0.50959 0.85955 0.0
C1880 C 0.49579 0.5065 0.85338 0.0
C1881 C 0.52426 0.50664 0.84978 0.0
C1882 C 0.48893 0.51056 0.87127 0.0
C1883 C 0.51016 0.51464 0.88629 0.0
H1884 H 0.47816 0.5022 0.84226 0.0
H1885 H 0.46619 0.5091 0.87339 0.0
S1886 S 0.58933 0.51981 0.8842 0.0
N1887 N 0.5748 0.51331 0.86264 0.0
N1888 N 0.56208 0.52127 0.89633 0.0
C1889 C 0.53943 0.51635 0.88286 0.0
C1890 C 0.54649 0.51238 0.86459 0.0
C1891 C 0.52898 0.0136 0.85892 0.0
C1892 C 0.52765 0.04151 0.85645 0.0
C1893 C 0.52237 -0.0005 0.87559 0.0
C1894 C 0.51461 0.01299 0.89054 0.0
H1895 H 0.53423 0.00203 0.84771 0.0
H1896 H 0.52326 0.97779 0.87677 0.0
S1897 S 0.50916 0.0867 0.89135 0.0
N1898 N 0.51911 0.08275 0.87063 0.0
N1899 N 0.50637 0.05617 0.90172 0.0
C1900 C 0.51392 0.04129 0.88834 0.0
C1901 C 0.52048 0.05552 0.87139 0.0
C1902 C 0.13193 0.32399 0.49523 0.0
C1903 C 0.13435 0.29714 0.49919 0.0
C1904 C 0.1407 0.33767 0.47857 0.0
C1905 C 0.15183 0.32481 0.46507 0.0
H1906 H 0.12367 0.33484 0.50522 0.0
H1907 H 0.1385 0.35836 0.47619 0.0
S1908 S 0.16208 0.25431 0.46848 0.0
N1909 N 0.14821 0.25788 0.48801 0.0
N1910 N 0.16487 0.28366 0.45688 0.0
C1911 C 0.1541 0.29781 0.4688 0.0
C1912 C 0.14538 0.28402 0.48579 0.0
C1913 C 0.68147 0.81637 0.49139 0.0
C1914 C 0.66528 0.8248 0.50393 0.0
C1915 C 0.67213 0.81147 0.47262 0.0
C1916 C 0.64613 0.81455 0.46578 0.0
H1917 H 0.70221 0.81473 0.49605 0.0
H1918 H 0.68565 0.80568 0.46336 0.0
S1919 S 0.59474 0.83427 0.49318 0.0
N1920 N 0.62095 0.83415 0.50839 0.0
N1921 N 0.6038 0.82562 0.47313 0.0
C1922 C 0.6291 0.82189 0.47827 0.0
C1923 C 0.6386 0.82687 0.49734 0.0
C1924 C 0.16174 0.81412 0.49775 0.0
C1925 C 0.13931 0.82403 0.50049 0.0
C1926 C 0.17054 0.81096 0.48023 0.0
C1927 C 0.15755 0.81803 0.46481 0.0
H1928 H 0.17373 0.81032 0.50936 0.0
H1929 H 0.18868 0.80422 0.47884 0.0
S1930 S 0.0966 0.84354 0.46487 0.0
N1931 N 0.10297 0.83928 0.48652 0.0
N1932 N 0.11984 0.83406 0.45353 0.0
C1933 C 0.13381 0.82641 0.46733 0.0
C1934 C 0.12468 0.82933 0.48521 0.0
C1935 C 0.65883 0.80296 0.19151 0.0
C1936 C 0.67116 0.82888 0.18069 0.0
C1937 C 0.66756 0.80731 0.21026 0.0
C1938 C 0.68904 0.83775 0.21891 0.0
H1939 H 0.64217 0.77905 0.18543 0.0
H1940 H 0.65774 0.78658 0.21801 0.0
S1941 S 0.7275 0.9136 0.19683 0.0
N1942 N 0.7057 0.88611 0.17996 0.0
N1943 N 0.72173 0.89444 0.21541 0.0
C1944 C 0.70131 0.86398 0.20832 0.0
C1945 C 0.69237 0.85953 0.18917 0.0
C1946 C 0.20813 0.84245 0.19785 0.0
C1947 C 0.18717 0.83818 0.18264 0.0
C1948 C 0.20059 0.84625 0.21569 0.0
C1949 C 0.17201 0.84626 0.21891 0.0
H1950 H 0.22974 0.8414 0.19598 0.0
H1951 H 0.21697 0.84865 0.22706 0.0
S1952 S 0.11017 0.83776 0.18351 0.0
N1953 N 0.13759 0.83576 0.17183 0.0
N1954 N 0.12332 0.84275 0.20523 0.0
C1955 C 0.15156 0.84328 0.20373 0.0
C1956 C 0.15916 0.83926 0.18564 0.0
C1957 C 0.21059 0.37309 0.20056 0.0
C1958 C 0.18829 0.35901 0.18514 0.0
C1959 C 0.20376 0.35994 0.21751 0.0
C1960 C 0.17454 0.33195 0.21963 0.0
H1961 H 0.23301 0.39499 0.19968 0.0
H1962 H 0.22142 0.37189 0.22908 0.0
S1963 S 0.10882 0.2851 0.18316 0.0
N1964 N 0.13646 0.31479 0.17289 0.0
N1965 N 0.12351 0.2904 0.20459 0.0
C1966 C 0.15249 0.31723 0.20415 0.0
C1967 C 0.15938 0.33066 0.18698 0.0
C1968 C 0.78837 0.62406 0.81894 0.0
C1969 C 0.80873 0.63821 0.83513 0.0
C1970 C 0.79762 0.63686 0.80209 0.0
C1971 C 0.82737 0.66465 0.80078 0.0
H1972 H 0.76534 0.60257 0.81925 0.0
H1973 H 0.78122 0.62504 0.79 0.0
S1974 S 0.88916 0.71118 0.83915 0.0
N1975 N 0.85984 0.68184 0.84876 0.0
N1976 N 0.87711 0.70583 0.81722 0.0
C1977 C 0.84776 0.6792 0.8169 0.0
C1978 C 0.83851 0.666 0.834 0.0
C1979 C 0.30638 0.15813 0.82952 0.0
C1980 C 0.33332 0.15694 0.83666 0.0
C1981 C 0.298 0.15387 0.81069 0.0
C1982 C 0.31631 0.14837 0.79825 0.0
H1983 H 0.29198 0.16302 0.83857 0.0
H1984 H 0.27765 0.156 0.80582 0.0
S1985 S 0.38785 0.14091 0.80994 0.0
N1986 N 0.37759 0.14861 0.82984 0.0
N1987 N 0.36134 0.1398 0.79443 0.0
C1988 C 0.34262 0.14593 0.80522 0.0
C1989 C 0.35118 0.15031 0.82442 0.0
C1990 C 0.79089 0.1478 0.82011 0.0
C1991 C 0.81313 0.15622 0.83535 0.0
C1992 C 0.79835 0.14237 0.80254 0.0
C1993 C 0.82822 0.14497 0.79961 0.0
H1994 H 0.7683 0.14705 0.82165 0.0
H1995 H 0.78097 0.13701 0.79107 0.0
S1996 S 0.89348 0.16369 0.83543 0.0
N1997 N 0.86503 0.16437 0.84669 0.0
N1998 N 0.87938 0.15491 0.81375 0.0
C1999 C 0.84991 0.15173 0.81493 0.0
C2000 C 0.84229 0.15719 0.83276 0.0
C2001 C 0.32729 0.14058 0.52321 0.0
C2002 C 0.33984 0.16639 0.5123 0.0
C2003 C 0.33613 0.14501 0.54197 0.0
C2004 C 0.35789 0.17543 0.55059 0.0
H2005 H 0.31039 0.1167 0.5172 0.0
H2006 H 0.32615 0.12433 0.54975 0.0
S2007 S 0.39711 0.25103 0.52827 0.0
N2008 N 0.37509 0.22351 0.51147 0.0
N2009 N 0.39107 0.23199 0.54691 0.0
C2010 C 0.37037 0.20155 0.5399 0.0
C2011 C 0.36141 0.19701 0.52074 0.0
C2012 C 0.87936 0.17563 0.53349 0.0
C2013 C 0.85757 0.16868 0.51821 0.0
C2014 C 0.87184 0.18049 0.55116 0.0
C2015 C 0.8424 0.17885 0.55416 0.0
H2016 H 0.90163 0.17577 0.53187 0.0
H2017 H 0.8889 0.18486 0.56262 0.0
S2018 S 0.7783 0.16363 0.51837 0.0
N2019 N 0.80643 0.16249 0.507 0.0
N2020 N 0.79206 0.1711 0.54009 0.0
C2021 C 0.82113 0.17335 0.53884 0.0
C2022 C 0.82877 0.16839 0.52092 0.0
C2023 C 0.84811 0.70692 0.53379 0.0
C2024 C 0.85873 0.69463 0.51969 0.0
C2025 C 0.84189 0.69385 0.55069 0.0
C2026 C 0.84583 0.66772 0.55427 0.0
H2027 H 0.84424 0.72672 0.53169 0.0
H2028 H 0.83315 0.70385 0.5609 0.0
S2029 S 0.87465 0.62756 0.52234 0.0
N2030 N 0.8738 0.65532 0.51067 0.0
N2031 N 0.86262 0.63104 0.54253 0.0
C2032 C 0.85717 0.65564 0.54046 0.0
C2033 C 0.86361 0.66907 0.52321 0.0
loop_
_geom_bond_atom_site_label_1
_geom_bond_atom_site_label_2
_geom_bond_distance
_geom_bond_site_symmetry_2
_ccdc_geom_bond_type
C0 C1 1.391 . S
C0 C4 1.391 . S
C0 H42 0.948 . S
C1 C0 1.391 . S
C1 C2 1.391 . S
C2 C1 1.391 . S
C2 H58 0.947 . S
C2 C59 1.392 . S
C3 C4 1.391 . S
C3 C7 1.397 . S
C3 C59 1.419 . S
C4 C0 1.391 . S
C4 C3 1.391 . S
C4 C5 1.399 . S
C5 C4 1.399 . S
C5 C8 1.396 . S
C5 C17 1.453 . S
C5 C18 1.684 . S
H6 C30 0.948 . S
C7 C3 1.397 . S
C7 C8 1.394 . S
C7 C26 1.723 . S
C8 C5 1.396 . S
C8 C7 1.394 . S
C8 C38 1.723 . S
H9 C32 0.947 . S
H10 C33 0.948 . S
H11 C39 0.982 . S
H12 C40 0.979 . S
H13 C40 0.980 . S
H14 C40 0.983 . S
H15 C39 0.979 . S
H16 C39 0.977 . S
C17 C5 1.453 . S
C17 H46 0.982 . S
C17 H47 0.979 . S
C17 H48 0.977 . S
C18 C5 1.684 . S
C18 H43 0.979 . S
C18 H44 0.980 . S
C18 H45 0.983 . S
C19 C20 1.391 . S
C19 C24 1.391 . S
C19 H49 0.948 . S
C20 C19 1.391 . S
C20 C21 1.391 . S
C21 C20 1.391 . S
C21 C22 1.392 . S
C21 H50 0.947 . S
C22 C21 1.392 . S
C22 C23 1.419 . S
C22 H51 0.948 . S
C23 C22 1.419 . S
C23 C24 1.391 . S
C23 C27 1.397 . S
C24 C19 1.391 . S
C24 C23 1.391 . S
C24 C25 1.399 . S
C25 C24 1.399 . S
C25 C26 1.396 . S
C25 C28 1.453 . S
C25 C29 1.684 . S
C26 C7 1.723 . S
C26 C25 1.396 . S
C26 C27 1.394 . S
C27 C23 1.397 . S
C27 C26 1.394 . S
C27 C37 1.723 . S
C28 C25 1.453 . S
C28 H52 0.982 . S
C28 H53 0.979 . S
C28 H54 0.977 . S
C29 C25 1.684 . S
C29 H55 0.979 . S
C29 H56 0.980 . S
C29 H57 0.983 . S
C30 H6 0.948 . S
C30 C31 1.391 . S
C30 C35 1.391 . S
C31 C30 1.391 . S
C31 C32 1.391 . S
C32 H9 0.947 . S
C32 C31 1.391 . S
C32 C33 1.392 . S
C33 H10 0.948 . S
C33 C32 1.392 . S
C33 C34 1.419 . S
C34 C33 1.419 . S
C34 C35 1.391 . S
C34 C38 1.397 . S
C35 C30 1.391 . S
C35 C34 1.391 . S
C35 C36 1.399 . S
C36 C35 1.399 . S
C36 C37 1.396 . S
C36 C39 1.453 . S
C36 C40 1.684 . S
C37 C27 1.723 . S
C37 C36 1.396 . S
C37 C38 1.394 . S
C38 C8 1.723 . S
C38 C34 1.397 . S
C38 C37 1.394 . S
C39 H11 0.982 . S
C39 H15 0.979 . S
C39 H16 0.977 . S
C39 C36 1.453 . S
C40 H12 0.979 . S
C40 H13 0.980 . S
C40 H14 0.983 . S
C40 C36 1.684 . S
H41 C59 0.948 . S
H42 C0 0.948 . S
H43 C18 0.979 . S
H44 C18 0.980 . S
H45 C18 0.983 . S
H46 C17 0.982 . S
H47 C17 0.979 . S
H48 C17 0.977 . S
H49 C19 0.948 . S
H50 C21 0.947 . S
H51 C22 0.948 . S
H52 C28 0.982 . S
H53 C28 0.979 . S
H54 C28 0.977 . S
H55 C29 0.979 . S
H56 C29 0.980 . S
H57 C29 0.983 . S
H58 C2 0.947 . S
C59 C2 1.392 . S
C59 C3 1.419 . S
C59 H41 0.948 . S
C60 C61 1.391 . S
C60 C64 1.391 . S
C60 H102 0.948 . S
C61 C60 1.391 . S
C61 C62 1.391 . S
C62 C61 1.391 . S
C62 H118 0.947 . S
C62 C119 1.392 . S
C63 C64 1.391 . S
C63 C67 1.397 . S
C63 C119 1.419 . S
C64 C60 1.391 . S
C64 C63 1.391 . S
C64 C65 1.399 . S
C65 C64 1.399 . S
C65 C68 1.396 . S
C65 C77 1.453 . S
C65 C78 1.684 . S
H66 C90 0.948 . S
C67 C63 1.397 . S
C67 C68 1.394 . S
C67 C86 1.723 . S
C68 C65 1.396 . S
C68 C67 1.394 . S
C68 C98 1.723 . S
H69 C92 0.947 . S
H70 C93 0.948 . S
H71 C99 0.982 . S
H72 C100 0.979 . S
H73 C100 0.980 . S
H74 C100 0.983 . S
H75 C99 0.979 . S
H76 C99 0.977 . S
C77 C65 1.453 . S
C77 H106 0.982 . S
C77 H107 0.979 . S
C77 H108 0.977 . S
C78 C65 1.684 . S
C78 H103 0.979 . S
C78 H104 0.980 . S
C78 H105 0.983 . S
C79 C80 1.391 . S
C79 C84 1.391 . S
C79 H109 0.948 . S
C80 C79 1.391 . S
C80 C81 1.391 . S
C81 C80 1.391 . S
C81 C82 1.392 . S
C81 H110 0.947 . S
C82 C81 1.392 . S
C82 C83 1.419 . S
C82 H111 0.948 . S
C83 C82 1.419 . S
C83 C84 1.391 . S
C83 C87 1.397 . S
C84 C79 1.391 . S
C84 C83 1.391 . S
C84 C85 1.399 . S
C85 C84 1.399 . S
C85 C86 1.396 . S
C85 C88 1.453 . S
C85 C89 1.684 . S
C86 C67 1.723 . S
C86 C85 1.396 . S
C86 C87 1.394 . S
C87 C83 1.397 . S
C87 C86 1.394 . S
C87 C97 1.723 . S
C88 C85 1.453 . S
C88 H112 0.982 . S
C88 H113 0.979 . S
C88 H114 0.977 . S
C89 C85 1.684 . S
C89 H115 0.979 . S
C89 H116 0.980 . S
C89 H117 0.983 . S
C90 H66 0.948 . S
C90 C91 1.391 . S
C90 C95 1.391 . S
C91 C90 1.391 . S
C91 C92 1.391 . S
C92 H69 0.947 . S
C92 C91 1.391 . S
C92 C93 1.392 . S
C93 H70 0.948 . S
C93 C92 1.392 . S
C93 C94 1.419 . S
C94 C93 1.419 . S
C94 C95 1.391 . S
C94 C98 1.397 . S
C95 C90 1.391 . S
C95 C94 1.391 . S
C95 C96 1.399 . S
C96 C95 1.399 . S
C96 C97 1.396 . S
C96 C99 1.453 . S
C96 C100 1.684 . S
C97 C87 1.723 . S
C97 C96 1.396 . S
C97 C98 1.394 . S
C98 C68 1.723 . S
C98 C94 1.397 . S
C98 C97 1.394 . S
C99 H71 0.982 . S
C99 H75 0.979 . S
C99 H76 0.977 . S
C99 C96 1.453 . S
C100 H72 0.979 . S
C100 H73 0.980 . S
C100 H74 0.983 . S
C100 C96 1.684 . S
H101 C119 0.948 . S
H102 C60 0.948 . S
H103 C78 0.979 . S
H104 C78 0.980 . S
H105 C78 0.983 . S
H106 C77 0.982 . S
H107 C77 0.979 . S
H108 C77 0.977 . S
H109 C79 0.948 . S
H110 C81 0.947 . S
H111 C82 0.948 . S
H112 C88 0.982 . S
H113 C88 0.979 . S
H114 C88 0.977 . S
H115 C89 0.979 . S
H116 C89 0.980 . S
H117 C89 0.983 . S
H118 C62 0.947 . S
C119 C62 1.392 . S
C119 C63 1.419 . S
C119 H101 0.948 . S
C120 C121 1.391 . S
C120 C124 1.391 . S
C120 H162 0.948 . S
C121 C120 1.391 . S
C121 C122 1.391 . S
C122 C121 1.391 . S
C122 H178 0.947 1_655 S
C122 C179 1.392 . S
C123 C124 1.391 . S
C123 C127 1.397 . S
C123 C179 1.419 . S
C124 C120 1.391 . S
C124 C123 1.391 . S
C124 C125 1.399 . S
C125 C124 1.399 . S
C125 C128 1.396 . S
C125 C137 1.453 . S
C125 C138 1.684 . S
H126 C150 0.948 . S
C127 C123 1.397 . S
C127 C128 1.394 . S
C127 C146 1.723 . S
C128 C125 1.396 . S
C128 C127 1.394 . S
C128 C158 1.723 . S
H129 C152 0.947 . S
H130 C153 0.948 . S
H131 C159 0.982 . S
H132 C160 0.979 . S
H133 C160 0.980 . S
H134 C160 0.983 . S
H135 C159 0.979 . S
H136 C159 0.977 . S
C137 C125 1.453 . S
C137 H166 0.982 . S
C137 H167 0.979 . S
C137 H168 0.977 . S
C138 C125 1.684 . S
C138 H163 0.979 . S
C138 H164 0.980 . S
C138 H165 0.983 . S
C139 C140 1.391 . S
C139 C144 1.391 . S
C139 H169 0.948 . S
C140 C139 1.391 . S
C140 C141 1.391 . S
C141 C140 1.391 . S
C141 C142 1.392 . S
C141 H170 0.947 . S
C142 C141 1.392 . S
C142 C143 1.419 . S
C142 H171 0.948 . S
C143 C142 1.419 . S
C143 C144 1.391 . S
C143 C147 1.397 . S
C144 C139 1.391 . S
C144 C143 1.391 . S
C144 C145 1.399 . S
C145 C144 1.399 . S
C145 C146 1.396 . S
C145 C148 1.453 . S
C145 C149 1.684 . S
C146 C127 1.723 . S
C146 C145 1.396 . S
C146 C147 1.394 . S
C147 C143 1.397 . S
C147 C146 1.394 . S
C147 C157 1.723 . S
C148 C145 1.453 . S
C148 H172 0.982 . S
C148 H173 0.979 . S
C148 H174 0.977 . S
C149 C145 1.684 . S
C149 H175 0.979 . S
C149 H176 0.980 . S
C149 H177 0.983 . S
C150 H126 0.948 . S
C150 C151 1.391 . S
C150 C155 1.391 . S
C151 C150 1.391 . S
C151 C152 1.391 . S
C152 H129 0.947 . S
C152 C151 1.391 . S
C152 C153 1.392 . S
C153 H130 0.948 . S
C153 C152 1.392 . S
C153 C154 1.419 . S
C154 C153 1.419 . S
C154 C155 1.391 . S
C154 C158 1.397 . S
C155 C150 1.391 . S
C155 C154 1.391 . S
C155 C156 1.399 . S
C156 C155 1.399 . S
C156 C157 1.396 . S
C156 C159 1.453 . S
C156 C160 1.684 . S
C157 C147 1.723 . S
C157 C156 1.396 . S
C157 C158 1.394 . S
C158 C128 1.723 . S
C158 C154 1.397 . S
C158 C157 1.394 . S
C159 H131 0.982 . S
C159 H135 0.979 . S
C159 H136 0.977 . S
C159 C156 1.453 . S
C160 H132 0.979 . S
C160 H133 0.980 . S
C160 H134 0.983 . S
C160 C156 1.684 . S
H161 C179 0.948 . S
H162 C120 0.948 . S
H163 C138 0.979 . S
H164 C138 0.980 . S
H165 C138 0.983 . S
H166 C137 0.982 . S
H167 C137 0.979 . S
H168 C137 0.977 . S
H169 C139 0.948 . S
H170 C141 0.947 . S
H171 C142 0.948 . S
H172 C148 0.982 . S
H173 C148 0.979 . S
H174 C148 0.977 . S
H175 C149 0.979 . S
H176 C149 0.980 . S
H177 C149 0.983 . S
H178 C122 0.947 1_455 S
C179 C122 1.392 . S
C179 C123 1.419 . S
C179 H161 0.948 . S
C180 C181 1.391 . S
C180 C184 1.391 . S
C180 H222 0.948 . S
C181 C180 1.391 . S
C181 C182 1.391 . S
C182 C181 1.391 . S
C182 H238 0.947 . S
C182 C239 1.392 . S
C183 C184 1.391 . S
C183 C187 1.397 . S
C183 C239 1.419 . S
C184 C180 1.391 . S
C184 C183 1.391 . S
C184 C185 1.399 . S
C185 C184 1.399 . S
C185 C188 1.396 . S
C185 C197 1.453 . S
C185 C198 1.684 . S
H186 C210 0.980 . S
C187 C183 1.397 . S
C187 C188 1.394 . S
C187 C206 1.723 . S
C188 C185 1.396 . S
C188 C187 1.394 . S
C188 C218 1.723 . S
H189 C212 0.947 . S
H190 C213 0.948 . S
H191 C219 0.982 . S
H192 C220 0.979 . S
H193 C220 0.980 . S
H194 C220 0.983 . S
H195 C219 0.979 . S
H196 C219 0.977 . S
C197 C185 1.453 . S
C197 H226 0.982 . S
C197 H227 0.979 . S
C197 H228 0.977 . S
C198 C185 1.684 . S
C198 H223 0.979 . S
C198 H224 0.980 . S
C198 H225 0.983 . S
C199 C200 1.391 . S
C199 C204 1.391 . S
C199 H229 0.948 . S
C200 C199 1.391 . S
C200 C201 1.391 . S
C201 C200 1.391 . S
C201 C202 1.392 . S
C201 H230 0.947 . S
C202 C201 1.392 . S
C202 C203 1.419 . S
C202 H231 0.948 . S
C203 C202 1.419 . S
C203 C204 1.391 . S
C203 C207 1.397 . S
C204 C199 1.391 . S
C204 C203 1.391 . S
C204 C205 1.399 . S
C205 C204 1.399 . S
C205 C206 1.396 . S
C205 C208 1.453 . S
C205 C209 1.684 . S
C206 C187 1.723 . S
C206 C205 1.396 . S
C206 C207 1.394 . S
C207 C203 1.397 . S
C207 C206 1.394 . S
C207 C217 1.723 . S
C208 C205 1.453 . S
C208 H232 0.982 . S
C208 H233 0.979 . S
C208 H234 0.977 . S
C209 C205 1.684 . S
C209 H235 0.979 . S
C209 H236 0.980 . S
C209 H237 0.983 . S
C210 H186 0.980 . S
C210 C211 1.391 . S
C210 C215 1.391 . S
C211 C210 1.391 . S
C211 C212 1.391 . S
C212 H189 0.947 . S
C212 C211 1.391 . S
C212 C213 1.392 . S
C213 H190 0.948 . S
C213 C212 1.392 . S
C213 C214 1.419 . S
C214 C213 1.419 . S
C214 C215 1.391 . S
C214 C218 1.397 . S
C215 C210 1.391 . S
C215 C214 1.391 . S
C215 C216 1.399 . S
C216 C215 1.399 . S
C216 C217 1.396 . S
C216 C219 1.453 . S
C216 C220 1.684 . S
C217 C207 1.723 . S
C217 C216 1.396 . S
C217 C218 1.394 . S
C218 C188 1.723 . S
C218 C214 1.397 . S
C218 C217 1.394 . S
C219 H191 0.982 . S
C219 H195 0.979 . S
C219 H196 0.977 . S
C219 C216 1.453 . S
C220 H192 0.979 . S
C220 H193 0.980 . S
C220 H194 0.983 . S
C220 C216 1.684 . S
H221 C239 0.948 . S
H222 C180 0.948 . S
H223 C198 0.979 . S
H224 C198 0.980 . S
H225 C198 0.983 . S
H226 C197 0.982 . S
H227 C197 0.979 . S
H228 C197 0.977 . S
H229 C199 0.948 . S
H230 C201 0.947 . S
H231 C202 0.948 . S
H232 C208 0.982 . S
H233 C208 0.979 . S
H234 C208 0.977 . S
H235 C209 0.979 . S
H236 C209 0.980 . S
H237 C209 0.983 . S
H238 C182 0.947 . S
C239 C182 1.392 . S
C239 C183 1.419 . S
C239 H221 0.948 . S
C240 C241 1.391 . S
C240 C244 1.391 . S
C240 H282 0.948 . S
C241 C240 1.391 . S
C241 C242 1.391 . S
C242 C241 1.391 . S
C242 H298 0.947 . S
C242 C299 1.392 . S
C243 C244 1.391 . S
C243 C247 1.397 . S
C243 C299 1.419 . S
C244 C240 1.391 . S
C244 C243 1.391 . S
C244 C245 1.399 . S
C245 C244 1.399 . S
C245 C248 1.396 . S
C245 C257 1.453 . S
C245 C258 1.684 . S
H246 C270 0.948 . S
C247 C243 1.397 . S
C247 C248 1.394 . S
C247 C266 1.723 . S
C248 C245 1.396 . S
C248 C247 1.394 . S
C248 C278 1.723 . S
H249 C272 0.947 . S
H250 C273 0.948 . S
H251 C279 0.982 . S
H252 C280 0.979 . S
H253 C280 0.980 . S
H254 C280 0.983 . S
H255 C279 0.979 . S
H256 C279 0.977 . S
C257 C245 1.453 . S
C257 H286 0.982 . S
C257 H287 0.979 . S
C257 H288 0.977 . S
C258 C245 1.684 . S
C258 H283 0.979 . S
C258 H284 0.980 . S
C258 H285 0.983 . S
C259 C260 1.391 . S
C259 C264 1.391 . S
C259 H289 0.948 . S
C260 C259 1.391 . S
C260 C261 1.391 . S
C261 C260 1.391 . S
C261 C262 1.392 . S
C261 H290 0.947 . S
C262 C261 1.392 . S
C262 C263 1.419 . S
C262 H291 0.948 . S
C263 C262 1.419 . S
C263 C264 1.391 . S
C263 C267 1.397 . S
C264 C259 1.391 . S
C264 C263 1.391 . S
C264 C265 1.399 . S
C265 C264 1.399 . S
C265 C266 1.396 . S
C265 C268 1.453 . S
C265 C269 1.684 . S
C266 C247 1.723 . S
C266 C265 1.396 . S
C266 C267 1.394 . S
C267 C263 1.397 . S
C267 C266 1.394 . S
C267 C277 1.723 . S
C268 C265 1.453 . S
C268 H292 0.982 . S
C268 H293 0.979 . S
C268 H294 0.977 . S
C269 C265 1.684 . S
C269 H295 0.979 . S
C269 H296 0.980 . S
C269 H297 0.983 . S
C270 H246 0.948 . S
C270 C271 1.391 . S
C270 C275 1.391 . S
C271 C270 1.391 . S
C271 C272 1.391 . S
C272 H249 0.947 . S
C272 C271 1.391 . S
C272 C273 1.392 . S
C273 H250 0.948 . S
C273 C272 1.392 . S
C273 C274 1.419 . S
C274 C273 1.419 . S
C274 C275 1.391 . S
C274 C278 1.397 . S
C275 C270 1.391 . S
C275 C274 1.391 . S
C275 C276 1.399 . S
C276 C275 1.399 . S
C276 C277 1.396 . S
C276 C279 1.453 . S
C276 C280 1.684 . S
C277 C267 1.723 . S
C277 C276 1.396 . S
C277 C278 1.394 . S
C278 C248 1.723 . S
C278 C274 1.397 . S
C278 C277 1.394 . S
C279 H251 0.982 . S
C279 H255 0.979 . S
C279 H256 0.977 . S
C279 C276 1.453 . S
C280 H252 0.979 . S
C280 H253 0.980 . S
C280 H254 0.983 . S
C280 C276 1.684 . S
H281 C299 0.948 . S
H282 C240 0.948 . S
H283 C258 0.979 . S
H284 C258 0.980 . S
H285 C258 0.983 . S
H286 C257 0.982 . S
H287 C257 0.979 . S
H288 C257 0.977 . S
H289 C259 0.948 . S
H290 C261 0.947 . S
H291 C262 0.948 . S
H292 C268 0.982 . S
H293 C268 0.979 . S
H294 C268 0.977 . S
H295 C269 0.979 . S
H296 C269 0.980 . S
H297 C269 0.983 . S
H298 C242 0.947 . S
C299 C242 1.392 . S
C299 C243 1.419 . S
C299 H281 0.948 . S
C300 C301 1.391 . S
C300 C304 1.391 . S
C300 H342 0.948 . S
C301 C300 1.391 . S
C301 C302 1.391 . S
C302 C301 1.391 . S
C302 H358 0.947 . S
C302 C359 1.392 . S
C303 C304 1.391 . S
C303 C307 1.397 . S
C303 C359 1.419 . S
C304 C300 1.391 . S
C304 C303 1.391 . S
C304 C305 1.399 . S
C305 C304 1.399 . S
C305 C308 1.396 . S
C305 C317 1.453 . S
C305 C318 1.684 . S
H306 C330 0.948 . S
C307 C303 1.397 . S
C307 C308 1.394 . S
C307 C326 1.723 . S
C308 C305 1.396 . S
C308 C307 1.394 . S
C308 C338 1.723 . S
H309 C332 0.947 . S
H310 C333 0.948 . S
H311 C339 0.982 . S
H312 C340 0.979 . S
H313 C340 0.980 . S
H314 C340 0.983 . S
H315 C339 0.979 . S
H316 C339 0.977 . S
C317 C305 1.453 . S
C317 H346 0.982 . S
C317 H347 0.979 . S
C317 H348 0.977 . S
C318 C305 1.684 . S
C318 H343 0.979 . S
C318 H344 0.980 . S
C318 H345 0.983 . S
C319 C320 1.391 . S
C319 C324 1.391 . S
C319 H349 0.948 . S
C320 C319 1.391 . S
C320 C321 1.391 . S
C321 C320 1.391 . S
C321 C322 1.392 . S
C321 H350 0.947 . S
C322 C321 1.392 . S
C322 C323 1.419 . S
C322 H351 0.948 . S
C323 C322 1.419 . S
C323 C324 1.391 . S
C323 C327 1.397 . S
C324 C319 1.391 . S
C324 C323 1.391 . S
C324 C325 1.399 . S
C325 C324 1.399 . S
C325 C326 1.396 . S
C325 C328 1.453 . S
C325 C329 1.684 . S
C326 C307 1.723 . S
C326 C325 1.396 . S
C326 C327 1.394 . S
C327 C323 1.397 . S
C327 C326 1.394 . S
C327 C337 1.723 . S
C328 C325 1.453 . S
C328 H352 0.982 . S
C328 H353 0.979 . S
C328 H354 0.977 . S
C329 C325 1.684 . S
C329 H355 0.979 . S
C329 H356 0.980 . S
C329 H357 0.983 . S
C330 H306 0.948 . S
C330 C331 1.391 . S
C330 C335 1.391 . S
C331 C330 1.391 . S
C331 C332 1.391 . S
C332 H309 0.947 . S
C332 C331 1.391 . S
C332 C333 1.392 . S
C333 H310 0.948 . S
C333 C332 1.392 . S
C333 C334 1.419 . S
C334 C333 1.419 . S
C334 C335 1.391 . S
C334 C338 1.397 . S
C335 C330 1.391 . S
C335 C334 1.391 . S
C335 C336 1.399 . S
C336 C335 1.399 . S
C336 C337 1.396 . S
C336 C339 1.453 . S
C336 C340 1.684 . S
C337 C327 1.723 . S
C337 C336 1.396 . S
C337 C338 1.394 . S
C338 C308 1.723 . S
C338 C334 1.397 . S
C338 C337 1.394 . S
C339 H311 0.982 . S
C339 H315 0.979 . S
C339 H316 0.977 . S
C339 C336 1.453 . S
C340 H312 0.979 . S
C340 H313 0.980 . S
C340 H314 0.983 . S
C340 C336 1.684 . S
H341 C359 0.948 . S
H342 C300 0.948 . S
H343 C318 0.979 . S
H344 C318 0.980 . S
H345 C318 0.983 . S
H346 C317 0.982 . S
H347 C317 0.979 . S
H348 C317 0.977 . S
H349 C319 0.948 . S
H350 C321 0.947 . S
H351 C322 0.948 . S
H352 C328 0.982 . S
H353 C328 0.979 . S
H354 C328 0.977 . S
H355 C329 0.979 . S
H356 C329 0.980 . S
H357 C329 0.983 . S
H358 C302 0.947 . S
C359 C302 1.392 . S
C359 C303 1.419 . S
C359 H341 0.948 . S
C360 C361 1.391 . S
C360 C364 1.391 . S
C360 H402 0.948 . S
C361 C360 1.391 . S
C361 C362 1.391 . S
C362 C361 1.391 . S
C362 H418 0.947 . S
C362 C419 1.392 . S
C363 C364 1.391 . S
C363 C367 1.397 . S
C363 C419 1.419 . S
C364 C360 1.391 . S
C364 C363 1.391 . S
C364 C365 1.399 . S
C365 C364 1.399 . S
C365 C368 1.396 . S
C365 C377 1.453 . S
C365 C378 1.684 . S
H366 C390 0.948 . S
C367 C363 1.397 . S
C367 C368 1.394 . S
C367 C386 1.723 . S
C368 C365 1.396 . S
C368 C367 1.394 . S
C368 C398 1.723 . S
H369 C392 0.947 . S
H370 C393 0.948 . S
H371 C399 0.982 1_455 S
H372 C400 0.979 . S
H373 C400 0.980 . S
H374 C400 0.983 . S
H375 C399 0.979 . S
H376 C399 0.977 . S
C377 C365 1.453 . S
C377 H406 0.982 . S
C377 H407 0.979 . S
C377 H408 0.977 . S
C378 C365 1.684 . S
C378 H403 0.979 . S
C378 H404 0.980 . S
C378 H405 0.983 . S
C379 C380 1.391 . S
C379 C384 1.391 . S
C379 H409 0.948 . S
C380 C379 1.391 . S
C380 C381 1.391 . S
C381 C380 1.391 . S
C381 C382 1.392 . S
C381 H410 0.947 . S
C382 C381 1.392 . S
C382 C383 1.419 . S
C382 H411 0.948 . S
C383 C382 1.419 . S
C383 C384 1.391 . S
C383 C387 1.397 . S
C384 C379 1.391 . S
C384 C383 1.391 . S
C384 C385 1.399 . S
C385 C384 1.399 . S
C385 C386 1.396 . S
C385 C388 1.462 . S
C385 C389 1.684 . S
C386 C367 1.723 . S
C386 C385 1.396 . S
C386 C387 1.394 . S
C387 C383 1.397 . S
C387 C386 1.394 . S
C387 C397 1.723 . S
C388 C385 1.462 . S
C388 H412 0.955 1_655 S
C388 H413 0.984 1_655 S
C388 H414 0.991 . S
C389 C385 1.684 . S
C389 H415 0.979 . S
C389 H416 0.980 . S
C389 H417 0.983 . S
C390 H366 0.948 . S
C390 C391 1.391 . S
C390 C395 1.391 . S
C391 C390 1.391 . S
C391 C392 1.391 . S
C392 H369 0.947 . S
C392 C391 1.391 . S
C392 C393 1.392 . S
C393 H370 0.948 . S
C393 C392 1.392 . S
C393 C394 1.419 . S
C394 C393 1.419 . S
C394 C395 1.391 . S
C394 C398 1.397 . S
C395 C390 1.391 . S
C395 C394 1.391 . S
C395 C396 1.399 . S
C396 C395 1.399 . S
C396 C397 1.396 . S
C396 C399 1.453 . S
C396 C400 1.684 . S
C397 C387 1.723 . S
C397 C396 1.396 . S
C397 C398 1.394 . S
C398 C368 1.723 . S
C398 C394 1.397 . S
C398 C397 1.394 . S
C399 H371 0.982 1_655 S
C399 H375 0.979 . S
C399 H376 0.977 . S
C399 C396 1.453 . S
C400 H372 0.979 . S
C400 H373 0.980 . S
C400 H374 0.983 . S
C400 C396 1.684 . S
H401 C419 0.948 . S
H402 C360 0.948 . S
H403 C378 0.979 . S
H404 C378 0.980 . S
H405 C378 0.983 . S
H406 C377 0.982 . S
H407 C377 0.979 . S
H408 C377 0.977 . S
H409 C379 0.948 . S
H410 C381 0.947 . S
H411 C382 0.948 . S
H412 C388 0.955 1_455 S
H413 C388 0.984 1_455 S
H414 C388 0.991 . S
H415 C389 0.979 . S
H416 C389 0.980 . S
H417 C389 0.983 . S
H418 C362 0.947 . S
C419 C362 1.392 . S
C419 C363 1.419 . S
C419 H401 0.948 . S
C420 C421 1.391 . S
C420 C424 1.391 . S
C420 H462 0.948 . S
C421 C420 1.391 . S
C421 C422 1.391 . S
C422 C421 1.391 . S
C422 H478 0.947 . S
C422 C479 1.392 . S
C423 C424 1.391 . S
C423 C427 1.397 . S
C423 C479 1.419 . S
C424 C420 1.391 . S
C424 C423 1.391 . S
C424 C425 1.399 . S
C425 C424 1.399 . S
C425 C428 1.396 . S
C425 C437 1.453 . S
C425 C438 1.684 . S
H426 C450 0.948 . S
C427 C423 1.397 . S
C427 C428 1.394 . S
C427 C446 1.723 . S
C428 C425 1.396 . S
C428 C427 1.394 . S
C428 C458 1.723 . S
H429 C452 0.947 . S
H430 C453 0.948 . S
H431 C459 0.982 . S
H432 C460 0.979 . S
H433 C460 0.980 . S
H434 C460 0.983 . S
H435 C459 0.979 . S
H436 C459 0.977 . S
C437 C425 1.453 . S
C437 H466 0.982 . S
C437 H467 0.979 . S
C437 H468 0.977 . S
C438 C425 1.684 . S
C438 H463 0.979 . S
C438 H464 0.980 . S
C438 H465 0.983 . S
C439 C440 1.391 . S
C439 C444 1.391 . S
C439 H469 0.948 . S
C440 C439 1.391 . S
C440 C441 1.391 . S
C441 C440 1.391 . S
C441 C442 1.392 . S
C441 H470 0.947 . S
C442 C441 1.392 . S
C442 C443 1.419 . S
C442 H471 0.948 . S
C443 C442 1.419 . S
C443 C444 1.391 . S
C443 C447 1.397 . S
C444 C439 1.391 . S
C444 C443 1.391 . S
C444 C445 1.399 . S
C445 C444 1.399 . S
C445 C446 1.396 . S
C445 C448 1.453 . S
C445 C449 1.684 . S
C446 C427 1.723 . S
C446 C445 1.396 . S
C446 C447 1.394 . S
C447 C443 1.397 . S
C447 C446 1.394 . S
C447 C457 1.723 . S
C448 C445 1.453 . S
C448 H472 0.982 . S
C448 H473 0.979 . S
C448 H474 0.977 . S
C449 C445 1.684 . S
C449 H475 0.979 . S
C449 H476 0.980 . S
C449 H477 0.983 . S
C450 H426 0.948 . S
C450 C451 1.391 . S
C450 C455 1.391 . S
C451 C450 1.391 . S
C451 C452 1.391 . S
C452 H429 0.947 . S
C452 C451 1.391 . S
C452 C453 1.392 . S
C453 H430 0.948 . S
C453 C452 1.392 . S
C453 C454 1.419 . S
C454 C453 1.419 . S
C454 C455 1.391 . S
C454 C458 1.397 . S
C455 C450 1.391 . S
C455 C454 1.391 . S
C455 C456 1.399 . S
C456 C455 1.399 . S
C456 C457 1.396 . S
C456 C459 1.453 . S
C456 C460 1.684 . S
C457 C447 1.723 . S
C457 C456 1.396 . S
C457 C458 1.394 . S
C458 C428 1.723 . S
C458 C454 1.397 . S
C458 C457 1.394 . S
C459 H431 0.982 . S
C459 H435 0.979 . S
C459 H436 0.977 . S
C459 C456 1.453 . S
C460 H432 0.979 . S
C460 H433 0.980 . S
C460 H434 0.983 . S
C460 C456 1.684 . S
H461 C479 0.948 . S
H462 C420 0.948 . S
H463 C438 0.979 . S
H464 C438 0.980 . S
H465 C438 0.983 . S
H466 C437 0.982 . S
H467 C437 0.979 . S
H468 C437 0.977 . S
H469 C439 0.948 . S
H470 C441 0.947 . S
H471 C442 0.948 . S
H472 C448 0.982 . S
H473 C448 0.979 . S
H474 C448 0.977 . S
H475 C449 0.979 . S
H476 C449 0.980 . S
H477 C449 0.983 . S
H478 C422 0.947 . S
C479 C422 1.392 . S
C479 C423 1.419 . S
C479 H461 0.948 . S
C480 C481 1.391 . S
C480 C484 1.391 . S
C480 H522 0.948 . S
C481 C480 1.391 . S
C481 C482 1.391 . S
C482 C481 1.391 . S
C482 H538 0.947 . S
C482 C539 1.392 . S
C483 C484 1.391 . S
C483 C487 1.397 . S
C483 C539 1.419 . S
C484 C480 1.391 . S
C484 C483 1.391 . S
C484 C485 1.399 . S
C485 C484 1.399 . S
C485 C488 1.396 . S
C485 C497 1.453 . S
C485 C498 1.684 . S
H486 C510 0.948 . S
C487 C483 1.397 . S
C487 C488 1.394 . S
C487 C506 1.723 . S
C488 C485 1.396 . S
C488 C487 1.394 . S
C488 C518 1.723 . S
H489 C512 0.947 . S
H490 C513 0.948 . S
H491 C519 0.982 . S
H492 C520 0.979 . S
H493 C520 0.980 . S
H494 C520 0.983 . S
H495 C519 0.979 . S
H496 C519 0.977 . S
C497 C485 1.453 . S
C497 H526 0.982 . S
C497 H527 0.979 . S
C497 H528 0.977 . S
C498 C485 1.684 . S
C498 H523 0.979 . S
C498 H524 0.980 . S
C498 H525 0.983 . S
C499 C500 1.391 . S
C499 C504 1.391 . S
C499 H529 0.948 . S
C500 C499 1.391 . S
C500 C501 1.391 . S
C501 C500 1.391 . S
C501 C502 1.392 . S
C501 H530 0.947 . S
C502 C501 1.392 . S
C502 C503 1.419 . S
C502 H531 0.948 . S
C503 C502 1.419 . S
C503 C504 1.391 . S
C503 C507 1.397 . S
C504 C499 1.391 . S
C504 C503 1.391 . S
C504 C505 1.399 . S
C505 C504 1.399 . S
C505 C506 1.396 . S
C505 C508 1.453 . S
C505 C509 1.684 . S
C506 C487 1.723 . S
C506 C505 1.396 . S
C506 C507 1.394 . S
C507 C503 1.397 . S
C507 C506 1.394 . S
C507 C517 1.723 . S
C508 C505 1.453 . S
C508 H532 0.982 . S
C508 H533 0.979 . S
C508 H534 0.977 . S
C509 C505 1.684 . S
C509 H535 0.979 . S
C509 H536 0.980 . S
C509 H537 0.983 . S
C510 H486 0.948 . S
C510 C511 1.391 . S
C510 C515 1.391 . S
C511 C510 1.391 . S
C511 C512 1.391 . S
C512 H489 0.947 . S
C512 C511 1.391 . S
C512 C513 1.392 . S
C513 H490 0.948 . S
C513 C512 1.392 . S
C513 C514 1.419 . S
C514 C513 1.419 . S
C514 C515 1.391 . S
C514 C518 1.397 . S
C515 C510 1.391 . S
C515 C514 1.391 . S
C515 C516 1.399 . S
C516 C515 1.399 . S
C516 C517 1.396 . S
C516 C519 1.453 . S
C516 C520 1.684 . S
C517 C507 1.723 . S
C517 C516 1.396 . S
C517 C518 1.394 . S
C518 C488 1.723 . S
C518 C514 1.397 . S
C518 C517 1.394 . S
C519 H491 0.982 . S
C519 H495 0.979 . S
C519 H496 0.977 . S
C519 C516 1.453 . S
C520 H492 0.979 . S
C520 H493 0.980 . S
C520 H494 0.983 . S
C520 C516 1.684 . S
H521 C539 0.948 . S
H522 C480 0.948 . S
H523 C498 0.979 . S
H524 C498 0.980 . S
H525 C498 0.983 . S
H526 C497 0.982 . S
H527 C497 0.979 . S
H528 C497 0.977 . S
H529 C499 0.948 . S
H530 C501 0.947 . S
H531 C502 0.948 . S
H532 C508 0.982 . S
H533 C508 0.979 . S
H534 C508 0.977 . S
H535 C509 0.979 . S
H536 C509 0.980 . S
H537 C509 0.983 . S
H538 C482 0.947 . S
C539 C482 1.392 . S
C539 C483 1.419 . S
C539 H521 0.948 . S
C540 C541 1.391 . S
C540 C544 1.391 . S
C540 H582 0.948 . S
C541 C540 1.391 . S
C541 C542 1.391 . S
C542 C541 1.391 . S
C542 H598 0.947 . S
C542 C599 1.392 . S
C543 C544 1.391 . S
C543 C547 1.397 . S
C543 C599 1.419 . S
C544 C540 1.391 . S
C544 C543 1.391 . S
C544 C545 1.399 . S
C545 C544 1.399 . S
C545 C548 1.396 . S
C545 C557 1.453 . S
C545 C558 1.684 . S
H546 C570 0.948 . S
C547 C543 1.397 . S
C547 C548 1.394 . S
C547 C566 1.723 . S
C548 C545 1.396 . S
C548 C547 1.394 . S
C548 C578 1.723 . S
H549 C572 0.947 . S
H550 C573 0.948 . S
H551 C579 0.982 . S
H552 C580 0.979 . S
H553 C580 0.980 . S
H554 C580 0.983 . S
H555 C579 0.979 . S
H556 C579 0.977 . S
C557 C545 1.453 . S
C557 H586 0.982 . S
C557 H587 0.979 . S
C557 H588 0.977 . S
C558 C545 1.684 . S
C558 H583 0.979 . S
C558 H584 0.980 . S
C558 H585 0.983 . S
C559 C560 1.391 . S
C559 C564 1.391 . S
C559 H589 0.948 . S
C560 C559 1.391 . S
C560 C561 1.391 . S
C561 C560 1.391 . S
C561 C562 1.392 . S
C561 H590 0.947 . S
C562 C561 1.392 . S
C562 C563 1.419 . S
C562 H591 0.948 . S
C563 C562 1.419 . S
C563 C564 1.391 . S
C563 C567 1.397 . S
C564 C559 1.391 . S
C564 C563 1.391 . S
C564 C565 1.399 . S
C565 C564 1.399 . S
C565 C566 1.396 . S
C565 C568 1.453 . S
C565 C569 1.684 . S
C566 C547 1.723 . S
C566 C565 1.396 . S
C566 C567 1.394 . S
C567 C563 1.397 . S
C567 C566 1.394 . S
C567 C577 1.723 . S
C568 C565 1.453 . S
C568 H592 0.982 . S
C568 H593 0.979 . S
C568 H594 0.977 . S
C569 C565 1.684 . S
C569 H595 0.979 . S
C569 H596 0.980 . S
C569 H597 0.983 . S
C570 H546 0.948 . S
C570 C571 1.391 . S
C570 C575 1.391 . S
C571 C570 1.391 . S
C571 C572 1.391 . S
C572 H549 0.947 . S
C572 C571 1.391 . S
C572 C573 1.392 . S
C573 H550 0.948 . S
C573 C572 1.392 . S
C573 C574 1.419 . S
C574 C573 1.419 . S
C574 C575 1.391 . S
C574 C578 1.397 . S
C575 C570 1.391 . S
C575 C574 1.391 . S
C575 C576 1.399 . S
C576 C575 1.399 . S
C576 C577 1.396 . S
C576 C579 1.453 . S
C576 C580 1.684 . S
C577 C567 1.723 . S
C577 C576 1.396 . S
C577 C578 1.394 . S
C578 C548 1.723 . S
C578 C574 1.397 . S
C578 C577 1.394 . S
C579 H551 0.982 . S
C579 H555 0.979 . S
C579 H556 0.977 . S
C579 C576 1.453 . S
C580 H552 0.979 . S
C580 H553 0.980 . S
C580 H554 0.983 . S
C580 C576 1.684 . S
H581 C599 0.948 . S
H582 C540 0.948 . S
H583 C558 0.979 . S
H584 C558 0.980 . S
H585 C558 0.983 . S
H586 C557 0.982 . S
H587 C557 0.979 . S
H588 C557 0.977 . S
H589 C559 0.948 . S
H590 C561 0.947 . S
H591 C562 0.948 . S
H592 C568 0.982 . S
H593 C568 0.979 . S
H594 C568 0.977 . S
H595 C569 0.979 . S
H596 C569 0.980 . S
H597 C569 0.983 . S
H598 C542 0.947 . S
C599 C542 1.392 . S
C599 C543 1.419 . S
C599 H581 0.948 . S
C600 C601 1.391 . S
C600 C604 1.391 . S
C600 H642 0.948 . S
C601 C600 1.391 . S
C601 C602 1.391 . S
C602 C601 1.391 . S
C602 H658 0.947 . S
C602 C659 1.392 . S
C603 C604 1.391 . S
C603 C607 1.397 . S
C603 C659 1.419 . S
C604 C600 1.391 . S
C604 C603 1.391 . S
C604 C605 1.399 . S
C605 C604 1.399 . S
C605 C608 1.396 . S
C605 C617 1.453 . S
C605 C618 1.684 . S
H606 C630 0.948 . S
C607 C603 1.397 . S
C607 C608 1.394 . S
C607 C626 1.723 . S
C608 C605 1.396 . S
C608 C607 1.394 . S
C608 C638 1.723 . S
H609 C632 0.947 1_554 S
H610 C633 0.948 . S
H611 C639 0.982 . S
H612 C640 0.979 . S
H613 C640 0.980 . S
H614 C640 0.983 . S
H615 C639 0.979 . S
H616 C639 0.977 . S
C617 C605 1.453 . S
C617 H646 0.982 . S
C617 H647 0.979 . S
C617 H648 0.977 . S
C618 C605 1.684 . S
C618 H643 0.979 . S
C618 H644 0.980 . S
C618 H645 0.983 1_556 S
C619 C620 1.391 . S
C619 C624 1.391 . S
C619 H649 0.948 . S
C620 C619 1.391 . S
C620 C621 1.391 . S
C621 C620 1.391 . S
C621 C622 1.392 . S
C621 H650 0.947 . S
C622 C621 1.392 . S
C622 C623 1.419 . S
C622 H651 0.948 . S
C623 C622 1.419 . S
C623 C624 1.391 . S
C623 C627 1.397 . S
C624 C619 1.391 . S
C624 C623 1.391 . S
C624 C625 1.399 . S
C625 C624 1.399 . S
C625 C626 1.396 . S
C625 C628 1.453 . S
C625 C629 1.684 . S
C626 C607 1.723 . S
C626 C625 1.396 . S
C626 C627 1.394 . S
C627 C623 1.397 . S
C627 C626 1.394 . S
C627 C637 1.723 . S
C628 C625 1.453 . S
C628 H652 0.982 . S
C628 H653 0.979 . S
C628 H654 0.977 . S
C629 C625 1.684 . S
C629 H655 0.979 . S
C629 H656 0.980 . S
C629 H657 0.983 . S
C630 H606 0.948 . S
C630 C631 1.391 . S
C630 C635 1.391 . S
C631 C630 1.391 . S
C631 C632 1.391 . S
C632 H609 0.947 1_556 S
C632 C631 1.391 . S
C632 C633 1.392 . S
C633 H610 0.948 . S
C633 C632 1.392 . S
C633 C634 1.419 . S
C634 C633 1.419 . S
C634 C635 1.391 . S
C634 C638 1.397 . S
C635 C630 1.391 . S
C635 C634 1.391 . S
C635 C636 1.399 . S
C636 C635 1.399 . S
C636 C637 1.396 . S
C636 C639 1.453 . S
C636 C640 1.684 . S
C637 C627 1.723 . S
C637 C636 1.396 . S
C637 C638 1.394 . S
C638 C608 1.723 . S
C638 C634 1.397 . S
C638 C637 1.394 . S
C639 H611 0.982 . S
C639 H615 0.979 . S
C639 H616 0.977 . S
C639 C636 1.453 . S
C640 H612 0.979 . S
C640 H613 0.980 . S
C640 H614 0.983 . S
C640 C636 1.684 . S
H641 C659 0.948 . S
H642 C600 0.948 . S
H643 C618 0.979 . S
H644 C618 0.980 . S
H645 C618 0.983 1_554 S
H646 C617 0.982 . S
H647 C617 0.979 . S
H648 C617 0.977 . S
H649 C619 0.948 . S
H650 C621 0.947 . S
H651 C622 0.948 . S
H652 C628 0.982 . S
H653 C628 0.979 . S
H654 C628 0.977 . S
H655 C629 0.979 . S
H656 C629 0.980 . S
H657 C629 0.983 . S
H658 C602 0.947 . S
C659 C602 1.392 . S
C659 C603 1.419 . S
C659 H641 0.948 . S
C660 C661 1.391 . S
C660 C664 1.391 . S
C660 H702 0.948 . S
C661 C660 1.391 . S
C661 C662 1.391 . S
C662 C661 1.391 . S
C662 H718 0.947 . S
C662 C719 1.392 . S
C663 C664 1.391 . S
C663 C667 1.397 . S
C663 C719 1.419 . S
C664 C660 1.391 . S
C664 C663 1.391 . S
C664 C665 1.399 . S
C665 C664 1.399 . S
C665 C668 1.396 . S
C665 C677 1.453 . S
C665 C678 1.684 . S
H666 C690 0.948 . S
C667 C663 1.397 . S
C667 C668 1.394 . S
C667 C686 1.723 . S
C668 C665 1.396 . S
C668 C667 1.394 . S
C668 C698 1.723 . S
H669 C692 0.947 . S
H670 C693 0.948 . S
H671 C699 0.982 . S
H672 C700 0.979 . S
H673 C700 0.980 . S
H674 C700 0.983 . S
H675 C699 0.979 . S
H676 C699 0.977 . S
C677 C665 1.453 . S
C677 H706 0.982 . S
C677 H707 0.979 . S
C677 H708 0.977 . S
C678 C665 1.684 . S
C678 H703 0.979 . S
C678 H704 0.980 . S
C678 H705 0.983 . S
C679 C680 1.391 . S
C679 C684 1.391 . S
C679 H709 0.948 . S
C680 C679 1.391 . S
C680 C681 1.391 . S
C681 C680 1.391 . S
C681 C682 1.392 . S
C681 H710 0.947 . S
C682 C681 1.392 . S
C682 C683 1.419 . S
C682 H711 0.948 . S
C683 C682 1.419 . S
C683 C684 1.391 . S
C683 C687 1.397 . S
C684 C679 1.391 . S
C684 C683 1.391 . S
C684 C685 1.399 . S
C685 C684 1.399 . S
C685 C686 1.396 . S
C685 C688 1.453 . S
C685 C689 1.684 . S
C686 C667 1.723 . S
C686 C685 1.396 . S
C686 C687 1.394 . S
C687 C683 1.397 . S
C687 C686 1.394 . S
C687 C697 1.723 . S
C688 C685 1.453 . S
C688 H712 0.982 . S
C688 H713 0.979 . S
C688 H714 0.977 . S
C689 C685 1.684 . S
C689 H715 0.979 . S
C689 H716 0.980 . S
C689 H717 0.983 . S
C690 H666 0.948 . S
C690 C691 1.391 . S
C690 C695 1.391 . S
C691 C690 1.391 . S
C691 C692 1.391 . S
C692 H669 0.947 . S
C692 C691 1.391 . S
C692 C693 1.392 . S
C693 H670 0.948 . S
C693 C692 1.392 . S
C693 C694 1.419 . S
C694 C693 1.419 . S
C694 C695 1.391 . S
C694 C698 1.397 . S
C695 C690 1.391 . S
C695 C694 1.391 . S
C695 C696 1.399 . S
C696 C695 1.399 . S
C696 C697 1.396 . S
C696 C699 1.453 . S
C696 C700 1.684 . S
C697 C687 1.723 . S
C697 C696 1.396 . S
C697 C698 1.394 . S
C698 C668 1.723 . S
C698 C694 1.397 . S
C698 C697 1.394 . S
C699 H671 0.982 . S
C699 H675 0.979 . S
C699 H676 0.977 . S
C699 C696 1.453 . S
C700 H672 0.979 . S
C700 H673 0.980 . S
C700 H674 0.983 . S
C700 C696 1.684 . S
H701 C719 0.948 . S
H702 C660 0.948 . S
H703 C678 0.979 . S
H704 C678 0.980 . S
H705 C678 0.983 . S
H706 C677 0.982 . S
H707 C677 0.979 . S
H708 C677 0.977 . S
H709 C679 0.948 . S
H710 C681 0.947 . S
H711 C682 0.948 . S
H712 C688 0.982 . S
H713 C688 0.979 . S
H714 C688 0.977 . S
H715 C689 0.979 . S
H716 C689 0.980 . S
H717 C689 0.983 . S
H718 C662 0.947 . S
C719 C662 1.392 . S
C719 C663 1.419 . S
C719 H701 0.948 . S
C720 C721 1.391 . S
C720 C724 1.391 . S
C720 H762 0.948 . S
C721 C720 1.391 . S
C721 C722 1.391 . S
C722 C721 1.391 . S
C722 H778 0.947 . S
C722 C779 1.392 . S
C723 C724 1.391 . S
C723 C727 1.397 . S
C723 C779 1.419 . S
C724 C720 1.391 . S
C724 C723 1.391 . S
C724 C725 1.399 . S
C725 C724 1.399 . S
C725 C728 1.396 . S
C725 C737 1.453 . S
C725 C738 1.684 . S
H726 C750 0.948 . S
C727 C723 1.397 . S
C727 C728 1.394 . S
C727 C746 1.723 . S
C728 C725 1.396 . S
C728 C727 1.394 . S
C728 C758 1.723 . S
H729 C752 0.947 1_556 S
H730 C753 0.948 . S
H731 C759 0.982 . S
H732 C760 0.979 . S
H733 C760 0.980 . S
H734 C760 0.983 . S
H735 C759 0.979 . S
H736 C759 0.977 . S
C737 C725 1.453 . S
C737 H766 0.982 . S
C737 H767 1.012 . S
C737 H768 0.977 . S
C738 C725 1.684 . S
C738 H763 0.979 . S
C738 H764 0.980 . S
C738 H765 0.998 . S
C739 C740 1.391 . S
C739 C744 1.391 . S
C739 H769 0.948 . S
C740 C739 1.391 . S
C740 C741 1.391 . S
C741 C740 1.391 . S
C741 C742 1.392 . S
C741 H770 0.947 . S
C742 C741 1.392 . S
C742 C743 1.419 . S
C742 H771 0.948 . S
C743 C742 1.419 . S
C743 C744 1.391 . S
C743 C747 1.397 . S
C744 C739 1.391 . S
C744 C743 1.391 . S
C744 C745 1.399 . S
C745 C744 1.399 . S
C745 C746 1.396 . S
C745 C748 1.453 . S
C745 C749 1.684 . S
C746 C727 1.723 . S
C746 C745 1.396 . S
C746 C747 1.394 . S
C747 C743 1.397 . S
C747 C746 1.394 . S
C747 C757 1.723 . S
C748 C745 1.453 . S
C748 H772 0.982 . S
C748 H773 0.979 . S
C748 H774 0.977 . S
C749 C745 1.684 . S
C749 H775 0.979 . S
C749 H776 0.980 . S
C749 H777 0.983 . S
C750 H726 0.948 . S
C750 C751 1.391 . S
C750 C755 1.391 . S
C751 C750 1.391 . S
C751 C752 1.391 . S
C752 H729 0.947 1_554 S
C752 C751 1.391 . S
C752 C753 1.392 . S
C753 H730 0.948 . S
C753 C752 1.392 . S
C753 C754 1.419 . S
C754 C753 1.419 . S
C754 C755 1.391 . S
C754 C758 1.397 . S
C755 C750 1.391 . S
C755 C754 1.391 . S
C755 C756 1.399 . S
C756 C755 1.399 . S
C756 C757 1.396 . S
C756 C759 1.453 . S
C756 C760 1.684 . S
C757 C747 1.723 . S
C757 C756 1.396 . S
C757 C758 1.394 . S
C758 C728 1.723 . S
C758 C754 1.397 . S
C758 C757 1.394 . S
C759 H731 0.982 . S
C759 H735 0.979 . S
C759 H736 0.977 . S
C759 C756 1.453 . S
C760 H732 0.979 . S
C760 H733 0.980 . S
C760 H734 0.983 . S
C760 C756 1.684 . S
H761 C779 0.948 . S
H762 C720 0.948 . S
H763 C738 0.979 . S
H764 C738 0.980 . S
H765 C738 0.998 . S
H766 C737 0.982 . S
H767 C737 1.012 . S
H768 C737 0.977 . S
H769 C739 0.948 . S
H770 C741 0.947 . S
H771 C742 0.948 . S
H772 C748 0.982 . S
H773 C748 0.979 . S
H774 C748 0.977 . S
H775 C749 0.979 . S
H776 C749 0.980 . S
H777 C749 0.983 . S
H778 C722 0.947 . S
C779 C722 1.392 . S
C779 C723 1.419 . S
C779 H761 0.948 . S
C780 C781 1.391 . S
C780 C784 1.391 . S
C780 H822 0.948 . S
C781 C780 1.391 . S
C781 C782 1.391 . S
C782 C781 1.391 . S
C782 H838 0.947 . S
C782 C839 1.392 . S
C783 C784 1.391 . S
C783 C787 1.397 . S
C783 C839 1.419 . S
C784 C780 1.391 . S
C784 C783 1.391 . S
C784 C785 1.399 . S
C785 C784 1.399 . S
C785 C788 1.396 . S
C785 C797 1.453 . S
C785 C798 1.684 . S
H786 C810 0.948 . S
C787 C783 1.397 . S
C787 C788 1.394 . S
C787 C806 1.723 . S
C788 C785 1.396 . S
C788 C787 1.394 . S
C788 C818 1.723 . S
H789 C812 0.947 . S
H790 C813 0.948 . S
H791 C819 0.982 . S
H792 C820 0.979 . S
H793 C820 0.980 . S
H794 C820 0.983 . S
H795 C819 0.979 . S
H796 C819 0.977 . S
C797 C785 1.453 . S
C797 H826 0.982 . S
C797 H827 0.979 . S
C797 H828 0.977 . S
C798 C785 1.684 . S
C798 H823 0.979 . S
C798 H824 0.980 . S
C798 H825 0.983 . S
C799 C800 1.391 . S
C799 C804 1.391 . S
C799 H829 0.948 . S
C800 C799 1.391 . S
C800 C801 1.391 . S
C801 C800 1.391 . S
C801 C802 1.392 . S
C801 H830 0.947 . S
C802 C801 1.392 . S
C802 C803 1.419 . S
C802 H831 0.948 . S
C803 C802 1.419 . S
C803 C804 1.391 . S
C803 C807 1.397 . S
C804 C799 1.391 . S
C804 C803 1.391 . S
C804 C805 1.399 . S
C805 C804 1.399 . S
C805 C806 1.396 . S
C805 C808 1.453 . S
C805 C809 1.684 . S
C806 C787 1.723 . S
C806 C805 1.396 . S
C806 C807 1.394 . S
C807 C803 1.397 . S
C807 C806 1.394 . S
C807 C817 1.723 . S
C808 C805 1.453 . S
C808 H832 0.982 . S
C808 H833 0.979 . S
C808 H834 0.977 . S
C809 C805 1.684 . S
C809 H835 0.979 . S
C809 H836 0.980 . S
C809 H837 0.983 . S
C810 H786 0.948 . S
C810 C811 1.391 . S
C810 C815 1.391 . S
C811 C810 1.391 . S
C811 C812 1.391 . S
C812 H789 0.947 . S
C812 C811 1.391 . S
C812 C813 1.392 . S
C813 H790 0.948 . S
C813 C812 1.392 . S
C813 C814 1.419 . S
C814 C813 1.419 . S
C814 C815 1.391 . S
C814 C818 1.397 . S
C815 C810 1.391 . S
C815 C814 1.391 . S
C815 C816 1.399 . S
C816 C815 1.399 . S
C816 C817 1.396 . S
C816 C819 1.453 . S
C816 C820 1.684 . S
C817 C807 1.723 . S
C817 C816 1.396 . S
C817 C818 1.394 . S
C818 C788 1.723 . S
C818 C814 1.397 . S
C818 C817 1.394 . S
C819 H791 0.982 . S
C819 H795 0.979 . S
C819 H796 0.977 . S
C819 C816 1.453 . S
C820 H792 0.979 . S
C820 H793 0.980 . S
C820 H794 0.983 . S
C820 C816 1.684 . S
H821 C839 0.948 . S
H822 C780 0.948 . S
H823 C798 0.979 . S
H824 C798 0.980 . S
H825 C798 0.983 . S
H826 C797 0.982 . S
H827 C797 0.979 . S
H828 C797 0.977 . S
H829 C799 0.948 . S
H830 C801 0.947 . S
H831 C802 0.948 . S
H832 C808 0.982 . S
H833 C808 0.979 . S
H834 C808 0.977 . S
H835 C809 0.979 . S
H836 C809 0.980 . S
H837 C809 0.983 . S
H838 C782 0.947 . S
C839 C782 1.392 . S
C839 C783 1.419 . S
C839 H821 0.948 . S
C840 C841 1.391 . S
C840 C844 1.391 . S
C840 H882 0.948 . S
C841 C840 1.391 . S
C841 C842 1.391 . S
C842 C841 1.391 . S
C842 H898 0.947 . S
C842 C899 1.392 . S
C843 C844 1.391 . S
C843 C847 1.397 . S
C843 C899 1.419 . S
C844 C840 1.391 . S
C844 C843 1.391 . S
C844 C845 1.399 . S
C845 C844 1.399 . S
C845 C848 1.396 . S
C845 C857 1.453 . S
C845 C858 1.684 . S
H846 C870 0.948 . S
C847 C843 1.397 . S
C847 C848 1.394 . S
C847 C866 1.723 . S
C848 C845 1.396 . S
C848 C847 1.394 . S
C848 C878 1.723 . S
H849 C872 0.947 . S
H850 C873 0.948 . S
H851 C879 0.982 . S
H852 C880 0.979 . S
H853 C880 0.980 . S
H854 C880 0.983 . S
H855 C879 0.979 . S
H856 C879 0.977 . S
C857 C845 1.453 . S
C857 H886 0.982 . S
C857 H887 0.979 . S
C857 H888 0.977 . S
C858 C845 1.684 . S
C858 H883 0.979 . S
C858 H884 0.980 . S
C858 H885 0.983 . S
C859 C860 1.391 . S
C859 C864 1.391 . S
C859 H889 0.948 . S
C860 C859 1.391 . S
C860 C861 1.391 . S
C861 C860 1.391 . S
C861 C862 1.392 . S
C861 H890 0.947 . S
C862 C861 1.392 . S
C862 C863 1.419 . S
C862 H891 0.948 . S
C863 C862 1.419 . S
C863 C864 1.391 . S
C863 C867 1.397 . S
C864 C859 1.391 . S
C864 C863 1.391 . S
C864 C865 1.399 . S
C865 C864 1.399 . S
C865 C866 1.396 . S
C865 C868 1.453 . S
C865 C869 1.684 . S
C866 C847 1.723 . S
C866 C865 1.396 . S
C866 C867 1.394 . S
C867 C863 1.397 . S
C867 C866 1.394 . S
C867 C877 1.723 . S
C868 C865 1.453 . S
C868 H892 0.982 . S
C868 H893 0.979 . S
C868 H894 0.977 . S
C869 C865 1.684 . S
C869 H895 0.979 . S
C869 H896 0.980 . S
C869 H897 0.983 . S
C870 H846 0.948 . S
C870 C871 1.391 . S
C870 C875 1.391 . S
C871 C870 1.391 . S
C871 C872 1.391 . S
C872 H849 0.947 . S
C872 C871 1.391 . S
C872 C873 1.392 . S
C873 H850 0.948 . S
C873 C872 1.392 . S
C873 C874 1.419 . S
C874 C873 1.419 . S
C874 C875 1.391 . S
C874 C878 1.397 . S
C875 C870 1.391 . S
C875 C874 1.391 . S
C875 C876 1.399 . S
C876 C875 1.399 . S
C876 C877 1.396 . S
C876 C879 1.453 . S
C876 C880 1.684 . S
C877 C867 1.723 . S
C877 C876 1.396 . S
C877 C878 1.394 . S
C878 C848 1.723 . S
C878 C874 1.397 . S
C878 C877 1.394 . S
C879 H851 0.982 . S
C879 H855 0.979 . S
C879 H856 0.977 . S
C879 C876 1.453 . S
C880 H852 0.979 . S
C880 H853 0.980 . S
C880 H854 0.983 . S
C880 C876 1.684 . S
H881 C899 0.948 . S
H882 C840 0.948 . S
H883 C858 0.979 . S
H884 C858 0.980 . S
H885 C858 0.983 . S
H886 C857 0.982 . S
H887 C857 0.979 . S
H888 C857 0.977 . S
H889 C859 0.948 . S
H890 C861 0.947 . S
H891 C862 0.948 . S
H892 C868 0.982 . S
H893 C868 0.979 . S
H894 C868 0.977 . S
H895 C869 0.979 . S
H896 C869 0.980 . S
H897 C869 0.983 . S
H898 C842 0.947 . S
C899 C842 1.392 . S
C899 C843 1.419 . S
C899 H881 0.948 . S
C900 C901 1.391 . S
C900 C904 1.391 . S
C900 H942 0.948 . S
C901 C900 1.391 . S
C901 C902 1.391 . S
C902 C901 1.391 . S
C902 H958 0.947 . S
C902 C959 1.392 . S
C903 C904 1.391 . S
C903 C907 1.397 . S
C903 C959 1.419 . S
C904 C900 1.391 . S
C904 C903 1.391 . S
C904 C905 1.399 . S
C905 C904 1.399 . S
C905 C908 1.396 . S
C905 C917 1.453 . S
C905 C918 1.684 . S
H906 C930 0.948 . S
C907 C903 1.397 . S
C907 C908 1.394 . S
C907 C926 1.723 . S
C908 C905 1.396 . S
C908 C907 1.394 . S
C908 C938 1.723 . S
H909 C932 0.947 . S
H910 C933 0.948 . S
H911 C939 0.982 . S
H912 C940 0.979 . S
H913 C940 0.980 . S
H914 C940 0.983 . S
H915 C939 0.979 . S
H916 C939 0.977 . S
C917 C905 1.453 . S
C917 H946 0.982 . S
C917 H947 0.979 . S
C917 H948 0.977 . S
C918 C905 1.684 . S
C918 H943 0.979 . S
C918 H944 0.980 . S
C918 H945 0.983 . S
C919 C920 1.391 . S
C919 C924 1.391 . S
C919 H949 0.948 . S
C920 C919 1.391 . S
C920 C921 1.391 . S
C921 C920 1.391 . S
C921 C922 1.392 . S
C921 H950 0.947 . S
C922 C921 1.392 . S
C922 C923 1.419 . S
C922 H951 0.948 . S
C923 C922 1.419 . S
C923 C924 1.391 . S
C923 C927 1.397 . S
C924 C919 1.391 . S
C924 C923 1.391 . S
C924 C925 1.399 . S
C925 C924 1.399 . S
C925 C926 1.396 . S
C925 C928 1.453 . S
C925 C929 1.684 . S
C926 C907 1.723 . S
C926 C925 1.396 . S
C926 C927 1.394 . S
C927 C923 1.397 . S
C927 C926 1.394 . S
C927 C937 1.723 . S
C928 C925 1.453 . S
C928 H952 0.982 . S
C928 H953 0.979 . S
C928 H954 0.977 . S
C929 C925 1.684 . S
C929 H955 0.979 . S
C929 H956 0.980 . S
C929 H957 0.983 . S
C930 H906 0.948 . S
C930 C931 1.391 . S
C930 C935 1.391 . S
C931 C930 1.391 . S
C931 C932 1.391 . S
C932 H909 0.947 . S
C932 C931 1.391 . S
C932 C933 1.392 . S
C933 H910 0.948 . S
C933 C932 1.392 . S
C933 C934 1.419 . S
C934 C933 1.419 . S
C934 C935 1.391 . S
C934 C938 1.397 . S
C935 C930 1.391 . S
C935 C934 1.391 . S
C935 C936 1.399 . S
C936 C935 1.399 . S
C936 C937 1.396 . S
C936 C939 1.453 . S
C936 C940 1.684 . S
C937 C927 1.723 . S
C937 C936 1.396 . S
C937 C938 1.394 . S
C938 C908 1.723 . S
C938 C934 1.397 . S
C938 C937 1.394 . S
C939 H911 0.982 . S
C939 H915 0.979 . S
C939 H916 0.977 . S
C939 C936 1.453 . S
C940 H912 0.979 . S
C940 H913 0.980 . S
C940 H914 0.983 . S
C940 C936 1.684 . S
H941 C959 0.948 . S
H942 C900 0.948 . S
H943 C918 0.979 . S
H944 C918 0.980 . S
H945 C918 0.983 . S
H946 C917 0.982 . S
H947 C917 0.979 . S
H948 C917 0.977 . S
H949 C919 0.948 . S
H950 C921 0.947 . S
H951 C922 0.948 . S
H952 C928 0.982 . S
H953 C928 0.979 . S
H954 C928 0.977 . S
H955 C929 0.979 . S
H956 C929 0.980 . S
H957 C929 0.983 . S
H958 C902 0.947 . S
C959 C902 1.392 . S
C959 C903 1.419 . S
C959 H941 0.948 . S
C960 C961 1.391 . S
C960 C964 1.391 . S
C960 H1002 0.948 . S
C961 C960 1.391 . S
C961 C962 1.391 . S
C962 C961 1.391 . S
C962 H1018 0.947 . S
C962 C1019 1.392 . S
C963 C964 1.391 . S
C963 C967 1.397 . S
C963 C1019 1.419 . S
C964 C960 1.391 . S
C964 C963 1.391 . S
C964 C965 1.399 . S
C965 C964 1.399 . S
C965 C968 1.396 . S
C965 C977 1.453 . S
C965 C978 1.684 . S
H966 C990 0.948 . S
C967 C963 1.397 . S
C967 C968 1.394 . S
C967 C986 1.723 . S
C968 C965 1.396 . S
C968 C967 1.394 . S
C968 C998 1.723 . S
H969 C992 0.947 . S
H970 C993 0.948 . S
H971 C999 0.982 . S
H972 C1000 0.979 1_655 S
H973 C1000 0.976 . S
H974 C1000 0.983 . S
H975 C999 0.979 . S
H976 C999 0.977 . S
C977 C965 1.453 . S
C977 H1006 0.982 . S
C977 H1007 0.979 . S
C977 H1008 0.977 . S
C978 C965 1.684 . S
C978 H1003 0.979 . S
C978 H1004 0.980 . S
C978 H1005 0.983 . S
C979 C980 1.391 1_455 S
C979 C984 1.391 . S
C979 H1009 0.948 1_455 S
C980 C979 1.391 1_655 S
C980 C981 1.391 1_655 S
C981 C980 1.391 1_455 S
C981 C982 1.392 . S
C981 H1010 0.943 1_455 S
C982 C981 1.392 . S
C982 C983 1.419 . S
C982 H1011 0.948 . S
C983 C982 1.419 . S
C983 C984 1.391 . S
C983 C987 1.397 . S
C984 C979 1.391 . S
C984 C983 1.391 . S
C984 C985 1.399 . S
C985 C984 1.399 . S
C985 C986 1.396 . S
C985 C988 1.453 . S
C985 C989 1.684 1_455 S
C986 C967 1.723 . S
C986 C985 1.396 . S
C986 C987 1.394 . S
C987 C983 1.397 . S
C987 C986 1.394 . S
C987 C997 1.723 . S
C988 C985 1.453 . S
C988 H1012 0.982 . S
C988 H1013 0.979 . S
C988 H1014 0.977 . S
C989 C985 1.684 1_655 S
C989 H1015 0.979 . S
C989 H1016 0.980 1_655 S
C989 H1017 0.983 . S
C990 H966 0.948 . S
C990 C991 1.391 . S
C990 C995 1.391 . S
C991 C990 1.391 . S
C991 C992 1.391 . S
C992 H969 0.947 . S
C992 C991 1.391 . S
C992 C993 1.392 . S
C993 H970 0.948 . S
C993 C992 1.392 . S
C993 C994 1.419 . S
C994 C993 1.419 . S
C994 C995 1.391 . S
C994 C998 1.397 . S
C995 C990 1.391 . S
C995 C994 1.391 . S
C995 C996 1.399 . S
C996 C995 1.399 . S
C996 C997 1.396 . S
C996 C999 1.453 . S
C996 C1000 1.684 . S
C997 C987 1.723 . S
C997 C996 1.396 . S
C997 C998 1.394 . S
C998 C968 1.723 . S
C998 C994 1.397 . S
C998 C997 1.394 . S
C999 H971 0.982 . S
C999 H975 0.979 . S
C999 H976 0.977 . S
C999 C996 1.453 . S
C1000 H972 0.979 1_455 S
C1000 H973 0.976 . S
C1000 H974 0.983 . S
C1000 C996 1.684 . S
H1001 C1019 0.948 . S
H1002 C960 0.948 . S
H1003 C978 0.979 . S
H1004 C978 0.980 . S
H1005 C978 0.983 . S
H1006 C977 0.982 . S
H1007 C977 0.979 . S
H1008 C977 0.977 . S
H1009 C979 0.948 1_655 S
H1010 C981 0.943 1_655 S
H1011 C982 0.948 . S
H1012 C988 0.982 . S
H1013 C988 0.979 . S
H1014 C988 0.977 . S
H1015 C989 0.979 . S
H1016 C989 0.980 1_455 S
H1017 C989 0.983 . S
H1018 C962 0.947 . S
C1019 C962 1.392 . S
C1019 C963 1.419 . S
C1019 H1001 0.948 . S
C1020 C1021 1.391 . S
C1020 C1024 1.391 . S
C1020 H1062 0.948 . S
C1021 C1020 1.391 . S
C1021 C1022 1.391 . S
C1022 C1021 1.391 . S
C1022 H1078 0.947 . S
C1022 C1079 1.392 . S
C1023 C1024 1.391 . S
C1023 C1027 1.397 . S
C1023 C1079 1.419 . S
C1024 C1020 1.391 . S
C1024 C1023 1.391 . S
C1024 C1025 1.399 . S
C1025 C1024 1.399 . S
C1025 C1028 1.396 . S
C1025 C1037 1.453 . S
C1025 C1038 1.684 . S
H1026 C1050 0.948 . S
C1027 C1023 1.397 . S
C1027 C1028 1.394 . S
C1027 C1046 1.723 . S
C1028 C1025 1.396 . S
C1028 C1027 1.394 . S
C1028 C1058 1.723 . S
H1029 C1052 0.947 . S
H1030 C1053 0.948 . S
H1031 C1059 0.982 . S
H1032 C1060 0.979 . S
H1033 C1060 0.980 . S
H1034 C1060 0.983 . S
H1035 C1059 0.979 . S
H1036 C1059 0.977 . S
C1037 C1025 1.453 . S
C1037 H1066 0.982 . S
C1037 H1067 0.979 . S
C1037 H1068 0.977 . S
C1038 C1025 1.684 . S
C1038 H1063 0.979 . S
C1038 H1064 0.980 . S
C1038 H1065 0.983 . S
C1039 C1040 1.391 . S
C1039 C1044 1.391 . S
C1039 H1069 0.948 . S
C1040 C1039 1.391 . S
C1040 C1041 1.391 . S
C1041 C1040 1.391 . S
C1041 C1042 1.392 . S
C1041 H1070 0.947 . S
C1042 C1041 1.392 . S
C1042 C1043 1.419 . S
C1042 H1071 0.948 . S
C1043 C1042 1.419 . S
C1043 C1044 1.391 . S
C1043 C1047 1.397 . S
C1044 C1039 1.391 . S
C1044 C1043 1.391 . S
C1044 C1045 1.399 . S
C1045 C1044 1.399 . S
C1045 C1046 1.396 . S
C1045 C1048 1.453 . S
C1045 C1049 1.684 . S
C1046 C1027 1.723 . S
C1046 C1045 1.396 . S
C1046 C1047 1.394 . S
C1047 C1043 1.397 . S
C1047 C1046 1.394 . S
C1047 C1057 1.723 . S
C1048 C1045 1.453 . S
C1048 H1072 0.982 . S
C1048 H1073 0.979 . S
C1048 H1074 0.977 . S
C1049 C1045 1.684 . S
C1049 H1075 0.979 . S
C1049 H1076 0.980 . S
C1049 H1077 0.983 . S
C1050 H1026 0.948 . S
C1050 C1051 1.391 . S
C1050 C1055 1.391 . S
C1051 C1050 1.391 . S
C1051 C1052 1.391 . S
C1052 H1029 0.947 . S
C1052 C1051 1.391 . S
C1052 C1053 1.392 . S
C1053 H1030 0.948 . S
C1053 C1052 1.392 . S
C1053 C1054 1.419 . S
C1054 C1053 1.419 . S
C1054 C1055 1.391 . S
C1054 C1058 1.397 . S
C1055 C1050 1.391 . S
C1055 C1054 1.391 . S
C1055 C1056 1.399 . S
C1056 C1055 1.399 . S
C1056 C1057 1.396 . S
C1056 C1059 1.453 . S
C1056 C1060 1.684 . S
C1057 C1047 1.723 . S
C1057 C1056 1.396 . S
C1057 C1058 1.394 . S
C1058 C1028 1.723 . S
C1058 C1054 1.397 . S
C1058 C1057 1.394 . S
C1059 H1031 0.982 . S
C1059 H1035 0.979 . S
C1059 H1036 0.977 . S
C1059 C1056 1.453 . S
C1060 H1032 0.979 . S
C1060 H1033 0.980 . S
C1060 H1034 0.983 . S
C1060 C1056 1.684 . S
H1061 C1079 0.948 . S
H1062 C1020 0.948 . S
H1063 C1038 0.979 . S
H1064 C1038 0.980 . S
H1065 C1038 0.983 . S
H1066 C1037 0.982 . S
H1067 C1037 0.979 . S
H1068 C1037 0.977 . S
H1069 C1039 0.948 . S
H1070 C1041 0.947 . S
H1071 C1042 0.948 . S
H1072 C1048 0.982 . S
H1073 C1048 0.979 . S
H1074 C1048 0.977 . S
H1075 C1049 0.979 . S
H1076 C1049 0.980 . S
H1077 C1049 0.983 . S
H1078 C1022 0.947 . S
C1079 C1022 1.392 . S
C1079 C1023 1.419 . S
C1079 H1061 0.948 . S
Eu1080 C1089 2.828 . S
Eu1080 O1091 2.392 . S
Eu1080 O1093 2.418 . S
Eu1080 O1098 2.373 1_565 S
Eu1080 O1101 2.488 . S
Eu1080 O1102 2.473 . S
Eu1080 O1103 2.349 1_565 S
Eu1081 O1090 2.373 1_545 S
Eu1081 O1094 2.488 . S
Eu1081 O1095 2.478 . S
Eu1081 O1096 2.349 1_545 S
Eu1081 O1099 2.392 . S
Eu1081 O1100 2.418 . S
Eu1081 C1110 2.828 . S
C1082 O1100 1.244 1_556 S
C1082 O1103 1.265 . S
C1083 C1084 1.379 1_565 S
C1083 C1087 1.373 . S
C1083 C1089 1.505 . S
C1084 C1083 1.379 1_545 S
C1084 C1086 1.369 . S
C1084 H1112 0.930 . S
C1085 C1087 1.383 . S
C1085 C1088 1.382 1_565 S
C1085 H1113 0.930 . S
C1086 C1084 1.369 . S
C1086 C1088 1.392 . S
C1086 H1114 0.930 . S
C1087 C1083 1.373 . S
C1087 C1085 1.383 . S
C1087 H1115 0.931 . S
C1088 C1085 1.382 1_545 S
C1088 C1086 1.392 . S
C1089 Eu1080 2.828 . S
C1089 C1083 1.505 . S
C1089 O1101 1.249 . S
C1089 O1102 1.247 . S
O1090 Eu1081 2.373 1_565 S
O1090 C1092 1.258 . S
O1091 Eu1080 2.392 . S
O1091 C1092 1.242 1_556 S
C1092 O1090 1.258 . S
C1092 O1091 1.242 1_554 S
O1093 Eu1080 2.418 . S
O1093 C1097 1.244 1_556 S
O1094 Eu1081 2.488 . S
O1094 C1110 1.249 . S
O1095 Eu1081 2.478 . S
O1095 C1110 1.255 . S
O1096 Eu1081 2.349 1_565 S
O1096 C1097 1.265 . S
C1097 O1093 1.244 1_554 S
C1097 O1096 1.265 . S
O1098 Eu1080 2.373 1_545 S
O1098 C1111 1.258 . S
O1099 Eu1081 2.392 . S
O1099 C1111 1.242 1_554 S
O1100 Eu1081 2.418 . S
O1100 C1082 1.244 1_554 S
O1101 Eu1080 2.488 . S
O1101 C1089 1.249 . S
O1102 Eu1080 2.473 . S
O1102 C1089 1.247 . S
O1103 Eu1080 2.349 1_545 S
O1103 C1082 1.265 . S
C1104 C1105 1.379 1_545 S
C1104 C1108 1.373 . S
C1104 C1110 1.505 . S
C1105 C1104 1.379 1_565 S
C1105 C1107 1.369 . S
C1105 H1116 0.930 . S
C1106 C1108 1.383 . S
C1106 C1109 1.382 1_545 S
C1106 H1117 0.930 . S
C1107 C1105 1.369 . S
C1107 C1109 1.392 . S
C1107 H1118 0.930 . S
C1108 C1104 1.373 . S
C1108 C1106 1.383 . S
C1108 H1119 0.931 . S
C1109 C1106 1.382 1_565 S
C1109 C1107 1.392 . S
C1110 Eu1081 2.828 . S
C1110 O1094 1.249 . S
C1110 O1095 1.255 . S
C1110 C1104 1.505 . S
C1111 O1098 1.258 . S
C1111 O1099 1.242 1_556 S
H1112 C1084 0.930 . S
H1113 C1085 0.930 . S
H1114 C1086 0.930 . S
H1115 C1087 0.931 . S
H1116 C1105 0.930 . S
H1117 C1106 0.930 . S
H1118 C1107 0.930 . S
H1119 C1108 0.931 . S
Eu1120 C1129 2.828 . S
Eu1120 O1131 2.392 1_556 S
Eu1120 O1133 2.418 . S
Eu1120 O1138 2.373 1_455 S
Eu1120 O1141 2.488 . S
Eu1120 O1142 2.471 1_455 S
Eu1120 O1143 2.349 1_455 S
Eu1121 O1130 2.373 1_655 S
Eu1121 O1134 2.488 . S
Eu1121 O1135 2.471 1_655 S
Eu1121 O1136 2.349 1_655 S
Eu1121 O1139 2.392 1_554 S
Eu1121 O1140 2.418 . S
Eu1121 C1150 2.828 . S
C1122 O1140 1.244 1_556 S
C1122 O1143 1.265 . S
C1123 C1124 1.379 1_455 S
C1123 C1127 1.373 . S
C1123 C1129 1.505 . S
C1124 C1123 1.379 1_655 S
C1124 C1126 1.369 . S
C1124 H1152 0.930 . S
C1125 C1127 1.383 . S
C1125 C1128 1.382 1_455 S
C1125 H1153 0.930 . S
C1126 C1124 1.369 . S
C1126 C1128 1.392 . S
C1126 H1154 0.930 . S
C1127 C1123 1.373 . S
C1127 C1125 1.383 . S
C1127 H1155 0.931 . S
C1128 C1125 1.382 1_655 S
C1128 C1126 1.392 . S
C1129 Eu1120 2.828 . S
C1129 C1123 1.505 . S
C1129 O1141 1.249 . S
C1129 O1142 1.244 1_455 S
O1130 Eu1121 2.373 1_455 S
O1130 C1132 1.258 . S
O1131 Eu1120 2.392 1_554 S
O1131 C1132 1.242 . S
C1132 O1130 1.258 . S
C1132 O1131 1.242 . S
O1133 Eu1120 2.418 . S
O1133 C1137 1.244 1_556 S
O1134 Eu1121 2.488 . S
O1134 C1150 1.249 . S
O1135 Eu1121 2.471 1_455 S
O1135 C1150 1.244 1_455 S
O1136 Eu1121 2.349 1_455 S
O1136 C1137 1.265 . S
C1137 O1133 1.244 1_554 S
C1137 O1136 1.265 . S
O1138 Eu1120 2.373 1_655 S
O1138 C1151 1.258 . S
O1139 Eu1121 2.392 1_556 S
O1139 C1151 1.242 . S
O1140 Eu1121 2.418 . S
O1140 C1122 1.244 1_554 S
O1141 Eu1120 2.488 . S
O1141 C1129 1.249 . S
O1142 Eu1120 2.471 1_655 S
O1142 C1129 1.244 1_655 S
O1143 Eu1120 2.349 1_655 S
O1143 C1122 1.265 . S
C1144 C1145 1.379 1_655 S
C1144 C1148 1.373 . S
C1144 C1150 1.505 . S
C1145 C1144 1.379 1_455 S
C1145 C1147 1.369 . S
C1145 H1156 0.930 . S
C1146 C1148 1.383 . S
C1146 C1149 1.382 1_655 S
C1146 H1157 0.930 . S
C1147 C1145 1.369 . S
C1147 C1149 1.392 . S
C1147 H1158 0.930 . S
C1148 C1144 1.373 . S
C1148 C1146 1.383 . S
C1148 H1159 0.931 . S
C1149 C1146 1.382 1_455 S
C1149 C1147 1.392 . S
C1150 Eu1121 2.828 . S
C1150 O1134 1.249 . S
C1150 O1135 1.244 1_655 S
C1150 C1144 1.505 . S
C1151 O1138 1.258 . S
C1151 O1139 1.242 . S
H1152 C1124 0.930 . S
H1153 C1125 0.930 . S
H1154 C1126 0.930 . S
H1155 C1127 0.931 . S
H1156 C1145 0.930 . S
H1157 C1146 0.930 . S
H1158 C1147 0.930 . S
H1159 C1148 0.931 . S
Eu1160 C1169 2.828 . S
Eu1160 O1171 2.387 1_554 S
Eu1160 O1173 2.418 . S
Eu1160 O1178 2.373 . S
Eu1160 O1181 2.488 . S
Eu1160 O1182 2.471 . S
Eu1160 O1183 2.349 . S
Eu1161 O1170 2.373 . S
Eu1161 O1174 2.488 . S
Eu1161 O1175 2.471 . S
Eu1161 O1176 2.349 . S
Eu1161 O1179 2.392 1_556 S
Eu1161 O1180 2.418 . S
Eu1161 C1190 2.828 . S
C1162 O1180 1.244 1_554 S
C1162 O1183 1.265 . S
C1163 C1164 1.379 . S
C1163 C1167 1.373 . S
C1163 C1169 1.505 . S
C1164 C1163 1.379 . S
C1164 C1166 1.369 . S
C1164 H1192 0.930 . S
C1165 C1167 1.383 . S
C1165 C1168 1.382 . S
C1165 H1193 0.930 . S
C1166 C1164 1.369 . S
C1166 C1168 1.392 . S
C1166 H1194 0.930 . S
C1167 C1163 1.373 . S
C1167 C1165 1.383 . S
C1167 H1195 0.931 . S
C1168 C1165 1.382 . S
C1168 C1166 1.392 . S
C1169 Eu1160 2.828 . S
C1169 C1163 1.505 . S
C1169 O1181 1.249 . S
C1169 O1182 1.244 . S
O1170 Eu1161 2.373 . S
O1170 C1172 1.258 . S
O1171 Eu1160 2.387 1_556 S
O1171 C1172 1.248 . S
C1172 O1170 1.258 . S
C1172 O1171 1.248 . S
O1173 Eu1160 2.418 . S
O1173 C1177 1.244 1_554 S
O1174 Eu1161 2.488 . S
O1174 C1190 1.249 . S
O1175 Eu1161 2.471 . S
O1175 C1190 1.244 . S
O1176 Eu1161 2.349 . S
O1176 C1177 1.265 . S
C1177 O1173 1.244 1_556 S
C1177 O1176 1.265 . S
O1178 Eu1160 2.373 . S
O1178 C1191 1.258 . S
O1179 Eu1161 2.392 1_554 S
O1179 C1191 1.242 . S
O1180 Eu1161 2.418 . S
O1180 C1162 1.244 1_556 S
O1181 Eu1160 2.488 . S
O1181 C1169 1.249 . S
O1182 Eu1160 2.471 . S
O1182 C1169 1.244 . S
O1183 Eu1160 2.349 . S
O1183 C1162 1.265 . S
C1184 C1185 1.379 . S
C1184 C1188 1.373 . S
C1184 C1190 1.505 . S
C1185 C1184 1.379 . S
C1185 C1187 1.369 . S
C1185 H1196 0.930 . S
C1186 C1188 1.383 . S
C1186 C1189 1.382 . S
C1186 H1197 0.930 . S
C1187 C1185 1.369 . S
C1187 C1189 1.392 . S
C1187 H1198 0.930 . S
C1188 C1184 1.373 . S
C1188 C1186 1.383 . S
C1188 H1199 0.931 . S
C1189 C1186 1.382 . S
C1189 C1187 1.392 . S
C1190 Eu1161 2.828 . S
C1190 O1174 1.249 . S
C1190 O1175 1.244 . S
C1190 C1184 1.505 . S
C1191 O1178 1.258 . S
C1191 O1179 1.242 . S
H1192 C1164 0.930 . S
H1193 C1165 0.930 . S
H1194 C1166 0.930 . S
H1195 C1167 0.931 . S
H1196 C1185 0.930 . S
H1197 C1186 0.930 . S
H1198 C1187 0.930 . S
H1199 C1188 0.931 . S
Eu1200 C1209 2.828 . S
Eu1200 O1211 2.392 . S
Eu1200 O1213 2.418 . S
Eu1200 O1218 2.373 . S
Eu1200 O1221 2.488 . S
Eu1200 O1222 2.471 . S
Eu1200 O1223 2.349 . S
Eu1201 O1210 2.373 . S
Eu1201 O1214 2.488 . S
Eu1201 O1215 2.471 . S
Eu1201 O1216 2.349 . S
Eu1201 O1219 2.392 . S
Eu1201 O1220 2.418 . S
Eu1201 C1230 2.828 . S
C1202 O1220 1.244 . S
C1202 O1223 1.265 . S
C1203 C1204 1.379 . S
C1203 C1207 1.373 . S
C1203 C1209 1.505 . S
C1204 C1203 1.379 . S
C1204 C1206 1.369 . S
C1204 H1232 0.930 . S
C1205 C1207 1.383 . S
C1205 C1208 1.382 . S
C1205 H1233 0.930 . S
C1206 C1204 1.369 . S
C1206 C1208 1.392 . S
C1206 H1234 0.930 . S
C1207 C1203 1.373 . S
C1207 C1205 1.383 . S
C1207 H1235 0.931 . S
C1208 C1205 1.382 . S
C1208 C1206 1.392 . S
C1209 Eu1200 2.828 . S
C1209 C1203 1.505 . S
C1209 O1221 1.249 . S
C1209 O1222 1.244 . S
O1210 Eu1201 2.373 . S
O1210 C1212 1.258 . S
O1211 Eu1200 2.392 . S
O1211 C1212 1.242 . S
C1212 O1210 1.258 . S
C1212 O1211 1.242 . S
O1213 Eu1200 2.418 . S
O1213 C1217 1.244 . S
O1214 Eu1201 2.488 . S
O1214 C1230 1.249 . S
O1215 Eu1201 2.471 . S
O1215 C1230 1.244 . S
O1216 Eu1201 2.349 . S
O1216 C1217 1.265 . S
C1217 O1213 1.244 . S
C1217 O1216 1.265 . S
O1218 Eu1200 2.373 . S
O1218 C1231 1.258 . S
O1219 Eu1201 2.392 . S
O1219 C1231 1.242 . S
O1220 Eu1201 2.418 . S
O1220 C1202 1.244 . S
O1221 Eu1200 2.488 . S
O1221 C1209 1.249 . S
O1222 Eu1200 2.471 . S
O1222 C1209 1.244 . S
O1223 Eu1200 2.349 . S
O1223 C1202 1.265 . S
C1224 C1225 1.379 . S
C1224 C1228 1.373 . S
C1224 C1230 1.505 . S
C1225 C1224 1.379 . S
C1225 C1227 1.369 . S
C1225 H1236 0.930 . S
C1226 C1228 1.383 . S
C1226 C1229 1.382 . S
C1226 H1237 0.930 . S
C1227 C1225 1.369 . S
C1227 C1229 1.392 . S
C1227 H1238 0.930 . S
C1228 C1224 1.373 . S
C1228 C1226 1.383 . S
C1228 H1239 0.931 . S
C1229 C1226 1.382 . S
C1229 C1227 1.392 . S
C1230 Eu1201 2.828 . S
C1230 O1214 1.249 . S
C1230 O1215 1.244 . S
C1230 C1224 1.505 . S
C1231 O1218 1.258 . S
C1231 O1219 1.242 . S
H1232 C1204 0.930 . S
H1233 C1205 0.930 . S
H1234 C1206 0.930 . S
H1235 C1207 0.931 . S
H1236 C1225 0.930 . S
H1237 C1226 0.930 . S
H1238 C1227 0.930 . S
H1239 C1228 0.931 . S
Eu1240 C1249 2.828 . S
Eu1240 O1251 2.392 . S
Eu1240 O1253 2.418 . S
Eu1240 O1258 2.373 . S
Eu1240 O1261 2.488 . S
Eu1240 O1262 2.471 . S
Eu1240 O1263 2.349 . S
Eu1241 O1250 2.373 . S
Eu1241 O1254 2.488 . S
Eu1241 O1255 2.471 . S
Eu1241 O1256 2.349 . S
Eu1241 O1259 2.392 . S
Eu1241 O1260 2.418 . S
Eu1241 C1270 2.828 . S
C1242 O1260 1.244 . S
C1242 O1263 1.265 . S
C1243 C1244 1.379 . S
C1243 C1247 1.373 . S
C1243 C1249 1.505 . S
C1244 C1243 1.379 . S
C1244 C1246 1.369 . S
C1244 H1272 0.930 . S
C1245 C1247 1.383 . S
C1245 C1248 1.382 . S
C1245 H1273 0.930 . S
C1246 C1244 1.369 . S
C1246 C1248 1.392 . S
C1246 H1274 0.930 . S
C1247 C1243 1.373 . S
C1247 C1245 1.383 . S
C1247 H1275 0.931 . S
C1248 C1245 1.382 . S
C1248 C1246 1.392 . S
C1249 Eu1240 2.828 . S
C1249 C1243 1.505 . S
C1249 O1261 1.249 . S
C1249 O1262 1.244 . S
O1250 Eu1241 2.373 . S
O1250 C1252 1.258 . S
O1251 Eu1240 2.392 . S
O1251 C1252 1.242 . S
C1252 O1250 1.258 . S
C1252 O1251 1.242 . S
O1253 Eu1240 2.418 . S
O1253 C1257 1.244 . S
O1254 Eu1241 2.488 . S
O1254 C1270 1.249 . S
O1255 Eu1241 2.471 . S
O1255 C1270 1.244 . S
O1256 Eu1241 2.349 . S
O1256 C1257 1.265 . S
C1257 O1253 1.244 . S
C1257 O1256 1.265 . S
O1258 Eu1240 2.373 . S
O1258 C1271 1.258 . S
O1259 Eu1241 2.392 . S
O1259 C1271 1.242 . S
O1260 Eu1241 2.418 . S
O1260 C1242 1.244 . S
O1261 Eu1240 2.488 . S
O1261 C1249 1.249 . S
O1262 Eu1240 2.471 . S
O1262 C1249 1.244 . S
O1263 Eu1240 2.349 . S
O1263 C1242 1.265 . S
C1264 C1265 1.379 . S
C1264 C1268 1.373 . S
C1264 C1270 1.505 . S
C1265 C1264 1.379 . S
C1265 C1267 1.369 . S
C1265 H1276 0.930 . S
C1266 C1268 1.383 . S
C1266 C1269 1.382 . S
C1266 H1277 0.930 . S
C1267 C1265 1.369 . S
C1267 C1269 1.392 . S
C1267 H1278 0.930 . S
C1268 C1264 1.373 . S
C1268 C1266 1.383 . S
C1268 H1279 0.931 . S
C1269 C1266 1.382 . S
C1269 C1267 1.392 . S
C1270 Eu1241 2.828 . S
C1270 O1254 1.249 . S
C1270 O1255 1.244 . S
C1270 C1264 1.505 . S
C1271 O1258 1.258 . S
C1271 O1259 1.242 . S
H1272 C1244 0.930 . S
H1273 C1245 0.930 . S
H1274 C1246 0.930 . S
H1275 C1247 0.931 . S
H1276 C1265 0.930 . S
H1277 C1266 0.930 . S
H1278 C1267 0.930 . S
H1279 C1268 0.931 . S
Eu1280 C1289 2.828 . S
Eu1280 O1291 2.392 . S
Eu1280 O1293 2.418 . S
Eu1280 O1298 2.373 . S
Eu1280 O1301 2.488 . S
Eu1280 O1302 2.471 . S
Eu1280 O1303 2.349 . S
Eu1281 O1290 2.373 . S
Eu1281 O1294 2.488 . S
Eu1281 O1295 2.471 . S
Eu1281 O1296 2.349 . S
Eu1281 O1299 2.392 . S
Eu1281 O1300 2.418 . S
Eu1281 C1310 2.828 . S
C1282 O1300 1.244 . S
C1282 O1303 1.265 . S
C1283 C1284 1.379 . S
C1283 C1287 1.373 . S
C1283 C1289 1.505 . S
C1284 C1283 1.379 . S
C1284 C1286 1.369 . S
C1284 H1312 0.930 . S
C1285 C1287 1.383 . S
C1285 C1288 1.382 . S
C1285 H1313 0.930 . S
C1286 C1284 1.369 . S
C1286 C1288 1.392 . S
C1286 H1314 0.930 . S
C1287 C1283 1.373 . S
C1287 C1285 1.383 . S
C1287 H1315 0.931 . S
C1288 C1285 1.382 . S
C1288 C1286 1.392 . S
C1289 Eu1280 2.828 . S
C1289 C1283 1.505 . S
C1289 O1301 1.249 . S
C1289 O1302 1.244 . S
O1290 Eu1281 2.373 . S
O1290 C1292 1.258 . S
O1291 Eu1280 2.392 . S
O1291 C1292 1.242 . S
C1292 O1290 1.258 . S
C1292 O1291 1.242 . S
O1293 Eu1280 2.418 . S
O1293 C1297 1.244 . S
O1294 Eu1281 2.488 . S
O1294 C1310 1.249 . S
O1295 Eu1281 2.471 . S
O1295 C1310 1.244 . S
O1296 Eu1281 2.349 . S
O1296 C1297 1.265 . S
C1297 O1293 1.244 . S
C1297 O1296 1.265 . S
O1298 Eu1280 2.373 . S
O1298 C1311 1.258 . S
O1299 Eu1281 2.392 . S
O1299 C1311 1.242 . S
O1300 Eu1281 2.418 . S
O1300 C1282 1.244 . S
O1301 Eu1280 2.488 . S
O1301 C1289 1.249 . S
O1302 Eu1280 2.471 . S
O1302 C1289 1.244 . S
O1303 Eu1280 2.349 . S
O1303 C1282 1.265 . S
C1304 C1305 1.379 . S
C1304 C1308 1.373 . S
C1304 C1310 1.505 . S
C1305 C1304 1.379 . S
C1305 C1307 1.369 . S
C1305 H1316 0.930 . S
C1306 C1308 1.383 . S
C1306 C1309 1.382 . S
C1306 H1317 0.930 . S
C1307 C1305 1.369 . S
C1307 C1309 1.392 . S
C1307 H1318 0.930 . S
C1308 C1304 1.373 . S
C1308 C1306 1.383 . S
C1308 H1319 0.931 . S
C1309 C1306 1.382 . S
C1309 C1307 1.392 . S
C1310 Eu1281 2.828 . S
C1310 O1294 1.249 . S
C1310 O1295 1.244 . S
C1310 C1304 1.505 . S
C1311 O1298 1.258 . S
C1311 O1299 1.242 . S
H1312 C1284 0.930 . S
H1313 C1285 0.930 . S
H1314 C1286 0.930 . S
H1315 C1287 0.931 . S
H1316 C1305 0.930 . S
H1317 C1306 0.930 . S
H1318 C1307 0.930 . S
H1319 C1308 0.931 . S
Eu1320 C1329 2.828 . S
Eu1320 O1331 2.392 . S
Eu1320 O1333 2.418 . S
Eu1320 O1338 2.373 . S
Eu1320 O1341 2.488 . S
Eu1320 O1342 2.471 . S
Eu1320 O1343 2.349 . S
Eu1321 O1330 2.373 . S
Eu1321 O1334 2.488 . S
Eu1321 O1335 2.471 . S
Eu1321 O1336 2.349 . S
Eu1321 O1339 2.392 . S
Eu1321 O1340 2.418 . S
Eu1321 C1350 2.828 . S
C1322 O1340 1.244 . S
C1322 O1343 1.265 . S
C1323 C1324 1.379 . S
C1323 C1327 1.373 . S
C1323 C1329 1.505 . S
C1324 C1323 1.379 . S
C1324 C1326 1.369 . S
C1324 H1352 0.930 . S
C1325 C1327 1.383 . S
C1325 C1328 1.382 . S
C1325 H1353 0.930 . S
C1326 C1324 1.369 . S
C1326 C1328 1.392 . S
C1326 H1354 0.930 . S
C1327 C1323 1.373 . S
C1327 C1325 1.383 . S
C1327 H1355 0.931 . S
C1328 C1325 1.382 . S
C1328 C1326 1.392 . S
C1329 Eu1320 2.828 . S
C1329 C1323 1.505 . S
C1329 O1341 1.249 . S
C1329 O1342 1.244 . S
O1330 Eu1321 2.373 . S
O1330 C1332 1.258 . S
O1331 Eu1320 2.392 . S
O1331 C1332 1.242 . S
C1332 O1330 1.258 . S
C1332 O1331 1.242 . S
O1333 Eu1320 2.418 . S
O1333 C1337 1.244 . S
O1334 Eu1321 2.488 . S
O1334 C1350 1.249 . S
O1335 Eu1321 2.471 . S
O1335 C1350 1.244 . S
O1336 Eu1321 2.349 . S
O1336 C1337 1.265 . S
C1337 O1333 1.244 . S
C1337 O1336 1.265 . S
O1338 Eu1320 2.373 . S
O1338 C1351 1.258 . S
O1339 Eu1321 2.392 . S
O1339 C1351 1.242 . S
O1340 Eu1321 2.418 . S
O1340 C1322 1.244 . S
O1341 Eu1320 2.488 . S
O1341 C1329 1.249 . S
O1342 Eu1320 2.471 . S
O1342 C1329 1.244 . S
O1343 Eu1320 2.349 . S
O1343 C1322 1.265 . S
C1344 C1345 1.379 . S
C1344 C1348 1.373 . S
C1344 C1350 1.505 . S
C1345 C1344 1.379 . S
C1345 C1347 1.369 . S
C1345 H1356 0.930 . S
C1346 C1348 1.383 . S
C1346 C1349 1.382 . S
C1346 H1357 0.930 . S
C1347 C1345 1.369 . S
C1347 C1349 1.392 . S
C1347 H1358 0.930 . S
C1348 C1344 1.373 . S
C1348 C1346 1.383 . S
C1348 H1359 0.931 . S
C1349 C1346 1.382 . S
C1349 C1347 1.392 . S
C1350 Eu1321 2.828 . S
C1350 O1334 1.249 . S
C1350 O1335 1.244 . S
C1350 C1344 1.505 . S
C1351 O1338 1.258 . S
C1351 O1339 1.242 . S
H1352 C1324 0.930 . S
H1353 C1325 0.930 . S
H1354 C1326 0.930 . S
H1355 C1327 0.931 . S
H1356 C1345 0.930 . S
H1357 C1346 0.930 . S
H1358 C1347 0.930 . S
H1359 C1348 0.931 . S
Eu1360 C1369 2.828 . S
Eu1360 O1371 2.392 . S
Eu1360 O1373 2.418 . S
Eu1360 O1378 2.373 . S
Eu1360 O1381 2.488 . S
Eu1360 O1382 2.471 . S
Eu1360 O1383 2.349 . S
Eu1361 O1370 2.373 . S
Eu1361 O1374 2.488 . S
Eu1361 O1375 2.471 . S
Eu1361 O1376 2.349 . S
Eu1361 O1379 2.392 . S
Eu1361 O1380 2.418 . S
Eu1361 C1390 2.828 . S
C1362 O1380 1.244 . S
C1362 O1383 1.265 . S
C1363 C1364 1.379 . S
C1363 C1367 1.373 . S
C1363 C1369 1.505 . S
C1364 C1363 1.379 . S
C1364 C1366 1.369 . S
C1364 H1392 0.930 . S
C1365 C1367 1.383 . S
C1365 C1368 1.382 . S
C1365 H1393 0.930 . S
C1366 C1364 1.369 . S
C1366 C1368 1.392 . S
C1366 H1394 0.930 . S
C1367 C1363 1.373 . S
C1367 C1365 1.383 . S
C1367 H1395 0.931 . S
C1368 C1365 1.382 . S
C1368 C1366 1.392 . S
C1369 Eu1360 2.828 . S
C1369 C1363 1.505 . S
C1369 O1381 1.249 . S
C1369 O1382 1.244 . S
O1370 Eu1361 2.373 . S
O1370 C1372 1.258 . S
O1371 Eu1360 2.392 . S
O1371 C1372 1.242 . S
C1372 O1370 1.258 . S
C1372 O1371 1.242 . S
O1373 Eu1360 2.418 . S
O1373 C1377 1.244 . S
O1374 Eu1361 2.488 . S
O1374 C1390 1.249 . S
O1375 Eu1361 2.471 . S
O1375 C1390 1.244 . S
O1376 Eu1361 2.349 . S
O1376 C1377 1.265 . S
C1377 O1373 1.244 . S
C1377 O1376 1.265 . S
O1378 Eu1360 2.373 . S
O1378 C1391 1.258 . S
O1379 Eu1361 2.392 . S
O1379 C1391 1.242 . S
O1380 Eu1361 2.418 . S
O1380 C1362 1.244 . S
O1381 Eu1360 2.488 . S
O1381 C1369 1.249 . S
O1382 Eu1360 2.471 . S
O1382 C1369 1.244 . S
O1383 Eu1360 2.349 . S
O1383 C1362 1.265 . S
C1384 C1385 1.379 . S
C1384 C1388 1.373 . S
C1384 C1390 1.505 . S
C1385 C1384 1.379 . S
C1385 C1387 1.369 . S
C1385 H1396 0.930 . S
C1386 C1388 1.383 . S
C1386 C1389 1.382 . S
C1386 H1397 0.930 . S
C1387 C1385 1.369 . S
C1387 C1389 1.392 . S
C1387 H1398 0.930 . S
C1388 C1384 1.373 . S
C1388 C1386 1.383 . S
C1388 H1399 0.931 . S
C1389 C1386 1.382 . S
C1389 C1387 1.392 . S
C1390 Eu1361 2.828 . S
C1390 O1374 1.249 . S
C1390 O1375 1.244 . S
C1390 C1384 1.505 . S
C1391 O1378 1.258 . S
C1391 O1379 1.242 . S
H1392 C1364 0.930 . S
H1393 C1365 0.930 . S
H1394 C1366 0.930 . S
H1395 C1367 0.931 . S
H1396 C1385 0.930 . S
H1397 C1386 0.930 . S
H1398 C1387 0.930 . S
H1399 C1388 0.931 . S
Eu1400 C1409 2.828 . S
Eu1400 O1411 2.392 . S
Eu1400 O1413 2.418 . S
Eu1400 O1418 2.373 . S
Eu1400 O1421 2.488 . S
Eu1400 O1422 2.471 . S
Eu1400 O1423 2.349 . S
Eu1401 O1410 2.373 . S
Eu1401 O1414 2.488 . S
Eu1401 O1415 2.471 . S
Eu1401 O1416 2.349 . S
Eu1401 O1419 2.392 . S
Eu1401 O1420 2.418 . S
Eu1401 C1430 2.828 . S
C1402 O1420 1.244 . S
C1402 O1423 1.265 . S
C1403 C1404 1.379 . S
C1403 C1407 1.373 . S
C1403 C1409 1.505 . S
C1404 C1403 1.379 . S
C1404 C1406 1.369 . S
C1404 H1432 0.930 . S
C1405 C1407 1.383 . S
C1405 C1408 1.382 . S
C1405 H1433 0.930 . S
C1406 C1404 1.369 . S
C1406 C1408 1.392 . S
C1406 H1434 0.930 . S
C1407 C1403 1.373 . S
C1407 C1405 1.383 . S
C1407 H1435 0.931 . S
C1408 C1405 1.382 . S
C1408 C1406 1.392 . S
C1409 Eu1400 2.828 . S
C1409 C1403 1.505 . S
C1409 O1421 1.249 . S
C1409 O1422 1.244 . S
O1410 Eu1401 2.373 . S
O1410 C1412 1.258 . S
O1411 Eu1400 2.392 . S
O1411 C1412 1.242 . S
C1412 O1410 1.258 . S
C1412 O1411 1.242 . S
O1413 Eu1400 2.418 . S
O1413 C1417 1.244 . S
O1414 Eu1401 2.488 . S
O1414 C1430 1.249 . S
O1415 Eu1401 2.471 . S
O1415 C1430 1.244 . S
O1416 Eu1401 2.349 . S
O1416 C1417 1.265 . S
C1417 O1413 1.244 . S
C1417 O1416 1.265 . S
O1418 Eu1400 2.373 . S
O1418 C1431 1.258 . S
O1419 Eu1401 2.392 . S
O1419 C1431 1.242 . S
O1420 Eu1401 2.418 . S
O1420 C1402 1.244 . S
O1421 Eu1400 2.488 . S
O1421 C1409 1.249 . S
O1422 Eu1400 2.471 . S
O1422 C1409 1.244 . S
O1423 Eu1400 2.349 . S
O1423 C1402 1.265 . S
C1424 C1425 1.379 . S
C1424 C1428 1.373 . S
C1424 C1430 1.505 . S
C1425 C1424 1.379 . S
C1425 C1427 1.369 . S
C1425 H1436 0.930 . S
C1426 C1428 1.383 . S
C1426 C1429 1.382 . S
C1426 H1437 0.930 . S
C1427 C1425 1.369 . S
C1427 C1429 1.392 . S
C1427 H1438 0.930 . S
C1428 C1424 1.373 . S
C1428 C1426 1.383 . S
C1428 H1439 0.931 . S
C1429 C1426 1.382 . S
C1429 C1427 1.392 . S
C1430 Eu1401 2.828 . S
C1430 O1414 1.249 . S
C1430 O1415 1.244 . S
C1430 C1424 1.505 . S
C1431 O1418 1.258 . S
C1431 O1419 1.242 . S
H1432 C1404 0.930 . S
H1433 C1405 0.930 . S
H1434 C1406 0.930 . S
H1435 C1407 0.931 . S
H1436 C1425 0.930 . S
H1437 C1426 0.930 . S
H1438 C1427 0.930 . S
H1439 C1428 0.931 . S
C1440 C1441 1.369 . S
C1440 C1442 1.419 . S
C1440 H1444 0.930 . S
C1441 C1440 1.369 . S
C1441 C1450 1.429 . S
C1442 C1440 1.419 . S
C1442 C1443 1.363 . S
C1442 H1445 0.929 . S
C1443 C1442 1.363 . S
C1443 C1449 1.428 . S
H1444 C1440 0.930 . S
H1445 C1442 0.929 . S
S1446 N1447 1.613 . S
S1446 N1448 1.610 . S
N1447 S1446 1.613 . S
N1447 C1450 1.350 . S
N1448 S1446 1.610 . S
N1448 C1449 1.351 . S
C1449 C1443 1.428 . S
C1449 N1448 1.351 . S
C1449 C1450 1.434 . S
C1450 C1441 1.429 . S
C1450 N1447 1.350 . S
C1450 C1449 1.434 . S
C1451 C1452 1.369 . S
C1451 C1453 1.419 . S
C1451 H1455 0.930 . S
C1452 C1451 1.369 . S
C1452 C1461 1.429 . S
C1453 C1451 1.419 . S
C1453 C1454 1.363 . S
C1453 H1456 0.929 . S
C1454 C1453 1.363 . S
C1454 C1460 1.428 . S
H1455 C1451 0.930 . S
H1456 C1453 0.929 . S
S1457 N1458 1.613 1_556 S
S1457 N1459 1.610 . S
N1458 S1457 1.613 1_554 S
N1458 C1461 1.350 . S
N1459 S1457 1.610 . S
N1459 C1460 1.351 1_556 S
C1460 C1454 1.428 . S
C1460 N1459 1.351 1_554 S
C1460 C1461 1.434 . S
C1461 C1452 1.429 . S
C1461 N1458 1.350 . S
C1461 C1460 1.434 . S
C1462 C1463 1.369 . S
C1462 C1464 1.419 . S
C1462 H1466 0.930 . S
C1463 C1462 1.369 . S
C1463 C1472 1.429 1_554 S
C1464 C1462 1.419 . S
C1464 C1465 1.363 . S
C1464 H1467 0.929 . S
C1465 C1464 1.363 . S
C1465 C1471 1.428 1_554 S
H1466 C1462 0.930 . S
H1467 C1464 0.929 . S
S1468 N1469 1.613 . S
S1468 N1470 1.610 . S
N1469 S1468 1.613 . S
N1469 C1472 1.350 . S
N1470 S1468 1.610 . S
N1470 C1471 1.351 . S
C1471 C1465 1.428 1_556 S
C1471 N1470 1.351 . S
C1471 C1472 1.434 . S
C1472 C1463 1.429 1_556 S
C1472 N1469 1.350 . S
C1472 C1471 1.434 . S
C1473 C1474 1.369 . S
C1473 C1475 1.419 . S
C1473 H1477 0.930 . S
C1474 C1473 1.369 . S
C1474 C1483 1.429 . S
C1475 C1473 1.419 . S
C1475 C1476 1.363 . S
C1475 H1478 0.929 . S
C1476 C1475 1.363 . S
C1476 C1482 1.428 . S
H1477 C1473 0.930 . S
H1478 C1475 0.929 . S
S1479 N1480 1.613 . S
S1479 N1481 1.610 . S
N1480 S1479 1.613 . S
N1480 C1483 1.350 1_554 S
N1481 S1479 1.610 . S
N1481 C1482 1.351 1_554 S
C1482 C1476 1.428 . S
C1482 N1481 1.351 1_556 S
C1482 C1483 1.434 . S
C1483 C1474 1.429 . S
C1483 N1480 1.350 1_556 S
C1483 C1482 1.434 . S
C1484 C1485 1.369 . S
C1484 C1486 1.419 . S
C1484 H1488 0.930 . S
C1485 C1484 1.369 . S
C1485 C1494 1.429 . S
C1486 C1484 1.419 . S
C1486 C1487 1.363 . S
C1486 H1489 0.929 . S
C1487 C1486 1.363 . S
C1487 C1493 1.428 . S
H1488 C1484 0.930 . S
H1489 C1486 0.929 . S
S1490 N1491 1.613 . S
S1490 N1492 1.610 . S
N1491 S1490 1.613 . S
N1491 C1494 1.350 . S
N1492 S1490 1.610 . S
N1492 C1493 1.351 . S
C1493 C1487 1.428 . S
C1493 N1492 1.351 . S
C1493 C1494 1.434 . S
C1494 C1485 1.429 . S
C1494 N1491 1.350 . S
C1494 C1493 1.434 . S
C1495 C1496 1.369 . S
C1495 C1497 1.419 . S
C1495 H1499 0.909 1_556 S
C1496 C1495 1.369 . S
C1496 C1505 1.429 . S
C1497 C1495 1.419 . S
C1497 C1498 1.363 . S
C1497 H1500 0.929 1_556 S
C1498 C1497 1.363 . S
C1498 C1504 1.428 . S
H1499 C1495 0.909 1_554 S
H1500 C1497 0.929 1_554 S
S1501 N1502 1.613 . S
S1501 N1503 1.610 . S
N1502 S1501 1.613 . S
N1502 C1505 1.350 . S
N1503 S1501 1.610 . S
N1503 C1504 1.351 . S
C1504 C1498 1.428 . S
C1504 N1503 1.351 . S
C1504 C1505 1.434 . S
C1505 C1496 1.429 . S
C1505 N1502 1.350 . S
C1505 C1504 1.434 . S
C1506 C1507 1.369 . S
C1506 C1508 1.419 . S
C1506 H1510 0.930 . S
C1507 C1506 1.369 . S
C1507 C1516 1.429 . S
C1508 C1506 1.419 . S
C1508 C1509 1.363 . S
C1508 H1511 0.929 . S
C1509 C1508 1.363 . S
C1509 C1515 1.428 . S
H1510 C1506 0.930 . S
H1511 C1508 0.929 . S
S1512 N1513 1.613 . S
S1512 N1514 1.610 . S
N1513 S1512 1.613 . S
N1513 C1516 1.350 . S
N1514 S1512 1.610 . S
N1514 C1515 1.351 . S
C1515 C1509 1.428 . S
C1515 N1514 1.351 . S
C1515 C1516 1.434 . S
C1516 C1507 1.429 . S
C1516 N1513 1.350 . S
C1516 C1515 1.434 . S
C1517 C1518 1.369 . S
C1517 C1519 1.419 . S
C1517 H1521 0.930 . S
C1518 C1517 1.369 . S
C1518 C1527 1.429 . S
C1519 C1517 1.419 . S
C1519 C1520 1.363 . S
C1519 H1522 0.929 . S
C1520 C1519 1.363 . S
C1520 C1526 1.428 . S
H1521 C1517 0.930 . S
H1522 C1519 0.929 . S
S1523 N1524 1.613 . S
S1523 N1525 1.610 . S
N1524 S1523 1.613 . S
N1524 C1527 1.350 . S
N1525 S1523 1.610 . S
N1525 C1526 1.351 . S
C1526 C1520 1.428 . S
C1526 N1525 1.351 . S
C1526 C1527 1.434 . S
C1527 C1518 1.429 . S
C1527 N1524 1.350 . S
C1527 C1526 1.434 . S
C1528 C1529 1.334 1_554 S
C1528 C1530 1.417 . S
C1528 H1532 0.970 . S
C1529 C1528 1.334 1_556 S
C1529 C1538 1.429 . S
C1530 C1528 1.417 . S
C1530 C1531 1.363 1_554 S
C1530 H1533 0.929 . S
C1531 C1530 1.363 1_556 S
C1531 C1537 1.428 . S
H1532 C1528 0.970 . S
H1533 C1530 0.929 . S
S1534 N1535 1.613 . S
S1534 N1536 1.610 . S
N1535 S1534 1.613 . S
N1535 C1538 1.350 . S
N1536 S1534 1.610 . S
N1536 C1537 1.351 . S
C1537 C1531 1.428 . S
C1537 N1536 1.351 . S
C1537 C1538 1.434 . S
C1538 C1529 1.429 . S
C1538 N1535 1.350 . S
C1538 C1537 1.434 . S
C1539 C1540 1.369 . S
C1539 C1541 1.419 . S
C1539 H1543 0.930 . S
C1540 C1539 1.369 . S
C1540 C1549 1.429 . S
C1541 C1539 1.419 . S
C1541 C1542 1.363 . S
C1541 H1544 0.929 . S
C1542 C1541 1.363 . S
C1542 C1548 1.428 . S
H1543 C1539 0.930 . S
H1544 C1541 0.929 . S
S1545 N1546 1.613 . S
S1545 N1547 1.610 . S
N1546 S1545 1.613 . S
N1546 C1549 1.350 . S
N1547 S1545 1.610 . S
N1547 C1548 1.351 . S
C1548 C1542 1.428 . S
C1548 N1547 1.351 . S
C1548 C1549 1.434 . S
C1549 C1540 1.429 . S
C1549 N1546 1.350 . S
C1549 C1548 1.434 . S
C1550 C1551 1.369 . S
C1550 C1552 1.419 . S
C1550 H1554 0.930 . S
C1551 C1550 1.369 . S
C1551 C1560 1.429 . S
C1552 C1550 1.419 . S
C1552 C1553 1.363 . S
C1552 H1555 0.929 . S
C1553 C1552 1.363 . S
C1553 C1559 1.428 . S
H1554 C1550 0.930 . S
H1555 C1552 0.929 . S
S1556 N1557 1.613 . S
S1556 N1558 1.610 . S
N1557 S1556 1.613 . S
N1557 C1560 1.350 . S
N1558 S1556 1.610 . S
N1558 C1559 1.351 . S
C1559 C1553 1.428 . S
C1559 N1558 1.351 . S
C1559 C1560 1.434 . S
C1560 C1551 1.429 . S
C1560 N1557 1.350 . S
C1560 C1559 1.434 . S
C1561 C1562 1.369 . S
C1561 C1563 1.419 . S
C1561 H1565 0.930 . S
C1562 C1561 1.369 . S
C1562 C1571 1.429 . S
C1563 C1561 1.419 . S
C1563 C1564 1.363 . S
C1563 H1566 0.929 . S
C1564 C1563 1.363 . S
C1564 C1570 1.455 . S
H1565 C1561 0.930 . S
H1566 C1563 0.929 . S
S1567 N1568 1.613 . S
S1567 N1569 1.610 . S
N1568 S1567 1.613 . S
N1568 C1571 1.350 1_556 S
N1569 S1567 1.610 . S
N1569 C1570 1.315 1_556 S
C1570 C1564 1.455 . S
C1570 N1569 1.315 1_554 S
C1570 C1571 1.442 . S
C1571 C1562 1.429 . S
C1571 N1568 1.350 1_554 S
C1571 C1570 1.442 . S
C1572 C1573 1.369 . S
C1572 C1574 1.419 . S
C1572 H1576 0.930 . S
C1573 C1572 1.369 . S
C1573 C1582 1.429 . S
C1574 C1572 1.419 . S
C1574 C1575 1.363 . S
C1574 H1577 0.929 . S
C1575 C1574 1.363 . S
C1575 C1581 1.428 . S
H1576 C1572 0.930 . S
H1577 C1574 0.929 . S
S1578 N1579 1.613 1_455 S
S1578 N1580 1.610 . S
N1579 S1578 1.613 1_655 S
N1579 C1582 1.350 1_655 S
N1580 S1578 1.610 . S
N1580 C1581 1.351 . S
C1581 C1575 1.428 . S
C1581 N1580 1.351 . S
C1581 C1582 1.434 . S
C1582 C1573 1.429 . S
C1582 N1579 1.350 1_455 S
C1582 C1581 1.434 . S
C1583 C1584 1.369 . S
C1583 C1585 1.419 . S
C1583 H1587 0.930 . S
C1584 C1583 1.369 . S
C1584 C1593 1.429 . S
C1585 C1583 1.419 . S
C1585 C1586 1.363 . S
C1585 H1588 0.929 . S
C1586 C1585 1.363 . S
C1586 C1592 1.428 . S
H1587 C1583 0.930 . S
H1588 C1585 0.929 . S
S1589 N1590 1.613 . S
S1589 N1591 1.610 . S
N1590 S1589 1.613 . S
N1590 C1593 1.350 . S
N1591 S1589 1.610 . S
N1591 C1592 1.351 . S
C1592 C1586 1.428 . S
C1592 N1591 1.351 . S
C1592 C1593 1.434 . S
C1593 C1584 1.429 . S
C1593 N1590 1.350 . S
C1593 C1592 1.434 . S
C1594 C1595 1.369 1_565 S
C1594 C1596 1.419 . S
C1594 H1598 0.930 . S
C1595 C1594 1.369 1_545 S
C1595 C1604 1.429 1_545 S
C1596 C1594 1.419 . S
C1596 C1597 1.363 . S
C1596 H1599 0.929 . S
C1597 C1596 1.363 . S
C1597 C1603 1.428 . S
H1598 C1594 0.930 . S
H1599 C1596 0.929 . S
S1600 N1601 1.613 1_565 S
S1600 N1602 1.610 . S
N1601 S1600 1.613 1_545 S
N1601 C1604 1.350 1_545 S
N1602 S1600 1.610 . S
N1602 C1603 1.351 . S
C1603 C1597 1.428 . S
C1603 N1602 1.351 . S
C1603 C1604 1.434 . S
C1604 C1595 1.429 1_565 S
C1604 N1601 1.350 1_565 S
C1604 C1603 1.434 . S
C1605 C1606 1.369 . S
C1605 C1607 1.419 . S
C1605 H1609 0.930 . S
C1606 C1605 1.369 . S
C1606 C1615 1.429 . S
C1607 C1605 1.419 . S
C1607 C1608 1.363 . S
C1607 H1610 0.929 . S
C1608 C1607 1.363 . S
C1608 C1614 1.428 . S
H1609 C1605 0.930 . S
H1610 C1607 0.929 . S
S1611 N1612 1.613 . S
S1611 N1613 1.610 . S
N1612 S1611 1.613 . S
N1612 C1615 1.350 . S
N1613 S1611 1.610 . S
N1613 C1614 1.351 . S
C1614 C1608 1.428 . S
C1614 N1613 1.351 . S
C1614 C1615 1.434 . S
C1615 C1606 1.429 . S
C1615 N1612 1.350 . S
C1615 C1614 1.434 . S
C1616 C1617 1.369 . S
C1616 C1618 1.419 . S
C1616 H1620 0.930 . S
C1617 C1616 1.369 . S
C1617 C1626 1.429 . S
C1618 C1616 1.419 . S
C1618 C1619 1.363 . S
C1618 H1621 0.929 . S
C1619 C1618 1.363 . S
C1619 C1625 1.428 . S
H1620 C1616 0.930 . S
H1621 C1618 0.929 . S
S1622 N1623 1.613 . S
S1622 N1624 1.610 . S
N1623 S1622 1.613 . S
N1623 C1626 1.350 . S
N1624 S1622 1.610 . S
N1624 C1625 1.351 . S
C1625 C1619 1.428 . S
C1625 N1624 1.351 . S
C1625 C1626 1.434 . S
C1626 C1617 1.429 . S
C1626 N1623 1.350 . S
C1626 C1625 1.434 . S
C1627 C1628 1.369 . S
C1627 C1629 1.419 . S
C1627 H1631 0.930 . S
C1628 C1627 1.369 . S
C1628 C1637 1.429 . S
C1629 C1627 1.419 . S
C1629 C1630 1.363 . S
C1629 H1632 0.929 . S
C1630 C1629 1.363 . S
C1630 C1636 1.428 . S
H1631 C1627 0.930 . S
H1632 C1629 0.929 . S
S1633 N1634 1.613 . S
S1633 N1635 1.610 . S
N1634 S1633 1.613 . S
N1634 C1637 1.350 . S
N1635 S1633 1.610 . S
N1635 C1636 1.351 . S
C1636 C1630 1.428 . S
C1636 N1635 1.351 . S
C1636 C1637 1.434 . S
C1637 C1628 1.429 . S
C1637 N1634 1.350 . S
C1637 C1636 1.434 . S
C1638 C1639 1.369 . S
C1638 C1640 1.419 . S
C1638 H1642 0.930 . S
C1639 C1638 1.369 . S
C1639 C1648 1.429 . S
C1640 C1638 1.419 . S
C1640 C1641 1.363 . S
C1640 H1643 0.929 . S
C1641 C1640 1.363 . S
C1641 C1647 1.428 . S
H1642 C1638 0.930 . S
H1643 C1640 0.929 . S
S1644 N1645 1.613 . S
S1644 N1646 1.610 . S
N1645 S1644 1.613 . S
N1645 C1648 1.350 . S
N1646 S1644 1.610 . S
N1646 C1647 1.351 . S
C1647 C1641 1.428 . S
C1647 N1646 1.351 . S
C1647 C1648 1.434 . S
C1648 C1639 1.429 . S
C1648 N1645 1.350 . S
C1648 C1647 1.434 . S
C1649 C1650 1.369 . S
C1649 C1651 1.419 . S
C1649 H1653 0.930 . S
C1650 C1649 1.369 . S
C1650 C1659 1.429 . S
C1651 C1649 1.419 . S
C1651 C1652 1.363 . S
C1651 H1654 0.929 . S
C1652 C1651 1.363 . S
C1652 C1658 1.428 . S
H1653 C1649 0.930 . S
H1654 C1651 0.929 . S
S1655 N1656 1.613 . S
S1655 N1657 1.610 . S
N1656 S1655 1.613 . S
N1656 C1659 1.350 . S
N1657 S1655 1.610 . S
N1657 C1658 1.351 . S
C1658 C1652 1.428 . S
C1658 N1657 1.351 . S
C1658 C1659 1.434 . S
C1659 C1650 1.429 . S
C1659 N1656 1.350 . S
C1659 C1658 1.434 . S
C1660 C1661 1.369 . S
C1660 C1662 1.419 . S
C1660 H1664 0.930 . S
C1661 C1660 1.369 . S
C1661 C1670 1.429 . S
C1662 C1660 1.419 . S
C1662 C1663 1.363 . S
C1662 H1665 0.929 . S
C1663 C1662 1.363 . S
C1663 C1669 1.428 . S
H1664 C1660 0.930 . S
H1665 C1662 0.929 . S
S1666 N1667 1.613 . S
S1666 N1668 1.610 . S
N1667 S1666 1.613 . S
N1667 C1670 1.350 . S
N1668 S1666 1.610 . S
N1668 C1669 1.351 . S
C1669 C1663 1.428 . S
C1669 N1668 1.351 . S
C1669 C1670 1.434 . S
C1670 C1661 1.429 . S
C1670 N1667 1.350 . S
C1670 C1669 1.434 . S
C1671 C1672 1.369 1_565 S
C1671 C1673 1.419 . S
C1671 H1675 0.930 . S
C1672 C1671 1.369 1_545 S
C1672 C1681 1.429 1_545 S
C1673 C1671 1.419 . S
C1673 C1674 1.363 . S
C1673 H1676 0.929 . S
C1674 C1673 1.363 . S
C1674 C1680 1.428 . S
H1675 C1671 0.930 . S
H1676 C1673 0.929 . S
S1677 N1678 1.600 1_565 S
S1677 N1679 1.610 . S
N1678 S1677 1.600 1_545 S
N1678 C1681 1.343 1_545 S
N1679 S1677 1.610 . S
N1679 C1680 1.351 . S
C1680 C1674 1.428 . S
C1680 N1679 1.351 . S
C1680 C1681 1.434 . S
C1681 C1672 1.429 1_565 S
C1681 N1678 1.343 1_565 S
C1681 C1680 1.434 . S
C1682 C1683 1.369 . S
C1682 C1684 1.419 . S
C1682 H1686 0.930 . S
C1683 C1682 1.369 . S
C1683 C1692 1.429 . S
C1684 C1682 1.419 . S
C1684 C1685 1.363 . S
C1684 H1687 0.929 . S
C1685 C1684 1.363 . S
C1685 C1691 1.428 . S
H1686 C1682 0.930 . S
H1687 C1684 0.929 . S
S1688 N1689 1.613 1_455 S
S1688 N1690 1.610 . S
N1689 S1688 1.613 1_655 S
N1689 C1692 1.350 1_655 S
N1690 S1688 1.610 . S
N1690 C1691 1.351 . S
C1691 C1685 1.428 . S
C1691 N1690 1.351 . S
C1691 C1692 1.434 . S
C1692 C1683 1.429 . S
C1692 N1689 1.350 1_455 S
C1692 C1691 1.434 . S
C1693 C1694 1.369 . S
C1693 C1695 1.419 . S
C1693 H1697 0.930 . S
C1694 C1693 1.369 . S
C1694 C1703 1.429 . S
C1695 C1693 1.419 . S
C1695 C1696 1.363 . S
C1695 H1698 0.929 . S
C1696 C1695 1.363 . S
C1696 C1702 1.428 . S
H1697 C1693 0.930 . S
H1698 C1695 0.929 . S
S1699 N1700 1.613 . S
S1699 N1701 1.610 . S
N1700 S1699 1.613 . S
N1700 C1703 1.350 . S
N1701 S1699 1.610 . S
N1701 C1702 1.351 . S
C1702 C1696 1.428 . S
C1702 N1701 1.351 . S
C1702 C1703 1.434 . S
C1703 C1694 1.429 . S
C1703 N1700 1.350 . S
C1703 C1702 1.434 . S
C1704 C1705 1.369 . S
C1704 C1706 1.419 . S
C1704 H1708 0.930 . S
C1705 C1704 1.369 . S
C1705 C1714 1.429 . S
C1706 C1704 1.419 . S
C1706 C1707 1.363 . S
C1706 H1709 0.929 . S
C1707 C1706 1.363 . S
C1707 C1713 1.428 . S
H1708 C1704 0.930 . S
H1709 C1706 0.929 . S
S1710 N1711 1.613 . S
S1710 N1712 1.610 . S
N1711 S1710 1.613 . S
N1711 C1714 1.350 . S
N1712 S1710 1.610 . S
N1712 C1713 1.351 . S
C1713 C1707 1.428 . S
C1713 N1712 1.351 . S
C1713 C1714 1.434 . S
C1714 C1705 1.429 . S
C1714 N1711 1.350 . S
C1714 C1713 1.434 . S
C1715 C1716 1.369 . S
C1715 C1717 1.419 . S
C1715 H1719 0.930 . S
C1716 C1715 1.369 . S
C1716 C1725 1.429 . S
C1717 C1715 1.419 . S
C1717 C1718 1.363 . S
C1717 H1720 0.929 . S
C1718 C1717 1.363 . S
C1718 C1724 1.428 . S
H1719 C1715 0.930 . S
H1720 C1717 0.929 . S
S1721 N1722 1.613 . S
S1721 N1723 1.610 . S
N1722 S1721 1.613 . S
N1722 C1725 1.350 . S
N1723 S1721 1.610 . S
N1723 C1724 1.351 . S
C1724 C1718 1.428 . S
C1724 N1723 1.351 . S
C1724 C1725 1.434 . S
C1725 C1716 1.429 . S
C1725 N1722 1.350 . S
C1725 C1724 1.434 . S
C1726 C1727 1.369 . S
C1726 C1728 1.419 . S
C1726 H1730 0.930 . S
C1727 C1726 1.369 . S
C1727 C1736 1.429 . S
C1728 C1726 1.419 . S
C1728 C1729 1.363 . S
C1728 H1731 0.929 . S
C1729 C1728 1.363 . S
C1729 C1735 1.428 . S
H1730 C1726 0.930 . S
H1731 C1728 0.929 . S
S1732 N1733 1.613 . S
S1732 N1734 1.610 . S
N1733 S1732 1.613 . S
N1733 C1736 1.350 . S
N1734 S1732 1.610 . S
N1734 C1735 1.351 . S
C1735 C1729 1.428 . S
C1735 N1734 1.351 . S
C1735 C1736 1.434 . S
C1736 C1727 1.429 . S
C1736 N1733 1.350 . S
C1736 C1735 1.434 . S
C1737 C1738 1.369 1_545 S
C1737 C1739 1.419 . S
C1737 H1741 0.930 . S
C1738 C1737 1.369 1_565 S
C1738 C1747 1.429 1_565 S
C1739 C1737 1.419 . S
C1739 C1740 1.363 . S
C1739 H1742 0.929 . S
C1740 C1739 1.363 . S
C1740 C1746 1.428 . S
H1741 C1737 0.930 . S
H1742 C1739 0.929 . S
S1743 N1744 1.613 . S
S1743 N1745 1.610 . S
N1744 S1743 1.613 . S
N1744 C1747 1.350 . S
N1745 S1743 1.610 . S
N1745 C1746 1.351 . S
C1746 C1740 1.428 . S
C1746 N1745 1.351 . S
C1746 C1747 1.434 . S
C1747 C1738 1.429 1_545 S
C1747 N1744 1.350 . S
C1747 C1746 1.434 . S
C1748 C1749 1.369 . S
C1748 C1750 1.419 . S
C1748 H1752 0.930 . S
C1749 C1748 1.369 . S
C1749 C1758 1.429 . S
C1750 C1748 1.419 . S
C1750 C1751 1.363 . S
C1750 H1753 0.929 . S
C1751 C1750 1.363 . S
C1751 C1757 1.428 . S
H1752 C1748 0.930 . S
H1753 C1750 0.929 . S
S1754 N1755 1.613 . S
S1754 N1756 1.610 . S
N1755 S1754 1.613 . S
N1755 C1758 1.350 . S
N1756 S1754 1.610 . S
N1756 C1757 1.351 . S
C1757 C1751 1.428 . S
C1757 N1756 1.351 . S
C1757 C1758 1.434 . S
C1758 C1749 1.429 . S
C1758 N1755 1.350 . S
C1758 C1757 1.434 . S
C1759 C1760 1.369 . S
C1759 C1761 1.419 . S
C1759 H1763 0.930 . S
C1760 C1759 1.369 . S
C1760 C1769 1.429 . S
C1761 C1759 1.419 . S
C1761 C1762 1.363 . S
C1761 H1764 0.929 . S
C1762 C1761 1.363 . S
C1762 C1768 1.428 . S
H1763 C1759 0.930 . S
H1764 C1761 0.929 . S
S1765 N1766 1.613 . S
S1765 N1767 1.610 . S
N1766 S1765 1.613 . S
N1766 C1769 1.350 . S
N1767 S1765 1.610 . S
N1767 C1768 1.351 . S
C1768 C1762 1.428 . S
C1768 N1767 1.351 . S
C1768 C1769 1.434 . S
C1769 C1760 1.429 . S
C1769 N1766 1.350 . S
C1769 C1768 1.434 . S
C1770 C1771 1.369 . S
C1770 C1772 1.419 . S
C1770 H1774 0.930 . S
C1771 C1770 1.369 . S
C1771 C1780 1.429 . S
C1772 C1770 1.419 . S
C1772 C1773 1.363 . S
C1772 H1775 0.929 . S
C1773 C1772 1.363 . S
C1773 C1779 1.428 . S
H1774 C1770 0.930 . S
H1775 C1772 0.929 . S
S1776 N1777 1.613 1_655 S
S1776 N1778 1.610 . S
N1777 S1776 1.613 1_455 S
N1777 C1780 1.350 1_455 S
N1778 S1776 1.610 . S
N1778 C1779 1.351 . S
C1779 C1773 1.428 . S
C1779 N1778 1.351 . S
C1779 C1780 1.434 . S
C1780 C1771 1.429 . S
C1780 N1777 1.350 1_655 S
C1780 C1779 1.434 . S
C1781 C1782 1.369 . S
C1781 C1783 1.419 . S
C1781 H1785 0.930 . S
C1782 C1781 1.369 . S
C1782 C1791 1.429 . S
C1783 C1781 1.419 . S
C1783 C1784 1.363 . S
C1783 H1786 0.929 . S
C1784 C1783 1.363 . S
C1784 C1790 1.428 . S
H1785 C1781 0.930 . S
H1786 C1783 0.929 . S
S1787 N1788 1.613 . S
S1787 N1789 1.610 . S
N1788 S1787 1.613 . S
N1788 C1791 1.350 . S
N1789 S1787 1.610 . S
N1789 C1790 1.351 . S
C1790 C1784 1.428 . S
C1790 N1789 1.351 . S
C1790 C1791 1.434 . S
C1791 C1782 1.429 . S
C1791 N1788 1.350 . S
C1791 C1790 1.434 . S
C1792 C1793 1.369 1_545 S
C1792 C1794 1.419 . S
C1792 H1796 0.930 1_545 S
C1793 C1792 1.369 1_565 S
C1793 C1802 1.429 1_565 S
C1794 C1792 1.419 . S
C1794 C1795 1.363 . S
C1794 H1797 0.929 . S
C1795 C1794 1.363 . S
C1795 C1801 1.428 . S
H1796 C1792 0.930 1_565 S
H1797 C1794 0.929 . S
S1798 N1799 1.613 . S
S1798 N1800 1.610 . S
N1799 S1798 1.613 . S
N1799 C1802 1.350 . S
N1800 S1798 1.610 . S
N1800 C1801 1.351 . S
C1801 C1795 1.428 . S
C1801 N1800 1.351 . S
C1801 C1802 1.434 . S
C1802 C1793 1.429 1_545 S
C1802 N1799 1.350 . S
C1802 C1801 1.434 . S
C1803 C1804 1.369 . S
C1803 C1805 1.419 . S
C1803 H1807 0.930 . S
C1804 C1803 1.369 . S
C1804 C1813 1.429 . S
C1805 C1803 1.419 . S
C1805 C1806 1.363 . S
C1805 H1808 0.929 . S
C1806 C1805 1.363 . S
C1806 C1812 1.428 . S
H1807 C1803 0.930 . S
H1808 C1805 0.929 . S
S1809 N1810 1.613 . S
S1809 N1811 1.610 . S
N1810 S1809 1.613 . S
N1810 C1813 1.350 . S
N1811 S1809 1.610 . S
N1811 C1812 1.351 . S
C1812 C1806 1.428 . S
C1812 N1811 1.351 . S
C1812 C1813 1.434 . S
C1813 C1804 1.429 . S
C1813 N1810 1.350 . S
C1813 C1812 1.434 . S
C1814 C1815 1.369 . S
C1814 C1816 1.419 . S
C1814 H1818 0.930 . S
C1815 C1814 1.369 . S
C1815 C1824 1.429 . S
C1816 C1814 1.419 . S
C1816 C1817 1.363 . S
C1816 H1819 0.929 . S
C1817 C1816 1.363 . S
C1817 C1823 1.428 . S
H1818 C1814 0.930 . S
H1819 C1816 0.929 . S
S1820 N1821 1.613 . S
S1820 N1822 1.610 . S
N1821 S1820 1.613 . S
N1821 C1824 1.350 . S
N1822 S1820 1.610 . S
N1822 C1823 1.351 . S
C1823 C1817 1.428 . S
C1823 N1822 1.351 . S
C1823 C1824 1.434 . S
C1824 C1815 1.429 . S
C1824 N1821 1.350 . S
C1824 C1823 1.434 . S
C1825 C1826 1.369 . S
C1825 C1827 1.419 . S
C1825 H1829 0.930 . S
C1826 C1825 1.369 . S
C1826 C1835 1.429 . S
C1827 C1825 1.419 . S
C1827 C1828 1.363 . S
C1827 H1830 0.929 . S
C1828 C1827 1.363 . S
C1828 C1834 1.428 . S
H1829 C1825 0.930 . S
H1830 C1827 0.929 . S
S1831 N1832 1.613 . S
S1831 N1833 1.610 . S
N1832 S1831 1.613 . S
N1832 C1835 1.350 . S
N1833 S1831 1.610 . S
N1833 C1834 1.351 . S
C1834 C1828 1.428 . S
C1834 N1833 1.351 . S
C1834 C1835 1.434 . S
C1835 C1826 1.429 . S
C1835 N1832 1.350 . S
C1835 C1834 1.434 . S
C1836 C1837 1.369 . S
C1836 C1838 1.419 . S
C1836 H1840 0.930 . S
C1837 C1836 1.369 . S
C1837 C1846 1.429 1_565 S
C1838 C1836 1.419 . S
C1838 C1839 1.363 . S
C1838 H1841 0.929 . S
C1839 C1838 1.363 . S
C1839 C1845 1.428 1_565 S
H1840 C1836 0.930 . S
H1841 C1838 0.929 . S
S1842 N1843 1.613 . S
S1842 N1844 1.610 . S
N1843 S1842 1.613 . S
N1843 C1846 1.350 . S
N1844 S1842 1.610 . S
N1844 C1845 1.351 . S
C1845 C1839 1.428 1_545 S
C1845 N1844 1.351 . S
C1845 C1846 1.434 . S
C1846 C1837 1.429 1_545 S
C1846 N1843 1.350 . S
C1846 C1845 1.434 . S
C1847 C1848 1.369 1_655 S
C1847 C1849 1.419 . S
C1847 H1851 0.930 . S
C1848 C1847 1.369 1_455 S
C1848 C1857 1.429 . S
C1849 C1847 1.419 . S
C1849 C1850 1.363 1_655 S
C1849 H1852 0.929 . S
C1850 C1849 1.363 1_455 S
C1850 C1856 1.428 . S
H1851 C1847 0.930 . S
H1852 C1849 0.929 . S
S1853 N1854 1.613 . S
S1853 N1855 1.610 . S
N1854 S1853 1.613 . S
N1854 C1857 1.350 . S
N1855 S1853 1.610 . S
N1855 C1856 1.351 . S
C1856 C1850 1.428 . S
C1856 N1855 1.351 . S
C1856 C1857 1.434 . S
C1857 C1848 1.429 . S
C1857 N1854 1.350 . S
C1857 C1856 1.434 . S
C1858 C1859 1.369 . S
C1858 C1860 1.419 . S
C1858 H1862 0.930 . S
C1859 C1858 1.369 . S
C1859 C1868 1.429 . S
C1860 C1858 1.419 . S
C1860 C1861 1.363 . S
C1860 H1863 0.929 . S
C1861 C1860 1.363 . S
C1861 C1867 1.428 . S
H1862 C1858 0.930 . S
H1863 C1860 0.929 . S
S1864 N1865 1.613 . S
S1864 N1866 1.610 . S
N1865 S1864 1.613 . S
N1865 C1868 1.350 . S
N1866 S1864 1.610 . S
N1866 C1867 1.351 . S
C1867 C1861 1.428 . S
C1867 N1866 1.351 . S
C1867 C1868 1.434 . S
C1868 C1859 1.429 . S
C1868 N1865 1.350 . S
C1868 C1867 1.434 . S
C1869 C1870 1.369 1_455 S
C1869 C1871 1.419 . S
C1869 H1873 0.930 . S
C1870 C1869 1.369 1_655 S
C1870 C1879 1.429 . S
C1871 C1869 1.419 . S
C1871 C1872 1.363 1_455 S
C1871 H1874 0.929 . S
C1872 C1871 1.363 1_655 S
C1872 C1878 1.428 . S
H1873 C1869 0.930 . S
H1874 C1871 0.929 . S
S1875 N1876 1.613 . S
S1875 N1877 1.610 . S
N1876 S1875 1.613 . S
N1876 C1879 1.350 . S
N1877 S1875 1.610 . S
N1877 C1878 1.351 . S
C1878 C1872 1.428 . S
C1878 N1877 1.351 . S
C1878 C1879 1.434 . S
C1879 C1870 1.429 . S
C1879 N1876 1.350 . S
C1879 C1878 1.434 . S
C1880 C1881 1.369 . S
C1880 C1882 1.419 . S
C1880 H1884 0.930 . S
C1881 C1880 1.369 . S
C1881 C1890 1.429 . S
C1882 C1880 1.419 . S
C1882 C1883 1.363 . S
C1882 H1885 0.929 . S
C1883 C1882 1.363 . S
C1883 C1889 1.428 . S
H1884 C1880 0.930 . S
H1885 C1882 0.929 . S
S1886 N1887 1.613 . S
S1886 N1888 1.610 . S
N1887 S1886 1.613 . S
N1887 C1890 1.350 . S
N1888 S1886 1.610 . S
N1888 C1889 1.351 . S
C1889 C1883 1.428 . S
C1889 N1888 1.351 . S
C1889 C1890 1.434 . S
C1890 C1881 1.429 . S
C1890 N1887 1.350 . S
C1890 C1889 1.434 . S
C1891 C1892 1.369 . S
C1891 C1893 1.427 . S
C1891 H1895 0.946 . S
C1892 C1891 1.369 . S
C1892 C1901 1.429 . S
C1893 C1891 1.427 . S
C1893 C1894 1.378 . S
C1893 H1896 0.905 1_545 S
C1894 C1893 1.378 . S
C1894 C1900 1.428 . S
H1895 C1891 0.946 . S
H1896 C1893 0.905 1_565 S
S1897 N1898 1.613 . S
S1897 N1899 1.610 . S
N1898 S1897 1.613 . S
N1898 C1901 1.350 . S
N1899 S1897 1.610 . S
N1899 C1900 1.351 . S
C1900 C1894 1.428 . S
C1900 N1899 1.351 . S
C1900 C1901 1.434 . S
C1901 C1892 1.429 . S
C1901 N1898 1.350 . S
C1901 C1900 1.434 . S
C1902 C1903 1.369 . S
C1902 C1904 1.419 . S
C1902 H1906 0.930 . S
C1903 C1902 1.369 . S
C1903 C1912 1.429 . S
C1904 C1902 1.419 . S
C1904 C1905 1.363 . S
C1904 H1907 0.929 . S
C1905 C1904 1.363 . S
C1905 C1911 1.428 . S
H1906 C1902 0.930 . S
H1907 C1904 0.929 . S
S1908 N1909 1.613 . S
S1908 N1910 1.610 . S
N1909 S1908 1.613 . S
N1909 C1912 1.350 . S
N1910 S1908 1.610 . S
N1910 C1911 1.351 . S
C1911 C1905 1.428 . S
C1911 N1910 1.351 . S
C1911 C1912 1.434 . S
C1912 C1903 1.429 . S
C1912 N1909 1.350 . S
C1912 C1911 1.434 . S
C1913 C1914 1.369 . S
C1913 C1915 1.419 . S
C1913 H1917 0.930 . S
C1914 C1913 1.369 . S
C1914 C1923 1.429 . S
C1915 C1913 1.419 . S
C1915 C1916 1.363 . S
C1915 H1918 0.929 . S
C1916 C1915 1.363 . S
C1916 C1922 1.428 . S
H1917 C1913 0.930 . S
H1918 C1915 0.929 . S
S1919 N1920 1.613 . S
S1919 N1921 1.610 . S
N1920 S1919 1.613 . S
N1920 C1923 1.350 . S
N1921 S1919 1.610 . S
N1921 C1922 1.351 . S
C1922 C1916 1.428 . S
C1922 N1921 1.351 . S
C1922 C1923 1.434 . S
C1923 C1914 1.429 . S
C1923 N1920 1.350 . S
C1923 C1922 1.434 . S
C1924 C1925 1.369 . S
C1924 C1926 1.419 . S
C1924 H1928 0.930 . S
C1925 C1924 1.369 . S
C1925 C1934 1.429 . S
C1926 C1924 1.419 . S
C1926 C1927 1.363 . S
C1926 H1929 0.929 . S
C1927 C1926 1.363 . S
C1927 C1933 1.428 . S
H1928 C1924 0.930 . S
H1929 C1926 0.929 . S
S1930 N1931 1.613 . S
S1930 N1932 1.610 . S
N1931 S1930 1.613 . S
N1931 C1934 1.350 . S
N1932 S1930 1.610 . S
N1932 C1933 1.351 . S
C1933 C1927 1.428 . S
C1933 N1932 1.351 . S
C1933 C1934 1.434 . S
C1934 C1925 1.429 . S
C1934 N1931 1.350 . S
C1934 C1933 1.434 . S
C1935 C1936 1.369 . S
C1935 C1937 1.419 . S
C1935 H1939 0.930 . S
C1936 C1935 1.369 . S
C1936 C1945 1.429 . S
C1937 C1935 1.419 . S
C1937 C1938 1.363 . S
C1937 H1940 0.929 . S
C1938 C1937 1.363 . S
C1938 C1944 1.428 . S
H1939 C1935 0.930 . S
H1940 C1937 0.929 . S
S1941 N1942 1.613 . S
S1941 N1943 1.610 . S
N1942 S1941 1.613 . S
N1942 C1945 1.350 . S
N1943 S1941 1.610 . S
N1943 C1944 1.351 . S
C1944 C1938 1.428 . S
C1944 N1943 1.351 . S
C1944 C1945 1.434 . S
C1945 C1936 1.429 . S
C1945 N1942 1.350 . S
C1945 C1944 1.434 . S
C1946 C1947 1.369 . S
C1946 C1948 1.419 . S
C1946 H1950 0.930 . S
C1947 C1946 1.369 . S
C1947 C1956 1.429 . S
C1948 C1946 1.419 . S
C1948 C1949 1.363 . S
C1948 H1951 0.929 . S
C1949 C1948 1.363 . S
C1949 C1955 1.428 . S
H1950 C1946 0.930 . S
H1951 C1948 0.929 . S
S1952 N1953 1.613 . S
S1952 N1954 1.610 . S
N1953 S1952 1.613 . S
N1953 C1956 1.350 . S
N1954 S1952 1.610 . S
N1954 C1955 1.351 . S
C1955 C1949 1.428 . S
C1955 N1954 1.351 . S
C1955 C1956 1.434 . S
C1956 C1947 1.429 . S
C1956 N1953 1.350 . S
C1956 C1955 1.434 . S
C1957 C1958 1.369 . S
C1957 C1959 1.419 . S
C1957 H1961 0.930 . S
C1958 C1957 1.369 . S
C1958 C1967 1.429 . S
C1959 C1957 1.419 . S
C1959 C1960 1.363 . S
C1959 H1962 0.929 . S
C1960 C1959 1.363 . S
C1960 C1966 1.428 . S
H1961 C1957 0.930 . S
H1962 C1959 0.929 . S
S1963 N1964 1.613 . S
S1963 N1965 1.610 . S
N1964 S1963 1.613 . S
N1964 C1967 1.350 . S
N1965 S1963 1.610 . S
N1965 C1966 1.351 . S
C1966 C1960 1.428 . S
C1966 N1965 1.351 . S
C1966 C1967 1.434 . S
C1967 C1958 1.429 . S
C1967 N1964 1.350 . S
C1967 C1966 1.434 . S
C1968 C1969 1.369 . S
C1968 C1970 1.419 . S
C1968 H1972 0.930 . S
C1969 C1968 1.369 . S
C1969 C1978 1.429 . S
C1970 C1968 1.419 . S
C1970 C1971 1.363 . S
C1970 H1973 0.929 . S
C1971 C1970 1.363 . S
C1971 C1977 1.428 . S
H1972 C1968 0.930 . S
H1973 C1970 0.929 . S
S1974 N1975 1.613 . S
S1974 N1976 1.610 . S
N1975 S1974 1.613 . S
N1975 C1978 1.350 . S
N1976 S1974 1.610 . S
N1976 C1977 1.351 . S
C1977 C1971 1.428 . S
C1977 N1976 1.351 . S
C1977 C1978 1.434 . S
C1978 C1969 1.429 . S
C1978 N1975 1.350 . S
C1978 C1977 1.434 . S
C1979 C1980 1.369 . S
C1979 C1981 1.419 . S
C1979 H1983 0.930 . S
C1980 C1979 1.369 . S
C1980 C1989 1.429 . S
C1981 C1979 1.419 . S
C1981 C1982 1.363 . S
C1981 H1984 0.929 . S
C1982 C1981 1.363 . S
C1982 C1988 1.428 . S
H1983 C1979 0.930 . S
H1984 C1981 0.929 . S
S1985 N1986 1.613 . S
S1985 N1987 1.610 . S
N1986 S1985 1.613 . S
N1986 C1989 1.350 . S
N1987 S1985 1.610 . S
N1987 C1988 1.351 . S
C1988 C1982 1.428 . S
C1988 N1987 1.351 . S
C1988 C1989 1.434 . S
C1989 C1980 1.429 . S
C1989 N1986 1.350 . S
C1989 C1988 1.434 . S
C1990 C1991 1.369 . S
C1990 C1992 1.419 . S
C1990 H1994 0.930 . S
C1991 C1990 1.369 . S
C1991 C2000 1.429 . S
C1992 C1990 1.419 . S
C1992 C1993 1.363 . S
C1992 H1995 0.929 . S
C1993 C1992 1.363 . S
C1993 C1999 1.428 . S
H1994 C1990 0.930 . S
H1995 C1992 0.929 . S
S1996 N1997 1.613 . S
S1996 N1998 1.610 . S
N1997 S1996 1.613 . S
N1997 C2000 1.350 . S
N1998 S1996 1.610 . S
N1998 C1999 1.351 . S
C1999 C1993 1.428 . S
C1999 N1998 1.351 . S
C1999 C2000 1.434 . S
C2000 C1991 1.429 . S
C2000 N1997 1.350 . S
C2000 C1999 1.434 . S
C2001 C2002 1.369 . S
C2001 C2003 1.419 . S
C2001 H2005 0.930 . S
C2002 C2001 1.369 . S
C2002 C2011 1.429 . S
C2003 C2001 1.419 . S
C2003 C2004 1.363 . S
C2003 H2006 0.929 . S
C2004 C2003 1.363 . S
C2004 C2010 1.428 . S
H2005 C2001 0.930 . S
H2006 C2003 0.929 . S
S2007 N2008 1.613 . S
S2007 N2009 1.610 . S
N2008 S2007 1.613 . S
N2008 C2011 1.350 . S
N2009 S2007 1.610 . S
N2009 C2010 1.351 . S
C2010 C2004 1.428 . S
C2010 N2009 1.351 . S
C2010 C2011 1.434 . S
C2011 C2002 1.429 . S
C2011 N2008 1.350 . S
C2011 C2010 1.434 . S
C2012 C2013 1.369 . S
C2012 C2014 1.419 . S
C2012 H2016 0.930 . S
C2013 C2012 1.369 . S
C2013 C2022 1.429 . S
C2014 C2012 1.419 . S
C2014 C2015 1.363 . S
C2014 H2017 0.929 . S
C2015 C2014 1.363 . S
C2015 C2021 1.428 . S
H2016 C2012 0.930 . S
H2017 C2014 0.929 . S
S2018 N2019 1.613 . S
S2018 N2020 1.610 . S
N2019 S2018 1.613 . S
N2019 C2022 1.350 . S
N2020 S2018 1.610 . S
N2020 C2021 1.351 . S
C2021 C2015 1.428 . S
C2021 N2020 1.351 . S
C2021 C2022 1.434 . S
C2022 C2013 1.429 . S
C2022 N2019 1.350 . S
C2022 C2021 1.434 . S
C2023 C2024 1.369 . S
C2023 C2025 1.419 . S
C2023 H2027 0.930 . S
C2024 C2023 1.369 . S
C2024 C2033 1.429 . S
C2025 C2023 1.419 . S
C2025 C2026 1.363 . S
C2025 H2028 0.929 . S
C2026 C2025 1.363 . S
C2026 C2032 1.428 . S
H2027 C2023 0.930 . S
H2028 C2025 0.929 . S
S2029 N2030 1.613 . S
S2029 N2031 1.610 . S
N2030 S2029 1.613 . S
N2030 C2033 1.350 . S
N2031 S2029 1.610 . S
N2031 C2032 1.351 . S
C2032 C2026 1.428 . S
C2032 N2031 1.351 . S
C2032 C2033 1.434 . S
C2033 C2024 1.429 . S
C2033 N2030 1.350 . S
C2033 C2032 1.434 . S
C1441 C781 1.746 . S
C1443 C1092 1.753 . S
C1452 C871 1.729 . S
C1454 C1132 1.780 . S
C1463 C751 1.742 . S
C1465 C1162 1.814 . S
C1474 C691 1.584 . S
C1476 C1122 1.632 . S
C1487 C1172 1.533 . S
C1485 C571 1.446 . S
C1496 C601 1.546 . S
C1498 C1082 1.579 . S
C1509 C1111 1.753 . S
C1507 C661 1.654 . S
C1520 C1151 1.786 . S
C1518 C541 1.700 . S
C1529 C631 1.848 . S
C1531 C1177 1.819 . S
C1540 C811 1.663 . S
C1542 C1137 1.636 . S
C1551 C841 1.482 . S
C1553 C1191 1.532 . S
C1564 C1097 1.577 . S
C1562 C721 1.451 . S
C1575 C1212 1.753 . S
C1573 C61 1.749 1_455 S
C1584 C151 1.733 . S
C1586 C1252 1.785 . S
C1595 C31 1.739 . S
C1597 C1282 1.816 . S
C1606 C1051 1.587 . S
C1608 C1242 1.635 . S
C1617 C931 1.441 . S
C1619 C1292 1.534 . S
C1628 C961 1.546 . S
C1630 C1202 1.582 . S
C1639 C1021 1.656 . S
C1641 C1231 1.749 . S
C1650 C901 1.700 . S
C1652 C1271 1.785 . S
C1663 C1297 1.818 . S
C1661 C991 1.850 . S
C1672 C91 1.667 . S
C1674 C1257 1.633 . S
C1685 C1311 1.532 . S
C1683 C121 1.486 1_455 S
C1694 C1 1.437 . S
C1696 C1217 1.582 . S
C1707 C1332 1.752 . S
C1705 C421 1.747 . S
C1716 C511 1.728 . S
C1718 C1372 1.785 . S
C1729 C1402 1.816 . S
C1727 C391 1.749 . S
C1740 C1362 1.633 . S
C1738 C331 1.584 . S
C1751 C1412 1.531 . S
C1749 C211 1.448 1_655 S
C1760 C241 1.546 . S
C1762 C1322 1.582 . S
C1771 C301 1.659 1_655 S
C1773 C1351 1.749 . S
C1782 C181 1.697 . S
C1784 C1391 1.785 . S
C1795 C1417 1.819 . S
C1793 C271 1.850 . S
C1804 C451 1.666 . S
C1806 C1377 1.639 . S
C1815 C481 1.485 . S
C1817 C1431 1.531 . S
C1826 C361 1.449 . S
C1828 C1337 1.577 . S
C1837 C920 1.370 . S
C1839 C1109 1.388 . S
C1850 C1149 1.814 . S
C1848 C980 1.844 1_455 S
C1859 C1040 1.513 . S
C1861 C1168 1.575 . S
C1870 C380 1.773 . S
C1872 C1128 1.817 . S
C1881 C440 1.555 . S
C1883 C1189 1.577 . S
C1894 C1088 1.385 . S
C1892 C500 1.384 . S
C1903 C200 1.373 . S
C1905 C1229 1.384 . S
C1914 C260 1.846 . S
C1916 C1269 1.811 . S
C1925 C320 1.511 . S
C1927 C1288 1.577 . S
C1936 C740 1.777 . S
C1938 C1248 1.813 . S
C1949 C1309 1.575 . S
C1947 C800 1.555 . S
C1958 C860 1.389 . S
C1960 C1208 1.385 . S
C1969 C560 1.374 . S
C1971 C1349 1.384 . S
C1980 C620 1.843 . S
C1982 C1389 1.816 . S
C1993 C1408 1.576 . S
C1991 C680 1.511 . S
C2002 C20 1.777 . S
C2004 C1368 1.813 . S
C2013 C80 1.557 . S
C2015 C1429 1.575 . S
C2024 C140 1.391 . S
C2026 C1328 1.388 . S
