# Generated by pormake.
# Topology pyr, (3,6)-cn, num edge types: 1
# Building blocks:
#     Node 0, Type 0, BuildingBlock: BETDAH_clean_linker_0, # of connection points: 3
#     Node 1, Type 0, BuildingBlock: BETDAH_clean_linker_0, # of connection points: 3
#     Node 2, Type 0, BuildingBlock: BETDAH_clean_linker_0, # of connection points: 3
#     Node 3, Type 0, BuildingBlock: BETDAH_clean_linker_0, # of connection points: 3
#     Node 4, Type 0, BuildingBlock: BETDAH_clean_linker_0, # of connection points: 3
#     Node 5, Type 0, BuildingBlock: BETDAH_clean_linker_0, # of connection points: 3
#     Node 6, Type 0, BuildingBlock: BETDAH_clean_linker_0, # of connection points: 3
#     Node 7, Type 0, BuildingBlock: BETDAH_clean_linker_0, # of connection points: 3
#     Node 8, Type 1, BuildingBlock: JUFBIX_clean_sbu_0, # of connection points: 6
#     Node 9, Type 1, BuildingBlock: JUFBIX_clean_sbu_0, # of connection points: 6
#     Node 10, Type 1, BuildingBlock: JUFBIX_clean_sbu_0, # of connection points: 6
#     Node 11, Type 1, BuildingBlock: JUFBIX_clean_sbu_0, # of connection points: 6
#     Edge 12, Type (0, 1), BuildingBlock: EZIPEK_clean_linker_0, # of connection points: 2
#     Edge 13, Type (0, 1), BuildingBlock: EZIPEK_clean_linker_0, # of connection points: 2
#     Edge 14, Type (0, 1), BuildingBlock: EZIPEK_clean_linker_0, # of connection points: 2
#     Edge 15, Type (0, 1), BuildingBlock: EZIPEK_clean_linker_0, # of connection points: 2
#     Edge 16, Type (0, 1), BuildingBlock: EZIPEK_clean_linker_0, # of connection points: 2
#     Edge 17, Type (0, 1), BuildingBlock: EZIPEK_clean_linker_0, # of connection points: 2
#     Edge 18, Type (0, 1), BuildingBlock: EZIPEK_clean_linker_0, # of connection points: 2
#     Edge 19, Type (0, 1), BuildingBlock: EZIPEK_clean_linker_0, # of connection points: 2
#     Edge 20, Type (0, 1), BuildingBlock: EZIPEK_clean_linker_0, # of connection points: 2
#     Edge 21, Type (0, 1), BuildingBlock: EZIPEK_clean_linker_0, # of connection points: 2
#     Edge 22, Type (0, 1), BuildingBlock: EZIPEK_clean_linker_0, # of connection points: 2
#     Edge 23, Type (0, 1), BuildingBlock: EZIPEK_clean_linker_0, # of connection points: 2
#     Edge 24, Type (0, 1), BuildingBlock: EZIPEK_clean_linker_0, # of connection points: 2
#     Edge 25, Type (0, 1), BuildingBlock: EZIPEK_clean_linker_0, # of connection points: 2
#     Edge 26, Type (0, 1), BuildingBlock: EZIPEK_clean_linker_0, # of connection points: 2
#     Edge 27, Type (0, 1), BuildingBlock: EZIPEK_clean_linker_0, # of connection points: 2
#     Edge 28, Type (0, 1), BuildingBlock: EZIPEK_clean_linker_0, # of connection points: 2
#     Edge 29, Type (0, 1), BuildingBlock: EZIPEK_clean_linker_0, # of connection points: 2
#     Edge 30, Type (0, 1), BuildingBlock: EZIPEK_clean_linker_0, # of connection points: 2
#     Edge 31, Type (0, 1), BuildingBlock: EZIPEK_clean_linker_0, # of connection points: 2
#     Edge 32, Type (0, 1), BuildingBlock: EZIPEK_clean_linker_0, # of connection points: 2
#     Edge 33, Type (0, 1), BuildingBlock: EZIPEK_clean_linker_0, # of connection points: 2
#     Edge 34, Type (0, 1), BuildingBlock: EZIPEK_clean_linker_0, # of connection points: 2
#     Edge 35, Type (0, 1), BuildingBlock: EZIPEK_clean_linker_0, # of connection points: 2
# Relax obj value: 0.168
# Max RMSD: 0.213
# Mean RMSD: 0.128
data_MOF--net-pry--node1-JUFBIX_clean_sbu_0--node2-BETDAH_clean_linker_0--edge1-EZIPEK_clean_linker_0
_symmetry_space_group_name_H-M    P1
_symmetry_Int_Tables_number       1
_symmetry_cell_setting            triclinic
loop_
_symmetry_equiv_pos_as_xyz
'x, y, z'
_cell_length_a     26.673572
_cell_length_b     25.170837
_cell_length_c     27.992252
_cell_angle_alpha  83.098702
_cell_angle_beta   88.383399
_cell_angle_gamma 97.211758
loop_
_atom_site_label
_atom_site_type_symbol
_atom_site_fract_x
_atom_site_fract_y
_atom_site_fract_z
_atom_type_partial_charge
H0 H 0.27315 0.10804 0.26745 0.0
H1 H 0.29278 0.25056 0.16272 0.0
H2 H 0.18081 0.23545 0.27836 0.0
C3 C 0.26159 0.14623 0.25285 0.0
C4 C 0.22287 0.1674 0.27794 0.0
C5 C 0.28732 0.17552 0.21045 0.0
C6 C 0.27213 0.22615 0.19327 0.0
C7 C 0.23243 0.2472 0.21623 0.0
C8 C 0.20865 0.21768 0.25868 0.0
N9 N 0.22688 0.3032 0.20477 0.0
C10 C 0.19011 0.32599 0.17668 0.0
H11 H 0.52051 0.84502 0.75732 0.0
H12 H 0.37199 0.84286 0.82242 0.0
H13 H 0.39549 0.73313 0.72097 0.0
C14 C 0.48127 0.82732 0.76256 0.0
C15 C 0.46223 0.78525 0.73652 0.0
C16 C 0.44879 0.84699 0.79472 0.0
C17 C 0.39765 0.82568 0.79967 0.0
C18 C 0.37848 0.7848 0.77308 0.0
C19 C 0.41098 0.76361 0.74271 0.0
N20 N 0.32579 0.77385 0.76864 0.0
C21 C 0.30233 0.81537 0.74587 0.0
H22 H 0.7677 0.35464 0.99196 0.0
H23 H 0.77092 0.5104 0.91279 0.0
H24 H 0.64026 0.39404 0.9093 0.0
C25 C 0.747 0.3831 0.97172 0.0
C26 C 0.69514 0.37034 0.96186 0.0
C27 C 0.77379 0.43414 0.95588 0.0
C28 C 0.75105 0.47049 0.92465 0.0
C29 C 0.70409 0.4552 0.9065 0.0
C30 C 0.67658 0.40481 0.92412 0.0
N31 N 0.68346 0.49427 0.87484 0.0
C32 C 0.65988 0.48495 0.83244 0.0
H33 H 0.95146 0.74534 0.53455 0.0
H34 H 0.08844 0.68615 0.49218 0.0
H35 H 0.94401 0.59382 0.47702 0.0
C36 C 0.97037 0.71407 0.52106 0.0
C37 C 0.94154 0.66805 0.50802 0.0
C38 C 1.02319 0.7214 0.51433 0.0
C39 C 0.04762 0.68064 0.49751 0.0
C40 C 1.0191 0.63489 0.48364 0.0
C41 C 0.96607 0.62878 0.48862 0.0
N42 N 0.04384 0.59769 0.46079 0.0
C43 C 0.03299 0.58959 0.41384 0.0
H44 H 0.98928 0.8666 0.85408 0.0
H45 H 0.86038 0.85987 0.95051 0.0
H46 H 0.87502 0.96975 0.82072 0.0
C47 C 0.957 0.88523 0.86434 0.0
C48 C 0.94256 0.93066 0.83487 0.0
C49 C 0.92878 0.8603 0.90657 0.0
C50 C 0.88308 0.87961 0.91917 0.0
C51 C 0.86438 0.9207 0.88853 0.0
C52 C 0.89321 0.94336 0.84599 0.0
N53 N 0.813 0.93222 0.89319 0.0
C54 C 0.78653 0.94806 0.93248 0.0
H55 H 0.7503 0.17401 0.36172 0.0
H56 H 0.74958 0.20911 0.50809 0.0
H57 H 0.63116 0.2534 0.41619 0.0
C58 C 0.73396 0.19264 0.39044 0.0
C59 C 0.68797 0.21331 0.3842 0.0
C60 C 0.75581 0.18986 0.43529 0.0
C61 C 0.73342 0.2119 0.4729 0.0
C62 C 0.68999 0.23705 0.46576 0.0
C63 C 0.66694 0.23777 0.42112 0.0
N64 N 0.6688 0.25777 0.50536 0.0
C65 C 0.63508 0.29546 0.50112 0.0
H66 H 0.33773 0.7835 0.12198 0.0
H67 H 0.27979 0.64954 0.22698 0.0
H68 H 0.41905 0.74765 0.25017 0.0
C69 C 0.34121 0.75864 0.15585 0.0
C70 C 0.38238 0.77096 0.18463 0.0
C71 C 0.30441 0.71452 0.17071 0.0
C72 C 0.30857 0.68328 0.21506 0.0
C73 C 0.34951 0.6947 0.24418 0.0
C74 C 0.38719 0.73811 0.22833 0.0
N75 N 0.34975 0.66238 0.28949 0.0
C76 C 0.38872 0.66182 0.32167 0.0
H77 H 0.16941 0.36643 0.59113 0.0
H78 H 0.11138 0.5003 0.6452 0.0
H79 H 1.01092 0.35622 0.62922 0.0
C80 C 0.13759 0.38526 0.60292 0.0
C81 C 0.08905 0.35624 0.60684 0.0
C82 C 0.14577 0.43722 0.61669 0.0
C83 C 0.10479 0.46053 0.63362 0.0
C84 C 0.05607 0.43114 0.63873 0.0
C85 C 0.04812 0.37953 0.62413 0.0
N86 N 1.0164 0.45025 0.66372 0.0
C87 C 1.02671 0.47598 0.70419 0.0
Co88 Co 0.04836 0.03716 0.54077 0.0
C89 C 0.08444 0.9403 0.54056 0.0
Co90 Co 0.12359 0.03899 0.57006 0.0
C91 C 0.96467 0.07526 0.49084 0.0
C92 C 0.94476 0.999 0.53434 0.0
N93 N 0.98444 0.03622 0.51848 0.0
N94 N 0.91387 0.06482 0.49068 0.0
C95 C 0.90124 0.01676 0.51767 0.0
H96 H 0.98653 0.11235 0.47418 0.0
H97 H 0.94703 0.9628 0.55884 0.0
C98 C 0.08584 0.13528 0.57041 0.0
N99 N 0.18641 0.03702 0.595 0.0
C100 C 0.19796 0.99418 0.62402 0.0
C101 C 0.22903 0.07275 0.59061 0.0
N102 N 0.24563 1.00118 0.63788 0.0
C103 C 0.26599 0.0505 0.6172 0.0
C104 C 0.12698 0.07177 0.46887 0.0
O105 O 0.04791 0.10932 0.55355 0.0
O106 O 0.12481 0.11237 0.5801 0.0
O107 O 0.15403 0.06178 0.50506 0.0
O108 O 0.07883 0.06372 0.47593 0.0
O109 O 0.12164 0.96442 0.55997 0.0
H110 H 0.23305 0.11194 0.56924 0.0
H111 H 0.17219 0.95764 0.63429 0.0
O112 O 0.04795 0.96551 0.52791 0.0
O113 O 1.01857 0.01112 0.60607 0.0
O114 O 0.09334 0.01746 0.6352 0.0
C115 C 0.04567 0.00667 0.64277 0.0
H116 H 0.86301 0.99716 0.5263 0.0
H117 H 0.30461 0.06841 0.62046 0.0
Co118 Co 0.52187 0.06159 0.03891 0.0
C119 C 0.50404 0.97168 0.10847 0.0
Co120 Co 0.56357 0.07072 0.1044 0.0
C121 C 0.50338 0.02872 0.94509 0.0
C122 C 0.43604 0.04807 0.97845 0.0
N123 N 0.48655 0.05065 0.98337 0.0
N124 N 0.46549 0.01061 0.91818 0.0
C125 C 0.42302 0.02318 0.93853 0.0
H126 H 0.54167 0.02031 0.93942 0.0
H127 H 0.40947 0.05833 1.00461 0.0
C128 C 0.58165 0.16069 0.0347 0.0
N129 N 0.59808 0.08018 0.15886 0.0
C130 C 0.59949 0.12278 0.18391 0.0
C131 C 0.62617 0.04594 0.18322 0.0
N132 N 0.62739 0.11639 0.22284 0.0
C133 C 0.64414 0.06816 0.22295 0.0
C134 C 0.62022 0.02739 0.03501 0.0
O135 O 0.55013 0.13329 1.01087 0.0
O136 O 0.59202 0.14041 0.07646 0.0
O137 O 0.62121 0.04062 0.07752 0.0
O138 O 0.58046 0.0333 1.0119 0.0
O139 O 0.53402 1.00016 0.13271 0.0
H140 H 0.63224 0.00696 0.17324 0.0
H141 H 0.57955 0.15722 0.17452 0.0
O142 O 0.49434 0.99055 0.06614 0.0
O143 O 0.46335 0.08962 0.06871 0.0
O144 O 0.50709 0.10141 0.13152 0.0
C145 C 0.46552 0.10454 0.11085 0.0
H146 H 0.38503 0.01055 0.92805 0.0
H147 H 0.66655 0.04991 0.25048 0.0
Co148 Co 0.57861 0.59002 0.55352 0.0
C149 C 0.49938 0.6044 0.49043 0.0
Co150 Co 0.50267 0.55284 0.5826 0.0
C151 C 0.68645 0.63216 0.54384 0.0
C152 C 0.65324 0.61622 0.47741 0.0
N153 N 0.64166 0.61732 0.52458 0.0
N154 N 0.7251 0.63937 0.51043 0.0
C155 C 0.70428 0.62981 0.46868 0.0
H156 H 0.69117 0.63446 0.58185 0.0
H157 H 0.6268 0.60297 0.45136 0.0
C158 C 0.5802 0.53841 0.64636 0.0
N159 N 0.44025 0.52195 0.60971 0.0
C160 C 0.39397 0.53665 0.60145 0.0
C161 C 0.43142 0.47407 0.63801 0.0
N162 N 0.35697 0.49898 0.62251 0.0
C163 C 0.3803 0.4599 0.64589 0.0
C164 C 0.552 0.48338 0.53689 0.0
O165 O 0.60876 0.56599 0.61263 0.0
O166 O 0.53343 0.52745 0.63965 0.0
O167 O 0.51 0.48768 0.5574 0.0
O168 O 0.58628 0.52354 0.53106 0.0
O169 O 0.47202 0.57824 0.5254 0.0
H170 H 0.46017 0.44971 0.65043 0.0
H171 H 0.38734 0.57263 0.57847 0.0
O172 O 0.54687 0.61383 0.49484 0.0
O173 O 0.57118 0.65615 0.57744 0.0
O174 O 0.4963 0.61815 0.60829 0.0
C175 C 0.53121 0.65813 0.60278 0.0
H176 H 0.725 0.63033 0.43476 0.0
H177 H 0.36146 0.42284 0.66571 0.0
Co178 Co 0.06743 0.58218 1.00748 0.0
C179 C 0.96864 0.52894 1.01662 0.0
Co180 Co 0.02959 0.58676 0.07707 0.0
C181 C 0.08237 0.54649 0.91516 0.0
C182 C 0.12806 0.62151 0.92064 0.0
N183 N 0.09693 0.5813 0.94676 0.0
N184 N 0.10158 0.5642 0.87037 0.0
C185 C 0.13094 0.61108 0.87344 0.0
H186 H 0.05484 0.51092 0.92361 0.0
H187 H 0.14403 0.65825 0.93399 0.0
C188 C 0.12865 0.63851 0.06875 0.0
N189 N 0.99903 0.58768 0.1369 0.0
C190 C 1.0207 0.58213 0.17986 0.0
C191 C 0.95092 0.59541 0.14722 0.0
N192 N 0.98811 0.5864 0.21637 0.0
C193 C 0.94412 0.59476 0.19629 0.0
C194 C 0.08578 0.49618 0.07526 0.0
O195 O 0.12782 0.62304 1.02707 0.0
O196 O 0.08877 0.6287 0.09589 0.0
O197 O 0.05854 0.52073 0.10148 0.0
O198 O 0.09324 0.5159 0.0312 0.0
O199 O 0.96985 0.54495 0.058 0.0
H200 H 0.9229 0.60198 0.12069 0.0
H201 H 0.05989 0.57624 0.1843 0.0
O202 O 1.00813 0.54063 0.9895 0.0
O203 O 0.04021 0.64888 0.98315 0.0
O204 O 1.00166 0.65242 0.05238 0.0
C205 C 1.01176 0.67269 1.00866 0.0
H206 H 0.14959 0.63774 0.84317 0.0
H207 H 0.91009 0.60104 0.21566 0.0
C208 C 0.21652 0.16023 0.36996 0.0
C209 C 0.19993 0.14012 0.32686 0.0
C210 C 0.13828 0.07189 0.37685 0.0
C211 C 0.15172 0.0953 0.41953 0.0
N212 N 0.19733 0.16983 0.45359 0.0
N213 N 0.14018 0.08068 0.28903 0.0
C214 C 0.18936 0.14149 0.41517 0.0
C215 C 0.15947 0.09695 0.33037 0.0
N216 N 0.25917 0.19685 0.36794 0.0
N217 N 0.1067 0.0243 0.38071 0.0
H218 H 0.15543 0.09684 0.25486 0.0
H219 H 0.10703 0.05414 0.28836 0.0
H220 H 0.09043 1.00477 0.41343 0.0
H221 H 0.09993 1.00176 0.35218 0.0
H222 H 0.27676 0.20858 0.39844 0.0
H223 H 0.27973 0.21181 0.33586 0.0
H224 H 0.21983 0.20705 0.45131 0.0
H225 H 0.17741 0.15927 0.48661 0.0
C226 C 0.45836 0.94534 0.8043 0.0
C227 C 0.46596 0.89193 0.82238 0.0
C228 C 0.47501 0.91751 0.90345 0.0
C229 C 0.468 0.97111 0.88542 0.0
N230 N 0.46242 0.03912 0.8188 0.0
N231 N 0.49333 0.82986 0.88539 0.0
C232 C 0.4628 0.98598 0.83568 0.0
C233 C 0.47859 0.8791 0.87077 0.0
N234 N 0.44479 0.95642 0.75779 0.0
N235 N 0.47503 0.90259 0.95205 0.0
H236 H 0.49586 0.80087 0.86202 0.0
H237 H 0.50751 0.81969 0.91907 0.0
H238 H 0.4706 0.92909 0.97726 0.0
H239 H 0.47492 0.8629 0.96769 0.0
H240 H 0.43285 0.99275 0.7439 0.0
H241 H 0.44337 0.92802 0.73343 0.0
H242 H 0.46323 0.05381 0.78237 0.0
H243 H 0.46502 0.0692 0.84157 0.0
C244 C 0.66445 0.48241 0.74364 0.0
C245 C 0.63679 0.48955 0.78589 0.0
C246 C 0.57394 0.53069 0.73703 0.0
C247 C 0.59991 0.52108 0.6943 0.0
N248 N 0.66324 0.47615 0.65782 0.0
N249 N 0.55959 0.50769 0.82338 0.0
C250 C 0.64339 0.49362 0.69779 0.0
C251 C 0.58958 0.5093 0.78267 0.0
N252 N 0.71127 0.466 0.74727 0.0
N253 N 0.5364 0.56316 0.73444 0.0
H254 H 0.57015 0.49235 0.85741 0.0
H255 H 0.52242 0.5164 0.82276 0.0
H256 H 0.52481 0.58202 0.70224 0.0
H257 H 0.52034 0.57629 0.76455 0.0
H258 H 0.73591 0.46622 0.71768 0.0
H259 H 0.72664 0.45509 0.78036 0.0
H260 H 0.69191 0.45156 0.65898 0.0
H261 H 0.64783 0.48174 0.62404 0.0
C262 C 0.04091 0.63292 0.32952 0.0
C263 C 1.02224 0.58789 0.36357 0.0
C264 C 0.98374 0.54057 0.29953 0.0
C265 C 0.99948 0.58689 0.26616 0.0
N266 N 0.03664 0.67939 0.24879 0.0
N267 N 0.97132 0.5015 0.38336 0.0
C268 C 1.02646 0.63371 0.281 0.0
C269 C 0.99231 0.54235 0.34928 0.0
N270 N 0.07306 0.67445 0.34349 0.0
N271 N 0.9619 0.49458 0.28308 0.0
H272 H 0.97786 0.50114 0.41997 0.0
H273 H 0.94496 0.46975 0.37595 0.0
H274 H 0.95511 0.49267 0.24675 0.0
H275 H 0.95379 0.45754 0.30449 0.0
H276 H 0.09217 0.70577 0.31956 0.0
H277 H 0.08352 0.67587 0.379 0.0
H278 H 0.0517 0.71675 0.25806 0.0
H279 H 1.02641 0.68089 0.21301 0.0
C280 C 0.33399 0.15236 0.13494 0.0
C281 C 0.33246 0.15581 0.18543 0.0
C282 C 0.41473 0.11922 0.18857 0.0
C283 C 0.41988 0.12307 0.13682 0.0
N284 N 0.3872 0.16144 0.06221 0.0
N285 N 0.38111 0.15683 0.25671 0.0
C286 C 0.3802 0.14463 0.11042 0.0
C287 C 0.37569 0.14345 0.21111 0.0
N288 N 0.29097 0.15528 0.11002 0.0
N289 N 0.44502 0.09048 0.21736 0.0
H290 H 0.35516 0.17672 0.27387 0.0
H291 H 0.4143 0.15393 0.27511 0.0
H292 H 0.47187 0.06836 0.20496 0.0
H293 H 0.4389 0.08279 0.25464 0.0
H294 H 0.28881 0.14806 0.07418 0.0
H295 H 0.25624 0.15887 0.12656 0.0
H296 H 0.36097 0.18119 0.04242 0.0
H297 H 0.42169 0.163 0.04342 0.0
C298 C 0.26487 0.90079 0.74254 0.0
C299 C 0.28951 0.86402 0.71876 0.0
C300 C 0.29275 0.92336 0.64249 0.0
C301 C 0.26858 0.96034 0.66622 0.0
N302 N 0.23683 0.98964 0.73809 0.0
N303 N 0.33414 0.84258 0.64879 0.0
C304 C 0.25655 0.95067 0.71629 0.0
C305 C 0.30582 0.87609 0.66953 0.0
N306 N 0.24852 0.88727 0.78971 0.0
N307 N 0.30049 0.93234 0.59357 0.0
H308 H 0.34248 0.8062 0.66674 0.0
H309 H 0.35191 0.85209 0.61472 0.0
H310 H 0.29249 0.96747 0.57312 0.0
H311 H 0.31221 0.90414 0.57283 0.0
H312 H 0.22667 0.91003 0.80843 0.0
H313 H 0.25469 0.85121 0.80988 0.0
H314 H 0.22965 0.98763 0.77501 0.0
H315 H 0.23064 0.0263 0.71896 0.0
C316 C 0.83501 0.45364 1.02127 0.0
C317 C 0.82582 0.45074 0.97196 0.0
C318 C 0.91048 0.49896 0.95004 0.0
C319 C 0.92147 0.49814 1.00003 0.0
N320 N 0.89864 0.45277 0.08061 0.0
N321 N 0.86148 0.45396 0.89152 0.0
C322 C 0.88514 0.46877 0.03494 0.0
C323 C 0.86586 0.46776 0.93711 0.0
N324 N 0.79603 0.44426 0.05513 0.0
N325 N 0.93983 0.53143 0.91448 0.0
H326 H 0.8297 0.43018 0.88116 0.0
H327 H 0.89156 0.46089 0.866 0.0
H328 H 0.97133 0.55823 0.91985 0.0
H329 H 0.92925 0.53651 0.87881 0.0
H330 H 0.8009 0.45082 0.09089 0.0
H331 H 0.75833 0.43554 0.04668 0.0
H332 H 0.8739 0.42815 0.10594 0.0
H333 H 0.936 0.45722 0.09091 0.0
C334 C 0.85918 0.70006 0.48382 0.0
C335 C 0.88538 0.66268 0.51214 0.0
C336 C 0.80451 0.61061 0.54244 0.0
C337 C 0.77862 0.65003 0.51669 0.0
N338 N 0.78058 0.738 0.47241 0.0
N339 N 0.88312 0.58977 0.57693 0.0
C340 C 0.80594 0.69675 0.49059 0.0
C341 C 0.85806 0.62021 0.54421 0.0
N342 N 0.88461 0.73676 0.44865 0.0
N343 N 0.77841 0.56271 0.56278 0.0
H344 H 0.92229 0.59611 0.57966 0.0
H345 H 0.86467 0.56177 0.60425 0.0
H346 H 0.73934 0.55363 0.56124 0.0
H347 H 0.79598 0.53022 0.57755 0.0
H348 H 0.86652 0.76128 0.42389 0.0
H349 H 0.92338 0.73922 0.44104 0.0
H350 H 0.79866 0.77535 0.45668 0.0
H351 H 0.74148 0.73647 0.47759 0.0
C352 C 0.17761 0.38651 0.10111 0.0
C353 C 0.15942 0.36224 0.14766 0.0
C354 C 0.08641 0.4136 0.13892 0.0
C355 C 0.10959 0.44639 0.09674 0.0
N356 N 0.18289 0.46301 0.03969 0.0
N357 N 0.09772 0.35603 0.21301 0.0
C358 C 0.15639 0.43219 0.07798 0.0
C359 C 0.11422 0.37686 0.16716 0.0
N360 N 0.21523 0.36548 0.07839 0.0
N361 N 0.03648 0.41457 0.15053 0.0
H362 H 0.11572 0.32745 0.23384 0.0
H363 H 0.06842 0.36997 0.23133 0.0
H364 H 1.01306 0.43553 0.12821 0.0
H365 H 1.01664 0.38866 0.17849 0.0
H366 H 0.22617 0.37667 0.04218 0.0
H367 H 0.23191 0.33278 0.09435 0.0
H368 H 0.22017 0.45895 0.03033 0.0
H369 H 0.17075 0.49539 1.0189 0.0
C370 C 0.60846 0.31127 0.98403 0.0
C371 C 0.66197 0.32045 0.98821 0.0
C372 C 0.66049 0.22704 1.02415 0.0
C373 C 0.60854 0.21502 1.01477 0.0
N374 N 0.53183 0.24758 0.98593 0.0
N375 N 0.71606 0.29657 0.05293 0.0
C376 C 0.58209 0.2576 0.99444 0.0
C377 C 0.68279 0.28125 1.01955 0.0
N378 N 0.58192 0.35447 0.97927 0.0
N379 N 0.68926 0.18707 0.03774 0.0
H380 H 0.72317 0.3367 0.05953 0.0
H381 H 0.72906 0.26885 0.07895 0.0
H382 H 0.67595 0.14617 0.03887 0.0
H383 H 0.72799 0.19545 0.0426 0.0
H384 H 0.54261 0.35125 0.98016 0.0
H385 H 0.59913 0.3935 0.98202 0.0
H386 H 0.51263 0.27501 0.9652 0.0
H387 H 0.50961 0.21102 0.99736 0.0
C388 C 0.05105 0.78864 0.56965 0.0
C389 C 0.05155 0.77384 0.52248 0.0
C390 C 0.09084 0.86515 0.49121 0.0
C391 C 0.08065 0.88205 0.53646 0.0
N392 N 0.04571 0.8611 0.61797 0.0
N393 N 0.06829 0.79913 0.43679 0.0
C394 C 0.06003 0.84402 0.5758 0.0
C395 C 0.0713 0.8121 0.48276 0.0
N396 N 0.04123 0.74972 0.60835 0.0
N397 N 0.11883 0.89998 0.45639 0.0
H398 H 0.05369 0.76105 0.42871 0.0
H399 H 0.07675 0.82737 0.40637 0.0
H400 H 0.13403 0.93882 0.46223 0.0
H401 H 0.13111 0.88865 0.42389 0.0
H402 H 0.04461 0.75771 0.64386 0.0
H403 H 0.03467 0.70867 0.60462 0.0
H404 H 1.02566 0.83578 0.64617 0.0
H405 H 0.04987 0.90165 0.62295 0.0
C406 C 0.52969 0.73117 0.71158 0.0
C407 C 0.49332 0.76626 0.69882 0.0
C408 C 0.49174 0.74009 0.61748 0.0
C409 C 0.52674 0.70366 0.63065 0.0
N410 N 0.59144 0.67755 0.68382 0.0
N411 N 0.45373 0.81812 0.63625 0.0
C412 C 0.55025 0.704 0.67548 0.0
C413 C 0.47932 0.7756 0.65036 0.0
N414 N 0.54195 0.72091 0.75856 0.0
N415 N 0.46868 0.73899 0.5746 0.0
H416 H 0.44494 0.84506 0.65987 0.0
H417 H 0.44589 0.82966 0.60054 0.0
H418 H 0.47787 0.71408 0.54939 0.0
H419 H 0.4386 0.76031 0.56538 0.0
H420 H 0.56329 0.69053 0.7709 0.0
H421 H 0.52809 0.74052 0.7859 0.0
H422 H 0.61258 0.67999 0.71437 0.0
H423 H 0.60726 0.65719 0.65809 0.0
C424 C 1.02397 0.94585 0.77758 0.0
C425 C 0.97541 0.95961 0.78973 0.0
C426 C 0.98069 0.01671 0.71017 0.0
C427 C 1.02216 0.99147 0.69398 0.0
N428 N 0.082 0.92833 0.71561 0.0
N429 N 0.93739 0.04171 0.77955 0.0
C430 C 0.04351 0.95525 0.72869 0.0
C431 C 0.961 1.00433 0.75922 0.0
N432 N 0.05579 0.93357 0.81339 0.0
N433 N 0.96086 0.05441 0.67969 0.0
H434 H 0.93355 0.04083 0.81685 0.0
H435 H 0.92976 0.07786 0.7607 0.0
H436 H 0.97778 0.0714 0.64647 0.0
H437 H 0.92639 0.06776 0.68728 0.0
H438 H 0.09335 0.92809 0.80679 0.0
H439 H 0.04718 0.93822 0.84914 0.0
H440 H 0.09481 0.8977 0.73872 0.0
H441 H 0.09809 0.93282 0.68094 0.0
C442 C 0.62149 0.15489 0.34648 0.0
C443 C 0.65943 0.20047 0.34166 0.0
C444 C 0.66836 0.19709 0.25497 0.0
C445 C 0.63257 0.15014 0.26053 0.0
N446 N 0.56381 0.09451 0.30599 0.0
N447 N 0.70861 0.27368 0.29125 0.0
C448 C 0.60512 0.13276 0.30456 0.0
C449 C 0.67903 0.22482 0.29555 0.0
N450 N 0.60417 0.13002 0.39106 0.0
N451 N 0.69395 0.21303 0.21167 0.0
H452 H 0.71647 0.29433 0.32093 0.0
H453 H 0.72151 0.29564 0.25837 0.0
H454 H 0.68625 0.19335 0.18144 0.0
H455 H 0.72428 0.24375 0.20622 0.0
H456 H 0.58159 0.09277 0.39663 0.0
H457 H 0.61466 0.14474 0.42301 0.0
H458 H 0.53915 0.08343 0.33604 0.0
H459 H 0.55159 0.07767 0.27535 0.0
C460 C 0.41822 0.59318 0.38157 0.0
C461 C 0.42115 0.64803 0.36131 0.0
C462 C 0.47843 0.67497 0.4241 0.0
C463 C 0.47602 0.61985 0.44385 0.0
N464 N 0.45344 0.5258 0.43506 0.0
N465 N 0.45789 0.74066 0.35884 0.0
C466 C 0.44868 0.57879 0.42074 0.0
C467 C 0.45265 0.68879 0.38114 0.0
N468 N 0.38492 0.55478 0.36441 0.0
N469 N 0.50339 0.71424 0.44761 0.0
H470 H 0.43745 0.75237 0.32908 0.0
H471 H 0.48432 0.77148 0.36784 0.0
H472 H 0.52411 0.7058 0.47796 0.0
H473 H 0.50166 0.75529 0.43883 0.0
H474 H 0.37584 0.51563 0.38177 0.0
H475 H 0.36349 0.56279 0.33442 0.0
H476 H 0.43931 0.49428 0.4163 0.0
H477 H 0.47572 0.51346 0.46322 0.0
C478 C 0.07505 0.46914 0.77817 0.0
C479 C 0.04436 0.49837 0.74693 0.0
C480 C 0.0487 0.56971 0.79929 0.0
C481 C 0.08384 0.54336 0.82744 0.0
N482 N 0.13563 0.47224 0.8412 0.0
N483 N 1.00644 0.57907 0.72368 0.0
C484 C 0.09847 0.49418 0.81611 0.0
C485 C 0.03253 0.54954 0.75621 0.0
N486 N 0.08062 0.41698 0.77241 0.0
N487 N 0.02894 0.61232 0.81507 0.0
H488 H 0.99277 0.56469 0.69244 0.0
H489 H 1.00146 0.61908 0.72596 0.0
H490 H 0.03903 0.6272 0.84712 0.0
H491 H 0.99929 0.62974 0.7988 0.0
H492 H 0.09843 0.39189 0.7969 0.0
H493 H 0.06411 0.39729 0.7449 0.0
H494 H 0.15191 0.43928 0.83171 0.0
H495 H 0.15313 0.49003 0.8693 0.0
C496 C 0.72244 0.93795 1.00315 0.0
C497 C 0.74866 0.96997 0.96253 0.0
C498 C 0.69134 0.03944 0.96965 0.0
C499 C 0.66584 0.00824 1.01129 0.0
N500 N 0.66277 0.93119 0.07195 0.0
N501 N 0.7642 0.05564 0.91282 0.0
C502 C 0.68338 0.95866 0.02943 0.0
C503 C 0.73481 0.02202 0.9476 0.0
N504 N 0.73382 0.88683 1.01576 0.0
N505 N 0.67375 0.08583 0.95062 0.0
H506 H 0.79585 0.04436 0.89586 0.0
H507 H 0.76013 0.09613 0.9036 0.0
H508 H 0.64486 0.10231 0.96711 0.0
H509 H 0.6858 0.10669 0.91707 0.0
H510 H 0.71267 0.85856 0.04109 0.0
H511 H 0.76314 0.87151 0.99862 0.0
H512 H 0.67703 0.89815 0.09007 0.0
H513 H 0.63316 0.94357 0.0911 0.0
C514 C 0.8438 0.18506 0.46343 0.0
C515 C 0.79958 0.15969 0.4444 0.0
C516 C 0.83953 0.07781 0.4433 0.0
C517 C 0.8787 0.09947 0.47102 0.0
N518 N 0.91167 0.171 0.51666 0.0
N519 N 0.75144 0.07654 0.42649 0.0
C520 C 0.87959 0.15265 0.48335 0.0
C521 C 0.79631 0.10458 0.43672 0.0
N522 N 0.85178 0.23987 0.46231 0.0
N523 N 0.84376 0.03164 0.42332 0.0
H524 H 0.71747 0.09297 0.42522 0.0
H525 H 0.74693 0.03508 0.4248 0.0
H526 H 0.87612 0.01228 0.42629 0.0
H527 H 0.8178 0.01643 0.39961 0.0
H528 H 0.88558 0.26031 0.47226 0.0
H529 H 0.82693 0.26503 0.44661 0.0
H530 H 0.91028 0.20799 0.52954 0.0
H531 H 0.9354 0.1471 0.53565 0.0
C532 C 0.26246 0.65275 0.11564 0.0
C533 C 0.26202 0.69936 0.13933 0.0
C534 C 0.17983 0.71302 0.10575 0.0
C535 C 0.17682 0.66205 0.08842 0.0
N536 N 0.21273 0.57923 0.08395 0.0
N537 N 0.21835 0.77189 0.16091 0.0
C538 C 0.21772 0.63101 0.09476 0.0
C539 C 0.22027 0.72925 0.13526 0.0
N540 N 0.30588 0.62944 0.11272 0.0
N541 N 0.14475 0.74653 0.09275 0.0
H542 H 0.24742 0.78523 0.18247 0.0
H543 H 0.18643 0.79147 0.16365 0.0
H544 H 0.11629 0.73637 0.06946 0.0
H545 H 0.14703 0.78613 0.10064 0.0
H546 H 0.30996 0.59874 0.0916 0.0
H547 H 0.33944 0.64427 0.12761 0.0
H548 H 0.23882 0.5526 0.09311 0.0
H549 H 0.18015 0.5612 0.07 0.0
C550 C 0.22729 0.47813 0.57311 0.0
C551 C 0.19836 0.46457 0.61714 0.0
C552 C 0.27283 0.49355 0.66107 0.0
C553 C 0.3032 0.49663 0.61848 0.0
N554 N 0.31046 0.48666 0.53401 0.0
N555 N 0.19519 0.45321 0.70436 0.0
C556 C 0.28078 0.48846 0.57419 0.0
C557 C 0.22127 0.47145 0.66161 0.0
N558 N 0.20358 0.48085 0.53042 0.0
N559 N 0.29396 0.51102 0.70116 0.0
H560 H 0.15814 0.4341 0.70657 0.0
H561 H 0.21179 0.45244 0.73763 0.0
H562 H 0.3319 0.52749 0.70112 0.0
H563 H 0.27296 0.51419 0.73241 0.0
H564 H 0.22236 0.49517 0.49737 0.0
H565 H 0.1643 0.47381 0.52867 0.0
H566 H 0.29611 0.47492 0.50212 0.0
H567 H 0.34982 0.49258 0.53357 0.0
C568 C 0.97509 0.81758 0.97737 0.0
C569 C 0.94637 0.81148 0.93574 0.0
C570 C 0.95545 0.71395 0.946 0.0
C571 C 0.98696 0.72043 0.98574 0.0
N572 N 1.01767 0.77627 0.04553 0.0
N573 N 0.91283 0.7546 0.87786 0.0
C574 C 0.99402 0.77171 1.00328 0.0
C575 C 0.93755 0.75977 0.91952 0.0
N576 N 0.98632 0.86807 0.99076 0.0
N577 N 0.93921 0.66298 0.93595 0.0
H578 H 0.89644 0.78593 0.85914 0.0
H579 H 0.9111 0.72042 0.86011 0.0
H580 H 0.94815 0.62874 0.95695 0.0
H581 H 0.91251 0.65405 0.91074 0.0
H582 H 1.01166 0.87758 1.01694 0.0
H583 H 0.97229 0.90188 0.97354 0.0
H584 H 1.02006 0.81036 0.06336 0.0
H585 H 0.03197 0.74419 0.06515 0.0
C586 C 0.45566 0.82106 0.13191 0.0
C587 C 0.41857 0.82056 0.16949 0.0
C588 C 0.43745 0.91873 0.16659 0.0
C589 C 0.47633 0.91921 0.13076 0.0
N590 N 0.52658 0.87113 0.08235 0.0
N591 N 0.37971 0.86696 0.22835 0.0
C592 C 0.48668 0.87035 0.11431 0.0
C593 C 0.41161 0.86876 0.18889 0.0
N594 N 0.46028 0.77457 0.11238 0.0
N595 N 0.42244 0.96626 0.17666 0.0
H596 H 0.35782 0.83175 0.2443 0.0
H597 H 0.3778 0.89959 0.24765 0.0
H598 H 0.43868 1.00346 0.15923 0.0
H599 H 0.39071 0.96884 0.19837 0.0
H600 H 0.48204 0.77299 0.08127 0.0
H601 H 0.44021 0.73735 0.1262 0.0
H602 H 0.53966 0.83663 0.07241 0.0
H603 H 0.54893 0.9067 0.06779 0.0
C604 C 0.07589 0.28576 0.55081 0.0
C605 C 0.08293 0.29895 0.59817 0.0
C606 C 0.08483 0.20368 0.62805 0.0
C607 C 0.0838 0.19142 0.57991 0.0
N608 N 0.08276 0.22051 0.49462 0.0
N609 N 0.0988 0.27241 0.68156 0.0
C610 C 0.08006 0.2323 0.541 0.0
C611 C 0.08851 0.2584 0.63679 0.0
N612 N 0.06471 0.32432 0.51544 0.0
N613 N 0.08029 0.16284 0.66548 0.0
H614 H 0.09994 0.3118 0.68999 0.0
H615 H 0.1095 0.24571 0.70962 0.0
H616 H 0.07712 0.12217 0.66054 0.0
H617 H 0.07509 0.16881 0.70135 0.0
H618 H 0.05392 0.31617 0.48135 0.0
H619 H 0.06223 0.36406 0.52142 0.0
H620 H 0.08599 0.24959 0.46456 0.0
H621 H 0.08561 0.18184 0.48594 0.0
C622 C 0.60972 0.38371 0.46881 0.0
C623 C 0.60367 0.33774 0.50392 0.0
C624 C 0.55847 0.38484 0.55889 0.0
C625 C 0.56346 0.43105 0.5236 0.0
N626 N 0.58229 0.46996 0.44099 0.0
N627 N 0.55977 0.28832 0.57497 0.0
C628 C 0.58529 0.42895 0.47711 0.0
C629 C 0.57331 0.33614 0.54626 0.0
N630 N 0.64042 0.38498 0.42867 0.0
N631 N 0.5443 0.38839 0.60561 0.0
H632 H 0.57058 0.25197 0.56654 0.0
H633 H 0.53377 0.28396 0.60412 0.0
H634 H 0.53668 0.42404 0.6179 0.0
H635 H 0.54546 0.35723 0.63348 0.0
H636 H 0.65113 0.41968 0.40457 0.0
H637 H 0.65759 0.35181 0.42093 0.0
H638 H 0.59348 0.46848 0.40529 0.0
H639 H 0.56423 0.50346 0.44587 0.0
loop_
_geom_bond_atom_site_label_1
_geom_bond_atom_site_label_2
_geom_bond_distance
_geom_bond_site_symmetry_2
_ccdc_geom_bond_type
H0 C3 0.929 . S
H1 C6 0.929 . S
H2 C8 0.930 . S
C3 H0 0.929 . S
C3 C4 1.398 . S
C3 C5 1.396 . S
C4 C3 1.398 . S
C4 C8 1.407 . S
C5 C3 1.396 . S
C5 C6 1.394 . S
C6 H1 0.929 . S
C6 C5 1.394 . S
C6 C7 1.382 . S
C7 C6 1.382 . S
C7 C8 1.392 . S
C7 N9 1.420 . S
C8 H2 0.930 . S
C8 C4 1.407 . S
C8 C7 1.392 . S
N9 C7 1.420 . S
N9 C10 1.244 . S
C10 N9 1.244 . S
H11 C14 0.929 . S
H12 C17 0.929 . S
H13 C19 0.930 . S
C14 H11 0.929 . S
C14 C15 1.398 . S
C14 C16 1.396 . S
C15 C14 1.398 . S
C15 C19 1.407 . S
C16 C14 1.396 . S
C16 C17 1.394 . S
C17 H12 0.929 . S
C17 C16 1.394 . S
C17 C18 1.382 . S
C18 C17 1.382 . S
C18 C19 1.392 . S
C18 N20 1.420 . S
C19 H13 0.930 . S
C19 C15 1.407 . S
C19 C18 1.392 . S
N20 C18 1.420 . S
N20 C21 1.244 . S
C21 N20 1.244 . S
H22 C25 0.929 1_554 S
H23 C28 0.929 . S
H24 C30 0.930 . S
C25 H22 0.929 1_556 S
C25 C26 1.398 . S
C25 C27 1.396 . S
C26 C25 1.398 . S
C26 C30 1.407 . S
C27 C25 1.396 . S
C27 C28 1.394 . S
C28 H23 0.929 . S
C28 C27 1.394 . S
C28 C29 1.382 . S
C29 C28 1.382 . S
C29 C30 1.392 . S
C29 N31 1.420 . S
C30 H24 0.930 . S
C30 C26 1.407 . S
C30 C29 1.392 . S
N31 C29 1.420 . S
N31 C32 1.244 . S
C32 N31 1.244 . S
H33 C36 0.929 . S
H34 C39 0.940 . S
H35 C41 0.930 . S
C36 H33 0.929 . S
C36 C37 1.398 . S
C36 C38 1.396 . S
C37 C36 1.398 . S
C37 C41 1.407 . S
C38 C36 1.396 . S
C38 C39 1.394 . S
C39 H34 0.940 . S
C39 C38 1.394 . S
C39 C40 1.382 . S
C40 C39 1.382 . S
C40 C41 1.392 . S
C40 N42 1.420 . S
C41 H35 0.930 . S
C41 C37 1.407 . S
C41 C40 1.392 . S
N42 C40 1.420 . S
N42 C43 1.244 . S
C43 N42 1.244 . S
H44 C47 0.929 . S
H45 C50 0.929 . S
H46 C52 0.930 1_545 S
C47 H44 0.929 . S
C47 C48 1.398 . S
C47 C49 1.396 . S
C48 C47 1.398 . S
C48 C52 1.407 . S
C49 C47 1.396 . S
C49 C50 1.394 . S
C50 H45 0.929 . S
C50 C49 1.394 . S
C50 C51 1.382 . S
C51 C50 1.382 . S
C51 C52 1.392 . S
C51 N53 1.420 . S
C52 H46 0.930 1_565 S
C52 C48 1.407 . S
C52 C51 1.392 . S
N53 C51 1.420 . S
N53 C54 1.244 . S
C54 N53 1.244 . S
H55 C58 0.929 . S
H56 C61 0.929 . S
H57 C63 0.930 . S
C58 H55 0.929 . S
C58 C59 1.398 . S
C58 C60 1.396 . S
C59 C58 1.398 . S
C59 C63 1.407 . S
C60 C58 1.396 . S
C60 C61 1.394 . S
C61 H56 0.929 . S
C61 C60 1.394 . S
C61 C62 1.382 . S
C62 C61 1.382 . S
C62 C63 1.392 . S
C62 N64 1.420 . S
C63 H57 0.930 . S
C63 C59 1.407 . S
C63 C62 1.392 . S
N64 C62 1.420 . S
N64 C65 1.244 . S
C65 N64 1.244 . S
H66 C69 0.929 . S
H67 C72 0.929 . S
H68 C74 0.930 . S
C69 H66 0.929 . S
C69 C70 1.398 . S
C69 C71 1.396 . S
C70 C69 1.398 . S
C70 C74 1.407 . S
C71 C69 1.396 . S
C71 C72 1.394 . S
C72 H67 0.929 . S
C72 C71 1.394 . S
C72 C73 1.382 . S
C73 C72 1.382 . S
C73 C74 1.392 . S
C73 N75 1.420 . S
C74 H68 0.930 . S
C74 C70 1.407 . S
C74 C73 1.392 . S
N75 C73 1.420 . S
N75 C76 1.244 . S
C76 N75 1.244 . S
H77 C80 0.929 . S
H78 C83 0.929 . S
H79 C85 0.930 . S
C80 H77 0.929 . S
C80 C81 1.398 . S
C80 C82 1.396 . S
C81 C80 1.398 . S
C81 C85 1.407 . S
C82 C80 1.396 . S
C82 C83 1.394 . S
C83 H78 0.929 . S
C83 C82 1.394 . S
C83 C84 1.382 . S
C84 C83 1.382 . S
C84 C85 1.392 . S
C84 N86 1.420 . S
C85 H79 0.930 . S
C85 C81 1.407 . S
C85 C84 1.392 . S
N86 C84 1.420 . S
N86 C87 1.244 . S
C87 N86 1.244 . S
Co88 N93 2.057 . S
Co88 O105 2.021 . S
Co88 O108 2.062 . S
Co88 O112 2.117 1_545 S
Co88 O113 2.020 . S
C89 O109 1.259 1_655 S
C89 O112 1.258 . S
Co90 N99 2.057 . S
Co90 O106 2.117 . S
Co90 O107 2.020 . S
Co90 O109 2.021 1_545 S
Co90 O114 2.061 1_545 S
C91 N93 1.316 . S
C91 N94 1.347 . S
C91 H96 0.931 . S
C92 N93 1.375 . S
C92 C95 1.350 . S
C92 H97 0.930 1_545 S
N93 Co88 2.057 . S
N93 C91 1.316 . S
N93 C92 1.375 . S
N94 C91 1.347 . S
N94 C95 1.373 . S
C95 C92 1.350 . S
C95 N94 1.373 . S
C95 H116 0.931 . S
H96 C91 0.931 . S
H97 C92 0.930 1_565 S
C98 O105 1.259 1_455 S
C98 O106 1.258 . S
N99 Co90 2.057 . S
N99 C100 1.316 1_545 S
N99 C101 1.375 . S
C100 N99 1.316 1_565 S
C100 N102 1.347 . S
C100 H111 0.931 . S
C101 N99 1.375 . S
C101 C103 1.350 . S
C101 H110 0.930 . S
N102 C100 1.347 . S
N102 C103 1.373 1_565 S
C103 C101 1.350 . S
C103 N102 1.373 1_545 S
C103 H117 0.931 . S
C104 O107 1.256 . S
C104 O108 1.255 1_455 S
O105 Co88 2.021 . S
O105 C98 1.259 1_655 S
O106 Co90 2.117 . S
O106 C98 1.258 . S
O107 Co90 2.020 . S
O107 C104 1.256 . S
O108 Co88 2.062 . S
O108 C104 1.255 1_655 S
O109 C89 1.259 1_455 S
O109 Co90 2.021 1_565 S
H110 C101 0.930 . S
H111 C100 0.931 . S
O112 Co88 2.117 1_565 S
O112 C89 1.258 . S
O113 Co88 2.020 . S
O113 C115 1.256 . S
O114 Co90 2.061 1_565 S
O114 C115 1.254 1_465 S
C115 O113 1.256 . S
C115 O114 1.254 1_645 S
H116 C95 0.931 . S
H117 C103 0.931 . S
Co118 N123 2.057 1_544 S
Co118 O135 2.021 1_554 S
Co118 O138 2.062 1_554 S
Co118 O142 2.117 1_545 S
Co118 O143 2.020 . S
C119 O139 1.259 . S
C119 O142 1.258 . S
Co120 N129 2.057 . S
Co120 O136 2.117 . S
Co120 O137 2.020 . S
Co120 O139 2.021 1_545 S
Co120 O144 2.062 . S
C121 N123 1.316 1_545 S
C121 N124 1.347 1_545 S
C121 H126 0.931 . S
C122 N123 1.375 . S
C122 C125 1.350 . S
C122 H127 0.930 . S
N123 Co118 2.057 1_566 S
N123 C121 1.316 1_565 S
N123 C122 1.375 . S
N124 C121 1.347 1_565 S
N124 C125 1.373 . S
C125 C122 1.350 . S
C125 N124 1.373 . S
C125 H146 0.931 . S
H126 C121 0.931 . S
H127 C122 0.930 . S
C128 O135 1.259 1_554 S
C128 O136 1.258 . S
N129 Co120 2.057 . S
N129 C130 1.316 . S
N129 C131 1.375 . S
C130 N129 1.316 . S
C130 N132 1.347 . S
C130 H141 0.931 . S
C131 N129 1.375 . S
C131 C133 1.350 . S
C131 H140 0.930 . S
N132 C130 1.347 . S
N132 C133 1.373 . S
C133 C131 1.350 . S
C133 N132 1.373 . S
C133 H147 0.931 . S
C134 O137 1.256 . S
C134 O138 1.255 1_554 S
O135 Co118 2.021 1_556 S
O135 C128 1.259 1_556 S
O136 Co120 2.117 . S
O136 C128 1.258 . S
O137 Co120 2.020 . S
O137 C134 1.256 . S
O138 Co118 2.062 1_556 S
O138 C134 1.255 1_556 S
O139 C119 1.259 . S
O139 Co120 2.021 1_565 S
H140 C131 0.930 . S
H141 C130 0.931 . S
O142 Co118 2.117 1_565 S
O142 C119 1.258 . S
O143 Co118 2.020 . S
O143 C145 1.256 . S
O144 Co120 2.062 . S
O144 C145 1.255 . S
C145 O143 1.256 . S
C145 O144 1.255 . S
H146 C125 0.931 . S
H147 C133 0.931 . S
Co148 N153 2.057 . S
Co148 O165 2.021 . S
Co148 O168 2.062 . S
Co148 O172 2.117 . S
Co148 O173 2.020 . S
C149 O169 1.259 . S
C149 O172 1.258 . S
Co150 N159 2.057 . S
Co150 O166 2.117 . S
Co150 O167 2.020 . S
Co150 O169 2.021 . S
Co150 O174 2.062 . S
C151 N153 1.316 . S
C151 N154 1.347 . S
C151 H156 0.931 . S
C152 N153 1.375 . S
C152 C155 1.350 . S
C152 H157 0.930 . S
N153 Co148 2.057 . S
N153 C151 1.316 . S
N153 C152 1.375 . S
N154 C151 1.347 . S
N154 C155 1.373 . S
C155 C152 1.350 . S
C155 N154 1.373 . S
C155 H176 0.931 . S
H156 C151 0.931 . S
H157 C152 0.930 . S
C158 O165 1.259 . S
C158 O166 1.258 . S
N159 Co150 2.057 . S
N159 C160 1.316 . S
N159 C161 1.375 . S
C160 N159 1.316 . S
C160 N162 1.347 . S
C160 H171 0.931 . S
C161 N159 1.375 . S
C161 C163 1.350 . S
C161 H170 0.930 . S
N162 C160 1.347 . S
N162 C163 1.373 . S
C163 C161 1.350 . S
C163 N162 1.373 . S
C163 H177 0.931 . S
C164 O167 1.256 . S
C164 O168 1.255 . S
O165 Co148 2.021 . S
O165 C158 1.259 . S
O166 Co150 2.117 . S
O166 C158 1.258 . S
O167 Co150 2.020 . S
O167 C164 1.256 . S
O168 Co148 2.062 . S
O168 C164 1.255 . S
O169 C149 1.259 . S
O169 Co150 2.021 . S
H170 C161 0.930 . S
H171 C160 0.931 . S
O172 Co148 2.117 . S
O172 C149 1.258 . S
O173 Co148 2.020 . S
O173 C175 1.256 . S
O174 Co150 2.062 . S
O174 C175 1.255 . S
C175 O173 1.256 . S
C175 O174 1.255 . S
H176 C155 0.931 . S
H177 C163 0.931 . S
Co178 N183 2.057 . S
Co178 O195 2.021 . S
Co178 O198 2.062 1_556 S
Co178 O202 2.117 1_455 S
Co178 O203 2.020 . S
C179 O199 1.259 . S
C179 O202 1.258 1_554 S
Co180 N189 2.057 . S
Co180 O196 2.117 . S
Co180 O197 2.020 . S
Co180 O199 2.021 1_455 S
Co180 O204 2.062 . S
C181 N183 1.316 . S
C181 N184 1.347 . S
C181 H186 0.931 . S
C182 N183 1.375 . S
C182 C185 1.350 . S
C182 H187 0.930 1_455 S
N183 Co178 2.057 . S
N183 C181 1.316 . S
N183 C182 1.375 . S
N184 C181 1.347 . S
N184 C185 1.373 . S
C185 C182 1.350 . S
C185 N184 1.373 . S
C185 H206 0.931 . S
H186 C181 0.931 . S
H187 C182 0.930 1_655 S
C188 O195 1.259 1_554 S
C188 O196 1.258 . S
N189 Co180 2.057 . S
N189 C190 1.316 1_455 S
N189 C191 1.375 . S
C190 N189 1.316 1_655 S
C190 N192 1.347 . S
C190 H201 0.931 . S
C191 N189 1.375 . S
C191 C193 1.350 . S
C191 H200 0.930 . S
N192 C190 1.347 . S
N192 C193 1.373 1_655 S
C193 C191 1.350 . S
C193 N192 1.373 1_455 S
C193 H207 0.931 . S
C194 O197 1.256 . S
C194 O198 1.255 . S
O195 Co178 2.021 . S
O195 C188 1.259 1_556 S
O196 Co180 2.117 . S
O196 C188 1.258 . S
O197 Co180 2.020 . S
O197 C194 1.256 . S
O198 Co178 2.062 1_554 S
O198 C194 1.255 . S
O199 C179 1.259 . S
O199 Co180 2.021 1_655 S
H200 C191 0.930 . S
H201 C190 0.931 . S
O202 Co178 2.117 1_655 S
O202 C179 1.258 1_556 S
O203 Co178 2.020 . S
O203 C205 1.256 . S
O204 Co180 2.062 . S
O204 C205 1.255 1_554 S
C205 O203 1.256 . S
C205 O204 1.255 1_556 S
H206 C185 0.931 . S
H207 C193 0.931 . S
C208 C209 1.363 . S
C208 C214 1.379 . S
C208 N216 1.356 . S
C209 C208 1.363 . S
C209 C215 1.363 . S
C210 C211 1.363 . S
C210 C215 1.379 . S
C210 N217 1.356 . S
C211 C210 1.363 . S
C211 C214 1.363 . S
N212 C214 1.356 . S
N212 H224 0.984 . S
N212 H225 0.985 . S
N213 C215 1.356 . S
N213 H218 0.984 . S
N213 H219 0.968 1_545 S
C214 C208 1.379 . S
C214 C211 1.363 . S
C214 N212 1.356 . S
C215 C209 1.363 . S
C215 C210 1.379 . S
C215 N213 1.356 . S
N216 C208 1.356 . S
N216 H222 0.984 . S
N216 H223 0.984 . S
N217 C210 1.356 . S
N217 H220 0.984 . S
N217 H221 0.985 1_445 S
H218 N213 0.984 . S
H219 N213 0.968 1_565 S
H220 N217 0.984 . S
H221 N217 0.985 1_665 S
H222 N216 0.984 . S
H223 N216 0.984 . S
H224 N212 0.984 . S
H225 N212 0.985 . S
C226 C227 1.363 . S
C226 C232 1.379 . S
C226 N234 1.356 . S
C227 C226 1.363 . S
C227 C233 1.363 . S
C228 C229 1.363 . S
C228 C233 1.379 . S
C228 N235 1.356 . S
C229 C228 1.363 . S
C229 C232 1.363 . S
N230 C232 1.356 1_545 S
N230 H242 0.984 . S
N230 H243 0.985 . S
N231 C233 1.356 . S
N231 H236 0.984 . S
N231 H237 0.985 . S
C232 C226 1.379 . S
C232 C229 1.363 . S
C232 N230 1.356 1_565 S
C233 C227 1.363 . S
C233 C228 1.379 . S
C233 N231 1.356 . S
N234 C226 1.356 . S
N234 H240 0.984 1_565 S
N234 H241 0.984 . S
N235 C228 1.356 . S
N235 H238 0.984 . S
N235 H239 0.985 . S
H236 N231 0.984 . S
H237 N231 0.985 . S
H238 N235 0.984 . S
H239 N235 0.985 . S
H240 N234 0.984 1_545 S
H241 N234 0.984 . S
H242 N230 0.984 . S
H243 N230 0.985 . S
C244 C245 1.363 . S
C244 C250 1.379 . S
C244 N252 1.356 . S
C245 C244 1.363 . S
C245 C251 1.363 . S
C246 C247 1.363 . S
C246 C251 1.379 . S
C246 N253 1.356 . S
C247 C246 1.363 . S
C247 C250 1.363 . S
N248 C250 1.356 . S
N248 H260 0.984 . S
N248 H261 0.985 . S
N249 C251 1.356 . S
N249 H254 0.984 . S
N249 H255 0.985 . S
C250 C244 1.379 . S
C250 C247 1.363 . S
C250 N248 1.356 . S
C251 C245 1.363 . S
C251 C246 1.379 . S
C251 N249 1.356 . S
N252 C244 1.356 . S
N252 H258 0.984 . S
N252 H259 0.984 . S
N253 C246 1.356 . S
N253 H256 0.984 . S
N253 H257 0.985 . S
H254 N249 0.984 . S
H255 N249 0.985 . S
H256 N253 0.984 . S
H257 N253 0.985 . S
H258 N252 0.984 . S
H259 N252 0.984 . S
H260 N248 0.984 . S
H261 N248 0.985 . S
C262 C263 1.367 . S
C262 C268 1.380 . S
C262 N270 1.352 1_655 S
C263 C262 1.367 . S
C263 C269 1.363 . S
C264 C265 1.363 . S
C264 C269 1.379 . S
C264 N271 1.356 . S
C265 C264 1.363 . S
C265 C268 1.363 . S
N266 C268 1.356 1_455 S
N266 H278 0.984 . S
N266 H279 0.985 1_455 S
N267 C269 1.356 . S
N267 H272 0.984 . S
N267 H273 0.985 . S
C268 C262 1.380 . S
C268 C265 1.363 . S
C268 N266 1.356 1_655 S
C269 C263 1.363 . S
C269 C264 1.379 . S
C269 N267 1.356 . S
N270 C262 1.352 1_455 S
N270 H276 0.984 . S
N270 H277 0.984 . S
N271 C264 1.356 . S
N271 H274 0.984 . S
N271 H275 0.985 . S
H272 N267 0.984 . S
H273 N267 0.985 . S
H274 N271 0.984 . S
H275 N271 0.985 . S
H276 N270 0.984 . S
H277 N270 0.984 . S
H278 N266 0.984 . S
H279 N266 0.985 1_655 S
C280 C281 1.363 . S
C280 C286 1.379 . S
C280 N288 1.356 . S
C281 C280 1.363 . S
C281 C287 1.363 . S
C282 C283 1.363 . S
C282 C287 1.379 . S
C282 N289 1.356 . S
C283 C282 1.363 . S
C283 C286 1.363 . S
N284 C286 1.356 . S
N284 H296 0.984 1_554 S
N284 H297 0.985 . S
N285 C287 1.356 . S
N285 H290 0.984 . S
N285 H291 0.985 . S
C286 C280 1.379 . S
C286 C283 1.363 . S
C286 N284 1.356 . S
C287 C281 1.363 . S
C287 C282 1.379 . S
C287 N285 1.356 . S
N288 C280 1.356 . S
N288 H294 0.984 . S
N288 H295 0.984 . S
N289 C282 1.356 . S
N289 H292 0.984 . S
N289 H293 0.985 . S
H290 N285 0.984 . S
H291 N285 0.985 . S
H292 N289 0.984 . S
H293 N289 0.985 . S
H294 N288 0.984 . S
H295 N288 0.984 . S
H296 N284 0.984 1_556 S
H297 N284 0.985 . S
C298 C299 1.363 . S
C298 C304 1.379 . S
C298 N306 1.356 . S
C299 C298 1.363 . S
C299 C305 1.363 . S
C300 C301 1.363 1_545 S
C300 C305 1.379 1_545 S
C300 N307 1.356 . S
C301 C300 1.363 1_565 S
C301 C304 1.363 . S
N302 C304 1.356 . S
N302 H314 0.984 . S
N302 H315 0.985 . S
N303 C305 1.356 1_545 S
N303 H308 0.984 . S
N303 H309 0.985 . S
C304 C298 1.379 . S
C304 C301 1.363 . S
C304 N302 1.356 . S
C305 C299 1.363 . S
C305 C300 1.379 1_565 S
C305 N303 1.356 1_565 S
N306 C298 1.356 . S
N306 H312 0.984 . S
N306 H313 0.984 . S
N307 C300 1.356 . S
N307 H310 0.984 . S
N307 H311 0.985 . S
H308 N303 0.984 . S
H309 N303 0.985 . S
H310 N307 0.984 . S
H311 N307 0.985 . S
H312 N306 0.984 . S
H313 N306 0.984 . S
H314 N302 0.984 . S
H315 N302 0.985 . S
C316 C317 1.363 1_554 S
C316 C322 1.379 . S
C316 N324 1.356 . S
C317 C316 1.363 1_556 S
C317 C323 1.363 . S
C318 C319 1.363 . S
C318 C323 1.379 . S
C318 N325 1.356 . S
C319 C318 1.363 . S
C319 C322 1.363 1_556 S
N320 C322 1.356 . S
N320 H332 0.984 . S
N320 H333 0.985 . S
N321 C323 1.356 . S
N321 H326 0.984 . S
N321 H327 0.985 . S
C322 C316 1.379 . S
C322 C319 1.363 1_554 S
C322 N320 1.356 . S
C323 C317 1.363 . S
C323 C318 1.379 . S
C323 N321 1.356 . S
N324 C316 1.356 . S
N324 H330 0.984 . S
N324 H331 0.984 . S
N325 C318 1.356 . S
N325 H328 0.984 . S
N325 H329 0.985 . S
H326 N321 0.984 . S
H327 N321 0.985 . S
H328 N325 0.984 . S
H329 N325 0.985 . S
H330 N324 0.984 . S
H331 N324 0.984 . S
H332 N320 0.984 . S
H333 N320 0.985 . S
C334 C335 1.363 . S
C334 C340 1.379 . S
C334 N342 1.356 . S
C335 C334 1.363 . S
C335 C341 1.363 . S
C336 C337 1.363 . S
C336 C341 1.379 . S
C336 N343 1.356 . S
C337 C336 1.363 . S
C337 C340 1.363 . S
N338 C340 1.356 . S
N338 H350 0.984 . S
N338 H351 0.985 . S
N339 C341 1.356 . S
N339 H344 0.984 . S
N339 H345 0.985 . S
C340 C334 1.379 . S
C340 C337 1.363 . S
C340 N338 1.356 . S
C341 C335 1.363 . S
C341 C336 1.379 . S
C341 N339 1.356 . S
N342 C334 1.356 . S
N342 H348 0.984 . S
N342 H349 0.984 . S
N343 C336 1.356 . S
N343 H346 0.984 . S
N343 H347 0.985 . S
H344 N339 0.984 . S
H345 N339 0.985 . S
H346 N343 0.984 . S
H347 N343 0.985 . S
H348 N342 0.984 . S
H349 N342 0.984 . S
H350 N338 0.984 . S
H351 N338 0.985 . S
C352 C353 1.363 . S
C352 C358 1.379 . S
C352 N360 1.356 . S
C353 C352 1.363 . S
C353 C359 1.363 . S
C354 C355 1.363 . S
C354 C359 1.379 . S
C354 N361 1.356 . S
C355 C354 1.363 . S
C355 C358 1.363 . S
N356 C358 1.356 1_556 S
N356 H368 0.984 . S
N356 H369 0.985 1_556 S
N357 C359 1.356 . S
N357 H362 0.984 . S
N357 H363 0.985 . S
C358 C352 1.379 . S
C358 C355 1.363 . S
C358 N356 1.356 1_554 S
C359 C353 1.363 . S
C359 C354 1.379 . S
C359 N357 1.356 . S
N360 C352 1.356 . S
N360 H366 0.984 1_554 S
N360 H367 0.984 . S
N361 C354 1.356 . S
N361 H364 0.984 . S
N361 H365 0.985 . S
H362 N357 0.984 . S
H363 N357 0.985 . S
H364 N361 0.984 . S
H365 N361 0.985 . S
H366 N360 0.984 1_556 S
H367 N360 0.984 . S
H368 N356 0.984 . S
H369 N356 0.985 1_554 S
C370 C371 1.363 . S
C370 C376 1.379 . S
C370 N378 1.356 . S
C371 C370 1.363 . S
C371 C377 1.363 1_556 S
C372 C373 1.363 1_554 S
C372 C377 1.379 . S
C372 N379 1.356 . S
C373 C372 1.363 1_556 S
C373 C376 1.363 . S
N374 C376 1.356 . S
N374 H386 0.984 . S
N374 H387 0.985 . S
N375 C377 1.356 . S
N375 H380 0.984 . S
N375 H381 0.985 . S
C376 C370 1.379 . S
C376 C373 1.363 . S
C376 N374 1.356 . S
C377 C371 1.363 1_554 S
C377 C372 1.379 . S
C377 N375 1.356 . S
N378 C370 1.356 . S
N378 H384 0.984 . S
N378 H385 0.984 . S
N379 C372 1.356 . S
N379 H382 0.984 . S
N379 H383 0.985 . S
H380 N375 0.984 . S
H381 N375 0.985 . S
H382 N379 0.984 . S
H383 N379 0.985 . S
H384 N378 0.984 . S
H385 N378 0.984 . S
H386 N374 0.984 . S
H387 N374 0.985 . S
C388 C389 1.363 . S
C388 C394 1.379 . S
C388 N396 1.356 . S
C389 C388 1.363 . S
C389 C395 1.363 . S
C390 C391 1.363 1_455 S
C390 C395 1.379 1_455 S
C390 N397 1.356 . S
C391 C390 1.363 1_655 S
C391 C394 1.363 . S
N392 C394 1.356 . S
N392 H404 0.984 . S
N392 H405 0.985 . S
N393 C395 1.356 1_455 S
N393 H398 0.984 . S
N393 H399 0.985 . S
C394 C388 1.379 . S
C394 C391 1.363 . S
C394 N392 1.356 . S
C395 C389 1.363 . S
C395 C390 1.379 1_655 S
C395 N393 1.356 1_655 S
N396 C388 1.356 . S
N396 H402 0.984 . S
N396 H403 0.984 . S
N397 C390 1.356 . S
N397 H400 0.984 . S
N397 H401 0.985 . S
H398 N393 0.984 . S
H399 N393 0.985 . S
H400 N397 0.984 . S
H401 N397 0.985 . S
H402 N396 0.984 . S
H403 N396 0.984 . S
H404 N392 0.984 . S
H405 N392 0.985 . S
C406 C407 1.363 . S
C406 C412 1.379 . S
C406 N414 1.356 . S
C407 C406 1.363 . S
C407 C413 1.363 . S
C408 C409 1.363 . S
C408 C413 1.379 . S
C408 N415 1.356 . S
C409 C408 1.363 . S
C409 C412 1.363 . S
N410 C412 1.356 . S
N410 H422 0.984 . S
N410 H423 0.985 . S
N411 C413 1.356 . S
N411 H416 0.984 . S
N411 H417 0.985 . S
C412 C406 1.379 . S
C412 C409 1.363 . S
C412 N410 1.356 . S
C413 C407 1.363 . S
C413 C408 1.379 . S
C413 N411 1.356 . S
N414 C406 1.356 . S
N414 H420 0.984 . S
N414 H421 0.984 . S
N415 C408 1.356 . S
N415 H418 0.984 . S
N415 H419 0.985 . S
H416 N411 0.984 . S
H417 N411 0.985 . S
H418 N415 0.984 . S
H419 N415 0.985 . S
H420 N414 0.984 . S
H421 N414 0.984 . S
H422 N410 0.984 . S
H423 N410 0.985 . S
C424 C425 1.363 . S
C424 C430 1.379 . S
C424 N432 1.351 1_655 S
C425 C424 1.363 . S
C425 C431 1.363 1_565 S
C426 C427 1.363 1_545 S
C426 C431 1.379 . S
C426 N433 1.356 . S
C427 C426 1.363 1_565 S
C427 C430 1.363 . S
N428 C430 1.356 1_455 S
N428 H440 0.984 . S
N428 H441 0.985 . S
N429 C431 1.356 . S
N429 H434 0.984 . S
N429 H435 0.985 . S
C430 C424 1.379 . S
C430 C427 1.363 . S
C430 N428 1.356 1_655 S
C431 C425 1.363 1_545 S
C431 C426 1.379 . S
C431 N429 1.356 . S
N432 C424 1.351 1_455 S
N432 H438 0.996 . S
N432 H439 0.978 1_455 S
N433 C426 1.356 . S
N433 H436 0.984 . S
N433 H437 0.985 . S
H434 N429 0.984 . S
H435 N429 0.985 . S
H436 N433 0.984 . S
H437 N433 0.985 . S
H438 N432 0.996 . S
H439 N432 0.978 1_655 S
H440 N428 0.984 . S
H441 N428 0.985 . S
C442 C443 1.363 . S
C442 C448 1.379 . S
C442 N450 1.356 . S
C443 C442 1.363 . S
C443 C449 1.363 . S
C444 C445 1.363 . S
C444 C449 1.379 . S
C444 N451 1.356 . S
C445 C444 1.363 . S
C445 C448 1.363 . S
N446 C448 1.356 . S
N446 H458 0.990 . S
N446 H459 0.985 . S
N447 C449 1.356 . S
N447 H452 0.984 . S
N447 H453 0.985 . S
C448 C442 1.379 . S
C448 C445 1.363 . S
C448 N446 1.356 . S
C449 C443 1.363 . S
C449 C444 1.379 . S
C449 N447 1.356 . S
N450 C442 1.356 . S
N450 H456 0.984 . S
N450 H457 0.984 . S
N451 C444 1.356 . S
N451 H454 0.984 . S
N451 H455 0.985 . S
H452 N447 0.984 . S
H453 N447 0.985 . S
H454 N451 0.984 . S
H455 N451 0.985 . S
H456 N450 0.984 . S
H457 N450 0.984 . S
H458 N446 0.990 . S
H459 N446 0.985 . S
C460 C461 1.363 . S
C460 C466 1.379 . S
C460 N468 1.356 . S
C461 C460 1.363 . S
C461 C467 1.363 . S
C462 C463 1.363 . S
C462 C467 1.379 . S
C462 N469 1.356 . S
C463 C462 1.363 . S
C463 C466 1.363 . S
N464 C466 1.356 . S
N464 H476 0.984 . S
N464 H477 0.985 . S
N465 C467 1.356 . S
N465 H470 0.984 . S
N465 H471 0.985 . S
C466 C460 1.379 . S
C466 C463 1.363 . S
C466 N464 1.356 . S
C467 C461 1.363 . S
C467 C462 1.379 . S
C467 N465 1.356 . S
N468 C460 1.356 . S
N468 H474 0.984 . S
N468 H475 0.984 . S
N469 C462 1.356 . S
N469 H472 0.984 . S
N469 H473 0.985 . S
H470 N465 0.984 . S
H471 N465 0.985 . S
H472 N469 0.984 . S
H473 N469 0.985 . S
H474 N468 0.984 . S
H475 N468 0.984 . S
H476 N464 0.984 . S
H477 N464 0.985 . S
C478 C479 1.363 . S
C478 C484 1.379 . S
C478 N486 1.356 . S
C479 C478 1.363 . S
C479 C485 1.363 . S
C480 C481 1.363 . S
C480 C485 1.379 . S
C480 N487 1.356 . S
C481 C480 1.363 . S
C481 C484 1.363 . S
N482 C484 1.356 . S
N482 H494 0.984 . S
N482 H495 0.985 . S
N483 C485 1.356 1_655 S
N483 H488 0.984 . S
N483 H489 0.985 . S
C484 C478 1.379 . S
C484 C481 1.363 . S
C484 N482 1.356 . S
C485 C479 1.363 . S
C485 C480 1.379 . S
C485 N483 1.356 1_455 S
N486 C478 1.356 . S
N486 H492 0.984 . S
N486 H493 0.984 . S
N487 C480 1.356 . S
N487 H490 0.984 . S
N487 H491 0.985 1_455 S
H488 N483 0.984 . S
H489 N483 0.985 . S
H490 N487 0.984 . S
H491 N487 0.985 1_655 S
H492 N486 0.984 . S
H493 N486 0.984 . S
H494 N482 0.984 . S
H495 N482 0.985 . S
C496 C497 1.363 1_554 S
C496 C502 1.379 . S
C496 N504 1.356 . S
C497 C496 1.363 1_556 S
C497 C503 1.363 1_565 S
C498 C499 1.363 1_546 S
C498 C503 1.379 . S
C498 N505 1.356 . S
C499 C498 1.363 1_564 S
C499 C502 1.363 . S
N500 C502 1.356 . S
N500 H512 0.984 . S
N500 H513 0.985 . S
N501 C503 1.356 . S
N501 H506 0.984 . S
N501 H507 0.985 . S
C502 C496 1.379 . S
C502 C499 1.363 . S
C502 N500 1.356 . S
C503 C497 1.363 1_545 S
C503 C498 1.379 . S
C503 N501 1.356 . S
N504 C496 1.356 . S
N504 H510 0.984 . S
N504 H511 0.984 1_554 S
N505 C498 1.356 . S
N505 H508 0.984 . S
N505 H509 0.985 . S
H506 N501 0.984 . S
H507 N501 0.985 . S
H508 N505 0.984 . S
H509 N505 0.985 . S
H510 N504 0.984 . S
H511 N504 0.984 1_556 S
H512 N500 0.984 . S
H513 N500 0.985 . S
C514 C515 1.363 . S
C514 C520 1.379 . S
C514 N522 1.356 . S
C515 C514 1.363 . S
C515 C521 1.363 . S
C516 C517 1.363 . S
C516 C521 1.379 . S
C516 N523 1.356 . S
C517 C516 1.363 . S
C517 C520 1.363 . S
N518 C520 1.356 . S
N518 H530 0.984 . S
N518 H531 0.985 . S
N519 C521 1.356 . S
N519 H524 0.984 . S
N519 H525 0.985 . S
C520 C514 1.379 . S
C520 C517 1.363 . S
C520 N518 1.356 . S
C521 C515 1.363 . S
C521 C516 1.379 . S
C521 N519 1.356 . S
N522 C514 1.356 . S
N522 H528 0.984 . S
N522 H529 0.984 . S
N523 C516 1.356 . S
N523 H526 0.984 . S
N523 H527 0.985 . S
H524 N519 0.984 . S
H525 N519 0.985 . S
H526 N523 0.984 . S
H527 N523 0.985 . S
H528 N522 0.984 . S
H529 N522 0.984 . S
H530 N518 0.984 . S
H531 N518 0.985 . S
C532 C533 1.363 . S
C532 C538 1.379 . S
C532 N540 1.356 . S
C533 C532 1.363 . S
C533 C539 1.363 . S
C534 C535 1.363 . S
C534 C539 1.379 . S
C534 N541 1.356 . S
C535 C534 1.363 . S
C535 C538 1.363 . S
N536 C538 1.356 . S
N536 H548 0.984 . S
N536 H549 0.985 . S
N537 C539 1.356 . S
N537 H542 0.984 . S
N537 H543 0.985 . S
C538 C532 1.379 . S
C538 C535 1.363 . S
C538 N536 1.356 . S
C539 C533 1.363 . S
C539 C534 1.379 . S
C539 N537 1.356 . S
N540 C532 1.356 . S
N540 H546 0.984 . S
N540 H547 0.984 . S
N541 C534 1.356 . S
N541 H544 0.984 . S
N541 H545 0.985 . S
H542 N537 0.984 . S
H543 N537 0.985 . S
H544 N541 0.984 . S
H545 N541 0.985 . S
H546 N540 0.984 . S
H547 N540 0.984 . S
H548 N536 0.984 . S
H549 N536 0.985 . S
C550 C551 1.363 . S
C550 C556 1.379 . S
C550 N558 1.356 . S
C551 C550 1.363 . S
C551 C557 1.363 . S
C552 C553 1.363 . S
C552 C557 1.379 . S
C552 N559 1.356 . S
C553 C552 1.363 . S
C553 C556 1.363 . S
N554 C556 1.356 . S
N554 H566 0.984 . S
N554 H567 0.985 . S
N555 C557 1.356 . S
N555 H560 0.984 . S
N555 H561 0.985 . S
C556 C550 1.379 . S
C556 C553 1.363 . S
C556 N554 1.356 . S
C557 C551 1.363 . S
C557 C552 1.379 . S
C557 N555 1.356 . S
N558 C550 1.356 . S
N558 H564 0.984 . S
N558 H565 0.984 . S
N559 C552 1.356 . S
N559 H562 0.984 . S
N559 H563 0.985 . S
H560 N555 0.984 . S
H561 N555 0.985 . S
H562 N559 0.984 . S
H563 N559 0.985 . S
H564 N558 0.984 . S
H565 N558 0.984 . S
H566 N554 0.984 . S
H567 N554 0.985 . S
C568 C569 1.363 . S
C568 C574 1.379 1_556 S
C568 N576 1.356 1_556 S
C569 C568 1.363 . S
C569 C575 1.363 . S
C570 C571 1.363 . S
C570 C575 1.379 . S
C570 N577 1.356 . S
C571 C570 1.363 . S
C571 C574 1.363 1_556 S
N572 C574 1.356 1_455 S
N572 H584 0.984 . S
N572 H585 0.985 . S
N573 C575 1.356 . S
N573 H578 0.984 . S
N573 H579 0.985 . S
C574 C568 1.379 1_554 S
C574 C571 1.363 1_554 S
C574 N572 1.356 1_655 S
C575 C569 1.363 . S
C575 C570 1.379 . S
C575 N573 1.356 . S
N576 C568 1.356 1_554 S
N576 H582 0.984 . S
N576 H583 0.984 1_554 S
N577 C570 1.356 . S
N577 H580 0.992 . S
N577 H581 0.985 . S
H578 N573 0.984 . S
H579 N573 0.985 . S
H580 N577 0.992 . S
H581 N577 0.985 . S
H582 N576 0.984 . S
H583 N576 0.984 1_556 S
H584 N572 0.984 . S
H585 N572 0.985 . S
C586 C587 1.363 . S
C586 C592 1.379 . S
C586 N594 1.356 . S
C587 C586 1.363 . S
C587 C593 1.363 . S
C588 C589 1.363 . S
C588 C593 1.379 . S
C588 N595 1.356 . S
C589 C588 1.363 . S
C589 C592 1.363 . S
N590 C592 1.356 . S
N590 H602 0.984 . S
N590 H603 0.985 . S
N591 C593 1.356 . S
N591 H596 0.984 . S
N591 H597 0.985 . S
C592 C586 1.379 . S
C592 C589 1.363 . S
C592 N590 1.356 . S
C593 C587 1.363 . S
C593 C588 1.379 . S
C593 N591 1.356 . S
N594 C586 1.356 . S
N594 H600 0.984 . S
N594 H601 0.984 . S
N595 C588 1.356 . S
N595 H598 0.984 . S
N595 H599 0.985 . S
H596 N591 0.984 . S
H597 N591 0.985 . S
H598 N595 0.984 . S
H599 N595 0.985 . S
H600 N594 0.984 . S
H601 N594 0.984 . S
H602 N590 0.984 . S
H603 N590 0.985 . S
C604 C605 1.363 . S
C604 C610 1.379 . S
C604 N612 1.356 . S
C605 C604 1.363 . S
C605 C611 1.363 . S
C606 C607 1.363 . S
C606 C611 1.379 . S
C606 N613 1.356 . S
C607 C606 1.363 . S
C607 C610 1.363 . S
N608 C610 1.356 . S
N608 H620 0.984 1_455 S
N608 H621 0.985 . S
N609 C611 1.356 . S
N609 H614 0.984 . S
N609 H615 0.985 . S
C610 C604 1.379 . S
C610 C607 1.363 . S
C610 N608 1.356 . S
C611 C605 1.363 . S
C611 C606 1.379 . S
C611 N609 1.356 . S
N612 C604 1.356 . S
N612 H618 0.984 . S
N612 H619 0.984 . S
N613 C606 1.356 . S
N613 H616 0.984 . S
N613 H617 0.985 . S
H614 N609 0.984 . S
H615 N609 0.985 . S
H616 N613 0.984 . S
H617 N613 0.985 . S
H618 N612 0.984 . S
H619 N612 0.984 . S
H620 N608 0.984 1_655 S
H621 N608 0.985 . S
C622 C623 1.363 . S
C622 C628 1.379 . S
C622 N630 1.356 . S
C623 C622 1.363 . S
C623 C629 1.363 . S
C624 C625 1.363 . S
C624 C629 1.379 . S
C624 N631 1.356 . S
C625 C624 1.363 . S
C625 C628 1.363 . S
N626 C628 1.356 . S
N626 H638 0.984 . S
N626 H639 0.985 . S
N627 C629 1.356 . S
N627 H632 0.984 . S
N627 H633 0.985 . S
C628 C622 1.379 . S
C628 C625 1.363 . S
C628 N626 1.356 . S
C629 C623 1.363 . S
C629 C624 1.379 . S
C629 N627 1.356 . S
N630 C622 1.356 . S
N630 H636 0.984 . S
N630 H637 0.984 . S
N631 C624 1.356 . S
N631 H634 0.984 . S
N631 H635 0.985 . S
H632 N627 0.984 . S
H633 N627 0.985 . S
H634 N631 0.984 . S
H635 N631 0.985 . S
H636 N630 0.984 . S
H637 N630 0.984 . S
H638 N626 0.984 . S
H639 N626 0.985 . S
C209 C4 2.296 . S
C211 C104 2.308 . S
C227 C16 1.386 . S
C229 N124 1.385 . S
C247 C158 1.677 . S
C245 C32 1.671 . S
C263 C43 1.228 . S
C265 N192 1.151 . S
C283 C145 2.648 . S
C281 C5 2.635 . S
C301 N102 0.977 . S
C299 C21 0.995 . S
C319 C179 1.911 1_556 S
C317 C27 1.895 . S
C337 N154 1.005 . S
C335 C37 1.005 . S
C353 C10 1.798 . S
C355 C194 1.815 . S
C373 C128 1.787 1_556 S
C371 C26 1.753 . S
C389 C38 1.162 . S
C391 C89 1.185 . S
C407 C15 1.560 . S
C409 C175 1.579 . S
C427 C115 2.377 1_565 S
C425 C48 2.369 . S
C443 C59 1.197 . S
C445 N132 1.195 . S
C461 C76 1.915 . S
C463 C149 1.922 . S
C479 C87 1.136 . S
C481 N184 1.086 . S
C497 C54 2.094 . S
C499 C134 2.113 1_565 S
C517 N94 1.428 . S
C515 C60 1.427 . S
C535 C188 1.949 . S
C533 C71 1.921 . S
C553 N162 1.085 . S
C551 C82 1.072 . S
C569 C49 2.010 . S
C571 C205 2.018 1_655 S
C589 C119 1.503 . S
C587 C70 1.486 . S
C607 C98 1.472 . S
C605 C81 1.459 . S
C623 C65 1.399 . S
C625 C164 1.414 . S
