# Generated by pormake.
# Topology llk, (3,12)-cn, num edge types: 1
# Building blocks:
#     Node 0, Type 0, BuildingBlock: CUQRIR_clean_linker_1, # of connection points: 3
#     Node 1, Type 0, BuildingBlock: CUQRIR_clean_linker_1, # of connection points: 3
#     Node 2, Type 0, BuildingBlock: CUQRIR_clean_linker_1, # of connection points: 3
#     Node 3, Type 0, BuildingBlock: CUQRIR_clean_linker_1, # of connection points: 3
#     Node 4, Type 0, BuildingBlock: CUQRIR_clean_linker_1, # of connection points: 3
#     Node 5, Type 0, BuildingBlock: CUQRIR_clean_linker_1, # of connection points: 3
#     Node 6, Type 0, BuildingBlock: CUQRIR_clean_linker_1, # of connection points: 3
#     Node 7, Type 0, BuildingBlock: CUQRIR_clean_linker_1, # of connection points: 3
#     Node 8, Type 0, BuildingBlock: CUQRIR_clean_linker_1, # of connection points: 3
#     Node 9, Type 0, BuildingBlock: CUQRIR_clean_linker_1, # of connection points: 3
#     Node 10, Type 0, BuildingBlock: CUQRIR_clean_linker_1, # of connection points: 3
#     Node 11, Type 0, BuildingBlock: CUQRIR_clean_linker_1, # of connection points: 3
#     Node 12, Type 0, BuildingBlock: CUQRIR_clean_linker_1, # of connection points: 3
#     Node 13, Type 0, BuildingBlock: CUQRIR_clean_linker_1, # of connection points: 3
#     Node 14, Type 0, BuildingBlock: CUQRIR_clean_linker_1, # of connection points: 3
#     Node 15, Type 0, BuildingBlock: CUQRIR_clean_linker_1, # of connection points: 3
#     Node 16, Type 0, BuildingBlock: CUQRIR_clean_linker_1, # of connection points: 3
#     Node 17, Type 0, BuildingBlock: CUQRIR_clean_linker_1, # of connection points: 3
#     Node 18, Type 0, BuildingBlock: CUQRIR_clean_linker_1, # of connection points: 3
#     Node 19, Type 0, BuildingBlock: CUQRIR_clean_linker_1, # of connection points: 3
#     Node 20, Type 0, BuildingBlock: CUQRIR_clean_linker_1, # of connection points: 3
#     Node 21, Type 0, BuildingBlock: CUQRIR_clean_linker_1, # of connection points: 3
#     Node 22, Type 0, BuildingBlock: CUQRIR_clean_linker_1, # of connection points: 3
#     Node 23, Type 0, BuildingBlock: CUQRIR_clean_linker_1, # of connection points: 3
#     Node 24, Type 1, BuildingBlock: EZIPEK_clean_sbu_0, # of connection points: 12
#     Node 25, Type 1, BuildingBlock: EZIPEK_clean_sbu_0, # of connection points: 12
#     Node 26, Type 1, BuildingBlock: EZIPEK_clean_sbu_0, # of connection points: 12
#     Node 27, Type 1, BuildingBlock: EZIPEK_clean_sbu_0, # of connection points: 12
#     Node 28, Type 1, BuildingBlock: EZIPEK_clean_sbu_0, # of connection points: 12
#     Node 29, Type 1, BuildingBlock: EZIPEK_clean_sbu_0, # of connection points: 12
#     Edge 30, Type (0, 1), BuildingBlock: KIFKEQ_clean_linker_1, # of connection points: 2
#     Edge 31, Type (0, 1), BuildingBlock: KIFKEQ_clean_linker_1, # of connection points: 2
#     Edge 32, Type (0, 1), BuildingBlock: KIFKEQ_clean_linker_1, # of connection points: 2
#     Edge 33, Type (0, 1), BuildingBlock: KIFKEQ_clean_linker_1, # of connection points: 2
#     Edge 34, Type (0, 1), BuildingBlock: KIFKEQ_clean_linker_1, # of connection points: 2
#     Edge 35, Type (0, 1), BuildingBlock: KIFKEQ_clean_linker_1, # of connection points: 2
#     Edge 36, Type (0, 1), BuildingBlock: KIFKEQ_clean_linker_1, # of connection points: 2
#     Edge 37, Type (0, 1), BuildingBlock: KIFKEQ_clean_linker_1, # of connection points: 2
#     Edge 38, Type (0, 1), BuildingBlock: KIFKEQ_clean_linker_1, # of connection points: 2
#     Edge 39, Type (0, 1), BuildingBlock: KIFKEQ_clean_linker_1, # of connection points: 2
#     Edge 40, Type (0, 1), BuildingBlock: KIFKEQ_clean_linker_1, # of connection points: 2
#     Edge 41, Type (0, 1), BuildingBlock: KIFKEQ_clean_linker_1, # of connection points: 2
#     Edge 42, Type (0, 1), BuildingBlock: KIFKEQ_clean_linker_1, # of connection points: 2
#     Edge 43, Type (0, 1), BuildingBlock: KIFKEQ_clean_linker_1, # of connection points: 2
#     Edge 44, Type (0, 1), BuildingBlock: KIFKEQ_clean_linker_1, # of connection points: 2
#     Edge 45, Type (0, 1), BuildingBlock: KIFKEQ_clean_linker_1, # of connection points: 2
#     Edge 46, Type (0, 1), BuildingBlock: KIFKEQ_clean_linker_1, # of connection points: 2
#     Edge 47, Type (0, 1), BuildingBlock: KIFKEQ_clean_linker_1, # of connection points: 2
#     Edge 48, Type (0, 1), BuildingBlock: KIFKEQ_clean_linker_1, # of connection points: 2
#     Edge 49, Type (0, 1), BuildingBlock: KIFKEQ_clean_linker_1, # of connection points: 2
#     Edge 50, Type (0, 1), BuildingBlock: KIFKEQ_clean_linker_1, # of connection points: 2
#     Edge 51, Type (0, 1), BuildingBlock: KIFKEQ_clean_linker_1, # of connection points: 2
#     Edge 52, Type (0, 1), BuildingBlock: KIFKEQ_clean_linker_1, # of connection points: 2
#     Edge 53, Type (0, 1), BuildingBlock: KIFKEQ_clean_linker_1, # of connection points: 2
#     Edge 54, Type (0, 1), BuildingBlock: KIFKEQ_clean_linker_1, # of connection points: 2
#     Edge 55, Type (0, 1), BuildingBlock: KIFKEQ_clean_linker_1, # of connection points: 2
#     Edge 56, Type (0, 1), BuildingBlock: KIFKEQ_clean_linker_1, # of connection points: 2
#     Edge 57, Type (0, 1), BuildingBlock: KIFKEQ_clean_linker_1, # of connection points: 2
#     Edge 58, Type (0, 1), BuildingBlock: KIFKEQ_clean_linker_1, # of connection points: 2
#     Edge 59, Type (0, 1), BuildingBlock: KIFKEQ_clean_linker_1, # of connection points: 2
#     Edge 60, Type (0, 1), BuildingBlock: KIFKEQ_clean_linker_1, # of connection points: 2
#     Edge 61, Type (0, 1), BuildingBlock: KIFKEQ_clean_linker_1, # of connection points: 2
#     Edge 62, Type (0, 1), BuildingBlock: KIFKEQ_clean_linker_1, # of connection points: 2
#     Edge 63, Type (0, 1), BuildingBlock: KIFKEQ_clean_linker_1, # of connection points: 2
#     Edge 64, Type (0, 1), BuildingBlock: KIFKEQ_clean_linker_1, # of connection points: 2
#     Edge 65, Type (0, 1), BuildingBlock: KIFKEQ_clean_linker_1, # of connection points: 2
#     Edge 66, Type (0, 1), BuildingBlock: KIFKEQ_clean_linker_1, # of connection points: 2
#     Edge 67, Type (0, 1), BuildingBlock: KIFKEQ_clean_linker_1, # of connection points: 2
#     Edge 68, Type (0, 1), BuildingBlock: KIFKEQ_clean_linker_1, # of connection points: 2
#     Edge 69, Type (0, 1), BuildingBlock: KIFKEQ_clean_linker_1, # of connection points: 2
#     Edge 70, Type (0, 1), BuildingBlock: KIFKEQ_clean_linker_1, # of connection points: 2
#     Edge 71, Type (0, 1), BuildingBlock: KIFKEQ_clean_linker_1, # of connection points: 2
#     Edge 72, Type (0, 1), BuildingBlock: KIFKEQ_clean_linker_1, # of connection points: 2
#     Edge 73, Type (0, 1), BuildingBlock: KIFKEQ_clean_linker_1, # of connection points: 2
#     Edge 74, Type (0, 1), BuildingBlock: KIFKEQ_clean_linker_1, # of connection points: 2
#     Edge 75, Type (0, 1), BuildingBlock: KIFKEQ_clean_linker_1, # of connection points: 2
#     Edge 76, Type (0, 1), BuildingBlock: KIFKEQ_clean_linker_1, # of connection points: 2
#     Edge 77, Type (0, 1), BuildingBlock: KIFKEQ_clean_linker_1, # of connection points: 2
#     Edge 78, Type (0, 1), BuildingBlock: KIFKEQ_clean_linker_1, # of connection points: 2
#     Edge 79, Type (0, 1), BuildingBlock: KIFKEQ_clean_linker_1, # of connection points: 2
#     Edge 80, Type (0, 1), BuildingBlock: KIFKEQ_clean_linker_1, # of connection points: 2
#     Edge 81, Type (0, 1), BuildingBlock: KIFKEQ_clean_linker_1, # of connection points: 2
#     Edge 82, Type (0, 1), BuildingBlock: KIFKEQ_clean_linker_1, # of connection points: 2
#     Edge 83, Type (0, 1), BuildingBlock: KIFKEQ_clean_linker_1, # of connection points: 2
#     Edge 84, Type (0, 1), BuildingBlock: KIFKEQ_clean_linker_1, # of connection points: 2
#     Edge 85, Type (0, 1), BuildingBlock: KIFKEQ_clean_linker_1, # of connection points: 2
#     Edge 86, Type (0, 1), BuildingBlock: KIFKEQ_clean_linker_1, # of connection points: 2
#     Edge 87, Type (0, 1), BuildingBlock: KIFKEQ_clean_linker_1, # of connection points: 2
#     Edge 88, Type (0, 1), BuildingBlock: KIFKEQ_clean_linker_1, # of connection points: 2
#     Edge 89, Type (0, 1), BuildingBlock: KIFKEQ_clean_linker_1, # of connection points: 2
#     Edge 90, Type (0, 1), BuildingBlock: KIFKEQ_clean_linker_1, # of connection points: 2
#     Edge 91, Type (0, 1), BuildingBlock: KIFKEQ_clean_linker_1, # of connection points: 2
#     Edge 92, Type (0, 1), BuildingBlock: KIFKEQ_clean_linker_1, # of connection points: 2
#     Edge 93, Type (0, 1), BuildingBlock: KIFKEQ_clean_linker_1, # of connection points: 2
#     Edge 94, Type (0, 1), BuildingBlock: KIFKEQ_clean_linker_1, # of connection points: 2
#     Edge 95, Type (0, 1), BuildingBlock: KIFKEQ_clean_linker_1, # of connection points: 2
#     Edge 96, Type (0, 1), BuildingBlock: KIFKEQ_clean_linker_1, # of connection points: 2
#     Edge 97, Type (0, 1), BuildingBlock: KIFKEQ_clean_linker_1, # of connection points: 2
#     Edge 98, Type (0, 1), BuildingBlock: KIFKEQ_clean_linker_1, # of connection points: 2
#     Edge 99, Type (0, 1), BuildingBlock: KIFKEQ_clean_linker_1, # of connection points: 2
#     Edge 100, Type (0, 1), BuildingBlock: KIFKEQ_clean_linker_1, # of connection points: 2
#     Edge 101, Type (0, 1), BuildingBlock: KIFKEQ_clean_linker_1, # of connection points: 2
# Relax obj value: 0.088
# Max RMSD: 0.207
# Mean RMSD: 0.156
data_MOF--net-llk--node1-EZIPEK_clean_sbu_0--node2-CUQRIR_clean_linker_1--edge1-KIFKEQ_clean_linker_1
_symmetry_space_group_name_H-M    P1
_symmetry_Int_Tables_number       1
_symmetry_cell_setting            triclinic
loop_
_symmetry_equiv_pos_as_xyz
'x, y, z'
_cell_length_a     45.019562
_cell_length_b     44.404053
_cell_length_c     43.770915
_cell_angle_alpha  89.940801
_cell_angle_beta   90.004595
_cell_angle_gamma 89.963158
loop_
_atom_site_label
_atom_site_type_symbol
_atom_site_fract_x
_atom_site_fract_y
_atom_site_fract_z
_atom_type_partial_charge
C0 C 0.04124 0.24827 0.24123 0.0
N1 N 0.04717 0.27825 0.24083 0.0
N2 N 0.0478 0.23644 0.26898 0.0
C3 C 0.02875 0.23056 0.21506 0.0
C4 C 0.05766 0.26014 0.2854 0.0
N5 N 0.05744 0.28546 0.26832 0.0
C6 C 0.06426 0.25933 0.31919 0.0
H7 H 1.00415 0.23163 0.21598 0.0
H8 H 0.03553 0.20658 0.21672 0.0
H9 H 0.03623 0.24009 0.19291 0.0
H10 H 0.08761 0.26628 0.32308 0.0
H11 H 0.06107 0.23665 0.32927 0.0
H12 H 0.04975 0.27565 0.33127 0.0
C13 C 0.78881 0.00877 0.24447 0.0
N14 N 0.75902 0.01457 0.24378 0.0
N15 N 0.80023 0.01471 0.27261 0.0
C16 C 0.80689 0.99761 0.21803 0.0
C17 C 0.77662 0.02436 0.28884 0.0
N18 N 0.75178 0.02435 0.27152 0.0
C19 C 0.77713 0.03101 0.32267 0.0
H20 H 0.8056 0.97268 0.21727 0.0
H21 H 0.83055 1.00408 0.22077 0.0
H22 H 0.79819 1.00675 0.19619 0.0
H23 H 0.76848 0.05404 0.32677 0.0
H24 H 0.79972 0.02957 0.33261 0.0
H25 H 0.76234 0.01497 0.3348 0.0
C26 C 0.01726 0.76937 0.24474 0.0
N27 N 1.01146 0.77016 0.27518 0.0
N28 N 1.01031 0.74202 0.2331 0.0
C29 C 0.02989 0.79483 0.22632 0.0
C30 C 1.00027 0.72622 0.25736 0.0
N31 N 1.0008 0.74329 0.28285 0.0
C32 C 0.99335 0.69296 0.25694 0.0
H33 H 0.02253 0.81685 0.23561 0.0
H34 H 0.02306 0.7929 0.20203 0.0
H35 H 0.05449 0.79378 0.22735 0.0
H36 H 0.99616 0.68281 0.23401 0.0
H37 H 0.97005 0.6894 0.26433 0.0
H38 H 1.00797 0.68102 0.27341 0.0
C39 C 0.26966 0.9884 0.24053 0.0
N40 N 0.29914 0.98168 0.23998 0.0
N41 N 0.25792 0.98189 0.2683 0.0
C42 C 0.25229 1.00156 0.21451 0.0
C43 C 0.28109 0.97108 0.2845 0.0
N44 N 0.30609 0.97098 0.26745 0.0
C45 C 0.28023 0.96454 0.31838 0.0
H46 H 0.25431 0.02646 0.21514 0.0
H47 H 0.22841 0.99569 0.2166 0.0
H48 H 0.26101 0.99339 0.19231 0.0
H49 H 0.25751 0.96586 0.328 0.0
H50 H 0.29469 0.9808 0.3306 0.0
H51 H 0.28901 0.94161 0.32275 0.0
C52 C 0.0148 0.76883 0.76462 0.0
N53 N 1.01131 0.73845 0.76467 0.0
N54 N 1.00919 0.78016 0.7364 0.0
C55 C 0.02279 0.78747 0.79196 0.0
C56 C 1.0027 0.75571 0.71931 0.0
N57 N 1.00359 0.73054 0.73653 0.0
C58 C 0.99842 0.75613 0.68511 0.0
H59 H 0.01363 0.7773 0.81312 0.0
H60 H 0.01444 0.81086 0.78937 0.0
H61 H 0.04734 0.78828 0.79406 0.0
H62 H 1.00984 0.77563 0.67448 0.0
H63 H 0.97433 0.75782 0.68006 0.0
H64 H 1.00702 0.7352 0.67448 0.0
C65 C 0.26791 0.03175 0.76743 0.0
N66 N 0.29803 0.03463 0.76703 0.0
N67 N 0.25649 0.03651 0.73909 0.0
C68 C 0.24959 0.02499 0.7952 0.0
C69 C 0.28052 0.04186 0.7215 0.0
N70 N 0.30553 0.0412 0.73843 0.0
C71 C 0.27988 0.04448 0.68706 0.0
H72 H 0.24859 1.00023 0.79845 0.0
H73 H 0.22658 0.03352 0.79231 0.0
H74 H 0.25977 0.03515 0.81585 0.0
H75 H 0.2811 0.06864 0.6807 0.0
H76 H 0.25937 0.03479 0.6771 0.0
H77 H 0.29916 0.03281 0.67663 0.0
C78 C 0.02325 0.24796 0.76324 0.0
N79 N 0.01583 0.24632 0.73329 0.0
N80 N 0.01552 0.27516 0.77477 0.0
C81 C 0.03894 0.22373 0.78083 0.0
C82 C 1.00341 0.28994 0.75081 0.0
N83 N 1.00345 0.27238 0.72562 0.0
C84 C 0.99486 0.32281 0.75101 0.0
H85 H 0.03483 0.22615 0.80571 0.0
H86 H 0.06318 0.22566 0.77665 0.0
H87 H 0.03162 0.20116 0.773 0.0
H88 H 1.00805 0.33514 0.73361 0.0
H89 H 0.99828 0.33351 0.7736 0.0
H90 H 0.97109 0.32507 0.74479 0.0
C91 C 0.7891 0.01035 0.76332 0.0
N92 N 0.7592 1.00539 0.76424 0.0
N93 N 0.8 1.00471 0.73489 0.0
C94 C 0.80766 0.0208 0.78968 0.0
C95 C 0.77594 0.99607 0.71881 0.0
N96 N 0.75135 0.9965 0.7364 0.0
C97 C 0.7759 0.99033 0.68485 0.0
H98 H 0.80679 0.04574 0.79082 0.0
H99 H 0.83117 0.01391 0.78658 0.0
H100 H 0.799 0.01154 0.81148 0.0
H101 H 0.79803 0.98273 0.6768 0.0
H102 H 0.77009 0.01153 0.6728 0.0
H103 H 0.75912 0.97308 0.67877 0.0
C104 C 0.27069 0.25057 0.01447 0.0
N105 N 0.30047 0.24921 0.02056 0.0
N106 N 0.25983 0.27877 0.01981 0.0
C107 C 0.25211 0.22473 0.00358 0.0
C108 C 0.28381 0.29431 0.02941 0.0
N109 N 0.30825 0.27661 0.02991 0.0
C110 C 0.28406 0.32777 0.03563 0.0
H111 H 0.25377 0.22325 0.97834 0.0
H112 H 0.22843 0.22822 0.00971 0.0
H113 H 0.26016 0.20324 0.01355 0.0
H114 H 0.29258 0.33193 0.05901 0.0
H115 H 0.26175 0.33815 0.0338 0.0
H116 H 0.29929 0.33909 0.01933 0.0
C117 C 0.27251 0.76613 0.99329 0.0
N118 N 0.30233 0.7673 0.98725 0.0
N119 N 0.26153 0.73796 0.98814 0.0
C120 C 0.254 0.79217 0.00388 0.0
C121 C 0.28545 0.72223 0.97867 0.0
N122 N 0.30997 0.73979 0.97806 0.0
C123 C 0.28555 0.68874 0.97259 0.0
H124 H 0.25562 0.79388 0.02911 0.0
H125 H 0.23032 0.78872 0.99775 0.0
H126 H 0.26213 0.81352 0.99371 0.0
H127 H 0.29393 0.68445 0.94918 0.0
H128 H 0.2632 0.67848 0.97458 0.0
H129 H 0.30082 0.6774 0.98886 0.0
C130 C 0.74681 0.26245 0.03611 0.0
N131 N 0.76417 0.28718 0.03468 0.0
N132 N 0.7615 0.23792 0.02611 0.0
C133 C 0.71407 0.26302 0.04358 0.0
C134 C 0.7889 0.24862 0.0187 0.0
N135 N 0.79058 0.27889 0.02397 0.0
C136 C 0.81354 0.22948 0.00633 0.0
H137 H 0.70558 0.2403 0.04944 0.0
H138 H 0.70163 0.27161 0.02348 0.0
H139 H 0.7097 0.27833 0.06306 0.0
H140 H 0.81355 0.23107 0.98104 0.0
H141 H 0.81025 0.20554 0.0128 0.0
H142 H 0.83534 0.23745 0.01493 0.0
C143 C 0.74436 0.75432 0.99026 0.0
N144 N 0.76212 0.72993 0.99181 0.0
N145 N 0.76035 0.77985 0.99265 0.0
C146 C 0.7109 0.75317 0.98844 0.0
C147 C 0.78889 0.76997 0.99548 0.0
N148 N 0.78998 0.73927 0.99506 0.0
C149 C 0.8152 0.79005 1.00032 0.0
H150 H 0.70174 0.77401 0.97808 0.0
H151 H 0.7018 0.75086 0.01188 0.0
H152 H 0.70334 0.73356 0.97487 0.0
H153 H 0.80822 0.81264 0.00843 0.0
H154 H 0.82715 0.79269 0.97831 0.0
H155 H 0.83076 0.77969 0.01698 0.0
C156 C 0.50672 0.74706 0.74353 0.0
N157 N 0.50576 0.77763 0.74305 0.0
N158 N 0.50185 0.7367 0.77228 0.0
C159 C 0.51184 0.7274 0.71621 0.0
C160 C 0.49843 0.76191 0.78919 0.0
N161 N 0.50045 0.78663 0.77142 0.0
C162 C 0.49596 0.76236 0.82357 0.0
H163 H 0.50202 0.70475 0.71979 0.0
H164 H 0.53611 0.72473 0.71271 0.0
H165 H 0.50225 0.73787 0.69539 0.0
H166 H 0.50913 0.7438 0.83386 0.0
H167 H 0.47236 0.75906 0.83001 0.0
H168 H 0.50362 0.78401 0.83337 0.0
C169 C 0.2883 0.50724 0.74311 0.0
N170 N 0.25859 0.51341 0.74241 0.0
N171 N 0.29993 0.51379 0.77102 0.0
C172 C 0.3061 0.49508 0.71694 0.0
C173 C 0.27651 0.52414 0.7871 0.0
N174 N 0.25159 0.52397 0.76992 0.0
C175 C 0.27723 0.53146 0.82079 0.0
H176 H 0.3045 0.47015 0.71693 0.0
H177 H 0.32985 0.50133 0.71935 0.0
H178 H 0.29739 0.50369 0.69487 0.0
H179 H 0.29985 0.53003 0.83065 0.0
H180 H 0.26238 0.51579 0.83332 0.0
H181 H 0.26878 0.55464 0.82446 0.0
C182 C 0.53547 0.26696 0.7448 0.0
N183 N 0.54387 0.26929 0.77442 0.0
N184 N 0.54221 0.23926 0.73388 0.0
C185 C 0.51958 0.29097 0.72708 0.0
C186 C 0.5548 0.22492 0.75785 0.0
N187 N 0.55592 0.24318 0.78249 0.0
C188 C 0.56275 0.19191 0.75833 0.0
H189 H 0.49546 0.28947 0.73204 0.0
H190 H 0.52294 0.28787 0.70216 0.0
H191 H 0.52742 0.31362 0.73409 0.0
H192 H 0.55966 0.18099 0.7358 0.0
H193 H 0.5489 0.18012 0.77557 0.0
H194 H 0.58632 0.18923 0.76518 0.0
C195 C 0.76926 0.48735 0.74224 0.0
N196 N 0.79891 0.4814 0.74169 0.0
N197 N 0.75778 0.48105 0.77017 0.0
C198 C 0.75145 0.49947 0.716 0.0
C199 C 0.78127 0.47114 0.78648 0.0
N200 N 0.8062 0.47134 0.76932 0.0
C201 C 0.78067 0.46508 0.82045 0.0
H202 H 0.75292 0.52441 0.71599 0.0
H203 H 0.72772 0.4931 0.71839 0.0
H204 H 0.76023 0.49094 0.69396 0.0
H205 H 0.78973 0.44231 0.82509 0.0
H206 H 0.75798 0.46627 0.83019 0.0
H207 H 0.79502 0.48166 0.83236 0.0
C208 C 0.51149 0.26827 0.26579 0.0
N209 N 0.50809 0.23787 0.26629 0.0
N210 N 0.50583 0.2792 0.23741 0.0
C211 C 0.51953 0.28731 0.29284 0.0
C212 C 0.49939 0.2545 0.22069 0.0
N213 N 0.50036 0.22956 0.23827 0.0
C214 C 0.49514 0.25441 0.18649 0.0
H215 H 0.51043 0.27742 0.31417 0.0
H216 H 0.51113 0.31064 0.28993 0.0
H217 H 0.54408 0.28819 0.29486 0.0
H218 H 0.50627 0.27393 0.17557 0.0
H219 H 0.47102 0.25567 0.1814 0.0
H220 H 0.50404 0.23348 0.17613 0.0
C221 C 0.76875 0.52647 0.26575 0.0
N222 N 0.79833 0.53274 0.26581 0.0
N223 N 0.75662 0.53329 0.23825 0.0
C224 C 0.75162 0.51352 0.29205 0.0
C225 C 0.77965 0.54381 0.22166 0.0
N226 N 0.80494 0.5435 0.23827 0.0
C227 C 0.77831 0.55046 0.18783 0.0
H228 H 0.75327 0.4886 0.29132 0.0
H229 H 0.7278 0.51978 0.29038 0.0
H230 H 0.7608 0.52151 0.31412 0.0
H231 H 0.78686 0.57347 0.18345 0.0
H232 H 0.75547 0.54905 0.17851 0.0
H233 H 0.79272 0.53436 0.17533 0.0
C234 C 0.54558 0.74735 0.26325 0.0
N235 N 0.54924 0.74645 0.23246 0.0
N236 N 0.55132 0.7754 0.27396 0.0
C237 C 0.53719 0.72103 0.28294 0.0
C238 C 0.55807 0.79154 0.24874 0.0
N239 N 0.55725 0.77391 0.22369 0.0
C240 C 0.56233 0.82527 0.24819 0.0
H241 H 0.51262 0.71922 0.28364 0.0
H242 H 0.54537 0.72419 0.30663 0.0
H243 H 0.54627 0.69979 0.27337 0.0
H244 H 0.58645 0.83028 0.24911 0.0
H245 H 0.55139 0.8363 0.26794 0.0
H246 H 0.55321 0.83526 0.22693 0.0
C247 C 0.28782 0.52182 0.26381 0.0
N248 N 0.25818 0.52815 0.26461 0.0
N249 N 0.29913 0.52733 0.23554 0.0
C250 C 0.30581 0.5104 0.29022 0.0
C251 C 0.27557 0.5372 0.21934 0.0
N252 N 0.25085 0.53777 0.23682 0.0
C253 C 0.27594 0.54326 0.18537 0.0
H254 H 0.32958 0.51639 0.28733 0.0
H255 H 0.30403 0.4855 0.29114 0.0
H256 H 0.29737 0.51977 0.31205 0.0
H257 H 0.26052 0.52753 0.17369 0.0
H258 H 0.29836 0.54089 0.17521 0.0
H259 H 0.268 0.5665 0.18094 0.0
C260 C 0.77101 0.7502 0.5114 0.0
N261 N 0.80138 0.74905 0.51165 0.0
N262 N 0.76119 0.77932 0.51176 0.0
C263 C 0.75107 0.72321 0.51238 0.0
C264 C 0.78644 0.79563 0.51192 0.0
N265 N 0.8105 0.77753 0.51208 0.0
C266 C 0.78758 0.8296 0.51215 0.0
H267 H 0.74831 0.71441 0.48884 0.0
H268 H 0.72885 0.72926 0.52148 0.0
H269 H 0.76115 0.70517 0.52657 0.0
H270 H 0.78784 0.83746 0.5362 0.0
H271 H 0.76784 0.83939 0.50066 0.0
H272 H 0.80787 0.83818 0.50075 0.0
C273 C 0.77083 0.26386 0.49394 0.0
N274 N 0.80058 0.26511 0.4876 0.0
N275 N 0.75991 0.23561 0.48903 0.0
C276 C 0.75235 0.28988 0.50462 0.0
C277 C 0.78381 0.21993 0.47942 0.0
N278 N 0.80825 0.23759 0.47848 0.0
C279 C 0.78398 0.18643 0.47343 0.0
H280 H 0.75414 0.29164 0.52984 0.0
H281 H 0.72863 0.28638 0.49867 0.0
H282 H 0.76037 0.31123 0.49436 0.0
H283 H 0.79188 0.18214 0.44984 0.0
H284 H 0.76175 0.17603 0.47594 0.0
H285 H 0.79967 0.17522 0.48936 0.0
C286 C 0.24499 0.76058 0.53757 0.0
N287 N 0.26273 0.78511 0.53685 0.0
N288 N 0.25946 0.73607 0.52712 0.0
C289 C 0.21225 0.76138 0.54515 0.0
C290 C 0.287 0.74657 0.52003 0.0
N291 N 0.28905 0.77668 0.52597 0.0
C292 C 0.31147 0.72735 0.50742 0.0
H293 H 0.20192 0.73874 0.545 0.0
H294 H 0.20051 0.77596 0.52844 0.0
H295 H 0.20902 0.77127 0.56816 0.0
H296 H 0.31132 0.72902 0.48213 0.0
H297 H 0.30808 0.7034 0.5138 0.0
H298 H 0.33338 0.73514 0.51591 0.0
C299 C 0.24665 0.25514 0.46807 0.0
N300 N 0.26407 0.23035 0.46881 0.0
N301 N 0.26129 0.27936 0.47893 0.0
C302 C 0.21393 0.25481 0.46036 0.0
C303 C 0.28863 0.26843 0.48622 0.0
N304 N 0.29039 0.23836 0.48 0.0
C305 C 0.31313 0.28719 0.49941 0.0
H306 H 0.2106 0.24463 0.43751 0.0
H307 H 0.20401 0.27765 0.46011 0.0
H308 H 0.20189 0.24075 0.47729 0.0
H309 H 0.31263 0.28523 0.52467 0.0
H310 H 0.31007 0.31126 0.49329 0.0
H311 H 0.33506 0.27924 0.49112 0.0
C312 C 0.03282 0.94051 0.58265 0.0
C313 C 0.03376 0.93153 0.43435 0.0
C314 C 0.03268 0.08533 0.57377 0.0
C315 C 0.03269 0.07662 0.42517 0.0
C316 C 0.96283 0.08242 0.49956 0.0
C317 C 0.96321 0.93453 0.50861 0.0
C318 C 0.1068 0.0804 0.49892 0.0
C319 C 0.10713 0.93729 0.5089 0.0
C320 C 0.10435 1.00491 0.42899 0.0
C321 C 0.96144 1.00491 0.42879 0.0
C322 C 0.1041 0.01215 0.57897 0.0
C323 C 0.96105 0.01178 0.57831 0.0
Eu324 Eu 0.03445 0.9516 0.5075 0.0
O325 O 1.007 0.97999 0.47883 0.0
O326 O 0.06022 0.98359 0.53273 0.0
Eu327 Eu 0.97642 0.00844 0.50357 0.0
Eu328 Eu 0.08986 0.00885 0.50397 0.0
O329 O 1.00694 0.98334 0.53192 0.0
O330 O 0.06032 0.98034 0.47843 0.0
Eu331 Eu 0.03291 0.01182 0.56099 0.0
Eu332 Eu 0.03313 1.00516 0.44683 0.0
O333 O 1.00691 0.03683 0.5286 0.0
O334 O 1.0071 0.03383 0.47574 0.0
O335 O 0.06007 0.03383 0.47514 0.0
O336 O 0.06012 0.03712 0.52967 0.0
Eu337 Eu 0.03424 0.06577 0.50047 0.0
O338 O 0.03303 0.9293 0.55431 0.0
O339 O 0.03404 0.92373 0.46387 0.0
O340 O 0.0349 0.09343 0.5444 0.0
O341 O 0.03257 0.08796 0.45349 0.0
O342 O 0.95278 0.05399 0.49996 0.0
O343 O 0.95292 0.96274 0.50567 0.0
O344 O 0.11512 0.0519 0.50209 0.0
O345 O 0.11535 0.96585 0.50594 0.0
O346 O 0.07593 1.00372 0.42078 0.0
O347 O 0.98992 1.00458 0.42041 0.0
O348 O 0.0757 0.01236 0.5874 0.0
O349 O 0.98947 0.01194 0.58691 0.0
O350 O 0.07877 0.09036 0.49704 0.0
O351 O 0.99116 0.09096 0.50015 0.0
O352 O 0.07914 0.92723 0.51058 0.0
O353 O 0.99159 0.92625 0.5099 0.0
O354 O 0.03346 0.95968 0.42369 0.0
O355 O 0.03328 0.04743 0.41818 0.0
O356 O 0.03311 0.96965 0.58981 0.0
O357 O 0.03125 0.05714 0.58413 0.0
O358 O 0.95152 0.01106 0.54927 0.0
O359 O 0.95174 1.00582 0.45775 0.0
O360 O 0.11406 0.0115 0.55009 0.0
O361 O 0.11428 1.00717 0.45782 0.0
C362 C 0.53367 0.92609 0.06512 0.0
C363 C 0.52434 0.07 0.08757 0.0
C364 C 0.52824 0.94858 0.91912 0.0
C365 C 0.53479 0.09241 0.94188 0.0
C366 C 0.6019 0.01691 0.92956 0.0
C367 C 0.60193 1.00246 0.07777 0.0
C368 C 0.45689 0.01847 0.92977 0.0
C369 C 0.45717 0.99965 0.07703 0.0
C370 C 0.45639 0.08241 0.01053 0.0
C371 C 0.6023 0.08149 0.01366 0.0
C372 C 0.45713 0.9354 0.99577 0.0
C373 C 0.60299 0.93766 0.99408 0.0
Eu374 Eu 0.52958 1.00077 0.06063 0.0
O375 O 0.55586 0.03221 0.03454 0.0
O376 O 0.50317 0.9786 0.02619 0.0
Eu377 Eu 0.58569 0.00952 0.00363 0.0
Eu378 Eu 0.47289 0.00898 0.00336 0.0
O379 O 0.55603 0.97881 0.02627 0.0
O380 O 0.50314 0.03148 0.03385 0.0
Eu381 Eu 0.52985 0.95254 0.99485 0.0
Eu382 Eu 0.52924 0.06597 0.01202 0.0
O383 O 0.5559 0.98686 0.97266 0.0
O384 O 0.55555 0.03969 0.98082 0.0
O385 O 0.50272 0.03985 0.98051 0.0
O386 O 0.50323 0.9866 0.97271 0.0
Eu387 Eu 0.52939 0.01784 0.94623 0.0
O388 O 0.53351 0.95305 0.07867 0.0
O389 O 0.52604 0.04045 0.09267 0.0
O390 O 0.52698 0.97817 0.91426 0.0
O391 O 0.53405 0.06551 0.92824 0.0
O392 O 0.6108 0.01489 0.95867 0.0
O393 O 0.61087 1.00452 0.04868 0.0
O394 O 0.44812 0.01263 0.95833 0.0
O395 O 0.44826 1.00536 0.04848 0.0
O396 O 0.48478 0.09127 0.01308 0.0
O397 O 0.57401 0.09094 0.01582 0.0
O398 O 0.4856 0.9269 0.99271 0.0
O399 O 0.57481 0.9279 0.99253 0.0
O400 O 0.48514 0.02243 0.92098 0.0
O401 O 0.57353 0.01779 0.92037 0.0
O402 O 0.48543 0.99588 0.0858 0.0
O403 O 0.57353 1.00122 0.08681 0.0
O404 O 0.5256 0.0835 0.06033 0.0
O405 O 0.53221 0.09743 0.97176 0.0
O406 O 0.53147 0.92106 0.03521 0.0
O407 O 0.53017 0.93494 0.94627 0.0
O408 O 0.61126 0.96623 0.9978 0.0
O409 O 0.61074 0.05308 0.00913 0.0
O410 O 0.4481 0.96391 0.99999 0.0
O411 O 0.44762 0.05377 0.00686 0.0
C412 C 0.02606 0.43971 0.08131 0.0
C413 C 0.02811 0.43198 0.93454 0.0
C414 C 0.02694 0.58622 0.07293 0.0
C415 C 0.02789 0.57842 0.92608 0.0
C416 C 0.95423 0.58276 0.99945 0.0
C417 C 0.95394 0.43582 0.0075 0.0
C418 C 0.09901 0.58338 1.00102 0.0
C419 C 0.09874 0.43488 0.00726 0.0
C420 C 0.09838 0.50703 0.92932 0.0
C421 C 0.95614 0.50413 0.92904 0.0
C422 C 0.09807 0.51291 0.07854 0.0
C423 C 0.95587 0.51426 0.07817 0.0
Eu424 Eu 0.02653 0.45244 0.00696 0.0
O425 O 1.00018 0.48122 0.97823 0.0
O426 O 0.05374 0.48377 0.03212 0.0
Eu427 Eu 0.96984 0.50925 0.00364 0.0
Eu428 Eu 0.08423 0.50918 0.00393 0.0
O429 O 0.99989 0.48392 0.03226 0.0
O430 O 0.05363 0.48118 0.97867 0.0
Eu431 Eu 0.02699 0.512 0.06094 0.0
Eu432 Eu 0.02718 0.50613 0.94656 0.0
O433 O 1.00035 0.53708 0.029 0.0
O434 O 1.0001 0.5345 0.97511 0.0
O435 O 0.05378 0.53436 0.97554 0.0
O436 O 0.05352 0.53714 0.02903 0.0
Eu437 Eu 0.02679 0.56592 1.00044 0.0
O438 O 0.02529 0.42936 0.05278 0.0
O439 O 0.02726 0.42471 0.96403 0.0
O440 O 0.0263 0.59351 0.04344 0.0
O441 O 0.02802 0.58884 0.95458 0.0
O442 O 0.94508 0.55409 1.001 0.0
O443 O 0.94491 0.46458 0.00715 0.0
O444 O 0.1086 0.55477 1.00299 0.0
O445 O 0.10845 0.46344 0.00501 0.0
O446 O 0.0701 0.50512 0.92083 0.0
O447 O 0.98449 0.50464 0.92059 0.0
O448 O 0.06971 0.51277 0.08696 0.0
O449 O 0.98418 0.51344 0.08674 0.0
O450 O 0.07048 0.59172 0.99956 0.0
O451 O 0.9827 0.59153 0.99874 0.0
O452 O 0.0702 0.42667 0.00881 0.0
O453 O 0.98237 0.42687 0.00699 0.0
O454 O 0.02834 0.46006 0.92341 0.0
O455 O 0.02713 0.54933 0.91819 0.0
O456 O 0.02724 0.46877 0.08923 0.0
O457 O 0.02761 0.55813 0.08407 0.0
O458 O 0.94581 0.5135 0.04939 0.0
O459 O 0.94596 0.50511 0.95777 0.0
O460 O 0.10822 0.51203 0.0498 0.0
O461 O 0.10834 0.50918 0.95806 0.0
C462 C 0.52931 0.43864 0.082 0.0
C463 C 0.53127 0.58362 0.07426 0.0
C464 C 0.53283 0.43095 0.93344 0.0
C465 C 0.52968 0.5759 0.92586 0.0
C466 C 0.60281 0.50324 0.92968 0.0
C467 C 0.60141 0.51087 0.07947 0.0
C468 C 0.45976 0.50371 0.9285 0.0
C469 C 0.4585 0.51082 0.07811 0.0
C470 C 0.46097 0.58134 1.00018 0.0
C471 C 0.60483 0.57864 1.00154 0.0
C472 C 0.46056 0.43326 0.00679 0.0
C473 C 0.60429 0.43561 0.01235 0.0
Eu474 Eu 0.53029 0.51019 0.06094 0.0
O475 O 0.5578 0.53528 0.02992 0.0
O476 O 0.50447 0.4817 0.03158 0.0
Eu477 Eu 0.58762 0.50703 0.00446 0.0
Eu478 Eu 0.47415 0.50721 0.00345 0.0
O479 O 0.55737 0.48187 0.03251 0.0
O480 O 0.50444 0.53553 0.02877 0.0
Eu481 Eu 0.53186 0.45001 0.00684 0.0
Eu482 Eu 0.53226 0.56426 1.00094 0.0
O483 O 0.55826 0.47882 0.9783 0.0
O484 O 0.55841 0.53265 0.97543 0.0
O485 O 0.50523 0.53252 0.97598 0.0
O486 O 0.50485 0.47902 0.97843 0.0
Eu487 Eu 0.53142 0.50432 0.94682 0.0
O488 O 0.53033 0.46773 0.08935 0.0
O489 O 0.52961 0.5554 0.08455 0.0
O490 O 0.53249 0.45921 0.92318 0.0
O491 O 0.53091 0.54683 0.91843 0.0
O492 O 0.6125 0.50468 0.95864 0.0
O493 O 0.61155 0.50898 0.05073 0.0
O494 O 0.44985 0.50458 0.9574 0.0
O495 O 0.44901 0.50917 0.0491 0.0
O496 O 0.48935 0.58966 1.00102 0.0
O497 O 0.57692 0.58878 0.99892 0.0
O498 O 0.4889 0.42476 0.00642 0.0
O499 O 0.57634 0.42537 0.01114 0.0
O500 O 0.4883 0.50347 0.92029 0.0
O501 O 0.57446 0.50312 0.92112 0.0
O502 O 0.48689 0.51152 0.08672 0.0
O503 O 0.57291 0.51172 0.0875 0.0
O504 O 0.53301 0.59164 0.04486 0.0
O505 O 0.52978 0.58687 0.95431 0.0
O506 O 0.52912 0.42756 0.05359 0.0
O507 O 0.53254 0.42263 0.96281 0.0
O508 O 0.61274 0.46412 0.00965 0.0
O509 O 0.61302 0.55004 0.00408 0.0
O510 O 0.45046 0.46168 0.00652 0.0
O511 O 0.45072 0.55296 1.00011 0.0
C512 C 0.02377 0.42436 0.56624 0.0
C513 C 0.03386 0.44506 0.42025 0.0
C514 C 0.02357 0.56871 0.58688 0.0
C515 C 0.02423 0.58923 0.44082 0.0
C516 C 0.95483 0.5798 0.50987 0.0
C517 C 0.95591 0.43272 0.49533 0.0
C518 C 0.10073 0.57923 0.51275 0.0
C519 C 0.10177 0.43511 0.49617 0.0
C520 C 0.10082 0.51599 0.43031 0.0
C521 C 0.956 0.51335 0.42897 0.0
C522 C 0.10005 0.49944 0.57825 0.0
C523 C 0.95516 0.49871 0.57691 0.0
Eu524 Eu 0.02859 0.45001 0.49573 0.0
O525 O 1.0017 0.4834 0.47256 0.0
O526 O 0.05467 0.47632 0.5274 0.0
Eu527 Eu 0.97133 0.50629 0.50303 0.0
Eu528 Eu 0.0841 0.50708 0.50416 0.0
O529 O 1.00187 0.47676 0.52626 0.0
O530 O 0.05439 0.48433 0.47354 0.0
Eu531 Eu 0.02766 0.49897 0.56096 0.0
Eu532 Eu 0.0282 0.51464 0.44623 0.0
O533 O 1.00137 0.52932 0.53353 0.0
O534 O 1.00162 0.53659 0.48043 0.0
O535 O 0.05449 0.53735 0.48037 0.0
O536 O 0.05407 0.53005 0.53459 0.0
Eu537 Eu 0.02772 0.56353 0.51138 0.0
O538 O 0.02572 0.41905 0.53637 0.0
O539 O 0.03292 0.4319 0.44767 0.0
O540 O 0.02463 0.58177 0.55943 0.0
O541 O 0.02624 0.59455 0.47069 0.0
O542 O 0.94609 0.55117 0.50592 0.0
O543 O 0.94684 0.4611 0.50015 0.0
O544 O 0.10919 0.55066 0.50938 0.0
O545 O 0.10982 0.46384 0.49894 0.0
O546 O 0.07256 0.51902 0.42118 0.0
O547 O 0.98436 0.51587 0.42016 0.0
O548 O 0.07164 0.49757 0.5872 0.0
O549 O 0.98341 0.49617 0.58604 0.0
O550 O 0.07242 0.58876 0.51399 0.0
O551 O 0.98319 0.5886 0.51291 0.0
O552 O 0.0736 0.42518 0.49523 0.0
O553 O 0.98439 0.42439 0.49176 0.0
O554 O 0.03156 0.47451 0.41476 0.0
O555 O 0.02457 0.56215 0.42754 0.0
O556 O 0.02463 0.4514 0.5796 0.0
O557 O 0.02506 0.53921 0.59242 0.0
O558 O 0.94629 0.50289 0.54805 0.0
O559 O 0.94683 0.50952 0.45775 0.0
O560 O 0.10906 0.50242 0.54928 0.0
O561 O 0.10943 0.51122 0.45919 0.0
C562 C 0.52498 0.93592 0.57983 0.0
C563 C 0.52615 0.93076 0.43295 0.0
C564 C 0.52403 0.08258 0.57415 0.0
C565 C 0.52626 0.07732 0.42714 0.0
C566 C 0.45246 0.08013 0.49902 0.0
C567 C 0.4525 0.93315 0.50693 0.0
C568 C 0.59724 0.08117 0.50244 0.0
C569 C 0.59738 0.93267 0.50569 0.0
C570 C 0.59751 1.00573 0.42983 0.0
C571 C 0.45532 1.00196 0.42806 0.0
C572 C 0.59569 1.0067 0.57907 0.0
C573 C 0.45357 0.00947 0.57729 0.0
Eu574 Eu 0.5251 0.94982 0.50561 0.0
O575 O 0.49887 0.97906 0.4772 0.0
O576 O 0.55168 0.98105 0.53148 0.0
Eu577 Eu 0.46822 1.00659 0.50281 0.0
Eu578 Eu 0.58256 1.00692 0.50433 0.0
O579 O 0.4982 0.98091 0.53115 0.0
O580 O 0.55243 0.97916 0.47815 0.0
Eu581 Eu 0.52476 0.00861 0.56072 0.0
Eu582 Eu 0.52614 1.00464 0.44633 0.0
O583 O 0.49829 0.03418 0.52903 0.0
O584 O 0.49878 0.0324 0.47519 0.0
O585 O 0.55231 0.03247 0.4761 0.0
O586 O 0.55177 0.03454 0.52983 0.0
Eu587 Eu 0.52507 0.06354 0.50132 0.0
O588 O 0.52581 0.926 0.55113 0.0
O589 O 0.52435 0.92285 0.46221 0.0
O590 O 0.52441 0.09035 0.54478 0.0
O591 O 0.52619 0.08728 0.45583 0.0
O592 O 0.44339 0.05138 0.49923 0.0
O593 O 0.4434 0.96187 0.50615 0.0
O594 O 0.60686 0.05257 0.50437 0.0
O595 O 0.60693 0.96134 0.50573 0.0
O596 O 0.56929 1.0042 0.421 0.0
O597 O 0.48373 1.00316 0.4199 0.0
O598 O 0.56726 1.00734 0.58725 0.0
O599 O 0.4818 0.00863 0.58607 0.0
O600 O 0.5687 0.08946 0.50078 0.0
O601 O 0.48088 0.08905 0.50005 0.0
O602 O 0.56889 0.92414 0.50534 0.0
O603 O 0.48094 0.92423 0.50656 0.0
O604 O 0.52771 0.95901 0.4224 0.0
O605 O 0.52586 0.04835 0.41877 0.0
O606 O 0.52403 0.96489 0.58816 0.0
O607 O 0.5241 0.05429 0.58479 0.0
O608 O 0.44374 0.00981 0.54841 0.0
O609 O 0.44487 1.00234 0.4567 0.0
O610 O 0.60612 1.00716 0.55045 0.0
O611 O 0.60719 1.00731 0.45871 0.0
H612 H 0.23948 0.19881 0.42285 0.0
H613 H 0.25932 0.19664 0.519 0.0
H614 H 0.20186 0.1595 0.43005 0.0
H615 H 0.22213 0.15736 0.52654 0.0
H616 H 0.16128 0.07525 0.52445 0.0
H617 H 0.20488 0.10598 0.51452 0.0
H618 H 0.15234 0.16455 0.45703 0.0
H619 H 0.10846 0.13323 0.46655 0.0
C620 C 0.23657 0.18886 0.44524 0.0
C621 C 0.25182 0.20061 0.47046 0.0
C622 C 0.21484 0.16687 0.4495 0.0
C623 C 0.20857 0.15609 0.47899 0.0
C624 C 0.22641 0.16536 0.50358 0.0
C625 C 0.24793 0.1875 0.49929 0.0
C626 C 0.15895 0.09479 0.50978 0.0
C627 C 0.13151 0.10189 0.49617 0.0
C628 C 0.18395 0.11232 0.50412 0.0
C629 C 0.18208 0.13728 0.48463 0.0
C630 C 0.15447 0.14496 0.47164 0.0
C631 C 0.12929 0.12744 0.47748 0.0
H632 H 0.84573 0.23479 0.52575 0.0
H633 H 0.83574 0.21157 0.43089 0.0
H634 H 0.88639 0.19849 0.53062 0.0
H635 H 0.87619 0.17483 0.43548 0.0
H636 H 0.90771 0.082 0.47304 0.0
H637 H 0.8748 0.12532 0.46533 0.0
H638 H 0.93716 0.18243 0.5128 0.0
H639 H 0.96981 0.13939 0.52072 0.0
C640 C 0.8533 0.22284 0.50565 0.0
C641 C 0.83781 0.22558 0.47804 0.0
C642 C 0.87624 0.20186 0.50844 0.0
C643 C 0.8838 0.18334 0.48359 0.0
C644 C 0.87028 0.18838 0.45513 0.0
C645 C 0.84757 0.20959 0.45234 0.0
C646 C 0.91416 0.10373 0.48209 0.0
C647 C 0.94128 0.10733 0.49741 0.0
C648 C 0.89561 0.12857 0.4773 0.0
C649 C 0.90376 0.15727 0.48808 0.0
C650 C 0.93045 0.16062 0.50415 0.0
C651 C 0.94908 0.13595 0.50864 0.0
H652 H 0.8421 0.79376 0.56082 0.0
H653 H 0.84347 0.78912 0.46271 0.0
H654 H 0.88272 0.8303 0.55991 0.0
H655 H 0.88371 0.82645 0.46135 0.0
H656 H 0.91023 0.92825 0.47852 0.0
H657 H 0.87818 0.88348 0.47827 0.0
H658 H 0.93703 0.83958 0.54224 0.0
H659 H 0.96897 0.8839 0.54237 0.0
C660 C 0.85237 0.79941 0.53919 0.0
C661 C 0.84041 0.78835 0.51188 0.0
C662 C 0.87519 0.82061 0.53857 0.0
C663 C 0.88586 0.83147 0.51052 0.0
C664 C 0.87555 0.81857 0.48322 0.0
C665 C 0.85309 0.79689 0.48396 0.0
C666 C 0.91604 0.90912 0.4927 0.0
C667 C 0.94194 0.90947 0.51049 0.0
C668 C 0.89806 0.88343 0.49222 0.0
C669 C 0.90552 0.85803 0.50991 0.0
C670 C 0.93097 0.85878 0.52828 0.0
C671 C 0.94912 0.88416 0.52838 0.0
H672 H 0.25848 0.81964 0.48714 0.0
H673 H 0.23876 0.81643 0.58328 0.0
H674 H 0.22193 0.85977 0.48028 0.0
H675 H 0.20177 0.85649 0.57674 0.0
H676 H 0.10848 0.88383 0.54019 0.0
H677 H 0.15213 0.85203 0.54927 0.0
H678 H 0.20539 0.91159 0.49368 0.0
H679 H 0.16202 0.94293 0.48426 0.0
C680 C 0.24727 0.8287 0.507 0.0
C681 C 0.25099 0.81509 0.53563 0.0
C682 C 0.22613 0.85132 0.50311 0.0
C683 C 0.20848 0.86053 0.52787 0.0
C684 C 0.21462 0.8492 0.55717 0.0
C685 C 0.23599 0.82676 0.56105 0.0
C686 C 0.12942 0.8898 0.52961 0.0
C687 C 0.13189 0.91579 0.51159 0.0
C688 C 0.15446 0.87197 0.53519 0.0
C689 C 0.18219 0.87975 0.52258 0.0
C690 C 0.18435 0.90519 0.50378 0.0
C691 C 0.15949 0.92306 0.49842 0.0
H692 H 0.5449 0.18942 0.23898 0.0
H693 H 0.45408 0.20267 0.21129 0.0
H694 H 0.548 0.14433 0.20687 0.0
H695 H 0.45682 0.15762 0.17913 0.0
H696 H 0.49846 0.12516 0.08756 0.0
H697 H 0.48874 0.15755 0.13105 0.0
H698 H 0.52774 0.09157 0.19154 0.0
H699 H 0.53758 0.05868 0.14766 0.0
C700 C 0.52529 0.18178 0.22696 0.0
C701 C 0.49938 0.19928 0.22703 0.0
C702 C 0.527 0.15613 0.20864 0.0
C703 C 0.50279 0.14795 0.19019 0.0
C704 C 0.47589 0.16378 0.19287 0.0
C705 C 0.47422 0.18932 0.21123 0.0
C706 C 0.50505 0.11748 0.11008 0.0
C707 C 0.51901 0.08951 0.11419 0.0
C708 C 0.49906 0.13584 0.13503 0.0
C709 C 0.50712 0.12679 0.16463 0.0
C710 C 0.52116 0.09887 0.1689 0.0
C711 C 0.52679 0.08018 0.14386 0.0
H712 H 0.84024 0.4953 0.23444 0.0
H713 H 0.83314 0.58885 0.20956 0.0
H714 H 0.87966 0.48838 0.19674 0.0
H715 H 0.87234 0.58212 0.17121 0.0
H716 H 0.90163 0.54219 0.07741 0.0
H717 H 0.86941 0.55187 0.12147 0.0
H718 H 0.93063 0.50384 0.17987 0.0
H719 H 0.9625 0.49391 0.13613 0.0
C720 C 0.84816 0.51464 0.22175 0.0
C721 C 0.83383 0.54251 0.22452 0.0
C722 C 0.87039 0.51068 0.19997 0.0
C723 C 0.87842 0.53457 0.18061 0.0
C724 C 0.86601 0.5632 0.18544 0.0
C725 C 0.844 0.56719 0.20751 0.0
C726 C 0.90791 0.5334 0.09959 0.0
C727 C 0.93449 0.51734 0.10339 0.0
C728 C 0.8898 0.53932 0.12483 0.0
C729 C 0.89788 0.52896 0.15408 0.0
C730 C 0.92399 0.51216 0.15762 0.0
C731 C 0.94216 0.5065 0.13256 0.0
H732 H 0.6036 0.79998 0.196 0.0
H733 H 0.51241 0.77373 0.18337 0.0
H734 H 0.60032 0.83317 0.15138 0.0
H735 H 0.50882 0.8068 0.13862 0.0
H736 H 0.51958 0.86735 0.05275 0.0
H737 H 0.52901 0.8233 0.08509 0.0
H738 H 0.56801 0.88096 0.15358 0.0
H739 H 0.55862 0.92478 0.12167 0.0
C740 C 0.5833 0.80048 0.18274 0.0
C741 C 0.55817 0.78484 0.19289 0.0
C742 C 0.5813 0.81949 0.1575 0.0
C743 C 0.55414 0.82289 0.14209 0.0
C744 C 0.53 0.80451 0.15015 0.0
C745 C 0.53201 0.78558 0.17556 0.0
C746 C 0.53022 0.87056 0.07471 0.0
C747 C 0.53823 0.89953 0.08478 0.0
C748 C 0.53563 0.84538 0.09308 0.0
C749 C 0.54964 0.84879 0.12149 0.0
C750 C 0.55771 0.8777 0.13145 0.0
C751 C 0.55194 0.90282 0.11337 0.0
H752 H 0.22305 0.58394 0.20922 0.0
H753 H 0.21408 0.49065 0.2343 0.0
H754 H 0.18298 0.57832 0.1717 0.0
H755 H 0.1738 0.48478 0.19728 0.0
H756 H 0.09085 0.49254 0.13648 0.0
H757 H 0.12299 0.50144 0.1803 0.0
H758 H 0.18533 0.54806 0.12208 0.0
H759 H 0.15292 0.5394 0.07799 0.0
C760 C 0.21155 0.5626 0.20745 0.0
C761 C 0.22149 0.53764 0.22418 0.0
C762 C 0.18904 0.55924 0.18583 0.0
C763 C 0.17593 0.53093 0.18113 0.0
C764 C 0.18365 0.50683 0.20039 0.0
C765 C 0.20637 0.51018 0.22177 0.0
C766 C 0.1115 0.5046 0.13297 0.0
C767 C 0.11945 0.51535 0.10384 0.0
C768 C 0.12981 0.50967 0.15808 0.0
C769 C 0.15632 0.52582 0.15461 0.0
C770 C 0.16464 0.53605 0.1254 0.0
C771 C 0.14641 0.5307 0.10013 0.0
H772 H 0.45827 0.82289 0.79407 0.0
H773 H 0.55185 0.81626 0.77522 0.0
H774 H 0.46705 0.86842 0.82463 0.0
H775 H 0.56105 0.86135 0.80632 0.0
H776 H 0.5549 0.89429 0.911 0.0
H777 H 0.54964 0.86049 0.86731 0.0
H778 H 0.49202 0.92481 0.82298 0.0
H779 H 0.49777 0.95912 0.86645 0.0
C780 C 0.48052 0.83201 0.7957 0.0
C781 C 0.50445 0.81663 0.78256 0.0
C782 C 0.48558 0.85784 0.81304 0.0
C783 C 0.51472 0.86807 0.81779 0.0
C784 C 0.53842 0.85376 0.80286 0.0
C785 C 0.53324 0.82827 0.78509 0.0
C786 C 0.54141 0.90134 0.89176 0.0
C787 C 0.52664 0.92915 0.89204 0.0
C788 C 0.53865 0.8822 0.86673 0.0
C789 C 0.52061 0.89032 0.84189 0.0
C790 C 0.50619 0.9183 0.84188 0.0
C791 C 0.5095 0.9378 0.86666 0.0
H792 H 0.22387 0.57129 0.79539 0.0
H793 H 0.21511 0.47685 0.77536 0.0
H794 H 0.18378 0.56749 0.83313 0.0
H795 H 0.17487 0.47275 0.81269 0.0
H796 H 0.09173 0.48323 0.87263 0.0
H797 H 0.1241 0.48983 0.82858 0.0
H798 H 0.1857 0.54022 0.88426 0.0
H799 H 0.15305 0.53394 0.92853 0.0
C800 C 0.21244 0.55003 0.79834 0.0
C801 C 0.22238 0.5243 0.78294 0.0
C802 C 0.18992 0.54772 0.82009 0.0
C803 C 0.17684 0.51967 0.82629 0.0
C804 C 0.18466 0.49462 0.80841 0.0
C805 C 0.20737 0.49695 0.78687 0.0
C806 C 0.11225 0.49565 0.87554 0.0
C807 C 0.1199 0.50816 0.90401 0.0
C808 C 0.13071 0.49939 0.8503 0.0
C809 C 0.15708 0.51591 0.85294 0.0
C810 C 0.16512 0.52789 0.88153 0.0
C811 C 0.14673 0.52391 0.90693 0.0
H812 H 0.60419 0.21869 0.80912 0.0
H813 H 0.51255 0.2422 0.8242 0.0
H814 H 0.60292 0.18562 0.85407 0.0
H815 H 0.51127 0.21011 0.86941 0.0
H816 H 0.52205 0.1514 0.95424 0.0
H817 H 0.53253 0.19522 0.92205 0.0
H818 H 0.57169 0.13696 0.85414 0.0
H819 H 0.56124 0.09329 0.88599 0.0
C820 C 0.58423 0.21766 0.82288 0.0
C821 C 0.5584 0.23255 0.81334 0.0
C822 C 0.58343 0.1988 0.84839 0.0
C823 C 0.55685 0.19505 0.86479 0.0
C824 C 0.53207 0.21273 0.85724 0.0
C825 C 0.53281 0.23124 0.83153 0.0
C826 C 0.53301 0.148 0.93248 0.0
C827 C 0.54052 0.11889 0.92244 0.0
C828 C 0.53909 0.17305 0.91422 0.0
C829 C 0.55325 0.16942 0.88591 0.0
C830 C 0.56126 0.14041 0.87617 0.0
C831 C 0.55482 0.11537 0.89418 0.0
H832 H 0.84078 0.52009 0.77196 0.0
H833 H 0.83563 0.4267 0.79786 0.0
H834 H 0.88016 0.52817 0.80949 0.0
H835 H 0.87482 0.43457 0.83597 0.0
H836 H 0.90226 0.47568 0.92956 0.0
H837 H 0.87058 0.46525 0.88528 0.0
H838 H 0.93137 0.51407 0.82716 0.0
H839 H 0.96273 0.52472 0.87116 0.0
C840 C 0.84917 0.50103 0.7848 0.0
C841 C 0.83533 0.47288 0.78244 0.0
C842 C 0.87137 0.50566 0.80648 0.0
C843 C 0.87986 0.48214 0.82612 0.0
C844 C 0.8681 0.4532 0.82154 0.0
C845 C 0.84612 0.44857 0.79959 0.0
C846 C 0.90854 0.4845 0.9074 0.0
C847 C 0.93487 0.50094 0.90374 0.0
C848 C 0.89076 0.47815 0.88203 0.0
C849 C 0.89892 0.48844 0.85279 0.0
C850 C 0.9247 0.50575 0.8494 0.0
C851 C 0.94257 0.51184 0.8746 0.0
H852 H 0.74961 0.69344 0.94501 0.0
H853 H 0.74653 0.70154 0.04285 0.0
H854 H 0.71193 0.65349 0.94714 0.0
H855 H 0.70973 0.66127 0.04545 0.0
H856 H 0.6544 0.57482 0.03578 0.0
H857 H 0.69882 0.60598 0.03251 0.0
H858 H 0.65629 0.66133 0.96411 0.0
H859 H 0.61145 0.62992 0.96738 0.0
C860 C 0.74213 0.68527 0.96702 0.0
C861 C 0.75123 0.69978 0.99383 0.0
C862 C 0.72025 0.66302 0.96825 0.0
C863 C 0.70772 0.65479 0.99643 0.0
C864 C 0.71915 0.66716 0.02346 0.0
C865 C 0.74055 0.68973 0.02211 0.0
C866 C 0.65446 0.59378 0.02015 0.0
C867 C 0.62958 0.60012 1.00182 0.0
C868 C 0.67989 0.61146 0.01825 0.0
C869 C 0.68105 0.6356 0.99771 0.0
C870 C 0.65601 0.64237 0.9797 0.0
C871 C 0.63028 0.62484 0.98191 0.0
H872 H 0.34634 0.73589 0.02612 0.0
H873 H 0.33824 0.7142 0.93071 0.0
H874 H 0.38596 0.69851 0.03156 0.0
H875 H 0.3777 0.67645 0.93583 0.0
H876 H 0.4065 0.5824 0.97221 0.0
H877 H 0.37462 0.62654 0.96448 0.0
H878 H 0.43652 0.68131 0.01534 0.0
H879 H 0.46806 0.63746 0.02332 0.0
C880 C 0.35418 0.72406 0.00605 0.0
C881 C 0.33945 0.72756 0.97808 0.0
C882 C 0.3765 0.70244 0.00916 0.0
C883 C 0.38423 0.68404 0.98427 0.0
C884 C 0.37161 0.68986 0.95552 0.0
C885 C 0.34951 0.71169 0.95242 0.0
C886 C 0.41301 0.60379 0.98204 0.0
C887 C 0.4397 0.60652 0.99829 0.0
C888 C 0.39508 0.6291 0.97724 0.0
C889 C 0.40343 0.6574 0.98892 0.0
C890 C 0.42964 0.65983 0.00599 0.0
C891 C 0.44763 0.6347 0.01052 0.0
H892 H 0.34454 0.2799 0.98176 0.0
H893 H 0.33681 0.30223 0.07706 0.0
H894 H 0.38459 0.3167 0.97606 0.0
H895 H 0.37669 0.33945 0.07166 0.0
H896 H 0.40601 0.43294 0.03444 0.0
H897 H 0.37379 0.38917 0.04244 0.0
H898 H 0.43547 0.3334 0.99234 0.0
H899 H 0.46739 0.37691 0.98411 0.0
C900 C 0.35253 0.29175 1.00175 0.0
C901 C 0.33779 0.28863 0.02975 0.0
C902 C 0.37511 0.31303 0.9985 0.0
C903 C 0.38307 0.33145 0.02326 0.0
C904 C 0.37042 0.32599 0.05207 0.0
C905 C 0.34806 0.30449 0.05531 0.0
C906 C 0.4124 0.41142 0.02482 0.0
C907 C 0.43913 0.40829 0.00871 0.0
C908 C 0.39428 0.38631 0.02979 0.0
C909 C 0.40249 0.35784 0.01841 0.0
C910 C 0.42873 0.35502 1.00147 0.0
C911 C 0.44692 0.37995 0.99678 0.0
H912 H 0.75048 0.31484 0.98261 0.0
H913 H 0.74746 0.32364 0.08042 0.0
H914 H 0.71184 0.3534 0.97748 0.0
H915 H 0.70898 0.36248 0.07568 0.0
H916 H 0.65192 0.44533 0.04815 0.0
H917 H 0.69618 0.4141 0.05322 0.0
H918 H 0.65671 0.3475 0.99396 0.0
H919 H 0.61205 0.37898 0.98885 0.0
C920 C 0.74251 0.32629 1.00286 0.0
C921 C 0.75172 0.31671 0.03186 0.0
C922 C 0.72009 0.34775 1.00003 0.0
C923 C 0.70702 0.3602 0.02624 0.0
C924 C 0.71864 0.35305 0.05515 0.0
C925 C 0.74085 0.33127 0.05792 0.0
C926 C 0.65262 0.42388 0.03637 0.0
C927 C 0.62874 0.41447 0.018 0.0
C928 C 0.67792 0.40611 0.03929 0.0
C929 C 0.67996 0.37875 0.02359 0.0
C930 C 0.65576 0.36887 0.00584 0.0
C931 C 0.63015 0.38654 0.00324 0.0
H932 H 0.04752 0.68967 0.7369 0.0
H933 H 0.95693 0.70461 0.70926 0.0
H934 H 0.04968 0.64437 0.70497 0.0
H935 H 0.95873 0.65936 0.67732 0.0
H936 H 0.99881 0.62439 0.5862 0.0
H937 H 0.99022 0.65772 0.62917 0.0
H938 H 0.02835 0.59193 0.69045 0.0
H939 H 0.03708 0.55809 0.64707 0.0
C940 C 0.02776 0.6824 0.72488 0.0
C941 C 1.00217 0.70039 0.72496 0.0
C942 C 0.02893 0.65663 0.70669 0.0
C943 C 1.00452 0.6488 0.68836 0.0
C944 C 0.97796 0.66524 0.69096 0.0
C945 C 0.97682 0.6909 0.70918 0.0
C946 C 1.00544 0.61694 0.60877 0.0
C947 C 0.01884 0.58873 0.61324 0.0
C948 C 1.00011 0.63587 0.63345 0.0
C949 C 1.00826 0.62715 0.66312 0.0
C950 C 0.02173 0.59899 0.66775 0.0
C951 C 0.02672 0.57975 0.64299 0.0
H952 H 0.33463 0.08525 0.70942 0.0
H953 H 0.34001 0.99224 0.73654 0.0
H954 H 0.3733 0.07691 0.67099 0.0
H955 H 0.37857 0.98345 0.69815 0.0
H956 H 0.45984 0.98633 0.63417 0.0
H957 H 0.42891 0.99611 0.67864 0.0
H958 H 0.36817 0.04708 0.62227 0.0
H959 H 0.39956 0.03772 0.57758 0.0
C960 C 0.34522 0.06339 0.70795 0.0
C961 C 0.33468 0.03932 0.72557 0.0
C962 C 0.3668 0.05844 0.68571 0.0
C963 C 0.37819 0.02935 0.68109 0.0
C964 C 0.37001 1.00606 0.70116 0.0
C965 C 0.34832 0.01107 0.72333 0.0
C966 C 0.43975 0.99947 0.6312 0.0
C967 C 0.43211 0.01148 0.60249 0.0
C968 C 0.42211 1.00503 0.65668 0.0
C969 C 0.39655 0.02282 0.65397 0.0
C970 C 0.38822 0.03386 0.62504 0.0
C971 C 0.40583 0.02812 0.59941 0.0
H972 H 0.0474 0.27459 0.68457 0.0
H973 H 0.95542 0.29726 0.69887 0.0
H974 H 0.04895 0.30731 0.63982 0.0
H975 H 0.95697 0.33096 0.65442 0.0
H976 H 0.9975 0.42361 0.62222 0.0
H977 H 0.98771 0.37999 0.65445 0.0
H978 H 0.02788 0.32186 0.58705 0.0
H979 H 0.03771 0.36558 0.55453 0.0
C980 C 0.02716 0.28556 0.67718 0.0
C981 C 1.00135 0.28376 0.69501 0.0
C982 C 0.02806 0.30442 0.65175 0.0
C983 C 1.00321 0.32198 0.64411 0.0
C984 C 0.97651 0.31789 0.66019 0.0
C985 C 0.97555 0.29866 0.6854 0.0
C986 C 1.00432 0.40156 0.61427 0.0
C987 C 0.01866 0.39803 0.58603 0.0
C988 C 0.99826 0.37656 0.63248 0.0
C989 C 1.00671 0.3476 0.62296 0.0
C990 C 0.021 0.34398 0.59472 0.0
C991 C 0.02669 0.36898 0.57626 0.0
H992 H 0.71586 0.95032 0.72147 0.0
H993 H 0.72325 0.0469 0.72061 0.0
H994 H 0.67455 0.95316 0.68494 0.0
H995 H 0.68244 0.05007 0.68357 0.0
H996 H 0.65159 0.0306 0.58235 0.0
H997 H 0.6852 0.02921 0.62647 0.0
H998 H 0.621 0.97682 0.6769 0.0
H999 H 0.58736 0.97842 0.6332 0.0
C1000 C 0.7076 0.97214 0.7144 0.0
C1001 C 0.72208 0.99843 0.72383 0.0
C1002 C 0.68435 0.97382 0.69337 0.0
C1003 C 0.67584 1.00182 0.68122 0.0
C1004 C 0.68892 0.02825 0.69246 0.0
C1005 C 0.71178 0.02654 0.71386 0.0
C1006 C 0.6448 0.01874 0.60283 0.0
C1007 C 0.61694 1.00475 0.60448 0.0
C1008 C 0.66378 0.0182 0.62808 0.0
C1009 C 0.65535 1.0032 0.65504 0.0
C1010 C 0.62782 0.98864 0.6564 0.0
C1011 C 0.60867 0.98963 0.63144 0.0
H1012 H 0.01263 0.32516 0.26986 0.0
H1013 H 0.10411 0.31213 0.29542 0.0
H1014 H 1.00993 0.3698 0.30246 0.0
H1015 H 0.10155 0.35655 0.32859 0.0
H1016 H 0.06034 0.39011 0.42072 0.0
H1017 H 0.07023 0.35737 0.37746 0.0
H1018 H 0.03052 0.42252 0.31655 0.0
H1019 H 0.02059 0.45571 0.36009 0.0
C1020 C 0.03244 0.33268 0.28161 0.0
C1021 C 0.05847 0.31536 0.28066 0.0
C1022 C 0.03093 0.35809 0.30025 0.0
C1023 C 0.05541 0.36622 0.31832 0.0
C1024 C 0.08228 0.35042 0.31512 0.0
C1025 C 0.08381 0.32519 0.29627 0.0
C1026 C 0.05367 0.39753 0.39815 0.0
C1027 C 0.03942 0.42534 0.39382 0.0
C1028 C 0.05974 0.37897 0.37333 0.0
C1029 C 0.05145 0.38766 0.3437 0.0
C1030 C 0.03726 0.41547 0.33922 0.0
C1031 C 0.03155 0.43434 0.36409 0.0
H1032 H 0.72377 0.07125 0.29737 0.0
H1033 H 0.71545 0.97701 0.27625 0.0
H1034 H 0.68358 0.0669 0.33492 0.0
H1035 H 0.67511 0.97234 0.31343 0.0
H1036 H 0.59142 0.98222 0.37296 0.0
H1037 H 0.62418 0.98908 0.32925 0.0
H1038 H 0.68524 0.0392 0.3858 0.0
H1039 H 0.6522 0.03263 0.42973 0.0
C1040 C 0.7124 0.04993 0.30004 0.0
C1041 C 0.7225 0.02441 0.28436 0.0
C1042 C 0.68984 0.04729 0.32169 0.0
C1043 C 0.67685 0.01912 0.32756 0.0
C1044 C 0.68483 0.9943 0.30942 0.0
C1045 C 0.7076 0.99696 0.28796 0.0
C1046 C 0.61191 0.99463 0.37613 0.0
C1047 C 0.61928 1.00699 0.40474 0.0
C1048 C 0.63061 0.99851 0.35109 0.0
C1049 C 0.65693 0.01505 0.35406 0.0
C1050 C 0.66471 0.02685 0.38281 0.0
C1051 C 0.64609 0.02272 0.40802 0.0
H1052 H 0.04626 0.74092 0.32226 0.0
H1053 H 0.95421 0.71725 0.31072 0.0
H1054 H 0.04973 0.70712 0.36631 0.0
H1055 H 0.95755 0.68287 0.35447 0.0
H1056 H 0.99812 0.59034 0.38478 0.0
H1057 H 0.98871 0.6341 0.35263 0.0
H1058 H 0.02993 0.69166 0.41981 0.0
H1059 H 0.03936 0.64777 0.45231 0.0
C1060 C 0.02649 0.72937 0.33009 0.0
C1061 C 1.00007 0.73118 0.31324 0.0
C1062 C 0.02846 0.70998 0.3551 0.0
C1063 C 1.00404 0.69205 0.36328 0.0
C1064 C 0.97678 0.69618 0.34823 0.0
C1065 C 0.97479 0.71581 0.32344 0.0
C1066 C 1.00529 0.61228 0.3927 0.0
C1067 C 0.01966 0.61562 0.42094 0.0
C1068 C 0.9995 0.63736 0.37451 0.0
C1069 C 1.00825 0.66622 0.38404 0.0
C1070 C 0.02282 0.66963 0.41214 0.0
C1071 C 0.02824 0.64454 0.43061 0.0
H1072 H 0.34128 0.01922 0.27059 0.0
H1073 H 0.33482 0.92573 0.29584 0.0
H1074 H 0.38066 0.02651 0.30821 0.0
H1075 H 0.37404 0.93282 0.33409 0.0
H1076 H 0.40146 0.97346 0.42806 0.0
H1077 H 0.37009 0.96319 0.38353 0.0
H1078 H 0.4315 0.01183 0.32595 0.0
H1079 H 0.46251 0.0224 0.37019 0.0
C1080 C 0.34938 0.99996 0.28331 0.0
C1081 C 0.33516 0.97202 0.28075 0.0
C1082 C 0.3716 1.00414 0.30504 0.0
C1083 C 0.37973 0.98038 0.32453 0.0
C1084 C 0.3676 0.95163 0.31976 0.0
C1085 C 0.34559 0.94744 0.29775 0.0
C1086 C 0.40796 0.98226 0.40596 0.0
C1087 C 0.43434 0.99867 0.40254 0.0
C1088 C 0.39035 0.97599 0.38045 0.0
C1089 C 0.39875 0.98631 0.3513 0.0
C1090 C 0.42464 1.0035 0.34812 0.0
C1091 C 0.44231 0.00953 0.37346 0.0
H1092 H 0.99655 0.22155 0.29581 0.0
H1093 H 0.0834 0.18827 0.27273 0.0
H1094 H 0.98975 0.17969 0.33178 0.0
H1095 H 0.07692 0.14616 0.30843 0.0
H1096 H 0.04735 0.06514 0.36568 0.0
H1097 H 0.0469 0.09999 0.32261 0.0
H1098 H 0.01643 0.17108 0.38208 0.0
H1099 H 0.01679 0.13628 0.42533 0.0
C1100 C 0.01354 0.20436 0.29752 0.0
C1101 C 0.04024 0.20755 0.28136 0.0
C1102 C 1.00994 0.18078 0.31837 0.0
C1103 C 0.03297 0.15991 0.32318 0.0
C1104 C 0.05872 0.16179 0.30507 0.0
C1105 C 0.0624 0.18561 0.28448 0.0
C1106 C 0.04037 0.08816 0.36963 0.0
C1107 C 0.03218 0.09793 0.39906 0.0
C1108 C 0.04019 0.10809 0.34491 0.0
C1109 C 0.03145 0.13817 0.34892 0.0
C1110 C 0.02286 0.14789 0.37821 0.0
C1111 C 0.02337 0.12803 0.40305 0.0
H1112 H 0.848 0.05093 0.27427 0.0
H1113 H 0.81508 0.96468 0.3033 0.0
H1114 H 0.88914 0.04687 0.31086 0.0
H1115 H 0.8559 0.96037 0.34019 0.0
H1116 H 0.90212 0.98949 0.43119 0.0
H1117 H 0.86638 0.98849 0.38901 0.0
H1118 H 0.93465 0.01829 0.32678 0.0
H1119 H 0.97031 0.0193 0.36865 0.0
C1120 C 0.85049 0.03047 0.28752 0.0
C1121 C 0.8289 0.00779 0.28551 0.0
C1122 C 0.87376 0.02824 0.30877 0.0
C1123 C 0.87559 1.00347 0.32884 0.0
C1124 C 0.85496 0.97992 0.32541 0.0
C1125 C 0.83197 0.98203 0.30389 0.0
C1126 C 0.90952 0.99584 0.40854 0.0
C1127 C 0.93918 1.00444 0.40347 0.0
C1128 C 0.88909 0.995 0.38427 0.0
C1129 C 0.89768 1.00314 0.3544 0.0
C1130 C 0.92725 0.01195 0.34943 0.0
C1131 C 0.94773 0.01239 0.37354 0.0
H1132 H 0.97166 0.78967 0.31613 0.0
H1133 H 0.06047 0.80507 0.2829 0.0
H1134 H 0.97887 0.82807 0.35544 0.0
H1135 H 0.06757 0.84427 0.32172 0.0
H1136 H 0.05052 0.93478 0.37443 0.0
H1137 H 0.04624 0.89583 0.33539 0.0
H1138 H 1.01094 0.8343 0.40259 0.0
H1139 H 0.01519 0.87323 0.44181 0.0
C1140 C 0.99265 0.80153 0.31718 0.0
C1141 C 0.01537 0.79471 0.29636 0.0
C1142 C 0.99684 0.82335 0.33971 0.0
C1143 C 0.02383 0.83906 0.34174 0.0
C1144 C 0.04645 0.83267 0.32051 0.0
C1145 C 0.04233 0.81049 0.29816 0.0
C1146 C 0.04196 0.9129 0.38096 0.0
C1147 C 0.03303 0.90716 0.41124 0.0
C1148 C 0.0397 0.89056 0.3586 0.0
C1149 C 0.02811 0.86211 0.3659 0.0
C1150 C 0.01969 0.85615 0.39626 0.0
C1151 C 0.02231 0.87838 0.41875 0.0
H1152 H 0.20878 0.94842 0.27321 0.0
H1153 H 0.24675 0.03427 0.29615 0.0
H1154 H 0.16975 0.956 0.31137 0.0
H1155 H 0.20782 0.0423 0.33454 0.0
H1156 H 0.16413 0.01919 0.42882 0.0
H1157 H 0.19825 0.01749 0.38515 0.0
H1158 H 0.12693 0.98638 0.32732 0.0
H1159 H 0.09325 0.98753 0.37041 0.0
C1160 C 0.20774 0.96958 0.28543 0.0
C1161 C 0.23016 0.99106 0.28144 0.0
C1162 C 0.18572 0.97384 0.30756 0.0
C1163 C 0.18598 0.99958 0.32635 0.0
C1164 C 0.20729 0.02205 0.32077 0.0
C1165 C 0.22911 0.01785 0.2984 0.0
C1166 C 0.15581 0.01191 0.40682 0.0
C1167 C 0.12592 1.00352 0.40329 0.0
C1168 C 0.17524 0.01125 0.38172 0.0
C1169 C 0.16521 1.00193 0.35271 0.0
C1170 C 0.1354 0.99351 0.34932 0.0
C1171 C 0.11606 0.99432 0.37417 0.0
H1172 H 0.96517 0.81279 0.71239 0.0
H1173 H 0.0587 0.81405 0.73273 0.0
H1174 H 0.97155 0.85523 0.67726 0.0
H1175 H 0.06526 0.85711 0.69789 0.0
H1176 H 0.05115 0.94907 0.64164 0.0
H1177 H 0.04518 0.91457 0.68499 0.0
H1178 H 1.0036 0.84964 0.62553 0.0
H1179 H 1.01005 0.8836 0.58214 0.0
C1180 C 0.98684 0.82318 0.71029 0.0
C1181 C 1.01145 0.81042 0.72509 0.0
C1182 C 0.99057 0.84712 0.69002 0.0
C1183 C 0.01896 0.85898 0.68458 0.0
C1184 C 0.04316 0.84827 0.70176 0.0
C1185 C 0.03942 0.82395 0.72184 0.0
C1186 C 0.04087 0.92735 0.63781 0.0
C1187 C 0.03097 0.91905 0.60846 0.0
C1188 C 0.03752 0.90769 0.6626 0.0
C1189 C 0.02361 0.87974 0.65857 0.0
C1190 C 0.01405 0.8713 0.62924 0.0
C1191 C 0.01795 0.89063 0.60438 0.0
H1192 H 0.22275 0.08069 0.71654 0.0
H1193 H 0.22545 0.98515 0.7326 0.0
H1194 H 0.18373 0.07364 0.67824 0.0
H1195 H 0.18589 0.97781 0.69461 0.0
H1196 H 0.09839 0.9867 0.63514 0.0
H1197 H 0.13103 0.99257 0.67938 0.0
H1198 H 0.19067 0.04673 0.62517 0.0
H1199 H 0.15818 0.0405 0.58059 0.0
C1200 C 0.21375 0.05836 0.71296 0.0
C1201 C 0.22675 0.03349 0.7276 0.0
C1202 C 0.19195 0.05422 0.69064 0.0
C1203 C 0.18235 0.02512 0.68297 0.0
C1204 C 0.19302 1.00048 0.7 0.0
C1205 C 0.21524 1.00465 0.72206 0.0
C1206 C 0.11863 0.99966 0.63258 0.0
C1207 C 0.12575 0.01322 0.6044 0.0
C1208 C 0.13725 1.00297 0.65792 0.0
C1209 C 0.1631 0.02044 0.65582 0.0
C1210 C 0.17059 0.03349 0.6275 0.0
C1211 C 0.15223 0.02967 0.60192 0.0
H1212 H 0.0672 0.22063 0.71461 0.0
H1213 H 0.97215 0.21729 0.70463 0.0
H1214 H 0.07252 0.18161 0.67486 0.0
H1215 H 0.97714 0.17787 0.66569 0.0
H1216 H 1.00306 0.08293 0.62767 0.0
H1217 H 1.00017 0.12143 0.66729 0.0
H1218 H 0.0558 0.18 0.61335 0.0
H1219 H 0.05827 0.14152 0.573 0.0
C1220 C 0.04754 0.211 0.70427 0.0
C1221 C 0.01926 0.22134 0.71272 0.0
C1222 C 0.05053 0.18909 0.68143 0.0
C1223 C 0.02521 0.17687 0.6673 0.0
C1224 C 0.99696 0.18687 0.67634 0.0
C1225 C 0.99406 0.20918 0.69858 0.0
C1226 C 0.01475 0.10399 0.6242 0.0
C1227 C 0.03091 0.10923 0.59722 0.0
C1228 C 0.01301 0.12599 0.64686 0.0
C1229 C 0.02789 0.15351 0.64336 0.0
C1230 C 0.04434 0.1588 0.61659 0.0
C1231 C 0.04555 0.13695 0.59349 0.0
H1232 H 0.84826 0.969 0.73456 0.0
H1233 H 0.81405 0.05355 0.70205 0.0
H1234 H 0.88926 0.97214 0.69771 0.0
H1235 H 0.85473 0.057 0.66499 0.0
H1236 H 0.90149 0.02618 0.57536 0.0
H1237 H 0.86566 0.02773 0.61741 0.0
H1238 H 0.93423 1.00037 0.68053 0.0
H1239 H 0.96994 0.99874 0.63878 0.0
C1240 C 0.85042 0.98892 0.72045 0.0
C1241 C 0.82851 0.01137 0.72155 0.0
C1242 C 0.87361 0.99062 0.69907 0.0
C1243 C 0.87504 0.01462 0.67801 0.0
C1244 C 0.85408 0.038 0.68052 0.0
C1245 C 0.83116 0.03641 0.70211 0.0
C1246 C 0.90893 0.02046 0.59817 0.0
C1247 C 0.93869 0.01238 0.60351 0.0
C1248 C 0.88845 0.02161 0.62237 0.0
C1249 C 0.8971 0.01435 0.65245 0.0
C1250 C 0.92676 1.00601 0.6577 0.0
C1251 C 0.94728 1.00522 0.63365 0.0
H1252 H 0.33876 0.94015 0.22227 0.0
H1253 H 0.3079 0.0299 0.20234 0.0
H1254 H 0.37706 0.94499 0.18299 0.0
H1255 H 0.34584 0.03471 0.1624 0.0
H1256 H 0.39871 0.01684 0.07271 0.0
H1257 H 0.36 0.01302 0.11151 0.0
H1258 H 0.42323 0.97427 0.17441 0.0
H1259 H 0.46204 0.97792 0.13565 0.0
C1260 C 0.34011 0.96085 0.20926 0.0
C1261 C 0.32012 0.98446 0.21508 0.0
C1262 C 0.3621 0.96371 0.18688 0.0
C1263 C 0.3646 0.99026 0.16956 0.0
C1264 C 0.3443 0.01381 0.17508 0.0
C1265 C 0.32242 0.01102 0.19777 0.0
C1266 C 0.40445 1.00744 0.09478 0.0
C1267 C 0.43361 0.99755 0.10089 0.0
C1268 C 0.38223 1.00547 0.11711 0.0
C1269 C 0.38845 0.99327 0.14606 0.0
C1270 C 0.41759 0.98348 0.15224 0.0
C1271 C 0.43991 0.98572 0.13002 0.0
H1272 H 0.99808 0.28734 0.20594 0.0
H1273 H 0.08757 0.31811 0.22134 0.0
H1274 H 0.99096 0.32716 0.16769 0.0
H1275 H 0.08047 0.35829 0.18377 0.0
H1276 H 0.04606 0.44531 0.1403 0.0
H1277 H 0.04996 0.40557 0.17889 0.0
H1278 H 1.01081 0.34212 0.11602 0.0
H1279 H 1.00677 0.38161 0.07759 0.0
C1280 C 0.01637 0.30226 0.20064 0.0
C1281 C 0.0435 0.29953 0.21619 0.0
C1282 C 0.01225 0.3252 0.17904 0.0
C1283 C 0.03508 0.34602 0.17296 0.0
C1284 C 0.0623 0.34294 0.18832 0.0
C1285 C 0.06647 0.31987 0.20958 0.0
C1286 C 0.03798 0.42298 0.13485 0.0
C1287 C 0.02629 0.41662 0.1058 0.0
C1288 C 0.04041 0.40018 0.15685 0.0
C1289 C 0.03086 0.37068 0.15038 0.0
C1290 C 0.01822 0.36462 0.12174 0.0
C1291 C 0.01611 0.38726 0.09966 0.0
H1292 H 0.7527 0.96859 0.20257 0.0
H1293 H 0.71738 0.05525 0.22792 0.0
H1294 H 0.71546 0.96475 0.16173 0.0
H1295 H 0.6795 0.05094 0.18818 0.0
H1296 H 0.59596 0.01609 0.13867 0.0
H1297 H 0.63458 0.01826 0.1778 0.0
H1298 H 0.70004 0.99087 0.11144 0.0
H1299 H 0.66144 0.98897 0.07204 0.0
C1300 C 0.73732 0.987 0.19917 0.0
C1301 C 0.73821 0.01236 0.21843 0.0
C1302 C 0.71579 0.98471 0.17591 0.0
C1303 C 0.69427 1.00744 0.17175 0.0
C1304 C 0.69538 0.0328 0.19094 0.0
C1305 C 0.71711 0.03529 0.21373 0.0
C1306 C 0.61852 0.01034 0.13234 0.0
C1307 C 0.62543 1.0024 0.10202 0.0
C1308 C 0.64075 0.01177 0.15481 0.0
C1309 C 0.67052 1.00484 0.14782 0.0
C1310 C 0.67736 0.99621 0.1177 0.0
C1311 C 0.6552 0.99528 0.09505 0.0
H1312 H 0.97494 0.73752 0.18422 0.0
H1313 H 0.06157 0.71513 0.21885 0.0
H1314 H 0.98144 0.70139 0.14244 0.0
H1315 H 0.06842 0.67873 0.17729 0.0
H1316 H 0.04234 0.58613 0.1337 0.0
H1317 H 0.04216 0.62895 0.16883 0.0
H1318 H 1.0114 0.68701 0.09625 0.0
H1319 H 1.01135 0.64451 0.06123 0.0
C1320 C 0.99591 0.7258 0.18188 0.0
C1321 C 0.018 0.72928 0.20411 0.0
C1322 C 0.99959 0.70494 0.15828 0.0
C1323 C 0.0253 0.68694 0.1569 0.0
C1324 C 0.04826 0.69203 0.17802 0.0
C1325 C 0.04464 0.71315 0.20138 0.0
C1326 C 0.03554 0.60801 0.12525 0.0
C1327 C 0.02683 0.61181 0.09467 0.0
C1328 C 0.03575 0.63259 0.14526 0.0
C1329 C 0.02695 0.66137 0.13517 0.0
C1330 C 0.01824 0.66513 0.10465 0.0
C1331 C 0.01831 0.6407 0.08461 0.0
H1332 H 0.30296 0.99018 0.80963 0.0
H1333 H 0.341 0.07438 0.78041 0.0
H1334 H 0.34116 0.9858 0.84943 0.0
H1335 H 0.37936 0.07007 0.81965 0.0
H1336 H 0.46217 0.03566 0.86953 0.0
H1337 H 0.42311 0.03909 0.83104 0.0
H1338 H 0.35851 0.00941 0.8974 0.0
H1339 H 0.39745 1.00569 0.93586 0.0
C1340 C 0.3192 0.00796 0.81209 0.0
C1341 C 0.31895 0.03271 0.79208 0.0
C1342 C 0.34119 1.00544 0.83474 0.0
C1343 C 0.36354 0.02749 0.83765 0.0
C1344 C 0.36289 0.0524 0.8178 0.0
C1345 C 0.34086 0.05497 0.7954 0.0
C1346 C 0.43968 0.02983 0.876 0.0
C1347 C 0.43314 0.02052 0.906 0.0
C1348 C 0.4172 0.03195 0.85391 0.0
C1349 C 0.38757 0.02462 0.8611 0.0
C1350 C 0.38108 0.01498 0.89095 0.0
C1351 C 0.40349 0.01306 0.9131 0.0
H1352 H 0.98173 0.27771 0.8249 0.0
H1353 H 0.06543 0.30545 0.78692 0.0
H1354 H 0.98748 0.31424 0.8664 0.0
H1355 H 0.0716 0.3422 0.82829 0.0
H1356 H 0.04245 0.43284 0.87349 0.0
H1357 H 0.04364 0.39017 0.83827 0.0
H1358 H 0.01729 0.33051 0.91134 0.0
H1359 H 0.01575 0.37289 0.94642 0.0
C1360 C 1.00199 0.29075 0.82642 0.0
C1361 C 0.02342 0.28861 0.80336 0.0
C1362 C 1.00523 0.31182 0.84989 0.0
C1363 C 0.02983 0.33137 0.85034 0.0
C1364 C 0.05225 0.32771 0.8283 0.0
C1365 C 0.04907 0.30641 0.80503 0.0
C1366 C 0.0369 0.41065 0.88204 0.0
C1367 C 0.02893 0.4064 0.91278 0.0
C1368 C 0.03791 0.38615 0.86196 0.0
C1369 C 0.03073 0.35696 0.87213 0.0
C1370 C 0.02285 0.35273 0.90283 0.0
C1371 C 0.02206 0.3771 0.92293 0.0
H1372 H 0.71801 0.96462 0.78044 0.0
H1373 H 0.75339 0.05122 0.80566 0.0
H1374 H 0.68009 0.96903 0.82007 0.0
H1375 H 0.71601 0.05523 0.84645 0.0
H1376 H 0.66126 0.03065 0.93583 0.0
H1377 H 0.70014 0.02904 0.89672 0.0
H1378 H 0.6352 1.00203 0.82968 0.0
H1379 H 0.59631 1.00388 0.86852 0.0
C1380 C 0.7177 0.98461 0.79457 0.0
C1381 C 0.73872 1.00755 0.78981 0.0
C1382 C 0.69596 0.98715 0.8173 0.0
C1383 C 0.6948 0.01258 0.83637 0.0
C1384 C 0.71637 0.03525 0.83229 0.0
C1385 C 0.73793 0.03289 0.80907 0.0
C1386 C 0.65519 0.02451 0.91272 0.0
C1387 C 0.62551 0.01734 0.90547 0.0
C1388 C 0.67751 0.02375 0.89025 0.0
C1389 C 0.67088 0.01526 0.86005 0.0
C1390 C 0.64118 0.00839 0.85276 0.0
C1391 C 0.6188 0.00963 0.87505 0.0
H1392 H 0.97067 0.69792 0.7822 0.0
H1393 H 0.05812 0.73148 0.8029 0.0
H1394 H 0.97661 0.65826 0.8205 0.0
H1395 H 0.06418 0.692 0.84178 0.0
H1396 H 0.04586 0.6369 0.93052 0.0
H1397 H 0.04267 0.67624 0.89192 0.0
H1398 H 1.00742 0.61197 0.82747 0.0
H1399 H 1.01033 0.57238 0.8663 0.0
C1400 C 0.99109 0.69682 0.79524 0.0
C1401 C 0.01389 0.71768 0.78983 0.0
C1402 C 0.99461 0.67406 0.81694 0.0
C1403 C 0.02099 0.67179 0.83391 0.0
C1404 C 0.04354 0.69326 0.82913 0.0
C1405 C 0.04005 0.71596 0.80714 0.0
C1406 C 0.03751 0.63103 0.90809 0.0
C1407 C 0.0281 0.60149 0.90157 0.0
C1408 C 0.03591 0.6536 0.88591 0.0
C1409 C 0.02463 0.64727 0.85674 0.0
C1410 C 0.01588 0.61759 0.84992 0.0
C1411 C 0.01775 0.59487 0.87206 0.0
H1412 H 0.24495 0.30914 0.96899 0.0
H1413 H 0.21231 0.282 0.05706 0.0
H1414 H 0.20459 0.34605 0.96453 0.0
H1415 H 0.17167 0.31867 0.05291 0.0
H1416 H 0.09048 0.37622 0.02535 0.0
H1417 H 0.12613 0.33486 0.02545 0.0
H1418 H 0.19366 0.39461 0.9906 0.0
H1419 H 0.15793 0.4362 0.99045 0.0
C1420 C 0.22824 0.31017 0.98676 0.0
C1421 C 0.23127 0.29213 0.01299 0.0
C1422 C 0.20549 0.33176 0.98458 0.0
C1423 C 0.18498 0.33576 0.00854 0.0
C1424 C 0.18687 0.31621 0.0339 0.0
C1425 C 0.20989 0.29488 0.03619 0.0
C1426 C 0.11291 0.3807 0.01764 0.0
C1427 C 0.12116 0.40982 0.00789 0.0
C1428 C 0.13344 0.35685 0.01783 0.0
C1429 C 0.16284 0.36117 0.00788 0.0
C1430 C 0.17113 0.39024 0.99803 0.0
C1431 C 0.15066 0.41425 0.99821 0.0
H1432 H 0.24624 0.70794 0.03906 0.0
H1433 H 0.21411 0.73484 0.95071 0.0
H1434 H 0.20553 0.6715 0.04364 0.0
H1435 H 0.17312 0.69863 0.95497 0.0
H1436 H 0.0913 0.64201 0.98245 0.0
H1437 H 0.12733 0.68302 0.9822 0.0
H1438 H 0.19409 0.62291 0.01814 0.0
H1439 H 0.158 0.58171 0.01844 0.0
C1440 C 0.22958 0.70696 0.02124 0.0
C1441 C 0.23285 0.72481 0.99491 0.0
C1442 C 0.20662 0.68563 0.0235 0.0
C1443 C 0.18611 0.68169 0.99951 0.0
C1444 C 0.18829 0.70104 0.97401 0.0
C1445 C 0.21152 0.72212 0.97165 0.0
C1446 C 0.11364 0.63741 0.99039 0.0
C1447 C 0.12157 0.60829 1.00047 0.0
C1448 C 0.13439 0.66104 0.99011 0.0
C1449 C 0.16371 0.65653 1.00029 0.0
C1450 C 0.17165 0.62746 0.01051 0.0
C1451 C 0.15097 0.60367 0.01041 0.0
H1452 H 0.34121 0.23339 0.06281 0.0
H1453 H 0.30674 0.20722 0.97498 0.0
H1454 H 0.37825 0.19329 0.06006 0.0
H1455 H 0.34344 0.16633 0.9724 0.0
H1456 H 0.39727 0.07844 0.99384 0.0
H1457 H 0.359 0.11758 0.99585 0.0
H1458 H 0.42329 0.18022 0.03181 0.0
H1459 H 0.46147 0.14125 0.02987 0.0
C1460 C 0.34149 0.21896 0.04289 0.0
C1461 C 0.3208 0.2236 0.01922 0.0
C1462 C 0.36284 0.19592 0.04125 0.0
C1463 C 0.36418 0.17641 0.01593 0.0
C1464 C 0.34304 0.18061 0.99244 0.0
C1465 C 0.32179 0.20399 0.99396 0.0
C1466 C 0.40332 0.10053 1.00224 0.0
C1467 C 0.43271 0.10641 0.01175 0.0
C1468 C 0.38131 0.12313 0.00319 0.0
C1469 C 0.38779 0.15226 0.01408 0.0
C1470 C 0.41717 0.15808 0.02361 0.0
C1471 C 0.43924 0.13564 0.02231 0.0
H1472 H 0.80749 0.32075 0.06465 0.0
H1473 H 0.83038 0.284 0.97668 0.0
H1474 H 0.8469 0.35814 0.05967 0.0
H1475 H 0.87083 0.32092 0.97204 0.0
H1476 H 0.95884 0.37532 0.99385 0.0
H1477 H 0.92028 0.33647 0.99677 0.0
H1478 H 0.85715 0.40318 0.02705 0.0
H1479 H 0.89539 0.44195 0.024 0.0
C1480 C 0.82107 0.32061 0.04424 0.0
C1481 C 0.81574 0.29926 0.02116 0.0
C1482 C 0.84369 0.34207 0.04136 0.0
C1483 C 0.86205 0.34275 0.01538 0.0
C1484 C 0.85729 0.32093 0.99249 0.0
C1485 C 0.83423 0.2996 0.99521 0.0
C1486 C 0.93674 0.38176 1.00113 0.0
C1487 C 0.93042 0.41194 0.0088 0.0
C1488 C 0.91456 0.35945 1.00259 0.0
C1489 C 0.88556 0.36657 0.01228 0.0
C1490 C 0.87927 0.39674 0.0198 0.0
C1491 C 0.90125 0.41908 0.01789 0.0
H1492 H 0.73306 0.80127 0.04234 0.0
H1493 H 0.7553 0.82259 0.94929 0.0
H1494 H 0.69523 0.84097 0.04241 0.0
H1495 H 0.71776 0.86282 0.94915 0.0
H1496 H 0.65911 0.94696 0.97259 0.0
H1497 H 0.70137 0.91245 0.97377 0.0
H1498 H 0.64573 0.8438 0.01369 0.0
H1499 H 0.60318 0.87833 0.01228 0.0
C1500 C 0.73078 0.81556 0.02241 0.0
C1501 C 0.74746 0.80936 0.99603 0.0
C1502 C 0.70872 0.83781 0.02217 0.0
C1503 C 0.70308 0.85467 0.9956 0.0
C1504 C 0.72153 0.85022 0.96999 0.0
C1505 C 0.74335 0.82757 0.97015 0.0
C1506 C 0.65578 0.92442 0.98146 0.0
C1507 C 0.6277 0.91541 0.99236 0.0
C1508 C 0.68005 0.90466 0.98207 0.0
C1509 C 0.67705 0.87551 0.99412 0.0
C1510 C 0.64887 0.86629 0.00464 0.0
C1511 C 0.6244 0.88592 0.00352 0.0
H1512 H 0.8377 0.73707 0.95748 0.0
H1513 H 0.80042 0.69709 0.03841 0.0
H1514 H 0.8784 0.70012 0.95855 0.0
H1515 H 0.84042 0.6599 0.03946 0.0
H1516 H 0.89436 0.57704 0.0105 0.0
H1517 H 0.85632 0.61607 0.01011 0.0
H1518 H 0.92253 0.68254 0.98701 0.0
H1519 H 0.96074 0.64339 0.98714 0.0
C1520 C 0.83845 0.72056 0.97568 0.0
C1521 C 0.81565 0.71966 0.99759 0.0
C1522 C 0.86169 0.69933 0.97632 0.0
C1523 C 0.86259 0.67659 0.99885 0.0
C1524 C 0.84019 0.67651 0.02132 0.0
C1525 C 0.81717 0.69781 0.02075 0.0
C1526 C 0.90094 0.59991 0.00523 0.0
C1527 C 0.93084 0.60683 0.99883 0.0
C1528 C 0.87904 0.62244 0.00525 0.0
C1529 C 0.88622 0.65264 0.99866 0.0
C1530 C 0.91605 0.65956 0.99197 0.0
C1531 C 0.93804 0.63704 0.99221 0.0
H1532 H 0.34343 0.78256 0.94509 0.0
H1533 H 0.30842 0.80981 0.03236 0.0
H1534 H 0.38024 0.82286 0.94745 0.0
H1535 H 0.34485 0.85091 0.03451 0.0
H1536 H 0.39788 0.93892 0.0122 0.0
H1537 H 0.36006 0.89939 0.01057 0.0
H1538 H 0.42507 0.83699 0.97544 0.0
H1539 H 0.46282 0.87636 0.97703 0.0
C1540 C 0.34356 0.79724 0.96482 0.0
C1541 C 0.32274 0.79285 0.98843 0.0
C1542 C 0.36477 0.82042 0.96623 0.0
C1543 C 0.36585 0.84034 0.99124 0.0
C1544 C 0.34464 0.83634 0.01469 0.0
C1545 C 0.32355 0.81282 0.01341 0.0
C1546 C 0.4042 0.91681 0.00405 0.0
C1547 C 0.43368 0.91115 0.99465 0.0
C1548 C 0.38243 0.89397 0.00333 0.0
C1549 C 0.38923 0.86477 0.99279 0.0
C1550 C 0.41869 0.85916 0.98337 0.0
C1551 C 0.44052 0.88185 0.98444 0.0
H1552 H 0.7292 0.22568 0.97628 0.0
H1553 H 0.75861 0.1888 0.06192 0.0
H1554 H 0.69074 0.18675 0.97269 0.0
H1555 H 0.72036 0.14959 0.05865 0.0
H1556 H 0.6597 0.07076 0.03044 0.0
H1557 H 0.70158 0.10536 0.03036 0.0
H1558 H 0.64362 0.17743 1.00148 0.0
H1559 H 0.60137 0.14253 1.00136 0.0
C1560 C 0.72825 0.20826 0.99359 0.0
C1561 C 0.74732 0.20969 0.01897 0.0
C1562 C 0.70582 0.18642 0.99196 0.0
C1563 C 0.70207 0.16529 0.01563 0.0
C1564 C 0.72262 0.1654 0.03994 0.0
C1565 C 0.74484 0.18752 0.04167 0.0
C1566 C 0.65572 0.09401 0.02412 0.0
C1567 C 0.62701 0.1038 0.01587 0.0
C1568 C 0.67984 0.11389 0.02419 0.0
C1569 C 0.67614 0.14416 0.01568 0.0
C1570 C 0.64738 0.15414 0.00773 0.0
C1571 C 0.62306 0.13424 0.00801 0.0
H1572 H 0.45822 0.70713 0.80077 0.0
H1573 H 0.54965 0.70016 0.77295 0.0
H1574 H 0.46497 0.66482 0.83599 0.0
H1575 H 0.55662 0.65738 0.80797 0.0
H1576 H 0.54619 0.56816 0.86615 0.0
H1577 H 0.53818 0.60285 0.82337 0.0
H1578 H 0.49756 0.66667 0.88484 0.0
H1579 H 0.50573 0.63235 0.92759 0.0
C1580 C 0.47942 0.69559 0.80138 0.0
C1581 C 0.50341 0.70664 0.7843 0.0
C1582 C 0.48341 0.67173 0.82172 0.0
C1583 C 0.51146 0.65828 0.82509 0.0
C1584 C 0.53478 0.6674 0.8058 0.0
C1585 C 0.53078 0.69158 0.78559 0.0
C1586 C 0.53565 0.58966 0.87054 0.0
C1587 C 0.5266 0.59754 0.90029 0.0
C1588 C 0.53113 0.60946 0.84605 0.0
C1589 C 0.51693 0.6372 0.85077 0.0
C1590 C 0.50817 0.64518 0.88051 0.0
C1591 C 0.51313 0.62567 0.90504 0.0
H1592 H 0.314 0.4638 0.80215 0.0
H1593 H 0.34814 0.54937 0.77256 0.0
H1594 H 0.35451 0.45934 0.83939 0.0
H1595 H 0.38894 0.54518 0.8095 0.0
H1596 H 0.46922 0.51755 0.86832 0.0
H1597 H 0.43395 0.51643 0.82614 0.0
H1598 H 0.3649 0.48771 0.88801 0.0
H1599 H 0.40029 0.4888 0.9305 0.0
C1600 C 0.3311 0.48094 0.80269 0.0
C1601 C 0.32846 0.50657 0.78405 0.0
C1602 C 0.3539 0.47876 0.82441 0.0
C1603 C 0.37476 0.50211 0.82779 0.0
C1604 C 0.37337 0.52671 0.80746 0.0
C1605 C 0.3503 0.52901 0.78601 0.0
C1606 C 0.44656 0.51085 0.87307 0.0
C1607 C 0.4377 0.5032 0.903 0.0
C1608 C 0.42629 0.51034 0.84878 0.0
C1609 C 0.39662 0.5018 0.85356 0.0
C1610 C 0.38771 0.49399 0.88341 0.0
C1611 C 0.40794 0.49487 0.90786 0.0
H1612 H 0.49332 0.29547 0.79455 0.0
H1613 H 0.58869 0.29895 0.80041 0.0
H1614 H 0.48959 0.33499 0.83396 0.0
H1615 H 0.58526 0.33894 0.83895 0.0
H1616 H 0.5601 0.43399 0.87824 0.0
H1617 H 0.56166 0.3956 0.83834 0.0
H1618 H 0.50918 0.33623 0.89468 0.0
H1619 H 0.50813 0.37452 0.93523 0.0
C1620 C 0.51338 0.30528 0.80387 0.0
C1621 C 0.5413 0.29479 0.79442 0.0
C1622 C 0.5113 0.32749 0.8265 0.0
C1623 C 0.53716 0.33986 0.83939 0.0
C1624 C 0.56504 0.32982 0.82924 0.0
C1625 C 0.56704 0.30719 0.80723 0.0
C1626 C 0.54888 0.41275 0.88216 0.0
C1627 C 0.53403 0.40718 0.90986 0.0
C1628 C 0.54982 0.39084 0.85935 0.0
C1629 C 0.53539 0.36316 0.86345 0.0
C1630 C 0.52027 0.35757 0.89097 0.0
C1631 C 0.51989 0.3793 0.91418 0.0
H1632 H 0.74512 0.53341 0.79732 0.0
H1633 H 0.70958 0.44622 0.77548 0.0
H1634 H 0.70585 0.54087 0.83545 0.0
H1635 H 0.67017 0.45327 0.81338 0.0
H1636 H 0.59233 0.48465 0.87141 0.0
H1637 H 0.62638 0.48319 0.82855 0.0
H1638 H 0.69688 0.51607 0.88644 0.0
H1639 H 0.66243 0.51794 0.92983 0.0
C1640 C 0.72793 0.51653 0.79976 0.0
C1641 C 0.72977 0.48956 0.78318 0.0
C1642 C 0.70592 0.52043 0.82197 0.0
C1643 C 0.6852 0.49746 0.82778 0.0
C1644 C 0.6857 0.47147 0.80938 0.0
C1645 C 0.70793 0.46751 0.78741 0.0
C1646 C 0.61505 0.49172 0.8752 0.0
C1647 C 0.6246 0.50149 0.90423 0.0
C1648 C 0.6346 0.49075 0.85051 0.0
C1649 C 0.66426 0.49966 0.85399 0.0
C1650 C 0.67398 0.50946 0.88294 0.0
C1651 C 0.65438 0.51022 0.90788 0.0
H1652 H 0.55539 0.31286 0.23265 0.0
H1653 H 0.46169 0.31159 0.21327 0.0
H1654 H 0.56178 0.35531 0.19707 0.0
H1655 H 0.46784 0.35351 0.17745 0.0
H1656 H 0.50365 0.38297 0.08209 0.0
H1657 H 0.49728 0.349 0.12556 0.0
H1658 H 0.54386 0.41161 0.18368 0.0
H1659 H 0.54992 0.44597 0.14028 0.0
C1660 C 0.53605 0.32264 0.22179 0.0
C1661 C 0.50806 0.30929 0.22559 0.0
C1662 C 0.53968 0.34662 0.20126 0.0
C1663 C 0.51536 0.35718 0.18413 0.0
C1664 C 0.48698 0.34548 0.19007 0.0
C1665 C 0.48337 0.32188 0.21078 0.0
C1666 C 0.5127 0.38943 0.10406 0.0
C1667 C 0.52722 0.41714 0.10776 0.0
C1668 C 0.50882 0.37013 0.12898 0.0
C1669 C 0.51981 0.37791 0.158 0.0
C1670 C 0.53509 0.4052 0.16158 0.0
C1671 C 0.53848 0.4248 0.13676 0.0
H1672 H 0.70773 0.56733 0.2338 0.0
H1673 H 0.74449 0.48084 0.21105 0.0
H1674 H 0.66793 0.55978 0.19643 0.0
H1675 H 0.70487 0.4729 0.17342 0.0
H1676 H 0.66111 0.49673 0.07935 0.0
H1677 H 0.69543 0.49827 0.12277 0.0
H1678 H 0.62441 0.52908 0.18119 0.0
H1679 H 0.59037 0.52788 0.13825 0.0
C1680 C 0.70628 0.54607 0.2218 0.0
C1681 C 0.72858 0.52438 0.22558 0.0
C1682 C 0.68382 0.54182 0.20014 0.0
C1683 C 0.68356 0.51592 0.1816 0.0
C1684 C 0.70474 0.49326 0.18703 0.0
C1685 C 0.72697 0.49744 0.20894 0.0
C1686 C 0.65286 0.50386 0.10143 0.0
C1687 C 0.62296 0.51216 0.10517 0.0
C1688 C 0.67242 0.50445 0.12638 0.0
C1689 C 0.66255 0.51364 0.15547 0.0
C1690 C 0.63273 0.52201 0.15911 0.0
C1691 C 0.6132 0.52119 0.13437 0.0
H1692 H 0.50265 0.70812 0.22713 0.0
H1693 H 0.58949 0.7284 0.1913 0.0
H1694 H 0.49677 0.66822 0.18875 0.0
H1695 H 0.58364 0.68915 0.15265 0.0
H1696 H 0.54825 0.64252 0.06715 0.0
H1697 H 0.55169 0.68126 0.10653 0.0
H1698 H 0.5192 0.61818 0.17377 0.0
H1699 H 0.51555 0.57944 0.13454 0.0
C1700 C 0.52063 0.70362 0.21136 0.0
C1701 C 0.54657 0.7211 0.21211 0.0
C1702 C 0.51724 0.68101 0.18931 0.0
C1703 C 0.53963 0.67581 0.16748 0.0
C1704 C 0.56578 0.69298 0.16878 0.0
C1705 C 0.56922 0.71528 0.19092 0.0
C1706 C 0.54162 0.63693 0.09026 0.0
C1707 C 0.53182 0.60778 0.09766 0.0
C1708 C 0.54378 0.65908 0.11286 0.0
C1709 C 0.53591 0.65268 0.14328 0.0
C1710 C 0.5253 0.62382 0.15052 0.0
C1711 C 0.52342 0.60158 0.12802 0.0
H1712 H 0.31346 0.47605 0.20689 0.0
H1713 H 0.34679 0.56337 0.23161 0.0
H1714 H 0.3537 0.47027 0.16952 0.0
H1715 H 0.38721 0.55797 0.19448 0.0
H1716 H 0.46734 0.52932 0.13696 0.0
H1717 H 0.43218 0.52985 0.17913 0.0
H1718 H 0.36389 0.49538 0.11945 0.0
H1719 H 0.3993 0.49459 0.07694 0.0
C1720 C 0.33033 0.49336 0.20525 0.0
C1721 C 0.32758 0.51982 0.22257 0.0
C1722 C 0.35295 0.49041 0.18344 0.0
C1723 C 0.37347 0.51384 0.17863 0.0
C1724 C 0.37193 0.53939 0.19764 0.0
C1725 C 0.34908 0.54241 0.21921 0.0
C1726 C 0.44486 0.52174 0.13267 0.0
C1727 C 0.43624 0.51189 0.10336 0.0
C1728 C 0.42464 0.52218 0.15696 0.0
C1729 C 0.39522 0.51252 0.15283 0.0
C1730 C 0.38652 0.50259 0.12357 0.0
C1731 C 0.40672 0.50243 0.09909 0.0
H1732 H 0.80635 0.52893 0.70287 0.0
H1733 H 0.83915 0.44027 0.7245 0.0
H1734 H 0.84362 0.5335 0.66223 0.0
H1735 H 0.87675 0.44487 0.6845 0.0
H1736 H 0.96058 0.47824 0.63581 0.0
H1737 H 0.92214 0.47473 0.67486 0.0
H1738 H 0.85785 0.51107 0.61159 0.0
H1739 H 0.89633 0.51479 0.57242 0.0
C1740 C 0.82117 0.51023 0.69855 0.0
C1741 C 0.81963 0.48405 0.71656 0.0
C1742 C 0.84264 0.51288 0.67543 0.0
C1743 C 0.86328 0.48958 0.67017 0.0
C1744 C 0.86152 0.4634 0.68817 0.0
C1745 C 0.83995 0.46069 0.71098 0.0
C1746 C 0.9383 0.48559 0.63015 0.0
C1747 C 0.93166 0.49674 0.60083 0.0
C1748 C 0.91619 0.48339 0.65254 0.0
C1749 C 0.88686 0.49253 0.64635 0.0
C1750 C 0.88024 0.50404 0.61719 0.0
C1751 C 0.90231 0.50595 0.59466 0.0
H1752 H 0.55049 0.78047 0.70159 0.0
H1753 H 0.46731 0.82096 0.72758 0.0
H1754 H 0.55697 0.81907 0.66184 0.0
H1755 H 0.47364 0.85965 0.6884 0.0
H1756 H 0.51041 0.94262 0.6404 0.0
H1757 H 0.50677 0.90325 0.67923 0.0
H1758 H 0.53434 0.83686 0.61302 0.0
H1759 H 0.53832 0.87604 0.57431 0.0
C1760 C 0.53339 0.79732 0.69834 0.0
C1761 C 0.50835 0.79782 0.7174 0.0
C1762 C 0.53713 0.8195 0.67582 0.0
C1763 C 0.51598 0.84265 0.67225 0.0
C1764 C 0.49063 0.84254 0.69095 0.0
C1765 C 0.48686 0.82034 0.71318 0.0
C1766 C 0.51595 0.9197 0.63416 0.0
C1767 C 0.52445 0.91255 0.60413 0.0
C1768 C 0.51366 0.89709 0.65636 0.0
C1769 C 0.52005 0.86688 0.64912 0.0
C1770 C 0.52941 0.8599 0.61938 0.0
C1771 C 0.53147 0.88241 0.59713 0.0
H1772 H 0.25153 0.46644 0.70247 0.0
H1773 H 0.21718 0.55404 0.72588 0.0
H1774 H 0.21377 0.46185 0.6622 0.0
H1775 H 0.17875 0.54897 0.68679 0.0
H1776 H 0.09441 0.51334 0.63913 0.0
H1777 H 0.13339 0.51583 0.67795 0.0
H1778 H 0.19822 0.4875 0.61135 0.0
H1779 H 0.15931 0.48533 0.57229 0.0
C1780 C 0.23626 0.4849 0.69875 0.0
C1781 C 0.23758 0.51075 0.71729 0.0
C1782 C 0.21443 0.48217 0.67585 0.0
C1783 C 0.19303 0.50495 0.67137 0.0
C1784 C 0.19455 0.5308 0.68984 0.0
C1785 C 0.2166 0.53372 0.71224 0.0
C1786 C 0.1169 0.50739 0.63273 0.0
C1787 C 0.12358 0.49916 0.60244 0.0
C1788 C 0.13932 0.50902 0.65499 0.0
C1789 C 0.16902 0.50196 0.6478 0.0
C1790 C 0.1756 0.49294 0.61774 0.0
C1791 C 0.15326 0.49185 0.59531 0.0
H1792 H 0.49283 0.20693 0.72541 0.0
H1793 H 0.57276 0.23754 0.68154 0.0
H1794 H 0.48507 0.16998 0.68452 0.0
H1795 H 0.56541 0.2008 0.64049 0.0
H1796 H 0.53348 0.14222 0.56225 0.0
H1797 H 0.53303 0.18408 0.59785 0.0
H1798 H 0.51342 0.1229 0.67186 0.0
H1799 H 0.5135 0.08063 0.63609 0.0
C1800 C 0.50796 0.20648 0.70619 0.0
C1801 C 0.53304 0.22518 0.70602 0.0
C1802 C 0.5039 0.18509 0.68317 0.0
C1803 C 0.52484 0.18224 0.65953 0.0
C1804 C 0.54878 0.20258 0.65828 0.0
C1805 C 0.55292 0.22376 0.68149 0.0
C1806 C 0.52888 0.13751 0.58607 0.0
C1807 C 0.5236 0.10788 0.59628 0.0
C1808 C 0.52872 0.16162 0.60646 0.0
C1809 C 0.52311 0.15683 0.63759 0.0
C1810 C 0.51742 0.12733 0.64787 0.0
C1811 C 0.51777 0.10307 0.62744 0.0
H1812 H 0.80682 0.48426 0.30316 0.0
H1813 H 0.83885 0.57354 0.28314 0.0
H1814 H 0.84474 0.47889 0.34304 0.0
H1815 H 0.87717 0.5681 0.32234 0.0
H1816 H 0.96148 0.53422 0.37016 0.0
H1817 H 0.92293 0.53809 0.33115 0.0
H1818 H 0.85895 0.50059 0.39398 0.0
H1819 H 0.89745 0.49655 0.43305 0.0
C1820 C 0.82162 0.50291 0.30767 0.0
C1821 C 0.81962 0.52952 0.29038 0.0
C1822 C 0.84348 0.49979 0.33033 0.0
C1823 C 0.86408 0.52304 0.33584 0.0
C1824 C 0.86195 0.54961 0.31847 0.0
C1825 C 0.83997 0.5528 0.29612 0.0
C1826 C 0.93925 0.52664 0.37569 0.0
C1827 C 0.93266 0.51513 0.40487 0.0
C1828 C 0.91708 0.52905 0.35335 0.0
C1829 C 0.8878 0.51973 0.35945 0.0
C1830 C 0.88129 0.50777 0.38844 0.0
C1831 C 0.90338 0.50566 0.41091 0.0
H1832 H 0.50081 0.78136 0.30627 0.0
H1833 H 0.59475 0.79913 0.30772 0.0
H1834 H 0.49345 0.81758 0.34806 0.0
H1835 H 0.58768 0.83555 0.34905 0.0
H1836 H 0.55346 0.93019 0.37721 0.0
H1837 H 0.55987 0.88704 0.34313 0.0
H1838 H 0.50885 0.83149 0.40475 0.0
H1839 H 0.50264 0.8745 0.43907 0.0
C1840 C 0.51996 0.79203 0.31659 0.0
C1841 C 0.54833 0.78756 0.30415 0.0
C1842 C 0.51579 0.81295 0.34014 0.0
C1843 C 0.53996 0.82977 0.3512 0.0
C1844 C 0.56864 0.82322 0.34054 0.0
C1845 C 0.57278 0.80213 0.31735 0.0
C1846 C 0.54338 0.90887 0.38333 0.0
C1847 C 0.52765 0.9057 0.41082 0.0
C1848 C 0.5473 0.88413 0.36403 0.0
C1849 C 0.53517 0.85589 0.37161 0.0
C1850 C 0.51852 0.85297 0.39851 0.0
C1851 C 0.51504 0.87757 0.41809 0.0
H1852 H 0.21829 0.57021 0.28101 0.0
H1853 H 0.25049 0.48202 0.30532 0.0
H1854 H 0.18062 0.56704 0.32107 0.0
H1855 H 0.21316 0.47893 0.34609 0.0
H1856 H 0.15958 0.49925 0.43503 0.0
H1857 H 0.19827 0.50184 0.39596 0.0
H1858 H 0.13489 0.53872 0.3321 0.0
H1859 H 0.09621 0.53627 0.37106 0.0
C1860 C 0.21736 0.55017 0.29509 0.0
C1861 C 0.23755 0.5265 0.2901 0.0
C1862 C 0.19571 0.54828 0.31801 0.0
C1863 C 0.19365 0.52267 0.33686 0.0
C1864 C 0.21424 0.49914 0.33227 0.0
C1865 C 0.2358 0.50095 0.30903 0.0
C1866 C 0.15383 0.50803 0.4127 0.0
C1867 C 0.12461 0.5177 0.40642 0.0
C1868 C 0.17605 0.50928 0.39018 0.0
C1869 C 0.16985 0.52057 0.3608 0.0
C1870 C 0.14065 0.53022 0.35453 0.0
C1871 C 0.11836 0.52866 0.37691 0.0
H1872 H 0.46767 0.1973 0.28419 0.0
H1873 H 0.55487 0.23156 0.30478 0.0
H1874 H 0.47391 0.15778 0.32258 0.0
H1875 H 0.5612 0.19224 0.3438 0.0
H1876 H 0.54339 0.13607 0.43232 0.0
H1877 H 0.53976 0.17582 0.3941 0.0
H1878 H 0.50542 0.11176 0.32893 0.0
H1879 H 0.50883 0.07181 0.36729 0.0
C1880 C 0.48808 0.19642 0.29726 0.0
C1881 C 0.51075 0.2174 0.29172 0.0
C1882 C 0.49177 0.17373 0.31901 0.0
C1883 C 0.51818 0.17166 0.33596 0.0
C1884 C 0.54055 0.19333 0.33116 0.0
C1885 C 0.5369 0.21594 0.30909 0.0
C1886 C 0.53515 0.13035 0.40981 0.0
C1887 C 0.52616 0.10074 0.40294 0.0
C1888 C 0.53328 0.15315 0.38786 0.0
C1889 C 0.52211 0.14699 0.3586 0.0
C1890 C 0.51377 0.11726 0.35145 0.0
C1891 C 0.51594 0.09433 0.37333 0.0
H1892 H 0.71959 0.78247 0.46719 0.0
H1893 H 0.73799 0.80813 0.55996 0.0
H1894 H 0.67784 0.81831 0.4657 0.0
H1895 H 0.69687 0.84424 0.55863 0.0
H1896 H 0.65505 0.93474 0.52662 0.0
H1897 H 0.69109 0.89352 0.52955 0.0
H1898 H 0.62731 0.83308 0.4891 0.0
H1899 H 0.5911 0.87413 0.48648 0.0
C1900 C 0.71385 0.79485 0.48766 0.0
C1901 C 0.73167 0.79212 0.51387 0.0
C1902 C 0.69023 0.81569 0.48674 0.0
C1903 C 0.68429 0.83463 0.51188 0.0
C1904 C 0.70103 0.83043 0.53869 0.0
C1905 C 0.72423 0.80936 0.5397 0.0
C1906 C 0.64869 0.91272 0.51824 0.0
C1907 C 0.62004 0.90791 0.50639 0.0
C1908 C 0.6693 0.88897 0.52016 0.0
C1909 C 0.66209 0.85982 0.50976 0.0
C1910 C 0.63367 0.85516 0.49729 0.0
C1911 C 0.61286 0.87876 0.49592 0.0
H1912 H 0.745 0.20537 0.53995 0.0
H1913 H 0.71216 0.23268 0.452 0.0
H1914 H 0.70425 0.169 0.54476 0.0
H1915 H 0.67112 0.19656 0.45651 0.0
H1916 H 0.5894 0.14002 0.48458 0.0
H1917 H 0.62549 0.18098 0.48424 0.0
H1918 H 0.69251 0.12052 0.51905 0.0
H1919 H 0.65637 0.07936 0.5194 0.0
C1920 C 0.7282 0.20449 0.52227 0.0
C1921 C 0.73128 0.22244 0.49598 0.0
C1922 C 0.7052 0.18321 0.52466 0.0
C1923 C 0.68446 0.17942 0.50086 0.0
C1924 C 0.68646 0.19886 0.47542 0.0
C1925 C 0.70974 0.21988 0.47291 0.0
C1926 C 0.6118 0.13533 0.49227 0.0
C1927 C 0.61979 0.10612 0.50205 0.0
C1928 C 0.63259 0.15893 0.49194 0.0
C1929 C 0.662 0.1543 0.50176 0.0
C1930 C 0.66999 0.12515 0.5117 0.0
C1931 C 0.64928 0.10139 0.51165 0.0
H1932 H 0.84427 0.73736 0.55332 0.0
H1933 H 0.80299 0.70131 0.47261 0.0
H1934 H 0.88049 0.69644 0.55303 0.0
H1935 H 0.8391 0.65973 0.47227 0.0
H1936 H 0.8948 0.57487 0.49706 0.0
H1937 H 0.85681 0.61424 0.49803 0.0
H1938 H 0.92311 0.67917 0.5249 0.0
H1939 H 0.96092 0.63993 0.52427 0.0
C1940 C 0.84305 0.7207 0.53537 0.0
C1941 C 0.82093 0.7229 0.51278 0.0
C1942 C 0.86388 0.69711 0.53515 0.0
C1943 C 0.86323 0.67466 0.51241 0.0
C1944 C 0.84039 0.67634 0.49031 0.0
C1945 C 0.81959 0.70016 0.49047 0.0
C1946 C 0.90135 0.5975 0.50329 0.0
C1947 C 0.93121 0.6039 0.51067 0.0
C1948 C 0.87947 0.62025 0.50363 0.0
C1949 C 0.88658 0.65015 0.51163 0.0
C1950 C 0.91644 0.65647 0.51904 0.0
C1951 C 0.93832 0.63383 0.51848 0.0
H1952 H 0.3281 0.78193 0.4781 0.0
H1953 H 0.30691 0.81809 0.56678 0.0
H1954 H 0.36862 0.81866 0.47299 0.0
H1955 H 0.34643 0.85535 0.56133 0.0
H1956 H 0.3943 0.93935 0.5246 0.0
H1957 H 0.35611 0.90059 0.52849 0.0
H1958 H 0.41862 0.83382 0.49702 0.0
H1959 H 0.45714 0.87265 0.49328 0.0
C1960 C 0.33238 0.79732 0.49672 0.0
C1961 C 0.31437 0.79685 0.52301 0.0
C1962 C 0.35547 0.81856 0.49371 0.0
C1963 C 0.36073 0.84019 0.51666 0.0
C1964 C 0.34284 0.8394 0.543 0.0
C1965 C 0.32018 0.81799 0.54616 0.0
C1966 C 0.40003 0.91646 0.5184 0.0
C1967 C 0.42901 0.90928 0.50872 0.0
C1968 C 0.37808 0.89414 0.52081 0.0
C1969 C 0.38422 0.86396 0.5132 0.0
C1970 C 0.41302 0.8568 0.50294 0.0
C1971 C 0.43518 0.87909 0.50099 0.0
H1972 H 0.23027 0.29072 0.52987 0.0
H1973 H 0.25725 0.32899 0.44403 0.0
H1974 H 0.19186 0.32959 0.5352 0.0
H1975 H 0.2191 0.36813 0.44905 0.0
H1976 H 0.15915 0.44633 0.47955 0.0
H1977 H 0.20116 0.41191 0.47874 0.0
H1978 H 0.14393 0.33932 0.5076 0.0
H1979 H 0.10151 0.37403 0.50861 0.0
C1980 C 0.22883 0.30842 0.51289 0.0
C1981 C 0.24717 0.30741 0.48694 0.0
C1982 C 0.20643 0.33023 0.51552 0.0
C1983 C 0.20203 0.35175 0.49233 0.0
C1984 C 0.22189 0.35203 0.46743 0.0
C1985 C 0.24405 0.32994 0.46468 0.0
C1986 C 0.15535 0.42304 0.48578 0.0
C1987 C 0.12677 0.41305 0.49425 0.0
C1988 C 0.17955 0.40325 0.48518 0.0
C1989 C 0.17609 0.37286 0.49331 0.0
C1990 C 0.14751 0.36271 0.50163 0.0
C1991 C 0.12309 0.38251 0.50189 0.0
H1992 H 0.30789 0.19683 0.43916 0.0
H1993 H 0.32908 0.23228 0.52812 0.0
H1994 H 0.34693 0.159 0.44463 0.0
H1995 H 0.36911 0.19498 0.53327 0.0
H1996 H 0.45723 0.14045 0.51321 0.0
H1997 H 0.41896 0.17953 0.50952 0.0
H1998 H 0.35631 0.11344 0.47705 0.0
H1999 H 0.3943 0.07439 0.48089 0.0
C2000 C 0.32107 0.19665 0.45985 0.0
C2001 C 0.31542 0.2178 0.48304 0.0
C2002 C 0.34344 0.17491 0.46303 0.0
C2003 C 0.3612 0.17376 0.48944 0.0
C2004 C 0.35607 0.19535 0.51248 0.0
C2005 C 0.33327 0.21693 0.50945 0.0
C2006 C 0.43529 0.13419 0.50529 0.0
C2007 C 0.42904 0.1041 0.49726 0.0
C2008 C 0.41327 0.15663 0.50337 0.0
C2009 C 0.38451 0.14976 0.49286 0.0
C2010 C 0.37826 0.11968 0.48494 0.0
C2011 C 0.40008 0.09719 0.48731 0.0
H2012 H 0.80719 0.30749 0.53274 0.0
H2013 H 0.84112 0.28053 0.44493 0.0
H2014 H 0.84385 0.34839 0.5347 0.0
H2015 H 0.87816 0.32064 0.44708 0.0
H2016 H 0.96133 0.37374 0.47607 0.0
H2017 H 0.92341 0.33447 0.47462 0.0
H2018 H 0.85896 0.39685 0.51087 0.0
H2019 H 0.89688 0.43622 0.51235 0.0
C2020 C 0.82212 0.31053 0.51363 0.0
C2021 C 0.82096 0.2907 0.48856 0.0
C2022 C 0.84335 0.33393 0.5148 0.0
C2023 C 0.86434 0.33794 0.49113 0.0
C2024 C 0.86288 0.31817 0.46602 0.0
C2025 C 0.84152 0.29512 0.46473 0.0
C2026 C 0.93911 0.37923 0.48373 0.0
C2027 C 0.93244 0.40848 0.49421 0.0
C2028 C 0.91719 0.35662 0.48276 0.0
C2029 C 0.88784 0.36225 0.49255 0.0
C2030 C 0.88123 0.3914 0.50334 0.0
C2031 C 0.90307 0.41415 0.50397 0.0
H2032 H 0.22813 0.72365 0.47664 0.0
H2033 H 0.25563 0.68722 0.56315 0.0
H2034 H 0.18981 0.68462 0.47233 0.0
H2035 H 0.21757 0.64792 0.55915 0.0
H2036 H 0.15803 0.56874 0.53009 0.0
H2037 H 0.19978 0.60348 0.53042 0.0
H2038 H 0.14202 0.6752 0.50026 0.0
H2039 H 0.09987 0.64017 0.49974 0.0
C2040 C 0.2268 0.70632 0.49401 0.0
C2041 C 0.24528 0.70788 0.51983 0.0
C2042 C 0.20446 0.68441 0.49195 0.0
C2043 C 0.20024 0.66336 0.51561 0.0
C2044 C 0.22021 0.66365 0.54043 0.0
C2045 C 0.24231 0.68583 0.5426 0.0
C2046 C 0.15406 0.59193 0.52353 0.0
C2047 C 0.12543 0.60158 0.51482 0.0
C2048 C 0.17811 0.61189 0.52384 0.0
C2049 C 0.17442 0.64211 0.51515 0.0
C2050 C 0.14576 0.65194 0.50667 0.0
C2051 C 0.12151 0.63197 0.5067 0.0
loop_
_geom_bond_atom_site_label_1
_geom_bond_atom_site_label_2
_geom_bond_distance
_geom_bond_site_symmetry_2
_ccdc_geom_bond_type
C0 N1 1.317 . S
C0 N2 1.348 . S
C0 C3 1.485 . S
N1 C0 1.317 . S
N1 N5 1.370 . S
N2 C0 1.348 . S
N2 C4 1.346 . S
C3 C0 1.485 . S
C3 H7 0.960 . S
C3 H8 0.961 . S
C3 H9 0.960 . S
C4 N2 1.346 . S
C4 N5 1.307 . S
C4 C6 1.486 . S
N5 N1 1.370 . S
N5 C4 1.307 . S
C6 C4 1.486 . S
C6 H10 0.960 . S
C6 H11 0.960 . S
C6 H12 0.959 . S
H7 C3 0.960 . S
H8 C3 0.961 . S
H9 C3 0.960 . S
H10 C6 0.960 . S
H11 C6 0.960 . S
H12 C6 0.959 . S
C13 N14 1.317 . S
C13 N15 1.348 . S
C13 C16 1.485 . S
N14 C13 1.317 . S
N14 N18 1.370 . S
N15 C13 1.348 . S
N15 C17 1.346 . S
C16 C13 1.485 . S
C16 H20 0.960 1_545 S
C16 H21 0.961 . S
C16 H22 0.960 . S
C17 N15 1.346 . S
C17 N18 1.307 . S
C17 C19 1.487 . S
N18 N14 1.370 . S
N18 C17 1.307 . S
C19 C17 1.487 . S
C19 H23 0.974 . S
C19 H24 0.948 1_545 S
C19 H25 0.956 1_545 S
H20 C16 0.960 1_565 S
H21 C16 0.961 . S
H22 C16 0.960 . S
H23 C19 0.974 . S
H24 C19 0.948 1_565 S
H25 C19 0.956 1_565 S
C26 N27 1.317 . S
C26 N28 1.348 . S
C26 C29 1.485 . S
N27 C26 1.317 . S
N27 N31 1.370 . S
N28 C26 1.348 . S
N28 C30 1.346 . S
C29 C26 1.485 . S
C29 H33 0.960 . S
C29 H34 0.961 . S
C29 H35 0.960 . S
C30 N28 1.346 . S
C30 N31 1.307 . S
C30 C32 1.486 . S
N31 N27 1.370 . S
N31 C30 1.307 . S
C32 C30 1.486 . S
C32 H36 0.960 . S
C32 H37 0.944 1_455 S
C32 H38 0.959 . S
H33 C29 0.960 . S
H34 C29 0.961 . S
H35 C29 0.960 . S
H36 C32 0.960 . S
H37 C32 0.944 1_655 S
H38 C32 0.959 . S
C39 N40 1.317 1_565 S
C39 N41 1.347 1_565 S
C39 C42 1.485 . S
N40 C39 1.317 1_545 S
N40 N44 1.370 . S
N41 C39 1.347 1_545 S
N41 C43 1.348 . S
C42 C39 1.485 . S
C42 H46 0.960 1_565 S
C42 H47 0.961 . S
C42 H48 0.960 . S
C43 N41 1.348 . S
C43 N44 1.307 . S
C43 C45 1.486 . S
N44 N40 1.370 . S
N44 C43 1.307 . S
C45 C43 1.486 . S
C45 H49 0.960 1_545 S
C45 H50 0.960 . S
C45 H51 0.959 . S
H46 C42 0.960 1_545 S
H47 C42 0.961 . S
H48 C42 0.960 . S
H49 C45 0.960 1_565 S
H50 C45 0.960 . S
H51 C45 0.959 . S
C52 N53 1.317 . S
C52 N54 1.348 . S
C52 C55 1.485 . S
N53 C52 1.317 . S
N53 N57 1.370 . S
N54 C52 1.348 . S
N54 C56 1.346 . S
C55 C52 1.485 . S
C55 H59 0.960 . S
C55 H60 0.961 . S
C55 H61 0.960 . S
C56 N54 1.346 . S
C56 N57 1.307 . S
C56 C58 1.486 . S
N57 N53 1.370 . S
N57 C56 1.307 . S
C58 C56 1.486 . S
C58 H62 0.960 . S
C58 H63 0.960 . S
C58 H64 0.959 . S
H59 C55 0.960 . S
H60 C55 0.961 . S
H61 C55 0.960 . S
H62 C58 0.960 . S
H63 C58 0.960 . S
H64 C58 0.959 . S
C65 N66 1.317 . S
C65 N67 1.350 . S
C65 C68 1.485 . S
N66 C65 1.317 . S
N66 N70 1.371 . S
N67 C65 1.350 . S
N67 C69 1.345 1_545 S
C68 C65 1.485 . S
C68 H72 0.960 1_545 S
C68 H73 0.961 . S
C68 H74 0.960 . S
C69 N67 1.345 1_565 S
C69 N70 1.307 1_565 S
C69 C71 1.486 . S
N70 N66 1.371 . S
N70 C69 1.307 1_545 S
C71 C69 1.486 . S
C71 H75 0.960 1_565 S
C71 H76 0.960 . S
C71 H77 0.959 . S
H72 C68 0.960 1_565 S
H73 C68 0.961 . S
H74 C68 0.960 . S
H75 C71 0.960 1_545 S
H76 C71 0.960 . S
H77 C71 0.959 . S
C78 N79 1.317 . S
C78 N80 1.348 . S
C78 C81 1.485 . S
N79 C78 1.317 . S
N79 N83 1.370 . S
N80 C78 1.348 . S
N80 C82 1.346 . S
C81 C78 1.485 . S
C81 H85 0.960 . S
C81 H86 0.961 . S
C81 H87 0.960 . S
C82 N80 1.346 . S
C82 N83 1.307 . S
C82 C84 1.486 . S
N83 N79 1.370 . S
N83 C82 1.307 . S
C84 C82 1.486 . S
C84 H88 0.960 . S
C84 H89 0.944 1_455 S
C84 H90 0.959 . S
H85 C81 0.960 . S
H86 C81 0.961 . S
H87 C81 0.960 . S
H88 C84 0.960 . S
H89 C84 0.944 1_655 S
H90 C84 0.959 . S
C91 N92 1.317 . S
C91 N93 1.350 . S
C91 C94 1.485 . S
N92 C91 1.317 . S
N92 N96 1.370 . S
N93 C91 1.350 . S
N93 C95 1.345 1_565 S
C94 C91 1.485 . S
C94 H98 0.960 1_565 S
C94 H99 0.961 . S
C94 H100 0.960 . S
C95 N93 1.345 1_545 S
C95 N96 1.307 1_545 S
C95 C97 1.486 . S
N96 N92 1.370 . S
N96 C95 1.307 1_565 S
C97 C95 1.486 . S
C97 H101 0.960 1_545 S
C97 H102 0.960 . S
C97 H103 0.959 . S
H98 C94 0.960 1_545 S
H99 C94 0.961 . S
H100 C94 0.960 . S
H101 C97 0.960 1_565 S
H102 C97 0.960 . S
H103 C97 0.959 . S
C104 N105 1.317 . S
C104 N106 1.350 . S
C104 C107 1.485 . S
N105 C104 1.317 . S
N105 N109 1.371 . S
N106 C104 1.350 . S
N106 C108 1.345 1_554 S
C107 C104 1.485 . S
C107 H111 0.960 1_554 S
C107 H112 0.961 . S
C107 H113 0.960 . S
C108 N106 1.345 1_556 S
C108 N109 1.307 1_556 S
C108 C110 1.486 . S
N109 N105 1.371 . S
N109 C108 1.307 1_554 S
C110 C108 1.486 . S
C110 H114 0.960 1_556 S
C110 H115 0.960 . S
C110 H116 0.959 . S
H111 C107 0.960 1_556 S
H112 C107 0.961 . S
H113 C107 0.960 . S
H114 C110 0.960 1_554 S
H115 C110 0.960 . S
H116 C110 0.959 . S
C117 N118 1.317 . S
C117 N119 1.347 1_556 S
C117 C120 1.485 . S
N118 C117 1.317 . S
N118 N122 1.370 1_556 S
N119 C117 1.347 1_554 S
N119 C121 1.348 . S
C120 C117 1.485 . S
C120 H124 0.960 1_556 S
C120 H125 0.961 . S
C120 H126 0.960 . S
C121 N119 1.348 . S
C121 N122 1.307 . S
C121 C123 1.486 . S
N122 N118 1.370 1_554 S
N122 C121 1.307 . S
C123 C121 1.486 . S
C123 H127 0.960 1_554 S
C123 H128 0.960 . S
C123 H129 0.959 . S
H124 C120 0.960 1_554 S
H125 C120 0.961 . S
H126 C120 0.960 . S
H127 C123 0.960 1_556 S
H128 C123 0.960 . S
H129 C123 0.959 . S
C130 N131 1.317 . S
C130 N132 1.350 . S
C130 C133 1.485 . S
N131 C130 1.317 . S
N131 N135 1.370 . S
N132 C130 1.350 . S
N132 C134 1.345 1_556 S
C133 C130 1.485 . S
C133 H137 0.960 1_556 S
C133 H138 0.961 . S
C133 H139 0.960 . S
C134 N132 1.345 1_554 S
C134 N135 1.307 1_554 S
C134 C136 1.486 . S
N135 N131 1.370 . S
N135 C134 1.307 1_556 S
C136 C134 1.486 . S
C136 H140 0.960 1_554 S
C136 H141 0.960 . S
C136 H142 0.959 . S
H137 C133 0.960 1_554 S
H138 C133 0.961 . S
H139 C133 0.960 . S
H140 C136 0.960 1_556 S
H141 C136 0.960 . S
H142 C136 0.959 . S
C143 N144 1.317 . S
C143 N145 1.348 . S
C143 C146 1.485 . S
N144 C143 1.317 . S
N144 N148 1.370 . S
N145 C143 1.348 . S
N145 C147 1.346 . S
C146 C143 1.485 . S
C146 H150 0.960 1_554 S
C146 H151 0.961 . S
C146 H152 0.960 . S
C147 N145 1.346 . S
C147 N148 1.307 . S
C147 C149 1.487 . S
N148 N144 1.370 . S
N148 C147 1.307 . S
C149 C147 1.487 . S
C149 H153 0.973 . S
C149 H154 0.949 1_554 S
C149 H155 0.956 1_554 S
H150 C146 0.960 1_556 S
H151 C146 0.961 . S
H152 C146 0.960 . S
H153 C149 0.973 . S
H154 C149 0.949 1_556 S
H155 C149 0.956 1_556 S
C156 N157 1.317 . S
C156 N158 1.348 . S
C156 C159 1.485 . S
N157 C156 1.317 . S
N157 N161 1.370 . S
N158 C156 1.348 . S
N158 C160 1.346 . S
C159 C156 1.485 . S
C159 H163 0.960 . S
C159 H164 0.961 . S
C159 H165 0.960 . S
C160 N158 1.346 . S
C160 N161 1.307 . S
C160 C162 1.486 . S
N161 N157 1.370 . S
N161 C160 1.307 . S
C162 C160 1.486 . S
C162 H166 0.960 . S
C162 H167 0.960 . S
C162 H168 0.959 . S
H163 C159 0.960 . S
H164 C159 0.961 . S
H165 C159 0.960 . S
H166 C162 0.960 . S
H167 C162 0.960 . S
H168 C162 0.959 . S
C169 N170 1.317 . S
C169 N171 1.348 . S
C169 C172 1.485 . S
N170 C169 1.317 . S
N170 N174 1.370 . S
N171 C169 1.348 . S
N171 C173 1.346 . S
C172 C169 1.485 . S
C172 H176 0.960 . S
C172 H177 0.961 . S
C172 H178 0.960 . S
C173 N171 1.346 . S
C173 N174 1.307 . S
C173 C175 1.486 . S
N174 N170 1.370 . S
N174 C173 1.307 . S
C175 C173 1.486 . S
C175 H179 0.960 . S
C175 H180 0.960 . S
C175 H181 0.959 . S
H176 C172 0.960 . S
H177 C172 0.961 . S
H178 C172 0.960 . S
H179 C175 0.960 . S
H180 C175 0.960 . S
H181 C175 0.959 . S
C182 N183 1.317 . S
C182 N184 1.348 . S
C182 C185 1.485 . S
N183 C182 1.317 . S
N183 N187 1.370 . S
N184 C182 1.348 . S
N184 C186 1.346 . S
C185 C182 1.485 . S
C185 H189 0.960 . S
C185 H190 0.961 . S
C185 H191 0.960 . S
C186 N184 1.346 . S
C186 N187 1.307 . S
C186 C188 1.486 . S
N187 N183 1.370 . S
N187 C186 1.307 . S
C188 C186 1.486 . S
C188 H192 0.960 . S
C188 H193 0.960 . S
C188 H194 0.959 . S
H189 C185 0.960 . S
H190 C185 0.961 . S
H191 C185 0.960 . S
H192 C188 0.960 . S
H193 C188 0.960 . S
H194 C188 0.959 . S
C195 N196 1.317 . S
C195 N197 1.348 . S
C195 C198 1.485 . S
N196 C195 1.317 . S
N196 N200 1.370 . S
N197 C195 1.348 . S
N197 C199 1.346 . S
C198 C195 1.485 . S
C198 H202 0.960 . S
C198 H203 0.961 . S
C198 H204 0.960 . S
C199 N197 1.346 . S
C199 N200 1.307 . S
C199 C201 1.486 . S
N200 N196 1.370 . S
N200 C199 1.307 . S
C201 C199 1.486 . S
C201 H205 0.960 . S
C201 H206 0.960 . S
C201 H207 0.959 . S
H202 C198 0.960 . S
H203 C198 0.961 . S
H204 C198 0.960 . S
H205 C201 0.960 . S
H206 C201 0.960 . S
H207 C201 0.959 . S
C208 N209 1.317 . S
C208 N210 1.348 . S
C208 C211 1.485 . S
N209 C208 1.317 . S
N209 N213 1.370 . S
N210 C208 1.348 . S
N210 C212 1.346 . S
C211 C208 1.485 . S
C211 H215 0.960 . S
C211 H216 0.961 . S
C211 H217 0.960 . S
C212 N210 1.346 . S
C212 N213 1.307 . S
C212 C214 1.486 . S
N213 N209 1.370 . S
N213 C212 1.307 . S
C214 C212 1.486 . S
C214 H218 0.960 . S
C214 H219 0.960 . S
C214 H220 0.959 . S
H215 C211 0.960 . S
H216 C211 0.961 . S
H217 C211 0.960 . S
H218 C214 0.960 . S
H219 C214 0.960 . S
H220 C214 0.959 . S
C221 N222 1.317 . S
C221 N223 1.348 . S
C221 C224 1.485 . S
N222 C221 1.317 . S
N222 N226 1.370 . S
N223 C221 1.348 . S
N223 C225 1.346 . S
C224 C221 1.485 . S
C224 H228 0.960 . S
C224 H229 0.961 . S
C224 H230 0.960 . S
C225 N223 1.346 . S
C225 N226 1.307 . S
C225 C227 1.486 . S
N226 N222 1.370 . S
N226 C225 1.307 . S
C227 C225 1.486 . S
C227 H231 0.960 . S
C227 H232 0.960 . S
C227 H233 0.959 . S
H228 C224 0.960 . S
H229 C224 0.961 . S
H230 C224 0.960 . S
H231 C227 0.960 . S
H232 C227 0.960 . S
H233 C227 0.959 . S
C234 N235 1.317 . S
C234 N236 1.348 . S
C234 C237 1.485 . S
N235 C234 1.317 . S
N235 N239 1.370 . S
N236 C234 1.348 . S
N236 C238 1.346 . S
C237 C234 1.485 . S
C237 H241 0.960 . S
C237 H242 0.961 . S
C237 H243 0.960 . S
C238 N236 1.346 . S
C238 N239 1.307 . S
C238 C240 1.486 . S
N239 N235 1.370 . S
N239 C238 1.307 . S
C240 C238 1.486 . S
C240 H244 0.960 . S
C240 H245 0.960 . S
C240 H246 0.959 . S
H241 C237 0.960 . S
H242 C237 0.961 . S
H243 C237 0.960 . S
H244 C240 0.960 . S
H245 C240 0.960 . S
H246 C240 0.959 . S
C247 N248 1.317 . S
C247 N249 1.348 . S
C247 C250 1.485 . S
N248 C247 1.317 . S
N248 N252 1.370 . S
N249 C247 1.348 . S
N249 C251 1.346 . S
C250 C247 1.485 . S
C250 H254 0.960 . S
C250 H255 0.961 . S
C250 H256 0.960 . S
C251 N249 1.346 . S
C251 N252 1.307 . S
C251 C253 1.486 . S
N252 N248 1.370 . S
N252 C251 1.307 . S
C253 C251 1.486 . S
C253 H257 0.960 . S
C253 H258 0.960 . S
C253 H259 0.959 . S
H254 C250 0.960 . S
H255 C250 0.961 . S
H256 C250 0.960 . S
H257 C253 0.960 . S
H258 C253 0.960 . S
H259 C253 0.959 . S
C260 N261 1.317 . S
C260 N262 1.348 . S
C260 C263 1.485 . S
N261 C260 1.317 . S
N261 N265 1.370 . S
N262 C260 1.348 . S
N262 C264 1.346 . S
C263 C260 1.485 . S
C263 H267 0.960 . S
C263 H268 0.961 . S
C263 H269 0.960 . S
C264 N262 1.346 . S
C264 N265 1.307 . S
C264 C266 1.486 . S
N265 N261 1.370 . S
N265 C264 1.307 . S
C266 C264 1.486 . S
C266 H270 0.960 . S
C266 H271 0.960 . S
C266 H272 0.959 . S
H267 C263 0.960 . S
H268 C263 0.961 . S
H269 C263 0.960 . S
H270 C266 0.960 . S
H271 C266 0.960 . S
H272 C266 0.959 . S
C273 N274 1.317 . S
C273 N275 1.348 . S
C273 C276 1.485 . S
N274 C273 1.317 . S
N274 N278 1.370 . S
N275 C273 1.348 . S
N275 C277 1.346 . S
C276 C273 1.485 . S
C276 H280 0.960 . S
C276 H281 0.961 . S
C276 H282 0.960 . S
C277 N275 1.346 . S
C277 N278 1.307 . S
C277 C279 1.486 . S
N278 N274 1.370 . S
N278 C277 1.307 . S
C279 C277 1.486 . S
C279 H283 0.960 . S
C279 H284 0.960 . S
C279 H285 0.959 . S
H280 C276 0.960 . S
H281 C276 0.961 . S
H282 C276 0.960 . S
H283 C279 0.960 . S
H284 C279 0.960 . S
H285 C279 0.959 . S
C286 N287 1.317 . S
C286 N288 1.348 . S
C286 C289 1.485 . S
N287 C286 1.317 . S
N287 N291 1.370 . S
N288 C286 1.348 . S
N288 C290 1.346 . S
C289 C286 1.485 . S
C289 H293 0.960 . S
C289 H294 0.961 . S
C289 H295 0.960 . S
C290 N288 1.346 . S
C290 N291 1.307 . S
C290 C292 1.486 . S
N291 N287 1.370 . S
N291 C290 1.307 . S
C292 C290 1.486 . S
C292 H296 0.960 . S
C292 H297 0.960 . S
C292 H298 0.959 . S
H293 C289 0.960 . S
H294 C289 0.961 . S
H295 C289 0.960 . S
H296 C292 0.960 . S
H297 C292 0.960 . S
H298 C292 0.959 . S
C299 N300 1.317 . S
C299 N301 1.348 . S
C299 C302 1.485 . S
N300 C299 1.317 . S
N300 N304 1.370 . S
N301 C299 1.348 . S
N301 C303 1.346 . S
C302 C299 1.485 . S
C302 H306 0.960 . S
C302 H307 0.961 . S
C302 H308 0.960 . S
C303 N301 1.346 . S
C303 N304 1.307 . S
C303 C305 1.486 . S
N304 N300 1.370 . S
N304 C303 1.307 . S
C305 C303 1.486 . S
C305 H309 0.960 . S
C305 H310 0.960 . S
C305 H311 0.959 . S
H306 C302 0.960 . S
H307 C302 0.961 . S
H308 C302 0.960 . S
H309 C305 0.960 . S
H310 C305 0.960 . S
H311 C305 0.959 . S
C312 O338 1.283 . S
C312 O356 1.283 . S
C313 O339 1.283 . S
C313 O354 1.283 . S
C314 O340 1.283 . S
C314 O357 1.283 . S
C315 O341 1.283 . S
C315 O355 1.283 . S
C316 O342 1.283 . S
C316 O351 1.283 . S
C317 O343 1.283 . S
C317 O353 1.283 . S
C318 O344 1.283 . S
C318 O350 1.283 . S
C319 O345 1.283 . S
C319 O352 1.283 . S
C320 O346 1.283 . S
C320 O361 1.283 . S
C321 O347 1.283 . S
C321 O359 1.283 . S
C322 O348 1.283 . S
C322 O360 1.283 . S
C323 O349 1.283 . S
C323 O358 1.283 . S
Eu324 O325 2.370 1_455 S
Eu324 O326 2.370 . S
Eu324 O329 2.370 1_455 S
Eu324 O330 2.370 . S
Eu324 O338 2.363 . S
Eu324 O339 2.363 . S
Eu324 O352 2.363 . S
Eu324 O353 2.363 1_455 S
O325 Eu324 2.370 1_655 S
O325 Eu327 2.353 1_565 S
O325 Eu332 2.350 1_665 S
O326 Eu324 2.370 . S
O326 Eu328 2.352 1_565 S
O326 Eu331 2.355 1_565 S
Eu327 O325 2.353 1_545 S
Eu327 O329 2.352 1_545 S
Eu327 O333 2.388 . S
Eu327 O334 2.388 . S
Eu327 O342 2.393 . S
Eu327 O343 2.333 1_545 S
Eu327 O358 2.363 . S
Eu327 O359 2.363 . S
Eu328 O326 2.352 1_545 S
Eu328 O330 2.353 1_545 S
Eu328 O335 2.388 . S
Eu328 O336 2.388 . S
Eu328 O344 2.393 . S
Eu328 O345 2.333 1_545 S
Eu328 O360 2.363 . S
Eu328 O361 2.363 . S
O329 Eu324 2.370 1_655 S
O329 Eu327 2.352 1_565 S
O329 Eu331 2.355 1_665 S
O330 Eu324 2.370 . S
O330 Eu328 2.353 1_565 S
O330 Eu332 2.350 1_565 S
Eu331 O326 2.355 1_545 S
Eu331 O329 2.355 1_445 S
Eu331 O333 2.385 1_455 S
Eu331 O336 2.385 . S
Eu331 O348 2.363 . S
Eu331 O349 2.363 1_455 S
Eu331 O356 2.338 1_545 S
Eu331 O357 2.388 . S
Eu332 O325 2.350 1_445 S
Eu332 O330 2.350 1_545 S
Eu332 O334 2.391 1_455 S
Eu332 O335 2.391 . S
Eu332 O346 2.363 . S
Eu332 O347 2.363 1_455 S
Eu332 O354 2.328 1_545 S
Eu332 O355 2.398 . S
O333 Eu327 2.388 . S
O333 Eu331 2.385 1_655 S
O333 Eu337 2.370 1_655 S
O334 Eu327 2.388 . S
O334 Eu332 2.391 1_655 S
O334 Eu337 2.370 1_655 S
O335 Eu328 2.388 . S
O335 Eu332 2.391 . S
O335 Eu337 2.370 . S
O336 Eu328 2.388 . S
O336 Eu331 2.385 . S
O336 Eu337 2.370 . S
Eu337 O333 2.370 1_455 S
Eu337 O334 2.370 1_455 S
Eu337 O335 2.370 . S
Eu337 O336 2.370 . S
Eu337 O340 2.363 . S
Eu337 O341 2.363 . S
Eu337 O350 2.363 . S
Eu337 O351 2.363 1_455 S
O338 C312 1.283 . S
O338 Eu324 2.363 . S
O339 C313 1.283 . S
O339 Eu324 2.363 . S
O340 C314 1.283 . S
O340 Eu337 2.363 . S
O341 C315 1.283 . S
O341 Eu337 2.363 . S
O342 C316 1.283 . S
O342 Eu327 2.393 . S
O343 C317 1.283 . S
O343 Eu327 2.333 1_565 S
O344 C318 1.283 . S
O344 Eu328 2.393 . S
O345 C319 1.283 . S
O345 Eu328 2.333 1_565 S
O346 C320 1.283 . S
O346 Eu332 2.363 . S
O347 C321 1.283 . S
O347 Eu332 2.363 1_655 S
O348 C322 1.283 . S
O348 Eu331 2.363 . S
O349 C323 1.283 . S
O349 Eu331 2.363 1_655 S
O350 C318 1.283 . S
O350 Eu337 2.363 . S
O351 C316 1.283 . S
O351 Eu337 2.363 1_655 S
O352 C319 1.283 . S
O352 Eu324 2.363 . S
O353 C317 1.283 . S
O353 Eu324 2.363 1_655 S
O354 C313 1.283 . S
O354 Eu332 2.328 1_565 S
O355 C315 1.283 . S
O355 Eu332 2.398 . S
O356 C312 1.283 . S
O356 Eu331 2.338 1_565 S
O357 C314 1.283 . S
O357 Eu331 2.388 . S
O358 C323 1.283 . S
O358 Eu327 2.363 . S
O359 C321 1.283 . S
O359 Eu327 2.363 . S
O360 C322 1.283 . S
O360 Eu328 2.363 . S
O361 C320 1.283 . S
O361 Eu328 2.363 . S
C362 O388 1.283 . S
C362 O406 1.283 . S
C363 O389 1.283 . S
C363 O404 1.283 . S
C364 O390 1.283 . S
C364 O407 1.283 . S
C365 O391 1.283 . S
C365 O405 1.283 . S
C366 O392 1.283 . S
C366 O401 1.283 . S
C367 O393 1.283 . S
C367 O403 1.283 . S
C368 O394 1.283 . S
C368 O400 1.283 . S
C369 O395 1.283 . S
C369 O402 1.283 . S
C370 O396 1.283 . S
C370 O411 1.283 . S
C371 O397 1.283 . S
C371 O409 1.283 . S
C372 O398 1.283 . S
C372 O410 1.283 . S
C373 O399 1.283 . S
C373 O408 1.283 . S
Eu374 O375 2.370 . S
Eu374 O376 2.370 1_545 S
Eu374 O379 2.370 1_545 S
Eu374 O380 2.370 . S
Eu374 O388 2.363 1_545 S
Eu374 O389 2.363 . S
Eu374 O402 2.363 . S
Eu374 O403 2.363 . S
O375 Eu374 2.370 . S
O375 Eu377 2.405 . S
O375 Eu382 2.378 . S
O376 Eu374 2.370 1_565 S
O376 Eu378 2.370 1_565 S
O376 Eu381 2.370 . S
Eu377 O375 2.405 . S
Eu377 O379 2.370 1_545 S
Eu377 O383 2.335 1_544 S
Eu377 O384 2.371 1_554 S
Eu377 O392 2.334 1_554 S
Eu377 O393 2.392 . S
Eu377 O408 2.333 1_545 S
Eu377 O409 2.393 . S
Eu378 O376 2.370 1_545 S
Eu378 O380 2.405 . S
Eu378 O385 2.371 1_554 S
Eu378 O386 2.335 1_544 S
Eu378 O394 2.334 1_554 S
Eu378 O395 2.392 . S
Eu378 O410 2.333 1_545 S
Eu378 O411 2.393 . S
O379 Eu374 2.370 1_565 S
O379 Eu377 2.370 1_565 S
O379 Eu381 2.370 . S
O380 Eu374 2.370 . S
O380 Eu378 2.405 . S
O380 Eu382 2.378 . S
Eu381 O376 2.370 . S
Eu381 O379 2.370 . S
Eu381 O383 2.370 1_554 S
Eu381 O386 2.370 1_554 S
Eu381 O398 2.363 . S
Eu381 O399 2.363 . S
Eu381 O406 2.363 . S
Eu381 O407 2.363 1_554 S
Eu382 O375 2.378 . S
Eu382 O380 2.378 . S
Eu382 O384 2.362 1_554 S
Eu382 O385 2.362 1_554 S
Eu382 O396 2.363 . S
Eu382 O397 2.363 . S
Eu382 O404 2.377 . S
Eu382 O405 2.349 1_554 S
O383 Eu377 2.335 1_566 S
O383 Eu381 2.370 1_556 S
O383 Eu387 2.361 1_565 S
O384 Eu377 2.371 1_556 S
O384 Eu382 2.362 1_556 S
O384 Eu387 2.379 . S
O385 Eu378 2.371 1_556 S
O385 Eu382 2.362 1_556 S
O385 Eu387 2.379 . S
O386 Eu378 2.335 1_566 S
O386 Eu381 2.370 1_556 S
O386 Eu387 2.361 1_565 S
Eu387 O383 2.361 1_545 S
Eu387 O384 2.379 . S
Eu387 O385 2.379 . S
Eu387 O386 2.361 1_545 S
Eu387 O390 2.348 1_545 S
Eu387 O391 2.378 . S
Eu387 O400 2.363 . S
Eu387 O401 2.363 . S
O388 C362 1.283 . S
O388 Eu374 2.363 1_565 S
O389 C363 1.283 . S
O389 Eu374 2.363 . S
O390 C364 1.283 . S
O390 Eu387 2.348 1_565 S
O391 C365 1.283 . S
O391 Eu387 2.378 . S
O392 C366 1.283 . S
O392 Eu377 2.334 1_556 S
O393 C367 1.283 . S
O393 Eu377 2.392 . S
O394 C368 1.283 . S
O394 Eu378 2.334 1_556 S
O395 C369 1.283 . S
O395 Eu378 2.392 . S
O396 C370 1.283 . S
O396 Eu382 2.363 . S
O397 C371 1.283 . S
O397 Eu382 2.363 . S
O398 C372 1.283 . S
O398 Eu381 2.363 . S
O399 C373 1.283 . S
O399 Eu381 2.363 . S
O400 C368 1.283 . S
O400 Eu387 2.363 . S
O401 C366 1.283 . S
O401 Eu387 2.363 . S
O402 C369 1.283 . S
O402 Eu374 2.363 . S
O403 C367 1.283 . S
O403 Eu374 2.363 . S
O404 C363 1.283 . S
O404 Eu382 2.377 . S
O405 C365 1.283 . S
O405 Eu382 2.349 1_556 S
O406 C362 1.283 . S
O406 Eu381 2.363 . S
O407 C364 1.283 . S
O407 Eu381 2.363 1_556 S
O408 C373 1.283 . S
O408 Eu377 2.333 1_565 S
O409 C371 1.283 . S
O409 Eu377 2.393 . S
O410 C372 1.283 . S
O410 Eu378 2.333 1_565 S
O411 C370 1.283 . S
O411 Eu378 2.393 . S
C412 O438 1.283 . S
C412 O456 1.283 . S
C413 O439 1.283 . S
C413 O454 1.283 . S
C414 O440 1.283 . S
C414 O457 1.283 . S
C415 O441 1.283 . S
C415 O455 1.283 . S
C416 O442 1.283 . S
C416 O451 1.283 . S
C417 O443 1.283 . S
C417 O453 1.283 . S
C418 O444 1.283 . S
C418 O450 1.283 . S
C419 O445 1.283 . S
C419 O452 1.283 . S
C420 O446 1.283 . S
C420 O461 1.283 . S
C421 O447 1.283 . S
C421 O459 1.283 . S
C422 O448 1.283 . S
C422 O460 1.283 . S
C423 O449 1.283 . S
C423 O458 1.283 . S
Eu424 O425 2.356 1_454 S
Eu424 O426 2.385 . S
Eu424 O429 2.385 1_455 S
Eu424 O430 2.356 1_554 S
Eu424 O438 2.387 . S
Eu424 O439 2.339 1_554 S
Eu424 O452 2.363 . S
Eu424 O453 2.363 1_455 S
O425 Eu424 2.356 1_656 S
O425 Eu427 2.353 1_556 S
O425 Eu432 2.370 1_655 S
O426 Eu424 2.385 . S
O426 Eu428 2.387 . S
O426 Eu431 2.370 . S
Eu427 O425 2.353 1_554 S
Eu427 O429 2.387 . S
Eu427 O433 2.387 . S
Eu427 O434 2.353 1_554 S
Eu427 O442 2.363 . S
Eu427 O443 2.363 . S
Eu427 O458 2.392 . S
Eu427 O459 2.334 1_554 S
Eu428 O426 2.387 . S
Eu428 O430 2.353 1_554 S
Eu428 O435 2.353 1_554 S
Eu428 O436 2.387 . S
Eu428 O444 2.363 . S
Eu428 O445 2.363 . S
Eu428 O460 2.392 . S
Eu428 O461 2.334 1_554 S
O429 Eu424 2.385 1_655 S
O429 Eu427 2.387 . S
O429 Eu431 2.370 1_655 S
O430 Eu424 2.356 1_556 S
O430 Eu428 2.353 1_556 S
O430 Eu432 2.370 . S
Eu431 O426 2.370 . S
Eu431 O429 2.370 1_455 S
Eu431 O433 2.370 1_455 S
Eu431 O436 2.370 . S
Eu431 O448 2.363 . S
Eu431 O449 2.363 1_455 S
Eu431 O456 2.363 . S
Eu431 O457 2.363 . S
Eu432 O425 2.370 1_455 S
Eu432 O430 2.370 . S
Eu432 O434 2.370 1_455 S
Eu432 O435 2.370 . S
Eu432 O446 2.363 . S
Eu432 O447 2.363 1_455 S
Eu432 O454 2.363 . S
Eu432 O455 2.363 . S
O433 Eu427 2.387 . S
O433 Eu431 2.370 1_655 S
O433 Eu437 2.390 1_655 S
O434 Eu427 2.353 1_556 S
O434 Eu432 2.370 1_655 S
O434 Eu437 2.350 1_656 S
O435 Eu428 2.353 1_556 S
O435 Eu432 2.370 . S
O435 Eu437 2.350 1_556 S
O436 Eu428 2.387 . S
O436 Eu431 2.370 . S
O436 Eu437 2.390 . S
Eu437 O433 2.390 1_455 S
Eu437 O434 2.350 1_454 S
Eu437 O435 2.350 1_554 S
Eu437 O436 2.390 . S
Eu437 O440 2.397 . S
Eu437 O441 2.329 1_554 S
Eu437 O450 2.363 . S
Eu437 O451 2.363 1_455 S
O438 C412 1.283 . S
O438 Eu424 2.387 . S
O439 C413 1.283 . S
O439 Eu424 2.339 1_556 S
O440 C414 1.283 . S
O440 Eu437 2.397 . S
O441 C415 1.283 . S
O441 Eu437 2.329 1_556 S
O442 C416 1.283 . S
O442 Eu427 2.363 . S
O443 C417 1.283 . S
O443 Eu427 2.363 . S
O444 C418 1.283 . S
O444 Eu428 2.363 . S
O445 C419 1.283 . S
O445 Eu428 2.363 . S
O446 C420 1.283 . S
O446 Eu432 2.363 . S
O447 C421 1.283 . S
O447 Eu432 2.363 1_655 S
O448 C422 1.283 . S
O448 Eu431 2.363 . S
O449 C423 1.283 . S
O449 Eu431 2.363 1_655 S
O450 C418 1.283 . S
O450 Eu437 2.363 . S
O451 C416 1.283 . S
O451 Eu437 2.363 1_655 S
O452 C419 1.283 . S
O452 Eu424 2.363 . S
O453 C417 1.283 . S
O453 Eu424 2.363 1_655 S
O454 C413 1.283 . S
O454 Eu432 2.363 . S
O455 C415 1.283 . S
O455 Eu432 2.363 . S
O456 C412 1.283 . S
O456 Eu431 2.363 . S
O457 C414 1.283 . S
O457 Eu431 2.363 . S
O458 C423 1.283 . S
O458 Eu427 2.392 . S
O459 C421 1.283 . S
O459 Eu427 2.334 1_556 S
O460 C422 1.283 . S
O460 Eu428 2.392 . S
O461 C420 1.283 . S
O461 Eu428 2.334 1_556 S
C462 O488 1.283 . S
C462 O506 1.283 . S
C463 O489 1.283 . S
C463 O504 1.283 . S
C464 O490 1.283 . S
C464 O507 1.283 . S
C465 O491 1.283 . S
C465 O505 1.283 . S
C466 O492 1.283 . S
C466 O501 1.283 . S
C467 O493 1.283 . S
C467 O503 1.283 . S
C468 O494 1.283 . S
C468 O500 1.283 . S
C469 O495 1.283 . S
C469 O502 1.283 . S
C470 O496 1.283 . S
C470 O511 1.283 . S
C471 O497 1.283 . S
C471 O509 1.283 . S
C472 O498 1.283 . S
C472 O510 1.283 . S
C473 O499 1.283 . S
C473 O508 1.283 . S
Eu474 O475 2.370 . S
Eu474 O476 2.370 . S
Eu474 O479 2.370 . S
Eu474 O480 2.370 . S
Eu474 O488 2.363 . S
Eu474 O489 2.363 . S
Eu474 O502 2.363 . S
Eu474 O503 2.363 . S
O475 Eu474 2.370 . S
O475 Eu477 2.387 . S
O475 Eu482 2.390 . S
O476 Eu474 2.370 . S
O476 Eu478 2.387 . S
O476 Eu481 2.385 . S
Eu477 O475 2.387 . S
Eu477 O479 2.387 . S
Eu477 O483 2.353 1_554 S
Eu477 O484 2.353 1_554 S
Eu477 O492 2.334 1_554 S
Eu477 O493 2.392 . S
Eu477 O508 2.363 . S
Eu477 O509 2.363 . S
Eu478 O476 2.387 . S
Eu478 O480 2.387 . S
Eu478 O485 2.353 1_554 S
Eu478 O486 2.353 1_554 S
Eu478 O494 2.334 1_554 S
Eu478 O495 2.392 . S
Eu478 O510 2.363 . S
Eu478 O511 2.363 . S
O479 Eu474 2.370 . S
O479 Eu477 2.387 . S
O479 Eu481 2.385 . S
O480 Eu474 2.370 . S
O480 Eu478 2.387 . S
O480 Eu482 2.390 . S
Eu481 O476 2.385 . S
Eu481 O479 2.385 . S
Eu481 O483 2.356 1_554 S
Eu481 O486 2.356 1_554 S
Eu481 O498 2.363 . S
Eu481 O499 2.363 . S
Eu481 O506 2.387 . S
Eu481 O507 2.339 1_554 S
Eu482 O475 2.390 . S
Eu482 O480 2.390 . S
Eu482 O484 2.350 1_554 S
Eu482 O485 2.350 1_554 S
Eu482 O496 2.363 . S
Eu482 O497 2.363 . S
Eu482 O504 2.397 . S
Eu482 O505 2.329 1_554 S
O483 Eu477 2.353 1_556 S
O483 Eu481 2.356 1_556 S
O483 Eu487 2.370 . S
O484 Eu477 2.353 1_556 S
O484 Eu482 2.350 1_556 S
O484 Eu487 2.370 . S
O485 Eu478 2.353 1_556 S
O485 Eu482 2.350 1_556 S
O485 Eu487 2.370 . S
O486 Eu478 2.353 1_556 S
O486 Eu481 2.356 1_556 S
O486 Eu487 2.370 . S
Eu487 O483 2.370 . S
Eu487 O484 2.370 . S
Eu487 O485 2.370 . S
Eu487 O486 2.370 . S
Eu487 O490 2.363 . S
Eu487 O491 2.363 . S
Eu487 O500 2.363 . S
Eu487 O501 2.363 . S
O488 C462 1.283 . S
O488 Eu474 2.363 . S
O489 C463 1.283 . S
O489 Eu474 2.363 . S
O490 C464 1.283 . S
O490 Eu487 2.363 . S
O491 C465 1.283 . S
O491 Eu487 2.363 . S
O492 C466 1.283 . S
O492 Eu477 2.334 1_556 S
O493 C467 1.283 . S
O493 Eu477 2.392 . S
O494 C468 1.283 . S
O494 Eu478 2.334 1_556 S
O495 C469 1.283 . S
O495 Eu478 2.392 . S
O496 C470 1.283 . S
O496 Eu482 2.363 . S
O497 C471 1.283 . S
O497 Eu482 2.363 . S
O498 C472 1.283 . S
O498 Eu481 2.363 . S
O499 C473 1.283 . S
O499 Eu481 2.363 . S
O500 C468 1.283 . S
O500 Eu487 2.363 . S
O501 C466 1.283 . S
O501 Eu487 2.363 . S
O502 C469 1.283 . S
O502 Eu474 2.363 . S
O503 C467 1.283 . S
O503 Eu474 2.363 . S
O504 C463 1.283 . S
O504 Eu482 2.397 . S
O505 C465 1.283 . S
O505 Eu482 2.329 1_556 S
O506 C462 1.283 . S
O506 Eu481 2.387 . S
O507 C464 1.283 . S
O507 Eu481 2.339 1_556 S
O508 C473 1.283 . S
O508 Eu477 2.363 . S
O509 C471 1.283 . S
O509 Eu477 2.363 . S
O510 C472 1.283 . S
O510 Eu478 2.363 . S
O511 C470 1.283 . S
O511 Eu478 2.363 . S
C512 O538 1.283 . S
C512 O556 1.283 . S
C513 O539 1.283 . S
C513 O554 1.283 . S
C514 O540 1.283 . S
C514 O557 1.283 . S
C515 O541 1.283 . S
C515 O555 1.283 . S
C516 O542 1.283 . S
C516 O551 1.283 . S
C517 O543 1.283 . S
C517 O553 1.283 . S
C518 O544 1.283 . S
C518 O550 1.283 . S
C519 O545 1.283 . S
C519 O552 1.283 . S
C520 O546 1.283 . S
C520 O561 1.283 . S
C521 O547 1.283 . S
C521 O559 1.283 . S
C522 O548 1.283 . S
C522 O560 1.283 . S
C523 O549 1.283 . S
C523 O558 1.283 . S
Eu524 O525 2.370 1_455 S
Eu524 O526 2.370 . S
Eu524 O529 2.370 1_455 S
Eu524 O530 2.370 . S
Eu524 O538 2.363 . S
Eu524 O539 2.363 . S
Eu524 O552 2.363 . S
Eu524 O553 2.363 1_455 S
O525 Eu524 2.370 1_655 S
O525 Eu527 2.370 . S
O525 Eu532 2.370 1_655 S
O526 Eu524 2.370 . S
O526 Eu528 2.370 . S
O526 Eu531 2.370 . S
Eu527 O525 2.370 . S
Eu527 O529 2.370 . S
Eu527 O533 2.370 . S
Eu527 O534 2.370 . S
Eu527 O542 2.363 . S
Eu527 O543 2.363 . S
Eu527 O558 2.363 . S
Eu527 O559 2.363 . S
Eu528 O526 2.370 . S
Eu528 O530 2.370 . S
Eu528 O535 2.370 . S
Eu528 O536 2.370 . S
Eu528 O544 2.363 . S
Eu528 O545 2.363 . S
Eu528 O560 2.363 . S
Eu528 O561 2.363 . S
O529 Eu524 2.370 1_655 S
O529 Eu527 2.370 . S
O529 Eu531 2.370 1_655 S
O530 Eu524 2.370 . S
O530 Eu528 2.370 . S
O530 Eu532 2.370 . S
Eu531 O526 2.370 . S
Eu531 O529 2.370 1_455 S
Eu531 O533 2.370 1_455 S
Eu531 O536 2.370 . S
Eu531 O548 2.363 . S
Eu531 O549 2.363 1_455 S
Eu531 O556 2.363 . S
Eu531 O557 2.363 . S
Eu532 O525 2.370 1_455 S
Eu532 O530 2.370 . S
Eu532 O534 2.370 1_455 S
Eu532 O535 2.370 . S
Eu532 O546 2.363 . S
Eu532 O547 2.363 1_455 S
Eu532 O554 2.363 . S
Eu532 O555 2.363 . S
O533 Eu527 2.370 . S
O533 Eu531 2.370 1_655 S
O533 Eu537 2.370 1_655 S
O534 Eu527 2.370 . S
O534 Eu532 2.370 1_655 S
O534 Eu537 2.370 1_655 S
O535 Eu528 2.370 . S
O535 Eu532 2.370 . S
O535 Eu537 2.370 . S
O536 Eu528 2.370 . S
O536 Eu531 2.370 . S
O536 Eu537 2.370 . S
Eu537 O533 2.370 1_455 S
Eu537 O534 2.370 1_455 S
Eu537 O535 2.370 . S
Eu537 O536 2.370 . S
Eu537 O540 2.363 . S
Eu537 O541 2.363 . S
Eu537 O550 2.363 . S
Eu537 O551 2.363 1_455 S
O538 C512 1.283 . S
O538 Eu524 2.363 . S
O539 C513 1.283 . S
O539 Eu524 2.363 . S
O540 C514 1.283 . S
O540 Eu537 2.363 . S
O541 C515 1.283 . S
O541 Eu537 2.363 . S
O542 C516 1.283 . S
O542 Eu527 2.363 . S
O543 C517 1.283 . S
O543 Eu527 2.363 . S
O544 C518 1.283 . S
O544 Eu528 2.363 . S
O545 C519 1.283 . S
O545 Eu528 2.363 . S
O546 C520 1.283 . S
O546 Eu532 2.363 . S
O547 C521 1.283 . S
O547 Eu532 2.363 1_655 S
O548 C522 1.283 . S
O548 Eu531 2.363 . S
O549 C523 1.283 . S
O549 Eu531 2.363 1_655 S
O550 C518 1.283 . S
O550 Eu537 2.363 . S
O551 C516 1.283 . S
O551 Eu537 2.363 1_655 S
O552 C519 1.283 . S
O552 Eu524 2.363 . S
O553 C517 1.283 . S
O553 Eu524 2.363 1_655 S
O554 C513 1.283 . S
O554 Eu532 2.363 . S
O555 C515 1.283 . S
O555 Eu532 2.363 . S
O556 C512 1.283 . S
O556 Eu531 2.363 . S
O557 C514 1.283 . S
O557 Eu531 2.363 . S
O558 C523 1.283 . S
O558 Eu527 2.363 . S
O559 C521 1.283 . S
O559 Eu527 2.363 . S
O560 C522 1.283 . S
O560 Eu528 2.363 . S
O561 C520 1.283 . S
O561 Eu528 2.363 . S
C562 O588 1.283 . S
C562 O606 1.283 . S
C563 O589 1.283 . S
C563 O604 1.283 . S
C564 O590 1.283 . S
C564 O607 1.283 . S
C565 O591 1.283 . S
C565 O605 1.283 . S
C566 O592 1.283 . S
C566 O601 1.283 . S
C567 O593 1.283 . S
C567 O603 1.283 . S
C568 O594 1.283 . S
C568 O600 1.283 . S
C569 O595 1.283 . S
C569 O602 1.283 . S
C570 O596 1.283 . S
C570 O611 1.283 . S
C571 O597 1.283 . S
C571 O609 1.283 . S
C572 O598 1.283 . S
C572 O610 1.283 . S
C573 O599 1.283 . S
C573 O608 1.283 . S
Eu574 O575 2.370 . S
Eu574 O576 2.370 . S
Eu574 O579 2.370 . S
Eu574 O580 2.370 . S
Eu574 O588 2.363 . S
Eu574 O589 2.363 . S
Eu574 O602 2.363 . S
Eu574 O603 2.363 . S
O575 Eu574 2.370 . S
O575 Eu577 2.353 1_565 S
O575 Eu582 2.350 1_565 S
O576 Eu574 2.370 . S
O576 Eu578 2.352 1_565 S
O576 Eu581 2.355 1_565 S
Eu577 O575 2.353 1_545 S
Eu577 O579 2.352 1_545 S
Eu577 O583 2.388 . S
Eu577 O584 2.388 . S
Eu577 O592 2.393 . S
Eu577 O593 2.333 1_545 S
Eu577 O608 2.363 . S
Eu577 O609 2.363 . S
Eu578 O576 2.352 1_545 S
Eu578 O580 2.353 1_545 S
Eu578 O585 2.388 . S
Eu578 O586 2.388 . S
Eu578 O594 2.393 . S
Eu578 O595 2.333 1_545 S
Eu578 O610 2.363 . S
Eu578 O611 2.363 . S
O579 Eu574 2.370 . S
O579 Eu577 2.352 1_565 S
O579 Eu581 2.355 1_565 S
O580 Eu574 2.370 . S
O580 Eu578 2.353 1_565 S
O580 Eu582 2.350 1_565 S
Eu581 O576 2.355 1_545 S
Eu581 O579 2.355 1_545 S
Eu581 O583 2.385 . S
Eu581 O586 2.385 . S
Eu581 O598 2.363 . S
Eu581 O599 2.363 . S
Eu581 O606 2.337 1_545 S
Eu581 O607 2.388 . S
Eu582 O575 2.350 1_545 S
Eu582 O580 2.350 1_545 S
Eu582 O584 2.391 . S
Eu582 O585 2.391 . S
Eu582 O596 2.363 . S
Eu582 O597 2.363 . S
Eu582 O604 2.329 1_545 S
Eu582 O605 2.397 . S
O583 Eu577 2.388 . S
O583 Eu581 2.385 . S
O583 Eu587 2.370 . S
O584 Eu577 2.388 . S
O584 Eu582 2.391 . S
O584 Eu587 2.370 . S
O585 Eu578 2.388 . S
O585 Eu582 2.391 . S
O585 Eu587 2.370 . S
O586 Eu578 2.388 . S
O586 Eu581 2.385 . S
O586 Eu587 2.370 . S
Eu587 O583 2.370 . S
Eu587 O584 2.370 . S
Eu587 O585 2.370 . S
Eu587 O586 2.370 . S
Eu587 O590 2.363 . S
Eu587 O591 2.363 . S
Eu587 O600 2.363 . S
Eu587 O601 2.363 . S
O588 C562 1.283 . S
O588 Eu574 2.363 . S
O589 C563 1.283 . S
O589 Eu574 2.363 . S
O590 C564 1.283 . S
O590 Eu587 2.363 . S
O591 C565 1.283 . S
O591 Eu587 2.363 . S
O592 C566 1.283 . S
O592 Eu577 2.393 . S
O593 C567 1.283 . S
O593 Eu577 2.333 1_565 S
O594 C568 1.283 . S
O594 Eu578 2.393 . S
O595 C569 1.283 . S
O595 Eu578 2.333 1_565 S
O596 C570 1.283 . S
O596 Eu582 2.363 . S
O597 C571 1.283 . S
O597 Eu582 2.363 . S
O598 C572 1.283 . S
O598 Eu581 2.363 . S
O599 C573 1.283 . S
O599 Eu581 2.363 . S
O600 C568 1.283 . S
O600 Eu587 2.363 . S
O601 C566 1.283 . S
O601 Eu587 2.363 . S
O602 C569 1.283 . S
O602 Eu574 2.363 . S
O603 C567 1.283 . S
O603 Eu574 2.363 . S
O604 C563 1.283 . S
O604 Eu582 2.329 1_565 S
O605 C565 1.283 . S
O605 Eu582 2.397 . S
O606 C562 1.283 . S
O606 Eu581 2.337 1_565 S
O607 C564 1.283 . S
O607 Eu581 2.388 . S
O608 C573 1.283 . S
O608 Eu577 2.363 . S
O609 C571 1.283 . S
O609 Eu577 2.363 . S
O610 C572 1.283 . S
O610 Eu578 2.363 . S
O611 C570 1.283 . S
O611 Eu578 2.363 . S
H612 C620 0.950 . S
H613 C625 0.950 . S
H614 C622 0.950 . S
H615 C624 0.950 . S
H616 C626 0.950 . S
H617 C628 0.950 . S
H618 C630 0.950 . S
H619 C631 0.950 . S
C620 H612 0.950 . S
C620 C621 1.386 . S
C620 C622 1.391 . S
C621 C620 1.386 . S
C621 C625 1.393 . S
C622 H614 0.950 . S
C622 C620 1.391 . S
C622 C623 1.400 . S
C623 C622 1.400 . S
C623 C624 1.398 . S
C623 C629 1.491 . S
C624 H615 0.950 . S
C624 C623 1.398 . S
C624 C625 1.391 . S
C625 H613 0.950 . S
C625 C621 1.393 . S
C625 C624 1.391 . S
C626 H616 0.950 . S
C626 C627 1.386 . S
C626 C628 1.391 . S
C627 C626 1.386 . S
C627 C631 1.393 . S
C628 H617 0.950 . S
C628 C626 1.391 . S
C628 C629 1.400 . S
C629 C623 1.491 . S
C629 C628 1.400 . S
C629 C630 1.398 . S
C630 H618 0.950 . S
C630 C629 1.398 . S
C630 C631 1.391 . S
C631 H619 0.950 . S
C631 C627 1.393 . S
C631 C630 1.391 . S
H632 C640 0.950 . S
H633 C645 0.950 . S
H634 C642 0.950 . S
H635 C644 0.950 . S
H636 C646 0.950 . S
H637 C648 0.950 . S
H638 C650 0.950 . S
H639 C651 0.950 . S
C640 H632 0.950 . S
C640 C641 1.386 . S
C640 C642 1.391 . S
C641 C640 1.386 . S
C641 C645 1.393 . S
C642 H634 0.950 . S
C642 C640 1.391 . S
C642 C643 1.400 . S
C643 C642 1.400 . S
C643 C644 1.398 . S
C643 C649 1.491 . S
C644 H635 0.950 . S
C644 C643 1.398 . S
C644 C645 1.391 . S
C645 H633 0.950 . S
C645 C641 1.393 . S
C645 C644 1.391 . S
C646 H636 0.950 . S
C646 C647 1.386 . S
C646 C648 1.391 . S
C647 C646 1.386 . S
C647 C651 1.393 . S
C648 H637 0.950 . S
C648 C646 1.391 . S
C648 C649 1.400 . S
C649 C643 1.491 . S
C649 C648 1.400 . S
C649 C650 1.398 . S
C650 H638 0.950 . S
C650 C649 1.398 . S
C650 C651 1.391 . S
C651 H639 0.950 . S
C651 C647 1.393 . S
C651 C650 1.391 . S
H652 C660 0.950 . S
H653 C665 0.950 . S
H654 C662 0.950 . S
H655 C664 0.950 . S
H656 C666 0.950 . S
H657 C668 0.950 . S
H658 C670 0.950 . S
H659 C671 0.950 . S
C660 H652 0.950 . S
C660 C661 1.386 . S
C660 C662 1.391 . S
C661 C660 1.386 . S
C661 C665 1.393 . S
C662 H654 0.950 . S
C662 C660 1.391 . S
C662 C663 1.400 . S
C663 C662 1.400 . S
C663 C664 1.398 . S
C663 C669 1.491 . S
C664 H655 0.950 . S
C664 C663 1.398 . S
C664 C665 1.391 . S
C665 H653 0.950 . S
C665 C661 1.393 . S
C665 C664 1.391 . S
C666 H656 0.950 . S
C666 C667 1.386 . S
C666 C668 1.391 . S
C667 C666 1.386 . S
C667 C671 1.393 . S
C668 H657 0.950 . S
C668 C666 1.391 . S
C668 C669 1.400 . S
C669 C663 1.491 . S
C669 C668 1.400 . S
C669 C670 1.398 . S
C670 H658 0.950 . S
C670 C669 1.398 . S
C670 C671 1.391 . S
C671 H659 0.950 . S
C671 C667 1.393 . S
C671 C670 1.391 . S
H672 C680 0.950 . S
H673 C685 0.950 . S
H674 C682 0.950 . S
H675 C684 0.950 . S
H676 C686 0.950 . S
H677 C688 0.950 . S
H678 C690 0.950 . S
H679 C691 0.950 . S
C680 H672 0.950 . S
C680 C681 1.386 . S
C680 C682 1.391 . S
C681 C680 1.386 . S
C681 C685 1.393 . S
C682 H674 0.950 . S
C682 C680 1.391 . S
C682 C683 1.400 . S
C683 C682 1.400 . S
C683 C684 1.398 . S
C683 C689 1.491 . S
C684 H675 0.950 . S
C684 C683 1.398 . S
C684 C685 1.391 . S
C685 H673 0.950 . S
C685 C681 1.393 . S
C685 C684 1.391 . S
C686 H676 0.950 . S
C686 C687 1.386 . S
C686 C688 1.391 . S
C687 C686 1.386 . S
C687 C691 1.393 . S
C688 H677 0.950 . S
C688 C686 1.391 . S
C688 C689 1.400 . S
C689 C683 1.491 . S
C689 C688 1.400 . S
C689 C690 1.398 . S
C690 H678 0.950 . S
C690 C689 1.398 . S
C690 C691 1.391 . S
C691 H679 0.950 . S
C691 C687 1.393 . S
C691 C690 1.391 . S
H692 C700 0.950 . S
H693 C705 0.950 . S
H694 C702 0.950 . S
H695 C704 0.950 . S
H696 C706 0.950 . S
H697 C708 0.950 . S
H698 C710 0.950 . S
H699 C711 0.950 . S
C700 H692 0.950 . S
C700 C701 1.386 . S
C700 C702 1.391 . S
C701 C700 1.386 . S
C701 C705 1.393 . S
C702 H694 0.950 . S
C702 C700 1.391 . S
C702 C703 1.400 . S
C703 C702 1.400 . S
C703 C704 1.398 . S
C703 C709 1.491 . S
C704 H695 0.950 . S
C704 C703 1.398 . S
C704 C705 1.391 . S
C705 H693 0.950 . S
C705 C701 1.393 . S
C705 C704 1.391 . S
C706 H696 0.950 . S
C706 C707 1.386 . S
C706 C708 1.391 . S
C707 C706 1.386 . S
C707 C711 1.393 . S
C708 H697 0.950 . S
C708 C706 1.391 . S
C708 C709 1.400 . S
C709 C703 1.491 . S
C709 C708 1.400 . S
C709 C710 1.398 . S
C710 H698 0.950 . S
C710 C709 1.398 . S
C710 C711 1.391 . S
C711 H699 0.950 . S
C711 C707 1.393 . S
C711 C710 1.391 . S
H712 C720 0.950 . S
H713 C725 0.950 . S
H714 C722 0.950 . S
H715 C724 0.950 . S
H716 C726 0.950 . S
H717 C728 0.950 . S
H718 C730 0.950 . S
H719 C731 0.950 . S
C720 H712 0.950 . S
C720 C721 1.386 . S
C720 C722 1.391 . S
C721 C720 1.386 . S
C721 C725 1.393 . S
C722 H714 0.950 . S
C722 C720 1.391 . S
C722 C723 1.400 . S
C723 C722 1.400 . S
C723 C724 1.398 . S
C723 C729 1.491 . S
C724 H715 0.950 . S
C724 C723 1.398 . S
C724 C725 1.391 . S
C725 H713 0.950 . S
C725 C721 1.393 . S
C725 C724 1.391 . S
C726 H716 0.950 . S
C726 C727 1.386 . S
C726 C728 1.391 . S
C727 C726 1.386 . S
C727 C731 1.393 . S
C728 H717 0.950 . S
C728 C726 1.391 . S
C728 C729 1.400 . S
C729 C723 1.491 . S
C729 C728 1.400 . S
C729 C730 1.398 . S
C730 H718 0.950 . S
C730 C729 1.398 . S
C730 C731 1.391 . S
C731 H719 0.950 . S
C731 C727 1.393 . S
C731 C730 1.391 . S
H732 C740 0.950 . S
H733 C745 0.950 . S
H734 C742 0.950 . S
H735 C744 0.950 . S
H736 C746 0.950 . S
H737 C748 0.950 . S
H738 C750 0.950 . S
H739 C751 0.950 . S
C740 H732 0.950 . S
C740 C741 1.386 . S
C740 C742 1.391 . S
C741 C740 1.386 . S
C741 C745 1.393 . S
C742 H734 0.950 . S
C742 C740 1.391 . S
C742 C743 1.400 . S
C743 C742 1.400 . S
C743 C744 1.398 . S
C743 C749 1.491 . S
C744 H735 0.950 . S
C744 C743 1.398 . S
C744 C745 1.391 . S
C745 H733 0.950 . S
C745 C741 1.393 . S
C745 C744 1.391 . S
C746 H736 0.950 . S
C746 C747 1.386 . S
C746 C748 1.391 . S
C747 C746 1.386 . S
C747 C751 1.393 . S
C748 H737 0.950 . S
C748 C746 1.391 . S
C748 C749 1.400 . S
C749 C743 1.491 . S
C749 C748 1.400 . S
C749 C750 1.398 . S
C750 H738 0.950 . S
C750 C749 1.398 . S
C750 C751 1.391 . S
C751 H739 0.950 . S
C751 C747 1.393 . S
C751 C750 1.391 . S
H752 C760 0.950 . S
H753 C765 0.950 . S
H754 C762 0.950 . S
H755 C764 0.950 . S
H756 C766 0.950 . S
H757 C768 0.950 . S
H758 C770 0.950 . S
H759 C771 0.950 . S
C760 H752 0.950 . S
C760 C761 1.386 . S
C760 C762 1.391 . S
C761 C760 1.386 . S
C761 C765 1.393 . S
C762 H754 0.950 . S
C762 C760 1.391 . S
C762 C763 1.400 . S
C763 C762 1.400 . S
C763 C764 1.398 . S
C763 C769 1.491 . S
C764 H755 0.950 . S
C764 C763 1.398 . S
C764 C765 1.391 . S
C765 H753 0.950 . S
C765 C761 1.393 . S
C765 C764 1.391 . S
C766 H756 0.950 . S
C766 C767 1.386 . S
C766 C768 1.391 . S
C767 C766 1.386 . S
C767 C771 1.393 . S
C768 H757 0.950 . S
C768 C766 1.391 . S
C768 C769 1.400 . S
C769 C763 1.491 . S
C769 C768 1.400 . S
C769 C770 1.398 . S
C770 H758 0.950 . S
C770 C769 1.398 . S
C770 C771 1.391 . S
C771 H759 0.950 . S
C771 C767 1.393 . S
C771 C770 1.391 . S
H772 C780 0.950 . S
H773 C785 0.950 . S
H774 C782 0.950 . S
H775 C784 0.950 . S
H776 C786 0.950 . S
H777 C788 0.950 . S
H778 C790 0.950 . S
H779 C791 0.950 . S
C780 H772 0.950 . S
C780 C781 1.386 . S
C780 C782 1.391 . S
C781 C780 1.386 . S
C781 C785 1.393 . S
C782 H774 0.950 . S
C782 C780 1.391 . S
C782 C783 1.400 . S
C783 C782 1.400 . S
C783 C784 1.398 . S
C783 C789 1.491 . S
C784 H775 0.950 . S
C784 C783 1.398 . S
C784 C785 1.391 . S
C785 H773 0.950 . S
C785 C781 1.393 . S
C785 C784 1.391 . S
C786 H776 0.950 . S
C786 C787 1.386 . S
C786 C788 1.391 . S
C787 C786 1.386 . S
C787 C791 1.393 . S
C788 H777 0.950 . S
C788 C786 1.391 . S
C788 C789 1.400 . S
C789 C783 1.491 . S
C789 C788 1.400 . S
C789 C790 1.398 . S
C790 H778 0.950 . S
C790 C789 1.398 . S
C790 C791 1.391 . S
C791 H779 0.950 . S
C791 C787 1.393 . S
C791 C790 1.391 . S
H792 C800 0.950 . S
H793 C805 0.950 . S
H794 C802 0.950 . S
H795 C804 0.950 . S
H796 C806 0.950 . S
H797 C808 0.950 . S
H798 C810 0.950 . S
H799 C811 0.950 . S
C800 H792 0.950 . S
C800 C801 1.386 . S
C800 C802 1.391 . S
C801 C800 1.386 . S
C801 C805 1.393 . S
C802 H794 0.950 . S
C802 C800 1.391 . S
C802 C803 1.400 . S
C803 C802 1.400 . S
C803 C804 1.398 . S
C803 C809 1.491 . S
C804 H795 0.950 . S
C804 C803 1.398 . S
C804 C805 1.391 . S
C805 H793 0.950 . S
C805 C801 1.393 . S
C805 C804 1.391 . S
C806 H796 0.950 . S
C806 C807 1.386 . S
C806 C808 1.391 . S
C807 C806 1.386 . S
C807 C811 1.393 . S
C808 H797 0.950 . S
C808 C806 1.391 . S
C808 C809 1.400 . S
C809 C803 1.491 . S
C809 C808 1.400 . S
C809 C810 1.398 . S
C810 H798 0.950 . S
C810 C809 1.398 . S
C810 C811 1.391 . S
C811 H799 0.950 . S
C811 C807 1.393 . S
C811 C810 1.391 . S
H812 C820 0.950 . S
H813 C825 0.950 . S
H814 C822 0.950 . S
H815 C824 0.950 . S
H816 C826 0.950 . S
H817 C828 0.950 . S
H818 C830 0.950 . S
H819 C831 0.950 . S
C820 H812 0.950 . S
C820 C821 1.386 . S
C820 C822 1.391 . S
C821 C820 1.386 . S
C821 C825 1.393 . S
C822 H814 0.950 . S
C822 C820 1.391 . S
C822 C823 1.400 . S
C823 C822 1.400 . S
C823 C824 1.398 . S
C823 C829 1.491 . S
C824 H815 0.950 . S
C824 C823 1.398 . S
C824 C825 1.391 . S
C825 H813 0.950 . S
C825 C821 1.393 . S
C825 C824 1.391 . S
C826 H816 0.950 . S
C826 C827 1.386 . S
C826 C828 1.391 . S
C827 C826 1.386 . S
C827 C831 1.393 . S
C828 H817 0.950 . S
C828 C826 1.391 . S
C828 C829 1.400 . S
C829 C823 1.491 . S
C829 C828 1.400 . S
C829 C830 1.398 . S
C830 H818 0.950 . S
C830 C829 1.398 . S
C830 C831 1.391 . S
C831 H819 0.950 . S
C831 C827 1.393 . S
C831 C830 1.391 . S
H832 C840 0.950 . S
H833 C845 0.950 . S
H834 C842 0.950 . S
H835 C844 0.950 . S
H836 C846 0.950 . S
H837 C848 0.950 . S
H838 C850 0.950 . S
H839 C851 0.950 . S
C840 H832 0.950 . S
C840 C841 1.386 . S
C840 C842 1.391 . S
C841 C840 1.386 . S
C841 C845 1.393 . S
C842 H834 0.950 . S
C842 C840 1.391 . S
C842 C843 1.400 . S
C843 C842 1.400 . S
C843 C844 1.398 . S
C843 C849 1.491 . S
C844 H835 0.950 . S
C844 C843 1.398 . S
C844 C845 1.391 . S
C845 H833 0.950 . S
C845 C841 1.393 . S
C845 C844 1.391 . S
C846 H836 0.950 . S
C846 C847 1.386 . S
C846 C848 1.391 . S
C847 C846 1.386 . S
C847 C851 1.393 . S
C848 H837 0.950 . S
C848 C846 1.391 . S
C848 C849 1.400 . S
C849 C843 1.491 . S
C849 C848 1.400 . S
C849 C850 1.398 . S
C850 H838 0.950 . S
C850 C849 1.398 . S
C850 C851 1.391 . S
C851 H839 0.950 . S
C851 C847 1.393 . S
C851 C850 1.391 . S
H852 C860 0.950 . S
H853 C865 0.951 . S
H854 C862 0.950 . S
H855 C864 0.950 . S
H856 C866 0.951 . S
H857 C868 0.950 . S
H858 C870 0.950 . S
H859 C871 0.950 . S
C860 H852 0.950 . S
C860 C861 1.386 . S
C860 C862 1.391 . S
C861 C860 1.386 . S
C861 C865 1.392 1_554 S
C862 H854 0.950 . S
C862 C860 1.391 . S
C862 C863 1.401 . S
C863 C862 1.401 . S
C863 C864 1.397 1_554 S
C863 C869 1.492 . S
C864 H855 0.950 . S
C864 C863 1.397 1_556 S
C864 C865 1.391 . S
C865 H853 0.951 . S
C865 C861 1.392 1_556 S
C865 C864 1.391 . S
C866 H856 0.951 . S
C866 C867 1.386 . S
C866 C868 1.391 . S
C867 C866 1.386 . S
C867 C871 1.393 . S
C868 H857 0.950 . S
C868 C866 1.391 . S
C868 C869 1.400 . S
C869 C863 1.492 . S
C869 C868 1.400 . S
C869 C870 1.398 . S
C870 H858 0.950 . S
C870 C869 1.398 . S
C870 C871 1.391 . S
C871 H859 0.950 . S
C871 C867 1.393 . S
C871 C870 1.391 . S
H872 C880 0.950 . S
H873 C885 0.950 . S
H874 C882 0.950 . S
H875 C884 0.950 . S
H876 C886 0.950 . S
H877 C888 0.950 . S
H878 C890 0.950 . S
H879 C891 0.950 . S
C880 H872 0.950 . S
C880 C881 1.386 . S
C880 C882 1.391 . S
C881 C880 1.386 . S
C881 C885 1.393 1_554 S
C882 H874 0.950 . S
C882 C880 1.391 . S
C882 C883 1.400 . S
C883 C882 1.400 . S
C883 C884 1.398 1_554 S
C883 C889 1.492 . S
C884 H875 0.950 . S
C884 C883 1.398 1_556 S
C884 C885 1.391 . S
C885 H873 0.950 . S
C885 C881 1.393 1_556 S
C885 C884 1.391 . S
C886 H876 0.950 . S
C886 C887 1.385 1_556 S
C886 C888 1.391 . S
C887 C886 1.385 1_554 S
C887 C891 1.393 . S
C888 H877 0.950 . S
C888 C886 1.391 . S
C888 C889 1.389 1_556 S
C889 C883 1.492 . S
C889 C888 1.389 1_554 S
C889 C890 1.409 . S
C890 H878 0.950 . S
C890 C889 1.409 . S
C890 C891 1.391 . S
C891 H879 0.950 . S
C891 C887 1.393 . S
C891 C890 1.391 . S
H892 C900 0.950 . S
H893 C905 0.950 . S
H894 C902 0.950 . S
H895 C904 0.950 . S
H896 C906 0.950 . S
H897 C908 0.950 . S
H898 C910 0.950 . S
H899 C911 0.950 . S
C900 H892 0.950 . S
C900 C901 1.396 . S
C900 C902 1.391 . S
C901 C900 1.396 . S
C901 C905 1.384 1_556 S
C902 H894 0.950 . S
C902 C900 1.391 . S
C902 C903 1.401 . S
C903 C902 1.401 . S
C903 C904 1.398 1_556 S
C903 C909 1.491 1_556 S
C904 H895 0.950 . S
C904 C903 1.398 1_554 S
C904 C905 1.391 . S
C905 H893 0.950 . S
C905 C901 1.384 1_554 S
C905 C904 1.391 . S
C906 H896 0.950 . S
C906 C907 1.386 . S
C906 C908 1.391 . S
C907 C906 1.386 . S
C907 C911 1.393 1_554 S
C908 H897 0.950 . S
C908 C906 1.391 . S
C908 C909 1.400 . S
C909 C903 1.491 1_554 S
C909 C908 1.400 . S
C909 C910 1.398 1_554 S
C910 H898 0.950 . S
C910 C909 1.398 1_556 S
C910 C911 1.391 . S
C911 H899 0.950 . S
C911 C907 1.393 1_556 S
C911 C910 1.391 . S
H912 C920 0.950 . S
H913 C925 0.950 . S
H914 C922 0.950 . S
H915 C924 0.950 . S
H916 C926 0.950 . S
H917 C928 0.950 . S
H918 C930 0.950 . S
H919 C931 0.950 . S
C920 H912 0.950 . S
C920 C921 1.377 1_556 S
C920 C922 1.391 . S
C921 C920 1.377 1_554 S
C921 C925 1.402 . S
C922 H914 0.950 . S
C922 C920 1.391 . S
C922 C923 1.389 1_556 S
C923 C922 1.389 1_554 S
C923 C924 1.410 . S
C923 C929 1.491 . S
C924 H915 0.950 . S
C924 C923 1.410 . S
C924 C925 1.391 . S
C925 H913 0.950 . S
C925 C921 1.402 . S
C925 C924 1.391 . S
C926 H916 0.950 . S
C926 C927 1.394 . S
C926 C928 1.391 . S
C927 C926 1.394 . S
C927 C931 1.384 1_554 S
C928 H917 0.950 . S
C928 C926 1.391 . S
C928 C929 1.406 . S
C929 C923 1.491 . S
C929 C928 1.406 . S
C929 C930 1.393 1_554 S
C930 H918 0.950 . S
C930 C929 1.393 1_556 S
C930 C931 1.391 . S
C931 H919 0.950 . S
C931 C927 1.384 1_556 S
C931 C930 1.391 . S
H932 C940 0.950 . S
H933 C945 0.950 1_655 S
H934 C942 0.950 . S
H935 C944 0.950 1_655 S
H936 C946 0.950 . S
H937 C948 0.953 . S
H938 C950 0.950 . S
H939 C951 0.950 . S
C940 H932 0.950 . S
C940 C941 1.386 . S
C940 C942 1.391 . S
C941 C940 1.386 . S
C941 C945 1.393 . S
C942 H934 0.950 . S
C942 C940 1.391 . S
C942 C943 1.400 . S
C943 C942 1.400 . S
C943 C944 1.398 . S
C943 C949 1.491 . S
C944 H935 0.950 1_455 S
C944 C943 1.398 . S
C944 C945 1.391 . S
C945 H933 0.950 1_455 S
C945 C941 1.393 . S
C945 C944 1.391 . S
C946 H936 0.950 . S
C946 C947 1.386 . S
C946 C948 1.391 . S
C947 C946 1.386 . S
C947 C951 1.393 . S
C948 H937 0.953 . S
C948 C946 1.391 . S
C948 C949 1.400 . S
C949 C943 1.491 . S
C949 C948 1.400 . S
C949 C950 1.398 . S
C950 H938 0.950 . S
C950 C949 1.398 . S
C950 C951 1.391 . S
C951 H939 0.950 . S
C951 C947 1.393 . S
C951 C950 1.391 . S
H952 C960 0.950 . S
H953 C965 0.949 1_565 S
H954 C962 0.950 . S
H955 C964 0.950 . S
H956 C966 0.950 . S
H957 C968 0.950 . S
H958 C970 0.950 . S
H959 C971 0.951 . S
C960 H952 0.950 . S
C960 C961 1.386 . S
C960 C962 1.391 . S
C961 C960 1.386 . S
C961 C965 1.393 . S
C962 H954 0.950 . S
C962 C960 1.391 . S
C962 C963 1.403 . S
C963 C962 1.403 . S
C963 C964 1.398 . S
C963 C969 1.490 1_545 S
C964 H955 0.950 . S
C964 C963 1.398 . S
C964 C965 1.391 . S
C965 H953 0.949 1_545 S
C965 C961 1.393 . S
C965 C964 1.391 . S
C966 H956 0.950 . S
C966 C967 1.386 . S
C966 C968 1.391 . S
C967 C966 1.386 . S
C967 C971 1.392 1_565 S
C968 H957 0.950 . S
C968 C966 1.391 . S
C968 C969 1.400 . S
C969 C963 1.490 1_565 S
C969 C968 1.400 . S
C969 C970 1.398 1_565 S
C970 H958 0.950 . S
C970 C969 1.398 1_545 S
C970 C971 1.391 . S
C971 H959 0.951 . S
C971 C967 1.392 1_545 S
C971 C970 1.391 . S
H972 C980 0.950 . S
H973 C985 0.950 . S
H974 C982 0.950 . S
H975 C984 0.950 . S
H976 C986 0.950 . S
H977 C988 0.950 . S
H978 C990 0.950 . S
H979 C991 0.950 . S
C980 H972 0.950 . S
C980 C981 1.386 . S
C980 C982 1.391 . S
C981 C980 1.386 . S
C981 C985 1.393 1_455 S
C982 H974 0.950 . S
C982 C980 1.391 . S
C982 C983 1.400 . S
C983 C982 1.400 . S
C983 C984 1.398 1_455 S
C983 C989 1.491 . S
C984 H975 0.950 . S
C984 C983 1.398 1_655 S
C984 C985 1.391 . S
C985 H973 0.950 . S
C985 C981 1.393 1_655 S
C985 C984 1.391 . S
C986 H976 0.950 . S
C986 C987 1.386 1_655 S
C986 C988 1.391 . S
C987 C986 1.386 1_455 S
C987 C991 1.393 . S
C988 H977 0.950 . S
C988 C986 1.391 . S
C988 C989 1.400 1_655 S
C989 C983 1.491 . S
C989 C988 1.400 1_455 S
C989 C990 1.398 . S
C990 H978 0.950 . S
C990 C989 1.398 . S
C990 C991 1.391 . S
C991 H979 0.950 . S
C991 C987 1.393 . S
C991 C990 1.391 . S
H992 C1000 0.950 . S
H993 C1005 0.950 . S
H994 C1002 0.950 . S
H995 C1004 0.950 . S
H996 C1006 0.950 . S
H997 C1008 0.950 . S
H998 C1010 0.950 . S
H999 C1011 0.950 . S
C1000 H992 0.950 . S
C1000 C1001 1.386 1_565 S
C1000 C1002 1.391 . S
C1001 C1000 1.386 1_545 S
C1001 C1005 1.393 . S
C1002 H994 0.950 . S
C1002 C1000 1.391 . S
C1002 C1003 1.396 1_565 S
C1003 C1002 1.396 1_545 S
C1003 C1004 1.405 . S
C1003 C1009 1.490 1_545 S
C1004 H995 0.950 . S
C1004 C1003 1.405 . S
C1004 C1005 1.391 . S
C1005 H993 0.950 . S
C1005 C1001 1.393 . S
C1005 C1004 1.391 . S
C1006 H996 0.950 . S
C1006 C1007 1.384 1_545 S
C1006 C1008 1.391 . S
C1007 C1006 1.384 1_565 S
C1007 C1011 1.394 . S
C1008 H997 0.950 . S
C1008 C1006 1.391 . S
C1008 C1009 1.400 1_545 S
C1009 C1003 1.490 1_565 S
C1009 C1008 1.400 1_565 S
C1009 C1010 1.398 . S
C1010 H998 0.950 . S
C1010 C1009 1.398 . S
C1010 C1011 1.391 . S
C1011 H999 0.950 . S
C1011 C1007 1.394 . S
C1011 C1010 1.391 . S
H1012 C1020 0.950 . S
H1013 C1025 0.950 . S
H1014 C1022 0.950 . S
H1015 C1024 0.950 . S
H1016 C1026 0.950 . S
H1017 C1028 0.950 . S
H1018 C1030 0.950 . S
H1019 C1031 0.950 . S
C1020 H1012 0.950 . S
C1020 C1021 1.386 1_655 S
C1020 C1022 1.391 . S
C1021 C1020 1.386 1_455 S
C1021 C1025 1.393 . S
C1022 H1014 0.950 . S
C1022 C1020 1.391 . S
C1022 C1023 1.400 1_655 S
C1023 C1022 1.400 1_455 S
C1023 C1024 1.398 . S
C1023 C1029 1.491 . S
C1024 H1015 0.950 . S
C1024 C1023 1.398 . S
C1024 C1025 1.391 . S
C1025 H1013 0.950 . S
C1025 C1021 1.393 . S
C1025 C1024 1.391 . S
C1026 H1016 0.950 . S
C1026 C1027 1.386 . S
C1026 C1028 1.391 . S
C1027 C1026 1.386 . S
C1027 C1031 1.393 1_455 S
C1028 H1017 0.950 . S
C1028 C1026 1.391 . S
C1028 C1029 1.400 . S
C1029 C1023 1.491 . S
C1029 C1028 1.400 . S
C1029 C1030 1.398 1_455 S
C1030 H1018 0.950 . S
C1030 C1029 1.398 1_655 S
C1030 C1031 1.391 . S
C1031 H1019 0.950 . S
C1031 C1027 1.393 1_655 S
C1031 C1030 1.391 . S
H1032 C1040 0.950 . S
H1033 C1045 0.950 . S
H1034 C1042 0.948 1_565 S
H1035 C1044 0.950 . S
H1036 C1046 0.950 . S
H1037 C1048 0.950 . S
H1038 C1050 0.950 . S
H1039 C1051 0.950 . S
C1040 H1032 0.950 . S
C1040 C1041 1.386 . S
C1040 C1042 1.392 . S
C1041 C1040 1.386 . S
C1041 C1045 1.393 . S
C1042 H1034 0.948 1_545 S
C1042 C1040 1.392 . S
C1042 C1043 1.401 . S
C1043 C1042 1.401 . S
C1043 C1044 1.398 . S
C1043 C1049 1.492 . S
C1044 H1035 0.950 . S
C1044 C1043 1.398 . S
C1044 C1045 1.391 . S
C1045 H1033 0.950 . S
C1045 C1041 1.393 . S
C1045 C1044 1.391 . S
C1046 H1036 0.950 . S
C1046 C1047 1.386 1_545 S
C1046 C1048 1.391 . S
C1047 C1046 1.386 1_565 S
C1047 C1051 1.393 . S
C1048 H1037 0.950 . S
C1048 C1046 1.391 . S
C1048 C1049 1.402 . S
C1049 C1043 1.492 . S
C1049 C1048 1.402 . S
C1049 C1050 1.396 1_545 S
C1050 H1038 0.950 . S
C1050 C1049 1.396 1_565 S
C1050 C1051 1.391 . S
C1051 H1039 0.950 . S
C1051 C1047 1.393 . S
C1051 C1050 1.391 . S
H1052 C1060 0.950 . S
H1053 C1065 0.952 1_655 S
H1054 C1062 0.950 . S
H1055 C1064 0.948 . S
H1056 C1066 0.950 1_655 S
H1057 C1068 0.950 1_655 S
H1058 C1070 0.950 . S
H1059 C1071 0.950 . S
C1060 H1052 0.950 . S
C1060 C1061 1.386 . S
C1060 C1062 1.391 . S
C1061 C1060 1.386 . S
C1061 C1065 1.390 . S
C1062 H1054 0.950 . S
C1062 C1060 1.391 . S
C1062 C1063 1.400 . S
C1063 C1062 1.400 . S
C1063 C1064 1.400 1_455 S
C1063 C1069 1.491 . S
C1064 H1055 0.948 . S
C1064 C1063 1.400 1_655 S
C1064 C1065 1.391 1_655 S
C1065 H1053 0.952 1_455 S
C1065 C1061 1.390 . S
C1065 C1064 1.391 1_455 S
C1066 H1056 0.950 1_455 S
C1066 C1067 1.386 . S
C1066 C1068 1.391 . S
C1067 C1066 1.386 . S
C1067 C1071 1.393 . S
C1068 H1057 0.950 1_455 S
C1068 C1066 1.391 . S
C1068 C1069 1.400 . S
C1069 C1063 1.491 . S
C1069 C1068 1.400 . S
C1069 C1070 1.398 . S
C1070 H1058 0.950 . S
C1070 C1069 1.398 . S
C1070 C1071 1.391 . S
C1071 H1059 0.950 . S
C1071 C1067 1.393 . S
C1071 C1070 1.391 . S
H1072 C1080 0.950 . S
H1073 C1085 0.950 . S
H1074 C1082 0.950 . S
H1075 C1084 0.950 . S
H1076 C1086 0.950 . S
H1077 C1088 0.950 . S
H1078 C1090 0.950 . S
H1079 C1091 0.950 . S
C1080 H1072 0.950 . S
C1080 C1081 1.386 . S
C1080 C1082 1.391 . S
C1081 C1080 1.386 . S
C1081 C1085 1.393 1_545 S
C1082 H1074 0.950 . S
C1082 C1080 1.391 . S
C1082 C1083 1.400 . S
C1083 C1082 1.400 . S
C1083 C1084 1.398 1_545 S
C1083 C1089 1.491 . S
C1084 H1075 0.950 . S
C1084 C1083 1.398 1_565 S
C1084 C1085 1.391 . S
C1085 H1073 0.950 . S
C1085 C1081 1.393 1_565 S
C1085 C1084 1.391 . S
C1086 H1076 0.950 . S
C1086 C1087 1.363 1_565 S
C1086 C1088 1.391 . S
C1087 C1086 1.363 1_545 S
C1087 C1091 1.416 . S
C1088 H1077 0.950 . S
C1088 C1086 1.391 . S
C1088 C1089 1.400 1_565 S
C1089 C1083 1.491 . S
C1089 C1088 1.400 1_545 S
C1089 C1090 1.398 . S
C1090 H1078 0.950 . S
C1090 C1089 1.398 . S
C1090 C1091 1.391 . S
C1091 H1079 0.950 . S
C1091 C1087 1.416 . S
C1091 C1090 1.391 . S
H1092 C1100 0.942 1_655 S
H1093 C1105 0.950 . S
H1094 C1102 0.950 1_655 S
H1095 C1104 0.950 . S
H1096 C1106 0.950 . S
H1097 C1108 0.950 . S
H1098 C1110 0.950 1_655 S
H1099 C1111 0.950 1_655 S
C1100 H1092 0.942 1_455 S
C1100 C1101 1.393 . S
C1100 C1102 1.392 . S
C1101 C1100 1.393 . S
C1101 C1105 1.393 . S
C1102 H1094 0.950 1_455 S
C1102 C1100 1.392 . S
C1102 C1103 1.400 . S
C1103 C1102 1.400 . S
C1103 C1104 1.398 . S
C1103 C1109 1.491 . S
C1104 H1095 0.950 . S
C1104 C1103 1.398 . S
C1104 C1105 1.391 . S
C1105 H1093 0.950 . S
C1105 C1101 1.393 . S
C1105 C1104 1.391 . S
C1106 H1096 0.950 . S
C1106 C1107 1.386 . S
C1106 C1108 1.391 . S
C1107 C1106 1.386 . S
C1107 C1111 1.393 . S
C1108 H1097 0.950 . S
C1108 C1106 1.391 . S
C1108 C1109 1.400 . S
C1109 C1103 1.491 . S
C1109 C1108 1.400 . S
C1109 C1110 1.398 . S
C1110 H1098 0.950 1_455 S
C1110 C1109 1.398 . S
C1110 C1111 1.391 . S
C1111 H1099 0.950 1_455 S
C1111 C1107 1.393 . S
C1111 C1110 1.391 . S
H1112 C1120 0.950 . S
H1113 C1125 0.950 . S
H1114 C1122 0.950 . S
H1115 C1124 0.950 . S
H1116 C1126 0.950 . S
H1117 C1128 0.950 . S
H1118 C1130 0.950 . S
H1119 C1131 0.950 . S
C1120 H1112 0.950 . S
C1120 C1121 1.386 . S
C1120 C1122 1.391 . S
C1121 C1120 1.386 . S
C1121 C1125 1.393 1_545 S
C1122 H1114 0.950 . S
C1122 C1120 1.391 . S
C1122 C1123 1.400 . S
C1123 C1122 1.400 . S
C1123 C1124 1.398 1_545 S
C1123 C1129 1.492 . S
C1124 H1115 0.950 . S
C1124 C1123 1.398 1_565 S
C1124 C1125 1.391 . S
C1125 H1113 0.950 . S
C1125 C1121 1.393 1_565 S
C1125 C1124 1.391 . S
C1126 H1116 0.950 . S
C1126 C1127 1.372 1_565 S
C1126 C1128 1.391 . S
C1127 C1126 1.372 1_545 S
C1127 C1131 1.406 . S
C1128 H1117 0.950 . S
C1128 C1126 1.391 . S
C1128 C1129 1.373 1_565 S
C1129 C1123 1.492 . S
C1129 C1128 1.373 1_545 S
C1129 C1130 1.425 . S
C1130 H1118 0.950 . S
C1130 C1129 1.425 . S
C1130 C1131 1.391 . S
C1131 H1119 0.950 . S
C1131 C1127 1.406 . S
C1131 C1130 1.391 . S
H1132 C1140 0.950 . S
H1133 C1145 0.950 . S
H1134 C1142 0.950 . S
H1135 C1144 0.950 . S
H1136 C1146 0.950 . S
H1137 C1148 0.950 . S
H1138 C1150 0.950 . S
H1139 C1151 0.950 . S
C1140 H1132 0.950 . S
C1140 C1141 1.386 1_655 S
C1140 C1142 1.391 . S
C1141 C1140 1.386 1_455 S
C1141 C1145 1.393 . S
C1142 H1134 0.950 . S
C1142 C1140 1.391 . S
C1142 C1143 1.400 1_655 S
C1143 C1142 1.400 1_455 S
C1143 C1144 1.398 . S
C1143 C1149 1.491 . S
C1144 H1135 0.950 . S
C1144 C1143 1.398 . S
C1144 C1145 1.391 . S
C1145 H1133 0.950 . S
C1145 C1141 1.393 . S
C1145 C1144 1.391 . S
C1146 H1136 0.950 . S
C1146 C1147 1.386 . S
C1146 C1148 1.391 . S
C1147 C1146 1.386 . S
C1147 C1151 1.393 1_455 S
C1148 H1137 0.950 . S
C1148 C1146 1.391 . S
C1148 C1149 1.400 . S
C1149 C1143 1.491 . S
C1149 C1148 1.400 . S
C1149 C1150 1.398 1_455 S
C1150 H1138 0.950 . S
C1150 C1149 1.398 1_655 S
C1150 C1151 1.391 . S
C1151 H1139 0.950 . S
C1151 C1147 1.393 1_655 S
C1151 C1150 1.391 . S
H1152 C1160 0.950 . S
H1153 C1165 0.950 . S
H1154 C1162 0.950 . S
H1155 C1164 0.950 . S
H1156 C1166 0.950 . S
H1157 C1168 0.950 . S
H1158 C1170 0.950 . S
H1159 C1171 0.950 . S
C1160 H1152 0.950 . S
C1160 C1161 1.364 1_565 S
C1160 C1162 1.391 . S
C1161 C1160 1.364 1_545 S
C1161 C1165 1.414 . S
C1162 H1154 0.950 . S
C1162 C1160 1.391 . S
C1162 C1163 1.400 1_565 S
C1163 C1162 1.400 1_545 S
C1163 C1164 1.398 . S
C1163 C1169 1.491 . S
C1164 H1155 0.950 . S
C1164 C1163 1.398 . S
C1164 C1165 1.391 . S
C1165 H1153 0.950 . S
C1165 C1161 1.414 . S
C1165 C1164 1.391 . S
C1166 H1156 0.950 . S
C1166 C1167 1.386 . S
C1166 C1168 1.391 . S
C1167 C1166 1.386 . S
C1167 C1171 1.393 1_545 S
C1168 H1157 0.950 . S
C1168 C1166 1.391 . S
C1168 C1169 1.400 . S
C1169 C1163 1.491 . S
C1169 C1168 1.400 . S
C1169 C1170 1.398 1_545 S
C1170 H1158 0.950 . S
C1170 C1169 1.398 1_565 S
C1170 C1171 1.391 . S
C1171 H1159 0.950 . S
C1171 C1167 1.393 1_565 S
C1171 C1170 1.391 . S
H1172 C1180 0.950 . S
H1173 C1185 0.950 . S
H1174 C1182 0.946 1_655 S
H1175 C1184 0.950 . S
H1176 C1186 0.950 . S
H1177 C1188 0.950 . S
H1178 C1190 0.950 1_655 S
H1179 C1191 0.950 1_655 S
C1180 H1172 0.950 . S
C1180 C1181 1.386 1_655 S
C1180 C1182 1.391 1_655 S
C1181 C1180 1.386 1_455 S
C1181 C1185 1.393 . S
C1182 H1174 0.946 1_455 S
C1182 C1180 1.391 1_455 S
C1182 C1183 1.404 . S
C1183 C1182 1.404 . S
C1183 C1184 1.398 . S
C1183 C1189 1.491 . S
C1184 H1175 0.950 . S
C1184 C1183 1.398 . S
C1184 C1185 1.391 . S
C1185 H1173 0.950 . S
C1185 C1181 1.393 . S
C1185 C1184 1.391 . S
C1186 H1176 0.950 . S
C1186 C1187 1.386 . S
C1186 C1188 1.391 . S
C1187 C1186 1.386 . S
C1187 C1191 1.393 . S
C1188 H1177 0.950 . S
C1188 C1186 1.391 . S
C1188 C1189 1.400 . S
C1189 C1183 1.491 . S
C1189 C1188 1.400 . S
C1189 C1190 1.398 . S
C1190 H1178 0.950 1_455 S
C1190 C1189 1.398 . S
C1190 C1191 1.391 . S
C1191 H1179 0.950 1_455 S
C1191 C1187 1.393 . S
C1191 C1190 1.391 . S
H1192 C1200 0.950 . S
H1193 C1205 0.950 . S
H1194 C1202 0.950 . S
H1195 C1204 0.950 . S
H1196 C1206 0.950 . S
H1197 C1208 0.950 . S
H1198 C1210 0.950 . S
H1199 C1211 0.950 . S
C1200 H1192 0.950 . S
C1200 C1201 1.386 1_545 S
C1200 C1202 1.391 . S
C1201 C1200 1.386 1_565 S
C1201 C1205 1.393 . S
C1202 H1194 0.950 . S
C1202 C1200 1.391 . S
C1202 C1203 1.398 1_545 S
C1203 C1202 1.398 1_565 S
C1203 C1204 1.401 . S
C1203 C1209 1.490 1_565 S
C1204 H1195 0.950 . S
C1204 C1203 1.401 . S
C1204 C1205 1.391 . S
C1205 H1193 0.950 . S
C1205 C1201 1.393 . S
C1205 C1204 1.391 . S
C1206 H1196 0.950 . S
C1206 C1207 1.386 1_565 S
C1206 C1208 1.391 . S
C1207 C1206 1.386 1_545 S
C1207 C1211 1.393 . S
C1208 H1197 0.950 . S
C1208 C1206 1.391 . S
C1208 C1209 1.392 1_565 S
C1209 C1203 1.490 1_545 S
C1209 C1208 1.392 1_545 S
C1209 C1210 1.409 . S
C1210 H1198 0.950 . S
C1210 C1209 1.409 . S
C1210 C1211 1.391 . S
C1211 H1199 0.950 . S
C1211 C1207 1.393 . S
C1211 C1210 1.391 . S
H1212 C1220 0.950 . S
H1213 C1225 0.950 . S
H1214 C1222 0.950 . S
H1215 C1224 0.950 . S
H1216 C1226 0.950 . S
H1217 C1228 0.950 . S
H1218 C1230 0.950 . S
H1219 C1231 0.950 . S
C1220 H1212 0.950 . S
C1220 C1221 1.386 . S
C1220 C1222 1.391 . S
C1221 C1220 1.386 . S
C1221 C1225 1.393 1_455 S
C1222 H1214 0.950 . S
C1222 C1220 1.391 . S
C1222 C1223 1.400 . S
C1223 C1222 1.400 . S
C1223 C1224 1.398 1_455 S
C1223 C1229 1.491 . S
C1224 H1215 0.950 . S
C1224 C1223 1.398 1_655 S
C1224 C1225 1.391 . S
C1225 H1213 0.950 . S
C1225 C1221 1.393 1_655 S
C1225 C1224 1.391 . S
C1226 H1216 0.950 . S
C1226 C1227 1.386 1_655 S
C1226 C1228 1.391 . S
C1227 C1226 1.386 1_455 S
C1227 C1231 1.393 . S
C1228 H1217 0.950 . S
C1228 C1226 1.391 . S
C1228 C1229 1.400 1_655 S
C1229 C1223 1.491 . S
C1229 C1228 1.400 1_455 S
C1229 C1230 1.398 . S
C1230 H1218 0.950 . S
C1230 C1229 1.398 . S
C1230 C1231 1.391 . S
C1231 H1219 0.950 . S
C1231 C1227 1.393 . S
C1231 C1230 1.391 . S
H1232 C1240 0.950 . S
H1233 C1245 0.950 . S
H1234 C1242 0.950 . S
H1235 C1244 0.950 . S
H1236 C1246 0.950 . S
H1237 C1248 0.950 . S
H1238 C1250 0.950 . S
H1239 C1251 0.950 . S
C1240 H1232 0.950 . S
C1240 C1241 1.400 . S
C1240 C1242 1.391 . S
C1241 C1240 1.400 . S
C1241 C1245 1.380 1_565 S
C1242 H1234 0.950 . S
C1242 C1240 1.391 . S
C1242 C1243 1.402 . S
C1243 C1242 1.402 . S
C1243 C1244 1.397 1_565 S
C1243 C1249 1.490 1_565 S
C1244 H1235 0.950 . S
C1244 C1243 1.397 1_545 S
C1244 C1245 1.391 . S
C1245 H1233 0.950 . S
C1245 C1241 1.380 1_545 S
C1245 C1244 1.391 . S
C1246 H1236 0.950 . S
C1246 C1247 1.386 . S
C1246 C1248 1.391 . S
C1247 C1246 1.386 . S
C1247 C1251 1.393 1_545 S
C1248 H1237 0.950 . S
C1248 C1246 1.391 . S
C1248 C1249 1.415 . S
C1249 C1243 1.490 1_545 S
C1249 C1248 1.415 . S
C1249 C1250 1.385 1_545 S
C1250 H1238 0.950 . S
C1250 C1249 1.385 1_565 S
C1250 C1251 1.391 . S
C1251 H1239 0.950 . S
C1251 C1247 1.393 1_565 S
C1251 C1250 1.391 . S
H1252 C1260 0.950 . S
H1253 C1265 0.950 . S
H1254 C1262 0.950 . S
H1255 C1264 0.950 . S
H1256 C1266 0.950 . S
H1257 C1268 0.952 . S
H1258 C1270 0.950 . S
H1259 C1271 0.950 . S
C1260 H1252 0.950 . S
C1260 C1261 1.388 . S
C1260 C1262 1.391 . S
C1261 C1260 1.388 . S
C1261 C1265 1.391 1_545 S
C1262 H1254 0.950 . S
C1262 C1260 1.391 . S
C1262 C1263 1.404 . S
C1263 C1262 1.404 . S
C1263 C1264 1.394 1_545 S
C1263 C1269 1.492 . S
C1264 H1255 0.950 . S
C1264 C1263 1.394 1_565 S
C1264 C1265 1.391 . S
C1265 H1253 0.950 . S
C1265 C1261 1.391 1_565 S
C1265 C1264 1.391 . S
C1266 H1256 0.950 . S
C1266 C1267 1.385 1_565 S
C1266 C1268 1.391 . S
C1267 C1266 1.385 1_545 S
C1267 C1271 1.393 . S
C1268 H1257 0.952 . S
C1268 C1266 1.391 . S
C1268 C1269 1.398 1_565 S
C1269 C1263 1.492 . S
C1269 C1268 1.398 1_545 S
C1269 C1270 1.398 . S
C1270 H1258 0.950 . S
C1270 C1269 1.398 . S
C1270 C1271 1.391 . S
C1271 H1259 0.950 . S
C1271 C1267 1.393 . S
C1271 C1270 1.391 . S
H1272 C1280 0.950 . S
H1273 C1285 0.950 . S
H1274 C1282 0.950 . S
H1275 C1284 0.950 . S
H1276 C1286 0.950 . S
H1277 C1288 0.950 . S
H1278 C1290 0.950 . S
H1279 C1291 0.950 . S
C1280 H1272 0.950 . S
C1280 C1281 1.386 1_655 S
C1280 C1282 1.391 . S
C1281 C1280 1.386 1_455 S
C1281 C1285 1.393 . S
C1282 H1274 0.950 . S
C1282 C1280 1.391 . S
C1282 C1283 1.400 1_655 S
C1283 C1282 1.400 1_455 S
C1283 C1284 1.398 . S
C1283 C1289 1.491 . S
C1284 H1275 0.950 . S
C1284 C1283 1.398 . S
C1284 C1285 1.391 . S
C1285 H1273 0.950 . S
C1285 C1281 1.393 . S
C1285 C1284 1.391 . S
C1286 H1276 0.950 . S
C1286 C1287 1.386 . S
C1286 C1288 1.391 . S
C1287 C1286 1.386 . S
C1287 C1291 1.393 1_455 S
C1288 H1277 0.950 . S
C1288 C1286 1.391 . S
C1288 C1289 1.400 . S
C1289 C1283 1.491 . S
C1289 C1288 1.400 . S
C1289 C1290 1.398 1_455 S
C1290 H1278 0.950 . S
C1290 C1289 1.398 1_655 S
C1290 C1291 1.391 . S
C1291 H1279 0.950 . S
C1291 C1287 1.393 1_655 S
C1291 C1290 1.391 . S
H1292 C1300 0.950 . S
H1293 C1305 0.950 . S
H1294 C1302 0.950 . S
H1295 C1304 0.950 . S
H1296 C1306 0.950 . S
H1297 C1308 0.950 . S
H1298 C1310 0.950 . S
H1299 C1311 0.950 . S
C1300 H1292 0.950 . S
C1300 C1301 1.379 1_565 S
C1300 C1302 1.391 . S
C1301 C1300 1.379 1_545 S
C1301 C1305 1.400 . S
C1302 H1294 0.950 . S
C1302 C1300 1.391 . S
C1302 C1303 1.400 1_565 S
C1303 C1302 1.400 1_545 S
C1303 C1304 1.398 . S
C1303 C1309 1.491 . S
C1304 H1295 0.950 . S
C1304 C1303 1.398 . S
C1304 C1305 1.391 . S
C1305 H1293 0.950 . S
C1305 C1301 1.400 . S
C1305 C1304 1.391 . S
C1306 H1296 0.950 . S
C1306 C1307 1.386 . S
C1306 C1308 1.391 . S
C1307 C1306 1.386 . S
C1307 C1311 1.393 1_545 S
C1308 H1297 0.950 . S
C1308 C1306 1.391 . S
C1308 C1309 1.400 . S
C1309 C1303 1.491 . S
C1309 C1308 1.400 . S
C1309 C1310 1.398 1_545 S
C1310 H1298 0.950 . S
C1310 C1309 1.398 1_565 S
C1310 C1311 1.391 . S
C1311 H1299 0.950 . S
C1311 C1307 1.393 1_565 S
C1311 C1310 1.391 . S
H1312 C1320 0.950 . S
H1313 C1325 0.950 . S
H1314 C1322 0.950 . S
H1315 C1324 0.950 . S
H1316 C1326 0.950 . S
H1317 C1328 0.950 . S
H1318 C1330 0.950 . S
H1319 C1331 0.950 . S
C1320 H1312 0.950 . S
C1320 C1321 1.386 1_655 S
C1320 C1322 1.391 . S
C1321 C1320 1.386 1_455 S
C1321 C1325 1.393 . S
C1322 H1314 0.950 . S
C1322 C1320 1.391 . S
C1322 C1323 1.400 1_655 S
C1323 C1322 1.400 1_455 S
C1323 C1324 1.398 . S
C1323 C1329 1.491 . S
C1324 H1315 0.950 . S
C1324 C1323 1.398 . S
C1324 C1325 1.391 . S
C1325 H1313 0.950 . S
C1325 C1321 1.393 . S
C1325 C1324 1.391 . S
C1326 H1316 0.950 . S
C1326 C1327 1.386 . S
C1326 C1328 1.391 . S
C1327 C1326 1.386 . S
C1327 C1331 1.393 1_455 S
C1328 H1317 0.950 . S
C1328 C1326 1.391 . S
C1328 C1329 1.400 . S
C1329 C1323 1.491 . S
C1329 C1328 1.400 . S
C1329 C1330 1.398 1_455 S
C1330 H1318 0.950 . S
C1330 C1329 1.398 1_655 S
C1330 C1331 1.391 . S
C1331 H1319 0.950 . S
C1331 C1327 1.393 1_655 S
C1331 C1330 1.391 . S
H1332 C1340 0.950 . S
H1333 C1345 0.950 . S
H1334 C1342 0.950 . S
H1335 C1344 0.950 . S
H1336 C1346 0.950 . S
H1337 C1348 0.950 . S
H1338 C1350 0.950 . S
H1339 C1351 0.950 . S
C1340 H1332 0.950 . S
C1340 C1341 1.399 . S
C1340 C1342 1.391 . S
C1341 C1340 1.399 . S
C1341 C1345 1.380 1_565 S
C1342 H1334 0.950 . S
C1342 C1340 1.391 . S
C1342 C1343 1.403 . S
C1343 C1342 1.403 . S
C1343 C1344 1.396 1_565 S
C1343 C1349 1.490 1_565 S
C1344 H1335 0.950 . S
C1344 C1343 1.396 1_545 S
C1344 C1345 1.391 . S
C1345 H1333 0.950 . S
C1345 C1341 1.380 1_545 S
C1345 C1344 1.391 . S
C1346 H1336 0.950 . S
C1346 C1347 1.386 . S
C1346 C1348 1.391 . S
C1347 C1346 1.386 . S
C1347 C1351 1.393 1_545 S
C1348 H1337 0.950 . S
C1348 C1346 1.391 . S
C1348 C1349 1.414 . S
C1349 C1343 1.490 1_545 S
C1349 C1348 1.414 . S
C1349 C1350 1.386 1_545 S
C1350 H1338 0.950 . S
C1350 C1349 1.386 1_565 S
C1350 C1351 1.391 . S
C1351 H1339 0.950 . S
C1351 C1347 1.393 1_565 S
C1351 C1350 1.391 . S
H1352 C1360 0.950 . S
H1353 C1365 0.950 . S
H1354 C1362 0.950 . S
H1355 C1364 0.950 . S
H1356 C1366 0.950 . S
H1357 C1368 0.950 . S
H1358 C1370 0.950 1_655 S
H1359 C1371 0.950 1_655 S
C1360 H1352 0.950 . S
C1360 C1361 1.386 . S
C1360 C1362 1.391 . S
C1361 C1360 1.386 . S
C1361 C1365 1.393 . S
C1362 H1354 0.950 . S
C1362 C1360 1.391 . S
C1362 C1363 1.400 . S
C1363 C1362 1.400 . S
C1363 C1364 1.398 . S
C1363 C1369 1.491 . S
C1364 H1355 0.950 . S
C1364 C1363 1.398 . S
C1364 C1365 1.391 . S
C1365 H1353 0.950 . S
C1365 C1361 1.393 . S
C1365 C1364 1.391 . S
C1366 H1356 0.950 . S
C1366 C1367 1.386 . S
C1366 C1368 1.391 . S
C1367 C1366 1.386 . S
C1367 C1371 1.393 . S
C1368 H1357 0.950 . S
C1368 C1366 1.391 . S
C1368 C1369 1.400 . S
C1369 C1363 1.491 . S
C1369 C1368 1.400 . S
C1369 C1370 1.398 . S
C1370 H1358 0.950 1_455 S
C1370 C1369 1.398 . S
C1370 C1371 1.391 . S
C1371 H1359 0.950 1_455 S
C1371 C1367 1.393 . S
C1371 C1370 1.391 . S
H1372 C1380 0.950 . S
H1373 C1385 0.950 . S
H1374 C1382 0.950 . S
H1375 C1384 0.950 . S
H1376 C1386 0.950 . S
H1377 C1388 0.950 . S
H1378 C1390 0.950 . S
H1379 C1391 0.950 . S
C1380 H1372 0.950 . S
C1380 C1381 1.400 . S
C1380 C1382 1.391 . S
C1381 C1380 1.400 . S
C1381 C1385 1.379 1_565 S
C1382 H1374 0.950 . S
C1382 C1380 1.391 . S
C1382 C1383 1.404 . S
C1383 C1382 1.404 . S
C1383 C1384 1.395 1_565 S
C1383 C1389 1.490 1_565 S
C1384 H1375 0.950 . S
C1384 C1383 1.395 1_545 S
C1384 C1385 1.391 . S
C1385 H1373 0.950 . S
C1385 C1381 1.379 1_545 S
C1385 C1384 1.391 . S
C1386 H1376 0.950 . S
C1386 C1387 1.409 . S
C1386 C1388 1.391 . S
C1387 C1386 1.409 . S
C1387 C1391 1.370 1_545 S
C1388 H1377 0.950 . S
C1388 C1386 1.391 . S
C1388 C1389 1.413 . S
C1389 C1383 1.490 1_545 S
C1389 C1388 1.413 . S
C1389 C1390 1.387 1_545 S
C1390 H1378 0.950 . S
C1390 C1389 1.387 1_565 S
C1390 C1391 1.391 . S
C1391 H1379 0.950 . S
C1391 C1387 1.370 1_565 S
C1391 C1390 1.391 . S
H1392 C1400 0.950 . S
H1393 C1405 0.950 . S
H1394 C1402 0.950 . S
H1395 C1404 0.950 . S
H1396 C1406 0.950 . S
H1397 C1408 0.950 . S
H1398 C1410 0.950 1_655 S
H1399 C1411 0.950 1_655 S
C1400 H1392 0.950 . S
C1400 C1401 1.386 . S
C1400 C1402 1.391 . S
C1401 C1400 1.386 . S
C1401 C1405 1.393 . S
C1402 H1394 0.950 . S
C1402 C1400 1.391 . S
C1402 C1403 1.400 . S
C1403 C1402 1.400 . S
C1403 C1404 1.398 . S
C1403 C1409 1.491 . S
C1404 H1395 0.950 . S
C1404 C1403 1.398 . S
C1404 C1405 1.391 . S
C1405 H1393 0.950 . S
C1405 C1401 1.393 . S
C1405 C1404 1.391 . S
C1406 H1396 0.950 . S
C1406 C1407 1.386 . S
C1406 C1408 1.391 . S
C1407 C1406 1.386 . S
C1407 C1411 1.393 . S
C1408 H1397 0.950 . S
C1408 C1406 1.391 . S
C1408 C1409 1.400 . S
C1409 C1403 1.491 . S
C1409 C1408 1.400 . S
C1409 C1410 1.398 . S
C1410 H1398 0.950 1_455 S
C1410 C1409 1.398 . S
C1410 C1411 1.391 . S
C1411 H1399 0.950 1_455 S
C1411 C1407 1.393 . S
C1411 C1410 1.391 . S
H1412 C1420 0.950 . S
H1413 C1425 0.950 . S
H1414 C1422 0.950 . S
H1415 C1424 0.950 . S
H1416 C1426 0.950 . S
H1417 C1428 0.950 . S
H1418 C1430 0.950 . S
H1419 C1431 0.950 . S
C1420 H1412 0.950 . S
C1420 C1421 1.385 1_556 S
C1420 C1422 1.391 . S
C1421 C1420 1.385 1_554 S
C1421 C1425 1.393 . S
C1422 H1414 0.950 . S
C1422 C1420 1.391 . S
C1422 C1423 1.393 1_556 S
C1423 C1422 1.393 1_554 S
C1423 C1424 1.405 . S
C1423 C1429 1.491 . S
C1424 H1415 0.950 . S
C1424 C1423 1.405 . S
C1424 C1425 1.391 . S
C1425 H1413 0.950 . S
C1425 C1421 1.393 . S
C1425 C1424 1.391 . S
C1426 H1416 0.950 . S
C1426 C1427 1.403 . S
C1426 C1428 1.391 . S
C1427 C1426 1.403 . S
C1427 C1431 1.376 1_554 S
C1428 H1417 0.950 . S
C1428 C1426 1.391 . S
C1428 C1429 1.411 . S
C1429 C1423 1.491 . S
C1429 C1428 1.411 . S
C1429 C1430 1.388 1_554 S
C1430 H1418 0.950 . S
C1430 C1429 1.388 1_556 S
C1430 C1431 1.391 . S
C1431 H1419 0.950 . S
C1431 C1427 1.376 1_556 S
C1431 C1430 1.391 . S
H1432 C1440 0.950 . S
H1433 C1445 0.950 . S
H1434 C1442 0.950 . S
H1435 C1444 0.950 . S
H1436 C1446 0.950 . S
H1437 C1448 0.950 . S
H1438 C1450 0.950 . S
H1439 C1451 0.950 . S
C1440 H1432 0.950 . S
C1440 C1441 1.386 . S
C1440 C1442 1.391 . S
C1441 C1440 1.386 . S
C1441 C1445 1.393 1_554 S
C1442 H1434 0.950 . S
C1442 C1440 1.391 . S
C1442 C1443 1.400 . S
C1443 C1442 1.400 . S
C1443 C1444 1.398 1_554 S
C1443 C1449 1.492 . S
C1444 H1435 0.950 . S
C1444 C1443 1.398 1_556 S
C1444 C1445 1.391 . S
C1445 H1433 0.950 . S
C1445 C1441 1.393 1_556 S
C1445 C1444 1.391 . S
C1446 H1436 0.950 . S
C1446 C1447 1.372 1_556 S
C1446 C1448 1.391 . S
C1447 C1446 1.372 1_554 S
C1447 C1451 1.407 . S
C1448 H1437 0.950 . S
C1448 C1446 1.391 . S
C1448 C1449 1.373 1_556 S
C1449 C1443 1.492 . S
C1449 C1448 1.373 1_554 S
C1449 C1450 1.425 . S
C1450 H1438 0.950 . S
C1450 C1449 1.425 . S
C1450 C1451 1.391 . S
C1451 H1439 0.950 . S
C1451 C1447 1.407 . S
C1451 C1450 1.391 . S
H1452 C1460 0.949 1_556 S
H1453 C1465 0.950 . S
H1454 C1462 0.949 . S
H1455 C1464 0.950 . S
H1456 C1466 0.949 . S
H1457 C1468 0.950 . S
H1458 C1470 0.950 . S
H1459 C1471 0.950 . S
C1460 H1452 0.949 1_554 S
C1460 C1461 1.386 . S
C1460 C1462 1.391 1_554 S
C1461 C1460 1.386 . S
C1461 C1465 1.393 . S
C1462 H1454 0.949 . S
C1462 C1460 1.391 1_556 S
C1462 C1463 1.400 1_556 S
C1463 C1462 1.400 1_554 S
C1463 C1464 1.400 . S
C1463 C1469 1.490 1_554 S
C1464 H1455 0.950 . S
C1464 C1463 1.400 . S
C1464 C1465 1.391 . S
C1465 H1453 0.950 . S
C1465 C1461 1.393 . S
C1465 C1464 1.391 . S
C1466 H1456 0.949 . S
C1466 C1467 1.385 1_554 S
C1466 C1468 1.391 . S
C1467 C1466 1.385 1_556 S
C1467 C1471 1.395 . S
C1468 H1457 0.950 . S
C1468 C1466 1.391 . S
C1468 C1469 1.400 1_554 S
C1469 C1463 1.490 1_556 S
C1469 C1468 1.400 1_556 S
C1469 C1470 1.399 . S
C1470 H1458 0.950 . S
C1470 C1469 1.399 . S
C1470 C1471 1.391 . S
C1471 H1459 0.950 . S
C1471 C1467 1.395 . S
C1471 C1470 1.391 . S
H1472 C1480 0.950 . S
H1473 C1485 0.950 . S
H1474 C1482 0.950 . S
H1475 C1484 0.950 . S
H1476 C1486 0.950 . S
H1477 C1488 0.950 . S
H1478 C1490 0.950 . S
H1479 C1491 0.950 . S
C1480 H1472 0.950 . S
C1480 C1481 1.402 . S
C1480 C1482 1.391 . S
C1481 C1480 1.402 . S
C1481 C1485 1.377 1_554 S
C1482 H1474 0.950 . S
C1482 C1480 1.391 . S
C1482 C1483 1.415 . S
C1483 C1482 1.415 . S
C1483 C1484 1.384 1_554 S
C1483 C1489 1.490 . S
C1484 H1475 0.950 . S
C1484 C1483 1.384 1_556 S
C1484 C1485 1.391 . S
C1485 H1473 0.950 . S
C1485 C1481 1.377 1_556 S
C1485 C1484 1.391 . S
C1486 H1476 0.950 . S
C1486 C1487 1.388 1_556 S
C1486 C1488 1.391 . S
C1487 C1486 1.388 1_554 S
C1487 C1491 1.391 . S
C1488 H1477 0.950 . S
C1488 C1486 1.391 . S
C1488 C1489 1.401 1_556 S
C1489 C1483 1.490 . S
C1489 C1488 1.401 1_554 S
C1489 C1490 1.398 . S
C1490 H1478 0.950 . S
C1490 C1489 1.398 . S
C1490 C1491 1.391 . S
C1491 H1479 0.950 . S
C1491 C1487 1.391 . S
C1491 C1490 1.391 . S
H1492 C1500 0.950 . S
H1493 C1505 0.950 . S
H1494 C1502 0.950 . S
H1495 C1504 0.950 . S
H1496 C1506 0.950 . S
H1497 C1508 0.950 . S
H1498 C1510 0.950 . S
H1499 C1511 0.950 . S
C1500 H1492 0.950 . S
C1500 C1501 1.386 . S
C1500 C1502 1.391 . S
C1501 C1500 1.386 . S
C1501 C1505 1.393 1_554 S
C1502 H1494 0.950 . S
C1502 C1500 1.391 . S
C1502 C1503 1.400 . S
C1503 C1502 1.400 . S
C1503 C1504 1.398 1_554 S
C1503 C1509 1.491 . S
C1504 H1495 0.950 . S
C1504 C1503 1.398 1_556 S
C1504 C1505 1.391 . S
C1505 H1493 0.950 . S
C1505 C1501 1.393 1_556 S
C1505 C1504 1.391 . S
C1506 H1496 0.950 . S
C1506 C1507 1.386 1_556 S
C1506 C1508 1.391 . S
C1507 C1506 1.386 1_554 S
C1507 C1511 1.393 . S
C1508 H1497 0.950 . S
C1508 C1506 1.391 . S
C1508 C1509 1.400 1_556 S
C1509 C1503 1.491 . S
C1509 C1508 1.400 1_554 S
C1509 C1510 1.398 . S
C1510 H1498 0.950 . S
C1510 C1509 1.398 . S
C1510 C1511 1.391 . S
C1511 H1499 0.950 . S
C1511 C1507 1.393 . S
C1511 C1510 1.391 . S
H1512 C1520 0.950 . S
H1513 C1525 0.950 . S
H1514 C1522 0.950 . S
H1515 C1524 0.950 . S
H1516 C1526 0.950 . S
H1517 C1528 0.950 . S
H1518 C1530 0.950 . S
H1519 C1531 0.950 . S
C1520 H1512 0.950 . S
C1520 C1521 1.386 1_556 S
C1520 C1522 1.391 . S
C1521 C1520 1.386 1_554 S
C1521 C1525 1.393 . S
C1522 H1514 0.950 . S
C1522 C1520 1.391 . S
C1522 C1523 1.400 1_556 S
C1523 C1522 1.400 1_554 S
C1523 C1524 1.398 . S
C1523 C1529 1.492 . S
C1524 H1515 0.950 . S
C1524 C1523 1.398 . S
C1524 C1525 1.391 . S
C1525 H1513 0.950 . S
C1525 C1521 1.393 . S
C1525 C1524 1.391 . S
C1526 H1516 0.950 . S
C1526 C1527 1.386 1_554 S
C1526 C1528 1.391 . S
C1527 C1526 1.386 1_556 S
C1527 C1531 1.392 . S
C1528 H1517 0.950 . S
C1528 C1526 1.391 . S
C1528 C1529 1.406 . S
C1529 C1523 1.492 . S
C1529 C1528 1.406 . S
C1529 C1530 1.392 1_554 S
C1530 H1518 0.950 . S
C1530 C1529 1.392 1_556 S
C1530 C1531 1.391 . S
C1531 H1519 0.950 . S
C1531 C1527 1.392 . S
C1531 C1530 1.391 . S
H1532 C1540 0.950 . S
H1533 C1545 0.950 . S
H1534 C1542 0.950 . S
H1535 C1544 0.950 . S
H1536 C1546 0.950 . S
H1537 C1548 0.950 . S
H1538 C1550 0.950 . S
H1539 C1551 0.950 . S
C1540 H1532 0.950 . S
C1540 C1541 1.386 1_556 S
C1540 C1542 1.391 . S
C1541 C1540 1.386 1_554 S
C1541 C1545 1.393 . S
C1542 H1534 0.950 . S
C1542 C1540 1.391 . S
C1542 C1543 1.400 1_556 S
C1543 C1542 1.400 1_554 S
C1543 C1544 1.398 . S
C1543 C1549 1.491 . S
C1544 H1535 0.950 . S
C1544 C1543 1.398 . S
C1544 C1545 1.391 . S
C1545 H1533 0.950 . S
C1545 C1541 1.393 . S
C1545 C1544 1.391 . S
C1546 H1536 0.950 . S
C1546 C1547 1.386 . S
C1546 C1548 1.391 . S
C1547 C1546 1.386 . S
C1547 C1551 1.393 1_554 S
C1548 H1537 0.950 . S
C1548 C1546 1.391 . S
C1548 C1549 1.400 . S
C1549 C1543 1.491 . S
C1549 C1548 1.400 . S
C1549 C1550 1.398 1_554 S
C1550 H1538 0.950 . S
C1550 C1549 1.398 1_556 S
C1550 C1551 1.391 . S
C1551 H1539 0.950 . S
C1551 C1547 1.393 1_556 S
C1551 C1550 1.391 . S
H1552 C1560 0.950 . S
H1553 C1565 0.950 . S
H1554 C1562 0.950 . S
H1555 C1564 0.950 . S
H1556 C1566 0.950 . S
H1557 C1568 0.950 . S
H1558 C1570 0.950 . S
H1559 C1571 0.950 . S
C1560 H1552 0.950 . S
C1560 C1561 1.396 . S
C1560 C1562 1.391 . S
C1561 C1560 1.396 . S
C1561 C1565 1.382 1_556 S
C1562 H1554 0.950 . S
C1562 C1560 1.391 . S
C1562 C1563 1.401 . S
C1563 C1562 1.401 . S
C1563 C1564 1.397 1_556 S
C1563 C1569 1.490 1_556 S
C1564 H1555 0.950 . S
C1564 C1563 1.397 1_554 S
C1564 C1565 1.391 . S
C1565 H1553 0.950 . S
C1565 C1561 1.382 1_554 S
C1565 C1564 1.391 . S
C1566 H1556 0.950 . S
C1566 C1567 1.406 . S
C1566 C1568 1.391 . S
C1567 C1566 1.406 . S
C1567 C1571 1.373 1_554 S
C1568 H1557 0.950 . S
C1568 C1566 1.391 . S
C1568 C1569 1.411 . S
C1569 C1563 1.490 1_554 S
C1569 C1568 1.411 . S
C1569 C1570 1.388 1_554 S
C1570 H1558 0.950 . S
C1570 C1569 1.388 1_556 S
C1570 C1571 1.391 . S
C1571 H1559 0.950 . S
C1571 C1567 1.373 1_556 S
C1571 C1570 1.391 . S
H1572 C1580 0.950 . S
H1573 C1585 0.950 . S
H1574 C1582 0.950 . S
H1575 C1584 0.950 . S
H1576 C1586 0.950 . S
H1577 C1588 0.950 . S
H1578 C1590 0.950 . S
H1579 C1591 0.950 . S
C1580 H1572 0.950 . S
C1580 C1581 1.386 . S
C1580 C1582 1.391 . S
C1581 C1580 1.386 . S
C1581 C1585 1.393 . S
C1582 H1574 0.950 . S
C1582 C1580 1.391 . S
C1582 C1583 1.400 . S
C1583 C1582 1.400 . S
C1583 C1584 1.398 . S
C1583 C1589 1.491 . S
C1584 H1575 0.950 . S
C1584 C1583 1.398 . S
C1584 C1585 1.391 . S
C1585 H1573 0.950 . S
C1585 C1581 1.393 . S
C1585 C1584 1.391 . S
C1586 H1576 0.950 . S
C1586 C1587 1.386 . S
C1586 C1588 1.391 . S
C1587 C1586 1.386 . S
C1587 C1591 1.393 . S
C1588 H1577 0.950 . S
C1588 C1586 1.391 . S
C1588 C1589 1.400 . S
C1589 C1583 1.491 . S
C1589 C1588 1.400 . S
C1589 C1590 1.398 . S
C1590 H1578 0.950 . S
C1590 C1589 1.398 . S
C1590 C1591 1.391 . S
C1591 H1579 0.950 . S
C1591 C1587 1.393 . S
C1591 C1590 1.391 . S
H1592 C1600 0.950 . S
H1593 C1605 0.950 . S
H1594 C1602 0.950 . S
H1595 C1604 0.950 . S
H1596 C1606 0.950 . S
H1597 C1608 0.950 . S
H1598 C1610 0.950 . S
H1599 C1611 0.950 . S
C1600 H1592 0.950 . S
C1600 C1601 1.386 . S
C1600 C1602 1.391 . S
C1601 C1600 1.386 . S
C1601 C1605 1.393 . S
C1602 H1594 0.950 . S
C1602 C1600 1.391 . S
C1602 C1603 1.400 . S
C1603 C1602 1.400 . S
C1603 C1604 1.398 . S
C1603 C1609 1.491 . S
C1604 H1595 0.950 . S
C1604 C1603 1.398 . S
C1604 C1605 1.391 . S
C1605 H1593 0.950 . S
C1605 C1601 1.393 . S
C1605 C1604 1.391 . S
C1606 H1596 0.950 . S
C1606 C1607 1.386 . S
C1606 C1608 1.391 . S
C1607 C1606 1.386 . S
C1607 C1611 1.393 . S
C1608 H1597 0.950 . S
C1608 C1606 1.391 . S
C1608 C1609 1.400 . S
C1609 C1603 1.491 . S
C1609 C1608 1.400 . S
C1609 C1610 1.398 . S
C1610 H1598 0.950 . S
C1610 C1609 1.398 . S
C1610 C1611 1.391 . S
C1611 H1599 0.950 . S
C1611 C1607 1.393 . S
C1611 C1610 1.391 . S
H1612 C1620 0.950 . S
H1613 C1625 0.950 . S
H1614 C1622 0.950 . S
H1615 C1624 0.950 . S
H1616 C1626 0.950 . S
H1617 C1628 0.950 . S
H1618 C1630 0.950 . S
H1619 C1631 0.950 . S
C1620 H1612 0.950 . S
C1620 C1621 1.386 . S
C1620 C1622 1.391 . S
C1621 C1620 1.386 . S
C1621 C1625 1.393 . S
C1622 H1614 0.950 . S
C1622 C1620 1.391 . S
C1622 C1623 1.400 . S
C1623 C1622 1.400 . S
C1623 C1624 1.398 . S
C1623 C1629 1.491 . S
C1624 H1615 0.950 . S
C1624 C1623 1.398 . S
C1624 C1625 1.391 . S
C1625 H1613 0.950 . S
C1625 C1621 1.393 . S
C1625 C1624 1.391 . S
C1626 H1616 0.950 . S
C1626 C1627 1.386 . S
C1626 C1628 1.391 . S
C1627 C1626 1.386 . S
C1627 C1631 1.393 . S
C1628 H1617 0.950 . S
C1628 C1626 1.391 . S
C1628 C1629 1.400 . S
C1629 C1623 1.491 . S
C1629 C1628 1.400 . S
C1629 C1630 1.398 . S
C1630 H1618 0.950 . S
C1630 C1629 1.398 . S
C1630 C1631 1.391 . S
C1631 H1619 0.950 . S
C1631 C1627 1.393 . S
C1631 C1630 1.391 . S
H1632 C1640 0.950 . S
H1633 C1645 0.950 . S
H1634 C1642 0.950 . S
H1635 C1644 0.950 . S
H1636 C1646 0.950 . S
H1637 C1648 0.950 . S
H1638 C1650 0.950 . S
H1639 C1651 0.950 . S
C1640 H1632 0.950 . S
C1640 C1641 1.386 . S
C1640 C1642 1.391 . S
C1641 C1640 1.386 . S
C1641 C1645 1.393 . S
C1642 H1634 0.950 . S
C1642 C1640 1.391 . S
C1642 C1643 1.400 . S
C1643 C1642 1.400 . S
C1643 C1644 1.398 . S
C1643 C1649 1.491 . S
C1644 H1635 0.950 . S
C1644 C1643 1.398 . S
C1644 C1645 1.391 . S
C1645 H1633 0.950 . S
C1645 C1641 1.393 . S
C1645 C1644 1.391 . S
C1646 H1636 0.950 . S
C1646 C1647 1.386 . S
C1646 C1648 1.391 . S
C1647 C1646 1.386 . S
C1647 C1651 1.393 . S
C1648 H1637 0.950 . S
C1648 C1646 1.391 . S
C1648 C1649 1.400 . S
C1649 C1643 1.491 . S
C1649 C1648 1.400 . S
C1649 C1650 1.398 . S
C1650 H1638 0.950 . S
C1650 C1649 1.398 . S
C1650 C1651 1.391 . S
C1651 H1639 0.950 . S
C1651 C1647 1.393 . S
C1651 C1650 1.391 . S
H1652 C1660 0.950 . S
H1653 C1665 0.950 . S
H1654 C1662 0.950 . S
H1655 C1664 0.950 . S
H1656 C1666 0.950 . S
H1657 C1668 0.950 . S
H1658 C1670 0.950 . S
H1659 C1671 0.950 . S
C1660 H1652 0.950 . S
C1660 C1661 1.386 . S
C1660 C1662 1.391 . S
C1661 C1660 1.386 . S
C1661 C1665 1.393 . S
C1662 H1654 0.950 . S
C1662 C1660 1.391 . S
C1662 C1663 1.400 . S
C1663 C1662 1.400 . S
C1663 C1664 1.398 . S
C1663 C1669 1.491 . S
C1664 H1655 0.950 . S
C1664 C1663 1.398 . S
C1664 C1665 1.391 . S
C1665 H1653 0.950 . S
C1665 C1661 1.393 . S
C1665 C1664 1.391 . S
C1666 H1656 0.950 . S
C1666 C1667 1.386 . S
C1666 C1668 1.391 . S
C1667 C1666 1.386 . S
C1667 C1671 1.393 . S
C1668 H1657 0.950 . S
C1668 C1666 1.391 . S
C1668 C1669 1.400 . S
C1669 C1663 1.491 . S
C1669 C1668 1.400 . S
C1669 C1670 1.398 . S
C1670 H1658 0.950 . S
C1670 C1669 1.398 . S
C1670 C1671 1.391 . S
C1671 H1659 0.950 . S
C1671 C1667 1.393 . S
C1671 C1670 1.391 . S
H1672 C1680 0.950 . S
H1673 C1685 0.950 . S
H1674 C1682 0.950 . S
H1675 C1684 0.950 . S
H1676 C1686 0.950 . S
H1677 C1688 0.950 . S
H1678 C1690 0.950 . S
H1679 C1691 0.950 . S
C1680 H1672 0.950 . S
C1680 C1681 1.386 . S
C1680 C1682 1.391 . S
C1681 C1680 1.386 . S
C1681 C1685 1.393 . S
C1682 H1674 0.950 . S
C1682 C1680 1.391 . S
C1682 C1683 1.400 . S
C1683 C1682 1.400 . S
C1683 C1684 1.398 . S
C1683 C1689 1.491 . S
C1684 H1675 0.950 . S
C1684 C1683 1.398 . S
C1684 C1685 1.391 . S
C1685 H1673 0.950 . S
C1685 C1681 1.393 . S
C1685 C1684 1.391 . S
C1686 H1676 0.950 . S
C1686 C1687 1.386 . S
C1686 C1688 1.391 . S
C1687 C1686 1.386 . S
C1687 C1691 1.393 . S
C1688 H1677 0.950 . S
C1688 C1686 1.391 . S
C1688 C1689 1.400 . S
C1689 C1683 1.491 . S
C1689 C1688 1.400 . S
C1689 C1690 1.398 . S
C1690 H1678 0.950 . S
C1690 C1689 1.398 . S
C1690 C1691 1.391 . S
C1691 H1679 0.950 . S
C1691 C1687 1.393 . S
C1691 C1690 1.391 . S
H1692 C1700 0.950 . S
H1693 C1705 0.950 . S
H1694 C1702 0.950 . S
H1695 C1704 0.950 . S
H1696 C1706 0.950 . S
H1697 C1708 0.950 . S
H1698 C1710 0.950 . S
H1699 C1711 0.950 . S
C1700 H1692 0.950 . S
C1700 C1701 1.386 . S
C1700 C1702 1.391 . S
C1701 C1700 1.386 . S
C1701 C1705 1.393 . S
C1702 H1694 0.950 . S
C1702 C1700 1.391 . S
C1702 C1703 1.400 . S
C1703 C1702 1.400 . S
C1703 C1704 1.398 . S
C1703 C1709 1.491 . S
C1704 H1695 0.950 . S
C1704 C1703 1.398 . S
C1704 C1705 1.391 . S
C1705 H1693 0.950 . S
C1705 C1701 1.393 . S
C1705 C1704 1.391 . S
C1706 H1696 0.950 . S
C1706 C1707 1.386 . S
C1706 C1708 1.391 . S
C1707 C1706 1.386 . S
C1707 C1711 1.393 . S
C1708 H1697 0.950 . S
C1708 C1706 1.391 . S
C1708 C1709 1.400 . S
C1709 C1703 1.491 . S
C1709 C1708 1.400 . S
C1709 C1710 1.398 . S
C1710 H1698 0.950 . S
C1710 C1709 1.398 . S
C1710 C1711 1.391 . S
C1711 H1699 0.950 . S
C1711 C1707 1.393 . S
C1711 C1710 1.391 . S
H1712 C1720 0.950 . S
H1713 C1725 0.950 . S
H1714 C1722 0.950 . S
H1715 C1724 0.950 . S
H1716 C1726 0.950 . S
H1717 C1728 0.950 . S
H1718 C1730 0.950 . S
H1719 C1731 0.950 . S
C1720 H1712 0.950 . S
C1720 C1721 1.386 . S
C1720 C1722 1.391 . S
C1721 C1720 1.386 . S
C1721 C1725 1.393 . S
C1722 H1714 0.950 . S
C1722 C1720 1.391 . S
C1722 C1723 1.400 . S
C1723 C1722 1.400 . S
C1723 C1724 1.398 . S
C1723 C1729 1.491 . S
C1724 H1715 0.950 . S
C1724 C1723 1.398 . S
C1724 C1725 1.391 . S
C1725 H1713 0.950 . S
C1725 C1721 1.393 . S
C1725 C1724 1.391 . S
C1726 H1716 0.950 . S
C1726 C1727 1.386 . S
C1726 C1728 1.391 . S
C1727 C1726 1.386 . S
C1727 C1731 1.393 . S
C1728 H1717 0.950 . S
C1728 C1726 1.391 . S
C1728 C1729 1.400 . S
C1729 C1723 1.491 . S
C1729 C1728 1.400 . S
C1729 C1730 1.398 . S
C1730 H1718 0.950 . S
C1730 C1729 1.398 . S
C1730 C1731 1.391 . S
C1731 H1719 0.950 . S
C1731 C1727 1.393 . S
C1731 C1730 1.391 . S
H1732 C1740 0.950 . S
H1733 C1745 0.950 . S
H1734 C1742 0.950 . S
H1735 C1744 0.950 . S
H1736 C1746 0.950 . S
H1737 C1748 0.950 . S
H1738 C1750 0.950 . S
H1739 C1751 0.950 . S
C1740 H1732 0.950 . S
C1740 C1741 1.386 . S
C1740 C1742 1.391 . S
C1741 C1740 1.386 . S
C1741 C1745 1.393 . S
C1742 H1734 0.950 . S
C1742 C1740 1.391 . S
C1742 C1743 1.400 . S
C1743 C1742 1.400 . S
C1743 C1744 1.398 . S
C1743 C1749 1.491 . S
C1744 H1735 0.950 . S
C1744 C1743 1.398 . S
C1744 C1745 1.391 . S
C1745 H1733 0.950 . S
C1745 C1741 1.393 . S
C1745 C1744 1.391 . S
C1746 H1736 0.950 . S
C1746 C1747 1.386 . S
C1746 C1748 1.391 . S
C1747 C1746 1.386 . S
C1747 C1751 1.393 . S
C1748 H1737 0.950 . S
C1748 C1746 1.391 . S
C1748 C1749 1.400 . S
C1749 C1743 1.491 . S
C1749 C1748 1.400 . S
C1749 C1750 1.398 . S
C1750 H1738 0.950 . S
C1750 C1749 1.398 . S
C1750 C1751 1.391 . S
C1751 H1739 0.950 . S
C1751 C1747 1.393 . S
C1751 C1750 1.391 . S
H1752 C1760 0.950 . S
H1753 C1765 0.950 . S
H1754 C1762 0.950 . S
H1755 C1764 0.950 . S
H1756 C1766 0.950 . S
H1757 C1768 0.950 . S
H1758 C1770 0.950 . S
H1759 C1771 0.950 . S
C1760 H1752 0.950 . S
C1760 C1761 1.386 . S
C1760 C1762 1.391 . S
C1761 C1760 1.386 . S
C1761 C1765 1.393 . S
C1762 H1754 0.950 . S
C1762 C1760 1.391 . S
C1762 C1763 1.400 . S
C1763 C1762 1.400 . S
C1763 C1764 1.398 . S
C1763 C1769 1.491 . S
C1764 H1755 0.950 . S
C1764 C1763 1.398 . S
C1764 C1765 1.391 . S
C1765 H1753 0.950 . S
C1765 C1761 1.393 . S
C1765 C1764 1.391 . S
C1766 H1756 0.950 . S
C1766 C1767 1.386 . S
C1766 C1768 1.391 . S
C1767 C1766 1.386 . S
C1767 C1771 1.393 . S
C1768 H1757 0.950 . S
C1768 C1766 1.391 . S
C1768 C1769 1.400 . S
C1769 C1763 1.491 . S
C1769 C1768 1.400 . S
C1769 C1770 1.398 . S
C1770 H1758 0.950 . S
C1770 C1769 1.398 . S
C1770 C1771 1.391 . S
C1771 H1759 0.950 . S
C1771 C1767 1.393 . S
C1771 C1770 1.391 . S
H1772 C1780 0.950 . S
H1773 C1785 0.950 . S
H1774 C1782 0.950 . S
H1775 C1784 0.950 . S
H1776 C1786 0.950 . S
H1777 C1788 0.950 . S
H1778 C1790 0.950 . S
H1779 C1791 0.950 . S
C1780 H1772 0.950 . S
C1780 C1781 1.386 . S
C1780 C1782 1.391 . S
C1781 C1780 1.386 . S
C1781 C1785 1.393 . S
C1782 H1774 0.950 . S
C1782 C1780 1.391 . S
C1782 C1783 1.400 . S
C1783 C1782 1.400 . S
C1783 C1784 1.398 . S
C1783 C1789 1.491 . S
C1784 H1775 0.950 . S
C1784 C1783 1.398 . S
C1784 C1785 1.391 . S
C1785 H1773 0.950 . S
C1785 C1781 1.393 . S
C1785 C1784 1.391 . S
C1786 H1776 0.950 . S
C1786 C1787 1.386 . S
C1786 C1788 1.391 . S
C1787 C1786 1.386 . S
C1787 C1791 1.393 . S
C1788 H1777 0.950 . S
C1788 C1786 1.391 . S
C1788 C1789 1.400 . S
C1789 C1783 1.491 . S
C1789 C1788 1.400 . S
C1789 C1790 1.398 . S
C1790 H1778 0.950 . S
C1790 C1789 1.398 . S
C1790 C1791 1.391 . S
C1791 H1779 0.950 . S
C1791 C1787 1.393 . S
C1791 C1790 1.391 . S
H1792 C1800 0.950 . S
H1793 C1805 0.950 . S
H1794 C1802 0.950 . S
H1795 C1804 0.950 . S
H1796 C1806 0.950 . S
H1797 C1808 0.950 . S
H1798 C1810 0.950 . S
H1799 C1811 0.950 . S
C1800 H1792 0.950 . S
C1800 C1801 1.386 . S
C1800 C1802 1.391 . S
C1801 C1800 1.386 . S
C1801 C1805 1.393 . S
C1802 H1794 0.950 . S
C1802 C1800 1.391 . S
C1802 C1803 1.400 . S
C1803 C1802 1.400 . S
C1803 C1804 1.398 . S
C1803 C1809 1.491 . S
C1804 H1795 0.950 . S
C1804 C1803 1.398 . S
C1804 C1805 1.391 . S
C1805 H1793 0.950 . S
C1805 C1801 1.393 . S
C1805 C1804 1.391 . S
C1806 H1796 0.950 . S
C1806 C1807 1.386 . S
C1806 C1808 1.391 . S
C1807 C1806 1.386 . S
C1807 C1811 1.393 . S
C1808 H1797 0.950 . S
C1808 C1806 1.391 . S
C1808 C1809 1.400 . S
C1809 C1803 1.491 . S
C1809 C1808 1.400 . S
C1809 C1810 1.398 . S
C1810 H1798 0.950 . S
C1810 C1809 1.398 . S
C1810 C1811 1.391 . S
C1811 H1799 0.950 . S
C1811 C1807 1.393 . S
C1811 C1810 1.391 . S
H1812 C1820 0.950 . S
H1813 C1825 0.950 . S
H1814 C1822 0.950 . S
H1815 C1824 0.950 . S
H1816 C1826 0.950 . S
H1817 C1828 0.950 . S
H1818 C1830 0.950 . S
H1819 C1831 0.950 . S
C1820 H1812 0.950 . S
C1820 C1821 1.386 . S
C1820 C1822 1.391 . S
C1821 C1820 1.386 . S
C1821 C1825 1.393 . S
C1822 H1814 0.950 . S
C1822 C1820 1.391 . S
C1822 C1823 1.400 . S
C1823 C1822 1.400 . S
C1823 C1824 1.398 . S
C1823 C1829 1.491 . S
C1824 H1815 0.950 . S
C1824 C1823 1.398 . S
C1824 C1825 1.391 . S
C1825 H1813 0.950 . S
C1825 C1821 1.393 . S
C1825 C1824 1.391 . S
C1826 H1816 0.950 . S
C1826 C1827 1.386 . S
C1826 C1828 1.391 . S
C1827 C1826 1.386 . S
C1827 C1831 1.393 . S
C1828 H1817 0.950 . S
C1828 C1826 1.391 . S
C1828 C1829 1.400 . S
C1829 C1823 1.491 . S
C1829 C1828 1.400 . S
C1829 C1830 1.398 . S
C1830 H1818 0.950 . S
C1830 C1829 1.398 . S
C1830 C1831 1.391 . S
C1831 H1819 0.950 . S
C1831 C1827 1.393 . S
C1831 C1830 1.391 . S
H1832 C1840 0.950 . S
H1833 C1845 0.950 . S
H1834 C1842 0.950 . S
H1835 C1844 0.950 . S
H1836 C1846 0.950 . S
H1837 C1848 0.950 . S
H1838 C1850 0.950 . S
H1839 C1851 0.950 . S
C1840 H1832 0.950 . S
C1840 C1841 1.386 . S
C1840 C1842 1.391 . S
C1841 C1840 1.386 . S
C1841 C1845 1.393 . S
C1842 H1834 0.950 . S
C1842 C1840 1.391 . S
C1842 C1843 1.400 . S
C1843 C1842 1.400 . S
C1843 C1844 1.398 . S
C1843 C1849 1.491 . S
C1844 H1835 0.950 . S
C1844 C1843 1.398 . S
C1844 C1845 1.391 . S
C1845 H1833 0.950 . S
C1845 C1841 1.393 . S
C1845 C1844 1.391 . S
C1846 H1836 0.950 . S
C1846 C1847 1.386 . S
C1846 C1848 1.391 . S
C1847 C1846 1.386 . S
C1847 C1851 1.393 . S
C1848 H1837 0.950 . S
C1848 C1846 1.391 . S
C1848 C1849 1.400 . S
C1849 C1843 1.491 . S
C1849 C1848 1.400 . S
C1849 C1850 1.398 . S
C1850 H1838 0.950 . S
C1850 C1849 1.398 . S
C1850 C1851 1.391 . S
C1851 H1839 0.950 . S
C1851 C1847 1.393 . S
C1851 C1850 1.391 . S
H1852 C1860 0.950 . S
H1853 C1865 0.950 . S
H1854 C1862 0.950 . S
H1855 C1864 0.950 . S
H1856 C1866 0.950 . S
H1857 C1868 0.950 . S
H1858 C1870 0.950 . S
H1859 C1871 0.950 . S
C1860 H1852 0.950 . S
C1860 C1861 1.386 . S
C1860 C1862 1.391 . S
C1861 C1860 1.386 . S
C1861 C1865 1.393 . S
C1862 H1854 0.950 . S
C1862 C1860 1.391 . S
C1862 C1863 1.400 . S
C1863 C1862 1.400 . S
C1863 C1864 1.398 . S
C1863 C1869 1.491 . S
C1864 H1855 0.950 . S
C1864 C1863 1.398 . S
C1864 C1865 1.391 . S
C1865 H1853 0.950 . S
C1865 C1861 1.393 . S
C1865 C1864 1.391 . S
C1866 H1856 0.950 . S
C1866 C1867 1.386 . S
C1866 C1868 1.391 . S
C1867 C1866 1.386 . S
C1867 C1871 1.393 . S
C1868 H1857 0.950 . S
C1868 C1866 1.391 . S
C1868 C1869 1.400 . S
C1869 C1863 1.491 . S
C1869 C1868 1.400 . S
C1869 C1870 1.398 . S
C1870 H1858 0.950 . S
C1870 C1869 1.398 . S
C1870 C1871 1.391 . S
C1871 H1859 0.950 . S
C1871 C1867 1.393 . S
C1871 C1870 1.391 . S
H1872 C1880 0.950 . S
H1873 C1885 0.950 . S
H1874 C1882 0.950 . S
H1875 C1884 0.950 . S
H1876 C1886 0.950 . S
H1877 C1888 0.950 . S
H1878 C1890 0.950 . S
H1879 C1891 0.950 . S
C1880 H1872 0.950 . S
C1880 C1881 1.386 . S
C1880 C1882 1.391 . S
C1881 C1880 1.386 . S
C1881 C1885 1.393 . S
C1882 H1874 0.950 . S
C1882 C1880 1.391 . S
C1882 C1883 1.400 . S
C1883 C1882 1.400 . S
C1883 C1884 1.398 . S
C1883 C1889 1.491 . S
C1884 H1875 0.950 . S
C1884 C1883 1.398 . S
C1884 C1885 1.391 . S
C1885 H1873 0.950 . S
C1885 C1881 1.393 . S
C1885 C1884 1.391 . S
C1886 H1876 0.950 . S
C1886 C1887 1.386 . S
C1886 C1888 1.391 . S
C1887 C1886 1.386 . S
C1887 C1891 1.393 . S
C1888 H1877 0.950 . S
C1888 C1886 1.391 . S
C1888 C1889 1.400 . S
C1889 C1883 1.491 . S
C1889 C1888 1.400 . S
C1889 C1890 1.398 . S
C1890 H1878 0.950 . S
C1890 C1889 1.398 . S
C1890 C1891 1.391 . S
C1891 H1879 0.950 . S
C1891 C1887 1.393 . S
C1891 C1890 1.391 . S
H1892 C1900 0.950 . S
H1893 C1905 0.950 . S
H1894 C1902 0.950 . S
H1895 C1904 0.950 . S
H1896 C1906 0.950 . S
H1897 C1908 0.950 . S
H1898 C1910 0.950 . S
H1899 C1911 0.950 . S
C1900 H1892 0.950 . S
C1900 C1901 1.386 . S
C1900 C1902 1.391 . S
C1901 C1900 1.386 . S
C1901 C1905 1.393 . S
C1902 H1894 0.950 . S
C1902 C1900 1.391 . S
C1902 C1903 1.400 . S
C1903 C1902 1.400 . S
C1903 C1904 1.398 . S
C1903 C1909 1.491 . S
C1904 H1895 0.950 . S
C1904 C1903 1.398 . S
C1904 C1905 1.391 . S
C1905 H1893 0.950 . S
C1905 C1901 1.393 . S
C1905 C1904 1.391 . S
C1906 H1896 0.950 . S
C1906 C1907 1.386 . S
C1906 C1908 1.391 . S
C1907 C1906 1.386 . S
C1907 C1911 1.393 . S
C1908 H1897 0.950 . S
C1908 C1906 1.391 . S
C1908 C1909 1.400 . S
C1909 C1903 1.491 . S
C1909 C1908 1.400 . S
C1909 C1910 1.398 . S
C1910 H1898 0.950 . S
C1910 C1909 1.398 . S
C1910 C1911 1.391 . S
C1911 H1899 0.950 . S
C1911 C1907 1.393 . S
C1911 C1910 1.391 . S
H1912 C1920 0.950 . S
H1913 C1925 0.950 . S
H1914 C1922 0.950 . S
H1915 C1924 0.950 . S
H1916 C1926 0.950 . S
H1917 C1928 0.950 . S
H1918 C1930 0.950 . S
H1919 C1931 0.950 . S
C1920 H1912 0.950 . S
C1920 C1921 1.386 . S
C1920 C1922 1.391 . S
C1921 C1920 1.386 . S
C1921 C1925 1.393 . S
C1922 H1914 0.950 . S
C1922 C1920 1.391 . S
C1922 C1923 1.400 . S
C1923 C1922 1.400 . S
C1923 C1924 1.398 . S
C1923 C1929 1.491 . S
C1924 H1915 0.950 . S
C1924 C1923 1.398 . S
C1924 C1925 1.391 . S
C1925 H1913 0.950 . S
C1925 C1921 1.393 . S
C1925 C1924 1.391 . S
C1926 H1916 0.950 . S
C1926 C1927 1.386 . S
C1926 C1928 1.391 . S
C1927 C1926 1.386 . S
C1927 C1931 1.393 . S
C1928 H1917 0.950 . S
C1928 C1926 1.391 . S
C1928 C1929 1.400 . S
C1929 C1923 1.491 . S
C1929 C1928 1.400 . S
C1929 C1930 1.398 . S
C1930 H1918 0.950 . S
C1930 C1929 1.398 . S
C1930 C1931 1.391 . S
C1931 H1919 0.950 . S
C1931 C1927 1.393 . S
C1931 C1930 1.391 . S
H1932 C1940 0.950 . S
H1933 C1945 0.950 . S
H1934 C1942 0.950 . S
H1935 C1944 0.950 . S
H1936 C1946 0.950 . S
H1937 C1948 0.950 . S
H1938 C1950 0.950 . S
H1939 C1951 0.950 . S
C1940 H1932 0.950 . S
C1940 C1941 1.386 . S
C1940 C1942 1.391 . S
C1941 C1940 1.386 . S
C1941 C1945 1.393 . S
C1942 H1934 0.950 . S
C1942 C1940 1.391 . S
C1942 C1943 1.400 . S
C1943 C1942 1.400 . S
C1943 C1944 1.398 . S
C1943 C1949 1.491 . S
C1944 H1935 0.950 . S
C1944 C1943 1.398 . S
C1944 C1945 1.391 . S
C1945 H1933 0.950 . S
C1945 C1941 1.393 . S
C1945 C1944 1.391 . S
C1946 H1936 0.950 . S
C1946 C1947 1.386 . S
C1946 C1948 1.391 . S
C1947 C1946 1.386 . S
C1947 C1951 1.393 . S
C1948 H1937 0.950 . S
C1948 C1946 1.391 . S
C1948 C1949 1.400 . S
C1949 C1943 1.491 . S
C1949 C1948 1.400 . S
C1949 C1950 1.398 . S
C1950 H1938 0.950 . S
C1950 C1949 1.398 . S
C1950 C1951 1.391 . S
C1951 H1939 0.950 . S
C1951 C1947 1.393 . S
C1951 C1950 1.391 . S
H1952 C1960 0.950 . S
H1953 C1965 0.950 . S
H1954 C1962 0.950 . S
H1955 C1964 0.950 . S
H1956 C1966 0.950 . S
H1957 C1968 0.950 . S
H1958 C1970 0.950 . S
H1959 C1971 0.950 . S
C1960 H1952 0.950 . S
C1960 C1961 1.386 . S
C1960 C1962 1.391 . S
C1961 C1960 1.386 . S
C1961 C1965 1.393 . S
C1962 H1954 0.950 . S
C1962 C1960 1.391 . S
C1962 C1963 1.400 . S
C1963 C1962 1.400 . S
C1963 C1964 1.398 . S
C1963 C1969 1.491 . S
C1964 H1955 0.950 . S
C1964 C1963 1.398 . S
C1964 C1965 1.391 . S
C1965 H1953 0.950 . S
C1965 C1961 1.393 . S
C1965 C1964 1.391 . S
C1966 H1956 0.950 . S
C1966 C1967 1.386 . S
C1966 C1968 1.391 . S
C1967 C1966 1.386 . S
C1967 C1971 1.393 . S
C1968 H1957 0.950 . S
C1968 C1966 1.391 . S
C1968 C1969 1.400 . S
C1969 C1963 1.491 . S
C1969 C1968 1.400 . S
C1969 C1970 1.398 . S
C1970 H1958 0.950 . S
C1970 C1969 1.398 . S
C1970 C1971 1.391 . S
C1971 H1959 0.950 . S
C1971 C1967 1.393 . S
C1971 C1970 1.391 . S
H1972 C1980 0.950 . S
H1973 C1985 0.950 . S
H1974 C1982 0.950 . S
H1975 C1984 0.950 . S
H1976 C1986 0.950 . S
H1977 C1988 0.950 . S
H1978 C1990 0.950 . S
H1979 C1991 0.950 . S
C1980 H1972 0.950 . S
C1980 C1981 1.386 . S
C1980 C1982 1.391 . S
C1981 C1980 1.386 . S
C1981 C1985 1.393 . S
C1982 H1974 0.950 . S
C1982 C1980 1.391 . S
C1982 C1983 1.400 . S
C1983 C1982 1.400 . S
C1983 C1984 1.398 . S
C1983 C1989 1.491 . S
C1984 H1975 0.950 . S
C1984 C1983 1.398 . S
C1984 C1985 1.391 . S
C1985 H1973 0.950 . S
C1985 C1981 1.393 . S
C1985 C1984 1.391 . S
C1986 H1976 0.950 . S
C1986 C1987 1.386 . S
C1986 C1988 1.391 . S
C1987 C1986 1.386 . S
C1987 C1991 1.393 . S
C1988 H1977 0.950 . S
C1988 C1986 1.391 . S
C1988 C1989 1.400 . S
C1989 C1983 1.491 . S
C1989 C1988 1.400 . S
C1989 C1990 1.398 . S
C1990 H1978 0.950 . S
C1990 C1989 1.398 . S
C1990 C1991 1.391 . S
C1991 H1979 0.950 . S
C1991 C1987 1.393 . S
C1991 C1990 1.391 . S
H1992 C2000 0.950 . S
H1993 C2005 0.950 . S
H1994 C2002 0.950 . S
H1995 C2004 0.950 . S
H1996 C2006 0.950 . S
H1997 C2008 0.950 . S
H1998 C2010 0.950 . S
H1999 C2011 0.950 . S
C2000 H1992 0.950 . S
C2000 C2001 1.386 . S
C2000 C2002 1.391 . S
C2001 C2000 1.386 . S
C2001 C2005 1.393 . S
C2002 H1994 0.950 . S
C2002 C2000 1.391 . S
C2002 C2003 1.400 . S
C2003 C2002 1.400 . S
C2003 C2004 1.398 . S
C2003 C2009 1.491 . S
C2004 H1995 0.950 . S
C2004 C2003 1.398 . S
C2004 C2005 1.391 . S
C2005 H1993 0.950 . S
C2005 C2001 1.393 . S
C2005 C2004 1.391 . S
C2006 H1996 0.950 . S
C2006 C2007 1.386 . S
C2006 C2008 1.391 . S
C2007 C2006 1.386 . S
C2007 C2011 1.393 . S
C2008 H1997 0.950 . S
C2008 C2006 1.391 . S
C2008 C2009 1.400 . S
C2009 C2003 1.491 . S
C2009 C2008 1.400 . S
C2009 C2010 1.398 . S
C2010 H1998 0.950 . S
C2010 C2009 1.398 . S
C2010 C2011 1.391 . S
C2011 H1999 0.950 . S
C2011 C2007 1.393 . S
C2011 C2010 1.391 . S
H2012 C2020 0.950 . S
H2013 C2025 0.950 . S
H2014 C2022 0.950 . S
H2015 C2024 0.950 . S
H2016 C2026 0.950 . S
H2017 C2028 0.950 . S
H2018 C2030 0.950 . S
H2019 C2031 0.950 . S
C2020 H2012 0.950 . S
C2020 C2021 1.386 . S
C2020 C2022 1.391 . S
C2021 C2020 1.386 . S
C2021 C2025 1.393 . S
C2022 H2014 0.950 . S
C2022 C2020 1.391 . S
C2022 C2023 1.400 . S
C2023 C2022 1.400 . S
C2023 C2024 1.398 . S
C2023 C2029 1.491 . S
C2024 H2015 0.950 . S
C2024 C2023 1.398 . S
C2024 C2025 1.391 . S
C2025 H2013 0.950 . S
C2025 C2021 1.393 . S
C2025 C2024 1.391 . S
C2026 H2016 0.950 . S
C2026 C2027 1.386 . S
C2026 C2028 1.391 . S
C2027 C2026 1.386 . S
C2027 C2031 1.393 . S
C2028 H2017 0.950 . S
C2028 C2026 1.391 . S
C2028 C2029 1.400 . S
C2029 C2023 1.491 . S
C2029 C2028 1.400 . S
C2029 C2030 1.398 . S
C2030 H2018 0.950 . S
C2030 C2029 1.398 . S
C2030 C2031 1.391 . S
C2031 H2019 0.950 . S
C2031 C2027 1.393 . S
C2031 C2030 1.391 . S
H2032 C2040 0.950 . S
H2033 C2045 0.950 . S
H2034 C2042 0.950 . S
H2035 C2044 0.950 . S
H2036 C2046 0.950 . S
H2037 C2048 0.950 . S
H2038 C2050 0.950 . S
H2039 C2051 0.950 . S
C2040 H2032 0.950 . S
C2040 C2041 1.386 . S
C2040 C2042 1.391 . S
C2041 C2040 1.386 . S
C2041 C2045 1.393 . S
C2042 H2034 0.950 . S
C2042 C2040 1.391 . S
C2042 C2043 1.400 . S
C2043 C2042 1.400 . S
C2043 C2044 1.398 . S
C2043 C2049 1.491 . S
C2044 H2035 0.950 . S
C2044 C2043 1.398 . S
C2044 C2045 1.391 . S
C2045 H2033 0.950 . S
C2045 C2041 1.393 . S
C2045 C2044 1.391 . S
C2046 H2036 0.950 . S
C2046 C2047 1.386 . S
C2046 C2048 1.391 . S
C2047 C2046 1.386 . S
C2047 C2051 1.393 . S
C2048 H2037 0.950 . S
C2048 C2046 1.391 . S
C2048 C2049 1.400 . S
C2049 C2043 1.491 . S
C2049 C2048 1.400 . S
C2049 C2050 1.398 . S
C2050 H2038 0.950 . S
C2050 C2049 1.398 . S
C2050 C2051 1.391 . S
C2051 H2039 0.950 . S
C2051 C2047 1.393 . S
C2051 C2050 1.391 . S
C627 C318 1.307 . S
C621 N300 1.283 . S
C641 N278 1.473 . S
C647 C316 1.511 . S
C667 C317 1.510 . S
C661 N265 1.487 . S
C681 N287 1.265 . S
C687 C319 1.307 . S
C707 C363 1.316 . S
C701 N213 1.285 . S
C727 C423 1.258 . S
C721 N226 1.222 . S
C741 N239 1.294 . S
C747 C362 1.322 . S
C767 C422 1.465 . S
C761 N252 1.433 . S
C781 N161 1.275 . S
C787 C364 1.315 . S
C807 C420 1.464 . S
C801 N174 1.444 . S
C821 N187 1.298 . S
C827 C365 1.323 . S
C841 N200 1.228 . S
C847 C421 1.259 . S
C867 C471 1.309 . S
C861 N144 1.282 . S
C881 N122 1.476 . S
C887 C470 1.511 . S
C901 N109 1.476 1_556 S
C907 C472 1.512 . S
C927 C473 1.306 . S
C921 N131 1.264 1_554 S
C941 N57 1.290 . S
C947 C514 1.316 . S
C961 N70 1.231 . S
C967 C573 1.259 1_565 S
C981 N83 1.299 . S
C987 C512 1.323 . S
C1001 N96 1.438 1_545 S
C1007 C572 1.464 1_565 S
C1027 C513 1.315 . S
C1021 N5 1.275 . S
C1047 C570 1.464 1_565 S
C1041 N18 1.438 . S
C1061 N31 1.293 . S
C1067 C515 1.322 . S
C1087 C571 1.258 . S
C1081 N44 1.217 . S
C1107 C315 1.295 . S
C1101 N2 1.258 . S
C1121 N15 1.476 . S
C1127 C321 1.532 . S
C1141 N27 1.626 . S
C1147 C313 1.633 . S
C1161 N41 1.245 . S
C1167 C320 1.311 . S
C1181 N54 1.258 . S
C1187 C312 1.295 . S
C1207 C322 1.312 . S
C1201 N67 1.255 1_565 S
C1221 N79 1.631 . S
C1227 C314 1.632 . S
C1247 C323 1.533 . S
C1241 N93 1.479 . S
C1267 C369 1.595 . S
C1261 N40 1.587 . S
C1281 N1 1.560 . S
C1287 C412 1.564 . S
C1307 C367 1.621 . S
C1301 N14 1.618 . S
C1327 C414 1.242 . S
C1321 N28 1.201 . S
C1341 N66 1.588 1_565 S
C1347 C368 1.595 . S
C1367 C413 1.240 . S
C1361 N80 1.188 . S
C1387 C366 1.621 . S
C1381 N92 1.617 . S
C1407 C415 1.566 . S
C1401 N53 1.559 . S
C1427 C419 1.555 . S
C1421 N106 1.519 . S
C1441 N119 1.520 . S
C1447 C418 1.555 . S
C1467 C370 1.793 1_556 S
C1461 N105 1.788 . S
C1487 C417 1.715 . S
C1481 N135 1.714 1_554 S
C1501 N145 1.317 . S
C1507 C373 1.370 . S
C1521 N148 1.713 . S
C1527 C416 1.715 1_556 S
C1547 C372 1.794 . S
C1541 N118 1.792 1_554 S
C1567 C371 1.370 . S
C1561 N132 1.315 . S
C1587 C465 1.295 . S
C1581 N158 1.259 . S
C1607 C468 1.531 . S
C1601 N171 1.495 . S
C1621 N183 1.627 . S
C1627 C464 1.633 . S
C1647 C466 1.313 . S
C1641 N197 1.274 . S
C1667 C462 1.291 . S
C1661 N210 1.229 . S
C1681 N223 1.243 . S
C1687 C467 1.309 . S
C1701 N235 1.628 . S
C1707 C463 1.633 . S
C1727 C469 1.532 . S
C1721 N249 1.484 . S
C1747 C523 1.595 . S
C1741 N196 1.589 . S
C1761 N157 1.564 . S
C1767 C562 1.564 . S
C1787 C522 1.621 . S
C1781 N170 1.617 . S
C1807 C564 1.239 . S
C1801 N184 1.198 . S
C1827 C521 1.595 . S
C1821 N222 1.589 . S
C1841 N236 1.184 . S
C1847 C563 1.239 . S
C1867 C520 1.621 . S
C1861 N248 1.612 . S
C1887 C565 1.565 . S
C1881 N209 1.558 . S
C1907 C569 1.554 . S
C1901 N262 1.505 . S
C1921 N275 1.519 . S
C1927 C568 1.555 . S
C1947 C516 1.793 . S
C1941 N261 1.788 . S
C1961 N291 1.712 . S
C1967 C567 1.715 . S
C1987 C519 1.370 . S
C1981 N301 1.314 . S
C2007 C566 1.715 . S
C2001 N304 1.715 . S
C2027 C517 1.794 . S
C2021 N274 1.787 . S
C2041 N288 1.316 . S
C2047 C518 1.370 . S
