# Generated by pormake.
# Topology pyr, (3,6)-cn, num edge types: 1
# Building blocks:
#     Node 0, Type 0, BuildingBlock: VETTIZ_charged_linker_0, # of connection points: 3
#     Node 1, Type 0, BuildingBlock: VETTIZ_charged_linker_0, # of connection points: 3
#     Node 2, Type 0, BuildingBlock: VETTIZ_charged_linker_0, # of connection points: 3
#     Node 3, Type 0, BuildingBlock: VETTIZ_charged_linker_0, # of connection points: 3
#     Node 4, Type 0, BuildingBlock: VETTIZ_charged_linker_0, # of connection points: 3
#     Node 5, Type 0, BuildingBlock: VETTIZ_charged_linker_0, # of connection points: 3
#     Node 6, Type 0, BuildingBlock: VETTIZ_charged_linker_0, # of connection points: 3
#     Node 7, Type 0, BuildingBlock: VETTIZ_charged_linker_0, # of connection points: 3
#     Node 8, Type 1, BuildingBlock: MIDCAF_clean_sbu_0, # of connection points: 6
#     Node 9, Type 1, BuildingBlock: MIDCAF_clean_sbu_0, # of connection points: 6
#     Node 10, Type 1, BuildingBlock: MIDCAF_clean_sbu_0, # of connection points: 6
#     Node 11, Type 1, BuildingBlock: MIDCAF_clean_sbu_0, # of connection points: 6
#     Edge 12, Type (0, 1), BuildingBlock: AJUNOK_clean_linker_0, # of connection points: 2
#     Edge 13, Type (0, 1), BuildingBlock: AJUNOK_clean_linker_0, # of connection points: 2
#     Edge 14, Type (0, 1), BuildingBlock: AJUNOK_clean_linker_0, # of connection points: 2
#     Edge 15, Type (0, 1), BuildingBlock: AJUNOK_clean_linker_0, # of connection points: 2
#     Edge 16, Type (0, 1), BuildingBlock: AJUNOK_clean_linker_0, # of connection points: 2
#     Edge 17, Type (0, 1), BuildingBlock: AJUNOK_clean_linker_0, # of connection points: 2
#     Edge 18, Type (0, 1), BuildingBlock: AJUNOK_clean_linker_0, # of connection points: 2
#     Edge 19, Type (0, 1), BuildingBlock: AJUNOK_clean_linker_0, # of connection points: 2
#     Edge 20, Type (0, 1), BuildingBlock: AJUNOK_clean_linker_0, # of connection points: 2
#     Edge 21, Type (0, 1), BuildingBlock: AJUNOK_clean_linker_0, # of connection points: 2
#     Edge 22, Type (0, 1), BuildingBlock: AJUNOK_clean_linker_0, # of connection points: 2
#     Edge 23, Type (0, 1), BuildingBlock: AJUNOK_clean_linker_0, # of connection points: 2
#     Edge 24, Type (0, 1), BuildingBlock: AJUNOK_clean_linker_0, # of connection points: 2
#     Edge 25, Type (0, 1), BuildingBlock: AJUNOK_clean_linker_0, # of connection points: 2
#     Edge 26, Type (0, 1), BuildingBlock: AJUNOK_clean_linker_0, # of connection points: 2
#     Edge 27, Type (0, 1), BuildingBlock: AJUNOK_clean_linker_0, # of connection points: 2
#     Edge 28, Type (0, 1), BuildingBlock: AJUNOK_clean_linker_0, # of connection points: 2
#     Edge 29, Type (0, 1), BuildingBlock: AJUNOK_clean_linker_0, # of connection points: 2
#     Edge 30, Type (0, 1), BuildingBlock: AJUNOK_clean_linker_0, # of connection points: 2
#     Edge 31, Type (0, 1), BuildingBlock: AJUNOK_clean_linker_0, # of connection points: 2
#     Edge 32, Type (0, 1), BuildingBlock: AJUNOK_clean_linker_0, # of connection points: 2
#     Edge 33, Type (0, 1), BuildingBlock: AJUNOK_clean_linker_0, # of connection points: 2
#     Edge 34, Type (0, 1), BuildingBlock: AJUNOK_clean_linker_0, # of connection points: 2
#     Edge 35, Type (0, 1), BuildingBlock: AJUNOK_clean_linker_0, # of connection points: 2
# Relax obj value: 0.019
# Max RMSD: 0.063
# Mean RMSD: 0.021
data_MOF--net-pyr--node1-MIDCAF_clean_sbu_0--node2-VETTIZ_charged_linker_0--edge1-AJUNOK_clean_linker_0
_symmetry_space_group_name_H-M    P1
_symmetry_Int_Tables_number       1
_symmetry_cell_setting            triclinic
loop_
_symmetry_equiv_pos_as_xyz
'x, y, z'
_cell_length_a     34.138966
_cell_length_b     34.195828
_cell_length_c     34.171545
_cell_angle_alpha  89.947627
_cell_angle_beta   90.042105
_cell_angle_gamma 90.073824
loop_
_atom_site_label
_atom_site_type_symbol
_atom_site_fract_x
_atom_site_fract_y
_atom_site_fract_z
_atom_type_partial_charge
C0 C 0.17728 0.16038 0.33813 0.0
C1 C 0.14706 0.17672 0.3605 0.0
C2 C 0.13551 0.21558 0.35367 0.0
C3 C 0.18241 0.22027 0.30038 0.0
C4 C 0.19472 0.18265 0.30855 0.0
C5 C 0.22627 0.16897 0.28117 0.0
H6 H 0.35715 0.21118 0.13963 0.0
C7 C 0.20514 0.23449 0.26633 0.0
C8 C 0.23157 0.20495 0.25566 0.0
H9 H 0.32968 0.09814 0.19055 0.0
H10 H 0.28153 0.12764 0.23099 0.0
H11 H 0.33564 0.27432 0.21217 0.0
H12 H 0.27425 0.21979 0.11757 0.0
H13 H 0.24484 0.26002 0.12979 0.0
H14 H 0.29414 0.26789 0.11236 0.0
H15 H 0.34459 0.28128 0.16077 0.0
H16 H 0.30774 0.30934 0.18569 0.0
C17 C 0.26328 0.15998 0.30573 0.0
C18 C 0.21041 0.13351 0.25755 0.0
C19 C 0.16311 0.35692 0.19425 0.0
C20 C 0.17579 0.37368 0.15897 0.0
C21 C 0.21138 0.36142 0.14232 0.0
C22 C 0.23309 0.33112 0.15959 0.0
C23 C 0.21839 0.31234 0.19315 0.0
C24 C 0.18464 0.32617 0.21073 0.0
C25 C 0.1728 0.30186 0.24555 0.0
C26 C 0.20315 0.26947 0.24398 0.0
C27 C 0.2299 0.27587 0.21335 0.0
C28 C 0.17718 0.32721 0.28287 0.0
C29 C 0.13078 0.28616 0.23856 0.0
C30 C 0.34122 0.19243 0.15953 0.0
C31 C 0.35023 0.15218 0.1632 0.0
C32 C 0.32692 0.12953 0.18894 0.0
C33 C 0.29765 0.1466 0.2119 0.0
C34 C 0.28942 0.18651 0.20778 0.0
C35 C 0.30986 0.2084 0.18071 0.0
C36 C 0.29114 0.24782 0.17402 0.0
C37 C 0.25829 0.24691 0.20413 0.0
C38 C 0.25818 0.21122 0.22438 0.0
C39 C 0.32135 0.28012 0.18348 0.0
C40 C 0.27539 0.24926 0.13131 0.0
H41 H 0.1427 0.26678 0.3191 0.0
H42 H 0.1863 0.13035 0.34279 0.0
H43 H 0.17783 0.13243 0.25749 0.0
H44 H 0.21848 0.13503 0.22618 0.0
H45 H 0.22099 0.1054 0.26996 0.0
H46 H 0.26953 0.18439 0.32631 0.0
H47 H 0.25911 0.13294 0.3233 0.0
H48 H 0.28987 0.15641 0.28782 0.0
H49 H 0.13556 0.3658 0.20718 0.0
H50 H 0.22136 0.37404 0.115 0.0
H51 H 0.2597 0.32243 0.14545 0.0
H52 H 0.19983 0.35032 0.27899 0.0
H53 H 0.14922 0.34201 0.29034 0.0
H54 H 0.18732 0.31002 0.30838 0.0
H55 H 0.12778 0.27477 0.20821 0.0
H56 H 0.12288 0.26167 0.25796 0.0
H57 H 0.10872 0.30967 0.24259 0.0
H58 H 0.11197 0.22837 0.3706 0.0
C59 C 0.1532 0.23758 0.32372 0.0
C60 C 0.19592 0.84843 0.65871 0.0
C61 C 0.18606 0.88835 0.66292 0.0
C62 C 0.20848 0.91113 0.68928 0.0
C63 C 0.24772 0.85483 0.70702 0.0
C64 C 0.22751 0.83282 0.67985 0.0
C65 C 0.24632 0.79348 0.67336 0.0
H66 H 0.4052 0.67928 0.70116 0.0
C67 C 0.27985 0.83063 0.72291 0.0
C68 C 0.27988 0.79493 0.70263 0.0
H69 H 0.30755 0.65817 0.62314 0.0
H70 H 0.27373 0.71404 0.65006 0.0
H71 H 0.41027 0.77253 0.69981 0.0
H72 H 0.34904 0.69167 0.77418 0.0
H73 H 0.35595 0.73388 0.80266 0.0
H74 H 0.39799 0.70698 0.78519 0.0
H75 H 0.43305 0.73745 0.73176 0.0
H76 H 0.41841 0.78444 0.74963 0.0
C77 C 0.26096 0.79213 0.63044 0.0
C78 C 0.2163 0.76124 0.68382 0.0
C79 C 0.36017 0.8803 0.83795 0.0
C80 C 0.39027 0.86364 0.8607 0.0
C81 C 0.40459 0.82639 0.85035 0.0
C82 C 0.38896 0.80604 0.81823 0.0
C83 C 0.35864 0.82302 0.79613 0.0
C84 C 0.34447 0.85938 0.80642 0.0
C85 C 0.31187 0.87277 0.77992 0.0
C86 C 0.30751 0.83752 0.75323 0.0
C87 C 0.33562 0.80897 0.76221 0.0
C88 C 0.32591 0.90964 0.75734 0.0
C89 C 0.27489 0.87946 0.80518 0.0
C90 C 0.37641 0.68627 0.68991 0.0
C91 C 0.36008 0.66514 0.65845 0.0
C92 C 0.322 0.67507 0.64569 0.0
C93 C 0.30224 0.70741 0.66153 0.0
C94 C 0.32044 0.72987 0.69082 0.0
C95 C 0.35601 0.71794 0.70587 0.0
C96 C 0.36921 0.74296 0.73964 0.0
C97 C 0.33765 0.77418 0.73968 0.0
C98 C 0.30936 0.76667 0.71071 0.0
C99 C 0.40999 0.76027 0.72998 0.0
C100 C 0.3683 0.71774 0.77743 0.0
H101 H 0.25405 0.91342 0.73131 0.0
H102 H 0.18034 0.82975 0.63845 0.0
H103 H 0.19938 0.76945 0.71038 0.0
H104 H 0.23033 0.73305 0.69102 0.0
H105 H 0.19509 0.75667 0.65958 0.0
H106 H 0.27234 0.82119 0.62111 0.0
H107 H 0.23686 0.784 0.61015 0.0
H108 H 0.28566 0.77197 0.62596 0.0
H109 H 0.34943 0.90945 0.84403 0.0
H110 H 0.42787 0.81297 0.86718 0.0
H111 H 0.4013 0.778 0.81159 0.0
H112 H 0.35841 0.91206 0.75695 0.0
H113 H 0.31436 0.93684 0.7708 0.0
H114 H 0.31739 0.90885 0.72605 0.0
H115 H 0.26974 0.85401 0.82483 0.0
H116 H 0.24799 0.88288 0.78764 0.0
H117 H 0.27831 0.90589 0.82377 0.0
H118 H 0.20432 0.94235 0.69163 0.0
C119 C 0.23841 0.89445 0.71184 0.0
C120 C 0.69415 0.18459 0.87778 0.0
C121 C 0.65988 0.16549 0.86503 0.0
C122 C 0.64242 0.17746 0.82956 0.0
C123 C 0.69141 0.22809 0.82152 0.0
C124 C 0.70935 0.21574 0.85564 0.0
C125 C 0.74429 0.2407 0.8659 0.0
H126 H 0.84384 0.40999 0.84021 0.0
C127 C 0.71207 0.26338 0.80738 0.0
C128 C 0.74323 0.27093 0.8332 0.0
H129 H 0.86791 0.31807 0.9234 0.0
H130 H 0.81747 0.2776 0.89413 0.0
H131 H 0.75253 0.40515 0.84182 0.0
H132 H 0.83577 0.34993 0.76537 0.0
H133 H 0.79585 0.364 0.73621 0.0
H134 H 0.82385 0.40088 0.76168 0.0
H135 H 0.77854 0.43153 0.80455 0.0
H136 H 0.73284 0.40706 0.79439 0.0
C137 C 0.73682 0.2593 0.90651 0.0
C138 C 0.78154 0.21492 0.86393 0.0
C139 C 0.65785 0.33875 0.69062 0.0
C140 C 0.66669 0.37579 0.67479 0.0
C141 C 0.69856 0.39693 0.6906 0.0
C142 C 0.72067 0.38201 0.72169 0.0
C143 C 0.7107 0.34565 0.73793 0.0
C144 C 0.67978 0.32462 0.72241 0.0
C145 C 0.67187 0.28776 0.74523 0.0
C146 C 0.70381 0.28973 0.77625 0.0
C147 C 0.7265 0.32367 0.77169 0.0
C148 C 0.63017 0.29083 0.76313 0.0
C149 C 0.6777 0.25247 0.71753 0.0
C150 C 0.83846 0.3809 0.85161 0.0
C151 C 0.85955 0.36698 0.88401 0.0
C152 C 0.85203 0.32907 0.89823 0.0
C153 C 0.82257 0.30585 0.88145 0.0
C154 C 0.80043 0.32077 0.85012 0.0
C155 C 0.80951 0.35712 0.83481 0.0
C156 C 0.78422 0.36732 0.80023 0.0
C157 C 0.75786 0.33155 0.79791 0.0
C158 C 0.76689 0.30477 0.82778 0.0
C159 C 0.76088 0.40484 0.81034 0.0
C160 C 0.81106 0.37107 0.76385 0.0
H161 H 0.64307 0.2163 0.7813 0.0
H162 H 0.70825 0.17606 0.90487 0.0
H163 H 0.77775 0.19025 0.84305 0.0
H164 H 0.80729 0.23119 0.85283 0.0
H165 H 0.78865 0.20218 0.89299 0.0
H166 H 0.70657 0.27128 0.9081 0.0
H167 H 0.74005 0.23726 0.93018 0.0
H168 H 0.75647 0.28402 0.91303 0.0
H169 H 0.63406 0.32129 0.67905 0.0
H170 H 0.70582 0.4258 0.67971 0.0
H171 H 0.74411 0.39991 0.7325 0.0
H172 H 0.62131 0.32183 0.76745 0.0
H173 H 0.60792 0.27698 0.74386 0.0
H174 H 0.62821 0.27779 0.79267 0.0
H175 H 0.70398 0.25688 0.69878 0.0
H176 H 0.68298 0.22481 0.73338 0.0
H177 H 0.65202 0.24865 0.69791 0.0
H178 H 0.6155 0.16405 0.81946 0.0
C179 C 0.65814 0.20831 0.80766 0.0
C180 C 0.87624 0.84705 0.3511 0.0
C181 C 0.86213 0.86834 0.38345 0.0
C182 C 0.82519 0.85831 0.39907 0.0
C183 C 0.81851 0.80561 0.35191 0.0
C184 C 0.85378 0.81655 0.33548 0.0
C185 C 0.86441 0.79173 0.30075 0.0
H186 H 0.8306 0.6315 0.18995 0.0
C187 C 0.80378 0.77113 0.33018 0.0
C188 C 0.8301 0.76345 0.29958 0.0
H189 H 0.9251 0.71474 0.17972 0.0
H190 H 0.89618 0.75464 0.23056 0.0
H191 H 0.83017 0.62998 0.28239 0.0
H192 H 0.75941 0.69612 0.20154 0.0
H193 H 0.72872 0.68004 0.23962 0.0
H194 H 0.75271 0.64454 0.20877 0.0
H195 H 0.79337 0.60769 0.25216 0.0
H196 H 0.78156 0.62849 0.29903 0.0
C197 C 0.90351 0.77067 0.31002 0.0
C198 C 0.86569 0.81836 0.26402 0.0
C199 C 0.69056 0.69245 0.38565 0.0
C200 C 0.6732 0.65682 0.37475 0.0
C201 C 0.68346 0.63972 0.33875 0.0
C202 C 0.71256 0.65666 0.31509 0.0
C203 C 0.73163 0.69095 0.32771 0.0
C204 C 0.71962 0.70891 0.36188 0.0
C205 C 0.74279 0.7453 0.3707 0.0
C206 C 0.77172 0.74549 0.33698 0.0
C207 C 0.76533 0.7134 0.31205 0.0
C208 C 0.76338 0.73952 0.41072 0.0
C209 C 0.71472 0.78086 0.36911 0.0
C210 C 0.84435 0.65885 0.19821 0.0
C211 C 0.87973 0.67055 0.18082 0.0
C212 C 0.89754 0.70569 0.19261 0.0
C213 C 0.88081 0.72855 0.22226 0.0
C214 C 0.8462 0.71578 0.24066 0.0
C215 C 0.82812 0.68185 0.22803 0.0
C216 C 0.7922 0.67224 0.25177 0.0
C217 C 0.7916 0.70607 0.28059 0.0
C218 C 0.82356 0.73121 0.27418 0.0
C219 C 0.79925 0.63245 0.27236 0.0
C220 C 0.75622 0.67292 0.22418 0.0
H221 H 0.77581 0.82059 0.39708 0.0
H222 H 0.90482 0.85301 0.33877 0.0
H223 H 0.84497 0.84331 0.2668 0.0
H224 H 0.85627 0.80301 0.23713 0.0
H225 H 0.89542 0.83077 0.25948 0.0
H226 H 0.90401 0.76046 0.34095 0.0
H227 H 0.92887 0.79062 0.30577 0.0
H228 H 0.90817 0.74414 0.29233 0.0
H229 H 0.68269 0.70642 0.41298 0.0
H230 H 0.67026 0.61231 0.32983 0.0
H231 H 0.71998 0.64172 0.28852 0.0
H232 H 0.77668 0.70987 0.41254 0.0
H233 H 0.74219 0.74239 0.43519 0.0
H234 H 0.78761 0.76019 0.41582 0.0
H235 H 0.68943 0.77525 0.34931 0.0
H236 H 0.72897 0.80728 0.35691 0.0
H237 H 0.70275 0.78772 0.39853 0.0
H238 H 0.81332 0.87434 0.42366 0.0
C239 C 0.80337 0.82714 0.38351 0.0
C240 C 0.91245 0.78594 0.97564 0.0
C241 C 0.94056 0.75993 0.96086 0.0
C242 C 0.96543 0.7721 0.93032 0.0
C243 C 0.93194 0.83418 0.92696 0.0
C244 C 0.90856 0.82293 0.95809 0.0
C245 C 0.87868 0.8537 0.9681 0.0
H246 H 0.78329 0.01968 0.91677 0.0
C247 C 0.91847 0.87272 0.91302 0.0
C248 C 0.88735 0.88453 0.93711 0.0
H249 H 0.76365 0.94627 0.01782 0.0
H250 H 0.81926 0.9064 1.00065 0.0
H251 H 0.80423 0.9507 0.85581 0.0
H252 H 0.87465 0.02511 0.92864 0.0
H253 H 0.90311 0.01616 0.88689 0.0
H254 H 0.85679 0.04126 0.88201 0.0
H255 H 0.8102 0.00226 0.8478 0.0
H256 H 0.8439 0.96732 0.82749 0.0
C257 C 0.83745 0.83546 0.96292 0.0
C258 C 0.88731 0.86883 0.00998 0.0
C259 C 0.9779 0.93215 0.78977 0.0
C260 C 0.96917 0.96634 0.76864 0.0
C261 C 0.93962 0.99153 0.78256 0.0
C262 C 0.91876 0.98279 0.81656 0.0
C263 C 0.92718 0.94827 0.83701 0.0
C264 C 0.95656 0.92378 0.8239 0.0
C265 C 0.96106 0.88835 0.84965 0.0
C266 C 0.92971 0.89591 0.88037 0.0
C267 C 0.90981 0.93087 0.87246 0.0
C268 C 0.95184 0.85172 0.82454 0.0
C269 C 0.00278 0.88904 0.86754 0.0
C270 C 0.79122 0.99506 0.9351 0.0
C271 C 0.76932 0.98597 0.96858 0.0
C272 C 0.78049 0.95393 0.99205 0.0
C273 C 0.81256 0.93065 0.9819 0.0
C274 C 0.83368 0.93936 0.9478 0.0
C275 C 0.82359 0.97169 0.92561 0.0
C276 C 0.85079 0.97753 0.89158 0.0
C277 C 0.87814 0.94282 0.89649 0.0
C278 C 0.86751 0.92018 0.92907 0.0
C279 C 0.82626 0.9746 0.8535 0.0
C280 C 0.87239 0.0171 0.89716 0.0
H281 H 0.98089 0.81631 0.88992 0.0
H282 H 0.89305 0.77711 0.99911 0.0
H283 H 0.91899 0.86629 0.01726 0.0
H284 H 0.8807 0.90031 0.01335 0.0
H285 H 0.87074 0.85192 0.03226 0.0
H286 H 0.83606 0.81799 0.9355 0.0
H287 H 0.8303 0.81567 0.98771 0.0
H288 H 0.81396 0.85736 0.96027 0.0
H289 H 1.00064 0.9124 0.77998 0.0
H290 H 0.93199 0.0178 0.76654 0.0
H291 H 0.89645 0.00302 0.82521 0.0
H292 H 0.92823 0.858 0.80295 0.0
H293 H 0.97805 0.8421 0.8079 0.0
H294 H 0.94058 0.82689 0.84184 0.0
H295 H 0.01245 0.91956 0.87345 0.0
H296 H 0.0044 0.8742 0.89624 0.0
H297 H 0.02444 0.87566 0.84737 0.0
H298 H 0.9875 0.75245 0.91888 0.0
C299 C 0.96144 0.8091 0.91347 0.0
C300 C 0.75018 0.0823 0.46336 0.0
C301 C 0.76808 0.05046 0.4445 0.0
C302 C 0.75042 0.03453 0.41087 0.0
C303 C 0.69834 0.08276 0.41487 0.0
C304 C 0.71562 0.098 0.44808 0.0
C305 C 0.69404 0.13303 0.46366 0.0
H306 H 0.54485 0.26194 0.44533 0.0
C307 C 0.66344 0.10679 0.40596 0.0
C308 C 0.66076 0.13626 0.43443 0.0
H309 H 0.63659 0.26173 0.53242 0.0
H310 H 0.66374 0.20264 0.50418 0.0
H311 H 0.52868 0.16677 0.44532 0.0
H312 H 0.59944 0.24351 0.37446 0.0
H313 H 0.57853 0.20873 0.343 0.0
H314 H 0.54712 0.24155 0.36978 0.0
H315 H 0.50804 0.20144 0.41166 0.0
H316 H 0.52249 0.15322 0.39604 0.0
C317 C 0.67903 0.12304 0.50524 0.0
C318 C 0.72189 0.16885 0.46184 0.0
C319 C 0.58175 0.07559 0.28615 0.0
C320 C 0.54853 0.09289 0.26914 0.0
C321 C 0.53128 0.12545 0.28746 0.0
C322 C 0.54712 0.14058 0.3223 0.0
C323 C 0.58066 0.12305 0.33876 0.0
C324 C 0.59724 0.09101 0.32065 0.0
C325 C 0.63304 0.07633 0.34157 0.0
C326 C 0.63539 0.10483 0.37538 0.0
C327 C 0.60472 0.13213 0.37368 0.0
C328 C 0.62477 0.03404 0.35569 0.0
C329 C 0.66854 0.08031 0.31353 0.0
C330 C 0.57044 0.24874 0.45866 0.0
C331 C 0.58857 0.26615 0.49122 0.0
C332 C 0.62228 0.24873 0.50728 0.0
C333 C 0.63791 0.21451 0.49081 0.0
C334 C 0.61983 0.19784 0.4577 0.0
C335 C 0.58657 0.21496 0.44231 0.0
C336 C 0.57202 0.19433 0.40626 0.0
C337 C 0.60194 0.16184 0.40252 0.0
C338 C 0.62981 0.16393 0.43275 0.0
C339 C 0.53051 0.17819 0.41487 0.0
C340 C 0.574 0.22336 0.37143 0.0
H341 H 0.70355 0.03718 0.37021 0.0
H342 H 0.7635 0.09552 0.48894 0.0
H343 H 0.7421 0.16673 0.43639 0.0
H344 H 0.70622 0.19674 0.45746 0.0
H345 H 0.74014 0.17095 0.48869 0.0
H346 H 0.66825 0.09234 0.50654 0.0
H347 H 0.70278 0.12614 0.52726 0.0
H348 H 0.65388 0.14114 0.51427 0.0
H349 H 0.59597 0.05084 0.27241 0.0
H350 H 0.5055 0.13902 0.27494 0.0
H351 H 0.53277 0.16543 0.33497 0.0
H352 H 0.59379 0.03084 0.3653 0.0
H353 H 0.62991 0.01258 0.33188 0.0
H354 H 0.64238 0.02566 0.38147 0.0
H355 H 0.66535 0.10634 0.29422 0.0
H356 H 0.69651 0.08507 0.32906 0.0
H357 H 0.67131 0.05422 0.29439 0.0
H358 H 0.76369 0.00989 0.39605 0.0
C359 C 0.71553 0.05043 0.39603 0.0
C360 C 0.48756 0.60207 0.24488 0.0
C361 C 0.47623 0.56964 0.26738 0.0
C362 C 0.44466 0.54625 0.25492 0.0
C363 C 0.43419 0.58907 0.19953 0.0
C364 C 0.46647 0.61087 0.21072 0.0
C365 C 0.4748 0.64366 0.18252 0.0
H366 H 0.41757 0.75302 0.0274 0.0
C367 C 0.41727 0.60713 0.16413 0.0
C368 C 0.4414 0.63865 0.15345 0.0
H369 H 0.52187 0.76534 0.09823 0.0
H370 H 0.50497 0.70738 0.13438 0.0
H371 H 0.36107 0.73283 0.09825 0.0
H372 H 0.42306 0.65939 0.01729 0.0
H373 H 0.37725 0.63728 0.02496 0.0
H374 H 0.37964 0.68561 0.0037 0.0
H375 H 0.34662 0.72753 0.04804 0.0
H376 H 0.32911 0.69476 0.0855 0.0
C377 C 0.47177 0.68272 0.20522 0.0
C378 C 0.51533 0.63624 0.16344 0.0
C379 C 0.28238 0.56477 0.11667 0.0
C380 C 0.2578 0.57967 0.08734 0.0
C381 C 0.27204 0.60844 0.06154 0.0
C382 C 0.30977 0.62365 0.06589 0.0
C383 C 0.33343 0.6103 0.09671 0.0
C384 C 0.32012 0.58065 0.12091 0.0
C385 C 0.34956 0.57043 0.15208 0.0
C386 C 0.38201 0.59971 0.14327 0.0
C387 C 0.37216 0.62311 0.11097 0.0
C388 C 0.33032 0.57791 0.19243 0.0
C389 C 0.36309 0.52765 0.14557 0.0
C390 C 0.43671 0.74312 0.05067 0.0
C391 C 0.47103 0.76384 0.06001 0.0
C392 C 0.49545 0.74969 0.09019 0.0
C393 C 0.48546 0.71616 0.11142 0.0
C394 C 0.45049 0.69646 0.10267 0.0
C395 C 0.42711 0.70954 0.07231 0.0
C396 C 0.39106 0.68472 0.06735 0.0
C397 C 0.39685 0.65459 0.09961 0.0
C398 C 0.43148 0.66199 0.12049 0.0
C399 C 0.35488 0.71107 0.07484 0.0
C400 C 0.39239 0.66585 0.02615 0.0
H401 H 0.39944 0.53722 0.21345 0.0
H402 H 0.51206 0.62015 0.2538 0.0
H403 H 0.52264 0.60453 0.16304 0.0
H404 H 0.5162 0.64518 0.13232 0.0
H405 H 0.53905 0.65151 0.17964 0.0
H406 H 0.4458 0.68247 0.22489 0.0
H407 H 0.49817 0.68756 0.22362 0.0
H408 H 0.46778 0.70834 0.18603 0.0
H409 H 0.27188 0.54259 0.13675 0.0
H410 H 0.25337 0.61996 0.0386 0.0
H411 H 0.31859 0.64606 0.04576 0.0
H412 H 0.31462 0.60641 0.1924 0.0
H413 H 0.30869 0.55466 0.1995 0.0
H414 H 0.35155 0.5797 0.21664 0.0
H415 H 0.35984 0.51874 0.11442 0.0
H416 H 0.3946 0.52357 0.15204 0.0
H417 H 0.34566 0.50688 0.16353 0.0
H418 H 0.43563 0.52114 0.27207 0.0
C419 C 0.4236 0.55576 0.2211 0.0
C420 C 0.07747 0.28747 0.58683 0.0
C421 C 0.09396 0.27143 0.55282 0.0
C422 C 0.12244 0.29284 0.53214 0.0
C423 C 0.12035 0.34375 0.58181 0.0
C424 C 0.09103 0.32335 0.60081 0.0
C425 C 0.07839 0.3427 0.63818 0.0
H426 H 0.11161 0.47848 0.77734 0.0
C427 C 0.13029 0.37812 0.60627 0.0
C428 C 0.10564 0.37769 0.63917 0.0
H429 H 0.02249 0.38869 0.77646 0.0
H430 H 0.04195 0.36968 0.71101 0.0
H431 H 0.09806 0.50665 0.68574 0.0
H432 H 0.17872 0.42769 0.74192 0.0
H433 H 0.20517 0.45404 0.70663 0.0
H434 H 0.18272 0.47981 0.74675 0.0
H435 H 0.13715 0.52336 0.71669 0.0
H436 H 0.14465 0.51445 0.6652 0.0
C437 C 0.03497 0.35512 0.63379 0.0
C438 C 0.08636 0.31394 0.67239 0.0
C439 C 0.24603 0.46362 0.56925 0.0
C440 C 0.26536 0.4947 0.58805 0.0
C441 C 0.25041 0.50893 0.62367 0.0
C442 C 0.21665 0.49228 0.64035 0.0
C443 C 0.19812 0.46061 0.62153 0.0
C444 C 0.21276 0.44707 0.5864 0.0
C445 C 0.19066 0.41212 0.57131 0.0
C446 C 0.15998 0.40705 0.60295 0.0
C447 C 0.1645 0.43541 0.63237 0.0
C448 C 0.17203 0.42312 0.53148 0.0
C449 C 0.21938 0.37703 0.56958 0.0
C450 C 0.09622 0.45481 0.76288 0.0
C451 C 0.06573 0.43476 0.78199 0.0
C452 C 0.04597 0.40455 0.76218 0.0
C453 C 0.05753 0.39346 0.72435 0.0
C454 C 0.08927 0.4127 0.70629 0.0
C455 C 0.10741 0.44345 0.72523 0.0
C456 C 0.14042 0.46071 0.70168 0.0
C457 C 0.13952 0.43491 0.6656 0.0
C458 C 0.10983 0.4066 0.66866 0.0
C459 C 0.12994 0.50365 0.69188 0.0
C460 C 0.17888 0.4557 0.72532 0.0
H461 H 0.15813 0.34372 0.53004 0.0
H462 H 0.05522 0.27164 0.60303 0.0
H463 H 0.11438 0.29801 0.66775 0.0
H464 H 0.08981 0.32855 0.70092 0.0
H465 H 0.06263 0.29181 0.6748 0.0
H466 H 0.02804 0.36299 0.60295 0.0
H467 H 0.01487 0.33109 0.64253 0.0
H468 H 0.02784 0.38166 0.65081 0.0
H469 H 0.25755 0.45127 0.54244 0.0
H470 H 0.26509 0.53265 0.63874 0.0
H471 H 0.20677 0.50418 0.66766 0.0
H472 H 0.16119 0.45379 0.53188 0.0
H473 H 0.19371 0.42066 0.50738 0.0
H474 H 0.14611 0.40514 0.52431 0.0
H475 H 0.24117 0.37852 0.59378 0.0
H476 H 0.20478 0.34851 0.57353 0.0
H477 H 0.23585 0.37675 0.54156 0.0
H478 H 0.13545 0.28086 0.50586 0.0
C479 C 0.13568 0.32907 0.54645 0.0
Zn480 Zn 0.96921 0.07361 0.56219 0.0
Zn481 Zn 0.05504 0.9829 0.47524 0.0
Zn482 Zn 0.01369 0.02676 0.5235 0.0
C483 C 0.07393 0.06017 0.45829 0.0
C484 C 0.97837 0.96527 0.45886 0.0
O485 O 0.01935 0.00741 0.585 0.0
O486 O 0.98081 0.051 0.6134 0.0
C487 C 0.02313 0.12209 0.53053 0.0
O488 O 0.05278 0.06571 0.48902 0.0
O489 O 0.07828 0.02622 0.44457 0.0
O490 O 0.01211 0.95342 0.44973 0.0
O491 O 0.97402 0.99263 0.48448 0.0
O492 O 0.99264 0.12462 0.55107 0.0
O493 O 0.03477 0.08857 0.51771 0.0
O494 O 0.95122 0.0199 0.50421 0.0
O495 O 0.91768 0.06157 0.54057 0.0
C496 C 0.91846 0.03581 0.51426 0.0
O497 O 0.04923 0.98795 0.56244 0.0
O498 O 0.08599 0.95846 0.51819 0.0
C499 C 0.00293 0.02161 0.61583 0.0
C500 C 0.07758 0.96457 0.5537 0.0
Zn501 Zn 0.47805 0.05345 0.9767 0.0
Zn502 Zn 0.56844 0.9728 0.06895 0.0
Zn503 Zn 0.52379 0.01289 0.0259 0.0
C504 C 0.61897 0.01535 0.02467 0.0
C505 C 0.52572 0.91759 0.03135 0.0
O506 O 0.48537 0.05089 0.06282 0.0
O507 O 0.45032 0.08254 0.01851 0.0
C508 C 0.55527 0.07045 0.95652 0.0
O509 O 0.58594 0.02465 0.0089 0.0
O510 O 0.61973 0.99335 0.05422 0.0
O511 O 0.55591 0.91934 0.05251 0.0
O512 O 0.50911 0.94936 0.01954 0.0
O513 O 0.52082 0.07893 0.94612 0.0
O514 O 0.56139 0.0467 0.98517 0.0
O515 O 0.48706 0.9709 0.99253 0.0
O516 O 0.4505 0.0078 0.95367 0.0
C517 C 0.46052 0.97445 0.9659 0.0
O518 O 0.51559 0.03369 0.08709 0.0
O519 O 0.55 0.99001 0.12014 0.0
C520 C 0.458 0.07542 0.05398 0.0
C521 C 0.52871 0.02008 0.11982 0.0
Zn522 Zn 0.55291 0.55298 0.56491 0.0
Zn523 Zn 0.46737 0.46611 0.47184 0.0
Zn524 Zn 0.51132 0.51081 0.51412 0.0
C525 C 0.5159 0.41524 0.50948 0.0
C526 C 0.50758 0.51532 0.42047 0.0
O527 O 0.47154 0.54381 0.55367 0.0
O528 O 0.50917 0.57673 0.59495 0.0
C529 C 0.5761 0.47622 0.57538 0.0
O530 O 0.52993 0.44843 0.52083 0.0
O531 O 0.48523 0.41416 0.48894 0.0
O532 O 0.48628 0.48517 0.42093 0.0
O533 O 0.51975 0.53068 0.45274 0.0
O534 O 0.58288 0.50984 0.58892 0.0
O535 O 0.55076 0.4713 0.5478 0.0
O536 O 0.54709 0.55124 0.4775 0.0
O537 O 0.58015 0.58295 0.52329 0.0
C538 C 0.57348 0.57638 0.48752 0.0
O539 O 0.44865 0.51868 0.53103 0.0
O540 O 0.41501 0.48356 0.48837 0.0
C541 C 0.4755 0.56754 0.58274 0.0
C542 C 0.41563 0.50663 0.51711 0.0
Zn543 Zn 0.05305 0.56126 0.9803 0.0
Zn544 Zn 0.97589 0.47778 0.06536 0.0
Zn545 Zn 0.01573 0.52151 0.02071 0.0
C546 C 0.05364 0.46033 0.08035 0.0
C547 C 0.95351 0.45942 0.98956 0.0
O548 O 0.98954 0.58126 0.02084 0.0
O549 O 0.01209 0.59784 0.96279 0.0
C550 C 0.09998 0.5532 0.04131 0.0
O551 O 0.05749 0.49249 0.06107 0.0
O552 O 0.02045 0.4442 0.08301 0.0
O553 O 0.93987 0.45784 0.02385 0.0
O554 O 0.98501 0.47899 0.98256 0.0
O555 O 0.09193 0.5809 0.01834 0.0
O556 O 0.07688 0.52344 0.04337 0.0
O557 O 0.01486 0.49604 0.96054 0.0
O558 O 0.07103 0.5219 0.94223 0.0
C559 C 0.0436 0.49797 0.93613 0.0
O560 O 0.97441 0.56026 0.05242 0.0
O561 O 0.95737 0.52049 0.10052 0.0
C562 C 0.98961 0.60461 0.99121 0.0
C563 C 0.95719 0.55422 0.08543 0.0
C564 C 0.09974 0.12307 0.37154 0.0
C565 C 0.125 0.15126 0.38745 0.0
C566 C 0.08241 0.0946 0.39525 0.0
C567 C 0.08973 0.09332 0.43572 0.0
H568 H 0.09431 0.12234 0.34029 0.0
H569 H 0.06374 0.07284 0.38166 0.0
S570 S 0.15439 0.1603 0.49135 0.0
N571 N 0.15649 0.17667 0.44586 0.0
N572 N 0.12437 0.12232 0.49064 0.0
C573 C 0.11431 0.12185 0.4522 0.0
C574 C 0.13189 0.15109 0.42795 0.0
C575 C 0.44903 0.88908 0.89726 0.0
C576 C 0.40796 0.88621 0.89359 0.0
C577 C 0.46627 0.91546 0.92368 0.0
C578 C 0.44299 0.94001 0.94693 0.0
H579 H 0.46799 0.87265 0.87794 0.0
H580 H 0.49785 0.91865 0.92388 0.0
S581 S 0.33486 0.93861 0.95439 0.0
N582 N 0.34494 0.9057 0.92053 0.0
N583 N 0.3775 0.95652 0.9686 0.0
C584 C 0.40223 0.9354 0.94577 0.0
C585 C 0.38467 0.90815 0.91951 0.0
C586 C 0.66003 0.41713 0.61446 0.0
C587 C 0.64203 0.39414 0.64365 0.0
C588 C 0.63801 0.44167 0.59013 0.0
C589 C 0.59707 0.44306 0.59297 0.0
H590 H 0.69164 0.41779 0.61175 0.0
H591 H 0.65324 0.46103 0.57012 0.0
S592 S 0.53475 0.38596 0.66063 0.0
N593 N 0.57993 0.37282 0.67183 0.0
N594 N 0.53877 0.41741 0.62415 0.0
C595 C 0.57828 0.41795 0.61936 0.0
C596 C 0.60069 0.39367 0.64506 0.0
C597 C 0.92807 0.61751 0.17107 0.0
C598 C 0.90077 0.64343 0.15472 0.0
C599 C 0.94673 0.58937 0.14799 0.0
C600 C 0.93906 0.58644 0.10765 0.0
H601 H 0.93442 0.61851 0.20213 0.0
H602 H 0.96713 0.56947 0.16191 0.0
S603 S 0.86965 0.64758 0.05098 0.0
N604 N 0.86686 0.66486 0.09606 0.0
N605 N 0.90189 0.61156 0.05243 0.0
C606 C 0.91219 0.61261 0.0908 0.0
C607 C 0.893 0.64124 0.11445 0.0
C608 C 0.38856 0.14864 0.10008 0.0
C609 C 0.38101 0.13346 0.13775 0.0
C610 C 0.41476 0.13052 0.07438 0.0
C611 C 0.43385 0.09542 0.08423 0.0
H612 H 0.37322 0.1741 0.08929 0.0
H613 H 0.41913 0.14371 0.04588 0.0
S614 S 0.42372 0.04173 0.17803 0.0
N615 N 0.39766 0.08178 0.18425 0.0
N616 N 0.44095 0.04436 0.133 0.0
C617 C 0.4263 0.07932 0.1213 0.0
C618 C 0.40139 0.09906 0.14862 0.0
C619 C 0.14994 0.89321 0.59871 0.0
C620 C 0.15524 0.9067 0.63733 0.0
C621 C 0.12362 0.91122 0.57299 0.0
C622 C 0.10191 0.94446 0.58394 0.0
H623 H 0.16717 0.86922 0.58739 0.0
H624 H 0.12115 0.89941 0.54368 0.0
S625 S 0.10511 0.99264 0.68112 0.0
N626 N 0.13413 0.95443 0.68588 0.0
N627 N 0.08922 0.99145 0.63551 0.0
C628 C 0.10693 0.9586 0.62223 0.0
C629 C 0.13248 0.93909 0.64925 0.0
C630 C 0.8689 0.42386 0.92809 0.0
C631 C 0.88561 0.39343 0.90619 0.0
C632 C 0.89165 0.44611 0.95393 0.0
C633 C 0.93201 0.43923 0.95811 0.0
H634 H 0.83767 0.42932 0.92652 0.0
H635 H 0.87739 0.46827 0.97151 0.0
S636 S 0.99023 0.36485 0.90517 0.0
N637 N 0.94506 0.35866 0.88879 0.0
N638 N 0.98814 0.4011 0.93708 0.0
C639 C 0.94944 0.41004 0.93513 0.0
C640 C 0.92611 0.38694 0.9092 0.0
C641 C 0.60929 0.62485 0.39325 0.0
C642 C 0.64785 0.63568 0.40294 0.0
C643 C 0.5852 0.60559 0.42061 0.0
C644 C 0.59896 0.59604 0.45819 0.0
H645 H 0.59745 0.63203 0.36471 0.0
H646 H 0.55539 0.59919 0.41277 0.0
S647 S 0.69927 0.61502 0.49623 0.0
N648 N 0.69951 0.63369 0.45169 0.0
N649 N 0.65483 0.59708 0.50261 0.0
C650 C 0.63792 0.60602 0.46768 0.0
C651 C 0.66219 0.62584 0.44014 0.0
C652 C 0.12234 0.37932 0.11043 0.0
C653 C 0.14828 0.39799 0.13626 0.0
C654 C 0.09247 0.40017 0.09173 0.0
C655 C 0.08777 0.44053 0.09787 0.0
H656 H 0.12444 0.34806 0.10562 0.0
H657 H 0.07249 0.38447 0.07272 0.0
S658 S 0.14816 0.50288 0.16299 0.0
N659 N 0.16777 0.45888 0.16712 0.0
N660 N 0.11137 0.49838 0.13182 0.0
C661 C 0.11408 0.45977 0.123 0.0
C662 C 0.14442 0.43837 0.14233 0.0
C663 C 0.63281 0.14444 0.92998 0.0
C664 C 0.63977 0.13609 0.89019 0.0
C665 C 0.60742 0.12115 0.95245 0.0
C666 C 0.58816 0.08893 0.93578 0.0
H667 H 0.64507 0.17049 0.94322 0.0
H668 H 0.60099 0.12977 0.98226 0.0
S669 S 0.60139 0.05051 0.83548 0.0
N670 N 0.62949 0.08985 0.83706 0.0
N671 N 0.58081 0.04704 0.87909 0.0
C672 C 0.59687 0.07863 0.89711 0.0
C673 C 0.62299 0.10196 0.87435 0.0
C674 C 0.89036 0.90007 0.44367 0.0
C675 C 0.88719 0.89869 0.40249 0.0
C676 C 0.91825 0.92401 0.46214 0.0
C677 C 0.94431 0.94679 0.44003 0.0
H678 H 0.87267 0.88098 0.46179 0.0
H679 H 0.92102 0.92286 0.49371 0.0
S680 S 0.94398 0.95951 0.33246 0.0
N681 N 0.90867 0.92755 0.34091 0.0
N682 N 0.9628 0.9702 0.37569 0.0
C683 C 0.94008 0.94759 0.39926 0.0
C684 C 0.91105 0.92417 0.38047 0.0
C685 C 0.40991 0.61106 0.66014 0.0
C686 C 0.38403 0.63461 0.63822 0.0
C687 C 0.43829 0.58785 0.64186 0.0
C688 C 0.44112 0.58619 0.60094 0.0
H689 H 0.40935 0.61169 0.69182 0.0
H690 H 0.45895 0.57192 0.65992 0.0
S691 S 0.37861 0.63847 0.52952 0.0
N692 N 0.36221 0.65272 0.57265 0.0
N693 N 0.41433 0.6073 0.53872 0.0
C694 C 0.4138 0.60701 0.57849 0.0
C695 C 0.38543 0.63153 0.59701 0.0
C696 C 0.0013 0.01482 0.72497 0.0
C697 C 0.98899 0.9761 0.7313 0.0
C698 C 0.00951 0.02839 0.68734 0.0
C699 C 0.00656 0.00356 0.65474 0.0
H700 H 0.0018 0.03555 0.74893 0.0
H701 H 0.01584 0.05921 0.68342 0.0
S702 S 0.98244 0.89804 0.65623 0.0
N703 N 0.97902 0.91178 0.70246 0.0
N704 N 0.9958 0.93738 0.63148 0.0
C705 C 0.99861 0.96379 0.661 0.0
C706 C 0.98959 0.94997 0.69946 0.0
C707 C 0.52837 0.03602 0.22861 0.0
C708 C 0.53331 0.07667 0.2319 0.0
C709 C 0.52365 0.01831 0.19212 0.0
C710 C 0.52335 0.04056 0.15748 0.0
H711 H 0.53049 0.01752 0.25428 0.0
H712 H 0.52225 0.98667 0.19087 0.0
S713 S 0.52953 0.14856 0.15067 0.0
N714 N 0.53337 0.13921 0.19797 0.0
N715 N 0.52417 0.10572 0.12902 0.0
C716 C 0.52474 0.08152 0.16055 0.0
C717 C 0.52972 0.09965 0.19792 0.0
C718 C 0.48592 0.5842 0.338 0.0
C719 C 0.49495 0.561 0.30531 0.0
C720 C 0.4941 0.57101 0.37603 0.0
C721 C 0.51242 0.53475 0.38236 0.0
H722 H 0.4695 0.61106 0.3343 0.0
H723 H 0.48332 0.58783 0.40063 0.0
S724 S 0.54581 0.4655 0.3061 0.0
N725 N 0.52579 0.50186 0.2813 0.0
N726 N 0.5421 0.4775 0.35278 0.0
C727 C 0.52425 0.51286 0.34971 0.0
C728 C 0.51539 0.52596 0.31112 0.0
C729 C 0.08775 0.4457 0.85038 0.0
C730 C 0.0568 0.4443 0.82331 0.0
C731 C 0.08216 0.46041 0.88805 0.0
C732 C 0.04539 0.47422 0.90022 0.0
H733 H 0.11697 0.43677 0.84182 0.0
H734 H 0.10734 0.46269 0.90726 0.0
S735 S 0.954 0.47391 0.84167 0.0
N736 N 0.98729 0.45508 0.81209 0.0
N737 N 0.97695 0.48358 0.88315 0.0
C738 C 0.01355 0.47082 0.87438 0.0
C739 C 0.01922 0.45557 0.83583 0.0
C740 C 0.70066 0.00564 0.95303 0.0
C741 C 0.73315 0.00751 0.97835 0.0
C742 C 0.66281 0.0141 0.96673 0.0
C743 C 0.65675 0.02445 0.00607 0.0
H744 H 0.70396 0.99385 0.92379 0.0
H745 H 0.63803 0.00815 0.9478 0.0
S746 S 0.73338 0.04315 0.08058 0.0
N747 N 0.75777 0.02788 0.04177 0.0
N748 N 0.68676 0.04363 0.06759 0.0
C749 C 0.68958 0.03149 0.02983 0.0
C750 C 0.72787 0.02292 0.01596 0.0
C751 C 0.81014 0.02792 0.49957 0.0
C752 C 0.80608 0.03581 0.45942 0.0
C753 C 0.84717 0.02371 0.51657 0.0
C754 C 0.88141 0.02708 0.494 0.0
H755 H 0.78462 0.02753 0.51841 0.0
H756 H 0.8491 0.02056 0.54807 0.0
S757 S 0.88654 0.04358 0.38702 0.0
N758 N 0.83918 0.04326 0.39688 0.0
N759 N 0.90901 0.03562 0.42911 0.0
C760 C 0.87775 0.03157 0.45334 0.0
C761 C 0.83992 0.03587 0.43594 0.0
C762 C 0.20476 0.53245 0.06896 0.0
C763 C 0.21615 0.56856 0.08502 0.0
C764 C 0.16558 0.52576 0.05802 0.0
C765 C 0.13716 0.5551 0.06288 0.0
H766 H 0.22659 0.51045 0.0624 0.0
H767 H 0.15815 0.49879 0.04313 0.0
S768 S 0.15147 0.65189 0.1093 0.0
N769 N 0.19542 0.63174 0.10968 0.0
N770 N 0.12207 0.61933 0.08896 0.0
C771 C 0.14779 0.58987 0.08184 0.0
C772 C 0.18731 0.59657 0.09301 0.0
C773 C 0.33726 0.50771 0.59465 0.0
C774 C 0.30295 0.50917 0.5718 0.0
C775 C 0.37441 0.51092 0.57724 0.0
C776 C 0.37816 0.51564 0.53653 0.0
H777 H 0.33554 0.50085 0.62556 0.0
H778 H 0.40015 0.50631 0.5952 0.0
S779 S 0.29737 0.53015 0.46554 0.0
N780 N 0.27509 0.5225 0.50775 0.0
N781 N 0.34478 0.5281 0.47502 0.0
C782 C 0.3441 0.52122 0.51419 0.0
C783 C 0.30647 0.51812 0.53185 0.0
C784 C 0.93676 0.68916 0.94664 0.0
C785 C 0.94289 0.71894 0.97424 0.0
C786 C 0.94836 0.65078 0.95431 0.0
C787 C 0.96645 0.64081 0.98987 0.0
H788 H 0.92537 0.69616 0.91786 0.0
H789 H 0.94575 0.62931 0.93114 0.0
S790 S 0.98401 0.707 0.07384 0.0
N791 N 0.96388 0.73533 0.04015 0.0
N792 N 0.98634 0.66276 0.05452 0.0
C793 C 0.96961 0.66952 0.01909 0.0
C794 C 0.9576 0.7088 0.01127 0.0
C795 C 0.51987 0.80842 0.02914 0.0
C796 C 0.48099 0.80151 0.04078 0.0
C797 C 0.5332 0.84633 0.02152 0.0
C798 C 0.5081 0.8787 0.02499 0.0
H799 H 0.54086 0.78468 0.02873 0.0
H800 H 0.56415 0.85065 0.01589 0.0
S801 S 0.40204 0.87567 0.04768 0.0
N802 N 0.41619 0.82955 0.05016 0.0
N803 N 0.44142 0.90099 0.03551 0.0
C804 C 0.46818 0.87183 0.03218 0.0
C805 C 0.45455 0.83309 0.04019 0.0
C806 C 0.08665 0.20145 0.57008 0.0
C807 C 0.08319 0.23104 0.54173 0.0
C808 C 0.06983 0.1647 0.56426 0.0
C809 C 0.04904 0.15623 0.52988 0.0
H810 H 0.10075 0.20744 0.59787 0.0
H811 H 0.07102 0.14352 0.58785 0.0
S812 S 0.0362 0.22145 0.44441 0.0
N813 N 0.06119 0.24808 0.47619 0.0
N814 N 0.02894 0.17851 0.4655 0.0
C815 C 0.04766 0.18438 0.50007 0.0
C816 C 0.06511 0.22196 0.50588 0.0
C817 C 0.53283 0.30679 0.51463 0.0
C818 C 0.57298 0.30364 0.50626 0.0
C819 C 0.51518 0.34336 0.51951 0.0
C820 C 0.537 0.37812 0.5161 0.0
H821 H 0.51451 0.2809 0.51506 0.0
H822 H 0.48371 0.34452 0.52346 0.0
S823 S 0.64379 0.38544 0.49778 0.0
N824 N 0.63477 0.33797 0.49803 0.0
N825 N 0.60139 0.40694 0.50647 0.0
C826 C 0.57772 0.37527 0.51075 0.0
C827 C 0.59578 0.3379 0.50598 0.0
loop_
_geom_bond_atom_site_label_1
_geom_bond_atom_site_label_2
_geom_bond_distance
_geom_bond_site_symmetry_2
_ccdc_geom_bond_type
C0 C1 1.391 . S
C0 C4 1.391 . S
C0 H42 0.948 . S
C1 C0 1.391 . S
C1 C2 1.391 . S
C2 C1 1.391 . S
C2 H58 0.947 . S
C2 C59 1.392 . S
C3 C4 1.391 . S
C3 C7 1.397 . S
C3 C59 1.419 . S
C4 C0 1.391 . S
C4 C3 1.391 . S
C4 C5 1.399 . S
C5 C4 1.399 . S
C5 C8 1.396 . S
C5 C17 1.453 . S
C5 C18 1.684 . S
H6 C30 0.948 . S
C7 C3 1.397 . S
C7 C8 1.394 . S
C7 C26 1.723 . S
C8 C5 1.396 . S
C8 C7 1.394 . S
C8 C38 1.723 . S
H9 C32 0.947 . S
H10 C33 0.948 . S
H11 C39 0.982 . S
H12 C40 0.979 . S
H13 C40 0.980 . S
H14 C40 0.983 . S
H15 C39 0.979 . S
H16 C39 0.977 . S
C17 C5 1.453 . S
C17 H46 0.982 . S
C17 H47 0.979 . S
C17 H48 0.977 . S
C18 C5 1.684 . S
C18 H43 0.979 . S
C18 H44 0.980 . S
C18 H45 0.983 . S
C19 C20 1.391 . S
C19 C24 1.391 . S
C19 H49 0.948 . S
C20 C19 1.391 . S
C20 C21 1.391 . S
C21 C20 1.391 . S
C21 C22 1.392 . S
C21 H50 0.947 . S
C22 C21 1.392 . S
C22 C23 1.419 . S
C22 H51 0.948 . S
C23 C22 1.419 . S
C23 C24 1.391 . S
C23 C27 1.397 . S
C24 C19 1.391 . S
C24 C23 1.391 . S
C24 C25 1.399 . S
C25 C24 1.399 . S
C25 C26 1.396 . S
C25 C28 1.453 . S
C25 C29 1.684 . S
C26 C7 1.723 . S
C26 C25 1.396 . S
C26 C27 1.394 . S
C27 C23 1.397 . S
C27 C26 1.394 . S
C27 C37 1.723 . S
C28 C25 1.453 . S
C28 H52 0.982 . S
C28 H53 0.979 . S
C28 H54 0.977 . S
C29 C25 1.684 . S
C29 H55 0.979 . S
C29 H56 0.980 . S
C29 H57 0.983 . S
C30 H6 0.948 . S
C30 C31 1.391 . S
C30 C35 1.391 . S
C31 C30 1.391 . S
C31 C32 1.391 . S
C32 H9 0.947 . S
C32 C31 1.391 . S
C32 C33 1.392 . S
C33 H10 0.948 . S
C33 C32 1.392 . S
C33 C34 1.419 . S
C34 C33 1.419 . S
C34 C35 1.391 . S
C34 C38 1.397 . S
C35 C30 1.391 . S
C35 C34 1.391 . S
C35 C36 1.399 . S
C36 C35 1.399 . S
C36 C37 1.396 . S
C36 C39 1.453 . S
C36 C40 1.684 . S
C37 C27 1.723 . S
C37 C36 1.396 . S
C37 C38 1.394 . S
C38 C8 1.723 . S
C38 C34 1.397 . S
C38 C37 1.394 . S
C39 H11 0.982 . S
C39 H15 0.979 . S
C39 H16 0.977 . S
C39 C36 1.453 . S
C40 H12 0.979 . S
C40 H13 0.980 . S
C40 H14 0.983 . S
C40 C36 1.684 . S
H41 C59 0.948 . S
H42 C0 0.948 . S
H43 C18 0.979 . S
H44 C18 0.980 . S
H45 C18 0.983 . S
H46 C17 0.982 . S
H47 C17 0.979 . S
H48 C17 0.977 . S
H49 C19 0.948 . S
H50 C21 0.947 . S
H51 C22 0.948 . S
H52 C28 0.982 . S
H53 C28 0.979 . S
H54 C28 0.977 . S
H55 C29 0.979 . S
H56 C29 0.980 . S
H57 C29 0.983 . S
H58 C2 0.947 . S
C59 C2 1.392 . S
C59 C3 1.419 . S
C59 H41 0.948 . S
C60 C61 1.391 . S
C60 C64 1.391 . S
C60 H102 0.948 . S
C61 C60 1.391 . S
C61 C62 1.391 . S
C62 C61 1.391 . S
C62 H118 0.947 . S
C62 C119 1.392 . S
C63 C64 1.391 . S
C63 C67 1.397 . S
C63 C119 1.419 . S
C64 C60 1.391 . S
C64 C63 1.391 . S
C64 C65 1.399 . S
C65 C64 1.399 . S
C65 C68 1.396 . S
C65 C77 1.453 . S
C65 C78 1.684 . S
H66 C90 0.948 . S
C67 C63 1.397 . S
C67 C68 1.394 . S
C67 C86 1.723 . S
C68 C65 1.396 . S
C68 C67 1.394 . S
C68 C98 1.723 . S
H69 C92 0.947 . S
H70 C93 0.948 . S
H71 C99 0.982 . S
H72 C100 0.979 . S
H73 C100 0.980 . S
H74 C100 0.983 . S
H75 C99 0.979 . S
H76 C99 0.977 . S
C77 C65 1.453 . S
C77 H106 0.982 . S
C77 H107 0.979 . S
C77 H108 0.977 . S
C78 C65 1.684 . S
C78 H103 0.979 . S
C78 H104 0.980 . S
C78 H105 0.983 . S
C79 C80 1.391 . S
C79 C84 1.391 . S
C79 H109 0.948 . S
C80 C79 1.391 . S
C80 C81 1.391 . S
C81 C80 1.391 . S
C81 C82 1.392 . S
C81 H110 0.947 . S
C82 C81 1.392 . S
C82 C83 1.419 . S
C82 H111 0.948 . S
C83 C82 1.419 . S
C83 C84 1.391 . S
C83 C87 1.397 . S
C84 C79 1.391 . S
C84 C83 1.391 . S
C84 C85 1.399 . S
C85 C84 1.399 . S
C85 C86 1.396 . S
C85 C88 1.453 . S
C85 C89 1.684 . S
C86 C67 1.723 . S
C86 C85 1.396 . S
C86 C87 1.394 . S
C87 C83 1.397 . S
C87 C86 1.394 . S
C87 C97 1.723 . S
C88 C85 1.453 . S
C88 H112 0.982 . S
C88 H113 0.979 . S
C88 H114 0.977 . S
C89 C85 1.684 . S
C89 H115 0.979 . S
C89 H116 0.980 . S
C89 H117 0.983 . S
C90 H66 0.948 . S
C90 C91 1.391 . S
C90 C95 1.391 . S
C91 C90 1.391 . S
C91 C92 1.391 . S
C92 H69 0.947 . S
C92 C91 1.391 . S
C92 C93 1.392 . S
C93 H70 0.948 . S
C93 C92 1.392 . S
C93 C94 1.419 . S
C94 C93 1.419 . S
C94 C95 1.391 . S
C94 C98 1.397 . S
C95 C90 1.391 . S
C95 C94 1.391 . S
C95 C96 1.399 . S
C96 C95 1.399 . S
C96 C97 1.396 . S
C96 C99 1.453 . S
C96 C100 1.684 . S
C97 C87 1.723 . S
C97 C96 1.396 . S
C97 C98 1.394 . S
C98 C68 1.723 . S
C98 C94 1.397 . S
C98 C97 1.394 . S
C99 H71 0.982 . S
C99 H75 0.979 . S
C99 H76 0.977 . S
C99 C96 1.453 . S
C100 H72 0.979 . S
C100 H73 0.980 . S
C100 H74 0.983 . S
C100 C96 1.684 . S
H101 C119 0.948 . S
H102 C60 0.948 . S
H103 C78 0.979 . S
H104 C78 0.980 . S
H105 C78 0.983 . S
H106 C77 0.982 . S
H107 C77 0.979 . S
H108 C77 0.977 . S
H109 C79 0.948 . S
H110 C81 0.947 . S
H111 C82 0.948 . S
H112 C88 0.982 . S
H113 C88 0.979 . S
H114 C88 0.977 . S
H115 C89 0.979 . S
H116 C89 0.980 . S
H117 C89 0.983 . S
H118 C62 0.947 . S
C119 C62 1.392 . S
C119 C63 1.419 . S
C119 H101 0.948 . S
C120 C121 1.391 . S
C120 C124 1.391 . S
C120 H162 0.948 . S
C121 C120 1.391 . S
C121 C122 1.391 . S
C122 C121 1.391 . S
C122 H178 0.947 . S
C122 C179 1.392 . S
C123 C124 1.391 . S
C123 C127 1.397 . S
C123 C179 1.419 . S
C124 C120 1.391 . S
C124 C123 1.391 . S
C124 C125 1.399 . S
C125 C124 1.399 . S
C125 C128 1.396 . S
C125 C137 1.453 . S
C125 C138 1.684 . S
H126 C150 0.948 . S
C127 C123 1.397 . S
C127 C128 1.394 . S
C127 C146 1.723 . S
C128 C125 1.396 . S
C128 C127 1.394 . S
C128 C158 1.723 . S
H129 C152 0.947 . S
H130 C153 0.948 . S
H131 C159 0.982 . S
H132 C160 0.979 . S
H133 C160 0.980 . S
H134 C160 0.983 . S
H135 C159 0.979 . S
H136 C159 0.977 . S
C137 C125 1.453 . S
C137 H166 0.982 . S
C137 H167 0.979 . S
C137 H168 0.977 . S
C138 C125 1.684 . S
C138 H163 0.979 . S
C138 H164 0.980 . S
C138 H165 0.983 . S
C139 C140 1.391 . S
C139 C144 1.391 . S
C139 H169 0.948 . S
C140 C139 1.391 . S
C140 C141 1.391 . S
C141 C140 1.391 . S
C141 C142 1.392 . S
C141 H170 0.947 . S
C142 C141 1.392 . S
C142 C143 1.419 . S
C142 H171 0.948 . S
C143 C142 1.419 . S
C143 C144 1.391 . S
C143 C147 1.397 . S
C144 C139 1.391 . S
C144 C143 1.391 . S
C144 C145 1.399 . S
C145 C144 1.399 . S
C145 C146 1.396 . S
C145 C148 1.453 . S
C145 C149 1.684 . S
C146 C127 1.723 . S
C146 C145 1.396 . S
C146 C147 1.394 . S
C147 C143 1.397 . S
C147 C146 1.394 . S
C147 C157 1.723 . S
C148 C145 1.453 . S
C148 H172 0.982 . S
C148 H173 0.979 . S
C148 H174 0.977 . S
C149 C145 1.684 . S
C149 H175 0.979 . S
C149 H176 0.980 . S
C149 H177 0.983 . S
C150 H126 0.948 . S
C150 C151 1.391 . S
C150 C155 1.391 . S
C151 C150 1.391 . S
C151 C152 1.391 . S
C152 H129 0.947 . S
C152 C151 1.391 . S
C152 C153 1.392 . S
C153 H130 0.948 . S
C153 C152 1.392 . S
C153 C154 1.419 . S
C154 C153 1.419 . S
C154 C155 1.391 . S
C154 C158 1.397 . S
C155 C150 1.391 . S
C155 C154 1.391 . S
C155 C156 1.399 . S
C156 C155 1.399 . S
C156 C157 1.396 . S
C156 C159 1.453 . S
C156 C160 1.684 . S
C157 C147 1.723 . S
C157 C156 1.396 . S
C157 C158 1.394 . S
C158 C128 1.723 . S
C158 C154 1.397 . S
C158 C157 1.394 . S
C159 H131 0.982 . S
C159 H135 0.979 . S
C159 H136 0.977 . S
C159 C156 1.453 . S
C160 H132 0.979 . S
C160 H133 0.980 . S
C160 H134 0.983 . S
C160 C156 1.684 . S
H161 C179 0.948 . S
H162 C120 0.948 . S
H163 C138 0.979 . S
H164 C138 0.980 . S
H165 C138 0.983 . S
H166 C137 0.982 . S
H167 C137 0.979 . S
H168 C137 0.977 . S
H169 C139 0.948 . S
H170 C141 0.947 . S
H171 C142 0.948 . S
H172 C148 0.982 . S
H173 C148 0.979 . S
H174 C148 0.977 . S
H175 C149 0.979 . S
H176 C149 0.980 . S
H177 C149 0.983 . S
H178 C122 0.947 . S
C179 C122 1.392 . S
C179 C123 1.419 . S
C179 H161 0.948 . S
C180 C181 1.391 . S
C180 C184 1.391 . S
C180 H222 0.948 . S
C181 C180 1.391 . S
C181 C182 1.391 . S
C182 C181 1.391 . S
C182 H238 0.947 . S
C182 C239 1.392 . S
C183 C184 1.391 . S
C183 C187 1.397 . S
C183 C239 1.419 . S
C184 C180 1.391 . S
C184 C183 1.391 . S
C184 C185 1.399 . S
C185 C184 1.399 . S
C185 C188 1.396 . S
C185 C197 1.453 . S
C185 C198 1.684 . S
H186 C210 0.948 . S
C187 C183 1.397 . S
C187 C188 1.394 . S
C187 C206 1.723 . S
C188 C185 1.396 . S
C188 C187 1.394 . S
C188 C218 1.723 . S
H189 C212 0.947 . S
H190 C213 0.948 . S
H191 C219 0.982 . S
H192 C220 0.979 . S
H193 C220 0.980 . S
H194 C220 0.983 . S
H195 C219 0.979 . S
H196 C219 0.977 . S
C197 C185 1.453 . S
C197 H226 0.982 . S
C197 H227 0.979 . S
C197 H228 0.977 . S
C198 C185 1.684 . S
C198 H223 0.979 . S
C198 H224 0.980 . S
C198 H225 0.983 . S
C199 C200 1.391 . S
C199 C204 1.391 . S
C199 H229 0.948 . S
C200 C199 1.391 . S
C200 C201 1.391 . S
C201 C200 1.391 . S
C201 C202 1.392 . S
C201 H230 0.947 . S
C202 C201 1.392 . S
C202 C203 1.419 . S
C202 H231 0.948 . S
C203 C202 1.419 . S
C203 C204 1.391 . S
C203 C207 1.397 . S
C204 C199 1.391 . S
C204 C203 1.391 . S
C204 C205 1.399 . S
C205 C204 1.399 . S
C205 C206 1.396 . S
C205 C208 1.453 . S
C205 C209 1.684 . S
C206 C187 1.723 . S
C206 C205 1.396 . S
C206 C207 1.394 . S
C207 C203 1.397 . S
C207 C206 1.394 . S
C207 C217 1.723 . S
C208 C205 1.453 . S
C208 H232 0.982 . S
C208 H233 0.979 . S
C208 H234 0.977 . S
C209 C205 1.684 . S
C209 H235 0.979 . S
C209 H236 0.980 . S
C209 H237 0.983 . S
C210 H186 0.948 . S
C210 C211 1.391 . S
C210 C215 1.391 . S
C211 C210 1.391 . S
C211 C212 1.391 . S
C212 H189 0.947 . S
C212 C211 1.391 . S
C212 C213 1.392 . S
C213 H190 0.948 . S
C213 C212 1.392 . S
C213 C214 1.419 . S
C214 C213 1.419 . S
C214 C215 1.391 . S
C214 C218 1.397 . S
C215 C210 1.391 . S
C215 C214 1.391 . S
C215 C216 1.399 . S
C216 C215 1.399 . S
C216 C217 1.396 . S
C216 C219 1.453 . S
C216 C220 1.684 . S
C217 C207 1.723 . S
C217 C216 1.396 . S
C217 C218 1.394 . S
C218 C188 1.723 . S
C218 C214 1.397 . S
C218 C217 1.394 . S
C219 H191 0.982 . S
C219 H195 0.979 . S
C219 H196 0.977 . S
C219 C216 1.453 . S
C220 H192 0.979 . S
C220 H193 0.980 . S
C220 H194 0.983 . S
C220 C216 1.684 . S
H221 C239 0.948 . S
H222 C180 0.948 . S
H223 C198 0.979 . S
H224 C198 0.980 . S
H225 C198 0.983 . S
H226 C197 0.982 . S
H227 C197 0.979 . S
H228 C197 0.977 . S
H229 C199 0.948 . S
H230 C201 0.947 . S
H231 C202 0.948 . S
H232 C208 0.982 . S
H233 C208 0.979 . S
H234 C208 0.977 . S
H235 C209 0.979 . S
H236 C209 0.980 . S
H237 C209 0.983 . S
H238 C182 0.947 . S
C239 C182 1.392 . S
C239 C183 1.419 . S
C239 H221 0.948 . S
C240 C241 1.391 1_654 S
C240 C244 1.391 1_554 S
C240 H282 0.948 . S
C241 C240 1.391 1_456 S
C241 C242 1.391 . S
C242 C241 1.391 . S
C242 H298 0.947 . S
C242 C299 1.392 . S
C243 C244 1.391 . S
C243 C247 1.397 . S
C243 C299 1.419 1_655 S
C244 C240 1.391 1_556 S
C244 C243 1.391 . S
C244 C245 1.406 . S
C245 C244 1.406 . S
C245 C248 1.420 . S
C245 C257 1.451 1_556 S
C245 C258 1.655 1_556 S
H246 C270 0.948 . S
C247 C243 1.397 . S
C247 C248 1.394 . S
C247 C266 1.723 . S
C248 C245 1.420 . S
C248 C247 1.394 . S
C248 C278 1.723 . S
H249 C272 0.947 . S
H250 C273 0.948 . S
H251 C279 0.961 1_565 S
H252 C280 0.979 . S
H253 C280 0.980 . S
H254 C280 0.983 . S
H255 C279 0.996 . S
H256 C279 0.982 . S
C257 C245 1.451 1_554 S
C257 H286 0.982 1_554 S
C257 H287 0.979 . S
C257 H288 0.977 . S
C258 C245 1.655 1_554 S
C258 H283 0.979 . S
C258 H284 0.980 . S
C258 H285 0.983 . S
C259 C260 1.391 1_465 S
C259 C264 1.391 1_455 S
C259 H289 0.948 . S
C260 C259 1.391 1_645 S
C260 C261 1.391 . S
C261 C260 1.391 . S
C261 C262 1.392 . S
C261 H290 0.947 . S
C262 C261 1.392 . S
C262 C263 1.419 1_545 S
C262 H291 0.948 . S
C263 C262 1.419 1_565 S
C263 C264 1.391 . S
C263 C267 1.397 . S
C264 C259 1.391 1_655 S
C264 C263 1.391 . S
C264 C265 1.399 . S
C265 C264 1.399 . S
C265 C266 1.396 . S
C265 C268 1.453 . S
C265 C269 1.684 1_655 S
C266 C247 1.723 . S
C266 C265 1.396 . S
C266 C267 1.394 . S
C267 C263 1.397 . S
C267 C266 1.394 . S
C267 C277 1.723 . S
C268 C265 1.453 . S
C268 H292 0.982 . S
C268 H293 0.979 1_655 S
C268 H294 0.977 1_655 S
C269 C265 1.684 1_455 S
C269 H295 0.979 . S
C269 H296 0.980 . S
C269 H297 0.983 . S
C270 H246 0.948 . S
C270 C271 1.391 1_546 S
C270 C275 1.391 1_545 S
C271 C270 1.391 1_564 S
C271 C272 1.391 . S
C272 H249 0.947 . S
C272 C271 1.391 . S
C272 C273 1.392 . S
C273 H250 0.948 . S
C273 C272 1.392 . S
C273 C274 1.419 1_554 S
C274 C273 1.419 1_556 S
C274 C275 1.391 . S
C274 C278 1.397 . S
C275 C270 1.391 1_565 S
C275 C274 1.391 . S
C275 C276 1.399 . S
C276 C275 1.399 . S
C276 C277 1.396 . S
C276 C279 1.452 1_565 S
C276 C280 1.684 1_565 S
C277 C267 1.723 . S
C277 C276 1.396 . S
C277 C278 1.394 . S
C278 C248 1.723 . S
C278 C274 1.397 . S
C278 C277 1.394 . S
C279 H251 0.961 1_545 S
C279 H255 0.996 . S
C279 H256 0.982 . S
C279 C276 1.452 1_545 S
C280 H252 0.979 . S
C280 H253 0.980 . S
C280 H254 0.983 . S
C280 C276 1.684 1_545 S
H281 C299 0.948 . S
H282 C240 0.948 . S
H283 C258 0.979 . S
H284 C258 0.980 . S
H285 C258 0.983 . S
H286 C257 0.982 1_556 S
H287 C257 0.979 . S
H288 C257 0.977 . S
H289 C259 0.948 . S
H290 C261 0.947 . S
H291 C262 0.948 . S
H292 C268 0.982 . S
H293 C268 0.979 1_455 S
H294 C268 0.977 1_455 S
H295 C269 0.979 . S
H296 C269 0.980 . S
H297 C269 0.983 . S
H298 C242 0.947 . S
C299 C242 1.392 . S
C299 C243 1.419 1_455 S
C299 H281 0.948 . S
C300 C301 1.391 . S
C300 C304 1.391 . S
C300 H342 0.948 . S
C301 C300 1.391 . S
C301 C302 1.391 . S
C302 C301 1.391 . S
C302 H358 0.947 . S
C302 C359 1.392 . S
C303 C304 1.391 . S
C303 C307 1.397 . S
C303 C359 1.419 . S
C304 C300 1.391 . S
C304 C303 1.391 . S
C304 C305 1.399 . S
C305 C304 1.399 . S
C305 C308 1.396 . S
C305 C317 1.453 . S
C305 C318 1.684 . S
H306 C330 0.948 . S
C307 C303 1.397 . S
C307 C308 1.394 . S
C307 C326 1.723 . S
C308 C305 1.396 . S
C308 C307 1.394 . S
C308 C338 1.723 . S
H309 C332 0.947 . S
H310 C333 0.948 . S
H311 C339 0.982 . S
H312 C340 0.979 . S
H313 C340 0.980 . S
H314 C340 0.983 . S
H315 C339 0.979 . S
H316 C339 0.977 . S
C317 C305 1.453 . S
C317 H346 0.982 . S
C317 H347 0.979 . S
C317 H348 0.977 . S
C318 C305 1.684 . S
C318 H343 0.979 . S
C318 H344 0.980 . S
C318 H345 0.983 . S
C319 C320 1.391 . S
C319 C324 1.391 . S
C319 H349 0.948 . S
C320 C319 1.391 . S
C320 C321 1.391 . S
C321 C320 1.391 . S
C321 C322 1.392 . S
C321 H350 0.947 . S
C322 C321 1.392 . S
C322 C323 1.419 . S
C322 H351 0.948 . S
C323 C322 1.419 . S
C323 C324 1.391 . S
C323 C327 1.397 . S
C324 C319 1.391 . S
C324 C323 1.391 . S
C324 C325 1.399 . S
C325 C324 1.399 . S
C325 C326 1.396 . S
C325 C328 1.453 . S
C325 C329 1.684 . S
C326 C307 1.723 . S
C326 C325 1.396 . S
C326 C327 1.394 . S
C327 C323 1.397 . S
C327 C326 1.394 . S
C327 C337 1.723 . S
C328 C325 1.453 . S
C328 H352 0.982 . S
C328 H353 0.979 1_545 S
C328 H354 0.977 . S
C329 C325 1.684 . S
C329 H355 0.979 . S
C329 H356 0.980 . S
C329 H357 0.983 . S
C330 H306 0.948 . S
C330 C331 1.391 . S
C330 C335 1.391 . S
C331 C330 1.391 . S
C331 C332 1.391 . S
C332 H309 0.947 . S
C332 C331 1.391 . S
C332 C333 1.392 . S
C333 H310 0.948 . S
C333 C332 1.392 . S
C333 C334 1.419 . S
C334 C333 1.419 . S
C334 C335 1.391 . S
C334 C338 1.397 . S
C335 C330 1.391 . S
C335 C334 1.391 . S
C335 C336 1.399 . S
C336 C335 1.399 . S
C336 C337 1.396 . S
C336 C339 1.453 . S
C336 C340 1.684 . S
C337 C327 1.723 . S
C337 C336 1.396 . S
C337 C338 1.394 . S
C338 C308 1.723 . S
C338 C334 1.397 . S
C338 C337 1.394 . S
C339 H311 0.982 . S
C339 H315 0.979 . S
C339 H316 0.977 . S
C339 C336 1.453 . S
C340 H312 0.979 . S
C340 H313 0.980 . S
C340 H314 0.983 . S
C340 C336 1.684 . S
H341 C359 0.948 . S
H342 C300 0.948 . S
H343 C318 0.979 . S
H344 C318 0.980 . S
H345 C318 0.983 . S
H346 C317 0.982 . S
H347 C317 0.979 . S
H348 C317 0.977 . S
H349 C319 0.948 . S
H350 C321 0.947 . S
H351 C322 0.948 . S
H352 C328 0.982 . S
H353 C328 0.979 1_565 S
H354 C328 0.977 . S
H355 C329 0.979 . S
H356 C329 0.980 . S
H357 C329 0.983 . S
H358 C302 0.947 . S
C359 C302 1.392 . S
C359 C303 1.419 . S
C359 H341 0.948 . S
C360 C361 1.391 . S
C360 C364 1.391 . S
C360 H402 0.948 . S
C361 C360 1.391 . S
C361 C362 1.391 . S
C362 C361 1.391 . S
C362 H418 0.947 . S
C362 C419 1.392 . S
C363 C364 1.391 . S
C363 C367 1.397 . S
C363 C419 1.419 . S
C364 C360 1.391 . S
C364 C363 1.391 . S
C364 C365 1.399 . S
C365 C364 1.399 . S
C365 C368 1.396 . S
C365 C377 1.453 . S
C365 C378 1.684 . S
H366 C390 0.948 . S
C367 C363 1.397 . S
C367 C368 1.394 . S
C367 C386 1.723 . S
C368 C365 1.396 . S
C368 C367 1.394 . S
C368 C398 1.723 . S
H369 C392 0.947 . S
H370 C393 0.948 . S
H371 C399 0.982 . S
H372 C400 0.979 . S
H373 C400 0.980 . S
H374 C400 0.983 . S
H375 C399 0.979 . S
H376 C399 0.977 . S
C377 C365 1.453 . S
C377 H406 0.982 . S
C377 H407 0.979 . S
C377 H408 0.977 . S
C378 C365 1.684 . S
C378 H403 0.979 . S
C378 H404 0.980 . S
C378 H405 0.983 . S
C379 C380 1.391 . S
C379 C384 1.391 . S
C379 H409 0.948 . S
C380 C379 1.391 . S
C380 C381 1.391 . S
C381 C380 1.391 . S
C381 C382 1.392 . S
C381 H410 0.947 1_554 S
C382 C381 1.392 . S
C382 C383 1.419 . S
C382 H411 0.948 . S
C383 C382 1.419 . S
C383 C384 1.391 . S
C383 C387 1.397 . S
C384 C379 1.391 . S
C384 C383 1.391 . S
C384 C385 1.399 . S
C385 C384 1.399 . S
C385 C386 1.396 . S
C385 C388 1.453 . S
C385 C389 1.684 . S
C386 C367 1.723 . S
C386 C385 1.396 . S
C386 C387 1.394 . S
C387 C383 1.397 . S
C387 C386 1.394 . S
C387 C397 1.723 . S
C388 C385 1.453 . S
C388 H412 0.982 . S
C388 H413 0.979 . S
C388 H414 0.977 . S
C389 C385 1.684 . S
C389 H415 0.979 . S
C389 H416 0.980 . S
C389 H417 0.983 . S
C390 H366 0.948 . S
C390 C391 1.391 . S
C390 C395 1.391 . S
C391 C390 1.391 . S
C391 C392 1.391 . S
C392 H369 0.947 . S
C392 C391 1.391 . S
C392 C393 1.392 . S
C393 H370 0.948 . S
C393 C392 1.392 . S
C393 C394 1.419 . S
C394 C393 1.419 . S
C394 C395 1.391 . S
C394 C398 1.397 . S
C395 C390 1.391 . S
C395 C394 1.391 . S
C395 C396 1.399 . S
C396 C395 1.399 . S
C396 C397 1.396 . S
C396 C399 1.453 . S
C396 C400 1.684 1_554 S
C397 C387 1.723 . S
C397 C396 1.396 . S
C397 C398 1.394 . S
C398 C368 1.723 . S
C398 C394 1.397 . S
C398 C397 1.394 . S
C399 H371 0.982 . S
C399 H375 0.979 . S
C399 H376 0.977 . S
C399 C396 1.453 . S
C400 H372 0.979 . S
C400 H373 0.980 . S
C400 H374 0.983 . S
C400 C396 1.684 1_556 S
H401 C419 0.948 . S
H402 C360 0.948 . S
H403 C378 0.979 . S
H404 C378 0.980 . S
H405 C378 0.983 . S
H406 C377 0.982 . S
H407 C377 0.979 . S
H408 C377 0.977 . S
H409 C379 0.948 . S
H410 C381 0.947 1_556 S
H411 C382 0.948 . S
H412 C388 0.982 . S
H413 C388 0.979 . S
H414 C388 0.977 . S
H415 C389 0.979 . S
H416 C389 0.980 . S
H417 C389 0.983 . S
H418 C362 0.947 . S
C419 C362 1.392 . S
C419 C363 1.419 . S
C419 H401 0.948 . S
C420 C421 1.391 . S
C420 C424 1.391 . S
C420 H462 0.948 . S
C421 C420 1.391 . S
C421 C422 1.391 . S
C422 C421 1.391 . S
C422 H478 0.947 . S
C422 C479 1.392 . S
C423 C424 1.391 . S
C423 C427 1.397 . S
C423 C479 1.419 . S
C424 C420 1.391 . S
C424 C423 1.391 . S
C424 C425 1.399 . S
C425 C424 1.399 . S
C425 C428 1.396 . S
C425 C437 1.469 . S
C425 C438 1.684 . S
H426 C450 0.948 . S
C427 C423 1.397 . S
C427 C428 1.394 . S
C427 C446 1.723 . S
C428 C425 1.396 . S
C428 C427 1.394 . S
C428 C458 1.723 . S
H429 C452 0.947 1_655 S
H430 C453 0.948 . S
H431 C459 0.982 . S
H432 C460 0.979 . S
H433 C460 0.980 . S
H434 C460 0.983 . S
H435 C459 0.979 . S
H436 C459 0.977 . S
C437 C425 1.469 . S
C437 H466 0.980 1_455 S
C437 H467 0.967 1_455 S
C437 H468 0.975 1_455 S
C438 C425 1.684 . S
C438 H463 0.979 . S
C438 H464 0.980 . S
C438 H465 0.983 . S
C439 C440 1.391 . S
C439 C444 1.391 . S
C439 H469 0.948 . S
C440 C439 1.391 . S
C440 C441 1.391 . S
C441 C440 1.391 . S
C441 C442 1.392 . S
C441 H470 0.947 . S
C442 C441 1.392 . S
C442 C443 1.419 . S
C442 H471 0.948 . S
C443 C442 1.419 . S
C443 C444 1.391 . S
C443 C447 1.397 . S
C444 C439 1.391 . S
C444 C443 1.391 . S
C444 C445 1.399 . S
C445 C444 1.399 . S
C445 C446 1.396 . S
C445 C448 1.453 . S
C445 C449 1.684 . S
C446 C427 1.723 . S
C446 C445 1.396 . S
C446 C447 1.394 . S
C447 C443 1.397 . S
C447 C446 1.394 . S
C447 C457 1.723 . S
C448 C445 1.453 . S
C448 H472 0.982 . S
C448 H473 0.979 . S
C448 H474 0.977 . S
C449 C445 1.684 . S
C449 H475 0.979 . S
C449 H476 0.980 . S
C449 H477 0.983 . S
C450 H426 0.948 . S
C450 C451 1.391 . S
C450 C455 1.391 . S
C451 C450 1.391 . S
C451 C452 1.391 . S
C452 H429 0.947 1_455 S
C452 C451 1.391 . S
C452 C453 1.392 . S
C453 H430 0.948 . S
C453 C452 1.392 . S
C453 C454 1.419 . S
C454 C453 1.419 . S
C454 C455 1.391 . S
C454 C458 1.397 . S
C455 C450 1.391 . S
C455 C454 1.391 . S
C455 C456 1.399 . S
C456 C455 1.399 . S
C456 C457 1.396 . S
C456 C459 1.453 . S
C456 C460 1.684 . S
C457 C447 1.723 . S
C457 C456 1.396 . S
C457 C458 1.394 . S
C458 C428 1.723 . S
C458 C454 1.397 . S
C458 C457 1.394 . S
C459 H431 0.982 . S
C459 H435 0.979 . S
C459 H436 0.977 . S
C459 C456 1.453 . S
C460 H432 0.979 . S
C460 H433 0.980 . S
C460 H434 0.983 . S
C460 C456 1.684 . S
H461 C479 0.948 . S
H462 C420 0.948 . S
H463 C438 0.979 . S
H464 C438 0.980 . S
H465 C438 0.983 . S
H466 C437 0.980 1_655 S
H467 C437 0.967 1_655 S
H468 C437 0.975 1_655 S
H469 C439 0.948 . S
H470 C441 0.947 . S
H471 C442 0.948 . S
H472 C448 0.982 . S
H473 C448 0.979 . S
H474 C448 0.977 . S
H475 C449 0.979 . S
H476 C449 0.980 . S
H477 C449 0.983 . S
H478 C422 0.947 . S
C479 C422 1.392 . S
C479 C423 1.419 . S
C479 H461 0.948 . S
Zn480 O486 1.920 . S
Zn480 O492 1.898 . S
Zn480 O495 1.905 . S
Zn481 O489 1.905 1_565 S
Zn481 O490 1.898 . S
Zn481 O498 1.920 . S
Zn482 O485 2.080 1_455 S
Zn482 O488 2.114 . S
Zn482 O491 2.120 1_445 S
Zn482 O493 2.120 . S
Zn482 O494 2.114 1_455 S
Zn482 O497 2.080 . S
C483 O488 1.166 . S
C483 O489 1.182 . S
C484 O490 1.167 1_655 S
C484 O491 1.299 . S
O485 Zn482 2.080 1_655 S
O485 C499 1.305 . S
O486 Zn480 1.920 . S
O486 C499 1.234 . S
C487 O492 1.167 1_455 S
C487 O493 1.299 . S
O488 Zn482 2.114 . S
O488 C483 1.166 . S
O489 Zn481 1.905 1_545 S
O489 C483 1.182 . S
O490 Zn481 1.898 . S
O490 C484 1.167 1_455 S
O491 Zn482 2.120 1_665 S
O491 C484 1.299 . S
O492 Zn480 1.898 . S
O492 C487 1.167 1_655 S
O493 Zn482 2.120 . S
O493 C487 1.299 . S
O494 Zn482 2.114 1_655 S
O494 C496 1.166 . S
O495 Zn480 1.905 . S
O495 C496 1.182 . S
C496 O494 1.166 . S
C496 O495 1.182 . S
O497 Zn482 2.080 . S
O497 C500 1.305 1_545 S
O498 Zn481 1.920 . S
O498 C500 1.234 . S
C499 O485 1.305 . S
C499 O486 1.234 . S
C500 O497 1.305 1_565 S
C500 O498 1.234 . S
Zn501 O507 1.920 1_556 S
Zn501 O513 1.898 . S
Zn501 O516 1.905 . S
Zn502 O510 1.905 . S
Zn502 O511 1.898 . S
Zn502 O519 1.920 . S
Zn503 O506 2.080 . S
Zn503 O509 2.114 1_545 S
Zn503 O512 2.120 1_545 S
Zn503 O514 2.120 . S
Zn503 O515 2.114 1_544 S
Zn503 O518 2.080 . S
C504 O509 1.166 . S
C504 O510 1.182 . S
C505 O511 1.167 . S
C505 O512 1.299 . S
O506 Zn503 2.080 . S
O506 C520 1.305 . S
O507 Zn501 1.920 1_554 S
O507 C520 1.234 . S
C508 O513 1.167 . S
C508 O514 1.299 1_556 S
O509 Zn503 2.114 1_565 S
O509 C504 1.166 . S
O510 Zn502 1.905 . S
O510 C504 1.182 . S
O511 Zn502 1.898 . S
O511 C505 1.167 . S
O512 Zn503 2.120 1_565 S
O512 C505 1.299 . S
O513 Zn501 1.898 . S
O513 C508 1.167 . S
O514 Zn503 2.120 . S
O514 C508 1.299 1_554 S
O515 Zn503 2.114 1_566 S
O515 C517 1.166 . S
O516 Zn501 1.905 . S
O516 C517 1.182 1_545 S
C517 O515 1.166 . S
C517 O516 1.182 1_565 S
O518 Zn503 2.080 . S
O518 C521 1.305 . S
O519 Zn502 1.920 . S
O519 C521 1.234 1_565 S
C520 O506 1.305 . S
C520 O507 1.234 . S
C521 O518 1.305 . S
C521 O519 1.234 1_545 S
Zn522 O528 1.920 . S
Zn522 O534 1.898 . S
Zn522 O537 1.905 . S
Zn523 O531 1.905 . S
Zn523 O532 1.898 . S
Zn523 O540 1.920 . S
Zn524 O527 2.080 . S
Zn524 O530 2.114 . S
Zn524 O533 2.120 . S
Zn524 O535 2.120 . S
Zn524 O536 2.114 . S
Zn524 O539 2.080 . S
C525 O530 1.166 . S
C525 O531 1.182 . S
C526 O532 1.167 . S
C526 O533 1.299 . S
O527 Zn524 2.080 . S
O527 C541 1.305 . S
O528 Zn522 1.920 . S
O528 C541 1.234 . S
C529 O534 1.167 . S
C529 O535 1.299 . S
O530 Zn524 2.114 . S
O530 C525 1.166 . S
O531 Zn523 1.905 . S
O531 C525 1.182 . S
O532 Zn523 1.898 . S
O532 C526 1.167 . S
O533 Zn524 2.120 . S
O533 C526 1.299 . S
O534 Zn522 1.898 . S
O534 C529 1.167 . S
O535 Zn524 2.120 . S
O535 C529 1.299 . S
O536 Zn524 2.114 . S
O536 C538 1.166 . S
O537 Zn522 1.905 . S
O537 C538 1.182 . S
C538 O536 1.166 . S
C538 O537 1.182 . S
O539 Zn524 2.080 . S
O539 C542 1.305 . S
O540 Zn523 1.920 . S
O540 C542 1.234 . S
C541 O527 1.305 . S
C541 O528 1.234 . S
C542 O539 1.305 . S
C542 O540 1.234 . S
Zn543 O549 1.920 . S
Zn543 O555 1.898 . S
Zn543 O558 1.905 . S
Zn544 O552 1.905 1_655 S
Zn544 O553 1.898 . S
Zn544 O561 1.920 . S
Zn545 O548 2.080 1_554 S
Zn545 O551 2.114 . S
Zn545 O554 2.120 1_454 S
Zn545 O556 2.120 . S
Zn545 O557 2.114 1_554 S
Zn545 O560 2.080 . S
C546 O551 1.166 . S
C546 O552 1.182 . S
C547 O553 1.167 1_556 S
C547 O554 1.299 . S
O548 Zn545 2.080 1_556 S
O548 C562 1.305 . S
O549 Zn543 1.920 . S
O549 C562 1.234 . S
C550 O555 1.167 1_554 S
C550 O556 1.299 . S
O551 Zn545 2.114 . S
O551 C546 1.166 . S
O552 Zn544 1.905 1_455 S
O552 C546 1.182 . S
O553 Zn544 1.898 . S
O553 C547 1.167 1_554 S
O554 Zn545 2.120 1_656 S
O554 C547 1.299 . S
O555 Zn543 1.898 . S
O555 C550 1.167 1_556 S
O556 Zn545 2.120 . S
O556 C550 1.299 . S
O557 Zn545 2.114 1_556 S
O557 C559 1.166 . S
O558 Zn543 1.905 . S
O558 C559 1.182 . S
C559 O557 1.166 . S
C559 O558 1.182 . S
O560 Zn545 2.080 . S
O560 C563 1.305 1_455 S
O561 Zn544 1.920 . S
O561 C563 1.234 . S
C562 O548 1.305 . S
C562 O549 1.234 . S
C563 O560 1.305 1_655 S
C563 O561 1.234 . S
C564 C565 1.369 . S
C564 C566 1.419 . S
C564 H568 0.930 . S
C565 C564 1.369 . S
C565 C574 1.429 . S
C566 C564 1.419 . S
C566 C567 1.363 . S
C566 H569 0.929 . S
C567 C566 1.363 . S
C567 C573 1.428 . S
H568 C564 0.930 . S
H569 C566 0.929 . S
S570 N571 1.613 . S
S570 N572 1.610 . S
N571 S570 1.613 . S
N571 C574 1.350 . S
N572 S570 1.610 . S
N572 C573 1.351 . S
C573 C567 1.428 . S
C573 N572 1.351 . S
C573 C574 1.434 . S
C574 C565 1.429 . S
C574 N571 1.350 . S
C574 C573 1.434 . S
C575 C576 1.369 . S
C575 C577 1.419 . S
C575 H579 0.930 . S
C576 C575 1.369 . S
C576 C585 1.429 . S
C577 C575 1.419 . S
C577 C578 1.363 . S
C577 H580 0.929 . S
C578 C577 1.363 . S
C578 C584 1.428 . S
H579 C575 0.930 . S
H580 C577 0.929 . S
S581 N582 1.613 . S
S581 N583 1.610 . S
N582 S581 1.613 . S
N582 C585 1.350 . S
N583 S581 1.610 . S
N583 C584 1.351 . S
C584 C578 1.428 . S
C584 N583 1.351 . S
C584 C585 1.434 . S
C585 C576 1.429 . S
C585 N582 1.350 . S
C585 C584 1.434 . S
C586 C587 1.369 . S
C586 C588 1.419 . S
C586 H590 0.930 . S
C587 C586 1.369 . S
C587 C596 1.429 . S
C588 C586 1.419 . S
C588 C589 1.363 . S
C588 H591 0.929 . S
C589 C588 1.363 . S
C589 C595 1.428 . S
H590 C586 0.930 . S
H591 C588 0.929 . S
S592 N593 1.613 . S
S592 N594 1.610 . S
N593 S592 1.613 . S
N593 C596 1.350 . S
N594 S592 1.610 . S
N594 C595 1.351 . S
C595 C589 1.428 . S
C595 N594 1.351 . S
C595 C596 1.434 . S
C596 C587 1.429 . S
C596 N593 1.350 . S
C596 C595 1.434 . S
C597 C598 1.369 . S
C597 C599 1.419 . S
C597 H601 0.930 . S
C598 C597 1.369 . S
C598 C607 1.429 . S
C599 C597 1.419 . S
C599 C600 1.363 . S
C599 H602 0.929 1_655 S
C600 C599 1.363 . S
C600 C606 1.428 . S
H601 C597 0.930 . S
H602 C599 0.929 1_455 S
S603 N604 1.613 . S
S603 N605 1.610 . S
N604 S603 1.613 . S
N604 C607 1.350 . S
N605 S603 1.610 . S
N605 C606 1.351 . S
C606 C600 1.428 . S
C606 N605 1.351 . S
C606 C607 1.434 . S
C607 C598 1.429 . S
C607 N604 1.350 . S
C607 C606 1.434 . S
C608 C609 1.369 . S
C608 C610 1.419 . S
C608 H612 0.930 . S
C609 C608 1.369 . S
C609 C618 1.429 . S
C610 C608 1.419 . S
C610 C611 1.363 . S
C610 H613 0.929 . S
C611 C610 1.363 . S
C611 C617 1.428 . S
H612 C608 0.930 . S
H613 C610 0.929 . S
S614 N615 1.613 . S
S614 N616 1.610 . S
N615 S614 1.613 . S
N615 C618 1.350 . S
N616 S614 1.610 . S
N616 C617 1.351 . S
C617 C611 1.428 . S
C617 N616 1.351 . S
C617 C618 1.434 . S
C618 C609 1.429 . S
C618 N615 1.350 . S
C618 C617 1.434 . S
C619 C620 1.369 . S
C619 C621 1.419 . S
C619 H623 0.930 . S
C620 C619 1.369 . S
C620 C629 1.429 . S
C621 C619 1.419 . S
C621 C622 1.363 . S
C621 H624 0.929 . S
C622 C621 1.363 . S
C622 C628 1.428 . S
H623 C619 0.930 . S
H624 C621 0.929 . S
S625 N626 1.613 . S
S625 N627 1.610 . S
N626 S625 1.613 . S
N626 C629 1.350 . S
N627 S625 1.610 . S
N627 C628 1.351 . S
C628 C622 1.428 . S
C628 N627 1.351 . S
C628 C629 1.434 . S
C629 C620 1.429 . S
C629 N626 1.350 . S
C629 C628 1.434 . S
C630 C631 1.369 . S
C630 C632 1.419 . S
C630 H634 0.930 . S
C631 C630 1.369 . S
C631 C640 1.429 . S
C632 C630 1.419 . S
C632 C633 1.363 . S
C632 H635 0.929 . S
C633 C632 1.363 . S
C633 C639 1.428 . S
H634 C630 0.930 . S
H635 C632 0.929 . S
S636 N637 1.613 . S
S636 N638 1.610 . S
N637 S636 1.613 . S
N637 C640 1.350 . S
N638 S636 1.610 . S
N638 C639 1.351 . S
C639 C633 1.428 . S
C639 N638 1.351 . S
C639 C640 1.434 . S
C640 C631 1.429 . S
C640 N637 1.350 . S
C640 C639 1.434 . S
C641 C642 1.369 . S
C641 C643 1.419 . S
C641 H645 0.930 . S
C642 C641 1.369 . S
C642 C651 1.429 . S
C643 C641 1.419 . S
C643 C644 1.363 . S
C643 H646 0.929 . S
C644 C643 1.363 . S
C644 C650 1.428 . S
H645 C641 0.930 . S
H646 C643 0.929 . S
S647 N648 1.613 . S
S647 N649 1.610 . S
N648 S647 1.613 . S
N648 C651 1.350 . S
N649 S647 1.610 . S
N649 C650 1.351 . S
C650 C644 1.428 . S
C650 N649 1.351 . S
C650 C651 1.434 . S
C651 C642 1.429 . S
C651 N648 1.350 . S
C651 C650 1.434 . S
C652 C653 1.369 . S
C652 C654 1.419 . S
C652 H656 0.930 . S
C653 C652 1.369 . S
C653 C662 1.429 . S
C654 C652 1.419 . S
C654 C655 1.363 . S
C654 H657 0.929 . S
C655 C654 1.363 . S
C655 C661 1.428 . S
H656 C652 0.930 . S
H657 C654 0.929 . S
S658 N659 1.613 . S
S658 N660 1.610 . S
N659 S658 1.613 . S
N659 C662 1.350 . S
N660 S658 1.610 . S
N660 C661 1.351 . S
C661 C655 1.428 . S
C661 N660 1.351 . S
C661 C662 1.434 . S
C662 C653 1.429 . S
C662 N659 1.350 . S
C662 C661 1.434 . S
C663 C664 1.369 . S
C663 C665 1.419 . S
C663 H667 0.930 . S
C664 C663 1.369 . S
C664 C673 1.429 . S
C665 C663 1.419 . S
C665 C666 1.363 . S
C665 H668 0.929 1_556 S
C666 C665 1.363 . S
C666 C672 1.428 . S
H667 C663 0.930 . S
H668 C665 0.929 1_554 S
S669 N670 1.613 . S
S669 N671 1.610 . S
N670 S669 1.613 . S
N670 C673 1.350 . S
N671 S669 1.610 . S
N671 C672 1.351 . S
C672 C666 1.428 . S
C672 N671 1.351 . S
C672 C673 1.434 . S
C673 C664 1.429 . S
C673 N670 1.350 . S
C673 C672 1.434 . S
C674 C675 1.369 . S
C674 C676 1.419 . S
C674 H678 0.930 . S
C675 C674 1.369 . S
C675 C684 1.429 . S
C676 C674 1.419 . S
C676 C677 1.363 . S
C676 H679 0.929 . S
C677 C676 1.363 . S
C677 C683 1.428 . S
H678 C674 0.930 . S
H679 C676 0.929 . S
S680 N681 1.613 . S
S680 N682 1.610 . S
N681 S680 1.613 . S
N681 C684 1.350 . S
N682 S680 1.610 . S
N682 C683 1.351 . S
C683 C677 1.428 . S
C683 N682 1.351 . S
C683 C684 1.434 . S
C684 C675 1.429 . S
C684 N681 1.350 . S
C684 C683 1.434 . S
C685 C686 1.369 . S
C685 C687 1.419 . S
C685 H689 0.930 . S
C686 C685 1.369 . S
C686 C695 1.429 . S
C687 C685 1.419 . S
C687 C688 1.363 . S
C687 H690 0.929 . S
C688 C687 1.363 . S
C688 C694 1.428 . S
H689 C685 0.930 . S
H690 C687 0.929 . S
S691 N692 1.613 . S
S691 N693 1.610 . S
N692 S691 1.613 . S
N692 C695 1.350 . S
N693 S691 1.610 . S
N693 C694 1.351 . S
C694 C688 1.428 . S
C694 N693 1.351 . S
C694 C695 1.434 . S
C695 C686 1.429 . S
C695 N692 1.350 . S
C695 C694 1.434 . S
C696 C697 1.369 . S
C696 C698 1.419 . S
C696 H700 0.930 . S
C697 C696 1.369 . S
C697 C706 1.429 1_645 S
C698 C696 1.419 . S
C698 C699 1.363 . S
C698 H701 0.929 . S
C699 C698 1.363 . S
C699 C705 1.428 1_645 S
H700 C696 0.930 . S
H701 C698 0.929 . S
S702 N703 1.613 . S
S702 N704 1.610 . S
N703 S702 1.613 . S
N703 C706 1.350 . S
N704 S702 1.610 . S
N704 C705 1.351 . S
C705 C699 1.428 1_465 S
C705 N704 1.351 . S
C705 C706 1.434 . S
C706 C697 1.429 1_465 S
C706 N703 1.350 . S
C706 C705 1.434 . S
C707 C708 1.369 1_565 S
C707 C709 1.419 . S
C707 H711 0.930 . S
C708 C707 1.369 1_545 S
C708 C717 1.429 . S
C709 C707 1.419 . S
C709 C710 1.363 1_565 S
C709 H712 0.929 . S
C710 C709 1.363 1_545 S
C710 C716 1.428 . S
H711 C707 0.930 . S
H712 C709 0.929 . S
S713 N714 1.613 . S
S713 N715 1.610 . S
N714 S713 1.613 . S
N714 C717 1.350 . S
N715 S713 1.610 . S
N715 C716 1.351 . S
C716 C710 1.428 . S
C716 N715 1.351 . S
C716 C717 1.434 . S
C717 C708 1.429 . S
C717 N714 1.350 . S
C717 C716 1.434 . S
C718 C719 1.369 . S
C718 C720 1.419 . S
C718 H722 0.930 . S
C719 C718 1.369 . S
C719 C728 1.429 . S
C720 C718 1.419 . S
C720 C721 1.363 . S
C720 H723 0.929 . S
C721 C720 1.363 . S
C721 C727 1.428 . S
H722 C718 0.930 . S
H723 C720 0.929 . S
S724 N725 1.613 . S
S724 N726 1.610 . S
N725 S724 1.613 . S
N725 C728 1.350 . S
N726 S724 1.610 . S
N726 C727 1.351 . S
C727 C721 1.428 . S
C727 N726 1.351 . S
C727 C728 1.434 . S
C728 C719 1.429 . S
C728 N725 1.350 . S
C728 C727 1.434 . S
C729 C730 1.369 . S
C729 C731 1.419 . S
C729 H733 0.930 . S
C730 C729 1.369 . S
C730 C739 1.429 . S
C731 C729 1.419 . S
C731 C732 1.363 . S
C731 H734 0.929 . S
C732 C731 1.363 . S
C732 C738 1.428 . S
H733 C729 0.930 . S
H734 C731 0.929 . S
S735 N736 1.613 . S
S735 N737 1.610 . S
N736 S735 1.613 . S
N736 C739 1.350 1_655 S
N737 S735 1.610 . S
N737 C738 1.351 1_655 S
C738 C732 1.428 . S
C738 N737 1.351 1_455 S
C738 C739 1.434 . S
C739 C730 1.429 . S
C739 N736 1.350 1_455 S
C739 C738 1.434 . S
C740 C741 1.369 . S
C740 C742 1.419 . S
C740 H744 0.930 . S
C741 C740 1.369 . S
C741 C750 1.429 1_564 S
C742 C740 1.419 . S
C742 C743 1.363 . S
C742 H745 0.929 . S
C743 C742 1.363 . S
C743 C749 1.428 1_564 S
H744 C740 0.930 . S
H745 C742 0.929 . S
S746 N747 1.613 . S
S746 N748 1.610 . S
N747 S746 1.613 . S
N747 C750 1.350 . S
N748 S746 1.610 . S
N748 C749 1.351 . S
C749 C743 1.428 1_546 S
C749 N748 1.351 . S
C749 C750 1.434 . S
C750 C741 1.429 1_546 S
C750 N747 1.350 . S
C750 C749 1.434 . S
C751 C752 1.369 . S
C751 C753 1.419 . S
C751 H755 0.930 . S
C752 C751 1.369 . S
C752 C761 1.429 . S
C753 C751 1.419 . S
C753 C754 1.363 . S
C753 H756 0.929 . S
C754 C753 1.363 . S
C754 C760 1.428 . S
H755 C751 0.930 . S
H756 C753 0.929 . S
S757 N758 1.613 . S
S757 N759 1.610 . S
N758 S757 1.613 . S
N758 C761 1.350 . S
N759 S757 1.610 . S
N759 C760 1.351 . S
C760 C754 1.428 . S
C760 N759 1.351 . S
C760 C761 1.434 . S
C761 C752 1.429 . S
C761 N758 1.350 . S
C761 C760 1.434 . S
C762 C763 1.369 1_556 S
C762 C764 1.419 . S
C762 H766 0.930 . S
C763 C762 1.369 1_554 S
C763 C772 1.429 . S
C764 C762 1.419 . S
C764 C765 1.363 1_556 S
C764 H767 0.929 . S
C765 C764 1.363 1_554 S
C765 C771 1.428 . S
H766 C762 0.930 . S
H767 C764 0.929 . S
S768 N769 1.613 . S
S768 N770 1.610 . S
N769 S768 1.613 . S
N769 C772 1.350 . S
N770 S768 1.610 . S
N770 C771 1.351 . S
C771 C765 1.428 . S
C771 N770 1.351 . S
C771 C772 1.434 . S
C772 C763 1.429 . S
C772 N769 1.350 . S
C772 C771 1.434 . S
C773 C774 1.369 . S
C773 C775 1.419 . S
C773 H777 0.930 . S
C774 C773 1.369 . S
C774 C783 1.429 . S
C775 C773 1.419 . S
C775 C776 1.363 . S
C775 H778 0.929 . S
C776 C775 1.363 . S
C776 C782 1.428 . S
H777 C773 0.930 . S
H778 C775 0.929 . S
S779 N780 1.613 . S
S779 N781 1.610 . S
N780 S779 1.613 . S
N780 C783 1.350 . S
N781 S779 1.610 . S
N781 C782 1.351 . S
C782 C776 1.428 . S
C782 N781 1.351 . S
C782 C783 1.434 . S
C783 C774 1.429 . S
C783 N780 1.350 . S
C783 C782 1.434 . S
C784 C785 1.389 . S
C784 C786 1.419 . S
C784 H788 0.930 . S
C785 C784 1.389 . S
C785 C794 1.411 1_456 S
C786 C784 1.419 . S
C786 C787 1.363 . S
C786 H789 0.929 . S
C787 C786 1.363 . S
C787 C793 1.428 1_456 S
H788 C784 0.930 . S
H789 C786 0.929 . S
S790 N791 1.613 . S
S790 N792 1.610 . S
N791 S790 1.613 . S
N791 C794 1.350 . S
N792 S790 1.610 . S
N792 C793 1.351 . S
C793 C787 1.428 1_654 S
C793 N792 1.351 . S
C793 C794 1.434 . S
C794 C785 1.411 1_654 S
C794 N791 1.350 . S
C794 C793 1.434 . S
C795 C796 1.369 . S
C795 C797 1.419 . S
C795 H799 0.930 . S
C796 C795 1.369 . S
C796 C805 1.429 . S
C797 C795 1.419 . S
C797 C798 1.363 . S
C797 H800 0.929 . S
C798 C797 1.363 . S
C798 C804 1.428 . S
H799 C795 0.930 . S
H800 C797 0.929 . S
S801 N802 1.613 1_556 S
S801 N803 1.610 1_556 S
N802 S801 1.613 1_554 S
N802 C805 1.350 . S
N803 S801 1.610 1_554 S
N803 C804 1.351 . S
C804 C798 1.428 . S
C804 N803 1.351 . S
C804 C805 1.434 . S
C805 C796 1.429 . S
C805 N802 1.350 . S
C805 C804 1.434 . S
C806 C807 1.369 . S
C806 C808 1.419 . S
C806 H810 0.930 1_455 S
C807 C806 1.369 . S
C807 C816 1.429 . S
C808 C806 1.419 . S
C808 C809 1.363 . S
C808 H811 0.929 1_455 S
C809 C808 1.363 . S
C809 C815 1.428 . S
H810 C806 0.930 1_655 S
H811 C808 0.929 1_655 S
S812 N813 1.613 . S
S812 N814 1.610 . S
N813 S812 1.613 . S
N813 C816 1.350 . S
N814 S812 1.610 . S
N814 C815 1.351 . S
C815 C809 1.428 . S
C815 N814 1.351 . S
C815 C816 1.434 . S
C816 C807 1.429 . S
C816 N813 1.350 . S
C816 C815 1.434 . S
C817 C818 1.369 . S
C817 C819 1.419 . S
C817 H821 0.930 . S
C818 C817 1.369 . S
C818 C827 1.429 . S
C819 C817 1.419 . S
C819 C820 1.363 . S
C819 H822 0.929 . S
C820 C819 1.363 . S
C820 C826 1.428 . S
H821 C817 0.930 . S
H822 C819 0.929 . S
S823 N824 1.613 . S
S823 N825 1.610 . S
N824 S823 1.613 . S
N824 C827 1.350 . S
N825 S823 1.610 . S
N825 C826 1.351 . S
C826 C820 1.428 . S
C826 N825 1.351 . S
C826 C827 1.434 . S
C827 C818 1.429 . S
C827 N824 1.350 . S
C827 C826 1.434 . S
C565 C1 1.517 . S
C567 C483 1.434 . S
C576 C80 1.498 . S
C578 C517 1.414 . S
C589 C529 1.404 . S
C587 C140 1.476 . S
C598 C211 1.498 . S
C600 C563 1.410 . S
C611 C520 1.425 . S
C609 C31 1.506 . S
C622 C500 1.415 . S
C620 C61 1.492 . S
C633 C547 1.397 . S
C631 C151 1.466 . S
C644 C538 1.420 . S
C642 C200 1.502 . S
C653 C20 1.511 . S
C655 C546 1.429 . S
C666 C508 1.404 . S
C664 C121 1.476 . S
C675 C181 1.494 . S
C677 C484 1.409 . S
C686 C91 1.493 . S
C688 C541 1.417 . S
C699 C499 1.671 . S
C697 C260 1.763 . S
C708 C320 1.650 . S
C710 C521 1.668 . S
C719 C361 1.782 . S
C721 C526 1.684 . S
C730 C451 1.687 . S
C732 C559 1.706 . S
C741 C271 1.777 . S
C743 C504 1.690 . S
C754 C496 1.687 . S
C752 C301 1.675 . S
C765 C550 1.696 . S
C763 C380 1.787 . S
C776 C542 1.671 . S
C774 C440 1.669 . S
C785 C241 1.760 . S
C787 C562 1.666 . S
C798 C505 1.696 . S
C796 C391 1.788 . S
C809 C487 1.666 . S
C807 C421 1.659 . S
C818 C331 1.668 . S
C820 C525 1.688 . S
