# Generated by pormake.
# Topology sqc, (4,8)-cn, num edge types: 1
# Building blocks:
#     Node 0, Type 0, BuildingBlock: AZAVOO_clean_linker_0, # of connection points: 4
#     Node 1, Type 0, BuildingBlock: AZAVOO_clean_linker_0, # of connection points: 4
#     Node 2, Type 0, BuildingBlock: AZAVOO_clean_linker_0, # of connection points: 4
#     Node 3, Type 0, BuildingBlock: AZAVOO_clean_linker_0, # of connection points: 4
#     Node 4, Type 0, BuildingBlock: AZAVOO_clean_linker_0, # of connection points: 4
#     Node 5, Type 0, BuildingBlock: AZAVOO_clean_linker_0, # of connection points: 4
#     Node 6, Type 0, BuildingBlock: AZAVOO_clean_linker_0, # of connection points: 4
#     Node 7, Type 0, BuildingBlock: AZAVOO_clean_linker_0, # of connection points: 4
#     Node 8, Type 1, BuildingBlock: TAGTUT_clean_sbu_3, # of connection points: 8
#     Node 9, Type 1, BuildingBlock: TAGTUT_clean_sbu_3, # of connection points: 8
#     Node 10, Type 1, BuildingBlock: TAGTUT_clean_sbu_3, # of connection points: 8
#     Node 11, Type 1, BuildingBlock: TAGTUT_clean_sbu_3, # of connection points: 8
#     Edge 12, Type (0, 1), BuildingBlock: CIFDUS_clean_linker_0, # of connection points: 2
#     Edge 13, Type (0, 1), BuildingBlock: CIFDUS_clean_linker_0, # of connection points: 2
#     Edge 14, Type (0, 1), BuildingBlock: CIFDUS_clean_linker_0, # of connection points: 2
#     Edge 15, Type (0, 1), BuildingBlock: CIFDUS_clean_linker_0, # of connection points: 2
#     Edge 16, Type (0, 1), BuildingBlock: CIFDUS_clean_linker_0, # of connection points: 2
#     Edge 17, Type (0, 1), BuildingBlock: CIFDUS_clean_linker_0, # of connection points: 2
#     Edge 18, Type (0, 1), BuildingBlock: CIFDUS_clean_linker_0, # of connection points: 2
#     Edge 19, Type (0, 1), BuildingBlock: CIFDUS_clean_linker_0, # of connection points: 2
#     Edge 20, Type (0, 1), BuildingBlock: CIFDUS_clean_linker_0, # of connection points: 2
#     Edge 21, Type (0, 1), BuildingBlock: CIFDUS_clean_linker_0, # of connection points: 2
#     Edge 22, Type (0, 1), BuildingBlock: CIFDUS_clean_linker_0, # of connection points: 2
#     Edge 23, Type (0, 1), BuildingBlock: CIFDUS_clean_linker_0, # of connection points: 2
#     Edge 24, Type (0, 1), BuildingBlock: CIFDUS_clean_linker_0, # of connection points: 2
#     Edge 25, Type (0, 1), BuildingBlock: CIFDUS_clean_linker_0, # of connection points: 2
#     Edge 26, Type (0, 1), BuildingBlock: CIFDUS_clean_linker_0, # of connection points: 2
#     Edge 27, Type (0, 1), BuildingBlock: CIFDUS_clean_linker_0, # of connection points: 2
#     Edge 28, Type (0, 1), BuildingBlock: CIFDUS_clean_linker_0, # of connection points: 2
#     Edge 29, Type (0, 1), BuildingBlock: CIFDUS_clean_linker_0, # of connection points: 2
#     Edge 30, Type (0, 1), BuildingBlock: CIFDUS_clean_linker_0, # of connection points: 2
#     Edge 31, Type (0, 1), BuildingBlock: CIFDUS_clean_linker_0, # of connection points: 2
#     Edge 32, Type (0, 1), BuildingBlock: CIFDUS_clean_linker_0, # of connection points: 2
#     Edge 33, Type (0, 1), BuildingBlock: CIFDUS_clean_linker_0, # of connection points: 2
#     Edge 34, Type (0, 1), BuildingBlock: CIFDUS_clean_linker_0, # of connection points: 2
#     Edge 35, Type (0, 1), BuildingBlock: CIFDUS_clean_linker_0, # of connection points: 2
#     Edge 36, Type (0, 1), BuildingBlock: CIFDUS_clean_linker_0, # of connection points: 2
#     Edge 37, Type (0, 1), BuildingBlock: CIFDUS_clean_linker_0, # of connection points: 2
#     Edge 38, Type (0, 1), BuildingBlock: CIFDUS_clean_linker_0, # of connection points: 2
#     Edge 39, Type (0, 1), BuildingBlock: CIFDUS_clean_linker_0, # of connection points: 2
#     Edge 40, Type (0, 1), BuildingBlock: CIFDUS_clean_linker_0, # of connection points: 2
#     Edge 41, Type (0, 1), BuildingBlock: CIFDUS_clean_linker_0, # of connection points: 2
#     Edge 42, Type (0, 1), BuildingBlock: CIFDUS_clean_linker_0, # of connection points: 2
#     Edge 43, Type (0, 1), BuildingBlock: CIFDUS_clean_linker_0, # of connection points: 2
# Relax obj value: 0.176
# Max RMSD: 0.272
# Mean RMSD: 0.229
data_MOF--net-sqc--node1-TAGTUT_clean_sbu_3--node2-AZAVOO_clean_linker_0--edge1-CIFDUS_clean_linker_0
_symmetry_space_group_name_H-M    P1
_symmetry_Int_Tables_number       1
_symmetry_cell_setting            triclinic
loop_
_symmetry_equiv_pos_as_xyz
'x, y, z'
_cell_length_a     23.611164
_cell_length_b     23.619195
_cell_length_c     82.71661
_cell_angle_alpha  91.838884
_cell_angle_beta   90.008808
_cell_angle_gamma 90.548889
loop_
_atom_site_label
_atom_site_type_symbol
_atom_site_fract_x
_atom_site_fract_y
_atom_site_fract_z
_atom_type_partial_charge
H0 H 0.05173 0.13416 0.62413 0.0
H1 H 0.71594 0.72687 0.50706 0.0
H2 H 0.09013 0.07527 0.52825 0.0
H3 H 0.16687 0.13705 0.53853 0.0
H4 H 0.24602 0.99307 0.55983 0.0
H5 H 0.16899 0.93159 0.54946 0.0
H6 H 0.00035 0.06735 0.55697 0.0
H7 H 0.01476 0.11046 0.58399 0.0
H8 H 0.09504 0.957 0.5991 0.0
H9 H 0.08003 0.91441 0.57202 0.0
H10 H 0.89354 0.01228 0.5384 0.0
H11 H 0.82151 0.04145 0.55767 0.0
H12 H 0.88057 0.91703 0.59084 0.0
H13 H 0.95305 0.88715 0.57103 0.0
H14 H 0.87408 0.96248 0.51183 0.0
H15 H 0.78543 0.91469 0.50405 0.0
H16 H 0.84641 0.75986 0.52415 0.0
H17 H 0.93472 0.80839 0.53203 0.0
H18 H 0.98188 0.00918 0.49539 0.0
H19 H 0.92206 0.00473 0.47128 0.0
H20 H 0.9213 0.82232 0.4722 0.0
H21 H 0.98421 0.82667 0.49595 0.0
H22 H 0.08138 0.01634 0.49365 0.0
H23 H 0.15472 0.00716 0.47278 0.0
H24 H 0.22498 0.86503 0.49713 0.0
H25 H 0.14911 0.87181 0.51741 0.0
O26 O 0.0466 0.11638 0.61352 0.0
O27 O 0.08801 0.03676 0.62064 0.0
O28 O 0.71945 0.82854 0.5009 0.0
O29 O 0.74965 0.74742 0.51058 0.0
C30 C 0.07247 0.96509 0.53444 0.0
C31 C 0.0297 0.96175 0.54629 0.0
C32 C 0.97646 0.93762 0.54225 0.0
C33 C 0.96613 0.91649 0.52642 0.0
C34 C 0.00764 0.92294 0.5143 0.0
C35 C 0.06179 0.94485 0.5185 0.0
C36 C 0.12422 -0.00091 0.53812 0.0
C37 C 0.12487 0.05692 0.53478 0.0
C38 C 0.16843 0.09213 0.54073 0.0
C39 C 0.21227 0.06993 0.55003 0.0
C40 C 0.21314 0.01126 0.55255 0.0
C41 C 0.16923 0.97611 0.54669 0.0
C42 C 0.03914 0.98787 0.56262 0.0
C43 C 0.02103 0.04322 0.56616 0.0
C44 C 0.02933 0.06768 0.58159 0.0
C45 C 0.05604 0.03716 0.59372 0.0
C46 C 0.07432 0.98166 0.59005 0.0
C47 C 0.06588 0.95724 0.57461 0.0
C48 C 0.92797 0.94722 0.55326 0.0
C49 C 0.88954 0.98964 0.54954 0.0
C50 C 0.84822 0.00617 0.56058 0.0
C51 C 0.84502 0.9812 0.57574 0.0
C52 C 0.88206 0.93683 0.57922 0.0
C53 C 0.92332 0.91978 0.56798 0.0
C54 C 0.91084 0.88881 0.52246 0.0
C55 C 0.86807 0.91837 0.51464 0.0
C56 C 0.81757 0.89089 0.51015 0.0
C57 C 0.80915 0.8332 0.51327 0.0
C58 C 0.8517 0.80414 0.52143 0.0
C59 C 0.90208 0.83178 0.526 0.0
C60 C 0.98896 0.91825 0.49719 0.0
C61 C 0.97215 0.96814 0.4898 0.0
C62 C 0.93702 0.96568 0.47624 0.0
C63 C 0.91716 0.91332 0.47011 0.0
C64 C 0.93653 0.86314 0.47681 0.0
C65 C 0.97289 0.86555 0.49019 0.0
C66 C 0.10854 0.94326 0.50662 0.0
C67 C 0.11184 0.98262 0.49433 0.0
C68 C 0.15421 0.97801 0.48263 0.0
C69 C 0.1949 0.93527 0.48343 0.0
C70 C 0.19389 0.89828 0.49634 0.0
C71 C 0.15056 0.90193 0.5078 0.0
C72 C 0.06463 0.0632 0.61011 0.0
C73 C 0.7566 0.80317 0.50789 0.0
H74 H 0.5288 0.62658 0.67912 0.0
H75 H 0.27069 0.09211 0.79882 0.0
H76 H 0.31496 0.60226 0.76034 0.0
H77 H 0.33578 0.51536 0.74481 0.0
H78 H 0.51404 0.53976 0.75493 0.0
H79 H 0.49245 0.62698 0.77044 0.0
H80 H 0.36781 0.65855 0.73229 0.0
H81 H 0.42211 0.63653 0.70775 0.0
H82 H 0.5632 0.73505 0.72715 0.0
H83 H 0.50908 0.75516 0.75188 0.0
H84 H 0.32419 0.76814 0.733 0.0
H85 H 0.32261 0.8357 0.71107 0.0
H86 H 0.43857 0.94519 0.73799 0.0
H87 H 0.44234 0.87623 0.75955 0.0
H88 H 0.25193 0.83101 0.76574 0.0
H89 H 0.20997 0.92422 0.77105 0.0
H90 H 0.36256 0.979 0.79616 0.0
H91 H 0.40385 0.8856 0.79078 0.0
H92 H 0.23275 0.75028 0.79304 0.0
H93 H 0.18157 0.81769 0.81056 0.0
H94 H 0.33968 0.87219 0.83251 0.0
H95 H 0.39048 0.80459 0.81493 0.0
H96 H 0.27119 0.63141 0.7893 0.0
H97 H 0.25753 0.55831 0.80934 0.0
H98 H 0.42433 0.59513 0.82871 0.0
H99 H 0.43774 0.66805 0.80848 0.0
O100 O 0.50779 0.63631 0.68884 0.0
O101 O 0.57754 0.69074 0.6989 0.0
O102 O 0.2088 0.0248 0.78345 0.0
O103 O 0.28678 0.05546 0.79617 0.0
C104 C 0.3911 0.68147 0.77053 0.0
C105 C 0.40186 0.72241 0.7588 0.0
C106 C 0.38164 0.77789 0.76121 0.0
C107 C 0.3542 0.79379 0.77572 0.0
C108 C 0.34605 0.75381 0.78787 0.0
C109 C 0.36406 0.69744 0.78519 0.0
C110 C 0.40239 0.6212 0.7663 0.0
C111 C 0.35829 0.58765 0.75973 0.0
C112 C 0.37039 0.53847 0.75064 0.0
C113 C 0.42684 0.52206 0.748 0.0
C114 C 0.47027 0.55198 0.75634 0.0
C115 C 0.45812 0.60157 0.76533 0.0
C116 C 0.43476 0.70792 0.74393 0.0
C117 C 0.41069 0.67472 0.73131 0.0
C118 C 0.44161 0.66271 0.71723 0.0
C119 C 0.49681 0.6845 0.71543 0.0
C120 C 0.52054 0.71825 0.72807 0.0
C121 C 0.48986 0.72953 0.74222 0.0
C122 C 0.38337 0.81754 0.7478 0.0
C123 C 0.34993 0.8063 0.73402 0.0
C124 C 0.34875 0.84475 0.72163 0.0
C125 C 0.37992 0.89535 0.72311 0.0
C126 C 0.41368 0.90649 0.73683 0.0
C127 C 0.41589 0.86739 0.74905 0.0
C128 C 0.33078 0.85172 0.77791 0.0
C129 C 0.27633 0.86344 0.77225 0.0
C130 C 0.25245 0.91659 0.77535 0.0
C131 C 0.28285 0.959 0.7841 0.0
C132 C 0.33797 0.94732 0.78942 0.0
C133 C 0.36172 0.89412 0.78634 0.0
C134 C 0.31535 0.77242 0.80273 0.0
C135 C 0.25598 0.77446 0.80226 0.0
C136 C 0.22688 0.81365 0.81212 0.0
C137 C 0.25686 0.8513 0.82257 0.0
C138 C 0.31565 0.84455 0.8243 0.0
C139 C 0.34462 0.80507 0.81453 0.0
C140 C 0.35515 0.65502 0.79762 0.0
C141 C 0.30471 0.62351 0.79786 0.0
C142 C 0.29734 0.58145 0.80915 0.0
C143 C 0.3402 0.57075 0.82043 0.0
C144 C 0.39078 0.60253 0.82012 0.0
C145 C 0.39833 0.6442 0.80869 0.0
C146 C 0.52992 0.67096 0.70058 0.0
C147 C 0.25709 0.01499 0.78783 0.0
H148 H 0.50049 0.90855 0.11064 0.0
H149 H 0.96974 0.28335 0.02309 0.0
H150 H 0.51658 0.0143 0.02502 0.0
H151 H 0.43846 0.97244 0.04 0.0
H152 H 0.41817 0.13116 0.06692 0.0
H153 H 0.49316 0.173 0.05112 0.0
H154 H 0.60436 0.98832 0.05127 0.0
H155 H 0.56545 0.93905 0.07443 0.0
H156 H 0.53264 0.10055 0.09857 0.0
H157 H 0.57185 0.14921 0.07531 0.0
H158 H 0.73757 0.02585 0.03944 0.0
H159 H 0.7939 0.97708 0.05921 0.0
H160 H 0.74139 0.09883 0.09632 0.0
H161 H 0.68827 0.14973 0.07604 0.0
H162 H 0.77126 0.08132 0.01489 0.0
H163 H 0.86789 0.11478 0.0099 0.0
H164 H 0.83199 0.27023 0.03686 0.0
H165 H 0.73536 0.23627 0.04168 0.0
H166 H 0.6859 0.08174 0.99256 0.0
H167 H 0.74576 0.11211 0.97055 0.0
H168 H 0.72461 0.28671 0.98655 0.0
H169 H 0.66432 0.25535 0.0088 0.0
H170 H 0.58828 0.05668 0.99404 0.0
H171 H 0.5227 0.05353 0.97105 0.0
H172 H 0.43431 0.19759 0.99172 0.0
H173 H 0.50208 0.20251 0.01437 0.0
O174 O 0.51741 0.92884 0.10186 0.0
O175 O 0.50096 0.01295 0.11369 0.0
O176 O 0.94865 0.18764 0.01158 0.0
O177 O 0.93219 0.26852 0.0252 0.0
C178 C 0.57093 0.11173 0.03449 0.0
C179 C 0.61008 0.10165 0.04697 0.0
C180 C 0.66797 0.11389 0.04478 0.0
C181 C 0.68641 0.13869 0.03044 0.0
C182 C 0.64774 0.14629 0.01764 0.0
C183 C 0.5901 0.13129 0.01952 0.0
C184 C 0.51088 0.09635 0.0372 0.0
C185 C 0.49274 0.04085 0.03345 0.0
C186 C 0.44896 0.01667 0.04233 0.0
C187 C 0.42359 0.04754 0.05521 0.0
C188 C 0.43654 0.10568 0.0572 0.0
C189 C 0.47944 0.13005 0.04808 0.0
C190 C 0.59081 0.07222 0.06165 0.0
C191 C 0.5893 0.01289 0.06166 0.0
C192 C 0.56689 0.98491 0.07487 0.0
C193 C 0.5457 0.01587 0.08832 0.0
C194 C 0.5485 0.07543 0.08839 0.0
C195 C 0.57102 0.10334 0.07517 0.0
C196 C 0.70945 0.09161 0.05628 0.0
C197 C 0.73982 0.04306 0.05172 0.0
C198 C 0.77085 0.01447 0.06315 0.0
C199 C 0.77119 0.03328 0.07945 0.0
C200 C 0.74225 0.08328 0.08387 0.0
C201 C 0.71193 0.11247 0.07232 0.0
C202 C 0.7465 0.15637 0.02868 0.0
C203 C 0.78456 0.12233 0.01984 0.0
C204 C 0.83965 0.14164 0.01696 0.0
C205 C 0.85762 0.19531 0.02294 0.0
C206 C 0.81954 0.22876 0.03207 0.0
C207 C 0.76444 0.20937 0.03492 0.0
C208 C 0.66981 0.16635 0.00207 0.0
C209 C 0.6917 0.12669 0.99085 0.0
C210 C 0.72638 0.14423 0.97831 0.0
C211 C 0.74016 0.20188 0.97683 0.0
C212 C 0.71512 0.24198 0.98749 0.0
C213 C 0.68015 0.22427 5e-05 0.0
C214 C 0.55096 0.13092 0.00557 0.0
C215 C 0.5558 0.08855 0.99339 0.0
C216 C 0.51807 0.0863 0.98042 0.0
C217 C 0.4739 0.12532 0.97975 0.0
C218 C 0.46821 0.16707 0.9921 0.0
C219 C 0.50683 0.17009 0.00492 0.0
C220 C 0.5201 0.98603 0.1021 0.0
C221 C 0.9156 0.21668 0.01955 0.0
H222 H 0.26004 0.24421 0.15336 0.0
H223 H 0.48919 0.69285 0.27736 0.0
H224 H 0.28076 0.23026 0.23985 0.0
H225 H 0.2622 0.1333 0.23043 0.0
H226 H 0.43839 0.0927 0.23779 0.0
H227 H 0.45685 0.19135 0.24689 0.0
H228 H 0.27564 0.33306 0.22005 0.0
H229 H 0.25316 0.30237 0.19224 0.0
H230 H 0.42165 0.23401 0.18689 0.0
H231 H 0.44378 0.26555 0.21468 0.0
H232 H 0.28595 0.44126 0.24171 0.0
H233 H 0.2606 0.51919 0.22453 0.0
H234 H 0.41049 0.48951 0.19574 0.0
H235 H 0.4374 0.41238 0.21363 0.0
H236 H 0.31703 0.46771 0.27043 0.0
H237 H 0.33255 0.56697 0.27869 0.0
H238 H 0.50484 0.55692 0.2612 0.0
H239 H 0.48856 0.45763 0.25286 0.0
H240 H 0.30798 0.36507 0.28861 0.0
H241 H 0.30342 0.42915 0.31248 0.0
H242 H 0.4847 0.45319 0.31048 0.0
H243 H 0.48879 0.39094 0.28623 0.0
H244 H 0.31134 0.21934 0.27401 0.0
H245 H 0.31851 0.15037 0.29504 0.0
H246 H 0.48639 0.21485 0.30697 0.0
H247 H 0.48134 0.27784 0.28444 0.0
O248 O 0.26999 0.25638 0.1643 0.0
O249 O 0.35706 0.22183 0.16218 0.0
O250 O 0.3928 0.65667 0.28287 0.0
O251 O 0.48153 0.65403 0.27387 0.0
C252 C 0.381 0.27841 0.24823 0.0
C253 C 0.3748 0.31972 0.23628 0.0
C254 C 0.37993 0.37785 0.24061 0.0
C255 C 0.39322 0.39453 0.25666 0.0
C256 C 0.39746 0.35361 0.26865 0.0
C257 C 0.39199 0.29542 0.26452 0.0
C258 C 0.37021 0.21791 0.24384 0.0
C259 C 0.31529 0.20035 0.23953 0.0
C260 C 0.30467 0.14461 0.23437 0.0
C261 C 0.34877 0.10498 0.23348 0.0
C262 C 0.40362 0.12227 0.2383 0.0
C263 C 0.41422 0.1784 0.24351 0.0
C264 C 0.36149 0.30198 0.21931 0.0
C265 C 0.3078 0.31195 0.21279 0.0
C266 C 0.295 0.29413 0.19693 0.0
C267 C 0.33564 0.26578 0.18733 0.0
C268 C 0.38941 0.2558 0.19395 0.0
C269 C 0.40218 0.27376 0.2098 0.0
C270 C 0.364 0.42191 0.2291 0.0
C271 C 0.31382 0.45197 0.23185 0.0
C272 C 0.29948 0.49646 0.22208 0.0
C273 C 0.33428 0.51087 0.20908 0.0
C274 C 0.38352 0.47944 0.20586 0.0
C275 C 0.39866 0.43543 0.21596 0.0
C276 C 0.40172 0.45556 0.26107 0.0
C277 C 0.35803 0.48708 0.26835 0.0
C278 C 0.36706 0.54371 0.27309 0.0
C279 C 0.42015 0.56972 0.27075 0.0
C280 C 0.46358 0.53809 0.26326 0.0
C281 C 0.45437 0.48149 0.25843 0.0
C282 C 0.39868 0.37364 0.28575 0.0
C283 C 0.34697 0.38216 0.29377 0.0
C284 C 0.3443 0.41891 0.30727 0.0
C285 C 0.39362 0.44597 0.3131 0.0
C286 C 0.44624 0.43233 0.30617 0.0
C287 C 0.44872 0.39666 0.29242 0.0
C288 C 0.39614 0.25314 0.27743 0.0
C289 C 0.3503 0.2173 0.28086 0.0
C290 C 0.3541 0.17863 0.29323 0.0
C291 C 0.40304 0.17648 0.30297 0.0
C292 C 0.44846 0.21352 0.29963 0.0
C293 C 0.4454 0.25052 0.28684 0.0
C294 C 0.32177 0.24661 0.17051 0.0
C295 C 0.43041 0.62942 0.27619 0.0
H296 H 0.97168 0.06356 0.18111 0.0
H297 H 0.65756 0.56585 0.28797 0.0
H298 H 0.76335 0.06488 0.25068 0.0
H299 H 0.81702 0.9804 0.24322 0.0
H300 H 0.96837 0.05825 0.2635 0.0
H301 H 0.91335 0.1421 0.27177 0.0
H302 H 0.78896 0.13439 0.22473 0.0
H303 H 0.85262 0.09742 0.20366 0.0
H304 H 0.9903 0.19652 0.22483 0.0
H305 H 0.92618 0.23269 0.24595 0.0
H306 H 0.76042 0.25879 0.22014 0.0
H307 H 0.78391 0.33103 0.20029 0.0
H308 H 0.88237 0.42303 0.23659 0.0
H309 H 0.86071 0.35014 0.25612 0.0
H310 H 0.66304 0.3103 0.25114 0.0
H311 H 0.61687 0.40202 0.25551 0.0
H312 H 0.75425 0.45685 0.28706 0.0
H313 H 0.79973 0.36508 0.2826 0.0
H314 H 0.63411 0.24443 0.28208 0.0
H315 H 0.58848 0.30855 0.3021 0.0
H316 H 0.75052 0.3399 0.32497 0.0
H317 H 0.7956 0.27662 0.30508 0.0
H318 H 0.70462 0.08593 0.27348 0.0
H319 H 0.70316 0.00575 0.29072 0.0
H320 H 0.805 0.10178 0.32595 0.0
H321 H 0.81438 0.17687 0.30695 0.0
O322 O 0.9468 0.08031 0.1892 0.0
O323 O 0.01547 0.13446 0.19998 0.0
O324 O 0.60796 0.50146 0.26842 0.0
O325 O 0.67582 0.53014 0.28554 0.0
C326 C 0.80546 0.16434 0.26296 0.0
C327 C 0.81592 0.20307 0.25063 0.0
C328 C 0.79311 0.25784 0.25182 0.0
C329 C 0.75921 0.27359 0.26525 0.0
C330 C 0.74849 0.23465 0.2776 0.0
C331 C 0.77115 0.17958 0.27636 0.0
C332 C 0.83423 0.109 0.26205 0.0
C333 C 0.80722 0.06246 0.25438 0.0
C334 C 0.83804 0.0144 0.25006 0.0
C335 C 0.89662 0.01296 0.25292 0.0
C336 C 0.9231 0.05836 0.26137 0.0
C337 C 0.89182 0.10596 0.26609 0.0
C338 C 0.85299 0.18625 0.23681 0.0
C339 C 0.83275 0.14851 0.22468 0.0
C340 C 0.86925 0.12731 0.2127 0.0
C341 C 0.92664 0.14379 0.2126 0.0
C342 C 0.94637 0.1829 0.22456 0.0
C343 C 0.90981 0.20392 0.23657 0.0
C344 C 0.80803 0.29997 0.23962 0.0
C345 C 0.78752 0.29429 0.22371 0.0
C346 C 0.80108 0.33515 0.21243 0.0
C347 C 0.83462 0.38226 0.21706 0.0
C348 C 0.85616 0.38704 0.23285 0.0
C349 C 0.84346 0.34586 0.244 0.0
C350 C 0.73464 0.33121 0.26655 0.0
C351 C 0.68338 0.34252 0.25881 0.0
C352 C 0.65703 0.39478 0.26139 0.0
C353 C 0.68171 0.43663 0.27173 0.0
C354 C 0.73394 0.42552 0.2791 0.0
C355 C 0.76014 0.37325 0.27652 0.0
C356 C 0.71807 0.25505 0.2923 0.0
C357 C 0.65914 0.26297 0.2919 0.0
C358 C 0.63328 0.29992 0.3032 0.0
C359 C 0.66638 0.32941 0.31485 0.0
C360 C 0.72435 0.31769 0.31601 0.0
C361 C 0.74995 0.28074 0.30485 0.0
C362 C 0.7599 0.13719 0.28885 0.0
C363 C 0.72707 0.0891 0.2849 0.0
C364 C 0.72574 0.04313 0.29508 0.0
C365 C 0.75446 0.04531 0.31007 0.0
C366 C 0.78406 0.09595 0.3144 0.0
C367 C 0.78803 0.14052 0.30373 0.0
C368 C 0.96577 0.1195 0.20022 0.0
C369 C 0.65285 0.49131 0.27505 0.0
H370 H 0.56104 0.87939 0.68557 0.0
H371 H 0.75122 0.52289 0.83608 0.0
H372 H 0.83573 0.93181 0.75107 0.0
H373 H 0.82684 0.01437 0.73407 0.0
H374 H 0.657 0.04062 0.75211 0.0
H375 H 0.66687 0.95899 0.76929 0.0
H376 H 0.74688 0.85258 0.73158 0.0
H377 H 0.68184 0.86459 0.70889 0.0
H378 H 0.53965 0.853 0.74158 0.0
H379 H 0.60499 0.84056 0.7641 0.0
H380 H 0.77126 0.72516 0.74595 0.0
H381 H 0.73802 0.63627 0.73328 0.0
H382 H 0.58864 0.64121 0.7634 0.0
H383 H 0.62273 0.73082 0.77625 0.0
H384 H 0.82948 0.69054 0.77642 0.0
H385 H 0.83963 0.6017 0.79058 0.0
H386 H 0.70267 0.65087 0.82262 0.0
H387 H 0.69302 0.73943 0.80832 0.0
H388 H 0.89779 0.78044 0.79117 0.0
H389 H 0.93784 0.73097 0.81395 0.0
H390 H 0.79978 0.78937 0.84417 0.0
H391 H 0.76008 0.83895 0.82129 0.0
H392 H 0.90519 0.88488 0.78182 0.0
H393 H 0.96406 0.95735 0.79583 0.0
H394 H 0.81245 0.04234 0.81243 0.0
H395 H 0.75433 0.96984 0.79857 0.0
O396 O 0.58615 0.87513 0.69469 0.0
O397 O 0.51477 0.86235 0.71176 0.0
O398 O 0.8156 0.53239 0.81276 0.0
O399 O 0.74679 0.55669 0.8299 0.0
C400 C 0.75358 0.88386 0.76935 0.0
C401 C 0.71972 0.83822 0.76326 0.0
C402 C 0.72345 0.78471 0.77022 0.0
C403 C 0.75805 0.77722 0.78377 0.0
C404 C 0.79136 0.8226 0.79001 0.0
C405 C 0.79031 0.87549 0.78257 0.0
C406 C 0.75184 0.93926 0.76134 0.0
C407 C 0.79724 0.95639 0.75166 0.0
C408 C 0.7919 0.00326 0.74187 0.0
C409 C 0.74104 0.03385 0.74162 0.0
C410 C 0.69696 0.0185 0.75212 0.0
C411 C 0.70235 0.97164 0.76188 0.0
C412 C 0.6806 0.84578 0.74946 0.0
C413 C 0.70166 0.85274 0.73379 0.0
C414 C 0.66442 0.85957 0.72087 0.0
C415 C 0.6055 0.85948 0.72341 0.0
C416 C 0.58471 0.85291 0.73919 0.0
C417 C 0.62193 0.84579 0.75207 0.0
C418 C 0.69907 0.73424 0.76184 0.0
C419 C 0.7312 0.70718 0.74975 0.0
C420 C 0.71262 0.65613 0.74274 0.0
C421 C 0.66137 0.6315 0.74766 0.0
C422 C 0.62847 0.65931 0.75957 0.0
C423 C 0.64756 0.71036 0.76677 0.0
C424 C 0.76051 0.72116 0.79136 0.0
C425 C 0.80131 0.68162 0.78637 0.0
C426 C 0.80713 0.63109 0.79452 0.0
C427 C 0.77213 0.61932 0.8078 0.0
C428 C 0.73037 0.65863 0.81248 0.0
C429 C 0.72459 0.70911 0.80431 0.0
C430 C 0.82607 0.8132 0.8046 0.0
C431 C 0.87795 0.78519 0.80294 0.0
C432 C 0.90064 0.75674 0.81596 0.0
C433 C 0.87138 0.75568 0.83074 0.0
C434 C 0.82285 0.78916 0.83285 0.0
C435 C 0.80044 0.81794 0.81986 0.0
C436 C 0.82567 0.92235 0.78926 0.0
C437 C 0.88494 0.91956 0.78838 0.0
C438 C 0.91838 0.96067 0.79638 0.0
C439 C 0.89276 0.00533 0.80516 0.0
C440 C 0.83331 0.0088 0.80554 0.0
C441 C 0.80004 0.96754 0.79766 0.0
C442 C 0.56592 0.86578 0.70966 0.0
C443 C 0.77957 0.56675 0.81689 0.0
H444 H 0.53755 0.37132 0.92715 0.0
H445 H 0.87473 0.57472 0.07623 0.0
H446 H 0.44339 0.59652 0.99352 0.0
H447 H 0.35727 0.57309 0.97835 0.0
H448 H 0.33366 0.42416 0.00685 0.0
H449 H 0.41779 0.45081 0.02273 0.0
H450 H 0.56306 0.54565 0.97861 0.0
H451 H 0.55717 0.48521 0.95403 0.0
H452 H 0.50523 0.34402 0.98278 0.0
H453 H 0.51162 0.40489 0.00723 0.0
H454 H 0.66934 0.59372 -0.00021 0.0
H455 H 0.75613 0.56354 0.98603 0.0
H456 H 0.72326 0.39114 -0.00057 0.0
H457 H 0.6373 0.42217 0.0139 0.0
H458 H 0.67112 0.6527 0.02593 0.0
H459 H 0.76513 0.66857 0.03784 0.0
H460 H 0.74628 0.51445 0.06424 0.0
H461 H 0.65289 0.49844 0.05194 0.0
H462 H 0.5661 0.69838 0.03707 0.0
H463 H 0.61874 0.75522 0.05745 0.0
H464 H 0.60683 0.61755 0.09035 0.0
H465 H 0.55663 0.56014 0.06974 0.0
H466 H 0.41221 0.64226 0.02181 0.0
H467 H 0.31949 0.65551 0.0341 0.0
H468 H 0.37143 0.55374 0.07408 0.0
H469 H 0.46056 0.53485 0.06049 0.0
O470 O 0.53956 0.39449 0.937 0.0
O471 O 0.51297 0.32332 0.95234 0.0
O472 O 0.85204 0.63817 0.05401 0.0
O473 O 0.83774 0.56942 0.07135 0.0
C474 C 0.49205 0.53709 0.01705 0.0
C475 C 0.54165 0.51607 0.00954 0.0
C476 C 0.59514 0.52947 0.01624 0.0
C477 C 0.59913 0.56355 0.03048 0.0
C478 C 0.54967 0.5852 0.03796 0.0
C479 C 0.49579 0.57107 0.03145 0.0
C480 C 0.43661 0.52535 0.00919 0.0
C481 C 0.41872 0.5596 -0.0033 0.0
C482 C 0.36975 0.54575 0.98796 0.0
C483 C 0.33873 0.49613 0.99115 0.0
C484 C 0.35583 0.46304 0.00414 0.0
C485 C 0.40419 0.47782 0.01316 0.0
C486 C 0.53752 0.47961 0.99464 0.0
C487 C 0.55039 0.50166 0.97954 0.0
C488 C 0.54697 0.46705 0.96554 0.0
C489 C 0.53065 0.40978 0.96643 0.0
C490 C 0.51783 0.38793 0.98165 0.0
C491 C 0.52131 0.42259 0.99562 0.0
C492 C 0.64747 0.51023 0.00796 0.0
C493 C 0.68152 0.54967 8e-05 0.0
C494 C 0.73104 0.53248 0.99229 0.0
C495 C 0.74653 0.47527 0.99192 0.0
C496 C 0.71226 0.43558 -0.00027 0.0
C497 C 0.66323 0.4531 0.00786 0.0
C498 C 0.6555 0.57428 0.03802 0.0
C499 C 0.68751 0.62235 0.03424 0.0
C500 C 0.74115 0.63126 0.04105 0.0
C501 C 0.76324 0.59265 0.05196 0.0
C502 C 0.73051 0.54499 0.0559 0.0
C503 C 0.67723 0.53572 0.04889 0.0
C504 C 0.55687 0.62531 0.05197 0.0
C505 C 0.5721 0.68164 0.04898 0.0
C506 C 0.60269 0.71382 0.06054 0.0
C507 C 0.61689 0.69053 0.07538 0.0
C508 C 0.59578 0.63662 0.07905 0.0
C509 C 0.56645 0.60397 0.06735 0.0
C510 C 0.44325 0.58739 0.0402 0.0
C511 C 0.40312 0.62236 0.03314 0.0
C512 C 0.3501 0.63035 0.04034 0.0
C513 C 0.33683 0.60536 0.05514 0.0
C514 C 0.37853 0.57229 0.06246 0.0
C515 C 0.43058 0.56266 0.05493 0.0
C516 C 0.52713 0.37309 0.95155 0.0
C517 C 0.82031 0.60169 0.05914 0.0
H518 H 0.10892 0.41715 0.61803 0.0
H519 H 0.4305 0.79696 0.48887 0.0
H520 H 0.01112 0.52142 0.53163 0.0
H521 H 0.94476 0.47705 0.55012 0.0
H522 H 0.95966 0.62335 0.58275 0.0
H523 H 0.02248 0.66845 0.56369 0.0
H524 H 0.10911 0.49492 0.55162 0.0
H525 H 0.10613 0.4467 0.57735 0.0
H526 H 0.1405 0.60618 0.6028 0.0
H527 H 0.14259 0.65397 0.57695 0.0
H528 H 0.22233 0.51919 0.53452 0.0
H529 H 0.3008 0.47647 0.5489 0.0
H530 H 0.32754 0.63401 0.57604 0.0
H531 H 0.24941 0.67667 0.56129 0.0
H532 H 0.25726 0.5853 0.50876 0.0
H533 H 0.34339 0.61797 0.49532 0.0
H534 H 0.30819 0.78972 0.51176 0.0
H535 H 0.22244 0.75636 0.52524 0.0
H536 H 0.14882 0.58621 0.49055 0.0
H537 H 0.20268 0.61273 0.46719 0.0
H538 H 0.17485 0.78974 0.47954 0.0
H539 H 0.12417 0.76191 0.50391 0.0
H540 H 0.04711 0.55357 0.50159 0.0
H541 H 0.96434 0.54786 0.48383 0.0
H542 H 0.90898 0.71062 0.50283 0.0
H543 H 0.9919 0.71552 0.52088 0.0
O544 O 0.1104 0.43707 0.60799 0.0
O545 O 0.12903 0.51993 0.62049 0.0
O546 O 0.41351 0.6937 0.48618 0.0
O547 O 0.39772 0.78261 0.49451 0.0
C548 C 0.07484 0.61603 0.53846 0.0
C549 C 0.12603 0.60718 0.54682 0.0
C550 C 0.17807 0.62235 0.53984 0.0
C551 C 0.17921 0.64955 0.52501 0.0
C552 C 0.12846 0.65553 0.51614 0.0
C553 C 0.07631 0.63761 0.52273 0.0
C554 C 0.0212 0.59843 0.54623 0.0
C555 C 0.99749 0.54507 0.54234 0.0
C556 C 0.96076 0.51915 0.55318 0.0
C557 C 0.94782 0.54586 0.56819 0.0
C558 C 0.96804 0.6014 0.57133 0.0
C559 C 0.00384 0.6276 0.56037 0.0
C560 C 0.12561 0.57792 0.56247 0.0
C561 C 0.11577 0.51934 0.56278 0.0
C562 C 0.11421 0.49192 0.57749 0.0
C563 C 0.12296 0.5226 0.59214 0.0
C564 C 0.13349 0.58131 0.59174 0.0
C565 C 0.13482 0.6087 0.57701 0.0
C566 C 0.23077 0.60094 0.54686 0.0
C567 C 0.24607 0.54472 0.54333 0.0
C568 C 0.29034 0.52028 0.55166 0.0
C569 C 0.31986 0.55175 0.56368 0.0
C570 C 0.3058 0.60892 0.56673 0.0
C571 C 0.26139 0.63339 0.55835 0.0
C572 C 0.23406 0.6684 0.51811 0.0
C573 C 0.26883 0.62978 0.50969 0.0
C574 C 0.31775 0.64863 0.50193 0.0
C575 C 0.33275 0.70648 0.50249 0.0
C576 C 0.29807 0.74488 0.51115 0.0
C577 C 0.24921 0.72594 0.51891 0.0
C578 C 0.13341 0.67202 0.49906 0.0
C579 C 0.15182 0.63069 0.4878 0.0
C580 C 0.18311 0.64629 0.47435 0.0
C581 C 0.19535 0.70378 0.4717 0.0
C582 C 0.16853 0.74515 0.48161 0.0
C583 C 0.13827 0.72937 0.49534 0.0
C584 C 0.02521 0.63488 0.51247 0.0
C585 C 0.01692 0.58785 0.50196 0.0
C586 C 0.96985 0.58477 0.49181 0.0
C587 C 0.93027 0.62879 0.49199 0.0
C588 C 0.93842 0.67577 0.50267 0.0
C589 C 0.98573 0.6788 0.51286 0.0
C590 C 0.12104 0.49335 0.60775 0.0
C591 C 0.38386 0.72694 0.49392 0.0
C592 C 0.14981 0.68577 0.15073 0.0
C593 C 0.94026 0.61627 0.15697 0.0
C594 C 0.90259 0.7444 0.12261 0.0
Mg595 Mg 0.19964 0.80943 0.14282 0.0
Mg596 Mg 0.12634 0.92546 0.149 0.0
O597 O 0.12856 0.85329 0.13921 0.0
Mg598 Mg 0.07167 0.79529 0.14529 0.0
O599 O 0.01913 0.73246 0.15067 0.0
Mg600 Mg 0.02877 0.68129 0.13103 0.0
Mg601 Mg 0.94536 0.74747 0.15726 0.0
C602 C 0.99817 0.91086 0.13861 0.0
O603 O 0.05558 0.83513 0.17077 0.0
O604 O 0.24525 0.88405 0.13033 0.0
O605 O 0.96523 0.8095 0.17612 0.0
O606 O 0.21889 0.85138 0.16821 0.0
O607 O 0.19129 0.96131 0.13418 0.0
O608 O 0.15482 0.9185 0.17321 0.0
O609 O 0.0828 0.75337 0.12006 0.0
O610 O 0.17678 0.76801 0.11856 0.0
C611 C 0.13025 0.74845 0.11258 0.0
C612 C 0.23456 0.93648 0.12798 0.0
O613 O 0.00265 0.85668 0.13694 0.0
O614 O 0.97584 0.6135 0.14516 0.0
O615 O 0.0384 0.94273 0.14422 0.0
O616 O 0.94506 0.71289 0.11903 0.0
O617 O 0.92412 0.66349 0.16333 0.0
O618 O 0.8965 0.76719 0.13667 0.0
O619 O 0.14363 0.7391 0.15364 0.0
O620 O 0.11178 0.65594 0.1432 0.0
C621 C 0.19591 0.88833 0.1777 0.0
C622 C 0.01113 0.83653 0.17974 0.0
C623 C 0.66436 0.83063 0.41462 0.0
C624 C 0.71061 0.62658 0.41952 0.0
C625 C 0.62718 0.59982 0.3725 0.0
Mg626 Mg 0.56166 0.89424 0.39784 0.0
Mg627 Mg 0.44359 0.83325 0.3826 0.0
O628 O 0.52194 0.83051 0.3858 0.0
Mg629 Mg 0.56336 0.76705 0.39521 0.0
O630 O 0.61092 0.70692 0.40405 0.0
Mg631 Mg 0.68046 0.71954 0.39063 0.0
Mg632 Mg 0.58759 0.63211 0.40727 0.0
C633 C 0.46351 0.70482 0.37225 0.0
O634 O 0.49455 0.74569 0.4139 0.0
O635 O 0.51582 0.95333 0.38019 0.0
O636 O 0.50272 0.65103 0.41647 0.0
O637 O 0.48715 0.90135 0.41671 0.0
O638 O 0.44121 0.9083 0.36846 0.0
O639 O 0.41288 0.85344 0.40607 0.0
O640 O 0.63083 0.78389 0.37578 0.0
O641 O 0.63062 0.87863 0.37922 0.0
C642 C 0.65013 0.83328 0.37245 0.0
C643 C 0.47454 0.95126 0.37005 0.0
O644 O 0.51307 0.70655 0.37861 0.0
O645 O 0.72495 0.6593 0.40808 0.0
O646 O 0.42979 0.74723 0.37265 0.0
O647 O 0.659 0.64406 0.37295 0.0
O648 O 0.659 0.61257 0.42234 0.0
O649 O 0.59532 0.58751 0.38435 0.0
O650 O 0.61025 0.82936 0.41271 0.0
O651 O 0.69646 0.79351 0.40787 0.0
C652 C 0.43601 0.88254 0.41757 0.0
C653 C 0.47605 0.69783 0.41879 0.0
C654 C 0.64341 0.18335 0.66306 0.0
C655 C 0.44313 0.09916 0.65228 0.0
C656 C 0.44711 0.19337 0.60888 0.0
Mg657 Mg 0.69799 0.30313 0.65243 0.0
Mg658 Mg 0.61791 0.41067 0.64491 0.0
O659 O 0.63426 0.33548 0.63975 0.0
Mg660 Mg 0.57437 0.27788 0.64373 0.0
O661 O 0.51942 0.21548 0.64733 0.0
Mg662 Mg 0.55511 0.15458 0.63326 0.0
Mg663 Mg 0.44158 0.22728 0.64488 0.0
C664 C 0.51246 0.37875 0.62317 0.0
O665 O 0.52764 0.32863 0.66382 0.0
O666 O 0.75435 0.37368 0.64061 0.0
O667 O 0.43559 0.30344 0.66058 0.0
O668 O 0.68225 0.36138 0.67525 0.0
O669 O 0.69548 0.44646 0.63678 0.0
O670 O 0.61098 0.41932 0.67019 0.0
O671 O 0.61682 0.22248 0.62441 0.0
O672 O 0.70749 0.24207 0.63064 0.0
C673 C 0.6699 0.21366 0.62252 0.0
C674 C 0.74446 0.42394 0.63573 0.0
O675 O 0.51732 0.32533 0.62554 0.0
O676 O 0.49055 0.09383 0.64479 0.0
O677 O 0.54367 0.41639 0.63037 0.0
O678 O 0.49233 0.16665 0.6122 0.0
O679 O 0.41763 0.14666 0.65401 0.0
O680 O 0.42218 0.22453 0.61951 0.0
O681 O 0.63378 0.23644 0.66182 0.0
O682 O 0.61749 0.14593 0.65417 0.0
C683 C 0.64606 0.39841 0.67995 0.0
C684 C 0.47496 0.33343 0.6675 0.0
C685 C 0.17283 0.34858 0.91893 0.0
C686 C 0.22117 0.14482 0.91773 0.0
C687 C 0.16038 0.1346 0.86864 0.0
Mg688 Mg 0.07801 0.42149 0.90274 0.0
Mg689 Mg 0.96703 0.37087 0.88303 0.0
O690 O 0.04475 0.36718 0.88612 0.0
Mg691 Mg 0.08218 0.29648 0.89325 0.0
O692 O 0.12617 0.23129 0.90079 0.0
Mg693 Mg 0.2021 0.25013 0.89174 0.0
Mg694 Mg 0.10358 0.15564 0.90191 0.0
C695 C 0.99372 0.25754 0.86339 0.0
O696 O 0.00767 0.26501 0.90874 0.0
O697 O 0.03522 0.49417 0.88871 0.0
O698 O 0.0172 0.17001 0.91026 0.0
O699 O 0.9982 0.41512 0.91983 0.0
O700 O 0.96061 0.45617 0.87525 0.0
O701 O 0.9312 0.36595 0.90622 0.0
O702 O 0.15823 0.32307 0.87803 0.0
O703 O 0.15376 0.41591 0.88538 0.0
C704 C 0.17756 0.37425 0.87765 0.0
C705 C 0.99246 0.49851 0.87922 0.0
O706 O 0.03958 0.2492 0.87136 0.0
O707 O 0.23899 0.18297 0.90822 0.0
O708 O 0.96048 0.29909 0.86656 0.0
O709 O 0.19103 0.17929 0.87128 0.0
O710 O 0.16901 0.12942 0.9183 0.0
O711 O 0.1216 0.11989 0.87847 0.0
O712 O 0.12077 0.34716 0.91455 0.0
O713 O 0.20963 0.3161 0.91224 0.0
C714 C 0.94937 0.39057 0.91914 0.0
C715 C 0.9897 0.21606 0.91291 0.0
H716 H 0.31032 0.94206 0.4836 0.0
H717 H 0.16591 0.90537 0.45299 0.0
H718 H 0.22826 0.88589 0.42999 0.0
H719 H 0.32242 0.87889 0.41873 0.0
H720 H 0.46911 0.91769 0.44833 0.0
H721 H 0.40719 0.93784 0.47166 0.0
C722 C 0.29294 0.93011 0.47183 0.0
C723 C 0.23395 0.92531 0.46981 0.0
C724 C 0.32915 0.91997 0.45857 0.0
C725 C 0.2113 0.90972 0.45464 0.0
C726 C 0.24683 0.89855 0.44155 0.0
C727 C 0.34119 0.89166 0.43027 0.0
C728 C 0.40034 0.89641 0.43183 0.0
C729 C 0.30565 0.90351 0.4434 0.0
C730 C 0.42365 0.9138 0.44683 0.0
C731 C 0.38829 0.92525 0.46014 0.0
H732 H 0.41452 0.88021 0.6923 0.0
H733 H 0.34083 0.00228 0.72571 0.0
H734 H 0.34468 0.07453 0.70516 0.0
H735 H 0.37888 0.10497 0.67909 0.0
H736 H 0.46297 0.98631 0.64664 0.0
H737 H 0.44432 0.90993 0.66529 0.0
C738 C 0.3987 0.92252 0.69489 0.0
C739 C 0.37767 0.93665 0.71032 0.0
C740 C 0.403 0.96405 0.68325 0.0
C741 C 0.35747 0.99124 0.71383 0.0
C742 C 0.35961 0.03225 0.70212 0.0
C743 C 0.39192 0.06214 0.67589 0.0
C744 C 0.42229 0.05116 0.66156 0.0
C745 C 0.3836 0.01946 0.68696 0.0
C746 C 0.43961 0.99565 0.65766 0.0
C747 C 0.42924 0.95214 0.66833 0.0
H748 H 0.36126 0.10421 0.98066 0.0
H749 H 0.49889 0.14034 0.94828 0.0
H750 H 0.43278 0.14261 0.92549 0.0
H751 H 0.3353 0.14232 0.91543 0.0
H752 H 0.19714 0.10473 0.94762 0.0
H753 H 0.26411 0.09313 0.9698 0.0
C754 C 0.37645 0.11218 0.96856 0.0
C755 C 0.43427 0.12291 0.96602 0.0
C756 C 0.33834 0.11268 0.95555 0.0
C757 C 0.45427 0.13234 0.95037 0.0
C758 C 0.4166 0.13358 0.9374 0.0
C759 C 0.31992 0.13062 0.92723 0.0
C760 C 0.26139 0.12504 0.92994 0.0
C761 C 0.35847 0.12484 0.93992 0.0
C762 C 0.24204 0.10913 0.94522 0.0
C763 C 0.28025 0.10311 0.95795 0.0
H764 H 0.2575 0.03608 0.23795 0.0
H765 H 0.41483 0.04656 0.21164 0.0
H766 H 0.38546 0.96666 0.1941 0.0
H767 H 0.30686 0.90963 0.18253 0.0
H768 H 0.14539 0.90864 0.20674 0.0
H769 H 0.18424 0.96823 0.22884 0.0
C770 C 0.28573 0.02022 0.22854 0.0
C771 C 0.33767 0.0481 0.22588 0.0
C772 C 0.26735 0.97621 0.21798 0.0
C773 C 0.37454 0.02607 0.21396 0.0
C774 C 0.35751 0.98066 0.20379 0.0
C775 C 0.28104 0.92057 0.193 0.0
C776 C 0.22341 0.90531 0.19306 0.0
C777 C 0.30285 0.9575 0.20515 0.0
C778 C 0.18983 0.92033 0.20649 0.0
C779 C 0.21195 0.95471 0.21904 0.0
H780 H 0.32676 0.05864 0.55221 0.0
H781 H 0.18921 0.16696 0.56728 0.0
H782 H 0.25323 0.22241 0.58485 0.0
H783 H 0.34451 0.23114 0.59884 0.0
H784 H 0.48165 0.1208 0.58443 0.0
H785 H 0.4221 0.07638 0.56348 0.0
C786 C 0.31111 0.09487 0.55919 0.0
C787 C 0.2533 0.1083 0.55858 0.0
C788 C 0.34804 0.12618 0.56946 0.0
C789 C 0.23362 0.15587 0.56748 0.0
C790 C 0.27013 0.18742 0.57762 0.0
C791 C 0.36192 0.19828 0.59089 0.0
C792 C 0.41713 0.17852 0.59352 0.0
C793 C 0.32698 0.17177 0.57911 0.0
C794 C 0.43908 0.13647 0.58289 0.0
C795 C 0.4049 0.11064 0.57094 0.0
H796 H 0.29192 0.96128 0.82369 0.0
H797 H 0.15581 0.85186 0.83874 0.0
H798 H 0.10914 0.93258 0.85217 0.0
H799 H 0.11168 0.03172 0.86167 0.0
H800 H 0.24896 0.14115 0.8472 0.0
H801 H 0.2899 0.06301 0.83123 0.0
C802 C 0.25215 0.95509 0.82997 0.0
C803 C 0.2279 0.90042 0.8305 0.0
C804 C 0.22558 0.00169 0.83764 0.0
C805 C 0.17554 0.89337 0.83827 0.0
C806 C 0.14886 0.93951 0.84593 0.0
C807 C 0.1499 0.03912 0.85475 0.0
C808 C 0.17737 0.09244 0.85583 0.0
C809 C 0.17401 0.99363 0.84593 0.0
C810 C 0.22681 0.10077 0.84668 0.0
C811 C 0.25058 0.05588 0.83764 0.0
H812 H 0.33441 0.08749 0.0733 0.0
H813 H 0.44155 0.94132 0.06642 0.0
H814 H 0.3947 0.89548 0.08868 0.0
H815 H 0.32405 0.89674 0.11033 0.0
H816 H 0.22102 0.04523 0.11834 0.0
H817 H 0.26773 0.09106 0.09594 0.0
C818 C 0.34794 0.04579 0.07669 0.0
C819 C 0.39111 0.01793 0.06792 0.0
C820 C 0.32235 0.0203 0.08997 0.0
C821 C 0.40727 0.96342 0.07249 0.0
C822 C 0.38113 0.93735 0.08545 0.0
C823 C 0.31218 0.9394 0.10733 0.0
C824 C 0.26882 0.96722 0.11602 0.0
C825 C 0.33882 0.96549 0.09433 0.0
C826 C 0.2542 0.02259 0.11191 0.0
C827 C 0.28061 0.0488 0.099 0.0
H828 H 0.498 0.12667 0.31509 0.0
H829 H 0.31642 0.13419 0.3217 0.0
H830 H 0.32218 0.06451 0.3426 0.0
H831 H 0.37875 0.00025 0.35904 0.0
H832 H 0.56075 0.00318 0.35478 0.0
H833 H 0.55483 0.07179 0.33338 0.0
C834 C 0.45953 0.11456 0.32127 0.0
C835 C 0.40675 0.13582 0.31645 0.0
C836 C 0.46322 0.07645 0.33389 0.0
C837 C 0.35765 0.11771 0.3246 0.0
C838 C 0.36085 0.07818 0.33678 0.0
C839 C 0.41698 0.01649 0.3535 0.0
C840 C 0.47003 0.99688 0.35841 0.0
C841 C 0.41337 0.05701 0.34146 0.0
C842 C 0.51945 0.01823 0.35127 0.0
C843 C 0.51608 0.05712 0.33897 0.0
H844 H 0.7368 0.01861 0.57305 0.0
H845 H 0.87541 0.0072 0.6068 0.0
H846 H 0.82949 0.07514 0.62513 0.0
H847 H 0.75862 0.14845 0.62943 0.0
H848 H 0.62133 0.1641 0.5955 0.0
H849 H 0.6585 0.08419 0.57918 0.0
C850 C 0.75631 0.03028 0.58457 0.0
C851 C 0.80975 0.00857 0.58847 0.0
C852 C 0.73082 0.07118 0.59475 0.0
C853 C 0.83416 0.02299 0.60355 0.0
C854 C 0.80837 0.06253 0.61393 0.0
C855 C 0.73681 0.13435 0.61845 0.0
C856 C 0.68856 0.16304 0.61329 0.0
C857 C 0.75822 0.08875 0.60927 0.0
C858 C 0.65928 0.14313 0.59946 0.0
C859 C 0.68042 0.09751 0.59019 0.0
H860 H 0.67885 0.95428 0.31024 0.0
H861 H 0.82808 0.02067 0.33516 0.0
H862 H 0.81527 0.95166 0.35581 0.0
H863 H 0.75246 0.88286 0.36901 0.0
H864 H 0.61163 0.80966 0.34241 0.0
H865 H 0.6338 0.86839 0.31945 0.0
C866 C 0.71033 0.95347 0.3197 0.0
C867 C 0.75273 0.99605 0.32122 0.0
C868 C 0.70501 0.91127 0.33119 0.0
C869 C 0.79238 0.99194 0.33393 0.0
C870 C 0.786 0.95133 0.34571 0.0
C871 C 0.72876 0.87756 0.35781 0.0
C872 C 0.68053 0.84232 0.35732 0.0
C873 C 0.74114 0.91226 0.34478 0.0
C874 C 0.64947 0.83601 0.34291 0.0
C875 C 0.66138 0.87058 0.32993 0.0
H876 H 0.83281 0.07501 0.10504 0.0
H877 H 0.77839 0.91805 0.08142 0.0
H878 H 0.8394 0.86511 0.0991 0.0
H879 H 0.91633 0.86465 0.11899 0.0
H880 H 0.96797 0.02142 0.14322 0.0
H881 H 0.89835 0.07283 0.12788 0.0
C882 C 0.83313 0.02914 0.10399 0.0
C883 C 0.80216 0.00079 0.09164 0.0
C884 C 0.86786 -0.00121 0.11429 0.0
C885 C 0.80332 0.94121 0.09047 0.0
C886 C 0.83784 0.91075 0.10066 0.0
C887 C 0.91133 0.90972 0.12127 0.0
C888 C 0.948 0.93911 0.13204 0.0
C889 C 0.8716 0.93926 0.11228 0.0
C890 C 0.94093 0.99774 0.13479 0.0
C891 C 0.90121 0.02731 0.126 0.0
H892 H 0.88057 0.11849 0.80611 0.0
H893 H 0.98127 0.98529 0.82548 0.0
H894 H 0.02663 0.0534 0.84442 0.0
H895 H 0.0289 0.14889 0.85754 0.0
H896 H 0.92303 0.27955 0.83864 0.0
H897 H 0.88829 0.2143 0.81756 0.0
C898 C 0.9128 0.10454 0.81441 0.0
C899 C 0.92703 0.04714 0.81461 0.0
C900 C 0.93725 0.14332 0.82549 0.0
C901 C 0.96973 0.02951 0.82512 0.0
C902 C 0.9953 0.06829 0.83603 0.0
C903 C 0.99879 0.16313 0.84868 0.0
C904 C 0.97782 0.2186 0.84984 0.0
C905 C 0.97808 0.12502 0.83666 0.0
C906 C 0.93901 0.23668 0.83823 0.0
C907 C 0.91921 0.19952 0.82611 0.0
H908 H 0.80598 0.89349 0.47493 0.0
H909 H 0.9281 0.93083 0.43803 0.0
H910 H 0.85395 0.92253 0.41728 0.0
H911 H 0.75815 0.89139 0.40958 0.0
H912 H 0.63644 0.8504 0.44627 0.0
H913 H 0.70557 0.87655 0.46742 0.0
C914 C 0.81587 0.90035 0.46235 0.0
C915 C 0.87212 0.91152 0.45781 0.0
C916 C 0.77298 0.89591 0.45061 0.0
C917 C 0.885 0.92129 0.44161 0.0
C918 C 0.84267 0.91689 0.42983 0.0
C919 C 0.74613 0.8906 0.42224 0.0
C920 C 0.69259 0.86907 0.42644 0.0
C921 C 0.78691 0.90275 0.43417 0.0
C922 C 0.67719 0.86766 0.4428 0.0
C923 C 0.71715 0.88137 0.45485 0.0
H924 H 0.98063 0.03062 0.23172 0.0
H925 H 0.88466 0.89858 0.25428 0.0
H926 H 0.92071 0.8288 0.23444 0.0
H927 H 0.96517 0.80973 0.20814 0.0
H928 H 0.054 0.94343 0.18421 0.0
H929 H 0.03655 0.00825 0.20731 0.0
C930 C 0.96949 0.98614 0.23262 0.0
C931 C 0.93024 0.96934 0.24434 0.0
C932 C 0.98846 0.94699 0.2208 0.0
C933 C 0.91495 0.91202 0.2453 0.0
C934 C 0.93517 0.8724 0.23392 0.0
C935 C 0.98167 0.85279 0.20819 0.0
C936 C 0.01082 0.87206 0.19462 0.0
C937 C 0.96965 0.89002 0.22119 0.0
C938 C 0.03228 0.92763 0.19469 0.0
C939 C 0.02169 0.96479 0.2078 0.0
H940 H 0.75675 0.16223 0.94597 0.0
H941 H 0.82686 0.2773 0.98249 0.0
H942 H 0.90896 0.29453 0.96536 0.0
H943 H 0.96369 0.27251 0.94063 0.0
H944 H 0.89797 0.15062 0.90542 0.0
H945 H 0.81109 0.1404 0.92133 0.0
C946 C 0.78984 0.19136 0.95013 0.0
C947 C 0.78555 0.21848 0.96546 0.0
C948 C 0.83773 0.1997 0.94045 0.0
C949 C 0.82859 0.25647 0.97064 0.0
C950 C 0.87599 0.26575 0.96095 0.0
C951 C 0.92994 0.24418 0.93644 0.0
C952 C 0.93639 0.21266 0.92191 0.0
C953 C 0.88128 0.23711 0.94593 0.0
C954 C 0.89329 0.17534 0.91659 0.0
C955 C 0.84385 0.16954 0.92567 0.0
H956 H 0.76999 0.02727 0.70992 0.0
H957 H 0.68851 0.13676 0.74538 0.0
H958 H 0.65886 0.19951 0.72403 0.0
H959 H 0.64533 0.21579 0.69487 0.0
H960 H 0.72212 0.10185 0.65973 0.0
H961 H 0.76611 0.04952 0.68133 0.0
C962 C 0.74719 0.06571 0.71307 0.0
C963 C 0.73123 0.07706 0.72923 0.0
C964 C 0.72937 0.10086 0.70072 0.0
C965 C 0.7007 0.12661 0.73301 0.0
C966 C 0.68384 0.16258 0.72081 0.0
C967 C 0.67324 0.18065 0.69201 0.0
C968 C 0.68075 0.16261 0.6758 0.0
C969 C 0.69639 0.14917 0.70455 0.0
C970 C 0.71598 0.11638 0.67216 0.0
C971 C 0.74075 0.08624 0.6845 0.0
H972 H 0.74463 0.39703 0.9677 0.0
H973 H 0.85558 0.51455 0.99335 0.0
H974 H 0.93157 0.49417 0.97386 0.0
H975 H 0.96262 0.44979 0.94797 0.0
H976 H 0.84667 0.33843 0.92152 0.0
H977 H 0.77663 0.34991 0.94274 0.0
C978 C 0.7859 0.4172 0.96917 0.0
C979 C 0.79494 0.45688 0.98188 0.0
C980 C 0.82816 0.40717 0.9576 0.0
C981 C 0.84805 0.4837 0.98359 0.0
C982 C 0.89125 0.47225 0.97244 0.0
C983 C 0.92237 0.42745 0.94697 0.0
C984 C 0.91015 0.39355 0.9331 0.0
C985 C 0.8813 0.4351 0.95914 0.0
C986 C 0.85738 0.3653 0.93196 0.0
C987 C 0.81701 0.37178 0.9441 0.0
H988 H 0.89051 0.37945 0.1882 0.0
H989 H 0.79982 0.48942 0.22155 0.0
H990 H 0.82014 0.57044 0.20485 0.0
H991 H 0.8682 0.61058 0.18215 0.0
H992 H 0.9656 0.50455 0.14922 0.0
H993 H 0.93738 0.42089 0.16424 0.0
C994 C 0.87484 0.42118 0.19159 0.0
C995 C 0.84388 0.42902 0.206 0.0
C996 C 0.88794 0.46792 0.1821 0.0
C997 C 0.82392 0.48294 0.2105 0.0
C998 C 0.8355 0.52907 0.20098 0.0
C999 C 0.88322 0.56928 0.17807 0.0
C1000 C 0.91942 0.56407 0.16461 0.0
C1001 C 0.86823 0.52216 0.18695 0.0
C1002 C 0.93785 0.50989 0.15956 0.0
C1003 C 0.92188 0.46209 0.16819 0.0
H1004 H 0.93255 0.60081 0.46003 0.0
H1005 H 0.81924 0.65136 0.49864 0.0
H1006 H 0.73927 0.64787 0.47977 0.0
H1007 H 0.70277 0.635 0.45198 0.0
H1008 H 0.81783 0.5919 0.41316 0.0
H1009 H 0.89591 0.58592 0.43249 0.0
C1010 C 0.89019 0.61031 0.46434 0.0
C1011 C 0.88163 0.62611 0.48068 0.0
C1012 C 0.84481 0.60884 0.45342 0.0
C1013 C 0.82681 0.63949 0.48607 0.0
C1014 C 0.78112 0.63714 0.47532 0.0
C1015 C 0.7447 0.62288 0.44787 0.0
C1016 C 0.75468 0.61288 0.43128 0.0
C1017 C 0.78971 0.62223 0.45894 0.0
C1018 C 0.80935 0.59903 0.42593 0.0
C1019 C 0.85393 0.59608 0.43695 0.0
H1020 H 0.7196 0.53451 0.74222 0.0
H1021 H 0.55805 0.61174 0.73429 0.0
H1022 H 0.53492 0.53959 0.71348 0.0
H1023 H 0.56888 0.46648 0.6945 0.0
H1024 H 0.73043 0.38771 0.70237 0.0
H1025 H 0.74513 0.44792 0.72661 0.0
C1026 C 0.67879 0.53447 0.73618 0.0
C1027 C 0.64122 0.57933 0.7392 0.0
C1028 C 0.66621 0.49299 0.72422 0.0
C1029 C 0.58804 0.5785 0.7317 0.0
C1030 C 0.57494 0.5373 0.71984 0.0
C1031 C 0.60664 0.4612 0.70174 0.0
C1032 C 0.64901 0.42352 0.69647 0.0
C1033 C 0.61499 0.49616 0.71548 0.0
C1034 C 0.6974 0.41685 0.70609 0.0
C1035 C 0.70595 0.45142 0.7199 0.0
H1036 H 0.72363 0.71646 0.06657 0.0
H1037 H 0.61054 0.72045 0.10744 0.0
H1038 H 0.68958 0.74672 0.12546 0.0
H1039 H 0.79185 0.75572 0.1299 0.0
H1040 H 0.90657 0.73939 0.08948 0.0
H1041 H 0.82587 0.73252 0.07083 0.0
C1042 C 0.71627 0.72443 0.07937 0.0
C1043 C 0.66155 0.71689 0.08573 0.0
C1044 C 0.76231 0.73664 0.08969 0.0
C1045 C 0.65238 0.72631 0.10235 0.0
C1046 C 0.69755 0.74098 0.11262 0.0
C1047 C 0.79927 0.75153 0.11698 0.0
C1048 C 0.85507 0.74791 0.11105 0.0
C1049 C 0.75291 0.74433 0.10649 0.0
C1050 C 0.864 0.74181 0.09431 0.0
C1051 C 0.81793 0.73756 0.08368 0.0
H1052 H 0.70005 0.43812 0.31454 0.0
H1053 H 0.58057 0.32651 0.33704 0.0
H1054 H 0.55305 0.40333 0.35611 0.0
H1055 H 0.57289 0.49788 0.36835 0.0
H1056 H 0.6917 0.60956 0.34525 0.0
H1057 H 0.70974 0.53679 0.32437 0.0
C1058 C 0.66748 0.43101 0.32351 0.0
C1059 C 0.643 0.37688 0.3247 0.0
C1060 C 0.65238 0.475 0.33438 0.0
C1061 C 0.60015 0.36794 0.33609 0.0
C1062 C 0.58473 0.41168 0.34699 0.0
C1063 C 0.60167 0.50695 0.35855 0.0
C1064 C 0.63128 0.55908 0.35852 0.0
C1065 C 0.61196 0.46483 0.34656 0.0
C1066 C 0.66871 0.56975 0.34572 0.0
C1067 C 0.67916 0.52811 0.33376 0.0
H1068 H 0.87257 0.58857 0.59037 0.0
H1069 H 0.95439 0.43309 0.5751 0.0
H1070 H 0.90334 0.3822 0.59584 0.0
H1071 H 0.83134 0.38093 0.6175 0.0
H1072 H 0.75316 0.53778 0.63313 0.0
H1073 H 0.80917 0.58929 0.61362 0.0
C1074 C 0.88015 0.54376 0.59169 0.0
C1075 C 0.91675 0.51482 0.58093 0.0
C1076 C 0.85186 0.51495 0.60391 0.0
C1077 C 0.92517 0.45641 0.58282 0.0
C1078 C 0.89657 0.42728 0.59485 0.0
C1079 C 0.82774 0.42656 0.61692 0.0
C1080 C 0.78794 0.45539 0.62669 0.0
C1081 C 0.85934 0.456 0.60538 0.0
C1082 C 0.78329 0.51451 0.62567 0.0
C1083 C 0.815 0.54401 0.61444 0.0
H1084 H 0.97483 0.72937 0.84324 0.0
H1085 H 0.79796 0.68177 0.84394 0.0
H1086 H 0.81967 0.59952 0.85972 0.0
H1087 H 0.88928 0.53694 0.87142 0.0
H1088 H 0.06622 0.58379 0.87162 0.0
H1089 H 0.04424 0.67069 0.85752 0.0
C1090 C 0.94112 0.70138 0.8471 0.0
C1091 C 0.8849 0.71173 0.84249 0.0
C1092 C 0.95393 0.65384 0.85621 0.0
C1093 C 0.84146 0.67525 0.84755 0.0
C1094 C 0.85387 0.62787 0.85645 0.0
C1095 C 0.923 0.56639 0.86847 0.0
C1096 C 0.9793 0.55377 0.87233 0.0
C1097 C 0.91 0.61615 0.86055 0.0
C1098 C 0.02251 0.59268 0.86873 0.0
C1099 C 0.00998 0.64219 0.86062 0.0
H1100 H 0.26849 0.69864 0.05351 0.0
H1101 H 0.27765 0.53493 0.07529 0.0
H1102 H 0.20023 0.56068 0.09335 0.0
H1103 H 0.14458 0.63715 0.10648 0.0
H1104 H 0.13363 0.79829 0.08391 0.0
H1105 H 0.19417 0.7643 0.06182 0.0
C1106 C 0.25266 0.66736 0.0617 0.0
C1107 C 0.28135 0.61581 0.06343 0.0
C1108 C 0.20695 0.68172 0.07182 0.0
C1109 C 0.259 0.57631 0.07422 0.0
C1110 C 0.21395 0.59059 0.08445 0.0
C1111 C 0.15267 0.66342 0.09618 0.0
C1112 C 0.13488 0.71994 0.09671 0.0
C1113 C 0.18954 0.64428 0.0839 0.0
C1114 C 0.14639 0.7543 0.08356 0.0
C1115 C 0.18206 0.73526 0.07113 0.0
H1116 H 0.2986 0.46323 0.81705 0.0
H1117 H 0.35746 0.58765 0.85267 0.0
H1118 H 0.32194 0.52939 0.87435 0.0
H1119 H 0.25869 0.45316 0.88261 0.0
H1120 H 0.19616 0.32998 0.84725 0.0
H1121 H 0.24978 0.3767 0.82601 0.0
C1122 C 0.3045 0.47687 0.82959 0.0
C1123 C 0.32957 0.52998 0.8333 0.0
C1124 C 0.28311 0.44357 0.84198 0.0
C1125 C 0.33815 0.54696 0.84954 0.0
C1126 C 0.31756 0.51385 0.86193 0.0
C1127 C 0.25833 0.43554 0.87033 0.0
C1128 C 0.22303 0.389 0.86637 0.0
C1129 C 0.28778 0.46348 0.85823 0.0
C1130 C 0.22314 0.3659 0.85052 0.0
C1131 C 0.25319 0.39303 0.83837 0.0
H1132 H 0.31399 0.44786 0.5769 0.0
H1133 H 0.42314 0.59435 0.57258 0.0
H1134 H 0.49285 0.55192 0.59015 0.0
H1135 H 0.52104 0.47565 0.60726 0.0
H1136 H 0.41332 0.32864 0.61209 0.0
H1137 H 0.34502 0.36819 0.59329 0.0
C1138 C 0.35344 0.47006 0.57962 0.0
C1139 C 0.3634 0.5243 0.57353 0.0
C1140 C 0.39333 0.44538 0.58972 0.0
C1141 C 0.41425 0.55296 0.57731 0.0
C1142 C 0.45416 0.52865 0.58728 0.0
C1143 C 0.48256 0.4521 0.60426 0.0
C1144 C 0.47193 0.3994 0.61117 0.0
C1145 C 0.44374 0.47532 0.59369 0.0
C1146 C 0.42252 0.36905 0.60688 0.0
C1147 C 0.3834 0.3919 0.59622 0.0
H1148 H 0.44093 0.45831 0.34275 0.0
H1149 H 0.33882 0.54364 0.30813 0.0
H1150 H 0.34744 0.63247 0.32403 0.0
H1151 H 0.39325 0.68768 0.34636 0.0
H1152 H 0.48954 0.60021 0.3819 0.0
H1153 H 0.47234 0.50997 0.36745 0.0
C1154 C 0.41959 0.49618 0.33897 0.0
C1155 C 0.38975 0.49514 0.32436 0.0
C1156 C 0.42426 0.54669 0.34823 0.0
C1157 C 0.36204 0.544 0.31942 0.0
C1158 C 0.36717 0.59471 0.32845 0.0
C1159 C 0.40992 0.64873 0.35098 0.0
C1160 C 0.44498 0.65059 0.36467 0.0
C1161 C 0.3996 0.59692 0.34264 0.0
C1162 C 0.46522 0.59985 0.37082 0.0
C1163 C 0.45508 0.54832 0.36266 0.0
H1164 H 0.33543 0.50566 0.95855 0.0
H1165 H 0.23939 0.4396 -0.00171 0.0
H1166 H 0.17281 0.39424 0.97915 0.0
H1167 H 0.14923 0.36383 0.9509 0.0
H1168 H 0.24786 0.42974 0.91182 0.0
H1169 H 0.30451 0.48708 0.93093 0.0
C1170 C 0.29901 0.48305 0.96317 0.0
C1171 C 0.29299 0.47581 0.9799 0.0
C1172 C 0.26105 0.45723 0.95215 0.0
C1173 C 0.24592 0.44499 0.98547 0.0
C1174 C 0.20757 0.41928 0.97453 0.0
C1175 C 0.18186 0.39237 0.94665 0.0
C1176 C 0.19443 0.39322 0.93006 0.0
C1177 C 0.21567 0.42373 0.95781 0.0
C1178 C 0.23744 0.42913 0.92457 0.0
C1179 C 0.27011 0.46139 0.93549 0.0
H1180 H 0.37784 0.51047 0.71843 0.0
H1181 H 0.50834 0.43949 0.74797 0.0
H1182 H 0.53586 0.37609 0.7254 0.0
H1183 H 0.52411 0.34256 0.69697 0.0
H1184 H 0.38959 0.40964 0.66826 0.0
H1185 H 0.36213 0.47308 0.69088 0.0
C1186 C 0.41144 0.48024 0.72012 0.0
C1187 C 0.4406 0.47946 0.73497 0.0
C1188 C 0.42673 0.44381 0.70717 0.0
C1189 C 0.48517 0.44105 0.7367 0.0
C1190 C 0.50085 0.40473 0.72381 0.0
C1191 C 0.48887 0.37124 0.69572 0.0
C1192 C 0.45926 0.37231 0.68099 0.0
C1193 C 0.47235 0.40623 0.70893 0.0
C1194 C 0.41309 0.40866 0.6795 0.0
C1195 C 0.3974 0.44471 0.69241 0.0
H1196 H 0.22912 0.64956 0.44353 0.0
H1197 H 0.2719 0.79172 0.47559 0.0
H1198 H 0.3608 0.80431 0.46139 0.0
H1199 H 0.4309 0.77071 0.44132 0.0
H1200 H 0.39391 0.62009 0.41227 0.0
H1201 H 0.29905 0.61482 0.42398 0.0
C1202 C 0.2576 0.68353 0.44746 0.0
C1203 C 0.24324 0.71912 0.4608 0.0
C1204 C 0.31034 0.68894 0.43981 0.0
C1205 C 0.2805 0.76398 0.46524 0.0
C1206 C 0.33203 0.77104 0.45721 0.0
C1207 C 0.40185 0.73692 0.43757 0.0
C1208 C 0.41925 0.69553 0.42611 0.0
C1209 C 0.34803 0.73303 0.44475 0.0
C1210 C 0.38154 0.65185 0.4213 0.0
C1211 C 0.32723 0.64908 0.42789 0.0
H1212 H 0.31298 0.50348 0.17701 0.0
H1213 H 0.31334 0.62019 0.2181 0.0
H1214 H 0.26406 0.69055 0.20233 0.0
H1215 H 0.20769 0.71215 0.17835 0.0
H1216 H 0.20001 0.59127 0.13819 0.0
H1217 H 0.26604 0.52984 0.15185 0.0
C1218 C 0.30367 0.545 0.18229 0.0
C1219 C 0.31643 0.55691 0.19861 0.0
C1220 C 0.27335 0.58418 0.17335 0.0
C1221 C 0.3036 0.61037 0.20551 0.0
C1222 C 0.27526 0.65039 0.19653 0.0
C1223 C 0.22173 0.67308 0.17243 0.0
C1224 C 0.19866 0.65585 0.1574 0.0
C1225 C 0.25792 0.63688 0.18065 0.0
C1226 C 0.2168 0.605 0.14987 0.0
C1227 C 0.25442 0.5698 0.15769 0.0
loop_
_geom_bond_atom_site_label_1
_geom_bond_atom_site_label_2
_geom_bond_distance
_geom_bond_site_symmetry_2
_ccdc_geom_bond_type
H0 O26 0.856 . S
H1 O29 0.854 . S
H2 C37 0.930 . S
H3 C38 0.930 . S
H4 C40 0.930 1_565 S
H5 C41 0.930 1_565 S
H6 C43 0.931 . S
H7 C44 0.930 1_655 S
H8 C46 0.930 . S
H9 C47 0.929 . S
H10 C49 0.930 . S
H11 C50 0.931 . S
H12 C52 0.930 . S
H13 C53 0.929 1_565 S
H14 C55 0.931 . S
H15 C56 0.930 . S
H16 C58 0.930 . S
H17 C59 0.932 . S
H18 C61 0.930 1_545 S
H19 C62 0.929 . S
H20 C64 0.931 . S
H21 C65 0.930 . S
H22 C67 0.929 . S
H23 C68 0.931 1_545 S
H24 C70 0.930 . S
H25 C71 0.929 . S
O26 H0 0.856 . S
O26 C72 1.300 . S
O27 C72 1.209 . S
O28 C73 1.199 . S
O29 H1 0.854 . S
O29 C73 1.297 . S
C30 C31 1.404 1_455 S
C30 C35 1.397 . S
C30 C36 1.492 . S
C31 C30 1.404 1_655 S
C31 C32 1.396 . S
C31 C42 1.492 . S
C32 C31 1.396 . S
C32 C33 1.397 . S
C32 C48 1.509 . S
C33 C32 1.397 . S
C33 C34 1.412 1_545 S
C33 C54 1.484 1_545 S
C34 C33 1.412 1_565 S
C34 C35 1.388 1_665 S
C34 C60 1.490 . S
C35 C30 1.397 . S
C35 C34 1.388 1_445 S
C35 C66 1.519 1_545 S
C36 C30 1.492 . S
C36 C37 1.363 . S
C36 C41 1.390 . S
C37 H2 0.930 . S
C37 C36 1.363 . S
C37 C38 1.372 . S
C38 H3 0.930 . S
C38 C37 1.372 . S
C38 C39 1.383 . S
C39 C38 1.383 . S
C39 C40 1.395 . S
C40 H4 0.930 1_545 S
C40 C39 1.395 . S
C40 C41 1.362 . S
C41 H5 0.930 1_545 S
C41 C36 1.390 . S
C41 C40 1.362 . S
C42 C31 1.492 . S
C42 C43 1.377 . S
C42 C47 1.397 1_655 S
C43 H6 0.931 . S
C43 C42 1.377 . S
C43 C44 1.376 1_655 S
C44 H7 0.930 1_455 S
C44 C43 1.376 1_455 S
C44 C45 1.376 . S
C45 C44 1.376 . S
C45 C46 1.378 . S
C45 C72 1.486 . S
C46 H8 0.930 . S
C46 C45 1.378 . S
C46 C47 1.376 . S
C47 H9 0.929 . S
C47 C42 1.397 1_455 S
C47 C46 1.376 . S
C48 C32 1.509 . S
C48 C49 1.391 . S
C48 C53 1.386 . S
C49 H10 0.930 . S
C49 C48 1.391 . S
C49 C50 1.375 . S
C50 H11 0.931 . S
C50 C49 1.375 . S
C50 C51 1.375 . S
C51 C50 1.375 . S
C51 C52 1.361 . S
C52 H12 0.930 . S
C52 C51 1.361 . S
C52 C53 1.399 . S
C53 H13 0.929 1_545 S
C53 C48 1.386 . S
C53 C52 1.399 . S
C54 C33 1.484 1_565 S
C54 C55 1.391 1_565 S
C54 C59 1.364 . S
C55 H14 0.931 . S
C55 C54 1.391 1_545 S
C55 C56 1.372 . S
C56 H15 0.930 . S
C56 C55 1.372 . S
C56 C57 1.397 1_545 S
C57 C56 1.397 1_565 S
C57 C58 1.390 . S
C57 C73 1.476 . S
C58 H16 0.930 . S
C58 C57 1.390 . S
C58 C59 1.366 . S
C59 H17 0.932 . S
C59 C54 1.364 . S
C59 C58 1.366 . S
C60 C34 1.490 . S
C60 C61 1.380 . S
C60 C65 1.386 . S
C61 H18 0.930 1_565 S
C61 C60 1.380 . S
C61 C62 1.381 . S
C62 H19 0.929 . S
C62 C61 1.381 . S
C62 C63 1.371 . S
C63 C62 1.371 . S
C63 C64 1.380 . S
C64 H20 0.931 . S
C64 C63 1.380 . S
C64 C65 1.387 . S
C65 H21 0.930 . S
C65 C60 1.386 . S
C65 C64 1.387 . S
C66 C35 1.519 1_565 S
C66 C67 1.377 1_565 S
C66 C71 1.361 . S
C67 H22 0.929 . S
C67 C66 1.377 1_545 S
C67 C68 1.386 1_545 S
C68 H23 0.931 1_565 S
C68 C67 1.386 1_565 S
C68 C69 1.363 . S
C69 C68 1.363 . S
C69 C70 1.385 . S
C70 H24 0.930 . S
C70 C69 1.385 . S
C70 C71 1.396 . S
C71 H25 0.929 . S
C71 C66 1.361 . S
C71 C70 1.396 . S
C72 O26 1.300 . S
C72 O27 1.209 . S
C72 C45 1.486 . S
C73 O28 1.199 . S
C73 O29 1.297 . S
C73 C57 1.476 . S
H74 O100 0.856 . S
H75 O103 0.854 . S
H76 C111 0.930 . S
H77 C112 0.930 . S
H78 C114 0.930 . S
H79 C115 0.930 . S
H80 C117 0.931 . S
H81 C118 0.930 . S
H82 C120 0.930 . S
H83 C121 0.929 . S
H84 C123 0.930 . S
H85 C124 0.931 . S
H86 C126 0.930 . S
H87 C127 0.929 . S
H88 C129 0.931 . S
H89 C130 0.930 . S
H90 C132 0.930 . S
H91 C133 0.932 . S
H92 C135 0.930 . S
H93 C136 0.929 . S
H94 C138 0.931 . S
H95 C139 0.930 . S
H96 C141 0.929 . S
H97 C142 0.931 . S
H98 C144 0.930 . S
H99 C145 0.929 . S
O100 H74 0.856 . S
O100 C146 1.300 . S
O101 C146 1.209 . S
O102 C147 1.199 . S
O103 H75 0.854 . S
O103 C147 1.297 . S
C104 C105 1.404 . S
C104 C109 1.397 . S
C104 C110 1.492 . S
C105 C104 1.404 . S
C105 C106 1.396 . S
C105 C116 1.492 . S
C106 C105 1.396 . S
C106 C107 1.397 . S
C106 C122 1.509 . S
C107 C106 1.397 . S
C107 C108 1.412 . S
C107 C128 1.485 . S
C108 C107 1.412 . S
C108 C109 1.388 . S
C108 C134 1.490 . S
C109 C104 1.397 . S
C109 C108 1.388 . S
C109 C140 1.519 . S
C110 C104 1.492 . S
C110 C111 1.363 . S
C110 C115 1.390 . S
C111 H76 0.930 . S
C111 C110 1.363 . S
C111 C112 1.372 . S
C112 H77 0.930 . S
C112 C111 1.372 . S
C112 C113 1.383 . S
C113 C112 1.383 . S
C113 C114 1.395 . S
C114 H78 0.930 . S
C114 C113 1.395 . S
C114 C115 1.362 . S
C115 H79 0.930 . S
C115 C110 1.390 . S
C115 C114 1.362 . S
C116 C105 1.492 . S
C116 C117 1.377 . S
C116 C121 1.397 . S
C117 H80 0.931 . S
C117 C116 1.377 . S
C117 C118 1.376 . S
C118 H81 0.930 . S
C118 C117 1.376 . S
C118 C119 1.376 . S
C119 C118 1.376 . S
C119 C120 1.378 . S
C119 C146 1.486 . S
C120 H82 0.930 . S
C120 C119 1.378 . S
C120 C121 1.376 . S
C121 H83 0.929 . S
C121 C116 1.397 . S
C121 C120 1.376 . S
C122 C106 1.509 . S
C122 C123 1.391 . S
C122 C127 1.386 . S
C123 H84 0.930 . S
C123 C122 1.391 . S
C123 C124 1.375 . S
C124 H85 0.931 . S
C124 C123 1.375 . S
C124 C125 1.375 . S
C125 C124 1.375 . S
C125 C126 1.361 . S
C126 H86 0.930 . S
C126 C125 1.361 . S
C126 C127 1.399 . S
C127 H87 0.929 . S
C127 C122 1.386 . S
C127 C126 1.399 . S
C128 C107 1.485 . S
C128 C129 1.394 . S
C128 C133 1.360 . S
C129 H88 0.931 . S
C129 C128 1.394 . S
C129 C130 1.372 . S
C130 H89 0.930 . S
C130 C129 1.372 . S
C130 C131 1.397 . S
C131 C130 1.397 . S
C131 C132 1.390 . S
C131 C147 1.476 1_565 S
C132 H90 0.930 . S
C132 C131 1.390 . S
C132 C133 1.366 . S
C133 H91 0.932 . S
C133 C128 1.360 . S
C133 C132 1.366 . S
C134 C108 1.490 . S
C134 C135 1.380 . S
C134 C139 1.386 . S
C135 H92 0.930 . S
C135 C134 1.380 . S
C135 C136 1.381 . S
C136 H93 0.929 . S
C136 C135 1.381 . S
C136 C137 1.371 . S
C137 C136 1.371 . S
C137 C138 1.380 . S
C138 H94 0.931 . S
C138 C137 1.380 . S
C138 C139 1.387 . S
C139 H95 0.930 . S
C139 C134 1.386 . S
C139 C138 1.387 . S
C140 C109 1.519 . S
C140 C141 1.377 . S
C140 C145 1.361 . S
C141 H96 0.929 . S
C141 C140 1.377 . S
C141 C142 1.386 . S
C142 H97 0.931 . S
C142 C141 1.386 . S
C142 C143 1.363 . S
C143 C142 1.363 . S
C143 C144 1.385 . S
C144 H98 0.930 . S
C144 C143 1.385 . S
C144 C145 1.396 . S
C145 H99 0.929 . S
C145 C140 1.361 . S
C145 C144 1.396 . S
C146 O100 1.300 . S
C146 O101 1.209 . S
C146 C119 1.486 . S
C147 O102 1.199 . S
C147 O103 1.297 . S
C147 C131 1.476 1_545 S
H148 O174 0.856 . S
H149 O177 0.854 . S
H150 C185 0.930 . S
H151 C186 0.930 . S
H152 C188 0.930 . S
H153 C189 0.930 . S
H154 C191 0.931 . S
H155 C192 0.930 . S
H156 C194 0.930 . S
H157 C195 0.929 . S
H158 C197 0.930 . S
H159 C198 0.931 . S
H160 C200 0.930 . S
H161 C201 0.929 . S
H162 C203 0.931 . S
H163 C204 0.930 . S
H164 C206 0.930 . S
H165 C207 0.932 . S
H166 C209 0.930 . S
H167 C210 0.929 . S
H168 C212 0.931 . S
H169 C213 0.930 . S
H170 C215 0.929 . S
H171 C216 0.931 . S
H172 C218 0.930 . S
H173 C219 0.929 . S
O174 H148 0.856 . S
O174 C220 1.300 . S
O175 C220 1.209 . S
O176 C221 1.199 . S
O177 H149 0.854 . S
O177 C221 1.297 1_455 S
C178 C179 1.404 . S
C178 C183 1.397 . S
C178 C184 1.492 . S
C179 C178 1.404 . S
C179 C180 1.396 . S
C179 C190 1.492 . S
C180 C179 1.396 . S
C180 C181 1.397 . S
C180 C196 1.509 . S
C181 C180 1.397 . S
C181 C182 1.412 . S
C181 C202 1.485 . S
C182 C181 1.412 . S
C182 C183 1.388 . S
C182 C208 1.490 . S
C183 C178 1.397 . S
C183 C182 1.388 . S
C183 C214 1.519 . S
C184 C178 1.492 . S
C184 C185 1.363 1_545 S
C184 C189 1.390 . S
C185 H150 0.930 . S
C185 C184 1.363 1_565 S
C185 C186 1.372 . S
C186 H151 0.930 . S
C186 C185 1.372 . S
C186 C187 1.383 1_565 S
C187 C186 1.383 1_545 S
C187 C188 1.395 . S
C188 H152 0.930 . S
C188 C187 1.395 . S
C188 C189 1.362 . S
C189 H153 0.930 . S
C189 C184 1.390 . S
C189 C188 1.362 . S
C190 C179 1.492 . S
C190 C191 1.377 1_545 S
C190 C195 1.397 . S
C191 H154 0.931 . S
C191 C190 1.377 1_565 S
C191 C192 1.376 . S
C192 H155 0.930 . S
C192 C191 1.376 . S
C192 C193 1.376 . S
C193 C192 1.376 . S
C193 C194 1.378 1_565 S
C193 C220 1.486 . S
C194 H156 0.930 . S
C194 C193 1.378 1_545 S
C194 C195 1.376 . S
C195 H157 0.929 . S
C195 C190 1.397 . S
C195 C194 1.376 . S
C196 C180 1.509 . S
C196 C197 1.391 1_545 S
C196 C201 1.386 . S
C197 H158 0.930 . S
C197 C196 1.391 1_565 S
C197 C198 1.375 . S
C198 H159 0.931 . S
C198 C197 1.375 . S
C198 C199 1.375 . S
C199 C198 1.375 . S
C199 C200 1.361 1_565 S
C200 H160 0.930 . S
C200 C199 1.361 1_545 S
C200 C201 1.399 . S
C201 H161 0.929 . S
C201 C196 1.386 . S
C201 C200 1.399 . S
C202 C181 1.485 . S
C202 C203 1.394 . S
C202 C207 1.360 . S
C203 H162 0.931 . S
C203 C202 1.394 . S
C203 C204 1.372 . S
C204 H163 0.930 . S
C204 C203 1.372 . S
C204 C205 1.397 . S
C205 C204 1.397 . S
C205 C206 1.390 . S
C205 C221 1.476 . S
C206 H164 0.930 . S
C206 C205 1.390 . S
C206 C207 1.366 . S
C207 H165 0.932 . S
C207 C202 1.360 . S
C207 C206 1.366 . S
C208 C182 1.490 . S
C208 C209 1.380 1_554 S
C208 C213 1.386 . S
C209 H166 0.930 . S
C209 C208 1.380 1_556 S
C209 C210 1.381 . S
C210 H167 0.929 . S
C210 C209 1.381 . S
C210 C211 1.371 . S
C211 C210 1.371 . S
C211 C212 1.380 . S
C212 H168 0.931 . S
C212 C211 1.380 . S
C212 C213 1.387 1_556 S
C213 H169 0.930 . S
C213 C208 1.386 . S
C213 C212 1.387 1_554 S
C214 C183 1.519 . S
C214 C215 1.377 . S
C214 C219 1.361 . S
C215 H170 0.929 . S
C215 C214 1.377 . S
C215 C216 1.386 1_554 S
C216 H171 0.931 . S
C216 C215 1.386 1_556 S
C216 C217 1.363 . S
C217 C216 1.363 . S
C217 C218 1.385 1_556 S
C218 H172 0.930 . S
C218 C217 1.385 1_554 S
C218 C219 1.396 . S
C219 H173 0.929 . S
C219 C214 1.361 . S
C219 C218 1.396 . S
C220 O174 1.300 . S
C220 O175 1.209 . S
C220 C193 1.486 . S
C221 O176 1.199 . S
C221 O177 1.297 1_655 S
C221 C205 1.476 . S
H222 O248 0.856 . S
H223 O251 0.854 . S
H224 C259 0.930 . S
H225 C260 0.930 . S
H226 C262 0.930 . S
H227 C263 0.930 . S
H228 C265 0.931 . S
H229 C266 0.930 . S
H230 C268 0.930 . S
H231 C269 0.929 . S
H232 C271 0.930 . S
H233 C272 0.931 . S
H234 C274 0.930 . S
H235 C275 0.929 . S
H236 C277 0.931 . S
H237 C278 0.930 . S
H238 C280 0.930 . S
H239 C281 0.932 . S
H240 C283 0.930 . S
H241 C284 0.929 . S
H242 C286 0.931 . S
H243 C287 0.930 . S
H244 C289 0.929 . S
H245 C290 0.931 . S
H246 C292 0.930 . S
H247 C293 0.929 . S
O248 H222 0.856 . S
O248 C294 1.300 . S
O249 C294 1.209 . S
O250 C295 1.199 . S
O251 H223 0.854 . S
O251 C295 1.297 . S
C252 C253 1.404 . S
C252 C257 1.397 . S
C252 C258 1.492 . S
C253 C252 1.404 . S
C253 C254 1.396 . S
C253 C264 1.492 . S
C254 C253 1.396 . S
C254 C255 1.397 . S
C254 C270 1.509 . S
C255 C254 1.397 . S
C255 C256 1.412 . S
C255 C276 1.485 . S
C256 C255 1.412 . S
C256 C257 1.388 . S
C256 C282 1.490 . S
C257 C252 1.397 . S
C257 C256 1.388 . S
C257 C288 1.519 . S
C258 C252 1.492 . S
C258 C259 1.363 . S
C258 C263 1.390 . S
C259 H224 0.930 . S
C259 C258 1.363 . S
C259 C260 1.372 . S
C260 H225 0.930 . S
C260 C259 1.372 . S
C260 C261 1.383 . S
C261 C260 1.383 . S
C261 C262 1.395 . S
C262 H226 0.930 . S
C262 C261 1.395 . S
C262 C263 1.362 . S
C263 H227 0.930 . S
C263 C258 1.390 . S
C263 C262 1.362 . S
C264 C253 1.492 . S
C264 C265 1.377 . S
C264 C269 1.397 . S
C265 H228 0.931 . S
C265 C264 1.377 . S
C265 C266 1.376 . S
C266 H229 0.930 . S
C266 C265 1.376 . S
C266 C267 1.376 . S
C267 C266 1.376 . S
C267 C268 1.378 . S
C267 C294 1.486 . S
C268 H230 0.930 . S
C268 C267 1.378 . S
C268 C269 1.376 . S
C269 H231 0.929 . S
C269 C264 1.397 . S
C269 C268 1.376 . S
C270 C254 1.509 . S
C270 C271 1.391 . S
C270 C275 1.386 . S
C271 H232 0.930 . S
C271 C270 1.391 . S
C271 C272 1.375 . S
C272 H233 0.931 . S
C272 C271 1.375 . S
C272 C273 1.375 . S
C273 C272 1.375 . S
C273 C274 1.361 . S
C274 H234 0.930 . S
C274 C273 1.361 . S
C274 C275 1.399 . S
C275 H235 0.929 . S
C275 C270 1.386 . S
C275 C274 1.399 . S
C276 C255 1.485 . S
C276 C277 1.394 . S
C276 C281 1.360 . S
C277 H236 0.931 . S
C277 C276 1.394 . S
C277 C278 1.372 . S
C278 H237 0.930 . S
C278 C277 1.372 . S
C278 C279 1.397 . S
C279 C278 1.397 . S
C279 C280 1.390 . S
C279 C295 1.476 . S
C280 H238 0.930 . S
C280 C279 1.390 . S
C280 C281 1.366 . S
C281 H239 0.932 . S
C281 C276 1.360 . S
C281 C280 1.366 . S
C282 C256 1.490 . S
C282 C283 1.380 . S
C282 C287 1.386 . S
C283 H240 0.930 . S
C283 C282 1.380 . S
C283 C284 1.381 . S
C284 H241 0.929 . S
C284 C283 1.381 . S
C284 C285 1.371 . S
C285 C284 1.371 . S
C285 C286 1.380 . S
C286 H242 0.931 . S
C286 C285 1.380 . S
C286 C287 1.387 . S
C287 H243 0.930 . S
C287 C282 1.386 . S
C287 C286 1.387 . S
C288 C257 1.519 . S
C288 C289 1.377 . S
C288 C293 1.361 . S
C289 H244 0.929 . S
C289 C288 1.377 . S
C289 C290 1.386 . S
C290 H245 0.931 . S
C290 C289 1.386 . S
C290 C291 1.363 . S
C291 C290 1.363 . S
C291 C292 1.385 . S
C292 H246 0.930 . S
C292 C291 1.385 . S
C292 C293 1.396 . S
C293 H247 0.929 . S
C293 C288 1.361 . S
C293 C292 1.396 . S
C294 O248 1.300 . S
C294 O249 1.209 . S
C294 C267 1.486 . S
C295 O250 1.199 . S
C295 O251 1.297 . S
C295 C279 1.476 . S
H296 O322 0.856 . S
H297 O325 0.854 . S
H298 C333 0.930 . S
H299 C334 0.930 . S
H300 C336 0.930 . S
H301 C337 0.930 . S
H302 C339 0.931 . S
H303 C340 0.930 . S
H304 C342 0.930 1_455 S
H305 C343 0.929 . S
H306 C345 0.930 . S
H307 C346 0.931 . S
H308 C348 0.938 . S
H309 C349 0.929 . S
H310 C351 0.931 . S
H311 C352 0.930 . S
H312 C354 0.930 . S
H313 C355 0.932 . S
H314 C357 0.930 . S
H315 C358 0.929 . S
H316 C360 0.931 . S
H317 C361 0.930 . S
H318 C363 0.929 . S
H319 C364 0.931 . S
H320 C366 0.930 . S
H321 C367 0.929 . S
O322 H296 0.856 . S
O322 C368 1.300 . S
O323 C368 1.209 1_455 S
O324 C369 1.199 . S
O325 H297 0.854 . S
O325 C369 1.297 . S
C326 C327 1.404 . S
C326 C331 1.397 . S
C326 C332 1.492 . S
C327 C326 1.404 . S
C327 C328 1.396 . S
C327 C338 1.492 . S
C328 C327 1.396 . S
C328 C329 1.397 . S
C328 C344 1.509 . S
C329 C328 1.397 . S
C329 C330 1.412 . S
C329 C350 1.485 . S
C330 C329 1.412 . S
C330 C331 1.388 . S
C330 C356 1.490 . S
C331 C326 1.397 . S
C331 C330 1.388 . S
C331 C362 1.519 . S
C332 C326 1.492 . S
C332 C333 1.363 . S
C332 C337 1.390 . S
C333 H298 0.930 . S
C333 C332 1.363 . S
C333 C334 1.372 . S
C334 H299 0.930 . S
C334 C333 1.372 . S
C334 C335 1.383 . S
C335 C334 1.383 . S
C335 C336 1.395 . S
C336 H300 0.930 . S
C336 C335 1.395 . S
C336 C337 1.362 . S
C337 H301 0.930 . S
C337 C332 1.390 . S
C337 C336 1.362 . S
C338 C327 1.492 . S
C338 C339 1.377 . S
C338 C343 1.397 . S
C339 H302 0.931 . S
C339 C338 1.377 . S
C339 C340 1.376 . S
C340 H303 0.930 . S
C340 C339 1.376 . S
C340 C341 1.376 . S
C341 C340 1.376 . S
C341 C342 1.378 . S
C341 C368 1.486 . S
C342 H304 0.930 1_655 S
C342 C341 1.378 . S
C342 C343 1.376 . S
C343 H305 0.929 . S
C343 C338 1.397 . S
C343 C342 1.376 . S
C344 C328 1.509 . S
C344 C345 1.391 . S
C344 C349 1.386 . S
C345 H306 0.930 . S
C345 C344 1.391 . S
C345 C346 1.375 . S
C346 H307 0.931 . S
C346 C345 1.375 . S
C346 C347 1.375 . S
C347 C346 1.375 . S
C347 C348 1.361 . S
C348 H308 0.938 . S
C348 C347 1.361 . S
C348 C349 1.399 . S
C349 H309 0.929 . S
C349 C344 1.386 . S
C349 C348 1.399 . S
C350 C329 1.485 . S
C350 C351 1.394 . S
C350 C355 1.360 . S
C351 H310 0.931 . S
C351 C350 1.394 . S
C351 C352 1.372 . S
C352 H311 0.930 . S
C352 C351 1.372 . S
C352 C353 1.397 . S
C353 C352 1.397 . S
C353 C354 1.390 . S
C353 C369 1.476 . S
C354 H312 0.930 . S
C354 C353 1.390 . S
C354 C355 1.366 . S
C355 H313 0.932 . S
C355 C350 1.360 . S
C355 C354 1.366 . S
C356 C330 1.490 . S
C356 C357 1.380 . S
C356 C361 1.386 . S
C357 H314 0.930 . S
C357 C356 1.380 . S
C357 C358 1.381 . S
C358 H315 0.929 . S
C358 C357 1.381 . S
C358 C359 1.371 . S
C359 C358 1.371 . S
C359 C360 1.380 . S
C360 H316 0.931 . S
C360 C359 1.380 . S
C360 C361 1.387 . S
C361 H317 0.930 . S
C361 C356 1.386 . S
C361 C360 1.387 . S
C362 C331 1.519 . S
C362 C363 1.377 . S
C362 C367 1.361 . S
C363 H318 0.929 . S
C363 C362 1.377 . S
C363 C364 1.386 . S
C364 H319 0.931 . S
C364 C363 1.386 . S
C364 C365 1.363 . S
C365 C364 1.363 . S
C365 C366 1.385 . S
C366 H320 0.930 . S
C366 C365 1.385 . S
C366 C367 1.396 . S
C367 H321 0.929 . S
C367 C362 1.361 . S
C367 C366 1.396 . S
C368 O322 1.300 . S
C368 O323 1.209 1_655 S
C368 C341 1.486 . S
C369 O324 1.199 . S
C369 O325 1.297 . S
C369 C353 1.476 . S
H370 O396 0.856 . S
H371 O399 0.854 . S
H372 C407 0.930 . S
H373 C408 0.930 . S
H374 C410 0.930 . S
H375 C411 0.930 . S
H376 C413 0.931 . S
H377 C414 0.930 . S
H378 C416 0.930 . S
H379 C417 0.929 . S
H380 C419 0.930 . S
H381 C420 0.931 . S
H382 C422 0.930 . S
H383 C423 0.929 . S
H384 C425 0.931 . S
H385 C426 0.930 . S
H386 C428 0.930 . S
H387 C429 0.932 . S
H388 C431 0.930 . S
H389 C432 0.929 1_455 S
H390 C434 0.931 . S
H391 C435 0.930 . S
H392 C437 0.929 . S
H393 C438 0.931 1_545 S
H394 C440 0.930 . S
H395 C441 0.929 . S
O396 H370 0.856 . S
O396 C442 1.300 . S
O397 C442 1.209 . S
O398 C443 1.199 . S
O399 H371 0.854 . S
O399 C443 1.297 . S
C400 C401 1.404 . S
C400 C405 1.397 . S
C400 C406 1.492 . S
C401 C400 1.404 . S
C401 C402 1.396 . S
C401 C412 1.492 . S
C402 C401 1.396 . S
C402 C403 1.397 . S
C402 C418 1.509 . S
C403 C402 1.397 . S
C403 C404 1.412 . S
C403 C424 1.485 . S
C404 C403 1.412 . S
C404 C405 1.388 . S
C404 C430 1.490 . S
C405 C400 1.397 . S
C405 C404 1.388 . S
C405 C436 1.519 . S
C406 C400 1.492 . S
C406 C407 1.363 . S
C406 C411 1.390 . S
C407 H372 0.930 . S
C407 C406 1.363 . S
C407 C408 1.372 1_565 S
C408 H373 0.930 . S
C408 C407 1.372 1_545 S
C408 C409 1.383 . S
C409 C408 1.383 . S
C409 C410 1.395 . S
C410 H374 0.930 . S
C410 C409 1.395 . S
C410 C411 1.362 1_545 S
C411 H375 0.930 . S
C411 C406 1.390 . S
C411 C410 1.362 1_565 S
C412 C401 1.492 . S
C412 C413 1.377 . S
C412 C417 1.397 . S
C413 H376 0.931 . S
C413 C412 1.377 . S
C413 C414 1.376 . S
C414 H377 0.930 . S
C414 C413 1.376 . S
C414 C415 1.376 . S
C415 C414 1.376 . S
C415 C416 1.378 . S
C415 C442 1.486 . S
C416 H378 0.930 . S
C416 C415 1.378 . S
C416 C417 1.376 . S
C417 H379 0.929 . S
C417 C412 1.397 . S
C417 C416 1.376 . S
C418 C402 1.509 . S
C418 C419 1.391 . S
C418 C423 1.386 . S
C419 H380 0.930 . S
C419 C418 1.391 . S
C419 C420 1.375 . S
C420 H381 0.931 . S
C420 C419 1.375 . S
C420 C421 1.375 . S
C421 C420 1.375 . S
C421 C422 1.361 . S
C422 H382 0.930 . S
C422 C421 1.361 . S
C422 C423 1.399 . S
C423 H383 0.929 . S
C423 C418 1.386 . S
C423 C422 1.399 . S
C424 C403 1.485 . S
C424 C425 1.394 . S
C424 C429 1.360 . S
C425 H384 0.931 . S
C425 C424 1.394 . S
C425 C426 1.372 . S
C426 H385 0.930 . S
C426 C425 1.372 . S
C426 C427 1.397 . S
C427 C426 1.397 . S
C427 C428 1.390 . S
C427 C443 1.476 . S
C428 H386 0.930 . S
C428 C427 1.390 . S
C428 C429 1.366 . S
C429 H387 0.932 . S
C429 C424 1.360 . S
C429 C428 1.366 . S
C430 C404 1.490 . S
C430 C431 1.380 . S
C430 C435 1.386 . S
C431 H388 0.930 . S
C431 C430 1.380 . S
C431 C432 1.381 . S
C432 H389 0.929 1_655 S
C432 C431 1.381 . S
C432 C433 1.371 . S
C433 C432 1.371 . S
C433 C434 1.380 . S
C434 H390 0.931 . S
C434 C433 1.380 . S
C434 C435 1.387 . S
C435 H391 0.930 . S
C435 C430 1.386 . S
C435 C434 1.387 . S
C436 C405 1.519 . S
C436 C437 1.377 . S
C436 C441 1.361 . S
C437 H392 0.929 . S
C437 C436 1.377 . S
C437 C438 1.386 . S
C438 H393 0.931 1_565 S
C438 C437 1.386 . S
C438 C439 1.363 1_565 S
C439 C438 1.363 1_545 S
C439 C440 1.385 1_545 S
C440 H394 0.930 . S
C440 C439 1.385 1_565 S
C440 C441 1.396 . S
C441 H395 0.929 . S
C441 C436 1.361 . S
C441 C440 1.396 . S
C442 O396 1.300 . S
C442 O397 1.209 . S
C442 C415 1.486 . S
C443 O398 1.199 . S
C443 O399 1.297 . S
C443 C427 1.476 . S
H444 O470 0.856 . S
H445 O473 0.854 . S
H446 C481 0.930 . S
H447 C482 0.930 . S
H448 C484 0.930 . S
H449 C485 0.930 . S
H450 C487 0.931 . S
H451 C488 0.930 . S
H452 C490 0.930 . S
H453 C491 0.932 . S
H454 C493 0.930 . S
H455 C494 0.931 . S
H456 C496 0.930 . S
H457 C497 0.929 1_554 S
H458 C499 0.931 . S
H459 C500 0.930 . S
H460 C502 0.930 . S
H461 C503 0.932 . S
H462 C505 0.930 . S
H463 C506 0.929 . S
H464 C508 0.931 . S
H465 C509 0.930 . S
H466 C511 0.929 . S
H467 C512 0.931 . S
H468 C514 0.930 . S
H469 C515 0.929 . S
O470 H444 0.856 . S
O470 C516 1.300 . S
O471 C516 1.209 . S
O472 C517 1.199 . S
O473 H445 0.854 . S
O473 C517 1.297 . S
C474 C475 1.404 . S
C474 C479 1.397 . S
C474 C480 1.492 . S
C475 C474 1.404 . S
C475 C476 1.396 . S
C475 C486 1.492 1_554 S
C476 C475 1.396 . S
C476 C477 1.397 . S
C476 C492 1.509 1_554 S
C477 C476 1.397 . S
C477 C478 1.412 . S
C477 C498 1.485 . S
C478 C477 1.412 . S
C478 C479 1.388 . S
C478 C504 1.490 . S
C479 C474 1.397 . S
C479 C478 1.388 . S
C479 C510 1.519 . S
C480 C474 1.492 . S
C480 C481 1.363 1_554 S
C480 C485 1.390 . S
C481 H446 0.930 . S
C481 C480 1.363 1_556 S
C481 C482 1.372 . S
C482 H447 0.930 . S
C482 C481 1.372 . S
C482 C483 1.383 . S
C483 C482 1.383 . S
C483 C484 1.395 1_556 S
C484 H448 0.930 . S
C484 C483 1.395 1_554 S
C484 C485 1.362 . S
C485 H449 0.930 . S
C485 C480 1.390 . S
C485 C484 1.362 . S
C486 C475 1.492 1_556 S
C486 C487 1.377 . S
C486 C491 1.397 . S
C487 H450 0.931 . S
C487 C486 1.377 . S
C487 C488 1.376 . S
C488 H451 0.930 . S
C488 C487 1.376 . S
C488 C489 1.376 . S
C489 C488 1.376 . S
C489 C490 1.378 . S
C489 C516 1.486 . S
C490 H452 0.930 . S
C490 C489 1.378 . S
C490 C491 1.376 . S
C491 H453 0.932 . S
C491 C486 1.397 . S
C491 C490 1.376 . S
C492 C476 1.509 1_556 S
C492 C493 1.391 . S
C492 C497 1.386 . S
C493 H454 0.930 . S
C493 C492 1.391 . S
C493 C494 1.375 . S
C494 H455 0.931 . S
C494 C493 1.375 . S
C494 C495 1.375 . S
C495 C494 1.375 . S
C495 C496 1.361 . S
C496 H456 0.930 . S
C496 C495 1.361 . S
C496 C497 1.399 . S
C497 H457 0.929 1_556 S
C497 C492 1.386 . S
C497 C496 1.399 . S
C498 C477 1.485 . S
C498 C499 1.394 . S
C498 C503 1.360 . S
C499 H458 0.931 . S
C499 C498 1.394 . S
C499 C500 1.372 . S
C500 H459 0.930 . S
C500 C499 1.372 . S
C500 C501 1.397 . S
C501 C500 1.397 . S
C501 C502 1.390 . S
C501 C517 1.476 . S
C502 H460 0.930 . S
C502 C501 1.390 . S
C502 C503 1.366 . S
C503 H461 0.932 . S
C503 C498 1.360 . S
C503 C502 1.366 . S
C504 C478 1.490 . S
C504 C505 1.380 . S
C504 C509 1.386 . S
C505 H462 0.930 . S
C505 C504 1.380 . S
C505 C506 1.381 . S
C506 H463 0.929 . S
C506 C505 1.381 . S
C506 C507 1.371 . S
C507 C506 1.371 . S
C507 C508 1.380 . S
C508 H464 0.931 . S
C508 C507 1.380 . S
C508 C509 1.387 . S
C509 H465 0.930 . S
C509 C504 1.386 . S
C509 C508 1.387 . S
C510 C479 1.519 . S
C510 C511 1.377 . S
C510 C515 1.361 . S
C511 H466 0.929 . S
C511 C510 1.377 . S
C511 C512 1.386 . S
C512 H467 0.931 . S
C512 C511 1.386 . S
C512 C513 1.363 . S
C513 C512 1.363 . S
C513 C514 1.385 . S
C514 H468 0.930 . S
C514 C513 1.385 . S
C514 C515 1.396 . S
C515 H469 0.929 . S
C515 C510 1.361 . S
C515 C514 1.396 . S
C516 O470 1.300 . S
C516 O471 1.209 . S
C516 C489 1.486 . S
C517 O472 1.199 . S
C517 O473 1.297 . S
C517 C501 1.476 . S
H518 O544 0.856 . S
H519 O547 0.854 . S
H520 C555 0.930 . S
H521 C556 0.930 . S
H522 C558 0.930 . S
H523 C559 0.930 . S
H524 C561 0.931 . S
H525 C562 0.930 . S
H526 C564 0.930 . S
H527 C565 0.929 . S
H528 C567 0.930 . S
H529 C568 0.931 . S
H530 C570 0.930 . S
H531 C571 0.929 . S
H532 C573 0.931 . S
H533 C574 0.930 . S
H534 C576 0.930 . S
H535 C577 0.932 . S
H536 C579 0.930 . S
H537 C580 0.929 . S
H538 C582 0.931 . S
H539 C583 0.930 . S
H540 C585 0.929 . S
H541 C586 0.935 . S
H542 C588 0.930 . S
H543 C589 0.929 . S
O544 H518 0.856 . S
O544 C590 1.300 . S
O545 C590 1.209 . S
O546 C591 1.199 . S
O547 H519 0.854 . S
O547 C591 1.297 . S
C548 C549 1.404 . S
C548 C553 1.397 . S
C548 C554 1.492 . S
C549 C548 1.404 . S
C549 C550 1.396 . S
C549 C560 1.492 . S
C550 C549 1.396 . S
C550 C551 1.397 . S
C550 C566 1.509 . S
C551 C550 1.397 . S
C551 C552 1.412 . S
C551 C572 1.485 . S
C552 C551 1.412 . S
C552 C553 1.388 . S
C552 C578 1.490 . S
C553 C548 1.397 . S
C553 C552 1.388 . S
C553 C584 1.519 . S
C554 C548 1.492 . S
C554 C555 1.363 . S
C554 C559 1.390 . S
C555 H520 0.930 . S
C555 C554 1.363 . S
C555 C556 1.372 1_455 S
C556 H521 0.930 . S
C556 C555 1.372 1_655 S
C556 C557 1.383 . S
C557 C556 1.383 . S
C557 C558 1.395 . S
C558 H522 0.930 . S
C558 C557 1.395 . S
C558 C559 1.362 1_655 S
C559 H523 0.930 . S
C559 C554 1.390 . S
C559 C558 1.362 1_455 S
C560 C549 1.492 . S
C560 C561 1.377 . S
C560 C565 1.397 . S
C561 H524 0.931 . S
C561 C560 1.377 . S
C561 C562 1.376 . S
C562 H525 0.930 . S
C562 C561 1.376 . S
C562 C563 1.376 . S
C563 C562 1.376 . S
C563 C564 1.378 . S
C563 C590 1.486 . S
C564 H526 0.930 . S
C564 C563 1.378 . S
C564 C565 1.376 . S
C565 H527 0.929 . S
C565 C560 1.397 . S
C565 C564 1.376 . S
C566 C550 1.509 . S
C566 C567 1.391 . S
C566 C571 1.386 . S
C567 H528 0.930 . S
C567 C566 1.391 . S
C567 C568 1.375 . S
C568 H529 0.931 . S
C568 C567 1.375 . S
C568 C569 1.375 . S
C569 C568 1.375 . S
C569 C570 1.361 . S
C570 H530 0.930 . S
C570 C569 1.361 . S
C570 C571 1.399 . S
C571 H531 0.929 . S
C571 C566 1.386 . S
C571 C570 1.399 . S
C572 C551 1.485 . S
C572 C573 1.394 . S
C572 C577 1.360 . S
C573 H532 0.931 . S
C573 C572 1.394 . S
C573 C574 1.372 . S
C574 H533 0.930 . S
C574 C573 1.372 . S
C574 C575 1.397 . S
C575 C574 1.397 . S
C575 C576 1.390 . S
C575 C591 1.476 . S
C576 H534 0.930 . S
C576 C575 1.390 . S
C576 C577 1.366 . S
C577 H535 0.932 . S
C577 C572 1.360 . S
C577 C576 1.366 . S
C578 C552 1.490 . S
C578 C579 1.380 . S
C578 C583 1.386 . S
C579 H536 0.930 . S
C579 C578 1.380 . S
C579 C580 1.381 . S
C580 H537 0.929 . S
C580 C579 1.381 . S
C580 C581 1.371 . S
C581 C580 1.371 . S
C581 C582 1.380 . S
C582 H538 0.931 . S
C582 C581 1.380 . S
C582 C583 1.387 . S
C583 H539 0.930 . S
C583 C578 1.386 . S
C583 C582 1.387 . S
C584 C553 1.519 . S
C584 C585 1.377 . S
C584 C589 1.361 . S
C585 H540 0.929 . S
C585 C584 1.377 . S
C585 C586 1.386 . S
C586 H541 0.935 . S
C586 C585 1.386 . S
C586 C587 1.363 . S
C587 C586 1.363 . S
C587 C588 1.385 . S
C588 H542 0.930 . S
C588 C587 1.385 . S
C588 C589 1.396 . S
C589 H543 0.929 . S
C589 C584 1.361 . S
C589 C588 1.396 . S
C590 O544 1.300 . S
C590 O545 1.209 . S
C590 C563 1.486 . S
C591 O546 1.199 . S
C591 O547 1.297 . S
C591 C575 1.476 . S
C592 O619 1.312 . S
C592 O620 1.208 . S
C593 O614 1.331 . S
C593 O617 1.244 . S
C594 O616 1.264 . S
C594 O618 1.273 . S
Mg595 O597 1.936 . S
Mg595 O604 2.081 . S
Mg595 O606 2.023 . S
Mg595 O610 2.031 . S
Mg595 O619 2.291 . S
Mg596 O597 1.963 . S
Mg596 O607 1.942 . S
Mg596 O608 1.955 . S
Mg596 O615 1.986 . S
O597 Mg595 1.936 . S
O597 Mg596 1.963 . S
O597 Mg598 1.915 . S
Mg598 O597 1.915 . S
Mg598 O599 1.915 . S
Mg598 O603 2.013 . S
Mg598 O609 2.114 . S
Mg598 O613 2.013 . S
Mg598 O619 2.114 . S
O599 Mg598 1.915 . S
O599 Mg600 1.936 . S
O599 Mg601 1.963 1_455 S
Mg600 O599 1.936 . S
Mg600 O609 2.291 . S
Mg600 O614 2.081 1_455 S
Mg600 O616 2.023 1_455 S
Mg600 O620 2.031 . S
Mg601 O599 1.963 1_655 S
Mg601 O605 1.986 . S
Mg601 O617 1.942 . S
Mg601 O618 1.955 . S
C602 O613 1.191 . S
C602 O615 1.307 . S
O603 Mg598 2.013 . S
O603 C622 1.191 1_455 S
O604 Mg595 2.081 . S
O604 C612 1.331 . S
O605 Mg601 1.986 . S
O605 C622 1.307 . S
O606 Mg595 2.023 . S
O606 C621 1.264 . S
O607 Mg596 1.942 . S
O607 C612 1.244 . S
O608 Mg596 1.955 . S
O608 C621 1.273 . S
O609 Mg598 2.114 . S
O609 Mg600 2.291 . S
O609 C611 1.312 . S
O610 Mg595 2.031 . S
O610 C611 1.208 . S
C611 O609 1.312 . S
C611 O610 1.208 . S
C612 O604 1.331 . S
C612 O607 1.244 . S
O613 Mg598 2.013 . S
O613 C602 1.191 . S
O614 C593 1.331 . S
O614 Mg600 2.081 1_655 S
O615 Mg596 1.986 . S
O615 C602 1.307 . S
O616 C594 1.264 . S
O616 Mg600 2.023 1_655 S
O617 C593 1.244 . S
O617 Mg601 1.942 . S
O618 C594 1.273 . S
O618 Mg601 1.955 . S
O619 C592 1.312 . S
O619 Mg595 2.291 . S
O619 Mg598 2.114 . S
O620 C592 1.208 . S
O620 Mg600 2.031 . S
C621 O606 1.264 . S
C621 O608 1.273 . S
C622 O603 1.191 1_655 S
C622 O605 1.307 . S
C623 O650 1.312 . S
C623 O651 1.208 . S
C624 O645 1.331 . S
C624 O648 1.244 . S
C625 O647 1.264 . S
C625 O649 1.273 . S
Mg626 O628 1.936 . S
Mg626 O635 2.081 . S
Mg626 O637 2.023 . S
Mg626 O641 2.031 . S
Mg626 O650 2.291 . S
Mg627 O628 1.963 . S
Mg627 O638 1.942 . S
Mg627 O639 1.955 . S
Mg627 O646 1.986 . S
O628 Mg626 1.936 . S
O628 Mg627 1.963 . S
O628 Mg629 1.915 . S
Mg629 O628 1.915 . S
Mg629 O630 1.915 . S
Mg629 O634 2.013 . S
Mg629 O640 2.114 . S
Mg629 O644 2.013 . S
Mg629 O650 2.114 . S
O630 Mg629 1.915 . S
O630 Mg631 1.936 . S
O630 Mg632 1.963 . S
Mg631 O630 1.936 . S
Mg631 O640 2.291 . S
Mg631 O645 2.081 . S
Mg631 O647 2.023 . S
Mg631 O651 2.031 . S
Mg632 O630 1.963 . S
Mg632 O636 1.986 . S
Mg632 O648 1.942 . S
Mg632 O649 1.955 . S
C633 O644 1.191 . S
C633 O646 1.307 . S
O634 Mg629 2.013 . S
O634 C653 1.191 . S
O635 Mg626 2.081 . S
O635 C643 1.331 . S
O636 Mg632 1.986 . S
O636 C653 1.307 . S
O637 Mg626 2.023 . S
O637 C652 1.264 . S
O638 Mg627 1.942 . S
O638 C643 1.244 . S
O639 Mg627 1.955 . S
O639 C652 1.273 . S
O640 Mg629 2.114 . S
O640 Mg631 2.291 . S
O640 C642 1.312 . S
O641 Mg626 2.031 . S
O641 C642 1.208 . S
C642 O640 1.312 . S
C642 O641 1.208 . S
C643 O635 1.331 . S
C643 O638 1.244 . S
O644 Mg629 2.013 . S
O644 C633 1.191 . S
O645 C624 1.331 . S
O645 Mg631 2.081 . S
O646 Mg627 1.986 . S
O646 C633 1.307 . S
O647 C625 1.264 . S
O647 Mg631 2.023 . S
O648 C624 1.244 . S
O648 Mg632 1.942 . S
O649 C625 1.273 . S
O649 Mg632 1.955 . S
O650 C623 1.312 . S
O650 Mg626 2.291 . S
O650 Mg629 2.114 . S
O651 C623 1.208 . S
O651 Mg631 2.031 . S
C652 O637 1.264 . S
C652 O639 1.273 . S
C653 O634 1.191 . S
C653 O636 1.307 . S
C654 O681 1.312 . S
C654 O682 1.208 . S
C655 O676 1.331 . S
C655 O679 1.244 . S
C656 O678 1.264 . S
C656 O680 1.273 . S
Mg657 O659 1.936 . S
Mg657 O666 2.081 . S
Mg657 O668 2.023 . S
Mg657 O672 2.031 . S
Mg657 O681 2.291 . S
Mg658 O659 1.963 . S
Mg658 O669 1.942 . S
Mg658 O670 1.955 . S
Mg658 O677 1.986 . S
O659 Mg657 1.936 . S
O659 Mg658 1.963 . S
O659 Mg660 1.915 . S
Mg660 O659 1.915 . S
Mg660 O661 1.915 . S
Mg660 O665 2.013 . S
Mg660 O671 2.114 . S
Mg660 O675 2.013 . S
Mg660 O681 2.114 . S
O661 Mg660 1.915 . S
O661 Mg662 1.936 . S
O661 Mg663 1.963 . S
Mg662 O661 1.936 . S
Mg662 O671 2.291 . S
Mg662 O676 2.081 . S
Mg662 O678 2.023 . S
Mg662 O682 2.031 . S
Mg663 O661 1.963 . S
Mg663 O667 1.986 . S
Mg663 O679 1.942 . S
Mg663 O680 1.955 . S
C664 O675 1.191 . S
C664 O677 1.307 . S
O665 Mg660 2.013 . S
O665 C684 1.191 . S
O666 Mg657 2.081 . S
O666 C674 1.331 . S
O667 Mg663 1.986 . S
O667 C684 1.307 . S
O668 Mg657 2.023 . S
O668 C683 1.264 . S
O669 Mg658 1.942 . S
O669 C674 1.244 . S
O670 Mg658 1.955 . S
O670 C683 1.273 . S
O671 Mg660 2.114 . S
O671 Mg662 2.291 . S
O671 C673 1.312 . S
O672 Mg657 2.031 . S
O672 C673 1.208 . S
C673 O671 1.312 . S
C673 O672 1.208 . S
C674 O666 1.331 . S
C674 O669 1.244 . S
O675 Mg660 2.013 . S
O675 C664 1.191 . S
O676 C655 1.331 . S
O676 Mg662 2.081 . S
O677 Mg658 1.986 . S
O677 C664 1.307 . S
O678 C656 1.264 . S
O678 Mg662 2.023 . S
O679 C655 1.244 . S
O679 Mg663 1.942 . S
O680 C656 1.273 . S
O680 Mg663 1.955 . S
O681 C654 1.312 . S
O681 Mg657 2.291 . S
O681 Mg660 2.114 . S
O682 C654 1.208 . S
O682 Mg662 2.031 . S
C683 O668 1.264 . S
C683 O670 1.273 . S
C684 O665 1.191 . S
C684 O667 1.307 . S
C685 O712 1.312 . S
C685 O713 1.208 . S
C686 O707 1.331 . S
C686 O710 1.244 . S
C687 O709 1.264 . S
C687 O711 1.273 . S
Mg688 O690 1.936 . S
Mg688 O697 2.081 1_455 S
Mg688 O699 2.023 1_455 S
Mg688 O703 2.031 . S
Mg688 O712 2.291 . S
Mg689 O690 1.963 1_655 S
Mg689 O700 1.942 . S
Mg689 O701 1.955 . S
Mg689 O708 1.986 . S
O690 Mg688 1.936 . S
O690 Mg689 1.963 1_455 S
O690 Mg691 1.915 . S
Mg691 O690 1.915 . S
Mg691 O692 1.915 . S
Mg691 O696 2.013 . S
Mg691 O702 2.114 . S
Mg691 O706 2.013 . S
Mg691 O712 2.114 . S
O692 Mg691 1.915 . S
O692 Mg693 1.936 . S
O692 Mg694 1.963 . S
Mg693 O692 1.936 . S
Mg693 O702 2.291 . S
Mg693 O707 2.081 . S
Mg693 O709 2.023 . S
Mg693 O713 2.031 . S
Mg694 O692 1.963 . S
Mg694 O698 1.986 . S
Mg694 O710 1.942 . S
Mg694 O711 1.955 . S
C695 O706 1.191 1_655 S
C695 O708 1.307 . S
O696 Mg691 2.013 . S
O696 C715 1.191 . S
O697 Mg688 2.081 1_655 S
O697 C705 1.331 . S
O698 Mg694 1.986 . S
O698 C715 1.307 . S
O699 Mg688 2.023 1_655 S
O699 C714 1.264 . S
O700 Mg689 1.942 . S
O700 C705 1.244 . S
O701 Mg689 1.955 . S
O701 C714 1.273 . S
O702 Mg691 2.114 . S
O702 Mg693 2.291 . S
O702 C704 1.312 . S
O703 Mg688 2.031 . S
O703 C704 1.208 . S
C704 O702 1.312 . S
C704 O703 1.208 . S
C705 O697 1.331 . S
C705 O700 1.244 . S
O706 Mg691 2.013 . S
O706 C695 1.191 1_455 S
O707 C686 1.331 . S
O707 Mg693 2.081 . S
O708 Mg689 1.986 . S
O708 C695 1.307 . S
O709 C687 1.264 . S
O709 Mg693 2.023 . S
O710 C686 1.244 . S
O710 Mg694 1.942 . S
O711 C687 1.273 . S
O711 Mg694 1.955 . S
O712 C685 1.312 . S
O712 Mg688 2.291 . S
O712 Mg691 2.114 . S
O713 C685 1.208 . S
O713 Mg693 2.031 . S
C714 O699 1.264 . S
C714 O701 1.273 . S
C715 O696 1.191 . S
C715 O698 1.307 . S
H716 C722 0.930 . S
H717 C725 0.930 . S
H718 C726 0.930 . S
H719 C727 0.930 . S
H720 C730 0.930 . S
H721 C731 0.930 . S
C722 H716 0.930 . S
C722 C723 1.355 . S
C722 C724 1.415 . S
C723 C722 1.355 . S
C723 C725 1.419 . S
C724 C722 1.415 . S
C724 C729 1.425 . S
C724 C731 1.409 . S
C725 H717 0.930 . S
C725 C723 1.419 . S
C725 C726 1.362 . S
C726 H718 0.930 . S
C726 C725 1.362 . S
C726 C729 1.409 . S
C727 H719 0.930 . S
C727 C728 1.355 . S
C727 C729 1.415 . S
C728 C727 1.355 . S
C728 C730 1.419 . S
C729 C724 1.425 . S
C729 C726 1.409 . S
C729 C727 1.415 . S
C730 H720 0.930 . S
C730 C728 1.419 . S
C730 C731 1.362 . S
C731 H721 0.930 . S
C731 C724 1.409 . S
C731 C730 1.362 . S
H732 C738 0.930 . S
H733 C741 0.929 1_565 S
H734 C742 0.930 . S
H735 C743 0.930 . S
H736 C746 0.930 . S
H737 C747 0.930 1_565 S
C738 H732 0.930 . S
C738 C739 1.355 . S
C738 C740 1.415 1_565 S
C739 C738 1.355 . S
C739 C741 1.405 1_565 S
C740 C738 1.415 1_545 S
C740 C745 1.425 . S
C740 C747 1.409 . S
C741 H733 0.929 1_545 S
C741 C739 1.405 1_545 S
C741 C742 1.378 . S
C742 H734 0.930 . S
C742 C741 1.378 . S
C742 C745 1.409 . S
C743 H735 0.930 . S
C743 C744 1.355 . S
C743 C745 1.415 . S
C744 C743 1.355 . S
C744 C746 1.419 . S
C745 C740 1.425 . S
C745 C742 1.409 . S
C745 C743 1.415 . S
C746 H736 0.930 . S
C746 C744 1.419 . S
C746 C747 1.362 . S
C747 H737 0.930 1_545 S
C747 C740 1.409 . S
C747 C746 1.362 . S
H748 C754 0.930 . S
H749 C757 0.930 . S
H750 C758 0.930 . S
H751 C759 0.930 . S
H752 C762 0.930 . S
H753 C763 0.930 . S
C754 H748 0.930 . S
C754 C755 1.355 . S
C754 C756 1.415 . S
C755 C754 1.355 . S
C755 C757 1.419 . S
C756 C754 1.415 . S
C756 C761 1.425 . S
C756 C763 1.409 . S
C757 H749 0.930 . S
C757 C755 1.419 . S
C757 C758 1.362 . S
C758 H750 0.930 . S
C758 C757 1.362 . S
C758 C761 1.409 . S
C759 H751 0.930 . S
C759 C760 1.355 . S
C759 C761 1.415 . S
C760 C759 1.355 . S
C760 C762 1.419 . S
C761 C756 1.425 . S
C761 C758 1.409 . S
C761 C759 1.415 . S
C762 H752 0.930 . S
C762 C760 1.419 . S
C762 C763 1.362 . S
C763 H753 0.930 . S
C763 C756 1.409 . S
C763 C762 1.362 . S
H764 C770 0.930 . S
H765 C773 0.930 . S
H766 C774 0.930 . S
H767 C775 0.930 . S
H768 C778 0.930 . S
H769 C779 0.930 . S
C770 H764 0.930 . S
C770 C771 1.355 . S
C770 C772 1.415 . S
C771 C770 1.355 . S
C771 C773 1.419 . S
C772 C770 1.415 . S
C772 C777 1.425 . S
C772 C779 1.409 1_545 S
C773 H765 0.930 . S
C773 C771 1.419 . S
C773 C774 1.362 . S
C774 H766 0.930 . S
C774 C773 1.362 . S
C774 C777 1.409 . S
C775 H767 0.930 . S
C775 C776 1.355 1_545 S
C775 C777 1.415 . S
C776 C775 1.355 1_565 S
C776 C778 1.419 . S
C777 C772 1.425 . S
C777 C774 1.409 . S
C777 C775 1.415 . S
C778 H768 0.930 . S
C778 C776 1.419 . S
C778 C779 1.362 . S
C779 H769 0.930 . S
C779 C772 1.409 1_565 S
C779 C778 1.362 . S
H780 C786 0.930 . S
H781 C789 0.930 . S
H782 C790 0.930 . S
H783 C791 0.930 . S
H784 C794 0.930 . S
H785 C795 0.930 . S
C786 H780 0.930 . S
C786 C787 1.355 . S
C786 C788 1.415 . S
C787 C786 1.355 . S
C787 C789 1.419 . S
C788 C786 1.415 . S
C788 C793 1.425 . S
C788 C795 1.409 . S
C789 H781 0.930 . S
C789 C787 1.419 . S
C789 C790 1.362 . S
C790 H782 0.930 . S
C790 C789 1.362 . S
C790 C793 1.409 . S
C791 H783 0.930 . S
C791 C792 1.355 . S
C791 C793 1.415 . S
C792 C791 1.355 . S
C792 C794 1.419 . S
C793 C788 1.425 . S
C793 C790 1.409 . S
C793 C791 1.415 . S
C794 H784 0.930 . S
C794 C792 1.419 . S
C794 C795 1.362 . S
C795 H785 0.930 . S
C795 C788 1.409 . S
C795 C794 1.362 . S
H796 C802 0.930 . S
H797 C805 0.930 . S
H798 C806 0.930 . S
H799 C807 0.930 . S
H800 C810 0.930 . S
H801 C811 0.930 . S
C802 H796 0.930 . S
C802 C803 1.355 . S
C802 C804 1.415 . S
C803 C802 1.355 . S
C803 C805 1.419 . S
C804 C802 1.415 . S
C804 C809 1.425 . S
C804 C811 1.409 1_565 S
C805 H797 0.930 . S
C805 C803 1.419 . S
C805 C806 1.362 . S
C806 H798 0.930 . S
C806 C805 1.362 . S
C806 C809 1.409 . S
C807 H799 0.930 . S
C807 C808 1.355 . S
C807 C809 1.415 1_545 S
C808 C807 1.355 . S
C808 C810 1.419 . S
C809 C804 1.425 . S
C809 C806 1.409 . S
C809 C807 1.415 1_565 S
C810 H800 0.930 . S
C810 C808 1.419 . S
C810 C811 1.362 . S
C811 H801 0.930 . S
C811 C804 1.409 1_545 S
C811 C810 1.362 . S
H812 C818 0.930 . S
H813 C821 0.930 . S
H814 C822 0.930 . S
H815 C823 0.930 . S
H816 C826 0.930 . S
H817 C827 0.930 . S
C818 H812 0.930 . S
C818 C819 1.355 1_545 S
C818 C820 1.415 1_545 S
C819 C818 1.355 1_565 S
C819 C821 1.419 . S
C820 C818 1.415 1_565 S
C820 C825 1.425 . S
C820 C827 1.409 1_565 S
C821 H813 0.930 . S
C821 C819 1.419 . S
C821 C822 1.362 . S
C822 H814 0.930 . S
C822 C821 1.362 . S
C822 C825 1.409 . S
C823 H815 0.930 . S
C823 C824 1.355 . S
C823 C825 1.415 . S
C824 C823 1.355 . S
C824 C826 1.419 1_565 S
C825 C820 1.425 . S
C825 C822 1.409 . S
C825 C823 1.415 . S
C826 H816 0.930 . S
C826 C824 1.419 1_545 S
C826 C827 1.362 . S
C827 H817 0.930 . S
C827 C820 1.409 1_545 S
C827 C826 1.362 . S
H828 C834 0.930 . S
H829 C837 0.930 . S
H830 C838 0.930 . S
H831 C839 0.930 . S
H832 C842 0.930 . S
H833 C843 0.930 . S
C834 H828 0.930 . S
C834 C835 1.355 . S
C834 C836 1.415 . S
C835 C834 1.355 . S
C835 C837 1.419 . S
C836 C834 1.415 . S
C836 C841 1.425 . S
C836 C843 1.409 . S
C837 H829 0.930 . S
C837 C835 1.419 . S
C837 C838 1.362 . S
C838 H830 0.930 . S
C838 C837 1.362 . S
C838 C841 1.409 . S
C839 H831 0.930 . S
C839 C840 1.355 1_545 S
C839 C841 1.415 . S
C840 C839 1.355 1_565 S
C840 C842 1.419 . S
C841 C836 1.425 . S
C841 C838 1.409 . S
C841 C839 1.415 . S
C842 H832 0.930 . S
C842 C840 1.419 . S
C842 C843 1.362 1_565 S
C843 H833 0.930 . S
C843 C836 1.409 . S
C843 C842 1.362 1_545 S
H844 C850 0.930 . S
H845 C853 0.930 . S
H846 C854 0.930 . S
H847 C855 0.930 . S
H848 C858 0.930 . S
H849 C859 0.930 . S
C850 H844 0.930 . S
C850 C851 1.355 . S
C850 C852 1.415 . S
C851 C850 1.355 . S
C851 C853 1.419 . S
C852 C850 1.415 . S
C852 C857 1.425 . S
C852 C859 1.409 . S
C853 H845 0.930 . S
C853 C851 1.419 . S
C853 C854 1.362 . S
C854 H846 0.930 . S
C854 C853 1.362 . S
C854 C857 1.409 . S
C855 H847 0.930 . S
C855 C856 1.355 . S
C855 C857 1.415 . S
C856 C855 1.355 . S
C856 C858 1.419 . S
C857 C852 1.425 . S
C857 C854 1.409 . S
C857 C855 1.415 . S
C858 H848 0.930 . S
C858 C856 1.419 . S
C858 C859 1.362 . S
C859 H849 0.930 . S
C859 C852 1.409 . S
C859 C858 1.362 . S
H860 C866 0.930 . S
H861 C869 0.930 . S
H862 C870 0.930 . S
H863 C871 0.930 . S
H864 C874 0.930 . S
H865 C875 0.930 . S
C866 H860 0.930 . S
C866 C867 1.355 . S
C866 C868 1.415 1_545 S
C867 C866 1.355 . S
C867 C869 1.419 1_545 S
C868 C866 1.415 1_565 S
C868 C873 1.425 . S
C868 C875 1.409 . S
C869 H861 0.930 . S
C869 C867 1.419 1_565 S
C869 C870 1.362 . S
C870 H862 0.930 . S
C870 C869 1.362 . S
C870 C873 1.409 . S
C871 H863 0.930 . S
C871 C872 1.355 . S
C871 C873 1.415 . S
C872 C871 1.355 . S
C872 C874 1.419 . S
C873 C868 1.425 . S
C873 C870 1.409 . S
C873 C871 1.415 . S
C874 H864 0.930 . S
C874 C872 1.419 . S
C874 C875 1.362 . S
C875 H865 0.930 . S
C875 C868 1.409 . S
C875 C874 1.362 . S
H876 C882 0.930 1_545 S
H877 C885 0.930 . S
H878 C886 0.930 . S
H879 C887 0.930 . S
H880 C890 0.930 . S
H881 C891 0.930 1_445 S
C882 H876 0.930 1_565 S
C882 C883 1.355 . S
C882 C884 1.415 . S
C883 C882 1.355 . S
C883 C885 1.419 . S
C884 C882 1.415 . S
C884 C889 1.425 . S
C884 C891 1.409 . S
C885 H877 0.930 . S
C885 C883 1.419 . S
C885 C886 1.362 . S
C886 H878 0.930 . S
C886 C885 1.362 . S
C886 C889 1.409 . S
C887 H879 0.930 . S
C887 C888 1.355 . S
C887 C889 1.415 . S
C888 C887 1.355 . S
C888 C890 1.419 1_655 S
C889 C884 1.425 . S
C889 C886 1.409 . S
C889 C887 1.415 . S
C890 H880 0.930 . S
C890 C888 1.419 1_455 S
C890 C891 1.362 1_455 S
C891 H881 0.930 1_665 S
C891 C884 1.409 . S
C891 C890 1.362 1_655 S
H892 C898 0.930 . S
H893 C901 0.930 . S
H894 C902 0.930 1_455 S
H895 C903 0.930 1_455 S
H896 C906 0.930 . S
H897 C907 0.930 . S
C898 H892 0.930 . S
C898 C899 1.355 . S
C898 C900 1.415 . S
C899 C898 1.355 . S
C899 C901 1.419 . S
C900 C898 1.415 . S
C900 C905 1.425 . S
C900 C907 1.409 . S
C901 H893 0.930 . S
C901 C899 1.419 . S
C901 C902 1.362 . S
C902 H894 0.930 1_655 S
C902 C901 1.362 . S
C902 C905 1.409 . S
C903 H895 0.930 1_655 S
C903 C904 1.355 . S
C903 C905 1.415 . S
C904 C903 1.355 . S
C904 C906 1.419 . S
C905 C900 1.425 . S
C905 C902 1.409 . S
C905 C903 1.415 . S
C906 H896 0.930 . S
C906 C904 1.419 . S
C906 C907 1.362 . S
C907 H897 0.930 . S
C907 C900 1.409 . S
C907 C906 1.362 . S
H908 C914 0.930 . S
H909 C917 0.930 . S
H910 C918 0.930 . S
H911 C919 0.930 . S
H912 C922 0.930 . S
H913 C923 0.930 . S
C914 H908 0.930 . S
C914 C915 1.355 . S
C914 C916 1.415 . S
C915 C914 1.355 . S
C915 C917 1.419 . S
C916 C914 1.415 . S
C916 C921 1.425 . S
C916 C923 1.409 . S
C917 H909 0.930 . S
C917 C915 1.419 . S
C917 C918 1.362 . S
C918 H910 0.930 . S
C918 C917 1.362 . S
C918 C921 1.409 . S
C919 H911 0.930 . S
C919 C920 1.355 . S
C919 C921 1.415 . S
C920 C919 1.355 . S
C920 C922 1.419 . S
C921 C916 1.425 . S
C921 C918 1.409 . S
C921 C919 1.415 . S
C922 H912 0.930 . S
C922 C920 1.419 . S
C922 C923 1.362 . S
C923 H913 0.930 . S
C923 C916 1.409 . S
C923 C922 1.362 . S
H924 C930 0.930 . S
H925 C933 0.930 . S
H926 C934 0.930 . S
H927 C935 0.930 . S
H928 C938 0.930 . S
H929 C939 0.930 1_455 S
C930 H924 0.930 . S
C930 C931 1.355 . S
C930 C932 1.415 . S
C931 C930 1.355 . S
C931 C933 1.419 . S
C932 C930 1.415 . S
C932 C937 1.425 . S
C932 C939 1.409 . S
C933 H925 0.930 . S
C933 C931 1.419 . S
C933 C934 1.362 . S
C934 H926 0.930 . S
C934 C933 1.362 . S
C934 C937 1.409 . S
C935 H927 0.930 . S
C935 C936 1.355 . S
C935 C937 1.415 . S
C936 C935 1.355 . S
C936 C938 1.419 1_655 S
C937 C932 1.425 . S
C937 C934 1.409 . S
C937 C935 1.415 . S
C938 H928 0.930 . S
C938 C936 1.419 1_455 S
C938 C939 1.362 1_455 S
C939 H929 0.930 1_655 S
C939 C932 1.409 . S
C939 C938 1.362 1_655 S
H940 C946 0.930 . S
H941 C949 0.930 . S
H942 C950 0.930 . S
H943 C951 0.930 . S
H944 C954 0.930 . S
H945 C955 0.930 . S
C946 H940 0.930 . S
C946 C947 1.355 . S
C946 C948 1.415 . S
C947 C946 1.355 . S
C947 C949 1.419 . S
C948 C946 1.415 . S
C948 C953 1.425 . S
C948 C955 1.409 . S
C949 H941 0.930 . S
C949 C947 1.419 . S
C949 C950 1.362 . S
C950 H942 0.930 . S
C950 C949 1.362 . S
C950 C953 1.409 . S
C951 H943 0.930 . S
C951 C952 1.355 . S
C951 C953 1.415 . S
C952 C951 1.355 . S
C952 C954 1.419 . S
C953 C948 1.425 . S
C953 C950 1.409 . S
C953 C951 1.415 . S
C954 H944 0.930 . S
C954 C952 1.419 . S
C954 C955 1.362 . S
C955 H945 0.930 . S
C955 C948 1.409 . S
C955 C954 1.362 . S
H956 C962 0.930 . S
H957 C965 0.930 . S
H958 C966 0.930 . S
H959 C967 0.930 . S
H960 C970 0.930 . S
H961 C971 0.930 . S
C962 H956 0.930 . S
C962 C963 1.355 . S
C962 C964 1.415 . S
C963 C962 1.355 . S
C963 C965 1.419 . S
C964 C962 1.415 . S
C964 C969 1.425 . S
C964 C971 1.409 . S
C965 H957 0.930 . S
C965 C963 1.419 . S
C965 C966 1.362 . S
C966 H958 0.930 . S
C966 C965 1.362 . S
C966 C969 1.409 . S
C967 H959 0.930 . S
C967 C968 1.355 . S
C967 C969 1.415 . S
C968 C967 1.355 . S
C968 C970 1.419 . S
C969 C964 1.425 . S
C969 C966 1.409 . S
C969 C967 1.415 . S
C970 H960 0.930 . S
C970 C968 1.419 . S
C970 C971 1.362 . S
C971 H961 0.930 . S
C971 C964 1.409 . S
C971 C970 1.362 . S
H972 C978 0.930 . S
H973 C981 0.930 . S
H974 C982 0.930 . S
H975 C983 0.930 . S
H976 C986 0.930 . S
H977 C987 0.930 . S
C978 H972 0.930 . S
C978 C979 1.355 . S
C978 C980 1.415 . S
C979 C978 1.355 . S
C979 C981 1.419 . S
C980 C978 1.415 . S
C980 C985 1.425 . S
C980 C987 1.409 . S
C981 H973 0.930 . S
C981 C979 1.419 . S
C981 C982 1.362 . S
C982 H974 0.930 . S
C982 C981 1.362 . S
C982 C985 1.409 . S
C983 H975 0.930 . S
C983 C984 1.355 . S
C983 C985 1.415 . S
C984 C983 1.355 . S
C984 C986 1.419 . S
C985 C980 1.425 . S
C985 C982 1.409 . S
C985 C983 1.415 . S
C986 H976 0.930 . S
C986 C984 1.419 . S
C986 C987 1.362 . S
C987 H977 0.930 . S
C987 C980 1.409 . S
C987 C986 1.362 . S
H988 C994 0.930 . S
H989 C997 0.930 . S
H990 C998 0.930 . S
H991 C999 0.930 . S
H992 C1002 0.930 . S
H993 C1003 0.930 . S
C994 H988 0.930 . S
C994 C995 1.355 . S
C994 C996 1.415 . S
C995 C994 1.355 . S
C995 C997 1.419 . S
C996 C994 1.415 . S
C996 C1001 1.425 . S
C996 C1003 1.409 . S
C997 H989 0.930 . S
C997 C995 1.419 . S
C997 C998 1.362 . S
C998 H990 0.930 . S
C998 C997 1.362 . S
C998 C1001 1.409 . S
C999 H991 0.930 . S
C999 C1000 1.355 . S
C999 C1001 1.415 . S
C1000 C999 1.355 . S
C1000 C1002 1.419 . S
C1001 C996 1.425 . S
C1001 C998 1.409 . S
C1001 C999 1.415 . S
C1002 H992 0.930 . S
C1002 C1000 1.419 . S
C1002 C1003 1.362 . S
C1003 H993 0.930 . S
C1003 C996 1.409 . S
C1003 C1002 1.362 . S
H1004 C1010 0.930 . S
H1005 C1013 0.930 . S
H1006 C1014 0.930 . S
H1007 C1015 0.930 . S
H1008 C1018 0.930 . S
H1009 C1019 0.930 . S
C1010 H1004 0.930 . S
C1010 C1011 1.355 . S
C1010 C1012 1.415 . S
C1011 C1010 1.355 . S
C1011 C1013 1.419 . S
C1012 C1010 1.415 . S
C1012 C1017 1.425 . S
C1012 C1019 1.409 . S
C1013 H1005 0.930 . S
C1013 C1011 1.419 . S
C1013 C1014 1.362 . S
C1014 H1006 0.930 . S
C1014 C1013 1.362 . S
C1014 C1017 1.409 . S
C1015 H1007 0.930 . S
C1015 C1016 1.355 . S
C1015 C1017 1.415 . S
C1016 C1015 1.355 . S
C1016 C1018 1.419 . S
C1017 C1012 1.425 . S
C1017 C1014 1.409 . S
C1017 C1015 1.415 . S
C1018 H1008 0.930 . S
C1018 C1016 1.419 . S
C1018 C1019 1.362 . S
C1019 H1009 0.930 . S
C1019 C1012 1.409 . S
C1019 C1018 1.362 . S
H1020 C1026 0.930 . S
H1021 C1029 0.930 . S
H1022 C1030 0.930 . S
H1023 C1031 0.930 . S
H1024 C1034 0.930 . S
H1025 C1035 0.930 . S
C1026 H1020 0.930 . S
C1026 C1027 1.355 . S
C1026 C1028 1.415 . S
C1027 C1026 1.355 . S
C1027 C1029 1.419 . S
C1028 C1026 1.415 . S
C1028 C1033 1.425 . S
C1028 C1035 1.409 . S
C1029 H1021 0.930 . S
C1029 C1027 1.419 . S
C1029 C1030 1.362 . S
C1030 H1022 0.930 . S
C1030 C1029 1.362 . S
C1030 C1033 1.409 . S
C1031 H1023 0.930 . S
C1031 C1032 1.355 . S
C1031 C1033 1.415 . S
C1032 C1031 1.355 . S
C1032 C1034 1.419 . S
C1033 C1028 1.425 . S
C1033 C1030 1.409 . S
C1033 C1031 1.415 . S
C1034 H1024 0.930 . S
C1034 C1032 1.419 . S
C1034 C1035 1.362 . S
C1035 H1025 0.930 . S
C1035 C1028 1.409 . S
C1035 C1034 1.362 . S
H1036 C1042 0.930 . S
H1037 C1045 0.930 . S
H1038 C1046 0.930 . S
H1039 C1047 0.930 . S
H1040 C1050 0.930 . S
H1041 C1051 0.930 . S
C1042 H1036 0.930 . S
C1042 C1043 1.355 . S
C1042 C1044 1.415 . S
C1043 C1042 1.355 . S
C1043 C1045 1.419 . S
C1044 C1042 1.415 . S
C1044 C1049 1.425 . S
C1044 C1051 1.409 . S
C1045 H1037 0.930 . S
C1045 C1043 1.419 . S
C1045 C1046 1.362 . S
C1046 H1038 0.930 . S
C1046 C1045 1.362 . S
C1046 C1049 1.409 . S
C1047 H1039 0.930 . S
C1047 C1048 1.355 . S
C1047 C1049 1.415 . S
C1048 C1047 1.355 . S
C1048 C1050 1.419 . S
C1049 C1044 1.425 . S
C1049 C1046 1.409 . S
C1049 C1047 1.415 . S
C1050 H1040 0.930 . S
C1050 C1048 1.419 . S
C1050 C1051 1.362 . S
C1051 H1041 0.930 . S
C1051 C1044 1.409 . S
C1051 C1050 1.362 . S
H1052 C1058 0.930 . S
H1053 C1061 0.930 . S
H1054 C1062 0.930 . S
H1055 C1063 0.930 . S
H1056 C1066 0.930 . S
H1057 C1067 0.930 . S
C1058 H1052 0.930 . S
C1058 C1059 1.355 . S
C1058 C1060 1.415 . S
C1059 C1058 1.355 . S
C1059 C1061 1.419 . S
C1060 C1058 1.415 . S
C1060 C1065 1.425 . S
C1060 C1067 1.409 . S
C1061 H1053 0.930 . S
C1061 C1059 1.419 . S
C1061 C1062 1.362 . S
C1062 H1054 0.930 . S
C1062 C1061 1.362 . S
C1062 C1065 1.409 . S
C1063 H1055 0.930 . S
C1063 C1064 1.355 . S
C1063 C1065 1.415 . S
C1064 C1063 1.355 . S
C1064 C1066 1.419 . S
C1065 C1060 1.425 . S
C1065 C1062 1.409 . S
C1065 C1063 1.415 . S
C1066 H1056 0.930 . S
C1066 C1064 1.419 . S
C1066 C1067 1.362 . S
C1067 H1057 0.930 . S
C1067 C1060 1.409 . S
C1067 C1066 1.362 . S
H1068 C1074 0.930 . S
H1069 C1077 0.930 . S
H1070 C1078 0.930 . S
H1071 C1079 0.930 . S
H1072 C1082 0.930 . S
H1073 C1083 0.930 . S
C1074 H1068 0.930 . S
C1074 C1075 1.355 . S
C1074 C1076 1.415 . S
C1075 C1074 1.355 . S
C1075 C1077 1.419 . S
C1076 C1074 1.415 . S
C1076 C1081 1.425 . S
C1076 C1083 1.409 . S
C1077 H1069 0.930 . S
C1077 C1075 1.419 . S
C1077 C1078 1.362 . S
C1078 H1070 0.930 . S
C1078 C1077 1.362 . S
C1078 C1081 1.409 . S
C1079 H1071 0.930 . S
C1079 C1080 1.355 . S
C1079 C1081 1.415 . S
C1080 C1079 1.355 . S
C1080 C1082 1.419 . S
C1081 C1076 1.425 . S
C1081 C1078 1.409 . S
C1081 C1079 1.415 . S
C1082 H1072 0.930 . S
C1082 C1080 1.419 . S
C1082 C1083 1.362 . S
C1083 H1073 0.930 . S
C1083 C1076 1.409 . S
C1083 C1082 1.362 . S
H1084 C1090 0.930 1_455 S
H1085 C1093 0.930 . S
H1086 C1094 0.930 . S
H1087 C1095 0.930 . S
H1088 C1098 0.930 . S
H1089 C1099 0.930 . S
C1090 H1084 0.930 1_655 S
C1090 C1091 1.355 . S
C1090 C1092 1.415 . S
C1091 C1090 1.355 . S
C1091 C1093 1.419 . S
C1092 C1090 1.415 . S
C1092 C1097 1.425 . S
C1092 C1099 1.409 1_655 S
C1093 H1085 0.930 . S
C1093 C1091 1.419 . S
C1093 C1094 1.362 . S
C1094 H1086 0.930 . S
C1094 C1093 1.362 . S
C1094 C1097 1.409 . S
C1095 H1087 0.930 . S
C1095 C1096 1.355 . S
C1095 C1097 1.415 . S
C1096 C1095 1.355 . S
C1096 C1098 1.419 1_655 S
C1097 C1092 1.425 . S
C1097 C1094 1.409 . S
C1097 C1095 1.415 . S
C1098 H1088 0.930 . S
C1098 C1096 1.419 1_455 S
C1098 C1099 1.362 . S
C1099 H1089 0.930 . S
C1099 C1092 1.409 1_455 S
C1099 C1098 1.362 . S
H1100 C1106 0.930 . S
H1101 C1109 0.930 . S
H1102 C1110 0.930 . S
H1103 C1111 0.930 . S
H1104 C1114 0.930 . S
H1105 C1115 0.930 . S
C1106 H1100 0.930 . S
C1106 C1107 1.355 . S
C1106 C1108 1.415 . S
C1107 C1106 1.355 . S
C1107 C1109 1.419 . S
C1108 C1106 1.415 . S
C1108 C1113 1.425 . S
C1108 C1115 1.409 . S
C1109 H1101 0.930 . S
C1109 C1107 1.419 . S
C1109 C1110 1.362 . S
C1110 H1102 0.930 . S
C1110 C1109 1.362 . S
C1110 C1113 1.409 . S
C1111 H1103 0.930 . S
C1111 C1112 1.355 . S
C1111 C1113 1.415 . S
C1112 C1111 1.355 . S
C1112 C1114 1.419 . S
C1113 C1108 1.425 . S
C1113 C1110 1.409 . S
C1113 C1111 1.415 . S
C1114 H1104 0.930 . S
C1114 C1112 1.419 . S
C1114 C1115 1.362 . S
C1115 H1105 0.930 . S
C1115 C1108 1.409 . S
C1115 C1114 1.362 . S
H1116 C1122 0.930 . S
H1117 C1125 0.930 . S
H1118 C1126 0.930 . S
H1119 C1127 0.930 . S
H1120 C1130 0.930 . S
H1121 C1131 0.930 . S
C1122 H1116 0.930 . S
C1122 C1123 1.355 . S
C1122 C1124 1.415 . S
C1123 C1122 1.355 . S
C1123 C1125 1.419 . S
C1124 C1122 1.415 . S
C1124 C1129 1.425 . S
C1124 C1131 1.409 . S
C1125 H1117 0.930 . S
C1125 C1123 1.419 . S
C1125 C1126 1.362 . S
C1126 H1118 0.930 . S
C1126 C1125 1.362 . S
C1126 C1129 1.409 . S
C1127 H1119 0.930 . S
C1127 C1128 1.355 . S
C1127 C1129 1.415 . S
C1128 C1127 1.355 . S
C1128 C1130 1.419 . S
C1129 C1124 1.425 . S
C1129 C1126 1.409 . S
C1129 C1127 1.415 . S
C1130 H1120 0.930 . S
C1130 C1128 1.419 . S
C1130 C1131 1.362 . S
C1131 H1121 0.930 . S
C1131 C1124 1.409 . S
C1131 C1130 1.362 . S
H1132 C1138 0.930 . S
H1133 C1141 0.930 . S
H1134 C1142 0.930 . S
H1135 C1143 0.930 . S
H1136 C1146 0.930 . S
H1137 C1147 0.930 . S
C1138 H1132 0.930 . S
C1138 C1139 1.355 . S
C1138 C1140 1.415 . S
C1139 C1138 1.355 . S
C1139 C1141 1.419 . S
C1140 C1138 1.415 . S
C1140 C1145 1.425 . S
C1140 C1147 1.409 . S
C1141 H1133 0.930 . S
C1141 C1139 1.419 . S
C1141 C1142 1.362 . S
C1142 H1134 0.930 . S
C1142 C1141 1.362 . S
C1142 C1145 1.409 . S
C1143 H1135 0.930 . S
C1143 C1144 1.355 . S
C1143 C1145 1.415 . S
C1144 C1143 1.355 . S
C1144 C1146 1.419 . S
C1145 C1140 1.425 . S
C1145 C1142 1.409 . S
C1145 C1143 1.415 . S
C1146 H1136 0.930 . S
C1146 C1144 1.419 . S
C1146 C1147 1.362 . S
C1147 H1137 0.930 . S
C1147 C1140 1.409 . S
C1147 C1146 1.362 . S
H1148 C1154 0.930 . S
H1149 C1157 0.930 . S
H1150 C1158 0.930 . S
H1151 C1159 0.930 . S
H1152 C1162 0.930 . S
H1153 C1163 0.930 . S
C1154 H1148 0.930 . S
C1154 C1155 1.355 . S
C1154 C1156 1.415 . S
C1155 C1154 1.355 . S
C1155 C1157 1.419 . S
C1156 C1154 1.415 . S
C1156 C1161 1.425 . S
C1156 C1163 1.409 . S
C1157 H1149 0.930 . S
C1157 C1155 1.419 . S
C1157 C1158 1.362 . S
C1158 H1150 0.930 . S
C1158 C1157 1.362 . S
C1158 C1161 1.409 . S
C1159 H1151 0.930 . S
C1159 C1160 1.355 . S
C1159 C1161 1.415 . S
C1160 C1159 1.355 . S
C1160 C1162 1.419 . S
C1161 C1156 1.425 . S
C1161 C1158 1.409 . S
C1161 C1159 1.415 . S
C1162 H1152 0.930 . S
C1162 C1160 1.419 . S
C1162 C1163 1.362 . S
C1163 H1153 0.930 . S
C1163 C1156 1.409 . S
C1163 C1162 1.362 . S
H1164 C1170 0.930 . S
H1165 C1173 0.930 1_554 S
H1166 C1174 0.930 . S
H1167 C1175 0.930 . S
H1168 C1178 0.930 . S
H1169 C1179 0.930 . S
C1170 H1164 0.930 . S
C1170 C1171 1.355 . S
C1170 C1172 1.415 . S
C1171 C1170 1.355 . S
C1171 C1173 1.419 . S
C1172 C1170 1.415 . S
C1172 C1177 1.425 . S
C1172 C1179 1.409 . S
C1173 H1165 0.930 1_556 S
C1173 C1171 1.419 . S
C1173 C1174 1.362 . S
C1174 H1166 0.930 . S
C1174 C1173 1.362 . S
C1174 C1177 1.409 . S
C1175 H1167 0.930 . S
C1175 C1176 1.355 . S
C1175 C1177 1.415 . S
C1176 C1175 1.355 . S
C1176 C1178 1.419 . S
C1177 C1172 1.425 . S
C1177 C1174 1.409 . S
C1177 C1175 1.415 . S
C1178 H1168 0.930 . S
C1178 C1176 1.419 . S
C1178 C1179 1.362 . S
C1179 H1169 0.930 . S
C1179 C1172 1.409 . S
C1179 C1178 1.362 . S
H1180 C1186 0.930 . S
H1181 C1189 0.930 . S
H1182 C1190 0.930 . S
H1183 C1191 0.930 . S
H1184 C1194 0.930 . S
H1185 C1195 0.930 . S
C1186 H1180 0.930 . S
C1186 C1187 1.355 . S
C1186 C1188 1.415 . S
C1187 C1186 1.355 . S
C1187 C1189 1.419 . S
C1188 C1186 1.415 . S
C1188 C1193 1.425 . S
C1188 C1195 1.409 . S
C1189 H1181 0.930 . S
C1189 C1187 1.419 . S
C1189 C1190 1.362 . S
C1190 H1182 0.930 . S
C1190 C1189 1.362 . S
C1190 C1193 1.409 . S
C1191 H1183 0.930 . S
C1191 C1192 1.355 . S
C1191 C1193 1.415 . S
C1192 C1191 1.355 . S
C1192 C1194 1.419 . S
C1193 C1188 1.425 . S
C1193 C1190 1.409 . S
C1193 C1191 1.415 . S
C1194 H1184 0.930 . S
C1194 C1192 1.419 . S
C1194 C1195 1.362 . S
C1195 H1185 0.930 . S
C1195 C1188 1.409 . S
C1195 C1194 1.362 . S
H1196 C1202 0.930 . S
H1197 C1205 0.930 . S
H1198 C1206 0.930 . S
H1199 C1207 0.930 . S
H1200 C1210 0.930 . S
H1201 C1211 0.930 . S
C1202 H1196 0.930 . S
C1202 C1203 1.355 . S
C1202 C1204 1.415 . S
C1203 C1202 1.355 . S
C1203 C1205 1.419 . S
C1204 C1202 1.415 . S
C1204 C1209 1.425 . S
C1204 C1211 1.409 . S
C1205 H1197 0.930 . S
C1205 C1203 1.419 . S
C1205 C1206 1.362 . S
C1206 H1198 0.930 . S
C1206 C1205 1.362 . S
C1206 C1209 1.409 . S
C1207 H1199 0.930 . S
C1207 C1208 1.355 . S
C1207 C1209 1.415 . S
C1208 C1207 1.355 . S
C1208 C1210 1.419 . S
C1209 C1204 1.425 . S
C1209 C1206 1.409 . S
C1209 C1207 1.415 . S
C1210 H1200 0.930 . S
C1210 C1208 1.419 . S
C1210 C1211 1.362 . S
C1211 H1201 0.930 . S
C1211 C1204 1.409 . S
C1211 C1210 1.362 . S
H1212 C1218 0.930 . S
H1213 C1221 0.930 . S
H1214 C1222 0.930 . S
H1215 C1223 0.930 . S
H1216 C1226 0.930 . S
H1217 C1227 0.930 . S
C1218 H1212 0.930 . S
C1218 C1219 1.355 . S
C1218 C1220 1.415 . S
C1219 C1218 1.355 . S
C1219 C1221 1.419 . S
C1220 C1218 1.415 . S
C1220 C1225 1.425 . S
C1220 C1227 1.409 . S
C1221 H1213 0.930 . S
C1221 C1219 1.419 . S
C1221 C1222 1.362 . S
C1222 H1214 0.930 . S
C1222 C1221 1.362 . S
C1222 C1225 1.409 . S
C1223 H1215 0.930 . S
C1223 C1224 1.355 . S
C1223 C1225 1.415 . S
C1224 C1223 1.355 . S
C1224 C1226 1.419 . S
C1225 C1220 1.425 . S
C1225 C1222 1.409 . S
C1225 C1223 1.415 . S
C1226 H1216 0.930 . S
C1226 C1224 1.419 . S
C1226 C1227 1.362 . S
C1227 H1217 0.930 . S
C1227 C1220 1.409 . S
C1227 C1226 1.362 . S
C728 C652 2.208 . S
C723 C69 2.231 . S
C739 C125 1.104 . S
C744 C655 1.068 . S
C755 C217 2.124 . S
C760 C686 2.119 . S
C776 C621 1.818 . S
C771 C261 1.688 . S
C792 C656 2.114 . S
C787 C39 1.993 . S
C808 C687 2.338 . S
C803 C137 2.255 . S
C824 C612 2.033 . S
C819 C187 1.892 1_565 S
C840 C643 2.339 . S
C835 C291 2.348 . S
C851 C51 0.628 . S
C856 C673 0.740 . S
C867 C365 1.820 . S
C872 C642 1.679 . S
C883 C199 0.518 . S
C888 C602 0.518 1_655 S
C904 C695 1.465 . S
C899 C439 1.482 . S
C920 C623 1.425 . S
C915 C63 1.498 . S
C931 C335 1.345 1_565 S
C936 C622 1.498 . S
C947 C211 1.267 . S
C952 C715 1.347 1_655 S
C968 C654 1.732 . S
C963 C409 1.666 . S
C979 C495 1.170 . S
C984 C714 1.116 . S
C995 C347 1.296 . S
C1000 C593 1.265 . S
C1011 C587 2.159 1_655 S
C1016 C624 2.122 . S
C1027 C421 1.110 . S
C1032 C683 1.126 . S
C1048 C594 2.294 . S
C1043 C507 2.189 . S
C1059 C359 2.004 . S
C1064 C625 2.088 . S
C1075 C557 1.868 . S
C1080 C674 2.018 . S
C1096 C705 2.229 . S
C1091 C433 2.088 . S
C1107 C513 1.657 . S
C1112 C611 1.513 . S
C1123 C143 1.618 . S
C1128 C704 1.482 . S
C1139 C569 0.621 . S
C1144 C664 0.656 . S
C1160 C633 1.190 . S
C1155 C285 1.106 . S
C1176 C685 1.606 . S
C1171 C483 1.556 . S
C1192 C684 1.702 . S
C1187 C113 1.533 . S
C1208 C653 1.317 . S
C1203 C581 1.242 . S
C1224 C592 0.771 . S
C1219 C273 0.854 . S
