# Generated by pormake.
# Topology pto, (3,4)-cn, num edge types: 1
# Building blocks:
#     Node 0, Type 0, BuildingBlock: BETDIP_clean_linker_0, # of connection points: 3
#     Node 1, Type 0, BuildingBlock: BETDIP_clean_linker_0, # of connection points: 3
#     Node 2, Type 0, BuildingBlock: BETDIP_clean_linker_0, # of connection points: 3
#     Node 3, Type 0, BuildingBlock: BETDIP_clean_linker_0, # of connection points: 3
#     Node 4, Type 0, BuildingBlock: BETDIP_clean_linker_0, # of connection points: 3
#     Node 5, Type 0, BuildingBlock: BETDIP_clean_linker_0, # of connection points: 3
#     Node 6, Type 0, BuildingBlock: BETDIP_clean_linker_0, # of connection points: 3
#     Node 7, Type 0, BuildingBlock: BETDIP_clean_linker_0, # of connection points: 3
#     Node 8, Type 1, BuildingBlock: KOZSID_clean_sbu_0, # of connection points: 4
#     Node 9, Type 1, BuildingBlock: KOZSID_clean_sbu_0, # of connection points: 4
#     Node 10, Type 1, BuildingBlock: KOZSID_clean_sbu_0, # of connection points: 4
#     Node 11, Type 1, BuildingBlock: KOZSID_clean_sbu_0, # of connection points: 4
#     Node 12, Type 1, BuildingBlock: KOZSID_clean_sbu_0, # of connection points: 4
#     Node 13, Type 1, BuildingBlock: KOZSID_clean_sbu_0, # of connection points: 4
#     Edge 14, Type (0, 1), BuildingBlock: CIFDUS_clean_linker_0, # of connection points: 2
#     Edge 15, Type (0, 1), BuildingBlock: CIFDUS_clean_linker_0, # of connection points: 2
#     Edge 16, Type (0, 1), BuildingBlock: CIFDUS_clean_linker_0, # of connection points: 2
#     Edge 17, Type (0, 1), BuildingBlock: CIFDUS_clean_linker_0, # of connection points: 2
#     Edge 18, Type (0, 1), BuildingBlock: CIFDUS_clean_linker_0, # of connection points: 2
#     Edge 19, Type (0, 1), BuildingBlock: CIFDUS_clean_linker_0, # of connection points: 2
#     Edge 20, Type (0, 1), BuildingBlock: CIFDUS_clean_linker_0, # of connection points: 2
#     Edge 21, Type (0, 1), BuildingBlock: CIFDUS_clean_linker_0, # of connection points: 2
#     Edge 22, Type (0, 1), BuildingBlock: CIFDUS_clean_linker_0, # of connection points: 2
#     Edge 23, Type (0, 1), BuildingBlock: CIFDUS_clean_linker_0, # of connection points: 2
#     Edge 24, Type (0, 1), BuildingBlock: CIFDUS_clean_linker_0, # of connection points: 2
#     Edge 25, Type (0, 1), BuildingBlock: CIFDUS_clean_linker_0, # of connection points: 2
#     Edge 26, Type (0, 1), BuildingBlock: CIFDUS_clean_linker_0, # of connection points: 2
#     Edge 27, Type (0, 1), BuildingBlock: CIFDUS_clean_linker_0, # of connection points: 2
#     Edge 28, Type (0, 1), BuildingBlock: CIFDUS_clean_linker_0, # of connection points: 2
#     Edge 29, Type (0, 1), BuildingBlock: CIFDUS_clean_linker_0, # of connection points: 2
#     Edge 30, Type (0, 1), BuildingBlock: CIFDUS_clean_linker_0, # of connection points: 2
#     Edge 31, Type (0, 1), BuildingBlock: CIFDUS_clean_linker_0, # of connection points: 2
#     Edge 32, Type (0, 1), BuildingBlock: CIFDUS_clean_linker_0, # of connection points: 2
#     Edge 33, Type (0, 1), BuildingBlock: CIFDUS_clean_linker_0, # of connection points: 2
#     Edge 34, Type (0, 1), BuildingBlock: CIFDUS_clean_linker_0, # of connection points: 2
#     Edge 35, Type (0, 1), BuildingBlock: CIFDUS_clean_linker_0, # of connection points: 2
#     Edge 36, Type (0, 1), BuildingBlock: CIFDUS_clean_linker_0, # of connection points: 2
#     Edge 37, Type (0, 1), BuildingBlock: CIFDUS_clean_linker_0, # of connection points: 2
# Relax obj value: 0.011
# Max RMSD: 0.132
# Mean RMSD: 0.060
data_MOF--net-pto--node1-KOZSID_clean_sbu_0--node2-BETDIP_clean_linker_0--edge1-CIFDUS_clean_linker_0
_symmetry_space_group_name_H-M    P1
_symmetry_Int_Tables_number       1
_symmetry_cell_setting            triclinic
loop_
_symmetry_equiv_pos_as_xyz
'x, y, z'
_cell_length_a     32.473498
_cell_length_b     45.34924
_cell_length_c     39.760536
_cell_angle_alpha  95.438726
_cell_angle_beta   102.70612
_cell_angle_gamma 108.2813
loop_
_atom_site_label
_atom_site_type_symbol
_atom_site_fract_x
_atom_site_fract_y
_atom_site_fract_z
_atom_type_partial_charge
H0 H 0.20143 0.31101 0.35049 0.0
H1 H 0.26394 0.27098 0.28289 0.0
H2 H 0.26272 0.36497 0.2797 0.0
H3 H 0.2171 0.2254 0.29137 0.0
C4 C 0.21714 0.23004 0.31868 0.0
C5 C 0.21979 0.31345 0.33063 0.0
C6 C 0.23017 0.34132 0.31646 0.0
C7 C 0.23147 0.28796 0.31863 0.0
C8 C 0.25437 0.29039 0.29223 0.0
C9 C 0.26493 0.31795 0.2776 0.0
C10 C 0.25319 0.34336 0.29017 0.0
N11 N 0.22034 0.26051 0.33417 0.0
H12 H 0.16997 0.80317 0.6794 0.0
H13 H 0.27788 0.87138 0.76095 0.0
H14 H 0.23742 0.773 0.76779 0.0
H15 H 0.24265 0.90467 0.74083 0.0
C16 C 0.23067 0.89673 0.71267 0.0
C17 C 0.1956 0.80873 0.70397 0.0
C18 C 0.20106 0.78445 0.72187 0.0
C19 C 0.22294 0.84027 0.71781 0.0
C20 C 0.25609 0.84734 0.74999 0.0
C21 C 0.26089 0.8231 0.76838 0.0
C22 C 0.23369 0.79183 0.75382 0.0
N23 N 0.21655 0.86407 0.69846 0.0
H24 H 0.85559 0.79126 0.31176 0.0
H25 H 0.88983 0.8357 0.41973 0.0
H26 H 0.81019 0.86704 0.33879 0.0
H27 H 0.90849 0.79213 0.43038 0.0
C28 C 0.9159 0.78268 0.4072 0.0
C29 C 0.85425 0.80896 0.33142 0.0
C30 C 0.83021 0.82881 0.32145 0.0
C31 C 0.87631 0.81143 0.36658 0.0
C32 C 0.87362 0.83391 0.3924 0.0
C33 C 0.84903 0.85388 0.3826 0.0
C34 C 0.8287 0.85161 0.3469 0.0
N35 N 0.90058 0.79065 0.37419 0.0
H36 H 0.7145 0.24509 0.84161 0.0
H37 H 0.74352 0.34486 0.85686 0.0
H38 H 0.80238 0.30111 0.78808 0.0
H39 H 0.7537 0.33077 0.91847 0.0
C40 C 0.71905 0.31468 0.91063 0.0
C41 C 0.73182 0.26796 0.83599 0.0
C42 C 0.7576 0.27028 0.8117 0.0
C43 C 0.7286 0.29517 0.8533 0.0
C44 C 0.74942 0.32471 0.84489 0.0
C45 C 0.77602 0.32779 0.82079 0.0
C46 C 0.78057 0.30009 0.80522 0.0
N47 N 0.70375 0.29256 0.87885 0.0
H48 H 0.76324 0.80657 0.83246 0.0
H49 H 0.7983 0.84558 0.74388 0.0
H50 H 0.74645 0.89388 0.81355 0.0
H51 H 0.81513 0.80372 0.73131 0.0
C52 C 0.81579 0.79052 0.75264 0.0
C53 C 0.76635 0.82521 0.81699 0.0
C54 C 0.75105 0.8499 0.82521 0.0
C55 C 0.7843 0.82366 0.78814 0.0
C56 C 0.78624 0.84714 0.76693 0.0
C57 C 0.77176 0.87256 0.77531 0.0
C58 C 0.75576 0.87398 0.80532 0.0
N59 N 0.79952 0.79797 0.78159 0.0
H60 H 0.71552 0.27219 0.36954 0.0
H61 H 0.84242 0.32753 0.44211 0.0
H62 H 0.77761 0.36967 0.36401 0.0
H63 H 0.8134 0.29103 0.47683 0.0
C64 C 0.80079 0.26947 0.45753 0.0
C65 C 0.74268 0.29459 0.37954 0.0
C66 C 0.74168 0.32104 0.36414 0.0
C67 C 0.77819 0.29692 0.40825 0.0
C68 C 0.81403 0.32584 0.42084 0.0
C69 C 0.81406 0.35236 0.40509 0.0
C70 C 0.77736 0.34974 0.37712 0.0
N71 N 0.77805 0.26935 0.42259 0.0
H72 H 0.12515 0.32286 0.70667 0.0
H73 H 0.2121 0.29105 0.78064 0.0
H74 H 0.16671 0.36416 0.81667 0.0
H75 H 0.24302 0.28984 0.73393 0.0
C76 C 0.21211 0.27634 0.714 0.0
C77 C 0.14363 0.32445 0.73341 0.0
C78 C 0.14192 0.34594 0.76078 0.0
C79 C 0.17 0.30534 0.7402 0.0
C80 C 0.19317 0.30665 0.77485 0.0
C81 C 0.19195 0.32767 0.80242 0.0
C82 C 0.16622 0.34719 0.79535 0.0
N83 N 0.17327 0.28501 0.7121 0.0
H84 H 0.29131 0.87012 0.25155 0.0
H85 H 0.26325 0.76981 0.23977 0.0
H86 H 0.20144 0.81426 0.3044 0.0
H87 H 0.34124 0.78938 0.24105 0.0
C88 C 0.34002 0.80526 0.22232 0.0
C89 C 0.27335 0.84727 0.25685 0.0
C90 C 0.24493 0.845 0.27906 0.0
C91 C 0.28097 0.82038 0.24327 0.0
C92 C 0.25835 0.7908 0.25088 0.0
C93 C 0.22866 0.78824 0.27233 0.0
C94 C 0.22255 0.81559 0.2865 0.0
N95 N 0.31214 0.82391 0.22259 0.0
C96 C 0.15759 0.6204 0.37674 0.0
C97 C 0.1976 0.63887 0.40089 0.0
C98 C 0.20061 0.62458 0.42981 0.0
C99 C 0.16227 0.59843 0.42188 0.0
N100 N 0.13537 0.5955 0.38984 0.0
Co101 Co 0.07588 0.56226 0.36848 0.0
N102 N 0.07001 0.55107 0.41471 0.0
C103 C 0.10372 0.55885 0.44423 0.0
C104 C 0.08981 0.54735 0.47208 0.0
C105 C 0.04466 0.53097 0.45917 0.0
C106 C 0.03355 0.53332 0.42399 0.0
N107 N 0.01668 0.52887 0.34674 0.0
C108 C 0.98461 0.51315 0.36167 0.0
C109 C 0.94883 0.49068 0.3366 0.0
C110 C 0.95939 0.49218 0.30517 0.0
C111 C 1.00077 0.51536 0.31262 0.0
N112 N 0.08181 0.57336 0.32233 0.0
C113 C 0.05957 0.55502 0.29085 0.0
C114 C 0.0713 0.56908 0.2636 0.0
C115 C 0.10301 0.59804 0.27901 0.0
C116 C 0.10866 0.59996 0.31489 0.0
N117 N 0.10547 0.53136 0.36251 0.0
C118 C 0.14297 0.48553 0.34797 0.0
C119 C 0.16038 0.51585 0.34063 0.0
C120 C 0.14153 0.53851 0.34848 0.0
C121 C 0.10754 0.47891 0.36392 0.0
C122 C 0.08908 0.50206 0.37075 0.0
N123 N 0.04646 0.59325 0.37417 0.0
C124 C 0.99603 0.61901 0.34855 0.0
C125 C 0.01138 0.64214 0.37882 0.0
C126 C 0.04316 0.63932 0.40737 0.0
C127 C 0.06017 0.61468 0.40453 0.0
C128 C 0.01393 0.59486 0.34676 0.0
H129 H 0.08546 0.61356 0.42654 0.0
H130 H 0.00233 0.57797 0.32277 0.0
H131 H 0.15549 0.56163 0.34236 0.0
H132 H 0.06079 0.4959 0.38188 0.0
C133 C 0.14629 0.58019 0.44584 0.0
C134 C 0.14202 0.62618 0.34124 0.0
C135 C 0.9894 0.5158 0.39958 0.0
C136 C 0.02281 0.52772 0.28785 0.0
H137 H 0.22186 0.66055 0.39823 0.0
H138 H 0.22645 0.63323 0.45436 0.0
H139 H 0.10984 0.55099 0.49876 0.0
H140 H 0.02259 0.51824 0.47378 0.0
H141 H 0.91877 0.47424 0.34067 0.0
H142 H 0.93895 0.47837 0.27986 0.0
H143 H 0.05725 0.55996 0.23583 0.0
H144 H 0.12019 0.61561 0.26545 0.0
H145 H 0.18813 0.5219 0.32862 0.0
H146 H 0.09307 0.45564 0.36983 0.0
H147 H 0.97075 0.61975 0.3261 0.0
H148 H 0.0561 0.65665 0.43127 0.0
C149 C 0.05257 0.61571 0.76556 0.0
C150 C 0.09128 0.6369 0.78894 0.0
C151 C 0.08983 0.63003 0.82141 0.0
C152 C 0.05046 0.60521 0.81599 0.0
N153 N 0.02727 0.59518 0.78192 0.0
Co154 Co 0.96638 0.5619 0.76243 0.0
N155 N 0.9614 0.55407 0.81056 0.0
C156 C 0.99247 0.56862 0.8413 0.0
C157 C 0.98245 0.55583 0.86955 0.0
C158 C 0.94311 0.53122 0.85612 0.0
C159 C 0.93083 0.53061 0.8202 0.0
N160 N 0.90512 0.52937 0.74296 0.0
C161 C 0.87802 0.51039 0.75947 0.0
C162 C 0.83714 0.49189 0.73637 0.0
C163 C 0.8394 0.49838 0.70387 0.0
C164 C 0.88108 0.52071 0.70901 0.0
N165 N 0.97179 0.56909 0.71432 0.0
C166 C 0.94229 0.55328 0.68337 0.0
C167 C 0.95436 0.56471 0.65489 0.0
C168 C 0.99339 0.58971 0.66852 0.0
C169 C 0.00272 0.59205 0.70459 0.0
N170 N 0.99379 0.52845 0.75949 0.0
C171 C 0.02549 0.47727 0.76045 0.0
C172 C 0.99277 0.4782 0.73157 0.0
C173 C 0.9773 0.50382 0.73171 0.0
C174 C 0.04359 0.50294 0.78791 0.0
C175 C 0.02786 0.5282 0.7867 0.0
N176 N 0.93891 0.59525 0.76553 0.0
C177 C 0.89168 0.62304 0.73809 0.0
C178 C 0.90351 0.6446 0.76911 0.0
C179 C 0.93301 0.64082 0.79837 0.0
C180 C 0.95017 0.61627 0.79602 0.0
C181 C 0.90943 0.59868 0.73693 0.0
H182 H 0.97291 0.61503 0.81914 0.0
H183 H 0.89902 0.58306 0.71252 0.0
H184 H 0.95128 0.50284 0.70949 0.0
H185 H 0.04318 0.5469 0.80855 0.0
C186 C 0.03287 0.5922 0.84241 0.0
C187 C 0.03914 0.61787 0.72869 0.0
C188 C 0.89151 0.50641 0.79585 0.0
C189 C 0.90027 0.53166 0.68235 0.0
H190 H 0.11699 0.65613 0.78328 0.0
H191 H 0.11365 0.6425 0.84616 0.0
H192 H 0.00255 0.56258 0.89649 0.0
H193 H 0.92679 0.51505 0.8713 0.0
H194 H 0.80946 0.47437 0.74222 0.0
H195 H 0.81444 0.48716 0.67925 0.0
H196 H 0.93555 0.55706 0.62765 0.0
H197 H 0.01188 0.60535 0.6538 0.0
H198 H 0.9781 0.4588 0.70958 0.0
H199 H 0.06972 0.50345 0.81048 0.0
H200 H 0.86844 0.62471 0.71482 0.0
H201 H 0.94357 0.6571 0.82292 0.0
C202 C 0.24439 0.02384 0.56203 0.0
C203 C 0.28593 0.02407 0.58108 0.0
C204 C 0.3174 0.04109 0.56587 0.0
C205 C 0.29358 0.05032 0.53848 0.0
N206 N 0.24907 0.04061 0.53577 0.0
Co207 Co 0.20285 0.04757 0.4985 0.0
N208 N 0.2491 0.08145 0.48533 0.0
C209 C 0.29344 0.08631 0.49293 0.0
C210 C 0.31702 0.11149 0.48009 0.0
C211 C 0.28546 0.12309 0.46324 0.0
C212 C 0.24429 0.10424 0.46684 0.0
N213 N 0.15697 0.05462 0.46115 0.0
C214 C 0.16 0.07969 0.44465 0.0
C215 C 0.11974 0.07527 0.42033 0.0
C216 C 0.09069 0.04625 0.42161 0.0
C217 C 0.1147 0.03467 0.44659 0.0
N218 N 0.15646 0.01347 0.51141 0.0
C219 C 0.11386 0.99835 0.49191 0.0
C220 C 0.08927 0.97593 0.50747 0.0
C221 C 0.11837 0.97657 0.53843 0.0
C222 C 0.1594 0.99925 0.53991 0.0
N223 N 0.19615 0.07891 0.53206 0.0
C224 C 0.18728 0.12698 0.57665 0.0
C225 C 0.14927 0.10221 0.55597 0.0
C226 C 0.15443 0.07856 0.53378 0.0
C227 C 0.22981 0.12664 0.57482 0.0
C228 C 0.23348 0.10233 0.55279 0.0
N229 N 0.20984 0.01644 0.46476 0.0
C230 C 0.22196 0.96752 0.45161 0.0
C231 C 0.22761 0.9742 0.41891 0.0
C232 C 0.22243 0.00192 0.40905 0.0
C233 C 0.21354 0.02271 0.43234 0.0
C234 C 0.21306 0.98883 0.47403 0.0
H235 H 0.21067 0.04421 0.42437 0.0
H236 H 0.20965 0.98312 0.49914 0.0
H237 H 0.1246 0.06025 0.51767 0.0
H238 H 0.26665 0.10292 0.55196 0.0
C239 C 0.31222 0.0706 0.51714 0.0
C240 C 0.20129 0.00375 0.56653 0.0
C241 C 0.20107 0.10707 0.4502 0.0
C242 C 0.09669 0.00848 0.46146 0.0
H243 H 0.29277 0.01226 0.60296 0.0
H244 H 0.35338 0.04628 0.57398 0.0
H245 H 0.35303 0.12109 0.48374 0.0
H246 H 0.29195 0.14301 0.44973 0.0
H247 H 0.11212 0.09134 0.40354 0.0
H248 H 0.05566 0.03556 0.40721 0.0
H249 H 0.05417 0.96131 0.49782 0.0
H250 H 0.11057 0.96149 0.55736 0.0
H251 H 0.1157 0.10102 0.55681 0.0
H252 H 0.2603 0.14541 0.58964 0.0
H253 H 0.22462 0.94598 0.45998 0.0
H254 H 0.22651 0.00799 0.38399 0.0
C255 C 0.5196 0.87121 0.08253 0.0
C256 C 0.51828 0.89981 0.09729 0.0
C257 C 0.55025 0.92296 0.08827 0.0
C258 C 0.56938 0.90734 0.06873 0.0
N259 N 0.55165 0.87554 0.06476 0.0
Co260 Co 0.56992 0.84391 0.03833 0.0
N261 N 0.61964 0.87808 0.02791 0.0
C262 C 0.63234 0.90947 0.03929 0.0
C263 C 0.66843 0.92705 0.02873 0.0
C264 C 0.67956 0.90559 0.0095 0.0
C265 C 0.64933 0.87609 0.00935 0.0
N266 N 0.58666 0.81226 0.01052 0.0
C267 C 0.61856 0.81659 0.99272 0.0
C268 C 0.61796 0.78814 0.97586 0.0
C269 C 0.58443 0.76497 0.98323 0.0
C270 C 0.56646 0.78054 0.00393 0.0
N271 N 0.52169 0.80965 0.05021 0.0
C272 C 0.51121 0.77816 0.04095 0.0
C273 C 0.47665 0.76037 0.05287 0.0
C274 C 0.46462 0.78171 0.07129 0.0
C275 C 0.49293 0.81148 0.06975 0.0
N276 N 0.52688 0.84532 0.99494 0.0
C277 C 0.46569 0.84771 0.93371 0.0
C278 C 0.4625 0.81918 0.94539 0.0
C279 C 0.49338 0.81848 0.97566 0.0
C280 C 0.50018 0.87496 0.95295 0.0
C281 C 0.52994 0.87329 0.98335 0.0
N282 N 0.61329 0.84277 0.08157 0.0
C283 C 0.65558 0.81544 0.11599 0.0
C284 C 0.67979 0.84292 0.14084 0.0
C285 C 0.66896 0.86997 0.1359 0.0
C286 C 0.63628 0.86945 0.10634 0.0
C287 C 0.62238 0.81579 0.08701 0.0
H288 H 0.6305 0.89108 0.10413 0.0
H289 H 0.60484 0.79401 0.06923 0.0
H290 H 0.48946 0.79593 0.98288 0.0
H291 H 0.55501 0.89504 0.99705 0.0
C292 C 0.60733 0.92179 0.05729 0.0
C293 C 0.49109 0.84065 0.08733 0.0
C294 C 0.6495 0.84703 0.99044 0.0
C295 C 0.53241 0.76599 0.01916 0.0
H296 H 0.49721 0.90368 0.11361 0.0
H297 H 0.55954 0.94819 0.0961 0.0
H298 H 0.68416 0.95247 0.03377 0.0
H299 H 0.70648 0.91101 0.99664 0.0
H300 H 0.63955 0.78449 0.95988 0.0
H301 H 0.57456 0.73977 0.97476 0.0
H302 H 0.46157 0.73491 0.04828 0.0
H303 H 0.43779 0.77592 0.0842 0.0
H304 H 0.43654 0.79736 0.93098 0.0
H305 H 0.5037 0.89762 0.94497 0.0
H306 H 0.6625 0.79377 0.11843 0.0
H307 H 0.68542 0.89165 0.15485 0.0
C308 C 0.8496 0.03297 0.66079 0.0
C309 C 0.88895 0.0362 0.68568 0.0
C310 C 0.92188 0.06133 0.6806 0.0
C311 C 0.90085 0.07225 0.65335 0.0
N312 N 0.8562 0.05611 0.64122 0.0
Co313 Co 0.81316 0.06414 0.60168 0.0
N314 N 0.86167 0.10133 0.59455 0.0
C315 C 0.90545 0.11269 0.61273 0.0
C316 C 0.9302 0.13957 0.60327 0.0
C317 C 0.90014 0.1463 0.57813 0.0
C318 C 0.85869 0.12307 0.57383 0.0
N319 N 0.77061 0.07144 0.56107 0.0
C320 C 0.77651 0.09569 0.54298 0.0
C321 C 0.73747 0.0922 0.51765 0.0
C322 C 0.70579 0.06498 0.52001 0.0
C323 C 0.72703 0.05347 0.54661 0.0
N324 N 0.76402 0.02792 0.60988 0.0
C325 C 0.71999 0.0174 0.59212 0.0
C326 C 0.6947 0.99082 0.60159 0.0
C327 C 0.72422 0.98376 0.62675 0.0
C328 C 0.76614 0.00685 0.6317 0.0
N329 N 0.79939 0.09327 0.63448 0.0
C330 C 0.78066 0.13747 0.67783 0.0
C331 C 0.74708 0.11671 0.64973 0.0
C332 C 0.75693 0.09473 0.62883 0.0
C333 C 0.82347 0.13517 0.68464 0.0
C334 C 0.83217 0.11321 0.66261 0.0
N335 N 0.82691 0.03475 0.56888 0.0
C336 C 0.80232 0.98515 0.52907 0.0
C337 C 0.84589 0.98981 0.52592 0.0
C338 C 0.87988 0.01778 0.54472 0.0
C339 C 0.86984 0.03954 0.56612 0.0
C340 C 0.79357 0.00789 0.54958 0.0
H341 H 0.89745 0.05995 0.58023 0.0
H342 H 0.75937 0.00278 0.54959 0.0
H343 H 0.72978 0.07951 0.60788 0.0
H344 H 0.86584 0.11323 0.66841 0.0
C345 C 0.92183 0.09817 0.63936 0.0
C346 C 0.80733 0.00689 0.65598 0.0
C347 C 0.81716 0.12355 0.55101 0.0
C348 C 0.70512 0.02941 0.56257 0.0
H349 H 0.89365 0.02172 0.70529 0.0
H350 H 0.957 0.07052 0.69503 0.0
H351 H 0.96557 0.15312 0.61405 0.0
H352 H 0.90758 0.16645 0.56503 0.0
H353 H 0.73159 0.10824 0.50027 0.0
H354 H 0.67066 0.0558 0.50563 0.0
H355 H 0.65958 0.97701 0.58995 0.0
H356 H 0.71573 0.96302 0.63873 0.0
H357 H 0.71331 0.11758 0.64376 0.0
H358 H 0.85053 0.15102 0.70609 0.0
H359 H 0.77453 0.96378 0.51616 0.0
H360 H 0.91417 0.02313 0.54296 0.0
C361 C 0.43373 0.34336 0.12928 0.0
C362 C 0.43964 0.37286 0.14709 0.0
C363 C 0.47124 0.39431 0.1358 0.0
C364 C 0.48291 0.37678 0.11197 0.0
N365 N 0.46019 0.34541 0.1069 0.0
Co366 Co 0.4688 0.31112 0.07635 0.0
N367 N 0.519 0.34239 0.06276 0.0
C368 C 0.53486 0.37413 0.073 0.0
C369 C 0.56778 0.38962 0.05809 0.0
C370 C 0.57329 0.36648 0.03694 0.0
C371 C 0.54356 0.33797 0.04041 0.0
N372 N 0.4776 0.2768 0.04605 0.0
C373 C 0.50707 0.27842 0.02621 0.0
C374 C 0.50279 0.24862 0.01022 0.0
C375 C 0.46875 0.22753 0.01951 0.0
C376 C 0.45449 0.24546 0.04085 0.0
N377 N 0.41863 0.27989 0.08983 0.0
C378 C 0.40097 0.24836 0.07823 0.0
C379 C 0.36747 0.23302 0.09273 0.0
C380 C 0.36394 0.25604 0.11542 0.0
C381 C 0.39582 0.28416 0.11351 0.0
N382 N 0.4248 0.31592 0.0355 0.0
C383 C 0.36675 0.32275 0.97519 0.0
C384 C 0.36266 0.29299 0.98349 0.0
C385 C 0.39195 0.29011 0.01353 0.0
C386 C 0.39919 0.34907 0.99779 0.0
C387 C 0.42729 0.34518 0.02778 0.0
N388 N 0.51258 0.30643 0.11717 0.0
C389 C 0.53776 0.274 0.15612 0.0
C390 C 0.57051 0.30065 0.17842 0.0
C391 C 0.57463 0.3301 0.16887 0.0
C392 C 0.54567 0.33242 0.13843 0.0
C393 C 0.50944 0.27739 0.12583 0.0
H394 H 0.5504 0.35556 0.13286 0.0
H395 H 0.4848 0.25625 0.11012 0.0
H396 H 0.38789 0.26674 0.01799 0.0
H397 H 0.45121 0.36623 0.04391 0.0
C398 C 0.51716 0.38883 0.0958 0.0
C399 C 0.4045 0.31398 0.13587 0.0
C400 C 0.53911 0.30747 0.02123 0.0
C401 C 0.41912 0.23356 0.05596 0.0
H402 H 0.42368 0.37828 0.16687 0.0
H403 H 0.48516 0.41959 0.14478 0.0
H404 H 0.58512 0.4148 0.06168 0.0
H405 H 0.59619 0.37037 0.02044 0.0
H406 H 0.52209 0.24266 0.99338 0.0
H407 H 0.4558 0.20213 0.01153 0.0
H408 H 0.34889 0.20796 0.08823 0.0
H409 H 0.34129 0.25246 0.13217 0.0
H410 H 0.33793 0.272 0.96629 0.0
H411 H 0.40328 0.37256 0.99206 0.0
H412 H 0.53322 0.25065 0.16238 0.0
H413 H 0.60021 0.35141 0.18478 0.0
H414 H 0.20142 0.38077 0.27714 0.0
H415 H 0.22697 0.36201 0.38287 0.0
H416 H 0.20132 0.40434 0.40173 0.0
H417 H 0.17162 0.44696 0.38823 0.0
H418 H 0.15191 0.46798 0.28361 0.0
H419 H 0.17668 0.42508 0.26454 0.0
C420 C 0.20231 0.3862 0.30449 0.0
C421 C 0.21607 0.36795 0.32841 0.0
C422 C 0.18875 0.41116 0.31543 0.0
C423 C 0.21579 0.37512 0.36359 0.0
C424 C 0.20146 0.39955 0.37453 0.0
C425 C 0.1729 0.44208 0.36131 0.0
C426 C 0.15998 0.46045 0.3373 0.0
C427 C 0.18773 0.41765 0.35066 0.0
C428 C 0.16206 0.45423 0.30255 0.0
C429 C 0.17599 0.42965 0.29163 0.0
H430 H 0.11188 0.76032 0.7156 0.0
H431 H 0.22519 0.73455 0.7031 0.0
H432 H 0.18181 0.67878 0.69885 0.0
H433 H 0.11603 0.63871 0.70856 0.0
H434 H 0.00469 0.66491 0.72518 0.0
H435 H 0.04223 0.719 0.71765 0.0
C436 C 0.12631 0.74229 0.71067 0.0
C437 C 0.17136 0.75125 0.70945 0.0
C438 C 0.1017 0.71045 0.70967 0.0
C439 C 0.19034 0.72794 0.70383 0.0
C440 C 0.16572 0.69616 0.70174 0.0
C441 C 0.09976 0.65621 0.70958 0.0
C442 C 0.05804 0.64831 0.71741 0.0
C443 C 0.12206 0.6873 0.70611 0.0
C444 C 0.03692 0.67084 0.71906 0.0
C445 C 0.05844 0.70168 0.71493 0.0
H446 H 0.94315 0.75634 0.35566 0.0
H447 H 0.9348 0.753 0.46208 0.0
H448 H 0.96445 0.70942 0.46334 0.0
H449 H 0.98984 0.6709 0.43298 0.0
H450 H 0.99857 0.67578 0.3267 0.0
H451 H 0.97102 0.71988 0.32651 0.0
C452 C 0.9478 0.74618 0.37922 0.0
C453 C 0.93644 0.75771 0.40871 0.0
C454 C 0.96455 0.72119 0.37964 0.0
C455 C 0.94325 0.74444 0.43906 0.0
C456 C 0.96006 0.7195 0.43973 0.0
C457 C 0.98607 0.6818 0.40991 0.0
C458 C 0.99569 0.66966 0.37972 0.0
C459 C 0.97044 0.70747 0.41001 0.0
C460 C 0.99042 0.68405 0.35 0.0
C461 C 0.97498 0.70948 0.34993 0.0
H462 H 0.79506 0.38821 0.85719 0.0
H463 H 0.80755 0.34045 0.76204 0.0
H464 H 0.84854 0.39041 0.74943 0.0
H465 H 0.88029 0.44808 0.76408 0.0
H466 H 0.84906 0.49601 0.84866 0.0
H467 H 0.81497 0.44551 0.86608 0.0
C468 C 0.80538 0.38809 0.83315 0.0
C469 C 0.79868 0.35937 0.81161 0.0
C470 C 0.82596 0.41733 0.82403 0.0
C471 C 0.81368 0.36119 0.78079 0.0
C472 C 0.83672 0.39012 0.77291 0.0
C473 C 0.86578 0.44742 0.78623 0.0
C474 C 0.86895 0.47579 0.80603 0.0
C475 C 0.84317 0.41829 0.79437 0.0
C476 C 0.84904 0.47458 0.83409 0.0
C477 C 0.82901 0.44569 0.84373 0.0
H478 H 0.21583 0.23151 0.3875 0.0
H479 H 0.20567 0.1696 0.29437 0.0
H480 H 0.19777 0.12555 0.32639 0.0
H481 H 0.19602 0.10501 0.38139 0.0
H482 H 0.20754 0.16676 0.47474 0.0
H483 H 0.21256 0.21067 0.44225 0.0
C484 C 0.2117 0.20836 0.37418 0.0
C485 C 0.21133 0.20373 0.33859 0.0
C486 C 0.20739 0.1832 0.39282 0.0
C487 C 0.20606 0.17364 0.32175 0.0
C488 C 0.20155 0.14849 0.34002 0.0
C489 C 0.19909 0.12806 0.39432 0.0
C490 C 0.20086 0.13289 0.43006 0.0
C491 C 0.2024 0.15303 0.37558 0.0
C492 C 0.20564 0.16274 0.44706 0.0
C493 C 0.20865 0.18773 0.42854 0.0
H494 H 0.35057 0.85787 0.78742 0.0
H495 H 0.24354 0.8023 0.82715 0.0
H496 H 0.29734 0.80576 0.88219 0.0
H497 H 0.37512 0.82151 0.91758 0.0
H498 H 0.48299 0.87713 0.87881 0.0
H499 H 0.42875 0.87703 0.82507 0.0
C500 C 0.33911 0.84707 0.80844 0.0
C501 C 0.29331 0.8296 0.80318 0.0
C502 C 0.3704 0.84888 0.84002 0.0
C503 C 0.27877 0.81554 0.8305 0.0
C504 C 0.30948 0.81747 0.86194 0.0
C505 C 0.3867 0.83357 0.89731 0.0
C506 C 0.43289 0.84897 0.90189 0.0
C507 C 0.35543 0.83344 0.86667 0.0
C508 C 0.44749 0.86509 0.87581 0.0
C509 C 0.41653 0.86498 0.84508 0.0
H510 H 0.90991 0.8931 0.44222 0.0
H511 H 0.77124 0.86452 0.38231 0.0
H512 H 0.75962 0.90507 0.41946 0.0
H513 H 0.78882 0.94988 0.46646 0.0
H514 H 0.92382 0.97514 0.53279 0.0
H515 H 0.93715 0.93545 0.49483 0.0
C516 C 0.87703 0.89547 0.43767 0.0
C517 C 0.8419 0.87625 0.4088 0.0
C518 C 0.87002 0.91862 0.45984 0.0
C519 C 0.79939 0.8796 0.40351 0.0
C520 C 0.79254 0.90273 0.42487 0.0
C521 C 0.82092 0.94641 0.47358 0.0
C522 C 0.85499 0.96572 0.50293 0.0
C523 C 0.82772 0.92262 0.45275 0.0
C524 C 0.8969 0.96121 0.5102 0.0
C525 C 0.90447 0.93816 0.48868 0.0
H526 H 0.62736 0.29302 0.89631 0.0
H527 H 0.74835 0.33549 0.98041 0.0
H528 H 0.70363 0.33586 0.02249 0.0
H529 H 0.62994 0.32468 0.03529 0.0
H530 H 0.50905 0.28688 0.95068 0.0
H531 H 0.55354 0.28377 0.90885 0.0
C532 C 0.6438 0.30211 0.92389 0.0
C533 C 0.691 0.31389 0.93544 0.0
C534 C 0.61783 0.30311 0.94776 0.0
C535 C 0.712 0.32619 0.97107 0.0
C536 C 0.68649 0.32642 0.99509 0.0
C537 C 0.61354 0.31591 0.00764 0.0
C538 C 0.56647 0.30596 0.99594 0.0
C539 C 0.6394 0.31508 0.98373 0.0
C540 C 0.54533 0.29455 0.96014 0.0
C541 C 0.57073 0.29283 0.93629 0.0
H542 H 0.20567 0.88742 0.64106 0.0
H543 H 0.2451 0.95861 0.73324 0.0
H544 H 0.23792 0.99807 0.69651 0.0
H545 H 0.22146 0.01253 0.63776 0.0
H546 H 0.1849 0.94151 0.54606 0.0
H547 H 0.18953 0.90172 0.58282 0.0
C548 C 0.21252 0.91152 0.65313 0.0
C549 C 0.22576 0.92011 0.68983 0.0
C550 C 0.20863 0.93408 0.63186 0.0
C551 C 0.23481 0.95149 0.70502 0.0
C552 C 0.23069 0.97403 0.68404 0.0
C553 C 0.21416 0.98824 0.62605 0.0
C554 C 0.20208 0.97967 0.58943 0.0
C555 C 0.2177 0.96563 0.64741 0.0
C556 C 0.19346 0.94835 0.57427 0.0
C557 C 0.19635 0.9257 0.59525 0.0
H558 H 0.83626 0.87236 0.27909 0.0
H559 H 0.76385 0.7758 0.28298 0.0
H560 H 0.71159 0.77086 0.22624 0.0
H561 H 0.68266 0.79579 0.17867 0.0
H562 H 0.75828 0.89161 0.17318 0.0
H563 H 0.81271 0.89516 0.22767 0.0
C564 C 0.80939 0.85014 0.26712 0.0
C565 C 0.80357 0.82452 0.28497 0.0
C566 C 0.77966 0.84752 0.23461 0.0
C567 C 0.76895 0.79574 0.26941 0.0
C568 C 0.73895 0.79301 0.23717 0.0
C569 C 0.71149 0.81726 0.18885 0.0
C570 C 0.71552 0.84361 0.17203 0.0
C571 C 0.74341 0.81899 0.21991 0.0
C572 C 0.75323 0.87125 0.18603 0.0
C573 C 0.78474 0.87326 0.2171 0.0
H574 H 0.73784 0.25364 0.74167 0.0
H575 H 0.78415 0.2236 0.83809 0.0
H576 H 0.79556 0.17945 0.80523 0.0
H577 H 0.79521 0.15083 0.74872 0.0
H578 H 0.74579 0.18036 0.65261 0.0
H579 H 0.7328 0.22335 0.68556 0.0
C580 C 0.75018 0.23726 0.75539 0.0
C581 C 0.76046 0.24183 0.79213 0.0
C582 C 0.75632 0.21203 0.73637 0.0
C583 C 0.77592 0.22037 0.80975 0.0
C584 C 0.78266 0.19531 0.79099 0.0
C585 C 0.78154 0.16671 0.73515 0.0
C586 C 0.77162 0.16263 0.69838 0.0
C587 C 0.7735 0.19114 0.75429 0.0
C588 C 0.75346 0.18304 0.68091 0.0
C589 C 0.74614 0.20764 0.69971 0.0
H590 H 0.33632 0.30002 0.27242 0.0
H591 H 0.24343 0.34068 0.21755 0.0
H592 H 0.27915 0.34397 0.16937 0.0
H593 H 0.33588 0.33414 0.14201 0.0
H594 H 0.42825 0.29315 0.19635 0.0
H595 H 0.39354 0.29077 0.24543 0.0
C596 C 0.32376 0.30942 0.24982 0.0
C597 C 0.28728 0.32009 0.24861 0.0
C598 C 0.34438 0.31114 0.22212 0.0
C599 C 0.27179 0.33263 0.21933 0.0
C600 C 0.29204 0.33438 0.19167 0.0
C601 C 0.34841 0.32495 0.16481 0.0
C602 C 0.38452 0.31402 0.16602 0.0
C603 C 0.32826 0.32364 0.19273 0.0
C604 C 0.40053 0.30181 0.19527 0.0
C605 C 0.38069 0.30042 0.22317 0.0
H606 H 0.82437 0.75194 0.80069 0.0
H607 H 0.84569 0.76936 0.7 0.0
H608 H 0.87428 0.72558 0.69575 0.0
H609 H 0.89392 0.6827 0.72102 0.0
H610 H 0.87228 0.66548 0.82172 0.0
H611 H 0.84347 0.709 0.8257 0.0
C612 C 0.83518 0.74617 0.77777 0.0
C613 C 0.83285 0.76384 0.75061 0.0
C614 C 0.85167 0.72105 0.77557 0.0
C615 C 0.84715 0.75605 0.7212 0.0
C616 C 0.86348 0.73104 0.71876 0.0
C617 C 0.88248 0.68828 0.74367 0.0
C618 C 0.88529 0.67083 0.77103 0.0
C619 C 0.8659 0.71337 0.7458 0.0
C620 C 0.871 0.67873 0.80047 0.0
C621 C 0.8543 0.70353 0.8027 0.0
H622 H 0.81511 0.41306 0.41243 0.0
H623 H 0.90272 0.35806 0.41893 0.0
H624 H 0.96685 0.40559 0.42373 0.0
H625 H 0.99562 0.46107 0.41673 0.0
H626 H 0.90745 0.51536 0.40593 0.0
H627 H 0.84583 0.46995 0.41201 0.0
C628 C 0.84835 0.41155 0.4153 0.0
C629 C 0.85393 0.38194 0.41489 0.0
C630 C 0.88487 0.43884 0.41692 0.0
C631 C 0.89739 0.38049 0.41937 0.0
C632 C 0.93407 0.40764 0.42176 0.0
C633 C 0.96322 0.46308 0.41686 0.0
C634 C 0.95578 0.49132 0.41127 0.0
C635 C 0.92788 0.43669 0.41931 0.0
C636 C 0.91369 0.49381 0.41065 0.0
C637 C 0.87854 0.46783 0.41383 0.0
H638 H 0.09399 0.36644 0.80035 0.0
H639 H 0.13405 0.37618 0.70422 0.0
H640 H 0.09777 0.4153 0.69384 0.0
H641 H 0.05941 0.44998 0.71428 0.0
H642 H 0.02504 0.44297 0.81263 0.0
H643 H 0.05481 0.40005 0.82016 0.0
C644 C 0.0951 0.3772 0.7772 0.0
C645 C 0.11702 0.36827 0.75325 0.0
C646 C 0.07536 0.40046 0.77188 0.0
C647 C 0.117 0.3821 0.72297 0.0
C648 C 0.09657 0.40478 0.71712 0.0
C649 C 0.05803 0.43871 0.73708 0.0
C650 C 0.04023 0.44957 0.76292 0.0
C651 C 0.07623 0.41451 0.74165 0.0
C652 C 0.03891 0.43507 0.79255 0.0
C653 C 0.0559 0.41056 0.79685 0.0
H654 H 0.26393 0.74352 0.2924 0.0
H655 H 0.14088 0.7644 0.27343 0.0
H656 H 0.10367 0.71653 0.29394 0.0
H657 H 0.10655 0.66926 0.3187 0.0
H658 H 0.22844 0.64732 0.336 0.0
H659 H 0.26583 0.69501 0.3148 0.0
C660 C 0.2288 0.73732 0.29227 0.0
C661 C 0.20527 0.75755 0.28155 0.0
C662 C 0.20764 0.7098 0.30425 0.0
C663 C 0.15987 0.74938 0.28192 0.0
C664 C 0.13855 0.72202 0.29362 0.0
C665 C 0.14139 0.67521 0.31799 0.0
C666 C 0.16533 0.65562 0.32979 0.0
C667 C 0.16224 0.70228 0.30525 0.0
C668 C 0.21002 0.6628 0.32802 0.0
C669 C 0.23117 0.68983 0.31562 0.0
H670 H 0.82824 0.89465 0.73325 0.0
H671 H 0.71418 0.90632 0.76503 0.0
H672 H 0.7192 0.95066 0.73506 0.0
H673 H 0.75604 0.98701 0.70034 0.0
H674 H 0.85697 0.96803 0.65634 0.0
H675 H 0.85701 0.92574 0.6905 0.0
C676 C 0.80379 0.9063 0.73323 0.0
C677 C 0.77215 0.8975 0.75304 0.0
C678 C 0.80462 0.93075 0.71376 0.0
C679 C 0.74082 0.9133 0.75206 0.0
C680 C 0.74307 0.93857 0.73437 0.0
C681 C 0.77745 0.97322 0.69776 0.0
C682 C 0.80641 0.98055 0.67594 0.0
C683 C 0.77508 0.9477 0.71547 0.0
C684 C 0.83452 0.96285 0.67321 0.0
C685 C 0.83438 0.93861 0.69256 0.0
H686 H 0.70723 0.27715 0.30425 0.0
H687 H 0.69379 0.36058 0.35533 0.0
H688 H 0.63809 0.36072 0.3029 0.0
H689 H 0.59606 0.33874 0.2418 0.0
H690 H 0.61127 0.25651 0.18946 0.0
H691 H 0.66266 0.25388 0.24328 0.0
C692 C 0.69151 0.29503 0.30399 0.0
C693 C 0.70461 0.31887 0.33351 0.0
C694 C 0.66 0.29525 0.27353 0.0
C695 C 0.68444 0.34214 0.33278 0.0
C696 C 0.65263 0.34223 0.30284 0.0
C697 C 0.6108 0.32033 0.24206 0.0
C698 C 0.60012 0.29805 0.21151 0.0
C699 C 0.64077 0.31925 0.27288 0.0
C700 C 0.61869 0.27388 0.21263 0.0
C701 C 0.64828 0.27246 0.24335 0.0
H702 H 0.14953 0.24129 0.65336 0.0
H703 H 0.27353 0.24787 0.72596 0.0
H704 H 0.2753 0.20112 0.69135 0.0
H705 H 0.24255 0.15901 0.64044 0.0
H706 H 0.12217 0.15454 0.5644 0.0
H707 H 0.11732 0.1991 0.60086 0.0
C708 C 0.17678 0.23236 0.66154 0.0
C709 C 0.21137 0.24788 0.69213 0.0
C710 C 0.17809 0.20573 0.64107 0.0
C711 C 0.24665 0.23628 0.7024 0.0
C712 C 0.24765 0.20954 0.68269 0.0
C713 C 0.21551 0.16793 0.63144 0.0
C714 C 0.18297 0.15333 0.59949 0.0
C715 C 0.21375 0.19423 0.65187 0.0
C716 C 0.14747 0.16487 0.58904 0.0
C717 C 0.14486 0.19063 0.60974 0.0
H718 H 0.33958 0.83463 0.16542 0.0
H719 H 0.41336 0.78776 0.23125 0.0
H720 H 0.4686 0.79657 0.1968 0.0
H721 H 0.4951 0.81675 0.14722 0.0
H722 H 0.41815 0.85962 0.07848 0.0
H723 H 0.36526 0.85382 0.11503 0.0
C724 C 0.36787 0.82649 0.17228 0.0
C725 C 0.3727 0.81074 0.20092 0.0
C726 C 0.39897 0.83111 0.15194 0.0
C727 C 0.40911 0.79995 0.20927 0.0
C728 C 0.44069 0.80503 0.18966 0.0
C729 C 0.4668 0.82492 0.1405 0.0
C730 C 0.46053 0.83885 0.11059 0.0
C731 C 0.43587 0.82049 0.16089 0.0
C732 C 0.42372 0.84917 0.10172 0.0
C733 C 0.39344 0.84568 0.12245 0.0
H734 H 0.81811 0.2589 0.52396 0.0
H735 H 0.7879 0.21348 0.41679 0.0
H736 H 0.79158 0.1646 0.43627 0.0
H737 H 0.80345 0.13463 0.48402 0.0
H738 H 0.82882 0.17893 0.5908 0.0
H739 H 0.82758 0.22848 0.57151 0.0
C740 C 0.81234 0.23824 0.50495 0.0
C741 C 0.80271 0.23973 0.46907 0.0
C742 C 0.81374 0.21007 0.51633 0.0
C743 C 0.79512 0.21286 0.44458 0.0
C744 C 0.79733 0.18492 0.4557 0.0
C745 C 0.80825 0.15513 0.50289 0.0
C746 C 0.81575 0.15326 0.53866 0.0
C747 C 0.80649 0.18322 0.49149 0.0
C748 C 0.82277 0.17998 0.5631 0.0
C749 C 0.82202 0.2082 0.55208 0.0
H750 H 0.2803 0.33601 0.82212 0.0
H751 H 0.16445 0.32325 0.86264 0.0
H752 H 0.20843 0.32077 0.92039 0.0
H753 H 0.27951 0.31962 0.95846 0.0
H754 H 0.39516 0.33383 0.91745 0.0
H755 H 0.35172 0.33814 0.86057 0.0
C756 C 0.26483 0.33285 0.8437 0.0
C757 C 0.21925 0.32956 0.83825 0.0
C758 C 0.29022 0.33145 0.87654 0.0
C759 C 0.19958 0.32593 0.8664 0.0
C760 C 0.22462 0.32431 0.89926 0.0
C761 C 0.29493 0.32376 0.93696 0.0
C762 C 0.34011 0.32621 0.94165 0.0
C763 C 0.26982 0.32659 0.9045 0.0
C764 C 0.36029 0.33181 0.91404 0.0
C765 C 0.33552 0.33428 0.88167 0.0
H766 H 0.28873 0.8722 0.34527 0.0
H767 H 0.19349 0.87992 0.25538 0.0
H768 H 0.18129 0.92251 0.29049 0.0
H769 H 0.19363 0.95425 0.34823 0.0
H770 H 0.28914 0.9456 0.43786 0.0
H771 H 0.30541 0.90659 0.40149 0.0
C772 C 0.26594 0.88371 0.3334 0.0
C773 C 0.24213 0.87341 0.29807 0.0
C774 C 0.25882 0.90761 0.35378 0.0
C775 C 0.21234 0.88795 0.28261 0.0
C776 C 0.20524 0.91205 0.3027 0.0
C777 C 0.21846 0.94415 0.35963 0.0
C778 C 0.23963 0.95244 0.39579 0.0
C779 C 0.22767 0.92163 0.33853 0.0
C780 C 0.27163 0.93907 0.41026 0.0
C781 C 0.28117 0.9169 0.38947 0.0
H782 H 0.77693 0.84111 0.89265 0.0
H783 H 0.67148 0.8589 0.81959 0.0
H784 H 0.63188 0.86093 0.86472 0.0
H785 H 0.6266 0.85722 0.92481 0.0
H786 H 0.73065 0.83908 0.99839 0.0
H787 H 0.77176 0.83774 0.9535 0.0
C788 C 0.74519 0.84525 0.88672 0.0
C789 C 0.72724 0.85001 0.85298 0.0
C790 C 0.72259 0.84653 0.91291 0.0
C791 C 0.6862 0.85555 0.84554 0.0
C792 C 0.66348 0.85666 0.87126 0.0
C793 C 0.65851 0.85328 0.93087 0.0
C794 C 0.67609 0.84848 0.96447 0.0
C795 C 0.68139 0.85229 0.90501 0.0
C796 C 0.71705 0.84306 0.97248 0.0
C797 C 0.74028 0.84215 0.94686 0.0
loop_
_geom_bond_atom_site_label_1
_geom_bond_atom_site_label_2
_geom_bond_distance
_geom_bond_site_symmetry_2
_ccdc_geom_bond_type
H0 C5 0.930 . S
H1 C8 0.930 . S
H2 C10 0.930 . S
H3 C4 1.016 . S
C4 H3 1.016 . S
C4 N11 1.286 . S
C5 H0 0.930 . S
C5 C6 1.397 . S
C5 C7 1.361 . S
C6 C5 1.397 . S
C6 C10 1.390 . S
C7 C5 1.361 . S
C7 C8 1.393 . S
C7 N11 1.413 . S
C8 H1 0.930 . S
C8 C7 1.393 . S
C8 C9 1.399 . S
C9 C8 1.399 . S
C9 C10 1.381 . S
C10 H2 0.930 . S
C10 C6 1.390 . S
C10 C9 1.381 . S
N11 C4 1.286 . S
N11 C7 1.413 . S
H12 C17 0.930 . S
H13 C20 0.930 . S
H14 C22 0.930 . S
H15 C16 1.016 . S
C16 H15 1.016 . S
C16 N23 1.286 . S
C17 H12 0.930 . S
C17 C18 1.397 . S
C17 C19 1.361 . S
C18 C17 1.397 . S
C18 C22 1.390 . S
C19 C17 1.361 . S
C19 C20 1.393 . S
C19 N23 1.413 . S
C20 H13 0.930 . S
C20 C19 1.393 . S
C20 C21 1.399 . S
C21 C20 1.399 . S
C21 C22 1.381 . S
C22 H14 0.930 . S
C22 C18 1.390 . S
C22 C21 1.381 . S
N23 C16 1.286 . S
N23 C19 1.413 . S
H24 C29 0.930 . S
H25 C32 0.930 . S
H26 C34 0.930 . S
H27 C28 1.016 . S
C28 H27 1.016 . S
C28 N35 1.286 . S
C29 H24 0.930 . S
C29 C30 1.397 . S
C29 C31 1.361 . S
C30 C29 1.397 . S
C30 C34 1.390 . S
C31 C29 1.361 . S
C31 C32 1.393 . S
C31 N35 1.413 . S
C32 H25 0.930 . S
C32 C31 1.393 . S
C32 C33 1.399 . S
C33 C32 1.399 . S
C33 C34 1.381 . S
C34 H26 0.930 . S
C34 C30 1.390 . S
C34 C33 1.381 . S
N35 C28 1.286 . S
N35 C31 1.413 . S
H36 C41 0.930 . S
H37 C44 0.930 . S
H38 C46 0.930 . S
H39 C40 1.016 . S
C40 H39 1.016 . S
C40 N47 1.286 . S
C41 H36 0.930 . S
C41 C42 1.397 . S
C41 C43 1.361 . S
C42 C41 1.397 . S
C42 C46 1.390 . S
C43 C41 1.361 . S
C43 C44 1.393 . S
C43 N47 1.413 . S
C44 H37 0.930 . S
C44 C43 1.393 . S
C44 C45 1.399 . S
C45 C44 1.399 . S
C45 C46 1.381 . S
C46 H38 0.930 . S
C46 C42 1.390 . S
C46 C45 1.381 . S
N47 C40 1.286 . S
N47 C43 1.413 . S
H48 C53 0.930 . S
H49 C56 0.930 . S
H50 C58 0.930 . S
H51 C52 1.016 . S
C52 H51 1.016 . S
C52 N59 1.286 . S
C53 H48 0.930 . S
C53 C54 1.397 . S
C53 C55 1.361 . S
C54 C53 1.397 . S
C54 C58 1.390 . S
C55 C53 1.361 . S
C55 C56 1.393 . S
C55 N59 1.413 . S
C56 H49 0.930 . S
C56 C55 1.393 . S
C56 C57 1.399 . S
C57 C56 1.399 . S
C57 C58 1.381 . S
C58 H50 0.930 . S
C58 C54 1.390 . S
C58 C57 1.381 . S
N59 C52 1.286 . S
N59 C55 1.413 . S
H60 C65 0.930 . S
H61 C68 0.930 . S
H62 C70 0.930 . S
H63 C64 1.016 . S
C64 H63 1.016 . S
C64 N71 1.286 . S
C65 H60 0.930 . S
C65 C66 1.397 . S
C65 C67 1.361 . S
C66 C65 1.397 . S
C66 C70 1.390 . S
C67 C65 1.361 . S
C67 C68 1.393 . S
C67 N71 1.413 . S
C68 H61 0.930 . S
C68 C67 1.393 . S
C68 C69 1.399 . S
C69 C68 1.399 . S
C69 C70 1.381 . S
C70 H62 0.930 . S
C70 C66 1.390 . S
C70 C69 1.381 . S
N71 C64 1.286 . S
N71 C67 1.413 . S
H72 C77 0.930 . S
H73 C80 0.930 . S
H74 C82 0.930 . S
H75 C76 1.016 . S
C76 H75 1.016 . S
C76 N83 1.286 . S
C77 H72 0.930 . S
C77 C78 1.397 . S
C77 C79 1.361 . S
C78 C77 1.397 . S
C78 C82 1.390 . S
C79 C77 1.361 . S
C79 C80 1.393 . S
C79 N83 1.413 . S
C80 H73 0.930 . S
C80 C79 1.393 . S
C80 C81 1.399 . S
C81 C80 1.399 . S
C81 C82 1.381 . S
C82 H74 0.930 . S
C82 C78 1.390 . S
C82 C81 1.381 . S
N83 C76 1.286 . S
N83 C79 1.413 . S
H84 C89 0.930 . S
H85 C92 0.930 . S
H86 C94 0.930 . S
H87 C88 1.016 . S
C88 H87 1.016 . S
C88 N95 1.286 . S
C89 H84 0.930 . S
C89 C90 1.397 . S
C89 C91 1.361 . S
C90 C89 1.397 . S
C90 C94 1.390 . S
C91 C89 1.361 . S
C91 C92 1.393 . S
C91 N95 1.413 . S
C92 H85 0.930 . S
C92 C91 1.393 . S
C92 C93 1.399 . S
C93 C92 1.399 . S
C93 C94 1.381 . S
C94 H86 0.930 . S
C94 C90 1.390 . S
C94 C93 1.381 . S
N95 C88 1.286 . S
N95 C91 1.413 . S
C96 C97 1.443 . S
C96 N100 1.376 . S
C96 C134 1.389 . S
C97 C96 1.443 . S
C97 C98 1.340 . S
C97 H137 0.951 . S
C98 C97 1.340 . S
C98 C99 1.439 . S
C98 H138 0.950 . S
C99 C98 1.439 . S
C99 N100 1.374 . S
C99 C133 1.395 . S
N100 C96 1.376 . S
N100 C99 1.374 . S
N100 Co101 2.008 . S
Co101 N100 2.008 . S
Co101 N102 1.995 . S
Co101 N107 2.008 . S
Co101 N112 1.995 . S
Co101 N117 2.282 . S
Co101 N123 2.282 . S
N102 Co101 1.995 . S
N102 C103 1.376 . S
N102 C106 1.383 . S
C103 N102 1.376 . S
C103 C104 1.446 . S
C103 C133 1.391 . S
C104 C103 1.446 . S
C104 C105 1.339 . S
C104 H139 0.949 . S
C105 C104 1.339 . S
C105 C106 1.439 . S
C105 H140 0.950 . S
C106 N102 1.383 . S
C106 C105 1.439 . S
C106 C135 1.392 . S
N107 Co101 2.008 . S
N107 C108 1.376 . S
N107 C111 1.374 . S
C108 N107 1.376 . S
C108 C109 1.443 1_455 S
C108 C135 1.389 . S
C109 C108 1.443 1_655 S
C109 C110 1.340 . S
C109 H141 0.951 . S
C110 C109 1.340 . S
C110 C111 1.439 1_655 S
C110 H142 0.950 . S
C111 N107 1.374 . S
C111 C110 1.439 1_455 S
C111 C136 1.395 . S
N112 Co101 1.995 . S
N112 C113 1.376 . S
N112 C116 1.383 . S
C113 N112 1.376 . S
C113 C114 1.446 . S
C113 C136 1.391 . S
C114 C113 1.446 . S
C114 C115 1.339 . S
C114 H143 0.949 . S
C115 C114 1.339 . S
C115 C116 1.439 . S
C115 H144 0.950 . S
C116 N112 1.383 . S
C116 C115 1.439 . S
C116 C134 1.392 . S
N117 Co101 2.282 . S
N117 C120 1.332 . S
N117 C122 1.332 . S
C118 C119 1.386 . S
C118 C121 1.388 . S
C119 C118 1.386 . S
C119 C120 1.382 . S
C119 H145 0.950 . S
C120 N117 1.332 . S
C120 C119 1.382 . S
C120 H131 0.952 . S
C121 C118 1.388 . S
C121 C122 1.382 . S
C121 H146 0.950 . S
C122 N117 1.332 . S
C122 C121 1.382 . S
C122 H132 0.948 . S
N123 Co101 2.282 . S
N123 C127 1.332 . S
N123 C128 1.332 . S
C124 C125 1.388 . S
C124 C128 1.382 . S
C124 H147 0.950 . S
C125 C124 1.388 . S
C125 C126 1.386 . S
C126 C125 1.386 . S
C126 C127 1.382 . S
C126 H148 0.950 . S
C127 N123 1.332 . S
C127 C126 1.382 . S
C127 H129 0.952 . S
C128 N123 1.332 . S
C128 C124 1.382 . S
C128 H130 0.948 . S
H129 C127 0.952 . S
H130 C128 0.948 . S
H131 C120 0.952 . S
H132 C122 0.948 . S
C133 C99 1.395 . S
C133 C103 1.391 . S
C134 C96 1.389 . S
C134 C116 1.392 . S
C135 C106 1.392 . S
C135 C108 1.389 . S
C136 C111 1.395 . S
C136 C113 1.391 . S
H137 C97 0.951 . S
H138 C98 0.950 . S
H139 C104 0.949 . S
H140 C105 0.950 . S
H141 C109 0.951 . S
H142 C110 0.950 . S
H143 C114 0.949 . S
H144 C115 0.950 . S
H145 C119 0.950 . S
H146 C121 0.950 . S
H147 C124 0.950 . S
H148 C126 0.950 . S
C149 C150 1.443 . S
C149 N153 1.376 . S
C149 C187 1.389 . S
C150 C149 1.443 . S
C150 C151 1.340 . S
C150 H190 0.951 . S
C151 C150 1.340 . S
C151 C152 1.439 . S
C151 H191 0.950 . S
C152 C151 1.439 . S
C152 N153 1.374 . S
C152 C186 1.395 . S
N153 C149 1.376 . S
N153 C152 1.374 . S
N153 Co154 2.008 . S
Co154 N153 2.008 . S
Co154 N155 1.995 1_455 S
Co154 N160 2.008 1_455 S
Co154 N165 1.995 . S
Co154 N170 2.282 . S
Co154 N176 2.282 1_455 S
N155 Co154 1.995 1_655 S
N155 C156 1.376 1_655 S
N155 C159 1.383 . S
C156 N155 1.376 1_455 S
C156 C157 1.446 . S
C156 C186 1.391 . S
C157 C156 1.446 . S
C157 C158 1.339 1_455 S
C157 H192 0.949 . S
C158 C157 1.339 1_655 S
C158 C159 1.439 . S
C158 H193 0.950 . S
C159 N155 1.383 . S
C159 C158 1.439 . S
C159 C188 1.392 . S
N160 Co154 2.008 1_655 S
N160 C161 1.376 . S
N160 C164 1.374 . S
C161 N160 1.376 . S
C161 C162 1.443 . S
C161 C188 1.389 . S
C162 C161 1.443 . S
C162 C163 1.340 . S
C162 H194 0.951 . S
C163 C162 1.340 . S
C163 C164 1.439 . S
C163 H195 0.950 . S
C164 N160 1.374 . S
C164 C163 1.439 . S
C164 C189 1.395 . S
N165 Co154 1.995 . S
N165 C166 1.376 1_455 S
N165 C169 1.383 . S
C166 N165 1.376 1_655 S
C166 C167 1.446 . S
C166 C189 1.391 . S
C167 C166 1.446 . S
C167 C168 1.339 1_655 S
C167 H196 0.949 . S
C168 C167 1.339 1_455 S
C168 C169 1.439 . S
C168 H197 0.950 . S
C169 N165 1.383 . S
C169 C168 1.439 . S
C169 C187 1.392 . S
N170 Co154 2.282 . S
N170 C173 1.332 . S
N170 C175 1.332 . S
C171 C172 1.386 . S
C171 C174 1.388 . S
C172 C171 1.386 . S
C172 C173 1.382 . S
C172 H198 0.950 . S
C173 N170 1.332 . S
C173 C172 1.382 . S
C173 H184 0.952 . S
C174 C171 1.388 . S
C174 C175 1.382 . S
C174 H199 0.950 . S
C175 N170 1.332 . S
C175 C174 1.382 . S
C175 H185 0.948 . S
N176 Co154 2.282 1_655 S
N176 C180 1.332 . S
N176 C181 1.332 . S
C177 C178 1.388 . S
C177 C181 1.382 . S
C177 H200 0.950 . S
C178 C177 1.388 . S
C178 C179 1.386 . S
C179 C178 1.386 . S
C179 C180 1.382 . S
C179 H201 0.950 . S
C180 N176 1.332 . S
C180 C179 1.382 . S
C180 H182 0.952 . S
C181 N176 1.332 . S
C181 C177 1.382 . S
C181 H183 0.948 . S
H182 C180 0.952 . S
H183 C181 0.948 . S
H184 C173 0.952 . S
H185 C175 0.948 . S
C186 C152 1.395 . S
C186 C156 1.391 . S
C187 C149 1.389 . S
C187 C169 1.392 . S
C188 C159 1.392 . S
C188 C161 1.389 . S
C189 C164 1.395 . S
C189 C166 1.391 . S
H190 C150 0.951 . S
H191 C151 0.950 . S
H192 C157 0.949 . S
H193 C158 0.950 . S
H194 C162 0.951 . S
H195 C163 0.950 . S
H196 C167 0.949 . S
H197 C168 0.950 . S
H198 C172 0.950 . S
H199 C174 0.950 . S
H200 C177 0.950 . S
H201 C179 0.950 . S
C202 C203 1.443 . S
C202 N206 1.376 . S
C202 C240 1.389 . S
C203 C202 1.443 . S
C203 C204 1.340 . S
C203 H243 0.951 . S
C204 C203 1.340 . S
C204 C205 1.439 1_565 S
C204 H244 0.950 . S
C205 C204 1.439 1_545 S
C205 N206 1.374 1_545 S
C205 C239 1.395 . S
N206 C202 1.376 . S
N206 C205 1.374 1_565 S
N206 Co207 2.008 1_565 S
Co207 N206 2.008 1_545 S
Co207 N208 1.995 . S
Co207 N213 2.008 . S
Co207 N218 1.995 1_545 S
Co207 N223 2.282 . S
Co207 N229 2.282 1_545 S
N208 Co207 1.995 . S
N208 C209 1.376 . S
N208 C212 1.383 . S
C209 N208 1.376 . S
C209 C210 1.446 . S
C209 C239 1.391 . S
C210 C209 1.446 . S
C210 C211 1.339 . S
C210 H245 0.949 . S
C211 C210 1.339 . S
C211 C212 1.439 . S
C211 H246 0.950 . S
C212 N208 1.383 . S
C212 C211 1.439 . S
C212 C241 1.392 . S
N213 Co207 2.008 . S
N213 C214 1.376 . S
N213 C217 1.374 1_545 S
C214 N213 1.376 . S
C214 C215 1.443 . S
C214 C241 1.389 . S
C215 C214 1.443 . S
C215 C216 1.340 . S
C215 H247 0.951 . S
C216 C215 1.340 . S
C216 C217 1.439 1_545 S
C216 H248 0.950 1_455 S
C217 N213 1.374 1_565 S
C217 C216 1.439 1_565 S
C217 C242 1.395 . S
N218 Co207 1.995 1_565 S
N218 C219 1.376 . S
N218 C222 1.383 . S
C219 N218 1.376 . S
C219 C220 1.446 . S
C219 C242 1.391 . S
C220 C219 1.446 . S
C220 C221 1.339 . S
C220 H249 0.949 . S
C221 C220 1.339 . S
C221 C222 1.439 . S
C221 H250 0.950 . S
C222 N218 1.383 . S
C222 C221 1.439 . S
C222 C240 1.392 . S
N223 Co207 2.282 . S
N223 C226 1.332 . S
N223 C228 1.332 . S
C224 C225 1.386 . S
C224 C227 1.388 . S
C225 C224 1.386 . S
C225 C226 1.382 . S
C225 H251 0.950 . S
C226 N223 1.332 . S
C226 C225 1.382 . S
C226 H237 0.952 . S
C227 C224 1.388 . S
C227 C228 1.382 . S
C227 H252 0.950 . S
C228 N223 1.332 . S
C228 C227 1.382 . S
C228 H238 0.948 . S
N229 Co207 2.282 1_565 S
N229 C233 1.332 . S
N229 C234 1.332 . S
C230 C231 1.388 . S
C230 C234 1.382 . S
C230 H253 0.950 . S
C231 C230 1.388 . S
C231 C232 1.386 . S
C232 C231 1.386 . S
C232 C233 1.382 . S
C232 H254 0.950 . S
C233 N229 1.332 . S
C233 C232 1.382 . S
C233 H235 0.952 . S
C234 N229 1.332 . S
C234 C230 1.382 . S
C234 H236 0.948 . S
H235 C233 0.952 . S
H236 C234 0.948 . S
H237 C226 0.952 . S
H238 C228 0.948 . S
C239 C205 1.395 . S
C239 C209 1.391 . S
C240 C202 1.389 . S
C240 C222 1.392 . S
C241 C212 1.392 . S
C241 C214 1.389 . S
C242 C217 1.395 . S
C242 C219 1.391 . S
H243 C203 0.951 . S
H244 C204 0.950 . S
H245 C210 0.949 . S
H246 C211 0.950 . S
H247 C215 0.951 . S
H248 C216 0.950 1_655 S
H249 C220 0.949 . S
H250 C221 0.950 . S
H251 C225 0.950 . S
H252 C227 0.950 . S
H253 C230 0.950 . S
H254 C232 0.950 . S
C255 C256 1.443 . S
C255 N259 1.376 . S
C255 C293 1.389 . S
C256 C255 1.443 . S
C256 C257 1.340 . S
C256 H296 0.951 . S
C257 C256 1.340 . S
C257 C258 1.439 . S
C257 H297 0.950 . S
C258 C257 1.439 . S
C258 N259 1.374 . S
C258 C292 1.395 . S
N259 C255 1.376 . S
N259 C258 1.374 . S
N259 Co260 2.008 . S
Co260 N259 2.008 . S
Co260 N261 1.995 . S
Co260 N266 2.008 1_554 S
Co260 N271 1.995 . S
Co260 N276 2.282 1_554 S
Co260 N282 2.282 . S
N261 Co260 1.995 . S
N261 C262 1.376 . S
N261 C265 1.383 1_554 S
C262 N261 1.376 . S
C262 C263 1.459 . S
C262 C292 1.391 . S
C263 C262 1.459 . S
C263 C264 1.328 1_554 S
C263 H298 0.948 . S
C264 C263 1.328 1_556 S
C264 C265 1.439 . S
C264 H299 0.950 . S
C265 N261 1.383 1_556 S
C265 C264 1.439 . S
C265 C294 1.392 . S
N266 Co260 2.008 1_556 S
N266 C267 1.376 . S
N266 C270 1.374 . S
C267 N266 1.376 . S
C267 C268 1.443 . S
C267 C294 1.389 . S
C268 C267 1.443 . S
C268 C269 1.340 . S
C268 H300 0.951 . S
C269 C268 1.340 . S
C269 C270 1.439 . S
C269 H301 0.950 . S
C270 N266 1.374 . S
C270 C269 1.439 . S
C270 C295 1.395 1_556 S
N271 Co260 1.995 . S
N271 C272 1.376 . S
N271 C275 1.383 . S
C272 N271 1.376 . S
C272 C273 1.446 . S
C272 C295 1.391 . S
C273 C272 1.446 . S
C273 C274 1.339 . S
C273 H302 0.949 . S
C274 C273 1.339 . S
C274 C275 1.439 . S
C274 H303 0.950 . S
C275 N271 1.383 . S
C275 C274 1.439 . S
C275 C293 1.392 . S
N276 Co260 2.282 1_556 S
N276 C279 1.332 . S
N276 C281 1.332 . S
C277 C278 1.386 . S
C277 C280 1.388 . S
C278 C277 1.386 . S
C278 C279 1.382 . S
C278 H304 0.950 . S
C279 N276 1.332 . S
C279 C278 1.382 . S
C279 H290 0.952 . S
C280 C277 1.388 . S
C280 C281 1.382 . S
C280 H305 0.950 . S
C281 N276 1.332 . S
C281 C280 1.382 . S
C281 H291 0.948 . S
N282 Co260 2.282 . S
N282 C286 1.332 . S
N282 C287 1.332 . S
C283 C284 1.388 . S
C283 C287 1.382 . S
C283 H306 0.950 . S
C284 C283 1.388 . S
C284 C285 1.386 . S
C285 C284 1.386 . S
C285 C286 1.382 . S
C285 H307 0.950 . S
C286 N282 1.332 . S
C286 C285 1.382 . S
C286 H288 0.952 . S
C287 N282 1.332 . S
C287 C283 1.382 . S
C287 H289 0.948 . S
H288 C286 0.952 . S
H289 C287 0.948 . S
H290 C279 0.952 . S
H291 C281 0.948 . S
C292 C258 1.395 . S
C292 C262 1.391 . S
C293 C255 1.389 . S
C293 C275 1.392 . S
C294 C265 1.392 . S
C294 C267 1.389 . S
C295 C270 1.395 1_554 S
C295 C272 1.391 . S
H296 C256 0.951 . S
H297 C257 0.950 . S
H298 C263 0.948 . S
H299 C264 0.950 . S
H300 C268 0.951 . S
H301 C269 0.950 . S
H302 C273 0.949 . S
H303 C274 0.950 . S
H304 C278 0.950 . S
H305 C280 0.950 . S
H306 C283 0.950 . S
H307 C285 0.950 . S
C308 C309 1.443 . S
C308 N312 1.376 . S
C308 C346 1.400 . S
C309 C308 1.443 . S
C309 C310 1.340 . S
C309 H349 0.951 . S
C310 C309 1.340 . S
C310 C311 1.439 . S
C310 H350 0.950 . S
C311 C310 1.439 . S
C311 N312 1.374 . S
C311 C345 1.395 . S
N312 C308 1.376 . S
N312 C311 1.374 . S
N312 Co313 2.008 . S
Co313 N312 2.008 . S
Co313 N314 1.995 . S
Co313 N319 2.008 . S
Co313 N324 1.995 . S
Co313 N329 2.282 . S
Co313 N335 2.282 . S
N314 Co313 1.995 . S
N314 C315 1.376 . S
N314 C318 1.383 . S
C315 N314 1.376 . S
C315 C316 1.446 . S
C315 C345 1.391 . S
C316 C315 1.446 . S
C316 C317 1.339 . S
C316 H351 0.949 . S
C317 C316 1.339 . S
C317 C318 1.439 . S
C317 H352 0.950 . S
C318 N314 1.383 . S
C318 C317 1.439 . S
C318 C347 1.392 . S
N319 Co313 2.008 . S
N319 C320 1.376 . S
N319 C323 1.374 . S
C320 N319 1.376 . S
C320 C321 1.443 . S
C320 C347 1.389 . S
C321 C320 1.443 . S
C321 C322 1.340 . S
C321 H353 0.951 . S
C322 C321 1.340 . S
C322 C323 1.439 . S
C322 H354 0.950 . S
C323 N319 1.374 . S
C323 C322 1.439 . S
C323 C348 1.395 . S
N324 Co313 1.995 . S
N324 C325 1.376 . S
N324 C328 1.413 . S
C325 N324 1.376 . S
C325 C326 1.446 1_545 S
C325 C348 1.391 . S
C326 C325 1.446 1_565 S
C326 C327 1.339 . S
C326 H355 0.949 . S
C327 C326 1.339 . S
C327 C328 1.422 1_565 S
C327 H356 0.950 . S
C328 N324 1.413 . S
C328 C327 1.422 1_545 S
C328 C346 1.388 . S
N329 Co313 2.282 . S
N329 C332 1.332 . S
N329 C334 1.332 . S
C330 C331 1.386 . S
C330 C333 1.388 . S
C331 C330 1.386 . S
C331 C332 1.382 . S
C331 H357 0.950 . S
C332 N329 1.332 . S
C332 C331 1.382 . S
C332 H343 0.952 . S
C333 C330 1.388 . S
C333 C334 1.382 . S
C333 H358 0.950 . S
C334 N329 1.332 . S
C334 C333 1.382 . S
C334 H344 0.948 . S
N335 Co313 2.282 . S
N335 C339 1.332 . S
N335 C340 1.332 1_545 S
C336 C337 1.388 . S
C336 C340 1.382 . S
C336 H359 0.950 . S
C337 C336 1.388 . S
C337 C338 1.386 1_565 S
C338 C337 1.386 1_545 S
C338 C339 1.382 . S
C338 H360 0.950 . S
C339 N335 1.332 . S
C339 C338 1.382 . S
C339 H341 0.952 . S
C340 N335 1.332 1_565 S
C340 C336 1.382 . S
C340 H342 0.948 . S
H341 C339 0.952 . S
H342 C340 0.948 . S
H343 C332 0.952 . S
H344 C334 0.948 . S
C345 C311 1.395 . S
C345 C315 1.391 . S
C346 C308 1.400 . S
C346 C328 1.388 . S
C347 C318 1.392 . S
C347 C320 1.389 . S
C348 C323 1.395 . S
C348 C325 1.391 . S
H349 C309 0.951 . S
H350 C310 0.950 . S
H351 C316 0.949 . S
H352 C317 0.950 . S
H353 C321 0.951 . S
H354 C322 0.950 . S
H355 C326 0.949 . S
H356 C327 0.950 . S
H357 C331 0.950 . S
H358 C333 0.950 . S
H359 C336 0.950 . S
H360 C338 0.950 . S
C361 C362 1.443 . S
C361 N365 1.376 . S
C361 C399 1.389 . S
C362 C361 1.443 . S
C362 C363 1.340 . S
C362 H402 0.951 . S
C363 C362 1.340 . S
C363 C364 1.439 . S
C363 H403 0.950 . S
C364 C363 1.439 . S
C364 N365 1.374 . S
C364 C398 1.395 . S
N365 C361 1.376 . S
N365 C364 1.374 . S
N365 Co366 2.008 . S
Co366 N365 2.008 . S
Co366 N367 1.995 . S
Co366 N372 2.008 . S
Co366 N377 1.995 . S
Co366 N382 2.282 . S
Co366 N388 2.282 . S
N367 Co366 1.995 . S
N367 C368 1.376 . S
N367 C371 1.383 . S
C368 N367 1.376 . S
C368 C369 1.446 . S
C368 C398 1.391 . S
C369 C368 1.446 . S
C369 C370 1.339 . S
C369 H404 0.949 . S
C370 C369 1.339 . S
C370 C371 1.439 . S
C370 H405 0.950 . S
C371 N367 1.383 . S
C371 C370 1.439 . S
C371 C400 1.392 . S
N372 Co366 2.008 . S
N372 C373 1.376 . S
N372 C376 1.374 . S
C373 N372 1.376 . S
C373 C374 1.443 . S
C373 C400 1.389 . S
C374 C373 1.443 . S
C374 C375 1.340 . S
C374 H406 0.951 . S
C375 C374 1.340 . S
C375 C376 1.439 . S
C375 H407 0.950 . S
C376 N372 1.374 . S
C376 C375 1.439 . S
C376 C401 1.395 . S
N377 Co366 1.995 . S
N377 C378 1.376 . S
N377 C381 1.383 . S
C378 N377 1.376 . S
C378 C379 1.446 . S
C378 C401 1.391 . S
C379 C378 1.446 . S
C379 C380 1.339 . S
C379 H408 0.949 . S
C380 C379 1.339 . S
C380 C381 1.439 . S
C380 H409 0.950 . S
C381 N377 1.383 . S
C381 C380 1.439 . S
C381 C399 1.392 . S
N382 Co366 2.282 . S
N382 C385 1.332 . S
N382 C387 1.332 . S
C383 C384 1.386 1_556 S
C383 C386 1.388 1_556 S
C384 C383 1.386 1_554 S
C384 C385 1.382 . S
C384 H410 0.950 1_554 S
C385 N382 1.332 . S
C385 C384 1.382 . S
C385 H396 0.952 . S
C386 C383 1.388 1_554 S
C386 C387 1.382 . S
C386 H411 0.950 1_554 S
C387 N382 1.332 . S
C387 C386 1.382 . S
C387 H397 0.948 . S
N388 Co366 2.282 . S
N388 C392 1.332 . S
N388 C393 1.332 . S
C389 C390 1.388 . S
C389 C393 1.382 . S
C389 H412 0.950 . S
C390 C389 1.388 . S
C390 C391 1.386 . S
C391 C390 1.386 . S
C391 C392 1.382 . S
C391 H413 0.950 . S
C392 N388 1.332 . S
C392 C391 1.382 . S
C392 H394 0.952 . S
C393 N388 1.332 . S
C393 C389 1.382 . S
C393 H395 0.948 . S
H394 C392 0.952 . S
H395 C393 0.948 . S
H396 C385 0.952 . S
H397 C387 0.948 . S
C398 C364 1.395 . S
C398 C368 1.391 . S
C399 C361 1.389 . S
C399 C381 1.392 . S
C400 C371 1.392 . S
C400 C373 1.389 . S
C401 C376 1.395 . S
C401 C378 1.391 . S
H402 C362 0.951 . S
H403 C363 0.950 . S
H404 C369 0.949 . S
H405 C370 0.950 . S
H406 C374 0.951 . S
H407 C375 0.950 . S
H408 C379 0.949 . S
H409 C380 0.950 . S
H410 C384 0.950 1_556 S
H411 C386 0.950 1_556 S
H412 C389 0.950 . S
H413 C391 0.950 . S
H414 C420 0.930 . S
H415 C423 0.930 . S
H416 C424 0.930 . S
H417 C425 0.930 . S
H418 C428 0.930 . S
H419 C429 0.930 . S
C420 H414 0.930 . S
C420 C421 1.355 . S
C420 C422 1.415 . S
C421 C420 1.355 . S
C421 C423 1.419 . S
C422 C420 1.415 . S
C422 C427 1.425 . S
C422 C429 1.409 . S
C423 H415 0.930 . S
C423 C421 1.419 . S
C423 C424 1.362 . S
C424 H416 0.930 . S
C424 C423 1.362 . S
C424 C427 1.409 . S
C425 H417 0.930 . S
C425 C426 1.355 . S
C425 C427 1.415 . S
C426 C425 1.355 . S
C426 C428 1.419 . S
C427 C422 1.425 . S
C427 C424 1.409 . S
C427 C425 1.415 . S
C428 H418 0.930 . S
C428 C426 1.419 . S
C428 C429 1.362 . S
C429 H419 0.930 . S
C429 C422 1.409 . S
C429 C428 1.362 . S
H430 C436 0.930 . S
H431 C439 0.930 . S
H432 C440 0.930 . S
H433 C441 0.930 . S
H434 C444 0.930 . S
H435 C445 0.930 . S
C436 H430 0.930 . S
C436 C437 1.355 . S
C436 C438 1.415 . S
C437 C436 1.355 . S
C437 C439 1.419 . S
C438 C436 1.415 . S
C438 C443 1.425 . S
C438 C445 1.409 . S
C439 H431 0.930 . S
C439 C437 1.419 . S
C439 C440 1.362 . S
C440 H432 0.930 . S
C440 C439 1.362 . S
C440 C443 1.409 . S
C441 H433 0.930 . S
C441 C442 1.355 . S
C441 C443 1.415 . S
C442 C441 1.355 . S
C442 C444 1.419 . S
C443 C438 1.425 . S
C443 C440 1.409 . S
C443 C441 1.415 . S
C444 H434 0.930 . S
C444 C442 1.419 . S
C444 C445 1.362 . S
C445 H435 0.930 . S
C445 C438 1.409 . S
C445 C444 1.362 . S
H446 C452 0.930 . S
H447 C455 0.930 . S
H448 C456 0.930 . S
H449 C457 0.928 . S
H450 C460 0.930 . S
H451 C461 0.934 . S
C452 H446 0.930 . S
C452 C453 1.355 . S
C452 C454 1.415 . S
C453 C452 1.355 . S
C453 C455 1.419 . S
C454 C452 1.415 . S
C454 C459 1.425 . S
C454 C461 1.409 . S
C455 H447 0.930 . S
C455 C453 1.419 . S
C455 C456 1.362 . S
C456 H448 0.930 . S
C456 C455 1.362 . S
C456 C459 1.409 . S
C457 H449 0.928 . S
C457 C458 1.355 1_655 S
C457 C459 1.415 . S
C458 C457 1.355 1_455 S
C458 C460 1.419 . S
C459 C454 1.425 . S
C459 C456 1.409 . S
C459 C457 1.415 . S
C460 H450 0.930 . S
C460 C458 1.419 . S
C460 C461 1.362 1_455 S
C461 H451 0.934 . S
C461 C454 1.409 . S
C461 C460 1.362 1_655 S
H462 C468 0.930 . S
H463 C471 0.930 . S
H464 C472 0.930 . S
H465 C473 0.930 . S
H466 C476 0.930 . S
H467 C477 0.930 . S
C468 H462 0.930 . S
C468 C469 1.355 . S
C468 C470 1.415 . S
C469 C468 1.355 . S
C469 C471 1.419 . S
C470 C468 1.415 . S
C470 C475 1.425 . S
C470 C477 1.409 . S
C471 H463 0.930 . S
C471 C469 1.419 . S
C471 C472 1.362 . S
C472 H464 0.930 . S
C472 C471 1.362 . S
C472 C475 1.409 . S
C473 H465 0.930 . S
C473 C474 1.355 . S
C473 C475 1.415 . S
C474 C473 1.355 . S
C474 C476 1.419 . S
C475 C470 1.425 . S
C475 C472 1.409 . S
C475 C473 1.415 . S
C476 H466 0.930 . S
C476 C474 1.419 . S
C476 C477 1.362 . S
C477 H467 0.930 . S
C477 C470 1.409 . S
C477 C476 1.362 . S
H478 C484 0.930 . S
H479 C487 0.930 . S
H480 C488 0.930 . S
H481 C489 0.930 . S
H482 C492 0.930 . S
H483 C493 0.930 . S
C484 H478 0.930 . S
C484 C485 1.355 . S
C484 C486 1.415 . S
C485 C484 1.355 . S
C485 C487 1.419 . S
C486 C484 1.415 . S
C486 C491 1.425 . S
C486 C493 1.409 . S
C487 H479 0.930 . S
C487 C485 1.419 . S
C487 C488 1.362 . S
C488 H480 0.930 . S
C488 C487 1.362 . S
C488 C491 1.409 . S
C489 H481 0.930 . S
C489 C490 1.355 . S
C489 C491 1.415 . S
C490 C489 1.355 . S
C490 C492 1.419 . S
C491 C486 1.425 . S
C491 C488 1.409 . S
C491 C489 1.415 . S
C492 H482 0.930 . S
C492 C490 1.419 . S
C492 C493 1.362 . S
C493 H483 0.930 . S
C493 C486 1.409 . S
C493 C492 1.362 . S
H494 C500 0.930 . S
H495 C503 0.930 . S
H496 C504 0.930 . S
H497 C505 0.930 . S
H498 C508 0.930 . S
H499 C509 0.930 . S
C500 H494 0.930 . S
C500 C501 1.355 . S
C500 C502 1.415 . S
C501 C500 1.355 . S
C501 C503 1.419 . S
C502 C500 1.415 . S
C502 C507 1.425 . S
C502 C509 1.409 . S
C503 H495 0.930 . S
C503 C501 1.419 . S
C503 C504 1.362 . S
C504 H496 0.930 . S
C504 C503 1.362 . S
C504 C507 1.409 . S
C505 H497 0.930 . S
C505 C506 1.355 . S
C505 C507 1.415 . S
C506 C505 1.355 . S
C506 C508 1.419 . S
C507 C502 1.425 . S
C507 C504 1.409 . S
C507 C505 1.415 . S
C508 H498 0.930 . S
C508 C506 1.419 . S
C508 C509 1.362 . S
C509 H499 0.930 . S
C509 C502 1.409 . S
C509 C508 1.362 . S
H510 C516 0.930 . S
H511 C519 0.930 . S
H512 C520 0.930 . S
H513 C521 0.930 . S
H514 C524 0.930 . S
H515 C525 0.930 . S
C516 H510 0.930 . S
C516 C517 1.355 . S
C516 C518 1.415 . S
C517 C516 1.355 . S
C517 C519 1.419 . S
C518 C516 1.415 . S
C518 C523 1.425 . S
C518 C525 1.409 . S
C519 H511 0.930 . S
C519 C517 1.419 . S
C519 C520 1.362 . S
C520 H512 0.930 . S
C520 C519 1.362 . S
C520 C523 1.409 . S
C521 H513 0.930 . S
C521 C522 1.355 . S
C521 C523 1.415 . S
C522 C521 1.355 . S
C522 C524 1.419 . S
C523 C518 1.425 . S
C523 C520 1.409 . S
C523 C521 1.415 . S
C524 H514 0.930 . S
C524 C522 1.419 . S
C524 C525 1.362 . S
C525 H515 0.930 . S
C525 C518 1.409 . S
C525 C524 1.362 . S
H526 C532 0.930 . S
H527 C535 0.930 . S
H528 C536 0.930 1_554 S
H529 C537 0.930 . S
H530 C540 0.930 . S
H531 C541 0.930 . S
C532 H526 0.930 . S
C532 C533 1.355 . S
C532 C534 1.415 . S
C533 C532 1.355 . S
C533 C535 1.419 . S
C534 C532 1.415 . S
C534 C539 1.425 . S
C534 C541 1.409 . S
C535 H527 0.930 . S
C535 C533 1.419 . S
C535 C536 1.362 . S
C536 H528 0.930 1_556 S
C536 C535 1.362 . S
C536 C539 1.409 . S
C537 H529 0.930 . S
C537 C538 1.355 . S
C537 C539 1.415 1_554 S
C538 C537 1.355 . S
C538 C540 1.419 1_554 S
C539 C534 1.425 . S
C539 C536 1.409 . S
C539 C537 1.415 1_556 S
C540 H530 0.930 . S
C540 C538 1.419 1_556 S
C540 C541 1.362 . S
C541 H531 0.930 . S
C541 C534 1.409 . S
C541 C540 1.362 . S
H542 C548 0.930 . S
H543 C551 0.930 . S
H544 C552 0.930 . S
H545 C553 0.930 . S
H546 C556 0.930 . S
H547 C557 0.930 . S
C548 H542 0.930 . S
C548 C549 1.355 . S
C548 C550 1.415 . S
C549 C548 1.355 . S
C549 C551 1.419 . S
C550 C548 1.415 . S
C550 C555 1.425 . S
C550 C557 1.409 . S
C551 H543 0.930 . S
C551 C549 1.419 . S
C551 C552 1.362 . S
C552 H544 0.930 . S
C552 C551 1.362 . S
C552 C555 1.409 . S
C553 H545 0.930 . S
C553 C554 1.355 . S
C553 C555 1.415 . S
C554 C553 1.355 . S
C554 C556 1.419 . S
C555 C550 1.425 . S
C555 C552 1.409 . S
C555 C553 1.415 . S
C556 H546 0.930 . S
C556 C554 1.419 . S
C556 C557 1.362 . S
C557 H547 0.930 . S
C557 C550 1.409 . S
C557 C556 1.362 . S
H558 C564 0.930 . S
H559 C567 0.930 . S
H560 C568 0.930 . S
H561 C569 0.930 . S
H562 C572 0.930 . S
H563 C573 0.930 . S
C564 H558 0.930 . S
C564 C565 1.355 . S
C564 C566 1.415 . S
C565 C564 1.355 . S
C565 C567 1.419 . S
C566 C564 1.415 . S
C566 C571 1.425 . S
C566 C573 1.409 . S
C567 H559 0.930 . S
C567 C565 1.419 . S
C567 C568 1.362 . S
C568 H560 0.930 . S
C568 C567 1.362 . S
C568 C571 1.409 . S
C569 H561 0.930 . S
C569 C570 1.355 . S
C569 C571 1.415 . S
C570 C569 1.355 . S
C570 C572 1.419 . S
C571 C566 1.425 . S
C571 C568 1.409 . S
C571 C569 1.415 . S
C572 H562 0.930 . S
C572 C570 1.419 . S
C572 C573 1.362 . S
C573 H563 0.930 . S
C573 C566 1.409 . S
C573 C572 1.362 . S
H574 C580 0.930 . S
H575 C583 0.930 . S
H576 C584 0.930 . S
H577 C585 0.930 . S
H578 C588 0.930 . S
H579 C589 0.930 . S
C580 H574 0.930 . S
C580 C581 1.355 . S
C580 C582 1.415 . S
C581 C580 1.355 . S
C581 C583 1.419 . S
C582 C580 1.415 . S
C582 C587 1.425 . S
C582 C589 1.409 . S
C583 H575 0.930 . S
C583 C581 1.419 . S
C583 C584 1.362 . S
C584 H576 0.930 . S
C584 C583 1.362 . S
C584 C587 1.409 . S
C585 H577 0.930 . S
C585 C586 1.355 . S
C585 C587 1.415 . S
C586 C585 1.355 . S
C586 C588 1.419 . S
C587 C582 1.425 . S
C587 C584 1.409 . S
C587 C585 1.415 . S
C588 H578 0.930 . S
C588 C586 1.419 . S
C588 C589 1.362 . S
C589 H579 0.930 . S
C589 C582 1.409 . S
C589 C588 1.362 . S
H590 C596 0.930 . S
H591 C599 0.930 . S
H592 C600 0.930 . S
H593 C601 0.930 . S
H594 C604 0.930 . S
H595 C605 0.930 . S
C596 H590 0.930 . S
C596 C597 1.355 . S
C596 C598 1.415 . S
C597 C596 1.355 . S
C597 C599 1.419 . S
C598 C596 1.415 . S
C598 C603 1.425 . S
C598 C605 1.409 . S
C599 H591 0.930 . S
C599 C597 1.419 . S
C599 C600 1.362 . S
C600 H592 0.930 . S
C600 C599 1.362 . S
C600 C603 1.409 . S
C601 H593 0.930 . S
C601 C602 1.355 . S
C601 C603 1.415 . S
C602 C601 1.355 . S
C602 C604 1.419 . S
C603 C598 1.425 . S
C603 C600 1.409 . S
C603 C601 1.415 . S
C604 H594 0.930 . S
C604 C602 1.419 . S
C604 C605 1.362 . S
C605 H595 0.930 . S
C605 C598 1.409 . S
C605 C604 1.362 . S
H606 C612 0.930 . S
H607 C615 0.930 . S
H608 C616 0.930 . S
H609 C617 0.930 . S
H610 C620 0.930 . S
H611 C621 0.930 . S
C612 H606 0.930 . S
C612 C613 1.355 . S
C612 C614 1.415 . S
C613 C612 1.355 . S
C613 C615 1.419 . S
C614 C612 1.415 . S
C614 C619 1.425 . S
C614 C621 1.409 . S
C615 H607 0.930 . S
C615 C613 1.419 . S
C615 C616 1.362 . S
C616 H608 0.930 . S
C616 C615 1.362 . S
C616 C619 1.409 . S
C617 H609 0.930 . S
C617 C618 1.355 . S
C617 C619 1.415 . S
C618 C617 1.355 . S
C618 C620 1.419 . S
C619 C614 1.425 . S
C619 C616 1.409 . S
C619 C617 1.415 . S
C620 H610 0.930 . S
C620 C618 1.419 . S
C620 C621 1.362 . S
C621 H611 0.930 . S
C621 C614 1.409 . S
C621 C620 1.362 . S
H622 C628 0.930 . S
H623 C631 0.930 . S
H624 C632 0.930 . S
H625 C633 0.930 1_455 S
H626 C636 0.930 . S
H627 C637 0.930 . S
C628 H622 0.930 . S
C628 C629 1.355 . S
C628 C630 1.415 . S
C629 C628 1.355 . S
C629 C631 1.419 . S
C630 C628 1.415 . S
C630 C635 1.425 . S
C630 C637 1.409 . S
C631 H623 0.930 . S
C631 C629 1.419 . S
C631 C632 1.362 . S
C632 H624 0.930 . S
C632 C631 1.362 . S
C632 C635 1.409 . S
C633 H625 0.930 1_655 S
C633 C634 1.355 . S
C633 C635 1.415 . S
C634 C633 1.355 . S
C634 C636 1.419 . S
C635 C630 1.425 . S
C635 C632 1.409 . S
C635 C633 1.415 . S
C636 H626 0.930 . S
C636 C634 1.419 . S
C636 C637 1.362 . S
C637 H627 0.930 . S
C637 C630 1.409 . S
C637 C636 1.362 . S
H638 C644 0.930 . S
H639 C647 0.930 . S
H640 C648 0.930 . S
H641 C649 0.930 . S
H642 C652 0.930 . S
H643 C653 0.930 . S
C644 H638 0.930 . S
C644 C645 1.355 . S
C644 C646 1.415 . S
C645 C644 1.355 . S
C645 C647 1.419 . S
C646 C644 1.415 . S
C646 C651 1.425 . S
C646 C653 1.409 . S
C647 H639 0.930 . S
C647 C645 1.419 . S
C647 C648 1.362 . S
C648 H640 0.930 . S
C648 C647 1.362 . S
C648 C651 1.409 . S
C649 H641 0.930 . S
C649 C650 1.355 . S
C649 C651 1.415 . S
C650 C649 1.355 . S
C650 C652 1.419 . S
C651 C646 1.425 . S
C651 C648 1.409 . S
C651 C649 1.415 . S
C652 H642 0.930 . S
C652 C650 1.419 . S
C652 C653 1.362 . S
C653 H643 0.930 . S
C653 C646 1.409 . S
C653 C652 1.362 . S
H654 C660 0.930 . S
H655 C663 0.930 . S
H656 C664 0.930 . S
H657 C665 0.930 . S
H658 C668 0.930 . S
H659 C669 0.930 . S
C660 H654 0.930 . S
C660 C661 1.355 . S
C660 C662 1.415 . S
C661 C660 1.355 . S
C661 C663 1.419 . S
C662 C660 1.415 . S
C662 C667 1.425 . S
C662 C669 1.409 . S
C663 H655 0.930 . S
C663 C661 1.419 . S
C663 C664 1.362 . S
C664 H656 0.930 . S
C664 C663 1.362 . S
C664 C667 1.409 . S
C665 H657 0.930 . S
C665 C666 1.355 . S
C665 C667 1.415 . S
C666 C665 1.355 . S
C666 C668 1.419 . S
C667 C662 1.425 . S
C667 C664 1.409 . S
C667 C665 1.415 . S
C668 H658 0.930 . S
C668 C666 1.419 . S
C668 C669 1.362 . S
C669 H659 0.930 . S
C669 C662 1.409 . S
C669 C668 1.362 . S
H670 C676 0.930 . S
H671 C679 0.930 . S
H672 C680 0.930 . S
H673 C681 0.930 . S
H674 C684 0.930 . S
H675 C685 0.930 . S
C676 H670 0.930 . S
C676 C677 1.355 . S
C676 C678 1.415 . S
C677 C676 1.355 . S
C677 C679 1.419 . S
C678 C676 1.415 . S
C678 C683 1.425 . S
C678 C685 1.409 . S
C679 H671 0.930 . S
C679 C677 1.419 . S
C679 C680 1.362 . S
C680 H672 0.930 . S
C680 C679 1.362 . S
C680 C683 1.409 . S
C681 H673 0.930 . S
C681 C682 1.355 . S
C681 C683 1.415 . S
C682 C681 1.355 . S
C682 C684 1.419 . S
C683 C678 1.425 . S
C683 C680 1.409 . S
C683 C681 1.415 . S
C684 H674 0.930 . S
C684 C682 1.419 . S
C684 C685 1.362 . S
C685 H675 0.930 . S
C685 C678 1.409 . S
C685 C684 1.362 . S
H686 C692 0.930 . S
H687 C695 0.930 . S
H688 C696 0.930 . S
H689 C697 0.930 . S
H690 C700 0.930 . S
H691 C701 0.930 . S
C692 H686 0.930 . S
C692 C693 1.355 . S
C692 C694 1.415 . S
C693 C692 1.355 . S
C693 C695 1.419 . S
C694 C692 1.415 . S
C694 C699 1.425 . S
C694 C701 1.409 . S
C695 H687 0.930 . S
C695 C693 1.419 . S
C695 C696 1.362 . S
C696 H688 0.930 . S
C696 C695 1.362 . S
C696 C699 1.409 . S
C697 H689 0.930 . S
C697 C698 1.355 . S
C697 C699 1.415 . S
C698 C697 1.355 . S
C698 C700 1.419 . S
C699 C694 1.425 . S
C699 C696 1.409 . S
C699 C697 1.415 . S
C700 H690 0.930 . S
C700 C698 1.419 . S
C700 C701 1.362 . S
C701 H691 0.930 . S
C701 C694 1.409 . S
C701 C700 1.362 . S
H702 C708 0.930 . S
H703 C711 0.930 . S
H704 C712 0.930 . S
H705 C713 0.930 . S
H706 C716 0.930 . S
H707 C717 0.930 . S
C708 H702 0.930 . S
C708 C709 1.355 . S
C708 C710 1.415 . S
C709 C708 1.355 . S
C709 C711 1.419 . S
C710 C708 1.415 . S
C710 C715 1.425 . S
C710 C717 1.409 . S
C711 H703 0.930 . S
C711 C709 1.419 . S
C711 C712 1.362 . S
C712 H704 0.930 . S
C712 C711 1.362 . S
C712 C715 1.409 . S
C713 H705 0.930 . S
C713 C714 1.355 . S
C713 C715 1.415 . S
C714 C713 1.355 . S
C714 C716 1.419 . S
C715 C710 1.425 . S
C715 C712 1.409 . S
C715 C713 1.415 . S
C716 H706 0.930 . S
C716 C714 1.419 . S
C716 C717 1.362 . S
C717 H707 0.930 . S
C717 C710 1.409 . S
C717 C716 1.362 . S
H718 C724 0.930 . S
H719 C727 0.930 . S
H720 C728 0.930 . S
H721 C729 0.930 . S
H722 C732 0.930 . S
H723 C733 0.930 . S
C724 H718 0.930 . S
C724 C725 1.355 . S
C724 C726 1.415 . S
C725 C724 1.355 . S
C725 C727 1.419 . S
C726 C724 1.415 . S
C726 C731 1.425 . S
C726 C733 1.409 . S
C727 H719 0.930 . S
C727 C725 1.419 . S
C727 C728 1.362 . S
C728 H720 0.930 . S
C728 C727 1.362 . S
C728 C731 1.409 . S
C729 H721 0.930 . S
C729 C730 1.355 . S
C729 C731 1.415 . S
C730 C729 1.355 . S
C730 C732 1.419 . S
C731 C726 1.425 . S
C731 C728 1.409 . S
C731 C729 1.415 . S
C732 H722 0.930 . S
C732 C730 1.419 . S
C732 C733 1.362 . S
C733 H723 0.930 . S
C733 C726 1.409 . S
C733 C732 1.362 . S
H734 C740 0.930 . S
H735 C743 0.930 . S
H736 C744 0.930 . S
H737 C745 0.930 . S
H738 C748 0.930 . S
H739 C749 0.930 . S
C740 H734 0.930 . S
C740 C741 1.355 . S
C740 C742 1.415 . S
C741 C740 1.355 . S
C741 C743 1.419 . S
C742 C740 1.415 . S
C742 C747 1.425 . S
C742 C749 1.409 . S
C743 H735 0.930 . S
C743 C741 1.419 . S
C743 C744 1.362 . S
C744 H736 0.930 . S
C744 C743 1.362 . S
C744 C747 1.409 . S
C745 H737 0.930 . S
C745 C746 1.355 . S
C745 C747 1.415 . S
C746 C745 1.355 . S
C746 C748 1.419 . S
C747 C742 1.425 . S
C747 C744 1.409 . S
C747 C745 1.415 . S
C748 H738 0.930 . S
C748 C746 1.419 . S
C748 C749 1.362 . S
C749 H739 0.930 . S
C749 C742 1.409 . S
C749 C748 1.362 . S
H750 C756 0.930 . S
H751 C759 0.930 . S
H752 C760 0.930 . S
H753 C761 0.930 . S
H754 C764 0.930 . S
H755 C765 0.930 . S
C756 H750 0.930 . S
C756 C757 1.355 . S
C756 C758 1.415 . S
C757 C756 1.355 . S
C757 C759 1.419 . S
C758 C756 1.415 . S
C758 C763 1.425 . S
C758 C765 1.409 . S
C759 H751 0.930 . S
C759 C757 1.419 . S
C759 C760 1.362 . S
C760 H752 0.930 . S
C760 C759 1.362 . S
C760 C763 1.409 . S
C761 H753 0.930 . S
C761 C762 1.355 . S
C761 C763 1.415 . S
C762 C761 1.355 . S
C762 C764 1.419 . S
C763 C758 1.425 . S
C763 C760 1.409 . S
C763 C761 1.415 . S
C764 H754 0.930 . S
C764 C762 1.419 . S
C764 C765 1.362 . S
C765 H755 0.930 . S
C765 C758 1.409 . S
C765 C764 1.362 . S
H766 C772 0.930 . S
H767 C775 0.930 . S
H768 C776 0.930 . S
H769 C777 0.930 . S
H770 C780 0.930 . S
H771 C781 0.930 . S
C772 H766 0.930 . S
C772 C773 1.355 . S
C772 C774 1.415 . S
C773 C772 1.355 . S
C773 C775 1.419 . S
C774 C772 1.415 . S
C774 C779 1.425 . S
C774 C781 1.409 . S
C775 H767 0.930 . S
C775 C773 1.419 . S
C775 C776 1.362 . S
C776 H768 0.930 . S
C776 C775 1.362 . S
C776 C779 1.409 . S
C777 H769 0.930 . S
C777 C778 1.355 . S
C777 C779 1.415 . S
C778 C777 1.355 . S
C778 C780 1.419 . S
C779 C774 1.425 . S
C779 C776 1.409 . S
C779 C777 1.415 . S
C780 H770 0.930 . S
C780 C778 1.419 . S
C780 C781 1.362 . S
C781 H771 0.930 . S
C781 C774 1.409 . S
C781 C780 1.362 . S
H782 C788 0.930 . S
H783 C791 0.930 . S
H784 C792 0.930 . S
H785 C793 0.930 . S
H786 C796 0.930 . S
H787 C797 0.930 . S
C788 H782 0.930 . S
C788 C789 1.355 . S
C788 C790 1.415 . S
C789 C788 1.355 . S
C789 C791 1.419 . S
C790 C788 1.415 . S
C790 C795 1.425 . S
C790 C797 1.409 . S
C791 H783 0.930 . S
C791 C789 1.419 . S
C791 C792 1.362 . S
C792 H784 0.930 . S
C792 C791 1.362 . S
C792 C795 1.409 . S
C793 H785 0.930 . S
C793 C794 1.355 . S
C793 C795 1.415 . S
C794 C793 1.355 . S
C794 C796 1.419 . S
C795 C790 1.425 . S
C795 C792 1.409 . S
C795 C793 1.415 . S
C796 H786 0.930 . S
C796 C794 1.419 . S
C796 C797 1.362 . S
C797 H787 0.930 . S
C797 C790 1.409 . S
C797 C796 1.362 . S
C426 C118 1.595 . S
C421 C6 1.602 . S
C442 C187 1.444 . S
C437 C18 1.421 . S
C458 C125 1.584 . S
C453 C28 1.587 . S
C474 C188 1.529 . S
C469 C45 1.505 . S
C490 C241 1.477 . S
C485 C4 1.501 . S
C506 C277 1.727 . S
C501 C21 1.708 . S
C517 C33 1.618 . S
C522 C337 1.657 . S
C538 C400 1.667 . S
C533 C40 1.645 . S
C554 C240 1.620 . S
C549 C16 1.587 . S
C565 C30 1.704 . S
C570 C284 1.694 . S
C586 C330 1.603 . S
C581 C42 1.608 . S
C602 C399 1.651 . S
C597 C9 1.643 . S
C613 C52 1.555 . S
C618 C178 1.554 . S
C634 C135 1.671 1_655 S
C629 C69 1.692 . S
C645 C78 1.437 . S
C650 C171 1.430 . S
C661 C93 1.440 . S
C666 C134 1.502 . S
C682 C346 1.648 1_565 S
C677 C57 1.636 . S
C698 C390 1.651 . S
C693 C66 1.659 . S
C714 C224 1.498 . S
C709 C76 1.490 . S
C725 C88 1.569 . S
C730 C293 1.550 . S
C746 C347 1.619 . S
C741 C64 1.583 . S
C762 C383 1.625 . S
C757 C81 1.611 . S
C778 C231 1.451 . S
C773 C90 1.457 . S
C789 C54 1.676 . S
C794 C294 1.654 . S
