# Generated by pormake.
# Topology nom, (4,4)-cn, num edge types: 1
# Building blocks:
#     Node 0, Type 0, BuildingBlock: NAWXER_clean_linker_0, # of connection points: 4
#     Node 1, Type 0, BuildingBlock: NAWXER_clean_linker_0, # of connection points: 4
#     Node 2, Type 0, BuildingBlock: NAWXER_clean_linker_0, # of connection points: 4
#     Node 3, Type 0, BuildingBlock: NAWXER_clean_linker_0, # of connection points: 4
#     Node 4, Type 0, BuildingBlock: NAWXER_clean_linker_0, # of connection points: 4
#     Node 5, Type 0, BuildingBlock: NAWXER_clean_linker_0, # of connection points: 4
#     Node 6, Type 1, BuildingBlock: TATPOV_clean_sbu_0, # of connection points: 4
#     Node 7, Type 1, BuildingBlock: TATPOV_clean_sbu_0, # of connection points: 4
#     Node 8, Type 1, BuildingBlock: TATPOV_clean_sbu_0, # of connection points: 4
#     Node 9, Type 1, BuildingBlock: TATPOV_clean_sbu_0, # of connection points: 4
#     Node 10, Type 1, BuildingBlock: TATPOV_clean_sbu_0, # of connection points: 4
#     Node 11, Type 1, BuildingBlock: TATPOV_clean_sbu_0, # of connection points: 4
#     Edge 12, Type (0, 1), BuildingBlock: AJUNOK_clean_linker_0, # of connection points: 2
#     Edge 13, Type (0, 1), BuildingBlock: AJUNOK_clean_linker_0, # of connection points: 2
#     Edge 14, Type (0, 1), BuildingBlock: AJUNOK_clean_linker_0, # of connection points: 2
#     Edge 15, Type (0, 1), BuildingBlock: AJUNOK_clean_linker_0, # of connection points: 2
#     Edge 16, Type (0, 1), BuildingBlock: AJUNOK_clean_linker_0, # of connection points: 2
#     Edge 17, Type (0, 1), BuildingBlock: AJUNOK_clean_linker_0, # of connection points: 2
#     Edge 18, Type (0, 1), BuildingBlock: AJUNOK_clean_linker_0, # of connection points: 2
#     Edge 19, Type (0, 1), BuildingBlock: AJUNOK_clean_linker_0, # of connection points: 2
#     Edge 20, Type (0, 1), BuildingBlock: AJUNOK_clean_linker_0, # of connection points: 2
#     Edge 21, Type (0, 1), BuildingBlock: AJUNOK_clean_linker_0, # of connection points: 2
#     Edge 22, Type (0, 1), BuildingBlock: AJUNOK_clean_linker_0, # of connection points: 2
#     Edge 23, Type (0, 1), BuildingBlock: AJUNOK_clean_linker_0, # of connection points: 2
#     Edge 24, Type (0, 1), BuildingBlock: AJUNOK_clean_linker_0, # of connection points: 2
#     Edge 25, Type (0, 1), BuildingBlock: AJUNOK_clean_linker_0, # of connection points: 2
#     Edge 26, Type (0, 1), BuildingBlock: AJUNOK_clean_linker_0, # of connection points: 2
#     Edge 27, Type (0, 1), BuildingBlock: AJUNOK_clean_linker_0, # of connection points: 2
#     Edge 28, Type (0, 1), BuildingBlock: AJUNOK_clean_linker_0, # of connection points: 2
#     Edge 29, Type (0, 1), BuildingBlock: AJUNOK_clean_linker_0, # of connection points: 2
#     Edge 30, Type (0, 1), BuildingBlock: AJUNOK_clean_linker_0, # of connection points: 2
#     Edge 31, Type (0, 1), BuildingBlock: AJUNOK_clean_linker_0, # of connection points: 2
#     Edge 32, Type (0, 1), BuildingBlock: AJUNOK_clean_linker_0, # of connection points: 2
#     Edge 33, Type (0, 1), BuildingBlock: AJUNOK_clean_linker_0, # of connection points: 2
#     Edge 34, Type (0, 1), BuildingBlock: AJUNOK_clean_linker_0, # of connection points: 2
#     Edge 35, Type (0, 1), BuildingBlock: AJUNOK_clean_linker_0, # of connection points: 2
# Relax obj value: 0.025
# Max RMSD: 0.117
# Mean RMSD: 0.110
data_MOF--net-nom--node1-TATPOV_clean_sbu_0--node2-NAWXER_clean_linker_0--edge1-AJUNOK_clean_linker_0
_symmetry_space_group_name_H-M    P1
_symmetry_Int_Tables_number       1
_symmetry_cell_setting            triclinic
loop_
_symmetry_equiv_pos_as_xyz
'x, y, z'
_cell_length_a     40.590979
_cell_length_b     41.12001
_cell_length_c     44.698745
_cell_angle_alpha  90.477747
_cell_angle_beta   90.811539
_cell_angle_gamma 119.99517
loop_
_atom_site_label
_atom_site_type_symbol
_atom_site_fract_x
_atom_site_fract_y
_atom_site_fract_z
_atom_type_partial_charge
C0 C 0.88709 0.4578 0.34124 0.0
C1 C 0.87304 0.43672 0.36722 0.0
C2 C 0.91957 0.46154 0.32794 0.0
C3 C 0.93848 0.44372 0.33999 0.0
C4 C 0.89111 0.41791 0.37894 0.0
C5 C 0.92384 0.42165 0.36553 0.0
C6 C 0.97676 0.45397 0.32924 0.0
C7 C 0.90017 0.39657 0.2468 0.0
C8 C 0.90725 0.42183 0.22342 0.0
C9 C 0.92479 0.40762 0.27196 0.0
C10 C 0.95656 0.44404 0.27392 0.0
C11 C 0.93806 0.4586 0.22628 0.0
C12 C 0.96256 0.46942 0.25102 0.0
C13 C 0.98527 0.45641 0.29854 0.0
C14 C 0.15789 0.55597 0.29834 0.0
C15 C 0.15734 0.58067 0.277 0.0
C16 C 0.12368 0.52643 0.30891 0.0
C17 C 0.08869 0.52167 0.29842 0.0
C18 C 0.12239 0.57444 0.26544 0.0
C19 C 0.08852 0.54531 0.27597 0.0
C20 C 0.05159 0.49366 0.31065 0.0
C21 C 0.11733 0.57051 0.38906 0.0
C22 C 0.12079 0.55186 0.4141 0.0
C23 C 0.09296 0.55027 0.36512 0.0
C24 C 0.07211 0.51086 0.36534 0.0
C25 C 0.10008 0.51239 0.41425 0.0
C26 C 0.07584 0.49209 0.39012 0.0
C27 C 0.04337 0.48956 0.34149 0.0
H28 H 0.87371 0.47265 0.33183 0.0
H29 H 0.93104 0.48024 0.30923 0.0
H30 H 0.88105 0.40188 0.39921 0.0
H31 H 0.93849 0.40845 0.37567 0.0
H32 H 0.87627 0.36819 0.24525 0.0
H33 H 0.91965 0.38757 0.28939 0.0
H34 H 0.9434 0.47911 0.2092 0.0
H35 H 0.98643 0.49788 0.25224 0.0
H36 H 0.18464 0.56041 0.30765 0.0
H37 H 0.12457 0.50809 0.32575 0.0
H38 H 0.12125 0.5929 0.2488 0.0
H39 H 0.06204 0.54227 0.26731 0.0
H40 H 0.13275 0.6009 0.38837 0.0
H41 H 0.08961 0.56554 0.34681 0.0
H42 H 0.10136 0.49726 0.43354 0.0
H43 H 0.05934 0.46174 0.39106 0.0
N44 N 0.00623 0.46983 0.34951 0.0
N45 N 0.02222 0.47622 0.2907 0.0
C46 C 0.41319 0.90239 0.50725 0.0
C47 C 0.42205 0.88589 0.5311 0.0
C48 C 0.4408 0.93647 0.49574 0.0
C49 C 0.47818 0.95474 0.50751 0.0
C50 C 0.45946 0.90393 0.54288 0.0
C51 C 0.48725 0.93828 0.53132 0.0
C52 C 0.50611 0.99275 0.497 0.0
C53 C 0.48276 0.9138 0.42018 0.0
C54 C 0.46195 0.91796 0.3967 0.0
C55 C 0.4993 0.94137 0.44278 0.0
C56 C 0.49523 0.97339 0.44206 0.0
C57 C 0.45924 0.95065 0.39541 0.0
C58 C 0.47586 0.97818 0.41783 0.0
C59 C 0.51077 0.00199 0.46642 0.0
C60 C 0.6072 0.17167 0.46617 0.0
C61 C 0.58304 0.17898 0.44813 0.0
C62 C 0.59482 0.13538 0.47661 0.0
C63 C 0.55823 0.10589 0.46889 0.0
C64 C 0.54673 0.14933 0.44013 0.0
C65 C 0.53458 0.11312 0.45023 0.0
C66 C 0.5438 0.06722 0.47964 0.0
C67 C 0.55297 0.13481 0.56357 0.0
C68 C 0.57144 0.129 0.58794 0.0
C69 C 0.54496 0.11309 0.53741 0.0
C70 C 0.5562 0.08591 0.53505 0.0
C71 C 0.58388 0.10288 0.58527 0.0
C72 C 0.57636 0.08155 0.55899 0.0
C73 C 0.54208 0.05798 0.5102 0.0
H74 H 0.3846 0.88914 0.49776 0.0
H75 H 0.43249 0.94908 0.47818 0.0
H76 H 0.46689 0.89209 0.56158 0.0
H77 H 0.51566 0.95223 0.54118 0.0
H78 H 0.48542 0.88891 0.4214 0.0
H79 H 0.51495 0.93753 0.46091 0.0
H80 H 0.44388 0.95469 0.37715 0.0
H81 H 0.47268 0.00278 0.41663 0.0
H82 H 0.63542 0.19413 0.47248 0.0
H83 H 0.61375 0.13033 0.49061 0.0
H84 H 0.52783 0.15415 0.42588 0.0
H85 H 0.50633 0.09076 0.44384 0.0
H86 H 0.54248 0.15432 0.56553 0.0
H87 H 0.52803 0.11604 0.51987 0.0
H88 H 0.5978 0.09778 0.60402 0.0
H89 H 0.58482 0.0604 0.55785 0.0
N90 N 0.52285 0.02108 0.51765 0.0
N91 N 0.52857 0.0388 0.45897 0.0
C92 C 0.58488 0.48721 0.59325 0.0
C93 C 0.56962 0.47587 0.56417 0.0
C94 C 0.56538 0.49544 0.61469 0.0
C95 C 0.52968 0.49163 0.6078 0.0
C96 C 0.53371 0.47149 0.55728 0.0
C97 C 0.51401 0.47955 0.57888 0.0
C98 C 0.51032 0.50281 0.63016 0.0
C99 C 0.50464 0.4015 0.67156 0.0
C100 C 0.52475 0.40748 0.69876 0.0
C101 C 0.5011 0.43043 0.65871 0.0
C102 C 0.51796 0.46606 0.67266 0.0
C103 C 0.54229 0.44326 0.71245 0.0
C104 C 0.5386 0.47223 0.69964 0.0
C105 C 0.51046 0.49536 0.66091 0.0
C106 C 0.4286 0.55954 0.72492 0.0
C107 C 0.45548 0.57753 0.74828 0.0
C108 C 0.43857 0.54736 0.69903 0.0
C109 C 0.47576 0.55381 0.69602 0.0
C110 C 0.49287 0.58507 0.74477 0.0
C111 C 0.50293 0.5734 0.71883 0.0
C112 C 0.48576 0.5358 0.67187 0.0
C113 C 0.44514 0.60824 0.62944 0.0
C114 C 0.4155 0.58837 0.60835 0.0
C115 C 0.46778 0.59345 0.6393 0.0
C116 C 0.4605 0.5581 0.62875 0.0
C117 C 0.4098 0.5542 0.59648 0.0
C118 C 0.43206 0.53921 0.60662 0.0
C119 C 0.48109 0.53959 0.64089 0.0
H120 H 0.61233 0.49045 0.59925 0.0
H121 H 0.57885 0.50579 0.63646 0.0
H122 H 0.52144 0.46298 0.53494 0.0
H123 H 0.48672 0.47671 0.5729 0.0
H124 H 0.49131 0.37427 0.66037 0.0
H125 H 0.48416 0.42454 0.63834 0.0
H126 H 0.55798 0.4485 0.73342 0.0
H127 H 0.55147 0.49934 0.71098 0.0
H128 H 0.39938 0.55284 0.7275 0.0
H129 H 0.41686 0.53138 0.68213 0.0
H130 H 0.51388 0.59862 0.76264 0.0
H131 H 0.53165 0.57827 0.71711 0.0
H132 H 0.4506 0.63508 0.63842 0.0
H133 H 0.49046 0.60933 0.65552 0.0
H134 H 0.38723 0.53845 0.58011 0.0
H135 H 0.42612 0.51211 0.59786 0.0
N136 N 0.49442 0.52358 0.62121 0.0
N137 N 0.49939 0.51314 0.68053 0.0
C138 C 0.85376 0.38879 0.79248 0.0
C139 C 0.83415 0.40003 0.77293 0.0
C140 C 0.89079 0.41422 0.80204 0.0
C141 C 0.909 0.45155 0.79239 0.0
C142 C 0.85265 0.4371 0.76254 0.0
C143 C 0.89001 0.46265 0.77205 0.0
C144 C 0.9481 0.4781 0.80335 0.0
C145 C 0.87662 0.4659 0.88278 0.0
C146 C 0.88171 0.44776 0.9074 0.0
C147 C 0.90056 0.47534 0.85832 0.0
C148 C 0.93013 0.46692 0.8581 0.0
C149 C 0.91065 0.4385 0.90686 0.0
C150 C 0.9348 0.44822 0.8825 0.0
C151 C 0.95829 0.48073 0.83392 0.0
C152 C 0.13089 0.57 0.83633 0.0
C153 C 0.13594 0.54421 0.85346 0.0
C154 C 0.09451 0.56087 0.8258 0.0
C155 C 0.06293 0.52566 0.83199 0.0
C156 C 0.10413 0.5096 0.86025 0.0
C157 C 0.06812 0.50047 0.84966 0.0
C158 C 0.02384 0.51405 0.82148 0.0
C159 C 0.09011 0.54187 0.73362 0.0
C160 C 0.09261 0.5747 0.72193 0.0
C161 C 0.06489 0.52266 0.75666 0.0
C162 C 0.04181 0.53601 0.76824 0.0
C163 C 0.07039 0.58858 0.73453 0.0
C164 C 0.04487 0.56912 0.75712 0.0
C165 C 0.01363 0.51544 0.79138 0.0
H166 H 0.84019 0.3604 0.80079 0.0
H167 H 0.90523 0.40467 0.81709 0.0
H168 H 0.83827 0.44624 0.74706 0.0
H169 H 0.90378 0.49115 0.76399 0.0
H170 H 0.85467 0.47356 0.88282 0.0
H171 H 0.89689 0.49054 0.84012 0.0
H172 H 0.91559 0.42515 0.92583 0.0
H173 H 0.95761 0.44175 0.88296 0.0
H174 H 0.15506 0.59682 0.83067 0.0
H175 H 0.09116 0.58132 0.81305 0.0
H176 H 0.10714 0.48939 0.87368 0.0
H177 H 0.04423 0.47328 0.85501 0.0
H178 H 0.10687 0.5305 0.72441 0.0
H179 H 0.06287 0.4971 0.76505 0.0
H180 H 0.0725 0.61441 0.72674 0.0
H181 H 0.02753 0.58001 0.76602 0.0
N182 N 0.97605 0.49669 0.78322 0.0
N183 N 0.9957 0.49752 0.84167 0.0
C184 C 0.47765 0.85976 0.9717 0.0
C185 C 0.44968 0.8477 0.94884 0.0
C186 C 0.49599 0.89689 0.98224 0.0
C187 C 0.4861 0.92267 0.97075 0.0
C188 C 0.44099 0.87392 0.93641 0.0
C189 C 0.45892 0.91096 0.94733 0.0
C190 C 0.50502 0.96208 0.98223 0.0
C191 C 0.44188 0.89707 0.06213 0.0
C192 C 0.46447 0.89863 0.08673 0.0
C193 C 0.45844 0.91974 0.03752 0.0
C194 C 0.49795 0.94432 0.03703 0.0
C195 C 0.50408 0.92218 0.08596 0.0
C196 C 0.52069 0.9452 0.06136 0.0
C197 C 0.51454 0.97187 0.0128 0.0
C198 C 0.57735 0.13892 0.0184 0.0
C199 C 0.6098 0.1494 0.03651 0.0
C200 C 0.55635 0.1024 0.0066 0.0
C201 C 0.56805 0.07604 0.01209 0.0
C202 C 0.62113 0.1229 0.04238 0.0
C203 C 0.60036 0.08653 0.03036 0.0
C204 C 0.54575 0.03683 0.00074 0.0
C205 C 0.57846 0.1057 0.91481 0.0
C206 C 0.54611 0.10542 0.90264 0.0
C207 C 0.57475 0.08081 0.9375 0.0
C208 C 0.53861 0.05487 0.94789 0.0
C209 C 0.51016 0.07996 0.91389 0.0
C210 C 0.50644 0.05465 0.93594 0.0
C211 C 0.53339 0.02705 0.97065 0.0
H212 H 0.48522 0.84039 0.98165 0.0
H213 H 0.51804 0.90536 -0.00064 0.0
H214 H 0.42053 0.86592 0.91807 0.0
H215 H 0.45129 0.93039 0.93759 0.0
H216 H 0.41123 0.87926 0.06246 0.0
H217 H 0.44013 0.91923 0.01943 0.0
H218 H 0.52187 0.92402 0.10493 0.0
H219 H 0.55114 0.9643 0.06159 0.0
H220 H 0.56789 0.15882 0.01381 0.0
H221 H 0.53064 0.09469 0.99371 0.0
H222 H 0.64633 0.13047 0.05598 0.0
H223 H 0.60967 0.06657 0.0352 0.0
H224 H 0.60646 0.12425 0.90622 0.0
H225 H 0.59988 0.08113 0.9464 0.0
H226 H 0.4847 0.07927 0.90536 0.0
H227 H 0.47833 0.03493 0.94384 0.0
N228 N 0.51399 0.99011 0.96245 0.0
N229 N 0.5354 0.0088 0.02073 0.0
C230 C 0.46876 0.61385 0.18838 0.0
C231 C 0.4509 0.60548 0.21624 0.0
C232 C 0.48118 0.59079 0.17578 0.0
C233 C 0.47447 0.5577 0.19 0.0
C234 C 0.44595 0.57341 0.23119 0.0
C235 C 0.4572 0.54961 0.21806 0.0
C236 C 0.48886 0.53361 0.17753 0.0
C237 C 0.41483 0.53569 0.10159 0.0
C238 C 0.43441 0.55183 0.07518 0.0
C239 C 0.43295 0.52826 0.12523 0.0
C240 C 0.47107 0.53724 0.12295 0.0
C241 C 0.47275 0.56156 0.07326 0.0
C242 C 0.4908 0.55412 0.09682 0.0
C243 C 0.48997 0.52688 0.14654 0.0
C244 C 0.57354 0.43832 0.14405 0.0
C245 C 0.60048 0.45991 0.12258 0.0
C246 C 0.54808 0.44918 0.15461 0.0
C247 C 0.5498 0.48219 0.14429 0.0
C248 C 0.60042 0.49151 0.111 0.0
C249 C 0.57532 0.50247 0.1217 0.0
C250 C 0.52638 0.49705 0.15702 0.0
C251 C 0.59871 0.49518 0.23431 0.0
C252 C 0.57768 0.47458 0.25895 0.0
C253 C 0.58112 0.50365 0.211 0.0
C254 C 0.5419 0.49074 0.21144 0.0
C255 C 0.53836 0.46119 0.25914 0.0
C256 C 0.52068 0.46941 0.23567 0.0
C257 C 0.52335 0.50172 0.18803 0.0
H258 H 0.47331 0.63839 0.17623 0.0
H259 H 0.49663 0.59945 0.15515 0.0
H260 H 0.43391 0.56687 0.25326 0.0
H261 H 0.45276 0.52501 0.23009 0.0
H262 H 0.38533 0.52821 0.10373 0.0
H263 H 0.41692 0.51467 0.14495 0.0
H264 H 0.4884 0.57372 0.05308 0.0
H265 H 0.52016 0.56114 0.09448 0.0
H266 H 0.57311 0.41395 0.15348 0.0
H267 H 0.52788 0.43243 0.17142 0.0
H268 H 0.62054 0.50836 0.09416 0.0
H269 H 0.57689 0.52775 0.11306 0.0
H270 H 0.629 0.50548 0.2334 0.0
H271 H 0.59834 0.52096 0.19297 0.0
H272 H 0.52154 0.44552 0.27795 0.0
H273 H 0.49048 0.45954 0.23662 0.0
N274 N 0.50491 0.51997 0.19698 0.0
N275 N 0.50927 0.50953 0.13763 0.0
Zn276 Zn 0.70225 0.48231 0.41755 0.0
Zn277 Zn 0.65672 0.40875 0.41542 0.0
O278 O 0.71173 0.41796 0.41229 0.0
O279 O 0.74974 0.47892 0.41595 0.0
O280 O 0.62655 0.3522 0.41968 0.0
O281 O 0.68158 0.48772 0.45652 0.0
O282 O 0.6418 0.42694 0.45365 0.0
C283 C 0.74525 0.44634 0.41279 0.0
C284 C 0.64995 0.4549 0.36573 0.0
O285 O 0.63804 0.42242 0.37675 0.0
O286 O 0.67648 0.4836 0.37902 0.0
C287 C 0.63607 0.33076 0.4064 0.0
O288 O 0.66339 0.34521 0.38683 0.0
C289 C 0.65402 0.45852 0.4671 0.0
Zn290 Zn 0.21305 0.69404 0.56812 0.0
Zn291 Zn 0.25205 0.65942 0.57722 0.0
O292 O 0.29265 0.71548 0.57189 0.0
O293 O 0.26033 0.74494 0.56737 0.0
O294 O 0.28521 0.63727 0.58782 0.0
O295 O 0.18337 0.67312 0.60556 0.0
O296 O 0.21598 0.64437 0.61352 0.0
C297 C 0.29198 0.74589 0.56841 0.0
C298 C 0.20061 0.63891 0.52166 0.0
O299 O 0.22337 0.63307 0.5377 0.0
O300 O 0.19265 0.66375 0.52975 0.0
C301 C 0.31096 0.63935 0.57075 0.0
O302 O 0.31468 0.65424 0.54424 0.0
C303 C 0.18992 0.65134 0.62114 0.0
Zn304 Zn 0.51846 0.20493 0.74599 0.0
Zn305 Zn 0.59395 0.25207 0.75135 0.0
O306 O 0.57102 0.28615 0.74589 0.0
O307 O 0.50924 0.24872 0.74158 0.0
O308 O 0.64944 0.29056 0.7566 0.0
O309 O 0.51926 0.18304 0.78587 0.0
O310 O 0.58134 0.22038 0.7897 0.0
C311 C 0.53782 0.28156 0.74196 0.0
C312 C 0.56212 0.1953 0.69962 0.0
O313 O 0.59049 0.22275 0.71289 0.0
O314 O 0.52884 0.18254 0.70944 0.0
C315 C 0.67664 0.28629 0.74771 0.0
O316 O 0.6689 0.25432 0.73485 0.0
C317 C 0.55042 0.194 0.79999 0.0
Zn318 Zn 0.33605 0.54095 0.90518 0.0
Zn319 Zn 0.36627 0.61512 0.91176 0.0
O320 O 0.3099 0.59728 0.9026 0.0
O321 O 0.28589 0.53678 0.89401 0.0
O322 O 0.39065 0.67125 0.91898 0.0
O323 O 0.34865 0.53566 0.94768 0.0
O324 O 0.37816 0.59724 0.95176 0.0
C325 C 0.28187 0.56539 0.89493 0.0
C326 C 0.393 0.58244 0.86217 0.0
O327 O 0.39271 0.61043 0.87433 0.0
O328 O 0.37314 0.54983 0.87253 0.0
C329 C 0.37545 0.69044 0.91094 0.0
O330 O 0.34288 0.67392 0.89603 0.0
C331 C 0.36852 0.56535 0.96305 0.0
Zn332 Zn 0.80227 0.45696 0.07883 0.0
Zn333 Zn 0.75554 0.38293 0.07165 0.0
O334 O 0.71885 0.40199 0.08186 0.0
O335 O 0.75716 0.46249 0.0896 0.0
O336 O 0.72048 0.32838 0.06179 0.0
O337 O 0.81935 0.46231 0.03619 0.0
O338 O 0.78452 0.40088 0.03216 0.0
C339 C 0.72387 0.43424 0.08895 0.0
C340 C 0.81761 0.41135 0.11974 0.0
O341 O 0.78806 0.38384 0.10774 0.0
O342 O 0.82989 0.44449 0.1107 0.0
C343 C 0.70329 0.30301 0.08095 0.0
O344 O 0.70822 0.31226 0.10953 0.0
C345 C 0.80792 0.43236 0.02096 0.0
Zn346 Zn 0.33892 0.79765 0.24336 0.0
Zn347 Zn 0.38153 0.76507 0.24485 0.0
O348 O 0.32566 0.72224 0.24682 0.0
O349 O 0.29016 0.74855 0.24362 0.0
O350 O 0.4093 0.73587 0.24289 0.0
O351 O 0.3631 0.82328 0.20521 0.0
O352 O 0.39838 0.79659 0.20644 0.0
C353 C 0.29297 0.71943 0.24623 0.0
C354 C 0.38888 0.81779 0.29563 0.0
O355 O 0.4005 0.79724 0.28354 0.0
O356 O 0.36322 0.82196 0.28287 0.0
C357 C 0.39743 0.70556 0.25725 0.0
O358 O 0.36909 0.6954 0.27563 0.0
C359 C 0.38883 0.81851 0.19395 0.0
C360 C 0.19393 0.64985 0.27126 0.0
C361 C 0.19248 0.61509 0.26858 0.0
C362 C 0.22617 0.68312 0.26314 0.0
C363 C 0.25845 0.68307 0.25215 0.0
H364 H 0.17 0.6514 0.28006 0.0
H365 H 0.22598 0.70919 0.26621 0.0
S366 S 0.26759 0.59882 0.23842 0.0
N367 N 0.22483 0.582 0.25255 0.0
N368 N 0.28611 0.64486 0.23745 0.0
C369 C 0.25719 0.64836 0.24889 0.0
C370 C 0.22408 0.61431 0.25713 0.0
C371 C 0.62895 0.23649 0.4208 0.0
C372 C 0.59562 0.2174 0.43739 0.0
C373 C 0.64104 0.27261 0.41004 0.0
C374 C 0.6206 0.2913 0.41591 0.0
H375 H 0.64567 0.22327 0.41593 0.0
H376 H 0.66709 0.28625 0.39757 0.0
S377 S 0.53127 0.25309 0.45849 0.0
N378 N 0.54213 0.21938 0.45908 0.0
N379 N 0.565 0.28747 0.4393 0.0
C380 C 0.58708 0.27233 0.43244 0.0
C381 C 0.57456 0.23535 0.44305 0.0
C382 C 0.38381 0.60691 0.56892 0.0
C383 C 0.38958 0.60241 0.59933 0.0
C384 C 0.35849 0.61904 0.55991 0.0
C385 C 0.33743 0.62641 0.58096 0.0
H386 H 0.39915 0.6012 0.55196 0.0
H387 H 0.35512 0.62224 0.53623 0.0
S388 S 0.342 0.61815 0.66346 0.0
N389 N 0.37222 0.6059 0.65052 0.0
N390 N 0.32435 0.62828 0.63378 0.0
C391 C 0.34289 0.62178 0.61151 0.0
C392 C 0.36906 0.60994 0.62064 0.0
C393 C 0.78454 0.33682 0.75343 0.0
C394 C 0.79419 0.37282 0.76414 0.0
C395 C 0.74657 0.30934 0.74759 0.0
C396 C 0.71669 0.31667 0.75253 0.0
H397 H 0.80654 0.32969 0.74987 0.0
H398 H 0.74063 0.28191 0.73974 0.0
S399 S 0.72724 0.40713 0.77981 0.0
N400 N 0.77119 0.41476 0.77897 0.0
N401 N 0.69975 0.36336 0.76794 0.0
C402 C 0.72612 0.35295 0.76267 0.0
C403 C 0.76487 0.38097 0.76844 0.0
C404 C 0.45115 0.78969 0.93322 0.0
C405 C 0.43006 0.80792 0.938 0.0
C406 C 0.4333 0.7518 0.92428 0.0
C407 C 0.3937 0.73075 0.91936 0.0
H408 H 0.48178 0.80482 0.93639 0.0
H409 H 0.45072 0.73897 0.92108 0.0
S410 S 0.32517 0.76449 0.92996 0.0
N411 N 0.36708 0.80137 0.9383 0.0
N412 N 0.33373 0.73056 0.9205 0.0
C413 C 0.37225 0.74862 0.92375 0.0
C414 C 0.39036 0.78708 0.93328 0.0
C415 C 0.6688 0.48113 0.11458 0.0
C416 C 0.63079 0.4518 0.11385 0.0
C417 C 0.69837 0.47503 0.10638 0.0
C418 C 0.6913 0.43925 0.0971 0.0
H419 H 0.67587 0.50913 0.12185 0.0
H420 H 0.7271 0.49873 0.10752 0.0
S421 S 0.5963 0.35296 0.09074 0.0
N422 N 0.58725 0.38575 0.10271 0.0
N423 N 0.64295 0.3739 0.08747 0.0
C424 C 0.65328 0.4095 0.09628 0.0
C425 C 0.62304 0.41584 0.10467 0.0
C426 C 0.35686 0.84887 0.55161 0.0
C427 C 0.39133 0.85085 0.54415 0.0
C428 C 0.32565 0.81525 0.56079 0.0
C429 C 0.32745 0.78199 0.56284 0.0
H430 H 0.35369 0.87343 0.54971 0.0
H431 H 0.29953 0.81521 0.56547 0.0
S432 S 0.41226 0.7729 0.5475 0.0
N433 N 0.42633 0.81736 0.54076 0.0
N434 N 0.36768 0.7539 0.55815 0.0
C435 C 0.36242 0.784 0.55675 0.0
C436 C 0.39434 0.81846 0.54739 0.0
C437 C 0.56274 0.38033 0.72038 0.0
C438 C 0.52714 0.37619 0.71276 0.0
C439 C 0.56577 0.34995 0.73105 0.0
C440 C 0.53328 0.31431 0.73463 0.0
H441 H 0.58853 0.40686 0.71701 0.0
H442 H 0.59398 0.35425 0.73557 0.0
S443 S 0.43303 0.2907 0.72154 0.0
N444 N 0.45858 0.33519 0.7122 0.0
N445 N 0.46398 0.27797 0.73224 0.0
C446 C 0.49733 0.3105 0.72857 0.0
C447 C 0.49435 0.34144 0.7176 0.0
C448 C 0.18427 0.52422 0.8583 0.0
C449 C 0.17416 0.55183 0.86335 0.0
C450 C 0.21891 0.52892 0.86888 0.0
C451 C 0.24513 0.56158 0.88488 0.0
H452 H 0.16513 0.49859 0.84603 0.0
H453 H 0.22519 0.50672 0.86419 0.0
S454 S 0.232 0.6423 0.90439 0.0
N455 N 0.1927 0.61289 0.88559 0.0
N456 N 0.25839 0.6221 0.9054 0.0
C457 C 0.23558 0.58972 0.88988 0.0
C458 C 0.20002 0.5848 0.87908 0.0
C459 C 0.64573 0.21871 0.02932 0.0
C460 C 0.63231 0.18821 0.04872 0.0
C461 C 0.66843 0.25562 0.04005 0.0
C462 C 0.67829 0.26353 0.07068 0.0
H463 H 0.63925 0.21395 0.00554 0.0
H464 H 0.6784 0.27812 0.02408 0.0
S465 S 0.6483 0.19319 0.1309 0.0
N466 N 0.62905 0.16798 0.10002 0.0
N467 N 0.67162 0.2374 0.1204 0.0
C468 C 0.66429 0.23318 0.09043 0.0
C469 C 0.6414 0.19552 0.07939 0.0
C470 C 0.4604 0.66979 0.22671 0.0
C471 C 0.43794 0.63053 0.22943 0.0
C472 C 0.44759 0.6939 0.2366 0.0
C473 C 0.41211 0.67987 0.2502 0.0
H474 H 0.48802 0.6821 0.21649 0.0
H475 H 0.4655 0.72378 0.23322 0.0
S476 S 0.34287 0.57956 0.26396 0.0
N477 N 0.37835 0.57886 0.24701 0.0
N478 N 0.35535 0.6243 0.26717 0.0
C479 C 0.39004 0.64087 0.25432 0.0
C480 C 0.40268 0.61619 0.2436 0.0
C481 C 0.84465 0.47238 0.38964 0.0
C482 C 0.84157 0.43751 0.38296 0.0
C483 C 0.81399 0.4747 0.40098 0.0
C484 C 0.77873 0.44221 0.40593 0.0
H485 H 0.87077 0.49822 0.38524 0.0
H486 H 0.81765 0.5024 0.40463 0.0
S487 S 0.75762 0.34383 0.39534 0.0
N488 N 0.80197 0.36968 0.38444 0.0
N489 N 0.74399 0.37377 0.40605 0.0
C490 C 0.77604 0.407 0.40109 0.0
C491 C 0.80754 0.40471 0.38955 0.0
C492 C 0.13711 0.60278 0.45201 0.0
C493 C 0.14282 0.57389 0.44106 0.0
C494 C 0.15626 0.62358 0.47774 0.0
C495 C 0.18208 0.61652 0.49386 0.0
H496 H 0.11705 0.60899 0.4409 0.0
H497 H 0.15029 0.64523 0.48514 0.0
S498 S 0.20844 0.54478 0.47372 0.0
N499 N 0.17704 0.53988 0.44756 0.0
N500 N 0.21305 0.57889 0.4963 0.0
C501 C 0.18846 0.58791 0.48297 0.0
C502 C 0.16878 0.56659 0.45658 0.0
C503 C 0.59392 0.18456 0.62264 0.0
C504 C 0.5721 0.1456 0.61743 0.0
C505 C 0.59201 0.20054 0.65001 0.0
C506 C 0.5674 0.17804 0.67245 0.0
H507 H 0.61209 0.20271 0.60535 0.0
H508 H 0.60867 0.23073 0.65315 0.0
S509 S 0.50549 0.07446 0.66974 0.0
N510 N 0.52649 0.08487 0.63704 0.0
N511 N 0.52206 0.11485 0.68807 0.0
C512 C 0.54605 0.13901 0.66757 0.0
C513 C 0.5486 0.12278 0.6401 0.0
C514 C 0.44627 0.56367 0.80241 0.0
C515 C 0.44332 0.58326 0.77787 0.0
C516 C 0.43138 0.56499 0.83012 0.0
C517 C 0.4138 0.58663 0.83442 0.0
H518 H 0.45877 0.54591 0.79982 0.0
H519 H 0.43277 0.5482 0.84812 0.0
S520 S 0.401 0.64482 0.7776 0.0
N521 N 0.42282 0.6259 0.75967 0.0
N522 N 0.39562 0.62933 0.8122 0.0
C523 C 0.41222 0.60775 0.81042 0.0
C524 C 0.4267 0.60573 0.78197 0.0
C525 C 0.85923 0.47261 0.94855 0.0
C526 C 0.85946 0.44188 0.9348 0.0
C527 C 0.84166 0.46894 0.97602 0.0
C528 C 0.82327 0.43429 0.99069 0.0
H529 H 0.87388 0.50005 0.93849 0.0
H530 H 0.84308 0.4937 0.98603 0.0
S531 S 0.81353 0.34453 0.96262 0.0
N532 N 0.83825 0.37531 0.93681 0.0
N533 N 0.80481 0.36808 0.98842 0.0
C534 C 0.82206 0.40294 0.97654 0.0
C535 C 0.84035 0.40685 0.94865 0.0
C536 C 0.45116 0.8497 0.12517 0.0
C537 C 0.44605 0.87886 0.11434 0.0
C538 C 0.43253 0.83019 0.15094 0.0
C539 C 0.40837 0.83939 0.16674 0.0
H540 H 0.4692 0.84162 0.11342 0.0
H541 H 0.4369 0.80759 0.15836 0.0
S542 S 0.38892 0.91638 0.14838 0.0
N543 N 0.41735 0.91765 0.12183 0.0
N544 N 0.38256 0.88162 0.17022 0.0
C545 C 0.40395 0.86929 0.15627 0.0
C546 C 0.42276 0.88888 0.13009 0.0
C547 C 0.58328 0.43396 0.29819 0.0
C548 C 0.59715 0.46951 0.28539 0.0
C549 C 0.6008 0.42922 0.32384 0.0
C550 C 0.63265 0.45992 0.33778 0.0
H551 H 0.55872 0.40964 0.28829 0.0
H552 H 0.58897 0.40135 0.33295 0.0
S553 S 0.67908 0.55922 0.31322 0.0
N554 N 0.64383 0.53599 0.28884 0.0
N555 N 0.67713 0.52741 0.33648 0.0
C556 C 0.64677 0.49565 0.32497 0.0
C557 C 0.62895 0.50036 0.29895 0.0
C558 C 0.4623 0.87609 0.3558 0.0
C559 C 0.44207 0.88813 0.37369 0.0
C560 C 0.44446 0.85152 0.33128 0.0
C561 C 0.40595 0.83847 0.324 0.0
H562 H 0.49243 0.88706 0.35995 0.0
H563 H 0.46135 0.84425 0.31713 0.0
S564 S 0.33931 0.85674 0.36733 0.0
N565 N 0.38074 0.88157 0.38497 0.0
N566 N 0.34715 0.83564 0.33901 0.0
C567 C 0.38497 0.84842 0.34305 0.0
C568 C 0.40306 0.87322 0.36788 0.0
C569 C 0.57614 0.438 0.52272 0.0
C570 C 0.59221 0.47083 0.54065 0.0
C571 C 0.59686 0.4335 0.49975 0.0
C572 C 0.63424 0.46191 0.49363 0.0
H573 H 0.54728 0.41571 0.5264 0.0
H574 H 0.58302 0.40803 0.48615 0.0
S575 S 0.6893 0.55312 0.53466 0.0
N576 N 0.64769 0.53202 0.55105 0.0
N577 N 0.68675 0.52363 0.50824 0.0
C578 C 0.6508 0.4946 0.51187 0.0
C579 C 0.62977 0.49905 0.53526 0.0
C580 C 0.15491 0.60093 0.69514 0.0
C581 C 0.11718 0.59384 0.69598 0.0
C582 C 0.17843 0.61952 0.67092 0.0
C583 C 0.16519 0.63202 0.64682 0.0
H584 H 0.16649 0.59246 0.7135 0.0
H585 H 0.20729 0.62453 0.67126 0.0
S586 S 0.06736 0.61659 0.63662 0.0
N587 N 0.06679 0.59784 0.66923 0.0
N588 N 0.11101 0.63356 0.6244 0.0
C589 C 0.1273 0.62444 0.64718 0.0
C590 C 0.10333 0.60517 0.67154 0.0
C591 C 0.52189 0.11366 0.85324 0.0
C592 C 0.54881 0.12942 0.8769 0.0
C593 C 0.52259 0.13507 0.8289 0.0
C594 C 0.55064 0.17311 0.82677 0.0
H595 H 0.50014 0.08427 0.85328 0.0
H596 H 0.50123 0.12134 0.81129 0.0
S597 S 0.62734 0.22845 0.88282 0.0
N598 N 0.60382 0.18603 0.89706 0.0
N599 N 0.60599 0.22598 0.85045 0.0
C600 C 0.57809 0.18934 0.85 0.0
C601 C 0.57701 0.16759 0.87522 0.0
C602 C 0.43088 0.59029 0.0333 0.0
C603 C 0.41457 0.55614 0.04867 0.0
C604 C 0.41484 0.59361 0.00628 0.0
C605 C 0.38222 0.56272 0.99341 0.0
H606 H 0.45669 0.61441 0.04195 0.0
H607 H 0.42899 0.62016 0.99486 0.0
S608 S 0.32756 0.46763 0.02575 0.0
N609 N 0.36321 0.49133 0.04975 0.0
N610 N 0.3329 0.49744 0.99919 0.0
C611 C 0.3649 0.52879 0.00918 0.0
C612 C 0.38109 0.52555 0.03675 0.0
C613 C 0.8433 0.39586 0.19779 0.0
C614 C 0.8829 0.41099 0.19592 0.0
C615 C 0.82125 0.3931 0.17229 0.0
C616 C 0.83834 0.4056 0.14442 0.0
H617 H 0.82973 0.38844 0.2193 0.0
H618 H 0.79129 0.38357 0.1748 0.0
S619 S 0.93935 0.44098 0.12674 0.0
N620 N 0.93698 0.4332 0.16305 0.0
N621 N 0.89578 0.42931 0.11562 0.0
C622 C 0.87719 0.41807 0.1419 0.0
C623 C 0.89943 0.42035 0.16755 0.0
loop_
_geom_bond_atom_site_label_1
_geom_bond_atom_site_label_2
_geom_bond_distance
_geom_bond_site_symmetry_2
_ccdc_geom_bond_type
C0 C1 1.384 . S
C0 C2 1.384 . S
C0 H28 0.931 . S
C1 C0 1.384 . S
C1 C4 1.382 . S
C2 C0 1.384 . S
C2 C3 1.381 . S
C2 H29 0.930 . S
C3 C2 1.381 . S
C3 C5 1.381 . S
C3 C6 1.487 . S
C4 C1 1.382 . S
C4 C5 1.387 . S
C4 H30 0.930 . S
C5 C3 1.381 . S
C5 C4 1.387 . S
C5 H31 0.931 . S
C6 C3 1.487 . S
C6 C13 1.399 . S
C6 N44 1.343 . S
C7 C8 1.384 . S
C7 C9 1.384 . S
C7 H32 0.931 . S
C8 C7 1.384 . S
C8 C11 1.382 . S
C9 C7 1.384 . S
C9 C10 1.381 . S
C9 H33 0.930 . S
C10 C9 1.381 . S
C10 C12 1.381 . S
C10 C13 1.487 . S
C11 C8 1.382 . S
C11 C12 1.387 . S
C11 H34 0.930 . S
C12 C10 1.381 . S
C12 C11 1.387 . S
C12 H35 0.931 . S
C13 C6 1.399 . S
C13 C10 1.487 . S
C13 N45 1.343 1_655 S
C14 C15 1.384 . S
C14 C16 1.384 . S
C14 H36 0.931 . S
C15 C14 1.384 . S
C15 C18 1.382 . S
C16 C14 1.384 . S
C16 C17 1.381 . S
C16 H37 0.930 . S
C17 C16 1.381 . S
C17 C19 1.381 . S
C17 C20 1.487 . S
C18 C15 1.382 . S
C18 C19 1.387 . S
C18 H38 0.930 . S
C19 C17 1.381 . S
C19 C18 1.387 . S
C19 H39 0.931 . S
C20 C17 1.487 . S
C20 C27 1.399 . S
C20 N45 1.343 . S
C21 C22 1.384 . S
C21 C23 1.384 . S
C21 H40 0.931 . S
C22 C21 1.384 . S
C22 C25 1.382 . S
C23 C21 1.384 . S
C23 C24 1.381 . S
C23 H41 0.930 . S
C24 C23 1.381 . S
C24 C26 1.381 . S
C24 C27 1.487 . S
C25 C22 1.382 . S
C25 C26 1.387 . S
C25 H42 0.930 . S
C26 C24 1.381 . S
C26 C25 1.387 . S
C26 H43 0.931 . S
C27 C20 1.399 . S
C27 C24 1.487 . S
C27 N44 1.343 1_455 S
H28 C0 0.931 . S
H29 C2 0.930 . S
H30 C4 0.930 . S
H31 C5 0.931 . S
H32 C7 0.931 . S
H33 C9 0.930 . S
H34 C11 0.930 . S
H35 C12 0.931 . S
H36 C14 0.931 . S
H37 C16 0.930 . S
H38 C18 0.930 . S
H39 C19 0.931 . S
H40 C21 0.931 . S
H41 C23 0.930 . S
H42 C25 0.930 . S
H43 C26 0.931 . S
N44 C6 1.343 . S
N44 C27 1.343 1_655 S
N45 C13 1.343 1_455 S
N45 C20 1.343 . S
C46 C47 1.384 . S
C46 C48 1.384 . S
C46 H74 0.931 . S
C47 C46 1.384 . S
C47 C50 1.382 . S
C48 C46 1.384 . S
C48 C49 1.381 . S
C48 H75 0.930 . S
C49 C48 1.381 . S
C49 C51 1.381 . S
C49 C52 1.487 . S
C50 C47 1.382 . S
C50 C51 1.387 . S
C50 H76 0.930 . S
C51 C49 1.381 . S
C51 C50 1.387 . S
C51 H77 0.931 . S
C52 C49 1.487 . S
C52 C59 1.399 . S
C52 N90 1.343 . S
C53 C54 1.384 . S
C53 C55 1.384 . S
C53 H78 0.931 . S
C54 C53 1.384 . S
C54 C57 1.382 . S
C55 C53 1.384 . S
C55 C56 1.381 . S
C55 H79 0.930 . S
C56 C55 1.381 . S
C56 C58 1.381 . S
C56 C59 1.487 . S
C57 C54 1.382 . S
C57 C58 1.387 . S
C57 H80 0.930 . S
C58 C56 1.381 . S
C58 C57 1.387 . S
C58 H81 0.931 . S
C59 C52 1.399 . S
C59 C56 1.487 . S
C59 N91 1.343 1_565 S
C60 C61 1.384 . S
C60 C62 1.384 . S
C60 H82 0.931 . S
C61 C60 1.384 . S
C61 C64 1.382 . S
C62 C60 1.384 . S
C62 C63 1.381 . S
C62 H83 0.930 . S
C63 C62 1.381 . S
C63 C65 1.381 . S
C63 C66 1.487 . S
C64 C61 1.382 . S
C64 C65 1.387 . S
C64 H84 0.930 . S
C65 C63 1.381 . S
C65 C64 1.387 . S
C65 H85 0.931 . S
C66 C63 1.487 . S
C66 C73 1.399 . S
C66 N91 1.343 . S
C67 C68 1.384 . S
C67 C69 1.384 . S
C67 H86 0.931 . S
C68 C67 1.384 . S
C68 C71 1.382 . S
C69 C67 1.384 . S
C69 C70 1.381 . S
C69 H87 0.930 . S
C70 C69 1.381 . S
C70 C72 1.381 . S
C70 C73 1.487 . S
C71 C68 1.382 . S
C71 C72 1.387 . S
C71 H88 0.930 . S
C72 C70 1.381 . S
C72 C71 1.387 . S
C72 H89 0.931 . S
C73 C66 1.399 . S
C73 C70 1.487 . S
C73 N90 1.343 1_545 S
H74 C46 0.931 . S
H75 C48 0.930 . S
H76 C50 0.930 . S
H77 C51 0.931 . S
H78 C53 0.931 . S
H79 C55 0.930 . S
H80 C57 0.930 . S
H81 C58 0.931 . S
H82 C60 0.931 . S
H83 C62 0.930 . S
H84 C64 0.930 . S
H85 C65 0.931 . S
H86 C67 0.931 . S
H87 C69 0.930 . S
H88 C71 0.930 . S
H89 C72 0.931 . S
N90 C52 1.343 . S
N90 C73 1.343 1_565 S
N91 C59 1.343 1_545 S
N91 C66 1.343 . S
C92 C93 1.384 . S
C92 C94 1.384 . S
C92 H120 0.931 . S
C93 C92 1.384 . S
C93 C96 1.382 . S
C94 C92 1.384 . S
C94 C95 1.381 . S
C94 H121 0.930 . S
C95 C94 1.381 . S
C95 C97 1.381 . S
C95 C98 1.487 . S
C96 C93 1.382 . S
C96 C97 1.387 . S
C96 H122 0.930 . S
C97 C95 1.381 . S
C97 C96 1.387 . S
C97 H123 0.931 . S
C98 C95 1.487 . S
C98 C105 1.399 . S
C98 N136 1.343 . S
C99 C100 1.384 . S
C99 C101 1.384 . S
C99 H124 0.931 . S
C100 C99 1.384 . S
C100 C103 1.382 . S
C101 C99 1.384 . S
C101 C102 1.381 . S
C101 H125 0.930 . S
C102 C101 1.381 . S
C102 C104 1.381 . S
C102 C105 1.487 . S
C103 C100 1.382 . S
C103 C104 1.387 . S
C103 H126 0.930 . S
C104 C102 1.381 . S
C104 C103 1.387 . S
C104 H127 0.931 . S
C105 C98 1.399 . S
C105 C102 1.487 . S
C105 N137 1.343 . S
C106 C107 1.384 . S
C106 C108 1.384 . S
C106 H128 0.931 . S
C107 C106 1.384 . S
C107 C110 1.382 . S
C108 C106 1.384 . S
C108 C109 1.381 . S
C108 H129 0.930 . S
C109 C108 1.381 . S
C109 C111 1.381 . S
C109 C112 1.487 . S
C110 C107 1.382 . S
C110 C111 1.387 . S
C110 H130 0.930 . S
C111 C109 1.381 . S
C111 C110 1.387 . S
C111 H131 0.931 . S
C112 C109 1.487 . S
C112 C119 1.399 . S
C112 N137 1.343 . S
C113 C114 1.384 . S
C113 C115 1.384 . S
C113 H132 0.931 . S
C114 C113 1.384 . S
C114 C117 1.382 . S
C115 C113 1.384 . S
C115 C116 1.381 . S
C115 H133 0.930 . S
C116 C115 1.381 . S
C116 C118 1.381 . S
C116 C119 1.487 . S
C117 C114 1.382 . S
C117 C118 1.387 . S
C117 H134 0.930 . S
C118 C116 1.381 . S
C118 C117 1.387 . S
C118 H135 0.931 . S
C119 C112 1.399 . S
C119 C116 1.487 . S
C119 N136 1.343 . S
H120 C92 0.931 . S
H121 C94 0.930 . S
H122 C96 0.930 . S
H123 C97 0.931 . S
H124 C99 0.931 . S
H125 C101 0.930 . S
H126 C103 0.930 . S
H127 C104 0.931 . S
H128 C106 0.931 . S
H129 C108 0.930 . S
H130 C110 0.930 . S
H131 C111 0.931 . S
H132 C113 0.931 . S
H133 C115 0.930 . S
H134 C117 0.930 . S
H135 C118 0.931 . S
N136 C98 1.343 . S
N136 C119 1.343 . S
N137 C105 1.343 . S
N137 C112 1.343 . S
C138 C139 1.384 . S
C138 C140 1.384 . S
C138 H166 0.931 . S
C139 C138 1.384 . S
C139 C142 1.382 . S
C140 C138 1.384 . S
C140 C141 1.381 . S
C140 H167 0.930 . S
C141 C140 1.381 . S
C141 C143 1.381 . S
C141 C144 1.487 . S
C142 C139 1.382 . S
C142 C143 1.387 . S
C142 H168 0.930 . S
C143 C141 1.381 . S
C143 C142 1.387 . S
C143 H169 0.931 . S
C144 C141 1.487 . S
C144 C151 1.399 . S
C144 N182 1.343 . S
C145 C146 1.384 . S
C145 C147 1.384 . S
C145 H170 0.931 . S
C146 C145 1.384 . S
C146 C149 1.382 . S
C147 C145 1.384 . S
C147 C148 1.381 . S
C147 H171 0.930 . S
C148 C147 1.381 . S
C148 C150 1.381 . S
C148 C151 1.487 . S
C149 C146 1.382 . S
C149 C150 1.387 . S
C149 H172 0.930 . S
C150 C148 1.381 . S
C150 C149 1.387 . S
C150 H173 0.931 . S
C151 C144 1.399 . S
C151 C148 1.487 . S
C151 N183 1.343 1_655 S
C152 C153 1.384 . S
C152 C154 1.384 . S
C152 H174 0.931 . S
C153 C152 1.384 . S
C153 C156 1.382 . S
C154 C152 1.384 . S
C154 C155 1.381 . S
C154 H175 0.930 . S
C155 C154 1.381 . S
C155 C157 1.381 . S
C155 C158 1.487 . S
C156 C153 1.382 . S
C156 C157 1.387 . S
C156 H176 0.930 . S
C157 C155 1.381 . S
C157 C156 1.387 . S
C157 H177 0.931 . S
C158 C155 1.487 . S
C158 C165 1.399 . S
C158 N183 1.343 . S
C159 C160 1.384 . S
C159 C161 1.384 . S
C159 H178 0.931 . S
C160 C159 1.384 . S
C160 C163 1.382 . S
C161 C159 1.384 . S
C161 C162 1.381 . S
C161 H179 0.930 . S
C162 C161 1.381 . S
C162 C164 1.381 . S
C162 C165 1.487 . S
C163 C160 1.382 . S
C163 C164 1.387 . S
C163 H180 0.930 . S
C164 C162 1.381 . S
C164 C163 1.387 . S
C164 H181 0.931 . S
C165 C158 1.399 . S
C165 C162 1.487 . S
C165 N182 1.343 1_455 S
H166 C138 0.931 . S
H167 C140 0.930 . S
H168 C142 0.930 . S
H169 C143 0.931 . S
H170 C145 0.931 . S
H171 C147 0.930 . S
H172 C149 0.930 . S
H173 C150 0.931 . S
H174 C152 0.931 . S
H175 C154 0.930 . S
H176 C156 0.930 . S
H177 C157 0.931 . S
H178 C159 0.931 . S
H179 C161 0.930 . S
H180 C163 0.930 . S
H181 C164 0.931 . S
N182 C144 1.343 . S
N182 C165 1.343 1_655 S
N183 C151 1.343 1_455 S
N183 C158 1.343 . S
C184 C185 1.384 . S
C184 C186 1.384 . S
C184 H212 0.931 . S
C185 C184 1.384 . S
C185 C188 1.382 . S
C186 C184 1.384 . S
C186 C187 1.381 . S
C186 H213 0.930 1_556 S
C187 C186 1.381 . S
C187 C189 1.381 . S
C187 C190 1.487 . S
C188 C185 1.382 . S
C188 C189 1.387 . S
C188 H214 0.930 . S
C189 C187 1.381 . S
C189 C188 1.387 . S
C189 H215 0.931 . S
C190 C187 1.487 . S
C190 C197 1.399 1_556 S
C190 N228 1.343 . S
C191 C192 1.384 . S
C191 C193 1.384 . S
C191 H216 0.931 . S
C192 C191 1.384 . S
C192 C195 1.382 . S
C193 C191 1.384 . S
C193 C194 1.381 . S
C193 H217 0.930 . S
C194 C193 1.381 . S
C194 C196 1.381 . S
C194 C197 1.487 . S
C195 C192 1.382 . S
C195 C196 1.387 . S
C195 H218 0.930 . S
C196 C194 1.381 . S
C196 C195 1.387 . S
C196 H219 0.931 . S
C197 C190 1.399 1_554 S
C197 C194 1.487 . S
C197 N229 1.343 1_565 S
C198 C199 1.384 . S
C198 C200 1.384 1_554 S
C198 H220 0.939 . S
C199 C198 1.384 . S
C199 C202 1.382 . S
C200 C198 1.384 1_556 S
C200 C201 1.381 1_556 S
C200 H221 0.930 . S
C201 C200 1.381 1_554 S
C201 C203 1.381 . S
C201 C204 1.487 1_554 S
C202 C199 1.382 . S
C202 C203 1.387 . S
C202 H222 0.930 . S
C203 C201 1.381 . S
C203 C202 1.387 . S
C203 H223 0.931 . S
C204 C201 1.487 1_556 S
C204 C211 1.399 . S
C204 N229 1.343 1_556 S
C205 C206 1.384 . S
C205 C207 1.384 . S
C205 H224 0.931 . S
C206 C205 1.384 . S
C206 C209 1.382 . S
C207 C205 1.384 . S
C207 C208 1.381 . S
C207 H225 0.930 . S
C208 C207 1.381 . S
C208 C210 1.381 . S
C208 C211 1.487 . S
C209 C206 1.382 . S
C209 C210 1.387 . S
C209 H226 0.930 . S
C210 C208 1.381 . S
C210 C209 1.387 . S
C210 H227 0.931 . S
C211 C204 1.399 . S
C211 C208 1.487 . S
C211 N228 1.343 1_545 S
H212 C184 0.931 . S
H213 C186 0.930 1_554 S
H214 C188 0.930 . S
H215 C189 0.931 . S
H216 C191 0.931 . S
H217 C193 0.930 . S
H218 C195 0.930 . S
H219 C196 0.931 . S
H220 C198 0.939 . S
H221 C200 0.930 . S
H222 C202 0.930 . S
H223 C203 0.931 . S
H224 C205 0.931 . S
H225 C207 0.930 . S
H226 C209 0.930 . S
H227 C210 0.931 . S
N228 C190 1.343 . S
N228 C211 1.343 1_565 S
N229 C197 1.343 1_545 S
N229 C204 1.343 1_554 S
C230 C231 1.384 . S
C230 C232 1.384 . S
C230 H258 0.931 . S
C231 C230 1.384 . S
C231 C234 1.382 . S
C232 C230 1.384 . S
C232 C233 1.381 . S
C232 H259 0.930 . S
C233 C232 1.381 . S
C233 C235 1.381 . S
C233 C236 1.487 . S
C234 C231 1.382 . S
C234 C235 1.387 . S
C234 H260 0.930 . S
C235 C233 1.381 . S
C235 C234 1.387 . S
C235 H261 0.931 . S
C236 C233 1.487 . S
C236 C243 1.399 . S
C236 N274 1.343 . S
C237 C238 1.384 . S
C237 C239 1.384 . S
C237 H262 0.931 . S
C238 C237 1.384 . S
C238 C241 1.382 . S
C239 C237 1.384 . S
C239 C240 1.381 . S
C239 H263 0.930 . S
C240 C239 1.381 . S
C240 C242 1.381 . S
C240 C243 1.487 . S
C241 C238 1.382 . S
C241 C242 1.387 . S
C241 H264 0.930 . S
C242 C240 1.381 . S
C242 C241 1.387 . S
C242 H265 0.931 . S
C243 C236 1.399 . S
C243 C240 1.487 . S
C243 N275 1.343 . S
C244 C245 1.384 . S
C244 C246 1.384 . S
C244 H266 0.931 . S
C245 C244 1.384 . S
C245 C248 1.382 . S
C246 C244 1.384 . S
C246 C247 1.381 . S
C246 H267 0.930 . S
C247 C246 1.381 . S
C247 C249 1.381 . S
C247 C250 1.487 . S
C248 C245 1.382 . S
C248 C249 1.387 . S
C248 H268 0.930 . S
C249 C247 1.381 . S
C249 C248 1.387 . S
C249 H269 0.931 . S
C250 C247 1.487 . S
C250 C257 1.399 . S
C250 N275 1.343 . S
C251 C252 1.384 . S
C251 C253 1.384 . S
C251 H270 0.931 . S
C252 C251 1.384 . S
C252 C255 1.382 . S
C253 C251 1.384 . S
C253 C254 1.381 . S
C253 H271 0.930 . S
C254 C253 1.381 . S
C254 C256 1.381 . S
C254 C257 1.487 . S
C255 C252 1.382 . S
C255 C256 1.387 . S
C255 H272 0.930 . S
C256 C254 1.381 . S
C256 C255 1.387 . S
C256 H273 0.931 . S
C257 C250 1.399 . S
C257 C254 1.487 . S
C257 N274 1.343 . S
H258 C230 0.931 . S
H259 C232 0.930 . S
H260 C234 0.930 . S
H261 C235 0.931 . S
H262 C237 0.931 . S
H263 C239 0.930 . S
H264 C241 0.930 . S
H265 C242 0.931 . S
H266 C244 0.931 . S
H267 C246 0.930 . S
H268 C248 0.930 . S
H269 C249 0.931 . S
H270 C251 0.931 . S
H271 C253 0.930 . S
H272 C255 0.930 . S
H273 C256 0.931 . S
N274 C236 1.343 . S
N274 C257 1.343 . S
N275 C243 1.343 . S
N275 C250 1.343 . S
Zn276 O279 2.031 . S
Zn276 O281 2.049 . S
Zn276 O286 2.067 . S
Zn277 O278 1.962 . S
Zn277 O280 1.986 . S
Zn277 O282 1.996 . S
Zn277 O285 1.943 . S
O278 Zn277 1.962 . S
O278 C283 1.254 . S
O279 Zn276 2.031 . S
O279 C283 1.269 . S
O280 Zn277 1.986 . S
O280 C287 1.262 . S
O281 Zn276 2.049 . S
O281 C289 1.260 . S
O282 Zn277 1.996 . S
O282 C289 1.257 . S
C283 O278 1.254 . S
C283 O279 1.269 . S
C284 O285 1.249 . S
C284 O286 1.270 . S
O285 Zn277 1.943 . S
O285 C284 1.249 . S
O286 Zn276 2.067 . S
O286 C284 1.270 . S
C287 O280 1.262 . S
C287 O288 1.232 . S
O288 C287 1.232 . S
C289 O281 1.260 . S
C289 O282 1.257 . S
Zn290 O293 2.031 . S
Zn290 O295 2.049 . S
Zn290 O300 2.067 . S
Zn291 O292 1.962 . S
Zn291 O294 1.986 . S
Zn291 O296 1.996 . S
Zn291 O299 1.943 . S
O292 Zn291 1.962 . S
O292 C297 1.254 . S
O293 Zn290 2.031 . S
O293 C297 1.269 . S
O294 Zn291 1.986 . S
O294 C301 1.262 . S
O295 Zn290 2.049 . S
O295 C303 1.260 . S
O296 Zn291 1.996 . S
O296 C303 1.257 . S
C297 O292 1.254 . S
C297 O293 1.269 . S
C298 O299 1.249 . S
C298 O300 1.270 . S
O299 Zn291 1.943 . S
O299 C298 1.249 . S
O300 Zn290 2.067 . S
O300 C298 1.270 . S
C301 O294 1.262 . S
C301 O302 1.232 . S
O302 C301 1.232 . S
C303 O295 1.260 . S
C303 O296 1.257 . S
Zn304 O307 2.031 . S
Zn304 O309 2.049 . S
Zn304 O314 2.067 . S
Zn305 O306 1.962 . S
Zn305 O308 1.986 . S
Zn305 O310 1.996 . S
Zn305 O313 1.943 . S
O306 Zn305 1.962 . S
O306 C311 1.254 . S
O307 Zn304 2.031 . S
O307 C311 1.269 . S
O308 Zn305 1.986 . S
O308 C315 1.262 . S
O309 Zn304 2.049 . S
O309 C317 1.260 . S
O310 Zn305 1.996 . S
O310 C317 1.257 . S
C311 O306 1.254 . S
C311 O307 1.269 . S
C312 O313 1.249 . S
C312 O314 1.270 . S
O313 Zn305 1.943 . S
O313 C312 1.249 . S
O314 Zn304 2.067 . S
O314 C312 1.270 . S
C315 O308 1.262 . S
C315 O316 1.232 . S
O316 C315 1.232 . S
C317 O309 1.260 . S
C317 O310 1.257 . S
Zn318 O321 2.031 . S
Zn318 O323 2.049 . S
Zn318 O328 2.067 . S
Zn319 O320 1.962 . S
Zn319 O322 1.986 . S
Zn319 O324 1.996 . S
Zn319 O327 1.943 . S
O320 Zn319 1.962 . S
O320 C325 1.254 . S
O321 Zn318 2.031 . S
O321 C325 1.269 . S
O322 Zn319 1.986 . S
O322 C329 1.262 . S
O323 Zn318 2.049 . S
O323 C331 1.260 . S
O324 Zn319 1.996 . S
O324 C331 1.257 . S
C325 O320 1.254 . S
C325 O321 1.269 . S
C326 O327 1.249 . S
C326 O328 1.270 . S
O327 Zn319 1.943 . S
O327 C326 1.249 . S
O328 Zn318 2.067 . S
O328 C326 1.270 . S
C329 O322 1.262 . S
C329 O330 1.232 . S
O330 C329 1.232 . S
C331 O323 1.260 . S
C331 O324 1.257 . S
Zn332 O335 2.031 . S
Zn332 O337 2.049 . S
Zn332 O342 2.067 . S
Zn333 O334 1.962 . S
Zn333 O336 1.986 . S
Zn333 O338 1.996 . S
Zn333 O341 1.943 . S
O334 Zn333 1.962 . S
O334 C339 1.254 . S
O335 Zn332 2.031 . S
O335 C339 1.269 . S
O336 Zn333 1.986 . S
O336 C343 1.262 . S
O337 Zn332 2.049 . S
O337 C345 1.260 . S
O338 Zn333 1.996 . S
O338 C345 1.257 . S
C339 O334 1.254 . S
C339 O335 1.269 . S
C340 O341 1.249 . S
C340 O342 1.270 . S
O341 Zn333 1.943 . S
O341 C340 1.249 . S
O342 Zn332 2.067 . S
O342 C340 1.270 . S
C343 O336 1.262 . S
C343 O344 1.232 . S
O344 C343 1.232 . S
C345 O337 1.260 . S
C345 O338 1.257 . S
Zn346 O349 2.031 . S
Zn346 O351 2.049 . S
Zn346 O356 2.067 . S
Zn347 O348 1.962 . S
Zn347 O350 1.986 . S
Zn347 O352 1.996 . S
Zn347 O355 1.943 . S
O348 Zn347 1.962 . S
O348 C353 1.254 . S
O349 Zn346 2.031 . S
O349 C353 1.269 . S
O350 Zn347 1.986 . S
O350 C357 1.262 . S
O351 Zn346 2.049 . S
O351 C359 1.260 . S
O352 Zn347 1.996 . S
O352 C359 1.257 . S
C353 O348 1.254 . S
C353 O349 1.269 . S
C354 O355 1.249 . S
C354 O356 1.270 . S
O355 Zn347 1.943 . S
O355 C354 1.249 . S
O356 Zn346 2.067 . S
O356 C354 1.270 . S
C357 O350 1.262 . S
C357 O358 1.232 . S
O358 C357 1.232 . S
C359 O351 1.260 . S
C359 O352 1.257 . S
C360 C361 1.369 . S
C360 C362 1.419 . S
C360 H364 0.930 . S
C361 C360 1.369 . S
C361 C370 1.429 . S
C362 C360 1.419 . S
C362 C363 1.363 . S
C362 H365 0.929 . S
C363 C362 1.363 . S
C363 C369 1.428 . S
H364 C360 0.930 . S
H365 C362 0.929 . S
S366 N367 1.613 . S
S366 N368 1.610 . S
N367 S366 1.613 . S
N367 C370 1.350 . S
N368 S366 1.610 . S
N368 C369 1.351 . S
C369 C363 1.428 . S
C369 N368 1.351 . S
C369 C370 1.434 . S
C370 C361 1.429 . S
C370 N367 1.350 . S
C370 C369 1.434 . S
C371 C372 1.369 . S
C371 C373 1.419 . S
C371 H375 0.930 . S
C372 C371 1.369 . S
C372 C381 1.429 . S
C373 C371 1.419 . S
C373 C374 1.363 . S
C373 H376 0.929 . S
C374 C373 1.363 . S
C374 C380 1.428 . S
H375 C371 0.930 . S
H376 C373 0.929 . S
S377 N378 1.613 . S
S377 N379 1.610 . S
N378 S377 1.613 . S
N378 C381 1.350 . S
N379 S377 1.610 . S
N379 C380 1.351 . S
C380 C374 1.428 . S
C380 N379 1.351 . S
C380 C381 1.434 . S
C381 C372 1.429 . S
C381 N378 1.350 . S
C381 C380 1.434 . S
C382 C383 1.369 . S
C382 C384 1.419 . S
C382 H386 0.930 . S
C383 C382 1.369 . S
C383 C392 1.429 . S
C384 C382 1.419 . S
C384 C385 1.363 . S
C384 H387 0.929 . S
C385 C384 1.363 . S
C385 C391 1.428 . S
H386 C382 0.930 . S
H387 C384 0.929 . S
S388 N389 1.613 . S
S388 N390 1.610 . S
N389 S388 1.613 . S
N389 C392 1.350 . S
N390 S388 1.610 . S
N390 C391 1.351 . S
C391 C385 1.428 . S
C391 N390 1.351 . S
C391 C392 1.434 . S
C392 C383 1.429 . S
C392 N389 1.350 . S
C392 C391 1.434 . S
C393 C394 1.369 . S
C393 C395 1.419 . S
C393 H397 0.930 . S
C394 C393 1.369 . S
C394 C403 1.429 . S
C395 C393 1.419 . S
C395 C396 1.363 . S
C395 H398 0.929 . S
C396 C395 1.363 . S
C396 C402 1.428 . S
H397 C393 0.930 . S
H398 C395 0.929 . S
S399 N400 1.613 . S
S399 N401 1.610 . S
N400 S399 1.613 . S
N400 C403 1.350 . S
N401 S399 1.610 . S
N401 C402 1.351 . S
C402 C396 1.428 . S
C402 N401 1.351 . S
C402 C403 1.434 . S
C403 C394 1.429 . S
C403 N400 1.350 . S
C403 C402 1.434 . S
C404 C405 1.369 . S
C404 C406 1.419 . S
C404 H408 0.930 . S
C405 C404 1.369 . S
C405 C414 1.429 . S
C406 C404 1.419 . S
C406 C407 1.363 . S
C406 H409 0.929 . S
C407 C406 1.363 . S
C407 C413 1.428 . S
H408 C404 0.930 . S
H409 C406 0.929 . S
S410 N411 1.613 . S
S410 N412 1.610 . S
N411 S410 1.613 . S
N411 C414 1.350 . S
N412 S410 1.610 . S
N412 C413 1.351 . S
C413 C407 1.428 . S
C413 N412 1.351 . S
C413 C414 1.434 . S
C414 C405 1.429 . S
C414 N411 1.350 . S
C414 C413 1.434 . S
C415 C416 1.369 . S
C415 C417 1.419 . S
C415 H419 0.930 . S
C416 C415 1.369 . S
C416 C425 1.429 . S
C417 C415 1.419 . S
C417 C418 1.363 . S
C417 H420 0.929 . S
C418 C417 1.363 . S
C418 C424 1.428 . S
H419 C415 0.930 . S
H420 C417 0.929 . S
S421 N422 1.613 . S
S421 N423 1.610 . S
N422 S421 1.613 . S
N422 C425 1.350 . S
N423 S421 1.610 . S
N423 C424 1.351 . S
C424 C418 1.428 . S
C424 N423 1.351 . S
C424 C425 1.434 . S
C425 C416 1.429 . S
C425 N422 1.350 . S
C425 C424 1.434 . S
C426 C427 1.369 . S
C426 C428 1.419 . S
C426 H430 0.930 . S
C427 C426 1.369 . S
C427 C436 1.429 . S
C428 C426 1.419 . S
C428 C429 1.363 . S
C428 H431 0.929 . S
C429 C428 1.363 . S
C429 C435 1.428 . S
H430 C426 0.930 . S
H431 C428 0.929 . S
S432 N433 1.613 . S
S432 N434 1.610 . S
N433 S432 1.613 . S
N433 C436 1.350 . S
N434 S432 1.610 . S
N434 C435 1.351 . S
C435 C429 1.428 . S
C435 N434 1.351 . S
C435 C436 1.434 . S
C436 C427 1.429 . S
C436 N433 1.350 . S
C436 C435 1.434 . S
C437 C438 1.369 . S
C437 C439 1.419 . S
C437 H441 0.930 . S
C438 C437 1.369 . S
C438 C447 1.429 . S
C439 C437 1.419 . S
C439 C440 1.363 . S
C439 H442 0.929 . S
C440 C439 1.363 . S
C440 C446 1.428 . S
H441 C437 0.930 . S
H442 C439 0.929 . S
S443 N444 1.613 . S
S443 N445 1.610 . S
N444 S443 1.613 . S
N444 C447 1.350 . S
N445 S443 1.610 . S
N445 C446 1.351 . S
C446 C440 1.428 . S
C446 N445 1.351 . S
C446 C447 1.434 . S
C447 C438 1.429 . S
C447 N444 1.350 . S
C447 C446 1.434 . S
C448 C449 1.369 . S
C448 C450 1.419 . S
C448 H452 0.930 . S
C449 C448 1.369 . S
C449 C458 1.429 . S
C450 C448 1.419 . S
C450 C451 1.363 . S
C450 H453 0.929 . S
C451 C450 1.363 . S
C451 C457 1.428 . S
H452 C448 0.930 . S
H453 C450 0.929 . S
S454 N455 1.613 . S
S454 N456 1.610 . S
N455 S454 1.613 . S
N455 C458 1.350 . S
N456 S454 1.610 . S
N456 C457 1.351 . S
C457 C451 1.428 . S
C457 N456 1.351 . S
C457 C458 1.434 . S
C458 C449 1.429 . S
C458 N455 1.350 . S
C458 C457 1.434 . S
C459 C460 1.369 . S
C459 C461 1.419 . S
C459 H463 0.930 . S
C460 C459 1.369 . S
C460 C469 1.429 . S
C461 C459 1.419 . S
C461 C462 1.363 . S
C461 H464 0.929 . S
C462 C461 1.363 . S
C462 C468 1.428 . S
H463 C459 0.930 . S
H464 C461 0.929 . S
S465 N466 1.613 . S
S465 N467 1.610 . S
N466 S465 1.613 . S
N466 C469 1.350 . S
N467 S465 1.610 . S
N467 C468 1.351 . S
C468 C462 1.428 . S
C468 N467 1.351 . S
C468 C469 1.434 . S
C469 C460 1.429 . S
C469 N466 1.350 . S
C469 C468 1.434 . S
C470 C471 1.369 . S
C470 C472 1.419 . S
C470 H474 0.930 . S
C471 C470 1.369 . S
C471 C480 1.429 . S
C472 C470 1.419 . S
C472 C473 1.363 . S
C472 H475 0.929 . S
C473 C472 1.363 . S
C473 C479 1.428 . S
H474 C470 0.930 . S
H475 C472 0.929 . S
S476 N477 1.613 . S
S476 N478 1.610 . S
N477 S476 1.613 . S
N477 C480 1.350 . S
N478 S476 1.610 . S
N478 C479 1.351 . S
C479 C473 1.428 . S
C479 N478 1.351 . S
C479 C480 1.434 . S
C480 C471 1.429 . S
C480 N477 1.350 . S
C480 C479 1.434 . S
C481 C482 1.369 . S
C481 C483 1.419 . S
C481 H485 0.930 . S
C482 C481 1.369 . S
C482 C491 1.429 . S
C483 C481 1.419 . S
C483 C484 1.363 . S
C483 H486 0.929 . S
C484 C483 1.363 . S
C484 C490 1.428 . S
H485 C481 0.930 . S
H486 C483 0.929 . S
S487 N488 1.613 . S
S487 N489 1.610 . S
N488 S487 1.613 . S
N488 C491 1.350 . S
N489 S487 1.610 . S
N489 C490 1.351 . S
C490 C484 1.428 . S
C490 N489 1.351 . S
C490 C491 1.434 . S
C491 C482 1.429 . S
C491 N488 1.350 . S
C491 C490 1.434 . S
C492 C493 1.369 . S
C492 C494 1.419 . S
C492 H496 0.930 . S
C493 C492 1.369 . S
C493 C502 1.429 . S
C494 C492 1.419 . S
C494 C495 1.363 . S
C494 H497 0.929 . S
C495 C494 1.363 . S
C495 C501 1.428 . S
H496 C492 0.930 . S
H497 C494 0.929 . S
S498 N499 1.613 . S
S498 N500 1.610 . S
N499 S498 1.613 . S
N499 C502 1.350 . S
N500 S498 1.610 . S
N500 C501 1.351 . S
C501 C495 1.428 . S
C501 N500 1.351 . S
C501 C502 1.434 . S
C502 C493 1.429 . S
C502 N499 1.350 . S
C502 C501 1.434 . S
C503 C504 1.369 . S
C503 C505 1.419 . S
C503 H507 0.930 . S
C504 C503 1.369 . S
C504 C513 1.429 . S
C505 C503 1.419 . S
C505 C506 1.363 . S
C505 H508 0.929 . S
C506 C505 1.363 . S
C506 C512 1.428 . S
H507 C503 0.930 . S
H508 C505 0.929 . S
S509 N510 1.613 . S
S509 N511 1.610 . S
N510 S509 1.613 . S
N510 C513 1.350 . S
N511 S509 1.610 . S
N511 C512 1.351 . S
C512 C506 1.428 . S
C512 N511 1.351 . S
C512 C513 1.434 . S
C513 C504 1.429 . S
C513 N510 1.350 . S
C513 C512 1.434 . S
C514 C515 1.369 . S
C514 C516 1.419 . S
C514 H518 0.930 . S
C515 C514 1.369 . S
C515 C524 1.429 . S
C516 C514 1.419 . S
C516 C517 1.363 . S
C516 H519 0.929 . S
C517 C516 1.363 . S
C517 C523 1.428 . S
H518 C514 0.930 . S
H519 C516 0.929 . S
S520 N521 1.613 . S
S520 N522 1.610 . S
N521 S520 1.613 . S
N521 C524 1.350 . S
N522 S520 1.610 . S
N522 C523 1.351 . S
C523 C517 1.428 . S
C523 N522 1.351 . S
C523 C524 1.434 . S
C524 C515 1.429 . S
C524 N521 1.350 . S
C524 C523 1.434 . S
C525 C526 1.369 . S
C525 C527 1.419 . S
C525 H529 0.930 . S
C526 C525 1.369 . S
C526 C535 1.429 . S
C527 C525 1.419 . S
C527 C528 1.363 1_556 S
C527 H530 0.929 1_556 S
C528 C527 1.363 1_554 S
C528 C534 1.428 1_554 S
H529 C525 0.930 . S
H530 C527 0.929 1_554 S
S531 N532 1.613 . S
S531 N533 1.610 . S
N532 S531 1.613 . S
N532 C535 1.350 . S
N533 S531 1.610 . S
N533 C534 1.351 . S
C534 C528 1.428 1_556 S
C534 N533 1.351 . S
C534 C535 1.434 . S
C535 C526 1.429 . S
C535 N532 1.350 . S
C535 C534 1.434 . S
C536 C537 1.369 . S
C536 C538 1.419 . S
C536 H540 0.930 . S
C537 C536 1.369 . S
C537 C546 1.429 . S
C538 C536 1.419 . S
C538 C539 1.363 . S
C538 H541 0.929 . S
C539 C538 1.363 . S
C539 C545 1.428 . S
H540 C536 0.930 . S
H541 C538 0.929 . S
S542 N543 1.613 . S
S542 N544 1.610 . S
N543 S542 1.613 . S
N543 C546 1.350 . S
N544 S542 1.610 . S
N544 C545 1.351 . S
C545 C539 1.428 . S
C545 N544 1.351 . S
C545 C546 1.434 . S
C546 C537 1.429 . S
C546 N543 1.350 . S
C546 C545 1.434 . S
C547 C548 1.369 . S
C547 C549 1.419 . S
C547 H551 0.930 . S
C548 C547 1.369 . S
C548 C557 1.429 . S
C549 C547 1.419 . S
C549 C550 1.363 . S
C549 H552 0.929 . S
C550 C549 1.363 . S
C550 C556 1.428 . S
H551 C547 0.930 . S
H552 C549 0.929 . S
S553 N554 1.613 . S
S553 N555 1.610 . S
N554 S553 1.613 . S
N554 C557 1.350 . S
N555 S553 1.610 . S
N555 C556 1.351 . S
C556 C550 1.428 . S
C556 N555 1.351 . S
C556 C557 1.434 . S
C557 C548 1.429 . S
C557 N554 1.350 . S
C557 C556 1.434 . S
C558 C559 1.369 . S
C558 C560 1.419 . S
C558 H562 0.930 . S
C559 C558 1.369 . S
C559 C568 1.429 . S
C560 C558 1.419 . S
C560 C561 1.363 . S
C560 H563 0.929 . S
C561 C560 1.363 . S
C561 C567 1.428 . S
H562 C558 0.930 . S
H563 C560 0.929 . S
S564 N565 1.613 . S
S564 N566 1.610 . S
N565 S564 1.613 . S
N565 C568 1.350 . S
N566 S564 1.610 . S
N566 C567 1.351 . S
C567 C561 1.428 . S
C567 N566 1.351 . S
C567 C568 1.434 . S
C568 C559 1.429 . S
C568 N565 1.350 . S
C568 C567 1.434 . S
C569 C570 1.369 . S
C569 C571 1.419 . S
C569 H573 0.930 . S
C570 C569 1.369 . S
C570 C579 1.429 . S
C571 C569 1.419 . S
C571 C572 1.363 . S
C571 H574 0.929 . S
C572 C571 1.363 . S
C572 C578 1.428 . S
H573 C569 0.930 . S
H574 C571 0.929 . S
S575 N576 1.613 . S
S575 N577 1.610 . S
N576 S575 1.613 . S
N576 C579 1.350 . S
N577 S575 1.610 . S
N577 C578 1.351 . S
C578 C572 1.428 . S
C578 N577 1.351 . S
C578 C579 1.434 . S
C579 C570 1.429 . S
C579 N576 1.350 . S
C579 C578 1.434 . S
C580 C581 1.369 . S
C580 C582 1.419 . S
C580 H584 0.930 . S
C581 C580 1.369 . S
C581 C590 1.429 . S
C582 C580 1.419 . S
C582 C583 1.363 . S
C582 H585 0.929 . S
C583 C582 1.363 . S
C583 C589 1.428 . S
H584 C580 0.930 . S
H585 C582 0.929 . S
S586 N587 1.613 . S
S586 N588 1.610 . S
N587 S586 1.613 . S
N587 C590 1.350 . S
N588 S586 1.610 . S
N588 C589 1.351 . S
C589 C583 1.428 . S
C589 N588 1.351 . S
C589 C590 1.434 . S
C590 C581 1.429 . S
C590 N587 1.350 . S
C590 C589 1.434 . S
C591 C592 1.369 . S
C591 C593 1.419 . S
C591 H595 0.930 . S
C592 C591 1.369 . S
C592 C601 1.429 . S
C593 C591 1.419 . S
C593 C594 1.363 . S
C593 H596 0.929 . S
C594 C593 1.363 . S
C594 C600 1.428 . S
H595 C591 0.930 . S
H596 C593 0.929 . S
S597 N598 1.613 . S
S597 N599 1.610 . S
N598 S597 1.613 . S
N598 C601 1.350 . S
N599 S597 1.610 . S
N599 C600 1.351 . S
C600 C594 1.428 . S
C600 N599 1.351 . S
C600 C601 1.434 . S
C601 C592 1.429 . S
C601 N598 1.350 . S
C601 C600 1.434 . S
C602 C603 1.369 . S
C602 C604 1.419 1_554 S
C602 H606 0.930 . S
C603 C602 1.369 . S
C603 C612 1.429 . S
C604 C602 1.419 1_556 S
C604 C605 1.363 . S
C604 H607 0.929 . S
C605 C604 1.363 . S
C605 C611 1.428 1_556 S
H606 C602 0.930 . S
H607 C604 0.929 . S
S608 N609 1.613 . S
S608 N610 1.610 . S
N609 S608 1.613 . S
N609 C612 1.350 . S
N610 S608 1.610 . S
N610 C611 1.351 . S
C611 C605 1.428 1_554 S
C611 N610 1.351 . S
C611 C612 1.434 . S
C612 C603 1.429 . S
C612 N609 1.350 . S
C612 C611 1.434 . S
C613 C614 1.369 . S
C613 C615 1.419 . S
C613 H617 0.930 . S
C614 C613 1.369 . S
C614 C623 1.429 . S
C615 C613 1.419 . S
C615 C616 1.363 . S
C615 H618 0.929 . S
C616 C615 1.363 . S
C616 C622 1.428 . S
H617 C613 0.930 . S
H618 C615 0.929 . S
S619 N620 1.613 . S
S619 N621 1.610 . S
N620 S619 1.613 . S
N620 C623 1.350 . S
N621 S619 1.610 . S
N621 C622 1.351 . S
C622 C616 1.428 . S
C622 N621 1.351 . S
C622 C623 1.434 . S
C623 C614 1.429 . S
C623 N620 1.350 . S
C623 C622 1.434 . S
C363 C353 1.599 . S
C361 C15 1.567 . S
C372 C61 1.498 . S
C374 C287 1.499 . S
C383 C114 1.457 . S
C385 C301 1.456 . S
C394 C139 1.548 . S
C396 C315 1.518 . S
C407 C329 1.576 . S
C405 C185 1.610 . S
C416 C245 1.556 . S
C418 C339 1.600 . S
C427 C47 1.602 . S
C429 C297 1.625 . S
C438 C100 1.674 . S
C440 C311 1.707 . S
C449 C153 1.611 . S
C451 C325 1.661 . S
C462 C343 1.565 . S
C460 C199 1.570 . S
C473 C357 1.545 . S
C471 C231 1.572 . S
C484 C283 1.581 . S
C482 C1 1.561 . S
C493 C22 1.493 . S
C495 C298 1.439 . S
C504 C68 1.560 . S
C506 C312 1.499 . S
C517 C326 1.507 . S
C515 C107 1.559 . S
C526 C146 1.480 . S
C528 C345 1.437 . S
C539 C359 1.400 . S
C537 C192 1.459 . S
C550 C284 1.410 . S
C548 C252 1.473 . S
C561 C354 1.417 . S
C559 C54 1.482 . S
C570 C93 1.398 . S
C572 C289 1.357 . S
C583 C303 1.367 . S
C581 C160 1.398 . S
C592 C206 1.461 . S
C594 C317 1.414 . S
C603 C238 1.486 . S
C605 C331 1.440 . S
C614 C8 1.513 . S
C616 C340 1.440 . S
