# Generated by pormake.
# Topology tsx, (6,3)-cn, num edge types: 1
# Building blocks:
#     Node 0, Type 0, BuildingBlock: JUFBIX_clean_sbu_0, # of connection points: 6
#     Node 1, Type 0, BuildingBlock: JUFBIX_clean_sbu_0, # of connection points: 6
#     Node 2, Type 1, BuildingBlock: BETDIP_clean_linker_0, # of connection points: 3
#     Node 3, Type 1, BuildingBlock: BETDIP_clean_linker_0, # of connection points: 3
#     Node 4, Type 1, BuildingBlock: BETDIP_clean_linker_0, # of connection points: 3
#     Node 5, Type 1, BuildingBlock: BETDIP_clean_linker_0, # of connection points: 3
#     Edge 6, Type (0, 1), BuildingBlock: TEMPAE_clean_linker_10, # of connection points: 2
#     Edge 7, Type (0, 1), BuildingBlock: TEMPAE_clean_linker_10, # of connection points: 2
#     Edge 8, Type (0, 1), BuildingBlock: TEMPAE_clean_linker_10, # of connection points: 2
#     Edge 9, Type (0, 1), BuildingBlock: TEMPAE_clean_linker_10, # of connection points: 2
#     Edge 10, Type (0, 1), BuildingBlock: TEMPAE_clean_linker_10, # of connection points: 2
#     Edge 11, Type (0, 1), BuildingBlock: TEMPAE_clean_linker_10, # of connection points: 2
#     Edge 12, Type (0, 1), BuildingBlock: TEMPAE_clean_linker_10, # of connection points: 2
#     Edge 13, Type (0, 1), BuildingBlock: TEMPAE_clean_linker_10, # of connection points: 2
#     Edge 14, Type (0, 1), BuildingBlock: TEMPAE_clean_linker_10, # of connection points: 2
#     Edge 15, Type (0, 1), BuildingBlock: TEMPAE_clean_linker_10, # of connection points: 2
#     Edge 16, Type (0, 1), BuildingBlock: TEMPAE_clean_linker_10, # of connection points: 2
#     Edge 17, Type (0, 1), BuildingBlock: TEMPAE_clean_linker_10, # of connection points: 2
# Relax obj value: 0.106
# Max RMSD: 0.132
# Mean RMSD: 0.118
data_MOF--net-tsx--node1-JUFBIX_clean_sbu_0--node2-BETDIP_clean_linker_0--edge1-TEMPAE_clean_linker_10
_symmetry_space_group_name_H-M    P1
_symmetry_Int_Tables_number       1
_symmetry_cell_setting            triclinic
loop_
_symmetry_equiv_pos_as_xyz
'x, y, z'
_cell_length_a     20.538144
_cell_length_b     24.150292
_cell_length_c     33.205607
_cell_angle_alpha  91.688287
_cell_angle_beta   99.512965
_cell_angle_gamma 99.143096
loop_
_atom_site_label
_atom_site_type_symbol
_atom_site_fract_x
_atom_site_fract_y
_atom_site_fract_z
_atom_type_partial_charge
Co0 Co 0.07178 0.98307 -0.00557 0.0
C1 C 0.99483 0.01374 0.92316 0.0
Co2 Co 0.99297 0.03269 0.00377 0.0
C3 C 0.15857 0.89765 -0.0033 0.0
C4 C 0.18469 0.96547 0.95908 0.0
N5 N 0.13979 0.94591 0.9829 0.0
N6 N 0.21399 0.8874 0.98287 0.0
C7 C 0.23053 0.92985 0.95926 0.0
H8 H 0.1331 0.87126 0.01704 0.0
H9 H 0.18448 1.00361 0.94281 0.0
C10 C 0.07144 1.00415 0.07508 0.0
N11 N 0.92619 0.07016 0.01632 0.0
C12 C 0.90847 0.1188 0.00291 0.0
C13 C 0.88829 0.05559 0.04511 0.0
N14 N 0.86172 0.13533 0.02266 0.0
C15 C 0.84885 0.09562 0.04917 0.0
C16 C 0.95236 0.91577 -0.00189 0.0
O17 O 0.10089 0.97881 0.05129 0.0
O18 O 0.02396 0.0293 0.06028 0.0
O19 O 0.93481 0.96331 0.00292 0.0
O20 O 0.01229 0.91341 -0.00624 0.0
O21 O 0.96333 0.03643 0.94722 0.0
H22 H 0.8905 0.01884 0.06283 0.0
H23 H 0.93118 0.14265 0.98024 0.0
O24 O 0.04225 0.98809 0.9377 0.0
O25 O 0.13018 0.05344 -0.00471 0.0
O26 O 0.05124 0.10159 0.00417 0.0
C27 C 0.11104 0.10052 -0.00069 0.0
H28 H 0.27254 0.93435 0.94306 0.0
H29 H 0.81362 0.09569 0.07008 0.0
Co30 Co 0.57234 0.47186 0.49968 0.0
C31 C 0.49232 0.50516 0.42973 0.0
Co32 Co 0.49493 0.5225 0.5105 0.0
C33 C 0.65936 0.38575 0.49783 0.0
C34 C 0.67166 0.4489 0.45447 0.0
N35 N 0.63739 0.43328 0.48478 0.0
N36 N 0.70491 0.37111 0.47613 0.0
C37 C 0.7126 0.41075 0.44894 0.0
H38 H 0.64113 0.36166 0.52186 0.0
H39 H 0.66663 0.48557 0.43705 0.0
C40 C 0.57709 0.49212 0.58045 0.0
N41 N 0.4309 0.56175 0.52536 0.0
C42 C 0.40812 0.60724 0.50928 0.0
C43 C 0.39798 0.55027 0.55683 0.0
N44 N 0.36228 0.62469 0.52958 0.0
C45 C 0.35611 0.58872 0.55956 0.0
C46 C 0.45239 0.40622 0.50553 0.0
O47 O 0.60332 0.46467 0.55599 0.0
O48 O 0.53118 0.51948 0.56645 0.0
O49 O 0.43632 0.45384 0.51235 0.0
O50 O 0.51061 0.4032 0.49812 0.0
O51 O 0.46023 0.52589 0.45435 0.0
H52 H 0.40451 0.51629 0.57683 0.0
H53 H 0.42466 0.62674 0.483 0.0
O54 O 0.54057 0.48016 0.44361 0.0
O55 O 0.63309 0.54119 0.50147 0.0
O56 O 0.55385 0.59046 0.50839 0.0
C57 C 0.61382 0.58841 0.50437 0.0
H58 H 0.74573 0.41197 0.42665 0.0
H59 H 0.3245 0.59041 0.58245 0.0
H60 H 0.0799 0.96961 0.49046 0.0
H61 H 0.04441 0.05867 0.38054 0.0
H62 H 0.15377 0.92162 0.3825 0.0
H63 H 0.06593 0.13374 0.43494 0.0
C64 C 0.02656 0.11273 0.45008 0.0
C65 C 0.08629 0.97587 0.45908 0.0
C66 C 0.11995 0.93992 0.43897 0.0
C67 C 0.06033 0.01977 0.43842 0.0
C68 C 0.06668 0.02656 0.39731 0.0
C69 C 0.10034 0.99119 0.37733 0.0
C70 C 0.1277 0.94877 0.39832 0.0
N71 N 0.02522 0.0552 0.45849 0.0
H72 H 0.96074 0.9837 0.50758 0.0
H73 H 0.01801 0.08066 0.62206 0.0
H74 H 0.84814 0.94787 0.60461 0.0
H75 H 0.02694 0.15221 0.56969 0.0
C76 C 0.06124 0.13092 0.55575 0.0
C77 C 0.95196 0.99309 0.53811 0.0
C78 C 0.89872 0.96098 0.55302 0.0
C79 C 0.99269 0.03828 0.5623 0.0
C80 C 0.98314 0.04858 0.60258 0.0
C81 C 0.93194 0.01532 0.61848 0.0
C82 C 0.88847 0.97325 0.59283 0.0
N83 N 0.04469 0.07201 0.54649 0.0
H84 H 0.59348 0.49503 -0.00119 0.0
H85 H 0.53905 0.55374 0.87841 0.0
H86 H 0.67422 0.43524 0.8974 0.0
H87 H 0.5389 0.63343 0.91569 0.0
C88 C 0.51184 0.61758 0.93958 0.0
C89 C 0.59745 0.49538 0.96671 0.0
C90 C 0.63787 0.46136 0.95097 0.0
C91 C 0.56343 0.53069 0.94107 0.0
C92 C 0.56754 0.52911 0.89913 0.0
C93 C 0.60801 0.49531 0.88343 0.0
C94 C 0.64389 0.46232 0.90961 0.0
N95 N 0.52485 0.56687 0.95763 0.0
H96 H 0.48255 0.48654 0.01596 0.0
H97 H 0.5309 0.58345 0.13113 0.0
H98 H 0.37282 0.44146 0.11262 0.0
H99 H 0.56575 0.65284 0.09426 0.0
C100 C 0.58757 0.63357 0.07092 0.0
C101 C 0.47273 0.49504 0.04637 0.0
C102 C 0.425 0.45777 0.06223 0.0
C103 C 0.50939 0.54224 0.0704 0.0
C104 C 0.49892 0.5506 0.11096 0.0
C105 C 0.45004 0.51417 0.12665 0.0
C106 C 0.41164 0.46941 0.10128 0.0
N107 N 0.55923 0.57844 0.05413 0.0
C108 C 0.14646 0.20304 0.01717 0.0
C109 C 0.15814 0.15341 -0.00114 0.0
C110 C 0.19312 0.25268 0.01984 0.0
C111 C 0.25216 0.253 0.0029 0.0
C112 C 0.26218 0.20388 0.98211 0.0
C113 C 0.21544 0.15434 0.98084 0.0
C114 C 0.18101 0.30389 0.04291 0.0
C115 C 0.32346 0.20302 0.96265 0.0
C116 C 0.34985 0.40043 0.0032 0.0
C117 C 0.39243 0.40332 0.041 0.0
C118 C 0.30709 0.34994 0.98832 0.0
C119 C 0.30682 0.30222 0.01225 0.0
C120 C 0.35401 0.30409 0.0487 0.0
C121 C 0.39665 0.35447 0.06234 0.0
C122 C 0.25907 0.34889 0.94858 0.0
C123 C 0.35549 0.25448 0.07535 0.0
H124 H 0.1021 0.20252 0.031 0.0
H125 H 0.22406 0.11622 0.966 0.0
H126 H 0.21967 0.3138 0.07086 0.0
H127 H 0.18533 0.34085 0.0239 0.0
H128 H 0.13089 0.2977 0.05214 0.0
H129 H 0.31814 0.16515 0.94179 0.0
H130 H 0.33339 0.24104 0.9452 0.0
H131 H 0.36782 0.20324 0.9868 0.0
H132 H 0.34694 0.43825 0.98665 0.0
H133 H 0.43047 0.35678 0.09136 0.0
H134 H 0.20855 0.35224 0.95513 0.0
H135 H 0.25495 0.30874 0.93048 0.0
H136 H 0.27478 0.38433 0.92983 0.0
H137 H 0.30866 0.24655 0.08837 0.0
H138 H 0.39864 0.26153 0.10101 0.0
H139 H 0.35811 0.21602 0.05705 0.0
C140 C 0.31698 0.85093 0.00747 0.0
C141 C 0.24907 0.84088 0.99007 0.0
C142 C 0.35653 0.80878 0.00644 0.0
C143 C 0.3277 0.75591 0.98628 0.0
C144 C 0.25786 0.74441 0.97124 0.0
C145 C 0.21916 0.78712 0.97364 0.0
C146 C 0.43034 0.82254 0.02373 0.0
C147 C 0.22521 0.689 0.94906 0.0
C148 C 0.44475 0.69372 0.92763 0.0
C149 C 0.46275 0.65045 0.95197 0.0
C150 C 0.39933 0.72695 0.93797 0.0
C151 C 0.37231 0.71764 0.97426 0.0
C152 C 0.39018 0.67377 -0.00095 0.0
C153 C 0.4346 0.64005 0.98725 0.0
C154 C 0.38098 0.77259 0.91019 0.0
C155 C 0.36372 0.66331 0.03839 0.0
H156 H 0.33969 0.89279 0.02006 0.0
H157 H 0.16668 0.77994 0.95981 0.0
H158 H 0.44745 0.78707 0.04063 0.0
H159 H 0.45913 0.82965 -0.00167 0.0
H160 H 0.44235 0.86095 0.0446 0.0
H161 H 0.16974 0.68321 0.94535 0.0
H162 H 0.23926 0.68738 0.91823 0.0
H163 H 0.24289 0.65344 0.96553 0.0
H164 H 0.46621 0.70153 0.90019 0.0
H165 H 0.448 0.60634 0.00595 0.0
H166 H 0.39878 0.81435 0.92654 0.0
H167 H 0.32577 0.76789 0.90141 0.0
H168 H 0.40311 0.77193 0.88186 0.0
H169 H 0.38043 0.70098 0.05976 0.0
H170 H 0.38107 0.62661 0.05363 0.0
H171 H 0.3082 0.65604 0.03241 0.0
C172 C 0.83517 0.86514 0.98537 0.0
C173 C 0.90317 0.86452 -0.00038 0.0
C174 C 0.78592 0.82085 -0.00786 0.0
C175 C 0.80505 0.77553 0.01476 0.0
C176 C 0.87396 0.77314 0.02722 0.0
C177 C 0.92242 0.81754 0.01907 0.0
C178 C 0.71318 0.82449 0.97742 0.0
C179 C 0.89639 0.72599 0.05189 0.0
C180 C 0.67734 0.71671 0.07932 0.0
C181 C 0.64562 0.667 0.05694 0.0
C182 C 0.7312 0.75093 0.06677 0.0
C183 C 0.75291 0.73576 0.03026 0.0
C184 C 0.72165 0.68504 0.00775 0.0
C185 C 0.66882 0.65081 0.02172 0.0
C186 C 0.76378 0.80411 0.09214 0.0
C187 C 0.74233 0.6679 0.96828 0.0
H188 H 0.8203 0.90126 0.96992 0.0
H189 H 0.97503 0.8172 0.03027 0.0
H190 H 0.68573 0.78369 0.96271 0.0
H191 H 0.68949 0.83422 0.00391 0.0
H192 H 0.70711 0.85767 0.95528 0.0
H193 H 0.95095 0.72588 0.05411 0.0
H194 H 0.88528 0.73074 0.08328 0.0
H195 H 0.86868 0.68472 0.03828 0.0
H196 H 0.65977 0.729 0.10678 0.0
H197 H 0.64489 0.61215 0.00458 0.0
H198 H 0.75423 0.84124 0.0746 0.0
H199 H 0.81882 0.80586 0.0992 0.0
H200 H 0.74463 0.8074 0.12137 0.0
H201 H 0.73059 0.69856 0.94503 0.0
H202 H 0.71629 0.62538 0.956 0.0
H203 H 0.79715 0.66843 0.97285 0.0
C204 C 0.81883 0.2145 0.0517 0.0
C205 C 0.83268 0.18561 0.01766 0.0
C206 C 0.78872 0.26273 0.04722 0.0
C207 C 0.77091 0.28175 0.00766 0.0
C208 C 0.78512 0.25282 0.9732 0.0
C209 C 0.81652 0.2054 0.97871 0.0
C210 C 0.77588 0.29324 0.08472 0.0
C211 C 0.76604 0.27133 0.93041 0.0
C212 C 0.63356 0.36924 0.98194 0.0
C213 C 0.67087 0.42106 0.97589 0.0
C214 C 0.66562 0.324 -0.00535 0.0
C215 C 0.73651 0.33138 0.00182 0.0
C216 C 0.77418 0.38516 -0.00104 0.0
C217 C 0.74078 0.42931 0.98545 0.0
C218 C 0.62361 0.26729 -0.00301 0.0
C219 C 0.84974 0.39508 0.00725 0.0
H220 H 0.83223 0.19957 0.08191 0.0
H221 H 0.82677 0.18274 0.95244 0.0
H222 H 0.80021 0.33788 0.08626 0.0
H223 H 0.72139 0.29285 0.08286 0.0
H224 H 0.79489 0.27413 0.11342 0.0
H225 H 0.77991 0.24384 0.9069 0.0
H226 H 0.71124 0.27106 0.92346 0.0
H227 H 0.79111 0.31501 0.92801 0.0
H228 H 0.57944 0.36295 0.97375 0.0
H229 H 0.7693 0.46943 0.98017 0.0
H230 H 0.64093 0.24801 0.02587 0.0
H231 H 0.6291 0.23878 0.97138 0.0
H232 H 0.56968 0.26999 -0.00497 0.0
H233 H 0.86869 0.37588 0.03588 0.0
H234 H 0.87104 0.44056 0.00982 0.0
H235 H 0.86835 0.37492 0.98194 0.0
C236 C 0.70407 0.66286 0.53917 0.0
C237 C 0.66068 0.64062 0.5035 0.0
C238 C 0.74499 0.71536 0.53995 0.0
C239 C 0.74276 0.74572 0.50393 0.0
C240 C 0.70086 0.72195 0.46729 0.0
C241 C 0.65957 0.66972 0.46764 0.0
C242 C 0.7884 0.7394 0.57978 0.0
C243 C 0.69797 0.75245 0.42818 0.0
C244 C 0.78719 0.90199 0.52912 0.0
C245 C 0.85644 0.91114 0.52957 0.0
C246 C 0.74844 0.84899 0.51792 0.0
C247 C 0.77961 0.80429 0.5062 0.0
C248 C 0.84811 0.81488 0.50232 0.0
C249 C 0.88597 0.86833 0.51427 0.0
C250 C 0.67556 0.83973 0.5224 0.0
C251 C 0.88273 0.76872 0.48884 0.0
H252 H 0.70431 0.63995 0.5668 0.0
H253 H 0.62571 0.65194 0.44009 0.0
H254 H 0.8412 0.75093 0.57553 0.0
H255 H 0.77181 0.77832 0.58982 0.0
H256 H 0.78639 0.70946 0.60449 0.0
H257 H 0.67016 0.7251 0.40133 0.0
H258 H 0.67273 0.78938 0.4309 0.0
H259 H 0.74924 0.76829 0.42256 0.0
H260 H 0.76415 0.93543 0.54033 0.0
H261 H 0.93951 0.87527 0.51453 0.0
H262 H 0.66873 0.8137 0.54886 0.0
H263 H 0.64392 0.81663 0.49484 0.0
H264 H 0.65733 0.87987 0.52744 0.0
H265 H 0.89229 0.74087 0.51438 0.0
H266 H 0.93142 0.78576 0.47982 0.0
H267 H 0.85065 0.74258 0.46273 0.0
C268 C 0.77682 0.31252 0.51644 0.0
C269 C 0.73872 0.32324 0.47933 0.0
C270 C 0.82101 0.27324 0.5177 0.0
C271 C 0.82623 0.24382 0.48105 0.0
C272 C 0.78383 0.25167 0.44419 0.0
C273 C 0.74116 0.29161 0.44377 0.0
C274 C 0.8653 0.26612 0.55758 0.0
C275 C 0.78665 0.22062 0.40453 0.0
C276 C 0.98932 0.20411 0.46029 0.0
C277 C 0.97766 0.14574 0.46267 0.0
C278 C 0.94217 0.23685 0.4689 0.0
C279 C 0.88113 0.21043 0.47954 0.0
C280 C 0.87042 0.1516 0.48386 0.0
C281 C 0.91891 0.11987 0.47532 0.0
C282 C 0.95649 0.2995 0.46465 0.0
C283 C 0.80642 0.12169 0.49534 0.0
H284 H 0.77519 0.33742 0.54383 0.0
H285 H 0.71128 0.2999 0.41519 0.0
H286 H 0.86638 0.22098 0.56238 0.0
H287 H 0.91734 0.28654 0.55662 0.0
H288 H 0.8485 0.28523 0.58409 0.0
H289 H 0.74549 0.22685 0.3797 0.0
H290 H 0.8351 0.23573 0.3946 0.0
H291 H 0.78371 0.17497 0.40882 0.0
H292 H 0.03513 0.22419 0.45096 0.0
H293 H 0.90963 0.07467 0.47718 0.0
H294 H 0.94696 0.32236 0.49198 0.0
H295 H 0.92249 0.31088 0.43773 0.0
H296 H 1.00901 0.31414 0.46066 0.0
H297 H 0.79189 0.14543 0.52061 0.0
H298 H 0.81093 0.07849 0.50477 0.0
H299 H 0.76539 0.11874 0.46865 0.0
C300 C 0.35958 0.33033 0.4743 0.0
C301 C 0.40414 0.35545 0.50885 0.0
C302 C 0.3054 0.28837 0.47827 0.0
C303 C 0.29591 0.27163 0.51775 0.0
C304 C 0.34299 0.29532 0.5525 0.0
C305 C 0.39632 0.3373 0.54761 0.0
C306 C 0.25618 0.2645 0.44054 0.0
C307 C 0.335 0.2786 0.59509 0.0
C308 C 0.12197 0.22332 0.5413 0.0
C309 C 0.11963 0.16523 0.5428 0.0
C310 C 0.17774 0.25796 0.53115 0.0
C311 C 0.23347 0.23405 0.52344 0.0
C312 C 0.23067 0.17504 0.52393 0.0
C313 C 0.17333 0.14115 0.53324 0.0
C314 C 0.17763 0.3204 0.52982 0.0
C315 C 0.28914 0.14798 0.5162 0.0
H316 H 0.36539 0.3453 0.44442 0.0
H317 H 0.43057 0.35756 0.57427 0.0
H318 H 0.24568 0.21798 0.44029 0.0
H319 H 0.20803 0.27976 0.44074 0.0
H320 H 0.27467 0.27691 0.41196 0.0
H321 H 0.37935 0.29661 0.61829 0.0
H322 H 0.29035 0.29349 0.60349 0.0
H323 H 0.3268 0.23219 0.59626 0.0
H324 H 0.07998 0.24177 0.54823 0.0
H325 H 0.17151 0.09612 0.53431 0.0
H326 H 0.19121 0.33579 0.50067 0.0
H327 H 0.21571 0.34291 0.55506 0.0
H328 H 0.12811 0.33152 0.53281 0.0
H329 H 0.30544 0.16204 0.48741 0.0
H330 H 0.27697 0.10137 0.51424 0.0
H331 H 0.33215 0.16125 0.54137 0.0
C332 C 0.26621 0.67315 0.53527 0.0
C333 C 0.32682 0.67142 0.52118 0.0
C334 C 0.2305 0.71763 0.52677 0.0
C335 C 0.25533 0.76127 0.5031 0.0
C336 C 0.31691 0.76045 0.48934 0.0
C337 C 0.35199 0.71575 0.49869 0.0
C338 C 0.16518 0.71707 0.54214 0.0
C339 C 0.34492 0.80611 0.4638 0.0
C340 C 0.13495 0.83957 0.4378 0.0
C341 C 0.14678 0.89223 0.45907 0.0
C342 C 0.16839 0.79612 0.45253 0.0
C343 C 0.21445 0.80526 0.48974 0.0
C344 C 0.22362 0.85722 0.51268 0.0
C345 C 0.18959 0.90027 0.49701 0.0
C346 C 0.15674 0.74133 0.42719 0.0
C347 C 0.27156 0.86819 0.55278 0.0
H348 H 0.24554 0.63906 0.55222 0.0
H349 H 0.39918 0.71564 0.48825 0.0
H350 H 0.16482 0.75797 0.55815 0.0
H351 H 0.12312 0.71094 0.51589 0.0
H352 H 0.15593 0.6831 0.56336 0.0
H353 H 0.39491 0.80081 0.45714 0.0
H354 H 0.31024 0.8059 0.43436 0.0
H355 H 0.3493 0.84789 0.47975 0.0
H356 H 0.10099 0.833 0.40875 0.0
H357 H 0.19892 0.94099 0.51345 0.0
H358 H 0.14286 0.70554 0.44599 0.0
H359 H 0.20363 0.73524 0.41646 0.0
H360 H 0.11664 0.73995 0.40008 0.0
H361 H 0.26175 0.83339 0.57318 0.0
H362 H 0.2679 0.90832 0.56882 0.0
H363 H 0.32362 0.87006 0.54718 0.0
C364 C 0.10577 0.95605 0.13855 0.0
C365 C 0.09054 1.0045 0.11965 0.0
C366 C 0.11396 0.95398 0.18127 0.0
C367 C 0.10852 1.00206 0.20522 0.0
C368 C 0.09769 0.05222 0.1862 0.0
C369 C 0.08776 0.05254 0.14352 0.0
C370 C 0.12409 0.89943 0.20048 0.0
C371 C 0.09337 0.10477 0.21075 0.0
C372 C 0.04368 0.98445 0.30506 0.0
C373 C 0.10302 0.99564 0.33356 0.0
C374 C 0.04509 0.98509 0.26308 0.0
C375 C 0.10732 0.99857 0.24957 0.0
C376 C 0.16744 0.01051 0.2784 0.0
C377 C 0.16461 0.00815 0.32025 0.0
C378 C 0.98001 0.97115 0.23321 0.0
C379 C 0.23441 0.02641 0.26506 0.0
H380 H 0.10743 0.91887 0.11986 0.0
H381 H 0.07658 0.09018 0.12869 0.0
H382 H 0.16682 0.90658 0.2263 0.0
H383 H 0.07882 0.882 0.2131 0.0
H384 H 0.13332 0.86766 0.17813 0.0
H385 H 0.0932 0.14192 0.1918 0.0
H386 H 0.04674 0.09841 0.224 0.0
H387 H 0.13607 0.11393 0.23656 0.0
H388 H 0.99629 0.97406 0.3157 0.0
H389 H 0.21033 0.01659 0.34264 0.0
H390 H 0.98265 0.93637 0.21124 0.0
H391 H 0.97129 0.00808 0.21524 0.0
H392 H 0.93643 0.95864 0.24874 0.0
H393 H 0.24329 0.99254 0.24437 0.0
H394 H 0.27644 0.03425 0.29139 0.0
H395 H 0.23457 0.06486 0.24757 0.0
C396 C 0.91671 0.0301 0.86008 0.0
C397 C 0.97945 0.01933 0.87873 0.0
C398 C 0.90195 0.03408 0.81755 0.0
C399 C 0.95168 0.02826 0.79358 0.0
C400 C 0.01584 0.01943 0.81256 0.0
C401 C 0.02869 0.01448 0.85486 0.0
C402 C 0.83267 0.04252 0.79815 0.0
C403 C 0.07059 0.0139 0.78811 0.0
C404 C 0.9133 0.97156 0.68384 0.0
C405 C 0.92811 0.02028 0.66275 0.0
C406 C 0.91598 0.97426 0.7262 0.0
C407 C 0.93593 0.02676 0.74834 0.0
C408 C 0.94844 0.07643 0.72732 0.0
C409 C 0.94377 0.07265 0.68464 0.0
C410 C 0.90141 0.92035 0.74749 0.0
C411 C 0.97055 0.13311 0.75006 0.0
H412 H 0.87866 0.03397 0.87859 0.0
H413 H 0.07766 0.00709 0.86931 0.0
H414 H 0.83565 0.07817 0.77786 0.0
H415 H 0.80723 1.00446 0.77882 0.0
H416 H 0.80145 0.05064 0.82129 0.0
H417 H 0.11917 0.01165 0.80794 0.0
H418 H 0.05608 0.97531 0.76754 0.0
H419 H 0.0777 0.05012 0.76857 0.0
H420 H 0.90254 0.93068 0.66762 0.0
H421 H 0.95414 0.1106 0.66857 0.0
H422 H 0.8677 0.92507 0.76981 0.0
H423 H 0.94874 0.91034 0.76476 0.0
H424 H 0.8779 0.88429 0.72557 0.0
H425 H 0.93749 0.13925 0.77248 0.0
H426 H 0.97065 0.16812 0.72909 0.0
H427 H 0.02197 0.13528 0.7675 0.0
C428 C 0.61118 0.44358 0.64394 0.0
C429 C 0.59778 0.49249 0.62496 0.0
C430 C 0.6199 0.44187 0.68673 0.0
C431 C 0.6165 0.49059 0.71064 0.0
C432 C 0.60761 0.54107 0.69152 0.0
C433 C 0.5975 0.54117 0.64884 0.0
C434 C 0.62838 0.38712 0.70608 0.0
C435 C 0.6052 0.59425 0.71596 0.0
C436 C 0.55153 0.47973 0.81078 0.0
C437 C 0.6108 0.49258 0.8393 0.0
C438 C 0.55306 0.47672 0.76877 0.0
C439 C 0.61537 0.48789 0.75509 0.0
C440 C 0.67552 0.5003 0.78385 0.0
C441 C 0.67252 0.50202 0.82577 0.0
C442 C 0.48788 0.46257 0.73902 0.0
C443 C 0.74267 0.51344 0.77033 0.0
H444 H 0.61091 0.40589 0.62529 0.0
H445 H 0.58774 0.57916 0.634 0.0
H446 H 0.67054 0.39374 0.73225 0.0
H447 H 0.5824 0.37035 0.7182 0.0
H448 H 0.63751 0.35508 0.6839 0.0
H449 H 0.60576 0.63127 0.69686 0.0
H450 H 0.55888 0.58904 0.72953 0.0
H451 H 0.64832 0.60291 0.74152 0.0
H452 H 0.50394 0.47164 0.82143 0.0
H453 H 0.7183 0.51201 0.84802 0.0
H454 H 0.49002 0.4272 0.71744 0.0
H455 H 0.47952 0.49921 0.72063 0.0
H456 H 0.44431 0.45091 0.75472 0.0
H457 H 0.7491 0.47938 0.74893 0.0
H458 H 0.78491 0.51896 0.79654 0.0
H459 H 0.74526 0.55261 0.7536 0.0
C460 C 0.41519 0.52078 0.36575 0.0
C461 C 0.47882 0.51395 0.38566 0.0
C462 C 0.40289 0.52674 0.32329 0.0
C463 C 0.45592 0.52701 0.30085 0.0
C464 C 0.52094 0.52308 0.32138 0.0
C465 C 0.53137 0.51602 0.36341 0.0
C466 C 0.33279 0.5301 0.30225 0.0
C467 C 0.57918 0.52413 0.29873 0.0
C468 C 0.43274 0.4695 0.19191 0.0
C469 C 0.44373 0.51858 0.17061 0.0
C470 C 0.43123 0.47199 0.23383 0.0
C471 C 0.44313 0.52487 0.25551 0.0
C472 C 0.45203 0.57472 0.23423 0.0
C473 C 0.45178 0.57099 0.19188 0.0
C474 C 0.42109 0.41777 0.25533 0.0
C475 C 0.46555 0.63185 0.25649 0.0
H476 H 0.37468 0.51959 0.38308 0.0
H477 H 0.58104 0.51207 0.37891 0.0
H478 H 0.33327 0.56512 0.28137 0.0
H479 H 0.31171 0.49071 0.28332 0.0
H480 H 0.29914 0.53608 0.32443 0.0
H481 H 0.62763 0.52624 0.31982 0.0
H482 H 0.5712 0.48567 0.27822 0.0
H483 H 0.58278 0.56073 0.27932 0.0
H484 H 0.42806 0.4287 0.17625 0.0
H485 H 0.45932 0.60912 0.17563 0.0
H486 H 0.38412 0.41913 0.27606 0.0
H487 H 0.46905 0.412 0.27433 0.0
H488 H 0.4035 0.38066 0.23343 0.0
H489 H 0.42973 0.6344 0.27781 0.0
H490 H 0.46222 0.66619 0.23508 0.0
H491 H 0.51657 0.63875 0.27507 0.0
loop_
_geom_bond_atom_site_label_1
_geom_bond_atom_site_label_2
_geom_bond_distance
_geom_bond_site_symmetry_2
_ccdc_geom_bond_type
Co0 N5 2.057 . S
Co0 O17 2.021 . S
Co0 O20 2.062 1_455 S
Co0 O24 2.117 1_554 S
Co0 O25 2.020 1_565 S
C1 O21 1.259 1_455 S
C1 O24 1.258 1_545 S
Co2 N11 2.057 . S
Co2 O18 2.117 1_655 S
Co2 O19 2.020 1_545 S
Co2 O21 2.021 1_554 S
Co2 O26 2.062 1_655 S
C3 N5 1.316 . S
C3 N6 1.347 . S
C3 H8 0.931 . S
C4 N5 1.375 1_556 S
C4 C7 1.350 . S
C4 H9 0.930 . S
N5 Co0 2.057 . S
N5 C3 1.316 . S
N5 C4 1.375 1_554 S
N6 C3 1.347 . S
N6 C7 1.373 1_554 S
C7 C4 1.350 . S
C7 N6 1.373 1_556 S
C7 H28 0.931 . S
H8 C3 0.931 . S
H9 C4 0.930 . S
C10 O17 1.259 1_545 S
C10 O18 1.258 . S
N11 Co2 2.057 . S
N11 C12 1.316 1_554 S
N11 C13 1.375 . S
C12 N11 1.316 1_556 S
C12 N14 1.347 1_556 S
C12 H23 0.931 . S
C13 N11 1.375 . S
C13 C15 1.350 . S
C13 H22 0.930 . S
N14 C12 1.347 1_554 S
N14 C15 1.373 . S
C15 C13 1.350 . S
C15 N14 1.373 . S
C15 H29 0.931 . S
C16 O19 1.256 . S
C16 O20 1.255 . S
O17 Co0 2.021 . S
O17 C10 1.259 1_565 S
O18 Co2 2.117 1_455 S
O18 C10 1.258 . S
O19 Co2 2.020 1_565 S
O19 C16 1.256 . S
O20 Co0 2.062 1_655 S
O20 C16 1.255 . S
O21 C1 1.259 1_655 S
O21 Co2 2.021 1_556 S
H22 C13 0.930 . S
H23 C12 0.931 . S
O24 Co0 2.117 1_556 S
O24 C1 1.258 1_565 S
O25 Co0 2.020 1_545 S
O25 C27 1.256 . S
O26 Co2 2.062 1_455 S
O26 C27 1.255 . S
C27 O25 1.256 . S
C27 O26 1.255 . S
H28 C7 0.931 . S
H29 C15 0.931 . S
Co30 N35 2.057 . S
Co30 O47 2.021 . S
Co30 O50 2.062 . S
Co30 O54 2.117 . S
Co30 O55 2.020 . S
C31 O51 1.259 . S
C31 O54 1.258 . S
Co32 N41 2.057 . S
Co32 O48 2.117 . S
Co32 O49 2.020 . S
Co32 O51 2.021 . S
Co32 O56 2.062 . S
C33 N35 1.316 . S
C33 N36 1.347 . S
C33 H38 0.931 . S
C34 N35 1.375 . S
C34 C37 1.350 . S
C34 H39 0.930 . S
N35 Co30 2.057 . S
N35 C33 1.316 . S
N35 C34 1.375 . S
N36 C33 1.347 . S
N36 C37 1.373 . S
C37 C34 1.350 . S
C37 N36 1.373 . S
C37 H58 0.931 . S
H38 C33 0.931 . S
H39 C34 0.930 . S
C40 O47 1.259 . S
C40 O48 1.258 . S
N41 Co32 2.057 . S
N41 C42 1.316 . S
N41 C43 1.375 . S
C42 N41 1.316 . S
C42 N44 1.347 . S
C42 H53 0.931 . S
C43 N41 1.375 . S
C43 C45 1.350 . S
C43 H52 0.930 . S
N44 C42 1.347 . S
N44 C45 1.373 . S
C45 C43 1.350 . S
C45 N44 1.373 . S
C45 H59 0.931 . S
C46 O49 1.256 . S
C46 O50 1.255 . S
O47 Co30 2.021 . S
O47 C40 1.259 . S
O48 Co32 2.117 . S
O48 C40 1.258 . S
O49 Co32 2.020 . S
O49 C46 1.256 . S
O50 Co30 2.062 . S
O50 C46 1.255 . S
O51 C31 1.259 . S
O51 Co32 2.021 . S
H52 C43 0.930 . S
H53 C42 0.931 . S
O54 Co30 2.117 . S
O54 C31 1.258 . S
O55 Co30 2.020 . S
O55 C57 1.256 . S
O56 Co32 2.062 . S
O56 C57 1.255 . S
C57 O55 1.256 . S
C57 O56 1.255 . S
H58 C37 0.931 . S
H59 C45 0.931 . S
H60 C65 0.930 . S
H61 C68 0.930 1_655 S
H62 C70 0.930 . S
H63 C64 1.016 . S
C64 H63 1.016 . S
C64 N71 1.286 . S
C65 H60 0.930 . S
C65 C66 1.397 . S
C65 C67 1.361 1_565 S
C66 C65 1.397 . S
C66 C70 1.390 . S
C67 C65 1.361 1_545 S
C67 C68 1.393 . S
C67 N71 1.413 1_455 S
C68 H61 0.930 1_455 S
C68 C67 1.393 . S
C68 C69 1.399 1_545 S
C69 C68 1.399 1_565 S
C69 C70 1.381 . S
C70 H62 0.930 . S
C70 C66 1.390 . S
C70 C69 1.381 . S
N71 C64 1.286 . S
N71 C67 1.413 1_655 S
H72 C77 0.930 . S
H73 C80 0.930 . S
H74 C82 0.930 . S
H75 C76 1.016 . S
C76 H75 1.016 . S
C76 N83 1.286 . S
C77 H72 0.930 . S
C77 C78 1.397 . S
C77 C79 1.361 1_665 S
C78 C77 1.397 . S
C78 C82 1.390 . S
C79 C77 1.361 1_445 S
C79 C80 1.393 . S
C79 N83 1.413 . S
C80 H73 0.930 . S
C80 C79 1.393 . S
C80 C81 1.393 1_445 S
C81 C80 1.393 1_665 S
C81 C82 1.389 . S
C82 H74 0.930 . S
C82 C78 1.390 . S
C82 C81 1.389 . S
N83 C76 1.286 . S
N83 C79 1.413 . S
H84 C89 0.930 1_554 S
H85 C92 0.930 . S
H86 C94 0.930 . S
H87 C88 1.016 . S
C88 H87 1.016 . S
C88 N95 1.286 . S
C89 H84 0.930 1_556 S
C89 C90 1.397 . S
C89 C91 1.361 . S
C90 C89 1.397 . S
C90 C94 1.390 . S
C91 C89 1.361 . S
C91 C92 1.393 . S
C91 N95 1.413 . S
C92 H85 0.930 . S
C92 C91 1.393 . S
C92 C93 1.399 . S
C93 C92 1.399 . S
C93 C94 1.381 . S
C94 H86 0.930 . S
C94 C90 1.390 . S
C94 C93 1.381 . S
N95 C88 1.286 . S
N95 C91 1.413 . S
H96 C101 0.930 . S
H97 C104 0.930 . S
H98 C106 0.930 . S
H99 C100 1.016 . S
C100 H99 1.016 . S
C100 N107 1.286 . S
C101 H96 0.930 . S
C101 C102 1.397 . S
C101 C103 1.361 . S
C102 C101 1.397 . S
C102 C106 1.390 . S
C103 C101 1.361 . S
C103 C104 1.393 . S
C103 N107 1.413 . S
C104 H97 0.930 . S
C104 C103 1.393 . S
C104 C105 1.399 . S
C105 C104 1.399 . S
C105 C106 1.381 . S
C106 H98 0.930 . S
C106 C102 1.390 . S
C106 C105 1.381 . S
N107 C100 1.286 . S
N107 C103 1.413 . S
C108 C109 1.391 . S
C108 C110 1.394 . S
C108 H124 0.931 . S
C109 C108 1.391 . S
C109 C113 1.376 . S
C110 C108 1.394 . S
C110 C111 1.369 . S
C110 C114 1.531 . S
C111 C110 1.369 . S
C111 C112 1.410 . S
C111 C119 1.503 . S
C112 C111 1.410 . S
C112 C113 1.392 . S
C112 C115 1.515 . S
C113 C109 1.376 . S
C113 C112 1.392 . S
C113 H125 0.929 1_554 S
C114 C110 1.531 . S
C114 H126 0.960 . S
C114 H127 0.962 . S
C114 H128 0.960 . S
C115 C112 1.515 . S
C115 H129 0.954 1_554 S
C115 H130 0.958 1_554 S
C115 H131 0.966 . S
C116 C117 1.370 . S
C116 C118 1.363 . S
C116 H132 0.931 1_554 S
C117 C116 1.370 . S
C117 C121 1.408 . S
C118 C116 1.363 . S
C118 C119 1.370 . S
C118 C122 1.524 1_554 S
C119 C111 1.503 . S
C119 C118 1.370 . S
C119 C120 1.403 . S
C120 C119 1.403 . S
C120 C121 1.404 . S
C120 C123 1.539 . S
C121 C117 1.408 . S
C121 C120 1.404 . S
C121 H133 0.930 . S
C122 C118 1.524 1_556 S
C122 H134 0.956 . S
C122 H135 0.961 . S
C122 H136 0.961 . S
C123 C120 1.539 . S
C123 H137 0.958 . S
C123 H138 0.961 . S
C123 H139 0.960 . S
H124 C108 0.931 . S
H125 C113 0.929 1_556 S
H126 C114 0.960 . S
H127 C114 0.962 . S
H128 C114 0.960 . S
H129 C115 0.954 1_556 S
H130 C115 0.958 1_556 S
H131 C115 0.966 . S
H132 C116 0.931 1_556 S
H133 C121 0.930 . S
H134 C122 0.956 . S
H135 C122 0.961 . S
H136 C122 0.961 . S
H137 C123 0.958 . S
H138 C123 0.961 . S
H139 C123 0.960 . S
C140 C141 1.391 . S
C140 C142 1.394 . S
C140 H156 0.931 . S
C141 C140 1.391 . S
C141 C145 1.376 . S
C142 C140 1.394 . S
C142 C143 1.369 . S
C142 C146 1.531 . S
C143 C142 1.369 . S
C143 C144 1.410 . S
C143 C151 1.503 . S
C144 C143 1.410 . S
C144 C145 1.392 . S
C144 C147 1.511 . S
C145 C141 1.376 . S
C145 C144 1.392 . S
C145 H157 0.929 . S
C146 C142 1.531 . S
C146 H158 0.960 . S
C146 H159 0.962 1_554 S
C146 H160 0.960 . S
C147 C144 1.511 . S
C147 H161 0.961 . S
C147 H162 0.961 . S
C147 H163 0.961 . S
C148 C149 1.370 . S
C148 C150 1.363 . S
C148 H164 0.931 . S
C149 C148 1.370 . S
C149 C153 1.408 1_556 S
C150 C148 1.363 . S
C150 C151 1.370 1_556 S
C150 C154 1.524 . S
C151 C143 1.503 . S
C151 C150 1.370 1_554 S
C151 C152 1.403 . S
C152 C151 1.403 . S
C152 C153 1.404 . S
C152 C155 1.539 . S
C153 C149 1.408 1_554 S
C153 C152 1.404 . S
C153 H165 0.930 . S
C154 C150 1.524 . S
C154 H166 0.956 . S
C154 H167 0.961 . S
C154 H168 0.961 . S
C155 C152 1.539 . S
C155 H169 0.958 . S
C155 H170 0.961 . S
C155 H171 0.960 . S
H156 C140 0.931 . S
H157 C145 0.929 . S
H158 C146 0.960 . S
H159 C146 0.962 1_556 S
H160 C146 0.960 . S
H161 C147 0.961 . S
H162 C147 0.961 . S
H163 C147 0.961 . S
H164 C148 0.931 . S
H165 C153 0.930 . S
H166 C154 0.956 . S
H167 C154 0.961 . S
H168 C154 0.961 . S
H169 C155 0.958 . S
H170 C155 0.961 . S
H171 C155 0.960 . S
C172 C173 1.391 1_556 S
C172 C174 1.394 . S
C172 H188 0.931 . S
C173 C172 1.391 1_554 S
C173 C177 1.376 . S
C174 C172 1.394 . S
C174 C175 1.369 1_556 S
C174 C178 1.531 . S
C175 C174 1.369 1_554 S
C175 C176 1.410 . S
C175 C183 1.503 . S
C176 C175 1.410 . S
C176 C177 1.392 . S
C176 C179 1.511 . S
C177 C173 1.376 . S
C177 C176 1.392 . S
C177 H189 0.929 . S
C178 C174 1.531 . S
C178 H190 0.960 . S
C178 H191 0.962 . S
C178 H192 0.960 . S
C179 C176 1.511 . S
C179 H193 0.961 . S
C179 H194 0.961 . S
C179 H195 0.961 . S
C180 C181 1.370 . S
C180 C182 1.363 . S
C180 H196 0.931 . S
C181 C180 1.370 . S
C181 C185 1.408 . S
C182 C180 1.363 . S
C182 C183 1.370 . S
C182 C186 1.524 . S
C183 C175 1.503 . S
C183 C182 1.370 . S
C183 C184 1.403 . S
C184 C183 1.403 . S
C184 C185 1.404 . S
C184 C187 1.539 1_554 S
C185 C181 1.408 . S
C185 C184 1.404 . S
C185 H197 0.930 1_554 S
C186 C182 1.524 . S
C186 H198 0.956 . S
C186 H199 0.961 . S
C186 H200 0.961 . S
C187 C184 1.539 1_556 S
C187 H201 0.958 . S
C187 H202 0.961 . S
C187 H203 0.960 . S
H188 C172 0.931 . S
H189 C177 0.929 . S
H190 C178 0.960 . S
H191 C178 0.962 . S
H192 C178 0.960 . S
H193 C179 0.961 . S
H194 C179 0.961 . S
H195 C179 0.961 . S
H196 C180 0.931 . S
H197 C185 0.930 1_556 S
H198 C186 0.956 . S
H199 C186 0.961 . S
H200 C186 0.961 . S
H201 C187 0.958 . S
H202 C187 0.961 . S
H203 C187 0.960 . S
C204 C205 1.391 1_554 S
C204 C206 1.394 . S
C204 H220 0.931 . S
C205 C204 1.391 1_556 S
C205 C209 1.376 . S
C206 C204 1.394 . S
C206 C207 1.369 1_554 S
C206 C210 1.531 . S
C207 C206 1.369 1_556 S
C207 C208 1.410 . S
C207 C215 1.503 . S
C208 C207 1.410 . S
C208 C209 1.392 . S
C208 C211 1.511 . S
C209 C205 1.376 . S
C209 C208 1.392 . S
C209 H221 0.929 . S
C210 C206 1.531 . S
C210 H222 0.960 . S
C210 H223 0.962 . S
C210 H224 0.960 . S
C211 C208 1.511 . S
C211 H225 0.961 . S
C211 H226 0.961 . S
C211 H227 0.961 . S
C212 C213 1.370 . S
C212 C214 1.363 1_556 S
C212 H228 0.931 1_556 S
C213 C212 1.370 . S
C213 C217 1.408 . S
C214 C212 1.363 1_554 S
C214 C215 1.368 1_554 S
C214 C218 1.526 . S
C215 C207 1.503 . S
C215 C214 1.368 1_556 S
C215 C216 1.403 . S
C216 C215 1.403 . S
C216 C217 1.404 . S
C216 C219 1.539 . S
C217 C213 1.408 . S
C217 C216 1.404 . S
C217 H229 0.930 . S
C218 C214 1.526 . S
C218 H230 0.956 . S
C218 H231 0.961 . S
C218 H232 0.961 . S
C219 C216 1.539 . S
C219 H233 0.958 . S
C219 H234 0.961 . S
C219 H235 0.960 . S
H220 C204 0.931 . S
H221 C209 0.929 . S
H222 C210 0.960 . S
H223 C210 0.962 . S
H224 C210 0.960 . S
H225 C211 0.961 . S
H226 C211 0.961 . S
H227 C211 0.961 . S
H228 C212 0.931 1_554 S
H229 C217 0.930 . S
H230 C218 0.956 . S
H231 C218 0.961 . S
H232 C218 0.961 . S
H233 C219 0.958 . S
H234 C219 0.961 . S
H235 C219 0.960 . S
C236 C237 1.391 . S
C236 C238 1.394 . S
C236 H252 0.931 . S
C237 C236 1.391 . S
C237 C241 1.376 . S
C238 C236 1.394 . S
C238 C239 1.369 . S
C238 C242 1.531 . S
C239 C238 1.369 . S
C239 C240 1.410 . S
C239 C247 1.503 . S
C240 C239 1.410 . S
C240 C241 1.392 . S
C240 C243 1.511 . S
C241 C237 1.376 . S
C241 C240 1.392 . S
C241 H253 0.929 . S
C242 C238 1.531 . S
C242 H254 0.960 . S
C242 H255 0.962 . S
C242 H256 0.960 . S
C243 C240 1.511 . S
C243 H257 0.961 . S
C243 H258 0.961 . S
C243 H259 0.961 . S
C244 C245 1.370 . S
C244 C246 1.363 . S
C244 H260 0.931 . S
C245 C244 1.370 . S
C245 C249 1.408 . S
C246 C244 1.363 . S
C246 C247 1.370 . S
C246 C250 1.524 . S
C247 C239 1.503 . S
C247 C246 1.370 . S
C247 C248 1.403 . S
C248 C247 1.403 . S
C248 C249 1.404 . S
C248 C251 1.539 . S
C249 C245 1.408 . S
C249 C248 1.404 . S
C249 H261 0.930 . S
C250 C246 1.524 . S
C250 H262 0.956 . S
C250 H263 0.961 . S
C250 H264 0.961 . S
C251 C248 1.539 . S
C251 H265 0.958 . S
C251 H266 0.961 . S
C251 H267 0.960 . S
H252 C236 0.931 . S
H253 C241 0.929 . S
H254 C242 0.960 . S
H255 C242 0.962 . S
H256 C242 0.960 . S
H257 C243 0.961 . S
H258 C243 0.961 . S
H259 C243 0.961 . S
H260 C244 0.931 . S
H261 C249 0.930 . S
H262 C250 0.956 . S
H263 C250 0.961 . S
H264 C250 0.961 . S
H265 C251 0.958 . S
H266 C251 0.961 . S
H267 C251 0.960 . S
C268 C269 1.391 . S
C268 C270 1.394 . S
C268 H284 0.931 . S
C269 C268 1.391 . S
C269 C273 1.376 . S
C270 C268 1.394 . S
C270 C271 1.369 . S
C270 C274 1.531 . S
C271 C270 1.369 . S
C271 C272 1.410 . S
C271 C279 1.503 . S
C272 C271 1.410 . S
C272 C273 1.392 . S
C272 C275 1.511 . S
C273 C269 1.376 . S
C273 C272 1.392 . S
C273 H285 0.929 . S
C274 C270 1.531 . S
C274 H286 0.960 . S
C274 H287 0.962 . S
C274 H288 0.960 . S
C275 C272 1.511 . S
C275 H289 0.961 . S
C275 H290 0.961 . S
C275 H291 0.961 . S
C276 C277 1.370 . S
C276 C278 1.363 . S
C276 H292 0.931 . S
C277 C276 1.370 . S
C277 C281 1.408 . S
C278 C276 1.363 . S
C278 C279 1.370 . S
C278 C282 1.524 . S
C279 C271 1.503 . S
C279 C278 1.370 . S
C279 C280 1.403 . S
C280 C279 1.403 . S
C280 C281 1.404 . S
C280 C283 1.539 . S
C281 C277 1.408 . S
C281 C280 1.404 . S
C281 H293 0.930 . S
C282 C278 1.524 . S
C282 H294 0.956 . S
C282 H295 0.961 . S
C282 H296 0.961 . S
C283 C280 1.539 . S
C283 H297 0.958 . S
C283 H298 0.961 . S
C283 H299 0.960 . S
H284 C268 0.931 . S
H285 C273 0.929 . S
H286 C274 0.960 . S
H287 C274 0.962 . S
H288 C274 0.960 . S
H289 C275 0.961 . S
H290 C275 0.961 . S
H291 C275 0.961 . S
H292 C276 0.931 . S
H293 C281 0.930 . S
H294 C282 0.956 . S
H295 C282 0.961 . S
H296 C282 0.961 . S
H297 C283 0.958 . S
H298 C283 0.961 . S
H299 C283 0.960 . S
C300 C301 1.391 . S
C300 C302 1.394 . S
C300 H316 0.931 . S
C301 C300 1.391 . S
C301 C305 1.376 . S
C302 C300 1.394 . S
C302 C303 1.369 . S
C302 C306 1.531 . S
C303 C302 1.369 . S
C303 C304 1.410 . S
C303 C311 1.503 . S
C304 C303 1.410 . S
C304 C305 1.392 . S
C304 C307 1.511 . S
C305 C301 1.376 . S
C305 C304 1.392 . S
C305 H317 0.929 . S
C306 C302 1.531 . S
C306 H318 0.960 . S
C306 H319 0.962 . S
C306 H320 0.960 . S
C307 C304 1.511 . S
C307 H321 0.961 . S
C307 H322 0.961 . S
C307 H323 0.961 . S
C308 C309 1.370 . S
C308 C310 1.363 . S
C308 H324 0.931 . S
C309 C308 1.370 . S
C309 C313 1.408 . S
C310 C308 1.363 . S
C310 C311 1.370 . S
C310 C314 1.524 . S
C311 C303 1.503 . S
C311 C310 1.370 . S
C311 C312 1.403 . S
C312 C311 1.403 . S
C312 C313 1.404 . S
C312 C315 1.539 . S
C313 C309 1.408 . S
C313 C312 1.404 . S
C313 H325 0.930 . S
C314 C310 1.524 . S
C314 H326 0.956 . S
C314 H327 0.961 . S
C314 H328 0.961 . S
C315 C312 1.539 . S
C315 H329 0.958 . S
C315 H330 0.961 . S
C315 H331 0.960 . S
H316 C300 0.931 . S
H317 C305 0.929 . S
H318 C306 0.960 . S
H319 C306 0.962 . S
H320 C306 0.960 . S
H321 C307 0.961 . S
H322 C307 0.961 . S
H323 C307 0.961 . S
H324 C308 0.931 . S
H325 C313 0.930 . S
H326 C314 0.956 . S
H327 C314 0.961 . S
H328 C314 0.961 . S
H329 C315 0.958 . S
H330 C315 0.961 . S
H331 C315 0.960 . S
C332 C333 1.391 . S
C332 C334 1.394 . S
C332 H348 0.931 . S
C333 C332 1.391 . S
C333 C337 1.376 . S
C334 C332 1.394 . S
C334 C335 1.369 . S
C334 C338 1.531 . S
C335 C334 1.369 . S
C335 C336 1.410 . S
C335 C343 1.503 . S
C336 C335 1.410 . S
C336 C337 1.392 . S
C336 C339 1.511 . S
C337 C333 1.376 . S
C337 C336 1.392 . S
C337 H349 0.929 . S
C338 C334 1.531 . S
C338 H350 0.960 . S
C338 H351 0.962 . S
C338 H352 0.960 . S
C339 C336 1.511 . S
C339 H353 0.961 . S
C339 H354 0.961 . S
C339 H355 0.961 . S
C340 C341 1.370 . S
C340 C342 1.363 . S
C340 H356 0.931 . S
C341 C340 1.370 . S
C341 C345 1.408 . S
C342 C340 1.363 . S
C342 C343 1.370 . S
C342 C346 1.524 . S
C343 C335 1.503 . S
C343 C342 1.370 . S
C343 C344 1.403 . S
C344 C343 1.403 . S
C344 C345 1.404 . S
C344 C347 1.539 . S
C345 C341 1.408 . S
C345 C344 1.404 . S
C345 H357 0.930 . S
C346 C342 1.524 . S
C346 H358 0.956 . S
C346 H359 0.961 . S
C346 H360 0.961 . S
C347 C344 1.539 . S
C347 H361 0.958 . S
C347 H362 0.961 . S
C347 H363 0.960 . S
H348 C332 0.931 . S
H349 C337 0.929 . S
H350 C338 0.960 . S
H351 C338 0.962 . S
H352 C338 0.960 . S
H353 C339 0.961 . S
H354 C339 0.961 . S
H355 C339 0.961 . S
H356 C340 0.931 . S
H357 C345 0.930 . S
H358 C346 0.956 . S
H359 C346 0.961 . S
H360 C346 0.961 . S
H361 C347 0.958 . S
H362 C347 0.961 . S
H363 C347 0.960 . S
C364 C365 1.391 1_565 S
C364 C366 1.394 . S
C364 H380 0.931 . S
C365 C364 1.391 1_545 S
C365 C369 1.376 . S
C366 C364 1.394 . S
C366 C367 1.375 . S
C366 C370 1.531 . S
C367 C366 1.375 . S
C367 C368 1.402 1_565 S
C367 C375 1.503 . S
C368 C367 1.402 1_545 S
C368 C369 1.392 . S
C368 C371 1.511 . S
C369 C365 1.376 . S
C369 C368 1.392 . S
C369 H381 0.929 . S
C370 C366 1.531 . S
C370 H382 0.960 . S
C370 H383 0.962 1_455 S
C370 H384 0.960 . S
C371 C368 1.511 . S
C371 H385 0.961 . S
C371 H386 0.961 . S
C371 H387 0.961 . S
C372 C373 1.370 1_655 S
C372 C374 1.363 . S
C372 H388 0.931 . S
C373 C372 1.370 1_455 S
C373 C377 1.408 . S
C374 C372 1.363 . S
C374 C375 1.368 1_655 S
C374 C378 1.528 . S
C375 C367 1.503 . S
C375 C374 1.368 1_455 S
C375 C376 1.407 . S
C376 C375 1.407 . S
C376 C377 1.404 . S
C376 C379 1.539 1_565 S
C377 C373 1.408 . S
C377 C376 1.404 . S
C377 H389 0.930 . S
C378 C374 1.528 . S
C378 H390 0.973 . S
C378 H391 0.945 1_565 S
C378 H392 0.956 1_565 S
C379 C376 1.539 1_545 S
C379 H393 0.958 1_545 S
C379 H394 0.961 . S
C379 H395 0.960 . S
H380 C364 0.931 . S
H381 C369 0.929 . S
H382 C370 0.960 . S
H383 C370 0.962 1_655 S
H384 C370 0.960 . S
H385 C371 0.961 . S
H386 C371 0.961 . S
H387 C371 0.961 . S
H388 C372 0.931 . S
H389 C377 0.930 . S
H390 C378 0.973 . S
H391 C378 0.945 1_545 S
H392 C378 0.956 1_545 S
H393 C379 0.958 1_565 S
H394 C379 0.961 . S
H395 C379 0.960 . S
C396 C397 1.391 1_655 S
C396 C398 1.394 . S
C396 H412 0.931 1_545 S
C397 C396 1.391 1_455 S
C397 C401 1.376 . S
C398 C396 1.394 . S
C398 C399 1.369 . S
C398 C402 1.531 1_545 S
C399 C398 1.369 . S
C399 C400 1.410 1_655 S
C399 C407 1.503 . S
C400 C399 1.410 1_455 S
C400 C401 1.392 . S
C400 C403 1.511 . S
C401 C397 1.376 . S
C401 C400 1.392 . S
C401 H413 0.929 . S
C402 C398 1.531 1_565 S
C402 H414 0.960 1_565 S
C402 H415 0.962 . S
C402 H416 0.960 1_565 S
C403 C400 1.511 . S
C403 H417 0.961 . S
C403 H418 0.961 . S
C403 H419 0.961 . S
C404 C405 1.370 1_565 S
C404 C406 1.363 . S
C404 H420 0.931 . S
C405 C404 1.370 1_545 S
C405 C409 1.408 . S
C406 C404 1.363 . S
C406 C407 1.370 1_565 S
C406 C410 1.524 . S
C407 C399 1.503 . S
C407 C406 1.370 1_545 S
C407 C408 1.403 . S
C408 C407 1.403 . S
C408 C409 1.404 . S
C408 C411 1.539 . S
C409 C405 1.408 . S
C409 C408 1.404 . S
C409 H421 0.930 . S
C410 C406 1.524 . S
C410 H422 0.958 . S
C410 H423 0.959 1_655 S
C410 H424 0.960 1_655 S
C411 C408 1.539 . S
C411 H425 0.958 . S
C411 H426 0.961 1_655 S
C411 H427 0.960 1_655 S
H412 C396 0.931 1_565 S
H413 C401 0.929 . S
H414 C402 0.960 1_545 S
H415 C402 0.962 . S
H416 C402 0.960 1_545 S
H417 C403 0.961 . S
H418 C403 0.961 . S
H419 C403 0.961 . S
H420 C404 0.931 . S
H421 C409 0.930 . S
H422 C410 0.958 . S
H423 C410 0.959 1_455 S
H424 C410 0.960 1_455 S
H425 C411 0.958 . S
H426 C411 0.961 1_455 S
H427 C411 0.960 1_455 S
C428 C429 1.391 . S
C428 C430 1.394 . S
C428 H444 0.931 . S
C429 C428 1.391 . S
C429 C433 1.376 . S
C430 C428 1.394 . S
C430 C431 1.369 . S
C430 C434 1.531 . S
C431 C430 1.369 . S
C431 C432 1.410 . S
C431 C439 1.503 . S
C432 C431 1.410 . S
C432 C433 1.392 . S
C432 C435 1.511 . S
C433 C429 1.376 . S
C433 C432 1.392 . S
C433 H445 0.929 . S
C434 C430 1.531 . S
C434 H446 0.960 . S
C434 H447 0.962 . S
C434 H448 0.960 . S
C435 C432 1.511 . S
C435 H449 0.961 . S
C435 H450 0.961 . S
C435 H451 0.961 . S
C436 C437 1.370 . S
C436 C438 1.363 . S
C436 H452 0.931 . S
C437 C436 1.370 . S
C437 C441 1.408 . S
C438 C436 1.363 . S
C438 C439 1.370 . S
C438 C442 1.524 . S
C439 C431 1.503 . S
C439 C438 1.370 . S
C439 C440 1.403 . S
C440 C439 1.403 . S
C440 C441 1.404 . S
C440 C443 1.539 . S
C441 C437 1.408 . S
C441 C440 1.404 . S
C441 H453 0.930 . S
C442 C438 1.524 . S
C442 H454 0.956 . S
C442 H455 0.961 . S
C442 H456 0.961 . S
C443 C440 1.539 . S
C443 H457 0.958 . S
C443 H458 0.961 . S
C443 H459 0.960 . S
H444 C428 0.931 . S
H445 C433 0.929 . S
H446 C434 0.960 . S
H447 C434 0.962 . S
H448 C434 0.960 . S
H449 C435 0.961 . S
H450 C435 0.961 . S
H451 C435 0.961 . S
H452 C436 0.931 . S
H453 C441 0.930 . S
H454 C442 0.956 . S
H455 C442 0.961 . S
H456 C442 0.961 . S
H457 C443 0.958 . S
H458 C443 0.961 . S
H459 C443 0.960 . S
C460 C461 1.391 . S
C460 C462 1.394 . S
C460 H476 0.931 . S
C461 C460 1.391 . S
C461 C465 1.376 . S
C462 C460 1.394 . S
C462 C463 1.369 . S
C462 C466 1.531 . S
C463 C462 1.369 . S
C463 C464 1.410 . S
C463 C471 1.503 . S
C464 C463 1.410 . S
C464 C465 1.392 . S
C464 C467 1.511 . S
C465 C461 1.376 . S
C465 C464 1.392 . S
C465 H477 0.929 . S
C466 C462 1.531 . S
C466 H478 0.960 . S
C466 H479 0.962 . S
C466 H480 0.960 . S
C467 C464 1.511 . S
C467 H481 0.961 . S
C467 H482 0.961 . S
C467 H483 0.961 . S
C468 C469 1.370 . S
C468 C470 1.363 . S
C468 H484 0.931 . S
C469 C468 1.370 . S
C469 C473 1.408 . S
C470 C468 1.363 . S
C470 C471 1.370 . S
C470 C474 1.524 . S
C471 C463 1.503 . S
C471 C470 1.370 . S
C471 C472 1.403 . S
C472 C471 1.403 . S
C472 C473 1.404 . S
C472 C475 1.539 . S
C473 C469 1.408 . S
C473 C472 1.404 . S
C473 H485 0.930 . S
C474 C470 1.524 . S
C474 H486 0.956 . S
C474 H487 0.961 . S
C474 H488 0.961 . S
C475 C472 1.539 . S
C475 H489 0.958 . S
C475 H490 0.961 . S
C475 H491 0.960 . S
H476 C460 0.931 . S
H477 C465 0.929 . S
H478 C466 0.960 . S
H479 C466 0.962 . S
H480 C466 0.960 . S
H481 C467 0.961 . S
H482 C467 0.961 . S
H483 C467 0.961 . S
H484 C468 0.931 . S
H485 C473 0.930 . S
H486 C474 0.956 . S
H487 C474 0.961 . S
H488 C474 0.961 . S
H489 C475 0.958 . S
H490 C475 0.961 . S
H491 C475 0.960 . S
C117 C102 1.446 . S
C109 C27 1.480 . S
C141 N6 1.378 . S
C149 C88 1.379 . S
C173 C16 1.429 . S
C181 C100 1.383 . S
C205 N14 1.455 1_556 S
C213 C90 1.430 . S
C237 C57 1.485 . S
C245 C78 1.459 . S
C269 N36 1.382 . S
C277 C64 1.376 . S
C309 C76 1.366 . S
C301 C46 1.415 . S
C341 C66 1.446 . S
C333 N44 1.414 . S
C365 C10 1.468 . S
C373 C69 1.474 . S
C397 C1 1.538 . S
C405 C81 1.544 1_545 S
C437 C93 1.473 . S
C429 C40 1.467 . S
C461 C31 1.543 . S
C469 C105 1.544 . S
