# Generated by pormake.
# Topology zzz, (3,6)-cn, num edge types: 1
# Building blocks:
#     Node 0, Type 0, BuildingBlock: KAKCAD_clean_linker_0, # of connection points: 3
#     Node 1, Type 0, BuildingBlock: KAKCAD_clean_linker_0, # of connection points: 3
#     Node 2, Type 0, BuildingBlock: KAKCAD_clean_linker_0, # of connection points: 3
#     Node 3, Type 0, BuildingBlock: KAKCAD_clean_linker_0, # of connection points: 3
#     Node 4, Type 0, BuildingBlock: KAKCAD_clean_linker_0, # of connection points: 3
#     Node 5, Type 0, BuildingBlock: KAKCAD_clean_linker_0, # of connection points: 3
#     Node 6, Type 0, BuildingBlock: KAKCAD_clean_linker_0, # of connection points: 3
#     Node 7, Type 0, BuildingBlock: KAKCAD_clean_linker_0, # of connection points: 3
#     Node 8, Type 1, BuildingBlock: BETDIP_clean_sbu_0, # of connection points: 6
#     Node 9, Type 1, BuildingBlock: BETDIP_clean_sbu_0, # of connection points: 6
#     Node 10, Type 1, BuildingBlock: BETDIP_clean_sbu_0, # of connection points: 6
#     Node 11, Type 1, BuildingBlock: BETDIP_clean_sbu_0, # of connection points: 6
#     Edge 12, Type (0, 1), BuildingBlock: AJUNOK_clean_linker_0, # of connection points: 2
#     Edge 13, Type (0, 1), BuildingBlock: AJUNOK_clean_linker_0, # of connection points: 2
#     Edge 14, Type (0, 1), BuildingBlock: AJUNOK_clean_linker_0, # of connection points: 2
#     Edge 15, Type (0, 1), BuildingBlock: AJUNOK_clean_linker_0, # of connection points: 2
#     Edge 16, Type (0, 1), BuildingBlock: AJUNOK_clean_linker_0, # of connection points: 2
#     Edge 17, Type (0, 1), BuildingBlock: AJUNOK_clean_linker_0, # of connection points: 2
#     Edge 18, Type (0, 1), BuildingBlock: AJUNOK_clean_linker_0, # of connection points: 2
#     Edge 19, Type (0, 1), BuildingBlock: AJUNOK_clean_linker_0, # of connection points: 2
#     Edge 20, Type (0, 1), BuildingBlock: AJUNOK_clean_linker_0, # of connection points: 2
#     Edge 21, Type (0, 1), BuildingBlock: AJUNOK_clean_linker_0, # of connection points: 2
#     Edge 22, Type (0, 1), BuildingBlock: AJUNOK_clean_linker_0, # of connection points: 2
#     Edge 23, Type (0, 1), BuildingBlock: AJUNOK_clean_linker_0, # of connection points: 2
#     Edge 24, Type (0, 1), BuildingBlock: AJUNOK_clean_linker_0, # of connection points: 2
#     Edge 25, Type (0, 1), BuildingBlock: AJUNOK_clean_linker_0, # of connection points: 2
#     Edge 26, Type (0, 1), BuildingBlock: AJUNOK_clean_linker_0, # of connection points: 2
#     Edge 27, Type (0, 1), BuildingBlock: AJUNOK_clean_linker_0, # of connection points: 2
#     Edge 28, Type (0, 1), BuildingBlock: AJUNOK_clean_linker_0, # of connection points: 2
#     Edge 29, Type (0, 1), BuildingBlock: AJUNOK_clean_linker_0, # of connection points: 2
#     Edge 30, Type (0, 1), BuildingBlock: AJUNOK_clean_linker_0, # of connection points: 2
#     Edge 31, Type (0, 1), BuildingBlock: AJUNOK_clean_linker_0, # of connection points: 2
#     Edge 32, Type (0, 1), BuildingBlock: AJUNOK_clean_linker_0, # of connection points: 2
#     Edge 33, Type (0, 1), BuildingBlock: AJUNOK_clean_linker_0, # of connection points: 2
#     Edge 34, Type (0, 1), BuildingBlock: AJUNOK_clean_linker_0, # of connection points: 2
#     Edge 35, Type (0, 1), BuildingBlock: AJUNOK_clean_linker_0, # of connection points: 2
# Relax obj value: 0.492
# Max RMSD: 0.259
# Mean RMSD: 0.242
data_MOF--net-zzz--node1-BETDIP_clean_sbu_0--node2-KAKCAD_clean_linker_0--edge1-AJUNOK_clean_linker_0
_symmetry_space_group_name_H-M    P1
_symmetry_Int_Tables_number       1
_symmetry_cell_setting            triclinic
loop_
_symmetry_equiv_pos_as_xyz
'x, y, z'
_cell_length_a     46.391485
_cell_length_b     46.285925
_cell_length_c     14.468886
_cell_angle_alpha  89.838722
_cell_angle_beta   89.799838
_cell_angle_gamma 89.997111
loop_
_atom_site_label
_atom_site_type_symbol
_atom_site_fract_x
_atom_site_fract_y
_atom_site_fract_z
_atom_type_partial_charge
C0 C 0.77274 0.40675 0.06048 0.0
C1 C 0.79923 0.39531 0.09009 0.0
C2 C 0.75448 0.42042 0.12375 0.0
C3 C 0.76177 0.42141 0.21818 0.0
C4 C 0.78436 0.40359 0.24907 0.0
C5 C 0.80335 0.39121 0.18556 0.0
C6 C 0.75141 0.44581 0.27707 0.0
C7 C 0.72453 0.45882 0.26155 0.0
C8 C 0.71835 0.48656 0.29547 0.0
C9 C 0.73903 0.50092 0.35101 0.0
C10 C 0.76542 0.48714 0.37264 0.0
C11 C 0.77113 0.45984 0.33535 0.0
C12 C 0.78956 0.50131 0.42352 0.0
C13 C 0.81427 0.50972 0.37382 0.0
C14 C 0.79143 0.49941 0.52036 0.0
C15 C 0.81765 0.50506 0.566 0.0
C16 C 0.84274 0.51253 0.51582 0.0
C17 C 0.69223 0.50113 0.25786 0.0
C18 C 0.6951 0.51961 0.1813 0.0
C19 C 0.66452 0.49127 0.28191 0.0
C20 C 0.64034 0.49914 0.22908 0.0
C21 C 0.6433 0.51658 0.1494 0.0
C22 C 0.67109 0.52701 0.12739 0.0
C23 C 0.84041 0.51512 0.41901 0.0
H24 H 0.76779 0.4083 0.98756 0.0
H25 H 0.73672 0.43292 0.09646 0.0
H26 H 0.78955 0.40218 0.32186 0.0
H27 H 0.82293 0.38156 0.21192 0.0
H28 H 0.70905 0.44835 0.2168 0.0
H29 H 0.79234 0.45071 0.34653 0.0
H30 H 0.735 0.52275 0.3745 0.0
H31 H 0.81383 0.51029 0.29895 0.0
H32 H 0.77305 0.49202 0.5603 0.0
H33 H 0.81849 0.50278 0.64045 0.0
H34 H 0.71631 0.52662 0.15902 0.0
H35 H 0.66175 0.47636 0.33913 0.0
H36 H 0.85922 0.51979 0.37707 0.0
H37 H 0.67477 0.5395 0.06515 0.0
H38 H 0.61944 0.4907 0.24895 0.0
C39 C 0.12681 0.78881 0.09412 0.0
C40 C 0.14681 0.80579 0.14274 0.0
C41 C 0.11105 0.76742 0.13976 0.0
C42 C 0.11477 0.76291 0.2349 0.0
C43 C 0.13779 0.77663 0.27985 0.0
C44 C 0.15388 0.7978 0.23378 0.0
C45 C 0.09049 0.75068 0.28899 0.0
C46 C 0.07654 0.72551 0.26043 0.0
C47 C 0.04954 0.71754 0.29714 0.0
C48 C 0.03612 0.73601 0.36309 0.0
C49 C 0.05073 0.76105 0.39523 0.0
C50 C 0.07791 0.76765 0.35802 0.0
C51 C 0.03815 0.78279 0.46072 0.0
C52 C 1.01341 0.79866 0.43701 0.0
C53 C 0.05493 0.79271 0.5353 0.0
C54 C 0.04862 0.81892 0.57965 0.0
C55 C 0.02532 0.83614 0.55086 0.0
C56 C 0.03596 0.6907 0.25911 0.0
C57 C 1.00923 0.69153 0.21369 0.0
C58 C 0.0526 0.66537 0.25165 0.0
C59 C 0.04408 0.64251 0.19474 0.0
C60 C 0.01821 0.64387 0.14438 0.0
C61 C 1.00046 0.66839 0.15711 0.0
C62 C 1.00701 0.82493 0.48178 0.0
H63 H 0.12049 0.79437 0.02436 0.0
H64 H 0.09346 0.75718 0.10327 0.0
H65 H 0.14136 0.77315 0.353 0.0
H66 H 0.16955 0.81014 0.27253 0.0
H67 H 0.0862 0.71276 0.2057 0.0
H68 H 0.08831 0.78771 0.37758 0.0
H69 H 0.01488 0.73082 0.38962 0.0
H70 H 1.0002 0.7919 0.3794 0.0
H71 H 0.07428 0.78115 0.55494 0.0
H72 H 0.0632 0.82658 0.63251 0.0
H73 H 0.99601 0.71079 0.21696 0.0
H74 H 0.07331 0.66399 0.28541 0.0
H75 H 0.98832 0.83707 0.45949 0.0
H76 H 0.98025 0.67023 0.12035 0.0
H77 H 0.05886 0.62464 0.18589 0.0
C78 C 0.75191 0.12774 0.06336 0.0
C79 C 0.72523 0.13853 0.09415 0.0
C80 C 0.76944 0.11197 0.12356 0.0
C81 C 0.76153 0.10849 0.21713 0.0
C82 C 0.73859 0.12532 0.25108 0.0
C83 C 0.72021 0.13958 0.1901 0.0
C84 C 0.77317 0.08394 0.27333 0.0
C85 C 0.80051 0.07224 0.25551 0.0
C86 C 0.80915 0.04559 0.29377 0.0
C87 C 0.79006 0.03096 0.35515 0.0
C88 C 0.76315 0.04354 0.37867 0.0
C89 C 0.75504 0.06951 0.33629 0.0
C90 C 0.74162 0.03038 0.44343 0.0
C91 C 0.72306 1.00843 0.41285 0.0
C92 C 0.73413 0.0454 0.52453 0.0
C93 C 0.70809 0.03976 0.57106 0.0
C94 C 0.68862 0.01893 0.53773 0.0
C95 C 0.83724 0.03317 0.26082 0.0
C96 C 0.83854 1.00554 0.22086 0.0
C97 C 0.86161 0.05118 0.25246 0.0
C98 C 0.88549 0.04294 0.19904 0.0
C99 C 0.88613 0.0161 0.15356 0.0
C100 C 0.86267 0.99711 0.16799 0.0
C101 C 0.69692 1.00276 0.4594 0.0
H102 H 0.7578 0.12868 0.99097 0.0
H103 H 0.78747 0.10041 0.09392 0.0
H104 H 0.73298 0.12514 0.32376 0.0
H105 H 0.70051 0.14859 0.21809 0.0
H106 H 0.8148 0.08325 0.20776 0.0
H107 H 0.73349 0.07752 0.34955 0.0
H108 H 0.79615 1.01035 0.38477 0.0
H109 H 0.72773 0.99709 0.34914 0.0
H110 H 0.7475 0.06309 0.54814 0.0
H111 H 0.7024 0.05316 0.62956 0.0
H112 H 0.82014 0.9912 0.22511 0.0
H113 H 0.86144 0.0726 0.28248 0.0
H114 H 0.6826 0.98649 0.43172 0.0
H115 H 0.8624 0.97613 0.13513 0.0
H116 H 0.90256 0.05856 0.18873 0.0
C117 C 0.49046 0.71854 0.60261 0.0
C118 C 0.50177 0.6946 0.55435 0.0
C119 C 0.48433 0.7447 0.55658 0.0
C120 C 0.4898 0.74786 0.46138 0.0
C121 C 0.5021 0.72443 0.41393 0.0
C122 C 0.50782 0.69821 0.45936 0.0
C123 C 0.475 0.77092 0.40693 0.0
C124 C 0.48866 0.79649 0.37446 0.0
C125 C 0.47406 0.81528 0.31209 0.0
C126 C 0.44666 0.80705 0.2798 0.0
C127 C 0.43339 0.78166 0.3104 0.0
C128 C 0.44716 0.76442 0.3763 0.0
C129 C 0.40943 0.76883 0.25769 0.0
C130 C 0.38542 0.75703 0.30344 0.0
C131 C 0.41456 0.76147 0.16524 0.0
C132 C 0.39931 0.73891 0.12489 0.0
C133 C 0.37834 0.72363 0.17599 0.0
C134 C 0.48731 0.84203 0.27077 0.0
C135 C 0.46992 0.86647 0.25381 0.0
C136 C 0.51551 0.84205 0.23478 0.0
C137 C 0.52506 0.86472 0.17705 0.0
C138 C 0.50649 0.8877 0.15247 0.0
C139 C 0.47923 0.88876 0.19521 0.0
C140 C 0.36942 0.73505 0.26161 0.0
H141 H 0.48547 0.71679 0.67557 0.0
H142 H 0.47385 0.76196 0.59435 0.0
H143 H 0.50533 0.7257 0.33982 0.0
H144 H 0.51546 0.68025 0.4183 0.0
H145 H 0.51042 0.8014 0.39622 0.0
H146 H 0.43737 0.74408 0.3969 0.0
H147 H 0.43624 0.81947 0.22577 0.0
H148 H 0.38076 0.76287 0.37439 0.0
H149 H 0.43289 0.77038 0.12828 0.0
H150 H 0.4067 0.73129 0.05823 0.0
H151 H 0.44828 0.8676 0.28176 0.0
H152 H 0.52962 0.82379 0.2466 0.0
H153 H 0.35212 0.72503 0.30056 0.0
H154 H 0.46427 0.90602 0.17938 0.0
H155 H 0.54671 0.86365 0.14923 0.0
C156 C 0.23758 0.65531 0.33932 0.0
C157 C 0.22433 0.64412 0.41979 0.0
C158 C 0.25614 0.63799 0.28656 0.0
C159 C 0.26309 0.61007 0.3168 0.0
C160 C 0.25363 0.60072 0.40365 0.0
C161 C 0.23428 0.61735 0.45417 0.0
C162 C 0.27458 0.58818 0.25301 0.0
C163 C 0.3009 0.57487 0.27138 0.0
C164 C 0.30851 0.54867 0.2288 0.0
C165 C 0.28868 0.53555 0.16692 0.0
C166 C 0.26204 0.54935 0.14684 0.0
C167 C 0.25576 0.57587 0.18912 0.0
C168 C 0.23841 0.53592 0.09151 0.0
C169 C 0.23922 0.53564 0.99436 0.0
C170 C 0.21216 0.52942 0.1358 0.0
C171 C 0.18706 0.52419 0.08487 0.0
C172 C 0.18727 0.5253 0.98758 0.0
C173 C 0.336 0.53494 0.26012 0.0
C174 C 0.36136 0.5516 0.26118 0.0
C175 C 0.33574 0.50878 0.30955 0.0
C176 C 0.3594 0.50079 0.36478 0.0
C177 C 0.3838 0.51893 0.37289 0.0
C178 C 0.38471 0.544 0.31749 0.0
C179 C 0.21399 0.53023 0.94296 0.0
H180 H 0.23224 0.67656 0.3134 0.0
H181 H 0.26367 0.64569 0.21997 0.0
H182 H 0.25878 0.57917 0.42807 0.0
H183 H 0.22506 0.60753 0.51541 0.0
H184 H 0.31474 0.58408 0.324 0.0
H185 H 0.23489 0.58588 0.17784 0.0
H186 H 0.29355 0.51469 0.13695 0.0
H187 H 0.25898 0.54109 0.95821 0.0
H188 H 0.21069 0.53002 0.21054 0.0
H189 H 0.1671 0.52067 0.12228 0.0
H190 H 0.36213 0.57183 0.22362 0.0
H191 H 0.31645 0.4956 0.31115 0.0
H192 H 0.21532 0.53053 0.86827 0.0
H193 H 0.40249 0.55904 0.32226 0.0
H194 H 0.35793 0.48107 0.40489 0.0
C195 C 0.88842 0.23702 0.3813 0.0
C196 C 0.90111 0.22409 0.45955 0.0
C197 C 0.90492 0.25433 0.32185 0.0
C198 C 0.93391 0.25982 0.34198 0.0
C199 C 0.94564 0.24983 0.42495 0.0
C200 C 0.92958 0.23188 0.48265 0.0
C201 C 0.95351 0.27189 0.2719 0.0
C202 C 0.96625 0.29871 0.28589 0.0
C203 C 0.98871 0.30859 0.22864 0.0
C204 C 0.99926 0.29004 0.15759 0.0
C205 C 0.98583 0.26278 0.14188 0.0
C206 C 0.96284 0.25439 0.19935 0.0
C207 C 0.99531 0.24128 0.07049 0.0
C208 C 0.97484 0.23017 1.00823 0.0
C209 C 0.02179 0.22671 0.0786 0.0
C210 C 0.02694 0.20086 0.02962 0.0
C211 C 1.00579 0.18892 0.97094 0.0
C212 C 1.00063 0.33788 0.25072 0.0
C213 C 0.98126 0.36086 0.26599 0.0
C214 C 0.0294 0.34155 0.27827 0.0
C215 C 0.03779 0.36639 0.32771 0.0
C216 C 0.01743 0.3878 0.35278 0.0
C217 C 0.98942 0.38525 0.31673 0.0
C218 C 0.97995 0.20447 0.95943 0.0
H219 H 0.8665 0.23185 0.36191 0.0
H220 H 0.89556 0.26206 0.2579 0.0
H221 H 0.96811 0.25375 0.44101 0.0
H222 H 0.94074 0.22193 0.53999 0.0
H223 H 0.95912 0.31162 0.34414 0.0
H224 H 0.95318 0.2332 0.19104 0.0
H225 H 0.01715 0.29686 0.11451 0.0
H226 H 0.95396 0.24044 1.00186 0.0
H227 H 0.03774 0.2342 0.12749 0.0
H228 H 0.04715 0.18966 0.04024 0.0
H229 H 0.95892 0.35885 0.24524 0.0
H230 H 0.0449 0.32437 0.26766 0.0
H231 H 0.96278 0.19589 0.91704 0.0
H232 H 0.97302 0.40108 0.3332 0.0
H233 H 0.05998 0.36809 0.34985 0.0
C234 C 0.29098 0.8828 0.38295 0.0
C235 C 0.30732 0.89665 0.4518 0.0
C236 C 0.27314 0.899 0.32445 0.0
C237 C 0.27068 0.92892 0.33661 0.0
C238 C 0.28441 0.9422 0.41097 0.0
C239 C 0.30264 0.92633 0.46765 0.0
C240 C 0.25726 0.94748 0.26654 0.0
C241 C 0.23035 0.95962 0.28334 0.0
C242 C 0.21968 0.98214 0.22782 0.0
C243 C 0.23739 0.99312 0.15503 0.0
C244 C 0.26462 0.98015 0.13601 0.0
C245 C 0.27393 0.95727 0.19242 0.0
C246 C 0.28543 0.99046 0.06343 0.0
C247 C 0.29835 0.97015 1.0038 0.0
C248 C 0.29746 0.01831 0.06729 0.0
C249 C 0.32301 0.02487 1.01841 0.0
C250 C 0.33732 1.00368 0.96504 0.0
C251 C 0.19081 0.9941 0.25433 0.0
C252 C 0.1682 0.97474 0.27472 0.0
C253 C 0.18742 0.02316 0.28008 0.0
C254 C 0.1633 0.0319 0.33263 0.0
C255 C 0.1423 1.01167 0.36197 0.0
C256 C 0.14445 0.98331 0.32793 0.0
C257 C 0.32383 0.97664 0.95541 0.0
H258 H 0.29315 0.85985 0.37083 0.0
H259 H 0.26234 0.88845 0.26749 0.0
H260 H 0.2827 0.96534 0.42105 0.0
H261 H 0.31486 0.93807 0.51891 0.0
H262 H 0.2182 0.9523 0.3432 0.0
H263 H 0.29528 0.94816 0.18245 0.0
H264 H 0.22998 1.01111 0.11341 0.0
H265 H 0.28977 0.94842 0.99957 0.0
H266 H 0.2883 0.03437 0.11308 0.0
H267 H 0.33218 0.04626 0.02542 0.0
H268 H 0.17005 0.95218 0.25581 0.0
H269 H 0.20437 0.03864 0.26567 0.0
H270 H 0.33394 0.95974 0.91506 0.0
H271 H 0.12887 0.96701 0.3479 0.0
H272 H 0.16186 0.05426 0.35376 0.0
C273 C 0.50225 0.32647 0.0229 0.0
C274 C 0.52301 0.34113 0.96843 0.0
C275 C 0.50916 0.30061 0.06969 0.0
C276 C 0.5369 0.28858 0.0625 0.0
C277 C 0.55667 0.30182 1.00138 0.0
C278 C 0.54987 0.32764 0.95527 0.0
C279 C 0.54769 0.26718 0.13257 0.0
C280 C 0.53388 0.24052 0.15448 0.0
C281 C 0.5452 0.2224 0.22539 0.0
C282 C 0.56892 0.23213 0.2768 0.0
C283 C 0.58197 0.25856 0.2573 0.0
C284 C 0.57186 0.27547 0.1843 0.0
C285 C 0.60186 0.27174 0.32394 0.0
C286 C 0.59039 0.28213 0.40685 0.0
C287 C 0.63013 0.27911 0.29866 0.0
C288 C 0.6458 0.29877 0.3521 0.0
C289 C 0.63273 0.31248 0.42837 0.0
C290 C 0.53259 0.1939 0.25341 0.0
C291 C 0.50484 0.19207 0.29226 0.0
C292 C 0.55098 0.16984 0.26202 0.0
C293 C 0.54287 0.1456 0.31429 0.0
C294 C 0.51587 0.1444 0.35887 0.0
C295 C 0.49657 0.1676 0.34424 0.0
C296 C 0.60549 0.30246 0.45809 0.0
H297 H 0.48096 0.33559 0.03244 0.0
H298 H 0.49346 0.29119 0.11643 0.0
H299 H 0.57827 0.29319 0.99416 0.0
H300 H 0.56643 0.33798 0.91388 0.0
H301 H 0.51496 0.23385 0.11646 0.0
H302 H 0.58163 0.29647 0.17244 0.0
H303 H 0.57659 0.21959 0.33524 0.0
H304 H 0.56852 0.27675 0.42719 0.0
H305 H 0.63939 0.27097 0.23502 0.0
H306 H 0.66732 0.30456 0.32983 0.0
H307 H 0.49034 0.21036 0.28824 0.0
H308 H 0.57265 0.1707 0.23389 0.0
H309 H 0.59434 0.31225 0.5159 0.0
H310 H 0.4755 0.16745 0.37662 0.0
H311 H 0.55873 0.12879 0.32498 0.0
Tb312 Tb 0.03653 1.00673 0.82783 0.0
Tb313 Tb 0.99429 0.01817 0.69438 0.0
C314 C 0.0679 0.98786 0.95633 0.0
C315 C 0.08882 0.96433 0.96841 0.0
C316 C 0.08575 0.9381 0.92115 0.0
C317 C 0.10443 0.91517 0.93943 0.0
C318 C 0.1267 0.91818 1.00446 0.0
C319 C 0.13072 0.94506 0.04748 0.0
C320 C 0.11186 0.96795 0.02972 0.0
C321 C 0.05949 0.02427 0.66742 0.0
C322 C 0.01675 0.95533 0.69469 0.0
C323 C 0.96266 0.03717 0.5675 0.0
C324 C 0.94115 0.06022 0.56126 0.0
C325 C 0.93859 0.07548 0.47839 0.0
C326 C 0.92094 0.09972 0.47362 0.0
C327 C 0.90524 0.10908 0.55161 0.0
C328 C 0.9065 0.0926 0.63326 0.0
C329 C 0.92461 0.06848 0.63838 0.0
C330 C 0.97134 1.00142 0.85593 0.0
C331 C 0.01464 0.07015 0.8234 0.0
O332 O 0.04093 0.98037 0.94505 0.0
O333 O 0.07568 1.0084 0.89978 0.0
O334 O 0.03877 1.00692 0.67805 0.0
O335 O 0.0679 0.03194 0.74857 0.0
O336 O 0.02698 0.9622 0.77728 0.0
O337 O 1.0066 0.97604 0.64141 0.0
O338 O 0.98919 0.04576 0.58034 0.0
O339 O 0.95586 1.01517 0.61975 0.0
O340 O 0.99219 0.01852 0.84411 0.0
O341 O 0.96284 0.99342 0.77519 0.0
O342 O 1.00379 0.06269 0.74232 0.0
O343 O 0.02515 0.04981 0.87786 0.0
H344 H 0.06829 0.93493 0.87283 0.0
H345 H 0.10027 0.89457 0.90676 0.0
H346 H 0.14771 0.94797 0.09766 0.0
H347 H 0.11475 0.98819 0.066 0.0
H348 H 0.95124 0.06939 0.41838 0.0
H349 H 0.92094 0.11206 0.4099 0.0
H350 H 0.89427 0.0988 0.69386 0.0
H351 H 0.92633 0.05683 0.70319 0.0
Tb352 Tb 0.51925 0.0355 0.81768 0.0
Tb353 Tb 0.50706 0.99334 0.6855 0.0
C354 C 0.53949 0.06734 0.94242 0.0
C355 C 0.56337 0.088 0.94442 0.0
C356 C 0.57304 0.09871 0.0291 0.0
C357 C 0.59798 0.11553 0.03268 0.0
C358 C 0.61362 0.12177 0.95152 0.0
C359 C 0.60264 0.1127 0.86596 0.0
C360 C 0.57775 0.09576 0.86249 0.0
C361 C 0.50246 0.05884 0.65699 0.0
C362 C 0.57014 1.01422 0.68637 0.0
C363 C 0.48833 0.96115 0.55949 0.0
C364 C 0.46685 0.93803 0.55518 0.0
C365 C 0.45457 0.93115 0.4701 0.0
C366 C 0.43175 0.91166 0.46582 0.0
C367 C 0.42096 0.89836 0.5467 0.0
C368 C 0.43466 0.90402 0.63135 0.0
C369 C 0.45735 0.92386 0.63566 0.0
C370 C 0.52364 0.96999 0.84629 0.0
C371 C 0.45593 1.01441 0.81785 0.0
O372 O 0.54689 0.04033 0.93112 0.0
O373 O 0.51782 0.0746 0.89017 0.0
O374 O 0.51923 0.03764 0.66763 0.0
O375 O 0.49487 0.06743 0.73815 0.0
O376 O 0.56333 0.02408 0.76939 0.0
O377 O 0.5493 1.00552 0.63147 0.0
O378 O 0.47828 0.98706 0.57565 0.0
O379 O 0.51119 0.95542 0.60833 0.0
O380 O 0.50692 0.99121 0.83556 0.0
O381 O 0.53137 0.96154 0.76519 0.0
O382 O 0.46276 1.00358 0.73584 0.0
O383 O 0.47671 0.02436 0.87092 0.0
H384 H 0.56206 0.093 0.09282 0.0
H385 H 0.60606 0.122 0.09968 0.0
H386 H 0.61411 0.11747 0.80239 0.0
H387 H 0.57035 0.08778 0.79633 0.0
H388 H 0.46169 0.94193 0.40744 0.0
H389 H 0.42129 0.90877 0.39973 0.0
H390 H 0.42687 0.89425 0.6948 0.0
H391 H 0.46675 0.92894 0.70213 0.0
Tb392 Tb 0.48905 0.52463 0.84073 0.0
Tb393 Tb 0.53166 0.51388 0.70366 0.0
C394 C 0.46019 0.54181 0.97767 0.0
C395 C 0.44061 0.56527 1.0057 0.0
C396 C 0.4473 0.58096 0.0853 0.0
C397 C 0.42939 0.60323 0.11493 0.0
C398 C 0.40396 0.60999 0.06673 0.0
C399 C 0.39706 0.59406 0.98722 0.0
C400 C 0.41525 0.57182 0.95687 0.0
C401 C 0.46598 0.50861 0.68016 0.0
C402 C 0.5094 0.57714 0.71141 0.0
C403 C 0.56277 0.4966 0.57227 0.0
C404 C 0.58443 0.47396 0.55834 0.0
C405 C 0.58746 0.46184 0.47059 0.0
C406 C 0.60617 0.43873 0.45671 0.0
C407 C 0.62267 0.42753 0.53023 0.0
C408 C 0.62041 0.4406 0.61763 0.0
C409 C 0.60129 0.46358 0.63173 0.0
C410 C 0.55408 0.52945 0.86609 0.0
C411 C 0.51104 0.46102 0.83099 0.0
O412 O 0.48714 0.54889 0.96299 0.0
O413 O 0.45067 0.52325 0.91717 0.0
O414 O 0.48713 0.52542 0.69107 0.0
O415 O 0.45684 0.50107 0.76116 0.0
O416 O 0.4973 0.56948 0.79105 0.0
O417 O 0.52055 0.55719 0.65716 0.0
O418 O 0.53632 0.48774 0.58609 0.0
O419 O 0.56999 0.51744 0.62807 0.0
O420 O 0.53342 0.51235 0.85261 0.0
O421 O 0.56304 0.53799 0.78611 0.0
O422 O 0.52276 0.46888 0.75097 0.0
O423 O 0.49986 0.48097 0.8852 0.0
H424 H 0.46669 0.57623 0.1241 0.0
H425 H 0.43604 0.61575 0.17426 0.0
H426 H 0.37777 0.59896 0.94822 0.0
H427 H 0.40954 0.55995 0.8952 0.0
H428 H 0.57451 0.46955 0.41338 0.0
H429 H 0.60634 0.42864 0.38932 0.0
H430 H 0.63263 0.43242 0.67571 0.0
H431 H 0.59915 0.47271 0.70028 0.0
Tb432 Tb 1.00975 0.49612 0.80883 0.0
Tb433 Tb 0.0225 0.53923 0.67787 0.0
C434 C 0.98889 0.46388 0.93254 0.0
C435 C 0.96389 0.44457 0.93568 0.0
C436 C 0.95457 0.43326 1.02043 0.0
C437 C 0.92879 0.41777 0.02564 0.0
C438 C 0.91195 0.41358 0.94616 0.0
C439 C 0.92237 0.42328 0.86025 0.0
C440 C 0.94821 0.43871 0.85506 0.0
C441 C 0.02849 0.47377 0.64965 0.0
C442 C 0.95931 0.51799 0.67601 0.0
C443 C 0.04226 0.57082 0.55063 0.0
C444 C 0.06465 0.59297 0.54025 0.0
C445 C 0.07723 0.5971 0.45341 0.0
C446 C 0.0998 0.61665 0.44221 0.0
C447 C 0.11002 0.63294 0.51754 0.0
C448 C 0.09656 0.62944 0.60421 0.0
C449 C 0.07411 0.6095 0.6156 0.0
C450 C 1.00473 0.56158 0.83883 0.0
C451 C 0.07299 0.51788 0.81192 0.0
O452 O 0.98295 0.49141 0.92507 0.0
O453 O 1.00954 0.45607 0.87664 0.0
O454 O 1.01108 0.49463 0.65877 0.0
O455 O 0.03579 0.46542 0.73135 0.0
O456 O 0.96583 0.50598 0.75641 0.0
O457 O 0.98009 0.52868 0.62404 0.0
O458 O 0.05124 0.54448 0.56648 0.0
O459 O 0.02021 0.57773 0.60216 0.0
O460 O 0.02153 0.54045 0.82763 0.0
O461 O 0.99792 0.57095 0.75775 0.0
O462 O 0.06638 0.53009 0.73175 0.0
O463 O 0.05237 0.50625 0.86283 0.0
H464 H 0.96656 0.43748 0.08311 0.0
H465 H 0.92107 0.41075 0.09282 0.0
H466 H 0.90982 0.42022 0.79806 0.0
H467 H 0.95537 0.44704 0.78881 0.0
H468 H 0.07024 0.58447 0.39464 0.0
H469 H 0.11022 0.61769 0.37523 0.0
H470 H 0.10397 0.64143 0.66374 0.0
H471 H 0.06459 0.60652 0.68345 0.0
C472 C 0.09192 1.00678 0.43027 0.0
C473 C 0.11995 0.01874 0.4346 0.0
C474 C 0.07207 1.00957 0.50388 0.0
C475 C 0.07923 0.02458 0.58519 0.0
H476 H 0.08543 0.99453 0.3702 0.0
H477 H 0.05124 0.99917 0.49799 0.0
S478 S 0.14899 0.06116 0.63136 0.0
N479 N 0.15325 0.04678 0.52801 0.0
N480 N 0.11582 0.05294 0.66344 0.0
C481 C 0.10661 0.03776 0.58887 0.0
C482 C 0.12692 0.03466 0.51452 0.0
C483 C 0.49684 0.1282 0.5145 0.0
C484 C 0.50945 0.12097 0.42876 0.0
C485 C 0.49369 0.10771 0.58591 0.0
C486 C 0.50321 0.07897 0.57573 0.0
H487 H 0.49037 0.15025 0.52836 0.0
H488 H 0.48459 0.11485 0.65099 0.0
S489 S 0.53435 0.04751 0.362 0.0
N490 N 0.52879 0.08177 0.33523 0.0
N491 N 0.52358 0.04369 0.47027 0.0
C492 C 0.51471 0.071 0.48935 0.0
C493 C 0.5177 0.09183 0.416 0.0
C494 C 0.39765 0.50381 0.53475 0.0
C495 C 0.40625 0.51362 0.44643 0.0
C496 C 0.41729 0.50134 0.60818 0.0
C497 C 0.44653 0.50896 0.59778 0.0
H498 H 0.37523 0.49894 0.54881 0.0
H499 H 0.40914 0.49429 0.67476 0.0
S500 S 0.48139 0.53283 0.37946 0.0
N501 N 0.4472 0.52832 0.35137 0.0
N502 N 0.48365 0.52483 0.49053 0.0
C503 C 0.45579 0.51792 0.50956 0.0
C504 C 0.43584 0.52002 0.43394 0.0
C505 C 1.01166 0.43892 0.41555 0.0
C506 C 0.02398 0.41103 0.42308 0.0
C507 C 1.01407 0.45956 0.48694 0.0
C508 C 0.02911 0.4534 0.56905 0.0
H509 H 0.99944 0.44473 0.35466 0.0
H510 H 1.00338 0.48022 0.4787 0.0
S511 S 0.06662 0.38445 0.62334 0.0
N512 N 0.05233 0.37899 0.52066 0.0
N513 N 0.05798 0.41788 0.65129 0.0
C514 C 0.04268 0.42619 0.57576 0.0
C515 C 0.03989 0.40506 0.50391 0.0
C516 C 0.90195 0.99705 0.99793 0.0
C517 C 0.90938 1.00944 0.08358 0.0
C518 C 0.92236 0.99352 0.92668 0.0
C519 C 0.95121 1.00246 0.93694 0.0
H520 H 0.87983 0.99102 0.98404 0.0
H521 H 0.9151 0.98461 0.86166 0.0
S522 S 0.98311 0.03287 0.15033 0.0
N523 N 0.94882 0.02792 0.17709 0.0
N524 N 0.98675 0.02213 0.04215 0.0
C525 C 0.95934 1.01379 0.02314 0.0
C526 C 0.93859 0.01711 0.09639 0.0
C527 C 0.50574 0.93854 0.08498 0.0
C528 C 0.51417 0.90926 0.07778 0.0
C529 C 0.50968 0.95828 1.0114 0.0
C530 C 0.52246 0.94976 0.92735 0.0
H531 H 0.49553 0.94626 0.14763 0.0
H532 H 0.5021 0.98026 1.01983 0.0
S533 S 0.54877 0.87594 0.87178 0.0
N534 N 0.53588 0.87305 0.9778 0.0
N535 N 0.54437 0.91011 0.84242 0.0
C536 C 0.53191 0.92087 0.92023 0.0
C537 C 0.52754 0.9007 0.99448 0.0
C538 C 0.59869 0.49906 0.06525 0.0
C539 C 0.61822 0.52165 0.08508 0.0
C540 C 0.57695 0.50216 0.99803 0.0
C541 C 0.574 0.52785 0.94664 0.0
H542 H 0.6009 0.47829 0.09911 0.0
H543 H 0.56325 0.48379 0.98323 0.0
S544 S 0.61639 0.59492 0.97904 0.0
N545 N 0.63035 0.57197 0.05417 0.0
N546 N 0.59063 0.57706 0.92527 0.0
C547 C 0.59242 0.55096 0.96808 0.0
C548 C 0.61419 0.54806 0.03767 0.0
C549 C 1.00115 0.63021 0.98453 0.0
C550 C 1.01157 0.62149 0.07175 0.0
C551 C 0.99795 0.6105 0.91134 0.0
C552 C 1.0053 0.5811 0.92117 0.0
H553 H 0.99648 0.65275 0.97109 0.0
H554 H 0.99062 0.61871 0.84532 0.0
S555 S 0.03005 0.54597 0.13751 0.0
N556 N 0.02626 0.58032 0.16573 0.0
N557 N 0.02125 0.54373 0.02726 0.0
C558 C 0.01461 0.57173 1.00869 0.0
C559 C 0.01753 0.59175 0.08389 0.0
C560 C 0.87713 0.1763 0.44211 0.0
C561 C 0.88845 0.19749 0.50155 0.0
C562 C 0.87823 0.14704 0.46582 0.0
C563 C 0.89134 0.13799 0.54848 0.0
H564 H 0.87084 0.18162 0.37215 0.0
H565 H 0.87214 0.13132 0.41407 0.0
S566 S 0.91221 0.18571 0.74311 0.0
N567 N 0.90299 0.2081 0.65924 0.0
N568 N 0.90756 0.1529 0.70122 0.0
C569 C 0.89741 0.15914 0.61547 0.0
C570 C 0.89532 0.18904 0.59238 0.0
C571 C 0.34166 0.89189 0.58344 0.0
C572 C 0.33308 0.88286 0.49477 0.0
C573 C 0.37086 0.8931 0.60701 0.0
C574 C 0.39221 0.88416 0.54394 0.0
H575 H 0.32621 0.90186 0.62978 0.0
H576 H 0.37662 0.90446 0.6696 0.0
S577 S 0.3799 0.84532 0.32424 0.0
N578 N 0.34755 0.85604 0.35726 0.0
N579 N 0.40214 0.85593 0.40624 0.0
C580 C 0.38333 0.8687 0.46563 0.0
C581 C 0.35369 0.86847 0.43982 0.0
C582 C 0.63661 0.3482 0.55747 0.0
C583 C 0.64357 0.34053 0.46579 0.0
C584 C 0.63313 0.37717 0.58266 0.0
C585 C 0.63781 0.39947 0.51809 0.0
H586 H 0.63041 0.33175 0.60712 0.0
H587 H 0.62372 0.38174 0.64964 0.0
S588 S 0.66945 0.39155 0.28415 0.0
N589 N 0.66336 0.35814 0.3193 0.0
N590 N 0.65956 0.41244 0.37085 0.0
C591 C 0.65092 0.39227 0.43359 0.0
C592 C 0.65333 0.36277 0.40634 0.0
C593 C 0.18847 0.64941 0.54891 0.0
C594 C 0.1965 0.65591 0.45695 0.0
C595 C 0.1595 0.64535 0.57316 0.0
C596 C 0.13754 0.64928 0.50755 0.0
H597 H 0.20469 0.64377 0.59951 0.0
H598 H 0.15478 0.63605 0.64023 0.0
S599 S 0.14607 0.68185 0.27495 0.0
N600 N 0.17931 0.67598 0.31062 0.0
N601 N 0.12502 0.67144 0.36088 0.0
C602 C 0.14495 0.66278 0.42371 0.0
C603 C 0.17446 0.66559 0.39719 0.0
C604 C 0.14704 0.85882 0.16911 0.0
C605 C 0.15288 0.83558 0.10914 0.0
C606 C 0.1416 0.88653 0.13479 0.0
C607 C 0.14175 0.89206 0.03924 0.0
H608 H 0.14354 0.85514 0.24225 0.0
H609 H 0.13441 0.9029 0.18303 0.0
S610 S 0.16432 0.84095 0.85592 0.0
N611 N 0.16493 0.82152 0.95188 0.0
N612 N 0.15438 0.87381 0.88702 0.0
C613 C 0.15131 0.87007 0.9797 0.0
C614 C 0.15701 0.84179 1.01479 0.0
C615 C 0.67752 0.16066 0.05217 0.0
C616 C 0.70023 0.14161 0.02984 0.0
C617 C 0.64955 0.15605 1.01885 0.0
C618 C 0.6435 0.1328 0.95975 0.0
H619 H 0.68073 0.17763 0.10248 0.0
H620 H 0.63217 0.16938 0.0451 0.0
S621 S 0.69637 0.08141 0.86007 0.0
N622 N 0.71536 0.10176 0.93053 0.0
N623 N 0.6632 0.09405 0.86596 0.0
C624 C 0.66666 0.11635 0.92594 0.0
C625 C 0.69501 0.12062 0.96109 0.0
C626 C 0.37229 0.68494 0.05644 0.0
C627 C 0.37245 0.69295 0.15045 0.0
C628 C 0.37971 0.65686 0.02905 0.0
C629 C 0.38683 0.63566 0.09491 0.0
H630 H 0.36936 0.70119 1.00325 0.0
H631 H 0.38254 0.65265 0.95599 0.0
S632 S 0.38088 0.6425 0.34943 0.0
N633 N 0.37401 0.67519 0.30949 0.0
N634 N 0.38626 0.62232 0.25727 0.0
C635 C 0.38226 0.64203 0.18866 0.0
C636 C 0.37529 0.67068 0.21675 0.0
C637 C 0.847 0.37438 0.04217 0.0
C638 C 0.82483 0.3947 0.02723 0.0
C639 C 0.87502 0.37918 1.00876 0.0
C640 C 0.88167 0.40406 0.95705 0.0
H641 H 0.84326 0.35577 0.08618 0.0
H642 H 0.89199 0.36433 0.0285 0.0
S643 S 0.83097 0.46167 0.88499 0.0
N644 N 0.81126 0.43927 0.94755 0.0
N645 N 0.86348 0.44732 0.88229 0.0
C646 C 0.85917 0.4228 0.93255 0.0
C647 C 0.8308 0.41831 0.9679 0.0
C648 C 0.02015 0.1362 0.9825 0.0
C649 C 1.00946 0.15928 0.92878 0.0
C650 C 0.02194 0.10781 0.94767 0.0
C651 C 1.01315 0.10093 0.85698 0.0
H652 H 0.02654 0.13989 0.05354 0.0
H653 H 0.02994 0.09107 0.99304 0.0
S654 S 0.98542 0.15365 0.68454 0.0
N655 N 0.99142 0.17334 0.77754 0.0
N656 N 0.99437 0.12025 0.71272 0.0
C657 C 1.0029 0.12389 0.8017 0.0
C658 C 1.00113 0.15286 0.83724 0.0
C659 C 0.37459 0.99879 0.83633 0.0
C660 C 0.36715 1.00855 0.92575 0.0
C661 C 0.403 1.00114 0.80138 0.0
C662 C 0.42545 1.01322 0.85431 0.0
H663 H 0.35831 0.98907 0.79287 0.0
H664 H 0.40741 0.99305 0.73263 0.0
S665 S 0.4178 0.04128 0.09407 0.0
N666 N 0.38512 0.03015 0.06711 0.0
N667 N 0.43788 0.03501 1.00195 0.0
C668 C 0.41821 0.02326 0.94364 0.0
C669 C 0.38934 0.02085 0.97906 0.0
C670 C 0.52722 0.37946 0.84224 0.0
C671 C 0.5179 0.37129 0.93169 0.0
C672 C 0.52462 0.40817 0.80962 0.0
C673 C 0.51264 0.43021 0.86497 0.0
H674 H 0.53677 0.3635 0.79686 0.0
H675 H 0.53234 0.41314 0.7407 0.0
S676 S 0.48593 0.4207 0.10619 0.0
N677 N 0.49703 0.38821 0.07592 0.0
N678 N 0.4916 0.44149 1.01514 0.0
C679 C 0.50308 0.42226 0.95443 0.0
C680 C 0.5058 0.3931 0.98751 0.0
C681 C 0.13852 0.50195 0.96366 0.0
C682 C 0.15935 0.52235 0.93502 0.0
C683 C 0.11113 0.50042 0.92235 0.0
C684 C 0.10312 0.51902 0.84951 0.0
H685 H 0.14329 0.48709 1.01951 0.0
H686 H 0.096 0.48454 0.94851 0.0
S687 S 0.14924 0.57654 0.74759 0.0
N688 N 0.16958 0.56189 0.82862 0.0
N689 N 0.11856 0.55846 0.74972 0.0
C690 C 0.12388 0.53909 0.81831 0.0
C691 C 0.15179 0.54085 0.86112 0.0
C692 C 0.02533 0.87267 0.68244 0.0
C693 C 0.02182 0.86647 0.58752 0.0
C694 C 0.02372 0.90122 0.71677 0.0
C695 C 0.01852 0.92497 0.65782 0.0
H696 H 0.02931 0.85526 0.73091 0.0
H697 H 0.02646 0.90464 0.79021 0.0
S698 S 1.01034 0.92102 0.40233 0.0
N699 N 0.01475 0.88711 0.4347 0.0
N700 N 1.01127 0.94015 0.4983 0.0
C701 C 0.01527 0.91907 0.56262 0.0
C702 C 0.017 0.89009 0.52784 0.0
C703 C 0.63453 1.01509 0.52004 0.0
C704 C 0.65876 0.01622 0.57854 0.0
C705 C 0.60621 1.01432 0.55553 0.0
C706 C 0.60063 1.01484 0.65141 0.0
H707 H 0.63737 1.01547 0.44571 0.0
H708 H 0.58851 1.01379 0.50696 0.0
S709 S 0.6562 1.0148 0.83528 0.0
N710 N 0.67502 1.01564 0.73817 0.0
N711 N 0.62197 1.01483 0.80442 0.0
C712 C 0.62459 1.01549 0.71091 0.0
C713 C 0.65351 0.01603 0.67473 0.0
C714 C 0.48423 0.65472 0.6625 0.0
C715 C 0.50538 0.66548 0.60067 0.0
C716 C 0.48602 0.62663 0.70074 0.0
C717 C 0.50885 0.60784 0.67798 0.0
H718 H 0.46557 0.66775 0.67941 0.0
H719 H 0.46885 0.61923 0.74586 0.0
S720 S 0.57181 0.62631 0.52993 0.0
N721 N 0.55161 0.65566 0.52742 0.0
N722 N 0.55433 0.60296 0.59583 0.0
C723 C 0.53061 0.61862 0.61903 0.0
C724 C 0.52904 0.64729 0.58133 0.0
C725 C 0.8807 0.49606 0.63121 0.0
C726 C 0.87162 0.51583 0.56255 0.0
C727 C 0.90866 0.49726 0.66959 0.0
C728 C 0.92894 0.51811 0.64042 0.0
H729 H 0.86641 0.47889 0.65358 0.0
H730 H 0.91468 0.48116 0.72042 0.0
S731 S 0.91498 0.57739 0.47275 0.0
N732 N 0.88454 0.55894 0.47539 0.0
N733 N 0.93689 0.56062 0.54473 0.0
C734 C 0.91978 0.53864 0.57463 0.0
C735 C 0.89128 0.53765 0.53651 0.0
loop_
_geom_bond_atom_site_label_1
_geom_bond_atom_site_label_2
_geom_bond_distance
_geom_bond_site_symmetry_2
_ccdc_geom_bond_type
C0 C1 1.386 . S
C0 C2 1.397 . S
C0 H24 0.931 . S
C1 C0 1.386 . S
C1 C5 1.397 . S
C2 C0 1.397 . S
C2 C3 1.384 . S
C2 H25 0.930 . S
C3 C2 1.384 . S
C3 C4 1.377 . S
C3 C6 1.481 . S
C4 C3 1.377 . S
C4 C5 1.389 . S
C4 H26 0.929 . S
C5 C1 1.397 . S
C5 C4 1.389 . S
C5 H27 0.931 . S
C6 C3 1.481 . S
C6 C7 1.387 . S
C6 C11 1.390 . S
C7 C6 1.387 . S
C7 C8 1.401 . S
C7 H28 0.930 . S
C8 C7 1.401 . S
C8 C9 1.376 . S
C8 C17 1.511 . S
C9 C8 1.376 . S
C9 C10 1.392 . S
C9 H30 0.931 . S
C10 C9 1.392 . S
C10 C11 1.361 . S
C10 C12 1.500 . S
C11 C6 1.390 . S
C11 C10 1.361 . S
C11 H29 0.931 . S
C12 C10 1.500 . S
C12 C13 1.371 . S
C12 C14 1.365 . S
C13 C12 1.371 . S
C13 C23 1.386 . S
C13 H31 0.931 . S
C14 C12 1.365 . S
C14 C15 1.409 . S
C14 H32 0.929 . S
C15 C14 1.409 . S
C15 C16 1.380 . S
C15 H33 0.930 . S
C16 C15 1.380 . S
C16 C23 1.357 . S
C17 C8 1.511 . S
C17 C18 1.341 . S
C17 C19 1.371 . S
C18 C17 1.341 . S
C18 C22 1.394 . S
C18 H34 0.930 . S
C19 C17 1.371 . S
C19 C20 1.392 . S
C19 H35 0.931 . S
C20 C19 1.392 . S
C20 C21 1.331 . S
C20 H38 0.932 . S
C21 C20 1.331 . S
C21 C22 1.336 . S
C22 C18 1.394 . S
C22 C21 1.336 . S
C22 H37 0.929 . S
C23 C13 1.386 . S
C23 C16 1.357 . S
C23 H36 0.928 . S
H24 C0 0.931 . S
H25 C2 0.930 . S
H26 C4 0.929 . S
H27 C5 0.931 . S
H28 C7 0.930 . S
H29 C11 0.931 . S
H30 C9 0.931 . S
H31 C13 0.931 . S
H32 C14 0.929 . S
H33 C15 0.930 . S
H34 C18 0.930 . S
H35 C19 0.931 . S
H36 C23 0.928 . S
H37 C22 0.929 . S
H38 C20 0.932 . S
C39 C40 1.394 . S
C39 C41 1.397 . S
C39 H63 0.931 . S
C40 C39 1.394 . S
C40 C44 1.389 1_655 S
C41 C39 1.397 . S
C41 C42 1.389 . S
C41 H64 0.930 . S
C42 C41 1.389 . S
C42 C43 1.373 1_655 S
C42 C45 1.480 . S
C43 C42 1.373 1_455 S
C43 C44 1.389 . S
C43 H65 0.929 . S
C44 C40 1.389 1_455 S
C44 C43 1.389 . S
C44 H66 0.931 . S
C45 C42 1.480 . S
C45 C46 1.388 . S
C45 C50 1.390 . S
C46 C45 1.388 . S
C46 C47 1.402 . S
C46 H67 0.930 . S
C47 C46 1.402 . S
C47 C48 1.377 . S
C47 C56 1.513 . S
C48 C47 1.377 . S
C48 C49 1.392 . S
C48 H69 0.931 . S
C49 C48 1.392 . S
C49 C50 1.361 . S
C49 C51 1.499 1_655 S
C50 C45 1.390 . S
C50 C49 1.361 . S
C50 H68 0.931 . S
C51 C49 1.499 1_455 S
C51 C52 1.361 1_455 S
C51 C53 1.376 . S
C52 C51 1.361 1_655 S
C52 C62 1.386 . S
C52 H70 0.931 . S
C53 C51 1.376 . S
C53 C54 1.409 . S
C53 H71 0.929 . S
C54 C53 1.409 . S
C54 C55 1.380 . S
C54 H72 0.930 . S
C55 C54 1.380 . S
C55 C62 1.357 1_455 S
C56 C47 1.513 . S
C56 C57 1.341 . S
C56 C58 1.371 1_655 S
C57 C56 1.341 . S
C57 C61 1.394 . S
C57 H73 0.930 . S
C58 C56 1.371 1_455 S
C58 C59 1.392 . S
C58 H74 0.931 . S
C59 C58 1.392 . S
C59 C60 1.322 1_455 S
C59 H77 0.932 . S
C60 C59 1.322 1_655 S
C60 C61 1.345 . S
C61 C57 1.394 . S
C61 C60 1.345 . S
C61 H76 0.929 . S
C62 C52 1.386 . S
C62 C55 1.357 1_655 S
C62 H75 0.928 . S
H63 C39 0.931 . S
H64 C41 0.930 . S
H65 C43 0.929 . S
H66 C44 0.931 . S
H67 C46 0.930 . S
H68 C50 0.931 . S
H69 C48 0.931 . S
H70 C52 0.931 . S
H71 C53 0.929 . S
H72 C54 0.930 . S
H73 C57 0.930 . S
H74 C58 0.931 . S
H75 C62 0.928 . S
H76 C61 0.929 . S
H77 C59 0.932 . S
C78 C79 1.394 . S
C78 C80 1.397 . S
C78 H102 0.931 . S
C79 C78 1.394 . S
C79 C83 1.389 1_565 S
C80 C78 1.397 . S
C80 C81 1.389 . S
C80 H103 0.930 . S
C81 C80 1.389 . S
C81 C82 1.373 1_565 S
C81 C84 1.481 . S
C82 C81 1.373 1_545 S
C82 C83 1.389 . S
C82 H104 0.929 . S
C83 C79 1.389 1_545 S
C83 C82 1.389 . S
C83 H105 0.931 . S
C84 C81 1.481 . S
C84 C85 1.389 . S
C84 C89 1.390 . S
C85 C84 1.389 . S
C85 C86 1.403 . S
C85 H106 0.930 . S
C86 C85 1.403 . S
C86 C87 1.376 . S
C86 C95 1.513 . S
C87 C86 1.376 . S
C87 C88 1.392 . S
C87 H108 0.931 . S
C88 C87 1.392 . S
C88 C89 1.361 . S
C88 C90 1.499 1_565 S
C89 C84 1.390 . S
C89 C88 1.361 . S
C89 H107 0.931 . S
C90 C88 1.499 1_545 S
C90 C91 1.361 1_545 S
C90 C92 1.376 . S
C91 C90 1.361 1_565 S
C91 C101 1.386 . S
C91 H109 0.931 . S
C92 C90 1.376 . S
C92 C93 1.409 . S
C92 H110 0.929 . S
C93 C92 1.409 . S
C93 C94 1.380 . S
C93 H111 0.930 . S
C94 C93 1.380 . S
C94 C101 1.357 1_545 S
C95 C86 1.513 . S
C95 C96 1.341 . S
C95 C97 1.371 1_565 S
C96 C95 1.341 . S
C96 C100 1.394 . S
C96 H112 0.930 . S
C97 C95 1.371 1_545 S
C97 C98 1.392 . S
C97 H113 0.931 . S
C98 C97 1.392 . S
C98 C99 1.322 1_545 S
C98 H116 0.932 . S
C99 C98 1.322 1_565 S
C99 C100 1.345 . S
C100 C96 1.394 . S
C100 C99 1.345 . S
C100 H115 0.929 . S
C101 C91 1.386 . S
C101 C94 1.357 1_565 S
C101 H114 0.928 . S
H102 C78 0.931 . S
H103 C80 0.930 . S
H104 C82 0.929 . S
H105 C83 0.931 . S
H106 C85 0.930 . S
H107 C89 0.931 . S
H108 C87 0.931 . S
H109 C91 0.931 . S
H110 C92 0.929 . S
H111 C93 0.930 . S
H112 C96 0.930 . S
H113 C97 0.931 . S
H114 C101 0.928 . S
H115 C100 0.929 . S
H116 C98 0.932 . S
C117 C118 1.386 . S
C117 C119 1.397 . S
C117 H141 0.931 . S
C118 C117 1.386 . S
C118 C122 1.397 . S
C119 C117 1.397 . S
C119 C120 1.384 . S
C119 H142 0.930 . S
C120 C119 1.384 . S
C120 C121 1.377 . S
C120 C123 1.481 . S
C121 C120 1.377 . S
C121 C122 1.389 . S
C121 H143 0.929 . S
C122 C118 1.397 . S
C122 C121 1.389 . S
C122 H144 0.931 . S
C123 C120 1.481 . S
C123 C124 1.387 . S
C123 C128 1.390 . S
C124 C123 1.387 . S
C124 C125 1.401 . S
C124 H145 0.930 . S
C125 C124 1.401 . S
C125 C126 1.376 . S
C125 C134 1.511 . S
C126 C125 1.376 . S
C126 C127 1.392 . S
C126 H147 0.931 . S
C127 C126 1.392 . S
C127 C128 1.361 . S
C127 C129 1.500 . S
C128 C123 1.390 . S
C128 C127 1.361 . S
C128 H146 0.931 . S
C129 C127 1.500 . S
C129 C130 1.371 . S
C129 C131 1.365 . S
C130 C129 1.371 . S
C130 C140 1.386 . S
C130 H148 0.931 . S
C131 C129 1.365 . S
C131 C132 1.409 . S
C131 H149 0.929 . S
C132 C131 1.409 . S
C132 C133 1.380 . S
C132 H150 0.930 . S
C133 C132 1.380 . S
C133 C140 1.357 . S
C134 C125 1.511 . S
C134 C135 1.341 . S
C134 C136 1.371 . S
C135 C134 1.341 . S
C135 C139 1.394 . S
C135 H151 0.930 . S
C136 C134 1.371 . S
C136 C137 1.392 . S
C136 H152 0.931 . S
C137 C136 1.392 . S
C137 C138 1.331 . S
C137 H155 0.932 . S
C138 C137 1.331 . S
C138 C139 1.336 . S
C139 C135 1.394 . S
C139 C138 1.336 . S
C139 H154 0.929 . S
C140 C130 1.386 . S
C140 C133 1.357 . S
C140 H153 0.928 . S
H141 C117 0.931 . S
H142 C119 0.930 . S
H143 C121 0.929 . S
H144 C122 0.931 . S
H145 C124 0.930 . S
H146 C128 0.931 . S
H147 C126 0.931 . S
H148 C130 0.931 . S
H149 C131 0.929 . S
H150 C132 0.930 . S
H151 C135 0.930 . S
H152 C136 0.931 . S
H153 C140 0.928 . S
H154 C139 0.929 . S
H155 C137 0.932 . S
C156 C157 1.386 . S
C156 C158 1.397 . S
C156 H180 0.931 . S
C157 C156 1.386 . S
C157 C161 1.397 . S
C158 C156 1.397 . S
C158 C159 1.384 . S
C158 H181 0.930 . S
C159 C158 1.384 . S
C159 C160 1.377 . S
C159 C162 1.481 . S
C160 C159 1.377 . S
C160 C161 1.389 . S
C160 H182 0.929 . S
C161 C157 1.397 . S
C161 C160 1.389 . S
C161 H183 0.931 . S
C162 C159 1.481 . S
C162 C163 1.387 . S
C162 C167 1.390 . S
C163 C162 1.387 . S
C163 C164 1.401 . S
C163 H184 0.930 . S
C164 C163 1.401 . S
C164 C165 1.376 1_554 S
C164 C173 1.511 . S
C165 C164 1.376 1_556 S
C165 C166 1.392 . S
C165 H186 0.931 . S
C166 C165 1.392 . S
C166 C167 1.361 1_556 S
C166 C168 1.500 . S
C167 C162 1.390 . S
C167 C166 1.361 1_554 S
C167 H185 0.931 . S
C168 C166 1.500 . S
C168 C169 1.371 . S
C168 C170 1.365 . S
C169 C168 1.371 . S
C169 C179 1.386 . S
C169 H187 0.931 . S
C170 C168 1.365 . S
C170 C171 1.409 . S
C170 H188 0.929 . S
C171 C170 1.409 . S
C171 C172 1.380 . S
C171 H189 0.930 . S
C172 C171 1.380 . S
C172 C179 1.357 . S
C173 C164 1.511 . S
C173 C174 1.341 . S
C173 C175 1.371 . S
C174 C173 1.341 . S
C174 C178 1.394 . S
C174 H190 0.930 . S
C175 C173 1.371 . S
C175 C176 1.392 . S
C175 H191 0.931 1_554 S
C176 C175 1.392 . S
C176 C177 1.331 . S
C176 H194 0.932 . S
C177 C176 1.331 . S
C177 C178 1.336 . S
C178 C174 1.394 . S
C178 C177 1.336 . S
C178 H193 0.929 . S
C179 C169 1.386 . S
C179 C172 1.357 . S
C179 H192 0.928 . S
H180 C156 0.931 . S
H181 C158 0.930 . S
H182 C160 0.929 . S
H183 C161 0.931 . S
H184 C163 0.930 . S
H185 C167 0.931 . S
H186 C165 0.931 . S
H187 C169 0.931 . S
H188 C170 0.929 . S
H189 C171 0.930 . S
H190 C174 0.930 . S
H191 C175 0.931 1_556 S
H192 C179 0.928 . S
H193 C178 0.929 . S
H194 C176 0.932 . S
C195 C196 1.389 . S
C195 C197 1.397 . S
C195 H219 0.931 . S
C196 C195 1.389 . S
C196 C200 1.394 1_655 S
C197 C195 1.397 . S
C197 C198 1.383 . S
C197 H220 0.930 . S
C198 C197 1.383 . S
C198 C199 1.378 1_655 S
C198 C201 1.480 . S
C199 C198 1.378 1_455 S
C199 C200 1.389 . S
C199 H221 0.929 . S
C200 C196 1.394 1_455 S
C200 C199 1.389 . S
C200 H222 0.931 . S
C201 C198 1.480 . S
C201 C202 1.388 . S
C201 C206 1.390 . S
C202 C201 1.388 . S
C202 C203 1.402 . S
C202 H223 0.930 . S
C203 C202 1.402 . S
C203 C204 1.376 1_554 S
C203 C212 1.512 . S
C204 C203 1.376 1_556 S
C204 C205 1.392 1_655 S
C204 H225 0.934 . S
C205 C204 1.392 1_455 S
C205 C206 1.361 1_456 S
C205 C207 1.499 . S
C206 C201 1.390 . S
C206 C205 1.361 1_654 S
C206 H224 0.931 . S
C207 C205 1.499 . S
C207 C208 1.357 1_455 S
C207 C209 1.380 . S
C208 C207 1.357 1_655 S
C208 C218 1.386 . S
C208 H226 0.931 . S
C209 C207 1.380 . S
C209 C210 1.409 . S
C209 H227 0.929 . S
C210 C209 1.409 . S
C210 C211 1.384 . S
C210 H228 0.930 . S
C211 C210 1.384 . S
C211 C218 1.353 1_455 S
C212 C203 1.512 . S
C212 C213 1.341 . S
C212 C214 1.371 1_655 S
C213 C212 1.341 . S
C213 C217 1.394 . S
C213 H229 0.930 . S
C214 C212 1.371 1_455 S
C214 C215 1.392 . S
C214 H230 0.931 1_554 S
C215 C214 1.392 . S
C215 C216 1.325 1_455 S
C215 H233 0.932 . S
C216 C215 1.325 1_655 S
C216 C217 1.342 . S
C217 C213 1.394 . S
C217 C216 1.342 . S
C217 H232 0.929 . S
C218 C208 1.386 . S
C218 C211 1.353 1_655 S
C218 H231 0.928 . S
H219 C195 0.931 . S
H220 C197 0.930 . S
H221 C199 0.929 . S
H222 C200 0.931 . S
H223 C202 0.930 . S
H224 C206 0.931 . S
H225 C204 0.934 . S
H226 C208 0.931 . S
H227 C209 0.929 . S
H228 C210 0.930 . S
H229 C213 0.930 . S
H230 C214 0.931 1_556 S
H231 C218 0.928 . S
H232 C217 0.929 . S
H233 C215 0.932 . S
C234 C235 1.389 . S
C234 C236 1.397 . S
C234 H258 0.931 . S
C235 C234 1.389 . S
C235 C239 1.394 1_565 S
C236 C234 1.397 . S
C236 C237 1.383 . S
C236 H259 0.930 . S
C237 C236 1.383 . S
C237 C238 1.378 1_565 S
C237 C240 1.480 . S
C238 C237 1.378 1_545 S
C238 C239 1.389 . S
C238 H260 0.929 . S
C239 C235 1.394 1_545 S
C239 C238 1.389 . S
C239 H261 0.931 . S
C240 C237 1.480 . S
C240 C241 1.388 . S
C240 C245 1.390 . S
C241 C240 1.388 . S
C241 C242 1.402 . S
C241 H262 0.930 . S
C242 C241 1.402 . S
C242 C243 1.376 1_554 S
C242 C251 1.512 . S
C243 C242 1.376 1_556 S
C243 C244 1.392 1_565 S
C243 H264 0.934 . S
C244 C243 1.392 1_545 S
C244 C245 1.361 1_546 S
C244 C246 1.499 . S
C245 C240 1.390 . S
C245 C244 1.361 1_564 S
C245 H263 0.931 . S
C246 C244 1.499 . S
C246 C247 1.357 1_545 S
C246 C248 1.380 . S
C247 C246 1.357 1_565 S
C247 C257 1.386 . S
C247 H265 0.931 . S
C248 C246 1.380 . S
C248 C249 1.409 . S
C248 H266 0.929 . S
C249 C248 1.409 . S
C249 C250 1.384 . S
C249 H267 0.930 . S
C250 C249 1.384 . S
C250 C257 1.353 1_545 S
C251 C242 1.512 . S
C251 C252 1.341 . S
C251 C253 1.371 1_565 S
C252 C251 1.341 . S
C252 C256 1.394 . S
C252 H268 0.930 . S
C253 C251 1.371 1_545 S
C253 C254 1.392 . S
C253 H269 0.931 1_554 S
C254 C253 1.392 . S
C254 C255 1.325 1_545 S
C254 H272 0.932 . S
C255 C254 1.325 1_565 S
C255 C256 1.342 . S
C256 C252 1.394 . S
C256 C255 1.342 . S
C256 H271 0.929 . S
C257 C247 1.386 . S
C257 C250 1.353 1_565 S
C257 H270 0.928 . S
H258 C234 0.931 . S
H259 C236 0.930 . S
H260 C238 0.929 . S
H261 C239 0.931 . S
H262 C241 0.930 . S
H263 C245 0.931 . S
H264 C243 0.934 . S
H265 C247 0.931 . S
H266 C248 0.929 . S
H267 C249 0.930 . S
H268 C252 0.930 . S
H269 C253 0.931 1_556 S
H270 C257 0.928 . S
H271 C256 0.929 . S
H272 C254 0.932 . S
C273 C274 1.386 . S
C273 C275 1.397 . S
C273 H297 0.931 . S
C274 C273 1.386 . S
C274 C278 1.397 . S
C275 C273 1.397 . S
C275 C276 1.384 . S
C275 H298 0.930 . S
C276 C275 1.384 . S
C276 C277 1.377 . S
C276 C279 1.481 . S
C277 C276 1.377 . S
C277 C278 1.389 . S
C277 H299 0.929 . S
C278 C274 1.397 . S
C278 C277 1.389 . S
C278 H300 0.931 . S
C279 C276 1.481 . S
C279 C280 1.387 . S
C279 C284 1.390 1_556 S
C280 C279 1.387 . S
C280 C281 1.401 1_556 S
C280 H301 0.930 . S
C281 C280 1.401 1_554 S
C281 C282 1.376 . S
C281 C290 1.511 . S
C282 C281 1.376 . S
C282 C283 1.392 . S
C282 H303 0.931 . S
C283 C282 1.392 . S
C283 C284 1.361 . S
C283 C285 1.500 . S
C284 C279 1.390 1_554 S
C284 C283 1.361 . S
C284 H302 0.931 . S
C285 C283 1.500 . S
C285 C286 1.371 . S
C285 C287 1.365 . S
C286 C285 1.371 . S
C286 C296 1.386 . S
C286 H304 0.931 . S
C287 C285 1.365 . S
C287 C288 1.409 . S
C287 H305 0.929 . S
C288 C287 1.409 . S
C288 C289 1.380 . S
C288 H306 0.930 . S
C289 C288 1.380 . S
C289 C296 1.357 . S
C290 C281 1.511 . S
C290 C291 1.341 . S
C290 C292 1.371 . S
C291 C290 1.341 . S
C291 C295 1.394 . S
C291 H307 0.930 1_554 S
C292 C290 1.371 . S
C292 C293 1.392 . S
C292 H308 0.931 . S
C293 C292 1.392 . S
C293 C294 1.331 . S
C293 H311 0.932 . S
C294 C293 1.331 . S
C294 C295 1.336 . S
C295 C291 1.394 . S
C295 C294 1.336 . S
C295 H310 0.929 . S
C296 C286 1.386 . S
C296 C289 1.357 . S
C296 H309 0.928 . S
H297 C273 0.931 . S
H298 C275 0.930 . S
H299 C277 0.929 . S
H300 C278 0.931 . S
H301 C280 0.930 . S
H302 C284 0.931 . S
H303 C282 0.931 . S
H304 C286 0.931 . S
H305 C287 0.929 . S
H306 C288 0.930 . S
H307 C291 0.930 1_556 S
H308 C292 0.931 . S
H309 C296 0.928 . S
H310 C295 0.929 . S
H311 C293 0.932 . S
Tb312 C314 2.809 . S
Tb312 O332 2.484 . S
Tb312 O333 2.440 . S
Tb312 O334 2.658 1_565 S
Tb312 O335 2.409 . S
Tb312 O336 2.378 . S
Tb312 O340 2.325 1_455 S
Tb312 O343 2.341 1_565 S
Tb313 C323 2.809 . S
Tb313 O334 2.325 1_655 S
Tb313 O337 2.341 1_545 S
Tb313 O338 2.484 . S
Tb313 O339 2.440 . S
Tb313 O340 2.658 1_545 S
Tb313 O341 2.409 . S
Tb313 O342 2.378 . S
C314 Tb312 2.809 . S
C314 C315 1.514 . S
C314 O332 1.248 . S
C314 O333 1.266 . S
C315 C314 1.514 . S
C315 C316 1.355 1_556 S
C315 C320 1.348 . S
C316 C315 1.355 1_554 S
C316 C317 1.383 . S
C316 H344 0.929 1_455 S
C317 C316 1.383 . S
C317 C318 1.347 . S
C317 H345 0.950 . S
C318 C317 1.347 . S
C318 C319 1.368 1_554 S
C319 C318 1.368 1_556 S
C319 C320 1.409 . S
C319 H346 0.930 . S
C320 C315 1.348 . S
C320 C319 1.409 . S
C320 H347 0.930 . S
C321 O334 1.281 1_565 S
C321 O335 1.254 . S
C322 O336 1.236 1_655 S
C322 O337 1.266 . S
C323 Tb313 2.809 . S
C323 C324 1.514 . S
C323 O338 1.248 . S
C323 O339 1.266 . S
C324 C323 1.514 . S
C324 C325 1.359 . S
C324 C329 1.348 . S
C325 C324 1.359 . S
C325 C326 1.380 . S
C325 H348 0.929 1_655 S
C326 C325 1.380 . S
C326 C327 1.347 . S
C326 H349 0.942 . S
C327 C326 1.347 . S
C327 C328 1.369 . S
C328 C327 1.369 . S
C328 C329 1.408 . S
C328 H350 0.930 . S
C329 C324 1.348 . S
C329 C328 1.408 . S
C329 H351 0.930 . S
C330 O340 1.281 1_545 S
C330 O341 1.254 . S
C331 O342 1.236 1_455 S
C331 O343 1.266 . S
O332 Tb312 2.484 . S
O332 C314 1.248 . S
O333 Tb312 2.440 . S
O333 C314 1.266 . S
O334 Tb312 2.658 1_545 S
O334 Tb313 2.325 1_455 S
O334 C321 1.281 1_545 S
O335 Tb312 2.409 . S
O335 C321 1.254 . S
O336 Tb312 2.378 . S
O336 C322 1.236 1_455 S
O337 Tb313 2.341 1_565 S
O337 C322 1.266 . S
O338 Tb313 2.484 . S
O338 C323 1.248 . S
O339 Tb313 2.440 . S
O339 C323 1.266 . S
O340 Tb312 2.325 1_655 S
O340 Tb313 2.658 1_565 S
O340 C330 1.281 1_565 S
O341 Tb313 2.409 . S
O341 C330 1.254 . S
O342 Tb313 2.378 . S
O342 C331 1.236 1_655 S
O343 Tb312 2.341 1_545 S
O343 C331 1.266 . S
H344 C316 0.929 1_655 S
H345 C317 0.950 . S
H346 C319 0.930 . S
H347 C320 0.930 . S
H348 C325 0.929 1_455 S
H349 C326 0.942 . S
H350 C328 0.930 . S
H351 C329 0.930 . S
Tb352 C354 2.809 . S
Tb352 O372 2.484 . S
Tb352 O373 2.440 . S
Tb352 O374 2.658 . S
Tb352 O375 2.409 . S
Tb352 O376 2.378 . S
Tb352 O380 2.325 1_545 S
Tb352 O383 2.341 . S
Tb353 C363 2.809 . S
Tb353 O374 2.325 1_565 S
Tb353 O377 2.341 . S
Tb353 O378 2.484 . S
Tb353 O379 2.440 . S
Tb353 O380 2.658 . S
Tb353 O381 2.409 . S
Tb353 O382 2.378 . S
C354 Tb352 2.809 . S
C354 C355 1.514 . S
C354 O372 1.248 . S
C354 O373 1.266 . S
C355 C354 1.514 . S
C355 C356 1.359 1_556 S
C355 C360 1.348 . S
C356 C355 1.359 1_554 S
C356 C357 1.380 . S
C356 H384 0.929 1_545 S
C357 C356 1.380 . S
C357 C358 1.347 . S
C357 H385 0.931 1_545 S
C358 C357 1.347 . S
C358 C359 1.369 . S
C359 C358 1.369 . S
C359 C360 1.408 1_554 S
C359 H386 0.930 . S
C360 C355 1.348 . S
C360 C359 1.408 1_556 S
C360 H387 0.930 . S
C361 O374 1.281 . S
C361 O375 1.254 . S
C362 O376 1.236 1_565 S
C362 O377 1.266 . S
C363 Tb353 2.809 . S
C363 C364 1.514 . S
C363 O378 1.248 . S
C363 O379 1.266 . S
C364 C363 1.514 . S
C364 C365 1.359 . S
C364 C369 1.348 . S
C365 C364 1.359 . S
C365 C366 1.380 . S
C365 H388 0.929 1_565 S
C366 C365 1.380 . S
C366 C367 1.347 . S
C366 H389 0.931 1_565 S
C367 C366 1.347 . S
C367 C368 1.369 . S
C368 C367 1.369 . S
C368 C369 1.408 . S
C368 H390 0.930 . S
C369 C364 1.348 . S
C369 C368 1.408 . S
C369 H391 0.930 . S
C370 O380 1.281 . S
C370 O381 1.254 . S
C371 O382 1.236 1_545 S
C371 O383 1.266 . S
O372 Tb352 2.484 . S
O372 C354 1.248 . S
O373 Tb352 2.440 . S
O373 C354 1.266 . S
O374 Tb352 2.658 . S
O374 Tb353 2.325 1_545 S
O374 C361 1.281 . S
O375 Tb352 2.409 . S
O375 C361 1.254 . S
O376 Tb352 2.378 . S
O376 C362 1.236 1_545 S
O377 Tb353 2.341 . S
O377 C362 1.266 . S
O378 Tb353 2.484 . S
O378 C363 1.248 . S
O379 Tb353 2.440 . S
O379 C363 1.266 . S
O380 Tb352 2.325 1_565 S
O380 Tb353 2.658 . S
O380 C370 1.281 . S
O381 Tb353 2.409 . S
O381 C370 1.254 . S
O382 Tb353 2.378 . S
O382 C371 1.236 1_565 S
O383 Tb352 2.341 . S
O383 C371 1.266 . S
H384 C356 0.929 1_565 S
H385 C357 0.931 1_565 S
H386 C359 0.930 . S
H387 C360 0.930 . S
H388 C365 0.929 1_545 S
H389 C366 0.931 1_545 S
H390 C368 0.930 . S
H391 C369 0.930 . S
Tb392 C394 2.809 . S
Tb392 O412 2.484 . S
Tb392 O413 2.440 . S
Tb392 O414 2.658 . S
Tb392 O415 2.409 . S
Tb392 O416 2.378 . S
Tb392 O420 2.325 . S
Tb392 O423 2.341 . S
Tb393 C403 2.809 . S
Tb393 O414 2.325 . S
Tb393 O417 2.341 . S
Tb393 O418 2.484 . S
Tb393 O419 2.440 . S
Tb393 O420 2.658 . S
Tb393 O421 2.409 . S
Tb393 O422 2.378 . S
C394 Tb392 2.809 . S
C394 C395 1.514 . S
C394 O412 1.248 . S
C394 O413 1.266 . S
C395 C394 1.514 . S
C395 C396 1.359 1_556 S
C395 C400 1.348 . S
C396 C395 1.359 1_554 S
C396 C397 1.380 . S
C396 H424 0.929 . S
C397 C396 1.380 . S
C397 C398 1.347 . S
C397 H425 0.931 . S
C398 C397 1.347 . S
C398 C399 1.369 . S
C399 C398 1.369 . S
C399 C400 1.408 1_554 S
C399 H426 0.930 . S
C400 C395 1.348 . S
C400 C399 1.408 1_556 S
C400 H427 0.930 . S
C401 O414 1.281 . S
C401 O415 1.254 . S
C402 O416 1.236 . S
C402 O417 1.266 . S
C403 Tb393 2.809 . S
C403 C404 1.514 . S
C403 O418 1.248 . S
C403 O419 1.266 . S
C404 C403 1.514 . S
C404 C405 1.359 . S
C404 C409 1.348 . S
C405 C404 1.359 . S
C405 C406 1.380 . S
C405 H428 0.929 . S
C406 C405 1.380 . S
C406 C407 1.347 . S
C406 H429 0.931 . S
C407 C406 1.347 . S
C407 C408 1.369 . S
C408 C407 1.369 . S
C408 C409 1.408 . S
C408 H430 0.930 . S
C409 C404 1.348 . S
C409 C408 1.408 . S
C409 H431 0.930 . S
C410 O420 1.281 . S
C410 O421 1.254 . S
C411 O422 1.236 . S
C411 O423 1.266 . S
O412 Tb392 2.484 . S
O412 C394 1.248 . S
O413 Tb392 2.440 . S
O413 C394 1.266 . S
O414 Tb392 2.658 . S
O414 Tb393 2.325 . S
O414 C401 1.281 . S
O415 Tb392 2.409 . S
O415 C401 1.254 . S
O416 Tb392 2.378 . S
O416 C402 1.236 . S
O417 Tb393 2.341 . S
O417 C402 1.266 . S
O418 Tb393 2.484 . S
O418 C403 1.248 . S
O419 Tb393 2.440 . S
O419 C403 1.266 . S
O420 Tb392 2.325 . S
O420 Tb393 2.658 . S
O420 C410 1.281 . S
O421 Tb393 2.409 . S
O421 C410 1.254 . S
O422 Tb393 2.378 . S
O422 C411 1.236 . S
O423 Tb392 2.341 . S
O423 C411 1.266 . S
H424 C396 0.929 . S
H425 C397 0.931 . S
H426 C399 0.930 . S
H427 C400 0.930 . S
H428 C405 0.929 . S
H429 C406 0.931 . S
H430 C408 0.930 . S
H431 C409 0.930 . S
Tb432 C434 2.809 . S
Tb432 O452 2.484 . S
Tb432 O453 2.440 . S
Tb432 O454 2.658 1_655 S
Tb432 O455 2.409 . S
Tb432 O456 2.378 . S
Tb432 O460 2.325 . S
Tb432 O463 2.341 1_655 S
Tb433 C443 2.809 . S
Tb433 O454 2.325 . S
Tb433 O457 2.341 1_455 S
Tb433 O458 2.484 . S
Tb433 O459 2.440 . S
Tb433 O460 2.658 1_455 S
Tb433 O461 2.409 . S
Tb433 O462 2.378 . S
C434 Tb432 2.809 . S
C434 C435 1.514 . S
C434 O452 1.248 . S
C434 O453 1.266 . S
C435 C434 1.514 . S
C435 C436 1.359 1_556 S
C435 C440 1.348 . S
C436 C435 1.359 1_554 S
C436 C437 1.380 . S
C436 H464 0.929 . S
C437 C436 1.380 . S
C437 C438 1.347 . S
C437 H465 0.931 . S
C438 C437 1.347 . S
C438 C439 1.369 . S
C439 C438 1.369 . S
C439 C440 1.408 1_554 S
C439 H466 0.930 . S
C440 C435 1.348 . S
C440 C439 1.408 1_556 S
C440 H467 0.930 . S
C441 O454 1.280 1_655 S
C441 O455 1.254 . S
C442 O456 1.236 . S
C442 O457 1.266 . S
C443 Tb433 2.809 . S
C443 C444 1.514 . S
C443 O458 1.248 . S
C443 O459 1.266 . S
C444 C443 1.514 . S
C444 C445 1.359 . S
C444 C449 1.348 . S
C445 C444 1.359 . S
C445 C446 1.380 . S
C445 H468 0.929 . S
C446 C445 1.380 . S
C446 C447 1.347 . S
C446 H469 0.931 . S
C447 C446 1.347 . S
C447 C448 1.369 . S
C448 C447 1.369 . S
C448 C449 1.408 . S
C448 H470 0.930 . S
C449 C444 1.348 . S
C449 C448 1.408 . S
C449 H471 0.930 . S
C450 O460 1.277 1_455 S
C450 O461 1.259 . S
C451 O462 1.236 . S
C451 O463 1.266 . S
O452 Tb432 2.484 . S
O452 C434 1.248 . S
O453 Tb432 2.440 . S
O453 C434 1.266 . S
O454 Tb432 2.658 1_455 S
O454 Tb433 2.325 . S
O454 C441 1.280 1_455 S
O455 Tb432 2.409 . S
O455 C441 1.254 . S
O456 Tb432 2.378 . S
O456 C442 1.236 . S
O457 Tb433 2.341 1_655 S
O457 C442 1.266 . S
O458 Tb433 2.484 . S
O458 C443 1.248 . S
O459 Tb433 2.440 . S
O459 C443 1.266 . S
O460 Tb432 2.325 . S
O460 Tb433 2.658 1_655 S
O460 C450 1.277 1_655 S
O461 Tb433 2.409 . S
O461 C450 1.259 . S
O462 Tb433 2.378 . S
O462 C451 1.236 . S
O463 Tb432 2.341 1_455 S
O463 C451 1.266 . S
H464 C436 0.929 . S
H465 C437 0.931 . S
H466 C439 0.930 . S
H467 C440 0.930 . S
H468 C445 0.929 . S
H469 C446 0.931 . S
H470 C448 0.930 . S
H471 C449 0.930 . S
C472 C473 1.364 1_565 S
C472 C474 1.419 . S
C472 H476 0.930 . S
C473 C472 1.364 1_545 S
C473 C482 1.434 . S
C474 C472 1.419 . S
C474 C475 1.362 1_565 S
C474 H477 0.929 . S
C475 C474 1.362 1_545 S
C475 C481 1.430 . S
H476 C472 0.930 . S
H477 C474 0.929 . S
S478 N479 1.613 . S
S478 N480 1.610 . S
N479 S478 1.613 . S
N479 C482 1.350 . S
N480 S478 1.610 . S
N480 C481 1.351 . S
C481 C475 1.430 . S
C481 N480 1.351 . S
C481 C482 1.434 . S
C482 C473 1.434 . S
C482 N479 1.350 . S
C482 C481 1.434 . S
C483 C484 1.369 . S
C483 C485 1.419 . S
C483 H487 0.930 . S
C484 C483 1.369 . S
C484 C493 1.429 . S
C485 C483 1.419 . S
C485 C486 1.363 . S
C485 H488 0.929 . S
C486 C485 1.363 . S
C486 C492 1.428 . S
H487 C483 0.930 . S
H488 C485 0.929 . S
S489 N490 1.613 . S
S489 N491 1.610 . S
N490 S489 1.613 . S
N490 C493 1.350 . S
N491 S489 1.610 . S
N491 C492 1.351 . S
C492 C486 1.428 . S
C492 N491 1.351 . S
C492 C493 1.434 . S
C493 C484 1.429 . S
C493 N490 1.350 . S
C493 C492 1.434 . S
C494 C495 1.369 . S
C494 C496 1.419 . S
C494 H498 0.930 . S
C495 C494 1.369 . S
C495 C504 1.429 . S
C496 C494 1.419 . S
C496 C497 1.363 . S
C496 H499 0.929 . S
C497 C496 1.363 . S
C497 C503 1.428 . S
H498 C494 0.930 . S
H499 C496 0.929 . S
S500 N501 1.613 . S
S500 N502 1.610 . S
N501 S500 1.613 . S
N501 C504 1.350 . S
N502 S500 1.610 . S
N502 C503 1.351 . S
C503 C497 1.428 . S
C503 N502 1.351 . S
C503 C504 1.434 . S
C504 C495 1.429 . S
C504 N501 1.350 . S
C504 C503 1.434 . S
C505 C506 1.342 1_655 S
C505 C507 1.419 . S
C505 H509 0.930 . S
C506 C505 1.342 1_455 S
C506 C515 1.457 . S
C507 C505 1.419 . S
C507 C508 1.363 1_655 S
C507 H510 0.929 . S
C508 C507 1.363 1_455 S
C508 C514 1.428 . S
H509 C505 0.930 . S
H510 C507 0.929 . S
S511 N512 1.613 . S
S511 N513 1.610 . S
N512 S511 1.613 . S
N512 C515 1.350 . S
N513 S511 1.610 . S
N513 C514 1.351 . S
C514 C508 1.428 . S
C514 N513 1.351 . S
C514 C515 1.434 . S
C515 C506 1.457 . S
C515 N512 1.350 . S
C515 C514 1.434 . S
C516 C517 1.355 1_565 S
C516 C518 1.419 . S
C516 H520 0.930 . S
C517 C516 1.355 1_545 S
C517 C526 1.443 . S
C518 C516 1.419 . S
C518 C519 1.350 1_565 S
C518 H521 0.929 . S
C519 C518 1.350 1_545 S
C519 C525 1.443 . S
H520 C516 0.930 . S
H521 C518 0.929 . S
S522 N523 1.613 . S
S522 N524 1.610 . S
N523 S522 1.613 . S
N523 C526 1.350 . S
N524 S522 1.610 . S
N524 C525 1.351 . S
C525 C519 1.443 . S
C525 N524 1.351 . S
C525 C526 1.434 . S
C526 C517 1.443 . S
C526 N523 1.350 . S
C526 C525 1.434 . S
C527 C528 1.369 . S
C527 C529 1.419 . S
C527 H531 0.930 . S
C528 C527 1.369 . S
C528 C537 1.429 . S
C529 C527 1.419 . S
C529 C530 1.363 . S
C529 H532 0.929 . S
C530 C529 1.363 . S
C530 C536 1.428 . S
H531 C527 0.930 . S
H532 C529 0.929 . S
S533 N534 1.613 . S
S533 N535 1.610 . S
N534 S533 1.613 . S
N534 C537 1.350 . S
N535 S533 1.610 . S
N535 C536 1.351 . S
C536 C530 1.428 . S
C536 N535 1.351 . S
C536 C537 1.434 . S
C537 C528 1.429 . S
C537 N534 1.350 . S
C537 C536 1.434 . S
C538 C539 1.369 . S
C538 C540 1.419 . S
C538 H542 0.930 . S
C539 C538 1.369 . S
C539 C548 1.429 . S
C540 C538 1.419 . S
C540 C541 1.363 . S
C540 H543 0.929 . S
C541 C540 1.363 . S
C541 C547 1.428 . S
H542 C538 0.930 . S
H543 C540 0.929 . S
S544 N545 1.613 . S
S544 N546 1.610 . S
N545 S544 1.613 . S
N545 C548 1.350 . S
N546 S544 1.610 . S
N546 C547 1.351 . S
C547 C541 1.428 . S
C547 N546 1.351 . S
C547 C548 1.434 . S
C548 C539 1.429 . S
C548 N545 1.350 . S
C548 C547 1.434 . S
C549 C550 1.361 1_455 S
C549 C551 1.419 . S
C549 H553 0.930 . S
C550 C549 1.361 1_655 S
C550 C559 1.437 . S
C551 C549 1.419 . S
C551 C552 1.364 1_455 S
C551 H554 0.929 . S
C552 C551 1.364 1_655 S
C552 C558 1.430 . S
H553 C549 0.930 . S
H554 C551 0.929 . S
S555 N556 1.613 . S
S555 N557 1.610 . S
N556 S555 1.613 . S
N556 C559 1.350 . S
N557 S555 1.610 . S
N557 C558 1.351 . S
C558 C552 1.430 . S
C558 N557 1.351 . S
C558 C559 1.434 . S
C559 C550 1.437 . S
C559 N556 1.350 . S
C559 C558 1.434 . S
C560 C561 1.368 1_655 S
C560 C562 1.443 . S
C560 H564 0.906 1_655 S
C561 C560 1.368 1_455 S
C561 C570 1.431 1_455 S
C562 C560 1.443 . S
C562 C563 1.363 . S
C562 H565 0.929 . S
C563 C562 1.363 . S
C563 C569 1.428 . S
H564 C560 0.906 1_455 S
H565 C562 0.929 . S
S566 N567 1.613 . S
S566 N568 1.610 . S
N567 S566 1.613 . S
N567 C570 1.350 . S
N568 S566 1.610 . S
N568 C569 1.351 . S
C569 C563 1.428 . S
C569 N568 1.351 . S
C569 C570 1.434 . S
C570 C561 1.431 1_655 S
C570 N567 1.350 . S
C570 C569 1.434 . S
C571 C572 1.370 1_545 S
C571 C573 1.419 1_545 S
C571 H575 0.930 . S
C572 C571 1.370 1_565 S
C572 C581 1.426 . S
C573 C571 1.419 1_565 S
C573 C574 1.363 . S
C573 H576 0.929 . S
C574 C573 1.363 . S
C574 C580 1.428 . S
H575 C571 0.930 . S
H576 C573 0.929 . S
S577 N578 1.613 . S
S577 N579 1.610 . S
N578 S577 1.613 . S
N578 C581 1.350 . S
N579 S577 1.610 . S
N579 C580 1.351 . S
C580 C574 1.428 . S
C580 N579 1.351 . S
C580 C581 1.434 . S
C581 C572 1.426 . S
C581 N578 1.350 . S
C581 C580 1.434 . S
C582 C583 1.369 . S
C582 C584 1.419 . S
C582 H586 0.930 . S
C583 C582 1.369 . S
C583 C592 1.429 . S
C584 C582 1.419 . S
C584 C585 1.363 . S
C584 H587 0.929 . S
C585 C584 1.363 . S
C585 C591 1.428 . S
H586 C582 0.930 . S
H587 C584 0.929 . S
S588 N589 1.613 . S
S588 N590 1.610 . S
N589 S588 1.613 . S
N589 C592 1.350 . S
N590 S588 1.610 . S
N590 C591 1.351 . S
C591 C585 1.428 . S
C591 N590 1.351 . S
C591 C592 1.434 . S
C592 C583 1.429 . S
C592 N589 1.350 . S
C592 C591 1.434 . S
C593 C594 1.369 . S
C593 C595 1.419 . S
C593 H597 0.930 . S
C594 C593 1.369 . S
C594 C603 1.429 . S
C595 C593 1.419 . S
C595 C596 1.363 . S
C595 H598 0.929 . S
C596 C595 1.363 . S
C596 C602 1.428 . S
H597 C593 0.930 . S
H598 C595 0.929 . S
S599 N600 1.613 . S
S599 N601 1.610 . S
N600 S599 1.613 . S
N600 C603 1.350 . S
N601 S599 1.610 . S
N601 C602 1.351 . S
C602 C596 1.428 . S
C602 N601 1.351 . S
C602 C603 1.434 . S
C603 C594 1.429 . S
C603 N600 1.350 . S
C603 C602 1.434 . S
C604 C605 1.368 1_655 S
C604 C606 1.392 1_655 S
C604 H608 0.960 . S
C605 C604 1.368 1_455 S
C605 C614 1.431 . S
C606 C604 1.392 1_455 S
C606 C607 1.363 . S
C606 H609 0.929 . S
C607 C606 1.363 . S
C607 C613 1.428 . S
H608 C604 0.960 . S
H609 C606 0.929 . S
S610 N611 1.613 1_556 S
S610 N612 1.610 . S
N611 S610 1.613 1_554 S
N611 C614 1.350 . S
N612 S610 1.610 . S
N612 C613 1.351 1_556 S
C613 C607 1.428 . S
C613 N612 1.351 1_554 S
C613 C614 1.434 . S
C614 C605 1.431 . S
C614 N611 1.350 . S
C614 C613 1.434 . S
C615 C616 1.360 1_545 S
C615 C617 1.419 . S
C615 H619 0.930 . S
C616 C615 1.360 1_565 S
C616 C625 1.431 . S
C617 C615 1.419 . S
C617 C618 1.363 . S
C617 H620 0.929 . S
C618 C617 1.363 . S
C618 C624 1.428 . S
H619 C615 0.930 . S
H620 C617 0.929 . S
S621 N622 1.613 . S
S621 N623 1.578 1_565 S
N622 S621 1.613 . S
N622 C625 1.350 . S
N623 S621 1.578 1_545 S
N623 C624 1.365 . S
C624 C618 1.428 . S
C624 N623 1.365 . S
C624 C625 1.434 1_545 S
C625 C616 1.431 . S
C625 N622 1.350 . S
C625 C624 1.434 1_565 S
C626 C627 1.369 . S
C626 C628 1.419 . S
C626 H630 0.930 . S
C627 C626 1.369 . S
C627 C636 1.429 . S
C628 C626 1.419 . S
C628 C629 1.363 . S
C628 H631 0.929 1_554 S
C629 C628 1.363 . S
C629 C635 1.428 . S
H630 C626 0.930 . S
H631 C628 0.929 1_556 S
S632 N633 1.613 . S
S632 N634 1.610 . S
N633 S632 1.613 . S
N633 C636 1.350 . S
N634 S632 1.610 . S
N634 C635 1.351 . S
C635 C629 1.428 . S
C635 N634 1.351 . S
C635 C636 1.434 . S
C636 C627 1.429 . S
C636 N633 1.350 . S
C636 C635 1.434 . S
C637 C638 1.369 . S
C637 C639 1.419 . S
C637 H641 0.930 . S
C638 C637 1.369 . S
C638 C647 1.429 . S
C639 C637 1.419 . S
C639 C640 1.363 . S
C639 H642 0.929 . S
C640 C639 1.363 . S
C640 C646 1.428 . S
H641 C637 0.930 . S
H642 C639 0.929 . S
S643 N644 1.613 . S
S643 N645 1.610 . S
N644 S643 1.613 . S
N644 C647 1.350 1_556 S
N645 S643 1.610 . S
N645 C646 1.351 1_556 S
C646 C640 1.428 . S
C646 N645 1.351 1_554 S
C646 C647 1.434 . S
C647 C638 1.429 . S
C647 N644 1.350 1_554 S
C647 C646 1.434 . S
C648 C649 1.369 1_655 S
C648 C650 1.416 1_655 S
C648 H652 0.930 . S
C649 C648 1.369 1_455 S
C649 C658 1.429 . S
C650 C648 1.416 1_455 S
C650 C651 1.374 . S
C650 H653 0.921 1_455 S
C651 C650 1.374 . S
C651 C657 1.428 . S
H652 C648 0.930 . S
H653 C650 0.921 1_655 S
S654 N655 1.613 . S
S654 N656 1.610 . S
N655 S654 1.613 . S
N655 C658 1.350 . S
N656 S654 1.610 . S
N656 C657 1.351 . S
C657 C651 1.428 . S
C657 N656 1.351 . S
C657 C658 1.434 . S
C658 C649 1.429 . S
C658 N655 1.350 . S
C658 C657 1.434 . S
C659 C660 1.369 1_565 S
C659 C661 1.419 . S
C659 H663 0.930 . S
C660 C659 1.369 1_545 S
C660 C669 1.429 . S
C661 C659 1.419 . S
C661 C662 1.363 1_565 S
C661 H664 0.929 . S
C662 C661 1.363 1_545 S
C662 C668 1.428 . S
H663 C659 0.930 . S
H664 C661 0.929 . S
S665 N666 1.613 . S
S665 N667 1.610 . S
N666 S665 1.613 . S
N666 C669 1.350 . S
N667 S665 1.610 . S
N667 C668 1.351 . S
C668 C662 1.428 . S
C668 N667 1.351 . S
C668 C669 1.434 . S
C669 C660 1.429 . S
C669 N666 1.350 . S
C669 C668 1.434 . S
C670 C671 1.369 . S
C670 C672 1.419 . S
C670 H674 0.930 . S
C671 C670 1.369 . S
C671 C680 1.429 . S
C672 C670 1.419 . S
C672 C673 1.363 . S
C672 H675 0.929 . S
C673 C672 1.363 . S
C673 C679 1.428 . S
H674 C670 0.930 . S
H675 C672 0.929 . S
S676 N677 1.613 . S
S676 N678 1.610 . S
N677 S676 1.613 . S
N677 C680 1.350 . S
N678 S676 1.610 . S
N678 C679 1.351 . S
C679 C673 1.428 . S
C679 N678 1.351 . S
C679 C680 1.434 . S
C680 C671 1.429 . S
C680 N677 1.350 . S
C680 C679 1.434 . S
C681 C682 1.369 . S
C681 C683 1.419 . S
C681 H685 0.930 . S
C682 C681 1.369 . S
C682 C691 1.429 . S
C683 C681 1.419 . S
C683 C684 1.363 . S
C683 H686 0.929 . S
C684 C683 1.363 . S
C684 C690 1.428 . S
H685 C681 0.930 . S
H686 C683 0.929 . S
S687 N688 1.613 . S
S687 N689 1.610 . S
N688 S687 1.613 . S
N688 C691 1.350 . S
N689 S687 1.610 . S
N689 C690 1.351 . S
C690 C684 1.428 . S
C690 N689 1.351 . S
C690 C691 1.434 . S
C691 C682 1.429 . S
C691 N688 1.350 . S
C691 C690 1.434 . S
C692 C693 1.369 1_455 S
C692 C694 1.419 . S
C692 H696 0.930 . S
C693 C692 1.369 1_655 S
C693 C702 1.429 . S
C694 C692 1.419 . S
C694 C695 1.363 1_455 S
C694 H697 0.929 . S
C695 C694 1.363 1_655 S
C695 C701 1.428 . S
H696 C692 0.930 . S
H697 C694 0.929 . S
S698 N699 1.613 . S
S698 N700 1.610 . S
N699 S698 1.613 . S
N699 C702 1.350 . S
N700 S698 1.610 . S
N700 C701 1.351 . S
C701 C695 1.428 . S
C701 N700 1.351 . S
C701 C702 1.434 . S
C702 C693 1.429 . S
C702 N699 1.350 . S
C702 C701 1.434 . S
C703 C704 1.369 . S
C703 C705 1.419 . S
C703 H707 0.930 . S
C704 C703 1.369 . S
C704 C713 1.429 1_565 S
C705 C703 1.419 . S
C705 C706 1.363 . S
C705 H708 0.929 . S
C706 C705 1.363 . S
C706 C712 1.428 1_565 S
H707 C703 0.930 . S
H708 C705 0.929 . S
S709 N710 1.613 . S
S709 N711 1.610 . S
N710 S709 1.613 . S
N710 C713 1.350 . S
N711 S709 1.610 . S
N711 C712 1.351 . S
C712 C706 1.428 1_545 S
C712 N711 1.351 . S
C712 C713 1.434 . S
C713 C704 1.429 1_545 S
C713 N710 1.350 . S
C713 C712 1.434 . S
C714 C715 1.369 . S
C714 C716 1.419 . S
C714 H718 0.930 . S
C715 C714 1.369 . S
C715 C724 1.429 . S
C716 C714 1.419 . S
C716 C717 1.363 . S
C716 H719 0.929 . S
C717 C716 1.363 . S
C717 C723 1.428 . S
H718 C714 0.930 . S
H719 C716 0.929 . S
S720 N721 1.613 . S
S720 N722 1.610 . S
N721 S720 1.613 . S
N721 C724 1.350 . S
N722 S720 1.610 . S
N722 C723 1.351 . S
C723 C717 1.428 . S
C723 N722 1.351 . S
C723 C724 1.434 . S
C724 C715 1.429 . S
C724 N721 1.350 . S
C724 C723 1.434 . S
C725 C726 1.369 . S
C725 C727 1.419 . S
C725 H729 0.930 . S
C726 C725 1.369 . S
C726 C735 1.429 . S
C727 C725 1.419 . S
C727 C728 1.363 . S
C727 H730 0.929 . S
C728 C727 1.363 . S
C728 C734 1.428 . S
H729 C725 0.930 . S
H730 C727 0.929 . S
S731 N732 1.613 . S
S731 N733 1.610 . S
N732 S731 1.613 . S
N732 C735 1.350 . S
N733 S731 1.610 . S
N733 C734 1.351 . S
C734 C728 1.428 . S
C734 N733 1.351 . S
C734 C735 1.434 . S
C735 C726 1.429 . S
C735 N732 1.350 . S
C735 C734 1.434 . S
C473 C255 2.501 1_545 S
C475 C321 2.846 1_545 S
C486 C361 2.884 . S
C484 C294 2.511 . S
C497 C401 2.878 . S
C495 C177 2.551 . S
C508 C441 2.856 1_455 S
C506 C216 2.520 1_455 S
C519 C330 2.845 1_554 S
C517 C99 2.509 1_545 S
C528 C138 2.510 . S
C530 C370 2.888 1_554 S
C539 C21 2.539 . S
C541 C410 2.880 1_554 S
C550 C60 2.524 . S
C552 C450 2.852 1_654 S
C563 C327 0.752 . S
C561 C196 0.752 1_455 S
C574 C367 0.755 . S
C572 C235 0.733 . S
C585 C407 0.705 . S
C583 C289 0.680 . S
C594 C157 0.690 . S
C596 C447 0.714 . S
C605 C40 0.742 1_455 S
C607 C318 0.761 . S
C618 C358 0.734 . S
C616 C79 0.756 . S
C629 C398 0.691 . S
C627 C133 0.696 . S
C638 C1 0.711 . S
C640 C438 0.703 . S
C649 C211 3.234 . S
C651 C331 3.739 . S
C660 C250 3.175 . S
C662 C371 3.696 . S
C673 C411 3.688 . S
C671 C274 3.178 . S
C684 C451 3.728 . S
C682 C172 3.202 . S
C693 C55 3.229 1_655 S
C695 C322 3.750 . S
C706 C362 3.694 . S
C704 C94 3.181 1_565 S
C717 C402 3.689 . S
C715 C118 3.180 . S
C726 C16 3.214 . S
C728 C442 3.732 . S
