# Generated by pormake.
# Topology pth, (4,4)-cn, num edge types: 1
# Building blocks:
#     Node 0, Type 0, BuildingBlock: KUFVIS_clean_sbu_0, # of connection points: 4
#     Node 1, Type 0, BuildingBlock: KUFVIS_clean_sbu_0, # of connection points: 4
#     Node 2, Type 0, BuildingBlock: KUFVIS_clean_sbu_0, # of connection points: 4
#     Node 3, Type 1, BuildingBlock: NAWXER_clean_linker_0, # of connection points: 4
#     Node 4, Type 1, BuildingBlock: NAWXER_clean_linker_0, # of connection points: 4
#     Node 5, Type 1, BuildingBlock: NAWXER_clean_linker_0, # of connection points: 4
#     Edge 6, Type (0, 1), BuildingBlock: ZUJKAS_clean_linker_0, # of connection points: 2
#     Edge 7, Type (0, 1), BuildingBlock: ZUJKAS_clean_linker_0, # of connection points: 2
#     Edge 8, Type (0, 1), BuildingBlock: ZUJKAS_clean_linker_0, # of connection points: 2
#     Edge 9, Type (0, 1), BuildingBlock: ZUJKAS_clean_linker_0, # of connection points: 2
#     Edge 10, Type (0, 1), BuildingBlock: ZUJKAS_clean_linker_0, # of connection points: 2
#     Edge 11, Type (0, 1), BuildingBlock: ZUJKAS_clean_linker_0, # of connection points: 2
#     Edge 12, Type (0, 1), BuildingBlock: ZUJKAS_clean_linker_0, # of connection points: 2
#     Edge 13, Type (0, 1), BuildingBlock: ZUJKAS_clean_linker_0, # of connection points: 2
#     Edge 14, Type (0, 1), BuildingBlock: ZUJKAS_clean_linker_0, # of connection points: 2
#     Edge 15, Type (0, 1), BuildingBlock: ZUJKAS_clean_linker_0, # of connection points: 2
#     Edge 16, Type (0, 1), BuildingBlock: ZUJKAS_clean_linker_0, # of connection points: 2
#     Edge 17, Type (0, 1), BuildingBlock: ZUJKAS_clean_linker_0, # of connection points: 2
# Relax obj value: 0.011
# Max RMSD: 0.077
# Mean RMSD: 0.050
data_MOF--net-pth--node1-KUFVIS_clean_sbu_0--node2-NAWXER_clean_linker_0--edge1-ZUJKAS_clean_linker_0
_symmetry_space_group_name_H-M    P1
_symmetry_Int_Tables_number       1
_symmetry_cell_setting            triclinic
loop_
_symmetry_equiv_pos_as_xyz
'x, y, z'
_cell_length_a     35.719834
_cell_length_b     35.807946
_cell_length_c     82.505599
_cell_angle_alpha  90.407365
_cell_angle_beta   91.729005
_cell_angle_gamma 120.22536
loop_
_atom_site_label
_atom_site_type_symbol
_atom_site_fract_x
_atom_site_fract_y
_atom_site_fract_z
_atom_type_partial_charge
Mn0 Mn 0.03864 0.06465 0.05061 0.0
Mn1 Mn 0.98332 0.10028 0.02786 0.0
C2 C 0.99874 0.02557 0.02778 0.0
C3 C 0.04184 0.0251 0.07242 0.0
C4 C 0.08062 0.13834 0.02666 0.0
O5 O 0.03677 0.10906 0.06558 0.0
O6 O 0.9965 0.12797 0.04989 0.0
C7 C 0.90219 0.06045 0.04584 0.0
N8 N 0.92287 0.06571 0.03172 0.0
C9 C 0.85562 0.01793 0.0172 0.0
C10 C 0.83355 0.01223 0.03157 0.0
C11 C 0.85696 0.03352 0.04596 0.0
C12 C 0.90069 0.04527 0.01782 0.0
H13 H 0.9201 0.07662 0.05694 0.0
C14 C 0.01739 0.13038 0.06315 0.0
O15 O 0.07689 0.05626 0.06651 0.0
O16 O 0.0052 0.01786 0.06594 0.0
N17 N 0.96819 0.07611 0.00627 0.0
C18 C 0.99455 0.0838 0.9936 0.0
C19 C 0.97628 0.06448 0.97835 0.0
C20 C 0.93115 0.03774 0.97626 0.0
C21 C 0.90466 0.03057 0.98944 0.0
C22 C 0.92466 0.05109 0.00431 0.0
H23 H 0.02926 0.10441 0.99513 0.0
O24 O 0.02975 0.02032 0.03375 0.0
O25 O 0.99175 0.05319 0.03546 0.0
O26 O 0.08358 0.113 0.03677 0.0
O27 O 0.04494 0.13679 0.02281 0.0
C28 C 0.85925 0.00342 0.98847 0.0
C29 C 0.83477 0.99701 0.00235 0.0
H30 H 0.7987 0.99134 0.03173 0.0
H31 H 0.84018 0.02911 0.05711 0.0
H32 H 0.99694 0.07016 0.96823 0.0
H33 H 0.91722 0.02282 0.96448 0.0
H34 H 0.8429 0.9869 0.97716 0.0
H35 H 0.79995 0.97563 0.00151 0.0
Mn36 Mn 0.01774 0.06064 0.3835 0.0
Mn37 Mn 0.06976 0.15608 0.40422 0.0
C38 C 0.0596 0.06806 0.40661 0.0
C39 C 0.01541 0.01495 0.36268 0.0
C40 C 0.97368 0.09239 0.4067 0.0
O41 O 0.01566 0.10241 0.36735 0.0
O42 O 0.05354 0.16455 0.38189 0.0
C43 C 0.14904 0.19871 0.38519 0.0
N44 N 0.12995 0.18535 0.3997 0.0
C45 C 0.19924 0.21797 0.41404 0.0
C46 C 0.2197 0.23225 0.39927 0.0
C47 C 0.19448 0.22234 0.38477 0.0
C48 C 0.15389 0.19407 0.41367 0.0
H49 H 0.12973 0.19151 0.37405 0.0
C50 C 0.03292 0.14333 0.36894 0.0
O51 O 0.98015 0.01034 0.36867 0.0
O52 O 0.05184 0.04661 0.36856 0.0
N53 N 0.08794 0.15353 0.42601 0.0
C54 C 0.06318 0.13572 0.4391 0.0
C55 C 0.08342 0.14198 0.45453 0.0
C56 C 0.12877 0.16717 0.45637 0.0
C57 C 0.15356 0.18528 0.44271 0.0
C58 C 0.13162 0.17761 0.42763 0.0
H59 H 0.02825 0.11704 0.4378 0.0
O60 O 0.02973 0.03014 0.40123 0.0
O61 O 0.06487 0.10071 0.39808 0.0
O62 O 0.97194 0.06346 0.39706 0.0
O63 O 0.00841 0.12824 0.40995 0.0
C64 C 0.19916 0.21072 0.44345 0.0
C65 C 0.22202 0.22658 0.42911 0.0
H66 H 0.25474 0.25075 0.39891 0.0
H67 H 0.21002 0.23316 0.37332 0.0
H68 H 0.06409 0.12786 0.46501 0.0
H69 H 0.14421 0.1723 0.46832 0.0
H70 H 0.21703 0.21791 0.45498 0.0
H71 H 0.25711 0.2454 0.42981 0.0
Mn72 Mn 0.03474 0.05684 0.71607 0.0
Mn73 Mn 0.00262 0.11686 0.73678 0.0
C74 C 0.07657 0.09975 0.73792 0.0
C75 C 0.07151 0.04931 0.69454 0.0
C76 C 0.96356 0.02023 0.74089 0.0
O77 O 0.98869 0.05648 0.70087 0.0
O78 O 0.9728 0.10053 0.71493 0.0
C79 C 0.04165 0.19439 0.71649 0.0
N80 N 0.03737 0.17615 0.73125 0.0
C81 C 0.08635 0.24525 0.74406 0.0
C82 C 0.09107 0.26482 0.72901 0.0
C83 C 0.0687 0.23925 0.71517 0.0
C84 C 0.05889 0.20042 0.74464 0.0
H85 H 0.02459 0.17482 0.70582 0.0
C86 C 0.96831 0.07699 0.70241 0.0
O87 O 0.0409 0.01574 0.70144 0.0
O88 O 0.07982 0.08695 0.69989 0.0
N89 N 0.02876 0.13528 0.7581 0.0
C90 C 0.02193 0.11118 0.77157 0.0
C91 C 0.0423 0.13181 0.78644 0.0
C92 C 0.06919 0.17695 0.78733 0.0
C93 C 0.0755 0.20109 0.77333 0.0
C94 C 0.05395 0.17881 0.75889 0.0
H95 H 0.00119 0.07649 0.77098 0.0
O96 O 0.08078 0.06775 0.73284 0.0
O97 O 0.04854 0.10622 0.72987 0.0
O98 O 0.98758 0.01505 0.73104 0.0
O99 O 0.96604 0.05663 0.74357 0.0
C100 C 0.10278 0.24632 0.77309 0.0
C101 C 0.10831 0.26836 0.75845 0.0
H102 H 0.11201 0.29939 0.72793 0.0
H103 H 0.07233 0.2541 0.7035 0.0
H104 H 0.0373 0.11295 0.79719 0.0
H105 H 0.08484 0.19273 0.79881 0.0
H106 H 0.12009 0.26438 0.78405 0.0
H107 H 0.12979 0.30306 0.75838 0.0
C108 C 0.98939 0.42342 0.24105 0.0
C109 C 0.02157 0.43347 0.2533 0.0
C110 C 0.98973 0.45605 0.23173 0.0
C111 C 0.02238 0.49937 0.2344 0.0
C112 C 0.05413 0.47698 0.25594 0.0
C113 C 0.05431 0.50958 0.24668 0.0
C114 C 0.02254 0.53432 0.22487 0.0
C115 C 0.05492 0.45874 0.18986 0.0
C116 C 0.02008 0.43301 0.17896 0.0
C117 C 0.05455 0.49107 0.19933 0.0
C118 C 0.01957 0.4985 0.1979 0.0
C119 C 0.98508 0.44046 0.17757 0.0
C120 C 0.9851 0.47334 0.18683 0.0
C121 C 0.01927 0.53294 0.20776 0.0
C122 C 0.0596 0.71242 0.1922 0.0
C123 C 0.02874 0.70413 0.1796 0.0
C124 C 0.05678 0.67876 0.20155 0.0
C125 C 0.02298 0.6361 0.19855 0.0
C126 C 0.99503 0.66125 0.17661 0.0
C127 C 0.99242 0.62757 0.1859 0.0
C128 C 0.02056 0.60016 0.20811 0.0
C129 C 0.989 0.67773 0.24225 0.0
C130 C 0.02036 0.69931 0.25486 0.0
C131 C 0.99007 0.64614 0.23254 0.0
C132 C 0.02255 0.63548 0.2352 0.0
C133 C 0.05275 0.68833 0.25751 0.0
C134 C 0.05357 0.65649 0.24787 0.0
C135 C 0.02324 0.60127 0.22525 0.0
H136 H 0.96336 0.39044 0.23888 0.0
H137 H 0.96403 0.44748 0.22263 0.0
H138 H 0.07976 0.48589 0.26511 0.0
H139 H 0.0797 0.5428 0.24898 0.0
H140 H 0.08223 0.45356 0.19115 0.0
H141 H 0.0817 0.51051 0.20769 0.0
H142 H 0.95804 0.4213 0.16913 0.0
H143 H 0.95796 0.47878 0.18551 0.0
H144 H 0.08653 0.7448 0.19464 0.0
H145 H 0.08148 0.686 0.21096 0.0
H146 H 0.97036 0.65368 0.16716 0.0
H147 H 0.96622 0.59486 0.18333 0.0
H148 H 0.96304 0.68457 0.24005 0.0
H149 H 0.96506 0.62954 0.22311 0.0
H150 H 0.07777 0.7046 0.26695 0.0
H151 H 0.0788 0.64862 0.25019 0.0
N152 N 0.02452 0.5685 0.23298 0.0
N153 N 0.0183 0.56583 0.2 0.0
C154 C 0.64355 0.06635 0.52189 0.0
C155 C 0.63161 0.03647 0.50884 0.0
C156 C 0.6123 0.06468 0.53213 0.0
C157 C 0.56852 0.03256 0.52977 0.0
C158 C 0.58766 0.00465 0.50641 0.0
C159 C 0.5565 0.00283 0.51673 0.0
C160 C 0.53463 0.03144 0.54004 0.0
C161 C 0.6226 0.00914 0.5738 0.0
C162 C 0.64394 0.04139 0.58601 0.0
C163 C 0.58844 0.00713 0.56434 0.0
C164 C 0.5752 0.03757 0.56682 0.0
C165 C 0.63026 0.07149 0.58855 0.0
C166 C 0.5961 0.06943 0.57911 0.0
C167 C 0.53852 0.03549 0.55717 0.0
C168 C 0.36117 0.00071 0.57486 0.0
C169 C 0.37265 0.0322 0.58725 0.0
C170 C 0.39288 0.00082 0.5653 0.0
C171 C 0.43671 0.03273 0.56781 0.0
C172 C 0.41667 0.06357 0.58994 0.0
C173 C 0.44836 0.06367 0.58037 0.0
C174 C 0.47066 0.03337 0.55771 0.0
C175 C 0.38811 0.063 0.52428 0.0
C176 C 0.3652 0.03145 0.51197 0.0
C177 C 0.42099 0.06236 0.53364 0.0
C178 C 0.43144 0.02995 0.53101 0.0
C179 C 0.37611 0.9993 0.50925 0.0
C180 C 0.4091 0.99875 0.51861 0.0
C181 C 0.46698 0.02969 0.5406 0.0
H182 H 0.67709 0.09112 0.5242 0.0
H183 H 0.62237 0.08895 0.54175 0.0
H184 H 0.57712 0.98164 0.49632 0.0
H185 H 0.52284 0.9782 0.51449 0.0
H186 H 0.63243 0.98555 0.57151 0.0
H187 H 0.57214 0.98158 0.5552 0.0
H188 H 0.64544 0.09623 0.59804 0.0
H189 H 0.58609 0.09291 0.58137 0.0
H190 H 0.32759 0.97619 0.57242 0.0
H191 H 0.38313 0.97586 0.55597 0.0
H192 H 0.42673 0.0878 0.59957 0.0
H193 H 0.48201 0.08825 0.58267 0.0
H194 H 0.38128 0.0888 0.52646 0.0
H195 H 0.43869 0.0876 0.5428 0.0
H196 H 0.35892 0.97434 0.49996 0.0
H197 H 0.41692 0.97368 0.51628 0.0
N198 N 0.49889 0.02852 0.53246 0.0
N199 N 0.50646 0.03648 0.56531 0.0
C200 C 0.42161 0.41024 0.86078 0.0
C201 C 0.39939 0.41884 0.84833 0.0
C202 C 0.45542 0.44409 0.86992 0.0
C203 C 0.46732 0.48718 0.86693 0.0
C204 C 0.41163 0.46205 0.84532 0.0
C205 C 0.44535 0.49582 0.85448 0.0
C206 C 0.50423 0.52359 0.87597 0.0
C207 C 0.40393 0.45097 0.91288 0.0
C208 C 0.41791 0.43496 0.92581 0.0
C209 C 0.43362 0.48022 0.90216 0.0
C210 C 0.47786 0.49348 0.90395 0.0
C211 C 0.46232 0.44877 0.92768 0.0
C212 C 0.49195 0.47781 0.9169 0.0
C213 C 0.51006 0.52559 0.89305 0.0
C214 C 0.65849 0.70617 0.90621 0.0
C215 C 0.68148 0.69815 0.91852 0.0
C216 C 0.62467 0.67193 0.89722 0.0
C217 C 0.6135 0.62905 0.90023 0.0
C218 C 0.66987 0.65513 0.9216 0.0
C219 C 0.6361 0.62096 0.9126 0.0
C220 C 0.57686 0.59229 0.89122 0.0
C221 C 0.67713 0.66633 0.85452 0.0
C222 C 0.66281 0.68225 0.84169 0.0
C223 C 0.64754 0.63641 0.8651 0.0
C224 C 0.60314 0.62249 0.86325 0.0
C225 C 0.61827 0.6676 0.83967 0.0
C226 C 0.58876 0.63795 0.85032 0.0
C227 C 0.57109 0.59022 0.87415 0.0
H228 H 0.41288 0.37733 0.86346 0.0
H229 H 0.47263 0.43658 0.87916 0.0
H230 H 0.39579 0.46988 0.83564 0.0
H231 H 0.45436 0.52883 0.8518 0.0
H232 H 0.36997 0.44086 0.91098 0.0
H233 H 0.42198 0.49281 0.8926 0.0
H234 H 0.4744 0.4378 0.93766 0.0
H235 H 0.52599 0.48808 0.91869 0.0
H236 H 0.66671 0.73892 0.90349 0.0
H237 H 0.60695 0.67898 0.88804 0.0
H238 H 0.68633 0.64776 0.9312 0.0
H239 H 0.62764 0.58811 0.9153 0.0
H240 H 0.71115 0.67642 0.8562 0.0
H241 H 0.65937 0.62381 0.87459 0.0
H242 H 0.60627 0.67951 0.82998 0.0
H243 H 0.55464 0.62738 0.84854 0.0
N244 N 0.53486 0.55609 0.86724 0.0
N245 N 0.54627 0.55976 0.89996 0.0
H246 H 0.03129 0.12675 0.09585 0.0
H247 H 0.02999 0.17351 0.11741 0.0
H248 H 0.00744 0.24773 0.0815 0.0
H249 H 0.00689 0.20028 0.06006 0.0
H250 H 0.07827 0.25654 0.12461 0.0
H251 H 0.91144 0.22204 0.11088 0.0
H252 H 0.93287 0.19123 0.1017 0.0
H253 H 0.9438 0.24206 0.09341 0.0
C254 C 0.02593 0.15298 0.09258 0.0
C255 C 0.01865 0.15949 0.07626 0.0
C256 C 0.02517 0.17966 0.10491 0.0
C257 C 0.01747 0.21349 0.10113 0.0
C258 C 0.01185 0.22093 0.08479 0.0
H259 H 0.08395 0.44118 0.15953 0.0
H260 H 0.08326 0.38577 0.14179 0.0
C261 C 0.01186 0.19392 0.07252 0.0
C262 C 0.01612 0.24164 0.11415 0.0
H263 H 0.95675 0.28567 0.12733 0.0
C264 C 0.05146 0.26253 0.12533 0.0
C265 C 0.98071 0.24874 0.11538 0.0
C266 C 0.93989 0.22442 0.10481 0.0
C267 C 0.05311 0.29155 0.13727 0.0
C268 C 0.01918 0.30112 0.13769 0.0
C269 C 0.98314 0.27897 0.1269 0.0
C270 C 0.02051 0.33445 0.14895 0.0
C271 C 0.09096 0.31109 0.14941 0.0
C272 C 0.98491 0.32465 0.1585 0.0
C273 C 0.9848 0.35662 0.1683 0.0
C274 C 0.02051 0.39889 0.16886 0.0
C275 C 0.0563 0.40865 0.15946 0.0
C276 C 0.05605 0.37688 0.14944 0.0
H277 H 0.10483 0.28966 0.15114 0.0
H278 H 0.11691 0.34222 0.14483 0.0
H279 H 0.0814 0.31724 0.16138 0.0
H280 H 0.95701 0.29226 0.1583 0.0
H281 H 0.9569 0.3483 0.17549 0.0
H282 H 0.89803 0.01483 0.40944 0.0
H283 H 0.83501 1.00066 0.42505 0.0
H284 H 0.89699 0.13575 0.4388 0.0
H285 H 0.95993 0.15032 0.42337 0.0
H286 H 0.83976 0.02244 0.46008 0.0
H287 H 0.77216 0.10214 0.42122 0.0
H288 H 0.80773 0.08433 0.41368 0.0
H289 H 0.82959 0.13341 0.42568 0.0
C290 C 0.89804 0.04163 0.41562 0.0
C291 C 0.93408 0.08374 0.41512 0.0
C292 C 0.86208 0.03342 0.42456 0.0
C293 C 0.86128 0.06725 0.43293 0.0
C294 C 0.89679 0.10932 0.43224 0.0
H295 H 0.70084 0.10923 0.49721 0.0
H296 H 0.75516 0.11354 0.47886 0.0
C297 C 0.93283 0.11751 0.42346 0.0
C298 C 0.82448 0.05862 0.44311 0.0
H299 H 0.74477 0.08343 0.44764 0.0
C300 C 0.81856 0.03526 0.45731 0.0
C301 C 0.79725 0.0757 0.43946 0.0
C302 C 0.80161 0.10003 0.42412 0.0
C303 C 0.78706 0.02989 0.46831 0.0
C304 C 0.76012 0.04751 0.46477 0.0
C305 C 0.76548 0.07003 0.45036 0.0
C306 C 0.72718 0.0443 0.4761 0.0
C307 C 0.78419 0.00701 0.48391 0.0
C308 C 0.69319 0.00391 0.48059 0.0
C309 C 0.66239 0.00131 0.49131 0.0
C310 C 0.66467 0.03909 0.4976 0.0
C311 C 0.6985 0.07948 0.49288 0.0
C312 C 0.72938 0.08202 0.48225 0.0
H313 H 0.8141 0.00562 0.48667 0.0
H314 H 0.7786 0.02331 0.49429 0.0
H315 H 0.7566 0.97332 0.4828 0.0
H316 H 0.69031 0.97435 0.47575 0.0
H317 H 0.637 0.96967 0.49475 0.0
H318 H 0.91358 0.02031 0.76533 0.0
H319 H 0.86305 0.95949 0.78112 0.0
H320 H 0.88986 0.87388 0.75325 0.0
H321 H 0.94146 0.93493 0.73748 0.0
H322 H 0.78929 0.88547 0.77143 0.0
H323 H 0.90897 0.84748 0.7997 0.0
H324 H 0.92496 0.89688 0.78909 0.0
H325 H 0.9077 0.84722 0.77792 0.0
C326 C 0.9089 0.98863 0.76249 0.0
C327 C 0.93186 0.98267 0.75013 0.0
C328 C 0.8799 0.95384 0.77157 0.0
C329 C 0.87311 0.91226 0.76853 0.0
C330 C 0.89531 0.90587 0.75603 0.0
H331 H 0.6551 0.68264 0.80861 0.0
H332 H 0.70584 0.73645 0.79021 0.0
C333 C 0.9246 0.9408 0.74696 0.0
C334 C 0.84232 0.87582 0.77842 0.0
H335 H 0.83526 0.80052 0.80524 0.0
C336 C 0.79928 0.86678 0.77879 0.0
C337 C 0.8556 0.85187 0.78815 0.0
C338 C 0.90189 0.86148 0.78886 0.0
C339 C 0.76919 0.83464 0.7887 0.0
C340 C 0.78226 0.8102 0.79824 0.0
C341 C 0.82525 0.81907 0.79782 0.0
C342 C 0.75226 0.77646 0.80924 0.0
C343 C 0.72411 0.8282 0.78926 0.0
C344 C 0.76217 0.78031 0.82598 0.0
C345 C 0.7334 0.74945 0.8365 0.0
C346 C 0.69413 0.71416 0.83046 0.0
C347 C 0.68472 0.70991 0.81364 0.0
C348 C 0.71365 0.74063 0.80313 0.0
H349 H 0.72276 0.85655 0.7846 0.0
H350 H 0.70153 0.79959 0.78157 0.0
H351 H 0.71246 0.82241 0.80183 0.0
H352 H 0.79185 0.80767 0.83095 0.0
H353 H 0.74143 0.75377 0.84939 0.0
H354 H 0.11292 0.03401 0.08966 0.0
H355 H 0.11467 0.98442 0.1096 0.0
H356 H 0.97585 0.90284 0.10367 0.0
H357 H 0.9737 0.95265 0.08417 0.0
H358 H 0.00213 0.91206 0.13513 0.0
H359 H 0.10276 0.86885 0.09811 0.0
H360 H 0.12749 0.92554 0.10295 0.0
H361 H 0.07896 0.89932 0.09017 0.0
C362 C 0.08277 0.00564 0.0927 0.0
C363 C 0.04321 0.99712 0.08526 0.0
C364 C 0.08385 0.97717 0.104 0.0
C365 C 0.04549 0.93943 0.10789 0.0
C366 C 0.00589 0.93163 0.10082 0.0
H367 H 0.01197 0.7025 0.14686 0.0
H368 H 0.0165 0.76086 0.13038 0.0
C369 C 0.00473 0.96017 0.08965 0.0
C370 C 0.04618 0.90748 0.11909 0.0
H371 H 0.08527 0.83851 0.12404 0.0
C372 C 0.02042 0.89607 0.13274 0.0
C373 C 0.06959 0.8862 0.11583 0.0
C374 C 0.09595 0.89521 0.1009 0.0
C375 C 0.01709 0.86373 0.14314 0.0
C376 C 0.04108 0.84297 0.14003 0.0
C377 C 0.06715 0.85466 0.12647 0.0
C378 C 0.03817 0.80772 0.15027 0.0
C379 C 0.98669 0.85108 0.157 0.0
C380 C 0.04913 0.81466 0.16693 0.0
C381 C 0.04582 0.78107 0.17647 0.0
C382 C 0.03206 0.73994 0.1695 0.0
C383 C 0.02182 0.73339 0.15273 0.0
C384 C 0.02482 0.76689 0.14324 0.0
H385 H 0.9624 0.86149 0.1551 0.0
H386 H 0.96922 0.81555 0.1586 0.0
H387 H 0.00569 0.86693 0.16838 0.0
H388 H 0.06038 0.84612 0.17257 0.0
H389 H 0.05367 0.78726 0.18935 0.0
H390 H 0.04092 0.02697 0.43522 0.0
H391 H 0.09187 0.02258 0.45467 0.0
H392 H 0.19856 0.10847 0.42556 0.0
H393 H 0.14759 0.11248 0.40607 0.0
H394 H 0.14723 0.99111 0.44651 0.0
H395 H 0.24172 0.15917 0.47181 0.0
H396 H 0.18811 0.1369 0.46256 0.0
H397 H 0.23418 0.1539 0.4501 0.0
C398 C 0.07538 0.04568 0.43323 0.0
C399 C 0.0906 0.07119 0.41948 0.0
C400 C 0.10438 0.04306 0.44428 0.0
C401 C 0.14906 0.06564 0.44169 0.0
C402 C 0.16436 0.09161 0.42803 0.0
H403 H 0.34892 0.01611 0.47919 0.0
H404 H 0.29406 0.02118 0.46243 0.0
C405 C 0.1353 0.09412 0.41696 0.0
C406 C 0.17916 0.0592 0.45252 0.0
H407 H 0.26791 0.11221 0.47831 0.0
C408 C 0.17351 0.01753 0.45352 0.0
C409 C 0.21327 0.0936 0.46172 0.0
C410 C 0.21975 0.13847 0.46165 0.0
C411 C 0.20151 0.00958 0.4633 0.0
C412 C 0.23617 0.04428 0.47219 0.0
C413 C 0.24142 0.08574 0.47139 0.0
C414 C 0.2675 0.03846 0.48244 0.0
C415 C 0.19361 0.96412 0.46419 0.0
C416 C 0.27091 0.04683 0.49921 0.0
C417 C 0.30207 0.0438 0.50884 0.0
C418 C 0.33074 0.03272 0.50184 0.0
C419 C 0.32693 0.02401 0.48502 0.0
C420 C 0.29563 0.02693 0.47541 0.0
H421 H 0.16038 0.93982 0.45966 0.0
H422 H 0.21714 0.96113 0.45661 0.0
H423 H 0.19837 0.95649 0.47685 0.0
H424 H 0.24951 0.05588 0.50484 0.0
H425 H 0.3037 0.05013 0.52177 0.0
H426 H 0.12832 0.18589 0.73434 0.0
H427 H 0.18309 0.2382 0.75388 0.0
H428 H 0.15395 0.13542 0.78716 0.0
H429 H 0.09831 0.08325 0.76771 0.0
H430 H 0.15963 0.20696 0.80215 0.0
H431 H 0.30197 0.25415 0.76455 0.0
H432 H 0.26044 0.26068 0.7545 0.0
H433 H 0.24952 0.20748 0.75967 0.0
C434 C 0.13335 0.17474 0.74593 0.0
C435 C 0.10837 0.13108 0.74986 0.0
C436 C 0.16501 0.20442 0.75696 0.0
C437 C 0.17285 0.19062 0.77191 0.0
C438 C 0.14833 0.14673 0.7757 0.0
H439 H 0.39778 0.34674 0.8361 0.0
H440 H 0.34144 0.28932 0.81859 0.0
C441 C 0.11667 0.11705 0.76465 0.0
C442 C 0.20616 0.22208 0.78369 0.0
H443 H 0.31362 0.2979 0.78817 0.0
C444 C 0.1933 0.2268 0.79912 0.0
C445 C 0.25025 0.24731 0.77981 0.0
C446 C 0.26653 0.24192 0.76379 0.0
C447 C 0.22314 0.2569 0.81064 0.0
C448 C 0.2669 0.28332 0.80653 0.0
C449 C 0.27996 0.27788 0.79124 0.0
C450 C 0.29974 0.31696 0.81785 0.0
C451 C 0.20765 0.25975 0.82717 0.0
C452 C 0.29497 0.35154 0.82323 0.0
C453 C 0.32692 0.3842 0.83336 0.0
C454 C 0.36446 0.38309 0.83819 0.0
C455 C 0.369 0.34825 0.83282 0.0
C456 C 0.33699 0.31558 0.82272 0.0
H457 H 0.17698 0.22982 0.82988 0.0
H458 H 0.23246 0.26553 0.83682 0.0
H459 H 0.20142 0.28712 0.82754 0.0
H460 H 0.26685 0.35366 0.81939 0.0
H461 H 0.32224 0.41038 0.83737 0.0
H462 H 0.91842 0.11517 0.70109 0.0
H463 H 0.86496 0.10625 0.68003 0.0
H464 H 0.89337 0.02092 0.65279 0.0
H465 H 0.94736 0.02972 0.67378 0.0
H466 H 0.88742 0.08474 0.63394 0.0
H467 H 0.7458 0.99508 0.67253 0.0
H468 H 0.78773 0.04549 0.68137 0.0
H469 H 0.79856 0.00232 0.67774 0.0
C470 C 0.91347 0.09448 0.69064 0.0
C471 C 0.93707 0.07287 0.68924 0.0
C472 C 0.88271 0.08931 0.67864 0.0
C473 C 0.87474 0.06238 0.665 0.0
C474 C 0.8989 0.04164 0.6633 0.0
H475 H 0.64816 0.97386 0.59948 0.0
H476 H 0.7057 0.97722 0.6174 0.0
C477 C 0.9297 0.0467 0.67533 0.0
C478 C 0.84102 0.05592 0.65259 0.0
H479 H 0.73278 0.01953 0.64741 0.0
C480 C 0.85355 0.07023 0.63682 0.0
C481 C 0.79681 0.03643 0.65635 0.0
C482 C 0.78122 0.01855 0.67287 0.0
C483 C 0.82313 0.06677 0.62482 0.0
C484 C 0.7792 0.04898 0.62879 0.0
C485 C 0.76653 0.03348 0.64443 0.0
C486 C 0.7459 0.04687 0.61705 0.0
C487 C 0.8382 0.08199 0.60799 0.0
C488 C 0.74941 0.08492 0.61093 0.0
C489 C 0.7167 0.0831 0.60064 0.0
C490 C 0.67968 0.04317 0.59633 0.0
C491 C 0.67649 0.00506 0.60237 0.0
C492 C 0.70921 0.00694 0.61269 0.0
H493 H 0.8694 0.08343 0.60574 0.0
H494 H 0.81363 0.06042 0.59861 0.0
H495 H 0.84322 0.115 0.60662 0.0
H496 H 0.77707 0.11614 0.61437 0.0
H497 H 0.72032 0.113 0.59609 0.0
H498 H 0.91232 0.9745 0.03063 0.0
H499 H 0.86024 0.91977 0.01106 0.0
H500 H 0.9638 0.94908 0.97876 0.0
H501 H 0.01599 0.00424 0.99837 0.0
H502 H 0.8868 0.94325 0.96368 0.0
H503 H 0.85109 0.80174 0.00121 0.0
H504 H 0.84567 0.84327 0.01134 0.0
H505 H 0.89806 0.85458 0.00513 0.0
C506 C 0.92373 0.9695 0.01925 0.0
C507 C 0.96767 0.99422 0.01567 0.0
C508 C 0.89416 0.93802 0.00819 0.0
C509 C 0.90827 0.93032 0.99352 0.0
C510 C 0.95234 0.9547 0.99001 0.0
H511 H 0.75963 0.7078 0.92865 0.0
H512 H 0.81606 0.76551 0.94606 0.0
C513 C 0.98201 0.98605 0.00115 0.0
C514 C 0.87694 0.89671 0.98187 0.0
H515 H 0.80625 0.78823 0.97754 0.0
C516 C 0.86925 0.90935 0.96666 0.0
C517 C 0.85456 0.85249 0.98576 0.0
C518 C 0.86292 0.83699 0.00169 0.0
C519 C 0.83896 0.87891 0.95532 0.0
C520 C 0.81563 0.83481 0.9594 0.0
C521 C 0.82401 0.82212 0.9745 0.0
C522 C 0.78229 0.80117 0.94823 0.0
C523 C 0.8325 0.8941 0.93902 0.0
C524 C 0.74457 0.80209 0.94374 0.0
C525 C 0.71214 0.76904 0.93387 0.0
C526 C 0.71676 0.73432 0.92839 0.0
C527 C 0.75483 0.73377 0.93282 0.0
C528 C 0.78719 0.76681 0.94269 0.0
H529 H 0.86014 0.92648 0.93629 0.0
H530 H 0.82845 0.87087 0.92919 0.0
H531 H 0.8027 0.89648 0.93904 0.0
H532 H 0.73975 0.82785 0.94817 0.0
H533 H 0.68294 0.77007 0.93091 0.0
H534 H 0.94467 0.95043 0.3459 0.0
H535 H 0.94331 0.89779 0.32641 0.0
H536 H 0.08222 0.95684 0.33239 0.0
H537 H 0.08397 0.01022 0.35147 0.0
H538 H 0.05632 0.93772 0.30105 0.0
H539 H 0.95543 0.79513 0.33814 0.0
H540 H 0.9302 0.8263 0.33323 0.0
H541 H 0.97887 0.84983 0.34596 0.0
C542 C 0.97493 0.95228 0.34301 0.0
C543 C 0.0144 0.98432 0.35029 0.0
C544 C 0.97406 0.92198 0.33195 0.0
C545 C 0.01256 0.92278 0.32819 0.0
C546 C 0.05208 0.95543 0.33516 0.0
H547 H 0.03834 0.71401 0.28762 0.0
H548 H 0.03698 0.76924 0.30468 0.0
C549 C 0.05302 0.98593 0.34608 0.0
C550 C 0.01196 0.88963 0.31708 0.0
H551 H 0.97088 0.78097 0.31183 0.0
C552 C 0.03762 0.90343 0.3034 0.0
C553 C 0.98805 0.84492 0.32028 0.0
C554 C 0.96191 0.82809 0.33527 0.0
C555 C 0.04007 0.87385 0.29285 0.0
C556 C 0.01526 0.82907 0.29581 0.0
C557 C 0.98959 0.81526 0.30949 0.0
C558 C 0.01655 0.79602 0.28523 0.0
C559 C 0.07027 0.89102 0.27892 0.0
C560 C 0.00522 0.79241 0.26861 0.0
C561 C 0.00673 0.76131 0.25874 0.0
C562 C 0.01899 0.73268 0.26532 0.0
C563 C 0.02961 0.73599 0.28204 0.0
C564 C 0.02844 0.76732 0.29186 0.0
H565 H 0.0955 0.92552 0.281 0.0
H566 H 0.0866 0.87202 0.27697 0.0
H567 H 0.05133 0.8887 0.26767 0.0
H568 H 0.99501 0.81354 0.26327 0.0
H569 H 0.99865 0.76001 0.24592 0.0
H570 H 0.06721 0.97551 0.6826 0.0
H571 H 0.11584 0.97051 0.66344 0.0
H572 H 0.18356 0.10894 0.65867 0.0
H573 H 0.13564 0.11431 0.67785 0.0
H574 H 0.13577 0.99903 0.63088 0.0
H575 H 0.27958 0.08343 0.67314 0.0
H576 H 0.22486 0.06202 0.67967 0.0
H577 H 0.25157 0.11261 0.66946 0.0
C578 C 0.09226 0.00483 0.67737 0.0
C579 C 0.09783 0.04534 0.68185 0.0
C580 C 0.11999 0.00192 0.66644 0.0
C581 C 0.15378 0.03944 0.65989 0.0
C582 C 0.15825 0.07968 0.66385 0.0
H583 H 0.36693 0.10192 0.59763 0.0
H584 H 0.31235 0.10209 0.61478 0.0
C585 C 0.13066 0.08264 0.67476 0.0
C586 C 0.18508 0.03685 0.64921 0.0
H587 H 0.29263 0.07077 0.6462 0.0
C588 C 0.17003 0.01446 0.63424 0.0
C589 C 0.22973 0.05697 0.65367 0.0
C590 C 0.24746 0.07979 0.66992 0.0
C591 C 0.19873 0.01267 0.62339 0.0
C592 C 0.24346 0.03323 0.62779 0.0
C593 C 0.25836 0.05522 0.64283 0.0
C594 C 0.27555 0.03259 0.61697 0.0
C595 C 0.18114 0.9898 0.60715 0.0
C596 C 0.27317 0.99348 0.61262 0.0
C597 C 0.30447 0.99328 0.60288 0.0
C598 C 0.33893 0.03226 0.59739 0.0
C599 C 0.34116 0.07138 0.6018 0.0
C600 C 0.30986 0.07153 0.61153 0.0
H601 H 0.14854 0.98513 0.60405 0.0
H602 H 0.20333 0.00815 0.59737 0.0
H603 H 0.17819 0.95745 0.60752 0.0
H604 H 0.24754 0.96314 0.61699 0.0
H605 H 0.30218 0.96265 0.59995 0.0
H606 H 0.09085 0.20653 0.00875 0.0
H607 H 0.1538 0.25659 0.9937 0.0
H608 H 0.22257 0.19312 0.01046 0.0
H609 H 0.15959 0.14261 0.0257 0.0
H610 H 0.24651 0.31246 0.00678 0.0
H611 H 0.22096 0.19102 0.95861 0.0
H612 H 0.1777 0.18455 0.97122 0.0
H613 H 0.21989 0.1763 0.9795 0.0
C614 C 0.11935 0.20319 0.00935 0.0
C615 C 0.12002 0.17034 0.01841 0.0
C616 C 0.15533 0.23194 0.00075 0.0
C617 C 0.19255 0.22826 0.00089 0.0
C618 C 0.19389 0.19619 0.01014 0.0
H619 H 0.41604 0.36467 0.93975 0.0
H620 H 0.36489 0.31571 0.95922 0.0
C621 C 0.15796 0.16751 0.01888 0.0
C622 C 0.22943 0.25763 0.99101 0.0
H623 H 0.27822 0.26207 0.95558 0.0
C624 C 0.25376 0.30149 0.99564 0.0
C625 C 0.23877 0.24303 0.97657 0.0
C626 C 0.21298 0.19622 0.97103 0.0
C627 C 0.28708 0.33139 0.98608 0.0
C628 C 0.29536 0.31714 0.97127 0.0
C629 C 0.27173 0.27298 0.96689 0.0
C630 C 0.3272 0.34768 0.95985 0.0
C631 C 0.31323 0.37787 0.992 0.0
C632 C 0.32273 0.38163 0.95357 0.0
C633 C 0.35218 0.40997 0.9426 0.0
C634 C 0.38647 0.40464 0.93747 0.0
C635 C 0.3905 0.3702 0.94363 0.0
C636 C 0.36111 0.34199 0.95468 0.0
H637 H 0.31262 0.38063 0.0054 0.0
H638 H 0.34749 0.3929 0.98847 0.0
H639 H 0.29903 0.39646 0.98656 0.0
H640 H 0.29621 0.38605 0.95707 0.0
H641 H 0.34827 0.43631 0.93825 0.0
H642 H 0.9965 0.11369 0.33822 0.0
H643 H 0.99371 0.15662 0.31564 0.0
H644 H 0.05864 0.27185 0.3461 0.0
H645 H 0.06218 0.22992 0.36849 0.0
H646 H 0.95587 0.20899 0.3136 0.0
H647 H 0.13305 0.30633 0.30637 0.0
H648 H 0.10824 0.25725 0.31775 0.0
H649 H 0.11859 0.30751 0.32692 0.0
C650 C 0.01028 0.14819 0.3401 0.0
C651 C 0.02985 0.1683 0.35518 0.0
C652 C 0.00865 0.17264 0.32718 0.0
C653 C 0.02678 0.21754 0.32911 0.0
C654 C 0.04544 0.23743 0.34421 0.0
H655 H 0.04045 0.43728 0.28589 0.0
H656 H 0.04057 0.38121 0.30253 0.0
C657 C 0.04717 0.21322 0.35706 0.0
C658 C 0.02564 0.24407 0.3156 0.0
H659 H 0.09059 0.33546 0.29497 0.0
C660 C 0.98529 0.23616 0.30927 0.0
C661 C 0.06412 0.27935 0.30992 0.0
C662 C 0.10844 0.28788 0.31547 0.0
C663 C 0.98242 0.26417 0.29811 0.0
C664 C 0.02086 0.30073 0.29317 0.0
C665 C 0.06119 0.30754 0.29893 0.0
C666 C 0.01996 0.33393 0.28287 0.0
C667 C 0.93842 0.2558 0.29221 0.0
C668 C 0.00857 0.32586 0.26628 0.0
C669 C 0.009 0.35809 0.25665 0.0
C670 C 0.0208 0.39892 0.26347 0.0
C671 C 0.03195 0.40658 0.28016 0.0
C672 C 0.03173 0.37448 0.28972 0.0
H673 H 0.91164 0.22823 0.29837 0.0
H674 H 0.93585 0.2851 0.29425 0.0
H675 H 0.93429 0.2485 0.27896 0.0
H676 H 0.99986 0.29485 0.26077 0.0
H677 H 1.0008 0.35125 0.24381 0.0
loop_
_geom_bond_atom_site_label_1
_geom_bond_atom_site_label_2
_geom_bond_distance
_geom_bond_site_symmetry_2
_ccdc_geom_bond_type
Mn0 O5 2.095 . S
Mn0 O15 2.162 . S
Mn0 O16 2.297 . S
Mn0 O24 2.370 1_545 S
Mn0 O25 2.209 1_455 S
Mn0 O26 2.094 . S
Mn1 O6 2.121 . S
Mn1 N8 2.257 1_455 S
Mn1 N17 2.282 1_455 S
Mn1 O25 2.215 1_455 S
Mn1 O27 2.117 . S
C2 O24 1.215 1_645 S
C2 O25 1.283 . S
C3 O15 1.281 1_565 S
C3 O16 1.237 1_565 S
C4 O26 1.240 . S
C4 O27 1.264 . S
O5 Mn0 2.095 . S
O5 C14 1.250 . S
O6 Mn1 2.121 . S
O6 C14 1.258 . S
C7 N8 1.326 . S
C7 C11 1.460 . S
C7 H13 0.929 . S
N8 Mn1 2.257 1_655 S
N8 C7 1.326 . S
N8 C12 1.362 . S
C9 C10 1.258 . S
C9 C12 1.431 . S
C9 C29 1.449 1_554 S
C10 C9 1.258 . S
C10 C11 1.477 . S
C10 H30 0.931 . S
C11 C7 1.460 . S
C11 C10 1.477 . S
C11 H31 0.930 . S
C12 N8 1.362 . S
C12 C9 1.431 . S
C12 C22 1.467 1_554 S
H13 C7 0.929 . S
C14 O5 1.250 . S
C14 O6 1.258 . S
O15 Mn0 2.162 . S
O15 C3 1.281 1_545 S
O16 Mn0 2.297 . S
O16 C3 1.237 1_545 S
N17 Mn1 2.282 1_655 S
N17 C18 1.328 1_654 S
N17 C22 1.315 1_554 S
C18 N17 1.328 1_456 S
C18 C19 1.457 1_455 S
C18 H23 0.929 . S
C19 C18 1.457 1_655 S
C19 C20 1.291 . S
C19 H32 0.931 1_655 S
C20 C19 1.291 . S
C20 C21 1.373 . S
C20 H33 0.929 . S
C21 C20 1.373 . S
C21 C22 1.406 . S
C21 C28 1.403 . S
C22 C12 1.467 1_556 S
C22 N17 1.315 1_556 S
C22 C21 1.406 . S
H23 C18 0.929 . S
O24 Mn0 2.370 1_565 S
O24 C2 1.215 1_465 S
O25 Mn0 2.209 1_655 S
O25 Mn1 2.215 1_655 S
O25 C2 1.283 . S
O26 Mn0 2.094 . S
O26 C4 1.240 . S
O27 Mn1 2.117 . S
O27 C4 1.264 . S
C28 C21 1.403 . S
C28 C29 1.399 . S
C28 H34 0.929 . S
C29 C9 1.449 1_556 S
C29 C28 1.399 . S
C29 H35 0.930 . S
H30 C10 0.931 . S
H31 C11 0.930 . S
H32 C19 0.931 1_455 S
H33 C20 0.929 . S
H34 C28 0.929 . S
H35 C29 0.930 . S
Mn36 O41 2.095 . S
Mn36 O51 2.162 1_545 S
Mn36 O52 2.297 1_655 S
Mn36 O60 2.385 1_655 S
Mn36 O61 2.209 1_655 S
Mn36 O62 2.094 . S
Mn37 O42 2.121 . S
Mn37 N44 2.257 . S
Mn37 N53 2.282 . S
Mn37 O61 2.215 . S
Mn37 O63 2.117 1_455 S
C38 O60 1.234 . S
C38 O61 1.283 . S
C39 O51 1.281 1_455 S
C39 O52 1.236 1_565 S
C40 O62 1.240 . S
C40 O63 1.264 . S
O41 Mn36 2.095 . S
O41 C50 1.250 1_655 S
O42 Mn37 2.121 . S
O42 C50 1.258 . S
C43 N44 1.326 . S
C43 C47 1.460 . S
C43 H49 0.929 . S
N44 Mn37 2.257 . S
N44 C43 1.326 . S
N44 C48 1.362 . S
C45 C46 1.258 . S
C45 C48 1.431 . S
C45 C65 1.449 . S
C46 C45 1.258 . S
C46 C47 1.477 . S
C46 H66 0.931 . S
C47 C43 1.460 . S
C47 C46 1.477 . S
C47 H67 0.930 . S
C48 N44 1.362 . S
C48 C45 1.431 . S
C48 C58 1.476 . S
H49 C43 0.929 . S
C50 O41 1.250 1_455 S
C50 O42 1.258 . S
O51 Mn36 2.162 1_565 S
O51 C39 1.281 1_655 S
O52 Mn36 2.297 1_455 S
O52 C39 1.236 1_545 S
N53 Mn37 2.282 . S
N53 C54 1.328 . S
N53 C58 1.318 . S
C54 N53 1.328 . S
C54 C55 1.457 . S
C54 H59 0.929 . S
C55 C54 1.457 . S
C55 C56 1.291 . S
C55 H68 0.931 . S
C56 C55 1.291 . S
C56 C57 1.373 . S
C56 H69 0.929 . S
C57 C56 1.373 . S
C57 C58 1.396 . S
C57 C64 1.403 . S
C58 C48 1.476 . S
C58 N53 1.318 . S
C58 C57 1.396 . S
H59 C54 0.929 . S
O60 Mn36 2.385 1_455 S
O60 C38 1.234 . S
O61 Mn36 2.209 1_455 S
O61 Mn37 2.215 . S
O61 C38 1.283 . S
O62 Mn36 2.094 . S
O62 C40 1.240 . S
O63 Mn37 2.117 1_655 S
O63 C40 1.264 . S
C64 C57 1.403 . S
C64 C65 1.399 . S
C64 H70 0.929 . S
C65 C45 1.449 . S
C65 C64 1.399 . S
C65 H71 0.930 . S
H66 C46 0.931 . S
H67 C47 0.930 . S
H68 C55 0.931 . S
H69 C56 0.929 . S
H70 C64 0.929 . S
H71 C65 0.930 . S
Mn72 O77 2.095 1_455 S
Mn72 O87 2.162 . S
Mn72 O88 2.297 . S
Mn72 O96 2.385 . S
Mn72 O97 2.209 . S
Mn72 O98 2.094 1_445 S
Mn73 O78 2.121 . S
Mn73 N80 2.257 . S
Mn73 N89 2.282 1_655 S
Mn73 O97 2.215 1_655 S
Mn73 O99 2.117 . S
C74 O96 1.234 . S
C74 O97 1.283 . S
C75 O87 1.281 . S
C75 O88 1.236 . S
C76 O98 1.240 . S
C76 O99 1.264 1_565 S
O77 Mn72 2.095 1_655 S
O77 C86 1.250 . S
O78 Mn73 2.121 . S
O78 C86 1.258 . S
C79 N80 1.326 . S
C79 C83 1.460 1_655 S
C79 H85 0.929 . S
N80 Mn73 2.257 . S
N80 C79 1.326 . S
N80 C84 1.362 1_655 S
C81 C82 1.258 . S
C81 C84 1.431 . S
C81 C101 1.449 . S
C82 C81 1.258 . S
C82 C83 1.477 . S
C82 H102 0.931 . S
C83 C79 1.460 1_455 S
C83 C82 1.477 . S
C83 H103 0.941 . S
C84 N80 1.362 1_455 S
C84 C81 1.431 . S
C84 C94 1.476 . S
H85 C79 0.929 . S
C86 O77 1.250 . S
C86 O78 1.258 . S
O87 Mn72 2.162 . S
O87 C75 1.281 . S
O88 Mn72 2.297 . S
O88 C75 1.236 . S
N89 Mn73 2.282 1_455 S
N89 C90 1.328 . S
N89 C94 1.318 . S
C90 N89 1.328 . S
C90 C91 1.457 . S
C90 H95 0.924 . S
C91 C90 1.457 . S
C91 C92 1.291 . S
C91 H104 0.931 . S
C92 C91 1.291 . S
C92 C93 1.373 . S
C92 H105 0.929 . S
C93 C92 1.373 . S
C93 C94 1.396 . S
C93 C100 1.403 . S
C94 C84 1.476 . S
C94 N89 1.318 . S
C94 C93 1.396 . S
H95 C90 0.924 . S
O96 Mn72 2.385 . S
O96 C74 1.234 . S
O97 Mn72 2.209 . S
O97 Mn73 2.215 1_455 S
O97 C74 1.283 . S
O98 Mn72 2.094 1_665 S
O98 C76 1.240 . S
O99 Mn73 2.117 . S
O99 C76 1.264 1_545 S
C100 C93 1.403 . S
C100 C101 1.399 . S
C100 H106 0.929 . S
C101 C81 1.449 . S
C101 C100 1.399 . S
C101 H107 0.930 . S
H102 C82 0.931 . S
H103 C83 0.941 . S
H104 C91 0.931 . S
H105 C92 0.929 . S
H106 C100 0.929 . S
H107 C101 0.930 . S
C108 C109 1.384 1_655 S
C108 C110 1.384 . S
C108 H136 0.931 . S
C109 C108 1.384 1_455 S
C109 C112 1.382 . S
C110 C108 1.384 . S
C110 C111 1.381 1_655 S
C110 H137 0.930 . S
C111 C110 1.381 1_455 S
C111 C113 1.381 . S
C111 C114 1.487 . S
C112 C109 1.382 . S
C112 C113 1.387 . S
C112 H138 0.930 . S
C113 C111 1.381 . S
C113 C112 1.387 . S
C113 H139 0.931 . S
C114 C111 1.487 . S
C114 C121 1.399 . S
C114 N152 1.343 . S
C115 C116 1.384 . S
C115 C117 1.384 . S
C115 H140 0.931 . S
C116 C115 1.384 . S
C116 C119 1.382 1_455 S
C117 C115 1.384 . S
C117 C118 1.381 . S
C117 H141 0.930 . S
C118 C117 1.381 . S
C118 C120 1.381 1_455 S
C118 C121 1.487 . S
C119 C116 1.382 1_655 S
C119 C120 1.387 . S
C119 H142 0.930 . S
C120 C118 1.381 1_655 S
C120 C119 1.387 . S
C120 H143 0.931 . S
C121 C114 1.399 . S
C121 C118 1.487 . S
C121 N153 1.343 . S
C122 C123 1.384 . S
C122 C124 1.384 . S
C122 H144 0.931 . S
C123 C122 1.384 . S
C123 C126 1.382 1_455 S
C124 C122 1.384 . S
C124 C125 1.381 . S
C124 H145 0.930 . S
C125 C124 1.381 . S
C125 C127 1.381 1_455 S
C125 C128 1.487 . S
C126 C123 1.382 1_655 S
C126 C127 1.387 . S
C126 H146 0.930 . S
C127 C125 1.381 1_655 S
C127 C126 1.387 . S
C127 H147 0.931 . S
C128 C125 1.487 . S
C128 C135 1.399 . S
C128 N153 1.343 . S
C129 C130 1.384 1_655 S
C129 C131 1.384 . S
C129 H148 0.931 . S
C130 C129 1.384 1_455 S
C130 C133 1.382 . S
C131 C129 1.384 . S
C131 C132 1.381 1_655 S
C131 H149 0.930 . S
C132 C131 1.381 1_455 S
C132 C134 1.381 . S
C132 C135 1.487 . S
C133 C130 1.382 . S
C133 C134 1.387 . S
C133 H150 0.930 . S
C134 C132 1.381 . S
C134 C133 1.387 . S
C134 H151 0.931 . S
C135 C128 1.399 . S
C135 C132 1.487 . S
C135 N152 1.343 . S
H136 C108 0.931 . S
H137 C110 0.930 . S
H138 C112 0.930 . S
H139 C113 0.931 . S
H140 C115 0.931 . S
H141 C117 0.930 . S
H142 C119 0.930 . S
H143 C120 0.931 . S
H144 C122 0.931 . S
H145 C124 0.930 . S
H146 C126 0.930 . S
H147 C127 0.931 . S
H148 C129 0.931 . S
H149 C131 0.930 . S
H150 C133 0.930 . S
H151 C134 0.931 . S
N152 C114 1.343 . S
N152 C135 1.343 . S
N153 C121 1.343 . S
N153 C128 1.343 . S
C154 C155 1.384 . S
C154 C156 1.384 . S
C154 H182 0.931 . S
C155 C154 1.384 . S
C155 C158 1.382 . S
C156 C154 1.384 . S
C156 C157 1.381 . S
C156 H183 0.930 . S
C157 C156 1.381 . S
C157 C159 1.381 . S
C157 C160 1.487 . S
C158 C155 1.382 . S
C158 C159 1.387 . S
C158 H184 0.930 . S
C159 C157 1.381 . S
C159 C158 1.387 . S
C159 H185 0.931 . S
C160 C157 1.487 . S
C160 C167 1.399 . S
C160 N198 1.343 . S
C161 C162 1.384 . S
C161 C163 1.384 . S
C161 H186 0.931 . S
C162 C161 1.384 . S
C162 C165 1.382 . S
C163 C161 1.384 . S
C163 C164 1.381 . S
C163 H187 0.930 . S
C164 C163 1.381 . S
C164 C166 1.381 . S
C164 C167 1.487 . S
C165 C162 1.382 . S
C165 C166 1.387 . S
C165 H188 0.930 . S
C166 C164 1.381 . S
C166 C165 1.387 . S
C166 H189 0.931 . S
C167 C160 1.399 . S
C167 C164 1.487 . S
C167 N199 1.343 . S
C168 C169 1.384 . S
C168 C170 1.384 . S
C168 H190 0.931 . S
C169 C168 1.384 . S
C169 C172 1.382 . S
C170 C168 1.384 . S
C170 C171 1.381 . S
C170 H191 0.930 . S
C171 C170 1.381 . S
C171 C173 1.381 . S
C171 C174 1.487 . S
C172 C169 1.382 . S
C172 C173 1.387 . S
C172 H192 0.930 . S
C173 C171 1.381 . S
C173 C172 1.387 . S
C173 H193 0.931 . S
C174 C171 1.487 . S
C174 C181 1.399 . S
C174 N199 1.343 . S
C175 C176 1.384 . S
C175 C177 1.384 . S
C175 H194 0.931 . S
C176 C175 1.384 . S
C176 C179 1.382 . S
C177 C175 1.384 . S
C177 C178 1.381 . S
C177 H195 0.930 . S
C178 C177 1.381 . S
C178 C180 1.381 . S
C178 C181 1.487 . S
C179 C176 1.382 . S
C179 C180 1.387 . S
C179 H196 0.930 . S
C180 C178 1.381 . S
C180 C179 1.387 . S
C180 H197 0.931 . S
C181 C174 1.399 . S
C181 C178 1.487 . S
C181 N198 1.343 . S
H182 C154 0.931 . S
H183 C156 0.930 . S
H184 C158 0.930 . S
H185 C159 0.931 . S
H186 C161 0.931 . S
H187 C163 0.930 . S
H188 C165 0.930 . S
H189 C166 0.931 . S
H190 C168 0.931 . S
H191 C170 0.930 . S
H192 C172 0.930 . S
H193 C173 0.931 . S
H194 C175 0.931 . S
H195 C177 0.930 . S
H196 C179 0.930 . S
H197 C180 0.931 . S
N198 C160 1.343 . S
N198 C181 1.343 . S
N199 C167 1.343 . S
N199 C174 1.343 . S
C200 C201 1.384 . S
C200 C202 1.384 . S
C200 H228 0.931 . S
C201 C200 1.384 . S
C201 C204 1.382 . S
C202 C200 1.384 . S
C202 C203 1.381 . S
C202 H229 0.930 . S
C203 C202 1.381 . S
C203 C205 1.381 . S
C203 C206 1.487 . S
C204 C201 1.382 . S
C204 C205 1.387 . S
C204 H230 0.930 . S
C205 C203 1.381 . S
C205 C204 1.387 . S
C205 H231 0.931 . S
C206 C203 1.487 . S
C206 C213 1.399 . S
C206 N244 1.343 . S
C207 C208 1.384 . S
C207 C209 1.384 . S
C207 H232 0.931 . S
C208 C207 1.384 . S
C208 C211 1.382 . S
C209 C207 1.384 . S
C209 C210 1.381 . S
C209 H233 0.930 . S
C210 C209 1.381 . S
C210 C212 1.381 . S
C210 C213 1.487 . S
C211 C208 1.382 . S
C211 C212 1.387 . S
C211 H234 0.930 . S
C212 C210 1.381 . S
C212 C211 1.387 . S
C212 H235 0.931 . S
C213 C206 1.399 . S
C213 C210 1.487 . S
C213 N245 1.343 . S
C214 C215 1.384 . S
C214 C216 1.384 . S
C214 H236 0.931 . S
C215 C214 1.384 . S
C215 C218 1.382 . S
C216 C214 1.384 . S
C216 C217 1.381 . S
C216 H237 0.930 . S
C217 C216 1.381 . S
C217 C219 1.381 . S
C217 C220 1.487 . S
C218 C215 1.382 . S
C218 C219 1.387 . S
C218 H238 0.930 . S
C219 C217 1.381 . S
C219 C218 1.387 . S
C219 H239 0.931 . S
C220 C217 1.487 . S
C220 C227 1.399 . S
C220 N245 1.343 . S
C221 C222 1.384 . S
C221 C223 1.384 . S
C221 H240 0.931 . S
C222 C221 1.384 . S
C222 C225 1.382 . S
C223 C221 1.384 . S
C223 C224 1.381 . S
C223 H241 0.930 . S
C224 C223 1.381 . S
C224 C226 1.381 . S
C224 C227 1.487 . S
C225 C222 1.382 . S
C225 C226 1.387 . S
C225 H242 0.930 . S
C226 C224 1.381 . S
C226 C225 1.387 . S
C226 H243 0.931 . S
C227 C220 1.399 . S
C227 C224 1.487 . S
C227 N244 1.343 . S
H228 C200 0.931 . S
H229 C202 0.930 . S
H230 C204 0.930 . S
H231 C205 0.931 . S
H232 C207 0.931 . S
H233 C209 0.930 . S
H234 C211 0.930 . S
H235 C212 0.931 . S
H236 C214 0.931 . S
H237 C216 0.930 . S
H238 C218 0.930 . S
H239 C219 0.931 . S
H240 C221 0.931 . S
H241 C223 0.930 . S
H242 C225 0.930 . S
H243 C226 0.931 . S
N244 C206 1.343 . S
N244 C227 1.343 . S
N245 C213 1.343 . S
N245 C220 1.343 . S
H246 C254 0.924 1_655 S
H247 C256 0.930 1_655 S
H248 C258 0.930 . S
H249 C261 0.929 . S
H250 C264 0.930 . S
H251 C266 0.960 . S
H252 C266 0.960 1_655 S
H253 C266 0.960 . S
C254 H246 0.924 1_455 S
C254 C255 1.394 . S
C254 C256 1.373 . S
C255 C254 1.394 . S
C255 C261 1.390 . S
C256 H247 0.930 1_455 S
C256 C254 1.373 . S
C256 C257 1.372 . S
C257 C256 1.372 . S
C257 C258 1.400 . S
C257 C262 1.490 . S
C258 H248 0.930 . S
C258 C257 1.400 . S
C258 C261 1.386 . S
H259 C275 0.930 . S
H260 C276 0.931 . S
C261 H249 0.929 . S
C261 C255 1.390 . S
C261 C258 1.386 . S
C262 C257 1.490 . S
C262 C264 1.395 . S
C262 C265 1.403 . S
H263 C269 0.930 . S
C264 H250 0.930 . S
C264 C262 1.395 . S
C264 C267 1.403 . S
C265 C262 1.403 . S
C265 C266 1.524 . S
C265 C269 1.400 . S
C266 H251 0.960 . S
C266 H252 0.960 1_455 S
C266 H253 0.960 . S
C266 C265 1.524 . S
C267 C264 1.403 . S
C267 C268 1.392 . S
C267 C271 1.495 . S
C268 C267 1.392 . S
C268 C269 1.385 . S
C268 C270 1.478 . S
C269 H263 0.930 . S
C269 C265 1.400 . S
C269 C268 1.385 . S
C270 C268 1.478 . S
C270 C272 1.365 1_455 S
C270 C276 1.383 . S
C271 C267 1.495 . S
C271 H277 0.959 . S
C271 H278 0.961 . S
C271 H279 0.960 . S
C272 C270 1.365 1_655 S
C272 C273 1.404 . S
C272 H280 0.936 . S
C273 C272 1.404 . S
C273 C274 1.383 1_655 S
C273 H281 0.929 . S
C274 C273 1.383 1_455 S
C274 C275 1.377 . S
C275 H259 0.930 . S
C275 C274 1.377 . S
C275 C276 1.379 . S
C276 H260 0.931 . S
C276 C270 1.383 . S
C276 C275 1.379 . S
H277 C271 0.959 . S
H278 C271 0.961 . S
H279 C271 0.960 . S
H280 C272 0.936 . S
H281 C273 0.929 . S
H282 C290 0.929 1_565 S
H283 C292 0.930 . S
H284 C294 0.930 . S
H285 C297 0.929 . S
H286 C300 0.930 . S
H287 C302 0.960 . S
H288 C302 0.960 . S
H289 C302 0.960 . S
C290 H282 0.929 1_545 S
C290 C291 1.377 . S
C290 C292 1.384 . S
C291 C290 1.377 . S
C291 C297 1.390 . S
C292 H283 0.930 . S
C292 C290 1.384 . S
C292 C293 1.372 . S
C293 C292 1.372 . S
C293 C294 1.400 . S
C293 C298 1.490 . S
C294 H284 0.930 . S
C294 C293 1.400 . S
C294 C297 1.386 . S
H295 C311 0.930 . S
H296 C312 0.931 . S
C297 H285 0.929 . S
C297 C291 1.390 . S
C297 C294 1.386 . S
C298 C293 1.490 . S
C298 C300 1.395 . S
C298 C301 1.403 . S
H299 C305 0.930 . S
C300 H286 0.930 . S
C300 C298 1.395 . S
C300 C303 1.403 . S
C301 C298 1.403 . S
C301 C302 1.524 . S
C301 C305 1.400 . S
C302 H287 0.960 . S
C302 H288 0.960 . S
C302 H289 0.960 . S
C302 C301 1.524 . S
C303 C300 1.403 . S
C303 C304 1.392 . S
C303 C307 1.495 . S
C304 C303 1.392 . S
C304 C305 1.385 . S
C304 C306 1.478 . S
C305 H299 0.930 . S
C305 C301 1.400 . S
C305 C304 1.385 . S
C306 C304 1.478 . S
C306 C308 1.381 . S
C306 C312 1.383 . S
C307 C303 1.495 . S
C307 H313 0.959 . S
C307 H314 0.961 . S
C307 H315 0.960 . S
C308 C306 1.381 . S
C308 C309 1.394 . S
C308 H316 0.930 . S
C309 C308 1.394 . S
C309 C310 1.383 . S
C309 H317 0.929 . S
C310 C309 1.383 . S
C310 C311 1.377 . S
C311 H295 0.930 . S
C311 C310 1.377 . S
C311 C312 1.379 . S
C312 H296 0.931 . S
C312 C306 1.383 . S
C312 C311 1.379 . S
H313 C307 0.959 . S
H314 C307 0.961 . S
H315 C307 0.960 . S
H316 C308 0.930 . S
H317 C309 0.929 . S
H318 C326 0.928 1_545 S
H319 C328 0.930 . S
H320 C330 0.930 . S
H321 C333 0.929 . S
H322 C336 0.930 . S
H323 C338 0.960 . S
H324 C338 0.960 . S
H325 C338 0.960 . S
C326 H318 0.928 1_565 S
C326 C327 1.377 . S
C326 C328 1.384 . S
C327 C326 1.377 . S
C327 C333 1.390 . S
C328 H319 0.930 . S
C328 C326 1.384 . S
C328 C329 1.372 . S
C329 C328 1.372 . S
C329 C330 1.400 . S
C329 C334 1.490 . S
C330 H320 0.930 . S
C330 C329 1.400 . S
C330 C333 1.386 . S
H331 C347 0.930 . S
H332 C348 0.931 . S
C333 H321 0.929 . S
C333 C327 1.390 . S
C333 C330 1.386 . S
C334 C329 1.490 . S
C334 C336 1.395 . S
C334 C337 1.403 . S
H335 C341 0.930 . S
C336 H322 0.930 . S
C336 C334 1.395 . S
C336 C339 1.403 . S
C337 C334 1.403 . S
C337 C338 1.524 . S
C337 C341 1.400 . S
C338 H323 0.960 . S
C338 H324 0.960 . S
C338 H325 0.960 . S
C338 C337 1.524 . S
C339 C336 1.403 . S
C339 C340 1.392 . S
C339 C343 1.495 . S
C340 C339 1.392 . S
C340 C341 1.385 . S
C340 C342 1.478 . S
C341 H335 0.930 . S
C341 C337 1.400 . S
C341 C340 1.385 . S
C342 C340 1.478 . S
C342 C344 1.381 . S
C342 C348 1.383 . S
C343 C339 1.495 . S
C343 H349 0.959 . S
C343 H350 0.961 . S
C343 H351 0.960 . S
C344 C342 1.381 . S
C344 C345 1.394 . S
C344 H352 0.930 . S
C345 C344 1.394 . S
C345 C346 1.383 . S
C345 H353 0.929 . S
C346 C345 1.383 . S
C346 C347 1.377 . S
C347 H331 0.930 . S
C347 C346 1.377 . S
C347 C348 1.379 . S
C348 H332 0.931 . S
C348 C342 1.383 . S
C348 C347 1.379 . S
H349 C343 0.959 . S
H350 C343 0.961 . S
H351 C343 0.960 . S
H352 C344 0.930 . S
H353 C345 0.929 . S
H354 C362 0.929 1_545 S
H355 C364 0.930 . S
H356 C366 0.930 . S
H357 C369 0.929 . S
H358 C372 0.930 1_655 S
H359 C374 0.960 . S
H360 C374 0.960 . S
H361 C374 0.960 . S
C362 H354 0.929 1_565 S
C362 C363 1.377 . S
C362 C364 1.384 . S
C363 C362 1.377 . S
C363 C369 1.390 . S
C364 H355 0.930 . S
C364 C362 1.384 . S
C364 C365 1.372 . S
C365 C364 1.372 . S
C365 C366 1.400 . S
C365 C370 1.490 . S
C366 H356 0.930 . S
C366 C365 1.400 . S
C366 C369 1.386 . S
H367 C383 0.930 . S
H368 C384 0.931 . S
C369 H357 0.929 . S
C369 C363 1.390 . S
C369 C366 1.386 . S
C370 C365 1.490 . S
C370 C372 1.395 . S
C370 C373 1.403 . S
H371 C377 0.930 . S
C372 H358 0.930 1_455 S
C372 C370 1.395 . S
C372 C375 1.403 . S
C373 C370 1.403 . S
C373 C374 1.524 . S
C373 C377 1.400 . S
C374 H359 0.960 . S
C374 H360 0.960 . S
C374 H361 0.960 . S
C374 C373 1.524 . S
C375 C372 1.403 . S
C375 C376 1.392 . S
C375 C379 1.495 1_455 S
C376 C375 1.392 . S
C376 C377 1.385 . S
C376 C378 1.478 . S
C377 H371 0.930 . S
C377 C373 1.400 . S
C377 C376 1.385 . S
C378 C376 1.478 . S
C378 C380 1.381 . S
C378 C384 1.383 . S
C379 C375 1.495 1_655 S
C379 H385 0.959 . S
C379 H386 0.961 . S
C379 H387 0.960 . S
C380 C378 1.381 . S
C380 C381 1.394 . S
C380 H388 0.930 . S
C381 C380 1.394 . S
C381 C382 1.383 . S
C381 H389 0.929 . S
C382 C381 1.383 . S
C382 C383 1.377 . S
C383 H367 0.930 . S
C383 C382 1.377 . S
C383 C384 1.379 . S
C384 H368 0.931 . S
C384 C378 1.383 . S
C384 C383 1.379 . S
H385 C379 0.959 . S
H386 C379 0.961 . S
H387 C379 0.960 . S
H388 C380 0.930 . S
H389 C381 0.929 . S
H390 C398 0.929 . S
H391 C400 0.930 . S
H392 C402 0.930 . S
H393 C405 0.929 . S
H394 C408 0.930 . S
H395 C410 0.960 . S
H396 C410 0.960 . S
H397 C410 0.960 . S
C398 H390 0.929 . S
C398 C399 1.377 . S
C398 C400 1.384 . S
C399 C398 1.377 . S
C399 C405 1.390 . S
C400 H391 0.930 . S
C400 C398 1.384 . S
C400 C401 1.372 . S
C401 C400 1.372 . S
C401 C402 1.400 . S
C401 C406 1.490 . S
C402 H392 0.930 . S
C402 C401 1.400 . S
C402 C405 1.386 . S
H403 C419 0.930 . S
H404 C420 0.931 . S
C405 H393 0.929 . S
C405 C399 1.390 . S
C405 C402 1.386 . S
C406 C401 1.490 . S
C406 C408 1.395 . S
C406 C409 1.403 . S
H407 C413 0.930 . S
C408 H394 0.930 . S
C408 C406 1.395 . S
C408 C411 1.403 . S
C409 C406 1.403 . S
C409 C410 1.524 . S
C409 C413 1.400 . S
C410 H395 0.960 . S
C410 H396 0.960 . S
C410 H397 0.960 . S
C410 C409 1.524 . S
C411 C408 1.403 . S
C411 C412 1.392 . S
C411 C415 1.495 . S
C412 C411 1.392 . S
C412 C413 1.385 . S
C412 C414 1.478 . S
C413 H407 0.930 . S
C413 C409 1.400 . S
C413 C412 1.385 . S
C414 C412 1.478 . S
C414 C416 1.381 . S
C414 C420 1.383 . S
C415 C411 1.495 . S
C415 H421 0.959 . S
C415 H422 0.961 . S
C415 H423 0.960 . S
C416 C414 1.381 . S
C416 C417 1.394 . S
C416 H424 0.930 . S
C417 C416 1.394 . S
C417 C418 1.383 . S
C417 H425 0.929 . S
C418 C417 1.383 . S
C418 C419 1.377 . S
C419 H403 0.930 . S
C419 C418 1.377 . S
C419 C420 1.379 . S
C420 H404 0.931 . S
C420 C414 1.383 . S
C420 C419 1.379 . S
H421 C415 0.959 . S
H422 C415 0.961 . S
H423 C415 0.960 . S
H424 C416 0.930 . S
H425 C417 0.929 . S
H426 C434 0.929 . S
H427 C436 0.930 . S
H428 C438 0.930 . S
H429 C441 0.929 . S
H430 C444 0.930 . S
H431 C446 0.960 . S
H432 C446 0.960 . S
H433 C446 0.960 . S
C434 H426 0.929 . S
C434 C435 1.377 . S
C434 C436 1.384 . S
C435 C434 1.377 . S
C435 C441 1.390 . S
C436 H427 0.930 . S
C436 C434 1.384 . S
C436 C437 1.372 . S
C437 C436 1.372 . S
C437 C438 1.400 . S
C437 C442 1.490 . S
C438 H428 0.930 . S
C438 C437 1.400 . S
C438 C441 1.386 . S
H439 C455 0.930 . S
H440 C456 0.931 . S
C441 H429 0.929 . S
C441 C435 1.390 . S
C441 C438 1.386 . S
C442 C437 1.490 . S
C442 C444 1.395 . S
C442 C445 1.403 . S
H443 C449 0.930 . S
C444 H430 0.930 . S
C444 C442 1.395 . S
C444 C447 1.403 . S
C445 C442 1.403 . S
C445 C446 1.524 . S
C445 C449 1.400 . S
C446 H431 0.960 . S
C446 H432 0.960 . S
C446 H433 0.960 . S
C446 C445 1.524 . S
C447 C444 1.403 . S
C447 C448 1.392 . S
C447 C451 1.495 . S
C448 C447 1.392 . S
C448 C449 1.385 . S
C448 C450 1.478 . S
C449 H443 0.930 . S
C449 C445 1.400 . S
C449 C448 1.385 . S
C450 C448 1.478 . S
C450 C452 1.381 . S
C450 C456 1.383 . S
C451 C447 1.495 . S
C451 H457 0.959 . S
C451 H458 0.961 . S
C451 H459 0.960 . S
C452 C450 1.381 . S
C452 C453 1.394 . S
C452 H460 0.930 . S
C453 C452 1.394 . S
C453 C454 1.383 . S
C453 H461 0.929 . S
C454 C453 1.383 . S
C454 C455 1.377 . S
C455 H439 0.930 . S
C455 C454 1.377 . S
C455 C456 1.379 . S
C456 H440 0.931 . S
C456 C450 1.383 . S
C456 C455 1.379 . S
H457 C451 0.959 . S
H458 C451 0.961 . S
H459 C451 0.960 . S
H460 C452 0.930 . S
H461 C453 0.929 . S
H462 C470 0.929 . S
H463 C472 0.930 . S
H464 C474 0.930 . S
H465 C477 0.929 . S
H466 C480 0.930 . S
H467 C482 0.960 . S
H468 C482 0.960 . S
H469 C482 0.960 . S
C470 H462 0.929 . S
C470 C471 1.377 . S
C470 C472 1.384 . S
C471 C470 1.377 . S
C471 C477 1.390 . S
C472 H463 0.930 . S
C472 C470 1.384 . S
C472 C473 1.372 . S
C473 C472 1.372 . S
C473 C474 1.400 . S
C473 C478 1.490 . S
C474 H464 0.930 . S
C474 C473 1.400 . S
C474 C477 1.386 . S
H475 C491 0.930 . S
H476 C492 0.931 . S
C477 H465 0.929 . S
C477 C471 1.390 . S
C477 C474 1.386 . S
C478 C473 1.490 . S
C478 C480 1.395 . S
C478 C481 1.403 . S
H479 C485 0.930 . S
C480 H466 0.930 . S
C480 C478 1.395 . S
C480 C483 1.403 . S
C481 C478 1.403 . S
C481 C482 1.524 . S
C481 C485 1.400 . S
C482 H467 0.960 . S
C482 H468 0.960 . S
C482 H469 0.960 . S
C482 C481 1.524 . S
C483 C480 1.403 . S
C483 C484 1.392 . S
C483 C487 1.495 . S
C484 C483 1.392 . S
C484 C485 1.385 . S
C484 C486 1.478 . S
C485 H479 0.930 . S
C485 C481 1.400 . S
C485 C484 1.385 . S
C486 C484 1.478 . S
C486 C488 1.381 . S
C486 C492 1.383 . S
C487 C483 1.495 . S
C487 H493 0.959 . S
C487 H494 0.961 . S
C487 H495 0.960 . S
C488 C486 1.381 . S
C488 C489 1.394 . S
C488 H496 0.930 . S
C489 C488 1.394 . S
C489 C490 1.383 . S
C489 H497 0.929 . S
C490 C489 1.383 . S
C490 C491 1.377 . S
C491 H475 0.930 . S
C491 C490 1.377 . S
C491 C492 1.379 . S
C492 H476 0.931 . S
C492 C486 1.383 . S
C492 C491 1.379 . S
H493 C487 0.959 . S
H494 C487 0.961 . S
H495 C487 0.960 . S
H496 C488 0.930 . S
H497 C489 0.929 . S
H498 C506 0.929 . S
H499 C508 0.930 . S
H500 C510 0.930 . S
H501 C513 0.929 . S
H502 C516 0.930 . S
H503 C518 0.960 . S
H504 C518 0.961 1_554 S
H505 C518 0.955 . S
C506 H498 0.929 . S
C506 C507 1.377 . S
C506 C508 1.384 . S
C507 C506 1.377 . S
C507 C513 1.390 . S
C508 H499 0.930 . S
C508 C506 1.384 . S
C508 C509 1.372 1_554 S
C509 C508 1.372 1_556 S
C509 C510 1.400 . S
C509 C514 1.490 . S
C510 H500 0.930 . S
C510 C509 1.400 . S
C510 C513 1.386 1_556 S
H511 C527 0.930 . S
H512 C528 0.931 . S
C513 H501 0.929 . S
C513 C507 1.390 . S
C513 C510 1.386 1_554 S
C514 C509 1.490 . S
C514 C516 1.395 . S
C514 C517 1.403 . S
H515 C521 0.930 . S
C516 H502 0.930 . S
C516 C514 1.395 . S
C516 C519 1.403 . S
C517 C514 1.403 . S
C517 C518 1.523 . S
C517 C521 1.400 . S
C518 H503 0.960 . S
C518 H504 0.961 1_556 S
C518 H505 0.955 . S
C518 C517 1.523 . S
C519 C516 1.403 . S
C519 C520 1.392 . S
C519 C523 1.495 . S
C520 C519 1.392 . S
C520 C521 1.385 . S
C520 C522 1.478 . S
C521 H515 0.930 . S
C521 C517 1.400 . S
C521 C520 1.385 . S
C522 C520 1.478 . S
C522 C524 1.381 . S
C522 C528 1.383 . S
C523 C519 1.495 . S
C523 H529 0.959 . S
C523 H530 0.961 . S
C523 H531 0.960 . S
C524 C522 1.381 . S
C524 C525 1.394 . S
C524 H532 0.930 . S
C525 C524 1.394 . S
C525 C526 1.383 . S
C525 H533 0.929 . S
C526 C525 1.383 . S
C526 C527 1.377 . S
C527 H511 0.930 . S
C527 C526 1.377 . S
C527 C528 1.379 . S
C528 H512 0.931 . S
C528 C522 1.383 . S
C528 C527 1.379 . S
H529 C523 0.959 . S
H530 C523 0.961 . S
H531 C523 0.960 . S
H532 C524 0.930 . S
H533 C525 0.929 . S
H534 C542 0.929 . S
H535 C544 0.930 . S
H536 C546 0.930 . S
H537 C549 0.929 . S
H538 C552 0.930 . S
H539 C554 0.960 . S
H540 C554 0.960 . S
H541 C554 0.960 . S
C542 H534 0.929 . S
C542 C543 1.377 1_655 S
C542 C544 1.384 . S
C543 C542 1.377 1_455 S
C543 C549 1.390 . S
C544 H535 0.930 . S
C544 C542 1.384 . S
C544 C545 1.372 1_655 S
C545 C544 1.372 1_455 S
C545 C546 1.400 . S
C545 C550 1.490 . S
C546 H536 0.930 . S
C546 C545 1.400 . S
C546 C549 1.386 . S
H547 C563 0.930 . S
H548 C564 0.931 . S
C549 H537 0.929 . S
C549 C543 1.390 . S
C549 C546 1.386 . S
C550 C545 1.490 . S
C550 C552 1.395 . S
C550 C553 1.403 1_455 S
H551 C557 0.930 . S
C552 H538 0.930 . S
C552 C550 1.395 . S
C552 C555 1.403 . S
C553 C550 1.403 1_655 S
C553 C554 1.524 . S
C553 C557 1.400 . S
C554 H539 0.960 . S
C554 H540 0.960 . S
C554 H541 0.960 . S
C554 C553 1.524 . S
C555 C552 1.403 . S
C555 C556 1.392 . S
C555 C559 1.495 . S
C556 C555 1.392 . S
C556 C557 1.385 1_455 S
C556 C558 1.478 . S
C557 H551 0.930 . S
C557 C553 1.400 . S
C557 C556 1.385 1_655 S
C558 C556 1.478 . S
C558 C560 1.381 . S
C558 C564 1.383 . S
C559 C555 1.495 . S
C559 H565 0.959 . S
C559 H566 0.961 . S
C559 H567 0.960 . S
C560 C558 1.381 . S
C560 C561 1.394 . S
C560 H568 0.930 1_455 S
C561 C560 1.394 . S
C561 C562 1.383 . S
C561 H569 0.929 1_455 S
C562 C561 1.383 . S
C562 C563 1.377 . S
C563 H547 0.930 . S
C563 C562 1.377 . S
C563 C564 1.379 . S
C564 H548 0.931 . S
C564 C558 1.383 . S
C564 C563 1.379 . S
H565 C559 0.959 . S
H566 C559 0.961 . S
H567 C559 0.960 . S
H568 C560 0.930 1_655 S
H569 C561 0.929 1_655 S
H570 C578 0.929 1_565 S
H571 C580 0.930 1_565 S
H572 C582 0.930 . S
H573 C585 0.929 . S
H574 C588 0.930 . S
H575 C590 0.960 . S
H576 C590 0.960 . S
H577 C590 0.960 . S
C578 H570 0.929 1_545 S
C578 C579 1.377 . S
C578 C580 1.384 . S
C579 C578 1.377 . S
C579 C585 1.390 . S
C580 H571 0.930 1_545 S
C580 C578 1.384 . S
C580 C581 1.372 . S
C581 C580 1.372 . S
C581 C582 1.400 . S
C581 C586 1.490 . S
C582 H572 0.930 . S
C582 C581 1.400 . S
C582 C585 1.386 . S
H583 C599 0.930 . S
H584 C600 0.931 . S
C585 H573 0.929 . S
C585 C579 1.390 . S
C585 C582 1.386 . S
C586 C581 1.490 . S
C586 C588 1.395 . S
C586 C589 1.403 . S
H587 C593 0.930 . S
C588 H574 0.930 . S
C588 C586 1.395 . S
C588 C591 1.403 . S
C589 C586 1.403 . S
C589 C590 1.524 . S
C589 C593 1.400 . S
C590 H575 0.960 . S
C590 H576 0.960 . S
C590 H577 0.960 . S
C590 C589 1.524 . S
C591 C588 1.403 . S
C591 C592 1.392 . S
C591 C595 1.495 . S
C592 C591 1.392 . S
C592 C593 1.385 . S
C592 C594 1.478 . S
C593 H587 0.930 . S
C593 C589 1.400 . S
C593 C592 1.385 . S
C594 C592 1.478 . S
C594 C596 1.381 . S
C594 C600 1.383 . S
C595 C591 1.495 . S
C595 H601 0.959 . S
C595 H602 0.961 . S
C595 H603 0.960 . S
C596 C594 1.381 . S
C596 C597 1.394 . S
C596 H604 0.930 . S
C597 C596 1.394 . S
C597 C598 1.383 . S
C597 H605 0.929 . S
C598 C597 1.383 . S
C598 C599 1.377 . S
C599 H583 0.930 . S
C599 C598 1.377 . S
C599 C600 1.379 . S
C600 H584 0.931 . S
C600 C594 1.383 . S
C600 C599 1.379 . S
H601 C595 0.959 . S
H602 C595 0.961 . S
H603 C595 0.960 . S
H604 C596 0.930 . S
H605 C597 0.929 . S
H606 C614 0.929 . S
H607 C616 0.958 . S
H608 C618 0.923 1_556 S
H609 C621 0.929 . S
H610 C624 0.930 . S
H611 C626 0.960 . S
H612 C626 0.960 . S
H613 C626 0.960 . S
C614 H606 0.929 . S
C614 C615 1.377 . S
C614 C616 1.342 1_554 S
C615 C614 1.377 . S
C615 C621 1.390 . S
C616 H607 0.958 . S
C616 C614 1.342 1_556 S
C616 C617 1.391 . S
C617 C616 1.391 . S
C617 C618 1.400 1_556 S
C617 C622 1.490 . S
C618 H608 0.923 1_554 S
C618 C617 1.400 1_554 S
C618 C621 1.386 . S
H619 C635 0.930 . S
H620 C636 0.931 . S
C621 H609 0.929 . S
C621 C615 1.390 . S
C621 C618 1.386 . S
C622 C617 1.490 . S
C622 C624 1.395 . S
C622 C625 1.403 . S
H623 C629 0.930 . S
C624 H610 0.930 . S
C624 C622 1.395 . S
C624 C627 1.403 . S
C625 C622 1.403 . S
C625 C626 1.524 . S
C625 C629 1.400 . S
C626 H611 0.960 . S
C626 H612 0.960 . S
C626 H613 0.960 . S
C626 C625 1.524 . S
C627 C624 1.403 . S
C627 C628 1.392 . S
C627 C631 1.495 . S
C628 C627 1.392 . S
C628 C629 1.385 . S
C628 C630 1.478 . S
C629 H623 0.930 . S
C629 C625 1.400 . S
C629 C628 1.385 . S
C630 C628 1.478 . S
C630 C632 1.381 . S
C630 C636 1.383 . S
C631 C627 1.495 . S
C631 H637 0.959 . S
C631 H638 0.961 . S
C631 H639 0.960 . S
C632 C630 1.381 . S
C632 C633 1.394 . S
C632 H640 0.930 . S
C633 C632 1.394 . S
C633 C634 1.383 . S
C633 H641 0.929 . S
C634 C633 1.383 . S
C634 C635 1.377 . S
C635 H619 0.930 . S
C635 C634 1.377 . S
C635 C636 1.379 . S
C636 H620 0.931 . S
C636 C630 1.383 . S
C636 C635 1.379 . S
H637 C631 0.959 . S
H638 C631 0.961 . S
H639 C631 0.960 . S
H640 C632 0.930 . S
H641 C633 0.929 . S
H642 C650 0.929 . S
H643 C652 0.930 . S
H644 C654 0.948 . S
H645 C657 0.929 . S
H646 C660 0.930 1_655 S
H647 C662 0.960 . S
H648 C662 0.960 . S
H649 C662 0.960 . S
C650 H642 0.929 . S
C650 C651 1.377 . S
C650 C652 1.384 . S
C651 C650 1.377 . S
C651 C657 1.390 1_455 S
C652 H643 0.930 . S
C652 C650 1.384 . S
C652 C653 1.372 . S
C653 C652 1.372 . S
C653 C654 1.390 1_455 S
C653 C658 1.490 . S
C654 H644 0.948 . S
C654 C653 1.390 1_655 S
C654 C657 1.378 . S
H655 C671 0.930 . S
H656 C672 0.931 . S
C657 H645 0.929 . S
C657 C651 1.390 1_655 S
C657 C654 1.378 . S
C658 C653 1.490 . S
C658 C660 1.395 . S
C658 C661 1.403 . S
H659 C665 0.930 . S
C660 H646 0.930 1_455 S
C660 C658 1.395 . S
C660 C663 1.401 1_455 S
C661 C658 1.403 . S
C661 C662 1.524 . S
C661 C665 1.400 . S
C662 H647 0.960 . S
C662 H648 0.960 . S
C662 H649 0.960 . S
C662 C661 1.524 . S
C663 C660 1.401 1_655 S
C663 C664 1.393 1_655 S
C663 C667 1.497 . S
C664 C663 1.393 1_455 S
C664 C665 1.385 . S
C664 C666 1.478 . S
C665 H659 0.930 . S
C665 C661 1.400 . S
C665 C664 1.385 . S
C666 C664 1.478 . S
C666 C668 1.381 . S
C666 C672 1.383 1_455 S
C667 C663 1.497 . S
C667 H673 0.959 . S
C667 H674 0.961 . S
C667 H675 0.963 . S
C668 C666 1.381 . S
C668 C669 1.394 . S
C668 H676 0.930 . S
C669 C668 1.394 . S
C669 C670 1.383 . S
C669 H677 0.929 . S
C670 C669 1.383 . S
C670 C671 1.377 1_455 S
C671 H655 0.930 . S
C671 C670 1.377 1_655 S
C671 C672 1.379 . S
C672 H656 0.931 . S
C672 C666 1.383 1_655 S
C672 C671 1.379 . S
H673 C667 0.959 . S
H674 C667 0.961 . S
H675 C667 0.963 . S
H676 C668 0.930 . S
H677 C669 0.929 . S
C274 C116 1.468 . S
C255 C14 1.423 . S
C291 C40 1.486 . S
C310 C155 1.492 . S
C327 C76 1.464 . S
C346 C222 1.475 . S
C363 C3 1.454 . S
C382 C123 1.451 . S
C418 C176 1.488 . S
C399 C38 1.484 . S
C435 C74 1.459 . S
C454 C201 1.466 . S
C490 C162 1.441 . S
C471 C86 1.396 . S
C507 C2 1.457 1_565 S
C526 C215 1.469 . S
C562 C130 1.451 . S
C543 C39 1.457 . S
C598 C169 1.452 . S
C579 C75 1.457 . S
C634 C208 1.477 . S
C615 C4 1.462 . S
C651 C50 1.424 . S
C670 C109 1.468 . S
