# Generated by pormake.
# Topology anh, (6,3)-cn, num edge types: 1
# Building blocks:
#     Node 0, Type 0, BuildingBlock: PAMTOO_clean_sbu_0, # of connection points: 6
#     Node 1, Type 0, BuildingBlock: PAMTOO_clean_sbu_0, # of connection points: 6
#     Node 2, Type 0, BuildingBlock: PAMTOO_clean_sbu_0, # of connection points: 6
#     Node 3, Type 1, BuildingBlock: BETDAH_clean_linker_0, # of connection points: 3
#     Node 4, Type 1, BuildingBlock: BETDAH_clean_linker_0, # of connection points: 3
#     Node 5, Type 1, BuildingBlock: BETDAH_clean_linker_0, # of connection points: 3
#     Node 6, Type 1, BuildingBlock: BETDAH_clean_linker_0, # of connection points: 3
#     Node 7, Type 1, BuildingBlock: BETDAH_clean_linker_0, # of connection points: 3
#     Node 8, Type 1, BuildingBlock: BETDAH_clean_linker_0, # of connection points: 3
#     Edge 9, Type (0, 1), BuildingBlock: CIFDUS_clean_linker_0, # of connection points: 2
#     Edge 10, Type (0, 1), BuildingBlock: CIFDUS_clean_linker_0, # of connection points: 2
#     Edge 11, Type (0, 1), BuildingBlock: CIFDUS_clean_linker_0, # of connection points: 2
#     Edge 12, Type (0, 1), BuildingBlock: CIFDUS_clean_linker_0, # of connection points: 2
#     Edge 13, Type (0, 1), BuildingBlock: CIFDUS_clean_linker_0, # of connection points: 2
#     Edge 14, Type (0, 1), BuildingBlock: CIFDUS_clean_linker_0, # of connection points: 2
#     Edge 15, Type (0, 1), BuildingBlock: CIFDUS_clean_linker_0, # of connection points: 2
#     Edge 16, Type (0, 1), BuildingBlock: CIFDUS_clean_linker_0, # of connection points: 2
#     Edge 17, Type (0, 1), BuildingBlock: CIFDUS_clean_linker_0, # of connection points: 2
#     Edge 18, Type (0, 1), BuildingBlock: CIFDUS_clean_linker_0, # of connection points: 2
#     Edge 19, Type (0, 1), BuildingBlock: CIFDUS_clean_linker_0, # of connection points: 2
#     Edge 20, Type (0, 1), BuildingBlock: CIFDUS_clean_linker_0, # of connection points: 2
#     Edge 21, Type (0, 1), BuildingBlock: CIFDUS_clean_linker_0, # of connection points: 2
#     Edge 22, Type (0, 1), BuildingBlock: CIFDUS_clean_linker_0, # of connection points: 2
#     Edge 23, Type (0, 1), BuildingBlock: CIFDUS_clean_linker_0, # of connection points: 2
#     Edge 24, Type (0, 1), BuildingBlock: CIFDUS_clean_linker_0, # of connection points: 2
#     Edge 25, Type (0, 1), BuildingBlock: CIFDUS_clean_linker_0, # of connection points: 2
#     Edge 26, Type (0, 1), BuildingBlock: CIFDUS_clean_linker_0, # of connection points: 2
# Relax obj value: 0.169
# Max RMSD: 0.168
# Mean RMSD: 0.109
data_MOF--net-anh--node1-PAMTOO_clean_sbu_0--node2-BETDAH_clean_linker_0--edge1-CIFDUS_clean_linker_0
_symmetry_space_group_name_H-M    P1
_symmetry_Int_Tables_number       1
_symmetry_cell_setting            triclinic
loop_
_symmetry_equiv_pos_as_xyz
'x, y, z'
_cell_length_a     26.401802
_cell_length_b     26.085226
_cell_length_c     43.018011
_cell_angle_alpha  94.702652
_cell_angle_beta   96.185373
_cell_angle_gamma 98.217491
loop_
_atom_site_label
_atom_site_type_symbol
_atom_site_fract_x
_atom_site_fract_y
_atom_site_fract_z
_atom_type_partial_charge
Dy0 Dy 0.15018 0.56121 0.14382 0.0
Dy1 Dy 0.13215 0.4403 0.15944 0.0
C2 C 0.13708 0.4683 0.09054 0.0
O3 O 1.06532 0.54475 0.14906 0.0
O4 O 1.05387 0.45575 0.13954 0.0
O5 O 0.18183 0.62151 0.11652 0.0
O6 O 0.13973 0.64077 0.15531 0.0
O7 O 0.11547 0.49001 0.20055 0.0
O8 O 0.17628 0.5578 0.19468 0.0
O9 O 0.21884 0.46333 0.16814 0.0
O10 O 0.22782 0.5361 0.14123 0.0
O11 O 0.13506 0.38311 0.19304 0.0
O12 O 0.1064 0.35912 0.14416 0.0
C13 C 1.03487 0.49973 0.14216 0.0
O14 O 0.12017 0.51192 0.09858 0.0
O15 O 0.15733 0.44181 0.11189 0.0
C16 C 0.21405 0.6992 0.14881 0.0
C17 C 0.30179 0.77254 0.173 0.0
C18 C 0.28012 0.7708 0.14147 0.0
C19 C 0.23662 0.73448 0.12952 0.0
C20 C 0.23528 0.70112 0.18035 0.0
C21 C 0.27838 0.73757 0.19234 0.0
C22 C 0.17054 0.65861 0.13557 0.0
C23 C 0.14782 0.5312 0.21273 0.0
C24 C 0.24787 0.49931 0.1552 0.0
C25 C 1.06514 0.31466 0.18169 0.0
C26 C 0.97312 0.25355 0.19298 0.0
C27 C 1.01872 0.23164 0.19173 0.0
C28 C 1.06432 0.26197 0.18606 0.0
C29 C 1.02035 0.33719 0.18396 0.0
C30 C 0.97473 0.30693 0.18954 0.0
C31 C 0.11143 0.34516 0.17261 0.0
H32 H 0.29747 0.7966 0.12577 0.0
H33 H 0.22118 0.7333 0.10505 0.0
H34 H 0.21893 0.67404 0.19573 0.0
H35 H 0.29336 0.73827 0.21685 0.0
H36 H 1.01898 0.19084 0.19469 0.0
H37 H 1.09861 0.24401 0.18438 0.0
H38 H 1.02029 0.37787 0.18049 0.0
H39 H 0.94028 0.32495 0.18991 0.0
Dy40 Dy 0.56359 0.07928 0.52336 0.0
Dy41 Dy 0.69014 0.08998 0.52429 0.0
C42 C 0.63738 0.09326 0.5872 0.0
O43 O 0.58839 0.16332 0.51687 0.0
O44 O 0.67389 0.1702 0.53641 0.0
O45 O 0.49521 0.0568 0.54544 0.0
O46 O 0.48891 0.08763 0.50015 0.0
O47 O 0.65546 0.10321 0.47619 0.0
O48 O 0.58014 0.04892 0.47655 0.0
O49 O 0.6643 1.00388 0.51765 0.0
O50 O 0.58269 1.00075 0.53256 0.0
O51 O 0.75628 0.0792 0.50026 0.0
O52 O 0.76705 0.11784 0.54744 0.0
C53 C 0.63303 0.1915 0.528 0.0
O54 O 0.59923 0.11081 0.57143 0.0
O55 O 0.67222 0.07279 0.57263 0.0
C56 C 0.42537 0.01707 0.50816 0.0
C57 C 0.35994 0.92309 0.485 0.0
C58 C 0.37059 0.93783 0.5175 0.0
C59 C 0.40278 0.98438 0.52893 0.0
C60 C 0.41299 1.00343 0.47563 0.0
C61 C 0.38062 0.95704 0.46421 0.0
C62 C 0.46439 0.06283 0.52061 0.0
C63 C 0.61413 0.07401 0.46112 0.0
C64 C 0.62175 0.97784 0.52538 0.0
C65 C 0.82128 0.15204 0.51209 0.0
C66 C 0.88297 0.24181 0.49668 0.0
C67 C 0.82887 0.23601 0.49097 0.0
C68 C 0.79837 0.19163 0.49864 0.0
C69 C 0.87515 0.15683 0.51713 0.0
C70 C 0.90582 0.20133 0.50941 0.0
C71 C 0.78865 0.10747 0.52227 0.0
H72 H 0.35565 0.91249 0.5342 0.0
H73 H 0.41139 0.99396 0.55412 0.0
H74 H 0.42929 0.02786 0.45889 0.0
H75 H 0.37237 0.94741 0.43903 0.0
H76 H 0.81003 0.26607 0.48083 0.0
H77 H 0.75677 0.18861 0.49458 0.0
H78 H 0.89345 0.12674 0.52764 0.0
H79 H 0.94732 0.20481 0.5144 0.0
Dy80 Dy 0.70164 0.65722 0.8349 0.0
Dy81 Dy 0.57791 0.63159 0.84044 0.0
C82 C 0.61912 0.62672 0.7746 0.0
O83 O 0.68067 0.7308 0.85572 0.0
O84 O 0.59659 0.71678 0.83388 0.0
O85 O 0.76061 0.69307 0.80881 0.0
O86 O 0.78183 0.65591 0.8503 0.0
O87 O 0.61425 0.6518 0.88998 0.0
O88 O 0.69617 0.63559 0.88389 0.0
O89 O 0.6057 0.55437 0.84326 0.0
O90 O 0.68147 0.57169 0.82148 0.0
O91 O 0.50061 0.63713 0.82012 0.0
O92 O 0.51326 0.60395 0.86437 0.0
C93 C 0.63817 0.74859 0.84661 0.0
O94 O 0.65801 0.66145 0.78771 0.0
O95 O 0.58808 0.60183 0.79196 0.0
C96 C 0.82918 0.6449 0.80802 0.0
C97 C 0.89563 0.58011 0.78423 0.0
C98 C 0.91151 0.63435 0.79025 0.0
C99 C 0.87863 0.66643 0.80242 0.0
C100 C 0.81136 0.59207 0.79895 0.0
C101 C 0.84421 0.55992 0.78735 0.0
C102 C 0.79746 0.67584 0.82555 0.0
C103 C 0.65941 0.64168 0.90159 0.0
C104 C 0.64519 0.53876 0.83098 0.0
C105 C 0.43961 0.56741 0.82986 0.0
C106 C 0.36202 0.48156 0.81075 0.0
C107 C 0.34923 0.53157 0.81728 0.0
C108 C 0.38776 0.57412 0.8268 0.0
C109 C 0.45282 0.51802 0.82231 0.0
C110 C 0.41426 0.47531 0.81295 0.0
C111 C 0.47948 0.61187 0.84153 0.0
H112 H 0.9503 0.65161 0.78735 0.0
H113 H 0.89264 0.70745 0.80879 0.0
H114 H 0.773 0.57496 0.80272 0.0
H115 H 0.83018 0.51858 0.78338 0.0
H116 H 0.30933 0.5375 0.81629 0.0
H117 H 0.37702 0.61206 0.83245 0.0
H118 H 0.49287 0.51234 0.82426 0.0
H119 H 0.42522 0.43732 0.8079 0.0
H120 H 0.53055 0.98614 0.27517 0.0
H121 H 0.65697 0.1042 0.26306 0.0
H122 H 0.55423 0.02905 0.18296 0.0
C123 C 0.55254 0.00964 0.26016 0.0
C124 C 0.53696 1.00352 0.22765 0.0
C125 C 0.59542 0.04641 0.27343 0.0
C126 C 0.62424 0.07541 0.2533 0.0
C127 C 0.60949 0.06876 0.22061 0.0
C128 C 0.56551 0.03365 0.20814 0.0
N129 N 0.6373 0.09729 0.19952 0.0
C130 C 0.68696 0.12437 0.20708 0.0
H131 H 0.62232 0.48891 0.59879 0.0
H132 H 0.63226 0.64578 0.57327 0.0
H133 H 0.61518 0.51737 0.50148 0.0
C134 C 0.62251 0.51592 0.58092 0.0
C135 C 0.61804 0.49665 0.54914 0.0
C136 C 0.62731 0.56964 0.58984 0.0
C137 C 0.62861 0.60438 0.5665 0.0
C138 C 0.62414 0.58559 0.53452 0.0
C139 C 0.61833 0.53176 0.52608 0.0
N140 N 0.6255 0.61951 0.51027 0.0
C141 C 0.63285 0.67361 0.51534 0.0
H142 H 1.04898 0.44165 0.89661 0.0
H143 H 1.0859 0.29043 0.91412 0.0
H144 H 1.07372 0.33577 0.81994 0.0
C145 C 1.05714 0.40382 0.88798 0.0
C146 C 1.06001 0.39296 0.85583 0.0
C147 C 1.06597 0.36726 0.90925 0.0
C148 C 1.07738 0.31862 0.89792 0.0
C149 C 1.08063 0.30732 0.86579 0.0
C150 C 1.07106 0.34433 0.84472 0.0
N151 N 1.0998 0.26168 0.85544 0.0
C152 C 0.14353 0.26727 0.84008 0.0
H153 H 0.17725 0.66061 0.39366 0.0
H154 H 0.11131 0.50671 0.41204 0.0
H155 H 0.17056 0.62325 0.48862 0.0
C156 C 0.16725 0.63244 0.41001 0.0
C157 C 0.17748 0.6479 0.44235 0.0
C158 C 0.144 0.58144 0.39859 0.0
C159 C 0.12864 0.5463 0.42029 0.0
C160 C 0.13761 0.56181 0.4528 0.0
C161 C 0.16243 0.61221 0.46353 0.0
N162 N 0.12392 0.52761 0.47561 0.0
C163 C 1.09101 0.48038 0.46949 0.0
H164 H 0.6167 0.23856 0.76171 0.0
H165 H 0.61448 0.08059 0.78346 0.0
H166 H 0.62005 0.20341 0.85782 0.0
C167 C 0.61764 0.21069 0.77907 0.0
C168 C 0.61951 0.22781 0.81099 0.0
C169 C 0.61581 0.15785 0.76908 0.0
C170 C 0.61632 0.12141 0.79133 0.0
C171 C 0.61742 0.13777 0.82349 0.0
C172 C 0.61894 0.1909 0.83306 0.0
N173 N 0.61633 0.10212 0.84682 0.0
C174 C 0.61336 0.04841 0.84081 0.0
H175 H 0.75037 0.547 0.07101 0.0
H176 H 0.59318 0.55264 0.08881 0.0
H177 H 0.70487 0.51853 0.16156 0.0
C178 C 0.72072 0.54397 0.08659 0.0
C179 C 0.73405 0.53268 0.11749 0.0
C180 C 0.67038 0.55242 0.07589 0.0
C181 C 0.63196 0.54615 0.09642 0.0
C182 C 0.64378 0.5328 0.12716 0.0
C183 C 0.69524 0.52746 0.13768 0.0
N184 N 0.60551 0.52506 0.14827 0.0
C185 C 0.55237 0.52621 0.14174 0.0
H186 H 0.31865 0.5604 0.1259 0.0
H187 H 0.30612 0.43462 0.18524 0.0
H188 H 0.39819 0.43117 0.18569 0.0
H189 H 0.48344 0.46415 0.16964 0.0
H190 H 0.49621 0.58919 0.11018 0.0
H191 H 0.40351 0.59251 0.10925 0.0
C192 C 0.3359 0.5322 0.13901 0.0
C193 C 0.30477 0.49787 0.15561 0.0
C194 C 0.38928 0.53016 0.13903 0.0
C195 C 0.32848 0.4616 0.17225 0.0
C196 C 0.38141 0.45955 0.17251 0.0
C197 C 0.46574 0.49186 0.15631 0.0
C198 C 0.49658 0.52622 0.13982 0.0
C199 C 0.41228 0.49357 0.15601 0.0
C200 C 0.47327 0.56217 0.12288 0.0
C201 C 0.42024 0.56412 0.12245 0.0
H202 H 0.97349 0.25393 0.47049 0.0
H203 H 0.86469 0.34085 0.51048 0.0
H204 H 0.91776 0.42238 0.5032 0.0
H205 H 0.99744 0.4695 0.48815 0.0
H206 H 0.1078 0.38398 0.44949 0.0
H207 H 1.05207 0.30144 0.45349 0.0
C208 C 0.96148 0.29073 0.47764 0.0
C209 C 0.91507 0.29113 0.49098 0.0
C210 C 0.9925 0.33773 0.47359 0.0
C211 C 0.8998 0.33924 0.49976 0.0
C212 C 0.93029 0.38599 0.49578 0.0
C213 C 1.00872 0.43267 0.48021 0.0
C214 C 1.05606 0.43223 0.46837 0.0
C215 C 0.97687 0.38573 0.48299 0.0
C216 C 1.07106 0.38476 0.45844 0.0
C217 C 1.03938 0.33774 0.46089 0.0
H218 H 0.5702 0.80406 0.81673 0.0
H219 H 0.70802 0.82202 0.88299 0.0
H220 H 0.71274 0.91628 0.88662 0.0
H221 H 0.67852 0.99431 0.87077 0.0
H222 H 0.542 0.97797 0.80414 0.0
H223 H 0.53598 0.88271 0.80062 0.0
C224 C 0.60103 0.8286 0.83211 0.0
C225 C 0.63864 0.8058 0.84958 0.0
C226 C 0.60397 0.88319 0.83382 0.0
C227 C 0.67861 0.83833 0.86919 0.0
C228 C 0.68143 0.89237 0.87129 0.0
C229 C 0.64767 0.96968 0.85541 0.0
C230 C 0.61086 0.99249 0.83762 0.0
C231 C 0.64457 0.91525 0.85362 0.0
C232 C 0.57081 0.96077 0.81789 0.0
C233 C 0.56734 0.90645 0.81598 0.0
H234 H 0.97263 0.56191 0.16977 0.0
H235 H 0.96829 0.43363 0.09916 0.0
H236 H 0.87556 0.43135 0.0858 0.0
H237 H 0.79534 0.46751 0.09284 0.0
H238 H 0.79743 0.59086 0.16611 0.0
H239 H 0.89041 0.59303 0.17997 0.0
C240 C 0.95131 0.53345 0.15149 0.0
C241 C 0.97779 0.49829 0.13529 0.0
C242 C 0.89723 0.5313 0.14449 0.0
C243 C 0.9492 0.46114 0.11203 0.0
C244 C 0.89601 0.45985 0.10432 0.0
C245 C 0.8161 0.49443 0.11209 0.0
C246 C 0.78928 0.52899 0.12842 0.0
C247 C 0.86956 0.49487 0.12024 0.0
C248 C 0.81685 0.56354 0.15335 0.0
C249 C 0.8702 0.56502 0.16112 0.0
H250 H 0.27361 0.87321 0.50595 0.0
H251 H 0.37883 0.85619 0.43692 0.0
H252 H 0.33114 0.77063 0.41739 0.0
H253 H 0.26127 0.69949 0.42074 0.0
H254 H 0.15647 0.715 0.49005 0.0
H255 H 0.20314 0.80166 0.50918 0.0
C256 C 0.28628 0.85067 0.48675 0.0
C257 C 0.32965 0.87141 0.47285 0.0
C258 C 0.25904 0.80101 0.47584 0.0
C259 C 0.34509 0.84179 0.44773 0.0
C260 C 0.31809 0.79258 0.43668 0.0
C261 C 0.24825 0.72205 0.4398 0.0
C262 C 0.20535 0.70084 0.45387 0.0
C263 C 0.27512 0.77178 0.45059 0.0
C264 C 0.18965 0.73021 0.47898 0.0
C265 C 0.21616 0.77987 0.48982 0.0
H266 H 0.58806 0.45792 0.85469 0.0
H267 H 0.70883 0.49207 0.79584 0.0
H268 H 0.71302 0.3998 0.78592 0.0
H269 H 0.68101 0.30898 0.79233 0.0
H270 H 0.56098 0.27308 0.8511 0.0
H271 H 0.55847 0.36617 0.86302 0.0
C272 C 0.61535 0.44518 0.83975 0.0
C273 C 0.64794 0.4822 0.826 0.0
C274 C 0.61786 0.39161 0.83417 0.0
C275 C 0.68332 0.4648 0.80687 0.0
C276 C 0.68575 0.41185 0.80108 0.0
C277 C 0.65434 0.32156 0.8078 0.0
C278 C 0.62101 0.28419 0.82064 0.0
C279 C 0.653 0.37493 0.81439 0.0
C280 C 0.58726 0.30109 0.84106 0.0
C281 C 0.58558 0.35429 0.84769 0.0
H282 H 0.69499 0.91525 0.51652 0.0
H283 H 0.53699 0.91073 0.5353 0.0
H284 H 0.52714 0.81647 0.53495 0.0
H285 H 0.56235 0.73429 0.52793 0.0
H286 H 0.71954 0.73793 0.50896 0.0
H287 H 0.73092 0.83324 0.51089 0.0
C288 C 0.65842 0.89373 0.5206 0.0
C289 C 0.61685 0.92039 0.52586 0.0
C290 C 0.65286 0.83918 0.52037 0.0
C291 C 0.56981 0.89157 0.53121 0.0
C292 C 0.564 0.83748 0.53099 0.0
C293 C 0.5991 0.75624 0.52447 0.0
C294 C 0.64015 0.7298 0.5184 0.0
C295 C 0.60511 0.81082 0.52545 0.0
C296 C 0.68759 0.75799 0.51377 0.0
C297 C 0.69399 0.81233 0.5148 0.0
H298 H 0.99503 0.59386 0.81179 0.0
H299 H 0.88297 0.48331 0.75048 0.0
H300 H 0.93171 0.41354 0.76329 0.0
H301 H 0.99361 0.38224 0.80198 0.0
H302 H 0.10496 0.49414 0.86248 0.0
H303 H 1.06997 0.56546 0.83889 0.0
C304 C 0.98207 0.55516 0.79997 0.0
C305 C 0.93391 0.54364 0.78135 0.0
C306 C 1.00987 0.51518 0.80772 0.0
C307 C 0.9187 0.49299 0.7661 0.0
C308 C 0.94659 0.45298 0.77338 0.0
C309 C 1.01137 0.42222 0.80907 0.0
C310 C 1.05049 0.43323 0.83458 0.0
C311 C 0.99027 0.46313 0.79584 0.0
C312 C 1.07377 0.48502 0.8434 0.0
C313 C 1.05372 0.52575 0.82999 0.0
H314 H 0.32754 0.87359 0.16065 0.0
H315 H 0.38321 0.75515 0.21373 0.0
H316 H 0.45983 0.81611 0.23565 0.0
H317 H 0.51168 0.90297 0.23965 0.0
H318 H 0.45797 0.02053 0.18526 0.0
H319 H 0.38067 0.95969 0.16342 0.0
C320 C 0.35666 0.86085 0.17673 0.0
C321 C 0.34915 0.80981 0.18565 0.0
C322 C 0.40121 0.89594 0.18894 0.0
C323 C 0.38722 0.79441 0.20687 0.0
C324 C 0.43135 0.82917 0.21929 0.0
C325 C 0.48288 0.91528 0.22313 0.0
C326 C 0.49045 0.96616 0.21414 0.0
C327 C 0.43869 0.88005 0.21058 0.0
C328 C 0.45321 0.9814 0.19236 0.0
C329 C 0.40892 0.94671 0.17998 0.0
H330 H 0.5685 0.25564 0.50315 0.0
H331 H 0.70824 0.257 0.5657 0.0
H332 H 0.71581 0.35068 0.57744 0.0
H333 H 0.6823 0.43252 0.57118 0.0
H334 H 0.54536 0.43386 0.50723 0.0
H335 H 0.53728 0.33931 0.49469 0.0
C336 C 0.6006 0.2765 0.5193 0.0
C337 C 0.63752 0.24902 0.5336 0.0
C338 C 0.60527 0.331 0.52575 0.0
C339 C 0.67921 0.27687 0.55423 0.0
C340 C 0.6836 0.33061 0.56109 0.0
C341 C 0.6507 0.412 0.55451 0.0
C342 C 0.61424 0.43986 0.54034 0.0
C343 C 0.64676 0.35802 0.54718 0.0
C344 C 0.57392 0.41311 0.51839 0.0
C345 C 0.56922 0.35909 0.51132 0.0
H346 H 0.35961 0.38993 0.83649 0.0
H347 H 0.27123 0.47132 0.77209 0.0
H348 H 0.19627 0.40399 0.77079 0.0
H349 H 0.15256 0.3305 0.79486 0.0
H350 H 0.23921 0.25289 0.86199 0.0
H351 H 0.31888 0.30893 0.85454 0.0
C352 C 0.32446 0.39208 0.82141 0.0
C353 C 0.32066 0.43586 0.80476 0.0
C354 C 0.28127 0.35387 0.82135 0.0
C355 C 0.2747 0.4384 0.78555 0.0
C356 C 0.23191 0.39992 0.78476 0.0
C357 C 0.18927 0.32487 0.80696 0.0
C358 C 0.1907 0.28787 0.82873 0.0
C359 C 0.23418 0.35868 0.80356 0.0
C360 C 0.23786 0.28094 0.84479 0.0
C361 C 0.28314 0.31334 0.8408 0.0
H362 H 0.8965 0.27653 0.22733 0.0
H363 H 0.93741 0.15596 0.16416 0.0
H364 H 0.85346 0.10363 0.16498 0.0
H365 H 0.76599 0.09446 0.18063 0.0
H366 H 0.72318 0.21556 0.24205 0.0
H367 H 0.81001 0.26567 0.24482 0.0
C368 C 0.88704 0.23881 0.21375 0.0
C369 C 0.92333 0.22034 0.19568 0.0
C370 C 0.83822 0.20918 0.21389 0.0
C371 C 0.91064 0.17095 0.17862 0.0
C372 C 0.86242 0.1411 0.17885 0.0
C373 C 0.77614 0.13159 0.19487 0.0
C374 C 0.739 0.15166 0.21116 0.0
C375 C 0.82569 0.16013 0.19601 0.0
C376 C 0.75173 0.19967 0.22944 0.0
C377 C 0.80116 0.22823 0.23093 0.0
H378 H 1.05987 0.47575 0.04496 0.0
H379 H 0.19981 0.40999 0.06266 0.0
H380 H 0.18819 0.36927 0.00864 0.0
H381 H 0.13953 0.3545 0.95592 0.0
H382 H 0.99758 0.41707 0.93873 0.0
H383 H 1.00825 0.45628 0.99304 0.0
C384 C 1.08796 0.45288 0.03681 0.0
C385 C 0.13095 0.4464 0.05747 0.0
C386 C 1.08036 0.42851 0.00596 0.0
C387 C 0.16653 0.4157 0.047 0.0
C388 C 0.15984 0.39227 0.01619 0.0
C389 C 0.11037 0.3757 0.96427 0.0
C390 C 1.06797 0.38303 0.94333 0.0
C391 C 0.11687 0.39836 0.99547 0.0
C392 C 1.03083 0.41127 0.95438 0.0
C393 C 1.03697 0.43385 0.98538 0.0
H394 H 0.68345 0.08485 0.41824 0.0
H395 H 0.5206 0.05501 0.42645 0.0
H396 H 0.50078 0.04624 0.36952 0.0
H397 H 0.52902 0.04596 0.31758 0.0
H398 H 0.69159 0.06806 0.30797 0.0
H399 H 0.71207 0.08219 0.36511 0.0
C400 C 0.64371 0.0767 0.40746 0.0
C401 C 0.60358 0.07055 0.42652 0.0
C402 C 0.63246 0.07045 0.37447 0.0
C403 C 0.55222 0.05956 0.41231 0.0
C404 C 0.5408 0.05463 0.37974 0.0
C405 C 0.56905 0.05297 0.32783 0.0
C406 C 0.60859 0.05545 0.30827 0.0
C407 C 0.58056 0.05953 0.36061 0.0
C408 C 0.66019 0.06635 0.32227 0.0
C409 C 0.67199 0.07411 0.35502 0.0
H410 H 0.6749 0.67018 0.7308 0.0
H411 H 0.54714 0.5517 0.74076 0.0
H412 H 0.53798 0.52458 0.68465 0.0
H413 H 0.5675 0.53248 0.63291 0.0
H414 H 0.69483 0.65054 0.62234 0.0
H415 H 0.7025 0.68015 0.67839 0.0
C416 C 0.64484 0.63865 0.72068 0.0
C417 C 0.61188 0.613 0.7401 0.0
C418 C 0.63971 0.62307 0.68825 0.0
C419 C 0.5731 0.57224 0.72649 0.0
C420 C 0.56784 0.55654 0.69435 0.0
C421 C 0.59705 0.56458 0.64293 0.0
C422 C 0.63077 0.58904 0.62357 0.0
C423 C 0.60121 0.58131 0.67508 0.0
C424 C 0.66824 0.63123 0.63673 0.0
C425 C 0.67278 0.64801 0.66879 0.0
H426 H 0.56752 0.12649 0.6224 0.0
H427 H 0.7136 0.06954 0.6303 0.0
H428 H 0.71811 0.08039 0.68777 0.0
H429 H 0.68199 0.11078 0.73594 0.0
H430 H 0.53739 0.17 0.72628 0.0
H431 H 0.53054 0.15303 0.6692 0.0
C432 C 0.60048 0.11628 0.63654 0.0
C433 C 0.6404 0.09764 0.62197 0.0
C434 C 0.60291 0.12292 0.66931 0.0
C435 C 0.68242 0.08422 0.64086 0.0
C436 C 0.685 0.0904 0.67373 0.0
C437 C 0.64877 0.11912 0.72119 0.0
C438 C 0.61015 0.1415 0.73504 0.0
C439 C 0.64567 0.11025 0.68824 0.0
C440 C 0.56746 0.1528 0.71594 0.0
C441 C 0.56364 0.14326 0.68339 0.0
H442 H 0.59069 0.59437 0.93677 0.0
H443 H 0.74819 0.66931 0.94154 0.0
H444 H 0.76427 0.65151 -0.00355 0.0
H445 H 0.7342 0.61305 0.04243 0.0
H446 H 0.57972 0.528 0.03557 0.0
H447 H 0.56148 0.55275 0.98259 0.0
C448 C 0.62834 0.60727 0.95001 0.0
C449 C 0.66811 0.6336 0.93529 0.0
C450 C 0.63781 0.59515 0.98121 0.0
C451 C 0.717 0.64914 0.95242 0.0
C452 C 0.72617 0.63891 0.98378 0.0
C453 C 0.69671 0.59891 0.02935 0.0
C454 C 0.65862 0.56826 0.04342 0.0
C455 C 0.68703 0.61139 -0.00171 0.0
C456 C 0.60981 0.55221 0.02596 0.0
C457 C 0.59938 0.56597 0.99539 0.0
H458 H 1.08384 0.49726 0.2549 0.0
H459 H 0.22565 0.59845 0.24763 0.0
H460 H 0.23769 0.62094 0.3044 0.0
H461 H 0.20901 0.61091 0.35591 0.0
H462 H 1.06396 0.51516 0.3633 0.0
H463 H 1.05308 0.49023 0.30671 0.0
C464 C 0.11737 0.52427 0.26574 0.0
C465 C 0.15388 0.54601 0.24703 0.0
C466 C 0.12378 0.53757 0.29842 0.0
C467 C 0.19689 0.58124 0.26143 0.0
C468 C 0.20391 0.594 0.29392 0.0
C469 C 0.17445 0.58529 0.34524 0.0
C470 C 0.13725 0.56529 0.36409 0.0
C471 C 0.16763 0.57238 0.31261 0.0
C472 C 1.09363 0.53078 0.34964 0.0
C473 C 1.08712 0.51682 0.31717 0.0
loop_
_geom_bond_atom_site_label_1
_geom_bond_atom_site_label_2
_geom_bond_distance
_geom_bond_site_symmetry_2
_ccdc_geom_bond_type
Dy0 O3 2.307 1_455 S
Dy0 O5 2.395 . S
Dy0 O6 2.379 . S
Dy0 O8 2.339 . S
Dy0 O10 2.298 . S
Dy0 O14 2.275 . S
Dy0 C22 2.738 . S
Dy1 O4 2.298 . S
Dy1 O7 2.275 1_655 S
Dy1 O9 2.307 1_655 S
Dy1 O11 2.395 . S
Dy1 O12 2.379 . S
Dy1 O15 2.339 . S
Dy1 C31 2.738 . S
C2 O14 1.254 . S
C2 O15 1.257 1_455 S
O3 Dy0 2.307 1_655 S
O3 C13 1.266 . S
O4 Dy1 2.298 . S
O4 C13 1.236 . S
O5 Dy0 2.395 . S
O5 C22 1.255 . S
O6 Dy0 2.379 . S
O6 C22 1.249 . S
O7 Dy1 2.275 1_455 S
O7 C23 1.254 . S
O8 Dy0 2.339 . S
O8 C23 1.257 . S
O9 Dy1 2.307 1_455 S
O9 C24 1.266 . S
O10 Dy0 2.298 . S
O10 C24 1.236 . S
O11 Dy1 2.395 . S
O11 C31 1.255 . S
O12 Dy1 2.379 . S
O12 C31 1.249 . S
C13 O3 1.266 . S
C13 O4 1.236 . S
O14 Dy0 2.275 . S
O14 C2 1.254 . S
O15 Dy1 2.339 . S
O15 C2 1.257 1_655 S
C16 C19 1.344 . S
C16 C20 1.328 . S
C16 C22 1.516 . S
C17 C18 1.304 . S
C17 C21 1.323 . S
C18 C17 1.304 . S
C18 C19 1.371 . S
C18 H32 0.930 . S
C19 C16 1.344 . S
C19 C18 1.371 . S
C19 H33 0.931 . S
C20 C16 1.328 . S
C20 C21 1.433 . S
C20 H34 0.931 . S
C21 C17 1.323 . S
C21 C20 1.433 . S
C21 H35 0.933 . S
C22 Dy0 2.738 . S
C22 O5 1.255 . S
C22 O6 1.249 . S
C22 C16 1.516 . S
C23 O7 1.254 . S
C23 O8 1.257 . S
C24 O9 1.266 . S
C24 O10 1.236 . S
C25 C28 1.344 . S
C25 C29 1.328 . S
C25 C31 1.516 . S
C26 C27 1.304 . S
C26 C30 1.323 . S
C27 C26 1.304 . S
C27 C28 1.371 . S
C27 H36 0.930 . S
C28 C25 1.344 . S
C28 C27 1.371 . S
C28 H37 0.931 . S
C29 C25 1.328 . S
C29 C30 1.433 . S
C29 H38 0.931 . S
C30 C26 1.323 . S
C30 C29 1.433 . S
C30 H39 0.933 . S
C31 Dy1 2.738 . S
C31 O11 1.255 . S
C31 O12 1.249 . S
C31 C25 1.516 . S
H32 C18 0.930 . S
H33 C19 0.931 . S
H34 C20 0.931 . S
H35 C21 0.933 . S
H36 C27 0.930 . S
H37 C28 0.931 . S
H38 C29 0.931 . S
H39 C30 0.933 . S
Dy40 O43 2.307 . S
Dy40 O45 2.395 1_545 S
Dy40 O46 2.379 1_545 S
Dy40 O48 2.339 . S
Dy40 O50 2.298 1_545 S
Dy40 O54 2.275 . S
Dy40 C62 2.738 1_545 S
Dy41 O44 2.298 . S
Dy41 O47 2.275 . S
Dy41 O49 2.307 1_545 S
Dy41 O51 2.395 . S
Dy41 O52 2.379 . S
Dy41 O55 2.339 . S
Dy41 C71 2.738 . S
C42 O54 1.254 . S
C42 O55 1.257 . S
O43 Dy40 2.307 . S
O43 C53 1.266 . S
O44 Dy41 2.298 . S
O44 C53 1.236 . S
O45 Dy40 2.395 1_565 S
O45 C62 1.255 . S
O46 Dy40 2.379 1_565 S
O46 C62 1.249 . S
O47 Dy41 2.275 . S
O47 C63 1.254 . S
O48 Dy40 2.339 . S
O48 C63 1.257 . S
O49 Dy41 2.307 1_565 S
O49 C64 1.266 . S
O50 Dy40 2.298 1_565 S
O50 C64 1.236 . S
O51 Dy41 2.395 . S
O51 C71 1.255 . S
O52 Dy41 2.379 . S
O52 C71 1.249 . S
C53 O43 1.266 . S
C53 O44 1.236 . S
O54 Dy40 2.275 . S
O54 C42 1.254 . S
O55 Dy41 2.339 . S
O55 C42 1.257 . S
C56 C59 1.344 . S
C56 C60 1.328 . S
C56 C62 1.516 . S
C57 C58 1.304 . S
C57 C61 1.323 . S
C58 C57 1.304 . S
C58 C59 1.371 . S
C58 H72 0.930 . S
C59 C56 1.344 . S
C59 C58 1.371 . S
C59 H73 0.931 . S
C60 C56 1.328 . S
C60 C61 1.433 . S
C60 H74 0.931 . S
C61 C57 1.323 . S
C61 C60 1.433 . S
C61 H75 0.933 . S
C62 Dy40 2.738 1_565 S
C62 O45 1.255 . S
C62 O46 1.249 . S
C62 C56 1.516 . S
C63 O47 1.254 . S
C63 O48 1.257 . S
C64 O49 1.266 . S
C64 O50 1.236 . S
C65 C68 1.344 . S
C65 C69 1.328 . S
C65 C71 1.516 . S
C66 C67 1.304 . S
C66 C70 1.323 . S
C67 C66 1.304 . S
C67 C68 1.371 . S
C67 H76 0.930 . S
C68 C65 1.344 . S
C68 C67 1.371 . S
C68 H77 0.931 . S
C69 C65 1.328 . S
C69 C70 1.433 . S
C69 H78 0.931 . S
C70 C66 1.323 . S
C70 C69 1.433 . S
C70 H79 0.933 . S
C71 Dy41 2.738 . S
C71 O51 1.255 . S
C71 O52 1.249 . S
C71 C65 1.516 . S
H72 C58 0.930 . S
H73 C59 0.931 . S
H74 C60 0.931 . S
H75 C61 0.933 . S
H76 C67 0.930 . S
H77 C68 0.931 . S
H78 C69 0.931 . S
H79 C70 0.933 . S
Dy80 O83 2.307 . S
Dy80 O85 2.395 . S
Dy80 O86 2.379 . S
Dy80 O88 2.339 . S
Dy80 O90 2.298 . S
Dy80 O94 2.275 . S
Dy80 C102 2.738 . S
Dy81 O84 2.298 . S
Dy81 O87 2.275 . S
Dy81 O89 2.307 . S
Dy81 O91 2.395 . S
Dy81 O92 2.379 . S
Dy81 O95 2.339 . S
Dy81 C111 2.738 . S
C82 O94 1.254 . S
C82 O95 1.257 . S
O83 Dy80 2.307 . S
O83 C93 1.266 . S
O84 Dy81 2.298 . S
O84 C93 1.236 . S
O85 Dy80 2.395 . S
O85 C102 1.255 . S
O86 Dy80 2.379 . S
O86 C102 1.249 . S
O87 Dy81 2.275 . S
O87 C103 1.254 . S
O88 Dy80 2.339 . S
O88 C103 1.257 . S
O89 Dy81 2.307 . S
O89 C104 1.266 . S
O90 Dy80 2.298 . S
O90 C104 1.236 . S
O91 Dy81 2.395 . S
O91 C111 1.255 . S
O92 Dy81 2.379 . S
O92 C111 1.249 . S
C93 O83 1.266 . S
C93 O84 1.236 . S
O94 Dy80 2.275 . S
O94 C82 1.254 . S
O95 Dy81 2.339 . S
O95 C82 1.257 . S
C96 C99 1.344 . S
C96 C100 1.328 . S
C96 C102 1.516 . S
C97 C98 1.304 . S
C97 C101 1.323 . S
C98 C97 1.304 . S
C98 C99 1.371 . S
C98 H112 0.930 . S
C99 C96 1.344 . S
C99 C98 1.371 . S
C99 H113 0.931 . S
C100 C96 1.328 . S
C100 C101 1.433 . S
C100 H114 0.931 . S
C101 C97 1.323 . S
C101 C100 1.433 . S
C101 H115 0.933 . S
C102 Dy80 2.738 . S
C102 O85 1.255 . S
C102 O86 1.249 . S
C102 C96 1.516 . S
C103 O87 1.254 . S
C103 O88 1.257 . S
C104 O89 1.266 . S
C104 O90 1.236 . S
C105 C108 1.344 . S
C105 C109 1.328 . S
C105 C111 1.516 . S
C106 C107 1.304 . S
C106 C110 1.323 . S
C107 C106 1.304 . S
C107 C108 1.371 . S
C107 H116 0.930 . S
C108 C105 1.344 . S
C108 C107 1.371 . S
C108 H117 0.931 . S
C109 C105 1.328 . S
C109 C110 1.433 . S
C109 H118 0.931 . S
C110 C106 1.323 . S
C110 C109 1.433 . S
C110 H119 0.933 . S
C111 Dy81 2.738 . S
C111 O91 1.255 . S
C111 O92 1.249 . S
C111 C105 1.516 . S
H112 C98 0.930 . S
H113 C99 0.931 . S
H114 C100 0.931 . S
H115 C101 0.933 . S
H116 C107 0.930 . S
H117 C108 0.931 . S
H118 C109 0.931 . S
H119 C110 0.933 . S
H120 C123 0.929 . S
H121 C126 0.929 . S
H122 C128 0.930 . S
C123 H120 0.929 . S
C123 C124 1.398 . S
C123 C125 1.396 . S
C124 C123 1.398 . S
C124 C128 1.407 . S
C125 C123 1.396 . S
C125 C126 1.394 . S
C126 H121 0.929 . S
C126 C125 1.394 . S
C126 C127 1.382 . S
C127 C126 1.382 . S
C127 C128 1.392 . S
C127 N129 1.420 . S
C128 H122 0.930 . S
C128 C124 1.407 . S
C128 C127 1.392 . S
N129 C127 1.420 . S
N129 C130 1.244 . S
C130 N129 1.244 . S
H131 C134 0.929 . S
H132 C137 0.929 . S
H133 C139 0.930 . S
C134 H131 0.929 . S
C134 C135 1.398 . S
C134 C136 1.396 . S
C135 C134 1.398 . S
C135 C139 1.407 . S
C136 C134 1.396 . S
C136 C137 1.394 . S
C137 H132 0.929 . S
C137 C136 1.394 . S
C137 C138 1.382 . S
C138 C137 1.382 . S
C138 C139 1.392 . S
C138 N140 1.420 . S
C139 H133 0.930 . S
C139 C135 1.407 . S
C139 C138 1.392 . S
N140 C138 1.420 . S
N140 C141 1.244 . S
C141 N140 1.244 . S
H142 C145 0.929 . S
H143 C148 0.929 . S
H144 C150 0.930 . S
C145 H142 0.929 . S
C145 C146 1.398 . S
C145 C147 1.396 1_655 S
C146 C145 1.398 . S
C146 C150 1.407 1_655 S
C147 C145 1.396 1_455 S
C147 C148 1.394 . S
C148 H143 0.929 . S
C148 C147 1.394 . S
C148 C149 1.382 . S
C149 C148 1.382 . S
C149 C150 1.392 . S
C149 N151 1.420 . S
C150 H144 0.930 . S
C150 C146 1.407 1_455 S
C150 C149 1.392 . S
N151 C149 1.420 . S
N151 C152 1.244 . S
C152 N151 1.244 . S
H153 C156 0.929 . S
H154 C159 0.920 1_655 S
H155 C161 0.930 . S
C156 H153 0.929 . S
C156 C157 1.398 . S
C156 C158 1.396 . S
C157 C156 1.398 . S
C157 C161 1.407 . S
C158 C156 1.396 . S
C158 C159 1.402 . S
C159 H154 0.920 1_455 S
C159 C158 1.402 . S
C159 C160 1.383 . S
C160 C159 1.383 . S
C160 C161 1.392 . S
C160 N162 1.420 1_455 S
C161 H155 0.930 . S
C161 C157 1.407 . S
C161 C160 1.392 . S
N162 C160 1.420 1_655 S
N162 C163 1.244 . S
C163 N162 1.244 . S
H164 C167 0.929 . S
H165 C170 0.929 . S
H166 C172 0.930 . S
C167 H164 0.929 . S
C167 C168 1.398 . S
C167 C169 1.396 . S
C168 C167 1.398 . S
C168 C172 1.407 . S
C169 C167 1.396 . S
C169 C170 1.394 1_545 S
C170 H165 0.929 . S
C170 C169 1.394 1_565 S
C170 C171 1.382 . S
C171 C170 1.382 . S
C171 C172 1.392 1_565 S
C171 N173 1.420 . S
C172 H166 0.930 . S
C172 C168 1.407 . S
C172 C171 1.392 1_545 S
N173 C171 1.420 . S
N173 C174 1.244 . S
C174 N173 1.244 . S
H175 C178 0.929 . S
H176 C181 0.929 . S
H177 C183 0.930 . S
C178 H175 0.929 . S
C178 C179 1.398 . S
C178 C180 1.396 . S
C179 C178 1.398 . S
C179 C183 1.407 . S
C180 C178 1.396 . S
C180 C181 1.394 . S
C181 H176 0.929 . S
C181 C180 1.394 . S
C181 C182 1.382 . S
C182 C181 1.382 . S
C182 C183 1.392 . S
C182 N184 1.420 . S
C183 H177 0.930 . S
C183 C179 1.407 . S
C183 C182 1.392 . S
N184 C182 1.420 . S
N184 C185 1.244 . S
C185 N184 1.244 . S
H186 C192 0.930 . S
H187 C195 0.930 . S
H188 C196 0.930 . S
H189 C197 0.930 . S
H190 C200 0.930 . S
H191 C201 0.930 . S
C192 H186 0.930 . S
C192 C193 1.355 . S
C192 C194 1.415 . S
C193 C192 1.355 . S
C193 C195 1.419 . S
C194 C192 1.415 . S
C194 C199 1.425 . S
C194 C201 1.409 . S
C195 H187 0.930 . S
C195 C193 1.419 . S
C195 C196 1.362 . S
C196 H188 0.930 . S
C196 C195 1.362 . S
C196 C199 1.409 . S
C197 H189 0.930 . S
C197 C198 1.355 . S
C197 C199 1.415 . S
C198 C197 1.355 . S
C198 C200 1.419 . S
C199 C194 1.425 . S
C199 C196 1.409 . S
C199 C197 1.415 . S
C200 H190 0.930 . S
C200 C198 1.419 . S
C200 C201 1.362 . S
C201 H191 0.930 . S
C201 C194 1.409 . S
C201 C200 1.362 . S
H202 C208 0.930 . S
H203 C211 0.930 . S
H204 C212 0.930 . S
H205 C213 0.930 . S
H206 C216 0.930 . S
H207 C217 0.930 . S
C208 H202 0.930 . S
C208 C209 1.355 . S
C208 C210 1.415 . S
C209 C208 1.355 . S
C209 C211 1.419 . S
C210 C208 1.415 . S
C210 C215 1.425 . S
C210 C217 1.409 . S
C211 H203 0.930 . S
C211 C209 1.419 . S
C211 C212 1.362 . S
C212 H204 0.930 . S
C212 C211 1.362 . S
C212 C215 1.409 . S
C213 H205 0.930 . S
C213 C214 1.355 . S
C213 C215 1.415 . S
C214 C213 1.355 . S
C214 C216 1.419 . S
C215 C210 1.425 . S
C215 C212 1.409 . S
C215 C213 1.415 . S
C216 H206 0.930 . S
C216 C214 1.419 . S
C216 C217 1.362 . S
C217 H207 0.930 . S
C217 C210 1.409 . S
C217 C216 1.362 . S
H218 C224 0.930 . S
H219 C227 0.930 . S
H220 C228 0.930 . S
H221 C229 0.930 . S
H222 C232 0.930 . S
H223 C233 0.930 . S
C224 H218 0.930 . S
C224 C225 1.355 . S
C224 C226 1.415 . S
C225 C224 1.355 . S
C225 C227 1.419 . S
C226 C224 1.415 . S
C226 C231 1.425 . S
C226 C233 1.409 . S
C227 H219 0.930 . S
C227 C225 1.419 . S
C227 C228 1.362 . S
C228 H220 0.930 . S
C228 C227 1.362 . S
C228 C231 1.409 . S
C229 H221 0.930 . S
C229 C230 1.355 . S
C229 C231 1.415 . S
C230 C229 1.355 . S
C230 C232 1.419 . S
C231 C226 1.425 . S
C231 C228 1.409 . S
C231 C229 1.415 . S
C232 H222 0.930 . S
C232 C230 1.419 . S
C232 C233 1.362 . S
C233 H223 0.930 . S
C233 C226 1.409 . S
C233 C232 1.362 . S
H234 C240 0.930 . S
H235 C243 0.930 . S
H236 C244 0.930 . S
H237 C245 0.930 . S
H238 C248 0.930 . S
H239 C249 0.930 . S
C240 H234 0.930 . S
C240 C241 1.355 . S
C240 C242 1.415 . S
C241 C240 1.355 . S
C241 C243 1.419 . S
C242 C240 1.415 . S
C242 C247 1.425 . S
C242 C249 1.409 . S
C243 H235 0.930 . S
C243 C241 1.419 . S
C243 C244 1.362 . S
C244 H236 0.930 . S
C244 C243 1.362 . S
C244 C247 1.409 . S
C245 H237 0.930 . S
C245 C246 1.355 . S
C245 C247 1.415 . S
C246 C245 1.355 . S
C246 C248 1.419 . S
C247 C242 1.425 . S
C247 C244 1.409 . S
C247 C245 1.415 . S
C248 H238 0.930 . S
C248 C246 1.419 . S
C248 C249 1.362 . S
C249 H239 0.930 . S
C249 C242 1.409 . S
C249 C248 1.362 . S
H250 C256 0.930 . S
H251 C259 0.930 . S
H252 C260 0.930 . S
H253 C261 0.930 . S
H254 C264 0.930 . S
H255 C265 0.930 . S
C256 H250 0.930 . S
C256 C257 1.355 . S
C256 C258 1.415 . S
C257 C256 1.355 . S
C257 C259 1.419 . S
C258 C256 1.415 . S
C258 C263 1.425 . S
C258 C265 1.409 . S
C259 H251 0.930 . S
C259 C257 1.419 . S
C259 C260 1.362 . S
C260 H252 0.930 . S
C260 C259 1.362 . S
C260 C263 1.409 . S
C261 H253 0.930 . S
C261 C262 1.355 . S
C261 C263 1.415 . S
C262 C261 1.355 . S
C262 C264 1.419 . S
C263 C258 1.425 . S
C263 C260 1.409 . S
C263 C261 1.415 . S
C264 H254 0.930 . S
C264 C262 1.419 . S
C264 C265 1.362 . S
C265 H255 0.930 . S
C265 C258 1.409 . S
C265 C264 1.362 . S
H266 C272 0.930 . S
H267 C275 0.930 . S
H268 C276 0.930 . S
H269 C277 0.930 . S
H270 C280 0.930 . S
H271 C281 0.930 . S
C272 H266 0.930 . S
C272 C273 1.355 . S
C272 C274 1.415 . S
C273 C272 1.355 . S
C273 C275 1.419 . S
C274 C272 1.415 . S
C274 C279 1.425 . S
C274 C281 1.409 . S
C275 H267 0.930 . S
C275 C273 1.419 . S
C275 C276 1.362 . S
C276 H268 0.930 . S
C276 C275 1.362 . S
C276 C279 1.409 . S
C277 H269 0.930 . S
C277 C278 1.355 . S
C277 C279 1.415 . S
C278 C277 1.355 . S
C278 C280 1.419 . S
C279 C274 1.425 . S
C279 C276 1.409 . S
C279 C277 1.415 . S
C280 H270 0.930 . S
C280 C278 1.419 . S
C280 C281 1.362 . S
C281 H271 0.930 . S
C281 C274 1.409 . S
C281 C280 1.362 . S
H282 C288 0.930 . S
H283 C291 0.930 . S
H284 C292 0.930 . S
H285 C293 0.930 . S
H286 C296 0.930 . S
H287 C297 0.930 . S
C288 H282 0.930 . S
C288 C289 1.355 . S
C288 C290 1.415 . S
C289 C288 1.355 . S
C289 C291 1.419 . S
C290 C288 1.415 . S
C290 C295 1.425 . S
C290 C297 1.409 . S
C291 H283 0.930 . S
C291 C289 1.419 . S
C291 C292 1.362 . S
C292 H284 0.930 . S
C292 C291 1.362 . S
C292 C295 1.409 . S
C293 H285 0.930 . S
C293 C294 1.355 . S
C293 C295 1.415 . S
C294 C293 1.355 . S
C294 C296 1.419 . S
C295 C290 1.425 . S
C295 C292 1.409 . S
C295 C293 1.415 . S
C296 H286 0.930 . S
C296 C294 1.419 . S
C296 C297 1.362 . S
C297 H287 0.930 . S
C297 C290 1.409 . S
C297 C296 1.362 . S
H298 C304 0.930 . S
H299 C307 0.930 . S
H300 C308 0.930 . S
H301 C309 0.930 . S
H302 C312 0.930 . S
H303 C313 0.930 . S
C304 H298 0.930 . S
C304 C305 1.355 . S
C304 C306 1.415 . S
C305 C304 1.355 . S
C305 C307 1.419 . S
C306 C304 1.415 . S
C306 C311 1.425 . S
C306 C313 1.409 . S
C307 H299 0.930 . S
C307 C305 1.419 . S
C307 C308 1.362 . S
C308 H300 0.930 . S
C308 C307 1.362 . S
C308 C311 1.409 . S
C309 H301 0.930 . S
C309 C310 1.355 . S
C309 C311 1.415 . S
C310 C309 1.355 . S
C310 C312 1.419 . S
C311 C306 1.425 . S
C311 C308 1.409 . S
C311 C309 1.415 . S
C312 H302 0.930 . S
C312 C310 1.419 . S
C312 C313 1.362 . S
C313 H303 0.930 . S
C313 C306 1.409 . S
C313 C312 1.362 . S
H314 C320 0.930 . S
H315 C323 0.930 . S
H316 C324 0.930 . S
H317 C325 0.930 . S
H318 C328 0.930 1_545 S
H319 C329 0.930 . S
C320 H314 0.930 . S
C320 C321 1.355 . S
C320 C322 1.415 . S
C321 C320 1.355 . S
C321 C323 1.419 . S
C322 C320 1.415 . S
C322 C327 1.425 . S
C322 C329 1.409 . S
C323 H315 0.930 . S
C323 C321 1.419 . S
C323 C324 1.362 . S
C324 H316 0.930 . S
C324 C323 1.362 . S
C324 C327 1.409 . S
C325 H317 0.930 . S
C325 C326 1.355 . S
C325 C327 1.415 . S
C326 C325 1.355 . S
C326 C328 1.419 . S
C327 C322 1.425 . S
C327 C324 1.409 . S
C327 C325 1.415 . S
C328 H318 0.930 1_565 S
C328 C326 1.419 . S
C328 C329 1.362 . S
C329 H319 0.930 . S
C329 C322 1.409 . S
C329 C328 1.362 . S
H330 C336 0.930 . S
H331 C339 0.930 . S
H332 C340 0.930 . S
H333 C341 0.930 . S
H334 C344 0.930 . S
H335 C345 0.930 . S
C336 H330 0.930 . S
C336 C337 1.355 . S
C336 C338 1.415 . S
C337 C336 1.355 . S
C337 C339 1.419 . S
C338 C336 1.415 . S
C338 C343 1.425 . S
C338 C345 1.409 . S
C339 H331 0.930 . S
C339 C337 1.419 . S
C339 C340 1.362 . S
C340 H332 0.930 . S
C340 C339 1.362 . S
C340 C343 1.409 . S
C341 H333 0.930 . S
C341 C342 1.355 . S
C341 C343 1.415 . S
C342 C341 1.355 . S
C342 C344 1.419 . S
C343 C338 1.425 . S
C343 C340 1.409 . S
C343 C341 1.415 . S
C344 H334 0.930 . S
C344 C342 1.419 . S
C344 C345 1.362 . S
C345 H335 0.930 . S
C345 C338 1.409 . S
C345 C344 1.362 . S
H346 C352 0.930 . S
H347 C355 0.930 . S
H348 C356 0.930 . S
H349 C357 0.930 . S
H350 C360 0.930 . S
H351 C361 0.930 . S
C352 H346 0.930 . S
C352 C353 1.355 . S
C352 C354 1.415 . S
C353 C352 1.355 . S
C353 C355 1.419 . S
C354 C352 1.415 . S
C354 C359 1.425 . S
C354 C361 1.409 . S
C355 H347 0.930 . S
C355 C353 1.419 . S
C355 C356 1.362 . S
C356 H348 0.930 . S
C356 C355 1.362 . S
C356 C359 1.409 . S
C357 H349 0.930 . S
C357 C358 1.355 . S
C357 C359 1.415 . S
C358 C357 1.355 . S
C358 C360 1.419 . S
C359 C354 1.425 . S
C359 C356 1.409 . S
C359 C357 1.415 . S
C360 H350 0.930 . S
C360 C358 1.419 . S
C360 C361 1.362 . S
C361 H351 0.930 . S
C361 C354 1.409 . S
C361 C360 1.362 . S
H362 C368 0.930 . S
H363 C371 0.930 . S
H364 C372 0.930 . S
H365 C373 0.930 . S
H366 C376 0.930 . S
H367 C377 0.930 . S
C368 H362 0.930 . S
C368 C369 1.355 . S
C368 C370 1.415 . S
C369 C368 1.355 . S
C369 C371 1.419 . S
C370 C368 1.415 . S
C370 C375 1.425 . S
C370 C377 1.409 . S
C371 H363 0.930 . S
C371 C369 1.419 . S
C371 C372 1.362 . S
C372 H364 0.930 . S
C372 C371 1.362 . S
C372 C375 1.409 . S
C373 H365 0.930 . S
C373 C374 1.355 . S
C373 C375 1.415 . S
C374 C373 1.355 . S
C374 C376 1.419 . S
C375 C370 1.425 . S
C375 C372 1.409 . S
C375 C373 1.415 . S
C376 H366 0.930 . S
C376 C374 1.419 . S
C376 C377 1.362 . S
C377 H367 0.930 . S
C377 C370 1.409 . S
C377 C376 1.362 . S
H378 C384 0.930 . S
H379 C387 0.930 . S
H380 C388 0.930 . S
H381 C389 0.930 . S
H382 C392 0.930 . S
H383 C393 0.930 . S
C384 H378 0.930 . S
C384 C385 1.355 1_655 S
C384 C386 1.415 1_655 S
C385 C384 1.355 1_455 S
C385 C387 1.419 . S
C386 C384 1.415 1_455 S
C386 C391 1.425 . S
C386 C393 1.409 1_454 S
C387 H379 0.930 . S
C387 C385 1.419 . S
C387 C388 1.362 . S
C388 H380 0.930 . S
C388 C387 1.362 . S
C388 C391 1.409 . S
C389 H381 0.930 . S
C389 C390 1.355 . S
C389 C391 1.415 1_556 S
C390 C389 1.355 . S
C390 C392 1.419 1_455 S
C391 C386 1.425 . S
C391 C388 1.409 . S
C391 C389 1.415 1_554 S
C392 H382 0.930 . S
C392 C390 1.419 1_655 S
C392 C393 1.362 . S
C393 H383 0.930 . S
C393 C386 1.409 1_656 S
C393 C392 1.362 . S
H394 C400 0.930 1_565 S
H395 C403 0.930 . S
H396 C404 0.930 . S
H397 C405 0.930 . S
H398 C408 0.930 1_565 S
H399 C409 0.930 . S
C400 H394 0.930 1_545 S
C400 C401 1.355 . S
C400 C402 1.415 . S
C401 C400 1.355 . S
C401 C403 1.419 . S
C402 C400 1.415 . S
C402 C407 1.425 . S
C402 C409 1.409 1_545 S
C403 H395 0.930 . S
C403 C401 1.419 . S
C403 C404 1.362 . S
C404 H396 0.930 . S
C404 C403 1.362 . S
C404 C407 1.409 . S
C405 H397 0.930 . S
C405 C406 1.355 . S
C405 C407 1.415 . S
C406 C405 1.355 . S
C406 C408 1.419 . S
C407 C402 1.425 . S
C407 C404 1.409 . S
C407 C405 1.415 . S
C408 H398 0.930 1_545 S
C408 C406 1.419 . S
C408 C409 1.362 1_545 S
C409 H399 0.930 . S
C409 C402 1.409 1_565 S
C409 C408 1.362 1_565 S
H410 C416 0.930 . S
H411 C419 0.930 . S
H412 C420 0.930 . S
H413 C421 0.930 . S
H414 C424 0.930 . S
H415 C425 0.930 . S
C416 H410 0.930 . S
C416 C417 1.355 . S
C416 C418 1.415 . S
C417 C416 1.355 . S
C417 C419 1.419 . S
C418 C416 1.415 . S
C418 C423 1.425 . S
C418 C425 1.409 . S
C419 H411 0.930 . S
C419 C417 1.419 . S
C419 C420 1.362 . S
C420 H412 0.930 . S
C420 C419 1.362 . S
C420 C423 1.409 . S
C421 H413 0.930 . S
C421 C422 1.355 . S
C421 C423 1.415 . S
C422 C421 1.355 . S
C422 C424 1.419 . S
C423 C418 1.425 . S
C423 C420 1.409 . S
C423 C421 1.415 . S
C424 H414 0.930 . S
C424 C422 1.419 . S
C424 C425 1.362 . S
C425 H415 0.930 . S
C425 C418 1.409 . S
C425 C424 1.362 . S
H426 C432 0.930 1_565 S
H427 C435 0.930 . S
H428 C436 0.930 . S
H429 C437 0.930 . S
H430 C440 0.930 . S
H431 C441 0.930 . S
C432 H426 0.930 1_545 S
C432 C433 1.355 . S
C432 C434 1.415 . S
C433 C432 1.355 . S
C433 C435 1.419 . S
C434 C432 1.415 . S
C434 C439 1.425 . S
C434 C441 1.409 1_545 S
C435 H427 0.930 . S
C435 C433 1.419 . S
C435 C436 1.362 . S
C436 H428 0.930 . S
C436 C435 1.362 . S
C436 C439 1.409 . S
C437 H429 0.930 . S
C437 C438 1.355 . S
C437 C439 1.415 . S
C438 C437 1.355 . S
C438 C440 1.419 1_545 S
C439 C434 1.425 . S
C439 C436 1.409 . S
C439 C437 1.415 . S
C440 H430 0.930 . S
C440 C438 1.419 1_565 S
C440 C441 1.362 . S
C441 H431 0.930 . S
C441 C434 1.409 1_565 S
C441 C440 1.362 . S
H442 C448 0.930 . S
H443 C451 0.930 . S
H444 C452 0.930 . S
H445 C453 0.930 . S
H446 C456 0.930 . S
H447 C457 0.926 1_556 S
C448 H442 0.930 . S
C448 C449 1.355 . S
C448 C450 1.415 . S
C449 C448 1.355 . S
C449 C451 1.419 . S
C450 C448 1.415 . S
C450 C455 1.425 . S
C450 C457 1.409 1_556 S
C451 H443 0.930 . S
C451 C449 1.419 . S
C451 C452 1.362 . S
C452 H444 0.930 . S
C452 C451 1.362 . S
C452 C455 1.409 . S
C453 H445 0.930 . S
C453 C454 1.355 . S
C453 C455 1.415 1_554 S
C454 C453 1.355 . S
C454 C456 1.419 . S
C455 C450 1.425 . S
C455 C452 1.409 . S
C455 C453 1.415 1_556 S
C456 H446 0.930 . S
C456 C454 1.419 . S
C456 C457 1.362 . S
C457 H447 0.926 1_554 S
C457 C450 1.409 1_554 S
C457 C456 1.362 . S
H458 C464 0.930 . S
H459 C467 0.930 . S
H460 C468 0.930 . S
H461 C469 0.930 . S
H462 C472 0.930 . S
H463 C473 0.930 . S
C464 H458 0.930 . S
C464 C465 1.355 1_655 S
C464 C466 1.414 1_655 S
C465 C464 1.355 1_455 S
C465 C467 1.419 . S
C466 C464 1.414 1_455 S
C466 C471 1.431 . S
C466 C473 1.404 1_455 S
C467 H459 0.930 . S
C467 C465 1.419 . S
C467 C468 1.362 . S
C468 H460 0.930 . S
C468 C467 1.362 . S
C468 C471 1.409 . S
C469 H461 0.930 . S
C469 C470 1.355 . S
C469 C471 1.415 . S
C470 C469 1.355 . S
C470 C472 1.419 1_455 S
C471 C466 1.431 . S
C471 C468 1.409 . S
C471 C469 1.415 . S
C472 H462 0.930 . S
C472 C470 1.419 1_655 S
C472 C473 1.362 . S
C473 H463 0.930 . S
C473 C466 1.404 1_655 S
C473 C472 1.362 . S
C193 C24 3.060 . S
C198 C185 3.010 . S
C209 C66 1.199 . S
C214 C163 1.262 . S
C225 C93 1.851 . S
C230 C174 1.823 . S
C241 C13 3.015 . S
C246 C179 2.976 . S
C262 C157 1.155 . S
C257 C57 1.117 . S
C278 C168 1.827 . S
C273 C104 1.879 . S
C289 C64 1.991 . S
C294 C141 1.940 . S
C305 C97 0.650 . S
C310 C146 0.570 . S
C321 C17 1.246 . S
C326 C124 1.315 1_565 S
C342 C135 1.735 . S
C337 C53 1.748 . S
C358 C152 0.316 . S
C353 C106 0.575 . S
C369 C26 1.239 . S
C374 C130 1.301 . S
C390 C147 1.157 . S
C385 C2 1.155 . S
C401 C63 1.487 . S
C406 C125 1.470 . S
C417 C82 1.415 . S
C422 C136 1.444 . S
C438 C169 1.454 . S
C433 C42 1.397 . S
C454 C180 1.739 . S
C449 C103 1.729 . S
C465 C23 1.514 . S
C470 C158 1.553 . S
