# Generated by pormake.
# Topology anh, (6,3)-cn, num edge types: 1
# Building blocks:
#     Node 0, Type 0, BuildingBlock: BETFEN_clean_sbu_0, # of connection points: 6
#     Node 1, Type 0, BuildingBlock: BETFEN_clean_sbu_0, # of connection points: 6
#     Node 2, Type 0, BuildingBlock: BETFEN_clean_sbu_0, # of connection points: 6
#     Node 3, Type 1, BuildingBlock: VETTIZ_charged_linker_0, # of connection points: 3
#     Node 4, Type 1, BuildingBlock: VETTIZ_charged_linker_0, # of connection points: 3
#     Node 5, Type 1, BuildingBlock: VETTIZ_charged_linker_0, # of connection points: 3
#     Node 6, Type 1, BuildingBlock: VETTIZ_charged_linker_0, # of connection points: 3
#     Node 7, Type 1, BuildingBlock: VETTIZ_charged_linker_0, # of connection points: 3
#     Node 8, Type 1, BuildingBlock: VETTIZ_charged_linker_0, # of connection points: 3
#     Edge 9, Type (0, 1), None
#     Edge 10, Type (0, 1), None
#     Edge 11, Type (0, 1), None
#     Edge 12, Type (0, 1), None
#     Edge 13, Type (0, 1), None
#     Edge 14, Type (0, 1), None
#     Edge 15, Type (0, 1), None
#     Edge 16, Type (0, 1), None
#     Edge 17, Type (0, 1), None
#     Edge 18, Type (0, 1), None
#     Edge 19, Type (0, 1), None
#     Edge 20, Type (0, 1), None
#     Edge 21, Type (0, 1), None
#     Edge 22, Type (0, 1), None
#     Edge 23, Type (0, 1), None
#     Edge 24, Type (0, 1), None
#     Edge 25, Type (0, 1), None
#     Edge 26, Type (0, 1), None
# Relax obj value: 0.294
# Max RMSD: 0.261
# Mean RMSD: 0.185
data_MOF--net-anh--node1-BETFEN_clean_sbu_0--node2-VETTIZ_charged_linker_0--edge1-none
_symmetry_space_group_name_H-M    P1
_symmetry_Int_Tables_number       1
_symmetry_cell_setting            triclinic
loop_
_symmetry_equiv_pos_as_xyz
'x, y, z'
_cell_length_a     18.607343
_cell_length_b     19.411772
_cell_length_c     38.360895
_cell_angle_alpha  91.329524
_cell_angle_beta   90.223987
_cell_angle_gamma 91.49373
loop_
_atom_site_label
_atom_site_type_symbol
_atom_site_fract_x
_atom_site_fract_y
_atom_site_fract_z
_atom_type_partial_charge
Pr0 Pr 0.07021 0.59614 0.13993 0.0
Pr1 Pr 0.07264 0.74486 0.14073 0.0
C2 C 1.03209 0.4623 0.14289 0.0
C3 C 0.96168 0.43117 0.1506 0.0
C4 C 0.94068 0.36682 0.13614 0.0
C5 C 0.87463 0.33655 0.14533 0.0
C6 C 0.82908 0.37102 0.16872 0.0
C7 C 0.84745 0.43828 0.18022 0.0
C8 C 0.91377 0.46746 0.17183 0.0
C9 C 0.09175 0.65191 0.07415 0.0
C10 C 0.91467 0.67694 0.13879 0.0
C11 C 0.11199 0.87518 0.12747 0.0
C12 C 0.18268 0.91054 0.13209 0.0
C13 C 0.19489 0.95315 0.16161 0.0
C14 C 0.26409 0.97694 0.16993 0.0
C15 C 0.32246 0.95928 0.14871 0.0
C16 C 0.31022 0.92028 0.118 0.0
C17 C 0.24073 0.8957 0.10978 0.0
C18 C 1.05246 0.69356 0.20721 0.0
C19 C 0.22882 0.66064 0.14811 0.0
O20 O 0.06382 0.49607 0.16882 0.0
O21 O 1.03516 0.49518 0.11368 0.0
O22 O 1.04456 0.67001 0.09576 0.0
O23 O 0.13227 0.60514 0.08681 0.0
O24 O 0.95189 0.72985 0.12697 0.0
O25 O 0.94885 0.62437 0.15143 0.0
O26 O 0.10801 0.82682 0.10322 0.0
O27 O 0.07871 0.85801 0.15613 0.0
O28 O 0.09752 0.6714 0.1854 0.0
O29 O 1.0178 0.74523 0.19519 0.0
O30 O 0.19194 0.60348 0.1539 0.0
O31 O 0.19564 0.71671 0.13875 0.0
H32 H 0.97644 0.33896 0.11898 0.0
H33 H 0.86163 0.28451 0.13613 0.0
H34 H 0.81275 0.46631 0.19784 0.0
H35 H 0.9287 0.51715 0.18332 0.0
H36 H 0.15136 0.96572 0.17913 0.0
H37 H 0.2723 1.00823 0.19344 0.0
H38 H 0.35456 0.9066 0.1012 0.0
H39 H 0.23314 0.86299 0.08673 0.0
Pr40 Pr 0.67628 0.14387 0.49224 0.0
Pr41 Pr 0.51358 1.1238 0.49326 0.0
C42 C 0.81791 0.16326 0.48362 0.0
C43 C 0.85741 0.22884 0.47738 0.0
C44 C 0.85088 0.28634 0.50025 0.0
C45 C 0.87376 0.35214 0.49 0.0
C46 C 0.90246 0.36134 0.45663 0.0
C47 C 0.9134 0.30325 0.4349 0.0
C48 C 0.89137 0.23771 0.44522 0.0
C49 C 0.60994 0.14972 0.55721 0.0
C50 C 0.5852 0.28815 0.49142 0.0
C51 C 0.38037 1.09373 0.5157 0.0
C52 C 0.33245 1.03308 0.50805 0.0
C53 C 0.28518 1.03346 0.47947 0.0
C54 C 0.24839 0.97327 0.46861 0.0
C55 C 0.25773 0.9112 0.48607 0.0
C56 C 0.3015 0.91149 0.51596 0.0
C57 C 0.3386 0.97193 0.52686 0.0
C58 C 0.5507 1.11962 0.42327 0.0
C59 C 0.6082 0.97767 0.49071 0.0
O60 O 0.7751 0.14204 0.45817 0.0
O61 O 0.78908 0.15603 0.51441 0.0
O62 O 0.59916 1.10531 0.53359 0.0
O63 O 0.65475 0.19755 0.5471 0.0
O64 O 0.53187 0.2475 0.50324 0.0
O65 O 0.64423 0.25915 0.4796 0.0
O66 O 0.43793 1.08225 0.5341 0.0
O67 O 0.39304 0.13544 0.48992 0.0
O68 O 0.5956 1.12827 0.44784 0.0
O69 O 0.48559 1.11173 0.43449 0.0
O70 O 0.66671 1.01918 0.49286 0.0
O71 O 0.54357 1.00499 0.48961 0.0
H72 H 0.82454 0.28132 0.52522 0.0
H73 H 0.86516 0.3961 0.50725 0.0
H74 H 0.93668 0.30891 0.40925 0.0
H75 H 0.89684 0.1945 0.42711 0.0
H76 H 0.27852 1.07969 0.46463 0.0
H77 H 0.21356 0.97502 0.44596 0.0
H78 H 0.30942 0.86448 0.52999 0.0
H79 H 0.37419 0.97 0.54922 0.0
Pr80 Pr 0.57928 0.57924 0.82042 0.0
Pr81 Pr 0.6167 0.711 0.81295 0.0
C82 C 0.58665 0.4456 0.83023 0.0
C83 C 0.64819 0.40547 0.84065 0.0
C84 C 0.64087 0.36233 0.86957 0.0
C85 C 0.6688 0.29605 0.86637 0.0
C86 C 0.6843 0.2748 0.83196 0.0
C87 C 0.72892 0.32393 0.81553 0.0
C88 C 0.7033 0.39119 0.81658 0.0
C89 C 0.55369 0.64842 0.88218 0.0
C90 C 0.7524 0.61979 0.8134 0.0
C91 C 0.66037 0.83887 0.83016 0.0
C92 C 0.60852 0.89046 0.84077 0.0
C93 C 0.60142 0.94357 0.81723 0.0
C94 C 0.53563 0.94989 0.80057 0.0
C95 C 0.47528 0.90978 0.81083 0.0
C96 C 0.47893 0.87295 0.84157 0.0
C97 C 0.54597 0.86438 0.8572 0.0
C98 C 0.57682 0.65769 0.74802 0.0
C99 C 0.44158 0.67322 0.81163 0.0
O100 O 0.58662 0.47063 0.79879 0.0
O101 O 0.56241 0.48709 0.85415 0.0
O102 O 0.61156 0.6538 0.86497 0.0
O103 O 0.50538 0.61074 0.86598 0.0
O104 O 0.72908 0.67253 0.79691 0.0
O105 O 0.70533 0.58225 0.83073 0.0
O106 O 0.6678 0.78817 0.85154 0.0
O107 O 0.65231 0.8177 0.79766 0.0
O108 O 0.61686 0.62687 0.76913 0.0
O109 O 0.55554 0.71676 0.76048 0.0
O110 O 0.46313 0.6112 0.80228 0.0
O111 O 0.49132 0.72025 0.82098 0.0
H112 H 0.60464 0.37424 0.89078 0.0
H113 H 0.65413 0.25837 0.88564 0.0
H114 H 0.76385 0.30866 0.79437 0.0
H115 H 0.71741 0.42629 0.796 0.0
H116 H 0.64868 0.96764 0.80579 0.0
H117 H 0.53289 0.98306 0.77831 0.0
H118 H 0.43177 0.84646 0.85155 0.0
H119 H 0.54975 0.82681 0.87756 0.0
C120 C 0.7252 0.28565 0.1693 0.0
C121 C 0.77215 0.33242 0.18704 0.0
C122 C 0.77106 0.33657 0.22375 0.0
C123 C 0.68334 0.24356 0.22489 0.0
C124 C 0.68092 0.24182 0.18884 0.0
C125 C 0.62903 0.18701 0.1749 0.0
H126 H 0.38384 0.93657 0.21079 0.0
C127 C 0.638 0.18674 0.23757 0.0
C128 C 0.60631 0.15273 0.2085 0.0
H129 H 0.42362 1.03255 0.11213 0.0
H130 H 0.52821 1.09352 0.13666 0.0
H131 H 0.56046 0.92142 0.235 0.0
H132 H 0.38795 1.06086 0.25155 0.0
H133 H 0.43509 1.06143 0.29096 0.0
H134 H 0.39388 0.98201 0.27474 0.0
H135 H 0.48588 0.90305 0.26309 0.0
H136 H 0.56571 0.94884 0.27896 0.0
C137 C 0.67 0.13732 0.15041 0.0
C138 C 0.56573 0.2234 0.15719 0.0
C139 C 0.61163 0.15305 0.36793 0.0
C140 C 0.56884 1.1064 0.38666 0.0
C141 C 0.53472 1.05007 0.36913 0.0
C142 C 0.53958 1.04209 0.33299 0.0
C143 C 0.57704 1.09228 0.31405 0.0
C144 C 0.61436 0.14528 0.33147 0.0
C145 C 0.65057 0.19375 0.30662 0.0
C146 C 0.62593 0.16254 0.27168 0.0
C147 C 0.58265 1.10353 0.2763 0.0
C148 C 0.73301 0.18904 0.31186 0.0
C149 C 0.62039 0.26675 0.31306 0.0
C150 C 0.41645 0.96938 0.1943 0.0
C151 C 0.39543 0.9812 0.1599 0.0
C152 C 0.43889 1.02348 0.13889 0.0
C153 C 0.49866 1.0595 0.15334 0.0
C154 C 0.51405 1.05326 0.18908 0.0
C155 C 0.47477 1.00677 0.20859 0.0
C156 C 0.49352 1.01126 0.24668 0.0
C157 C 0.54843 1.07015 0.24718 0.0
C158 C 0.56064 1.09424 0.2134 0.0
C159 C 0.52776 0.94257 0.25679 0.0
C160 C 0.42445 1.02931 0.26734 0.0
H161 H 0.73036 0.29713 0.27054 0.0
H162 H 0.7246 0.28197 0.14108 0.0
H163 H 0.55679 0.27504 0.16938 0.0
H164 H 0.5138 0.19528 0.16013 0.0
H165 H 0.57622 0.23106 0.12904 0.0
H166 H 0.72357 1.12605 0.16158 0.0
H167 H 0.67877 0.16026 0.12445 0.0
H168 H 0.64215 1.08676 0.1467 0.0
H169 H 0.63804 0.19692 0.38098 0.0
H170 H 0.50214 1.01327 0.38339 0.0
H171 H 0.51091 0.99903 0.32107 0.0
H172 H 0.74788 0.1367 0.32013 0.0
H173 H 0.75293 0.22645 0.33225 0.0
H174 H 0.76356 0.19709 0.28758 0.0
H175 H 0.56268 0.26356 0.32051 0.0
H176 H 0.62141 0.29862 0.28957 0.0
H177 H 0.64998 0.29482 0.33445 0.0
H178 H 0.80736 0.3715 0.23808 0.0
C179 C 0.72704 0.29246 0.2427 0.0
C180 C 0.60828 0.83923 0.48655 0.0
C181 C 0.61212 0.90518 0.50508 0.0
C182 C 0.61365 0.9042 0.54145 0.0
C183 C 0.60492 0.77869 0.54178 0.0
C184 C 0.60608 0.77561 0.50583 0.0
C185 C 0.6044 0.6983 0.49361 0.0
H186 H 0.57012 0.3549 0.5532 0.0
C187 C 0.59907 0.70784 0.55572 0.0
C188 C 0.59923 0.65785 0.52819 0.0
H189 H 0.60573 0.40253 0.44589 0.0
H190 H 0.60833 0.52804 0.46155 0.0
H191 H 0.69345 0.45484 0.57841 0.0
H192 H 0.46377 0.46819 0.57463 0.0
H193 H 0.49042 0.50451 0.61509 0.0
H194 H 0.50979 0.41586 0.60506 0.0
H195 H 0.63619 0.41294 0.60935 0.0
H196 H 0.67045 0.50007 0.61661 0.0
C197 C 0.67449 0.68248 0.4743 0.0
C198 C 0.53843 0.68283 0.47029 0.0
C199 C 0.57456 0.69522 0.68684 0.0
C200 C 0.57502 0.64123 0.71036 0.0
C201 C 0.57785 0.57289 0.69742 0.0
C202 C 0.57977 0.55891 0.66126 0.0
C203 C 0.58084 0.61405 0.63785 0.0
C204 C 0.57909 0.68054 0.65113 0.0
C205 C 0.58801 0.73317 0.62362 0.0
C206 C 0.59201 0.68776 0.59088 0.0
C207 C 0.58716 0.61822 0.59919 0.0
C208 C 0.66046 0.77297 0.63126 0.0
C209 C 0.51962 0.77772 0.62422 0.0
C210 C 0.57697 0.3911 0.53261 0.0
C211 C 0.58511 0.36672 0.49829 0.0
C212 C 0.59776 0.41836 0.47281 0.0
C213 C 0.59957 0.49121 0.48183 0.0
C214 C 0.59128 0.51379 0.51699 0.0
C215 C 0.58164 0.46221 0.5413 0.0
C216 C 0.58091 0.48995 0.57779 0.0
C217 C 0.58737 0.56675 0.57234 0.0
C218 C 0.59366 0.58404 0.53657 0.0
C219 C 0.64818 0.46295 0.59682 0.0
C220 C 0.50787 0.46845 0.59432 0.0
H221 H 0.60832 0.84955 0.58705 0.0
H222 H 0.60685 0.83736 0.45835 0.0
H223 H 0.4883 0.69577 0.4844 0.0
H224 H 0.53511 0.62744 0.46251 0.0
H225 H 0.54129 0.71369 0.44627 0.0
H226 H 0.7218 0.69521 0.49127 0.0
H227 H 0.67923 0.71339 0.45035 0.0
H228 H 0.6765 0.62721 0.46666 0.0
H229 H 0.57429 0.74844 0.69604 0.0
H230 H 0.57843 0.53042 0.71525 0.0
H231 H 0.58096 0.50574 0.65305 0.0
H232 H 0.69797 0.74241 0.64702 0.0
H233 H 0.65171 0.82202 0.64593 0.0
H234 H 0.69119 0.78391 0.60724 0.0
H235 H 0.47136 0.747 0.63222 0.0
H236 H 0.50504 0.79699 0.59831 0.0
H237 H 0.52588 0.8221 0.64289 0.0
H238 H 0.61584 0.9522 0.55655 0.0
C239 C 0.60938 0.84302 0.55945 0.0
C240 C 0.3018 0.65802 0.81151 0.0
C241 C 0.36821 0.68116 0.82701 0.0
C242 C 0.36673 0.70945 0.86105 0.0
C243 C 0.24067 0.68087 0.86651 0.0
C244 C 0.23749 0.66129 0.83169 0.0
C245 C 0.15896 0.65056 0.82037 0.0
H246 H 0.80646 0.62134 0.87718 0.0
C247 C 0.16876 0.67574 0.88193 0.0
C248 C 0.11852 0.66017 0.85509 0.0
H249 H 0.8723 0.62152 0.76971 0.0
H250 H 0.99892 0.63359 0.78797 0.0
H251 H 0.93348 0.53592 0.9104 0.0
H252 H 0.89144 0.74876 0.89432 0.0
H253 H 0.9435 0.75009 0.93246 0.0
H254 H 0.85708 0.70509 0.9316 0.0
H255 H 0.86543 0.58339 0.93276 0.0
H256 H 0.95523 0.58 0.94961 0.0
C257 C 0.14752 0.57751 0.80458 0.0
C258 C 0.14105 0.70732 0.79451 0.0
C259 C 0.14599 0.6616 0.01438 0.0
C260 C 0.08579 0.6641 0.03645 0.0
C261 C 1.01795 0.67614 0.02196 0.0
C262 C 1.00849 0.67902 -0.01403 0.0
C263 C 0.06806 0.67225 0.96397 0.0
C264 C 0.13593 0.66819 0.9782 0.0
C265 C 0.19324 0.67826 0.95094 0.0
C266 C 0.14755 0.67831 0.91753 0.0
C267 C 0.07473 0.67275 0.92571 0.0
C268 C 0.24414 0.61673 0.95137 0.0
C269 C 0.232 0.74891 0.9589 0.0
C270 C 0.84807 0.62198 0.85745 0.0
C271 C 0.82987 0.6181 0.82223 0.0
C272 C 0.88546 0.62311 0.79724 0.0
C273 C 0.95854 0.63105 0.80784 0.0
C274 C 0.97549 0.63731 0.84368 0.0
C275 C 0.91959 0.63348 0.86743 0.0
C276 C 0.94289 0.64862 0.90398 0.0
C277 C 1.02291 0.65937 0.89918 0.0
C278 C 1.04349 0.65277 0.86385 0.0
C279 C 0.92325 0.58418 0.9256 0.0
C280 C 0.90675 0.71621 0.91654 0.0
H281 H 0.30832 0.72893 0.90665 0.0
H282 H 0.30001 0.63926 0.78473 0.0
H283 H 0.15883 0.75881 0.80514 0.0
H284 H 0.08292 0.71029 0.78944 0.0
H285 H 0.16882 0.6985 0.76926 0.0
H286 H 0.16598 0.53841 0.82311 0.0
H287 H 0.17837 0.5715 0.77999 0.0
H288 H 0.09027 0.56581 0.79871 0.0
H289 H 0.19941 0.65642 0.02512 0.0
H290 H 0.97152 0.68156 0.03836 0.0
H291 H 0.95475 0.68526 0.97675 0.0
H292 H 0.21321 0.56726 0.94781 0.0
H293 H 0.27356 0.61554 0.97654 0.0
H294 H 0.28478 0.61927 0.93051 0.0
H295 H 0.21024 0.77631 -0.0178 0.0
H296 H 0.22571 0.78495 0.93707 0.0
H297 H 0.29017 0.74273 0.96427 0.0
H298 H 0.41531 0.73002 0.87345 0.0
C299 C 0.30439 0.70837 0.88078 0.0
C300 C 0.95998 0.4805 0.46099 0.0
C301 C 0.91681 0.43084 0.44279 0.0
C302 C 0.89113 0.4456 0.40928 0.0
C303 C 0.96535 0.5491 0.40893 0.0
C304 C 0.98347 0.53979 0.44346 0.0
C305 C 1.03255 0.59746 0.45726 0.0
H306 H 0.25506 0.86805 0.41858 0.0
C307 C 1.00942 0.60662 0.3957 0.0
C308 C 1.049 0.63578 0.42389 0.0
H309 H 0.18483 0.80823 0.52099 0.0
H310 H 0.11731 0.71064 0.49531 0.0
H311 H 0.27434 0.70981 0.3861 0.0
H312 H 0.11059 0.86149 0.38561 0.0
H313 H 0.10926 0.82316 0.34385 0.0
H314 H 0.18973 0.86784 0.35919 0.0
H315 H 0.2792 0.78363 0.35888 0.0
H316 H 0.23491 0.70399 0.34445 0.0
C317 C 0.10058 0.56648 0.47322 0.0
C318 C 0.98937 0.64199 0.48341 0.0
C319 C 1.01906 0.64621 0.26491 0.0
C320 C 0.06419 0.68808 0.24471 0.0
C321 C 0.1198 0.7277 0.26074 0.0
C322 C 0.12931 0.72738 0.29689 0.0
C323 C 0.08253 0.68704 0.31717 0.0
C324 C 1.02976 0.64595 0.30113 0.0
C325 C 0.98932 0.60232 0.32681 0.0
C326 C 1.02391 0.62715 0.36106 0.0
C327 C 0.07793 0.67696 0.35509 0.0
C328 C 1.00585 0.52612 0.31778 0.0
C329 C 0.90848 0.61954 0.32501 0.0
C330 C 0.22537 0.83386 0.43557 0.0
C331 C 0.22394 0.84654 0.4717 0.0
C332 C 0.18617 0.79979 0.49299 0.0
C333 C 0.14639 0.74383 0.47805 0.0
C334 C 0.14458 0.73482 0.44153 0.0
C335 C 0.18463 0.77906 0.42109 0.0
C336 C 0.17262 0.76587 0.38283 0.0
C337 C 0.11549 0.70907 0.38352 0.0
C338 C 0.10058 0.68944 0.41783 0.0
C339 C 0.24382 0.73993 0.36694 0.0
C340 C 0.14454 0.83281 0.3667 0.0
H341 H 0.89488 0.51221 0.3665 0.0
H342 H 0.97818 0.47144 0.48729 0.0
H343 H 0.93105 0.64068 0.47681 0.0
H344 H 1.00544 0.69718 0.48289 0.0
H345 H 0.9949 0.62329 0.51042 0.0
H346 H 0.12328 0.5274 0.45499 0.0
H347 H 0.08783 0.54085 0.49812 0.0
H348 H 0.14371 0.60543 0.47844 0.0
H349 H 0.97653 0.61467 0.25283 0.0
H350 H 0.15513 0.75992 0.24525 0.0
H351 H 0.17211 0.75935 0.30765 0.0
H352 H 0.06409 0.52043 0.31225 0.0
H353 H 0.97538 0.50779 0.29424 0.0
H354 H 0.99427 0.49046 0.33902 0.0
H355 H 0.90092 0.6734 0.31666 0.0
H356 H 0.88198 0.6169 0.35075 0.0
H357 H 0.87906 0.58474 0.30616 0.0
H358 H 0.85493 0.40965 0.39552 0.0
C359 C 0.91475 0.50473 0.39237 0.0
C360 C 0.36779 0.96808 0.79713 0.0
C361 C 0.40931 0.91106 0.78954 0.0
C362 C 0.41815 0.89228 0.75417 0.0
C363 C 0.39665 1.01039 0.73979 0.0
C364 C 0.37525 1.02259 0.77404 0.0
C365 C 0.39051 1.09601 0.78583 0.0
H366 H 0.66675 0.27469 0.76045 0.0
C367 C 0.4188 1.07686 0.72483 0.0
C368 C 0.41641 1.12755 0.75168 0.0
H369 H 0.5433 0.24556 0.85503 0.0
H370 H 0.43435 0.23667 0.81987 0.0
H371 H 0.62071 0.18275 0.70077 0.0
H372 H 0.47003 0.34847 0.72132 0.0
H373 H 0.51519 0.34211 0.68018 0.0
H374 H 0.56411 0.37098 0.71796 0.0
H375 H 0.65644 0.27019 0.70419 0.0
H376 H 0.60482 0.2463 0.66822 0.0
C377 C 0.44906 1.09637 0.81531 0.0
C378 C 0.32036 1.12842 0.79837 0.0
C379 C 0.54103 1.09537 0.60587 0.0
C380 C 0.5636 0.15497 0.58798 0.0
C381 C 0.53922 0.2198 0.59911 0.0
C382 C 0.49852 0.22637 0.62942 0.0
C383 C 0.48806 0.16839 0.64966 0.0
C384 C 0.50209 1.1036 0.63691 0.0
C385 C 0.47532 1.04923 0.66174 0.0
C386 C 0.44596 1.09441 0.69148 0.0
C387 C 0.46152 0.16364 0.68489 0.0
C388 C 0.54098 1.00797 0.67353 0.0
C389 C 0.41585 1.00491 0.64316 0.0
C390 C 0.61756 0.26282 0.774 0.0
C391 C 0.6174 0.25553 0.81071 0.0
C392 C 0.54907 0.24661 0.82702 0.0
C393 C 0.4859 0.24033 0.80725 0.0
C394 C 0.4916 0.23396 0.77138 0.0
C395 C 0.55312 0.25568 0.75515 0.0
C396 C 0.54093 0.25944 0.71655 0.0
C397 C 0.47518 0.21013 0.71298 0.0
C398 C 0.44752 0.19431 0.74609 0.0
C399 C 0.60898 0.2377 0.69637 0.0
C400 C 0.5212 0.33422 0.70843 0.0
H401 H 0.42812 0.92917 0.70281 0.0
H402 H 0.35541 0.9797 0.8242 0.0
H403 H 0.27746 1.12158 0.77823 0.0
H404 H 0.32824 0.18447 0.8037 0.0
H405 H 0.30131 1.10391 0.82268 0.0
H406 H 0.50387 1.10534 0.8047 0.0
H407 H 0.45247 1.04822 0.82982 0.0
H408 H 0.43707 0.13293 0.8369 0.0
H409 H 0.55587 1.04447 0.59678 0.0
H410 H 0.55217 0.26512 0.58459 0.0
H411 H 0.47899 0.2759 0.63752 0.0
H412 H 0.58809 1.0432 0.67886 0.0
H413 H 0.55677 0.97004 0.653 0.0
H414 H 0.53191 0.98054 0.69803 0.0
H415 H 0.38258 1.03709 0.6261 0.0
H416 H 0.37754 0.98125 0.66154 0.0
H417 H 0.43946 0.9638 0.6265 0.0
H418 H 0.44515 0.84512 0.74723 0.0
C419 C 0.41143 0.94256 0.72875 0.0
C420 C 0.77646 0.66811 0.1417 0.0
C421 C 0.84263 0.66371 0.12359 0.0
C422 C 0.84201 0.648 0.08789 0.0
C423 C 0.71319 0.65288 0.08638 0.0
C424 C 0.71138 0.6611 0.12224 0.0
C425 C 0.63383 0.661 0.13504 0.0
H426 H 0.27691 0.65481 0.08441 0.0
C427 C 0.63989 0.65355 0.07251 0.0
C428 C 0.59141 0.65667 0.10058 0.0
H429 H 0.35206 0.65813 0.19076 0.0
H430 H 0.47743 0.65844 0.17031 0.0
H431 H 0.37503 0.76328 0.05866 0.0
H432 H 0.38993 0.54286 0.05586 0.0
H433 H 0.41314 0.57096 0.01417 0.0
H434 H 0.32535 0.58889 0.03143 0.0
H435 H 0.32915 0.71124 0.026 0.0
H436 H 0.41942 0.74493 0.01954 0.0
C437 C 0.62062 0.7286 0.15555 0.0
C438 C 0.62084 0.59643 0.15702 0.0
C439 C 0.60872 0.66482 0.94117 0.0
C440 C 0.54752 0.66134 0.9198 0.0
C441 C 0.47889 0.65962 0.93514 0.0
C442 C 0.47107 0.66111 0.97124 0.0
C443 C 0.53265 0.66211 -0.00752 0.0
C444 C 0.59987 0.66376 0.97739 0.0
C445 C 0.6587 0.6575 0.00381 0.0
C446 C 0.61567 0.656 0.03752 0.0
C447 C 0.54234 0.65819 0.03054 0.0
C448 C 0.7082 0.72275 0.00144 0.0
C449 C 0.69638 0.58804 -0.00374 0.0
C450 C 0.32018 0.65482 0.10344 0.0
C451 C 0.30528 0.65607 0.13888 0.0
C452 C 0.36286 0.6566 0.16304 0.0
C453 C 0.43516 0.65682 0.15116 0.0
C454 C 0.44897 0.65616 0.11496 0.0
C455 C 0.39096 0.65491 0.09219 0.0
C456 C 0.41178 0.65523 0.05488 0.0
C457 C 0.49238 0.65722 0.05813 0.0
C458 C 0.51563 0.65697 0.09325 0.0
C459 C 0.38224 0.72162 0.03863 0.0
C460 C 0.38343 0.58638 0.03782 0.0
H461 H 0.78326 0.63439 0.04181 0.0
H462 H 0.7756 0.67757 0.16961 0.0
H463 H 0.63863 0.54955 0.1426 0.0
H464 H 0.56356 0.58769 0.16316 0.0
H465 H 0.65157 0.60082 0.18191 0.0
H466 H 0.6379 0.77371 0.14002 0.0
H467 H 0.65146 0.73039 0.18043 0.0
H468 H 0.56324 0.73485 0.1617 0.0
H469 H 0.66212 0.66346 0.93005 0.0
H470 H 0.4309 0.65414 0.91929 0.0
H471 H 0.4172 0.65897 -0.01902 0.0
H472 H 0.67575 0.76952 -0.00191 0.0
H473 H 0.74494 0.71857 0.97877 0.0
H474 H 0.74069 0.73359 0.02511 0.0
H475 H 0.66254 0.5517 0.97995 0.0
H476 H 0.70642 0.5593 0.02038 0.0
H477 H 0.74792 0.5962 -0.01775 0.0
H478 H 0.89171 0.64021 0.07416 0.0
C479 C 0.77839 0.64354 0.06919 0.0
loop_
_geom_bond_atom_site_label_1
_geom_bond_atom_site_label_2
_geom_bond_distance
_geom_bond_site_symmetry_2
_ccdc_geom_bond_type
Pr0 C2 2.880 . S
Pr0 O20 2.562 . S
Pr0 O21 2.490 . S
Pr0 O22 2.695 1_655 S
Pr0 O23 2.512 . S
Pr0 O25 2.437 . S
Pr0 O28 2.436 . S
Pr0 O30 2.438 1_655 S
Pr1 C11 2.880 . S
Pr1 O22 2.436 . S
Pr1 O24 2.438 1_455 S
Pr1 O26 2.562 . S
Pr1 O27 2.490 . S
Pr1 O28 2.695 1_455 S
Pr1 O29 2.512 . S
Pr1 O31 2.437 . S
C2 Pr0 2.880 . S
C2 C3 1.491 . S
C2 O20 1.254 . S
C2 O21 1.225 . S
C3 C2 1.491 . S
C3 C4 1.392 . S
C3 C8 1.356 . S
C4 C3 1.392 . S
C4 C5 1.368 . S
C4 H32 0.929 . S
C5 C4 1.368 . S
C5 C6 1.386 . S
C5 H33 0.929 . S
C6 C5 1.386 . S
C6 C7 1.373 . S
C7 C6 1.373 . S
C7 C8 1.409 . S
C7 H34 0.931 . S
C8 C3 1.356 . S
C8 C7 1.409 . S
C8 H35 0.930 . S
C9 O22 1.270 . S
C9 O23 1.248 1_455 S
C10 O24 1.267 . S
C10 O25 1.278 . S
C11 Pr1 2.880 . S
C11 C12 1.491 . S
C11 O26 1.254 . S
C11 O27 1.225 . S
C12 C11 1.491 . S
C12 C13 1.392 . S
C12 C17 1.356 . S
C13 C12 1.392 . S
C13 C14 1.368 . S
C13 H36 0.929 . S
C14 C13 1.368 . S
C14 C15 1.386 . S
C14 H37 0.929 . S
C15 C14 1.386 . S
C15 C16 1.373 . S
C16 C15 1.373 . S
C16 C17 1.409 . S
C16 H38 0.931 . S
C17 C12 1.356 . S
C17 C16 1.409 . S
C17 H39 0.930 . S
C18 O28 1.270 1_455 S
C18 O29 1.248 . S
C19 O30 1.267 . S
C19 O31 1.278 . S
O20 Pr0 2.562 . S
O20 C2 1.254 . S
O21 Pr0 2.490 . S
O21 C2 1.225 . S
O22 Pr0 2.695 1_455 S
O22 Pr1 2.436 . S
O22 C9 1.270 . S
O23 Pr0 2.512 . S
O23 C9 1.248 1_655 S
O24 Pr1 2.438 1_655 S
O24 C10 1.267 . S
O25 Pr0 2.437 . S
O25 C10 1.278 . S
O26 Pr1 2.562 . S
O26 C11 1.254 . S
O27 Pr1 2.490 . S
O27 C11 1.225 . S
O28 Pr0 2.436 . S
O28 Pr1 2.695 1_655 S
O28 C18 1.270 1_655 S
O29 Pr1 2.512 . S
O29 C18 1.248 . S
O30 Pr0 2.438 1_455 S
O30 C19 1.267 . S
O31 Pr1 2.437 . S
O31 C19 1.278 . S
H32 C4 0.929 . S
H33 C5 0.929 . S
H34 C7 0.931 . S
H35 C8 0.930 . S
H36 C13 0.929 . S
H37 C14 0.929 . S
H38 C16 0.931 . S
H39 C17 0.930 . S
Pr40 C42 2.880 . S
Pr40 O60 2.562 . S
Pr40 O61 2.490 . S
Pr40 O62 2.695 1_545 S
Pr40 O63 2.512 . S
Pr40 O65 2.437 . S
Pr40 O68 2.436 . S
Pr40 O70 2.438 1_545 S
Pr41 C51 2.880 . S
Pr41 O62 2.436 . S
Pr41 O64 2.438 1_565 S
Pr41 O66 2.562 . S
Pr41 O67 2.490 . S
Pr41 O68 2.695 1_565 S
Pr41 O69 2.512 . S
Pr41 O71 2.437 . S
C42 Pr40 2.880 . S
C42 C43 1.491 . S
C42 O60 1.254 . S
C42 O61 1.225 . S
C43 C42 1.491 . S
C43 C44 1.392 . S
C43 C48 1.356 . S
C44 C43 1.392 . S
C44 C45 1.368 . S
C44 H72 0.929 . S
C45 C44 1.368 . S
C45 C46 1.386 . S
C45 H73 0.929 . S
C46 C45 1.386 . S
C46 C47 1.373 . S
C47 C46 1.373 . S
C47 C48 1.409 . S
C47 H74 0.931 . S
C48 C43 1.356 . S
C48 C47 1.409 . S
C48 H75 0.930 . S
C49 O62 1.270 1_545 S
C49 O63 1.248 . S
C50 O64 1.267 . S
C50 O65 1.278 . S
C51 Pr41 2.880 . S
C51 C52 1.491 . S
C51 O66 1.254 . S
C51 O67 1.225 . S
C52 C51 1.491 . S
C52 C53 1.392 . S
C52 C57 1.356 . S
C53 C52 1.392 . S
C53 C54 1.368 . S
C53 H76 0.929 . S
C54 C53 1.368 . S
C54 C55 1.386 . S
C54 H77 0.929 . S
C55 C54 1.386 . S
C55 C56 1.373 . S
C56 C55 1.373 . S
C56 C57 1.409 . S
C56 H78 0.931 . S
C57 C52 1.356 . S
C57 C56 1.409 . S
C57 H79 0.930 . S
C58 O68 1.270 . S
C58 O69 1.248 1_545 S
C59 O70 1.267 . S
C59 O71 1.278 . S
O60 Pr40 2.562 . S
O60 C42 1.254 . S
O61 Pr40 2.490 . S
O61 C42 1.225 . S
O62 Pr40 2.695 1_565 S
O62 Pr41 2.436 . S
O62 C49 1.270 1_565 S
O63 Pr40 2.512 . S
O63 C49 1.248 . S
O64 Pr41 2.438 1_545 S
O64 C50 1.267 . S
O65 Pr40 2.437 . S
O65 C50 1.278 . S
O66 Pr41 2.562 . S
O66 C51 1.254 . S
O67 Pr41 2.490 . S
O67 C51 1.225 . S
O68 Pr40 2.436 . S
O68 Pr41 2.695 1_545 S
O68 C58 1.270 . S
O69 Pr41 2.512 . S
O69 C58 1.248 1_565 S
O70 Pr40 2.438 1_565 S
O70 C59 1.267 . S
O71 Pr41 2.437 . S
O71 C59 1.278 . S
H72 C44 0.929 . S
H73 C45 0.929 . S
H74 C47 0.931 . S
H75 C48 0.930 . S
H76 C53 0.929 . S
H77 C54 0.929 . S
H78 C56 0.931 . S
H79 C57 0.930 . S
Pr80 C82 2.880 . S
Pr80 O100 2.562 . S
Pr80 O101 2.490 . S
Pr80 O102 2.695 . S
Pr80 O103 2.512 . S
Pr80 O105 2.437 . S
Pr80 O108 2.436 . S
Pr80 O110 2.438 . S
Pr81 C91 2.880 . S
Pr81 O102 2.436 . S
Pr81 O104 2.438 . S
Pr81 O106 2.562 . S
Pr81 O107 2.490 . S
Pr81 O108 2.695 . S
Pr81 O109 2.512 . S
Pr81 O111 2.437 . S
C82 Pr80 2.880 . S
C82 C83 1.491 . S
C82 O100 1.254 . S
C82 O101 1.225 . S
C83 C82 1.491 . S
C83 C84 1.392 . S
C83 C88 1.356 . S
C84 C83 1.392 . S
C84 C85 1.368 . S
C84 H112 0.929 . S
C85 C84 1.368 . S
C85 C86 1.386 . S
C85 H113 0.929 . S
C86 C85 1.386 . S
C86 C87 1.373 . S
C87 C86 1.373 . S
C87 C88 1.409 . S
C87 H114 0.931 . S
C88 C83 1.356 . S
C88 C87 1.409 . S
C88 H115 0.930 . S
C89 O102 1.270 . S
C89 O103 1.248 . S
C90 O104 1.267 . S
C90 O105 1.278 . S
C91 Pr81 2.880 . S
C91 C92 1.491 . S
C91 O106 1.254 . S
C91 O107 1.225 . S
C92 C91 1.491 . S
C92 C93 1.392 . S
C92 C97 1.356 . S
C93 C92 1.392 . S
C93 C94 1.368 . S
C93 H116 0.929 . S
C94 C93 1.368 . S
C94 C95 1.386 . S
C94 H117 0.929 . S
C95 C94 1.386 . S
C95 C96 1.373 . S
C96 C95 1.373 . S
C96 C97 1.409 . S
C96 H118 0.931 . S
C97 C92 1.356 . S
C97 C96 1.409 . S
C97 H119 0.930 . S
C98 O108 1.270 . S
C98 O109 1.248 . S
C99 O110 1.267 . S
C99 O111 1.278 . S
O100 Pr80 2.562 . S
O100 C82 1.254 . S
O101 Pr80 2.490 . S
O101 C82 1.225 . S
O102 Pr80 2.695 . S
O102 Pr81 2.436 . S
O102 C89 1.270 . S
O103 Pr80 2.512 . S
O103 C89 1.248 . S
O104 Pr81 2.438 . S
O104 C90 1.267 . S
O105 Pr80 2.437 . S
O105 C90 1.278 . S
O106 Pr81 2.562 . S
O106 C91 1.254 . S
O107 Pr81 2.490 . S
O107 C91 1.225 . S
O108 Pr80 2.436 . S
O108 Pr81 2.695 . S
O108 C98 1.270 . S
O109 Pr81 2.512 . S
O109 C98 1.248 . S
O110 Pr80 2.438 . S
O110 C99 1.267 . S
O111 Pr81 2.437 . S
O111 C99 1.278 . S
H112 C84 0.929 . S
H113 C85 0.929 . S
H114 C87 0.931 . S
H115 C88 0.930 . S
H116 C93 0.929 . S
H117 C94 0.929 . S
H118 C96 0.931 . S
H119 C97 0.930 . S
C120 C121 1.391 . S
C120 C124 1.391 . S
C120 H162 0.948 . S
C121 C120 1.391 . S
C121 C122 1.391 . S
C122 C121 1.391 . S
C122 H178 0.947 . S
C122 C179 1.392 . S
C123 C124 1.391 . S
C123 C127 1.397 . S
C123 C179 1.419 . S
C124 C120 1.391 . S
C124 C123 1.391 . S
C124 C125 1.399 . S
C125 C124 1.399 . S
C125 C128 1.396 . S
C125 C137 1.453 . S
C125 C138 1.684 . S
H126 C150 0.948 . S
C127 C123 1.397 . S
C127 C128 1.394 . S
C127 C146 1.723 . S
C128 C125 1.396 . S
C128 C127 1.394 . S
C128 C158 1.723 1_545 S
H129 C152 0.947 . S
H130 C153 0.948 . S
H131 C159 0.982 . S
H132 C160 0.979 . S
H133 C160 0.980 . S
H134 C160 0.983 . S
H135 C159 0.979 . S
H136 C159 0.977 . S
C137 C125 1.453 . S
C137 H166 0.982 . S
C137 H167 0.979 . S
C137 H168 0.977 1_545 S
C138 C125 1.684 . S
C138 H163 0.979 . S
C138 H164 0.980 . S
C138 H165 0.983 . S
C139 C140 1.391 . S
C139 C144 1.391 . S
C139 H169 0.948 . S
C140 C139 1.391 . S
C140 C141 1.391 1_545 S
C141 C140 1.391 1_565 S
C141 C142 1.392 . S
C141 H170 0.947 . S
C142 C141 1.392 . S
C142 C143 1.410 1_565 S
C142 H171 0.948 . S
C143 C142 1.410 1_545 S
C143 C144 1.402 . S
C143 C147 1.398 . S
C144 C139 1.391 . S
C144 C143 1.402 . S
C144 C145 1.399 . S
C145 C144 1.399 . S
C145 C146 1.396 . S
C145 C148 1.453 . S
C145 C149 1.684 . S
C146 C127 1.723 . S
C146 C145 1.396 . S
C146 C147 1.394 . S
C147 C143 1.398 . S
C147 C146 1.394 . S
C147 C157 1.723 1_545 S
C148 C145 1.453 . S
C148 H172 0.982 . S
C148 H173 0.979 . S
C148 H174 0.977 . S
C149 C145 1.684 . S
C149 H175 0.979 . S
C149 H176 0.980 . S
C149 H177 0.983 . S
C150 H126 0.948 . S
C150 C151 1.391 . S
C150 C155 1.391 . S
C151 C150 1.391 . S
C151 C152 1.391 . S
C152 H129 0.947 . S
C152 C151 1.391 . S
C152 C153 1.392 . S
C153 H130 0.948 . S
C153 C152 1.392 . S
C153 C154 1.419 . S
C154 C153 1.419 . S
C154 C155 1.391 . S
C154 C158 1.397 . S
C155 C150 1.391 . S
C155 C154 1.391 . S
C155 C156 1.399 . S
C156 C155 1.399 . S
C156 C157 1.396 . S
C156 C159 1.453 . S
C156 C160 1.684 . S
C157 C147 1.723 1_565 S
C157 C156 1.396 . S
C157 C158 1.394 . S
C158 C128 1.723 1_565 S
C158 C154 1.397 . S
C158 C157 1.394 . S
C159 H131 0.982 . S
C159 H135 0.979 . S
C159 H136 0.977 . S
C159 C156 1.453 . S
C160 H132 0.979 . S
C160 H133 0.980 . S
C160 H134 0.983 . S
C160 C156 1.684 . S
H161 C179 0.948 . S
H162 C120 0.948 . S
H163 C138 0.979 . S
H164 C138 0.980 . S
H165 C138 0.983 . S
H166 C137 0.982 . S
H167 C137 0.979 . S
H168 C137 0.977 1_565 S
H169 C139 0.948 . S
H170 C141 0.947 . S
H171 C142 0.948 . S
H172 C148 0.982 . S
H173 C148 0.979 . S
H174 C148 0.977 . S
H175 C149 0.979 . S
H176 C149 0.980 . S
H177 C149 0.983 . S
H178 C122 0.947 . S
C179 C122 1.392 . S
C179 C123 1.419 . S
C179 H161 0.948 . S
C180 C181 1.391 . S
C180 C184 1.391 . S
C180 H222 0.948 . S
C181 C180 1.391 . S
C181 C182 1.391 . S
C182 C181 1.391 . S
C182 H238 0.947 . S
C182 C239 1.392 . S
C183 C184 1.391 . S
C183 C187 1.397 . S
C183 C239 1.419 . S
C184 C180 1.391 . S
C184 C183 1.391 . S
C184 C185 1.399 . S
C185 C184 1.399 . S
C185 C188 1.396 . S
C185 C197 1.453 . S
C185 C198 1.684 . S
H186 C210 0.948 . S
C187 C183 1.397 . S
C187 C188 1.394 . S
C187 C206 1.723 . S
C188 C185 1.396 . S
C188 C187 1.394 . S
C188 C218 1.723 . S
H189 C212 0.947 . S
H190 C213 0.948 . S
H191 C219 0.982 . S
H192 C220 0.979 . S
H193 C220 0.980 . S
H194 C220 0.983 . S
H195 C219 0.979 . S
H196 C219 0.977 . S
C197 C185 1.453 . S
C197 H226 0.982 . S
C197 H227 0.979 . S
C197 H228 0.977 . S
C198 C185 1.684 . S
C198 H223 0.979 . S
C198 H224 0.980 . S
C198 H225 0.983 . S
C199 C200 1.391 . S
C199 C204 1.391 . S
C199 H229 0.948 . S
C200 C199 1.391 . S
C200 C201 1.391 . S
C201 C200 1.391 . S
C201 C202 1.392 . S
C201 H230 0.947 . S
C202 C201 1.392 . S
C202 C203 1.419 . S
C202 H231 0.948 . S
C203 C202 1.419 . S
C203 C204 1.391 . S
C203 C207 1.397 . S
C204 C199 1.391 . S
C204 C203 1.391 . S
C204 C205 1.399 . S
C205 C204 1.399 . S
C205 C206 1.396 . S
C205 C208 1.453 . S
C205 C209 1.684 . S
C206 C187 1.723 . S
C206 C205 1.396 . S
C206 C207 1.394 . S
C207 C203 1.397 . S
C207 C206 1.394 . S
C207 C217 1.723 . S
C208 C205 1.453 . S
C208 H232 0.982 . S
C208 H233 0.979 . S
C208 H234 0.977 . S
C209 C205 1.684 . S
C209 H235 0.979 . S
C209 H236 0.980 . S
C209 H237 0.983 . S
C210 H186 0.948 . S
C210 C211 1.391 . S
C210 C215 1.391 . S
C211 C210 1.391 . S
C211 C212 1.391 . S
C212 H189 0.947 . S
C212 C211 1.391 . S
C212 C213 1.392 . S
C213 H190 0.948 . S
C213 C212 1.392 . S
C213 C214 1.419 . S
C214 C213 1.419 . S
C214 C215 1.391 . S
C214 C218 1.397 . S
C215 C210 1.391 . S
C215 C214 1.391 . S
C215 C216 1.399 . S
C216 C215 1.399 . S
C216 C217 1.396 . S
C216 C219 1.453 . S
C216 C220 1.684 . S
C217 C207 1.723 . S
C217 C216 1.396 . S
C217 C218 1.394 . S
C218 C188 1.723 . S
C218 C214 1.397 . S
C218 C217 1.394 . S
C219 H191 0.982 . S
C219 H195 0.979 . S
C219 H196 0.977 . S
C219 C216 1.453 . S
C220 H192 0.979 . S
C220 H193 0.980 . S
C220 H194 0.983 . S
C220 C216 1.684 . S
H221 C239 0.948 . S
H222 C180 0.948 . S
H223 C198 0.979 . S
H224 C198 0.980 . S
H225 C198 0.983 . S
H226 C197 0.982 . S
H227 C197 0.979 . S
H228 C197 0.977 . S
H229 C199 0.948 . S
H230 C201 0.947 . S
H231 C202 0.948 . S
H232 C208 0.982 . S
H233 C208 0.979 . S
H234 C208 0.977 . S
H235 C209 0.979 . S
H236 C209 0.980 . S
H237 C209 0.983 . S
H238 C182 0.947 . S
C239 C182 1.392 . S
C239 C183 1.419 . S
C239 H221 0.948 . S
C240 C241 1.391 . S
C240 C244 1.391 . S
C240 H282 0.948 . S
C241 C240 1.391 . S
C241 C242 1.391 . S
C242 C241 1.391 . S
C242 H298 0.947 . S
C242 C299 1.392 . S
C243 C244 1.391 . S
C243 C247 1.397 . S
C243 C299 1.419 . S
C244 C240 1.391 . S
C244 C243 1.391 . S
C244 C245 1.399 . S
C245 C244 1.399 . S
C245 C248 1.396 . S
C245 C257 1.453 . S
C245 C258 1.684 . S
H246 C270 0.948 . S
C247 C243 1.397 . S
C247 C248 1.394 . S
C247 C266 1.723 . S
C248 C245 1.396 . S
C248 C247 1.394 . S
C248 C278 1.723 1_455 S
H249 C272 0.947 . S
H250 C273 0.948 . S
H251 C279 0.982 . S
H252 C280 0.979 . S
H253 C280 0.980 . S
H254 C280 0.983 . S
H255 C279 0.979 . S
H256 C279 0.977 . S
C257 C245 1.453 . S
C257 H286 0.982 . S
C257 H287 0.979 . S
C257 H288 0.977 . S
C258 C245 1.684 . S
C258 H283 0.979 . S
C258 H284 0.980 . S
C258 H285 0.983 . S
C259 C260 1.391 . S
C259 C264 1.391 1_554 S
C259 H289 0.948 . S
C260 C259 1.391 . S
C260 C261 1.391 1_455 S
C261 C260 1.391 1_655 S
C261 C262 1.392 1_554 S
C261 H290 0.947 . S
C262 C261 1.392 1_556 S
C262 C263 1.419 1_655 S
C262 H291 0.948 . S
C263 C262 1.419 1_455 S
C263 C264 1.391 . S
C263 C267 1.397 . S
C264 C259 1.391 1_556 S
C264 C263 1.391 . S
C264 C265 1.399 . S
C265 C264 1.399 . S
C265 C266 1.396 . S
C265 C268 1.453 . S
C265 C269 1.684 . S
C266 C247 1.723 . S
C266 C265 1.396 . S
C266 C267 1.394 . S
C267 C263 1.397 . S
C267 C266 1.394 . S
C267 C277 1.723 1_455 S
C268 C265 1.453 . S
C268 H292 0.982 . S
C268 H293 0.979 . S
C268 H294 0.977 . S
C269 C265 1.684 . S
C269 H295 0.979 . S
C269 H296 0.980 . S
C269 H297 0.983 . S
C270 H246 0.948 . S
C270 C271 1.391 . S
C270 C275 1.391 . S
C271 C270 1.391 . S
C271 C272 1.391 . S
C272 H249 0.947 . S
C272 C271 1.391 . S
C272 C273 1.392 . S
C273 H250 0.948 . S
C273 C272 1.392 . S
C273 C274 1.419 . S
C274 C273 1.419 . S
C274 C275 1.391 . S
C274 C278 1.397 . S
C275 C270 1.391 . S
C275 C274 1.391 . S
C275 C276 1.399 . S
C276 C275 1.399 . S
C276 C277 1.396 . S
C276 C279 1.453 . S
C276 C280 1.684 . S
C277 C267 1.723 1_655 S
C277 C276 1.396 . S
C277 C278 1.394 . S
C278 C248 1.723 1_655 S
C278 C274 1.397 . S
C278 C277 1.394 . S
C279 H251 0.982 . S
C279 H255 0.979 . S
C279 H256 0.977 . S
C279 C276 1.453 . S
C280 H252 0.979 . S
C280 H253 0.980 . S
C280 H254 0.983 . S
C280 C276 1.684 . S
H281 C299 0.948 . S
H282 C240 0.948 . S
H283 C258 0.979 . S
H284 C258 0.980 . S
H285 C258 0.983 . S
H286 C257 0.982 . S
H287 C257 0.979 . S
H288 C257 0.977 . S
H289 C259 0.948 . S
H290 C261 0.947 . S
H291 C262 0.948 . S
H292 C268 0.982 . S
H293 C268 0.979 . S
H294 C268 0.977 . S
H295 C269 0.979 . S
H296 C269 0.980 . S
H297 C269 0.983 . S
H298 C242 0.947 . S
C299 C242 1.392 . S
C299 C243 1.419 . S
C299 H281 0.948 . S
C300 C301 1.391 . S
C300 C304 1.391 . S
C300 H342 0.948 . S
C301 C300 1.391 . S
C301 C302 1.391 . S
C302 C301 1.391 . S
C302 H358 0.947 . S
C302 C359 1.392 . S
C303 C304 1.391 . S
C303 C307 1.397 . S
C303 C359 1.419 . S
C304 C300 1.391 . S
C304 C303 1.391 . S
C304 C305 1.399 . S
C305 C304 1.399 . S
C305 C308 1.396 . S
C305 C317 1.453 1_655 S
C305 C318 1.684 . S
H306 C330 0.948 . S
C307 C303 1.397 . S
C307 C308 1.394 . S
C307 C326 1.723 . S
C308 C305 1.396 . S
C308 C307 1.394 . S
C308 C338 1.723 1_655 S
H309 C332 0.947 . S
H310 C333 0.948 . S
H311 C339 0.982 . S
H312 C340 0.979 . S
H313 C340 0.980 . S
H314 C340 0.983 . S
H315 C339 0.979 . S
H316 C339 0.977 . S
C317 C305 1.453 1_455 S
C317 H346 0.982 . S
C317 H347 0.981 . S
C317 H348 0.977 . S
C318 C305 1.684 . S
C318 H343 0.979 . S
C318 H344 0.980 . S
C318 H345 0.983 . S
C319 C320 1.391 . S
C319 C324 1.391 . S
C319 H349 0.948 . S
C320 C319 1.391 . S
C320 C321 1.391 1_655 S
C321 C320 1.391 1_455 S
C321 C322 1.392 . S
C321 H350 0.947 . S
C322 C321 1.392 . S
C322 C323 1.419 . S
C322 H351 0.948 . S
C323 C322 1.419 . S
C323 C324 1.391 1_455 S
C323 C327 1.397 . S
C324 C319 1.391 . S
C324 C323 1.391 1_655 S
C324 C325 1.399 . S
C325 C324 1.399 . S
C325 C326 1.396 . S
C325 C328 1.453 . S
C325 C329 1.684 . S
C326 C307 1.723 . S
C326 C325 1.396 . S
C326 C327 1.394 1_655 S
C327 C323 1.397 . S
C327 C326 1.394 1_455 S
C327 C337 1.723 . S
C328 C325 1.453 . S
C328 H352 0.982 . S
C328 H353 0.979 . S
C328 H354 0.977 . S
C329 C325 1.684 . S
C329 H355 0.979 . S
C329 H356 0.980 . S
C329 H357 0.983 . S
C330 H306 0.948 . S
C330 C331 1.391 . S
C330 C335 1.391 . S
C331 C330 1.391 . S
C331 C332 1.391 . S
C332 H309 0.947 . S
C332 C331 1.391 . S
C332 C333 1.392 . S
C333 H310 0.948 . S
C333 C332 1.392 . S
C333 C334 1.419 . S
C334 C333 1.419 . S
C334 C335 1.391 . S
C334 C338 1.397 . S
C335 C330 1.391 . S
C335 C334 1.391 . S
C335 C336 1.399 . S
C336 C335 1.399 . S
C336 C337 1.396 . S
C336 C339 1.453 . S
C336 C340 1.684 . S
C337 C327 1.723 . S
C337 C336 1.396 . S
C337 C338 1.394 . S
C338 C308 1.723 1_455 S
C338 C334 1.397 . S
C338 C337 1.394 . S
C339 H311 0.982 . S
C339 H315 0.979 . S
C339 H316 0.977 . S
C339 C336 1.453 . S
C340 H312 0.979 . S
C340 H313 0.980 . S
C340 H314 0.983 . S
C340 C336 1.684 . S
H341 C359 0.948 . S
H342 C300 0.948 . S
H343 C318 0.979 . S
H344 C318 0.980 . S
H345 C318 0.983 . S
H346 C317 0.982 . S
H347 C317 0.981 . S
H348 C317 0.977 . S
H349 C319 0.948 . S
H350 C321 0.947 . S
H351 C322 0.948 . S
H352 C328 0.982 . S
H353 C328 0.979 . S
H354 C328 0.977 . S
H355 C329 0.979 . S
H356 C329 0.980 . S
H357 C329 0.983 . S
H358 C302 0.947 . S
C359 C302 1.392 . S
C359 C303 1.419 . S
C359 H341 0.948 . S
C360 C361 1.391 . S
C360 C364 1.391 . S
C360 H402 0.948 . S
C361 C360 1.391 . S
C361 C362 1.391 . S
C362 C361 1.391 . S
C362 H418 0.947 . S
C362 C419 1.392 . S
C363 C364 1.391 . S
C363 C367 1.397 . S
C363 C419 1.419 . S
C364 C360 1.391 . S
C364 C363 1.391 . S
C364 C365 1.399 . S
C365 C364 1.399 . S
C365 C368 1.396 . S
C365 C377 1.453 . S
C365 C378 1.684 . S
H366 C390 0.948 . S
C367 C363 1.397 . S
C367 C368 1.394 . S
C367 C386 1.723 . S
C368 C365 1.396 . S
C368 C367 1.394 . S
C368 C398 1.723 1_565 S
H369 C392 0.947 . S
H370 C393 0.948 . S
H371 C399 0.982 . S
H372 C400 0.979 . S
H373 C400 0.980 . S
H374 C400 0.983 . S
H375 C399 0.979 . S
H376 C399 0.977 . S
C377 C365 1.453 . S
C377 H406 0.982 . S
C377 H407 0.979 . S
C377 H408 0.977 1_565 S
C378 C365 1.684 . S
C378 H403 0.979 . S
C378 H404 0.980 1_565 S
C378 H405 0.983 . S
C379 C380 1.391 1_565 S
C379 C384 1.391 . S
C379 H409 0.948 . S
C380 C379 1.391 1_545 S
C380 C381 1.391 . S
C381 C380 1.391 . S
C381 C382 1.392 . S
C381 H410 0.947 . S
C382 C381 1.392 . S
C382 C383 1.419 . S
C382 H411 0.948 . S
C383 C382 1.419 . S
C383 C384 1.391 1_545 S
C383 C387 1.397 . S
C384 C379 1.391 . S
C384 C383 1.391 1_565 S
C384 C385 1.399 . S
C385 C384 1.399 . S
C385 C386 1.396 . S
C385 C388 1.453 . S
C385 C389 1.684 . S
C386 C367 1.723 . S
C386 C385 1.396 . S
C386 C387 1.394 1_565 S
C387 C383 1.397 . S
C387 C386 1.394 1_545 S
C387 C397 1.723 . S
C388 C385 1.453 . S
C388 H412 0.982 . S
C388 H413 0.979 . S
C388 H414 0.977 . S
C389 C385 1.684 . S
C389 H415 0.979 . S
C389 H416 0.980 . S
C389 H417 0.983 . S
C390 H366 0.948 . S
C390 C391 1.391 . S
C390 C395 1.391 . S
C391 C390 1.391 . S
C391 C392 1.391 . S
C392 H369 0.947 . S
C392 C391 1.391 . S
C392 C393 1.392 . S
C393 H370 0.948 . S
C393 C392 1.392 . S
C393 C394 1.419 . S
C394 C393 1.419 . S
C394 C395 1.391 . S
C394 C398 1.397 . S
C395 C390 1.391 . S
C395 C394 1.391 . S
C395 C396 1.399 . S
C396 C395 1.399 . S
C396 C397 1.396 . S
C396 C399 1.453 . S
C396 C400 1.684 . S
C397 C387 1.723 . S
C397 C396 1.396 . S
C397 C398 1.394 . S
C398 C368 1.723 1_545 S
C398 C394 1.397 . S
C398 C397 1.394 . S
C399 H371 0.982 . S
C399 H375 0.979 . S
C399 H376 0.977 . S
C399 C396 1.453 . S
C400 H372 0.979 . S
C400 H373 0.980 . S
C400 H374 0.983 . S
C400 C396 1.684 . S
H401 C419 0.948 . S
H402 C360 0.948 . S
H403 C378 0.979 . S
H404 C378 0.980 1_545 S
H405 C378 0.983 . S
H406 C377 0.982 . S
H407 C377 0.979 . S
H408 C377 0.977 1_545 S
H409 C379 0.948 . S
H410 C381 0.947 . S
H411 C382 0.948 . S
H412 C388 0.982 . S
H413 C388 0.979 . S
H414 C388 0.977 . S
H415 C389 0.979 . S
H416 C389 0.980 . S
H417 C389 0.983 . S
H418 C362 0.947 . S
C419 C362 1.392 . S
C419 C363 1.419 . S
C419 H401 0.948 . S
C420 C421 1.391 . S
C420 C424 1.391 . S
C420 H462 0.948 . S
C421 C420 1.391 . S
C421 C422 1.391 . S
C422 C421 1.391 . S
C422 H478 0.947 . S
C422 C479 1.392 . S
C423 C424 1.391 . S
C423 C427 1.397 . S
C423 C479 1.419 . S
C424 C420 1.391 . S
C424 C423 1.391 . S
C424 C425 1.399 . S
C425 C424 1.399 . S
C425 C428 1.396 . S
C425 C437 1.453 . S
C425 C438 1.684 . S
H426 C450 0.948 . S
C427 C423 1.397 . S
C427 C428 1.394 . S
C427 C446 1.723 . S
C428 C425 1.396 . S
C428 C427 1.394 . S
C428 C458 1.723 . S
H429 C452 0.947 . S
H430 C453 0.948 . S
H431 C459 0.982 . S
H432 C460 0.979 . S
H433 C460 0.980 . S
H434 C460 0.983 . S
H435 C459 0.979 . S
H436 C459 0.977 . S
C437 C425 1.453 . S
C437 H466 0.982 . S
C437 H467 0.979 . S
C437 H468 0.977 . S
C438 C425 1.684 . S
C438 H463 0.979 . S
C438 H464 0.980 . S
C438 H465 0.983 . S
C439 C440 1.391 . S
C439 C444 1.391 1_556 S
C439 H469 0.948 . S
C440 C439 1.391 . S
C440 C441 1.391 . S
C441 C440 1.391 . S
C441 C442 1.392 1_556 S
C441 H470 0.947 . S
C442 C441 1.392 1_554 S
C442 C443 1.419 . S
C442 H471 0.948 . S
C443 C442 1.419 . S
C443 C444 1.391 . S
C443 C447 1.397 . S
C444 C439 1.391 1_554 S
C444 C443 1.391 . S
C444 C445 1.399 . S
C445 C444 1.399 . S
C445 C446 1.396 . S
C445 C448 1.453 . S
C445 C449 1.684 . S
C446 C427 1.723 . S
C446 C445 1.396 . S
C446 C447 1.394 . S
C447 C443 1.397 . S
C447 C446 1.394 . S
C447 C457 1.723 . S
C448 C445 1.453 . S
C448 H472 0.982 . S
C448 H473 0.979 . S
C448 H474 0.977 . S
C449 C445 1.684 . S
C449 H475 0.979 . S
C449 H476 0.980 . S
C449 H477 0.983 . S
C450 H426 0.948 . S
C450 C451 1.391 . S
C450 C455 1.391 . S
C451 C450 1.391 . S
C451 C452 1.391 . S
C452 H429 0.947 . S
C452 C451 1.391 . S
C452 C453 1.392 . S
C453 H430 0.948 . S
C453 C452 1.392 . S
C453 C454 1.419 . S
C454 C453 1.419 . S
C454 C455 1.391 . S
C454 C458 1.397 . S
C455 C450 1.391 . S
C455 C454 1.391 . S
C455 C456 1.399 . S
C456 C455 1.399 . S
C456 C457 1.396 . S
C456 C459 1.453 . S
C456 C460 1.684 . S
C457 C447 1.723 . S
C457 C456 1.396 . S
C457 C458 1.394 . S
C458 C428 1.723 . S
C458 C454 1.397 . S
C458 C457 1.394 . S
C459 H431 0.982 . S
C459 H435 0.979 . S
C459 H436 0.977 . S
C459 C456 1.453 . S
C460 H432 0.979 . S
C460 H433 0.980 . S
C460 H434 0.983 . S
C460 C456 1.684 . S
H461 C479 0.948 . S
H462 C420 0.948 . S
H463 C438 0.979 . S
H464 C438 0.980 . S
H465 C438 0.983 . S
H466 C437 0.982 . S
H467 C437 0.979 . S
H468 C437 0.977 . S
H469 C439 0.948 . S
H470 C441 0.947 . S
H471 C442 0.948 . S
H472 C448 0.982 . S
H473 C448 0.979 . S
H474 C448 0.977 . S
H475 C449 0.979 . S
H476 C449 0.980 . S
H477 C449 0.983 . S
H478 C422 0.947 . S
C479 C422 1.392 . S
C479 C423 1.419 . S
C479 H461 0.948 . S
C19 C451 2.937 . S
C46 C301 2.657 . S
C95 C361 2.054 . S
C10 C421 2.960 . S
C331 C55 1.535 . S
C391 C86 3.308 . S
C59 C181 4.833 . S
C90 C271 3.528 . S
C15 C151 1.692 . S
C211 C50 5.021 . S
C241 C99 2.645 . S
C6 C121 1.795 . S
C260 C9 1.146 . S
C58 C140 1.322 . S
C98 C200 2.059 . S
C380 C49 1.730 . S
C440 C89 1.113 . S
C18 C320 1.353 1_455 S
