# Generated by pormake.
# Topology zzz, (3,6)-cn, num edge types: 1
# Building blocks:
#     Node 0, Type 0, BuildingBlock: ESEHIV_clean_linker_0, # of connection points: 3
#     Node 1, Type 0, BuildingBlock: ESEHIV_clean_linker_0, # of connection points: 3
#     Node 2, Type 0, BuildingBlock: ESEHIV_clean_linker_0, # of connection points: 3
#     Node 3, Type 0, BuildingBlock: ESEHIV_clean_linker_0, # of connection points: 3
#     Node 4, Type 0, BuildingBlock: ESEHIV_clean_linker_0, # of connection points: 3
#     Node 5, Type 0, BuildingBlock: ESEHIV_clean_linker_0, # of connection points: 3
#     Node 6, Type 0, BuildingBlock: ESEHIV_clean_linker_0, # of connection points: 3
#     Node 7, Type 0, BuildingBlock: ESEHIV_clean_linker_0, # of connection points: 3
#     Node 8, Type 1, BuildingBlock: FUNLAD_clean_sbu_0, # of connection points: 6
#     Node 9, Type 1, BuildingBlock: FUNLAD_clean_sbu_0, # of connection points: 6
#     Node 10, Type 1, BuildingBlock: FUNLAD_clean_sbu_0, # of connection points: 6
#     Node 11, Type 1, BuildingBlock: FUNLAD_clean_sbu_0, # of connection points: 6
#     Edge 12, Type (0, 1), BuildingBlock: OJICUG_clean_linker_0, # of connection points: 2
#     Edge 13, Type (0, 1), BuildingBlock: OJICUG_clean_linker_0, # of connection points: 2
#     Edge 14, Type (0, 1), BuildingBlock: OJICUG_clean_linker_0, # of connection points: 2
#     Edge 15, Type (0, 1), BuildingBlock: OJICUG_clean_linker_0, # of connection points: 2
#     Edge 16, Type (0, 1), BuildingBlock: OJICUG_clean_linker_0, # of connection points: 2
#     Edge 17, Type (0, 1), BuildingBlock: OJICUG_clean_linker_0, # of connection points: 2
#     Edge 18, Type (0, 1), BuildingBlock: OJICUG_clean_linker_0, # of connection points: 2
#     Edge 19, Type (0, 1), BuildingBlock: OJICUG_clean_linker_0, # of connection points: 2
#     Edge 20, Type (0, 1), BuildingBlock: OJICUG_clean_linker_0, # of connection points: 2
#     Edge 21, Type (0, 1), BuildingBlock: OJICUG_clean_linker_0, # of connection points: 2
#     Edge 22, Type (0, 1), BuildingBlock: OJICUG_clean_linker_0, # of connection points: 2
#     Edge 23, Type (0, 1), BuildingBlock: OJICUG_clean_linker_0, # of connection points: 2
#     Edge 24, Type (0, 1), BuildingBlock: OJICUG_clean_linker_0, # of connection points: 2
#     Edge 25, Type (0, 1), BuildingBlock: OJICUG_clean_linker_0, # of connection points: 2
#     Edge 26, Type (0, 1), BuildingBlock: OJICUG_clean_linker_0, # of connection points: 2
#     Edge 27, Type (0, 1), BuildingBlock: OJICUG_clean_linker_0, # of connection points: 2
#     Edge 28, Type (0, 1), BuildingBlock: OJICUG_clean_linker_0, # of connection points: 2
#     Edge 29, Type (0, 1), BuildingBlock: OJICUG_clean_linker_0, # of connection points: 2
#     Edge 30, Type (0, 1), BuildingBlock: OJICUG_clean_linker_0, # of connection points: 2
#     Edge 31, Type (0, 1), BuildingBlock: OJICUG_clean_linker_0, # of connection points: 2
#     Edge 32, Type (0, 1), BuildingBlock: OJICUG_clean_linker_0, # of connection points: 2
#     Edge 33, Type (0, 1), BuildingBlock: OJICUG_clean_linker_0, # of connection points: 2
#     Edge 34, Type (0, 1), BuildingBlock: OJICUG_clean_linker_0, # of connection points: 2
#     Edge 35, Type (0, 1), BuildingBlock: OJICUG_clean_linker_0, # of connection points: 2
# Relax obj value: 0.254
# Max RMSD: 0.253
# Mean RMSD: 0.197
data_MOF--net-zzz--node1-FUNLAD_clean_sbu_0--node2-ESEHIV_clean_linker_0--edge1-OJICUG_clean_linker_0
_symmetry_space_group_name_H-M    P1
_symmetry_Int_Tables_number       1
_symmetry_cell_setting            triclinic
loop_
_symmetry_equiv_pos_as_xyz
'x, y, z'
_cell_length_a     31.915373
_cell_length_b     37.971716
_cell_length_c     12.85599
_cell_angle_alpha  83.900906
_cell_angle_beta   82.995637
_cell_angle_gamma 92.400728
loop_
_atom_site_label
_atom_site_type_symbol
_atom_site_fract_x
_atom_site_fract_y
_atom_site_fract_z
_atom_type_partial_charge
H0 H 0.90986 0.42809 0.41885 0.0
H1 H 0.84448 0.4301 0.14742 0.0
H2 H 0.78489 0.46698 0.43211 0.0
C3 C 0.88124 0.43246 0.38265 0.0
C4 C 0.84737 0.44769 0.43808 0.0
C5 C 0.88091 0.42681 0.27736 0.0
C6 C 0.84411 0.43297 0.23047 0.0
C7 C 0.80846 0.44634 0.28573 0.0
C8 C 0.81084 0.45482 0.38961 0.0
H9 H 0.98917 0.84935 0.2361 0.0
H10 H 0.03931 0.76882 0.05438 0.0
H11 H 0.93597 0.74233 0.3038 0.0
C12 C 0.98905 0.82193 0.21957 0.0
C13 C 0.95928 0.79719 0.27894 0.0
C14 C 0.01824 0.81209 0.13914 0.0
C15 C 1.01739 0.77668 0.11793 0.0
C16 C 0.98753 0.75149 0.17598 0.0
C17 C 0.95853 0.76173 0.25738 0.0
H18 H 0.68679 0.0289 0.25093 0.0
H19 H 0.78828 0.02689 0.00167 0.0
H20 H 0.80649 0.99127 0.32272 0.0
C21 C 0.71977 0.02483 0.22547 0.0
C22 C 0.74494 0.01078 0.29963 0.0
C23 C 0.73484 0.03009 0.11841 0.0
C24 C 0.77674 0.02305 0.08525 0.0
C25 C 0.80317 0.0093 0.15773 0.0
C26 C 0.78708 0.00296 0.26618 0.0
H27 H 0.54226 0.60651 0.26218 0.0
H28 H 0.57157 0.71312 0.32369 0.0
H29 H 0.50212 0.69377 0.06564 0.0
C30 C 0.54018 0.63479 0.24244 0.0
C31 C 0.51891 0.64726 0.15803 0.0
C32 C 0.55899 0.65814 0.30272 0.0
C33 C 0.55734 0.695 0.27668 0.0
C34 C 0.53714 0.70822 0.18971 0.0
C35 C 0.51761 0.68398 0.13243 0.0
H36 H 0.1616 0.5657 0.1111 0.0
H37 H 0.22727 0.56301 0.38218 0.0
H38 H 0.28646 0.5266 0.09633 0.0
C39 C 0.19023 0.56119 0.14708 0.0
C40 C 0.22401 0.54599 0.09118 0.0
C41 C 0.19069 0.56663 0.25249 0.0
C42 C 0.22753 0.5603 0.29906 0.0
C43 C 0.2631 0.54696 0.24329 0.0
C44 C 0.26059 0.53871 0.13926 0.0
H45 H 0.08488 0.14349 0.30113 0.0
H46 H 0.03381 0.22413 0.48096 0.0
H47 H 0.13698 0.2508 0.23119 0.0
C48 C 0.08475 0.17096 0.31711 0.0
C49 C 0.1143 0.19579 0.25729 0.0
C50 C 0.05539 0.1808 0.39717 0.0
C51 C 0.05586 0.21628 0.41765 0.0
C52 C 0.08547 0.24157 0.35909 0.0
C53 C 0.11463 0.23133 0.27803 0.0
H54 H 0.38758 0.96484 0.28888 0.0
H55 H 0.28605 0.96712 0.53783 0.0
H56 H 0.26765 0.00173 0.2162 0.0
C57 C 0.35456 0.96885 0.31418 0.0
C58 C 0.32933 0.98262 0.23978 0.0
C59 C 0.33949 0.96379 0.42123 0.0
C60 C 0.29756 0.97077 0.45423 0.0
C61 C 0.27103 0.98414 0.38144 0.0
C62 C 0.28712 0.99029 0.27297 0.0
H63 H 0.53108 0.3856 0.26259 0.0
H64 H 0.49102 0.27999 0.2126 0.0
H65 H 0.56068 0.29641 0.4713 0.0
C66 C 0.53034 0.35727 0.28566 0.0
C67 C 0.54942 0.34407 0.3734 0.0
C68 C 0.50968 0.33456 0.22677 0.0
C69 C 0.5072 0.29774 0.25716 0.0
C70 C 0.52468 0.28422 0.34772 0.0
C71 C 0.54646 0.30733 0.40344 0.0
C72 C 0.06421 0.93825 0.88031 0.0
N73 N 0.989 0.9458 0.63958 0.0
C74 C 1.01229 0.91846 0.61082 0.0
C75 C 0.99341 0.88947 0.57395 0.0
C76 C 0.94997 0.88837 0.56548 0.0
C77 C 0.92665 0.91741 0.59211 0.0
C78 C 0.9469 0.94597 0.63043 0.0
Zn79 Zn 0.01948 0.98177 0.71556 0.0
C80 C 0.96491 0.99456 0.91719 0.0
N81 N 0.08475 0.04715 0.89766 0.0
C82 C 0.12685 0.04696 0.90665 0.0
C83 C 0.06149 0.07452 0.92639 0.0
C84 C 0.08044 0.10352 0.96298 0.0
C85 C 0.1239 0.10461 0.97121 0.0
C86 C 0.14717 0.07554 0.94468 0.0
Zn87 Zn 0.05423 0.0112 0.82178 0.0
O88 O 0.04186 0.93876 0.80514 0.0
C89 C 0.10884 -0.00155 0.62031 0.0
O90 O 0.07611 0.96735 0.91108 0.0
H91 H 0.02819 0.0744 0.9182 0.0
H92 H 0.04558 0.91858 0.61913 0.0
H93 H 0.14485 0.02508 0.88221 0.0
O94 O 0.07482 0.98319 0.60116 0.0
O95 O 0.10885 0.01218 0.70645 0.0
H96 H 0.92887 0.96782 0.6549 0.0
O97 O 0.03185 0.05423 0.73215 0.0
O98 O 0.99763 0.02561 0.62621 0.0
O99 O 0.99897 0.00978 0.93617 0.0
O100 O 0.96481 0.98082 0.83106 0.0
C101 C 1.00954 0.05472 0.6569 0.0
H102 H 1.01295 0.86827 0.55069 0.0
H103 H 0.89323 0.91778 0.58467 0.0
H104 H 0.06094 0.12475 0.9862 0.0
H105 H 0.1806 0.07517 0.95197 0.0
C106 C 0.48075 0.97264 0.64785 0.0
N107 N 0.52867 0.07548 0.66896 0.0
C108 C 0.53042 0.07839 0.56199 0.0
C109 C 0.52698 0.11123 0.50432 0.0
C110 C 0.52202 0.1417 0.55672 0.0
C111 C 0.52044 0.1379 0.66741 0.0
C112 C 0.52369 0.10443 0.72215 0.0
Zn113 Zn 0.53406 0.02589 0.74638 0.0
C114 C 0.46572 0.00262 0.91229 0.0
N115 N 0.54528 0.91826 0.87174 0.0
C116 C 0.544 0.88866 0.82076 0.0
C117 C 0.54748 0.91574 0.97755 0.0
C118 C 0.54838 0.88268 0.03619 0.0
C119 C 0.54593 0.85186 0.98601 0.0
C120 C 0.54385 0.85498 0.877 0.0
Zn121 Zn 0.54035 0.96801 0.79368 0.0
O122 O 0.49202 0.00485 0.65243 0.0
C123 C 0.60874 0.99112 0.62785 0.0
O124 O 0.49841 0.94802 0.69777 0.0
H125 H 0.54755 0.93939 0.01748 0.0
H126 H 0.53449 0.05511 0.52092 0.0
H127 H 0.54219 0.8911 0.73688 0.0
O128 O 0.58878 0.01921 0.63741 0.0
O129 O 0.59407 0.96219 0.6817 0.0
H130 H 0.52252 0.1016 0.80709 0.0
O131 O 0.58282 0.98927 0.88625 0.0
O132 O 0.57554 0.04611 0.84291 0.0
O133 O 0.48601 0.97468 0.90346 0.0
O134 O 0.48003 0.03149 0.85767 0.0
C135 C 0.59368 0.02152 0.89167 0.0
H136 H 0.52784 0.11258 0.41954 0.0
H137 H 0.51746 0.16063 0.71146 0.0
H138 H 0.54948 0.88113 0.12044 0.0
H139 H 0.54178 0.83158 0.83607 0.0
C140 C 0.57333 0.45213 0.62736 0.0
N141 N 0.45612 0.49889 0.6377 0.0
C142 C 0.4668 0.50027 0.5312 0.0
C143 C 0.43639 0.50577 0.46255 0.0
C144 C 0.39469 0.51088 0.50332 0.0
C145 C 0.38417 0.50896 0.61329 0.0
C146 C 0.41546 0.50259 0.6795 0.0
Zn147 Zn 0.50504 0.49635 0.7299 0.0
C148 C 0.50208 0.43601 0.88884 0.0
N149 N 0.61633 0.49342 0.88773 0.0
C150 C 0.65706 0.48976 0.84644 0.0
C151 C 0.60545 0.49209 0.99417 0.0
C152 C 0.63573 0.48675 0.06324 0.0
C153 C 0.67751 0.48173 0.02302 0.0
C154 C 0.68824 0.48353 0.91313 0.0
Zn155 Zn 0.56748 0.49599 0.79515 0.0
O156 O 0.53604 0.46263 0.629 0.0
C157 C 0.57034 0.55644 0.63641 0.0
O158 O 0.59711 0.46219 0.69201 0.0
H159 H 0.57285 0.49386 0.02658 0.0
H160 H 0.49935 0.49841 0.49847 0.0
H161 H 0.66518 0.49056 0.76202 0.0
O162 O 0.53373 0.54201 0.63606 0.0
O163 O 0.59542 0.54232 0.69649 0.0
H164 H 0.40751 0.50173 0.76398 0.0
O165 O 0.53635 0.5295 0.89649 0.0
O166 O 0.47545 0.53015 0.83273 0.0
O167 O 0.53881 0.45027 0.88875 0.0
O168 O 0.477 0.45023 0.82897 0.0
C169 C 0.49907 0.53997 0.898 0.0
H170 H 0.44579 0.50764 0.37817 0.0
H171 H 0.35219 0.51286 0.64746 0.0
H172 H 0.62616 0.48495 0.14754 0.0
H173 H 0.72029 0.47968 0.87938 0.0
C174 C 0.0615 0.54029 0.58277 0.0
N175 N 0.06169 0.43053 0.65211 0.0
C176 C 0.04804 0.43087 0.55576 0.0
C177 C 0.05585 0.40298 0.49536 0.0
C178 C 0.07799 0.37436 0.53424 0.0
C179 C 0.09301 0.37514 0.63237 0.0
C180 C 0.08434 0.40366 0.69058 0.0
Zn181 Zn 0.04561 0.47158 0.73625 0.0
C182 C 0.11643 0.50547 0.81943 0.0
N183 N 1.00957 0.56338 0.87779 0.0
C184 C 0.98714 0.59047 0.83974 0.0
C185 C 0.02317 0.56272 0.97428 0.0
C186 C 1.01554 0.59048 0.03525 0.0
C187 C 0.99369 0.61934 -0.00317 0.0
C188 C 0.9787 0.6189 0.89854 0.0
Zn189 Zn 0.02556 0.52235 0.79327 0.0
O190 O 0.06439 0.50693 0.59867 0.0
C191 C 0.95474 0.48847 0.70998 0.0
O192 O 0.04516 0.55702 0.65641 0.0
H193 H 0.04074 0.54087 0.00355 0.0
H194 H 0.03032 0.45257 0.52616 0.0
H195 H 0.97659 0.59038 0.76293 0.0
O196 O 0.98326 0.46644 0.69675 0.0
O197 O 0.96307 0.51697 0.74905 0.0
H198 H 0.09492 0.404 0.76728 0.0
O199 O 1.00676 0.48696 0.93082 0.0
O200 O 0.02611 0.43691 0.8731 0.0
O201 O 0.08789 0.52748 0.83278 0.0
O202 O 0.1081 0.47698 0.78034 0.0
C203 C 1.00975 0.45362 0.94675 0.0
H204 H 0.04409 0.40353 0.41966 0.0
H205 H 0.10981 0.35333 0.66556 0.0
H206 H 0.02725 0.58964 0.11106 0.0
H207 H 0.9621 0.64089 0.86569 0.0
C208 C 0.19154 0.97558 0.40063 0.0
C209 C 0.22799 0.99349 0.4244 0.0
H210 H 0.12497 0.96295 0.44415 0.0
C211 C 0.22386 0.0159 0.50494 0.0
H212 H 0.19392 0.95782 0.33982 0.0
C213 C 0.18485 0.01857 0.56514 0.0
C214 C 0.14873 -0.00108 0.54647 0.0
H215 H 0.25147 0.02999 0.52502 0.0
H216 H 0.18341 0.03506 0.62914 0.0
C217 C 0.15219 0.9783 0.46109 0.0
C218 C 0.49351 0.23685 0.48722 0.0
C219 C 0.5189 0.24642 0.3905 0.0
H220 H 0.4736 0.19625 0.61399 0.0
C221 C 0.54333 0.22092 0.34478 0.0
H222 H 0.47469 0.2563 0.52419 0.0
C223 C 0.5436 0.18664 0.39731 0.0
C224 C 0.5193 0.17725 0.49644 0.0
H225 H 0.56374 0.22801 0.27115 0.0
H226 H 0.56429 0.16805 0.36222 0.0
C227 C 0.49344 0.20261 0.53924 0.0
C228 C 0.32267 0.50827 0.28874 0.0
C229 C 0.30053 0.53924 0.29989 0.0
H230 H 0.37001 0.47497 0.34474 0.0
C231 C 0.31185 0.5616 0.37398 0.0
H232 H 0.31476 0.49028 0.23328 0.0
C233 C 0.34224 0.5522 0.43972 0.0
C234 C 0.36309 0.52071 0.43129 0.0
H235 H 0.29647 0.58619 0.38297 0.0
H236 H 0.34949 0.56963 0.49738 0.0
C237 C 0.35396 0.49927 0.35329 0.0
C238 C 0.04865 0.29636 0.39336 0.0
C239 C 0.08608 0.27821 0.38719 0.0
H240 H 1.01687 0.341 0.44482 0.0
C241 C 0.12219 0.29327 0.42139 0.0
H242 H 0.02042 0.28509 0.36771 0.0
C243 C 0.12013 0.32518 0.46665 0.0
C244 C 0.08209 0.34262 0.47685 0.0
H245 H 0.15126 0.27946 0.41815 0.0
H246 H 0.14794 0.33581 0.49573 0.0
C247 C 0.04672 0.32834 0.43726 0.0
C248 C 0.84991 0.97749 0.03342 0.0
C249 C 0.84608 -0.00024 0.11435 0.0
H250 H 0.89002 0.95836 0.90847 0.0
C251 C 0.88271 0.01745 0.13796 0.0
H252 H 0.82216 0.96358 0.0134 0.0
C253 C 0.92193 0.01463 0.07703 0.0
C254 C 0.92509 0.99416 0.99131 0.0
H255 H 0.88056 0.03511 0.19902 0.0
H256 H 0.94929 0.02982 0.09393 0.0
C257 C 0.88881 0.97473 0.97274 0.0
C258 C 0.57479 0.76885 0.14736 0.0
C259 C 0.53773 0.7469 0.15283 0.0
H260 H 0.6064 0.81963 0.08985 0.0
C261 C 0.50252 0.76118 0.11075 0.0
H262 H 0.60256 0.75873 0.17823 0.0
C263 C 0.50526 0.7954 0.05771 0.0
C264 C 0.54283 0.81655 0.04798 0.0
H265 H 0.47306 0.74549 0.1159 0.0
H266 H 0.47812 0.80524 0.02304 0.0
C267 C 0.57719 0.80352 0.0959 0.0
C268 C 0.75999 0.43132 0.15482 0.0
C269 C 0.77112 0.45388 0.22859 0.0
H270 H 0.7227 0.42299 0.03094 0.0
C271 C 0.74898 0.4849 0.23866 0.0
H272 H 0.77536 0.40669 0.14664 0.0
C273 C 0.7179 0.49376 0.17335 0.0
C274 C 0.70897 0.47212 0.09566 0.0
H275 H 0.75676 0.50305 0.29384 0.0
H276 H 0.70183 0.51809 0.18111 0.0
C277 C 0.72981 0.44057 0.08832 0.0
C278 C 0.95031 0.70042 0.11168 0.0
C279 C 0.98649 0.71497 0.14684 0.0
H280 H 0.9242 0.65847 0.0356 0.0
C281 C 0.02368 0.6965 0.14043 0.0
H282 H 0.92142 0.71449 0.11505 0.0
C283 C 0.02532 0.66472 0.09541 0.0
C284 C 0.98988 0.65094 0.05496 0.0
H285 H 0.05199 0.7074 0.16674 0.0
H286 H 0.05501 0.65183 0.08775 0.0
C287 C 0.95206 0.6687 0.06533 0.0
C288 C 0.0268 0.15189 0.57618 0.0
C289 C 0.02857 0.15273 0.46641 0.0
H290 H 1.01767 0.11967 0.72422 0.0
C291 C 1.0121 0.12309 0.42425 0.0
H292 H 0.03891 0.17427 0.61141 0.0
C293 C 1.00051 0.0914 0.48902 0.0
C294 C 1.00496 0.08925 0.59662 0.0
H295 H 1.01191 0.1234 0.33995 0.0
H296 H 0.99238 0.06792 0.45308 0.0
C297 C 1.01486 0.12041 0.64084 0.0
C298 C 0.40279 0.93527 0.48426 0.0
C299 C 0.37047 0.9592 0.4972 0.0
H300 H 0.46387 0.92054 0.52331 0.0
C301 C 0.37283 0.98422 0.56919 0.0
H302 H 0.40154 0.91578 0.42885 0.0
C303 C 0.40845 0.9874 0.6202 0.0
C304 C 0.44211 0.96534 0.6015 0.0
H305 H 0.34873 0.00324 0.57987 0.0
H306 H 0.41033 0.00807 0.67178 0.0
C307 C 0.43839 0.93809 0.53728 0.0
C308 C 0.56316 0.36193 0.54925 0.0
C309 C 0.56837 0.36917 0.43866 0.0
H310 H 0.56317 0.38327 0.6964 0.0
C311 C 0.58645 0.40263 0.39271 0.0
H312 H 0.54913 0.33681 0.58834 0.0
C313 C 0.59323 0.42962 0.4557 0.0
C314 C 0.58392 0.42299 0.5654 0.0
H315 H 0.59249 0.40886 0.30789 0.0
H316 H 0.60252 0.45622 0.41853 0.0
C317 C 0.57129 0.38858 0.61183 0.0
C318 C 0.14944 0.5904 0.40688 0.0
C319 C 0.15041 0.57076 0.31987 0.0
H320 H 0.11823 0.59673 0.56065 0.0
C321 C 0.11471 0.54895 0.3097 0.0
H322 H 0.17619 0.60784 0.41584 0.0
C323 C 0.0817 0.5429 0.39171 0.0
C324 C 0.0837 0.55869 0.48464 0.0
H325 H 0.11424 0.53325 0.24424 0.0
H326 H 0.05698 0.52284 0.38723 0.0
C327 C 0.11605 0.58446 0.48902 0.0
C328 C 0.06173 0.86971 0.11248 0.0
C329 C 0.0452 0.84014 0.07011 0.0
H330 H 0.08147 0.92489 0.08405 0.0
C331 C 0.047 0.84107 0.9603 0.0
H332 H 0.06194 0.86933 0.1968 0.0
C333 C 0.05897 0.87258 0.89586 0.0
C334 C 0.06887 0.9037 0.94034 0.0
H335 H 0.03485 0.81876 0.92485 0.0
H336 H 0.05619 0.8734 0.81246 0.0
C337 C 0.07333 0.90144 0.04793 0.0
C338 C 0.70182 0.01038 0.96902 0.0
C339 C 0.7039 0.03496 0.0424 0.0
H340 H 0.66461 0.9869 0.86518 0.0
C341 C 0.67133 0.05863 0.05643 0.0
H342 H 0.7261 0.99156 0.95739 0.0
C343 C 0.63576 0.05587 0.00329 0.0
C344 C 0.63234 0.02898 0.93773 0.0
H345 H 0.67236 0.07782 0.11282 0.0
H346 H 0.61006 0.07315 0.01825 0.0
C347 C 0.66626 0.00728 0.91778 0.0
C348 C 0.50546 0.62973 0.98162 0.0
C349 C 0.50148 0.62172 0.09192 0.0
H350 H 0.50531 0.60933 0.83301 0.0
C351 C 0.48582 0.58745 0.13663 0.0
H352 H 0.51772 0.65553 0.94363 0.0
C353 C 0.47997 0.56073 0.07223 0.0
C354 C 0.48787 0.56831 0.96252 0.0
H355 H 0.4809 0.58057 0.22132 0.0
H356 H 0.47245 0.5337 0.10806 0.0
C357 C 0.49828 0.60325 0.91768 0.0
C358 C 0.95677 0.44483 0.22009 0.0
C359 C 0.92126 0.42276 0.21023 0.0
H360 H 1.0142 0.4713 0.1421 0.0
C361 C 0.92239 0.40301 0.1234 0.0
H362 H 0.95712 0.4606 0.28542 0.0
C363 C 0.95568 0.40914 0.04105 0.0
C364 C 0.98775 0.43518 0.04506 0.0
H365 H 0.89579 0.38537 0.11469 0.0
H366 H 0.95358 0.39677 0.96954 0.0
C367 C 0.98967 0.45106 0.13787 0.0
C368 C 0.12864 0.19361 0.066 0.0
C369 C 0.14012 0.18359 0.16624 0.0
H370 H 0.11543 0.17547 0.92092 0.0
C371 C 0.16151 0.15221 0.18291 0.0
H372 H 0.11249 0.21781 0.05087 0.0
C373 C 0.16224 0.1275 0.10967 0.0
C374 C 0.14235 0.13454 0.01881 0.0
H375 H 0.17104 0.14419 0.2596 0.0
H376 H 0.17273 0.10128 0.1315 0.0
C377 C 0.1298 0.1691 0.99223 0.0
C378 C 0.37187 0.02493 0.10201 0.0
C379 C 0.35125 0.99119 0.13119 0.0
H380 H 0.4247 0.05523 0.00963 0.0
C381 C 0.3652 0.96282 0.07698 0.0
H382 H 0.36254 0.04701 0.14485 0.0
C383 C 0.40148 0.96715 0.00318 0.0
C384 C 0.42443 9e-05 0.98067 0.0
H385 H 0.35058 0.9364 0.09971 0.0
H386 H 0.41269 0.94415 0.96734 0.0
C387 C 0.408 0.02944 0.02644 0.0
C388 C 0.46484 0.37754 0.13774 0.0
C389 C 0.49403 0.35082 0.13014 0.0
H390 H 0.44357 0.42578 0.06347 0.0
C391 C 0.51771 0.34798 0.03254 0.0
H392 H 0.44679 0.38055 0.21299 0.0
C393 C 0.51634 0.37411 0.94801 0.0
C394 C 0.4906 0.40296 0.95907 0.0
H395 H 0.54099 0.32812 0.02533 0.0
H396 H 0.5385 0.37361 0.87753 0.0
C397 C 0.46299 0.40342 0.05238 0.0
C398 C 0.20345 0.49718 0.99081 0.0
C399 C 0.21565 0.53323 0.99049 0.0
H400 H 0.16185 0.45967 0.93414 0.0
C401 C 0.2035 0.55798 0.91216 0.0
H402 H 0.21184 0.47769 0.05156 0.0
C403 C 0.17414 0.54788 0.84729 0.0
C404 C 0.1573 0.51274 0.85794 0.0
H405 H 0.2121 0.58594 0.91106 0.0
H406 H 0.16161 0.56822 0.79591 0.0
C407 C 0.17445 0.48692 0.92438 0.0
C408 C 0.91226 0.84082 0.3536 0.0
C409 C 0.93358 0.8094 0.37017 0.0
H410 H 0.90116 0.89176 0.40507 0.0
C411 C 0.94517 0.79938 0.47029 0.0
H412 H 0.90269 0.84886 0.27697 0.0
C413 C 0.94414 0.8239 0.54404 0.0
C414 C 0.93158 0.85847 0.5176 0.0
H415 H 0.9613 0.77516 0.48532 0.0
H416 H 0.95855 0.81751 0.61528 0.0
C417 C 0.91164 0.86553 0.42683 0.0
C418 C 0.70945 0.03049 0.46297 0.0
C419 C 0.72304 0.00213 0.40823 0.0
H420 H 0.66231 0.04929 0.57329 0.0
C421 C 0.7021 0.9685 0.43706 0.0
H422 H 0.7243 0.05684 0.44052 0.0
C423 C 0.66604 0.96411 0.51287 0.0
C424 C 0.64998 0.99348 0.55926 0.0
H425 H 0.71114 0.94645 0.39381 0.0
H426 H 0.6491 0.93842 0.52939 0.0
C427 C 0.67323 0.02629 0.53703 0.0
C428 C 0.55321 0.64473 0.49694 0.0
C429 C 0.57605 0.64222 0.39803 0.0
H430 H 0.53395 0.61867 0.65226 0.0
C431 C 0.60571 0.61589 0.3885 0.0
H432 H 0.52967 0.66431 0.50592 0.0
C433 C 0.60843 0.58983 0.47288 0.0
C434 C 0.58144 0.58983 0.56738 0.0
H435 H 0.62328 0.61317 0.31243 0.0
H436 H 0.62799 0.56766 0.46015 0.0
C437 C 0.55557 0.61849 0.58065 0.0
C438 C 0.86761 0.43596 0.61741 0.0
C439 C 0.85561 0.46062 0.53866 0.0
H440 H 0.90936 0.42579 0.73406 0.0
C441 C 0.86792 0.49667 0.53793 0.0
H442 H 0.85893 0.408 0.61883 0.0
C443 C 0.89687 0.50698 0.60441 0.0
C444 C 0.91389 0.48121 0.67133 0.0
H445 H 0.85966 0.5161 0.47684 0.0
H446 H 0.90957 0.53421 0.59436 0.0
C447 C 0.89693 0.4461 0.68234 0.0
loop_
_geom_bond_atom_site_label_1
_geom_bond_atom_site_label_2
_geom_bond_distance
_geom_bond_site_symmetry_2
_ccdc_geom_bond_type
H0 C3 0.931 . S
H1 C6 0.928 . S
H2 C8 0.930 . S
C3 H0 0.931 . S
C3 C4 1.413 . S
C3 C5 1.360 . S
C4 C3 1.413 . S
C4 C8 1.429 . S
C5 C3 1.360 . S
C5 C6 1.372 . S
C6 H1 0.928 . S
C6 C5 1.372 . S
C6 C7 1.404 . S
C7 C6 1.404 . S
C7 C8 1.391 . S
C8 H2 0.930 . S
C8 C4 1.429 . S
C8 C7 1.391 . S
H9 C12 0.931 . S
H10 C15 0.928 . S
H11 C17 0.930 . S
C12 H9 0.931 . S
C12 C13 1.413 . S
C12 C14 1.360 1_554 S
C13 C12 1.413 . S
C13 C17 1.429 . S
C14 C12 1.360 1_556 S
C14 C15 1.372 . S
C15 H10 0.928 . S
C15 C14 1.372 . S
C15 C16 1.404 . S
C16 C15 1.404 . S
C16 C17 1.391 1_556 S
C17 H11 0.930 . S
C17 C13 1.429 . S
C17 C16 1.391 1_554 S
H18 C21 0.931 . S
H19 C24 0.928 1_556 S
H20 C26 0.929 . S
C21 H18 0.931 . S
C21 C22 1.413 . S
C21 C23 1.360 . S
C22 C21 1.413 . S
C22 C26 1.430 1_565 S
C23 C21 1.360 . S
C23 C24 1.374 . S
C24 H19 0.928 1_554 S
C24 C23 1.374 . S
C24 C25 1.405 . S
C25 C24 1.405 . S
C25 C26 1.389 1_565 S
C26 H20 0.929 . S
C26 C22 1.430 1_545 S
C26 C25 1.389 1_545 S
H27 C30 0.931 . S
H28 C33 0.928 . S
H29 C35 0.930 1_556 S
C30 H27 0.931 . S
C30 C31 1.413 . S
C30 C32 1.360 . S
C31 C30 1.413 . S
C31 C35 1.429 . S
C32 C30 1.360 . S
C32 C33 1.372 . S
C33 H28 0.928 . S
C33 C32 1.372 . S
C33 C34 1.404 . S
C34 C33 1.404 . S
C34 C35 1.391 . S
C35 H29 0.930 1_554 S
C35 C31 1.429 . S
C35 C34 1.391 . S
H36 C39 0.931 . S
H37 C42 0.928 . S
H38 C44 0.930 . S
C39 H36 0.931 . S
C39 C40 1.413 . S
C39 C41 1.360 . S
C40 C39 1.413 . S
C40 C44 1.429 . S
C41 C39 1.360 . S
C41 C42 1.372 . S
C42 H37 0.928 . S
C42 C41 1.372 . S
C42 C43 1.404 . S
C43 C42 1.404 . S
C43 C44 1.391 . S
C44 H38 0.930 . S
C44 C40 1.429 . S
C44 C43 1.391 . S
H45 C48 0.931 . S
H46 C51 0.928 . S
H47 C53 0.930 . S
C48 H45 0.931 . S
C48 C49 1.413 . S
C48 C50 1.360 . S
C49 C48 1.413 . S
C49 C53 1.429 . S
C50 C48 1.360 . S
C50 C51 1.372 . S
C51 H46 0.928 . S
C51 C50 1.372 . S
C51 C52 1.404 . S
C52 C51 1.404 . S
C52 C53 1.391 . S
C53 H47 0.930 . S
C53 C49 1.429 . S
C53 C52 1.391 . S
H54 C57 0.930 . S
H55 C60 0.928 . S
H56 C62 0.930 . S
C57 H54 0.930 . S
C57 C58 1.414 . S
C57 C59 1.360 . S
C58 C57 1.414 . S
C58 C62 1.428 1_565 S
C59 C57 1.360 . S
C59 C60 1.371 . S
C60 H55 0.928 . S
C60 C59 1.371 . S
C60 C61 1.404 . S
C61 C60 1.404 . S
C61 C62 1.392 1_565 S
C62 H56 0.930 . S
C62 C58 1.428 1_545 S
C62 C61 1.392 1_545 S
H63 C66 0.931 . S
H64 C69 0.928 . S
H65 C71 0.930 . S
C66 H63 0.931 . S
C66 C67 1.413 . S
C66 C68 1.360 . S
C67 C66 1.413 . S
C67 C71 1.429 . S
C68 C66 1.360 . S
C68 C69 1.372 . S
C69 H64 0.928 . S
C69 C68 1.372 . S
C69 C70 1.404 . S
C70 C69 1.404 . S
C70 C71 1.391 . S
C71 H65 0.930 . S
C71 C67 1.429 . S
C71 C70 1.391 . S
C72 O88 1.251 1_455 S
C72 O90 1.254 . S
N73 C74 1.333 . S
N73 C78 1.307 . S
N73 Zn79 2.020 1_655 S
C74 N73 1.333 . S
C74 C75 1.379 . S
C74 H92 0.961 . S
C75 C74 1.379 . S
C75 C76 1.390 . S
C75 H102 0.949 . S
C76 C75 1.390 . S
C76 C77 1.357 . S
C77 C76 1.357 . S
C77 C78 1.370 . S
C77 H103 0.950 . S
C78 N73 1.307 . S
C78 C77 1.370 . S
C78 H96 0.948 1_565 S
Zn79 N73 2.020 1_455 S
Zn79 O88 2.039 1_455 S
Zn79 O94 2.034 . S
Zn79 O98 2.025 1_565 S
Zn79 O100 2.024 1_465 S
C80 O99 1.246 . S
C80 O100 1.249 . S
N81 C82 1.307 . S
N81 C83 1.333 . S
N81 Zn87 2.020 1_554 S
C82 N81 1.307 . S
C82 C86 1.370 . S
C82 H93 0.948 1_545 S
C83 N81 1.333 . S
C83 C84 1.379 . S
C83 H91 0.952 1_554 S
C84 C83 1.379 . S
C84 C85 1.390 . S
C84 H104 0.949 . S
C85 C84 1.390 . S
C85 C86 1.357 . S
C86 C82 1.370 . S
C86 C85 1.357 . S
C86 H105 0.950 . S
Zn87 N81 2.020 1_556 S
Zn87 O90 2.025 1_545 S
Zn87 O95 2.024 1_545 S
Zn87 O97 2.039 . S
Zn87 O99 2.034 1_455 S
O88 C72 1.251 1_655 S
O88 Zn79 2.039 1_655 S
C89 O94 1.246 . S
C89 O95 1.249 . S
O90 C72 1.254 . S
O90 Zn87 2.025 1_565 S
H91 C83 0.952 1_556 S
H92 C74 0.961 . S
H93 C82 0.948 1_565 S
O94 Zn79 2.034 . S
O94 C89 1.246 . S
O95 Zn87 2.024 1_565 S
O95 C89 1.249 . S
H96 C78 0.948 1_545 S
O97 Zn87 2.039 . S
O97 C101 1.251 . S
O98 Zn79 2.025 1_545 S
O98 C101 1.254 . S
O99 C80 1.246 . S
O99 Zn87 2.034 1_655 S
O100 Zn79 2.024 1_645 S
O100 C80 1.249 . S
C101 O97 1.251 . S
C101 O98 1.254 . S
H102 C75 0.949 . S
H103 C77 0.950 . S
H104 C84 0.949 . S
H105 C86 0.950 . S
C106 O122 1.251 1_565 S
C106 O124 1.254 . S
N107 C108 1.333 . S
N107 C112 1.307 . S
N107 Zn113 2.020 . S
C108 N107 1.333 . S
C108 C109 1.379 . S
C108 H126 0.952 . S
C109 C108 1.379 . S
C109 C110 1.390 . S
C109 H136 0.949 . S
C110 C109 1.390 . S
C110 C111 1.357 . S
C111 C110 1.357 . S
C111 C112 1.370 . S
C111 H137 0.950 . S
C112 N107 1.307 . S
C112 C111 1.370 . S
C112 H130 0.948 . S
Zn113 N107 2.020 . S
Zn113 O122 2.039 . S
Zn113 O128 2.034 . S
Zn113 O132 2.025 . S
Zn113 O134 2.024 . S
C114 O133 1.246 1_545 S
C114 O134 1.249 . S
N115 C116 1.307 . S
N115 C117 1.333 . S
N115 Zn121 2.020 . S
C116 N115 1.307 . S
C116 C120 1.370 . S
C116 H127 0.948 . S
C117 N115 1.333 . S
C117 C118 1.379 . S
C117 H125 0.952 . S
C118 C117 1.379 . S
C118 C119 1.390 . S
C118 H138 0.949 1_556 S
C119 C118 1.390 . S
C119 C120 1.357 . S
C120 C116 1.370 . S
C120 C119 1.357 . S
C120 H139 0.950 . S
Zn121 N115 2.020 . S
Zn121 O124 2.025 . S
Zn121 O129 2.024 . S
Zn121 O131 2.039 . S
Zn121 O133 2.034 . S
O122 C106 1.251 1_545 S
O122 Zn113 2.039 . S
C123 O128 1.246 1_565 S
C123 O129 1.249 . S
O124 C106 1.254 . S
O124 Zn121 2.025 . S
H125 C117 0.952 . S
H126 C108 0.952 . S
H127 C116 0.948 . S
O128 Zn113 2.034 . S
O128 C123 1.246 1_545 S
O129 Zn121 2.024 . S
O129 C123 1.249 . S
H130 C112 0.948 . S
O131 Zn121 2.039 . S
O131 C135 1.251 1_565 S
O132 Zn113 2.025 . S
O132 C135 1.254 . S
O133 C114 1.246 1_565 S
O133 Zn121 2.034 . S
O134 Zn113 2.024 . S
O134 C114 1.249 . S
C135 O131 1.251 1_545 S
C135 O132 1.254 . S
H136 C109 0.949 . S
H137 C111 0.950 . S
H138 C118 0.949 1_554 S
H139 C120 0.950 . S
C140 O156 1.251 . S
C140 O158 1.254 . S
N141 C142 1.333 . S
N141 C146 1.307 . S
N141 Zn147 2.020 . S
C142 N141 1.333 . S
C142 C143 1.379 . S
C142 H160 0.952 . S
C143 C142 1.379 . S
C143 C144 1.390 . S
C143 H170 0.949 . S
C144 C143 1.390 . S
C144 C145 1.357 . S
C145 C144 1.357 . S
C145 C146 1.370 . S
C145 H171 0.950 . S
C146 N141 1.307 . S
C146 C145 1.370 . S
C146 H164 0.948 . S
Zn147 N141 2.020 . S
Zn147 O156 2.039 . S
Zn147 O162 2.034 . S
Zn147 O166 2.025 . S
Zn147 O168 2.024 . S
C148 O167 1.246 . S
C148 O168 1.249 . S
N149 C150 1.307 . S
N149 C151 1.333 . S
N149 Zn155 2.020 . S
C150 N149 1.307 . S
C150 C154 1.370 . S
C150 H161 0.948 . S
C151 N149 1.333 . S
C151 C152 1.379 . S
C151 H159 0.952 . S
C152 C151 1.379 . S
C152 C153 1.390 . S
C152 H172 0.949 1_556 S
C153 C152 1.390 . S
C153 C154 1.357 . S
C154 C150 1.370 . S
C154 C153 1.357 . S
C154 H173 0.950 . S
Zn155 N149 2.020 . S
Zn155 O158 2.025 . S
Zn155 O163 2.024 . S
Zn155 O165 2.039 . S
Zn155 O167 2.034 . S
O156 C140 1.251 . S
O156 Zn147 2.039 . S
C157 O162 1.246 . S
C157 O163 1.249 . S
O158 C140 1.254 . S
O158 Zn155 2.025 . S
H159 C151 0.952 . S
H160 C142 0.952 . S
H161 C150 0.948 . S
O162 Zn147 2.034 . S
O162 C157 1.246 . S
O163 Zn155 2.024 . S
O163 C157 1.249 . S
H164 C146 0.948 . S
O165 Zn155 2.039 . S
O165 C169 1.251 . S
O166 Zn147 2.025 . S
O166 C169 1.254 . S
O167 C148 1.246 . S
O167 Zn155 2.034 . S
O168 Zn147 2.024 . S
O168 C148 1.249 . S
C169 O165 1.251 . S
C169 O166 1.254 . S
H170 C143 0.949 . S
H171 C145 0.950 . S
H172 C152 0.949 1_554 S
H173 C154 0.950 . S
C174 O190 1.251 . S
C174 O192 1.254 . S
N175 C176 1.333 . S
N175 C180 1.307 . S
N175 Zn181 2.020 . S
C176 N175 1.333 . S
C176 C177 1.379 . S
C176 H194 0.952 . S
C177 C176 1.379 . S
C177 C178 1.390 . S
C177 H204 0.949 . S
C178 C177 1.390 . S
C178 C179 1.357 . S
C179 C178 1.357 . S
C179 C180 1.370 . S
C179 H205 0.950 . S
C180 N175 1.307 . S
C180 C179 1.370 . S
C180 H198 0.948 . S
Zn181 N175 2.020 . S
Zn181 O190 2.039 . S
Zn181 O196 2.034 1_455 S
Zn181 O200 2.025 1_455 S
Zn181 O202 2.024 . S
C182 O201 1.246 . S
C182 O202 1.249 . S
N183 C184 1.307 . S
N183 C185 1.333 . S
N183 Zn189 2.020 1_655 S
C184 N183 1.307 . S
C184 C188 1.370 . S
C184 H195 0.948 1_655 S
C185 N183 1.333 . S
C185 C186 1.379 . S
C185 H193 0.952 . S
C186 C185 1.379 . S
C186 C187 1.390 . S
C186 H206 0.949 . S
C187 C186 1.390 . S
C187 C188 1.357 . S
C188 C184 1.370 . S
C188 C187 1.357 . S
C188 H207 0.950 . S
Zn189 N183 2.020 1_455 S
Zn189 O192 2.025 . S
Zn189 O197 2.024 1_455 S
Zn189 O199 2.039 1_455 S
Zn189 O201 2.034 . S
O190 C174 1.251 . S
O190 Zn181 2.039 . S
C191 O196 1.246 . S
C191 O197 1.249 . S
O192 C174 1.254 . S
O192 Zn189 2.025 . S
H193 C185 0.952 . S
H194 C176 0.952 . S
H195 C184 0.948 1_455 S
O196 Zn181 2.034 1_655 S
O196 C191 1.246 . S
O197 Zn189 2.024 1_655 S
O197 C191 1.249 . S
H198 C180 0.948 . S
O199 Zn189 2.039 1_655 S
O199 C203 1.251 . S
O200 Zn181 2.025 1_655 S
O200 C203 1.254 . S
O201 C182 1.246 . S
O201 Zn189 2.034 . S
O202 Zn181 2.024 . S
O202 C182 1.249 . S
C203 O199 1.251 . S
C203 O200 1.254 . S
H204 C177 0.949 . S
H205 C179 0.950 . S
H206 C186 0.949 . S
H207 C188 0.950 . S
C208 C209 1.387 . S
C208 H212 0.950 . S
C208 C217 1.390 . S
C209 C208 1.387 . S
C209 C211 1.387 1_565 S
H210 C217 0.950 . S
C211 C209 1.387 1_545 S
C211 C213 1.390 . S
C211 H215 0.950 . S
H212 C208 0.950 . S
C213 C211 1.390 . S
C213 C214 1.387 1_545 S
C213 H216 0.950 . S
C214 C213 1.387 1_565 S
C214 C217 1.387 . S
H215 C211 0.950 . S
H216 C213 0.950 . S
C217 C208 1.390 . S
C217 H210 0.950 . S
C217 C214 1.387 . S
C218 C219 1.387 . S
C218 H222 0.950 . S
C218 C227 1.390 . S
C219 C218 1.387 . S
C219 C221 1.387 . S
H220 C227 0.950 . S
C221 C219 1.387 . S
C221 C223 1.390 . S
C221 H225 0.950 . S
H222 C218 0.950 . S
C223 C221 1.390 . S
C223 C224 1.387 . S
C223 H226 0.950 . S
C224 C223 1.387 . S
C224 C227 1.387 . S
H225 C221 0.950 . S
H226 C223 0.950 . S
C227 C218 1.390 . S
C227 H220 0.950 . S
C227 C224 1.387 . S
C228 C229 1.387 . S
C228 H232 0.950 . S
C228 C237 1.390 . S
C229 C228 1.387 . S
C229 C231 1.387 . S
H230 C237 0.950 . S
C231 C229 1.387 . S
C231 C233 1.390 . S
C231 H235 0.950 . S
H232 C228 0.950 . S
C233 C231 1.390 . S
C233 C234 1.387 . S
C233 H236 0.950 . S
C234 C233 1.387 . S
C234 C237 1.387 . S
H235 C231 0.950 . S
H236 C233 0.950 . S
C237 C228 1.390 . S
C237 H230 0.950 . S
C237 C234 1.387 . S
C238 C239 1.387 . S
C238 H242 0.950 . S
C238 C247 1.390 . S
C239 C238 1.387 . S
C239 C241 1.387 . S
H240 C247 0.950 . S
C241 C239 1.387 . S
C241 C243 1.390 . S
C241 H245 0.950 . S
H242 C238 0.950 . S
C243 C241 1.390 . S
C243 C244 1.387 . S
C243 H246 0.950 . S
C244 C243 1.387 . S
C244 C247 1.387 . S
H245 C241 0.950 . S
H246 C243 0.950 . S
C247 C238 1.390 . S
C247 H240 0.950 . S
C247 C244 1.387 . S
C248 C249 1.387 1_565 S
C248 H252 0.950 . S
C248 C257 1.390 1_554 S
C249 C248 1.387 1_545 S
C249 C251 1.387 . S
H250 C257 0.950 . S
C251 C249 1.387 . S
C251 C253 1.390 1_554 S
C251 H255 0.950 . S
H252 C248 0.950 . S
C253 C251 1.390 1_556 S
C253 C254 1.387 . S
C253 H256 0.950 . S
C254 C253 1.387 . S
C254 C257 1.387 1_545 S
H255 C251 0.950 . S
H256 C253 0.950 . S
C257 C248 1.390 1_556 S
C257 H250 0.950 . S
C257 C254 1.387 1_565 S
C258 C259 1.387 . S
C258 H262 0.950 . S
C258 C267 1.390 . S
C259 C258 1.387 . S
C259 C261 1.387 1_554 S
H260 C267 0.950 . S
C261 C259 1.387 1_556 S
C261 C263 1.390 . S
C261 H265 0.950 . S
H262 C258 0.950 . S
C263 C261 1.390 . S
C263 C264 1.387 . S
C263 H266 0.950 . S
C264 C263 1.387 . S
C264 C267 1.387 1_556 S
H265 C261 0.950 . S
H266 C263 0.950 . S
C267 C258 1.390 . S
C267 H260 0.950 . S
C267 C264 1.387 1_554 S
C268 C269 1.387 . S
C268 H272 0.950 . S
C268 C277 1.390 1_554 S
C269 C268 1.387 . S
C269 C271 1.387 . S
H270 C277 0.950 . S
C271 C269 1.387 . S
C271 C273 1.390 . S
C271 H275 0.950 . S
H272 C268 0.950 . S
C273 C271 1.390 . S
C273 C274 1.387 1_554 S
C273 H276 0.950 1_554 S
C274 C273 1.387 1_556 S
C274 C277 1.387 . S
H275 C271 0.950 . S
H276 C273 0.950 1_556 S
C277 C268 1.390 1_556 S
C277 H270 0.950 . S
C277 C274 1.387 . S
C278 C279 1.387 1_554 S
C278 H282 0.950 . S
C278 C287 1.390 1_554 S
C279 C278 1.387 1_556 S
C279 C281 1.387 . S
H280 C287 0.950 1_554 S
C281 C279 1.387 . S
C281 C283 1.390 . S
C281 H285 0.950 . S
H282 C278 0.950 . S
C283 C281 1.390 . S
C283 C284 1.387 . S
C283 H286 0.950 . S
C284 C283 1.387 . S
C284 C287 1.387 . S
H285 C281 0.950 . S
H286 C283 0.950 . S
C287 C278 1.390 1_556 S
C287 H280 0.950 1_556 S
C287 C284 1.387 . S
C288 C289 1.387 . S
C288 H292 0.950 . S
C288 C297 1.390 . S
C289 C288 1.387 . S
C289 C291 1.387 . S
H290 C297 0.950 . S
C291 C289 1.387 . S
C291 C293 1.390 . S
C291 H295 0.950 . S
H292 C288 0.950 . S
C293 C291 1.390 . S
C293 C294 1.387 . S
C293 H296 0.950 . S
C294 C293 1.387 . S
C294 C297 1.387 . S
H295 C291 0.950 . S
H296 C293 0.950 . S
C297 C288 1.390 . S
C297 H290 0.950 . S
C297 C294 1.387 . S
C298 C299 1.387 . S
C298 H302 0.950 . S
C298 C307 1.390 . S
C299 C298 1.387 . S
C299 C301 1.387 1_565 S
H300 C307 0.950 . S
C301 C299 1.387 1_545 S
C301 C303 1.390 . S
C301 H305 0.950 . S
H302 C298 0.950 . S
C303 C301 1.390 . S
C303 C304 1.387 1_545 S
C303 H306 0.950 . S
C304 C303 1.387 1_565 S
C304 C307 1.387 . S
H305 C301 0.950 . S
H306 C303 0.950 . S
C307 C298 1.390 . S
C307 H300 0.950 . S
C307 C304 1.387 . S
C308 C309 1.387 . S
C308 H312 0.950 . S
C308 C317 1.390 . S
C309 C308 1.387 . S
C309 C311 1.387 . S
H310 C317 0.950 . S
C311 C309 1.387 . S
C311 C313 1.390 . S
C311 H315 0.950 . S
H312 C308 0.950 . S
C313 C311 1.390 . S
C313 C314 1.387 . S
C313 H316 0.950 . S
C314 C313 1.387 . S
C314 C317 1.387 . S
H315 C311 0.950 . S
H316 C313 0.950 . S
C317 C308 1.390 . S
C317 H310 0.950 . S
C317 C314 1.387 . S
C318 C319 1.387 . S
C318 H322 0.950 . S
C318 C327 1.390 . S
C319 C318 1.387 . S
C319 C321 1.387 . S
H320 C327 0.950 . S
C321 C319 1.387 . S
C321 C323 1.390 . S
C321 H325 0.950 . S
H322 C318 0.950 . S
C323 C321 1.390 . S
C323 C324 1.387 . S
C323 H326 0.950 . S
C324 C323 1.387 . S
C324 C327 1.387 . S
H325 C321 0.950 . S
H326 C323 0.950 . S
C327 C318 1.390 . S
C327 H320 0.950 . S
C327 C324 1.387 . S
C328 C329 1.387 . S
C328 H332 0.950 1_556 S
C328 C337 1.390 . S
C329 C328 1.387 . S
C329 C331 1.387 . S
H330 C337 0.950 1_554 S
C331 C329 1.387 . S
C331 C333 1.390 . S
C331 H335 0.950 . S
H332 C328 0.950 1_554 S
C333 C331 1.390 . S
C333 C334 1.387 . S
C333 H336 0.950 . S
C334 C333 1.387 . S
C334 C337 1.387 . S
H335 C331 0.950 . S
H336 C333 0.950 . S
C337 C328 1.390 . S
C337 H330 0.950 1_556 S
C337 C334 1.387 . S
C338 C339 1.387 1_566 S
C338 H342 0.950 . S
C338 C347 1.390 . S
C339 C338 1.387 1_544 S
C339 C341 1.387 1_554 S
H340 C347 0.950 . S
C341 C339 1.387 1_556 S
C341 C343 1.390 . S
C341 H345 0.950 1_556 S
H342 C338 0.950 . S
C343 C341 1.390 . S
C343 C344 1.387 . S
C343 H346 0.950 . S
C344 C343 1.387 . S
C344 C347 1.387 1_545 S
H345 C341 0.950 1_554 S
H346 C343 0.950 . S
C347 C338 1.390 . S
C347 H340 0.950 . S
C347 C344 1.387 1_565 S
C348 C349 1.387 1_556 S
C348 H352 0.950 . S
C348 C357 1.390 . S
C349 C348 1.387 1_554 S
C349 C351 1.387 . S
H350 C357 0.950 . S
C351 C349 1.387 . S
C351 C353 1.390 . S
C351 H355 0.950 . S
H352 C348 0.950 . S
C353 C351 1.390 . S
C353 C354 1.387 1_554 S
C353 H356 0.950 . S
C354 C353 1.387 1_556 S
C354 C357 1.387 . S
H355 C351 0.950 . S
H356 C353 0.950 . S
C357 C348 1.390 . S
C357 H350 0.950 . S
C357 C354 1.387 . S
C358 C359 1.387 . S
C358 H362 0.950 . S
C358 C367 1.390 . S
C359 C358 1.387 . S
C359 C361 1.387 . S
H360 C367 0.950 . S
C361 C359 1.387 . S
C361 C363 1.390 1_554 S
C361 H365 0.950 . S
H362 C358 0.950 . S
C363 C361 1.390 1_556 S
C363 C364 1.387 . S
C363 H366 0.950 . S
C364 C363 1.387 . S
C364 C367 1.387 1_556 S
H365 C361 0.950 . S
H366 C363 0.950 . S
C367 C358 1.390 . S
C367 H360 0.950 . S
C367 C364 1.387 1_554 S
C368 C369 1.387 . S
C368 H372 0.950 . S
C368 C377 1.390 . S
C369 C368 1.387 . S
C369 C371 1.387 . S
H370 C377 0.950 . S
C371 C369 1.387 . S
C371 C373 1.390 . S
C371 H375 0.950 . S
H372 C368 0.950 . S
C373 C371 1.390 . S
C373 C374 1.387 . S
C373 H376 0.950 . S
C374 C373 1.387 . S
C374 C377 1.387 . S
H375 C371 0.950 . S
H376 C373 0.950 . S
C377 C368 1.390 . S
C377 H370 0.950 . S
C377 C374 1.387 . S
C378 C379 1.410 . S
C378 H382 0.950 . S
C378 C387 1.390 . S
C379 C378 1.410 . S
C379 C381 1.363 1_545 S
H380 C387 0.950 . S
C381 C379 1.363 1_565 S
C381 C383 1.390 . S
C381 H385 0.950 . S
H382 C378 0.950 . S
C383 C381 1.390 . S
C383 C384 1.387 1_565 S
C383 H386 0.950 . S
C384 C383 1.387 1_545 S
C384 C387 1.387 . S
H385 C381 0.950 . S
H386 C383 0.950 . S
C387 C378 1.390 . S
C387 H380 0.950 . S
C387 C384 1.387 . S
C388 C389 1.387 . S
C388 H392 0.950 . S
C388 C397 1.390 . S
C389 C388 1.387 . S
C389 C391 1.387 . S
H390 C397 0.950 1_556 S
C391 C389 1.387 . S
C391 C393 1.390 . S
C391 H395 0.950 . S
H392 C388 0.950 . S
C393 C391 1.390 . S
C393 C394 1.387 . S
C393 H396 0.950 . S
C394 C393 1.387 . S
C394 C397 1.387 . S
H395 C391 0.950 . S
H396 C393 0.950 . S
C397 C388 1.390 . S
C397 H390 0.950 1_554 S
C397 C394 1.387 . S
C398 C399 1.387 . S
C398 H402 0.950 . S
C398 C407 1.390 . S
C399 C398 1.387 . S
C399 C401 1.387 . S
H400 C407 0.950 . S
C401 C399 1.387 . S
C401 C403 1.390 1_554 S
C401 H405 0.950 . S
H402 C398 0.950 . S
C403 C401 1.390 1_556 S
C403 C404 1.387 . S
C403 H406 0.950 . S
C404 C403 1.387 . S
C404 C407 1.387 1_556 S
H405 C401 0.950 . S
H406 C403 0.950 . S
C407 C398 1.390 . S
C407 H400 0.950 . S
C407 C404 1.387 1_554 S
C408 C409 1.387 . S
C408 H412 0.950 . S
C408 C417 1.390 . S
C409 C408 1.387 . S
C409 C411 1.387 . S
H410 C417 0.950 . S
C411 C409 1.387 . S
C411 C413 1.390 . S
C411 H415 0.950 . S
H412 C408 0.950 . S
C413 C411 1.390 . S
C413 C414 1.387 . S
C413 H416 0.950 . S
C414 C413 1.387 . S
C414 C417 1.387 . S
H415 C411 0.950 . S
H416 C413 0.950 . S
C417 C408 1.390 . S
C417 H410 0.950 . S
C417 C414 1.387 . S
C418 C419 1.369 1_545 S
C418 H422 0.950 . S
C418 C427 1.390 . S
C419 C418 1.369 1_565 S
C419 C421 1.404 . S
H420 C427 0.950 . S
C421 C419 1.404 . S
C421 C423 1.390 . S
C421 H425 0.950 . S
H422 C418 0.950 . S
C423 C421 1.390 . S
C423 C424 1.387 . S
C423 H426 0.950 . S
C424 C423 1.387 . S
C424 C427 1.387 1_565 S
H425 C421 0.950 . S
H426 C423 0.950 . S
C427 C418 1.390 . S
C427 H420 0.950 . S
C427 C424 1.387 1_545 S
C428 C429 1.387 . S
C428 H432 0.950 . S
C428 C437 1.390 . S
C429 C428 1.387 . S
C429 C431 1.387 . S
H430 C437 0.950 . S
C431 C429 1.387 . S
C431 C433 1.390 . S
C431 H435 0.950 . S
H432 C428 0.950 . S
C433 C431 1.390 . S
C433 C434 1.387 . S
C433 H436 0.950 . S
C434 C433 1.387 . S
C434 C437 1.387 . S
H435 C431 0.950 . S
H436 C433 0.950 . S
C437 C428 1.390 . S
C437 H430 0.950 . S
C437 C434 1.387 . S
C438 C439 1.387 . S
C438 H442 0.950 . S
C438 C447 1.390 . S
C439 C438 1.387 . S
C439 C441 1.387 . S
H440 C447 0.950 . S
C441 C439 1.387 . S
C441 C443 1.390 . S
C441 H445 0.950 . S
H442 C438 0.950 . S
C443 C441 1.390 . S
C443 C444 1.387 . S
C443 H446 0.950 . S
C444 C443 1.387 . S
C444 C447 1.387 . S
H445 C441 0.950 . S
H446 C443 0.950 . S
C447 C438 1.390 . S
C447 H440 0.950 . S
C447 C444 1.387 . S
C209 C61 1.849 . S
C214 C89 1.868 . S
C224 C110 1.570 . S
C219 C70 1.546 . S
C234 C144 1.504 . S
C229 C43 1.475 . S
C244 C178 1.571 . S
C239 C52 1.551 . S
C254 C80 1.867 . S
C249 C25 1.851 1_545 S
C259 C34 1.544 . S
C264 C119 1.573 . S
C269 C7 1.473 . S
C274 C153 1.505 . S
C279 C16 1.554 . S
C284 C187 1.571 . S
C294 C101 0.870 . S
C289 C50 0.811 . S
C304 C106 1.059 . S
C299 C59 1.055 . S
C314 C140 1.021 . S
C309 C67 1.014 . S
C319 C41 0.613 . S
C324 C174 0.608 . S
C329 C14 0.820 . S
C334 C72 0.874 1_655 S
C344 C135 1.060 . S
C339 C23 1.056 1_545 S
C354 C169 1.018 . S
C349 C31 1.008 . S
C359 C5 0.616 . S
C364 C203 0.608 . S
C369 C49 1.390 . S
C374 C85 1.449 . S
C379 C58 1.761 1_545 S
C384 C114 1.825 1_554 S
C394 C148 1.556 1_554 S
C389 C68 1.514 . S
C404 C182 1.583 . S
C399 C40 1.522 . S
C409 C13 1.392 . S
C414 C76 1.455 . S
C424 C123 1.825 . S
C419 C22 1.760 . S
C434 C157 1.556 . S
C429 C32 1.511 . S
C439 C4 1.519 . S
C444 C191 1.584 . S
