# Generated by pormake.
# Topology anh, (6,3)-cn, num edge types: 1
# Building blocks:
#     Node 0, Type 0, BuildingBlock: PAMTOO_clean_sbu_0, # of connection points: 6
#     Node 1, Type 0, BuildingBlock: PAMTOO_clean_sbu_0, # of connection points: 6
#     Node 2, Type 0, BuildingBlock: PAMTOO_clean_sbu_0, # of connection points: 6
#     Node 3, Type 1, BuildingBlock: PAMTOO_clean_linker_0, # of connection points: 3
#     Node 4, Type 1, BuildingBlock: PAMTOO_clean_linker_0, # of connection points: 3
#     Node 5, Type 1, BuildingBlock: PAMTOO_clean_linker_0, # of connection points: 3
#     Node 6, Type 1, BuildingBlock: PAMTOO_clean_linker_0, # of connection points: 3
#     Node 7, Type 1, BuildingBlock: PAMTOO_clean_linker_0, # of connection points: 3
#     Node 8, Type 1, BuildingBlock: PAMTOO_clean_linker_0, # of connection points: 3
#     Edge 9, Type (0, 1), BuildingBlock: ZUJKAS_clean_linker_0, # of connection points: 2
#     Edge 10, Type (0, 1), BuildingBlock: ZUJKAS_clean_linker_0, # of connection points: 2
#     Edge 11, Type (0, 1), BuildingBlock: ZUJKAS_clean_linker_0, # of connection points: 2
#     Edge 12, Type (0, 1), BuildingBlock: ZUJKAS_clean_linker_0, # of connection points: 2
#     Edge 13, Type (0, 1), BuildingBlock: ZUJKAS_clean_linker_0, # of connection points: 2
#     Edge 14, Type (0, 1), BuildingBlock: ZUJKAS_clean_linker_0, # of connection points: 2
#     Edge 15, Type (0, 1), BuildingBlock: ZUJKAS_clean_linker_0, # of connection points: 2
#     Edge 16, Type (0, 1), BuildingBlock: ZUJKAS_clean_linker_0, # of connection points: 2
#     Edge 17, Type (0, 1), BuildingBlock: ZUJKAS_clean_linker_0, # of connection points: 2
#     Edge 18, Type (0, 1), BuildingBlock: ZUJKAS_clean_linker_0, # of connection points: 2
#     Edge 19, Type (0, 1), BuildingBlock: ZUJKAS_clean_linker_0, # of connection points: 2
#     Edge 20, Type (0, 1), BuildingBlock: ZUJKAS_clean_linker_0, # of connection points: 2
#     Edge 21, Type (0, 1), BuildingBlock: ZUJKAS_clean_linker_0, # of connection points: 2
#     Edge 22, Type (0, 1), BuildingBlock: ZUJKAS_clean_linker_0, # of connection points: 2
#     Edge 23, Type (0, 1), BuildingBlock: ZUJKAS_clean_linker_0, # of connection points: 2
#     Edge 24, Type (0, 1), BuildingBlock: ZUJKAS_clean_linker_0, # of connection points: 2
#     Edge 25, Type (0, 1), BuildingBlock: ZUJKAS_clean_linker_0, # of connection points: 2
#     Edge 26, Type (0, 1), BuildingBlock: ZUJKAS_clean_linker_0, # of connection points: 2
# Relax obj value: 0.129
# Max RMSD: 0.148
# Mean RMSD: 0.113
data_MOF--net-anh--node1-PAMTOO_clean_sbu_0--node2-PAMTOO_clean_linker_0--edge1-ZUJKAS_clean_linker_0
_symmetry_space_group_name_H-M    P1
_symmetry_Int_Tables_number       1
_symmetry_cell_setting            triclinic
loop_
_symmetry_equiv_pos_as_xyz
'x, y, z'
_cell_length_a     38.868125
_cell_length_b     38.149842
_cell_length_c     64.04304
_cell_angle_alpha  87.011336
_cell_angle_beta   97.056657
_cell_angle_gamma 104.57245
loop_
_atom_site_label
_atom_site_type_symbol
_atom_site_fract_x
_atom_site_fract_y
_atom_site_fract_z
_atom_type_partial_charge
Dy0 Dy 0.12757 0.59372 0.15072 0.0
Dy1 Dy 0.10576 0.50548 0.15585 0.0
C2 C 0.10653 0.54319 0.11143 0.0
O3 O 1.06745 0.57885 0.14463 0.0
O4 O 1.05595 0.52253 0.1608 0.0
O5 O 0.13381 0.64311 0.13166 0.0
O6 O 0.14634 0.64549 0.1655 0.0
O7 O 0.13523 0.5281 0.18612 0.0
O8 O 0.11461 0.57885 0.18357 0.0
O9 O 0.16266 0.51899 0.14796 0.0
O10 O 0.18015 0.57845 0.15791 0.0
O11 O 0.08944 0.45817 0.17559 0.0
O12 O 0.09759 0.45214 0.14322 0.0
C13 C 1.04506 0.55082 0.15252 0.0
O14 O 0.13109 0.57044 0.11992 0.0
O15 O 0.08619 0.51988 0.12325 0.0
C16 C 0.18128 0.69085 0.14559 0.0
C17 C 0.24615 0.7445 0.14598 0.0
C18 C 0.24625 0.70777 0.14924 0.0
C19 C 0.21406 0.68115 0.149 0.0
C20 C 0.18099 0.72724 0.14168 0.0
C21 C 0.21316 0.75387 0.1418 0.0
C22 C 0.14753 0.66373 0.14773 0.0
C23 C 0.12742 0.55466 0.1951 0.0
C24 C 0.18798 0.54862 0.15269 0.0
C25 C 1.052 0.4082 0.15781 0.0
C26 C 0.98593 0.35614 0.15679 0.0
C27 C 1.0181 0.34679 0.16434 0.0
C28 C 1.05082 0.37261 0.16483 0.0
C29 C 1.0202 0.41762 0.1498 0.0
C30 C 0.98742 0.39178 0.14925 0.0
C31 C 0.08609 0.43576 0.16036 0.0
H32 H 0.27122 0.69966 0.15224 0.0
H33 H 0.21476 0.65312 0.15202 0.0
H34 H 0.1559 0.73518 0.13913 0.0
H35 H 0.2122 0.78195 0.13944 0.0
H36 H 1.01795 0.31984 0.1706 0.0
H37 H 0.07512 0.36503 0.17124 0.0
H38 H 1.02069 0.44511 0.14439 0.0
H39 H 0.96324 0.3998 0.14313 0.0
Dy40 Dy 0.61653 0.02843 0.50583 0.0
Dy41 Dy 0.70464 0.0504 0.51093 0.0
C42 C 0.66155 0.04178 0.55007 0.0
O43 O 0.63074 0.0881 0.49916 0.0
O44 O 0.68999 0.10293 0.51315 0.0
O45 O 0.5677 0.00735 0.51989 0.0
O46 O 0.56552 0.024 0.48698 0.0
O47 O 0.68599 0.06232 0.47757 0.0
O48 O 0.63405 0.01789 0.47539 0.0
O49 O 0.68894 0.99127 0.50453 0.0
O50 O 0.63252 0.97687 0.51494 0.0
O51 O 0.75471 0.05097 0.49938 0.0
O52 O 0.75444 0.07309 0.52982 0.0
C53 C 0.66041 0.11216 0.50559 0.0
O54 O 0.63599 0.05132 0.5376 0.0
O55 O 0.68656 0.03082 0.54221 0.0
C56 C 0.52081 0.97392 0.49686 0.0
C57 C 0.46896 0.90823 0.48926 0.0
C58 C 0.50552 0.90873 0.49279 0.0
C59 C 0.53126 0.94135 0.4965 0.0
C60 C 0.48454 0.97371 0.49293 0.0
C61 C 0.45877 0.94113 0.48911 0.0
C62 C 0.54743 0.00791 0.50213 0.0
C63 C 0.65956 0.0404 0.46632 0.0
C64 C 0.66061 0.96729 0.50995 0.0
C65 C 0.80052 0.10203 0.50988 0.0
C66 C 0.85189 0.16559 0.50066 0.0
C67 C 0.8152 0.16305 0.49504 0.0
C68 C 0.78972 0.13152 0.49963 0.0
C69 C 0.83695 0.10425 0.51544 0.0
C70 C 0.86249 0.13579 0.51086 0.0
C71 C 0.77382 0.0693 0.51525 0.0
H72 H 0.51419 0.88388 0.49276 0.0
H73 H 0.55925 0.9411 0.49941 0.0
H74 H 0.47608 0.99866 0.4932 0.0
H75 H 0.43081 0.94157 0.48668 0.0
H76 H 0.80619 0.18532 0.48693 0.0
H77 H 0.76159 0.13015 0.49525 0.0
H78 H 0.84563 0.08173 0.52348 0.0
H79 H 0.89049 0.13706 0.51561 0.0
Dy80 Dy 0.68071 0.55934 0.83568 0.0
Dy81 Dy 0.59364 0.53485 0.82405 0.0
C82 C 0.64521 0.54422 0.78849 0.0
O83 O 0.66076 0.60662 0.84293 0.0
O84 O 0.61078 0.59505 0.81912 0.0
O85 O 0.73056 0.59867 0.83239 0.0
O86 O 0.72989 0.55032 0.85189 0.0
O87 O 0.60126 0.55038 0.85767 0.0
O88 O 0.658 0.54235 0.86616 0.0
O89 O 0.61125 0.48476 0.83494 0.0
O90 O 0.66861 0.50154 0.82634 0.0
O91 O 0.54263 0.49789 0.82704 0.0
O92 O 0.54613 0.54379 0.80526 0.0
C93 C 0.63513 0.61757 0.83133 0.0
O94 O 0.66958 0.5665 0.8008 0.0
O95 O 0.6166 0.52368 0.79571 0.0
C96 C 0.77968 0.57192 0.83282 0.0
C97 C 0.83623 0.55709 0.81401 0.0
C98 C 0.81652 0.58054 0.80389 0.0
C99 C 0.78832 0.58777 0.81317 0.0
C100 C 0.79996 0.54913 0.84306 0.0
C101 C 0.82779 0.54165 0.83373 0.0
C102 C 0.74961 0.57841 0.84281 0.0
C103 C 0.62758 0.54598 0.87169 0.0
C104 C 0.64047 0.47637 0.83086 0.0
C105 C 0.49239 0.52286 0.82106 0.0
C106 C 0.42473 0.52208 0.83284 0.0
C107 C 0.4532 0.51947 0.84822 0.0
C108 C 0.48678 0.52 0.84239 0.0
C109 C 0.46494 0.52818 0.80585 0.0
C110 C 0.43144 0.52803 0.81168 0.0
C111 C 0.52507 0.51664 0.81421 0.0
H112 H 0.8226 0.59285 0.78872 0.0
H113 H 0.77326 0.6056 0.80488 0.0
H114 H 0.79417 0.5369 0.8583 0.0
H115 H 0.84307 0.52408 0.8421 0.0
H116 H 0.44904 0.51456 0.86463 0.0
H117 H 0.50772 0.51625 0.85447 0.0
H118 H 0.46889 0.53079 0.78933 0.0
H119 H 0.41032 0.53088 0.7995 0.0
H120 H 0.69834 0.09983 0.24243 0.0
H121 H 0.59751 0.02018 0.23367 0.0
H122 H 0.64797 0.06992 0.17997 0.0
H123 H 0.56779 0.05398 0.17199 0.0
C124 C 0.56216 0.03519 0.18571 0.0
O125 O 0.59237 0.0232 0.19263 0.0
H126 H 0.55491 0.05019 0.19829 0.0
C127 C 0.67643 0.08388 0.2321 0.0
C128 C 0.67686 0.08784 0.21018 0.0
C129 C 0.64798 0.05962 0.24083 0.0
C130 C 0.61983 0.0389 0.22732 0.0
C131 C 0.61979 0.04297 0.20546 0.0
C132 C 0.64818 0.06735 0.19691 0.0
H133 H 0.66665 0.60692 0.57029 0.0
H134 H 0.6747 0.49895 0.5595 0.0
H135 H 0.66748 0.57316 0.50731 0.0
H136 H 0.6369 0.4942 0.49242 0.0
C137 C 0.64192 0.48438 0.50888 0.0
O138 O 0.67236 0.50728 0.51862 0.0
H139 H 0.61793 0.48448 0.51678 0.0
C140 C 0.66806 0.58634 0.55959 0.0
C141 C 0.66647 0.59421 0.53789 0.0
C142 C 0.67134 0.55225 0.56763 0.0
C143 C 0.67241 0.52552 0.55363 0.0
C144 C 0.67112 0.53315 0.53195 0.0
C145 C 0.66861 0.56758 0.52411 0.0
H146 H 0.0847 0.44945 0.88704 0.0
H147 H 0.08496 0.34954 0.92147 0.0
H148 H 1.06672 0.34968 0.85407 0.0
H149 H 0.09823 0.27293 0.87819 0.0
C150 C 0.1038 0.29512 0.88963 0.0
O151 O 0.07433 0.3099 0.8881 0.0
H152 H 0.10721 0.28266 0.90558 0.0
C153 C 0.08283 0.4206 0.8872 0.0
C154 C 0.07551 0.402 0.86815 0.0
C155 C 0.08621 0.40199 0.90653 0.0
C156 C 0.08264 0.36445 0.9067 0.0
C157 C 0.07607 0.34583 0.88781 0.0
C158 C 0.07228 0.36449 0.86859 0.0
H159 H 0.09287 0.48159 0.41504 0.0
H160 H 0.18208 0.57308 0.42997 0.0
H161 H 0.13703 0.50315 0.47946 0.0
H162 H 0.17359 0.579 0.49716 0.0
C163 C 0.17875 0.58823 0.48083 0.0
O164 O 0.18618 0.56052 0.47059 0.0
H165 H 0.15413 0.5956 0.47309 0.0
C166 C 0.11178 0.49837 0.42658 0.0
C167 C 0.1114 0.48878 0.44805 0.0
C168 C 0.13723 0.52859 0.41979 0.0
C169 C 0.16243 0.54944 0.4348 0.0
C170 C 0.16216 0.54013 0.45622 0.0
C171 C 0.13698 0.50978 0.4628 0.0
H172 H 0.63792 0.97596 0.7714 0.0
H173 H 0.65221 0.09003 0.78002 0.0
H174 H 0.64322 0.01674 0.83345 0.0
H175 H 0.61397 0.08138 0.84133 0.0
C176 C 0.62077 0.09432 0.82591 0.0
O177 O 0.65058 0.08462 0.82076 0.0
H178 H 0.59715 0.08433 0.81411 0.0
C179 C 0.64016 0.99838 0.78164 0.0
C180 C 0.63957 0.99183 0.80338 0.0
C181 C 0.64489 0.03361 0.77301 0.0
C182 C 0.64892 0.06269 0.78641 0.0
C183 C 0.64798 0.05652 0.80812 0.0
C184 C 0.64385 0.02123 0.81664 0.0
H185 H 0.68432 0.55563 0.09543 0.0
H186 H 0.57273 0.54497 0.1004 0.0
H187 H 0.64693 0.54845 0.15646 0.0
H188 H 0.57237 0.59516 0.13345 0.0
C189 C 0.56669 0.57364 0.14588 0.0
O190 O 0.57859 0.5438 0.14126 0.0
H191 H 0.58182 0.58489 0.16093 0.0
C192 C 0.66272 0.55355 0.10503 0.0
C193 C 0.6702 0.55265 0.12702 0.0
C194 C 0.62782 0.5507 0.09522 0.0
C195 C 0.59979 0.54688 0.10772 0.0
C196 C 0.60644 0.54659 0.12974 0.0
C197 C 0.64173 0.54901 0.13946 0.0
H198 H 0.21534 0.49666 0.13698 0.0
H199 H 0.27833 0.49706 0.13588 0.0
H200 H 0.31102 0.60061 0.16577 0.0
H201 H 0.24826 0.60064 0.16683 0.0
H202 H 0.33402 0.55292 0.1166 0.0
H203 H 0.3673 0.53438 0.20262 0.0
H204 H 0.32185 0.52321 0.18997 0.0
H205 H 0.3448 0.56962 0.19486 0.0
C206 C 0.23586 0.51952 0.1434 0.0
C207 C 0.22643 0.54854 0.15209 0.0
C208 C 0.27197 0.51973 0.14269 0.0
C209 C 0.29962 0.54867 0.15093 0.0
C210 C 0.29031 0.57772 0.15954 0.0
H211 H 0.53166 0.60794 0.16928 0.0
H212 H 0.46737 0.59996 0.16982 0.0
C213 C 0.25426 0.57773 0.16006 0.0
C214 C 0.33813 0.54879 0.15037 0.0
H215 H 0.41559 0.54765 0.18196 0.0
C216 C 0.35184 0.55151 0.13087 0.0
C217 C 0.36152 0.54708 0.16896 0.0
C218 C 0.34824 0.54312 0.19033 0.0
C219 C 0.38837 0.55382 0.1295 0.0
C220 C 0.41194 0.5522 0.14814 0.0
C221 C 0.3979 0.54886 0.16761 0.0
C222 C 0.45143 0.5558 0.14799 0.0
C223 C 0.40153 0.55953 0.10808 0.0
C224 C 0.4646 0.53338 0.1358 0.0
C225 C 0.50168 0.53813 0.13538 0.0
C226 C 0.52657 0.56473 0.14764 0.0
C227 C 0.51331 0.58665 0.16004 0.0
C228 C 0.47641 0.58216 0.1603 0.0
H229 H 0.38305 0.57054 0.09644 0.0
H230 H 0.42851 0.57841 0.10875 0.0
H231 H 0.40313 0.53316 0.10227 0.0
H232 H 0.44623 0.51224 0.12649 0.0
H233 H 0.51084 0.52124 0.12532 0.0
H234 H 0.84882 0.23568 0.50497 0.0
H235 H 0.8929 0.29107 0.49645 0.0
H236 H 0.96071 0.22712 0.47799 0.0
H237 H 0.9163 0.17157 0.48583 0.0
H238 H 0.96499 0.3151 0.51293 0.0
H239 H 0.95036 0.29457 0.42676 0.0
H240 H 0.91836 0.26922 0.44359 0.0
H241 H 0.95995 0.25717 0.44259 0.0
C242 C 0.87293 0.23339 0.49887 0.0
C243 C 0.87895 0.19922 0.49592 0.0
C244 C 0.89818 0.26504 0.49417 0.0
C245 C 0.92979 0.26312 0.48635 0.0
C246 C 0.93619 0.22913 0.4837 0.0
H247 H 0.1218 0.43636 0.47726 0.0
H248 H 0.0775 0.38229 0.48745 0.0
C249 C 0.91096 0.19745 0.48839 0.0
C250 C 0.95613 0.29674 0.48104 0.0
H251 H 0.99771 0.34302 0.44035 0.0
C252 C 0.97214 0.3213 0.49707 0.0
C253 C 0.96499 0.30486 0.46027 0.0
C254 C 0.94732 0.28027 0.44224 0.0
C255 C 0.99724 0.35367 0.49292 0.0
C256 C 1.00684 0.36129 0.47227 0.0
C257 C 0.99047 0.33692 0.4562 0.0
C258 C 1.03343 0.39465 0.46684 0.0
C259 C 1.01278 0.37969 0.51058 0.0
C260 C 1.02341 0.4192 0.45169 0.0
C261 C 1.04863 0.44999 0.4458 0.0
C262 C 0.08441 0.45672 0.4549 0.0
C263 C 0.09433 0.43218 0.4702 0.0
C264 C 0.06907 0.40132 0.47605 0.0
H265 H 0.99615 0.37436 0.52387 0.0
H266 H 1.03987 0.37658 0.51664 0.0
H267 H 1.01532 0.40816 0.50496 0.0
H268 H 0.99602 0.41449 0.44439 0.0
H269 H 1.04009 0.46861 0.43416 0.0
H270 H 0.58925 0.65186 0.8075 0.0
H271 H 0.5894 0.71604 0.80752 0.0
H272 H 0.67815 0.73456 0.85652 0.0
H273 H 0.67866 0.67068 0.85639 0.0
H274 H 0.5815 0.7593 0.83983 0.0
H275 H 0.71488 0.80873 0.81103 0.0
H276 H 0.69065 0.76171 0.81011 0.0
H277 H 0.71436 0.78068 0.83445 0.0
C278 C 0.60882 0.66955 0.81828 0.0
C279 C 0.63417 0.65614 0.83179 0.0
C280 C 0.60881 0.70622 0.81831 0.0
C281 C 0.63415 0.73018 0.83179 0.0
C282 C 0.65885 0.71672 0.84568 0.0
H283 H 0.67921 0.96702 0.83658 0.0
H284 H 0.67652 0.90356 0.847 0.0
C285 C 0.65898 0.68011 0.84562 0.0
C286 C 0.63493 0.76932 0.83107 0.0
H287 H 0.68648 0.85306 0.81951 0.0
C288 C 0.60449 0.77983 0.83546 0.0
C289 C 0.66503 0.79608 0.82547 0.0
C290 C 0.698 0.78635 0.81981 0.0
C291 C 0.60323 0.81638 0.83422 0.0
C292 C 0.63301 0.843 0.82815 0.0
C293 C 0.66377 0.8326 0.82429 0.0
C294 C 0.63184 0.88131 0.82389 0.0
C295 C 0.57003 0.82617 0.83939 0.0
C296 C 0.60738 0.88979 0.80765 0.0
C297 C 0.6089 0.92582 0.80171 0.0
C298 C 0.63502 0.95415 0.81182 0.0
C299 C 0.65862 0.94574 0.82865 0.0
C300 C 0.65722 0.90956 0.83453 0.0
H301 H 0.55475 0.80523 0.84976 0.0
H302 H 0.5768 0.85271 0.84723 0.0
H303 H 0.55237 0.82811 0.82461 0.0
H304 H 0.58801 0.86848 0.79897 0.0
H305 H 0.59024 0.93152 0.78875 0.0
H306 H 1.01181 0.60411 0.137 0.0
H307 H 0.94863 0.60407 0.13588 0.0
H308 H 0.92677 0.49771 0.16518 0.0
H309 H 0.98997 0.49763 0.16656 0.0
H310 H 0.88918 0.55786 0.11577 0.0
H311 H 0.87868 0.5511 0.20155 0.0
H312 H 0.92119 0.56192 0.19099 0.0
H313 H 0.89552 0.5157 0.19233 0.0
C314 C 0.99371 0.58073 0.14335 0.0
C315 C 1.00637 0.55097 0.15199 0.0
C316 C 0.95742 0.58075 0.14268 0.0
C317 C 0.93271 0.55117 0.15076 0.0
C318 C 0.9452 0.5213 0.15928 0.0
H319 H 0.69834 0.50251 0.15124 0.0
H320 H 0.762 0.50189 0.15818 0.0
C321 C 0.9815 0.52122 0.15994 0.0
C322 C 0.89381 0.55115 0.14947 0.0
H323 H 0.82449 0.54533 0.17893 0.0
C324 C 0.87517 0.55526 0.12962 0.0
C325 C 0.8751 0.54743 0.16746 0.0
C326 C 0.89364 0.5441 0.18932 0.0
C327 C 0.83866 0.55548 0.12724 0.0
C328 C 0.82006 0.55242 0.14525 0.0
C329 C 0.83854 0.54783 0.1651 0.0
C330 C 0.78169 0.55448 0.14362 0.0
C331 C 0.82017 0.55818 0.10528 0.0
C332 C 0.77139 0.58488 0.13411 0.0
C333 C 0.73519 0.58523 0.13018 0.0
C334 C 0.70819 0.55546 0.13599 0.0
C335 C 0.7185 0.52605 0.14684 0.0
C336 C 0.7549 0.52559 0.15065 0.0
H337 H 0.83451 0.54946 0.0933 0.0
H338 H 0.79219 0.54139 0.10384 0.0
H339 H 0.81962 0.5868 0.1016 0.0
H340 H 0.79136 0.60798 0.12902 0.0
H341 H 0.72811 0.60823 0.12172 0.0
H342 H 0.46651 0.84528 0.51203 0.0
H343 H 0.41931 0.78897 0.5091 0.0
H344 H 0.36144 0.83654 0.45826 0.0
H345 H 0.40885 0.89279 0.46083 0.0
H346 H 0.34575 0.78421 0.5137 0.0
H347 H 0.36281 0.73657 0.43596 0.0
H348 H 0.39757 0.76929 0.45096 0.0
H349 H 0.36037 0.78295 0.43646 0.0
C350 C 0.44407 0.84353 0.49996 0.0
C351 C 0.4414 0.87344 0.48662 0.0
C352 C 0.41707 0.81143 0.49839 0.0
C353 C 0.38715 0.80855 0.48333 0.0
C354 C 0.38461 0.8381 0.46978 0.0
H355 H 0.18847 0.6467 0.4536 0.0
H356 H 0.23962 0.69989 0.4544 0.0
C357 C 0.41152 0.87029 0.4714 0.0
C358 C 0.35752 0.77542 0.4827 0.0
H359 H 0.31117 0.70513 0.45161 0.0
C360 C 0.33828 0.76674 0.5002 0.0
C361 C 0.34783 0.75296 0.46499 0.0
C362 C 0.36834 0.76061 0.44606 0.0
C363 C 0.30903 0.73647 0.50032 0.0
C364 C 0.29936 0.71386 0.48263 0.0
C365 C 0.3187 0.7225 0.46514 0.0
C366 C 0.26895 0.68134 0.48191 0.0
C367 C 0.28817 0.72959 0.51913 0.0
C368 C 0.26889 0.65302 0.49684 0.0
C369 C 0.23963 0.62292 0.49649 0.0
C370 C 0.21007 0.62068 0.48121 0.0
C371 C 0.2107 0.64833 0.4658 0.0
C372 C 0.23989 0.67852 0.4662 0.0
H373 H 0.29293 0.7543 0.5286 0.0
H374 H 0.25901 0.72004 0.51421 0.0
H375 H 0.29673 0.70832 0.52943 0.0
H376 H 0.29148 0.65421 0.50874 0.0
H377 H 0.23999 0.60143 0.5082 0.0
H378 H 0.58839 0.41726 0.8411 0.0
H379 H 0.58904 0.35348 0.84061 0.0
H380 H 0.69414 0.38354 0.81983 0.0
H381 H 0.69404 0.44758 0.8206 0.0
H382 H 0.59412 0.31394 0.80718 0.0
H383 H 0.70726 0.31456 0.86926 0.0
H384 H 0.6856 0.35143 0.8653 0.0
H385 H 0.71783 0.34724 0.84832 0.0
C386 C 0.61181 0.41042 0.83655 0.0
C387 C 0.64124 0.43764 0.83096 0.0
C388 C 0.61208 0.37388 0.83626 0.0
C389 C 0.6418 0.3637 0.83045 0.0
C390 C 0.67121 0.39075 0.8248 0.0
H391 H 0.6332 0.14369 0.79348 0.0
H392 H 0.64057 0.20948 0.7941 0.0
C393 C 0.67103 0.42738 0.82514 0.0
C394 C 0.64127 0.3247 0.82965 0.0
H395 H 0.6841 0.26045 0.85014 0.0
C396 C 0.61381 0.30224 0.81656 0.0
C397 C 0.66675 0.3094 0.84208 0.0
C398 C 0.69585 0.33178 0.85719 0.0
C399 C 0.61113 0.26496 0.8155 0.0
C400 C 0.63708 0.24978 0.82756 0.0
C401 C 0.66447 0.27219 0.84073 0.0
C402 C 0.63533 0.21044 0.82733 0.0
C403 C 0.57996 0.24201 0.80191 0.0
C404 C 0.63138 0.18936 0.84593 0.0
C405 C 0.62759 0.15193 0.84562 0.0
C406 C 0.62777 0.13495 0.8267 0.0
C407 C 0.63288 0.1562 0.80823 0.0
C408 C 0.63681 0.19366 0.80856 0.0
H409 H 0.55793 0.25584 0.79803 0.0
H410 H 0.58906 0.23659 0.78692 0.0
H411 H 0.5692 0.21561 0.80983 0.0
H412 H 0.63034 0.20175 0.86061 0.0
H413 H 0.62376 0.13616 0.86008 0.0
H414 H 0.61099 0.90977 0.52467 0.0
H415 H 0.61187 0.84579 0.526 0.0
H416 H 0.70974 0.87247 0.49682 0.0
H417 H 0.70964 0.93646 0.49592 0.0
H418 H 0.61058 0.799 0.49486 0.0
H419 H 0.73693 0.81557 0.54842 0.0
H420 H 0.71358 0.85103 0.54372 0.0
H421 H 0.74149 0.84324 0.52491 0.0
C422 C 0.63281 0.90208 0.51861 0.0
C423 C 0.66049 0.92836 0.51042 0.0
C424 C 0.63321 0.86546 0.51934 0.0
C425 C 0.66123 0.85441 0.51188 0.0
C426 C 0.68836 0.88045 0.50318 0.0
H427 H 0.70667 0.64082 0.51109 0.0
H428 H 0.70435 0.70362 0.50181 0.0
C429 C 0.68815 0.91707 0.50259 0.0
C430 C 0.66201 0.81563 0.51319 0.0
H431 H 0.71205 0.7576 0.53395 0.0
C432 C 0.63277 0.78996 0.5034 0.0
C433 C 0.69102 0.80384 0.52433 0.0
C434 C 0.72238 0.82978 0.53611 0.0
C435 C 0.63175 0.75284 0.50446 0.0
C436 C 0.66063 0.74114 0.51569 0.0
C437 C 0.69012 0.76678 0.52518 0.0
C438 C 0.65968 0.70225 0.51921 0.0
C439 C 0.59983 0.72637 0.49359 0.0
C440 C 0.63519 0.68077 0.53189 0.0
C441 C 0.63661 0.6452 0.53727 0.0
C442 C 0.66254 0.63041 0.53005 0.0
C443 C 0.68626 0.6515 0.51671 0.0
C444 C 0.68504 0.68732 0.51149 0.0
H445 H 0.58437 0.74003 0.48149 0.0
H446 H 0.6083 0.70488 0.48599 0.0
H447 H 0.58181 0.71315 0.50541 0.0
H448 H 0.61575 0.69195 0.53825 0.0
H449 H 0.61792 0.62946 0.54749 0.0
H450 H 0.84886 0.49109 0.81004 0.0
H451 H 0.90424 0.4786 0.802 0.0
H452 H 0.94681 0.59214 0.78838 0.0
H453 H 0.89135 0.60496 0.79696 0.0
H454 H 0.95098 0.49302 0.76892 0.0
H455 H 1.00908 0.57073 0.84191 0.0
H456 H 0.96139 0.55807 0.83463 0.0
H457 H 0.98928 0.59284 0.81988 0.0
C458 C 0.86976 0.5133 0.80495 0.0
C459 C 0.86626 0.54906 0.80462 0.0
C460 C 0.90123 0.50611 0.80013 0.0
C461 C 0.92981 0.53453 0.79492 0.0
C462 C 0.92516 0.56991 0.79259 0.0
H463 H 0.11295 0.46713 0.85298 0.0
H464 H 0.0899 0.5055 0.82575 0.0
C465 C 0.89349 0.57716 0.79744 0.0
C466 C 0.96555 0.52712 0.79599 0.0
H467 H 1.0364 0.52725 0.83291 0.0
C468 C 0.97046 0.50138 0.7825 0.0
C469 C 0.99134 0.5386 0.81345 0.0
C470 C 0.98774 0.56651 0.82839 0.0
C471 C 0.99826 0.48385 0.78738 0.0
C472 C 1.02089 0.49164 0.80649 0.0
C473 C 1.01882 0.52081 0.81839 0.0
C474 C 1.04038 0.46551 0.81704 0.0
C475 C 1.00169 0.45566 0.77267 0.0
C476 C 1.02122 0.42957 0.82044 0.0
C477 C 1.03451 0.40758 0.83579 0.0
C478 C 1.06692 0.42132 0.84831 0.0
C479 C 0.08769 0.45604 0.84364 0.0
C480 C 0.07461 0.4779 0.82803 0.0
H481 H 0.99654 0.46463 0.75604 0.0
H482 H 1.02861 0.4501 0.7752 0.0
H483 H 0.98119 0.43014 0.77512 0.0
H484 H 0.99436 0.41949 0.81274 0.0
H485 H 1.01778 0.38107 0.83918 0.0
H486 H 0.30317 0.74923 0.17614 0.0
H487 H 0.35768 0.79816 0.18094 0.0
H488 H 0.3208 0.85335 0.12545 0.0
H489 H 0.26598 0.80459 0.12065 0.0
H490 H 0.41076 0.82508 0.15569 0.0
H491 H 0.34126 0.93095 0.16943 0.0
H492 H 0.31911 0.88333 0.16927 0.0
H493 H 0.32578 0.90836 0.14489 0.0
C494 C 0.30682 0.7716 0.16483 0.0
C495 C 0.28019 0.77314 0.14807 0.0
C496 C 0.33791 0.79961 0.16765 0.0
C497 C 0.343 0.82972 0.15379 0.0
C498 C 0.317 0.83082 0.13665 0.0
H499 H 0.51485 0.02621 0.14971 0.0
H500 H 0.46249 0.97563 0.14115 0.0
C501 C 0.28576 0.80291 0.13389 0.0
C502 C 0.37546 0.85998 0.15743 0.0
H503 H 0.40351 0.95062 0.1669 0.0
C504 C 0.40918 0.85252 0.15817 0.0
C505 C 0.37333 0.89575 0.16073 0.0
C506 C 0.33796 0.90513 0.16125 0.0
C507 C 0.44083 0.87994 0.16194 0.0
C508 C 0.43864 0.91563 0.16519 0.0
C509 C 0.405 0.9232 0.16429 0.0
C510 C 0.47098 0.94542 0.17004 0.0
C511 C 0.47641 0.87069 0.16223 0.0
C512 C 0.49276 0.94523 0.1892 0.0
C513 C 0.52249 0.97409 0.19414 0.0
C514 C 0.53109 1.00341 0.1799 0.0
C515 C 0.50911 1.00364 0.16079 0.0
C516 C 0.47924 0.97488 0.15592 0.0
H517 H 0.47355 0.84404 0.15508 0.0
H518 H 0.49502 0.89183 0.15365 0.0
H519 H 0.48864 0.8695 0.17876 0.0
H520 H 0.48638 0.92306 0.20048 0.0
H521 H 0.53865 0.9737 0.20915 0.0
H522 H 0.60301 0.1421 0.49662 0.0
H523 H 0.60294 0.20611 0.49664 0.0
H524 H 0.71745 0.23453 0.51257 0.0
H525 H 0.71778 0.17052 0.51299 0.0
H526 H 0.68433 0.26911 0.53686 0.0
H527 H 0.63459 0.28433 0.45287 0.0
H528 H 0.60575 0.24827 0.46625 0.0
H529 H 0.65033 0.24545 0.46306 0.0
C530 C 0.62825 0.16193 0.49997 0.0
C531 C 0.6604 0.1511 0.50476 0.0
C532 C 0.62817 0.19858 0.49986 0.0
C533 C 0.66025 0.22519 0.50428 0.0
C534 C 0.69239 0.21448 0.50903 0.0
H535 H 0.67888 0.45687 0.48285 0.0
H536 H 0.68607 0.39477 0.48234 0.0
C537 C 0.69249 0.17784 0.50925 0.0
C538 C 0.66014 0.26405 0.5047 0.0
H539 H 0.63464 0.3324 0.47527 0.0
C540 C 0.67368 0.28303 0.52335 0.0
C541 C 0.64675 0.28237 0.48697 0.0
C542 C 0.63387 0.26419 0.46609 0.0
C543 C 0.67339 0.31954 0.52493 0.0
C544 C 0.65845 0.33735 0.50751 0.0
C545 C 0.64574 0.31864 0.48869 0.0
C546 C 0.65544 0.37528 0.50848 0.0
C547 C 0.6895 0.33876 0.54516 0.0
C548 C 0.63589 0.38495 0.52333 0.0
C549 C 0.63195 0.42035 0.52368 0.0
C550 C 0.64692 0.44651 0.50892 0.0
C551 C 0.66683 0.43699 0.49423 0.0
C552 C 0.6709 0.40162 0.49394 0.0
H553 H 0.70901 0.32529 0.55425 0.0
H554 H 0.70323 0.36748 0.54208 0.0
H555 H 0.66792 0.33822 0.5551 0.0
H556 H 0.62314 0.36497 0.53444 0.0
H557 H 0.61672 0.42717 0.53526 0.0
H558 H 0.40058 0.54092 0.86831 0.0
H559 H 0.34227 0.51421 0.88078 0.0
H560 H 0.30665 0.45654 0.82286 0.0
H561 H 0.36464 0.48205 0.8105 0.0
H562 H 0.25243 0.48568 0.84158 0.0
H563 H 0.32542 0.40238 0.89574 0.0
H564 H 0.34151 0.4509 0.89641 0.0
H565 H 0.3448 0.42728 0.87353 0.0
C566 C 0.38012 0.52302 0.85809 0.0
C567 C 0.38752 0.51325 0.83852 0.0
C568 C 0.34682 0.50799 0.8652 0.0
C569 C 0.32048 0.48316 0.8528 0.0
C570 C 0.32668 0.47578 0.8326 0.0
H571 H 0.12893 0.31655 0.85171 0.0
H572 H 0.1803 0.36617 0.84457 0.0
C573 C 0.35991 0.49058 0.82553 0.0
C574 C 0.28861 0.4608 0.86168 0.0
H575 H 0.26298 0.38613 0.89313 0.0
C576 C 0.25462 0.46426 0.85311 0.0
C577 C 0.29172 0.43298 0.87673 0.0
C578 C 0.32774 0.42781 0.88615 0.0
C579 C 0.22349 0.43982 0.8588 0.0
C580 C 0.22671 0.4107 0.8729 0.0
C581 C 0.26067 0.40836 0.88221 0.0
C582 C 0.19552 0.381 0.87722 0.0
C583 C 0.18752 0.44523 0.84954 0.0
C584 C 0.18803 0.37197 0.89799 0.0
C585 C 0.15933 0.34312 0.90208 0.0
C586 C 0.13782 0.32278 0.88547 0.0
C587 C 0.14559 0.33153 0.86474 0.0
C588 C 0.17443 0.36023 0.86066 0.0
H589 H 0.18914 0.47414 0.8452 0.0
H590 H 0.17838 0.42931 0.835 0.0
H591 H 0.16716 0.43603 0.8607 0.0
H592 H 0.20413 0.38752 0.91099 0.0
H593 H 0.15329 0.33723 0.91815 0.0
H594 H 0.92395 0.36796 0.1679 0.0
H595 H 0.86846 0.32293 0.17312 0.0
H596 H 0.91362 0.23848 0.15477 0.0
H597 H 0.96874 0.28352 0.14862 0.0
H598 H 0.84175 0.22965 0.13882 0.0
H599 H 0.8637 0.25483 0.22466 0.0
H600 H 0.86238 0.29436 0.20839 0.0
H601 H 0.8979 0.27222 0.2075 0.0
C602 C 0.92188 0.33994 0.16452 0.0
C603 C 0.951 0.32933 0.15803 0.0
C604 C 0.89025 0.31418 0.16775 0.0
C605 C 0.88723 0.27731 0.16476 0.0
C606 C 0.91553 0.26679 0.15734 0.0
H607 H 0.74804 0.09611 0.22252 0.0
H608 H 0.79815 0.14125 0.20984 0.0
C609 C 0.94712 0.29253 0.15401 0.0
C610 C 0.85539 0.24948 0.17039 0.0
H611 H 0.80947 0.21425 0.2119 0.0
C612 C 0.83459 0.22626 0.15477 0.0
C613 C 0.84649 0.24482 0.19129 0.0
C614 C 0.86892 0.26761 0.20899 0.0
C615 C 0.80495 0.19854 0.15951 0.0
C616 C 0.79567 0.19439 0.18034 0.0
C617 C 0.81652 0.21762 0.19591 0.0
C618 C 0.76518 0.16546 0.18666 0.0
C619 C 0.78446 0.1734 0.14233 0.0
C620 C 0.72998 0.1639 0.17773 0.0
C621 C 0.70126 0.138 0.18493 0.0
C622 C 0.70726 0.11357 0.20137 0.0
C623 C 0.74257 0.11486 0.21001 0.0
C624 C 0.77122 0.14054 0.20274 0.0
H625 H 0.80021 0.1743 0.12887 0.0
H626 H 0.7768 0.14502 0.14839 0.0
H627 H 0.7596 0.18171 0.13635 0.0
H628 H 0.72463 0.18335 0.16563 0.0
H629 H 0.67429 0.13789 0.17815 0.0
H630 H 0.15664 0.56949 0.08428 0.0
H631 H 0.15488 0.5509 0.04806 0.0
H632 H 1.0486 0.4827 0.05123 0.0
H633 H 1.05063 0.50024 0.08755 0.0
H634 H 0.09145 0.4463 0.03805 0.0
H635 H 0.10459 0.5757 0.99246 0.0
H636 H 0.13969 0.57709 0.01365 0.0
H637 H 0.09436 0.57103 0.01936 0.0
C638 C 0.13265 0.55107 0.0771 0.0
C639 C 0.10383 0.53619 0.08875 0.0
C640 C 0.13161 0.5406 0.05636 0.0
C641 C 0.10148 0.51564 0.04686 0.0
C642 C 0.07214 0.50196 0.05825 0.0
H643 H 1.04966 0.4492 0.91753 0.0
H644 H 1.05581 0.47815 0.95146 0.0
C645 C 0.07333 0.51203 0.079 0.0
C646 C 0.10148 0.50117 0.02582 0.0
H647 H 0.1104 0.52498 0.97425 0.0
C648 C 0.09548 0.46352 0.02408 0.0
C649 C 0.10654 0.52364 0.0076 0.0
C650 C 0.11131 0.56408 0.00826 0.0
C651 C 0.09421 0.44765 0.00467 0.0
C652 C 0.10026 0.47015 0.98655 0.0
C653 C 0.10624 0.50783 0.98823 0.0
C654 C 0.09873 0.45482 0.96557 0.0
C655 C 0.08533 0.40684 0.00372 0.0
C656 C 0.12141 0.4328 0.96209 0.0
C657 C 0.11769 0.41594 0.9428 0.0
C658 C 0.09168 0.4214 0.92655 0.0
C659 C 0.07005 0.44469 0.92977 0.0
C660 C 0.07352 0.4612 0.94912 0.0
H661 H 0.07213 0.39371 0.01755 0.0
H662 H 1.06745 0.39707 0.9892 0.0
H663 H 0.11039 0.39796 0.00365 0.0
H664 H 0.14165 0.42824 0.9744 0.0
H665 H 0.13506 0.39857 0.94057 0.0
H666 H 0.7098 0.07959 0.44202 0.0
H667 H 0.70675 0.08149 0.40357 0.0
H668 H 0.60366 0.00497 0.39963 0.0
H669 H 0.60631 1.00287 0.438 0.0
H670 H 0.69707 0.02103 0.37554 0.0
H671 H 0.58825 0.09316 0.36142 0.0
H672 H 0.61462 0.09255 0.38665 0.0
H673 H 0.57973 0.05357 0.37836 0.0
C674 C 0.68646 0.06317 0.433 0.0
C675 C 0.65823 0.0412 0.44309 0.0
C676 C 0.68481 0.06425 0.41104 0.0
C677 C 0.65482 0.04368 0.39882 0.0
C678 C 0.62681 0.02141 0.40882 0.0
H679 H 0.63182 0.99767 0.26509 0.0
H680 H 0.63293 0.99278 0.30351 0.0
C681 C 0.62848 0.02017 0.43075 0.0
C682 C 0.65284 0.04546 0.37558 0.0
H683 H 0.60691 0.07281 0.33143 0.0
C684 C 0.67737 0.0323 0.36586 0.0
C685 C 0.62726 0.06045 0.36309 0.0
C686 C 0.60108 0.07604 0.37283 0.0
C687 C 0.67678 0.03346 0.34387 0.0
C688 C 0.65086 0.04797 0.33137 0.0
C689 C 0.62653 0.06142 0.34111 0.0
C690 C 0.64939 0.05064 0.30816 0.0
C691 C 0.70426 0.01981 0.33415 0.0
C692 C 0.65756 0.08478 0.29812 0.0
C693 C 0.65687 0.08763 0.27625 0.0
C694 C 0.64771 0.05638 0.26401 0.0
C695 C 0.63883 0.0222 0.2741 0.0
C696 C 0.63973 0.01937 0.29602 0.0
H697 H 0.72639 0.01583 0.34603 0.0
H698 H 0.6912 0.99341 0.32672 0.0
H699 H 0.71573 0.03901 0.3217 0.0
H700 H 0.66483 0.10921 0.30723 0.0
H701 H 0.66333 0.11435 0.2689 0.0
H702 H 0.60439 0.49565 0.75995 0.0
H703 H 0.61217 0.49107 0.72306 0.0
H704 H 0.70434 0.58221 0.72925 0.0
H705 H 0.69729 0.5865 0.7664 0.0
H706 H 0.60911 0.5408 0.69193 0.0
H707 H 0.74223 0.51017 0.70037 0.0
H708 H 0.71641 0.50731 0.72226 0.0
H709 H 0.74216 0.5505 0.71357 0.0
C710 C 0.62648 0.51465 0.75355 0.0
C711 C 0.65022 0.54149 0.76615 0.0
C712 C 0.63091 0.51191 0.73244 0.0
C713 C 0.65915 0.53591 0.72348 0.0
C714 C 0.68288 0.56281 0.73597 0.0
H715 H 0.71262 0.59507 0.59862 0.0
H716 H 0.71022 0.58709 0.63662 0.0
C717 C 0.67862 0.56544 0.75717 0.0
C718 C 0.66237 0.53402 0.70076 0.0
H719 H 0.71984 0.52692 0.6658 0.0
C720 C 0.63317 0.53733 0.68623 0.0
C721 C 0.69378 0.52944 0.69336 0.0
C722 C 0.7253 0.52379 0.7082 0.0
C723 C 0.63489 0.53733 0.66449 0.0
C724 C 0.66654 0.53354 0.65711 0.0
C725 C 0.6956 0.52972 0.67158 0.0
C726 C 0.67056 0.53586 0.63438 0.0
C727 C 0.6033 0.54258 0.64955 0.0
C728 C 0.64976 0.50912 0.62066 0.0
C729 C 0.65105 0.51361 0.59892 0.0
C730 C 0.67305 0.54501 0.59065 0.0
C731 C 0.69504 0.57087 0.60456 0.0
C732 C 0.69387 0.56627 0.62624 0.0
H733 H 0.58334 0.55119 0.65778 0.0
H734 H 0.61225 0.56318 0.63716 0.0
H735 H 0.58986 0.51668 0.64167 0.0
H736 H 0.63185 0.48529 0.62673 0.0
H737 H 0.63378 0.49332 0.58855 0.0
H738 H 0.71347 0.0308 0.58094 0.0
H739 H 0.7133 0.03316 0.61906 0.0
H740 H 0.61017 0.05809 0.60944 0.0
H741 H 0.6104 0.05654 0.57141 0.0
H742 H 0.65657 0.10082 0.63925 0.0
H743 H 0.65354 0.95553 0.65483 0.0
H744 H 0.69042 0.98023 0.64137 0.0
H745 H 0.64546 0.97379 0.62864 0.0
C746 C 0.69073 0.03674 0.58694 0.0
C747 C 0.66184 0.04326 0.57314 0.0
C748 C 0.69063 0.03794 0.60873 0.0
C749 C 0.66148 0.04527 0.61707 0.0
C750 C 0.63289 0.05231 0.60332 0.0
H751 H 0.59905 0.99596 0.74162 0.0
H752 H 0.60374 1.00158 0.70382 0.0
C753 C 0.63305 0.05131 0.58158 0.0
C754 C 0.66042 0.04542 0.64012 0.0
H755 H 0.65909 0.99174 0.68448 0.0
C756 C 0.65718 0.07702 0.64918 0.0
C757 C 0.6608 0.01417 0.65296 0.0
C758 C 0.66241 0.97888 0.64398 0.0
C759 C 0.65419 0.07819 0.67076 0.0
C760 C 0.65513 0.04711 0.68363 0.0
C761 C 0.65856 0.0156 0.67458 0.0
C762 C 0.65123 0.04598 0.70641 0.0
C763 C 0.64901 0.11229 0.67943 0.0
C764 C 0.67615 0.06938 0.7204 0.0
C765 C 0.67338 0.06635 0.74204 0.0
C766 C 0.64595 0.03951 0.75001 0.0
C767 C 0.62067 0.01665 0.73591 0.0
C768 C 0.6233 0.01985 0.71434 0.0
H769 H 0.63987 0.13005 0.66678 0.0
H770 H 0.62921 0.10581 0.69105 0.0
H771 H 0.67486 0.12775 0.68752 0.0
H772 H 0.69831 0.08927 0.71466 0.0
H773 H 0.69346 0.08402 0.75258 0.0
H774 H 0.56859 0.5515 0.8896 0.0
H775 H 0.56191 0.5513 0.92711 0.0
H776 H 0.66958 0.53941 0.94261 0.0
H777 H 0.67646 0.53916 0.90525 0.0
H778 H 0.61942 0.49245 0.96564 0.0
H779 H 0.60874 0.63489 0.96742 0.0
H780 H 0.57759 0.60681 0.94832 0.0
H781 H 0.62461 0.61757 0.94573 0.0
C782 C 0.59089 0.54889 0.90097 0.0
C783 C 0.62315 0.54553 0.89438 0.0
C784 C 0.58705 0.54894 0.92241 0.0
C785 C 0.61541 0.54581 0.93762 0.0
C786 C 0.6474 0.54197 0.93111 0.0
H787 H 0.66705 0.59628 0.06775 0.0
H788 H 0.65987 0.59398 0.02938 0.0
C789 C 0.65128 0.5419 0.90972 0.0
C790 C 0.61198 0.54637 0.96039 0.0
H791 H 0.60309 0.60064 -0.00087 0.0
C792 C 0.61559 0.51598 0.97298 0.0
C793 C 0.60728 0.57725 0.96988 0.0
C794 C 0.60461 0.61115 0.95723 0.0
C795 C 0.61516 0.51581 0.99487 0.0
C796 C 0.61044 0.54668 0.00437 0.0
C797 C 0.60633 0.57689 0.99175 0.0
C798 C 0.61271 0.54925 0.02753 0.0
C799 C 0.62119 0.48315 0.00774 0.0
C800 C 0.58803 0.52541 0.0392 0.0
C801 C 0.59221 0.5265 0.06121 0.0
C802 C 0.62113 0.5515 0.07186 0.0
C803 C 0.64488 0.57628 0.06003 0.0
C804 C 0.64068 0.57517 0.0381 0.0
H805 H 0.63153 0.46489 -0.00144 0.0
H806 H 0.6404 0.49157 0.02196 0.0
H807 H 0.59545 0.46752 0.013 0.0
H808 H 0.5659 0.50558 0.03131 0.0
H809 H 0.57351 0.50704 0.06988 0.0
H810 H 0.10741 0.60141 0.21947 0.0
H811 H 0.11165 0.60144 0.25791 0.0
H812 H 0.16144 0.51189 0.26165 0.0
H813 H 0.15677 0.51121 0.22332 0.0
H814 H 0.10598 0.50048 0.28553 0.0
H815 H 0.19827 0.63555 0.30137 0.0
H816 H 0.15972 0.63657 0.28298 0.0
H817 H 0.19217 0.61405 0.27626 0.0
C818 C 0.11957 0.58195 0.22848 0.0
C819 C 0.13171 0.55628 0.21833 0.0
C820 C 0.12217 0.58216 0.25045 0.0
C821 C 0.13728 0.55697 0.26263 0.0
C822 C 0.14981 0.53165 0.25254 0.0
H823 H 0.19537 0.54705 0.39768 0.0
H824 H 0.19542 0.55591 0.3595 0.0
C825 C 0.1471 0.53131 0.23061 0.0
C826 C 0.13814 0.55542 0.28585 0.0
H827 H 0.1702 0.60433 0.33035 0.0
C828 C 0.12009 0.52315 0.29533 0.0
C829 C 0.15689 0.58493 0.2986 0.0
C830 C 0.17816 0.61964 0.28935 0.0
C831 C 0.11997 0.51965 0.31722 0.0
C832 C 0.13777 0.5495 0.32993 0.0
C833 C 0.15623 0.58166 0.32051 0.0
C834 C 0.13799 0.5474 0.35309 0.0
C835 C 0.10134 0.48374 0.32655 0.0
C836 C 0.1058 0.5408 0.36212 0.0
C837 C 0.10568 0.5357 0.38386 0.0
C838 C 0.13782 0.53742 0.39698 0.0
C839 C 0.17022 0.54573 0.38798 0.0
C840 C 0.17029 0.55069 0.36619 0.0
H841 H 0.09711 0.46133 0.31537 0.0
H842 H 0.11695 0.47701 0.34125 0.0
H843 H 0.07474 0.48533 0.33044 0.0
H844 H 0.08067 0.53898 0.3523 0.0
H845 H 0.08038 0.53001 0.39039 0.0
loop_
_geom_bond_atom_site_label_1
_geom_bond_atom_site_label_2
_geom_bond_distance
_geom_bond_site_symmetry_2
_ccdc_geom_bond_type
Dy0 O3 2.307 1_455 S
Dy0 O5 2.395 . S
Dy0 O6 2.379 . S
Dy0 O8 2.339 . S
Dy0 O10 2.298 . S
Dy0 O14 2.275 . S
Dy0 C22 2.738 . S
Dy1 O4 2.298 1_455 S
Dy1 O7 2.275 . S
Dy1 O9 2.307 . S
Dy1 O11 2.395 1_455 S
Dy1 O12 2.379 1_455 S
Dy1 O15 2.339 . S
Dy1 C31 2.738 1_455 S
C2 O14 1.254 . S
C2 O15 1.257 . S
O3 Dy0 2.307 1_655 S
O3 C13 1.266 . S
O4 Dy1 2.298 1_655 S
O4 C13 1.236 . S
O5 Dy0 2.395 . S
O5 C22 1.255 . S
O6 Dy0 2.379 . S
O6 C22 1.249 . S
O7 Dy1 2.275 . S
O7 C23 1.254 . S
O8 Dy0 2.339 . S
O8 C23 1.257 . S
O9 Dy1 2.307 . S
O9 C24 1.266 . S
O10 Dy0 2.298 . S
O10 C24 1.236 . S
O11 Dy1 2.395 1_655 S
O11 C31 1.255 . S
O12 Dy1 2.379 1_655 S
O12 C31 1.249 . S
C13 O3 1.266 . S
C13 O4 1.236 . S
O14 Dy0 2.275 . S
O14 C2 1.254 . S
O15 Dy1 2.339 . S
O15 C2 1.257 . S
C16 C19 1.344 . S
C16 C20 1.328 . S
C16 C22 1.516 . S
C17 C18 1.304 . S
C17 C21 1.323 . S
C18 C17 1.304 . S
C18 C19 1.371 . S
C18 H32 0.930 . S
C19 C16 1.344 . S
C19 C18 1.371 . S
C19 H33 0.931 . S
C20 C16 1.328 . S
C20 C21 1.433 . S
C20 H34 0.931 . S
C21 C17 1.323 . S
C21 C20 1.433 . S
C21 H35 0.933 . S
C22 Dy0 2.738 . S
C22 O5 1.255 . S
C22 O6 1.249 . S
C22 C16 1.516 . S
C23 O7 1.254 . S
C23 O8 1.257 . S
C24 O9 1.266 . S
C24 O10 1.236 . S
C25 C28 1.344 . S
C25 C29 1.328 . S
C25 C31 1.516 . S
C26 C27 1.304 . S
C26 C30 1.323 . S
C27 C26 1.304 . S
C27 C28 1.371 . S
C27 H36 0.930 . S
C28 C25 1.344 . S
C28 C27 1.371 . S
C28 H37 0.931 . S
C29 C25 1.328 . S
C29 C30 1.433 . S
C29 H38 0.931 . S
C30 C26 1.323 . S
C30 C29 1.433 . S
C30 H39 0.933 . S
C31 Dy1 2.738 1_655 S
C31 O11 1.255 . S
C31 O12 1.249 . S
C31 C25 1.516 . S
H32 C18 0.930 . S
H33 C19 0.931 . S
H34 C20 0.931 . S
H35 C21 0.933 . S
H36 C27 0.930 . S
H37 C28 0.931 . S
H38 C29 0.931 . S
H39 C30 0.933 . S
Dy40 O43 2.307 . S
Dy40 O45 2.395 1_545 S
Dy40 O46 2.379 1_545 S
Dy40 O48 2.339 . S
Dy40 O50 2.298 1_545 S
Dy40 O54 2.275 . S
Dy40 C62 2.738 1_545 S
Dy41 O44 2.298 . S
Dy41 O47 2.275 . S
Dy41 O49 2.307 1_545 S
Dy41 O51 2.395 . S
Dy41 O52 2.379 . S
Dy41 O55 2.339 . S
Dy41 C71 2.738 . S
C42 O54 1.254 . S
C42 O55 1.257 . S
O43 Dy40 2.307 . S
O43 C53 1.266 . S
O44 Dy41 2.298 . S
O44 C53 1.236 . S
O45 Dy40 2.395 1_565 S
O45 C62 1.255 . S
O46 Dy40 2.379 1_565 S
O46 C62 1.249 . S
O47 Dy41 2.275 . S
O47 C63 1.254 . S
O48 Dy40 2.339 . S
O48 C63 1.257 . S
O49 Dy41 2.307 1_565 S
O49 C64 1.266 . S
O50 Dy40 2.298 1_565 S
O50 C64 1.236 . S
O51 Dy41 2.395 . S
O51 C71 1.255 . S
O52 Dy41 2.379 . S
O52 C71 1.249 . S
C53 O43 1.266 . S
C53 O44 1.236 . S
O54 Dy40 2.275 . S
O54 C42 1.254 . S
O55 Dy41 2.339 . S
O55 C42 1.257 . S
C56 C59 1.344 . S
C56 C60 1.328 . S
C56 C62 1.516 . S
C57 C58 1.304 . S
C57 C61 1.323 . S
C58 C57 1.304 . S
C58 C59 1.371 . S
C58 H72 0.930 . S
C59 C56 1.344 . S
C59 C58 1.371 . S
C59 H73 0.931 . S
C60 C56 1.328 . S
C60 C61 1.433 . S
C60 H74 0.931 . S
C61 C57 1.323 . S
C61 C60 1.433 . S
C61 H75 0.933 . S
C62 Dy40 2.738 1_565 S
C62 O45 1.255 . S
C62 O46 1.249 . S
C62 C56 1.516 . S
C63 O47 1.254 . S
C63 O48 1.257 . S
C64 O49 1.266 . S
C64 O50 1.236 . S
C65 C68 1.344 . S
C65 C69 1.328 . S
C65 C71 1.516 . S
C66 C67 1.304 . S
C66 C70 1.323 . S
C67 C66 1.304 . S
C67 C68 1.371 . S
C67 H76 0.930 . S
C68 C65 1.344 . S
C68 C67 1.371 . S
C68 H77 0.931 . S
C69 C65 1.328 . S
C69 C70 1.433 . S
C69 H78 0.931 . S
C70 C66 1.323 . S
C70 C69 1.433 . S
C70 H79 0.933 . S
C71 Dy41 2.738 . S
C71 O51 1.255 . S
C71 O52 1.249 . S
C71 C65 1.516 . S
H72 C58 0.930 . S
H73 C59 0.931 . S
H74 C60 0.931 . S
H75 C61 0.933 . S
H76 C67 0.930 . S
H77 C68 0.931 . S
H78 C69 0.931 . S
H79 C70 0.933 . S
Dy80 O83 2.307 . S
Dy80 O85 2.395 . S
Dy80 O86 2.379 . S
Dy80 O88 2.339 . S
Dy80 O90 2.298 . S
Dy80 O94 2.275 . S
Dy80 C102 2.738 . S
Dy81 O84 2.298 . S
Dy81 O87 2.275 . S
Dy81 O89 2.307 . S
Dy81 O91 2.395 . S
Dy81 O92 2.379 . S
Dy81 O95 2.339 . S
Dy81 C111 2.738 . S
C82 O94 1.254 . S
C82 O95 1.257 . S
O83 Dy80 2.307 . S
O83 C93 1.266 . S
O84 Dy81 2.298 . S
O84 C93 1.236 . S
O85 Dy80 2.395 . S
O85 C102 1.255 . S
O86 Dy80 2.379 . S
O86 C102 1.249 . S
O87 Dy81 2.275 . S
O87 C103 1.254 . S
O88 Dy80 2.339 . S
O88 C103 1.257 . S
O89 Dy81 2.307 . S
O89 C104 1.266 . S
O90 Dy80 2.298 . S
O90 C104 1.236 . S
O91 Dy81 2.395 . S
O91 C111 1.255 . S
O92 Dy81 2.379 . S
O92 C111 1.249 . S
C93 O83 1.266 . S
C93 O84 1.236 . S
O94 Dy80 2.275 . S
O94 C82 1.254 . S
O95 Dy81 2.339 . S
O95 C82 1.257 . S
C96 C99 1.344 . S
C96 C100 1.328 . S
C96 C102 1.516 . S
C97 C98 1.304 . S
C97 C101 1.323 . S
C98 C97 1.304 . S
C98 C99 1.371 . S
C98 H112 0.930 . S
C99 C96 1.344 . S
C99 C98 1.371 . S
C99 H113 0.931 . S
C100 C96 1.328 . S
C100 C101 1.433 . S
C100 H114 0.931 . S
C101 C97 1.323 . S
C101 C100 1.433 . S
C101 H115 0.933 . S
C102 Dy80 2.738 . S
C102 O85 1.255 . S
C102 O86 1.249 . S
C102 C96 1.516 . S
C103 O87 1.254 . S
C103 O88 1.257 . S
C104 O89 1.266 . S
C104 O90 1.236 . S
C105 C108 1.344 . S
C105 C109 1.328 . S
C105 C111 1.516 . S
C106 C107 1.304 . S
C106 C110 1.323 . S
C107 C106 1.304 . S
C107 C108 1.371 . S
C107 H116 0.930 . S
C108 C105 1.344 . S
C108 C107 1.371 . S
C108 H117 0.931 . S
C109 C105 1.328 . S
C109 C110 1.433 . S
C109 H118 0.931 . S
C110 C106 1.323 . S
C110 C109 1.433 . S
C110 H119 0.933 . S
C111 Dy81 2.738 . S
C111 O91 1.255 . S
C111 O92 1.249 . S
C111 C105 1.516 . S
H112 C98 0.930 . S
H113 C99 0.931 . S
H114 C100 0.931 . S
H115 C101 0.933 . S
H116 C107 0.930 . S
H117 C108 0.931 . S
H118 C109 0.931 . S
H119 C110 0.933 . S
H120 C127 0.929 . S
H121 C130 0.930 . S
H122 C132 0.929 . S
H123 C124 0.969 1_545 S
C124 H123 0.969 1_565 S
C124 O125 1.550 1_565 S
C124 H126 0.973 . S
O125 C124 1.550 1_545 S
O125 C131 1.412 . S
H126 C124 0.973 . S
C127 H120 0.929 . S
C127 C128 1.400 . S
C127 C129 1.364 . S
C128 C127 1.400 . S
C128 C132 1.377 . S
C129 C127 1.364 . S
C129 C130 1.374 . S
C130 H121 0.930 . S
C130 C129 1.374 . S
C130 C131 1.383 . S
C131 O125 1.412 . S
C131 C130 1.383 . S
C131 C132 1.394 . S
C132 H122 0.929 . S
C132 C128 1.377 . S
C132 C131 1.394 . S
H133 C140 0.929 . S
H134 C143 0.930 . S
H135 C145 0.929 . S
H136 C137 0.969 . S
C137 H136 0.969 . S
C137 O138 1.550 . S
C137 H139 0.973 . S
O138 C137 1.550 . S
O138 C144 1.412 . S
H139 C137 0.973 . S
C140 H133 0.929 . S
C140 C141 1.400 . S
C140 C142 1.364 . S
C141 C140 1.400 . S
C141 C145 1.377 . S
C142 C140 1.364 . S
C142 C143 1.374 . S
C143 H134 0.930 . S
C143 C142 1.374 . S
C143 C144 1.383 . S
C144 O138 1.412 . S
C144 C143 1.383 . S
C144 C145 1.394 . S
C145 H135 0.929 . S
C145 C141 1.377 . S
C145 C144 1.394 . S
H146 C153 0.929 . S
H147 C156 0.930 . S
H148 C158 0.929 . S
H149 C150 0.969 . S
C150 H149 0.969 . S
C150 O151 1.550 . S
C150 H152 0.973 . S
O151 C150 1.550 . S
O151 C157 1.412 . S
H152 C150 0.973 . S
C153 H146 0.929 . S
C153 C154 1.400 . S
C153 C155 1.364 . S
C154 C153 1.400 . S
C154 C158 1.377 . S
C155 C153 1.364 . S
C155 C156 1.374 . S
C156 H147 0.930 . S
C156 C155 1.374 . S
C156 C157 1.383 . S
C157 O151 1.412 . S
C157 C156 1.383 . S
C157 C158 1.394 . S
C158 H148 0.929 . S
C158 C154 1.377 . S
C158 C157 1.394 . S
H159 C166 0.929 . S
H160 C169 0.930 . S
H161 C171 0.929 . S
H162 C163 0.969 . S
C163 H162 0.969 . S
C163 O164 1.550 . S
C163 H165 0.973 . S
O164 C163 1.550 . S
O164 C170 1.412 . S
H165 C163 0.973 . S
C166 H159 0.929 . S
C166 C167 1.400 . S
C166 C168 1.364 . S
C167 C166 1.400 . S
C167 C171 1.377 . S
C168 C166 1.364 . S
C168 C169 1.374 . S
C169 H160 0.930 . S
C169 C168 1.374 . S
C169 C170 1.383 . S
C170 O164 1.412 . S
C170 C169 1.383 . S
C170 C171 1.394 . S
C171 H161 0.929 . S
C171 C167 1.377 . S
C171 C170 1.394 . S
H172 C179 0.929 . S
H173 C182 0.930 . S
H174 C184 0.929 . S
H175 C176 0.969 . S
C176 H175 0.969 . S
C176 O177 1.550 . S
C176 H178 0.973 . S
O177 C176 1.550 . S
O177 C183 1.412 . S
H178 C176 0.973 . S
C179 H172 0.929 . S
C179 C180 1.400 . S
C179 C181 1.364 1_565 S
C180 C179 1.400 . S
C180 C184 1.377 . S
C181 C179 1.364 1_545 S
C181 C182 1.374 . S
C182 H173 0.930 . S
C182 C181 1.374 . S
C182 C183 1.383 . S
C183 O177 1.412 . S
C183 C182 1.383 . S
C183 C184 1.394 1_545 S
C184 H174 0.929 . S
C184 C180 1.377 . S
C184 C183 1.394 1_565 S
H185 C192 0.929 . S
H186 C195 0.930 . S
H187 C197 0.929 . S
H188 C189 0.969 . S
C189 H188 0.969 . S
C189 O190 1.550 . S
C189 H191 0.973 . S
O190 C189 1.550 . S
O190 C196 1.412 . S
H191 C189 0.973 . S
C192 H185 0.929 . S
C192 C193 1.400 . S
C192 C194 1.364 . S
C193 C192 1.400 . S
C193 C197 1.377 . S
C194 C192 1.364 . S
C194 C195 1.374 . S
C195 H186 0.930 . S
C195 C194 1.374 . S
C195 C196 1.383 . S
C196 O190 1.412 . S
C196 C195 1.383 . S
C196 C197 1.394 . S
C197 H187 0.929 . S
C197 C193 1.377 . S
C197 C196 1.394 . S
H198 C206 0.929 . S
H199 C208 0.930 . S
H200 C210 0.930 . S
H201 C213 0.929 . S
H202 C216 0.930 . S
H203 C218 0.960 . S
H204 C218 0.960 . S
H205 C218 0.960 . S
C206 H198 0.929 . S
C206 C207 1.377 . S
C206 C208 1.384 . S
C207 C206 1.377 . S
C207 C213 1.390 . S
C208 H199 0.930 . S
C208 C206 1.384 . S
C208 C209 1.372 . S
C209 C208 1.372 . S
C209 C210 1.400 . S
C209 C214 1.490 . S
C210 H200 0.930 . S
C210 C209 1.400 . S
C210 C213 1.386 . S
H211 C227 0.930 . S
H212 C228 0.931 . S
C213 H201 0.929 . S
C213 C207 1.390 . S
C213 C210 1.386 . S
C214 C209 1.490 . S
C214 C216 1.395 . S
C214 C217 1.403 . S
H215 C221 0.930 . S
C216 H202 0.930 . S
C216 C214 1.395 . S
C216 C219 1.403 . S
C217 C214 1.403 . S
C217 C218 1.524 . S
C217 C221 1.400 . S
C218 H203 0.960 . S
C218 H204 0.960 . S
C218 H205 0.960 . S
C218 C217 1.524 . S
C219 C216 1.403 . S
C219 C220 1.392 . S
C219 C223 1.495 . S
C220 C219 1.392 . S
C220 C221 1.385 . S
C220 C222 1.478 . S
C221 H215 0.930 . S
C221 C217 1.400 . S
C221 C220 1.385 . S
C222 C220 1.478 . S
C222 C224 1.381 . S
C222 C228 1.383 . S
C223 C219 1.495 . S
C223 H229 0.959 . S
C223 H230 0.961 . S
C223 H231 0.960 . S
C224 C222 1.381 . S
C224 C225 1.394 . S
C224 H232 0.930 . S
C225 C224 1.394 . S
C225 C226 1.383 . S
C225 H233 0.929 . S
C226 C225 1.383 . S
C226 C227 1.377 . S
C227 H211 0.930 . S
C227 C226 1.377 . S
C227 C228 1.379 . S
C228 H212 0.931 . S
C228 C222 1.383 . S
C228 C227 1.379 . S
H229 C223 0.959 . S
H230 C223 0.961 . S
H231 C223 0.960 . S
H232 C224 0.930 . S
H233 C225 0.929 . S
H234 C242 0.929 . S
H235 C244 0.930 . S
H236 C246 0.930 . S
H237 C249 0.929 . S
H238 C252 0.930 . S
H239 C254 0.960 . S
H240 C254 0.960 . S
H241 C254 0.960 . S
C242 H234 0.929 . S
C242 C243 1.377 . S
C242 C244 1.384 . S
C243 C242 1.377 . S
C243 C249 1.390 . S
C244 H235 0.930 . S
C244 C242 1.384 . S
C244 C245 1.372 . S
C245 C244 1.372 . S
C245 C246 1.400 . S
C245 C250 1.490 . S
C246 H236 0.930 . S
C246 C245 1.400 . S
C246 C249 1.386 . S
H247 C263 0.930 . S
H248 C264 0.917 1_455 S
C249 H237 0.929 . S
C249 C243 1.390 . S
C249 C246 1.386 . S
C250 C245 1.490 . S
C250 C252 1.395 . S
C250 C253 1.403 . S
H251 C257 0.930 . S
C252 H238 0.930 . S
C252 C250 1.395 . S
C252 C255 1.403 . S
C253 C250 1.403 . S
C253 C254 1.524 . S
C253 C257 1.400 . S
C254 H239 0.960 . S
C254 H240 0.960 . S
C254 H241 0.960 . S
C254 C253 1.524 . S
C255 C252 1.403 . S
C255 C256 1.392 . S
C255 C259 1.495 . S
C256 C255 1.392 . S
C256 C257 1.385 . S
C256 C258 1.478 . S
C257 H251 0.930 . S
C257 C253 1.400 . S
C257 C256 1.385 . S
C258 C256 1.478 . S
C258 C260 1.381 . S
C258 C264 1.413 . S
C259 C255 1.495 . S
C259 H265 0.959 . S
C259 H266 0.961 . S
C259 H267 0.960 . S
C260 C258 1.381 . S
C260 C261 1.394 . S
C260 H268 0.930 . S
C261 C260 1.394 . S
C261 C262 1.383 1_655 S
C261 H269 0.929 . S
C262 C261 1.383 1_455 S
C262 C263 1.377 . S
C263 H247 0.930 . S
C263 C262 1.377 . S
C263 C264 1.364 1_455 S
C264 H248 0.917 1_655 S
C264 C258 1.413 . S
C264 C263 1.364 1_655 S
H265 C259 0.959 . S
H266 C259 0.961 . S
H267 C259 0.960 . S
H268 C260 0.930 . S
H269 C261 0.929 . S
H270 C278 0.929 . S
H271 C280 0.930 . S
H272 C282 0.930 . S
H273 C285 0.929 . S
H274 C288 0.930 . S
H275 C290 0.960 . S
H276 C290 0.960 . S
H277 C290 0.960 . S
C278 H270 0.929 . S
C278 C279 1.377 . S
C278 C280 1.384 . S
C279 C278 1.377 . S
C279 C285 1.390 . S
C280 H271 0.930 . S
C280 C278 1.384 . S
C280 C281 1.372 . S
C281 C280 1.372 . S
C281 C282 1.400 . S
C281 C286 1.490 . S
C282 H272 0.930 . S
C282 C281 1.400 . S
C282 C285 1.386 . S
H283 C299 0.930 . S
H284 C300 0.931 . S
C285 H273 0.929 . S
C285 C279 1.390 . S
C285 C282 1.386 . S
C286 C281 1.490 . S
C286 C288 1.395 . S
C286 C289 1.403 . S
H287 C293 0.930 . S
C288 H274 0.930 . S
C288 C286 1.395 . S
C288 C291 1.403 . S
C289 C286 1.403 . S
C289 C290 1.524 . S
C289 C293 1.400 . S
C290 H275 0.960 . S
C290 H276 0.960 . S
C290 H277 0.960 . S
C290 C289 1.524 . S
C291 C288 1.403 . S
C291 C292 1.392 . S
C291 C295 1.495 . S
C292 C291 1.392 . S
C292 C293 1.385 . S
C292 C294 1.478 . S
C293 H287 0.930 . S
C293 C289 1.400 . S
C293 C292 1.385 . S
C294 C292 1.478 . S
C294 C296 1.381 . S
C294 C300 1.383 . S
C295 C291 1.495 . S
C295 H301 0.959 . S
C295 H302 0.961 . S
C295 H303 0.960 . S
C296 C294 1.381 . S
C296 C297 1.394 . S
C296 H304 0.930 . S
C297 C296 1.394 . S
C297 C298 1.383 . S
C297 H305 0.929 . S
C298 C297 1.383 . S
C298 C299 1.377 . S
C299 H283 0.930 . S
C299 C298 1.377 . S
C299 C300 1.379 . S
C300 H284 0.931 . S
C300 C294 1.383 . S
C300 C299 1.379 . S
H301 C295 0.959 . S
H302 C295 0.961 . S
H303 C295 0.960 . S
H304 C296 0.930 . S
H305 C297 0.929 . S
H306 C314 0.929 . S
H307 C316 0.930 . S
H308 C318 0.930 . S
H309 C321 0.929 . S
H310 C324 0.930 . S
H311 C326 0.960 . S
H312 C326 0.960 . S
H313 C326 0.960 . S
C314 H306 0.929 . S
C314 C315 1.377 . S
C314 C316 1.384 . S
C315 C314 1.377 . S
C315 C321 1.390 . S
C316 H307 0.930 . S
C316 C314 1.384 . S
C316 C317 1.372 . S
C317 C316 1.372 . S
C317 C318 1.400 . S
C317 C322 1.490 . S
C318 H308 0.930 . S
C318 C317 1.400 . S
C318 C321 1.386 . S
H319 C335 0.930 . S
H320 C336 0.931 . S
C321 H309 0.929 . S
C321 C315 1.390 . S
C321 C318 1.386 . S
C322 C317 1.490 . S
C322 C324 1.395 . S
C322 C325 1.403 . S
H323 C329 0.930 . S
C324 H310 0.930 . S
C324 C322 1.395 . S
C324 C327 1.403 . S
C325 C322 1.403 . S
C325 C326 1.524 . S
C325 C329 1.400 . S
C326 H311 0.960 . S
C326 H312 0.960 . S
C326 H313 0.960 . S
C326 C325 1.524 . S
C327 C324 1.403 . S
C327 C328 1.392 . S
C327 C331 1.495 . S
C328 C327 1.392 . S
C328 C329 1.385 . S
C328 C330 1.478 . S
C329 H323 0.930 . S
C329 C325 1.400 . S
C329 C328 1.385 . S
C330 C328 1.478 . S
C330 C332 1.381 . S
C330 C336 1.383 . S
C331 C327 1.495 . S
C331 H337 0.959 . S
C331 H338 0.961 . S
C331 H339 0.960 . S
C332 C330 1.381 . S
C332 C333 1.394 . S
C332 H340 0.930 . S
C333 C332 1.394 . S
C333 C334 1.383 . S
C333 H341 0.929 . S
C334 C333 1.383 . S
C334 C335 1.377 . S
C335 H319 0.930 . S
C335 C334 1.377 . S
C335 C336 1.379 . S
C336 H320 0.931 . S
C336 C330 1.383 . S
C336 C335 1.379 . S
H337 C331 0.959 . S
H338 C331 0.961 . S
H339 C331 0.960 . S
H340 C332 0.930 . S
H341 C333 0.929 . S
H342 C350 0.929 . S
H343 C352 0.930 . S
H344 C354 0.930 . S
H345 C357 0.929 . S
H346 C360 0.930 . S
H347 C362 0.960 . S
H348 C362 0.960 . S
H349 C362 0.960 . S
C350 H342 0.929 . S
C350 C351 1.377 . S
C350 C352 1.384 . S
C351 C350 1.377 . S
C351 C357 1.390 . S
C352 H343 0.930 . S
C352 C350 1.384 . S
C352 C353 1.372 . S
C353 C352 1.372 . S
C353 C354 1.400 . S
C353 C358 1.490 . S
C354 H344 0.930 . S
C354 C353 1.400 . S
C354 C357 1.386 . S
H355 C371 0.930 . S
H356 C372 0.931 . S
C357 H345 0.929 . S
C357 C351 1.390 . S
C357 C354 1.386 . S
C358 C353 1.490 . S
C358 C360 1.395 . S
C358 C361 1.403 . S
H359 C365 0.930 . S
C360 H346 0.930 . S
C360 C358 1.395 . S
C360 C363 1.403 . S
C361 C358 1.403 . S
C361 C362 1.524 . S
C361 C365 1.400 . S
C362 H347 0.960 . S
C362 H348 0.960 . S
C362 H349 0.960 . S
C362 C361 1.524 . S
C363 C360 1.403 . S
C363 C364 1.392 . S
C363 C367 1.495 . S
C364 C363 1.392 . S
C364 C365 1.385 . S
C364 C366 1.478 . S
C365 H359 0.930 . S
C365 C361 1.400 . S
C365 C364 1.385 . S
C366 C364 1.478 . S
C366 C368 1.381 . S
C366 C372 1.383 . S
C367 C363 1.495 . S
C367 H373 0.959 . S
C367 H374 0.961 . S
C367 H375 0.960 . S
C368 C366 1.381 . S
C368 C369 1.394 . S
C368 H376 0.930 . S
C369 C368 1.394 . S
C369 C370 1.383 . S
C369 H377 0.929 . S
C370 C369 1.383 . S
C370 C371 1.377 . S
C371 H355 0.930 . S
C371 C370 1.377 . S
C371 C372 1.379 . S
C372 H356 0.931 . S
C372 C366 1.383 . S
C372 C371 1.379 . S
H373 C367 0.959 . S
H374 C367 0.961 . S
H375 C367 0.960 . S
H376 C368 0.930 . S
H377 C369 0.929 . S
H378 C386 0.929 . S
H379 C388 0.930 . S
H380 C390 0.930 . S
H381 C393 0.929 . S
H382 C396 0.930 . S
H383 C398 0.960 . S
H384 C398 0.960 . S
H385 C398 0.960 . S
C386 H378 0.929 . S
C386 C387 1.377 . S
C386 C388 1.384 . S
C387 C386 1.377 . S
C387 C393 1.390 . S
C388 H379 0.930 . S
C388 C386 1.384 . S
C388 C389 1.372 . S
C389 C388 1.372 . S
C389 C390 1.400 . S
C389 C394 1.490 . S
C390 H380 0.930 . S
C390 C389 1.400 . S
C390 C393 1.386 . S
H391 C407 0.930 . S
H392 C408 0.931 . S
C393 H381 0.929 . S
C393 C387 1.390 . S
C393 C390 1.386 . S
C394 C389 1.490 . S
C394 C396 1.395 . S
C394 C397 1.403 . S
H395 C401 0.930 . S
C396 H382 0.930 . S
C396 C394 1.395 . S
C396 C399 1.403 . S
C397 C394 1.403 . S
C397 C398 1.524 . S
C397 C401 1.400 . S
C398 H383 0.960 . S
C398 H384 0.960 . S
C398 H385 0.960 . S
C398 C397 1.524 . S
C399 C396 1.403 . S
C399 C400 1.392 . S
C399 C403 1.495 . S
C400 C399 1.392 . S
C400 C401 1.385 . S
C400 C402 1.478 . S
C401 H395 0.930 . S
C401 C397 1.400 . S
C401 C400 1.385 . S
C402 C400 1.478 . S
C402 C404 1.381 . S
C402 C408 1.383 . S
C403 C399 1.495 . S
C403 H409 0.959 . S
C403 H410 0.961 . S
C403 H411 0.960 . S
C404 C402 1.381 . S
C404 C405 1.394 . S
C404 H412 0.930 . S
C405 C404 1.394 . S
C405 C406 1.383 . S
C405 H413 0.929 . S
C406 C405 1.383 . S
C406 C407 1.377 . S
C407 H391 0.930 . S
C407 C406 1.377 . S
C407 C408 1.379 . S
C408 H392 0.931 . S
C408 C402 1.383 . S
C408 C407 1.379 . S
H409 C403 0.959 . S
H410 C403 0.961 . S
H411 C403 0.960 . S
H412 C404 0.930 . S
H413 C405 0.929 . S
H414 C422 0.929 . S
H415 C424 0.930 . S
H416 C426 0.930 . S
H417 C429 0.929 . S
H418 C432 0.930 . S
H419 C434 0.960 . S
H420 C434 0.960 . S
H421 C434 0.960 . S
C422 H414 0.929 . S
C422 C423 1.377 . S
C422 C424 1.384 . S
C423 C422 1.377 . S
C423 C429 1.390 . S
C424 H415 0.930 . S
C424 C422 1.384 . S
C424 C425 1.372 . S
C425 C424 1.372 . S
C425 C426 1.400 . S
C425 C430 1.490 . S
C426 H416 0.930 . S
C426 C425 1.400 . S
C426 C429 1.386 . S
H427 C443 0.930 . S
H428 C444 0.931 . S
C429 H417 0.929 . S
C429 C423 1.390 . S
C429 C426 1.386 . S
C430 C425 1.490 . S
C430 C432 1.395 . S
C430 C433 1.403 . S
H431 C437 0.930 . S
C432 H418 0.930 . S
C432 C430 1.395 . S
C432 C435 1.403 . S
C433 C430 1.403 . S
C433 C434 1.524 . S
C433 C437 1.400 . S
C434 H419 0.960 . S
C434 H420 0.960 . S
C434 H421 0.960 . S
C434 C433 1.524 . S
C435 C432 1.403 . S
C435 C436 1.392 . S
C435 C439 1.495 . S
C436 C435 1.392 . S
C436 C437 1.385 . S
C436 C438 1.478 . S
C437 H431 0.930 . S
C437 C433 1.400 . S
C437 C436 1.385 . S
C438 C436 1.478 . S
C438 C440 1.381 . S
C438 C444 1.383 . S
C439 C435 1.495 . S
C439 H445 0.959 . S
C439 H446 0.961 . S
C439 H447 0.960 . S
C440 C438 1.381 . S
C440 C441 1.394 . S
C440 H448 0.930 . S
C441 C440 1.394 . S
C441 C442 1.383 . S
C441 H449 0.929 . S
C442 C441 1.383 . S
C442 C443 1.377 . S
C443 H427 0.930 . S
C443 C442 1.377 . S
C443 C444 1.379 . S
C444 H428 0.931 . S
C444 C438 1.383 . S
C444 C443 1.379 . S
H445 C439 0.959 . S
H446 C439 0.961 . S
H447 C439 0.960 . S
H448 C440 0.930 . S
H449 C441 0.929 . S
H450 C458 0.929 . S
H451 C460 0.930 . S
H452 C462 0.930 . S
H453 C465 0.929 . S
H454 C468 0.930 . S
H455 C470 0.960 . S
H456 C470 0.960 . S
H457 C470 0.960 . S
C458 H450 0.929 . S
C458 C459 1.377 . S
C458 C460 1.384 . S
C459 C458 1.377 . S
C459 C465 1.390 . S
C460 H451 0.930 . S
C460 C458 1.384 . S
C460 C461 1.372 . S
C461 C460 1.372 . S
C461 C462 1.400 . S
C461 C466 1.490 . S
C462 H452 0.930 . S
C462 C461 1.400 . S
C462 C465 1.386 . S
H463 C479 0.930 . S
H464 C480 0.931 . S
C465 H453 0.929 . S
C465 C459 1.390 . S
C465 C462 1.386 . S
C466 C461 1.490 . S
C466 C468 1.395 . S
C466 C469 1.403 . S
H467 C473 0.930 . S
C468 H454 0.930 . S
C468 C466 1.395 . S
C468 C471 1.403 . S
C469 C466 1.403 . S
C469 C470 1.524 . S
C469 C473 1.400 . S
C470 H455 0.960 . S
C470 H456 0.960 . S
C470 H457 0.960 . S
C470 C469 1.524 . S
C471 C468 1.403 . S
C471 C472 1.392 . S
C471 C475 1.495 . S
C472 C471 1.392 . S
C472 C473 1.385 . S
C472 C474 1.478 . S
C473 H467 0.930 . S
C473 C469 1.400 . S
C473 C472 1.385 . S
C474 C472 1.478 . S
C474 C476 1.381 . S
C474 C480 1.383 . S
C475 C471 1.495 . S
C475 H481 0.959 . S
C475 H482 0.961 . S
C475 H483 0.960 . S
C476 C474 1.381 . S
C476 C477 1.394 1_655 S
C476 H484 0.930 . S
C477 C476 1.394 1_455 S
C477 C478 1.383 . S
C477 H485 0.929 . S
C478 C477 1.383 . S
C478 C479 1.377 . S
C479 H463 0.930 . S
C479 C478 1.377 . S
C479 C480 1.379 1_455 S
C480 H464 0.931 . S
C480 C474 1.383 . S
C480 C479 1.379 1_655 S
H481 C475 0.959 . S
H482 C475 0.961 . S
H483 C475 0.960 . S
H484 C476 0.930 . S
H485 C477 0.929 . S
H486 C494 0.929 . S
H487 C496 0.930 . S
H488 C498 0.930 . S
H489 C501 0.929 . S
H490 C504 0.930 . S
H491 C506 0.960 . S
H492 C506 0.960 . S
H493 C506 0.960 . S
C494 H486 0.929 . S
C494 C495 1.377 . S
C494 C496 1.384 . S
C495 C494 1.377 . S
C495 C501 1.390 . S
C496 H487 0.930 . S
C496 C494 1.384 . S
C496 C497 1.372 . S
C497 C496 1.372 . S
C497 C498 1.400 . S
C497 C502 1.490 . S
C498 H488 0.930 . S
C498 C497 1.400 . S
C498 C501 1.386 . S
H499 C515 0.930 . S
H500 C516 0.931 . S
C501 H489 0.929 . S
C501 C495 1.390 . S
C501 C498 1.386 . S
C502 C497 1.490 . S
C502 C504 1.395 . S
C502 C505 1.403 . S
H503 C509 0.930 . S
C504 H490 0.930 . S
C504 C502 1.395 . S
C504 C507 1.403 . S
C505 C502 1.403 . S
C505 C506 1.524 . S
C505 C509 1.400 . S
C506 H491 0.960 . S
C506 H492 0.960 . S
C506 H493 0.960 . S
C506 C505 1.524 . S
C507 C504 1.403 . S
C507 C508 1.392 . S
C507 C511 1.495 . S
C508 C507 1.392 . S
C508 C509 1.385 . S
C508 C510 1.478 . S
C509 H503 0.930 . S
C509 C505 1.400 . S
C509 C508 1.385 . S
C510 C508 1.478 . S
C510 C512 1.381 . S
C510 C516 1.383 . S
C511 C507 1.495 . S
C511 H517 0.959 . S
C511 H518 0.961 . S
C511 H519 0.960 . S
C512 C510 1.381 . S
C512 C513 1.394 . S
C512 H520 0.930 . S
C513 C512 1.394 . S
C513 C514 1.383 . S
C513 H521 0.929 . S
C514 C513 1.383 . S
C514 C515 1.377 . S
C515 H499 0.930 . S
C515 C514 1.377 . S
C515 C516 1.379 . S
C516 H500 0.931 . S
C516 C510 1.383 . S
C516 C515 1.379 . S
H517 C511 0.959 . S
H518 C511 0.961 . S
H519 C511 0.960 . S
H520 C512 0.930 . S
H521 C513 0.929 . S
H522 C530 0.929 . S
H523 C532 0.930 . S
H524 C534 0.930 . S
H525 C537 0.929 . S
H526 C540 0.930 . S
H527 C542 0.960 . S
H528 C542 0.960 . S
H529 C542 0.960 . S
C530 H522 0.929 . S
C530 C531 1.377 . S
C530 C532 1.384 . S
C531 C530 1.377 . S
C531 C537 1.390 . S
C532 H523 0.930 . S
C532 C530 1.384 . S
C532 C533 1.372 . S
C533 C532 1.372 . S
C533 C534 1.400 . S
C533 C538 1.490 . S
C534 H524 0.930 . S
C534 C533 1.400 . S
C534 C537 1.386 . S
H535 C551 0.930 . S
H536 C552 0.931 . S
C537 H525 0.929 . S
C537 C531 1.390 . S
C537 C534 1.386 . S
C538 C533 1.490 . S
C538 C540 1.395 . S
C538 C541 1.403 . S
H539 C545 0.930 . S
C540 H526 0.930 . S
C540 C538 1.395 . S
C540 C543 1.403 . S
C541 C538 1.403 . S
C541 C542 1.524 . S
C541 C545 1.400 . S
C542 H527 0.960 . S
C542 H528 0.960 . S
C542 H529 0.960 . S
C542 C541 1.524 . S
C543 C540 1.403 . S
C543 C544 1.392 . S
C543 C547 1.495 . S
C544 C543 1.392 . S
C544 C545 1.385 . S
C544 C546 1.478 . S
C545 H539 0.930 . S
C545 C541 1.400 . S
C545 C544 1.385 . S
C546 C544 1.478 . S
C546 C548 1.381 . S
C546 C552 1.383 . S
C547 C543 1.495 . S
C547 H553 0.959 . S
C547 H554 0.961 . S
C547 H555 0.960 . S
C548 C546 1.381 . S
C548 C549 1.394 . S
C548 H556 0.930 . S
C549 C548 1.394 . S
C549 C550 1.383 . S
C549 H557 0.929 . S
C550 C549 1.383 . S
C550 C551 1.377 . S
C551 H535 0.930 . S
C551 C550 1.377 . S
C551 C552 1.379 . S
C552 H536 0.931 . S
C552 C546 1.383 . S
C552 C551 1.379 . S
H553 C547 0.959 . S
H554 C547 0.961 . S
H555 C547 0.960 . S
H556 C548 0.930 . S
H557 C549 0.929 . S
H558 C566 0.929 . S
H559 C568 0.930 . S
H560 C570 0.930 . S
H561 C573 0.929 . S
H562 C576 0.930 . S
H563 C578 0.960 . S
H564 C578 0.960 . S
H565 C578 0.960 . S
C566 H558 0.929 . S
C566 C567 1.377 . S
C566 C568 1.384 . S
C567 C566 1.377 . S
C567 C573 1.390 . S
C568 H559 0.930 . S
C568 C566 1.384 . S
C568 C569 1.372 . S
C569 C568 1.372 . S
C569 C570 1.400 . S
C569 C574 1.490 . S
C570 H560 0.930 . S
C570 C569 1.400 . S
C570 C573 1.386 . S
H571 C587 0.930 . S
H572 C588 0.931 . S
C573 H561 0.929 . S
C573 C567 1.390 . S
C573 C570 1.386 . S
C574 C569 1.490 . S
C574 C576 1.395 . S
C574 C577 1.403 . S
H575 C581 0.930 . S
C576 H562 0.930 . S
C576 C574 1.395 . S
C576 C579 1.403 . S
C577 C574 1.403 . S
C577 C578 1.524 . S
C577 C581 1.400 . S
C578 H563 0.960 . S
C578 H564 0.960 . S
C578 H565 0.960 . S
C578 C577 1.524 . S
C579 C576 1.403 . S
C579 C580 1.392 . S
C579 C583 1.495 . S
C580 C579 1.392 . S
C580 C581 1.385 . S
C580 C582 1.478 . S
C581 H575 0.930 . S
C581 C577 1.400 . S
C581 C580 1.385 . S
C582 C580 1.478 . S
C582 C584 1.381 . S
C582 C588 1.383 . S
C583 C579 1.495 . S
C583 H589 0.959 . S
C583 H590 0.961 . S
C583 H591 0.960 . S
C584 C582 1.381 . S
C584 C585 1.394 . S
C584 H592 0.930 . S
C585 C584 1.394 . S
C585 C586 1.383 . S
C585 H593 0.929 . S
C586 C585 1.383 . S
C586 C587 1.377 . S
C587 H571 0.930 . S
C587 C586 1.377 . S
C587 C588 1.379 . S
C588 H572 0.931 . S
C588 C582 1.383 . S
C588 C587 1.379 . S
H589 C583 0.959 . S
H590 C583 0.961 . S
H591 C583 0.960 . S
H592 C584 0.930 . S
H593 C585 0.929 . S
H594 C602 0.929 . S
H595 C604 0.930 . S
H596 C606 0.930 . S
H597 C609 0.929 . S
H598 C612 0.930 . S
H599 C614 0.960 . S
H600 C614 0.960 . S
H601 C614 0.960 . S
C602 H594 0.929 . S
C602 C603 1.377 . S
C602 C604 1.384 . S
C603 C602 1.377 . S
C603 C609 1.390 . S
C604 H595 0.930 . S
C604 C602 1.384 . S
C604 C605 1.372 . S
C605 C604 1.372 . S
C605 C606 1.400 . S
C605 C610 1.490 . S
C606 H596 0.930 . S
C606 C605 1.400 . S
C606 C609 1.386 . S
H607 C623 0.930 . S
H608 C624 0.931 . S
C609 H597 0.929 . S
C609 C603 1.390 . S
C609 C606 1.386 . S
C610 C605 1.490 . S
C610 C612 1.395 . S
C610 C613 1.403 . S
H611 C617 0.930 . S
C612 H598 0.930 . S
C612 C610 1.395 . S
C612 C615 1.403 . S
C613 C610 1.403 . S
C613 C614 1.524 . S
C613 C617 1.400 . S
C614 H599 0.960 . S
C614 H600 0.960 . S
C614 H601 0.960 . S
C614 C613 1.524 . S
C615 C612 1.403 . S
C615 C616 1.392 . S
C615 C619 1.495 . S
C616 C615 1.392 . S
C616 C617 1.385 . S
C616 C618 1.478 . S
C617 H611 0.930 . S
C617 C613 1.400 . S
C617 C616 1.385 . S
C618 C616 1.478 . S
C618 C620 1.381 . S
C618 C624 1.383 . S
C619 C615 1.495 . S
C619 H625 0.959 . S
C619 H626 0.961 . S
C619 H627 0.960 . S
C620 C618 1.381 . S
C620 C621 1.394 . S
C620 H628 0.930 . S
C621 C620 1.394 . S
C621 C622 1.383 . S
C621 H629 0.929 . S
C622 C621 1.383 . S
C622 C623 1.377 . S
C623 H607 0.930 . S
C623 C622 1.377 . S
C623 C624 1.379 . S
C624 H608 0.931 . S
C624 C618 1.383 . S
C624 C623 1.379 . S
H625 C619 0.959 . S
H626 C619 0.961 . S
H627 C619 0.960 . S
H628 C620 0.930 . S
H629 C621 0.929 . S
H630 C638 0.929 . S
H631 C640 0.930 . S
H632 C642 0.930 1_655 S
H633 C645 0.929 1_655 S
H634 C648 0.930 . S
H635 C650 0.960 . S
H636 C650 0.960 . S
H637 C650 0.960 . S
C638 H630 0.929 . S
C638 C639 1.377 . S
C638 C640 1.384 . S
C639 C638 1.377 . S
C639 C645 1.390 . S
C640 H631 0.930 . S
C640 C638 1.384 . S
C640 C641 1.372 . S
C641 C640 1.372 . S
C641 C642 1.400 . S
C641 C646 1.490 . S
C642 H632 0.930 1_455 S
C642 C641 1.400 . S
C642 C645 1.386 . S
H643 C659 0.930 . S
H644 C660 0.931 . S
C645 H633 0.929 1_455 S
C645 C639 1.390 . S
C645 C642 1.386 . S
C646 C641 1.490 . S
C646 C648 1.395 . S
C646 C649 1.403 . S
H647 C653 0.930 . S
C648 H634 0.930 . S
C648 C646 1.395 . S
C648 C651 1.403 . S
C649 C646 1.403 . S
C649 C650 1.524 1_455 S
C649 C653 1.400 1_554 S
C650 H635 0.960 . S
C650 H636 0.960 . S
C650 H637 0.960 . S
C650 C649 1.524 1_655 S
C651 C648 1.403 . S
C651 C652 1.392 1_554 S
C651 C655 1.495 . S
C652 C651 1.392 1_556 S
C652 C653 1.385 . S
C652 C654 1.478 . S
C653 H647 0.930 . S
C653 C649 1.400 1_556 S
C653 C652 1.385 . S
C654 C652 1.478 . S
C654 C656 1.381 . S
C654 C660 1.383 . S
C655 C651 1.495 . S
C655 H661 0.959 . S
C655 H662 0.961 1_554 S
C655 H663 0.960 1_554 S
C656 C654 1.381 . S
C656 C657 1.394 . S
C656 H664 0.930 . S
C657 C656 1.394 . S
C657 C658 1.383 . S
C657 H665 0.929 . S
C658 C657 1.383 . S
C658 C659 1.377 . S
C659 H643 0.930 . S
C659 C658 1.377 . S
C659 C660 1.379 . S
C660 H644 0.931 . S
C660 C654 1.383 . S
C660 C659 1.379 . S
H661 C655 0.959 . S
H662 C655 0.961 1_556 S
H663 C655 0.960 1_556 S
H664 C656 0.930 . S
H665 C657 0.929 . S
H666 C674 0.929 . S
H667 C676 0.930 . S
H668 C678 0.930 1_565 S
H669 C681 0.929 1_565 S
H670 C684 0.930 . S
H671 C686 0.960 . S
H672 C686 0.960 . S
H673 C686 0.960 1_565 S
C674 H666 0.929 . S
C674 C675 1.377 . S
C674 C676 1.384 . S
C675 C674 1.377 . S
C675 C681 1.390 . S
C676 H667 0.930 . S
C676 C674 1.384 . S
C676 C677 1.372 . S
C677 C676 1.372 . S
C677 C678 1.400 . S
C677 C682 1.490 . S
C678 H668 0.930 1_545 S
C678 C677 1.400 . S
C678 C681 1.386 . S
H679 C695 0.930 1_565 S
H680 C696 0.931 1_565 S
C681 H669 0.929 1_545 S
C681 C675 1.390 . S
C681 C678 1.386 . S
C682 C677 1.490 . S
C682 C684 1.395 . S
C682 C685 1.403 . S
H683 C689 0.930 . S
C684 H670 0.930 . S
C684 C682 1.395 . S
C684 C687 1.403 . S
C685 C682 1.403 . S
C685 C686 1.524 . S
C685 C689 1.400 . S
C686 H671 0.960 . S
C686 H672 0.960 . S
C686 H673 0.960 1_545 S
C686 C685 1.524 . S
C687 C684 1.403 . S
C687 C688 1.392 . S
C687 C691 1.495 . S
C688 C687 1.392 . S
C688 C689 1.385 . S
C688 C690 1.478 . S
C689 H683 0.930 . S
C689 C685 1.400 . S
C689 C688 1.385 . S
C690 C688 1.478 . S
C690 C692 1.381 . S
C690 C696 1.383 . S
C691 C687 1.495 . S
C691 H697 0.959 . S
C691 H698 0.961 . S
C691 H699 0.960 . S
C692 C690 1.381 . S
C692 C693 1.394 . S
C692 H700 0.930 . S
C693 C692 1.394 . S
C693 C694 1.383 . S
C693 H701 0.929 . S
C694 C693 1.383 . S
C694 C695 1.377 . S
C695 H679 0.930 1_545 S
C695 C694 1.377 . S
C695 C696 1.379 . S
C696 H680 0.931 1_545 S
C696 C690 1.383 . S
C696 C695 1.379 . S
H697 C691 0.959 . S
H698 C691 0.961 . S
H699 C691 0.960 . S
H700 C692 0.930 . S
H701 C693 0.929 . S
H702 C710 0.929 . S
H703 C712 0.930 . S
H704 C714 0.930 . S
H705 C717 0.929 . S
H706 C720 0.930 . S
H707 C722 0.960 . S
H708 C722 0.960 . S
H709 C722 0.960 . S
C710 H702 0.929 . S
C710 C711 1.377 . S
C710 C712 1.384 . S
C711 C710 1.377 . S
C711 C717 1.390 . S
C712 H703 0.930 . S
C712 C710 1.384 . S
C712 C713 1.372 . S
C713 C712 1.372 . S
C713 C714 1.400 . S
C713 C718 1.490 . S
C714 H704 0.930 . S
C714 C713 1.400 . S
C714 C717 1.386 . S
H715 C731 0.930 . S
H716 C732 0.931 . S
C717 H705 0.929 . S
C717 C711 1.390 . S
C717 C714 1.386 . S
C718 C713 1.490 . S
C718 C720 1.395 . S
C718 C721 1.403 . S
H719 C725 0.930 . S
C720 H706 0.930 . S
C720 C718 1.395 . S
C720 C723 1.403 . S
C721 C718 1.403 . S
C721 C722 1.524 . S
C721 C725 1.400 . S
C722 H707 0.960 . S
C722 H708 0.960 . S
C722 H709 0.960 . S
C722 C721 1.524 . S
C723 C720 1.403 . S
C723 C724 1.392 . S
C723 C727 1.495 . S
C724 C723 1.392 . S
C724 C725 1.385 . S
C724 C726 1.478 . S
C725 H719 0.930 . S
C725 C721 1.400 . S
C725 C724 1.385 . S
C726 C724 1.478 . S
C726 C728 1.381 . S
C726 C732 1.383 . S
C727 C723 1.495 . S
C727 H733 0.959 . S
C727 H734 0.961 . S
C727 H735 0.960 . S
C728 C726 1.381 . S
C728 C729 1.394 . S
C728 H736 0.930 . S
C729 C728 1.394 . S
C729 C730 1.383 . S
C729 H737 0.929 . S
C730 C729 1.383 . S
C730 C731 1.377 . S
C731 H715 0.930 . S
C731 C730 1.377 . S
C731 C732 1.379 . S
C732 H716 0.931 . S
C732 C726 1.383 . S
C732 C731 1.379 . S
H733 C727 0.959 . S
H734 C727 0.961 . S
H735 C727 0.960 . S
H736 C728 0.930 . S
H737 C729 0.929 . S
H738 C746 0.929 . S
H739 C748 0.930 . S
H740 C750 0.930 . S
H741 C753 0.929 . S
H742 C756 0.930 . S
H743 C758 0.960 . S
H744 C758 0.960 1_545 S
H745 C758 0.960 . S
C746 H738 0.929 . S
C746 C747 1.377 . S
C746 C748 1.384 . S
C747 C746 1.377 . S
C747 C753 1.390 1_545 S
C748 H739 0.930 . S
C748 C746 1.384 . S
C748 C749 1.372 . S
C749 C748 1.372 . S
C749 C750 1.400 1_545 S
C749 C754 1.490 . S
C750 H740 0.930 . S
C750 C749 1.400 1_565 S
C750 C753 1.386 . S
H751 C767 0.930 . S
H752 C768 0.931 . S
C753 H741 0.929 . S
C753 C747 1.390 1_565 S
C753 C750 1.386 . S
C754 C749 1.490 . S
C754 C756 1.395 . S
C754 C757 1.407 . S
H755 C761 0.930 1_565 S
C756 H742 0.930 . S
C756 C754 1.395 . S
C756 C759 1.403 . S
C757 C754 1.407 . S
C757 C758 1.518 1_545 S
C757 C761 1.402 . S
C758 H743 0.960 . S
C758 H744 0.960 1_565 S
C758 H745 0.960 . S
C758 C757 1.518 1_565 S
C759 C756 1.403 . S
C759 C760 1.392 . S
C759 C763 1.495 . S
C760 C759 1.392 . S
C760 C761 1.385 . S
C760 C762 1.478 . S
C761 H755 0.930 1_545 S
C761 C757 1.402 . S
C761 C760 1.385 . S
C762 C760 1.478 . S
C762 C764 1.381 . S
C762 C768 1.383 1_545 S
C763 C759 1.495 . S
C763 H769 0.959 . S
C763 H770 0.961 . S
C763 H771 0.960 . S
C764 C762 1.381 . S
C764 C765 1.394 . S
C764 H772 0.930 . S
C765 C764 1.394 . S
C765 C766 1.383 . S
C765 H773 0.929 . S
C766 C765 1.383 . S
C766 C767 1.377 1_545 S
C767 H751 0.930 . S
C767 C766 1.377 1_565 S
C767 C768 1.379 . S
C768 H752 0.931 . S
C768 C762 1.383 1_565 S
C768 C767 1.379 . S
H769 C763 0.959 . S
H770 C763 0.961 . S
H771 C763 0.960 . S
H772 C764 0.930 . S
H773 C765 0.929 . S
H774 C782 0.929 . S
H775 C784 0.930 . S
H776 C786 0.930 . S
H777 C789 0.929 . S
H778 C792 0.930 . S
H779 C794 0.960 . S
H780 C794 0.960 . S
H781 C794 0.960 . S
C782 H774 0.929 . S
C782 C783 1.377 . S
C782 C784 1.384 . S
C783 C782 1.377 . S
C783 C789 1.390 . S
C784 H775 0.930 . S
C784 C782 1.384 . S
C784 C785 1.372 . S
C785 C784 1.372 . S
C785 C786 1.400 . S
C785 C790 1.490 . S
C786 H776 0.930 . S
C786 C785 1.400 . S
C786 C789 1.386 . S
H787 C803 0.930 . S
H788 C804 0.931 . S
C789 H777 0.929 . S
C789 C783 1.390 . S
C789 C786 1.386 . S
C790 C785 1.490 . S
C790 C792 1.395 . S
C790 C793 1.403 . S
H791 C797 0.943 . S
C792 H778 0.930 . S
C792 C790 1.395 . S
C792 C795 1.403 . S
C793 C790 1.403 . S
C793 C794 1.524 . S
C793 C797 1.400 . S
C794 H779 0.960 . S
C794 H780 0.960 . S
C794 H781 0.960 . S
C794 C793 1.524 . S
C795 C792 1.403 . S
C795 C796 1.392 1_556 S
C795 C799 1.495 1_556 S
C796 C795 1.392 1_554 S
C796 C797 1.385 1_554 S
C796 C798 1.478 . S
C797 H791 0.943 . S
C797 C793 1.400 . S
C797 C796 1.385 1_556 S
C798 C796 1.478 . S
C798 C800 1.381 . S
C798 C804 1.383 . S
C799 C795 1.495 1_554 S
C799 H805 0.959 1_554 S
C799 H806 0.961 . S
C799 H807 0.960 . S
C800 C798 1.381 . S
C800 C801 1.394 . S
C800 H808 0.930 . S
C801 C800 1.394 . S
C801 C802 1.383 . S
C801 H809 0.929 . S
C802 C801 1.383 . S
C802 C803 1.377 . S
C803 H787 0.930 . S
C803 C802 1.377 . S
C803 C804 1.379 . S
C804 H788 0.931 . S
C804 C798 1.383 . S
C804 C803 1.379 . S
H805 C799 0.959 1_556 S
H806 C799 0.961 . S
H807 C799 0.960 . S
H808 C800 0.930 . S
H809 C801 0.929 . S
H810 C818 0.929 1_655 S
H811 C820 0.930 1_655 S
H812 C822 0.930 . S
H813 C825 0.929 . S
H814 C828 0.930 1_655 S
H815 C830 0.960 . S
H816 C830 0.960 . S
H817 C830 0.960 . S
C818 H810 0.929 1_455 S
C818 C819 1.377 . S
C818 C820 1.384 . S
C819 C818 1.377 . S
C819 C825 1.390 . S
C820 H811 0.930 1_455 S
C820 C818 1.384 . S
C820 C821 1.372 . S
C821 C820 1.372 . S
C821 C822 1.400 . S
C821 C826 1.490 . S
C822 H812 0.930 . S
C822 C821 1.400 . S
C822 C825 1.386 . S
H823 C839 0.930 . S
H824 C840 0.931 . S
C825 H813 0.929 . S
C825 C819 1.390 . S
C825 C822 1.386 . S
C826 C821 1.490 . S
C826 C828 1.395 . S
C826 C829 1.403 . S
H827 C833 0.930 . S
C828 H814 0.930 1_455 S
C828 C826 1.395 . S
C828 C831 1.403 . S
C829 C826 1.403 . S
C829 C830 1.524 . S
C829 C833 1.400 . S
C830 H815 0.960 . S
C830 H816 0.960 . S
C830 H817 0.960 . S
C830 C829 1.524 . S
C831 C828 1.403 . S
C831 C832 1.392 . S
C831 C835 1.495 1_455 S
C832 C831 1.392 . S
C832 C833 1.385 . S
C832 C834 1.478 . S
C833 H827 0.930 . S
C833 C829 1.400 . S
C833 C832 1.385 . S
C834 C832 1.478 . S
C834 C836 1.381 . S
C834 C840 1.383 . S
C835 C831 1.495 1_655 S
C835 H841 0.959 . S
C835 H842 0.961 . S
C835 H843 0.960 . S
C836 C834 1.381 . S
C836 C837 1.394 . S
C836 H844 0.930 . S
C837 C836 1.394 . S
C837 C838 1.383 . S
C837 H845 0.929 . S
C838 C837 1.383 . S
C838 C839 1.377 . S
C839 H823 0.930 . S
C839 C838 1.377 . S
C839 C840 1.379 . S
C840 H824 0.931 . S
C840 C834 1.383 . S
C840 C839 1.379 . S
H841 C835 0.959 . S
H842 C835 0.961 . S
H843 C835 0.960 . S
H844 C836 0.930 . S
H845 C837 0.929 . S
C207 C24 2.979 . S
C226 C189 2.773 . S
C243 C66 1.008 . S
C262 C167 1.035 . S
C279 C93 1.639 . S
C298 C180 1.629 . S
C315 C13 2.944 . S
C334 C193 2.897 . S
C370 C163 1.208 . S
C351 C57 1.294 . S
C406 C176 1.812 . S
C387 C104 1.989 . S
C423 C64 1.826 . S
C442 C141 1.788 . S
C459 C97 0.114 . S
C478 C154 0.205 . S
C495 C17 1.253 . S
C514 C124 1.218 . S
C550 C137 1.636 . S
C531 C53 1.786 . S
C586 C150 0.531 . S
C567 C106 0.274 . S
C603 C26 1.007 . S
C622 C128 1.030 . S
C658 C155 1.267 . S
C639 C2 1.245 . S
C675 C63 1.532 . S
C694 C129 1.597 . S
C711 C82 1.438 . S
C730 C142 1.454 . S
C766 C181 1.553 . S
C747 C42 1.523 . S
C802 C194 1.700 . S
C783 C103 1.693 . S
C819 C23 1.518 . S
C838 C168 1.573 . S
