# Generated by pormake.
# Topology zzz, (3,6)-cn, num edge types: 1
# Building blocks:
#     Node 0, Type 0, BuildingBlock: ESEHIV_clean_linker_0, # of connection points: 3
#     Node 1, Type 0, BuildingBlock: ESEHIV_clean_linker_0, # of connection points: 3
#     Node 2, Type 0, BuildingBlock: ESEHIV_clean_linker_0, # of connection points: 3
#     Node 3, Type 0, BuildingBlock: ESEHIV_clean_linker_0, # of connection points: 3
#     Node 4, Type 0, BuildingBlock: ESEHIV_clean_linker_0, # of connection points: 3
#     Node 5, Type 0, BuildingBlock: ESEHIV_clean_linker_0, # of connection points: 3
#     Node 6, Type 0, BuildingBlock: ESEHIV_clean_linker_0, # of connection points: 3
#     Node 7, Type 0, BuildingBlock: ESEHIV_clean_linker_0, # of connection points: 3
#     Node 8, Type 1, BuildingBlock: CUKXOW_clean_sbu_0, # of connection points: 6
#     Node 9, Type 1, BuildingBlock: CUKXOW_clean_sbu_0, # of connection points: 6
#     Node 10, Type 1, BuildingBlock: CUKXOW_clean_sbu_0, # of connection points: 6
#     Node 11, Type 1, BuildingBlock: CUKXOW_clean_sbu_0, # of connection points: 6
#     Edge 12, Type (0, 1), BuildingBlock: EZIPEK_clean_linker_0, # of connection points: 2
#     Edge 13, Type (0, 1), BuildingBlock: EZIPEK_clean_linker_0, # of connection points: 2
#     Edge 14, Type (0, 1), BuildingBlock: EZIPEK_clean_linker_0, # of connection points: 2
#     Edge 15, Type (0, 1), BuildingBlock: EZIPEK_clean_linker_0, # of connection points: 2
#     Edge 16, Type (0, 1), BuildingBlock: EZIPEK_clean_linker_0, # of connection points: 2
#     Edge 17, Type (0, 1), BuildingBlock: EZIPEK_clean_linker_0, # of connection points: 2
#     Edge 18, Type (0, 1), BuildingBlock: EZIPEK_clean_linker_0, # of connection points: 2
#     Edge 19, Type (0, 1), BuildingBlock: EZIPEK_clean_linker_0, # of connection points: 2
#     Edge 20, Type (0, 1), BuildingBlock: EZIPEK_clean_linker_0, # of connection points: 2
#     Edge 21, Type (0, 1), BuildingBlock: EZIPEK_clean_linker_0, # of connection points: 2
#     Edge 22, Type (0, 1), BuildingBlock: EZIPEK_clean_linker_0, # of connection points: 2
#     Edge 23, Type (0, 1), BuildingBlock: EZIPEK_clean_linker_0, # of connection points: 2
#     Edge 24, Type (0, 1), BuildingBlock: EZIPEK_clean_linker_0, # of connection points: 2
#     Edge 25, Type (0, 1), BuildingBlock: EZIPEK_clean_linker_0, # of connection points: 2
#     Edge 26, Type (0, 1), BuildingBlock: EZIPEK_clean_linker_0, # of connection points: 2
#     Edge 27, Type (0, 1), BuildingBlock: EZIPEK_clean_linker_0, # of connection points: 2
#     Edge 28, Type (0, 1), BuildingBlock: EZIPEK_clean_linker_0, # of connection points: 2
#     Edge 29, Type (0, 1), BuildingBlock: EZIPEK_clean_linker_0, # of connection points: 2
#     Edge 30, Type (0, 1), BuildingBlock: EZIPEK_clean_linker_0, # of connection points: 2
#     Edge 31, Type (0, 1), BuildingBlock: EZIPEK_clean_linker_0, # of connection points: 2
#     Edge 32, Type (0, 1), BuildingBlock: EZIPEK_clean_linker_0, # of connection points: 2
#     Edge 33, Type (0, 1), BuildingBlock: EZIPEK_clean_linker_0, # of connection points: 2
#     Edge 34, Type (0, 1), BuildingBlock: EZIPEK_clean_linker_0, # of connection points: 2
#     Edge 35, Type (0, 1), BuildingBlock: EZIPEK_clean_linker_0, # of connection points: 2
# Relax obj value: 0.204
# Max RMSD: 0.229
# Mean RMSD: 0.181
data_MOF--net-zzz--node1-CUKXOW_clean_sbu_0--node2-ESEHIV_clean_linker_0--edge1-EZIPEK_clean_linker_0
_symmetry_space_group_name_H-M    P1
_symmetry_Int_Tables_number       1
_symmetry_cell_setting            triclinic
loop_
_symmetry_equiv_pos_as_xyz
'x, y, z'
_cell_length_a     31.22933
_cell_length_b     32.407195
_cell_length_c     11.615277
_cell_angle_alpha  93.405301
_cell_angle_beta   86.974224
_cell_angle_gamma 96.101087
loop_
_atom_site_label
_atom_site_type_symbol
_atom_site_fract_x
_atom_site_fract_y
_atom_site_fract_z
_atom_type_partial_charge
H0 H 0.82664 0.47781 0.23674 0.0
H1 H 0.75942 0.47092 0.92252 0.0
H2 H 0.68996 0.4862 0.25191 0.0
C3 C 0.79656 0.47699 0.19329 0.0
C4 C 0.75876 0.48307 0.25837 0.0
C5 C 0.79725 0.47344 0.073 0.0
C6 C 0.75876 0.47324 0.01611 0.0
C7 C 0.71941 0.47621 0.07979 0.0
C8 C 0.71959 0.48182 0.20201 0.0
H9 H 0.02343 0.83962 0.28257 0.0
H10 H 0.02641 0.76802 0.95956 0.0
H11 H 0.97532 0.71035 0.27058 0.0
C12 C 0.01786 0.81003 0.23395 0.0
C13 C 0.99799 0.77549 0.28951 0.0
C14 C 0.02675 0.80809 0.11471 0.0
C15 C 0.01911 0.76993 0.05192 0.0
C16 C 1.0019 0.73425 0.10864 0.0
C17 C 0.99024 0.73733 0.22732 0.0
H18 H 0.69649 0.05718 0.2853 0.0
H19 H 0.78847 0.06502 -0.00188 0.0
H20 H 0.82311 0.01998 0.3196 0.0
C21 C 0.72922 0.055 0.25065 0.0
C22 C 0.75851 0.03847 0.31718 0.0
C23 C 0.73946 0.06385 0.13559 0.0
C24 C 0.78105 0.05954 0.08855 0.0
C25 C 0.81198 0.04477 0.15517 0.0
C26 C 0.80044 0.03371 0.26989 0.0
H27 H 0.5689 0.63116 0.98941 0.0
H28 H 0.58384 0.73108 0.2482 0.0
H29 H 0.56686 0.75634 0.89361 0.0
C30 C 0.57363 0.66429 0.01182 0.0
C31 C 0.56736 0.69233 0.92922 0.0
C32 C 0.57971 0.67771 0.1265 0.0
C33 C 0.58203 0.72047 0.15819 0.0
C34 C 0.57851 0.74906 0.073 0.0
C35 C 0.57201 0.73472 0.95814 0.0
H36 H 0.1651 0.53467 0.1639 0.0
H37 H 0.22892 0.53496 0.48173 0.0
H38 H 0.29817 0.51095 0.15687 0.0
C39 C 0.19449 0.53304 0.20877 0.0
C40 C 0.23159 0.52294 0.14592 0.0
C41 C 0.19301 0.5364 0.32909 0.0
C42 C 0.23035 0.53313 0.38809 0.0
C43 C 0.26896 0.5252 0.32661 0.0
C44 C 0.26942 0.51952 0.20464 0.0
H45 H 0.03317 0.15687 0.24699 0.0
H46 H 0.98659 0.23662 0.5231 0.0
H47 H 0.04581 0.2889 0.21328 0.0
C48 C 0.02601 0.1876 0.27977 0.0
C49 C 0.04034 0.22209 0.21623 0.0
C50 C 1.00756 0.19261 0.391 0.0
C51 C 0.9997 0.23244 0.43538 0.0
C52 C 0.01267 0.26733 0.37029 0.0
C53 C 0.03367 0.26206 0.2612 0.0
H54 H 0.40401 0.97049 0.242 0.0
H55 H 0.31415 0.96434 0.5348 0.0
H56 H 0.27245 0.9917 0.20072 0.0
C57 C 0.37152 0.97235 0.27875 0.0
C58 C 0.33997 0.98336 0.20921 0.0
C59 C 0.36295 0.96622 0.3961 0.0
C60 C 0.32091 0.96881 0.44363 0.0
C61 C 0.28747 0.97673 0.37323 0.0
C62 C 0.2974 0.98445 0.25533 0.0
H63 H 0.37728 0.31961 0.36426 0.0
H64 H 0.47125 0.24743 0.19706 0.0
H65 H 0.42434 0.22204 0.54201 0.0
C66 C 0.39562 0.29318 0.36669 0.0
C67 C 0.40083 0.27484 0.47161 0.0
C68 C 0.42157 0.28437 0.26865 0.0
C69 C 0.44844 0.25227 0.26893 0.0
C70 C 0.44801 0.22877 0.36711 0.0
C71 C 0.42225 0.23891 0.46542 0.0
Tb72 Tb 0.01985 0.96496 0.68636 0.0
C73 C 0.12052 0.98545 0.6174 0.0
Tb74 Tb 0.07212 0.03694 0.81901 0.0
O75 O 0.98933 0.00784 0.58477 0.0
O76 O 0.04891 0.02482 0.65319 0.0
O77 O 0.08449 0.95998 0.60328 0.0
C78 C 0.0924 0.11724 0.88236 0.0
O79 O 0.12238 0.01872 0.69118 0.0
C80 C 0.07173 0.9642 0.90329 0.0
C81 C 0.97035 0.0147 0.88568 0.0
O82 O 0.11188 0.08638 0.91378 0.0
O83 O 0.06109 0.1021 0.81864 0.0
O84 O 0.10199 -0.00562 0.92298 0.0
O85 O 0.04177 0.9782 0.85428 0.0
O86 O 1.00702 0.03892 0.90401 0.0
O87 O 0.9684 0.98289 0.80773 0.0
C88 C 0.9906 0.88591 0.63406 0.0
O89 O 0.9773 0.91839 0.59192 0.0
O90 O 0.0218 0.89831 0.70135 0.0
C91 C 0.01847 0.0389 0.60625 0.0
Tb92 Tb 0.54212 0.04521 0.69415 0.0
C93 C 0.63129 0.00728 0.66322 0.0
Tb94 Tb 0.55807 0.97145 0.83899 0.0
O95 O 0.5896 0.08778 0.78526 0.0
O96 O 0.55908 0.03727 0.86622 0.0
O97 O 0.60176 0.02562 0.61259 0.0
C98 C 0.57182 0.91535 0.9913 0.0
O99 O 0.62315 0.98845 0.7622 0.0
C100 C 0.51288 0.94965 0.65243 0.0
C101 C 0.46829 0.00842 0.86705 0.0
O102 O 0.59258 0.92045 0.89238 0.0
O103 O 0.54457 0.94278 0.00546 0.0
O104 O 0.5135 0.92737 0.74073 0.0
O105 O 0.54126 0.97985 0.6681 0.0
O106 O 0.49799 0.99083 0.9191 0.0
O107 O 0.47677 0.02686 0.76766 0.0
C108 C 0.52536 0.10214 0.54923 0.0
O109 O 0.51113 0.10001 0.65605 0.0
O110 O 0.54762 0.07119 0.52275 0.0
C111 C 0.5885 0.06702 0.87706 0.0
Tb112 Tb 0.5178 0.48926 0.5816 0.0
C113 C 0.41479 0.50069 0.60099 0.0
Tb114 Tb 0.46441 0.47495 0.81051 0.0
O115 O 0.51444 0.42205 0.53366 0.0
O116 O 0.46841 0.44743 0.64325 0.0
O117 O 0.45227 0.50231 0.53902 0.0
C118 C 0.43609 0.41799 0.95871 0.0
O119 O 0.41117 0.48911 0.70962 0.0
C120 C 0.49464 0.55164 0.77632 0.0
C121 C 0.56688 0.47161 0.80749 0.0
O122 O 0.45745 0.41146 0.86211 0.0
O123 O 0.42929 0.45721 0.97219 0.0
O124 O 0.46208 0.54158 0.84898 0.0
O125 O 0.51185 0.51917 0.74499 0.0
O126 O 0.52922 0.46816 0.86691 0.0
O127 O 0.57051 0.48016 0.69605 0.0
C128 C 0.54624 0.54069 0.41825 0.0
O129 O 0.56017 0.50452 0.42821 0.0
O130 O 0.51669 0.54682 0.49753 0.0
C131 C 0.48141 0.41379 0.60544 0.0
Tb132 Tb 0.95043 0.51144 0.65313 0.0
C133 C 0.99858 0.43333 0.5721 0.0
Tb134 Tb 0.04064 0.50017 0.75336 0.0
O135 O 0.98276 0.5245 0.4838 0.0
O136 O 0.01522 0.53645 0.63448 0.0
O137 O 0.96056 0.44817 0.59091 0.0
C138 C 0.1243 0.49575 0.79503 0.0
O139 O 0.03513 0.45289 0.61102 0.0
C140 C 0.97061 0.47537 0.87845 0.0
C141 C 0.99342 0.5774 0.83924 0.0
O142 O 0.10884 0.52562 0.74593 0.0
O143 O 0.09203 0.46865 0.82139 0.0
O144 O 1.00769 0.48701 0.92234 0.0
O145 O 0.97594 0.47502 0.77109 0.0
O146 O 0.03134 0.56306 0.8154 0.0
O147 O 0.95665 0.55876 0.7979 0.0
C148 C 0.86631 0.51351 0.61059 0.0
O149 O 0.88281 0.48425 0.65963 0.0
O150 O 0.89784 0.54162 0.58545 0.0
C151 C 0.02008 0.53568 0.52687 0.0
C152 C 0.2206 0.94041 0.47197 0.0
C153 C 0.24228 0.97697 0.42466 0.0
C154 C 0.17741 0.01228 0.47127 0.0
C155 C 0.15962 0.97935 0.53959 0.0
N156 N 0.16391 0.91039 0.60239 0.0
N157 N 0.24239 0.05017 0.39449 0.0
C158 C 0.18094 0.94271 0.53854 0.0
C159 C 0.22092 0.01359 0.42805 0.0
N160 N 0.23706 0.90319 0.44957 0.0
N161 N 0.15169 0.04089 0.44097 0.0
H162 H 0.27475 0.05308 0.36626 0.0
H163 H 0.2291 0.0784 0.40572 0.0
H164 H 0.11853 0.03732 0.45975 0.0
H165 H 0.16194 0.06397 0.38388 0.0
H166 H 0.22087 0.87484 0.47208 0.0
H167 H 0.26505 0.90012 0.39808 0.0
H168 H 0.18057 0.8852 0.61742 0.0
H169 H 0.13369 0.90967 0.64498 0.0
C170 C 0.47985 0.16055 0.32447 0.0
C171 C 0.48126 0.20031 0.3824 0.0
C172 C 0.52696 0.17855 0.52704 0.0
C173 C 0.52108 0.13758 0.47678 0.0
N174 N 0.51444 0.09705 0.29667 0.0
N175 N 0.52052 0.25167 0.50595 0.0
C176 C 0.50491 0.13081 0.36487 0.0
C177 C 0.51009 0.21086 0.47249 0.0
N178 N 0.45315 0.15038 0.23568 0.0
N179 N 0.54808 0.18629 0.62732 0.0
H180 H 0.50889 0.27572 0.4649 0.0
H181 H 0.54351 0.26175 0.56591 0.0
H182 H 0.56461 0.16405 0.66253 0.0
H183 H 0.54857 0.2143 0.67627 0.0
H184 H 0.44793 0.12025 0.19907 0.0
H185 H 0.43453 0.17152 0.20336 0.0
H186 H 0.50536 0.09195 0.21152 0.0
H187 H 0.53655 0.07763 0.32045 0.0
C188 C 0.30597 0.48301 0.4578 0.0
C189 C 0.3072 0.51892 0.39343 0.0
C190 C 0.37746 0.54464 0.47167 0.0
C191 C 0.37547 0.50917 0.54012 0.0
N192 N 0.33087 0.4502 0.61866 0.0
N193 N 0.34036 0.58706 0.35107 0.0
C194 C 0.3376 0.48027 0.54011 0.0
C195 C 0.34205 0.55057 0.4033 0.0
N196 N 0.27545 0.45031 0.43636 0.0
N197 N 0.41296 0.57324 0.47366 0.0
H198 H 0.31542 0.59209 0.29897 0.0
H199 H 0.36196 0.61342 0.36471 0.0
H200 H 0.43679 0.57352 0.5332 0.0
H201 H 0.41949 0.59631 0.41474 0.0
H202 H 0.27596 0.42129 0.47007 0.0
H203 H 0.25206 0.45071 0.37565 0.0
H204 H 0.30086 0.43357 0.63377 0.0
H205 H 0.35362 0.44294 0.67403 0.0
C206 C 0.97974 0.33503 0.37412 0.0
C207 C 1.00819 0.30983 0.42119 0.0
C208 C 0.02287 0.36252 0.57693 0.0
C209 C 0.99981 0.3904 0.52086 0.0
N210 N 0.95918 0.40431 0.35805 0.0
N211 N 0.06444 0.30384 0.55238 0.0
C212 C 0.97883 0.37699 0.4173 0.0
C213 C 0.03203 0.32482 0.51817 0.0
N214 N 0.95264 0.31852 0.29076 0.0
N215 N 0.03396 0.37076 0.68895 0.0
H216 H 0.07338 0.27684 0.50883 0.0
H217 H 0.08541 0.31577 0.61597 0.0
H218 H 0.02478 0.39635 0.73932 0.0
H219 H 0.04744 0.34946 0.73626 0.0
H220 H 0.92797 0.33396 0.262 0.0
H221 H 0.95227 0.28788 0.25741 0.0
H222 H 0.94821 0.39747 0.27525 0.0
H223 H 0.95655 0.43493 0.38733 0.0
C224 C 0.88556 0.07006 0.07122 0.0
C225 C 0.8544 0.03643 0.09729 0.0
C226 C 0.90154 0.98803 -0.00124 0.0
C227 C 0.93045 0.02212 0.95967 0.0
N228 N 0.94223 0.09639 0.93677 0.0
N229 N 0.82871 0.96409 0.06487 0.0
C230 C 0.92055 0.06344 0.99056 0.0
C231 C 0.86124 -0.00438 0.055 0.0
N232 N 0.88171 0.10847 0.12337 0.0
N233 N 0.91283 0.94835 0.98712 0.0
H234 H 0.79891 0.96807 0.10643 0.0
H235 H 0.82986 0.93492 0.02267 0.0
H236 H 0.94262 0.94067 0.95351 0.0
H237 H 0.89434 0.92326 0.02311 0.0
H238 H 0.90577 0.13321 0.11688 0.0
H239 H 0.85632 0.11436 0.18209 0.0
H240 H 0.93365 0.1266 0.94891 0.0
H241 H 0.96516 0.09313 0.86933 0.0
C242 C 0.61049 0.82245 0.1143 0.0
C243 C 0.57374 0.79341 0.10201 0.0
C244 C 0.53129 0.84776 0.04889 0.0
C245 C 0.56894 0.87651 0.05397 0.0
N246 N 0.63614 0.8952 0.14394 0.0
N247 N 0.49652 0.78078 0.10373 0.0
C248 C 0.60616 0.86512 0.10318 0.0
C249 C 0.53306 0.80721 0.0866 0.0
N250 N 0.64957 0.80923 0.13162 0.0
N251 N 0.49508 0.85768 0.00017 0.0
H252 H 0.49757 0.75077 0.13079 0.0
H253 H 0.46557 0.78995 0.10254 0.0
H254 H 0.49181 0.88683 0.97078 0.0
H255 H 0.46897 0.83594 0.98177 0.0
H256 H 0.6783 0.82878 0.12841 0.0
H257 H 0.65328 0.77819 0.14376 0.0
H258 H 0.66327 0.88892 0.18553 0.0
H259 H 0.62968 0.92611 0.15171 0.0
C260 C 0.65678 0.51059 0.01159 0.0
C261 C 0.67878 0.47458 0.0154 0.0
C262 C 0.63079 0.43846 0.87079 0.0
C263 C 0.60653 0.47312 0.87493 0.0
N264 N 0.59251 0.54015 0.96303 0.0
N265 N 0.68194 0.40169 0.96451 0.0
C266 C 0.61827 0.50848 0.94984 0.0
C267 C 0.66443 0.43778 0.94916 0.0
N268 N 0.67385 0.54755 0.06158 0.0
N269 N 0.62191 0.40627 0.79136 0.0
H270 H 0.70573 0.39975 0.02315 0.0
H271 H 0.67018 0.37293 0.92764 0.0
H272 H 0.59703 0.40547 0.73455 0.0
H273 H 0.64124 0.3821 0.77536 0.0
H274 H 0.6621 0.57584 0.05006 0.0
H275 H 0.70223 0.55075 0.1061 0.0
H276 H 0.59608 0.56368 0.02794 0.0
H277 H 0.56564 0.54145 0.91458 0.0
C278 C 0.02502 0.66307 0.0674 0.0
C279 C 0.99755 0.69329 0.04406 0.0
C280 C 0.96954 0.64918 0.88076 0.0
C281 C 0.9932 0.61673 0.91238 0.0
N282 N 0.03745 0.5909 0.05277 0.0
N283 N 0.93731 0.71194 0.94405 0.0
C284 C 0.01913 0.62307 0.01075 0.0
C285 C 0.96768 0.68527 0.95578 0.0
N286 N 0.05816 0.67305 0.13989 0.0
N287 N 0.95155 0.64726 0.77554 0.0
H288 H 0.93496 0.73864 0.99786 0.0
H289 H 0.91206 0.70541 0.88843 0.0
H290 H 0.95501 0.62326 0.71313 0.0
H291 H 0.9376 0.67198 0.74458 0.0
H292 H 0.08224 0.65373 0.14921 0.0
H293 H 0.06418 0.70219 0.18233 0.0
H294 H 0.0519 0.59304 0.13205 0.0
H295 H 0.0349 0.56092 0.01522 0.0
C296 C 0.97091 0.13126 0.49481 0.0
C297 C 1.00841 0.15794 0.46801 0.0
C298 C 0.0532 0.1112 0.55242 0.0
C299 C 0.01571 0.08312 0.57629 0.0
N300 N 0.93847 0.07658 0.61414 0.0
N301 N 0.08329 0.17966 0.49825 0.0
C302 C 0.97433 0.09619 0.56064 0.0
C303 C 0.04888 0.14979 0.50532 0.0
N304 N 0.93228 0.13868 0.45467 0.0
N305 N 0.09337 0.10152 0.5727 0.0
H306 H 0.08185 0.20806 0.46208 0.0
H307 H 0.11223 0.17823 0.53765 0.0
H308 H 0.09914 0.07946 0.62843 0.0
H309 H 0.12152 0.11617 0.53508 0.0
H310 H 0.90474 0.11757 0.45992 0.0
H311 H 0.92864 0.16481 0.40916 0.0
H312 H 0.908 0.08684 0.61308 0.0
H313 H 0.94011 0.0536 0.67239 0.0
C314 C 0.40275 0.9215 0.51852 0.0
C315 C 0.40002 0.95981 0.46677 0.0
C316 C 0.47667 0.97812 0.49326 0.0
C317 C 0.47713 0.94653 0.57018 0.0
N318 N 0.44378 0.88022 0.63184 0.0
N319 N 0.43418 0.02814 0.42495 0.0
C320 C 0.44099 0.91568 0.57609 0.0
C321 C 0.4369 0.98922 0.46072 0.0
N322 N 0.37021 0.89005 0.50669 0.0
N323 N 0.5141 -0.00559 0.44095 0.0
H324 H 0.40511 0.03871 0.40551 0.0
H325 H 0.46033 0.05086 0.42746 0.0
H326 H 0.54378 0.98408 0.4557 0.0
H327 H 0.51407 0.0131 0.37106 0.0
H328 H 0.37172 0.86009 0.53266 0.0
H329 H 0.34243 0.89299 0.46325 0.0
H330 H 0.41719 0.85976 0.65522 0.0
H331 H 0.47312 0.87095 0.65345 0.0
C332 C 0.43396 0.30252 0.6539 0.0
C333 C 0.39812 0.30081 0.58361 0.0
C334 C 0.41048 0.37414 0.5608 0.0
C335 C 0.45245 0.3746 0.60332 0.0
N336 N 0.50226 0.34019 0.70697 0.0
N337 N 0.33801 0.33847 0.55992 0.0
C338 C 0.46363 0.33914 0.6567 0.0
C339 C 0.38082 0.3386 0.57585 0.0
N340 N 0.43749 0.27039 0.72193 0.0
N341 N 0.40102 0.40428 0.49216 0.0
H342 H 0.31749 0.31082 0.56177 0.0
H343 H 0.32354 0.36566 0.55244 0.0
H344 H 0.42408 0.42782 0.46545 0.0
H345 H 0.37223 0.40232 0.44962 0.0
H346 H 0.46125 0.27053 0.78162 0.0
H347 H 0.4134 0.24546 0.72531 0.0
H348 H 0.51351 0.3141 0.73834 0.0
H349 H 0.52389 0.36701 0.71224 0.0
C350 C 0.11944 0.50174 0.3684 0.0
C351 C 0.15006 0.53646 0.38974 0.0
C352 C 0.09429 0.57259 0.49724 0.0
C353 C 0.06292 0.53934 0.46467 0.0
N354 N 0.04503 0.47901 0.33632 0.0
N355 N 0.16616 0.6074 0.46135 0.0
C356 C 0.07517 0.50597 0.39003 0.0
C357 C 0.13747 0.57263 0.45112 0.0
N358 N 0.13278 0.46443 0.32855 0.0
N359 N 0.08268 0.60435 0.57112 0.0
H360 H 0.19814 0.60819 0.43008 0.0
H361 H 0.15764 0.63617 0.49398 0.0
H362 H 0.05069 0.60791 0.59662 0.0
H363 H 0.10489 0.62635 0.61014 0.0
H364 H 0.11195 0.43713 0.32201 0.0
H365 H 0.16527 0.45987 0.31441 0.0
H366 H 0.05299 0.45597 0.27488 0.0
H367 H 0.01252 0.48322 0.33987 0.0
C368 C 0.01198 0.87965 0.07247 0.0
C369 C 0.03966 0.84754 0.05701 0.0
C370 C 0.09213 0.89379 0.94762 0.0
C371 C 0.06485 0.92598 0.96826 0.0
N372 N 1.00855 0.95385 0.08855 0.0
N373 N 0.10994 0.82645 0.00056 0.0
C374 C 0.02765 0.92023 0.04238 0.0
C375 C 0.08093 0.85517 8e-05 0.0
N376 N 0.97029 0.87116 0.11326 0.0
N377 N 0.12842 0.90007 0.87752 0.0
H378 H 0.10303 0.79818 0.03949 0.0
H379 H 0.14193 0.83187 0.97055 0.0
H380 H 0.13895 0.92895 0.84522 0.0
H381 H 0.14698 0.87644 0.84766 0.0
H382 H 0.9483 0.89324 0.12132 0.0
H383 H 0.95641 0.84114 0.12858 0.0
H384 H 0.98373 0.95164 0.15219 0.0
H385 H 0.02088 0.98431 0.07289 0.0
C386 C 0.6728 0.0323 0.04814 0.0
C387 C 0.70305 0.0675 0.06127 0.0
C388 C 0.65415 0.10805 0.96697 0.0
C389 C 0.62328 0.07219 0.9618 0.0
N390 N 0.59708 0.01267 0.06721 0.0
N391 N 0.72075 0.14116 0.04777 0.0
C392 C 0.63059 0.03773 0.02223 0.0
C393 C 0.69335 0.1063 0.02467 0.0
N394 N 0.68418 0.99338 0.05893 0.0
N395 N 0.64556 0.14375 0.92024 0.0
H396 H 0.74988 0.14012 0.08703 0.0
H397 H 0.71379 0.17108 0.03343 0.0
H398 H 0.61486 0.14828 0.89558 0.0
H399 H 0.66862 0.16889 0.90733 0.0
H400 H 0.66394 0.96748 0.03127 0.0
H401 H 0.71519 0.98762 0.07832 0.0
H402 H 0.60205 0.98969 0.12284 0.0
H403 H 0.56531 0.01966 0.06415 0.0
C404 C 0.57412 0.64863 0.75444 0.0
C405 C 0.5486 0.67484 0.82098 0.0
C406 C 0.48475 0.62706 0.78154 0.0
C407 C 0.51227 0.59539 0.75407 0.0
N408 N 0.58435 0.58179 0.67498 0.0
N409 N 0.47838 0.69583 0.87171 0.0
C410 C 0.55682 0.60773 0.7255 0.0
C411 C 0.5032 0.66688 0.82183 0.0
N412 N 0.6166 0.66138 0.73179 0.0
N413 N 0.4414 0.61886 0.76916 0.0
H414 H 0.49157 0.72576 0.89633 0.0
H415 H 0.44537 0.69008 0.8901 0.0
H416 H 0.42767 0.59019 0.73564 0.0
H417 H 0.4199 0.64137 0.78052 0.0
H418 H 0.63762 0.64251 0.68671 0.0
H419 H 0.62966 0.69148 0.75613 0.0
H420 H 0.57526 0.55159 0.64479 0.0
H421 H 0.57526 0.55159 0.64479 0.0
C422 C 0.85275 0.43816 0.94762 0.0
C423 C 0.83998 0.47405 0.01046 0.0
C424 C 0.91501 0.5035 0.01636 0.0
C425 C 0.9275 0.47099 0.93928 0.0
N426 N 0.90784 0.40731 0.82667 0.0
N427 N 0.85773 0.54559 0.07601 0.0
C428 C 0.8961 0.43841 0.90265 0.0
C429 C 0.87079 0.50836 0.03468 0.0
N430 N 0.82429 0.40329 0.93569 0.0
N431 N 0.94478 0.52848 0.07699 0.0
H432 H 0.82525 0.55047 0.08802 0.0
H433 H 0.879 0.57249 0.08593 0.0
H434 H 0.97642 0.52173 0.08018 0.0
H435 H 0.93654 0.55133 0.13873 0.0
H436 H 0.83311 0.37478 0.90177 0.0
H437 H 0.79233 0.40197 0.96711 0.0
H438 H 0.88564 0.38606 0.78486 0.0
H439 H 0.9399 0.40362 0.80245 0.0
C440 C 0.10718 0.1994 0.11922 0.0
C441 C 0.0667 0.21476 0.10911 0.0
C442 C 0.06436 0.18639 0.91114 0.0
C443 C 0.09576 0.16022 0.93609 0.0
N444 N 0.15965 0.1539 0.03667 0.0
N445 N 1.00961 0.22896 0.99056 0.0
C446 C 0.1218 0.17104 0.03127 0.0
C447 C 0.04682 0.2113 0.00208 0.0
N448 N 0.12974 0.21052 0.21575 0.0
N449 N 0.05179 0.18713 0.80089 0.0
H450 H 0.99681 0.24833 0.05548 0.0
H451 H 0.99083 0.22316 0.91873 0.0
H452 H 0.06727 0.17095 0.73367 0.0
H453 H 0.03066 0.20722 0.77505 0.0
H454 H 0.15883 0.19974 0.23264 0.0
H455 H 0.11943 0.23233 0.2781 0.0
H456 H 0.17981 0.1587 0.10567 0.0
H457 H 0.17206 0.1364 0.96679 0.0
C458 C 0.36343 0.96093 0.01082 0.0
C459 C 0.35472 0.99411 0.08939 0.0
C460 C 0.40848 0.04082 0.98409 0.0
C461 C 0.42383 0.0055 0.92344 0.0
N462 N 0.4137 0.93226 0.87057 0.0
N463 N 0.36186 0.06702 0.14139 0.0
C464 C 0.39995 0.96577 0.93252 0.0
C465 C 0.37441 0.03481 0.07089 0.0
N466 N 0.33728 0.92445 0.01486 0.0
N467 N 0.42762 0.07959 0.96166 0.0
H468 H 0.3363 0.06285 0.20261 0.0
H469 H 0.37595 0.0975 0.13967 0.0
H470 H 0.45311 0.0845 0.90074 0.0
H471 H 0.41694 0.10703 0.99755 0.0
H472 H 0.33943 0.89938 0.95531 0.0
H473 H 0.31062 0.92099 0.07299 0.0
H474 H 0.40143 0.9016 0.88243 0.0
H475 H 0.43893 0.93545 0.80911 0.0
C476 C 0.40294 0.31275 0.08259 0.0
C477 C 0.42779 0.31665 0.18188 0.0
C478 C 0.44966 0.39019 0.14826 0.0
C479 C 0.42753 0.38558 0.04394 0.0
N480 N 0.38506 0.34253 0.90641 0.0
N481 N 0.48038 0.35633 0.3001 0.0
C482 C 0.40477 0.34676 0.0095 0.0
C483 C 0.45273 0.35465 0.21199 0.0
N484 N 0.37675 0.27692 0.06036 0.0
N485 N 0.46775 0.42847 0.18695 0.0
H486 H 0.48345 0.33106 0.34948 0.0
H487 H 0.50318 0.38141 0.3178 0.0
H488 H 0.46797 0.45519 0.14142 0.0
H489 H 0.47956 0.43464 0.26906 0.0
H490 H 0.35408 0.27338 0.99706 0.0
H491 H 0.37626 0.25096 0.10966 0.0
H492 H 0.37226 0.31419 0.8693 0.0
H493 H 0.38271 0.36752 0.85522 0.0
C494 C 0.20752 0.46978 0.99293 0.0
C495 C 0.226 0.51081 0.02136 0.0
C496 C 0.19572 0.535 0.84974 0.0
C497 C 0.16834 0.49723 0.84214 0.0
N498 N 0.16401 0.4236 0.86144 0.0
N499 N 0.24456 0.58102 0.96802 0.0
C500 C 0.17955 0.46276 0.89913 0.0
C501 C 0.22327 0.5427 0.9445 0.0
N502 N 0.21382 0.43857 0.0622 0.0
N503 N 0.1961 0.56256 0.76525 0.0
H504 H 0.26594 0.58634 0.0348 0.0
H505 H 0.24027 0.6073 0.92437 0.0
H506 H 0.17932 0.55534 0.69017 0.0
H507 H 0.21685 0.58986 0.76233 0.0
H508 H 0.19719 0.40901 0.05626 0.0
H509 H 0.23542 0.44292 0.12844 0.0
H510 H 0.17262 0.39662 0.89427 0.0
H511 H 0.14593 0.41828 0.78793 0.0
C512 C 0.94449 0.80353 0.42816 0.0
C513 C 0.98207 0.78263 0.4103 0.0
C514 C 1.00811 0.81234 0.59461 0.0
C515 C 0.97855 0.84236 0.5908 0.0
N516 N 0.90727 0.85487 0.54521 0.0
N517 N 0.04493 0.75925 0.48483 0.0
C518 C 0.94253 0.83375 0.52142 0.0
C519 C 0.01171 0.78351 0.49851 0.0
N520 N 0.91312 0.79688 0.34962 0.0
N521 N 0.03196 0.81144 0.68932 0.0
H522 H 0.04685 0.73724 0.41582 0.0
H523 H 0.07062 0.76161 0.53925 0.0
H524 H 0.02662 0.83018 0.76379 0.0
H525 H 0.05282 0.78905 0.69947 0.0
H526 H 0.88642 0.81352 0.35011 0.0
H527 H 0.91428 0.77401 0.28261 0.0
H528 H 0.8791 0.84989 0.5002 0.0
H529 H 0.90535 0.87542 0.61761 0.0
C530 C 0.73863 0.0491 0.5286 0.0
C531 C 0.74081 0.02176 0.42916 0.0
C532 C 0.67876 0.97691 0.50604 0.0
C533 C 0.67407 0.00629 0.60005 0.0
N534 N 0.70641 0.06243 0.7208 0.0
N535 N 0.72278 0.95379 0.34048 0.0
C536 C 0.70662 0.0397 0.61822 0.0
C537 C 0.71433 0.98339 0.42474 0.0
N538 N 0.7656 0.08513 0.5336 0.0
N539 N 0.64783 0.94415 0.49114 0.0
H540 H 0.74848 0.95835 0.2799 0.0
H541 H 0.70732 0.92371 0.33758 0.0
H542 H 0.62255 0.93774 0.55201 0.0
H543 H 0.6462 0.9244 0.41714 0.0
H544 H 0.76279 0.10896 0.5968 0.0
H545 H 0.79031 0.0915 0.47107 0.0
H546 H 0.73052 0.08567 0.74394 0.0
H547 H 0.6838 0.05484 0.78727 0.0
C548 C 0.53052 0.6252 0.22744 0.0
C549 C 0.57293 0.64514 0.21178 0.0
C550 C 0.60077 0.59217 0.32177 0.0
C551 C 0.55859 0.57105 0.32978 0.0
N552 N 0.48645 0.56086 0.26275 0.0
N553 N 0.64947 0.64482 0.22774 0.0
C554 C 0.52445 0.58563 0.27397 0.0
C555 C 0.60849 0.6278 0.2542 0.0
N556 N 0.49595 0.64436 0.19836 0.0
N557 N 0.63285 0.57926 0.38197 0.0
H558 H 0.6559 0.67182 0.18242 0.0
H559 H 0.67689 0.63096 0.24482 0.0
H560 H 0.62854 0.55263 0.42915 0.0
H561 H 0.663 0.59602 0.38992 0.0
H562 H 0.4641 0.63301 0.21817 0.0
H563 H 0.49909 0.67367 0.16443 0.0
H564 H 0.46169 0.56813 0.21327 0.0
H565 H 0.48158 0.53092 0.29289 0.0
C566 C 0.78071 0.53627 0.41331 0.0
C567 C 0.76427 0.4947 0.38341 0.0
C568 C 0.79648 0.47158 0.55357 0.0
C569 C 0.82228 0.51031 0.56202 0.0
N570 N 0.82379 0.58377 0.54297 0.0
N571 N 0.75028 0.42365 0.43333 0.0
C572 C 0.80934 0.54424 0.50572 0.0
C573 C 0.76921 0.46282 0.45853 0.0
N574 N 0.77148 0.56726 0.34687 0.0
N575 N 0.79715 0.44406 0.63775 0.0
H576 H 0.72902 0.41737 0.36652 0.0
H577 H 0.75658 0.39763 0.47547 0.0
H578 H 0.81347 0.45186 0.71331 0.0
H579 H 0.77735 0.41615 0.64011 0.0
H580 H 0.78588 0.59769 0.35399 0.0
H581 H 0.74926 0.56189 0.28222 0.0
H582 H 0.81445 0.6104 0.50997 0.0
H583 H 0.84203 0.58973 0.61601 0.0
loop_
_geom_bond_atom_site_label_1
_geom_bond_atom_site_label_2
_geom_bond_distance
_geom_bond_site_symmetry_2
_ccdc_geom_bond_type
H0 C3 0.931 . S
H1 C6 0.928 . S
H2 C8 0.930 . S
C3 H0 0.931 . S
C3 C4 1.413 . S
C3 C5 1.360 1_554 S
C4 C3 1.413 . S
C4 C8 1.429 . S
C5 C3 1.360 1_556 S
C5 C6 1.372 . S
C6 H1 0.928 . S
C6 C5 1.372 . S
C6 C7 1.404 1_556 S
C7 C6 1.404 1_554 S
C7 C8 1.391 . S
C8 H2 0.930 . S
C8 C4 1.429 . S
C8 C7 1.391 . S
H9 C12 0.931 . S
H10 C15 0.928 . S
H11 C17 0.930 . S
C12 H9 0.931 . S
C12 C13 1.413 . S
C12 C14 1.360 1_554 S
C13 C12 1.413 . S
C13 C17 1.429 . S
C14 C12 1.360 1_556 S
C14 C15 1.372 . S
C15 H10 0.928 . S
C15 C14 1.372 . S
C15 C16 1.404 . S
C16 C15 1.404 . S
C16 C17 1.391 1_556 S
C17 H11 0.930 . S
C17 C13 1.429 . S
C17 C16 1.391 1_554 S
H18 C21 0.931 . S
H19 C24 0.928 1_556 S
H20 C26 0.930 . S
C21 H18 0.931 . S
C21 C22 1.414 . S
C21 C23 1.360 . S
C22 C21 1.414 . S
C22 C26 1.430 1_565 S
C23 C21 1.360 . S
C23 C24 1.374 . S
C24 H19 0.928 1_554 S
C24 C23 1.374 . S
C24 C25 1.403 . S
C25 C24 1.403 . S
C25 C26 1.391 1_565 S
C26 H20 0.930 . S
C26 C22 1.430 1_545 S
C26 C25 1.391 1_545 S
H27 C30 0.931 . S
H28 C33 0.928 . S
H29 C35 0.930 . S
C30 H27 0.931 . S
C30 C31 1.413 1_554 S
C30 C32 1.360 . S
C31 C30 1.413 1_556 S
C31 C35 1.429 . S
C32 C30 1.360 . S
C32 C33 1.372 . S
C33 H28 0.928 . S
C33 C32 1.372 . S
C33 C34 1.404 . S
C34 C33 1.404 . S
C34 C35 1.391 1_554 S
C35 H29 0.930 . S
C35 C31 1.429 . S
C35 C34 1.391 1_556 S
H36 C39 0.931 . S
H37 C42 0.928 . S
H38 C44 0.930 . S
C39 H36 0.931 . S
C39 C40 1.413 . S
C39 C41 1.360 . S
C40 C39 1.413 . S
C40 C44 1.429 . S
C41 C39 1.360 . S
C41 C42 1.372 . S
C42 H37 0.928 . S
C42 C41 1.372 . S
C42 C43 1.404 . S
C43 C42 1.404 . S
C43 C44 1.391 . S
C44 H38 0.930 . S
C44 C40 1.429 . S
C44 C43 1.391 . S
H45 C48 0.931 . S
H46 C51 0.928 . S
H47 C53 0.930 . S
C48 H45 0.931 . S
C48 C49 1.413 . S
C48 C50 1.360 . S
C49 C48 1.413 . S
C49 C53 1.429 . S
C50 C48 1.360 . S
C50 C51 1.372 . S
C51 H46 0.928 . S
C51 C50 1.372 . S
C51 C52 1.404 . S
C52 C51 1.404 . S
C52 C53 1.391 . S
C53 H47 0.930 . S
C53 C49 1.429 . S
C53 C52 1.391 . S
H54 C57 0.931 . S
H55 C60 0.928 . S
H56 C62 0.930 . S
C57 H54 0.931 . S
C57 C58 1.413 . S
C57 C59 1.360 . S
C58 C57 1.413 . S
C58 C62 1.429 . S
C59 C57 1.360 . S
C59 C60 1.372 . S
C60 H55 0.928 . S
C60 C59 1.372 . S
C60 C61 1.404 . S
C61 C60 1.404 . S
C61 C62 1.391 . S
C62 H56 0.930 . S
C62 C58 1.429 . S
C62 C61 1.391 . S
H63 C66 0.931 . S
H64 C69 0.928 . S
H65 C71 0.930 . S
C66 H63 0.931 . S
C66 C67 1.413 . S
C66 C68 1.360 . S
C67 C66 1.413 . S
C67 C71 1.429 . S
C68 C66 1.360 . S
C68 C69 1.372 . S
C69 H64 0.928 . S
C69 C68 1.372 . S
C69 C70 1.404 . S
C70 C69 1.404 . S
C70 C71 1.391 . S
C71 H65 0.930 . S
C71 C67 1.429 . S
C71 C70 1.391 . S
Tb72 O75 2.453 1_665 S
Tb72 O76 2.596 1_665 S
Tb72 O77 2.374 1_655 S
Tb72 O85 2.343 . S
Tb72 O87 2.353 1_565 S
Tb72 O89 2.427 . S
Tb72 O90 2.513 . S
C73 O77 1.251 . S
C73 O79 1.263 . S
Tb74 O76 2.343 . S
Tb74 O79 2.353 1_545 S
Tb74 O82 2.427 . S
Tb74 O83 2.513 . S
Tb74 O84 2.453 1_545 S
Tb74 O85 2.596 1_445 S
Tb74 O86 2.374 1_455 S
O75 Tb72 2.453 1_445 S
O75 C91 1.245 . S
O76 Tb72 2.596 1_445 S
O76 Tb74 2.343 . S
O76 C91 1.259 . S
O77 Tb72 2.374 1_455 S
O77 C73 1.251 . S
C78 O82 1.275 . S
C78 O83 1.246 . S
O79 C73 1.263 . S
O79 Tb74 2.353 1_565 S
C80 O84 1.245 1_655 S
C80 O85 1.259 . S
C81 O86 1.250 . S
C81 O87 1.263 . S
O82 Tb74 2.427 . S
O82 C78 1.275 . S
O83 Tb74 2.513 . S
O83 C78 1.246 . S
O84 Tb74 2.453 1_565 S
O84 C80 1.245 1_455 S
O85 Tb72 2.343 . S
O85 Tb74 2.596 1_665 S
O85 C80 1.259 . S
O86 Tb74 2.374 1_655 S
O86 C81 1.250 . S
O87 Tb72 2.353 1_545 S
O87 C81 1.263 . S
C88 O89 1.275 . S
C88 O90 1.246 . S
O89 Tb72 2.427 . S
O89 C88 1.275 . S
O90 Tb72 2.513 . S
O90 C88 1.246 . S
C91 O75 1.245 . S
C91 O76 1.259 . S
Tb92 O95 2.453 . S
Tb92 O96 2.596 1_545 S
Tb92 O97 2.374 . S
Tb92 O105 2.343 . S
Tb92 O107 2.353 . S
Tb92 O109 2.427 . S
Tb92 O110 2.513 . S
C93 O97 1.251 . S
C93 O99 1.263 1_545 S
Tb94 O96 2.343 . S
Tb94 O99 2.353 . S
Tb94 O102 2.427 . S
Tb94 O103 2.513 . S
Tb94 O104 2.453 . S
Tb94 O105 2.596 1_565 S
Tb94 O106 2.374 . S
O95 Tb92 2.453 . S
O95 C111 1.245 . S
O96 Tb92 2.596 1_565 S
O96 Tb94 2.343 . S
O96 C111 1.259 1_565 S
O97 Tb92 2.374 . S
O97 C93 1.251 . S
C98 O102 1.275 . S
C98 O103 1.246 . S
O99 C93 1.263 1_565 S
O99 Tb94 2.353 . S
C100 O104 1.245 . S
C100 O105 1.259 1_565 S
C101 O106 1.250 1_545 S
C101 O107 1.263 . S
O102 Tb94 2.427 . S
O102 C98 1.275 . S
O103 Tb94 2.513 . S
O103 C98 1.246 . S
O104 Tb94 2.453 . S
O104 C100 1.245 . S
O105 Tb92 2.343 . S
O105 Tb94 2.596 1_545 S
O105 C100 1.259 1_545 S
O106 Tb94 2.374 . S
O106 C101 1.250 1_565 S
O107 Tb92 2.353 . S
O107 C101 1.263 . S
C108 O109 1.275 . S
C108 O110 1.246 . S
O109 Tb92 2.427 . S
O109 C108 1.275 . S
O110 Tb92 2.513 . S
O110 C108 1.246 . S
C111 O95 1.245 . S
C111 O96 1.259 1_545 S
Tb112 O115 2.453 . S
Tb112 O116 2.596 . S
Tb112 O117 2.374 . S
Tb112 O125 2.343 . S
Tb112 O127 2.353 . S
Tb112 O129 2.427 . S
Tb112 O130 2.513 . S
C113 O117 1.251 . S
C113 O119 1.263 . S
Tb114 O116 2.343 . S
Tb114 O119 2.353 . S
Tb114 O122 2.427 . S
Tb114 O123 2.513 . S
Tb114 O124 2.453 . S
Tb114 O125 2.596 . S
Tb114 O126 2.374 . S
O115 Tb112 2.453 . S
O115 C131 1.245 . S
O116 Tb112 2.596 . S
O116 Tb114 2.343 . S
O116 C131 1.259 . S
O117 Tb112 2.374 . S
O117 C113 1.251 . S
C118 O122 1.275 . S
C118 O123 1.246 . S
O119 C113 1.263 . S
O119 Tb114 2.353 . S
C120 O124 1.245 . S
C120 O125 1.259 . S
C121 O126 1.250 . S
C121 O127 1.263 . S
O122 Tb114 2.427 . S
O122 C118 1.275 . S
O123 Tb114 2.513 . S
O123 C118 1.246 . S
O124 Tb114 2.453 . S
O124 C120 1.245 . S
O125 Tb112 2.343 . S
O125 Tb114 2.596 . S
O125 C120 1.259 . S
O126 Tb114 2.374 . S
O126 C121 1.250 . S
O127 Tb112 2.353 . S
O127 C121 1.263 . S
C128 O129 1.275 . S
C128 O130 1.246 . S
O129 Tb112 2.427 . S
O129 C128 1.275 . S
O130 Tb112 2.513 . S
O130 C128 1.246 . S
C131 O115 1.245 . S
C131 O116 1.259 . S
Tb132 O135 2.453 1_655 S
Tb132 O136 2.596 1_655 S
Tb132 O137 2.374 1_655 S
Tb132 O145 2.343 . S
Tb132 O147 2.353 . S
Tb132 O149 2.427 . S
Tb132 O150 2.513 . S
C133 O137 1.251 . S
C133 O139 1.263 . S
Tb134 O136 2.343 . S
Tb134 O139 2.353 . S
Tb134 O142 2.427 . S
Tb134 O143 2.513 . S
Tb134 O144 2.453 1_455 S
Tb134 O145 2.596 1_455 S
Tb134 O146 2.374 1_455 S
O135 Tb132 2.453 1_455 S
O135 C151 1.245 . S
O136 Tb132 2.596 1_455 S
O136 Tb134 2.343 . S
O136 C151 1.259 . S
O137 Tb132 2.374 1_455 S
O137 C133 1.251 . S
C138 O142 1.275 . S
C138 O143 1.246 . S
O139 C133 1.263 . S
O139 Tb134 2.353 . S
C140 O144 1.245 . S
C140 O145 1.259 . S
C141 O146 1.250 . S
C141 O147 1.263 . S
O142 Tb134 2.427 . S
O142 C138 1.275 . S
O143 Tb134 2.513 . S
O143 C138 1.246 . S
O144 Tb134 2.453 1_655 S
O144 C140 1.245 . S
O145 Tb132 2.343 . S
O145 Tb134 2.596 1_655 S
O145 C140 1.259 . S
O146 Tb134 2.374 1_655 S
O146 C141 1.250 . S
O147 Tb132 2.353 . S
O147 C141 1.263 . S
C148 O149 1.275 . S
C148 O150 1.246 . S
O149 Tb132 2.427 . S
O149 C148 1.275 . S
O150 Tb132 2.513 . S
O150 C148 1.246 . S
C151 O135 1.245 . S
C151 O136 1.259 . S
C152 C153 1.363 1_565 S
C152 C158 1.379 . S
C152 N160 1.356 . S
C153 C152 1.363 1_545 S
C153 C159 1.363 . S
C154 C155 1.363 . S
C154 C159 1.379 . S
C154 N161 1.356 . S
C155 C154 1.363 . S
C155 C158 1.363 1_545 S
N156 C158 1.356 . S
N156 H168 0.984 . S
N156 H169 0.985 . S
N157 C159 1.356 . S
N157 H162 0.984 . S
N157 H163 0.985 . S
C158 C152 1.379 . S
C158 C155 1.363 1_565 S
C158 N156 1.356 . S
C159 C153 1.363 . S
C159 C154 1.379 . S
C159 N157 1.356 . S
N160 C152 1.356 . S
N160 H166 0.984 . S
N160 H167 0.984 . S
N161 C154 1.356 . S
N161 H164 0.984 . S
N161 H165 0.985 . S
H162 N157 0.984 . S
H163 N157 0.985 . S
H164 N161 0.984 . S
H165 N161 0.985 . S
H166 N160 0.984 . S
H167 N160 0.984 . S
H168 N156 0.984 . S
H169 N156 0.985 . S
C170 C171 1.363 . S
C170 C176 1.379 . S
C170 N178 1.356 . S
C171 C170 1.363 . S
C171 C177 1.363 . S
C172 C173 1.363 . S
C172 C177 1.379 . S
C172 N179 1.356 . S
C173 C172 1.363 . S
C173 C176 1.363 . S
N174 C176 1.356 . S
N174 H186 0.984 . S
N174 H187 0.985 . S
N175 C177 1.356 . S
N175 H180 0.984 . S
N175 H181 0.985 . S
C176 C170 1.379 . S
C176 C173 1.363 . S
C176 N174 1.356 . S
C177 C171 1.363 . S
C177 C172 1.379 . S
C177 N175 1.356 . S
N178 C170 1.356 . S
N178 H184 0.984 . S
N178 H185 0.984 . S
N179 C172 1.356 . S
N179 H182 0.984 . S
N179 H183 0.985 . S
H180 N175 0.984 . S
H181 N175 0.985 . S
H182 N179 0.984 . S
H183 N179 0.985 . S
H184 N178 0.984 . S
H185 N178 0.984 . S
H186 N174 0.984 . S
H187 N174 0.985 . S
C188 C189 1.363 . S
C188 C194 1.379 . S
C188 N196 1.356 . S
C189 C188 1.363 . S
C189 C195 1.363 . S
C190 C191 1.363 . S
C190 C195 1.379 . S
C190 N197 1.356 . S
C191 C190 1.363 . S
C191 C194 1.363 . S
N192 C194 1.356 . S
N192 H204 0.984 . S
N192 H205 0.985 . S
N193 C195 1.356 . S
N193 H198 0.984 . S
N193 H199 0.985 . S
C194 C188 1.379 . S
C194 C191 1.363 . S
C194 N192 1.356 . S
C195 C189 1.363 . S
C195 C190 1.379 . S
C195 N193 1.356 . S
N196 C188 1.356 . S
N196 H202 0.984 . S
N196 H203 0.984 . S
N197 C190 1.356 . S
N197 H200 0.984 . S
N197 H201 0.985 . S
H198 N193 0.984 . S
H199 N193 0.985 . S
H200 N197 0.984 . S
H201 N197 0.985 . S
H202 N196 0.984 . S
H203 N196 0.984 . S
H204 N192 0.984 . S
H205 N192 0.985 . S
C206 C207 1.363 . S
C206 C212 1.379 . S
C206 N214 1.356 . S
C207 C206 1.363 . S
C207 C213 1.363 . S
C208 C209 1.363 . S
C208 C213 1.379 . S
C208 N215 1.356 . S
C209 C208 1.363 . S
C209 C212 1.363 . S
N210 C212 1.356 . S
N210 H222 0.984 . S
N210 H223 0.985 . S
N211 C213 1.356 . S
N211 H216 0.984 . S
N211 H217 0.985 . S
C212 C206 1.379 . S
C212 C209 1.363 . S
C212 N210 1.356 . S
C213 C207 1.363 . S
C213 C208 1.379 . S
C213 N211 1.356 . S
N214 C206 1.356 . S
N214 H220 0.984 . S
N214 H221 0.984 . S
N215 C208 1.356 . S
N215 H218 0.984 . S
N215 H219 0.985 . S
H216 N211 0.984 . S
H217 N211 0.985 . S
H218 N215 0.984 . S
H219 N215 0.985 . S
H220 N214 0.984 . S
H221 N214 0.984 . S
H222 N210 0.984 . S
H223 N210 0.985 . S
C224 C225 1.363 1_556 S
C224 C230 1.379 . S
C224 N232 1.356 . S
C225 C224 1.363 1_554 S
C225 C231 1.363 1_545 S
C226 C227 1.363 1_565 S
C226 C231 1.379 1_556 S
C226 N233 1.356 . S
C227 C226 1.363 1_545 S
C227 C230 1.363 . S
N228 C230 1.356 . S
N228 H240 0.984 . S
N228 H241 0.985 . S
N229 C231 1.356 . S
N229 H234 0.984 . S
N229 H235 0.985 . S
C230 C224 1.379 . S
C230 C227 1.363 . S
C230 N228 1.356 . S
C231 C225 1.363 1_565 S
C231 C226 1.379 1_554 S
C231 N229 1.356 . S
N232 C224 1.356 . S
N232 H238 0.984 . S
N232 H239 0.984 1_556 S
N233 C226 1.356 . S
N233 H236 0.984 . S
N233 H237 0.985 . S
H234 N229 0.984 . S
H235 N229 0.985 . S
H236 N233 0.984 . S
H237 N233 0.985 . S
H238 N232 0.984 . S
H239 N232 0.984 1_554 S
H240 N228 0.984 . S
H241 N228 0.985 . S
C242 C243 1.363 . S
C242 C248 1.379 . S
C242 N250 1.356 . S
C243 C242 1.363 . S
C243 C249 1.363 1_554 S
C244 C245 1.363 . S
C244 C249 1.379 . S
C244 N251 1.356 . S
C245 C244 1.363 . S
C245 C248 1.363 1_556 S
N246 C248 1.356 . S
N246 H258 0.984 . S
N246 H259 0.985 1_554 S
N247 C249 1.356 . S
N247 H252 0.984 . S
N247 H253 0.985 . S
C248 C242 1.379 . S
C248 C245 1.363 1_554 S
C248 N246 1.356 . S
C249 C243 1.363 1_556 S
C249 C244 1.379 . S
C249 N247 1.356 . S
N250 C242 1.356 . S
N250 H256 0.984 . S
N250 H257 0.984 . S
N251 C244 1.356 . S
N251 H254 0.984 . S
N251 H255 0.985 . S
H252 N247 0.984 . S
H253 N247 0.985 . S
H254 N251 0.984 . S
H255 N251 0.985 . S
H256 N250 0.984 . S
H257 N250 0.984 . S
H258 N246 0.984 . S
H259 N246 0.985 1_556 S
C260 C261 1.363 1_554 S
C260 C266 1.379 1_554 S
C260 N268 1.356 . S
C261 C260 1.363 1_556 S
C261 C267 1.363 . S
C262 C263 1.363 . S
C262 C267 1.379 . S
C262 N269 1.356 . S
C263 C262 1.363 . S
C263 C266 1.363 . S
N264 C266 1.356 . S
N264 H276 0.984 1_556 S
N264 H277 0.985 . S
N265 C267 1.356 . S
N265 H270 0.984 . S
N265 H271 0.985 . S
C266 C260 1.379 1_556 S
C266 C263 1.363 . S
C266 N264 1.356 . S
C267 C261 1.363 . S
C267 C262 1.379 . S
C267 N265 1.356 . S
N268 C260 1.356 . S
N268 H274 0.984 . S
N268 H275 0.984 . S
N269 C262 1.356 . S
N269 H272 0.984 . S
N269 H273 0.985 . S
H270 N265 0.984 . S
H271 N265 0.985 . S
H272 N269 0.984 . S
H273 N269 0.985 . S
H274 N268 0.984 . S
H275 N268 0.984 . S
H276 N264 0.984 1_554 S
H277 N264 0.985 . S
C278 C279 1.363 1_554 S
C278 C284 1.379 1_554 S
C278 N286 1.356 . S
C279 C278 1.363 1_556 S
C279 C285 1.363 . S
C280 C281 1.363 . S
C280 C285 1.379 . S
C280 N287 1.356 . S
C281 C280 1.363 . S
C281 C284 1.363 . S
N282 C284 1.356 . S
N282 H294 0.981 1_656 S
N282 H295 0.985 1_655 S
N283 C285 1.356 . S
N283 H288 0.984 . S
N283 H289 0.985 . S
C284 C278 1.379 1_556 S
C284 C281 1.363 . S
C284 N282 1.356 . S
C285 C279 1.363 . S
C285 C280 1.379 . S
C285 N283 1.356 . S
N286 C278 1.356 . S
N286 H292 0.984 . S
N286 H293 0.984 . S
N287 C280 1.356 . S
N287 H290 0.984 . S
N287 H291 0.985 . S
H288 N283 0.984 . S
H289 N283 0.985 . S
H290 N287 0.984 . S
H291 N287 0.985 . S
H292 N286 0.984 . S
H293 N286 0.984 . S
H294 N282 0.981 1_454 S
H295 N282 0.985 1_455 S
C296 C297 1.363 . S
C296 C302 1.379 . S
C296 N304 1.356 . S
C297 C296 1.363 . S
C297 C303 1.363 . S
C298 C299 1.363 . S
C298 C303 1.379 . S
C298 N305 1.356 . S
C299 C298 1.363 . S
C299 C302 1.363 . S
N300 C302 1.356 1_655 S
N300 H312 0.984 . S
N300 H313 0.985 . S
N301 C303 1.356 . S
N301 H306 0.984 . S
N301 H307 0.985 . S
C302 C296 1.379 . S
C302 C299 1.363 . S
C302 N300 1.356 1_455 S
C303 C297 1.363 . S
C303 C298 1.379 . S
C303 N301 1.356 . S
N304 C296 1.356 . S
N304 H310 0.984 . S
N304 H311 0.984 . S
N305 C298 1.356 . S
N305 H308 0.984 . S
N305 H309 0.985 . S
H306 N301 0.984 . S
H307 N301 0.985 . S
H308 N305 0.984 . S
H309 N305 0.985 . S
H310 N304 0.984 . S
H311 N304 0.984 . S
H312 N300 0.984 . S
H313 N300 0.985 . S
C314 C315 1.363 1_565 S
C314 C320 1.379 . S
C314 N322 1.356 . S
C315 C314 1.363 1_545 S
C315 C321 1.363 . S
C316 C317 1.363 . S
C316 C321 1.379 . S
C316 N323 1.356 . S
C317 C316 1.363 . S
C317 C320 1.363 1_545 S
N318 C320 1.356 . S
N318 H330 0.984 . S
N318 H331 0.985 . S
N319 C321 1.356 . S
N319 H324 0.984 . S
N319 H325 0.985 . S
C320 C314 1.379 . S
C320 C317 1.363 1_565 S
C320 N318 1.356 . S
C321 C315 1.363 . S
C321 C316 1.379 . S
C321 N319 1.356 . S
N322 C314 1.356 . S
N322 H328 0.984 . S
N322 H329 0.984 . S
N323 C316 1.356 . S
N323 H326 0.984 . S
N323 H327 0.985 . S
H324 N319 0.984 . S
H325 N319 0.985 . S
H326 N323 0.984 . S
H327 N323 0.985 . S
H328 N322 0.984 . S
H329 N322 0.984 . S
H330 N318 0.984 . S
H331 N318 0.985 . S
C332 C333 1.363 . S
C332 C338 1.379 . S
C332 N340 1.356 . S
C333 C332 1.363 . S
C333 C339 1.363 . S
C334 C335 1.363 . S
C334 C339 1.379 . S
C334 N341 1.356 . S
C335 C334 1.363 . S
C335 C338 1.363 . S
N336 C338 1.356 . S
N336 H348 0.984 . S
N336 H349 0.985 . S
N337 C339 1.356 . S
N337 H342 0.984 . S
N337 H343 0.985 . S
C338 C332 1.379 . S
C338 C335 1.363 . S
C338 N336 1.356 . S
C339 C333 1.363 . S
C339 C334 1.379 . S
C339 N337 1.356 . S
N340 C332 1.356 . S
N340 H346 0.984 . S
N340 H347 0.984 . S
N341 C334 1.356 . S
N341 H344 0.984 . S
N341 H345 0.985 . S
H342 N337 0.984 . S
H343 N337 0.985 . S
H344 N341 0.984 . S
H345 N341 0.985 . S
H346 N340 0.984 . S
H347 N340 0.984 . S
H348 N336 0.984 . S
H349 N336 0.985 . S
C350 C351 1.363 . S
C350 C356 1.379 . S
C350 N358 1.356 . S
C351 C350 1.363 . S
C351 C357 1.363 . S
C352 C353 1.363 . S
C352 C357 1.379 . S
C352 N359 1.356 . S
C353 C352 1.363 . S
C353 C356 1.363 . S
N354 C356 1.356 . S
N354 H366 0.984 . S
N354 H367 0.985 . S
N355 C357 1.356 . S
N355 H360 0.984 . S
N355 H361 0.985 . S
C356 C350 1.379 . S
C356 C353 1.363 . S
C356 N354 1.356 . S
C357 C351 1.363 . S
C357 C352 1.379 . S
C357 N355 1.356 . S
N358 C350 1.356 . S
N358 H364 0.984 . S
N358 H365 0.984 . S
N359 C352 1.356 . S
N359 H362 0.984 . S
N359 H363 0.985 . S
H360 N355 0.984 . S
H361 N355 0.985 . S
H362 N359 0.984 . S
H363 N359 0.985 . S
H364 N358 0.984 . S
H365 N358 0.984 . S
H366 N354 0.984 . S
H367 N354 0.985 . S
C368 C369 1.363 . S
C368 C374 1.379 . S
C368 N376 1.356 1_556 S
C369 C368 1.363 . S
C369 C375 1.363 . S
C370 C371 1.363 . S
C370 C375 1.379 . S
C370 N377 1.356 . S
C371 C370 1.363 . S
C371 C374 1.363 . S
N372 C374 1.356 . S
N372 H384 0.984 1_556 S
N372 H385 0.985 . S
N373 C375 1.356 . S
N373 H378 0.984 . S
N373 H379 0.985 . S
C374 C368 1.379 . S
C374 C371 1.363 . S
C374 N372 1.356 . S
C375 C369 1.363 . S
C375 C370 1.379 . S
C375 N373 1.356 . S
N376 C368 1.356 1_554 S
N376 H382 0.984 . S
N376 H383 0.984 . S
N377 C370 1.356 . S
N377 H380 0.984 1_655 S
N377 H381 0.985 . S
H378 N373 0.984 . S
H379 N373 0.985 . S
H380 N377 0.984 1_455 S
H381 N377 0.985 . S
H382 N376 0.984 . S
H383 N376 0.984 . S
H384 N372 0.984 1_554 S
H385 N372 0.985 . S
C386 C387 1.357 1_565 S
C386 C392 1.379 . S
C386 N394 1.356 . S
C387 C386 1.357 1_545 S
C387 C393 1.373 1_556 S
C388 C389 1.363 . S
C388 C393 1.379 1_556 S
C388 N395 1.356 1_556 S
C389 C388 1.363 . S
C389 C392 1.363 1_545 S
N390 C392 1.356 . S
N390 H402 0.984 . S
N390 H403 0.985 . S
N391 C393 1.356 . S
N391 H396 0.984 . S
N391 H397 0.985 . S
C392 C386 1.379 . S
C392 C389 1.363 1_565 S
C392 N390 1.356 . S
C393 C387 1.373 1_554 S
C393 C388 1.379 1_554 S
C393 N391 1.356 . S
N394 C386 1.356 . S
N394 H400 0.984 . S
N394 H401 0.984 . S
N395 C388 1.356 1_554 S
N395 H398 0.984 1_554 S
N395 H399 0.985 . S
H396 N391 0.984 . S
H397 N391 0.985 . S
H398 N395 0.984 1_556 S
H399 N395 0.985 . S
H400 N394 0.984 . S
H401 N394 0.984 . S
H402 N390 0.984 . S
H403 N390 0.985 . S
C404 C405 1.366 . S
C404 C410 1.380 . S
C404 N412 1.352 1_556 S
C405 C404 1.366 . S
C405 C411 1.363 . S
C406 C407 1.363 . S
C406 C411 1.379 . S
C406 N413 1.356 . S
C407 C406 1.363 . S
C407 C410 1.363 . S
N408 C410 1.356 1_554 S
N408 H420 0.984 . S
N408 H421 0.985 1_554 S
N409 C411 1.356 . S
N409 H414 0.984 . S
N409 H415 0.985 . S
C410 C404 1.380 . S
C410 C407 1.363 . S
C410 N408 1.356 1_556 S
C411 C405 1.363 . S
C411 C406 1.379 . S
C411 N409 1.356 . S
N412 C404 1.352 1_554 S
N412 H418 0.984 . S
N412 H419 0.984 . S
N413 C406 1.356 . S
N413 H416 0.984 . S
N413 H417 0.985 . S
H414 N409 0.984 . S
H415 N409 0.985 . S
H416 N413 0.984 . S
H417 N413 0.985 . S
H418 N412 0.984 . S
H419 N412 0.984 . S
H420 N408 0.984 . S
H421 N408 0.985 1_556 S
C422 C423 1.363 . S
C422 C428 1.379 . S
C422 N430 1.356 . S
C423 C422 1.363 . S
C423 C429 1.363 . S
C424 C425 1.363 . S
C424 C429 1.379 . S
C424 N431 1.356 . S
C425 C424 1.363 . S
C425 C428 1.363 . S
N426 C428 1.356 . S
N426 H438 0.984 . S
N426 H439 0.985 . S
N427 C429 1.356 1_554 S
N427 H432 0.984 . S
N427 H433 0.985 . S
C428 C422 1.379 . S
C428 C425 1.363 . S
C428 N426 1.356 . S
C429 C423 1.363 . S
C429 C424 1.379 . S
C429 N427 1.356 1_556 S
N430 C422 1.356 . S
N430 H436 0.984 . S
N430 H437 0.984 . S
N431 C424 1.356 . S
N431 H434 0.984 . S
N431 H435 0.985 1_556 S
H432 N427 0.984 . S
H433 N427 0.985 . S
H434 N431 0.984 . S
H435 N431 0.985 1_554 S
H436 N430 0.984 . S
H437 N430 0.984 . S
H438 N426 0.984 . S
H439 N426 0.985 . S
C440 C441 1.363 . S
C440 C446 1.379 . S
C440 N448 1.356 . S
C441 C440 1.363 . S
C441 C447 1.363 . S
C442 C443 1.363 . S
C442 C447 1.379 . S
C442 N449 1.356 . S
C443 C442 1.363 . S
C443 C446 1.363 . S
N444 C446 1.356 1_556 S
N444 H456 0.984 . S
N444 H457 0.985 . S
N445 C447 1.356 . S
N445 H450 0.984 . S
N445 H451 0.985 . S
C446 C440 1.379 . S
C446 C443 1.363 . S
C446 N444 1.356 1_554 S
C447 C441 1.363 . S
C447 C442 1.379 . S
C447 N445 1.356 . S
N448 C440 1.356 . S
N448 H454 0.984 . S
N448 H455 0.984 . S
N449 C442 1.356 . S
N449 H452 0.984 . S
N449 H453 0.985 . S
H450 N445 0.984 . S
H451 N445 0.985 . S
H452 N449 0.984 . S
H453 N449 0.985 . S
H454 N448 0.984 . S
H455 N448 0.984 . S
H456 N444 0.984 . S
H457 N444 0.985 . S
C458 C459 1.363 1_565 S
C458 C464 1.379 . S
C458 N466 1.356 . S
C459 C458 1.363 1_545 S
C459 C465 1.363 . S
C460 C461 1.363 . S
C460 C465 1.379 1_556 S
C460 N467 1.356 . S
C461 C460 1.363 . S
C461 C464 1.363 1_546 S
N462 C464 1.356 . S
N462 H474 0.984 . S
N462 H475 0.985 1_554 S
N463 C465 1.356 . S
N463 H468 0.984 . S
N463 H469 0.985 . S
C464 C458 1.379 . S
C464 C461 1.363 1_564 S
C464 N462 1.356 . S
C465 C459 1.363 . S
C465 C460 1.379 1_554 S
C465 N463 1.356 . S
N466 C458 1.356 . S
N466 H472 0.984 . S
N466 H473 0.984 . S
N467 C460 1.356 . S
N467 H470 0.984 . S
N467 H471 0.985 . S
H468 N463 0.984 . S
H469 N463 0.985 . S
H470 N467 0.984 . S
H471 N467 0.985 . S
H472 N466 0.984 . S
H473 N466 0.984 . S
H474 N462 0.984 . S
H475 N462 0.985 1_556 S
C476 C477 1.363 . S
C476 C482 1.379 . S
C476 N484 1.356 . S
C477 C476 1.363 . S
C477 C483 1.363 . S
C478 C479 1.363 . S
C478 C483 1.379 . S
C478 N485 1.356 1_554 S
C479 C478 1.363 . S
C479 C482 1.363 . S
N480 C482 1.356 . S
N480 H492 0.984 . S
N480 H493 0.985 . S
N481 C483 1.356 . S
N481 H486 0.984 . S
N481 H487 0.985 . S
C482 C476 1.379 . S
C482 C479 1.363 . S
C482 N480 1.356 . S
C483 C477 1.363 . S
C483 C478 1.379 . S
C483 N481 1.356 . S
N484 C476 1.356 . S
N484 H490 0.984 . S
N484 H491 0.984 . S
N485 C478 1.356 1_556 S
N485 H488 0.984 . S
N485 H489 0.985 . S
H486 N481 0.984 . S
H487 N481 0.985 . S
H488 N485 0.984 . S
H489 N485 0.985 . S
H490 N484 0.984 . S
H491 N484 0.984 . S
H492 N480 0.984 . S
H493 N480 0.985 . S
C494 C495 1.363 . S
C494 C500 1.379 . S
C494 N502 1.356 . S
C495 C494 1.363 . S
C495 C501 1.363 . S
C496 C497 1.363 . S
C496 C501 1.379 . S
C496 N503 1.356 1_554 S
C497 C496 1.363 . S
C497 C500 1.363 . S
N498 C500 1.356 . S
N498 H510 0.984 . S
N498 H511 0.985 . S
N499 C501 1.356 . S
N499 H504 0.984 . S
N499 H505 0.985 . S
C500 C494 1.379 . S
C500 C497 1.363 . S
C500 N498 1.356 . S
C501 C495 1.363 . S
C501 C496 1.379 . S
C501 N499 1.356 . S
N502 C494 1.356 . S
N502 H508 0.984 . S
N502 H509 0.984 . S
N503 C496 1.356 1_556 S
N503 H506 0.984 . S
N503 H507 0.985 . S
H504 N499 0.984 . S
H505 N499 0.985 . S
H506 N503 0.984 . S
H507 N503 0.985 . S
H508 N502 0.984 . S
H509 N502 0.984 . S
H510 N498 0.984 . S
H511 N498 0.985 . S
C512 C513 1.363 . S
C512 C518 1.379 . S
C512 N520 1.356 . S
C513 C512 1.363 . S
C513 C519 1.363 . S
C514 C515 1.363 . S
C514 C519 1.379 . S
C514 N521 1.356 . S
C515 C514 1.363 . S
C515 C518 1.363 . S
N516 C518 1.356 . S
N516 H528 0.984 . S
N516 H529 0.985 . S
N517 C519 1.356 . S
N517 H522 0.984 . S
N517 H523 0.985 . S
C518 C512 1.379 . S
C518 C515 1.363 . S
C518 N516 1.356 . S
C519 C513 1.363 . S
C519 C514 1.379 . S
C519 N517 1.356 . S
N520 C512 1.356 . S
N520 H526 0.984 . S
N520 H527 0.984 . S
N521 C514 1.356 . S
N521 H524 0.984 . S
N521 H525 0.985 . S
H522 N517 0.984 . S
H523 N517 0.985 . S
H524 N521 0.984 . S
H525 N521 0.985 . S
H526 N520 0.984 . S
H527 N520 0.984 . S
H528 N516 0.984 . S
H529 N516 0.985 . S
C530 C531 1.370 . S
C530 C536 1.379 . S
C530 N538 1.356 . S
C531 C530 1.370 . S
C531 C537 1.357 1_545 S
C532 C533 1.363 1_565 S
C532 C537 1.379 . S
C532 N539 1.356 . S
C533 C532 1.363 1_545 S
C533 C536 1.363 . S
N534 C536 1.356 . S
N534 H546 0.984 . S
N534 H547 0.985 . S
N535 C537 1.356 . S
N535 H540 0.984 . S
N535 H541 0.985 . S
C536 C530 1.379 . S
C536 C533 1.363 . S
C536 N534 1.356 . S
C537 C531 1.357 1_565 S
C537 C532 1.379 . S
C537 N535 1.356 . S
N538 C530 1.356 . S
N538 H544 0.984 . S
N538 H545 0.984 . S
N539 C532 1.356 . S
N539 H542 0.984 . S
N539 H543 0.985 . S
H540 N535 0.984 . S
H541 N535 0.985 . S
H542 N539 0.984 . S
H543 N539 0.985 . S
H544 N538 0.984 . S
H545 N538 0.984 . S
H546 N534 0.984 . S
H547 N534 0.985 . S
C548 C549 1.363 . S
C548 C554 1.379 . S
C548 N556 1.356 . S
C549 C548 1.363 . S
C549 C555 1.363 . S
C550 C551 1.363 . S
C550 C555 1.379 . S
C550 N557 1.356 . S
C551 C550 1.363 . S
C551 C554 1.363 . S
N552 C554 1.356 . S
N552 H564 0.984 . S
N552 H565 0.985 . S
N553 C555 1.356 . S
N553 H558 0.984 . S
N553 H559 0.985 . S
C554 C548 1.379 . S
C554 C551 1.363 . S
C554 N552 1.356 . S
C555 C549 1.363 . S
C555 C550 1.379 . S
C555 N553 1.356 . S
N556 C548 1.356 . S
N556 H562 0.984 . S
N556 H563 0.984 . S
N557 C550 1.356 . S
N557 H560 0.984 . S
N557 H561 0.985 . S
H558 N553 0.984 . S
H559 N553 0.985 . S
H560 N557 0.984 . S
H561 N557 0.985 . S
H562 N556 0.984 . S
H563 N556 0.984 . S
H564 N552 0.984 . S
H565 N552 0.985 . S
C566 C567 1.363 . S
C566 C572 1.379 . S
C566 N574 1.356 . S
C567 C566 1.363 . S
C567 C573 1.363 . S
C568 C569 1.363 . S
C568 C573 1.379 . S
C568 N575 1.356 . S
C569 C568 1.363 . S
C569 C572 1.363 . S
N570 C572 1.356 . S
N570 H582 0.984 . S
N570 H583 0.985 . S
N571 C573 1.356 . S
N571 H576 0.984 . S
N571 H577 0.985 . S
C572 C566 1.379 . S
C572 C569 1.363 . S
C572 N570 1.356 . S
C573 C567 1.363 . S
C573 C568 1.379 . S
C573 N571 1.356 . S
N574 C566 1.356 . S
N574 H580 0.984 . S
N574 H581 0.984 . S
N575 C568 1.356 . S
N575 H578 0.984 . S
N575 H579 0.985 . S
H576 N571 0.984 . S
H577 N571 0.985 . S
H578 N575 0.984 . S
H579 N575 0.985 . S
H580 N574 0.984 . S
H581 N574 0.984 . S
H582 N570 0.984 . S
H583 N570 0.985 . S
C153 C61 1.480 . S
C155 C73 1.503 1_545 S
C173 C108 1.724 . S
C171 C70 1.626 . S
C191 C113 1.358 . S
C189 C43 1.350 . S
C209 C133 1.653 . S
C207 C52 1.572 . S
C227 C81 1.502 . S
C225 C25 1.481 1_545 S
C243 C34 1.616 . S
C245 C98 1.725 . S
C261 C7 1.346 1_556 S
C263 C121 1.358 . S
C279 C16 1.582 . S
C281 C141 1.653 . S
C299 C91 1.395 . S
C297 C50 1.300 . S
C317 C100 1.012 1_545 S
C315 C59 1.017 . S
C335 C131 1.427 . S
C333 C67 1.332 . S
C351 C41 1.036 . S
C353 C151 1.027 . S
C369 C14 1.313 . S
C371 C80 1.395 . S
C389 C111 1.012 . S
C387 C23 1.012 1_546 S
C407 C120 1.427 . S
C405 C31 1.325 . S
C423 C5 1.033 . S
C425 C140 1.027 . S
C441 C49 1.584 . S
C443 C78 1.623 1_554 S
C459 C58 1.493 . S
C461 C101 1.575 . S
C479 C118 1.678 1_554 S
C477 C68 1.614 . S
C497 C138 1.605 1_554 S
C495 C40 1.573 . S
C513 C13 1.588 . S
C515 C88 1.623 . S
C533 C93 1.576 . S
C531 C22 1.493 1_545 S
C551 C128 1.678 . S
C549 C32 1.605 . S
C567 C4 1.570 . S
C569 C148 1.605 . S
