# Generated by pormake.
# Topology tsx, (6,3)-cn, num edge types: 1
# Building blocks:
#     Node 0, Type 0, BuildingBlock: MIDCAF_clean_sbu_0, # of connection points: 6
#     Node 1, Type 0, BuildingBlock: MIDCAF_clean_sbu_0, # of connection points: 6
#     Node 2, Type 1, BuildingBlock: BELTOD_clean_linker_0, # of connection points: 3
#     Node 3, Type 1, BuildingBlock: BELTOD_clean_linker_0, # of connection points: 3
#     Node 4, Type 1, BuildingBlock: BELTOD_clean_linker_0, # of connection points: 3
#     Node 5, Type 1, BuildingBlock: BELTOD_clean_linker_0, # of connection points: 3
#     Edge 6, Type (0, 1), BuildingBlock: OJICUG_clean_linker_0, # of connection points: 2
#     Edge 7, Type (0, 1), BuildingBlock: OJICUG_clean_linker_0, # of connection points: 2
#     Edge 8, Type (0, 1), BuildingBlock: OJICUG_clean_linker_0, # of connection points: 2
#     Edge 9, Type (0, 1), BuildingBlock: OJICUG_clean_linker_0, # of connection points: 2
#     Edge 10, Type (0, 1), BuildingBlock: OJICUG_clean_linker_0, # of connection points: 2
#     Edge 11, Type (0, 1), BuildingBlock: OJICUG_clean_linker_0, # of connection points: 2
#     Edge 12, Type (0, 1), BuildingBlock: OJICUG_clean_linker_0, # of connection points: 2
#     Edge 13, Type (0, 1), BuildingBlock: OJICUG_clean_linker_0, # of connection points: 2
#     Edge 14, Type (0, 1), BuildingBlock: OJICUG_clean_linker_0, # of connection points: 2
#     Edge 15, Type (0, 1), BuildingBlock: OJICUG_clean_linker_0, # of connection points: 2
#     Edge 16, Type (0, 1), BuildingBlock: OJICUG_clean_linker_0, # of connection points: 2
#     Edge 17, Type (0, 1), BuildingBlock: OJICUG_clean_linker_0, # of connection points: 2
# Relax obj value: 0.109
# Max RMSD: 0.178
# Mean RMSD: 0.106
data_MOF--net-tsx--node1-MIDCAF_clean_sbu_0--node2-BELTOD_clean_linker_0--edge1-OJICUG_clean_linker_0
_symmetry_space_group_name_H-M    P1
_symmetry_Int_Tables_number       1
_symmetry_cell_setting            triclinic
loop_
_symmetry_equiv_pos_as_xyz
'x, y, z'
_cell_length_a     16.74195
_cell_length_b     17.606688
_cell_length_c     32.557965
_cell_angle_alpha  91.440467
_cell_angle_beta   97.601506
_cell_angle_gamma 89.336048
loop_
_atom_site_label
_atom_site_type_symbol
_atom_site_fract_x
_atom_site_fract_y
_atom_site_fract_z
_atom_type_partial_charge
Zn0 Zn 0.87429 0.00188 0.96305 0.0
Zn1 Zn 0.13959 0.96886 0.05895 0.0
Zn2 Zn 0.01089 0.99311 0.01062 0.0
C3 C 0.12025 0.12727 0.05114 0.0
C4 C 0.16918 0.90177 0.98714 0.0
O5 O 0.92473 0.91535 0.03415 0.0
O6 O 0.82267 0.91378 0.98369 0.0
C7 C 0.90414 0.1447 0.00033 0.0
O8 O 0.05387 0.1081 0.02899 0.0
O9 O 0.16855 0.07722 0.06697 0.0
O10 O 0.20059 0.90541 0.02442 0.0
O11 O 0.10051 0.9338 0.97559 0.0
O12 O 0.84619 0.10529 0.98296 0.0
O13 O 0.97451 0.11453 0.00941 0.0
O14 O 0.03264 0.95399 0.9484 0.0
O15 O 0.91881 0.98545 0.90965 0.0
C16 C 0.99013 0.95993 0.91262 0.0
O17 O 0.98359 0.93602 0.06807 0.0
O18 O 0.1023 0.92081 0.10568 0.0
C19 C 0.8573 0.88707 0.01705 0.0
C20 C 0.02674 0.9156 0.10196 0.0
Zn21 Zn 0.66324 0.53121 0.56142 0.0
Zn22 Zn 0.39063 0.5479 0.47656 0.0
Zn23 Zn 0.53029 0.53947 0.51685 0.0
C24 C 0.49809 0.50617 0.42065 0.0
C25 C 0.41892 0.69045 0.50753 0.0
O26 O 0.51645 0.48048 0.57565 0.0
O27 O 0.64178 0.46145 0.60432 0.0
C28 C 0.69396 0.46979 0.48789 0.0
O29 O 0.54357 0.49337 0.45489 0.0
O30 O 0.43014 0.53796 0.42122 0.0
O31 O 0.35859 0.649 0.49664 0.0
O32 O 0.49033 0.66096 0.51241 0.0
O33 O 0.73257 0.49293 0.5216 0.0
O34 O 0.61705 0.47985 0.48054 0.0
O35 O 0.57136 0.658 0.53156 0.0
O36 O 0.6767 0.63871 0.57863 0.0
C37 C 0.62983 0.68398 0.55766 0.0
O38 O 0.44889 0.46431 0.54553 0.0
O39 O 0.3414 0.45921 0.49827 0.0
C40 C 0.5673 0.4545 0.60545 0.0
C41 C 0.37992 0.4355 0.53147 0.0
P42 P 0.1275 0.13469 0.37752 0.0
H43 H 0.1255 0.26399 0.43455 0.0
H44 H 0.01606 0.34317 0.45515 0.0
H45 H 0.84203 0.19454 0.38473 0.0
H46 H 0.95128 0.11412 0.36587 0.0
H47 H 0.30129 0.12745 0.40423 0.0
H48 H 0.38513 0.04242 0.44968 0.0
H49 H 0.17018 0.93359 0.47968 0.0
H50 H 0.0874 0.02296 0.43658 0.0
H51 H 0.06186 0.17631 0.29464 0.0
H52 H 0.09671 0.96929 0.363 0.0
O53 O 0.18576 0.20034 0.3607 0.0
H54 H 1.00325 0.10451 0.23353 0.0
H55 H 0.03604 0.89676 0.30207 0.0
C56 C 0.04667 0.18416 0.39811 0.0
C57 C 0.06372 0.24805 0.42403 0.0
C58 C 1.00108 0.29374 0.43528 0.0
C59 C 0.92027 0.27628 0.42061 0.0
C60 C 0.90349 0.20983 0.39636 0.0
C61 C 0.96621 0.16389 0.38541 0.0
C62 C 0.18809 0.08037 0.4164 0.0
C63 C 0.27224 0.08635 0.42136 0.0
C64 C 0.32033 0.03703 0.44722 0.0
C65 C 0.28524 0.97925 0.46781 0.0
C66 C 0.20032 0.97717 0.4648 0.0
C67 C 0.15238 0.02782 0.43967 0.0
C68 C 0.08586 0.07816 0.33304 0.0
C69 C 0.05668 0.11525 0.29651 0.0
C70 C 0.02149 0.0741 0.26178 0.0
C71 C 0.01411 0.99462 0.26285 0.0
C72 C 0.04102 0.95779 0.3001 0.0
C73 C 0.07632 -0.00071 0.33497 0.0
P74 P 0.1297 0.93615 0.61577 0.0
H75 H 0.04715 0.84762 0.54566 0.0
H76 H 0.90475 0.8219 0.52415 0.0
H77 H 0.84074 0.99014 0.61333 0.0
H78 H 0.98386 0.01571 0.63464 0.0
H79 H 0.27325 0.01716 0.6536 0.0
H80 H 0.33361 0.13676 0.6379 0.0
H81 H 0.15939 0.15434 0.52779 0.0
H82 H 0.09661 0.03736 0.54529 0.0
H83 H 0.11219 0.80996 0.66986 0.0
H84 H 0.13555 0.05349 0.68217 0.0
O85 O 0.18015 0.86068 0.60037 0.0
H86 H 0.09059 0.80451 0.74285 0.0
H87 H 0.11749 0.04777 0.75515 0.0
C88 C 0.02595 0.93179 0.59259 0.0
C89 C 1.00252 0.88035 0.55986 0.0
C90 C 0.92081 0.86636 0.54727 0.0
C91 C 0.86128 0.9035 0.56736 0.0
C92 C 0.88514 0.96014 0.59756 0.0
C93 C 0.96692 0.97451 0.60987 0.0
C94 C 0.17815 0.02052 0.60174 0.0
C95 C 0.24753 0.04745 0.62638 0.0
C96 C 0.28257 0.11547 0.61708 0.0
C97 C 0.25021 0.15649 0.58214 0.0
C98 C 0.18397 0.12606 0.55589 0.0
C99 C 0.14817 0.05879 0.5657 0.0
C100 C 0.12834 0.93174 0.6709 0.0
C101 C 0.11537 0.86186 0.68856 0.0
C102 C 0.1028 0.85877 0.7301 0.0
C103 C 0.10376 0.92559 0.75463 0.0
C104 C 0.1185 -0.00472 0.73712 0.0
C105 C 0.12929 -0.00152 0.69541 0.0
P106 P 0.65501 0.62385 0.89684 0.0
H107 H 0.62066 0.77419 0.93061 0.0
H108 H 0.49514 0.83754 0.94255 0.0
H109 H 0.36376 0.63285 0.90249 0.0
H110 H 0.4901 0.5691 0.89259 0.0
H111 H 0.82089 0.61275 0.93848 0.0
H112 H 0.89131 0.51387 0.98048 0.0
H113 H 0.66463 0.39849 0.98167 0.0
H114 H 0.59506 0.49989 0.94217 0.0
H115 H 0.58309 0.67674 0.8172 0.0
H116 H 0.65766 0.46084 0.86995 0.0
O117 O 0.71892 0.69198 0.8883 0.0
H118 H 0.53512 0.61318 0.75153 0.0
H119 H 0.60722 0.39629 0.80461 0.0
C120 C 0.56459 0.66713 0.91081 0.0
C121 C 0.56497 0.74276 0.925 0.0
C122 C 0.49285 0.77926 0.93105 0.0
C123 C 0.419 0.74075 0.92265 0.0
C124 C 0.4194 0.66419 0.90932 0.0
C125 C 0.49168 0.6276 0.90374 0.0
C126 C 0.70293 0.56266 0.93644 0.0
C127 C 0.78619 0.56715 0.94883 0.0
C128 C 0.8266 0.51 0.97262 0.0
C129 C 0.78463 0.4463 0.98355 0.0
C130 C 0.69984 0.44614 0.97419 0.0
C131 C 0.65947 0.50414 0.95117 0.0
C132 C 0.62479 0.57394 0.84837 0.0
C133 C 0.58881 0.61549 0.81467 0.0
C134 C 0.55985 0.57874 0.77733 0.0
C135 C 0.56603 0.49924 0.77285 0.0
C136 C 0.60135 0.4575 0.80698 0.0
C137 C 0.63052 0.49456 0.84444 0.0
P138 P 0.61811 0.39826 0.12217 0.0
H139 H 0.5415 0.31039 0.05065 0.0
H140 H 0.40108 0.27777 0.02752 0.0
H141 H 0.32559 0.42663 0.123 0.0
H142 H 0.4663 0.45826 0.1462 0.0
H143 H 0.77931 0.43299 0.10306 0.0
H144 H 0.83627 0.54719 0.07741 0.0
H145 H 0.60177 0.65591 0.06811 0.0
H146 H 0.54531 0.54122 0.09216 0.0
H147 H 0.59644 0.29646 0.18884 0.0
H148 H 0.64498 0.53438 0.17654 0.0
O149 O 0.67141 0.32041 0.11303 0.0
H150 H 0.57771 0.32004 0.26147 0.0
H151 H 0.62713 0.55793 0.24873 0.0
C152 C 0.51433 0.38432 0.10104 0.0
C153 C 0.49461 0.33674 0.06621 0.0
C154 C 0.4141 0.31907 0.05266 0.0
C155 C 0.35208 0.34917 0.0737 0.0
C156 C 0.372 0.40182 0.10652 0.0
C157 C 0.4525 0.41945 0.11997 0.0
C158 C 0.65792 0.47827 0.09876 0.0
C159 C 0.74008 0.48104 0.09473 0.0
C160 C 0.77269 0.54666 0.08058 0.0
C161 C 0.72365 0.61086 0.07089 0.0
C162 C 0.64105 0.60718 0.0746 0.0
C163 C 0.60857 0.54149 0.08841 0.0
C164 C 0.62254 0.41341 0.1773 0.0
C165 C 0.60526 0.35329 0.20206 0.0
C166 C 0.59464 0.36681 0.24353 0.0
C167 C 0.60033 0.44095 0.26065 0.0
C168 C 0.6214 0.50036 0.23621 0.0
C169 C 0.63214 0.48677 0.19489 0.0
C170 C 0.17433 0.2391 0.02044 0.0
C171 C 0.14799 0.206 0.05495 0.0
H172 H 0.26095 0.31247 0.99925 0.0
C173 C 0.17494 0.23525 0.09472 0.0
H174 H 0.15491 0.21655 0.9895 0.0
C175 C 0.23543 0.28973 0.1004 0.0
C176 C 0.27064 0.31489 0.06633 0.0
H177 H 0.15599 0.20968 0.12175 0.0
H178 H 0.26077 0.30507 0.13181 0.0
C179 C 0.2358 0.29309 0.0261 0.0
C180 C 0.2209 0.78001 0.96311 0.0
C181 C 0.2132 0.85871 0.95836 0.0
H182 H 0.29277 0.68091 0.95605 0.0
C183 C 0.26653 0.8967 0.93645 0.0
H184 H 0.18145 0.75023 0.98099 0.0
C185 C 0.33043 0.85714 0.92196 0.0
C186 C 0.3427 0.77938 0.93002 0.0
H187 H 0.26305 0.95786 0.93367 0.0
H188 H 0.37285 0.88839 0.90663 0.0
C189 C 0.28504 0.74053 0.94902 0.0
C190 C 0.86578 0.77556 0.06442 0.0
C191 C 0.822 0.81942 0.0336 0.0
H192 H 0.86881 0.67569 0.10078 0.0
C193 C 0.74577 0.79406 0.01535 0.0
H194 H 0.92528 0.79225 0.07846 0.0
C195 C 0.71463 0.72612 0.02707 0.0
C196 C 0.75825 0.68219 0.05786 0.0
H197 H 0.7105 0.82603 0.99129 0.0
H198 H 0.65671 0.70751 0.01149 0.0
C199 C 0.83405 0.70781 0.0766 0.0
C200 C 0.93185 0.28023 0.98835 0.0
C201 C 0.88937 0.22613 0.00736 0.0
H202 H 0.93138 0.39225 0.96503 0.0
C203 C 0.82157 0.24899 0.02577 0.0
H204 H 0.98403 0.26349 0.9737 0.0
C205 C 0.79237 0.32344 0.02207 0.0
C206 C 0.82869 0.37579 0.99848 0.0
H207 H 0.78827 0.20799 0.04091 0.0
H208 H 0.73813 0.33821 0.03534 0.0
C209 C 0.9014 0.35432 0.98357 0.0
C210 C 0.68476 0.79814 0.59614 0.0
C211 C 0.65546 0.76353 0.55793 0.0
H212 H 0.77304 0.87139 0.62897 0.0
C213 C 0.67879 0.79211 0.52149 0.0
H214 H 0.66793 0.77656 0.62465 0.0
C215 C 0.74067 0.84557 0.5239 0.0
C216 C 0.77852 0.87188 0.56275 0.0
H217 H 0.65743 0.76581 0.49167 0.0
H218 H 0.76411 0.86058 0.49575 0.0
C219 C 0.74548 0.85232 0.59854 0.0
C220 C 0.8073 0.4544 0.44704 0.0
C221 C 0.73839 0.42401 0.4603 0.0
H222 H 0.91794 0.43154 0.42289 0.0
C223 C 0.72502 0.34558 0.45642 0.0
H224 H 0.81918 0.51475 0.45053 0.0
C225 C 0.78243 0.2975 0.44168 0.0
C226 C 0.85417 0.32735 0.43082 0.0
H227 H 0.67317 0.321 0.46762 0.0
H228 H 0.77288 0.23675 0.44133 0.0
C229 C 0.86433 0.40659 0.43201 0.0
C230 C 0.264 0.35772 0.54524 0.0
C231 C 0.34748 0.36998 0.55102 0.0
H232 H 0.16793 0.2821 0.55143 0.0
C233 C 0.39896 0.31389 0.56999 0.0
H234 H 0.22287 0.40022 0.53083 0.0
C235 C 0.36758 0.24492 0.58087 0.0
C236 C 0.28408 0.23125 0.57333 0.0
H237 H 0.46365 0.32133 0.57414 0.0
H238 H 0.40912 0.20126 0.59351 0.0
C239 C 0.23263 0.28951 0.55653 0.0
C240 C 0.43898 0.81856 0.48107 0.0
C241 C 0.40517 0.773 0.50876 0.0
H242 H 0.42644 0.91866 0.44533 0.0
C243 C 0.34252 0.80256 0.52921 0.0
H244 H 0.48673 0.79641 0.46459 0.0
C245 C 0.30904 0.87386 0.5192 0.0
C246 C 0.33548 0.91564 0.48734 0.0
H247 H 0.31567 0.7682 0.55082 0.0
H248 H 0.25877 0.89366 0.53444 0.0
C249 C 0.40395 0.88895 0.47007 0.0
C250 C 0.03643 0.86453 0.1723 0.0
C251 C 0.99125 0.90511 0.14045 0.0
H252 H 0.07999 0.86204 0.23681 0.0
C253 C 0.93348 0.95804 0.15082 0.0
H254 H 0.08071 0.82263 0.16502 0.0
C255 C 0.93306 0.98109 0.19225 0.0
C256 C 0.98997 0.95089 0.22352 0.0
H257 H 0.89723 0.98965 0.12689 0.0
H258 H 0.89441 0.02817 0.19917 0.0
C259 C 0.03624 0.88758 0.21361 0.0
C260 C 0.10111 0.96832 0.86893 0.0
C261 C 0.02494 0.94107 0.87444 0.0
H262 H 0.1861 0.98496 0.8261 0.0
C263 C 0.97833 0.90286 0.84147 0.0
H264 H 0.13704 -0.0005 0.89373 0.0
C265 C 1.00649 0.89379 0.80314 0.0
C266 C 0.08088 0.92442 0.79692 0.0
H267 H 0.91915 0.88179 0.84505 0.0
H268 H 0.96821 0.86641 0.77774 0.0
C269 C 0.12867 0.96064 0.8303 0.0
C270 C 0.47968 0.47672 0.66038 0.0
C271 C 0.54233 0.43499 0.64562 0.0
H272 H 0.43724 0.52943 0.71349 0.0
C273 C 0.59741 0.39579 0.67406 0.0
H274 H 0.43575 0.50683 0.63917 0.0
C275 C 0.59939 0.40988 0.71654 0.0
C276 C 0.54557 0.4627 0.73113 0.0
H277 H 0.64564 0.36219 0.66343 0.0
H278 H 0.64896 0.38633 0.73722 0.0
C279 C 0.48145 0.4907 0.70299 0.0
C280 C 0.57765 0.42703 0.3749 0.0
C281 C 0.52605 0.48883 0.3803 0.0
H282 H 0.64237 0.36321 0.3327 0.0
C283 C 0.4999 0.53464 0.34639 0.0
H284 H 0.59664 0.38976 0.40025 0.0
C285 C 0.52529 0.5195 0.30793 0.0
C286 C 0.57699 0.45778 0.30233 0.0
H287 H 0.45993 0.58265 0.34961 0.0
H288 H 0.50306 0.5554 0.28229 0.0
C289 C 0.60282 0.4114 0.33617 0.0
loop_
_geom_bond_atom_site_label_1
_geom_bond_atom_site_label_2
_geom_bond_distance
_geom_bond_site_symmetry_2
_ccdc_geom_bond_type
Zn0 O6 1.920 1_545 S
Zn0 O12 1.898 . S
Zn0 O15 1.905 1_545 S
Zn1 O9 1.905 . S
Zn1 O10 1.898 1_545 S
Zn1 O18 1.920 1_545 S
Zn2 O5 2.080 1_445 S
Zn2 O8 2.114 . S
Zn2 O11 2.120 1_545 S
Zn2 O13 2.120 1_455 S
Zn2 O14 2.114 1_554 S
Zn2 O17 2.080 . S
C3 O8 1.166 . S
C3 O9 1.182 . S
C4 O10 1.167 . S
C4 O11 1.299 . S
O5 Zn2 2.080 1_665 S
O5 C19 1.305 . S
O6 Zn0 1.920 1_565 S
O6 C19 1.234 1_556 S
C7 O12 1.167 . S
C7 O13 1.299 1_556 S
O8 Zn2 2.114 . S
O8 C3 1.166 . S
O9 Zn1 1.905 . S
O9 C3 1.182 . S
O10 Zn1 1.898 1_565 S
O10 C4 1.167 . S
O11 Zn2 2.120 1_565 S
O11 C4 1.299 . S
O12 Zn0 1.898 . S
O12 C7 1.167 . S
O13 Zn2 2.120 1_655 S
O13 C7 1.299 1_554 S
O14 Zn2 2.114 1_556 S
O14 C16 1.166 1_445 S
O15 Zn0 1.905 1_565 S
O15 C16 1.182 . S
C16 O14 1.166 1_665 S
C16 O15 1.182 . S
O17 Zn2 2.080 . S
O17 C20 1.305 1_545 S
O18 Zn1 1.920 1_565 S
O18 C20 1.234 . S
C19 O5 1.305 . S
C19 O6 1.234 1_554 S
C20 O17 1.305 1_565 S
C20 O18 1.234 . S
Zn21 O27 1.920 . S
Zn21 O33 1.898 . S
Zn21 O36 1.905 . S
Zn22 O30 1.905 . S
Zn22 O31 1.898 . S
Zn22 O39 1.920 . S
Zn23 O26 2.080 . S
Zn23 O29 2.114 . S
Zn23 O32 2.120 . S
Zn23 O34 2.120 . S
Zn23 O35 2.114 . S
Zn23 O38 2.080 . S
C24 O29 1.166 . S
C24 O30 1.182 . S
C25 O31 1.167 . S
C25 O32 1.299 . S
O26 Zn23 2.080 . S
O26 C40 1.305 . S
O27 Zn21 1.920 . S
O27 C40 1.234 . S
C28 O33 1.167 . S
C28 O34 1.299 . S
O29 Zn23 2.114 . S
O29 C24 1.166 . S
O30 Zn22 1.905 . S
O30 C24 1.182 . S
O31 Zn22 1.898 . S
O31 C25 1.167 . S
O32 Zn23 2.120 . S
O32 C25 1.299 . S
O33 Zn21 1.898 . S
O33 C28 1.167 . S
O34 Zn23 2.120 . S
O34 C28 1.299 . S
O35 Zn23 2.114 . S
O35 C37 1.166 . S
O36 Zn21 1.905 . S
O36 C37 1.182 . S
C37 O35 1.166 . S
C37 O36 1.182 . S
O38 Zn23 2.080 . S
O38 C41 1.305 . S
O39 Zn22 1.920 . S
O39 C41 1.234 . S
C40 O26 1.305 . S
C40 O27 1.234 . S
C41 O38 1.305 . S
C41 O39 1.234 . S
P42 O53 1.490 . S
P42 C56 1.812 . S
P42 C62 1.803 . S
P42 C68 1.819 . S
H43 C57 0.941 . S
H44 C58 0.939 . S
H45 C60 0.940 . S
H46 C61 0.940 . S
H47 C63 0.939 . S
H48 C64 0.942 . S
H49 C66 0.940 . S
H50 C67 0.939 . S
H51 C69 0.941 . S
H52 C73 0.939 1_565 S
O53 P42 1.490 . S
H54 C70 0.939 . S
H55 C72 0.940 . S
C56 P42 1.812 . S
C56 C57 1.389 . S
C56 C61 1.391 1_455 S
C57 H43 0.941 . S
C57 C56 1.389 . S
C57 C58 1.397 . S
C58 H44 0.939 . S
C58 C57 1.397 . S
C58 C59 1.378 1_455 S
C59 C58 1.378 1_655 S
C59 C60 1.378 . S
C60 H45 0.940 . S
C60 C59 1.378 . S
C60 C61 1.396 . S
C61 H46 0.940 . S
C61 C56 1.391 1_655 S
C61 C60 1.396 . S
C62 P42 1.803 . S
C62 C63 1.378 . S
C62 C67 1.400 1_545 S
C63 H47 0.939 . S
C63 C62 1.378 . S
C63 C64 1.361 1_545 S
C64 H48 0.942 . S
C64 C63 1.361 1_565 S
C64 C65 1.369 . S
C65 C64 1.369 . S
C65 C66 1.404 . S
C66 H49 0.940 . S
C66 C65 1.404 . S
C66 C67 1.389 . S
C67 H50 0.939 . S
C67 C62 1.400 1_565 S
C67 C66 1.389 . S
C68 P42 1.819 . S
C68 C69 1.391 . S
C68 C73 1.391 . S
C69 H51 0.941 . S
C69 C68 1.391 . S
C69 C70 1.396 . S
C70 H54 0.939 . S
C70 C69 1.396 . S
C70 C71 1.397 . S
C71 C70 1.397 . S
C71 C72 1.385 1_545 S
C72 H55 0.940 . S
C72 C71 1.385 1_565 S
C72 C73 1.388 1_565 S
C73 H52 0.939 1_545 S
C73 C68 1.391 . S
C73 C72 1.388 1_545 S
P74 O85 1.490 . S
P74 C88 1.812 1_455 S
P74 C94 1.803 1_565 S
P74 C100 1.819 . S
H75 C89 0.941 1_455 S
H76 C90 0.939 . S
H77 C92 0.940 . S
H78 C93 0.940 . S
H79 C95 0.939 . S
H80 C96 0.942 . S
H81 C98 0.940 . S
H82 C99 0.939 . S
H83 C101 0.941 . S
H84 C105 0.939 . S
O85 P74 1.490 . S
H86 C102 0.939 . S
H87 C104 0.940 . S
C88 P74 1.812 1_655 S
C88 C89 1.389 . S
C88 C93 1.391 . S
C89 H75 0.941 1_655 S
C89 C88 1.389 . S
C89 C90 1.397 . S
C90 H76 0.939 . S
C90 C89 1.397 . S
C90 C91 1.378 . S
C91 C90 1.378 . S
C91 C92 1.378 . S
C92 H77 0.940 . S
C92 C91 1.378 . S
C92 C93 1.396 . S
C93 H78 0.940 . S
C93 C88 1.391 . S
C93 C92 1.396 . S
C94 P74 1.803 1_545 S
C94 C95 1.378 . S
C94 C99 1.400 . S
C95 H79 0.939 . S
C95 C94 1.378 . S
C95 C96 1.361 . S
C96 H80 0.942 . S
C96 C95 1.361 . S
C96 C97 1.369 . S
C97 C96 1.369 . S
C97 C98 1.404 . S
C98 H81 0.940 . S
C98 C97 1.404 . S
C98 C99 1.389 . S
C99 H82 0.939 . S
C99 C94 1.400 . S
C99 C98 1.389 . S
C100 P74 1.819 . S
C100 C101 1.391 . S
C100 C105 1.391 1_565 S
C101 H83 0.941 . S
C101 C100 1.391 . S
C101 C102 1.396 . S
C102 H86 0.939 . S
C102 C101 1.396 . S
C102 C103 1.397 1_565 S
C103 C102 1.397 1_545 S
C103 C104 1.385 . S
C104 H87 0.940 . S
C104 C103 1.385 . S
C104 C105 1.388 . S
C105 H84 0.939 . S
C105 C100 1.391 1_545 S
C105 C104 1.388 . S
P106 O117 1.490 . S
P106 C120 1.812 . S
P106 C126 1.803 . S
P106 C132 1.819 . S
H107 C121 0.941 . S
H108 C122 0.933 1_554 S
H109 C124 0.940 . S
H110 C125 0.940 . S
H111 C127 0.939 . S
H112 C128 0.942 . S
H113 C130 0.940 . S
H114 C131 0.939 . S
H115 C133 0.941 . S
H116 C137 0.939 . S
O117 P106 1.490 . S
H118 C134 0.939 . S
H119 C136 0.940 . S
C120 P106 1.812 . S
C120 C121 1.389 . S
C120 C125 1.391 . S
C121 H107 0.941 . S
C121 C120 1.389 . S
C121 C122 1.397 . S
C122 H108 0.933 1_556 S
C122 C121 1.397 . S
C122 C123 1.378 . S
C123 C122 1.378 . S
C123 C124 1.378 . S
C124 H109 0.940 . S
C124 C123 1.378 . S
C124 C125 1.396 . S
C125 H110 0.940 . S
C125 C120 1.391 . S
C125 C124 1.396 . S
C126 P106 1.803 . S
C126 C127 1.378 . S
C126 C131 1.400 . S
C127 H111 0.939 . S
C127 C126 1.378 . S
C127 C128 1.361 . S
C128 H112 0.942 . S
C128 C127 1.361 . S
C128 C129 1.369 . S
C129 C128 1.369 . S
C129 C130 1.404 . S
C130 H113 0.940 . S
C130 C129 1.404 . S
C130 C131 1.389 . S
C131 H114 0.939 . S
C131 C126 1.400 . S
C131 C130 1.389 . S
C132 P106 1.819 . S
C132 C133 1.391 . S
C132 C137 1.391 . S
C133 H115 0.941 . S
C133 C132 1.391 . S
C133 C134 1.396 . S
C134 H118 0.939 . S
C134 C133 1.396 . S
C134 C135 1.397 . S
C135 C134 1.397 . S
C135 C136 1.385 . S
C136 H119 0.940 . S
C136 C135 1.385 . S
C136 C137 1.388 . S
C137 H116 0.939 . S
C137 C132 1.391 . S
C137 C136 1.388 . S
P138 O149 1.490 . S
P138 C152 1.812 . S
P138 C158 1.803 . S
P138 C164 1.819 . S
H139 C153 0.941 . S
H140 C154 0.939 . S
H141 C156 0.940 . S
H142 C157 0.940 . S
H143 C159 0.939 . S
H144 C160 0.942 . S
H145 C162 0.940 . S
H146 C163 0.939 . S
H147 C165 0.941 . S
H148 C169 0.939 . S
O149 P138 1.490 . S
H150 C166 0.939 . S
H151 C168 0.940 . S
C152 P138 1.812 . S
C152 C153 1.389 . S
C152 C157 1.391 . S
C153 H139 0.941 . S
C153 C152 1.389 . S
C153 C154 1.397 . S
C154 H140 0.939 . S
C154 C153 1.397 . S
C154 C155 1.378 . S
C155 C154 1.378 . S
C155 C156 1.378 . S
C156 H141 0.940 . S
C156 C155 1.378 . S
C156 C157 1.396 . S
C157 H142 0.940 . S
C157 C152 1.391 . S
C157 C156 1.396 . S
C158 P138 1.803 . S
C158 C159 1.378 . S
C158 C163 1.400 . S
C159 H143 0.939 . S
C159 C158 1.378 . S
C159 C160 1.361 . S
C160 H144 0.942 . S
C160 C159 1.361 . S
C160 C161 1.369 . S
C161 C160 1.369 . S
C161 C162 1.404 . S
C162 H145 0.940 . S
C162 C161 1.404 . S
C162 C163 1.389 . S
C163 H146 0.939 . S
C163 C158 1.400 . S
C163 C162 1.389 . S
C164 P138 1.819 . S
C164 C165 1.391 . S
C164 C169 1.391 . S
C165 H147 0.941 . S
C165 C164 1.391 . S
C165 C166 1.396 . S
C166 H150 0.939 . S
C166 C165 1.396 . S
C166 C167 1.397 . S
C167 C166 1.397 . S
C167 C168 1.385 . S
C168 H151 0.940 . S
C168 C167 1.385 . S
C168 C169 1.388 . S
C169 H148 0.939 . S
C169 C164 1.391 . S
C169 C168 1.388 . S
C170 C171 1.387 1_556 S
C170 H174 0.950 . S
C170 C179 1.390 1_556 S
C171 C170 1.387 1_554 S
C171 C173 1.387 . S
H172 C179 0.950 1_556 S
C173 C171 1.387 . S
C173 C175 1.390 . S
C173 H177 0.950 . S
H174 C170 0.950 . S
C175 C173 1.390 . S
C175 C176 1.387 . S
C175 H178 0.950 . S
C176 C175 1.387 . S
C176 C179 1.387 . S
H177 C173 0.950 . S
H178 C175 0.950 . S
C179 C170 1.390 1_554 S
C179 H172 0.950 1_554 S
C179 C176 1.387 . S
C180 C181 1.387 1_554 S
C180 H184 0.950 . S
C180 C189 1.390 . S
C181 C180 1.387 1_556 S
C181 C183 1.387 . S
H182 C189 0.950 . S
C183 C181 1.387 . S
C183 C185 1.390 . S
C183 H187 0.950 . S
H184 C180 0.950 . S
C185 C183 1.390 . S
C185 C186 1.387 . S
C185 H188 0.950 . S
C186 C185 1.387 . S
C186 C189 1.387 1_556 S
H187 C183 0.950 . S
H188 C185 0.950 . S
C189 C180 1.390 . S
C189 H182 0.950 . S
C189 C186 1.387 1_554 S
C190 C191 1.387 . S
C190 H194 0.950 . S
C190 C199 1.390 . S
C191 C190 1.387 . S
C191 C193 1.387 1_554 S
H192 C199 0.950 . S
C193 C191 1.387 1_556 S
C193 C195 1.390 1_556 S
C193 H197 0.950 . S
H194 C190 0.950 . S
C195 C193 1.390 1_554 S
C195 C196 1.387 . S
C195 H198 0.950 1_554 S
C196 C195 1.387 . S
C196 C199 1.387 . S
H197 C193 0.950 . S
H198 C195 0.950 1_556 S
C199 C190 1.390 . S
C199 H192 0.950 . S
C199 C196 1.387 . S
C200 C201 1.387 . S
C200 H204 0.950 . S
C200 C209 1.390 . S
C201 C200 1.387 . S
C201 C203 1.387 1_556 S
H202 C209 0.950 . S
C203 C201 1.387 1_554 S
C203 C205 1.390 . S
C203 H207 0.950 . S
H204 C200 0.950 . S
C205 C203 1.390 . S
C205 C206 1.387 1_554 S
C205 H208 0.950 . S
C206 C205 1.387 1_556 S
C206 C209 1.387 . S
H207 C203 0.950 . S
H208 C205 0.950 . S
C209 C200 1.390 . S
C209 H202 0.950 . S
C209 C206 1.387 . S
C210 C211 1.387 . S
C210 H214 0.950 . S
C210 C219 1.390 . S
C211 C210 1.387 . S
C211 C213 1.387 . S
H212 C219 0.950 . S
C213 C211 1.387 . S
C213 C215 1.390 . S
C213 H217 0.950 . S
H214 C210 0.950 . S
C215 C213 1.390 . S
C215 C216 1.387 . S
C215 H218 0.950 . S
C216 C215 1.387 . S
C216 C219 1.387 . S
H217 C213 0.950 . S
H218 C215 0.950 . S
C219 C210 1.390 . S
C219 H212 0.950 . S
C219 C216 1.387 . S
C220 C221 1.387 . S
C220 H224 0.950 . S
C220 C229 1.390 . S
C221 C220 1.387 . S
C221 C223 1.387 . S
H222 C229 0.950 . S
C223 C221 1.387 . S
C223 C225 1.390 . S
C223 H227 0.950 . S
H224 C220 0.950 . S
C225 C223 1.390 . S
C225 C226 1.387 . S
C225 H228 0.950 . S
C226 C225 1.387 . S
C226 C229 1.387 . S
H227 C223 0.950 . S
H228 C225 0.950 . S
C229 C220 1.390 . S
C229 H222 0.950 . S
C229 C226 1.387 . S
C230 C231 1.387 . S
C230 H234 0.950 . S
C230 C239 1.390 . S
C231 C230 1.387 . S
C231 C233 1.387 . S
H232 C239 0.950 . S
C233 C231 1.387 . S
C233 C235 1.390 . S
C233 H237 0.950 . S
H234 C230 0.950 . S
C235 C233 1.390 . S
C235 C236 1.387 . S
C235 H238 0.950 . S
C236 C235 1.387 . S
C236 C239 1.387 . S
H237 C233 0.950 . S
H238 C235 0.950 . S
C239 C230 1.390 . S
C239 H232 0.950 . S
C239 C236 1.387 . S
C240 C241 1.387 . S
C240 H244 0.950 . S
C240 C249 1.390 . S
C241 C240 1.387 . S
C241 C243 1.387 . S
H242 C249 0.950 . S
C243 C241 1.387 . S
C243 C245 1.390 . S
C243 H247 0.950 . S
H244 C240 0.950 . S
C245 C243 1.390 . S
C245 C246 1.387 . S
C245 H248 0.950 . S
C246 C245 1.387 . S
C246 C249 1.387 . S
H247 C243 0.950 . S
H248 C245 0.950 . S
C249 C240 1.390 . S
C249 H242 0.950 . S
C249 C246 1.387 . S
C250 C251 1.387 . S
C250 H254 0.950 . S
C250 C259 1.390 1_565 S
C251 C250 1.387 . S
C251 C253 1.387 1_465 S
H252 C259 0.950 . S
C253 C251 1.387 1_645 S
C253 C255 1.390 . S
C253 H257 0.950 . S
H254 C250 0.950 . S
C255 C253 1.390 . S
C255 C256 1.387 1_655 S
C255 H258 0.950 . S
C256 C255 1.387 1_455 S
C256 C259 1.387 . S
H257 C253 0.950 . S
H258 C255 0.950 . S
C259 C250 1.390 1_545 S
C259 H252 0.950 . S
C259 C256 1.387 . S
C260 C261 1.387 1_545 S
C260 H264 0.950 . S
C260 C269 1.390 . S
C261 C260 1.387 1_565 S
C261 C263 1.387 1_455 S
H262 C269 0.950 . S
C263 C261 1.387 1_655 S
C263 C265 1.390 . S
C263 H267 0.950 . S
H264 C260 0.950 . S
C265 C263 1.390 . S
C265 C266 1.387 1_665 S
C265 H268 0.950 . S
C266 C265 1.387 1_445 S
C266 C269 1.387 . S
H267 C263 0.950 . S
H268 C265 0.950 . S
C269 C260 1.390 . S
C269 H262 0.950 . S
C269 C266 1.387 . S
C270 C271 1.387 . S
C270 H274 0.950 . S
C270 C279 1.390 . S
C271 C270 1.387 . S
C271 C273 1.387 . S
H272 C279 0.950 . S
C273 C271 1.387 . S
C273 C275 1.390 . S
C273 H277 0.950 . S
H274 C270 0.950 . S
C275 C273 1.390 . S
C275 C276 1.387 . S
C275 H278 0.950 . S
C276 C275 1.387 . S
C276 C279 1.387 . S
H277 C273 0.950 . S
H278 C275 0.950 . S
C279 C270 1.390 . S
C279 H272 0.950 . S
C279 C276 1.387 . S
C280 C281 1.387 . S
C280 H284 0.950 . S
C280 C289 1.390 . S
C281 C280 1.387 . S
C281 C283 1.387 . S
H282 C289 0.950 . S
C283 C281 1.387 . S
C283 C285 1.390 . S
C283 H287 0.950 . S
H284 C280 0.950 . S
C285 C283 1.390 . S
C285 C286 1.387 . S
C285 H288 0.950 . S
C286 C285 1.387 . S
C286 C289 1.387 . S
H287 C283 0.950 . S
H288 C285 0.950 . S
C289 C280 1.390 . S
C289 H282 0.950 . S
C289 C286 1.387 . S
C176 C155 1.312 . S
C171 C3 1.209 . S
C181 C4 1.469 1_556 S
C186 C123 1.582 . S
C191 C19 1.496 . S
C196 C161 1.574 . S
C201 C7 1.216 . S
C206 C129 1.323 . S
C211 C37 1.213 . S
C216 C91 1.310 . S
C221 C28 1.473 . S
C226 C59 1.581 . S
C236 C97 1.574 . S
C231 C41 1.497 . S
C246 C65 1.323 . S
C241 C25 1.217 . S
C251 C20 1.332 . S
C256 C71 1.514 . S
C261 C16 1.363 1_455 S
C266 C103 1.481 . S
C276 C135 1.514 . S
C271 C40 1.329 . S
C281 C24 1.364 . S
C286 C167 1.482 . S
