# Generated by pormake.
# Topology zzz, (3,6)-cn, num edge types: 1
# Building blocks:
#     Node 0, Type 0, BuildingBlock: BELTOD_clean_linker_0, # of connection points: 3
#     Node 1, Type 0, BuildingBlock: BELTOD_clean_linker_0, # of connection points: 3
#     Node 2, Type 0, BuildingBlock: BELTOD_clean_linker_0, # of connection points: 3
#     Node 3, Type 0, BuildingBlock: BELTOD_clean_linker_0, # of connection points: 3
#     Node 4, Type 0, BuildingBlock: BELTOD_clean_linker_0, # of connection points: 3
#     Node 5, Type 0, BuildingBlock: BELTOD_clean_linker_0, # of connection points: 3
#     Node 6, Type 0, BuildingBlock: BELTOD_clean_linker_0, # of connection points: 3
#     Node 7, Type 0, BuildingBlock: BELTOD_clean_linker_0, # of connection points: 3
#     Node 8, Type 1, BuildingBlock: MIFKUJ_clean_sbu_0, # of connection points: 6
#     Node 9, Type 1, BuildingBlock: MIFKUJ_clean_sbu_0, # of connection points: 6
#     Node 10, Type 1, BuildingBlock: MIFKUJ_clean_sbu_0, # of connection points: 6
#     Node 11, Type 1, BuildingBlock: MIFKUJ_clean_sbu_0, # of connection points: 6
#     Edge 12, Type (0, 1), None
#     Edge 13, Type (0, 1), None
#     Edge 14, Type (0, 1), None
#     Edge 15, Type (0, 1), None
#     Edge 16, Type (0, 1), None
#     Edge 17, Type (0, 1), None
#     Edge 18, Type (0, 1), None
#     Edge 19, Type (0, 1), None
#     Edge 20, Type (0, 1), None
#     Edge 21, Type (0, 1), None
#     Edge 22, Type (0, 1), None
#     Edge 23, Type (0, 1), None
#     Edge 24, Type (0, 1), None
#     Edge 25, Type (0, 1), None
#     Edge 26, Type (0, 1), None
#     Edge 27, Type (0, 1), None
#     Edge 28, Type (0, 1), None
#     Edge 29, Type (0, 1), None
#     Edge 30, Type (0, 1), None
#     Edge 31, Type (0, 1), None
#     Edge 32, Type (0, 1), None
#     Edge 33, Type (0, 1), None
#     Edge 34, Type (0, 1), None
#     Edge 35, Type (0, 1), None
# Relax obj value: 0.330
# Max RMSD: 0.183
# Mean RMSD: 0.180
data_MOF--net-zzz--node1-MIFKUJ_clean_sbu_0--node2-BELTOD_clean_linker_0--edge1-none
_symmetry_space_group_name_H-M    P1
_symmetry_Int_Tables_number       1
_symmetry_cell_setting            triclinic
loop_
_symmetry_equiv_pos_as_xyz
'x, y, z'
_cell_length_a     27.738197
_cell_length_b     27.741595
_cell_length_c     10.966445
_cell_angle_alpha  90.01774
_cell_angle_beta   90.044955
_cell_angle_gamma 90.013744
loop_
_atom_site_label
_atom_site_type_symbol
_atom_site_fract_x
_atom_site_fract_y
_atom_site_fract_z
_atom_type_partial_charge
P0 P 0.70102 0.44517 0.10289 0.0
H1 H 0.68209 0.42803 0.36121 0.0
H2 H 0.73898 0.4408 0.52644 0.0
H3 H 0.81267 0.54867 0.31307 0.0
H4 H 0.75342 0.53812 0.15084 0.0
H5 H 0.66294 0.38111 0.92379 0.0
H6 H 0.6084 0.38989 0.75367 0.0
H7 H 0.57728 0.53586 0.86584 0.0
H8 H 0.63439 0.52703 0.03696 0.0
H9 H 0.79211 0.39224 0.07222 0.0
H10 H 0.72332 0.52007 0.92982 0.0
O11 O 0.7005 0.38724 0.14443 0.0
H12 H 0.86413 0.41008 0.9492 0.0
H13 H 0.79439 0.5385 0.81196 0.0
C14 C 0.71487 0.47973 0.23958 0.0
C15 C 0.70859 0.45646 0.35181 0.0
C16 C 0.74198 0.46329 0.44606 0.0
C17 C 0.7822 0.49374 0.42997 0.0
C18 C 0.78308 0.52381 0.32707 0.0
C19 C 0.7489 0.51753 0.23358 0.0
C20 C 0.65138 0.45267 -0.00312 0.0
C21 C 0.64382 0.41493 0.91391 0.0
C22 C 0.6131 0.42036 0.81437 0.0
C23 C 0.58843 0.46386 0.79386 0.0
C24 C 0.59616 0.50215 0.87673 0.0
C25 C 0.6278 0.49676 0.97687 0.0
C26 C 0.75219 0.45428 0.00741 0.0
C27 C 0.79235 0.42375 0.01402 0.0
C28 C 0.83343 0.43416 0.94532 0.0
C29 C 0.83473 0.47594 0.87337 0.0
C30 C 0.79457 0.50646 0.86846 0.0
C31 C 0.7535 0.49543 0.93396 0.0
P32 P 0.03678 0.70124 0.10292 0.0
H33 H 0.05386 0.68239 0.36138 0.0
H34 H 0.04109 0.7393 0.52643 0.0
H35 H 0.9333 0.81297 0.31243 0.0
H36 H 0.94387 0.75372 0.15035 0.0
H37 H 0.10091 0.66295 0.9245 0.0
H38 H 0.09213 0.60843 0.75442 0.0
H39 H 0.94598 0.57762 0.86552 0.0
H40 H 0.95483 0.63471 0.03663 0.0
H41 H 0.08973 0.79233 0.07226 0.0
H42 H 0.96193 0.72346 0.92938 0.0
O43 O 0.0947 0.70073 0.14468 0.0
H44 H 0.0719 0.86433 0.94912 0.0
H45 H 0.94351 0.79451 0.81139 0.0
C46 C 0.0022 0.71516 0.23944 0.0
C47 C 0.02545 0.7089 0.35179 0.0
C48 C 0.01861 0.74229 0.44594 0.0
C49 C -0.01181 0.78251 0.42965 0.0
C50 C 0.95815 0.78339 0.32661 0.0
C51 C 0.96444 0.7492 0.2332 0.0
C52 C 0.02927 0.65155 -0.00292 0.0
C53 C 0.06705 0.64389 0.91442 0.0
C54 C 0.06162 0.61318 0.81488 0.0
C55 C 0.01807 0.58861 0.79406 0.0
C56 C 0.97974 0.59641 0.87665 0.0
C57 C 0.98513 0.62804 0.97679 0.0
C58 C 0.02771 0.75236 0.00722 0.0
C59 C 0.05824 0.79255 0.01392 0.0
C60 C 0.04783 0.83361 0.94514 0.0
C61 C 0.00605 0.8349 0.87305 0.0
C62 C 0.97555 0.79471 0.868 0.0
C63 C 0.98657 0.75365 0.93358 0.0
P64 P 0.7808 0.03678 0.10302 0.0
H65 H 0.79963 0.05387 0.36153 0.0
H66 H 0.74265 0.04119 0.52635 0.0
H67 H 0.66888 0.93343 0.3123 0.0
H68 H 0.7282 0.94391 0.15046 0.0
H69 H 0.81912 0.10098 0.92481 0.0
H70 H 0.87353 0.09226 0.75468 0.0
H71 H 0.90424 0.94604 0.86537 0.0
H72 H 0.84725 0.95483 0.03656 0.0
H73 H 0.68977 0.08979 0.07202 0.0
H74 H 0.75849 0.96194 0.92958 0.0
O75 O 0.78135 0.09469 0.14475 0.0
H76 H 0.61774 0.07199 0.94872 0.0
H77 H 0.68741 0.94356 0.81141 0.0
C78 C 0.76682 0.00222 0.23956 0.0
C79 C 0.77308 0.02548 0.35189 0.0
C80 C 0.73965 0.0187 0.4459 0.0
C81 C 0.69939 -0.01169 0.42952 0.0
C82 C 0.69849 0.95826 0.32654 0.0
C83 C 0.73273 0.96449 0.23327 0.0
C84 C 0.83047 0.02929 -0.00278 0.0
C85 C 0.83813 0.06711 0.91464 0.0
C86 C 0.86879 0.06172 0.81507 0.0
C87 C 0.8933 0.01817 0.79411 0.0
C88 C 0.8855 0.9798 0.87662 0.0
C89 C 0.85393 0.98516 0.9768 0.0
C90 C 0.72966 0.02773 0.00721 0.0
C91 C 0.68951 0.05829 0.01373 0.0
C92 C 0.64843 0.0479 0.94486 0.0
C93 C 0.6471 0.00613 0.87284 0.0
C94 C 0.68725 0.9756 0.86797 0.0
C95 C 0.72833 0.9866 0.93364 0.0
P96 P 0.4452 0.78088 0.10281 0.0
H97 H 0.42811 0.79976 0.36122 0.0
H98 H 0.44078 0.74282 0.52619 0.0
H99 H 0.54854 0.66906 0.31262 0.0
H100 H 0.53808 0.72836 0.15063 0.0
H101 H 0.38103 0.81904 0.92414 0.0
H102 H 0.38973 0.87352 0.75407 0.0
H103 H 0.53587 0.90451 0.86557 0.0
H104 H 0.52711 0.84745 0.03667 0.0
H105 H 0.39221 0.68982 0.07187 0.0
H106 H 0.52006 0.7586 0.92964 0.0
O107 O 0.38727 0.7814 0.14436 0.0
H108 H 0.41 0.6178 0.94872 0.0
H109 H 0.53844 0.68753 0.81163 0.0
C110 C 0.47976 0.76696 0.23948 0.0
C111 C 0.4565 0.77323 0.35172 0.0
C112 C 0.46327 0.73981 0.44582 0.0
C113 C 0.49365 0.69956 0.4296 0.0
C114 C 0.52372 0.69867 0.32672 0.0
C115 C 0.5175 0.73288 0.23337 0.0
C116 C 0.45268 0.83053 -0.00307 0.0
C117 C 0.41487 0.83812 0.91415 0.0
C118 C 0.42025 0.86881 0.81462 0.0
C119 C 0.46378 0.89343 0.79392 0.0
C120 C 0.50213 0.88568 0.87661 0.0
C121 C 0.49679 0.85407 0.97674 0.0
C122 C 0.45426 0.72974 0.00714 0.0
C123 C 0.42371 0.68958 0.01367 0.0
C124 C 0.4341 0.6485 0.94489 0.0
C125 C 0.47587 0.64719 0.87297 0.0
C126 C 0.5064 0.68735 0.86812 0.0
C127 C 0.4954 0.72842 0.93369 0.0
P128 P 0.30116 0.39156 0.09574 0.0
H129 H 0.23367 0.33772 0.95015 0.0
H130 H 0.16746 0.36722 0.8237 0.0
H131 H 0.23629 0.50683 0.80665 0.0
H132 H 0.30155 0.47734 0.93646 0.0
H133 H 0.40422 0.38005 0.15313 0.0
H134 H 0.454 0.42123 0.30728 0.0
H135 H 0.34394 0.52872 0.35213 0.0
H136 H 0.29761 0.49211 0.18786 0.0
H137 H 0.26763 0.33351 0.30479 0.0
H138 H 0.22424 0.46236 0.11218 0.0
O139 O 0.3213 0.33489 0.09357 0.0
H140 H 0.20145 0.3466 0.45024 0.0
H141 H 0.16082 0.47604 0.25631 0.0
C142 C 0.27265 0.40534 0.95255 0.0
C143 C 0.23557 0.37413 0.91478 0.0
C144 C 0.19701 0.39134 0.84513 0.0
C145 C 0.19567 0.43981 0.80918 0.0
C146 C 0.2357 0.46948 0.83531 0.0
C147 C 0.27385 0.45242 0.90695 0.0
C148 C 0.34567 0.4312 0.16338 0.0
C149 C 0.39113 0.4129 0.19465 0.0
C150 C 0.41866 0.43519 0.28605 0.0
C151 C 0.40006 0.47454 0.35116 0.0
C152 C 0.35772 0.49648 0.3086 0.0
C153 C 0.33118 0.47543 0.21408 0.0
C154 C 0.25074 0.39658 0.19697 0.0
C155 C 0.24385 0.3641 0.29292 0.0
C156 C 0.2063 0.37173 0.37567 0.0
C157 C 0.17653 0.41258 0.36419 0.0
C158 C 0.1835 0.44456 0.26773 0.0
C159 C 0.21979 0.43631 0.18432 0.0
P160 P 0.08991 0.30158 0.09566 0.0
H161 H 0.14385 0.23418 0.95033 0.0
H162 H 0.11444 0.16792 0.82388 0.0
H163 H 0.97471 0.23645 0.8064 0.0
H164 H 0.00411 0.30178 0.93619 0.0
H165 H 0.1014 0.40464 0.15281 0.0
H166 H 0.06032 0.45437 0.30704 0.0
H167 H 0.95287 0.34424 0.35212 0.0
H168 H -0.01061 0.29796 0.18781 0.0
H169 H 0.14804 0.26809 0.30482 0.0
H170 H 0.01912 0.22462 0.11211 0.0
O171 O 0.14659 0.32176 0.0936 0.0
H172 H 0.135 0.2019 0.4503 0.0
H173 H 0.00551 0.16117 0.25624 0.0
C174 C 0.07617 0.27303 0.95249 0.0
C175 C 0.10743 0.23601 0.91485 0.0
C176 C 0.09028 0.19742 0.84521 0.0
C177 C 0.04181 0.19598 0.80914 0.0
C178 C 0.01207 0.23595 0.83514 0.0
C179 C 0.02908 0.27413 0.90677 0.0
C180 C 0.05027 0.34606 0.1632 0.0
C181 C 0.06858 0.39153 0.1944 0.0
C182 C 0.04635 0.41903 0.28583 0.0
C183 C 0.00704 0.40039 0.35102 0.0
C184 C 0.98508 0.35805 0.30852 0.0
C185 C 0.00608 0.33153 0.21397 0.0
C186 C 0.08493 0.25116 0.19695 0.0
C187 C 0.11744 0.24429 0.29294 0.0
C188 C 0.10984 0.20673 0.3757 0.0
C189 C 0.069 0.17693 0.36419 0.0
C190 C 0.03699 0.18388 0.26769 0.0
C191 C 0.04521 0.22018 0.18428 0.0
P192 P 0.18025 0.09019 0.09537 0.0
H193 H 0.24773 0.14409 0.9502 0.0
H194 H 0.31401 0.11469 0.82407 0.0
H195 H 0.24544 0.97495 0.80663 0.0
H196 H 0.18009 0.00435 0.93611 0.0
H197 H 0.07726 0.10189 0.15282 0.0
H198 H 0.02753 0.06082 0.307 0.0
H199 H 0.13741 0.95312 0.35163 0.0
H200 H 0.18367 -0.01039 0.18725 0.0
H201 H 0.21382 0.14836 0.30442 0.0
H202 H 0.25707 0.0193 0.11246 0.0
O203 O 0.16015 0.14688 0.09309 0.0
H204 H 0.28 0.13533 0.45013 0.0
H205 H 0.3205 0.00569 0.25682 0.0
C206 C 0.20886 0.07641 0.95237 0.0
C207 C 0.2459 0.10767 0.91481 0.0
C208 C 0.28451 0.09052 0.84535 0.0
C209 C 0.28594 0.04205 0.80937 0.0
C210 C 0.24596 0.01231 0.83531 0.0
C211 C 0.20776 0.02932 0.90675 0.0
C212 C 0.13571 0.05061 0.16288 0.0
C213 C 0.09032 0.06901 0.19427 0.0
C214 C 0.06283 0.0468 0.28572 0.0
C215 C 0.0814 0.00742 0.35079 0.0
C216 C 0.12366 0.98538 0.30813 0.0
C217 C 0.15016 0.00636 0.21354 0.0
C218 C 0.23064 0.08517 0.19691 0.0
C219 C 0.23757 0.11773 0.29276 0.0
C220 C 0.27512 0.11013 0.37566 0.0
C221 C 0.30486 0.06925 0.36442 0.0
C222 C 0.29784 0.0372 0.26807 0.0
C223 C 0.26155 0.04541 0.18452 0.0
P224 P 0.39139 0.18049 0.09551 0.0
H225 H 0.3375 0.24798 0.95019 0.0
H226 H 0.36694 0.31424 0.82404 0.0
H227 H 0.50664 0.24564 0.8069 0.0
H228 H 0.47721 0.18031 0.93641 0.0
H229 H 0.37974 0.07749 0.15299 0.0
H230 H 0.4209 0.02776 0.30715 0.0
H231 H 0.52857 0.13772 0.35186 0.0
H232 H 0.49199 0.18399 0.18755 0.0
H233 H 0.33321 0.21399 0.30441 0.0
H234 H 0.46225 0.25736 0.11264 0.0
O235 O 0.3347 0.16034 0.09312 0.0
H236 H 0.34624 0.28018 0.45008 0.0
H237 H 0.47585 0.32079 0.25696 0.0
C238 C 0.40516 0.20909 0.95251 0.0
C239 C 0.37392 0.24614 0.91486 0.0
C240 C 0.39109 0.28474 0.84539 0.0
C241 C 0.43956 0.28615 0.80948 0.0
C242 C 0.46928 0.24617 0.83552 0.0
C243 C 0.45225 0.20798 0.90698 0.0
C244 C 0.431 0.13598 0.16311 0.0
C245 C 0.41263 0.09057 0.19447 0.0
C246 C 0.4349 0.06307 0.28589 0.0
C247 C 0.4743 0.08166 0.35097 0.0
C248 C 0.4963 0.12395 0.30835 0.0
C249 C 0.47526 0.15046 0.2138 0.0
C250 C 0.39639 0.23087 0.197 0.0
C251 C 0.36384 0.23776 0.29278 0.0
C252 C 0.37143 0.27532 0.37565 0.0
C253 C 0.4123 0.30509 0.36445 0.0
C254 C 0.44435 0.2981 0.26818 0.0
C255 C 0.43614 0.26181 0.18466 0.0
Zn256 Zn 0.01261 0.07537 0.59752 0.0
Zn257 Zn -0.00157 0.92325 0.58956 0.0
C258 C 0.02199 0.1539 0.7426 0.0
O259 O 0.98062 0.15855 0.68532 0.0
C260 C -0.00424 0.82602 0.50732 0.0
O261 O 0.03686 0.82953 0.56612 0.0
O262 O 0.01628 0.1222 0.4635 0.0
O263 O 0.03524 0.01274 0.53806 0.0
O264 O 0.05026 0.94251 0.46732 0.0
C265 C 0.05878 0.13923 0.45316 0.0
O266 O 0.09372 0.12212 0.52149 0.0
O267 O 0.04516 0.11423 0.73175 0.0
C268 C -0.00474 0.8758 0.79451 0.0
O269 O 0.95079 0.88169 0.75599 0.0
O270 O 0.02915 0.8965 0.73749 0.0
O271 O 0.95201 0.97694 0.66708 0.0
O272 O 0.94793 0.05775 0.66299 0.0
O273 O 0.96818 0.86308 0.50416 0.0
C274 C 0.05614 -0.01269 0.45827 0.0
C275 C 0.93145 0.01686 0.69766 0.0
Zn276 Zn 0.40651 0.0129 0.59787 0.0
Zn277 Zn 0.55865 -0.00143 0.58928 0.0
C278 C 0.32802 0.02224 0.74295 0.0
O279 O 0.32335 0.98087 0.68572 0.0
C280 C 0.65588 -0.00409 0.50704 0.0
O281 O 0.65241 0.037 0.5658 0.0
O282 O 0.35962 0.01657 0.46386 0.0
O283 O 0.46914 0.03549 0.53829 0.0
O284 O 0.53931 0.05043 0.46712 0.0
C285 C 0.34258 0.05906 0.45347 0.0
O286 O 0.35971 0.09401 0.52178 0.0
O287 O 0.36769 0.04542 0.73209 0.0
C288 C 0.60618 -0.00464 0.79421 0.0
O289 O 0.60024 0.9509 0.7557 0.0
O290 O 0.58549 0.02926 0.73717 0.0
O291 O 0.50497 0.95216 0.66692 0.0
O292 O 0.42414 0.94821 0.66325 0.0
O293 O 0.61878 0.96834 0.50386 0.0
C294 C 0.4945 0.05637 0.45836 0.0
C295 C 0.46504 0.93164 0.69762 0.0
Zn296 Zn 0.46877 0.40671 0.59797 0.0
Zn297 Zn 0.48329 0.55883 0.58935 0.0
C298 C 0.4594 0.32822 0.74305 0.0
O299 O 0.50074 0.32352 0.68581 0.0
C300 C 0.48605 0.65606 0.50718 0.0
O301 O 0.44497 0.65262 0.56595 0.0
O302 O 0.46499 0.35987 0.46393 0.0
O303 O 0.44625 0.46939 0.53856 0.0
O304 O 0.43137 0.53955 0.46718 0.0
C305 C 0.42251 0.34281 0.4535 0.0
O306 O 0.38757 0.35988 0.52182 0.0
O307 O 0.43626 0.3679 0.73218 0.0
C308 C 0.48661 0.60629 0.79435 0.0
O309 O 0.53106 0.60037 0.75589 0.0
O310 O 0.45268 0.58562 0.73725 0.0
O311 O 0.52966 0.50509 0.66691 0.0
O312 O 0.53353 0.42426 0.66329 0.0
O313 O 0.51357 0.61895 0.50399 0.0
C314 C 0.42538 0.49475 0.45853 0.0
C315 C 0.55016 0.46515 0.6976 0.0
Zn316 Zn 0.07507 0.46915 0.59761 0.0
Zn317 Zn 0.92297 0.48344 0.58974 0.0
C318 C 0.15363 0.45969 0.74265 0.0
O319 O 0.15837 0.50102 0.68538 0.0
C320 C 0.8257 0.48618 0.50767 0.0
O321 O 0.82917 0.44511 0.56648 0.0
O322 O 0.12186 0.46535 0.46352 0.0
O323 O 0.01236 0.44657 0.53837 0.0
O324 O 0.94213 0.43157 0.46743 0.0
C325 C 0.13884 0.42285 0.45315 0.0
O326 O 0.12172 0.38794 0.52151 0.0
O327 O 0.1139 0.4366 0.7318 0.0
C328 C 0.87562 0.4867 0.79479 0.0
O329 O 0.88152 0.53115 0.75629 0.0
O330 O 0.89626 0.4528 0.7377 0.0
O331 O 0.97677 0.52984 0.66713 0.0
O332 O 0.05759 0.53388 0.66304 0.0
O333 O 0.86281 0.51371 0.50446 0.0
C334 C 0.98693 0.42568 0.45848 0.0
C335 C 0.01672 0.5504 0.69768 0.0
loop_
_geom_bond_atom_site_label_1
_geom_bond_atom_site_label_2
_geom_bond_distance
_geom_bond_site_symmetry_2
_ccdc_geom_bond_type
P0 O11 1.490 . S
P0 C14 1.812 . S
P0 C20 1.803 . S
P0 C26 1.819 1_554 S
H1 C15 0.941 . S
H2 C16 0.939 . S
H3 C18 0.940 . S
H4 C19 0.940 . S
H5 C21 0.939 . S
H6 C22 0.942 . S
H7 C24 0.940 . S
H8 C25 0.939 . S
H9 C27 0.941 1_554 S
H10 C31 0.939 . S
O11 P0 1.490 . S
H12 C28 0.939 . S
H13 C30 0.940 . S
C14 P0 1.812 . S
C14 C15 1.389 . S
C14 C19 1.391 . S
C15 H1 0.941 . S
C15 C14 1.389 . S
C15 C16 1.397 . S
C16 H2 0.939 . S
C16 C15 1.397 . S
C16 C17 1.378 . S
C17 C16 1.378 . S
C17 C18 1.378 . S
C18 H3 0.940 . S
C18 C17 1.378 . S
C18 C19 1.396 . S
C19 H4 0.940 . S
C19 C14 1.391 . S
C19 C18 1.396 . S
C20 P0 1.803 . S
C20 C21 1.378 1_554 S
C20 C25 1.400 . S
C21 H5 0.939 . S
C21 C20 1.378 1_556 S
C21 C22 1.361 . S
C22 H6 0.942 . S
C22 C21 1.361 . S
C22 C23 1.369 . S
C23 C22 1.369 . S
C23 C24 1.404 1_556 S
C24 H7 0.940 . S
C24 C23 1.404 1_554 S
C24 C25 1.389 . S
C25 H8 0.939 . S
C25 C20 1.400 . S
C25 C24 1.389 . S
C26 P0 1.819 1_556 S
C26 C27 1.391 . S
C26 C31 1.391 . S
C27 H9 0.941 1_556 S
C27 C26 1.391 . S
C27 C28 1.396 . S
C28 H12 0.939 . S
C28 C27 1.396 . S
C28 C29 1.397 . S
C29 C28 1.397 . S
C29 C30 1.385 . S
C30 H13 0.940 . S
C30 C29 1.385 . S
C30 C31 1.388 . S
C31 H10 0.939 . S
C31 C26 1.391 . S
C31 C30 1.388 . S
P32 O43 1.490 . S
P32 C46 1.812 . S
P32 C52 1.803 . S
P32 C58 1.819 1_554 S
H33 C47 0.941 . S
H34 C48 0.939 . S
H35 C50 0.940 . S
H36 C51 0.940 . S
H37 C53 0.939 . S
H38 C54 0.942 . S
H39 C56 0.940 . S
H40 C57 0.939 . S
H41 C59 0.941 1_554 S
H42 C63 0.939 . S
O43 P32 1.490 . S
H44 C60 0.939 . S
H45 C62 0.940 . S
C46 P32 1.812 . S
C46 C47 1.389 . S
C46 C51 1.391 1_455 S
C47 H33 0.941 . S
C47 C46 1.389 . S
C47 C48 1.397 . S
C48 H34 0.939 . S
C48 C47 1.397 . S
C48 C49 1.378 1_455 S
C49 C48 1.378 1_655 S
C49 C50 1.378 . S
C50 H35 0.940 . S
C50 C49 1.378 . S
C50 C51 1.396 . S
C51 H36 0.940 . S
C51 C46 1.391 1_655 S
C51 C50 1.396 . S
C52 P32 1.803 . S
C52 C53 1.378 1_554 S
C52 C57 1.400 1_455 S
C53 H37 0.939 . S
C53 C52 1.378 1_556 S
C53 C54 1.361 . S
C54 H38 0.942 . S
C54 C53 1.361 . S
C54 C55 1.369 1_455 S
C55 C54 1.369 1_655 S
C55 C56 1.404 1_556 S
C56 H39 0.940 . S
C56 C55 1.404 1_554 S
C56 C57 1.389 . S
C57 H40 0.939 . S
C57 C52 1.400 1_655 S
C57 C56 1.389 . S
C58 P32 1.819 1_556 S
C58 C59 1.391 . S
C58 C63 1.391 1_455 S
C59 H41 0.941 1_556 S
C59 C58 1.391 . S
C59 C60 1.396 . S
C60 H44 0.939 . S
C60 C59 1.396 . S
C60 C61 1.397 1_455 S
C61 C60 1.397 1_655 S
C61 C62 1.385 . S
C62 H45 0.940 . S
C62 C61 1.385 . S
C62 C63 1.388 . S
C63 H42 0.939 . S
C63 C58 1.391 1_655 S
C63 C62 1.388 . S
P64 O75 1.490 . S
P64 C78 1.812 . S
P64 C84 1.803 . S
P64 C90 1.819 1_554 S
H65 C79 0.941 . S
H66 C80 0.939 . S
H67 C82 0.940 . S
H68 C83 0.940 . S
H69 C85 0.939 . S
H70 C86 0.942 . S
H71 C88 0.940 . S
H72 C89 0.939 . S
H73 C91 0.941 1_554 S
H74 C95 0.939 . S
O75 P64 1.490 . S
H76 C92 0.939 . S
H77 C94 0.940 . S
C78 P64 1.812 . S
C78 C79 1.389 . S
C78 C83 1.391 1_545 S
C79 H65 0.941 . S
C79 C78 1.389 . S
C79 C80 1.397 . S
C80 H66 0.939 . S
C80 C79 1.397 . S
C80 C81 1.378 1_545 S
C81 C80 1.378 1_565 S
C81 C82 1.378 . S
C82 H67 0.940 . S
C82 C81 1.378 . S
C82 C83 1.396 . S
C83 H68 0.940 . S
C83 C78 1.391 1_565 S
C83 C82 1.396 . S
C84 P64 1.803 . S
C84 C85 1.378 1_554 S
C84 C89 1.400 1_545 S
C85 H69 0.939 . S
C85 C84 1.378 1_556 S
C85 C86 1.361 . S
C86 H70 0.942 . S
C86 C85 1.361 . S
C86 C87 1.369 1_545 S
C87 C86 1.369 1_565 S
C87 C88 1.404 1_556 S
C88 H71 0.940 . S
C88 C87 1.404 1_554 S
C88 C89 1.389 . S
C89 H72 0.939 . S
C89 C84 1.400 1_565 S
C89 C88 1.389 . S
C90 P64 1.819 1_556 S
C90 C91 1.391 . S
C90 C95 1.391 1_545 S
C91 H73 0.941 1_556 S
C91 C90 1.391 . S
C91 C92 1.396 . S
C92 H76 0.939 . S
C92 C91 1.396 . S
C92 C93 1.397 1_545 S
C93 C92 1.397 1_565 S
C93 C94 1.385 . S
C94 H77 0.940 . S
C94 C93 1.385 . S
C94 C95 1.388 . S
C95 H74 0.939 . S
C95 C90 1.391 1_565 S
C95 C94 1.388 . S
P96 O107 1.490 . S
P96 C110 1.812 . S
P96 C116 1.803 . S
P96 C122 1.819 1_554 S
H97 C111 0.941 . S
H98 C112 0.939 . S
H99 C114 0.940 . S
H100 C115 0.940 . S
H101 C117 0.939 . S
H102 C118 0.942 . S
H103 C120 0.940 . S
H104 C121 0.939 . S
H105 C123 0.941 1_554 S
H106 C127 0.939 . S
O107 P96 1.490 . S
H108 C124 0.939 . S
H109 C126 0.940 . S
C110 P96 1.812 . S
C110 C111 1.389 . S
C110 C115 1.391 . S
C111 H97 0.941 . S
C111 C110 1.389 . S
C111 C112 1.397 . S
C112 H98 0.939 . S
C112 C111 1.397 . S
C112 C113 1.378 . S
C113 C112 1.378 . S
C113 C114 1.378 . S
C114 H99 0.940 . S
C114 C113 1.378 . S
C114 C115 1.396 . S
C115 H100 0.940 . S
C115 C110 1.391 . S
C115 C114 1.396 . S
C116 P96 1.803 . S
C116 C117 1.378 1_554 S
C116 C121 1.400 . S
C117 H101 0.939 . S
C117 C116 1.378 1_556 S
C117 C118 1.361 . S
C118 H102 0.942 . S
C118 C117 1.361 . S
C118 C119 1.369 . S
C119 C118 1.369 . S
C119 C120 1.404 1_556 S
C120 H103 0.940 . S
C120 C119 1.404 1_554 S
C120 C121 1.389 . S
C121 H104 0.939 . S
C121 C116 1.400 . S
C121 C120 1.389 . S
C122 P96 1.819 1_556 S
C122 C123 1.391 . S
C122 C127 1.391 . S
C123 H105 0.941 1_556 S
C123 C122 1.391 . S
C123 C124 1.396 . S
C124 H108 0.939 . S
C124 C123 1.396 . S
C124 C125 1.397 . S
C125 C124 1.397 . S
C125 C126 1.385 . S
C126 H109 0.940 . S
C126 C125 1.385 . S
C126 C127 1.388 . S
C127 H106 0.939 . S
C127 C122 1.391 . S
C127 C126 1.388 . S
P128 O139 1.490 . S
P128 C142 1.812 . S
P128 C148 1.803 . S
P128 C154 1.819 . S
H129 C143 0.941 . S
H130 C144 0.939 . S
H131 C146 0.940 . S
H132 C147 0.940 . S
H133 C149 0.939 . S
H134 C150 0.942 . S
H135 C152 0.940 . S
H136 C153 0.939 . S
H137 C155 0.941 . S
H138 C159 0.939 . S
O139 P128 1.490 . S
H140 C156 0.939 . S
H141 C158 0.940 . S
C142 P128 1.812 . S
C142 C143 1.389 1_554 S
C142 C147 1.391 . S
C143 H129 0.941 . S
C143 C142 1.389 1_556 S
C143 C144 1.397 . S
C144 H130 0.939 . S
C144 C143 1.397 . S
C144 C145 1.378 . S
C145 C144 1.378 . S
C145 C146 1.378 . S
C146 H131 0.940 . S
C146 C145 1.378 . S
C146 C147 1.396 1_556 S
C147 H132 0.940 . S
C147 C142 1.391 . S
C147 C146 1.396 1_554 S
C148 P128 1.803 . S
C148 C149 1.378 . S
C148 C153 1.400 . S
C149 H133 0.939 . S
C149 C148 1.378 . S
C149 C150 1.361 . S
C150 H134 0.942 . S
C150 C149 1.361 . S
C150 C151 1.369 . S
C151 C150 1.369 . S
C151 C152 1.404 . S
C152 H135 0.940 . S
C152 C151 1.404 . S
C152 C153 1.389 . S
C153 H136 0.939 . S
C153 C148 1.400 . S
C153 C152 1.389 . S
C154 P128 1.819 . S
C154 C155 1.391 . S
C154 C159 1.391 . S
C155 H137 0.941 . S
C155 C154 1.391 . S
C155 C156 1.396 . S
C156 H140 0.939 . S
C156 C155 1.396 . S
C156 C157 1.397 . S
C157 C156 1.397 . S
C157 C158 1.385 . S
C158 H141 0.940 . S
C158 C157 1.385 . S
C158 C159 1.388 . S
C159 H138 0.939 . S
C159 C154 1.391 . S
C159 C158 1.388 . S
P160 O171 1.490 . S
P160 C174 1.812 . S
P160 C180 1.803 . S
P160 C186 1.819 . S
H161 C175 0.941 . S
H162 C176 0.939 . S
H163 C178 0.940 1_655 S
H164 C179 0.940 . S
H165 C181 0.939 . S
H166 C182 0.942 . S
H167 C184 0.940 1_655 S
H168 C185 0.939 . S
H169 C187 0.941 . S
H170 C191 0.939 . S
O171 P160 1.490 . S
H172 C188 0.939 . S
H173 C190 0.940 1_655 S
C174 P160 1.812 . S
C174 C175 1.389 1_554 S
C174 C179 1.391 . S
C175 H161 0.941 . S
C175 C174 1.389 1_556 S
C175 C176 1.397 . S
C176 H162 0.939 . S
C176 C175 1.397 . S
C176 C177 1.378 . S
C177 C176 1.378 . S
C177 C178 1.378 . S
C178 H163 0.940 1_455 S
C178 C177 1.378 . S
C178 C179 1.396 1_556 S
C179 H164 0.940 . S
C179 C174 1.391 . S
C179 C178 1.396 1_554 S
C180 P160 1.803 . S
C180 C181 1.378 . S
C180 C185 1.400 . S
C181 H165 0.939 . S
C181 C180 1.378 . S
C181 C182 1.361 . S
C182 H166 0.942 . S
C182 C181 1.361 . S
C182 C183 1.369 . S
C183 C182 1.369 . S
C183 C184 1.404 . S
C184 H167 0.940 1_455 S
C184 C183 1.404 . S
C184 C185 1.389 . S
C185 H168 0.939 . S
C185 C180 1.400 . S
C185 C184 1.389 . S
C186 P160 1.819 . S
C186 C187 1.391 . S
C186 C191 1.391 . S
C187 H169 0.941 . S
C187 C186 1.391 . S
C187 C188 1.396 . S
C188 H172 0.939 . S
C188 C187 1.396 . S
C188 C189 1.397 . S
C189 C188 1.397 . S
C189 C190 1.385 . S
C190 H173 0.940 1_455 S
C190 C189 1.385 . S
C190 C191 1.388 . S
C191 H170 0.939 . S
C191 C186 1.391 . S
C191 C190 1.388 . S
P192 O203 1.490 . S
P192 C206 1.812 . S
P192 C212 1.803 . S
P192 C218 1.819 . S
H193 C207 0.941 . S
H194 C208 0.939 . S
H195 C210 0.940 1_565 S
H196 C211 0.940 . S
H197 C213 0.939 . S
H198 C214 0.942 . S
H199 C216 0.940 1_565 S
H200 C217 0.939 . S
H201 C219 0.941 . S
H202 C223 0.939 . S
O203 P192 1.490 . S
H204 C220 0.939 . S
H205 C222 0.940 1_565 S
C206 P192 1.812 . S
C206 C207 1.389 1_554 S
C206 C211 1.391 . S
C207 H193 0.941 . S
C207 C206 1.389 1_556 S
C207 C208 1.397 . S
C208 H194 0.939 . S
C208 C207 1.397 . S
C208 C209 1.378 . S
C209 C208 1.378 . S
C209 C210 1.378 . S
C210 H195 0.940 1_545 S
C210 C209 1.378 . S
C210 C211 1.396 1_556 S
C211 H196 0.940 . S
C211 C206 1.391 . S
C211 C210 1.396 1_554 S
C212 P192 1.803 . S
C212 C213 1.378 . S
C212 C217 1.400 . S
C213 H197 0.939 . S
C213 C212 1.378 . S
C213 C214 1.361 . S
C214 H198 0.942 . S
C214 C213 1.361 . S
C214 C215 1.369 . S
C215 C214 1.369 . S
C215 C216 1.404 . S
C216 H199 0.940 1_545 S
C216 C215 1.404 . S
C216 C217 1.389 . S
C217 H200 0.939 . S
C217 C212 1.400 . S
C217 C216 1.389 . S
C218 P192 1.819 . S
C218 C219 1.391 . S
C218 C223 1.391 . S
C219 H201 0.941 . S
C219 C218 1.391 . S
C219 C220 1.396 . S
C220 H204 0.939 . S
C220 C219 1.396 . S
C220 C221 1.397 . S
C221 C220 1.397 . S
C221 C222 1.385 . S
C222 H205 0.940 1_545 S
C222 C221 1.385 . S
C222 C223 1.388 . S
C223 H202 0.939 . S
C223 C218 1.391 . S
C223 C222 1.388 . S
P224 O235 1.490 . S
P224 C238 1.812 . S
P224 C244 1.803 . S
P224 C250 1.819 . S
H225 C239 0.941 . S
H226 C240 0.939 . S
H227 C242 0.940 . S
H228 C243 0.940 . S
H229 C245 0.939 . S
H230 C246 0.942 . S
H231 C248 0.940 . S
H232 C249 0.939 . S
H233 C251 0.941 . S
H234 C255 0.939 . S
O235 P224 1.490 . S
H236 C252 0.939 . S
H237 C254 0.940 . S
C238 P224 1.812 . S
C238 C239 1.389 1_554 S
C238 C243 1.391 . S
C239 H225 0.941 . S
C239 C238 1.389 1_556 S
C239 C240 1.397 . S
C240 H226 0.939 . S
C240 C239 1.397 . S
C240 C241 1.378 . S
C241 C240 1.378 . S
C241 C242 1.378 . S
C242 H227 0.940 . S
C242 C241 1.378 . S
C242 C243 1.396 1_556 S
C243 H228 0.940 . S
C243 C238 1.391 . S
C243 C242 1.396 1_554 S
C244 P224 1.803 . S
C244 C245 1.378 . S
C244 C249 1.400 . S
C245 H229 0.939 . S
C245 C244 1.378 . S
C245 C246 1.361 . S
C246 H230 0.942 . S
C246 C245 1.361 . S
C246 C247 1.369 . S
C247 C246 1.369 . S
C247 C248 1.404 . S
C248 H231 0.940 . S
C248 C247 1.404 . S
C248 C249 1.389 . S
C249 H232 0.939 . S
C249 C244 1.400 . S
C249 C248 1.389 . S
C250 P224 1.819 . S
C250 C251 1.391 . S
C250 C255 1.391 . S
C251 H233 0.941 . S
C251 C250 1.391 . S
C251 C252 1.396 . S
C252 H236 0.939 . S
C252 C251 1.396 . S
C252 C253 1.397 . S
C253 C252 1.397 . S
C253 C254 1.385 . S
C254 H237 0.940 . S
C254 C253 1.385 . S
C254 C255 1.388 . S
C255 H234 0.939 . S
C255 C250 1.391 . S
C255 C254 1.388 . S
Zn256 O262 1.969 1_455 S
Zn256 O263 1.965 . S
Zn256 O267 2.024 . S
Zn256 O272 1.969 1_455 S
Zn257 O264 1.969 . S
Zn257 O270 1.969 . S
Zn257 O271 1.965 1_455 S
Zn257 O273 2.024 1_455 S
C258 O259 1.229 1_455 S
C258 O267 1.058 . S
O259 C258 1.229 1_655 S
C260 O261 1.229 1_655 S
C260 O273 1.058 . S
O261 C260 1.229 1_455 S
O262 Zn256 1.969 1_655 S
O262 C265 1.267 . S
O263 Zn256 1.965 . S
O263 C274 1.260 . S
O264 Zn257 1.969 . S
O264 C274 1.258 1_565 S
C265 O262 1.267 . S
C265 O266 1.228 1_655 S
O266 C265 1.228 1_455 S
O267 Zn256 2.024 . S
O267 C258 1.058 . S
C268 O269 1.228 1_455 S
C268 O270 1.267 . S
O269 C268 1.228 1_655 S
O270 Zn257 1.969 . S
O270 C268 1.267 . S
O271 Zn257 1.965 1_655 S
O271 C275 1.260 1_565 S
O272 Zn256 1.969 1_655 S
O272 C275 1.258 . S
O273 Zn257 2.024 1_655 S
O273 C260 1.058 . S
C274 O263 1.260 . S
C274 O264 1.258 1_545 S
C275 O271 1.260 1_545 S
C275 O272 1.258 . S
Zn276 O282 1.969 1_545 S
Zn276 O283 1.965 . S
Zn276 O287 2.024 . S
Zn276 O292 1.969 1_545 S
Zn277 O284 1.969 . S
Zn277 O290 1.969 . S
Zn277 O291 1.965 1_545 S
Zn277 O293 2.024 1_545 S
C278 O279 1.229 1_545 S
C278 O287 1.058 . S
O279 C278 1.229 1_565 S
C280 O281 1.229 1_565 S
C280 O293 1.058 . S
O281 C280 1.229 1_545 S
O282 Zn276 1.969 1_565 S
O282 C285 1.267 . S
O283 Zn276 1.965 . S
O283 C294 1.260 . S
O284 Zn277 1.969 . S
O284 C294 1.258 . S
C285 O282 1.267 . S
C285 O286 1.228 1_565 S
O286 C285 1.228 1_545 S
O287 Zn276 2.024 . S
O287 C278 1.058 . S
C288 O289 1.228 1_545 S
C288 O290 1.267 . S
O289 C288 1.228 1_565 S
O290 Zn277 1.969 . S
O290 C288 1.267 . S
O291 Zn277 1.965 1_565 S
O291 C295 1.260 . S
O292 Zn276 1.969 1_565 S
O292 C295 1.258 . S
O293 Zn277 2.024 1_565 S
O293 C280 1.058 . S
C294 O283 1.260 . S
C294 O284 1.258 . S
C295 O291 1.260 . S
C295 O292 1.258 . S
Zn296 O302 1.969 . S
Zn296 O303 1.965 . S
Zn296 O307 2.024 . S
Zn296 O312 1.969 . S
Zn297 O304 1.969 . S
Zn297 O310 1.969 . S
Zn297 O311 1.965 . S
Zn297 O313 2.024 . S
C298 O299 1.229 . S
C298 O307 1.058 . S
O299 C298 1.229 . S
C300 O301 1.229 . S
C300 O313 1.058 . S
O301 C300 1.229 . S
O302 Zn296 1.969 . S
O302 C305 1.267 . S
O303 Zn296 1.965 . S
O303 C314 1.260 . S
O304 Zn297 1.969 . S
O304 C314 1.258 . S
C305 O302 1.267 . S
C305 O306 1.228 . S
O306 C305 1.228 . S
O307 Zn296 2.024 . S
O307 C298 1.058 . S
C308 O309 1.228 . S
C308 O310 1.267 . S
O309 C308 1.228 . S
O310 Zn297 1.969 . S
O310 C308 1.267 . S
O311 Zn297 1.965 . S
O311 C315 1.260 . S
O312 Zn296 1.969 . S
O312 C315 1.258 . S
O313 Zn297 2.024 . S
O313 C300 1.058 . S
C314 O303 1.260 . S
C314 O304 1.258 . S
C315 O311 1.260 . S
C315 O312 1.258 . S
Zn316 O322 1.969 . S
Zn316 O323 1.965 . S
Zn316 O327 2.024 . S
Zn316 O332 1.969 . S
Zn317 O324 1.969 . S
Zn317 O330 1.969 . S
Zn317 O331 1.965 . S
Zn317 O333 2.024 . S
C318 O319 1.229 . S
C318 O327 1.058 . S
O319 C318 1.229 . S
C320 O321 1.229 . S
C320 O333 1.058 . S
O321 C320 1.229 . S
O322 Zn316 1.969 . S
O322 C325 1.267 . S
O323 Zn316 1.965 . S
O323 C334 1.260 . S
O324 Zn317 1.969 . S
O324 C334 1.258 1_655 S
C325 O322 1.267 . S
C325 O326 1.228 . S
O326 C325 1.228 . S
O327 Zn316 2.024 . S
O327 C318 1.058 . S
C328 O329 1.228 . S
C328 O330 1.267 . S
O329 C328 1.228 . S
O330 Zn317 1.969 . S
O330 C328 1.267 . S
O331 Zn317 1.965 . S
O331 C335 1.260 1_655 S
O332 Zn316 1.969 . S
O332 C335 1.258 . S
O333 Zn317 2.024 . S
O333 C320 1.058 . S
C334 O323 1.260 . S
C334 O324 1.258 1_455 S
C335 O331 1.260 1_455 S
C335 O332 1.258 . S
C215 C274 2.774 . S
C294 C247 2.775 . S
C314 C151 2.773 . S
C334 C183 2.774 . S
C275 C87 2.606 1_545 S
C119 C295 2.605 . S
C23 C315 2.606 . S
C55 C335 2.607 1_655 S
C265 C189 1.406 1_655 S
C285 C221 1.405 1_565 S
C305 C253 1.406 . S
C157 C325 1.405 . S
C61 C268 0.905 1_655 S
C288 C93 0.904 1_545 S
C308 C125 0.905 . S
C29 C328 0.904 . S
C177 C258 2.730 . S
C209 C278 2.730 . S
C298 C241 2.731 . S
C318 C145 2.730 . S
C49 C260 2.717 . S
C280 C81 2.717 . S
C300 C113 2.717 . S
C17 C320 2.717 . S
