# Generated by pormake.
# Topology ctn, (3,4)-cn, num edge types: 1
# Building blocks:
#     Node 0, Type 0, BuildingBlock: ESEHIV_clean_linker_0, # of connection points: 3
#     Node 1, Type 0, BuildingBlock: ESEHIV_clean_linker_0, # of connection points: 3
#     Node 2, Type 0, BuildingBlock: ESEHIV_clean_linker_0, # of connection points: 3
#     Node 3, Type 0, BuildingBlock: ESEHIV_clean_linker_0, # of connection points: 3
#     Node 4, Type 0, BuildingBlock: ESEHIV_clean_linker_0, # of connection points: 3
#     Node 5, Type 0, BuildingBlock: ESEHIV_clean_linker_0, # of connection points: 3
#     Node 6, Type 0, BuildingBlock: ESEHIV_clean_linker_0, # of connection points: 3
#     Node 7, Type 0, BuildingBlock: ESEHIV_clean_linker_0, # of connection points: 3
#     Node 8, Type 0, BuildingBlock: ESEHIV_clean_linker_0, # of connection points: 3
#     Node 9, Type 0, BuildingBlock: ESEHIV_clean_linker_0, # of connection points: 3
#     Node 10, Type 0, BuildingBlock: ESEHIV_clean_linker_0, # of connection points: 3
#     Node 11, Type 0, BuildingBlock: ESEHIV_clean_linker_0, # of connection points: 3
#     Node 12, Type 0, BuildingBlock: ESEHIV_clean_linker_0, # of connection points: 3
#     Node 13, Type 0, BuildingBlock: ESEHIV_clean_linker_0, # of connection points: 3
#     Node 14, Type 0, BuildingBlock: ESEHIV_clean_linker_0, # of connection points: 3
#     Node 15, Type 0, BuildingBlock: ESEHIV_clean_linker_0, # of connection points: 3
#     Node 16, Type 1, BuildingBlock: TATPOV_clean_sbu_0, # of connection points: 4
#     Node 17, Type 1, BuildingBlock: TATPOV_clean_sbu_0, # of connection points: 4
#     Node 18, Type 1, BuildingBlock: TATPOV_clean_sbu_0, # of connection points: 4
#     Node 19, Type 1, BuildingBlock: TATPOV_clean_sbu_0, # of connection points: 4
#     Node 20, Type 1, BuildingBlock: TATPOV_clean_sbu_0, # of connection points: 4
#     Node 21, Type 1, BuildingBlock: TATPOV_clean_sbu_0, # of connection points: 4
#     Node 22, Type 1, BuildingBlock: TATPOV_clean_sbu_0, # of connection points: 4
#     Node 23, Type 1, BuildingBlock: TATPOV_clean_sbu_0, # of connection points: 4
#     Node 24, Type 1, BuildingBlock: TATPOV_clean_sbu_0, # of connection points: 4
#     Node 25, Type 1, BuildingBlock: TATPOV_clean_sbu_0, # of connection points: 4
#     Node 26, Type 1, BuildingBlock: TATPOV_clean_sbu_0, # of connection points: 4
#     Node 27, Type 1, BuildingBlock: TATPOV_clean_sbu_0, # of connection points: 4
#     Edge 28, Type (0, 1), BuildingBlock: CIFDUS_clean_linker_0, # of connection points: 2
#     Edge 29, Type (0, 1), BuildingBlock: CIFDUS_clean_linker_0, # of connection points: 2
#     Edge 30, Type (0, 1), BuildingBlock: CIFDUS_clean_linker_0, # of connection points: 2
#     Edge 31, Type (0, 1), BuildingBlock: CIFDUS_clean_linker_0, # of connection points: 2
#     Edge 32, Type (0, 1), BuildingBlock: CIFDUS_clean_linker_0, # of connection points: 2
#     Edge 33, Type (0, 1), BuildingBlock: CIFDUS_clean_linker_0, # of connection points: 2
#     Edge 34, Type (0, 1), BuildingBlock: CIFDUS_clean_linker_0, # of connection points: 2
#     Edge 35, Type (0, 1), BuildingBlock: CIFDUS_clean_linker_0, # of connection points: 2
#     Edge 36, Type (0, 1), BuildingBlock: CIFDUS_clean_linker_0, # of connection points: 2
#     Edge 37, Type (0, 1), BuildingBlock: CIFDUS_clean_linker_0, # of connection points: 2
#     Edge 38, Type (0, 1), BuildingBlock: CIFDUS_clean_linker_0, # of connection points: 2
#     Edge 39, Type (0, 1), BuildingBlock: CIFDUS_clean_linker_0, # of connection points: 2
#     Edge 40, Type (0, 1), BuildingBlock: CIFDUS_clean_linker_0, # of connection points: 2
#     Edge 41, Type (0, 1), BuildingBlock: CIFDUS_clean_linker_0, # of connection points: 2
#     Edge 42, Type (0, 1), BuildingBlock: CIFDUS_clean_linker_0, # of connection points: 2
#     Edge 43, Type (0, 1), BuildingBlock: CIFDUS_clean_linker_0, # of connection points: 2
#     Edge 44, Type (0, 1), BuildingBlock: CIFDUS_clean_linker_0, # of connection points: 2
#     Edge 45, Type (0, 1), BuildingBlock: CIFDUS_clean_linker_0, # of connection points: 2
#     Edge 46, Type (0, 1), BuildingBlock: CIFDUS_clean_linker_0, # of connection points: 2
#     Edge 47, Type (0, 1), BuildingBlock: CIFDUS_clean_linker_0, # of connection points: 2
#     Edge 48, Type (0, 1), BuildingBlock: CIFDUS_clean_linker_0, # of connection points: 2
#     Edge 49, Type (0, 1), BuildingBlock: CIFDUS_clean_linker_0, # of connection points: 2
#     Edge 50, Type (0, 1), BuildingBlock: CIFDUS_clean_linker_0, # of connection points: 2
#     Edge 51, Type (0, 1), BuildingBlock: CIFDUS_clean_linker_0, # of connection points: 2
#     Edge 52, Type (0, 1), BuildingBlock: CIFDUS_clean_linker_0, # of connection points: 2
#     Edge 53, Type (0, 1), BuildingBlock: CIFDUS_clean_linker_0, # of connection points: 2
#     Edge 54, Type (0, 1), BuildingBlock: CIFDUS_clean_linker_0, # of connection points: 2
#     Edge 55, Type (0, 1), BuildingBlock: CIFDUS_clean_linker_0, # of connection points: 2
#     Edge 56, Type (0, 1), BuildingBlock: CIFDUS_clean_linker_0, # of connection points: 2
#     Edge 57, Type (0, 1), BuildingBlock: CIFDUS_clean_linker_0, # of connection points: 2
#     Edge 58, Type (0, 1), BuildingBlock: CIFDUS_clean_linker_0, # of connection points: 2
#     Edge 59, Type (0, 1), BuildingBlock: CIFDUS_clean_linker_0, # of connection points: 2
#     Edge 60, Type (0, 1), BuildingBlock: CIFDUS_clean_linker_0, # of connection points: 2
#     Edge 61, Type (0, 1), BuildingBlock: CIFDUS_clean_linker_0, # of connection points: 2
#     Edge 62, Type (0, 1), BuildingBlock: CIFDUS_clean_linker_0, # of connection points: 2
#     Edge 63, Type (0, 1), BuildingBlock: CIFDUS_clean_linker_0, # of connection points: 2
#     Edge 64, Type (0, 1), BuildingBlock: CIFDUS_clean_linker_0, # of connection points: 2
#     Edge 65, Type (0, 1), BuildingBlock: CIFDUS_clean_linker_0, # of connection points: 2
#     Edge 66, Type (0, 1), BuildingBlock: CIFDUS_clean_linker_0, # of connection points: 2
#     Edge 67, Type (0, 1), BuildingBlock: CIFDUS_clean_linker_0, # of connection points: 2
#     Edge 68, Type (0, 1), BuildingBlock: CIFDUS_clean_linker_0, # of connection points: 2
#     Edge 69, Type (0, 1), BuildingBlock: CIFDUS_clean_linker_0, # of connection points: 2
#     Edge 70, Type (0, 1), BuildingBlock: CIFDUS_clean_linker_0, # of connection points: 2
#     Edge 71, Type (0, 1), BuildingBlock: CIFDUS_clean_linker_0, # of connection points: 2
#     Edge 72, Type (0, 1), BuildingBlock: CIFDUS_clean_linker_0, # of connection points: 2
#     Edge 73, Type (0, 1), BuildingBlock: CIFDUS_clean_linker_0, # of connection points: 2
#     Edge 74, Type (0, 1), BuildingBlock: CIFDUS_clean_linker_0, # of connection points: 2
#     Edge 75, Type (0, 1), BuildingBlock: CIFDUS_clean_linker_0, # of connection points: 2
# Relax obj value: 0.003
# Max RMSD: 0.046
# Mean RMSD: 0.021
data_MOF--net-ctn--node1-TATPOV_clean_sbu_0--node2-ESEHIV_clean_linker_0--edge1-CIFDUS_clean_linker_0
_symmetry_space_group_name_H-M    P1
_symmetry_Int_Tables_number       1
_symmetry_cell_setting            triclinic
loop_
_symmetry_equiv_pos_as_xyz
'x, y, z'
_cell_length_a     44.658234
_cell_length_b     44.61679
_cell_length_c     44.580881
_cell_angle_alpha  91.236372
_cell_angle_beta   91.534998
_cell_angle_gamma 91.380544
loop_
_atom_site_label
_atom_site_type_symbol
_atom_site_fract_x
_atom_site_fract_y
_atom_site_fract_z
_atom_type_partial_charge
H0 H 0.97231 0.05998 0.03138 0.0
H1 H 0.02035 0.98262 0.05907 0.0
H2 H 0.04265 0.02557 0.9769 0.0
C3 C 0.98925 0.04352 0.02721 0.0
C4 C 0.00642 0.0454 0.00122 0.0
C5 C 0.99419 0.02113 0.04829 0.0
C6 C 0.01664 0.0003 0.04317 0.0
C7 C 0.03432 0.00187 0.01765 0.0
C8 C 0.02938 0.02468 0.99687 0.0
H9 H 0.27624 0.6629 0.25613 0.0
H10 H 0.28705 0.74013 0.20077 0.0
H11 H 0.20659 0.68609 0.19254 0.0
C12 C 0.26733 0.67807 0.23968 0.0
C13 C 0.23866 0.67216 0.22653 0.0
C14 C 0.28528 0.70229 0.23027 0.0
C15 C 0.27367 0.72125 0.20821 0.0
C16 C 0.2457 0.71514 0.19415 0.0
C17 C 0.22824 0.69068 0.20345 0.0
H18 H 0.95542 0.46538 0.09042 0.0
H19 H 0.01773 0.39827 0.06348 0.0
H20 H 0.95727 0.43463 0.99822 0.0
C21 C 0.9648 0.45148 0.07297 0.0
C22 C 0.95278 0.45192 0.04349 0.0
C23 C 0.98821 0.43214 0.08028 0.0
C24 C -0.00034 0.41318 0.05798 0.0
C25 C 0.98871 0.41438 0.02834 0.0
C26 C 0.96553 0.43382 0.02128 0.0
H27 H 0.70929 0.70901 0.22168 0.0
H28 H 0.78444 0.76783 0.20437 0.0
H29 H 0.72289 0.79045 0.27367 0.0
C30 C 0.72247 0.72925 0.22697 0.0
C31 C 0.71338 0.74874 0.24987 0.0
C32 C 0.74806 0.73593 0.21046 0.0
C33 C 0.7646 0.76267 0.21695 0.0
C34 C 0.75606 0.78226 0.24022 0.0
C35 C 0.73039 0.775 0.2565 0.0
H36 H 0.0055 0.97256 0.43778 0.0
H37 H 0.06213 0.04712 0.41459 0.0
H38 H 0.09626 0.97919 0.47276 0.0
C39 C 0.02715 0.9841 0.43943 0.0
C40 C 0.05043 0.97225 0.45692 0.0
C41 C 0.03128 0.01075 0.42392 0.0
C42 C 0.05888 0.02638 0.42643 0.0
C43 C 0.08227 0.01512 0.44435 0.0
C44 C 0.07805 0.98795 0.45927 0.0
H45 H 0.19852 0.78284 0.7821 0.0
H46 H 0.26443 0.71761 0.80488 0.0
H47 H 0.20592 0.70235 0.72799 0.0
C48 C 0.20921 0.76174 0.77756 0.0
C49 C 0.19948 0.74394 0.75257 0.0
C50 C 0.23262 0.75255 0.79669 0.0
C51 C 0.24698 0.72559 0.78992 0.0
C52 C 0.23759 0.70765 0.76505 0.0
C53 C 0.21378 0.71681 0.74657 0.0
H54 H 0.912 0.56748 0.53166 0.0
H55 H 0.98532 0.59684 0.4776 0.0
H56 H 0.94897 0.50695 0.46724 0.0
C57 C 0.92783 0.56311 0.51417 0.0
C58 C 0.92855 0.53451 0.50063 0.0
C59 C 0.94851 0.58563 0.50611 0.0
C60 C 0.96937 0.57952 0.48382 0.0
C61 C 0.96982 0.55115 0.46969 0.0
C62 C 0.94924 0.52886 0.47826 0.0
H63 H 0.78727 0.80693 0.85251 0.0
H64 H 0.81087 0.85991 0.77702 0.0
H65 H 0.86654 0.78737 0.80388 0.0
C66 C 0.80281 0.81241 0.83508 0.0
C67 C 0.82816 0.79485 0.83109 0.0
C68 C 0.79631 0.83583 0.8156 0.0
C69 C 0.81606 0.84225 0.79248 0.0
C70 C 0.8414 0.82482 0.78792 0.0
C71 C 0.84749 0.80142 0.80763 0.0
H72 H 0.29667 0.33869 0.37816 0.0
H73 H 0.31718 0.37077 0.29082 0.0
H74 H 0.36078 0.29323 0.32402 0.0
C75 C 0.30978 0.33709 0.35813 0.0
C76 C 0.33043 0.31395 0.35476 0.0
C77 C 0.30476 0.35745 0.335 0.0
C78 C 0.32153 0.35554 0.30896 0.0
C79 C 0.34193 0.33251 0.30501 0.0
C80 C 0.34642 0.31204 0.32802 0.0
H81 H 0.49516 0.99008 0.56208 0.0
H82 H 0.52579 0.89993 0.54645 0.0
H83 H 0.46578 0.94007 0.48333 0.0
C84 C 0.49512 0.96934 0.54905 0.0
C85 C 0.47808 0.96753 0.52218 0.0
C86 C 0.51254 0.94509 0.55847 0.0
C87 C 0.5129 0.91903 0.53984 0.0
C88 C 0.49695 0.91751 0.51221 0.0
C89 C 0.47918 0.94163 0.50398 0.0
H90 H 0.20192 0.2314 0.69756 0.0
H91 H 0.28431 0.2793 0.67962 0.0
H92 H 0.22415 0.3139 0.74495 0.0
C93 C 0.21753 0.25 0.70225 0.0
C94 C 0.20995 0.27254 0.72285 0.0
C95 C 0.2445 0.25211 0.68665 0.0
C96 C 0.26415 0.27689 0.69245 0.0
C97 C 0.25691 0.29959 0.7132 0.0
C98 C 0.22997 0.29681 0.72861 0.0
H99 H 0.77359 0.18283 0.77096 0.0
H100 H 0.80537 0.25488 0.717 0.0
H101 H 0.71626 0.21837 0.70168 0.0
C102 C 0.76994 0.1982 0.7528 0.0
C103 C 0.74221 0.19768 0.73689 0.0
C104 C 0.7927 0.21907 0.74607 0.0
C105 C 0.7875 0.23947 0.72302 0.0
C106 C 0.75992 0.23969 0.70706 0.0
C107 C 0.73745 0.2186 0.7141 0.0
H108 H 0.48457 0.56702 0.52822 0.0
H109 H 0.52091 0.48387 0.55698 0.0
H110 H 0.55847 0.5293 0.48176 0.0
C111 C 0.50069 0.54943 0.52564 0.0
C112 C 0.52177 0.55129 0.50289 0.0
C113 C 0.50011 0.52514 0.54511 0.0
C114 C 0.52114 0.50247 0.54175 0.0
C115 C 0.5423 0.50357 0.51889 0.0
C116 C 0.54238 0.52814 0.49949 0.0
H117 H 0.50175 0.46922 0.96768 0.0
H118 H 0.55682 0.54196 0.93737 0.0
H119 H 0.58692 0.48915 0.0118 0.0
C120 C 0.52207 0.48294 0.97019 0.0
C121 C 0.54362 0.47642 0.99243 0.0
C122 C 0.52649 0.50661 0.95056 0.0
C123 C 0.55335 0.52362 0.95255 0.0
C124 C 0.57522 0.51758 0.97486 0.0
C125 C 0.57012 0.49396 0.9947 0.0
H126 H 0.68909 0.27707 0.27389 0.0
H127 H 0.75767 0.2192 0.30716 0.0
H128 H 0.71464 0.19997 0.22158 0.0
C129 C 0.70258 0.25738 0.27125 0.0
C130 C 0.69923 0.23947 0.2449 0.0
C131 C 0.72356 0.25036 0.29399 0.0
C132 C 0.74181 0.2254 0.28969 0.0
C133 C 0.73878 0.20737 0.26355 0.0
C134 C 0.71734 0.21436 0.24142 0.0
H135 H 0.42042 0.05246 0.02925 0.0
H136 H 0.49081 0.08481 0.97345 0.0
H137 H 0.46015 0.99265 0.96586 0.0
C138 C 0.43649 0.04843 0.0119 0.0
C139 C 0.43803 0.01978 0.99856 0.0
C140 C 0.45591 0.07179 0.00336 0.0
C141 C 0.47669 0.06647 0.98084 0.0
C142 C 0.47808 0.03807 0.96674 0.0
C143 C 0.45907 0.01475 0.97629 0.0
Zn144 Zn 0.28563 0.83974 0.01145 0.0
Zn145 Zn 0.23899 0.87561 0.01261 0.0
O146 O 0.23304 0.84973 0.05056 0.0
O147 O 0.26866 0.81669 0.04566 0.0
O148 O 0.2049 0.90507 0.01244 0.0
O149 O 0.31457 0.87467 0.01863 0.0
O150 O 0.2761 0.90434 0.01509 0.0
C151 C 0.24633 0.82637 0.05947 0.0
C152 C 0.2505 0.83509 0.95718 0.0
O153 O 0.23355 0.85267 0.97155 0.0
O154 O 0.27493 0.82697 0.9691 0.0
C155 C 0.17729 0.89754 0.00968 0.0
O156 O 0.16966 0.86895 0.00733 0.0
C157 C 0.30429 0.90084 0.01793 0.0
Zn158 Zn 0.08094 0.43085 0.29947 0.0
Zn159 Zn 0.11052 0.48271 0.29126 0.0
O160 O 0.085 0.49377 0.32765 0.0
O161 O 0.06191 0.45034 0.33488 0.0
O162 O 0.13385 0.52064 0.28169 0.0
O163 O 0.11927 0.40995 0.30713 0.0
O164 O 0.14384 0.45283 0.30207 0.0
C165 C 0.06723 0.47746 0.34262 0.0
C166 C 0.06813 0.45343 0.24181 0.0
O167 O 0.08607 0.47427 0.25171 0.0
O168 O 0.06198 0.43138 0.25812 0.0
C169 C 0.14951 0.53585 0.3011 0.0
O170 O 0.15038 0.52713 0.32906 0.0
C171 C 0.1437 0.42493 0.30786 0.0
Zn172 Zn 0.80041 0.59594 0.94603 0.0
Zn173 Zn 0.79005 0.62572 0.9973 0.0
O174 O 0.82268 0.59635 0.01075 0.0
O175 O 0.82805 0.56935 0.96933 0.0
O176 O 0.78299 0.65157 0.03408 0.0
O177 O 0.81581 0.63351 0.92672 0.0
O178 O 0.8036 0.65786 0.96782 0.0
C179 C 0.83458 0.57462 0.99679 0.0
C180 C 0.73891 0.59104 0.96309 0.0
O181 O 0.74865 0.60567 0.98643 0.0
O182 O 0.75648 0.58498 0.9421 0.0
C183 C 0.78156 0.64222 0.06074 0.0
O184 O 0.78418 0.61345 0.0656 0.0
C185 C 0.81352 0.65797 0.9413 0.0
Zn186 Zn 0.83602 0.99958 0.2941 0.0
Zn187 Zn 0.86458 0.00578 0.24288 0.0
O188 O 0.83558 0.04141 0.24296 0.0
O189 O 0.80784 0.03219 0.28208 0.0
O190 O 0.88735 0.00994 0.20451 0.0
O191 O 0.87444 0.01021 0.31749 0.0
O192 O 0.89849 0.01034 0.27507 0.0
C193 C 0.81372 0.04786 0.25956 0.0
C194 C 0.83112 0.94642 0.25704 0.0
O195 O 0.84478 0.9631 0.23863 0.0
O196 O 0.82573 0.95643 0.28308 0.0
C197 C 0.87476 0.0141 0.17908 0.0
O198 O 0.84545 0.01596 0.17724 0.0
C199 C 0.89873 0.01275 0.30362 0.0
Zn200 Zn 0.30916 0.1015 0.44054 0.0
Zn201 Zn 0.2926 0.12074 0.49555 0.0
O202 O 0.33041 0.09582 0.50446 0.0
O203 O 0.34426 0.08133 0.45947 0.0
O204 O 0.28147 0.13764 0.53605 0.0
O205 O 0.31416 0.14444 0.42771 0.0
O206 O 0.29866 0.1594 0.472 0.0
C207 C 0.34843 0.08188 0.48767 0.0
C208 C 0.24987 0.08059 0.45656 0.0
O209 O 0.25561 0.09587 0.4806 0.0
O210 O 0.26906 0.07905 0.43618 0.0
C211 C 0.2558 0.14891 0.539 0.0
O212 O 0.23673 0.14775 0.51602 0.0
C213 C 0.30755 0.1653 0.44585 0.0
Zn214 Zn 0.34282 0.50809 0.79909 0.0
Zn215 Zn 0.37849 0.51064 0.752 0.0
O216 O 0.35495 0.55027 0.74894 0.0
O217 O 0.32384 0.54623 0.78634 0.0
O218 O 0.40684 0.51148 0.71739 0.0
O219 O 0.37909 0.50944 0.82735 0.0
O220 O 0.40813 0.51026 0.7883 0.0
C221 C 0.33346 0.56046 0.76416 0.0
C222 C 0.33239 0.4584 0.75844 0.0
O223 O 0.35294 0.47144 0.74382 0.0
O224 O 0.32415 0.46938 0.78319 0.0
C225 C 0.39875 0.51585 0.69031 0.0
O226 O 0.37035 0.52037 0.68388 0.0
C227 C 0.40508 0.51028 0.81665 0.0
Zn228 Zn 0.79438 0.34232 0.50987 0.0
Zn229 Zn 0.74346 0.37184 0.50429 0.0
O230 O 0.73646 0.34549 0.54179 0.0
O231 O 0.77849 0.32054 0.54513 0.0
O232 O 0.70747 0.39879 0.5014 0.0
O233 O 0.819 0.38007 0.5165 0.0
O234 O 0.77732 0.40443 0.50932 0.0
C235 C 0.75281 0.32623 0.55469 0.0
C236 C 0.76406 0.3313 0.45251 0.0
O237 O 0.74406 0.34802 0.4635 0.0
O238 O 0.78753 0.32594 0.46784 0.0
C239 C 0.6802 0.3923 0.50647 0.0
O240 O 0.6727 0.36478 0.51366 0.0
C241 C 0.80558 0.4046 0.5143 0.0
Zn242 Zn 0.58994 0.93832 0.7815 0.0
Zn243 Zn 0.61662 0.99274 0.77979 0.0
O244 O 0.5877 0.99995 0.81429 0.0
O245 O 0.56265 0.95668 0.81207 0.0
O246 O 0.64222 0.03034 0.7765 0.0
O247 O 0.62812 0.91872 0.79458 0.0
O248 O 0.64982 0.96289 0.78911 0.0
C249 C 0.56661 0.98288 0.82328 0.0
C250 C 0.58246 0.9654 0.72451 0.0
O251 O 0.595 0.98788 0.73831 0.0
O252 O 0.57924 0.94059 0.73739 0.0
C253 C 0.6345 0.05679 0.77034 0.0
O254 O 0.60598 0.06246 0.76614 0.0
C255 C 0.65159 0.93519 0.79504 0.0
Zn256 Zn 0.00864 0.29107 0.83367 0.0
Zn257 Zn 0.01006 0.23898 0.85752 0.0
O258 O 0.0471 0.24059 0.82941 0.0
O259 O 0.04316 0.28403 0.80756 0.0
O260 O 0.01548 0.1991 0.87809 0.0
O261 O 0.01534 0.31293 0.87274 0.0
O262 O 0.0121 0.2691 0.89412 0.0
C263 C 0.05684 0.25983 0.81096 0.0
C264 C 0.95374 0.25775 0.82223 0.0
O265 O 0.96753 0.23703 0.83591 0.0
O266 O 0.96673 0.28289 0.81873 0.0
C267 C 0.99483 0.18449 0.89094 0.0
O268 O 0.96745 0.19465 0.89006 0.0
C269 C 0.01482 0.29763 0.89627 0.0
Zn270 Zn 0.49431 0.7746 0.31408 0.0
Zn271 Zn 0.5003 0.73342 0.3553 0.0
O272 O 0.53835 0.73019 0.32922 0.0
O273 O 0.53068 0.76182 0.29267 0.0
O274 O 0.50565 0.69947 0.38443 0.0
O275 O 0.4976 0.80613 0.34721 0.0
O276 O 0.50069 0.77202 0.38204 0.0
C277 C 0.54657 0.74226 0.30498 0.0
C278 C 0.44394 0.73488 0.31283 0.0
O279 O 0.45859 0.72309 0.33439 0.0
O280 O 0.45457 0.75765 0.30007 0.0
C281 C 0.50989 0.67317 0.37401 0.0
O282 O 0.51038 0.66893 0.34477 0.0
C283 C 0.49988 0.79948 0.37466 0.0
Zn284 Zn 0.9588 0.80743 0.58915 0.0
Zn285 Zn 0.01028 0.79796 0.61972 0.0
O286 O 0.02243 0.8325 0.59241 0.0
O287 O 0.98146 0.83726 0.56438 0.0
O288 O 0.04804 0.78969 0.64335 0.0
O289 O 0.9396 0.81977 0.62785 0.0
O290 O 0.98099 0.80887 0.65272 0.0
C291 C 0.00845 0.84475 0.57082 0.0
C292 C 0.97828 0.74736 0.582 0.0
O293 O 0.00062 0.75762 0.59777 0.0
O294 O 0.95655 0.76406 0.57582 0.0
C295 C 0.07118 0.77976 0.63088 0.0
O296 O 0.07061 0.77523 0.60164 0.0
C297 C 0.95396 0.81739 0.65253 0.0
Zn298 Zn 0.43821 0.28888 0.09665 0.0
Zn299 Zn 0.49302 0.28561 0.12345 0.0
O300 O 0.49886 0.32316 0.09812 0.0
O301 O 0.45362 0.32661 0.07757 0.0
O302 O 0.53092 0.28227 0.14841 0.0
O303 O 0.41829 0.29299 0.13633 0.0
O304 O 0.46332 0.29128 0.15728 0.0
C305 C 0.48019 0.33683 0.08154 0.0
C306 C 0.46822 0.23399 0.0826 0.0
O307 O 0.48912 0.24571 0.09937 0.0
O308 O 0.44422 0.24793 0.07796 0.0
C309 C 0.55651 0.27411 0.14011 0.0
O310 O 0.56057 0.26747 0.11168 0.0
C311 C 0.43516 0.29389 0.15961 0.0
H312 H 0.19536 0.78096 0.83524 0.0
H313 H 0.28873 0.76346 0.82124 0.0
H314 H 0.30223 0.78803 0.86923 0.0
H315 H 0.28752 0.81247 0.91593 0.0
H316 H 0.19468 0.83198 0.92974 0.0
H317 H 0.18104 0.80922 0.88056 0.0
C318 C 0.21874 0.783 0.84235 0.0
C319 C 0.24096 0.77004 0.82466 0.0
C320 C 0.22643 0.79747 0.86993 0.0
C321 C 0.27108 0.77264 0.83458 0.0
C322 C 0.27886 0.78684 0.86197 0.0
C323 C 0.26427 0.81185 0.90819 0.0
C324 C 0.24208 0.82359 0.92662 0.0
C325 C 0.25669 0.7989 0.88 0.0
C326 C 0.21216 0.82305 0.91602 0.0
C327 C 0.20437 0.80995 0.88795 0.0
H328 H 0.001 0.50038 0.46277 0.0
H329 H 0.98767 0.58672 0.42349 0.0
H330 H 0.01962 0.57285 0.38185 0.0
H331 H 0.04751 0.53402 0.35419 0.0
H332 H 0.05607 0.44649 0.39239 0.0
H333 H 0.02955 0.46282 0.43661 0.0
C334 C 0.00492 0.51616 0.44504 0.0
C335 C 0.99159 0.54433 0.44601 0.0
C336 C 0.02231 0.50769 0.4208 0.0
C337 C 0.99772 0.56487 0.42333 0.0
C338 C 0.0158 0.55687 0.39939 0.0
C339 C 0.0438 0.51876 0.37241 0.0
C340 C 0.05345 0.48908 0.37002 0.0
C341 C 0.02767 0.52805 0.39753 0.0
C342 C 0.04848 0.46936 0.39363 0.0
C343 C 0.03338 0.47867 0.41893 0.0
H344 H 0.82103 0.78892 0.89127 0.0
H345 H 0.8436 0.73918 0.8112 0.0
H346 H 0.84417 0.69292 0.83919 0.0
H347 H 0.83337 0.66586 0.88488 0.0
H348 H 0.80827 0.71486 0.96455 0.0
H349 H 0.81346 0.76203 0.93818 0.0
C350 C 0.82622 0.76796 0.88001 0.0
C351 C 0.83217 0.76757 0.84916 0.0
C352 C 0.82576 0.74123 0.89607 0.0
C353 C 0.83932 0.74029 0.83499 0.0
C354 C 0.83936 0.71372 0.85091 0.0
C355 C 0.82933 0.68685 0.89664 0.0
C356 C 0.82013 0.68674 0.92657 0.0
C357 C 0.83192 0.71383 0.88125 0.0
C358 C 0.81521 0.71423 0.94146 0.0
C359 C 0.81811 0.74124 0.92638 0.0
H360 H 0.0285 0.01198 0.36325 0.0
H361 H 0.97779 0.0303 0.44212 0.0
H362 H 0.93222 0.03527 0.41113 0.0
H363 H 0.90595 0.02812 0.36261 0.0
H364 H 0.9559 0.00777 0.28347 0.0
H365 H 0.00264 0.01004 0.31342 0.0
C366 C 0.00759 0.01799 0.37339 0.0
C367 C 0.00631 0.02104 0.40475 0.0
C368 C 0.98131 0.01983 0.35547 0.0
C369 C 0.97914 0.02818 0.41794 0.0
C370 C 0.95311 0.03073 0.40027 0.0
C371 C 0.92707 0.02443 0.3518 0.0
C372 C 0.92735 0.0173 0.32092 0.0
C373 C 0.95375 0.02554 0.36916 0.0
C374 C 0.95499 0.01307 0.30725 0.0
C375 C 0.98174 0.01434 0.32437 0.0
H376 H 0.2059 0.2294 0.64335 0.0
H377 H 0.29774 0.22549 0.67525 0.0
H378 H 0.30905 0.19173 0.63328 0.0
H379 H 0.29329 0.16525 0.58622 0.0
H380 H 0.20148 0.17024 0.5542 0.0
H381 H 0.18963 0.20117 0.59785 0.0
C382 C 0.22827 0.22074 0.64145 0.0
C383 C 0.25093 0.22992 0.66244 0.0
C384 C 0.23464 0.20157 0.6172 0.0
C385 C 0.27996 0.21896 0.65925 0.0
C386 C 0.28641 0.1996 0.63532 0.0
C387 C 0.27062 0.17284 0.58894 0.0
C388 C 0.24835 0.1655 0.56686 0.0
C389 C 0.26401 0.19104 0.61394 0.0
C390 C 0.21911 0.17564 0.57073 0.0
C391 C 0.21229 0.19338 0.59569 0.0
H392 H 0.50889 0.51177 0.60402 0.0
H393 H 0.44023 0.53521 0.5394 0.0
H394 H 0.40286 0.5343 0.57841 0.0
H395 H 0.38971 0.52733 0.63099 0.0
H396 H 0.45846 0.50421 0.69578 0.0
H397 H 0.4956 0.5043 0.65662 0.0
C398 C 0.48569 0.51639 0.59845 0.0
C399 C 0.47739 0.5236 0.56886 0.0
C400 C 0.4643 0.51594 0.62105 0.0
C401 C 0.44729 0.52993 0.56207 0.0
C402 C 0.42587 0.5293 0.58435 0.0
C403 C 0.4128 0.52226 0.63657 0.0
C404 C 0.4212 0.5158 0.66634 0.0
C405 C 0.43414 0.52248 0.61394 0.0
C406 C 0.45129 0.50933 0.6731 0.0
C407 C 0.4726 0.50935 0.65069 0.0
H408 H 0.73167 0.23032 0.6522 0.0
H409 H 0.77743 0.29883 0.70722 0.0
H410 H 0.77557 0.33335 0.66561 0.0
H411 H 0.76596 0.34224 0.61196 0.0
H412 H 0.72049 0.27416 0.55677 0.0
H413 H 0.71629 0.24162 0.60022 0.0
C414 C 0.74063 0.253 0.65535 0.0
C415 C 0.7552 0.26168 0.68272 0.0
C416 C 0.7394 0.27289 0.63127 0.0
C417 C 0.76682 0.2912 0.6862 0.0
C418 C 0.76559 0.31108 0.66246 0.0
C419 C 0.75425 0.32067 0.60982 0.0
C420 C 0.74306 0.31065 0.58157 0.0
C421 C 0.75264 0.30192 0.63469 0.0
C422 C 0.72865 0.28243 0.57859 0.0
C423 C 0.7266 0.26375 0.60332 0.0
H424 H 0.50075 0.97793 0.60965 0.0
H425 H 0.56552 0.91734 0.57327 0.0
H426 H 0.59268 0.91836 0.62117 0.0
H427 H 0.59755 0.93539 0.67418 0.0
H428 H 0.53733 0.00129 0.7079 0.0
H429 H 0.50972 0.0004 0.6596 0.0
C430 C 0.5212 0.96549 0.61156 0.0
C431 C 0.53041 0.94714 0.58746 0.0
C432 C 0.53784 0.9674 0.63873 0.0
C433 C 0.55685 0.93082 0.59136 0.0
C434 C 0.57283 0.9317 0.61876 0.0
C435 C 0.57869 0.9499 0.67061 0.0
C436 C 0.56933 0.9684 0.69424 0.0
C437 C 0.56338 0.94969 0.64266 0.0
C438 C 0.54496 0.98714 0.68972 0.0
C439 C 0.52909 0.98642 0.66226 0.0
H440 H 0.8233 0.26848 0.76717 0.0
H441 H 0.82762 0.17207 0.76352 0.0
H442 H 0.87722 0.17486 0.78861 0.0
H443 H 0.92101 0.20542 0.80899 0.0
H444 H 0.91542 0.30199 0.8101 0.0
H445 H 0.8651 0.2983 0.78849 0.0
C446 C 0.83512 0.24803 0.7717 0.0
C447 C 0.8219 0.22017 0.76313 0.0
C448 C 0.86365 0.24982 0.78561 0.0
C449 C 0.83724 0.19386 0.76994 0.0
C450 C 0.8657 0.19545 0.78413 0.0
C451 C 0.90863 0.22557 0.80468 0.0
C452 C 0.92226 0.25392 0.8109 0.0
C453 C 0.87938 0.2234 0.79173 0.0
C454 C 0.90582 0.27984 0.8052 0.0
C455 C 0.87689 0.27782 0.79286 0.0
H456 H 0.5044 0.91914 0.4524 0.0
H457 H 0.49509 0.85725 0.5247 0.0
H458 H 0.49639 0.81487 0.48879 0.0
H459 H 0.49788 0.79565 0.43614 0.0
H460 H 0.50576 0.85909 0.3647 0.0
H461 H 0.50688 0.90045 0.40095 0.0
C462 C 0.50243 0.89638 0.46034 0.0
C463 C 0.4993 0.8914 0.49113 0.0
C464 C 0.50277 0.87233 0.43965 0.0
C465 C 0.4976 0.86173 0.50111 0.0
C466 C 0.49817 0.8375 0.48056 0.0
C467 C 0.49996 0.81851 0.42856 0.0
C468 C 0.50154 0.82411 0.39762 0.0
C469 C 0.50042 0.84254 0.44967 0.0
C470 C 0.50427 0.85395 0.38825 0.0
C471 C 0.50497 0.87775 0.40899 0.0
H472 H 0.18167 0.22844 0.7544 0.0
H473 H 0.17081 0.31754 0.72065 0.0
H474 H 0.12202 0.3205 0.74353 0.0
H475 H 0.08359 0.29908 0.77438 0.0
H476 H 0.09364 0.21089 0.81072 0.0
H477 H 0.1415 0.20614 0.78539 0.0
C478 C 0.16842 0.24834 0.75199 0.0
C479 C 0.17986 0.27286 0.73611 0.0
C480 C 0.14037 0.25008 0.76566 0.0
C481 C 0.16261 0.29858 0.73312 0.0
C482 C 0.13469 0.30026 0.7461 0.0
C483 C 0.09603 0.27864 0.77674 0.0
C484 C 0.08496 0.25539 0.79451 0.0
C485 C 0.12354 0.27633 0.76266 0.0
C486 C 0.1016 0.22917 0.7972 0.0
C487 C 0.129 0.22647 0.78276 0.0
H488 H 0.52521 0.55104 0.44185 0.0
H489 H 0.51798 0.61043 0.5188 0.0
H490 H 0.51402 0.65335 0.48597 0.0
H491 H 0.51101 0.67393 0.43531 0.0
H492 H 0.51814 0.61451 0.35826 0.0
H493 H 0.52392 0.57192 0.39114 0.0
C494 C 0.52317 0.57343 0.45141 0.0
C495 C 0.52174 0.57747 0.48272 0.0
C496 C 0.52071 0.59806 0.43236 0.0
C497 C 0.51876 0.60663 0.49475 0.0
C498 C 0.51656 0.63121 0.476 0.0
C499 C 0.51389 0.65169 0.42569 0.0
C500 C 0.514 0.64752 0.39431 0.0
C501 C 0.51716 0.62717 0.44475 0.0
C502 C 0.51786 0.61848 0.3823 0.0
C503 C 0.5212 0.59403 0.4011 0.0
H504 H 0.90219 0.82168 0.78289 0.0
H505 H 0.82077 0.83575 0.73112 0.0
H506 H 0.84902 0.83777 0.68536 0.0
H507 H 0.89579 0.8314 0.65937 0.0
H508 H 0.97713 0.81418 0.70996 0.0
H509 H 0.94989 0.81734 0.75673 0.0
C510 C 0.89065 0.82523 0.76159 0.0
C511 C 0.85938 0.82865 0.76059 0.0
C512 C 0.90695 0.82556 0.73506 0.0
C513 C 0.84486 0.83362 0.7328 0.0
C514 C 0.86096 0.83448 0.70648 0.0
C515 C 0.90772 0.82862 0.6806 0.0
C516 C 0.93843 0.82235 0.68109 0.0
C517 C 0.89188 0.82993 0.70728 0.0
C518 C 0.95345 0.8189 0.70889 0.0
C519 C 0.93788 0.82064 0.73566 0.0
H520 H 0.06831 0.95866 0.51416 0.0
H521 H 0.02058 0.92186 0.43571 0.0
H522 H 0.00448 0.87855 0.46395 0.0
H523 H 0.00027 0.85332 0.51178 0.0
H524 H 0.04983 0.88772 0.58988 0.0
H525 H 0.06946 0.92957 0.56077 0.0
C526 C 0.05495 0.94086 0.50307 0.0
C527 C 0.04505 0.9439 0.47305 0.0
C528 C 0.04594 0.91573 0.5194 0.0
C529 C 0.02776 0.92055 0.45904 0.0
C530 C 0.01864 0.89568 0.47511 0.0
C531 C 0.01558 0.86987 0.52233 0.0
C532 C 0.02326 0.86787 0.55293 0.0
C533 C 0.02689 0.89348 0.50547 0.0
C534 C 0.04356 0.88899 0.56631 0.0
C535 C 0.05466 0.91292 0.54971 0.0
H536 H 0.1933 0.74075 0.69154 0.0
H537 H 0.147 0.76724 0.77125 0.0
H538 H 0.10379 0.78148 0.74063 0.0
H539 H 0.07863 0.78533 0.69146 0.0
H540 H 0.12423 0.75793 0.61159 0.0
H541 H 0.16808 0.74488 0.64208 0.0
C542 C 0.17368 0.74948 0.7022 0.0
C543 C 0.17346 0.75299 0.73365 0.0
C544 C 0.14874 0.75739 0.68446 0.0
C545 C 0.14798 0.76472 0.74708 0.0
C546 C 0.12316 0.77268 0.7296 0.0
C547 C 0.09816 0.77657 0.68066 0.0
C548 C 0.09807 0.77258 0.64927 0.0
C549 C 0.12325 0.76902 0.6983 0.0
C550 C 0.12364 0.76122 0.63571 0.0
C551 C 0.14874 0.75373 0.65313 0.0
H552 H 0.99642 0.61614 0.5311 0.0
H553 H 0.90112 0.62176 0.51485 0.0
H554 H 0.90188 0.67222 0.53757 0.0
H555 H 0.92991 0.71514 0.56037 0.0
H556 H 0.02513 0.70927 0.57776 0.0
H557 H 0.02416 0.65836 0.55622 0.0
C558 C 0.97587 0.62851 0.53254 0.0
C559 C 0.94879 0.6155 0.52116 0.0
C560 C 0.97649 0.65735 0.54573 0.0
C561 C 0.92218 0.63139 0.52357 0.0
C562 C 0.92264 0.66021 0.53642 0.0
C563 C 0.95048 0.70273 0.55949 0.0
C564 C 0.97761 0.71605 0.57041 0.0
C565 C 0.94971 0.67349 0.54731 0.0
C566 C 0.00397 0.69953 0.56948 0.0
C567 C 0.00344 0.67046 0.55711 0.0
H568 H 0.77953 0.82319 0.20162 0.0
H569 H 0.77148 0.80494 0.29581 0.0
H570 H 0.79479 0.85351 0.30903 0.0
H571 H 0.81485 0.90211 0.29419 0.0
H572 H 0.82432 0.92108 0.20039 0.0
H573 H 0.80353 0.87112 0.1867 0.0
C574 C 0.78333 0.82967 0.22502 0.0
C575 C 0.77332 0.81056 0.24767 0.0
C576 C 0.79687 0.8578 0.23255 0.0
C577 C 0.77834 0.81941 0.2779 0.0
C578 C 0.79179 0.84716 0.28551 0.0
C579 C 0.8125 0.89535 0.2707 0.0
C580 C 0.82083 0.91547 0.24835 0.0
C581 C 0.80061 0.86673 0.26306 0.0
C582 C 0.81802 0.90608 0.21807 0.0
C583 C 0.80606 0.87754 0.21023 0.0
H584 H 0.71933 0.14999 0.25392 0.0
H585 H 0.79964 0.20491 0.26548 0.0
H586 H 0.83042 0.16032 0.26132 0.0
H587 H 0.83421 0.10522 0.2576 0.0
H588 H 0.75359 0.05023 0.25156 0.0
H589 H 0.72309 0.09511 0.24978 0.0
C590 C 0.74359 0.1521 0.2552 0.0
C591 C 0.75732 0.18053 0.25989 0.0
C592 C 0.76099 0.12633 0.25365 0.0
C593 C 0.7887 0.18313 0.26197 0.0
C594 C 0.80624 0.15769 0.25952 0.0
C595 C 0.80999 0.10324 0.25526 0.0
C596 C 0.79602 0.07469 0.25419 0.0
C597 C 0.79263 0.12913 0.25572 0.0
C598 C 0.76466 0.07213 0.25206 0.0
C599 C 0.74728 0.09773 0.25122 0.0
H600 H 0.37762 0.02246 0.00447 0.0
H601 H 0.4513 0.96192 0.01074 0.0
H602 H 0.41642 0.92018 0.01935 0.0
H603 H 0.36508 0.90038 0.02182 0.0
H604 H 0.29094 0.96039 0.01444 0.0
H605 H 0.32597 0.00292 0.01005 0.0
C606 C 0.38603 0.00021 0.00823 0.0
C607 C 0.41697 0.99523 0.00679 0.0
C608 C 0.3658 0.97622 0.01284 0.0
C609 C 0.42755 0.96623 0.01137 0.0
C610 C 0.40764 0.94238 0.01636 0.0
C611 C 0.35649 0.92278 0.01953 0.0
C612 C 0.32536 0.92709 0.01826 0.0
C613 C 0.3767 0.94703 0.01659 0.0
C614 C 0.31476 0.95635 0.01539 0.0
C615 C 0.33479 0.9807 0.0128 0.0
H616 H 0.24814 0.34018 0.34556 0.0
H617 H 0.30204 0.41725 0.3225 0.0
H618 H 0.25663 0.44587 0.31314 0.0
H619 H 0.20142 0.44726 0.30761 0.0
H620 H 0.1486 0.36835 0.32841 0.0
H621 H 0.19374 0.34224 0.34249 0.0
C622 C 0.24995 0.36351 0.3393 0.0
C623 C 0.27827 0.37674 0.33502 0.0
C624 C 0.22391 0.37931 0.33298 0.0
C625 C 0.28036 0.40673 0.32609 0.0
C626 C 0.25444 0.42297 0.32055 0.0
C627 C 0.19982 0.42441 0.31532 0.0
C628 C 0.17162 0.40977 0.31663 0.0
C629 C 0.22605 0.40922 0.32319 0.0
C630 C 0.16996 0.38015 0.32681 0.0
C631 C 0.19578 0.36515 0.33504 0.0
H632 H 0.13632 0.99742 0.42608 0.0
H633 H 0.09234 0.06976 0.4711 0.0
H634 H 0.1407 0.09613 0.48021 0.0
H635 H 0.19567 0.09814 0.47565 0.0
H636 H 0.23891 0.02748 0.42698 0.0
H637 H 0.19081 0.00077 0.41902 0.0
C638 C 0.13748 0.01903 0.43773 0.0
C639 C 0.11112 0.03176 0.448 0.0
C640 C 0.16518 0.03419 0.44233 0.0
C641 C 0.11254 0.05978 0.46293 0.0
C642 C 0.14011 0.07472 0.46823 0.0
C643 C 0.19448 0.07683 0.46343 0.0
C644 C 0.22073 0.0646 0.45214 0.0
C645 C 0.16661 0.06206 0.45815 0.0
C646 C 0.21894 0.03727 0.43588 0.0
C647 C 0.19148 0.022 0.43133 0.0
H648 H 0.74895 0.13887 0.75015 0.0
H649 H 0.68154 0.20579 0.73926 0.0
H650 H 0.64232 0.16837 0.7487 0.0
H651 H 0.62703 0.11631 0.75946 0.0
H652 H 0.69504 0.05016 0.77192 0.0
H653 H 0.73401 0.08776 0.7631 0.0
C654 C 0.72574 0.14545 0.75027 0.0
C655 C 0.71832 0.17515 0.74384 0.0
C656 C 0.70329 0.12392 0.75606 0.0
C657 C 0.68797 0.18301 0.74361 0.0
C658 C 0.66549 0.16165 0.74921 0.0
C659 C 0.65037 0.11014 0.76036 0.0
C660 C 0.65797 0.08036 0.76625 0.0
C661 C 0.67286 0.13197 0.7553 0.0
C662 C 0.68841 0.07286 0.76743 0.0
C663 C 0.7108 0.09436 0.76233 0.0
H664 H 0.43864 0.99845 0.55598 0.0
H665 H 0.47439 0.99246 0.46714 0.0
H666 H 0.43877 0.02914 0.44942 0.0
H667 H 0.39524 0.05965 0.458 0.0
H668 H 0.35819 0.06576 0.54628 0.0
H669 H 0.39694 0.0327 0.56556 0.0
C670 C 0.43891 0.00562 0.5329 0.0
C671 C 0.45886 0.99252 0.51279 0.0
C672 C 0.41809 0.02656 0.52274 0.0
C673 C 0.45892 0.00187 0.48289 0.0
C674 C 0.43862 0.02287 0.47277 0.0
C675 C 0.39568 0.05397 0.48155 0.0
C676 C 0.3736 0.06487 0.50058 0.0
C677 C 0.41768 0.03479 0.49231 0.0
C678 C 0.37485 0.0576 0.53111 0.0
C679 C 0.39694 0.03861 0.54211 0.0
H680 H 0.60187 0.50865 0.50654 0.0
H681 H 0.53211 0.4431 0.5237 0.0
H682 H 0.56825 0.40306 0.52104 0.0
H683 H 0.61996 0.38657 0.51499 0.0
H684 H 0.6895 0.45207 0.49681 0.0
H685 H 0.6531 0.49192 0.49821 0.0
C686 C 0.59445 0.48558 0.50929 0.0
C687 C 0.56426 0.47906 0.51555 0.0
C688 C 0.61536 0.46253 0.50755 0.0
C689 C 0.55526 0.44896 0.51941 0.0
C690 C 0.5759 0.42596 0.51772 0.0
C691 C 0.62717 0.40953 0.5112 0.0
C692 C 0.65753 0.4162 0.50592 0.0
C693 C 0.60608 0.43248 0.51206 0.0
C694 C 0.66633 0.44616 0.50097 0.0
C695 C 0.64551 0.46905 0.5018 0.0
H696 H 0.77424 0.26678 0.32615 0.0
H697 H 0.67814 0.27473 0.32624 0.0
H698 H 0.68202 0.3023 0.3742 0.0
H699 H 0.71273 0.3219 0.4178 0.0
H700 H 0.80852 0.31081 0.418 0.0
H701 H 0.80459 0.28648 0.36871 0.0
C702 C 0.75407 0.27431 0.33671 0.0
C703 C 0.72597 0.26848 0.32253 0.0
C704 C 0.75637 0.28953 0.36459 0.0
C705 C 0.70017 0.27912 0.33637 0.0
C706 C 0.70232 0.29472 0.36397 0.0
C707 C 0.73271 0.31434 0.40692 0.0
C708 C 0.76083 0.31807 0.42174 0.0
C709 C 0.73031 0.29979 0.37851 0.0
C710 C 0.78652 0.30802 0.40733 0.0
C711 C 0.78436 0.29411 0.37904 0.0
H712 H 0.46545 0.00551 0.91571 0.0
H713 H 0.53585 0.05933 0.95983 0.0
H714 H 0.56888 0.04922 0.91803 0.0
H715 H 0.57858 0.02252 0.86999 0.0
H716 H 0.50866 0.96577 0.82893 0.0
H717 H 0.47482 0.97926 0.86869 0.0
C718 C 0.48815 0.01475 0.9165 0.0
C719 C 0.49821 0.03284 0.94113 0.0
C720 C 0.50717 0.00824 0.89289 0.0
C721 C 0.52742 0.04542 0.94112 0.0
C722 C 0.54639 0.03951 0.91729 0.0
C723 C 0.55584 0.0134 0.8697 0.0
C724 C 0.54613 0.99314 0.84663 0.0
C725 C 0.53661 0.02066 0.89317 0.0
C726 C 0.51672 0.98123 0.84659 0.0
C727 C 0.49733 0.98894 0.86929 0.0
H728 H 0.28583 0.28971 0.38848 0.0
H729 H 0.38021 0.28258 0.37116 0.0
H730 H 0.38172 0.23619 0.39889 0.0
H731 H 0.35498 0.19494 0.42356 0.0
H732 H 0.26227 0.20457 0.44529 0.0
H733 H 0.26154 0.25332 0.42095 0.0
C734 C 0.30704 0.27872 0.39147 0.0
C735 C 0.33268 0.28943 0.3769 0.0
C736 C 0.30799 0.25237 0.40809 0.0
C737 C 0.35981 0.27442 0.38114 0.0
C738 C 0.36079 0.24792 0.39716 0.0
C739 C 0.33484 0.20807 0.42335 0.0
C740 C 0.30863 0.19636 0.43573 0.0
C741 C 0.3348 0.2362 0.40988 0.0
C742 C 0.28266 0.2134 0.43579 0.0
C743 C 0.28223 0.24112 0.42179 0.0
H744 H 0.52883 0.50708 0.88947 0.0
H745 H 0.46949 0.51987 0.96308 0.0
H746 H 0.42681 0.52318 0.92803 0.0
H747 H 0.40587 0.51887 0.87703 0.0
H748 H 0.4643 0.50508 0.80267 0.0
H749 H 0.50777 0.5057 0.83733 0.0
C750 C 0.50661 0.51119 0.89763 0.0
C751 C 0.50217 0.51327 0.9287 0.0
C752 C 0.48199 0.51242 0.87729 0.0
C753 C 0.4733 0.5182 0.9392 0.0
C754 C 0.44891 0.51995 0.91921 0.0
C755 C 0.4281 0.51604 0.8683 0.0
C756 C 0.43172 0.51161 0.8373 0.0
C757 C 0.4529 0.51642 0.88828 0.0
C758 C 0.46079 0.50836 0.82645 0.0
C759 C 0.48569 0.50874 0.84626 0.0
H760 H 0.76115 0.74915 0.15292 0.0
H761 H 0.75401 0.6755 0.21356 0.0
H762 H 0.7644 0.64001 0.17284 0.0
H763 H 0.77369 0.62972 0.11962 0.0
H764 H 0.77953 0.70331 0.05857 0.0
H765 H 0.77156 0.7389 0.09973 0.0
C766 C 0.76228 0.72536 0.15723 0.0
C767 C 0.75682 0.71493 0.18615 0.0
C768 C 0.76781 0.70503 0.13359 0.0
C769 C 0.75795 0.68402 0.1914 0.0
C770 C 0.76389 0.66373 0.16814 0.0
C771 C 0.77331 0.65354 0.1153 0.0
C772 C 0.77712 0.66374 0.08598 0.0
C773 C 0.7685 0.67394 0.13906 0.0
C774 C 0.77654 0.69474 0.08086 0.0
C775 C 0.77203 0.71517 0.10442 0.0
H776 H 0.93376 0.02695 0.05238 0.0
H777 H 0.01365 0.01141 0.10581 0.0
H778 H 0.98387 0.00783 0.1508 0.0
H779 H 0.93521 0.00908 0.17502 0.0
H780 H 0.85521 0.02475 0.12171 0.0
H781 H 0.88501 0.02862 0.07676 0.0
C782 C 0.94468 0.02305 0.07392 0.0
C783 C 0.97591 0.01941 0.07568 0.0
C784 C 0.92741 0.02105 0.09976 0.0
C785 C 0.98963 0.01393 0.10373 0.0
C786 C 0.97263 0.01203 0.12951 0.0
C787 C 0.92425 0.01338 0.1536 0.0
C788 C 0.89296 0.01662 0.15183 0.0
C789 C 0.9415 0.01549 0.12779 0.0
C790 C 0.87921 0.02214 0.1238 0.0
C791 C 0.89625 0.02437 0.09804 0.0
H792 H 0.23927 0.77555 0.18914 0.0
H793 H 0.23411 0.69223 0.13829 0.0
H794 H 0.23045 0.71964 0.0915 0.0
H795 H 0.23563 0.76719 0.06502 0.0
H796 H 0.23851 0.85082 0.11518 0.0
H797 H 0.2357 0.8236 0.16235 0.0
C798 C 0.23662 0.76352 0.1678 0.0
C799 C 0.23712 0.73197 0.16704 0.0
C800 C 0.23437 0.77948 0.14095 0.0
C801 C 0.2336 0.7165 0.13936 0.0
C802 C 0.23173 0.73216 0.11262 0.0
C803 C 0.23484 0.7794 0.08629 0.0
C804 C 0.23742 0.81085 0.08683 0.0
C805 C 0.23308 0.76361 0.11312 0.0
C806 C 0.23633 0.82658 0.11435 0.0
C807 C 0.235 0.811 0.14127 0.0
H808 H 0.01308 0.47879 0.11282 0.0
H809 H 0.99216 0.38416 0.11638 0.0
H810 H 0.01463 0.38254 0.16699 0.0
H811 H 0.0408 0.40783 0.20968 0.0
H812 H 0.06441 0.502 0.20546 0.0
H813 H 0.04048 0.50405 0.15554 0.0
C814 C 0.01333 0.45794 0.12488 0.0
C815 C 0.00091 0.43165 0.11119 0.0
C816 C 0.02689 0.45708 0.15365 0.0
C817 C 0.00165 0.4046 0.12664 0.0
C818 C 0.01447 0.4037 0.15549 0.0
C819 C 0.04068 0.42885 0.1979 0.0
C820 C 0.05427 0.45475 0.21134 0.0
C821 C 0.02727 0.42976 0.16914 0.0
C822 C 0.05417 0.48172 0.1956 0.0
C823 C 0.04041 0.48293 0.1671 0.0
H824 H 0.30889 0.69444 0.28736 0.0
H825 H 0.33365 0.71892 0.19789 0.0
H826 H 0.38463 0.72987 0.21555 0.0
H827 H 0.4218 0.73498 0.25635 0.0
H828 H 0.39969 0.70795 0.34544 0.0
H829 H 0.34835 0.6946 0.32779 0.0
C830 C 0.3255 0.70181 0.27165 0.0
C831 C 0.31695 0.70671 0.24145 0.0
C832 C 0.35533 0.70746 0.28182 0.0
C833 C 0.33903 0.71609 0.22148 0.0
C834 C 0.36841 0.72205 0.23145 0.0
C835 C 0.40581 0.72592 0.27189 0.0
C836 C 0.41433 0.72275 0.30218 0.0
C837 C 0.37666 0.71831 0.2616 0.0
C838 C 0.3936 0.71054 0.32197 0.0
C839 C 0.36423 0.70312 0.31191 0.0
H840 H 0.99027 0.35345 0.02434 0.0
H841 H 0.01437 0.43397 0.97802 0.0
H842 H 0.02815 0.4042 0.93412 0.0
H843 H 0.02808 0.35625 0.90722 0.0
H844 H 0.00148 0.27519 0.95154 0.0
H845 H 0.99443 0.30405 0.99813 0.0
C846 C 0.99914 0.36426 0.00479 0.0
C847 C 0.00127 0.39575 0.00417 0.0
C848 C 0.00627 0.34698 0.97929 0.0
C849 C 0.01248 0.40973 0.97877 0.0
C850 C 0.02027 0.39275 0.95372 0.0
C851 C 0.02104 0.34473 0.92712 0.0
C852 C 0.01491 0.31365 0.92575 0.0
C853 C 0.01641 0.36148 0.95343 0.0
C854 C 0.00623 0.29912 0.95192 0.0
C855 C 0.00206 0.31564 0.97853 0.0
H856 H 0.65905 0.73438 0.22463 0.0
H857 H 0.70428 0.75047 0.31029 0.0
H858 H 0.65653 0.74534 0.33575 0.0
H859 H 0.60119 0.7411 0.33298 0.0
H860 H 0.55625 0.72966 0.24662 0.0
H861 H 0.60448 0.72734 0.22209 0.0
C862 C 0.65849 0.73618 0.24892 0.0
C863 C 0.68506 0.74279 0.26559 0.0
C864 C 0.63094 0.73399 0.26324 0.0
C865 C 0.68401 0.74559 0.297 0.0
C866 C 0.65675 0.7426 0.31154 0.0
C867 C 0.60213 0.73733 0.30891 0.0
C868 C 0.57541 0.73526 0.29156 0.0
C869 C 0.62997 0.73743 0.29484 0.0
C870 C 0.57667 0.73113 0.26032 0.0
C871 C 0.60419 0.72998 0.24631 0.0
H872 H 0.04598 0.08016 0.97016 0.0
H873 H 0.95142 0.06325 0.98146 0.0
H874 H 0.93957 0.10404 0.94804 0.0
H875 H 0.9558 0.14588 0.91713 0.0
H876 H 0.05019 0.1625 0.90462 0.0
H877 H 0.06221 0.12031 0.93645 0.0
C878 C 0.02279 0.08513 0.96499 0.0
C879 C -0.00031 0.06884 0.97875 0.0
C880 C 0.01602 0.10867 0.94551 0.0
C881 C 0.96973 0.07578 0.97181 0.0
C882 C 0.96287 0.09904 0.95253 0.0
C883 C 0.97902 0.14022 0.92121 0.0
C884 C 0.00201 0.15755 0.90859 0.0
C885 C 0.98581 0.11592 0.93958 0.0
C886 C 0.03197 0.14964 0.91402 0.0
C887 C 0.0389 0.12551 0.93232 0.0
H888 H 0.39957 0.3181 0.29396 0.0
H889 H 0.31455 0.33466 0.24979 0.0
H890 H 0.33587 0.32387 0.20113 0.0
H891 H 0.37816 0.30897 0.17119 0.0
H892 H 0.46337 0.29191 0.21478 0.0
H893 H 0.44228 0.30313 0.26367 0.0
C894 C 0.38577 0.31932 0.27365 0.0
C895 C 0.35564 0.32745 0.27547 0.0
C896 C 0.39807 0.31272 0.2457 0.0
C897 C 0.33799 0.32909 0.24898 0.0
C898 C 0.35007 0.32262 0.22115 0.0
C899 C 0.39213 0.30755 0.19136 0.0
C900 C 0.42225 0.29951 0.18932 0.0
C901 C 0.38 0.31429 0.21927 0.0
C902 C 0.44008 0.29801 0.21571 0.0
C903 C 0.42806 0.30447 0.24367 0.0
H904 H 0.4913 0.46058 0.01784 0.0
H905 H 0.58363 0.43501 0.01279 0.0
H906 H 0.57283 0.39054 0.04221 0.0
H907 H 0.53594 0.35675 0.06592 0.0
H908 H 0.44297 0.38116 0.06613 0.0
H909 H 0.45513 0.42783 0.04145 0.0
C910 C 0.50909 0.4452 0.02292 0.0
C911 C 0.53813 0.45097 0.01275 0.0
C912 C 0.5025 0.41922 0.03872 0.0
C913 C 0.56107 0.43125 0.02046 0.0
C914 C 0.55486 0.40565 0.03704 0.0
C915 C 0.51846 0.37243 0.06069 0.0
C916 C 0.48859 0.36542 0.06762 0.0
C917 C 0.52549 0.39908 0.04579 0.0
C918 C 0.46609 0.38586 0.06068 0.0
C919 C 0.47301 0.41262 0.04667 0.0
H920 H 0.6424 0.2582 0.25295 0.0
H921 H 0.70454 0.23628 0.18378 0.0
H922 H 0.66614 0.2453 0.14521 0.0
H923 H 0.61446 0.25851 0.13113 0.0
H924 H 0.55311 0.28164 0.20074 0.0
H925 H 0.59185 0.27364 0.23896 0.0
C926 C 0.64775 0.25585 0.22945 0.0
C927 C 0.67633 0.24645 0.22136 0.0
C928 C 0.62567 0.26131 0.20737 0.0
C929 C 0.6826 0.24303 0.19072 0.0
C930 C 0.6607 0.24835 0.16861 0.0
C931 C 0.60961 0.26192 0.15464 0.0
C932 C 0.58083 0.27054 0.16295 0.0
C933 C 0.63206 0.25728 0.17667 0.0
C934 C 0.57501 0.27497 0.19359 0.0
C935 C 0.59715 0.27036 0.21555 0.0
H936 H 0.501 0.10744 0.0275 0.0
H937 H 0.4055 0.10383 0.01008 0.0
H938 H 0.40107 0.1538 0.03278 0.0
H939 H 0.42416 0.19825 0.0575 0.0
H940 H 0.51942 0.20185 0.07681 0.0
H941 H 0.52418 0.1521 0.0534 0.0
C942 C 0.47929 0.11774 0.02861 0.0
C943 C 0.4536 0.10209 0.01717 0.0
C944 C 0.47688 0.14636 0.04201 0.0
C945 C 0.42552 0.11542 0.01898 0.0
C946 C 0.423 0.14398 0.03184 0.0
C947 C 0.44602 0.18825 0.05654 0.0
C948 C 0.47142 0.20382 0.06875 0.0
C949 C 0.4485 0.15962 0.04343 0.0
C950 C 0.4995 0.19033 0.06759 0.0
C951 C 0.50224 0.16192 0.05418 0.0
H952 H 0.23889 0.35696 0.71978 0.0
H953 H 0.3186 0.30439 0.71634 0.0
H954 H 0.34967 0.34964 0.72672 0.0
H955 H 0.35378 0.40397 0.74082 0.0
H956 H 0.27301 0.45421 0.7486 0.0
H957 H 0.24275 0.41011 0.73279 0.0
C958 C 0.26305 0.35521 0.72161 0.0
C959 C 0.27628 0.32713 0.71777 0.0
C960 C 0.28061 0.38103 0.72842 0.0
C961 C 0.30774 0.32566 0.71917 0.0
C962 C 0.32553 0.35153 0.72527 0.0
C963 C 0.3296 0.40517 0.73856 0.0
C964 C 0.31551 0.43217 0.74567 0.0
C965 C 0.31218 0.37931 0.73043 0.0
C966 C 0.2842 0.43357 0.74318 0.0
C967 C 0.26692 0.40839 0.73423 0.0
H968 H 0.29526 0.69479 0.75248 0.0
H969 H 0.2088 0.65394 0.76805 0.0
H970 H 0.23063 0.60418 0.76685 0.0
H971 H 0.27496 0.57288 0.76572 0.0
H972 H 0.36131 0.6126 0.74758 0.0
H973 H 0.33896 0.66227 0.74486 0.0
C974 C 0.28128 0.67486 0.75517 0.0
C975 C 0.25059 0.67779 0.76054 0.0
C976 C 0.29396 0.64629 0.75404 0.0
C977 C 0.23247 0.65202 0.76384 0.0
C978 C 0.24495 0.62366 0.76325 0.0
C979 C 0.28877 0.5924 0.76071 0.0
C980 C 0.31971 0.5893 0.75714 0.0
C981 C 0.27574 0.6206 0.75899 0.0
C982 C 0.3374 0.61454 0.75031 0.0
C983 C 0.32466 0.64291 0.74899 0.0
H984 H 0.86748 0.53229 0.50003 0.0
H985 H 0.94548 0.48104 0.52153 0.0
H986 H 0.91383 0.43692 0.53042 0.0
H987 H 0.86485 0.41181 0.52751 0.0
H988 H 0.78629 0.4616 0.50389 0.0
H989 H 0.81717 0.50746 0.50072 0.0
C990 C 0.87733 0.51156 0.50722 0.0
C991 C 0.90865 0.5097 0.51005 0.0
C992 C 0.85897 0.48601 0.5116 0.0
C993 C 0.92138 0.48278 0.5191 0.0
C994 C 0.90333 0.45759 0.52411 0.0
C995 C 0.85433 0.43271 0.52192 0.0
C996 C 0.82333 0.43315 0.51562 0.0
C997 C 0.87221 0.45875 0.51966 0.0
C998 C 0.81013 0.46056 0.50871 0.0
C999 C 0.8278 0.48679 0.50682 0.0
H1000 H 0.78585 0.8954 0.80919 0.0
H1001 H 0.74117 0.81037 0.82418 0.0
H1002 H 0.69267 0.83408 0.82121 0.0
H1003 H 0.66275 0.87794 0.81062 0.0
H1004 H 0.70692 0.96284 0.79375 0.0
H1005 H 0.75572 0.9401 0.80091 0.0
C1006 C 0.76548 0.88211 0.8119 0.0
C1007 C 0.7672 0.85117 0.81693 0.0
C1008 C 0.73754 0.89577 0.80952 0.0
C1009 C 0.74061 0.83431 0.82077 0.0
C1010 C 0.7128 0.84778 0.81877 0.0
C1011 C 0.68302 0.89157 0.80866 0.0
C1012 C 0.68113 0.92199 0.80139 0.0
C1013 C 0.71098 0.87835 0.81261 0.0
C1014 C 0.70768 0.93932 0.79919 0.0
C1015 C 0.73563 0.92634 0.80326 0.0
H1016 H 0.61219 0.53227 0.92994 0.0
H1017 H 0.60225 0.54234 0.02552 0.0
H1018 H 0.6513 0.56788 0.0303 0.0
H1019 H 0.6984 0.58469 0.00756 0.0
H1020 H 0.70855 0.57265 0.91205 0.0
H1021 H 0.65807 0.55097 0.907 0.0
C1022 C 0.62059 0.54049 0.95173 0.0
C1023 C 0.60372 0.53536 0.97732 0.0
C1024 C 0.64897 0.5547 0.95436 0.0
C1025 C 0.61502 0.54577 0.00551 0.0
C1026 C 0.64302 0.56041 0.00825 0.0
C1027 C 0.68942 0.57761 0.98563 0.0
C1028 C 0.70733 0.58016 0.96029 0.0
C1029 C 0.66043 0.56459 0.98288 0.0
C1030 C 0.69539 0.57074 0.93201 0.0
C1031 C 0.66647 0.55833 0.92904 0.0
H1032 H 0.23065 0.65202 0.28326 0.0
H1033 H 0.20545 0.63265 0.19057 0.0
H1034 H 0.17515 0.58958 0.2055 0.0
H1035 H 0.1563 0.55687 0.24468 0.0
H1036 H 0.18254 0.57518 0.33729 0.0
H1037 H 0.21214 0.6189 0.3225 0.0
C1038 C 0.21871 0.63825 0.26629 0.0
C1039 C 0.22026 0.64578 0.23583 0.0
C1040 C 0.20152 0.61323 0.275 0.0
C1041 C 0.20431 0.62781 0.21422 0.0
C1042 C 0.1871 0.603 0.22271 0.0
C1043 C 0.16842 0.57043 0.26168 0.0
C1044 C 0.16712 0.56268 0.29208 0.0
C1045 C 0.18555 0.59548 0.25302 0.0
C1046 C 0.1831 0.58054 0.31373 0.0
C1047 C 0.20006 0.60559 0.3053 0.0
H1048 H 0.94088 0.50939 0.06256 0.0
H1049 H 0.90526 0.43595 0.00664 0.0
H1050 H 0.86532 0.46725 0.98819 0.0
H1051 H 0.84225 0.51605 0.98528 0.0
H1052 H 0.87485 0.58932 0.04269 0.0
H1053 H 0.91384 0.55735 0.06374 0.0
C1054 C 0.92411 0.5001 0.04673 0.0
C1055 C 0.92664 0.47054 0.03542 0.0
C1056 C 0.9007 0.51819 0.03641 0.0
C1057 C 0.90454 0.45889 0.01499 0.0
C1058 C 0.88151 0.4767 0.00454 0.0
C1059 C 0.8578 0.52498 0.00254 0.0
C1060 C 0.85605 0.55504 0.01213 0.0
C1061 C 0.87977 0.50651 0.01458 0.0
C1062 C 0.87588 0.56621 0.03492 0.0
C1063 C 0.89821 0.54798 0.04683 0.0
H1064 H 0.0942 0.01092 0.01004 0.0
H1065 H 0.02597 0.94145 0.0155 0.0
H1066 H 0.06394 0.903 0.0125 0.0
H1067 H 0.11669 0.88912 0.01065 0.0
H1068 H 0.1855 0.95848 0.00743 0.0
H1069 H 0.14735 0.99683 0.00728 0.0
C1070 C 0.08774 0.98733 0.01015 0.0
C1071 C 0.05739 0.97896 0.01289 0.0
C1072 C 0.10983 0.96532 0.00913 0.0
C1073 C 0.04924 0.94836 0.01344 0.0
C1074 C 0.07093 0.9264 0.01179 0.0
C1075 C 0.12339 0.91261 0.0098 0.0
C1076 C 0.15399 0.92081 0.00913 0.0
C1077 C 0.10134 0.9346 0.01005 0.0
C1078 C 0.16216 0.95144 0.0081 0.0
C1079 C 0.14032 0.97343 0.00795 0.0
loop_
_geom_bond_atom_site_label_1
_geom_bond_atom_site_label_2
_geom_bond_distance
_geom_bond_site_symmetry_2
_ccdc_geom_bond_type
H0 C3 0.931 . S
H1 C6 0.928 . S
H2 C8 0.962 . S
C3 H0 0.931 . S
C3 C4 1.413 . S
C3 C5 1.360 . S
C4 C3 1.413 . S
C4 C8 1.429 . S
C5 C3 1.360 . S
C5 C6 1.372 . S
C6 H1 0.928 . S
C6 C5 1.372 . S
C6 C7 1.404 . S
C7 C6 1.404 . S
C7 C8 1.391 . S
C8 H2 0.962 . S
C8 C4 1.429 . S
C8 C7 1.391 . S
H9 C12 0.931 . S
H10 C15 0.928 . S
H11 C17 0.930 . S
C12 H9 0.931 . S
C12 C13 1.413 . S
C12 C14 1.360 . S
C13 C12 1.413 . S
C13 C17 1.429 . S
C14 C12 1.360 . S
C14 C15 1.372 . S
C15 H10 0.928 . S
C15 C14 1.372 . S
C15 C16 1.404 . S
C16 C15 1.404 . S
C16 C17 1.391 . S
C17 H11 0.930 . S
C17 C13 1.429 . S
C17 C16 1.391 . S
H18 C21 0.931 . S
H19 C24 0.928 . S
H20 C26 0.930 . S
C21 H18 0.931 . S
C21 C22 1.413 . S
C21 C23 1.360 . S
C22 C21 1.413 . S
C22 C26 1.429 . S
C23 C21 1.360 . S
C23 C24 1.372 . S
C24 H19 0.928 . S
C24 C23 1.372 . S
C24 C25 1.404 . S
C25 C24 1.404 . S
C25 C26 1.391 . S
C26 H20 0.930 . S
C26 C22 1.429 . S
C26 C25 1.391 . S
H27 C30 0.931 . S
H28 C33 0.928 . S
H29 C35 0.930 . S
C30 H27 0.931 . S
C30 C31 1.413 . S
C30 C32 1.360 . S
C31 C30 1.413 . S
C31 C35 1.429 . S
C32 C30 1.360 . S
C32 C33 1.372 . S
C33 H28 0.928 . S
C33 C32 1.372 . S
C33 C34 1.404 . S
C34 C33 1.404 . S
C34 C35 1.391 . S
C35 H29 0.930 . S
C35 C31 1.429 . S
C35 C34 1.391 . S
H36 C39 0.931 . S
H37 C42 0.928 . S
H38 C44 0.930 . S
C39 H36 0.931 . S
C39 C40 1.413 . S
C39 C41 1.360 . S
C40 C39 1.413 . S
C40 C44 1.429 . S
C41 C39 1.360 . S
C41 C42 1.372 . S
C42 H37 0.928 . S
C42 C41 1.372 . S
C42 C43 1.404 . S
C43 C42 1.404 . S
C43 C44 1.391 . S
C44 H38 0.930 . S
C44 C40 1.429 . S
C44 C43 1.391 . S
H45 C48 0.931 . S
H46 C51 0.928 . S
H47 C53 0.930 . S
C48 H45 0.931 . S
C48 C49 1.413 . S
C48 C50 1.360 . S
C49 C48 1.413 . S
C49 C53 1.429 . S
C50 C48 1.360 . S
C50 C51 1.372 . S
C51 H46 0.928 . S
C51 C50 1.372 . S
C51 C52 1.404 . S
C52 C51 1.404 . S
C52 C53 1.391 . S
C53 H47 0.930 . S
C53 C49 1.429 . S
C53 C52 1.391 . S
H54 C57 0.931 . S
H55 C60 0.928 . S
H56 C62 0.930 . S
C57 H54 0.931 . S
C57 C58 1.413 . S
C57 C59 1.360 . S
C58 C57 1.413 . S
C58 C62 1.429 . S
C59 C57 1.360 . S
C59 C60 1.372 . S
C60 H55 0.928 . S
C60 C59 1.372 . S
C60 C61 1.404 . S
C61 C60 1.404 . S
C61 C62 1.391 . S
C62 H56 0.930 . S
C62 C58 1.429 . S
C62 C61 1.391 . S
H63 C66 0.931 . S
H64 C69 0.928 . S
H65 C71 0.930 . S
C66 H63 0.931 . S
C66 C67 1.413 . S
C66 C68 1.360 . S
C67 C66 1.413 . S
C67 C71 1.429 . S
C68 C66 1.360 . S
C68 C69 1.372 . S
C69 H64 0.928 . S
C69 C68 1.372 . S
C69 C70 1.404 . S
C70 C69 1.404 . S
C70 C71 1.391 . S
C71 H65 0.930 . S
C71 C67 1.429 . S
C71 C70 1.391 . S
H72 C75 0.931 . S
H73 C78 0.928 . S
H74 C80 0.930 . S
C75 H72 0.931 . S
C75 C76 1.413 . S
C75 C77 1.360 . S
C76 C75 1.413 . S
C76 C80 1.429 . S
C77 C75 1.360 . S
C77 C78 1.372 . S
C78 H73 0.928 . S
C78 C77 1.372 . S
C78 C79 1.404 . S
C79 C78 1.404 . S
C79 C80 1.391 . S
C80 H74 0.930 . S
C80 C76 1.429 . S
C80 C79 1.391 . S
H81 C84 0.931 . S
H82 C87 0.928 . S
H83 C89 0.930 . S
C84 H81 0.931 . S
C84 C85 1.413 . S
C84 C86 1.360 . S
C85 C84 1.413 . S
C85 C89 1.429 . S
C86 C84 1.360 . S
C86 C87 1.372 . S
C87 H82 0.928 . S
C87 C86 1.372 . S
C87 C88 1.404 . S
C88 C87 1.404 . S
C88 C89 1.391 . S
C89 H83 0.930 . S
C89 C85 1.429 . S
C89 C88 1.391 . S
H90 C93 0.931 . S
H91 C96 0.928 . S
H92 C98 0.930 . S
C93 H90 0.931 . S
C93 C94 1.413 . S
C93 C95 1.360 . S
C94 C93 1.413 . S
C94 C98 1.429 . S
C95 C93 1.360 . S
C95 C96 1.372 . S
C96 H91 0.928 . S
C96 C95 1.372 . S
C96 C97 1.404 . S
C97 C96 1.404 . S
C97 C98 1.391 . S
C98 H92 0.930 . S
C98 C94 1.429 . S
C98 C97 1.391 . S
H99 C102 0.931 . S
H100 C105 0.928 . S
H101 C107 0.930 . S
C102 H99 0.931 . S
C102 C103 1.413 . S
C102 C104 1.360 . S
C103 C102 1.413 . S
C103 C107 1.429 . S
C104 C102 1.360 . S
C104 C105 1.372 . S
C105 H100 0.928 . S
C105 C104 1.372 . S
C105 C106 1.404 . S
C106 C105 1.404 . S
C106 C107 1.391 . S
C107 H101 0.930 . S
C107 C103 1.429 . S
C107 C106 1.391 . S
H108 C111 0.931 . S
H109 C114 0.928 . S
H110 C116 0.930 . S
C111 H108 0.931 . S
C111 C112 1.413 . S
C111 C113 1.360 . S
C112 C111 1.413 . S
C112 C116 1.429 . S
C113 C111 1.360 . S
C113 C114 1.372 . S
C114 H109 0.928 . S
C114 C113 1.372 . S
C114 C115 1.404 . S
C115 C114 1.404 . S
C115 C116 1.391 . S
C116 H110 0.930 . S
C116 C112 1.429 . S
C116 C115 1.391 . S
H117 C120 0.931 . S
H118 C123 0.928 . S
H119 C125 0.919 1_554 S
C120 H117 0.931 . S
C120 C121 1.413 . S
C120 C122 1.360 . S
C121 C120 1.413 . S
C121 C125 1.429 . S
C122 C120 1.360 . S
C122 C123 1.372 . S
C123 H118 0.928 . S
C123 C122 1.372 . S
C123 C124 1.404 . S
C124 C123 1.404 . S
C124 C125 1.391 . S
C125 H119 0.919 1_556 S
C125 C121 1.429 . S
C125 C124 1.391 . S
H126 C129 0.931 . S
H127 C132 0.928 . S
H128 C134 0.930 . S
C129 H126 0.931 . S
C129 C130 1.413 . S
C129 C131 1.360 . S
C130 C129 1.413 . S
C130 C134 1.429 . S
C131 C129 1.360 . S
C131 C132 1.372 . S
C132 H127 0.928 . S
C132 C131 1.372 . S
C132 C133 1.404 . S
C133 C132 1.404 . S
C133 C134 1.391 . S
C134 H128 0.930 . S
C134 C130 1.429 . S
C134 C133 1.391 . S
H135 C138 0.931 . S
H136 C141 0.928 . S
H137 C143 0.930 . S
C138 H135 0.931 . S
C138 C139 1.413 . S
C138 C140 1.360 . S
C139 C138 1.413 . S
C139 C143 1.429 . S
C140 C138 1.360 . S
C140 C141 1.372 . S
C141 H136 0.928 . S
C141 C140 1.372 . S
C141 C142 1.404 . S
C142 C141 1.404 . S
C142 C143 1.391 . S
C143 H137 0.930 . S
C143 C139 1.429 . S
C143 C142 1.391 . S
Zn144 O147 2.031 1_556 S
Zn144 O149 2.049 . S
Zn144 O154 2.067 . S
Zn145 O146 1.962 . S
Zn145 O148 1.986 . S
Zn145 O150 1.996 . S
Zn145 O153 1.943 1_554 S
O146 Zn145 1.962 . S
O146 C151 1.254 . S
O147 Zn144 2.031 1_554 S
O147 C151 1.269 . S
O148 Zn145 1.986 . S
O148 C155 1.262 . S
O149 Zn144 2.049 . S
O149 C157 1.260 . S
O150 Zn145 1.996 . S
O150 C157 1.257 1_554 S
C151 O146 1.254 . S
C151 O147 1.269 . S
C152 O153 1.249 . S
C152 O154 1.270 . S
O153 Zn145 1.943 1_556 S
O153 C152 1.249 . S
O154 Zn144 2.067 . S
O154 C152 1.270 . S
C155 O148 1.262 . S
C155 O156 1.232 . S
O156 C155 1.232 . S
C157 O149 1.260 . S
C157 O150 1.257 1_556 S
Zn158 O161 2.031 . S
Zn158 O163 2.049 . S
Zn158 O168 2.067 . S
Zn159 O160 1.962 . S
Zn159 O162 1.986 . S
Zn159 O164 1.996 . S
Zn159 O167 1.943 . S
O160 Zn159 1.962 . S
O160 C165 1.254 . S
O161 Zn158 2.031 . S
O161 C165 1.269 . S
O162 Zn159 1.986 . S
O162 C169 1.262 . S
O163 Zn158 2.049 . S
O163 C171 1.260 . S
O164 Zn159 1.996 . S
O164 C171 1.257 . S
C165 O160 1.254 . S
C165 O161 1.269 . S
C166 O167 1.249 . S
C166 O168 1.270 . S
O167 Zn159 1.943 . S
O167 C166 1.249 . S
O168 Zn158 2.067 . S
O168 C166 1.270 . S
C169 O162 1.262 . S
C169 O170 1.232 . S
O170 C169 1.232 . S
C171 O163 1.260 . S
C171 O164 1.257 . S
Zn172 O175 2.031 . S
Zn172 O177 2.049 . S
Zn172 O182 2.067 . S
Zn173 O174 1.962 . S
Zn173 O176 1.986 . S
Zn173 O178 1.996 1_554 S
Zn173 O181 1.943 . S
O174 Zn173 1.962 . S
O174 C179 1.254 . S
O175 Zn172 2.031 . S
O175 C179 1.269 1_556 S
O176 Zn173 1.986 . S
O176 C183 1.262 . S
O177 Zn172 2.049 . S
O177 C185 1.260 . S
O178 Zn173 1.996 1_556 S
O178 C185 1.257 . S
C179 O174 1.254 . S
C179 O175 1.269 1_554 S
C180 O181 1.249 1_556 S
C180 O182 1.270 . S
O181 Zn173 1.943 . S
O181 C180 1.249 1_554 S
O182 Zn172 2.067 . S
O182 C180 1.270 . S
C183 O176 1.262 . S
C183 O184 1.232 . S
O184 C183 1.232 . S
C185 O177 1.260 . S
C185 O178 1.257 . S
Zn186 O189 2.030 . S
Zn186 O191 2.050 1_545 S
Zn186 O196 2.069 1_545 S
Zn187 O188 1.962 . S
Zn187 O190 1.986 . S
Zn187 O192 1.996 . S
Zn187 O195 1.943 1_545 S
O188 Zn187 1.962 . S
O188 C193 1.254 . S
O189 Zn186 2.030 . S
O189 C193 1.269 . S
O190 Zn187 1.986 . S
O190 C197 1.262 . S
O191 Zn186 2.050 1_565 S
O191 C199 1.260 . S
O192 Zn187 1.996 . S
O192 C199 1.257 1_545 S
C193 O188 1.254 . S
C193 O189 1.269 . S
C194 O195 1.249 . S
C194 O196 1.270 . S
O195 Zn187 1.943 1_565 S
O195 C194 1.249 . S
O196 Zn186 2.069 1_565 S
O196 C194 1.270 . S
C197 O190 1.262 . S
C197 O198 1.232 . S
O198 C197 1.232 . S
C199 O191 1.260 . S
C199 O192 1.257 1_565 S
Zn200 O203 2.031 . S
Zn200 O205 2.049 . S
Zn200 O210 2.067 . S
Zn201 O202 1.962 . S
Zn201 O204 1.986 . S
Zn201 O206 1.996 . S
Zn201 O209 1.943 . S
O202 Zn201 1.962 . S
O202 C207 1.254 . S
O203 Zn200 2.031 . S
O203 C207 1.269 . S
O204 Zn201 1.986 . S
O204 C211 1.262 . S
O205 Zn200 2.049 . S
O205 C213 1.260 . S
O206 Zn201 1.996 . S
O206 C213 1.257 . S
C207 O202 1.254 . S
C207 O203 1.269 . S
C208 O209 1.249 . S
C208 O210 1.270 . S
O209 Zn201 1.943 . S
O209 C208 1.249 . S
O210 Zn200 2.067 . S
O210 C208 1.270 . S
C211 O204 1.262 . S
C211 O212 1.232 . S
O212 C211 1.232 . S
C213 O205 1.260 . S
C213 O206 1.257 . S
Zn214 O217 2.031 . S
Zn214 O219 2.049 . S
Zn214 O224 2.067 . S
Zn215 O216 1.962 . S
Zn215 O218 1.986 . S
Zn215 O220 1.996 . S
Zn215 O223 1.943 . S
O216 Zn215 1.962 . S
O216 C221 1.254 . S
O217 Zn214 2.031 . S
O217 C221 1.269 . S
O218 Zn215 1.986 . S
O218 C225 1.262 . S
O219 Zn214 2.049 . S
O219 C227 1.260 . S
O220 Zn215 1.996 . S
O220 C227 1.257 . S
C221 O216 1.254 . S
C221 O217 1.269 . S
C222 O223 1.249 . S
C222 O224 1.270 . S
O223 Zn215 1.943 . S
O223 C222 1.249 . S
O224 Zn214 2.067 . S
O224 C222 1.270 . S
C225 O218 1.262 . S
C225 O226 1.232 . S
O226 C225 1.232 . S
C227 O219 1.260 . S
C227 O220 1.257 . S
Zn228 O231 2.031 . S
Zn228 O233 2.049 . S
Zn228 O238 2.067 . S
Zn229 O230 1.962 . S
Zn229 O232 1.986 . S
Zn229 O234 1.996 . S
Zn229 O237 1.943 . S
O230 Zn229 1.962 . S
O230 C235 1.254 . S
O231 Zn228 2.031 . S
O231 C235 1.269 . S
O232 Zn229 1.986 . S
O232 C239 1.262 . S
O233 Zn228 2.049 . S
O233 C241 1.260 . S
O234 Zn229 1.996 . S
O234 C241 1.257 . S
C235 O230 1.254 . S
C235 O231 1.269 . S
C236 O237 1.249 . S
C236 O238 1.270 . S
O237 Zn229 1.943 . S
O237 C236 1.249 . S
O238 Zn228 2.067 . S
O238 C236 1.270 . S
C239 O232 1.262 . S
C239 O240 1.232 . S
O240 C239 1.232 . S
C241 O233 1.260 . S
C241 O234 1.257 . S
Zn242 O245 2.031 . S
Zn242 O247 2.049 . S
Zn242 O252 2.067 . S
Zn243 O244 1.962 . S
Zn243 O246 1.986 . S
Zn243 O248 1.996 1_545 S
Zn243 O251 1.943 . S
O244 Zn243 1.962 . S
O244 C249 1.254 . S
O245 Zn242 2.031 . S
O245 C249 1.269 1_565 S
O246 Zn243 1.986 . S
O246 C253 1.262 . S
O247 Zn242 2.049 . S
O247 C255 1.260 . S
O248 Zn243 1.996 1_565 S
O248 C255 1.257 . S
C249 O244 1.254 . S
C249 O245 1.269 1_545 S
C250 O251 1.249 1_565 S
C250 O252 1.270 . S
O251 Zn243 1.943 . S
O251 C250 1.249 1_545 S
O252 Zn242 2.067 . S
O252 C250 1.270 . S
C253 O246 1.262 . S
C253 O254 1.232 . S
O254 C253 1.232 . S
C255 O247 1.260 . S
C255 O248 1.257 . S
Zn256 O259 2.029 1_655 S
Zn256 O261 2.051 . S
Zn256 O266 2.070 . S
Zn257 O258 1.962 . S
Zn257 O260 1.986 . S
Zn257 O262 1.996 . S
Zn257 O265 1.943 1_455 S
O258 Zn257 1.962 . S
O258 C263 1.254 . S
O259 Zn256 2.029 1_455 S
O259 C263 1.269 . S
O260 Zn257 1.986 . S
O260 C267 1.262 . S
O261 Zn256 2.051 . S
O261 C269 1.260 . S
O262 Zn257 1.996 . S
O262 C269 1.257 1_455 S
C263 O258 1.254 . S
C263 O259 1.269 . S
C264 O265 1.249 . S
C264 O266 1.270 . S
O265 Zn257 1.943 1_655 S
O265 C264 1.249 . S
O266 Zn256 2.070 . S
O266 C264 1.270 . S
C267 O260 1.262 . S
C267 O268 1.232 . S
O268 C267 1.232 . S
C269 O261 1.260 . S
C269 O262 1.257 1_655 S
Zn270 O273 2.031 . S
Zn270 O275 2.049 . S
Zn270 O280 2.067 . S
Zn271 O272 1.962 . S
Zn271 O274 1.986 . S
Zn271 O276 1.996 . S
Zn271 O279 1.943 . S
O272 Zn271 1.962 . S
O272 C277 1.254 . S
O273 Zn270 2.031 . S
O273 C277 1.269 . S
O274 Zn271 1.986 . S
O274 C281 1.262 . S
O275 Zn270 2.049 . S
O275 C283 1.260 . S
O276 Zn271 1.996 . S
O276 C283 1.257 . S
C277 O272 1.254 . S
C277 O273 1.269 . S
C278 O279 1.249 . S
C278 O280 1.270 . S
O279 Zn271 1.943 . S
O279 C278 1.249 . S
O280 Zn270 2.067 . S
O280 C278 1.270 . S
C281 O274 1.262 . S
C281 O282 1.232 . S
O282 C281 1.232 . S
C283 O275 1.260 . S
C283 O276 1.257 . S
Zn284 O287 2.031 . S
Zn284 O289 2.049 . S
Zn284 O294 2.067 . S
Zn285 O286 1.962 . S
Zn285 O288 1.986 . S
Zn285 O290 1.996 1_455 S
Zn285 O293 1.943 . S
O286 Zn285 1.962 . S
O286 C291 1.254 . S
O287 Zn284 2.031 . S
O287 C291 1.269 1_655 S
O288 Zn285 1.986 . S
O288 C295 1.262 . S
O289 Zn284 2.049 . S
O289 C297 1.260 . S
O290 Zn285 1.996 1_655 S
O290 C297 1.257 . S
C291 O286 1.254 . S
C291 O287 1.269 1_455 S
C292 O293 1.249 1_655 S
C292 O294 1.270 . S
O293 Zn285 1.943 . S
O293 C292 1.249 1_455 S
O294 Zn284 2.067 . S
O294 C292 1.270 . S
C295 O288 1.262 . S
C295 O296 1.232 . S
O296 C295 1.232 . S
C297 O289 1.260 . S
C297 O290 1.257 . S
Zn298 O301 2.031 . S
Zn298 O303 2.049 . S
Zn298 O308 2.067 . S
Zn299 O300 1.962 . S
Zn299 O302 1.986 . S
Zn299 O304 1.996 . S
Zn299 O307 1.943 . S
O300 Zn299 1.962 . S
O300 C305 1.254 . S
O301 Zn298 2.031 . S
O301 C305 1.269 . S
O302 Zn299 1.986 . S
O302 C309 1.262 . S
O303 Zn298 2.049 . S
O303 C311 1.260 . S
O304 Zn299 1.996 . S
O304 C311 1.257 . S
C305 O300 1.254 . S
C305 O301 1.269 . S
C306 O307 1.249 . S
C306 O308 1.270 . S
O307 Zn299 1.943 . S
O307 C306 1.249 . S
O308 Zn298 2.067 . S
O308 C306 1.270 . S
C309 O302 1.262 . S
C309 O310 1.232 . S
O310 C309 1.232 . S
C311 O303 1.260 . S
C311 O304 1.257 . S
H312 C318 0.930 . S
H313 C321 0.930 . S
H314 C322 0.930 . S
H315 C323 0.930 . S
H316 C326 0.930 . S
H317 C327 0.930 . S
C318 H312 0.930 . S
C318 C319 1.355 . S
C318 C320 1.415 . S
C319 C318 1.355 . S
C319 C321 1.419 . S
C320 C318 1.415 . S
C320 C325 1.425 . S
C320 C327 1.409 . S
C321 H313 0.930 . S
C321 C319 1.419 . S
C321 C322 1.362 . S
C322 H314 0.930 . S
C322 C321 1.362 . S
C322 C325 1.409 . S
C323 H315 0.930 . S
C323 C324 1.355 . S
C323 C325 1.415 . S
C324 C323 1.355 . S
C324 C326 1.419 . S
C325 C320 1.425 . S
C325 C322 1.409 . S
C325 C323 1.415 . S
C326 H316 0.930 . S
C326 C324 1.419 . S
C326 C327 1.362 . S
C327 H317 0.930 . S
C327 C320 1.409 . S
C327 C326 1.362 . S
H328 C334 0.930 . S
H329 C337 0.930 . S
H330 C338 0.930 . S
H331 C339 0.930 . S
H332 C342 0.930 . S
H333 C343 0.930 . S
C334 H328 0.930 . S
C334 C335 1.355 1_455 S
C334 C336 1.415 . S
C335 C334 1.355 1_655 S
C335 C337 1.419 . S
C336 C334 1.415 . S
C336 C341 1.425 . S
C336 C343 1.409 . S
C337 H329 0.930 . S
C337 C335 1.419 . S
C337 C338 1.362 . S
C338 H330 0.930 . S
C338 C337 1.362 . S
C338 C341 1.409 1_655 S
C339 H331 0.930 . S
C339 C340 1.355 . S
C339 C341 1.415 . S
C340 C339 1.355 . S
C340 C342 1.419 . S
C341 C336 1.425 . S
C341 C338 1.409 1_455 S
C341 C339 1.415 . S
C342 H332 0.930 . S
C342 C340 1.419 . S
C342 C343 1.362 . S
C343 H333 0.930 . S
C343 C336 1.409 . S
C343 C342 1.362 . S
H344 C350 0.930 . S
H345 C353 0.930 . S
H346 C354 0.930 . S
H347 C355 0.930 . S
H348 C358 0.930 . S
H349 C359 0.930 . S
C350 H344 0.930 . S
C350 C351 1.355 . S
C350 C352 1.415 . S
C351 C350 1.355 . S
C351 C353 1.419 . S
C352 C350 1.415 . S
C352 C357 1.425 . S
C352 C359 1.409 . S
C353 H345 0.930 . S
C353 C351 1.419 . S
C353 C354 1.362 . S
C354 H346 0.930 . S
C354 C353 1.362 . S
C354 C357 1.409 . S
C355 H347 0.930 . S
C355 C356 1.355 . S
C355 C357 1.415 . S
C356 C355 1.355 . S
C356 C358 1.419 . S
C357 C352 1.425 . S
C357 C354 1.409 . S
C357 C355 1.415 . S
C358 H348 0.930 . S
C358 C356 1.419 . S
C358 C359 1.362 . S
C359 H349 0.930 . S
C359 C352 1.409 . S
C359 C358 1.362 . S
H360 C366 0.930 . S
H361 C369 0.930 . S
H362 C370 0.930 . S
H363 C371 0.930 . S
H364 C374 0.930 . S
H365 C375 0.930 1_455 S
C366 H360 0.930 . S
C366 C367 1.355 . S
C366 C368 1.415 1_455 S
C367 C366 1.355 . S
C367 C369 1.419 1_455 S
C368 C366 1.415 1_655 S
C368 C373 1.425 . S
C368 C375 1.409 . S
C369 H361 0.930 . S
C369 C367 1.419 1_655 S
C369 C370 1.362 . S
C370 H362 0.930 . S
C370 C369 1.362 . S
C370 C373 1.409 . S
C371 H363 0.930 . S
C371 C372 1.355 . S
C371 C373 1.415 . S
C372 C371 1.355 . S
C372 C374 1.419 . S
C373 C368 1.425 . S
C373 C370 1.409 . S
C373 C371 1.415 . S
C374 H364 0.930 . S
C374 C372 1.419 . S
C374 C375 1.362 . S
C375 H365 0.930 1_655 S
C375 C368 1.409 . S
C375 C374 1.362 . S
H376 C382 0.930 . S
H377 C385 0.930 . S
H378 C386 0.930 . S
H379 C387 0.930 . S
H380 C390 0.930 . S
H381 C391 0.930 . S
C382 H376 0.930 . S
C382 C383 1.355 . S
C382 C384 1.415 . S
C383 C382 1.355 . S
C383 C385 1.419 . S
C384 C382 1.415 . S
C384 C389 1.425 . S
C384 C391 1.409 . S
C385 H377 0.930 . S
C385 C383 1.419 . S
C385 C386 1.362 . S
C386 H378 0.930 . S
C386 C385 1.362 . S
C386 C389 1.409 . S
C387 H379 0.930 . S
C387 C388 1.355 . S
C387 C389 1.415 . S
C388 C387 1.355 . S
C388 C390 1.419 . S
C389 C384 1.425 . S
C389 C386 1.409 . S
C389 C387 1.415 . S
C390 H380 0.930 . S
C390 C388 1.419 . S
C390 C391 1.362 . S
C391 H381 0.930 . S
C391 C384 1.409 . S
C391 C390 1.362 . S
H392 C398 0.930 . S
H393 C401 0.930 . S
H394 C402 0.930 . S
H395 C403 0.930 . S
H396 C406 0.930 . S
H397 C407 0.930 . S
C398 H392 0.930 . S
C398 C399 1.355 . S
C398 C400 1.415 . S
C399 C398 1.355 . S
C399 C401 1.419 . S
C400 C398 1.415 . S
C400 C405 1.425 . S
C400 C407 1.409 . S
C401 H393 0.930 . S
C401 C399 1.419 . S
C401 C402 1.362 . S
C402 H394 0.930 . S
C402 C401 1.362 . S
C402 C405 1.409 . S
C403 H395 0.930 . S
C403 C404 1.355 . S
C403 C405 1.415 . S
C404 C403 1.355 . S
C404 C406 1.419 . S
C405 C400 1.425 . S
C405 C402 1.409 . S
C405 C403 1.415 . S
C406 H396 0.930 . S
C406 C404 1.419 . S
C406 C407 1.362 . S
C407 H397 0.930 . S
C407 C400 1.409 . S
C407 C406 1.362 . S
H408 C414 0.930 . S
H409 C417 0.930 . S
H410 C418 0.930 . S
H411 C419 0.930 . S
H412 C422 0.930 . S
H413 C423 0.930 . S
C414 H408 0.930 . S
C414 C415 1.355 . S
C414 C416 1.415 . S
C415 C414 1.355 . S
C415 C417 1.419 . S
C416 C414 1.415 . S
C416 C421 1.425 . S
C416 C423 1.409 . S
C417 H409 0.930 . S
C417 C415 1.419 . S
C417 C418 1.362 . S
C418 H410 0.930 . S
C418 C417 1.362 . S
C418 C421 1.409 . S
C419 H411 0.930 . S
C419 C420 1.355 . S
C419 C421 1.415 . S
C420 C419 1.355 . S
C420 C422 1.419 . S
C421 C416 1.425 . S
C421 C418 1.409 . S
C421 C419 1.415 . S
C422 H412 0.930 . S
C422 C420 1.419 . S
C422 C423 1.362 . S
C423 H413 0.930 . S
C423 C416 1.409 . S
C423 C422 1.362 . S
H424 C430 0.930 1_545 S
H425 C433 0.930 . S
H426 C434 0.930 . S
H427 C435 0.930 . S
H428 C438 0.930 . S
H429 C439 0.930 . S
C430 H424 0.930 1_565 S
C430 C431 1.355 . S
C430 C432 1.415 . S
C431 C430 1.355 . S
C431 C433 1.419 . S
C432 C430 1.415 . S
C432 C437 1.425 . S
C432 C439 1.409 1_565 S
C433 H425 0.930 . S
C433 C431 1.419 . S
C433 C434 1.362 . S
C434 H426 0.930 . S
C434 C433 1.362 . S
C434 C437 1.409 . S
C435 H427 0.930 . S
C435 C436 1.355 . S
C435 C437 1.415 . S
C436 C435 1.355 . S
C436 C438 1.419 1_565 S
C437 C432 1.425 . S
C437 C434 1.409 . S
C437 C435 1.415 . S
C438 H428 0.930 . S
C438 C436 1.419 1_545 S
C438 C439 1.362 . S
C439 H429 0.930 . S
C439 C432 1.409 1_545 S
C439 C438 1.362 . S
H440 C446 0.930 . S
H441 C449 0.930 . S
H442 C450 0.930 . S
H443 C451 0.930 . S
H444 C454 0.930 . S
H445 C455 0.930 . S
C446 H440 0.930 . S
C446 C447 1.355 . S
C446 C448 1.415 . S
C447 C446 1.355 . S
C447 C449 1.419 . S
C448 C446 1.415 . S
C448 C453 1.425 . S
C448 C455 1.409 . S
C449 H441 0.930 . S
C449 C447 1.419 . S
C449 C450 1.362 . S
C450 H442 0.930 . S
C450 C449 1.362 . S
C450 C453 1.409 . S
C451 H443 0.930 . S
C451 C452 1.355 . S
C451 C453 1.415 . S
C452 C451 1.355 . S
C452 C454 1.419 . S
C453 C448 1.425 . S
C453 C450 1.409 . S
C453 C451 1.415 . S
C454 H444 0.930 . S
C454 C452 1.419 . S
C454 C455 1.362 . S
C455 H445 0.930 . S
C455 C448 1.409 . S
C455 C454 1.362 . S
H456 C462 0.930 . S
H457 C465 0.930 . S
H458 C466 0.930 . S
H459 C467 0.930 . S
H460 C470 0.930 . S
H461 C471 0.930 . S
C462 H456 0.930 . S
C462 C463 1.355 . S
C462 C464 1.415 . S
C463 C462 1.355 . S
C463 C465 1.419 . S
C464 C462 1.415 . S
C464 C469 1.425 . S
C464 C471 1.409 . S
C465 H457 0.930 . S
C465 C463 1.419 . S
C465 C466 1.362 . S
C466 H458 0.930 . S
C466 C465 1.362 . S
C466 C469 1.409 . S
C467 H459 0.930 . S
C467 C468 1.355 . S
C467 C469 1.415 . S
C468 C467 1.355 . S
C468 C470 1.419 . S
C469 C464 1.425 . S
C469 C466 1.409 . S
C469 C467 1.415 . S
C470 H460 0.930 . S
C470 C468 1.419 . S
C470 C471 1.362 . S
C471 H461 0.930 . S
C471 C464 1.409 . S
C471 C470 1.362 . S
H472 C478 0.930 . S
H473 C481 0.930 . S
H474 C482 0.930 . S
H475 C483 0.930 . S
H476 C486 0.930 . S
H477 C487 0.930 . S
C478 H472 0.930 . S
C478 C479 1.355 . S
C478 C480 1.415 . S
C479 C478 1.355 . S
C479 C481 1.419 . S
C480 C478 1.415 . S
C480 C485 1.425 . S
C480 C487 1.409 . S
C481 H473 0.930 . S
C481 C479 1.419 . S
C481 C482 1.362 . S
C482 H474 0.930 . S
C482 C481 1.362 . S
C482 C485 1.409 . S
C483 H475 0.930 . S
C483 C484 1.355 . S
C483 C485 1.415 . S
C484 C483 1.355 . S
C484 C486 1.419 . S
C485 C480 1.425 . S
C485 C482 1.409 . S
C485 C483 1.415 . S
C486 H476 0.930 . S
C486 C484 1.419 . S
C486 C487 1.362 . S
C487 H477 0.930 . S
C487 C480 1.409 . S
C487 C486 1.362 . S
H488 C494 0.930 . S
H489 C497 0.930 . S
H490 C498 0.930 . S
H491 C499 0.930 . S
H492 C502 0.930 . S
H493 C503 0.930 . S
C494 H488 0.930 . S
C494 C495 1.355 . S
C494 C496 1.415 . S
C495 C494 1.355 . S
C495 C497 1.419 . S
C496 C494 1.415 . S
C496 C501 1.425 . S
C496 C503 1.409 . S
C497 H489 0.930 . S
C497 C495 1.419 . S
C497 C498 1.362 . S
C498 H490 0.930 . S
C498 C497 1.362 . S
C498 C501 1.409 . S
C499 H491 0.930 . S
C499 C500 1.355 . S
C499 C501 1.415 . S
C500 C499 1.355 . S
C500 C502 1.419 . S
C501 C496 1.425 . S
C501 C498 1.409 . S
C501 C499 1.415 . S
C502 H492 0.930 . S
C502 C500 1.419 . S
C502 C503 1.362 . S
C503 H493 0.930 . S
C503 C496 1.409 . S
C503 C502 1.362 . S
H504 C510 0.930 . S
H505 C513 0.930 . S
H506 C514 0.930 . S
H507 C515 0.930 . S
H508 C518 0.930 . S
H509 C519 0.930 . S
C510 H504 0.930 . S
C510 C511 1.355 . S
C510 C512 1.415 . S
C511 C510 1.355 . S
C511 C513 1.419 . S
C512 C510 1.415 . S
C512 C517 1.425 . S
C512 C519 1.409 . S
C513 H505 0.930 . S
C513 C511 1.419 . S
C513 C514 1.362 . S
C514 H506 0.930 . S
C514 C513 1.362 . S
C514 C517 1.409 . S
C515 H507 0.930 . S
C515 C516 1.355 . S
C515 C517 1.415 . S
C516 C515 1.355 . S
C516 C518 1.419 . S
C517 C512 1.425 . S
C517 C514 1.409 . S
C517 C515 1.415 . S
C518 H508 0.930 . S
C518 C516 1.419 . S
C518 C519 1.362 . S
C519 H509 0.930 . S
C519 C512 1.409 . S
C519 C518 1.362 . S
H520 C526 0.930 . S
H521 C529 0.930 . S
H522 C530 0.930 . S
H523 C531 0.930 . S
H524 C534 0.925 1_655 S
H525 C535 0.930 . S
C526 H520 0.930 . S
C526 C527 1.355 . S
C526 C528 1.415 . S
C527 C526 1.355 . S
C527 C529 1.419 . S
C528 C526 1.415 . S
C528 C533 1.425 . S
C528 C535 1.409 . S
C529 H521 0.930 . S
C529 C527 1.419 . S
C529 C530 1.362 . S
C530 H522 0.930 . S
C530 C529 1.362 . S
C530 C533 1.409 . S
C531 H523 0.930 . S
C531 C532 1.355 . S
C531 C533 1.415 . S
C532 C531 1.355 . S
C532 C534 1.419 . S
C533 C528 1.425 . S
C533 C530 1.409 . S
C533 C531 1.415 . S
C534 H524 0.925 1_455 S
C534 C532 1.419 . S
C534 C535 1.362 . S
C535 H525 0.930 . S
C535 C528 1.409 . S
C535 C534 1.362 . S
H536 C542 0.930 . S
H537 C545 0.930 . S
H538 C546 0.930 . S
H539 C547 0.930 . S
H540 C550 0.930 . S
H541 C551 0.930 . S
C542 H536 0.930 . S
C542 C543 1.355 . S
C542 C544 1.415 . S
C543 C542 1.355 . S
C543 C545 1.419 . S
C544 C542 1.415 . S
C544 C549 1.425 . S
C544 C551 1.409 . S
C545 H537 0.930 . S
C545 C543 1.419 . S
C545 C546 1.362 . S
C546 H538 0.930 . S
C546 C545 1.362 . S
C546 C549 1.409 . S
C547 H539 0.930 . S
C547 C548 1.355 . S
C547 C549 1.415 . S
C548 C547 1.355 . S
C548 C550 1.419 . S
C549 C544 1.425 . S
C549 C546 1.409 . S
C549 C547 1.415 . S
C550 H540 0.930 . S
C550 C548 1.419 . S
C550 C551 1.362 . S
C551 H541 0.930 . S
C551 C544 1.409 . S
C551 C550 1.362 . S
H552 C558 0.930 1_455 S
H553 C561 0.930 . S
H554 C562 0.930 . S
H555 C563 0.930 . S
H556 C566 0.930 . S
H557 C567 0.930 . S
C558 H552 0.930 1_655 S
C558 C559 1.355 . S
C558 C560 1.415 . S
C559 C558 1.355 . S
C559 C561 1.419 . S
C560 C558 1.415 . S
C560 C565 1.425 . S
C560 C567 1.409 1_655 S
C561 H553 0.930 . S
C561 C559 1.419 . S
C561 C562 1.362 . S
C562 H554 0.930 . S
C562 C561 1.362 . S
C562 C565 1.409 . S
C563 H555 0.930 . S
C563 C564 1.355 . S
C563 C565 1.415 . S
C564 C563 1.355 . S
C564 C566 1.419 1_655 S
C565 C560 1.425 . S
C565 C562 1.409 . S
C565 C563 1.415 . S
C566 H556 0.930 . S
C566 C564 1.419 1_455 S
C566 C567 1.362 . S
C567 H557 0.930 . S
C567 C560 1.409 1_455 S
C567 C566 1.362 . S
H568 C574 0.930 . S
H569 C577 0.930 . S
H570 C578 0.930 . S
H571 C579 0.930 . S
H572 C582 0.930 . S
H573 C583 0.930 . S
C574 H568 0.930 . S
C574 C575 1.355 . S
C574 C576 1.415 . S
C575 C574 1.355 . S
C575 C577 1.419 . S
C576 C574 1.415 . S
C576 C581 1.425 . S
C576 C583 1.409 . S
C577 H569 0.930 . S
C577 C575 1.419 . S
C577 C578 1.362 . S
C578 H570 0.930 . S
C578 C577 1.362 . S
C578 C581 1.409 . S
C579 H571 0.930 . S
C579 C580 1.355 . S
C579 C581 1.415 . S
C580 C579 1.355 . S
C580 C582 1.419 . S
C581 C576 1.425 . S
C581 C578 1.409 . S
C581 C579 1.415 . S
C582 H572 0.930 . S
C582 C580 1.419 . S
C582 C583 1.362 . S
C583 H573 0.930 . S
C583 C576 1.409 . S
C583 C582 1.362 . S
H584 C590 0.930 . S
H585 C593 0.930 . S
H586 C594 0.930 . S
H587 C595 0.930 . S
H588 C598 0.930 . S
H589 C599 0.930 . S
C590 H584 0.930 . S
C590 C591 1.355 . S
C590 C592 1.415 . S
C591 C590 1.355 . S
C591 C593 1.419 . S
C592 C590 1.415 . S
C592 C597 1.425 . S
C592 C599 1.409 . S
C593 H585 0.930 . S
C593 C591 1.419 . S
C593 C594 1.362 . S
C594 H586 0.930 . S
C594 C593 1.362 . S
C594 C597 1.409 . S
C595 H587 0.930 . S
C595 C596 1.355 . S
C595 C597 1.415 . S
C596 C595 1.355 . S
C596 C598 1.419 . S
C597 C592 1.425 . S
C597 C594 1.409 . S
C597 C595 1.415 . S
C598 H588 0.930 . S
C598 C596 1.419 . S
C598 C599 1.362 . S
C599 H589 0.930 . S
C599 C592 1.409 . S
C599 C598 1.362 . S
H600 C606 0.930 . S
H601 C609 0.930 . S
H602 C610 0.930 . S
H603 C611 0.930 . S
H604 C614 0.930 . S
H605 C615 0.930 1_545 S
C606 H600 0.930 . S
C606 C607 1.355 . S
C606 C608 1.415 1_545 S
C607 C606 1.355 . S
C607 C609 1.419 1_545 S
C608 C606 1.415 1_565 S
C608 C613 1.425 . S
C608 C615 1.409 . S
C609 H601 0.930 . S
C609 C607 1.419 1_565 S
C609 C610 1.362 . S
C610 H602 0.930 . S
C610 C609 1.362 . S
C610 C613 1.409 . S
C611 H603 0.930 . S
C611 C612 1.355 . S
C611 C613 1.415 . S
C612 C611 1.355 . S
C612 C614 1.419 . S
C613 C608 1.425 . S
C613 C610 1.409 . S
C613 C611 1.415 . S
C614 H604 0.930 . S
C614 C612 1.419 . S
C614 C615 1.362 . S
C615 H605 0.930 1_565 S
C615 C608 1.409 . S
C615 C614 1.362 . S
H616 C622 0.930 . S
H617 C625 0.930 . S
H618 C626 0.930 . S
H619 C627 0.930 . S
H620 C630 0.930 . S
H621 C631 0.930 . S
C622 H616 0.930 . S
C622 C623 1.355 . S
C622 C624 1.415 . S
C623 C622 1.355 . S
C623 C625 1.419 . S
C624 C622 1.415 . S
C624 C629 1.425 . S
C624 C631 1.409 . S
C625 H617 0.930 . S
C625 C623 1.419 . S
C625 C626 1.362 . S
C626 H618 0.930 . S
C626 C625 1.362 . S
C626 C629 1.409 . S
C627 H619 0.930 . S
C627 C628 1.355 . S
C627 C629 1.415 . S
C628 C627 1.355 . S
C628 C630 1.419 . S
C629 C624 1.425 . S
C629 C626 1.409 . S
C629 C627 1.415 . S
C630 H620 0.930 . S
C630 C628 1.419 . S
C630 C631 1.362 . S
C631 H621 0.930 . S
C631 C624 1.409 . S
C631 C630 1.362 . S
H632 C638 0.930 . S
H633 C641 0.930 . S
H634 C642 0.930 . S
H635 C643 0.930 . S
H636 C646 0.930 . S
H637 C647 0.930 1_565 S
C638 H632 0.930 . S
C638 C639 1.355 . S
C638 C640 1.415 1_565 S
C639 C638 1.355 . S
C639 C641 1.419 1_565 S
C640 C638 1.415 1_545 S
C640 C645 1.425 . S
C640 C647 1.409 . S
C641 H633 0.930 . S
C641 C639 1.419 1_545 S
C641 C642 1.362 . S
C642 H634 0.930 . S
C642 C641 1.362 . S
C642 C645 1.409 . S
C643 H635 0.930 . S
C643 C644 1.355 . S
C643 C645 1.415 . S
C644 C643 1.355 . S
C644 C646 1.419 . S
C645 C640 1.425 . S
C645 C642 1.409 . S
C645 C643 1.415 . S
C646 H636 0.930 . S
C646 C644 1.419 . S
C646 C647 1.362 . S
C647 H637 0.930 1_545 S
C647 C640 1.409 . S
C647 C646 1.362 . S
H648 C654 0.930 . S
H649 C657 0.930 . S
H650 C658 0.930 . S
H651 C659 0.930 . S
H652 C662 0.930 . S
H653 C663 0.930 . S
C654 H648 0.930 . S
C654 C655 1.355 . S
C654 C656 1.415 . S
C655 C654 1.355 . S
C655 C657 1.419 . S
C656 C654 1.415 . S
C656 C661 1.425 . S
C656 C663 1.409 . S
C657 H649 0.930 . S
C657 C655 1.419 . S
C657 C658 1.362 . S
C658 H650 0.930 . S
C658 C657 1.362 . S
C658 C661 1.409 . S
C659 H651 0.930 . S
C659 C660 1.355 . S
C659 C661 1.415 . S
C660 C659 1.355 . S
C660 C662 1.419 . S
C661 C656 1.425 . S
C661 C658 1.409 . S
C661 C659 1.415 . S
C662 H652 0.930 . S
C662 C660 1.419 . S
C662 C663 1.362 . S
C663 H653 0.930 . S
C663 C656 1.409 . S
C663 C662 1.362 . S
H664 C670 0.930 . S
H665 C673 0.930 . S
H666 C674 0.930 . S
H667 C675 0.930 . S
H668 C678 0.930 . S
H669 C679 0.930 1_565 S
C670 H664 0.930 . S
C670 C671 1.354 1_565 S
C670 C672 1.415 1_565 S
C671 C670 1.354 1_545 S
C671 C673 1.424 . S
C672 C670 1.415 1_545 S
C672 C677 1.425 . S
C672 C679 1.409 . S
C673 H665 0.930 . S
C673 C671 1.424 . S
C673 C674 1.362 . S
C674 H666 0.930 . S
C674 C673 1.362 . S
C674 C677 1.409 . S
C675 H667 0.930 . S
C675 C676 1.355 . S
C675 C677 1.415 . S
C676 C675 1.355 . S
C676 C678 1.419 . S
C677 C672 1.425 . S
C677 C674 1.409 . S
C677 C675 1.415 . S
C678 H668 0.930 . S
C678 C676 1.419 . S
C678 C679 1.362 . S
C679 H669 0.930 1_545 S
C679 C672 1.409 . S
C679 C678 1.362 . S
H680 C686 0.930 . S
H681 C689 0.930 . S
H682 C690 0.930 . S
H683 C691 0.930 . S
H684 C694 0.930 . S
H685 C695 0.930 . S
C686 H680 0.930 . S
C686 C687 1.355 . S
C686 C688 1.415 . S
C687 C686 1.355 . S
C687 C689 1.419 . S
C688 C686 1.415 . S
C688 C693 1.425 . S
C688 C695 1.409 . S
C689 H681 0.930 . S
C689 C687 1.419 . S
C689 C690 1.362 . S
C690 H682 0.930 . S
C690 C689 1.362 . S
C690 C693 1.409 . S
C691 H683 0.930 . S
C691 C692 1.355 . S
C691 C693 1.415 . S
C692 C691 1.355 . S
C692 C694 1.419 . S
C693 C688 1.425 . S
C693 C690 1.409 . S
C693 C691 1.415 . S
C694 H684 0.930 . S
C694 C692 1.419 . S
C694 C695 1.362 . S
C695 H685 0.930 . S
C695 C688 1.409 . S
C695 C694 1.362 . S
H696 C702 0.930 . S
H697 C705 0.930 . S
H698 C706 0.930 . S
H699 C707 0.930 . S
H700 C710 0.930 . S
H701 C711 0.930 . S
C702 H696 0.930 . S
C702 C703 1.355 . S
C702 C704 1.415 . S
C703 C702 1.355 . S
C703 C705 1.419 . S
C704 C702 1.415 . S
C704 C709 1.425 . S
C704 C711 1.409 . S
C705 H697 0.930 . S
C705 C703 1.419 . S
C705 C706 1.362 . S
C706 H698 0.930 . S
C706 C705 1.362 . S
C706 C709 1.409 . S
C707 H699 0.930 . S
C707 C708 1.355 . S
C707 C709 1.415 . S
C708 C707 1.355 . S
C708 C710 1.419 . S
C709 C704 1.425 . S
C709 C706 1.409 . S
C709 C707 1.415 . S
C710 H700 0.930 . S
C710 C708 1.419 . S
C710 C711 1.362 . S
C711 H701 0.930 . S
C711 C704 1.409 . S
C711 C710 1.362 . S
H712 C718 0.930 . S
H713 C721 0.930 . S
H714 C722 0.930 . S
H715 C723 0.930 . S
H716 C726 0.912 1_565 S
H717 C727 0.930 . S
C718 H712 0.930 . S
C718 C719 1.355 . S
C718 C720 1.415 . S
C719 C718 1.355 . S
C719 C721 1.419 . S
C720 C718 1.415 . S
C720 C725 1.425 . S
C720 C727 1.409 . S
C721 H713 0.930 . S
C721 C719 1.419 . S
C721 C722 1.362 . S
C722 H714 0.930 . S
C722 C721 1.362 . S
C722 C725 1.409 . S
C723 H715 0.930 . S
C723 C724 1.355 . S
C723 C725 1.415 . S
C724 C723 1.355 . S
C724 C726 1.419 . S
C725 C720 1.425 . S
C725 C722 1.409 . S
C725 C723 1.415 . S
C726 H716 0.912 1_545 S
C726 C724 1.419 . S
C726 C727 1.362 . S
C727 H717 0.930 . S
C727 C720 1.409 . S
C727 C726 1.362 . S
H728 C734 0.930 . S
H729 C737 0.930 . S
H730 C738 0.930 . S
H731 C739 0.930 . S
H732 C742 0.930 . S
H733 C743 0.930 . S
C734 H728 0.930 . S
C734 C735 1.355 . S
C734 C736 1.415 . S
C735 C734 1.355 . S
C735 C737 1.419 . S
C736 C734 1.415 . S
C736 C741 1.425 . S
C736 C743 1.409 . S
C737 H729 0.930 . S
C737 C735 1.419 . S
C737 C738 1.362 . S
C738 H730 0.930 . S
C738 C737 1.362 . S
C738 C741 1.409 . S
C739 H731 0.930 . S
C739 C740 1.355 . S
C739 C741 1.415 . S
C740 C739 1.355 . S
C740 C742 1.419 . S
C741 C736 1.425 . S
C741 C738 1.409 . S
C741 C739 1.415 . S
C742 H732 0.930 . S
C742 C740 1.419 . S
C742 C743 1.362 . S
C743 H733 0.930 . S
C743 C736 1.409 . S
C743 C742 1.362 . S
H744 C750 0.930 . S
H745 C753 0.930 . S
H746 C754 0.930 . S
H747 C755 0.930 . S
H748 C758 0.930 . S
H749 C759 0.930 . S
C750 H744 0.930 . S
C750 C751 1.355 . S
C750 C752 1.415 . S
C751 C750 1.355 . S
C751 C753 1.419 . S
C752 C750 1.415 . S
C752 C757 1.425 . S
C752 C759 1.409 . S
C753 H745 0.930 . S
C753 C751 1.419 . S
C753 C754 1.362 . S
C754 H746 0.930 . S
C754 C753 1.362 . S
C754 C757 1.409 . S
C755 H747 0.930 . S
C755 C756 1.355 . S
C755 C757 1.415 . S
C756 C755 1.355 . S
C756 C758 1.419 . S
C757 C752 1.425 . S
C757 C754 1.409 . S
C757 C755 1.415 . S
C758 H748 0.930 . S
C758 C756 1.419 . S
C758 C759 1.362 . S
C759 H749 0.930 . S
C759 C752 1.409 . S
C759 C758 1.362 . S
H760 C766 0.930 . S
H761 C769 0.930 . S
H762 C770 0.930 . S
H763 C771 0.930 . S
H764 C774 0.930 . S
H765 C775 0.930 . S
C766 H760 0.930 . S
C766 C767 1.355 . S
C766 C768 1.415 . S
C767 C766 1.355 . S
C767 C769 1.419 . S
C768 C766 1.415 . S
C768 C773 1.425 . S
C768 C775 1.409 . S
C769 H761 0.930 . S
C769 C767 1.419 . S
C769 C770 1.362 . S
C770 H762 0.930 . S
C770 C769 1.362 . S
C770 C773 1.409 . S
C771 H763 0.930 . S
C771 C772 1.355 . S
C771 C773 1.415 . S
C772 C771 1.355 . S
C772 C774 1.419 . S
C773 C768 1.425 . S
C773 C770 1.409 . S
C773 C771 1.415 . S
C774 H764 0.930 . S
C774 C772 1.419 . S
C774 C775 1.362 . S
C775 H765 0.930 . S
C775 C768 1.409 . S
C775 C774 1.362 . S
H776 C782 0.930 . S
H777 C785 0.930 1_565 S
H778 C786 0.930 . S
H779 C787 0.930 1_565 S
H780 C790 0.930 . S
H781 C791 0.930 . S
C782 H776 0.930 . S
C782 C783 1.355 1_655 S
C782 C784 1.415 . S
C783 C782 1.355 1_455 S
C783 C785 1.419 . S
C784 C782 1.415 . S
C784 C789 1.425 . S
C784 C791 1.409 . S
C785 H777 0.930 1_545 S
C785 C783 1.419 . S
C785 C786 1.362 1_545 S
C786 H778 0.930 . S
C786 C785 1.362 1_565 S
C786 C789 1.409 1_465 S
C787 H779 0.930 1_545 S
C787 C788 1.355 . S
C787 C789 1.415 . S
C788 C787 1.355 . S
C788 C790 1.419 . S
C789 C784 1.425 . S
C789 C786 1.409 1_645 S
C789 C787 1.415 . S
C790 H780 0.930 . S
C790 C788 1.419 . S
C790 C791 1.362 . S
C791 H781 0.930 . S
C791 C784 1.409 . S
C791 C790 1.362 . S
H792 C798 0.930 . S
H793 C801 0.930 . S
H794 C802 0.930 . S
H795 C803 0.930 . S
H796 C806 0.930 . S
H797 C807 0.930 . S
C798 H792 0.930 . S
C798 C799 1.355 . S
C798 C800 1.415 . S
C799 C798 1.355 . S
C799 C801 1.419 . S
C800 C798 1.415 . S
C800 C805 1.425 . S
C800 C807 1.409 . S
C801 H793 0.930 . S
C801 C799 1.419 . S
C801 C802 1.362 . S
C802 H794 0.930 . S
C802 C801 1.362 . S
C802 C805 1.409 . S
C803 H795 0.930 . S
C803 C804 1.355 . S
C803 C805 1.415 . S
C804 C803 1.355 . S
C804 C806 1.419 . S
C805 C800 1.425 . S
C805 C802 1.409 . S
C805 C803 1.415 . S
C806 H796 0.930 . S
C806 C804 1.419 . S
C806 C807 1.362 . S
C807 H797 0.930 . S
C807 C800 1.409 . S
C807 C806 1.362 . S
H808 C814 0.930 . S
H809 C817 0.930 . S
H810 C818 0.930 . S
H811 C819 0.930 . S
H812 C822 0.930 . S
H813 C823 0.930 . S
C814 H808 0.930 . S
C814 C815 1.355 1_455 S
C814 C816 1.415 . S
C815 C814 1.355 1_655 S
C815 C817 1.419 . S
C816 C814 1.415 . S
C816 C821 1.425 . S
C816 C823 1.409 . S
C817 H809 0.930 . S
C817 C815 1.419 . S
C817 C818 1.362 . S
C818 H810 0.930 . S
C818 C817 1.362 . S
C818 C821 1.409 1_655 S
C819 H811 0.930 . S
C819 C820 1.355 . S
C819 C821 1.415 . S
C820 C819 1.355 . S
C820 C822 1.419 . S
C821 C816 1.425 . S
C821 C818 1.409 1_455 S
C821 C819 1.415 . S
C822 H812 0.930 . S
C822 C820 1.419 . S
C822 C823 1.362 . S
C823 H813 0.930 . S
C823 C816 1.409 . S
C823 C822 1.362 . S
H824 C830 0.930 . S
H825 C833 0.930 . S
H826 C834 0.930 . S
H827 C835 0.930 . S
H828 C838 0.930 . S
H829 C839 0.930 . S
C830 H824 0.930 . S
C830 C831 1.355 . S
C830 C832 1.415 . S
C831 C830 1.355 . S
C831 C833 1.419 . S
C832 C830 1.415 . S
C832 C837 1.425 . S
C832 C839 1.409 . S
C833 H825 0.930 . S
C833 C831 1.419 . S
C833 C834 1.362 . S
C834 H826 0.930 . S
C834 C833 1.362 . S
C834 C837 1.409 . S
C835 H827 0.930 . S
C835 C836 1.355 . S
C835 C837 1.415 . S
C836 C835 1.355 . S
C836 C838 1.419 . S
C837 C832 1.425 . S
C837 C834 1.409 . S
C837 C835 1.415 . S
C838 H828 0.930 . S
C838 C836 1.419 . S
C838 C839 1.362 . S
C839 H829 0.930 . S
C839 C832 1.409 . S
C839 C838 1.362 . S
H840 C846 0.925 1_554 S
H841 C849 0.930 1_455 S
H842 C850 0.930 . S
H843 C851 0.902 1_455 S
H844 C854 0.930 . S
H845 C855 0.930 . S
C846 H840 0.925 1_556 S
C846 C847 1.336 1_556 S
C846 C848 1.438 . S
C847 C846 1.336 1_554 S
C847 C849 1.419 . S
C848 C846 1.438 . S
C848 C853 1.425 . S
C848 C855 1.409 . S
C849 H841 0.930 1_655 S
C849 C847 1.419 . S
C849 C850 1.362 1_654 S
C850 H842 0.930 . S
C850 C849 1.362 1_456 S
C850 C853 1.409 1_455 S
C851 H843 0.902 1_655 S
C851 C852 1.371 . S
C851 C853 1.426 . S
C852 C851 1.371 . S
C852 C854 1.419 . S
C853 C848 1.425 . S
C853 C850 1.409 1_655 S
C853 C851 1.426 . S
C854 H844 0.930 . S
C854 C852 1.419 . S
C854 C855 1.362 . S
C855 H845 0.930 . S
C855 C848 1.409 . S
C855 C854 1.362 . S
H856 C862 0.930 . S
H857 C865 0.930 . S
H858 C866 0.930 . S
H859 C867 0.930 . S
H860 C870 0.930 . S
H861 C871 0.930 . S
C862 H856 0.930 . S
C862 C863 1.355 . S
C862 C864 1.415 . S
C863 C862 1.355 . S
C863 C865 1.419 . S
C864 C862 1.415 . S
C864 C869 1.425 . S
C864 C871 1.409 . S
C865 H857 0.930 . S
C865 C863 1.419 . S
C865 C866 1.362 . S
C866 H858 0.930 . S
C866 C865 1.362 . S
C866 C869 1.409 . S
C867 H859 0.930 . S
C867 C868 1.355 . S
C867 C869 1.415 . S
C868 C867 1.355 . S
C868 C870 1.419 . S
C869 C864 1.425 . S
C869 C866 1.409 . S
C869 C867 1.415 . S
C870 H860 0.930 . S
C870 C868 1.419 . S
C870 C871 1.362 . S
C871 H861 0.930 . S
C871 C864 1.409 . S
C871 C870 1.362 . S
H872 C878 0.930 . S
H873 C881 0.930 1_655 S
H874 C882 0.950 . S
H875 C883 0.930 1_655 S
H876 C886 0.930 . S
H877 C887 0.930 . S
C878 H872 0.930 . S
C878 C879 1.355 . S
C878 C880 1.415 1_554 S
C879 C878 1.355 . S
C879 C881 1.419 1_554 S
C880 C878 1.415 1_556 S
C880 C885 1.425 . S
C880 C887 1.409 . S
C881 H873 0.930 1_455 S
C881 C879 1.419 1_556 S
C881 C882 1.356 1_455 S
C882 H874 0.950 . S
C882 C881 1.356 1_655 S
C882 C885 1.397 1_655 S
C883 H875 0.930 1_455 S
C883 C884 1.355 . S
C883 C885 1.415 . S
C884 C883 1.355 . S
C884 C886 1.419 . S
C885 C880 1.425 . S
C885 C882 1.397 1_455 S
C885 C883 1.415 . S
C886 H876 0.930 . S
C886 C884 1.419 . S
C886 C887 1.362 . S
C887 H877 0.930 . S
C887 C880 1.409 . S
C887 C886 1.362 . S
H888 C894 0.930 . S
H889 C897 0.930 . S
H890 C898 0.930 . S
H891 C899 0.930 . S
H892 C902 0.930 . S
H893 C903 0.930 . S
C894 H888 0.930 . S
C894 C895 1.355 . S
C894 C896 1.415 . S
C895 C894 1.355 . S
C895 C897 1.419 . S
C896 C894 1.415 . S
C896 C901 1.425 . S
C896 C903 1.409 . S
C897 H889 0.930 . S
C897 C895 1.419 . S
C897 C898 1.362 . S
C898 H890 0.930 . S
C898 C897 1.362 . S
C898 C901 1.409 . S
C899 H891 0.930 . S
C899 C900 1.355 . S
C899 C901 1.415 . S
C900 C899 1.355 . S
C900 C902 1.419 . S
C901 C896 1.425 . S
C901 C898 1.409 . S
C901 C899 1.415 . S
C902 H892 0.930 . S
C902 C900 1.419 . S
C902 C903 1.362 . S
C903 H893 0.930 . S
C903 C896 1.409 . S
C903 C902 1.362 . S
H904 C910 0.930 . S
H905 C913 0.930 . S
H906 C914 0.930 . S
H907 C915 0.930 . S
H908 C918 0.930 . S
H909 C919 0.930 . S
C910 H904 0.930 . S
C910 C911 1.355 1_554 S
C910 C912 1.415 . S
C911 C910 1.355 1_556 S
C911 C913 1.419 . S
C912 C910 1.415 . S
C912 C917 1.425 . S
C912 C919 1.409 . S
C913 H905 0.930 . S
C913 C911 1.419 . S
C913 C914 1.362 1_556 S
C914 H906 0.930 . S
C914 C913 1.362 1_554 S
C914 C917 1.409 . S
C915 H907 0.930 . S
C915 C916 1.355 . S
C915 C917 1.415 . S
C916 C915 1.355 . S
C916 C918 1.419 . S
C917 C912 1.425 . S
C917 C914 1.409 . S
C917 C915 1.415 . S
C918 H908 0.930 . S
C918 C916 1.419 . S
C918 C919 1.362 . S
C919 H909 0.930 . S
C919 C912 1.409 . S
C919 C918 1.362 . S
H920 C926 0.930 . S
H921 C929 0.930 . S
H922 C930 0.930 . S
H923 C931 0.930 . S
H924 C934 0.930 . S
H925 C935 0.930 . S
C926 H920 0.930 . S
C926 C927 1.355 . S
C926 C928 1.415 . S
C927 C926 1.355 . S
C927 C929 1.419 . S
C928 C926 1.415 . S
C928 C933 1.425 . S
C928 C935 1.409 . S
C929 H921 0.930 . S
C929 C927 1.419 . S
C929 C930 1.362 . S
C930 H922 0.930 . S
C930 C929 1.362 . S
C930 C933 1.409 . S
C931 H923 0.930 . S
C931 C932 1.355 . S
C931 C933 1.415 . S
C932 C931 1.355 . S
C932 C934 1.419 . S
C933 C928 1.425 . S
C933 C930 1.409 . S
C933 C931 1.415 . S
C934 H924 0.930 . S
C934 C932 1.419 . S
C934 C935 1.362 . S
C935 H925 0.930 . S
C935 C928 1.409 . S
C935 C934 1.362 . S
H936 C942 0.930 . S
H937 C945 0.930 . S
H938 C946 0.930 . S
H939 C947 0.930 . S
H940 C950 0.930 . S
H941 C951 0.930 . S
C942 H936 0.930 . S
C942 C943 1.355 1_554 S
C942 C944 1.415 . S
C943 C942 1.355 1_556 S
C943 C945 1.419 . S
C944 C942 1.415 . S
C944 C949 1.425 . S
C944 C951 1.409 . S
C945 H937 0.930 . S
C945 C943 1.419 . S
C945 C946 1.362 . S
C946 H938 0.930 . S
C946 C945 1.362 . S
C946 C949 1.409 1_556 S
C947 H939 0.930 . S
C947 C948 1.355 . S
C947 C949 1.415 . S
C948 C947 1.355 . S
C948 C950 1.419 . S
C949 C944 1.425 . S
C949 C946 1.409 1_554 S
C949 C947 1.415 . S
C950 H940 0.930 . S
C950 C948 1.419 . S
C950 C951 1.362 . S
C951 H941 0.930 . S
C951 C944 1.409 . S
C951 C950 1.362 . S
H952 C958 0.930 . S
H953 C961 0.930 . S
H954 C962 0.930 . S
H955 C963 0.930 . S
H956 C966 0.930 . S
H957 C967 0.930 . S
C958 H952 0.930 . S
C958 C959 1.355 . S
C958 C960 1.415 . S
C959 C958 1.355 . S
C959 C961 1.419 . S
C960 C958 1.415 . S
C960 C965 1.425 . S
C960 C967 1.409 . S
C961 H953 0.930 . S
C961 C959 1.419 . S
C961 C962 1.362 . S
C962 H954 0.930 . S
C962 C961 1.362 . S
C962 C965 1.409 . S
C963 H955 0.930 . S
C963 C964 1.355 . S
C963 C965 1.415 . S
C964 C963 1.355 . S
C964 C966 1.419 . S
C965 C960 1.425 . S
C965 C962 1.409 . S
C965 C963 1.415 . S
C966 H956 0.930 . S
C966 C964 1.419 . S
C966 C967 1.362 . S
C967 H957 0.930 . S
C967 C960 1.409 . S
C967 C966 1.362 . S
H968 C974 0.930 . S
H969 C977 0.930 . S
H970 C978 0.930 . S
H971 C979 0.930 . S
H972 C982 0.930 . S
H973 C983 0.930 . S
C974 H968 0.930 . S
C974 C975 1.355 . S
C974 C976 1.415 . S
C975 C974 1.355 . S
C975 C977 1.419 . S
C976 C974 1.415 . S
C976 C981 1.425 . S
C976 C983 1.409 . S
C977 H969 0.930 . S
C977 C975 1.419 . S
C977 C978 1.362 . S
C978 H970 0.930 . S
C978 C977 1.362 . S
C978 C981 1.409 . S
C979 H971 0.930 . S
C979 C980 1.355 . S
C979 C981 1.415 . S
C980 C979 1.355 . S
C980 C982 1.419 . S
C981 C976 1.425 . S
C981 C978 1.409 . S
C981 C979 1.415 . S
C982 H972 0.930 . S
C982 C980 1.419 . S
C982 C983 1.362 . S
C983 H973 0.930 . S
C983 C976 1.409 . S
C983 C982 1.362 . S
H984 C990 0.930 . S
H985 C993 0.930 . S
H986 C994 0.930 . S
H987 C995 0.930 . S
H988 C998 0.930 . S
H989 C999 0.930 . S
C990 H984 0.930 . S
C990 C991 1.355 . S
C990 C992 1.415 . S
C991 C990 1.355 . S
C991 C993 1.419 . S
C992 C990 1.415 . S
C992 C997 1.425 . S
C992 C999 1.409 . S
C993 H985 0.930 . S
C993 C991 1.419 . S
C993 C994 1.362 . S
C994 H986 0.930 . S
C994 C993 1.362 . S
C994 C997 1.409 . S
C995 H987 0.930 . S
C995 C996 1.355 . S
C995 C997 1.415 . S
C996 C995 1.355 . S
C996 C998 1.419 . S
C997 C992 1.425 . S
C997 C994 1.409 . S
C997 C995 1.415 . S
C998 H988 0.930 . S
C998 C996 1.419 . S
C998 C999 1.362 . S
C999 H989 0.930 . S
C999 C992 1.409 . S
C999 C998 1.362 . S
H1000 C1006 0.930 . S
H1001 C1009 0.930 . S
H1002 C1010 0.930 . S
H1003 C1011 0.930 . S
H1004 C1014 0.930 . S
H1005 C1015 0.930 . S
C1006 H1000 0.930 . S
C1006 C1007 1.355 . S
C1006 C1008 1.415 . S
C1007 C1006 1.355 . S
C1007 C1009 1.419 . S
C1008 C1006 1.415 . S
C1008 C1013 1.425 . S
C1008 C1015 1.409 . S
C1009 H1001 0.930 . S
C1009 C1007 1.419 . S
C1009 C1010 1.362 . S
C1010 H1002 0.930 . S
C1010 C1009 1.362 . S
C1010 C1013 1.409 . S
C1011 H1003 0.930 . S
C1011 C1012 1.355 . S
C1011 C1013 1.415 . S
C1012 C1011 1.355 . S
C1012 C1014 1.419 . S
C1013 C1008 1.425 . S
C1013 C1010 1.409 . S
C1013 C1011 1.415 . S
C1014 H1004 0.930 . S
C1014 C1012 1.419 . S
C1014 C1015 1.362 . S
C1015 H1005 0.930 . S
C1015 C1008 1.409 . S
C1015 C1014 1.362 . S
H1016 C1022 0.930 . S
H1017 C1025 0.930 . S
H1018 C1026 0.930 . S
H1019 C1027 0.930 . S
H1020 C1030 0.930 . S
H1021 C1031 0.930 . S
C1022 H1016 0.930 . S
C1022 C1023 1.355 . S
C1022 C1024 1.415 . S
C1023 C1022 1.355 . S
C1023 C1025 1.419 1_556 S
C1024 C1022 1.415 . S
C1024 C1029 1.425 . S
C1024 C1031 1.409 . S
C1025 H1017 0.930 . S
C1025 C1023 1.419 1_554 S
C1025 C1026 1.362 . S
C1026 H1018 0.930 . S
C1026 C1025 1.362 . S
C1026 C1029 1.409 1_554 S
C1027 H1019 0.930 . S
C1027 C1028 1.355 1_554 S
C1027 C1029 1.415 1_554 S
C1028 C1027 1.355 1_556 S
C1028 C1030 1.419 . S
C1029 C1024 1.425 . S
C1029 C1026 1.409 1_556 S
C1029 C1027 1.415 1_556 S
C1030 H1020 0.930 . S
C1030 C1028 1.419 . S
C1030 C1031 1.362 . S
C1031 H1021 0.930 . S
C1031 C1024 1.409 . S
C1031 C1030 1.362 . S
H1032 C1038 0.930 . S
H1033 C1041 0.930 . S
H1034 C1042 0.930 . S
H1035 C1043 0.930 . S
H1036 C1046 0.930 . S
H1037 C1047 0.930 . S
C1038 H1032 0.930 . S
C1038 C1039 1.355 . S
C1038 C1040 1.415 . S
C1039 C1038 1.355 . S
C1039 C1041 1.419 . S
C1040 C1038 1.415 . S
C1040 C1045 1.425 . S
C1040 C1047 1.409 . S
C1041 H1033 0.930 . S
C1041 C1039 1.419 . S
C1041 C1042 1.362 . S
C1042 H1034 0.930 . S
C1042 C1041 1.362 . S
C1042 C1045 1.409 . S
C1043 H1035 0.930 . S
C1043 C1044 1.355 . S
C1043 C1045 1.415 . S
C1044 C1043 1.355 . S
C1044 C1046 1.419 . S
C1045 C1040 1.425 . S
C1045 C1042 1.409 . S
C1045 C1043 1.415 . S
C1046 H1036 0.930 . S
C1046 C1044 1.419 . S
C1046 C1047 1.362 . S
C1047 H1037 0.930 . S
C1047 C1040 1.409 . S
C1047 C1046 1.362 . S
H1048 C1054 0.930 . S
H1049 C1057 0.930 . S
H1050 C1058 0.930 . S
H1051 C1059 0.930 . S
H1052 C1062 0.930 . S
H1053 C1063 0.930 . S
C1054 H1048 0.930 . S
C1054 C1055 1.355 . S
C1054 C1056 1.415 . S
C1055 C1054 1.355 . S
C1055 C1057 1.419 . S
C1056 C1054 1.415 . S
C1056 C1061 1.425 . S
C1056 C1063 1.409 . S
C1057 H1049 0.930 . S
C1057 C1055 1.419 . S
C1057 C1058 1.362 . S
C1058 H1050 0.930 . S
C1058 C1057 1.362 . S
C1058 C1061 1.409 . S
C1059 H1051 0.930 . S
C1059 C1060 1.355 . S
C1059 C1061 1.415 . S
C1060 C1059 1.355 . S
C1060 C1062 1.419 . S
C1061 C1056 1.425 . S
C1061 C1058 1.409 . S
C1061 C1059 1.415 . S
C1062 H1052 0.930 . S
C1062 C1060 1.419 . S
C1062 C1063 1.362 . S
C1063 H1053 0.930 . S
C1063 C1056 1.409 . S
C1063 C1062 1.362 . S
H1064 C1070 0.930 . S
H1065 C1073 0.930 . S
H1066 C1074 0.930 . S
H1067 C1075 0.930 . S
H1068 C1078 0.930 . S
H1069 C1079 0.930 1_545 S
C1070 H1064 0.930 . S
C1070 C1071 1.364 . S
C1070 C1072 1.415 1_545 S
C1071 C1070 1.364 . S
C1071 C1073 1.383 1_545 S
C1072 C1070 1.415 1_565 S
C1072 C1077 1.425 . S
C1072 C1079 1.409 . S
C1073 H1065 0.930 . S
C1073 C1071 1.383 1_565 S
C1073 C1074 1.362 . S
C1074 H1066 0.930 . S
C1074 C1073 1.362 . S
C1074 C1077 1.409 . S
C1075 H1067 0.930 . S
C1075 C1076 1.355 . S
C1075 C1077 1.415 . S
C1076 C1075 1.355 . S
C1076 C1078 1.419 . S
C1077 C1072 1.425 . S
C1077 C1074 1.409 . S
C1077 C1075 1.415 . S
C1078 H1068 0.930 . S
C1078 C1076 1.419 . S
C1078 C1079 1.362 . S
C1079 H1069 0.930 1_565 S
C1079 C1072 1.409 . S
C1079 C1078 1.362 . S
C324 C152 1.497 . S
C319 C50 1.507 . S
C340 C165 1.464 . S
C335 C61 1.482 . S
C351 C67 1.603 . S
C356 C185 1.540 . S
C372 C199 1.409 . S
C367 C41 1.442 . S
C388 C211 1.503 . S
C383 C95 1.495 . S
C404 C225 1.449 . S
C399 C113 1.451 . S
C415 C106 1.474 . S
C420 C235 1.469 . S
C436 C250 1.517 . S
C431 C86 1.528 . S
C447 C104 1.504 . S
C452 C264 1.449 . S
C468 C283 1.335 . S
C463 C88 1.458 . S
C479 C94 1.498 . S
C484 C263 1.492 . S
C500 C281 1.434 . S
C495 C112 1.432 . S
C511 C70 1.599 . S
C516 C297 1.508 . S
C527 C40 1.491 . S
C532 C291 1.470 . S
C543 C49 1.507 . S
C548 C295 1.489 . S
C559 C59 1.535 . S
C564 C292 1.529 . S
C575 C34 1.499 . S
C580 C194 1.498 . S
C591 C133 1.480 . S
C596 C193 1.473 . S
C612 C157 1.423 . S
C607 C139 1.448 . S
C628 C171 1.472 . S
C623 C77 1.594 . S
C639 C43 1.515 . S
C644 C208 1.479 . S
C660 C253 1.508 . S
C655 C103 1.501 . S
C676 C207 1.494 . S
C671 C85 1.489 1_545 S
C692 C239 1.430 . S
C687 C115 1.436 . S
C708 C236 1.459 . S
C703 C131 1.512 . S
C719 C142 1.475 . S
C724 C249 1.467 . S
C735 C76 1.593 . S
C740 C213 1.465 . S
C756 C227 1.404 . S
C751 C122 1.442 . S
C767 C32 1.501 . S
C772 C183 1.499 . S
C788 C197 1.436 . S
C783 C5 1.444 . S
C804 C151 1.456 . S
C799 C16 1.475 . S
C820 C166 1.521 . S
C815 C23 1.540 . S
C831 C14 1.501 . S
C836 C278 1.481 . S
C847 C25 1.450 . S
C852 C269 1.370 . S
C863 C31 1.498 . S
C868 C277 1.502 . S
C879 C4 1.442 . S
C884 C267 1.430 . S
C900 C311 1.523 . S
C895 C79 1.598 . S
C916 C305 1.468 . S
C911 C121 1.491 . S
C932 C309 1.498 . S
C927 C130 1.506 . S
C943 C140 1.537 . S
C948 C306 1.520 . S
C959 C97 1.496 . S
C964 C222 1.478 . S
C980 C221 1.461 . S
C975 C52 1.481 . S
C996 C241 1.417 . S
C991 C58 1.448 . S
C1012 C255 1.540 . S
C1007 C68 1.605 . S
C1023 C124 1.524 . S
C1028 C180 1.466 . S
C1044 C169 1.489 . S
C1039 C13 1.506 . S
C1055 C22 1.501 . S
C1060 C179 1.490 . S
C1076 C155 1.432 . S
C1071 C7 1.462 . S
