# Generated by pormake.
# Topology rtl, (3,6)-cn, num edge types: 1
# Building blocks:
#     Node 0, Type 0, BuildingBlock: PAMTOO_clean_linker_0, # of connection points: 3
#     Node 1, Type 0, BuildingBlock: PAMTOO_clean_linker_0, # of connection points: 3
#     Node 2, Type 0, BuildingBlock: PAMTOO_clean_linker_0, # of connection points: 3
#     Node 3, Type 0, BuildingBlock: PAMTOO_clean_linker_0, # of connection points: 3
#     Node 4, Type 1, BuildingBlock: CIFDUS_clean_sbu_1, # of connection points: 6
#     Node 5, Type 1, BuildingBlock: CIFDUS_clean_sbu_1, # of connection points: 6
#     Edge 6, Type (0, 1), BuildingBlock: TEMPAE_clean_linker_10, # of connection points: 2
#     Edge 7, Type (0, 1), BuildingBlock: TEMPAE_clean_linker_10, # of connection points: 2
#     Edge 8, Type (0, 1), BuildingBlock: TEMPAE_clean_linker_10, # of connection points: 2
#     Edge 9, Type (0, 1), BuildingBlock: TEMPAE_clean_linker_10, # of connection points: 2
#     Edge 10, Type (0, 1), BuildingBlock: TEMPAE_clean_linker_10, # of connection points: 2
#     Edge 11, Type (0, 1), BuildingBlock: TEMPAE_clean_linker_10, # of connection points: 2
#     Edge 12, Type (0, 1), BuildingBlock: TEMPAE_clean_linker_10, # of connection points: 2
#     Edge 13, Type (0, 1), BuildingBlock: TEMPAE_clean_linker_10, # of connection points: 2
#     Edge 14, Type (0, 1), BuildingBlock: TEMPAE_clean_linker_10, # of connection points: 2
#     Edge 15, Type (0, 1), BuildingBlock: TEMPAE_clean_linker_10, # of connection points: 2
#     Edge 16, Type (0, 1), BuildingBlock: TEMPAE_clean_linker_10, # of connection points: 2
#     Edge 17, Type (0, 1), BuildingBlock: TEMPAE_clean_linker_10, # of connection points: 2
# Relax obj value: 0.021
# Max RMSD: 0.114
# Mean RMSD: 0.090
data_MOF--net-rtl--node1-CIFDUS_clean_sbu_1--node2-PAMTOO_clean_linker_0--edge1-TEMPAE_clean_linker_10
_symmetry_space_group_name_H-M    P1
_symmetry_Int_Tables_number       1
_symmetry_cell_setting            triclinic
loop_
_symmetry_equiv_pos_as_xyz
'x, y, z'
_cell_length_a     35.850238
_cell_length_b     35.825066
_cell_length_c     22.527926
_cell_angle_alpha  91.432057
_cell_angle_beta   98.312866
_cell_angle_gamma 90.177898
loop_
_atom_site_label
_atom_site_type_symbol
_atom_site_fract_x
_atom_site_fract_y
_atom_site_fract_z
_atom_type_partial_charge
H0 H 0.15798 0.90692 0.07118 0.0
H1 H 0.24093 0.8403 0.17678 0.0
H2 H 0.22795 0.83127 0.98443 0.0
H3 H 0.23955 0.75856 0.05482 0.0
C4 C 0.25931 0.77009 0.09364 0.0
O5 O 0.26588 0.80751 0.08522 0.0
H6 H 0.24558 0.76695 0.13453 0.0
C7 C 0.1806 0.88677 0.07347 0.0
C8 C 0.19062 0.87079 0.02017 0.0
C9 C 0.19839 0.87573 0.12999 0.0
C10 C 0.22706 0.84899 0.13341 0.0
C11 C 0.23773 0.83299 0.08104 0.0
C12 C 0.21936 0.84369 0.02461 0.0
H13 H 0.6452 0.64951 0.56424 0.0
H14 H 0.71386 0.72942 0.48923 0.0
H15 H 0.72643 0.71706 0.68044 0.0
H16 H 0.73052 0.79457 0.64371 0.0
C17 C 0.7428 0.79083 0.60133 0.0
O18 O 0.75052 0.75334 0.59313 0.0
H19 H 0.72161 0.80014 0.56366 0.0
C20 C 0.66711 0.67078 0.57054 0.0
C21 C 0.68467 0.68066 0.62894 0.0
C22 C 0.6773 0.68824 0.51999 0.0
C23 C 0.70555 0.71599 0.52789 0.0
C24 C 0.72301 0.72669 0.58581 0.0
C25 C 0.71251 0.70899 0.63603 0.0
H26 H 0.89185 0.15971 0.01759 0.0
H27 H 0.80952 0.22273 0.90172 0.0
H28 H 0.82071 0.23874 0.09242 0.0
H29 H 0.74138 0.24346 0.01952 0.0
C30 C 0.74955 0.25718 0.97952 0.0
O31 O 0.78815 0.26292 0.98779 0.0
H32 H 0.74161 0.23832 0.93963 0.0
C33 C 0.86922 0.17976 0.01065 0.0
C34 C 0.85772 0.19726 0.06154 0.0
C35 C 0.85178 0.18769 0.95193 0.0
C36 C 0.82379 0.21556 0.94552 0.0
C37 C 0.81316 0.23443 0.99573 0.0
C38 C 0.82946 0.22458 0.05372 0.0
H39 H 0.37685 0.39502 0.48981 0.0
H40 H 0.30539 0.32013 0.57082 0.0
H41 H 0.29584 0.32514 0.3789 0.0
H42 H 0.2237 0.31198 0.42013 0.0
C43 C 0.23316 0.29844 0.4636 0.0
O44 O 0.27143 0.29155 0.46884 0.0
H45 H 0.2274 0.31827 0.49999 0.0
C46 C 0.35448 0.37429 0.48594 0.0
C47 C 0.3374 0.36237 0.42848 0.0
C48 C 0.34312 0.35969 0.5381 0.0
C49 C 0.31469 0.33191 0.5316 0.0
C50 C 0.29767 0.31939 0.47437 0.0
C51 C 0.30888 0.33493 0.42297 0.0
O52 O 0.99141 0.05649 0.46435 0.0
Mn53 Mn 0.01552 0.0222 0.53577 0.0
O54 O 0.96132 0.01586 0.39655 0.0
Mn55 Mn 0.97338 0.97419 0.44106 0.0
O56 O 0.04042 0.98738 0.60698 0.0
O57 O 0.05941 0.05966 0.55493 0.0
Mn58 Mn 0.06821 0.06293 0.63428 0.0
O59 O 0.98249 0.05014 0.59334 0.0
O60 O 0.09112 0.01852 0.65439 0.0
O61 O 0.0504 0.99597 0.47854 0.0
O62 O 0.01656 0.95093 0.42685 0.0
O63 O 0.08821 0.10528 0.60869 0.0
O64 O 0.02532 0.07223 0.66812 0.0
C65 C 0.94344 0.95856 0.50763 0.0
C66 C 0.97168 0.04894 0.41275 0.0
C67 C 0.07174 0.98867 0.64396 0.0
C68 C 0.07314 0.09348 0.55584 0.0
C69 C 0.99135 0.06767 0.644 0.0
C70 C 0.04755 0.96784 0.44165 0.0
O71 O 0.97131 0.98319 0.51868 0.0
O72 O 0.9355 0.94462 0.45356 0.0
O73 O 0.53653 0.55907 0.10058 0.0
Mn74 Mn 0.5092 0.52385 0.031 0.0
O75 O 0.54185 0.51796 0.17227 0.0
Mn76 Mn 0.53592 0.47791 0.11845 0.0
O77 O 0.48209 0.48818 0.96069 0.0
O78 O 0.46987 0.56541 0.01522 0.0
Mn79 Mn 0.45913 0.56586 0.9363 0.0
O80 O 0.54337 0.54734 0.97075 0.0
O81 O 0.43652 0.5215 0.90868 0.0
O82 O 0.47044 0.50358 0.0873 0.0
O83 O 0.4932 0.45001 0.11681 0.0
O84 O 0.43 0.60255 0.9607 0.0
O85 O 0.50201 0.57833 0.90546 0.0
C86 C 0.57563 0.45669 0.07324 0.0
C87 C 0.54444 0.55124 0.15613 0.0
C88 C 0.45289 0.49071 0.92029 0.0
C89 C 0.44511 0.59229 0.01347 0.0
C90 C 0.53543 0.56778 0.92396 0.0
C91 C 0.46554 0.47129 0.10834 0.0
O92 O 0.55128 0.48105 0.04568 0.0
O93 O 0.57585 0.45032 0.12965 0.0
C94 C 0.20004 0.24026 0.41476 0.0
C95 C 0.21092 0.26254 0.46655 0.0
C96 C 0.17659 0.20865 0.41588 0.0
C97 C 0.16382 0.19891 0.47016 0.0
C98 C 0.17602 0.22059 0.5231 0.0
C99 C 0.19943 0.25198 0.52065 0.0
C100 C 0.16459 0.18632 0.3586 0.0
C101 C 0.16371 0.21108 0.5823 0.0
C102 C 0.07425 0.1449 0.48551 0.0
C103 C 0.08891 0.11058 0.50598 0.0
C104 C 0.09784 0.1728 0.46765 0.0
C105 C 0.13722 0.16662 0.4722 0.0
C106 C 0.15139 0.13061 0.48688 0.0
C107 C 0.12688 0.10283 0.50227 0.0
C108 C 0.08114 0.21022 0.45012 0.0
C109 C 0.19309 0.12266 0.49374 0.0
H110 H 0.20916 0.24817 0.37297 0.0
H111 H 0.20808 0.2689 0.56089 0.0
H112 H 0.17061 0.15627 0.36559 0.0
H113 H 0.1337 0.18892 0.34529 0.0
H114 H 0.17901 0.19583 0.32117 0.0
H115 H 0.17708 0.22955 0.6198 0.0
H116 H 0.13266 0.21372 0.57903 0.0
H117 H 0.17088 0.1817 0.59325 0.0
H118 H 0.04518 0.15142 0.48949 0.0
H119 H 0.13861 0.07674 0.51969 0.0
H120 H 0.0933 0.22118 0.41139 0.0
H121 H 0.088 0.2305 0.48821 0.0
H122 H 0.04998 0.20859 0.4383 0.0
H123 H 0.20587 0.13419 0.45608 0.0
H124 H 0.19894 0.09225 0.49605 0.0
H125 H 0.20721 0.1364 0.53578 0.0
C126 C 0.31282 0.74046 0.04836 0.0
C127 C 0.29561 0.74805 0.09925 0.0
C128 C 0.34319 0.71553 0.05044 0.0
C129 C 0.35686 0.69778 0.10491 0.0
C130 C 0.34136 0.70755 0.15751 0.0
C131 C 0.31082 0.73246 0.15402 0.0
C132 C 0.3592 0.70657 0.99335 0.0
C133 C 0.3558 0.69035 0.21681 0.0
C134 C 0.39321 0.60179 0.07079 0.0
C135 C 0.43078 0.60987 0.0653 0.0
C136 C 0.36935 0.62949 0.08908 0.0
C137 C 0.3838 0.66592 0.10409 0.0
C138 C 0.42313 0.67242 0.10765 0.0
C139 C 0.44613 0.64438 0.08735 0.0
C140 C 0.32772 0.62101 0.08431 0.0
C141 C 0.44032 0.71013 0.12622 0.0
H142 H 0.30136 0.75283 0.00622 0.0
H143 H 0.2979 0.73866 0.19374 0.0
H144 H 0.39023 0.71055 0.00075 0.0
H145 H 0.35342 0.67686 0.97993 0.0
H146 H 0.34702 0.7243 0.95573 0.0
H147 H 0.34534 0.70526 0.25492 0.0
H148 H 0.34636 0.66081 0.21614 0.0
H149 H 0.38708 0.6905 0.22465 0.0
H150 H 0.38111 0.57535 0.05274 0.0
H151 H 0.47504 0.65101 0.08239 0.0
H152 H 0.31251 0.63495 0.04453 0.0
H153 H 0.31626 0.63201 0.12436 0.0
H154 H 0.32169 0.59056 0.07939 0.0
H155 H 0.4379 0.72814 0.0865 0.0
H156 H 0.47072 0.70765 0.14426 0.0
H157 H 0.42561 0.72417 0.1606 0.0
C158 C 0.80164 0.81099 0.55941 0.0
C159 C 0.77785 0.81514 0.60332 0.0
C160 C 0.83124 0.83653 0.55612 0.0
C161 C 0.83704 0.86743 0.59727 0.0
C162 C 0.81371 0.87113 0.64271 0.0
C163 C 0.78435 0.84517 0.64494 0.0
C164 C 0.8552 0.8314 0.50671 0.0
C165 C 0.81871 0.90345 0.68746 0.0
C166 C 0.92989 0.91964 0.59243 0.0
C167 C 0.91825 0.94701 0.55045 0.0
C168 C 0.90341 0.89526 0.61229 0.0
C169 C 0.86463 0.89773 0.58823 0.0
C170 C 0.85264 0.92747 0.54991 0.0
C171 C 0.8795 0.9519 0.53228 0.0
C172 C 0.91739 0.86489 0.65488 0.0
C173 C 0.8119 0.93122 0.52224 0.0
H174 H 0.79635 0.78832 0.52644 0.0
H175 H 0.76568 0.84899 0.67837 0.0
H176 H 0.8504 0.85487 0.47532 0.0
H177 H 0.88552 0.83181 0.52577 0.0
H178 H 0.84881 0.80477 0.48084 0.0
H179 H 0.80138 0.90009 0.72408 0.0
H180 H 0.84876 0.90643 0.70745 0.0
H181 H 0.81041 0.92977 0.66433 0.0
H182 H 0.9598 0.91503 0.60549 0.0
H183 H 0.87043 0.97245 0.4987 0.0
H184 H 0.91822 0.83811 0.62932 0.0
H185 H 0.89808 0.86106 0.68859 0.0
H186 H 0.94618 0.87112 0.67863 0.0
H187 H 0.80411 0.90766 0.48981 0.0
H188 H 0.80658 0.95778 0.49811 0.0
H189 H 0.79306 0.92983 0.55706 0.0
C190 C 0.74183 0.32719 0.99834 0.0
C191 C 0.72775 0.29345 0.97071 0.0
C192 C 0.71863 0.35883 -0.00064 0.0
C193 C 0.68006 0.35643 0.974 0.0
C194 C 0.66662 0.32335 0.94205 0.0
C195 C 0.69051 0.29232 0.94108 0.0
C196 C 0.73447 0.39362 0.03301 0.0
C197 C 0.62584 0.31921 0.91446 0.0
C198 C 0.61307 0.39882 0.07146 0.0
C199 C 0.60063 0.43181 0.0423 0.0
C200 C 0.63861 0.37475 0.04945 0.0
C201 C 0.65234 0.38297 0.99554 0.0
C202 C 0.63926 0.41553 0.96412 0.0
C203 C 0.61347 0.43974 0.98796 0.0
C204 C 0.65114 0.34046 0.08485 0.0
C205 C 0.65312 0.4252 0.90634 0.0
H206 H 0.77044 0.32841 0.02177 0.0
H207 H 0.67932 0.2663 0.92002 0.0
H208 H 0.7235 0.41901 0.0094 0.0
H209 H 0.72561 0.39454 0.07823 0.0
H210 H 0.76577 0.39426 0.03861 0.0
H211 H 0.62155 0.29544 0.8815 0.0
H212 H 0.6084 0.3141 0.95038 0.0
H213 H 0.6155 0.34512 0.89181 0.0
H214 H 0.60292 0.39149 0.11272 0.0
H215 H 0.6041 0.46499 0.96494 0.0
H216 H 0.68213 0.34128 0.09863 0.0
H217 H 0.64432 0.31485 0.05663 0.0
H218 H 0.63756 0.3381 0.12591 0.0
H219 H 0.6829 0.43472 0.91622 0.0
H220 H 0.6362 0.44773 0.88272 0.0
H221 H 0.65232 0.40027 0.87593 0.0
C222 C 0.18906 0.92847 0.20144 0.0
C223 C 0.18516 0.89049 0.18529 0.0
C224 C 0.17329 0.94325 0.25063 0.0
C225 C 0.15212 0.91966 0.28305 0.0
C226 C 0.14945 0.88096 0.26809 0.0
C227 C 0.16637 0.8668 0.21978 0.0
C228 C 0.17752 0.98445 0.26579 0.0
C229 C 0.12644 0.85491 0.30028 0.0
C230 C 0.11411 0.95095 0.42672 0.0
C231 C 0.07696 0.95992 0.40343 0.0
C232 C 0.13965 0.93881 0.38806 0.0
C233 C 0.12761 0.93608 0.32515 0.0
C234 C 0.09061 0.94701 0.3018 0.0
C235 C 0.06588 0.95861 0.34114 0.0
C236 C 0.17894 0.92762 0.41452 0.0
C237 C 0.07643 0.945 0.23524 0.0
H238 H 0.20384 0.9467 0.17484 0.0
H239 H 0.16328 0.83745 0.20697 0.0
H240 H 0.1503 0.99861 0.2518 0.0
H241 H 0.18498 0.98915 0.31495 0.0
H242 H 0.19942 0.99769 0.24291 0.0
H243 H 0.13037 0.82516 0.28763 0.0
H244 H 0.13408 0.85854 0.34958 0.0
H245 H 0.0961 0.86172 0.28904 0.0
H246 H 0.12264 0.95191 0.47491 0.0
H247 H 0.03723 0.96602 0.32308 0.0
H248 H 0.20007 0.94155 0.39099 0.0
H249 H 0.18227 0.89707 0.40815 0.0
H250 H 0.18517 0.93472 0.46325 0.0
H251 H 0.09531 0.96117 0.2104 0.0
H252 H 0.04738 0.95601 0.22433 0.0
H253 H 0.07655 0.91558 0.21862 0.0
C254 C 0.66484 0.68255 0.73195 0.0
C255 C 0.67309 0.66171 0.68194 0.0
C256 C 0.64911 0.66546 0.77841 0.0
C257 C 0.64172 0.62646 0.77527 0.0
C258 C 0.65265 0.60495 0.72707 0.0
C259 C 0.66789 0.6228 0.68094 0.0
C260 C 0.6376 0.68968 0.82835 0.0
C261 C 0.64571 0.56334 0.72184 0.0
C262 C 0.60352 0.57925 0.90641 0.0
C263 C 0.56452 0.58026 0.88694 0.0
C264 C 0.62938 0.59383 0.87065 0.0
C265 C 0.61587 0.60979 0.81445 0.0
C266 C 0.57668 0.61008 0.79445 0.0
C267 C 0.55186 0.59523 0.83033 0.0
C268 C 0.67102 0.5926 0.89317 0.0
C269 C 0.5606 0.6266 0.73506 0.0
H270 H 0.66867 0.7126 0.73316 0.0
H271 H 0.67484 0.60634 0.64305 0.0
H272 H 0.60645 0.69242 0.82171 0.0
H273 H 0.64602 0.67673 0.87243 0.0
H274 H 0.65024 0.7181 0.82965 0.0
H275 H 0.66147 0.54981 0.68824 0.0
H276 H 0.65392 0.55016 0.7658 0.0
H277 H 0.61519 0.55783 0.70788 0.0
H278 H 0.61375 0.56775 0.94973 0.0
H279 H 0.52197 0.59579 0.8136 0.0
H280 H 0.68246 0.62144 0.89999 0.0
H281 H 0.68607 0.57851 0.85924 0.0
H282 H 0.67724 0.57773 0.93614 0.0
H283 H 0.56918 0.65634 0.73421 0.0
H284 H 0.52933 0.625 0.72633 0.0
H285 H 0.57186 0.61169 0.69779 0.0
C286 C 0.85309 0.16711 0.15953 0.0
C287 C 0.87493 0.18562 0.12246 0.0
C288 C 0.86999 0.15015 0.21247 0.0
C289 C 0.90967 0.15236 0.22947 0.0
C290 C 0.93143 0.17331 0.19413 0.0
C291 C 0.9139 0.18918 0.14068 0.0
C292 C 0.84567 0.12748 0.2477 0.0
C293 C 0.97361 0.17697 0.2107 0.0
C294 C 0.95153 0.11481 0.38335 0.0
C295 C 0.96042 0.07812 0.36759 0.0
C296 C 0.93567 0.13982 0.33896 0.0
C297 C 0.92879 0.12784 0.27766 0.0
C298 C 0.93934 0.09134 0.26172 0.0
C299 C 0.955 0.06722 0.30652 0.0
C300 C 0.9252 0.17861 0.35776 0.0
C301 C 0.93293 0.07709 0.19727 0.0
H302 H 0.82302 0.16399 0.14523 0.0
H303 H 0.93085 0.2035 0.11207 0.0
H304 H 0.85156 0.09735 0.24147 0.0
H305 H 0.85236 0.13441 0.29634 0.0
H306 H 0.81512 0.13213 0.23313 0.0
H307 H 0.98553 0.1989 0.18476 0.0
H308 H 0.98117 0.1837 0.25931 0.0
H309 H 0.98706 0.14999 0.2015 0.0
H310 H 0.95551 0.12347 0.43029 0.0
H311 H 0.96231 0.03912 0.29358 0.0
H312 H 0.89414 0.18182 0.34881 0.0
H313 H 0.93766 0.19965 0.33096 0.0
H314 H 0.9348 0.18467 0.40617 0.0
H315 H 0.90236 0.0774 0.1798 0.0
H316 H 0.94344 0.04821 0.19224 0.0
H317 H 0.94728 0.09558 0.16878 0.0
C318 C 0.36979 0.3496 0.64681 0.0
C319 C 0.36082 0.3739 0.59886 0.0
C320 C 0.38656 0.36296 0.70391 0.0
C321 C 0.39471 0.40156 0.71352 0.0
C322 C 0.38594 0.42615 0.66523 0.0
C323 C 0.36905 0.41211 0.60886 0.0
C324 C 0.39529 0.33585 0.75414 0.0
C325 C 0.39397 0.46753 0.67324 0.0
C326 C 0.40097 0.45224 0.86476 0.0
C327 C 0.43981 0.45902 0.87907 0.0
C328 C 0.38616 0.43104 0.81339 0.0
C329 C 0.41072 0.41692 0.7744 0.0
C330 C 0.45025 0.42155 0.79085 0.0
C331 C 0.46436 0.44236 0.84334 0.0
C332 C 0.34395 0.42641 0.79843 0.0
C333 C 0.47747 0.40735 0.75046 0.0
H334 H 0.36404 0.32 0.63958 0.0
H335 H 0.36172 0.43131 0.57267 0.0
H336 H 0.4257 0.33735 0.77254 0.0
H337 H 0.37935 0.34355 0.7913 0.0
H338 H 0.38803 0.3066 0.73924 0.0
H339 H 0.38692 0.48268 0.63068 0.0
H340 H 0.37736 0.47971 0.70679 0.0
H341 H 0.4242 0.47238 0.69061 0.0
H342 H 0.38191 0.46547 0.892 0.0
H343 H 0.49432 0.44827 0.85351 0.0
H344 H 0.33646 0.39711 0.78446 0.0
H345 H 0.33333 0.44433 0.76026 0.0
H346 H 0.32925 0.43432 0.83701 0.0
H347 H 0.47053 0.37813 0.7353 0.0
H348 H 0.50713 0.40865 0.77306 0.0
H349 H 0.47509 0.42459 0.70984 0.0
C350 C 0.67628 0.65157 0.42379 0.0
C351 C 0.65853 0.67663 0.45913 0.0
C352 C 0.657 0.63634 0.36963 0.0
C353 C 0.61914 0.64678 0.34993 0.0
C354 C 0.60189 0.67374 0.3841 0.0
C355 C 0.62163 0.68799 0.43865 0.0
C356 C 0.67638 0.60729 0.33546 0.0
C357 C 0.56188 0.6861 0.36468 0.0
C358 C 0.57651 0.61286 0.19143 0.0
C359 C 0.55897 0.57945 0.20385 0.0
C360 C 0.59507 0.63605 0.23847 0.0
C361 C 0.59621 0.62545 0.29908 0.0
C362 C 0.57687 0.59274 0.31157 0.0
C363 C 0.55845 0.57048 0.26415 0.0
C364 C 0.61463 0.67112 0.22328 0.0
C365 C 0.57703 0.58015 0.37517 0.0
H366 H 0.70472 0.64261 0.43993 0.0
H367 H 0.6079 0.70735 0.46614 0.0
H368 H 0.66258 0.57973 0.33821 0.0
H369 H 0.67369 0.6142 0.28733 0.0
H370 H 0.70677 0.60473 0.35345 0.0
H371 H 0.55468 0.71125 0.39044 0.0
H372 H 0.55733 0.69225 0.31615 0.0
H373 H 0.54212 0.66326 0.37167 0.0
H374 H 0.57705 0.62013 0.14514 0.0
H375 H 0.54449 0.54507 0.27457 0.0
H376 H 0.6456 0.66768 0.23397 0.0
H377 H 0.60674 0.69515 0.25082 0.0
H378 H 0.60763 0.67777 0.17506 0.0
H379 H 0.60633 0.57401 0.39572 0.0
H380 H 0.55948 0.55475 0.37739 0.0
H381 H 0.56639 0.60267 0.4028 0.0
C382 C 0.85946 0.1837 0.84128 0.0
C383 C 0.8632 0.16724 0.89802 0.0
C384 C 0.87218 0.16561 0.79181 0.0
C385 C 0.89106 0.13105 0.79944 0.0
C386 C 0.89373 0.11355 0.85553 0.0
C387 C 0.87887 0.13125 0.90328 0.0
C388 C 0.86729 0.18462 0.73216 0.0
C389 C 0.9147 0.0773 0.86656 0.0
C390 C 0.92535 0.07287 0.67269 0.0
C391 C 0.9627 0.08562 0.67692 0.0
C392 C 0.90077 0.0884 0.71047 0.0
C393 C 0.91414 0.11687 0.75349 0.0
C394 C 0.95124 0.13079 0.75562 0.0
C395 C 0.97465 0.11539 0.71713 0.0
C396 C 0.86095 0.07373 0.70547 0.0
C397 C 0.96706 0.16096 0.80055 0.0
H398 H 0.84785 0.21141 0.83536 0.0
H399 H 0.88056 0.11694 0.94529 0.0
H400 H 0.89414 0.19831 0.7257 0.0
H401 H 0.85987 0.164 0.69468 0.0
H402 H 0.84505 0.2063 0.72956 0.0
H403 H 0.9122 0.06599 0.91129 0.0
H404 H 0.90406 0.05603 0.83159 0.0
H405 H 0.94505 0.0819 0.86384 0.0
H406 H 0.91575 0.05013 0.64153 0.0
H407 H 0.00311 0.12627 0.71983 0.0
H408 H 0.84076 0.09722 0.70448 0.0
H409 H 0.85783 0.0571 0.74534 0.0
H410 H 0.85322 0.05571 0.66466 0.0
H411 H 0.94985 0.18658 0.79416 0.0
H412 H 0.99671 0.16836 0.79664 0.0
H413 H 0.966 0.15155 0.84685 0.0
C414 C 0.3871 0.37163 0.36301 0.0
C415 C 0.35036 0.37836 0.37468 0.0
C416 C 0.40099 0.38845 0.3148 0.0
C417 C 0.37784 0.41331 0.27793 0.0
C418 C 0.34051 0.41992 0.28932 0.0
C419 C 0.3271 0.40211 0.33731 0.0
C420 C 0.44074 0.38005 0.30398 0.0
C421 C 0.31506 0.44639 0.25159 0.0
C422 C 0.43336 0.48201 0.19749 0.0
C423 C 0.43438 0.4632 0.14248 0.0
C424 C 0.41342 0.46708 0.24099 0.0
C425 C 0.3934 0.43288 0.22867 0.0
C426 C 0.39192 0.41546 0.17115 0.0
C427 C 0.41299 0.43047 0.12919 0.0
C428 C 0.41648 0.48629 0.30191 0.0
C429 C 0.37041 0.37944 0.15547 0.0
H430 H 0.40505 0.35327 0.392 0.0
H431 H 0.29879 0.40756 0.34676 0.0
H432 H 0.44063 0.36924 0.25737 0.0
H433 H 0.45789 0.40607 0.3092 0.0
H434 H 0.45462 0.35918 0.3354 0.0
H435 H 0.28648 0.44778 0.26508 0.0
H436 H 0.32763 0.47484 0.25569 0.0
H437 H 0.31234 0.4376 0.20357 0.0
H438 H 0.45085 0.50668 0.20856 0.0
H439 H 0.41446 0.41547 0.08719 0.0
H440 H 0.43373 0.46902 0.33563 0.0
H441 H 0.38822 0.48925 0.316 0.0
H442 H 0.42981 0.51436 0.30253 0.0
H443 H 0.3854 0.3563 0.18046 0.0
H444 H 0.36752 0.3724 0.1067 0.0
H445 H 0.34187 0.3812 0.16889 0.0
C446 C 0.15914 0.85613 0.9142 0.0
C447 C 0.17085 0.88252 0.96041 0.0
C448 C 0.14 0.86707 0.8582 0.0
C449 C 0.13262 0.90537 0.84773 0.0
C450 C 0.14424 0.93207 0.89434 0.0
C451 C 0.16306 0.92036 0.94985 0.0
C452 C 0.12793 0.83768 0.81007 0.0
C453 C 0.13736 0.97325 0.88528 0.0
C454 C 0.12255 0.9487 0.69413 0.0
C455 C 0.08407 0.95741 0.68389 0.0
C456 C 0.13817 0.92907 0.7449 0.0
C457 C 0.11488 0.91825 0.78729 0.0
C458 C 0.07541 0.92431 0.77466 0.0
C459 C 0.06042 0.94372 0.72287 0.0
C460 C 0.18023 0.92292 0.75573 0.0
C461 C 0.04946 0.9132 0.81833 0.0
H462 H 0.16454 0.82679 0.92209 0.0
H463 H 0.1723 0.94105 0.98486 0.0
H464 H 0.09727 0.83989 0.79421 0.0
H465 H 0.14272 0.84227 0.77086 0.0
H466 H 0.13405 0.80896 0.82609 0.0
H467 H 0.14696 0.99033 0.92653 0.0
H468 H 0.15247 0.98302 0.84884 0.0
H469 H 0.10688 0.97831 0.87129 0.0
H470 H 0.14097 0.95957 0.66436 0.0
H471 H 0.0308 0.95099 0.71581 0.0
H472 H 0.18669 0.89393 0.76982 0.0
H473 H 0.19326 0.94199 0.79259 0.0
H474 H 0.19354 0.92831 0.71516 0.0
H475 H 0.05576 0.88451 0.83415 0.0
H476 H 0.01932 0.91452 0.7982 0.0
H477 H 0.05395 0.93235 0.85823 0.0
loop_
_geom_bond_atom_site_label_1
_geom_bond_atom_site_label_2
_geom_bond_distance
_geom_bond_site_symmetry_2
_ccdc_geom_bond_type
H0 C7 0.929 . S
H1 C10 0.930 . S
H2 C12 0.929 1_556 S
H3 C4 0.969 . S
C4 H3 0.969 . S
C4 O5 1.550 . S
C4 H6 0.973 . S
O5 C4 1.550 . S
O5 C11 1.412 . S
H6 C4 0.973 . S
C7 H0 0.929 . S
C7 C8 1.400 . S
C7 C9 1.364 . S
C8 C7 1.400 . S
C8 C12 1.377 . S
C9 C7 1.364 . S
C9 C10 1.374 . S
C10 H1 0.930 . S
C10 C9 1.374 . S
C10 C11 1.383 . S
C11 O5 1.412 . S
C11 C10 1.383 . S
C11 C12 1.394 . S
C12 H2 0.929 1_554 S
C12 C8 1.377 . S
C12 C11 1.394 . S
H13 C20 0.929 . S
H14 C23 0.930 . S
H15 C25 0.929 . S
H16 C17 0.969 . S
C17 H16 0.969 . S
C17 O18 1.550 . S
C17 H19 0.973 . S
O18 C17 1.550 . S
O18 C24 1.412 . S
H19 C17 0.973 . S
C20 H13 0.929 . S
C20 C21 1.400 . S
C20 C22 1.364 . S
C21 C20 1.400 . S
C21 C25 1.377 . S
C22 C20 1.364 . S
C22 C23 1.374 . S
C23 H14 0.930 . S
C23 C22 1.374 . S
C23 C24 1.383 . S
C24 O18 1.412 . S
C24 C23 1.383 . S
C24 C25 1.394 . S
C25 H15 0.929 . S
C25 C21 1.377 . S
C25 C24 1.394 . S
H26 C33 0.929 . S
H27 C36 0.930 . S
H28 C38 0.929 . S
H29 C30 0.969 . S
C30 H29 0.969 . S
C30 O31 1.550 1_556 S
C30 H32 0.973 . S
O31 C30 1.550 1_554 S
O31 C37 1.412 . S
H32 C30 0.973 . S
C33 H26 0.929 . S
C33 C34 1.400 . S
C33 C35 1.364 1_554 S
C34 C33 1.400 . S
C34 C38 1.377 . S
C35 C33 1.364 1_556 S
C35 C36 1.374 . S
C36 H27 0.930 . S
C36 C35 1.374 . S
C36 C37 1.383 1_556 S
C37 O31 1.412 . S
C37 C36 1.383 1_554 S
C37 C38 1.394 . S
C38 H28 0.929 . S
C38 C34 1.377 . S
C38 C37 1.394 . S
H39 C46 0.929 . S
H40 C49 0.930 . S
H41 C51 0.929 . S
H42 C43 0.969 . S
C43 H42 0.969 . S
C43 O44 1.550 . S
C43 H45 0.973 . S
O44 C43 1.550 . S
O44 C50 1.412 . S
H45 C43 0.973 . S
C46 H39 0.929 . S
C46 C47 1.400 . S
C46 C48 1.364 . S
C47 C46 1.400 . S
C47 C51 1.377 . S
C48 C46 1.364 . S
C48 C49 1.374 . S
C49 H40 0.930 . S
C49 C48 1.374 . S
C49 C50 1.383 . S
C50 O44 1.412 . S
C50 C49 1.383 . S
C50 C51 1.394 . S
C51 H41 0.929 . S
C51 C47 1.377 . S
C51 C50 1.394 . S
O52 Mn53 2.163 1_655 S
O52 C66 1.244 . S
Mn53 O52 2.163 1_455 S
Mn53 O56 2.160 1_545 S
Mn53 O57 2.221 . S
Mn53 O59 2.163 1_455 S
Mn53 O61 2.160 1_545 S
Mn53 O71 2.221 1_445 S
O54 Mn55 2.087 1_545 S
O54 C66 1.256 . S
Mn55 O54 2.087 1_565 S
Mn55 O62 2.089 1_655 S
Mn55 O71 2.290 . S
Mn55 O72 2.251 . S
O56 Mn53 2.160 1_565 S
O56 C67 1.239 . S
O57 Mn53 2.221 . S
O57 Mn58 2.290 . S
O57 C68 1.278 . S
Mn58 O57 2.290 . S
Mn58 O60 2.089 . S
Mn58 O63 2.251 . S
Mn58 O64 2.087 . S
O59 Mn53 2.163 1_655 S
O59 C69 1.244 . S
O60 Mn58 2.089 . S
O60 C67 1.256 1_545 S
O61 Mn53 2.160 1_565 S
O61 C70 1.239 . S
O62 Mn55 2.089 1_455 S
O62 C70 1.256 . S
O63 Mn58 2.251 . S
O63 C68 1.241 . S
O64 Mn58 2.087 . S
O64 C69 1.256 1_455 S
C65 O71 1.278 . S
C65 O72 1.241 . S
C66 O52 1.244 . S
C66 O54 1.256 . S
C67 O56 1.239 . S
C67 O60 1.256 1_565 S
C68 O57 1.278 . S
C68 O63 1.241 . S
C69 O59 1.244 . S
C69 O64 1.256 1_655 S
C70 O61 1.239 . S
C70 O62 1.256 . S
O71 Mn53 2.221 1_665 S
O71 Mn55 2.290 . S
O71 C65 1.278 . S
O72 Mn55 2.251 . S
O72 C65 1.241 . S
O73 Mn74 2.163 . S
O73 C87 1.244 . S
Mn74 O73 2.163 . S
Mn74 O77 2.160 1_554 S
Mn74 O78 2.221 . S
Mn74 O80 2.163 1_554 S
Mn74 O82 2.160 . S
Mn74 O92 2.221 . S
O75 Mn76 2.087 . S
O75 C87 1.256 . S
Mn76 O75 2.087 . S
Mn76 O83 2.089 . S
Mn76 O92 2.290 . S
Mn76 O93 2.251 . S
O77 Mn74 2.160 1_556 S
O77 C88 1.239 . S
O78 Mn74 2.221 . S
O78 Mn79 2.290 1_554 S
O78 C89 1.278 . S
Mn79 O78 2.290 1_556 S
Mn79 O81 2.089 . S
Mn79 O84 2.251 . S
Mn79 O85 2.087 . S
O80 Mn74 2.163 1_556 S
O80 C90 1.244 . S
O81 Mn79 2.089 . S
O81 C88 1.256 . S
O82 Mn74 2.160 . S
O82 C91 1.239 . S
O83 Mn76 2.089 . S
O83 C91 1.256 . S
O84 Mn79 2.251 . S
O84 C89 1.241 1_556 S
O85 Mn79 2.087 . S
O85 C90 1.256 . S
C86 O92 1.278 . S
C86 O93 1.241 . S
C87 O73 1.244 . S
C87 O75 1.256 . S
C88 O77 1.239 . S
C88 O81 1.256 . S
C89 O78 1.278 . S
C89 O84 1.241 1_554 S
C90 O80 1.244 . S
C90 O85 1.256 . S
C91 O82 1.239 . S
C91 O83 1.256 . S
O92 Mn74 2.221 . S
O92 Mn76 2.290 . S
O92 C86 1.278 . S
O93 Mn76 2.251 . S
O93 C86 1.241 . S
C94 C95 1.391 . S
C94 C96 1.394 . S
C94 H110 0.931 . S
C95 C94 1.391 . S
C95 C99 1.376 . S
C96 C94 1.394 . S
C96 C97 1.369 . S
C96 C100 1.531 . S
C97 C96 1.369 . S
C97 C98 1.410 . S
C97 C105 1.503 . S
C98 C97 1.410 . S
C98 C99 1.392 . S
C98 C101 1.511 . S
C99 C95 1.376 . S
C99 C98 1.392 . S
C99 H111 0.929 . S
C100 C96 1.531 . S
C100 H112 0.960 . S
C100 H113 0.962 . S
C100 H114 0.960 . S
C101 C98 1.511 . S
C101 H115 0.961 . S
C101 H116 0.961 . S
C101 H117 0.961 . S
C102 C103 1.370 . S
C102 C104 1.363 . S
C102 H118 0.931 . S
C103 C102 1.370 . S
C103 C107 1.408 . S
C104 C102 1.363 . S
C104 C105 1.370 . S
C104 C108 1.524 . S
C105 C97 1.503 . S
C105 C104 1.370 . S
C105 C106 1.403 . S
C106 C105 1.403 . S
C106 C107 1.404 . S
C106 C109 1.539 . S
C107 C103 1.408 . S
C107 C106 1.404 . S
C107 H119 0.930 . S
C108 C104 1.524 . S
C108 H120 0.956 . S
C108 H121 0.961 . S
C108 H122 0.961 . S
C109 C106 1.539 . S
C109 H123 0.958 . S
C109 H124 0.961 . S
C109 H125 0.960 . S
H110 C94 0.931 . S
H111 C99 0.929 . S
H112 C100 0.960 . S
H113 C100 0.962 . S
H114 C100 0.960 . S
H115 C101 0.961 . S
H116 C101 0.961 . S
H117 C101 0.961 . S
H118 C102 0.931 . S
H119 C107 0.930 . S
H120 C108 0.956 . S
H121 C108 0.961 . S
H122 C108 0.961 . S
H123 C109 0.958 . S
H124 C109 0.961 . S
H125 C109 0.960 . S
C126 C127 1.391 . S
C126 C128 1.394 . S
C126 H142 0.931 . S
C127 C126 1.391 . S
C127 C131 1.376 . S
C128 C126 1.394 . S
C128 C129 1.369 . S
C128 C132 1.531 1_554 S
C129 C128 1.369 . S
C129 C130 1.410 . S
C129 C137 1.503 . S
C130 C129 1.410 . S
C130 C131 1.392 . S
C130 C133 1.511 . S
C131 C127 1.376 . S
C131 C130 1.392 . S
C131 H143 0.929 . S
C132 C128 1.531 1_556 S
C132 H144 0.960 . S
C132 H145 0.962 . S
C132 H146 0.960 . S
C133 C130 1.511 . S
C133 H147 0.961 . S
C133 H148 0.961 . S
C133 H149 0.961 . S
C134 C135 1.370 . S
C134 C136 1.363 . S
C134 H150 0.931 . S
C135 C134 1.370 . S
C135 C139 1.408 . S
C136 C134 1.363 . S
C136 C137 1.370 . S
C136 C140 1.524 . S
C137 C129 1.503 . S
C137 C136 1.370 . S
C137 C138 1.403 . S
C138 C137 1.403 . S
C138 C139 1.404 . S
C138 C141 1.539 . S
C139 C135 1.408 . S
C139 C138 1.404 . S
C139 H151 0.930 . S
C140 C136 1.524 . S
C140 H152 0.956 . S
C140 H153 0.961 . S
C140 H154 0.961 . S
C141 C138 1.539 . S
C141 H155 0.958 . S
C141 H156 0.961 . S
C141 H157 0.960 . S
H142 C126 0.931 . S
H143 C131 0.929 . S
H144 C132 0.960 . S
H145 C132 0.962 . S
H146 C132 0.960 . S
H147 C133 0.961 . S
H148 C133 0.961 . S
H149 C133 0.961 . S
H150 C134 0.931 . S
H151 C139 0.930 . S
H152 C140 0.956 . S
H153 C140 0.961 . S
H154 C140 0.961 . S
H155 C141 0.958 . S
H156 C141 0.961 . S
H157 C141 0.960 . S
C158 C159 1.391 . S
C158 C160 1.394 . S
C158 H174 0.931 . S
C159 C158 1.391 . S
C159 C163 1.376 . S
C160 C158 1.394 . S
C160 C161 1.369 . S
C160 C164 1.531 . S
C161 C160 1.369 . S
C161 C162 1.410 . S
C161 C169 1.503 . S
C162 C161 1.410 . S
C162 C163 1.392 . S
C162 C165 1.511 . S
C163 C159 1.376 . S
C163 C162 1.392 . S
C163 H175 0.929 . S
C164 C160 1.531 . S
C164 H176 0.960 . S
C164 H177 0.962 . S
C164 H178 0.960 . S
C165 C162 1.511 . S
C165 H179 0.961 . S
C165 H180 0.961 . S
C165 H181 0.961 . S
C166 C167 1.370 . S
C166 C168 1.363 . S
C166 H182 0.931 . S
C167 C166 1.370 . S
C167 C171 1.408 . S
C168 C166 1.363 . S
C168 C169 1.370 . S
C168 C172 1.524 . S
C169 C161 1.503 . S
C169 C168 1.370 . S
C169 C170 1.403 . S
C170 C169 1.403 . S
C170 C171 1.404 . S
C170 C173 1.539 . S
C171 C167 1.408 . S
C171 C170 1.404 . S
C171 H183 0.930 . S
C172 C168 1.524 . S
C172 H184 0.956 . S
C172 H185 0.961 . S
C172 H186 0.961 . S
C173 C170 1.539 . S
C173 H187 0.958 . S
C173 H188 0.961 . S
C173 H189 0.960 . S
H174 C158 0.931 . S
H175 C163 0.929 . S
H176 C164 0.960 . S
H177 C164 0.962 . S
H178 C164 0.960 . S
H179 C165 0.961 . S
H180 C165 0.961 . S
H181 C165 0.961 . S
H182 C166 0.931 . S
H183 C171 0.930 . S
H184 C172 0.956 . S
H185 C172 0.961 . S
H186 C172 0.961 . S
H187 C173 0.958 . S
H188 C173 0.961 . S
H189 C173 0.960 . S
C190 C191 1.391 1_554 S
C190 C192 1.394 . S
C190 H206 0.931 . S
C191 C190 1.391 1_556 S
C191 C195 1.376 . S
C192 C190 1.394 . S
C192 C193 1.369 1_554 S
C192 C196 1.531 . S
C193 C192 1.369 1_556 S
C193 C194 1.410 . S
C193 C201 1.503 . S
C194 C193 1.410 . S
C194 C195 1.392 . S
C194 C197 1.511 . S
C195 C191 1.376 . S
C195 C194 1.392 . S
C195 H207 0.929 . S
C196 C192 1.531 . S
C196 H208 0.960 . S
C196 H209 0.962 . S
C196 H210 0.960 . S
C197 C194 1.511 . S
C197 H211 0.961 . S
C197 H212 0.961 . S
C197 H213 0.961 . S
C198 C199 1.370 . S
C198 C200 1.363 . S
C198 H214 0.931 . S
C199 C198 1.370 . S
C199 C203 1.408 1_554 S
C200 C198 1.363 . S
C200 C201 1.370 1_554 S
C200 C204 1.524 . S
C201 C193 1.503 . S
C201 C200 1.370 1_556 S
C201 C202 1.403 . S
C202 C201 1.403 . S
C202 C203 1.404 . S
C202 C205 1.539 . S
C203 C199 1.408 1_556 S
C203 C202 1.404 . S
C203 H215 0.930 . S
C204 C200 1.524 . S
C204 H216 0.956 . S
C204 H217 0.961 . S
C204 H218 0.961 . S
C205 C202 1.539 . S
C205 H219 0.958 . S
C205 H220 0.961 . S
C205 H221 0.960 . S
H206 C190 0.931 . S
H207 C195 0.929 . S
H208 C196 0.960 . S
H209 C196 0.962 . S
H210 C196 0.960 . S
H211 C197 0.961 . S
H212 C197 0.961 . S
H213 C197 0.961 . S
H214 C198 0.931 . S
H215 C203 0.930 . S
H216 C204 0.956 . S
H217 C204 0.961 . S
H218 C204 0.961 . S
H219 C205 0.958 . S
H220 C205 0.961 . S
H221 C205 0.960 . S
C222 C223 1.391 . S
C222 C224 1.394 . S
C222 H238 0.931 . S
C223 C222 1.391 . S
C223 C227 1.376 . S
C224 C222 1.394 . S
C224 C225 1.369 . S
C224 C228 1.531 . S
C225 C224 1.369 . S
C225 C226 1.410 . S
C225 C233 1.503 . S
C226 C225 1.410 . S
C226 C227 1.392 . S
C226 C229 1.511 . S
C227 C223 1.376 . S
C227 C226 1.392 . S
C227 H239 0.929 . S
C228 C224 1.531 . S
C228 H240 0.960 . S
C228 H241 0.962 . S
C228 H242 0.960 . S
C229 C226 1.511 . S
C229 H243 0.961 . S
C229 H244 0.961 . S
C229 H245 0.961 . S
C230 C231 1.370 . S
C230 C232 1.363 . S
C230 H246 0.931 . S
C231 C230 1.370 . S
C231 C235 1.408 . S
C232 C230 1.363 . S
C232 C233 1.370 . S
C232 C236 1.524 . S
C233 C225 1.503 . S
C233 C232 1.370 . S
C233 C234 1.403 . S
C234 C233 1.403 . S
C234 C235 1.404 . S
C234 C237 1.539 . S
C235 C231 1.408 . S
C235 C234 1.404 . S
C235 H247 0.930 . S
C236 C232 1.524 . S
C236 H248 0.956 . S
C236 H249 0.961 . S
C236 H250 0.961 . S
C237 C234 1.539 . S
C237 H251 0.958 . S
C237 H252 0.961 . S
C237 H253 0.960 . S
H238 C222 0.931 . S
H239 C227 0.929 . S
H240 C228 0.960 . S
H241 C228 0.962 . S
H242 C228 0.960 . S
H243 C229 0.961 . S
H244 C229 0.961 . S
H245 C229 0.961 . S
H246 C230 0.931 . S
H247 C235 0.930 . S
H248 C236 0.956 . S
H249 C236 0.961 . S
H250 C236 0.961 . S
H251 C237 0.958 . S
H252 C237 0.961 . S
H253 C237 0.960 . S
C254 C255 1.391 . S
C254 C256 1.394 . S
C254 H270 0.931 . S
C255 C254 1.391 . S
C255 C259 1.376 . S
C256 C254 1.394 . S
C256 C257 1.369 . S
C256 C260 1.531 . S
C257 C256 1.369 . S
C257 C258 1.410 . S
C257 C265 1.503 . S
C258 C257 1.410 . S
C258 C259 1.392 . S
C258 C261 1.511 . S
C259 C255 1.376 . S
C259 C258 1.392 . S
C259 H271 0.929 . S
C260 C256 1.531 . S
C260 H272 0.960 . S
C260 H273 0.962 . S
C260 H274 0.960 . S
C261 C258 1.511 . S
C261 H275 0.961 . S
C261 H276 0.961 . S
C261 H277 0.961 . S
C262 C263 1.370 . S
C262 C264 1.363 . S
C262 H278 0.931 . S
C263 C262 1.370 . S
C263 C267 1.408 . S
C264 C262 1.363 . S
C264 C265 1.370 . S
C264 C268 1.524 . S
C265 C257 1.503 . S
C265 C264 1.370 . S
C265 C266 1.403 . S
C266 C265 1.403 . S
C266 C267 1.404 . S
C266 C269 1.539 . S
C267 C263 1.408 . S
C267 C266 1.404 . S
C267 H279 0.930 . S
C268 C264 1.524 . S
C268 H280 0.956 . S
C268 H281 0.961 . S
C268 H282 0.961 . S
C269 C266 1.539 . S
C269 H283 0.958 . S
C269 H284 0.961 . S
C269 H285 0.960 . S
H270 C254 0.931 . S
H271 C259 0.929 . S
H272 C260 0.960 . S
H273 C260 0.962 . S
H274 C260 0.960 . S
H275 C261 0.961 . S
H276 C261 0.961 . S
H277 C261 0.961 . S
H278 C262 0.931 . S
H279 C267 0.930 . S
H280 C268 0.956 . S
H281 C268 0.961 . S
H282 C268 0.961 . S
H283 C269 0.958 . S
H284 C269 0.961 . S
H285 C269 0.960 . S
C286 C287 1.391 . S
C286 C288 1.394 . S
C286 H302 0.931 . S
C287 C286 1.391 . S
C287 C291 1.376 . S
C288 C286 1.394 . S
C288 C289 1.369 . S
C288 C292 1.531 . S
C289 C288 1.369 . S
C289 C290 1.410 . S
C289 C297 1.503 . S
C290 C289 1.410 . S
C290 C291 1.392 . S
C290 C293 1.511 . S
C291 C287 1.376 . S
C291 C290 1.392 . S
C291 H303 0.929 . S
C292 C288 1.531 . S
C292 H304 0.960 . S
C292 H305 0.962 . S
C292 H306 0.960 . S
C293 C290 1.511 . S
C293 H307 0.961 . S
C293 H308 0.961 . S
C293 H309 0.961 . S
C294 C295 1.370 . S
C294 C296 1.363 . S
C294 H310 0.931 . S
C295 C294 1.370 . S
C295 C299 1.408 . S
C296 C294 1.363 . S
C296 C297 1.370 . S
C296 C300 1.524 . S
C297 C289 1.503 . S
C297 C296 1.370 . S
C297 C298 1.403 . S
C298 C297 1.403 . S
C298 C299 1.404 . S
C298 C301 1.539 . S
C299 C295 1.408 . S
C299 C298 1.404 . S
C299 H311 0.930 . S
C300 C296 1.524 . S
C300 H312 0.956 . S
C300 H313 0.961 . S
C300 H314 0.961 . S
C301 C298 1.539 . S
C301 H315 0.958 . S
C301 H316 0.961 . S
C301 H317 0.960 . S
H302 C286 0.931 . S
H303 C291 0.929 . S
H304 C292 0.960 . S
H305 C292 0.962 . S
H306 C292 0.960 . S
H307 C293 0.961 . S
H308 C293 0.961 . S
H309 C293 0.961 . S
H310 C294 0.931 . S
H311 C299 0.930 . S
H312 C300 0.956 . S
H313 C300 0.961 . S
H314 C300 0.961 . S
H315 C301 0.958 . S
H316 C301 0.961 . S
H317 C301 0.960 . S
C318 C319 1.391 . S
C318 C320 1.394 . S
C318 H334 0.931 . S
C319 C318 1.391 . S
C319 C323 1.376 . S
C320 C318 1.394 . S
C320 C321 1.369 . S
C320 C324 1.531 . S
C321 C320 1.369 . S
C321 C322 1.410 . S
C321 C329 1.503 . S
C322 C321 1.410 . S
C322 C323 1.392 . S
C322 C325 1.511 . S
C323 C319 1.376 . S
C323 C322 1.392 . S
C323 H335 0.929 . S
C324 C320 1.531 . S
C324 H336 0.960 . S
C324 H337 0.962 . S
C324 H338 0.960 . S
C325 C322 1.511 . S
C325 H339 0.961 . S
C325 H340 0.961 . S
C325 H341 0.961 . S
C326 C327 1.370 . S
C326 C328 1.363 . S
C326 H342 0.931 . S
C327 C326 1.370 . S
C327 C331 1.408 . S
C328 C326 1.363 . S
C328 C329 1.370 . S
C328 C332 1.524 . S
C329 C321 1.503 . S
C329 C328 1.370 . S
C329 C330 1.403 . S
C330 C329 1.403 . S
C330 C331 1.404 . S
C330 C333 1.539 . S
C331 C327 1.408 . S
C331 C330 1.404 . S
C331 H343 0.930 . S
C332 C328 1.524 . S
C332 H344 0.956 . S
C332 H345 0.961 . S
C332 H346 0.961 . S
C333 C330 1.539 . S
C333 H347 0.958 . S
C333 H348 0.961 . S
C333 H349 0.960 . S
H334 C318 0.931 . S
H335 C323 0.929 . S
H336 C324 0.960 . S
H337 C324 0.962 . S
H338 C324 0.960 . S
H339 C325 0.961 . S
H340 C325 0.961 . S
H341 C325 0.961 . S
H342 C326 0.931 . S
H343 C331 0.930 . S
H344 C332 0.956 . S
H345 C332 0.961 . S
H346 C332 0.961 . S
H347 C333 0.958 . S
H348 C333 0.961 . S
H349 C333 0.960 . S
C350 C351 1.391 . S
C350 C352 1.394 . S
C350 H366 0.931 . S
C351 C350 1.391 . S
C351 C355 1.376 . S
C352 C350 1.394 . S
C352 C353 1.369 . S
C352 C356 1.531 . S
C353 C352 1.369 . S
C353 C354 1.410 . S
C353 C361 1.503 . S
C354 C353 1.410 . S
C354 C355 1.392 . S
C354 C357 1.511 . S
C355 C351 1.376 . S
C355 C354 1.392 . S
C355 H367 0.929 . S
C356 C352 1.531 . S
C356 H368 0.960 . S
C356 H369 0.962 . S
C356 H370 0.960 . S
C357 C354 1.511 . S
C357 H371 0.961 . S
C357 H372 0.961 . S
C357 H373 0.961 . S
C358 C359 1.370 . S
C358 C360 1.363 . S
C358 H374 0.931 . S
C359 C358 1.370 . S
C359 C363 1.408 . S
C360 C358 1.363 . S
C360 C361 1.370 . S
C360 C364 1.524 . S
C361 C353 1.503 . S
C361 C360 1.370 . S
C361 C362 1.403 . S
C362 C361 1.403 . S
C362 C363 1.404 . S
C362 C365 1.539 . S
C363 C359 1.408 . S
C363 C362 1.404 . S
C363 H375 0.930 . S
C364 C360 1.524 . S
C364 H376 0.956 . S
C364 H377 0.961 . S
C364 H378 0.961 . S
C365 C362 1.539 . S
C365 H379 0.958 . S
C365 H380 0.961 . S
C365 H381 0.960 . S
H366 C350 0.931 . S
H367 C355 0.929 . S
H368 C356 0.960 . S
H369 C356 0.962 . S
H370 C356 0.960 . S
H371 C357 0.961 . S
H372 C357 0.961 . S
H373 C357 0.961 . S
H374 C358 0.931 . S
H375 C363 0.930 . S
H376 C364 0.956 . S
H377 C364 0.961 . S
H378 C364 0.961 . S
H379 C365 0.958 . S
H380 C365 0.961 . S
H381 C365 0.960 . S
C382 C383 1.391 . S
C382 C384 1.394 . S
C382 H398 0.931 . S
C383 C382 1.391 . S
C383 C387 1.376 . S
C384 C382 1.394 . S
C384 C385 1.369 . S
C384 C388 1.531 . S
C385 C384 1.369 . S
C385 C386 1.410 . S
C385 C393 1.503 . S
C386 C385 1.410 . S
C386 C387 1.392 . S
C386 C389 1.511 . S
C387 C383 1.376 . S
C387 C386 1.392 . S
C387 H399 0.929 . S
C388 C384 1.531 . S
C388 H400 0.960 . S
C388 H401 0.962 . S
C388 H402 0.960 . S
C389 C386 1.511 . S
C389 H403 0.961 . S
C389 H404 0.961 . S
C389 H405 0.961 . S
C390 C391 1.370 . S
C390 C392 1.363 . S
C390 H406 0.931 . S
C391 C390 1.370 . S
C391 C395 1.408 . S
C392 C390 1.363 . S
C392 C393 1.370 . S
C392 C396 1.524 . S
C393 C385 1.503 . S
C393 C392 1.370 . S
C393 C394 1.403 . S
C394 C393 1.403 . S
C394 C395 1.404 . S
C394 C397 1.539 . S
C395 C391 1.408 . S
C395 C394 1.404 . S
C395 H407 0.930 . S
C396 C392 1.524 . S
C396 H408 0.956 . S
C396 H409 0.961 . S
C396 H410 0.961 . S
C397 C394 1.539 . S
C397 H411 0.958 . S
C397 H412 0.961 1_655 S
C397 H413 0.960 . S
H398 C382 0.931 . S
H399 C387 0.929 . S
H400 C388 0.960 . S
H401 C388 0.962 . S
H402 C388 0.960 . S
H403 C389 0.961 . S
H404 C389 0.961 . S
H405 C389 0.961 . S
H406 C390 0.931 . S
H407 C395 0.930 . S
H408 C396 0.956 . S
H409 C396 0.961 . S
H410 C396 0.961 . S
H411 C397 0.958 . S
H412 C397 0.961 1_455 S
H413 C397 0.960 . S
C414 C415 1.391 . S
C414 C416 1.394 . S
C414 H430 0.931 . S
C415 C414 1.391 . S
C415 C419 1.376 . S
C416 C414 1.394 . S
C416 C417 1.369 . S
C416 C420 1.531 . S
C417 C416 1.369 . S
C417 C418 1.410 . S
C417 C425 1.503 . S
C418 C417 1.410 . S
C418 C419 1.392 . S
C418 C421 1.511 . S
C419 C415 1.376 . S
C419 C418 1.392 . S
C419 H431 0.929 . S
C420 C416 1.531 . S
C420 H432 0.960 . S
C420 H433 0.962 . S
C420 H434 0.960 . S
C421 C418 1.511 . S
C421 H435 0.961 . S
C421 H436 0.961 . S
C421 H437 0.961 . S
C422 C423 1.370 . S
C422 C424 1.363 . S
C422 H438 0.931 . S
C423 C422 1.370 . S
C423 C427 1.408 . S
C424 C422 1.363 . S
C424 C425 1.370 . S
C424 C428 1.524 . S
C425 C417 1.503 . S
C425 C424 1.370 . S
C425 C426 1.403 . S
C426 C425 1.403 . S
C426 C427 1.404 . S
C426 C429 1.539 . S
C427 C423 1.408 . S
C427 C426 1.404 . S
C427 H439 0.930 . S
C428 C424 1.524 . S
C428 H440 0.956 . S
C428 H441 0.961 . S
C428 H442 0.961 . S
C429 C426 1.539 . S
C429 H443 0.958 . S
C429 H444 0.961 . S
C429 H445 0.960 . S
H430 C414 0.931 . S
H431 C419 0.929 . S
H432 C420 0.960 . S
H433 C420 0.962 . S
H434 C420 0.960 . S
H435 C421 0.961 . S
H436 C421 0.961 . S
H437 C421 0.961 . S
H438 C422 0.931 . S
H439 C427 0.930 . S
H440 C428 0.956 . S
H441 C428 0.961 . S
H442 C428 0.961 . S
H443 C429 0.958 . S
H444 C429 0.961 . S
H445 C429 0.960 . S
C446 C447 1.391 . S
C446 C448 1.394 . S
C446 H462 0.931 . S
C447 C446 1.391 . S
C447 C451 1.376 . S
C448 C446 1.394 . S
C448 C449 1.369 . S
C448 C452 1.531 . S
C449 C448 1.369 . S
C449 C450 1.410 . S
C449 C457 1.503 . S
C450 C449 1.410 . S
C450 C451 1.392 . S
C450 C453 1.511 . S
C451 C447 1.376 . S
C451 C450 1.392 . S
C451 H463 0.929 . S
C452 C448 1.531 . S
C452 H464 0.960 . S
C452 H465 0.962 . S
C452 H466 0.960 . S
C453 C450 1.511 . S
C453 H467 0.961 . S
C453 H468 0.961 . S
C453 H469 0.961 . S
C454 C455 1.370 . S
C454 C456 1.363 . S
C454 H470 0.931 . S
C455 C454 1.370 . S
C455 C459 1.408 . S
C456 C454 1.363 . S
C456 C457 1.370 . S
C456 C460 1.524 . S
C457 C449 1.503 . S
C457 C456 1.370 . S
C457 C458 1.403 . S
C458 C457 1.403 . S
C458 C459 1.404 . S
C458 C461 1.539 . S
C459 C455 1.408 . S
C459 C458 1.404 . S
C459 H471 0.930 . S
C460 C456 1.524 . S
C460 H472 0.956 . S
C460 H473 0.961 . S
C460 H474 0.961 . S
C461 C458 1.539 . S
C461 H475 0.958 . S
C461 H476 0.961 . S
C461 H477 0.960 . S
H462 C446 0.931 . S
H463 C451 0.929 . S
H464 C452 0.960 . S
H465 C452 0.962 . S
H466 C452 0.960 . S
H467 C453 0.961 . S
H468 C453 0.961 . S
H469 C453 0.961 . S
H470 C454 0.931 . S
H471 C459 0.930 . S
H472 C460 0.956 . S
H473 C460 0.961 . S
H474 C460 0.961 . S
H475 C461 0.958 . S
H476 C461 0.961 . S
H477 C461 0.960 . S
C103 C68 1.251 . S
C95 C43 1.385 . S
C127 C4 1.441 . S
C135 C89 1.284 . S
C159 C17 1.497 . S
C167 C65 1.381 . S
C191 C30 1.573 . S
C199 C86 1.428 . S
C231 C70 1.449 . S
C223 C9 1.444 . S
C263 C90 1.502 . S
C255 C21 1.566 . S
C287 C34 1.554 . S
C295 C66 1.509 . S
C319 C48 1.477 . S
C327 C88 1.444 . S
C359 C87 1.496 . S
C351 C22 1.525 . S
C391 C69 1.503 . S
C383 C35 1.548 . S
C423 C91 1.454 . S
C415 C47 1.490 . S
C447 C8 1.493 1_556 S
C455 C67 1.447 . S
