# Generated by pormake.
# Topology bpr, (3,3)-cn, num edge types: 1
# Building blocks:
#     Node 0, Type 0, BuildingBlock: WUSLED_clean_sbu_0, # of connection points: 3
#     Node 1, Type 0, BuildingBlock: WUSLED_clean_sbu_0, # of connection points: 3
#     Node 2, Type 0, BuildingBlock: WUSLED_clean_sbu_0, # of connection points: 3
#     Node 3, Type 0, BuildingBlock: WUSLED_clean_sbu_0, # of connection points: 3
#     Node 4, Type 0, BuildingBlock: WUSLED_clean_sbu_0, # of connection points: 3
#     Node 5, Type 0, BuildingBlock: WUSLED_clean_sbu_0, # of connection points: 3
#     Node 6, Type 0, BuildingBlock: WUSLED_clean_sbu_0, # of connection points: 3
#     Node 7, Type 0, BuildingBlock: WUSLED_clean_sbu_0, # of connection points: 3
#     Node 8, Type 0, BuildingBlock: WUSLED_clean_sbu_0, # of connection points: 3
#     Node 9, Type 0, BuildingBlock: WUSLED_clean_sbu_0, # of connection points: 3
#     Node 10, Type 0, BuildingBlock: WUSLED_clean_sbu_0, # of connection points: 3
#     Node 11, Type 0, BuildingBlock: WUSLED_clean_sbu_0, # of connection points: 3
#     Node 12, Type 0, BuildingBlock: WUSLED_clean_sbu_0, # of connection points: 3
#     Node 13, Type 0, BuildingBlock: WUSLED_clean_sbu_0, # of connection points: 3
#     Node 14, Type 0, BuildingBlock: WUSLED_clean_sbu_0, # of connection points: 3
#     Node 15, Type 0, BuildingBlock: WUSLED_clean_sbu_0, # of connection points: 3
#     Node 16, Type 0, BuildingBlock: WUSLED_clean_sbu_0, # of connection points: 3
#     Node 17, Type 0, BuildingBlock: WUSLED_clean_sbu_0, # of connection points: 3
#     Node 18, Type 0, BuildingBlock: WUSLED_clean_sbu_0, # of connection points: 3
#     Node 19, Type 0, BuildingBlock: WUSLED_clean_sbu_0, # of connection points: 3
#     Node 20, Type 0, BuildingBlock: WUSLED_clean_sbu_0, # of connection points: 3
#     Node 21, Type 0, BuildingBlock: WUSLED_clean_sbu_0, # of connection points: 3
#     Node 22, Type 0, BuildingBlock: WUSLED_clean_sbu_0, # of connection points: 3
#     Node 23, Type 0, BuildingBlock: WUSLED_clean_sbu_0, # of connection points: 3
#     Node 24, Type 0, BuildingBlock: WUSLED_clean_sbu_0, # of connection points: 3
#     Node 25, Type 0, BuildingBlock: WUSLED_clean_sbu_0, # of connection points: 3
#     Node 26, Type 0, BuildingBlock: WUSLED_clean_sbu_0, # of connection points: 3
#     Node 27, Type 0, BuildingBlock: WUSLED_clean_sbu_0, # of connection points: 3
#     Node 28, Type 0, BuildingBlock: WUSLED_clean_sbu_0, # of connection points: 3
#     Node 29, Type 0, BuildingBlock: WUSLED_clean_sbu_0, # of connection points: 3
#     Node 30, Type 0, BuildingBlock: WUSLED_clean_sbu_0, # of connection points: 3
#     Node 31, Type 0, BuildingBlock: WUSLED_clean_sbu_0, # of connection points: 3
#     Node 32, Type 0, BuildingBlock: WUSLED_clean_sbu_0, # of connection points: 3
#     Node 33, Type 0, BuildingBlock: WUSLED_clean_sbu_0, # of connection points: 3
#     Node 34, Type 0, BuildingBlock: WUSLED_clean_sbu_0, # of connection points: 3
#     Node 35, Type 0, BuildingBlock: WUSLED_clean_sbu_0, # of connection points: 3
#     Node 36, Type 0, BuildingBlock: WUSLED_clean_sbu_0, # of connection points: 3
#     Node 37, Type 0, BuildingBlock: WUSLED_clean_sbu_0, # of connection points: 3
#     Node 38, Type 0, BuildingBlock: WUSLED_clean_sbu_0, # of connection points: 3
#     Node 39, Type 0, BuildingBlock: WUSLED_clean_sbu_0, # of connection points: 3
#     Node 40, Type 0, BuildingBlock: WUSLED_clean_sbu_0, # of connection points: 3
#     Node 41, Type 0, BuildingBlock: WUSLED_clean_sbu_0, # of connection points: 3
#     Node 42, Type 0, BuildingBlock: WUSLED_clean_sbu_0, # of connection points: 3
#     Node 43, Type 0, BuildingBlock: WUSLED_clean_sbu_0, # of connection points: 3
#     Node 44, Type 0, BuildingBlock: WUSLED_clean_sbu_0, # of connection points: 3
#     Node 45, Type 0, BuildingBlock: WUSLED_clean_sbu_0, # of connection points: 3
#     Node 46, Type 0, BuildingBlock: WUSLED_clean_sbu_0, # of connection points: 3
#     Node 47, Type 0, BuildingBlock: WUSLED_clean_sbu_0, # of connection points: 3
#     Node 48, Type 1, BuildingBlock: BETDIP_clean_linker_0, # of connection points: 3
#     Node 49, Type 1, BuildingBlock: BETDIP_clean_linker_0, # of connection points: 3
#     Node 50, Type 1, BuildingBlock: BETDIP_clean_linker_0, # of connection points: 3
#     Node 51, Type 1, BuildingBlock: BETDIP_clean_linker_0, # of connection points: 3
#     Node 52, Type 1, BuildingBlock: BETDIP_clean_linker_0, # of connection points: 3
#     Node 53, Type 1, BuildingBlock: BETDIP_clean_linker_0, # of connection points: 3
#     Node 54, Type 1, BuildingBlock: BETDIP_clean_linker_0, # of connection points: 3
#     Node 55, Type 1, BuildingBlock: BETDIP_clean_linker_0, # of connection points: 3
#     Node 56, Type 1, BuildingBlock: BETDIP_clean_linker_0, # of connection points: 3
#     Node 57, Type 1, BuildingBlock: BETDIP_clean_linker_0, # of connection points: 3
#     Node 58, Type 1, BuildingBlock: BETDIP_clean_linker_0, # of connection points: 3
#     Node 59, Type 1, BuildingBlock: BETDIP_clean_linker_0, # of connection points: 3
#     Node 60, Type 1, BuildingBlock: BETDIP_clean_linker_0, # of connection points: 3
#     Node 61, Type 1, BuildingBlock: BETDIP_clean_linker_0, # of connection points: 3
#     Node 62, Type 1, BuildingBlock: BETDIP_clean_linker_0, # of connection points: 3
#     Node 63, Type 1, BuildingBlock: BETDIP_clean_linker_0, # of connection points: 3
#     Node 64, Type 1, BuildingBlock: BETDIP_clean_linker_0, # of connection points: 3
#     Node 65, Type 1, BuildingBlock: BETDIP_clean_linker_0, # of connection points: 3
#     Node 66, Type 1, BuildingBlock: BETDIP_clean_linker_0, # of connection points: 3
#     Node 67, Type 1, BuildingBlock: BETDIP_clean_linker_0, # of connection points: 3
#     Node 68, Type 1, BuildingBlock: BETDIP_clean_linker_0, # of connection points: 3
#     Node 69, Type 1, BuildingBlock: BETDIP_clean_linker_0, # of connection points: 3
#     Node 70, Type 1, BuildingBlock: BETDIP_clean_linker_0, # of connection points: 3
#     Node 71, Type 1, BuildingBlock: BETDIP_clean_linker_0, # of connection points: 3
#     Node 72, Type 1, BuildingBlock: BETDIP_clean_linker_0, # of connection points: 3
#     Node 73, Type 1, BuildingBlock: BETDIP_clean_linker_0, # of connection points: 3
#     Node 74, Type 1, BuildingBlock: BETDIP_clean_linker_0, # of connection points: 3
#     Node 75, Type 1, BuildingBlock: BETDIP_clean_linker_0, # of connection points: 3
#     Node 76, Type 1, BuildingBlock: BETDIP_clean_linker_0, # of connection points: 3
#     Node 77, Type 1, BuildingBlock: BETDIP_clean_linker_0, # of connection points: 3
#     Node 78, Type 1, BuildingBlock: BETDIP_clean_linker_0, # of connection points: 3
#     Node 79, Type 1, BuildingBlock: BETDIP_clean_linker_0, # of connection points: 3
#     Node 80, Type 1, BuildingBlock: BETDIP_clean_linker_0, # of connection points: 3
#     Node 81, Type 1, BuildingBlock: BETDIP_clean_linker_0, # of connection points: 3
#     Node 82, Type 1, BuildingBlock: BETDIP_clean_linker_0, # of connection points: 3
#     Node 83, Type 1, BuildingBlock: BETDIP_clean_linker_0, # of connection points: 3
#     Node 84, Type 1, BuildingBlock: BETDIP_clean_linker_0, # of connection points: 3
#     Node 85, Type 1, BuildingBlock: BETDIP_clean_linker_0, # of connection points: 3
#     Node 86, Type 1, BuildingBlock: BETDIP_clean_linker_0, # of connection points: 3
#     Node 87, Type 1, BuildingBlock: BETDIP_clean_linker_0, # of connection points: 3
#     Node 88, Type 1, BuildingBlock: BETDIP_clean_linker_0, # of connection points: 3
#     Node 89, Type 1, BuildingBlock: BETDIP_clean_linker_0, # of connection points: 3
#     Node 90, Type 1, BuildingBlock: BETDIP_clean_linker_0, # of connection points: 3
#     Node 91, Type 1, BuildingBlock: BETDIP_clean_linker_0, # of connection points: 3
#     Node 92, Type 1, BuildingBlock: BETDIP_clean_linker_0, # of connection points: 3
#     Node 93, Type 1, BuildingBlock: BETDIP_clean_linker_0, # of connection points: 3
#     Node 94, Type 1, BuildingBlock: BETDIP_clean_linker_0, # of connection points: 3
#     Node 95, Type 1, BuildingBlock: BETDIP_clean_linker_0, # of connection points: 3
#     Edge 96, Type (0, 1), BuildingBlock: XIVTED_clean_linker_0, # of connection points: 2
#     Edge 97, Type (0, 1), BuildingBlock: XIVTED_clean_linker_0, # of connection points: 2
#     Edge 98, Type (0, 1), BuildingBlock: XIVTED_clean_linker_0, # of connection points: 2
#     Edge 99, Type (0, 1), BuildingBlock: XIVTED_clean_linker_0, # of connection points: 2
#     Edge 100, Type (0, 1), BuildingBlock: XIVTED_clean_linker_0, # of connection points: 2
#     Edge 101, Type (0, 1), BuildingBlock: XIVTED_clean_linker_0, # of connection points: 2
#     Edge 102, Type (0, 1), BuildingBlock: XIVTED_clean_linker_0, # of connection points: 2
#     Edge 103, Type (0, 1), BuildingBlock: XIVTED_clean_linker_0, # of connection points: 2
#     Edge 104, Type (0, 1), BuildingBlock: XIVTED_clean_linker_0, # of connection points: 2
#     Edge 105, Type (0, 1), BuildingBlock: XIVTED_clean_linker_0, # of connection points: 2
#     Edge 106, Type (0, 1), BuildingBlock: XIVTED_clean_linker_0, # of connection points: 2
#     Edge 107, Type (0, 1), BuildingBlock: XIVTED_clean_linker_0, # of connection points: 2
#     Edge 108, Type (0, 1), BuildingBlock: XIVTED_clean_linker_0, # of connection points: 2
#     Edge 109, Type (0, 1), BuildingBlock: XIVTED_clean_linker_0, # of connection points: 2
#     Edge 110, Type (0, 1), BuildingBlock: XIVTED_clean_linker_0, # of connection points: 2
#     Edge 111, Type (0, 1), BuildingBlock: XIVTED_clean_linker_0, # of connection points: 2
#     Edge 112, Type (0, 1), BuildingBlock: XIVTED_clean_linker_0, # of connection points: 2
#     Edge 113, Type (0, 1), BuildingBlock: XIVTED_clean_linker_0, # of connection points: 2
#     Edge 114, Type (0, 1), BuildingBlock: XIVTED_clean_linker_0, # of connection points: 2
#     Edge 115, Type (0, 1), BuildingBlock: XIVTED_clean_linker_0, # of connection points: 2
#     Edge 116, Type (0, 1), BuildingBlock: XIVTED_clean_linker_0, # of connection points: 2
#     Edge 117, Type (0, 1), BuildingBlock: XIVTED_clean_linker_0, # of connection points: 2
#     Edge 118, Type (0, 1), BuildingBlock: XIVTED_clean_linker_0, # of connection points: 2
#     Edge 119, Type (0, 1), BuildingBlock: XIVTED_clean_linker_0, # of connection points: 2
#     Edge 120, Type (0, 1), BuildingBlock: XIVTED_clean_linker_0, # of connection points: 2
#     Edge 121, Type (0, 1), BuildingBlock: XIVTED_clean_linker_0, # of connection points: 2
#     Edge 122, Type (0, 1), BuildingBlock: XIVTED_clean_linker_0, # of connection points: 2
#     Edge 123, Type (0, 1), BuildingBlock: XIVTED_clean_linker_0, # of connection points: 2
#     Edge 124, Type (0, 1), BuildingBlock: XIVTED_clean_linker_0, # of connection points: 2
#     Edge 125, Type (0, 1), BuildingBlock: XIVTED_clean_linker_0, # of connection points: 2
#     Edge 126, Type (0, 1), BuildingBlock: XIVTED_clean_linker_0, # of connection points: 2
#     Edge 127, Type (0, 1), BuildingBlock: XIVTED_clean_linker_0, # of connection points: 2
#     Edge 128, Type (0, 1), BuildingBlock: XIVTED_clean_linker_0, # of connection points: 2
#     Edge 129, Type (0, 1), BuildingBlock: XIVTED_clean_linker_0, # of connection points: 2
#     Edge 130, Type (0, 1), BuildingBlock: XIVTED_clean_linker_0, # of connection points: 2
#     Edge 131, Type (0, 1), BuildingBlock: XIVTED_clean_linker_0, # of connection points: 2
#     Edge 132, Type (0, 1), BuildingBlock: XIVTED_clean_linker_0, # of connection points: 2
#     Edge 133, Type (0, 1), BuildingBlock: XIVTED_clean_linker_0, # of connection points: 2
#     Edge 134, Type (0, 1), BuildingBlock: XIVTED_clean_linker_0, # of connection points: 2
#     Edge 135, Type (0, 1), BuildingBlock: XIVTED_clean_linker_0, # of connection points: 2
#     Edge 136, Type (0, 1), BuildingBlock: XIVTED_clean_linker_0, # of connection points: 2
#     Edge 137, Type (0, 1), BuildingBlock: XIVTED_clean_linker_0, # of connection points: 2
#     Edge 138, Type (0, 1), BuildingBlock: XIVTED_clean_linker_0, # of connection points: 2
#     Edge 139, Type (0, 1), BuildingBlock: XIVTED_clean_linker_0, # of connection points: 2
#     Edge 140, Type (0, 1), BuildingBlock: XIVTED_clean_linker_0, # of connection points: 2
#     Edge 141, Type (0, 1), BuildingBlock: XIVTED_clean_linker_0, # of connection points: 2
#     Edge 142, Type (0, 1), BuildingBlock: XIVTED_clean_linker_0, # of connection points: 2
#     Edge 143, Type (0, 1), BuildingBlock: XIVTED_clean_linker_0, # of connection points: 2
#     Edge 144, Type (0, 1), BuildingBlock: XIVTED_clean_linker_0, # of connection points: 2
#     Edge 145, Type (0, 1), BuildingBlock: XIVTED_clean_linker_0, # of connection points: 2
#     Edge 146, Type (0, 1), BuildingBlock: XIVTED_clean_linker_0, # of connection points: 2
#     Edge 147, Type (0, 1), BuildingBlock: XIVTED_clean_linker_0, # of connection points: 2
#     Edge 148, Type (0, 1), BuildingBlock: XIVTED_clean_linker_0, # of connection points: 2
#     Edge 149, Type (0, 1), BuildingBlock: XIVTED_clean_linker_0, # of connection points: 2
#     Edge 150, Type (0, 1), BuildingBlock: XIVTED_clean_linker_0, # of connection points: 2
#     Edge 151, Type (0, 1), BuildingBlock: XIVTED_clean_linker_0, # of connection points: 2
#     Edge 152, Type (0, 1), BuildingBlock: XIVTED_clean_linker_0, # of connection points: 2
#     Edge 153, Type (0, 1), BuildingBlock: XIVTED_clean_linker_0, # of connection points: 2
#     Edge 154, Type (0, 1), BuildingBlock: XIVTED_clean_linker_0, # of connection points: 2
#     Edge 155, Type (0, 1), BuildingBlock: XIVTED_clean_linker_0, # of connection points: 2
#     Edge 156, Type (0, 1), BuildingBlock: XIVTED_clean_linker_0, # of connection points: 2
#     Edge 157, Type (0, 1), BuildingBlock: XIVTED_clean_linker_0, # of connection points: 2
#     Edge 158, Type (0, 1), BuildingBlock: XIVTED_clean_linker_0, # of connection points: 2
#     Edge 159, Type (0, 1), BuildingBlock: XIVTED_clean_linker_0, # of connection points: 2
#     Edge 160, Type (0, 1), BuildingBlock: XIVTED_clean_linker_0, # of connection points: 2
#     Edge 161, Type (0, 1), BuildingBlock: XIVTED_clean_linker_0, # of connection points: 2
#     Edge 162, Type (0, 1), BuildingBlock: XIVTED_clean_linker_0, # of connection points: 2
#     Edge 163, Type (0, 1), BuildingBlock: XIVTED_clean_linker_0, # of connection points: 2
#     Edge 164, Type (0, 1), BuildingBlock: XIVTED_clean_linker_0, # of connection points: 2
#     Edge 165, Type (0, 1), BuildingBlock: XIVTED_clean_linker_0, # of connection points: 2
#     Edge 166, Type (0, 1), BuildingBlock: XIVTED_clean_linker_0, # of connection points: 2
#     Edge 167, Type (0, 1), BuildingBlock: XIVTED_clean_linker_0, # of connection points: 2
#     Edge 168, Type (0, 1), BuildingBlock: XIVTED_clean_linker_0, # of connection points: 2
#     Edge 169, Type (0, 1), BuildingBlock: XIVTED_clean_linker_0, # of connection points: 2
#     Edge 170, Type (0, 1), BuildingBlock: XIVTED_clean_linker_0, # of connection points: 2
#     Edge 171, Type (0, 1), BuildingBlock: XIVTED_clean_linker_0, # of connection points: 2
#     Edge 172, Type (0, 1), BuildingBlock: XIVTED_clean_linker_0, # of connection points: 2
#     Edge 173, Type (0, 1), BuildingBlock: XIVTED_clean_linker_0, # of connection points: 2
#     Edge 174, Type (0, 1), BuildingBlock: XIVTED_clean_linker_0, # of connection points: 2
#     Edge 175, Type (0, 1), BuildingBlock: XIVTED_clean_linker_0, # of connection points: 2
#     Edge 176, Type (0, 1), BuildingBlock: XIVTED_clean_linker_0, # of connection points: 2
#     Edge 177, Type (0, 1), BuildingBlock: XIVTED_clean_linker_0, # of connection points: 2
#     Edge 178, Type (0, 1), BuildingBlock: XIVTED_clean_linker_0, # of connection points: 2
#     Edge 179, Type (0, 1), BuildingBlock: XIVTED_clean_linker_0, # of connection points: 2
#     Edge 180, Type (0, 1), BuildingBlock: XIVTED_clean_linker_0, # of connection points: 2
#     Edge 181, Type (0, 1), BuildingBlock: XIVTED_clean_linker_0, # of connection points: 2
#     Edge 182, Type (0, 1), BuildingBlock: XIVTED_clean_linker_0, # of connection points: 2
#     Edge 183, Type (0, 1), BuildingBlock: XIVTED_clean_linker_0, # of connection points: 2
#     Edge 184, Type (0, 1), BuildingBlock: XIVTED_clean_linker_0, # of connection points: 2
#     Edge 185, Type (0, 1), BuildingBlock: XIVTED_clean_linker_0, # of connection points: 2
#     Edge 186, Type (0, 1), BuildingBlock: XIVTED_clean_linker_0, # of connection points: 2
#     Edge 187, Type (0, 1), BuildingBlock: XIVTED_clean_linker_0, # of connection points: 2
#     Edge 188, Type (0, 1), BuildingBlock: XIVTED_clean_linker_0, # of connection points: 2
#     Edge 189, Type (0, 1), BuildingBlock: XIVTED_clean_linker_0, # of connection points: 2
#     Edge 190, Type (0, 1), BuildingBlock: XIVTED_clean_linker_0, # of connection points: 2
#     Edge 191, Type (0, 1), BuildingBlock: XIVTED_clean_linker_0, # of connection points: 2
#     Edge 192, Type (0, 1), BuildingBlock: XIVTED_clean_linker_0, # of connection points: 2
#     Edge 193, Type (0, 1), BuildingBlock: XIVTED_clean_linker_0, # of connection points: 2
#     Edge 194, Type (0, 1), BuildingBlock: XIVTED_clean_linker_0, # of connection points: 2
#     Edge 195, Type (0, 1), BuildingBlock: XIVTED_clean_linker_0, # of connection points: 2
#     Edge 196, Type (0, 1), BuildingBlock: XIVTED_clean_linker_0, # of connection points: 2
#     Edge 197, Type (0, 1), BuildingBlock: XIVTED_clean_linker_0, # of connection points: 2
#     Edge 198, Type (0, 1), BuildingBlock: XIVTED_clean_linker_0, # of connection points: 2
#     Edge 199, Type (0, 1), BuildingBlock: XIVTED_clean_linker_0, # of connection points: 2
#     Edge 200, Type (0, 1), BuildingBlock: XIVTED_clean_linker_0, # of connection points: 2
#     Edge 201, Type (0, 1), BuildingBlock: XIVTED_clean_linker_0, # of connection points: 2
#     Edge 202, Type (0, 1), BuildingBlock: XIVTED_clean_linker_0, # of connection points: 2
#     Edge 203, Type (0, 1), BuildingBlock: XIVTED_clean_linker_0, # of connection points: 2
#     Edge 204, Type (0, 1), BuildingBlock: XIVTED_clean_linker_0, # of connection points: 2
#     Edge 205, Type (0, 1), BuildingBlock: XIVTED_clean_linker_0, # of connection points: 2
#     Edge 206, Type (0, 1), BuildingBlock: XIVTED_clean_linker_0, # of connection points: 2
#     Edge 207, Type (0, 1), BuildingBlock: XIVTED_clean_linker_0, # of connection points: 2
#     Edge 208, Type (0, 1), BuildingBlock: XIVTED_clean_linker_0, # of connection points: 2
#     Edge 209, Type (0, 1), BuildingBlock: XIVTED_clean_linker_0, # of connection points: 2
#     Edge 210, Type (0, 1), BuildingBlock: XIVTED_clean_linker_0, # of connection points: 2
#     Edge 211, Type (0, 1), BuildingBlock: XIVTED_clean_linker_0, # of connection points: 2
#     Edge 212, Type (0, 1), BuildingBlock: XIVTED_clean_linker_0, # of connection points: 2
#     Edge 213, Type (0, 1), BuildingBlock: XIVTED_clean_linker_0, # of connection points: 2
#     Edge 214, Type (0, 1), BuildingBlock: XIVTED_clean_linker_0, # of connection points: 2
#     Edge 215, Type (0, 1), BuildingBlock: XIVTED_clean_linker_0, # of connection points: 2
#     Edge 216, Type (0, 1), BuildingBlock: XIVTED_clean_linker_0, # of connection points: 2
#     Edge 217, Type (0, 1), BuildingBlock: XIVTED_clean_linker_0, # of connection points: 2
#     Edge 218, Type (0, 1), BuildingBlock: XIVTED_clean_linker_0, # of connection points: 2
#     Edge 219, Type (0, 1), BuildingBlock: XIVTED_clean_linker_0, # of connection points: 2
#     Edge 220, Type (0, 1), BuildingBlock: XIVTED_clean_linker_0, # of connection points: 2
#     Edge 221, Type (0, 1), BuildingBlock: XIVTED_clean_linker_0, # of connection points: 2
#     Edge 222, Type (0, 1), BuildingBlock: XIVTED_clean_linker_0, # of connection points: 2
#     Edge 223, Type (0, 1), BuildingBlock: XIVTED_clean_linker_0, # of connection points: 2
#     Edge 224, Type (0, 1), BuildingBlock: XIVTED_clean_linker_0, # of connection points: 2
#     Edge 225, Type (0, 1), BuildingBlock: XIVTED_clean_linker_0, # of connection points: 2
#     Edge 226, Type (0, 1), BuildingBlock: XIVTED_clean_linker_0, # of connection points: 2
#     Edge 227, Type (0, 1), BuildingBlock: XIVTED_clean_linker_0, # of connection points: 2
#     Edge 228, Type (0, 1), BuildingBlock: XIVTED_clean_linker_0, # of connection points: 2
#     Edge 229, Type (0, 1), BuildingBlock: XIVTED_clean_linker_0, # of connection points: 2
#     Edge 230, Type (0, 1), BuildingBlock: XIVTED_clean_linker_0, # of connection points: 2
#     Edge 231, Type (0, 1), BuildingBlock: XIVTED_clean_linker_0, # of connection points: 2
#     Edge 232, Type (0, 1), BuildingBlock: XIVTED_clean_linker_0, # of connection points: 2
#     Edge 233, Type (0, 1), BuildingBlock: XIVTED_clean_linker_0, # of connection points: 2
#     Edge 234, Type (0, 1), BuildingBlock: XIVTED_clean_linker_0, # of connection points: 2
#     Edge 235, Type (0, 1), BuildingBlock: XIVTED_clean_linker_0, # of connection points: 2
#     Edge 236, Type (0, 1), BuildingBlock: XIVTED_clean_linker_0, # of connection points: 2
#     Edge 237, Type (0, 1), BuildingBlock: XIVTED_clean_linker_0, # of connection points: 2
#     Edge 238, Type (0, 1), BuildingBlock: XIVTED_clean_linker_0, # of connection points: 2
#     Edge 239, Type (0, 1), BuildingBlock: XIVTED_clean_linker_0, # of connection points: 2
# Relax obj value: 0.044
# Max RMSD: 0.116
# Mean RMSD: 0.055
data_MOF--net-bpr--node1-WUSLED_clean_sbu_0--node2-BETDIP_clean_linker_0--edge1-XIVTED_clean_linker_0
_symmetry_space_group_name_H-M    P1
_symmetry_Int_Tables_number       1
_symmetry_cell_setting            triclinic
loop_
_symmetry_equiv_pos_as_xyz
'x, y, z'
_cell_length_a     104.1029
_cell_length_b     107.59772
_cell_length_c     110.41991
_cell_angle_alpha  95.803157
_cell_angle_beta   93.376232
_cell_angle_gamma 97.717073
loop_
_atom_site_label
_atom_site_type_symbol
_atom_site_fract_x
_atom_site_fract_y
_atom_site_fract_z
_atom_type_partial_charge
C0 C 0.96392 0.38018 0.25087 0.0
C1 C 0.96358 0.37849 0.26328 0.0
C2 C 0.94536 0.3904 0.26506 0.0
C3 C 0.95441 0.38352 0.27029 0.0
C4 C 0.94553 0.39186 0.25253 0.0
C5 C 0.95479 0.38682 0.24549 0.0
U6 U 0.99424 0.36541 0.25184 0.0
O7 O 1.00164 0.35064 0.23994 0.0
O8 O 0.013 0.36954 0.24393 0.0
C9 C 0.01207 0.35825 0.23787 0.0
C10 C 0.97422 0.37546 0.24389 0.0
C11 C 0.01601 0.35761 0.22524 0.0
C12 C 0.02013 0.36708 0.20648 0.0
C13 C 0.01458 0.36723 0.21776 0.0
C14 C 0.02807 0.34747 0.20986 0.0
C15 C 0.02725 0.35736 0.20258 0.0
C16 C 0.02251 0.3476 0.22106 0.0
C17 C 0.00575 0.35866 0.2839 0.0
C18 C 0.02597 0.35059 0.28854 0.0
C19 C 0.01289 0.35695 0.30489 0.0
C20 C 0.00376 0.36007 0.29636 0.0
C21 C 0.0242 0.35236 0.30111 0.0
C22 C 0.01683 0.35376 0.27999 0.0
C23 C 0.9965 0.36297 0.27527 0.0
O24 O 0.98582 0.38197 0.24662 0.0
O25 O 0.97429 0.36319 0.24332 0.0
O26 O 0.99002 0.35425 0.26715 0.0
O27 O 1.00081 0.37337 0.27063 0.0
H28 H 0.97055 0.37339 0.2676 0.0
H29 H 0.95441 0.38201 0.27984 0.0
H30 H 0.93874 0.39717 0.24825 0.0
H31 H 0.95495 0.38826 0.23593 0.0
H32 H 0.01938 0.37486 0.2011 0.0
H33 H 0.0096 0.37506 0.22082 0.0
H34 H 0.0333 0.33975 0.20702 0.0
H35 H 0.02371 0.34008 0.22668 0.0
H36 H 0.03464 0.34717 0.28535 0.0
H37 H 0.01116 0.35826 0.31449 0.0
H38 H 0.99524 0.36382 0.29951 0.0
H39 H 0.01852 0.35267 0.27037 0.0
C40 C 0.92419 0.80324 0.54907 0.0
C41 C 0.92168 0.80513 0.56141 0.0
C42 C 0.92153 0.78275 0.56325 0.0
C43 C 0.92036 0.79501 0.56843 0.0
C44 C 0.92394 0.78087 0.55082 0.0
C45 C 0.92529 0.79106 0.54379 0.0
U46 U 0.92452 0.83791 0.5488 0.0
O47 O 0.93714 0.85245 0.54062 0.0
O48 O 0.91603 0.84951 0.53608 0.0
C49 C 0.92741 0.8554 0.53385 0.0
C50 C 0.92568 0.81408 0.5419 0.0
C51 C 0.92957 0.85638 0.5209 0.0
C52 C 0.92615 0.84802 0.49949 0.0
C53 C 0.92504 0.84639 0.51183 0.0
C54 C 0.93683 0.86941 0.50521 0.0
C55 C 0.93188 0.85962 0.49604 0.0
C56 C 0.93565 0.8678 0.51752 0.0
C57 C 0.91818 0.85477 0.57999 0.0
C58 C 0.91873 0.87737 0.58501 0.0
C59 C 0.91215 0.86298 0.59977 0.0
C60 C 0.91394 0.85279 0.59151 0.0
C61 C 0.91462 0.87541 0.59669 0.0
C62 C 0.92051 0.8671 0.57671 0.0
C63 C 0.91999 0.84374 0.57166 0.0
O64 O 0.91509 0.8193 0.54024 0.0
O65 O 0.93605 0.82239 0.54525 0.0
O66 O 0.93174 0.84349 0.56796 0.0
O67 O 0.91073 0.84005 0.56294 0.0
H68 H 0.92075 0.81447 0.56563 0.0
H69 H 0.91827 0.79678 0.57789 0.0
H70 H 0.925 0.77158 0.54659 0.0
H71 H 0.92724 0.78944 0.53427 0.0
H72 H 0.9224 0.84024 0.49265 0.0
H73 H 0.92039 0.83746 0.51426 0.0
H74 H 0.94116 0.8785 0.50288 0.0
H75 H 0.93919 0.87561 0.5244 0.0
H76 H 0.92076 0.88682 0.58239 0.0
H77 H 0.90871 0.8611 0.60856 0.0
H78 H 0.91199 0.84332 0.59414 0.0
H79 H 0.92375 0.86876 0.56779 0.0
C80 C 0.48082 0.62897 0.71971 0.0
C81 C 0.47216 0.63778 0.72167 0.0
C82 C 0.46401 0.63386 0.7003 0.0
C83 C 0.46388 0.64025 0.71206 0.0
C84 C 0.47299 0.62531 0.69831 0.0
C85 C 0.48131 0.62288 0.70795 0.0
U86 U 0.4853 0.62765 0.75354 0.0
O87 O 0.48955 0.61238 0.76428 0.0
O88 O 0.5026 0.63041 0.76651 0.0
C89 C 0.50057 0.61874 0.76932 0.0
C90 C 0.48845 0.62534 0.73009 0.0
C91 C 0.51196 0.61183 0.76995 0.0
C92 C 0.52071 0.59205 0.77111 0.0
C93 C 0.51031 0.59856 0.76845 0.0
C94 C 0.53479 0.61192 0.77629 0.0
C95 C 0.53298 0.59866 0.77538 0.0
C96 C 0.52438 0.61843 0.77366 0.0
C97 C 0.46034 0.64115 0.77306 0.0
C98 C 0.46036 0.63938 0.79481 0.0
C99 C 0.44311 0.64836 0.7846 0.0
C100 C 0.44889 0.64662 0.77356 0.0
C101 C 0.44869 0.64463 0.79534 0.0
C102 C 0.46613 0.63765 0.78375 0.0
C103 C 0.46576 0.6386 0.76124 0.0
O104 O 0.4946 0.63473 0.73771 0.0
O105 O 0.48231 0.61631 0.73563 0.0
O106 O 0.46465 0.62661 0.75705 0.0
O107 O 0.47728 0.64484 0.76002 0.0
H108 H 0.47157 0.64251 0.73072 0.0
H109 H 0.45723 0.64701 0.71388 0.0
H110 H 0.47324 0.62011 0.68942 0.0
H111 H 0.48785 0.61596 0.7063 0.0
H112 H 0.51904 0.58184 0.7702 0.0
H113 H 0.50087 0.59315 0.7657 0.0
H114 H 0.54406 0.61731 0.77971 0.0
H115 H 0.52594 0.62864 0.77509 0.0
H116 H 0.46499 0.63655 0.80293 0.0
H117 H 0.43404 0.65225 0.78462 0.0
H118 H 0.44427 0.64931 0.76536 0.0
H119 H 0.47499 0.6334 0.7835 0.0
C120 C 0.61216 0.21547 0.05216 0.0
C121 C 0.61563 0.21594 0.06468 0.0
C122 C 0.61095 0.23753 0.06794 0.0
C123 C 0.61504 0.22685 0.07249 0.0
C124 C 0.60772 0.23711 0.05532 0.0
C125 C 0.60828 0.22613 0.04749 0.0
U126 U 0.61747 0.18172 0.04983 0.0
O127 O 0.60626 0.16439 0.04025 0.0
O128 O 0.62665 0.16973 0.03655 0.0
C129 C 0.6159 0.16179 0.03372 0.0
C130 C 0.61217 0.20365 0.04422 0.0
C131 C 0.61254 0.158 0.02065 0.0
C132 C 0.60476 0.1622 1.00047 0.0
C133 C 0.6081 0.1663 0.01286 0.0
C134 C 0.61036 0.14156 0.00364 0.0
C135 C 0.60576 0.14973 0.99575 0.0
C136 C 0.61369 0.14566 0.01595 0.0
C137 C 0.6277 0.16989 0.08017 0.0
C138 C 0.6237 0.14865 0.08613 0.0
C139 C 0.6399 0.16428 0.09774 0.0
C140 C 0.63726 0.17314 0.08986 0.0
C141 C 0.63295 0.15201 0.09614 0.0
C142 C 0.62111 0.1575 0.07819 0.0
C143 C 0.62431 0.17975 0.07273 0.0
O144 O 0.62367 0.20003 0.04316 0.0
O145 O 0.60318 0.19445 0.04624 0.0
O146 O 0.61215 0.17854 0.06832 0.0
O147 O 0.6327 0.18331 0.06488 0.0
H148 H 0.61868 0.20779 0.06844 0.0
H149 H 0.6178 0.22692 0.08211 0.0
H150 H 0.60445 0.24516 0.05156 0.0
H151 H 0.60552 0.2259 0.03785 0.0
H152 H 0.6012 0.1687 0.99465 0.0
H153 H 0.60716 0.17588 0.01638 0.0
H154 H 0.61151 0.13199 1.00028 0.0
H155 H 0.61716 0.13915 0.02183 0.0
H156 H 0.61808 0.13932 0.08467 0.0
H157 H 0.64728 0.16713 0.1052 0.0
H158 H 0.6425 0.18263 0.09148 0.0
H159 H 0.61373 0.15476 0.07072 0.0
C160 C 0.98331 0.61679 0.23871 0.0
C161 C 0.98249 0.62038 0.22686 0.0
C162 C 0.96 0.6103 0.22368 0.0
C163 C 0.97096 0.61723 0.21945 0.0
C164 C 0.96081 0.60684 0.23564 0.0
C165 C 0.9724 0.61005 0.24309 0.0
U166 U 0.01932 0.6259 0.23961 0.0
O167 O 0.03318 0.6393 0.25207 0.0
O168 O 0.03573 0.61929 0.24924 0.0
C169 C 0.03971 0.6304 0.25538 0.0
C170 C 0.99575 0.61963 0.24616 0.0
C171 C 0.04276 0.63051 0.26858 0.0
C172 C 0.03952 0.62174 0.28781 0.0
C173 C 0.03565 0.62213 0.2755 0.0
C174 C 0.05731 0.63843 0.2865 0.0
C175 C 0.05055 0.62973 0.2934 0.0
C176 C 0.05346 0.63878 0.27422 0.0
C177 C 0.03259 0.63012 0.20824 0.0
C178 C 0.05479 0.63855 0.2049 0.0
C179 C 0.0398 0.62932 0.18773 0.0
C180 C 0.03007 0.62677 0.19566 0.0
C181 C 0.05227 0.63531 0.19222 0.0
C182 C 0.04502 0.63596 0.21286 0.0
C183 C 0.02207 0.62736 0.21629 0.0
O184 O 0.00383 0.6114 0.24407 0.0
O185 O 1.00139 0.63139 0.24676 0.0
O186 O 0.01968 0.63688 0.22385 0.0
O187 O 0.02196 0.61681 0.22134 0.0
H188 H 0.99084 0.62554 0.22329 0.0
H189 H 0.97064 0.62027 0.2104 0.0
H190 H 0.9526 0.6014 0.23914 0.0
H191 H 0.9729 0.60712 0.25219 0.0
H192 H 0.03415 0.61486 0.29281 0.0
H193 H 0.02731 0.61568 0.27133 0.0
H194 H 0.06569 0.64489 0.29056 0.0
H195 H 0.05903 0.64537 0.26905 0.0
H196 H 0.06424 0.64326 0.20866 0.0
H197 H 0.03758 0.62646 0.17806 0.0
H198 H 0.02055 0.62217 0.19196 0.0
H199 H 0.04713 0.63857 0.22258 0.0
C200 C 0.62394 0.75742 0.46548 0.0
C201 C 0.62078 0.75628 0.45285 0.0
C202 C 0.62828 0.73573 0.45044 0.0
C203 C 0.62284 0.74554 0.44543 0.0
C204 C 0.63135 0.73687 0.46314 0.0
C205 C 0.62921 0.74764 0.47059 0.0
U206 U 0.62174 0.79189 0.46686 0.0
O207 O 0.60905 0.80407 0.47593 0.0
O208 O 0.63026 0.80832 0.47977 0.0
C209 C 0.61881 0.81133 0.48232 0.0
C210 C 0.62241 0.76912 0.47308 0.0
C211 C 0.61701 0.8152 0.49524 0.0
C212 C 0.60551 0.8131 0.51368 0.0
C213 C 0.60817 0.80818 0.50198 0.0
C214 C 0.62081 0.83183 0.51216 0.0
C215 C 0.61157 0.82513 0.51876 0.0
C216 C 0.62347 0.82692 0.50054 0.0
C217 C 0.62466 0.8058 0.43626 0.0
C218 C 0.61823 0.8135 0.4172 0.0
C219 C 0.63301 0.82709 0.43224 0.0
C220 C 0.63227 0.81752 0.43996 0.0
C221 C 0.62608 0.82517 0.42071 0.0
C222 C 0.61758 0.80392 0.42488 0.0
C223 C 0.62426 0.79527 0.44387 0.0
O224 O 0.63269 0.77782 0.47424 0.0
O225 O 0.6115 0.77364 0.47074 0.0
O226 O 0.613 0.79169 0.44815 0.0
O227 O 0.63419 0.79564 0.45189 0.0
H228 H 0.6168 0.76377 0.44868 0.0
H229 H 0.62011 0.74493 0.43575 0.0
H230 H 0.63568 0.72958 0.4673 0.0
H231 H 0.63185 0.74841 0.48031 0.0
H232 H 0.59834 0.80772 0.51853 0.0
H233 H 0.60305 0.7991 0.49807 0.0
H234 H 0.62584 0.84101 0.5159 0.0
H235 H 0.63032 0.8325 0.49551 0.0
H236 H 0.61255 0.81175 0.40851 0.0
H237 H 0.63925 0.83589 0.43521 0.0
H238 H 0.63781 0.81924 0.44873 0.0
H239 H 0.61161 0.79497 0.42188 0.0
C240 C 0.52592 0.41674 0.72456 0.0
C241 C 0.52334 0.4226 0.71405 0.0
C242 C 0.54628 0.42489 0.71012 0.0
C243 C 0.53341 0.4267 0.70696 0.0
C244 C 0.54885 0.41922 0.72079 0.0
C245 C 0.53875 0.41519 0.72794 0.0
U246 U 0.49101 0.40211 0.7249 0.0
O247 O 0.48167 0.38684 0.73466 0.0
O248 O 0.47578 0.40572 0.73719 0.0
C249 C 0.47473 0.39435 0.74075 0.0
C250 C 0.51521 0.41159 0.73155 0.0
C251 C 0.47438 0.39359 0.75407 0.0
C252 C 0.47503 0.38138 0.77149 0.0
C253 C 0.47673 0.38256 0.75915 0.0
C254 C 0.46872 0.40228 0.77395 0.0
C255 C 0.47085 0.39118 0.77901 0.0
C256 C 0.47042 0.40345 0.76165 0.0
C257 C 0.47056 0.39677 0.6945 0.0
C258 C 0.44865 0.38528 0.69194 0.0
C259 C 0.45682 0.3977 0.67618 0.0
C260 C 0.46866 0.40116 0.6831 0.0
C261 C 0.44666 0.38976 0.68053 0.0
C262 C 0.46049 0.38881 0.6989 0.0
C263 C 0.48293 0.40089 0.70179 0.0
O264 O 0.50551 0.41823 0.73239 0.0
O265 O 0.51136 0.39941 0.729 0.0
O266 O 0.48842 0.39194 0.70643 0.0
O267 O 0.48315 0.41102 0.70955 0.0
H268 H 0.51349 0.42382 0.71121 0.0
H269 H 0.53108 0.43121 0.69894 0.0
H270 H 0.55859 0.41751 0.72341 0.0
H271 H 0.54092 0.4106 0.73596 0.0
H272 H 0.47685 0.37274 0.77511 0.0
H273 H 0.47962 0.3747 0.75354 0.0
H274 H 0.46524 0.40993 0.77938 0.0
H275 H 0.46826 0.41198 0.75802 0.0
H276 H 0.44097 0.37927 0.69559 0.0
H277 H 0.45564 0.40119 0.66737 0.0
H278 H 0.47633 0.40732 0.67959 0.0
H279 H 0.46176 0.38543 0.70775 0.0
C280 C 0.87051 0.20635 0.00812 0.0
C281 C 0.86496 0.19375 0.00832 0.0
C282 C 0.87615 0.19316 0.02822 0.0
C283 C 0.86766 0.18726 0.01828 0.0
C284 C 0.88154 0.20587 0.02808 0.0
C285 C 0.87874 0.2124 0.0181 0.0
U286 U 0.86484 0.20385 0.97408 0.0
O287 O 0.85193 0.21234 0.9618 0.0
O288 O 0.87303 0.21526 0.96021 0.0
C289 C 0.86165 0.21808 0.95645 0.0
C290 C 0.86849 0.21282 0.99715 0.0
C291 C 0.86099 0.23129 0.95399 0.0
C292 C 0.84805 0.24686 0.94708 0.0
C293 C 0.84886 0.23535 0.95175 0.0
C294 C 0.8715 0.25077 0.94728 0.0
C295 C 0.85935 0.2545 0.94442 0.0
C296 C 0.87232 0.23929 0.95198 0.0
C297 C 0.86331 0.17084 0.95712 0.0
C298 C 0.86701 0.16621 0.93571 0.0
C299 C 0.85661 0.14977 0.94676 0.0
C300 C 0.85758 0.15832 0.95729 0.0
C301 C 0.86143 0.15356 0.93586 0.0
C302 C 0.86789 0.17478 0.94623 0.0
C303 C 0.86462 0.17954 0.96843 0.0
O304 O 0.87797 0.21291 0.9898 0.0
O305 O 0.85689 0.20999 0.99135 0.0
O306 O 0.85417 0.18453 0.97119 0.0
O307 O 0.87533 0.1877 0.97012 0.0
H308 H 0.85866 0.18883 1.00067 0.0
H309 H 0.86313 0.17758 0.01815 0.0
H310 H 0.88822 0.21067 0.03549 0.0
H311 H 0.88324 0.22208 0.01806 0.0
H312 H 0.83853 0.24939 0.94487 0.0
H313 H 0.83994 0.22934 0.95302 0.0
H314 H 0.8804 0.25652 0.94548 0.0
H315 H 0.88183 0.23644 0.95349 0.0
H316 H 0.87095 0.16945 0.92754 0.0
H317 H 0.85201 0.14019 0.94717 0.0
H318 H 0.85391 0.15513 0.9656 0.0
H319 H 0.8723 0.18444 0.94589 0.0
C320 C 0.23751 0.98791 0.35179 0.0
C321 C 0.23996 1.0002 0.34848 0.0
C322 C 0.21708 1.00245 0.3493 0.0
C323 C 0.22987 0.00738 0.34721 0.0
C324 C 0.21457 0.98997 0.35226 0.0
C325 C 0.22474 0.98276 0.35355 0.0
U326 U 0.27332 0.98983 0.35717 0.0
O327 O 0.28591 0.98206 0.37031 0.0
O328 O 0.28765 0.97792 0.35061 0.0
C329 C 0.2913 0.97565 0.36169 0.0
C330 C 0.24851 0.98102 0.35419 0.0
C331 C 0.29268 0.96239 0.36327 0.0
C332 C 0.29008 0.94425 0.3749 0.0
C333 C 0.28741 0.95634 0.37295 0.0
C334 C 0.30299 0.94394 0.35737 0.0
C335 C 0.29803 0.93797 0.36721 0.0
C336 C 0.30038 0.95601 0.35546 0.0
C337 C 0.29151 0.02341 0.35649 0.0
C338 C 0.31341 0.0316 0.36506 0.0
C339 C 0.30168 0.04402 0.35232 0.0
C340 C 0.29111 0.0344 0.35077 0.0
C341 C 0.31286 0.04285 0.35966 0.0
C342 C 0.30281 0.02194 0.36348 0.0
C343 C 0.2798 0.01399 0.35548 0.0
O344 O 0.25638 0.98027 0.34534 0.0
O345 O 0.25471 0.98431 0.365 0.0
O346 O 0.27654 0.00944 0.36565 0.0
O347 O 0.27857 0.00535 0.34602 0.0
H348 H 0.24977 0.00437 0.34712 0.0
H349 H 0.23211 0.01687 0.34471 0.0
H350 H 0.20483 0.98595 0.354 0.0
H351 H 0.2227 0.97331 0.3562 0.0
H352 H 0.28602 0.93987 0.3825 0.0
H353 H 0.28145 0.96102 0.37916 0.0
H354 H 0.30933 0.93949 0.35139 0.0
H355 H 0.30469 0.96052 0.34803 0.0
H356 H 0.32184 0.03043 0.37083 0.0
H357 H 0.30103 0.05245 0.34785 0.0
H358 H 0.28249 0.03565 0.34529 0.0
H359 H 0.3033 0.01348 0.36794 0.0
C360 C 0.18768 0.96917 0.63767 0.0
C361 C 0.17558 0.96583 0.63102 0.0
C362 C 0.1736 0.9449 0.63789 0.0
C363 C 0.16864 0.95378 0.63108 0.0
C364 C 0.18578 0.94826 0.64446 0.0
C365 C 0.19277 0.9603 0.64432 0.0
U366 U 0.18707 0.00388 0.63517 0.0
O367 O 0.1969 0.02075 0.64677 0.0
O368 O 0.20018 0.0181 0.62725 0.0
C369 C 0.20341 0.02494 0.63782 0.0
C370 C 0.19467 0.98207 0.63827 0.0
C371 C 0.21734 0.02966 0.64074 0.0
C372 C 0.24006 0.03019 0.63643 0.0
C373 C 0.22711 0.02443 0.63454 0.0
C374 C 0.23373 0.04611 0.65112 0.0
C375 C 0.24346 0.04129 0.64452 0.0
C376 C 0.22081 0.04037 0.64921 0.0
C377 C 0.155 0.01529 0.62748 0.0
C378 C 0.15313 0.03765 0.62956 0.0
C379 C 0.1352 0.02248 0.61993 0.0
C380 C 0.14243 0.01267 0.62172 0.0
C381 C 0.14043 0.03507 0.62393 0.0
C382 C 0.16036 0.02785 0.63128 0.0
C383 C 0.16243 0.00492 0.62954 0.0
O384 O 0.19512 0.98701 0.62785 0.0
O385 O 0.19186 0.98991 0.64733 0.0
O386 O 0.16734 0.00501 0.6408 0.0
O387 O 0.17069 1.0026 0.62133 0.0
H388 H 0.1714 0.97261 0.62595 0.0
H389 H 0.1592 0.95155 0.62608 0.0
H390 H 0.1899 0.9416 0.64972 0.0
H391 H 0.20206 0.96274 0.64956 0.0
H392 H 0.24729 0.02628 0.63114 0.0
H393 H 0.2247 0.01614 0.62796 0.0
H394 H 0.23604 0.05449 0.65759 0.0
H395 H 0.21345 0.04456 0.6541 0.0
H396 H 0.15748 0.04726 0.6326 0.0
H397 H 0.12542 0.02018 0.61567 0.0
H398 H 0.13816 0.00302 0.61872 0.0
H399 H 0.17012 0.03005 0.63564 0.0
C400 C 0.21502 0.02356 0.87442 0.0
C401 C 0.20164 0.02138 0.87103 0.0
C402 C 0.19986 0.04347 0.87702 0.0
C403 C 0.19418 0.03122 0.87222 0.0
C404 C 0.21333 0.04567 0.88028 0.0
C405 C 0.22084 0.03578 0.879 0.0
U406 U 0.21555 0.98918 0.87674 0.0
O407 O 0.22369 0.9744 0.86568 0.0
O408 O 0.22964 0.97855 0.88527 0.0
C409 C 0.23137 0.97213 0.87485 0.0
C410 C 0.22264 0.01293 0.87389 0.0
C411 C 0.24492 0.97066 0.8724 0.0
C412 C 0.26272 0.97108 0.859 0.0
C413 C 0.25036 0.97395 0.8616 0.0
C414 C 0.2645 0.96196 0.8781 0.0
C415 C 0.26988 0.96491 0.86717 0.0
C416 C 0.25218 0.96479 0.88066 0.0
C417 C 0.18317 0.97095 0.88411 0.0
C418 C 0.17715 0.94818 0.88102 0.0
C419 C 0.16417 0.96111 0.89307 0.0
C420 C 0.17253 0.97191 0.89116 0.0
C421 C 0.1663 0.94913 0.88791 0.0
C422 C 0.18556 0.95901 0.87917 0.0
C423 C 0.19144 0.98254 0.88182 0.0
O424 O 0.22453 0.00832 0.88433 0.0
O425 O 0.21922 0.00413 0.86468 0.0
O426 O 0.19501 0.98298 0.87063 0.0
O427 O 0.20088 0.98686 0.89022 0.0
H428 H 0.19688 0.012 0.86758 0.0
H429 H 0.18391 0.02918 0.86937 0.0
H430 H 0.21802 0.05494 0.88412 0.0
H431 H 0.23113 0.03763 0.88179 0.0
H432 H 0.26663 0.97359 0.85057 0.0
H433 H 0.24498 0.97848 0.85504 0.0
H434 H 0.26961 0.95702 0.8845 0.0
H435 H 0.24814 0.96203 0.88897 0.0
H436 H 0.17913 0.93908 0.87704 0.0
H437 H 0.15583 0.96218 0.8983 0.0
H438 H 0.17055 0.98106 0.89504 0.0
H439 H 0.19381 0.95807 0.87379 0.0
C440 C 0.26643 0.0153 0.1248 0.0
C441 C 0.26501 1.00209 0.12257 0.0
C442 C 0.24503 1.00025 0.13305 0.0
C443 C 0.25441 0.99467 0.12657 0.0
C444 C 0.24635 0.01352 0.13511 0.0
C445 C 0.257 0.02098 0.13103 0.0
U446 U 0.30116 0.01608 0.11846 0.0
O447 O 0.31281 0.02327 0.10397 0.0
O448 O 0.31874 0.02985 0.12326 0.0
C449 C 0.32097 0.03095 0.11178 0.0
C450 C 0.27823 0.02288 0.12133 0.0
C451 C 0.32483 0.0438 0.10844 0.0
C452 C 0.32887 0.0666 0.11357 0.0
C453 C 0.32326 0.05465 0.11612 0.0
C454 C 0.3371 0.05706 0.09533 0.0
C455 C 0.33618 0.06789 0.10332 0.0
C456 C 0.33151 0.04516 0.09788 0.0
C457 C 0.31439 0.98504 0.12241 0.0
C458 C 0.33627 0.98141 0.11811 0.0
C459 C 0.32186 0.96538 0.1265 0.0
C460 C 0.31213 0.97313 0.12657 0.0
C461 C 0.33405 0.96942 0.12227 0.0
C462 C 0.32651 0.98918 0.11821 0.0
C463 C 0.30398 0.99297 0.12262 0.0
O464 O 0.28778 0.02534 0.12993 0.0
O465 O 0.28208 0.01912 0.11059 0.0
O466 O 0.29978 0.99591 0.11197 0.0
O467 O 0.30559 1.00255 0.13121 0.0
H468 H 0.27222 0.99748 0.11787 0.0
H469 H 0.25359 0.98452 0.12459 0.0
H470 H 0.23937 0.01811 0.14016 0.0
H471 H 0.258 0.03115 0.13295 0.0
H472 H 0.32805 0.07473 0.11996 0.0
H473 H 0.31815 0.05388 0.12434 0.0
H474 H 0.34247 0.05775 0.08726 0.0
H475 H 0.33285 0.03694 0.09182 0.0
H476 H 0.34559 0.98484 0.1149 0.0
H477 H 0.31975 0.95613 0.12958 0.0
H478 H 0.3028 0.9698 0.12983 0.0
H479 H 0.32841 0.99841 0.11502 0.0
C480 C 0.41627 0.28264 0.03098 0.0
C481 C 0.4133 0.28421 0.04322 0.0
C482 C 0.41548 0.26226 0.04528 0.0
C483 C 0.4129 0.27415 0.05029 0.0
C484 C 0.41829 0.26067 0.03294 0.0
C485 C 0.41871 0.27081 0.02585 0.0
U486 U 0.41375 0.31684 0.03076 0.0
O487 O 0.42564 0.33245 0.02348 0.0
O488 O 0.40482 0.32788 0.01767 0.0
C489 C 0.41585 0.33508 0.01659 0.0
C490 C 0.41696 0.29351 0.02383 0.0
C491 C 0.41866 0.33814 0.00426 0.0
C492 C 0.4244 0.33271 0.98353 0.0
C493 C 0.42146 0.32912 0.99505 0.0
C494 C 0.42167 0.35424 0.99043 0.0
C495 C 0.42468 0.34537 0.98116 0.0
C496 C 0.41871 0.35065 1.00183 0.0
C497 C 0.40624 0.33368 0.06127 0.0
C498 C 0.3972 0.35335 0.06453 0.0
C499 C 0.40901 0.34582 0.08123 0.0
C500 C 0.41107 0.33528 0.07352 0.0
C501 C 0.40201 0.35495 0.07685 0.0
C502 C 0.39936 0.34283 0.05678 0.0
C503 C 0.40848 0.32237 0.05345 0.0
O504 O 0.40587 0.29785 0.02196 0.0
O505 O 0.4267 0.30249 0.02737 0.0
O506 O 0.42038 0.32238 0.05009 0.0
O507 O 0.39951 0.318 0.04461 0.0
H508 H 0.41134 0.29328 0.04733 0.0
H509 H 0.41047 0.27566 0.05967 0.0
H510 H 0.4204 0.25167 0.02883 0.0
H511 H 0.42103 0.26944 0.01641 0.0
H512 H 0.4267 0.32567 0.97658 0.0
H513 H 0.42146 0.31939 0.9968 0.0
H514 H 0.4215 0.36399 0.98886 0.0
H515 H 0.41651 0.35772 0.00882 0.0
H516 H 0.39187 0.36029 0.06088 0.0
H517 H 0.4127 0.3467 0.09071 0.0
H518 H 0.41639 0.32832 0.07715 0.0
H519 H 0.39564 0.34184 0.04731 0.0
C520 C 0.03696 0.91582 0.2408 0.0
C521 C 0.03442 0.92112 0.22995 0.0
C522 C 0.05718 0.92212 0.22557 0.0
C523 C 0.04443 0.92432 0.22247 0.0
C524 C 0.05974 0.91709 0.23661 0.0
C525 C 0.0497 0.91398 0.24415 0.0
U526 U 1.00216 0.90128 0.24158 0.0
O527 O 0.99286 0.88676 0.25224 0.0
O528 O 0.98664 0.90555 0.25328 0.0
C529 C 0.98557 0.89448 0.2575 0.0
C530 C 0.02621 0.91133 0.2481 0.0
C531 C 0.98506 0.89463 0.27081 0.0
C532 C 0.99086 0.90467 0.29149 0.0
C533 C 0.99252 0.9041 0.27896 0.0
C534 C 0.97468 0.88603 0.28786 0.0
C535 C 0.98176 0.89575 0.29606 0.0
C536 C 0.97631 0.8855 0.27536 0.0
C537 C 0.98247 0.89316 0.21086 0.0
C538 C 0.95987 0.88351 0.2091 0.0
C539 C 0.97027 0.88967 0.19113 0.0
C540 C 0.98183 0.89401 0.19828 0.0
C541 C 0.95913 0.8844 0.19644 0.0
C542 C 0.97145 0.88787 0.21625 0.0
C543 C 0.99461 0.89806 0.21824 0.0
O544 O 0.01642 0.9179 0.24821 0.0
O545 O 0.02248 0.89908 0.2465 0.0
O546 O 1.00014 0.8897 0.2238 0.0
O547 O 0.99443 0.90866 0.22523 0.0
H548 H 0.02464 0.92255 0.2271 0.0
H549 H 0.04213 0.92837 0.21416 0.0
H550 H 0.06939 0.91513 0.23922 0.0
H551 H 0.05183 0.90979 0.25243 0.0
H552 H 0.99657 0.91218 0.29758 0.0
H553 H 0.9994 0.9112 0.27562 0.0
H554 H 0.96747 0.87911 0.29102 0.0
H555 H 0.97045 0.87815 0.2692 0.0
H556 H 0.95153 0.87939 0.21346 0.0
H557 H 0.97 0.8907 0.18146 0.0
H558 H 0.99024 0.89813 0.194 0.0
H559 H 0.97181 0.88716 0.22598 0.0
C560 C 0.09319 0.71782 0.56243 0.0
C561 C 0.08491 0.71853 0.57201 0.0
C562 C 0.09353 0.7407 0.57764 0.0
C563 C 0.08503 0.72984 0.57947 0.0
C564 C 0.10163 0.74003 0.56789 0.0
C565 C 0.10143 0.72871 0.56036 0.0
U566 U 0.09823 0.68365 0.56125 0.0
O567 O 0.08808 0.66635 0.55072 0.0
O568 O 0.10898 0.67187 0.54917 0.0
C569 C 0.09851 0.66389 0.54529 0.0
C570 C 0.09388 0.70567 0.55506 0.0
C571 C 0.0967 0.66009 0.53206 0.0
C572 C 0.08748 0.66216 0.51173 0.0
C573 C 0.0897 0.66662 0.52416 0.0
C574 C 0.0995 0.64486 0.51502 0.0
C575 C 0.09219 0.6511 0.50706 0.0
C576 C 0.1017 0.64931 0.52738 0.0
C577 C 0.10537 0.67155 0.59213 0.0
C578 C 0.10171 0.64993 0.59716 0.0
C579 C 0.11644 0.66573 0.61023 0.0
C580 C 0.11402 0.6748 0.60251 0.0
C581 C 0.11016 0.65323 0.60777 0.0
C582 C 0.09936 0.65901 0.58939 0.0
C583 C 0.10258 0.68149 0.58453 0.0
O584 O 0.10546 0.70204 0.55516 0.0
O585 O 0.08452 0.69641 0.55611 0.0
O586 O 0.09086 0.68012 0.579 0.0
O587 O 0.11181 0.68535 0.57759 0.0
H588 H 0.07845 0.7103 0.5739 0.0
H589 H 0.07846 0.73003 0.58671 0.0
H590 H 0.1084 0.74814 0.56627 0.0
H591 H 0.10795 0.7284 0.55307 0.0
H592 H 0.08179 0.66716 0.50585 0.0
H593 H 0.08578 0.67499 0.52763 0.0
H594 H 0.10349 0.63647 0.51169 0.0
H595 H 0.10718 0.64419 0.53334 0.0
H596 H 0.09662 0.64043 0.59503 0.0
H597 H 0.12321 0.66856 0.61817 0.0
H598 H 0.11883 0.6844 0.60473 0.0
H599 H 0.09269 0.65627 0.58136 0.0
C600 C 0.98358 0.63114 0.78637 0.0
C601 C 0.97209 0.63662 0.78655 0.0
C602 C 0.9684 0.62995 0.80666 0.0
C603 C 0.96456 0.63605 0.79663 0.0
C604 C 0.98011 0.62475 0.80651 0.0
C605 C 0.98761 0.62534 0.79645 0.0
U606 U 0.9891 0.63912 0.75404 0.0
O607 O 0.00724 0.64507 0.74557 0.0
O608 O 0.99479 0.62743 0.73834 0.0
C609 C 0.00592 0.63471 0.73792 0.0
C610 C 0.99116 0.63093 0.77557 0.0
C611 C 0.01756 0.62835 0.73679 0.0
C612 C 0.02873 0.60997 0.73789 0.0
C613 C 0.01791 0.6161 0.74008 0.0
C614 C 0.03913 0.62839 0.72953 0.0
C615 C 0.03941 0.61601 0.73248 0.0
C616 C 0.02832 0.63447 0.73165 0.0
C617 C 0.96614 0.65672 0.73691 0.0
C618 C 0.96928 0.65982 0.71574 0.0
C619 C 0.95066 0.66667 0.72526 0.0
C620 C 0.95482 0.66241 0.73619 0.0
C621 C 0.95774 0.66526 0.71486 0.0
C622 C 0.97343 0.65558 0.72667 0.0
C623 C 0.97 0.65149 0.74813 0.0
O624 O 0.98533 0.62396 0.76582 0.0
O625 O 0.99704 0.64192 0.7732 0.0
O626 O 0.98104 0.65701 0.75385 0.0
O627 O 0.96884 0.63911 0.74718 0.0
H628 H 0.96883 0.64111 0.7788 0.0
H629 H 0.95555 0.64003 0.7964 0.0
H630 H 0.98344 0.62016 0.81415 0.0
H631 H 0.99648 0.6211 0.79646 0.0
H632 H 0.0287 0.60047 0.74035 0.0
H633 H 0.00974 0.61118 0.74412 0.0
H634 H 0.04709 0.63325 0.72517 0.0
H635 H 0.02823 0.64388 0.72898 0.0
H636 H 0.97505 0.65874 0.70795 0.0
H637 H 0.94166 0.67067 0.72486 0.0
H638 H 0.94906 0.66331 0.74401 0.0
H639 H 0.98222 0.65122 0.72709 0.0
C640 C 0.09938 0.22809 0.45827 0.0
C641 C 0.1023 0.22565 0.44609 0.0
C642 C 0.10017 0.24726 0.44255 0.0
C643 C 0.10268 0.23512 0.43832 0.0
C644 C 0.09752 0.24977 0.45485 0.0
C645 C 0.09708 0.24022 0.46265 0.0
U646 U 0.10211 0.19428 0.46074 0.0
O647 O 0.11048 0.18404 0.47478 0.0
O648 O 0.08982 0.17914 0.46845 0.0
C649 C 0.09928 0.17724 0.47616 0.0
C650 C 0.09846 0.21777 0.46611 0.0
C651 C 0.09594 0.17563 0.48879 0.0
C652 C 0.10036 0.18046 0.51078 0.0
C653 C 0.10252 0.18334 0.49891 0.0
C654 C 0.08459 0.1625 0.50261 0.0
C655 C 0.09156 0.16985 0.51276 0.0
C656 C 0.0868 0.16535 0.49077 0.0
C657 C 0.1118 0.17687 0.43107 0.0
C658 C 0.10782 0.15446 0.42399 0.0
C659 C 0.123 0.16851 0.41409 0.0
C660 C 0.12069 0.17867 0.42216 0.0
C661 C 0.11638 0.15633 0.41473 0.0
C662 C 0.10554 0.16467 0.43211 0.0
C663 C 0.10878 0.188 0.43864 0.0
O664 O 0.0889 0.20858 0.46266 0.0
O665 O 0.10952 0.21368 0.46879 0.0
O666 O 0.11727 0.19259 0.44781 0.0
O667 O 0.09665 0.1878 0.44139 0.0
H668 H 0.10416 0.21634 0.44256 0.0
H669 H 0.10497 0.23292 0.42897 0.0
H670 H 0.09547 0.25901 0.45837 0.0
H671 H 0.0948 0.24226 0.47203 0.0
H672 H 0.10575 0.18641 0.51841 0.0
H673 H 0.10961 0.19136 0.49767 0.0
H674 H 0.07786 0.15419 0.50377 0.0
H675 H 0.08168 0.15922 0.48311 0.0
H676 H 0.10251 0.14522 0.42468 0.0
H677 H 0.12985 0.17023 0.40723 0.0
H678 H 0.12567 0.18801 0.42128 0.0
H679 H 0.09867 0.16308 0.43898 0.0
C680 C 0.46254 0.39159 0.24612 0.0
C681 C 0.45978 0.38642 0.2339 0.0
C682 C 0.44263 0.39949 0.2315 0.0
C683 C 0.44989 0.39027 0.2267 0.0
C684 C 0.44554 0.40481 0.24369 0.0
C685 C 0.4554 0.40085 0.25096 0.0
U686 U 0.49395 0.3781 0.24715 0.0
O687 O 0.51191 0.38265 0.25919 0.0
O688 O 0.50099 0.36352 0.25741 0.0
C689 C 0.51095 0.37131 0.26282 0.0
C690 C 0.47314 0.38759 0.25357 0.0
C691 C 0.51365 0.37063 0.27594 0.0
C692 C 0.51225 0.37804 0.2973 0.0
C693 C 0.50868 0.37846 0.28492 0.0
C694 C 0.52549 0.36177 0.29179 0.0
C695 C 0.52082 0.36976 0.30088 0.0
C696 C 0.52193 0.3622 0.27948 0.0
C697 C 0.5081 0.37054 0.21668 0.0
C698 C 0.52887 0.36272 0.21553 0.0
C699 C 0.51692 0.36647 0.19705 0.0
C700 C 0.50708 0.37038 0.20397 0.0
C701 C 0.52799 0.36268 0.20275 0.0
C702 C 0.519 0.36662 0.22244 0.0
C703 C 0.49794 0.37517 0.22385 0.0
O704 O 0.47375 0.37539 0.25225 0.0
O705 O 0.48454 0.3945 0.25348 0.0
O706 O 0.50163 0.38578 0.23092 0.0
O707 O 0.49084 0.36665 0.22927 0.0
H708 H 0.46531 0.37942 0.2299 0.0
H709 H 0.44807 0.38616 0.21729 0.0
H710 H 0.4401 0.41192 0.24764 0.0
H711 H 0.45747 0.40502 0.26033 0.0
H712 H 0.50837 0.38424 0.30406 0.0
H713 H 0.50222 0.38501 0.28235 0.0
H714 H 0.53228 0.35545 0.29414 0.0
H715 H 0.52591 0.35612 0.27267 0.0
H716 H 0.53717 0.35972 0.22019 0.0
H717 H 0.51602 0.36673 0.18726 0.0
H718 H 0.49874 0.37343 0.1994 0.0
H719 H 0.51991 0.36668 0.23227 0.0
C720 C 0.37626 0.7747 0.96546 0.0
C721 C 0.36965 0.77153 0.95387 0.0
C722 C 0.3779 0.75136 0.95194 0.0
C723 C 0.3704 0.75994 0.94721 0.0
C724 C 0.38433 0.7545 0.96365 0.0
C725 C 0.38349 0.76608 0.97035 0.0
U726 U 0.37297 0.80895 0.96426 0.0
O727 O 0.36395 0.82248 0.97615 0.0
O728 O 0.38473 0.82628 0.97321 0.0
C729 C 0.37502 0.82989 0.97909 0.0
C730 C 0.37643 0.78733 0.97201 0.0
C731 C 0.37796 0.83422 0.99213 0.0
C732 C 0.38691 0.83156 0.01239 0.0
C733 C 0.38356 0.8268 1.00016 0.0
C734 C 0.3788 0.85101 0.00866 0.0
C735 C 0.38474 0.84381 0.01673 0.0
C736 C 0.37547 0.84626 0.99649 0.0
C737 C 0.36585 0.81966 0.93302 0.0
C738 C 0.36775 0.84182 0.92982 0.0
C739 C 0.35965 0.82572 0.91316 0.0
C740 C 0.36103 0.81636 0.92086 0.0
C741 C 0.36312 0.83857 0.91751 0.0
C742 C 0.36909 0.83244 0.93751 0.0
C743 C 0.36784 0.80971 0.94082 0.0
O744 O 0.38608 0.79573 0.96966 0.0
O745 O 0.3652 0.79166 0.97198 0.0
O746 O 0.35878 0.80718 0.94836 0.0
O747 O 0.37968 0.81042 0.94591 0.0
H748 H 0.36417 0.77815 0.94985 0.0
H749 H 0.36549 0.75788 0.93816 0.0
H750 H 0.39009 0.74804 0.96758 0.0
H751 H 0.38872 0.76841 0.97925 0.0
H752 H 0.3915 0.82579 0.01836 0.0
H753 H 0.38553 0.81745 0.99691 0.0
H754 H 0.37674 0.86037 0.01175 0.0
H755 H 0.37109 0.85209 0.99043 0.0
H756 H 0.37065 0.85159 0.93344 0.0
H757 H 0.35584 0.82288 0.90381 0.0
H758 H 0.35843 0.80653 0.91727 0.0
H759 H 0.37284 0.83515 0.94691 0.0
C760 C 1.00258 0.39037 0.77235 0.0
C761 C 0.00443 0.38352 0.78232 0.0
C762 C 0.02745 0.39195 0.78446 0.0
C763 C 0.01677 0.38425 0.78828 0.0
C764 C 0.02552 0.39891 0.77456 0.0
C765 C 0.01318 0.39809 0.76852 0.0
U766 U 0.96593 0.3846 0.77289 0.0
O767 O 0.95078 0.39458 0.76528 0.0
O768 O 0.95084 0.37451 0.75927 0.0
C769 C 0.94567 0.38475 0.75763 0.0
C770 C 0.9896 0.38974 0.7661 0.0
C771 C 0.94356 0.38716 0.74486 0.0
C772 C 0.95136 0.39563 0.72664 0.0
C773 C 0.95361 0.39325 0.73876 0.0
C774 C 0.92906 0.38562 0.72657 0.0
C775 C 0.93903 0.39188 0.72043 0.0
C776 C 0.93131 0.38331 0.73869 0.0
C777 C 0.95115 0.37636 0.80233 0.0
C778 C 0.9289 0.37846 0.80673 0.0
C779 C 0.94154 0.36642 0.81908 0.0
C780 C 0.9521 0.36901 0.81204 0.0
C781 C 0.92986 0.37122 0.81658 0.0
C782 C 0.93943 0.38095 0.79962 0.0
C783 C 0.96249 0.37932 0.79525 0.0
O784 O 0.98277 0.37842 0.76415 0.0
O785 O 0.98279 0.39849 0.77022 0.0
O786 O 0.96445 0.39089 0.79223 0.0
O787 O 0.96399 0.37073 0.7863 0.0
H788 H 0.99633 0.37764 0.78552 0.0
H789 H 0.01791 0.37894 0.796 0.0
H790 H 0.03358 0.40486 0.77138 0.0
H791 H 0.0119 0.40349 0.76088 0.0
H792 H 0.95928 0.40034 0.72212 0.0
H793 H 0.96318 0.3962 0.74337 0.0
H794 H 0.91942 0.38275 0.7221 0.0
H795 H 0.92345 0.37858 0.74328 0.0
H796 H 0.91997 0.38214 0.80448 0.0
H797 H 0.9426 0.3609 0.82667 0.0
H798 H 0.96107 0.36538 0.81424 0.0
H799 H 0.93845 0.38654 0.79208 0.0
C800 C 0.35981 0.23938 0.52629 0.0
C801 C 0.34767 0.24265 0.52936 0.0
C802 C 0.35809 0.26299 0.53952 0.0
C803 C 0.34683 0.25432 0.53589 0.0
C804 C 0.37017 0.25979 0.53621 0.0
C805 C 0.37101 0.24817 0.52962 0.0
U806 U 0.35922 0.20402 0.52672 0.0
O807 O 0.35141 0.18787 0.51322 0.0
O808 O 0.37219 0.19113 0.51927 0.0
C809 C 0.36297 0.18462 0.51161 0.0
C810 C 0.36101 0.22681 0.51994 0.0
C811 C 0.36615 0.1821 0.4988 0.0
C812 C 0.38033 0.18544 0.48229 0.0
C813 C 0.37719 0.18858 0.49427 0.0
C814 C 0.36128 0.16954 0.47908 0.0
C815 C 0.37243 0.17584 0.47458 0.0
C816 C 0.35822 0.17262 0.49107 0.0
C817 C 0.35227 0.19086 0.55708 0.0
C818 C 0.35242 0.16889 0.56036 0.0
C819 C 0.34882 0.18413 0.57709 0.0
C820 C 0.34985 0.19363 0.56932 0.0
C821 C 0.3502 0.17167 0.57274 0.0
C822 C 0.35347 0.17843 0.55259 0.0
C823 C 0.35385 0.20116 0.5493 0.0
O824 O 0.37115 0.22174 0.52366 0.0
O825 O 0.35032 0.21862 0.51802 0.0
O826 O 0.34487 0.20064 0.54031 0.0
O827 O 0.3657 0.20426 0.54606 0.0
H828 H 0.33881 0.23617 0.52684 0.0
H829 H 0.33733 0.25654 0.53807 0.0
H830 H 0.37908 0.26613 0.53896 0.0
H831 H 0.38048 0.24597 0.52732 0.0
H832 H 0.38891 0.19053 0.47905 0.0
H833 H 0.38348 0.19598 0.5 0.0
H834 H 0.3551 0.16199 0.47344 0.0
H835 H 0.34971 0.16743 0.49437 0.0
H836 H 0.35363 0.15941 0.55675 0.0
H837 H 0.3469 0.18655 0.58651 0.0
H838 H 0.34886 0.20318 0.57292 0.0
H839 H 0.35539 0.17617 0.54314 0.0
C840 C 0.4704 0.61907 0.26083 0.0
C841 C 0.47063 0.62327 0.2733 0.0
C842 C 0.44906 0.61165 0.2744 0.0
C843 C 0.46006 0.61967 0.27999 0.0
C844 C 0.44876 0.60763 0.26183 0.0
C845 C 0.45937 0.6113 0.25511 0.0
U846 U 0.50637 0.62886 0.26221 0.0
O847 O 0.52173 0.62215 0.25157 0.0
O848 O 0.51884 0.64207 0.2524 0.0
C849 C 0.52507 0.63315 0.24758 0.0
C850 C 0.482 0.62214 0.25412 0.0
C851 C 0.52662 0.63283 0.23441 0.0
C852 C 0.51939 0.62505 0.21336 0.0
C853 C 0.51714 0.62607 0.22578 0.0
C854 C 0.54038 0.63791 0.21809 0.0
C855 C 0.53113 0.63081 0.20939 0.0
C856 C 0.53814 0.63889 0.23048 0.0
C857 C 0.52356 0.63337 0.29438 0.0
C858 C 0.54659 0.6408 0.29894 0.0
C859 C 0.53378 0.6318 0.31437 0.0
C860 C 0.52274 0.62993 0.30623 0.0
C861 C 0.54585 0.63716 0.3108 0.0
C862 C 0.53552 0.63886 0.29076 0.0
C863 C 0.5119 0.63066 0.28588 0.0
O864 O 0.4875 0.63398 0.25598 0.0
O865 O 0.49041 0.61409 0.25461 0.0
O866 O 0.51089 0.62001 0.27872 0.0
O867 O 0.50877 0.64011 0.28019 0.0
H868 H 0.47909 0.62921 0.27792 0.0
H869 H 0.46054 0.62315 0.28959 0.0
H870 H 0.44051 0.60136 0.25727 0.0
H871 H 0.45908 0.60787 0.24552 0.0
H872 H 0.51201 0.61963 0.20688 0.0
H873 H 0.50815 0.62137 0.22866 0.0
H874 H 0.5496 0.64232 0.2154 0.0
H875 H 0.54557 0.64413 0.23703 0.0
H876 H 0.55578 0.64486 0.29591 0.0
H877 H 0.53285 0.62906 0.32349 0.0
H878 H 0.51357 0.62567 0.30916 0.0
H879 H 0.53633 0.64148 0.28159 0.0
C880 C 0.10415 0.78744 0.01094 0.0
C881 C 0.1094 0.80016 0.01095 0.0
C882 C 0.10089 0.79991 0.98991 0.0
C883 C 0.10785 0.80631 1.00053 0.0
C884 C 0.09535 0.78725 0.99001 0.0
C885 C 0.09703 0.78105 1.00045 0.0
U886 U 0.11068 0.79024 0.04493 0.0
O887 O 0.10271 0.77904 0.05913 0.0
O888 O 0.12372 0.78168 0.05694 0.0
C889 C 0.11412 0.77602 0.0625 0.0
C890 C 0.10595 0.78102 0.02197 0.0
C891 C 0.11455 0.76266 0.06449 0.0
C892 C 0.12521 0.74379 0.06291 0.0
C893 C 0.12404 0.75585 0.05962 0.0
C894 C 0.10718 0.74498 0.07566 0.0
C895 C 0.11691 0.73828 0.07111 0.0
C896 C 0.10606 0.75703 0.07241 0.0
C897 C 0.11422 0.82422 0.06077 0.0
C898 C 0.12292 0.83121 0.08162 0.0
C899 C 0.11192 0.84515 0.07004 0.0
C900 C 0.10981 0.83588 0.06007 0.0
C901 C 0.11851 0.84295 0.08094 0.0
C902 C 0.12074 0.82188 0.07162 0.0
C903 C 0.11197 0.81477 0.05002 0.0
O904 O 0.11771 0.78335 0.02747 0.0
O905 O 0.09675 0.78162 0.02959 0.0
O906 O 0.10104 0.80696 0.04936 0.0
O907 O 0.12198 0.80921 0.04695 0.0
H908 H 0.11475 0.80535 0.01903 0.0
H909 H 0.11205 0.81612 1.0008 0.0
H910 H 0.08998 0.78208 0.98194 0.0
H911 H 0.09281 0.77126 1.00031 0.0
H912 H 0.13271 0.73883 0.05914 0.0
H913 H 0.13077 0.75992 0.0535 0.0
H914 H 0.10073 0.74112 0.08212 0.0
H915 H 0.09877 0.76214 0.07641 0.0
H916 H 0.12791 0.82918 0.08993 0.0
H917 H 0.10857 0.85414 0.06915 0.0
H918 H 0.10478 0.83784 0.05175 0.0
H919 H 0.12415 0.81289 0.07234 0.0
C920 C 0.76244 0.01832 0.63869 0.0
C921 C 0.76187 0.00615 0.64237 0.0
C922 C 0.7855 0.00799 0.64364 0.0
C923 C 0.77328 1.00106 0.64487 0.0
C924 C 0.78602 0.02017 0.63989 0.0
C925 C 0.77458 0.02529 0.63746 0.0
U926 U 0.72618 0.0133 0.63086 0.0
O927 O 0.7106 0.02333 0.63779 0.0
O928 O 0.71381 0.02204 0.61826 0.0
C929 C 0.70749 0.02695 0.6271 0.0
C930 C 0.75043 0.02365 0.63594 0.0
C931 C 0.70547 0.04035 0.62701 0.0
C932 C 0.6977 0.0589 0.63693 0.0
C933 C 0.70094 0.04674 0.63728 0.0
C934 C 0.70352 0.05865 0.61602 0.0
C935 C 0.69882 0.06497 0.62627 0.0
C936 C 0.70678 0.04647 0.61638 0.0
C937 C 0.70899 0.97924 0.62796 0.0
C938 C 0.68599 0.97325 0.62193 0.0
C939 C 0.69874 0.95779 0.62901 0.0
C940 C 0.70977 0.9669 0.63062 0.0
C941 C 0.68671 0.96086 0.62468 0.0
C942 C 0.69705 0.98239 0.6236 0.0
C943 C 0.72069 0.98868 0.63003 0.0
O944 O 0.7452 0.02068 0.62471 0.0
O945 O 0.74186 0.02269 0.6442 0.0
O946 O 0.72142 0.99633 0.64017 0.0
O947 O 0.72414 0.99447 0.62055 0.0
H948 H 0.75257 1.00056 0.64325 0.0
H949 H 0.77253 0.9916 0.64756 0.0
H950 H 0.79527 0.02579 0.63894 0.0
H951 H 0.77521 0.03468 0.6346 0.0
H952 H 0.69389 0.06336 0.64492 0.0
H953 H 0.69954 0.04223 0.64553 0.0
H954 H 0.7046 0.06309 0.60769 0.0
H955 H 0.71007 0.04177 0.60823 0.0
H956 H 0.67684 0.97594 0.61869 0.0
H957 H 0.69967 0.9483 0.63104 0.0
H958 H 0.71893 0.96432 0.63399 0.0
H959 H 0.69628 0.99192 0.62156 0.0
C960 C 0.77056 0.99549 0.36708 0.0
C961 C 0.76936 0.98334 0.37082 0.0
C962 C 0.74595 0.98068 0.36605 0.0
C963 C 0.75716 0.97602 0.37036 0.0
C964 C 0.74725 0.99276 0.36205 0.0
C965 C 0.75947 1.00013 0.3626 0.0
U966 U 0.80723 0.99823 0.37024 0.0
O967 O 0.82231 0.0097 0.36137 0.0
O968 O 0.82193 0.01192 0.38134 0.0
C969 C 0.82716 0.01618 0.37174 0.0
C970 C 0.78334 0.00334 0.36787 0.0
C971 C 0.82958 0.03001 0.37173 0.0
C972 C 0.8262 0.05123 0.37949 0.0
C973 C 0.82308 0.03813 0.37919 0.0
C974 C 0.84207 0.04825 0.36465 0.0
C975 C 0.83578 0.05642 0.37226 0.0
C976 C 0.83901 0.03519 0.36442 0.0
C977 C 0.82289 0.96847 0.37236 0.0
C978 C 0.84581 0.96907 0.37838 0.0
C979 C 0.83299 0.94942 0.36955 0.0
C980 C 0.82203 0.95556 0.36851 0.0
C981 C 0.845 0.9561 0.37453 0.0
C982 C 0.83486 0.97522 0.37725 0.0
C983 C 0.81129 0.97478 0.3711 0.0
O984 O 0.79005 0.00422 0.37847 0.0
O985 O 0.79036 1.00137 0.35854 0.0
O986 O 0.80974 0.97977 0.36082 0.0
O987 O 0.80906 0.98218 0.38074 0.0
H988 H 0.77785 0.97955 0.37418 0.0
H989 H 0.7565 0.96668 0.37333 0.0
H990 H 0.73879 0.99664 0.35877 0.0
H991 H 0.76024 0.00948 0.35964 0.0
H992 H 0.82112 0.05729 0.38536 0.0
H993 H 0.8157 0.03437 0.38488 0.0
H994 H 0.84961 0.05195 0.3591 0.0
H995 H 0.84419 0.0291 0.35866 0.0
H996 H 0.85496 0.9745 0.3821 0.0
H997 H 0.83202 0.9394 0.36662 0.0
H998 H 0.81286 0.95022 0.36469 0.0
H999 H 0.83573 0.98524 0.38016 0.0
C1000 C 0.7859 0.96223 0.14404 0.0
C1001 C 0.79805 0.96382 0.13911 0.0
C1002 C 0.80066 0.94206 0.14165 0.0
C1003 C 0.80533 0.95384 0.13788 0.0
C1004 C 0.78838 0.94046 0.14646 0.0
C1005 C 0.78107 0.95049 0.14765 0.0
U1006 U 0.78562 0.99716 0.14478 0.0
O1007 O 0.77145 0.00848 0.13768 0.0
O1008 O 0.77734 0.01072 0.15732 0.0
C1009 C 0.76968 0.01385 0.14858 0.0
C1010 C 0.7786 0.97298 0.1458 0.0
C1011 C 0.75615 0.0147 0.15138 0.0
C1012 C 0.7329 0.00773 0.14785 0.0
C1013 C 0.74572 0.00582 0.14603 0.0
C1014 C 0.74081 0.02711 0.1608 0.0
C1015 C 0.7303 0.01853 0.15509 0.0
C1016 C 0.75359 0.02521 0.15894 0.0
C1017 C 0.81712 0.01743 0.13861 0.0
C1018 C 0.82019 0.03714 0.12941 0.0
C1019 C 0.83639 0.03276 0.14445 0.0
C1020 C 0.82901 0.02113 0.14551 0.0
C1021 C 0.83207 0.04088 0.13637 0.0
C1022 C 0.81274 0.02555 0.13056 0.0
C1023 C 0.80952 0.00509 0.13994 0.0
O1024 O 0.78264 0.98097 0.1555 0.0
O1025 O 0.77647 0.97858 0.13597 0.0
O1026 O 0.80014 1.0008 0.13145 0.0
O1027 O 0.80618 0.00343 0.15103 0.0
H1028 H 0.80195 0.97285 0.13629 0.0
H1029 H 0.81463 0.95536 0.13396 0.0
H1030 H 0.78455 0.93156 0.14957 0.0
H1031 H 0.77174 0.94913 0.15155 0.0
H1032 H 0.72502 1.00086 0.14344 0.0
H1033 H 0.74747 0.99758 0.1402 0.0
H1034 H 0.73919 0.0356 0.16629 0.0
H1035 H 0.7615 0.0322 0.16312 0.0
H1036 H 0.81656 0.04326 0.1232 0.0
H1037 H 0.84558 0.03534 0.14983 0.0
H1038 H 0.8326 0.01501 0.15173 0.0
H1039 H 0.80356 0.023 0.12517 0.0
C1040 C 0.69934 0.95433 0.87689 0.0
C1041 C 0.68769 0.95329 0.88273 0.0
C1042 C 0.68583 0.93036 0.87966 0.0
C1043 C 0.68102 0.94141 0.88415 0.0
C1044 C 0.69757 0.93147 0.8739 0.0
C1045 C 0.70427 0.94336 0.87254 0.0
U1046 U 0.699 0.98929 0.87553 0.0
O1047 O 0.71344 0.00575 0.88231 0.0
O1048 O 0.70725 1.00209 0.86278 0.0
C1049 C 0.71534 0.00891 0.87129 0.0
C1050 C 0.70613 0.96678 0.87494 0.0
C1051 C 0.72905 0.01195 0.8684 0.0
C1052 C 0.74576 0.01298 0.85381 0.0
C1053 C 0.73302 0.00898 0.85661 0.0
C1054 C 0.75087 0.02279 0.87455 0.0
C1055 C 0.7548 0.02003 0.86272 0.0
C1056 C 0.73815 0.01885 0.87733 0.0
C1057 C 0.66772 0.00282 0.88178 0.0
C1058 C 0.66602 0.02499 0.88078 0.0
C1059 C 0.64782 0.01099 0.88674 0.0
C1060 C 0.65501 1.00091 0.8854 0.0
C1061 C 0.65325 0.02316 0.88447 0.0
C1062 C 0.67321 0.0149 0.87947 0.0
C1063 C 0.67516 0.99215 0.88055 0.0
O1064 O 0.70186 0.97142 0.86516 0.0
O1065 O 0.70814 0.97512 0.88466 0.0
O1066 O 0.68469 0.99249 0.88898 0.0
O1067 O 0.67843 0.98892 0.86948 0.0
H1068 H 0.68367 0.96166 0.88604 0.0
H1069 H 0.67192 0.94088 0.88846 0.0
H1070 H 0.70157 0.92314 0.87043 0.0
H1071 H 0.71324 0.944 0.86799 0.0
H1072 H 0.7485 0.01062 0.84464 0.0
H1073 H 0.72625 0.00376 0.84947 0.0
H1074 H 0.7575 0.0284 0.88158 0.0
H1075 H 0.73533 0.02147 0.88643 0.0
H1076 H 0.67054 0.03427 0.8791 0.0
H1077 H 0.63796 0.00921 0.88943 0.0
H1078 H 0.65063 0.99163 0.88719 0.0
H1079 H 0.68305 0.01653 0.8767 0.0
C1080 C 0.60053 0.72189 0.9627 0.0
C1081 C 0.60694 0.72237 0.95189 0.0
C1082 C 0.60217 0.74374 0.95038 0.0
C1083 C 0.60781 0.73321 0.94582 0.0
C1084 C 0.59585 0.74324 0.96129 0.0
C1085 C 0.59505 0.7324 0.96739 0.0
U1086 U 0.59988 0.68661 0.96066 0.0
O1087 O 0.60707 0.67411 0.97328 0.0
O1088 O 0.58628 0.67177 0.9673 0.0
C1089 C 0.59536 0.66818 0.9744 0.0
C1090 C 0.59888 0.71022 0.96869 0.0
C1091 C 0.59186 0.66557 0.98678 0.0
C1092 C 0.59743 0.66586 0.00856 0.0
C1093 C 0.60017 0.67008 0.99726 0.0
C1094 C 0.57783 0.653 0.99916 0.0
C1095 C 0.5864 0.65701 0.00956 0.0
C1096 C 0.58055 0.6572 0.98791 0.0
C1097 C 0.60561 0.66941 0.92984 0.0
C1098 C 0.61315 0.64904 0.92575 0.0
C1099 C 0.59923 0.65652 0.91053 0.0
C1100 C 0.59892 0.66756 0.91827 0.0
C1101 C 0.60633 0.64713 0.91419 0.0
C1102 C 0.61274 0.66006 0.93355 0.0
C1103 C 0.60478 0.68105 0.93788 0.0
O1104 O 0.58852 0.70219 0.9646 0.0
O1105 O 0.60939 0.70479 0.97012 0.0
O1106 O 0.61394 0.68435 0.94678 0.0
O1107 O 0.5931 0.68236 0.94125 0.0
H1108 H 0.61108 0.71427 0.94803 0.0
H1109 H 0.61258 0.73322 0.93736 0.0
H1110 H 0.5915 0.75122 0.96509 0.0
H1111 H 0.59 0.73217 0.97569 0.0
H1112 H 0.60427 0.66908 0.01638 0.0
H1113 H 0.609 0.67651 0.99668 0.0
H1114 H 0.56914 0.64635 0.99965 0.0
H1115 H 0.57402 0.65353 0.97997 0.0
H1116 H 0.61862 0.64193 0.92883 0.0
H1117 H 0.59401 0.65538 0.90162 0.0
H1118 H 0.59339 0.67465 0.91522 0.0
H1119 H 0.61791 0.66121 0.94248 0.0
C1120 C 0.96543 0.1073 0.75851 0.0
C1121 C 0.96654 0.11175 0.77097 0.0
C1122 C 0.94368 0.10411 0.77256 0.0
C1123 C 0.95577 0.11023 0.77791 0.0
C1124 C 0.94266 0.09938 0.76013 0.0
C1125 C 0.95346 0.10102 0.75315 0.0
U1126 U 1.00171 0.11425 0.75773 0.0
O1127 O 0.01555 0.10682 0.74558 0.0
O1128 O 0.01411 0.12711 0.74755 0.0
C1129 C 0.01932 0.1179 0.7419 0.0
C1130 C 0.97678 0.10918 0.75121 0.0
C1131 C 0.02042 0.11829 0.72869 0.0
C1132 C 0.01435 0.11008 0.70749 0.0
C1133 C 0.01231 0.11 0.71992 0.0
C1134 C 0.03231 0.12697 0.71247 0.0
C1135 C 0.02448 0.11848 0.70363 0.0
C1136 C 0.0303 0.12685 0.72485 0.0
C1137 C 0.02151 0.11882 0.78882 0.0
C1138 C 0.04271 0.11366 0.79538 0.0
C1139 C 0.03432 0.13127 0.80609 0.0
C1140 C 0.02307 0.12885 0.79819 0.0
C1141 C 0.04421 0.12363 0.80485 0.0
C1142 C 0.03149 0.11129 0.78741 0.0
C1143 C 0.00919 0.11612 0.78104 0.0
O1144 O 0.98318 0.12069 0.75264 0.0
O1145 O 0.98444 0.10042 0.75138 0.0
O1146 O 0.00715 0.10535 0.77397 0.0
O1147 O 0.00569 0.1256 0.77563 0.0
H1148 H 0.97575 0.11648 0.77532 0.0
H1149 H 0.95692 0.11379 0.7875 0.0
H1150 H 0.93346 0.09468 0.75576 0.0
H1151 H 0.95244 0.09746 0.74355 0.0
H1152 H 0.00806 0.1035 0.7009 0.0
H1153 H 0.00457 0.10334 0.72268 0.0
H1154 H 0.04033 0.13342 0.70989 0.0
H1155 H 0.03668 0.13329 0.73148 0.0
H1156 H 0.05022 0.10769 0.79413 0.0
H1157 H 0.03512 0.13892 0.81338 0.0
H1158 H 0.01548 0.13472 0.79952 0.0
H1159 H 0.0306 0.10351 0.78025 0.0
C1160 C 0.87388 0.28998 0.45978 0.0
C1161 C 0.86992 0.28846 0.4473 0.0
C1162 C 0.8762 0.26742 0.4452 0.0
C1163 C 0.87103 0.2773 0.44009 0.0
C1164 C 0.87984 0.26882 0.45781 0.0
C1165 C 0.87873 0.28007 0.46505 0.0
U1166 U 0.86987 0.3237 0.45903 0.0
O1167 O 0.85967 0.33683 0.47021 0.0
O1168 O 0.88062 0.3414 0.46826 0.0
C1169 C 0.87038 0.34468 0.47353 0.0
C1170 C 0.87364 0.30223 0.46691 0.0
C1171 C 0.87244 0.34943 0.48654 0.0
C1172 C 0.88186 0.34871 0.5071 0.0
C1173 C 0.87933 0.34335 0.49494 0.0
C1174 C 0.87035 0.36602 0.50259 0.0
C1175 C 0.87758 0.36023 0.511 0.0
C1176 C 0.86783 0.36068 0.49049 0.0
C1177 C 0.86335 0.33318 0.42691 0.0
C1178 C 0.86578 0.35468 0.42156 0.0
C1179 C 0.85516 0.3375 0.40697 0.0
C1180 C 0.85705 0.32895 0.41538 0.0
C1181 C 0.85958 0.35045 0.40992 0.0
C1182 C 0.86761 0.34611 0.43002 0.0
C1183 C 0.86563 0.3239 0.43539 0.0
O1184 O 0.88322 0.31097 0.46511 0.0
O1185 O 0.86226 0.30627 0.46663 0.0
O1186 O 0.8563 0.32115 0.44261 0.0
O1187 O 0.87732 0.32537 0.44099 0.0
H1188 H 0.86617 0.29602 0.44306 0.0
H1189 H 0.86794 0.27645 0.43047 0.0
H1190 H 0.88393 0.26141 0.46199 0.0
H1191 H 0.88191 0.28112 0.47466 0.0
H1192 H 0.88749 0.34404 0.51334 0.0
H1193 H 0.88294 0.33463 0.49203 0.0
H1194 H 0.86668 0.37475 0.50534 0.0
H1195 H 0.86244 0.36546 0.48415 0.0
H1196 H 0.86916 0.36461 0.42415 0.0
H1197 H 0.85049 0.33393 0.39804 0.0
H1198 H 0.85373 0.31899 0.41284 0.0
H1199 H 0.87242 0.34955 0.43892 0.0
C1200 C 0.4743 0.89033 0.76255 0.0
C1201 C 0.46231 0.88252 0.76251 0.0
C1202 C 0.45425 0.89828 0.77643 0.0
C1203 C 0.4524 0.88645 0.76938 0.0
C1204 C 0.466 0.90631 0.77599 0.0
C1205 C 0.47587 0.90242 0.76909 0.0
U1206 U 0.50419 0.87381 0.7638 0.0
O1207 O 0.51221 0.86073 0.75058 0.0
O1208 O 0.52387 0.87878 0.75792 0.0
C1209 C 0.52315 0.86839 0.75041 0.0
C1210 C 0.48534 0.88573 0.75634 0.0
C1211 C 0.5285 0.8698 0.7385 0.0
C1212 C 0.52642 0.87185 0.71673 0.0
C1213 C 0.52073 0.8707 0.72787 0.0
C1214 C 0.54758 0.87123 0.72685 0.0
C1215 C 0.53995 0.8722 0.71613 0.0
C1216 C 0.54192 0.87006 0.73787 0.0
C1217 C 0.51381 0.86219 0.79403 0.0
C1218 C 0.53271 0.85143 0.79651 0.0
C1219 C 0.52236 0.85918 0.81429 0.0
C1220 C 0.51319 0.86366 0.80672 0.0
C1221 C 0.53233 0.85313 0.8093 0.0
C1222 C 0.52356 0.85596 0.78895 0.0
C1223 C 0.50478 0.86791 0.7863 0.0
O1224 O 0.49698 0.8915 0.76036 0.0
O1225 O 0.4849 0.8734 0.75428 0.0
O1226 O 0.49851 0.86046 0.77704 0.0
O1227 O 0.50941 0.87909 0.7834 0.0
H1228 H 0.46069 0.87322 0.75746 0.0
H1229 H 0.44348 0.88002 0.76955 0.0
H1230 H 0.46763 0.91558 0.78111 0.0
H1231 H 0.48486 0.9088 0.76916 0.0
H1232 H 0.52029 0.87264 0.70866 0.0
H1233 H 0.51032 0.87052 0.72818 0.0
H1234 H 0.55797 0.87119 0.7267 0.0
H1235 H 0.54806 0.86929 0.74596 0.0
H1236 H 0.54015 0.84668 0.79235 0.0
H1237 H 0.52187 0.86086 0.82408 0.0
H1238 H 0.50579 0.86855 0.81079 0.0
H1239 H 0.52422 0.8548 0.77915 0.0
C1240 C 0.99249 0.13352 0.22664 0.0
C1241 C 0.9845 0.14301 0.22801 0.0
C1242 C 0.97739 0.13919 0.20639 0.0
C1243 C 0.97708 0.14586 0.21798 0.0
C1244 C 0.98581 0.13002 0.20497 0.0
C1245 C 0.99328 0.12719 0.21504 0.0
U1246 U 0.99401 0.1323 0.2605 0.0
O1247 O 0.99572 0.11657 0.27152 0.0
O1248 O 0.01009 0.13372 0.27461 0.0
C1249 C 0.00664 0.12219 0.27737 0.0
C1250 C 0.99886 0.12936 0.23745 0.0
C1251 C 0.01709 0.11436 0.27853 0.0
C1252 C 0.03739 0.10764 0.27248 0.0
C1253 C 0.02707 0.1145 0.27051 0.0
C1254 C 0.02756 0.1001 0.29021 0.0
C1255 C 0.03784 0.1005 0.28247 0.0
C1256 C 0.01732 0.10697 0.28825 0.0
C1257 C 0.96943 0.14844 0.27819 0.0
C1258 C 0.96854 0.1478 0.30004 0.0
C1259 C 0.95192 0.15652 0.28865 0.0
C1260 C 0.9581 0.15412 0.27793 0.0
C1261 C 0.95698 0.15326 0.29981 0.0
C1262 C 0.9747 0.14539 0.2893 0.0
C1263 C 0.9753 0.14521 0.26674 0.0
O1264 O 0.00524 0.13839 0.24534 0.0
O1265 O 0.99146 0.12087 0.24265 0.0
O1266 O 0.97328 0.13317 0.26263 0.0
O1267 O 0.98737 0.15044 0.26613 0.0
H1268 H 0.98369 0.14795 0.23693 0.0
H1269 H 0.97084 0.15309 0.21936 0.0
H1270 H 0.98618 0.1246 0.19622 0.0
H1271 H 0.99929 0.11975 0.21384 0.0
H1272 H 0.04508 0.10806 0.26629 0.0
H1273 H 0.02701 0.1201 0.26289 0.0
H1274 H 0.02768 0.09488 0.2981 0.0
H1275 H 0.0097 0.10676 0.29455 0.0
H1276 H 0.97278 0.14531 0.3085 0.0
H1277 H 0.94294 0.16056 0.2881 0.0
H1278 H 0.95388 0.15647 0.2694 0.0
H1279 H 0.98346 0.14097 0.28964 0.0
C1280 C 0.48087 0.11809 0.72789 0.0
C1281 C 0.48137 0.11464 0.71535 0.0
C1282 C 0.45782 0.11318 0.71232 0.0
C1283 C 0.46998 0.11213 0.70767 0.0
C1284 C 0.45736 0.11657 0.72493 0.0
C1285 C 0.4688 0.119 0.73265 0.0
U1286 U 0.51695 0.12825 0.73071 0.0
O1287 O 0.52984 0.14117 0.74443 0.0
O1288 O 0.53298 0.12141 0.74069 0.0
C1289 C 0.53637 0.13219 0.74757 0.0
C1290 C 0.49298 0.12118 0.73583 0.0
C1291 C 0.53824 0.13122 0.76072 0.0
C1292 C 0.53106 0.12284 0.77919 0.0
C1293 C 0.52861 0.12461 0.76692 0.0
C1294 C 0.55259 0.13465 0.77926 0.0
C1295 C 0.54316 0.12768 0.78545 0.0
C1296 C 0.55015 0.13638 0.767 0.0
C1297 C 0.5324 0.13396 0.70055 0.0
C1298 C 0.55368 0.1454 0.69799 0.0
C1299 C 0.54226 0.13107 0.68127 0.0
C1300 C 0.53195 0.12827 0.68853 0.0
C1301 C 0.55324 0.13968 0.68591 0.0
C1302 C 0.54336 0.14251 0.70529 0.0
C1303 C 0.52128 0.13081 0.70785 0.0
O1304 O 0.50147 0.11327 0.73411 0.0
O1305 O 0.49826 0.13307 0.73677 0.0
O1306 O 0.51828 0.13997 0.71551 0.0
O1307 O 0.52076 0.11997 0.71245 0.0
H1308 H 0.4906 0.11394 0.71147 0.0
H1309 H 0.47073 0.10933 0.69807 0.0
H1310 H 0.44819 0.1176 0.72881 0.0
H1311 H 0.46824 0.12176 0.7423 0.0
H1312 H 0.52353 0.11756 0.78373 0.0
H1313 H 0.51933 0.1206 0.76221 0.0
H1314 H 0.56206 0.13837 0.78374 0.0
H1315 H 0.5577 0.14147 0.76233 0.0
H1316 H 0.56207 0.15197 0.70185 0.0
H1317 H 0.54154 0.12664 0.67196 0.0
H1318 H 0.52355 0.12167 0.68471 0.0
H1319 H 0.54394 0.14695 0.7146 0.0
C1320 C 0.12087 0.25484 0.95591 0.0
C1321 C 0.1274 0.2555 0.94518 0.0
C1322 C 0.12491 0.23256 0.94167 0.0
C1323 C 0.12946 0.24449 0.93818 0.0
C1324 C 0.11857 0.23195 0.95257 0.0
C1325 C 0.11656 0.24301 0.95961 0.0
U1326 U 0.1166 0.28872 0.95536 0.0
O1327 O 0.10223 0.3001 0.96272 0.0
O1328 O 0.12303 0.30584 0.96809 0.0
C1329 C 0.11108 0.30808 0.96955 0.0
C1330 C 0.11789 0.26649 0.96269 0.0
C1331 C 0.10805 0.31195 0.98212 0.0
C1332 C 0.0969 0.30839 1.0005 0.0
C1333 C 0.10035 0.3039 0.98893 0.0
C1334 C 0.10905 0.32885 0.99861 0.0
C1335 C 0.10105 0.321 0.00538 0.0
C1336 C 0.11248 0.32438 0.98712 0.0
C1337 C 0.12149 0.30195 0.92491 0.0
C1338 C 0.11858 0.32348 0.9219 0.0
C1339 C 0.12496 0.30964 0.90529 0.0
C1340 C 0.1248 0.29996 0.91284 0.0
C1341 C 0.12179 0.3215 0.90971 0.0
C1342 C 0.11842 0.31377 0.92944 0.0
C1343 C 0.12118 0.2916 0.93262 0.0
O1344 O 0.1276 0.27581 0.96452 0.0
O1345 O 0.1069 0.2701 0.95892 0.0
O1346 O 0.10967 0.28737 0.93602 0.0
O1347 O 0.13039 0.29303 0.94151 0.0
H1348 H 0.13075 0.26455 0.9421 0.0
H1349 H 0.13457 0.24535 0.92997 0.0
H1350 H 0.11481 0.22293 0.95546 0.0
H1351 H 0.11139 0.24232 0.96781 0.0
H1352 H 0.09071 0.30211 0.00547 0.0
H1353 H 0.09682 0.29425 0.98523 0.0
H1354 H 0.11267 0.33852 1.00219 0.0
H1355 H 0.11846 0.33073 0.98203 0.0
H1356 H 0.11596 0.33245 0.92554 0.0
H1357 H 0.12767 0.30785 0.89603 0.0
H1358 H 0.12724 0.29089 0.90923 0.0
H1359 H 0.11583 0.31544 0.93877 0.0
C1360 C 0.36238 0.70154 0.50134 0.0
C1361 C 0.3644 0.68887 0.49955 0.0
C1362 C 0.36609 0.68793 0.52152 0.0
C1363 C 0.36627 0.68215 0.50953 0.0
C1364 C 0.36422 0.70069 0.52328 0.0
C1365 C 0.36236 0.70744 0.51325 0.0
U1366 U 0.35588 0.69999 0.46747 0.0
O1367 O 0.34232 0.70866 0.45596 0.0
O1368 O 0.36331 0.71199 0.45378 0.0
C1369 C 0.35175 0.71468 0.45048 0.0
C1370 C 0.35993 0.70832 0.49071 0.0
C1371 C 0.35089 0.72799 0.44896 0.0
C1372 C 0.35832 0.75042 0.45402 0.0
C1373 C 0.35835 0.73792 0.45657 0.0
C1374 C 0.34302 0.74317 0.43655 0.0
C1375 C 0.35082 0.75316 0.44385 0.0
C1376 C 0.34308 0.73072 0.43908 0.0
C1377 C 0.35439 0.66767 0.44942 0.0
C1378 C 0.34991 0.66452 0.42741 0.0
C1379 C 0.35446 0.64701 0.43839 0.0
C1380 C 0.35593 0.65494 0.44936 0.0
C1381 C 0.35141 0.6517 0.42728 0.0
C1382 C 0.35138 0.67244 0.4384 0.0
C1383 C 0.35606 0.67587 0.46101 0.0
O1384 O 0.36919 0.70888 0.4831 0.0
O1385 O 0.34825 0.70522 0.48517 0.0
O1386 O 0.34564 0.68056 0.46438 0.0
O1387 O 0.36662 0.68421 0.46246 0.0
H1388 H 0.36445 0.68416 0.49041 0.0
H1389 H 0.3679 0.67242 0.50783 0.0
H1390 H 0.3639 0.70539 0.53238 0.0
H1391 H 0.36075 0.71719 0.51478 0.0
H1392 H 0.3643 0.75791 0.45992 0.0
H1393 H 0.36441 0.73601 0.46428 0.0
H1394 H 0.33726 0.74489 0.42856 0.0
H1395 H 0.33731 0.72316 0.43308 0.0
H1396 H 0.34742 0.66839 0.41904 0.0
H1397 H 0.35589 0.63725 0.4386 0.0
H1398 H 0.35832 0.65114 0.45779 0.0
H1399 H 0.35016 0.68228 0.43831 0.0
C1400 C 0.7246 0.47977 0.85453 0.0
C1401 C 0.72578 0.49189 0.85071 0.0
C1402 C 0.70229 0.49139 0.85012 0.0
C1403 C 0.71473 0.49763 0.84847 0.0
C1404 C 0.70116 0.47913 0.85373 0.0
C1405 C 0.71223 0.47337 0.85592 0.0
U1406 U 0.76054 0.48457 0.86295 0.0
O1407 O 0.77222 0.47749 0.87736 0.0
O1408 O 0.77622 0.47365 0.85812 0.0
C1409 C 0.77897 0.47164 0.86948 0.0
C1410 C 0.7363 0.47423 0.85792 0.0
C1411 C 0.78089 0.45868 0.87154 0.0
C1412 C 0.77677 0.43597 0.86599 0.0
C1413 C 0.77377 0.44808 0.86457 0.0
C1414 C 0.79366 0.44492 0.88167 0.0
C1415 C 0.7869 0.43428 0.87443 0.0
C1416 C 0.79068 0.45699 0.88022 0.0
C1417 C 0.77814 0.51819 0.86388 0.0
C1418 C 0.80021 0.52468 0.87281 0.0
C1419 C 0.78921 0.53914 0.86191 0.0
C1420 C 0.77823 0.53 0.85957 0.0
C1421 C 0.80028 0.53662 0.86865 0.0
C1422 C 0.78923 0.51551 0.87041 0.0
C1423 C 0.76635 0.50888 0.86167 0.0
O1424 O 0.74507 0.4743 0.84981 0.0
O1425 O 0.74134 0.47794 0.8691 0.0
O1426 O 0.762 0.50413 0.8714 0.0
O1427 O 0.76623 0.50036 0.85225 0.0
H1428 H 0.73527 0.49705 0.84974 0.0
H1429 H 0.71597 0.50714 0.84588 0.0
H1430 H 0.69171 0.47403 0.85498 0.0
H1431 H 0.71116 0.46403 0.85893 0.0
H1432 H 0.77128 0.42796 0.86037 0.0
H1433 H 0.76611 0.44918 0.85785 0.0
H1434 H 0.80164 0.44402 0.88813 0.0
H1435 H 0.79632 0.46506 0.88566 0.0
H1436 H 0.80864 0.52241 0.8779 0.0
H1437 H 0.7889 0.54829 0.8587 0.0
H1438 H 0.76974 0.5322 0.85451 0.0
H1439 H 0.78934 0.50639 0.87374 0.0
C1440 C 0.68958 0.46695 0.14314 0.0
C1441 C 0.67735 0.46355 0.13675 0.0
C1442 C 0.67675 0.442 0.14185 0.0
C1443 C 0.67102 0.45117 0.13606 0.0
C1444 C 0.68904 0.44545 0.1482 0.0
C1445 C 0.6954 0.45783 0.14881 0.0
U1446 U 0.68771 0.50175 0.14224 0.0
O1447 O 0.69742 0.51832 0.15432 0.0
O1448 O 0.70035 0.51663 0.13472 0.0
C1449 C 0.70381 0.52296 0.14549 0.0
C1450 C 0.69605 0.48007 0.14435 0.0
C1451 C 0.71785 0.52683 0.14825 0.0
C1452 C 0.74021 0.52299 0.14676 0.0
C1453 C 0.72687 0.51875 0.14488 0.0
C1454 C 0.73565 0.54324 0.15586 0.0
C1455 C 0.74475 0.53535 0.15212 0.0
C1456 C 0.72233 0.53901 0.15391 0.0
C1457 C 0.65497 0.5122 0.1348 0.0
C1458 C 0.65288 0.53437 0.13446 0.0
C1459 C 0.63405 0.51843 0.12926 0.0
C1460 C 0.64172 0.50901 0.13121 0.0
C1461 C 0.63953 0.53124 0.13088 0.0
C1462 C 0.66053 0.52492 0.1364 0.0
C1463 C 0.66292 0.5022 0.13677 0.0
O1464 O 0.6963 0.48552 0.13421 0.0
O1465 O 0.69291 0.48732 0.1537 0.0
O1466 O 0.66792 0.50234 0.14801 0.0
O1467 O 0.67125 0.50035 0.12852 0.0
H1468 H 0.67263 0.47052 0.13243 0.0
H1469 H 0.66148 0.44886 0.13126 0.0
H1470 H 0.69374 0.43858 0.15267 0.0
H1471 H 0.70482 0.46031 0.15382 0.0
H1472 H 0.74698 0.51665 0.14391 0.0
H1473 H 0.7236 0.50925 0.14059 0.0
H1474 H 0.73882 0.55284 0.15989 0.0
H1475 H 0.7155 0.54538 0.15657 0.0
H1476 H 0.65737 0.54413 0.13593 0.0
H1477 H 0.62386 0.51568 0.12635 0.0
H1478 H 0.63731 0.49921 0.12988 0.0
H1479 H 0.67078 0.52754 0.13918 0.0
C1480 C 0.71547 0.52926 0.36804 0.0
C1481 C 0.71199 0.53361 0.37967 0.0
C1482 C 0.70272 0.55082 0.37131 0.0
C1483 C 0.70574 0.54433 0.3813 0.0
C1484 C 0.70662 0.54671 0.35978 0.0
C1485 C 0.71299 0.53609 0.35818 0.0
U1486 U 0.7116 0.49392 0.36906 0.0
O1487 O 0.7149 0.47851 0.35538 0.0
O1488 O 0.72519 0.48084 0.37362 0.0
C1489 C 0.7238 0.47476 0.36256 0.0
C1490 C 0.72071 0.51716 0.36579 0.0
C1491 C 0.73574 0.47186 0.35693 0.0
C1492 C 0.7593 0.47307 0.35732 0.0
C1493 C 0.74821 0.47727 0.36196 0.0
C1494 C 0.74567 0.4584 0.34226 0.0
C1495 C 0.75814 0.46336 0.3476 0.0
C1496 C 0.73461 0.46258 0.3469 0.0
C1497 C 0.6804 0.47884 0.38153 0.0
C1498 C 0.67288 0.4563 0.37887 0.0
C1499 C 0.66126 0.47039 0.39115 0.0
C1500 C 0.67019 0.48066 0.38891 0.0
C1501 C 0.66237 0.4581 0.38601 0.0
C1502 C 0.68183 0.46659 0.37666 0.0
C1503 C 0.68912 0.48987 0.37862 0.0
O1504 O 0.72413 0.51182 0.37546 0.0
O1505 O 0.71419 0.5091 0.35711 0.0
O1506 O 0.69028 0.49066 0.36693 0.0
O1507 O 0.70026 0.49254 0.38522 0.0
H1508 H 0.7137 0.52854 0.38747 0.0
H1509 H 0.70276 0.54721 0.39027 0.0
H1510 H 0.70454 0.55161 0.35195 0.0
H1511 H 0.71561 0.53296 0.34914 0.0
H1512 H 0.76874 0.47703 0.36172 0.0
H1513 H 0.74939 0.48445 0.36971 0.0
H1514 H 0.74442 0.45108 0.33463 0.0
H1515 H 0.72512 0.45826 0.34286 0.0
H1516 H 0.67397 0.44699 0.37468 0.0
H1517 H 0.65343 0.4721 0.39686 0.0
H1518 H 0.66899 0.49006 0.39279 0.0
H1519 H 0.6897 0.46503 0.37094 0.0
C1520 C 0.75884 0.53397 0.62584 0.0
C1521 C 0.75746 0.52098 0.62207 0.0
C1522 C 0.73702 0.51768 0.63169 0.0
C1523 C 0.74666 0.51295 0.62488 0.0
C1524 C 0.73829 0.53076 0.63527 0.0
C1525 C 0.74915 0.53884 0.63239 0.0
U1526 U 0.79395 0.53555 0.62092 0.0
O1527 O 0.80651 0.54442 0.60789 0.0
O1528 O 0.81141 0.54882 0.62765 0.0
C1529 C 0.81431 0.55124 0.61661 0.0
C1530 C 0.77089 0.54207 0.62367 0.0
C1531 C 0.8186 0.56453 0.61475 0.0
C1532 C 0.82394 0.58673 0.62254 0.0
C1533 C 0.81782 0.57455 0.62376 0.0
C1534 C 0.83111 0.57916 0.60303 0.0
C1535 C 0.83099 0.58908 0.61232 0.0
C1536 C 0.82502 0.56703 0.60425 0.0
C1537 C 0.80656 0.50371 0.62189 0.0
C1538 C 0.82816 0.49985 0.61679 0.0
C1539 C 0.81378 0.48371 0.62507 0.0
C1540 C 0.80423 0.49165 0.6257 0.0
C1541 C 0.82585 0.48769 0.62059 0.0
C1542 C 0.81859 0.50782 0.61747 0.0
C1543 C 0.79628 0.51178 0.62261 0.0
O1544 O 0.78 0.54352 0.63266 0.0
O1545 O 0.77533 0.5396 0.6129 0.0
O1546 O 0.79269 0.51602 0.61237 0.0
O1547 O 0.79756 0.5204 0.63208 0.0
H1548 H 0.76487 0.51697 0.6171 0.0
H1549 H 0.7459 0.503 0.62175 0.0
H1550 H 0.73109 0.53469 0.6406 0.0
H1551 H 0.75011 0.54882 0.63549 0.0
H1552 H 0.82372 0.59415 0.6299 0.0
H1553 H 0.81296 0.57291 0.63198 0.0
H1554 H 0.83628 0.58069 0.59496 0.0
H1555 H 0.82578 0.55945 0.59719 0.0
H1556 H 0.8374 0.50323 0.61341 0.0
H1557 H 0.81161 0.47434 0.62789 0.0
H1558 H 0.79498 0.48834 0.62912 0.0
H1559 H 0.82055 0.51716 0.61455 0.0
C1560 C 0.49409 0.12836 0.27461 0.0
C1561 C 0.48257 0.13378 0.27509 0.0
C1562 C 0.48004 0.128 0.29569 0.0
C1563 C 0.47562 0.13363 0.28556 0.0
C1564 C 0.49172 0.12277 0.29519 0.0
C1565 C 0.49866 0.12295 0.28474 0.0
U1566 U 0.49667 0.13409 0.24137 0.0
O1567 O 0.51355 0.14097 0.23153 0.0
O1568 O 0.50258 0.12215 0.22595 0.0
C1569 C 0.51287 0.13024 0.22451 0.0
C1570 C 0.50111 0.12786 0.26345 0.0
C1571 C 0.52521 0.1251 0.22317 0.0
C1572 C 0.53889 0.10869 0.22539 0.0
C1573 C 0.5274 0.1137 0.22759 0.0
C1574 C 0.54629 0.12659 0.21469 0.0
C1575 C 0.54844 0.11505 0.21884 0.0
C1576 C 0.5348 0.13153 0.21682 0.0
C1577 C 0.46998 0.14825 0.22483 0.0
C1578 C 0.46915 0.14918 0.2029 0.0
C1579 C 0.45304 0.15789 0.21487 0.0
C1580 C 0.45901 0.15446 0.22546 0.0
C1581 C 0.45792 0.15513 0.20343 0.0
C1582 C 0.47513 0.14577 0.21352 0.0
C1583 C 0.47568 0.14406 0.23593 0.0
O1584 O 0.49536 0.11985 0.25435 0.0
O1585 O 0.50577 0.13885 0.26006 0.0
O1586 O 0.48663 0.15079 0.24065 0.0
O1587 O 0.47587 0.13184 0.23555 0.0
H1588 H 0.47887 0.13795 0.2673 0.0
H1589 H 0.4666 0.13761 0.28558 0.0
H1590 H 0.49548 0.11851 0.30288 0.0
H1591 H 0.50755 0.11874 0.28451 0.0
H1592 H 0.54031 0.09984 0.22879 0.0
H1593 H 0.52016 0.10858 0.23258 0.0
H1594 H 0.55333 0.13163 0.20945 0.0
H1595 H 0.53329 0.1403 0.21328 0.0
H1596 H 0.47309 0.14679 0.19425 0.0
H1597 H 0.44454 0.16264 0.21564 0.0
H1598 H 0.45495 0.1565 0.23414 0.0
H1599 H 0.48362 0.14097 0.21288 0.0
C1600 C 0.9662 0.90788 0.76204 0.0
C1601 C 0.95483 0.90164 0.75534 0.0
C1602 C 0.94934 0.92163 0.74945 0.0
C1603 C 0.94651 0.90844 0.74912 0.0
C1604 C 0.96039 0.92791 0.75658 0.0
C1605 C 0.96868 0.92112 0.76285 0.0
U1606 U 0.99391 0.88845 0.75892 0.0
O1607 O 0.01222 0.88893 0.77002 0.0
O1608 O 0.99827 0.87149 0.76709 0.0
C1609 C 0.00928 0.87728 0.77264 0.0
C1610 C 0.97574 0.90068 0.76771 0.0
C1611 C 0.01174 0.87526 0.7855 0.0
C1612 C 0.01083 0.88132 0.80722 0.0
C1613 C 0.00739 0.88288 0.79505 0.0
C1614 C 0.02261 0.86429 0.80034 0.0
C1615 C 0.01863 0.8721 0.81001 0.0
C1616 C 0.01919 0.86586 0.78823 0.0
C1617 C 0.00586 0.88277 0.72699 0.0
C1618 C 0.02536 0.8733 0.72313 0.0
C1619 C 0.01286 0.8801 0.70643 0.0
C1620 C 0.00402 0.88402 0.71454 0.0
C1621 C 0.02375 0.87486 0.71065 0.0
C1622 C 0.01649 0.87724 0.73125 0.0
C1623 C 0.99698 0.88782 0.73544 0.0
O1624 O 0.974 0.88839 0.76463 0.0
O1625 O 0.988 0.90572 0.76801 0.0
O1626 O 1.00235 0.89716 0.74351 0.0
O1627 O 0.98892 0.87942 0.74012 0.0
H1628 H 0.9525 0.89147 0.7546 0.0
H1629 H 0.93814 0.90328 0.74365 0.0
H1630 H 0.96274 0.93808 0.75718 0.0
H1631 H 0.97723 0.92624 0.76809 0.0
H1632 H 0.00748 0.8874 0.81443 0.0
H1633 H 1.00158 0.89017 0.7931 0.0
H1634 H 0.0288 0.85725 0.8021 0.0
H1635 H 0.02266 0.85993 0.78097 0.0
H1636 H 0.03368 0.8694 0.72669 0.0
H1637 H 0.01122 0.88125 0.69686 0.0
H1638 H 0.99584 0.88824 0.7111 0.0
H1639 H 0.01805 0.87624 0.74087 0.0
C1640 C 0.51315 0.88719 0.28082 0.0
C1641 C 0.5156 0.88095 0.2911 0.0
C1642 C 0.53809 0.89108 0.29317 0.0
C1643 C 0.52797 0.88282 0.29717 0.0
C1644 C 0.53555 0.89747 0.28299 0.0
C1645 C 0.52318 0.8955 0.27683 0.0
U1646 U 0.47663 0.87963 0.28143 0.0
O1647 O 0.4607 0.88772 0.2726 0.0
O1648 O 0.46206 0.86756 0.26858 0.0
C1649 C 0.45619 0.8771 0.26582 0.0
C1650 C 0.50012 0.88527 0.27439 0.0
C1651 C 0.454 0.87811 0.25272 0.0
C1652 C 0.4617 0.88455 0.23366 0.0
C1653 C 0.46406 0.88329 0.24605 0.0
C1654 C 0.4393 0.87519 0.23444 0.0
C1655 C 0.44927 0.88059 0.22773 0.0
C1656 C 0.44165 0.87398 0.24683 0.0
C1657 C 0.46281 0.87412 0.31211 0.0
C1658 C 0.4405 0.86522 0.31454 0.0
C1659 C 0.45385 0.87676 0.33186 0.0
C1660 C 0.46423 0.87877 0.3245 0.0
C1661 C 0.44186 0.87001 0.32695 0.0
C1662 C 0.45088 0.86732 0.30715 0.0
C1663 C 0.47375 0.87682 0.30449 0.0
O1664 O 0.49394 0.87368 0.27341 0.0
O1665 O 0.49271 0.89385 0.27755 0.0
O1666 O 0.47469 0.88783 0.3002 0.0
O1667 O 0.47576 0.86758 0.29639 0.0
H1668 H 0.50794 0.87464 0.29445 0.0
H1669 H 0.52957 0.87792 0.3051 0.0
H1670 H 0.54318 0.90385 0.27968 0.0
H1671 H 0.52144 0.90046 0.26896 0.0
H1672 H 0.46963 0.88861 0.22871 0.0
H1673 H 0.47368 0.88645 0.25045 0.0
H1674 H 0.42958 0.87219 0.23019 0.0
H1675 H 0.43378 0.86996 0.25186 0.0
H1676 H 0.43134 0.86011 0.31048 0.0
H1677 H 0.45523 0.88045 0.34141 0.0
H1678 H 0.47336 0.88405 0.32847 0.0
H1679 H 0.44956 0.86376 0.29756 0.0
C1680 C 0.8576 0.73366 0.03985 0.0
C1681 C 0.85274 0.73451 0.05145 0.0
C1682 C 0.85841 0.75737 0.05358 0.0
C1683 C 0.85308 0.74627 0.05823 0.0
C1684 C 0.86313 0.75646 0.04188 0.0
C1685 C 0.86271 0.7447 0.03507 0.0
U1686 U 0.85594 0.69842 0.03964 0.0
O1687 O 0.8465 0.68262 0.02646 0.0
O1688 O 0.8676 0.68496 0.03091 0.0
C1689 C 0.85762 0.67883 0.02391 0.0
C1690 C 0.85796 0.72128 0.03301 0.0
C1691 C 0.85959 0.67619 0.01082 0.0
C1692 C 0.87155 0.67997 0.99295 0.0
C1693 C 0.86948 0.68322 0.00521 0.0
C1694 C 0.85365 0.66288 0.99166 0.0
C1695 C 0.8637 0.66971 0.98606 0.0
C1696 C 0.85166 0.66607 0.00392 0.0
C1697 C 0.85095 0.68475 0.06994 0.0
C1698 C 0.85365 0.66323 0.07317 0.0
C1699 C 0.84493 0.67652 0.08879 0.0
C1700 C 0.84602 0.68638 0.08143 0.0
C1701 C 0.8488 0.66484 0.08478 0.0
C1702 C 0.85468 0.6731 0.06579 0.0
C1703 C 0.85233 0.69538 0.06253 0.0
O1704 O 0.86807 0.71583 0.03601 0.0
O1705 O 0.84695 0.71352 0.03192 0.0
O1706 O 0.84274 0.69549 0.05427 0.0
O1707 O 0.86386 0.69818 0.05848 0.0
H1708 H 0.84888 0.72606 0.05534 0.0
H1709 H 0.84954 0.74662 0.06727 0.0
H1710 H 0.86718 0.76485 0.038 0.0
H1711 H 0.86654 0.7442 0.02615 0.0
H1712 H 0.87928 0.68548 0.98885 0.0
H1713 H 0.8757 0.69113 0.01032 0.0
H1714 H 0.84755 0.65483 0.98666 0.0
H1715 H 0.84401 0.66049 0.00807 0.0
H1716 H 0.85657 0.65431 0.06977 0.0
H1717 H 0.84132 0.67812 0.09773 0.0
H1718 H 0.84312 0.69533 0.08477 0.0
H1719 H 0.85844 0.67167 0.05689 0.0
C1720 C 0.60406 0.29219 0.50493 0.0
C1721 C 0.59862 0.30345 0.50491 0.0
C1722 C 0.60017 0.30298 0.48296 0.0
C1723 C 0.59662 0.30874 0.49403 0.0
C1724 C 0.60556 0.29166 0.48301 0.0
C1725 C 0.60746 0.2863 0.49391 0.0
U1726 U 0.61139 0.29798 0.53892 0.0
O1727 O 0.60415 0.28781 0.55405 0.0
O1728 O 0.62508 0.2908 0.55151 0.0
C1729 C 0.61576 0.28536 0.55755 0.0
C1730 C 0.60683 0.287 0.51651 0.0
C1731 C 0.61659 0.27231 0.56037 0.0
C1732 C 0.62742 0.25355 0.55958 0.0
C1733 C 0.62609 0.26536 0.55574 0.0
C1734 C 0.60959 0.25528 0.57247 0.0
C1735 C 0.61927 0.24842 0.56809 0.0
C1736 C 0.60831 0.26709 0.56868 0.0
C1737 C 0.61318 0.33257 0.55257 0.0
C1738 C 0.62118 0.3409 0.57332 0.0
C1739 C 0.61047 0.35389 0.56037 0.0
C1740 C 0.60874 0.34404 0.55091 0.0
C1741 C 0.61672 0.35245 0.57168 0.0
C1742 C 0.61938 0.33101 0.56384 0.0
C1743 C 0.61132 0.32248 0.54237 0.0
O1744 O 0.61863 0.29064 0.52164 0.0
O1745 O 0.59778 0.28741 0.52431 0.0
O1746 O 0.60078 0.31423 0.54219 0.0
O1747 O 0.62168 0.31729 0.53969 0.0
H1748 H 0.59609 0.30826 0.51336 0.0
H1749 H 0.59265 0.31756 0.49435 0.0
H1750 H 0.60832 0.28695 0.47462 0.0
H1751 H 0.61174 0.27765 0.49375 0.0
H1752 H 0.63489 0.24846 0.55593 0.0
H1753 H 0.63266 0.26913 0.54933 0.0
H1754 H 0.60327 0.25172 0.57917 0.0
H1755 H 0.60101 0.2723 0.57251 0.0
H1756 H 0.6259 0.33946 0.58197 0.0
H1757 H 0.60708 0.3627 0.55875 0.0
H1758 H 0.60396 0.3454 0.54225 0.0
H1759 H 0.62283 0.32217 0.56528 0.0
C1760 C 0.25696 0.50406 0.12897 0.0
C1761 C 0.25854 0.4928 0.12193 0.0
C1762 C 0.2798 0.4929 0.13243 0.0
C1763 C 0.26987 0.48734 0.12359 0.0
C1764 C 0.27814 0.50407 0.13959 0.0
C1765 C 0.26683 0.50963 0.13783 0.0
U1766 U 0.22042 0.50005 0.12329 0.0
O1767 O 0.2055 0.51042 0.1311 0.0
O1768 O 0.20757 0.50903 0.11134 0.0
C1769 C 0.20168 0.51386 0.12053 0.0
C1770 C 0.24494 0.5098 0.12737 0.0
C1771 C 0.19956 0.52712 0.12039 0.0
C1772 C 0.20401 0.54929 0.12841 0.0
C1773 C 0.2071 0.53698 0.12804 0.0
C1774 C 0.18611 0.54207 0.11322 0.0
C1775 C 0.19335 0.55195 0.12112 0.0
C1776 C 0.18919 0.5298 0.11288 0.0
C1777 C 0.20254 0.46633 0.12001 0.0
C1778 C 0.17934 0.46123 0.11459 0.0
C1779 C 0.19167 0.44504 0.12071 0.0
C1780 C 0.20297 0.45381 0.12225 0.0
C1781 C 0.1797 0.44864 0.11689 0.0
C1782 C 0.19067 0.47002 0.11618 0.0
C1783 C 0.21451 0.47543 0.12194 0.0
O1784 O 0.23891 0.50765 0.1164 0.0
O1785 O 0.237 0.50862 0.13615 0.0
O1786 O 0.21578 0.48284 0.13227 0.0
O1787 O 0.21776 0.48142 0.11253 0.0
H1788 H 0.25099 0.48818 0.11517 0.0
H1789 H 0.27078 0.47864 0.11806 0.0
H1790 H 0.28565 0.50861 0.14642 0.0
H1791 H 0.26578 0.51826 0.14341 0.0
H1792 H 0.20988 0.5567 0.13448 0.0
H1793 H 0.2152 0.53513 0.13388 0.0
H1794 H 0.17775 0.5437 0.10761 0.0
H1795 H 0.18322 0.52231 0.10696 0.0
H1796 H 0.17026 0.46433 0.11175 0.0
H1797 H 0.19232 0.43539 0.12239 0.0
H1798 H 0.21207 0.45082 0.12521 0.0
H1799 H 0.19016 0.47969 0.11449 0.0
C1800 C 0.30328 0.52473 0.86359 0.0
C1801 C 0.31625 0.52666 0.86058 0.0
C1802 C 0.31781 0.5491 0.86737 0.0
C1803 C 0.3234 0.53871 0.86237 0.0
C1804 C 0.30477 0.54712 0.87036 0.0
C1805 C 0.29758 0.53503 0.86847 0.0
U1806 U 0.30339 0.48962 0.86162 0.0
O1807 O 0.29113 0.47455 0.86927 0.0
O1808 O 0.2922 0.47392 0.84941 0.0
C1809 C 0.28652 0.46893 0.85845 0.0
C1810 C 0.2959 0.51195 0.86205 0.0
C1811 C 0.2723 0.46572 0.85672 0.0
C1812 C 0.25057 0.4705 0.86022 0.0
C1813 C 0.26406 0.47405 0.86139 0.0
C1814 C 0.25343 0.45047 0.84931 0.0
C1815 C 0.24512 0.45862 0.85426 0.0
C1816 C 0.2669 0.45399 0.85056 0.0
C1817 C 0.33652 0.47824 0.86532 0.0
C1818 C 0.33946 0.45615 0.86234 0.0
C1819 C 0.35739 0.47192 0.8709 0.0
C1820 C 0.34947 0.48134 0.87002 0.0
C1821 C 0.35248 0.45922 0.86707 0.0
C1822 C 0.33151 0.46559 0.86151 0.0
C1823 C 0.32835 0.4883 0.86467 0.0
O1824 O 0.2975 0.50501 0.85189 0.0
O1825 O 0.2964 0.50581 0.87173 0.0
O1826 O 0.32092 0.48973 0.87378 0.0
O1827 O 0.32233 0.48882 0.85397 0.0
H1828 H 0.32087 0.51881 0.85686 0.0
H1829 H 0.33332 0.53988 0.85974 0.0
H1830 H 0.3002 0.55485 0.87437 0.0
H1831 H 0.28761 0.53369 0.87095 0.0
H1832 H 0.24441 0.47703 0.864 0.0
H1833 H 0.26804 0.48321 0.86609 0.0
H1834 H 0.24955 0.44121 0.84478 0.0
H1835 H 0.27313 0.44746 0.84689 0.0
H1836 H 0.33536 0.44644 0.85943 0.0
H1837 H 0.36741 0.47462 0.87442 0.0
H1838 H 0.35346 0.49107 0.87301 0.0
H1839 H 0.32148 0.46303 0.85795 0.0
C1840 C 0.26771 0.45923 0.6389 0.0
C1841 C 0.27843 0.45976 0.63173 0.0
C1842 C 0.28093 0.43811 0.63483 0.0
C1843 C 0.28492 0.44929 0.62966 0.0
C1844 C 0.27027 0.43765 0.64212 0.0
C1845 C 0.26368 0.44812 0.6441 0.0
U1846 U 0.26868 0.49449 0.64073 0.0
O1847 O 0.25502 0.5063 0.63354 0.0
O1848 O 0.26044 0.50808 0.65324 0.0
C1849 C 0.25299 0.51144 0.64445 0.0
C1850 C 0.26097 0.47033 0.64116 0.0
C1851 C 0.23928 0.51243 0.64677 0.0
C1852 C 0.21879 0.51903 0.64013 0.0
C1853 C 0.23139 0.51683 0.63787 0.0
C1854 C 0.22159 0.51235 0.66029 0.0
C1855 C 0.21377 0.51694 0.65141 0.0
C1856 C 0.23422 0.5101 0.658 0.0
C1857 C 0.30045 0.51395 0.63443 0.0
C1858 C 0.3037 0.53687 0.63713 0.0
C1859 C 0.31949 0.52561 0.6271 0.0
C1860 C 0.31208 0.51413 0.62866 0.0
C1861 C 0.31539 0.53711 0.63133 0.0
C1862 C 0.29625 0.52537 0.63863 0.0
C1863 C 0.2927 0.50179 0.63581 0.0
O1864 O 0.26535 0.47796 0.65102 0.0
O1865 O 0.2589 0.47632 0.63158 0.0
O1866 O 0.28321 0.49798 0.62734 0.0
O1867 O 0.28929 0.50024 0.6469 0.0
H1868 H 0.28181 0.46831 0.62776 0.0
H1869 H 0.29324 0.45002 0.62419 0.0
H1870 H 0.26695 0.42915 0.64619 0.0
H1871 H 0.25548 0.44757 0.64971 0.0
H1872 H 0.21316 0.52279 0.63317 0.0
H1873 H 0.23509 0.51891 0.62921 0.0
H1874 H 0.21798 0.51056 0.66904 0.0
H1875 H 0.24008 0.50678 0.66509 0.0
H1876 H 0.30021 0.54556 0.64037 0.0
H1877 H 0.32852 0.52548 0.62273 0.0
H1878 H 0.31544 0.50539 0.62536 0.0
H1879 H 0.28722 0.52538 0.64303 0.0
C1880 C 0.23078 0.49803 0.34854 0.0
C1881 C 0.232 0.51112 0.35157 0.0
C1882 C 0.2521 0.51398 0.3413 0.0
C1883 C 0.24256 0.51901 0.34805 0.0
C1884 C 0.25078 0.50081 0.33822 0.0
C1885 C 0.24019 0.49291 0.34181 0.0
U1886 U 0.19771 0.49519 0.36068 0.0
O1887 O 0.17985 0.4818 0.3556 0.0
O1888 O 0.18883 0.48388 0.37433 0.0
C1889 C 0.17983 0.47752 0.36635 0.0
C1890 C 0.21956 0.48983 0.35223 0.0
C1891 C 0.17752 0.46362 0.3664 0.0
C1892 C 0.16641 0.44313 0.35737 0.0
C1893 C 0.1698 0.45607 0.35683 0.0
C1894 C 0.1785 0.44493 0.37701 0.0
C1895 C 0.17057 0.43742 0.36753 0.0
C1896 C 0.18192 0.45788 0.37647 0.0
C1897 C 0.18348 0.526 0.3672 0.0
C1898 C 0.16089 0.52699 0.37108 0.0
C1899 C 0.17638 0.54616 0.37321 0.0
C1900 C 0.18624 0.53911 0.36997 0.0
C1901 C 0.16357 0.5402 0.37369 0.0
C1902 C 0.17078 0.51994 0.36789 0.0
C1903 C 0.19388 0.5189 0.36325 0.0
O1904 O 0.21774 0.49129 0.36395 0.0
O1905 O 0.20879 0.4893 0.34525 0.0
O1906 O 0.19118 0.51149 0.35296 0.0
O1907 O 0.19982 0.51363 0.3718 0.0
H1908 H 0.22479 0.51525 0.35674 0.0
H1909 H 0.24335 0.52905 0.3508 0.0
H1910 H 0.25785 0.49663 0.33292 0.0
H1911 H 0.23934 0.48281 0.33931 0.0
H1912 H 0.16009 0.4377 0.35 0.0
H1913 H 0.16604 0.46021 0.34906 0.0
H1914 H 0.18195 0.44081 0.38493 0.0
H1915 H 0.18777 0.46342 0.38408 0.0
H1916 H 0.15115 0.52211 0.3715 0.0
H1917 H 0.17875 0.55632 0.37501 0.0
H1918 H 0.19599 0.54394 0.36946 0.0
H1919 H 0.16851 0.50979 0.36582 0.0
H1920 H 0.07518 0.35186 0.09547 0.0
H1921 H 0.09612 0.38214 0.12039 0.0
H1922 H 0.10614 0.37716 0.0832 0.0
H1923 H 0.09253 0.36533 0.13306 0.0
C1924 C 0.08207 0.36353 0.13091 0.0
C1925 C 0.0827 0.35996 0.09726 0.0
C1926 C 0.0903 0.36385 0.08785 0.0
C1927 C 0.08489 0.36639 0.10907 0.0
C1928 C 0.09464 0.37692 0.11138 0.0
C1929 C 0.10228 0.38095 0.10208 0.0
C1930 C 0.10001 0.37437 0.09034 0.0
N1931 N 0.07714 0.36228 0.11849 0.0
H1932 H 0.95157 0.89125 0.38672 0.0
H1933 H 0.91734 0.90373 0.40091 0.0
H1934 H 0.93013 0.91535 0.36701 0.0
H1935 H 0.91576 0.88263 0.40625 0.0
C1936 C 0.92547 0.8837 0.41077 0.0
C1937 C 0.94353 0.89662 0.38589 0.0
C1938 C 0.94199 0.90336 0.37575 0.0
C1939 C 0.93458 0.89656 0.39489 0.0
C1940 C 0.9242 0.90362 0.39392 0.0
C1941 C 0.92254 0.91043 0.38388 0.0
C1942 C 0.93147 0.91023 0.37485 0.0
N1943 N 0.93618 0.88943 0.4049 0.0
H1944 H 0.40262 0.6448 0.62133 0.0
H1945 H 0.36746 0.62096 0.60666 0.0
H1946 H 0.38572 0.61482 0.64095 0.0
H1947 H 0.37508 0.62585 0.58883 0.0
C1948 C 0.37881 0.63582 0.59076 0.0
C1949 C 0.39509 0.63696 0.62206 0.0
C1950 C 0.39524 0.63035 0.63241 0.0
C1951 C 0.38526 0.63352 0.6126 0.0
C1952 C 0.37538 0.62344 0.61364 0.0
C1953 C 0.37545 0.6167 0.62388 0.0
C1954 C 0.38539 0.62024 0.6332 0.0
N1955 N 0.38536 0.64052 0.60232 0.0
H1956 H 0.5829 0.12467 0.89966 0.0
H1957 H 0.59498 0.09492 0.87586 0.0
H1958 H 0.60749 0.09968 0.91403 0.0
H1959 H 0.57341 0.09511 0.86782 0.0
C1960 C 0.57431 0.10516 0.86698 0.0
C1961 C 0.58834 0.11679 0.89831 0.0
C1962 C 0.59511 0.11284 0.9083 0.0
C1963 C 0.58797 0.11016 0.88665 0.0
C1964 C 0.59502 0.09992 0.88488 0.0
C1965 C 0.60208 0.09604 0.89471 0.0
C1966 C 0.60198 0.10252 0.90639 0.0
N1967 N 0.58045 0.11389 0.87682 0.0
H1968 H 0.07384 0.62436 0.38838 0.0
H1969 H 0.09743 0.60055 0.40597 0.0
H1970 H 0.09491 0.59939 0.36691 0.0
H1971 H 0.07999 0.60089 0.41892 0.0
C1972 C 0.08066 0.61111 0.42027 0.0
C1973 C 0.08023 0.61719 0.38776 0.0
C1974 C 0.08374 0.61234 0.3763 0.0
C1975 C 0.08497 0.61284 0.39848 0.0
C1976 C 0.09351 0.60375 0.39772 0.0
C1977 C 0.09715 0.59884 0.38636 0.0
C1978 C 0.09215 0.60315 0.37571 0.0
N1979 N 0.08143 0.61803 0.40997 0.0
H1980 H 0.58614 0.8599 0.60787 0.0
H1981 H 0.60568 0.89221 0.63116 0.0
H1982 H 0.61622 0.88529 0.59438 0.0
H1983 H 0.60292 0.87742 0.64505 0.0
C1984 C 0.59256 0.87445 0.64292 0.0
C1985 C 0.59333 0.86828 0.60926 0.0
C1986 C 0.60078 0.8719 0.59962 0.0
C1987 C 0.59523 0.87542 0.62075 0.0
C1988 C 0.60449 0.88638 0.62248 0.0
C1989 C 0.6121 0.89002 0.61303 0.0
C1990 C 0.61013 0.88275 0.60163 0.0
N1991 N 0.58774 0.87158 0.63047 0.0
H1992 H 0.44347 0.37557 0.8695 0.0
H1993 H 0.41357 0.39174 0.8883 0.0
H1994 H 0.42218 0.40167 0.85261 0.0
H1995 H 0.43298 0.39319 0.90374 0.0
C1996 C 0.43253 0.38298 0.90248 0.0
C1997 C 0.43589 0.38156 0.86967 0.0
C1998 C 0.43365 0.3885 0.85982 0.0
C1999 C 0.42893 0.38301 0.88011 0.0
C2000 C 0.41919 0.39091 0.88037 0.0
C2001 C 0.4165 0.39748 0.87038 0.0
C2002 C 0.42389 0.39632 0.86022 0.0
N2003 N 0.432 0.37677 0.89043 0.0
H2004 H 0.91706 0.15039 0.12686 0.0
H2005 H 0.88303 0.12551 0.11115 0.0
H2006 H 0.90105 0.11947 0.14568 0.0
H2007 H 0.89297 0.13034 0.09343 0.0
C2008 C 0.89502 0.14052 0.09558 0.0
C2009 C 0.90981 0.14226 0.12732 0.0
C2010 C 0.91003 0.13547 0.13753 0.0
C2011 C 0.90026 0.13857 0.11766 0.0
C2012 C 0.89073 0.12811 0.11834 0.0
C2013 C 0.89084 0.1212 0.12849 0.0
C2014 C 0.90057 0.12496 0.13799 0.0
N2015 N 0.90022 0.14571 0.1075 0.0
H2016 H 0.12065 0.06038 0.32093 0.0
H2017 H 0.13628 0.07804 0.35652 0.0
H2018 H 0.10588 0.09304 0.33727 0.0
H2019 H 0.15466 0.0721 0.3492 0.0
C2020 C 0.15137 0.0625 0.3451 0.0
C2021 C 0.12071 0.0676 0.32853 0.0
C2022 C 0.11222 0.07666 0.328 0.0
C2023 C 0.12973 0.06824 0.33863 0.0
C2024 C 0.12965 0.07763 0.34852 0.0
C2025 C 0.12118 0.0867 0.34805 0.0
C2026 C 0.11254 0.08613 0.33773 0.0
N2027 N 0.13895 0.05959 0.33857 0.0
H2028 H 0.1202 0.85277 0.63191 0.0
H2029 H 0.08534 0.8381 0.64782 0.0
H2030 H 0.10314 0.87633 0.65848 0.0
H2031 H 0.09326 0.81945 0.64347 0.0
C2032 C 0.09708 0.8204 0.63461 0.0
C2033 C 0.1127 0.85409 0.63814 0.0
C2034 C 0.11291 0.86576 0.64516 0.0
C2035 C 0.10306 0.84394 0.6393 0.0
C2036 C 0.09321 0.84565 0.64728 0.0
C2037 C 0.0931 0.85738 0.65415 0.0
C2038 C 0.1031 0.86729 0.65314 0.0
N2039 N 0.10328 0.83232 0.63196 0.0
H2040 H 0.35647 0.93075 0.83783 0.0
H2041 H 0.37555 0.90114 0.85091 0.0
H2042 H 0.34188 0.91175 0.86777 0.0
H2043 H 0.3934 0.91768 0.84709 0.0
C2044 C 0.38985 0.91716 0.83757 0.0
C2045 C 0.35701 0.92362 0.84403 0.0
C2046 C 0.3481 0.92232 0.85307 0.0
C2047 C 0.3671 0.91619 0.84341 0.0
C2048 C 0.36785 0.90697 0.85149 0.0
C2049 C 0.35877 0.90525 0.8603 0.0
C2050 C 0.34901 0.91305 0.86107 0.0
N2051 N 0.37653 0.91809 0.83471 0.0
H2052 H 0.38813 0.1603 0.0933 0.0
H2053 H 0.41683 0.18104 0.12038 0.0
H2054 H 0.39891 0.14391 0.12564 0.0
H2055 H 0.41284 0.19755 0.1115 0.0
C2056 C 0.4096 0.19458 0.10201 0.0
C2057 C 0.39381 0.16099 0.10195 0.0
C2058 C 0.39261 0.1508 0.10899 0.0
C2059 C 0.40245 0.17203 0.10593 0.0
C2060 C 0.40994 0.17277 0.11716 0.0
C2061 C 0.4085 0.16274 0.12442 0.0
C2062 C 0.39992 0.15178 0.12018 0.0
N2063 N 0.4035 0.18201 0.09833 0.0
H2064 H 0.13881 0.94366 0.17316 0.0
H2065 H 0.1522 0.92234 0.14254 0.0
H2066 H 0.11558 0.90948 0.15627 0.0
H2067 H 0.17217 0.92998 0.1546 0.0
C2068 C 0.17057 0.93981 0.15552 0.0
C2069 C 0.13737 0.93553 0.16634 0.0
C2070 C 0.12595 0.92679 0.16568 0.0
C2071 C 0.147 0.93382 0.15821 0.0
C2072 C 0.14505 0.92342 0.14916 0.0
C2073 C 0.13362 0.9147 0.14827 0.0
C2074 C 0.12421 0.91641 0.15665 0.0
N2075 N 0.15836 0.9429 0.15897 0.0
H2076 H 0.3346 0.85606 0.39675 0.0
H2077 H 0.37082 0.84378 0.38748 0.0
H2078 H 0.35664 0.87335 0.36956 0.0
H2079 H 0.37126 0.84048 0.40799 0.0
C2080 C 0.36143 0.83559 0.40814 0.0
C2081 C 0.34306 0.85684 0.39146 0.0
C2082 C 0.34442 0.86563 0.38286 0.0
C2083 C 0.35261 0.84904 0.39332 0.0
C2084 C 0.36351 0.8499 0.38631 0.0
C2085 C 0.36505 0.85871 0.37777 0.0
C2086 C 0.35547 0.86651 0.37611 0.0
N2087 N 0.35091 0.84021 0.40205 0.0
H2088 H 0.34262 0.0826 0.65649 0.0
H2089 H 0.36539 0.11066 0.63859 0.0
H2090 H 0.32457 0.10099 0.62847 0.0
H2091 H 0.38114 0.09852 0.64283 0.0
C2092 C 0.37943 0.09734 0.65229 0.0
C2093 C 0.34329 0.08921 0.6497 0.0
C2094 C 0.33209 0.09089 0.64262 0.0
C2095 C 0.35538 0.09614 0.64817 0.0
C2096 C 0.35618 0.10502 0.63963 0.0
C2097 C 0.34513 0.10681 0.63246 0.0
C2098 C 0.33315 0.09964 0.63396 0.0
N2099 N 0.36648 0.09443 0.65565 0.0
H2100 H 0.14519 0.14556 0.8965 0.0
H2101 H 0.1259 0.12124 0.86568 0.0
H2102 H 0.11259 0.15655 0.87643 0.0
H2103 H 0.13056 0.10644 0.87959 0.0
C2104 C 0.14085 0.11005 0.88128 0.0
C2105 C 0.1376 0.14368 0.88913 0.0
C2106 C 0.12914 0.15259 0.8873 0.0
C2107 C 0.13624 0.13223 0.88158 0.0
C2108 C 0.1266 0.12984 0.87183 0.0
C2109 C 0.11813 0.13866 0.86977 0.0
C2110 C 0.11942 0.14994 0.87763 0.0
N2111 N 0.14476 0.12329 0.8838 0.0
H2112 H 0.82727 0.34986 0.89121 0.0
H2113 H 0.86296 0.33977 0.87806 0.0
H2114 H 0.84639 0.37044 0.8643 0.0
H2115 H 0.85277 0.32015 0.88041 0.0
C2116 C 0.84932 0.32192 0.88944 0.0
C2117 C 0.83522 0.35141 0.88538 0.0
C2118 C 0.83571 0.36118 0.87779 0.0
C2119 C 0.84472 0.34329 0.88514 0.0
C2120 C 0.85517 0.34547 0.87773 0.0
C2121 C 0.85587 0.35522 0.87015 0.0
C2122 C 0.84601 0.36294 0.87018 0.0
N2123 N 0.84372 0.33309 0.89248 0.0
H2124 H 0.84493 0.57574 0.16825 0.0
H2125 H 0.86617 0.60505 0.15067 0.0
H2126 H 0.82657 0.59084 0.13813 0.0
H2127 H 0.8826 0.59252 0.15509 0.0
C2128 C 0.88094 0.59212 0.16468 0.0
C2129 C 0.8453 0.5822 0.16132 0.0
C2130 C 0.83436 0.58228 0.15326 0.0
C2131 C 0.85694 0.59006 0.16015 0.0
C2132 C 0.85741 0.59852 0.15121 0.0
C2133 C 0.84645 0.59897 0.14331 0.0
C2134 C 0.83503 0.59069 0.1443 0.0
N2135 N 0.868 0.58948 0.16816 0.0
H2136 H 0.64744 0.64989 0.40108 0.0
H2137 H 0.6278 0.6293 0.36827 0.0
H2138 H 0.61689 0.6649 0.38174 0.0
H2139 H 0.63232 0.61272 0.37782 0.0
C2140 C 0.64234 0.61582 0.38131 0.0
C2141 C 0.64014 0.6491 0.39353 0.0
C2142 C 0.63255 0.65884 0.3923 0.0
C2143 C 0.63832 0.63827 0.38506 0.0
C2144 C 0.62895 0.63734 0.37516 0.0
C2145 C 0.62113 0.64686 0.37392 0.0
C2146 C 0.62308 0.65763 0.38247 0.0
N2147 N 0.64614 0.62854 0.38651 0.0
H2148 H 0.84587 0.42999 0.31918 0.0
H2149 H 0.8687 0.40609 0.33758 0.0
H2150 H 0.83185 0.4129 0.35039 0.0
H2151 H 0.88518 0.42199 0.33155 0.0
C2152 C 0.88153 0.42027 0.32201 0.0
C2153 C 0.84716 0.42411 0.32645 0.0
C2154 C 0.83745 0.42206 0.33464 0.0
C2155 C 0.85856 0.41855 0.32758 0.0
C2156 C 0.86014 0.41078 0.33693 0.0
C2157 C 0.85049 0.40857 0.34511 0.0
C2158 C 0.83921 0.41429 0.34391 0.0
N2159 N 0.86809 0.42036 0.31896 0.0
H2160 H 0.60904 0.55421 0.8186 0.0
H2161 H 0.62379 0.56648 0.85578 0.0
H2162 H 0.59349 0.58402 0.83926 0.0
H2163 H 0.62439 0.54458 0.85481 0.0
C2164 C 0.6294 0.54349 0.84648 0.0
C2165 C 0.60896 0.56036 0.82698 0.0
C2166 C 0.60013 0.56915 0.82785 0.0
C2167 C 0.61725 0.55907 0.83715 0.0
C2168 C 0.61718 0.56717 0.84801 0.0
C2169 C 0.60859 0.57618 0.84888 0.0
C2170 C 0.60006 0.57699 0.83877 0.0
N2171 N 0.62557 0.5496 0.83629 0.0
H2172 H 0.89711 0.63943 0.89942 0.0
H2173 H 0.88343 0.60576 0.87527 0.0
H2174 H 0.86191 0.6158 0.90588 0.0
H2175 H 0.90616 0.60598 0.87562 0.0
C2176 C 0.90854 0.61565 0.87355 0.0
C2177 C 0.88999 0.63112 0.89692 0.0
C2178 C 0.87926 0.62867 0.90395 0.0
C2179 C 0.89168 0.62278 0.88671 0.0
C2180 C 0.88233 0.61211 0.88328 0.0
C2181 C 0.87156 0.60954 0.89014 0.0
C2182 C 0.87015 0.61783 0.90048 0.0
N2183 N 0.90274 0.62536 0.87991 0.0
H2184 H 0.05946 0.12736 0.61495 0.0
H2185 H 0.09055 0.10954 0.60003 0.0
H2186 H 0.07349 0.09692 0.63187 0.0
H2187 H 0.09683 0.13073 0.59656 0.0
C2188 C 0.08761 0.13227 0.59222 0.0
C2189 C 0.06596 0.12031 0.61526 0.0
C2190 C 0.06526 0.11215 0.62447 0.0
C2191 C 0.07518 0.11957 0.60654 0.0
C2192 C 0.08355 0.11033 0.60684 0.0
C2193 C 0.083 0.10215 0.61598 0.0
C2194 C 0.07384 0.10314 0.62473 0.0
N2195 N 0.07586 0.12812 0.59749 0.0
H2196 H 0.56583 0.35534 0.38741 0.0
H2197 H 0.6018 0.37553 0.40463 0.0
H2198 H 0.58299 0.38969 0.37433 0.0
H2199 H 0.60516 0.35446 0.40626 0.0
C2200 C 0.596 0.35133 0.40999 0.0
C2201 C 0.57351 0.36329 0.38796 0.0
C2202 C 0.573 0.37251 0.37983 0.0
C2203 C 0.58401 0.36414 0.39672 0.0
C2204 C 0.59392 0.37454 0.39759 0.0
C2205 C 0.59348 0.38393 0.38968 0.0
C2206 C 0.58305 0.38276 0.3808 0.0
N2207 N 0.58427 0.35461 0.40475 0.0
H2208 H 0.41363 0.87571 0.11074 0.0
H2209 H 0.40266 0.90674 0.13364 0.0
H2210 H 0.38864 0.90005 0.09585 0.0
H2211 H 0.42508 0.90664 0.1407 0.0
C2212 C 0.4235 0.89679 0.14242 0.0
C2213 C 0.40834 0.88371 0.11188 0.0
C2214 C 0.40124 0.88719 0.10184 0.0
C2215 C 0.40917 0.89094 0.12329 0.0
C2216 C 0.40228 0.90131 0.12478 0.0
C2217 C 0.39484 0.90468 0.11493 0.0
C2218 C 0.39449 0.89763 0.10348 0.0
N2219 N 0.41684 0.88761 0.13321 0.0
H2220 H 0.90427 0.39323 0.60468 0.0
H2221 H 0.89368 0.42401 0.62812 0.0
H2222 H 0.87852 0.41739 0.59065 0.0
H2223 H 0.91549 0.4236 0.6357 0.0
C2224 C 0.91411 0.4136 0.63685 0.0
C2225 C 0.89894 0.40118 0.60599 0.0
C2226 C 0.89147 0.40461 0.59616 0.0
C2227 C 0.90001 0.40831 0.61745 0.0
C2228 C 0.89311 0.41864 0.61921 0.0
C2229 C 0.88535 0.42202 0.60958 0.0
C2230 C 0.88467 0.415 0.59807 0.0
N2231 N 0.9078 0.40477 0.62718 0.0
H2232 H 0.41138 0.14437 0.39051 0.0
H2233 H 0.39721 0.11078 0.36635 0.0
H2234 H 0.37468 0.12253 0.39562 0.0
H2235 H 0.41997 0.11004 0.36751 0.0
C2236 C 0.42269 0.11961 0.36528 0.0
C2237 C 0.40398 0.13632 0.38781 0.0
C2238 C 0.39271 0.1346 0.39424 0.0
C2239 C 0.40581 0.12762 0.37792 0.0
C2240 C 0.39612 0.11726 0.37427 0.0
C2241 C 0.38477 0.11547 0.3805 0.0
C2242 C 0.38321 0.12414 0.39051 0.0
N2243 N 0.41721 0.12965 0.37148 0.0
H2244 H 0.56293 0.62675 0.11834 0.0
H2245 H 0.58892 0.60283 0.10253 0.0
H2246 H 0.57666 0.59831 0.13847 0.0
H2247 H 0.57569 0.60516 0.08535 0.0
C2248 C 0.57616 0.61537 0.08654 0.0
C2249 C 0.56874 0.61919 0.11903 0.0
C2250 C 0.56877 0.61282 0.12955 0.0
C2251 C 0.57571 0.61542 0.10913 0.0
C2252 C 0.58329 0.60561 0.11003 0.0
C2253 C 0.58361 0.59931 0.12055 0.0
C2254 C 0.57627 0.60296 0.13022 0.0
N2255 N 0.57495 0.62158 0.09834 0.0
H2256 H 0.06403 0.85334 0.89508 0.0
H2257 H 0.10234 0.87048 0.90966 0.0
H2258 H 0.08338 0.88569 0.88018 0.0
H2259 H 0.10388 0.85011 0.91258 0.0
C2260 C 0.0947 0.84734 0.91642 0.0
C2261 C 0.07236 0.86054 0.89503 0.0
C2262 C 0.07229 0.86964 0.88672 0.0
C2263 C 0.08324 0.86062 0.90321 0.0
C2264 C 0.094 0.8701 0.90324 0.0
C2265 C 0.09415 0.87908 0.89487 0.0
C2266 C 0.08326 0.87879 0.88669 0.0
N2267 N 0.08314 0.85117 0.91139 0.0
H2268 H 0.88407 0.9624 0.68856 0.0
H2269 H 0.87872 0.94778 0.65056 0.0
H2270 H 0.90923 0.93721 0.67362 0.0
H2271 H 0.8729 0.9677 0.64911 0.0
C2272 C 0.86665 0.9683 0.65663 0.0
C2273 C 0.88703 0.95671 0.68083 0.0
C2274 C 0.89747 0.94986 0.68238 0.0
C2275 C 0.88063 0.9565 0.66924 0.0
C2276 C 0.88419 0.94868 0.65932 0.0
C2277 C 0.89436 0.94147 0.66085 0.0
C2278 C 0.90117 0.94249 0.67234 0.0
N2279 N 0.87036 0.96387 0.66785 0.0
H2280 H 0.86868 0.15567 0.38884 0.0
H2281 H 0.90152 0.17696 0.37488 0.0
H2282 H 0.88956 0.13824 0.36083 0.0
H2283 H 0.89022 0.19301 0.37962 0.0
C2284 C 0.8865 0.19104 0.38832 0.0
C2285 C 0.8765 0.15618 0.38277 0.0
C2286 C 0.87813 0.14554 0.37482 0.0
C2287 C 0.88461 0.16767 0.3826 0.0
C2288 C 0.89481 0.16834 0.37473 0.0
C2289 C 0.89668 0.15773 0.36689 0.0
C2290 C 0.88825 0.14643 0.36696 0.0
N2291 N 0.88236 0.17836 0.39047 0.0
H2292 H 0.62665 0.06842 0.18417 0.0
H2293 H 0.6449 0.078 0.15169 0.0
H2294 H 0.61951 0.10195 0.16827 0.0
H2295 H 0.64215 0.05538 0.14855 0.0
C2296 C 0.64682 0.05445 0.15743 0.0
C2297 C 0.6282 0.07466 0.17712 0.0
C2298 C 0.62219 0.08561 0.17737 0.0
C2299 C 0.63626 0.07175 0.16779 0.0
C2300 C 0.63837 0.07994 0.15869 0.0
C2301 C 0.6325 0.09096 0.15891 0.0
C2302 C 0.62441 0.09367 0.16826 0.0
N2303 N 0.64273 0.06094 0.16807 0.0
H2304 H 0.63133 0.84244 0.89558 0.0
H2305 H 0.59455 0.82419 0.87827 0.0
H2306 H 0.61433 0.85683 0.86439 0.0
H2307 H 0.59159 0.8194 0.89782 0.0
C2308 C 0.60098 0.81674 0.90046 0.0
C2309 C 0.62352 0.84191 0.88853 0.0
C2310 C 0.6242 0.85066 0.87989 0.0
C2311 C 0.61276 0.83247 0.88817 0.0
C2312 C 0.60267 0.83169 0.87891 0.0
C2313 C 0.60322 0.84038 0.8702 0.0
C2314 C 0.61402 0.84982 0.8708 0.0
N2315 N 0.61254 0.82369 0.89699 0.0
H2316 H 0.84346 0.06645 0.83199 0.0
H2317 H 0.86627 0.10001 0.85066 0.0
H2318 H 0.83585 0.07994 0.86857 0.0
H2319 H 0.86699 0.10506 0.831 0.0
C2320 C 0.86927 0.09625 0.8265 0.0
C2321 C 0.84563 0.07326 0.84002 0.0
C2322 C 0.83854 0.07184 0.85038 0.0
C2323 C 0.85551 0.08351 0.83994 0.0
C2324 C 0.8584 0.0923 0.85042 0.0
C2325 C 0.85141 0.091 0.86081 0.0
C2326 C 0.84154 0.08074 0.8607 0.0
N2327 N 0.86265 0.0846 0.82939 0.0
H2328 H 0.64695 0.16678 0.60363 0.0
H2329 H 0.63368 0.14647 0.63311 0.0
H2330 H 0.61289 0.1755 0.62133 0.0
H2331 H 0.65743 0.14901 0.63656 0.0
C2332 C 0.65839 0.14448 0.62746 0.0
C2333 C 0.64008 0.16522 0.61051 0.0
C2334 C 0.62976 0.17242 0.61154 0.0
C2335 C 0.64167 0.15602 0.61841 0.0
C2336 C 0.63262 0.15373 0.62716 0.0
C2337 C 0.62215 0.16064 0.62821 0.0
C2338 C 0.62088 0.17005 0.62045 0.0
N2339 N 0.65215 0.14887 0.61724 0.0
H2340 H 0.63123 0.91809 0.34107 0.0
H2341 H 0.649 0.90335 0.3717 0.0
H2342 H 0.61292 0.88418 0.35419 0.0
H2343 H 0.65695 0.92397 0.37683 0.0
C2344 C 0.65962 0.9269 0.36808 0.0
C2345 C 0.63103 0.91106 0.34746 0.0
C2346 C 0.62085 0.90091 0.34638 0.0
C2347 C 0.64107 0.91221 0.35673 0.0
C2348 C 0.64103 0.90293 0.36485 0.0
C2349 C 0.63097 0.89273 0.3639 0.0
C2350 C 0.62091 0.89184 0.35469 0.0
N2351 N 0.65133 0.92249 0.35738 0.0
H2352 H 0.84603 0.86146 0.11925 0.0
H2353 H 0.88061 0.84783 0.13237 0.0
H2354 H 0.86938 0.88149 0.15051 0.0
H2355 H 0.88116 0.84324 0.1111 0.0
C2356 C 0.87125 0.83846 0.10925 0.0
C2357 C 0.85432 0.86236 0.12585 0.0
C2358 C 0.85657 0.87258 0.13508 0.0
C2359 C 0.86314 0.85362 0.12461 0.0
C2360 C 0.87404 0.85482 0.13302 0.0
C2361 C 0.87636 0.86484 0.14242 0.0
C2362 C 0.86756 0.87364 0.14338 0.0
N2363 N 0.86095 0.84376 0.11481 0.0
H2364 H 0.14348 0.65536 0.10592 0.0
H2365 H 0.12923 0.63593 0.13564 0.0
H2366 H 0.11038 0.66619 0.1238 0.0
H2367 H 0.1518 0.63544 0.13892 0.0
C2368 C 0.15325 0.6318 0.12962 0.0
C2369 C 0.13664 0.65423 0.11288 0.0
C2370 C 0.12667 0.66185 0.11378 0.0
C2371 C 0.13783 0.6451 0.12095 0.0
C2372 C 0.12875 0.64337 0.1298 0.0
C2373 C 0.11869 0.65083 0.13079 0.0
C2374 C 0.11783 0.66011 0.12281 0.0
N2375 N 0.14786 0.63738 0.1197 0.0
H2376 H 0.12263 0.41366 0.82937 0.0
H2377 H 0.14073 0.3982 0.85928 0.0
H2378 H 0.10267 0.38148 0.84412 0.0
H2379 H 0.14801 0.42046 0.86424 0.0
C2380 C 0.15164 0.42171 0.85534 0.0
C2381 C 0.12222 0.40677 0.8359 0.0
C2382 C 0.11132 0.39744 0.8356 0.0
C2383 C 0.13267 0.40731 0.84463 0.0
C2384 C 0.13241 0.39818 0.85291 0.0
C2385 C 0.12171 0.38867 0.85263 0.0
C2386 C 0.11116 0.38849 0.84405 0.0
N2387 N 0.14361 0.41676 0.84462 0.0
H2388 H 0.33012 0.36026 0.60801 0.0
H2389 H 0.36865 0.35299 0.61823 0.0
H2390 H 0.35274 0.38293 0.6383 0.0
H2391 H 0.36769 0.34896 0.59658 0.0
C2392 C 0.35857 0.34259 0.59552 0.0
C2393 C 0.33896 0.36251 0.61396 0.0
C2394 C 0.34014 0.37246 0.62344 0.0
C2395 C 0.34926 0.35559 0.61192 0.0
C2396 C 0.36071 0.35839 0.61968 0.0
C2397 C 0.36204 0.36824 0.62923 0.0
C2398 C 0.3517 0.37521 0.63104 0.0
N2399 N 0.3479 0.34583 0.60205 0.0
H2400 H 0.11392 0.56629 0.6926 0.0
H2401 H 0.1282 0.57743 0.65889 0.0
H2402 H 0.10366 0.59988 0.67884 0.0
H2403 H 0.12616 0.55484 0.65514 0.0
C2404 C 0.13176 0.55384 0.66352 0.0
C2405 C 0.11444 0.57276 0.68567 0.0
C2406 C 0.10803 0.58343 0.68691 0.0
C2407 C 0.1216 0.57043 0.6755 0.0
C2408 C 0.12234 0.57892 0.66655 0.0
C2409 C 0.11603 0.58968 0.66777 0.0
C2410 C 0.10888 0.59179 0.67796 0.0
N2411 N 0.12859 0.55992 0.67476 0.0
H2412 H 0.37414 0.43742 0.17297 0.0
H2413 H 0.36919 0.42895 0.13382 0.0
H2414 H 0.39374 0.40891 0.15486 0.0
H2415 H 0.36461 0.44877 0.1347 0.0
C2416 C 0.35886 0.44953 0.14256 0.0
C2417 C 0.37639 0.43215 0.16466 0.0
C2418 C 0.38459 0.42283 0.16525 0.0
C2419 C 0.37087 0.43457 0.15335 0.0
C2420 C 0.3736 0.42748 0.14258 0.0
C2421 C 0.382 0.41834 0.14304 0.0
C2422 C 0.38739 0.41608 0.15441 0.0
N2423 N 0.3622 0.44375 0.15313 0.0
H2424 H 0.62806 0.34745 0.12709 0.0
H2425 H 0.59415 0.32947 0.14221 0.0
H2426 H 0.61005 0.36762 0.15554 0.0
H2427 H 0.60212 0.31186 0.13588 0.0
C2428 C 0.60642 0.31369 0.1274 0.0
C2429 C 0.62055 0.34779 0.13346 0.0
C2430 C 0.62028 0.35879 0.14141 0.0
C2431 C 0.6114 0.33706 0.13386 0.0
C2432 C 0.60153 0.33753 0.14204 0.0
C2433 C 0.60106 0.34849 0.15 0.0
C2434 C 0.61054 0.35902 0.14966 0.0
N2435 N 0.61224 0.32608 0.12576 0.0
H2436 H 0.88654 0.68058 0.60917 0.0
H2437 H 0.91896 0.69826 0.63394 0.0
H2438 H 0.90176 0.66032 0.63707 0.0
H2439 H 0.91369 0.71603 0.62779 0.0
C2440 C 0.90986 0.71377 0.61835 0.0
C2441 C 0.89338 0.68026 0.61689 0.0
C2442 C 0.89313 0.66918 0.62263 0.0
C2443 C 0.90259 0.69087 0.62088 0.0
C2444 C 0.91155 0.69035 0.63087 0.0
C2445 C 0.91133 0.67932 0.63671 0.0
C2446 C 0.90213 0.6688 0.63248 0.0
N2447 N 0.90295 0.7016 0.61427 0.0
H2448 H 0.63063 0.45404 0.66287 0.0
H2449 H 0.64615 0.43419 0.63255 0.0
H2450 H 0.60919 0.4196 0.64453 0.0
H2451 H 0.66539 0.44216 0.64526 0.0
C2452 C 0.6635 0.45188 0.64653 0.0
C2453 C 0.62974 0.4461 0.65585 0.0
C2454 C 0.61858 0.43698 0.6546 0.0
C2455 C 0.63984 0.44501 0.64812 0.0
C2456 C 0.63863 0.43483 0.63886 0.0
C2457 C 0.62748 0.42573 0.63738 0.0
C2458 C 0.61759 0.42685 0.64535 0.0
N2459 N 0.65096 0.45443 0.64956 0.0
H2460 H 0.36532 0.64305 0.88885 0.0
H2461 H 0.39692 0.66493 0.87373 0.0
H2462 H 0.3847 0.62623 0.85939 0.0
H2463 H 0.39979 0.67432 0.89351 0.0
C2464 C 0.38988 0.67518 0.89566 0.0
C2465 C 0.37269 0.64377 0.88232 0.0
C2466 C 0.37414 0.63322 0.8742 0.0
C2467 C 0.38108 0.65512 0.88245 0.0
C2468 C 0.39063 0.6561 0.87394 0.0
C2469 C 0.39205 0.64568 0.86561 0.0
C2470 C 0.38383 0.63426 0.8659 0.0
N2471 N 0.37963 0.6654 0.89119 0.0
H2472 H 0.12763 0.34392 0.3841 0.0
H2473 H 0.08973 0.32652 0.36852 0.0
H2474 H 0.10762 0.36078 0.35621 0.0
H2475 H 0.09702 0.30887 0.37398 0.0
C2476 C 0.10229 0.31198 0.38278 0.0
C2477 C 0.11928 0.3438 0.37772 0.0
C2478 C 0.11896 0.35344 0.37007 0.0
C2479 C 0.10899 0.3338 0.37699 0.0
C2480 C 0.09804 0.33378 0.36881 0.0
C2481 C 0.09748 0.34357 0.36139 0.0
C2482 C 0.10803 0.35323 0.36197 0.0
N2483 N 0.10972 0.3242 0.38488 0.0
H2484 H 0.34068 0.5692 0.32008 0.0
H2485 H 0.36225 0.60032 0.34355 0.0
H2486 H 0.32405 0.58471 0.352 0.0
H2487 H 0.37905 0.58928 0.33702 0.0
C2488 C 0.37628 0.58838 0.32729 0.0
C2489 C 0.34136 0.576 0.32812 0.0
C2490 C 0.331 0.57593 0.33572 0.0
C2491 C 0.35269 0.5847 0.33092 0.0
C2492 C 0.35356 0.59353 0.34137 0.0
C2493 C 0.3433 0.59356 0.34908 0.0
C2494 C 0.33203 0.58479 0.34611 0.0
N2495 N 0.36303 0.58453 0.32308 0.0
H2496 H 0.1718 0.43058 0.13172 0.0
H2497 H 0.10901 0.40008 0.08799 0.0
H2498 H 0.16027 0.44531 0.09844 0.0
H2499 H 0.11992 0.38636 0.12198 0.0
H2500 H 0.12736 0.41706 0.09189 0.0
H2501 H 0.15252 0.41466 0.12854 0.0
C2502 C 0.16522 0.43045 0.12372 0.0
C2503 C 0.16771 0.43925 0.11529 0.0
C2504 C 0.12571 0.41038 0.09852 0.0
C2505 C 0.14551 0.42107 0.11163 0.0
C2506 C 0.11527 0.40064 0.09628 0.0
C2507 C 0.11294 0.39175 0.10465 0.0
C2508 C 0.13395 0.41121 0.1092 0.0
C2509 C 0.12126 0.39306 0.11533 0.0
C2510 C 0.15417 0.42139 0.12194 0.0
C2511 C 0.1587 0.43877 0.10522 0.0
N2512 N 0.13142 0.40256 0.11726 0.0
N2513 N 0.14804 0.42979 0.10363 0.0
H2514 H 0.85323 0.93887 0.3578 0.0
H2515 H 0.91311 0.92597 0.40144 0.0
H2516 H 0.8632 0.95839 0.39392 0.0
H2517 H 0.90632 0.91087 0.36354 0.0
H2518 H 0.89436 0.93728 0.39919 0.0
H2519 H 0.87216 0.92788 0.36005 0.0
C2520 C 0.85939 0.94081 0.36623 0.0
C2521 C 0.85661 0.94954 0.3757 0.0
C2522 C 0.89699 0.93152 0.39136 0.0
C2523 C 0.87835 0.93703 0.37832 0.0
C2524 C 0.90765 0.92501 0.39266 0.0
C2525 C 0.91129 0.91748 0.38266 0.0
C2526 C 0.88985 0.93041 0.38001 0.0
C2527 C 0.90395 0.91669 0.37145 0.0
C2528 C 0.87024 0.93458 0.36748 0.0
C2529 C 0.86504 0.95182 0.38634 0.0
N2530 N 0.89357 0.92303 0.37045 0.0
N2531 N 0.87549 0.94556 0.38738 0.0
H2532 H 0.32767 0.54373 0.61116 0.0
H2533 H 0.3623 0.61064 0.64375 0.0
H2534 H 0.32127 0.55822 0.64787 0.0
H2535 H 0.36583 0.59763 0.60599 0.0
H2536 H 0.34694 0.59168 0.64534 0.0
H2537 H 0.34144 0.56353 0.609 0.0
C2538 C 0.32918 0.55108 0.61878 0.0
C2539 C 0.32336 0.54929 0.62974 0.0
C2540 C 0.35101 0.593 0.63668 0.0
C2541 C 0.33906 0.57203 0.62731 0.0
C2542 C 0.35982 0.60379 0.63578 0.0
C2543 C 0.3654 0.60569 0.62473 0.0
C2544 C 0.34781 0.58396 0.62648 0.0
C2545 C 0.36169 0.5966 0.61466 0.0
C2546 C 0.33698 0.56241 0.61751 0.0
C2547 C 0.32548 0.55922 0.63923 0.0
N2548 N 0.3532 0.58609 0.6158 0.0
N2549 N 0.33322 0.57013 0.63782 0.0
H2550 H 0.63733 0.02854 0.90263 0.0
H2551 H 0.61742 0.09046 0.87607 0.0
H2552 H 0.65179 0.04224 0.8699 0.0
H2553 H 0.60367 0.07691 0.90912 0.0
H2554 H 0.62976 0.07269 0.87339 0.0
H2555 H 0.62469 0.04605 0.90494 0.0
C2556 C 0.63779 0.03519 0.89588 0.0
C2557 C 0.64562 0.03388 0.88603 0.0
C2558 C 0.62405 0.07361 0.88123 0.0
C2559 C 0.63123 0.05408 0.8887 0.0
C2560 C 0.61693 0.08371 0.88272 0.0
C2561 C 0.60951 0.0852 0.89285 0.0
C2562 C 0.62372 0.06489 0.8899 0.0
C2563 C 0.60939 0.07624 0.90127 0.0
C2564 C 0.63062 0.04524 0.89725 0.0
C2565 C 0.64601 0.04294 0.8777 0.0
N2566 N 0.61638 0.06649 0.8996 0.0
N2567 N 0.6389 0.05264 0.87921 0.0
H2568 H 0.1389 0.5374 0.36266 0.0
H2569 H 0.11969 0.59888 0.40053 0.0
H2570 H 0.1642 0.56048 0.39104 0.0
H2571 H 0.09566 0.57741 0.37033 0.0
H2572 H 0.13528 0.58385 0.39839 0.0
H2573 H 0.12213 0.55085 0.36657 0.0
C2574 C 0.14088 0.54521 0.36981 0.0
C2575 C 0.15301 0.54784 0.3765 0.0
C2576 C 0.12657 0.58239 0.39226 0.0
C2577 C 0.13389 0.56339 0.38093 0.0
C2578 C 0.11763 0.59093 0.39353 0.0
C2579 C 0.10638 0.58944 0.38556 0.0
C2580 C 0.12425 0.57225 0.38298 0.0
C2581 C 0.1043 0.57904 0.37656 0.0
C2582 C 0.13133 0.55295 0.37198 0.0
C2583 C 0.15507 0.5582 0.38554 0.0
N2584 N 0.11316 0.57087 0.37549 0.0
N2585 N 0.14563 0.56561 0.38747 0.0
H2586 H 0.66768 0.95624 0.60581 0.0
H2587 H 0.62924 0.89698 0.63311 0.0
H2588 H 0.67903 0.9433 0.64006 0.0
H2589 H 0.61871 0.90829 0.59788 0.0
H2590 H 0.6467 0.91477 0.6363 0.0
H2591 H 0.64889 0.93961 0.60322 0.0
C2592 C 0.66617 0.94997 0.61283 0.0
C2593 C 0.67499 0.95112 0.62314 0.0
C2594 C 0.64056 0.9134 0.62788 0.0
C2595 C 0.65358 0.93202 0.6202 0.0
C2596 C 0.63051 0.90328 0.62609 0.0
C2597 C 0.62247 0.90112 0.61521 0.0
C2598 C 0.64263 0.92147 0.61874 0.0
C2599 C 0.62476 0.9095 0.60635 0.0
C2600 C 0.65549 0.94043 0.61132 0.0
C2601 C 0.67261 0.94264 0.63188 0.0
N2602 N 0.63463 0.91929 0.6083 0.0
N2603 N 0.66216 0.93346 0.6302 0.0
H2604 H 0.35438 0.43916 0.85017 0.0
H2605 H 0.41127 0.41439 0.88915 0.0
H2606 H 0.37004 0.45662 0.88584 0.0
H2607 H 0.39831 0.39955 0.85202 0.0
H2608 H 0.39491 0.42873 0.88882 0.0
H2609 H 0.36911 0.42338 0.8514 0.0
C2610 C 0.36084 0.43961 0.85831 0.0
C2611 C 0.36101 0.44927 0.86789 0.0
C2612 C 0.39562 0.42231 0.88076 0.0
C2613 C 0.37799 0.43128 0.86932 0.0
C2614 C 0.4049 0.41406 0.88097 0.0
C2615 C 0.4062 0.40581 0.87058 0.0
C2616 C 0.38754 0.42225 0.8701 0.0
C2617 C 0.39778 0.40589 0.86018 0.0
C2618 C 0.3693 0.43064 0.85897 0.0
C2619 C 0.36971 0.44946 0.87815 0.0
N2620 N 0.38883 0.414 0.8602 0.0
N2621 N 0.37785 0.44062 0.87859 0.0
H2622 H 0.84411 0.05833 0.15466 0.0
H2623 H 0.88054 0.10283 0.11001 0.0
H2624 H 0.83802 0.0514 0.11544 0.0
H2625 H 0.87872 0.11378 0.14852 0.0
H2626 H 0.86542 0.08373 0.1117 0.0
H2627 H 0.8576 0.07832 0.15258 0.0
C2628 C 0.84564 0.06102 0.14561 0.0
C2629 C 0.83998 0.05319 0.13521 0.0
C2630 C 0.86829 0.09036 0.11976 0.0
C2631 C 0.85538 0.07606 0.13274 0.0
C2632 C 0.87687 0.10131 0.11879 0.0
C2633 C 0.88101 0.10992 0.12916 0.0
C2634 C 0.86388 0.08793 0.13119 0.0
C2635 C 0.87603 0.10731 0.14033 0.0
C2636 C 0.85327 0.07246 0.14442 0.0
C2637 C 0.84214 0.05721 0.1237 0.0
N2638 N 0.86781 0.09653 0.14106 0.0
N2639 N 0.84974 0.06833 0.12276 0.0
H2640 H 0.11826 0.13148 0.41771 0.0
H2641 H 0.12089 0.11172 0.34608 0.0
H2642 H 0.11773 0.15724 0.3902 0.0
H2643 H 0.1223 0.08524 0.37282 0.0
H2644 H 0.12031 0.12855 0.36244 0.0
H2645 H 0.12016 0.1144 0.40172 0.0
C2646 C 0.11855 0.13355 0.40833 0.0
C2647 C 0.11789 0.14584 0.40531 0.0
C2648 C 0.12077 0.11908 0.36478 0.0
C2649 C 0.12012 0.12639 0.38701 0.0
C2650 C 0.12105 0.10945 0.35542 0.0
C2651 C 0.12152 0.09704 0.35809 0.0
C2652 C 0.12094 0.11634 0.37695 0.0
C2653 C 0.12197 0.09469 0.37038 0.0
C2654 C 0.11969 0.12381 0.39922 0.0
C2655 C 0.11842 0.14798 0.39301 0.0
N2656 N 0.1216 0.10425 0.37937 0.0
N2657 N 0.11947 0.13837 0.38434 0.0
H2658 H 0.03673 0.85413 0.7093 0.0
H2659 H 0.07988 0.87766 0.65608 0.0
H2660 H 0.03345 0.88828 0.69266 0.0
H2661 H 0.08186 0.84196 0.6702 0.0
H2662 H 0.06286 0.88157 0.66962 0.0
H2663 H 0.05333 0.84939 0.69534 0.0
C2664 C 0.0395 0.86063 0.70273 0.0
C2665 C 0.03364 0.8716 0.70214 0.0
C2666 C 0.06698 0.87286 0.66977 0.0
C2667 C 0.05258 0.86622 0.68612 0.0
C2668 C 0.07676 0.87066 0.66208 0.0
C2669 C 0.08238 0.85952 0.66208 0.0
C2670 C 0.06275 0.86389 0.6776 0.0
C2671 C 0.07775 0.85066 0.66988 0.0
C2672 C 0.04893 0.85789 0.69472 0.0
C2673 C 0.03753 0.87962 0.69335 0.0
N2674 N 0.06824 0.85306 0.67738 0.0
N2675 N 0.04675 0.87679 0.68574 0.0
H2676 H 0.35522 0.86183 0.92241 0.0
H2677 H 0.36421 0.88113 0.85492 0.0
H2678 H 0.369 0.838 0.89358 0.0
H2679 H 0.35489 0.90669 0.88478 0.0
H2680 H 0.36526 0.86495 0.8688 0.0
H2681 H 0.35424 0.87811 0.9086 0.0
C2682 C 0.35809 0.86003 0.9132 0.0
C2683 C 0.3622 0.8485 0.90917 0.0
C2684 C 0.363 0.8741 0.87232 0.0
C2685 C 0.36096 0.86708 0.89326 0.0
C2686 C 0.36247 0.88338 0.86441 0.0
C2687 C 0.35948 0.89532 0.86868 0.0
C2688 C 0.36049 0.87674 0.88461 0.0
C2689 C 0.35707 0.89759 0.88104 0.0
C2690 C 0.35747 0.86931 0.9053 0.0
C2691 C 0.36559 0.84664 0.89706 0.0
N2692 N 0.35762 0.88839 0.88856 0.0
N2693 N 0.3649 0.85582 0.88955 0.0
H2694 H 0.46821 0.16415 0.18304 0.0
H2695 H 0.39879 0.15687 0.14581 0.0
H2696 H 0.43166 0.15216 0.1978 0.0
H2697 H 0.43459 0.17034 0.13057 0.0
H2698 H 0.41084 0.15628 0.16529 0.0
H2699 H 0.45631 0.16744 0.16408 0.0
C2700 C 0.45769 0.16223 0.18231 0.0
C2701 C 0.45094 0.15786 0.19206 0.0
C2702 C 0.4161 0.15944 0.15774 0.0
C2703 C 0.43727 0.16168 0.17041 0.0
C2704 C 0.40922 0.15974 0.1466 0.0
C2705 C 0.41573 0.16354 0.13653 0.0
C2706 C 0.42965 0.16287 0.15887 0.0
C2707 C 0.42921 0.16737 0.13812 0.0
C2708 C 0.45091 0.16418 0.17151 0.0
C2709 C 0.4373 0.1557 0.19064 0.0
N2710 N 0.43576 0.16683 0.14906 0.0
N2711 N 0.43095 0.15757 0.18002 0.0
H2712 H 0.14069 0.85025 0.09612 0.0
H2713 H 0.1111 0.90571 0.13426 0.0
H2714 H 0.10158 0.85848 0.08967 0.0
H2715 H 0.1509 0.89915 0.13996 0.0
H2716 H 0.10732 0.88786 0.11841 0.0
H2717 H 0.14446 0.86744 0.11281 0.0
C2718 C 0.13286 0.8556 0.09828 0.0
C2719 C 0.12082 0.85295 0.09144 0.0
C2720 C 0.11689 0.8903 0.12312 0.0
C2721 C 0.1251 0.8727 0.11044 0.0
C2722 C 0.11904 0.90046 0.13223 0.0
C2723 C 0.13133 0.90392 0.13849 0.0
C2724 C 0.12709 0.88348 0.1202 0.0
C2725 C 0.1413 0.89689 0.13529 0.0
C2726 C 0.13505 0.86546 0.10775 0.0
C2727 C 0.11108 0.8603 0.09456 0.0
N2728 N 0.13896 0.88699 0.12638 0.0
N2729 N 0.11344 0.86982 0.1038 0.0
H2730 H 0.43369 0.88756 0.34332 0.0
H2731 H 0.37621 0.83992 0.36549 0.0
H2732 H 0.42469 0.84854 0.32827 0.0
H2733 H 0.38043 0.88036 0.37387 0.0
H2734 H 0.39516 0.84242 0.35331 0.0
H2735 H 0.41538 0.88463 0.35607 0.0
C2736 C 0.4279 0.87834 0.34275 0.0
C2737 C 0.43073 0.86827 0.33473 0.0
C2738 C 0.39193 0.85074 0.35782 0.0
C2739 C 0.40968 0.86485 0.34927 0.0
C2740 C 0.38118 0.84931 0.36482 0.0
C2741 C 0.37672 0.85996 0.37065 0.0
C2742 C 0.39834 0.86289 0.35675 0.0
C2743 C 0.38344 0.87191 0.3694 0.0
C2744 C 0.41739 0.87669 0.34998 0.0
C2745 C 0.42277 0.85658 0.33425 0.0
N2746 N 0.39392 0.87305 0.36261 0.0
N2747 N 0.41262 0.85518 0.34146 0.0
H2748 H 0.33808 0.14713 0.56857 0.0
H2749 H 0.35836 0.13082 0.6357 0.0
H2750 H 0.36096 0.17355 0.59618 0.0
H2751 H 0.334 0.10453 0.609 0.0
H2752 H 0.35989 0.14635 0.62101 0.0
H2753 H 0.33699 0.13112 0.58289 0.0
C2754 C 0.34293 0.14954 0.57761 0.0
C2755 C 0.34957 0.16173 0.58119 0.0
C2756 C 0.35421 0.13718 0.61834 0.0
C2757 C 0.34829 0.14349 0.59765 0.0
C2758 C 0.3534 0.12828 0.62671 0.0
C2759 C 0.34607 0.11634 0.62357 0.0
C2760 C 0.34767 0.13415 0.6067 0.0
C2761 C 0.33966 0.11367 0.61185 0.0
C2762 C 0.34224 0.14043 0.58581 0.0
C2763 C 0.35556 0.16436 0.59308 0.0
N2764 N 0.34062 0.1225 0.60384 0.0
N2765 N 0.35477 0.15533 0.60086 0.0
H2766 H 0.05879 0.1462 0.81371 0.0
H2767 H 0.10287 0.11616 0.8615 0.0
H2768 H 0.0561 0.10616 0.81607 0.0
H2769 H 0.1098 0.15522 0.85469 0.0
H2770 H 0.0856 0.1123 0.84505 0.0
H2771 H 0.07726 0.14975 0.82899 0.0
C2772 C 0.06209 0.13816 0.81745 0.0
C2773 C 0.05587 0.12587 0.81364 0.0
C2774 C 0.09094 0.12171 0.84712 0.0
C2775 C 0.07702 0.12985 0.83113 0.0
C2776 C 0.10085 0.12391 0.85649 0.0
C2777 C 0.10781 0.13606 0.85955 0.0
C2778 C 0.08786 0.13172 0.84079 0.0
C2779 C 0.10458 0.14576 0.85282 0.0
C2780 C 0.07268 0.14018 0.82612 0.0
C2781 C 0.06067 0.11578 0.81867 0.0
N2782 N 0.09482 0.14339 0.84381 0.0
N2783 N 0.0709 0.118 0.82721 0.0
H2784 H 0.91459 0.38816 0.82582 0.0
H2785 H 0.868 0.33753 0.85722 0.0
H2786 H 0.92006 0.34905 0.82508 0.0
H2787 H 0.8689 0.37781 0.86496 0.0
H2788 H 0.88604 0.34131 0.84426 0.0
H2789 H 0.89655 0.38425 0.83879 0.0
C2790 C 0.91194 0.37872 0.82833 0.0
C2791 C 0.91882 0.36891 0.82435 0.0
C2792 C 0.88228 0.34931 0.84881 0.0
C2793 C 0.89824 0.36438 0.83925 0.0
C2794 C 0.87202 0.34717 0.85628 0.0
C2795 C 0.86687 0.35736 0.86223 0.0
C2796 C 0.88741 0.36173 0.84719 0.0
C2797 C 0.87237 0.36964 0.86043 0.0
C2798 C 0.9017 0.37652 0.8358 0.0
C2799 C 0.91508 0.35691 0.82803 0.0
N2800 N 0.8823 0.37147 0.85306 0.0
N2801 N 0.90501 0.35497 0.83523 0.0
H2802 H 0.82906 0.65731 0.09892 0.0
H2803 H 0.86595 0.60568 0.1285 0.0
H2804 H 0.86667 0.64889 0.08895 0.0
H2805 H 0.82778 0.61344 0.13736 0.0
H2806 H 0.86638 0.62128 0.11381 0.0
H2807 H 0.82833 0.64101 0.11282 0.0
C2808 C 0.83718 0.65204 0.09967 0.0
C2809 C 0.84797 0.65452 0.0928 0.0
C2810 C 0.85789 0.61954 0.11894 0.0
C2811 C 0.84717 0.63576 0.10867 0.0
C2812 C 0.85767 0.61069 0.12738 0.0
C2813 C 0.84681 0.60824 0.13418 0.0
C2814 C 0.84719 0.62605 0.11732 0.0
C2815 C 0.83629 0.6149 0.13222 0.0
C2816 C 0.83673 0.64268 0.10757 0.0
C2817 C 0.85811 0.64723 0.09399 0.0
N2818 N 0.83676 0.6235 0.12401 0.0
N2819 N 0.85749 0.63823 0.10182 0.0
H2820 H 0.56515 0.6575 0.3155 0.0
H2821 H 0.60412 0.62559 0.36595 0.0
H2822 H 0.55334 0.62021 0.32567 0.0
H2823 H 0.61395 0.66447 0.35937 0.0
H2824 H 0.58645 0.62308 0.35002 0.0
H2825 H 0.58405 0.65986 0.33033 0.0
C2826 C 0.56658 0.64979 0.32079 0.0
C2827 C 0.55761 0.63868 0.31941 0.0
C2828 C 0.59247 0.63217 0.35202 0.0
C2829 C 0.57914 0.64132 0.33639 0.0
C2830 C 0.60263 0.63358 0.36107 0.0
C2831 C 0.61055 0.64525 0.36399 0.0
C2832 C 0.59017 0.64249 0.34578 0.0
C2833 C 0.608 0.65533 0.35749 0.0
C2834 C 0.57732 0.65117 0.32929 0.0
C2835 C 0.55988 0.62902 0.32657 0.0
N2836 N 0.59803 0.65372 0.34868 0.0
N2837 N 0.5704 0.63057 0.33473 0.0
H2838 H 0.83815 0.3513 0.39456 0.0
H2839 H 0.87226 0.4075 0.36004 0.0
H2840 H 0.87724 0.37 0.40439 0.0
H2841 H 0.83226 0.39055 0.35233 0.0
H2842 H 0.87448 0.39364 0.37609 0.0
H2843 H 0.83594 0.3655 0.3789 0.0
C2844 C 0.84628 0.35839 0.39341 0.0
C2845 C 0.85791 0.35943 0.40077 0.0
C2846 C 0.86521 0.39298 0.3709 0.0
C2847 C 0.85544 0.37579 0.38286 0.0
C2848 C 0.86397 0.40082 0.36169 0.0
C2849 C 0.85205 0.40019 0.35484 0.0
C2850 C 0.85448 0.38438 0.37324 0.0
C2851 C 0.84158 0.39147 0.35748 0.0
C2852 C 0.84499 0.36654 0.38449 0.0
C2853 C 0.86805 0.36893 0.39899 0.0
N2854 N 0.84305 0.3839 0.36644 0.0
N2855 N 0.8666 0.3767 0.39018 0.0
H2856 H 0.58579 0.63241 0.90102 0.0
H2857 H 0.62951 0.58908 0.86339 0.0
H2858 H 0.62727 0.6352 0.90854 0.0
H2859 H 0.58756 0.58339 0.86003 0.0
H2860 H 0.62906 0.60523 0.8806 0.0
H2861 H 0.58634 0.61391 0.88644 0.0
C2862 C 0.59502 0.6291 0.8996 0.0
C2863 C 0.60651 0.63541 0.90592 0.0
C2864 C 0.61996 0.60036 0.87616 0.0
C2865 C 0.60725 0.61419 0.88922 0.0
C2866 C 0.62021 0.59109 0.86637 0.0
C2867 C 0.60856 0.58498 0.86015 0.0
C2868 C 0.60797 0.60356 0.87971 0.0
C2869 C 0.59679 0.58805 0.86437 0.0
C2870 C 0.59533 0.6185 0.89132 0.0
C2871 C 0.61818 0.63059 0.90388 0.0
N2872 N 0.5968 0.59718 0.8738 0.0
N2873 N 0.61827 0.62033 0.89561 0.0
H2874 H 0.8149 0.54283 0.89041 0.0
H2875 H 0.86043 0.60049 0.86728 0.0
H2876 H 0.81158 0.55317 0.85371 0.0
H2877 H 0.86042 0.59275 0.90487 0.0
H2878 H 0.84384 0.58209 0.86172 0.0
H2879 H 0.83296 0.55993 0.89543 0.0
C2880 C 0.81805 0.54862 0.88337 0.0
C2881 C 0.81168 0.54659 0.87163 0.0
C2882 C 0.84749 0.58441 0.87118 0.0
C2883 C 0.83228 0.56629 0.87735 0.0
C2884 C 0.857 0.59486 0.87435 0.0
C2885 C 0.86177 0.59819 0.88657 0.0
C2886 C 0.84274 0.57717 0.88029 0.0
C2887 C 0.85688 0.59063 0.89537 0.0
C2888 C 0.82831 0.55844 0.88626 0.0
C2889 C 0.81609 0.5545 0.86292 0.0
N2890 N 0.84764 0.58049 0.89206 0.0
N2891 N 0.8261 0.56401 0.86596 0.0
H2892 H 0.13807 0.055 0.6407 0.0
H2893 H 0.08956 0.08579 0.5974 0.0
H2894 H 0.12485 0.03874 0.60403 0.0
H2895 H 0.09718 0.09707 0.63605 0.0
H2896 H 0.1041 0.06978 0.59897 0.0
H2897 H 0.12478 0.07179 0.63847 0.0
C2898 C 0.13244 0.05502 0.63214 0.0
C2899 C 0.13257 0.04545 0.62254 0.0
C2900 C 0.10259 0.07577 0.6071 0.0
C2901 C 0.11722 0.06462 0.61994 0.0
C2902 C 0.09437 0.08495 0.60619 0.0
C2903 C 0.09211 0.09271 0.61662 0.0
C2904 C 0.1087 0.07445 0.6185 0.0
C2905 C 0.09851 0.09117 0.62781 0.0
C2906 C 0.12479 0.06457 0.63089 0.0
C2907 C 0.12493 0.04586 0.61171 0.0
N2908 N 0.1065 0.08223 0.62844 0.0
N2909 N 0.11758 0.0553 0.61069 0.0
H2910 H 0.63602 0.45784 0.38567 0.0
H2911 H 0.61991 0.38418 0.39295 0.0
H2912 H 0.66563 0.43378 0.38988 0.0
H2913 H 0.59085 0.4087 0.38821 0.0
H2914 H 0.63689 0.40233 0.39306 0.0
H2915 H 0.61947 0.44007 0.38775 0.0
C2916 C 0.63907 0.44885 0.38717 0.0
C2917 C 0.65228 0.44734 0.38763 0.0
C2918 C 0.6268 0.40373 0.39204 0.0
C2919 C 0.63326 0.4268 0.38982 0.0
C2920 C 0.6171 0.3934 0.39205 0.0
C2921 C 0.60393 0.39491 0.39049 0.0
C2922 C 0.6233 0.41567 0.39049 0.0
C2923 C 0.60087 0.40705 0.38924 0.0
C2924 C 0.62959 0.43866 0.38827 0.0
C2925 C 0.65557 0.43536 0.38933 0.0
N2926 N 0.61046 0.41693 0.38923 0.0
N2927 N 0.64613 0.42554 0.39034 0.0
H2928 H 0.34072 0.95447 0.13965 0.0
H2929 H 0.39193 0.92286 0.09964 0.0
H2930 H 0.35061 0.96511 0.10434 0.0
H2931 H 0.38025 0.91082 0.13397 0.0
H2932 H 0.37813 0.9395 0.10192 0.0
H2933 H 0.35646 0.93957 0.13845 0.0
C2934 C 0.3462 0.95367 0.13163 0.0
C2935 C 0.34425 0.96098 0.12203 0.0
C2936 C 0.37864 0.93326 0.10899 0.0
C2937 C 0.36238 0.94398 0.12064 0.0
C2938 C 0.38647 0.92372 0.10767 0.0
C2939 C 0.38719 0.91537 0.11659 0.0
C2940 C 0.37144 0.93447 0.1193 0.0
C2941 C 0.38009 0.91709 0.1269 0.0
C2942 C 0.35524 0.9452 0.13098 0.0
C2943 C 0.35184 0.95974 0.11199 0.0
N2944 N 0.37246 0.9264 0.12794 0.0
N2945 N 0.36051 0.95134 0.11153 0.0
H2946 H 0.8328 0.4721 0.63724 0.0
H2947 H 0.88172 0.44027 0.59455 0.0
H2948 H 0.8416 0.48352 0.60194 0.0
H2949 H 0.87143 0.42797 0.62916 0.0
H2950 H 0.86818 0.45705 0.59762 0.0
H2951 H 0.84809 0.45684 0.63501 0.0
C2952 C 0.83796 0.4714 0.62901 0.0
C2953 C 0.83583 0.47904 0.61971 0.0
C2954 C 0.86893 0.45072 0.60457 0.0
C2955 C 0.85344 0.46161 0.61713 0.0
C2956 C 0.87661 0.44109 0.60279 0.0
C2957 C 0.87768 0.43265 0.61158 0.0
C2958 C 0.86223 0.45192 0.61521 0.0
C2959 C 0.87101 0.43432 0.62219 0.0
C2960 C 0.84673 0.46272 0.62777 0.0
C2961 C 0.84299 0.47789 0.60937 0.0
N2962 N 0.86353 0.44371 0.62367 0.0
N2963 N 0.85141 0.46928 0.60832 0.0
H2964 H 0.31085 0.06793 0.36426 0.0
H2965 H 0.38758 0.09076 0.37363 0.0
H2966 H 0.33929 0.04229 0.36087 0.0
H2967 H 0.35846 0.11548 0.37852 0.0
H2968 H 0.37026 0.07297 0.36794 0.0
H2969 H 0.32837 0.08552 0.36854 0.0
C2970 C 0.3208 0.06599 0.3643 0.0
C2971 C 0.32358 0.05359 0.36213 0.0
C2972 C 0.36768 0.0823 0.37024 0.0
C2973 C 0.34379 0.07377 0.36723 0.0
C2974 C 0.37755 0.09246 0.37342 0.0
C2975 C 0.37446 0.10462 0.37662 0.0
C2976 C 0.35462 0.08432 0.37021 0.0
C2977 C 0.3613 0.10625 0.37631 0.0
C2978 C 0.33082 0.07606 0.36683 0.0
C2979 C 0.33669 0.05168 0.36258 0.0
N2980 N 0.35189 0.09623 0.37318 0.0
N2981 N 0.34631 0.06166 0.36507 0.0
H2982 H 0.64567 0.55287 0.11992 0.0
H2983 H 0.577 0.57678 0.12972 0.0
H2984 H 0.61467 0.5325 0.1374 0.0
H2985 H 0.60839 0.59817 0.11363 0.0
H2986 H 0.59049 0.56017 0.13201 0.0
H2987 H 0.63205 0.56932 0.11704 0.0
C2988 C 0.63603 0.55188 0.1232 0.0
C2989 C 0.63133 0.54127 0.12893 0.0
C2990 C 0.59444 0.56848 0.12796 0.0
C2991 C 0.61562 0.56002 0.12553 0.0
C2992 C 0.58675 0.57801 0.1267 0.0
C2993 C 0.59159 0.58893 0.12153 0.0
C2994 C 0.60709 0.56985 0.12403 0.0
C2995 C 0.60422 0.58987 0.11756 0.0
C2996 C 0.62823 0.56124 0.12149 0.0
C2997 C 0.61866 0.5404 0.1328 0.0
N2998 N 0.61155 0.58048 0.11893 0.0
N2999 N 0.61127 0.54965 0.13105 0.0
H3000 H 0.15651 0.9298 0.8704 0.0
H3001 H 0.10848 0.89406 0.91389 0.0
H3002 H 0.15451 0.94272 0.90845 0.0
H3003 H 0.10621 0.88577 0.87472 0.0
H3004 H 0.12709 0.91037 0.91262 0.0
H3005 H 0.1399 0.91196 0.8724 0.0
C3006 C 0.15269 0.9288 0.87922 0.0
C3007 C 0.15687 0.93779 0.88926 0.0
C3008 C 0.12253 0.90495 0.90431 0.0
C3009 C 0.13772 0.91745 0.89159 0.0
C3010 C 0.11197 0.89562 0.90504 0.0
C3011 C 0.10574 0.88864 0.89439 0.0
C3012 C 0.12696 0.90723 0.89285 0.0
C3013 C 0.1106 0.89108 0.88314 0.0
C3014 C 0.14313 0.91866 0.88034 0.0
C3015 C 0.15144 0.93609 0.90043 0.0
N3016 N 0.12089 0.90017 0.88267 0.0
N3017 N 0.14212 0.92614 0.90129 0.0
H3018 H 0.92158 0.87836 0.62114 0.0
H3019 H 0.89487 0.94402 0.63618 0.0
H3020 H 0.90394 0.89697 0.59297 0.0
H3021 H 0.90087 0.91789 0.66252 0.0
H3022 H 0.90051 0.92862 0.62008 0.0
H3023 H 0.91703 0.89487 0.63634 0.0
C3024 C 0.91671 0.88591 0.61814 0.0
C3025 C 0.91293 0.88614 0.60577 0.0
C3026 C 0.90061 0.92634 0.62941 0.0
C3027 C 0.9078 0.90524 0.62319 0.0
C3028 C 0.89733 0.93508 0.63859 0.0
C3029 C 0.89753 0.93234 0.65079 0.0
C3030 C 0.90418 0.91485 0.63248 0.0
C3031 C 0.9009 0.92062 0.65335 0.0
C3032 C 0.91414 0.89537 0.62684 0.0
C3033 C 0.90702 0.89642 0.60241 0.0
N3034 N 0.90413 0.91238 0.64431 0.0
N3035 N 0.90456 0.90555 0.6111 0.0
H3036 H 0.95325 0.13715 0.3174 0.0
H3037 H 0.90414 0.17651 0.35261 0.0
H3038 H 0.94425 0.17306 0.3077 0.0
H3039 H 0.91321 0.14046 0.36176 0.0
H3040 H 0.92031 0.17647 0.33737 0.0
H3041 H 0.9402 0.13926 0.3349 0.0
C3042 C 0.94868 0.14557 0.31903 0.0
C3043 C 0.94983 0.15492 0.311 0.0
C3044 C 0.91882 0.1686 0.34277 0.0
C3045 C 0.93461 0.15728 0.33098 0.0
C3046 C 0.90965 0.16866 0.35152 0.0
C3047 C 0.90723 0.15841 0.35838 0.0
C3048 C 0.92563 0.15823 0.34089 0.0
C3049 C 0.91458 0.14844 0.35651 0.0
C3050 C 0.94114 0.14673 0.329 0.0
C3051 C 0.94348 0.16552 0.31352 0.0
N3052 N 0.92338 0.14857 0.34791 0.0
N3053 N 0.93609 0.16638 0.32325 0.0
H3054 H 0.63671 0.15725 0.12098 0.0
H3055 H 0.63261 0.08512 0.1341 0.0
H3056 H 0.6331 0.12628 0.09232 0.0
H3057 H 0.63723 0.11673 0.1621 0.0
H3058 H 0.63435 0.0999 0.11858 0.0
H3059 H 0.63848 0.14246 0.13604 0.0
C3060 C 0.63647 0.14735 0.11782 0.0
C3061 C 0.63476 0.14304 0.10532 0.0
C3062 C 0.63506 0.10359 0.12812 0.0
C3063 C 0.63651 0.12592 0.12265 0.0
C3064 C 0.63414 0.09516 0.13698 0.0
C3065 C 0.63464 0.0997 0.1494 0.0
C3066 C 0.63651 0.11664 0.13173 0.0
C3067 C 0.63654 0.11281 0.15262 0.0
C3068 C 0.63739 0.13888 0.12646 0.0
C3069 C 0.63423 0.13003 0.10185 0.0
N3070 N 0.63734 0.12079 0.14385 0.0
N3071 N 0.63504 0.12193 0.11047 0.0
H3072 H 0.55847 0.85477 0.80627 0.0
H3073 H 0.57691 0.8359 0.87257 0.0
H3074 H 0.52983 0.84277 0.831 0.0
H3075 H 0.60488 0.84398 0.84607 0.0
H3076 H 0.55941 0.83719 0.85716 0.0
H3077 H 0.57544 0.84975 0.82035 0.0
C3078 C 0.5557 0.85091 0.81458 0.0
C3079 C 0.54265 0.84925 0.81744 0.0
C3080 C 0.56937 0.83859 0.85469 0.0
C3081 C 0.56217 0.84369 0.83379 0.0
C3082 C 0.57937 0.83778 0.86347 0.0
C3083 C 0.59241 0.83996 0.86066 0.0
C3084 C 0.57242 0.84163 0.84302 0.0
C3085 C 0.595 0.84249 0.84874 0.0
C3086 C 0.56544 0.84812 0.82267 0.0
C3087 C 0.53975 0.84442 0.82848 0.0
N3088 N 0.58512 0.84334 0.8404 0.0
N3089 N 0.54943 0.84189 0.83628 0.0
H3090 H 0.86485 0.1286 0.93446 0.0
H3091 H 0.85498 0.11677 0.86158 0.0
H3092 H 0.85649 0.15744 0.91186 0.0
H3093 H 0.85389 0.08678 0.88481 0.0
H3094 H 0.8582 0.13221 0.87977 0.0
H3095 H 0.86319 0.1135 0.91622 0.0
C3096 C 0.86259 0.13176 0.92569 0.0
C3097 C 0.86072 0.14433 0.92476 0.0
C3098 C 0.85729 0.12225 0.88088 0.0
C3099 C 0.85906 0.12708 0.90375 0.0
C3100 C 0.85555 0.11345 0.87051 0.0
C3101 C 0.85412 0.10048 0.8717 0.0
C3102 C 0.85772 0.11805 0.89252 0.0
C3103 C 0.8548 0.09668 0.88349 0.0
C3104 C 0.86173 0.12314 0.91525 0.0
C3105 C 0.85814 0.14791 0.91305 0.0
N3106 N 0.85655 0.10543 0.89344 0.0
N3107 N 0.85738 0.13933 0.90302 0.0
H3108 H 0.56433 0.1233 0.67054 0.0
H3109 H 0.61122 0.17736 0.64353 0.0
H3110 H 0.56685 0.16285 0.68335 0.0
H3111 H 0.61086 0.13751 0.63343 0.0
H3112 H 0.59491 0.17238 0.65807 0.0
H3113 H 0.58139 0.12844 0.65687 0.0
C3114 C 0.56847 0.13308 0.67046 0.0
C3115 C 0.5641 0.14267 0.67805 0.0
C3116 C 0.59843 0.16473 0.6527 0.0
C3117 C 0.58372 0.14864 0.66243 0.0
C3118 C 0.60768 0.16757 0.64435 0.0
C3119 C 0.61241 0.15783 0.63724 0.0
C3120 C 0.59381 0.15207 0.65391 0.0
C3121 C 0.60761 0.14531 0.63881 0.0
C3122 C 0.57826 0.13601 0.66269 0.0
C3123 C 0.56999 0.15516 0.67771 0.0
N3124 N 0.59856 0.1428 0.64692 0.0
N3125 N 0.57944 0.15779 0.66997 0.0
H3126 H 0.62698 0.82226 0.3958 0.0
H3127 H 0.63586 0.89613 0.38877 0.0
H3128 H 0.62785 0.85091 0.42632 0.0
H3129 H 0.62594 0.8671 0.3585 0.0
H3130 H 0.63513 0.87978 0.40274 0.0
H3131 H 0.6285 0.83867 0.38207 0.0
C3132 C 0.62739 0.83198 0.39963 0.0
C3133 C 0.62719 0.83515 0.41228 0.0
C3134 C 0.63311 0.877 0.39304 0.0
C3135 C 0.6292 0.85407 0.39653 0.0
C3136 C 0.63361 0.88631 0.38507 0.0
C3137 C 0.63091 0.88296 0.37247 0.0
C3138 C 0.63002 0.86424 0.38837 0.0
C3139 C 0.62793 0.8701 0.36816 0.0
C3140 C 0.62835 0.84137 0.39177 0.0
C3141 C 0.62811 0.84799 0.41668 0.0
N3142 N 0.62759 0.86122 0.37609 0.0
N3143 N 0.62907 0.85697 0.40882 0.0
H3144 H 0.95576 0.87183 0.17333 0.0
H3145 H 0.87875 0.87212 0.16714 0.0
H3146 H 0.93428 0.88724 0.20214 0.0
H3147 H 0.90111 0.86127 0.1371 0.0
H3148 H 0.89867 0.8759 0.18064 0.0
H3149 H 0.9355 0.86607 0.16049 0.0
C3150 C 0.94679 0.87402 0.17696 0.0
C3151 C 0.94676 0.88013 0.18882 0.0
C3152 C 0.8992 0.87264 0.17111 0.0
C3153 C 0.92346 0.87342 0.17418 0.0
C3154 C 0.88784 0.87053 0.16337 0.0
C3155 C 0.88824 0.86643 0.15093 0.0
C3156 C 0.91108 0.87063 0.16639 0.0
C3157 C 0.90029 0.8643 0.14664 0.0
C3158 C 0.9352 0.87067 0.16964 0.0
C3159 C 0.93478 0.88247 0.19311 0.0
N3160 N 0.91121 0.86648 0.15434 0.0
N3161 N 0.92363 0.87917 0.18578 0.0
H3162 H 0.07835 0.63335 0.19506 0.0
H3163 H 0.09242 0.65133 0.12802 0.0
H3164 H 0.04951 0.64382 0.16976 0.0
H3165 H 0.12264 0.64564 0.15454 0.0
H3166 H 0.07655 0.64815 0.14318 0.0
H3167 H 0.09474 0.63748 0.1804 0.0
C3168 C 0.07547 0.6366 0.18647 0.0
C3169 C 0.06249 0.63816 0.18363 0.0
C3170 C 0.08666 0.64762 0.14571 0.0
C3171 C 0.08117 0.64275 0.16675 0.0
C3172 C 0.09576 0.64951 0.13706 0.0
C3173 C 0.10893 0.64881 0.14 0.0
C3174 C 0.0907 0.64495 0.15741 0.0
C3175 C 0.11258 0.64613 0.15181 0.0
C3176 C 0.08482 0.63889 0.17808 0.0
C3177 C 0.05932 0.64225 0.17228 0.0
N3178 N 0.10352 0.6443 0.16008 0.0
N3179 N 0.06857 0.64436 0.16427 0.0
H3180 H 0.13057 0.34682 0.91517 0.0
H3181 H 0.11333 0.36335 0.84751 0.0
H3182 H 0.1128 0.31939 0.88566 0.0
H3183 H 0.12997 0.39135 0.877 0.0
H3184 H 0.11311 0.34716 0.86146 0.0
H3185 H 0.13044 0.36332 0.90147 0.0
C3186 C 0.12658 0.34427 0.90583 0.0
C3187 C 0.12172 0.33168 0.90156 0.0
C3188 C 0.1168 0.35684 0.8649 0.0
C3189 C 0.12165 0.3505 0.88579 0.0
C3190 C 0.11686 0.36612 0.85695 0.0
C3191 C 0.12162 0.37876 0.86109 0.0
C3192 C 0.12156 0.36019 0.87713 0.0
C3193 C 0.12632 0.38172 0.87338 0.0
C3194 C 0.12657 0.35369 0.898 0.0
C3195 C 0.11683 0.32892 0.88932 0.0
N3196 N 0.12615 0.3725 0.88097 0.0
N3197 N 0.11692 0.33824 0.88188 0.0
H3198 H 0.43154 0.36659 0.67624 0.0
H3199 H 0.3755 0.39169 0.63653 0.0
H3200 H 0.43293 0.40517 0.66827 0.0
H3201 H 0.37666 0.35222 0.63974 0.0
H3202 H 0.39586 0.39692 0.64929 0.0
H3203 H 0.41075 0.36124 0.66403 0.0
C3204 C 0.42744 0.37395 0.67197 0.0
C3205 C 0.434 0.38634 0.67324 0.0
C3206 C 0.39167 0.38711 0.64722 0.0
C3207 C 0.41025 0.38029 0.65924 0.0
C3208 C 0.38 0.38412 0.63999 0.0
C3209 C 0.37436 0.3715 0.63709 0.0
C3210 C 0.39776 0.37741 0.65164 0.0
C3211 C 0.38073 0.36207 0.64168 0.0
C3212 C 0.41561 0.37088 0.66495 0.0
C3213 C 0.4283 0.39546 0.6674 0.0
N3214 N 0.39208 0.36521 0.64875 0.0
N3215 N 0.41676 0.39226 0.66068 0.0
H3216 H 0.11233 0.6571 0.63274 0.0
H3217 H 0.11424 0.58479 0.64272 0.0
H3218 H 0.1121 0.62791 0.60282 0.0
H3219 H 0.11958 0.61543 0.67176 0.0
H3220 H 0.1138 0.60019 0.62782 0.0
H3221 H 0.11513 0.64175 0.64704 0.0
C3222 C 0.11301 0.64749 0.62915 0.0
C3223 C 0.11204 0.64385 0.61652 0.0
C3224 C 0.11513 0.60352 0.63745 0.0
C3225 C 0.11502 0.62606 0.63295 0.0
C3226 C 0.11546 0.59475 0.64595 0.0
C3227 C 0.11681 0.59882 0.65851 0.0
C3228 C 0.11615 0.61644 0.64156 0.0
C3229 C 0.11825 0.61184 0.66219 0.0
C3230 C 0.11454 0.63868 0.63735 0.0
C3231 C 0.11266 0.63114 0.61247 0.0
N3232 N 0.11781 0.62015 0.65377 0.0
N3233 N 0.11408 0.62269 0.62067 0.0
H3234 H 0.4192 0.36982 0.09374 0.0
H3235 H 0.36529 0.40702 0.12364 0.0
H3236 H 0.3793 0.36506 0.07908 0.0
H3237 H 0.4057 0.41254 0.13685 0.0
H3238 H 0.37041 0.39301 0.10622 0.0
H3239 H 0.41465 0.38669 0.10867 0.0
C3240 C 0.40948 0.37236 0.09365 0.0
C3241 C 0.39958 0.36594 0.08523 0.0
C3242 C 0.37817 0.39737 0.11288 0.0
C3243 C 0.39427 0.38529 0.10231 0.0
C3244 C 0.37526 0.40543 0.12279 0.0
C3245 C 0.38506 0.41085 0.13178 0.0
C3246 C 0.39096 0.39473 0.11199 0.0
C3247 C 0.3978 0.40837 0.13026 0.0
C3248 C 0.40688 0.38203 0.10214 0.0
C3249 C 0.38722 0.36979 0.08538 0.0
N3250 N 0.40036 0.40043 0.12063 0.0
N3251 N 0.38487 0.37913 0.09387 0.0
H3252 H 0.52621 0.34857 0.18039 0.0
H3253 H 0.60304 0.3587 0.17391 0.0
H3254 H 0.55426 0.36874 0.20832 0.0
H3255 H 0.57501 0.33991 0.1453 0.0
H3256 H 0.58538 0.3611 0.1872 0.0
H3257 H 0.54402 0.34398 0.16795 0.0
C3258 C 0.53611 0.35203 0.18391 0.0
C3259 C 0.53872 0.35912 0.1954 0.0
C3260 C 0.58308 0.35639 0.17804 0.0
C3261 C 0.55918 0.35382 0.18122 0.0
C3262 C 0.59316 0.35506 0.17043 0.0
C3263 C 0.5905 0.34917 0.15844 0.0
C3264 C 0.5702 0.35183 0.17364 0.0
C3265 C 0.57753 0.34443 0.15449 0.0
C3266 C 0.54628 0.34936 0.17682 0.0
C3267 C 0.55177 0.36315 0.19958 0.0
N3268 N 0.56787 0.34594 0.16205 0.0
N3269 N 0.56149 0.36051 0.19247 0.0
H3270 H 0.94641 0.68619 0.71038 0.0
H3271 H 0.92592 0.66063 0.64052 0.0
H3272 H 0.95751 0.65225 0.6922 0.0
H3273 H 0.91738 0.69631 0.65716 0.0
H3274 H 0.93882 0.65824 0.6591 0.0
H3275 H 0.93681 0.69083 0.69084 0.0
C3276 C 0.94687 0.67974 0.70228 0.0
C3277 C 0.95273 0.66878 0.70296 0.0
C3278 C 0.93424 0.66666 0.65869 0.0
C3279 C 0.94182 0.67405 0.68056 0.0
C3280 C 0.92686 0.66801 0.64808 0.0
C3281 C 0.92048 0.67863 0.64736 0.0
C3282 C 0.93518 0.67593 0.66874 0.0
C3283 C 0.92216 0.68799 0.65736 0.0
C3284 C 0.94146 0.68243 0.69112 0.0
C3285 C 0.95322 0.66087 0.69213 0.0
N3286 N 0.92923 0.68636 0.6677 0.0
N3287 N 0.94775 0.66361 0.68142 0.0
H3288 H 0.63829 0.3608 0.58742 0.0
H3289 H 0.60586 0.41633 0.62228 0.0
H3290 H 0.59927 0.36818 0.5787 0.0
H3291 H 0.64572 0.4109 0.62994 0.0
H3292 H 0.60325 0.39837 0.60655 0.0
H3293 H 0.64114 0.37865 0.60343 0.0
C3294 C 0.6303 0.36612 0.58893 0.0
C3295 C 0.61853 0.36301 0.58168 0.0
C3296 C 0.61259 0.40109 0.61165 0.0
C3297 C 0.62176 0.3835 0.5999 0.0
C3298 C 0.61406 0.41132 0.62068 0.0
C3299 C 0.62601 0.41509 0.62749 0.0
C3300 C 0.62312 0.39451 0.60938 0.0
C3301 C 0.63637 0.40837 0.62485 0.0
C3302 C 0.63196 0.37636 0.59801 0.0
C3303 C 0.60856 0.37033 0.58394 0.0
N3304 N 0.63468 0.39838 0.61603 0.0
N3305 N 0.6104 0.38021 0.59284 0.0
H3306 H 0.44592 0.62758 0.81218 0.0
H3307 H 0.39829 0.66499 0.85158 0.0
H3308 H 0.43601 0.66389 0.80471 0.0
H3309 H 0.40823 0.6286 0.85865 0.0
H3310 H 0.41345 0.66564 0.83546 0.0
H3311 H 0.4336 0.62868 0.83028 0.0
C3312 C 0.4413 0.63587 0.81442 0.0
C3313 C 0.44198 0.64563 0.80685 0.0
C3314 C 0.41237 0.65754 0.84059 0.0
C3315 C 0.42763 0.64686 0.82752 0.0
C3316 C 0.40378 0.6572 0.84984 0.0
C3317 C 0.40191 0.64668 0.85642 0.0
C3318 C 0.41916 0.64729 0.83788 0.0
C3319 C 0.40919 0.6368 0.85367 0.0
C3320 C 0.43418 0.63645 0.82473 0.0
C3321 C 0.43559 0.65604 0.81016 0.0
N3322 N 0.41743 0.63732 0.84459 0.0
N3323 N 0.42864 0.65635 0.8202 0.0
H3324 H 0.03835 0.33248 0.30103 0.0
H3325 H 0.08419 0.36351 0.35984 0.0
H3326 H 0.03339 0.36732 0.32208 0.0
H3327 H 0.08422 0.32503 0.34453 0.0
H3328 H 0.06586 0.3651 0.34555 0.0
H3329 H 0.05558 0.3296 0.31623 0.0
C3330 C 0.04087 0.3395 0.30885 0.0
C3331 C 0.0344 0.35014 0.31031 0.0
C3332 C 0.06979 0.35627 0.34532 0.0
C3333 C 0.05405 0.34691 0.32768 0.0
C3334 C 0.08028 0.35538 0.35346 0.0
C3335 C 0.08575 0.34415 0.35329 0.0
C3336 C 0.06477 0.34589 0.33684 0.0
C3337 C 0.08023 0.33384 0.34495 0.0
C3338 C 0.05064 0.33781 0.31754 0.0
C3339 C 0.03799 0.35889 0.32065 0.0
N3340 N 0.0701 0.33499 0.33695 0.0
N3341 N 0.0476 0.35712 0.32888 0.0
H3342 H 0.33942 0.62721 0.42309 0.0
H3343 H 0.35349 0.61872 0.35239 0.0
H3344 H 0.35975 0.65681 0.4049 0.0
H3345 H 0.33581 0.58869 0.37169 0.0
H3346 H 0.35537 0.63305 0.37129 0.0
H3347 H 0.33741 0.61321 0.40408 0.0
C3348 C 0.34352 0.63076 0.41511 0.0
C3349 C 0.34983 0.64321 0.41564 0.0
C3350 C 0.35106 0.62333 0.37137 0.0
C3351 C 0.34742 0.62722 0.39373 0.0
C3352 C 0.35005 0.61512 0.3606 0.0
C3353 C 0.34445 0.60248 0.36043 0.0
C3354 C 0.34646 0.61885 0.38206 0.0
C3355 C 0.34 0.59839 0.37132 0.0
C3356 C 0.34231 0.62277 0.40423 0.0
C3357 C 0.3547 0.64733 0.40491 0.0
N3358 N 0.3411 0.60655 0.38167 0.0
N3359 N 0.35343 0.63935 0.3944 0.0
H3360 H 0.09937 0.30976 0.02671 0.0
H3361 H 0.08805 0.37336 0.06598 0.0
H3362 H 0.09337 0.34403 0.01134 0.0
H3363 H 0.08926 0.33837 0.08161 0.0
H3364 H 0.08853 0.36218 0.04569 0.0
H3365 H 0.09427 0.31935 0.04665 0.0
C3366 C 0.09685 0.31924 0.02749 0.0
C3367 C 0.097 0.32616 0.01736 0.0
C3368 C 0.08855 0.35688 0.05351 0.0
C3369 C 0.09125 0.33722 0.04014 0.0
C3370 C 0.08828 0.36327 0.0651 0.0
C3371 C 0.0887 0.35679 0.07548 0.0
C3372 C 0.08942 0.34389 0.05225 0.0
C3373 C 0.08888 0.3437 0.07383 0.0
C3374 C 0.09398 0.32472 0.03888 0.0
C3375 C 0.0937 0.33843 0.01894 0.0
N3376 N 0.08941 0.3377 0.06244 0.0
N3377 N 0.09107 0.34357 0.03009 0.0
H3378 H 0.97731 0.87703 0.31113 0.0
H3379 H 0.953 0.92279 0.36386 0.0
H3380 H 0.9795 0.91732 0.31076 0.0
H3381 H 0.95095 0.88257 0.36461 0.0
H3382 H 0.96507 0.92125 0.34558 0.0
H3383 H 0.96997 0.87911 0.33178 0.0
C3384 C 0.97634 0.88632 0.31542 0.0
C3385 C 0.97891 0.897 0.30914 0.0
C3386 C 0.96211 0.91277 0.3498 0.0
C3387 C 0.97052 0.89946 0.3328 0.0
C3388 C 0.95519 0.91364 0.36022 0.0
C3389 C 0.95083 0.90277 0.36569 0.0
C3390 C 0.96464 0.90091 0.34472 0.0
C3391 C 0.95414 0.89119 0.36071 0.0
C3392 C 0.97219 0.88751 0.32723 0.0
C3393 C 0.9777 0.90884 0.31525 0.0
N3394 N 0.96071 0.89054 0.35043 0.0
N3395 N 0.97347 0.90972 0.32668 0.0
H3396 H 0.35568 0.6635 0.52338 0.0
H3397 H 0.38752 0.66129 0.59089 0.0
H3398 H 0.37985 0.69541 0.54376 0.0
H3399 H 0.36635 0.62905 0.56844 0.0
H3400 H 0.38423 0.67431 0.57426 0.0
H3401 H 0.35884 0.65112 0.54031 0.0
C3402 C 0.36173 0.6679 0.5314 0.0
C3403 C 0.36761 0.6805 0.53207 0.0
C3404 C 0.38032 0.66439 0.57299 0.0
C3405 C 0.37114 0.66635 0.55166 0.0
C3406 C 0.38219 0.65695 0.58247 0.0
C3407 C 0.3772 0.64407 0.581 0.0
C3408 C 0.37337 0.65888 0.56202 0.0
C3409 C 0.37037 0.63894 0.56992 0.0
C3410 C 0.36347 0.66082 0.54111 0.0
C3411 C 0.37506 0.68576 0.54285 0.0
N3412 N 0.36864 0.64635 0.56087 0.0
N3413 N 0.37665 0.67864 0.55221 0.0
H3414 H 0.53711 0.10535 0.79512 0.0
H3415 H 0.5757 0.12926 0.86007 0.0
H3416 H 0.55644 0.14346 0.80463 0.0
H3417 H 0.56033 0.09041 0.84819 0.0
H3418 H 0.567 0.13522 0.84068 0.0
H3419 H 0.54358 0.10035 0.81545 0.0
C3420 C 0.54258 0.11273 0.80153 0.0
C3421 C 0.54626 0.12484 0.79812 0.0
C3422 C 0.56548 0.1254 0.84235 0.0
C3423 C 0.5539 0.11911 0.82144 0.0
C3424 C 0.57043 0.122 0.85342 0.0
C3425 C 0.56873 0.10931 0.85569 0.0
C3426 C 0.55878 0.11604 0.83355 0.0
C3427 C 0.56186 0.1003 0.84676 0.0
C3428 C 0.54637 0.10983 0.81313 0.0
C3429 C 0.55353 0.13395 0.8068 0.0
N3430 N 0.55715 0.10382 0.83609 0.0
N3431 N 0.55715 0.13088 0.81804 0.0
H3432 H 0.09244 0.66369 0.4865 0.0
H3433 H 0.07813 0.59977 0.44087 0.0
H3434 H 0.08521 0.62637 0.49799 0.0
H3435 H 0.08417 0.63663 0.4283 0.0
H3436 H 0.07985 0.60968 0.46189 0.0
H3437 H 0.08852 0.65434 0.46517 0.0
C3438 C 0.08994 0.65355 0.48455 0.0
C3439 C 0.0893 0.6458 0.49406 0.0
C3440 C 0.08074 0.61564 0.45457 0.0
C3441 C 0.08487 0.63505 0.4697 0.0
C3442 C 0.07974 0.60998 0.44257 0.0
C3443 C 0.08102 0.61738 0.43287 0.0
C3444 C 0.08311 0.62886 0.45694 0.0
C3445 C 0.08312 0.63057 0.43554 0.0
C3446 C 0.08776 0.64822 0.47237 0.0
C3447 C 0.08609 0.63272 0.49098 0.0
N3448 N 0.08416 0.6359 0.44734 0.0
N3449 N 0.08405 0.62778 0.47911 0.0
H3450 H 0.53165 0.8608 0.69293 0.0
H3451 H 0.59963 0.88301 0.66639 0.0
H3452 H 0.56282 0.88672 0.71282 0.0
H3453 H 0.5662 0.86567 0.64278 0.0
H3454 H 0.58613 0.8833 0.68366 0.0
H3455 H 0.5437 0.86174 0.67447 0.0
C3456 C 0.54093 0.86679 0.69339 0.0
C3457 C 0.54631 0.87354 0.70451 0.0
C3458 C 0.58167 0.87946 0.67472 0.0
C3459 C 0.56018 0.87451 0.68351 0.0
C3460 C 0.5894 0.87925 0.66486 0.0
C3461 C 0.58402 0.87432 0.65317 0.0
C3462 C 0.56842 0.87458 0.67295 0.0
C3463 C 0.57071 0.86957 0.65168 0.0
C3464 C 0.54782 0.86727 0.68287 0.0
C3465 C 0.55842 0.8811 0.70456 0.0
N3466 N 0.56334 0.86976 0.6615 0.0
N3467 N 0.56495 0.88129 0.69429 0.0
H3468 H 0.44029 0.36676 0.97696 0.0
H3469 H 0.42695 0.35736 0.90421 0.0
H3470 H 0.41686 0.33358 0.95801 0.0
H3471 H 0.43912 0.39323 0.92565 0.0
H3472 H 0.42663 0.34705 0.92315 0.0
H3473 H 0.44367 0.375 0.95748 0.0
C3474 C 0.43586 0.36118 0.96868 0.0
C3475 C 0.42805 0.34956 0.96916 0.0
C3476 C 0.42946 0.35716 0.92366 0.0
C3477 C 0.432 0.35894 0.94672 0.0
C3478 C 0.42969 0.36303 0.91288 0.0
C3479 C 0.43306 0.37616 0.91343 0.0
C3480 C 0.43278 0.3645 0.93496 0.0
C3481 C 0.43645 0.38309 0.92486 0.0
C3482 C 0.43783 0.36588 0.95755 0.0
C3483 C 0.42291 0.34259 0.95808 0.0
N3484 N 0.43623 0.37719 0.93515 0.0
N3485 N 0.42487 0.34744 0.94729 0.0
H3486 H 0.98185 0.13992 0.18208 0.0
H3487 H 0.90672 0.13856 0.16187 0.0
H3488 H 0.95185 0.14243 0.20723 0.0
H3489 H 0.93647 0.14002 0.13629 0.0
H3490 H 0.92352 0.1415 0.17867 0.0
H3491 H 0.96585 0.1412 0.16522 0.0
C3492 C 0.97193 0.14081 0.18407 0.0
C3493 C 0.9682 0.14104 0.19611 0.0
C3494 C 0.92644 0.14131 0.1694 0.0
C3495 C 0.94986 0.14254 0.17687 0.0
C3496 C 0.91683 0.13962 0.15982 0.0
C3497 C 0.92023 0.13896 0.1477 0.0
C3498 C 0.93958 0.14219 0.16688 0.0
C3499 C 0.93347 0.14052 0.14553 0.0
C3500 C 0.96282 0.14161 0.17445 0.0
C3501 C 0.95524 0.14237 0.19815 0.0
N3502 N 0.94268 0.1419 0.15503 0.0
N3503 N 0.94655 0.14297 0.18864 0.0
H3504 H 0.0385 0.07732 0.29079 0.0
H3505 H 0.11406 0.09314 0.31102 0.0
H3506 H 0.06356 0.10961 0.28122 0.0
H3507 H 0.08941 0.06114 0.32143 0.0
H3508 H 0.09656 0.09682 0.29662 0.0
H3509 H 0.05763 0.069 0.2988 0.0
C3510 C 0.04803 0.0826 0.29025 0.0
C3511 C 0.04939 0.09429 0.28549 0.0
C3512 C 0.09502 0.08882 0.30183 0.0
C3513 C 0.07134 0.08478 0.29461 0.0
C3514 C 0.10504 0.08668 0.30997 0.0
C3515 C 0.10311 0.07681 0.3173 0.0
C3516 C 0.08289 0.08117 0.30123 0.0
C3517 C 0.09124 0.06878 0.31581 0.0
C3518 C 0.05895 0.07781 0.29478 0.0
C3519 C 0.06201 0.10057 0.28478 0.0
N3520 N 0.08147 0.07125 0.30806 0.0
N3521 N 0.07246 0.09582 0.28945 0.0
H3522 H 0.09156 0.74312 0.60244 0.0
H3523 H 0.10401 0.81857 0.61085 0.0
H3524 H 0.09707 0.76536 0.57223 0.0
H3525 H 0.08945 0.79617 0.63866 0.0
H3526 H 0.10324 0.79923 0.5969 0.0
H3527 H 0.09236 0.76248 0.61614 0.0
C3528 C 0.09282 0.75205 0.59864 0.0
C3529 C 0.09414 0.75253 0.58609 0.0
C3530 C 0.10021 0.79855 0.60605 0.0
C3531 C 0.09535 0.77486 0.60187 0.0
C3532 C 0.10068 0.80958 0.61403 0.0
C3533 C 0.0968 0.80893 0.62594 0.0
C3534 C 0.09593 0.7868 0.61004 0.0
C3535 C 0.09252 0.79705 0.62955 0.0
C3536 C 0.09336 0.76313 0.60651 0.0
C3537 C 0.09613 0.76447 0.58183 0.0
N3538 N 0.09224 0.78645 0.62166 0.0
N3539 N 0.09668 0.77515 0.5897 0.0
H3540 H 0.42759 0.89518 0.77213 0.0
H3541 H 0.41585 0.91848 0.84117 0.0
H3542 H 0.45838 0.90951 0.79991 0.0
H3543 H 0.38495 0.91179 0.81253 0.0
H3544 H 0.43143 0.91465 0.82603 0.0
H3545 H 0.41163 0.90052 0.78661 0.0
C3546 C 0.43099 0.89947 0.78126 0.0
C3547 C 0.44436 0.90193 0.7848 0.0
C3548 C 0.42127 0.91409 0.823 0.0
C3549 C 0.42617 0.90803 0.80138 0.0
C3550 C 0.41238 0.91628 0.83165 0.0
C3551 C 0.39913 0.91548 0.82809 0.0
C3552 C 0.41689 0.91093 0.81065 0.0
C3553 C 0.3951 0.91255 0.81565 0.0
C3554 C 0.42188 0.90257 0.78949 0.0
C3555 C 0.44821 0.90759 0.79671 0.0
N3556 N 0.40395 0.91029 0.80736 0.0
N3557 N 0.43918 0.91037 0.80456 0.0
H3558 H 0.40548 0.2372 0.03928 0.0
H3559 H 0.42056 0.21897 0.10682 0.0
H3560 H 0.42514 0.26324 0.06901 0.0
H3561 H 0.40169 0.19207 0.07742 0.0
H3562 H 0.42266 0.23515 0.09279 0.0
H3563 H 0.40451 0.22032 0.0527 0.0
C3564 C 0.40968 0.23935 0.04859 0.0
C3565 C 0.41531 0.2517 0.05304 0.0
C3566 C 0.41807 0.22572 0.08936 0.0
C3567 C 0.41412 0.23246 0.06847 0.0
C3568 C 0.41687 0.21648 0.09738 0.0
C3569 C 0.41092 0.2042 0.09329 0.0
C3570 C 0.41326 0.22267 0.07711 0.0
C3571 C 0.40632 0.20145 0.08097 0.0
C3572 C 0.40906 0.22973 0.05626 0.0
C3573 C 0.42049 0.25394 0.06523 0.0
N3574 N 0.40756 0.21063 0.07331 0.0
N3575 N 0.41974 0.24445 0.07249 0.0
H3576 H 0.08314 0.93149 0.23084 0.0
H3577 H 0.09961 0.92367 0.16074 0.0
H3578 H 0.05489 0.91777 0.20061 0.0
H3579 H 0.12916 0.93313 0.19055 0.0
H3580 H 0.08294 0.92383 0.17534 0.0
H3581 H 0.09999 0.93416 0.21636 0.0
C3582 C 0.08046 0.92905 0.22118 0.0
C3583 C 0.06753 0.9244 0.21697 0.0
C3584 C 0.09306 0.92593 0.17872 0.0
C3585 C 0.08676 0.92757 0.20036 0.0
C3586 C 0.10259 0.92582 0.17038 0.0
C3587 C 0.11581 0.92824 0.17444 0.0
C3588 C 0.09672 0.92846 0.19127 0.0
C3589 C 0.11908 0.93123 0.18702 0.0
C3590 C 0.09008 0.93064 0.21292 0.0
C3591 C 0.06464 0.92158 0.20432 0.0
N3592 N 0.1096 0.93116 0.19501 0.0
N3593 N 0.07416 0.92317 0.1965 0.0
H3594 H 0.33118 0.76529 0.435 0.0
H3595 H 0.37974 0.8255 0.42081 0.0
H3596 H 0.37253 0.7708 0.44445 0.0
H3597 H 0.33862 0.8199 0.41037 0.0
H3598 H 0.37693 0.80621 0.4309 0.0
H3599 H 0.33334 0.78595 0.42732 0.0
C3600 C 0.34071 0.77086 0.43551 0.0
C3601 C 0.35171 0.76623 0.44032 0.0
C3602 C 0.36849 0.80921 0.42646 0.0
C3603 C 0.35423 0.78995 0.43157 0.0
C3604 C 0.3701 0.82022 0.42071 0.0
C3605 C 0.35942 0.82426 0.41473 0.0
C3606 C 0.35609 0.80213 0.4262 0.0
C3607 C 0.34713 0.8171 0.41486 0.0
C3608 C 0.34192 0.78268 0.43116 0.0
C3609 C 0.36376 0.77398 0.44093 0.0
N3610 N 0.34581 0.80635 0.42046 0.0
N3611 N 0.36471 0.7854 0.43653 0.0
H3612 H 0.43342 0.10148 0.71633 0.0
H3613 H 0.40439 0.10501 0.64824 0.0
H3614 H 0.4547 0.11988 0.68914 0.0
H3615 H 0.38019 0.09419 0.67688 0.0
H3616 H 0.42328 0.10897 0.66299 0.0
H3617 H 0.41403 0.09756 0.70202 0.0
C3618 C 0.43402 0.10477 0.70741 0.0
C3619 C 0.44579 0.11095 0.70394 0.0
C3620 C 0.41386 0.10574 0.66608 0.0
C3621 C 0.42368 0.10631 0.68747 0.0
C3622 C 0.40309 0.10343 0.65765 0.0
C3623 C 0.39075 0.09929 0.66135 0.0
C3624 C 0.41232 0.10381 0.67834 0.0
C3625 C 0.38956 0.0974 0.67366 0.0
C3626 C 0.42296 0.10246 0.69922 0.0
C3627 C 0.44597 0.11485 0.69217 0.0
N3628 N 0.40024 0.09966 0.68173 0.0
N3629 N 0.43513 0.11242 0.68438 0.0
H3630 H 0.12221 0.2286 0.9167 0.0
H3631 H 0.13331 0.15613 0.91233 0.0
H3632 H 0.13073 0.20981 0.94835 0.0
H3633 H 0.12704 0.17629 0.88114 0.0
H3634 H 0.13316 0.17569 0.92575 0.0
H3635 H 0.1245 0.20953 0.90364 0.0
C3636 C 0.12469 0.22051 0.92093 0.0
C3637 C 0.12635 0.22088 0.93368 0.0
C3638 C 0.13188 0.17583 0.91597 0.0
C3639 C 0.12878 0.1988 0.91869 0.0
C3640 C 0.13205 0.16469 0.9083 0.0
C3641 C 0.13009 0.16453 0.89558 0.0
C3642 C 0.12974 0.18691 0.91089 0.0
C3643 C 0.12836 0.1759 0.89088 0.0
C3644 C 0.12593 0.20956 0.91344 0.0
C3645 C 0.12924 0.20994 0.93858 0.0
N3646 N 0.12818 0.18657 0.89852 0.0
N3647 N 0.13036 0.19934 0.93108 0.0
H3648 H 0.36108 0.07222 0.09661 0.0
H3649 H 0.36617 0.14758 0.10425 0.0
H3650 H 0.32886 0.09167 0.10631 0.0
H3651 H 0.39908 0.12721 0.105 0.0
H3652 H 0.3516 0.12734 0.10078 0.0
H3653 H 0.37425 0.09248 0.09537 0.0
C3654 C 0.35669 0.08075 0.09829 0.0
C3655 C 0.34382 0.08022 0.10159 0.0
C3656 C 0.36202 0.12733 0.10154 0.0
C3657 C 0.359 0.10355 0.10036 0.0
C3658 C 0.3703 0.13884 0.10342 0.0
C3659 C 0.38379 0.13898 0.10492 0.0
C3660 C 0.36733 0.11596 0.10105 0.0
C3661 C 0.38871 0.12745 0.10392 0.0
C3662 C 0.36427 0.09233 0.09767 0.0
C3663 C 0.33877 0.09164 0.10388 0.0
N3664 N 0.38049 0.11641 0.10209 0.0
N3665 N 0.34639 0.10285 0.10326 0.0
H3666 H 0.78903 0.4162 0.85558 0.0
H3667 H 0.82589 0.37351 0.89741 0.0
H3668 H 0.79463 0.42363 0.89482 0.0
H3669 H 0.82285 0.36854 0.85805 0.0
H3670 H 0.81156 0.38982 0.89692 0.0
H3671 H 0.79838 0.3967 0.85662 0.0
C3672 C 0.79201 0.41364 0.86444 0.0
C3673 C 0.79113 0.42166 0.87512 0.0
C3674 C 0.81393 0.38507 0.88839 0.0
C3675 C 0.80212 0.39937 0.87636 0.0
C3676 C 0.82203 0.37571 0.88867 0.0
C3677 C 0.82569 0.36979 0.87775 0.0
C3678 C 0.80941 0.38848 0.8771 0.0
C3679 C 0.82046 0.37304 0.86668 0.0
C3680 C 0.79746 0.40253 0.86503 0.0
C3681 C 0.79534 0.41787 0.88633 0.0
N3682 N 0.81268 0.38221 0.86664 0.0
N3683 N 0.80075 0.40706 0.88665 0.0
H3684 H 0.76235 0.53218 0.13504 0.0
H3685 H 0.8211 0.57781 0.17349 0.0
H3686 H 0.75919 0.54998 0.17135 0.0
H3687 H 0.8199 0.56712 0.13469 0.0
H3688 H 0.79991 0.56478 0.17401 0.0
H3689 H 0.785 0.54196 0.136 0.0
C3690 C 0.76648 0.53799 0.1433 0.0
C3691 C 0.75883 0.54031 0.15311 0.0
C3692 C 0.80435 0.56523 0.16541 0.0
C3693 C 0.78475 0.55167 0.15421 0.0
C3694 C 0.81644 0.57259 0.16512 0.0
C3695 C 0.82217 0.57361 0.15401 0.0
C3696 C 0.79804 0.55876 0.15452 0.0
C3697 C 0.81572 0.56672 0.14341 0.0
C3698 C 0.77939 0.54366 0.1438 0.0
C3699 C 0.76468 0.54808 0.16351 0.0
N3700 N 0.80399 0.55962 0.14393 0.0
N3701 N 0.77728 0.55352 0.16378 0.0
H3702 H 0.70536 0.57095 0.38918 0.0
H3703 H 0.6382 0.59297 0.36818 0.0
H3704 H 0.68164 0.55416 0.35679 0.0
H3705 H 0.66757 0.61777 0.3915 0.0
H3706 H 0.65331 0.57756 0.36555 0.0
H3707 H 0.69104 0.5873 0.39174 0.0
C3708 C 0.69717 0.57074 0.3826 0.0
C3709 C 0.6947 0.56122 0.37273 0.0
C3710 C 0.65649 0.58638 0.37122 0.0
C3711 C 0.67828 0.57973 0.37567 0.0
C3712 C 0.64786 0.59514 0.37276 0.0
C3713 C 0.65167 0.60664 0.38003 0.0
C3714 C 0.66902 0.58903 0.37714 0.0
C3715 C 0.66428 0.60901 0.38578 0.0
C3716 C 0.68906 0.58008 0.38404 0.0
C3717 C 0.684 0.5614 0.36444 0.0
N3718 N 0.67251 0.60023 0.38426 0.0
N3719 N 0.67614 0.57043 0.36615 0.0
H3720 H 0.24596 0.97817 0.14317 0.0
H3721 H 0.17011 0.96515 0.15359 0.0
H3722 H 0.2193 0.00378 0.13391 0.0
H3723 H 0.19555 0.93662 0.15264 0.0
H3724 H 0.18835 0.98061 0.14915 0.0
H3725 H 0.22793 0.96407 0.14953 0.0
C3726 C 0.2363 0.98082 0.14242 0.0
C3727 C 0.23415 0.99211 0.13778 0.0
C3728 C 0.18993 0.97097 0.14997 0.0
C3729 C 0.21339 0.97601 0.14529 0.0
C3730 C 0.17955 0.96217 0.15254 0.0
C3731 C 0.18138 0.9496 0.15348 0.0
C3732 C 0.20219 0.96717 0.14845 0.0
C3733 C 0.19376 0.94622 0.15198 0.0
C3734 C 0.226 0.97278 0.14612 0.0
C3735 C 0.22144 0.9952 0.13743 0.0
N3736 N 0.20369 0.95494 0.14956 0.0
N3737 N 0.21152 0.98716 0.14108 0.0
H3738 H 0.15971 0.92897 0.61925 0.0
H3739 H 0.12704 0.88161 0.66356 0.0
H3740 H 0.16964 0.93237 0.65805 0.0
H3741 H 0.12206 0.87442 0.62431 0.0
H3742 H 0.14275 0.90021 0.66167 0.0
H3743 H 0.14591 0.90898 0.62081 0.0
C3744 C 0.15901 0.9255 0.62809 0.0
C3745 C 0.16582 0.93238 0.63854 0.0
C3746 C 0.1383 0.89453 0.65346 0.0
C3747 C 0.15004 0.90951 0.64039 0.0
C3748 C 0.12929 0.88395 0.65454 0.0
C3749 C 0.12318 0.87651 0.64407 0.0
C3750 C 0.14116 0.89782 0.64182 0.0
C3751 C 0.1266 0.87987 0.63261 0.0
C3752 C 0.15118 0.91406 0.62896 0.0
C3753 C 0.16467 0.92734 0.64973 0.0
N3754 N 0.13527 0.89034 0.63178 0.0
N3755 N 0.15686 0.91628 0.65038 0.0
H3756 H 0.78275 0.47538 0.34476 0.0
H3757 H 0.81244 0.41071 0.33456 0.0
H3758 H 0.76005 0.4384 0.34171 0.0
H3759 H 0.83522 0.44702 0.33322 0.0
H3760 H 0.79293 0.42089 0.33602 0.0
H3761 H 0.80193 0.46548 0.33968 0.0
C3762 C 0.78177 0.4652 0.34297 0.0
C3763 C 0.76974 0.45773 0.34368 0.0
C3764 C 0.80215 0.42667 0.33529 0.0
C3765 C 0.79163 0.44635 0.33783 0.0
C3766 C 0.81328 0.42084 0.33446 0.0
C3767 C 0.82544 0.42805 0.33385 0.0
C3768 C 0.80316 0.43986 0.33566 0.0
C3769 C 0.826 0.44114 0.33364 0.0
C3770 C 0.79271 0.45956 0.34 0.0
C3771 C 0.76904 0.44459 0.34112 0.0
N3772 N 0.81502 0.44666 0.33469 0.0
N3773 N 0.77982 0.43934 0.33841 0.0
H3774 H 0.68198 0.49155 0.86478 0.0
H3775 H 0.64586 0.53922 0.82824 0.0
H3776 H 0.69619 0.50635 0.83243 0.0
H3777 H 0.63606 0.5288 0.86361 0.0
H3778 H 0.66306 0.52569 0.82841 0.0
H3779 H 0.66366 0.50339 0.86317 0.0
C3780 C 0.68117 0.49717 0.85724 0.0
C3781 C 0.69067 0.49795 0.84874 0.0
C3782 C 0.65711 0.52634 0.83611 0.0
C3783 C 0.66974 0.51173 0.84693 0.0
C3784 C 0.64728 0.53403 0.836 0.0
C3785 C 0.63956 0.53511 0.84594 0.0
C3786 C 0.65914 0.51965 0.8462 0.0
C3787 C 0.64183 0.52822 0.85578 0.0
C3788 C 0.67075 0.50402 0.85639 0.0
C3789 C 0.68918 0.50558 0.83928 0.0
N3790 N 0.6514 0.5208 0.85566 0.0
N3791 N 0.67894 0.51218 0.83864 0.0
H3792 H 0.84591 0.66261 0.96647 0.0
H3793 H 0.89792 0.63962 0.9219 0.0
H3794 H 0.88714 0.6678 0.97639 0.0
H3795 H 0.85692 0.63679 0.91158 0.0
H3796 H 0.89454 0.65149 0.94128 0.0
H3797 H 0.85003 0.65444 0.94583 0.0
C3798 C 0.85584 0.66207 0.96429 0.0
C3799 C 0.86619 0.6658 0.97321 0.0
C3800 C 0.8863 0.64836 0.93473 0.0
C3801 C 0.871 0.65646 0.94954 0.0
C3802 C 0.88824 0.64165 0.92363 0.0
C3803 C 0.87767 0.63707 0.91515 0.0
C3804 C 0.87369 0.6505 0.93739 0.0
C3805 C 0.86532 0.6399 0.91794 0.0
C3806 C 0.8582 0.65746 0.95248 0.0
C3807 C 0.87888 0.66509 0.9698 0.0
N3808 N 0.86366 0.64633 0.92884 0.0
N3809 N 0.88092 0.6604 0.95827 0.0
H3810 H 0.03182 0.1382 0.69035 0.0
H3811 H 0.04991 0.09316 0.63366 0.0
H3812 H 0.0242 0.09753 0.68716 0.0
H3813 H 0.05999 0.13365 0.63771 0.0
H3814 H 0.03759 0.09485 0.65175 0.0
H3815 H 0.03939 0.13696 0.66977 0.0
C3816 C 0.03166 0.12901 0.6853 0.0
C3817 C 0.0275 0.11795 0.69058 0.0
C3818 C 0.04237 0.10339 0.64863 0.0
C3819 C 0.0361 0.11647 0.66695 0.0
C3820 C 0.04943 0.10242 0.6383 0.0
C3821 C 0.05613 0.11327 0.63426 0.0
C3822 C 0.04204 0.11529 0.65504 0.0
C3823 C 0.05496 0.12505 0.6405 0.0
C3824 C 0.03594 0.12831 0.67353 0.0
C3825 C 0.02725 0.10631 0.68348 0.0
N3826 N 0.0482 0.12573 0.65067 0.0
N3827 N 0.03162 0.10588 0.6721 0.0
H3828 H 0.57956 0.31398 0.47452 0.0
H3829 H 0.61642 0.34131 0.41929 0.0
H3830 H 0.61757 0.30599 0.46545 0.0
H3831 H 0.57584 0.34324 0.42377 0.0
H3832 H 0.61709 0.3287 0.43648 0.0
H3833 H 0.57802 0.32508 0.4563 0.0
C3834 C 0.58757 0.31454 0.46868 0.0
C3835 C 0.59873 0.30906 0.47154 0.0
C3836 C 0.60801 0.33181 0.43368 0.0
C3837 C 0.59704 0.32177 0.45067 0.0
C3838 C 0.60763 0.33901 0.42388 0.0
C3839 C 0.59607 0.34329 0.42011 0.0
C3840 C 0.59675 0.32895 0.43986 0.0
C3841 C 0.58495 0.34009 0.42636 0.0
C3842 C 0.58666 0.32083 0.45825 0.0
C3843 C 0.60874 0.30996 0.46356 0.0
N3844 N 0.58559 0.33317 0.43599 0.0
N3845 N 0.6077 0.31626 0.45355 0.0
H3846 H 0.45755 0.90123 0.21616 0.0
H3847 H 0.4196 0.87379 0.1517 0.0
H3848 H 0.43474 0.86431 0.20966 0.0
H3849 H 0.43798 0.9123 0.1604 0.0
H3850 H 0.42673 0.86933 0.17219 0.0
H3851 H 0.45227 0.9046 0.19502 0.0
C3852 C 0.45154 0.89377 0.21025 0.0
C3853 C 0.44656 0.88248 0.21471 0.0
C3854 C 0.42925 0.87874 0.16959 0.0
C3855 C 0.44034 0.88633 0.19047 0.0
C3856 C 0.42522 0.88127 0.15789 0.0
C3857 C 0.42821 0.89345 0.15439 0.0
C3858 C 0.43636 0.88843 0.17778 0.0
C3859 C 0.43547 0.9028 0.16277 0.0
C3860 C 0.44845 0.89574 0.19819 0.0
C3861 C 0.43865 0.87323 0.20666 0.0
N3862 N 0.43928 0.90011 0.17407 0.0
N3863 N 0.43577 0.87536 0.19493 0.0
H3864 H 0.8855 0.38526 0.51814 0.0
H3865 H 0.88815 0.37889 0.58989 0.0
H3866 H 0.8774 0.3495 0.53265 0.0
H3867 H 0.89322 0.41425 0.57429 0.0
H3868 H 0.88586 0.36766 0.56922 0.0
H3869 H 0.88989 0.39574 0.53883 0.0
C3870 C 0.88459 0.3796 0.52569 0.0
C3871 C 0.8809 0.36649 0.52364 0.0
C3872 C 0.88752 0.37787 0.57034 0.0
C3873 C 0.88609 0.37846 0.54749 0.0
C3874 C 0.88889 0.38428 0.58213 0.0
C3875 C 0.89077 0.39753 0.58381 0.0
C3876 C 0.88811 0.38478 0.56019 0.0
C3877 C 0.89157 0.40404 0.57343 0.0
C3878 C 0.88717 0.38559 0.53754 0.0
C3879 C 0.88023 0.35962 0.53381 0.0
N3880 N 0.8902 0.39761 0.5621 0.0
N3881 N 0.88272 0.3657 0.54531 0.0
H3882 H 0.47514 0.1079 0.3089 0.0
H3883 H 0.43067 0.14161 0.35523 0.0
H3884 H 0.46712 0.14603 0.30715 0.0
H3885 H 0.43552 0.10231 0.3536 0.0
H3886 H 0.44523 0.14406 0.33868 0.0
H3887 H 0.46199 0.10635 0.32638 0.0
C3888 C 0.47071 0.116 0.31226 0.0
C3889 C 0.47227 0.12713 0.30654 0.0
C3890 C 0.44314 0.13491 0.34198 0.0
C3891 C 0.457 0.12535 0.32654 0.0
C3892 C 0.43487 0.13352 0.35144 0.0
C3893 C 0.43191 0.12172 0.35576 0.0
C3894 C 0.4485 0.12444 0.33686 0.0
C3895 C 0.43756 0.11156 0.35051 0.0
C3896 C 0.46311 0.11508 0.32221 0.0
C3897 C 0.46607 0.13723 0.31119 0.0
N3898 N 0.44557 0.11314 0.34134 0.0
N3899 N 0.45872 0.1361 0.32092 0.0
H3900 H 0.57884 0.63219 0.01209 0.0
H3901 H 0.57927 0.64112 0.08505 0.0
H3902 H 0.58942 0.66847 0.03328 0.0
H3903 H 0.57554 0.6051 0.06317 0.0
H3904 H 0.58143 0.65166 0.06638 0.0
H3905 H 0.57581 0.62247 0.03086 0.0
C3906 C 0.5804 0.63815 0.0207 0.0
C3907 C 0.58431 0.6512 0.02108 0.0
C3908 C 0.58012 0.64145 0.06569 0.0
C3909 C 0.58103 0.64004 0.04276 0.0
C3910 C 0.57885 0.63544 0.07632 0.0
C3911 C 0.5772 0.62221 0.0756 0.0
C3912 C 0.57964 0.63416 0.05431 0.0
C3913 C 0.57678 0.61531 0.0641 0.0
C3914 C 0.57877 0.63257 0.03145 0.0
C3915 C 0.58646 0.65837 0.03256 0.0
N3916 N 0.57797 0.62135 0.05393 0.0
N3917 N 0.58477 0.6527 0.04296 0.0
H3918 H 0.02158 0.85069 0.82099 0.0
H3919 H 0.06046 0.88955 0.88058 0.0
H3920 H 0.02679 0.89131 0.82826 0.0
H3921 H 0.05904 0.84938 0.87187 0.0
H3922 H 0.0449 0.88981 0.86321 0.0
H3923 H 0.03218 0.84956 0.84113 0.0
C3924 C 0.02487 0.85938 0.82684 0.0
C3925 C 0.02342 0.87113 0.82282 0.0
C3926 C 0.04786 0.8809 0.86515 0.0
C3927 C 0.03548 0.86987 0.84597 0.0
C3928 C 0.05675 0.88075 0.87507 0.0
C3929 C 0.06119 0.86945 0.87757 0.0
C3930 C 0.04339 0.86967 0.85759 0.0
C3931 C 0.05588 0.8583 0.87027 0.0
C3932 C 0.03087 0.85871 0.83837 0.0
C3933 C 0.02761 0.88203 0.83094 0.0
N3934 N 0.04738 0.85871 0.86051 0.0
N3935 N 0.03356 0.88114 0.84205 0.0
H3936 H 0.95772 0.94047 0.73567 0.0
H3937 H 0.88728 0.94239 0.70318 0.0
H3938 H 0.92269 0.91864 0.74536 0.0
H3939 H 0.92335 0.95624 0.6887 0.0
H3940 H 0.89957 0.93777 0.7215 0.0
H3941 H 0.94469 0.95033 0.72129 0.0
C3942 C 0.94726 0.9379 0.73494 0.0
C3943 C 0.94131 0.92863 0.74169 0.0
C3944 C 0.90477 0.94203 0.71441 0.0
C3945 C 0.92632 0.9398 0.72508 0.0
C3946 C 0.89776 0.94478 0.70404 0.0
C3947 C 0.90435 0.94966 0.69447 0.0
C3948 C 0.91844 0.94428 0.71519 0.0
C3949 C 0.91794 0.95243 0.6959 0.0
C3950 C 0.93983 0.94348 0.72666 0.0
C3951 C 0.92771 0.92559 0.74021 0.0
N3952 N 0.92454 0.94962 0.70601 0.0
N3953 N 0.92068 0.9311 0.73201 0.0
H3954 H 0.88585 0.26638 0.42274 0.0
H3955 H 0.87709 0.19088 0.41123 0.0
H3956 H 0.8713 0.24247 0.44945 0.0
H3957 H 0.89264 0.21576 0.38573 0.0
H3958 H 0.87492 0.20938 0.42552 0.0
H3959 H 0.88845 0.24771 0.40924 0.0
C3960 C 0.88314 0.25717 0.42575 0.0
C3961 C 0.87822 0.25599 0.4372 0.0
C3962 C 0.87882 0.21077 0.4168 0.0
C3963 C 0.88131 0.23446 0.42176 0.0
C3964 C 0.88005 0.20023 0.40864 0.0
C3965 C 0.88503 0.20184 0.39728 0.0
C3966 C 0.8826 0.22296 0.41353 0.0
C3967 C 0.88873 0.21413 0.3944 0.0
C3968 C 0.88469 0.24649 0.41804 0.0
C3969 C 0.87516 0.24381 0.44071 0.0
N3970 N 0.88743 0.2242 0.40245 0.0
N3971 N 0.87669 0.2335 0.43299 0.0
H3972 H 0.55056 0.09037 0.21109 0.0
H3973 H 0.62273 0.10788 0.19163 0.0
H3974 H 0.57343 0.1271 0.2195 0.0
H3975 H 0.60111 0.07052 0.18425 0.0
H3976 H 0.60581 0.11419 0.20436 0.0
H3977 H 0.56979 0.08206 0.20371 0.0
C3978 C 0.55967 0.09664 0.21158 0.0
C3979 C 0.56033 0.1095 0.21578 0.0
C3980 C 0.6048 0.10455 0.20011 0.0
C3981 C 0.58234 0.10008 0.20721 0.0
C3982 C 0.61447 0.10096 0.19286 0.0
C3983 C 0.61322 0.08871 0.18681 0.0
C3984 C 0.59368 0.09589 0.20121 0.0
C3985 C 0.60242 0.08006 0.18878 0.0
C3986 C 0.57063 0.0919 0.20731 0.0
C3987 C 0.57239 0.11719 0.21611 0.0
N3988 N 0.59294 0.08387 0.19567 0.0
N3989 N 0.58285 0.1124 0.21178 0.0
H3990 H 0.62261 0.75552 0.93923 0.0
H3991 H 0.58073 0.80393 0.91034 0.0
H3992 H 0.58247 0.75755 0.94588 0.0
H3993 H 0.62217 0.80595 0.90822 0.0
H3994 H 0.58111 0.78651 0.92293 0.0
H3995 H 0.62261 0.77355 0.92737 0.0
C3996 C 0.61379 0.75975 0.93819 0.0
C3997 C 0.60252 0.755 0.94357 0.0
C3998 C 0.59014 0.79078 0.91976 0.0
C3999 C 0.60246 0.77567 0.93001 0.0
C4000 C 0.58992 0.80071 0.91257 0.0
C4001 C 0.60142 0.80639 0.90827 0.0
C4002 C 0.60197 0.78642 0.92261 0.0
C4003 C 0.61307 0.80186 0.91138 0.0
C4004 C 0.61382 0.77009 0.93147 0.0
C4005 C 0.59143 0.76097 0.94203 0.0
N4006 N 0.61304 0.79211 0.91833 0.0
N4007 N 0.59166 0.77093 0.93536 0.0
H4008 H 0.9359 0.12222 0.7885 0.0
H4009 H 0.87765 0.07673 0.81216 0.0
H4010 H 0.9253 0.08335 0.77346 0.0
H4011 H 0.88426 0.11714 0.82108 0.0
H4012 H 0.89539 0.07852 0.79845 0.0
H4013 H 0.91745 0.12013 0.80112 0.0
C4014 C 0.92969 0.11322 0.78788 0.0
C4015 C 0.93219 0.10293 0.77996 0.0
C4016 C 0.8929 0.08699 0.80337 0.0
C4017 C 0.91094 0.10046 0.79439 0.0
C4018 C 0.8828 0.08597 0.8112 0.0
C4019 C 0.87952 0.09683 0.81776 0.0
C4020 C 0.89981 0.09892 0.8022 0.0
C4021 C 0.88649 0.10855 0.81618 0.0
C4022 C 0.9191 0.11205 0.79505 0.0
C4023 C 0.92369 0.09154 0.7794 0.0
N4024 N 0.89633 0.10929 0.80862 0.0
N4025 N 0.91348 0.09058 0.78658 0.0
H4026 H 0.64221 0.23998 0.57455 0.0
H4027 H 0.60735 0.17809 0.60037 0.0
H4028 H 0.60063 0.22919 0.57263 0.0
H4029 H 0.6488 0.18991 0.60444 0.0
H4030 H 0.60491 0.19579 0.58864 0.0
H4031 H 0.64501 0.22069 0.58376 0.0
C4032 C 0.63366 0.23348 0.57592 0.0
C4033 C 0.62115 0.23627 0.57285 0.0
C4034 C 0.61455 0.19449 0.59204 0.0
C4035 C 0.62429 0.2142 0.58355 0.0
C4036 C 0.61595 0.1844 0.5988 0.0
C4037 C 0.62829 0.18255 0.60352 0.0
C4038 C 0.62557 0.20286 0.58997 0.0
C4039 C 0.63911 0.19091 0.60094 0.0
C4040 C 0.63527 0.2225 0.58126 0.0
C4041 C 0.61045 0.22755 0.57501 0.0
N4042 N 0.63748 0.20073 0.59441 0.0
N4043 N 0.61227 0.21696 0.58025 0.0
H4044 H 0.55423 0.91332 0.30019 0.0
H4045 H 0.60898 0.87953 0.33241 0.0
H4046 H 0.55181 0.87307 0.30092 0.0
H4047 H 0.60781 0.91961 0.33858 0.0
H4048 H 0.58963 0.87734 0.31837 0.0
H4049 H 0.57543 0.9161 0.31182 0.0
C4050 C 0.55821 0.90507 0.30271 0.0
C4051 C 0.55122 0.89295 0.29967 0.0
C4052 C 0.59363 0.88663 0.32274 0.0
C4053 C 0.5754 0.89605 0.31294 0.0
C4054 C 0.60466 0.88789 0.33079 0.0
C4055 C 0.60993 0.89975 0.33683 0.0
C4056 C 0.58779 0.89731 0.32063 0.0
C4057 C 0.60411 0.91029 0.33412 0.0
C4058 C 0.57027 0.90666 0.30939 0.0
C4059 C 0.55679 0.88259 0.30323 0.0
N4060 N 0.59328 0.90881 0.32628 0.0
N4061 N 0.56852 0.88438 0.30968 0.0
H4062 H 0.84038 0.76666 0.0679 0.0
H4063 H 0.88882 0.82839 0.09566 0.0
H4064 H 0.87912 0.77625 0.05659 0.0
H4065 H 0.84836 0.8223 0.103 0.0
H4066 H 0.88541 0.80905 0.08154 0.0
H4067 H 0.84304 0.78671 0.08106 0.0
C4068 C 0.84944 0.77299 0.06817 0.0
C4069 C 0.85955 0.76977 0.06113 0.0
C4070 C 0.87724 0.81195 0.08618 0.0
C4071 C 0.86265 0.79271 0.07617 0.0
C4072 C 0.87919 0.82298 0.09424 0.0
C4073 C 0.86886 0.82694 0.10047 0.0
C4074 C 0.86486 0.80473 0.08439 0.0
C4075 C 0.85658 0.81959 0.09835 0.0
C4076 C 0.85092 0.78445 0.07564 0.0
C4077 C 0.87101 0.77839 0.06175 0.0
N4078 N 0.85493 0.80879 0.09051 0.0
N4079 N 0.87227 0.78942 0.06917 0.0
H4080 H 0.67333 0.92199 0.89917 0.0
H4081 H 0.63832 0.85816 0.86118 0.0
H4082 H 0.68112 0.91004 0.86215 0.0
H4083 H 0.63497 0.86688 0.89975 0.0
H4084 H 0.65468 0.87678 0.86163 0.0
H4085 H 0.65978 0.90167 0.89986 0.0
C4086 C 0.67222 0.91508 0.8912 0.0
C4087 C 0.67832 0.91775 0.88056 0.0
C4088 C 0.65048 0.87458 0.87004 0.0
C4089 C 0.66284 0.89447 0.8813 0.0
C4090 C 0.64113 0.86397 0.86977 0.0
C4091 C 0.63524 0.86104 0.88043 0.0
C4092 C 0.65389 0.88245 0.88102 0.0
C4093 C 0.63932 0.86879 0.89134 0.0
C4094 C 0.66454 0.90345 0.89162 0.0
C4095 C 0.67669 0.90837 0.87058 0.0
N4096 N 0.64829 0.87923 0.89133 0.0
N4097 N 0.66903 0.89721 0.87115 0.0
H4098 H 0.19279 0.56814 0.14188 0.0
H4099 H 0.15803 0.61855 0.10796 0.0
H4100 H 0.18442 0.56493 0.10284 0.0
H4101 H 0.16497 0.62033 0.14703 0.0
H4102 H 0.16918 0.59985 0.10565 0.0
H4103 H 0.18441 0.5883 0.14368 0.0
C4104 C 0.18936 0.57174 0.13366 0.0
C4105 C 0.18928 0.56476 0.12219 0.0
C4106 C 0.16833 0.60438 0.11473 0.0
C4107 C 0.17941 0.58784 0.12422 0.0
C4108 C 0.16198 0.61506 0.11605 0.0
C4109 C 0.16057 0.62096 0.12772 0.0
C4110 C 0.17328 0.59959 0.12516 0.0
C4111 C 0.16585 0.61603 0.13787 0.0
C4112 C 0.18446 0.58324 0.13471 0.0
C4113 C 0.1845 0.56987 0.11189 0.0
N4114 N 0.17193 0.60563 0.13636 0.0
N4115 N 0.17971 0.58106 0.11316 0.0
H4116 H 0.22919 0.44617 0.83484 0.0
H4117 H 0.16765 0.43404 0.8742 0.0
H4118 H 0.22865 0.46145 0.87244 0.0
H4119 H 0.16578 0.42449 0.83519 0.0
H4120 H 0.19005 0.44418 0.87366 0.0
H4121 H 0.20602 0.43814 0.83465 0.0
C4122 C 0.22419 0.44787 0.84304 0.0
C4123 C 0.23088 0.45446 0.85369 0.0
C4124 C 0.18473 0.43996 0.86519 0.0
C4125 C 0.20438 0.4453 0.85354 0.0
C4126 C 0.17196 0.43417 0.86551 0.0
C4127 C 0.16489 0.42844 0.85474 0.0
C4128 C 0.19054 0.4399 0.85403 0.0
C4129 C 0.17089 0.42883 0.84371 0.0
C4130 C 0.21095 0.44334 0.84291 0.0
C4131 C 0.22387 0.45652 0.864 0.0
N4132 N 0.18342 0.43439 0.84365 0.0
N4133 N 0.21104 0.45187 0.8637 0.0
H4134 H 0.28946 0.42833 0.61339 0.0
H4135 H 0.33029 0.38088 0.64477 0.0
H4136 H 0.28876 0.42292 0.65154 0.0
H4137 H 0.32632 0.38246 0.60586 0.0
H4138 H 0.31462 0.39579 0.64742 0.0
H4139 H 0.30252 0.41117 0.61039 0.0
C4140 C 0.29204 0.4235 0.62114 0.0
C4141 C 0.28809 0.42712 0.63275 0.0
C4142 C 0.31708 0.3928 0.63829 0.0
C4143 C 0.30304 0.40743 0.62939 0.0
C4144 C 0.32606 0.38432 0.63678 0.0
C4145 C 0.32967 0.38048 0.62508 0.0
C4146 C 0.31174 0.39758 0.62804 0.0
C4147 C 0.32375 0.3851 0.61503 0.0
C4148 C 0.29944 0.41366 0.61941 0.0
C4149 C 0.29154 0.4204 0.64242 0.0
N4150 N 0.31518 0.39349 0.61675 0.0
N4151 N 0.29891 0.41096 0.64055 0.0
H4152 H 0.77788 0.02116 0.87639 0.0
H4153 H 0.81871 0.06378 0.83267 0.0
H4154 H 0.76198 0.03056 0.84206 0.0
H4155 H 0.8332 0.05659 0.86833 0.0
H4156 H 0.79901 0.04898 0.83442 0.0
H4157 H 0.7992 0.03159 0.87218 0.0
C4158 C 0.77888 0.02537 0.86794 0.0
C4159 C 0.76807 0.0251 0.85964 0.0
C4160 C 0.80657 0.05053 0.8418 0.0
C4161 C 0.79252 0.03706 0.85471 0.0
C4162 C 0.81785 0.05891 0.84077 0.0
C4163 C 0.82753 0.06152 0.85043 0.0
C4164 C 0.80499 0.04472 0.85257 0.0
C4165 C 0.82587 0.055 0.86075 0.0
C4166 C 0.79108 0.03129 0.8655 0.0
C4167 C 0.77003 0.03049 0.8487 0.0
N4168 N 0.81478 0.047 0.86159 0.0
N4169 N 0.78198 0.03636 0.84661 0.0
H4170 H 0.83998 0.07379 0.39259 0.0
H4171 H 0.8666 0.1303 0.35479 0.0
H4172 H 0.84037 0.07063 0.35335 0.0
H4173 H 0.86969 0.13321 0.39413 0.0
H4174 H 0.85431 0.10926 0.35422 0.0
H4175 H 0.84816 0.09632 0.39343 0.0
C4176 C 0.84162 0.07787 0.38414 0.0
C4177 C 0.8396 0.07029 0.37288 0.0
C4178 C 0.85759 0.11451 0.363 0.0
C4179 C 0.84905 0.09602 0.37379 0.0
C4180 C 0.86463 0.12651 0.36332 0.0
C4181 C 0.86934 0.13343 0.37453 0.0
C4182 C 0.85524 0.10931 0.37395 0.0
C4183 C 0.86626 0.12818 0.3853 0.0
C4184 C 0.84635 0.09071 0.38464 0.0
C4185 C 0.842 0.07606 0.36224 0.0
N4186 N 0.85951 0.11636 0.38475 0.0
N4187 N 0.84665 0.08854 0.36296 0.0
H4188 H 0.19154 0.51276 0.6361 0.0
H4189 H 0.15021 0.55128 0.68177 0.0
H4190 H 0.20615 0.52865 0.67256 0.0
H4191 H 0.13872 0.54024 0.64361 0.0
H4192 H 0.16945 0.5406 0.67952 0.0
H4193 H 0.17084 0.52027 0.63968 0.0
C4194 C 0.19038 0.51779 0.64488 0.0
C4195 C 0.20067 0.5202 0.65399 0.0
C4196 C 0.16267 0.54044 0.67166 0.0
C4197 C 0.17691 0.52879 0.65818 0.0
C4198 C 0.15167 0.5465 0.67295 0.0
C4199 C 0.14291 0.54666 0.66282 0.0
C4200 C 0.16486 0.53448 0.66019 0.0
C4201 C 0.14528 0.54035 0.65162 0.0
C4202 C 0.17854 0.52205 0.64694 0.0
C4203 C 0.19848 0.52653 0.66529 0.0
N4204 N 0.15604 0.53456 0.65059 0.0
N4205 N 0.18688 0.53069 0.66703 0.0
H4206 H 0.29436 0.48359 0.11475 0.0
H4207 H 0.34269 0.4557 0.16056 0.0
H4208 H 0.29264 0.48884 0.15384 0.0
H4209 H 0.34925 0.45905 0.12275 0.0
H4210 H 0.32367 0.46675 0.15834 0.0
H4211 H 0.31377 0.4734 0.11749 0.0
C4212 C 0.29806 0.48257 0.12392 0.0
C4213 C 0.29185 0.48704 0.13408 0.0
C4214 C 0.32931 0.46511 0.15055 0.0
C4215 C 0.31412 0.47537 0.13731 0.0
C4216 C 0.34014 0.45878 0.15181 0.0
C4217 C 0.34752 0.45646 0.1418 0.0
C4218 C 0.32579 0.469 0.13919 0.0
C4219 C 0.3438 0.46067 0.13068 0.0
C4220 C 0.30919 0.47681 0.12549 0.0
C4221 C 0.29718 0.48561 0.14576 0.0
N4222 N 0.33318 0.46667 0.12966 0.0
N4223 N 0.30796 0.47982 0.14706 0.0
H4224 H 0.60761 0.81443 0.54016 0.0
H4225 H 0.59861 0.88028 0.57722 0.0
H4226 H 0.60707 0.84939 0.52426 0.0
H4227 H 0.59998 0.84623 0.59447 0.0
H4228 H 0.59939 0.8683 0.55739 0.0
H4229 H 0.6027 0.82507 0.55976 0.0
C4230 C 0.60637 0.8243 0.54077 0.0
C4231 C 0.60795 0.83108 0.5306 0.0
C4232 C 0.59942 0.86338 0.56547 0.0
C4233 C 0.60233 0.84328 0.55293 0.0
C4234 C 0.59897 0.87023 0.5768 0.0
C4235 C 0.59936 0.86427 0.58751 0.0
C4236 C 0.60038 0.85043 0.56478 0.0
C4237 C 0.59964 0.85119 0.58642 0.0
C4238 C 0.6036 0.83037 0.55195 0.0
C4239 C 0.60624 0.84385 0.53191 0.0
N4240 N 0.6003 0.84471 0.57526 0.0
N4241 N 0.60359 0.84952 0.54285 0.0
H4242 H 0.45922 0.37008 0.78838 0.0
H4243 H 0.44741 0.40847 0.85109 0.0
H4244 H 0.47583 0.40889 0.79904 0.0
H4245 H 0.43812 0.368 0.84453 0.0
H4246 H 0.45871 0.40848 0.83233 0.0
H4247 H 0.45241 0.36863 0.80908 0.0
C4248 C 0.46163 0.37824 0.7951 0.0
C4249 C 0.46798 0.38969 0.79188 0.0
C4250 C 0.45434 0.39956 0.83502 0.0
C4251 C 0.46 0.38813 0.81555 0.0
C4252 C 0.44788 0.39956 0.84571 0.0
C4253 C 0.44178 0.38823 0.84927 0.0
C4254 C 0.45455 0.38814 0.82769 0.0
C4255 C 0.44273 0.37693 0.84207 0.0
C4256 C 0.45768 0.37742 0.80691 0.0
C4257 C 0.4707 0.39997 0.80099 0.0
N4258 N 0.44885 0.37718 0.8315 0.0
N4259 N 0.46658 0.39898 0.81234 0.0
H4260 H 0.87994 0.20124 0.05286 0.0
H4261 H 0.88843 0.1328 0.07172 0.0
H4262 H 0.88036 0.16846 0.02695 0.0
H4263 H 0.89669 0.16649 0.09717 0.0
H4264 H 0.88434 0.14577 0.05536 0.0
H4265 H 0.88522 0.1888 0.0694 0.0
C4266 C 0.88121 0.19147 0.05062 0.0
C4267 C 0.87958 0.18589 0.03845 0.0
C4268 C 0.8871 0.15036 0.0645 0.0
C4269 C 0.88546 0.17157 0.05738 0.0
C4270 C 0.88942 0.14296 0.07383 0.0
C4271 C 0.89293 0.14859 0.08577 0.0
C4272 C 0.88818 0.16353 0.06714 0.0
C4273 C 0.89405 0.16178 0.08806 0.0
C4274 C 0.88417 0.18437 0.06008 0.0
C4275 C 0.88121 0.17313 0.03617 0.0
N4276 N 0.89162 0.16881 0.07883 0.0
N4277 N 0.884 0.16642 0.04552 0.0
H4278 H 0.07581 0.63087 0.30233 0.0
H4279 H 0.0587 0.61573 0.36957 0.0
H4280 H 0.03656 0.62572 0.31345 0.0
H4281 H 0.09729 0.61886 0.3569 0.0
H4282 H 0.05044 0.62118 0.3498 0.0
H4283 H 0.08385 0.62824 0.32292 0.0
C4284 C 0.06887 0.62933 0.30913 0.0
C4285 C 0.05547 0.62855 0.30611 0.0
C4286 C 0.06072 0.62074 0.35138 0.0
C4287 C 0.06465 0.62529 0.3298 0.0
C4288 C 0.06545 0.61771 0.36269 0.0
C4289 C 0.07868 0.61672 0.36484 0.0
C4290 C 0.06931 0.62286 0.34221 0.0
C4291 C 0.08698 0.6193 0.35556 0.0
C4292 C 0.07347 0.62774 0.3209 0.0
C4293 C 0.04695 0.62626 0.31532 0.0
N4294 N 0.08216 0.62219 0.34467 0.0
N4295 N 0.05168 0.62469 0.32674 0.0
H4296 H 0.59244 0.12684 0.98627 0.0
H4297 H 0.59955 0.13823 0.91623 0.0
H4298 H 0.61064 0.16203 0.97541 0.0
H4299 H 0.58999 0.10173 0.92889 0.0
H4300 H 0.60053 0.14805 0.93744 0.0
H4301 H 0.5883 0.11848 0.96486 0.0
C4302 C 0.59557 0.13282 0.97938 0.0
C4303 C 0.6021 0.14509 0.98268 0.0
C4304 C 0.59815 0.1379 0.93554 0.0
C4305 C 0.59725 0.13558 0.95803 0.0
C4306 C 0.59753 0.13232 0.92346 0.0
C4307 C 0.59481 0.11915 0.92085 0.0
C4308 C 0.59587 0.13025 0.945 0.0
C4309 C 0.59231 0.1119 0.93053 0.0
C4310 C 0.59316 0.12805 0.96713 0.0
C4311 C 0.60558 0.15252 0.9733 0.0
N4312 N 0.59293 0.11753 0.94215 0.0
N4313 N 0.60321 0.14762 0.96139 0.0
H4314 H 0.01937 0.36338 0.17984 0.0
H4315 H 0.08953 0.36169 0.15438 0.0
H4316 H 0.05217 0.35287 0.20015 0.0
H4317 H 0.0553 0.36217 0.13056 0.0
H4318 H 0.07594 0.35993 0.17156 0.0
H4319 H 0.0323 0.36451 0.16194 0.0
C4320 C 0.02927 0.36131 0.18053 0.0
C4321 C 0.03467 0.35794 0.19149 0.0
C4322 C 0.07135 0.36036 0.16258 0.0
C4323 C 0.04948 0.35928 0.17114 0.0
C4324 C 0.07911 0.36137 0.15278 0.0
C4325 C 0.07352 0.36201 0.14105 0.0
C4326 C 0.05785 0.36013 0.16071 0.0
C4327 C 0.05998 0.36162 0.13946 0.0
C4328 C 0.03661 0.36189 0.17031 0.0
C4329 C 0.04753 0.35531 0.19186 0.0
N4330 N 0.05258 0.36077 0.14922 0.0
N4331 N 0.05448 0.35609 0.18188 0.0
H4332 H 0.95149 0.87209 0.4843 0.0
H4333 H 0.90703 0.87048 0.42241 0.0
H4334 H 0.91236 0.85237 0.47799 0.0
H4335 H 0.94755 0.8863 0.42649 0.0
H4336 H 0.90907 0.86344 0.4427 0.0
H4337 H 0.95057 0.87709 0.46314 0.0
C4338 C 0.94273 0.86877 0.47845 0.0
C4339 C 0.93197 0.86182 0.48295 0.0
C4340 C 0.91756 0.86838 0.43916 0.0
C4341 C 0.93085 0.86752 0.45873 0.0
C4342 C 0.91639 0.8724 0.42758 0.0
C4343 C 0.92712 0.87897 0.4228 0.0
C4344 C 0.92956 0.87105 0.44609 0.0
C4345 C 0.93903 0.88124 0.42985 0.0
C4346 C 0.94223 0.87158 0.46636 0.0
C4347 C 0.92094 0.85763 0.47491 0.0
N4348 N 0.93991 0.87735 0.44119 0.0
N4349 N 0.92064 0.86062 0.46324 0.0
H4350 H 0.43828 0.63602 0.70218 0.0
H4351 H 0.42158 0.63494 0.63033 0.0
H4352 H 0.46728 0.63517 0.67583 0.0
H4353 H 0.39295 0.63282 0.65701 0.0
H4354 H 0.43881 0.63765 0.64692 0.0
H4355 H 0.42198 0.63742 0.68583 0.0
C4356 C 0.44128 0.6363 0.69297 0.0
C4357 C 0.45421 0.63547 0.69041 0.0
C4358 C 0.42876 0.6367 0.64914 0.0
C4359 C 0.43543 0.63683 0.67151 0.0
C4360 C 0.41893 0.63524 0.63968 0.0
C4361 C 0.40582 0.63354 0.6423 0.0
C4362 C 0.42542 0.6365 0.66128 0.0
C4363 C 0.40293 0.63391 0.65458 0.0
C4364 C 0.43192 0.63701 0.68361 0.0
C4365 C 0.45741 0.63563 0.67823 0.0
N4366 N 0.41263 0.63528 0.66358 0.0
N4367 N 0.44807 0.63624 0.66922 0.0
H4368 H 0.55927 0.60301 0.77253 0.0
H4369 H 0.60499 0.57424 0.80454 0.0
H4370 H 0.53053 0.57913 0.78947 0.0
H4371 H 0.5739 0.56686 0.82807 0.0
H4372 H 0.58925 0.57943 0.78902 0.0
H4373 H 0.57638 0.59373 0.78302 0.0
C4374 C 0.55656 0.59565 0.77828 0.0
C4375 C 0.54343 0.59188 0.78013 0.0
C4376 C 0.58586 0.57668 0.79756 0.0
C4377 C 0.56296 0.58105 0.79206 0.0
C4378 C 0.59481 0.57354 0.80633 0.0
C4379 C 0.5907 0.57027 0.8176 0.0
C4380 C 0.57276 0.57646 0.80015 0.0
C4381 C 0.57745 0.56949 0.81952 0.0
C4382 C 0.56634 0.59024 0.78417 0.0
C4383 C 0.54048 0.58226 0.78764 0.0
N4384 N 0.56897 0.57262 0.81092 0.0
N4385 N 0.55016 0.57733 0.79346 0.0
H4386 H 0.60109 0.23842 0.09037 0.0
H4387 H 0.61655 0.31363 0.10484 0.0
H4388 H 0.61814 0.26253 0.06489 0.0
H4389 H 0.59761 0.28912 0.129 0.0
H4390 H 0.61735 0.29521 0.09005 0.0
H4391 H 0.59989 0.25701 0.1046 0.0
C4392 C 0.60464 0.24764 0.08779 0.0
C4393 C 0.60981 0.2489 0.07644 0.0
C4394 C 0.613 0.29387 0.09858 0.0
C4395 C 0.60835 0.27032 0.09271 0.0
C4396 C 0.61256 0.30437 0.10703 0.0
C4397 C 0.60702 0.30286 0.11817 0.0
C4398 C 0.6079 0.28178 0.10131 0.0
C4399 C 0.60198 0.29067 0.12051 0.0
C4400 C 0.60388 0.25827 0.0959 0.0
C4401 C 0.61401 0.26112 0.0735 0.0
N4402 N 0.60256 0.28061 0.11218 0.0
N4403 N 0.61324 0.27136 0.08161 0.0
H4404 H 0.95023 0.40271 0.28809 0.0
H4405 H 0.87635 0.41275 0.29729 0.0
H4406 H 0.91931 0.39141 0.25976 0.0
H4407 H 0.90746 0.42076 0.32572 0.0
H4408 H 0.89196 0.40653 0.28278 0.0
H4409 H 0.93478 0.41099 0.30135 0.0
C4410 C 0.94016 0.40193 0.28466 0.0
C4411 C 0.93605 0.39619 0.27283 0.0
C4412 C 0.89537 0.40972 0.29218 0.0
C4413 C 0.91821 0.4058 0.28802 0.0
C4414 C 0.88647 0.41331 0.30045 0.0
C4415 C 0.89066 0.41726 0.31272 0.0
C4416 C 0.9085 0.41014 0.29624 0.0
C4417 C 0.90385 0.41776 0.31634 0.0
C4418 C 0.93133 0.40673 0.29223 0.0
C4419 C 0.92292 0.39577 0.2688 0.0
N4420 N 0.91228 0.41421 0.30816 0.0
N4421 N 0.91444 0.40043 0.27641 0.0
H4422 H 0.909 0.75853 0.55708 0.0
H4423 H 0.92248 0.73755 0.6238 0.0
H4424 H 0.93112 0.78261 0.58689 0.0
H4425 H 0.90141 0.71263 0.59403 0.0
H4426 H 0.92575 0.75414 0.61025 0.0
H4427 H 0.90634 0.74145 0.5702 0.0
C4428 C 0.91338 0.76021 0.56634 0.0
C4429 C 0.92023 0.77207 0.57089 0.0
C4430 C 0.92041 0.74505 0.60665 0.0
C4431 C 0.9171 0.7526 0.58601 0.0
C4432 C 0.91853 0.73559 0.6144 0.0
C4433 C 0.91165 0.72373 0.61004 0.0
C4434 C 0.91536 0.74264 0.59442 0.0
C4435 C 0.90676 0.72166 0.59777 0.0
C4436 C 0.91179 0.75047 0.57385 0.0
C4437 C 0.92556 0.77371 0.58303 0.0
N4438 N 0.9087 0.73103 0.59039 0.0
N4439 N 0.92387 0.76412 0.59015 0.0
H4440 H 0.54474 0.42237 0.68511 0.0
H4441 H 0.62072 0.44257 0.67955 0.0
H4442 H 0.57187 0.43504 0.71642 0.0
H4443 H 0.59236 0.43283 0.6488 0.0
H4444 H 0.60304 0.4412 0.6933 0.0
H4445 H 0.56206 0.42729 0.67179 0.0
C4446 C 0.55431 0.42634 0.68922 0.0
C4447 C 0.55679 0.42831 0.70196 0.0
C4448 C 0.60069 0.43946 0.68354 0.0
C4449 C 0.57687 0.43374 0.68664 0.0
C4450 C 0.61077 0.44033 0.67569 0.0
C4451 C 0.60801 0.43767 0.66302 0.0
C4452 C 0.58778 0.43592 0.67866 0.0
C4453 C 0.59495 0.43471 0.65852 0.0
C4454 C 0.56425 0.42908 0.68157 0.0
C4455 C 0.56951 0.43321 0.70667 0.0
N4456 N 0.58535 0.43383 0.66632 0.0
N4457 N 0.57908 0.43571 0.69902 0.0
H4458 H 0.84325 0.27281 0.94756 0.0
H4459 H 0.86224 0.30194 0.88623 0.0
H4460 H 0.87305 0.26112 0.92519 0.0
H4461 H 0.83988 0.32054 0.91232 0.0
H4462 H 0.86517 0.28621 0.90019 0.0
H4463 H 0.84087 0.28982 0.93469 0.0
C4464 C 0.84934 0.27386 0.94 0.0
C4465 C 0.8584 0.26554 0.93749 0.0
C4466 C 0.85965 0.29374 0.90292 0.0
C4467 C 0.85565 0.28487 0.92271 0.0
C4468 C 0.85794 0.30269 0.89493 0.0
C4469 C 0.85083 0.31253 0.89813 0.0
C4470 C 0.85409 0.29452 0.91421 0.0
C4471 C 0.84546 0.3131 0.90952 0.0
C4472 C 0.848 0.28359 0.9327 0.0
C4473 C 0.86608 0.2674 0.92761 0.0
N4474 N 0.84715 0.30415 0.91715 0.0
N4475 N 0.86446 0.27678 0.92056 0.0
H4476 H 0.9345 0.60974 0.22939 0.0
H4477 H 0.90618 0.59413 0.15981 0.0
H4478 H 0.95792 0.60227 0.19921 0.0
H4479 H 0.88155 0.59416 0.18987 0.0
H4480 H 0.92527 0.5977 0.17433 0.0
H4481 H 0.91495 0.60442 0.21535 0.0
C4482 C 0.93554 0.6069 0.21985 0.0
C4483 C 0.94792 0.60659 0.21548 0.0
C4484 C 0.9157 0.59687 0.17779 0.0
C4485 C 0.9256 0.60064 0.19935 0.0
C4486 C 0.90482 0.59484 0.1695 0.0
C4487 C 0.89231 0.59383 0.17365 0.0
C4488 C 0.9141 0.59802 0.19038 0.0
C4489 C 0.89105 0.59485 0.18629 0.0
C4490 C 0.92438 0.60391 0.21184 0.0
C4491 C 0.94865 0.60293 0.20298 0.0
N4492 N 0.90183 0.59696 0.19423 0.0
N4493 N 0.93768 0.60018 0.19539 0.0
H4494 H 0.63703 0.73496 0.42745 0.0
H4495 H 0.63375 0.65982 0.41728 0.0
H4496 H 0.62531 0.71078 0.45493 0.0
H4497 H 0.63457 0.68357 0.38805 0.0
H4498 H 0.63421 0.6786 0.43201 0.0
H4499 H 0.63956 0.71639 0.41372 0.0
C4500 C 0.63494 0.72575 0.43061 0.0
C4501 C 0.63074 0.72447 0.44234 0.0
C4502 C 0.63438 0.67969 0.42238 0.0
C4503 C 0.63389 0.70309 0.42665 0.0
C4504 C 0.6342 0.66901 0.41399 0.0
C4505 C 0.63406 0.67016 0.40143 0.0
C4506 C 0.63455 0.69161 0.41817 0.0
C4507 C 0.63454 0.68226 0.39764 0.0
C4508 C 0.63647 0.71514 0.42276 0.0
C4509 C 0.6286 0.71227 0.446 0.0
N4510 N 0.63474 0.6925 0.40596 0.0
N4511 N 0.63014 0.70205 0.43817 0.0
H4512 H 0.82511 0.61305 0.6186 0.0
H4513 H 0.89814 0.64542 0.61599 0.0
H4514 H 0.85575 0.59324 0.60528 0.0
H4515 H 0.86654 0.6672 0.62033 0.0
H4516 H 0.88245 0.62621 0.61178 0.0
H4517 H 0.83975 0.63304 0.61925 0.0
C4518 C 0.83487 0.61291 0.61574 0.0
C4519 C 0.8392 0.60144 0.61187 0.0
C4520 C 0.87889 0.63518 0.6135 0.0
C4521 C 0.85597 0.62422 0.61263 0.0
C4522 C 0.88785 0.64613 0.61591 0.0
C4523 C 0.88359 0.65785 0.61852 0.0
C4524 C 0.86554 0.63591 0.61392 0.0
C4525 C 0.87017 0.65831 0.61829 0.0
C4526 C 0.84319 0.62431 0.61605 0.0
C4527 C 0.85192 0.60183 0.60818 0.0
N4528 N 0.8616 0.64745 0.61619 0.0
N4529 N 0.85986 0.61299 0.60875 0.0
H4530 H 0.30002 0.91752 0.35082 0.0
H4531 H 0.33341 0.88001 0.40025 0.0
H4532 H 0.30484 0.93022 0.38937 0.0
H4533 H 0.33338 0.87098 0.3613 0.0
H4534 H 0.31959 0.89627 0.3968 0.0
H4535 H 0.30894 0.89837 0.35488 0.0
C4536 C 0.30289 0.91625 0.36015 0.0
C4537 C 0.30184 0.92559 0.36974 0.0
C4538 C 0.32249 0.89063 0.38901 0.0
C4539 C 0.31203 0.90361 0.37448 0.0
C4540 C 0.33031 0.88131 0.39098 0.0
C4541 C 0.33465 0.87425 0.38104 0.0
C4542 C 0.31896 0.89284 0.37701 0.0
C4543 C 0.33041 0.87636 0.36922 0.0
C4544 C 0.30795 0.90529 0.36247 0.0
C4545 C 0.30544 0.92327 0.38169 0.0
N4546 N 0.32289 0.88551 0.36753 0.0
N4547 N 0.3105 0.91258 0.3837 0.0
H4548 H 0.26684 0.03185 0.64507 0.0
H4549 H 0.3088 0.09979 0.6441 0.0
H4550 H 0.25067 0.06681 0.6459 0.0
H4551 H 0.32608 0.06558 0.64485 0.0
H4552 H 0.28749 0.08771 0.64547 0.0
H4553 H 0.28866 0.04384 0.64558 0.0
C4554 C 0.26787 0.04203 0.64538 0.0
C4555 C 0.25687 0.04832 0.64547 0.0
C4556 C 0.29592 0.08281 0.64538 0.0
C4557 C 0.28181 0.06208 0.64609 0.0
C4558 C 0.3081 0.08971 0.64454 0.0
C4559 C 0.31923 0.08367 0.64425 0.0
C4560 C 0.29478 0.06972 0.64588 0.0
C4561 C 0.31776 0.07062 0.64509 0.0
C4562 C 0.28033 0.04887 0.64573 0.0
C4563 C 0.25883 0.06154 0.64601 0.0
N4564 N 0.30574 0.06406 0.64578 0.0
N4565 N 0.27101 0.06795 0.64625 0.0
H4566 H 0.17513 0.0418 0.88457 0.0
H4567 H 0.16766 0.11453 0.88198 0.0
H4568 H 0.20578 0.06864 0.87366 0.0
H4569 H 0.13532 0.0848 0.88124 0.0
H4570 H 0.18258 0.09863 0.88175 0.0
H4571 H 0.16123 0.05827 0.88627 0.0
C4572 C 0.17895 0.05114 0.88245 0.0
C4573 C 0.19163 0.05374 0.87876 0.0
C4574 C 0.17222 0.09562 0.88168 0.0
C4575 C 0.17573 0.0728 0.88097 0.0
C4576 C 0.16372 0.10468 0.88186 0.0
C4577 C 0.15026 0.10093 0.88164 0.0
C4578 C 0.16718 0.0828 0.88143 0.0
C4579 C 0.14565 0.08806 0.88141 0.0
C4580 C 0.171 0.06057 0.8835 0.0
C4581 C 0.19611 0.06618 0.87657 0.0
N4582 N 0.15408 0.07947 0.88134 0.0
N4583 N 0.18815 0.07524 0.87767 0.0
H4584 H 0.71117 0.52083 0.63234 0.0
H4585 H 0.68876 0.44946 0.64441 0.0
H4586 H 0.73765 0.49429 0.63919 0.0
H4587 H 0.66268 0.47742 0.64615 0.0
H4588 H 0.70666 0.4659 0.64186 0.0
H4589 H 0.69312 0.50534 0.63702 0.0
C4590 C 0.71322 0.51181 0.63492 0.0
C4591 C 0.72596 0.50881 0.6352 0.0
C4592 C 0.69705 0.46849 0.64288 0.0
C4593 C 0.70535 0.49103 0.64042 0.0
C4594 C 0.68684 0.4591 0.64432 0.0
C4595 C 0.67427 0.4621 0.64552 0.0
C4596 C 0.69468 0.481 0.64249 0.0
C4597 C 0.67226 0.47472 0.6453 0.0
C4598 C 0.7029 0.50296 0.63754 0.0
C4599 C 0.72799 0.49693 0.63853 0.0
N4600 N 0.68237 0.48373 0.64373 0.0
N4601 N 0.71781 0.48848 0.64092 0.0
H4602 H 0.67427 0.4274 0.16073 0.0
H4603 H 0.62865 0.36969 0.12134 0.0
H4604 H 0.66311 0.42704 0.12242 0.0
H4605 H 0.63387 0.37386 0.16066 0.0
H4606 H 0.64352 0.38935 0.12112 0.0
H4607 H 0.66175 0.40645 0.1604 0.0
C4608 C 0.6693 0.42286 0.15222 0.0
C4609 C 0.6697 0.42901 0.1416 0.0
C4610 C 0.64145 0.38593 0.12979 0.0
C4611 C 0.65526 0.40504 0.14117 0.0
C4612 C 0.63304 0.37467 0.12991 0.0
C4613 C 0.62996 0.37019 0.14104 0.0
C4614 C 0.6469 0.39268 0.14087 0.0
C4615 C 0.63584 0.37708 0.15189 0.0
C4616 C 0.66208 0.41093 0.15205 0.0
C4617 C 0.66292 0.42272 0.13086 0.0
N4618 N 0.644 0.38798 0.15153 0.0
N4619 N 0.65597 0.41109 0.13092 0.0
H4620 H 0.27691 0.95485 0.84502 0.0
H4621 H 0.34222 0.93519 0.87405 0.0
H4622 H 0.29181 0.96575 0.88244 0.0
H4623 H 0.3309 0.92846 0.8355 0.0
H4624 H 0.32428 0.94736 0.87692 0.0
H4625 H 0.29704 0.9463 0.84089 0.0
C4626 C 0.28448 0.95563 0.85233 0.0
C4627 C 0.28258 0.96093 0.86414 0.0
C4628 C 0.32573 0.94333 0.8678 0.0
C4629 C 0.30558 0.95096 0.8595 0.0
C4630 C 0.33596 0.93634 0.86617 0.0
C4631 C 0.33795 0.93071 0.85454 0.0
C4632 C 0.31729 0.94462 0.85775 0.0
C4633 C 0.32968 0.93266 0.84462 0.0
C4634 C 0.29595 0.95067 0.84997 0.0
C4635 C 0.29271 0.96153 0.87326 0.0
N4636 N 0.3196 0.93934 0.84647 0.0
N4637 N 0.30369 0.95652 0.87077 0.0
H4638 H 0.19186 0.99649 0.33914 0.0
H4639 H 0.17544 0.06655 0.35632 0.0
H4640 H 0.21856 0.02706 0.35873 0.0
H4641 H 0.14812 0.03734 0.33556 0.0
H4642 H 0.19101 0.05167 0.35769 0.0
H4643 H 0.17528 0.01068 0.33824 0.0
C4644 C 0.19421 0.00615 0.3433 0.0
C4645 C 0.20667 0.01063 0.34891 0.0
C4646 C 0.18163 0.04845 0.35283 0.0
C4647 C 0.18781 0.02688 0.34788 0.0
C4648 C 0.17274 0.05696 0.35205 0.0
C4649 C 0.16053 0.05318 0.3458 0.0
C4650 C 0.17831 0.03599 0.34732 0.0
C4651 C 0.15747 0.04064 0.34045 0.0
C4652 C 0.18478 0.01425 0.34273 0.0
C4653 C 0.2092 0.02324 0.3541 0.0
N4654 N 0.16634 0.03247 0.34131 0.0
N4655 N 0.19989 0.03089 0.35344 0.0
H4656 H 0.35637 0.17052 0.45361 0.0
H4657 H 0.41049 0.14465 0.41328 0.0
H4658 H 0.39648 0.17248 0.46692 0.0
H4659 H 0.3706 0.14431 0.40005 0.0
H4660 H 0.40623 0.15672 0.4323 0.0
H4661 H 0.36195 0.16256 0.43338 0.0
C4662 C 0.36637 0.16931 0.45226 0.0
C4663 C 0.37595 0.17206 0.46201 0.0
C4664 C 0.39845 0.15411 0.42518 0.0
C4665 C 0.38244 0.16294 0.43881 0.0
C4666 C 0.4009 0.14729 0.41429 0.0
C4667 C 0.39085 0.14333 0.40512 0.0
C4668 C 0.38585 0.15698 0.42691 0.0
C4669 C 0.37858 0.14695 0.40697 0.0
C4670 C 0.36957 0.16481 0.44069 0.0
C4671 C 0.38879 0.17052 0.45966 0.0
N4672 N 0.37641 0.15346 0.41767 0.0
N4673 N 0.39164 0.16595 0.44834 0.0
H4674 H 0.52608 0.60893 0.19385 0.0
H4675 H 0.56688 0.63643 0.14079 0.0
H4676 H 0.54335 0.64789 0.19535 0.0
H4677 H 0.55303 0.59698 0.14191 0.0
H4678 H 0.55571 0.64146 0.15925 0.0
H4679 H 0.53315 0.6051 0.17331 0.0
C4680 C 0.53118 0.61674 0.18979 0.0
C4681 C 0.53419 0.62874 0.1964 0.0
C4682 C 0.55503 0.63171 0.15539 0.0
C4683 C 0.54255 0.62434 0.17288 0.0
C4684 C 0.56134 0.62886 0.14483 0.0
C4685 C 0.561 0.61626 0.13991 0.0
C4686 C 0.54828 0.6219 0.16101 0.0
C4687 C 0.55374 0.6068 0.14554 0.0
C4688 C 0.53531 0.61452 0.17808 0.0
C4689 C 0.541 0.63844 0.19068 0.0
N4690 N 0.54774 0.6098 0.1558 0.0
N4691 N 0.54502 0.63601 0.17929 0.0
H4692 H 0.12011 0.81443 0.9799 0.0
H4693 H 0.07392 0.83629 0.92804 0.0
H4694 H 0.07918 0.80027 0.97451 0.0
H4695 H 0.11576 0.84129 0.92863 0.0
H4696 H 0.07513 0.82423 0.94575 0.0
H4697 H 0.11824 0.82564 0.96191 0.0
C4698 C 0.1107 0.81371 0.97493 0.0
C4699 C 0.09977 0.80644 0.97874 0.0
C4700 C 0.08403 0.82794 0.94196 0.0
C4701 C 0.09755 0.81927 0.95804 0.0
C4702 C 0.08334 0.83483 0.93188 0.0
C4703 C 0.09478 0.83979 0.9269 0.0
C4704 C 0.09623 0.82615 0.94711 0.0
C4705 C 0.10672 0.83762 0.9322 0.0
C4706 C 0.10965 0.82006 0.96461 0.0
C4707 C 0.08786 0.80572 0.97184 0.0
N4708 N 0.10714 0.83103 0.94204 0.0
N4709 N 0.08704 0.81212 0.96185 0.0
H4710 H 0.94691 0.41375 0.71056 0.0
H4711 H 0.91081 0.38984 0.64454 0.0
H4712 H 0.92523 0.37656 0.7013 0.0
H4713 H 0.92781 0.42838 0.65583 0.0
H4714 H 0.91775 0.38416 0.6646 0.0
H4715 H 0.94184 0.41861 0.68983 0.0
C4716 C 0.94119 0.40656 0.70413 0.0
C4717 C 0.93646 0.39474 0.70769 0.0
C4718 C 0.92001 0.39385 0.66267 0.0
C4719 C 0.9305 0.40028 0.68394 0.0
C4720 C 0.91608 0.39709 0.65121 0.0
C4721 C 0.91875 0.40961 0.64857 0.0
C4722 C 0.92667 0.4032 0.67149 0.0
C4723 C 0.92557 0.41862 0.65754 0.0
C4724 C 0.93822 0.40937 0.69231 0.0
C4725 C 0.92893 0.38585 0.699 0.0
N4726 N 0.92928 0.41525 0.6686 0.0
N4727 N 0.92618 0.38881 0.68754 0.0
H4728 H 0.3825 0.8324 0.03793 0.0
H4729 H 0.40561 0.89708 0.08052 0.0
H4730 H 0.39646 0.86774 0.02463 0.0
H4731 H 0.39606 0.86158 0.09512 0.0
H4732 H 0.40309 0.88602 0.05998 0.0
H4733 H 0.38822 0.84232 0.05891 0.0
C4734 C 0.38687 0.8422 0.03941 0.0
C4735 C 0.38884 0.84929 0.0295 0.0
C4736 C 0.40162 0.88058 0.06764 0.0
C4737 C 0.39532 0.8607 0.05343 0.0
C4738 C 0.40303 0.88691 0.07937 0.0
C4739 C 0.40092 0.88024 0.08951 0.0
C4740 C 0.39795 0.86744 0.06594 0.0
C4741 C 0.39778 0.86706 0.08752 0.0
C4742 C 0.39009 0.84786 0.05138 0.0
C4743 C 0.39448 0.86197 0.03197 0.0
N4744 N 0.39625 0.86108 0.07594 0.0
N4745 N 0.39744 0.86726 0.04365 0.0
H4746 H 0.95479 0.64741 0.81813 0.0
H4747 H 0.92205 0.59903 0.86179 0.0
H4748 H 0.9627 0.6091 0.81867 0.0
H4749 H 0.91623 0.63811 0.86415 0.0
H4750 H 0.93701 0.60275 0.8459 0.0
H4751 H 0.94054 0.64439 0.83481 0.0
C4752 C 0.95353 0.63837 0.82175 0.0
C4753 C 0.95999 0.6285 0.817 0.0
C4754 C 0.93252 0.61055 0.8499 0.0
C4755 C 0.94375 0.625 0.8361 0.0
C4756 C 0.92399 0.60842 0.85897 0.0
C4757 C 0.91793 0.61827 0.86428 0.0
C4758 C 0.93498 0.62263 0.84602 0.0
C4759 C 0.92074 0.63026 0.86031 0.0
C4760 C 0.94545 0.63667 0.83131 0.0
C4761 C 0.95809 0.61703 0.82213 0.0
N4762 N 0.92904 0.6321 0.85136 0.0
N4763 N 0.95013 0.6156 0.83135 0.0
H4764 H 0.06941 0.16055 0.52325 0.0
H4765 H 0.10879 0.14294 0.58211 0.0
H4766 H 0.11096 0.16982 0.53061 0.0
H4767 H 0.06693 0.13677 0.57718 0.0
H4768 H 0.10957 0.15329 0.56342 0.0
H4769 H 0.06806 0.15229 0.54308 0.0
C4770 C 0.07824 0.16091 0.52906 0.0
C4771 C 0.09033 0.16588 0.52522 0.0
C4772 C 0.1002 0.14975 0.56643 0.0
C4773 C 0.08884 0.15643 0.54794 0.0
C4774 C 0.09975 0.14384 0.57709 0.0
C4775 C 0.0878 0.139 0.58117 0.0
C4776 C 0.08858 0.15077 0.55969 0.0
C4777 C 0.07637 0.14038 0.57435 0.0
C4778 C 0.07745 0.15623 0.5404 0.0
C4779 C 0.10141 0.16623 0.53321 0.0
N4780 N 0.07704 0.14609 0.56389 0.0
N4781 N 0.10041 0.16149 0.54412 0.0
H4782 H 0.52733 0.39019 0.31823 0.0
H4783 H 0.56196 0.3512 0.36505 0.0
H4784 H 0.52531 0.34964 0.31326 0.0
H4785 H 0.5601 0.39111 0.3718 0.0
H4786 H 0.54682 0.35006 0.34705 0.0
H4787 H 0.53755 0.39042 0.33873 0.0
C4788 C 0.52882 0.3813 0.3215 0.0
C4789 C 0.52557 0.36989 0.3139 0.0
C4790 C 0.54962 0.35905 0.35254 0.0
C4791 C 0.53754 0.37011 0.33737 0.0
C4792 C 0.5582 0.35968 0.36288 0.0
C4793 C 0.56246 0.3713 0.36988 0.0
C4794 C 0.54529 0.37011 0.34913 0.0
C4795 C 0.55733 0.382 0.36653 0.0
C4796 C 0.53475 0.38145 0.33321 0.0
C4797 C 0.52791 0.3587 0.31866 0.0
N4798 N 0.54914 0.38117 0.35634 0.0
N4799 N 0.53387 0.3591 0.33002 0.0
H4800 H 0.43742 0.42355 0.22897 0.0
H4801 H 0.38409 0.39976 0.17336 0.0
H4802 H 0.42403 0.38448 0.21614 0.0
H4803 H 0.39847 0.43909 0.18374 0.0
H4804 H 0.39647 0.39436 0.19104 0.0
H4805 H 0.42127 0.42975 0.21448 0.0
C4806 C 0.43097 0.41628 0.22322 0.0
C4807 C 0.43217 0.40348 0.22366 0.0
C4808 C 0.39686 0.4042 0.18957 0.0
C4809 C 0.41374 0.4105 0.20707 0.0
C4810 C 0.38977 0.40727 0.17948 0.0
C4811 C 0.39039 0.41987 0.17704 0.0
C4812 C 0.40477 0.41376 0.19727 0.0
C4813 C 0.39776 0.42926 0.18533 0.0
C4814 C 0.4218 0.41983 0.21493 0.0
C4815 C 0.42361 0.39446 0.21596 0.0
N4816 N 0.40482 0.42601 0.19501 0.0
N4817 N 0.41484 0.39815 0.20797 0.0
H4818 H 0.40026 0.74103 0.94885 0.0
H4819 H 0.36653 0.68189 0.90265 0.0
H4820 H 0.35925 0.73476 0.93779 0.0
H4821 H 0.40802 0.69296 0.90822 0.0
H4822 H 0.36341 0.70003 0.91691 0.0
H4823 H 0.403 0.72211 0.93561 0.0
C4824 C 0.3918 0.73559 0.94373 0.0
C4825 C 0.37951 0.73949 0.94443 0.0
C4826 C 0.37319 0.69848 0.91502 0.0
C4827 C 0.3826 0.71787 0.92913 0.0
C4828 C 0.37498 0.68812 0.9069 0.0
C4829 C 0.38757 0.68595 0.90428 0.0
C4830 C 0.38407 0.70665 0.9206 0.0
C4831 C 0.39816 0.69433 0.91001 0.0
C4832 C 0.39339 0.72484 0.93609 0.0
C4833 C 0.36893 0.73217 0.93743 0.0
N4834 N 0.39618 0.70429 0.91791 0.0
N4835 N 0.37071 0.72171 0.93008 0.0
H4836 H 0.03873 0.59151 0.72234 0.0
H4837 H 0.11135 0.60421 0.7035 0.0
H4838 H 0.0654 0.62521 0.73495 0.0
H4839 H 0.08645 0.5689 0.69341 0.0
H4840 H 0.09569 0.61067 0.71764 0.0
H4841 H 0.0568 0.58173 0.71427 0.0
C4842 C 0.04842 0.59677 0.72363 0.0
C4843 C 0.05051 0.60929 0.72917 0.0
C4844 C 0.0937 0.60141 0.71253 0.0
C4845 C 0.07122 0.5982 0.71979 0.0
C4846 C 0.10268 0.59772 0.70451 0.0
C4847 C 0.10011 0.58605 0.6973 0.0
C4848 C 0.08194 0.59348 0.71318 0.0
C4849 C 0.08875 0.57796 0.69887 0.0
C4850 C 0.05874 0.5912 0.71896 0.0
C4851 C 0.06328 0.61566 0.73049 0.0
N4852 N 0.07995 0.58192 0.70649 0.0
N4853 N 0.0731 0.61011 0.72571 0.0
H4854 H 0.08952 0.2445 0.41905 0.0
H4855 H 0.11391 0.31555 0.40628 0.0
H4856 H 0.11052 0.27241 0.44653 0.0
H4857 H 0.09031 0.28786 0.38033 0.0
H4858 H 0.11317 0.30004 0.42114 0.0
H4859 H 0.09007 0.26036 0.40475 0.0
C4860 C 0.0943 0.25397 0.42207 0.0
C4861 C 0.10007 0.25709 0.43399 0.0
C4862 C 0.10815 0.29737 0.4122 0.0
C4863 C 0.10065 0.27542 0.41763 0.0
C4864 C 0.10859 0.30621 0.40371 0.0
C4865 C 0.10218 0.30294 0.39205 0.0
C4866 C 0.10127 0.28519 0.40898 0.0
C4867 C 0.0954 0.29073 0.38922 0.0
C4868 C 0.09455 0.26306 0.41391 0.0
C4869 C 0.10589 0.2696 0.43745 0.0
N4870 N 0.09514 0.28231 0.3976 0.0
N4871 N 0.10609 0.2783 0.42928 0.0
H4872 H 0.45062 0.60476 0.29759 0.0
H4873 H 0.37375 0.58938 0.30236 0.0
H4874 H 0.42267 0.6084 0.26814 0.0
H4875 H 0.40218 0.59308 0.33301 0.0
H4876 H 0.39137 0.59434 0.28903 0.0
H4877 H 0.43284 0.59849 0.31003 0.0
C4878 C 0.44073 0.60432 0.29374 0.0
C4879 C 0.43817 0.60729 0.28182 0.0
C4880 C 0.39374 0.59402 0.29866 0.0
C4881 C 0.41766 0.59987 0.29605 0.0
C4882 C 0.3837 0.59116 0.30626 0.0
C4883 C 0.38656 0.59083 0.3188 0.0
C4884 C 0.40668 0.59648 0.30365 0.0
C4885 C 0.39958 0.59326 0.32339 0.0
C4886 C 0.43056 0.60066 0.30085 0.0
C4887 C 0.42512 0.60616 0.27725 0.0
N4888 N 0.40915 0.59597 0.31583 0.0
N4889 N 0.41535 0.60259 0.28439 0.0
H4890 H 0.1398 0.72968 0.07741 0.0
H4891 H 0.10449 0.66752 0.10231 0.0
H4892 H 0.09822 0.71876 0.07488 0.0
H4893 H 0.146 0.67889 0.10642 0.0
H4894 H 0.10228 0.68518 0.09049 0.0
H4895 H 0.14251 0.7101 0.08614 0.0
C4896 C 0.13124 0.72309 0.07853 0.0
C4897 C 0.11875 0.72593 0.07546 0.0
C4898 C 0.11189 0.68379 0.0939 0.0
C4899 C 0.12179 0.70353 0.08561 0.0
C4900 C 0.11316 0.67372 0.10069 0.0
C4901 C 0.12544 0.67179 0.1055 0.0
C4902 C 0.12298 0.69208 0.09187 0.0
C4903 C 0.13635 0.67999 0.10287 0.0
C4904 C 0.1328 0.71194 0.08359 0.0
C4905 C 0.10802 0.71708 0.07728 0.0
N4906 N 0.13485 0.68984 0.09633 0.0
N4907 N 0.10979 0.70634 0.08228 0.0
H4908 H 0.03943 0.37257 0.79177 0.0
H4909 H 0.09992 0.41727 0.82809 0.0
H4910 H 0.0452 0.41303 0.79176 0.0
H4911 H 0.09677 0.37664 0.82273 0.0
H4912 H 0.08019 0.41611 0.81457 0.0
H4913 H 0.06051 0.37401 0.80314 0.0
C4914 C 0.04514 0.38177 0.79418 0.0
C4915 C 0.04052 0.39271 0.79088 0.0
C4916 C 0.08387 0.40746 0.8163 0.0
C4917 C 0.06472 0.39444 0.80388 0.0
C4918 C 0.09518 0.40812 0.82396 0.0
C4919 C 0.09996 0.39703 0.82666 0.0
C4920 C 0.07727 0.39562 0.81133 0.0
C4921 C 0.09331 0.38543 0.82113 0.0
C4922 C 0.05722 0.38258 0.80061 0.0
C4923 C 0.04843 0.40436 0.79407 0.0
N4924 N 0.08228 0.38503 0.81382 0.0
N4925 N 0.06011 0.40493 0.80047 0.0
H4926 H 0.37237 0.28619 0.5382 0.0
H4927 H 0.33879 0.32248 0.59192 0.0
H4928 H 0.34204 0.26771 0.5579 0.0
H4929 H 0.37579 0.33661 0.57924 0.0
H4930 H 0.33794 0.30331 0.57764 0.0
H4931 H 0.37188 0.30574 0.55134 0.0
C4932 C 0.36562 0.2862 0.54529 0.0
C4933 C 0.35732 0.27519 0.54697 0.0
C4934 C 0.34621 0.31063 0.57797 0.0
C4935 C 0.35656 0.29769 0.56195 0.0
C4936 C 0.34668 0.32158 0.58608 0.0
C4937 C 0.35739 0.33111 0.58673 0.0
C4938 C 0.35646 0.30931 0.57041 0.0
C4939 C 0.36737 0.32945 0.579 0.0
C4940 C 0.36531 0.2974 0.55276 0.0
C4941 C 0.34854 0.27595 0.55615 0.0
N4942 N 0.36666 0.31878 0.57115 0.0
N4943 N 0.34842 0.28699 0.56331 0.0
H4944 H 0.16799 0.41751 0.34954 0.0
H4945 H 0.13072 0.36868 0.39019 0.0
H4946 H 0.16249 0.42645 0.38771 0.0
H4947 H 0.13137 0.36251 0.35105 0.0
H4948 H 0.14588 0.38826 0.39025 0.0
H4949 H 0.15797 0.39585 0.35073 0.0
C4950 C 0.16474 0.41491 0.35819 0.0
C4951 C 0.16595 0.42388 0.36849 0.0
C4952 C 0.14284 0.38253 0.38167 0.0
C4953 C 0.1545 0.39903 0.36995 0.0
C4954 C 0.13427 0.37133 0.38165 0.0
C4955 C 0.12971 0.36408 0.37059 0.0
C4956 C 0.14688 0.38643 0.37055 0.0
C4957 C 0.13452 0.36795 0.35976 0.0
C4958 C 0.15906 0.40252 0.35888 0.0
C4959 C 0.16181 0.41986 0.37953 0.0
N4960 N 0.14276 0.3789 0.36 0.0
N4961 N 0.15615 0.40777 0.37994 0.0
H4962 H 0.70244 0.08512 0.64406 0.0
H4963 H 0.6607 0.1282 0.60692 0.0
H4964 H 0.68543 0.07369 0.60736 0.0
H4965 H 0.67266 0.13601 0.6453 0.0
H4966 H 0.67187 0.10946 0.606 0.0
H4967 H 0.69378 0.10507 0.64377 0.0
C4968 C 0.69689 0.0868 0.63593 0.0
C4969 C 0.69457 0.07762 0.62577 0.0
C4970 C 0.67212 0.11533 0.6146 0.0
C4971 C 0.68467 0.10058 0.62533 0.0
C4972 C 0.66578 0.12604 0.61512 0.0
C4973 C 0.66576 0.13363 0.62622 0.0
C4974 C 0.6785 0.11226 0.62525 0.0
C4975 C 0.67244 0.13038 0.63657 0.0
C4976 C 0.69198 0.09823 0.63575 0.0
C4977 C 0.68755 0.08049 0.61539 0.0
N4978 N 0.67851 0.11994 0.63585 0.0
N4979 N 0.68278 0.09167 0.61546 0.0
H4980 H 0.72598 0.97679 0.34806 0.0
H4981 H 0.6777 0.93494 0.38677 0.0
H4982 H 0.73631 0.96726 0.38405 0.0
H4983 H 0.66971 0.9379 0.34848 0.0
H4984 H 0.69855 0.94829 0.38631 0.0
H4985 H 0.70464 0.96405 0.34838 0.0
C4986 C 0.72374 0.97206 0.35604 0.0
C4987 C 0.73295 0.97305 0.36603 0.0
C4988 C 0.69225 0.94604 0.378 0.0
C4989 C 0.7086 0.95849 0.36646 0.0
C4990 C 0.68034 0.93845 0.37827 0.0
C4991 C 0.67201 0.9353 0.36766 0.0
C4992 C 0.69586 0.9506 0.36702 0.0
C4993 C 0.67588 0.94008 0.35687 0.0
C4994 C 0.71159 0.96475 0.35619 0.0
C4995 C 0.72958 0.96663 0.37609 0.0
N4996 N 0.68754 0.94751 0.35683 0.0
N4997 N 0.71768 0.95967 0.37605 0.0
H4998 H 0.82696 0.94374 0.14655 0.0
H4999 H 0.82982 0.86972 0.13202 0.0
H5000 H 0.79291 0.91663 0.13501 0.0
H5001 H 0.86355 0.89814 0.13964 0.0
H5002 H 0.81592 0.88643 0.13356 0.0
H5003 H 0.84029 0.92682 0.14473 0.0
C5004 C 0.82227 0.93423 0.14354 0.0
C5005 C 0.80877 0.93165 0.14083 0.0
C5006 C 0.82637 0.88898 0.1349 0.0
C5007 C 0.82406 0.91209 0.13888 0.0
C5008 C 0.83431 0.87946 0.13397 0.0
C5009 C 0.84788 0.8825 0.13581 0.0
C5010 C 0.83205 0.90163 0.13768 0.0
C5011 C 0.85314 0.89529 0.13841 0.0
C5012 C 0.82991 0.92453 0.14257 0.0
C5013 C 0.80326 0.91906 0.13728 0.0
N5014 N 0.84523 0.90434 0.13928 0.0
N5015 N 0.81092 0.90974 0.13639 0.0
H5016 H 0.25252 0.53755 0.33371 0.0
H5017 H 0.32986 0.5503 0.33137 0.0
H5018 H 0.27762 0.50986 0.34085 0.0
H5019 H 0.30557 0.57972 0.33503 0.0
H5020 H 0.31039 0.53448 0.33046 0.0
H5021 H 0.27152 0.5522 0.33 0.0
C5022 C 0.26202 0.53452 0.33449 0.0
C5023 C 0.26345 0.52249 0.33781 0.0
C5024 C 0.30932 0.5444 0.33132 0.0
C5025 C 0.28527 0.5392 0.33335 0.0
C5026 C 0.3204 0.55341 0.33174 0.0
C5027 C 0.31929 0.56631 0.33336 0.0
C5028 C 0.29707 0.54835 0.3324 0.0
C5029 C 0.30683 0.56986 0.33391 0.0
C5030 C 0.27286 0.54288 0.3323 0.0
C5031 C 0.276 0.519 0.3383 0.0
N5032 N 0.29622 0.56093 0.33349 0.0
N5033 N 0.28643 0.52735 0.33619 0.0
H5034 H 0.30992 0.57213 0.86438 0.0
H5035 H 0.38165 0.60995 0.87453 0.0
H5036 H 0.34358 0.55529 0.87527 0.0
H5037 H 0.34755 0.62871 0.87426 0.0
H5038 H 0.36773 0.58967 0.87377 0.0
H5039 H 0.32333 0.59285 0.86716 0.0
C5040 C 0.32008 0.57277 0.86746 0.0
C5041 C 0.32563 0.56188 0.86948 0.0
C5042 C 0.36327 0.59822 0.87395 0.0
C5043 C 0.34106 0.58557 0.87249 0.0
C5044 C 0.37121 0.60977 0.87432 0.0
C5045 C 0.36572 0.62099 0.8744 0.0
C5046 C 0.34971 0.59782 0.87351 0.0
C5047 C 0.35215 0.62026 0.87427 0.0
C5048 C 0.32774 0.58461 0.86899 0.0
C5049 C 0.33891 0.56334 0.87331 0.0
N5050 N 0.34458 0.60885 0.87371 0.0
N5051 N 0.34616 0.57492 0.8746 0.0
H5052 H 0.71064 0.01544 0.13696 0.0
H5053 H 0.66281 0.05151 0.17746 0.0
H5054 H 0.71917 0.02837 0.17524 0.0
H5055 H 0.65613 0.04111 0.13862 0.0
H5056 H 0.6822 0.04088 0.17741 0.0
H5057 H 0.6893 0.02234 0.13804 0.0
C5058 C 0.70795 0.01954 0.14565 0.0
C5059 C 0.71677 0.0214 0.15601 0.0
C5060 C 0.67643 0.04083 0.16892 0.0
C5061 C 0.69238 0.02955 0.15726 0.0
C5062 C 0.66535 0.04688 0.16894 0.0
C5063 C 0.65792 0.04722 0.15799 0.0
C5064 C 0.68008 0.0351 0.15787 0.0
C5065 C 0.66165 0.04108 0.14724 0.0
C5066 C 0.69579 0.02358 0.14624 0.0
C5067 C 0.71278 0.02694 0.16697 0.0
N5068 N 0.6725 0.03533 0.14743 0.0
N5069 N 0.70092 0.03089 0.1673 0.0
H5070 H 0.79164 0.99446 0.66244 0.0
H5071 H 0.85926 0.97989 0.63727 0.0
H5072 H 0.80698 0.00885 0.63035 0.0
H5073 H 0.84727 0.97072 0.6724 0.0
H5074 H 0.83972 0.98988 0.63427 0.0
H5075 H 0.81146 0.98499 0.66593 0.0
C5076 C 0.79916 0.9956 0.65611 0.0
C5077 C 0.79763 1.00246 0.64607 0.0
C5078 C 0.84136 0.98573 0.64266 0.0
C5079 C 0.82037 0.99166 0.65004 0.0
C5080 C 0.8525 0.98002 0.64436 0.0
C5081 C 0.85489 0.97451 0.65509 0.0
C5082 C 0.83245 0.98586 0.65172 0.0
C5083 C 0.84583 0.9749 0.664 0.0
C5084 C 0.81051 0.99025 0.65815 0.0
C5085 C 0.80779 0.00377 0.63827 0.0
N5086 N 0.83497 0.98044 0.6621 0.0
N5087 N 0.81868 0.99838 0.64039 0.0
loop_
_geom_bond_atom_site_label_1
_geom_bond_atom_site_label_2
_geom_bond_distance
_geom_bond_site_symmetry_2
_ccdc_geom_bond_type
C0 C1 1.264 . S
C0 C5 1.479 . S
C0 C10 1.465 . S
C1 C0 1.264 . S
C1 C3 1.339 . S
C1 H28 0.931 . S
C2 C3 1.395 . S
C2 C4 1.320 . S
C3 C1 1.339 . S
C3 C2 1.395 . S
C3 H29 0.929 . S
C4 C2 1.320 . S
C4 C5 1.405 . S
C4 H30 0.930 . S
C5 C0 1.479 . S
C5 C4 1.405 . S
C5 H31 0.931 . S
U6 O7 2.454 . S
U6 O8 2.458 1_655 S
U6 C9 2.984 1_655 S
U6 C10 2.847 . S
U6 C23 2.882 1_655 S
U6 O24 2.441 . S
U6 O25 2.420 . S
U6 O26 2.455 1_655 S
U6 O27 2.435 1_655 S
O7 U6 2.454 . S
O7 C9 1.353 1_655 S
O8 U6 2.458 1_455 S
O8 C9 1.286 . S
C9 U6 2.984 1_455 S
C9 O7 1.353 1_455 S
C9 O8 1.286 . S
C9 C11 1.363 . S
C10 C0 1.465 . S
C10 U6 2.847 . S
C10 O24 1.249 . S
C10 O25 1.202 . S
C11 C9 1.363 . S
C11 C13 1.421 . S
C11 C16 1.342 . S
C12 C13 1.318 . S
C12 C15 1.461 . S
C12 H32 0.932 1_455 S
C13 C11 1.421 . S
C13 C12 1.318 . S
C13 H33 0.910 1_455 S
C14 C15 1.474 . S
C14 C16 1.285 . S
C14 H34 0.929 . S
C15 C12 1.461 . S
C15 C14 1.474 . S
C16 C11 1.342 . S
C16 C14 1.285 . S
C16 H35 0.930 . S
C17 C20 1.424 . S
C17 C22 1.245 . S
C17 C23 1.428 . S
C18 C21 1.260 . S
C18 C22 1.477 . S
C18 H36 0.932 . S
C19 C20 1.384 . S
C19 C21 1.479 . S
C19 H37 0.929 . S
C20 C17 1.424 . S
C20 C19 1.384 . S
C20 H38 0.928 . S
C21 C18 1.260 . S
C21 C19 1.479 . S
C22 C17 1.245 . S
C22 C18 1.477 . S
C22 H39 0.932 . S
C23 U6 2.882 1_455 S
C23 C17 1.428 . S
C23 O26 1.301 . S
C23 O27 1.350 . S
O24 U6 2.441 . S
O24 C10 1.249 . S
O25 U6 2.420 . S
O25 C10 1.202 . S
O26 U6 2.455 1_455 S
O26 C23 1.301 . S
O27 U6 2.435 1_455 S
O27 C23 1.350 . S
H28 C1 0.931 . S
H29 C3 0.929 . S
H30 C4 0.930 . S
H31 C5 0.931 . S
H32 C12 0.932 1_655 S
H33 C13 0.910 1_655 S
H34 C14 0.929 . S
H35 C16 0.930 . S
H36 C18 0.932 . S
H37 C19 0.929 . S
H38 C20 0.928 . S
H39 C22 0.932 . S
C40 C41 1.264 . S
C40 C45 1.479 . S
C40 C50 1.465 . S
C41 C40 1.264 . S
C41 C43 1.339 . S
C41 H68 0.931 . S
C42 C43 1.395 . S
C42 C44 1.320 . S
C43 C41 1.339 . S
C43 C42 1.395 . S
C43 H69 0.929 . S
C44 C42 1.320 . S
C44 C45 1.405 . S
C44 H70 0.930 . S
C45 C40 1.479 . S
C45 C44 1.405 . S
C45 H71 0.931 . S
U46 O47 2.454 . S
U46 O48 2.458 . S
U46 C49 2.984 . S
U46 C50 2.847 . S
U46 C63 2.882 . S
U46 O64 2.441 . S
U46 O65 2.420 . S
U46 O66 2.455 . S
U46 O67 2.449 . S
O47 U46 2.454 . S
O47 C49 1.353 . S
O48 U46 2.458 . S
O48 C49 1.286 . S
C49 U46 2.984 . S
C49 O47 1.353 . S
C49 O48 1.286 . S
C49 C51 1.363 . S
C50 C40 1.465 . S
C50 U46 2.847 . S
C50 O64 1.249 . S
C50 O65 1.202 . S
C51 C49 1.363 . S
C51 C53 1.408 . S
C51 C56 1.342 . S
C52 C53 1.310 . S
C52 C55 1.461 . S
C52 H72 0.932 . S
C53 C51 1.408 . S
C53 C52 1.310 . S
C53 H73 0.930 . S
C54 C55 1.474 . S
C54 C56 1.285 . S
C54 H74 0.929 . S
C55 C52 1.461 . S
C55 C54 1.474 . S
C56 C51 1.342 . S
C56 C54 1.285 . S
C56 H75 0.930 . S
C57 C60 1.424 . S
C57 C62 1.245 . S
C57 C63 1.428 . S
C58 C61 1.260 . S
C58 C62 1.477 . S
C58 H76 0.932 . S
C59 C60 1.384 . S
C59 C61 1.479 . S
C59 H77 0.929 . S
C60 C57 1.424 . S
C60 C59 1.384 . S
C60 H78 0.928 . S
C61 C58 1.260 . S
C61 C59 1.479 . S
C62 C57 1.245 . S
C62 C58 1.477 . S
C62 H79 0.932 . S
C63 U46 2.882 . S
C63 C57 1.428 . S
C63 O66 1.301 . S
C63 O67 1.282 . S
O64 U46 2.441 . S
O64 C50 1.249 . S
O65 U46 2.420 . S
O65 C50 1.202 . S
O66 U46 2.455 . S
O66 C63 1.301 . S
O67 U46 2.449 . S
O67 C63 1.282 . S
H68 C41 0.931 . S
H69 C43 0.929 . S
H70 C44 0.930 . S
H71 C45 0.931 . S
H72 C52 0.932 . S
H73 C53 0.930 . S
H74 C54 0.929 . S
H75 C56 0.930 . S
H76 C58 0.932 . S
H77 C59 0.929 . S
H78 C60 0.928 . S
H79 C62 0.932 . S
C80 C81 1.264 . S
C80 C85 1.479 . S
C80 C90 1.465 . S
C81 C80 1.264 . S
C81 C83 1.339 . S
C81 H108 0.931 . S
C82 C83 1.395 . S
C82 C84 1.320 . S
C83 C81 1.339 . S
C83 C82 1.395 . S
C83 H109 0.929 . S
C84 C82 1.320 . S
C84 C85 1.405 . S
C84 H110 0.930 . S
C85 C80 1.479 . S
C85 C84 1.405 . S
C85 H111 0.931 . S
U86 O87 2.454 . S
U86 O88 2.458 . S
U86 C89 2.984 . S
U86 C90 2.847 . S
U86 C103 2.882 . S
U86 O104 2.441 . S
U86 O105 2.420 . S
U86 O106 2.455 . S
U86 O107 2.449 . S
O87 U86 2.454 . S
O87 C89 1.353 . S
O88 U86 2.458 . S
O88 C89 1.286 . S
C89 U86 2.984 . S
C89 O87 1.353 . S
C89 O88 1.286 . S
C89 C91 1.363 . S
C90 C80 1.465 . S
C90 U86 2.847 . S
C90 O104 1.249 . S
C90 O105 1.202 . S
C91 C89 1.363 . S
C91 C93 1.408 . S
C91 C96 1.342 . S
C92 C93 1.310 . S
C92 C95 1.461 . S
C92 H112 0.932 . S
C93 C91 1.408 . S
C93 C92 1.310 . S
C93 H113 0.930 . S
C94 C95 1.474 . S
C94 C96 1.285 . S
C94 H114 0.929 . S
C95 C92 1.461 . S
C95 C94 1.474 . S
C96 C91 1.342 . S
C96 C94 1.285 . S
C96 H115 0.930 . S
C97 C100 1.424 . S
C97 C102 1.245 . S
C97 C103 1.428 . S
C98 C101 1.260 . S
C98 C102 1.477 . S
C98 H116 0.932 . S
C99 C100 1.384 . S
C99 C101 1.479 . S
C99 H117 0.929 . S
C100 C97 1.424 . S
C100 C99 1.384 . S
C100 H118 0.928 . S
C101 C98 1.260 . S
C101 C99 1.479 . S
C102 C97 1.245 . S
C102 C98 1.477 . S
C102 H119 0.932 . S
C103 U86 2.882 . S
C103 C97 1.428 . S
C103 O106 1.301 . S
C103 O107 1.282 . S
O104 U86 2.441 . S
O104 C90 1.249 . S
O105 U86 2.420 . S
O105 C90 1.202 . S
O106 U86 2.455 . S
O106 C103 1.301 . S
O107 U86 2.449 . S
O107 C103 1.282 . S
H108 C81 0.931 . S
H109 C83 0.929 . S
H110 C84 0.930 . S
H111 C85 0.931 . S
H112 C92 0.932 . S
H113 C93 0.930 . S
H114 C94 0.929 . S
H115 C96 0.930 . S
H116 C98 0.932 . S
H117 C99 0.929 . S
H118 C100 0.928 . S
H119 C102 0.932 . S
C120 C121 1.264 . S
C120 C125 1.479 . S
C120 C130 1.465 . S
C121 C120 1.264 . S
C121 C123 1.339 . S
C121 H148 0.931 . S
C122 C123 1.395 . S
C122 C124 1.320 . S
C123 C121 1.339 . S
C123 C122 1.395 . S
C123 H149 0.929 . S
C124 C122 1.320 . S
C124 C125 1.405 . S
C124 H150 0.930 . S
C125 C120 1.479 . S
C125 C124 1.405 . S
C125 H151 0.931 . S
U126 O127 2.454 . S
U126 O128 2.458 . S
U126 C129 2.984 . S
U126 C130 2.847 . S
U126 C143 2.882 . S
U126 O144 2.441 . S
U126 O145 2.420 . S
U126 O146 2.455 . S
U126 O147 2.449 . S
O127 U126 2.454 . S
O127 C129 1.353 . S
O128 U126 2.458 . S
O128 C129 1.286 . S
C129 U126 2.984 . S
C129 O127 1.353 . S
C129 O128 1.286 . S
C129 C131 1.363 . S
C130 C120 1.465 . S
C130 U126 2.847 . S
C130 O144 1.249 . S
C130 O145 1.202 . S
C131 C129 1.363 . S
C131 C133 1.408 . S
C131 C136 1.342 . S
C132 C133 1.310 1_556 S
C132 C135 1.461 . S
C132 H152 0.932 . S
C133 C131 1.408 . S
C133 C132 1.310 1_554 S
C133 H153 0.930 . S
C134 C135 1.474 . S
C134 C136 1.285 1_556 S
C134 H154 0.929 . S
C135 C132 1.461 . S
C135 C134 1.474 . S
C136 C131 1.342 . S
C136 C134 1.285 1_554 S
C136 H155 0.930 . S
C137 C140 1.424 . S
C137 C142 1.245 . S
C137 C143 1.428 . S
C138 C141 1.260 . S
C138 C142 1.477 . S
C138 H156 0.932 . S
C139 C140 1.384 . S
C139 C141 1.479 . S
C139 H157 0.929 . S
C140 C137 1.424 . S
C140 C139 1.384 . S
C140 H158 0.928 . S
C141 C138 1.260 . S
C141 C139 1.479 . S
C142 C137 1.245 . S
C142 C138 1.477 . S
C142 H159 0.932 . S
C143 U126 2.882 . S
C143 C137 1.428 . S
C143 O146 1.301 . S
C143 O147 1.282 . S
O144 U126 2.441 . S
O144 C130 1.249 . S
O145 U126 2.420 . S
O145 C130 1.202 . S
O146 U126 2.455 . S
O146 C143 1.301 . S
O147 U126 2.449 . S
O147 C143 1.282 . S
H148 C121 0.931 . S
H149 C123 0.929 . S
H150 C124 0.930 . S
H151 C125 0.931 . S
H152 C132 0.932 . S
H153 C133 0.930 . S
H154 C134 0.929 . S
H155 C136 0.930 . S
H156 C138 0.932 . S
H157 C139 0.929 . S
H158 C140 0.928 . S
H159 C142 0.932 . S
C160 C161 1.264 . S
C160 C165 1.479 . S
C160 C170 1.465 . S
C161 C160 1.264 . S
C161 C163 1.339 . S
C161 H188 0.931 . S
C162 C163 1.395 . S
C162 C164 1.320 . S
C163 C161 1.339 . S
C163 C162 1.395 . S
C163 H189 0.929 . S
C164 C162 1.320 . S
C164 C165 1.405 . S
C164 H190 0.930 . S
C165 C160 1.479 . S
C165 C164 1.405 . S
C165 H191 0.931 . S
U166 O167 2.454 . S
U166 O168 2.458 . S
U166 C169 2.984 . S
U166 C170 2.847 1_455 S
U166 C183 2.882 . S
U166 O184 2.359 1_455 S
U166 O185 2.420 . S
U166 O186 2.455 . S
U166 O187 2.449 . S
O167 U166 2.454 . S
O167 C169 1.353 . S
O168 U166 2.458 . S
O168 C169 1.286 . S
C169 U166 2.984 . S
C169 O167 1.353 . S
C169 O168 1.286 . S
C169 C171 1.363 . S
C170 C160 1.465 . S
C170 U166 2.847 1_655 S
C170 O184 1.272 . S
C170 O185 1.202 1_655 S
C171 C169 1.363 . S
C171 C173 1.408 . S
C171 C176 1.342 . S
C172 C173 1.310 . S
C172 C175 1.461 . S
C172 H192 0.932 . S
C173 C171 1.408 . S
C173 C172 1.310 . S
C173 H193 0.930 . S
C174 C175 1.474 . S
C174 C176 1.285 . S
C174 H194 0.929 . S
C175 C172 1.461 . S
C175 C174 1.474 . S
C176 C171 1.342 . S
C176 C174 1.285 . S
C176 H195 0.930 . S
C177 C180 1.424 . S
C177 C182 1.245 . S
C177 C183 1.428 . S
C178 C181 1.260 . S
C178 C182 1.477 . S
C178 H196 0.932 . S
C179 C180 1.384 . S
C179 C181 1.479 . S
C179 H197 0.929 . S
C180 C177 1.424 . S
C180 C179 1.384 . S
C180 H198 0.928 . S
C181 C178 1.260 . S
C181 C179 1.479 . S
C182 C177 1.245 . S
C182 C178 1.477 . S
C182 H199 0.932 . S
C183 U166 2.882 . S
C183 C177 1.428 . S
C183 O186 1.301 . S
C183 O187 1.282 . S
O184 U166 2.359 1_655 S
O184 C170 1.272 . S
O185 U166 2.420 . S
O185 C170 1.202 1_455 S
O186 U166 2.455 . S
O186 C183 1.301 . S
O187 U166 2.449 . S
O187 C183 1.282 . S
H188 C161 0.931 . S
H189 C163 0.929 . S
H190 C164 0.930 . S
H191 C165 0.931 . S
H192 C172 0.932 . S
H193 C173 0.930 . S
H194 C174 0.929 . S
H195 C176 0.930 . S
H196 C178 0.932 . S
H197 C179 0.929 . S
H198 C180 0.928 . S
H199 C182 0.932 . S
C200 C201 1.264 . S
C200 C205 1.479 . S
C200 C210 1.465 . S
C201 C200 1.264 . S
C201 C203 1.339 . S
C201 H228 0.931 . S
C202 C203 1.395 . S
C202 C204 1.320 . S
C203 C201 1.339 . S
C203 C202 1.395 . S
C203 H229 0.929 . S
C204 C202 1.320 . S
C204 C205 1.405 . S
C204 H230 0.930 . S
C205 C200 1.479 . S
C205 C204 1.405 . S
C205 H231 0.931 . S
U206 O207 2.454 . S
U206 O208 2.458 . S
U206 C209 2.984 . S
U206 C210 2.847 . S
U206 C223 2.882 . S
U206 O224 2.441 . S
U206 O225 2.420 . S
U206 O226 2.455 . S
U206 O227 2.449 . S
O207 U206 2.454 . S
O207 C209 1.353 . S
O208 U206 2.458 . S
O208 C209 1.286 . S
C209 U206 2.984 . S
C209 O207 1.353 . S
C209 O208 1.286 . S
C209 C211 1.363 . S
C210 C200 1.465 . S
C210 U206 2.847 . S
C210 O224 1.249 . S
C210 O225 1.202 . S
C211 C209 1.363 . S
C211 C213 1.408 . S
C211 C216 1.342 . S
C212 C213 1.310 . S
C212 C215 1.461 . S
C212 H232 0.932 . S
C213 C211 1.408 . S
C213 C212 1.310 . S
C213 H233 0.930 . S
C214 C215 1.474 . S
C214 C216 1.285 . S
C214 H234 0.929 . S
C215 C212 1.461 . S
C215 C214 1.474 . S
C216 C211 1.342 . S
C216 C214 1.285 . S
C216 H235 0.930 . S
C217 C220 1.424 . S
C217 C222 1.245 . S
C217 C223 1.428 . S
C218 C221 1.260 . S
C218 C222 1.477 . S
C218 H236 0.932 . S
C219 C220 1.384 . S
C219 C221 1.479 . S
C219 H237 0.929 . S
C220 C217 1.424 . S
C220 C219 1.384 . S
C220 H238 0.928 . S
C221 C218 1.260 . S
C221 C219 1.479 . S
C222 C217 1.245 . S
C222 C218 1.477 . S
C222 H239 0.932 . S
C223 U206 2.882 . S
C223 C217 1.428 . S
C223 O226 1.301 . S
C223 O227 1.282 . S
O224 U206 2.441 . S
O224 C210 1.249 . S
O225 U206 2.420 . S
O225 C210 1.202 . S
O226 U206 2.455 . S
O226 C223 1.301 . S
O227 U206 2.449 . S
O227 C223 1.282 . S
H228 C201 0.931 . S
H229 C203 0.929 . S
H230 C204 0.930 . S
H231 C205 0.931 . S
H232 C212 0.932 . S
H233 C213 0.930 . S
H234 C214 0.929 . S
H235 C216 0.930 . S
H236 C218 0.932 . S
H237 C219 0.929 . S
H238 C220 0.928 . S
H239 C222 0.932 . S
C240 C241 1.264 . S
C240 C245 1.479 . S
C240 C250 1.465 . S
C241 C240 1.264 . S
C241 C243 1.339 . S
C241 H268 0.931 . S
C242 C243 1.395 . S
C242 C244 1.320 . S
C243 C241 1.339 . S
C243 C242 1.395 . S
C243 H269 0.929 . S
C244 C242 1.320 . S
C244 C245 1.405 . S
C244 H270 0.930 . S
C245 C240 1.479 . S
C245 C244 1.405 . S
C245 H271 0.931 . S
U246 O247 2.454 . S
U246 O248 2.458 . S
U246 C249 2.984 . S
U246 C250 2.847 . S
U246 C263 2.882 . S
U246 O264 2.441 . S
U246 O265 2.420 . S
U246 O266 2.455 . S
U246 O267 2.449 . S
O247 U246 2.454 . S
O247 C249 1.353 . S
O248 U246 2.458 . S
O248 C249 1.286 . S
C249 U246 2.984 . S
C249 O247 1.353 . S
C249 O248 1.286 . S
C249 C251 1.363 . S
C250 C240 1.465 . S
C250 U246 2.847 . S
C250 O264 1.249 . S
C250 O265 1.202 . S
C251 C249 1.363 . S
C251 C253 1.408 . S
C251 C256 1.342 . S
C252 C253 1.310 . S
C252 C255 1.461 . S
C252 H272 0.932 . S
C253 C251 1.408 . S
C253 C252 1.310 . S
C253 H273 0.930 . S
C254 C255 1.474 . S
C254 C256 1.285 . S
C254 H274 0.929 . S
C255 C252 1.461 . S
C255 C254 1.474 . S
C256 C251 1.342 . S
C256 C254 1.285 . S
C256 H275 0.930 . S
C257 C260 1.424 . S
C257 C262 1.245 . S
C257 C263 1.428 . S
C258 C261 1.260 . S
C258 C262 1.477 . S
C258 H276 0.932 . S
C259 C260 1.384 . S
C259 C261 1.479 . S
C259 H277 0.929 . S
C260 C257 1.424 . S
C260 C259 1.384 . S
C260 H278 0.928 . S
C261 C258 1.260 . S
C261 C259 1.479 . S
C262 C257 1.245 . S
C262 C258 1.477 . S
C262 H279 0.932 . S
C263 U246 2.882 . S
C263 C257 1.428 . S
C263 O266 1.301 . S
C263 O267 1.282 . S
O264 U246 2.441 . S
O264 C250 1.249 . S
O265 U246 2.420 . S
O265 C250 1.202 . S
O266 U246 2.455 . S
O266 C263 1.301 . S
O267 U246 2.449 . S
O267 C263 1.282 . S
H268 C241 0.931 . S
H269 C243 0.929 . S
H270 C244 0.930 . S
H271 C245 0.931 . S
H272 C252 0.932 . S
H273 C253 0.930 . S
H274 C254 0.929 . S
H275 C256 0.930 . S
H276 C258 0.932 . S
H277 C259 0.929 . S
H278 C260 0.928 . S
H279 C262 0.932 . S
C280 C281 1.264 . S
C280 C285 1.479 . S
C280 C290 1.465 1_554 S
C281 C280 1.264 . S
C281 C283 1.339 . S
C281 H308 0.931 1_554 S
C282 C283 1.395 . S
C282 C284 1.320 . S
C283 C281 1.339 . S
C283 C282 1.395 . S
C283 H309 0.929 . S
C284 C282 1.320 . S
C284 C285 1.405 . S
C284 H310 0.930 . S
C285 C280 1.479 . S
C285 C284 1.405 . S
C285 H311 0.931 . S
U286 O287 2.454 . S
U286 O288 2.458 . S
U286 C289 2.984 . S
U286 C290 2.847 . S
U286 C303 2.882 . S
U286 O304 2.441 . S
U286 O305 2.420 . S
U286 O306 2.455 . S
U286 O307 2.449 . S
O287 U286 2.454 . S
O287 C289 1.353 . S
O288 U286 2.458 . S
O288 C289 1.286 . S
C289 U286 2.984 . S
C289 O287 1.353 . S
C289 O288 1.286 . S
C289 C291 1.363 . S
C290 C280 1.465 1_556 S
C290 U286 2.847 . S
C290 O304 1.249 . S
C290 O305 1.202 . S
C291 C289 1.363 . S
C291 C293 1.408 . S
C291 C296 1.342 . S
C292 C293 1.310 . S
C292 C295 1.461 . S
C292 H312 0.932 . S
C293 C291 1.408 . S
C293 C292 1.310 . S
C293 H313 0.930 . S
C294 C295 1.474 . S
C294 C296 1.285 . S
C294 H314 0.929 . S
C295 C292 1.461 . S
C295 C294 1.474 . S
C296 C291 1.342 . S
C296 C294 1.285 . S
C296 H315 0.930 . S
C297 C300 1.424 . S
C297 C302 1.245 . S
C297 C303 1.428 . S
C298 C301 1.260 . S
C298 C302 1.477 . S
C298 H316 0.932 . S
C299 C300 1.384 . S
C299 C301 1.479 . S
C299 H317 0.929 . S
C300 C297 1.424 . S
C300 C299 1.384 . S
C300 H318 0.928 . S
C301 C298 1.260 . S
C301 C299 1.479 . S
C302 C297 1.245 . S
C302 C298 1.477 . S
C302 H319 0.932 . S
C303 U286 2.882 . S
C303 C297 1.428 . S
C303 O306 1.301 . S
C303 O307 1.282 . S
O304 U286 2.441 . S
O304 C290 1.249 . S
O305 U286 2.420 . S
O305 C290 1.202 . S
O306 U286 2.455 . S
O306 C303 1.301 . S
O307 U286 2.449 . S
O307 C303 1.282 . S
H308 C281 0.931 1_556 S
H309 C283 0.929 . S
H310 C284 0.930 . S
H311 C285 0.931 . S
H312 C292 0.932 . S
H313 C293 0.930 . S
H314 C294 0.929 . S
H315 C296 0.930 . S
H316 C298 0.932 . S
H317 C299 0.929 . S
H318 C300 0.928 . S
H319 C302 0.932 . S
C320 C321 1.264 . S
C320 C325 1.479 1_545 S
C320 C330 1.465 . S
C321 C320 1.264 . S
C321 C323 1.339 . S
C321 H348 0.931 . S
C322 C323 1.395 . S
C322 C324 1.320 1_545 S
C323 C321 1.339 . S
C323 C322 1.395 . S
C323 H349 0.929 . S
C324 C322 1.320 1_565 S
C324 C325 1.405 . S
C324 H350 0.930 . S
C325 C320 1.479 1_565 S
C325 C324 1.405 . S
C325 H351 0.931 . S
U326 O327 2.454 1_545 S
U326 O328 2.458 1_545 S
U326 C329 2.984 1_545 S
U326 C330 2.847 . S
U326 C343 2.882 . S
U326 O344 2.441 1_545 S
U326 O345 2.420 . S
U326 O346 2.455 . S
U326 O347 2.449 . S
O327 U326 2.454 1_565 S
O327 C329 1.353 . S
O328 U326 2.458 1_565 S
O328 C329 1.286 . S
C329 U326 2.984 1_565 S
C329 O327 1.353 . S
C329 O328 1.286 . S
C329 C331 1.363 . S
C330 C320 1.465 . S
C330 U326 2.847 . S
C330 O344 1.249 1_545 S
C330 O345 1.202 . S
C331 C329 1.363 . S
C331 C333 1.408 . S
C331 C336 1.342 . S
C332 C333 1.310 . S
C332 C335 1.461 . S
C332 H352 0.932 . S
C333 C331 1.408 . S
C333 C332 1.310 . S
C333 H353 0.930 . S
C334 C335 1.474 . S
C334 C336 1.285 . S
C334 H354 0.929 . S
C335 C332 1.461 . S
C335 C334 1.474 . S
C336 C331 1.342 . S
C336 C334 1.285 . S
C336 H355 0.930 . S
C337 C340 1.424 . S
C337 C342 1.245 . S
C337 C343 1.428 . S
C338 C341 1.260 . S
C338 C342 1.477 . S
C338 H356 0.932 . S
C339 C340 1.384 . S
C339 C341 1.479 . S
C339 H357 0.929 . S
C340 C337 1.424 . S
C340 C339 1.384 . S
C340 H358 0.928 . S
C341 C338 1.260 . S
C341 C339 1.479 . S
C342 C337 1.245 . S
C342 C338 1.477 . S
C342 H359 0.932 . S
C343 U326 2.882 . S
C343 C337 1.428 . S
C343 O346 1.301 . S
C343 O347 1.282 . S
O344 U326 2.441 1_565 S
O344 C330 1.249 1_565 S
O345 U326 2.420 . S
O345 C330 1.202 . S
O346 U326 2.455 . S
O346 C343 1.301 . S
O347 U326 2.449 . S
O347 C343 1.282 . S
H348 C321 0.931 . S
H349 C323 0.929 . S
H350 C324 0.930 . S
H351 C325 0.931 . S
H352 C332 0.932 . S
H353 C333 0.930 . S
H354 C334 0.929 . S
H355 C336 0.930 . S
H356 C338 0.932 . S
H357 C339 0.929 . S
H358 C340 0.928 . S
H359 C342 0.932 . S
C360 C361 1.264 . S
C360 C365 1.479 . S
C360 C370 1.465 . S
C361 C360 1.264 . S
C361 C363 1.339 . S
C361 H388 0.931 . S
C362 C363 1.395 . S
C362 C364 1.320 . S
C363 C361 1.339 . S
C363 C362 1.395 . S
C363 H389 0.929 . S
C364 C362 1.320 . S
C364 C365 1.405 . S
C364 H390 0.930 . S
C365 C360 1.479 . S
C365 C364 1.405 . S
C365 H391 0.931 . S
U366 O367 2.454 . S
U366 O368 2.458 . S
U366 C369 2.984 . S
U366 C370 2.847 1_545 S
U366 C383 2.882 . S
U366 O384 2.441 1_545 S
U366 O385 2.420 1_545 S
U366 O386 2.455 . S
U366 O387 2.449 . S
O367 U366 2.454 . S
O367 C369 1.353 . S
O368 U366 2.458 . S
O368 C369 1.286 . S
C369 U366 2.984 . S
C369 O367 1.353 . S
C369 O368 1.286 . S
C369 C371 1.363 . S
C370 C360 1.465 . S
C370 U366 2.847 1_565 S
C370 O384 1.249 . S
C370 O385 1.202 . S
C371 C369 1.363 . S
C371 C373 1.408 . S
C371 C376 1.342 . S
C372 C373 1.310 . S
C372 C375 1.461 . S
C372 H392 0.932 . S
C373 C371 1.408 . S
C373 C372 1.310 . S
C373 H393 0.930 . S
C374 C375 1.474 . S
C374 C376 1.285 . S
C374 H394 0.929 . S
C375 C372 1.461 . S
C375 C374 1.474 . S
C376 C371 1.342 . S
C376 C374 1.285 . S
C376 H395 0.930 . S
C377 C380 1.424 . S
C377 C382 1.245 . S
C377 C383 1.428 . S
C378 C381 1.260 . S
C378 C382 1.477 . S
C378 H396 0.932 . S
C379 C380 1.384 . S
C379 C381 1.479 . S
C379 H397 0.929 . S
C380 C377 1.424 . S
C380 C379 1.384 . S
C380 H398 0.928 . S
C381 C378 1.260 . S
C381 C379 1.479 . S
C382 C377 1.245 . S
C382 C378 1.477 . S
C382 H399 0.932 . S
C383 U366 2.882 . S
C383 C377 1.428 . S
C383 O386 1.301 . S
C383 O387 1.282 . S
O384 U366 2.441 1_565 S
O384 C370 1.249 . S
O385 U366 2.420 1_565 S
O385 C370 1.202 . S
O386 U366 2.455 . S
O386 C383 1.301 . S
O387 U366 2.449 . S
O387 C383 1.282 . S
H388 C361 0.931 . S
H389 C363 0.929 . S
H390 C364 0.930 . S
H391 C365 0.931 . S
H392 C372 0.932 . S
H393 C373 0.930 . S
H394 C374 0.929 . S
H395 C376 0.930 . S
H396 C378 0.932 . S
H397 C379 0.929 . S
H398 C380 0.928 . S
H399 C382 0.932 . S
C400 C401 1.264 . S
C400 C405 1.479 . S
C400 C410 1.465 . S
C401 C400 1.264 . S
C401 C403 1.339 . S
C401 H428 0.931 . S
C402 C403 1.395 . S
C402 C404 1.320 . S
C403 C401 1.339 . S
C403 C402 1.395 . S
C403 H429 0.929 . S
C404 C402 1.320 . S
C404 C405 1.405 . S
C404 H430 0.930 . S
C405 C400 1.479 . S
C405 C404 1.405 . S
C405 H431 0.931 . S
U406 O407 2.454 . S
U406 O408 2.458 . S
U406 C409 2.984 . S
U406 C410 2.847 1_565 S
U406 C423 2.882 . S
U406 O424 2.491 . S
U406 O425 2.420 . S
U406 O426 2.455 . S
U406 O427 2.449 . S
O407 U406 2.454 . S
O407 C409 1.353 . S
O408 U406 2.458 . S
O408 C409 1.286 . S
C409 U406 2.984 . S
C409 O407 1.353 . S
C409 O408 1.286 . S
C409 C411 1.363 . S
C410 C400 1.465 . S
C410 U406 2.847 1_545 S
C410 O424 1.231 1_545 S
C410 O425 1.202 1_545 S
C411 C409 1.363 . S
C411 C413 1.408 . S
C411 C416 1.342 . S
C412 C413 1.310 . S
C412 C415 1.461 . S
C412 H432 0.932 . S
C413 C411 1.408 . S
C413 C412 1.310 . S
C413 H433 0.930 . S
C414 C415 1.474 . S
C414 C416 1.285 . S
C414 H434 0.929 . S
C415 C412 1.461 . S
C415 C414 1.474 . S
C416 C411 1.342 . S
C416 C414 1.285 . S
C416 H435 0.930 . S
C417 C420 1.424 . S
C417 C422 1.245 . S
C417 C423 1.428 . S
C418 C421 1.260 . S
C418 C422 1.477 . S
C418 H436 0.932 . S
C419 C420 1.384 . S
C419 C421 1.479 . S
C419 H437 0.929 . S
C420 C417 1.424 . S
C420 C419 1.384 . S
C420 H438 0.928 . S
C421 C418 1.260 . S
C421 C419 1.479 . S
C422 C417 1.245 . S
C422 C418 1.477 . S
C422 H439 0.932 . S
C423 U406 2.882 . S
C423 C417 1.428 . S
C423 O426 1.301 . S
C423 O427 1.282 . S
O424 U406 2.491 . S
O424 C410 1.231 1_565 S
O425 U406 2.420 . S
O425 C410 1.202 1_565 S
O426 U406 2.455 . S
O426 C423 1.301 . S
O427 U406 2.449 . S
O427 C423 1.282 . S
H428 C401 0.931 . S
H429 C403 0.929 . S
H430 C404 0.930 . S
H431 C405 0.931 . S
H432 C412 0.932 . S
H433 C413 0.930 . S
H434 C414 0.929 . S
H435 C416 0.930 . S
H436 C418 0.932 . S
H437 C419 0.929 . S
H438 C420 0.928 . S
H439 C422 0.932 . S
C440 C441 1.264 . S
C440 C445 1.479 . S
C440 C450 1.465 . S
C441 C440 1.264 . S
C441 C443 1.339 . S
C441 H468 0.931 . S
C442 C443 1.395 . S
C442 C444 1.320 . S
C443 C441 1.339 . S
C443 C442 1.395 . S
C443 H469 0.929 . S
C444 C442 1.320 . S
C444 C445 1.405 . S
C444 H470 0.985 . S
C445 C440 1.479 . S
C445 C444 1.405 . S
C445 H471 0.931 1_565 S
U446 O447 2.444 1_565 S
U446 O448 2.451 1_565 S
U446 C449 2.975 1_565 S
U446 C450 2.849 . S
U446 C463 2.890 . S
U446 O464 2.438 1_565 S
U446 O465 2.426 . S
U446 O466 2.459 . S
U446 O467 2.459 . S
O447 U446 2.444 1_545 S
O447 C449 1.353 . S
O448 U446 2.451 1_545 S
O448 C449 1.286 . S
C449 U446 2.975 1_545 S
C449 O447 1.353 . S
C449 O448 1.286 . S
C449 C451 1.363 . S
C450 C440 1.465 . S
C450 U446 2.849 . S
C450 O464 1.249 1_565 S
C450 O465 1.202 . S
C451 C449 1.363 . S
C451 C453 1.408 . S
C451 C456 1.342 . S
C452 C453 1.310 . S
C452 C455 1.461 . S
C452 H472 0.932 . S
C453 C451 1.408 . S
C453 C452 1.310 . S
C453 H473 0.930 . S
C454 C455 1.474 . S
C454 C456 1.285 . S
C454 H474 0.929 . S
C455 C452 1.461 . S
C455 C454 1.474 . S
C456 C451 1.342 . S
C456 C454 1.285 . S
C456 H475 0.930 . S
C457 C460 1.424 . S
C457 C462 1.245 . S
C457 C463 1.428 . S
C458 C461 1.260 . S
C458 C462 1.477 . S
C458 H476 0.932 . S
C459 C460 1.384 . S
C459 C461 1.479 . S
C459 H477 0.929 . S
C460 C457 1.424 . S
C460 C459 1.384 . S
C460 H478 0.928 . S
C461 C458 1.260 . S
C461 C459 1.479 . S
C462 C457 1.245 . S
C462 C458 1.477 . S
C462 H479 0.932 . S
C463 U446 2.890 . S
C463 C457 1.428 . S
C463 O466 1.301 . S
C463 O467 1.282 . S
O464 U446 2.438 1_545 S
O464 C450 1.249 1_545 S
O465 U446 2.426 . S
O465 C450 1.202 . S
O466 U446 2.459 . S
O466 C463 1.301 . S
O467 U446 2.459 . S
O467 C463 1.282 . S
H468 C441 0.931 . S
H469 C443 0.929 . S
H470 C444 0.985 . S
H471 C445 0.931 1_545 S
H472 C452 0.932 . S
H473 C453 0.930 . S
H474 C454 0.929 . S
H475 C456 0.930 . S
H476 C458 0.932 . S
H477 C459 0.929 . S
H478 C460 0.928 . S
H479 C462 0.932 . S
C480 C481 1.264 . S
C480 C485 1.479 . S
C480 C490 1.465 . S
C481 C480 1.264 . S
C481 C483 1.339 . S
C481 H508 0.931 . S
C482 C483 1.395 . S
C482 C484 1.320 . S
C483 C481 1.339 . S
C483 C482 1.395 . S
C483 H509 0.929 . S
C484 C482 1.320 . S
C484 C485 1.405 . S
C484 H510 0.930 . S
C485 C480 1.479 . S
C485 C484 1.405 . S
C485 H511 0.931 . S
U486 O487 2.454 . S
U486 O488 2.458 . S
U486 C489 2.984 . S
U486 C490 2.847 . S
U486 C503 2.882 . S
U486 O504 2.441 . S
U486 O505 2.420 . S
U486 O506 2.455 . S
U486 O507 2.449 . S
O487 U486 2.454 . S
O487 C489 1.353 . S
O488 U486 2.458 . S
O488 C489 1.286 . S
C489 U486 2.984 . S
C489 O487 1.353 . S
C489 O488 1.286 . S
C489 C491 1.363 . S
C490 C480 1.465 . S
C490 U486 2.847 . S
C490 O504 1.249 . S
C490 O505 1.202 . S
C491 C489 1.363 . S
C491 C493 1.408 1_554 S
C491 C496 1.341 . S
C492 C493 1.310 . S
C492 C495 1.461 . S
C492 H512 0.932 . S
C493 C491 1.408 1_556 S
C493 C492 1.310 . S
C493 H513 0.930 . S
C494 C495 1.474 . S
C494 C496 1.290 1_556 S
C494 H514 0.929 . S
C495 C492 1.461 . S
C495 C494 1.474 . S
C496 C491 1.341 . S
C496 C494 1.290 1_554 S
C496 H515 0.927 . S
C497 C500 1.424 . S
C497 C502 1.245 . S
C497 C503 1.428 . S
C498 C501 1.260 . S
C498 C502 1.477 . S
C498 H516 0.932 . S
C499 C500 1.384 . S
C499 C501 1.479 . S
C499 H517 0.929 . S
C500 C497 1.424 . S
C500 C499 1.384 . S
C500 H518 0.928 . S
C501 C498 1.260 . S
C501 C499 1.479 . S
C502 C497 1.245 . S
C502 C498 1.477 . S
C502 H519 0.932 . S
C503 U486 2.882 . S
C503 C497 1.428 . S
C503 O506 1.301 . S
C503 O507 1.282 . S
O504 U486 2.441 . S
O504 C490 1.249 . S
O505 U486 2.420 . S
O505 C490 1.202 . S
O506 U486 2.455 . S
O506 C503 1.301 . S
O507 U486 2.449 . S
O507 C503 1.282 . S
H508 C481 0.931 . S
H509 C483 0.929 . S
H510 C484 0.930 . S
H511 C485 0.931 . S
H512 C492 0.932 . S
H513 C493 0.930 . S
H514 C494 0.929 . S
H515 C496 0.927 . S
H516 C498 0.932 . S
H517 C499 0.929 . S
H518 C500 0.928 . S
H519 C502 0.932 . S
C520 C521 1.264 . S
C520 C525 1.479 . S
C520 C530 1.465 . S
C521 C520 1.264 . S
C521 C523 1.339 . S
C521 H548 0.931 . S
C522 C523 1.395 . S
C522 C524 1.320 . S
C523 C521 1.339 . S
C523 C522 1.395 . S
C523 H549 0.929 . S
C524 C522 1.320 . S
C524 C525 1.405 . S
C524 H550 0.930 . S
C525 C520 1.479 . S
C525 C524 1.405 . S
C525 H551 0.931 . S
U526 O527 2.464 . S
U526 O528 2.458 . S
U526 C529 2.984 . S
U526 C530 2.847 1_655 S
U526 C543 2.882 . S
U526 O544 2.441 1_655 S
U526 O545 2.420 1_655 S
U526 O546 2.455 . S
U526 O547 2.449 . S
O527 U526 2.464 . S
O527 C529 1.414 . S
O528 U526 2.458 . S
O528 C529 1.286 . S
C529 U526 2.984 . S
C529 O527 1.414 . S
C529 O528 1.286 . S
C529 C531 1.363 . S
C530 C520 1.465 . S
C530 U526 2.847 1_455 S
C530 O544 1.249 . S
C530 O545 1.202 . S
C531 C529 1.363 . S
C531 C533 1.408 . S
C531 C536 1.342 . S
C532 C533 1.310 . S
C532 C535 1.461 . S
C532 H552 0.932 . S
C533 C531 1.408 . S
C533 C532 1.310 . S
C533 H553 0.930 1_655 S
C534 C535 1.474 . S
C534 C536 1.285 . S
C534 H554 0.929 . S
C535 C532 1.461 . S
C535 C534 1.474 . S
C536 C531 1.342 . S
C536 C534 1.285 . S
C536 H555 0.930 . S
C537 C540 1.424 . S
C537 C542 1.245 . S
C537 C543 1.428 . S
C538 C541 1.260 . S
C538 C542 1.477 . S
C538 H556 0.932 . S
C539 C540 1.384 . S
C539 C541 1.479 . S
C539 H557 0.929 . S
C540 C537 1.424 . S
C540 C539 1.384 . S
C540 H558 0.928 . S
C541 C538 1.260 . S
C541 C539 1.479 . S
C542 C537 1.245 . S
C542 C538 1.477 . S
C542 H559 0.932 . S
C543 U526 2.882 . S
C543 C537 1.428 . S
C543 O546 1.301 . S
C543 O547 1.282 . S
O544 U526 2.441 1_455 S
O544 C530 1.249 . S
O545 U526 2.420 1_455 S
O545 C530 1.202 . S
O546 U526 2.455 . S
O546 C543 1.301 . S
O547 U526 2.449 . S
O547 C543 1.282 . S
H548 C521 0.931 . S
H549 C523 0.929 . S
H550 C524 0.930 . S
H551 C525 0.931 . S
H552 C532 0.932 . S
H553 C533 0.930 1_455 S
H554 C534 0.929 . S
H555 C536 0.930 . S
H556 C538 0.932 . S
H557 C539 0.929 . S
H558 C540 0.928 . S
H559 C542 0.932 . S
C560 C561 1.264 . S
C560 C565 1.479 . S
C560 C570 1.465 . S
C561 C560 1.264 . S
C561 C563 1.339 . S
C561 H588 0.931 . S
C562 C563 1.395 . S
C562 C564 1.320 . S
C563 C561 1.339 . S
C563 C562 1.395 . S
C563 H589 0.929 . S
C564 C562 1.320 . S
C564 C565 1.405 . S
C564 H590 0.930 . S
C565 C560 1.479 . S
C565 C564 1.405 . S
C565 H591 0.931 . S
U566 O567 2.454 . S
U566 O568 2.458 . S
U566 C569 2.984 . S
U566 C570 2.847 . S
U566 C583 2.882 . S
U566 O584 2.441 . S
U566 O585 2.420 . S
U566 O586 2.455 . S
U566 O587 2.449 . S
O567 U566 2.454 . S
O567 C569 1.353 . S
O568 U566 2.458 . S
O568 C569 1.286 . S
C569 U566 2.984 . S
C569 O567 1.353 . S
C569 O568 1.286 . S
C569 C571 1.363 . S
C570 C560 1.465 . S
C570 U566 2.847 . S
C570 O584 1.249 . S
C570 O585 1.202 . S
C571 C569 1.363 . S
C571 C573 1.408 . S
C571 C576 1.342 . S
C572 C573 1.310 . S
C572 C575 1.461 . S
C572 H592 0.932 . S
C573 C571 1.408 . S
C573 C572 1.310 . S
C573 H593 0.930 . S
C574 C575 1.474 . S
C574 C576 1.285 . S
C574 H594 0.929 . S
C575 C572 1.461 . S
C575 C574 1.474 . S
C576 C571 1.342 . S
C576 C574 1.285 . S
C576 H595 0.930 . S
C577 C580 1.424 . S
C577 C582 1.245 . S
C577 C583 1.428 . S
C578 C581 1.260 . S
C578 C582 1.477 . S
C578 H596 0.932 . S
C579 C580 1.384 . S
C579 C581 1.479 . S
C579 H597 0.929 . S
C580 C577 1.424 . S
C580 C579 1.384 . S
C580 H598 0.928 . S
C581 C578 1.260 . S
C581 C579 1.479 . S
C582 C577 1.245 . S
C582 C578 1.477 . S
C582 H599 0.932 . S
C583 U566 2.882 . S
C583 C577 1.428 . S
C583 O586 1.301 . S
C583 O587 1.282 . S
O584 U566 2.441 . S
O584 C570 1.249 . S
O585 U566 2.420 . S
O585 C570 1.202 . S
O586 U566 2.455 . S
O586 C583 1.301 . S
O587 U566 2.449 . S
O587 C583 1.282 . S
H588 C561 0.931 . S
H589 C563 0.929 . S
H590 C564 0.930 . S
H591 C565 0.931 . S
H592 C572 0.932 . S
H593 C573 0.930 . S
H594 C574 0.929 . S
H595 C576 0.930 . S
H596 C578 0.932 . S
H597 C579 0.929 . S
H598 C580 0.928 . S
H599 C582 0.932 . S
C600 C601 1.264 . S
C600 C605 1.479 . S
C600 C610 1.465 . S
C601 C600 1.264 . S
C601 C603 1.339 . S
C601 H628 0.931 . S
C602 C603 1.395 . S
C602 C604 1.320 . S
C603 C601 1.339 . S
C603 C602 1.395 . S
C603 H629 0.929 . S
C604 C602 1.320 . S
C604 C605 1.405 . S
C604 H630 0.930 . S
C605 C600 1.479 . S
C605 C604 1.405 . S
C605 H631 0.931 1_655 S
U606 O607 2.454 . S
U606 O608 2.458 . S
U606 C609 2.984 . S
U606 C610 2.847 1_455 S
U606 C623 2.882 1_455 S
U606 O624 2.441 . S
U606 O625 2.420 1_455 S
U606 O626 2.455 . S
U606 O627 2.449 1_455 S
O607 U606 2.454 . S
O607 C609 1.353 . S
O608 U606 2.458 . S
O608 C609 1.286 . S
C609 U606 2.984 . S
C609 O607 1.353 . S
C609 O608 1.286 . S
C609 C611 1.363 . S
C610 C600 1.465 . S
C610 U606 2.847 1_655 S
C610 O624 1.249 1_655 S
C610 O625 1.202 . S
C611 C609 1.363 . S
C611 C613 1.408 . S
C611 C616 1.342 . S
C612 C613 1.310 . S
C612 C615 1.461 . S
C612 H632 0.932 . S
C613 C611 1.408 . S
C613 C612 1.310 . S
C613 H633 0.930 . S
C614 C615 1.474 . S
C614 C616 1.285 . S
C614 H634 0.929 . S
C615 C612 1.461 . S
C615 C614 1.474 . S
C616 C611 1.342 . S
C616 C614 1.285 . S
C616 H635 0.930 . S
C617 C620 1.424 . S
C617 C622 1.245 . S
C617 C623 1.428 . S
C618 C621 1.260 . S
C618 C622 1.477 . S
C618 H636 0.932 . S
C619 C620 1.384 . S
C619 C621 1.479 . S
C619 H637 0.929 . S
C620 C617 1.424 . S
C620 C619 1.384 . S
C620 H638 0.928 . S
C621 C618 1.260 . S
C621 C619 1.479 . S
C622 C617 1.245 . S
C622 C618 1.477 . S
C622 H639 0.932 . S
C623 U606 2.882 1_655 S
C623 C617 1.428 . S
C623 O626 1.301 1_655 S
C623 O627 1.282 . S
O624 U606 2.441 . S
O624 C610 1.249 1_455 S
O625 U606 2.420 1_655 S
O625 C610 1.202 . S
O626 U606 2.455 . S
O626 C623 1.301 1_455 S
O627 U606 2.449 1_655 S
O627 C623 1.282 . S
H628 C601 0.931 . S
H629 C603 0.929 . S
H630 C604 0.930 . S
H631 C605 0.931 1_455 S
H632 C612 0.932 . S
H633 C613 0.930 . S
H634 C614 0.929 . S
H635 C616 0.930 . S
H636 C618 0.932 . S
H637 C619 0.929 . S
H638 C620 0.928 . S
H639 C622 0.932 . S
C640 C641 1.264 . S
C640 C645 1.479 . S
C640 C650 1.465 . S
C641 C640 1.264 . S
C641 C643 1.339 . S
C641 H668 0.931 . S
C642 C643 1.395 . S
C642 C644 1.320 . S
C643 C641 1.339 . S
C643 C642 1.395 . S
C643 H669 0.929 . S
C644 C642 1.320 . S
C644 C645 1.405 . S
C644 H670 0.930 . S
C645 C640 1.479 . S
C645 C644 1.405 . S
C645 H671 0.931 . S
U646 O647 2.454 . S
U646 O648 2.458 . S
U646 C649 2.984 . S
U646 C650 2.847 . S
U646 C663 2.882 . S
U646 O664 2.441 . S
U646 O665 2.420 . S
U646 O666 2.455 . S
U646 O667 2.449 . S
O647 U646 2.454 . S
O647 C649 1.353 . S
O648 U646 2.458 . S
O648 C649 1.286 . S
C649 U646 2.984 . S
C649 O647 1.353 . S
C649 O648 1.286 . S
C649 C651 1.363 . S
C650 C640 1.465 . S
C650 U646 2.847 . S
C650 O664 1.249 . S
C650 O665 1.202 . S
C651 C649 1.363 . S
C651 C653 1.408 . S
C651 C656 1.342 . S
C652 C653 1.310 . S
C652 C655 1.461 . S
C652 H672 0.932 . S
C653 C651 1.408 . S
C653 C652 1.310 . S
C653 H673 0.930 . S
C654 C655 1.474 . S
C654 C656 1.285 . S
C654 H674 0.929 . S
C655 C652 1.461 . S
C655 C654 1.474 . S
C656 C651 1.342 . S
C656 C654 1.285 . S
C656 H675 0.930 . S
C657 C660 1.424 . S
C657 C662 1.245 . S
C657 C663 1.428 . S
C658 C661 1.260 . S
C658 C662 1.477 . S
C658 H676 0.932 . S
C659 C660 1.384 . S
C659 C661 1.479 . S
C659 H677 0.929 . S
C660 C657 1.424 . S
C660 C659 1.384 . S
C660 H678 0.928 . S
C661 C658 1.260 . S
C661 C659 1.479 . S
C662 C657 1.245 . S
C662 C658 1.477 . S
C662 H679 0.932 . S
C663 U646 2.882 . S
C663 C657 1.428 . S
C663 O666 1.301 . S
C663 O667 1.282 . S
O664 U646 2.441 . S
O664 C650 1.249 . S
O665 U646 2.420 . S
O665 C650 1.202 . S
O666 U646 2.455 . S
O666 C663 1.301 . S
O667 U646 2.449 . S
O667 C663 1.282 . S
H668 C641 0.931 . S
H669 C643 0.929 . S
H670 C644 0.930 . S
H671 C645 0.931 . S
H672 C652 0.932 . S
H673 C653 0.930 . S
H674 C654 0.929 . S
H675 C656 0.930 . S
H676 C658 0.932 . S
H677 C659 0.929 . S
H678 C660 0.928 . S
H679 C662 0.932 . S
C680 C681 1.264 . S
C680 C685 1.479 . S
C680 C690 1.465 . S
C681 C680 1.264 . S
C681 C683 1.339 . S
C681 H708 0.931 . S
C682 C683 1.395 . S
C682 C684 1.320 . S
C683 C681 1.339 . S
C683 C682 1.395 . S
C683 H709 0.929 . S
C684 C682 1.320 . S
C684 C685 1.405 . S
C684 H710 0.930 . S
C685 C680 1.479 . S
C685 C684 1.405 . S
C685 H711 0.931 . S
U686 O687 2.454 . S
U686 O688 2.458 . S
U686 C689 2.984 . S
U686 C690 2.847 . S
U686 C703 2.882 . S
U686 O704 2.441 . S
U686 O705 2.420 . S
U686 O706 2.455 . S
U686 O707 2.449 . S
O687 U686 2.454 . S
O687 C689 1.353 . S
O688 U686 2.458 . S
O688 C689 1.286 . S
C689 U686 2.984 . S
C689 O687 1.353 . S
C689 O688 1.286 . S
C689 C691 1.363 . S
C690 C680 1.465 . S
C690 U686 2.847 . S
C690 O704 1.249 . S
C690 O705 1.202 . S
C691 C689 1.363 . S
C691 C693 1.408 . S
C691 C696 1.342 . S
C692 C693 1.310 . S
C692 C695 1.461 . S
C692 H712 0.932 . S
C693 C691 1.408 . S
C693 C692 1.310 . S
C693 H713 0.930 . S
C694 C695 1.474 . S
C694 C696 1.285 . S
C694 H714 0.929 . S
C695 C692 1.461 . S
C695 C694 1.474 . S
C696 C691 1.342 . S
C696 C694 1.285 . S
C696 H715 0.930 . S
C697 C700 1.424 . S
C697 C702 1.245 . S
C697 C703 1.428 . S
C698 C701 1.260 . S
C698 C702 1.477 . S
C698 H716 0.932 . S
C699 C700 1.384 . S
C699 C701 1.479 . S
C699 H717 0.929 . S
C700 C697 1.424 . S
C700 C699 1.384 . S
C700 H718 0.928 . S
C701 C698 1.260 . S
C701 C699 1.479 . S
C702 C697 1.245 . S
C702 C698 1.477 . S
C702 H719 0.932 . S
C703 U686 2.882 . S
C703 C697 1.428 . S
C703 O706 1.301 . S
C703 O707 1.282 . S
O704 U686 2.441 . S
O704 C690 1.249 . S
O705 U686 2.420 . S
O705 C690 1.202 . S
O706 U686 2.455 . S
O706 C703 1.301 . S
O707 U686 2.449 . S
O707 C703 1.282 . S
H708 C681 0.931 . S
H709 C683 0.929 . S
H710 C684 0.930 . S
H711 C685 0.931 . S
H712 C692 0.932 . S
H713 C693 0.930 . S
H714 C694 0.929 . S
H715 C696 0.930 . S
H716 C698 0.932 . S
H717 C699 0.929 . S
H718 C700 0.928 . S
H719 C702 0.932 . S
C720 C721 1.264 . S
C720 C725 1.479 . S
C720 C730 1.465 . S
C721 C720 1.264 . S
C721 C723 1.339 . S
C721 H748 0.931 . S
C722 C723 1.395 . S
C722 C724 1.320 . S
C723 C721 1.339 . S
C723 C722 1.395 . S
C723 H749 0.929 . S
C724 C722 1.320 . S
C724 C725 1.405 . S
C724 H750 0.930 . S
C725 C720 1.479 . S
C725 C724 1.405 . S
C725 H751 0.931 . S
U726 O727 2.454 . S
U726 O728 2.458 . S
U726 C729 2.984 . S
U726 C730 2.847 . S
U726 C743 2.882 . S
U726 O744 2.441 . S
U726 O745 2.420 . S
U726 O746 2.455 . S
U726 O747 2.449 . S
O727 U726 2.454 . S
O727 C729 1.353 . S
O728 U726 2.458 . S
O728 C729 1.286 . S
C729 U726 2.984 . S
C729 O727 1.353 . S
C729 O728 1.286 . S
C729 C731 1.363 1_556 S
C730 C720 1.465 . S
C730 U726 2.847 . S
C730 O744 1.249 . S
C730 O745 1.202 . S
C731 C729 1.363 1_554 S
C731 C733 1.408 . S
C731 C736 1.342 . S
C732 C733 1.310 . S
C732 C735 1.461 . S
C732 H752 0.932 . S
C733 C731 1.408 . S
C733 C732 1.310 . S
C733 H753 0.930 . S
C734 C735 1.474 . S
C734 C736 1.285 . S
C734 H754 0.929 . S
C735 C732 1.461 . S
C735 C734 1.474 . S
C736 C731 1.342 . S
C736 C734 1.285 . S
C736 H755 0.979 . S
C737 C740 1.424 . S
C737 C742 1.245 . S
C737 C743 1.428 . S
C738 C741 1.260 . S
C738 C742 1.477 . S
C738 H756 0.932 . S
C739 C740 1.384 . S
C739 C741 1.479 . S
C739 H757 0.929 . S
C740 C737 1.424 . S
C740 C739 1.384 . S
C740 H758 0.928 . S
C741 C738 1.260 . S
C741 C739 1.479 . S
C742 C737 1.245 . S
C742 C738 1.477 . S
C742 H759 0.932 . S
C743 U726 2.882 . S
C743 C737 1.428 . S
C743 O746 1.301 . S
C743 O747 1.282 . S
O744 U726 2.441 . S
O744 C730 1.249 . S
O745 U726 2.420 . S
O745 C730 1.202 . S
O746 U726 2.455 . S
O746 C743 1.301 . S
O747 U726 2.449 . S
O747 C743 1.282 . S
H748 C721 0.931 . S
H749 C723 0.929 . S
H750 C724 0.930 . S
H751 C725 0.931 . S
H752 C732 0.932 . S
H753 C733 0.930 . S
H754 C734 0.929 . S
H755 C736 0.979 . S
H756 C738 0.932 . S
H757 C739 0.929 . S
H758 C740 0.928 . S
H759 C742 0.932 . S
C760 C761 1.264 . S
C760 C765 1.479 . S
C760 C770 1.465 1_455 S
C761 C760 1.264 . S
C761 C763 1.339 . S
C761 H788 0.931 . S
C762 C763 1.395 . S
C762 C764 1.320 . S
C763 C761 1.339 . S
C763 C762 1.395 . S
C763 H789 0.929 . S
C764 C762 1.320 . S
C764 C765 1.405 . S
C764 H790 0.930 . S
C765 C760 1.479 . S
C765 C764 1.405 . S
C765 H791 0.931 . S
U766 O767 2.454 . S
U766 O768 2.458 . S
U766 C769 2.984 . S
U766 C770 2.847 . S
U766 C783 2.882 . S
U766 O784 2.441 . S
U766 O785 2.420 . S
U766 O786 2.455 . S
U766 O787 2.449 . S
O767 U766 2.454 . S
O767 C769 1.353 . S
O768 U766 2.458 . S
O768 C769 1.286 . S
C769 U766 2.984 . S
C769 O767 1.353 . S
C769 O768 1.286 . S
C769 C771 1.363 . S
C770 C760 1.465 1_655 S
C770 U766 2.847 . S
C770 O784 1.249 . S
C770 O785 1.202 . S
C771 C769 1.363 . S
C771 C773 1.408 . S
C771 C776 1.342 . S
C772 C773 1.310 . S
C772 C775 1.461 . S
C772 H792 0.932 . S
C773 C771 1.408 . S
C773 C772 1.310 . S
C773 H793 0.930 . S
C774 C775 1.474 . S
C774 C776 1.285 . S
C774 H794 0.929 . S
C775 C772 1.461 . S
C775 C774 1.474 . S
C776 C771 1.342 . S
C776 C774 1.285 . S
C776 H795 0.930 . S
C777 C780 1.424 . S
C777 C782 1.245 . S
C777 C783 1.428 . S
C778 C781 1.260 . S
C778 C782 1.477 . S
C778 H796 0.932 . S
C779 C780 1.384 . S
C779 C781 1.479 . S
C779 H797 0.929 . S
C780 C777 1.424 . S
C780 C779 1.384 . S
C780 H798 0.928 . S
C781 C778 1.260 . S
C781 C779 1.479 . S
C782 C777 1.245 . S
C782 C778 1.477 . S
C782 H799 0.932 . S
C783 U766 2.882 . S
C783 C777 1.428 . S
C783 O786 1.301 . S
C783 O787 1.282 . S
O784 U766 2.441 . S
O784 C770 1.249 . S
O785 U766 2.420 . S
O785 C770 1.202 . S
O786 U766 2.455 . S
O786 C783 1.301 . S
O787 U766 2.449 . S
O787 C783 1.282 . S
H788 C761 0.931 . S
H789 C763 0.929 . S
H790 C764 0.930 . S
H791 C765 0.931 . S
H792 C772 0.932 . S
H793 C773 0.930 . S
H794 C774 0.929 . S
H795 C776 0.930 . S
H796 C778 0.932 . S
H797 C779 0.929 . S
H798 C780 0.928 . S
H799 C782 0.932 . S
C800 C801 1.264 . S
C800 C805 1.479 . S
C800 C810 1.465 . S
C801 C800 1.264 . S
C801 C803 1.339 . S
C801 H828 0.931 . S
C802 C803 1.395 . S
C802 C804 1.320 . S
C803 C801 1.339 . S
C803 C802 1.395 . S
C803 H829 0.929 . S
C804 C802 1.320 . S
C804 C805 1.405 . S
C804 H830 0.930 . S
C805 C800 1.479 . S
C805 C804 1.405 . S
C805 H831 0.931 . S
U806 O807 2.454 . S
U806 O808 2.458 . S
U806 C809 2.984 . S
U806 C810 2.847 . S
U806 C823 2.882 . S
U806 O824 2.441 . S
U806 O825 2.420 . S
U806 O826 2.455 . S
U806 O827 2.449 . S
O807 U806 2.454 . S
O807 C809 1.353 . S
O808 U806 2.458 . S
O808 C809 1.286 . S
C809 U806 2.984 . S
C809 O807 1.353 . S
C809 O808 1.286 . S
C809 C811 1.363 . S
C810 C800 1.465 . S
C810 U806 2.847 . S
C810 O824 1.249 . S
C810 O825 1.202 . S
C811 C809 1.363 . S
C811 C813 1.408 . S
C811 C816 1.342 . S
C812 C813 1.310 . S
C812 C815 1.461 . S
C812 H832 0.932 . S
C813 C811 1.408 . S
C813 C812 1.310 . S
C813 H833 0.930 . S
C814 C815 1.474 . S
C814 C816 1.285 . S
C814 H834 0.929 . S
C815 C812 1.461 . S
C815 C814 1.474 . S
C816 C811 1.342 . S
C816 C814 1.285 . S
C816 H835 0.930 . S
C817 C820 1.424 . S
C817 C822 1.245 . S
C817 C823 1.428 . S
C818 C821 1.260 . S
C818 C822 1.477 . S
C818 H836 0.932 . S
C819 C820 1.384 . S
C819 C821 1.479 . S
C819 H837 0.929 . S
C820 C817 1.424 . S
C820 C819 1.384 . S
C820 H838 0.928 . S
C821 C818 1.260 . S
C821 C819 1.479 . S
C822 C817 1.245 . S
C822 C818 1.477 . S
C822 H839 0.932 . S
C823 U806 2.882 . S
C823 C817 1.428 . S
C823 O826 1.301 . S
C823 O827 1.282 . S
O824 U806 2.441 . S
O824 C810 1.249 . S
O825 U806 2.420 . S
O825 C810 1.202 . S
O826 U806 2.455 . S
O826 C823 1.301 . S
O827 U806 2.449 . S
O827 C823 1.282 . S
H828 C801 0.931 . S
H829 C803 0.929 . S
H830 C804 0.930 . S
H831 C805 0.931 . S
H832 C812 0.932 . S
H833 C813 0.930 . S
H834 C814 0.929 . S
H835 C816 0.930 . S
H836 C818 0.932 . S
H837 C819 0.929 . S
H838 C820 0.928 . S
H839 C822 0.932 . S
C840 C841 1.264 . S
C840 C845 1.479 . S
C840 C850 1.465 . S
C841 C840 1.264 . S
C841 C843 1.339 . S
C841 H868 0.931 . S
C842 C843 1.395 . S
C842 C844 1.320 . S
C843 C841 1.339 . S
C843 C842 1.395 . S
C843 H869 0.929 . S
C844 C842 1.320 . S
C844 C845 1.405 . S
C844 H870 0.930 . S
C845 C840 1.479 . S
C845 C844 1.405 . S
C845 H871 0.931 . S
U846 O847 2.454 . S
U846 O848 2.458 . S
U846 C849 2.984 . S
U846 C850 2.847 . S
U846 C863 2.882 . S
U846 O864 2.441 . S
U846 O865 2.420 . S
U846 O866 2.455 . S
U846 O867 2.449 . S
O847 U846 2.454 . S
O847 C849 1.353 . S
O848 U846 2.458 . S
O848 C849 1.286 . S
C849 U846 2.984 . S
C849 O847 1.353 . S
C849 O848 1.286 . S
C849 C851 1.363 . S
C850 C840 1.465 . S
C850 U846 2.847 . S
C850 O864 1.249 . S
C850 O865 1.202 . S
C851 C849 1.363 . S
C851 C853 1.408 . S
C851 C856 1.342 . S
C852 C853 1.310 . S
C852 C855 1.461 . S
C852 H872 0.932 . S
C853 C851 1.408 . S
C853 C852 1.310 . S
C853 H873 0.930 . S
C854 C855 1.474 . S
C854 C856 1.285 . S
C854 H874 0.929 . S
C855 C852 1.461 . S
C855 C854 1.474 . S
C856 C851 1.342 . S
C856 C854 1.285 . S
C856 H875 0.930 . S
C857 C860 1.424 . S
C857 C862 1.245 . S
C857 C863 1.428 . S
C858 C861 1.260 . S
C858 C862 1.477 . S
C858 H876 0.932 . S
C859 C860 1.384 . S
C859 C861 1.479 . S
C859 H877 0.929 . S
C860 C857 1.424 . S
C860 C859 1.384 . S
C860 H878 0.928 . S
C861 C858 1.260 . S
C861 C859 1.479 . S
C862 C857 1.245 . S
C862 C858 1.477 . S
C862 H879 0.932 . S
C863 U846 2.882 . S
C863 C857 1.428 . S
C863 O866 1.301 . S
C863 O867 1.282 . S
O864 U846 2.441 . S
O864 C850 1.249 . S
O865 U846 2.420 . S
O865 C850 1.202 . S
O866 U846 2.455 . S
O866 C863 1.301 . S
O867 U846 2.449 . S
O867 C863 1.282 . S
H868 C841 0.931 . S
H869 C843 0.929 . S
H870 C844 0.930 . S
H871 C845 0.931 . S
H872 C852 0.932 . S
H873 C853 0.930 . S
H874 C854 0.929 . S
H875 C856 0.930 . S
H876 C858 0.932 . S
H877 C859 0.929 . S
H878 C860 0.928 . S
H879 C862 0.932 . S
C880 C881 1.264 . S
C880 C885 1.479 . S
C880 C890 1.465 . S
C881 C880 1.264 . S
C881 C883 1.339 . S
C881 H908 0.931 . S
C882 C883 1.395 . S
C882 C884 1.320 . S
C883 C881 1.339 . S
C883 C882 1.395 . S
C883 H909 0.929 . S
C884 C882 1.320 . S
C884 C885 1.405 . S
C884 H910 0.930 . S
C885 C880 1.479 . S
C885 C884 1.405 . S
C885 H911 0.931 . S
U886 O887 2.454 . S
U886 O888 2.458 . S
U886 C889 2.984 . S
U886 C890 2.847 . S
U886 C903 2.882 . S
U886 O904 2.441 . S
U886 O905 2.420 . S
U886 O906 2.455 . S
U886 O907 2.449 . S
O887 U886 2.454 . S
O887 C889 1.353 . S
O888 U886 2.458 . S
O888 C889 1.286 . S
C889 U886 2.984 . S
C889 O887 1.353 . S
C889 O888 1.286 . S
C889 C891 1.363 . S
C890 C880 1.465 . S
C890 U886 2.847 . S
C890 O904 1.249 . S
C890 O905 1.202 . S
C891 C889 1.363 . S
C891 C893 1.408 . S
C891 C896 1.342 . S
C892 C893 1.310 . S
C892 C895 1.461 . S
C892 H912 0.932 . S
C893 C891 1.408 . S
C893 C892 1.310 . S
C893 H913 0.930 . S
C894 C895 1.474 . S
C894 C896 1.285 . S
C894 H914 0.929 . S
C895 C892 1.461 . S
C895 C894 1.474 . S
C896 C891 1.342 . S
C896 C894 1.285 . S
C896 H915 0.930 . S
C897 C900 1.424 . S
C897 C902 1.245 . S
C897 C903 1.428 . S
C898 C901 1.260 . S
C898 C902 1.477 . S
C898 H916 0.932 . S
C899 C900 1.384 . S
C899 C901 1.479 . S
C899 H917 0.929 . S
C900 C897 1.424 . S
C900 C899 1.384 . S
C900 H918 0.928 . S
C901 C898 1.260 . S
C901 C899 1.479 . S
C902 C897 1.245 . S
C902 C898 1.477 . S
C902 H919 0.932 . S
C903 U886 2.882 . S
C903 C897 1.428 . S
C903 O906 1.301 . S
C903 O907 1.282 . S
O904 U886 2.441 . S
O904 C890 1.249 . S
O905 U886 2.420 . S
O905 C890 1.202 . S
O906 U886 2.455 . S
O906 C903 1.301 . S
O907 U886 2.449 . S
O907 C903 1.282 . S
H908 C881 0.931 . S
H909 C883 0.929 . S
H910 C884 0.930 . S
H911 C885 0.931 . S
H912 C892 0.932 . S
H913 C893 0.930 . S
H914 C894 0.929 . S
H915 C896 0.930 . S
H916 C898 0.932 . S
H917 C899 0.929 . S
H918 C900 0.928 . S
H919 C902 0.932 . S
C920 C921 1.264 . S
C920 C925 1.479 1_565 S
C920 C930 1.474 . S
C921 C920 1.264 . S
C921 C923 1.339 . S
C921 H948 0.931 . S
C922 C923 1.395 . S
C922 C924 1.320 1_565 S
C923 C921 1.339 . S
C923 C922 1.395 . S
C923 H949 0.929 . S
C924 C922 1.320 1_545 S
C924 C925 1.405 . S
C924 H950 0.930 . S
C925 C920 1.479 1_545 S
C925 C924 1.405 . S
C925 H951 0.931 . S
U926 O927 2.454 . S
U926 O928 2.458 . S
U926 C929 2.984 . S
U926 C930 2.841 1_545 S
U926 C943 2.882 1_545 S
U926 O944 2.441 . S
U926 O945 2.420 1_545 S
U926 O946 2.455 1_545 S
U926 O947 2.449 1_545 S
O927 U926 2.454 . S
O927 C929 1.353 . S
O928 U926 2.458 . S
O928 C929 1.286 . S
C929 U926 2.984 . S
C929 O927 1.353 . S
C929 O928 1.286 . S
C929 C931 1.363 . S
C930 C920 1.474 . S
C930 U926 2.841 1_565 S
C930 O944 1.224 1_565 S
C930 O945 1.220 . S
C931 C929 1.363 . S
C931 C933 1.408 . S
C931 C936 1.342 . S
C932 C933 1.310 . S
C932 C935 1.461 . S
C932 H952 0.932 . S
C933 C931 1.408 . S
C933 C932 1.310 . S
C933 H953 0.930 . S
C934 C935 1.474 . S
C934 C936 1.285 . S
C934 H954 0.929 . S
C935 C932 1.461 . S
C935 C934 1.474 . S
C936 C931 1.342 . S
C936 C934 1.285 . S
C936 H955 0.930 . S
C937 C940 1.424 . S
C937 C942 1.245 . S
C937 C943 1.428 . S
C938 C941 1.260 . S
C938 C942 1.477 . S
C938 H956 0.932 . S
C939 C940 1.384 . S
C939 C941 1.479 . S
C939 H957 0.929 . S
C940 C937 1.424 . S
C940 C939 1.384 . S
C940 H958 0.928 . S
C941 C938 1.260 . S
C941 C939 1.479 . S
C942 C937 1.245 . S
C942 C938 1.477 . S
C942 H959 0.932 . S
C943 U926 2.882 1_565 S
C943 C937 1.428 . S
C943 O946 1.301 . S
C943 O947 1.282 . S
O944 U926 2.441 . S
O944 C930 1.224 1_545 S
O945 U926 2.420 1_565 S
O945 C930 1.220 . S
O946 U926 2.455 1_565 S
O946 C943 1.301 . S
O947 U926 2.449 1_565 S
O947 C943 1.282 . S
H948 C921 0.931 . S
H949 C923 0.929 . S
H950 C924 0.930 . S
H951 C925 0.931 . S
H952 C932 0.932 . S
H953 C933 0.930 . S
H954 C934 0.929 . S
H955 C936 0.930 . S
H956 C938 0.932 . S
H957 C939 0.929 . S
H958 C940 0.928 . S
H959 C942 0.932 . S
C960 C961 1.264 . S
C960 C965 1.479 . S
C960 C970 1.465 . S
C961 C960 1.264 . S
C961 C963 1.339 . S
C961 H988 0.931 . S
C962 C963 1.395 . S
C962 C964 1.320 . S
C963 C961 1.339 . S
C963 C962 1.395 . S
C963 H989 0.929 . S
C964 C962 1.320 . S
C964 C965 1.405 . S
C964 H990 0.930 . S
C965 C960 1.479 . S
C965 C964 1.405 . S
C965 H991 0.931 1_565 S
U966 O967 2.513 . S
U966 O968 2.502 . S
U966 C969 3.041 . S
U966 C970 2.834 1_545 S
U966 C983 2.839 1_545 S
U966 O984 2.454 . S
U966 O985 2.385 1_545 S
U966 O986 2.436 1_545 S
U966 O987 2.392 1_545 S
O967 U966 2.513 . S
O967 C969 1.353 . S
O968 U966 2.502 . S
O968 C969 1.286 . S
C969 U966 3.041 . S
C969 O967 1.353 . S
C969 O968 1.286 . S
C969 C971 1.363 . S
C970 C960 1.465 . S
C970 U966 2.834 1_565 S
C970 O984 1.249 1_565 S
C970 O985 1.202 . S
C971 C969 1.363 . S
C971 C973 1.408 . S
C971 C976 1.342 . S
C972 C973 1.310 . S
C972 C975 1.461 . S
C972 H992 0.932 . S
C973 C971 1.408 . S
C973 C972 1.310 . S
C973 H993 0.930 . S
C974 C975 1.474 . S
C974 C976 1.285 . S
C974 H994 0.929 . S
C975 C972 1.461 . S
C975 C974 1.474 . S
C976 C971 1.342 . S
C976 C974 1.285 . S
C976 H995 0.930 . S
C977 C980 1.424 . S
C977 C982 1.245 . S
C977 C983 1.428 . S
C978 C981 1.260 . S
C978 C982 1.477 . S
C978 H996 0.932 . S
C979 C980 1.384 . S
C979 C981 1.479 . S
C979 H997 0.929 . S
C980 C977 1.424 . S
C980 C979 1.384 . S
C980 H998 0.928 . S
C981 C978 1.260 . S
C981 C979 1.479 . S
C982 C977 1.245 . S
C982 C978 1.477 . S
C982 H999 0.932 . S
C983 U966 2.839 1_565 S
C983 C977 1.428 . S
C983 O986 1.301 . S
C983 O987 1.282 . S
O984 U966 2.454 . S
O984 C970 1.249 1_545 S
O985 U966 2.385 1_565 S
O985 C970 1.202 . S
O986 U966 2.436 1_565 S
O986 C983 1.301 . S
O987 U966 2.392 1_565 S
O987 C983 1.282 . S
H988 C961 0.931 . S
H989 C963 0.929 . S
H990 C964 0.930 . S
H991 C965 0.931 1_545 S
H992 C972 0.932 . S
H993 C973 0.930 . S
H994 C974 0.929 . S
H995 C976 0.930 . S
H996 C978 0.932 . S
H997 C979 0.929 . S
H998 C980 0.928 . S
H999 C982 0.932 . S
C1000 C1001 1.264 . S
C1000 C1005 1.479 . S
C1000 C1010 1.465 . S
C1001 C1000 1.264 . S
C1001 C1003 1.339 . S
C1001 H1028 0.931 . S
C1002 C1003 1.395 . S
C1002 C1004 1.320 . S
C1003 C1001 1.339 . S
C1003 C1002 1.395 . S
C1003 H1029 0.929 . S
C1004 C1002 1.320 . S
C1004 C1005 1.405 . S
C1004 H1030 0.930 . S
C1005 C1000 1.479 . S
C1005 C1004 1.405 . S
C1005 H1031 0.931 . S
U1006 O1007 2.454 . S
U1006 O1008 2.458 1_565 S
U1006 C1009 2.984 1_565 S
U1006 C1010 2.847 . S
U1006 C1023 2.882 1_565 S
U1006 O1024 2.441 . S
U1006 O1025 2.420 . S
U1006 O1026 2.455 1_565 S
U1006 O1027 2.449 1_565 S
O1007 U1006 2.454 . S
O1007 C1009 1.353 1_565 S
O1008 U1006 2.458 1_545 S
O1008 C1009 1.286 . S
C1009 U1006 2.984 1_545 S
C1009 O1007 1.353 1_545 S
C1009 O1008 1.286 . S
C1009 C1011 1.363 . S
C1010 C1000 1.465 . S
C1010 U1006 2.847 . S
C1010 O1024 1.249 . S
C1010 O1025 1.202 . S
C1011 C1009 1.363 . S
C1011 C1013 1.408 1_545 S
C1011 C1016 1.342 . S
C1012 C1013 1.310 . S
C1012 C1015 1.461 1_565 S
C1012 H1032 0.932 . S
C1013 C1011 1.408 1_565 S
C1013 C1012 1.310 . S
C1013 H1033 0.930 . S
C1014 C1015 1.474 . S
C1014 C1016 1.285 . S
C1014 H1034 0.929 . S
C1015 C1012 1.461 1_545 S
C1015 C1014 1.474 . S
C1016 C1011 1.342 . S
C1016 C1014 1.285 . S
C1016 H1035 0.930 . S
C1017 C1020 1.424 . S
C1017 C1022 1.245 . S
C1017 C1023 1.428 . S
C1018 C1021 1.260 . S
C1018 C1022 1.477 . S
C1018 H1036 0.932 . S
C1019 C1020 1.384 . S
C1019 C1021 1.479 . S
C1019 H1037 0.929 . S
C1020 C1017 1.424 . S
C1020 C1019 1.384 . S
C1020 H1038 0.928 . S
C1021 C1018 1.260 . S
C1021 C1019 1.479 . S
C1022 C1017 1.245 . S
C1022 C1018 1.477 . S
C1022 H1039 0.932 . S
C1023 U1006 2.882 1_545 S
C1023 C1017 1.428 . S
C1023 O1026 1.301 . S
C1023 O1027 1.282 . S
O1024 U1006 2.441 . S
O1024 C1010 1.249 . S
O1025 U1006 2.420 . S
O1025 C1010 1.202 . S
O1026 U1006 2.455 1_545 S
O1026 C1023 1.301 . S
O1027 U1006 2.449 1_545 S
O1027 C1023 1.282 . S
H1028 C1001 0.931 . S
H1029 C1003 0.929 . S
H1030 C1004 0.930 . S
H1031 C1005 0.931 . S
H1032 C1012 0.932 . S
H1033 C1013 0.930 . S
H1034 C1014 0.929 . S
H1035 C1016 0.930 . S
H1036 C1018 0.932 . S
H1037 C1019 0.929 . S
H1038 C1020 0.928 . S
H1039 C1022 0.932 . S
C1040 C1041 1.264 . S
C1040 C1045 1.479 . S
C1040 C1050 1.465 . S
C1041 C1040 1.264 . S
C1041 C1043 1.339 . S
C1041 H1068 0.931 . S
C1042 C1043 1.395 . S
C1042 C1044 1.320 . S
C1043 C1041 1.339 . S
C1043 C1042 1.395 . S
C1043 H1069 0.929 . S
C1044 C1042 1.320 . S
C1044 C1045 1.405 . S
C1044 H1070 0.930 . S
C1045 C1040 1.479 . S
C1045 C1044 1.405 . S
C1045 H1071 0.931 . S
U1046 O1047 2.449 1_545 S
U1046 O1048 2.475 . S
U1046 C1049 2.991 . S
U1046 C1050 2.822 1_545 S
U1046 C1063 2.902 . S
U1046 O1064 2.415 1_545 S
U1046 O1065 2.400 1_545 S
U1046 O1066 2.480 . S
U1046 O1067 2.458 . S
O1047 U1046 2.449 1_565 S
O1047 C1049 1.353 1_565 S
O1048 U1046 2.475 . S
O1048 C1049 1.286 . S
C1049 U1046 2.991 . S
C1049 O1047 1.353 1_545 S
C1049 O1048 1.286 . S
C1049 C1051 1.363 . S
C1050 C1040 1.465 . S
C1050 U1046 2.822 1_565 S
C1050 O1064 1.249 . S
C1050 O1065 1.202 . S
C1051 C1049 1.363 . S
C1051 C1053 1.408 . S
C1051 C1056 1.342 . S
C1052 C1053 1.310 . S
C1052 C1055 1.461 . S
C1052 H1072 0.932 . S
C1053 C1051 1.408 . S
C1053 C1052 1.310 . S
C1053 H1073 0.930 1_545 S
C1054 C1055 1.474 . S
C1054 C1056 1.285 . S
C1054 H1074 0.929 . S
C1055 C1052 1.461 . S
C1055 C1054 1.474 . S
C1056 C1051 1.342 . S
C1056 C1054 1.285 . S
C1056 H1075 0.930 . S
C1057 C1060 1.424 . S
C1057 C1062 1.245 . S
C1057 C1063 1.428 . S
C1058 C1061 1.260 . S
C1058 C1062 1.477 . S
C1058 H1076 0.932 . S
C1059 C1060 1.384 . S
C1059 C1061 1.479 . S
C1059 H1077 0.929 . S
C1060 C1057 1.424 . S
C1060 C1059 1.384 . S
C1060 H1078 0.928 . S
C1061 C1058 1.260 . S
C1061 C1059 1.479 . S
C1062 C1057 1.245 . S
C1062 C1058 1.477 . S
C1062 H1079 0.932 . S
C1063 U1046 2.902 . S
C1063 C1057 1.428 . S
C1063 O1066 1.301 . S
C1063 O1067 1.282 . S
O1064 U1046 2.415 1_565 S
O1064 C1050 1.249 . S
O1065 U1046 2.400 1_565 S
O1065 C1050 1.202 . S
O1066 U1046 2.480 . S
O1066 C1063 1.301 . S
O1067 U1046 2.458 . S
O1067 C1063 1.282 . S
H1068 C1041 0.931 . S
H1069 C1043 0.929 . S
H1070 C1044 0.930 . S
H1071 C1045 0.931 . S
H1072 C1052 0.932 . S
H1073 C1053 0.930 1_565 S
H1074 C1054 0.929 . S
H1075 C1056 0.930 . S
H1076 C1058 0.932 . S
H1077 C1059 0.929 . S
H1078 C1060 0.928 . S
H1079 C1062 0.932 . S
C1080 C1081 1.264 . S
C1080 C1085 1.479 . S
C1080 C1090 1.465 . S
C1081 C1080 1.264 . S
C1081 C1083 1.339 . S
C1081 H1108 0.931 . S
C1082 C1083 1.395 . S
C1082 C1084 1.320 . S
C1083 C1081 1.339 . S
C1083 C1082 1.395 . S
C1083 H1109 0.929 . S
C1084 C1082 1.320 . S
C1084 C1085 1.405 . S
C1084 H1110 0.930 . S
C1085 C1080 1.479 . S
C1085 C1084 1.405 . S
C1085 H1111 0.931 . S
U1086 O1087 2.454 . S
U1086 O1088 2.458 . S
U1086 C1089 2.984 . S
U1086 C1090 2.847 . S
U1086 C1103 2.882 . S
U1086 O1104 2.441 . S
U1086 O1105 2.420 . S
U1086 O1106 2.455 . S
U1086 O1107 2.449 . S
O1087 U1086 2.454 . S
O1087 C1089 1.353 . S
O1088 U1086 2.458 . S
O1088 C1089 1.286 . S
C1089 U1086 2.984 . S
C1089 O1087 1.353 . S
C1089 O1088 1.286 . S
C1089 C1091 1.363 . S
C1090 C1080 1.465 . S
C1090 U1086 2.847 . S
C1090 O1104 1.249 . S
C1090 O1105 1.202 . S
C1091 C1089 1.363 . S
C1091 C1093 1.408 . S
C1091 C1096 1.342 . S
C1092 C1093 1.310 . S
C1092 C1095 1.461 1_556 S
C1092 H1112 0.932 1_556 S
C1093 C1091 1.408 . S
C1093 C1092 1.310 . S
C1093 H1113 0.930 . S
C1094 C1095 1.474 1_556 S
C1094 C1096 1.285 . S
C1094 H1114 0.929 . S
C1095 C1092 1.461 1_554 S
C1095 C1094 1.474 1_554 S
C1096 C1091 1.342 . S
C1096 C1094 1.285 . S
C1096 H1115 0.930 . S
C1097 C1100 1.424 . S
C1097 C1102 1.245 . S
C1097 C1103 1.428 . S
C1098 C1101 1.260 . S
C1098 C1102 1.477 . S
C1098 H1116 0.932 . S
C1099 C1100 1.384 . S
C1099 C1101 1.479 . S
C1099 H1117 0.929 . S
C1100 C1097 1.424 . S
C1100 C1099 1.384 . S
C1100 H1118 0.928 . S
C1101 C1098 1.260 . S
C1101 C1099 1.479 . S
C1102 C1097 1.245 . S
C1102 C1098 1.477 . S
C1102 H1119 0.932 . S
C1103 U1086 2.882 . S
C1103 C1097 1.428 . S
C1103 O1106 1.301 . S
C1103 O1107 1.282 . S
O1104 U1086 2.441 . S
O1104 C1090 1.249 . S
O1105 U1086 2.420 . S
O1105 C1090 1.202 . S
O1106 U1086 2.455 . S
O1106 C1103 1.301 . S
O1107 U1086 2.449 . S
O1107 C1103 1.282 . S
H1108 C1081 0.931 . S
H1109 C1083 0.929 . S
H1110 C1084 0.930 . S
H1111 C1085 0.931 . S
H1112 C1092 0.932 1_554 S
H1113 C1093 0.930 . S
H1114 C1094 0.929 . S
H1115 C1096 0.930 . S
H1116 C1098 0.932 . S
H1117 C1099 0.929 . S
H1118 C1100 0.928 . S
H1119 C1102 0.932 . S
C1120 C1121 1.264 . S
C1120 C1125 1.479 . S
C1120 C1130 1.465 . S
C1121 C1120 1.264 . S
C1121 C1123 1.339 . S
C1121 H1148 0.931 . S
C1122 C1123 1.395 . S
C1122 C1124 1.320 . S
C1123 C1121 1.339 . S
C1123 C1122 1.395 . S
C1123 H1149 0.929 . S
C1124 C1122 1.320 . S
C1124 C1125 1.405 . S
C1124 H1150 0.930 . S
C1125 C1120 1.479 . S
C1125 C1124 1.405 . S
C1125 H1151 0.931 . S
U1126 O1127 2.454 . S
U1126 O1128 2.458 . S
U1126 C1129 2.984 . S
U1126 C1130 2.847 1_455 S
U1126 C1143 2.882 . S
U1126 O1144 2.441 1_455 S
U1126 O1145 2.420 1_455 S
U1126 O1146 2.455 . S
U1126 O1147 2.449 . S
O1127 U1126 2.454 . S
O1127 C1129 1.353 . S
O1128 U1126 2.458 . S
O1128 C1129 1.286 . S
C1129 U1126 2.984 . S
C1129 O1127 1.353 . S
C1129 O1128 1.286 . S
C1129 C1131 1.363 . S
C1130 C1120 1.465 . S
C1130 U1126 2.847 1_655 S
C1130 O1144 1.249 . S
C1130 O1145 1.202 . S
C1131 C1129 1.363 . S
C1131 C1133 1.408 . S
C1131 C1136 1.342 . S
C1132 C1133 1.310 . S
C1132 C1135 1.461 . S
C1132 H1152 0.932 1_455 S
C1133 C1131 1.408 . S
C1133 C1132 1.310 . S
C1133 H1153 0.930 1_455 S
C1134 C1135 1.474 . S
C1134 C1136 1.285 . S
C1134 H1154 0.929 . S
C1135 C1132 1.461 . S
C1135 C1134 1.474 . S
C1136 C1131 1.342 . S
C1136 C1134 1.285 . S
C1136 H1155 0.930 . S
C1137 C1140 1.424 . S
C1137 C1142 1.245 . S
C1137 C1143 1.428 . S
C1138 C1141 1.260 . S
C1138 C1142 1.477 . S
C1138 H1156 0.932 . S
C1139 C1140 1.384 . S
C1139 C1141 1.479 . S
C1139 H1157 0.929 . S
C1140 C1137 1.424 . S
C1140 C1139 1.384 . S
C1140 H1158 0.928 . S
C1141 C1138 1.260 . S
C1141 C1139 1.479 . S
C1142 C1137 1.245 . S
C1142 C1138 1.477 . S
C1142 H1159 0.932 . S
C1143 U1126 2.882 . S
C1143 C1137 1.428 . S
C1143 O1146 1.301 . S
C1143 O1147 1.282 . S
O1144 U1126 2.441 1_655 S
O1144 C1130 1.249 . S
O1145 U1126 2.420 1_655 S
O1145 C1130 1.202 . S
O1146 U1126 2.455 . S
O1146 C1143 1.301 . S
O1147 U1126 2.449 . S
O1147 C1143 1.282 . S
H1148 C1121 0.931 . S
H1149 C1123 0.929 . S
H1150 C1124 0.930 . S
H1151 C1125 0.931 . S
H1152 C1132 0.932 1_655 S
H1153 C1133 0.930 1_655 S
H1154 C1134 0.929 . S
H1155 C1136 0.930 . S
H1156 C1138 0.932 . S
H1157 C1139 0.929 . S
H1158 C1140 0.928 . S
H1159 C1142 0.932 . S
C1160 C1161 1.264 . S
C1160 C1165 1.479 . S
C1160 C1170 1.465 . S
C1161 C1160 1.264 . S
C1161 C1163 1.339 . S
C1161 H1188 0.931 . S
C1162 C1163 1.395 . S
C1162 C1164 1.320 . S
C1163 C1161 1.339 . S
C1163 C1162 1.395 . S
C1163 H1189 0.929 . S
C1164 C1162 1.320 . S
C1164 C1165 1.405 . S
C1164 H1190 0.930 . S
C1165 C1160 1.479 . S
C1165 C1164 1.405 . S
C1165 H1191 0.931 . S
U1166 O1167 2.454 . S
U1166 O1168 2.458 . S
U1166 C1169 2.984 . S
U1166 C1170 2.847 . S
U1166 C1183 2.882 . S
U1166 O1184 2.441 . S
U1166 O1185 2.420 . S
U1166 O1186 2.455 . S
U1166 O1187 2.449 . S
O1167 U1166 2.454 . S
O1167 C1169 1.353 . S
O1168 U1166 2.458 . S
O1168 C1169 1.286 . S
C1169 U1166 2.984 . S
C1169 O1167 1.353 . S
C1169 O1168 1.286 . S
C1169 C1171 1.363 . S
C1170 C1160 1.465 . S
C1170 U1166 2.847 . S
C1170 O1184 1.249 . S
C1170 O1185 1.202 . S
C1171 C1169 1.363 . S
C1171 C1173 1.408 . S
C1171 C1176 1.342 . S
C1172 C1173 1.310 . S
C1172 C1175 1.461 . S
C1172 H1192 0.932 . S
C1173 C1171 1.408 . S
C1173 C1172 1.310 . S
C1173 H1193 0.930 . S
C1174 C1175 1.474 . S
C1174 C1176 1.285 . S
C1174 H1194 0.929 . S
C1175 C1172 1.461 . S
C1175 C1174 1.474 . S
C1176 C1171 1.342 . S
C1176 C1174 1.285 . S
C1176 H1195 0.930 . S
C1177 C1180 1.424 . S
C1177 C1182 1.245 . S
C1177 C1183 1.428 . S
C1178 C1181 1.260 . S
C1178 C1182 1.477 . S
C1178 H1196 0.932 . S
C1179 C1180 1.384 . S
C1179 C1181 1.479 . S
C1179 H1197 0.929 . S
C1180 C1177 1.424 . S
C1180 C1179 1.384 . S
C1180 H1198 0.928 . S
C1181 C1178 1.260 . S
C1181 C1179 1.479 . S
C1182 C1177 1.245 . S
C1182 C1178 1.477 . S
C1182 H1199 0.932 . S
C1183 U1166 2.882 . S
C1183 C1177 1.428 . S
C1183 O1186 1.301 . S
C1183 O1187 1.282 . S
O1184 U1166 2.441 . S
O1184 C1170 1.249 . S
O1185 U1166 2.420 . S
O1185 C1170 1.202 . S
O1186 U1166 2.455 . S
O1186 C1183 1.301 . S
O1187 U1166 2.449 . S
O1187 C1183 1.282 . S
H1188 C1161 0.931 . S
H1189 C1163 0.929 . S
H1190 C1164 0.930 . S
H1191 C1165 0.931 . S
H1192 C1172 0.932 . S
H1193 C1173 0.930 . S
H1194 C1174 0.929 . S
H1195 C1176 0.930 . S
H1196 C1178 0.932 . S
H1197 C1179 0.929 . S
H1198 C1180 0.928 . S
H1199 C1182 0.932 . S
C1200 C1201 1.264 . S
C1200 C1205 1.479 . S
C1200 C1210 1.465 . S
C1201 C1200 1.264 . S
C1201 C1203 1.339 . S
C1201 H1228 0.931 . S
C1202 C1203 1.395 . S
C1202 C1204 1.320 . S
C1203 C1201 1.339 . S
C1203 C1202 1.395 . S
C1203 H1229 0.929 . S
C1204 C1202 1.320 . S
C1204 C1205 1.405 . S
C1204 H1230 0.930 . S
C1205 C1200 1.479 . S
C1205 C1204 1.405 . S
C1205 H1231 0.931 . S
U1206 O1207 2.454 . S
U1206 O1208 2.458 . S
U1206 C1209 2.984 . S
U1206 C1210 2.847 . S
U1206 C1223 2.882 . S
U1206 O1224 2.441 . S
U1206 O1225 2.420 . S
U1206 O1226 2.455 . S
U1206 O1227 2.449 . S
O1207 U1206 2.454 . S
O1207 C1209 1.353 . S
O1208 U1206 2.458 . S
O1208 C1209 1.286 . S
C1209 U1206 2.984 . S
C1209 O1207 1.353 . S
C1209 O1208 1.286 . S
C1209 C1211 1.363 . S
C1210 C1200 1.465 . S
C1210 U1206 2.847 . S
C1210 O1224 1.249 . S
C1210 O1225 1.202 . S
C1211 C1209 1.363 . S
C1211 C1213 1.408 . S
C1211 C1216 1.342 . S
C1212 C1213 1.310 . S
C1212 C1215 1.461 . S
C1212 H1232 0.932 . S
C1213 C1211 1.408 . S
C1213 C1212 1.310 . S
C1213 H1233 0.930 . S
C1214 C1215 1.474 . S
C1214 C1216 1.285 . S
C1214 H1234 0.929 . S
C1215 C1212 1.461 . S
C1215 C1214 1.474 . S
C1216 C1211 1.342 . S
C1216 C1214 1.285 . S
C1216 H1235 0.930 . S
C1217 C1220 1.424 . S
C1217 C1222 1.245 . S
C1217 C1223 1.428 . S
C1218 C1221 1.260 . S
C1218 C1222 1.477 . S
C1218 H1236 0.932 . S
C1219 C1220 1.384 . S
C1219 C1221 1.479 . S
C1219 H1237 0.929 . S
C1220 C1217 1.424 . S
C1220 C1219 1.384 . S
C1220 H1238 0.928 . S
C1221 C1218 1.260 . S
C1221 C1219 1.479 . S
C1222 C1217 1.245 . S
C1222 C1218 1.477 . S
C1222 H1239 0.932 . S
C1223 U1206 2.882 . S
C1223 C1217 1.428 . S
C1223 O1226 1.301 . S
C1223 O1227 1.282 . S
O1224 U1206 2.441 . S
O1224 C1210 1.249 . S
O1225 U1206 2.420 . S
O1225 C1210 1.202 . S
O1226 U1206 2.455 . S
O1226 C1223 1.301 . S
O1227 U1206 2.449 . S
O1227 C1223 1.282 . S
H1228 C1201 0.931 . S
H1229 C1203 0.929 . S
H1230 C1204 0.930 . S
H1231 C1205 0.931 . S
H1232 C1212 0.932 . S
H1233 C1213 0.930 . S
H1234 C1214 0.929 . S
H1235 C1216 0.930 . S
H1236 C1218 0.932 . S
H1237 C1219 0.929 . S
H1238 C1220 0.928 . S
H1239 C1222 0.932 . S
C1240 C1241 1.264 . S
C1240 C1245 1.479 . S
C1240 C1250 1.465 . S
C1241 C1240 1.264 . S
C1241 C1243 1.339 . S
C1241 H1268 0.931 . S
C1242 C1243 1.395 . S
C1242 C1244 1.320 . S
C1243 C1241 1.339 . S
C1243 C1242 1.395 . S
C1243 H1269 0.929 . S
C1244 C1242 1.320 . S
C1244 C1245 1.405 . S
C1244 H1270 0.930 . S
C1245 C1240 1.479 . S
C1245 C1244 1.405 . S
C1245 H1271 0.931 . S
U1246 O1247 2.454 1_655 S
U1246 O1248 2.458 1_655 S
U1246 C1249 2.984 1_655 S
U1246 C1250 2.847 . S
U1246 C1263 2.882 . S
U1246 O1264 2.441 . S
U1246 O1265 2.420 . S
U1246 O1266 2.455 . S
U1246 O1267 2.449 . S
O1247 U1246 2.454 1_455 S
O1247 C1249 1.353 . S
O1248 U1246 2.458 1_455 S
O1248 C1249 1.286 . S
C1249 U1246 2.984 1_455 S
C1249 O1247 1.353 . S
C1249 O1248 1.286 . S
C1249 C1251 1.363 . S
C1250 C1240 1.465 . S
C1250 U1246 2.847 . S
C1250 O1264 1.249 . S
C1250 O1265 1.202 . S
C1251 C1249 1.363 . S
C1251 C1253 1.408 . S
C1251 C1256 1.342 . S
C1252 C1253 1.310 . S
C1252 C1255 1.461 . S
C1252 H1272 0.932 . S
C1253 C1251 1.408 . S
C1253 C1252 1.310 . S
C1253 H1273 0.930 . S
C1254 C1255 1.474 . S
C1254 C1256 1.285 . S
C1254 H1274 0.929 . S
C1255 C1252 1.461 . S
C1255 C1254 1.474 . S
C1256 C1251 1.342 . S
C1256 C1254 1.285 . S
C1256 H1275 0.930 . S
C1257 C1260 1.424 . S
C1257 C1262 1.245 . S
C1257 C1263 1.428 . S
C1258 C1261 1.260 . S
C1258 C1262 1.477 . S
C1258 H1276 0.932 . S
C1259 C1260 1.384 . S
C1259 C1261 1.479 . S
C1259 H1277 0.929 . S
C1260 C1257 1.424 . S
C1260 C1259 1.384 . S
C1260 H1278 0.928 . S
C1261 C1258 1.260 . S
C1261 C1259 1.479 . S
C1262 C1257 1.245 . S
C1262 C1258 1.477 . S
C1262 H1279 0.932 . S
C1263 U1246 2.882 . S
C1263 C1257 1.428 . S
C1263 O1266 1.301 . S
C1263 O1267 1.282 . S
O1264 U1246 2.441 . S
O1264 C1250 1.249 . S
O1265 U1246 2.420 . S
O1265 C1250 1.202 . S
O1266 U1246 2.455 . S
O1266 C1263 1.301 . S
O1267 U1246 2.449 . S
O1267 C1263 1.282 . S
H1268 C1241 0.931 . S
H1269 C1243 0.929 . S
H1270 C1244 0.930 . S
H1271 C1245 0.931 . S
H1272 C1252 0.932 . S
H1273 C1253 0.930 . S
H1274 C1254 0.929 . S
H1275 C1256 0.930 . S
H1276 C1258 0.932 . S
H1277 C1259 0.929 . S
H1278 C1260 0.928 . S
H1279 C1262 0.932 . S
C1280 C1281 1.264 . S
C1280 C1285 1.479 . S
C1280 C1290 1.465 . S
C1281 C1280 1.264 . S
C1281 C1283 1.339 . S
C1281 H1308 0.931 . S
C1282 C1283 1.395 . S
C1282 C1284 1.320 . S
C1283 C1281 1.339 . S
C1283 C1282 1.395 . S
C1283 H1309 0.929 . S
C1284 C1282 1.320 . S
C1284 C1285 1.405 . S
C1284 H1310 0.930 . S
C1285 C1280 1.479 . S
C1285 C1284 1.405 . S
C1285 H1311 0.931 . S
U1286 O1287 2.454 . S
U1286 O1288 2.458 . S
U1286 C1289 2.984 . S
U1286 C1290 2.847 . S
U1286 C1303 2.882 . S
U1286 O1304 2.441 . S
U1286 O1305 2.420 . S
U1286 O1306 2.455 . S
U1286 O1307 2.449 . S
O1287 U1286 2.454 . S
O1287 C1289 1.353 . S
O1288 U1286 2.458 . S
O1288 C1289 1.286 . S
C1289 U1286 2.984 . S
C1289 O1287 1.353 . S
C1289 O1288 1.286 . S
C1289 C1291 1.363 . S
C1290 C1280 1.465 . S
C1290 U1286 2.847 . S
C1290 O1304 1.249 . S
C1290 O1305 1.202 . S
C1291 C1289 1.363 . S
C1291 C1293 1.408 . S
C1291 C1296 1.342 . S
C1292 C1293 1.310 . S
C1292 C1295 1.461 . S
C1292 H1312 0.932 . S
C1293 C1291 1.408 . S
C1293 C1292 1.310 . S
C1293 H1313 0.930 . S
C1294 C1295 1.474 . S
C1294 C1296 1.285 . S
C1294 H1314 0.929 . S
C1295 C1292 1.461 . S
C1295 C1294 1.474 . S
C1296 C1291 1.342 . S
C1296 C1294 1.285 . S
C1296 H1315 0.930 . S
C1297 C1300 1.424 . S
C1297 C1302 1.245 . S
C1297 C1303 1.428 . S
C1298 C1301 1.260 . S
C1298 C1302 1.477 . S
C1298 H1316 0.932 . S
C1299 C1300 1.384 . S
C1299 C1301 1.479 . S
C1299 H1317 0.929 . S
C1300 C1297 1.424 . S
C1300 C1299 1.384 . S
C1300 H1318 0.928 . S
C1301 C1298 1.260 . S
C1301 C1299 1.479 . S
C1302 C1297 1.245 . S
C1302 C1298 1.477 . S
C1302 H1319 0.932 . S
C1303 U1286 2.882 . S
C1303 C1297 1.428 . S
C1303 O1306 1.301 . S
C1303 O1307 1.282 . S
O1304 U1286 2.441 . S
O1304 C1290 1.249 . S
O1305 U1286 2.420 . S
O1305 C1290 1.202 . S
O1306 U1286 2.455 . S
O1306 C1303 1.301 . S
O1307 U1286 2.449 . S
O1307 C1303 1.282 . S
H1308 C1281 0.931 . S
H1309 C1283 0.929 . S
H1310 C1284 0.930 . S
H1311 C1285 0.931 . S
H1312 C1292 0.932 . S
H1313 C1293 0.930 . S
H1314 C1294 0.929 . S
H1315 C1296 0.930 . S
H1316 C1298 0.932 . S
H1317 C1299 0.929 . S
H1318 C1300 0.928 . S
H1319 C1302 0.932 . S
C1320 C1321 1.264 . S
C1320 C1325 1.479 . S
C1320 C1330 1.465 . S
C1321 C1320 1.264 . S
C1321 C1323 1.339 . S
C1321 H1348 0.931 . S
C1322 C1323 1.395 . S
C1322 C1324 1.320 . S
C1323 C1321 1.339 . S
C1323 C1322 1.395 . S
C1323 H1349 0.929 . S
C1324 C1322 1.320 . S
C1324 C1325 1.405 . S
C1324 H1350 0.930 . S
C1325 C1320 1.479 . S
C1325 C1324 1.405 . S
C1325 H1351 0.931 . S
U1326 O1327 2.454 . S
U1326 O1328 2.458 . S
U1326 C1329 2.984 . S
U1326 C1330 2.847 . S
U1326 C1343 2.882 . S
U1326 O1344 2.441 . S
U1326 O1345 2.420 . S
U1326 O1346 2.455 . S
U1326 O1347 2.449 . S
O1327 U1326 2.454 . S
O1327 C1329 1.353 . S
O1328 U1326 2.458 . S
O1328 C1329 1.286 . S
C1329 U1326 2.984 . S
C1329 O1327 1.353 . S
C1329 O1328 1.286 . S
C1329 C1331 1.363 . S
C1330 C1320 1.465 . S
C1330 U1326 2.847 . S
C1330 O1344 1.249 . S
C1330 O1345 1.202 . S
C1331 C1329 1.363 . S
C1331 C1333 1.408 . S
C1331 C1336 1.342 . S
C1332 C1333 1.310 . S
C1332 C1335 1.459 . S
C1332 H1352 0.932 1_556 S
C1333 C1331 1.408 . S
C1333 C1332 1.310 . S
C1333 H1353 0.930 . S
C1334 C1335 1.469 . S
C1334 C1336 1.285 . S
C1334 H1354 0.929 . S
C1335 C1332 1.459 . S
C1335 C1334 1.469 . S
C1336 C1331 1.342 . S
C1336 C1334 1.285 . S
C1336 H1355 0.930 . S
C1337 C1340 1.424 . S
C1337 C1342 1.245 . S
C1337 C1343 1.428 . S
C1338 C1341 1.260 . S
C1338 C1342 1.477 . S
C1338 H1356 0.932 . S
C1339 C1340 1.384 . S
C1339 C1341 1.479 . S
C1339 H1357 0.929 . S
C1340 C1337 1.424 . S
C1340 C1339 1.384 . S
C1340 H1358 0.928 . S
C1341 C1338 1.260 . S
C1341 C1339 1.479 . S
C1342 C1337 1.245 . S
C1342 C1338 1.477 . S
C1342 H1359 0.932 . S
C1343 U1326 2.882 . S
C1343 C1337 1.428 . S
C1343 O1346 1.301 . S
C1343 O1347 1.282 . S
O1344 U1326 2.441 . S
O1344 C1330 1.249 . S
O1345 U1326 2.420 . S
O1345 C1330 1.202 . S
O1346 U1326 2.455 . S
O1346 C1343 1.301 . S
O1347 U1326 2.449 . S
O1347 C1343 1.282 . S
H1348 C1321 0.931 . S
H1349 C1323 0.929 . S
H1350 C1324 0.930 . S
H1351 C1325 0.931 . S
H1352 C1332 0.932 1_554 S
H1353 C1333 0.930 . S
H1354 C1334 0.929 . S
H1355 C1336 0.930 . S
H1356 C1338 0.932 . S
H1357 C1339 0.929 . S
H1358 C1340 0.928 . S
H1359 C1342 0.932 . S
C1360 C1361 1.264 . S
C1360 C1365 1.479 . S
C1360 C1370 1.465 . S
C1361 C1360 1.264 . S
C1361 C1363 1.339 . S
C1361 H1388 0.931 . S
C1362 C1363 1.395 . S
C1362 C1364 1.320 . S
C1363 C1361 1.339 . S
C1363 C1362 1.395 . S
C1363 H1389 0.929 . S
C1364 C1362 1.320 . S
C1364 C1365 1.405 . S
C1364 H1390 0.930 . S
C1365 C1360 1.479 . S
C1365 C1364 1.405 . S
C1365 H1391 0.931 . S
U1366 O1367 2.454 . S
U1366 O1368 2.458 . S
U1366 C1369 2.984 . S
U1366 C1370 2.847 . S
U1366 C1383 2.882 . S
U1366 O1384 2.441 . S
U1366 O1385 2.420 . S
U1366 O1386 2.455 . S
U1366 O1387 2.449 . S
O1367 U1366 2.454 . S
O1367 C1369 1.353 . S
O1368 U1366 2.458 . S
O1368 C1369 1.286 . S
C1369 U1366 2.984 . S
C1369 O1367 1.353 . S
C1369 O1368 1.286 . S
C1369 C1371 1.363 . S
C1370 C1360 1.465 . S
C1370 U1366 2.847 . S
C1370 O1384 1.249 . S
C1370 O1385 1.202 . S
C1371 C1369 1.363 . S
C1371 C1373 1.408 . S
C1371 C1376 1.342 . S
C1372 C1373 1.310 . S
C1372 C1375 1.461 . S
C1372 H1392 0.932 . S
C1373 C1371 1.408 . S
C1373 C1372 1.310 . S
C1373 H1393 0.930 . S
C1374 C1375 1.474 . S
C1374 C1376 1.285 . S
C1374 H1394 0.929 . S
C1375 C1372 1.461 . S
C1375 C1374 1.474 . S
C1376 C1371 1.342 . S
C1376 C1374 1.285 . S
C1376 H1395 0.930 . S
C1377 C1380 1.424 . S
C1377 C1382 1.245 . S
C1377 C1383 1.428 . S
C1378 C1381 1.260 . S
C1378 C1382 1.477 . S
C1378 H1396 0.932 . S
C1379 C1380 1.384 . S
C1379 C1381 1.479 . S
C1379 H1397 0.929 . S
C1380 C1377 1.424 . S
C1380 C1379 1.384 . S
C1380 H1398 0.928 . S
C1381 C1378 1.260 . S
C1381 C1379 1.479 . S
C1382 C1377 1.245 . S
C1382 C1378 1.477 . S
C1382 H1399 0.932 . S
C1383 U1366 2.882 . S
C1383 C1377 1.428 . S
C1383 O1386 1.301 . S
C1383 O1387 1.282 . S
O1384 U1366 2.441 . S
O1384 C1370 1.249 . S
O1385 U1366 2.420 . S
O1385 C1370 1.202 . S
O1386 U1366 2.455 . S
O1386 C1383 1.301 . S
O1387 U1366 2.449 . S
O1387 C1383 1.282 . S
H1388 C1361 0.931 . S
H1389 C1363 0.929 . S
H1390 C1364 0.930 . S
H1391 C1365 0.931 . S
H1392 C1372 0.932 . S
H1393 C1373 0.930 . S
H1394 C1374 0.929 . S
H1395 C1376 0.930 . S
H1396 C1378 0.932 . S
H1397 C1379 0.929 . S
H1398 C1380 0.928 . S
H1399 C1382 0.932 . S
C1400 C1401 1.264 . S
C1400 C1405 1.479 . S
C1400 C1410 1.465 . S
C1401 C1400 1.264 . S
C1401 C1403 1.339 . S
C1401 H1428 0.931 . S
C1402 C1403 1.395 . S
C1402 C1404 1.320 . S
C1403 C1401 1.339 . S
C1403 C1402 1.395 . S
C1403 H1429 0.929 . S
C1404 C1402 1.320 . S
C1404 C1405 1.405 . S
C1404 H1430 0.930 . S
C1405 C1400 1.479 . S
C1405 C1404 1.405 . S
C1405 H1431 0.931 . S
U1406 O1407 2.454 . S
U1406 O1408 2.458 . S
U1406 C1409 2.984 . S
U1406 C1410 2.847 . S
U1406 C1423 2.882 . S
U1406 O1424 2.441 . S
U1406 O1425 2.420 . S
U1406 O1426 2.455 . S
U1406 O1427 2.449 . S
O1407 U1406 2.454 . S
O1407 C1409 1.353 . S
O1408 U1406 2.458 . S
O1408 C1409 1.286 . S
C1409 U1406 2.984 . S
C1409 O1407 1.353 . S
C1409 O1408 1.286 . S
C1409 C1411 1.363 . S
C1410 C1400 1.465 . S
C1410 U1406 2.847 . S
C1410 O1424 1.249 . S
C1410 O1425 1.202 . S
C1411 C1409 1.363 . S
C1411 C1413 1.408 . S
C1411 C1416 1.342 . S
C1412 C1413 1.310 . S
C1412 C1415 1.461 . S
C1412 H1432 0.932 . S
C1413 C1411 1.408 . S
C1413 C1412 1.310 . S
C1413 H1433 0.930 . S
C1414 C1415 1.474 . S
C1414 C1416 1.285 . S
C1414 H1434 0.929 . S
C1415 C1412 1.461 . S
C1415 C1414 1.474 . S
C1416 C1411 1.342 . S
C1416 C1414 1.285 . S
C1416 H1435 0.930 . S
C1417 C1420 1.424 . S
C1417 C1422 1.245 . S
C1417 C1423 1.428 . S
C1418 C1421 1.260 . S
C1418 C1422 1.477 . S
C1418 H1436 0.932 . S
C1419 C1420 1.384 . S
C1419 C1421 1.479 . S
C1419 H1437 0.929 . S
C1420 C1417 1.424 . S
C1420 C1419 1.384 . S
C1420 H1438 0.928 . S
C1421 C1418 1.260 . S
C1421 C1419 1.479 . S
C1422 C1417 1.245 . S
C1422 C1418 1.477 . S
C1422 H1439 0.932 . S
C1423 U1406 2.882 . S
C1423 C1417 1.428 . S
C1423 O1426 1.301 . S
C1423 O1427 1.282 . S
O1424 U1406 2.441 . S
O1424 C1410 1.249 . S
O1425 U1406 2.420 . S
O1425 C1410 1.202 . S
O1426 U1406 2.455 . S
O1426 C1423 1.301 . S
O1427 U1406 2.449 . S
O1427 C1423 1.282 . S
H1428 C1401 0.931 . S
H1429 C1403 0.929 . S
H1430 C1404 0.930 . S
H1431 C1405 0.931 . S
H1432 C1412 0.932 . S
H1433 C1413 0.930 . S
H1434 C1414 0.929 . S
H1435 C1416 0.930 . S
H1436 C1418 0.932 . S
H1437 C1419 0.929 . S
H1438 C1420 0.928 . S
H1439 C1422 0.932 . S
C1440 C1441 1.264 . S
C1440 C1445 1.479 . S
C1440 C1450 1.465 . S
C1441 C1440 1.264 . S
C1441 C1443 1.339 . S
C1441 H1468 0.931 . S
C1442 C1443 1.395 . S
C1442 C1444 1.320 . S
C1443 C1441 1.339 . S
C1443 C1442 1.395 . S
C1443 H1469 0.929 . S
C1444 C1442 1.320 . S
C1444 C1445 1.405 . S
C1444 H1470 0.930 . S
C1445 C1440 1.479 . S
C1445 C1444 1.405 . S
C1445 H1471 0.931 . S
U1446 O1447 2.454 . S
U1446 O1448 2.458 . S
U1446 C1449 2.984 . S
U1446 C1450 2.847 . S
U1446 C1463 2.882 . S
U1446 O1464 2.441 . S
U1446 O1465 2.420 . S
U1446 O1466 2.455 . S
U1446 O1467 2.449 . S
O1447 U1446 2.454 . S
O1447 C1449 1.353 . S
O1448 U1446 2.458 . S
O1448 C1449 1.286 . S
C1449 U1446 2.984 . S
C1449 O1447 1.353 . S
C1449 O1448 1.286 . S
C1449 C1451 1.363 . S
C1450 C1440 1.465 . S
C1450 U1446 2.847 . S
C1450 O1464 1.249 . S
C1450 O1465 1.202 . S
C1451 C1449 1.363 . S
C1451 C1453 1.408 . S
C1451 C1456 1.342 . S
C1452 C1453 1.310 . S
C1452 C1455 1.461 . S
C1452 H1472 0.932 . S
C1453 C1451 1.408 . S
C1453 C1452 1.310 . S
C1453 H1473 0.930 . S
C1454 C1455 1.474 . S
C1454 C1456 1.285 . S
C1454 H1474 0.929 . S
C1455 C1452 1.461 . S
C1455 C1454 1.474 . S
C1456 C1451 1.342 . S
C1456 C1454 1.285 . S
C1456 H1475 0.930 . S
C1457 C1460 1.424 . S
C1457 C1462 1.245 . S
C1457 C1463 1.428 . S
C1458 C1461 1.260 . S
C1458 C1462 1.477 . S
C1458 H1476 0.932 . S
C1459 C1460 1.384 . S
C1459 C1461 1.479 . S
C1459 H1477 0.929 . S
C1460 C1457 1.424 . S
C1460 C1459 1.384 . S
C1460 H1478 0.928 . S
C1461 C1458 1.260 . S
C1461 C1459 1.479 . S
C1462 C1457 1.245 . S
C1462 C1458 1.477 . S
C1462 H1479 0.932 . S
C1463 U1446 2.882 . S
C1463 C1457 1.428 . S
C1463 O1466 1.301 . S
C1463 O1467 1.282 . S
O1464 U1446 2.441 . S
O1464 C1450 1.249 . S
O1465 U1446 2.420 . S
O1465 C1450 1.202 . S
O1466 U1446 2.455 . S
O1466 C1463 1.301 . S
O1467 U1446 2.449 . S
O1467 C1463 1.282 . S
H1468 C1441 0.931 . S
H1469 C1443 0.929 . S
H1470 C1444 0.930 . S
H1471 C1445 0.931 . S
H1472 C1452 0.932 . S
H1473 C1453 0.930 . S
H1474 C1454 0.929 . S
H1475 C1456 0.930 . S
H1476 C1458 0.932 . S
H1477 C1459 0.929 . S
H1478 C1460 0.928 . S
H1479 C1462 0.932 . S
C1480 C1481 1.264 . S
C1480 C1485 1.479 . S
C1480 C1490 1.465 . S
C1481 C1480 1.264 . S
C1481 C1483 1.339 . S
C1481 H1508 0.931 . S
C1482 C1483 1.395 . S
C1482 C1484 1.320 . S
C1483 C1481 1.339 . S
C1483 C1482 1.395 . S
C1483 H1509 0.929 . S
C1484 C1482 1.320 . S
C1484 C1485 1.405 . S
C1484 H1510 0.930 . S
C1485 C1480 1.479 . S
C1485 C1484 1.405 . S
C1485 H1511 0.931 . S
U1486 O1487 2.454 . S
U1486 O1488 2.458 . S
U1486 C1489 2.984 . S
U1486 C1490 2.847 . S
U1486 C1503 2.882 . S
U1486 O1504 2.441 . S
U1486 O1505 2.420 . S
U1486 O1506 2.455 . S
U1486 O1507 2.449 . S
O1487 U1486 2.454 . S
O1487 C1489 1.353 . S
O1488 U1486 2.458 . S
O1488 C1489 1.286 . S
C1489 U1486 2.984 . S
C1489 O1487 1.353 . S
C1489 O1488 1.286 . S
C1489 C1491 1.363 . S
C1490 C1480 1.465 . S
C1490 U1486 2.847 . S
C1490 O1504 1.249 . S
C1490 O1505 1.202 . S
C1491 C1489 1.363 . S
C1491 C1493 1.408 . S
C1491 C1496 1.342 . S
C1492 C1493 1.310 . S
C1492 C1495 1.461 . S
C1492 H1512 0.932 . S
C1493 C1491 1.408 . S
C1493 C1492 1.310 . S
C1493 H1513 0.930 . S
C1494 C1495 1.474 . S
C1494 C1496 1.285 . S
C1494 H1514 0.929 . S
C1495 C1492 1.461 . S
C1495 C1494 1.474 . S
C1496 C1491 1.342 . S
C1496 C1494 1.285 . S
C1496 H1515 0.930 . S
C1497 C1500 1.424 . S
C1497 C1502 1.245 . S
C1497 C1503 1.428 . S
C1498 C1501 1.260 . S
C1498 C1502 1.477 . S
C1498 H1516 0.932 . S
C1499 C1500 1.384 . S
C1499 C1501 1.479 . S
C1499 H1517 0.929 . S
C1500 C1497 1.424 . S
C1500 C1499 1.384 . S
C1500 H1518 0.928 . S
C1501 C1498 1.260 . S
C1501 C1499 1.479 . S
C1502 C1497 1.245 . S
C1502 C1498 1.477 . S
C1502 H1519 0.932 . S
C1503 U1486 2.882 . S
C1503 C1497 1.428 . S
C1503 O1506 1.301 . S
C1503 O1507 1.282 . S
O1504 U1486 2.441 . S
O1504 C1490 1.249 . S
O1505 U1486 2.420 . S
O1505 C1490 1.202 . S
O1506 U1486 2.455 . S
O1506 C1503 1.301 . S
O1507 U1486 2.449 . S
O1507 C1503 1.282 . S
H1508 C1481 0.931 . S
H1509 C1483 0.929 . S
H1510 C1484 0.930 . S
H1511 C1485 0.931 . S
H1512 C1492 0.932 . S
H1513 C1493 0.930 . S
H1514 C1494 0.929 . S
H1515 C1496 0.930 . S
H1516 C1498 0.932 . S
H1517 C1499 0.929 . S
H1518 C1500 0.928 . S
H1519 C1502 0.932 . S
C1520 C1521 1.264 . S
C1520 C1525 1.479 . S
C1520 C1530 1.465 . S
C1521 C1520 1.264 . S
C1521 C1523 1.339 . S
C1521 H1548 0.931 . S
C1522 C1523 1.395 . S
C1522 C1524 1.320 . S
C1523 C1521 1.339 . S
C1523 C1522 1.395 . S
C1523 H1549 0.929 . S
C1524 C1522 1.320 . S
C1524 C1525 1.405 . S
C1524 H1550 0.930 . S
C1525 C1520 1.479 . S
C1525 C1524 1.405 . S
C1525 H1551 0.931 . S
U1526 O1527 2.454 . S
U1526 O1528 2.458 . S
U1526 C1529 2.984 . S
U1526 C1530 2.847 . S
U1526 C1543 2.882 . S
U1526 O1544 2.441 . S
U1526 O1545 2.420 . S
U1526 O1546 2.455 . S
U1526 O1547 2.449 . S
O1527 U1526 2.454 . S
O1527 C1529 1.353 . S
O1528 U1526 2.458 . S
O1528 C1529 1.286 . S
C1529 U1526 2.984 . S
C1529 O1527 1.353 . S
C1529 O1528 1.286 . S
C1529 C1531 1.363 . S
C1530 C1520 1.465 . S
C1530 U1526 2.847 . S
C1530 O1544 1.249 . S
C1530 O1545 1.202 . S
C1531 C1529 1.363 . S
C1531 C1533 1.408 . S
C1531 C1536 1.342 . S
C1532 C1533 1.310 . S
C1532 C1535 1.461 . S
C1532 H1552 0.932 . S
C1533 C1531 1.408 . S
C1533 C1532 1.310 . S
C1533 H1553 0.930 . S
C1534 C1535 1.474 . S
C1534 C1536 1.285 . S
C1534 H1554 0.929 . S
C1535 C1532 1.461 . S
C1535 C1534 1.474 . S
C1536 C1531 1.342 . S
C1536 C1534 1.285 . S
C1536 H1555 0.930 . S
C1537 C1540 1.424 . S
C1537 C1542 1.245 . S
C1537 C1543 1.428 . S
C1538 C1541 1.260 . S
C1538 C1542 1.477 . S
C1538 H1556 0.932 . S
C1539 C1540 1.384 . S
C1539 C1541 1.479 . S
C1539 H1557 0.929 . S
C1540 C1537 1.424 . S
C1540 C1539 1.384 . S
C1540 H1558 0.928 . S
C1541 C1538 1.260 . S
C1541 C1539 1.479 . S
C1542 C1537 1.245 . S
C1542 C1538 1.477 . S
C1542 H1559 0.932 . S
C1543 U1526 2.882 . S
C1543 C1537 1.428 . S
C1543 O1546 1.301 . S
C1543 O1547 1.282 . S
O1544 U1526 2.441 . S
O1544 C1530 1.249 . S
O1545 U1526 2.420 . S
O1545 C1530 1.202 . S
O1546 U1526 2.455 . S
O1546 C1543 1.301 . S
O1547 U1526 2.449 . S
O1547 C1543 1.282 . S
H1548 C1521 0.931 . S
H1549 C1523 0.929 . S
H1550 C1524 0.930 . S
H1551 C1525 0.931 . S
H1552 C1532 0.932 . S
H1553 C1533 0.930 . S
H1554 C1534 0.929 . S
H1555 C1536 0.930 . S
H1556 C1538 0.932 . S
H1557 C1539 0.929 . S
H1558 C1540 0.928 . S
H1559 C1542 0.932 . S
C1560 C1561 1.264 . S
C1560 C1565 1.479 . S
C1560 C1570 1.465 . S
C1561 C1560 1.264 . S
C1561 C1563 1.339 . S
C1561 H1588 0.931 . S
C1562 C1563 1.395 . S
C1562 C1564 1.320 . S
C1563 C1561 1.339 . S
C1563 C1562 1.395 . S
C1563 H1589 0.929 . S
C1564 C1562 1.320 . S
C1564 C1565 1.405 . S
C1564 H1590 0.930 . S
C1565 C1560 1.479 . S
C1565 C1564 1.405 . S
C1565 H1591 0.931 . S
U1566 O1567 2.454 . S
U1566 O1568 2.458 . S
U1566 C1569 2.984 . S
U1566 C1570 2.847 . S
U1566 C1583 2.882 . S
U1566 O1584 2.441 . S
U1566 O1585 2.420 . S
U1566 O1586 2.455 . S
U1566 O1587 2.449 . S
O1567 U1566 2.454 . S
O1567 C1569 1.353 . S
O1568 U1566 2.458 . S
O1568 C1569 1.286 . S
C1569 U1566 2.984 . S
C1569 O1567 1.353 . S
C1569 O1568 1.286 . S
C1569 C1571 1.363 . S
C1570 C1560 1.465 . S
C1570 U1566 2.847 . S
C1570 O1584 1.249 . S
C1570 O1585 1.202 . S
C1571 C1569 1.363 . S
C1571 C1573 1.408 . S
C1571 C1576 1.342 . S
C1572 C1573 1.310 . S
C1572 C1575 1.461 . S
C1572 H1592 0.932 . S
C1573 C1571 1.408 . S
C1573 C1572 1.310 . S
C1573 H1593 0.930 . S
C1574 C1575 1.474 . S
C1574 C1576 1.285 . S
C1574 H1594 0.929 . S
C1575 C1572 1.461 . S
C1575 C1574 1.474 . S
C1576 C1571 1.342 . S
C1576 C1574 1.285 . S
C1576 H1595 0.930 . S
C1577 C1580 1.424 . S
C1577 C1582 1.245 . S
C1577 C1583 1.428 . S
C1578 C1581 1.260 . S
C1578 C1582 1.477 . S
C1578 H1596 0.932 . S
C1579 C1580 1.384 . S
C1579 C1581 1.479 . S
C1579 H1597 0.929 . S
C1580 C1577 1.424 . S
C1580 C1579 1.384 . S
C1580 H1598 0.928 . S
C1581 C1578 1.260 . S
C1581 C1579 1.479 . S
C1582 C1577 1.245 . S
C1582 C1578 1.477 . S
C1582 H1599 0.932 . S
C1583 U1566 2.882 . S
C1583 C1577 1.428 . S
C1583 O1586 1.301 . S
C1583 O1587 1.282 . S
O1584 U1566 2.441 . S
O1584 C1570 1.249 . S
O1585 U1566 2.420 . S
O1585 C1570 1.202 . S
O1586 U1566 2.455 . S
O1586 C1583 1.301 . S
O1587 U1566 2.449 . S
O1587 C1583 1.282 . S
H1588 C1561 0.931 . S
H1589 C1563 0.929 . S
H1590 C1564 0.930 . S
H1591 C1565 0.931 . S
H1592 C1572 0.932 . S
H1593 C1573 0.930 . S
H1594 C1574 0.929 . S
H1595 C1576 0.930 . S
H1596 C1578 0.932 . S
H1597 C1579 0.929 . S
H1598 C1580 0.928 . S
H1599 C1582 0.932 . S
C1600 C1601 1.264 . S
C1600 C1605 1.479 . S
C1600 C1610 1.465 . S
C1601 C1600 1.264 . S
C1601 C1603 1.339 . S
C1601 H1628 0.931 . S
C1602 C1603 1.395 . S
C1602 C1604 1.320 . S
C1603 C1601 1.339 . S
C1603 C1602 1.395 . S
C1603 H1629 0.929 . S
C1604 C1602 1.320 . S
C1604 C1605 1.405 . S
C1604 H1630 0.930 . S
C1605 C1600 1.479 . S
C1605 C1604 1.405 . S
C1605 H1631 0.931 . S
U1606 O1607 2.454 1_455 S
U1606 O1608 2.458 . S
U1606 C1609 2.984 . S
U1606 C1610 2.847 1_455 S
U1606 C1623 2.882 . S
U1606 O1624 2.441 1_455 S
U1606 O1625 2.420 1_455 S
U1606 O1626 2.455 . S
U1606 O1627 2.449 . S
O1607 U1606 2.454 1_655 S
O1607 C1609 1.353 1_655 S
O1608 U1606 2.458 . S
O1608 C1609 1.286 . S
C1609 U1606 2.984 . S
C1609 O1607 1.353 1_455 S
C1609 O1608 1.286 . S
C1609 C1611 1.363 . S
C1610 C1600 1.465 . S
C1610 U1606 2.847 1_655 S
C1610 O1624 1.249 . S
C1610 O1625 1.202 . S
C1611 C1609 1.363 . S
C1611 C1613 1.441 . S
C1611 C1616 1.342 . S
C1612 C1613 1.316 . S
C1612 C1615 1.461 . S
C1612 H1632 0.932 1_455 S
C1613 C1611 1.441 . S
C1613 C1612 1.316 . S
C1613 H1633 0.894 1_455 S
C1614 C1615 1.474 . S
C1614 C1616 1.285 . S
C1614 H1634 0.929 . S
C1615 C1612 1.461 . S
C1615 C1614 1.474 . S
C1616 C1611 1.342 . S
C1616 C1614 1.285 . S
C1616 H1635 0.930 . S
C1617 C1620 1.424 . S
C1617 C1622 1.245 . S
C1617 C1623 1.428 . S
C1618 C1621 1.260 . S
C1618 C1622 1.477 . S
C1618 H1636 0.932 . S
C1619 C1620 1.384 . S
C1619 C1621 1.479 . S
C1619 H1637 0.929 . S
C1620 C1617 1.424 . S
C1620 C1619 1.384 . S
C1620 H1638 0.928 . S
C1621 C1618 1.260 . S
C1621 C1619 1.479 . S
C1622 C1617 1.245 . S
C1622 C1618 1.477 . S
C1622 H1639 0.932 . S
C1623 U1606 2.882 . S
C1623 C1617 1.428 . S
C1623 O1626 1.301 . S
C1623 O1627 1.282 . S
O1624 U1606 2.441 1_655 S
O1624 C1610 1.249 . S
O1625 U1606 2.420 1_655 S
O1625 C1610 1.202 . S
O1626 U1606 2.455 . S
O1626 C1623 1.301 . S
O1627 U1606 2.449 . S
O1627 C1623 1.282 . S
H1628 C1601 0.931 . S
H1629 C1603 0.929 . S
H1630 C1604 0.930 . S
H1631 C1605 0.931 . S
H1632 C1612 0.932 1_655 S
H1633 C1613 0.894 1_655 S
H1634 C1614 0.929 . S
H1635 C1616 0.930 . S
H1636 C1618 0.932 . S
H1637 C1619 0.929 . S
H1638 C1620 0.928 . S
H1639 C1622 0.932 . S
C1640 C1641 1.264 . S
C1640 C1645 1.479 . S
C1640 C1650 1.465 . S
C1641 C1640 1.264 . S
C1641 C1643 1.339 . S
C1641 H1668 0.931 . S
C1642 C1643 1.395 . S
C1642 C1644 1.320 . S
C1643 C1641 1.339 . S
C1643 C1642 1.395 . S
C1643 H1669 0.929 . S
C1644 C1642 1.320 . S
C1644 C1645 1.405 . S
C1644 H1670 0.930 . S
C1645 C1640 1.479 . S
C1645 C1644 1.405 . S
C1645 H1671 0.931 . S
U1646 O1647 2.454 . S
U1646 O1648 2.458 . S
U1646 C1649 2.984 . S
U1646 C1650 2.847 . S
U1646 C1663 2.882 . S
U1646 O1664 2.441 . S
U1646 O1665 2.420 . S
U1646 O1666 2.455 . S
U1646 O1667 2.449 . S
O1647 U1646 2.454 . S
O1647 C1649 1.353 . S
O1648 U1646 2.458 . S
O1648 C1649 1.286 . S
C1649 U1646 2.984 . S
C1649 O1647 1.353 . S
C1649 O1648 1.286 . S
C1649 C1651 1.363 . S
C1650 C1640 1.465 . S
C1650 U1646 2.847 . S
C1650 O1664 1.249 . S
C1650 O1665 1.202 . S
C1651 C1649 1.363 . S
C1651 C1653 1.408 . S
C1651 C1656 1.342 . S
C1652 C1653 1.310 . S
C1652 C1655 1.461 . S
C1652 H1672 0.932 . S
C1653 C1651 1.408 . S
C1653 C1652 1.310 . S
C1653 H1673 0.930 . S
C1654 C1655 1.474 . S
C1654 C1656 1.285 . S
C1654 H1674 0.929 . S
C1655 C1652 1.461 . S
C1655 C1654 1.474 . S
C1656 C1651 1.342 . S
C1656 C1654 1.285 . S
C1656 H1675 0.930 . S
C1657 C1660 1.424 . S
C1657 C1662 1.245 . S
C1657 C1663 1.428 . S
C1658 C1661 1.260 . S
C1658 C1662 1.477 . S
C1658 H1676 0.932 . S
C1659 C1660 1.384 . S
C1659 C1661 1.479 . S
C1659 H1677 0.929 . S
C1660 C1657 1.424 . S
C1660 C1659 1.384 . S
C1660 H1678 0.928 . S
C1661 C1658 1.260 . S
C1661 C1659 1.479 . S
C1662 C1657 1.245 . S
C1662 C1658 1.477 . S
C1662 H1679 0.932 . S
C1663 U1646 2.882 . S
C1663 C1657 1.428 . S
C1663 O1666 1.301 . S
C1663 O1667 1.282 . S
O1664 U1646 2.441 . S
O1664 C1650 1.249 . S
O1665 U1646 2.420 . S
O1665 C1650 1.202 . S
O1666 U1646 2.455 . S
O1666 C1663 1.301 . S
O1667 U1646 2.449 . S
O1667 C1663 1.282 . S
H1668 C1641 0.931 . S
H1669 C1643 0.929 . S
H1670 C1644 0.930 . S
H1671 C1645 0.931 . S
H1672 C1652 0.932 . S
H1673 C1653 0.930 . S
H1674 C1654 0.929 . S
H1675 C1656 0.930 . S
H1676 C1658 0.932 . S
H1677 C1659 0.929 . S
H1678 C1660 0.928 . S
H1679 C1662 0.932 . S
C1680 C1681 1.264 . S
C1680 C1685 1.479 . S
C1680 C1690 1.465 . S
C1681 C1680 1.264 . S
C1681 C1683 1.339 . S
C1681 H1708 0.931 . S
C1682 C1683 1.395 . S
C1682 C1684 1.320 . S
C1683 C1681 1.339 . S
C1683 C1682 1.395 . S
C1683 H1709 0.929 . S
C1684 C1682 1.320 . S
C1684 C1685 1.405 . S
C1684 H1710 0.930 . S
C1685 C1680 1.479 . S
C1685 C1684 1.405 . S
C1685 H1711 0.931 . S
U1686 O1687 2.454 . S
U1686 O1688 2.458 . S
U1686 C1689 2.984 . S
U1686 C1690 2.847 . S
U1686 C1703 2.882 . S
U1686 O1704 2.441 . S
U1686 O1705 2.420 . S
U1686 O1706 2.455 . S
U1686 O1707 2.449 . S
O1687 U1686 2.454 . S
O1687 C1689 1.353 . S
O1688 U1686 2.458 . S
O1688 C1689 1.286 . S
C1689 U1686 2.984 . S
C1689 O1687 1.353 . S
C1689 O1688 1.286 . S
C1689 C1691 1.363 1_554 S
C1690 C1680 1.465 . S
C1690 U1686 2.847 . S
C1690 O1704 1.249 . S
C1690 O1705 1.202 . S
C1691 C1689 1.363 1_556 S
C1691 C1693 1.408 . S
C1691 C1696 1.342 . S
C1692 C1693 1.310 . S
C1692 C1695 1.461 . S
C1692 H1712 0.932 . S
C1693 C1691 1.408 . S
C1693 C1692 1.310 . S
C1693 H1713 0.930 . S
C1694 C1695 1.474 . S
C1694 C1696 1.285 . S
C1694 H1714 0.929 . S
C1695 C1692 1.461 . S
C1695 C1694 1.474 . S
C1696 C1691 1.342 . S
C1696 C1694 1.285 . S
C1696 H1715 0.930 . S
C1697 C1700 1.424 . S
C1697 C1702 1.245 . S
C1697 C1703 1.428 . S
C1698 C1701 1.260 . S
C1698 C1702 1.477 . S
C1698 H1716 0.932 . S
C1699 C1700 1.384 . S
C1699 C1701 1.479 . S
C1699 H1717 0.929 . S
C1700 C1697 1.424 . S
C1700 C1699 1.384 . S
C1700 H1718 0.928 . S
C1701 C1698 1.260 . S
C1701 C1699 1.479 . S
C1702 C1697 1.245 . S
C1702 C1698 1.477 . S
C1702 H1719 0.932 . S
C1703 U1686 2.882 . S
C1703 C1697 1.428 . S
C1703 O1706 1.301 . S
C1703 O1707 1.282 . S
O1704 U1686 2.441 . S
O1704 C1690 1.249 . S
O1705 U1686 2.420 . S
O1705 C1690 1.202 . S
O1706 U1686 2.455 . S
O1706 C1703 1.301 . S
O1707 U1686 2.449 . S
O1707 C1703 1.282 . S
H1708 C1681 0.931 . S
H1709 C1683 0.929 . S
H1710 C1684 0.930 . S
H1711 C1685 0.931 . S
H1712 C1692 0.932 . S
H1713 C1693 0.930 . S
H1714 C1694 0.929 . S
H1715 C1696 0.930 . S
H1716 C1698 0.932 . S
H1717 C1699 0.929 . S
H1718 C1700 0.928 . S
H1719 C1702 0.932 . S
C1720 C1721 1.264 . S
C1720 C1725 1.479 . S
C1720 C1730 1.465 . S
C1721 C1720 1.264 . S
C1721 C1723 1.339 . S
C1721 H1748 0.931 . S
C1722 C1723 1.395 . S
C1722 C1724 1.320 . S
C1723 C1721 1.339 . S
C1723 C1722 1.395 . S
C1723 H1749 0.929 . S
C1724 C1722 1.320 . S
C1724 C1725 1.405 . S
C1724 H1750 0.930 . S
C1725 C1720 1.479 . S
C1725 C1724 1.405 . S
C1725 H1751 0.931 . S
U1726 O1727 2.454 . S
U1726 O1728 2.458 . S
U1726 C1729 2.984 . S
U1726 C1730 2.847 . S
U1726 C1743 2.882 . S
U1726 O1744 2.441 . S
U1726 O1745 2.420 . S
U1726 O1746 2.455 . S
U1726 O1747 2.449 . S
O1727 U1726 2.454 . S
O1727 C1729 1.353 . S
O1728 U1726 2.458 . S
O1728 C1729 1.286 . S
C1729 U1726 2.984 . S
C1729 O1727 1.353 . S
C1729 O1728 1.286 . S
C1729 C1731 1.363 . S
C1730 C1720 1.465 . S
C1730 U1726 2.847 . S
C1730 O1744 1.249 . S
C1730 O1745 1.202 . S
C1731 C1729 1.363 . S
C1731 C1733 1.408 . S
C1731 C1736 1.342 . S
C1732 C1733 1.310 . S
C1732 C1735 1.461 . S
C1732 H1752 0.932 . S
C1733 C1731 1.408 . S
C1733 C1732 1.310 . S
C1733 H1753 0.930 . S
C1734 C1735 1.474 . S
C1734 C1736 1.285 . S
C1734 H1754 0.929 . S
C1735 C1732 1.461 . S
C1735 C1734 1.474 . S
C1736 C1731 1.342 . S
C1736 C1734 1.285 . S
C1736 H1755 0.930 . S
C1737 C1740 1.424 . S
C1737 C1742 1.245 . S
C1737 C1743 1.428 . S
C1738 C1741 1.260 . S
C1738 C1742 1.477 . S
C1738 H1756 0.932 . S
C1739 C1740 1.384 . S
C1739 C1741 1.479 . S
C1739 H1757 0.929 . S
C1740 C1737 1.424 . S
C1740 C1739 1.384 . S
C1740 H1758 0.928 . S
C1741 C1738 1.260 . S
C1741 C1739 1.479 . S
C1742 C1737 1.245 . S
C1742 C1738 1.477 . S
C1742 H1759 0.932 . S
C1743 U1726 2.882 . S
C1743 C1737 1.428 . S
C1743 O1746 1.301 . S
C1743 O1747 1.282 . S
O1744 U1726 2.441 . S
O1744 C1730 1.249 . S
O1745 U1726 2.420 . S
O1745 C1730 1.202 . S
O1746 U1726 2.455 . S
O1746 C1743 1.301 . S
O1747 U1726 2.449 . S
O1747 C1743 1.282 . S
H1748 C1721 0.931 . S
H1749 C1723 0.929 . S
H1750 C1724 0.930 . S
H1751 C1725 0.931 . S
H1752 C1732 0.932 . S
H1753 C1733 0.930 . S
H1754 C1734 0.929 . S
H1755 C1736 0.930 . S
H1756 C1738 0.932 . S
H1757 C1739 0.929 . S
H1758 C1740 0.928 . S
H1759 C1742 0.932 . S
C1760 C1761 1.264 . S
C1760 C1765 1.479 . S
C1760 C1770 1.465 . S
C1761 C1760 1.264 . S
C1761 C1763 1.339 . S
C1761 H1788 0.931 . S
C1762 C1763 1.395 . S
C1762 C1764 1.320 . S
C1763 C1761 1.339 . S
C1763 C1762 1.395 . S
C1763 H1789 0.929 . S
C1764 C1762 1.320 . S
C1764 C1765 1.405 . S
C1764 H1790 0.930 . S
C1765 C1760 1.479 . S
C1765 C1764 1.405 . S
C1765 H1791 0.931 . S
U1766 O1767 2.454 . S
U1766 O1768 2.458 . S
U1766 C1769 2.984 . S
U1766 C1770 2.847 . S
U1766 C1783 2.882 . S
U1766 O1784 2.441 . S
U1766 O1785 2.420 . S
U1766 O1786 2.455 . S
U1766 O1787 2.449 . S
O1767 U1766 2.454 . S
O1767 C1769 1.353 . S
O1768 U1766 2.458 . S
O1768 C1769 1.286 . S
C1769 U1766 2.984 . S
C1769 O1767 1.353 . S
C1769 O1768 1.286 . S
C1769 C1771 1.363 . S
C1770 C1760 1.465 . S
C1770 U1766 2.847 . S
C1770 O1784 1.249 . S
C1770 O1785 1.202 . S
C1771 C1769 1.363 . S
C1771 C1773 1.408 . S
C1771 C1776 1.342 . S
C1772 C1773 1.310 . S
C1772 C1775 1.461 . S
C1772 H1792 0.932 . S
C1773 C1771 1.408 . S
C1773 C1772 1.310 . S
C1773 H1793 0.930 . S
C1774 C1775 1.474 . S
C1774 C1776 1.285 . S
C1774 H1794 0.929 . S
C1775 C1772 1.461 . S
C1775 C1774 1.474 . S
C1776 C1771 1.342 . S
C1776 C1774 1.285 . S
C1776 H1795 0.930 . S
C1777 C1780 1.424 . S
C1777 C1782 1.245 . S
C1777 C1783 1.428 . S
C1778 C1781 1.260 . S
C1778 C1782 1.477 . S
C1778 H1796 0.932 . S
C1779 C1780 1.384 . S
C1779 C1781 1.479 . S
C1779 H1797 0.929 . S
C1780 C1777 1.424 . S
C1780 C1779 1.384 . S
C1780 H1798 0.928 . S
C1781 C1778 1.260 . S
C1781 C1779 1.479 . S
C1782 C1777 1.245 . S
C1782 C1778 1.477 . S
C1782 H1799 0.932 . S
C1783 U1766 2.882 . S
C1783 C1777 1.428 . S
C1783 O1786 1.301 . S
C1783 O1787 1.282 . S
O1784 U1766 2.441 . S
O1784 C1770 1.249 . S
O1785 U1766 2.420 . S
O1785 C1770 1.202 . S
O1786 U1766 2.455 . S
O1786 C1783 1.301 . S
O1787 U1766 2.449 . S
O1787 C1783 1.282 . S
H1788 C1761 0.931 . S
H1789 C1763 0.929 . S
H1790 C1764 0.930 . S
H1791 C1765 0.931 . S
H1792 C1772 0.932 . S
H1793 C1773 0.930 . S
H1794 C1774 0.929 . S
H1795 C1776 0.930 . S
H1796 C1778 0.932 . S
H1797 C1779 0.929 . S
H1798 C1780 0.928 . S
H1799 C1782 0.932 . S
C1800 C1801 1.264 . S
C1800 C1805 1.479 . S
C1800 C1810 1.465 . S
C1801 C1800 1.264 . S
C1801 C1803 1.339 . S
C1801 H1828 0.931 . S
C1802 C1803 1.395 . S
C1802 C1804 1.320 . S
C1803 C1801 1.339 . S
C1803 C1802 1.395 . S
C1803 H1829 0.929 . S
C1804 C1802 1.320 . S
C1804 C1805 1.405 . S
C1804 H1830 0.930 . S
C1805 C1800 1.479 . S
C1805 C1804 1.405 . S
C1805 H1831 0.931 . S
U1806 O1807 2.454 . S
U1806 O1808 2.458 . S
U1806 C1809 2.984 . S
U1806 C1810 2.847 . S
U1806 C1823 2.882 . S
U1806 O1824 2.441 . S
U1806 O1825 2.420 . S
U1806 O1826 2.455 . S
U1806 O1827 2.449 . S
O1807 U1806 2.454 . S
O1807 C1809 1.353 . S
O1808 U1806 2.458 . S
O1808 C1809 1.286 . S
C1809 U1806 2.984 . S
C1809 O1807 1.353 . S
C1809 O1808 1.286 . S
C1809 C1811 1.363 . S
C1810 C1800 1.465 . S
C1810 U1806 2.847 . S
C1810 O1824 1.249 . S
C1810 O1825 1.202 . S
C1811 C1809 1.363 . S
C1811 C1813 1.408 . S
C1811 C1816 1.342 . S
C1812 C1813 1.310 . S
C1812 C1815 1.461 . S
C1812 H1832 0.932 . S
C1813 C1811 1.408 . S
C1813 C1812 1.310 . S
C1813 H1833 0.930 . S
C1814 C1815 1.474 . S
C1814 C1816 1.285 . S
C1814 H1834 0.929 . S
C1815 C1812 1.461 . S
C1815 C1814 1.474 . S
C1816 C1811 1.342 . S
C1816 C1814 1.285 . S
C1816 H1835 0.930 . S
C1817 C1820 1.424 . S
C1817 C1822 1.245 . S
C1817 C1823 1.428 . S
C1818 C1821 1.260 . S
C1818 C1822 1.477 . S
C1818 H1836 0.932 . S
C1819 C1820 1.384 . S
C1819 C1821 1.479 . S
C1819 H1837 0.929 . S
C1820 C1817 1.424 . S
C1820 C1819 1.384 . S
C1820 H1838 0.928 . S
C1821 C1818 1.260 . S
C1821 C1819 1.479 . S
C1822 C1817 1.245 . S
C1822 C1818 1.477 . S
C1822 H1839 0.932 . S
C1823 U1806 2.882 . S
C1823 C1817 1.428 . S
C1823 O1826 1.301 . S
C1823 O1827 1.282 . S
O1824 U1806 2.441 . S
O1824 C1810 1.249 . S
O1825 U1806 2.420 . S
O1825 C1810 1.202 . S
O1826 U1806 2.455 . S
O1826 C1823 1.301 . S
O1827 U1806 2.449 . S
O1827 C1823 1.282 . S
H1828 C1801 0.931 . S
H1829 C1803 0.929 . S
H1830 C1804 0.930 . S
H1831 C1805 0.931 . S
H1832 C1812 0.932 . S
H1833 C1813 0.930 . S
H1834 C1814 0.929 . S
H1835 C1816 0.930 . S
H1836 C1818 0.932 . S
H1837 C1819 0.929 . S
H1838 C1820 0.928 . S
H1839 C1822 0.932 . S
C1840 C1841 1.264 . S
C1840 C1845 1.479 . S
C1840 C1850 1.465 . S
C1841 C1840 1.264 . S
C1841 C1843 1.339 . S
C1841 H1868 0.931 . S
C1842 C1843 1.395 . S
C1842 C1844 1.320 . S
C1843 C1841 1.339 . S
C1843 C1842 1.395 . S
C1843 H1869 0.929 . S
C1844 C1842 1.320 . S
C1844 C1845 1.405 . S
C1844 H1870 0.930 . S
C1845 C1840 1.479 . S
C1845 C1844 1.405 . S
C1845 H1871 0.931 . S
U1846 O1847 2.454 . S
U1846 O1848 2.458 . S
U1846 C1849 2.984 . S
U1846 C1850 2.847 . S
U1846 C1863 2.882 . S
U1846 O1864 2.441 . S
U1846 O1865 2.420 . S
U1846 O1866 2.455 . S
U1846 O1867 2.449 . S
O1847 U1846 2.454 . S
O1847 C1849 1.353 . S
O1848 U1846 2.458 . S
O1848 C1849 1.286 . S
C1849 U1846 2.984 . S
C1849 O1847 1.353 . S
C1849 O1848 1.286 . S
C1849 C1851 1.363 . S
C1850 C1840 1.465 . S
C1850 U1846 2.847 . S
C1850 O1864 1.249 . S
C1850 O1865 1.202 . S
C1851 C1849 1.363 . S
C1851 C1853 1.408 . S
C1851 C1856 1.342 . S
C1852 C1853 1.310 . S
C1852 C1855 1.461 . S
C1852 H1872 0.932 . S
C1853 C1851 1.408 . S
C1853 C1852 1.310 . S
C1853 H1873 0.930 . S
C1854 C1855 1.474 . S
C1854 C1856 1.285 . S
C1854 H1874 0.929 . S
C1855 C1852 1.461 . S
C1855 C1854 1.474 . S
C1856 C1851 1.342 . S
C1856 C1854 1.285 . S
C1856 H1875 0.930 . S
C1857 C1860 1.424 . S
C1857 C1862 1.245 . S
C1857 C1863 1.428 . S
C1858 C1861 1.260 . S
C1858 C1862 1.477 . S
C1858 H1876 0.932 . S
C1859 C1860 1.384 . S
C1859 C1861 1.479 . S
C1859 H1877 0.929 . S
C1860 C1857 1.424 . S
C1860 C1859 1.384 . S
C1860 H1878 0.928 . S
C1861 C1858 1.260 . S
C1861 C1859 1.479 . S
C1862 C1857 1.245 . S
C1862 C1858 1.477 . S
C1862 H1879 0.932 . S
C1863 U1846 2.882 . S
C1863 C1857 1.428 . S
C1863 O1866 1.301 . S
C1863 O1867 1.282 . S
O1864 U1846 2.441 . S
O1864 C1850 1.249 . S
O1865 U1846 2.420 . S
O1865 C1850 1.202 . S
O1866 U1846 2.455 . S
O1866 C1863 1.301 . S
O1867 U1846 2.449 . S
O1867 C1863 1.282 . S
H1868 C1841 0.931 . S
H1869 C1843 0.929 . S
H1870 C1844 0.930 . S
H1871 C1845 0.931 . S
H1872 C1852 0.932 . S
H1873 C1853 0.930 . S
H1874 C1854 0.929 . S
H1875 C1856 0.930 . S
H1876 C1858 0.932 . S
H1877 C1859 0.929 . S
H1878 C1860 0.928 . S
H1879 C1862 0.932 . S
C1880 C1881 1.264 . S
C1880 C1885 1.479 . S
C1880 C1890 1.465 . S
C1881 C1880 1.264 . S
C1881 C1883 1.339 . S
C1881 H1908 0.931 . S
C1882 C1883 1.395 . S
C1882 C1884 1.320 . S
C1883 C1881 1.339 . S
C1883 C1882 1.395 . S
C1883 H1909 0.929 . S
C1884 C1882 1.320 . S
C1884 C1885 1.405 . S
C1884 H1910 0.930 . S
C1885 C1880 1.479 . S
C1885 C1884 1.405 . S
C1885 H1911 0.931 . S
U1886 O1887 2.454 . S
U1886 O1888 2.458 . S
U1886 C1889 2.984 . S
U1886 C1890 2.847 . S
U1886 C1903 2.882 . S
U1886 O1904 2.441 . S
U1886 O1905 2.420 . S
U1886 O1906 2.455 . S
U1886 O1907 2.449 . S
O1887 U1886 2.454 . S
O1887 C1889 1.353 . S
O1888 U1886 2.458 . S
O1888 C1889 1.286 . S
C1889 U1886 2.984 . S
C1889 O1887 1.353 . S
C1889 O1888 1.286 . S
C1889 C1891 1.363 . S
C1890 C1880 1.465 . S
C1890 U1886 2.847 . S
C1890 O1904 1.249 . S
C1890 O1905 1.202 . S
C1891 C1889 1.363 . S
C1891 C1893 1.408 . S
C1891 C1896 1.342 . S
C1892 C1893 1.310 . S
C1892 C1895 1.461 . S
C1892 H1912 0.932 . S
C1893 C1891 1.408 . S
C1893 C1892 1.310 . S
C1893 H1913 0.930 . S
C1894 C1895 1.474 . S
C1894 C1896 1.285 . S
C1894 H1914 0.929 . S
C1895 C1892 1.461 . S
C1895 C1894 1.474 . S
C1896 C1891 1.342 . S
C1896 C1894 1.285 . S
C1896 H1915 0.930 . S
C1897 C1900 1.424 . S
C1897 C1902 1.245 . S
C1897 C1903 1.428 . S
C1898 C1901 1.260 . S
C1898 C1902 1.477 . S
C1898 H1916 0.932 . S
C1899 C1900 1.384 . S
C1899 C1901 1.479 . S
C1899 H1917 0.929 . S
C1900 C1897 1.424 . S
C1900 C1899 1.384 . S
C1900 H1918 0.928 . S
C1901 C1898 1.260 . S
C1901 C1899 1.479 . S
C1902 C1897 1.245 . S
C1902 C1898 1.477 . S
C1902 H1919 0.932 . S
C1903 U1886 2.882 . S
C1903 C1897 1.428 . S
C1903 O1906 1.301 . S
C1903 O1907 1.282 . S
O1904 U1886 2.441 . S
O1904 C1890 1.249 . S
O1905 U1886 2.420 . S
O1905 C1890 1.202 . S
O1906 U1886 2.455 . S
O1906 C1903 1.301 . S
O1907 U1886 2.449 . S
O1907 C1903 1.282 . S
H1908 C1881 0.931 . S
H1909 C1883 0.929 . S
H1910 C1884 0.930 . S
H1911 C1885 0.931 . S
H1912 C1892 0.932 . S
H1913 C1893 0.930 . S
H1914 C1894 0.929 . S
H1915 C1896 0.930 . S
H1916 C1898 0.932 . S
H1917 C1899 0.929 . S
H1918 C1900 0.928 . S
H1919 C1902 0.932 . S
H1920 C1925 0.930 . S
H1921 C1928 0.930 . S
H1922 C1930 0.930 . S
H1923 C1924 1.016 . S
C1924 H1923 1.016 . S
C1924 N1931 1.286 . S
C1925 H1920 0.930 . S
C1925 C1926 1.397 . S
C1925 C1927 1.361 . S
C1926 C1925 1.397 . S
C1926 C1930 1.390 . S
C1927 C1925 1.361 . S
C1927 C1928 1.393 . S
C1927 N1931 1.413 . S
C1928 H1921 0.930 . S
C1928 C1927 1.393 . S
C1928 C1929 1.399 . S
C1929 C1928 1.399 . S
C1929 C1930 1.381 . S
C1930 H1922 0.930 . S
C1930 C1926 1.390 . S
C1930 C1929 1.381 . S
N1931 C1924 1.286 . S
N1931 C1927 1.413 . S
H1932 C1937 0.930 . S
H1933 C1940 0.930 . S
H1934 C1942 0.930 . S
H1935 C1936 1.016 . S
C1936 H1935 1.016 . S
C1936 N1943 1.286 . S
C1937 H1932 0.930 . S
C1937 C1938 1.397 . S
C1937 C1939 1.361 . S
C1938 C1937 1.397 . S
C1938 C1942 1.390 . S
C1939 C1937 1.361 . S
C1939 C1940 1.393 . S
C1939 N1943 1.413 . S
C1940 H1933 0.930 . S
C1940 C1939 1.393 . S
C1940 C1941 1.399 . S
C1941 C1940 1.399 . S
C1941 C1942 1.381 . S
C1942 H1934 0.930 . S
C1942 C1938 1.390 . S
C1942 C1941 1.381 . S
N1943 C1936 1.286 . S
N1943 C1939 1.413 . S
H1944 C1949 0.930 . S
H1945 C1952 0.930 . S
H1946 C1954 0.930 . S
H1947 C1948 1.016 . S
C1948 H1947 1.016 . S
C1948 N1955 1.286 . S
C1949 H1944 0.930 . S
C1949 C1950 1.397 . S
C1949 C1951 1.361 . S
C1950 C1949 1.397 . S
C1950 C1954 1.390 . S
C1951 C1949 1.361 . S
C1951 C1952 1.393 . S
C1951 N1955 1.413 . S
C1952 H1945 0.930 . S
C1952 C1951 1.393 . S
C1952 C1953 1.399 . S
C1953 C1952 1.399 . S
C1953 C1954 1.381 . S
C1954 H1946 0.930 . S
C1954 C1950 1.390 . S
C1954 C1953 1.381 . S
N1955 C1948 1.286 . S
N1955 C1951 1.413 . S
H1956 C1961 0.930 . S
H1957 C1964 0.930 . S
H1958 C1966 0.930 . S
H1959 C1960 1.016 . S
C1960 H1959 1.016 . S
C1960 N1967 1.286 . S
C1961 H1956 0.930 . S
C1961 C1962 1.397 . S
C1961 C1963 1.361 . S
C1962 C1961 1.397 . S
C1962 C1966 1.390 . S
C1963 C1961 1.361 . S
C1963 C1964 1.393 . S
C1963 N1967 1.413 . S
C1964 H1957 0.930 . S
C1964 C1963 1.393 . S
C1964 C1965 1.399 . S
C1965 C1964 1.399 . S
C1965 C1966 1.381 . S
C1966 H1958 0.930 . S
C1966 C1962 1.390 . S
C1966 C1965 1.381 . S
N1967 C1960 1.286 . S
N1967 C1963 1.413 . S
H1968 C1973 0.930 . S
H1969 C1976 0.930 . S
H1970 C1978 0.930 . S
H1971 C1972 1.016 . S
C1972 H1971 1.016 . S
C1972 N1979 1.286 . S
C1973 H1968 0.930 . S
C1973 C1974 1.397 . S
C1973 C1975 1.361 . S
C1974 C1973 1.397 . S
C1974 C1978 1.390 . S
C1975 C1973 1.361 . S
C1975 C1976 1.393 . S
C1975 N1979 1.413 . S
C1976 H1969 0.930 . S
C1976 C1975 1.393 . S
C1976 C1977 1.399 . S
C1977 C1976 1.399 . S
C1977 C1978 1.381 . S
C1978 H1970 0.930 . S
C1978 C1974 1.390 . S
C1978 C1977 1.381 . S
N1979 C1972 1.286 . S
N1979 C1975 1.413 . S
H1980 C1985 0.930 . S
H1981 C1988 0.930 . S
H1982 C1990 0.930 . S
H1983 C1984 1.016 . S
C1984 H1983 1.016 . S
C1984 N1991 1.286 . S
C1985 H1980 0.930 . S
C1985 C1986 1.397 . S
C1985 C1987 1.361 . S
C1986 C1985 1.397 . S
C1986 C1990 1.390 . S
C1987 C1985 1.361 . S
C1987 C1988 1.393 . S
C1987 N1991 1.413 . S
C1988 H1981 0.930 . S
C1988 C1987 1.393 . S
C1988 C1989 1.399 . S
C1989 C1988 1.399 . S
C1989 C1990 1.381 . S
C1990 H1982 0.930 . S
C1990 C1986 1.390 . S
C1990 C1989 1.381 . S
N1991 C1984 1.286 . S
N1991 C1987 1.413 . S
H1992 C1997 0.930 . S
H1993 C2000 0.930 . S
H1994 C2002 0.930 . S
H1995 C1996 1.016 . S
C1996 H1995 1.016 . S
C1996 N2003 1.286 . S
C1997 H1992 0.930 . S
C1997 C1998 1.397 . S
C1997 C1999 1.361 . S
C1998 C1997 1.397 . S
C1998 C2002 1.390 . S
C1999 C1997 1.361 . S
C1999 C2000 1.393 . S
C1999 N2003 1.413 . S
C2000 H1993 0.930 . S
C2000 C1999 1.393 . S
C2000 C2001 1.399 . S
C2001 C2000 1.399 . S
C2001 C2002 1.381 . S
C2002 H1994 0.930 . S
C2002 C1998 1.390 . S
C2002 C2001 1.381 . S
N2003 C1996 1.286 . S
N2003 C1999 1.413 . S
H2004 C2009 0.930 . S
H2005 C2012 0.930 . S
H2006 C2014 0.930 . S
H2007 C2008 1.016 . S
C2008 H2007 1.016 . S
C2008 N2015 1.286 . S
C2009 H2004 0.930 . S
C2009 C2010 1.397 . S
C2009 C2011 1.361 . S
C2010 C2009 1.397 . S
C2010 C2014 1.390 . S
C2011 C2009 1.361 . S
C2011 C2012 1.393 . S
C2011 N2015 1.413 . S
C2012 H2005 0.930 . S
C2012 C2011 1.393 . S
C2012 C2013 1.399 . S
C2013 C2012 1.399 . S
C2013 C2014 1.381 . S
C2014 H2006 0.930 . S
C2014 C2010 1.390 . S
C2014 C2013 1.381 . S
N2015 C2008 1.286 . S
N2015 C2011 1.413 . S
H2016 C2021 0.930 . S
H2017 C2024 0.930 . S
H2018 C2026 0.930 . S
H2019 C2020 1.016 . S
C2020 H2019 1.016 . S
C2020 N2027 1.286 . S
C2021 H2016 0.930 . S
C2021 C2022 1.397 . S
C2021 C2023 1.361 . S
C2022 C2021 1.397 . S
C2022 C2026 1.390 . S
C2023 C2021 1.361 . S
C2023 C2024 1.393 . S
C2023 N2027 1.413 . S
C2024 H2017 0.930 . S
C2024 C2023 1.393 . S
C2024 C2025 1.399 . S
C2025 C2024 1.399 . S
C2025 C2026 1.381 . S
C2026 H2018 0.930 . S
C2026 C2022 1.390 . S
C2026 C2025 1.381 . S
N2027 C2020 1.286 . S
N2027 C2023 1.413 . S
H2028 C2033 0.930 . S
H2029 C2036 0.930 . S
H2030 C2038 0.930 . S
H2031 C2032 1.016 . S
C2032 H2031 1.016 . S
C2032 N2039 1.286 . S
C2033 H2028 0.930 . S
C2033 C2034 1.397 . S
C2033 C2035 1.361 . S
C2034 C2033 1.397 . S
C2034 C2038 1.390 . S
C2035 C2033 1.361 . S
C2035 C2036 1.393 . S
C2035 N2039 1.413 . S
C2036 H2029 0.930 . S
C2036 C2035 1.393 . S
C2036 C2037 1.399 . S
C2037 C2036 1.399 . S
C2037 C2038 1.381 . S
C2038 H2030 0.930 . S
C2038 C2034 1.390 . S
C2038 C2037 1.381 . S
N2039 C2032 1.286 . S
N2039 C2035 1.413 . S
H2040 C2045 0.930 . S
H2041 C2048 0.930 . S
H2042 C2050 0.930 . S
H2043 C2044 1.016 . S
C2044 H2043 1.016 . S
C2044 N2051 1.286 . S
C2045 H2040 0.930 . S
C2045 C2046 1.397 . S
C2045 C2047 1.361 . S
C2046 C2045 1.397 . S
C2046 C2050 1.390 . S
C2047 C2045 1.361 . S
C2047 C2048 1.393 . S
C2047 N2051 1.413 . S
C2048 H2041 0.930 . S
C2048 C2047 1.393 . S
C2048 C2049 1.399 . S
C2049 C2048 1.399 . S
C2049 C2050 1.381 . S
C2050 H2042 0.930 . S
C2050 C2046 1.390 . S
C2050 C2049 1.381 . S
N2051 C2044 1.286 . S
N2051 C2047 1.413 . S
H2052 C2057 0.930 . S
H2053 C2060 0.930 . S
H2054 C2062 0.930 . S
H2055 C2056 1.016 . S
C2056 H2055 1.016 . S
C2056 N2063 1.286 . S
C2057 H2052 0.930 . S
C2057 C2058 1.397 . S
C2057 C2059 1.361 . S
C2058 C2057 1.397 . S
C2058 C2062 1.390 . S
C2059 C2057 1.361 . S
C2059 C2060 1.393 . S
C2059 N2063 1.413 . S
C2060 H2053 0.930 . S
C2060 C2059 1.393 . S
C2060 C2061 1.399 . S
C2061 C2060 1.399 . S
C2061 C2062 1.381 . S
C2062 H2054 0.930 . S
C2062 C2058 1.390 . S
C2062 C2061 1.381 . S
N2063 C2056 1.286 . S
N2063 C2059 1.413 . S
H2064 C2069 0.930 . S
H2065 C2072 0.930 . S
H2066 C2074 0.930 . S
H2067 C2068 1.016 . S
C2068 H2067 1.016 . S
C2068 N2075 1.286 . S
C2069 H2064 0.930 . S
C2069 C2070 1.397 . S
C2069 C2071 1.361 . S
C2070 C2069 1.397 . S
C2070 C2074 1.390 . S
C2071 C2069 1.361 . S
C2071 C2072 1.393 . S
C2071 N2075 1.413 . S
C2072 H2065 0.930 . S
C2072 C2071 1.393 . S
C2072 C2073 1.399 . S
C2073 C2072 1.399 . S
C2073 C2074 1.381 . S
C2074 H2066 0.930 . S
C2074 C2070 1.390 . S
C2074 C2073 1.381 . S
N2075 C2068 1.286 . S
N2075 C2071 1.413 . S
H2076 C2081 0.930 . S
H2077 C2084 0.930 . S
H2078 C2086 0.930 . S
H2079 C2080 1.016 . S
C2080 H2079 1.016 . S
C2080 N2087 1.286 . S
C2081 H2076 0.930 . S
C2081 C2082 1.397 . S
C2081 C2083 1.361 . S
C2082 C2081 1.397 . S
C2082 C2086 1.390 . S
C2083 C2081 1.361 . S
C2083 C2084 1.393 . S
C2083 N2087 1.413 . S
C2084 H2077 0.930 . S
C2084 C2083 1.393 . S
C2084 C2085 1.399 . S
C2085 C2084 1.399 . S
C2085 C2086 1.381 . S
C2086 H2078 0.930 . S
C2086 C2082 1.390 . S
C2086 C2085 1.381 . S
N2087 C2080 1.286 . S
N2087 C2083 1.413 . S
H2088 C2093 0.930 . S
H2089 C2096 0.930 . S
H2090 C2098 0.930 . S
H2091 C2092 1.016 . S
C2092 H2091 1.016 . S
C2092 N2099 1.286 . S
C2093 H2088 0.930 . S
C2093 C2094 1.397 . S
C2093 C2095 1.361 . S
C2094 C2093 1.397 . S
C2094 C2098 1.390 . S
C2095 C2093 1.361 . S
C2095 C2096 1.393 . S
C2095 N2099 1.413 . S
C2096 H2089 0.930 . S
C2096 C2095 1.393 . S
C2096 C2097 1.399 . S
C2097 C2096 1.399 . S
C2097 C2098 1.381 . S
C2098 H2090 0.930 . S
C2098 C2094 1.390 . S
C2098 C2097 1.381 . S
N2099 C2092 1.286 . S
N2099 C2095 1.413 . S
H2100 C2105 0.930 . S
H2101 C2108 0.930 . S
H2102 C2110 0.930 . S
H2103 C2104 1.016 . S
C2104 H2103 1.016 . S
C2104 N2111 1.286 . S
C2105 H2100 0.930 . S
C2105 C2106 1.397 . S
C2105 C2107 1.361 . S
C2106 C2105 1.397 . S
C2106 C2110 1.390 . S
C2107 C2105 1.361 . S
C2107 C2108 1.393 . S
C2107 N2111 1.413 . S
C2108 H2101 0.930 . S
C2108 C2107 1.393 . S
C2108 C2109 1.399 . S
C2109 C2108 1.399 . S
C2109 C2110 1.381 . S
C2110 H2102 0.930 . S
C2110 C2106 1.390 . S
C2110 C2109 1.381 . S
N2111 C2104 1.286 . S
N2111 C2107 1.413 . S
H2112 C2117 0.930 . S
H2113 C2120 0.930 . S
H2114 C2122 0.930 . S
H2115 C2116 1.016 . S
C2116 H2115 1.016 . S
C2116 N2123 1.286 . S
C2117 H2112 0.930 . S
C2117 C2118 1.397 . S
C2117 C2119 1.361 . S
C2118 C2117 1.397 . S
C2118 C2122 1.390 . S
C2119 C2117 1.361 . S
C2119 C2120 1.393 . S
C2119 N2123 1.413 . S
C2120 H2113 0.930 . S
C2120 C2119 1.393 . S
C2120 C2121 1.399 . S
C2121 C2120 1.399 . S
C2121 C2122 1.381 . S
C2122 H2114 0.930 . S
C2122 C2118 1.390 . S
C2122 C2121 1.381 . S
N2123 C2116 1.286 . S
N2123 C2119 1.413 . S
H2124 C2129 0.930 . S
H2125 C2132 0.930 . S
H2126 C2134 0.930 . S
H2127 C2128 1.016 . S
C2128 H2127 1.016 . S
C2128 N2135 1.286 . S
C2129 H2124 0.930 . S
C2129 C2130 1.397 . S
C2129 C2131 1.361 . S
C2130 C2129 1.397 . S
C2130 C2134 1.390 . S
C2131 C2129 1.361 . S
C2131 C2132 1.393 . S
C2131 N2135 1.413 . S
C2132 H2125 0.930 . S
C2132 C2131 1.393 . S
C2132 C2133 1.399 . S
C2133 C2132 1.399 . S
C2133 C2134 1.381 . S
C2134 H2126 0.930 . S
C2134 C2130 1.390 . S
C2134 C2133 1.381 . S
N2135 C2128 1.286 . S
N2135 C2131 1.413 . S
H2136 C2141 0.930 . S
H2137 C2144 0.930 . S
H2138 C2146 0.930 . S
H2139 C2140 1.016 . S
C2140 H2139 1.016 . S
C2140 N2147 1.286 . S
C2141 H2136 0.930 . S
C2141 C2142 1.397 . S
C2141 C2143 1.361 . S
C2142 C2141 1.397 . S
C2142 C2146 1.390 . S
C2143 C2141 1.361 . S
C2143 C2144 1.393 . S
C2143 N2147 1.413 . S
C2144 H2137 0.930 . S
C2144 C2143 1.393 . S
C2144 C2145 1.399 . S
C2145 C2144 1.399 . S
C2145 C2146 1.381 . S
C2146 H2138 0.930 . S
C2146 C2142 1.390 . S
C2146 C2145 1.381 . S
N2147 C2140 1.286 . S
N2147 C2143 1.413 . S
H2148 C2153 0.930 . S
H2149 C2156 0.930 . S
H2150 C2158 0.930 . S
H2151 C2152 1.016 . S
C2152 H2151 1.016 . S
C2152 N2159 1.286 . S
C2153 H2148 0.930 . S
C2153 C2154 1.397 . S
C2153 C2155 1.361 . S
C2154 C2153 1.397 . S
C2154 C2158 1.390 . S
C2155 C2153 1.361 . S
C2155 C2156 1.393 . S
C2155 N2159 1.413 . S
C2156 H2149 0.930 . S
C2156 C2155 1.393 . S
C2156 C2157 1.399 . S
C2157 C2156 1.399 . S
C2157 C2158 1.381 . S
C2158 H2150 0.930 . S
C2158 C2154 1.390 . S
C2158 C2157 1.381 . S
N2159 C2152 1.286 . S
N2159 C2155 1.413 . S
H2160 C2165 0.930 . S
H2161 C2168 0.930 . S
H2162 C2170 0.930 . S
H2163 C2164 1.016 . S
C2164 H2163 1.016 . S
C2164 N2171 1.286 . S
C2165 H2160 0.930 . S
C2165 C2166 1.397 . S
C2165 C2167 1.361 . S
C2166 C2165 1.397 . S
C2166 C2170 1.390 . S
C2167 C2165 1.361 . S
C2167 C2168 1.393 . S
C2167 N2171 1.413 . S
C2168 H2161 0.930 . S
C2168 C2167 1.393 . S
C2168 C2169 1.399 . S
C2169 C2168 1.399 . S
C2169 C2170 1.381 . S
C2170 H2162 0.930 . S
C2170 C2166 1.390 . S
C2170 C2169 1.381 . S
N2171 C2164 1.286 . S
N2171 C2167 1.413 . S
H2172 C2177 0.930 . S
H2173 C2180 0.930 . S
H2174 C2182 0.930 . S
H2175 C2176 1.016 . S
C2176 H2175 1.016 . S
C2176 N2183 1.286 . S
C2177 H2172 0.930 . S
C2177 C2178 1.397 . S
C2177 C2179 1.361 . S
C2178 C2177 1.397 . S
C2178 C2182 1.390 . S
C2179 C2177 1.361 . S
C2179 C2180 1.393 . S
C2179 N2183 1.413 . S
C2180 H2173 0.930 . S
C2180 C2179 1.393 . S
C2180 C2181 1.399 . S
C2181 C2180 1.399 . S
C2181 C2182 1.381 . S
C2182 H2174 0.930 . S
C2182 C2178 1.390 . S
C2182 C2181 1.381 . S
N2183 C2176 1.286 . S
N2183 C2179 1.413 . S
H2184 C2189 0.930 . S
H2185 C2192 0.930 . S
H2186 C2194 0.930 . S
H2187 C2188 1.016 . S
C2188 H2187 1.016 . S
C2188 N2195 1.286 . S
C2189 H2184 0.930 . S
C2189 C2190 1.397 . S
C2189 C2191 1.361 . S
C2190 C2189 1.397 . S
C2190 C2194 1.390 . S
C2191 C2189 1.361 . S
C2191 C2192 1.393 . S
C2191 N2195 1.413 . S
C2192 H2185 0.930 . S
C2192 C2191 1.393 . S
C2192 C2193 1.399 . S
C2193 C2192 1.399 . S
C2193 C2194 1.381 . S
C2194 H2186 0.930 . S
C2194 C2190 1.390 . S
C2194 C2193 1.381 . S
N2195 C2188 1.286 . S
N2195 C2191 1.413 . S
H2196 C2201 0.930 . S
H2197 C2204 0.930 . S
H2198 C2206 0.930 . S
H2199 C2200 1.016 . S
C2200 H2199 1.016 . S
C2200 N2207 1.286 . S
C2201 H2196 0.930 . S
C2201 C2202 1.397 . S
C2201 C2203 1.361 . S
C2202 C2201 1.397 . S
C2202 C2206 1.390 . S
C2203 C2201 1.361 . S
C2203 C2204 1.393 . S
C2203 N2207 1.413 . S
C2204 H2197 0.930 . S
C2204 C2203 1.393 . S
C2204 C2205 1.399 . S
C2205 C2204 1.399 . S
C2205 C2206 1.381 . S
C2206 H2198 0.930 . S
C2206 C2202 1.390 . S
C2206 C2205 1.381 . S
N2207 C2200 1.286 . S
N2207 C2203 1.413 . S
H2208 C2213 0.930 . S
H2209 C2216 0.930 . S
H2210 C2218 0.930 . S
H2211 C2212 1.016 . S
C2212 H2211 1.016 . S
C2212 N2219 1.286 . S
C2213 H2208 0.930 . S
C2213 C2214 1.397 . S
C2213 C2215 1.361 . S
C2214 C2213 1.397 . S
C2214 C2218 1.390 . S
C2215 C2213 1.361 . S
C2215 C2216 1.393 . S
C2215 N2219 1.413 . S
C2216 H2209 0.930 . S
C2216 C2215 1.393 . S
C2216 C2217 1.399 . S
C2217 C2216 1.399 . S
C2217 C2218 1.381 . S
C2218 H2210 0.930 . S
C2218 C2214 1.390 . S
C2218 C2217 1.381 . S
N2219 C2212 1.286 . S
N2219 C2215 1.413 . S
H2220 C2225 0.930 . S
H2221 C2228 0.930 . S
H2222 C2230 0.930 . S
H2223 C2224 1.016 . S
C2224 H2223 1.016 . S
C2224 N2231 1.286 . S
C2225 H2220 0.930 . S
C2225 C2226 1.397 . S
C2225 C2227 1.361 . S
C2226 C2225 1.397 . S
C2226 C2230 1.390 . S
C2227 C2225 1.361 . S
C2227 C2228 1.393 . S
C2227 N2231 1.413 . S
C2228 H2221 0.930 . S
C2228 C2227 1.393 . S
C2228 C2229 1.399 . S
C2229 C2228 1.399 . S
C2229 C2230 1.381 . S
C2230 H2222 0.930 . S
C2230 C2226 1.390 . S
C2230 C2229 1.381 . S
N2231 C2224 1.286 . S
N2231 C2227 1.413 . S
H2232 C2237 0.930 . S
H2233 C2240 0.930 . S
H2234 C2242 0.930 . S
H2235 C2236 1.016 . S
C2236 H2235 1.016 . S
C2236 N2243 1.286 . S
C2237 H2232 0.930 . S
C2237 C2238 1.397 . S
C2237 C2239 1.361 . S
C2238 C2237 1.397 . S
C2238 C2242 1.390 . S
C2239 C2237 1.361 . S
C2239 C2240 1.393 . S
C2239 N2243 1.413 . S
C2240 H2233 0.930 . S
C2240 C2239 1.393 . S
C2240 C2241 1.399 . S
C2241 C2240 1.399 . S
C2241 C2242 1.381 . S
C2242 H2234 0.930 . S
C2242 C2238 1.390 . S
C2242 C2241 1.381 . S
N2243 C2236 1.286 . S
N2243 C2239 1.413 . S
H2244 C2249 0.930 . S
H2245 C2252 0.930 . S
H2246 C2254 0.930 . S
H2247 C2248 1.016 . S
C2248 H2247 1.016 . S
C2248 N2255 1.286 . S
C2249 H2244 0.930 . S
C2249 C2250 1.397 . S
C2249 C2251 1.361 . S
C2250 C2249 1.397 . S
C2250 C2254 1.390 . S
C2251 C2249 1.361 . S
C2251 C2252 1.393 . S
C2251 N2255 1.413 . S
C2252 H2245 0.930 . S
C2252 C2251 1.393 . S
C2252 C2253 1.399 . S
C2253 C2252 1.399 . S
C2253 C2254 1.381 . S
C2254 H2246 0.930 . S
C2254 C2250 1.390 . S
C2254 C2253 1.381 . S
N2255 C2248 1.286 . S
N2255 C2251 1.413 . S
H2256 C2261 0.930 . S
H2257 C2264 0.930 . S
H2258 C2266 0.930 . S
H2259 C2260 1.016 . S
C2260 H2259 1.016 . S
C2260 N2267 1.286 . S
C2261 H2256 0.930 . S
C2261 C2262 1.397 . S
C2261 C2263 1.361 . S
C2262 C2261 1.397 . S
C2262 C2266 1.390 . S
C2263 C2261 1.361 . S
C2263 C2264 1.393 . S
C2263 N2267 1.413 . S
C2264 H2257 0.930 . S
C2264 C2263 1.393 . S
C2264 C2265 1.399 . S
C2265 C2264 1.399 . S
C2265 C2266 1.381 . S
C2266 H2258 0.930 . S
C2266 C2262 1.390 . S
C2266 C2265 1.381 . S
N2267 C2260 1.286 . S
N2267 C2263 1.413 . S
H2268 C2273 0.930 . S
H2269 C2276 0.930 . S
H2270 C2278 0.930 . S
H2271 C2272 1.016 . S
C2272 H2271 1.016 . S
C2272 N2279 1.286 . S
C2273 H2268 0.930 . S
C2273 C2274 1.397 . S
C2273 C2275 1.361 . S
C2274 C2273 1.397 . S
C2274 C2278 1.390 . S
C2275 C2273 1.361 . S
C2275 C2276 1.393 . S
C2275 N2279 1.413 . S
C2276 H2269 0.930 . S
C2276 C2275 1.393 . S
C2276 C2277 1.399 . S
C2277 C2276 1.399 . S
C2277 C2278 1.381 . S
C2278 H2270 0.930 . S
C2278 C2274 1.390 . S
C2278 C2277 1.381 . S
N2279 C2272 1.286 . S
N2279 C2275 1.413 . S
H2280 C2285 0.930 . S
H2281 C2288 0.930 . S
H2282 C2290 0.930 . S
H2283 C2284 1.016 . S
C2284 H2283 1.016 . S
C2284 N2291 1.286 . S
C2285 H2280 0.930 . S
C2285 C2286 1.397 . S
C2285 C2287 1.361 . S
C2286 C2285 1.397 . S
C2286 C2290 1.390 . S
C2287 C2285 1.361 . S
C2287 C2288 1.393 . S
C2287 N2291 1.413 . S
C2288 H2281 0.930 . S
C2288 C2287 1.393 . S
C2288 C2289 1.399 . S
C2289 C2288 1.399 . S
C2289 C2290 1.381 . S
C2290 H2282 0.930 . S
C2290 C2286 1.390 . S
C2290 C2289 1.381 . S
N2291 C2284 1.286 . S
N2291 C2287 1.413 . S
H2292 C2297 0.930 . S
H2293 C2300 0.930 . S
H2294 C2302 0.930 . S
H2295 C2296 1.016 . S
C2296 H2295 1.016 . S
C2296 N2303 1.286 . S
C2297 H2292 0.930 . S
C2297 C2298 1.397 . S
C2297 C2299 1.361 . S
C2298 C2297 1.397 . S
C2298 C2302 1.390 . S
C2299 C2297 1.361 . S
C2299 C2300 1.393 . S
C2299 N2303 1.413 . S
C2300 H2293 0.930 . S
C2300 C2299 1.393 . S
C2300 C2301 1.399 . S
C2301 C2300 1.399 . S
C2301 C2302 1.381 . S
C2302 H2294 0.930 . S
C2302 C2298 1.390 . S
C2302 C2301 1.381 . S
N2303 C2296 1.286 . S
N2303 C2299 1.413 . S
H2304 C2309 0.930 . S
H2305 C2312 0.930 . S
H2306 C2314 0.930 . S
H2307 C2308 1.016 . S
C2308 H2307 1.016 . S
C2308 N2315 1.286 . S
C2309 H2304 0.930 . S
C2309 C2310 1.397 . S
C2309 C2311 1.361 . S
C2310 C2309 1.397 . S
C2310 C2314 1.390 . S
C2311 C2309 1.361 . S
C2311 C2312 1.393 . S
C2311 N2315 1.413 . S
C2312 H2305 0.930 . S
C2312 C2311 1.393 . S
C2312 C2313 1.399 . S
C2313 C2312 1.399 . S
C2313 C2314 1.381 . S
C2314 H2306 0.930 . S
C2314 C2310 1.390 . S
C2314 C2313 1.381 . S
N2315 C2308 1.286 . S
N2315 C2311 1.413 . S
H2316 C2321 0.930 . S
H2317 C2324 0.930 . S
H2318 C2326 0.930 . S
H2319 C2320 1.016 . S
C2320 H2319 1.016 . S
C2320 N2327 1.286 . S
C2321 H2316 0.930 . S
C2321 C2322 1.397 . S
C2321 C2323 1.361 . S
C2322 C2321 1.397 . S
C2322 C2326 1.390 . S
C2323 C2321 1.361 . S
C2323 C2324 1.393 . S
C2323 N2327 1.413 . S
C2324 H2317 0.930 . S
C2324 C2323 1.393 . S
C2324 C2325 1.399 . S
C2325 C2324 1.399 . S
C2325 C2326 1.381 . S
C2326 H2318 0.930 . S
C2326 C2322 1.390 . S
C2326 C2325 1.381 . S
N2327 C2320 1.286 . S
N2327 C2323 1.413 . S
H2328 C2333 0.930 . S
H2329 C2336 0.930 . S
H2330 C2338 0.930 . S
H2331 C2332 1.016 . S
C2332 H2331 1.016 . S
C2332 N2339 1.286 . S
C2333 H2328 0.930 . S
C2333 C2334 1.397 . S
C2333 C2335 1.361 . S
C2334 C2333 1.397 . S
C2334 C2338 1.390 . S
C2335 C2333 1.361 . S
C2335 C2336 1.393 . S
C2335 N2339 1.413 . S
C2336 H2329 0.930 . S
C2336 C2335 1.393 . S
C2336 C2337 1.399 . S
C2337 C2336 1.399 . S
C2337 C2338 1.381 . S
C2338 H2330 0.930 . S
C2338 C2334 1.390 . S
C2338 C2337 1.381 . S
N2339 C2332 1.286 . S
N2339 C2335 1.413 . S
H2340 C2345 0.930 . S
H2341 C2348 0.930 . S
H2342 C2350 0.930 . S
H2343 C2344 1.016 . S
C2344 H2343 1.016 . S
C2344 N2351 1.286 . S
C2345 H2340 0.930 . S
C2345 C2346 1.397 . S
C2345 C2347 1.361 . S
C2346 C2345 1.397 . S
C2346 C2350 1.390 . S
C2347 C2345 1.361 . S
C2347 C2348 1.393 . S
C2347 N2351 1.413 . S
C2348 H2341 0.930 . S
C2348 C2347 1.393 . S
C2348 C2349 1.399 . S
C2349 C2348 1.399 . S
C2349 C2350 1.381 . S
C2350 H2342 0.930 . S
C2350 C2346 1.390 . S
C2350 C2349 1.381 . S
N2351 C2344 1.286 . S
N2351 C2347 1.413 . S
H2352 C2357 0.930 . S
H2353 C2360 0.930 . S
H2354 C2362 0.930 . S
H2355 C2356 1.016 . S
C2356 H2355 1.016 . S
C2356 N2363 1.286 . S
C2357 H2352 0.930 . S
C2357 C2358 1.397 . S
C2357 C2359 1.361 . S
C2358 C2357 1.397 . S
C2358 C2362 1.390 . S
C2359 C2357 1.361 . S
C2359 C2360 1.393 . S
C2359 N2363 1.413 . S
C2360 H2353 0.930 . S
C2360 C2359 1.393 . S
C2360 C2361 1.399 . S
C2361 C2360 1.399 . S
C2361 C2362 1.381 . S
C2362 H2354 0.930 . S
C2362 C2358 1.390 . S
C2362 C2361 1.381 . S
N2363 C2356 1.286 . S
N2363 C2359 1.413 . S
H2364 C2369 0.930 . S
H2365 C2372 0.930 . S
H2366 C2374 0.930 . S
H2367 C2368 1.016 . S
C2368 H2367 1.016 . S
C2368 N2375 1.286 . S
C2369 H2364 0.930 . S
C2369 C2370 1.397 . S
C2369 C2371 1.361 . S
C2370 C2369 1.397 . S
C2370 C2374 1.390 . S
C2371 C2369 1.361 . S
C2371 C2372 1.393 . S
C2371 N2375 1.413 . S
C2372 H2365 0.930 . S
C2372 C2371 1.393 . S
C2372 C2373 1.399 . S
C2373 C2372 1.399 . S
C2373 C2374 1.381 . S
C2374 H2366 0.930 . S
C2374 C2370 1.390 . S
C2374 C2373 1.381 . S
N2375 C2368 1.286 . S
N2375 C2371 1.413 . S
H2376 C2381 0.930 . S
H2377 C2384 0.930 . S
H2378 C2386 0.930 . S
H2379 C2380 1.016 . S
C2380 H2379 1.016 . S
C2380 N2387 1.286 . S
C2381 H2376 0.930 . S
C2381 C2382 1.397 . S
C2381 C2383 1.361 . S
C2382 C2381 1.397 . S
C2382 C2386 1.390 . S
C2383 C2381 1.361 . S
C2383 C2384 1.393 . S
C2383 N2387 1.413 . S
C2384 H2377 0.930 . S
C2384 C2383 1.393 . S
C2384 C2385 1.399 . S
C2385 C2384 1.399 . S
C2385 C2386 1.381 . S
C2386 H2378 0.930 . S
C2386 C2382 1.390 . S
C2386 C2385 1.381 . S
N2387 C2380 1.286 . S
N2387 C2383 1.413 . S
H2388 C2393 0.930 . S
H2389 C2396 0.930 . S
H2390 C2398 0.930 . S
H2391 C2392 1.016 . S
C2392 H2391 1.016 . S
C2392 N2399 1.286 . S
C2393 H2388 0.930 . S
C2393 C2394 1.397 . S
C2393 C2395 1.361 . S
C2394 C2393 1.397 . S
C2394 C2398 1.390 . S
C2395 C2393 1.361 . S
C2395 C2396 1.393 . S
C2395 N2399 1.413 . S
C2396 H2389 0.930 . S
C2396 C2395 1.393 . S
C2396 C2397 1.399 . S
C2397 C2396 1.399 . S
C2397 C2398 1.381 . S
C2398 H2390 0.930 . S
C2398 C2394 1.390 . S
C2398 C2397 1.381 . S
N2399 C2392 1.286 . S
N2399 C2395 1.413 . S
H2400 C2405 0.930 . S
H2401 C2408 0.930 . S
H2402 C2410 0.930 . S
H2403 C2404 1.016 . S
C2404 H2403 1.016 . S
C2404 N2411 1.286 . S
C2405 H2400 0.930 . S
C2405 C2406 1.397 . S
C2405 C2407 1.361 . S
C2406 C2405 1.397 . S
C2406 C2410 1.390 . S
C2407 C2405 1.361 . S
C2407 C2408 1.393 . S
C2407 N2411 1.413 . S
C2408 H2401 0.930 . S
C2408 C2407 1.393 . S
C2408 C2409 1.399 . S
C2409 C2408 1.399 . S
C2409 C2410 1.381 . S
C2410 H2402 0.930 . S
C2410 C2406 1.390 . S
C2410 C2409 1.381 . S
N2411 C2404 1.286 . S
N2411 C2407 1.413 . S
H2412 C2417 0.930 . S
H2413 C2420 0.930 . S
H2414 C2422 0.930 . S
H2415 C2416 1.016 . S
C2416 H2415 1.016 . S
C2416 N2423 1.286 . S
C2417 H2412 0.930 . S
C2417 C2418 1.397 . S
C2417 C2419 1.361 . S
C2418 C2417 1.397 . S
C2418 C2422 1.390 . S
C2419 C2417 1.361 . S
C2419 C2420 1.393 . S
C2419 N2423 1.413 . S
C2420 H2413 0.930 . S
C2420 C2419 1.393 . S
C2420 C2421 1.399 . S
C2421 C2420 1.399 . S
C2421 C2422 1.381 . S
C2422 H2414 0.930 . S
C2422 C2418 1.390 . S
C2422 C2421 1.381 . S
N2423 C2416 1.286 . S
N2423 C2419 1.413 . S
H2424 C2429 0.930 . S
H2425 C2432 0.930 . S
H2426 C2434 0.930 . S
H2427 C2428 1.016 . S
C2428 H2427 1.016 . S
C2428 N2435 1.286 . S
C2429 H2424 0.930 . S
C2429 C2430 1.397 . S
C2429 C2431 1.361 . S
C2430 C2429 1.397 . S
C2430 C2434 1.390 . S
C2431 C2429 1.361 . S
C2431 C2432 1.393 . S
C2431 N2435 1.413 . S
C2432 H2425 0.930 . S
C2432 C2431 1.393 . S
C2432 C2433 1.399 . S
C2433 C2432 1.399 . S
C2433 C2434 1.381 . S
C2434 H2426 0.930 . S
C2434 C2430 1.390 . S
C2434 C2433 1.381 . S
N2435 C2428 1.286 . S
N2435 C2431 1.413 . S
H2436 C2441 0.930 . S
H2437 C2444 0.930 . S
H2438 C2446 0.930 . S
H2439 C2440 1.016 . S
C2440 H2439 1.016 . S
C2440 N2447 1.286 . S
C2441 H2436 0.930 . S
C2441 C2442 1.397 . S
C2441 C2443 1.361 . S
C2442 C2441 1.397 . S
C2442 C2446 1.390 . S
C2443 C2441 1.361 . S
C2443 C2444 1.393 . S
C2443 N2447 1.413 . S
C2444 H2437 0.930 . S
C2444 C2443 1.393 . S
C2444 C2445 1.399 . S
C2445 C2444 1.399 . S
C2445 C2446 1.381 . S
C2446 H2438 0.930 . S
C2446 C2442 1.390 . S
C2446 C2445 1.381 . S
N2447 C2440 1.286 . S
N2447 C2443 1.413 . S
H2448 C2453 0.930 . S
H2449 C2456 0.930 . S
H2450 C2458 0.930 . S
H2451 C2452 1.016 . S
C2452 H2451 1.016 . S
C2452 N2459 1.286 . S
C2453 H2448 0.930 . S
C2453 C2454 1.397 . S
C2453 C2455 1.361 . S
C2454 C2453 1.397 . S
C2454 C2458 1.390 . S
C2455 C2453 1.361 . S
C2455 C2456 1.393 . S
C2455 N2459 1.413 . S
C2456 H2449 0.930 . S
C2456 C2455 1.393 . S
C2456 C2457 1.399 . S
C2457 C2456 1.399 . S
C2457 C2458 1.381 . S
C2458 H2450 0.930 . S
C2458 C2454 1.390 . S
C2458 C2457 1.381 . S
N2459 C2452 1.286 . S
N2459 C2455 1.413 . S
H2460 C2465 0.930 . S
H2461 C2468 0.930 . S
H2462 C2470 0.930 . S
H2463 C2464 1.016 . S
C2464 H2463 1.016 . S
C2464 N2471 1.286 . S
C2465 H2460 0.930 . S
C2465 C2466 1.397 . S
C2465 C2467 1.361 . S
C2466 C2465 1.397 . S
C2466 C2470 1.390 . S
C2467 C2465 1.361 . S
C2467 C2468 1.393 . S
C2467 N2471 1.413 . S
C2468 H2461 0.930 . S
C2468 C2467 1.393 . S
C2468 C2469 1.399 . S
C2469 C2468 1.399 . S
C2469 C2470 1.381 . S
C2470 H2462 0.930 . S
C2470 C2466 1.390 . S
C2470 C2469 1.381 . S
N2471 C2464 1.286 . S
N2471 C2467 1.413 . S
H2472 C2477 0.930 . S
H2473 C2480 0.930 . S
H2474 C2482 0.930 . S
H2475 C2476 1.016 . S
C2476 H2475 1.016 . S
C2476 N2483 1.286 . S
C2477 H2472 0.930 . S
C2477 C2478 1.397 . S
C2477 C2479 1.361 . S
C2478 C2477 1.397 . S
C2478 C2482 1.390 . S
C2479 C2477 1.361 . S
C2479 C2480 1.393 . S
C2479 N2483 1.413 . S
C2480 H2473 0.930 . S
C2480 C2479 1.393 . S
C2480 C2481 1.399 . S
C2481 C2480 1.399 . S
C2481 C2482 1.381 . S
C2482 H2474 0.930 . S
C2482 C2478 1.390 . S
C2482 C2481 1.381 . S
N2483 C2476 1.286 . S
N2483 C2479 1.413 . S
H2484 C2489 0.930 . S
H2485 C2492 0.930 . S
H2486 C2494 0.930 . S
H2487 C2488 1.016 . S
C2488 H2487 1.016 . S
C2488 N2495 1.286 . S
C2489 H2484 0.930 . S
C2489 C2490 1.397 . S
C2489 C2491 1.361 . S
C2490 C2489 1.397 . S
C2490 C2494 1.390 . S
C2491 C2489 1.361 . S
C2491 C2492 1.393 . S
C2491 N2495 1.413 . S
C2492 H2485 0.930 . S
C2492 C2491 1.393 . S
C2492 C2493 1.399 . S
C2493 C2492 1.399 . S
C2493 C2494 1.381 . S
C2494 H2486 0.930 . S
C2494 C2490 1.390 . S
C2494 C2493 1.381 . S
N2495 C2488 1.286 . S
N2495 C2491 1.413 . S
H2496 C2502 0.930 . S
H2497 C2506 0.930 . S
H2498 C2511 0.929 . S
H2499 C2509 0.929 . S
H2500 C2504 0.929 . S
H2501 C2510 0.929 . S
C2502 H2496 0.930 . S
C2502 C2503 1.367 . S
C2502 C2510 1.378 . S
C2503 C2502 1.367 . S
C2503 C2511 1.433 . S
C2504 H2500 0.929 . S
C2504 C2506 1.378 . S
C2504 C2508 1.350 . S
C2505 C2508 1.463 . S
C2505 C2510 1.350 . S
C2505 N2513 1.427 . S
C2506 H2497 0.930 . S
C2506 C2504 1.378 . S
C2506 C2507 1.367 . S
C2507 C2506 1.367 . S
C2507 C2509 1.433 . S
C2508 C2504 1.350 . S
C2508 C2505 1.463 . S
C2508 N2512 1.427 . S
C2509 H2499 0.929 . S
C2509 C2507 1.433 . S
C2509 N2512 1.384 . S
C2510 H2501 0.929 . S
C2510 C2502 1.378 . S
C2510 C2505 1.350 . S
C2511 H2498 0.929 . S
C2511 C2503 1.433 . S
C2511 N2513 1.384 . S
N2512 C2508 1.427 . S
N2512 C2509 1.384 . S
N2513 C2505 1.427 . S
N2513 C2511 1.384 . S
H2514 C2520 0.930 . S
H2515 C2524 0.930 . S
H2516 C2529 0.929 . S
H2517 C2527 0.929 . S
H2518 C2522 0.929 . S
H2519 C2528 0.929 . S
C2520 H2514 0.930 . S
C2520 C2521 1.367 . S
C2520 C2528 1.378 . S
C2521 C2520 1.367 . S
C2521 C2529 1.433 . S
C2522 H2518 0.929 . S
C2522 C2524 1.378 . S
C2522 C2526 1.350 . S
C2523 C2526 1.463 . S
C2523 C2528 1.350 . S
C2523 N2531 1.427 . S
C2524 H2515 0.930 . S
C2524 C2522 1.378 . S
C2524 C2525 1.367 . S
C2525 C2524 1.367 . S
C2525 C2527 1.433 . S
C2526 C2522 1.350 . S
C2526 C2523 1.463 . S
C2526 N2530 1.427 . S
C2527 H2517 0.929 . S
C2527 C2525 1.433 . S
C2527 N2530 1.384 . S
C2528 H2519 0.929 . S
C2528 C2520 1.378 . S
C2528 C2523 1.350 . S
C2529 H2516 0.929 . S
C2529 C2521 1.433 . S
C2529 N2531 1.384 . S
N2530 C2526 1.427 . S
N2530 C2527 1.384 . S
N2531 C2523 1.427 . S
N2531 C2529 1.384 . S
H2532 C2538 0.930 . S
H2533 C2542 0.930 . S
H2534 C2547 0.929 . S
H2535 C2545 0.929 . S
H2536 C2540 0.929 . S
H2537 C2546 0.929 . S
C2538 H2532 0.930 . S
C2538 C2539 1.367 . S
C2538 C2546 1.378 . S
C2539 C2538 1.367 . S
C2539 C2547 1.433 . S
C2540 H2536 0.929 . S
C2540 C2542 1.378 . S
C2540 C2544 1.350 . S
C2541 C2544 1.463 . S
C2541 C2546 1.350 . S
C2541 N2549 1.427 . S
C2542 H2533 0.930 . S
C2542 C2540 1.378 . S
C2542 C2543 1.367 . S
C2543 C2542 1.367 . S
C2543 C2545 1.433 . S
C2544 C2540 1.350 . S
C2544 C2541 1.463 . S
C2544 N2548 1.427 . S
C2545 H2535 0.929 . S
C2545 C2543 1.433 . S
C2545 N2548 1.384 . S
C2546 H2537 0.929 . S
C2546 C2538 1.378 . S
C2546 C2541 1.350 . S
C2547 H2534 0.929 . S
C2547 C2539 1.433 . S
C2547 N2549 1.384 . S
N2548 C2544 1.427 . S
N2548 C2545 1.384 . S
N2549 C2541 1.427 . S
N2549 C2547 1.384 . S
H2550 C2556 0.930 . S
H2551 C2560 0.930 . S
H2552 C2565 0.929 . S
H2553 C2563 0.929 . S
H2554 C2558 0.929 . S
H2555 C2564 0.929 . S
C2556 H2550 0.930 . S
C2556 C2557 1.367 . S
C2556 C2564 1.378 . S
C2557 C2556 1.367 . S
C2557 C2565 1.433 . S
C2558 H2554 0.929 . S
C2558 C2560 1.378 . S
C2558 C2562 1.350 . S
C2559 C2562 1.463 . S
C2559 C2564 1.350 . S
C2559 N2567 1.427 . S
C2560 H2551 0.930 . S
C2560 C2558 1.378 . S
C2560 C2561 1.367 . S
C2561 C2560 1.367 . S
C2561 C2563 1.433 . S
C2562 C2558 1.350 . S
C2562 C2559 1.463 . S
C2562 N2566 1.427 . S
C2563 H2553 0.929 . S
C2563 C2561 1.433 . S
C2563 N2566 1.384 . S
C2564 H2555 0.929 . S
C2564 C2556 1.378 . S
C2564 C2559 1.350 . S
C2565 H2552 0.929 . S
C2565 C2557 1.433 . S
C2565 N2567 1.384 . S
N2566 C2562 1.427 . S
N2566 C2563 1.384 . S
N2567 C2559 1.427 . S
N2567 C2565 1.384 . S
H2568 C2574 0.930 . S
H2569 C2578 0.930 . S
H2570 C2583 0.929 . S
H2571 C2581 0.929 . S
H2572 C2576 0.929 . S
H2573 C2582 0.929 . S
C2574 H2568 0.930 . S
C2574 C2575 1.367 . S
C2574 C2582 1.378 . S
C2575 C2574 1.367 . S
C2575 C2583 1.433 . S
C2576 H2572 0.929 . S
C2576 C2578 1.378 . S
C2576 C2580 1.350 . S
C2577 C2580 1.463 . S
C2577 C2582 1.350 . S
C2577 N2585 1.427 . S
C2578 H2569 0.930 . S
C2578 C2576 1.378 . S
C2578 C2579 1.367 . S
C2579 C2578 1.367 . S
C2579 C2581 1.433 . S
C2580 C2576 1.350 . S
C2580 C2577 1.463 . S
C2580 N2584 1.427 . S
C2581 H2571 0.929 . S
C2581 C2579 1.433 . S
C2581 N2584 1.384 . S
C2582 H2573 0.929 . S
C2582 C2574 1.378 . S
C2582 C2577 1.350 . S
C2583 H2570 0.929 . S
C2583 C2575 1.433 . S
C2583 N2585 1.384 . S
N2584 C2580 1.427 . S
N2584 C2581 1.384 . S
N2585 C2577 1.427 . S
N2585 C2583 1.384 . S
H2586 C2592 0.930 . S
H2587 C2596 0.930 . S
H2588 C2601 0.929 . S
H2589 C2599 0.929 . S
H2590 C2594 0.929 . S
H2591 C2600 0.929 . S
C2592 H2586 0.930 . S
C2592 C2593 1.367 . S
C2592 C2600 1.378 . S
C2593 C2592 1.367 . S
C2593 C2601 1.433 . S
C2594 H2590 0.929 . S
C2594 C2596 1.378 . S
C2594 C2598 1.350 . S
C2595 C2598 1.463 . S
C2595 C2600 1.350 . S
C2595 N2603 1.427 . S
C2596 H2587 0.930 . S
C2596 C2594 1.378 . S
C2596 C2597 1.367 . S
C2597 C2596 1.367 . S
C2597 C2599 1.433 . S
C2598 C2594 1.350 . S
C2598 C2595 1.463 . S
C2598 N2602 1.427 . S
C2599 H2589 0.929 . S
C2599 C2597 1.433 . S
C2599 N2602 1.384 . S
C2600 H2591 0.929 . S
C2600 C2592 1.378 . S
C2600 C2595 1.350 . S
C2601 H2588 0.929 . S
C2601 C2593 1.433 . S
C2601 N2603 1.384 . S
N2602 C2598 1.427 . S
N2602 C2599 1.384 . S
N2603 C2595 1.427 . S
N2603 C2601 1.384 . S
H2604 C2610 0.930 . S
H2605 C2614 0.930 . S
H2606 C2619 0.929 . S
H2607 C2617 0.929 . S
H2608 C2612 0.929 . S
H2609 C2618 0.929 . S
C2610 H2604 0.930 . S
C2610 C2611 1.367 . S
C2610 C2618 1.378 . S
C2611 C2610 1.367 . S
C2611 C2619 1.433 . S
C2612 H2608 0.929 . S
C2612 C2614 1.378 . S
C2612 C2616 1.350 . S
C2613 C2616 1.463 . S
C2613 C2618 1.350 . S
C2613 N2621 1.427 . S
C2614 H2605 0.930 . S
C2614 C2612 1.378 . S
C2614 C2615 1.367 . S
C2615 C2614 1.367 . S
C2615 C2617 1.433 . S
C2616 C2612 1.350 . S
C2616 C2613 1.463 . S
C2616 N2620 1.427 . S
C2617 H2607 0.929 . S
C2617 C2615 1.433 . S
C2617 N2620 1.384 . S
C2618 H2609 0.929 . S
C2618 C2610 1.378 . S
C2618 C2613 1.350 . S
C2619 H2606 0.929 . S
C2619 C2611 1.433 . S
C2619 N2621 1.384 . S
N2620 C2616 1.427 . S
N2620 C2617 1.384 . S
N2621 C2613 1.427 . S
N2621 C2619 1.384 . S
H2622 C2628 0.930 . S
H2623 C2632 0.930 . S
H2624 C2637 0.929 . S
H2625 C2635 0.929 . S
H2626 C2630 0.929 . S
H2627 C2636 0.929 . S
C2628 H2622 0.930 . S
C2628 C2629 1.367 . S
C2628 C2636 1.378 . S
C2629 C2628 1.367 . S
C2629 C2637 1.433 . S
C2630 H2626 0.929 . S
C2630 C2632 1.378 . S
C2630 C2634 1.350 . S
C2631 C2634 1.463 . S
C2631 C2636 1.350 . S
C2631 N2639 1.427 . S
C2632 H2623 0.930 . S
C2632 C2630 1.378 . S
C2632 C2633 1.367 . S
C2633 C2632 1.367 . S
C2633 C2635 1.433 . S
C2634 C2630 1.350 . S
C2634 C2631 1.463 . S
C2634 N2638 1.427 . S
C2635 H2625 0.929 . S
C2635 C2633 1.433 . S
C2635 N2638 1.384 . S
C2636 H2627 0.929 . S
C2636 C2628 1.378 . S
C2636 C2631 1.350 . S
C2637 H2624 0.929 . S
C2637 C2629 1.433 . S
C2637 N2639 1.384 . S
N2638 C2634 1.427 . S
N2638 C2635 1.384 . S
N2639 C2631 1.427 . S
N2639 C2637 1.384 . S
H2640 C2646 0.930 . S
H2641 C2650 0.930 . S
H2642 C2655 0.929 . S
H2643 C2653 0.929 . S
H2644 C2648 0.929 . S
H2645 C2654 0.929 . S
C2646 H2640 0.930 . S
C2646 C2647 1.367 . S
C2646 C2654 1.378 . S
C2647 C2646 1.367 . S
C2647 C2655 1.433 . S
C2648 H2644 0.929 . S
C2648 C2650 1.378 . S
C2648 C2652 1.350 . S
C2649 C2652 1.463 . S
C2649 C2654 1.350 . S
C2649 N2657 1.427 . S
C2650 H2641 0.930 . S
C2650 C2648 1.378 . S
C2650 C2651 1.367 . S
C2651 C2650 1.367 . S
C2651 C2653 1.433 . S
C2652 C2648 1.350 . S
C2652 C2649 1.463 . S
C2652 N2656 1.427 . S
C2653 H2643 0.929 . S
C2653 C2651 1.433 . S
C2653 N2656 1.384 . S
C2654 H2645 0.929 . S
C2654 C2646 1.378 . S
C2654 C2649 1.350 . S
C2655 H2642 0.929 . S
C2655 C2647 1.433 . S
C2655 N2657 1.384 . S
N2656 C2652 1.427 . S
N2656 C2653 1.384 . S
N2657 C2649 1.427 . S
N2657 C2655 1.384 . S
H2658 C2664 0.930 . S
H2659 C2668 0.930 . S
H2660 C2673 0.929 . S
H2661 C2671 0.929 . S
H2662 C2666 0.929 . S
H2663 C2672 0.929 . S
C2664 H2658 0.930 . S
C2664 C2665 1.367 . S
C2664 C2672 1.378 . S
C2665 C2664 1.367 . S
C2665 C2673 1.433 . S
C2666 H2662 0.929 . S
C2666 C2668 1.378 . S
C2666 C2670 1.350 . S
C2667 C2670 1.463 . S
C2667 C2672 1.350 . S
C2667 N2675 1.427 . S
C2668 H2659 0.930 . S
C2668 C2666 1.378 . S
C2668 C2669 1.367 . S
C2669 C2668 1.367 . S
C2669 C2671 1.433 . S
C2670 C2666 1.350 . S
C2670 C2667 1.463 . S
C2670 N2674 1.427 . S
C2671 H2661 0.929 . S
C2671 C2669 1.433 . S
C2671 N2674 1.384 . S
C2672 H2663 0.929 . S
C2672 C2664 1.378 . S
C2672 C2667 1.350 . S
C2673 H2660 0.929 . S
C2673 C2665 1.433 . S
C2673 N2675 1.384 . S
N2674 C2670 1.427 . S
N2674 C2671 1.384 . S
N2675 C2667 1.427 . S
N2675 C2673 1.384 . S
H2676 C2682 0.930 . S
H2677 C2686 0.930 . S
H2678 C2691 0.929 . S
H2679 C2689 0.929 . S
H2680 C2684 0.929 . S
H2681 C2690 0.929 . S
C2682 H2676 0.930 . S
C2682 C2683 1.367 . S
C2682 C2690 1.378 . S
C2683 C2682 1.367 . S
C2683 C2691 1.433 . S
C2684 H2680 0.929 . S
C2684 C2686 1.378 . S
C2684 C2688 1.350 . S
C2685 C2688 1.463 . S
C2685 C2690 1.350 . S
C2685 N2693 1.427 . S
C2686 H2677 0.930 . S
C2686 C2684 1.378 . S
C2686 C2687 1.367 . S
C2687 C2686 1.367 . S
C2687 C2689 1.433 . S
C2688 C2684 1.350 . S
C2688 C2685 1.463 . S
C2688 N2692 1.427 . S
C2689 H2679 0.929 . S
C2689 C2687 1.433 . S
C2689 N2692 1.384 . S
C2690 H2681 0.929 . S
C2690 C2682 1.378 . S
C2690 C2685 1.350 . S
C2691 H2678 0.929 . S
C2691 C2683 1.433 . S
C2691 N2693 1.384 . S
N2692 C2688 1.427 . S
N2692 C2689 1.384 . S
N2693 C2685 1.427 . S
N2693 C2691 1.384 . S
H2694 C2700 0.930 . S
H2695 C2704 0.930 . S
H2696 C2709 0.929 . S
H2697 C2707 0.929 . S
H2698 C2702 0.929 . S
H2699 C2708 0.929 . S
C2700 H2694 0.930 . S
C2700 C2701 1.367 . S
C2700 C2708 1.378 . S
C2701 C2700 1.367 . S
C2701 C2709 1.433 . S
C2702 H2698 0.929 . S
C2702 C2704 1.378 . S
C2702 C2706 1.350 . S
C2703 C2706 1.463 . S
C2703 C2708 1.350 . S
C2703 N2711 1.427 . S
C2704 H2695 0.930 . S
C2704 C2702 1.378 . S
C2704 C2705 1.367 . S
C2705 C2704 1.367 . S
C2705 C2707 1.433 . S
C2706 C2702 1.350 . S
C2706 C2703 1.463 . S
C2706 N2710 1.427 . S
C2707 H2697 0.929 . S
C2707 C2705 1.433 . S
C2707 N2710 1.384 . S
C2708 H2699 0.929 . S
C2708 C2700 1.378 . S
C2708 C2703 1.350 . S
C2709 H2696 0.929 . S
C2709 C2701 1.433 . S
C2709 N2711 1.384 . S
N2710 C2706 1.427 . S
N2710 C2707 1.384 . S
N2711 C2703 1.427 . S
N2711 C2709 1.384 . S
H2712 C2718 0.930 . S
H2713 C2722 0.930 . S
H2714 C2727 0.929 . S
H2715 C2725 0.929 . S
H2716 C2720 0.929 . S
H2717 C2726 0.929 . S
C2718 H2712 0.930 . S
C2718 C2719 1.367 . S
C2718 C2726 1.378 . S
C2719 C2718 1.367 . S
C2719 C2727 1.433 . S
C2720 H2716 0.929 . S
C2720 C2722 1.378 . S
C2720 C2724 1.350 . S
C2721 C2724 1.463 . S
C2721 C2726 1.350 . S
C2721 N2729 1.427 . S
C2722 H2713 0.930 . S
C2722 C2720 1.378 . S
C2722 C2723 1.367 . S
C2723 C2722 1.367 . S
C2723 C2725 1.433 . S
C2724 C2720 1.350 . S
C2724 C2721 1.463 . S
C2724 N2728 1.427 . S
C2725 H2715 0.929 . S
C2725 C2723 1.433 . S
C2725 N2728 1.384 . S
C2726 H2717 0.929 . S
C2726 C2718 1.378 . S
C2726 C2721 1.350 . S
C2727 H2714 0.929 . S
C2727 C2719 1.433 . S
C2727 N2729 1.384 . S
N2728 C2724 1.427 . S
N2728 C2725 1.384 . S
N2729 C2721 1.427 . S
N2729 C2727 1.384 . S
H2730 C2736 0.930 . S
H2731 C2740 0.930 . S
H2732 C2745 0.929 . S
H2733 C2743 0.929 . S
H2734 C2738 0.929 . S
H2735 C2744 0.929 . S
C2736 H2730 0.930 . S
C2736 C2737 1.367 . S
C2736 C2744 1.378 . S
C2737 C2736 1.367 . S
C2737 C2745 1.433 . S
C2738 H2734 0.929 . S
C2738 C2740 1.378 . S
C2738 C2742 1.350 . S
C2739 C2742 1.463 . S
C2739 C2744 1.350 . S
C2739 N2747 1.427 . S
C2740 H2731 0.930 . S
C2740 C2738 1.378 . S
C2740 C2741 1.367 . S
C2741 C2740 1.367 . S
C2741 C2743 1.433 . S
C2742 C2738 1.350 . S
C2742 C2739 1.463 . S
C2742 N2746 1.427 . S
C2743 H2733 0.929 . S
C2743 C2741 1.433 . S
C2743 N2746 1.384 . S
C2744 H2735 0.929 . S
C2744 C2736 1.378 . S
C2744 C2739 1.350 . S
C2745 H2732 0.929 . S
C2745 C2737 1.433 . S
C2745 N2747 1.384 . S
N2746 C2742 1.427 . S
N2746 C2743 1.384 . S
N2747 C2739 1.427 . S
N2747 C2745 1.384 . S
H2748 C2754 0.930 . S
H2749 C2758 0.930 . S
H2750 C2763 0.929 . S
H2751 C2761 0.929 . S
H2752 C2756 0.929 . S
H2753 C2762 0.929 . S
C2754 H2748 0.930 . S
C2754 C2755 1.367 . S
C2754 C2762 1.378 . S
C2755 C2754 1.367 . S
C2755 C2763 1.433 . S
C2756 H2752 0.929 . S
C2756 C2758 1.378 . S
C2756 C2760 1.350 . S
C2757 C2760 1.463 . S
C2757 C2762 1.350 . S
C2757 N2765 1.427 . S
C2758 H2749 0.930 . S
C2758 C2756 1.378 . S
C2758 C2759 1.367 . S
C2759 C2758 1.367 . S
C2759 C2761 1.433 . S
C2760 C2756 1.350 . S
C2760 C2757 1.463 . S
C2760 N2764 1.427 . S
C2761 H2751 0.929 . S
C2761 C2759 1.433 . S
C2761 N2764 1.384 . S
C2762 H2753 0.929 . S
C2762 C2754 1.378 . S
C2762 C2757 1.350 . S
C2763 H2750 0.929 . S
C2763 C2755 1.433 . S
C2763 N2765 1.384 . S
N2764 C2760 1.427 . S
N2764 C2761 1.384 . S
N2765 C2757 1.427 . S
N2765 C2763 1.384 . S
H2766 C2772 0.930 . S
H2767 C2776 0.930 . S
H2768 C2781 0.929 . S
H2769 C2779 0.929 . S
H2770 C2774 0.929 . S
H2771 C2780 0.929 . S
C2772 H2766 0.930 . S
C2772 C2773 1.367 . S
C2772 C2780 1.378 . S
C2773 C2772 1.367 . S
C2773 C2781 1.433 . S
C2774 H2770 0.929 . S
C2774 C2776 1.378 . S
C2774 C2778 1.350 . S
C2775 C2778 1.463 . S
C2775 C2780 1.350 . S
C2775 N2783 1.427 . S
C2776 H2767 0.930 . S
C2776 C2774 1.378 . S
C2776 C2777 1.367 . S
C2777 C2776 1.367 . S
C2777 C2779 1.433 . S
C2778 C2774 1.350 . S
C2778 C2775 1.463 . S
C2778 N2782 1.427 . S
C2779 H2769 0.929 . S
C2779 C2777 1.433 . S
C2779 N2782 1.384 . S
C2780 H2771 0.929 . S
C2780 C2772 1.378 . S
C2780 C2775 1.350 . S
C2781 H2768 0.929 . S
C2781 C2773 1.433 . S
C2781 N2783 1.384 . S
N2782 C2778 1.427 . S
N2782 C2779 1.384 . S
N2783 C2775 1.427 . S
N2783 C2781 1.384 . S
H2784 C2790 0.930 . S
H2785 C2794 0.930 . S
H2786 C2799 0.929 . S
H2787 C2797 0.929 . S
H2788 C2792 0.929 . S
H2789 C2798 0.929 . S
C2790 H2784 0.930 . S
C2790 C2791 1.367 . S
C2790 C2798 1.378 . S
C2791 C2790 1.367 . S
C2791 C2799 1.433 . S
C2792 H2788 0.929 . S
C2792 C2794 1.378 . S
C2792 C2796 1.350 . S
C2793 C2796 1.463 . S
C2793 C2798 1.350 . S
C2793 N2801 1.427 . S
C2794 H2785 0.930 . S
C2794 C2792 1.378 . S
C2794 C2795 1.367 . S
C2795 C2794 1.367 . S
C2795 C2797 1.433 . S
C2796 C2792 1.350 . S
C2796 C2793 1.463 . S
C2796 N2800 1.427 . S
C2797 H2787 0.929 . S
C2797 C2795 1.433 . S
C2797 N2800 1.384 . S
C2798 H2789 0.929 . S
C2798 C2790 1.378 . S
C2798 C2793 1.350 . S
C2799 H2786 0.929 . S
C2799 C2791 1.433 . S
C2799 N2801 1.384 . S
N2800 C2796 1.427 . S
N2800 C2797 1.384 . S
N2801 C2793 1.427 . S
N2801 C2799 1.384 . S
H2802 C2808 0.930 . S
H2803 C2812 0.930 . S
H2804 C2817 0.929 . S
H2805 C2815 0.929 . S
H2806 C2810 0.929 . S
H2807 C2816 0.929 . S
C2808 H2802 0.930 . S
C2808 C2809 1.367 . S
C2808 C2816 1.378 . S
C2809 C2808 1.367 . S
C2809 C2817 1.433 . S
C2810 H2806 0.929 . S
C2810 C2812 1.378 . S
C2810 C2814 1.350 . S
C2811 C2814 1.463 . S
C2811 C2816 1.350 . S
C2811 N2819 1.427 . S
C2812 H2803 0.930 . S
C2812 C2810 1.378 . S
C2812 C2813 1.367 . S
C2813 C2812 1.367 . S
C2813 C2815 1.433 . S
C2814 C2810 1.350 . S
C2814 C2811 1.463 . S
C2814 N2818 1.427 . S
C2815 H2805 0.929 . S
C2815 C2813 1.433 . S
C2815 N2818 1.384 . S
C2816 H2807 0.929 . S
C2816 C2808 1.378 . S
C2816 C2811 1.350 . S
C2817 H2804 0.929 . S
C2817 C2809 1.433 . S
C2817 N2819 1.384 . S
N2818 C2814 1.427 . S
N2818 C2815 1.384 . S
N2819 C2811 1.427 . S
N2819 C2817 1.384 . S
H2820 C2826 0.930 . S
H2821 C2830 0.930 . S
H2822 C2835 0.929 . S
H2823 C2833 0.929 . S
H2824 C2828 0.929 . S
H2825 C2834 0.929 . S
C2826 H2820 0.930 . S
C2826 C2827 1.367 . S
C2826 C2834 1.378 . S
C2827 C2826 1.367 . S
C2827 C2835 1.433 . S
C2828 H2824 0.929 . S
C2828 C2830 1.378 . S
C2828 C2832 1.350 . S
C2829 C2832 1.463 . S
C2829 C2834 1.350 . S
C2829 N2837 1.427 . S
C2830 H2821 0.930 . S
C2830 C2828 1.378 . S
C2830 C2831 1.367 . S
C2831 C2830 1.367 . S
C2831 C2833 1.433 . S
C2832 C2828 1.350 . S
C2832 C2829 1.463 . S
C2832 N2836 1.427 . S
C2833 H2823 0.929 . S
C2833 C2831 1.433 . S
C2833 N2836 1.384 . S
C2834 H2825 0.929 . S
C2834 C2826 1.378 . S
C2834 C2829 1.350 . S
C2835 H2822 0.929 . S
C2835 C2827 1.433 . S
C2835 N2837 1.384 . S
N2836 C2832 1.427 . S
N2836 C2833 1.384 . S
N2837 C2829 1.427 . S
N2837 C2835 1.384 . S
H2838 C2844 0.930 . S
H2839 C2848 0.930 . S
H2840 C2853 0.929 . S
H2841 C2851 0.929 . S
H2842 C2846 0.929 . S
H2843 C2852 0.929 . S
C2844 H2838 0.930 . S
C2844 C2845 1.367 . S
C2844 C2852 1.378 . S
C2845 C2844 1.367 . S
C2845 C2853 1.433 . S
C2846 H2842 0.929 . S
C2846 C2848 1.378 . S
C2846 C2850 1.350 . S
C2847 C2850 1.463 . S
C2847 C2852 1.350 . S
C2847 N2855 1.427 . S
C2848 H2839 0.930 . S
C2848 C2846 1.378 . S
C2848 C2849 1.367 . S
C2849 C2848 1.367 . S
C2849 C2851 1.433 . S
C2850 C2846 1.350 . S
C2850 C2847 1.463 . S
C2850 N2854 1.427 . S
C2851 H2841 0.929 . S
C2851 C2849 1.433 . S
C2851 N2854 1.384 . S
C2852 H2843 0.929 . S
C2852 C2844 1.378 . S
C2852 C2847 1.350 . S
C2853 H2840 0.929 . S
C2853 C2845 1.433 . S
C2853 N2855 1.384 . S
N2854 C2850 1.427 . S
N2854 C2851 1.384 . S
N2855 C2847 1.427 . S
N2855 C2853 1.384 . S
H2856 C2862 0.930 . S
H2857 C2866 0.930 . S
H2858 C2871 0.929 . S
H2859 C2869 0.929 . S
H2860 C2864 0.929 . S
H2861 C2870 0.929 . S
C2862 H2856 0.930 . S
C2862 C2863 1.367 . S
C2862 C2870 1.378 . S
C2863 C2862 1.367 . S
C2863 C2871 1.433 . S
C2864 H2860 0.929 . S
C2864 C2866 1.378 . S
C2864 C2868 1.350 . S
C2865 C2868 1.463 . S
C2865 C2870 1.350 . S
C2865 N2873 1.427 . S
C2866 H2857 0.930 . S
C2866 C2864 1.378 . S
C2866 C2867 1.367 . S
C2867 C2866 1.367 . S
C2867 C2869 1.433 . S
C2868 C2864 1.350 . S
C2868 C2865 1.463 . S
C2868 N2872 1.427 . S
C2869 H2859 0.929 . S
C2869 C2867 1.433 . S
C2869 N2872 1.384 . S
C2870 H2861 0.929 . S
C2870 C2862 1.378 . S
C2870 C2865 1.350 . S
C2871 H2858 0.929 . S
C2871 C2863 1.433 . S
C2871 N2873 1.384 . S
N2872 C2868 1.427 . S
N2872 C2869 1.384 . S
N2873 C2865 1.427 . S
N2873 C2871 1.384 . S
H2874 C2880 0.930 . S
H2875 C2884 0.930 . S
H2876 C2889 0.929 . S
H2877 C2887 0.929 . S
H2878 C2882 0.929 . S
H2879 C2888 0.929 . S
C2880 H2874 0.930 . S
C2880 C2881 1.367 . S
C2880 C2888 1.378 . S
C2881 C2880 1.367 . S
C2881 C2889 1.433 . S
C2882 H2878 0.929 . S
C2882 C2884 1.378 . S
C2882 C2886 1.350 . S
C2883 C2886 1.463 . S
C2883 C2888 1.350 . S
C2883 N2891 1.427 . S
C2884 H2875 0.930 . S
C2884 C2882 1.378 . S
C2884 C2885 1.367 . S
C2885 C2884 1.367 . S
C2885 C2887 1.433 . S
C2886 C2882 1.350 . S
C2886 C2883 1.463 . S
C2886 N2890 1.427 . S
C2887 H2877 0.929 . S
C2887 C2885 1.433 . S
C2887 N2890 1.384 . S
C2888 H2879 0.929 . S
C2888 C2880 1.378 . S
C2888 C2883 1.350 . S
C2889 H2876 0.929 . S
C2889 C2881 1.433 . S
C2889 N2891 1.384 . S
N2890 C2886 1.427 . S
N2890 C2887 1.384 . S
N2891 C2883 1.427 . S
N2891 C2889 1.384 . S
H2892 C2898 0.930 . S
H2893 C2902 0.930 . S
H2894 C2907 0.929 . S
H2895 C2905 0.929 . S
H2896 C2900 0.929 . S
H2897 C2906 0.929 . S
C2898 H2892 0.930 . S
C2898 C2899 1.367 . S
C2898 C2906 1.378 . S
C2899 C2898 1.367 . S
C2899 C2907 1.433 . S
C2900 H2896 0.929 . S
C2900 C2902 1.378 . S
C2900 C2904 1.350 . S
C2901 C2904 1.463 . S
C2901 C2906 1.350 . S
C2901 N2909 1.427 . S
C2902 H2893 0.930 . S
C2902 C2900 1.378 . S
C2902 C2903 1.367 . S
C2903 C2902 1.367 . S
C2903 C2905 1.433 . S
C2904 C2900 1.350 . S
C2904 C2901 1.463 . S
C2904 N2908 1.427 . S
C2905 H2895 0.929 . S
C2905 C2903 1.433 . S
C2905 N2908 1.384 . S
C2906 H2897 0.929 . S
C2906 C2898 1.378 . S
C2906 C2901 1.350 . S
C2907 H2894 0.929 . S
C2907 C2899 1.433 . S
C2907 N2909 1.384 . S
N2908 C2904 1.427 . S
N2908 C2905 1.384 . S
N2909 C2901 1.427 . S
N2909 C2907 1.384 . S
H2910 C2916 0.930 . S
H2911 C2920 0.930 . S
H2912 C2925 0.929 . S
H2913 C2923 0.929 . S
H2914 C2918 0.929 . S
H2915 C2924 0.929 . S
C2916 H2910 0.930 . S
C2916 C2917 1.367 . S
C2916 C2924 1.378 . S
C2917 C2916 1.367 . S
C2917 C2925 1.433 . S
C2918 H2914 0.929 . S
C2918 C2920 1.378 . S
C2918 C2922 1.350 . S
C2919 C2922 1.463 . S
C2919 C2924 1.350 . S
C2919 N2927 1.427 . S
C2920 H2911 0.930 . S
C2920 C2918 1.378 . S
C2920 C2921 1.367 . S
C2921 C2920 1.367 . S
C2921 C2923 1.433 . S
C2922 C2918 1.350 . S
C2922 C2919 1.463 . S
C2922 N2926 1.427 . S
C2923 H2913 0.929 . S
C2923 C2921 1.433 . S
C2923 N2926 1.384 . S
C2924 H2915 0.929 . S
C2924 C2916 1.378 . S
C2924 C2919 1.350 . S
C2925 H2912 0.929 . S
C2925 C2917 1.433 . S
C2925 N2927 1.384 . S
N2926 C2922 1.427 . S
N2926 C2923 1.384 . S
N2927 C2919 1.427 . S
N2927 C2925 1.384 . S
H2928 C2934 0.930 . S
H2929 C2938 0.930 . S
H2930 C2943 0.929 . S
H2931 C2941 0.929 . S
H2932 C2936 0.929 . S
H2933 C2942 0.929 . S
C2934 H2928 0.930 . S
C2934 C2935 1.367 . S
C2934 C2942 1.378 . S
C2935 C2934 1.367 . S
C2935 C2943 1.433 . S
C2936 H2932 0.929 . S
C2936 C2938 1.378 . S
C2936 C2940 1.350 . S
C2937 C2940 1.463 . S
C2937 C2942 1.350 . S
C2937 N2945 1.427 . S
C2938 H2929 0.930 . S
C2938 C2936 1.378 . S
C2938 C2939 1.367 . S
C2939 C2938 1.367 . S
C2939 C2941 1.433 . S
C2940 C2936 1.350 . S
C2940 C2937 1.463 . S
C2940 N2944 1.427 . S
C2941 H2931 0.929 . S
C2941 C2939 1.433 . S
C2941 N2944 1.384 . S
C2942 H2933 0.929 . S
C2942 C2934 1.378 . S
C2942 C2937 1.350 . S
C2943 H2930 0.929 . S
C2943 C2935 1.433 . S
C2943 N2945 1.384 . S
N2944 C2940 1.427 . S
N2944 C2941 1.384 . S
N2945 C2937 1.427 . S
N2945 C2943 1.384 . S
H2946 C2952 0.930 . S
H2947 C2956 0.930 . S
H2948 C2961 0.929 . S
H2949 C2959 0.929 . S
H2950 C2954 0.929 . S
H2951 C2960 0.929 . S
C2952 H2946 0.930 . S
C2952 C2953 1.367 . S
C2952 C2960 1.378 . S
C2953 C2952 1.367 . S
C2953 C2961 1.433 . S
C2954 H2950 0.929 . S
C2954 C2956 1.378 . S
C2954 C2958 1.350 . S
C2955 C2958 1.463 . S
C2955 C2960 1.350 . S
C2955 N2963 1.427 . S
C2956 H2947 0.930 . S
C2956 C2954 1.378 . S
C2956 C2957 1.367 . S
C2957 C2956 1.367 . S
C2957 C2959 1.433 . S
C2958 C2954 1.350 . S
C2958 C2955 1.463 . S
C2958 N2962 1.427 . S
C2959 H2949 0.929 . S
C2959 C2957 1.433 . S
C2959 N2962 1.384 . S
C2960 H2951 0.929 . S
C2960 C2952 1.378 . S
C2960 C2955 1.350 . S
C2961 H2948 0.929 . S
C2961 C2953 1.433 . S
C2961 N2963 1.384 . S
N2962 C2958 1.427 . S
N2962 C2959 1.384 . S
N2963 C2955 1.427 . S
N2963 C2961 1.384 . S
H2964 C2970 0.930 . S
H2965 C2974 0.930 . S
H2966 C2979 0.929 . S
H2967 C2977 0.929 . S
H2968 C2972 0.929 . S
H2969 C2978 0.929 . S
C2970 H2964 0.930 . S
C2970 C2971 1.367 . S
C2970 C2978 1.378 . S
C2971 C2970 1.367 . S
C2971 C2979 1.433 . S
C2972 H2968 0.929 . S
C2972 C2974 1.378 . S
C2972 C2976 1.350 . S
C2973 C2976 1.463 . S
C2973 C2978 1.350 . S
C2973 N2981 1.427 . S
C2974 H2965 0.930 . S
C2974 C2972 1.378 . S
C2974 C2975 1.367 . S
C2975 C2974 1.367 . S
C2975 C2977 1.433 . S
C2976 C2972 1.350 . S
C2976 C2973 1.463 . S
C2976 N2980 1.427 . S
C2977 H2967 0.929 . S
C2977 C2975 1.433 . S
C2977 N2980 1.384 . S
C2978 H2969 0.929 . S
C2978 C2970 1.378 . S
C2978 C2973 1.350 . S
C2979 H2966 0.929 . S
C2979 C2971 1.433 . S
C2979 N2981 1.384 . S
N2980 C2976 1.427 . S
N2980 C2977 1.384 . S
N2981 C2973 1.427 . S
N2981 C2979 1.384 . S
H2982 C2988 0.930 . S
H2983 C2992 0.930 . S
H2984 C2997 0.929 . S
H2985 C2995 0.929 . S
H2986 C2990 0.929 . S
H2987 C2996 0.929 . S
C2988 H2982 0.930 . S
C2988 C2989 1.367 . S
C2988 C2996 1.378 . S
C2989 C2988 1.367 . S
C2989 C2997 1.433 . S
C2990 H2986 0.929 . S
C2990 C2992 1.378 . S
C2990 C2994 1.350 . S
C2991 C2994 1.463 . S
C2991 C2996 1.350 . S
C2991 N2999 1.427 . S
C2992 H2983 0.930 . S
C2992 C2990 1.378 . S
C2992 C2993 1.367 . S
C2993 C2992 1.367 . S
C2993 C2995 1.433 . S
C2994 C2990 1.350 . S
C2994 C2991 1.463 . S
C2994 N2998 1.427 . S
C2995 H2985 0.929 . S
C2995 C2993 1.433 . S
C2995 N2998 1.384 . S
C2996 H2987 0.929 . S
C2996 C2988 1.378 . S
C2996 C2991 1.350 . S
C2997 H2984 0.929 . S
C2997 C2989 1.433 . S
C2997 N2999 1.384 . S
N2998 C2994 1.427 . S
N2998 C2995 1.384 . S
N2999 C2991 1.427 . S
N2999 C2997 1.384 . S
H3000 C3006 0.930 . S
H3001 C3010 0.930 . S
H3002 C3015 0.929 . S
H3003 C3013 0.929 . S
H3004 C3008 0.929 . S
H3005 C3014 0.929 . S
C3006 H3000 0.930 . S
C3006 C3007 1.367 . S
C3006 C3014 1.378 . S
C3007 C3006 1.367 . S
C3007 C3015 1.433 . S
C3008 H3004 0.929 . S
C3008 C3010 1.378 . S
C3008 C3012 1.350 . S
C3009 C3012 1.463 . S
C3009 C3014 1.350 . S
C3009 N3017 1.427 . S
C3010 H3001 0.930 . S
C3010 C3008 1.378 . S
C3010 C3011 1.367 . S
C3011 C3010 1.367 . S
C3011 C3013 1.433 . S
C3012 C3008 1.350 . S
C3012 C3009 1.463 . S
C3012 N3016 1.427 . S
C3013 H3003 0.929 . S
C3013 C3011 1.433 . S
C3013 N3016 1.384 . S
C3014 H3005 0.929 . S
C3014 C3006 1.378 . S
C3014 C3009 1.350 . S
C3015 H3002 0.929 . S
C3015 C3007 1.433 . S
C3015 N3017 1.384 . S
N3016 C3012 1.427 . S
N3016 C3013 1.384 . S
N3017 C3009 1.427 . S
N3017 C3015 1.384 . S
H3018 C3024 0.930 . S
H3019 C3028 0.930 . S
H3020 C3033 0.929 . S
H3021 C3031 0.929 . S
H3022 C3026 0.929 . S
H3023 C3032 0.929 . S
C3024 H3018 0.930 . S
C3024 C3025 1.367 . S
C3024 C3032 1.378 . S
C3025 C3024 1.367 . S
C3025 C3033 1.433 . S
C3026 H3022 0.929 . S
C3026 C3028 1.378 . S
C3026 C3030 1.350 . S
C3027 C3030 1.463 . S
C3027 C3032 1.350 . S
C3027 N3035 1.427 . S
C3028 H3019 0.930 . S
C3028 C3026 1.378 . S
C3028 C3029 1.367 . S
C3029 C3028 1.367 . S
C3029 C3031 1.433 . S
C3030 C3026 1.350 . S
C3030 C3027 1.463 . S
C3030 N3034 1.427 . S
C3031 H3021 0.929 . S
C3031 C3029 1.433 . S
C3031 N3034 1.384 . S
C3032 H3023 0.929 . S
C3032 C3024 1.378 . S
C3032 C3027 1.350 . S
C3033 H3020 0.929 . S
C3033 C3025 1.433 . S
C3033 N3035 1.384 . S
N3034 C3030 1.427 . S
N3034 C3031 1.384 . S
N3035 C3027 1.427 . S
N3035 C3033 1.384 . S
H3036 C3042 0.930 . S
H3037 C3046 0.930 . S
H3038 C3051 0.929 . S
H3039 C3049 0.929 . S
H3040 C3044 0.929 . S
H3041 C3050 0.929 . S
C3042 H3036 0.930 . S
C3042 C3043 1.367 . S
C3042 C3050 1.378 . S
C3043 C3042 1.367 . S
C3043 C3051 1.433 . S
C3044 H3040 0.929 . S
C3044 C3046 1.378 . S
C3044 C3048 1.350 . S
C3045 C3048 1.463 . S
C3045 C3050 1.350 . S
C3045 N3053 1.427 . S
C3046 H3037 0.930 . S
C3046 C3044 1.378 . S
C3046 C3047 1.367 . S
C3047 C3046 1.367 . S
C3047 C3049 1.433 . S
C3048 C3044 1.350 . S
C3048 C3045 1.463 . S
C3048 N3052 1.427 . S
C3049 H3039 0.929 . S
C3049 C3047 1.433 . S
C3049 N3052 1.384 . S
C3050 H3041 0.929 . S
C3050 C3042 1.378 . S
C3050 C3045 1.350 . S
C3051 H3038 0.929 . S
C3051 C3043 1.433 . S
C3051 N3053 1.384 . S
N3052 C3048 1.427 . S
N3052 C3049 1.384 . S
N3053 C3045 1.427 . S
N3053 C3051 1.384 . S
H3054 C3060 0.930 . S
H3055 C3064 0.930 . S
H3056 C3069 0.929 . S
H3057 C3067 0.929 . S
H3058 C3062 0.929 . S
H3059 C3068 0.929 . S
C3060 H3054 0.930 . S
C3060 C3061 1.367 . S
C3060 C3068 1.378 . S
C3061 C3060 1.367 . S
C3061 C3069 1.433 . S
C3062 H3058 0.929 . S
C3062 C3064 1.378 . S
C3062 C3066 1.350 . S
C3063 C3066 1.463 . S
C3063 C3068 1.350 . S
C3063 N3071 1.427 . S
C3064 H3055 0.930 . S
C3064 C3062 1.378 . S
C3064 C3065 1.367 . S
C3065 C3064 1.367 . S
C3065 C3067 1.433 . S
C3066 C3062 1.350 . S
C3066 C3063 1.463 . S
C3066 N3070 1.427 . S
C3067 H3057 0.929 . S
C3067 C3065 1.433 . S
C3067 N3070 1.384 . S
C3068 H3059 0.929 . S
C3068 C3060 1.378 . S
C3068 C3063 1.350 . S
C3069 H3056 0.929 . S
C3069 C3061 1.433 . S
C3069 N3071 1.384 . S
N3070 C3066 1.427 . S
N3070 C3067 1.384 . S
N3071 C3063 1.427 . S
N3071 C3069 1.384 . S
H3072 C3078 0.930 . S
H3073 C3082 0.930 . S
H3074 C3087 0.929 . S
H3075 C3085 0.929 . S
H3076 C3080 0.929 . S
H3077 C3086 0.929 . S
C3078 H3072 0.930 . S
C3078 C3079 1.367 . S
C3078 C3086 1.378 . S
C3079 C3078 1.367 . S
C3079 C3087 1.433 . S
C3080 H3076 0.929 . S
C3080 C3082 1.378 . S
C3080 C3084 1.350 . S
C3081 C3084 1.463 . S
C3081 C3086 1.350 . S
C3081 N3089 1.427 . S
C3082 H3073 0.930 . S
C3082 C3080 1.378 . S
C3082 C3083 1.367 . S
C3083 C3082 1.367 . S
C3083 C3085 1.433 . S
C3084 C3080 1.350 . S
C3084 C3081 1.463 . S
C3084 N3088 1.427 . S
C3085 H3075 0.929 . S
C3085 C3083 1.433 . S
C3085 N3088 1.384 . S
C3086 H3077 0.929 . S
C3086 C3078 1.378 . S
C3086 C3081 1.350 . S
C3087 H3074 0.929 . S
C3087 C3079 1.433 . S
C3087 N3089 1.384 . S
N3088 C3084 1.427 . S
N3088 C3085 1.384 . S
N3089 C3081 1.427 . S
N3089 C3087 1.384 . S
H3090 C3096 0.930 . S
H3091 C3100 0.930 . S
H3092 C3105 0.929 . S
H3093 C3103 0.929 . S
H3094 C3098 0.929 . S
H3095 C3104 0.929 . S
C3096 H3090 0.930 . S
C3096 C3097 1.367 . S
C3096 C3104 1.378 . S
C3097 C3096 1.367 . S
C3097 C3105 1.433 . S
C3098 H3094 0.929 . S
C3098 C3100 1.378 . S
C3098 C3102 1.350 . S
C3099 C3102 1.463 . S
C3099 C3104 1.350 . S
C3099 N3107 1.427 . S
C3100 H3091 0.930 . S
C3100 C3098 1.378 . S
C3100 C3101 1.367 . S
C3101 C3100 1.367 . S
C3101 C3103 1.433 . S
C3102 C3098 1.350 . S
C3102 C3099 1.463 . S
C3102 N3106 1.427 . S
C3103 H3093 0.929 . S
C3103 C3101 1.433 . S
C3103 N3106 1.384 . S
C3104 H3095 0.929 . S
C3104 C3096 1.378 . S
C3104 C3099 1.350 . S
C3105 H3092 0.929 . S
C3105 C3097 1.433 . S
C3105 N3107 1.384 . S
N3106 C3102 1.427 . S
N3106 C3103 1.384 . S
N3107 C3099 1.427 . S
N3107 C3105 1.384 . S
H3108 C3114 0.930 . S
H3109 C3118 0.930 . S
H3110 C3123 0.929 . S
H3111 C3121 0.929 . S
H3112 C3116 0.929 . S
H3113 C3122 0.929 . S
C3114 H3108 0.930 . S
C3114 C3115 1.367 . S
C3114 C3122 1.378 . S
C3115 C3114 1.367 . S
C3115 C3123 1.433 . S
C3116 H3112 0.929 . S
C3116 C3118 1.378 . S
C3116 C3120 1.350 . S
C3117 C3120 1.463 . S
C3117 C3122 1.350 . S
C3117 N3125 1.427 . S
C3118 H3109 0.930 . S
C3118 C3116 1.378 . S
C3118 C3119 1.367 . S
C3119 C3118 1.367 . S
C3119 C3121 1.433 . S
C3120 C3116 1.350 . S
C3120 C3117 1.463 . S
C3120 N3124 1.427 . S
C3121 H3111 0.929 . S
C3121 C3119 1.433 . S
C3121 N3124 1.384 . S
C3122 H3113 0.929 . S
C3122 C3114 1.378 . S
C3122 C3117 1.350 . S
C3123 H3110 0.929 . S
C3123 C3115 1.433 . S
C3123 N3125 1.384 . S
N3124 C3120 1.427 . S
N3124 C3121 1.384 . S
N3125 C3117 1.427 . S
N3125 C3123 1.384 . S
H3126 C3132 0.930 . S
H3127 C3136 0.930 . S
H3128 C3141 0.929 . S
H3129 C3139 0.929 . S
H3130 C3134 0.929 . S
H3131 C3140 0.929 . S
C3132 H3126 0.930 . S
C3132 C3133 1.367 . S
C3132 C3140 1.378 . S
C3133 C3132 1.367 . S
C3133 C3141 1.433 . S
C3134 H3130 0.929 . S
C3134 C3136 1.378 . S
C3134 C3138 1.350 . S
C3135 C3138 1.463 . S
C3135 C3140 1.350 . S
C3135 N3143 1.427 . S
C3136 H3127 0.930 . S
C3136 C3134 1.378 . S
C3136 C3137 1.367 . S
C3137 C3136 1.367 . S
C3137 C3139 1.433 . S
C3138 C3134 1.350 . S
C3138 C3135 1.463 . S
C3138 N3142 1.427 . S
C3139 H3129 0.929 . S
C3139 C3137 1.433 . S
C3139 N3142 1.384 . S
C3140 H3131 0.929 . S
C3140 C3132 1.378 . S
C3140 C3135 1.350 . S
C3141 H3128 0.929 . S
C3141 C3133 1.433 . S
C3141 N3143 1.384 . S
N3142 C3138 1.427 . S
N3142 C3139 1.384 . S
N3143 C3135 1.427 . S
N3143 C3141 1.384 . S
H3144 C3150 0.930 . S
H3145 C3154 0.930 . S
H3146 C3159 0.929 . S
H3147 C3157 0.929 . S
H3148 C3152 0.929 . S
H3149 C3158 0.929 . S
C3150 H3144 0.930 . S
C3150 C3151 1.367 . S
C3150 C3158 1.378 . S
C3151 C3150 1.367 . S
C3151 C3159 1.433 . S
C3152 H3148 0.929 . S
C3152 C3154 1.378 . S
C3152 C3156 1.350 . S
C3153 C3156 1.463 . S
C3153 C3158 1.350 . S
C3153 N3161 1.427 . S
C3154 H3145 0.930 . S
C3154 C3152 1.378 . S
C3154 C3155 1.367 . S
C3155 C3154 1.367 . S
C3155 C3157 1.433 . S
C3156 C3152 1.350 . S
C3156 C3153 1.463 . S
C3156 N3160 1.427 . S
C3157 H3147 0.929 . S
C3157 C3155 1.433 . S
C3157 N3160 1.384 . S
C3158 H3149 0.929 . S
C3158 C3150 1.378 . S
C3158 C3153 1.350 . S
C3159 H3146 0.929 . S
C3159 C3151 1.433 . S
C3159 N3161 1.384 . S
N3160 C3156 1.427 . S
N3160 C3157 1.384 . S
N3161 C3153 1.427 . S
N3161 C3159 1.384 . S
H3162 C3168 0.930 . S
H3163 C3172 0.930 . S
H3164 C3177 0.929 . S
H3165 C3175 0.929 . S
H3166 C3170 0.929 . S
H3167 C3176 0.929 . S
C3168 H3162 0.930 . S
C3168 C3169 1.367 . S
C3168 C3176 1.378 . S
C3169 C3168 1.367 . S
C3169 C3177 1.433 . S
C3170 H3166 0.929 . S
C3170 C3172 1.378 . S
C3170 C3174 1.350 . S
C3171 C3174 1.463 . S
C3171 C3176 1.350 . S
C3171 N3179 1.427 . S
C3172 H3163 0.930 . S
C3172 C3170 1.378 . S
C3172 C3173 1.367 . S
C3173 C3172 1.367 . S
C3173 C3175 1.433 . S
C3174 C3170 1.350 . S
C3174 C3171 1.463 . S
C3174 N3178 1.427 . S
C3175 H3165 0.929 . S
C3175 C3173 1.433 . S
C3175 N3178 1.384 . S
C3176 H3167 0.929 . S
C3176 C3168 1.378 . S
C3176 C3171 1.350 . S
C3177 H3164 0.929 . S
C3177 C3169 1.433 . S
C3177 N3179 1.384 . S
N3178 C3174 1.427 . S
N3178 C3175 1.384 . S
N3179 C3171 1.427 . S
N3179 C3177 1.384 . S
H3180 C3186 0.930 . S
H3181 C3190 0.930 . S
H3182 C3195 0.929 . S
H3183 C3193 0.929 . S
H3184 C3188 0.929 . S
H3185 C3194 0.929 . S
C3186 H3180 0.930 . S
C3186 C3187 1.367 . S
C3186 C3194 1.378 . S
C3187 C3186 1.367 . S
C3187 C3195 1.433 . S
C3188 H3184 0.929 . S
C3188 C3190 1.378 . S
C3188 C3192 1.350 . S
C3189 C3192 1.463 . S
C3189 C3194 1.350 . S
C3189 N3197 1.427 . S
C3190 H3181 0.930 . S
C3190 C3188 1.378 . S
C3190 C3191 1.367 . S
C3191 C3190 1.367 . S
C3191 C3193 1.433 . S
C3192 C3188 1.350 . S
C3192 C3189 1.463 . S
C3192 N3196 1.427 . S
C3193 H3183 0.929 . S
C3193 C3191 1.433 . S
C3193 N3196 1.384 . S
C3194 H3185 0.929 . S
C3194 C3186 1.378 . S
C3194 C3189 1.350 . S
C3195 H3182 0.929 . S
C3195 C3187 1.433 . S
C3195 N3197 1.384 . S
N3196 C3192 1.427 . S
N3196 C3193 1.384 . S
N3197 C3189 1.427 . S
N3197 C3195 1.384 . S
H3198 C3204 0.930 . S
H3199 C3208 0.930 . S
H3200 C3213 0.929 . S
H3201 C3211 0.929 . S
H3202 C3206 0.929 . S
H3203 C3212 0.929 . S
C3204 H3198 0.930 . S
C3204 C3205 1.367 . S
C3204 C3212 1.378 . S
C3205 C3204 1.367 . S
C3205 C3213 1.433 . S
C3206 H3202 0.929 . S
C3206 C3208 1.378 . S
C3206 C3210 1.350 . S
C3207 C3210 1.463 . S
C3207 C3212 1.350 . S
C3207 N3215 1.427 . S
C3208 H3199 0.930 . S
C3208 C3206 1.378 . S
C3208 C3209 1.367 . S
C3209 C3208 1.367 . S
C3209 C3211 1.433 . S
C3210 C3206 1.350 . S
C3210 C3207 1.463 . S
C3210 N3214 1.427 . S
C3211 H3201 0.929 . S
C3211 C3209 1.433 . S
C3211 N3214 1.384 . S
C3212 H3203 0.929 . S
C3212 C3204 1.378 . S
C3212 C3207 1.350 . S
C3213 H3200 0.929 . S
C3213 C3205 1.433 . S
C3213 N3215 1.384 . S
N3214 C3210 1.427 . S
N3214 C3211 1.384 . S
N3215 C3207 1.427 . S
N3215 C3213 1.384 . S
H3216 C3222 0.930 . S
H3217 C3226 0.930 . S
H3218 C3231 0.929 . S
H3219 C3229 0.929 . S
H3220 C3224 0.929 . S
H3221 C3230 0.929 . S
C3222 H3216 0.930 . S
C3222 C3223 1.367 . S
C3222 C3230 1.378 . S
C3223 C3222 1.367 . S
C3223 C3231 1.433 . S
C3224 H3220 0.929 . S
C3224 C3226 1.378 . S
C3224 C3228 1.350 . S
C3225 C3228 1.463 . S
C3225 C3230 1.350 . S
C3225 N3233 1.427 . S
C3226 H3217 0.930 . S
C3226 C3224 1.378 . S
C3226 C3227 1.367 . S
C3227 C3226 1.367 . S
C3227 C3229 1.433 . S
C3228 C3224 1.350 . S
C3228 C3225 1.463 . S
C3228 N3232 1.427 . S
C3229 H3219 0.929 . S
C3229 C3227 1.433 . S
C3229 N3232 1.384 . S
C3230 H3221 0.929 . S
C3230 C3222 1.378 . S
C3230 C3225 1.350 . S
C3231 H3218 0.929 . S
C3231 C3223 1.433 . S
C3231 N3233 1.384 . S
N3232 C3228 1.427 . S
N3232 C3229 1.384 . S
N3233 C3225 1.427 . S
N3233 C3231 1.384 . S
H3234 C3240 0.930 . S
H3235 C3244 0.930 . S
H3236 C3249 0.929 . S
H3237 C3247 0.929 . S
H3238 C3242 0.929 . S
H3239 C3248 0.929 . S
C3240 H3234 0.930 . S
C3240 C3241 1.367 . S
C3240 C3248 1.378 . S
C3241 C3240 1.367 . S
C3241 C3249 1.433 . S
C3242 H3238 0.929 . S
C3242 C3244 1.378 . S
C3242 C3246 1.350 . S
C3243 C3246 1.463 . S
C3243 C3248 1.350 . S
C3243 N3251 1.427 . S
C3244 H3235 0.930 . S
C3244 C3242 1.378 . S
C3244 C3245 1.367 . S
C3245 C3244 1.367 . S
C3245 C3247 1.433 . S
C3246 C3242 1.350 . S
C3246 C3243 1.463 . S
C3246 N3250 1.427 . S
C3247 H3237 0.929 . S
C3247 C3245 1.433 . S
C3247 N3250 1.384 . S
C3248 H3239 0.929 . S
C3248 C3240 1.378 . S
C3248 C3243 1.350 . S
C3249 H3236 0.929 . S
C3249 C3241 1.433 . S
C3249 N3251 1.384 . S
N3250 C3246 1.427 . S
N3250 C3247 1.384 . S
N3251 C3243 1.427 . S
N3251 C3249 1.384 . S
H3252 C3258 0.930 . S
H3253 C3262 0.930 . S
H3254 C3267 0.929 . S
H3255 C3265 0.929 . S
H3256 C3260 0.929 . S
H3257 C3266 0.929 . S
C3258 H3252 0.930 . S
C3258 C3259 1.367 . S
C3258 C3266 1.378 . S
C3259 C3258 1.367 . S
C3259 C3267 1.433 . S
C3260 H3256 0.929 . S
C3260 C3262 1.378 . S
C3260 C3264 1.350 . S
C3261 C3264 1.463 . S
C3261 C3266 1.350 . S
C3261 N3269 1.427 . S
C3262 H3253 0.930 . S
C3262 C3260 1.378 . S
C3262 C3263 1.367 . S
C3263 C3262 1.367 . S
C3263 C3265 1.433 . S
C3264 C3260 1.350 . S
C3264 C3261 1.463 . S
C3264 N3268 1.427 . S
C3265 H3255 0.929 . S
C3265 C3263 1.433 . S
C3265 N3268 1.384 . S
C3266 H3257 0.929 . S
C3266 C3258 1.378 . S
C3266 C3261 1.350 . S
C3267 H3254 0.929 . S
C3267 C3259 1.433 . S
C3267 N3269 1.384 . S
N3268 C3264 1.427 . S
N3268 C3265 1.384 . S
N3269 C3261 1.427 . S
N3269 C3267 1.384 . S
H3270 C3276 0.930 . S
H3271 C3280 0.930 . S
H3272 C3285 0.929 . S
H3273 C3283 0.929 . S
H3274 C3278 0.929 . S
H3275 C3284 0.929 . S
C3276 H3270 0.930 . S
C3276 C3277 1.367 . S
C3276 C3284 1.378 . S
C3277 C3276 1.367 . S
C3277 C3285 1.433 . S
C3278 H3274 0.929 . S
C3278 C3280 1.378 . S
C3278 C3282 1.350 . S
C3279 C3282 1.463 . S
C3279 C3284 1.350 . S
C3279 N3287 1.427 . S
C3280 H3271 0.930 . S
C3280 C3278 1.378 . S
C3280 C3281 1.367 . S
C3281 C3280 1.367 . S
C3281 C3283 1.433 . S
C3282 C3278 1.350 . S
C3282 C3279 1.463 . S
C3282 N3286 1.427 . S
C3283 H3273 0.929 . S
C3283 C3281 1.433 . S
C3283 N3286 1.384 . S
C3284 H3275 0.929 . S
C3284 C3276 1.378 . S
C3284 C3279 1.350 . S
C3285 H3272 0.929 . S
C3285 C3277 1.433 . S
C3285 N3287 1.384 . S
N3286 C3282 1.427 . S
N3286 C3283 1.384 . S
N3287 C3279 1.427 . S
N3287 C3285 1.384 . S
H3288 C3294 0.930 . S
H3289 C3298 0.930 . S
H3290 C3303 0.929 . S
H3291 C3301 0.929 . S
H3292 C3296 0.929 . S
H3293 C3302 0.929 . S
C3294 H3288 0.930 . S
C3294 C3295 1.367 . S
C3294 C3302 1.378 . S
C3295 C3294 1.367 . S
C3295 C3303 1.433 . S
C3296 H3292 0.929 . S
C3296 C3298 1.378 . S
C3296 C3300 1.350 . S
C3297 C3300 1.463 . S
C3297 C3302 1.350 . S
C3297 N3305 1.427 . S
C3298 H3289 0.930 . S
C3298 C3296 1.378 . S
C3298 C3299 1.367 . S
C3299 C3298 1.367 . S
C3299 C3301 1.433 . S
C3300 C3296 1.350 . S
C3300 C3297 1.463 . S
C3300 N3304 1.427 . S
C3301 H3291 0.929 . S
C3301 C3299 1.433 . S
C3301 N3304 1.384 . S
C3302 H3293 0.929 . S
C3302 C3294 1.378 . S
C3302 C3297 1.350 . S
C3303 H3290 0.929 . S
C3303 C3295 1.433 . S
C3303 N3305 1.384 . S
N3304 C3300 1.427 . S
N3304 C3301 1.384 . S
N3305 C3297 1.427 . S
N3305 C3303 1.384 . S
H3306 C3312 0.930 . S
H3307 C3316 0.930 . S
H3308 C3321 0.929 . S
H3309 C3319 0.929 . S
H3310 C3314 0.929 . S
H3311 C3320 0.929 . S
C3312 H3306 0.930 . S
C3312 C3313 1.367 . S
C3312 C3320 1.378 . S
C3313 C3312 1.367 . S
C3313 C3321 1.433 . S
C3314 H3310 0.929 . S
C3314 C3316 1.378 . S
C3314 C3318 1.350 . S
C3315 C3318 1.463 . S
C3315 C3320 1.350 . S
C3315 N3323 1.427 . S
C3316 H3307 0.930 . S
C3316 C3314 1.378 . S
C3316 C3317 1.367 . S
C3317 C3316 1.367 . S
C3317 C3319 1.433 . S
C3318 C3314 1.350 . S
C3318 C3315 1.463 . S
C3318 N3322 1.427 . S
C3319 H3309 0.929 . S
C3319 C3317 1.433 . S
C3319 N3322 1.384 . S
C3320 H3311 0.929 . S
C3320 C3312 1.378 . S
C3320 C3315 1.350 . S
C3321 H3308 0.929 . S
C3321 C3313 1.433 . S
C3321 N3323 1.384 . S
N3322 C3318 1.427 . S
N3322 C3319 1.384 . S
N3323 C3315 1.427 . S
N3323 C3321 1.384 . S
H3324 C3330 0.930 . S
H3325 C3334 0.930 . S
H3326 C3339 0.929 . S
H3327 C3337 0.929 . S
H3328 C3332 0.929 . S
H3329 C3338 0.929 . S
C3330 H3324 0.930 . S
C3330 C3331 1.367 . S
C3330 C3338 1.378 . S
C3331 C3330 1.367 . S
C3331 C3339 1.433 . S
C3332 H3328 0.929 . S
C3332 C3334 1.378 . S
C3332 C3336 1.350 . S
C3333 C3336 1.463 . S
C3333 C3338 1.350 . S
C3333 N3341 1.427 . S
C3334 H3325 0.930 . S
C3334 C3332 1.378 . S
C3334 C3335 1.367 . S
C3335 C3334 1.367 . S
C3335 C3337 1.433 . S
C3336 C3332 1.350 . S
C3336 C3333 1.463 . S
C3336 N3340 1.427 . S
C3337 H3327 0.929 . S
C3337 C3335 1.433 . S
C3337 N3340 1.384 . S
C3338 H3329 0.929 . S
C3338 C3330 1.378 . S
C3338 C3333 1.350 . S
C3339 H3326 0.929 . S
C3339 C3331 1.433 . S
C3339 N3341 1.384 . S
N3340 C3336 1.427 . S
N3340 C3337 1.384 . S
N3341 C3333 1.427 . S
N3341 C3339 1.384 . S
H3342 C3348 0.930 . S
H3343 C3352 0.930 . S
H3344 C3357 0.929 . S
H3345 C3355 0.929 . S
H3346 C3350 0.929 . S
H3347 C3356 0.929 . S
C3348 H3342 0.930 . S
C3348 C3349 1.367 . S
C3348 C3356 1.378 . S
C3349 C3348 1.367 . S
C3349 C3357 1.433 . S
C3350 H3346 0.929 . S
C3350 C3352 1.378 . S
C3350 C3354 1.350 . S
C3351 C3354 1.463 . S
C3351 C3356 1.350 . S
C3351 N3359 1.427 . S
C3352 H3343 0.930 . S
C3352 C3350 1.378 . S
C3352 C3353 1.367 . S
C3353 C3352 1.367 . S
C3353 C3355 1.433 . S
C3354 C3350 1.350 . S
C3354 C3351 1.463 . S
C3354 N3358 1.427 . S
C3355 H3345 0.929 . S
C3355 C3353 1.433 . S
C3355 N3358 1.384 . S
C3356 H3347 0.929 . S
C3356 C3348 1.378 . S
C3356 C3351 1.350 . S
C3357 H3344 0.929 . S
C3357 C3349 1.433 . S
C3357 N3359 1.384 . S
N3358 C3354 1.427 . S
N3358 C3355 1.384 . S
N3359 C3351 1.427 . S
N3359 C3357 1.384 . S
H3360 C3366 0.930 . S
H3361 C3370 0.930 . S
H3362 C3375 0.929 . S
H3363 C3373 0.929 . S
H3364 C3368 0.929 . S
H3365 C3374 0.929 . S
C3366 H3360 0.930 . S
C3366 C3367 1.367 . S
C3366 C3374 1.378 . S
C3367 C3366 1.367 . S
C3367 C3375 1.433 . S
C3368 H3364 0.929 . S
C3368 C3370 1.378 . S
C3368 C3372 1.350 . S
C3369 C3372 1.463 . S
C3369 C3374 1.350 . S
C3369 N3377 1.427 . S
C3370 H3361 0.930 . S
C3370 C3368 1.378 . S
C3370 C3371 1.367 . S
C3371 C3370 1.367 . S
C3371 C3373 1.433 . S
C3372 C3368 1.350 . S
C3372 C3369 1.463 . S
C3372 N3376 1.427 . S
C3373 H3363 0.929 . S
C3373 C3371 1.433 . S
C3373 N3376 1.384 . S
C3374 H3365 0.929 . S
C3374 C3366 1.378 . S
C3374 C3369 1.350 . S
C3375 H3362 0.929 . S
C3375 C3367 1.433 . S
C3375 N3377 1.384 . S
N3376 C3372 1.427 . S
N3376 C3373 1.384 . S
N3377 C3369 1.427 . S
N3377 C3375 1.384 . S
H3378 C3384 0.930 . S
H3379 C3388 0.930 . S
H3380 C3393 0.929 . S
H3381 C3391 0.929 . S
H3382 C3386 0.929 . S
H3383 C3392 0.929 . S
C3384 H3378 0.930 . S
C3384 C3385 1.367 . S
C3384 C3392 1.378 . S
C3385 C3384 1.367 . S
C3385 C3393 1.433 . S
C3386 H3382 0.929 . S
C3386 C3388 1.378 . S
C3386 C3390 1.350 . S
C3387 C3390 1.463 . S
C3387 C3392 1.350 . S
C3387 N3395 1.427 . S
C3388 H3379 0.930 . S
C3388 C3386 1.378 . S
C3388 C3389 1.367 . S
C3389 C3388 1.367 . S
C3389 C3391 1.433 . S
C3390 C3386 1.350 . S
C3390 C3387 1.463 . S
C3390 N3394 1.427 . S
C3391 H3381 0.929 . S
C3391 C3389 1.433 . S
C3391 N3394 1.384 . S
C3392 H3383 0.929 . S
C3392 C3384 1.378 . S
C3392 C3387 1.350 . S
C3393 H3380 0.929 . S
C3393 C3385 1.433 . S
C3393 N3395 1.384 . S
N3394 C3390 1.427 . S
N3394 C3391 1.384 . S
N3395 C3387 1.427 . S
N3395 C3393 1.384 . S
H3396 C3402 0.930 . S
H3397 C3406 0.930 . S
H3398 C3411 0.929 . S
H3399 C3409 0.929 . S
H3400 C3404 0.929 . S
H3401 C3410 0.929 . S
C3402 H3396 0.930 . S
C3402 C3403 1.367 . S
C3402 C3410 1.378 . S
C3403 C3402 1.367 . S
C3403 C3411 1.433 . S
C3404 H3400 0.929 . S
C3404 C3406 1.378 . S
C3404 C3408 1.350 . S
C3405 C3408 1.463 . S
C3405 C3410 1.350 . S
C3405 N3413 1.427 . S
C3406 H3397 0.930 . S
C3406 C3404 1.378 . S
C3406 C3407 1.367 . S
C3407 C3406 1.367 . S
C3407 C3409 1.433 . S
C3408 C3404 1.350 . S
C3408 C3405 1.463 . S
C3408 N3412 1.427 . S
C3409 H3399 0.929 . S
C3409 C3407 1.433 . S
C3409 N3412 1.384 . S
C3410 H3401 0.929 . S
C3410 C3402 1.378 . S
C3410 C3405 1.350 . S
C3411 H3398 0.929 . S
C3411 C3403 1.433 . S
C3411 N3413 1.384 . S
N3412 C3408 1.427 . S
N3412 C3409 1.384 . S
N3413 C3405 1.427 . S
N3413 C3411 1.384 . S
H3414 C3420 0.930 . S
H3415 C3424 0.930 . S
H3416 C3429 0.929 . S
H3417 C3427 0.929 . S
H3418 C3422 0.929 . S
H3419 C3428 0.929 . S
C3420 H3414 0.930 . S
C3420 C3421 1.367 . S
C3420 C3428 1.378 . S
C3421 C3420 1.367 . S
C3421 C3429 1.433 . S
C3422 H3418 0.929 . S
C3422 C3424 1.378 . S
C3422 C3426 1.350 . S
C3423 C3426 1.463 . S
C3423 C3428 1.350 . S
C3423 N3431 1.427 . S
C3424 H3415 0.930 . S
C3424 C3422 1.378 . S
C3424 C3425 1.367 . S
C3425 C3424 1.367 . S
C3425 C3427 1.433 . S
C3426 C3422 1.350 . S
C3426 C3423 1.463 . S
C3426 N3430 1.427 . S
C3427 H3417 0.929 . S
C3427 C3425 1.433 . S
C3427 N3430 1.384 . S
C3428 H3419 0.929 . S
C3428 C3420 1.378 . S
C3428 C3423 1.350 . S
C3429 H3416 0.929 . S
C3429 C3421 1.433 . S
C3429 N3431 1.384 . S
N3430 C3426 1.427 . S
N3430 C3427 1.384 . S
N3431 C3423 1.427 . S
N3431 C3429 1.384 . S
H3432 C3438 0.930 . S
H3433 C3442 0.930 . S
H3434 C3447 0.929 . S
H3435 C3445 0.929 . S
H3436 C3440 0.929 . S
H3437 C3446 0.929 . S
C3438 H3432 0.930 . S
C3438 C3439 1.367 . S
C3438 C3446 1.378 . S
C3439 C3438 1.367 . S
C3439 C3447 1.433 . S
C3440 H3436 0.929 . S
C3440 C3442 1.378 . S
C3440 C3444 1.350 . S
C3441 C3444 1.463 . S
C3441 C3446 1.350 . S
C3441 N3449 1.427 . S
C3442 H3433 0.930 . S
C3442 C3440 1.378 . S
C3442 C3443 1.367 . S
C3443 C3442 1.367 . S
C3443 C3445 1.433 . S
C3444 C3440 1.350 . S
C3444 C3441 1.463 . S
C3444 N3448 1.427 . S
C3445 H3435 0.929 . S
C3445 C3443 1.433 . S
C3445 N3448 1.384 . S
C3446 H3437 0.929 . S
C3446 C3438 1.378 . S
C3446 C3441 1.350 . S
C3447 H3434 0.929 . S
C3447 C3439 1.433 . S
C3447 N3449 1.384 . S
N3448 C3444 1.427 . S
N3448 C3445 1.384 . S
N3449 C3441 1.427 . S
N3449 C3447 1.384 . S
H3450 C3456 0.930 . S
H3451 C3460 0.930 . S
H3452 C3465 0.929 . S
H3453 C3463 0.929 . S
H3454 C3458 0.929 . S
H3455 C3464 0.929 . S
C3456 H3450 0.930 . S
C3456 C3457 1.367 . S
C3456 C3464 1.378 . S
C3457 C3456 1.367 . S
C3457 C3465 1.433 . S
C3458 H3454 0.929 . S
C3458 C3460 1.378 . S
C3458 C3462 1.350 . S
C3459 C3462 1.463 . S
C3459 C3464 1.350 . S
C3459 N3467 1.427 . S
C3460 H3451 0.930 . S
C3460 C3458 1.378 . S
C3460 C3461 1.367 . S
C3461 C3460 1.367 . S
C3461 C3463 1.433 . S
C3462 C3458 1.350 . S
C3462 C3459 1.463 . S
C3462 N3466 1.427 . S
C3463 H3453 0.929 . S
C3463 C3461 1.433 . S
C3463 N3466 1.384 . S
C3464 H3455 0.929 . S
C3464 C3456 1.378 . S
C3464 C3459 1.350 . S
C3465 H3452 0.929 . S
C3465 C3457 1.433 . S
C3465 N3467 1.384 . S
N3466 C3462 1.427 . S
N3466 C3463 1.384 . S
N3467 C3459 1.427 . S
N3467 C3465 1.384 . S
H3468 C3474 0.930 . S
H3469 C3478 0.930 . S
H3470 C3483 0.929 . S
H3471 C3481 0.929 . S
H3472 C3476 0.929 . S
H3473 C3482 0.929 . S
C3474 H3468 0.930 . S
C3474 C3475 1.367 . S
C3474 C3482 1.378 . S
C3475 C3474 1.367 . S
C3475 C3483 1.433 . S
C3476 H3472 0.929 . S
C3476 C3478 1.378 . S
C3476 C3480 1.350 . S
C3477 C3480 1.463 . S
C3477 C3482 1.350 . S
C3477 N3485 1.427 . S
C3478 H3469 0.930 . S
C3478 C3476 1.378 . S
C3478 C3479 1.367 . S
C3479 C3478 1.367 . S
C3479 C3481 1.433 . S
C3480 C3476 1.350 . S
C3480 C3477 1.463 . S
C3480 N3484 1.427 . S
C3481 H3471 0.929 . S
C3481 C3479 1.433 . S
C3481 N3484 1.384 . S
C3482 H3473 0.929 . S
C3482 C3474 1.378 . S
C3482 C3477 1.350 . S
C3483 H3470 0.929 . S
C3483 C3475 1.433 . S
C3483 N3485 1.384 . S
N3484 C3480 1.427 . S
N3484 C3481 1.384 . S
N3485 C3477 1.427 . S
N3485 C3483 1.384 . S
H3486 C3492 0.930 . S
H3487 C3496 0.930 . S
H3488 C3501 0.929 . S
H3489 C3499 0.929 . S
H3490 C3494 0.929 . S
H3491 C3500 0.929 . S
C3492 H3486 0.930 . S
C3492 C3493 1.367 . S
C3492 C3500 1.378 . S
C3493 C3492 1.367 . S
C3493 C3501 1.433 . S
C3494 H3490 0.929 . S
C3494 C3496 1.378 . S
C3494 C3498 1.350 . S
C3495 C3498 1.463 . S
C3495 C3500 1.350 . S
C3495 N3503 1.427 . S
C3496 H3487 0.930 . S
C3496 C3494 1.378 . S
C3496 C3497 1.367 . S
C3497 C3496 1.367 . S
C3497 C3499 1.433 . S
C3498 C3494 1.350 . S
C3498 C3495 1.463 . S
C3498 N3502 1.427 . S
C3499 H3489 0.929 . S
C3499 C3497 1.433 . S
C3499 N3502 1.384 . S
C3500 H3491 0.929 . S
C3500 C3492 1.378 . S
C3500 C3495 1.350 . S
C3501 H3488 0.929 . S
C3501 C3493 1.433 . S
C3501 N3503 1.384 . S
N3502 C3498 1.427 . S
N3502 C3499 1.384 . S
N3503 C3495 1.427 . S
N3503 C3501 1.384 . S
H3504 C3510 0.930 . S
H3505 C3514 0.930 . S
H3506 C3519 0.929 . S
H3507 C3517 0.929 . S
H3508 C3512 0.929 . S
H3509 C3518 0.929 . S
C3510 H3504 0.930 . S
C3510 C3511 1.367 . S
C3510 C3518 1.378 . S
C3511 C3510 1.367 . S
C3511 C3519 1.433 . S
C3512 H3508 0.929 . S
C3512 C3514 1.378 . S
C3512 C3516 1.350 . S
C3513 C3516 1.463 . S
C3513 C3518 1.350 . S
C3513 N3521 1.427 . S
C3514 H3505 0.930 . S
C3514 C3512 1.378 . S
C3514 C3515 1.367 . S
C3515 C3514 1.367 . S
C3515 C3517 1.433 . S
C3516 C3512 1.350 . S
C3516 C3513 1.463 . S
C3516 N3520 1.427 . S
C3517 H3507 0.929 . S
C3517 C3515 1.433 . S
C3517 N3520 1.384 . S
C3518 H3509 0.929 . S
C3518 C3510 1.378 . S
C3518 C3513 1.350 . S
C3519 H3506 0.929 . S
C3519 C3511 1.433 . S
C3519 N3521 1.384 . S
N3520 C3516 1.427 . S
N3520 C3517 1.384 . S
N3521 C3513 1.427 . S
N3521 C3519 1.384 . S
H3522 C3528 0.930 . S
H3523 C3532 0.930 . S
H3524 C3537 0.929 . S
H3525 C3535 0.929 . S
H3526 C3530 0.929 . S
H3527 C3536 0.929 . S
C3528 H3522 0.930 . S
C3528 C3529 1.367 . S
C3528 C3536 1.378 . S
C3529 C3528 1.367 . S
C3529 C3537 1.433 . S
C3530 H3526 0.929 . S
C3530 C3532 1.378 . S
C3530 C3534 1.350 . S
C3531 C3534 1.463 . S
C3531 C3536 1.350 . S
C3531 N3539 1.427 . S
C3532 H3523 0.930 . S
C3532 C3530 1.378 . S
C3532 C3533 1.367 . S
C3533 C3532 1.367 . S
C3533 C3535 1.433 . S
C3534 C3530 1.350 . S
C3534 C3531 1.463 . S
C3534 N3538 1.427 . S
C3535 H3525 0.929 . S
C3535 C3533 1.433 . S
C3535 N3538 1.384 . S
C3536 H3527 0.929 . S
C3536 C3528 1.378 . S
C3536 C3531 1.350 . S
C3537 H3524 0.929 . S
C3537 C3529 1.433 . S
C3537 N3539 1.384 . S
N3538 C3534 1.427 . S
N3538 C3535 1.384 . S
N3539 C3531 1.427 . S
N3539 C3537 1.384 . S
H3540 C3546 0.930 . S
H3541 C3550 0.930 . S
H3542 C3555 0.929 . S
H3543 C3553 0.929 . S
H3544 C3548 0.929 . S
H3545 C3554 0.929 . S
C3546 H3540 0.930 . S
C3546 C3547 1.367 . S
C3546 C3554 1.378 . S
C3547 C3546 1.367 . S
C3547 C3555 1.433 . S
C3548 H3544 0.929 . S
C3548 C3550 1.378 . S
C3548 C3552 1.350 . S
C3549 C3552 1.463 . S
C3549 C3554 1.350 . S
C3549 N3557 1.427 . S
C3550 H3541 0.930 . S
C3550 C3548 1.378 . S
C3550 C3551 1.367 . S
C3551 C3550 1.367 . S
C3551 C3553 1.433 . S
C3552 C3548 1.350 . S
C3552 C3549 1.463 . S
C3552 N3556 1.427 . S
C3553 H3543 0.929 . S
C3553 C3551 1.433 . S
C3553 N3556 1.384 . S
C3554 H3545 0.929 . S
C3554 C3546 1.378 . S
C3554 C3549 1.350 . S
C3555 H3542 0.929 . S
C3555 C3547 1.433 . S
C3555 N3557 1.384 . S
N3556 C3552 1.427 . S
N3556 C3553 1.384 . S
N3557 C3549 1.427 . S
N3557 C3555 1.384 . S
H3558 C3564 0.930 . S
H3559 C3568 0.930 . S
H3560 C3573 0.929 . S
H3561 C3571 0.929 . S
H3562 C3566 0.929 . S
H3563 C3572 0.929 . S
C3564 H3558 0.930 . S
C3564 C3565 1.367 . S
C3564 C3572 1.378 . S
C3565 C3564 1.367 . S
C3565 C3573 1.433 . S
C3566 H3562 0.929 . S
C3566 C3568 1.378 . S
C3566 C3570 1.350 . S
C3567 C3570 1.463 . S
C3567 C3572 1.350 . S
C3567 N3575 1.427 . S
C3568 H3559 0.930 . S
C3568 C3566 1.378 . S
C3568 C3569 1.367 . S
C3569 C3568 1.367 . S
C3569 C3571 1.433 . S
C3570 C3566 1.350 . S
C3570 C3567 1.463 . S
C3570 N3574 1.427 . S
C3571 H3561 0.929 . S
C3571 C3569 1.433 . S
C3571 N3574 1.384 . S
C3572 H3563 0.929 . S
C3572 C3564 1.378 . S
C3572 C3567 1.350 . S
C3573 H3560 0.929 . S
C3573 C3565 1.433 . S
C3573 N3575 1.384 . S
N3574 C3570 1.427 . S
N3574 C3571 1.384 . S
N3575 C3567 1.427 . S
N3575 C3573 1.384 . S
H3576 C3582 0.930 . S
H3577 C3586 0.930 . S
H3578 C3591 0.929 . S
H3579 C3589 0.929 . S
H3580 C3584 0.929 . S
H3581 C3590 0.929 . S
C3582 H3576 0.930 . S
C3582 C3583 1.367 . S
C3582 C3590 1.378 . S
C3583 C3582 1.367 . S
C3583 C3591 1.433 . S
C3584 H3580 0.929 . S
C3584 C3586 1.378 . S
C3584 C3588 1.350 . S
C3585 C3588 1.463 . S
C3585 C3590 1.350 . S
C3585 N3593 1.427 . S
C3586 H3577 0.930 . S
C3586 C3584 1.378 . S
C3586 C3587 1.367 . S
C3587 C3586 1.367 . S
C3587 C3589 1.433 . S
C3588 C3584 1.350 . S
C3588 C3585 1.463 . S
C3588 N3592 1.427 . S
C3589 H3579 0.929 . S
C3589 C3587 1.433 . S
C3589 N3592 1.384 . S
C3590 H3581 0.929 . S
C3590 C3582 1.378 . S
C3590 C3585 1.350 . S
C3591 H3578 0.929 . S
C3591 C3583 1.433 . S
C3591 N3593 1.384 . S
N3592 C3588 1.427 . S
N3592 C3589 1.384 . S
N3593 C3585 1.427 . S
N3593 C3591 1.384 . S
H3594 C3600 0.930 . S
H3595 C3604 0.930 . S
H3596 C3609 0.929 . S
H3597 C3607 0.929 . S
H3598 C3602 0.929 . S
H3599 C3608 0.929 . S
C3600 H3594 0.930 . S
C3600 C3601 1.367 . S
C3600 C3608 1.378 . S
C3601 C3600 1.367 . S
C3601 C3609 1.433 . S
C3602 H3598 0.929 . S
C3602 C3604 1.378 . S
C3602 C3606 1.350 . S
C3603 C3606 1.463 . S
C3603 C3608 1.350 . S
C3603 N3611 1.427 . S
C3604 H3595 0.930 . S
C3604 C3602 1.378 . S
C3604 C3605 1.367 . S
C3605 C3604 1.367 . S
C3605 C3607 1.433 . S
C3606 C3602 1.350 . S
C3606 C3603 1.463 . S
C3606 N3610 1.427 . S
C3607 H3597 0.929 . S
C3607 C3605 1.433 . S
C3607 N3610 1.384 . S
C3608 H3599 0.929 . S
C3608 C3600 1.378 . S
C3608 C3603 1.350 . S
C3609 H3596 0.929 . S
C3609 C3601 1.433 . S
C3609 N3611 1.384 . S
N3610 C3606 1.427 . S
N3610 C3607 1.384 . S
N3611 C3603 1.427 . S
N3611 C3609 1.384 . S
H3612 C3618 0.930 . S
H3613 C3622 0.930 . S
H3614 C3627 0.929 . S
H3615 C3625 0.929 . S
H3616 C3620 0.929 . S
H3617 C3626 0.929 . S
C3618 H3612 0.930 . S
C3618 C3619 1.367 . S
C3618 C3626 1.378 . S
C3619 C3618 1.367 . S
C3619 C3627 1.433 . S
C3620 H3616 0.929 . S
C3620 C3622 1.378 . S
C3620 C3624 1.350 . S
C3621 C3624 1.463 . S
C3621 C3626 1.350 . S
C3621 N3629 1.427 . S
C3622 H3613 0.930 . S
C3622 C3620 1.378 . S
C3622 C3623 1.367 . S
C3623 C3622 1.367 . S
C3623 C3625 1.433 . S
C3624 C3620 1.350 . S
C3624 C3621 1.463 . S
C3624 N3628 1.427 . S
C3625 H3615 0.929 . S
C3625 C3623 1.433 . S
C3625 N3628 1.384 . S
C3626 H3617 0.929 . S
C3626 C3618 1.378 . S
C3626 C3621 1.350 . S
C3627 H3614 0.929 . S
C3627 C3619 1.433 . S
C3627 N3629 1.384 . S
N3628 C3624 1.427 . S
N3628 C3625 1.384 . S
N3629 C3621 1.427 . S
N3629 C3627 1.384 . S
H3630 C3636 0.930 . S
H3631 C3640 0.930 . S
H3632 C3645 0.929 . S
H3633 C3643 0.929 . S
H3634 C3638 0.929 . S
H3635 C3644 0.929 . S
C3636 H3630 0.930 . S
C3636 C3637 1.367 . S
C3636 C3644 1.378 . S
C3637 C3636 1.367 . S
C3637 C3645 1.433 . S
C3638 H3634 0.929 . S
C3638 C3640 1.378 . S
C3638 C3642 1.350 . S
C3639 C3642 1.463 . S
C3639 C3644 1.350 . S
C3639 N3647 1.427 . S
C3640 H3631 0.930 . S
C3640 C3638 1.378 . S
C3640 C3641 1.367 . S
C3641 C3640 1.367 . S
C3641 C3643 1.433 . S
C3642 C3638 1.350 . S
C3642 C3639 1.463 . S
C3642 N3646 1.427 . S
C3643 H3633 0.929 . S
C3643 C3641 1.433 . S
C3643 N3646 1.384 . S
C3644 H3635 0.929 . S
C3644 C3636 1.378 . S
C3644 C3639 1.350 . S
C3645 H3632 0.929 . S
C3645 C3637 1.433 . S
C3645 N3647 1.384 . S
N3646 C3642 1.427 . S
N3646 C3643 1.384 . S
N3647 C3639 1.427 . S
N3647 C3645 1.384 . S
H3648 C3654 0.930 . S
H3649 C3658 0.930 . S
H3650 C3663 0.929 . S
H3651 C3661 0.929 . S
H3652 C3656 0.929 . S
H3653 C3662 0.929 . S
C3654 H3648 0.930 . S
C3654 C3655 1.367 . S
C3654 C3662 1.378 . S
C3655 C3654 1.367 . S
C3655 C3663 1.433 . S
C3656 H3652 0.929 . S
C3656 C3658 1.378 . S
C3656 C3660 1.350 . S
C3657 C3660 1.463 . S
C3657 C3662 1.350 . S
C3657 N3665 1.427 . S
C3658 H3649 0.930 . S
C3658 C3656 1.378 . S
C3658 C3659 1.367 . S
C3659 C3658 1.367 . S
C3659 C3661 1.433 . S
C3660 C3656 1.350 . S
C3660 C3657 1.463 . S
C3660 N3664 1.427 . S
C3661 H3651 0.929 . S
C3661 C3659 1.433 . S
C3661 N3664 1.384 . S
C3662 H3653 0.929 . S
C3662 C3654 1.378 . S
C3662 C3657 1.350 . S
C3663 H3650 0.929 . S
C3663 C3655 1.433 . S
C3663 N3665 1.384 . S
N3664 C3660 1.427 . S
N3664 C3661 1.384 . S
N3665 C3657 1.427 . S
N3665 C3663 1.384 . S
H3666 C3672 0.930 . S
H3667 C3676 0.930 . S
H3668 C3681 0.929 . S
H3669 C3679 0.929 . S
H3670 C3674 0.929 . S
H3671 C3680 0.929 . S
C3672 H3666 0.930 . S
C3672 C3673 1.367 . S
C3672 C3680 1.378 . S
C3673 C3672 1.367 . S
C3673 C3681 1.433 . S
C3674 H3670 0.929 . S
C3674 C3676 1.378 . S
C3674 C3678 1.350 . S
C3675 C3678 1.463 . S
C3675 C3680 1.350 . S
C3675 N3683 1.427 . S
C3676 H3667 0.930 . S
C3676 C3674 1.378 . S
C3676 C3677 1.367 . S
C3677 C3676 1.367 . S
C3677 C3679 1.433 . S
C3678 C3674 1.350 . S
C3678 C3675 1.463 . S
C3678 N3682 1.427 . S
C3679 H3669 0.929 . S
C3679 C3677 1.433 . S
C3679 N3682 1.384 . S
C3680 H3671 0.929 . S
C3680 C3672 1.378 . S
C3680 C3675 1.350 . S
C3681 H3668 0.929 . S
C3681 C3673 1.433 . S
C3681 N3683 1.384 . S
N3682 C3678 1.427 . S
N3682 C3679 1.384 . S
N3683 C3675 1.427 . S
N3683 C3681 1.384 . S
H3684 C3690 0.930 . S
H3685 C3694 0.930 . S
H3686 C3699 0.929 . S
H3687 C3697 0.929 . S
H3688 C3692 0.929 . S
H3689 C3698 0.929 . S
C3690 H3684 0.930 . S
C3690 C3691 1.367 . S
C3690 C3698 1.378 . S
C3691 C3690 1.367 . S
C3691 C3699 1.433 . S
C3692 H3688 0.929 . S
C3692 C3694 1.378 . S
C3692 C3696 1.350 . S
C3693 C3696 1.463 . S
C3693 C3698 1.350 . S
C3693 N3701 1.427 . S
C3694 H3685 0.930 . S
C3694 C3692 1.378 . S
C3694 C3695 1.367 . S
C3695 C3694 1.367 . S
C3695 C3697 1.433 . S
C3696 C3692 1.350 . S
C3696 C3693 1.463 . S
C3696 N3700 1.427 . S
C3697 H3687 0.929 . S
C3697 C3695 1.433 . S
C3697 N3700 1.384 . S
C3698 H3689 0.929 . S
C3698 C3690 1.378 . S
C3698 C3693 1.350 . S
C3699 H3686 0.929 . S
C3699 C3691 1.433 . S
C3699 N3701 1.384 . S
N3700 C3696 1.427 . S
N3700 C3697 1.384 . S
N3701 C3693 1.427 . S
N3701 C3699 1.384 . S
H3702 C3708 0.930 . S
H3703 C3712 0.930 . S
H3704 C3717 0.929 . S
H3705 C3715 0.929 . S
H3706 C3710 0.929 . S
H3707 C3716 0.929 . S
C3708 H3702 0.930 . S
C3708 C3709 1.367 . S
C3708 C3716 1.378 . S
C3709 C3708 1.367 . S
C3709 C3717 1.433 . S
C3710 H3706 0.929 . S
C3710 C3712 1.378 . S
C3710 C3714 1.350 . S
C3711 C3714 1.463 . S
C3711 C3716 1.350 . S
C3711 N3719 1.427 . S
C3712 H3703 0.930 . S
C3712 C3710 1.378 . S
C3712 C3713 1.367 . S
C3713 C3712 1.367 . S
C3713 C3715 1.433 . S
C3714 C3710 1.350 . S
C3714 C3711 1.463 . S
C3714 N3718 1.427 . S
C3715 H3705 0.929 . S
C3715 C3713 1.433 . S
C3715 N3718 1.384 . S
C3716 H3707 0.929 . S
C3716 C3708 1.378 . S
C3716 C3711 1.350 . S
C3717 H3704 0.929 . S
C3717 C3709 1.433 . S
C3717 N3719 1.384 . S
N3718 C3714 1.427 . S
N3718 C3715 1.384 . S
N3719 C3711 1.427 . S
N3719 C3717 1.384 . S
H3720 C3726 0.930 . S
H3721 C3730 0.930 . S
H3722 C3735 0.929 . S
H3723 C3733 0.929 . S
H3724 C3728 0.929 . S
H3725 C3734 0.929 . S
C3726 H3720 0.930 . S
C3726 C3727 1.367 . S
C3726 C3734 1.378 . S
C3727 C3726 1.367 . S
C3727 C3735 1.433 . S
C3728 H3724 0.929 . S
C3728 C3730 1.378 . S
C3728 C3732 1.350 . S
C3729 C3732 1.463 . S
C3729 C3734 1.350 . S
C3729 N3737 1.427 . S
C3730 H3721 0.930 . S
C3730 C3728 1.378 . S
C3730 C3731 1.367 . S
C3731 C3730 1.367 . S
C3731 C3733 1.433 . S
C3732 C3728 1.350 . S
C3732 C3729 1.463 . S
C3732 N3736 1.427 . S
C3733 H3723 0.929 . S
C3733 C3731 1.433 . S
C3733 N3736 1.384 . S
C3734 H3725 0.929 . S
C3734 C3726 1.378 . S
C3734 C3729 1.350 . S
C3735 H3722 0.929 . S
C3735 C3727 1.433 . S
C3735 N3737 1.384 . S
N3736 C3732 1.427 . S
N3736 C3733 1.384 . S
N3737 C3729 1.427 . S
N3737 C3735 1.384 . S
H3738 C3744 0.930 . S
H3739 C3748 0.930 . S
H3740 C3753 0.929 . S
H3741 C3751 0.929 . S
H3742 C3746 0.929 . S
H3743 C3752 0.929 . S
C3744 H3738 0.930 . S
C3744 C3745 1.367 . S
C3744 C3752 1.378 . S
C3745 C3744 1.367 . S
C3745 C3753 1.433 . S
C3746 H3742 0.929 . S
C3746 C3748 1.378 . S
C3746 C3750 1.350 . S
C3747 C3750 1.463 . S
C3747 C3752 1.350 . S
C3747 N3755 1.427 . S
C3748 H3739 0.930 . S
C3748 C3746 1.378 . S
C3748 C3749 1.367 . S
C3749 C3748 1.367 . S
C3749 C3751 1.433 . S
C3750 C3746 1.350 . S
C3750 C3747 1.463 . S
C3750 N3754 1.427 . S
C3751 H3741 0.929 . S
C3751 C3749 1.433 . S
C3751 N3754 1.384 . S
C3752 H3743 0.929 . S
C3752 C3744 1.378 . S
C3752 C3747 1.350 . S
C3753 H3740 0.929 . S
C3753 C3745 1.433 . S
C3753 N3755 1.384 . S
N3754 C3750 1.427 . S
N3754 C3751 1.384 . S
N3755 C3747 1.427 . S
N3755 C3753 1.384 . S
H3756 C3762 0.930 . S
H3757 C3766 0.930 . S
H3758 C3771 0.929 . S
H3759 C3769 0.929 . S
H3760 C3764 0.929 . S
H3761 C3770 0.929 . S
C3762 H3756 0.930 . S
C3762 C3763 1.367 . S
C3762 C3770 1.378 . S
C3763 C3762 1.367 . S
C3763 C3771 1.433 . S
C3764 H3760 0.929 . S
C3764 C3766 1.378 . S
C3764 C3768 1.350 . S
C3765 C3768 1.463 . S
C3765 C3770 1.350 . S
C3765 N3773 1.427 . S
C3766 H3757 0.930 . S
C3766 C3764 1.378 . S
C3766 C3767 1.367 . S
C3767 C3766 1.367 . S
C3767 C3769 1.433 . S
C3768 C3764 1.350 . S
C3768 C3765 1.463 . S
C3768 N3772 1.427 . S
C3769 H3759 0.929 . S
C3769 C3767 1.433 . S
C3769 N3772 1.384 . S
C3770 H3761 0.929 . S
C3770 C3762 1.378 . S
C3770 C3765 1.350 . S
C3771 H3758 0.929 . S
C3771 C3763 1.433 . S
C3771 N3773 1.384 . S
N3772 C3768 1.427 . S
N3772 C3769 1.384 . S
N3773 C3765 1.427 . S
N3773 C3771 1.384 . S
H3774 C3780 0.930 . S
H3775 C3784 0.930 . S
H3776 C3789 0.929 . S
H3777 C3787 0.929 . S
H3778 C3782 0.929 . S
H3779 C3788 0.929 . S
C3780 H3774 0.930 . S
C3780 C3781 1.367 . S
C3780 C3788 1.378 . S
C3781 C3780 1.367 . S
C3781 C3789 1.433 . S
C3782 H3778 0.929 . S
C3782 C3784 1.378 . S
C3782 C3786 1.350 . S
C3783 C3786 1.463 . S
C3783 C3788 1.350 . S
C3783 N3791 1.427 . S
C3784 H3775 0.930 . S
C3784 C3782 1.378 . S
C3784 C3785 1.367 . S
C3785 C3784 1.367 . S
C3785 C3787 1.433 . S
C3786 C3782 1.350 . S
C3786 C3783 1.463 . S
C3786 N3790 1.427 . S
C3787 H3777 0.929 . S
C3787 C3785 1.433 . S
C3787 N3790 1.384 . S
C3788 H3779 0.929 . S
C3788 C3780 1.378 . S
C3788 C3783 1.350 . S
C3789 H3776 0.929 . S
C3789 C3781 1.433 . S
C3789 N3791 1.384 . S
N3790 C3786 1.427 . S
N3790 C3787 1.384 . S
N3791 C3783 1.427 . S
N3791 C3789 1.384 . S
H3792 C3798 0.930 . S
H3793 C3802 0.930 . S
H3794 C3807 0.929 . S
H3795 C3805 0.929 . S
H3796 C3800 0.929 . S
H3797 C3806 0.929 . S
C3798 H3792 0.930 . S
C3798 C3799 1.367 . S
C3798 C3806 1.378 . S
C3799 C3798 1.367 . S
C3799 C3807 1.433 . S
C3800 H3796 0.929 . S
C3800 C3802 1.378 . S
C3800 C3804 1.350 . S
C3801 C3804 1.463 . S
C3801 C3806 1.350 . S
C3801 N3809 1.427 . S
C3802 H3793 0.930 . S
C3802 C3800 1.378 . S
C3802 C3803 1.367 . S
C3803 C3802 1.367 . S
C3803 C3805 1.433 . S
C3804 C3800 1.350 . S
C3804 C3801 1.463 . S
C3804 N3808 1.427 . S
C3805 H3795 0.929 . S
C3805 C3803 1.433 . S
C3805 N3808 1.384 . S
C3806 H3797 0.929 . S
C3806 C3798 1.378 . S
C3806 C3801 1.350 . S
C3807 H3794 0.929 . S
C3807 C3799 1.433 . S
C3807 N3809 1.384 . S
N3808 C3804 1.427 . S
N3808 C3805 1.384 . S
N3809 C3801 1.427 . S
N3809 C3807 1.384 . S
H3810 C3816 0.930 . S
H3811 C3820 0.930 . S
H3812 C3825 0.929 . S
H3813 C3823 0.929 . S
H3814 C3818 0.929 . S
H3815 C3824 0.929 . S
C3816 H3810 0.930 . S
C3816 C3817 1.367 . S
C3816 C3824 1.378 . S
C3817 C3816 1.367 . S
C3817 C3825 1.433 . S
C3818 H3814 0.929 . S
C3818 C3820 1.378 . S
C3818 C3822 1.350 . S
C3819 C3822 1.463 . S
C3819 C3824 1.350 . S
C3819 N3827 1.427 . S
C3820 H3811 0.930 . S
C3820 C3818 1.378 . S
C3820 C3821 1.367 . S
C3821 C3820 1.367 . S
C3821 C3823 1.433 . S
C3822 C3818 1.350 . S
C3822 C3819 1.463 . S
C3822 N3826 1.427 . S
C3823 H3813 0.929 . S
C3823 C3821 1.433 . S
C3823 N3826 1.384 . S
C3824 H3815 0.929 . S
C3824 C3816 1.378 . S
C3824 C3819 1.350 . S
C3825 H3812 0.929 . S
C3825 C3817 1.433 . S
C3825 N3827 1.384 . S
N3826 C3822 1.427 . S
N3826 C3823 1.384 . S
N3827 C3819 1.427 . S
N3827 C3825 1.384 . S
H3828 C3834 0.930 . S
H3829 C3838 0.930 . S
H3830 C3843 0.929 . S
H3831 C3841 0.929 . S
H3832 C3836 0.929 . S
H3833 C3842 0.929 . S
C3834 H3828 0.930 . S
C3834 C3835 1.367 . S
C3834 C3842 1.378 . S
C3835 C3834 1.367 . S
C3835 C3843 1.433 . S
C3836 H3832 0.929 . S
C3836 C3838 1.378 . S
C3836 C3840 1.350 . S
C3837 C3840 1.463 . S
C3837 C3842 1.350 . S
C3837 N3845 1.427 . S
C3838 H3829 0.930 . S
C3838 C3836 1.378 . S
C3838 C3839 1.367 . S
C3839 C3838 1.367 . S
C3839 C3841 1.433 . S
C3840 C3836 1.350 . S
C3840 C3837 1.463 . S
C3840 N3844 1.427 . S
C3841 H3831 0.929 . S
C3841 C3839 1.433 . S
C3841 N3844 1.384 . S
C3842 H3833 0.929 . S
C3842 C3834 1.378 . S
C3842 C3837 1.350 . S
C3843 H3830 0.929 . S
C3843 C3835 1.433 . S
C3843 N3845 1.384 . S
N3844 C3840 1.427 . S
N3844 C3841 1.384 . S
N3845 C3837 1.427 . S
N3845 C3843 1.384 . S
H3846 C3852 0.930 . S
H3847 C3856 0.930 . S
H3848 C3861 0.929 . S
H3849 C3859 0.929 . S
H3850 C3854 0.929 . S
H3851 C3860 0.929 . S
C3852 H3846 0.930 . S
C3852 C3853 1.367 . S
C3852 C3860 1.378 . S
C3853 C3852 1.367 . S
C3853 C3861 1.433 . S
C3854 H3850 0.929 . S
C3854 C3856 1.378 . S
C3854 C3858 1.350 . S
C3855 C3858 1.463 . S
C3855 C3860 1.350 . S
C3855 N3863 1.427 . S
C3856 H3847 0.930 . S
C3856 C3854 1.378 . S
C3856 C3857 1.367 . S
C3857 C3856 1.367 . S
C3857 C3859 1.433 . S
C3858 C3854 1.350 . S
C3858 C3855 1.463 . S
C3858 N3862 1.427 . S
C3859 H3849 0.929 . S
C3859 C3857 1.433 . S
C3859 N3862 1.384 . S
C3860 H3851 0.929 . S
C3860 C3852 1.378 . S
C3860 C3855 1.350 . S
C3861 H3848 0.929 . S
C3861 C3853 1.433 . S
C3861 N3863 1.384 . S
N3862 C3858 1.427 . S
N3862 C3859 1.384 . S
N3863 C3855 1.427 . S
N3863 C3861 1.384 . S
H3864 C3870 0.930 . S
H3865 C3874 0.930 . S
H3866 C3879 0.929 . S
H3867 C3877 0.929 . S
H3868 C3872 0.929 . S
H3869 C3878 0.929 . S
C3870 H3864 0.930 . S
C3870 C3871 1.367 . S
C3870 C3878 1.378 . S
C3871 C3870 1.367 . S
C3871 C3879 1.433 . S
C3872 H3868 0.929 . S
C3872 C3874 1.378 . S
C3872 C3876 1.350 . S
C3873 C3876 1.463 . S
C3873 C3878 1.350 . S
C3873 N3881 1.427 . S
C3874 H3865 0.930 . S
C3874 C3872 1.378 . S
C3874 C3875 1.367 . S
C3875 C3874 1.367 . S
C3875 C3877 1.433 . S
C3876 C3872 1.350 . S
C3876 C3873 1.463 . S
C3876 N3880 1.427 . S
C3877 H3867 0.929 . S
C3877 C3875 1.433 . S
C3877 N3880 1.384 . S
C3878 H3869 0.929 . S
C3878 C3870 1.378 . S
C3878 C3873 1.350 . S
C3879 H3866 0.929 . S
C3879 C3871 1.433 . S
C3879 N3881 1.384 . S
N3880 C3876 1.427 . S
N3880 C3877 1.384 . S
N3881 C3873 1.427 . S
N3881 C3879 1.384 . S
H3882 C3888 0.930 . S
H3883 C3892 0.930 . S
H3884 C3897 0.929 . S
H3885 C3895 0.929 . S
H3886 C3890 0.929 . S
H3887 C3896 0.929 . S
C3888 H3882 0.930 . S
C3888 C3889 1.367 . S
C3888 C3896 1.378 . S
C3889 C3888 1.367 . S
C3889 C3897 1.433 . S
C3890 H3886 0.929 . S
C3890 C3892 1.378 . S
C3890 C3894 1.350 . S
C3891 C3894 1.463 . S
C3891 C3896 1.350 . S
C3891 N3899 1.427 . S
C3892 H3883 0.930 . S
C3892 C3890 1.378 . S
C3892 C3893 1.367 . S
C3893 C3892 1.367 . S
C3893 C3895 1.433 . S
C3894 C3890 1.350 . S
C3894 C3891 1.463 . S
C3894 N3898 1.427 . S
C3895 H3885 0.929 . S
C3895 C3893 1.433 . S
C3895 N3898 1.384 . S
C3896 H3887 0.929 . S
C3896 C3888 1.378 . S
C3896 C3891 1.350 . S
C3897 H3884 0.929 . S
C3897 C3889 1.433 . S
C3897 N3899 1.384 . S
N3898 C3894 1.427 . S
N3898 C3895 1.384 . S
N3899 C3891 1.427 . S
N3899 C3897 1.384 . S
H3900 C3906 0.930 . S
H3901 C3910 0.930 . S
H3902 C3915 0.929 . S
H3903 C3913 0.929 . S
H3904 C3908 0.929 . S
H3905 C3914 0.929 . S
C3906 H3900 0.930 . S
C3906 C3907 1.367 . S
C3906 C3914 1.378 . S
C3907 C3906 1.367 . S
C3907 C3915 1.433 . S
C3908 H3904 0.929 . S
C3908 C3910 1.378 . S
C3908 C3912 1.350 . S
C3909 C3912 1.463 . S
C3909 C3914 1.350 . S
C3909 N3917 1.427 . S
C3910 H3901 0.930 . S
C3910 C3908 1.378 . S
C3910 C3911 1.367 . S
C3911 C3910 1.367 . S
C3911 C3913 1.433 . S
C3912 C3908 1.350 . S
C3912 C3909 1.463 . S
C3912 N3916 1.427 . S
C3913 H3903 0.929 . S
C3913 C3911 1.433 . S
C3913 N3916 1.384 . S
C3914 H3905 0.929 . S
C3914 C3906 1.378 . S
C3914 C3909 1.350 . S
C3915 H3902 0.929 . S
C3915 C3907 1.433 . S
C3915 N3917 1.384 . S
N3916 C3912 1.427 . S
N3916 C3913 1.384 . S
N3917 C3909 1.427 . S
N3917 C3915 1.384 . S
H3918 C3924 0.930 . S
H3919 C3928 0.930 . S
H3920 C3933 0.929 . S
H3921 C3931 0.929 . S
H3922 C3926 0.929 . S
H3923 C3932 0.929 . S
C3924 H3918 0.930 . S
C3924 C3925 1.367 . S
C3924 C3932 1.378 . S
C3925 C3924 1.367 . S
C3925 C3933 1.433 . S
C3926 H3922 0.929 . S
C3926 C3928 1.378 . S
C3926 C3930 1.350 . S
C3927 C3930 1.463 . S
C3927 C3932 1.350 . S
C3927 N3935 1.427 . S
C3928 H3919 0.930 . S
C3928 C3926 1.378 . S
C3928 C3929 1.367 . S
C3929 C3928 1.367 . S
C3929 C3931 1.433 . S
C3930 C3926 1.350 . S
C3930 C3927 1.463 . S
C3930 N3934 1.427 . S
C3931 H3921 0.929 . S
C3931 C3929 1.433 . S
C3931 N3934 1.384 . S
C3932 H3923 0.929 . S
C3932 C3924 1.378 . S
C3932 C3927 1.350 . S
C3933 H3920 0.929 . S
C3933 C3925 1.433 . S
C3933 N3935 1.384 . S
N3934 C3930 1.427 . S
N3934 C3931 1.384 . S
N3935 C3927 1.427 . S
N3935 C3933 1.384 . S
H3936 C3942 0.930 . S
H3937 C3946 0.930 . S
H3938 C3951 0.929 . S
H3939 C3949 0.929 . S
H3940 C3944 0.929 . S
H3941 C3950 0.929 . S
C3942 H3936 0.930 . S
C3942 C3943 1.367 . S
C3942 C3950 1.378 . S
C3943 C3942 1.367 . S
C3943 C3951 1.433 . S
C3944 H3940 0.929 . S
C3944 C3946 1.378 . S
C3944 C3948 1.350 . S
C3945 C3948 1.463 . S
C3945 C3950 1.350 . S
C3945 N3953 1.427 . S
C3946 H3937 0.930 . S
C3946 C3944 1.378 . S
C3946 C3947 1.367 . S
C3947 C3946 1.367 . S
C3947 C3949 1.433 . S
C3948 C3944 1.350 . S
C3948 C3945 1.463 . S
C3948 N3952 1.427 . S
C3949 H3939 0.929 . S
C3949 C3947 1.433 . S
C3949 N3952 1.384 . S
C3950 H3941 0.929 . S
C3950 C3942 1.378 . S
C3950 C3945 1.350 . S
C3951 H3938 0.929 . S
C3951 C3943 1.433 . S
C3951 N3953 1.384 . S
N3952 C3948 1.427 . S
N3952 C3949 1.384 . S
N3953 C3945 1.427 . S
N3953 C3951 1.384 . S
H3954 C3960 0.930 . S
H3955 C3964 0.930 . S
H3956 C3969 0.929 . S
H3957 C3967 0.929 . S
H3958 C3962 0.929 . S
H3959 C3968 0.929 . S
C3960 H3954 0.930 . S
C3960 C3961 1.367 . S
C3960 C3968 1.378 . S
C3961 C3960 1.367 . S
C3961 C3969 1.433 . S
C3962 H3958 0.929 . S
C3962 C3964 1.378 . S
C3962 C3966 1.350 . S
C3963 C3966 1.463 . S
C3963 C3968 1.350 . S
C3963 N3971 1.427 . S
C3964 H3955 0.930 . S
C3964 C3962 1.378 . S
C3964 C3965 1.367 . S
C3965 C3964 1.367 . S
C3965 C3967 1.433 . S
C3966 C3962 1.350 . S
C3966 C3963 1.463 . S
C3966 N3970 1.427 . S
C3967 H3957 0.929 . S
C3967 C3965 1.433 . S
C3967 N3970 1.384 . S
C3968 H3959 0.929 . S
C3968 C3960 1.378 . S
C3968 C3963 1.350 . S
C3969 H3956 0.929 . S
C3969 C3961 1.433 . S
C3969 N3971 1.384 . S
N3970 C3966 1.427 . S
N3970 C3967 1.384 . S
N3971 C3963 1.427 . S
N3971 C3969 1.384 . S
H3972 C3978 0.930 . S
H3973 C3982 0.930 . S
H3974 C3987 0.929 . S
H3975 C3985 0.929 . S
H3976 C3980 0.929 . S
H3977 C3986 0.929 . S
C3978 H3972 0.930 . S
C3978 C3979 1.367 . S
C3978 C3986 1.378 . S
C3979 C3978 1.367 . S
C3979 C3987 1.433 . S
C3980 H3976 0.929 . S
C3980 C3982 1.378 . S
C3980 C3984 1.350 . S
C3981 C3984 1.463 . S
C3981 C3986 1.350 . S
C3981 N3989 1.427 . S
C3982 H3973 0.930 . S
C3982 C3980 1.378 . S
C3982 C3983 1.367 . S
C3983 C3982 1.367 . S
C3983 C3985 1.433 . S
C3984 C3980 1.350 . S
C3984 C3981 1.463 . S
C3984 N3988 1.427 . S
C3985 H3975 0.929 . S
C3985 C3983 1.433 . S
C3985 N3988 1.384 . S
C3986 H3977 0.929 . S
C3986 C3978 1.378 . S
C3986 C3981 1.350 . S
C3987 H3974 0.929 . S
C3987 C3979 1.433 . S
C3987 N3989 1.384 . S
N3988 C3984 1.427 . S
N3988 C3985 1.384 . S
N3989 C3981 1.427 . S
N3989 C3987 1.384 . S
H3990 C3996 0.930 . S
H3991 C4000 0.930 . S
H3992 C4005 0.929 . S
H3993 C4003 0.929 . S
H3994 C3998 0.929 . S
H3995 C4004 0.929 . S
C3996 H3990 0.930 . S
C3996 C3997 1.367 . S
C3996 C4004 1.378 . S
C3997 C3996 1.367 . S
C3997 C4005 1.433 . S
C3998 H3994 0.929 . S
C3998 C4000 1.378 . S
C3998 C4002 1.350 . S
C3999 C4002 1.463 . S
C3999 C4004 1.350 . S
C3999 N4007 1.427 . S
C4000 H3991 0.930 . S
C4000 C3998 1.378 . S
C4000 C4001 1.367 . S
C4001 C4000 1.367 . S
C4001 C4003 1.433 . S
C4002 C3998 1.350 . S
C4002 C3999 1.463 . S
C4002 N4006 1.427 . S
C4003 H3993 0.929 . S
C4003 C4001 1.433 . S
C4003 N4006 1.384 . S
C4004 H3995 0.929 . S
C4004 C3996 1.378 . S
C4004 C3999 1.350 . S
C4005 H3992 0.929 . S
C4005 C3997 1.433 . S
C4005 N4007 1.384 . S
N4006 C4002 1.427 . S
N4006 C4003 1.384 . S
N4007 C3999 1.427 . S
N4007 C4005 1.384 . S
H4008 C4014 0.930 . S
H4009 C4018 0.930 . S
H4010 C4023 0.929 . S
H4011 C4021 0.929 . S
H4012 C4016 0.929 . S
H4013 C4022 0.929 . S
C4014 H4008 0.930 . S
C4014 C4015 1.367 . S
C4014 C4022 1.378 . S
C4015 C4014 1.367 . S
C4015 C4023 1.433 . S
C4016 H4012 0.929 . S
C4016 C4018 1.378 . S
C4016 C4020 1.350 . S
C4017 C4020 1.463 . S
C4017 C4022 1.350 . S
C4017 N4025 1.427 . S
C4018 H4009 0.930 . S
C4018 C4016 1.378 . S
C4018 C4019 1.367 . S
C4019 C4018 1.367 . S
C4019 C4021 1.433 . S
C4020 C4016 1.350 . S
C4020 C4017 1.463 . S
C4020 N4024 1.427 . S
C4021 H4011 0.929 . S
C4021 C4019 1.433 . S
C4021 N4024 1.384 . S
C4022 H4013 0.929 . S
C4022 C4014 1.378 . S
C4022 C4017 1.350 . S
C4023 H4010 0.929 . S
C4023 C4015 1.433 . S
C4023 N4025 1.384 . S
N4024 C4020 1.427 . S
N4024 C4021 1.384 . S
N4025 C4017 1.427 . S
N4025 C4023 1.384 . S
H4026 C4032 0.930 . S
H4027 C4036 0.930 . S
H4028 C4041 0.929 . S
H4029 C4039 0.929 . S
H4030 C4034 0.929 . S
H4031 C4040 0.929 . S
C4032 H4026 0.930 . S
C4032 C4033 1.367 . S
C4032 C4040 1.378 . S
C4033 C4032 1.367 . S
C4033 C4041 1.433 . S
C4034 H4030 0.929 . S
C4034 C4036 1.378 . S
C4034 C4038 1.350 . S
C4035 C4038 1.463 . S
C4035 C4040 1.350 . S
C4035 N4043 1.427 . S
C4036 H4027 0.930 . S
C4036 C4034 1.378 . S
C4036 C4037 1.367 . S
C4037 C4036 1.367 . S
C4037 C4039 1.433 . S
C4038 C4034 1.350 . S
C4038 C4035 1.463 . S
C4038 N4042 1.427 . S
C4039 H4029 0.929 . S
C4039 C4037 1.433 . S
C4039 N4042 1.384 . S
C4040 H4031 0.929 . S
C4040 C4032 1.378 . S
C4040 C4035 1.350 . S
C4041 H4028 0.929 . S
C4041 C4033 1.433 . S
C4041 N4043 1.384 . S
N4042 C4038 1.427 . S
N4042 C4039 1.384 . S
N4043 C4035 1.427 . S
N4043 C4041 1.384 . S
H4044 C4050 0.930 . S
H4045 C4054 0.930 . S
H4046 C4059 0.929 . S
H4047 C4057 0.929 . S
H4048 C4052 0.929 . S
H4049 C4058 0.929 . S
C4050 H4044 0.930 . S
C4050 C4051 1.367 . S
C4050 C4058 1.378 . S
C4051 C4050 1.367 . S
C4051 C4059 1.433 . S
C4052 H4048 0.929 . S
C4052 C4054 1.378 . S
C4052 C4056 1.350 . S
C4053 C4056 1.463 . S
C4053 C4058 1.350 . S
C4053 N4061 1.427 . S
C4054 H4045 0.930 . S
C4054 C4052 1.378 . S
C4054 C4055 1.367 . S
C4055 C4054 1.367 . S
C4055 C4057 1.433 . S
C4056 C4052 1.350 . S
C4056 C4053 1.463 . S
C4056 N4060 1.427 . S
C4057 H4047 0.929 . S
C4057 C4055 1.433 . S
C4057 N4060 1.384 . S
C4058 H4049 0.929 . S
C4058 C4050 1.378 . S
C4058 C4053 1.350 . S
C4059 H4046 0.929 . S
C4059 C4051 1.433 . S
C4059 N4061 1.384 . S
N4060 C4056 1.427 . S
N4060 C4057 1.384 . S
N4061 C4053 1.427 . S
N4061 C4059 1.384 . S
H4062 C4068 0.930 . S
H4063 C4072 0.930 . S
H4064 C4077 0.929 . S
H4065 C4075 0.929 . S
H4066 C4070 0.929 . S
H4067 C4076 0.929 . S
C4068 H4062 0.930 . S
C4068 C4069 1.367 . S
C4068 C4076 1.378 . S
C4069 C4068 1.367 . S
C4069 C4077 1.433 . S
C4070 H4066 0.929 . S
C4070 C4072 1.378 . S
C4070 C4074 1.350 . S
C4071 C4074 1.463 . S
C4071 C4076 1.350 . S
C4071 N4079 1.427 . S
C4072 H4063 0.930 . S
C4072 C4070 1.378 . S
C4072 C4073 1.367 . S
C4073 C4072 1.367 . S
C4073 C4075 1.433 . S
C4074 C4070 1.350 . S
C4074 C4071 1.463 . S
C4074 N4078 1.427 . S
C4075 H4065 0.929 . S
C4075 C4073 1.433 . S
C4075 N4078 1.384 . S
C4076 H4067 0.929 . S
C4076 C4068 1.378 . S
C4076 C4071 1.350 . S
C4077 H4064 0.929 . S
C4077 C4069 1.433 . S
C4077 N4079 1.384 . S
N4078 C4074 1.427 . S
N4078 C4075 1.384 . S
N4079 C4071 1.427 . S
N4079 C4077 1.384 . S
H4080 C4086 0.930 . S
H4081 C4090 0.930 . S
H4082 C4095 0.929 . S
H4083 C4093 0.929 . S
H4084 C4088 0.929 . S
H4085 C4094 0.929 . S
C4086 H4080 0.930 . S
C4086 C4087 1.367 . S
C4086 C4094 1.378 . S
C4087 C4086 1.367 . S
C4087 C4095 1.433 . S
C4088 H4084 0.929 . S
C4088 C4090 1.378 . S
C4088 C4092 1.350 . S
C4089 C4092 1.463 . S
C4089 C4094 1.350 . S
C4089 N4097 1.427 . S
C4090 H4081 0.930 . S
C4090 C4088 1.378 . S
C4090 C4091 1.367 . S
C4091 C4090 1.367 . S
C4091 C4093 1.433 . S
C4092 C4088 1.350 . S
C4092 C4089 1.463 . S
C4092 N4096 1.427 . S
C4093 H4083 0.929 . S
C4093 C4091 1.433 . S
C4093 N4096 1.384 . S
C4094 H4085 0.929 . S
C4094 C4086 1.378 . S
C4094 C4089 1.350 . S
C4095 H4082 0.929 . S
C4095 C4087 1.433 . S
C4095 N4097 1.384 . S
N4096 C4092 1.427 . S
N4096 C4093 1.384 . S
N4097 C4089 1.427 . S
N4097 C4095 1.384 . S
H4098 C4104 0.930 . S
H4099 C4108 0.930 . S
H4100 C4113 0.929 . S
H4101 C4111 0.929 . S
H4102 C4106 0.929 . S
H4103 C4112 0.929 . S
C4104 H4098 0.930 . S
C4104 C4105 1.367 . S
C4104 C4112 1.378 . S
C4105 C4104 1.367 . S
C4105 C4113 1.433 . S
C4106 H4102 0.929 . S
C4106 C4108 1.378 . S
C4106 C4110 1.350 . S
C4107 C4110 1.463 . S
C4107 C4112 1.350 . S
C4107 N4115 1.427 . S
C4108 H4099 0.930 . S
C4108 C4106 1.378 . S
C4108 C4109 1.367 . S
C4109 C4108 1.367 . S
C4109 C4111 1.433 . S
C4110 C4106 1.350 . S
C4110 C4107 1.463 . S
C4110 N4114 1.427 . S
C4111 H4101 0.929 . S
C4111 C4109 1.433 . S
C4111 N4114 1.384 . S
C4112 H4103 0.929 . S
C4112 C4104 1.378 . S
C4112 C4107 1.350 . S
C4113 H4100 0.929 . S
C4113 C4105 1.433 . S
C4113 N4115 1.384 . S
N4114 C4110 1.427 . S
N4114 C4111 1.384 . S
N4115 C4107 1.427 . S
N4115 C4113 1.384 . S
H4116 C4122 0.930 . S
H4117 C4126 0.930 . S
H4118 C4131 0.929 . S
H4119 C4129 0.929 . S
H4120 C4124 0.929 . S
H4121 C4130 0.929 . S
C4122 H4116 0.930 . S
C4122 C4123 1.367 . S
C4122 C4130 1.378 . S
C4123 C4122 1.367 . S
C4123 C4131 1.433 . S
C4124 H4120 0.929 . S
C4124 C4126 1.378 . S
C4124 C4128 1.350 . S
C4125 C4128 1.463 . S
C4125 C4130 1.350 . S
C4125 N4133 1.427 . S
C4126 H4117 0.930 . S
C4126 C4124 1.378 . S
C4126 C4127 1.367 . S
C4127 C4126 1.367 . S
C4127 C4129 1.433 . S
C4128 C4124 1.350 . S
C4128 C4125 1.463 . S
C4128 N4132 1.427 . S
C4129 H4119 0.929 . S
C4129 C4127 1.433 . S
C4129 N4132 1.384 . S
C4130 H4121 0.929 . S
C4130 C4122 1.378 . S
C4130 C4125 1.350 . S
C4131 H4118 0.929 . S
C4131 C4123 1.433 . S
C4131 N4133 1.384 . S
N4132 C4128 1.427 . S
N4132 C4129 1.384 . S
N4133 C4125 1.427 . S
N4133 C4131 1.384 . S
H4134 C4140 0.930 . S
H4135 C4144 0.930 . S
H4136 C4149 0.929 . S
H4137 C4147 0.929 . S
H4138 C4142 0.929 . S
H4139 C4148 0.929 . S
C4140 H4134 0.930 . S
C4140 C4141 1.367 . S
C4140 C4148 1.378 . S
C4141 C4140 1.367 . S
C4141 C4149 1.433 . S
C4142 H4138 0.929 . S
C4142 C4144 1.378 . S
C4142 C4146 1.350 . S
C4143 C4146 1.463 . S
C4143 C4148 1.350 . S
C4143 N4151 1.427 . S
C4144 H4135 0.930 . S
C4144 C4142 1.378 . S
C4144 C4145 1.367 . S
C4145 C4144 1.367 . S
C4145 C4147 1.433 . S
C4146 C4142 1.350 . S
C4146 C4143 1.463 . S
C4146 N4150 1.427 . S
C4147 H4137 0.929 . S
C4147 C4145 1.433 . S
C4147 N4150 1.384 . S
C4148 H4139 0.929 . S
C4148 C4140 1.378 . S
C4148 C4143 1.350 . S
C4149 H4136 0.929 . S
C4149 C4141 1.433 . S
C4149 N4151 1.384 . S
N4150 C4146 1.427 . S
N4150 C4147 1.384 . S
N4151 C4143 1.427 . S
N4151 C4149 1.384 . S
H4152 C4158 0.930 . S
H4153 C4162 0.930 . S
H4154 C4167 0.929 . S
H4155 C4165 0.929 . S
H4156 C4160 0.929 . S
H4157 C4166 0.929 . S
C4158 H4152 0.930 . S
C4158 C4159 1.367 . S
C4158 C4166 1.378 . S
C4159 C4158 1.367 . S
C4159 C4167 1.433 . S
C4160 H4156 0.929 . S
C4160 C4162 1.378 . S
C4160 C4164 1.350 . S
C4161 C4164 1.463 . S
C4161 C4166 1.350 . S
C4161 N4169 1.427 . S
C4162 H4153 0.930 . S
C4162 C4160 1.378 . S
C4162 C4163 1.367 . S
C4163 C4162 1.367 . S
C4163 C4165 1.433 . S
C4164 C4160 1.350 . S
C4164 C4161 1.463 . S
C4164 N4168 1.427 . S
C4165 H4155 0.929 . S
C4165 C4163 1.433 . S
C4165 N4168 1.384 . S
C4166 H4157 0.929 . S
C4166 C4158 1.378 . S
C4166 C4161 1.350 . S
C4167 H4154 0.929 . S
C4167 C4159 1.433 . S
C4167 N4169 1.384 . S
N4168 C4164 1.427 . S
N4168 C4165 1.384 . S
N4169 C4161 1.427 . S
N4169 C4167 1.384 . S
H4170 C4176 0.930 . S
H4171 C4180 0.930 . S
H4172 C4185 0.929 . S
H4173 C4183 0.929 . S
H4174 C4178 0.929 . S
H4175 C4184 0.929 . S
C4176 H4170 0.930 . S
C4176 C4177 1.367 . S
C4176 C4184 1.378 . S
C4177 C4176 1.367 . S
C4177 C4185 1.433 . S
C4178 H4174 0.929 . S
C4178 C4180 1.378 . S
C4178 C4182 1.350 . S
C4179 C4182 1.463 . S
C4179 C4184 1.350 . S
C4179 N4187 1.427 . S
C4180 H4171 0.930 . S
C4180 C4178 1.378 . S
C4180 C4181 1.367 . S
C4181 C4180 1.367 . S
C4181 C4183 1.433 . S
C4182 C4178 1.350 . S
C4182 C4179 1.463 . S
C4182 N4186 1.427 . S
C4183 H4173 0.929 . S
C4183 C4181 1.433 . S
C4183 N4186 1.384 . S
C4184 H4175 0.929 . S
C4184 C4176 1.378 . S
C4184 C4179 1.350 . S
C4185 H4172 0.929 . S
C4185 C4177 1.433 . S
C4185 N4187 1.384 . S
N4186 C4182 1.427 . S
N4186 C4183 1.384 . S
N4187 C4179 1.427 . S
N4187 C4185 1.384 . S
H4188 C4194 0.930 . S
H4189 C4198 0.930 . S
H4190 C4203 0.929 . S
H4191 C4201 0.929 . S
H4192 C4196 0.929 . S
H4193 C4202 0.929 . S
C4194 H4188 0.930 . S
C4194 C4195 1.367 . S
C4194 C4202 1.378 . S
C4195 C4194 1.367 . S
C4195 C4203 1.433 . S
C4196 H4192 0.929 . S
C4196 C4198 1.378 . S
C4196 C4200 1.350 . S
C4197 C4200 1.463 . S
C4197 C4202 1.350 . S
C4197 N4205 1.427 . S
C4198 H4189 0.930 . S
C4198 C4196 1.378 . S
C4198 C4199 1.367 . S
C4199 C4198 1.367 . S
C4199 C4201 1.433 . S
C4200 C4196 1.350 . S
C4200 C4197 1.463 . S
C4200 N4204 1.427 . S
C4201 H4191 0.929 . S
C4201 C4199 1.433 . S
C4201 N4204 1.384 . S
C4202 H4193 0.929 . S
C4202 C4194 1.378 . S
C4202 C4197 1.350 . S
C4203 H4190 0.929 . S
C4203 C4195 1.433 . S
C4203 N4205 1.384 . S
N4204 C4200 1.427 . S
N4204 C4201 1.384 . S
N4205 C4197 1.427 . S
N4205 C4203 1.384 . S
H4206 C4212 0.930 . S
H4207 C4216 0.930 . S
H4208 C4221 0.929 . S
H4209 C4219 0.929 . S
H4210 C4214 0.929 . S
H4211 C4220 0.929 . S
C4212 H4206 0.930 . S
C4212 C4213 1.367 . S
C4212 C4220 1.378 . S
C4213 C4212 1.367 . S
C4213 C4221 1.433 . S
C4214 H4210 0.929 . S
C4214 C4216 1.378 . S
C4214 C4218 1.350 . S
C4215 C4218 1.463 . S
C4215 C4220 1.350 . S
C4215 N4223 1.427 . S
C4216 H4207 0.930 . S
C4216 C4214 1.378 . S
C4216 C4217 1.367 . S
C4217 C4216 1.367 . S
C4217 C4219 1.433 . S
C4218 C4214 1.350 . S
C4218 C4215 1.463 . S
C4218 N4222 1.427 . S
C4219 H4209 0.929 . S
C4219 C4217 1.433 . S
C4219 N4222 1.384 . S
C4220 H4211 0.929 . S
C4220 C4212 1.378 . S
C4220 C4215 1.350 . S
C4221 H4208 0.929 . S
C4221 C4213 1.433 . S
C4221 N4223 1.384 . S
N4222 C4218 1.427 . S
N4222 C4219 1.384 . S
N4223 C4215 1.427 . S
N4223 C4221 1.384 . S
H4224 C4230 0.930 . S
H4225 C4234 0.930 . S
H4226 C4239 0.929 . S
H4227 C4237 0.929 . S
H4228 C4232 0.929 . S
H4229 C4238 0.929 . S
C4230 H4224 0.930 . S
C4230 C4231 1.367 . S
C4230 C4238 1.378 . S
C4231 C4230 1.367 . S
C4231 C4239 1.433 . S
C4232 H4228 0.929 . S
C4232 C4234 1.378 . S
C4232 C4236 1.350 . S
C4233 C4236 1.463 . S
C4233 C4238 1.350 . S
C4233 N4241 1.427 . S
C4234 H4225 0.930 . S
C4234 C4232 1.378 . S
C4234 C4235 1.367 . S
C4235 C4234 1.367 . S
C4235 C4237 1.433 . S
C4236 C4232 1.350 . S
C4236 C4233 1.463 . S
C4236 N4240 1.427 . S
C4237 H4227 0.929 . S
C4237 C4235 1.433 . S
C4237 N4240 1.384 . S
C4238 H4229 0.929 . S
C4238 C4230 1.378 . S
C4238 C4233 1.350 . S
C4239 H4226 0.929 . S
C4239 C4231 1.433 . S
C4239 N4241 1.384 . S
N4240 C4236 1.427 . S
N4240 C4237 1.384 . S
N4241 C4233 1.427 . S
N4241 C4239 1.384 . S
H4242 C4248 0.930 . S
H4243 C4252 0.930 . S
H4244 C4257 0.929 . S
H4245 C4255 0.929 . S
H4246 C4250 0.929 . S
H4247 C4256 0.929 . S
C4248 H4242 0.930 . S
C4248 C4249 1.367 . S
C4248 C4256 1.378 . S
C4249 C4248 1.367 . S
C4249 C4257 1.433 . S
C4250 H4246 0.929 . S
C4250 C4252 1.378 . S
C4250 C4254 1.350 . S
C4251 C4254 1.463 . S
C4251 C4256 1.350 . S
C4251 N4259 1.427 . S
C4252 H4243 0.930 . S
C4252 C4250 1.378 . S
C4252 C4253 1.367 . S
C4253 C4252 1.367 . S
C4253 C4255 1.433 . S
C4254 C4250 1.350 . S
C4254 C4251 1.463 . S
C4254 N4258 1.427 . S
C4255 H4245 0.929 . S
C4255 C4253 1.433 . S
C4255 N4258 1.384 . S
C4256 H4247 0.929 . S
C4256 C4248 1.378 . S
C4256 C4251 1.350 . S
C4257 H4244 0.929 . S
C4257 C4249 1.433 . S
C4257 N4259 1.384 . S
N4258 C4254 1.427 . S
N4258 C4255 1.384 . S
N4259 C4251 1.427 . S
N4259 C4257 1.384 . S
H4260 C4266 0.930 . S
H4261 C4270 0.930 . S
H4262 C4275 0.929 . S
H4263 C4273 0.929 . S
H4264 C4268 0.929 . S
H4265 C4274 0.929 . S
C4266 H4260 0.930 . S
C4266 C4267 1.367 . S
C4266 C4274 1.378 . S
C4267 C4266 1.367 . S
C4267 C4275 1.433 . S
C4268 H4264 0.929 . S
C4268 C4270 1.378 . S
C4268 C4272 1.350 . S
C4269 C4272 1.463 . S
C4269 C4274 1.350 . S
C4269 N4277 1.427 . S
C4270 H4261 0.930 . S
C4270 C4268 1.378 . S
C4270 C4271 1.367 . S
C4271 C4270 1.367 . S
C4271 C4273 1.433 . S
C4272 C4268 1.350 . S
C4272 C4269 1.463 . S
C4272 N4276 1.427 . S
C4273 H4263 0.929 . S
C4273 C4271 1.433 . S
C4273 N4276 1.384 . S
C4274 H4265 0.929 . S
C4274 C4266 1.378 . S
C4274 C4269 1.350 . S
C4275 H4262 0.929 . S
C4275 C4267 1.433 . S
C4275 N4277 1.384 . S
N4276 C4272 1.427 . S
N4276 C4273 1.384 . S
N4277 C4269 1.427 . S
N4277 C4275 1.384 . S
H4278 C4284 0.930 . S
H4279 C4288 0.930 . S
H4280 C4293 0.929 . S
H4281 C4291 0.929 . S
H4282 C4286 0.929 . S
H4283 C4292 0.929 . S
C4284 H4278 0.930 . S
C4284 C4285 1.367 . S
C4284 C4292 1.378 . S
C4285 C4284 1.367 . S
C4285 C4293 1.433 . S
C4286 H4282 0.929 . S
C4286 C4288 1.378 . S
C4286 C4290 1.350 . S
C4287 C4290 1.463 . S
C4287 C4292 1.350 . S
C4287 N4295 1.427 . S
C4288 H4279 0.930 . S
C4288 C4286 1.378 . S
C4288 C4289 1.367 . S
C4289 C4288 1.367 . S
C4289 C4291 1.433 . S
C4290 C4286 1.350 . S
C4290 C4287 1.463 . S
C4290 N4294 1.427 . S
C4291 H4281 0.929 . S
C4291 C4289 1.433 . S
C4291 N4294 1.384 . S
C4292 H4283 0.929 . S
C4292 C4284 1.378 . S
C4292 C4287 1.350 . S
C4293 H4280 0.929 . S
C4293 C4285 1.433 . S
C4293 N4295 1.384 . S
N4294 C4290 1.427 . S
N4294 C4291 1.384 . S
N4295 C4287 1.427 . S
N4295 C4293 1.384 . S
H4296 C4302 0.930 . S
H4297 C4306 0.930 . S
H4298 C4311 0.929 . S
H4299 C4309 0.929 . S
H4300 C4304 0.929 . S
H4301 C4310 0.929 . S
C4302 H4296 0.930 . S
C4302 C4303 1.367 . S
C4302 C4310 1.378 . S
C4303 C4302 1.367 . S
C4303 C4311 1.433 . S
C4304 H4300 0.929 . S
C4304 C4306 1.378 . S
C4304 C4308 1.350 . S
C4305 C4308 1.463 . S
C4305 C4310 1.350 . S
C4305 N4313 1.427 . S
C4306 H4297 0.930 . S
C4306 C4304 1.378 . S
C4306 C4307 1.367 . S
C4307 C4306 1.367 . S
C4307 C4309 1.433 . S
C4308 C4304 1.350 . S
C4308 C4305 1.463 . S
C4308 N4312 1.427 . S
C4309 H4299 0.929 . S
C4309 C4307 1.433 . S
C4309 N4312 1.384 . S
C4310 H4301 0.929 . S
C4310 C4302 1.378 . S
C4310 C4305 1.350 . S
C4311 H4298 0.929 . S
C4311 C4303 1.433 . S
C4311 N4313 1.384 . S
N4312 C4308 1.427 . S
N4312 C4309 1.384 . S
N4313 C4305 1.427 . S
N4313 C4311 1.384 . S
H4314 C4320 0.930 . S
H4315 C4324 0.930 . S
H4316 C4329 0.929 . S
H4317 C4327 0.929 . S
H4318 C4322 0.929 . S
H4319 C4328 0.929 . S
C4320 H4314 0.930 . S
C4320 C4321 1.367 . S
C4320 C4328 1.378 . S
C4321 C4320 1.367 . S
C4321 C4329 1.433 . S
C4322 H4318 0.929 . S
C4322 C4324 1.378 . S
C4322 C4326 1.350 . S
C4323 C4326 1.463 . S
C4323 C4328 1.350 . S
C4323 N4331 1.427 . S
C4324 H4315 0.930 . S
C4324 C4322 1.378 . S
C4324 C4325 1.367 . S
C4325 C4324 1.367 . S
C4325 C4327 1.433 . S
C4326 C4322 1.350 . S
C4326 C4323 1.463 . S
C4326 N4330 1.427 . S
C4327 H4317 0.929 . S
C4327 C4325 1.433 . S
C4327 N4330 1.384 . S
C4328 H4319 0.929 . S
C4328 C4320 1.378 . S
C4328 C4323 1.350 . S
C4329 H4316 0.929 . S
C4329 C4321 1.433 . S
C4329 N4331 1.384 . S
N4330 C4326 1.427 . S
N4330 C4327 1.384 . S
N4331 C4323 1.427 . S
N4331 C4329 1.384 . S
H4332 C4338 0.930 . S
H4333 C4342 0.930 . S
H4334 C4347 0.929 . S
H4335 C4345 0.929 . S
H4336 C4340 0.929 . S
H4337 C4346 0.929 . S
C4338 H4332 0.930 . S
C4338 C4339 1.367 . S
C4338 C4346 1.378 . S
C4339 C4338 1.367 . S
C4339 C4347 1.433 . S
C4340 H4336 0.929 . S
C4340 C4342 1.378 . S
C4340 C4344 1.350 . S
C4341 C4344 1.463 . S
C4341 C4346 1.350 . S
C4341 N4349 1.427 . S
C4342 H4333 0.930 . S
C4342 C4340 1.378 . S
C4342 C4343 1.367 . S
C4343 C4342 1.367 . S
C4343 C4345 1.433 . S
C4344 C4340 1.350 . S
C4344 C4341 1.463 . S
C4344 N4348 1.427 . S
C4345 H4335 0.929 . S
C4345 C4343 1.433 . S
C4345 N4348 1.384 . S
C4346 H4337 0.929 . S
C4346 C4338 1.378 . S
C4346 C4341 1.350 . S
C4347 H4334 0.929 . S
C4347 C4339 1.433 . S
C4347 N4349 1.384 . S
N4348 C4344 1.427 . S
N4348 C4345 1.384 . S
N4349 C4341 1.427 . S
N4349 C4347 1.384 . S
H4350 C4356 0.930 . S
H4351 C4360 0.930 . S
H4352 C4365 0.929 . S
H4353 C4363 0.929 . S
H4354 C4358 0.929 . S
H4355 C4364 0.929 . S
C4356 H4350 0.930 . S
C4356 C4357 1.367 . S
C4356 C4364 1.378 . S
C4357 C4356 1.367 . S
C4357 C4365 1.433 . S
C4358 H4354 0.929 . S
C4358 C4360 1.378 . S
C4358 C4362 1.350 . S
C4359 C4362 1.463 . S
C4359 C4364 1.350 . S
C4359 N4367 1.427 . S
C4360 H4351 0.930 . S
C4360 C4358 1.378 . S
C4360 C4361 1.367 . S
C4361 C4360 1.367 . S
C4361 C4363 1.433 . S
C4362 C4358 1.350 . S
C4362 C4359 1.463 . S
C4362 N4366 1.427 . S
C4363 H4353 0.929 . S
C4363 C4361 1.433 . S
C4363 N4366 1.384 . S
C4364 H4355 0.929 . S
C4364 C4356 1.378 . S
C4364 C4359 1.350 . S
C4365 H4352 0.929 . S
C4365 C4357 1.433 . S
C4365 N4367 1.384 . S
N4366 C4362 1.427 . S
N4366 C4363 1.384 . S
N4367 C4359 1.427 . S
N4367 C4365 1.384 . S
H4368 C4374 0.930 . S
H4369 C4378 0.930 . S
H4370 C4383 0.929 . S
H4371 C4381 0.929 . S
H4372 C4376 0.929 . S
H4373 C4382 0.929 . S
C4374 H4368 0.930 . S
C4374 C4375 1.367 . S
C4374 C4382 1.378 . S
C4375 C4374 1.367 . S
C4375 C4383 1.433 . S
C4376 H4372 0.929 . S
C4376 C4378 1.378 . S
C4376 C4380 1.350 . S
C4377 C4380 1.463 . S
C4377 C4382 1.350 . S
C4377 N4385 1.427 . S
C4378 H4369 0.930 . S
C4378 C4376 1.378 . S
C4378 C4379 1.367 . S
C4379 C4378 1.367 . S
C4379 C4381 1.433 . S
C4380 C4376 1.350 . S
C4380 C4377 1.463 . S
C4380 N4384 1.427 . S
C4381 H4371 0.929 . S
C4381 C4379 1.433 . S
C4381 N4384 1.384 . S
C4382 H4373 0.929 . S
C4382 C4374 1.378 . S
C4382 C4377 1.350 . S
C4383 H4370 0.929 . S
C4383 C4375 1.433 . S
C4383 N4385 1.384 . S
N4384 C4380 1.427 . S
N4384 C4381 1.384 . S
N4385 C4377 1.427 . S
N4385 C4383 1.384 . S
H4386 C4392 0.930 . S
H4387 C4396 0.930 . S
H4388 C4401 0.929 . S
H4389 C4399 0.929 . S
H4390 C4394 0.929 . S
H4391 C4400 0.929 . S
C4392 H4386 0.930 . S
C4392 C4393 1.367 . S
C4392 C4400 1.378 . S
C4393 C4392 1.367 . S
C4393 C4401 1.433 . S
C4394 H4390 0.929 . S
C4394 C4396 1.378 . S
C4394 C4398 1.350 . S
C4395 C4398 1.463 . S
C4395 C4400 1.350 . S
C4395 N4403 1.427 . S
C4396 H4387 0.930 . S
C4396 C4394 1.378 . S
C4396 C4397 1.367 . S
C4397 C4396 1.367 . S
C4397 C4399 1.433 . S
C4398 C4394 1.350 . S
C4398 C4395 1.463 . S
C4398 N4402 1.427 . S
C4399 H4389 0.929 . S
C4399 C4397 1.433 . S
C4399 N4402 1.384 . S
C4400 H4391 0.929 . S
C4400 C4392 1.378 . S
C4400 C4395 1.350 . S
C4401 H4388 0.929 . S
C4401 C4393 1.433 . S
C4401 N4403 1.384 . S
N4402 C4398 1.427 . S
N4402 C4399 1.384 . S
N4403 C4395 1.427 . S
N4403 C4401 1.384 . S
H4404 C4410 0.930 . S
H4405 C4414 0.930 . S
H4406 C4419 0.929 . S
H4407 C4417 0.929 . S
H4408 C4412 0.929 . S
H4409 C4418 0.929 . S
C4410 H4404 0.930 . S
C4410 C4411 1.367 . S
C4410 C4418 1.378 . S
C4411 C4410 1.367 . S
C4411 C4419 1.433 . S
C4412 H4408 0.929 . S
C4412 C4414 1.378 . S
C4412 C4416 1.350 . S
C4413 C4416 1.463 . S
C4413 C4418 1.350 . S
C4413 N4421 1.427 . S
C4414 H4405 0.930 . S
C4414 C4412 1.378 . S
C4414 C4415 1.367 . S
C4415 C4414 1.367 . S
C4415 C4417 1.433 . S
C4416 C4412 1.350 . S
C4416 C4413 1.463 . S
C4416 N4420 1.427 . S
C4417 H4407 0.929 . S
C4417 C4415 1.433 . S
C4417 N4420 1.384 . S
C4418 H4409 0.929 . S
C4418 C4410 1.378 . S
C4418 C4413 1.350 . S
C4419 H4406 0.929 . S
C4419 C4411 1.433 . S
C4419 N4421 1.384 . S
N4420 C4416 1.427 . S
N4420 C4417 1.384 . S
N4421 C4413 1.427 . S
N4421 C4419 1.384 . S
H4422 C4428 0.930 . S
H4423 C4432 0.930 . S
H4424 C4437 0.929 . S
H4425 C4435 0.929 . S
H4426 C4430 0.929 . S
H4427 C4436 0.929 . S
C4428 H4422 0.930 . S
C4428 C4429 1.367 . S
C4428 C4436 1.378 . S
C4429 C4428 1.367 . S
C4429 C4437 1.433 . S
C4430 H4426 0.929 . S
C4430 C4432 1.378 . S
C4430 C4434 1.350 . S
C4431 C4434 1.463 . S
C4431 C4436 1.350 . S
C4431 N4439 1.427 . S
C4432 H4423 0.930 . S
C4432 C4430 1.378 . S
C4432 C4433 1.367 . S
C4433 C4432 1.367 . S
C4433 C4435 1.433 . S
C4434 C4430 1.350 . S
C4434 C4431 1.463 . S
C4434 N4438 1.427 . S
C4435 H4425 0.929 . S
C4435 C4433 1.433 . S
C4435 N4438 1.384 . S
C4436 H4427 0.929 . S
C4436 C4428 1.378 . S
C4436 C4431 1.350 . S
C4437 H4424 0.929 . S
C4437 C4429 1.433 . S
C4437 N4439 1.384 . S
N4438 C4434 1.427 . S
N4438 C4435 1.384 . S
N4439 C4431 1.427 . S
N4439 C4437 1.384 . S
H4440 C4446 0.930 . S
H4441 C4450 0.930 . S
H4442 C4455 0.929 . S
H4443 C4453 0.929 . S
H4444 C4448 0.929 . S
H4445 C4454 0.929 . S
C4446 H4440 0.930 . S
C4446 C4447 1.367 . S
C4446 C4454 1.378 . S
C4447 C4446 1.367 . S
C4447 C4455 1.433 . S
C4448 H4444 0.929 . S
C4448 C4450 1.378 . S
C4448 C4452 1.350 . S
C4449 C4452 1.463 . S
C4449 C4454 1.350 . S
C4449 N4457 1.427 . S
C4450 H4441 0.930 . S
C4450 C4448 1.378 . S
C4450 C4451 1.367 . S
C4451 C4450 1.367 . S
C4451 C4453 1.433 . S
C4452 C4448 1.350 . S
C4452 C4449 1.463 . S
C4452 N4456 1.427 . S
C4453 H4443 0.929 . S
C4453 C4451 1.433 . S
C4453 N4456 1.384 . S
C4454 H4445 0.929 . S
C4454 C4446 1.378 . S
C4454 C4449 1.350 . S
C4455 H4442 0.929 . S
C4455 C4447 1.433 . S
C4455 N4457 1.384 . S
N4456 C4452 1.427 . S
N4456 C4453 1.384 . S
N4457 C4449 1.427 . S
N4457 C4455 1.384 . S
H4458 C4464 0.930 . S
H4459 C4468 0.930 . S
H4460 C4473 0.929 . S
H4461 C4471 0.929 . S
H4462 C4466 0.929 . S
H4463 C4472 0.929 . S
C4464 H4458 0.930 . S
C4464 C4465 1.367 . S
C4464 C4472 1.378 . S
C4465 C4464 1.367 . S
C4465 C4473 1.433 . S
C4466 H4462 0.929 . S
C4466 C4468 1.378 . S
C4466 C4470 1.350 . S
C4467 C4470 1.463 . S
C4467 C4472 1.350 . S
C4467 N4475 1.427 . S
C4468 H4459 0.930 . S
C4468 C4466 1.378 . S
C4468 C4469 1.367 . S
C4469 C4468 1.367 . S
C4469 C4471 1.433 . S
C4470 C4466 1.350 . S
C4470 C4467 1.463 . S
C4470 N4474 1.427 . S
C4471 H4461 0.929 . S
C4471 C4469 1.433 . S
C4471 N4474 1.384 . S
C4472 H4463 0.929 . S
C4472 C4464 1.378 . S
C4472 C4467 1.350 . S
C4473 H4460 0.929 . S
C4473 C4465 1.433 . S
C4473 N4475 1.384 . S
N4474 C4470 1.427 . S
N4474 C4471 1.384 . S
N4475 C4467 1.427 . S
N4475 C4473 1.384 . S
H4476 C4482 0.930 . S
H4477 C4486 0.930 . S
H4478 C4491 0.929 . S
H4479 C4489 0.929 . S
H4480 C4484 0.929 . S
H4481 C4490 0.929 . S
C4482 H4476 0.930 . S
C4482 C4483 1.367 . S
C4482 C4490 1.378 . S
C4483 C4482 1.367 . S
C4483 C4491 1.433 . S
C4484 H4480 0.929 . S
C4484 C4486 1.378 . S
C4484 C4488 1.350 . S
C4485 C4488 1.463 . S
C4485 C4490 1.350 . S
C4485 N4493 1.427 . S
C4486 H4477 0.930 . S
C4486 C4484 1.378 . S
C4486 C4487 1.367 . S
C4487 C4486 1.367 . S
C4487 C4489 1.433 . S
C4488 C4484 1.350 . S
C4488 C4485 1.463 . S
C4488 N4492 1.427 . S
C4489 H4479 0.929 . S
C4489 C4487 1.433 . S
C4489 N4492 1.384 . S
C4490 H4481 0.929 . S
C4490 C4482 1.378 . S
C4490 C4485 1.350 . S
C4491 H4478 0.929 . S
C4491 C4483 1.433 . S
C4491 N4493 1.384 . S
N4492 C4488 1.427 . S
N4492 C4489 1.384 . S
N4493 C4485 1.427 . S
N4493 C4491 1.384 . S
H4494 C4500 0.930 . S
H4495 C4504 0.930 . S
H4496 C4509 0.929 . S
H4497 C4507 0.929 . S
H4498 C4502 0.929 . S
H4499 C4508 0.929 . S
C4500 H4494 0.930 . S
C4500 C4501 1.367 . S
C4500 C4508 1.378 . S
C4501 C4500 1.367 . S
C4501 C4509 1.433 . S
C4502 H4498 0.929 . S
C4502 C4504 1.378 . S
C4502 C4506 1.350 . S
C4503 C4506 1.463 . S
C4503 C4508 1.350 . S
C4503 N4511 1.427 . S
C4504 H4495 0.930 . S
C4504 C4502 1.378 . S
C4504 C4505 1.367 . S
C4505 C4504 1.367 . S
C4505 C4507 1.433 . S
C4506 C4502 1.350 . S
C4506 C4503 1.463 . S
C4506 N4510 1.427 . S
C4507 H4497 0.929 . S
C4507 C4505 1.433 . S
C4507 N4510 1.384 . S
C4508 H4499 0.929 . S
C4508 C4500 1.378 . S
C4508 C4503 1.350 . S
C4509 H4496 0.929 . S
C4509 C4501 1.433 . S
C4509 N4511 1.384 . S
N4510 C4506 1.427 . S
N4510 C4507 1.384 . S
N4511 C4503 1.427 . S
N4511 C4509 1.384 . S
H4512 C4518 0.930 . S
H4513 C4522 0.930 . S
H4514 C4527 0.929 . S
H4515 C4525 0.929 . S
H4516 C4520 0.929 . S
H4517 C4526 0.929 . S
C4518 H4512 0.930 . S
C4518 C4519 1.367 . S
C4518 C4526 1.378 . S
C4519 C4518 1.367 . S
C4519 C4527 1.433 . S
C4520 H4516 0.929 . S
C4520 C4522 1.378 . S
C4520 C4524 1.350 . S
C4521 C4524 1.463 . S
C4521 C4526 1.350 . S
C4521 N4529 1.427 . S
C4522 H4513 0.930 . S
C4522 C4520 1.378 . S
C4522 C4523 1.367 . S
C4523 C4522 1.367 . S
C4523 C4525 1.433 . S
C4524 C4520 1.350 . S
C4524 C4521 1.463 . S
C4524 N4528 1.427 . S
C4525 H4515 0.929 . S
C4525 C4523 1.433 . S
C4525 N4528 1.384 . S
C4526 H4517 0.929 . S
C4526 C4518 1.378 . S
C4526 C4521 1.350 . S
C4527 H4514 0.929 . S
C4527 C4519 1.433 . S
C4527 N4529 1.384 . S
N4528 C4524 1.427 . S
N4528 C4525 1.384 . S
N4529 C4521 1.427 . S
N4529 C4527 1.384 . S
H4530 C4536 0.930 . S
H4531 C4540 0.930 . S
H4532 C4545 0.929 . S
H4533 C4543 0.929 . S
H4534 C4538 0.929 . S
H4535 C4544 0.929 . S
C4536 H4530 0.930 . S
C4536 C4537 1.367 . S
C4536 C4544 1.378 . S
C4537 C4536 1.367 . S
C4537 C4545 1.433 . S
C4538 H4534 0.929 . S
C4538 C4540 1.378 . S
C4538 C4542 1.350 . S
C4539 C4542 1.463 . S
C4539 C4544 1.350 . S
C4539 N4547 1.427 . S
C4540 H4531 0.930 . S
C4540 C4538 1.378 . S
C4540 C4541 1.367 . S
C4541 C4540 1.367 . S
C4541 C4543 1.433 . S
C4542 C4538 1.350 . S
C4542 C4539 1.463 . S
C4542 N4546 1.427 . S
C4543 H4533 0.929 . S
C4543 C4541 1.433 . S
C4543 N4546 1.384 . S
C4544 H4535 0.929 . S
C4544 C4536 1.378 . S
C4544 C4539 1.350 . S
C4545 H4532 0.929 . S
C4545 C4537 1.433 . S
C4545 N4547 1.384 . S
N4546 C4542 1.427 . S
N4546 C4543 1.384 . S
N4547 C4539 1.427 . S
N4547 C4545 1.384 . S
H4548 C4554 0.930 . S
H4549 C4558 0.930 . S
H4550 C4563 0.929 . S
H4551 C4561 0.929 . S
H4552 C4556 0.929 . S
H4553 C4562 0.929 . S
C4554 H4548 0.930 . S
C4554 C4555 1.367 . S
C4554 C4562 1.378 . S
C4555 C4554 1.367 . S
C4555 C4563 1.433 . S
C4556 H4552 0.929 . S
C4556 C4558 1.378 . S
C4556 C4560 1.350 . S
C4557 C4560 1.463 . S
C4557 C4562 1.350 . S
C4557 N4565 1.427 . S
C4558 H4549 0.930 . S
C4558 C4556 1.378 . S
C4558 C4559 1.367 . S
C4559 C4558 1.367 . S
C4559 C4561 1.433 . S
C4560 C4556 1.350 . S
C4560 C4557 1.463 . S
C4560 N4564 1.427 . S
C4561 H4551 0.929 . S
C4561 C4559 1.433 . S
C4561 N4564 1.384 . S
C4562 H4553 0.929 . S
C4562 C4554 1.378 . S
C4562 C4557 1.350 . S
C4563 H4550 0.929 . S
C4563 C4555 1.433 . S
C4563 N4565 1.384 . S
N4564 C4560 1.427 . S
N4564 C4561 1.384 . S
N4565 C4557 1.427 . S
N4565 C4563 1.384 . S
H4566 C4572 0.930 . S
H4567 C4576 0.930 . S
H4568 C4581 0.929 . S
H4569 C4579 0.929 . S
H4570 C4574 0.929 . S
H4571 C4580 0.929 . S
C4572 H4566 0.930 . S
C4572 C4573 1.367 . S
C4572 C4580 1.378 . S
C4573 C4572 1.367 . S
C4573 C4581 1.433 . S
C4574 H4570 0.929 . S
C4574 C4576 1.378 . S
C4574 C4578 1.350 . S
C4575 C4578 1.463 . S
C4575 C4580 1.350 . S
C4575 N4583 1.427 . S
C4576 H4567 0.930 . S
C4576 C4574 1.378 . S
C4576 C4577 1.367 . S
C4577 C4576 1.367 . S
C4577 C4579 1.433 . S
C4578 C4574 1.350 . S
C4578 C4575 1.463 . S
C4578 N4582 1.427 . S
C4579 H4569 0.929 . S
C4579 C4577 1.433 . S
C4579 N4582 1.384 . S
C4580 H4571 0.929 . S
C4580 C4572 1.378 . S
C4580 C4575 1.350 . S
C4581 H4568 0.929 . S
C4581 C4573 1.433 . S
C4581 N4583 1.384 . S
N4582 C4578 1.427 . S
N4582 C4579 1.384 . S
N4583 C4575 1.427 . S
N4583 C4581 1.384 . S
H4584 C4590 0.930 . S
H4585 C4594 0.930 . S
H4586 C4599 0.929 . S
H4587 C4597 0.929 . S
H4588 C4592 0.929 . S
H4589 C4598 0.929 . S
C4590 H4584 0.930 . S
C4590 C4591 1.367 . S
C4590 C4598 1.378 . S
C4591 C4590 1.367 . S
C4591 C4599 1.433 . S
C4592 H4588 0.929 . S
C4592 C4594 1.378 . S
C4592 C4596 1.350 . S
C4593 C4596 1.463 . S
C4593 C4598 1.350 . S
C4593 N4601 1.427 . S
C4594 H4585 0.930 . S
C4594 C4592 1.378 . S
C4594 C4595 1.367 . S
C4595 C4594 1.367 . S
C4595 C4597 1.433 . S
C4596 C4592 1.350 . S
C4596 C4593 1.463 . S
C4596 N4600 1.427 . S
C4597 H4587 0.929 . S
C4597 C4595 1.433 . S
C4597 N4600 1.384 . S
C4598 H4589 0.929 . S
C4598 C4590 1.378 . S
C4598 C4593 1.350 . S
C4599 H4586 0.929 . S
C4599 C4591 1.433 . S
C4599 N4601 1.384 . S
N4600 C4596 1.427 . S
N4600 C4597 1.384 . S
N4601 C4593 1.427 . S
N4601 C4599 1.384 . S
H4602 C4608 0.930 . S
H4603 C4612 0.930 . S
H4604 C4617 0.929 . S
H4605 C4615 0.929 . S
H4606 C4610 0.929 . S
H4607 C4616 0.929 . S
C4608 H4602 0.930 . S
C4608 C4609 1.367 . S
C4608 C4616 1.378 . S
C4609 C4608 1.367 . S
C4609 C4617 1.433 . S
C4610 H4606 0.929 . S
C4610 C4612 1.378 . S
C4610 C4614 1.350 . S
C4611 C4614 1.463 . S
C4611 C4616 1.350 . S
C4611 N4619 1.427 . S
C4612 H4603 0.930 . S
C4612 C4610 1.378 . S
C4612 C4613 1.367 . S
C4613 C4612 1.367 . S
C4613 C4615 1.433 . S
C4614 C4610 1.350 . S
C4614 C4611 1.463 . S
C4614 N4618 1.427 . S
C4615 H4605 0.929 . S
C4615 C4613 1.433 . S
C4615 N4618 1.384 . S
C4616 H4607 0.929 . S
C4616 C4608 1.378 . S
C4616 C4611 1.350 . S
C4617 H4604 0.929 . S
C4617 C4609 1.433 . S
C4617 N4619 1.384 . S
N4618 C4614 1.427 . S
N4618 C4615 1.384 . S
N4619 C4611 1.427 . S
N4619 C4617 1.384 . S
H4620 C4626 0.930 . S
H4621 C4630 0.930 . S
H4622 C4635 0.929 . S
H4623 C4633 0.929 . S
H4624 C4628 0.929 . S
H4625 C4634 0.929 . S
C4626 H4620 0.930 . S
C4626 C4627 1.367 . S
C4626 C4634 1.378 . S
C4627 C4626 1.367 . S
C4627 C4635 1.433 . S
C4628 H4624 0.929 . S
C4628 C4630 1.378 . S
C4628 C4632 1.350 . S
C4629 C4632 1.463 . S
C4629 C4634 1.350 . S
C4629 N4637 1.427 . S
C4630 H4621 0.930 . S
C4630 C4628 1.378 . S
C4630 C4631 1.367 . S
C4631 C4630 1.367 . S
C4631 C4633 1.433 . S
C4632 C4628 1.350 . S
C4632 C4629 1.463 . S
C4632 N4636 1.427 . S
C4633 H4623 0.929 . S
C4633 C4631 1.433 . S
C4633 N4636 1.384 . S
C4634 H4625 0.929 . S
C4634 C4626 1.378 . S
C4634 C4629 1.350 . S
C4635 H4622 0.929 . S
C4635 C4627 1.433 . S
C4635 N4637 1.384 . S
N4636 C4632 1.427 . S
N4636 C4633 1.384 . S
N4637 C4629 1.427 . S
N4637 C4635 1.384 . S
H4638 C4644 0.930 1_565 S
H4639 C4648 0.930 . S
H4640 C4653 0.929 . S
H4641 C4651 0.929 . S
H4642 C4646 0.929 . S
H4643 C4652 0.929 . S
C4644 H4638 0.930 1_545 S
C4644 C4645 1.367 . S
C4644 C4652 1.378 . S
C4645 C4644 1.367 . S
C4645 C4653 1.433 . S
C4646 H4642 0.929 . S
C4646 C4648 1.378 . S
C4646 C4650 1.350 . S
C4647 C4650 1.463 . S
C4647 C4652 1.350 . S
C4647 N4655 1.427 . S
C4648 H4639 0.930 . S
C4648 C4646 1.378 . S
C4648 C4649 1.367 . S
C4649 C4648 1.367 . S
C4649 C4651 1.433 . S
C4650 C4646 1.350 . S
C4650 C4647 1.463 . S
C4650 N4654 1.427 . S
C4651 H4641 0.929 . S
C4651 C4649 1.433 . S
C4651 N4654 1.384 . S
C4652 H4643 0.929 . S
C4652 C4644 1.378 . S
C4652 C4647 1.350 . S
C4653 H4640 0.929 . S
C4653 C4645 1.433 . S
C4653 N4655 1.384 . S
N4654 C4650 1.427 . S
N4654 C4651 1.384 . S
N4655 C4647 1.427 . S
N4655 C4653 1.384 . S
H4656 C4662 0.930 . S
H4657 C4666 0.930 . S
H4658 C4671 0.929 . S
H4659 C4669 0.929 . S
H4660 C4664 0.929 . S
H4661 C4670 0.929 . S
C4662 H4656 0.930 . S
C4662 C4663 1.367 . S
C4662 C4670 1.378 . S
C4663 C4662 1.367 . S
C4663 C4671 1.433 . S
C4664 H4660 0.929 . S
C4664 C4666 1.378 . S
C4664 C4668 1.350 . S
C4665 C4668 1.463 . S
C4665 C4670 1.350 . S
C4665 N4673 1.427 . S
C4666 H4657 0.930 . S
C4666 C4664 1.378 . S
C4666 C4667 1.367 . S
C4667 C4666 1.367 . S
C4667 C4669 1.433 . S
C4668 C4664 1.350 . S
C4668 C4665 1.463 . S
C4668 N4672 1.427 . S
C4669 H4659 0.929 . S
C4669 C4667 1.433 . S
C4669 N4672 1.384 . S
C4670 H4661 0.929 . S
C4670 C4662 1.378 . S
C4670 C4665 1.350 . S
C4671 H4658 0.929 . S
C4671 C4663 1.433 . S
C4671 N4673 1.384 . S
N4672 C4668 1.427 . S
N4672 C4669 1.384 . S
N4673 C4665 1.427 . S
N4673 C4671 1.384 . S
H4674 C4680 0.930 . S
H4675 C4684 0.930 . S
H4676 C4689 0.929 . S
H4677 C4687 0.929 . S
H4678 C4682 0.929 . S
H4679 C4688 0.929 . S
C4680 H4674 0.930 . S
C4680 C4681 1.367 . S
C4680 C4688 1.378 . S
C4681 C4680 1.367 . S
C4681 C4689 1.433 . S
C4682 H4678 0.929 . S
C4682 C4684 1.378 . S
C4682 C4686 1.350 . S
C4683 C4686 1.463 . S
C4683 C4688 1.350 . S
C4683 N4691 1.427 . S
C4684 H4675 0.930 . S
C4684 C4682 1.378 . S
C4684 C4685 1.367 . S
C4685 C4684 1.367 . S
C4685 C4687 1.433 . S
C4686 C4682 1.350 . S
C4686 C4683 1.463 . S
C4686 N4690 1.427 . S
C4687 H4677 0.929 . S
C4687 C4685 1.433 . S
C4687 N4690 1.384 . S
C4688 H4679 0.929 . S
C4688 C4680 1.378 . S
C4688 C4683 1.350 . S
C4689 H4676 0.929 . S
C4689 C4681 1.433 . S
C4689 N4691 1.384 . S
N4690 C4686 1.427 . S
N4690 C4687 1.384 . S
N4691 C4683 1.427 . S
N4691 C4689 1.384 . S
H4692 C4698 0.930 1_554 S
H4693 C4702 0.930 . S
H4694 C4707 0.929 . S
H4695 C4705 0.929 . S
H4696 C4700 0.929 . S
H4697 C4706 0.929 . S
C4698 H4692 0.930 1_556 S
C4698 C4699 1.367 . S
C4698 C4706 1.378 . S
C4699 C4698 1.367 . S
C4699 C4707 1.433 . S
C4700 H4696 0.929 . S
C4700 C4702 1.378 . S
C4700 C4704 1.350 . S
C4701 C4704 1.463 . S
C4701 C4706 1.350 . S
C4701 N4709 1.427 . S
C4702 H4693 0.930 . S
C4702 C4700 1.378 . S
C4702 C4703 1.367 . S
C4703 C4702 1.367 . S
C4703 C4705 1.433 . S
C4704 C4700 1.350 . S
C4704 C4701 1.463 . S
C4704 N4708 1.427 . S
C4705 H4695 0.929 . S
C4705 C4703 1.433 . S
C4705 N4708 1.384 . S
C4706 H4697 0.929 . S
C4706 C4698 1.378 . S
C4706 C4701 1.350 . S
C4707 H4694 0.929 . S
C4707 C4699 1.433 . S
C4707 N4709 1.384 . S
N4708 C4704 1.427 . S
N4708 C4705 1.384 . S
N4709 C4701 1.427 . S
N4709 C4707 1.384 . S
H4710 C4716 0.930 . S
H4711 C4720 0.930 . S
H4712 C4725 0.929 . S
H4713 C4723 0.929 . S
H4714 C4718 0.929 . S
H4715 C4724 0.929 . S
C4716 H4710 0.930 . S
C4716 C4717 1.367 . S
C4716 C4724 1.378 . S
C4717 C4716 1.367 . S
C4717 C4725 1.433 . S
C4718 H4714 0.929 . S
C4718 C4720 1.378 . S
C4718 C4722 1.350 . S
C4719 C4722 1.463 . S
C4719 C4724 1.350 . S
C4719 N4727 1.427 . S
C4720 H4711 0.930 . S
C4720 C4718 1.378 . S
C4720 C4721 1.367 . S
C4721 C4720 1.367 . S
C4721 C4723 1.433 . S
C4722 C4718 1.350 . S
C4722 C4719 1.463 . S
C4722 N4726 1.427 . S
C4723 H4713 0.929 . S
C4723 C4721 1.433 . S
C4723 N4726 1.384 . S
C4724 H4715 0.929 . S
C4724 C4716 1.378 . S
C4724 C4719 1.350 . S
C4725 H4712 0.929 . S
C4725 C4717 1.433 . S
C4725 N4727 1.384 . S
N4726 C4722 1.427 . S
N4726 C4723 1.384 . S
N4727 C4719 1.427 . S
N4727 C4725 1.384 . S
H4728 C4734 0.930 . S
H4729 C4738 0.930 . S
H4730 C4743 0.929 . S
H4731 C4741 0.929 . S
H4732 C4736 0.929 . S
H4733 C4742 0.929 . S
C4734 H4728 0.930 . S
C4734 C4735 1.367 . S
C4734 C4742 1.378 . S
C4735 C4734 1.367 . S
C4735 C4743 1.433 . S
C4736 H4732 0.929 . S
C4736 C4738 1.378 . S
C4736 C4740 1.350 . S
C4737 C4740 1.463 . S
C4737 C4742 1.350 . S
C4737 N4745 1.427 . S
C4738 H4729 0.930 . S
C4738 C4736 1.378 . S
C4738 C4739 1.367 . S
C4739 C4738 1.367 . S
C4739 C4741 1.433 . S
C4740 C4736 1.350 . S
C4740 C4737 1.463 . S
C4740 N4744 1.427 . S
C4741 H4731 0.929 . S
C4741 C4739 1.433 . S
C4741 N4744 1.384 . S
C4742 H4733 0.929 . S
C4742 C4734 1.378 . S
C4742 C4737 1.350 . S
C4743 H4730 0.929 . S
C4743 C4735 1.433 . S
C4743 N4745 1.384 . S
N4744 C4740 1.427 . S
N4744 C4741 1.384 . S
N4745 C4737 1.427 . S
N4745 C4743 1.384 . S
H4746 C4752 0.930 . S
H4747 C4756 0.930 . S
H4748 C4761 0.929 . S
H4749 C4759 0.929 . S
H4750 C4754 0.929 . S
H4751 C4760 0.929 . S
C4752 H4746 0.930 . S
C4752 C4753 1.367 . S
C4752 C4760 1.378 . S
C4753 C4752 1.367 . S
C4753 C4761 1.433 . S
C4754 H4750 0.929 . S
C4754 C4756 1.378 . S
C4754 C4758 1.350 . S
C4755 C4758 1.463 . S
C4755 C4760 1.350 . S
C4755 N4763 1.427 . S
C4756 H4747 0.930 . S
C4756 C4754 1.378 . S
C4756 C4757 1.367 . S
C4757 C4756 1.367 . S
C4757 C4759 1.433 . S
C4758 C4754 1.350 . S
C4758 C4755 1.463 . S
C4758 N4762 1.427 . S
C4759 H4749 0.929 . S
C4759 C4757 1.433 . S
C4759 N4762 1.384 . S
C4760 H4751 0.929 . S
C4760 C4752 1.378 . S
C4760 C4755 1.350 . S
C4761 H4748 0.929 . S
C4761 C4753 1.433 . S
C4761 N4763 1.384 . S
N4762 C4758 1.427 . S
N4762 C4759 1.384 . S
N4763 C4755 1.427 . S
N4763 C4761 1.384 . S
H4764 C4770 0.930 . S
H4765 C4774 0.930 . S
H4766 C4779 0.929 . S
H4767 C4777 0.929 . S
H4768 C4772 0.929 . S
H4769 C4778 0.929 . S
C4770 H4764 0.930 . S
C4770 C4771 1.367 . S
C4770 C4778 1.378 . S
C4771 C4770 1.367 . S
C4771 C4779 1.433 . S
C4772 H4768 0.929 . S
C4772 C4774 1.378 . S
C4772 C4776 1.350 . S
C4773 C4776 1.463 . S
C4773 C4778 1.350 . S
C4773 N4781 1.427 . S
C4774 H4765 0.930 . S
C4774 C4772 1.378 . S
C4774 C4775 1.367 . S
C4775 C4774 1.367 . S
C4775 C4777 1.433 . S
C4776 C4772 1.350 . S
C4776 C4773 1.463 . S
C4776 N4780 1.427 . S
C4777 H4767 0.929 . S
C4777 C4775 1.433 . S
C4777 N4780 1.384 . S
C4778 H4769 0.929 . S
C4778 C4770 1.378 . S
C4778 C4773 1.350 . S
C4779 H4766 0.929 . S
C4779 C4771 1.433 . S
C4779 N4781 1.384 . S
N4780 C4776 1.427 . S
N4780 C4777 1.384 . S
N4781 C4773 1.427 . S
N4781 C4779 1.384 . S
H4782 C4788 0.930 . S
H4783 C4792 0.930 . S
H4784 C4797 0.929 . S
H4785 C4795 0.929 . S
H4786 C4790 0.929 . S
H4787 C4796 0.929 . S
C4788 H4782 0.930 . S
C4788 C4789 1.367 . S
C4788 C4796 1.378 . S
C4789 C4788 1.367 . S
C4789 C4797 1.433 . S
C4790 H4786 0.929 . S
C4790 C4792 1.378 . S
C4790 C4794 1.350 . S
C4791 C4794 1.463 . S
C4791 C4796 1.350 . S
C4791 N4799 1.427 . S
C4792 H4783 0.930 . S
C4792 C4790 1.378 . S
C4792 C4793 1.367 . S
C4793 C4792 1.367 . S
C4793 C4795 1.433 . S
C4794 C4790 1.350 . S
C4794 C4791 1.463 . S
C4794 N4798 1.427 . S
C4795 H4785 0.929 . S
C4795 C4793 1.433 . S
C4795 N4798 1.384 . S
C4796 H4787 0.929 . S
C4796 C4788 1.378 . S
C4796 C4791 1.350 . S
C4797 H4784 0.929 . S
C4797 C4789 1.433 . S
C4797 N4799 1.384 . S
N4798 C4794 1.427 . S
N4798 C4795 1.384 . S
N4799 C4791 1.427 . S
N4799 C4797 1.384 . S
H4800 C4806 0.930 . S
H4801 C4810 0.930 . S
H4802 C4815 0.929 . S
H4803 C4813 0.929 . S
H4804 C4808 0.929 . S
H4805 C4814 0.929 . S
C4806 H4800 0.930 . S
C4806 C4807 1.367 . S
C4806 C4814 1.378 . S
C4807 C4806 1.367 . S
C4807 C4815 1.433 . S
C4808 H4804 0.929 . S
C4808 C4810 1.378 . S
C4808 C4812 1.350 . S
C4809 C4812 1.463 . S
C4809 C4814 1.350 . S
C4809 N4817 1.427 . S
C4810 H4801 0.930 . S
C4810 C4808 1.378 . S
C4810 C4811 1.367 . S
C4811 C4810 1.367 . S
C4811 C4813 1.433 . S
C4812 C4808 1.350 . S
C4812 C4809 1.463 . S
C4812 N4816 1.427 . S
C4813 H4803 0.929 . S
C4813 C4811 1.433 . S
C4813 N4816 1.384 . S
C4814 H4805 0.929 . S
C4814 C4806 1.378 . S
C4814 C4809 1.350 . S
C4815 H4802 0.929 . S
C4815 C4807 1.433 . S
C4815 N4817 1.384 . S
N4816 C4812 1.427 . S
N4816 C4813 1.384 . S
N4817 C4809 1.427 . S
N4817 C4815 1.384 . S
H4818 C4824 0.930 . S
H4819 C4828 0.930 . S
H4820 C4833 0.929 . S
H4821 C4831 0.929 . S
H4822 C4826 0.929 . S
H4823 C4832 0.929 . S
C4824 H4818 0.930 . S
C4824 C4825 1.367 . S
C4824 C4832 1.378 . S
C4825 C4824 1.367 . S
C4825 C4833 1.433 . S
C4826 H4822 0.929 . S
C4826 C4828 1.378 . S
C4826 C4830 1.350 . S
C4827 C4830 1.463 . S
C4827 C4832 1.350 . S
C4827 N4835 1.427 . S
C4828 H4819 0.930 . S
C4828 C4826 1.378 . S
C4828 C4829 1.367 . S
C4829 C4828 1.367 . S
C4829 C4831 1.433 . S
C4830 C4826 1.350 . S
C4830 C4827 1.463 . S
C4830 N4834 1.427 . S
C4831 H4821 0.929 . S
C4831 C4829 1.433 . S
C4831 N4834 1.384 . S
C4832 H4823 0.929 . S
C4832 C4824 1.378 . S
C4832 C4827 1.350 . S
C4833 H4820 0.929 . S
C4833 C4825 1.433 . S
C4833 N4835 1.384 . S
N4834 C4830 1.427 . S
N4834 C4831 1.384 . S
N4835 C4827 1.427 . S
N4835 C4833 1.384 . S
H4836 C4842 0.930 . S
H4837 C4846 0.930 . S
H4838 C4851 0.929 . S
H4839 C4849 0.929 . S
H4840 C4844 0.929 . S
H4841 C4850 0.929 . S
C4842 H4836 0.930 . S
C4842 C4843 1.367 . S
C4842 C4850 1.378 . S
C4843 C4842 1.367 . S
C4843 C4851 1.433 . S
C4844 H4840 0.929 . S
C4844 C4846 1.378 . S
C4844 C4848 1.350 . S
C4845 C4848 1.463 . S
C4845 C4850 1.350 . S
C4845 N4853 1.427 . S
C4846 H4837 0.930 . S
C4846 C4844 1.378 . S
C4846 C4847 1.367 . S
C4847 C4846 1.367 . S
C4847 C4849 1.433 . S
C4848 C4844 1.350 . S
C4848 C4845 1.463 . S
C4848 N4852 1.427 . S
C4849 H4839 0.929 . S
C4849 C4847 1.433 . S
C4849 N4852 1.384 . S
C4850 H4841 0.929 . S
C4850 C4842 1.378 . S
C4850 C4845 1.350 . S
C4851 H4838 0.929 . S
C4851 C4843 1.433 . S
C4851 N4853 1.384 . S
N4852 C4848 1.427 . S
N4852 C4849 1.384 . S
N4853 C4845 1.427 . S
N4853 C4851 1.384 . S
H4854 C4860 0.930 . S
H4855 C4864 0.930 . S
H4856 C4869 0.929 . S
H4857 C4867 0.929 . S
H4858 C4862 0.929 . S
H4859 C4868 0.929 . S
C4860 H4854 0.930 . S
C4860 C4861 1.367 . S
C4860 C4868 1.378 . S
C4861 C4860 1.367 . S
C4861 C4869 1.433 . S
C4862 H4858 0.929 . S
C4862 C4864 1.378 . S
C4862 C4866 1.350 . S
C4863 C4866 1.463 . S
C4863 C4868 1.350 . S
C4863 N4871 1.427 . S
C4864 H4855 0.930 . S
C4864 C4862 1.378 . S
C4864 C4865 1.367 . S
C4865 C4864 1.367 . S
C4865 C4867 1.433 . S
C4866 C4862 1.350 . S
C4866 C4863 1.463 . S
C4866 N4870 1.427 . S
C4867 H4857 0.929 . S
C4867 C4865 1.433 . S
C4867 N4870 1.384 . S
C4868 H4859 0.929 . S
C4868 C4860 1.378 . S
C4868 C4863 1.350 . S
C4869 H4856 0.929 . S
C4869 C4861 1.433 . S
C4869 N4871 1.384 . S
N4870 C4866 1.427 . S
N4870 C4867 1.384 . S
N4871 C4863 1.427 . S
N4871 C4869 1.384 . S
H4872 C4878 0.930 . S
H4873 C4882 0.930 . S
H4874 C4887 0.929 . S
H4875 C4885 0.929 . S
H4876 C4880 0.929 . S
H4877 C4886 0.929 . S
C4878 H4872 0.930 . S
C4878 C4879 1.367 . S
C4878 C4886 1.378 . S
C4879 C4878 1.367 . S
C4879 C4887 1.433 . S
C4880 H4876 0.929 . S
C4880 C4882 1.378 . S
C4880 C4884 1.350 . S
C4881 C4884 1.463 . S
C4881 C4886 1.350 . S
C4881 N4889 1.427 . S
C4882 H4873 0.930 . S
C4882 C4880 1.378 . S
C4882 C4883 1.367 . S
C4883 C4882 1.367 . S
C4883 C4885 1.433 . S
C4884 C4880 1.350 . S
C4884 C4881 1.463 . S
C4884 N4888 1.427 . S
C4885 H4875 0.929 . S
C4885 C4883 1.433 . S
C4885 N4888 1.384 . S
C4886 H4877 0.929 . S
C4886 C4878 1.378 . S
C4886 C4881 1.350 . S
C4887 H4874 0.929 . S
C4887 C4879 1.433 . S
C4887 N4889 1.384 . S
N4888 C4884 1.427 . S
N4888 C4885 1.384 . S
N4889 C4881 1.427 . S
N4889 C4887 1.384 . S
H4890 C4896 0.930 . S
H4891 C4900 0.930 . S
H4892 C4905 0.929 . S
H4893 C4903 0.929 . S
H4894 C4898 0.929 . S
H4895 C4904 0.929 . S
C4896 H4890 0.930 . S
C4896 C4897 1.367 . S
C4896 C4904 1.378 . S
C4897 C4896 1.367 . S
C4897 C4905 1.433 . S
C4898 H4894 0.929 . S
C4898 C4900 1.378 . S
C4898 C4902 1.350 . S
C4899 C4902 1.463 . S
C4899 C4904 1.350 . S
C4899 N4907 1.427 . S
C4900 H4891 0.930 . S
C4900 C4898 1.378 . S
C4900 C4901 1.367 . S
C4901 C4900 1.367 . S
C4901 C4903 1.433 . S
C4902 C4898 1.350 . S
C4902 C4899 1.463 . S
C4902 N4906 1.427 . S
C4903 H4893 0.929 . S
C4903 C4901 1.433 . S
C4903 N4906 1.384 . S
C4904 H4895 0.929 . S
C4904 C4896 1.378 . S
C4904 C4899 1.350 . S
C4905 H4892 0.929 . S
C4905 C4897 1.433 . S
C4905 N4907 1.384 . S
N4906 C4902 1.427 . S
N4906 C4903 1.384 . S
N4907 C4899 1.427 . S
N4907 C4905 1.384 . S
H4908 C4914 0.930 . S
H4909 C4918 0.930 . S
H4910 C4923 0.929 . S
H4911 C4921 0.929 . S
H4912 C4916 0.929 . S
H4913 C4922 0.929 . S
C4914 H4908 0.930 . S
C4914 C4915 1.367 . S
C4914 C4922 1.378 . S
C4915 C4914 1.367 . S
C4915 C4923 1.433 . S
C4916 H4912 0.929 . S
C4916 C4918 1.378 . S
C4916 C4920 1.350 . S
C4917 C4920 1.463 . S
C4917 C4922 1.350 . S
C4917 N4925 1.427 . S
C4918 H4909 0.930 . S
C4918 C4916 1.378 . S
C4918 C4919 1.367 . S
C4919 C4918 1.367 . S
C4919 C4921 1.433 . S
C4920 C4916 1.350 . S
C4920 C4917 1.463 . S
C4920 N4924 1.427 . S
C4921 H4911 0.929 . S
C4921 C4919 1.433 . S
C4921 N4924 1.384 . S
C4922 H4913 0.929 . S
C4922 C4914 1.378 . S
C4922 C4917 1.350 . S
C4923 H4910 0.929 . S
C4923 C4915 1.433 . S
C4923 N4925 1.384 . S
N4924 C4920 1.427 . S
N4924 C4921 1.384 . S
N4925 C4917 1.427 . S
N4925 C4923 1.384 . S
H4926 C4932 0.930 . S
H4927 C4936 0.930 . S
H4928 C4941 0.929 . S
H4929 C4939 0.929 . S
H4930 C4934 0.929 . S
H4931 C4940 0.929 . S
C4932 H4926 0.930 . S
C4932 C4933 1.367 . S
C4932 C4940 1.378 . S
C4933 C4932 1.367 . S
C4933 C4941 1.433 . S
C4934 H4930 0.929 . S
C4934 C4936 1.378 . S
C4934 C4938 1.350 . S
C4935 C4938 1.463 . S
C4935 C4940 1.350 . S
C4935 N4943 1.427 . S
C4936 H4927 0.930 . S
C4936 C4934 1.378 . S
C4936 C4937 1.367 . S
C4937 C4936 1.367 . S
C4937 C4939 1.433 . S
C4938 C4934 1.350 . S
C4938 C4935 1.463 . S
C4938 N4942 1.427 . S
C4939 H4929 0.929 . S
C4939 C4937 1.433 . S
C4939 N4942 1.384 . S
C4940 H4931 0.929 . S
C4940 C4932 1.378 . S
C4940 C4935 1.350 . S
C4941 H4928 0.929 . S
C4941 C4933 1.433 . S
C4941 N4943 1.384 . S
N4942 C4938 1.427 . S
N4942 C4939 1.384 . S
N4943 C4935 1.427 . S
N4943 C4941 1.384 . S
H4944 C4950 0.930 . S
H4945 C4954 0.930 . S
H4946 C4959 0.929 . S
H4947 C4957 0.929 . S
H4948 C4952 0.929 . S
H4949 C4958 0.929 . S
C4950 H4944 0.930 . S
C4950 C4951 1.367 . S
C4950 C4958 1.378 . S
C4951 C4950 1.367 . S
C4951 C4959 1.433 . S
C4952 H4948 0.929 . S
C4952 C4954 1.378 . S
C4952 C4956 1.350 . S
C4953 C4956 1.463 . S
C4953 C4958 1.350 . S
C4953 N4961 1.427 . S
C4954 H4945 0.930 . S
C4954 C4952 1.378 . S
C4954 C4955 1.367 . S
C4955 C4954 1.367 . S
C4955 C4957 1.433 . S
C4956 C4952 1.350 . S
C4956 C4953 1.463 . S
C4956 N4960 1.427 . S
C4957 H4947 0.929 . S
C4957 C4955 1.433 . S
C4957 N4960 1.384 . S
C4958 H4949 0.929 . S
C4958 C4950 1.378 . S
C4958 C4953 1.350 . S
C4959 H4946 0.929 . S
C4959 C4951 1.433 . S
C4959 N4961 1.384 . S
N4960 C4956 1.427 . S
N4960 C4957 1.384 . S
N4961 C4953 1.427 . S
N4961 C4959 1.384 . S
H4962 C4968 0.930 . S
H4963 C4972 0.930 . S
H4964 C4977 0.929 . S
H4965 C4975 0.929 . S
H4966 C4970 0.929 . S
H4967 C4976 0.929 . S
C4968 H4962 0.930 . S
C4968 C4969 1.367 . S
C4968 C4976 1.378 . S
C4969 C4968 1.367 . S
C4969 C4977 1.433 . S
C4970 H4966 0.929 . S
C4970 C4972 1.378 . S
C4970 C4974 1.350 . S
C4971 C4974 1.463 . S
C4971 C4976 1.350 . S
C4971 N4979 1.427 . S
C4972 H4963 0.930 . S
C4972 C4970 1.378 . S
C4972 C4973 1.367 . S
C4973 C4972 1.367 . S
C4973 C4975 1.433 . S
C4974 C4970 1.350 . S
C4974 C4971 1.463 . S
C4974 N4978 1.427 . S
C4975 H4965 0.929 . S
C4975 C4973 1.433 . S
C4975 N4978 1.384 . S
C4976 H4967 0.929 . S
C4976 C4968 1.378 . S
C4976 C4971 1.350 . S
C4977 H4964 0.929 . S
C4977 C4969 1.433 . S
C4977 N4979 1.384 . S
N4978 C4974 1.427 . S
N4978 C4975 1.384 . S
N4979 C4971 1.427 . S
N4979 C4977 1.384 . S
H4980 C4986 0.930 . S
H4981 C4990 0.930 . S
H4982 C4995 0.929 . S
H4983 C4993 0.929 . S
H4984 C4988 0.929 . S
H4985 C4994 0.929 . S
C4986 H4980 0.930 . S
C4986 C4987 1.367 . S
C4986 C4994 1.378 . S
C4987 C4986 1.367 . S
C4987 C4995 1.433 . S
C4988 H4984 0.929 . S
C4988 C4990 1.378 . S
C4988 C4992 1.350 . S
C4989 C4992 1.463 . S
C4989 C4994 1.350 . S
C4989 N4997 1.427 . S
C4990 H4981 0.930 . S
C4990 C4988 1.378 . S
C4990 C4991 1.367 . S
C4991 C4990 1.367 . S
C4991 C4993 1.433 . S
C4992 C4988 1.350 . S
C4992 C4989 1.463 . S
C4992 N4996 1.427 . S
C4993 H4983 0.929 . S
C4993 C4991 1.433 . S
C4993 N4996 1.384 . S
C4994 H4985 0.929 . S
C4994 C4986 1.378 . S
C4994 C4989 1.350 . S
C4995 H4982 0.929 . S
C4995 C4987 1.433 . S
C4995 N4997 1.384 . S
N4996 C4992 1.427 . S
N4996 C4993 1.384 . S
N4997 C4989 1.427 . S
N4997 C4995 1.384 . S
H4998 C5004 0.930 . S
H4999 C5008 0.930 . S
H5000 C5013 0.929 . S
H5001 C5011 0.929 . S
H5002 C5006 0.929 . S
H5003 C5012 0.929 . S
C5004 H4998 0.930 . S
C5004 C5005 1.367 . S
C5004 C5012 1.378 . S
C5005 C5004 1.367 . S
C5005 C5013 1.433 . S
C5006 H5002 0.929 . S
C5006 C5008 1.378 . S
C5006 C5010 1.350 . S
C5007 C5010 1.463 . S
C5007 C5012 1.350 . S
C5007 N5015 1.427 . S
C5008 H4999 0.930 . S
C5008 C5006 1.378 . S
C5008 C5009 1.367 . S
C5009 C5008 1.367 . S
C5009 C5011 1.433 . S
C5010 C5006 1.350 . S
C5010 C5007 1.463 . S
C5010 N5014 1.427 . S
C5011 H5001 0.929 . S
C5011 C5009 1.433 . S
C5011 N5014 1.384 . S
C5012 H5003 0.929 . S
C5012 C5004 1.378 . S
C5012 C5007 1.350 . S
C5013 H5000 0.929 . S
C5013 C5005 1.433 . S
C5013 N5015 1.384 . S
N5014 C5010 1.427 . S
N5014 C5011 1.384 . S
N5015 C5007 1.427 . S
N5015 C5013 1.384 . S
H5016 C5022 0.930 . S
H5017 C5026 0.930 . S
H5018 C5031 0.929 . S
H5019 C5029 0.929 . S
H5020 C5024 0.929 . S
H5021 C5030 0.929 . S
C5022 H5016 0.930 . S
C5022 C5023 1.367 . S
C5022 C5030 1.378 . S
C5023 C5022 1.367 . S
C5023 C5031 1.433 . S
C5024 H5020 0.929 . S
C5024 C5026 1.378 . S
C5024 C5028 1.350 . S
C5025 C5028 1.463 . S
C5025 C5030 1.350 . S
C5025 N5033 1.427 . S
C5026 H5017 0.930 . S
C5026 C5024 1.378 . S
C5026 C5027 1.367 . S
C5027 C5026 1.367 . S
C5027 C5029 1.433 . S
C5028 C5024 1.350 . S
C5028 C5025 1.463 . S
C5028 N5032 1.427 . S
C5029 H5019 0.929 . S
C5029 C5027 1.433 . S
C5029 N5032 1.384 . S
C5030 H5021 0.929 . S
C5030 C5022 1.378 . S
C5030 C5025 1.350 . S
C5031 H5018 0.929 . S
C5031 C5023 1.433 . S
C5031 N5033 1.384 . S
N5032 C5028 1.427 . S
N5032 C5029 1.384 . S
N5033 C5025 1.427 . S
N5033 C5031 1.384 . S
H5034 C5040 0.930 . S
H5035 C5044 0.930 . S
H5036 C5049 0.929 . S
H5037 C5047 0.929 . S
H5038 C5042 0.929 . S
H5039 C5048 0.929 . S
C5040 H5034 0.930 . S
C5040 C5041 1.367 . S
C5040 C5048 1.378 . S
C5041 C5040 1.367 . S
C5041 C5049 1.433 . S
C5042 H5038 0.929 . S
C5042 C5044 1.378 . S
C5042 C5046 1.350 . S
C5043 C5046 1.463 . S
C5043 C5048 1.350 . S
C5043 N5051 1.427 . S
C5044 H5035 0.930 . S
C5044 C5042 1.378 . S
C5044 C5045 1.367 . S
C5045 C5044 1.367 . S
C5045 C5047 1.433 . S
C5046 C5042 1.350 . S
C5046 C5043 1.463 . S
C5046 N5050 1.427 . S
C5047 H5037 0.929 . S
C5047 C5045 1.433 . S
C5047 N5050 1.384 . S
C5048 H5039 0.929 . S
C5048 C5040 1.378 . S
C5048 C5043 1.350 . S
C5049 H5036 0.929 . S
C5049 C5041 1.433 . S
C5049 N5051 1.384 . S
N5050 C5046 1.427 . S
N5050 C5047 1.384 . S
N5051 C5043 1.427 . S
N5051 C5049 1.384 . S
H5052 C5058 0.930 1_565 S
H5053 C5062 0.930 . S
H5054 C5067 0.929 . S
H5055 C5065 0.929 . S
H5056 C5060 0.929 . S
H5057 C5066 0.929 . S
C5058 H5052 0.930 1_545 S
C5058 C5059 1.367 . S
C5058 C5066 1.378 . S
C5059 C5058 1.367 . S
C5059 C5067 1.433 . S
C5060 H5056 0.929 . S
C5060 C5062 1.378 . S
C5060 C5064 1.350 . S
C5061 C5064 1.463 . S
C5061 C5066 1.350 . S
C5061 N5069 1.427 . S
C5062 H5053 0.930 . S
C5062 C5060 1.378 . S
C5062 C5063 1.367 . S
C5063 C5062 1.367 . S
C5063 C5065 1.433 . S
C5064 C5060 1.350 . S
C5064 C5061 1.463 . S
C5064 N5068 1.427 . S
C5065 H5055 0.929 . S
C5065 C5063 1.433 . S
C5065 N5068 1.384 . S
C5066 H5057 0.929 . S
C5066 C5058 1.378 . S
C5066 C5061 1.350 . S
C5067 H5054 0.929 . S
C5067 C5059 1.433 . S
C5067 N5069 1.384 . S
N5068 C5064 1.427 . S
N5068 C5065 1.384 . S
N5069 C5061 1.427 . S
N5069 C5067 1.384 . S
H5070 C5076 0.930 . S
H5071 C5080 0.930 1_545 S
H5072 C5085 1.009 . S
H5073 C5083 0.929 . S
H5074 C5078 0.929 1_545 S
H5075 C5084 0.929 . S
C5076 H5070 0.930 . S
C5076 C5077 1.367 . S
C5076 C5084 1.378 . S
C5077 C5076 1.367 . S
C5077 C5085 1.374 1_565 S
C5078 H5074 0.929 1_565 S
C5078 C5080 1.378 . S
C5078 C5082 1.350 . S
C5079 C5082 1.463 . S
C5079 C5084 1.350 . S
C5079 N5087 1.432 1_565 S
C5080 H5071 0.930 1_565 S
C5080 C5078 1.378 . S
C5080 C5081 1.367 . S
C5081 C5080 1.367 . S
C5081 C5083 1.433 . S
C5082 C5078 1.350 . S
C5082 C5079 1.463 . S
C5082 N5086 1.427 . S
C5083 H5073 0.929 . S
C5083 C5081 1.433 . S
C5083 N5086 1.384 . S
C5084 H5075 0.929 . S
C5084 C5076 1.378 . S
C5084 C5079 1.350 . S
C5085 H5072 1.009 . S
C5085 C5077 1.374 1_545 S
C5085 N5087 1.364 . S
N5086 C5082 1.427 . S
N5086 C5083 1.384 . S
N5087 C5079 1.432 1_545 S
N5087 C5085 1.364 . S
C2503 C1781 1.737 . S
C2507 C1929 1.798 . S
C2521 C981 1.702 . S
C2525 C1941 1.660 . S
C2543 C1953 1.664 . S
C2539 C1861 1.609 . S
C2557 C1061 1.687 . S
C2561 C1965 1.645 . S
C2575 C1901 1.648 . S
C2579 C1977 1.624 . S
C2593 C941 1.723 . S
C2597 C1989 1.773 . S
C2611 C1821 1.625 . S
C2615 C2001 1.662 . S
C2629 C1021 1.663 . S
C2633 C2013 1.712 . S
C2647 C661 1.263 . S
C2651 C2025 1.243 . S
C2665 C1621 1.496 . S
C2669 C2037 1.507 . S
C2683 C741 1.808 . S
C2687 C2049 1.789 . S
C2701 C1581 1.764 . S
C2705 C2061 1.768 . S
C2719 C901 1.684 . S
C2723 C2073 1.649 . S
C2741 C2085 1.779 . S
C2737 C1661 1.739 . S
C2759 C2097 1.924 . S
C2755 C821 1.955 . S
C2773 C1141 1.582 . S
C2777 C2109 1.599 . S
C2795 C2121 1.756 . S
C2791 C781 1.712 . S
C2813 C2133 1.882 . S
C2809 C1701 1.912 . S
C2827 C861 1.609 . S
C2831 C2145 1.654 . S
C2845 C1181 1.755 . S
C2849 C2157 1.727 . S
C2867 C2169 1.402 . S
C2863 C1101 1.405 . S
C2881 C1421 1.364 . S
C2885 C2181 1.389 . S
C2903 C2193 1.622 . S
C2899 C381 1.638 . S
C2921 C2205 1.646 . S
C2917 C1501 1.629 . S
C2939 C2217 1.324 . S
C2935 C461 1.358 . S
C2957 C2229 1.550 . S
C2953 C1541 1.588 . S
C2971 C341 1.161 . S
C2975 C2241 1.167 . S
C2993 C2253 1.696 . S
C2989 C1461 1.728 . S
C3007 C421 1.669 . S
C3011 C2265 1.718 . S
C3029 C2277 1.585 . S
C3025 C61 1.609 . S
C3047 C2289 1.848 . S
C3043 C1261 1.763 . S
C3061 C141 1.536 . S
C3065 C2301 1.545 . S
C3083 C2313 1.517 . S
C3079 C1221 1.520 . S
C3101 C2325 1.486 . S
C3097 C301 1.514 . S
C3115 C1301 1.866 . S
C3119 C2337 1.837 . S
C3137 C2349 1.445 . S
C3133 C221 1.468 . S
C3155 C2361 1.572 . S
C3151 C541 1.584 . S
C3169 C181 1.688 . S
C3173 C2373 1.655 . S
C3191 C2385 1.425 . S
C3187 C1341 1.461 . S
C3205 C261 1.626 . S
C3209 C2397 1.618 . S
C3227 C2409 1.503 . S
C3223 C581 1.545 . S
C3241 C501 1.587 . S
C3245 C2421 1.561 . S
C3259 C701 1.470 . S
C3263 C2433 1.500 . S
C3281 C2445 1.809 . S
C3277 C621 1.799 . S
C3295 C1741 1.744 . S
C3299 C2457 1.705 . S
C3313 C101 1.653 . S
C3317 C2469 1.732 . S
C3335 C2481 1.510 . S
C3331 C21 1.509 . S
C3353 C2493 1.751 . S
C3349 C1381 1.778 . S
C3367 C1335 1.512 1_554 S
C3371 C1926 1.521 . S
C3385 C535 1.405 . S
C3389 C1938 1.401 . S
C3403 C1362 1.905 . S
C3407 C1948 1.838 . S
C3425 C1960 1.656 . S
C3421 C1295 1.633 . S
C3439 C575 1.320 . S
C3443 C1972 1.311 . S
C3457 C1215 1.376 . S
C3461 C1984 1.354 . S
C3479 C1996 1.545 . S
C3475 C495 1.546 . S
C3493 C1242 1.533 . S
C3497 C2010 1.578 . S
C3511 C1255 1.748 . S
C3515 C2022 1.715 . S
C3533 C2032 1.497 . S
C3529 C562 1.543 . S
C3547 C1202 1.460 . S
C3551 C2044 1.418 . S
C3569 C2056 1.609 . S
C3565 C482 1.671 . S
C3583 C522 1.261 . S
C3587 C2070 1.213 . S
C3601 C1375 1.719 . S
C3605 C2080 1.747 . S
C3623 C2092 1.784 . S
C3619 C1282 1.850 . S
C3641 C2106 1.678 . S
C3637 C1322 1.711 . S
C3655 C455 1.736 . S
C3659 C2058 1.763 . S
C3673 C1415 1.440 . S
C3677 C2118 1.451 . S
C3691 C1455 1.598 . S
C3695 C2130 1.586 . S
C3713 C2140 1.418 . S
C3709 C1482 1.459 . S
C3731 C2068 1.639 . S
C3727 C442 1.725 . S
C3745 C362 1.571 . S
C3749 C2034 1.543 . S
C3763 C1495 1.367 . S
C3767 C2154 1.312 . S
C3785 C2164 1.510 . S
C3781 C1402 1.548 . S
C3803 C2178 1.972 . S
C3799 C1695 1.980 . S
C3817 C1135 1.448 . S
C3821 C2190 1.454 . S
C3839 C2200 1.704 . S
C3835 C1722 1.708 . S
C3857 C2212 1.469 . S
C3853 C1655 1.492 . S
C3871 C1175 1.915 . S
C3875 C2226 1.894 . S
C3889 C1562 1.528 . S
C3893 C2236 1.506 . S
C3907 C1095 1.382 . S
C3911 C2248 1.376 . S
C3929 C2262 1.629 . S
C3925 C1615 1.616 . S
C3947 C2274 1.643 . S
C3943 C1602 1.666 . S
C3961 C1162 1.823 . S
C3965 C2284 1.840 . S
C3983 C2298 1.663 . S
C3979 C1575 1.721 . S
C3997 C1082 1.492 . S
C4001 C2308 1.476 . S
C4019 C2320 1.592 . S
C4015 C1122 1.621 . S
C4033 C1735 1.905 . S
C4037 C2334 1.870 . S
C4055 C2346 1.353 . S
C4051 C1642 1.354 . S
C4069 C1682 1.899 . S
C4073 C2356 1.907 . S
C4087 C1042 1.608 . S
C4091 C2310 1.606 . S
C4105 C1775 1.649 . S
C4109 C2368 1.669 . S
C4123 C1815 1.446 . S
C4127 C2380 1.456 . S
C4145 C2394 1.656 . S
C4141 C1842 1.625 . S
C4159 C1055 1.540 . S
C4163 C2322 1.477 . S
C4177 C975 1.589 . S
C4181 C2286 1.569 . S
C4199 C2404 1.800 . S
C4195 C1855 1.791 . S
C4213 C1762 1.827 . S
C4217 C2416 1.816 . S
C4235 C1986 1.536 . S
C4231 C215 1.526 . S
C4253 C1998 1.359 . S
C4249 C255 1.376 . S
C4271 C2008 1.747 . S
C4267 C282 1.819 . S
C4289 C1974 1.495 . S
C4285 C175 1.474 . S
C4307 C1962 1.411 . S
C4303 C135 1.420 . S
C4321 C15 1.401 . S
C4325 C1924 1.395 . S
C4339 C55 1.636 . S
C4343 C1936 1.645 . S
C4357 C82 1.551 . S
C4361 C1950 1.621 . S
C4375 C95 1.726 . S
C4379 C2166 1.711 . S
C4393 C122 1.413 . S
C4397 C2428 1.420 . S
C4411 C2 1.656 . S
C4415 C2152 1.582 . S
C4429 C42 1.777 . S
C4433 C2440 1.720 . S
C4447 C242 1.286 . S
C4451 C2454 1.262 . S
C4469 C2116 1.555 . S
C4465 C295 1.529 . S
C4483 C162 1.699 . S
C4487 C2128 1.641 . S
C4501 C202 1.675 . S
C4505 C2142 1.647 . S
C4523 C2442 1.608 . S
C4519 C1535 1.594 . S
C4537 C335 1.630 . S
C4541 C2082 1.641 . S
C4555 C375 1.638 . S
C4559 C2094 1.617 . S
C4573 C402 1.492 . S
C4577 C2104 1.492 . S
C4595 C2452 1.700 . S
C4591 C1522 1.767 . S
C4613 C2430 1.580 . S
C4609 C1442 1.608 . S
C4631 C2046 1.412 . S
C4627 C415 1.443 . S
C4645 C322 1.547 . S
C4649 C2020 1.478 . S
C4663 C815 2.005 . S
C4667 C2238 1.966 . S
C4681 C855 1.539 . S
C4685 C2250 1.578 . S
C4699 C882 1.803 1_556 S
C4703 C2260 1.814 . S
C4717 C775 1.535 . S
C4721 C2224 1.522 . S
C4739 C2214 1.821 . S
C4735 C735 1.862 . S
C4757 C2176 1.493 . S
C4753 C602 1.500 . S
C4775 C2188 1.378 . S
C4771 C655 1.408 . S
C4789 C695 1.629 . S
C4793 C2202 1.652 . S
C4811 C2418 1.603 . S
C4807 C682 1.616 . S
C4825 C722 1.699 . S
C4829 C2464 1.713 . S
C4843 C615 1.775 . S
C4847 C2406 1.716 . S
C4865 C2476 1.419 . S
C4861 C642 1.436 . S
C4879 C842 1.687 . S
C4883 C2488 1.683 . S
C4901 C2370 1.972 . S
C4897 C895 1.999 . S
C4915 C762 1.330 . S
C4919 C2382 1.334 . S
C4933 C802 1.875 . S
C4937 C2392 1.885 . S
C4951 C1895 1.579 . S
C4955 C2478 1.535 . S
C4973 C2332 1.796 . S
C4969 C935 1.796 . S
C4987 C962 1.523 . S
C4991 C2344 1.507 . S
C5005 C1002 1.668 . S
C5009 C2358 1.715 . S
C5023 C1882 1.518 . S
C5027 C2490 1.508 . S
C5041 C1802 1.450 . S
C5045 C2466 1.471 . S
C5063 C2296 1.716 . S
C5059 C1015 1.695 . S
C5081 C2272 1.897 . S
C5077 C922 1.909 . S
