# Generated by pormake.
# Topology pth, (4,4)-cn, num edge types: 1
# Building blocks:
#     Node 0, Type 0, BuildingBlock: AZAVOO_clean_sbu_0, # of connection points: 4
#     Node 1, Type 0, BuildingBlock: AZAVOO_clean_sbu_0, # of connection points: 4
#     Node 2, Type 0, BuildingBlock: AZAVOO_clean_sbu_0, # of connection points: 4
#     Node 3, Type 1, BuildingBlock: MIFKUJ_clean_linker_1, # of connection points: 4
#     Node 4, Type 1, BuildingBlock: MIFKUJ_clean_linker_1, # of connection points: 4
#     Node 5, Type 1, BuildingBlock: MIFKUJ_clean_linker_1, # of connection points: 4
#     Edge 6, Type (0, 1), BuildingBlock: FUNLAD_clean_linker_1, # of connection points: 2
#     Edge 7, Type (0, 1), BuildingBlock: FUNLAD_clean_linker_1, # of connection points: 2
#     Edge 8, Type (0, 1), BuildingBlock: FUNLAD_clean_linker_1, # of connection points: 2
#     Edge 9, Type (0, 1), BuildingBlock: FUNLAD_clean_linker_1, # of connection points: 2
#     Edge 10, Type (0, 1), BuildingBlock: FUNLAD_clean_linker_1, # of connection points: 2
#     Edge 11, Type (0, 1), BuildingBlock: FUNLAD_clean_linker_1, # of connection points: 2
#     Edge 12, Type (0, 1), BuildingBlock: FUNLAD_clean_linker_1, # of connection points: 2
#     Edge 13, Type (0, 1), BuildingBlock: FUNLAD_clean_linker_1, # of connection points: 2
#     Edge 14, Type (0, 1), BuildingBlock: FUNLAD_clean_linker_1, # of connection points: 2
#     Edge 15, Type (0, 1), BuildingBlock: FUNLAD_clean_linker_1, # of connection points: 2
#     Edge 16, Type (0, 1), BuildingBlock: FUNLAD_clean_linker_1, # of connection points: 2
#     Edge 17, Type (0, 1), BuildingBlock: FUNLAD_clean_linker_1, # of connection points: 2
# Relax obj value: 0.066
# Max RMSD: 0.212
# Mean RMSD: 0.113
data_MOF--net-pth--node1-AZAVOO_clean_sbu_0--node2-MIFKUJ_clean_linker_1--edge1-FUNLAD_clean_linker_1
_symmetry_space_group_name_H-M    P1
_symmetry_Int_Tables_number       1
_symmetry_cell_setting            triclinic
loop_
_symmetry_equiv_pos_as_xyz
'x, y, z'
_cell_length_a     30.391487
_cell_length_b     31.038922
_cell_length_c     64.947744
_cell_angle_alpha  90.855008
_cell_angle_beta   92.61717
_cell_angle_gamma 122.01726
loop_
_atom_site_label
_atom_site_type_symbol
_atom_site_fract_x
_atom_site_fract_y
_atom_site_fract_z
_atom_type_partial_charge
Mg0 Mg 0.09006 0.06695 0.03122 0.0
O1 O 0.0148 0.01209 0.01202 0.0
O2 O 0.0023 0.05433 0.98722 0.0
Mg3 Mg 0.06785 0.13801 0.99191 0.0
C4 C 0.98884 0.01333 0.99632 0.0
C5 C 0.0862 0.97826 0.05491 0.0
O6 O 0.11945 0.98481 0.04119 0.0
O7 O 0.05068 0.10099 0.04814 0.0
O8 O 0.03909 0.14418 0.02337 0.0
O9 O 0.13528 0.05429 0.00806 0.0
O10 O 0.11858 0.11543 0.00696 0.0
C11 C 0.03525 0.12995 0.0419 0.0
C12 C 0.13867 0.0924 -0.00127 0.0
O13 O 0.06727 0.00619 0.05492 0.0
Mg14 Mg 0.94895 4e-05 0.35643 0.0
O15 O 0.02283 0.02003 0.37579 0.0
O16 O 0.04047 0.08133 0.39931 0.0
Mg17 Mg 0.97814 0.10117 0.3946 0.0
C18 C 0.05075 0.05044 0.39094 0.0
C19 C 0.97095 0.92027 0.33727 0.0
O20 O 0.96547 0.90534 0.35632 0.0
O21 O 0.99336 0.07256 0.33918 0.0
O22 O 0.00676 0.1325 0.36268 0.0
O23 O 0.89903 0.94367 0.3793 0.0
O24 O 0.92376 0.02471 0.38036 0.0
C25 C 0.01044 0.11877 0.3445 0.0
C26 C 0.89921 0.98109 0.38847 0.0
O27 O 0.96632 0.95734 0.33272 0.0
Mg28 Mg 0.98343 0.99736 0.6844 0.0
O29 O 0.04233 0.06035 0.70746 0.0
O30 O -0.00098 0.06882 0.73252 0.0
Mg31 Mg 0.91231 0.00923 0.72582 0.0
C32 C 0.04135 0.08177 0.72418 0.0
C33 C 0.08472 0.02135 0.66408 0.0
O34 O 0.09028 0.00211 0.68116 0.0
O35 O 0.957 0.04842 0.6719 0.0
O36 O 0.90903 0.04962 0.69678 0.0
O37 O 0.98886 0.93945 0.70248 0.0
O38 O 0.93241 0.96235 0.70748 0.0
C39 C 0.92714 0.06161 0.67897 0.0
C40 C 0.9519 0.93588 0.71293 0.0
O41 O 0.04513 0.02466 0.66094 0.0
H42 H 0.12917 0.51216 0.16207 0.0
H43 H 0.13151 0.44531 0.14243 0.0
H44 H 0.98097 0.33326 0.16318 0.0
H45 H 0.97863 0.39999 0.18246 0.0
H46 H 0.0618 0.54459 0.15838 0.0
H47 H 0.1264 0.48797 0.21182 0.0
H48 H 0.13624 0.43119 0.23475 0.0
H49 H 0.97956 0.36952 0.25307 0.0
H50 H 0.97003 0.42614 0.23017 0.0
H51 H 0.94984 0.54914 0.22535 0.0
H52 H 0.93626 0.60539 0.24711 0.0
H53 H 0.0888 0.73172 0.23431 0.0
H54 H 0.10168 0.67521 0.2126 0.0
H55 H 0.0274 0.52992 0.23267 0.0
H56 H 0.97558 0.60452 0.17792 0.0
H57 H 0.98463 0.67461 0.15809 0.0
H58 H 0.13979 0.71605 0.14411 0.0
H59 H 0.13078 0.64653 0.16445 0.0
C60 C 0.05374 0.46101 0.17368 0.0
C61 C 0.09666 0.4732 0.16228 0.0
C62 C 0.09803 0.43504 0.15118 0.0
C63 C 0.0561 0.38432 0.15095 0.0
C64 C 0.01336 0.37211 0.16257 0.0
C65 C 0.01222 0.41018 0.17381 0.0
C66 C 0.05154 0.50121 0.18528 0.0
C67 C 0.05486 0.54179 0.17468 0.0
C68 C 0.04305 0.49785 0.20653 0.0
C69 C 0.04728 0.46079 0.21917 0.0
C70 C 0.09389 0.4615 0.22051 0.0
C71 C 0.09955 0.42927 0.23362 0.0
C72 C 0.05846 0.39527 0.24535 0.0
C73 C 0.01151 0.39419 0.24379 0.0
C74 C 0.00611 0.42687 0.23087 0.0
C75 C 0.02655 0.6081 0.21723 0.0
C76 C 0.98002 0.58914 0.22706 0.0
C77 C 0.97235 0.62132 0.23949 0.0
C78 C 0.011 0.67316 0.24241 0.0
C79 C 0.05748 0.69236 0.23225 0.0
C80 C 0.06509 0.66001 0.21977 0.0
C81 C 0.03579 0.57246 0.20565 0.0
C82 C 0.03405 0.5327 0.21633 0.0
C83 C 0.04763 0.57788 0.18467 0.0
C84 C 0.05256 0.62039 0.17271 0.0
C85 C 0.0116 0.62889 0.17065 0.0
C86 C 0.01669 0.66875 0.15904 0.0
C87 C 0.06279 0.70052 0.14912 0.0
C88 C 0.10375 0.69207 0.15145 0.0
C89 C 0.09861 0.65229 0.163 0.0
H90 H 0.61569 0.11816 0.47705 0.0
H91 H 0.67345 0.1019 0.45787 0.0
H92 H 0.64507 0.98228 0.49878 0.0
H93 H 0.5879 -0.00128 0.51771 0.0
H94 H 0.51449 0.06007 0.48392 0.0
H95 H 0.673 0.14701 0.52492 0.0
H96 H 0.75095 0.15941 0.54372 0.0
H97 H 0.6538 0.04334 0.58516 0.0
H98 H 0.57652 0.03067 0.56627 0.0
H99 H 0.43764 0.00432 0.56191 0.0
H100 H 0.36972 0.99583 0.58327 0.0
H101 H 0.37779 0.12445 0.55452 0.0
H102 H 0.44655 0.13321 0.53348 0.0
H103 H 0.53826 0.08571 0.56014 0.0
H104 H 0.37884 0.99614 0.51523 0.0
H105 H 0.30373 0.99135 0.49716 0.0
H106 H 0.40739 0.12196 0.46292 0.0
H107 H 0.48203 0.12714 0.48125 0.0
C108 C 0.59828 0.06031 0.49903 0.0
C109 C 0.62215 0.08858 0.48188 0.0
C110 C 0.65522 0.07936 0.471 0.0
C111 C 0.66509 0.04183 0.47708 0.0
C112 C 0.64012 0.01276 0.49402 0.0
C113 C 0.60701 0.02191 0.50483 0.0
C114 C 0.56371 0.07021 0.51088 0.0
C115 C 0.52012 0.06651 0.50055 0.0
C116 C 0.57134 0.07916 0.53254 0.0
C117 C 0.61882 0.08779 0.54415 0.0
C118 C 0.66855 0.12421 0.53805 0.0
C119 C 0.71303 0.1315 0.54884 0.0
C120 C 0.70865 0.1034 0.56619 0.0
C121 C 0.65881 0.06701 0.5723 0.0
C122 C 0.61441 0.05942 0.56141 0.0
C123 C 0.44713 0.06941 0.54615 0.0
C124 C 0.42509 0.03099 0.56037 0.0
C125 C 0.38618 0.02607 0.5725 0.0
C126 C 0.3688 0.05978 0.57089 0.0
C127 C 0.39088 0.09841 0.55658 0.0
C128 C 0.42993 0.10324 0.54436 0.0
C129 C 0.48796 0.07314 0.53333 0.0
C130 C 0.53302 0.07986 0.54348 0.0
C131 C 0.48199 0.06782 0.51151 0.0
C132 C 0.43611 0.06247 0.4998 0.0
C133 C 0.38536 0.02381 0.50387 0.0
C134 C 0.3425 0.02092 0.49347 0.0
C135 C 0.34952 0.05567 0.47842 0.0
C136 C 0.40041 0.09368 0.47403 0.0
C137 C 0.44324 0.09692 0.4846 0.0
H138 H 0.45697 0.38879 0.84364 0.0
H139 H 0.37837 0.32275 0.82421 0.0
H140 H 0.34613 0.43617 0.80426 0.0
H141 H 0.4243 0.50177 0.82414 0.0
H142 H 0.5277 0.53314 0.8216 0.0
H143 H 0.51732 0.43551 0.89739 0.0
H144 H 0.4558 0.36304 0.9168 0.0
H145 H 0.32845 0.36802 0.88739 0.0
H146 H 0.39015 0.44254 0.86894 0.0
H147 H 0.57101 0.62811 0.90185 0.0
H148 H 0.64174 0.70272 0.92115 0.0
H149 H 0.75357 0.68742 0.88826 0.0
H150 H 0.6823 0.61209 0.86914 0.0
H151 H 0.54256 0.529 0.89783 0.0
H152 H 0.60346 0.67253 0.8517 0.0
H153 H 0.67175 0.74252 0.83301 0.0
H154 H 0.70144 0.63648 0.80251 0.0
H155 H 0.63411 0.5674 0.82135 0.0
C156 C 0.44633 0.45011 0.83539 0.0
C157 C 0.43308 0.39935 0.83495 0.0
C158 C 0.38822 0.36166 0.82363 0.0
C159 C 0.35616 0.37434 0.81238 0.0
C160 C 0.37011 0.42531 0.81269 0.0
C161 C 0.41485 0.46284 0.82396 0.0
C162 C 0.49196 0.4902 0.84817 0.0
C163 C 0.53096 0.53202 0.83826 0.0
C164 C 0.49662 0.48843 0.86991 0.0
C165 C 0.45846 0.44407 0.88137 0.0
C166 C 0.4762 0.42124 0.89515 0.0
C167 C 0.44112 0.37969 0.90612 0.0
C168 C 0.38757 0.35936 0.90315 0.0
C169 C 0.36955 0.38212 0.88946 0.0
C170 C 0.40481 0.42467 0.87891 0.0
C171 C 0.6213 0.61476 0.88394 0.0
C172 C 0.61077 0.64028 0.89907 0.0
C173 C 0.6514 0.68289 0.91018 0.0
C174 C 0.70345 0.70061 0.9064 0.0
C175 C 0.71385 0.67451 0.89148 0.0
C176 C 0.67321 0.63162 0.88052 0.0
C177 C 0.57781 0.57185 0.87123 0.0
C178 C 0.53926 0.52969 0.88115 0.0
C179 C 0.57394 0.57257 0.84948 0.0
C180 C 0.61421 0.61498 0.83802 0.0
C181 C 0.62511 0.66465 0.8411 0.0
C182 C 0.66405 0.70448 0.83047 0.0
C183 C 0.69299 0.69538 0.81677 0.0
C184 C 0.68134 0.64535 0.8135 0.0
C185 C 0.64225 0.60558 0.82403 0.0
H186 H 0.99742 0.17073 0.05075 0.0
C187 C 0.01817 0.15345 0.05681 0.0
H188 H 0.058 0.14708 0.083 0.0
H189 H 0.05951 0.36106 0.09843 0.0
H190 H 0.11222 0.39077 0.0689 0.0
H191 H 0.132 0.33456 0.04964 0.0
H192 H 0.09758 0.24793 0.05936 0.0
C193 C 0.03621 0.16304 0.07668 0.0
C194 C 0.03098 0.19922 0.0901 0.0
C195 C 0.05495 0.25108 0.08511 0.0
C196 C 0.0472 0.28475 0.09722 0.0
C197 C 0.06704 0.3348 0.09064 0.0
C198 C 0.09697 0.35226 0.07357 0.0
C199 C 0.10784 0.32054 0.06266 0.0
C200 C 0.08728 0.27059 0.0683 0.0
H201 H 0.09626 0.35233 0.13524 0.0
C202 C 0.05816 0.34523 0.13839 0.0
H203 H 0.977 0.29647 0.13166 0.0
H204 H 0.98075 0.1028 0.10412 0.0
H205 H 0.93266 0.07457 0.13502 0.0
H206 H 0.92456 0.13455 0.15745 0.0
H207 H 0.96402 0.22299 0.14904 0.0
C208 C 0.01558 0.30415 0.12923 0.0
C209 C 0.01975 0.26788 0.11543 0.0
C210 C 0.99686 0.21643 0.12069 0.0
C211 C 0.00221 0.18199 0.10794 0.0
C212 C 0.97832 0.13065 0.11338 0.0
C213 C 0.95059 0.11394 0.13106 0.0
C214 C 0.94599 0.1477 0.14368 0.0
C215 C 0.96879 0.19838 0.13866 0.0
H216 H 0.84966 0.93634 0.41349 0.0
C217 C 0.86967 0.97353 0.40688 0.0
H218 H 0.88261 0.04748 0.40747 0.0
H219 H 0.65582 0.93595 0.44678 0.0
H220 H 0.62139 0.88628 0.41438 0.0
H221 H 0.68031 0.89047 0.38849 0.0
H222 H 0.77362 0.94328 0.39497 0.0
C223 C 0.86248 0.01015 0.41395 0.0
C224 C 0.8264 0.00216 0.43022 0.0
C225 C 0.77176 0.97176 0.42582 0.0
C226 C 0.73773 0.97109 0.4403 0.0
C227 C 0.68334 0.93922 0.43595 0.0
C228 C 0.66307 0.91031 0.41747 0.0
C229 C 0.69625 0.91254 0.40294 0.0
C230 C 0.74993 0.94293 0.40693 0.0
H231 H 0.70761 0.04765 0.44951 0.0
C232 C 0.69994 0.03291 0.4649 0.0
H233 H 0.72015 0.99676 0.48761 0.0
H234 H 0.92853 0.05981 0.44425 0.0
H235 H 0.96257 0.10947 0.47671 0.0
H236 H 0.90352 0.1106 0.50125 0.0
H237 H 0.8101 0.062 0.49354 0.0
C238 C 0.7235 0.00901 0.4719 0.0
C239 C 0.75837 0.00249 0.45863 0.0
C240 C 0.8127 0.03053 0.46354 0.0
C241 C 0.84676 0.03031 0.44931 0.0
C242 C 0.90099 0.05916 0.45443 0.0
C243 C 0.92101 0.08768 0.47302 0.0
C244 C 0.88775 0.08827 0.48685 0.0
C245 C 0.8342 0.0602 0.48224 0.0
H246 H 0.9488 0.8791 0.73394 0.0
C247 C 0.93178 0.9014 0.73012 0.0
H248 H 0.87293 0.91594 0.73618 0.0
H249 H 0.75227 0.68208 0.76557 0.0
H250 H 0.74704 0.65897 0.72935 0.0
H251 H 0.79465 0.72463 0.70429 0.0
H252 H 0.84796 0.81361 0.71531 0.0
C253 C 0.89018 0.89374 0.73973 0.0
C254 C 0.86471 0.85377 0.75495 0.0
C255 C 0.83368 0.8018 0.74815 0.0
C256 C 0.80565 0.76403 0.76253 0.0
C257 C 0.77449 0.71242 0.75534 0.0
C258 C 0.77102 0.69858 0.73456 0.0
C259 C 0.79786 0.73553 0.72046 0.0
C260 C 0.82863 0.78656 0.72705 0.0
H261 H 0.72754 0.76954 0.80219 0.0
C262 C 0.7327 0.73803 0.80514 0.0
H263 H 0.78086 0.70873 0.80089 0.0
H264 H 0.92239 0.94961 0.77301 0.0
H265 H 0.9286 0.97262 0.80942 0.0
H266 H 0.88062 0.90689 0.83444 0.0
H267 H 0.82592 0.81779 0.82321 0.0
C268 C 0.77401 0.73908 0.79791 0.0
C269 C 0.80783 0.77841 0.78355 0.0
C270 C 0.84023 0.83013 0.79046 0.0
C271 C 0.8684 0.86791 0.77609 0.0
C272 C 0.90007 0.9194 0.7833 0.0
C273 C 0.9041 0.93309 0.80415 0.0
C274 C 0.87704 0.89609 0.81824 0.0
C275 C 0.84553 0.84513 0.81157 0.0
H276 H 0.0426 0.93455 0.0812 0.0
C277 C 0.07051 0.93886 0.07023 0.0
H278 H 0.11619 0.91129 0.05966 0.0
H279 H 0.07133 0.8247 0.15416 0.0
H280 H 0.12301 0.91327 0.16628 0.0
H281 H 0.15359 0.98199 0.14175 0.0
H282 H 0.13197 0.96262 0.10504 0.0
C283 C 0.08961 0.90854 0.07096 0.0
C284 C 0.07211 0.86763 0.08597 0.0
C285 C 0.08655 0.87981 0.10733 0.0
C286 C 0.07084 0.84022 0.1214 0.0
C287 C 0.08387 0.8533 0.14274 0.0
C288 C 0.11324 0.90398 0.14992 0.0
C289 C 0.1303 0.94266 0.13611 0.0
C290 C 0.11733 0.93097 0.11506 0.0
H291 H 0.10984 0.77118 0.13265 0.0
C292 C 0.07031 0.74303 0.13638 0.0
H293 H 0.99107 0.71848 0.13022 0.0
H294 H 0.03571 0.83127 0.04619 0.0
H295 H 0.98533 0.74269 0.03409 0.0
H296 H 0.96084 0.67416 0.05832 0.0
H297 H 0.98629 0.69374 0.09483 0.0
C298 C 0.03141 0.74733 0.12821 0.0
C299 C 0.04261 0.78867 0.11398 0.0
C300 C 0.02731 0.7765 0.0927 0.0
C301 C 0.04204 0.81602 0.07868 0.0
C302 C 0.02614 0.80279 0.05749 0.0
C303 C 0.9971 0.75208 0.05033 0.0
C304 C 0.98327 0.7135 0.06398 0.0
C305 C -0.00187 0.72531 0.08492 0.0
H306 H 0.10763 0.02689 0.39014 0.0
C307 C 0.09604 0.04887 0.39901 0.0
H308 H 0.11112 0.09452 0.42602 0.0
H309 H 0.23389 0.97104 0.44456 0.0
H310 H 0.14873 0.89343 0.44082 0.0
H311 H 0.07075 0.89593 0.43105 0.0
H312 H 0.07769 0.97582 0.4244 0.0
C313 C 0.12187 0.07189 0.41713 0.0
C314 C 0.16771 0.07013 0.42503 0.0
C315 C 0.16238 0.02324 0.43002 0.0
C316 C 0.20683 0.02212 0.43698 0.0
C317 C 0.20106 0.97442 0.44031 0.0
C318 C 0.15243 0.92949 0.43806 0.0
C319 C 0.10858 0.93088 0.43246 0.0
C320 C 0.11323 0.97706 0.42851 0.0
H321 H 0.26829 0.03682 0.47695 0.0
C322 C 0.30316 0.05288 0.46838 0.0
H323 H 0.33586 0.0835 0.44013 0.0
H324 H 0.19186 0.16621 0.41643 0.0
H325 H 0.27632 0.24415 0.42179 0.0
H326 H 0.35221 0.24278 0.436 0.0
H327 H 0.34423 0.16343 0.44473 0.0
C328 C 0.30195 0.06813 0.44919 0.0
C329 C 0.25587 0.0682 0.44032 0.0
C330 C 0.26108 0.11507 0.43553 0.0
C331 C 0.21708 0.11598 0.42774 0.0
C332 C 0.22371 0.16329 0.42272 0.0
C333 C 0.27205 0.20838 0.42567 0.0
C334 C 0.31478 0.20759 0.43364 0.0
C335 C 0.30962 0.16167 0.43855 0.0
H336 H 0.12693 0.12962 0.72752 0.0
C337 C 0.0915 0.12168 0.73436 0.0
H338 H 0.05995 0.13889 0.75918 0.0
H339 H 0.25582 0.2227 0.82137 0.0
H340 H 0.19203 0.14613 0.83751 0.0
H341 H 0.107 0.08574 0.81948 0.0
H342 H 0.08503 0.10176 0.78529 0.0
C343 C 0.09492 0.14743 0.7518 0.0
C344 C 0.14626 0.18442 0.76259 0.0
C345 C 0.1587 0.1741 0.78249 0.0
C346 C 0.20805 0.20847 0.79276 0.0
C347 C 0.21913 0.19763 0.81277 0.0
C348 C 0.18286 0.15382 0.82223 0.0
C349 C 0.13497 0.11985 0.81209 0.0
C350 C 0.12283 0.12961 0.79246 0.0
H351 H 0.279 0.34649 0.79675 0.0
C352 C 0.30702 0.33581 0.80074 0.0
H353 H 0.32242 0.27694 0.79767 0.0
H354 H 0.13269 0.21949 0.72578 0.0
H355 H 0.19772 0.29426 0.7091 0.0
H356 H 0.28592 0.34973 0.72559 0.0
H357 H 0.30918 0.33131 0.75906 0.0
C358 C 0.29581 0.2895 0.79428 0.0
C359 C 0.24503 0.25288 0.78306 0.0
C360 C 0.23293 0.26286 0.76303 0.0
C361 C 0.18299 0.22936 0.75302 0.0
C362 C 0.17079 0.24218 0.73365 0.0
C363 C 0.20765 0.28527 0.72396 0.0
C364 C 0.25722 0.31661 0.73328 0.0
C365 C 0.26994 0.30575 0.75258 0.0
H366 H 0.87629 0.09011 0.67097 0.0
C367 C 0.90672 0.0854 0.66532 0.0
H368 H 0.94752 0.08799 0.63945 0.0
H369 H 0.74817 0.02057 0.58027 0.0
H370 H 0.76169 0.95109 0.57525 0.0
H371 H 0.83139 0.94919 0.59538 0.0
H372 H 0.88782 0.01667 0.62065 0.0
C373 C 0.91837 0.09406 0.64549 0.0
C374 C 0.88394 0.10088 0.63067 0.0
C375 C 0.85238 0.06176 0.61544 0.0
C376 C 0.81243 0.06301 0.60372 0.0
C377 C 0.77976 0.02218 0.58935 0.0
C378 C 0.78691 0.98183 0.58636 0.0
C379 C 0.82612 0.98075 0.59769 0.0
C380 C 0.85836 0.01993 0.61216 0.0
H381 H 0.79046 0.12334 0.5682 0.0
C382 C 0.75637 0.1107 0.57699 0.0
H383 H 0.72668 0.09243 0.60659 0.0
H384 H 0.9442 0.18634 0.65563 0.0
H385 H 0.93246 0.25753 0.6599 0.0
H386 H 0.86211 0.25897 0.64002 0.0
H387 H 0.80328 0.18944 0.61564 0.0
C388 C 0.75868 0.10159 0.59704 0.0
C389 C 0.80472 0.10374 0.60707 0.0
C390 C 0.83845 0.14444 0.62129 0.0
C391 C 0.87847 0.14326 0.63297 0.0
C392 C 0.91232 0.18485 0.64678 0.0
C393 C 0.90622 0.22602 0.64926 0.0
C394 C 0.86663 0.22686 0.63805 0.0
C395 C 0.83306 0.18668 0.62418 0.0
H396 H 0.92965 0.93148 0.9973 0.0
C397 C 0.943 0.9648 0.98815 0.0
H398 H 0.93222 0.99265 0.9601 0.0
H399 H 0.81527 0.74116 0.94264 0.0
H400 H 0.90109 0.75451 0.94839 0.0
H401 H 0.97685 0.83957 0.95876 0.0
H402 H 0.96695 0.91132 0.96399 0.0
C403 C 0.91977 0.95971 0.96938 0.0
C404 C 0.8755 0.90953 0.96098 0.0
C405 C 0.88267 0.86865 0.95684 0.0
C406 C 0.83964 0.82037 0.94956 0.0
C407 C 0.84708 0.77927 0.94709 0.0
C408 C 0.89609 0.7863 0.95051 0.0
C409 C 0.93868 0.83411 0.95644 0.0
C410 C 0.93232 0.87493 0.95957 0.0
H411 H 0.78341 0.76833 0.90895 0.0
C412 C 0.74761 0.74757 0.91691 0.0
H413 H 0.71119 0.74477 0.94431 0.0
H414 H 0.84831 0.9796 0.96742 0.0
H415 H 0.76333 0.96726 0.96002 0.0
H416 H 0.68995 0.88505 0.94542 0.0
H417 H 0.70094 0.81455 0.9383 0.0
C418 C 0.74597 0.76492 0.93579 0.0
C419 C 0.79033 0.81399 0.94505 0.0
C420 C 0.78334 0.855 0.94893 0.0
C421 C 0.82588 0.90271 0.95701 0.0
C422 C 0.81755 0.94276 0.96103 0.0
C423 C 0.76893 0.93619 0.95689 0.0
C424 C 0.72761 0.88989 0.94869 0.0
C425 C 0.73448 0.84967 0.94471 0.0
H426 H 0.98691 0.90905 0.30555 0.0
C427 C 0.98184 0.89442 0.32094 0.0
H428 H 0.98143 0.8392 0.3397 0.0
H429 H 0.94549 0.74448 0.24297 0.0
H430 H 0.86293 0.73929 0.24203 0.0
H431 H 0.83938 0.77282 0.2714 0.0
H432 H 0.89864 0.81262 0.30163 0.0
C433 C 0.98487 0.8535 0.32431 0.0
C434 C 0.99643 0.82875 0.30741 0.0
C435 C 0.96022 0.80361 0.29024 0.0
C436 C 0.9726 0.78193 0.27378 0.0
C437 C 0.9371 0.75964 0.25628 0.0
C438 C 0.88971 0.75672 0.25548 0.0
C439 C 0.87655 0.77577 0.27197 0.0
C440 C 0.91117 0.79891 0.28919 0.0
H441 H 0.96929 0.68452 0.26677 0.0
C442 C 0.00186 0.70458 0.257 0.0
H443 H 0.06376 0.77796 0.2498 0.0
H444 H 0.07461 0.87457 0.33794 0.0
H445 H 0.15578 0.87698 0.33936 0.0
H446 H 0.17557 0.83611 0.3115 0.0
H447 H 0.11449 0.79291 0.28196 0.0
C448 C 0.03068 0.75565 0.25898 0.0
C449 C 0.01989 0.78299 0.27503 0.0
C450 C 0.056 0.80798 0.2922 0.0
C451 C 0.04428 0.83095 0.3084 0.0
C452 C 0.08124 0.85601 0.3253 0.0
C453 C 0.12804 0.85774 0.32631 0.0
C454 C 0.1392 0.83476 0.31061 0.0
C455 C 0.10377 0.8101 0.29373 0.0
H456 H 0.11742 0.05493 0.63463 0.0
C457 C 0.12301 0.03793 0.64823 0.0
H458 H 0.17004 0.01552 0.66353 0.0
H459 H 0.23192 0.02695 0.56584 0.0
H460 H 0.14237 0.95823 0.55824 0.0
H461 H 0.07921 0.92803 0.58524 0.0
H462 H 0.10485 0.96693 0.6198 0.0
C463 C 0.16318 0.03127 0.6498 0.0
C464 C 0.20116 0.04768 0.63353 0.0
C465 C 0.18571 0.02301 0.61359 0.0
C466 C 0.22267 0.03862 0.59831 0.0
C467 C 0.20583 0.01514 0.57825 0.0
C468 C 0.1545 0.97589 0.57364 0.0
C469 C 0.11891 0.95903 0.58882 0.0
C470 C 0.13411 0.98204 0.60859 0.0
H471 H 0.30537 0.01592 0.59149 0.0
C472 C 0.32695 0.05217 0.58415 0.0
H473 H 0.3382 0.12558 0.58276 0.0
H474 H 0.24296 0.10444 0.66981 0.0
H475 H 0.33308 0.17153 0.67754 0.0
H476 H 0.39791 0.19592 0.65146 0.0
H477 H 0.37296 0.15365 0.61744 0.0
C478 C 0.31567 0.08762 0.58848 0.0
C479 C 0.27547 0.0769 0.60329 0.0
C480 C 0.29071 0.10216 0.62306 0.0
C481 C 0.25348 0.08759 0.63818 0.0
C482 C 0.26974 0.11352 0.65781 0.0
C483 C 0.32134 0.15219 0.66244 0.0
C484 C 0.35784 0.16594 0.64776 0.0
C485 C 0.34296 0.14135 0.62828 0.0
H486 H 0.1699 0.08317 0.9699 0.0
C487 C 0.16428 0.1091 0.97917 0.0
H488 H 0.17694 0.18237 0.98302 0.0
H489 H 0.3539 0.23003 0.9162 0.0
H490 H 0.38715 0.19106 0.9391 0.0
H491 H 0.34163 0.14893 0.97008 0.0
H492 H 0.26204 0.14374 0.9779 0.0
C493 C 0.18309 0.15704 0.97355 0.0
C494 C 0.20975 0.17791 0.9542 0.0
C495 C 0.258 0.18283 0.9507 0.0
C496 C 0.28651 0.21056 0.93378 0.0
C497 C 0.33249 0.21188 0.92956 0.0
C498 C 0.35172 0.18938 0.94247 0.0
C499 C 0.32594 0.16544 0.95984 0.0
C500 C 0.27979 0.1623 0.96404 0.0
H501 H 0.36443 0.31686 0.93155 0.0
C502 C 0.3517 0.31663 0.9156 0.0
H503 H 0.29284 0.27635 0.89191 0.0
H504 H 0.11457 0.16763 0.95416 0.0
H505 H 0.08251 0.20762 0.93137 0.0
H506 H 0.13581 0.26215 0.90403 0.0
H507 H 0.22098 0.27641 0.89912 0.0
C508 C 0.30544 0.27745 0.90794 0.0
C509 C 0.26937 0.23723 0.92166 0.0
C510 C 0.21962 0.22934 0.92423 0.0
C511 C 0.18949 0.19904 0.94034 0.0
C512 C 0.13966 0.19137 0.9425 0.0
C513 C 0.12066 0.21388 0.92946 0.0
C514 C 0.15062 0.2445 0.91406 0.0
C515 C 0.19956 0.25236 0.91141 0.0
H516 H 0.01904 0.14107 0.31225 0.0
C517 C 0.02776 0.15585 0.32817 0.0
H518 H 0.05468 0.22025 0.34815 0.0
H519 H 0.09143 0.2954 0.24988 0.0
H520 H 0.15133 0.26637 0.24881 0.0
H521 H 0.16582 0.22633 0.27873 0.0
H522 H 0.11952 0.2141 0.30974 0.0
C523 C 0.04673 0.20545 0.33225 0.0
C524 C 0.04621 0.23801 0.31576 0.0
C525 C 0.07565 0.24729 0.29821 0.0
C526 C 0.06931 0.27277 0.28138 0.0
C527 C 0.0964 0.27831 0.26346 0.0
C528 C 0.13068 0.2615 0.26258 0.0
C529 C 0.13868 0.23878 0.2794 0.0
C530 C 0.1116 0.23166 0.29704 0.0
H531 H 0.10577 0.37976 0.26727 0.0
C532 C 0.06682 0.36415 0.26019 0.0
H533 H 0.98928 0.30146 0.25822 0.0
H534 H 0.98449 0.22768 0.34739 0.0
H535 H 0.92915 0.26155 0.34932 0.0
H536 H 0.92257 0.31049 0.32109 0.0
H537 H 0.97091 0.32521 0.29063 0.0
C538 C 0.0283 0.31805 0.26532 0.0
C539 C 0.03567 0.29131 0.28266 0.0
C540 C 0.00812 0.28411 0.30061 0.0
C541 C 0.013 0.25706 0.31711 0.0
C542 C 0.9834 0.24887 0.33453 0.0
C543 C 0.95122 0.26801 0.33585 0.0
C544 C 0.94744 0.29547 0.31995 0.0
C545 C 0.97538 0.30351 0.30251 0.0
loop_
_geom_bond_atom_site_label_1
_geom_bond_atom_site_label_2
_geom_bond_distance
_geom_bond_site_symmetry_2
_ccdc_geom_bond_type
Mg0 O1 2.028 . S
Mg0 O7 1.986 . S
Mg0 O9 2.114 . S
Mg0 O10 2.251 . S
Mg0 O13 2.010 . S
O1 Mg0 2.028 . S
O1 C4 1.250 1_455 S
O2 Mg3 2.027 1_656 S
O2 C4 1.243 1_556 S
Mg3 O2 2.027 1_454 S
Mg3 O8 2.032 . S
Mg3 O10 2.079 . S
C4 O1 1.250 1_655 S
C4 O2 1.243 1_554 S
C5 O6 1.264 . S
C5 O13 1.249 1_565 S
O6 C5 1.264 . S
O7 Mg0 1.986 . S
O7 C11 1.246 . S
O8 Mg3 2.032 . S
O8 C11 1.259 . S
O9 Mg0 2.114 . S
O9 C12 1.252 . S
O10 Mg0 2.251 . S
O10 Mg3 2.079 . S
O10 C12 1.273 . S
C11 O7 1.246 . S
C11 O8 1.259 . S
C12 O9 1.252 . S
C12 O10 1.273 . S
O13 Mg0 2.010 . S
O13 C5 1.249 1_545 S
Mg14 O15 2.028 1_655 S
Mg14 O21 1.986 1_655 S
Mg14 O23 2.114 1_545 S
Mg14 O24 2.251 . S
Mg14 O27 2.010 1_545 S
O15 Mg14 2.028 1_455 S
O15 C18 1.250 . S
O16 Mg17 2.028 . S
O16 C18 1.248 . S
Mg17 O16 2.028 . S
Mg17 O22 2.032 . S
Mg17 O24 2.079 1_455 S
C18 O15 1.250 . S
C18 O16 1.248 . S
C19 O20 1.264 . S
C19 O27 1.249 . S
O20 C19 1.264 . S
O21 Mg14 1.986 1_455 S
O21 C25 1.246 . S
O22 Mg17 2.032 . S
O22 C25 1.259 . S
O23 Mg14 2.114 1_565 S
O23 C26 1.252 1_565 S
O24 Mg14 2.251 . S
O24 Mg17 2.079 1_655 S
O24 C26 1.273 . S
C25 O21 1.246 . S
C25 O22 1.259 . S
C26 O23 1.252 1_545 S
C26 O24 1.273 . S
O27 Mg14 2.010 1_565 S
O27 C19 1.249 . S
Mg28 O29 2.028 . S
Mg28 O35 1.986 1_455 S
Mg28 O37 2.114 1_545 S
Mg28 O38 2.251 1_445 S
Mg28 O41 2.010 1_545 S
O29 Mg28 2.028 . S
O29 C32 1.250 . S
O30 Mg31 2.028 1_455 S
O30 C32 1.248 . S
Mg31 O30 2.028 1_655 S
Mg31 O36 2.032 . S
Mg31 O38 2.079 1_545 S
C32 O29 1.250 . S
C32 O30 1.248 . S
C33 O34 1.264 . S
C33 O41 1.249 . S
O34 C33 1.264 . S
O35 Mg28 1.986 1_655 S
O35 C39 1.246 . S
O36 Mg31 2.032 . S
O36 C39 1.259 . S
O37 Mg28 2.114 1_565 S
O37 C40 1.252 1_455 S
O38 Mg28 2.251 1_665 S
O38 Mg31 2.079 1_565 S
O38 C40 1.273 . S
C39 O35 1.246 . S
C39 O36 1.259 . S
C40 O37 1.252 1_655 S
C40 O38 1.273 . S
O41 Mg28 2.010 1_565 S
O41 C33 1.249 . S
H42 C61 0.949 . S
H43 C62 0.950 . S
H44 C64 0.950 . S
H45 C65 0.950 . S
H46 C67 0.950 . S
H47 C70 0.950 . S
H48 C71 0.950 . S
H49 C73 0.951 . S
H50 C74 0.949 . S
H51 C76 0.949 . S
H52 C77 0.950 . S
H53 C79 0.950 . S
H54 C80 0.950 . S
H55 C82 0.950 . S
H56 C85 0.950 1_655 S
H57 C86 0.950 1_655 S
H58 C88 0.951 . S
H59 C89 0.949 . S
C60 C61 1.376 . S
C60 C65 1.386 1_455 S
C60 C66 1.483 . S
C61 H42 0.949 . S
C61 C60 1.376 . S
C61 C62 1.397 . S
C62 H43 0.950 . S
C62 C61 1.397 . S
C62 C63 1.391 . S
C63 C62 1.391 . S
C63 C64 1.405 1_455 S
C64 H44 0.950 . S
C64 C63 1.405 1_655 S
C64 C65 1.367 . S
C65 H45 0.950 . S
C65 C60 1.386 1_655 S
C65 C64 1.367 . S
C66 C60 1.483 . S
C66 C67 1.382 . S
C66 C68 1.403 . S
C67 H46 0.950 . S
C67 C66 1.382 . S
C67 C83 1.411 . S
C68 C66 1.403 . S
C68 C69 1.489 . S
C68 C82 1.411 . S
C69 C68 1.489 . S
C69 C70 1.383 . S
C69 C74 1.382 1_455 S
C70 H47 0.950 . S
C70 C69 1.383 . S
C70 C71 1.395 . S
C71 H48 0.950 . S
C71 C70 1.395 . S
C71 C72 1.288 . S
C72 C71 1.288 . S
C72 C73 1.392 1_455 S
C73 H49 0.951 . S
C73 C72 1.392 1_655 S
C73 C74 1.392 . S
C74 H50 0.949 . S
C74 C69 1.382 1_655 S
C74 C73 1.392 . S
C75 C76 1.376 1_455 S
C75 C80 1.386 . S
C75 C81 1.483 . S
C76 H51 0.949 . S
C76 C75 1.376 1_655 S
C76 C77 1.397 . S
C77 H52 0.950 . S
C77 C76 1.397 . S
C77 C78 1.391 1_655 S
C78 C77 1.391 1_455 S
C78 C79 1.405 . S
C79 H53 0.950 . S
C79 C78 1.405 . S
C79 C80 1.367 . S
C80 H54 0.950 . S
C80 C75 1.386 . S
C80 C79 1.367 . S
C81 C75 1.483 . S
C81 C82 1.382 . S
C81 C83 1.403 . S
C82 H55 0.950 . S
C82 C68 1.411 . S
C82 C81 1.382 . S
C83 C67 1.411 . S
C83 C81 1.403 . S
C83 C84 1.489 . S
C84 C83 1.489 . S
C84 C85 1.383 . S
C84 C89 1.382 . S
C85 H56 0.950 1_455 S
C85 C84 1.383 . S
C85 C86 1.395 . S
C86 H57 0.950 1_455 S
C86 C85 1.395 . S
C86 C87 1.288 . S
C87 C86 1.288 . S
C87 C88 1.392 . S
C88 H58 0.951 . S
C88 C87 1.392 . S
C88 C89 1.392 . S
C89 H59 0.949 . S
C89 C84 1.382 . S
C89 C88 1.392 . S
H90 C109 0.949 . S
H91 C110 0.950 . S
H92 C112 0.950 1_565 S
H93 C113 0.950 1_565 S
H94 C115 0.950 . S
H95 C118 0.950 . S
H96 C119 0.950 . S
H97 C121 0.951 1_565 S
H98 C122 0.949 1_565 S
H99 C124 0.949 1_565 S
H100 C125 0.950 1_565 S
H101 C127 0.950 . S
H102 C128 0.950 . S
H103 C130 0.950 . S
H104 C133 0.950 . S
H105 C134 0.950 . S
H106 C136 0.951 . S
H107 C137 0.949 . S
C108 C109 1.376 . S
C108 C113 1.386 . S
C108 C114 1.483 . S
C109 H90 0.949 . S
C109 C108 1.376 . S
C109 C110 1.397 . S
C110 H91 0.950 . S
C110 C109 1.397 . S
C110 C111 1.391 . S
C111 C110 1.391 . S
C111 C112 1.405 . S
C112 H92 0.950 1_545 S
C112 C111 1.405 . S
C112 C113 1.367 . S
C113 H93 0.950 1_545 S
C113 C108 1.386 . S
C113 C112 1.367 . S
C114 C108 1.483 . S
C114 C115 1.382 . S
C114 C116 1.403 . S
C115 H94 0.950 . S
C115 C114 1.382 . S
C115 C131 1.411 . S
C116 C114 1.403 . S
C116 C117 1.489 . S
C116 C130 1.411 . S
C117 C116 1.489 . S
C117 C118 1.383 . S
C117 C122 1.382 . S
C118 H95 0.950 . S
C118 C117 1.383 . S
C118 C119 1.395 . S
C119 H96 0.950 . S
C119 C118 1.395 . S
C119 C120 1.288 . S
C120 C119 1.288 . S
C120 C121 1.392 . S
C121 H97 0.951 1_545 S
C121 C120 1.392 . S
C121 C122 1.392 . S
C122 H98 0.949 1_545 S
C122 C117 1.382 . S
C122 C121 1.392 . S
C123 C124 1.376 . S
C123 C128 1.386 . S
C123 C129 1.483 . S
C124 H99 0.949 1_545 S
C124 C123 1.376 . S
C124 C125 1.397 . S
C125 H100 0.950 1_545 S
C125 C124 1.397 . S
C125 C126 1.391 . S
C126 C125 1.391 . S
C126 C127 1.405 . S
C127 H101 0.950 . S
C127 C126 1.405 . S
C127 C128 1.367 . S
C128 H102 0.950 . S
C128 C123 1.386 . S
C128 C127 1.367 . S
C129 C123 1.483 . S
C129 C130 1.382 . S
C129 C131 1.403 . S
C130 H103 0.950 . S
C130 C116 1.411 . S
C130 C129 1.382 . S
C131 C115 1.411 . S
C131 C129 1.403 . S
C131 C132 1.489 . S
C132 C131 1.489 . S
C132 C133 1.383 . S
C132 C137 1.382 . S
C133 H104 0.950 . S
C133 C132 1.383 . S
C133 C134 1.395 . S
C134 H105 0.950 . S
C134 C133 1.395 . S
C134 C135 1.288 . S
C135 C134 1.288 . S
C135 C136 1.392 . S
C136 H106 0.951 . S
C136 C135 1.392 . S
C136 C137 1.392 . S
C137 H107 0.949 . S
C137 C132 1.382 . S
C137 C136 1.392 . S
H138 C157 0.949 . S
H139 C158 0.950 . S
H140 C160 0.950 . S
H141 C161 0.950 . S
H142 C163 0.950 . S
H143 C166 0.950 . S
H144 C167 0.950 . S
H145 C169 0.951 . S
H146 C170 0.949 . S
H147 C172 0.949 . S
H148 C173 0.950 . S
H149 C175 0.950 . S
H150 C176 0.950 . S
H151 C178 0.950 . S
H152 C181 0.950 . S
H153 C182 0.950 . S
H154 C184 0.951 . S
H155 C185 0.949 . S
C156 C157 1.376 . S
C156 C161 1.386 . S
C156 C162 1.483 . S
C157 H138 0.949 . S
C157 C156 1.376 . S
C157 C158 1.397 . S
C158 H139 0.950 . S
C158 C157 1.397 . S
C158 C159 1.391 . S
C159 C158 1.391 . S
C159 C160 1.405 . S
C160 H140 0.950 . S
C160 C159 1.405 . S
C160 C161 1.367 . S
C161 H141 0.950 . S
C161 C156 1.386 . S
C161 C160 1.367 . S
C162 C156 1.483 . S
C162 C163 1.382 . S
C162 C164 1.403 . S
C163 H142 0.950 . S
C163 C162 1.382 . S
C163 C179 1.411 . S
C164 C162 1.403 . S
C164 C165 1.489 . S
C164 C178 1.411 . S
C165 C164 1.489 . S
C165 C166 1.383 . S
C165 C170 1.382 . S
C166 H143 0.950 . S
C166 C165 1.383 . S
C166 C167 1.395 . S
C167 H144 0.950 . S
C167 C166 1.395 . S
C167 C168 1.288 . S
C168 C167 1.288 . S
C168 C169 1.392 . S
C169 H145 0.951 . S
C169 C168 1.392 . S
C169 C170 1.392 . S
C170 H146 0.949 . S
C170 C165 1.382 . S
C170 C169 1.392 . S
C171 C172 1.376 . S
C171 C176 1.386 . S
C171 C177 1.483 . S
C172 H147 0.949 . S
C172 C171 1.376 . S
C172 C173 1.397 . S
C173 H148 0.950 . S
C173 C172 1.397 . S
C173 C174 1.391 . S
C174 C173 1.391 . S
C174 C175 1.405 . S
C175 H149 0.950 . S
C175 C174 1.405 . S
C175 C176 1.367 . S
C176 H150 0.950 . S
C176 C171 1.386 . S
C176 C175 1.367 . S
C177 C171 1.483 . S
C177 C178 1.382 . S
C177 C179 1.403 . S
C178 H151 0.950 . S
C178 C164 1.411 . S
C178 C177 1.382 . S
C179 C163 1.411 . S
C179 C177 1.403 . S
C179 C180 1.489 . S
C180 C179 1.489 . S
C180 C181 1.383 . S
C180 C185 1.382 . S
C181 H152 0.950 . S
C181 C180 1.383 . S
C181 C182 1.395 . S
C182 H153 0.950 . S
C182 C181 1.395 . S
C182 C183 1.288 . S
C183 C182 1.288 . S
C183 C184 1.392 . S
C184 H154 0.951 . S
C184 C183 1.392 . S
C184 C185 1.392 . S
C185 H155 0.949 . S
C185 C180 1.382 . S
C185 C184 1.392 . S
H186 C187 0.951 1_655 S
C187 H186 0.951 1_455 S
C187 C193 1.265 . S
H188 C193 0.950 . S
H189 C197 0.949 . S
H190 C198 0.950 . S
H191 C199 0.951 . S
H192 C200 0.951 . S
C193 C187 1.265 . S
C193 H188 0.950 . S
C193 C194 1.478 . S
C194 C193 1.478 . S
C194 C195 1.397 . S
C194 C211 1.394 . S
C195 C194 1.397 . S
C195 C196 1.438 . S
C195 C200 1.429 . S
C196 C195 1.438 . S
C196 C197 1.428 . S
C196 C209 1.394 . S
C197 H189 0.949 . S
C197 C196 1.428 . S
C197 C198 1.345 . S
C198 H190 0.950 . S
C198 C197 1.345 . S
C198 C199 1.424 . S
C199 H191 0.951 . S
C199 C198 1.424 . S
C199 C200 1.347 . S
C200 H192 0.951 . S
C200 C195 1.429 . S
C200 C199 1.347 . S
H201 C202 0.951 . S
C202 H201 0.951 . S
C202 C208 1.265 . S
H203 C208 0.950 1_655 S
H204 C212 0.949 . S
H205 C213 0.950 . S
H206 C214 0.951 . S
H207 C215 0.951 . S
C208 C202 1.265 . S
C208 H203 0.950 1_455 S
C208 C209 1.478 . S
C209 C196 1.394 . S
C209 C208 1.478 . S
C209 C210 1.397 1_455 S
C210 C209 1.397 1_655 S
C210 C211 1.438 1_655 S
C210 C215 1.429 . S
C211 C194 1.394 . S
C211 C210 1.438 1_455 S
C211 C212 1.428 1_455 S
C212 H204 0.949 . S
C212 C211 1.428 1_655 S
C212 C213 1.345 . S
C213 H205 0.950 . S
C213 C212 1.345 . S
C213 C214 1.424 . S
C214 H206 0.951 . S
C214 C213 1.424 . S
C214 C215 1.347 . S
C215 H207 0.951 . S
C215 C210 1.429 . S
C215 C214 1.347 . S
H216 C217 0.951 . S
C217 H216 0.951 . S
C217 C223 1.265 . S
H218 C223 0.950 . S
H219 C227 0.949 . S
H220 C228 0.950 . S
H221 C229 0.951 . S
H222 C230 0.951 . S
C223 C217 1.265 . S
C223 H218 0.950 . S
C223 C224 1.478 . S
C224 C223 1.478 . S
C224 C225 1.397 1_545 S
C224 C241 1.394 . S
C225 C224 1.397 1_565 S
C225 C226 1.438 . S
C225 C230 1.429 . S
C226 C225 1.438 . S
C226 C227 1.428 . S
C226 C239 1.394 1_565 S
C227 H219 0.949 . S
C227 C226 1.428 . S
C227 C228 1.345 . S
C228 H220 0.950 . S
C228 C227 1.345 . S
C228 C229 1.424 . S
C229 H221 0.951 . S
C229 C228 1.424 . S
C229 C230 1.347 . S
C230 H222 0.951 . S
C230 C225 1.429 . S
C230 C229 1.347 . S
H231 C232 0.951 . S
C232 H231 0.951 . S
C232 C238 1.265 . S
H233 C238 0.950 . S
H234 C242 0.949 . S
H235 C243 0.950 . S
H236 C244 0.951 . S
H237 C245 0.951 . S
C238 C232 1.265 . S
C238 H233 0.950 . S
C238 C239 1.478 . S
C239 C226 1.394 1_545 S
C239 C238 1.478 . S
C239 C240 1.397 . S
C240 C239 1.397 . S
C240 C241 1.438 . S
C240 C245 1.429 . S
C241 C224 1.394 . S
C241 C240 1.438 . S
C241 C242 1.428 . S
C242 H234 0.949 . S
C242 C241 1.428 . S
C242 C243 1.345 . S
C243 H235 0.950 . S
C243 C242 1.345 . S
C243 C244 1.424 . S
C244 H236 0.951 . S
C244 C243 1.424 . S
C244 C245 1.347 . S
C245 H237 0.951 . S
C245 C240 1.429 . S
C245 C244 1.347 . S
H246 C247 0.951 . S
C247 H246 0.951 . S
C247 C253 1.265 . S
H248 C253 0.950 . S
H249 C257 0.949 . S
H250 C258 0.950 . S
H251 C259 0.951 . S
H252 C260 0.951 . S
C253 C247 1.265 . S
C253 H248 0.950 . S
C253 C254 1.478 . S
C254 C253 1.478 . S
C254 C255 1.397 . S
C254 C271 1.394 . S
C255 C254 1.397 . S
C255 C256 1.438 . S
C255 C260 1.429 . S
C256 C255 1.438 . S
C256 C257 1.428 . S
C256 C269 1.394 . S
C257 H249 0.949 . S
C257 C256 1.428 . S
C257 C258 1.345 . S
C258 H250 0.950 . S
C258 C257 1.345 . S
C258 C259 1.424 . S
C259 H251 0.951 . S
C259 C258 1.424 . S
C259 C260 1.347 . S
C260 H252 0.951 . S
C260 C255 1.429 . S
C260 C259 1.347 . S
H261 C262 0.951 . S
C262 H261 0.951 . S
C262 C268 1.265 . S
H263 C268 0.950 . S
H264 C272 0.949 . S
H265 C273 0.950 . S
H266 C274 0.951 . S
H267 C275 0.951 . S
C268 C262 1.265 . S
C268 H263 0.950 . S
C268 C269 1.478 . S
C269 C256 1.394 . S
C269 C268 1.478 . S
C269 C270 1.397 . S
C270 C269 1.397 . S
C270 C271 1.438 . S
C270 C275 1.429 . S
C271 C254 1.394 . S
C271 C270 1.438 . S
C271 C272 1.428 . S
C272 H264 0.949 . S
C272 C271 1.428 . S
C272 C273 1.345 . S
C273 H265 0.950 . S
C273 C272 1.345 . S
C273 C274 1.424 . S
C274 H266 0.951 . S
C274 C273 1.424 . S
C274 C275 1.347 . S
C275 H267 0.951 . S
C275 C270 1.429 . S
C275 C274 1.347 . S
H276 C277 0.951 . S
C277 H276 0.951 . S
C277 C283 1.265 . S
H278 C283 0.950 . S
H279 C287 0.949 . S
H280 C288 0.950 . S
H281 C289 0.951 . S
H282 C290 0.951 . S
C283 C277 1.265 . S
C283 H278 0.950 . S
C283 C284 1.478 . S
C284 C283 1.478 . S
C284 C285 1.397 . S
C284 C301 1.394 . S
C285 C284 1.397 . S
C285 C286 1.438 . S
C285 C290 1.429 . S
C286 C285 1.438 . S
C286 C287 1.428 . S
C286 C299 1.394 . S
C287 H279 0.949 . S
C287 C286 1.428 . S
C287 C288 1.345 . S
C288 H280 0.950 . S
C288 C287 1.345 . S
C288 C289 1.424 . S
C289 H281 0.951 . S
C289 C288 1.424 . S
C289 C290 1.347 . S
C290 H282 0.951 . S
C290 C285 1.429 . S
C290 C289 1.347 . S
H291 C292 0.951 . S
C292 H291 0.951 . S
C292 C298 1.265 . S
H293 C298 0.950 1_655 S
H294 C302 0.949 . S
H295 C303 0.949 . S
H296 C304 0.951 . S
H297 C305 0.951 . S
C298 C292 1.265 . S
C298 H293 0.950 1_455 S
C298 C299 1.478 . S
C299 C286 1.394 . S
C299 C298 1.478 . S
C299 C300 1.397 . S
C300 C299 1.397 . S
C300 C301 1.438 . S
C300 C305 1.429 1_455 S
C301 C284 1.394 . S
C301 C300 1.438 . S
C301 C302 1.428 . S
C302 H294 0.949 . S
C302 C301 1.428 . S
C302 C303 1.345 1_455 S
C303 H295 0.949 . S
C303 C302 1.345 1_655 S
C303 C304 1.424 . S
C304 H296 0.951 . S
C304 C303 1.424 . S
C304 C305 1.347 . S
C305 H297 0.951 . S
C305 C300 1.429 1_655 S
C305 C304 1.347 . S
H306 C307 0.951 . S
C307 H306 0.951 . S
C307 C313 1.265 . S
H308 C313 0.950 . S
H309 C317 0.949 . S
H310 C318 0.950 . S
H311 C319 0.951 . S
H312 C320 0.951 . S
C313 C307 1.265 . S
C313 H308 0.950 . S
C313 C314 1.478 . S
C314 C313 1.478 . S
C314 C315 1.397 . S
C314 C331 1.394 . S
C315 C314 1.397 . S
C315 C316 1.438 . S
C315 C320 1.429 1_545 S
C316 C315 1.438 . S
C316 C317 1.428 1_545 S
C316 C329 1.394 . S
C317 H309 0.949 . S
C317 C316 1.428 1_565 S
C317 C318 1.345 . S
C318 H310 0.950 . S
C318 C317 1.345 . S
C318 C319 1.424 . S
C319 H311 0.951 . S
C319 C318 1.424 . S
C319 C320 1.347 . S
C320 H312 0.951 . S
C320 C315 1.429 1_565 S
C320 C319 1.347 . S
H321 C322 0.951 . S
C322 H321 0.951 . S
C322 C328 1.265 . S
H323 C328 0.950 . S
H324 C332 0.949 . S
H325 C333 0.950 . S
H326 C334 0.951 . S
H327 C335 0.951 . S
C328 C322 1.265 . S
C328 H323 0.950 . S
C328 C329 1.478 . S
C329 C316 1.394 . S
C329 C328 1.478 . S
C329 C330 1.397 . S
C330 C329 1.397 . S
C330 C331 1.438 . S
C330 C335 1.429 . S
C331 C314 1.394 . S
C331 C330 1.438 . S
C331 C332 1.428 . S
C332 H324 0.949 . S
C332 C331 1.428 . S
C332 C333 1.345 . S
C333 H325 0.950 . S
C333 C332 1.345 . S
C333 C334 1.424 . S
C334 H326 0.951 . S
C334 C333 1.424 . S
C334 C335 1.347 . S
C335 H327 0.951 . S
C335 C330 1.429 . S
C335 C334 1.347 . S
H336 C337 0.951 . S
C337 H336 0.951 . S
C337 C343 1.265 . S
H338 C343 0.950 . S
H339 C347 0.949 . S
H340 C348 0.950 . S
H341 C349 0.951 . S
H342 C350 0.951 . S
C343 C337 1.265 . S
C343 H338 0.950 . S
C343 C344 1.478 . S
C344 C343 1.478 . S
C344 C345 1.397 . S
C344 C361 1.394 . S
C345 C344 1.397 . S
C345 C346 1.438 . S
C345 C350 1.429 . S
C346 C345 1.438 . S
C346 C347 1.428 . S
C346 C359 1.394 . S
C347 H339 0.949 . S
C347 C346 1.428 . S
C347 C348 1.345 . S
C348 H340 0.950 . S
C348 C347 1.345 . S
C348 C349 1.424 . S
C349 H341 0.951 . S
C349 C348 1.424 . S
C349 C350 1.347 . S
C350 H342 0.951 . S
C350 C345 1.429 . S
C350 C349 1.347 . S
H351 C352 0.951 . S
C352 H351 0.951 . S
C352 C358 1.265 . S
H353 C358 0.950 . S
H354 C362 0.949 . S
H355 C363 0.950 . S
H356 C364 0.951 . S
H357 C365 0.951 . S
C358 C352 1.265 . S
C358 H353 0.950 . S
C358 C359 1.478 . S
C359 C346 1.394 . S
C359 C358 1.478 . S
C359 C360 1.397 . S
C360 C359 1.397 . S
C360 C361 1.438 . S
C360 C365 1.429 . S
C361 C344 1.394 . S
C361 C360 1.438 . S
C361 C362 1.428 . S
C362 H354 0.949 . S
C362 C361 1.428 . S
C362 C363 1.345 . S
C363 H355 0.950 . S
C363 C362 1.345 . S
C363 C364 1.424 . S
C364 H356 0.951 . S
C364 C363 1.424 . S
C364 C365 1.347 . S
C365 H357 0.951 . S
C365 C360 1.429 . S
C365 C364 1.347 . S
H366 C367 0.951 . S
C367 H366 0.951 . S
C367 C373 1.265 . S
H368 C373 0.950 . S
H369 C377 0.949 . S
H370 C378 0.950 . S
H371 C379 0.951 . S
H372 C380 0.951 . S
C373 C367 1.265 . S
C373 H368 0.950 . S
C373 C374 1.478 . S
C374 C373 1.478 . S
C374 C375 1.397 . S
C374 C391 1.394 . S
C375 C374 1.397 . S
C375 C376 1.438 . S
C375 C380 1.429 1_545 S
C376 C375 1.438 . S
C376 C377 1.428 1_545 S
C376 C389 1.394 . S
C377 H369 0.949 . S
C377 C376 1.428 1_565 S
C377 C378 1.345 . S
C378 H370 0.950 . S
C378 C377 1.345 . S
C378 C379 1.424 . S
C379 H371 0.951 . S
C379 C378 1.424 . S
C379 C380 1.347 . S
C380 H372 0.951 . S
C380 C375 1.429 1_565 S
C380 C379 1.347 . S
H381 C382 0.951 . S
C382 H381 0.951 . S
C382 C388 1.265 . S
H383 C388 0.950 . S
H384 C392 0.949 . S
H385 C393 0.950 . S
H386 C394 0.951 . S
H387 C395 0.951 . S
C388 C382 1.265 . S
C388 H383 0.950 . S
C388 C389 1.478 . S
C389 C376 1.394 . S
C389 C388 1.478 . S
C389 C390 1.397 . S
C390 C389 1.397 . S
C390 C391 1.438 . S
C390 C395 1.429 . S
C391 C374 1.394 . S
C391 C390 1.438 . S
C391 C392 1.428 . S
C392 H384 0.949 . S
C392 C391 1.428 . S
C392 C393 1.345 . S
C393 H385 0.950 . S
C393 C392 1.345 . S
C393 C394 1.424 . S
C394 H386 0.951 . S
C394 C393 1.424 . S
C394 C395 1.347 . S
C395 H387 0.951 . S
C395 C390 1.429 . S
C395 C394 1.347 . S
H396 C397 0.921 1_554 S
C397 H396 0.921 1_556 S
C397 C403 1.309 . S
H398 C403 0.950 . S
H399 C407 0.949 . S
H400 C408 0.950 . S
H401 C409 0.951 . S
H402 C410 0.951 . S
C403 C397 1.309 . S
C403 H398 0.950 . S
C403 C404 1.478 . S
C404 C403 1.478 . S
C404 C405 1.397 . S
C404 C421 1.394 . S
C405 C404 1.397 . S
C405 C406 1.438 . S
C405 C410 1.429 . S
C406 C405 1.438 . S
C406 C407 1.428 . S
C406 C419 1.394 . S
C407 H399 0.949 . S
C407 C406 1.428 . S
C407 C408 1.345 . S
C408 H400 0.950 . S
C408 C407 1.345 . S
C408 C409 1.424 . S
C409 H401 0.951 . S
C409 C408 1.424 . S
C409 C410 1.347 . S
C410 H402 0.951 . S
C410 C405 1.429 . S
C410 C409 1.347 . S
H411 C412 0.951 . S
C412 H411 0.951 . S
C412 C418 1.265 . S
H413 C418 0.950 . S
H414 C422 0.949 . S
H415 C423 0.950 . S
H416 C424 0.951 . S
H417 C425 0.951 . S
C418 C412 1.265 . S
C418 H413 0.950 . S
C418 C419 1.478 . S
C419 C406 1.394 . S
C419 C418 1.478 . S
C419 C420 1.397 . S
C420 C419 1.397 . S
C420 C421 1.438 . S
C420 C425 1.429 . S
C421 C404 1.394 . S
C421 C420 1.438 . S
C421 C422 1.428 . S
C422 H414 0.949 . S
C422 C421 1.428 . S
C422 C423 1.345 . S
C423 H415 0.950 . S
C423 C422 1.345 . S
C423 C424 1.424 . S
C424 H416 0.951 . S
C424 C423 1.424 . S
C424 C425 1.347 . S
C425 H417 0.951 . S
C425 C420 1.429 . S
C425 C424 1.347 . S
H426 C427 0.951 1_455 S
C427 H426 0.951 1_655 S
C427 C433 1.265 . S
H428 C433 0.950 . S
H429 C437 0.949 . S
H430 C438 0.950 . S
H431 C439 0.951 . S
H432 C440 0.951 . S
C433 C427 1.265 . S
C433 H428 0.950 . S
C433 C434 1.478 . S
C434 C433 1.478 . S
C434 C435 1.397 . S
C434 C451 1.394 1_655 S
C435 C434 1.397 . S
C435 C436 1.438 . S
C435 C440 1.429 . S
C436 C435 1.438 . S
C436 C437 1.428 . S
C436 C449 1.394 1_655 S
C437 H429 0.949 . S
C437 C436 1.428 . S
C437 C438 1.345 . S
C438 H430 0.950 . S
C438 C437 1.345 . S
C438 C439 1.424 . S
C439 H431 0.951 . S
C439 C438 1.424 . S
C439 C440 1.347 . S
C440 H432 0.951 . S
C440 C435 1.429 . S
C440 C439 1.347 . S
H441 C442 0.951 1_655 S
C442 H441 0.951 1_455 S
C442 C448 1.265 . S
H443 C448 0.950 . S
H444 C452 0.949 . S
H445 C453 0.950 . S
H446 C454 0.951 . S
H447 C455 0.951 . S
C448 C442 1.265 . S
C448 H443 0.950 . S
C448 C449 1.478 . S
C449 C436 1.394 1_455 S
C449 C448 1.478 . S
C449 C450 1.397 . S
C450 C449 1.397 . S
C450 C451 1.438 . S
C450 C455 1.429 . S
C451 C434 1.394 1_455 S
C451 C450 1.438 . S
C451 C452 1.428 . S
C452 H444 0.949 . S
C452 C451 1.428 . S
C452 C453 1.345 . S
C453 H445 0.950 . S
C453 C452 1.345 . S
C453 C454 1.424 . S
C454 H446 0.951 . S
C454 C453 1.424 . S
C454 C455 1.347 . S
C455 H447 0.951 . S
C455 C450 1.429 . S
C455 C454 1.347 . S
H456 C457 0.951 . S
C457 H456 0.951 . S
C457 C463 1.265 1_545 S
H458 C463 0.950 . S
H459 C467 0.949 . S
H460 C468 0.950 . S
H461 C469 0.951 . S
H462 C470 0.951 . S
C463 C457 1.265 1_565 S
C463 H458 0.950 . S
C463 C464 1.478 1_565 S
C464 C463 1.478 1_545 S
C464 C465 1.397 . S
C464 C481 1.394 . S
C465 C464 1.397 . S
C465 C466 1.438 . S
C465 C470 1.429 1_545 S
C466 C465 1.438 . S
C466 C467 1.428 . S
C466 C479 1.394 . S
C467 H459 0.949 . S
C467 C466 1.428 . S
C467 C468 1.345 1_545 S
C468 H460 0.950 . S
C468 C467 1.345 1_565 S
C468 C469 1.424 . S
C469 H461 0.951 . S
C469 C468 1.424 . S
C469 C470 1.347 . S
C470 H462 0.951 . S
C470 C465 1.429 1_565 S
C470 C469 1.347 . S
H471 C472 0.951 . S
C472 H471 0.951 . S
C472 C478 1.265 . S
H473 C478 0.950 . S
H474 C482 0.949 . S
H475 C483 0.950 . S
H476 C484 0.951 . S
H477 C485 0.951 . S
C478 C472 1.265 . S
C478 H473 0.950 . S
C478 C479 1.478 . S
C479 C466 1.394 . S
C479 C478 1.478 . S
C479 C480 1.397 . S
C480 C479 1.397 . S
C480 C481 1.438 . S
C480 C485 1.429 . S
C481 C464 1.394 . S
C481 C480 1.438 . S
C481 C482 1.428 . S
C482 H474 0.949 . S
C482 C481 1.428 . S
C482 C483 1.345 . S
C483 H475 0.950 . S
C483 C482 1.345 . S
C483 C484 1.424 . S
C484 H476 0.951 . S
C484 C483 1.424 . S
C484 C485 1.347 . S
C485 H477 0.951 . S
C485 C480 1.429 . S
C485 C484 1.347 . S
H486 C487 0.951 . S
C487 H486 0.951 . S
C487 C493 1.265 . S
H488 C493 0.950 . S
H489 C497 0.949 . S
H490 C498 0.950 . S
H491 C499 0.951 . S
H492 C500 0.951 . S
C493 C487 1.265 . S
C493 H488 0.950 . S
C493 C494 1.478 . S
C494 C493 1.478 . S
C494 C495 1.397 . S
C494 C511 1.394 . S
C495 C494 1.397 . S
C495 C496 1.438 . S
C495 C500 1.429 . S
C496 C495 1.438 . S
C496 C497 1.428 . S
C496 C509 1.394 . S
C497 H489 0.949 . S
C497 C496 1.428 . S
C497 C498 1.345 . S
C498 H490 0.950 . S
C498 C497 1.345 . S
C498 C499 1.424 . S
C499 H491 0.951 . S
C499 C498 1.424 . S
C499 C500 1.347 . S
C500 H492 0.951 . S
C500 C495 1.429 . S
C500 C499 1.347 . S
H501 C502 0.951 . S
C502 H501 0.951 . S
C502 C508 1.265 . S
H503 C508 0.950 . S
H504 C512 0.949 . S
H505 C513 0.950 . S
H506 C514 0.951 . S
H507 C515 0.951 . S
C508 C502 1.265 . S
C508 H503 0.950 . S
C508 C509 1.478 . S
C509 C496 1.394 . S
C509 C508 1.478 . S
C509 C510 1.397 . S
C510 C509 1.397 . S
C510 C511 1.438 . S
C510 C515 1.429 . S
C511 C494 1.394 . S
C511 C510 1.438 . S
C511 C512 1.428 . S
C512 H504 0.949 . S
C512 C511 1.428 . S
C512 C513 1.345 . S
C513 H505 0.950 . S
C513 C512 1.345 . S
C513 C514 1.424 . S
C514 H506 0.951 . S
C514 C513 1.424 . S
C514 C515 1.347 . S
C515 H507 0.951 . S
C515 C510 1.429 . S
C515 C514 1.347 . S
H516 C517 0.951 1_655 S
C517 H516 0.951 1_455 S
C517 C523 1.265 . S
H518 C523 0.950 . S
H519 C527 0.949 . S
H520 C528 0.950 . S
H521 C529 0.951 . S
H522 C530 0.951 . S
C523 C517 1.265 . S
C523 H518 0.950 . S
C523 C524 1.478 . S
C524 C523 1.478 . S
C524 C525 1.397 . S
C524 C541 1.394 . S
C525 C524 1.397 . S
C525 C526 1.438 . S
C525 C530 1.429 . S
C526 C525 1.438 . S
C526 C527 1.428 . S
C526 C539 1.394 . S
C527 H519 0.949 . S
C527 C526 1.428 . S
C527 C528 1.345 . S
C528 H520 0.950 . S
C528 C527 1.345 . S
C528 C529 1.424 . S
C529 H521 0.951 . S
C529 C528 1.424 . S
C529 C530 1.347 . S
C530 H522 0.951 . S
C530 C525 1.429 . S
C530 C529 1.347 . S
H531 C532 0.951 . S
C532 H531 0.951 . S
C532 C538 1.265 . S
H533 C538 0.950 1_655 S
H534 C542 0.949 . S
H535 C543 0.950 . S
H536 C544 0.951 . S
H537 C545 0.951 . S
C538 C532 1.265 . S
C538 H533 0.950 1_455 S
C538 C539 1.478 . S
C539 C526 1.394 . S
C539 C538 1.478 . S
C539 C540 1.397 . S
C540 C539 1.397 . S
C540 C541 1.438 . S
C540 C545 1.429 1_455 S
C541 C524 1.394 . S
C541 C540 1.438 . S
C541 C542 1.428 . S
C542 H534 0.949 . S
C542 C541 1.428 . S
C542 C543 1.345 1_455 S
C543 H535 0.950 . S
C543 C542 1.345 1_655 S
C543 C544 1.424 . S
C544 H536 0.951 . S
C544 C543 1.424 . S
C544 C545 1.347 . S
C545 H537 0.951 . S
C545 C540 1.429 1_655 S
C545 C544 1.347 . S
C202 C63 1.384 . S
C187 C11 1.370 . S
C217 C26 1.538 . S
C232 C111 1.554 . S
C247 C40 1.437 . S
C262 C183 1.431 . S
C277 C5 1.291 . S
C292 C87 1.348 . S
C322 C135 1.533 . S
C307 C18 1.537 . S
C337 C32 1.408 . S
C352 C159 1.410 . S
C382 C120 1.269 . S
C367 C39 1.220 . S
C397 C4 1.412 1_566 S
C412 C174 1.412 . S
C442 C78 1.381 . S
C427 C19 1.255 . S
C472 C126 1.277 . S
C457 C33 1.222 1_545 S
C502 C168 1.432 . S
C487 C12 1.408 1_556 S
C517 C25 1.343 . S
C532 C72 1.397 . S
