# Generated by pormake.
# Topology pts, (4,4)-cn, num edge types: 1
# Building blocks:
#     Node 0, Type 0, BuildingBlock: MIFKUJ_clean_linker_1, # of connection points: 4
#     Node 1, Type 0, BuildingBlock: MIFKUJ_clean_linker_1, # of connection points: 4
#     Node 2, Type 1, BuildingBlock: UXUYUI_clean_sbu_0, # of connection points: 4
#     Node 3, Type 1, BuildingBlock: UXUYUI_clean_sbu_0, # of connection points: 4
#     Edge 4, Type (0, 1), BuildingBlock: FUNLAD_clean_linker_0, # of connection points: 2
#     Edge 5, Type (0, 1), BuildingBlock: FUNLAD_clean_linker_0, # of connection points: 2
#     Edge 6, Type (0, 1), BuildingBlock: FUNLAD_clean_linker_0, # of connection points: 2
#     Edge 7, Type (0, 1), BuildingBlock: FUNLAD_clean_linker_0, # of connection points: 2
#     Edge 8, Type (0, 1), BuildingBlock: FUNLAD_clean_linker_0, # of connection points: 2
#     Edge 9, Type (0, 1), BuildingBlock: FUNLAD_clean_linker_0, # of connection points: 2
#     Edge 10, Type (0, 1), BuildingBlock: FUNLAD_clean_linker_0, # of connection points: 2
#     Edge 11, Type (0, 1), BuildingBlock: FUNLAD_clean_linker_0, # of connection points: 2
# Relax obj value: 0.001
# Max RMSD: 0.016
# Mean RMSD: 0.014
data_MOF--net-pts--node1-UXUYUI_clean_sbu_0--node2-MIFKUJ_clean_linker_1--edge1-FUNLAD_clean_linker_0
_symmetry_space_group_name_H-M    P1
_symmetry_Int_Tables_number       1
_symmetry_cell_setting            triclinic
loop_
_symmetry_equiv_pos_as_xyz
'x, y, z'
_cell_length_a     40.171716
_cell_length_b     40.141354
_cell_length_c     55.099718
_cell_angle_alpha  90.031978
_cell_angle_beta   90.037057
_cell_angle_gamma 89.992759
loop_
_atom_site_label
_atom_site_type_symbol
_atom_site_fract_x
_atom_site_fract_y
_atom_site_fract_z
_atom_type_partial_charge
H0 H 0.55546 0.9582 0.04903 0.0
H1 H 0.60518 0.95612 0.07449 0.0
H2 H 0.63894 0.04894 0.04326 0.0
H3 H 0.58931 0.0505 0.01753 0.0
H4 H 0.50653 0.00467 0.04797 0.0
H5 H 0.58708 0.95997 0.99198 0.0
H6 H 0.63845 0.95765 0.96822 0.0
H7 H 0.61226 0.05068 0.93368 0.0
H8 H 0.56146 0.05331 0.95801 0.0
H9 H 0.45972 0.05301 0.95421 0.0
H10 H 0.41028 0.05082 0.92838 0.0
H11 H 0.37741 0.96231 0.96603 0.0
H12 H 0.42753 0.96389 0.9911 0.0
H13 H 0.5096 0.01073 0.95811 0.0
H14 H 0.42899 0.05559 0.01284 0.0
H15 H 0.3772 0.05865 0.03603 0.0
H16 H 0.40323 0.96734 0.07298 0.0
H17 H 0.45451 0.96394 0.04923 0.0
C18 C 0.56877 0.00438 0.03129 0.0
C19 C 0.57362 0.97807 0.04765 0.0
C20 C 0.602 0.97701 0.06228 0.0
C21 C 0.62603 0.00245 0.06101 0.0
C22 C 0.62118 0.02872 0.04447 0.0
C23 C 0.59279 0.0297 0.02978 0.0
C24 C 0.53804 0.00575 0.01638 0.0
C25 C 0.50717 0.00558 0.0283 0.0
C26 C 0.53893 0.00803 0.99077 0.0
C27 C 0.5706 0.00699 0.97695 0.0
C28 C 0.59265 0.98009 0.97954 0.0
C29 C 0.62183 0.97863 0.96577 0.0
C30 C 0.62944 0.00399 0.94906 0.0
C31 C 0.60737 0.03098 0.94662 0.0
C32 C 0.5782 0.0324 0.96037 0.0
C33 C 0.44722 0.00881 0.97475 0.0
C34 C 0.44184 0.03314 0.95688 0.0
C35 C 0.41342 0.03201 0.94227 0.0
C36 C 0.38981 0.00643 0.94516 0.0
C37 C 0.39523 0.98215 0.96314 0.0
C38 C 0.4237 0.98325 0.9777 0.0
C39 C 0.47801 0.0094 0.98967 0.0
C40 C 0.50891 0.00998 0.97778 0.0
C41 C 0.47716 0.0077 0.01533 0.0
C42 C 0.44549 0.00937 0.02914 0.0
C43 C 0.42336 0.03604 0.02574 0.0
C44 C 0.39392 0.03793 0.03918 0.0
C45 C 0.3861 0.01324 0.05636 0.0
C46 C 0.40831 0.98653 0.05969 0.0
C47 C 0.43776 0.98469 0.04627 0.0
H48 H 0.04941 0.46018 0.45354 0.0
H49 H 0.04677 0.41005 0.42849 0.0
H50 H 0.96027 0.37716 0.4685 0.0
H51 H 0.96213 0.42811 0.49268 0.0
H52 H 0.00782 0.51021 0.45835 0.0
H53 H 0.05409 0.42878 0.51253 0.0
H54 H 0.05649 0.37676 0.53558 0.0
H55 H 0.96685 0.40481 0.5738 0.0
H56 H 0.96414 0.45637 0.55025 0.0
H57 H 0.96503 0.55791 0.55247 0.0
H58 H 0.96797 0.60761 0.57798 0.0
H59 H 0.05631 0.63925 0.53962 0.0
H60 H 0.05396 0.58879 0.51484 0.0
H61 H 0.00743 0.50745 0.54833 0.0
H62 H 0.96269 0.59032 0.49419 0.0
H63 H 0.96181 0.64238 0.47116 0.0
H64 H 0.05116 0.61216 0.43344 0.0
H65 H 0.0518 0.56013 0.45644 0.0
C66 C 0.00619 0.4478 0.47517 0.0
C67 C 0.0298 0.44222 0.45685 0.0
C68 C 0.02845 0.41335 0.44269 0.0
C69 C 0.00341 0.38942 0.44654 0.0
C70 C 0.97971 0.39517 0.46487 0.0
C71 C 0.98097 0.42413 0.47892 0.0
C72 C 0.00759 0.47871 0.48999 0.0
C73 C 0.00819 0.50959 0.47803 0.0
C74 C 0.00733 0.47797 0.51568 0.0
C75 C 0.00875 0.44631 0.52951 0.0
C76 C 0.03479 0.42356 0.52571 0.0
C77 C 0.0363 0.39399 0.53905 0.0
C78 C 0.01184 0.38665 0.55651 0.0
C79 C 0.98583 0.40952 0.56028 0.0
C80 C 0.98438 0.43911 0.54697 0.0
C81 C 0.00907 0.56975 0.53159 0.0
C82 C 0.98505 0.57554 0.54959 0.0
C83 C 0.98661 0.60414 0.56401 0.0
C84 C 0.01231 0.62753 0.56079 0.0
C85 C 0.03637 0.62163 0.54274 0.0
C86 C 0.03484 0.59296 0.52836 0.0
C87 C 0.00763 0.53894 0.51669 0.0
C88 C 0.00702 0.50807 0.52865 0.0
C89 C 0.00807 0.53971 0.49101 0.0
C90 C 0.00748 0.57144 0.47718 0.0
C91 C 0.98224 0.59504 0.48109 0.0
C92 C 0.98179 0.62481 0.46794 0.0
C93 C 0.00643 0.63144 0.45047 0.0
C94 C 0.03157 0.60765 0.44653 0.0
C95 C 0.03203 0.57794 0.45971 0.0
Li96 Li 0.01021 0.0379 0.26969 0.0
Li97 Li 0.00601 0.97693 0.26845 0.0
Li98 Li 0.03941 0.00839 0.2369 0.0
Li99 Li 0.97823 0.00839 0.23632 0.0
C100 C 0.06995 0.01596 0.28877 0.0
N101 N 0.11649 0.03933 0.3216 0.0
C102 C 0.07189 0.00222 0.31203 0.0
C103 C 0.09212 0.04115 0.28208 0.0
C104 C 0.09546 0.01448 0.32841 0.0
C105 C 0.11535 0.05275 0.29896 0.0
C106 C 0.94736 0.99719 0.28842 0.0
C107 C 0.90394 0.95832 0.29901 0.0
N108 N 0.90369 0.97066 0.322 0.0
C109 C 0.94634 0.00979 0.31206 0.0
C110 C 0.92571 0.97153 0.28175 0.0
C111 C 0.92421 0.99595 0.3288 0.0
C112 C 0.00511 0.10651 0.2808 0.0
N113 N 0.01143 0.07601 0.29046 0.0
C114 C 0.01936 0.10005 0.32976 0.0
C115 C 0.01814 0.07231 0.3145 0.0
C116 C 0.01347 0.13199 0.32024 0.0
C117 C 0.00617 0.13497 0.29538 0.0
H118 H 0.99921 0.10878 0.26173 0.0
H119 H 0.02213 0.04774 0.32192 0.0
C120 C 0.00856 0.90752 0.27676 0.0
N121 N 0.00425 0.93749 0.2878 0.0
C122 C 0.00747 0.87811 0.29027 0.0
C123 C 0.9981 0.91094 0.32639 0.0
C124 C 0.99933 0.9397 0.31216 0.0
C125 C 0.00215 0.87957 0.31545 0.0
H126 H 0.01318 0.90641 0.25746 0.0
H127 H 0.99661 0.96382 0.32062 0.0
C128 C 0.02217 0.0703 0.21867 0.0
N129 N 0.04939 0.11652 0.18725 0.0
C130 C 0.00908 0.07423 0.19533 0.0
C131 C 0.0487 0.09035 0.22616 0.0
C132 C 0.0233 0.0976 0.17967 0.0
C133 C 0.06223 0.11344 0.20998 0.0
C134 C 0.99604 0.94925 0.21524 0.0
C135 C 0.0109 0.94755 0.19234 0.0
C136 C 0.96804 0.92974 0.22017 0.0
C137 C 0.99702 0.92693 0.17457 0.0
C138 C 0.95489 0.90944 0.20193 0.0
N139 N 0.9695 0.90851 0.17969 0.0
C140 C 0.10777 0.99806 0.22709 0.0
C141 C 0.0762 0.01602 0.19321 0.0
C142 C 0.13666 0.99698 0.21302 0.0
N143 N 0.07838 0.00773 0.21708 0.0
C144 C 0.10443 0.01526 0.17846 0.0
C145 C 0.13524 0.00566 0.18832 0.0
H146 H 0.10876 0.99097 0.24599 0.0
H147 H 0.0524 0.02257 0.18546 0.0
C148 C 0.90986 0.01682 0.22559 0.0
N149 N 0.94011 0.0102 0.21566 0.0
C150 C 0.88146 0.0181 0.21096 0.0
C151 C 0.91593 0.00621 0.1761 0.0
C152 C 0.94363 0.00525 0.19138 0.0
C153 C 0.88425 0.01266 0.18583 0.0
H154 H 0.90778 0.02132 0.24487 0.0
H155 H 0.96801 1.00071 0.18383 0.0
O156 O 0.04684 0.00441 0.27254 0.0
O157 O 0.96914 0.01022 0.27185 0.0
O158 O 0.00867 0.04736 0.2342 0.0
O159 O 0.00911 0.96958 0.23278 0.0
H160 H 0.05528 0.98242 0.31744 0.0
H161 H 0.09165 0.05141 0.26398 0.0
H162 H 0.09705 0.00424 0.34653 0.0
H163 H 0.13256 0.07233 0.29403 0.0
H164 H 0.88718 0.93833 0.2941 0.0
H165 H 0.96256 0.02992 0.31749 0.0
H166 H 0.92556 0.96202 0.26342 0.0
H167 H 0.92336 0.0053 0.34721 0.0
H168 H 0.02436 0.09642 0.34889 0.0
H169 H 0.00171 0.15906 0.28716 0.0
H170 H 0.01137 0.85454 0.28114 0.0
H171 H 0.99377 0.91326 0.34571 0.0
H172 H 0.98829 0.0593 0.18931 0.0
H173 H 0.05852 0.08837 0.24433 0.0
H174 H 0.01356 0.1007 0.16151 0.0
H175 H 0.08285 0.12902 0.21554 0.0
H176 H 0.03281 0.96208 0.18826 0.0
H177 H 0.95669 0.93012 0.23791 0.0
H178 H 0.00814 0.92558 0.15673 0.0
H179 H 0.93312 0.89436 0.20549 0.0
H180 H 0.15988 0.98963 0.22144 0.0
H181 H 0.10197 0.02144 0.15942 0.0
H182 H 0.85768 0.02378 0.21922 0.0
H183 H 0.91929 1.00161 0.15689 0.0
Li184 Li 0.97808 0.01021 0.77057 0.0
Li185 Li 0.03898 0.0087 0.76845 0.0
Li186 Li 0.00608 0.03936 0.73649 0.0
Li187 Li 0.00854 0.97839 0.73787 0.0
C188 C 0.99884 0.07606 0.78404 0.0
N189 N 0.97713 0.1323 0.80833 0.0
C190 C 0.01265 0.08464 0.80649 0.0
C191 C 0.97445 0.09649 0.77375 0.0
C192 C 1.00119 0.11304 0.81855 0.0
C193 C 0.96369 0.12471 0.78635 0.0
C194 C 0.02227 0.95314 0.79191 0.0
C195 C 0.06567 0.91694 0.80673 0.0
N196 N 0.05249 0.91889 0.82942 0.0
C197 C 0.00897 0.95454 0.81532 0.0
C198 C 0.05067 0.93396 0.78751 0.0
C199 C 0.02467 0.93713 0.83406 0.0
C200 C 0.91213 0.99524 0.78487 0.0
N201 N 0.94073 0.01056 0.79192 0.0
C202 C 0.91606 0.02639 0.82966 0.0
C203 C 0.94329 0.02554 0.81397 0.0
C204 C 0.88594 0.01137 0.82271 0.0
C205 C 0.88425 0.99544 0.80002 0.0
H206 H 0.91092 0.98301 0.7674 0.0
H207 H 0.96662 0.03644 0.81956 0.0
C208 C 0.1086 0.00956 0.77775 0.0
N209 N 0.07795 0.00997 0.78818 0.0
C210 C 0.1372 0.01084 0.79217 0.0
C211 C 0.10212 0.01294 0.82776 0.0
C212 C 0.07426 0.01169 0.81266 0.0
C213 C 0.13417 0.01266 0.81757 0.0
H214 H 0.11085 0.00857 0.75821 0.0
H215 H 0.0496 0.01211 0.82048 0.0
C216 C 0.94038 0.01766 0.72327 0.0
N217 N 0.8836 0.03862 0.69933 0.0
C218 C 0.932 0.0041 0.7007 0.0
C219 C 0.91948 0.0414 0.73385 0.0
C220 C 0.90333 0.01516 0.68882 0.0
C221 C 0.89099 0.05179 0.72143 0.0
C222 C 0.06319 0.99678 0.71384 0.0
C223 C 0.06078 0.01079 0.69069 0.0
C224 C 0.08311 0.96867 0.71746 0.0
C225 C 0.07795 0.99606 0.67142 0.0
C226 C 0.09985 0.95465 0.69772 0.0
N227 N 0.09692 0.9685 0.6753 0.0
C228 C 0.02074 0.10562 0.72314 0.0
C229 C 0.98878 0.07602 0.69412 0.0
C230 C 0.01995 0.13424 0.70874 0.0
N231 N 0.00487 0.07744 0.7158 0.0
C232 C 0.98728 0.10405 0.67918 0.0
C233 C 0.00282 0.13375 0.68649 0.0
H234 H 0.03381 0.10593 0.74031 0.0
H235 H 0.9774 0.05305 0.68825 0.0
C236 C 0.00841 0.90889 0.72804 0.0
N237 N 0.00755 0.93967 0.7178 0.0
C238 C 0.00746 0.88041 0.71344 0.0
C239 C 0.00471 0.9159 0.67808 0.0
C240 C 0.00563 0.94362 0.69334 0.0
C241 C 0.0055 0.88371 0.68807 0.0
H242 H 0.00952 0.90642 0.74755 0.0
H243 H 0.00482 0.96837 0.68567 0.0
O244 O 0.00982 0.04827 0.772 0.0
O245 O 0.0075 0.9704 0.77341 0.0
O246 O 0.96844 0.00706 0.73512 0.0
O247 O 0.04622 0.01061 0.73286 0.0
H248 H 0.03188 0.06948 0.8146 0.0
H249 H 0.9643 0.09101 0.75607 0.0
H250 H 0.01149 0.1198 0.83601 0.0
H251 H 0.94479 0.14067 0.77859 0.0
H252 H 0.0878 0.9022 0.80361 0.0
H253 H 0.98689 0.96906 0.81903 0.0
H254 H 0.06113 0.93239 0.76948 0.0
H255 H 0.01477 0.93815 0.8523 0.0
H256 H 0.91872 0.03826 0.84721 0.0
H257 H 0.8615 0.98366 0.79388 0.0
H258 H 0.16138 0.01105 0.7835 0.0
H259 H 0.09856 0.01388 0.84723 0.0
H260 H 0.94753 0.98535 0.69235 0.0
H261 H 0.92481 0.05134 0.75163 0.0
H262 H 0.89672 0.00505 0.67126 0.0
H263 H 0.87467 0.0702 0.72942 0.0
H264 H 0.04566 0.03265 0.68758 0.0
H265 H 0.08547 0.95768 0.73527 0.0
H266 H 0.07615 0.00651 0.65338 0.0
H267 H 0.11516 0.93275 0.70023 0.0
H268 H 0.03215 0.15664 0.71514 0.0
H269 H 0.97443 0.10235 0.66193 0.0
H270 H 0.00763 0.85612 0.72197 0.0
H271 H 0.00363 0.91968 0.65863 0.0
C272 C 0.33583 0.98702 0.07557 0.0
C273 C 0.35516 0.01553 0.07104 0.0
C274 C 0.30704 0.98904 0.08973 0.0
C275 C 0.29707 0.01966 0.0999 0.0
C276 C 0.31609 0.04822 0.09498 0.0
C277 C 0.34484 0.0462 0.08079 0.0
C278 C 0.26669 0.02304 0.11515 0.0
C279 C 0.25288 0.99748 0.12743 0.0
C280 C 0.22278 1.00076 0.14301 0.0
C281 C 0.21662 0.9762 0.16059 0.0
C282 C 0.18842 0.9779 0.17537 0.0
C283 C 0.16552 0.00415 0.17284 0.0
H284 H 0.20285 0.04587 0.12657 0.0
C285 C 0.17151 0.02863 0.15513 0.0
C286 C 0.19971 0.02692 0.14032 0.0
H287 H 0.15446 0.04928 0.15276 0.0
H288 H 0.34272 0.96316 0.06788 0.0
H289 H 0.2925 0.96664 0.09227 0.0
H290 H 0.3089 0.07217 0.10239 0.0
H291 H 0.3593 0.06859 0.07781 0.0
H292 H 0.25653 0.04793 0.11722 0.0
H293 H 0.26488 0.97326 0.12708 0.0
H294 H 0.2337 0.95555 0.16291 0.0
H295 H 0.18429 0.95828 0.18852 0.0
C296 C 0.98479 0.33676 0.57563 0.0
C297 C 0.01364 0.35548 0.57098 0.0
C298 C 0.98634 0.30773 0.5896 0.0
C299 C 0.01685 0.29691 0.59946 0.0
C300 C 0.04574 0.31536 0.59443 0.0
C301 C 0.04418 0.34433 0.58041 0.0
C302 C 0.01989 0.26634 0.61463 0.0
C303 C 0.99411 0.25191 0.62626 0.0
C304 C 0.99741 0.22154 0.64154 0.0
C305 C 0.96926 0.20143 0.64512 0.0
C306 C 0.97107 0.17289 0.65957 0.0
C307 C 1.00104 0.16401 0.67103 0.0
H308 H 0.04941 0.22817 0.65155 0.0
C309 C 0.02915 0.18436 0.66774 0.0
C310 C 0.02739 0.21284 0.65319 0.0
H311 H 0.05263 0.17815 0.67629 0.0
H312 H 0.961 0.34431 0.56818 0.0
H313 H 0.96362 0.29377 0.59218 0.0
H314 H 0.06961 0.30756 0.60161 0.0
H315 H 0.06684 0.35831 0.57732 0.0
H316 H 0.04461 0.25571 0.61644 0.0
H317 H 0.96929 0.26223 0.62445 0.0
H318 H 0.94576 0.20773 0.63661 0.0
H319 H 0.94882 0.15804 0.66205 0.0
C320 C 0.68722 0.01139 0.0685 0.0
C321 C 0.65573 1.00176 0.07716 0.0
C322 C 0.71509 0.01058 0.08373 0.0
C323 C 0.71204 1.00021 0.10805 0.0
C324 C 0.68066 0.99032 0.11659 0.0
C325 C 0.65281 0.99127 0.10142 0.0
C326 C 0.74099 0.99823 0.12483 0.0
C327 C 0.76859 0.0171 0.12251 0.0
C328 C 0.79768 0.01542 0.13929 0.0
C329 C 0.82803 0.02928 0.13169 0.0
C330 C 0.85605 0.02843 0.14673 0.0
C331 C 0.85438 0.01379 0.16987 0.0
H332 H 0.77292 0.99106 0.16968 0.0
C333 C 0.82392 1.00028 0.17765 0.0
C334 C 0.79587 1.00119 0.16263 0.0
H335 H 0.82177 0.98867 0.19532 0.0
H336 H 0.69048 0.01896 0.04979 0.0
H337 H 0.739 0.01733 0.07617 0.0
H338 H 0.67759 0.98209 0.13518 0.0
H339 H 0.6289 0.98409 0.10881 0.0
H340 H 0.73884 0.98085 0.13979 0.0
H341 H 0.7703 0.03459 0.10755 0.0
H342 H 0.83016 0.04075 0.11396 0.0
H343 H 0.87893 0.03963 0.14031 0.0
C344 C 0.98521 0.67509 0.58297 0.0
C345 C 0.01423 0.65769 0.57643 0.0
C346 C 0.98693 0.70305 0.59806 0.0
C347 C 0.01784 0.71451 0.6068 0.0
C348 C 0.04677 0.69698 0.60036 0.0
C349 C 0.04504 0.66899 0.58531 0.0
C350 C 0.02091 0.74379 0.62328 0.0
C351 C 0.9976 0.76783 0.62518 0.0
C352 C 1.00064 0.7972 0.64156 0.0
C353 C 0.98102 0.82539 0.63679 0.0
C354 C 0.98265 0.8534 0.65181 0.0
C355 C 0.00385 0.85384 0.67212 0.0
H356 H 0.0364 0.77595 0.66692 0.0
C357 C 0.02323 0.82549 0.67711 0.0
C358 C 0.02159 0.79744 0.66208 0.0
H359 H 0.03991 0.82503 0.69255 0.0
H360 H 0.96108 0.66717 0.57636 0.0
H361 H 0.96386 0.71509 0.60309 0.0
H362 H 0.07088 0.70494 0.60702 0.0
H363 H 0.06783 0.65585 0.581 0.0
H364 H 0.044 0.74613 0.63336 0.0
H365 H 0.97587 0.76703 0.61349 0.0
H366 H 0.96435 0.82582 0.62132 0.0
H367 H 0.9669 0.87455 0.64767 0.0
C368 C 0.34275 0.03384 0.9226 0.0
C369 C 0.35997 0.00472 0.9292 0.0
C370 C 0.31498 0.03224 0.90733 0.0
C371 C 0.30358 1.00136 0.89844 0.0
C372 C 0.321 0.97235 0.90488 0.0
C373 C 0.34877 0.97396 0.92012 0.0
C374 C 0.27443 0.99837 0.88186 0.0
C375 C 0.25036 0.02165 0.87998 0.0
C376 C 0.22098 0.01846 0.86365 0.0
C377 C 0.19263 0.03777 0.86858 0.0
C378 C 0.16454 0.03585 0.85368 0.0
C379 C 0.16417 0.01469 0.83335 0.0
H380 H 0.24243 0.98304 0.83813 0.0
C381 C 0.19269 0.99567 0.82818 0.0
C382 C 0.22083 0.99759 0.84308 0.0
H383 H 0.19321 0.97904 0.8127 0.0
H384 H 0.35062 0.05793 0.92934 0.0
H385 H 0.30301 0.05536 0.9023 0.0
H386 H 0.31309 0.94827 0.8981 0.0
H387 H 0.3618 0.9511 0.92445 0.0
H388 H 0.27213 0.97528 0.87174 0.0
H389 H 0.2511 0.04337 0.89169 0.0
H390 H 0.19214 0.05437 0.88408 0.0
H391 H 0.14325 0.05133 0.85795 0.0
C392 C 0.03112 0.34221 0.4243 0.0
C393 C 0.00183 0.3588 0.43133 0.0
C394 C 0.02969 0.31378 0.40966 0.0
C395 C 0.99881 0.30096 0.4019 0.0
C396 C 0.9696 0.31765 0.40887 0.0
C397 C 0.97105 0.34615 0.42341 0.0
C398 C 0.99587 0.27112 0.38591 0.0
C399 C 0.0204 0.2486 0.3826 0.0
C400 C 0.0175 0.21891 0.36648 0.0
C401 C 0.04038 0.19275 0.36939 0.0
C402 C 0.03905 0.16461 0.35447 0.0
C403 C 0.01482 0.16195 0.33615 0.0
H404 H 0.9759 0.23628 0.34446 0.0
C405 C 0.99205 0.18822 0.33307 0.0
C406 C 0.99345 0.21644 0.34794 0.0
H407 H 0.97292 0.18694 0.31925 0.0
H408 H 0.05526 0.35111 0.43018 0.0
H409 H 0.05295 0.30247 0.40426 0.0
H410 H 0.94548 0.30866 0.40298 0.0
H411 H 0.94801 0.3586 0.42809 0.0
H412 H 0.97192 0.26718 0.37728 0.0
H413 H 0.04339 0.25103 0.39278 0.0
H414 H 0.05944 0.19406 0.38328 0.0
H415 H 0.05738 0.14515 0.35709 0.0
C416 C 0.6792 0.03045 0.92928 0.0
C417 C 0.65985 0.00194 0.93378 0.0
C418 C 0.70725 0.02871 0.91432 0.0
C419 C 0.7167 0.99828 0.9036 0.0
C420 C 0.69725 0.96987 0.90803 0.0
C421 C 0.66926 0.97161 0.92303 0.0
C422 C 0.74571 0.99537 0.88694 0.0
C423 C 0.77183 0.01649 0.88721 0.0
C424 C 0.80072 0.01418 0.87035 0.0
C425 C 0.82116 0.04228 0.86749 0.0
C426 C 0.84868 0.04141 0.85201 0.0
C427 C 0.85656 0.01229 0.83907 0.0
H428 H 0.79458 0.96222 0.85977 0.0
C429 C 0.83634 0.98402 0.84205 0.0
C430 C 0.80883 0.98485 0.85758 0.0
H431 H 0.84215 0.96099 0.83272 0.0
H432 H 0.67267 0.05418 0.93734 0.0
H433 H 0.72086 0.05145 0.91085 0.0
H434 H 0.70369 0.9462 0.89982 0.0
H435 H 0.65458 0.9493 0.92579 0.0
H436 H 0.74529 0.97479 0.8742 0.0
H437 H 0.77216 0.03687 0.90016 0.0
H438 H 0.81569 0.06517 0.87713 0.0
H439 H 0.86357 0.06373 0.84996 0.0
C440 C 0.01316 0.66281 0.41133 0.0
C441 C 0.00584 0.66294 0.43628 0.0
C442 C 0.01281 0.6924 0.39798 0.0
C443 C 0.00486 0.72287 0.40925 0.0
C444 C 0.9979 0.72301 0.43423 0.0
C445 C 0.99821 0.6934 0.44758 0.0
C446 C 0.00479 0.75503 0.39582 0.0
C447 C 1.00021 0.7573 0.37163 0.0
C448 C 1.00039 0.78933 0.35803 0.0
C449 C 0.98494 0.7906 0.33518 0.0
C450 C 0.98527 0.81987 0.32147 0.0
C451 C 1.00129 0.8486 0.33023 0.0
H452 H 0.02981 0.8179 0.38388 0.0
C453 C 0.01691 0.84734 0.35305 0.0
C454 C 0.01661 0.81804 0.36677 0.0
H455 H 0.03008 0.86881 0.3601 0.0
H456 H 0.019 0.63975 0.40205 0.0
H457 H 0.01935 0.69122 0.37896 0.0
H458 H 0.9921 0.74614 0.44346 0.0
H459 H 0.99297 0.69446 0.46684 0.0
H460 H 0.00718 0.7776 0.40654 0.0
H461 H 0.9947 0.73494 0.36129 0.0
H462 H 0.97244 0.76885 0.32791 0.0
H463 H 0.97272 0.82007 0.30407 0.0
loop_
_geom_bond_atom_site_label_1
_geom_bond_atom_site_label_2
_geom_bond_distance
_geom_bond_site_symmetry_2
_ccdc_geom_bond_type
H0 C19 0.949 . S
H1 C20 0.950 . S
H2 C22 0.950 . S
H3 C23 0.950 . S
H4 C25 0.950 1_565 S
H5 C28 0.950 . S
H6 C29 0.950 . S
H7 C31 0.951 . S
H8 C32 0.949 . S
H9 C34 0.949 . S
H10 C35 0.950 . S
H11 C37 0.950 . S
H12 C38 0.950 . S
H13 C40 0.950 . S
H14 C43 0.950 . S
H15 C44 0.950 . S
H16 C46 0.951 . S
H17 C47 0.949 . S
C18 C19 1.376 1_545 S
C18 C23 1.386 . S
C18 C24 1.483 . S
C19 H0 0.949 . S
C19 C18 1.376 1_565 S
C19 C20 1.397 . S
C20 H1 0.950 . S
C20 C19 1.397 . S
C20 C21 1.391 1_565 S
C21 C20 1.391 1_545 S
C21 C22 1.405 . S
C22 H2 0.950 . S
C22 C21 1.405 . S
C22 C23 1.367 . S
C23 H3 0.950 . S
C23 C18 1.386 . S
C23 C22 1.367 . S
C24 C18 1.483 . S
C24 C25 1.382 . S
C24 C26 1.403 1_554 S
C25 H4 0.950 1_545 S
C25 C24 1.382 . S
C25 C41 1.411 . S
C26 C24 1.403 1_556 S
C26 C27 1.489 . S
C26 C40 1.411 . S
C27 C26 1.489 . S
C27 C28 1.383 1_545 S
C27 C32 1.382 . S
C28 H5 0.950 . S
C28 C27 1.383 1_565 S
C28 C29 1.395 . S
C29 H6 0.950 . S
C29 C28 1.395 . S
C29 C30 1.288 1_565 S
C30 C29 1.288 1_545 S
C30 C31 1.392 . S
C31 H7 0.951 . S
C31 C30 1.392 . S
C31 C32 1.392 . S
C32 H8 0.949 . S
C32 C27 1.382 . S
C32 C31 1.392 . S
C33 C34 1.376 . S
C33 C38 1.386 1_545 S
C33 C39 1.483 . S
C34 H9 0.949 . S
C34 C33 1.376 . S
C34 C35 1.397 . S
C35 H10 0.950 . S
C35 C34 1.397 . S
C35 C36 1.391 . S
C36 C35 1.391 . S
C36 C37 1.405 1_545 S
C37 H11 0.950 . S
C37 C36 1.405 1_565 S
C37 C38 1.367 . S
C38 H12 0.950 . S
C38 C33 1.386 1_565 S
C38 C37 1.367 . S
C39 C33 1.483 . S
C39 C40 1.382 . S
C39 C41 1.403 1_556 S
C40 H13 0.950 . S
C40 C26 1.411 . S
C40 C39 1.382 . S
C41 C25 1.411 . S
C41 C39 1.403 1_554 S
C41 C42 1.489 . S
C42 C41 1.489 . S
C42 C43 1.383 . S
C42 C47 1.382 1_545 S
C43 H14 0.950 . S
C43 C42 1.383 . S
C43 C44 1.395 . S
C44 H15 0.950 . S
C44 C43 1.395 . S
C44 C45 1.288 . S
C45 C44 1.288 . S
C45 C46 1.392 1_545 S
C46 H16 0.951 . S
C46 C45 1.392 1_565 S
C46 C47 1.392 . S
C47 H17 0.949 . S
C47 C42 1.382 1_565 S
C47 C46 1.392 . S
H48 C67 0.949 . S
H49 C68 0.950 . S
H50 C70 0.950 . S
H51 C71 0.950 . S
H52 C73 0.950 . S
H53 C76 0.950 . S
H54 C77 0.950 . S
H55 C79 0.951 . S
H56 C80 0.949 . S
H57 C82 0.949 . S
H58 C83 0.950 . S
H59 C85 0.950 . S
H60 C86 0.950 . S
H61 C88 0.950 1_655 S
H62 C91 0.950 . S
H63 C92 0.950 . S
H64 C94 0.951 . S
H65 C95 0.949 . S
C66 C67 1.376 . S
C66 C71 1.386 1_455 S
C66 C72 1.483 . S
C67 H48 0.949 . S
C67 C66 1.376 . S
C67 C68 1.397 . S
C68 H49 0.950 . S
C68 C67 1.397 . S
C68 C69 1.391 . S
C69 C68 1.391 . S
C69 C70 1.405 1_455 S
C70 H50 0.950 . S
C70 C69 1.405 1_655 S
C70 C71 1.367 . S
C71 H51 0.950 . S
C71 C66 1.386 1_655 S
C71 C70 1.367 . S
C72 C66 1.483 . S
C72 C73 1.382 . S
C72 C74 1.403 . S
C73 H52 0.950 . S
C73 C72 1.382 . S
C73 C89 1.411 . S
C74 C72 1.403 . S
C74 C75 1.489 . S
C74 C88 1.411 . S
C75 C74 1.489 . S
C75 C76 1.383 . S
C75 C80 1.382 1_455 S
C76 H53 0.950 . S
C76 C75 1.383 . S
C76 C77 1.395 . S
C77 H54 0.950 . S
C77 C76 1.395 . S
C77 C78 1.288 . S
C78 C77 1.288 . S
C78 C79 1.392 1_455 S
C79 H55 0.951 . S
C79 C78 1.392 1_655 S
C79 C80 1.392 . S
C80 H56 0.949 . S
C80 C75 1.382 1_655 S
C80 C79 1.392 . S
C81 C82 1.376 1_455 S
C81 C86 1.386 . S
C81 C87 1.483 . S
C82 H57 0.949 . S
C82 C81 1.376 1_655 S
C82 C83 1.397 . S
C83 H58 0.950 . S
C83 C82 1.397 . S
C83 C84 1.391 1_655 S
C84 C83 1.391 1_455 S
C84 C85 1.405 . S
C85 H59 0.950 . S
C85 C84 1.405 . S
C85 C86 1.367 . S
C86 H60 0.950 . S
C86 C81 1.386 . S
C86 C85 1.367 . S
C87 C81 1.483 . S
C87 C88 1.382 . S
C87 C89 1.403 . S
C88 H61 0.950 1_455 S
C88 C74 1.411 . S
C88 C87 1.382 . S
C89 C73 1.411 . S
C89 C87 1.403 . S
C89 C90 1.489 . S
C90 C89 1.489 . S
C90 C91 1.383 1_455 S
C90 C95 1.382 . S
C91 H62 0.950 . S
C91 C90 1.383 1_655 S
C91 C92 1.395 . S
C92 H63 0.950 . S
C92 C91 1.395 . S
C92 C93 1.288 1_655 S
C93 C92 1.288 1_455 S
C93 C94 1.392 . S
C94 H64 0.951 . S
C94 C93 1.392 . S
C94 C95 1.392 . S
C95 H65 0.949 . S
C95 C90 1.382 . S
C95 C94 1.392 . S
Li96 N113 1.990 . S
Li96 O156 1.956 . S
Li96 O157 1.970 1_455 S
Li96 O158 1.961 . S
Li97 N121 1.990 . S
Li97 O156 1.970 1_565 S
Li97 O157 1.956 1_465 S
Li97 O159 1.961 . S
Li98 N143 1.990 . S
Li98 O156 1.961 . S
Li98 O158 1.956 . S
Li98 O159 1.970 1_545 S
Li99 N149 1.990 . S
Li99 O157 1.961 . S
Li99 O158 1.970 1_655 S
Li99 O159 1.956 1_645 S
C100 C102 1.348 1_545 S
C100 C103 1.356 . S
C100 O156 1.325 . S
N101 C104 1.314 1_545 S
N101 C105 1.279 . S
C102 C100 1.348 1_565 S
C102 C104 1.353 . S
C102 H160 0.929 . S
C103 C100 1.356 . S
C103 C105 1.358 . S
C103 H161 0.930 . S
C104 N101 1.314 1_565 S
C104 C102 1.353 . S
C104 H162 0.930 . S
C105 N101 1.279 . S
C105 C103 1.358 . S
C105 H163 0.930 . S
C106 C109 1.348 . S
C106 C110 1.356 1_545 S
C106 O157 1.325 . S
C107 N108 1.279 1_565 S
C107 C110 1.358 . S
C107 H164 0.930 . S
N108 C107 1.279 1_545 S
N108 C111 1.314 . S
C109 C106 1.348 . S
C109 C111 1.353 . S
C109 H165 0.929 . S
C110 C106 1.356 1_565 S
C110 C107 1.358 . S
C110 H166 0.930 . S
C111 N108 1.314 . S
C111 C109 1.353 . S
C111 H167 0.930 . S
C112 N113 1.314 1_655 S
C112 C117 1.353 . S
C112 H118 0.930 . S
N113 Li96 1.990 . S
N113 C112 1.314 1_455 S
N113 C115 1.279 . S
C114 C115 1.358 . S
C114 C116 1.356 . S
C114 H168 0.930 . S
C115 N113 1.279 . S
C115 C114 1.358 . S
C115 H119 0.930 . S
C116 C114 1.356 . S
C116 C117 1.348 1_455 S
C117 C112 1.353 . S
C117 C116 1.348 1_655 S
C117 H169 0.929 . S
H118 C112 0.930 . S
H119 C115 0.930 . S
C120 N121 1.314 . S
C120 C122 1.353 . S
C120 H126 0.930 . S
N121 Li97 1.990 . S
N121 C120 1.314 . S
N121 C124 1.279 1_455 S
C122 C120 1.353 . S
C122 C125 1.348 . S
C122 H170 0.929 . S
C123 C124 1.358 . S
C123 C125 1.356 1_655 S
C123 H171 0.930 . S
C124 N121 1.279 1_655 S
C124 C123 1.358 . S
C124 H127 0.930 . S
C125 C122 1.348 . S
C125 C123 1.356 1_455 S
H126 C120 0.930 . S
H127 C124 0.930 . S
C128 C130 1.348 1_455 S
C128 C131 1.356 . S
C128 O158 1.325 . S
N129 C132 1.314 1_455 S
N129 C133 1.279 . S
C130 C128 1.348 1_655 S
C130 C132 1.353 . S
C130 H172 0.929 . S
C131 C128 1.356 . S
C131 C133 1.358 . S
C131 H173 0.930 . S
C132 N129 1.314 1_655 S
C132 C130 1.353 . S
C132 H174 0.930 . S
C133 N129 1.279 . S
C133 C131 1.358 . S
C133 H175 0.930 . S
C134 C135 1.348 . S
C134 C136 1.356 1_455 S
C134 O159 1.325 . S
C135 C134 1.348 . S
C135 C137 1.353 . S
C135 H176 0.929 . S
C136 C134 1.356 1_655 S
C136 C138 1.358 . S
C136 H177 0.930 . S
C137 C135 1.353 . S
C137 N139 1.314 . S
C137 H178 0.930 . S
C138 C136 1.358 . S
C138 N139 1.279 1_655 S
C138 H179 0.930 . S
N139 C137 1.314 . S
N139 C138 1.279 1_455 S
C140 C142 1.353 . S
C140 N143 1.314 1_565 S
C140 H146 0.930 . S
C141 N143 1.279 . S
C141 C144 1.358 . S
C141 H147 0.930 . S
C142 C140 1.353 . S
C142 C145 1.348 1_565 S
C142 H180 0.929 . S
N143 Li98 1.990 . S
N143 C140 1.314 1_545 S
N143 C141 1.279 . S
C144 C141 1.358 . S
C144 C145 1.356 . S
C144 H181 0.930 . S
C145 C142 1.348 1_545 S
C145 C144 1.356 . S
H146 C140 0.930 . S
H147 C141 0.930 . S
C148 N149 1.314 . S
C148 C150 1.353 . S
C148 H154 0.930 . S
N149 Li99 1.990 . S
N149 C148 1.314 . S
N149 C152 1.279 1_545 S
C150 C148 1.353 . S
C150 C153 1.348 . S
C150 H182 0.929 . S
C151 C152 1.358 . S
C151 C153 1.356 1_565 S
C151 H183 0.930 . S
C152 N149 1.279 1_565 S
C152 C151 1.358 . S
C152 H155 0.930 . S
C153 C150 1.348 . S
C153 C151 1.356 1_545 S
H154 C148 0.930 . S
H155 C152 0.930 . S
O156 Li96 1.956 . S
O156 Li97 1.970 1_545 S
O156 Li98 1.961 . S
O156 C100 1.325 . S
O157 Li96 1.970 1_655 S
O157 Li97 1.956 1_645 S
O157 Li99 1.961 . S
O157 C106 1.325 . S
O158 Li96 1.961 . S
O158 Li98 1.956 . S
O158 Li99 1.970 1_455 S
O158 C128 1.325 . S
O159 Li97 1.961 . S
O159 Li98 1.970 1_565 S
O159 Li99 1.956 1_465 S
O159 C134 1.325 . S
H160 C102 0.929 . S
H161 C103 0.930 . S
H162 C104 0.930 . S
H163 C105 0.930 . S
H164 C107 0.930 . S
H165 C109 0.929 . S
H166 C110 0.930 . S
H167 C111 0.930 . S
H168 C114 0.930 . S
H169 C117 0.929 . S
H170 C122 0.929 . S
H171 C123 0.930 . S
H172 C130 0.929 . S
H173 C131 0.930 . S
H174 C132 0.930 . S
H175 C133 0.930 . S
H176 C135 0.929 . S
H177 C136 0.930 . S
H178 C137 0.930 . S
H179 C138 0.930 . S
H180 C142 0.929 . S
H181 C144 0.930 . S
H182 C150 0.929 . S
H183 C151 0.930 . S
Li184 N201 1.990 . S
Li184 O244 1.956 1_655 S
Li184 O245 1.970 1_645 S
Li184 O246 1.961 . S
Li185 N209 1.990 . S
Li185 O244 1.970 . S
Li185 O245 1.956 1_545 S
Li185 O247 1.961 . S
Li186 N231 1.990 . S
Li186 O244 1.961 . S
Li186 O246 1.956 1_455 S
Li186 O247 1.970 . S
Li187 N237 1.990 . S
Li187 O245 1.961 . S
Li187 O246 1.970 1_465 S
Li187 O247 1.956 1_565 S
C188 C190 1.348 . S
C188 C191 1.356 1_455 S
C188 O244 1.325 . S
N189 C192 1.314 . S
N189 C193 1.279 1_455 S
C190 C188 1.348 . S
C190 C192 1.353 . S
C190 H248 0.929 . S
C191 C188 1.356 1_655 S
C191 C193 1.358 . S
C191 H249 0.930 . S
C192 N189 1.314 . S
C192 C190 1.353 . S
C192 H250 0.930 . S
C193 N189 1.279 1_655 S
C193 C191 1.358 . S
C193 H251 0.930 . S
C194 C197 1.348 1_455 S
C194 C198 1.356 . S
C194 O245 1.325 . S
C195 N196 1.279 . S
C195 C198 1.358 . S
C195 H252 0.930 . S
N196 C195 1.279 . S
N196 C199 1.314 1_455 S
C197 C194 1.348 1_655 S
C197 C199 1.353 . S
C197 H253 0.929 . S
C198 C194 1.356 . S
C198 C195 1.358 . S
C198 H254 0.930 . S
C199 N196 1.314 1_655 S
C199 C197 1.353 . S
C199 H255 0.930 . S
C200 N201 1.314 1_565 S
C200 C205 1.353 . S
C200 H206 0.930 . S
N201 Li184 1.990 . S
N201 C200 1.314 1_545 S
N201 C203 1.279 . S
C202 C203 1.358 . S
C202 C204 1.356 . S
C202 H256 0.930 . S
C203 N201 1.279 . S
C203 C202 1.358 . S
C203 H207 0.930 . S
C204 C202 1.356 . S
C204 C205 1.348 1_545 S
C205 C200 1.353 . S
C205 C204 1.348 1_565 S
C205 H257 0.929 . S
H206 C200 0.930 . S
H207 C203 0.930 . S
C208 N209 1.314 . S
C208 C210 1.353 . S
C208 H214 0.930 . S
N209 Li185 1.990 . S
N209 C208 1.314 . S
N209 C212 1.279 1_545 S
C210 C208 1.353 . S
C210 C213 1.348 . S
C210 H258 0.929 . S
C211 C212 1.358 . S
C211 C213 1.356 1_565 S
C211 H259 0.930 . S
C212 N209 1.279 1_565 S
C212 C211 1.358 . S
C212 H215 0.930 . S
C213 C210 1.348 . S
C213 C211 1.356 1_545 S
H214 C208 0.930 . S
H215 C212 0.930 . S
C216 C218 1.348 1_545 S
C216 C219 1.356 . S
C216 O246 1.325 . S
N217 C220 1.314 1_545 S
N217 C221 1.279 . S
C218 C216 1.348 1_565 S
C218 C220 1.353 . S
C218 H260 0.929 . S
C219 C216 1.356 . S
C219 C221 1.358 . S
C219 H261 0.930 . S
C220 N217 1.314 1_565 S
C220 C218 1.353 . S
C220 H262 0.930 . S
C221 N217 1.279 . S
C221 C219 1.358 . S
C221 H263 0.930 . S
C222 C223 1.348 . S
C222 C224 1.356 1_545 S
C222 O247 1.325 . S
C223 C222 1.348 . S
C223 C225 1.353 . S
C223 H264 0.929 . S
C224 C222 1.356 1_565 S
C224 C226 1.358 . S
C224 H265 0.930 . S
C225 C223 1.353 . S
C225 N227 1.314 . S
C225 H266 0.930 . S
C226 C224 1.358 . S
C226 N227 1.279 1_565 S
C226 H267 0.930 . S
N227 C225 1.314 . S
N227 C226 1.279 1_545 S
C228 C230 1.353 . S
C228 N231 1.314 . S
C228 H234 0.930 . S
C229 N231 1.279 1_655 S
C229 C232 1.358 . S
C229 H235 0.930 . S
C230 C228 1.353 . S
C230 C233 1.348 . S
C230 H268 0.929 . S
N231 Li186 1.990 . S
N231 C228 1.314 . S
N231 C229 1.279 1_455 S
C232 C229 1.358 . S
C232 C233 1.356 1_655 S
C232 H269 0.930 . S
C233 C230 1.348 . S
C233 C232 1.356 1_455 S
H234 C228 0.930 . S
H235 C229 0.930 . S
C236 N237 1.314 1_655 S
C236 C238 1.353 . S
C236 H242 0.930 . S
N237 Li187 1.990 . S
N237 C236 1.314 1_455 S
N237 C240 1.279 . S
C238 C236 1.353 . S
C238 C241 1.348 1_655 S
C238 H270 0.929 . S
C239 C240 1.358 . S
C239 C241 1.356 . S
C239 H271 0.930 . S
C240 N237 1.279 . S
C240 C239 1.358 . S
C240 H243 0.930 . S
C241 C238 1.348 1_455 S
C241 C239 1.356 . S
H242 C236 0.930 . S
H243 C240 0.930 . S
O244 Li184 1.956 1_455 S
O244 Li185 1.970 . S
O244 Li186 1.961 . S
O244 C188 1.325 . S
O245 Li184 1.970 1_465 S
O245 Li185 1.956 1_565 S
O245 Li187 1.961 . S
O245 C194 1.325 . S
O246 Li184 1.961 . S
O246 Li186 1.956 1_655 S
O246 Li187 1.970 1_645 S
O246 C216 1.325 . S
O247 Li185 1.961 . S
O247 Li186 1.970 . S
O247 Li187 1.956 1_545 S
O247 C222 1.325 . S
H248 C190 0.929 . S
H249 C191 0.930 . S
H250 C192 0.930 . S
H251 C193 0.930 . S
H252 C195 0.930 . S
H253 C197 0.929 . S
H254 C198 0.930 . S
H255 C199 0.930 . S
H256 C202 0.930 . S
H257 C205 0.929 . S
H258 C210 0.929 . S
H259 C211 0.930 . S
H260 C218 0.929 . S
H261 C219 0.930 . S
H262 C220 0.930 . S
H263 C221 0.930 . S
H264 C223 0.929 . S
H265 C224 0.930 . S
H266 C225 0.930 . S
H267 C226 0.930 . S
H268 C230 0.929 . S
H269 C232 0.930 . S
H270 C238 0.929 . S
H271 C239 0.930 . S
C272 C273 1.386 1_565 S
C272 C274 1.383 . S
C272 H288 0.951 . S
C273 C272 1.386 1_545 S
C273 C277 1.383 . S
C274 C272 1.383 . S
C274 C275 1.402 1_565 S
C274 H289 0.951 . S
C275 C274 1.402 1_545 S
C275 C276 1.375 . S
C275 C278 1.481 . S
C276 C275 1.375 . S
C276 C277 1.367 . S
C276 H290 0.951 . S
C277 C273 1.383 . S
C277 C276 1.367 . S
C277 H291 0.950 . S
C278 C275 1.481 . S
C278 C279 1.297 1_545 S
C278 H292 0.950 . S
C279 C278 1.297 1_565 S
C279 C280 1.479 1_565 S
C279 H293 0.950 . S
C280 C279 1.479 1_545 S
C280 C281 1.375 1_545 S
C280 C286 1.404 . S
C281 C280 1.375 1_565 S
C281 C282 1.369 . S
C281 H294 0.950 . S
C282 C281 1.369 . S
C282 C283 1.392 1_565 S
C282 H295 0.951 . S
C283 C282 1.392 1_545 S
C283 C285 1.384 . S
H284 C286 0.949 . S
C285 C283 1.384 . S
C285 C286 1.385 . S
C285 H287 0.950 . S
C286 C280 1.404 . S
C286 H284 0.949 . S
C286 C285 1.385 . S
H287 C285 0.950 . S
H288 C272 0.951 . S
H289 C274 0.951 . S
H290 C276 0.951 . S
H291 C277 0.950 . S
H292 C278 0.950 . S
H293 C279 0.950 . S
H294 C281 0.950 . S
H295 C282 0.951 . S
C296 C297 1.386 1_655 S
C296 C298 1.383 . S
C296 H312 0.951 . S
C297 C296 1.386 1_455 S
C297 C301 1.383 . S
C298 C296 1.383 . S
C298 C299 1.402 1_655 S
C298 H313 0.951 . S
C299 C298 1.402 1_455 S
C299 C300 1.375 . S
C299 C302 1.481 . S
C300 C299 1.375 . S
C300 C301 1.367 . S
C300 H314 0.951 . S
C301 C297 1.383 . S
C301 C300 1.367 . S
C301 H315 0.950 . S
C302 C299 1.481 . S
C302 C303 1.297 1_455 S
C302 H316 0.950 . S
C303 C302 1.297 1_655 S
C303 C304 1.479 . S
C303 H317 0.950 . S
C304 C303 1.479 . S
C304 C305 1.375 . S
C304 C310 1.404 1_655 S
C305 C304 1.375 . S
C305 C306 1.369 . S
C305 H318 0.950 . S
C306 C305 1.369 . S
C306 C307 1.392 1_655 S
C306 H319 0.951 . S
C307 C306 1.392 1_455 S
C307 C309 1.384 . S
H308 C310 0.949 . S
C309 C307 1.384 . S
C309 C310 1.385 . S
C309 H311 0.950 . S
C310 C304 1.404 1_455 S
C310 H308 0.949 . S
C310 C309 1.385 . S
H311 C309 0.950 . S
H312 C296 0.951 . S
H313 C298 0.951 . S
H314 C300 0.951 . S
H315 C301 0.950 . S
H316 C302 0.950 . S
H317 C303 0.950 . S
H318 C305 0.950 . S
H319 C306 0.951 . S
C320 C321 1.394 . S
C320 C322 1.387 . S
C320 H336 0.939 1_545 S
C321 C320 1.394 . S
C321 C325 1.383 . S
C322 C320 1.387 . S
C322 C323 1.402 . S
C322 H337 0.945 1_545 S
C323 C322 1.402 . S
C323 C324 1.375 . S
C323 C326 1.481 . S
C324 C323 1.375 . S
C324 C325 1.367 . S
C324 H338 0.951 . S
C325 C321 1.383 . S
C325 C324 1.367 . S
C325 H339 0.950 . S
C326 C323 1.481 . S
C326 C327 1.297 . S
C326 H340 0.950 . S
C327 C326 1.297 . S
C327 C328 1.479 . S
C327 H341 0.950 . S
C328 C327 1.479 . S
C328 C329 1.375 . S
C328 C334 1.404 . S
C329 C328 1.375 . S
C329 C330 1.369 . S
C329 H342 0.944 1_545 S
C330 C329 1.369 . S
C330 C331 1.392 . S
C330 H343 0.951 1_545 S
C331 C330 1.392 . S
C331 C333 1.384 . S
H332 C334 0.949 . S
C333 C331 1.384 . S
C333 C334 1.385 . S
C333 H335 0.950 . S
C334 C328 1.404 . S
C334 H332 0.949 . S
C334 C333 1.385 . S
H335 C333 0.950 . S
H336 C320 0.939 1_565 S
H337 C322 0.945 1_565 S
H338 C324 0.951 . S
H339 C325 0.950 . S
H340 C326 0.950 . S
H341 C327 0.950 . S
H342 C329 0.944 1_565 S
H343 C330 0.951 1_565 S
C344 C345 1.386 1_655 S
C344 C346 1.383 . S
C344 H360 0.951 . S
C345 C344 1.386 1_455 S
C345 C349 1.383 . S
C346 C344 1.383 . S
C346 C347 1.402 1_655 S
C346 H361 0.951 . S
C347 C346 1.402 1_455 S
C347 C348 1.375 . S
C347 C350 1.481 . S
C348 C347 1.375 . S
C348 C349 1.367 . S
C348 H362 0.951 . S
C349 C345 1.383 . S
C349 C348 1.367 . S
C349 H363 0.950 . S
C350 C347 1.481 . S
C350 C351 1.297 1_455 S
C350 H364 0.950 . S
C351 C350 1.297 1_655 S
C351 C352 1.479 . S
C351 H365 0.950 . S
C352 C351 1.479 . S
C352 C353 1.375 . S
C352 C358 1.404 1_655 S
C353 C352 1.375 . S
C353 C354 1.369 . S
C353 H366 0.950 . S
C354 C353 1.369 . S
C354 C355 1.392 1_655 S
C354 H367 0.951 . S
C355 C354 1.392 1_455 S
C355 C357 1.384 . S
H356 C358 0.949 . S
C357 C355 1.384 . S
C357 C358 1.385 . S
C357 H359 0.950 . S
C358 C352 1.404 1_455 S
C358 H356 0.949 . S
C358 C357 1.385 . S
H359 C357 0.950 . S
H360 C344 0.951 . S
H361 C346 0.951 . S
H362 C348 0.951 . S
H363 C349 0.950 . S
H364 C350 0.950 . S
H365 C351 0.950 . S
H366 C353 0.950 . S
H367 C354 0.951 . S
C368 C369 1.386 . S
C368 C370 1.383 . S
C368 H384 0.951 . S
C369 C368 1.386 . S
C369 C373 1.383 1_545 S
C370 C368 1.383 . S
C370 C371 1.402 . S
C370 H385 0.951 . S
C371 C370 1.402 . S
C371 C372 1.375 1_545 S
C371 C374 1.481 . S
C372 C371 1.375 1_565 S
C372 C373 1.367 . S
C372 H386 0.951 . S
C373 C369 1.383 1_565 S
C373 C372 1.367 . S
C373 H387 0.950 . S
C374 C371 1.481 . S
C374 C375 1.297 . S
C374 H388 0.950 1_545 S
C375 C374 1.297 . S
C375 C376 1.479 . S
C375 H389 0.950 . S
C376 C375 1.479 . S
C376 C377 1.375 . S
C376 C382 1.404 . S
C377 C376 1.375 . S
C377 C378 1.369 . S
C377 H390 0.950 . S
C378 C377 1.369 . S
C378 C379 1.392 . S
C378 H391 0.951 . S
C379 C378 1.392 . S
C379 C381 1.379 1_545 S
H380 C382 0.949 1_565 S
C381 C379 1.379 1_565 S
C381 C382 1.383 1_565 S
C381 H383 0.957 . S
C382 C376 1.404 . S
C382 H380 0.949 1_545 S
C382 C381 1.383 1_545 S
H383 C381 0.957 . S
H384 C368 0.951 . S
H385 C370 0.951 . S
H386 C372 0.951 . S
H387 C373 0.950 . S
H388 C374 0.950 1_565 S
H389 C375 0.950 . S
H390 C377 0.950 . S
H391 C378 0.951 . S
C392 C393 1.386 . S
C392 C394 1.383 . S
C392 H408 0.951 . S
C393 C392 1.386 . S
C393 C397 1.383 1_455 S
C394 C392 1.383 . S
C394 C395 1.402 1_455 S
C394 H409 0.951 . S
C395 C394 1.402 1_655 S
C395 C396 1.375 . S
C395 C398 1.481 . S
C396 C395 1.375 . S
C396 C397 1.367 . S
C396 H410 0.951 . S
C397 C393 1.383 1_655 S
C397 C396 1.367 . S
C397 H411 0.950 . S
C398 C395 1.481 . S
C398 C399 1.297 1_655 S
C398 H412 0.950 . S
C399 C398 1.297 1_455 S
C399 C400 1.479 . S
C399 H413 0.950 . S
C400 C399 1.479 . S
C400 C401 1.375 . S
C400 C406 1.404 1_455 S
C401 C400 1.375 . S
C401 C402 1.369 . S
C401 H414 0.950 . S
C402 C401 1.369 . S
C402 C403 1.392 . S
C402 H415 0.951 . S
C403 C402 1.392 . S
C403 C405 1.384 1_455 S
H404 C406 0.949 . S
C405 C403 1.384 1_655 S
C405 C406 1.385 . S
C405 H407 0.950 . S
C406 C400 1.404 1_655 S
C406 H404 0.949 . S
C406 C405 1.385 . S
H407 C405 0.950 . S
H408 C392 0.951 . S
H409 C394 0.951 . S
H410 C396 0.951 . S
H411 C397 0.950 . S
H412 C398 0.950 . S
H413 C399 0.950 . S
H414 C401 0.950 . S
H415 C402 0.951 . S
C416 C417 1.386 . S
C416 C418 1.383 . S
C416 H432 0.951 . S
C417 C416 1.386 . S
C417 C421 1.383 1_545 S
C418 C416 1.383 . S
C418 C419 1.373 1_545 S
C418 H433 0.951 . S
C419 C418 1.373 1_565 S
C419 C420 1.401 . S
C419 C422 1.485 . S
C420 C419 1.401 . S
C420 C421 1.367 . S
C420 H434 0.951 . S
C421 C417 1.383 1_565 S
C421 C420 1.367 . S
C421 H435 0.950 . S
C422 C419 1.485 . S
C422 C423 1.297 1_565 S
C422 H436 0.950 . S
C423 C422 1.297 1_545 S
C423 C424 1.479 . S
C423 H437 0.950 . S
C424 C423 1.479 . S
C424 C425 1.375 . S
C424 C430 1.404 1_545 S
C425 C424 1.375 . S
C425 C426 1.369 . S
C425 H438 0.950 . S
C426 C425 1.369 . S
C426 C427 1.392 . S
C426 H439 0.951 . S
C427 C426 1.392 . S
C427 C429 1.384 1_545 S
H428 C430 0.949 . S
C429 C427 1.384 1_565 S
C429 C430 1.385 . S
C429 H431 0.950 . S
C430 C424 1.404 1_565 S
C430 H428 0.949 . S
C430 C429 1.385 . S
H431 C429 0.950 . S
H432 C416 0.951 . S
H433 C418 0.951 . S
H434 C420 0.951 . S
H435 C421 0.950 . S
H436 C422 0.950 . S
H437 C423 0.950 . S
H438 C425 0.950 . S
H439 C426 0.951 . S
C440 C441 1.386 1_655 S
C440 C442 1.383 . S
C440 H456 0.951 . S
C441 C440 1.386 1_455 S
C441 C445 1.383 . S
C442 C440 1.383 . S
C442 C443 1.397 1_655 S
C442 H457 0.951 . S
C443 C442 1.397 1_455 S
C443 C444 1.384 . S
C443 C446 1.480 1_455 S
C444 C443 1.384 . S
C444 C445 1.367 . S
C444 H458 0.951 . S
C445 C441 1.383 . S
C445 C444 1.367 . S
C445 H459 0.950 . S
C446 C443 1.480 1_655 S
C446 C447 1.299 . S
C446 H460 0.949 1_655 S
C447 C446 1.299 . S
C447 C448 1.479 . S
C447 H461 0.950 . S
C448 C447 1.479 . S
C448 C449 1.375 . S
C448 C454 1.404 . S
C449 C448 1.375 . S
C449 C450 1.369 . S
C449 H462 0.950 . S
C450 C449 1.369 . S
C450 C451 1.392 1_655 S
C450 H463 0.951 . S
C451 C450 1.392 1_455 S
C451 C453 1.384 . S
H452 C454 0.949 . S
C453 C451 1.384 . S
C453 C454 1.385 1_455 S
C453 H455 0.950 . S
C454 C448 1.404 . S
C454 H452 0.949 . S
C454 C453 1.385 1_655 S
H455 C453 0.950 . S
H456 C440 0.951 . S
H457 C442 0.951 . S
H458 C444 0.951 . S
H459 C445 0.950 . S
H460 C446 0.949 1_455 S
H461 C447 0.950 . S
H462 C449 0.950 . S
H463 C450 0.951 . S
C283 C145 1.503 . S
C273 C45 1.513 . S
C307 C233 1.504 . S
C297 C78 1.512 . S
C331 C153 1.509 . S
C321 C21 1.516 . S
C355 C241 1.507 . S
C345 C84 1.515 . S
C379 C213 1.507 . S
C369 C36 1.514 . S
C403 C116 1.506 . S
C393 C69 1.511 . S
C427 C204 1.505 . S
C417 C30 1.514 . S
C441 C93 1.513 . S
C451 C125 1.501 . S
