# Generated by pormake.
# Topology dag, (6,3)-cn, num edge types: 1
# Building blocks:
#     Node 0, Type 0, BuildingBlock: IZENUY_clean_sbu_0, # of connection points: 6
#     Node 1, Type 0, BuildingBlock: IZENUY_clean_sbu_0, # of connection points: 6
#     Node 2, Type 0, BuildingBlock: IZENUY_clean_sbu_0, # of connection points: 6
#     Node 3, Type 0, BuildingBlock: IZENUY_clean_sbu_0, # of connection points: 6
#     Node 4, Type 1, BuildingBlock: BELTOD_clean_linker_0, # of connection points: 3
#     Node 5, Type 1, BuildingBlock: BELTOD_clean_linker_0, # of connection points: 3
#     Node 6, Type 1, BuildingBlock: BELTOD_clean_linker_0, # of connection points: 3
#     Node 7, Type 1, BuildingBlock: BELTOD_clean_linker_0, # of connection points: 3
#     Node 8, Type 1, BuildingBlock: BELTOD_clean_linker_0, # of connection points: 3
#     Node 9, Type 1, BuildingBlock: BELTOD_clean_linker_0, # of connection points: 3
#     Node 10, Type 1, BuildingBlock: BELTOD_clean_linker_0, # of connection points: 3
#     Node 11, Type 1, BuildingBlock: BELTOD_clean_linker_0, # of connection points: 3
#     Edge 12, Type (0, 1), BuildingBlock: XUDNAN_clean_linker_2, # of connection points: 2
#     Edge 13, Type (0, 1), BuildingBlock: XUDNAN_clean_linker_2, # of connection points: 2
#     Edge 14, Type (0, 1), BuildingBlock: XUDNAN_clean_linker_2, # of connection points: 2
#     Edge 15, Type (0, 1), BuildingBlock: XUDNAN_clean_linker_2, # of connection points: 2
#     Edge 16, Type (0, 1), BuildingBlock: XUDNAN_clean_linker_2, # of connection points: 2
#     Edge 17, Type (0, 1), BuildingBlock: XUDNAN_clean_linker_2, # of connection points: 2
#     Edge 18, Type (0, 1), BuildingBlock: XUDNAN_clean_linker_2, # of connection points: 2
#     Edge 19, Type (0, 1), BuildingBlock: XUDNAN_clean_linker_2, # of connection points: 2
#     Edge 20, Type (0, 1), BuildingBlock: XUDNAN_clean_linker_2, # of connection points: 2
#     Edge 21, Type (0, 1), BuildingBlock: XUDNAN_clean_linker_2, # of connection points: 2
#     Edge 22, Type (0, 1), BuildingBlock: XUDNAN_clean_linker_2, # of connection points: 2
#     Edge 23, Type (0, 1), BuildingBlock: XUDNAN_clean_linker_2, # of connection points: 2
#     Edge 24, Type (0, 1), BuildingBlock: XUDNAN_clean_linker_2, # of connection points: 2
#     Edge 25, Type (0, 1), BuildingBlock: XUDNAN_clean_linker_2, # of connection points: 2
#     Edge 26, Type (0, 1), BuildingBlock: XUDNAN_clean_linker_2, # of connection points: 2
#     Edge 27, Type (0, 1), BuildingBlock: XUDNAN_clean_linker_2, # of connection points: 2
#     Edge 28, Type (0, 1), BuildingBlock: XUDNAN_clean_linker_2, # of connection points: 2
#     Edge 29, Type (0, 1), BuildingBlock: XUDNAN_clean_linker_2, # of connection points: 2
#     Edge 30, Type (0, 1), BuildingBlock: XUDNAN_clean_linker_2, # of connection points: 2
#     Edge 31, Type (0, 1), BuildingBlock: XUDNAN_clean_linker_2, # of connection points: 2
#     Edge 32, Type (0, 1), BuildingBlock: XUDNAN_clean_linker_2, # of connection points: 2
#     Edge 33, Type (0, 1), BuildingBlock: XUDNAN_clean_linker_2, # of connection points: 2
#     Edge 34, Type (0, 1), BuildingBlock: XUDNAN_clean_linker_2, # of connection points: 2
#     Edge 35, Type (0, 1), BuildingBlock: XUDNAN_clean_linker_2, # of connection points: 2
# Relax obj value: 0.239
# Max RMSD: 0.187
# Mean RMSD: 0.155
data_MOF--net-dag--node1-IZENUY_clean_sbu_0--node2-BELTOD_clean_linker_0--edge1-XUDNAN_clean_linker_2
_symmetry_space_group_name_H-M    P1
_symmetry_Int_Tables_number       1
_symmetry_cell_setting            triclinic
loop_
_symmetry_equiv_pos_as_xyz
'x, y, z'
_cell_length_a     42.766123
_cell_length_b     45.54729
_cell_length_c     38.143406
_cell_angle_alpha  94.95194
_cell_angle_beta   90.392954
_cell_angle_gamma 90.1388
loop_
_atom_site_label
_atom_site_type_symbol
_atom_site_fract_x
_atom_site_fract_y
_atom_site_fract_z
_atom_type_partial_charge
Fe0 Fe 0.20618 0.86789 0.08347 0.0
Fe1 Fe 0.1492 0.88327 0.04015 0.0
O2 O 0.1726 0.85641 0.05835 0.0
Fe3 Fe 0.16222 0.81856 0.05152 0.0
O4 O 0.16028 0.81491 0.0983 0.0
O5 O 0.20383 0.83855 0.11333 0.0
O6 O 0.18282 0.8904 0.11513 0.0
C7 C 0.16584 0.91119 0.10652 0.0
C8 C 0.22848 0.81899 0.04452 0.0
O9 O 0.15765 0.91267 0.07485 0.0
C10 C 0.14827 0.83657 0.98681 0.0
O11 O 0.21479 0.89948 0.0578 0.0
O12 O 0.18136 0.8943 0.01369 0.0
O13 O 0.20294 0.80554 0.04886 0.0
O14 O 0.23156 0.84613 0.05382 0.0
C15 C 0.10466 0.84788 0.06593 0.0
O16 O 0.13616 0.85943 0.00197 0.0
O17 O 0.16321 0.8188 0.00399 0.0
C18 C 0.2067 0.90446 0.02679 0.0
O19 O 0.11601 0.87347 0.06577 0.0
O20 O 0.11972 0.82545 0.05324 0.0
C21 C 0.18161 0.82172 0.12043 0.0
Fe22 Fe 0.67804 0.63577 0.47019 0.0
Fe23 Fe 0.63552 0.68711 0.49706 0.0
O24 O 0.64191 0.64879 0.48754 0.0
Fe25 Fe 0.61242 0.62292 0.49544 0.0
O26 O 0.63715 0.60625 0.5268 0.0
O27 O 0.67708 0.60085 0.49119 0.0
O28 O 0.69865 0.65133 0.50862 0.0
C29 C 0.69777 0.67796 0.52069 0.0
C30 C 0.63778 0.6007 0.43064 0.0
O31 O 0.67633 0.69509 0.51146 0.0
C32 C 0.57809 0.66513 0.46657 0.0
O33 O 0.68604 0.66798 0.4463 0.0
O34 O 0.6435 0.6947 0.45207 0.0
O35 O 0.62383 0.59598 0.45882 0.0
O36 O 0.65903 0.61981 0.43061 0.0
C37 C 0.60644 0.66557 0.55338 0.0
O38 O 0.59374 0.68522 0.48409 0.0
O39 O 0.58612 0.63845 0.46515 0.0
C40 C 0.66774 0.68688 0.43525 0.0
O41 O 0.62695 0.68263 0.54292 0.0
O42 O 0.59527 0.64489 0.53282 0.0
C43 C 0.66348 0.5953 0.51926 0.0
Fe44 Fe 0.84948 0.20731 0.00186 0.0
Fe45 Fe 0.87413 0.14634 0.01689 0.0
O46 O 0.84574 0.16839 0.99821 0.0
Fe47 Fe 0.8134 0.15115 0.97561 0.0
O48 O 0.82546 0.16548 0.93533 0.0
O49 O 0.83243 0.21131 0.95776 0.0
O50 O 0.88729 0.20576 0.98054 0.0
C51 C 0.91053 0.1915 0.99029 0.0
C52 C 0.78646 0.20202 0.01036 0.0
O53 O 0.90713 0.17095 0.01023 0.0
C54 C 0.81689 0.11973 0.03284 0.0
O55 O 0.86756 0.20967 0.04627 0.0
O56 O 0.86694 0.16379 0.06022 0.0
O57 O 0.78635 0.18182 0.98549 0.0
O58 O 0.81187 0.21185 0.0236 0.0
C59 C 0.86309 0.1129 0.95553 0.0
O60 O 0.84609 0.11796 0.02755 0.0
O61 O 0.79993 0.13578 0.0152 0.0
C62 C 0.86888 0.191 0.06914 0.0
O63 O 0.88315 0.12731 0.97434 0.0
O64 O 0.83424 0.11719 0.96089 0.0
C65 C 0.83001 0.19235 0.93135 0.0
Fe66 Fe 0.37459 0.35868 0.55515 0.0
Fe67 Fe 0.31083 0.33768 0.58035 0.0
O68 O 0.34886 0.32977 0.56376 0.0
Fe69 Fe 0.36109 0.29272 0.5555 0.0
O70 O 0.39318 0.29805 0.58661 0.0
O71 O 0.41026 0.33891 0.5665 0.0
O72 O 0.37358 0.37388 0.60059 0.0
C73 C 0.34907 0.38109 0.6174 0.0
C74 C 0.38621 0.32 0.49809 0.0
O75 O 0.32247 0.37189 0.60637 0.0
C76 C 0.30138 0.28956 0.52963 0.0
O77 O 0.34363 0.38342 0.54215 0.0
O78 O 0.30033 0.35724 0.54262 0.0
O79 O 0.38649 0.29946 0.51839 0.0
O80 O 0.37719 0.34546 0.50899 0.0
C81 C 0.3277 0.2925 0.61903 0.0
O82 O 0.29242 0.3048 0.55711 0.0
O83 O 0.33003 0.28545 0.52366 0.0
C84 C 0.31585 0.37813 0.53172 0.0
O85 O 0.31883 0.31885 0.61926 0.0
O86 O 0.33806 0.27895 0.59114 0.0
C87 C 0.41454 0.3169 0.58421 0.0
P88 P 0.04177 0.13381 0.35785 0.0
H89 H 0.06895 0.07546 0.36387 0.0
H90 H 0.09397 0.04014 0.32071 0.0
H91 H 0.06684 0.09383 0.23762 0.0
H92 H 0.04306 0.12909 0.28046 0.0
H93 H 0.04806 0.18742 0.40531 0.0
H94 H 0.09348 0.21671 0.42713 0.0
H95 H 0.15449 0.155 0.36883 0.0
H96 H 0.10958 0.12682 0.34642 0.0
H97 H 0.97365 0.13223 0.35218 0.0
H98 H 0.04916 0.18541 0.31786 0.0
O99 O 0.02503 0.11887 0.39149 0.0
H100 H 0.93702 0.1574 0.3157 0.0
H101 H 0.01313 0.20971 0.28003 0.0
C102 C 0.05394 0.1049 0.32551 0.0
C103 C 0.06787 0.07924 0.33624 0.0
C104 C 0.08218 0.05909 0.31156 0.0
C105 C 0.08282 0.06441 0.27578 0.0
C106 C 0.06743 0.0894 0.26507 0.0
C107 C 0.05343 0.10954 0.28967 0.0
C108 C 0.07528 0.15502 0.37408 0.0
C109 C 0.07127 0.18036 0.3972 0.0
C110 C 0.09724 0.19696 0.40978 0.0
C111 C 0.12764 0.18834 0.3995 0.0
C112 C 0.13143 0.16268 0.3767 0.0
C113 C 0.10556 0.14629 0.36404 0.0
C114 C 0.01404 0.1571 0.33791 0.0
C115 C 0.98222 0.14981 0.33739 0.0
C116 C 0.96136 0.16405 0.31621 0.0
C117 C 0.97212 0.18536 0.29445 0.0
C118 C 0.00382 0.19376 0.29668 0.0
C119 C 0.02455 0.17978 0.31829 0.0
P120 P 0.44625 0.61553 0.86845 0.0
H121 H 0.50854 0.64209 0.86466 0.0
H122 H 0.53739 0.6609 0.81614 0.0
H123 H 0.45567 0.64767 0.74928 0.0
H124 H 0.42733 0.6282 0.79757 0.0
H125 H 0.44112 0.63503 0.94324 0.0
H126 H 0.40879 0.67212 0.97571 0.0
H127 H 0.362 0.68985 0.87925 0.0
H128 H 0.3952 0.65335 0.84644 0.0
H129 H 0.47056 0.55884 0.8418 0.0
H130 H 0.38053 0.60133 0.84751 0.0
O131 O 0.47307 0.60421 0.89627 0.0
H132 H 0.44763 0.51661 0.8071 0.0
H133 H 0.35765 0.55979 0.81161 0.0
C134 C 0.466 0.63327 0.83449 0.0
C135 C 0.49677 0.64347 0.83963 0.0
C136 C 0.51318 0.65443 0.81193 0.0
C137 C 0.49895 0.65545 0.77869 0.0
C138 C 0.46751 0.64662 0.77433 0.0
C139 C 0.4512 0.63565 0.80199 0.0
C140 C 0.42048 0.64124 0.89238 0.0
C141 C 0.42387 0.64673 0.92895 0.0
C142 C 0.40544 0.66796 0.94753 0.0
C143 C 0.38294 0.68371 0.92992 0.0
C144 C 0.37904 0.67777 0.89341 0.0
C145 C 0.39798 0.65694 0.8747 0.0
C146 C 0.42728 0.58315 0.8476 0.0
C147 C 0.44574 0.55893 0.83595 0.0
C148 C 0.43266 0.53494 0.81571 0.0
C149 C 0.40081 0.53485 0.80625 0.0
C150 C 0.38217 0.55892 0.8187 0.0
C151 C 0.39531 0.58288 0.83917 0.0
P152 P 0.82259 0.90085 0.26091 0.0
H153 H 0.82097 0.96449 0.27837 0.0
H154 H 0.80252 0.00462 0.24529 0.0
H155 H 0.76194 0.9414 0.16694 0.0
H156 H 0.78015 0.90121 0.2005 0.0
H157 H 0.78899 0.88982 0.32444 0.0
H158 H 0.75548 0.84958 0.3395 0.0
H159 H 0.7618 0.80981 0.23264 0.0
H160 H 0.79634 0.84993 0.21814 0.0
H161 H 0.85322 0.92447 0.20052 0.0
H162 H 0.86015 0.84715 0.25796 0.0
O163 O 0.83978 0.91418 0.29838 0.0
H164 H 0.89645 0.90702 0.16341 0.0
H165 H 0.90439 0.82989 0.2214 0.0
C166 C 0.80192 0.92991 0.24185 0.0
C167 C 0.80726 0.95922 0.2547 0.0
C168 C 0.79678 0.98215 0.23572 0.0
C169 C 0.78106 0.97607 0.20342 0.0
C170 C 0.77371 0.94672 0.19192 0.0
C171 C 0.78419 0.92374 0.21102 0.0
C172 C 0.7957 0.87238 0.27047 0.0
C173 C 0.78309 0.87249 0.30423 0.0
C174 C 0.76357 0.84961 0.31266 0.0
C175 C 0.75599 0.82637 0.28728 0.0
C176 C 0.76755 0.82714 0.25291 0.0
C177 C 0.78723 0.85005 0.24457 0.0
C178 C 0.85296 0.88679 0.23161 0.0
C179 C 0.86375 0.90353 0.20496 0.0
C180 C 0.88881 0.89366 0.18391 0.0
C181 C 0.90399 0.86708 0.18946 0.0
C182 C 0.89295 0.85024 0.21607 0.0
C183 C 0.86774 0.86011 0.23707 0.0
P184 P 0.7469 0.31803 0.61416 0.0
H185 H 0.78761 0.36221 0.58627 0.0
H186 H 0.78279 0.4157 0.58552 0.0
H187 H 0.70013 0.41376 0.65003 0.0
H188 H 0.70585 0.36084 0.65166 0.0
H189 H 0.80036 0.27873 0.6194 0.0
H190 H 0.82488 0.25729 0.66898 0.0
H191 H 0.76096 0.30559 0.73988 0.0
H192 H 0.73799 0.32833 0.69021 0.0
H193 H 0.69867 0.32716 0.56275 0.0
H194 H 0.70614 0.28344 0.65836 0.0
O195 O 0.76485 0.30616 0.5769 0.0
H196 H 0.64231 0.31863 0.5615 0.0
H197 H 0.64976 0.27611 0.65825 0.0
C198 C 0.74668 0.35759 0.61833 0.0
C199 C 0.76881 0.37347 0.60071 0.0
C200 C 0.76593 0.404 0.60019 0.0
C201 C 0.74083 0.41903 0.61731 0.0
C202 C 0.71993 0.40309 0.63682 0.0
C203 C 0.72298 0.37268 0.63751 0.0
C204 C 0.76705 0.30475 0.65112 0.0
C205 C 0.79195 0.28505 0.64567 0.0
C206 C 0.80581 0.27262 0.67411 0.0
C207 C 0.79457 0.27922 0.7085 0.0
C208 C 0.7705 0.30012 0.71393 0.0
C209 C 0.7571 0.31299 0.68548 0.0
C210 C 0.70664 0.30627 0.61078 0.0
C211 C 0.68822 0.31545 0.58329 0.0
C212 C 0.65594 0.31088 0.58288 0.0
C213 C 0.64138 0.29718 0.61016 0.0
C214 C 0.66016 0.28669 0.63679 0.0
C215 C 0.69254 0.29112 0.63703 0.0
P216 P 0.53484 0.36995 0.17768 0.0
H217 H 0.56507 0.42379 0.15783 0.0
H218 H 0.5895 0.46545 0.19217 0.0
H219 H 0.56994 0.42375 0.28766 0.0
H220 H 0.54963 0.38128 0.25291 0.0
H221 H 0.52792 0.31614 0.13107 0.0
H222 H 0.56549 0.28329 0.10003 0.0
H223 H 0.64128 0.3374 0.14549 0.0
H224 H 0.60379 0.36858 0.17818 0.0
H225 H 0.48638 0.39516 0.22299 0.0
H226 H 0.52534 0.30884 0.1977 0.0
O227 O 0.51367 0.38367 0.14606 0.0
H228 H 0.45906 0.37757 0.27206 0.0
H229 H 0.49466 0.28964 0.24378 0.0
C230 C 0.5544 0.39998 0.20286 0.0
C231 C 0.56646 0.42369 0.18618 0.0
C232 C 0.58015 0.44768 0.20604 0.0
C233 C 0.58132 0.4487 0.24312 0.0
C234 C 0.57012 0.42413 0.25937 0.0
C235 C 0.55765 0.3998 0.2394 0.0
C236 C 0.56293 0.34467 0.15715 0.0
C237 C 0.55268 0.32053 0.13478 0.0
C238 C 0.57426 0.30198 0.11671 0.0
C239 C 0.60661 0.3077 0.1199 0.0
C240 C 0.61671 0.33185 0.14271 0.0
C241 C 0.59511 0.35001 0.1613 0.0
C242 C 0.50836 0.35355 0.20702 0.0
C243 C 0.48806 0.37201 0.22726 0.0
C244 C 0.47204 0.36162 0.25542 0.0
C245 C 0.47469 0.33195 0.26306 0.0
C246 C 0.49282 0.31287 0.24022 0.0
C247 C 0.51005 0.32371 0.21304 0.0
P248 P 0.24191 0.2005 0.95588 0.0
H249 H 0.28789 0.16361 0.98889 0.0
H250 H 0.29149 0.11004 0.9921 0.0
H251 H 0.20417 0.09855 0.93496 0.0
H252 H 0.20052 0.1517 0.93216 0.0
H253 H 0.27259 0.25253 0.93184 0.0
H254 H 0.29388 0.26324 0.87479 0.0
H255 H 0.26759 0.17579 0.8314 0.0
H256 H 0.24705 0.16518 0.8881 0.0
H257 H 0.19841 0.20806 0.01404 0.0
H258 H 0.1961 0.2151 0.90201 0.0
O259 O 0.26164 0.2189 0.98872 0.0
H260 H 0.14189 0.21608 0.01663 0.0
H261 H 0.13969 0.22271 0.90431 0.0
C262 C 0.24372 0.16161 0.96077 0.0
C263 C 0.26938 0.14953 0.97745 0.0
C264 C 0.27146 0.11902 0.97919 0.0
C265 C 0.24823 0.10025 0.96353 0.0
C266 C 0.22259 0.11251 0.94688 0.0
C267 C 0.22033 0.14291 0.9456 0.0
C268 C 0.2589 0.20786 0.9145 0.0
C269 C 0.27182 0.23559 0.9101 0.0
C270 C 0.28374 0.24174 0.87745 0.0
C271 C 0.2827 0.22025 0.84865 0.0
C272 C 0.26944 0.19259 0.85322 0.0
C273 C 0.25756 0.18651 0.88576 0.0
C274 C 0.20152 0.2114 0.95799 0.0
C275 C 0.18582 0.2119 0.99013 0.0
C276 C 0.15351 0.2162 0.9915 0.0
C277 C 0.1363 0.21993 0.96064 0.0
C278 C 0.15231 0.2203 0.9286 0.0
C279 C 0.18463 0.2159 0.92727 0.0
P280 P 0.29098 0.5943 0.29063 0.0
H281 H 0.30036 0.53085 0.28151 0.0
H282 H 0.29136 0.49179 0.3202 0.0
H283 H 0.24525 0.55388 0.39449 0.0
H284 H 0.25434 0.59301 0.35567 0.0
H285 H 0.2537 0.60757 0.22973 0.0
H286 H 0.22259 0.65015 0.21803 0.0
H287 H 0.23051 0.68317 0.32751 0.0
H288 H 0.26301 0.64088 0.33863 0.0
H289 H 0.34315 0.57018 0.32834 0.0
H290 H 0.31512 0.6554 0.2981 0.0
O291 O 0.30236 0.58005 0.251 0.0
H292 H 0.38985 0.59199 0.3563 0.0
H293 H 0.36072 0.67785 0.32826 0.0
C294 C 0.27771 0.56484 0.31544 0.0
C295 C 0.28754 0.53598 0.30562 0.0
C296 C 0.28259 0.51369 0.32786 0.0
C297 C 0.26771 0.51987 0.36037 0.0
C298 C 0.25647 0.54846 0.3694 0.0
C299 C 0.26169 0.57086 0.3472 0.0
C300 C 0.26107 0.62126 0.28492 0.0
C301 C 0.24822 0.62359 0.25143 0.0
C302 C 0.23008 0.64795 0.24485 0.0
C303 C 0.22427 0.67035 0.27178 0.0
C304 C 0.23494 0.66656 0.30607 0.0
C305 C 0.25324 0.64219 0.31257 0.0
C306 C 0.32488 0.61125 0.31231 0.0
C307 C 0.34662 0.59374 0.32843 0.0
C308 C 0.37333 0.60636 0.34469 0.0
C309 C 0.37887 0.63691 0.34536 0.0
C310 C 0.35734 0.6543 0.32836 0.0
C311 C 0.33086 0.6415 0.31153 0.0
P312 P 0.8886 0.82264 0.79106 0.0
H313 H 0.85443 0.85904 0.84471 0.0
H314 H 0.85483 0.91182 0.86186 0.0
H315 H 0.91535 0.92567 0.77455 0.0
H316 H 0.91453 0.87257 0.75715 0.0
H317 H 0.91392 0.78211 0.73381 0.0
H318 H 0.89011 0.7586 0.68078 0.0
H319 H 0.80505 0.80764 0.70354 0.0
H320 H 0.83029 0.83309 0.75507 0.0
H321 H 0.92073 0.80057 0.85078 0.0
H322 H 0.94564 0.82782 0.74912 0.0
O323 O 0.86691 0.80593 0.81971 0.0
H324 H 0.9756 0.79543 0.86543 0.0
H325 H 0.00099 0.82153 0.763 0.0
C326 C 0.88457 0.86186 0.79974 0.0
C327 C 0.86731 0.8734 0.82879 0.0
C328 C 0.86749 0.90364 0.83854 0.0
C329 C 0.88523 0.92285 0.8196 0.0
C330 C 0.90172 0.91132 0.78979 0.0
C331 C 0.90119 0.88103 0.77979 0.0
C332 C 0.87414 0.8099 0.74808 0.0
C333 C 0.8907 0.78888 0.72667 0.0
C334 C 0.8767 0.77491 0.69655 0.0
C335 C 0.84534 0.78069 0.68807 0.0
C336 C 0.82931 0.80278 0.70882 0.0
C337 C 0.84368 0.81731 0.73847 0.0
C338 C 0.92902 0.81407 0.79863 0.0
C339 C 0.93801 0.80457 0.83112 0.0
C340 C 0.96956 0.80142 0.83938 0.0
C341 C 0.99288 0.80778 0.81527 0.0
C342 C 0.9837 0.81658 0.78226 0.0
C343 C 0.95204 0.82 0.77419 0.0
H344 H 0.13783 0.91324 0.17115 0.0
H345 H 0.18096 0.96732 0.0967 0.0
H346 H 0.16819 0.01215 0.13493 0.0
H347 H 0.07366 0.95998 0.18934 0.0
H348 H 0.07102 0.95411 0.23535 0.0
H349 H 0.08726 0.92593 0.20489 0.0
H350 H 0.138 0.92596 0.2423 0.0
H351 H 0.12187 0.95413 0.27301 0.0
H352 H 0.159 0.96002 0.25262 0.0
H353 H 0.14809 0.05079 0.17828 0.0
H354 H 0.12014 0.08188 0.22369 0.0
H355 H 0.08675 0.00355 0.26924 0.0
C356 C 0.14521 0.93455 0.16358 0.0
C357 C 0.16076 0.93708 0.13146 0.0
C358 C 0.16926 0.96517 0.12147 0.0
C359 C 0.16218 0.99066 0.14301 0.0
C360 C 0.14629 0.98763 0.17424 0.0
C361 C 0.13778 0.96037 0.18457 0.0
C362 C 0.11839 0.96366 0.21786 0.0
C363 C 0.08564 0.95012 0.21145 0.0
C364 C 0.13534 0.95014 0.24825 0.0
C365 C 0.11689 0.99698 0.22413 0.0
C366 C 0.13353 0.01025 0.19886 0.0
C367 C 0.13499 0.0407 0.19827 0.0
C368 C 0.11876 0.05816 0.224 0.0
C369 C 0.1009 0.04519 0.24981 0.0
C370 C 0.10036 0.01413 0.25006 0.0
H371 H 0.55989 0.63441 0.58192 0.0
H372 H 0.62409 0.70741 0.60656 0.0
H373 H 0.60266 0.71413 0.6669 0.0
H374 H 0.49442 0.66511 0.631 0.0
H375 H 0.48234 0.63 0.64486 0.0
H376 H 0.50235 0.63169 0.60369 0.0
H377 H 0.54438 0.59553 0.62351 0.0
H378 H 0.52448 0.59367 0.66469 0.0
H379 H 0.56512 0.60423 0.66442 0.0
H380 H 0.57445 0.71161 0.72548 0.0
H381 H 0.54232 0.70016 0.77637 0.0
H382 H 0.49777 0.6286 0.71186 0.0
C383 C 0.56946 0.65196 0.59983 0.0
C384 C 0.59365 0.67045 0.58942 0.0
C385 C 0.60548 0.69303 0.61388 0.0
C386 C 0.59345 0.697 0.64819 0.0
C387 C 0.5696 0.67827 0.65751 0.0
C388 C 0.55778 0.65622 0.63392 0.0
C389 C 0.53263 0.6386 0.65029 0.0
C390 C 0.50107 0.64154 0.63133 0.0
C391 C 0.54224 0.60609 0.65076 0.0
C392 C 0.53214 0.65401 0.68695 0.0
C393 C 0.55354 0.67688 0.69074 0.0
C394 C 0.55757 0.69381 0.72271 0.0
C395 C 0.53933 0.68707 0.7515 0.0
C396 C 0.51735 0.66363 0.74806 0.0
C397 C 0.51383 0.64706 0.71523 0.0
H398 H 0.84629 0.09749 0.08759 0.0
H399 H 0.75613 0.09937 0.03508 0.0
H400 H 0.735 0.06474 0.07593 0.0
H401 H 0.84676 0.02248 0.10026 0.0
H402 H 0.86568 0.02724 0.14275 0.0
H403 H 0.87239 0.0535 0.111 0.0
H404 H 0.8542 0.09577 0.15587 0.0
H405 H 0.84777 0.06972 0.18801 0.0
H406 H 0.81654 0.09366 0.17638 0.0
H407 H 0.72594 0.02575 0.11979 0.0
H408 H 0.72921 0.98877 0.16391 0.0
H409 H 0.82509 0.0152 0.18716 0.0
C410 C 0.82201 0.09078 0.08474 0.0
C411 C 0.80288 0.10082 0.05806 0.0
C412 C 0.77115 0.09187 0.05544 0.0
C413 C 0.75901 0.07223 0.07847 0.0
C414 C 0.77882 0.0623 0.10416 0.0
C415 C 0.80956 0.07163 0.10754 0.0
C416 C 0.82652 0.05738 0.1364 0.0
C417 C 0.85447 0.03906 0.12171 0.0
C418 C 0.83684 0.08051 0.16596 0.0
C419 C 0.8008 0.03804 0.14845 0.0
C420 C 0.77337 0.04102 0.12971 0.0
C421 C 0.74714 0.02367 0.13501 0.0
C422 C 0.74919 0.00273 0.15999 0.0
C423 C 0.77717 -0.00036 0.17939 0.0
C424 C 0.80306 0.01773 0.17356 0.0
H425 H 0.46704 0.35098 0.58036 0.0
H426 H 0.43468 0.26783 0.61496 0.0
H427 H 0.48916 0.25456 0.62829 0.0
H428 H 0.53341 0.32363 0.53686 0.0
H429 H 0.55787 0.35512 0.54945 0.0
H430 H 0.51618 0.35953 0.54614 0.0
H431 H 0.51443 0.38279 0.61057 0.0
H432 H 0.55622 0.37884 0.61396 0.0
H433 H 0.53109 0.36313 0.64521 0.0
H434 H 0.5478 0.24844 0.63245 0.0
H435 H 0.60547 0.25116 0.62989 0.0
H436 H 0.59872 0.33881 0.59388 0.0
C437 C 0.47126 0.3302 0.59135 0.0
C438 C 0.44652 0.31045 0.59654 0.0
C439 C 0.45319 0.28339 0.6108 0.0
C440 C 0.48409 0.27562 0.61842 0.0
C441 C 0.50798 0.29525 0.61196 0.0
C442 C 0.50186 0.32214 0.59915 0.0
C443 C 0.53172 0.33876 0.59303 0.0
C444 C 0.53497 0.34459 0.55406 0.0
C445 C 0.53346 0.36758 0.61714 0.0
C446 C 0.55566 0.31672 0.60356 0.0
C447 C 0.54158 0.29183 0.61459 0.0
C448 C 0.55908 0.26801 0.62432 0.0
C449 C 0.59182 0.26979 0.62285 0.0
C450 C 0.60671 0.29517 0.61164 0.0
C451 C 0.58818 0.31891 0.60211 0.0
H452 H 0.63449 0.54072 0.4213 0.0
H453 H 0.62593 0.61995 0.36674 0.0
H454 H 0.61261 0.58969 0.31149 0.0
H455 H 0.67159 0.49723 0.3478 0.0
H456 H 0.65256 0.46351 0.35736 0.0
H457 H 0.66117 0.4915 0.39243 0.0
H458 H 0.60279 0.4926 0.41031 0.0
H459 H 0.59399 0.46469 0.3753 0.0
H460 H 0.57331 0.49924 0.37793 0.0
H461 H 0.5952 0.55097 0.26435 0.0
H462 H 0.57965 0.50678 0.22692 0.0
H463 H 0.60812 0.45234 0.30989 0.0
C464 C 0.62981 0.55155 0.39762 0.0
C465 C 0.63079 0.58248 0.39797 0.0
C466 C 0.62513 0.59616 0.36665 0.0
C467 C 0.61758 0.57921 0.33531 0.0
C468 C 0.61669 0.54866 0.33572 0.0
C469 C 0.62324 0.53492 0.36587 0.0
C470 C 0.6215 0.50175 0.35898 0.0
C471 C 0.65362 0.48768 0.36446 0.0
C472 C 0.5964 0.48882 0.38199 0.0
C473 C 0.61201 0.49902 0.32053 0.0
C474 C 0.60912 0.5263 0.30769 0.0
C475 C 0.59816 0.52941 0.27379 0.0
C476 C 0.58965 0.50395 0.25252 0.0
C477 C 0.59272 0.47555 0.26491 0.0
C478 C 0.6048 0.47337 0.29928 0.0
H479 H 0.96584 0.16904 0.01236 0.0
H480 H 0.92778 0.23426 0.94735 0.0
H481 H 0.98149 0.24944 0.9332 0.0
H482 H 0.03008 0.21258 0.04822 0.0
H483 H 0.05651 0.18179 0.04783 0.0
H484 H 0.01512 0.17603 0.0525 0.0
H485 H 0.01538 0.13745 0.99839 0.0
H486 H 0.05679 0.14296 0.99366 0.0
H487 H 0.03075 0.14757 0.9572 0.0
H488 H 0.03987 0.25716 0.92605 0.0
H489 H 0.09776 0.25655 0.9264 0.0
H490 H 0.09651 0.18622 0.9962 0.0
C491 C 0.96867 0.1865 0.99508 0.0
C492 C 0.94253 0.20047 0.98099 0.0
C493 C 0.94743 0.22325 0.95852 0.0
C494 C 0.97784 0.23203 0.95034 0.0
C495 C 0.00305 0.21786 0.96489 0.0
C496 C 0.99872 0.19556 0.98676 0.0
C497 C 0.02957 0.18378 0.99904 0.0
C498 C 0.03301 0.18886 0.03928 0.0
C499 C 0.03334 0.151 0.98629 0.0
C500 C 0.05204 0.20288 0.98063 0.0
C501 C 0.03637 0.22241 0.96102 0.0
C502 C 0.05236 0.24198 0.94135 0.0
C503 C 0.0852 0.24141 0.9416 0.0
C504 C 0.10164 0.22147 0.96149 0.0
C505 C 0.08467 0.2021 0.98127 0.0
H506 H 0.3448 0.40576 0.48076 0.0
H507 H 0.25408 0.394 0.52769 0.0
H508 H 0.23073 0.42835 0.48778 0.0
H509 H 0.33919 0.48121 0.46834 0.0
H510 H 0.35835 0.47816 0.42624 0.0
H511 H 0.36732 0.45237 0.45801 0.0
H512 H 0.35201 0.4083 0.41295 0.0
H513 H 0.34478 0.43434 0.38086 0.0
H514 H 0.31476 0.4085 0.39081 0.0
H515 H 0.21861 0.46701 0.44479 0.0
H516 H 0.21806 0.50335 0.39986 0.0
H517 H 0.31638 0.48661 0.37993 0.0
C518 C 0.32002 0.41048 0.48268 0.0
C519 C 0.30125 0.39764 0.50749 0.0
C520 C 0.26881 0.40376 0.50882 0.0
C521 C 0.25541 0.42323 0.48633 0.0
C522 C 0.27472 0.43578 0.4623 0.0
C523 C 0.30624 0.42924 0.46005 0.0
C524 C 0.32192 0.44496 0.43162 0.0
C525 C 0.34824 0.46539 0.44699 0.0
C526 C 0.33408 0.42272 0.40228 0.0
C527 C 0.29462 0.46222 0.41893 0.0
C528 C 0.26752 0.4567 0.4368 0.0
C529 C 0.23961 0.47119 0.43034 0.0
C530 C 0.23951 0.4918 0.40494 0.0
C531 C 0.26705 0.4974 0.38618 0.0
C532 C 0.2948 0.48227 0.39331 0.0
H533 H 0.11733 0.78745 0.9605 0.0
H534 H 0.15665 0.86966 0.93225 0.0
H535 H 0.1296 0.86328 0.87474 0.0
H536 H 0.10958 0.74889 0.86547 0.0
H537 H 0.07255 0.7333 0.87666 0.0
H538 H 0.10315 0.73854 0.90942 0.0
H539 H 0.06509 0.76894 0.95062 0.0
H540 H 0.03466 0.76419 0.91808 0.0
H541 H 0.04616 0.80079 0.93518 0.0
H542 H 0.089 0.85556 0.82942 0.0
H543 H 0.03775 0.84794 0.80068 0.0
H544 H 0.0231 0.77019 0.85682 0.0
C545 C 0.12161 0.80304 0.94116 0.0
C546 C 0.13958 0.82858 0.95 0.0
C547 C 0.14345 0.84964 0.9253 0.0
C548 C 0.12824 0.84611 0.8926 0.0
C549 C 0.10912 0.82148 0.88519 0.0
C550 C 0.10596 0.80007 0.90865 0.0
C551 C 0.07939 0.77909 0.89773 0.0
C552 C 0.09193 0.74812 0.88665 0.0
C553 C 0.0549 0.77825 0.92713 0.0
C554 C 0.06653 0.79348 0.86633 0.0
C555 C 0.08466 0.81726 0.85879 0.0
C556 C 0.07516 0.83641 0.83422 0.0
C557 C 0.04592 0.83183 0.81788 0.0
C558 C 0.02631 0.80839 0.82637 0.0
C559 C 0.03753 0.7883 0.84975 0.0
H560 H 0.82567 0.07057 0.92198 0.0
H561 H 0.92259 0.09864 0.93295 0.0
H562 H 0.93846 0.05526 0.89357 0.0
H563 H 0.83957 0.99585 0.92664 0.0
H564 H 0.80955 0.98351 0.89534 0.0
H565 H 0.80571 0.01845 0.9207 0.0
H566 H 0.79972 0.04453 0.86325 0.0
H567 H 0.80355 0.0096 0.83763 0.0
H568 H 0.82936 0.03968 0.82989 0.0
H569 H 0.94381 0.00673 0.85633 0.0
H570 H 0.93856 0.95618 0.82745 0.0
H571 H 0.83816 0.96022 0.84221 0.0
C572 C 0.85022 0.06796 0.9157 0.0
C573 C 0.87289 0.08808 0.93047 0.0
C574 C 0.9048 0.08352 0.92192 0.0
C575 C 0.91401 0.05904 0.89946 0.0
C576 C 0.89101 0.03941 0.88577 0.0
C577 C 0.85977 0.04366 0.89365 0.0
C578 C 0.83982 0.01831 0.87798 0.0
C579 C 0.82267 0.00314 0.90689 0.0
C580 C 0.81675 0.02866 0.85055 0.0
C581 C 0.86478 0.99867 0.86078 0.0
C582 C 0.89411 0.01139 0.86499 0.0
C583 C 0.92092 0.99673 0.85255 0.0
C584 C 0.91771 0.9681 0.83604 0.0
C585 C 0.88795 0.95438 0.83255 0.0
C586 C 0.86119 0.97018 0.84454 0.0
H587 H 0.37793 0.35274 0.4416 0.0
H588 H 0.42574 0.27567 0.47465 0.0
H589 H 0.45059 0.26797 0.41643 0.0
H590 H 0.36299 0.32341 0.35093 0.0
H591 H 0.36956 0.35849 0.33363 0.0
H592 H 0.35488 0.35709 0.37762 0.0
H593 H 0.40228 0.38987 0.4028 0.0
H594 H 0.41485 0.39169 0.35809 0.0
H595 H 0.44121 0.37872 0.39042 0.0
H596 H 0.47487 0.27227 0.35752 0.0
H597 H 0.49409 0.28578 0.30092 0.0
H598 H 0.42457 0.35568 0.30243 0.0
C599 C 0.39347 0.33414 0.43648 0.0
C600 C 0.39998 0.31485 0.46267 0.0
C601 C 0.42033 0.29068 0.45494 0.0
C602 C 0.43459 0.28612 0.42196 0.0
C603 C 0.42784 0.30563 0.3968 0.0
C604 C 0.40752 0.32896 0.4035 0.0
C605 C 0.40473 0.34695 0.37206 0.0
C606 C 0.37104 0.34645 0.35771 0.0
C607 C 0.41643 0.37868 0.38138 0.0
C608 C 0.42676 0.33016 0.34674 0.0
C609 C 0.44019 0.3067 0.36172 0.0
C610 C 0.46385 0.29005 0.34502 0.0
C611 C 0.4744 0.29785 0.31236 0.0
C612 C 0.4609 0.3218 0.29607 0.0
C613 C 0.43607 0.3375 0.31354 0.0
H614 H 0.23606 0.95314 0.05807 0.0
H615 H 0.21003 0.90982 0.95634 0.0
H616 H 0.22668 0.95382 0.9277 0.0
H617 H 0.20433 0.01883 0.04415 0.0
H618 H 0.23339 0.04195 0.06727 0.0
H619 H 0.22707 0.00512 0.07919 0.0
H620 H 0.28551 0.99277 0.06897 0.0
H621 H 0.29233 0.02983 0.0575 0.0
H622 H 0.30316 0.99888 0.02742 0.0
H623 H 0.23711 0.00442 0.9115 0.0
H624 H 0.24074 0.05828 0.9087 0.0
H625 H 0.25872 0.06959 0.02106 0.0
C626 C 0.23522 0.95247 0.02962 0.0
C627 C 0.2223 0.928 0.00926 0.0
C628 C 0.22023 0.9283 0.97226 0.0
C629 C 0.2297 0.95314 0.95581 0.0
C630 C 0.24113 0.97745 0.97676 0.0
C631 C 0.24413 0.97728 0.01287 0.0
C632 C 0.25276 0.00755 0.02985 0.0
C633 C 0.2279 0.01902 0.05667 0.0
C634 C 0.28539 0.00723 0.04694 0.0
C635 C 0.25283 0.02503 0.99784 0.0
C636 C 0.24664 0.00712 0.96742 0.0
C637 C 0.24262 0.01858 0.93499 0.0
C638 C 0.24451 0.04916 0.93369 0.0
C639 C 0.25019 0.06792 0.96463 0.0
C640 C 0.25508 0.05562 0.99692 0.0
H641 H 0.52394 0.63643 0.47506 0.0
H642 H 0.56452 0.70758 0.42207 0.0
H643 H 0.51503 0.71197 0.38833 0.0
H644 H 0.4861 0.6013 0.4046 0.0
H645 H 0.45172 0.59113 0.42786 0.0
H646 H 0.48828 0.59662 0.45101 0.0
H647 H 0.46282 0.63557 0.49543 0.0
H648 H 0.42592 0.6299 0.47272 0.0
H649 H 0.44247 0.6664 0.47942 0.0
H650 H 0.46411 0.70238 0.35406 0.0
H651 H 0.41534 0.68289 0.32584 0.0
H652 H 0.4072 0.62074 0.40551 0.0
C653 C 0.52203 0.65346 0.457 0.0
C654 C 0.5477 0.67174 0.451 0.0
C655 C 0.54477 0.69366 0.42714 0.0
C656 C 0.51686 0.69619 0.40789 0.0
C657 C 0.49215 0.67709 0.41364 0.0
C658 C 0.49433 0.65659 0.43825 0.0
C659 C 0.46539 0.63753 0.43836 0.0
C660 C 0.47337 0.60472 0.42994 0.0
C661 C 0.44812 0.64267 0.47357 0.0
C662 C 0.44703 0.64949 0.40882 0.0
C663 C 0.46265 0.67237 0.39492 0.0
C664 C 0.45132 0.685 0.36535 0.0
C665 C 0.42347 0.67381 0.34955 0.0
C666 C 0.40719 0.65024 0.36339 0.0
C667 C 0.41905 0.63852 0.39389 0.0
H668 H 0.39909 0.41594 0.63966 0.0
H669 H 0.30373 0.39444 0.66658 0.0
H670 H 0.30692 0.43039 0.71883 0.0
H671 H 0.42959 0.4262 0.72843 0.0
H672 H 0.45434 0.4567 0.71941 0.0
H673 H 0.44487 0.42856 0.68483 0.0
H674 H 0.42339 0.46834 0.64644 0.0
H675 H 0.43285 0.49659 0.68085 0.0
H676 H 0.39346 0.49321 0.66384 0.0
H677 H 0.32043 0.46929 0.76792 0.0
H678 H 0.34287 0.50871 0.80921 0.0
H679 H 0.42854 0.5057 0.74857 0.0
C680 C 0.37891 0.41862 0.65663 0.0
C681 C 0.35115 0.40234 0.64901 0.0
C682 C 0.32521 0.40674 0.67178 0.0
C683 C 0.32682 0.42705 0.70159 0.0
C684 C 0.35448 0.44286 0.7082 0.0
C685 C 0.38002 0.43894 0.6863 0.0
C686 C 0.40666 0.45929 0.69864 0.0
C687 C 0.43557 0.44163 0.70841 0.0
C688 C 0.41453 0.48062 0.67078 0.0
C689 C 0.39211 0.47532 0.73089 0.0
C690 C 0.36207 0.46546 0.73609 0.0
C691 C 0.34393 0.47722 0.76408 0.0
C692 C 0.35681 0.49973 0.78727 0.0
C693 C 0.38751 0.51036 0.78227 0.0
C694 C 0.40524 0.49781 0.75362 0.0
H695 H 0.06715 0.89106 0.09688 0.0
H696 H 0.07066 0.7967 0.06864 0.0
H697 H 0.01889 0.79114 0.09589 0.0
H698 H 0.033 0.88751 0.18031 0.0
H699 H 0.00922 0.91985 0.17743 0.0
H700 H 0.04552 0.91627 0.1539 0.0
H701 H 0.01658 0.92374 0.0956 0.0
H702 H 0.98006 0.92732 0.1188 0.0
H703 H 0.98407 0.90008 0.08194 0.0
H704 H 0.96705 0.79608 0.12821 0.0
H705 H 0.91976 0.81115 0.16215 0.0
H706 H 0.95192 0.90196 0.16979 0.0
C707 C 0.05699 0.86921 0.096 0.0
C708 C 0.07296 0.84433 0.08043 0.0
C709 C 0.05884 0.81612 0.08028 0.0
C710 C 0.02944 0.81274 0.09569 0.0
C711 C 0.01451 0.83777 0.11109 0.0
C712 C 0.02783 0.86544 0.11123 0.0
C713 C 0.00757 0.88876 0.13027 0.0
C714 C 0.02485 0.90397 0.16241 0.0
C715 C 0.99641 0.9113 0.10515 0.0
C716 C 0.98082 0.86989 0.14116 0.0
C717 C 0.98509 0.84055 0.12979 0.0
C718 C 0.96346 0.81901 0.13718 0.0
C719 C 0.93678 0.82775 0.15665 0.0
C720 C 0.93201 0.85776 0.16852 0.0
C721 C 0.95449 0.87894 0.16059 0.0
H722 H 0.7018 0.54912 0.49894 0.0
H723 H 0.65471 0.59233 0.58956 0.0
H724 H 0.6757 0.555 0.62674 0.0
H725 H 0.68399 0.47753 0.51846 0.0
H726 H 0.72032 0.46163 0.50254 0.0
H727 H 0.7053 0.49399 0.4845 0.0
H728 H 0.75737 0.52143 0.50045 0.0
H729 H 0.77246 0.48913 0.51884 0.0
H730 H 0.77151 0.52389 0.54524 0.0
H731 H 0.69904 0.51143 0.65305 0.0
H732 H 0.71847 0.46236 0.66538 0.0
H733 H 0.74722 0.44623 0.55646 0.0
C734 C 0.69646 0.55103 0.52676 0.0
C735 C 0.67692 0.57365 0.54155 0.0
C736 C 0.6697 0.57509 0.57782 0.0
C737 C 0.6817 0.55416 0.59916 0.0
C738 C 0.70068 0.5319 0.58371 0.0
C739 C 0.70778 0.53005 0.54827 0.0
C740 C 0.72581 0.50226 0.53734 0.0
C741 C 0.70777 0.4827 0.50906 0.0
C742 C 0.75874 0.50963 0.52473 0.0
C743 C 0.72712 0.48844 0.57199 0.0
C744 C 0.7131 0.50616 0.59856 0.0
C745 C 0.71021 0.49741 0.63249 0.0
C746 C 0.72115 0.46943 0.63918 0.0
C747 C 0.73433 0.45035 0.6119 0.0
C748 C 0.73794 0.46043 0.57813 0.0
H749 H 0.86749 0.15706 0.12431 0.0
H750 H 0.89152 0.2449 0.09736 0.0
H751 H 0.91438 0.25606 0.15692 0.0
H752 H 0.85218 0.17595 0.22051 0.0
H753 H 0.86905 0.14128 0.23011 0.0
H754 H 0.84916 0.14448 0.18878 0.0
H755 H 0.9006 0.12473 0.15625 0.0
H756 H 0.91887 0.12251 0.19847 0.0
H757 H 0.93673 0.144 0.16643 0.0
H758 H 0.94151 0.25454 0.21662 0.0
H759 H 0.9698 0.24065 0.2695 0.0
H760 H 0.92903 0.15308 0.25435 0.0
C761 C 0.87682 0.17896 0.1311 0.0
C762 C 0.8777 0.20011 0.10614 0.0
C763 C 0.89034 0.22841 0.11613 0.0
C764 C 0.90339 0.23492 0.14991 0.0
C765 C 0.90327 0.21301 0.17338 0.0
C766 C 0.89001 0.18568 0.16435 0.0
C767 C 0.89567 0.16473 0.19233 0.0
C768 C 0.86469 0.15608 0.20892 0.0
C769 C 0.91403 0.1374 0.1775 0.0
C770 C 0.91521 0.18408 0.2181 0.0
C771 C 0.919 0.21203 0.20718 0.0
C772 C 0.93826 0.23285 0.22562 0.0
C773 C 0.95443 0.22468 0.2555 0.0
C774 C 0.95154 0.19579 0.2664 0.0
C775 C 0.93112 0.17561 0.24763 0.0
H776 H 0.15399 0.76958 0.13328 0.0
H777 H 0.21369 0.83939 0.18078 0.0
H778 H 0.22194 0.81105 0.23234 0.0
H779 H 0.1213 0.74433 0.21806 0.0
H780 H 0.12271 0.7063 0.20062 0.0
H781 H 0.11539 0.73481 0.17163 0.0
H782 H 0.16217 0.7163 0.13299 0.0
H783 H 0.16965 0.68792 0.16177 0.0
H784 H 0.20024 0.71353 0.15304 0.0
H785 H 0.2313 0.77231 0.27279 0.0
H786 H 0.24357 0.72547 0.29717 0.0
H787 H 0.17756 0.68019 0.22421 0.0
C788 C 0.16786 0.77936 0.15512 0.0
C789 C 0.18302 0.80675 0.15321 0.0
C790 C 0.2018 0.81845 0.18179 0.0
C791 C 0.20641 0.80263 0.2113 0.0
C792 C 0.19199 0.77519 0.21187 0.0
C793 C 0.17299 0.76367 0.18456 0.0
C794 C 0.16408 0.73202 0.18906 0.0
C795 C 0.12877 0.72921 0.19522 0.0
C796 C 0.17469 0.71124 0.15735 0.0
C797 C 0.18255 0.72699 0.222 0.0
C798 C 0.19775 0.75241 0.2353 0.0
C799 C 0.21889 0.75245 0.26324 0.0
C800 C 0.22559 0.72565 0.27708 0.0
C801 C 0.21141 0.69907 0.26277 0.0
C802 C 0.1887 0.70011 0.23581 0.0
H803 H 0.70977 0.73542 0.54732 0.0
H804 H 0.744 0.64565 0.548 0.0
H805 H 0.7868 0.66302 0.58767 0.0
H806 H 0.78677 0.7708 0.54966 0.0
H807 H 0.77444 0.80207 0.57839 0.0
H808 H 0.74675 0.78307 0.54861 0.0
H809 H 0.71039 0.77481 0.60094 0.0
H810 H 0.73793 0.7938 0.63085 0.0
H811 H 0.72557 0.75689 0.63779 0.0
H812 H 0.82378 0.68864 0.62937 0.0
H813 H 0.85343 0.72151 0.67164 0.0
H814 H 0.79797 0.79582 0.6429 0.0
C815 C 0.72637 0.71948 0.55567 0.0
C816 C 0.7235 0.68918 0.54434 0.0
C817 C 0.74569 0.669 0.55604 0.0
C818 C 0.77017 0.67862 0.57861 0.0
C819 C 0.77236 0.70851 0.58921 0.0
C820 C 0.75121 0.72873 0.5782 0.0
C821 C 0.75874 0.75951 0.59454 0.0
C822 C 0.76718 0.78007 0.5661 0.0
C823 C 0.73154 0.77198 0.61739 0.0
C824 C 0.78705 0.75318 0.61685 0.0
C825 C 0.79447 0.72361 0.61314 0.0
C826 C 0.81863 0.71197 0.63211 0.0
C827 C 0.83559 0.731 0.65587 0.0
C828 C 0.82857 0.76153 0.66038 0.0
C829 C 0.80405 0.77268 0.64021 0.0
H830 H 0.77276 0.23371 0.07308 0.0
H831 H 0.73246 0.20181 0.97208 0.0
H832 H 0.68217 0.22481 0.98943 0.0
H833 H 0.70353 0.22131 0.12388 0.0
H834 H 0.70924 0.25377 0.15377 0.0
H835 H 0.74245 0.23526 0.13329 0.0
H836 H 0.7599 0.28396 0.10873 0.0
H837 H 0.72676 0.30262 0.12913 0.0
H838 H 0.73291 0.3033 0.08251 0.0
H839 H 0.63704 0.25262 0.01647 0.0
H840 H 0.59896 0.28188 0.05251 0.0
H841 H 0.66688 0.29254 0.13806 0.0
C842 C 0.75336 0.23171 0.05461 0.0
C843 C 0.75654 0.2161 0.02117 0.0
C844 C 0.73054 0.21361 0.99787 0.0
C845 C 0.70188 0.22664 0.00743 0.0
C846 C 0.69947 0.24178 0.04057 0.0
C847 C 0.72436 0.24421 0.06395 0.0
C848 C 0.71517 0.26119 0.09824 0.0
C849 C 0.71775 0.24171 0.12912 0.0
C850 C 0.73486 0.28944 0.10503 0.0
C851 C 0.68137 0.26819 0.09023 0.0
C852 C 0.67288 0.25688 0.05677 0.0
C853 C 0.64323 0.26126 0.04294 0.0
C854 C 0.62162 0.27773 0.06384 0.0
C855 C 0.62957 0.28939 0.09846 0.0
C856 C 0.65993 0.28427 0.1117 0.0
H857 H 0.3005 0.31266 0.6815 0.0
H858 H 0.34786 0.23686 0.6294 0.0
H859 H 0.34335 0.21094 0.68334 0.0
H860 H 0.33507 0.30819 0.76738 0.0
H861 H 0.29977 0.31894 0.79057 0.0
H862 H 0.30726 0.33186 0.74808 0.0
H863 H 0.25417 0.31028 0.72483 0.0
H864 H 0.24644 0.29745 0.76727 0.0
H865 H 0.24561 0.27189 0.72846 0.0
H866 H 0.33334 0.19313 0.74261 0.0
H867 H 0.31682 0.18391 0.80256 0.0
H868 H 0.27506 0.27093 0.81543 0.0
C869 C 0.30996 0.29062 0.68137 0.0
C870 C 0.32448 0.27677 0.65115 0.0
C871 C 0.33651 0.24789 0.65216 0.0
C872 C 0.33418 0.23302 0.68271 0.0
C873 C 0.31976 0.24733 0.71201 0.0
C874 C 0.30775 0.27542 0.71157 0.0
C875 C 0.29272 0.28558 0.74633 0.0
C876 C 0.30973 0.31275 0.76413 0.0
C877 C 0.25766 0.29164 0.74141 0.0
C878 C 0.29798 0.2587 0.76631 0.0
C879 C 0.31377 0.23697 0.74611 0.0
C880 C 0.32092 0.20996 0.75867 0.0
C881 C 0.31129 0.20488 0.79267 0.0
C882 C 0.29457 0.22666 0.81365 0.0
C883 C 0.28817 0.25401 0.80027 0.0
H884 H 0.65462 0.74347 0.42056 0.0
H885 H 0.70233 0.66378 0.3803 0.0
H886 H 0.72292 0.68958 0.33107 0.0
H887 H 0.63789 0.77289 0.33273 0.0
H888 H 0.64575 0.81023 0.35025 0.0
H889 H 0.62952 0.78413 0.37817 0.0
H890 H 0.67524 0.7947 0.42245 0.0
H891 H 0.69161 0.82066 0.39473 0.0
H892 H 0.71494 0.79032 0.4073 0.0
H893 H 0.74447 0.72505 0.29202 0.0
H894 H 0.76747 0.76828 0.26735 0.0
H895 H 0.70602 0.82559 0.33224 0.0
C896 C 0.66858 0.73128 0.40071 0.0
C897 C 0.6768 0.70166 0.40399 0.0
C898 C 0.69583 0.68654 0.37817 0.0
C899 C 0.70741 0.70092 0.34999 0.0
C900 C 0.6997 0.73041 0.34799 0.0
C901 C 0.68068 0.74546 0.37259 0.0
C902 C 0.67932 0.77795 0.36696 0.0
C903 C 0.64614 0.78682 0.35639 0.0
C904 C 0.69099 0.79701 0.3998 0.0
C905 C 0.70175 0.77899 0.33653 0.0
C906 C 0.71262 0.75122 0.32545 0.0
C907 C 0.73562 0.74685 0.29986 0.0
C908 C 0.74846 0.77159 0.28586 0.0
C909 C 0.73847 0.80036 0.29771 0.0
C910 C 0.71415 0.80389 0.32263 0.0
H911 H 0.82214 0.2482 0.90956 0.0
H912 H 0.83789 0.15688 0.8711 0.0
H913 H 0.83519 0.1704 0.81018 0.0
H914 H 0.76629 0.26308 0.84565 0.0
H915 H 0.77919 0.30019 0.8407 0.0
H916 H 0.78555 0.28424 0.88171 0.0
H917 H 0.84491 0.29495 0.87802 0.0
H918 H 0.83872 0.31103 0.83699 0.0
H919 H 0.8662 0.28132 0.83938 0.0
H920 H 0.82607 0.19209 0.75414 0.0
H921 H 0.81097 0.22101 0.70542 0.0
H922 H 0.80282 0.29919 0.77865 0.0
C923 C 0.82552 0.23118 0.8883 0.0
C924 C 0.83013 0.20148 0.89511 0.0
C925 C 0.8341 0.17976 0.86657 0.0
C926 C 0.8328 0.18722 0.83183 0.0
C927 C 0.82766 0.21651 0.82596 0.0
C928 C 0.82418 0.23824 0.85326 0.0
C929 C 0.81698 0.2677 0.83935 0.0
C930 C 0.78511 0.27948 0.85264 0.0
C931 C 0.84328 0.29007 0.84901 0.0
C932 C 0.81612 0.25885 0.8001 0.0
C933 C 0.82268 0.22927 0.79307 0.0
C934 C 0.82152 0.21543 0.75914 0.0
C935 C 0.81312 0.23219 0.73154 0.0
C936 C 0.80607 0.26259 0.73791 0.0
C937 C 0.80802 0.27606 0.77275 0.0
H938 H 0.24016 0.27488 0.54212 0.0
H939 H 0.31058 0.2725 0.46046 0.0
H940 H 0.27266 0.24912 0.41775 0.0
H941 H 0.20744 0.20416 0.5153 0.0
H942 H 0.16775 0.21473 0.5257 0.0
H943 H 0.19977 0.23304 0.54949 0.0
H944 H 0.17929 0.28346 0.53258 0.0
H945 H 0.14726 0.26527 0.50856 0.0
H946 H 0.1731 0.28911 0.48684 0.0
H947 H 0.22786 0.22588 0.38406 0.0
H948 H 0.17969 0.20072 0.36205 0.0
H949 H 0.13878 0.21536 0.466 0.0
C950 C 0.24746 0.26963 0.51518 0.0
C951 C 0.27827 0.27553 0.50455 0.0
C952 C 0.28713 0.26801 0.4692 0.0
C953 C 0.26573 0.2549 0.44469 0.0
C954 C 0.23561 0.24925 0.456 0.0
C955 C 0.22648 0.2561 0.49041 0.0
C956 C 0.19316 0.24613 0.49597 0.0
C957 C 0.19198 0.22315 0.52322 0.0
C958 C 0.17195 0.27257 0.50661 0.0
C959 C 0.18514 0.23247 0.45935 0.0
C960 C 0.20988 0.23486 0.43668 0.0
C961 C 0.20835 0.22372 0.40158 0.0
C962 C 0.18094 0.20928 0.3894 0.0
C963 C 0.15551 0.20575 0.41234 0.0
C964 C 0.15762 0.21791 0.44769 0.0
H965 H 0.22883 0.7673 0.00175 0.0
H966 H 0.2901 0.83315 0.05514 0.0
H967 H 0.33611 0.80546 0.03188 0.0
H968 H 0.27644 0.70381 0.01392 0.0
H969 H 0.26797 0.68592 0.97088 0.0
H970 H 0.23977 0.71048 0.99245 0.0
H971 H 0.23906 0.74145 0.93857 0.0
H972 H 0.26728 0.71699 0.91684 0.0
H973 H 0.27525 0.75597 0.92321 0.0
H974 H 0.3754 0.76999 0.00457 0.0
H975 H 0.40555 0.73059 0.97146 0.0
H976 H 0.31911 0.68929 0.93272 0.0
C977 C 0.25194 0.77577 0.00868 0.0
C978 C 0.25592 0.80227 0.03045 0.0
C979 C 0.28651 0.81292 0.0385 0.0
C980 C 0.31279 0.79731 0.02549 0.0
C981 C 0.30808 0.7713 0.00409 0.0
C982 C 0.27846 0.76073 0.99542 0.0
C983 C 0.27995 0.7327 0.97097 0.0
C984 C 0.26516 0.70669 0.98809 0.0
C985 C 0.26447 0.73705 0.93528 0.0
C986 C 0.31504 0.72909 0.96746 0.0
C987 C 0.3308 0.75147 0.98707 0.0
C988 C 0.36334 0.75246 0.98893 0.0
C989 C 0.38024 0.73001 0.97018 0.0
C990 C 0.36458 0.70713 0.94953 0.0
C991 C 0.33157 0.70676 0.94806 0.0
loop_
_geom_bond_atom_site_label_1
_geom_bond_atom_site_label_2
_geom_bond_distance
_geom_bond_site_symmetry_2
_ccdc_geom_bond_type
Fe0 O2 1.918 . S
Fe0 O5 1.997 . S
Fe0 O6 2.002 . S
Fe0 O11 1.976 . S
Fe0 O14 1.996 . S
Fe1 O2 1.918 . S
Fe1 O9 1.997 . S
Fe1 O12 1.996 . S
Fe1 O16 1.976 1_554 S
Fe1 O19 2.002 . S
O2 Fe0 1.918 . S
O2 Fe1 1.918 . S
O2 Fe3 1.918 . S
Fe3 O2 1.918 . S
Fe3 O4 2.002 . S
Fe3 O13 1.976 . S
Fe3 O17 1.996 1_554 S
Fe3 O20 1.997 . S
O4 Fe3 2.002 . S
O4 C21 1.295 . S
O5 Fe0 1.997 . S
O5 C21 1.235 . S
O6 Fe0 2.002 . S
O6 C7 1.295 . S
C7 O6 1.295 . S
C7 O9 1.235 . S
C8 O13 1.287 . S
C8 O14 1.255 . S
O9 Fe1 1.997 . S
O9 C7 1.235 . S
C10 O16 1.287 . S
C10 O17 1.255 . S
O11 Fe0 1.976 . S
O11 C18 1.287 . S
O12 Fe1 1.996 . S
O12 C18 1.255 . S
O13 Fe3 1.976 . S
O13 C8 1.287 . S
O14 Fe0 1.996 . S
O14 C8 1.255 . S
C15 O19 1.295 . S
C15 O20 1.235 . S
O16 Fe1 1.976 1_556 S
O16 C10 1.287 . S
O17 Fe3 1.996 1_556 S
O17 C10 1.255 . S
C18 O11 1.287 . S
C18 O12 1.255 . S
O19 Fe1 2.002 . S
O19 C15 1.295 . S
O20 Fe3 1.997 . S
O20 C15 1.235 . S
C21 O4 1.295 . S
C21 O5 1.235 . S
Fe22 O24 1.918 . S
Fe22 O27 1.997 . S
Fe22 O28 2.002 . S
Fe22 O33 1.976 . S
Fe22 O36 1.996 . S
Fe23 O24 1.918 . S
Fe23 O31 1.997 . S
Fe23 O34 1.996 . S
Fe23 O38 1.976 . S
Fe23 O41 2.002 . S
O24 Fe22 1.918 . S
O24 Fe23 1.918 . S
O24 Fe25 1.918 . S
Fe25 O24 1.918 . S
Fe25 O26 2.002 . S
Fe25 O35 1.976 . S
Fe25 O39 1.996 . S
Fe25 O42 1.997 . S
O26 Fe25 2.002 . S
O26 C43 1.295 . S
O27 Fe22 1.997 . S
O27 C43 1.235 . S
O28 Fe22 2.002 . S
O28 C29 1.295 . S
C29 O28 1.295 . S
C29 O31 1.235 . S
C30 O35 1.287 . S
C30 O36 1.255 . S
O31 Fe23 1.997 . S
O31 C29 1.235 . S
C32 O38 1.287 . S
C32 O39 1.255 . S
O33 Fe22 1.976 . S
O33 C40 1.287 . S
O34 Fe23 1.996 . S
O34 C40 1.255 . S
O35 Fe25 1.976 . S
O35 C30 1.287 . S
O36 Fe22 1.996 . S
O36 C30 1.255 . S
C37 O41 1.295 . S
C37 O42 1.235 . S
O38 Fe23 1.976 . S
O38 C32 1.287 . S
O39 Fe25 1.996 . S
O39 C32 1.255 . S
C40 O33 1.287 . S
C40 O34 1.255 . S
O41 Fe23 2.002 . S
O41 C37 1.295 . S
O42 Fe25 1.997 . S
O42 C37 1.235 . S
C43 O26 1.295 . S
C43 O27 1.235 . S
Fe44 O46 1.918 . S
Fe44 O49 1.997 1_554 S
Fe44 O50 2.002 1_554 S
Fe44 O55 1.976 . S
Fe44 O58 1.996 . S
Fe45 O46 1.918 . S
Fe45 O53 1.997 1_554 S
Fe45 O56 1.996 . S
Fe45 O60 1.976 . S
Fe45 O63 2.002 1_554 S
O46 Fe44 1.918 . S
O46 Fe45 1.918 . S
O46 Fe47 1.918 1_554 S
Fe47 O46 1.918 1_556 S
Fe47 O48 2.002 . S
Fe47 O57 1.976 1_556 S
Fe47 O61 1.996 1_556 S
Fe47 O64 1.997 . S
O48 Fe47 2.002 . S
O48 C65 1.295 . S
O49 Fe44 1.997 1_556 S
O49 C65 1.235 . S
O50 Fe44 2.002 1_556 S
O50 C51 1.295 . S
C51 O50 1.295 . S
C51 O53 1.235 . S
C52 O57 1.287 . S
C52 O58 1.255 . S
O53 Fe45 1.997 1_556 S
O53 C51 1.235 . S
C54 O60 1.287 . S
C54 O61 1.255 . S
O55 Fe44 1.976 . S
O55 C62 1.287 . S
O56 Fe45 1.996 . S
O56 C62 1.255 . S
O57 Fe47 1.976 1_554 S
O57 C52 1.287 . S
O58 Fe44 1.996 . S
O58 C52 1.255 . S
C59 O63 1.295 . S
C59 O64 1.235 . S
O60 Fe45 1.976 . S
O60 C54 1.287 . S
O61 Fe47 1.996 1_554 S
O61 C54 1.255 . S
C62 O55 1.287 . S
C62 O56 1.255 . S
O63 Fe45 2.002 1_556 S
O63 C59 1.295 . S
O64 Fe47 1.997 . S
O64 C59 1.235 . S
C65 O48 1.295 . S
C65 O49 1.235 . S
Fe66 O68 1.918 . S
Fe66 O71 1.997 . S
Fe66 O72 2.002 . S
Fe66 O77 1.976 . S
Fe66 O80 1.996 . S
Fe67 O68 1.918 . S
Fe67 O75 1.997 . S
Fe67 O78 1.996 . S
Fe67 O82 1.976 . S
Fe67 O85 2.002 . S
O68 Fe66 1.918 . S
O68 Fe67 1.918 . S
O68 Fe69 1.918 . S
Fe69 O68 1.918 . S
Fe69 O70 2.002 . S
Fe69 O79 1.976 . S
Fe69 O83 1.996 . S
Fe69 O86 1.997 . S
O70 Fe69 2.002 . S
O70 C87 1.295 . S
O71 Fe66 1.997 . S
O71 C87 1.235 . S
O72 Fe66 2.002 . S
O72 C73 1.295 . S
C73 O72 1.295 . S
C73 O75 1.235 . S
C74 O79 1.287 . S
C74 O80 1.255 . S
O75 Fe67 1.997 . S
O75 C73 1.235 . S
C76 O82 1.287 . S
C76 O83 1.255 . S
O77 Fe66 1.976 . S
O77 C84 1.287 . S
O78 Fe67 1.996 . S
O78 C84 1.255 . S
O79 Fe69 1.976 . S
O79 C74 1.287 . S
O80 Fe66 1.996 . S
O80 C74 1.255 . S
C81 O85 1.295 . S
C81 O86 1.235 . S
O82 Fe67 1.976 . S
O82 C76 1.287 . S
O83 Fe69 1.996 . S
O83 C76 1.255 . S
C84 O77 1.287 . S
C84 O78 1.255 . S
O85 Fe67 2.002 . S
O85 C81 1.295 . S
O86 Fe69 1.997 . S
O86 C81 1.235 . S
C87 O70 1.295 . S
C87 O71 1.235 . S
P88 O99 1.490 . S
P88 C102 1.812 . S
P88 C108 1.803 . S
P88 C114 1.819 . S
H89 C103 0.941 . S
H90 C104 0.939 . S
H91 C106 0.940 . S
H92 C107 0.940 . S
H93 C109 0.939 . S
H94 C110 0.942 . S
H95 C112 0.940 . S
H96 C113 0.939 . S
H97 C115 0.941 1_655 S
H98 C119 0.939 . S
O99 P88 1.490 . S
H100 C116 0.939 . S
H101 C118 0.940 . S
C102 P88 1.812 . S
C102 C103 1.389 . S
C102 C107 1.391 . S
C103 H89 0.941 . S
C103 C102 1.389 . S
C103 C104 1.397 . S
C104 H90 0.939 . S
C104 C103 1.397 . S
C104 C105 1.378 . S
C105 C104 1.378 . S
C105 C106 1.378 . S
C106 H91 0.940 . S
C106 C105 1.378 . S
C106 C107 1.396 . S
C107 H92 0.940 . S
C107 C102 1.391 . S
C107 C106 1.396 . S
C108 P88 1.803 . S
C108 C109 1.378 . S
C108 C113 1.400 . S
C109 H93 0.939 . S
C109 C108 1.378 . S
C109 C110 1.361 . S
C110 H94 0.942 . S
C110 C109 1.361 . S
C110 C111 1.369 . S
C111 C110 1.369 . S
C111 C112 1.404 . S
C112 H95 0.940 . S
C112 C111 1.404 . S
C112 C113 1.389 . S
C113 H96 0.939 . S
C113 C108 1.400 . S
C113 C112 1.389 . S
C114 P88 1.819 . S
C114 C115 1.391 . S
C114 C119 1.391 . S
C115 H97 0.941 1_455 S
C115 C114 1.391 . S
C115 C116 1.396 1_455 S
C116 H100 0.939 . S
C116 C115 1.396 1_655 S
C116 C117 1.397 . S
C117 C116 1.397 . S
C117 C118 1.385 1_655 S
C118 H101 0.940 . S
C118 C117 1.385 1_455 S
C118 C119 1.388 . S
C119 H98 0.939 . S
C119 C114 1.391 . S
C119 C118 1.388 . S
P120 O131 1.490 . S
P120 C134 1.812 . S
P120 C140 1.803 . S
P120 C146 1.819 . S
H121 C135 0.941 . S
H122 C136 0.939 . S
H123 C138 0.940 . S
H124 C139 0.940 . S
H125 C141 0.939 . S
H126 C142 0.942 . S
H127 C144 0.940 . S
H128 C145 0.939 . S
H129 C147 0.941 . S
H130 C151 0.939 . S
O131 P120 1.490 . S
H132 C148 0.939 . S
H133 C150 0.940 . S
C134 P120 1.812 . S
C134 C135 1.389 . S
C134 C139 1.391 . S
C135 H121 0.941 . S
C135 C134 1.389 . S
C135 C136 1.397 . S
C136 H122 0.939 . S
C136 C135 1.397 . S
C136 C137 1.378 . S
C137 C136 1.378 . S
C137 C138 1.378 . S
C138 H123 0.940 . S
C138 C137 1.378 . S
C138 C139 1.396 . S
C139 H124 0.940 . S
C139 C134 1.391 . S
C139 C138 1.396 . S
C140 P120 1.803 . S
C140 C141 1.378 . S
C140 C145 1.400 . S
C141 H125 0.939 . S
C141 C140 1.378 . S
C141 C142 1.361 . S
C142 H126 0.942 . S
C142 C141 1.361 . S
C142 C143 1.369 . S
C143 C142 1.369 . S
C143 C144 1.404 . S
C144 H127 0.940 . S
C144 C143 1.404 . S
C144 C145 1.389 . S
C145 H128 0.939 . S
C145 C140 1.400 . S
C145 C144 1.389 . S
C146 P120 1.819 . S
C146 C147 1.391 . S
C146 C151 1.391 . S
C147 H129 0.941 . S
C147 C146 1.391 . S
C147 C148 1.396 . S
C148 H132 0.939 . S
C148 C147 1.396 . S
C148 C149 1.397 . S
C149 C148 1.397 . S
C149 C150 1.385 . S
C150 H133 0.940 . S
C150 C149 1.385 . S
C150 C151 1.388 . S
C151 H130 0.939 . S
C151 C146 1.391 . S
C151 C150 1.388 . S
P152 O163 1.490 . S
P152 C166 1.812 . S
P152 C172 1.803 . S
P152 C178 1.819 . S
H153 C167 0.941 . S
H154 C168 0.939 . S
H155 C170 0.940 . S
H156 C171 0.940 . S
H157 C173 0.939 . S
H158 C174 0.942 . S
H159 C176 0.940 . S
H160 C177 0.939 . S
H161 C179 0.941 . S
H162 C183 0.939 . S
O163 P152 1.490 . S
H164 C180 0.939 . S
H165 C182 0.940 . S
C166 P152 1.812 . S
C166 C167 1.389 . S
C166 C171 1.391 . S
C167 H153 0.941 . S
C167 C166 1.389 . S
C167 C168 1.397 . S
C168 H154 0.939 . S
C168 C167 1.397 . S
C168 C169 1.378 . S
C169 C168 1.378 . S
C169 C170 1.378 . S
C170 H155 0.940 . S
C170 C169 1.378 . S
C170 C171 1.396 . S
C171 H156 0.940 . S
C171 C166 1.391 . S
C171 C170 1.396 . S
C172 P152 1.803 . S
C172 C173 1.378 . S
C172 C177 1.400 . S
C173 H157 0.939 . S
C173 C172 1.378 . S
C173 C174 1.361 . S
C174 H158 0.942 . S
C174 C173 1.361 . S
C174 C175 1.369 . S
C175 C174 1.369 . S
C175 C176 1.404 . S
C176 H159 0.940 . S
C176 C175 1.404 . S
C176 C177 1.389 . S
C177 H160 0.939 . S
C177 C172 1.400 . S
C177 C176 1.389 . S
C178 P152 1.819 . S
C178 C179 1.391 . S
C178 C183 1.391 . S
C179 H161 0.941 . S
C179 C178 1.391 . S
C179 C180 1.396 . S
C180 H164 0.939 . S
C180 C179 1.396 . S
C180 C181 1.397 . S
C181 C180 1.397 . S
C181 C182 1.385 . S
C182 H165 0.940 . S
C182 C181 1.385 . S
C182 C183 1.388 . S
C183 H162 0.939 . S
C183 C178 1.391 . S
C183 C182 1.388 . S
P184 O195 1.490 . S
P184 C198 1.812 . S
P184 C204 1.803 . S
P184 C210 1.819 . S
H185 C199 0.941 . S
H186 C200 0.939 . S
H187 C202 0.940 . S
H188 C203 0.940 . S
H189 C205 0.939 . S
H190 C206 0.942 . S
H191 C208 0.940 . S
H192 C209 0.939 . S
H193 C211 0.941 . S
H194 C215 0.939 . S
O195 P184 1.490 . S
H196 C212 0.939 . S
H197 C214 0.940 . S
C198 P184 1.812 . S
C198 C199 1.389 . S
C198 C203 1.391 . S
C199 H185 0.941 . S
C199 C198 1.389 . S
C199 C200 1.397 . S
C200 H186 0.939 . S
C200 C199 1.397 . S
C200 C201 1.378 . S
C201 C200 1.378 . S
C201 C202 1.378 . S
C202 H187 0.940 . S
C202 C201 1.378 . S
C202 C203 1.396 . S
C203 H188 0.940 . S
C203 C198 1.391 . S
C203 C202 1.396 . S
C204 P184 1.803 . S
C204 C205 1.378 . S
C204 C209 1.400 . S
C205 H189 0.939 . S
C205 C204 1.378 . S
C205 C206 1.361 . S
C206 H190 0.942 . S
C206 C205 1.361 . S
C206 C207 1.369 . S
C207 C206 1.369 . S
C207 C208 1.404 . S
C208 H191 0.940 . S
C208 C207 1.404 . S
C208 C209 1.389 . S
C209 H192 0.939 . S
C209 C204 1.400 . S
C209 C208 1.389 . S
C210 P184 1.819 . S
C210 C211 1.391 . S
C210 C215 1.391 . S
C211 H193 0.941 . S
C211 C210 1.391 . S
C211 C212 1.396 . S
C212 H196 0.939 . S
C212 C211 1.396 . S
C212 C213 1.397 . S
C213 C212 1.397 . S
C213 C214 1.385 . S
C214 H197 0.940 . S
C214 C213 1.385 . S
C214 C215 1.388 . S
C215 H194 0.939 . S
C215 C210 1.391 . S
C215 C214 1.388 . S
P216 O227 1.490 . S
P216 C230 1.812 . S
P216 C236 1.803 . S
P216 C242 1.819 . S
H217 C231 0.941 . S
H218 C232 0.939 . S
H219 C234 0.940 . S
H220 C235 0.940 . S
H221 C237 0.939 . S
H222 C238 0.942 . S
H223 C240 0.940 . S
H224 C241 0.939 . S
H225 C243 0.941 . S
H226 C247 0.939 . S
O227 P216 1.490 . S
H228 C244 0.939 . S
H229 C246 0.940 . S
C230 P216 1.812 . S
C230 C231 1.389 . S
C230 C235 1.391 . S
C231 H217 0.941 . S
C231 C230 1.389 . S
C231 C232 1.397 . S
C232 H218 0.939 . S
C232 C231 1.397 . S
C232 C233 1.378 . S
C233 C232 1.378 . S
C233 C234 1.378 . S
C234 H219 0.940 . S
C234 C233 1.378 . S
C234 C235 1.396 . S
C235 H220 0.940 . S
C235 C230 1.391 . S
C235 C234 1.396 . S
C236 P216 1.803 . S
C236 C237 1.378 . S
C236 C241 1.400 . S
C237 H221 0.939 . S
C237 C236 1.378 . S
C237 C238 1.361 . S
C238 H222 0.942 . S
C238 C237 1.361 . S
C238 C239 1.369 . S
C239 C238 1.369 . S
C239 C240 1.404 . S
C240 H223 0.940 . S
C240 C239 1.404 . S
C240 C241 1.389 . S
C241 H224 0.939 . S
C241 C236 1.400 . S
C241 C240 1.389 . S
C242 P216 1.819 . S
C242 C243 1.391 . S
C242 C247 1.391 . S
C243 H225 0.941 . S
C243 C242 1.391 . S
C243 C244 1.396 . S
C244 H228 0.939 . S
C244 C243 1.396 . S
C244 C245 1.397 . S
C245 C244 1.397 . S
C245 C246 1.385 . S
C246 H229 0.940 . S
C246 C245 1.385 . S
C246 C247 1.388 . S
C247 H226 0.939 . S
C247 C242 1.391 . S
C247 C246 1.388 . S
P248 O259 1.490 . S
P248 C262 1.812 . S
P248 C268 1.803 . S
P248 C274 1.819 . S
H249 C263 0.941 . S
H250 C264 0.939 . S
H251 C266 0.940 . S
H252 C267 0.940 . S
H253 C269 0.939 . S
H254 C270 0.942 . S
H255 C272 0.940 . S
H256 C273 0.939 . S
H257 C275 0.941 1_554 S
H258 C279 0.939 . S
O259 P248 1.490 . S
H260 C276 0.939 1_554 S
H261 C278 0.940 . S
C262 P248 1.812 . S
C262 C263 1.389 . S
C262 C267 1.391 . S
C263 H249 0.941 . S
C263 C262 1.389 . S
C263 C264 1.397 . S
C264 H250 0.939 . S
C264 C263 1.397 . S
C264 C265 1.378 . S
C265 C264 1.378 . S
C265 C266 1.378 . S
C266 H251 0.940 . S
C266 C265 1.378 . S
C266 C267 1.396 . S
C267 H252 0.940 . S
C267 C262 1.391 . S
C267 C266 1.396 . S
C268 P248 1.803 . S
C268 C269 1.378 . S
C268 C273 1.400 . S
C269 H253 0.939 . S
C269 C268 1.378 . S
C269 C270 1.361 . S
C270 H254 0.942 . S
C270 C269 1.361 . S
C270 C271 1.369 . S
C271 C270 1.369 . S
C271 C272 1.404 . S
C272 H255 0.940 . S
C272 C271 1.404 . S
C272 C273 1.389 . S
C273 H256 0.939 . S
C273 C268 1.400 . S
C273 C272 1.389 . S
C274 P248 1.819 . S
C274 C275 1.391 . S
C274 C279 1.391 . S
C275 H257 0.941 1_556 S
C275 C274 1.391 . S
C275 C276 1.396 . S
C276 H260 0.939 1_556 S
C276 C275 1.396 . S
C276 C277 1.397 . S
C277 C276 1.397 . S
C277 C278 1.385 . S
C278 H261 0.940 . S
C278 C277 1.385 . S
C278 C279 1.388 . S
C279 H258 0.939 . S
C279 C274 1.391 . S
C279 C278 1.388 . S
P280 O291 1.490 . S
P280 C294 1.812 . S
P280 C300 1.803 . S
P280 C306 1.819 . S
H281 C295 0.941 . S
H282 C296 0.939 . S
H283 C298 0.940 . S
H284 C299 0.940 . S
H285 C301 0.939 . S
H286 C302 0.942 . S
H287 C304 0.940 . S
H288 C305 0.939 . S
H289 C307 0.941 . S
H290 C311 0.939 . S
O291 P280 1.490 . S
H292 C308 0.939 . S
H293 C310 0.940 . S
C294 P280 1.812 . S
C294 C295 1.389 . S
C294 C299 1.391 . S
C295 H281 0.941 . S
C295 C294 1.389 . S
C295 C296 1.397 . S
C296 H282 0.939 . S
C296 C295 1.397 . S
C296 C297 1.378 . S
C297 C296 1.378 . S
C297 C298 1.378 . S
C298 H283 0.940 . S
C298 C297 1.378 . S
C298 C299 1.396 . S
C299 H284 0.940 . S
C299 C294 1.391 . S
C299 C298 1.396 . S
C300 P280 1.803 . S
C300 C301 1.378 . S
C300 C305 1.400 . S
C301 H285 0.939 . S
C301 C300 1.378 . S
C301 C302 1.361 . S
C302 H286 0.942 . S
C302 C301 1.361 . S
C302 C303 1.369 . S
C303 C302 1.369 . S
C303 C304 1.404 . S
C304 H287 0.940 . S
C304 C303 1.404 . S
C304 C305 1.389 . S
C305 H288 0.939 . S
C305 C300 1.400 . S
C305 C304 1.389 . S
C306 P280 1.819 . S
C306 C307 1.391 . S
C306 C311 1.391 . S
C307 H289 0.941 . S
C307 C306 1.391 . S
C307 C308 1.396 . S
C308 H292 0.939 . S
C308 C307 1.396 . S
C308 C309 1.397 . S
C309 C308 1.397 . S
C309 C310 1.385 . S
C310 H293 0.940 . S
C310 C309 1.385 . S
C310 C311 1.388 . S
C311 H290 0.939 . S
C311 C306 1.391 . S
C311 C310 1.388 . S
P312 O323 1.490 . S
P312 C326 1.812 . S
P312 C332 1.803 . S
P312 C338 1.819 . S
H313 C327 0.941 . S
H314 C328 0.939 . S
H315 C330 0.940 . S
H316 C331 0.940 . S
H317 C333 0.939 . S
H318 C334 0.942 . S
H319 C336 0.940 . S
H320 C337 0.939 . S
H321 C339 0.941 . S
H322 C343 0.939 . S
O323 P312 1.490 . S
H324 C340 0.939 . S
H325 C342 0.940 . S
C326 P312 1.812 . S
C326 C327 1.389 . S
C326 C331 1.391 . S
C327 H313 0.941 . S
C327 C326 1.389 . S
C327 C328 1.397 . S
C328 H314 0.939 . S
C328 C327 1.397 . S
C328 C329 1.378 . S
C329 C328 1.378 . S
C329 C330 1.378 . S
C330 H315 0.940 . S
C330 C329 1.378 . S
C330 C331 1.396 . S
C331 H316 0.940 . S
C331 C326 1.391 . S
C331 C330 1.396 . S
C332 P312 1.803 . S
C332 C333 1.378 . S
C332 C337 1.400 . S
C333 H317 0.939 . S
C333 C332 1.378 . S
C333 C334 1.361 . S
C334 H318 0.942 . S
C334 C333 1.361 . S
C334 C335 1.369 . S
C335 C334 1.369 . S
C335 C336 1.404 . S
C336 H319 0.940 . S
C336 C335 1.404 . S
C336 C337 1.389 . S
C337 H320 0.939 . S
C337 C332 1.400 . S
C337 C336 1.389 . S
C338 P312 1.819 . S
C338 C339 1.391 . S
C338 C343 1.391 . S
C339 H321 0.941 . S
C339 C338 1.391 . S
C339 C340 1.396 . S
C340 H324 0.939 . S
C340 C339 1.396 . S
C340 C341 1.397 . S
C341 C340 1.397 . S
C341 C342 1.385 . S
C342 H325 0.940 . S
C342 C341 1.385 . S
C342 C343 1.388 . S
C343 H322 0.939 . S
C343 C338 1.391 . S
C343 C342 1.388 . S
H344 C356 0.930 . S
H345 C358 0.930 . S
H346 C359 0.930 . S
H347 C363 0.959 . S
H348 C363 0.959 . S
H349 C363 0.961 . S
H350 C364 0.960 . S
H351 C364 0.961 . S
H352 C364 0.959 . S
H353 C367 0.929 . S
H354 C368 0.931 . S
H355 C370 0.930 . S
C356 H344 0.930 . S
C356 C357 1.399 . S
C356 C361 1.399 . S
C357 C356 1.399 . S
C357 C358 1.376 . S
C358 H345 0.930 . S
C358 C357 1.376 . S
C358 C359 1.388 . S
C359 H346 0.930 . S
C359 C358 1.388 . S
C359 C360 1.390 . S
C360 C359 1.390 . S
C360 C361 1.394 . S
C360 C366 1.465 . S
C361 C356 1.399 . S
C361 C360 1.394 . S
C361 C362 1.516 . S
C362 C361 1.516 . S
C362 C363 1.502 . S
C362 C364 1.561 . S
C362 C365 1.526 . S
C363 H347 0.959 . S
C363 H348 0.959 . S
C363 H349 0.961 . S
C363 C362 1.502 . S
C364 H350 0.960 . S
C364 H351 0.961 . S
C364 H352 0.959 . S
C364 C362 1.561 . S
C365 C362 1.526 . S
C365 C366 1.396 . S
C365 C370 1.390 . S
C366 C360 1.465 . S
C366 C365 1.396 . S
C366 C367 1.399 1_565 S
C367 H353 0.929 . S
C367 C366 1.399 1_545 S
C367 C368 1.385 . S
C368 H354 0.931 . S
C368 C367 1.385 . S
C368 C369 1.389 . S
C369 C368 1.389 . S
C369 C370 1.387 1_545 S
C370 H355 0.930 . S
C370 C365 1.390 . S
C370 C369 1.387 1_565 S
H371 C383 0.930 . S
H372 C385 0.930 . S
H373 C386 0.930 . S
H374 C390 0.959 . S
H375 C390 0.959 . S
H376 C390 0.961 . S
H377 C391 0.960 . S
H378 C391 0.961 . S
H379 C391 0.959 . S
H380 C394 0.929 . S
H381 C395 0.931 . S
H382 C397 0.930 . S
C383 H371 0.930 . S
C383 C384 1.399 . S
C383 C388 1.399 . S
C384 C383 1.399 . S
C384 C385 1.376 . S
C385 H372 0.930 . S
C385 C384 1.376 . S
C385 C386 1.388 . S
C386 H373 0.930 . S
C386 C385 1.388 . S
C386 C387 1.390 . S
C387 C386 1.390 . S
C387 C388 1.394 . S
C387 C393 1.465 . S
C388 C383 1.399 . S
C388 C387 1.394 . S
C388 C389 1.516 . S
C389 C388 1.516 . S
C389 C390 1.502 . S
C389 C391 1.561 . S
C389 C392 1.526 . S
C390 H374 0.959 . S
C390 H375 0.959 . S
C390 H376 0.961 . S
C390 C389 1.502 . S
C391 H377 0.960 . S
C391 H378 0.961 . S
C391 H379 0.959 . S
C391 C389 1.561 . S
C392 C389 1.526 . S
C392 C393 1.396 . S
C392 C397 1.390 . S
C393 C387 1.465 . S
C393 C392 1.396 . S
C393 C394 1.399 . S
C394 H380 0.929 . S
C394 C393 1.399 . S
C394 C395 1.385 . S
C395 H381 0.931 . S
C395 C394 1.385 . S
C395 C396 1.389 . S
C396 C395 1.389 . S
C396 C397 1.387 . S
C397 H382 0.930 . S
C397 C392 1.390 . S
C397 C396 1.387 . S
H398 C410 0.930 . S
H399 C412 0.930 . S
H400 C413 0.930 . S
H401 C417 0.959 1_565 S
H402 C417 0.959 1_565 S
H403 C417 0.961 . S
H404 C418 0.960 . S
H405 C418 0.961 . S
H406 C418 0.959 . S
H407 C421 0.929 . S
H408 C422 0.931 . S
H409 C424 0.930 . S
C410 H398 0.930 . S
C410 C411 1.399 . S
C410 C415 1.399 . S
C411 C410 1.399 . S
C411 C412 1.376 . S
C412 H399 0.930 . S
C412 C411 1.376 . S
C412 C413 1.388 . S
C413 H400 0.930 . S
C413 C412 1.388 . S
C413 C414 1.390 . S
C414 C413 1.390 . S
C414 C415 1.394 . S
C414 C420 1.465 1_545 S
C415 C410 1.399 . S
C415 C414 1.394 . S
C415 C416 1.516 . S
C416 C415 1.516 . S
C416 C417 1.502 . S
C416 C418 1.561 . S
C416 C419 1.526 1_545 S
C417 H401 0.959 1_545 S
C417 H402 0.959 1_545 S
C417 H403 0.961 . S
C417 C416 1.502 . S
C418 H404 0.960 . S
C418 H405 0.961 . S
C418 H406 0.959 . S
C418 C416 1.561 . S
C419 C416 1.526 1_565 S
C419 C420 1.396 . S
C419 C424 1.390 . S
C420 C414 1.465 1_565 S
C420 C419 1.396 . S
C420 C421 1.399 . S
C421 H407 0.929 . S
C421 C420 1.399 . S
C421 C422 1.385 . S
C422 H408 0.931 . S
C422 C421 1.385 . S
C422 C423 1.389 . S
C423 C422 1.389 . S
C423 C424 1.387 . S
C424 H409 0.930 . S
C424 C419 1.390 . S
C424 C423 1.387 . S
H425 C437 0.930 . S
H426 C439 0.930 . S
H427 C440 0.930 . S
H428 C444 0.959 . S
H429 C444 0.959 . S
H430 C444 0.961 . S
H431 C445 0.960 . S
H432 C445 0.961 . S
H433 C445 0.959 . S
H434 C448 0.929 . S
H435 C449 0.931 . S
H436 C451 0.930 . S
C437 H425 0.930 . S
C437 C438 1.399 . S
C437 C442 1.399 . S
C438 C437 1.399 . S
C438 C439 1.376 . S
C439 H426 0.930 . S
C439 C438 1.376 . S
C439 C440 1.388 . S
C440 H427 0.930 . S
C440 C439 1.388 . S
C440 C441 1.390 . S
C441 C440 1.390 . S
C441 C442 1.394 . S
C441 C447 1.465 . S
C442 C437 1.399 . S
C442 C441 1.394 . S
C442 C443 1.516 . S
C443 C442 1.516 . S
C443 C444 1.502 . S
C443 C445 1.561 . S
C443 C446 1.526 . S
C444 H428 0.959 . S
C444 H429 0.959 . S
C444 H430 0.961 . S
C444 C443 1.502 . S
C445 H431 0.960 . S
C445 H432 0.961 . S
C445 H433 0.959 . S
C445 C443 1.561 . S
C446 C443 1.526 . S
C446 C447 1.396 . S
C446 C451 1.390 . S
C447 C441 1.465 . S
C447 C446 1.396 . S
C447 C448 1.399 . S
C448 H434 0.929 . S
C448 C447 1.399 . S
C448 C449 1.385 . S
C449 H435 0.931 . S
C449 C448 1.385 . S
C449 C450 1.389 . S
C450 C449 1.389 . S
C450 C451 1.387 . S
C451 H436 0.930 . S
C451 C446 1.390 . S
C451 C450 1.387 . S
H452 C464 0.930 . S
H453 C466 0.930 . S
H454 C467 0.930 . S
H455 C471 0.959 . S
H456 C471 0.959 . S
H457 C471 0.961 . S
H458 C472 0.960 . S
H459 C472 0.961 . S
H460 C472 0.959 . S
H461 C475 0.929 . S
H462 C476 0.931 . S
H463 C478 0.930 . S
C464 H452 0.930 . S
C464 C465 1.399 . S
C464 C469 1.399 . S
C465 C464 1.399 . S
C465 C466 1.376 . S
C466 H453 0.930 . S
C466 C465 1.376 . S
C466 C467 1.388 . S
C467 H454 0.930 . S
C467 C466 1.388 . S
C467 C468 1.390 . S
C468 C467 1.390 . S
C468 C469 1.394 . S
C468 C474 1.465 . S
C469 C464 1.399 . S
C469 C468 1.394 . S
C469 C470 1.516 . S
C470 C469 1.516 . S
C470 C471 1.502 . S
C470 C472 1.561 . S
C470 C473 1.526 . S
C471 H455 0.959 . S
C471 H456 0.959 . S
C471 H457 0.961 . S
C471 C470 1.502 . S
C472 H458 0.960 . S
C472 H459 0.961 . S
C472 H460 0.959 . S
C472 C470 1.561 . S
C473 C470 1.526 . S
C473 C474 1.396 . S
C473 C478 1.390 . S
C474 C468 1.465 . S
C474 C473 1.396 . S
C474 C475 1.399 . S
C475 H461 0.929 . S
C475 C474 1.399 . S
C475 C476 1.385 . S
C476 H462 0.931 . S
C476 C475 1.385 . S
C476 C477 1.389 . S
C477 C476 1.389 . S
C477 C478 1.387 . S
C478 H463 0.930 . S
C478 C473 1.390 . S
C478 C477 1.387 . S
H479 C491 0.930 1_554 S
H480 C493 0.930 . S
H481 C494 0.930 . S
H482 C498 0.959 . S
H483 C498 0.959 . S
H484 C498 0.961 . S
H485 C499 0.960 . S
H486 C499 0.961 . S
H487 C499 0.959 . S
H488 C502 0.929 . S
H489 C503 0.931 . S
H490 C505 0.930 . S
C491 H479 0.930 1_556 S
C491 C492 1.399 . S
C491 C496 1.399 1_655 S
C492 C491 1.399 . S
C492 C493 1.376 . S
C493 H480 0.930 . S
C493 C492 1.376 . S
C493 C494 1.388 . S
C494 H481 0.930 . S
C494 C493 1.388 . S
C494 C495 1.390 1_655 S
C495 C494 1.390 1_455 S
C495 C496 1.394 . S
C495 C501 1.465 . S
C496 C491 1.399 1_455 S
C496 C495 1.394 . S
C496 C497 1.516 . S
C497 C496 1.516 . S
C497 C498 1.502 1_556 S
C497 C499 1.561 . S
C497 C500 1.526 . S
C498 H482 0.959 . S
C498 H483 0.959 . S
C498 H484 0.961 . S
C498 C497 1.502 1_554 S
C499 H485 0.960 . S
C499 H486 0.961 . S
C499 H487 0.959 . S
C499 C497 1.561 . S
C500 C497 1.526 . S
C500 C501 1.396 . S
C500 C505 1.390 . S
C501 C495 1.465 . S
C501 C500 1.396 . S
C501 C502 1.399 . S
C502 H488 0.929 . S
C502 C501 1.399 . S
C502 C503 1.385 . S
C503 H489 0.931 . S
C503 C502 1.385 . S
C503 C504 1.389 . S
C504 C503 1.389 . S
C504 C505 1.387 . S
C505 H490 0.930 . S
C505 C500 1.390 . S
C505 C504 1.387 . S
H506 C518 0.930 . S
H507 C520 0.930 . S
H508 C521 0.930 . S
H509 C525 0.959 . S
H510 C525 0.959 . S
H511 C525 0.961 . S
H512 C526 0.960 . S
H513 C526 0.961 . S
H514 C526 0.959 . S
H515 C529 0.929 . S
H516 C530 0.931 . S
H517 C532 0.930 . S
C518 H506 0.930 . S
C518 C519 1.399 . S
C518 C523 1.399 . S
C519 C518 1.399 . S
C519 C520 1.376 . S
C520 H507 0.930 . S
C520 C519 1.376 . S
C520 C521 1.388 . S
C521 H508 0.930 . S
C521 C520 1.388 . S
C521 C522 1.390 . S
C522 C521 1.390 . S
C522 C523 1.394 . S
C522 C528 1.465 . S
C523 C518 1.399 . S
C523 C522 1.394 . S
C523 C524 1.516 . S
C524 C523 1.516 . S
C524 C525 1.502 . S
C524 C526 1.561 . S
C524 C527 1.526 . S
C525 H509 0.959 . S
C525 H510 0.959 . S
C525 H511 0.961 . S
C525 C524 1.502 . S
C526 H512 0.960 . S
C526 H513 0.961 . S
C526 H514 0.959 . S
C526 C524 1.561 . S
C527 C524 1.526 . S
C527 C528 1.396 . S
C527 C532 1.390 . S
C528 C522 1.465 . S
C528 C527 1.396 . S
C528 C529 1.399 . S
C529 H515 0.929 . S
C529 C528 1.399 . S
C529 C530 1.385 . S
C530 H516 0.931 . S
C530 C529 1.385 . S
C530 C531 1.389 . S
C531 C530 1.389 . S
C531 C532 1.387 . S
C532 H517 0.930 . S
C532 C527 1.390 . S
C532 C531 1.387 . S
H533 C545 0.930 . S
H534 C547 0.930 . S
H535 C548 0.930 . S
H536 C552 0.959 . S
H537 C552 0.959 . S
H538 C552 0.961 . S
H539 C553 0.960 . S
H540 C553 0.961 . S
H541 C553 0.959 . S
H542 C556 0.929 . S
H543 C557 0.931 1_655 S
H544 C559 0.930 . S
C545 H533 0.930 . S
C545 C546 1.399 . S
C545 C550 1.399 . S
C546 C545 1.399 . S
C546 C547 1.376 . S
C547 H534 0.930 . S
C547 C546 1.376 . S
C547 C548 1.388 . S
C548 H535 0.930 . S
C548 C547 1.388 . S
C548 C549 1.390 . S
C549 C548 1.390 . S
C549 C550 1.394 . S
C549 C555 1.465 . S
C550 C545 1.399 . S
C550 C549 1.394 . S
C550 C551 1.516 . S
C551 C550 1.516 . S
C551 C552 1.502 . S
C551 C553 1.561 . S
C551 C554 1.526 . S
C552 H536 0.959 . S
C552 H537 0.959 . S
C552 H538 0.961 . S
C552 C551 1.502 . S
C553 H539 0.960 . S
C553 H540 0.961 . S
C553 H541 0.959 . S
C553 C551 1.561 . S
C554 C551 1.526 . S
C554 C555 1.396 . S
C554 C559 1.390 . S
C555 C549 1.465 . S
C555 C554 1.396 . S
C555 C556 1.399 . S
C556 H542 0.929 . S
C556 C555 1.399 . S
C556 C557 1.385 . S
C557 H543 0.931 1_455 S
C557 C556 1.385 . S
C557 C558 1.389 . S
C558 C557 1.389 . S
C558 C559 1.387 . S
C559 H544 0.930 . S
C559 C554 1.390 . S
C559 C558 1.387 . S
H560 C572 0.930 . S
H561 C574 0.930 . S
H562 C575 0.930 . S
H563 C579 0.959 . S
H564 C579 0.959 . S
H565 C579 0.961 . S
H566 C580 0.960 . S
H567 C580 0.961 . S
H568 C580 0.959 . S
H569 C583 0.929 . S
H570 C584 0.931 . S
H571 C586 0.930 . S
C572 H560 0.930 . S
C572 C573 1.399 . S
C572 C577 1.399 . S
C573 C572 1.399 . S
C573 C574 1.376 . S
C574 H561 0.930 . S
C574 C573 1.376 . S
C574 C575 1.388 . S
C575 H562 0.930 . S
C575 C574 1.388 . S
C575 C576 1.390 . S
C576 C575 1.390 . S
C576 C577 1.394 . S
C576 C582 1.465 . S
C577 C572 1.399 . S
C577 C576 1.394 . S
C577 C578 1.516 . S
C578 C577 1.516 . S
C578 C579 1.502 . S
C578 C580 1.561 . S
C578 C581 1.526 . S
C579 H563 0.959 . S
C579 H564 0.959 . S
C579 H565 0.961 . S
C579 C578 1.502 . S
C580 H566 0.960 . S
C580 H567 0.961 . S
C580 H568 0.959 . S
C580 C578 1.561 . S
C581 C578 1.526 . S
C581 C582 1.396 . S
C581 C586 1.390 . S
C582 C576 1.465 . S
C582 C581 1.396 . S
C582 C583 1.399 1_545 S
C583 H569 0.929 . S
C583 C582 1.399 1_565 S
C583 C584 1.385 . S
C584 H570 0.931 . S
C584 C583 1.385 . S
C584 C585 1.389 . S
C585 C584 1.389 . S
C585 C586 1.387 1_565 S
C586 H571 0.930 . S
C586 C581 1.390 . S
C586 C585 1.387 1_545 S
H587 C599 0.930 . S
H588 C601 0.930 . S
H589 C602 0.930 . S
H590 C606 0.959 . S
H591 C606 0.959 . S
H592 C606 0.961 . S
H593 C607 0.960 . S
H594 C607 0.961 . S
H595 C607 0.959 . S
H596 C610 0.929 . S
H597 C611 0.931 . S
H598 C613 0.930 . S
C599 H587 0.930 . S
C599 C600 1.399 . S
C599 C604 1.399 . S
C600 C599 1.399 . S
C600 C601 1.376 . S
C601 H588 0.930 . S
C601 C600 1.376 . S
C601 C602 1.388 . S
C602 H589 0.930 . S
C602 C601 1.388 . S
C602 C603 1.390 . S
C603 C602 1.390 . S
C603 C604 1.394 . S
C603 C609 1.465 . S
C604 C599 1.399 . S
C604 C603 1.394 . S
C604 C605 1.516 . S
C605 C604 1.516 . S
C605 C606 1.502 . S
C605 C607 1.561 . S
C605 C608 1.526 . S
C606 H590 0.959 . S
C606 H591 0.959 . S
C606 H592 0.961 . S
C606 C605 1.502 . S
C607 H593 0.960 . S
C607 H594 0.961 . S
C607 H595 0.959 . S
C607 C605 1.561 . S
C608 C605 1.526 . S
C608 C609 1.396 . S
C608 C613 1.390 . S
C609 C603 1.465 . S
C609 C608 1.396 . S
C609 C610 1.399 . S
C610 H596 0.929 . S
C610 C609 1.399 . S
C610 C611 1.385 . S
C611 H597 0.931 . S
C611 C610 1.385 . S
C611 C612 1.389 . S
C612 C611 1.389 . S
C612 C613 1.387 . S
C613 H598 0.930 . S
C613 C608 1.390 . S
C613 C612 1.387 . S
H614 C626 0.930 . S
H615 C628 0.930 . S
H616 C629 0.930 . S
H617 C633 0.959 . S
H618 C633 0.959 . S
H619 C633 0.961 1_565 S
H620 C634 0.960 . S
H621 C634 0.961 . S
H622 C634 0.959 . S
H623 C637 0.929 . S
H624 C638 0.931 . S
H625 C640 0.930 1_554 S
C626 H614 0.930 . S
C626 C627 1.399 . S
C626 C631 1.399 . S
C627 C626 1.399 . S
C627 C628 1.376 1_554 S
C628 H615 0.930 . S
C628 C627 1.376 1_556 S
C628 C629 1.388 . S
C629 H616 0.930 . S
C629 C628 1.388 . S
C629 C630 1.390 . S
C630 C629 1.390 . S
C630 C631 1.394 1_556 S
C630 C636 1.473 . S
C631 C626 1.399 . S
C631 C630 1.394 1_554 S
C631 C632 1.516 . S
C632 C631 1.516 . S
C632 C633 1.502 1_565 S
C632 C634 1.561 . S
C632 C635 1.526 1_564 S
C633 H617 0.959 . S
C633 H618 0.959 . S
C633 H619 0.961 1_545 S
C633 C632 1.502 1_545 S
C634 H620 0.960 . S
C634 H621 0.961 . S
C634 H622 0.959 . S
C634 C632 1.561 . S
C635 C632 1.526 1_546 S
C635 C636 1.393 1_545 S
C635 C640 1.390 . S
C636 C630 1.473 . S
C636 C635 1.393 1_565 S
C636 C637 1.394 1_565 S
C637 H623 0.929 . S
C637 C636 1.394 1_545 S
C637 C638 1.385 . S
C638 H624 0.931 . S
C638 C637 1.385 . S
C638 C639 1.389 . S
C639 C638 1.389 . S
C639 C640 1.387 . S
C640 H625 0.930 1_556 S
C640 C635 1.390 . S
C640 C639 1.387 . S
H641 C653 0.930 . S
H642 C655 0.930 . S
H643 C656 0.930 . S
H644 C660 0.959 . S
H645 C660 0.959 . S
H646 C660 0.961 . S
H647 C661 0.960 . S
H648 C661 0.961 . S
H649 C661 0.959 . S
H650 C664 0.929 . S
H651 C665 0.931 . S
H652 C667 0.930 . S
C653 H641 0.930 . S
C653 C654 1.399 . S
C653 C658 1.399 . S
C654 C653 1.399 . S
C654 C655 1.376 . S
C655 H642 0.930 . S
C655 C654 1.376 . S
C655 C656 1.388 . S
C656 H643 0.930 . S
C656 C655 1.388 . S
C656 C657 1.390 . S
C657 C656 1.390 . S
C657 C658 1.394 . S
C657 C663 1.465 . S
C658 C653 1.399 . S
C658 C657 1.394 . S
C658 C659 1.516 . S
C659 C658 1.516 . S
C659 C660 1.502 . S
C659 C661 1.561 . S
C659 C662 1.526 . S
C660 H644 0.959 . S
C660 H645 0.959 . S
C660 H646 0.961 . S
C660 C659 1.502 . S
C661 H647 0.960 . S
C661 H648 0.961 . S
C661 H649 0.959 . S
C661 C659 1.561 . S
C662 C659 1.526 . S
C662 C663 1.396 . S
C662 C667 1.390 . S
C663 C657 1.465 . S
C663 C662 1.396 . S
C663 C664 1.399 . S
C664 H650 0.929 . S
C664 C663 1.399 . S
C664 C665 1.385 . S
C665 H651 0.931 . S
C665 C664 1.385 . S
C665 C666 1.389 . S
C666 C665 1.389 . S
C666 C667 1.387 . S
C667 H652 0.930 . S
C667 C662 1.390 . S
C667 C666 1.387 . S
H668 C680 0.930 . S
H669 C682 0.930 . S
H670 C683 0.930 . S
H671 C687 0.959 . S
H672 C687 0.959 . S
H673 C687 0.961 . S
H674 C688 0.960 . S
H675 C688 0.961 . S
H676 C688 0.959 . S
H677 C691 0.929 . S
H678 C692 0.931 . S
H679 C694 0.930 . S
C680 H668 0.930 . S
C680 C681 1.399 . S
C680 C685 1.399 . S
C681 C680 1.399 . S
C681 C682 1.376 . S
C682 H669 0.930 . S
C682 C681 1.376 . S
C682 C683 1.388 . S
C683 H670 0.930 . S
C683 C682 1.388 . S
C683 C684 1.390 . S
C684 C683 1.390 . S
C684 C685 1.394 . S
C684 C690 1.465 . S
C685 C680 1.399 . S
C685 C684 1.394 . S
C685 C686 1.516 . S
C686 C685 1.516 . S
C686 C687 1.502 . S
C686 C688 1.561 . S
C686 C689 1.526 . S
C687 H671 0.959 . S
C687 H672 0.959 . S
C687 H673 0.961 . S
C687 C686 1.502 . S
C688 H674 0.960 . S
C688 H675 0.961 . S
C688 H676 0.959 . S
C688 C686 1.561 . S
C689 C686 1.526 . S
C689 C690 1.396 . S
C689 C694 1.390 . S
C690 C684 1.465 . S
C690 C689 1.396 . S
C690 C691 1.399 . S
C691 H677 0.929 . S
C691 C690 1.399 . S
C691 C692 1.385 . S
C692 H678 0.931 . S
C692 C691 1.385 . S
C692 C693 1.389 . S
C693 C692 1.389 . S
C693 C694 1.387 . S
C694 H679 0.930 . S
C694 C689 1.390 . S
C694 C693 1.387 . S
H695 C707 0.930 . S
H696 C709 0.930 . S
H697 C710 0.930 1_655 S
H698 C714 0.959 . S
H699 C714 0.959 . S
H700 C714 0.961 . S
H701 C715 0.960 . S
H702 C715 0.961 . S
H703 C715 0.959 . S
H704 C718 0.929 . S
H705 C719 0.931 . S
H706 C721 0.930 . S
C707 H695 0.930 . S
C707 C708 1.399 . S
C707 C712 1.399 1_455 S
C708 C707 1.399 . S
C708 C709 1.376 . S
C709 H696 0.930 . S
C709 C708 1.376 . S
C709 C710 1.388 . S
C710 H697 0.930 1_455 S
C710 C709 1.388 . S
C710 C711 1.390 1_455 S
C711 C710 1.390 1_655 S
C711 C712 1.394 . S
C711 C717 1.465 . S
C712 C707 1.399 1_655 S
C712 C711 1.394 . S
C712 C713 1.516 . S
C713 C712 1.516 . S
C713 C714 1.502 . S
C713 C715 1.561 . S
C713 C716 1.526 . S
C714 H698 0.959 . S
C714 H699 0.959 . S
C714 H700 0.961 . S
C714 C713 1.502 . S
C715 H701 0.960 . S
C715 H702 0.961 . S
C715 H703 0.959 . S
C715 C713 1.561 . S
C716 C713 1.526 . S
C716 C717 1.396 . S
C716 C721 1.390 . S
C717 C711 1.465 . S
C717 C716 1.396 . S
C717 C718 1.399 . S
C718 H704 0.929 . S
C718 C717 1.399 . S
C718 C719 1.385 . S
C719 H705 0.931 . S
C719 C718 1.385 . S
C719 C720 1.389 . S
C720 C719 1.389 . S
C720 C721 1.387 . S
C721 H706 0.930 . S
C721 C716 1.390 . S
C721 C720 1.387 . S
H722 C734 0.930 . S
H723 C736 0.930 . S
H724 C737 0.930 . S
H725 C741 0.959 . S
H726 C741 0.959 . S
H727 C741 0.961 . S
H728 C742 0.960 . S
H729 C742 0.961 . S
H730 C742 0.959 . S
H731 C745 0.929 . S
H732 C746 0.931 . S
H733 C748 0.930 . S
C734 H722 0.930 . S
C734 C735 1.399 . S
C734 C739 1.399 . S
C735 C734 1.399 . S
C735 C736 1.376 . S
C736 H723 0.930 . S
C736 C735 1.376 . S
C736 C737 1.388 . S
C737 H724 0.930 . S
C737 C736 1.388 . S
C737 C738 1.390 . S
C738 C737 1.390 . S
C738 C739 1.394 . S
C738 C744 1.465 . S
C739 C734 1.399 . S
C739 C738 1.394 . S
C739 C740 1.516 . S
C740 C739 1.516 . S
C740 C741 1.502 . S
C740 C742 1.561 . S
C740 C743 1.526 . S
C741 H725 0.959 . S
C741 H726 0.959 . S
C741 H727 0.961 . S
C741 C740 1.502 . S
C742 H728 0.960 . S
C742 H729 0.961 . S
C742 H730 0.959 . S
C742 C740 1.561 . S
C743 C740 1.526 . S
C743 C744 1.396 . S
C743 C748 1.390 . S
C744 C738 1.465 . S
C744 C743 1.396 . S
C744 C745 1.399 . S
C745 H731 0.929 . S
C745 C744 1.399 . S
C745 C746 1.385 . S
C746 H732 0.931 . S
C746 C745 1.385 . S
C746 C747 1.389 . S
C747 C746 1.389 . S
C747 C748 1.387 . S
C748 H733 0.930 . S
C748 C743 1.390 . S
C748 C747 1.387 . S
H749 C761 0.930 . S
H750 C763 0.930 . S
H751 C764 0.930 . S
H752 C768 0.959 . S
H753 C768 0.959 . S
H754 C768 0.961 . S
H755 C769 0.960 . S
H756 C769 0.961 . S
H757 C769 0.959 . S
H758 C772 0.929 . S
H759 C773 0.931 1_455 S
H760 C775 0.930 . S
C761 H749 0.930 . S
C761 C762 1.399 . S
C761 C766 1.399 . S
C762 C761 1.399 . S
C762 C763 1.376 . S
C763 H750 0.930 . S
C763 C762 1.376 . S
C763 C764 1.388 . S
C764 H751 0.930 . S
C764 C763 1.388 . S
C764 C765 1.390 . S
C765 C764 1.390 . S
C765 C766 1.394 . S
C765 C771 1.465 . S
C766 C761 1.399 . S
C766 C765 1.394 . S
C766 C767 1.516 . S
C767 C766 1.516 . S
C767 C768 1.502 . S
C767 C769 1.561 . S
C767 C770 1.526 . S
C768 H752 0.959 . S
C768 H753 0.959 . S
C768 H754 0.961 . S
C768 C767 1.502 . S
C769 H755 0.960 . S
C769 H756 0.961 . S
C769 H757 0.959 . S
C769 C767 1.561 . S
C770 C767 1.526 . S
C770 C771 1.396 . S
C770 C775 1.390 . S
C771 C765 1.465 . S
C771 C770 1.396 . S
C771 C772 1.399 . S
C772 H758 0.929 . S
C772 C771 1.399 . S
C772 C773 1.385 . S
C773 H759 0.931 1_655 S
C773 C772 1.385 . S
C773 C774 1.389 . S
C774 C773 1.389 . S
C774 C775 1.387 . S
C775 H760 0.930 . S
C775 C770 1.390 . S
C775 C774 1.387 . S
H776 C788 0.930 . S
H777 C790 0.930 . S
H778 C791 0.930 . S
H779 C795 0.959 . S
H780 C795 0.959 . S
H781 C795 0.961 . S
H782 C796 0.960 . S
H783 C796 0.961 . S
H784 C796 0.959 . S
H785 C799 0.929 . S
H786 C800 0.931 . S
H787 C802 0.930 . S
C788 H776 0.930 . S
C788 C789 1.399 . S
C788 C793 1.399 . S
C789 C788 1.399 . S
C789 C790 1.376 . S
C790 H777 0.930 . S
C790 C789 1.376 . S
C790 C791 1.388 . S
C791 H778 0.930 . S
C791 C790 1.388 . S
C791 C792 1.390 . S
C792 C791 1.390 . S
C792 C793 1.394 . S
C792 C798 1.465 . S
C793 C788 1.399 . S
C793 C792 1.394 . S
C793 C794 1.516 . S
C794 C793 1.516 . S
C794 C795 1.502 . S
C794 C796 1.561 . S
C794 C797 1.526 . S
C795 H779 0.959 . S
C795 H780 0.959 . S
C795 H781 0.961 . S
C795 C794 1.502 . S
C796 H782 0.960 . S
C796 H783 0.961 . S
C796 H784 0.959 . S
C796 C794 1.561 . S
C797 C794 1.526 . S
C797 C798 1.396 . S
C797 C802 1.390 . S
C798 C792 1.465 . S
C798 C797 1.396 . S
C798 C799 1.399 . S
C799 H785 0.929 . S
C799 C798 1.399 . S
C799 C800 1.385 . S
C800 H786 0.931 . S
C800 C799 1.385 . S
C800 C801 1.389 . S
C801 C800 1.389 . S
C801 C802 1.387 . S
C802 H787 0.930 . S
C802 C797 1.390 . S
C802 C801 1.387 . S
H803 C815 0.930 . S
H804 C817 0.930 . S
H805 C818 0.930 . S
H806 C822 0.959 . S
H807 C822 0.959 . S
H808 C822 0.961 . S
H809 C823 0.960 . S
H810 C823 0.961 . S
H811 C823 0.959 . S
H812 C826 0.929 . S
H813 C827 0.931 . S
H814 C829 0.930 . S
C815 H803 0.930 . S
C815 C816 1.399 . S
C815 C820 1.399 . S
C816 C815 1.399 . S
C816 C817 1.376 . S
C817 H804 0.930 . S
C817 C816 1.376 . S
C817 C818 1.388 . S
C818 H805 0.930 . S
C818 C817 1.388 . S
C818 C819 1.390 . S
C819 C818 1.390 . S
C819 C820 1.394 . S
C819 C825 1.465 . S
C820 C815 1.399 . S
C820 C819 1.394 . S
C820 C821 1.516 . S
C821 C820 1.516 . S
C821 C822 1.502 . S
C821 C823 1.561 . S
C821 C824 1.526 . S
C822 H806 0.959 . S
C822 H807 0.959 . S
C822 H808 0.961 . S
C822 C821 1.502 . S
C823 H809 0.960 . S
C823 H810 0.961 . S
C823 H811 0.959 . S
C823 C821 1.561 . S
C824 C821 1.526 . S
C824 C825 1.396 . S
C824 C829 1.390 . S
C825 C819 1.465 . S
C825 C824 1.396 . S
C825 C826 1.399 . S
C826 H812 0.929 . S
C826 C825 1.399 . S
C826 C827 1.385 . S
C827 H813 0.931 . S
C827 C826 1.385 . S
C827 C828 1.389 . S
C828 C827 1.389 . S
C828 C829 1.387 . S
C829 H814 0.930 . S
C829 C824 1.390 . S
C829 C828 1.387 . S
H830 C842 0.930 . S
H831 C844 0.930 . S
H832 C845 0.930 . S
H833 C849 0.959 . S
H834 C849 0.959 . S
H835 C849 0.961 . S
H836 C850 0.960 . S
H837 C850 0.961 . S
H838 C850 0.959 . S
H839 C853 0.929 . S
H840 C854 0.931 . S
H841 C856 0.930 . S
C842 H830 0.930 . S
C842 C843 1.399 . S
C842 C847 1.399 . S
C843 C842 1.399 . S
C843 C844 1.376 . S
C844 H831 0.930 . S
C844 C843 1.376 . S
C844 C845 1.388 . S
C845 H832 0.930 . S
C845 C844 1.388 . S
C845 C846 1.390 . S
C846 C845 1.390 . S
C846 C847 1.394 . S
C846 C852 1.465 . S
C847 C842 1.399 . S
C847 C846 1.394 . S
C847 C848 1.516 . S
C848 C847 1.516 . S
C848 C849 1.502 . S
C848 C850 1.561 . S
C848 C851 1.526 . S
C849 H833 0.959 . S
C849 H834 0.959 . S
C849 H835 0.961 . S
C849 C848 1.502 . S
C850 H836 0.960 . S
C850 H837 0.961 . S
C850 H838 0.959 . S
C850 C848 1.561 . S
C851 C848 1.526 . S
C851 C852 1.396 . S
C851 C856 1.390 . S
C852 C846 1.465 . S
C852 C851 1.396 . S
C852 C853 1.399 . S
C853 H839 0.929 . S
C853 C852 1.399 . S
C853 C854 1.385 . S
C854 H840 0.931 . S
C854 C853 1.385 . S
C854 C855 1.389 . S
C855 C854 1.389 . S
C855 C856 1.387 . S
C856 H841 0.930 . S
C856 C851 1.390 . S
C856 C855 1.387 . S
H857 C869 0.930 . S
H858 C871 0.930 . S
H859 C872 0.930 . S
H860 C876 0.959 . S
H861 C876 0.959 . S
H862 C876 0.961 . S
H863 C877 0.960 . S
H864 C877 0.961 . S
H865 C877 0.959 . S
H866 C880 0.929 . S
H867 C881 0.931 . S
H868 C883 0.930 . S
C869 H857 0.930 . S
C869 C870 1.399 . S
C869 C874 1.399 . S
C870 C869 1.399 . S
C870 C871 1.376 . S
C871 H858 0.930 . S
C871 C870 1.376 . S
C871 C872 1.388 . S
C872 H859 0.930 . S
C872 C871 1.388 . S
C872 C873 1.390 . S
C873 C872 1.390 . S
C873 C874 1.394 . S
C873 C879 1.465 . S
C874 C869 1.399 . S
C874 C873 1.394 . S
C874 C875 1.516 . S
C875 C874 1.516 . S
C875 C876 1.502 . S
C875 C877 1.561 . S
C875 C878 1.526 . S
C876 H860 0.959 . S
C876 H861 0.959 . S
C876 H862 0.961 . S
C876 C875 1.502 . S
C877 H863 0.960 . S
C877 H864 0.961 . S
C877 H865 0.959 . S
C877 C875 1.561 . S
C878 C875 1.526 . S
C878 C879 1.396 . S
C878 C883 1.390 . S
C879 C873 1.465 . S
C879 C878 1.396 . S
C879 C880 1.399 . S
C880 H866 0.929 . S
C880 C879 1.399 . S
C880 C881 1.385 . S
C881 H867 0.931 . S
C881 C880 1.385 . S
C881 C882 1.389 . S
C882 C881 1.389 . S
C882 C883 1.387 . S
C883 H868 0.930 . S
C883 C878 1.390 . S
C883 C882 1.387 . S
H884 C896 0.930 . S
H885 C898 0.930 . S
H886 C899 0.930 . S
H887 C903 0.959 . S
H888 C903 0.959 . S
H889 C903 0.961 . S
H890 C904 0.960 . S
H891 C904 0.961 . S
H892 C904 0.959 . S
H893 C907 0.929 . S
H894 C908 0.931 . S
H895 C910 0.930 . S
C896 H884 0.930 . S
C896 C897 1.399 . S
C896 C901 1.399 . S
C897 C896 1.399 . S
C897 C898 1.376 . S
C898 H885 0.930 . S
C898 C897 1.376 . S
C898 C899 1.388 . S
C899 H886 0.930 . S
C899 C898 1.388 . S
C899 C900 1.390 . S
C900 C899 1.390 . S
C900 C901 1.394 . S
C900 C906 1.465 . S
C901 C896 1.399 . S
C901 C900 1.394 . S
C901 C902 1.516 . S
C902 C901 1.516 . S
C902 C903 1.502 . S
C902 C904 1.561 . S
C902 C905 1.526 . S
C903 H887 0.959 . S
C903 H888 0.959 . S
C903 H889 0.961 . S
C903 C902 1.502 . S
C904 H890 0.960 . S
C904 H891 0.961 . S
C904 H892 0.959 . S
C904 C902 1.561 . S
C905 C902 1.526 . S
C905 C906 1.396 . S
C905 C910 1.390 . S
C906 C900 1.465 . S
C906 C905 1.396 . S
C906 C907 1.399 . S
C907 H893 0.929 . S
C907 C906 1.399 . S
C907 C908 1.385 . S
C908 H894 0.931 . S
C908 C907 1.385 . S
C908 C909 1.389 . S
C909 C908 1.389 . S
C909 C910 1.387 . S
C910 H895 0.930 . S
C910 C905 1.390 . S
C910 C909 1.387 . S
H911 C923 0.930 . S
H912 C925 0.930 . S
H913 C926 0.930 . S
H914 C930 0.959 . S
H915 C930 0.959 . S
H916 C930 0.961 . S
H917 C931 0.960 . S
H918 C931 0.961 . S
H919 C931 0.959 . S
H920 C934 0.929 . S
H921 C935 0.931 . S
H922 C937 0.930 . S
C923 H911 0.930 . S
C923 C924 1.399 . S
C923 C928 1.399 . S
C924 C923 1.399 . S
C924 C925 1.376 . S
C925 H912 0.930 . S
C925 C924 1.376 . S
C925 C926 1.388 . S
C926 H913 0.930 . S
C926 C925 1.388 . S
C926 C927 1.390 . S
C927 C926 1.390 . S
C927 C928 1.394 . S
C927 C933 1.465 . S
C928 C923 1.399 . S
C928 C927 1.394 . S
C928 C929 1.516 . S
C929 C928 1.516 . S
C929 C930 1.502 . S
C929 C931 1.561 . S
C929 C932 1.526 . S
C930 H914 0.959 . S
C930 H915 0.959 . S
C930 H916 0.961 . S
C930 C929 1.502 . S
C931 H917 0.960 . S
C931 H918 0.961 . S
C931 H919 0.959 . S
C931 C929 1.561 . S
C932 C929 1.526 . S
C932 C933 1.396 . S
C932 C937 1.390 . S
C933 C927 1.465 . S
C933 C932 1.396 . S
C933 C934 1.399 . S
C934 H920 0.929 . S
C934 C933 1.399 . S
C934 C935 1.385 . S
C935 H921 0.931 . S
C935 C934 1.385 . S
C935 C936 1.389 . S
C936 C935 1.389 . S
C936 C937 1.387 . S
C937 H922 0.930 . S
C937 C932 1.390 . S
C937 C936 1.387 . S
H938 C950 0.930 . S
H939 C952 0.930 . S
H940 C953 0.930 . S
H941 C957 0.959 . S
H942 C957 0.959 . S
H943 C957 0.961 . S
H944 C958 0.960 . S
H945 C958 0.961 . S
H946 C958 0.959 . S
H947 C961 0.929 . S
H948 C962 0.931 . S
H949 C964 0.930 . S
C950 H938 0.930 . S
C950 C951 1.399 . S
C950 C955 1.399 . S
C951 C950 1.399 . S
C951 C952 1.376 . S
C952 H939 0.930 . S
C952 C951 1.376 . S
C952 C953 1.388 . S
C953 H940 0.930 . S
C953 C952 1.388 . S
C953 C954 1.390 . S
C954 C953 1.390 . S
C954 C955 1.394 . S
C954 C960 1.465 . S
C955 C950 1.399 . S
C955 C954 1.394 . S
C955 C956 1.516 . S
C956 C955 1.516 . S
C956 C957 1.502 . S
C956 C958 1.561 . S
C956 C959 1.526 . S
C957 H941 0.959 . S
C957 H942 0.959 . S
C957 H943 0.961 . S
C957 C956 1.502 . S
C958 H944 0.960 . S
C958 H945 0.961 . S
C958 H946 0.959 . S
C958 C956 1.561 . S
C959 C956 1.526 . S
C959 C960 1.396 . S
C959 C964 1.390 . S
C960 C954 1.465 . S
C960 C959 1.396 . S
C960 C961 1.399 . S
C961 H947 0.929 . S
C961 C960 1.399 . S
C961 C962 1.385 . S
C962 H948 0.931 . S
C962 C961 1.385 . S
C962 C963 1.389 . S
C963 C962 1.389 . S
C963 C964 1.387 . S
C964 H949 0.930 . S
C964 C959 1.390 . S
C964 C963 1.387 . S
H965 C977 0.930 . S
H966 C979 0.930 . S
H967 C980 0.930 . S
H968 C984 0.959 . S
H969 C984 0.959 . S
H970 C984 0.961 . S
H971 C985 0.960 . S
H972 C985 0.961 . S
H973 C985 0.959 . S
H974 C988 0.929 1_554 S
H975 C989 0.931 . S
H976 C991 0.930 . S
C977 H965 0.930 . S
C977 C978 1.399 1_556 S
C977 C982 1.399 . S
C978 C977 1.399 1_554 S
C978 C979 1.376 . S
C979 H966 0.930 . S
C979 C978 1.376 . S
C979 C980 1.388 . S
C980 H967 0.930 . S
C980 C979 1.388 . S
C980 C981 1.390 1_554 S
C981 C980 1.390 1_556 S
C981 C982 1.394 . S
C981 C987 1.465 . S
C982 C977 1.399 . S
C982 C981 1.394 . S
C982 C983 1.516 . S
C983 C982 1.516 . S
C983 C984 1.502 . S
C983 C985 1.561 . S
C983 C986 1.526 . S
C984 H968 0.959 . S
C984 H969 0.959 . S
C984 H970 0.961 . S
C984 C983 1.502 . S
C985 H971 0.960 . S
C985 H972 0.961 . S
C985 H973 0.959 . S
C985 C983 1.561 . S
C986 C983 1.526 . S
C986 C987 1.396 . S
C986 C991 1.390 . S
C987 C981 1.465 . S
C987 C986 1.396 . S
C987 C988 1.399 . S
C988 H974 0.929 1_556 S
C988 C987 1.399 . S
C988 C989 1.385 . S
C989 H975 0.931 . S
C989 C988 1.385 . S
C989 C990 1.389 . S
C990 C989 1.389 . S
C990 C991 1.387 . S
C991 H976 0.930 . S
C991 C986 1.390 . S
C991 C990 1.387 . S
C357 C7 1.492 . S
C369 C105 1.483 . S
C384 C37 1.368 . S
C396 C137 1.363 . S
C411 C54 1.559 . S
C423 C169 1.478 . S
C450 C213 1.472 . S
C438 C87 1.455 . S
C477 C233 1.416 . S
C465 C30 1.412 . S
C492 C51 1.498 . S
C504 C277 1.507 . S
C519 C84 1.580 . S
C531 C297 1.495 . S
C546 C10 1.336 . S
C558 C341 1.152 1_455 S
C573 C59 1.489 . S
C585 C329 1.351 . S
C612 C245 1.370 . S
C600 C74 1.383 . S
C639 C265 1.582 . S
C627 C18 1.635 . S
C654 C32 1.446 . S
C666 C309 1.287 . S
C693 C149 1.536 . S
C681 C73 1.545 . S
C708 C15 1.422 . S
C720 C181 1.414 . S
C747 C201 1.575 . S
C735 C43 1.629 . S
C774 C117 1.353 . S
C762 C62 1.362 . S
C801 C303 1.372 . S
C789 C21 1.506 . S
C828 C335 1.183 . S
C816 C29 1.355 . S
C843 C52 1.292 . S
C855 C239 1.301 . S
C882 C271 1.515 . S
C870 C81 1.527 . S
C909 C175 1.311 . S
C897 C40 1.493 . S
C924 C65 1.476 . S
C936 C207 1.470 . S
C963 C111 1.336 . S
C951 C76 1.338 . S
C990 C143 1.346 . S
C978 C8 1.326 . S
