# Generated by pormake.
# Topology pyr, (3,6)-cn, num edge types: 1
# Building blocks:
#     Node 0, Type 0, BuildingBlock: BELTOD_clean_linker_0, # of connection points: 3
#     Node 1, Type 0, BuildingBlock: BELTOD_clean_linker_0, # of connection points: 3
#     Node 2, Type 0, BuildingBlock: BELTOD_clean_linker_0, # of connection points: 3
#     Node 3, Type 0, BuildingBlock: BELTOD_clean_linker_0, # of connection points: 3
#     Node 4, Type 0, BuildingBlock: BELTOD_clean_linker_0, # of connection points: 3
#     Node 5, Type 0, BuildingBlock: BELTOD_clean_linker_0, # of connection points: 3
#     Node 6, Type 0, BuildingBlock: BELTOD_clean_linker_0, # of connection points: 3
#     Node 7, Type 0, BuildingBlock: BELTOD_clean_linker_0, # of connection points: 3
#     Node 8, Type 1, BuildingBlock: PAMTOO_clean_sbu_0, # of connection points: 6
#     Node 9, Type 1, BuildingBlock: PAMTOO_clean_sbu_0, # of connection points: 6
#     Node 10, Type 1, BuildingBlock: PAMTOO_clean_sbu_0, # of connection points: 6
#     Node 11, Type 1, BuildingBlock: PAMTOO_clean_sbu_0, # of connection points: 6
#     Edge 12, Type (0, 1), BuildingBlock: CIFDUS_clean_linker_0, # of connection points: 2
#     Edge 13, Type (0, 1), BuildingBlock: CIFDUS_clean_linker_0, # of connection points: 2
#     Edge 14, Type (0, 1), BuildingBlock: CIFDUS_clean_linker_0, # of connection points: 2
#     Edge 15, Type (0, 1), BuildingBlock: CIFDUS_clean_linker_0, # of connection points: 2
#     Edge 16, Type (0, 1), BuildingBlock: CIFDUS_clean_linker_0, # of connection points: 2
#     Edge 17, Type (0, 1), BuildingBlock: CIFDUS_clean_linker_0, # of connection points: 2
#     Edge 18, Type (0, 1), BuildingBlock: CIFDUS_clean_linker_0, # of connection points: 2
#     Edge 19, Type (0, 1), BuildingBlock: CIFDUS_clean_linker_0, # of connection points: 2
#     Edge 20, Type (0, 1), BuildingBlock: CIFDUS_clean_linker_0, # of connection points: 2
#     Edge 21, Type (0, 1), BuildingBlock: CIFDUS_clean_linker_0, # of connection points: 2
#     Edge 22, Type (0, 1), BuildingBlock: CIFDUS_clean_linker_0, # of connection points: 2
#     Edge 23, Type (0, 1), BuildingBlock: CIFDUS_clean_linker_0, # of connection points: 2
#     Edge 24, Type (0, 1), BuildingBlock: CIFDUS_clean_linker_0, # of connection points: 2
#     Edge 25, Type (0, 1), BuildingBlock: CIFDUS_clean_linker_0, # of connection points: 2
#     Edge 26, Type (0, 1), BuildingBlock: CIFDUS_clean_linker_0, # of connection points: 2
#     Edge 27, Type (0, 1), BuildingBlock: CIFDUS_clean_linker_0, # of connection points: 2
#     Edge 28, Type (0, 1), BuildingBlock: CIFDUS_clean_linker_0, # of connection points: 2
#     Edge 29, Type (0, 1), BuildingBlock: CIFDUS_clean_linker_0, # of connection points: 2
#     Edge 30, Type (0, 1), BuildingBlock: CIFDUS_clean_linker_0, # of connection points: 2
#     Edge 31, Type (0, 1), BuildingBlock: CIFDUS_clean_linker_0, # of connection points: 2
#     Edge 32, Type (0, 1), BuildingBlock: CIFDUS_clean_linker_0, # of connection points: 2
#     Edge 33, Type (0, 1), BuildingBlock: CIFDUS_clean_linker_0, # of connection points: 2
#     Edge 34, Type (0, 1), BuildingBlock: CIFDUS_clean_linker_0, # of connection points: 2
#     Edge 35, Type (0, 1), BuildingBlock: CIFDUS_clean_linker_0, # of connection points: 2
# Relax obj value: 0.119
# Max RMSD: 0.169
# Mean RMSD: 0.072
data_MOF--net-pyr--node1-PAMTOO_clean_sbu_0--node2-BELTOD_clean_linker_0--edge1-CIFDUS_clean_linker_0
_symmetry_space_group_name_H-M    P1
_symmetry_Int_Tables_number       1
_symmetry_cell_setting            triclinic
loop_
_symmetry_equiv_pos_as_xyz
'x, y, z'
_cell_length_a     37.680392
_cell_length_b     40.101658
_cell_length_c     38.679165
_cell_angle_alpha  90.061306
_cell_angle_beta   89.917815
_cell_angle_gamma 103.79125
loop_
_atom_site_label
_atom_site_type_symbol
_atom_site_fract_x
_atom_site_fract_y
_atom_site_fract_z
_atom_type_partial_charge
P0 P 0.40617 0.33768 0.25514 0.0
H1 H 0.47764 0.3208 0.25308 0.0
H2 H 0.49848 0.27419 0.22506 0.0
H3 H 0.3949 0.24327 0.17205 0.0
H4 H 0.37392 0.28887 0.20104 0.0
H5 H 0.36162 0.38209 0.27992 0.0
H6 H 0.31433 0.40501 0.25227 0.0
H7 H 0.34431 0.37029 0.15303 0.0
H8 H 0.39273 0.34884 0.18071 0.0
H9 H 0.41217 0.31404 0.3266 0.0
H10 H 0.33138 0.29883 0.24547 0.0
O11 O 0.43917 0.36373 0.27776 0.0
H12 H 0.37036 0.27094 0.36222 0.0
H13 H 0.2903 0.25579 0.2804 0.0
C14 C 0.42454 0.30892 0.22855 0.0
C15 C 0.45976 0.30449 0.2348 0.0
C16 C 0.47163 0.27776 0.21878 0.0
C17 C 0.44827 0.25482 0.19647 0.0
C18 C 0.41341 0.2601 0.1895 0.0
C19 C 0.40156 0.2866 0.20567 0.0
C20 C 0.3799 0.36284 0.23255 0.0
C21 C 0.35868 0.38026 0.25207 0.0
C22 C 0.3314 0.393 0.23629 0.0
C23 C 0.32486 0.38852 0.20062 0.0
C24 C 0.34847 0.37389 0.18061 0.0
C25 C 0.37598 0.36129 0.19649 0.0
C26 C 0.3747 0.30985 0.28359 0.0
C27 C 0.38534 0.3019 0.31671 0.0
C28 C 0.36155 0.27736 0.33695 0.0
C29 C 0.32733 0.26009 0.32384 0.0
C30 C 0.31666 0.26863 0.29094 0.0
C31 C 0.34011 0.2933 0.27104 0.0
P32 P 0.19145 0.80303 0.69913 0.0
H33 H 0.25964 0.83374 0.73365 0.0
H34 H 0.27553 0.84613 0.794 0.0
H35 H 0.16556 0.795 0.82435 0.0
H36 H 0.14977 0.78271 0.76331 0.0
H37 H 0.2079 0.78163 0.63015 0.0
H38 H 0.24186 0.73981 0.61171 0.0
H39 H 0.2347 0.69854 0.71523 0.0
H40 H 0.20052 0.74011 0.73347 0.0
H41 H 0.14907 0.84549 0.73241 0.0
H42 H 0.13515 0.77356 0.64769 0.0
O43 O 0.21856 0.83566 0.67802 0.0
H44 H 0.09665 0.86543 0.71313 0.0
H45 H 0.08204 0.7936 0.62802 0.0
C46 C 0.20325 0.80847 0.74409 0.0
C47 C 0.23899 0.825 0.75326 0.0
C48 C 0.24813 0.83168 0.78785 0.0
C49 C 0.2217 0.82166 0.81393 0.0
C50 C 0.18632 0.80336 0.80474 0.0
C51 C 0.17727 0.79645 0.76998 0.0
C52 C 0.20239 0.76448 0.68331 0.0
C53 C 0.21238 0.76272 0.64855 0.0
C54 C 0.23181 0.73879 0.63803 0.0
C55 C 0.24157 0.71647 0.66226 0.0
C56 C 0.22806 0.7159 0.6962 0.0
C57 C 0.2084 0.73963 0.7066 0.0
C58 C 0.14575 0.80756 0.69186 0.0
C59 C 0.13361 0.83267 0.71062 0.0
C60 C 0.10343 0.84415 0.69952 0.0
C61 C 0.08525 0.83128 0.6689 0.0
C62 C 0.09568 0.80415 0.65162 0.0
C63 C 0.12591 0.79253 0.66291 0.0
P64 P 0.67181 0.34294 0.85057 0.0
H65 H 0.74327 0.33319 0.86959 0.0
H66 H 0.79415 0.36722 0.90267 0.0
H67 H 0.73384 0.44513 0.91848 0.0
H68 H 0.68297 0.41087 0.88447 0.0
H69 H 0.61738 0.2783 0.83902 0.0
H70 H 0.59022 0.23035 0.87732 0.0
H71 H 0.64095 0.2894 0.96512 0.0
H72 H 0.66769 0.33719 0.92689 0.0
H73 H 0.69712 0.40296 0.80678 0.0
H74 H 0.59349 0.33639 0.83452 0.0
O75 O 0.69003 0.32045 0.82214 0.0
H76 H 0.66736 0.42994 0.76245 0.0
H77 H 0.56321 0.36373 0.79068 0.0
C78 C 0.70965 0.36982 0.87388 0.0
C79 C 0.74108 0.35777 0.87982 0.0
C80 C 0.77006 0.37714 0.89915 0.0
C81 C 0.76818 0.40896 0.91344 0.0
C82 C 0.73645 0.42096 0.90755 0.0
C83 C 0.70732 0.40142 0.88813 0.0
C84 C 0.64468 0.3115 0.87986 0.0
C85 C 0.62189 0.28129 0.86661 0.0
C86 C 0.60645 0.25378 0.88858 0.0
C87 C 0.61379 0.25576 0.92432 0.0
C88 C 0.63524 0.28672 0.93768 0.0
C89 C 0.65035 0.31429 0.91575 0.0
C90 C 0.64758 0.36792 0.82448 0.0
C91 C 0.66771 0.39485 0.80409 0.0
C92 C 0.65057 0.41032 0.7786 0.0
C93 C 0.61276 0.39901 0.77256 0.0
C94 C 0.59244 0.37286 0.79406 0.0
C95 C 0.60968 0.35736 0.81954 0.0
P96 P 0.83232 0.68741 0.32983 0.0
H97 H 0.80434 0.74649 0.34736 0.0
H98 H 0.82923 0.79961 0.37898 0.0
H99 H 0.93217 0.77136 0.38967 0.0
H100 H 0.90663 0.71722 0.35864 0.0
H101 H 0.82656 0.61578 0.30867 0.0
H102 H 0.85786 0.59066 0.26406 0.0
H103 H 0.93487 0.68864 0.25068 0.0
H104 H 0.90179 0.71392 0.29341 0.0
H105 H 0.83511 0.68604 0.40619 0.0
H106 H 0.76708 0.63061 0.32524 0.0
O107 O 0.80325 0.69611 0.30061 0.0
H108 H 0.79012 0.6586 0.44935 0.0
H109 H 0.72246 0.60239 0.36853 0.0
C110 C 0.85389 0.72824 0.34963 0.0
C111 C 0.8325 0.75185 0.35588 0.0
C112 C 0.84667 0.78217 0.37412 0.0
C113 C 0.88272 0.78975 0.38648 0.0
C114 C 0.90448 0.76637 0.3799 0.0
C115 C 0.88995 0.73553 0.36209 0.0
C116 C 0.86221 0.66668 0.30534 0.0
C117 C 0.85072 0.6317 0.2968 0.0
C118 C 0.8688 0.61726 0.27107 0.0
C119 C 0.8989 0.63751 0.25312 0.0
C120 C 0.91139 0.67218 0.26313 0.0
C121 C 0.8929 0.68666 0.28836 0.0
C122 C 0.80443 0.66068 0.36228 0.0
C123 C 0.81096 0.66743 0.39763 0.0
C124 C 0.78513 0.65179 0.42238 0.0
C125 C 0.75256 0.62858 0.41233 0.0
C126 C 0.74734 0.62002 0.37712 0.0
C127 C 0.77291 0.63612 0.35233 0.0
P128 P 0.70094 0.82851 0.89721 0.0
H129 H 0.68274 0.83089 0.96955 0.0
H130 H 0.63111 0.84552 0.99842 0.0
H131 H 0.57347 0.83764 0.90108 0.0
H132 H 0.62551 0.82316 0.8723 0.0
H133 H 0.77871 0.83604 0.90549 0.0
H134 H 0.81539 0.79783 0.92608 0.0
H135 H 0.71697 0.72023 0.94853 0.0
H136 H 0.68013 0.75894 0.9272 0.0
H137 H 0.6787 0.86911 0.84322 0.0
H138 H 0.71515 0.77516 0.84986 0.0
O139 O 0.72531 0.86867 0.90321 0.0
H140 H 0.68533 0.86882 0.78061 0.0
H141 H 0.72232 0.77499 0.78702 0.0
C142 C 0.65816 0.82616 0.9188 0.0
C143 C 0.65846 0.83103 0.95463 0.0
C144 C 0.62879 0.8394 0.97112 0.0
C145 C 0.59827 0.84322 0.95195 0.0
C146 C 0.59683 0.83548 0.91644 0.0
C147 C 0.62659 0.82704 0.89998 0.0
C148 C 0.72675 0.80059 0.91565 0.0
C149 C 0.76493 0.81105 0.91541 0.0
C150 C 0.7859 0.78916 0.9273 0.0
C151 C 0.76911 0.75613 0.93943 0.0
C152 C 0.73069 0.74554 0.9394 0.0
C153 C 0.70963 0.76766 0.9275 0.0
C154 C 0.69674 0.82241 0.85121 0.0
C155 C 0.68704 0.84784 0.83109 0.0
C156 C 0.69064 0.8475 0.79523 0.0
C157 C 0.70452 0.82193 0.77893 0.0
C158 C 0.71174 0.79507 0.79897 0.0
C159 C 0.7077 0.79523 0.83491 0.0
P160 P 0.88471 0.32212 0.35089 0.0
H161 H 0.88093 0.37878 0.39763 0.0
H162 H 0.82991 0.39471 0.42724 0.0
H163 H 0.75555 0.30578 0.38311 0.0
H164 H 0.8067 0.28921 0.35553 0.0
H165 H 0.95787 0.30964 0.35359 0.0
H166 H 0.98226 0.26576 0.38259 0.0
H167 H 0.87869 0.22883 0.43457 0.0
H168 H 0.85426 0.27176 0.40456 0.0
H169 H 0.83749 0.33797 0.29671 0.0
H170 H 0.89365 0.25818 0.31788 0.0
O171 O 0.91635 0.35764 0.34111 0.0
H172 H 0.80366 0.30322 0.25009 0.0
H173 H 0.86128 0.22416 0.27064 0.0
C174 C 0.84745 0.33342 0.37359 0.0
C175 C 0.8536 0.36275 0.3945 0.0
C176 C 0.82435 0.37188 0.41126 0.0
C177 C 0.78841 0.35177 0.40732 0.0
C178 C 0.78274 0.32177 0.38711 0.0
C179 C 0.812 0.31251 0.3708 0.0
C180 C 0.90448 0.29436 0.37734 0.0
C181 C 0.94071 0.29251 0.37178 0.0
C182 C 0.9546 0.26738 0.38839 0.0
C183 C 0.93238 0.2436 0.41081 0.0
C184 C 0.89638 0.24632 0.41705 0.0
C185 C 0.88248 0.27124 0.40022 0.0
C186 C 0.86723 0.30028 0.3115 0.0
C187 C 0.8432 0.31336 0.29079 0.0
C188 C 0.82403 0.29354 0.26399 0.0
C189 C 0.82915 0.26054 0.25716 0.0
C190 C 0.85589 0.24903 0.27592 0.0
C191 C 0.87463 0.26864 0.30294 0.0
P192 P 0.38048 0.67401 0.23387 0.0
H193 H 0.3577 0.65934 0.16238 0.0
H194 H 0.29911 0.63364 0.13513 0.0
H195 H 0.24649 0.62591 0.23513 0.0
H196 H 0.30557 0.65119 0.26224 0.0
H197 H 0.45135 0.72317 0.23066 0.0
H198 H 0.46992 0.78391 0.2153 0.0
H199 H 0.35644 0.78781 0.20982 0.0
H200 H 0.33813 0.72678 0.22468 0.0
H201 H 0.35678 0.6068 0.26665 0.0
H202 H 0.41523 0.70835 0.29728 0.0
O203 O 0.41053 0.65846 0.21101 0.0
H204 H 0.36994 0.58425 0.32264 0.0
H205 H 0.42933 0.68594 0.35303 0.0
C206 C 0.33621 0.65638 0.21446 0.0
C207 C 0.33355 0.65204 0.17847 0.0
C208 C 0.29988 0.6376 0.16284 0.0
C209 C 0.26793 0.62735 0.18286 0.0
C210 C 0.27058 0.63283 0.21891 0.0
C211 C 0.30435 0.64737 0.23451 0.0
C212 C 0.39336 0.72023 0.22844 0.0
C213 C 0.43045 0.7372 0.22658 0.0
C214 C 0.44105 0.77209 0.21791 0.0
C215 C 0.41473 0.7909 0.21092 0.0
C216 C 0.3775 0.77408 0.21436 0.0
C217 C 0.36695 0.73914 0.22312 0.0
C218 C 0.38426 0.65944 0.27785 0.0
C219 C 0.37183 0.62442 0.2857 0.0
C220 C 0.37987 0.61144 0.31766 0.0
C221 C 0.40097 0.63312 0.34254 0.0
C222 C 0.41263 0.66843 0.33485 0.0
C223 C 0.40455 0.68137 0.30282 0.0
P224 P 0.1718 0.32951 0.75791 0.0
H225 H 0.15471 0.32855 0.68334 0.0
H226 H 0.12756 0.28169 0.64407 0.0
H227 H 0.0983 0.21335 0.73113 0.0
H228 H 0.12596 0.26033 0.77039 0.0
H229 H 0.23885 0.31358 0.73442 0.0
H230 H 0.28736 0.34164 0.69509 0.0
H231 H 0.23475 0.42535 0.68186 0.0
H232 H 0.1856 0.39667 0.72134 0.0
H233 H 0.09923 0.31515 0.79019 0.0
H234 H 0.19511 0.39893 0.78776 0.0
O235 O 0.19049 0.30738 0.78623 0.0
H236 H 0.07371 0.34384 0.83667 0.0
H237 H 0.16935 0.42809 0.8336 0.0
C238 C 0.1429 0.29798 0.72994 0.0
C239 C 0.14197 0.30371 0.69418 0.0
C240 C 0.12661 0.27675 0.67162 0.0
C241 C 0.1113 0.24355 0.68436 0.0
C242 C 0.10985 0.23855 0.7204 0.0
C243 C 0.12563 0.26547 0.74293 0.0
C244 C 0.20914 0.35349 0.73175 0.0
C245 C 0.23793 0.33824 0.72357 0.0
C246 C 0.26549 0.35414 0.70071 0.0
C247 C 0.26492 0.38571 0.68529 0.0
C248 C 0.23614 0.4012 0.69363 0.0
C249 C 0.20817 0.38495 0.71632 0.0
C250 C 0.14863 0.35526 0.78441 0.0
C251 C 0.11426 0.34028 0.79868 0.0
C252 C 0.09985 0.35657 0.8256 0.0
C253 C 0.11948 0.38832 0.83894 0.0
C254 C 0.15325 0.40394 0.82367 0.0
C255 C 0.1679 0.38733 0.79713 0.0
Dy256 Dy 0.03503 0.03288 0.50482 0.0
Dy257 Dy 0.9562 1.01285 0.54628 0.0
C258 C 0.02128 0.0756 0.57217 0.0
O259 O 0.03287 0.98306 0.53052 0.0
O260 O 0.99091 0.98287 0.57365 0.0
O261 O 0.09328 0.03736 0.50434 0.0
O262 O 0.06526 0.04696 0.45762 0.0
O263 O 0.95566 0.96781 0.51245 0.0
O264 O 0.99626 0.99474 0.47124 0.0
O265 O 0.94978 0.04552 0.50094 0.0
O266 O 0.00891 0.07611 0.49483 0.0
O267 O 0.89742 0.99686 0.5433 0.0
O268 O 0.92408 1.00972 0.59286 0.0
C269 C 0.0168 0.97056 0.55936 0.0
O270 O 0.0452 0.06383 0.55389 0.0
O271 O 0.98591 0.06306 0.56884 0.0
C272 C 0.12719 0.07598 0.46373 0.0
C273 C 0.18489 0.13001 0.44167 0.0
C274 C 0.15304 0.137 0.4559 0.0
C275 C 0.12428 0.11009 0.46684 0.0
C276 C 0.15947 0.06907 0.45102 0.0
C277 C 0.18811 0.09583 0.44011 0.0
C278 C 0.09659 0.04702 0.47206 0.0
C279 C 0.97049 0.96832 0.4817 0.0
C280 C 0.97385 0.0728 0.4901 0.0
C281 C 0.86965 0.96671 0.59209 0.0
C282 C 0.82627 0.90975 0.6268 0.0
C283 C 0.85808 0.90685 0.60913 0.0
C284 C 0.87966 0.93518 0.59189 0.0
C285 C 0.8374 0.96941 0.60851 0.0
C286 C 0.81588 0.94121 0.62575 0.0
C287 C 0.89335 0.99738 0.57676 0.0
H288 H 0.14976 0.16309 0.45722 0.0
H289 H 0.09948 0.11579 0.47681 0.0
H290 H 0.16219 0.04285 0.44873 0.0
H291 H 0.21254 0.08973 0.42975 0.0
H292 H 0.8667 0.88294 0.60932 0.0
H293 H 0.90456 0.93276 0.57915 0.0
H294 H 0.82942 0.99365 0.60891 0.0
H295 H 0.79202 0.94463 0.63964 0.0
Dy296 Dy 0.44792 0.02529 0.05302 0.0
Dy297 Dy 0.52722 0.03413 0.09176 0.0
C298 C 0.45915 0.97125 0.10983 0.0
O299 O 0.44563 0.05433 0.10206 0.0
O300 O 0.50651 0.0789 0.10904 0.0
O301 O 0.3892 1.01261 0.05762 0.0
O302 O 0.41483 0.02813 1.00811 0.0
O303 O 0.53826 0.0705 0.04619 0.0
O304 O 0.48002 0.07672 1.03614 0.0
O305 O 0.51945 0.98714 0.05944 0.0
O306 O 0.48117 0.99984 1.01817 0.0
O307 O 0.58485 0.0355 0.08891 0.0
O308 O 0.55877 0.03875 0.13858 0.0
C309 C 0.47217 0.07851 0.11486 0.0
O310 O 0.44497 0.97563 0.07975 0.0
O311 O 0.4866 0.99471 0.12262 0.0
C312 C 0.36121 0.98446 1.00808 0.0
C313 C 0.32192 0.92718 0.971 0.0
C314 C 0.34868 0.92357 0.99505 0.0
C315 C 0.36828 0.95203 1.01334 0.0
C316 C 0.33363 0.988 0.98523 0.0
C317 C 0.31409 0.95957 0.9668 0.0
C318 C 0.38441 1.01487 1.0244 0.0
C319 C 0.51551 0.08661 1.03143 0.0
C320 C 0.50409 0.98206 1.02895 0.0
C321 C 0.62139 0.06546 0.13388 0.0
C322 C 0.68118 0.11245 0.16337 0.0
C323 C 0.6503 0.12347 0.15224 0.0
C324 C 0.62051 0.10006 0.13761 0.0
C325 C 0.65272 0.05478 0.14346 0.0
C326 C 0.6824 0.07806 0.15805 0.0
C327 C 0.58931 0.03957 0.12223 0.0
H328 H 0.35513 0.89894 0.99905 0.0
H329 H 0.38968 0.94892 1.03083 0.0
H330 H 0.32807 1.01294 0.98076 0.0
H331 H 0.2941 0.96336 0.94804 0.0
H332 H 0.64852 0.14976 0.15622 0.0
H333 H 0.59644 0.10868 0.13024 0.0
H334 H 0.65383 0.02817 0.14056 0.0
H335 H 0.70604 0.06898 0.1659 0.0
Dy336 Dy 0.50593 0.47667 0.53701 0.0
Dy337 Dy 0.51382 0.55225 0.57305 0.0
C338 C 0.54336 0.49405 0.61123 0.0
O339 O 0.44923 0.47441 0.55567 0.0
O340 O 0.464 0.51753 0.5961 0.0
O341 O 0.49958 0.42178 0.54128 0.0
O342 O 0.50716 0.44609 0.49121 0.0
O343 O 0.47459 0.55146 0.5293 0.0
O344 O 0.49061 0.51009 0.49599 0.0
O345 O 0.55998 0.56006 0.53508 0.0
O346 O 0.56469 0.50425 0.53109 0.0
O347 O 0.51969 0.60713 0.57022 0.0
O348 O 0.51615 0.58192 0.61995 0.0
C349 C 0.4409 0.49071 0.58289 0.0
O350 O 0.52027 0.47148 0.59259 0.0
O351 O 0.55133 0.52676 0.60279 0.0
C352 C 0.53815 0.40323 0.50173 0.0
C353 C 0.59983 0.37908 0.48315 0.0
C354 C 0.60326 0.407 0.50588 0.0
C355 C 0.57268 0.41889 0.51515 0.0
C356 C 0.53434 0.37483 0.47972 0.0
C357 C 0.56498 0.36268 0.47062 0.0
C358 C 0.50708 0.4184 0.50877 0.0
C359 C 0.47514 0.53604 0.49937 0.0
C360 C 0.57767 0.53715 0.52513 0.0
C361 C 0.48461 0.62591 0.6141 0.0
C362 C 0.42383 0.65115 0.63465 0.0
C363 C 0.43497 0.6528 0.59984 0.0
C364 C 0.46498 0.64029 0.58966 0.0
C365 C 0.47411 0.62514 0.649 0.0
C366 C 0.44398 0.63743 0.65914 0.0
C367 C 0.51437 0.60977 0.60336 0.0
H368 H 0.62968 0.41985 0.51625 0.0
H369 H 0.57613 0.44081 0.53227 0.0
H370 H 0.50789 0.36261 0.46897 0.0
H371 H 0.56163 0.34125 0.45286 0.0
H372 H 0.42056 0.66384 0.58041 0.0
H373 H 0.4724 0.64147 0.56255 0.0
H374 H 0.48872 0.61427 0.66843 0.0
H375 H 0.43601 0.63545 0.68611 0.0
Dy376 Dy 0.01667 0.5528 1.02605 0.0
Dy377 Dy 0.01971 0.48333 0.07001 0.0
C378 C 0.98061 0.53862 0.10188 0.0
O379 O 0.0753 0.56042 1.04233 0.0
O380 O 0.06488 0.52557 0.08978 0.0
O381 O 0.02703 0.60819 1.02387 0.0
O382 O 0.00274 0.57739 0.98017 0.0
O383 O 0.05538 0.48213 1.02357 0.0
O384 O 0.03584 0.51949 0.98735 0.0
O385 O 0.97075 0.46671 1.03636 0.0
O386 O 0.95978 0.5192 1.02287 0.0
O387 O 0.02462 0.43073 0.0723 0.0
O388 O 0.02126 0.45878 0.11941 0.0
C389 C 0.08594 0.55055 0.07219 0.0
O390 O 0.99938 0.56127 0.08016 0.0
O391 O 0.97849 0.50562 0.09796 0.0
C392 C 0.98248 0.62729 0.99221 0.0
C393 C 0.9284 0.66506 0.98862 0.0
C394 C 0.9651 0.68069 0.98085 0.0
C395 C 0.99188 0.66192 0.9826 0.0
C396 C 0.94599 0.6116 1.00034 0.0
C397 C 0.91912 0.63029 0.99839 0.0
C398 C 0.01092 0.60789 0.99405 0.0
C399 C 0.05285 0.49491 0.99259 0.0
C400 C 0.94974 0.48543 1.02338 0.0
C401 C 0.06238 0.42341 0.11836 0.0
C402 C 0.1272 0.40939 0.14414 0.0
C403 C 0.12803 0.4405 0.12704 0.0
C404 C 0.09594 0.44737 0.11417 0.0
C405 C 0.0613 0.39223 0.13501 0.0
C406 C 0.09348 0.38521 0.14777 0.0
C407 C 0.02874 0.43155 0.10574 0.0
H408 H 0.97302 0.70731 0.97285 0.0
H409 H 0.01993 0.67442 0.97633 0.0
H410 H 0.93828 0.58489 1.00814 0.0
H411 H 0.89116 0.61767 1.00485 0.0
H412 H 0.15335 0.4599 0.12423 0.0
H413 H 0.09726 0.4716 0.10128 0.0
H414 H 0.0356 0.37342 0.13829 0.0
H415 H 0.09197 0.36082 0.16039 0.0
H416 H 0.30108 0.26161 0.38933 0.0
H417 H 0.29952 0.19551 0.30105 0.0
H418 H 0.25629 0.14912 0.33038 0.0
H419 H 0.21696 0.1283 0.37964 0.0
H420 H 0.2161 0.19395 0.46783 0.0
H421 H 0.262 0.23982 0.43998 0.0
C422 C 0.29147 0.23688 0.37684 0.0
C423 C 0.30325 0.23182 0.34317 0.0
C424 C 0.26604 0.21048 0.39366 0.0
C425 C 0.29051 0.1999 0.32692 0.0
C426 C 0.26586 0.17342 0.34364 0.0
C427 C 0.22722 0.15246 0.39302 0.0
C428 C 0.21343 0.15768 0.42581 0.0
C429 C 0.25316 0.17857 0.3768 0.0
C430 C 0.22627 0.18942 0.44248 0.0
C431 C 0.25256 0.21555 0.42663 0.0
H432 H 0.28314 0.82089 0.85008 0.0
H433 H 0.18029 0.84989 0.85792 0.0
H434 H 0.20053 0.88125 0.91126 0.0
H435 H 0.25093 0.90779 0.95013 0.0
H436 H 0.35543 0.88236 0.93894 0.0
H437 H 0.33099 0.84202 0.8929 0.0
C438 C 0.265 0.83369 0.86378 0.0
C439 C 0.23057 0.83358 0.84982 0.0
C440 C 0.27728 0.85265 0.89367 0.0
C441 C 0.20694 0.84955 0.86817 0.0
C442 C 0.21864 0.8678 0.89848 0.0
C443 C 0.2682 0.89314 0.93782 0.0
C444 C 0.30504 0.89845 0.94765 0.0
C445 C 0.25431 0.87072 0.91059 0.0
C446 C 0.32691 0.8787 0.93204 0.0
C447 C 0.31306 0.85581 0.90546 0.0
H448 H 0.6265 0.46516 0.74696 0.0
H449 H 0.55982 0.36302 0.72928 0.0
H450 H 0.53269 0.38333 0.67881 0.0
H451 H 0.52854 0.42944 0.63856 0.0
H452 H 0.59529 0.53166 0.65507 0.0
H453 H 0.62193 0.51181 0.70652 0.0
C454 C 0.60613 0.44726 0.73205 0.0
C455 C 0.59524 0.41249 0.74241 0.0
C456 C 0.59072 0.45907 0.70252 0.0
C457 C 0.56841 0.38998 0.72268 0.0
C458 C 0.55304 0.40152 0.69347 0.0
C459 C 0.54895 0.4475 0.6533 0.0
C460 C 0.55988 0.48209 0.64263 0.0
C461 C 0.56407 0.43594 0.68301 0.0
C462 C 0.58629 0.50493 0.66242 0.0
C463 C 0.60156 0.49356 0.69196 0.0
H464 H 0.90785 0.57172 0.24222 0.0
H465 H 0.92655 0.67148 0.19379 0.0
H466 H 0.95325 0.64997 0.14386 0.0
H467 H 0.97115 0.60311 0.11311 0.0
H468 H 0.95011 0.50239 0.15929 0.0
H469 H 0.92376 0.52384 0.21014 0.0
C470 C 0.91745 0.58878 0.2207 0.0
C471 C 0.91547 0.62353 0.22252 0.0
C472 C 0.9322 0.57599 0.19127 0.0
C473 C 0.92849 0.64499 0.1941 0.0
C474 C 0.94348 0.63259 0.16511 0.0
C475 C 0.96078 0.58572 0.13423 0.0
C476 C 0.96281 0.55111 0.13221 0.0
C477 C 0.94554 0.59819 0.16339 0.0
C478 C 0.9489 0.5291 0.15991 0.0
C479 C 0.93391 0.54141 0.18913 0.0
H480 H 0.40641 0.18984 0.18969 0.0
H481 H 0.51521 0.25156 0.17066 0.0
H482 H 0.53292 0.2017 0.14613 0.0
H483 H 0.51667 0.14127 0.12779 0.0
H484 H 0.40684 0.08061 0.1442 0.0
H485 H 0.39029 0.12957 0.17182 0.0
C486 C 0.4339 0.19256 0.17983 0.0
C487 C 0.45933 0.22453 0.18177 0.0
C488 C 0.44372 0.16397 0.16532 0.0
C489 C 0.49513 0.22725 0.1697 0.0
C490 C 0.50524 0.19878 0.15552 0.0
C491 C 0.48922 0.13863 0.13774 0.0
C492 C 0.46303 0.1073 0.13398 0.0
C493 C 0.47968 0.16708 0.15299 0.0
C494 C 0.42748 0.10445 0.14669 0.0
C495 C 0.41798 0.13244 0.16245 0.0
H496 H 0.087 0.84975 0.60196 0.0
H497 H 0.03163 0.85865 0.69794 0.0
H498 H 0.00324 0.90159 0.67189 0.0
H499 H 0.9996 0.94097 0.62326 0.0
H500 H 0.05761 0.9317 0.52857 0.0
H501 H 0.0791 0.88443 0.5527 0.0
C502 C 0.0678 0.86017 0.61696 0.0
C503 C 0.06143 0.85095 0.65181 0.0
C504 C 0.05252 0.88537 0.6022 0.0
C505 C 0.03711 0.86544 0.67103 0.0
C506 C 0.02103 0.89011 0.65621 0.0
C507 C 0.0167 0.92841 0.60789 0.0
C508 C 0.02745 0.94043 0.57439 0.0
C509 C 0.02949 0.9011 0.62208 0.0
C510 C 0.04939 0.9236 0.55468 0.0
C511 C 0.06164 0.89633 0.56835 0.0
H512 H 0.80926 0.38501 0.96101 0.0
H513 H 0.79734 0.4787 0.91287 0.0
H514 H 0.85086 0.51113 0.9443 0.0
H515 H 0.9035 0.5123 0.98291 0.0
H516 H 0.91563 0.41762 1.0291 0.0
H517 H 0.85998 0.38637 1.00078 0.0
C518 C 0.81841 0.41251 0.95719 0.0
C519 C 0.79936 0.42923 0.93426 0.0
C520 C 0.8495 0.43091 0.97494 0.0
C521 C 0.81123 0.46507 0.93044 0.0
C522 C 0.84204 0.48365 0.94827 0.0
C523 C 0.8938 0.48489 0.98705 0.0
C524 C 0.91406 0.46743 1.00805 0.0
C525 C 0.86172 0.46677 0.97027 0.0
C526 C 0.90094 0.43184 1.01296 0.0
C527 C 0.86901 0.41384 0.99674 0.0
H528 H 0.71283 0.56266 0.42259 0.0
H529 H 0.72494 0.66638 0.45913 0.0
H530 H 0.67291 0.64739 0.49803 0.0
H531 H 0.62188 0.60178 0.51969 0.0
H532 H 0.61108 0.49754 0.48492 0.0
H533 H 0.66449 0.51615 0.4477 0.0
C534 C 0.70414 0.58101 0.43924 0.0
C535 C 0.72272 0.61591 0.43788 0.0
C536 C 0.67428 0.56984 0.46186 0.0
C537 C 0.71135 0.63934 0.45985 0.0
C538 C 0.68143 0.62853 0.48199 0.0
C539 C 0.63133 0.58309 0.50415 0.0
C540 C 0.61219 0.54834 0.50502 0.0
C541 C 0.66239 0.59391 0.48294 0.0
C542 C 0.62517 0.52445 0.4849 0.0
C543 C 0.65571 0.53509 0.46343 0.0
H544 H 0.25675 0.37353 0.22786 0.0
H545 H 0.3178 0.41917 0.13834 0.0
H546 H 0.26182 0.42892 0.11255 0.0
H547 H 0.19549 0.42413 0.11556 0.0
H548 H 0.13544 0.3799 0.20626 0.0
H549 H 0.19122 0.36979 0.23141 0.0
C550 C 0.25799 0.38614 0.20295 0.0
C551 C 0.29149 0.39595 0.18522 0.0
C552 C 0.22584 0.39163 0.18838 0.0
C553 C 0.29236 0.41133 0.15249 0.0
C554 C 0.26038 0.41696 0.13779 0.0
C555 C 0.19465 0.41255 0.14096 0.0
C556 C 0.16123 0.40272 0.15893 0.0
C557 C 0.22696 0.40717 0.15551 0.0
C558 C 0.16059 0.38722 0.19158 0.0
C559 C 0.19255 0.38167 0.20613 0.0
H560 H 0.54646 0.21092 0.92565 0.0
H561 H 0.65221 0.23151 0.97456 0.0
H562 H 0.63207 0.18094 1.0113 0.0
H563 H 0.5841 0.13027 1.02974 0.0
H564 H 0.47793 0.11128 0.98156 0.0
H565 H 0.4986 0.16117 0.94444 0.0
C566 C 0.56516 0.20428 0.94424 0.0
C567 C 0.60082 0.22518 0.94725 0.0
C568 C 0.55333 0.17517 0.9655 0.0
C569 C 0.62447 0.21626 0.97188 0.0
C570 C 0.61304 0.18713 0.99281 0.0
C571 C 0.56559 0.13697 1.011 0.0
C572 C 0.52948 0.11683 1.00854 0.0
C573 C 0.5775 0.1663 0.98987 0.0
C574 C 0.5058 0.12624 0.98427 0.0
C575 C 0.5176 0.15484 0.9629 0.0
H576 H 0.94275 0.84295 0.37614 0.0
H577 H 0.85208 0.80636 0.44532 0.0
H578 H 0.87102 0.85813 0.48056 0.0
H579 H 0.91253 0.91397 0.49143 0.0
H580 H 0.00237 0.95262 0.42168 0.0
H581 H 0.98444 0.90026 0.38685 0.0
C582 C 0.92741 0.84635 0.39907 0.0
C583 C 0.8961 0.82085 0.4082 0.0
C584 C 0.93809 0.87669 0.41893 0.0
C585 C 0.87617 0.82567 0.43775 0.0
C586 C 0.88697 0.85527 0.45788 0.0
C587 C 0.92826 0.9111 0.46858 0.0
C588 C 0.95881 0.93738 0.45928 0.0
C589 C 0.91771 0.88104 0.44862 0.0
C590 C 0.97863 0.93301 0.42944 0.0
C591 C 0.96847 0.90295 0.40956 0.0
H592 H 0.30211 0.71658 0.69923 0.0
H593 H 0.24616 0.67685 0.60532 0.0
H594 H 0.29737 0.65214 0.58888 0.0
H595 H 0.35893 0.64376 0.60053 0.0
H596 H 0.41574 0.68693 0.69316 0.0
H597 H 0.36292 0.70781 0.7111 0.0
C598 C 0.3008 0.7019 0.67549 0.0
C599 C 0.27027 0.69815 0.65369 0.0
C600 C 0.33055 0.68856 0.66593 0.0
C601 C 0.26936 0.67992 0.62254 0.0
C602 C 0.29863 0.6659 0.61314 0.0
C603 C 0.3599 0.65798 0.6245 0.0
C604 C 0.39138 0.66371 0.64543 0.0
C605 C 0.3296 0.67051 0.63443 0.0
C606 C 0.39179 0.68168 0.67674 0.0
C607 C 0.36165 0.69383 0.68696 0.0
H608 H 0.77016 0.81726 0.7542 0.0
H609 H 0.66862 0.83999 0.72306 0.0
H610 H 0.6966 0.86424 0.66872 0.0
H611 H 0.75257 0.88796 0.63558 0.0
H612 H 0.85503 0.8692 0.66993 0.0
H613 H 0.82377 0.83323 0.71669 0.0
C614 C 0.75375 0.82635 0.73498 0.0
C615 C 0.71752 0.82721 0.74273 0.0
C616 C 0.77037 0.84133 0.70449 0.0
C617 C 0.69671 0.83945 0.71776 0.0
C618 C 0.71274 0.85343 0.6868 0.0
C619 C 0.76795 0.87558 0.65303 0.0
C620 C 0.80616 0.88183 0.64964 0.0
C621 C 0.75003 0.85605 0.68075 0.0
C622 C 0.8256 0.86487 0.67185 0.0
C623 C 0.80779 0.84454 0.69887 0.0
H624 H 0.79912 0.19301 0.26733 0.0
H625 H 0.80195 0.2749 0.19432 0.0
H626 H 0.7566 0.23621 0.15839 0.0
H627 H 0.71487 0.1792 0.14874 0.0
H628 H 0.71333 0.0981 0.22243 0.0
H629 H 0.76024 0.13626 0.25662 0.0
C630 C 0.79053 0.20232 0.24317 0.0
C631 C 0.80411 0.23679 0.23347 0.0
C632 C 0.76464 0.18004 0.22275 0.0
C633 C 0.79176 0.24854 0.20253 0.0
C634 C 0.7659 0.22641 0.18194 0.0
C635 C 0.72488 0.16998 0.17227 0.0
C636 C 0.71075 0.13584 0.18295 0.0
C637 C 0.75185 0.19218 0.19201 0.0
C638 C 0.72414 0.1241 0.21336 0.0
C639 C 0.75079 0.14595 0.23306 0.0
H640 H 0.42158 0.57274 0.35202 0.0
H641 H 0.40582 0.66131 0.40784 0.0
H642 H 0.42618 0.63902 0.46118 0.0
H643 H 0.44985 0.59472 0.49205 0.0
H644 H 0.46524 0.50634 0.43545 0.0
H645 H 0.4431 0.52793 0.38291 0.0
C646 C 0.42202 0.58702 0.3759 0.0
C647 C 0.41206 0.61879 0.3756 0.0
C648 C 0.43376 0.57402 0.40659 0.0
C649 C 0.41367 0.63705 0.40693 0.0
C650 C 0.42517 0.6242 0.4376 0.0
C651 C 0.4481 0.58002 0.46831 0.0
C652 C 0.45934 0.54883 0.468 0.0
C653 C 0.43552 0.59277 0.43776 0.0
C654 C 0.45696 0.53039 0.43674 0.0
C655 C 0.44428 0.54275 0.40651 0.0
H656 H 0.11568 0.45509 0.84984 0.0
H657 H 0.09377 0.35587 0.89908 0.0
H658 H 0.07345 0.38015 0.95137 0.0
H659 H 0.06106 0.42956 0.98331 0.0
H660 H 0.07916 0.528 0.93286 0.0
H661 H 0.10201 0.50433 0.8814 0.0
C662 C 0.1065 0.43883 0.87205 0.0
C663 C 0.10619 0.40361 0.87036 0.0
C664 C 0.09429 0.45293 0.90205 0.0
C665 C 0.09391 0.38291 0.89939 0.0
C666 C 0.08247 0.39685 0.92946 0.0
C667 C 0.07036 0.4459 0.96118 0.0
C668 C 0.06868 0.48064 0.96217 0.0
C669 C 0.08249 0.43182 0.93114 0.0
C670 C 0.08019 0.50123 0.93292 0.0
C671 C 0.09324 0.48768 0.9034 0.0
H672 H 0.56813 0.89252 0.92426 0.0
H673 H 0.56799 0.83192 1.01651 0.0
H674 H 0.53521 0.86826 0.04768 0.0
H675 H 0.51428 0.92151 0.05071 0.0
H676 H 0.51323 0.9819 0.95878 0.0
H677 H 0.53811 0.94077 0.92507 0.0
C678 C 0.55995 0.88653 0.95086 0.0
C679 C 0.57112 0.85986 0.9682 0.0
C680 C 0.54132 0.90772 0.96872 0.0
C681 C 0.56043 0.85271 1.00277 0.0
C682 C 0.54169 0.87347 1.02061 0.0
C683 C 0.51906 0.92537 1.02317 0.0
C684 C 0.51273 0.95487 1.00723 0.0
C685 C 0.53334 0.9018 1.00421 0.0
C686 C 0.51815 0.95937 0.9715 0.0
C687 C 0.53252 0.93598 0.95235 0.0
H688 H 0.89517 0.1771 0.41925 0.0
H689 H 1.00053 0.24597 0.43706 0.0
H690 H 0.0231 0.19884 0.46158 0.0
H691 H 0.01251 0.13837 0.47905 0.0
H692 H 0.90617 0.07034 0.4636 0.0
H693 H 0.88428 0.11708 0.43749 0.0
C694 C 0.92293 0.18199 0.42892 0.0
C695 C 0.94604 0.21514 0.42639 0.0
C696 C 0.93557 0.15492 0.4434 0.0
C697 C 0.98222 0.22069 0.43833 0.0
C698 C 0.99511 0.19378 0.45252 0.0
C699 C 0.9846 0.13369 0.46977 0.0
C700 C 0.96105 0.10086 0.47318 0.0
C701 C 0.97201 0.1608 0.45521 0.0
C702 C 0.92487 0.09536 0.46135 0.0
C703 C 0.91231 0.12207 0.44641 0.0
H704 H 0.23949 0.6421 0.12079 0.0
H705 H 0.2163 0.57263 0.20756 0.0
H706 H 0.15882 0.54298 0.18095 0.0
H707 H 0.11514 0.53635 0.13325 0.0
H708 H 0.13763 0.60511 1.04589 0.0
H709 H 0.19553 0.63498 0.0723 0.0
C710 C 0.222 0.62035 0.13382 0.0
C711 C 0.23238 0.60987 0.16638 0.0
C712 C 0.18884 0.60313 0.11819 0.0
C713 C 0.20895 0.5818 0.1829 0.0
C714 C 0.1761 0.56459 0.16753 0.0
C715 C 0.13261 0.55784 0.11981 0.0
C716 C 0.12179 0.56839 0.0875 0.0
C717 C 0.16575 0.57502 0.13523 0.0
C718 C 0.14509 0.59633 0.0707 0.0
C719 C 0.17824 0.61349 0.08586 0.0
H720 H 0.30417 0.45244 0.68292 0.0
H721 H 0.29165 0.35479 0.63168 0.0
H722 H 0.34315 0.37913 0.59371 0.0
H723 H 0.39436 0.42717 0.57742 0.0
H724 H 0.40818 0.52437 0.63005 0.0
H725 H 0.35362 0.50141 0.66458 0.0
C726 C 0.31242 0.43666 0.66311 0.0
C727 C 0.29422 0.40178 0.66035 0.0
C728 C 0.34251 0.45072 0.64162 0.0
C729 C 0.30549 0.38159 0.6347 0.0
C730 C 0.3349 0.39552 0.61288 0.0
C731 C 0.38519 0.44348 0.59611 0.0
C732 C 0.40556 0.47743 0.60113 0.0
C733 C 0.35404 0.4299 0.61647 0.0
C734 C 0.39328 0.49807 0.62571 0.0
C735 C 0.36201 0.48496 0.64555 0.0
H736 H 0.83037 0.77198 0.97889 0.0
H737 H 0.75971 0.68777 0.92461 0.0
H738 H 0.80156 0.65123 0.93731 0.0
H739 H 0.86092 0.64491 0.9594 0.0
H740 H 0.93224 0.73002 1.0119 0.0
H741 H 0.88775 0.76472 1.00374 0.0
C742 C 0.8241 0.7456 0.96986 0.0
C743 C 0.79214 0.73274 0.95055 0.0
C744 C 0.84863 0.72505 0.97655 0.0
C745 C 0.78399 0.69828 0.93971 0.0
C746 C 0.80807 0.67745 0.9467 0.0
C747 C 0.86645 0.67088 0.9695 0.0
C748 C 0.89999 0.68498 0.98595 0.0
C749 C 0.84084 0.69079 0.9645 0.0
C750 C 0.90691 0.71877 0.99863 0.0
C751 C 0.88142 0.73857 0.99412 0.0
H752 H 0.38287 0.82141 0.16049 0.0
H753 H 0.4728 0.84231 0.23249 0.0
H754 H 0.49389 0.9002 0.20884 0.0
H755 H 0.48813 0.94452 0.1659 0.0
H756 H 0.39759 0.92247 0.09438 0.0
H757 H 0.37538 0.86605 0.12001 0.0
C758 C 0.40673 0.83875 0.17152 0.0
C759 C 0.42614 0.82723 0.19829 0.0
C760 C 0.41878 0.87204 0.15776 0.0
C761 C 0.45746 0.85013 0.21162 0.0
C762 C 0.46951 0.88339 0.19818 0.0
C763 C 0.46335 0.92752 0.15617 0.0
C764 C 0.44477 0.93797 0.12806 0.0
C765 C 0.45062 0.89458 0.17095 0.0
C766 C 0.41274 0.91533 0.11579 0.0
C767 C 0.39989 0.88288 0.13045 0.0
H768 H 0.04879 0.19197 0.68701 0.0
H769 H 0.14705 0.22829 0.6272 0.0
H770 H 0.12897 0.1793 0.58808 0.0
H771 H 0.08504 0.12577 0.57053 0.0
H772 H 0.98557 0.09096 0.62905 0.0
H773 H 0.00441 0.13917 0.66888 0.0
C774 C 0.06628 0.1891 0.66546 0.0
C775 C 0.09921 0.21393 0.6601 0.0
C776 C 0.05555 0.1609 0.64279 0.0
C777 C 0.12133 0.2099 0.63177 0.0
C778 C 0.11112 0.18171 0.60946 0.0
C779 C 0.06764 0.12861 0.59215 0.0
C780 C 0.03401 0.10456 0.59682 0.0
C781 C 0.07829 0.15698 0.61469 0.0
C782 C 0.01156 0.10902 0.62472 0.0
C783 C 0.02232 0.13665 0.64759 0.0
H784 H 0.72657 0.31091 0.43555 0.0
H785 H 0.77872 0.41701 0.41416 0.0
H786 H 0.72583 0.43466 0.43719 0.0
H787 H 0.66358 0.41993 0.46068 0.0
H788 H 0.60981 0.31385 0.47906 0.0
H789 H 0.66415 0.29613 0.45886 0.0
C790 C 0.72633 0.33789 0.43561 0.0
C791 C 0.75678 0.36253 0.42305 0.0
C792 C 0.69536 0.34785 0.44801 0.0
C793 C 0.75609 0.39745 0.42413 0.0
C794 C 0.72565 0.40759 0.43699 0.0
C795 C 0.66392 0.39296 0.46059 0.0
C796 C 0.63284 0.36822 0.47144 0.0
C797 C 0.69504 0.383 0.4487 0.0
C798 C 0.63336 0.33332 0.4706 0.0
C799 C 0.66445 0.32322 0.45921 0.0
loop_
_geom_bond_atom_site_label_1
_geom_bond_atom_site_label_2
_geom_bond_distance
_geom_bond_site_symmetry_2
_ccdc_geom_bond_type
P0 O11 1.490 . S
P0 C14 1.812 . S
P0 C20 1.803 . S
P0 C26 1.819 . S
H1 C15 0.941 . S
H2 C16 0.939 . S
H3 C18 0.940 . S
H4 C19 0.940 . S
H5 C21 0.939 . S
H6 C22 0.942 . S
H7 C24 0.940 . S
H8 C25 0.939 . S
H9 C27 0.941 . S
H10 C31 0.939 . S
O11 P0 1.490 . S
H12 C28 0.939 . S
H13 C30 0.940 . S
C14 P0 1.812 . S
C14 C15 1.389 . S
C14 C19 1.391 . S
C15 H1 0.941 . S
C15 C14 1.389 . S
C15 C16 1.397 . S
C16 H2 0.939 . S
C16 C15 1.397 . S
C16 C17 1.378 . S
C17 C16 1.378 . S
C17 C18 1.378 . S
C18 H3 0.940 . S
C18 C17 1.378 . S
C18 C19 1.396 . S
C19 H4 0.940 . S
C19 C14 1.391 . S
C19 C18 1.396 . S
C20 P0 1.803 . S
C20 C21 1.378 . S
C20 C25 1.400 . S
C21 H5 0.939 . S
C21 C20 1.378 . S
C21 C22 1.361 . S
C22 H6 0.942 . S
C22 C21 1.361 . S
C22 C23 1.369 . S
C23 C22 1.369 . S
C23 C24 1.404 . S
C24 H7 0.940 . S
C24 C23 1.404 . S
C24 C25 1.389 . S
C25 H8 0.939 . S
C25 C20 1.400 . S
C25 C24 1.389 . S
C26 P0 1.819 . S
C26 C27 1.391 . S
C26 C31 1.391 . S
C27 H9 0.941 . S
C27 C26 1.391 . S
C27 C28 1.396 . S
C28 H12 0.939 . S
C28 C27 1.396 . S
C28 C29 1.397 . S
C29 C28 1.397 . S
C29 C30 1.385 . S
C30 H13 0.940 . S
C30 C29 1.385 . S
C30 C31 1.388 . S
C31 H10 0.939 . S
C31 C26 1.391 . S
C31 C30 1.388 . S
P32 O43 1.490 . S
P32 C46 1.812 . S
P32 C52 1.803 . S
P32 C58 1.819 . S
H33 C47 0.941 . S
H34 C48 0.939 . S
H35 C50 0.940 . S
H36 C51 0.940 . S
H37 C53 0.939 . S
H38 C54 0.942 . S
H39 C56 0.940 . S
H40 C57 0.939 . S
H41 C59 0.941 . S
H42 C63 0.939 . S
O43 P32 1.490 . S
H44 C60 0.939 . S
H45 C62 0.940 . S
C46 P32 1.812 . S
C46 C47 1.389 . S
C46 C51 1.391 . S
C47 H33 0.941 . S
C47 C46 1.389 . S
C47 C48 1.397 . S
C48 H34 0.939 . S
C48 C47 1.397 . S
C48 C49 1.378 . S
C49 C48 1.378 . S
C49 C50 1.378 . S
C50 H35 0.940 . S
C50 C49 1.378 . S
C50 C51 1.396 . S
C51 H36 0.940 . S
C51 C46 1.391 . S
C51 C50 1.396 . S
C52 P32 1.803 . S
C52 C53 1.378 . S
C52 C57 1.400 . S
C53 H37 0.939 . S
C53 C52 1.378 . S
C53 C54 1.361 . S
C54 H38 0.942 . S
C54 C53 1.361 . S
C54 C55 1.369 . S
C55 C54 1.369 . S
C55 C56 1.404 . S
C56 H39 0.940 . S
C56 C55 1.404 . S
C56 C57 1.389 . S
C57 H40 0.939 . S
C57 C52 1.400 . S
C57 C56 1.389 . S
C58 P32 1.819 . S
C58 C59 1.391 . S
C58 C63 1.391 . S
C59 H41 0.941 . S
C59 C58 1.391 . S
C59 C60 1.396 . S
C60 H44 0.939 . S
C60 C59 1.396 . S
C60 C61 1.397 . S
C61 C60 1.397 . S
C61 C62 1.385 . S
C62 H45 0.940 . S
C62 C61 1.385 . S
C62 C63 1.388 . S
C63 H42 0.939 . S
C63 C58 1.391 . S
C63 C62 1.388 . S
P64 O75 1.490 . S
P64 C78 1.812 . S
P64 C84 1.803 . S
P64 C90 1.819 . S
H65 C79 0.941 . S
H66 C80 0.939 . S
H67 C82 0.940 . S
H68 C83 0.940 . S
H69 C85 0.939 . S
H70 C86 0.942 . S
H71 C88 0.940 . S
H72 C89 0.939 . S
H73 C91 0.941 . S
H74 C95 0.939 . S
O75 P64 1.490 . S
H76 C92 0.939 . S
H77 C94 0.940 . S
C78 P64 1.812 . S
C78 C79 1.389 . S
C78 C83 1.391 . S
C79 H65 0.941 . S
C79 C78 1.389 . S
C79 C80 1.397 . S
C80 H66 0.939 . S
C80 C79 1.397 . S
C80 C81 1.378 . S
C81 C80 1.378 . S
C81 C82 1.378 . S
C82 H67 0.940 . S
C82 C81 1.378 . S
C82 C83 1.396 . S
C83 H68 0.940 . S
C83 C78 1.391 . S
C83 C82 1.396 . S
C84 P64 1.803 . S
C84 C85 1.378 . S
C84 C89 1.400 . S
C85 H69 0.939 . S
C85 C84 1.378 . S
C85 C86 1.361 . S
C86 H70 0.942 . S
C86 C85 1.361 . S
C86 C87 1.369 . S
C87 C86 1.369 . S
C87 C88 1.404 . S
C88 H71 0.940 . S
C88 C87 1.404 . S
C88 C89 1.389 . S
C89 H72 0.939 . S
C89 C84 1.400 . S
C89 C88 1.389 . S
C90 P64 1.819 . S
C90 C91 1.391 . S
C90 C95 1.391 . S
C91 H73 0.941 . S
C91 C90 1.391 . S
C91 C92 1.396 . S
C92 H76 0.939 . S
C92 C91 1.396 . S
C92 C93 1.397 . S
C93 C92 1.397 . S
C93 C94 1.385 . S
C94 H77 0.940 . S
C94 C93 1.385 . S
C94 C95 1.388 . S
C95 H74 0.939 . S
C95 C90 1.391 . S
C95 C94 1.388 . S
P96 O107 1.490 . S
P96 C110 1.812 . S
P96 C116 1.803 . S
P96 C122 1.819 . S
H97 C111 0.941 . S
H98 C112 0.939 . S
H99 C114 0.940 . S
H100 C115 0.940 . S
H101 C117 0.939 . S
H102 C118 0.942 . S
H103 C120 0.940 . S
H104 C121 0.939 . S
H105 C123 0.941 . S
H106 C127 0.939 . S
O107 P96 1.490 . S
H108 C124 0.939 . S
H109 C126 0.940 . S
C110 P96 1.812 . S
C110 C111 1.389 . S
C110 C115 1.391 . S
C111 H97 0.941 . S
C111 C110 1.389 . S
C111 C112 1.397 . S
C112 H98 0.939 . S
C112 C111 1.397 . S
C112 C113 1.378 . S
C113 C112 1.378 . S
C113 C114 1.378 . S
C114 H99 0.940 . S
C114 C113 1.378 . S
C114 C115 1.396 . S
C115 H100 0.940 . S
C115 C110 1.391 . S
C115 C114 1.396 . S
C116 P96 1.803 . S
C116 C117 1.378 . S
C116 C121 1.400 . S
C117 H101 0.939 . S
C117 C116 1.378 . S
C117 C118 1.361 . S
C118 H102 0.942 . S
C118 C117 1.361 . S
C118 C119 1.369 . S
C119 C118 1.369 . S
C119 C120 1.404 . S
C120 H103 0.940 . S
C120 C119 1.404 . S
C120 C121 1.389 . S
C121 H104 0.939 . S
C121 C116 1.400 . S
C121 C120 1.389 . S
C122 P96 1.819 . S
C122 C123 1.391 . S
C122 C127 1.391 . S
C123 H105 0.941 . S
C123 C122 1.391 . S
C123 C124 1.396 . S
C124 H108 0.939 . S
C124 C123 1.396 . S
C124 C125 1.397 . S
C125 C124 1.397 . S
C125 C126 1.385 . S
C126 H109 0.940 . S
C126 C125 1.385 . S
C126 C127 1.388 . S
C127 H106 0.939 . S
C127 C122 1.391 . S
C127 C126 1.388 . S
P128 O139 1.490 . S
P128 C142 1.812 . S
P128 C148 1.803 . S
P128 C154 1.819 . S
H129 C143 0.941 . S
H130 C144 0.939 . S
H131 C146 0.940 . S
H132 C147 0.940 . S
H133 C149 0.939 . S
H134 C150 0.942 . S
H135 C152 0.940 . S
H136 C153 0.939 . S
H137 C155 0.941 . S
H138 C159 0.939 . S
O139 P128 1.490 . S
H140 C156 0.939 . S
H141 C158 0.940 . S
C142 P128 1.812 . S
C142 C143 1.389 . S
C142 C147 1.391 . S
C143 H129 0.941 . S
C143 C142 1.389 . S
C143 C144 1.397 . S
C144 H130 0.939 . S
C144 C143 1.397 . S
C144 C145 1.378 . S
C145 C144 1.378 . S
C145 C146 1.378 . S
C146 H131 0.940 . S
C146 C145 1.378 . S
C146 C147 1.396 . S
C147 H132 0.940 . S
C147 C142 1.391 . S
C147 C146 1.396 . S
C148 P128 1.803 . S
C148 C149 1.378 . S
C148 C153 1.400 . S
C149 H133 0.939 . S
C149 C148 1.378 . S
C149 C150 1.361 . S
C150 H134 0.942 . S
C150 C149 1.361 . S
C150 C151 1.369 . S
C151 C150 1.369 . S
C151 C152 1.404 . S
C152 H135 0.940 . S
C152 C151 1.404 . S
C152 C153 1.389 . S
C153 H136 0.939 . S
C153 C148 1.400 . S
C153 C152 1.389 . S
C154 P128 1.819 . S
C154 C155 1.391 . S
C154 C159 1.391 . S
C155 H137 0.941 . S
C155 C154 1.391 . S
C155 C156 1.396 . S
C156 H140 0.939 . S
C156 C155 1.396 . S
C156 C157 1.397 . S
C157 C156 1.397 . S
C157 C158 1.385 . S
C158 H141 0.940 . S
C158 C157 1.385 . S
C158 C159 1.388 . S
C159 H138 0.939 . S
C159 C154 1.391 . S
C159 C158 1.388 . S
P160 O171 1.490 . S
P160 C174 1.812 . S
P160 C180 1.803 . S
P160 C186 1.819 . S
H161 C175 0.941 . S
H162 C176 0.939 . S
H163 C178 0.940 . S
H164 C179 0.940 . S
H165 C181 0.939 . S
H166 C182 0.942 . S
H167 C184 0.940 . S
H168 C185 0.939 . S
H169 C187 0.941 . S
H170 C191 0.939 . S
O171 P160 1.490 . S
H172 C188 0.939 . S
H173 C190 0.940 . S
C174 P160 1.812 . S
C174 C175 1.389 . S
C174 C179 1.391 . S
C175 H161 0.941 . S
C175 C174 1.389 . S
C175 C176 1.397 . S
C176 H162 0.939 . S
C176 C175 1.397 . S
C176 C177 1.378 . S
C177 C176 1.378 . S
C177 C178 1.378 . S
C178 H163 0.940 . S
C178 C177 1.378 . S
C178 C179 1.396 . S
C179 H164 0.940 . S
C179 C174 1.391 . S
C179 C178 1.396 . S
C180 P160 1.803 . S
C180 C181 1.378 . S
C180 C185 1.400 . S
C181 H165 0.939 . S
C181 C180 1.378 . S
C181 C182 1.361 . S
C182 H166 0.942 . S
C182 C181 1.361 . S
C182 C183 1.369 . S
C183 C182 1.369 . S
C183 C184 1.404 . S
C184 H167 0.940 . S
C184 C183 1.404 . S
C184 C185 1.389 . S
C185 H168 0.939 . S
C185 C180 1.400 . S
C185 C184 1.389 . S
C186 P160 1.819 . S
C186 C187 1.391 . S
C186 C191 1.391 . S
C187 H169 0.941 . S
C187 C186 1.391 . S
C187 C188 1.396 . S
C188 H172 0.939 . S
C188 C187 1.396 . S
C188 C189 1.397 . S
C189 C188 1.397 . S
C189 C190 1.385 . S
C190 H173 0.940 . S
C190 C189 1.385 . S
C190 C191 1.388 . S
C191 H170 0.939 . S
C191 C186 1.391 . S
C191 C190 1.388 . S
P192 O203 1.490 . S
P192 C206 1.812 . S
P192 C212 1.803 . S
P192 C218 1.819 . S
H193 C207 0.941 . S
H194 C208 0.939 . S
H195 C210 0.940 . S
H196 C211 0.940 . S
H197 C213 0.939 . S
H198 C214 0.942 . S
H199 C216 0.940 . S
H200 C217 0.939 . S
H201 C219 0.941 . S
H202 C223 0.939 . S
O203 P192 1.490 . S
H204 C220 0.939 . S
H205 C222 0.940 . S
C206 P192 1.812 . S
C206 C207 1.389 . S
C206 C211 1.391 . S
C207 H193 0.941 . S
C207 C206 1.389 . S
C207 C208 1.397 . S
C208 H194 0.939 . S
C208 C207 1.397 . S
C208 C209 1.378 . S
C209 C208 1.378 . S
C209 C210 1.378 . S
C210 H195 0.940 . S
C210 C209 1.378 . S
C210 C211 1.396 . S
C211 H196 0.940 . S
C211 C206 1.391 . S
C211 C210 1.396 . S
C212 P192 1.803 . S
C212 C213 1.378 . S
C212 C217 1.400 . S
C213 H197 0.939 . S
C213 C212 1.378 . S
C213 C214 1.361 . S
C214 H198 0.942 . S
C214 C213 1.361 . S
C214 C215 1.369 . S
C215 C214 1.369 . S
C215 C216 1.404 . S
C216 H199 0.940 . S
C216 C215 1.404 . S
C216 C217 1.389 . S
C217 H200 0.939 . S
C217 C212 1.400 . S
C217 C216 1.389 . S
C218 P192 1.819 . S
C218 C219 1.391 . S
C218 C223 1.391 . S
C219 H201 0.941 . S
C219 C218 1.391 . S
C219 C220 1.396 . S
C220 H204 0.939 . S
C220 C219 1.396 . S
C220 C221 1.397 . S
C221 C220 1.397 . S
C221 C222 1.385 . S
C222 H205 0.940 . S
C222 C221 1.385 . S
C222 C223 1.388 . S
C223 H202 0.939 . S
C223 C218 1.391 . S
C223 C222 1.388 . S
P224 O235 1.490 . S
P224 C238 1.812 . S
P224 C244 1.803 . S
P224 C250 1.819 . S
H225 C239 0.941 . S
H226 C240 0.939 . S
H227 C242 0.940 . S
H228 C243 0.940 . S
H229 C245 0.939 . S
H230 C246 0.942 . S
H231 C248 0.940 . S
H232 C249 0.939 . S
H233 C251 0.941 . S
H234 C255 0.939 . S
O235 P224 1.490 . S
H236 C252 0.939 . S
H237 C254 0.940 . S
C238 P224 1.812 . S
C238 C239 1.389 . S
C238 C243 1.391 . S
C239 H225 0.941 . S
C239 C238 1.389 . S
C239 C240 1.397 . S
C240 H226 0.939 . S
C240 C239 1.397 . S
C240 C241 1.378 . S
C241 C240 1.378 . S
C241 C242 1.378 . S
C242 H227 0.940 . S
C242 C241 1.378 . S
C242 C243 1.396 . S
C243 H228 0.940 . S
C243 C238 1.391 . S
C243 C242 1.396 . S
C244 P224 1.803 . S
C244 C245 1.378 . S
C244 C249 1.400 . S
C245 H229 0.939 . S
C245 C244 1.378 . S
C245 C246 1.361 . S
C246 H230 0.942 . S
C246 C245 1.361 . S
C246 C247 1.369 . S
C247 C246 1.369 . S
C247 C248 1.404 . S
C248 H231 0.940 . S
C248 C247 1.404 . S
C248 C249 1.389 . S
C249 H232 0.939 . S
C249 C244 1.400 . S
C249 C248 1.389 . S
C250 P224 1.819 . S
C250 C251 1.391 . S
C250 C255 1.391 . S
C251 H233 0.941 . S
C251 C250 1.391 . S
C251 C252 1.396 . S
C252 H236 0.939 . S
C252 C251 1.396 . S
C252 C253 1.397 . S
C253 C252 1.397 . S
C253 C254 1.385 . S
C254 H237 0.940 . S
C254 C253 1.385 . S
C254 C255 1.388 . S
C255 H234 0.939 . S
C255 C250 1.391 . S
C255 C254 1.388 . S
Dy256 O259 2.307 1_545 S
Dy256 O261 2.395 . S
Dy256 O262 2.379 . S
Dy256 O264 2.339 1_545 S
Dy256 O266 2.298 . S
Dy256 O270 2.275 . S
Dy256 C278 2.738 . S
Dy257 O260 2.298 1_655 S
Dy257 O263 2.275 . S
Dy257 O265 2.307 1_565 S
Dy257 O267 2.395 . S
Dy257 O268 2.379 . S
Dy257 O271 2.339 1_565 S
Dy257 C287 2.738 . S
C258 O270 1.254 . S
C258 O271 1.257 1_455 S
O259 Dy256 2.307 1_565 S
O259 C269 1.266 . S
O260 Dy257 2.298 1_455 S
O260 C269 1.236 . S
O261 Dy256 2.395 . S
O261 C278 1.255 . S
O262 Dy256 2.379 . S
O262 C278 1.249 . S
O263 Dy257 2.275 . S
O263 C279 1.254 . S
O264 Dy256 2.339 1_565 S
O264 C279 1.257 1_455 S
O265 Dy257 2.307 1_545 S
O265 C280 1.266 . S
O266 Dy256 2.298 . S
O266 C280 1.236 1_455 S
O267 Dy257 2.395 . S
O267 C287 1.255 . S
O268 Dy257 2.379 . S
O268 C287 1.249 . S
C269 O259 1.266 . S
C269 O260 1.236 . S
O270 Dy256 2.275 . S
O270 C258 1.254 . S
O271 Dy257 2.339 1_545 S
O271 C258 1.257 1_655 S
C272 C275 1.344 . S
C272 C276 1.328 . S
C272 C278 1.516 . S
C273 C274 1.304 . S
C273 C277 1.323 . S
C274 C273 1.304 . S
C274 C275 1.371 . S
C274 H288 0.930 . S
C275 C272 1.344 . S
C275 C274 1.371 . S
C275 H289 0.931 . S
C276 C272 1.328 . S
C276 C277 1.433 . S
C276 H290 0.931 . S
C277 C273 1.323 . S
C277 C276 1.433 . S
C277 H291 0.933 . S
C278 Dy256 2.738 . S
C278 O261 1.255 . S
C278 O262 1.249 . S
C278 C272 1.516 . S
C279 O263 1.254 . S
C279 O264 1.257 1_655 S
C280 O265 1.266 . S
C280 O266 1.236 1_655 S
C281 C284 1.344 . S
C281 C285 1.328 . S
C281 C287 1.516 . S
C282 C283 1.304 . S
C282 C286 1.323 . S
C283 C282 1.304 . S
C283 C284 1.371 . S
C283 H292 0.930 . S
C284 C281 1.344 . S
C284 C283 1.371 . S
C284 H293 0.931 . S
C285 C281 1.328 . S
C285 C286 1.433 . S
C285 H294 0.931 . S
C286 C282 1.323 . S
C286 C285 1.433 . S
C286 H295 0.933 . S
C287 Dy257 2.738 . S
C287 O267 1.255 . S
C287 O268 1.249 . S
C287 C281 1.516 . S
H288 C274 0.930 . S
H289 C275 0.931 . S
H290 C276 0.931 . S
H291 C277 0.933 . S
H292 C283 0.930 . S
H293 C284 0.931 . S
H294 C285 0.931 . S
H295 C286 0.933 . S
Dy296 O299 2.307 1_556 S
Dy296 O301 2.395 1_545 S
Dy296 O302 2.379 1_545 S
Dy296 O304 2.339 . S
Dy296 O306 2.298 1_545 S
Dy296 O310 2.275 1_546 S
Dy296 C318 2.738 1_545 S
Dy297 O300 2.298 . S
Dy297 O303 2.275 1_554 S
Dy297 O305 2.307 1_544 S
Dy297 O307 2.395 . S
Dy297 O308 2.379 . S
Dy297 O311 2.339 1_545 S
Dy297 C327 2.738 . S
C298 O310 1.254 . S
C298 O311 1.257 . S
O299 Dy296 2.307 1_554 S
O299 C309 1.266 . S
O300 Dy297 2.298 . S
O300 C309 1.236 . S
O301 Dy296 2.395 1_565 S
O301 C318 1.255 . S
O302 Dy296 2.379 1_565 S
O302 C318 1.249 . S
O303 Dy297 2.275 1_556 S
O303 C319 1.254 . S
O304 Dy296 2.339 . S
O304 C319 1.257 . S
O305 Dy297 2.307 1_566 S
O305 C320 1.266 . S
O306 Dy296 2.298 1_565 S
O306 C320 1.236 . S
O307 Dy297 2.395 . S
O307 C327 1.255 . S
O308 Dy297 2.379 . S
O308 C327 1.249 . S
C309 O299 1.266 . S
C309 O300 1.236 . S
O310 Dy296 2.275 1_564 S
O310 C298 1.254 . S
O311 Dy297 2.339 1_565 S
O311 C298 1.257 . S
C312 C315 1.344 . S
C312 C316 1.328 . S
C312 C318 1.516 . S
C313 C314 1.304 . S
C313 C317 1.323 . S
C314 C313 1.304 . S
C314 C315 1.371 . S
C314 H328 0.930 . S
C315 C312 1.344 . S
C315 C314 1.371 . S
C315 H329 0.931 . S
C316 C312 1.328 . S
C316 C317 1.433 . S
C316 H330 0.931 . S
C317 C313 1.323 . S
C317 C316 1.433 . S
C317 H331 0.933 . S
C318 Dy296 2.738 1_565 S
C318 O301 1.255 . S
C318 O302 1.249 . S
C318 C312 1.516 . S
C319 O303 1.254 . S
C319 O304 1.257 . S
C320 O305 1.266 . S
C320 O306 1.236 . S
C321 C324 1.344 . S
C321 C325 1.328 . S
C321 C327 1.516 . S
C322 C323 1.304 . S
C322 C326 1.323 . S
C323 C322 1.304 . S
C323 C324 1.371 . S
C323 H332 0.930 . S
C324 C321 1.344 . S
C324 C323 1.371 . S
C324 H333 0.931 . S
C325 C321 1.328 . S
C325 C326 1.433 . S
C325 H334 0.931 . S
C326 C322 1.323 . S
C326 C325 1.433 . S
C326 H335 0.933 . S
C327 Dy297 2.738 . S
C327 O307 1.255 . S
C327 O308 1.249 . S
C327 C321 1.516 . S
H328 C314 0.930 . S
H329 C315 0.931 . S
H330 C316 0.931 . S
H331 C317 0.933 . S
H332 C323 0.930 . S
H333 C324 0.931 . S
H334 C325 0.931 . S
H335 C326 0.933 . S
Dy336 O339 2.307 . S
Dy336 O341 2.395 . S
Dy336 O342 2.379 . S
Dy336 O344 2.339 . S
Dy336 O346 2.298 . S
Dy336 O350 2.275 . S
Dy336 C358 2.738 . S
Dy337 O340 2.298 . S
Dy337 O343 2.275 . S
Dy337 O345 2.307 . S
Dy337 O347 2.395 . S
Dy337 O348 2.379 . S
Dy337 O351 2.339 . S
Dy337 C367 2.738 . S
C338 O350 1.254 . S
C338 O351 1.257 . S
O339 Dy336 2.307 . S
O339 C349 1.266 . S
O340 Dy337 2.298 . S
O340 C349 1.236 . S
O341 Dy336 2.395 . S
O341 C358 1.255 . S
O342 Dy336 2.379 . S
O342 C358 1.249 . S
O343 Dy337 2.275 . S
O343 C359 1.254 . S
O344 Dy336 2.339 . S
O344 C359 1.257 . S
O345 Dy337 2.307 . S
O345 C360 1.266 . S
O346 Dy336 2.298 . S
O346 C360 1.236 . S
O347 Dy337 2.395 . S
O347 C367 1.255 . S
O348 Dy337 2.379 . S
O348 C367 1.249 . S
C349 O339 1.266 . S
C349 O340 1.236 . S
O350 Dy336 2.275 . S
O350 C338 1.254 . S
O351 Dy337 2.339 . S
O351 C338 1.257 . S
C352 C355 1.344 . S
C352 C356 1.328 . S
C352 C358 1.516 . S
C353 C354 1.304 . S
C353 C357 1.323 . S
C354 C353 1.304 . S
C354 C355 1.371 . S
C354 H368 0.930 . S
C355 C352 1.344 . S
C355 C354 1.371 . S
C355 H369 0.931 . S
C356 C352 1.328 . S
C356 C357 1.433 . S
C356 H370 0.931 . S
C357 C353 1.323 . S
C357 C356 1.433 . S
C357 H371 0.933 . S
C358 Dy336 2.738 . S
C358 O341 1.255 . S
C358 O342 1.249 . S
C358 C352 1.516 . S
C359 O343 1.254 . S
C359 O344 1.257 . S
C360 O345 1.266 . S
C360 O346 1.236 . S
C361 C364 1.344 . S
C361 C365 1.328 . S
C361 C367 1.516 . S
C362 C363 1.304 . S
C362 C366 1.323 . S
C363 C362 1.304 . S
C363 C364 1.371 . S
C363 H372 0.930 . S
C364 C361 1.344 . S
C364 C363 1.371 . S
C364 H373 0.931 . S
C365 C361 1.328 . S
C365 C366 1.433 . S
C365 H374 0.931 . S
C366 C362 1.323 . S
C366 C365 1.433 . S
C366 H375 0.933 . S
C367 Dy337 2.738 . S
C367 O347 1.255 . S
C367 O348 1.249 . S
C367 C361 1.516 . S
H368 C354 0.930 . S
H369 C355 0.931 . S
H370 C356 0.931 . S
H371 C357 0.933 . S
H372 C363 0.930 . S
H373 C364 0.931 . S
H374 C365 0.931 . S
H375 C366 0.933 . S
Dy376 O379 2.307 1_556 S
Dy376 O381 2.395 1_455 S
Dy376 O382 2.379 1_455 S
Dy376 O384 2.339 . S
Dy376 O386 2.298 1_455 S
Dy376 O390 2.275 1_456 S
Dy376 C398 2.738 1_455 S
Dy377 O380 2.298 . S
Dy377 O383 2.275 1_554 S
Dy377 O385 2.307 1_455 S
Dy377 O387 2.395 . S
Dy377 O388 2.379 . S
Dy377 O391 2.339 1_455 S
Dy377 C407 2.738 . S
C378 O390 1.254 . S
C378 O391 1.257 . S
O379 Dy376 2.307 1_554 S
O379 C389 1.266 . S
O380 Dy377 2.298 . S
O380 C389 1.236 . S
O381 Dy376 2.395 1_655 S
O381 C398 1.255 . S
O382 Dy376 2.379 1_655 S
O382 C398 1.249 . S
O383 Dy377 2.275 1_556 S
O383 C399 1.254 . S
O384 Dy376 2.339 . S
O384 C399 1.257 . S
O385 Dy377 2.307 1_655 S
O385 C400 1.266 1_554 S
O386 Dy376 2.298 1_655 S
O386 C400 1.236 . S
O387 Dy377 2.395 . S
O387 C407 1.255 . S
O388 Dy377 2.379 . S
O388 C407 1.249 . S
C389 O379 1.266 . S
C389 O380 1.236 . S
O390 Dy376 2.275 1_654 S
O390 C378 1.254 . S
O391 Dy377 2.339 1_655 S
O391 C378 1.257 . S
C392 C395 1.344 . S
C392 C396 1.328 . S
C392 C398 1.516 . S
C393 C394 1.304 . S
C393 C397 1.323 . S
C394 C393 1.304 . S
C394 C395 1.371 . S
C394 H408 0.930 . S
C395 C392 1.344 . S
C395 C394 1.371 . S
C395 H409 0.931 . S
C396 C392 1.328 . S
C396 C397 1.433 . S
C396 H410 0.931 . S
C397 C393 1.323 . S
C397 C396 1.433 . S
C397 H411 0.933 . S
C398 Dy376 2.738 1_655 S
C398 O381 1.255 . S
C398 O382 1.249 . S
C398 C392 1.516 . S
C399 O383 1.254 . S
C399 O384 1.257 . S
C400 O385 1.266 1_556 S
C400 O386 1.236 . S
C401 C404 1.344 . S
C401 C405 1.328 . S
C401 C407 1.516 . S
C402 C403 1.304 . S
C402 C406 1.323 . S
C403 C402 1.304 . S
C403 C404 1.371 . S
C403 H412 0.930 . S
C404 C401 1.344 . S
C404 C403 1.371 . S
C404 H413 0.931 . S
C405 C401 1.328 . S
C405 C406 1.433 . S
C405 H414 0.931 . S
C406 C402 1.323 . S
C406 C405 1.433 . S
C406 H415 0.933 . S
C407 Dy377 2.738 . S
C407 O387 1.255 . S
C407 O388 1.249 . S
C407 C401 1.516 . S
H408 C394 0.930 . S
H409 C395 0.931 . S
H410 C396 0.931 . S
H411 C397 0.933 . S
H412 C403 0.930 . S
H413 C404 0.931 . S
H414 C405 0.931 . S
H415 C406 0.933 . S
H416 C422 0.930 . S
H417 C425 0.930 . S
H418 C426 0.930 . S
H419 C427 0.930 . S
H420 C430 0.930 . S
H421 C431 0.930 . S
C422 H416 0.930 . S
C422 C423 1.355 . S
C422 C424 1.415 . S
C423 C422 1.355 . S
C423 C425 1.419 . S
C424 C422 1.415 . S
C424 C429 1.425 . S
C424 C431 1.409 . S
C425 H417 0.930 . S
C425 C423 1.419 . S
C425 C426 1.362 . S
C426 H418 0.930 . S
C426 C425 1.362 . S
C426 C429 1.409 . S
C427 H419 0.930 . S
C427 C428 1.355 . S
C427 C429 1.415 . S
C428 C427 1.355 . S
C428 C430 1.419 . S
C429 C424 1.425 . S
C429 C426 1.409 . S
C429 C427 1.415 . S
C430 H420 0.930 . S
C430 C428 1.419 . S
C430 C431 1.362 . S
C431 H421 0.930 . S
C431 C424 1.409 . S
C431 C430 1.362 . S
H432 C438 0.930 . S
H433 C441 0.930 . S
H434 C442 0.930 . S
H435 C443 0.930 . S
H436 C446 0.930 . S
H437 C447 0.930 . S
C438 H432 0.930 . S
C438 C439 1.355 . S
C438 C440 1.415 . S
C439 C438 1.355 . S
C439 C441 1.419 . S
C440 C438 1.415 . S
C440 C445 1.425 . S
C440 C447 1.409 . S
C441 H433 0.930 . S
C441 C439 1.419 . S
C441 C442 1.362 . S
C442 H434 0.930 . S
C442 C441 1.362 . S
C442 C445 1.409 . S
C443 H435 0.930 . S
C443 C444 1.355 . S
C443 C445 1.415 . S
C444 C443 1.355 . S
C444 C446 1.419 . S
C445 C440 1.425 . S
C445 C442 1.409 . S
C445 C443 1.415 . S
C446 H436 0.930 . S
C446 C444 1.419 . S
C446 C447 1.362 . S
C447 H437 0.930 . S
C447 C440 1.409 . S
C447 C446 1.362 . S
H448 C454 0.930 . S
H449 C457 0.930 . S
H450 C458 0.930 . S
H451 C459 0.930 . S
H452 C462 0.930 . S
H453 C463 0.930 . S
C454 H448 0.930 . S
C454 C455 1.355 . S
C454 C456 1.415 . S
C455 C454 1.355 . S
C455 C457 1.419 . S
C456 C454 1.415 . S
C456 C461 1.425 . S
C456 C463 1.409 . S
C457 H449 0.930 . S
C457 C455 1.419 . S
C457 C458 1.362 . S
C458 H450 0.930 . S
C458 C457 1.362 . S
C458 C461 1.409 . S
C459 H451 0.930 . S
C459 C460 1.355 . S
C459 C461 1.415 . S
C460 C459 1.355 . S
C460 C462 1.419 . S
C461 C456 1.425 . S
C461 C458 1.409 . S
C461 C459 1.415 . S
C462 H452 0.930 . S
C462 C460 1.419 . S
C462 C463 1.362 . S
C463 H453 0.930 . S
C463 C456 1.409 . S
C463 C462 1.362 . S
H464 C470 0.930 . S
H465 C473 0.930 . S
H466 C474 0.930 . S
H467 C475 0.930 . S
H468 C478 0.930 . S
H469 C479 0.930 . S
C470 H464 0.930 . S
C470 C471 1.355 . S
C470 C472 1.415 . S
C471 C470 1.355 . S
C471 C473 1.419 . S
C472 C470 1.415 . S
C472 C477 1.425 . S
C472 C479 1.409 . S
C473 H465 0.930 . S
C473 C471 1.419 . S
C473 C474 1.362 . S
C474 H466 0.930 . S
C474 C473 1.362 . S
C474 C477 1.409 . S
C475 H467 0.930 . S
C475 C476 1.355 . S
C475 C477 1.415 . S
C476 C475 1.355 . S
C476 C478 1.419 . S
C477 C472 1.425 . S
C477 C474 1.409 . S
C477 C475 1.415 . S
C478 H468 0.930 . S
C478 C476 1.419 . S
C478 C479 1.362 . S
C479 H469 0.930 . S
C479 C472 1.409 . S
C479 C478 1.362 . S
H480 C486 0.930 . S
H481 C489 0.930 . S
H482 C490 0.930 . S
H483 C491 0.930 . S
H484 C494 0.930 . S
H485 C495 0.930 . S
C486 H480 0.930 . S
C486 C487 1.355 . S
C486 C488 1.415 . S
C487 C486 1.355 . S
C487 C489 1.419 . S
C488 C486 1.415 . S
C488 C493 1.425 . S
C488 C495 1.409 . S
C489 H481 0.930 . S
C489 C487 1.419 . S
C489 C490 1.362 . S
C490 H482 0.930 . S
C490 C489 1.362 . S
C490 C493 1.409 . S
C491 H483 0.930 . S
C491 C492 1.355 . S
C491 C493 1.415 . S
C492 C491 1.355 . S
C492 C494 1.419 . S
C493 C488 1.425 . S
C493 C490 1.409 . S
C493 C491 1.415 . S
C494 H484 0.930 . S
C494 C492 1.419 . S
C494 C495 1.362 . S
C495 H485 0.930 . S
C495 C488 1.409 . S
C495 C494 1.362 . S
H496 C502 0.930 . S
H497 C505 0.930 . S
H498 C506 0.930 1_655 S
H499 C507 0.929 . S
H500 C510 0.930 . S
H501 C511 0.930 . S
C502 H496 0.930 . S
C502 C503 1.355 . S
C502 C504 1.415 . S
C503 C502 1.355 . S
C503 C505 1.419 . S
C504 C502 1.415 . S
C504 C509 1.425 . S
C504 C511 1.409 . S
C505 H497 0.930 . S
C505 C503 1.419 . S
C505 C506 1.362 . S
C506 H498 0.930 1_455 S
C506 C505 1.362 . S
C506 C509 1.409 . S
C507 H499 0.929 . S
C507 C508 1.355 . S
C507 C509 1.415 . S
C508 C507 1.355 . S
C508 C510 1.419 . S
C509 C504 1.425 . S
C509 C506 1.409 . S
C509 C507 1.415 . S
C510 H500 0.930 . S
C510 C508 1.419 . S
C510 C511 1.362 . S
C511 H501 0.930 . S
C511 C504 1.409 . S
C511 C510 1.362 . S
H512 C518 0.930 . S
H513 C521 0.930 . S
H514 C522 0.930 . S
H515 C523 0.930 . S
H516 C526 0.930 . S
H517 C527 0.930 . S
C518 H512 0.930 . S
C518 C519 1.355 . S
C518 C520 1.415 . S
C519 C518 1.355 . S
C519 C521 1.419 . S
C520 C518 1.415 . S
C520 C525 1.425 . S
C520 C527 1.409 . S
C521 H513 0.930 . S
C521 C519 1.419 . S
C521 C522 1.362 . S
C522 H514 0.930 . S
C522 C521 1.362 . S
C522 C525 1.409 . S
C523 H515 0.930 . S
C523 C524 1.355 . S
C523 C525 1.415 . S
C524 C523 1.355 . S
C524 C526 1.419 . S
C525 C520 1.425 . S
C525 C522 1.409 . S
C525 C523 1.415 . S
C526 H516 0.930 . S
C526 C524 1.419 . S
C526 C527 1.362 . S
C527 H517 0.930 . S
C527 C520 1.409 . S
C527 C526 1.362 . S
H528 C534 0.930 . S
H529 C537 0.930 . S
H530 C538 0.930 . S
H531 C539 0.930 . S
H532 C542 0.930 . S
H533 C543 0.930 . S
C534 H528 0.930 . S
C534 C535 1.355 . S
C534 C536 1.415 . S
C535 C534 1.355 . S
C535 C537 1.419 . S
C536 C534 1.415 . S
C536 C541 1.425 . S
C536 C543 1.409 . S
C537 H529 0.930 . S
C537 C535 1.419 . S
C537 C538 1.362 . S
C538 H530 0.930 . S
C538 C537 1.362 . S
C538 C541 1.409 . S
C539 H531 0.930 . S
C539 C540 1.355 . S
C539 C541 1.415 . S
C540 C539 1.355 . S
C540 C542 1.419 . S
C541 C536 1.425 . S
C541 C538 1.409 . S
C541 C539 1.415 . S
C542 H532 0.930 . S
C542 C540 1.419 . S
C542 C543 1.362 . S
C543 H533 0.930 . S
C543 C536 1.409 . S
C543 C542 1.362 . S
H544 C550 0.930 . S
H545 C553 0.930 . S
H546 C554 0.930 . S
H547 C555 0.930 . S
H548 C558 0.930 . S
H549 C559 0.930 . S
C550 H544 0.930 . S
C550 C551 1.355 . S
C550 C552 1.415 . S
C551 C550 1.355 . S
C551 C553 1.419 . S
C552 C550 1.415 . S
C552 C557 1.425 . S
C552 C559 1.409 . S
C553 H545 0.930 . S
C553 C551 1.419 . S
C553 C554 1.362 . S
C554 H546 0.930 . S
C554 C553 1.362 . S
C554 C557 1.409 . S
C555 H547 0.930 . S
C555 C556 1.355 . S
C555 C557 1.415 . S
C556 C555 1.355 . S
C556 C558 1.419 . S
C557 C552 1.425 . S
C557 C554 1.409 . S
C557 C555 1.415 . S
C558 H548 0.930 . S
C558 C556 1.419 . S
C558 C559 1.362 . S
C559 H549 0.930 . S
C559 C552 1.409 . S
C559 C558 1.362 . S
H560 C566 0.930 . S
H561 C569 0.930 . S
H562 C570 0.930 . S
H563 C571 0.930 . S
H564 C574 0.930 . S
H565 C575 0.930 . S
C566 H560 0.930 . S
C566 C567 1.355 . S
C566 C568 1.415 . S
C567 C566 1.355 . S
C567 C569 1.419 . S
C568 C566 1.415 . S
C568 C573 1.425 . S
C568 C575 1.409 . S
C569 H561 0.930 . S
C569 C567 1.419 . S
C569 C570 1.362 . S
C570 H562 0.930 . S
C570 C569 1.362 . S
C570 C573 1.409 . S
C571 H563 0.930 . S
C571 C572 1.355 . S
C571 C573 1.415 . S
C572 C571 1.355 . S
C572 C574 1.419 . S
C573 C568 1.425 . S
C573 C570 1.409 . S
C573 C571 1.415 . S
C574 H564 0.930 . S
C574 C572 1.419 . S
C574 C575 1.362 . S
C575 H565 0.930 . S
C575 C568 1.409 . S
C575 C574 1.362 . S
H576 C582 0.930 . S
H577 C585 0.930 . S
H578 C586 0.930 . S
H579 C587 0.930 . S
H580 C590 0.930 1_455 S
H581 C591 0.930 1_455 S
C582 H576 0.930 . S
C582 C583 1.355 . S
C582 C584 1.415 . S
C583 C582 1.355 . S
C583 C585 1.419 . S
C584 C582 1.415 . S
C584 C589 1.425 . S
C584 C591 1.409 . S
C585 H577 0.930 . S
C585 C583 1.419 . S
C585 C586 1.362 . S
C586 H578 0.930 . S
C586 C585 1.362 . S
C586 C589 1.409 . S
C587 H579 0.930 . S
C587 C588 1.355 . S
C587 C589 1.415 . S
C588 C587 1.355 . S
C588 C590 1.419 . S
C589 C584 1.425 . S
C589 C586 1.409 . S
C589 C587 1.415 . S
C590 H580 0.930 1_655 S
C590 C588 1.419 . S
C590 C591 1.362 . S
C591 H581 0.930 1_655 S
C591 C584 1.409 . S
C591 C590 1.362 . S
H592 C598 0.930 . S
H593 C601 0.930 . S
H594 C602 0.930 . S
H595 C603 0.930 . S
H596 C606 0.930 . S
H597 C607 0.930 . S
C598 H592 0.930 . S
C598 C599 1.355 . S
C598 C600 1.415 . S
C599 C598 1.355 . S
C599 C601 1.419 . S
C600 C598 1.415 . S
C600 C605 1.425 . S
C600 C607 1.409 . S
C601 H593 0.930 . S
C601 C599 1.419 . S
C601 C602 1.362 . S
C602 H594 0.930 . S
C602 C601 1.362 . S
C602 C605 1.409 . S
C603 H595 0.930 . S
C603 C604 1.355 . S
C603 C605 1.415 . S
C604 C603 1.355 . S
C604 C606 1.419 . S
C605 C600 1.425 . S
C605 C602 1.409 . S
C605 C603 1.415 . S
C606 H596 0.930 . S
C606 C604 1.419 . S
C606 C607 1.362 . S
C607 H597 0.930 . S
C607 C600 1.409 . S
C607 C606 1.362 . S
H608 C614 0.930 . S
H609 C617 0.930 . S
H610 C618 0.930 . S
H611 C619 0.930 . S
H612 C622 0.930 . S
H613 C623 0.930 . S
C614 H608 0.930 . S
C614 C615 1.355 . S
C614 C616 1.415 . S
C615 C614 1.355 . S
C615 C617 1.419 . S
C616 C614 1.415 . S
C616 C621 1.425 . S
C616 C623 1.409 . S
C617 H609 0.930 . S
C617 C615 1.419 . S
C617 C618 1.362 . S
C618 H610 0.930 . S
C618 C617 1.362 . S
C618 C621 1.409 . S
C619 H611 0.930 . S
C619 C620 1.355 . S
C619 C621 1.415 . S
C620 C619 1.355 . S
C620 C622 1.419 . S
C621 C616 1.425 . S
C621 C618 1.409 . S
C621 C619 1.415 . S
C622 H612 0.930 . S
C622 C620 1.419 . S
C622 C623 1.362 . S
C623 H613 0.930 . S
C623 C616 1.409 . S
C623 C622 1.362 . S
H624 C630 0.930 . S
H625 C633 0.930 . S
H626 C634 0.930 . S
H627 C635 0.930 . S
H628 C638 0.930 . S
H629 C639 0.930 . S
C630 H624 0.930 . S
C630 C631 1.355 . S
C630 C632 1.415 . S
C631 C630 1.355 . S
C631 C633 1.419 . S
C632 C630 1.415 . S
C632 C637 1.425 . S
C632 C639 1.409 . S
C633 H625 0.930 . S
C633 C631 1.419 . S
C633 C634 1.362 . S
C634 H626 0.930 . S
C634 C633 1.362 . S
C634 C637 1.409 . S
C635 H627 0.930 . S
C635 C636 1.355 . S
C635 C637 1.415 . S
C636 C635 1.355 . S
C636 C638 1.419 . S
C637 C632 1.425 . S
C637 C634 1.409 . S
C637 C635 1.415 . S
C638 H628 0.930 . S
C638 C636 1.419 . S
C638 C639 1.362 . S
C639 H629 0.930 . S
C639 C632 1.409 . S
C639 C638 1.362 . S
H640 C646 0.930 . S
H641 C649 0.930 . S
H642 C650 0.930 . S
H643 C651 0.930 . S
H644 C654 0.930 . S
H645 C655 0.930 . S
C646 H640 0.930 . S
C646 C647 1.355 . S
C646 C648 1.415 . S
C647 C646 1.355 . S
C647 C649 1.419 . S
C648 C646 1.415 . S
C648 C653 1.425 . S
C648 C655 1.409 . S
C649 H641 0.930 . S
C649 C647 1.419 . S
C649 C650 1.362 . S
C650 H642 0.930 . S
C650 C649 1.362 . S
C650 C653 1.409 . S
C651 H643 0.930 . S
C651 C652 1.355 . S
C651 C653 1.415 . S
C652 C651 1.355 . S
C652 C654 1.419 . S
C653 C648 1.425 . S
C653 C650 1.409 . S
C653 C651 1.415 . S
C654 H644 0.930 . S
C654 C652 1.419 . S
C654 C655 1.362 . S
C655 H645 0.930 . S
C655 C648 1.409 . S
C655 C654 1.362 . S
H656 C662 0.930 . S
H657 C665 0.930 . S
H658 C666 0.930 . S
H659 C667 0.930 . S
H660 C670 0.930 . S
H661 C671 0.930 . S
C662 H656 0.930 . S
C662 C663 1.355 . S
C662 C664 1.415 . S
C663 C662 1.355 . S
C663 C665 1.419 . S
C664 C662 1.415 . S
C664 C669 1.425 . S
C664 C671 1.409 . S
C665 H657 0.930 . S
C665 C663 1.419 . S
C665 C666 1.362 . S
C666 H658 0.930 . S
C666 C665 1.362 . S
C666 C669 1.409 . S
C667 H659 0.930 . S
C667 C668 1.355 . S
C667 C669 1.415 . S
C668 C667 1.355 . S
C668 C670 1.419 . S
C669 C664 1.425 . S
C669 C666 1.409 . S
C669 C667 1.415 . S
C670 H660 0.930 . S
C670 C668 1.419 . S
C670 C671 1.362 . S
C671 H661 0.930 . S
C671 C664 1.409 . S
C671 C670 1.362 . S
H672 C678 0.930 . S
H673 C681 0.930 . S
H674 C682 0.930 . S
H675 C683 0.930 . S
H676 C686 0.930 . S
H677 C687 0.930 . S
C678 H672 0.930 . S
C678 C679 1.355 . S
C678 C680 1.415 . S
C679 C678 1.355 . S
C679 C681 1.419 . S
C680 C678 1.415 . S
C680 C685 1.425 . S
C680 C687 1.409 . S
C681 H673 0.930 . S
C681 C679 1.419 . S
C681 C682 1.362 . S
C682 H674 0.930 . S
C682 C681 1.362 . S
C682 C685 1.409 . S
C683 H675 0.930 . S
C683 C684 1.355 . S
C683 C685 1.415 . S
C684 C683 1.355 . S
C684 C686 1.419 . S
C685 C680 1.425 . S
C685 C682 1.409 . S
C685 C683 1.415 . S
C686 H676 0.930 . S
C686 C684 1.419 . S
C686 C687 1.362 . S
C687 H677 0.930 . S
C687 C680 1.409 . S
C687 C686 1.362 . S
H688 C694 0.930 . S
H689 C697 0.930 1_455 S
H690 C698 0.930 . S
H691 C699 0.930 1_455 S
H692 C702 0.930 . S
H693 C703 0.930 . S
C694 H688 0.930 . S
C694 C695 1.355 . S
C694 C696 1.415 . S
C695 C694 1.355 . S
C695 C697 1.419 . S
C696 C694 1.415 . S
C696 C701 1.425 . S
C696 C703 1.409 . S
C697 H689 0.930 1_655 S
C697 C695 1.419 . S
C697 C698 1.362 1_655 S
C698 H690 0.930 . S
C698 C697 1.362 1_455 S
C698 C701 1.409 1_455 S
C699 H691 0.930 1_655 S
C699 C700 1.355 . S
C699 C701 1.415 . S
C700 C699 1.355 . S
C700 C702 1.419 . S
C701 C696 1.425 . S
C701 C698 1.409 1_655 S
C701 C699 1.415 . S
C702 H692 0.930 . S
C702 C700 1.419 . S
C702 C703 1.362 . S
C703 H693 0.930 . S
C703 C696 1.409 . S
C703 C702 1.362 . S
H704 C710 0.930 . S
H705 C713 0.930 . S
H706 C714 0.930 . S
H707 C715 0.930 . S
H708 C718 0.930 . S
H709 C719 0.930 . S
C710 H704 0.930 . S
C710 C711 1.355 . S
C710 C712 1.415 . S
C711 C710 1.355 . S
C711 C713 1.419 . S
C712 C710 1.415 . S
C712 C717 1.425 . S
C712 C719 1.409 . S
C713 H705 0.930 . S
C713 C711 1.419 . S
C713 C714 1.362 . S
C714 H706 0.930 . S
C714 C713 1.362 . S
C714 C717 1.409 . S
C715 H707 0.930 . S
C715 C716 1.355 . S
C715 C717 1.415 . S
C716 C715 1.355 . S
C716 C718 1.419 . S
C717 C712 1.425 . S
C717 C714 1.409 . S
C717 C715 1.415 . S
C718 H708 0.930 . S
C718 C716 1.419 . S
C718 C719 1.362 . S
C719 H709 0.930 . S
C719 C712 1.409 . S
C719 C718 1.362 . S
H720 C726 0.930 . S
H721 C729 0.930 . S
H722 C730 0.930 . S
H723 C731 0.930 . S
H724 C734 0.930 . S
H725 C735 0.930 . S
C726 H720 0.930 . S
C726 C727 1.355 . S
C726 C728 1.415 . S
C727 C726 1.355 . S
C727 C729 1.419 . S
C728 C726 1.415 . S
C728 C733 1.425 . S
C728 C735 1.409 . S
C729 H721 0.930 . S
C729 C727 1.419 . S
C729 C730 1.362 . S
C730 H722 0.930 . S
C730 C729 1.362 . S
C730 C733 1.409 . S
C731 H723 0.930 . S
C731 C732 1.355 . S
C731 C733 1.415 . S
C732 C731 1.355 . S
C732 C734 1.419 . S
C733 C728 1.425 . S
C733 C730 1.409 . S
C733 C731 1.415 . S
C734 H724 0.930 . S
C734 C732 1.419 . S
C734 C735 1.362 . S
C735 H725 0.930 . S
C735 C728 1.409 . S
C735 C734 1.362 . S
H736 C742 0.930 . S
H737 C745 0.930 . S
H738 C746 0.930 . S
H739 C747 0.930 . S
H740 C750 0.930 . S
H741 C751 0.930 . S
C742 H736 0.930 . S
C742 C743 1.355 . S
C742 C744 1.415 . S
C743 C742 1.355 . S
C743 C745 1.419 . S
C744 C742 1.415 . S
C744 C749 1.425 . S
C744 C751 1.409 . S
C745 H737 0.930 . S
C745 C743 1.419 . S
C745 C746 1.362 . S
C746 H738 0.930 . S
C746 C745 1.362 . S
C746 C749 1.409 . S
C747 H739 0.930 . S
C747 C748 1.355 . S
C747 C749 1.415 . S
C748 C747 1.355 . S
C748 C750 1.419 . S
C749 C744 1.425 . S
C749 C746 1.409 . S
C749 C747 1.415 . S
C750 H740 0.930 . S
C750 C748 1.419 . S
C750 C751 1.362 . S
C751 H741 0.930 . S
C751 C744 1.409 . S
C751 C750 1.362 . S
H752 C758 0.930 . S
H753 C761 0.930 . S
H754 C762 0.930 . S
H755 C763 0.930 . S
H756 C766 0.930 . S
H757 C767 0.930 . S
C758 H752 0.930 . S
C758 C759 1.355 . S
C758 C760 1.415 . S
C759 C758 1.355 . S
C759 C761 1.419 . S
C760 C758 1.415 . S
C760 C765 1.425 . S
C760 C767 1.409 . S
C761 H753 0.930 . S
C761 C759 1.419 . S
C761 C762 1.362 . S
C762 H754 0.930 . S
C762 C761 1.362 . S
C762 C765 1.409 . S
C763 H755 0.930 . S
C763 C764 1.355 . S
C763 C765 1.415 . S
C764 C763 1.355 . S
C764 C766 1.419 . S
C765 C760 1.425 . S
C765 C762 1.409 . S
C765 C763 1.415 . S
C766 H756 0.930 . S
C766 C764 1.419 . S
C766 C767 1.362 . S
C767 H757 0.930 . S
C767 C760 1.409 . S
C767 C766 1.362 . S
H768 C774 0.930 . S
H769 C777 0.930 . S
H770 C778 0.930 . S
H771 C779 0.930 . S
H772 C782 0.930 1_655 S
H773 C783 0.930 . S
C774 H768 0.930 . S
C774 C775 1.355 . S
C774 C776 1.415 . S
C775 C774 1.355 . S
C775 C777 1.419 . S
C776 C774 1.415 . S
C776 C781 1.425 . S
C776 C783 1.409 . S
C777 H769 0.930 . S
C777 C775 1.419 . S
C777 C778 1.362 . S
C778 H770 0.930 . S
C778 C777 1.362 . S
C778 C781 1.409 . S
C779 H771 0.930 . S
C779 C780 1.355 . S
C779 C781 1.415 . S
C780 C779 1.355 . S
C780 C782 1.419 . S
C781 C776 1.425 . S
C781 C778 1.409 . S
C781 C779 1.415 . S
C782 H772 0.930 1_455 S
C782 C780 1.419 . S
C782 C783 1.362 . S
C783 H773 0.930 . S
C783 C776 1.409 . S
C783 C782 1.362 . S
H784 C790 0.930 . S
H785 C793 0.930 . S
H786 C794 0.930 . S
H787 C795 0.930 . S
H788 C798 0.930 . S
H789 C799 0.930 . S
C790 H784 0.930 . S
C790 C791 1.355 . S
C790 C792 1.415 . S
C791 C790 1.355 . S
C791 C793 1.419 . S
C792 C790 1.415 . S
C792 C797 1.425 . S
C792 C799 1.409 . S
C793 H785 0.930 . S
C793 C791 1.419 . S
C793 C794 1.362 . S
C794 H786 0.930 . S
C794 C793 1.362 . S
C794 C797 1.409 . S
C795 H787 0.930 . S
C795 C796 1.355 . S
C795 C797 1.415 . S
C796 C795 1.355 . S
C796 C798 1.419 . S
C797 C792 1.425 . S
C797 C794 1.409 . S
C797 C795 1.415 . S
C798 H788 0.930 . S
C798 C796 1.419 . S
C798 C799 1.362 . S
C799 H789 0.930 . S
C799 C792 1.409 . S
C799 C798 1.362 . S
C423 C29 1.174 . S
C428 C273 1.169 . S
C439 C49 1.106 . S
C444 C313 1.183 . S
C460 C338 2.464 . S
C455 C93 2.466 . S
C471 C119 2.371 . S
C476 C378 2.361 . S
C492 C309 1.716 . S
C487 C17 1.708 . S
C508 C269 1.772 . S
C503 C61 1.582 . S
C524 C400 1.723 . S
C519 C81 1.748 . S
C540 C360 1.777 . S
C535 C125 1.741 . S
C551 C23 1.407 . S
C556 C402 1.378 . S
C572 C319 2.131 . S
C567 C87 2.119 . S
C583 C113 2.182 . S
C588 C279 2.174 . S
C599 C55 1.266 . S
C604 C362 1.429 . S
C620 C282 1.198 . S
C615 C157 1.057 . S
C631 C189 1.239 . S
C636 C322 1.238 . S
C647 C221 2.454 . S
C652 C359 2.405 . S
C663 C253 2.407 . S
C668 C399 2.415 . S
C679 C145 1.570 . S
C684 C320 1.792 . S
C700 C280 1.752 . S
C695 C183 1.745 . S
C716 C389 1.784 . S
C711 C209 1.768 . S
C732 C349 1.740 . S
C727 C247 1.696 . S
C743 C151 1.201 . S
C748 C393 1.355 . S
C764 C298 2.164 . S
C759 C215 2.173 . S
C780 C258 2.167 . S
C775 C241 2.134 . S
C791 C177 1.449 . S
C796 C353 1.429 . S
