# Generated by pormake.
# Topology zzz, (3,6)-cn, num edge types: 1
# Building blocks:
#     Node 0, Type 0, BuildingBlock: BETDIP_clean_linker_0, # of connection points: 3
#     Node 1, Type 0, BuildingBlock: BETDIP_clean_linker_0, # of connection points: 3
#     Node 2, Type 0, BuildingBlock: BETDIP_clean_linker_0, # of connection points: 3
#     Node 3, Type 0, BuildingBlock: BETDIP_clean_linker_0, # of connection points: 3
#     Node 4, Type 0, BuildingBlock: BETDIP_clean_linker_0, # of connection points: 3
#     Node 5, Type 0, BuildingBlock: BETDIP_clean_linker_0, # of connection points: 3
#     Node 6, Type 0, BuildingBlock: BETDIP_clean_linker_0, # of connection points: 3
#     Node 7, Type 0, BuildingBlock: BETDIP_clean_linker_0, # of connection points: 3
#     Node 8, Type 1, BuildingBlock: CIFDUS_clean_sbu_1, # of connection points: 6
#     Node 9, Type 1, BuildingBlock: CIFDUS_clean_sbu_1, # of connection points: 6
#     Node 10, Type 1, BuildingBlock: CIFDUS_clean_sbu_1, # of connection points: 6
#     Node 11, Type 1, BuildingBlock: CIFDUS_clean_sbu_1, # of connection points: 6
#     Edge 12, Type (0, 1), BuildingBlock: XIVTED_clean_linker_0, # of connection points: 2
#     Edge 13, Type (0, 1), BuildingBlock: XIVTED_clean_linker_0, # of connection points: 2
#     Edge 14, Type (0, 1), BuildingBlock: XIVTED_clean_linker_0, # of connection points: 2
#     Edge 15, Type (0, 1), BuildingBlock: XIVTED_clean_linker_0, # of connection points: 2
#     Edge 16, Type (0, 1), BuildingBlock: XIVTED_clean_linker_0, # of connection points: 2
#     Edge 17, Type (0, 1), BuildingBlock: XIVTED_clean_linker_0, # of connection points: 2
#     Edge 18, Type (0, 1), BuildingBlock: XIVTED_clean_linker_0, # of connection points: 2
#     Edge 19, Type (0, 1), BuildingBlock: XIVTED_clean_linker_0, # of connection points: 2
#     Edge 20, Type (0, 1), BuildingBlock: XIVTED_clean_linker_0, # of connection points: 2
#     Edge 21, Type (0, 1), BuildingBlock: XIVTED_clean_linker_0, # of connection points: 2
#     Edge 22, Type (0, 1), BuildingBlock: XIVTED_clean_linker_0, # of connection points: 2
#     Edge 23, Type (0, 1), BuildingBlock: XIVTED_clean_linker_0, # of connection points: 2
#     Edge 24, Type (0, 1), BuildingBlock: XIVTED_clean_linker_0, # of connection points: 2
#     Edge 25, Type (0, 1), BuildingBlock: XIVTED_clean_linker_0, # of connection points: 2
#     Edge 26, Type (0, 1), BuildingBlock: XIVTED_clean_linker_0, # of connection points: 2
#     Edge 27, Type (0, 1), BuildingBlock: XIVTED_clean_linker_0, # of connection points: 2
#     Edge 28, Type (0, 1), BuildingBlock: XIVTED_clean_linker_0, # of connection points: 2
#     Edge 29, Type (0, 1), BuildingBlock: XIVTED_clean_linker_0, # of connection points: 2
#     Edge 30, Type (0, 1), BuildingBlock: XIVTED_clean_linker_0, # of connection points: 2
#     Edge 31, Type (0, 1), BuildingBlock: XIVTED_clean_linker_0, # of connection points: 2
#     Edge 32, Type (0, 1), BuildingBlock: XIVTED_clean_linker_0, # of connection points: 2
#     Edge 33, Type (0, 1), BuildingBlock: XIVTED_clean_linker_0, # of connection points: 2
#     Edge 34, Type (0, 1), BuildingBlock: XIVTED_clean_linker_0, # of connection points: 2
#     Edge 35, Type (0, 1), BuildingBlock: XIVTED_clean_linker_0, # of connection points: 2
# Relax obj value: 0.139
# Max RMSD: 0.185
# Mean RMSD: 0.106
data_MOF--net-zzz--node1-CIFDUS_clean_sbu_1--node2-BETDIP_clean_linker_0--edge1-XIVTED_clean_linker_0
_symmetry_space_group_name_H-M    P1
_symmetry_Int_Tables_number       1
_symmetry_cell_setting            triclinic
loop_
_symmetry_equiv_pos_as_xyz
'x, y, z'
_cell_length_a     50.220573
_cell_length_b     50.314053
_cell_length_c     15.911914
_cell_angle_alpha  90.005735
_cell_angle_beta   90.209901
_cell_angle_gamma 89.983885
loop_
_atom_site_label
_atom_site_type_symbol
_atom_site_fract_x
_atom_site_fract_y
_atom_site_fract_z
_atom_type_partial_charge
H0 H 0.77248 0.5592 0.3043 0.0
H1 H 0.78015 0.57101 0.037 0.0
H2 H 0.84893 0.57591 0.19588 0.0
H3 H 0.73711 0.59847 0.08233 0.0
C4 C 0.7296 0.579 0.10004 0.0
C5 C 0.78449 0.56447 0.25044 0.0
C6 C 0.8122 0.56858 0.26019 0.0
C7 C 0.77244 0.56728 0.17024 0.0
C8 C 0.78867 0.57161 0.09965 0.0
C9 C 0.81616 0.57469 0.10927 0.0
C10 C 0.82742 0.57457 0.18951 0.0
N11 N 0.74449 0.56356 0.15911 0.0
H12 H 0.98849 0.77483 0.28871 0.0
H13 H 0.96453 0.77292 0.02861 0.0
H14 H 0.9598 0.84565 0.16781 0.0
H15 H 0.94177 0.7267 0.12466 0.0
C16 C 0.9631 0.72373 0.11793 0.0
C17 C 0.97948 0.78456 0.23497 0.0
C18 C 0.97407 0.81209 0.23754 0.0
C19 C 0.97419 0.7699 0.16074 0.0
C20 C 0.96548 0.78334 0.08817 0.0
C21 C 0.96064 0.81071 0.09058 0.0
C22 C 0.96298 0.82429 0.16676 0.0
N23 N 0.98084 0.74247 0.15518 0.0
H24 H 0.76128 0.97899 0.2997 0.0
H25 H 0.75439 0.96019 0.03639 0.0
H26 H 0.68638 0.95345 0.19686 0.0
H27 H 0.80234 0.93642 0.10746 0.0
C28 C 0.8063 0.95766 0.10863 0.0
C29 C 0.74966 0.97139 0.24751 0.0
C30 C 0.7225 0.96501 0.25884 0.0
C31 C 0.76172 0.96787 0.16802 0.0
C32 C 0.74593 0.96027 0.09896 0.0
C33 C 0.7187 0.95529 0.10926 0.0
C34 C 0.70769 0.95622 0.18974 0.0
N35 N 0.78897 0.97455 0.15519 0.0
H36 H 0.55759 0.76052 0.29455 0.0
H37 H 0.57835 0.74821 0.03422 0.0
H38 H 0.57616 0.68233 0.2043 0.0
H39 H 0.60011 0.78906 0.06141 0.0
C40 C 0.58235 0.79906 0.08423 0.0
C41 C 0.56416 0.74759 0.24433 0.0
C42 C 0.56754 0.72007 0.25939 0.0
C43 C 0.56957 0.75826 0.16367 0.0
C44 C 0.5763 0.74078 0.09774 0.0
C45 C 0.57884 0.71343 0.11209 0.0
C46 C 0.57537 0.70361 0.19341 0.0
N47 N 0.56686 0.78614 0.14746 0.0
H48 H 0.26486 0.47371 0.11756 0.0
H49 H 0.25252 0.45907 0.38237 0.0
H50 H 0.18761 0.45183 0.21035 0.0
H51 H 0.28154 0.49439 0.3837 0.0
C52 C 0.29709 0.48486 0.34703 0.0
C53 C 0.25226 0.46721 0.16866 0.0
C54 C 0.22504 0.46141 0.15336 0.0
C55 C 0.26269 0.46583 0.25152 0.0
C56 C 0.24544 0.45922 0.318 0.0
C57 C 0.21848 0.45441 0.30307 0.0
C58 C 0.20886 0.45421 0.22083 0.0
N59 N 0.28985 0.47262 0.26915 0.0
H60 H 0.05801 0.26156 0.12972 0.0
H61 H 0.08003 0.24791 0.38922 0.0
H62 H 0.08242 0.18405 0.21288 0.0
H63 H 0.04554 0.27651 0.40405 0.0
C64 C 0.0529 0.29236 0.36392 0.0
C65 C 0.06588 0.24875 0.17852 0.0
C66 C 0.07155 0.22174 0.16052 0.0
C67 C 0.0693 0.2587 0.26132 0.0
C68 C 0.07795 0.24115 0.32494 0.0
C69 C 0.08215 0.21424 0.30797 0.0
C70 C 0.08031 0.20516 0.22535 0.0
N71 N 0.0625 0.2856 0.28208 0.0
H72 H 0.27096 0.04977 0.13253 0.0
H73 H 0.28543 0.07257 0.39104 0.0
H74 H 0.34902 0.07348 0.21413 0.0
H75 H 0.2555 0.04081 0.41181 0.0
C76 C 0.23992 0.04696 0.36842 0.0
C77 C 0.284 0.05751 0.18103 0.0
C78 C 0.31104 0.06306 0.16235 0.0
C79 C 0.27423 0.06112 0.26394 0.0
C80 C 0.29202 0.06992 0.32692 0.0
C81 C 0.31898 0.07383 0.30951 0.0
C82 C 0.32789 0.07158 0.22691 0.0
N83 N 0.24719 0.05474 0.28499 0.0
H84 H 0.47807 0.26769 0.11938 0.0
H85 H 0.46126 0.28054 0.38297 0.0
H86 H 0.45598 0.34508 0.2104 0.0
H87 H 0.4936 0.24999 0.39287 0.0
C88 C 0.48537 0.23486 0.35153 0.0
C89 C 0.47137 0.28039 0.17003 0.0
C90 C 0.46579 0.3076 0.1542 0.0
C91 C 0.46926 0.27003 0.25282 0.0
C92 C 0.46221 0.28743 0.31863 0.0
C93 C 0.45773 0.31436 0.30322 0.0
C94 C 0.45824 0.32387 0.22107 0.0
N95 N 0.47544 0.24276 0.27085 0.0
O96 O 0.02256 0.04924 0.79372 0.0
Mn97 Mn 0.01489 0.01658 0.71306 0.0
O98 O 0.98996 0.07818 0.75893 0.0
Mn99 Mn 0.97201 0.0569 0.68241 0.0
O100 O 0.00742 0.98422 0.6325 0.0
O101 O 0.05473 0.00831 0.70515 0.0
Mn102 Mn 0.05868 0.97548 0.74258 0.0
O103 O 0.00817 0.99079 0.81279 0.0
O104 O 0.03904 0.95427 0.66928 0.0
O105 O 0.02199 0.04173 0.6121 0.0
O106 O 0.98347 0.05909 0.57327 0.0
O107 O 0.09223 0.98617 0.71419 0.0
O108 O 0.04705 0.97404 0.85184 0.0
C109 C 0.94864 0.0264 0.73192 0.0
C110 C 0.01073 0.07199 0.80111 0.0
C111 C 0.0183 0.961 0.62759 0.0
C112 C 0.08022 0.00759 0.68967 0.0
C113 C 0.02207 0.97584 0.86096 0.0
C114 C 0.00813 0.05582 0.56155 0.0
O115 O 0.97448 0.02412 0.72149 0.0
O116 O 0.93789 0.0481 0.704 0.0
O117 O 0.54195 0.00923 0.81866 0.0
Mn118 Mn 0.51719 0.01334 0.71448 0.0
O119 O 0.55735 0.04917 0.8523 0.0
Mn120 Mn 0.55445 0.06017 0.74243 0.0
O121 O 0.49267 0.01716 0.60998 0.0
O122 O 0.51218 0.97313 0.72411 0.0
Mn123 Mn 0.47982 0.9662 0.68709 0.0
O124 O 0.48308 0.01913 0.79021 0.0
O125 O 0.47702 0.97715 0.57706 0.0
O126 O 0.55115 0.0076 0.63854 0.0
O127 O 0.57713 0.04302 0.6682 0.0
O128 O 0.49349 0.93386 0.71682 0.0
O129 O 0.45715 0.98358 0.76122 0.0
C130 C 0.52109 0.07912 0.6884 0.0
C131 C 0.55575 0.02442 0.86633 0.0
C132 C 0.47914 1.00182 0.562 0.0
C133 C 0.51367 0.94784 0.74163 0.0
C134 C 0.46131 0.00564 0.79901 0.0
C135 C 0.57288 0.02111 0.62974 0.0
O136 O 0.52209 0.05366 0.70438 0.0
O137 O 0.54139 0.09275 0.7142 0.0
O138 O 0.52473 0.53906 0.81374 0.0
Mn139 Mn 0.51918 0.51394 0.71087 0.0
O140 O 0.48474 0.55385 0.84938 0.0
Mn141 Mn 0.47338 0.55256 0.73964 0.0
O142 O 0.51224 0.4895 0.60766 0.0
O143 O 0.5602 0.50761 0.7222 0.0
Mn144 Mn 0.56134 0.47587 0.67307 0.0
O145 O 0.51232 0.48043 0.7883 0.0
O146 O 0.55083 0.47528 0.56278 0.0
O147 O 0.52569 0.5475 0.6334 0.0
O148 O 0.49127 0.57465 0.66525 0.0
O149 O 0.59565 0.48258 0.69298 0.0
O150 O 0.54412 0.45223 0.74407 0.0
C151 C 0.45347 0.51986 0.68578 0.0
C152 C 0.50964 0.55278 0.86182 0.0
C153 C 0.52601 0.47701 0.55342 0.0
C154 C 0.5861 0.50359 0.72928 0.0
C155 C 0.52399 0.45751 0.78992 0.0
C156 C 0.51274 0.56962 0.62529 0.0
O157 O 0.47899 0.52026 0.70155 0.0
O158 O 0.44035 0.54047 0.71129 0.0
O159 O 0.05242 0.50998 0.78728 0.0
Mn160 Mn 0.01892 0.51649 0.70886 0.0
O161 O 0.08011 0.54332 0.75129 0.0
Mn162 Mn 0.05752 0.56059 0.67681 0.0
O163 O 0.98544 0.52284 0.63022 0.0
O164 O 0.01278 0.4763 0.70153 0.0
Mn165 Mn 0.97998 0.47082 0.73623 0.0
O166 O 0.99373 0.52195 0.81064 0.0
O167 O 0.95854 0.48797 0.65815 0.0
O168 O 0.04369 0.51047 0.6063 0.0
O169 O 0.05948 0.54948 0.56727 0.0
O170 O 0.99251 0.43774 0.71191 0.0
O171 O 0.97632 0.48282 0.84471 0.0
C172 C 0.02662 0.58294 0.72814 0.0
C173 C 0.07492 0.52235 0.79332 0.0
C174 C 0.96355 0.50968 0.61964 0.0
C175 C 0.01335 0.45073 0.68749 0.0
C176 C 0.97892 0.50755 0.85747 0.0
C177 C 0.05711 0.52476 0.55546 0.0
O178 O 0.02501 0.55708 0.71773 0.0
O179 O 0.04786 0.59433 0.69928 0.0
H180 H 0.19045 0.04153 0.28977 0.0
H181 H 0.11485 0.0464 0.73427 0.0
H182 H 0.22761 0.05616 0.5298 0.0
H183 H 0.08201 0.00613 0.51911 0.0
H184 H 0.15173 0.06215 0.64725 0.0
H185 H 0.14675 0.03914 0.36097 0.0
C186 C 0.18934 0.04477 0.35695 0.0
C187 C 0.21264 0.04892 0.40415 0.0
C188 C 0.13603 0.05059 0.61811 0.0
C189 C 0.16303 0.0466 0.48547 0.0
C190 C 0.1147 0.04203 0.66759 0.0
C191 C 0.09488 0.02568 0.63333 0.0
C192 C 0.13787 0.04244 0.53369 0.0
C193 C 0.09649 0.01938 0.54733 0.0
C194 C 0.16448 0.0433 0.39758 0.0
C195 C 0.21015 0.05276 0.49113 0.0
N196 N 0.1177 0.02756 0.50056 0.0
N197 N 0.18594 0.05149 0.52875 0.0
H198 H 0.48822 0.18488 0.27661 0.0
H199 H 0.48117 0.11305 0.72715 0.0
H200 H 0.47527 0.22414 0.51355 0.0
H201 H 0.52277 0.07864 0.51788 0.0
H202 H 0.46556 0.14895 0.63555 0.0
H203 H 0.48903 0.14169 0.35127 0.0
C204 C 0.48493 0.18434 0.34381 0.0
C205 C 0.48177 0.20805 0.38919 0.0
C206 C 0.47732 0.13306 0.60866 0.0
C207 C 0.48231 0.15907 0.47438 0.0
C208 C 0.48579 0.11227 0.66073 0.0
C209 C 0.50253 0.09234 0.62956 0.0
C210 C 0.48594 0.13422 0.52469 0.0
C211 C 0.50916 0.09317 0.54376 0.0
C212 C 0.48552 0.15978 0.3864 0.0
C213 C 0.47789 0.20632 0.47629 0.0
N214 N 0.50109 0.11389 0.49443 0.0
N215 N 0.47829 0.18239 0.51583 0.0
H216 H 0.30495 0.47942 0.51285 0.0
H217 H 0.45601 0.5178 0.51505 0.0
H218 H 0.34822 0.4827 0.27986 0.0
H219 H 0.41631 0.4836 0.72832 0.0
H220 H 0.41958 0.50216 0.42384 0.0
H221 H 0.34689 0.47896 0.59004 0.0
C222 C 0.32343 0.4797 0.47788 0.0
C223 C 0.32313 0.4811 0.38995 0.0
C224 C 0.41931 0.4972 0.49005 0.0
C225 C 0.37162 0.48117 0.47836 0.0
C226 C 0.44028 0.50581 0.54196 0.0
C227 C 0.43955 0.50126 0.62911 0.0
C228 C 0.39702 0.48485 0.52624 0.0
C229 C 0.41806 0.48679 0.66126 0.0
C230 C 0.34744 0.47935 0.52202 0.0
C231 C 0.34764 0.48147 0.34773 0.0
N232 N 0.39751 0.47954 0.61029 0.0
N233 N 0.37098 0.48203 0.39245 0.0
H234 H 0.06048 0.30209 0.5279 0.0
H235 H 0.01577 0.45201 0.51687 0.0
H236 H 0.05058 0.34291 0.2919 0.0
H237 H 0.05002 0.41429 0.73443 0.0
H238 H 0.03205 0.41523 0.42916 0.0
H239 H 0.05956 0.34453 0.60114 0.0
C240 C 0.05843 0.32015 0.49134 0.0
C241 C 0.05558 0.31897 0.40376 0.0
C242 C 0.03686 0.41545 0.49555 0.0
C243 C 0.05392 0.36806 0.48782 0.0
C244 C 0.02792 0.43665 0.54545 0.0
C245 C 0.03232 0.43662 0.63277 0.0
C246 C 0.04949 0.39362 0.53385 0.0
C247 C 0.04696 0.41555 0.66714 0.0
C248 C 0.05796 0.34447 0.53326 0.0
C249 C 0.05296 0.34299 0.35953 0.0
N250 N 0.05461 0.39478 0.61804 0.0
N251 N 0.05171 0.36659 0.40221 0.0
H252 H 0.81224 0.00594 0.02978 0.0
H253 H 0.95963 0.00317 0.88587 0.0
H254 H 0.85285 0.93195 0.07736 0.0
H255 H 0.89761 0.01348 0.70102 0.0
H256 H 0.92626 0.98465 0.98367 0.0
H257 H 0.84918 0.01944 0.93756 0.0
C258 C 0.82918 0.99282 0.02232 0.0
C259 C 0.82963 0.96785 0.0614 0.0
C260 C 0.92024 0.9905 0.92091 0.0
C261 C 0.87186 0.98329 0.95761 0.0
C262 C 0.93931 1.00048 0.86457 0.0
C263 C 0.93162 0.00881 0.7838 0.0
C264 C 0.89322 0.9903 0.89749 0.0
C265 C 0.90455 0.00666 0.76183 0.0
C266 C 0.85008 1.00043 0.96943 0.0
C267 C 0.85187 0.95139 0.04835 0.0
N268 N 0.88632 0.99813 0.81863 0.0
N269 N 0.87224 0.95944 -0.00203 0.0
H270 H 0.60692 0.82178 0.95242 0.0
H271 H 0.50741 0.94567 0.90985 0.0
H272 H 0.54083 0.83422 0.11995 0.0
H273 H 0.55832 0.91868 0.71041 0.0
H274 H 0.52604 0.91123 0.00231 0.0
H275 H 0.59506 0.86242 0.87724 0.0
C276 C 0.58995 0.83321 0.97376 0.0
C277 C 0.57483 0.82451 0.0425 0.0
C278 C 0.53369 0.91328 0.9391 0.0
C279 C 0.56114 0.87144 0.95645 0.0
C280 C 0.52346 0.93328 0.88683 0.0
C281 C 0.53198 0.93558 0.80312 0.0
C282 C 0.55248 0.89527 0.90725 0.0
C283 C 0.55185 0.91817 0.77523 0.0
C284 C 0.58319 0.85643 0.93066 0.0
C285 C 0.55302 0.84013 0.06721 0.0
N286 N 0.56131 0.89869 0.82691 0.0
N287 N 0.54681 0.86284 0.02413 0.0
H288 H 0.69358 0.60773 0.00994 0.0
H289 H 0.62444 0.47941 0.81855 0.0
H290 H 0.71042 0.52768 0.09044 0.0
H291 H 0.58887 0.55676 0.78457 0.0
H292 H 0.65651 0.49818 0.91459 0.0
H293 H 0.65557 0.59113 0.92729 0.0
C294 C 0.68907 0.58668 0.01089 0.0
C295 C 0.70516 0.56906 0.05724 0.0
C296 C 0.64161 0.5112 0.88742 0.0
C297 C 0.66204 0.54991 0.96167 0.0
C298 C 0.62321 0.50051 0.83163 0.0
C299 C 0.60374 0.51651 0.79282 0.0
C300 C 0.64109 0.5384 0.90541 0.0
C301 C 0.60334 0.54365 0.8134 0.0
C302 C 0.66738 0.57726 0.96379 0.0
C303 C 0.69853 0.54202 0.05618 0.0
N304 N 0.62194 0.55385 0.86798 0.0
N305 N 0.67771 0.5333 0.00852 0.0
H306 H 0.00765 0.72033 0.01887 0.0
H307 H 0.00642 0.57164 0.8854 0.0
H308 H 0.9393 0.67549 0.09999 0.0
H309 H 0.01086 0.63302 0.69732 0.0
H310 H 0.98913 0.60481 0.98608 0.0
H311 H 0.01938 0.68374 0.92304 0.0
C312 C 0.99546 0.70256 0.01782 0.0
C313 C 0.97255 0.70078 0.06756 0.0
C314 C 0.99335 0.61072 0.92205 0.0
C315 C 0.98599 0.65898 0.95935 0.0
C316 C 1.00263 0.59174 0.8642 0.0
C317 C 0.00905 0.59935 0.7818 0.0
C318 C 0.99191 0.63758 0.89812 0.0
C319 C 0.00551 0.62615 0.75952 0.0
C320 C 1.00202 0.68186 0.96282 0.0
C321 C 0.95716 0.6775 0.06263 0.0
N322 N 0.99773 0.64434 0.81755 0.0
N323 N 0.96424 0.65734 0.00991 0.0
H324 H 0.04583 0.21255 0.433 0.0
H325 H 0.06151 0.05933 0.52899 0.0
H326 H 0.11279 0.16953 0.33161 0.0
H327 H 0.9868 0.09936 0.48424 0.0
H328 H 0.08518 0.09959 0.48571 0.0
H329 H 0.03009 0.17174 0.498 0.0
C330 C 0.05793 0.1948 0.42761 0.0
C331 C 0.08036 0.19422 0.37544 0.0
C332 C 0.06361 0.09927 0.48468 0.0
C333 C 0.06192 0.14751 0.44687 0.0
C334 C 0.05011 0.07624 0.508 0.0
C335 C 0.02216 0.07592 0.51092 0.0
C336 C 0.04892 0.12215 0.46584 0.0
C337 C 0.00834 0.09858 0.48353 0.0
C338 C 0.04859 0.17142 0.46318 0.0
C339 C 0.09515 0.17056 0.37041 0.0
N340 N 0.02188 0.12094 0.46365 0.0
N341 N 0.08532 0.14781 0.4041 0.0
H342 H 0.32057 0.03936 0.44033 0.0
H343 H 0.47687 0.05291 0.50363 0.0
H344 H 0.36416 0.10416 0.3284 0.0
H345 H 0.43256 0.97952 0.50912 0.0
H346 H 0.43606 0.07656 0.46332 0.0
H347 H 0.3615 0.02384 0.506 0.0
C348 C 0.33852 0.05104 0.43251 0.0
C349 C 0.33919 0.07267 0.37702 0.0
C350 C 0.43548 0.05524 0.47268 0.0
C351 C 0.38611 0.05435 0.4489 0.0
C352 C 0.45876 0.04175 0.49452 0.0
C353 C 0.45815 0.01433 0.51063 0.0
C354 C 0.4115 0.0411 0.46792 0.0
C355 C 0.43414 1.00066 0.49747 0.0
C356 C 0.36199 0.0418 0.46849 0.0
C357 C 0.36306 0.08703 0.36942 0.0
N358 N 0.4117 0.01428 0.4782 0.0
N359 N 0.38589 0.07719 0.40313 0.0
H360 H 0.42378 0.35495 0.34364 0.0
H361 H 0.54893 0.4402 0.44964 0.0
H362 H 0.49951 0.3199 0.40795 0.0
H363 H 0.47313 0.46441 0.55107 0.0
H364 H 0.52881 0.39819 0.40665 0.0
H365 H 0.43871 0.39705 0.40625 0.0
C366 C 0.44302 0.35582 0.37449 0.0
C367 C 0.46053 0.33413 0.37064 0.0
C368 C 0.51656 0.413 0.4373 0.0
C369 C 0.47804 0.382 0.43694 0.0
C370 C 0.52786 0.43716 0.4605 0.0
C371 C 0.51264 0.45608 0.50383 0.0
C372 C 0.48978 0.40797 0.45604 0.0
C373 C 0.48544 0.45081 0.51639 0.0
C374 C 0.45166 0.37984 0.40876 0.0
C375 C 0.48543 0.3362 0.41005 0.0
N376 N 0.47482 0.42716 0.49291 0.0
N377 N 0.4938 0.36004 0.43946 0.0
H378 H 0.17723 0.42133 0.34403 0.0
H379 H 0.09503 0.54814 0.45718 0.0
H380 H 0.21375 0.49631 0.40728 0.0
H381 H 0.06775 0.47163 0.54416 0.0
H382 H 0.13666 0.52755 0.41372 0.0
H383 H 0.13544 0.43697 0.40662 0.0
C384 C 0.17673 0.44057 0.37459 0.0
C385 C 0.19875 0.45766 0.37032 0.0
C386 C 0.12132 0.51526 0.44148 0.0
C387 C 0.15125 0.47595 0.43701 0.0
C388 C 0.09736 0.52687 0.46488 0.0
C389 C 0.07774 0.51157 0.50461 0.0
C390 C 0.12547 0.48812 0.45641 0.0
C391 C 0.08205 0.48408 0.51288 0.0
C392 C 0.15289 0.4496 0.40891 0.0
C393 C 0.19719 0.48254 0.40958 0.0
N394 N 0.10558 0.47317 0.48942 0.0
N395 N 0.17353 0.49128 0.43927 0.0
H396 H 1.00234 0.81394 0.98601 0.0
H397 H 0.97088 0.95937 0.83378 0.0
H398 H 0.92448 0.84695 0.03079 0.0
H399 H 0.04338 0.93738 0.96282 0.0
H400 H 0.95205 0.91618 0.86744 0.0
H401 H 0.01597 0.85593 0.92245 0.0
C402 C 0.9876 0.82946 0.97777 0.0
C403 C 0.96237 0.82722 0.01455 0.0
C404 C 0.9719 0.9211 0.88936 0.0
C405 C 0.978 0.87516 0.94449 0.0
C406 C 0.98242 0.94612 0.87275 0.0
C407 C 0.00845 0.9527 0.89857 0.0
C408 C 0.98788 0.90214 0.92894 0.0
C409 C 0.02312 0.93348 0.94287 0.0
C410 C 0.99562 0.85359 0.94356 0.0
C411 C 0.94413 0.84807 0.00324 0.0
N412 N 0.01276 0.90891 0.95562 0.0
N413 N 0.9525 0.87158 0.97075 0.0
H414 H 0.67803 0.92135 0.06766 0.0
H415 H 0.59818 0.0492 0.94063 0.0
H416 H 0.71514 0.99521 -0.0034 0.0
H417 H 0.5644 0.97145 0.89745 0.0
H418 H 0.64033 0.0284 0.97661 0.0
H419 H 0.63613 0.93691 0.00534 0.0
C420 C 0.67768 0.94026 0.03508 0.0
C421 C 0.69986 0.95723 0.0383 0.0
C422 C 0.62362 0.01587 0.95957 0.0
C423 C 0.65213 0.97549 0.97113 0.0
C424 C 0.59932 0.0277 0.94071 0.0
C425 C 0.57763 0.01206 0.91489 0.0
C426 C 0.62623 0.98817 0.95416 0.0
C427 C 0.58055 0.98426 0.91647 0.0
C428 C 0.6537 0.94931 0.00101 0.0
C429 C 0.69845 0.98158 -0.00416 0.0
N430 N 0.60451 0.97314 0.9352 0.0
N431 N 0.6747 0.99037 0.96623 0.0
H432 H 0.54912 0.7145 0.96825 0.0
H433 H 0.48587 0.59974 0.90103 0.0
H434 H 0.60817 0.66751 0.09829 0.0
H435 H 0.56123 0.55871 0.91804 0.0
H436 H 0.50796 0.64093 0.9351 0.0
H437 H 0.5349 0.67493 0.89257 0.0
C438 C 0.55971 0.69604 0.97903 0.0
C439 C 0.57908 0.694 0.04231 0.0
C440 C 0.51988 0.62309 0.92996 0.0
C441 C 0.5615 0.64844 0.96113 0.0
C442 C 0.50711 0.59925 0.91307 0.0
C443 C 0.52182 0.57563 0.90553 0.0
C444 C 0.54763 0.6235 0.94011 0.0
C445 C 0.5493 0.57655 0.92174 0.0
C446 C 0.55105 0.67327 0.93751 0.0
C447 C 0.5924 0.66961 0.05218 0.0
N448 N 0.5614 0.60018 0.93849 0.0
N449 N 0.58276 0.64745 0.01415 0.0
H450 H 0.85391 0.60878 0.04977 0.0
H451 H 0.94475 0.4856 0.9715 0.0
H452 H 0.82177 0.52995 0.0192 0.0
H453 H 0.96186 0.55867 0.84019 0.0
H454 H 0.90193 0.50433 0.01409 0.0
H455 H 0.89565 0.59374 0.98532 0.0
C456 C 0.85524 0.5887 0.02554 0.0
C457 C 0.83452 0.57055 0.03903 0.0
C458 C 0.91546 0.51637 0.97734 0.0
C459 C 0.88217 0.55301 0.97135 0.0
C460 C 0.94004 0.5059 0.95432 0.0
C461 C 0.9574 0.52084 0.90417 0.0
C462 C 0.90842 0.54204 0.9511 0.0
C463 C 0.94991 0.5469 0.8823 0.0
C464 C 0.8791 0.58004 0.99042 0.0
C465 C 0.83727 0.54454 0.00888 0.0
N466 N 0.92595 0.55673 0.90596 0.0
N467 N 0.86105 0.53627 0.97855 0.0
H468 H 0.10397 0.19496 0.05226 0.0
H469 H 0.98139 0.10668 0.89161 0.0
H470 H 0.02167 0.21386 0.09763 0.0
H471 H 0.06294 0.08638 0.83739 0.0
H472 H 0.99642 0.14652 0.96408 0.0
H473 H 0.09001 0.15765 0.96315 0.0
C474 C 0.08293 0.19201 0.04013 0.0
C475 C 0.06395 0.2079 0.08132 0.0
C476 C 0.01116 0.13342 0.93688 0.0
C477 C 0.04778 0.16433 0.98277 0.0
C478 C 1.00259 0.11046 0.89596 0.0
C479 C 0.02092 0.09305 0.85841 0.0
C480 C 0.03842 0.13942 0.94049 0.0
C481 C 0.04813 0.09905 0.86625 0.0
C482 C 0.07497 0.17034 0.99072 0.0
C483 C 0.03697 0.20258 0.06574 0.0
N484 N 0.05607 0.12184 0.90602 0.0
N485 N 0.02973 0.18107 0.01885 0.0
H486 H 0.3169 0.01388 0.09283 0.0
H487 H 0.4498 0.05741 0.84894 0.0
H488 H 0.33894 0.0958 0.05771 0.0
H489 H 0.42108 0.97681 0.86788 0.0
H490 H 0.40936 0.07264 0.92229 0.0
H491 H 0.35332 1.00062 9e-05 0.0
C492 C 0.32861 0.02915 0.06237 0.0
C493 C 0.32456 0.05599 0.08214 0.0
C494 C 0.41199 0.05163 0.9102 0.0
C495 C 0.36747 0.04095 0.97925 0.0
C496 C 0.43523 0.04291 0.86919 0.0
C497 C 0.43895 0.01576 0.85183 0.0
C498 C 0.39243 0.03304 0.9344 0.0
C499 C 0.41916 0.99794 0.87903 0.0
C500 C 0.34986 0.02159 0.01079 0.0
C501 C 0.34114 0.07489 0.04311 0.0
N502 N 0.39696 0.00686 0.91856 0.0
N503 N 0.36211 0.06704 0.99483 0.0
H504 H 0.43211 0.33675 0.05558 0.0
H505 H 0.55389 0.41849 0.86006 0.0
H506 H 0.51434 0.31378 0.08022 0.0
H507 H 0.47259 0.44565 0.84317 0.0
H508 H 0.53898 0.37891 0.93374 0.0
H509 H 0.44545 0.37379 0.96481 0.0
C510 C 0.45288 0.33879 0.03864 0.0
C511 C 0.4721 0.32179 0.07452 0.0
C512 C 0.52428 0.39343 0.91427 0.0
C513 C 0.48768 0.36498 0.9735 0.0
C514 C 0.5328 0.41621 0.87236 0.0
C515 C 0.51448 0.43553 0.84503 0.0
C516 C 0.49706 0.3895 0.92916 0.0
C517 C 0.48745 0.43143 0.86357 0.0
C518 C 0.46054 0.36029 0.98824 0.0
C519 C 0.49881 0.32592 0.05262 0.0
N520 N 0.47953 0.40879 0.90408 0.0
N521 N 0.5058 0.34724 0.00458 0.0
H522 H 0.19456 0.42807 0.05757 0.0
H523 H 0.11437 0.55136 0.86527 0.0
H524 H 0.22015 0.50953 0.07614 0.0
H525 H 0.08631 0.47061 0.84359 0.0
H526 H 0.15411 0.53553 0.93665 0.0
H527 H 0.15751 0.44203 0.96701 0.0
C528 C 0.19307 0.44877 0.03934 0.0
C529 C 0.21074 0.46763 0.07366 0.0
C530 C 0.13935 0.52115 0.91665 0.0
C531 C 0.16762 0.48394 0.97294 0.0
C532 C 0.11646 0.5302 0.87611 0.0
C533 C 0.09686 0.51231 0.84798 0.0
C534 C 0.14306 0.49384 0.92968 0.0
C535 C 0.10075 0.48515 0.86465 0.0
C536 C 0.17158 0.45679 0.98903 0.0
C537 C 0.20739 0.49426 0.04995 0.0
N538 N 0.12348 0.47672 0.90411 0.0
N539 N 0.18606 0.50164 0.00221 0.0
H540 H 0.00964 0.85182 0.22062 0.0
H541 H 1.00091 0.91271 0.67759 0.0
H542 H 0.95916 0.8148 0.40513 0.0
H543 H 0.011 0.96107 0.45663 0.0
H544 H 0.99016 0.87444 0.58765 0.0
H545 H 0.01719 0.88894 0.31644 0.0
C546 C 1.00067 0.85123 0.28246 0.0
C547 C 0.98374 0.83018 0.30503 0.0
C548 C 0.99426 0.89351 0.55894 0.0
C549 C 0.99217 0.87289 0.415 0.0
C550 C 1.00026 0.91534 0.61 0.0
C551 C 0.00652 0.94007 0.57419 0.0
C552 C 0.99536 0.89626 0.47138 0.0
C553 C 0.00588 0.94244 0.48655 0.0
C554 C 0.00469 0.87261 0.33653 0.0
C555 C 0.97252 0.8305 0.38567 0.0
N556 N 1.00081 0.92068 0.43802 0.0
N557 N 0.97692 0.85161 0.43801 0.0
H558 H 0.71824 0.01272 0.34006 0.0
H559 H 0.58239 0.97014 0.56951 0.0
H560 H 0.68986 0.93196 0.34755 0.0
H561 H 0.61441 0.04977 0.56802 0.0
H562 H 0.622 0.95501 0.49214 0.0
H563 H 0.68209 0.02572 0.43447 0.0
C564 C 0.70502 0.99754 0.36423 0.0
C565 C 0.70721 0.9712 0.33641 0.0
C566 C 0.62027 0.97579 0.50897 0.0
C567 C 0.66493 0.98605 0.44157 0.0
C568 C 0.59754 0.98446 0.55241 0.0
C569 C 0.59499 0.01126 0.57574 0.0
C570 C 0.64052 0.99407 0.48851 0.0
C571 C 0.61545 0.02886 0.55225 0.0
C572 C 0.68403 0.00502 0.41692 0.0
C573 C 0.68896 0.95247 0.36798 0.0
N574 N 0.6372 0.01999 0.51031 0.0
N575 N 0.66841 0.96029 0.41776 0.0
H576 H 0.51779 0.7122 0.32206 0.0
H577 H 0.56463 0.58381 0.58572 0.0
H578 H 0.6002 0.69327 0.36705 0.0
H579 H 0.48276 0.60556 0.54037 0.0
H580 H 0.57868 0.62422 0.5101 0.0
H581 H 0.50488 0.67525 0.41345 0.0
C582 C 0.53317 0.70106 0.35451 0.0
C583 C 0.5601 0.70621 0.3384 0.0
C584 C 0.55765 0.62003 0.51655 0.0
C585 C 0.54558 0.6628 0.43965 0.0
C586 C 0.54966 0.5968 0.55877 0.0
C587 C 0.52248 0.59127 0.56953 0.0
C588 C 0.5383 0.63773 0.48465 0.0
C589 C 0.50394 0.60906 0.53426 0.0
C590 C 0.52584 0.67952 0.40525 0.0
C591 C 0.57922 0.69031 0.37935 0.0
N592 N 0.51215 0.63136 0.49383 0.0
N593 N 0.57164 0.66915 0.42706 0.0
H594 H 0.84338 0.60235 0.35171 0.0
H595 H 0.92669 0.48023 0.53672 0.0
H596 H 0.81837 0.52064 0.33721 0.0
H597 H 0.95031 0.56166 0.57754 0.0
H598 H 0.88695 0.49552 0.46412 0.0
H599 H 0.88086 0.58901 0.44163 0.0
C600 C 0.84514 0.58174 0.37063 0.0
C601 C 0.82742 0.56262 0.33821 0.0
C602 C 0.90072 0.51017 0.48864 0.0
C603 C 0.87105 0.54701 0.43763 0.0
C604 C 0.92363 0.50144 0.52979 0.0
C605 C 0.94194 0.51967 0.56374 0.0
C606 C 0.89575 0.53748 0.48076 0.0
C607 C 0.93688 0.54689 0.55191 0.0
C608 C 0.86682 0.57407 0.42065 0.0
C609 C 0.83113 0.53609 0.36231 0.0
N610 N 0.91417 0.55499 0.51169 0.0
N611 N 0.8527 0.52904 0.40946 0.0
loop_
_geom_bond_atom_site_label_1
_geom_bond_atom_site_label_2
_geom_bond_distance
_geom_bond_site_symmetry_2
_ccdc_geom_bond_type
H0 C5 0.930 . S
H1 C8 0.930 1_556 S
H2 C10 0.930 . S
H3 C4 1.016 1_556 S
C4 H3 1.016 1_554 S
C4 N11 1.286 . S
C5 H0 0.930 . S
C5 C6 1.397 . S
C5 C7 1.361 . S
C6 C5 1.397 . S
C6 C10 1.390 . S
C7 C5 1.361 . S
C7 C8 1.393 . S
C7 N11 1.413 . S
C8 H1 0.930 1_554 S
C8 C7 1.393 . S
C8 C9 1.399 . S
C9 C8 1.399 . S
C9 C10 1.381 . S
C10 H2 0.930 . S
C10 C6 1.390 . S
C10 C9 1.381 . S
N11 C4 1.286 . S
N11 C7 1.413 . S
H12 C17 0.930 . S
H13 C20 0.930 1_556 S
H14 C22 0.930 . S
H15 C16 1.016 1_556 S
C16 H15 1.016 1_554 S
C16 N23 1.286 . S
C17 H12 0.930 . S
C17 C18 1.397 . S
C17 C19 1.361 . S
C18 C17 1.397 . S
C18 C22 1.390 . S
C19 C17 1.361 . S
C19 C20 1.393 . S
C19 N23 1.413 . S
C20 H13 0.930 1_554 S
C20 C19 1.393 . S
C20 C21 1.399 . S
C21 C20 1.399 . S
C21 C22 1.381 . S
C22 H14 0.930 . S
C22 C18 1.390 . S
C22 C21 1.381 . S
N23 C16 1.286 . S
N23 C19 1.413 . S
H24 C29 0.930 . S
H25 C32 0.930 1_556 S
H26 C34 0.930 . S
H27 C28 1.016 1_556 S
C28 H27 1.016 1_554 S
C28 N35 1.286 . S
C29 H24 0.930 . S
C29 C30 1.397 . S
C29 C31 1.361 . S
C30 C29 1.397 . S
C30 C34 1.390 . S
C31 C29 1.361 . S
C31 C32 1.393 . S
C31 N35 1.413 . S
C32 H25 0.930 1_554 S
C32 C31 1.393 . S
C32 C33 1.399 . S
C33 C32 1.399 . S
C33 C34 1.381 . S
C34 H26 0.930 . S
C34 C30 1.390 . S
C34 C33 1.381 . S
N35 C28 1.286 . S
N35 C31 1.413 . S
H36 C41 0.930 . S
H37 C44 0.930 1_556 S
H38 C46 0.930 . S
H39 C40 1.016 1_556 S
C40 H39 1.016 1_554 S
C40 N47 1.286 . S
C41 H36 0.930 . S
C41 C42 1.397 . S
C41 C43 1.361 . S
C42 C41 1.397 . S
C42 C46 1.390 . S
C43 C41 1.361 . S
C43 C44 1.393 . S
C43 N47 1.413 . S
C44 H37 0.930 1_554 S
C44 C43 1.393 . S
C44 C45 1.399 . S
C45 C44 1.399 . S
C45 C46 1.381 . S
C46 H38 0.930 . S
C46 C42 1.390 . S
C46 C45 1.381 . S
N47 C40 1.286 . S
N47 C43 1.413 . S
H48 C53 0.930 . S
H49 C56 0.930 . S
H50 C58 0.930 . S
H51 C52 1.016 . S
C52 H51 1.016 . S
C52 N59 1.286 . S
C53 H48 0.930 . S
C53 C54 1.397 . S
C53 C55 1.361 . S
C54 C53 1.397 . S
C54 C58 1.390 . S
C55 C53 1.361 . S
C55 C56 1.393 . S
C55 N59 1.413 . S
C56 H49 0.930 . S
C56 C55 1.393 . S
C56 C57 1.399 . S
C57 C56 1.399 . S
C57 C58 1.381 . S
C58 H50 0.930 . S
C58 C54 1.390 . S
C58 C57 1.381 . S
N59 C52 1.286 . S
N59 C55 1.413 . S
H60 C65 0.930 . S
H61 C68 0.930 . S
H62 C70 0.930 . S
H63 C64 1.016 . S
C64 H63 1.016 . S
C64 N71 1.286 . S
C65 H60 0.930 . S
C65 C66 1.397 . S
C65 C67 1.361 . S
C66 C65 1.397 . S
C66 C70 1.390 . S
C67 C65 1.361 . S
C67 C68 1.393 . S
C67 N71 1.413 . S
C68 H61 0.930 . S
C68 C67 1.393 . S
C68 C69 1.399 . S
C69 C68 1.399 . S
C69 C70 1.381 . S
C70 H62 0.930 . S
C70 C66 1.390 . S
C70 C69 1.381 . S
N71 C64 1.286 . S
N71 C67 1.413 . S
H72 C77 0.930 . S
H73 C80 0.930 . S
H74 C82 0.930 . S
H75 C76 1.016 . S
C76 H75 1.016 . S
C76 N83 1.286 . S
C77 H72 0.930 . S
C77 C78 1.397 . S
C77 C79 1.361 . S
C78 C77 1.397 . S
C78 C82 1.390 . S
C79 C77 1.361 . S
C79 C80 1.393 . S
C79 N83 1.413 . S
C80 H73 0.930 . S
C80 C79 1.393 . S
C80 C81 1.399 . S
C81 C80 1.399 . S
C81 C82 1.381 . S
C82 H74 0.930 . S
C82 C78 1.390 . S
C82 C81 1.381 . S
N83 C76 1.286 . S
N83 C79 1.413 . S
H84 C89 0.930 . S
H85 C92 0.930 . S
H86 C94 0.930 . S
H87 C88 1.016 . S
C88 H87 1.016 . S
C88 N95 1.286 . S
C89 H84 0.930 . S
C89 C90 1.397 . S
C89 C91 1.361 . S
C90 C89 1.397 . S
C90 C94 1.390 . S
C91 C89 1.361 . S
C91 C92 1.393 . S
C91 N95 1.413 . S
C92 H85 0.930 . S
C92 C91 1.393 . S
C92 C93 1.399 . S
C93 C92 1.399 . S
C93 C94 1.381 . S
C94 H86 0.930 . S
C94 C90 1.390 . S
C94 C93 1.381 . S
N95 C88 1.286 . S
N95 C91 1.413 . S
O96 Mn97 2.163 . S
O96 C110 1.244 . S
Mn97 O96 2.163 . S
Mn97 O100 2.173 1_545 S
Mn97 O101 2.221 . S
Mn97 O103 2.163 1_545 S
Mn97 O105 2.160 . S
Mn97 O115 2.221 1_455 S
O98 Mn99 2.087 1_455 S
O98 C110 1.256 . S
Mn99 O98 2.087 1_655 S
Mn99 O106 2.089 . S
Mn99 O115 2.290 . S
Mn99 O116 2.251 . S
O100 Mn97 2.173 1_565 S
O100 C111 1.246 . S
O101 Mn97 2.221 . S
O101 Mn102 2.290 1_545 S
O101 C112 1.278 . S
Mn102 O101 2.290 1_565 S
Mn102 O104 2.089 . S
Mn102 O107 2.251 . S
Mn102 O108 2.087 . S
O103 Mn97 2.163 1_565 S
O103 C113 1.244 . S
O104 Mn102 2.089 . S
O104 C111 1.256 . S
O105 Mn97 2.160 . S
O105 C114 1.239 . S
O106 Mn99 2.089 . S
O106 C114 1.256 1_655 S
O107 Mn102 2.251 . S
O107 C112 1.241 1_565 S
O108 Mn102 2.087 . S
O108 C113 1.256 . S
C109 O115 1.278 . S
C109 O116 1.241 . S
C110 O96 1.244 . S
C110 O98 1.256 . S
C111 O100 1.246 . S
C111 O104 1.256 . S
C112 O101 1.278 . S
C112 O107 1.241 1_545 S
C113 O103 1.244 . S
C113 O108 1.256 . S
C114 O105 1.239 . S
C114 O106 1.256 1_455 S
O115 Mn97 2.221 1_655 S
O115 Mn99 2.290 . S
O115 C109 1.278 . S
O116 Mn99 2.251 . S
O116 C109 1.241 . S
O117 Mn118 2.163 . S
O117 C131 1.244 . S
Mn118 O117 2.163 . S
Mn118 O121 2.160 . S
Mn118 O122 2.221 1_545 S
Mn118 O124 2.163 . S
Mn118 O126 2.160 1_545 S
Mn118 O136 2.221 . S
O119 Mn120 2.087 . S
O119 C131 1.256 . S
Mn120 O119 2.087 . S
Mn120 O127 2.089 . S
Mn120 O136 2.290 . S
Mn120 O137 2.251 . S
O121 Mn118 2.160 . S
O121 C132 1.239 . S
O122 Mn118 2.221 1_565 S
O122 Mn123 2.290 . S
O122 C133 1.278 . S
Mn123 O122 2.290 . S
Mn123 O125 2.089 . S
Mn123 O128 2.251 . S
Mn123 O129 2.087 . S
O124 Mn118 2.163 . S
O124 C134 1.244 . S
O125 Mn123 2.089 . S
O125 C132 1.256 1_565 S
O126 Mn118 2.160 1_565 S
O126 C135 1.239 1_565 S
O127 Mn120 2.089 . S
O127 C135 1.256 . S
O128 Mn123 2.251 . S
O128 C133 1.241 . S
O129 Mn123 2.087 . S
O129 C134 1.256 1_565 S
C130 O136 1.278 . S
C130 O137 1.241 . S
C131 O117 1.244 . S
C131 O119 1.256 . S
C132 O121 1.239 . S
C132 O125 1.256 1_545 S
C133 O122 1.278 . S
C133 O128 1.241 . S
C134 O124 1.244 . S
C134 O129 1.256 1_545 S
C135 O126 1.239 1_545 S
C135 O127 1.256 . S
O136 Mn118 2.221 . S
O136 Mn120 2.290 . S
O136 C130 1.278 . S
O137 Mn120 2.251 . S
O137 C130 1.241 . S
O138 Mn139 2.163 . S
O138 C152 1.244 . S
Mn139 O138 2.163 . S
Mn139 O142 2.160 . S
Mn139 O143 2.221 . S
Mn139 O145 2.163 . S
Mn139 O147 2.160 . S
Mn139 O157 2.221 . S
O140 Mn141 2.087 . S
O140 C152 1.256 . S
Mn141 O140 2.087 . S
Mn141 O148 2.089 . S
Mn141 O157 2.290 . S
Mn141 O158 2.251 . S
O142 Mn139 2.160 . S
O142 C153 1.239 . S
O143 Mn139 2.221 . S
O143 Mn144 2.290 . S
O143 C154 1.278 . S
Mn144 O143 2.290 . S
Mn144 O146 2.089 . S
Mn144 O149 2.251 . S
Mn144 O150 2.087 . S
O145 Mn139 2.163 . S
O145 C155 1.244 . S
O146 Mn144 2.089 . S
O146 C153 1.256 . S
O147 Mn139 2.160 . S
O147 C156 1.239 . S
O148 Mn141 2.089 . S
O148 C156 1.256 . S
O149 Mn144 2.251 . S
O149 C154 1.241 . S
O150 Mn144 2.087 . S
O150 C155 1.256 . S
C151 O157 1.278 . S
C151 O158 1.241 . S
C152 O138 1.244 . S
C152 O140 1.256 . S
C153 O142 1.239 . S
C153 O146 1.256 . S
C154 O143 1.278 . S
C154 O149 1.241 . S
C155 O145 1.244 . S
C155 O150 1.256 . S
C156 O147 1.239 . S
C156 O148 1.256 . S
O157 Mn139 2.221 . S
O157 Mn141 2.290 . S
O157 C151 1.278 . S
O158 Mn141 2.251 . S
O158 C151 1.241 . S
O159 Mn160 2.163 . S
O159 C173 1.244 . S
Mn160 O159 2.163 . S
Mn160 O163 2.160 1_455 S
Mn160 O164 2.221 . S
Mn160 O166 2.163 1_455 S
Mn160 O168 2.160 . S
Mn160 O178 2.221 . S
O161 Mn162 2.087 . S
O161 C173 1.256 . S
Mn162 O161 2.087 . S
Mn162 O169 2.089 . S
Mn162 O178 2.290 . S
Mn162 O179 2.251 . S
O163 Mn160 2.160 1_655 S
O163 C174 1.239 . S
O164 Mn160 2.221 . S
O164 Mn165 2.290 1_455 S
O164 C175 1.278 . S
Mn165 O164 2.290 1_655 S
Mn165 O167 2.089 . S
Mn165 O170 2.251 . S
Mn165 O171 2.087 . S
O166 Mn160 2.163 1_655 S
O166 C176 1.244 . S
O167 Mn165 2.089 . S
O167 C174 1.256 . S
O168 Mn160 2.160 . S
O168 C177 1.239 . S
O169 Mn162 2.089 . S
O169 C177 1.256 . S
O170 Mn165 2.251 . S
O170 C175 1.241 1_655 S
O171 Mn165 2.087 . S
O171 C176 1.256 . S
C172 O178 1.278 . S
C172 O179 1.241 . S
C173 O159 1.244 . S
C173 O161 1.256 . S
C174 O163 1.239 . S
C174 O167 1.256 . S
C175 O164 1.278 . S
C175 O170 1.241 1_455 S
C176 O166 1.244 . S
C176 O171 1.256 . S
C177 O168 1.239 . S
C177 O169 1.256 . S
O178 Mn160 2.221 . S
O178 Mn162 2.290 . S
O178 C172 1.278 . S
O179 Mn162 2.251 . S
O179 C172 1.241 . S
H180 C186 0.930 . S
H181 C190 0.930 . S
H182 C195 0.929 . S
H183 C193 0.929 . S
H184 C188 0.929 . S
H185 C194 0.929 . S
C186 H180 0.930 . S
C186 C187 1.367 . S
C186 C194 1.378 . S
C187 C186 1.367 . S
C187 C195 1.433 . S
C188 H184 0.929 . S
C188 C190 1.378 . S
C188 C192 1.350 . S
C189 C192 1.463 . S
C189 C194 1.350 . S
C189 N197 1.427 . S
C190 H181 0.930 . S
C190 C188 1.378 . S
C190 C191 1.367 . S
C191 C190 1.367 . S
C191 C193 1.433 . S
C192 C188 1.350 . S
C192 C189 1.463 . S
C192 N196 1.427 . S
C193 H183 0.929 . S
C193 C191 1.433 . S
C193 N196 1.384 . S
C194 H185 0.929 . S
C194 C186 1.378 . S
C194 C189 1.350 . S
C195 H182 0.929 . S
C195 C187 1.433 . S
C195 N197 1.384 . S
N196 C192 1.427 . S
N196 C193 1.384 . S
N197 C189 1.427 . S
N197 C195 1.384 . S
H198 C204 0.930 . S
H199 C208 0.930 . S
H200 C213 0.929 . S
H201 C211 0.929 . S
H202 C206 0.929 . S
H203 C212 0.929 . S
C204 H198 0.930 . S
C204 C205 1.367 . S
C204 C212 1.378 . S
C205 C204 1.367 . S
C205 C213 1.433 . S
C206 H202 0.929 . S
C206 C208 1.378 . S
C206 C210 1.350 . S
C207 C210 1.463 . S
C207 C212 1.350 . S
C207 N215 1.427 . S
C208 H199 0.930 . S
C208 C206 1.378 . S
C208 C209 1.367 . S
C209 C208 1.367 . S
C209 C211 1.433 . S
C210 C206 1.350 . S
C210 C207 1.463 . S
C210 N214 1.427 . S
C211 H201 0.929 . S
C211 C209 1.433 . S
C211 N214 1.384 . S
C212 H203 0.929 . S
C212 C204 1.378 . S
C212 C207 1.350 . S
C213 H200 0.929 . S
C213 C205 1.433 . S
C213 N215 1.384 . S
N214 C210 1.427 . S
N214 C211 1.384 . S
N215 C207 1.427 . S
N215 C213 1.384 . S
H216 C222 0.930 . S
H217 C226 0.930 . S
H218 C231 0.929 . S
H219 C229 0.929 . S
H220 C224 0.929 . S
H221 C230 0.929 . S
C222 H216 0.930 . S
C222 C223 1.367 . S
C222 C230 1.378 . S
C223 C222 1.367 . S
C223 C231 1.433 . S
C224 H220 0.929 . S
C224 C226 1.378 . S
C224 C228 1.350 . S
C225 C228 1.463 . S
C225 C230 1.350 . S
C225 N233 1.427 . S
C226 H217 0.930 . S
C226 C224 1.378 . S
C226 C227 1.367 . S
C227 C226 1.367 . S
C227 C229 1.433 . S
C228 C224 1.350 . S
C228 C225 1.463 . S
C228 N232 1.427 . S
C229 H219 0.929 . S
C229 C227 1.433 . S
C229 N232 1.384 . S
C230 H221 0.929 . S
C230 C222 1.378 . S
C230 C225 1.350 . S
C231 H218 0.929 . S
C231 C223 1.433 . S
C231 N233 1.384 . S
N232 C228 1.427 . S
N232 C229 1.384 . S
N233 C225 1.427 . S
N233 C231 1.384 . S
H234 C240 0.930 . S
H235 C244 0.930 . S
H236 C249 0.929 . S
H237 C247 0.929 . S
H238 C242 0.929 . S
H239 C248 0.929 . S
C240 H234 0.930 . S
C240 C241 1.367 . S
C240 C248 1.378 . S
C241 C240 1.367 . S
C241 C249 1.433 . S
C242 H238 0.929 . S
C242 C244 1.378 . S
C242 C246 1.350 . S
C243 C246 1.463 . S
C243 C248 1.350 . S
C243 N251 1.427 . S
C244 H235 0.930 . S
C244 C242 1.378 . S
C244 C245 1.367 . S
C245 C244 1.367 . S
C245 C247 1.433 . S
C246 C242 1.350 . S
C246 C243 1.463 . S
C246 N250 1.427 . S
C247 H237 0.929 . S
C247 C245 1.433 . S
C247 N250 1.384 . S
C248 H239 0.929 . S
C248 C240 1.378 . S
C248 C243 1.350 . S
C249 H236 0.929 . S
C249 C241 1.433 . S
C249 N251 1.384 . S
N250 C246 1.427 . S
N250 C247 1.384 . S
N251 C243 1.427 . S
N251 C249 1.384 . S
H252 C258 0.930 1_554 S
H253 C262 0.930 . S
H254 C267 0.929 1_554 S
H255 C265 0.929 . S
H256 C260 0.929 . S
H257 C266 0.929 . S
C258 H252 0.930 1_556 S
C258 C259 1.367 1_546 S
C258 C266 1.378 . S
C259 C258 1.367 1_564 S
C259 C267 1.433 1_554 S
C260 H256 0.929 . S
C260 C262 1.378 . S
C260 C264 1.350 . S
C261 C264 1.463 . S
C261 C266 1.350 1_565 S
C261 N269 1.427 . S
C262 H253 0.930 . S
C262 C260 1.378 . S
C262 C263 1.367 1_565 S
C263 C262 1.367 1_545 S
C263 C265 1.433 . S
C264 C260 1.350 . S
C264 C261 1.463 . S
C264 N268 1.427 1_565 S
C265 H255 0.929 . S
C265 C263 1.433 . S
C265 N268 1.384 . S
C266 H257 0.929 . S
C266 C258 1.378 . S
C266 C261 1.350 1_545 S
C267 H254 0.929 1_556 S
C267 C259 1.433 1_556 S
C267 N269 1.384 . S
N268 C264 1.427 1_545 S
N268 C265 1.384 . S
N269 C261 1.427 . S
N269 C267 1.384 . S
H270 C276 0.930 . S
H271 C280 0.930 . S
H272 C285 0.929 . S
H273 C283 0.929 . S
H274 C278 0.929 . S
H275 C284 0.929 . S
C276 H270 0.930 . S
C276 C277 1.367 1_556 S
C276 C284 1.378 . S
C277 C276 1.367 1_554 S
C277 C285 1.433 . S
C278 H274 0.929 . S
C278 C280 1.378 . S
C278 C282 1.350 . S
C279 C282 1.463 . S
C279 C284 1.350 . S
C279 N287 1.427 1_556 S
C280 H271 0.930 . S
C280 C278 1.378 . S
C280 C281 1.367 . S
C281 C280 1.367 . S
C281 C283 1.433 . S
C282 C278 1.350 . S
C282 C279 1.463 . S
C282 N286 1.427 . S
C283 H273 0.929 . S
C283 C281 1.433 . S
C283 N286 1.384 . S
C284 H275 0.929 . S
C284 C276 1.378 . S
C284 C279 1.350 . S
C285 H272 0.929 . S
C285 C277 1.433 . S
C285 N287 1.384 . S
N286 C282 1.427 . S
N286 C283 1.384 . S
N287 C279 1.427 1_554 S
N287 C285 1.384 . S
H288 C294 0.930 . S
H289 C298 0.930 . S
H290 C303 0.929 . S
H291 C301 0.929 . S
H292 C296 0.929 . S
H293 C302 0.929 . S
C294 H288 0.930 . S
C294 C295 1.367 1_556 S
C294 C302 1.378 . S
C295 C294 1.367 1_554 S
C295 C303 1.433 . S
C296 H292 0.929 . S
C296 C298 1.378 . S
C296 C300 1.350 . S
C297 C300 1.463 . S
C297 C302 1.350 . S
C297 N305 1.427 . S
C298 H289 0.930 . S
C298 C296 1.378 . S
C298 C299 1.367 . S
C299 C298 1.367 . S
C299 C301 1.433 . S
C300 C296 1.350 . S
C300 C297 1.463 . S
C300 N304 1.427 . S
C301 H291 0.929 . S
C301 C299 1.433 . S
C301 N304 1.384 . S
C302 H293 0.929 . S
C302 C294 1.378 . S
C302 C297 1.350 . S
C303 H290 0.929 . S
C303 C295 1.433 . S
C303 N305 1.384 1_554 S
N304 C300 1.427 . S
N304 C301 1.384 . S
N305 C297 1.427 . S
N305 C303 1.384 1_556 S
H306 C312 0.919 1_455 S
H307 C316 0.930 . S
H308 C321 0.929 . S
H309 C319 0.929 . S
H310 C314 0.929 . S
H311 C320 0.929 . S
C312 H306 0.919 1_655 S
C312 C313 1.383 1_556 S
C312 C320 1.374 1_655 S
C313 C312 1.383 1_554 S
C313 C321 1.433 . S
C314 H310 0.929 . S
C314 C316 1.378 . S
C314 C318 1.350 . S
C315 C318 1.463 . S
C315 C320 1.350 1_655 S
C315 N323 1.427 . S
C316 H307 0.930 . S
C316 C314 1.378 . S
C316 C317 1.367 1_655 S
C317 C316 1.367 1_455 S
C317 C319 1.433 . S
C318 C314 1.350 . S
C318 C315 1.463 . S
C318 N322 1.427 1_655 S
C319 H309 0.929 . S
C319 C317 1.433 . S
C319 N322 1.384 . S
C320 H311 0.929 . S
C320 C312 1.374 1_455 S
C320 C315 1.350 1_455 S
C321 H308 0.929 . S
C321 C313 1.433 . S
C321 N323 1.384 1_554 S
N322 C318 1.427 1_455 S
N322 C319 1.384 . S
N323 C315 1.427 . S
N323 C321 1.384 1_556 S
H324 C330 0.930 . S
H325 C334 0.930 . S
H326 C339 0.929 . S
H327 C337 0.929 . S
H328 C332 0.929 . S
H329 C338 0.929 . S
C330 H324 0.930 . S
C330 C331 1.367 . S
C330 C338 1.378 . S
C331 C330 1.367 . S
C331 C339 1.433 . S
C332 H328 0.929 . S
C332 C334 1.378 . S
C332 C336 1.350 . S
C333 C336 1.463 . S
C333 C338 1.350 . S
C333 N341 1.427 . S
C334 H325 0.930 . S
C334 C332 1.378 . S
C334 C335 1.367 . S
C335 C334 1.367 . S
C335 C337 1.433 1_455 S
C336 C332 1.350 . S
C336 C333 1.463 . S
C336 N340 1.427 . S
C337 H327 0.929 . S
C337 C335 1.433 1_655 S
C337 N340 1.384 1_655 S
C338 H329 0.929 . S
C338 C330 1.378 . S
C338 C333 1.350 . S
C339 H326 0.929 . S
C339 C331 1.433 . S
C339 N341 1.384 . S
N340 C336 1.427 . S
N340 C337 1.384 1_455 S
N341 C333 1.427 . S
N341 C339 1.384 . S
H342 C348 0.930 . S
H343 C352 0.930 . S
H344 C357 0.929 . S
H345 C355 0.929 . S
H346 C350 0.929 . S
H347 C356 0.929 . S
C348 H342 0.930 . S
C348 C349 1.367 . S
C348 C356 1.378 . S
C349 C348 1.367 . S
C349 C357 1.433 . S
C350 H346 0.929 . S
C350 C352 1.378 . S
C350 C354 1.350 . S
C351 C354 1.463 . S
C351 C356 1.350 . S
C351 N359 1.427 . S
C352 H343 0.930 . S
C352 C350 1.378 . S
C352 C353 1.367 . S
C353 C352 1.367 . S
C353 C355 1.433 1_545 S
C354 C350 1.350 . S
C354 C351 1.463 . S
C354 N358 1.427 . S
C355 H345 0.929 . S
C355 C353 1.433 1_565 S
C355 N358 1.384 1_565 S
C356 H347 0.929 . S
C356 C348 1.378 . S
C356 C351 1.350 . S
C357 H344 0.929 . S
C357 C349 1.433 . S
C357 N359 1.384 . S
N358 C354 1.427 . S
N358 C355 1.384 1_545 S
N359 C351 1.427 . S
N359 C357 1.384 . S
H360 C366 0.930 . S
H361 C370 0.930 . S
H362 C375 0.929 . S
H363 C373 0.929 . S
H364 C368 0.929 . S
H365 C374 0.929 . S
C366 H360 0.930 . S
C366 C367 1.367 . S
C366 C374 1.378 . S
C367 C366 1.367 . S
C367 C375 1.433 . S
C368 H364 0.929 . S
C368 C370 1.378 . S
C368 C372 1.350 . S
C369 C372 1.463 . S
C369 C374 1.350 . S
C369 N377 1.427 . S
C370 H361 0.930 . S
C370 C368 1.378 . S
C370 C371 1.367 . S
C371 C370 1.367 . S
C371 C373 1.433 . S
C372 C368 1.350 . S
C372 C369 1.463 . S
C372 N376 1.427 . S
C373 H363 0.929 . S
C373 C371 1.433 . S
C373 N376 1.384 . S
C374 H365 0.929 . S
C374 C366 1.378 . S
C374 C369 1.350 . S
C375 H362 0.929 . S
C375 C367 1.433 . S
C375 N377 1.384 . S
N376 C372 1.427 . S
N376 C373 1.384 . S
N377 C369 1.427 . S
N377 C375 1.384 . S
H378 C384 0.930 . S
H379 C388 0.930 . S
H380 C393 0.929 . S
H381 C391 0.929 . S
H382 C386 0.929 . S
H383 C392 0.929 . S
C384 H378 0.930 . S
C384 C385 1.367 . S
C384 C392 1.378 . S
C385 C384 1.367 . S
C385 C393 1.433 . S
C386 H382 0.929 . S
C386 C388 1.378 . S
C386 C390 1.350 . S
C387 C390 1.463 . S
C387 C392 1.350 . S
C387 N395 1.427 . S
C388 H379 0.930 . S
C388 C386 1.378 . S
C388 C389 1.367 . S
C389 C388 1.367 . S
C389 C391 1.433 . S
C390 C386 1.350 . S
C390 C387 1.463 . S
C390 N394 1.427 . S
C391 H381 0.929 . S
C391 C389 1.433 . S
C391 N394 1.384 . S
C392 H383 0.929 . S
C392 C384 1.378 . S
C392 C387 1.350 . S
C393 H380 0.929 . S
C393 C385 1.433 . S
C393 N395 1.384 . S
N394 C390 1.427 . S
N394 C391 1.384 . S
N395 C387 1.427 . S
N395 C393 1.384 . S
H396 C402 0.930 . S
H397 C406 0.930 . S
H398 C411 0.929 . S
H399 C409 0.929 . S
H400 C404 0.929 1_655 S
H401 C410 0.929 . S
C402 H396 0.930 . S
C402 C403 1.367 . S
C402 C410 1.378 . S
C403 C402 1.367 . S
C403 C411 1.433 1_554 S
C404 H400 0.929 1_455 S
C404 C406 1.378 . S
C404 C408 1.352 . S
C405 C408 1.456 1_655 S
C405 C410 1.350 1_556 S
C405 N413 1.427 . S
C406 H397 0.930 . S
C406 C404 1.378 . S
C406 C407 1.367 . S
C407 C406 1.367 . S
C407 C409 1.433 . S
C408 C404 1.352 . S
C408 C405 1.456 1_455 S
C408 N412 1.433 . S
C409 H399 0.929 . S
C409 C407 1.433 . S
C409 N412 1.384 . S
C410 H401 0.929 . S
C410 C402 1.378 . S
C410 C405 1.350 1_554 S
C411 H398 0.929 . S
C411 C403 1.433 1_556 S
C411 N413 1.384 . S
N412 C408 1.433 . S
N412 C409 1.384 . S
N413 C405 1.427 . S
N413 C411 1.384 . S
H414 C420 0.930 . S
H415 C424 0.930 . S
H416 C429 0.929 . S
H417 C427 0.929 . S
H418 C422 0.929 . S
H419 C428 0.929 . S
C420 H414 0.930 . S
C420 C421 1.367 . S
C420 C428 1.378 . S
C421 C420 1.367 . S
C421 C429 1.433 1_554 S
C422 H418 0.929 . S
C422 C424 1.378 . S
C422 C426 1.350 1_545 S
C423 C426 1.463 . S
C423 C428 1.350 1_556 S
C423 N431 1.427 . S
C424 H415 0.930 . S
C424 C422 1.378 . S
C424 C425 1.367 . S
C425 C424 1.367 . S
C425 C427 1.433 1_545 S
C426 C422 1.350 1_565 S
C426 C423 1.463 . S
C426 N430 1.427 . S
C427 H417 0.929 . S
C427 C425 1.433 1_565 S
C427 N430 1.384 . S
C428 H419 0.929 . S
C428 C420 1.378 . S
C428 C423 1.350 1_554 S
C429 H416 0.929 . S
C429 C421 1.433 1_556 S
C429 N431 1.384 . S
N430 C426 1.427 . S
N430 C427 1.384 . S
N431 C423 1.427 . S
N431 C429 1.384 . S
H432 C438 0.930 . S
H433 C442 0.930 . S
H434 C447 0.929 . S
H435 C445 0.929 . S
H436 C440 0.929 . S
H437 C446 0.929 . S
C438 H432 0.930 . S
C438 C439 1.367 . S
C438 C446 1.378 . S
C439 C438 1.367 . S
C439 C447 1.433 1_554 S
C440 H436 0.929 . S
C440 C442 1.378 . S
C440 C444 1.350 . S
C441 C444 1.463 . S
C441 C446 1.350 1_556 S
C441 N449 1.427 . S
C442 H433 0.930 . S
C442 C440 1.378 . S
C442 C443 1.367 . S
C443 C442 1.367 . S
C443 C445 1.433 . S
C444 C440 1.350 . S
C444 C441 1.463 . S
C444 N448 1.427 . S
C445 H435 0.929 . S
C445 C443 1.433 . S
C445 N448 1.384 . S
C446 H437 0.929 . S
C446 C438 1.378 . S
C446 C441 1.350 1_554 S
C447 H434 0.929 . S
C447 C439 1.433 1_556 S
C447 N449 1.384 . S
N448 C444 1.427 . S
N448 C445 1.384 . S
N449 C441 1.427 . S
N449 C447 1.384 . S
H450 C456 0.930 . S
H451 C460 0.930 . S
H452 C465 0.929 . S
H453 C463 0.929 . S
H454 C458 0.929 . S
H455 C464 0.929 . S
C456 H450 0.930 . S
C456 C457 1.367 1_556 S
C456 C464 1.378 . S
C457 C456 1.367 1_554 S
C457 C465 1.433 . S
C458 H454 0.929 . S
C458 C460 1.378 . S
C458 C462 1.350 . S
C459 C462 1.463 . S
C459 C464 1.350 . S
C459 N467 1.427 . S
C460 H451 0.930 . S
C460 C458 1.378 . S
C460 C461 1.367 . S
C461 C460 1.367 . S
C461 C463 1.433 . S
C462 C458 1.350 . S
C462 C459 1.463 . S
C462 N466 1.427 . S
C463 H453 0.929 . S
C463 C461 1.433 . S
C463 N466 1.384 . S
C464 H455 0.929 . S
C464 C456 1.378 . S
C464 C459 1.350 . S
C465 H452 0.929 . S
C465 C457 1.433 . S
C465 N467 1.384 1_554 S
N466 C462 1.427 . S
N466 C463 1.384 . S
N467 C459 1.427 . S
N467 C465 1.384 1_556 S
H468 C474 0.930 . S
H469 C478 0.930 . S
H470 C483 0.929 . S
H471 C481 0.929 . S
H472 C476 0.929 . S
H473 C482 0.931 . S
C474 H468 0.930 . S
C474 C475 1.367 . S
C474 C482 1.378 . S
C475 C474 1.367 . S
C475 C483 1.433 . S
C476 H472 0.929 . S
C476 C478 1.378 1_554 S
C476 C480 1.350 . S
C477 C480 1.463 . S
C477 C482 1.350 . S
C477 N485 1.427 . S
C478 H469 0.930 . S
C478 C476 1.378 1_556 S
C478 C479 1.367 . S
C479 C478 1.367 . S
C479 C481 1.433 . S
C480 C476 1.350 . S
C480 C477 1.463 . S
C480 N484 1.427 1_554 S
C481 H471 0.929 . S
C481 C479 1.433 . S
C481 N484 1.384 . S
C482 H473 0.931 . S
C482 C474 1.378 . S
C482 C477 1.350 . S
C483 H470 0.929 . S
C483 C475 1.433 . S
C483 N485 1.384 . S
N484 C480 1.427 1_556 S
N484 C481 1.384 . S
N485 C477 1.427 . S
N485 C483 1.384 . S
H486 C492 0.930 . S
H487 C496 0.930 . S
H488 C501 0.929 . S
H489 C499 0.935 . S
H490 C494 0.929 . S
H491 C500 0.929 . S
C492 H486 0.930 . S
C492 C493 1.367 . S
C492 C500 1.378 . S
C493 C492 1.367 . S
C493 C501 1.433 . S
C494 H490 0.929 . S
C494 C496 1.378 . S
C494 C498 1.350 1_556 S
C495 C498 1.463 . S
C495 C500 1.350 . S
C495 N503 1.427 . S
C496 H487 0.930 . S
C496 C494 1.378 . S
C496 C497 1.367 . S
C497 C496 1.367 . S
C497 C499 1.433 . S
C498 C494 1.350 1_554 S
C498 C495 1.463 . S
C498 N502 1.427 . S
C499 H489 0.935 . S
C499 C497 1.433 . S
C499 N502 1.384 1_556 S
C500 H491 0.929 . S
C500 C492 1.378 . S
C500 C495 1.350 . S
C501 H488 0.929 . S
C501 C493 1.433 . S
C501 N503 1.384 . S
N502 C498 1.427 . S
N502 C499 1.384 1_554 S
N503 C495 1.427 . S
N503 C501 1.384 . S
H504 C510 0.930 . S
H505 C514 0.930 . S
H506 C519 0.929 . S
H507 C517 0.929 . S
H508 C512 0.929 . S
H509 C518 0.929 . S
C510 H504 0.930 . S
C510 C511 1.367 . S
C510 C518 1.378 . S
C511 C510 1.367 . S
C511 C519 1.433 . S
C512 H508 0.929 . S
C512 C514 1.378 1_554 S
C512 C516 1.350 . S
C513 C516 1.463 . S
C513 C518 1.350 . S
C513 N521 1.427 . S
C514 H505 0.930 . S
C514 C512 1.378 1_556 S
C514 C515 1.367 . S
C515 C514 1.367 . S
C515 C517 1.433 . S
C516 C512 1.350 . S
C516 C513 1.463 . S
C516 N520 1.427 1_554 S
C517 H507 0.929 . S
C517 C515 1.433 . S
C517 N520 1.384 . S
C518 H509 0.929 . S
C518 C510 1.378 . S
C518 C513 1.350 . S
C519 H506 0.929 . S
C519 C511 1.433 . S
C519 N521 1.384 . S
N520 C516 1.427 1_556 S
N520 C517 1.384 . S
N521 C513 1.427 . S
N521 C519 1.384 . S
H522 C528 0.930 . S
H523 C532 0.930 . S
H524 C537 0.929 . S
H525 C535 0.929 . S
H526 C530 0.929 1_554 S
H527 C536 0.929 . S
C528 H522 0.930 . S
C528 C529 1.367 . S
C528 C536 1.378 . S
C529 C528 1.367 . S
C529 C537 1.433 . S
C530 H526 0.929 1_556 S
C530 C532 1.378 . S
C530 C534 1.350 1_556 S
C531 C534 1.463 . S
C531 C536 1.350 . S
C531 N539 1.427 . S
C532 H523 0.930 . S
C532 C530 1.378 . S
C532 C533 1.367 . S
C533 C532 1.367 . S
C533 C535 1.433 . S
C534 C530 1.350 1_554 S
C534 C531 1.463 . S
C534 N538 1.427 1_554 S
C535 H525 0.929 . S
C535 C533 1.433 . S
C535 N538 1.384 . S
C536 H527 0.929 . S
C536 C528 1.378 . S
C536 C531 1.350 . S
C537 H524 0.929 . S
C537 C529 1.433 . S
C537 N539 1.384 . S
N538 C534 1.427 1_556 S
N538 C535 1.384 . S
N539 C531 1.427 . S
N539 C537 1.384 . S
H540 C546 0.930 . S
H541 C550 0.944 . S
H542 C555 0.929 . S
H543 C553 0.929 . S
H544 C548 0.929 1_455 S
H545 C554 0.929 . S
C546 H540 0.930 . S
C546 C547 1.367 . S
C546 C554 1.378 . S
C547 C546 1.367 . S
C547 C555 1.433 . S
C548 H544 0.929 1_655 S
C548 C550 1.374 1_655 S
C548 C552 1.350 . S
C549 C552 1.463 . S
C549 C554 1.350 . S
C549 N557 1.427 . S
C550 H541 0.944 . S
C550 C548 1.374 1_455 S
C550 C551 1.358 1_455 S
C551 C550 1.358 1_655 S
C551 C553 1.433 . S
C552 C548 1.350 . S
C552 C549 1.463 . S
C552 N556 1.427 . S
C553 H543 0.929 . S
C553 C551 1.433 . S
C553 N556 1.384 . S
C554 H545 0.929 . S
C554 C546 1.378 . S
C554 C549 1.350 . S
C555 H542 0.929 . S
C555 C547 1.433 . S
C555 N557 1.384 . S
N556 C552 1.427 . S
N556 C553 1.384 . S
N557 C549 1.427 . S
N557 C555 1.384 . S
H558 C564 0.953 . S
H559 C568 0.930 . S
H560 C573 0.929 . S
H561 C571 0.929 . S
H562 C566 0.929 . S
H563 C572 0.929 . S
C564 H558 0.953 . S
C564 C565 1.341 1_545 S
C564 C572 1.381 . S
C565 C564 1.341 1_565 S
C565 C573 1.433 . S
C566 H562 0.929 . S
C566 C568 1.378 . S
C566 C570 1.350 . S
C567 C570 1.463 . S
C567 C572 1.350 1_565 S
C567 N575 1.427 . S
C568 H559 0.930 . S
C568 C566 1.378 . S
C568 C569 1.367 . S
C569 C568 1.367 . S
C569 C571 1.433 1_565 S
C570 C566 1.350 . S
C570 C567 1.463 . S
C570 N574 1.427 1_565 S
C571 H561 0.929 . S
C571 C569 1.433 1_545 S
C571 N574 1.384 . S
C572 H563 0.929 . S
C572 C564 1.381 . S
C572 C567 1.350 1_545 S
C573 H560 0.929 . S
C573 C565 1.433 . S
C573 N575 1.384 . S
N574 C570 1.427 1_545 S
N574 C571 1.384 . S
N575 C567 1.427 . S
N575 C573 1.384 . S
H576 C582 0.930 . S
H577 C586 0.930 . S
H578 C591 0.929 . S
H579 C589 0.929 . S
H580 C584 0.929 . S
H581 C590 0.929 . S
C582 H576 0.930 . S
C582 C583 1.367 . S
C582 C590 1.378 . S
C583 C582 1.367 . S
C583 C591 1.433 . S
C584 H580 0.929 . S
C584 C586 1.378 . S
C584 C588 1.350 . S
C585 C588 1.463 . S
C585 C590 1.350 . S
C585 N593 1.427 . S
C586 H577 0.930 . S
C586 C584 1.378 . S
C586 C587 1.367 . S
C587 C586 1.367 . S
C587 C589 1.433 . S
C588 C584 1.350 . S
C588 C585 1.463 . S
C588 N592 1.427 . S
C589 H579 0.929 . S
C589 C587 1.433 . S
C589 N592 1.384 . S
C590 H581 0.929 . S
C590 C582 1.378 . S
C590 C585 1.350 . S
C591 H578 0.929 . S
C591 C583 1.433 . S
C591 N593 1.384 . S
N592 C588 1.427 . S
N592 C589 1.384 . S
N593 C585 1.427 . S
N593 C591 1.384 . S
H594 C600 0.930 . S
H595 C604 0.930 . S
H596 C609 0.929 . S
H597 C607 0.929 . S
H598 C602 0.929 . S
H599 C608 0.929 . S
C600 H594 0.930 . S
C600 C601 1.367 . S
C600 C608 1.378 . S
C601 C600 1.367 . S
C601 C609 1.433 . S
C602 H598 0.929 . S
C602 C604 1.378 . S
C602 C606 1.350 . S
C603 C606 1.463 . S
C603 C608 1.350 . S
C603 N611 1.427 . S
C604 H595 0.930 . S
C604 C602 1.378 . S
C604 C605 1.367 . S
C605 C604 1.367 . S
C605 C607 1.433 . S
C606 C602 1.350 . S
C606 C603 1.463 . S
C606 N610 1.427 . S
C607 H597 0.929 . S
C607 C605 1.433 . S
C607 N610 1.384 . S
C608 H599 0.929 . S
C608 C600 1.378 . S
C608 C603 1.350 . S
C609 H596 0.929 . S
C609 C601 1.433 . S
C609 N611 1.384 . S
N610 C606 1.427 . S
N610 C607 1.384 . S
N611 C603 1.427 . S
N611 C609 1.384 . S
C187 C76 1.577 . S
C191 C112 1.444 . S
C209 C130 1.448 . S
C205 C88 1.574 . S
C227 C151 1.442 . S
C223 C52 1.562 . S
C245 C175 1.437 . S
C241 C64 1.563 . S
C263 C109 1.369 . S
C259 C28 1.491 . S
C277 C40 1.486 . S
C281 C133 1.356 . S
C295 C4 1.493 . S
C299 C154 1.344 . S
C313 C16 1.487 . S
C317 C172 1.362 . S
C335 C114 0.651 . S
C331 C69 0.649 . S
C353 C132 0.653 . S
C349 C81 0.651 . S
C371 C153 0.654 . S
C367 C93 0.662 . S
C385 C57 0.662 . S
C389 C177 0.653 . S
C403 C21 0.713 . S
C407 C113 0.715 . S
C425 C131 0.714 . S
C421 C33 0.720 . S
C443 C152 0.715 . S
C439 C45 0.712 . S
C457 C9 0.741 . S
C461 C176 0.725 . S
C475 C66 1.604 . S
C479 C110 1.557 . S
C493 C78 1.597 . S
C497 C134 1.569 . S
C515 C155 1.556 . S
C511 C90 1.603 . S
C533 C173 1.555 . S
C529 C54 1.602 . S
C547 C18 1.456 . S
C551 C111 1.422 1_655 S
C569 C135 1.439 1_565 S
C565 C30 1.462 . S
C587 C156 1.426 . S
C583 C42 1.455 . S
C601 C6 1.469 . S
C605 C174 1.426 . S
