# Generated by pormake.
# Topology eea, (3,6)-cn, num edge types: 1
# Building blocks:
#     Node 0, Type 0, BuildingBlock: CUQRIR_clean_linker_1, # of connection points: 3
#     Node 1, Type 0, BuildingBlock: CUQRIR_clean_linker_1, # of connection points: 3
#     Node 2, Type 0, BuildingBlock: CUQRIR_clean_linker_1, # of connection points: 3
#     Node 3, Type 0, BuildingBlock: CUQRIR_clean_linker_1, # of connection points: 3
#     Node 4, Type 0, BuildingBlock: CUQRIR_clean_linker_1, # of connection points: 3
#     Node 5, Type 0, BuildingBlock: CUQRIR_clean_linker_1, # of connection points: 3
#     Node 6, Type 0, BuildingBlock: CUQRIR_clean_linker_1, # of connection points: 3
#     Node 7, Type 0, BuildingBlock: CUQRIR_clean_linker_1, # of connection points: 3
#     Node 8, Type 0, BuildingBlock: CUQRIR_clean_linker_1, # of connection points: 3
#     Node 9, Type 0, BuildingBlock: CUQRIR_clean_linker_1, # of connection points: 3
#     Node 10, Type 0, BuildingBlock: CUQRIR_clean_linker_1, # of connection points: 3
#     Node 11, Type 0, BuildingBlock: CUQRIR_clean_linker_1, # of connection points: 3
#     Node 12, Type 0, BuildingBlock: CUQRIR_clean_linker_1, # of connection points: 3
#     Node 13, Type 0, BuildingBlock: CUQRIR_clean_linker_1, # of connection points: 3
#     Node 14, Type 0, BuildingBlock: CUQRIR_clean_linker_1, # of connection points: 3
#     Node 15, Type 0, BuildingBlock: CUQRIR_clean_linker_1, # of connection points: 3
#     Node 16, Type 0, BuildingBlock: CUQRIR_clean_linker_1, # of connection points: 3
#     Node 17, Type 0, BuildingBlock: CUQRIR_clean_linker_1, # of connection points: 3
#     Node 18, Type 1, BuildingBlock: CUKXOW_clean_sbu_0, # of connection points: 6
#     Node 19, Type 1, BuildingBlock: CUKXOW_clean_sbu_0, # of connection points: 6
#     Node 20, Type 1, BuildingBlock: CUKXOW_clean_sbu_0, # of connection points: 6
#     Node 21, Type 1, BuildingBlock: CUKXOW_clean_sbu_0, # of connection points: 6
#     Node 22, Type 1, BuildingBlock: CUKXOW_clean_sbu_0, # of connection points: 6
#     Node 23, Type 1, BuildingBlock: CUKXOW_clean_sbu_0, # of connection points: 6
#     Node 24, Type 1, BuildingBlock: CUKXOW_clean_sbu_0, # of connection points: 6
#     Node 25, Type 1, BuildingBlock: CUKXOW_clean_sbu_0, # of connection points: 6
#     Node 26, Type 1, BuildingBlock: CUKXOW_clean_sbu_0, # of connection points: 6
#     Edge 27, Type (0, 1), BuildingBlock: EZIPEK_clean_linker_0, # of connection points: 2
#     Edge 28, Type (0, 1), BuildingBlock: EZIPEK_clean_linker_0, # of connection points: 2
#     Edge 29, Type (0, 1), BuildingBlock: EZIPEK_clean_linker_0, # of connection points: 2
#     Edge 30, Type (0, 1), BuildingBlock: EZIPEK_clean_linker_0, # of connection points: 2
#     Edge 31, Type (0, 1), BuildingBlock: EZIPEK_clean_linker_0, # of connection points: 2
#     Edge 32, Type (0, 1), BuildingBlock: EZIPEK_clean_linker_0, # of connection points: 2
#     Edge 33, Type (0, 1), BuildingBlock: EZIPEK_clean_linker_0, # of connection points: 2
#     Edge 34, Type (0, 1), BuildingBlock: EZIPEK_clean_linker_0, # of connection points: 2
#     Edge 35, Type (0, 1), BuildingBlock: EZIPEK_clean_linker_0, # of connection points: 2
#     Edge 36, Type (0, 1), BuildingBlock: EZIPEK_clean_linker_0, # of connection points: 2
#     Edge 37, Type (0, 1), BuildingBlock: EZIPEK_clean_linker_0, # of connection points: 2
#     Edge 38, Type (0, 1), BuildingBlock: EZIPEK_clean_linker_0, # of connection points: 2
#     Edge 39, Type (0, 1), BuildingBlock: EZIPEK_clean_linker_0, # of connection points: 2
#     Edge 40, Type (0, 1), BuildingBlock: EZIPEK_clean_linker_0, # of connection points: 2
#     Edge 41, Type (0, 1), BuildingBlock: EZIPEK_clean_linker_0, # of connection points: 2
#     Edge 42, Type (0, 1), BuildingBlock: EZIPEK_clean_linker_0, # of connection points: 2
#     Edge 43, Type (0, 1), BuildingBlock: EZIPEK_clean_linker_0, # of connection points: 2
#     Edge 44, Type (0, 1), BuildingBlock: EZIPEK_clean_linker_0, # of connection points: 2
#     Edge 45, Type (0, 1), BuildingBlock: EZIPEK_clean_linker_0, # of connection points: 2
#     Edge 46, Type (0, 1), BuildingBlock: EZIPEK_clean_linker_0, # of connection points: 2
#     Edge 47, Type (0, 1), BuildingBlock: EZIPEK_clean_linker_0, # of connection points: 2
#     Edge 48, Type (0, 1), BuildingBlock: EZIPEK_clean_linker_0, # of connection points: 2
#     Edge 49, Type (0, 1), BuildingBlock: EZIPEK_clean_linker_0, # of connection points: 2
#     Edge 50, Type (0, 1), BuildingBlock: EZIPEK_clean_linker_0, # of connection points: 2
#     Edge 51, Type (0, 1), BuildingBlock: EZIPEK_clean_linker_0, # of connection points: 2
#     Edge 52, Type (0, 1), BuildingBlock: EZIPEK_clean_linker_0, # of connection points: 2
#     Edge 53, Type (0, 1), BuildingBlock: EZIPEK_clean_linker_0, # of connection points: 2
#     Edge 54, Type (0, 1), BuildingBlock: EZIPEK_clean_linker_0, # of connection points: 2
#     Edge 55, Type (0, 1), BuildingBlock: EZIPEK_clean_linker_0, # of connection points: 2
#     Edge 56, Type (0, 1), BuildingBlock: EZIPEK_clean_linker_0, # of connection points: 2
#     Edge 57, Type (0, 1), BuildingBlock: EZIPEK_clean_linker_0, # of connection points: 2
#     Edge 58, Type (0, 1), BuildingBlock: EZIPEK_clean_linker_0, # of connection points: 2
#     Edge 59, Type (0, 1), BuildingBlock: EZIPEK_clean_linker_0, # of connection points: 2
#     Edge 60, Type (0, 1), BuildingBlock: EZIPEK_clean_linker_0, # of connection points: 2
#     Edge 61, Type (0, 1), BuildingBlock: EZIPEK_clean_linker_0, # of connection points: 2
#     Edge 62, Type (0, 1), BuildingBlock: EZIPEK_clean_linker_0, # of connection points: 2
#     Edge 63, Type (0, 1), BuildingBlock: EZIPEK_clean_linker_0, # of connection points: 2
#     Edge 64, Type (0, 1), BuildingBlock: EZIPEK_clean_linker_0, # of connection points: 2
#     Edge 65, Type (0, 1), BuildingBlock: EZIPEK_clean_linker_0, # of connection points: 2
#     Edge 66, Type (0, 1), BuildingBlock: EZIPEK_clean_linker_0, # of connection points: 2
#     Edge 67, Type (0, 1), BuildingBlock: EZIPEK_clean_linker_0, # of connection points: 2
#     Edge 68, Type (0, 1), BuildingBlock: EZIPEK_clean_linker_0, # of connection points: 2
#     Edge 69, Type (0, 1), BuildingBlock: EZIPEK_clean_linker_0, # of connection points: 2
#     Edge 70, Type (0, 1), BuildingBlock: EZIPEK_clean_linker_0, # of connection points: 2
#     Edge 71, Type (0, 1), BuildingBlock: EZIPEK_clean_linker_0, # of connection points: 2
#     Edge 72, Type (0, 1), BuildingBlock: EZIPEK_clean_linker_0, # of connection points: 2
#     Edge 73, Type (0, 1), BuildingBlock: EZIPEK_clean_linker_0, # of connection points: 2
#     Edge 74, Type (0, 1), BuildingBlock: EZIPEK_clean_linker_0, # of connection points: 2
#     Edge 75, Type (0, 1), BuildingBlock: EZIPEK_clean_linker_0, # of connection points: 2
#     Edge 76, Type (0, 1), BuildingBlock: EZIPEK_clean_linker_0, # of connection points: 2
#     Edge 77, Type (0, 1), BuildingBlock: EZIPEK_clean_linker_0, # of connection points: 2
#     Edge 78, Type (0, 1), BuildingBlock: EZIPEK_clean_linker_0, # of connection points: 2
#     Edge 79, Type (0, 1), BuildingBlock: EZIPEK_clean_linker_0, # of connection points: 2
#     Edge 80, Type (0, 1), BuildingBlock: EZIPEK_clean_linker_0, # of connection points: 2
# Relax obj value: 0.072
# Max RMSD: 0.219
# Mean RMSD: 0.146
data_MOF--net-eea--node1-CUKXOW_clean_sbu_0--node2-CUQRIR_clean_linker_1--edge1-EZIPEK_clean_linker_0
_symmetry_space_group_name_H-M    P1
_symmetry_Int_Tables_number       1
_symmetry_cell_setting            triclinic
loop_
_symmetry_equiv_pos_as_xyz
'x, y, z'
_cell_length_a     39.122536
_cell_length_b     36.33394
_cell_length_c     32.296582
_cell_angle_alpha  86.718301
_cell_angle_beta   93.322924
_cell_angle_gamma 119.14431
loop_
_atom_site_label
_atom_site_type_symbol
_atom_site_fract_x
_atom_site_fract_y
_atom_site_fract_z
_atom_type_partial_charge
C0 C 0.21746 0.11699 0.41662 0.0
N1 N 0.23535 0.1505 0.44196 0.0
N2 N 0.22626 0.08626 0.42923 0.0
C3 C 0.19231 0.11472 0.37868 0.0
C4 C 0.25021 0.10212 0.46312 0.0
N5 N 0.2554 0.14086 0.47151 0.0
C6 C 0.26754 0.07891 0.48912 0.0
H7 H 0.17813 0.13442 0.38179 0.0
H8 H 0.16946 0.08188 0.37289 0.0
H9 H 0.21087 0.12635 0.35115 0.0
H10 H 0.29473 0.10116 0.50606 0.0
H11 H 0.27447 0.05914 0.47023 0.0
H12 H 0.24589 0.05751 0.51193 0.0
C13 C 0.90098 0.14986 0.41989 0.0
N14 N 0.91555 0.17679 0.45165 0.0
N15 N 0.86203 0.12477 0.42252 0.0
C16 C 0.92545 0.14565 0.38812 0.0
C17 C 0.853 0.13812 0.45635 0.0
N18 N 0.88553 0.16937 0.4752 0.0
C19 C 0.81238 0.11752 0.47296 0.0
H20 H 0.90701 0.12299 0.36409 0.0
H21 H 0.94505 0.13477 0.40393 0.0
H22 H 0.94422 0.17676 0.37284 0.0
H23 H 0.8065 0.08778 0.49012 0.0
H24 H 0.79039 0.10924 0.44691 0.0
H25 H 0.80902 0.13854 0.49403 0.0
C26 C 0.90241 0.77351 0.43928 0.0
N27 N 0.91231 0.7483 0.46347 0.0
N28 N 0.87328 0.77672 0.45591 0.0
C29 C 0.92077 0.79437 0.39876 0.0
C30 C 0.86634 0.75368 0.49179 0.0
N31 N 0.88947 0.73526 0.49647 0.0
C32 C 0.83569 0.74802 0.52155 0.0
H33 H 0.91116 0.81726 0.38691 0.0
H34 H 0.91245 0.7698 0.37553 0.0
H35 H 0.95315 0.81094 0.40262 0.0
H36 H 0.80648 0.7239 0.50978 0.0
H37 H 0.83469 0.7778 0.52382 0.0
H38 H 0.84164 0.73802 0.55302 0.0
C39 C 0.15316 0.30976 0.68358 0.0
N40 N 0.18076 0.31988 0.65501 0.0
N41 N 0.12358 0.31593 0.66769 0.0
C42 C 0.15319 0.29073 0.72624 0.0
C43 C 0.13549 0.33362 0.62965 0.0
N44 N 0.17017 0.33609 0.62159 0.0
C45 C 0.11028 0.34236 0.598 0.0
H46 H 0.13021 0.25711 0.72727 0.0
H47 H 0.14569 0.30698 0.74924 0.0
H48 H 0.18204 0.29327 0.73521 0.0
H49 H 0.12743 0.37421 0.58344 0.0
H50 H 0.08425 0.34033 0.61223 0.0
H51 H 0.10048 0.31916 0.5731 0.0
C52 C 0.80092 0.89453 0.65743 0.0
N53 N 0.78703 0.86785 0.62528 0.0
N54 N 0.78899 0.92378 0.65329 0.0
C55 C 0.82814 0.89352 0.69179 0.0
C56 C 0.76606 0.9132 0.61834 0.0
N57 N 0.76519 0.87975 0.60023 0.0
C58 C 0.74667 0.93794 0.60043 0.0
H59 H 0.83268 0.91581 0.7163 0.0
H60 H 0.85679 0.90206 0.67876 0.0
H61 H 0.81613 0.86118 0.70574 0.0
H62 H 0.76834 0.96608 0.58286 0.0
H63 H 0.73637 0.94922 0.62564 0.0
H64 H 0.72143 0.9186 0.5794 0.0
C65 C 0.14747 0.93815 0.66094 0.0
N66 N 0.13111 0.9076 0.63248 0.0
N67 N 0.18231 0.97 0.64818 0.0
C68 C 0.12954 0.93637 0.70138 0.0
C69 C 0.18674 0.95738 0.61109 0.0
N70 N 0.15599 0.91941 0.60162 0.0
C71 C 0.22179 0.98142 0.58456 0.0
H72 H 0.10487 0.94308 0.6953 0.0
H73 H 0.15117 0.9597 0.72317 0.0
H74 H 0.11745 0.90422 0.71584 0.0
H75 H 0.24339 0.9705 0.59277 0.0
H76 H 0.23589 0.01563 0.58977 0.0
H77 H 0.21331 0.97573 0.55119 0.0
C78 C 0.90161 0.4561 0.74304 0.0
N79 N 0.91413 0.48991 0.76743 0.0
N80 N 0.90034 0.42249 0.76503 0.0
C81 C 0.89071 0.4562 0.69769 0.0
C82 C 0.91293 0.43728 0.80367 0.0
N83 N 0.92179 0.47816 0.80516 0.0
C84 C 0.91734 0.41207 0.84017 0.0
H85 H 0.85996 0.44987 0.69416 0.0
H86 H 0.89337 0.4316 0.68157 0.0
H87 H 0.90964 0.48764 0.68303 0.0
H88 H 0.9483 0.41909 0.8435 0.0
H89 H 0.89839 0.37777 0.83595 0.0
H90 H 0.90981 0.42102 0.8692 0.0
C91 C 0.57704 0.47718 0.76263 0.0
N92 N 0.59011 0.50535 0.79341 0.0
N93 N 0.53767 0.45302 0.76249 0.0
C94 C 0.6031 0.47294 0.73296 0.0
C95 C 0.52695 0.46795 0.79377 0.0
N96 N 0.55863 0.49947 0.81345 0.0
C97 C 0.48544 0.44852 0.8077 0.0
H98 H 0.58628 0.44681 0.71149 0.0
H99 H 0.62543 0.46749 0.75081 0.0
H100 H 0.61887 0.50276 0.71443 0.0
H101 H 0.4784 0.41932 0.82651 0.0
H102 H 0.46468 0.43961 0.7805 0.0
H103 H 0.48131 0.47053 0.8266 0.0
C104 C 0.56215 0.08398 0.75151 0.0
N105 N 0.57863 0.0702 0.78226 0.0
N106 N 0.53477 0.09139 0.76642 0.0
C107 C 0.57521 0.0937 0.70742 0.0
C108 C 0.53402 0.08059 0.80713 0.0
N109 N 0.56039 0.06714 0.81712 0.0
C110 C 0.50636 0.08168 0.83686 0.0
H111 H 0.59998 0.12635 0.70496 0.0
H112 H 0.55109 0.09134 0.68594 0.0
H113 H 0.5854 0.07185 0.69805 0.0
H114 H 0.47771 0.05249 0.83396 0.0
H115 H 0.50148 0.10897 0.8292 0.0
H116 H 0.51782 0.08347 0.86937 0.0
C117 C 0.79893 0.61838 0.98661 0.0
N118 N 0.82927 0.62999 0.96152 0.0
N119 N 0.76805 0.61736 0.96496 0.0
C120 C 0.79813 0.60443 0.03151 0.0
C121 C 0.78041 0.62946 0.92595 0.0
N122 N 0.81796 0.63773 0.9237 0.0
C123 C 0.75567 0.63303 0.89015 0.0
H124 H 0.78256 0.56947 0.0338 0.0
H125 H 0.78188 0.61555 0.04963 0.0
H126 H 0.82816 0.61646 0.04528 0.0
H127 H 0.75582 0.66355 0.89145 0.0
H128 H 0.72487 0.60752 0.89229 0.0
H129 H 0.76714 0.63166 0.85999 0.0
C130 C 0.46178 0.22415 0.99376 0.0
N131 N 0.45358 0.19788 0.96172 0.0
N132 N 0.45885 0.25868 0.9814 0.0
C133 C 0.47488 0.21742 0.03686 0.0
C134 C 0.4482 0.25283 0.94082 0.0
N135 N 0.4444 0.21585 0.92857 0.0
C136 C 0.44028 0.28288 0.91322 0.0
H137 H 0.46407 0.23041 0.06 0.0
H138 H 0.50735 0.23445 0.03922 0.0
H139 H 0.46423 0.18342 0.04411 0.0
H140 H 0.44856 0.28291 0.88094 0.0
H141 H 0.4564 0.31544 0.92468 0.0
H142 H 0.40849 0.27247 0.91289 0.0
C143 C 0.82234 0.26057 0.99624 0.0
N144 N 0.80389 0.22679 0.97148 0.0
N145 N 0.85072 0.29426 0.97587 0.0
C146 C 0.81215 0.26042 0.04044 0.0
C147 C 0.84929 0.27949 0.93785 0.0
N148 N 0.82148 0.2383 0.93512 0.0
C149 C 0.87514 0.30543 0.90294 0.0
H150 H 0.78795 0.26802 0.04092 0.0
H151 H 0.83767 0.28418 0.05844 0.0
H152 H 0.80194 0.22865 0.05531 0.0
H153 H 0.9023 0.30285 0.90465 0.0
H154 H 0.88345 0.33911 0.90534 0.0
H155 H 0.86004 0.29382 0.87248 0.0
C156 C 0.55411 0.78045 0.08335 0.0
N157 N 0.57079 0.8135 0.10908 0.0
N158 N 0.55575 0.74649 0.10093 0.0
C159 C 0.53629 0.7816 0.0411 0.0
C160 C 0.57406 0.76009 0.13828 0.0
N161 N 0.58325 0.80063 0.1434 0.0
C162 C 0.58443 0.73426 0.16933 0.0
H163 H 0.51245 0.78942 0.04415 0.0
H164 H 0.52453 0.75123 0.02544 0.0
H165 H 0.55867 0.80681 0.02136 0.0
H166 H 0.61539 0.74248 0.16572 0.0
H167 H 0.5655 0.70004 0.16464 0.0
H168 H 0.5816 0.74142 0.20146 0.0
C169 C 0.24128 0.80993 0.09543 0.0
N170 N 0.25517 0.83829 0.1261 0.0
N171 N 0.20207 0.7857 0.09654 0.0
C172 C 0.26631 0.80567 0.06437 0.0
C173 C 0.19211 0.8008 0.12828 0.0
N174 N 0.2242 0.83246 0.14726 0.0
C175 C 0.15089 0.78162 0.14308 0.0
H176 H 0.27575 0.83218 0.04113 0.0
H177 H 0.25016 0.77568 0.0478 0.0
H178 H 0.29299 0.80744 0.08017 0.0
H179 H 0.14398 0.75236 0.16174 0.0
H180 H 0.12971 0.77283 0.11626 0.0
H181 H 0.14723 0.80373 0.16231 0.0
C182 C 0.21617 0.41452 0.08193 0.0
N183 N 0.23336 0.40042 0.11156 0.0
N184 N 0.19141 0.42466 0.09877 0.0
C185 C 0.22652 0.42248 0.03695 0.0
C186 C 0.19289 0.4153 0.13952 0.0
N187 N 0.21803 0.39987 0.14768 0.0
C188 C 0.1685 0.41973 0.17117 0.0
H189 H 0.24991 0.45562 0.03234 0.0
H190 H 0.20072 0.4178 1.01703 0.0
H191 H 0.23741 0.40128 0.02739 0.0
H192 H 0.13862 0.39213 0.16982 0.0
H193 H 0.16584 0.4485 0.16411 0.0
H194 H 0.18141 0.42116 0.20297 0.0
C195 C 0.47937 0.95956 0.3341 0.0
N196 N 0.50765 0.97967 0.30618 0.0
N197 N 0.45076 0.96973 0.32703 0.0
C198 C 0.4788 0.92826 0.3671 0.0
C199 C 0.46302 0.99775 0.2946 0.0
N200 N 0.4971 1.0027 0.28022 0.0
C201 C 0.44084 0.01949 0.2768 0.0
H202 H 0.49128 0.90935 0.35538 0.0
H203 H 0.44876 0.90689 0.37773 0.0
H204 H 0.49718 0.94563 0.39422 0.0
H205 H 0.45862 0.0458 0.25489 0.0
H206 H 0.43219 0.03206 0.30237 0.0
H207 H 0.4134 0.99631 0.26087 0.0
C208 C 0.13175 0.56291 0.3285 0.0
N209 N 0.11887 0.53582 0.29669 0.0
N210 N 0.11974 0.592 0.32283 0.0
C211 C 0.15805 0.56247 0.36419 0.0
C212 C 0.09764 0.58084 0.28731 0.0
N213 N 0.09745 0.54722 0.27025 0.0
C214 C 0.07809 0.60493 0.26807 0.0
H215 H 0.15994 0.58329 0.38905 0.0
H216 H 0.18783 0.57349 0.35281 0.0
H217 H 0.14709 0.52989 0.37718 0.0
H218 H 0.09985 0.63298 0.25046 0.0
H219 H 0.06714 0.61637 0.29252 0.0
H220 H 0.05327 0.58509 0.24683 0.0
C221 C 0.48576 0.59558 0.33254 0.0
N222 N 0.46613 0.56316 0.30641 0.0
N223 N 0.51598 0.62876 0.31347 0.0
C224 C 0.47487 0.59473 0.37657 0.0
C225 C 0.51433 0.61505 0.27486 0.0
N226 N 0.48452 0.57519 0.27051 0.0
C227 C 0.54228 0.64027 0.24125 0.0
H228 H 0.44954 0.60055 0.37663 0.0
H229 H 0.49958 0.61911 0.39493 0.0
H230 H 0.46578 0.56314 0.39137 0.0
H231 H 0.56582 0.63158 0.24137 0.0
H232 H 0.55574 0.67456 0.24618 0.0
H233 H 0.52691 0.63301 0.21038 0.0
Tb234 Tb 0.57246 0.0534 0.03941 0.0
C235 C 0.54844 0.9581 0.06843 0.0
Tb236 Tb 0.48511 0.98623 0.04642 0.0
O237 O 0.5706 0.08541 0.09409 0.0
O238 O 0.5335 0.02112 0.08833 0.0
O239 O 0.57512 0.99405 0.05056 0.0
C240 C 0.41111 0.94434 0.07467 0.0
O241 O 0.51266 0.95134 0.07549 0.0
C242 C 0.5167 0.98875 0.97416 0.0
C243 C 0.50652 0.07846 1.0114 0.0
O244 O 0.43013 0.92712 0.06012 0.0
O245 O 0.43355 0.98474 0.07222 0.0
O246 O 0.48413 0.95743 0.98735 0.0
O247 O 0.525 0.01783 0.99859 0.0
O248 O 0.48014 0.04302 0.02983 0.0
O249 O 0.54336 0.08668 1.00781 0.0
C250 C 0.64675 0.10424 1.01606 0.0
O251 O 0.61533 0.1012 0.99746 0.0
O252 O 0.63644 0.07833 0.04808 0.0
C253 C 0.54169 0.05207 0.11047 0.0
Tb254 Tb 0.99458 0.55888 0.0425 0.0
C255 C 0.08579 0.62614 0.035 0.0
Tb256 Tb 0.05181 0.52891 0.02111 0.0
O257 O 0.99094 0.53345 0.10669 0.0
O258 O 0.04145 0.5538 0.07406 0.0
O259 O 0.05002 0.61884 0.0436 0.0
C260 C 0.09856 0.49641 0.03499 0.0
O261 O 0.09287 0.5961 0.02351 0.0
C262 C 1.01353 0.53431 0.95209 0.0
C263 C 0.96364 0.46234 0.02747 0.0
O264 O 0.104 0.52563 1.00689 0.0
O265 O 0.06711 0.48556 0.05492 0.0
O266 O 0.03998 0.52236 0.95358 0.0
O267 O 1.01068 0.54204 0.98895 0.0
O268 O 0.99978 0.46982 0.03638 0.0
O269 O 0.95508 0.49354 0.02435 0.0
C270 C 0.95114 0.59679 0.02774 0.0
O271 O 0.94725 0.57068 0.05879 0.0
O272 O 0.98089 0.60321 1.00682 0.0
C273 C 0.02517 0.53539 0.10749 0.0
Tb274 Tb 0.45828 0.48304 0.03718 0.0
C275 C 0.49099 0.41725 0.04401 0.0
Tb276 Tb 0.54549 0.51548 0.05603 0.0
O277 O 0.47009 0.50779 0.97242 0.0
O278 O 0.50636 0.4889 1.00483 0.0
O279 O 0.46046 0.42378 0.03667 0.0
C280 C 0.61926 0.55295 0.03533 0.0
O281 O 0.52661 0.44819 0.05378 0.0
C282 C 0.51109 0.51153 0.12626 0.0
C283 C 0.51377 0.57947 0.0497 0.0
O284 O 0.60321 0.51979 0.06003 0.0
O285 O 0.59404 0.56465 0.02248 0.0
O286 O 0.54827 0.52396 0.12347 0.0
O287 O 0.49633 0.50199 0.08998 0.0
O288 O 0.54185 0.57236 0.03834 0.0
O289 O 0.47813 0.54768 0.05594 0.0
C290 C 0.38185 0.44192 0.05097 0.0
O291 O 0.39833 0.46979 0.02112 0.0
O292 O 0.40825 0.43599 0.07151 0.0
C293 C 0.50288 0.50673 0.97147 0.0
Tb294 Tb 0.2342 0.38815 0.37292 0.0
C295 C 0.21267 0.29341 0.39852 0.0
Tb296 Tb 0.14827 0.32156 0.3802 0.0
O297 O 0.23349 0.41362 0.43319 0.0
O298 O 0.19685 0.35217 0.42211 0.0
O299 O 0.23906 0.33009 0.38177 0.0
C300 C 0.07401 0.28138 0.40755 0.0
O301 O 0.17667 0.28562 0.40637 0.0
C302 C 0.1777 0.32548 0.30681 0.0
C303 C 0.16908 0.41328 0.3438 0.0
O304 O 0.09022 0.26473 0.38663 0.0
O305 O 0.09949 0.3207 0.41251 0.0
O306 O 0.14731 0.29259 0.32171 0.0
O307 O 0.18624 0.35505 0.33085 0.0
O308 O 0.14485 0.38018 0.36685 0.0
O309 O 0.20406 0.41793 0.33596 0.0
C310 C 0.30935 0.44042 0.35292 0.0
O311 O 0.28428 0.45165 0.36327 0.0
O312 O 0.29205 0.39956 0.35419 0.0
C313 C 0.20432 0.37965 0.44817 0.0
Tb314 Tb 0.66255 0.89313 0.37194 0.0
C315 C 0.75404 0.96047 0.36511 0.0
Tb316 Tb 0.72267 0.86258 0.35687 0.0
O317 O 0.6588 0.87272 0.43804 0.0
O318 O 0.70872 0.88928 0.40542 0.0
O319 O 0.71815 0.95267 0.37367 0.0
C320 C 0.77238 0.83597 0.38231 0.0
O321 O 0.76191 0.93058 0.35487 0.0
C322 C 0.68337 0.86368 0.28672 0.0
C323 C 0.6337 0.79544 0.36262 0.0
O324 O 0.77594 0.85884 0.34863 0.0
O325 O 0.74076 0.82742 0.40086 0.0
O326 O 0.71009 0.85187 0.28931 0.0
O327 O 0.68147 0.87362 0.32289 0.0
O328 O 0.67014 0.80331 0.37128 0.0
O329 O 0.62446 0.82621 0.35794 0.0
C330 C 0.62555 0.93669 0.3487 0.0
O331 O 0.61455 0.90736 0.37804 0.0
O332 O 0.65752 0.94192 0.33342 0.0
C333 C 0.69242 0.87305 0.43931 0.0
Tb334 Tb 0.12731 0.8204 0.37294 0.0
C335 C 0.16248 0.75628 0.379 0.0
Tb336 Tb 0.21701 0.8554 0.38831 0.0
O337 O 0.13443 0.83889 0.30632 0.0
O338 O 0.1749 0.82631 0.33951 0.0
O339 O 0.13143 0.7621 0.37231 0.0
C340 C 0.29238 0.88901 0.37506 0.0
O341 O 0.19826 0.78782 0.38733 0.0
C342 C 0.18262 0.8555 0.4576 0.0
C343 C 0.18523 0.91928 0.37694 0.0
O344 O 0.26818 0.89754 0.35306 0.0
O345 O 0.27427 0.8609 0.40406 0.0
O346 O 0.2198 0.86832 0.4552 0.0
O347 O 0.16847 0.84368 0.42181 0.0
O348 O 0.21313 0.91131 0.36658 0.0
O349 O 0.14952 0.88777 0.38428 0.0
C350 C 0.05454 0.77471 0.40122 0.0
O351 O 0.06448 0.80189 0.36984 0.0
O352 O 0.08547 0.77349 0.41591 0.0
C353 C 0.16881 0.8411 0.3052 0.0
Tb354 Tb 0.90428 0.72008 0.6901 0.0
C355 C 0.88171 0.62752 0.72306 0.0
Tb356 Tb 0.81774 0.65633 0.71279 0.0
O357 O 0.92387 0.72426 0.75561 0.0
O358 O 0.86664 0.70898 0.73952 0.0
O359 O 0.90414 0.65949 0.69764 0.0
C360 C 0.74801 0.61576 0.75029 0.0
O361 O 0.84979 0.62462 0.7389 0.0
C362 C 0.84102 0.64649 0.63997 0.0
C363 C 0.83659 0.74464 0.66882 0.0
O364 O 0.7824 0.63038 0.76874 0.0
O365 O 0.75319 0.62441 0.71069 0.0
O366 O 0.81137 0.61679 0.65948 0.0
O367 O 0.85147 0.67963 0.65901 0.0
O368 O 0.81373 0.71352 0.69488 0.0
O369 O 0.87121 0.74942 0.6588 0.0
C370 C 0.97378 0.77536 0.65963 0.0
O371 O 0.95199 0.78483 0.68077 0.0
O372 O 0.95597 0.73483 0.65496 0.0
C373 C 0.88943 0.71109 0.7696 0.0
Tb374 Tb 0.33836 0.22805 0.70495 0.0
C375 C 0.42952 0.29326 0.69585 0.0
Tb376 Tb 0.39371 0.19359 0.6861 0.0
O377 O 0.33606 0.20678 0.77061 0.0
O378 O 0.38438 0.22155 0.73693 0.0
O379 O 0.39395 0.28736 0.70295 0.0
C380 C 0.44011 0.15985 0.69807 0.0
O381 O 0.43576 0.26134 0.68868 0.0
C382 C 0.35356 0.19587 0.61722 0.0
C383 C 0.30505 0.13077 0.70135 0.0
O384 O 0.44643 0.19103 0.67214 0.0
O385 O 0.40776 0.14761 0.71684 0.0
O386 O 0.37835 0.18172 0.6191 0.0
O387 O 0.35333 0.20709 0.65333 0.0
O388 O 0.34136 0.13873 0.71052 0.0
O389 O 0.29773 0.16225 0.69093 0.0
C390 C 0.29696 0.26804 0.68999 0.0
O391 O 0.29241 0.24192 0.72119 0.0
O392 O 0.32446 0.2712 0.66714 0.0
C393 C 0.36881 0.20532 0.77117 0.0
Tb394 Tb 0.80502 0.15654 0.70981 0.0
C395 C 0.83558 0.08857 0.71176 0.0
Tb396 Tb 0.8877 0.18458 0.72628 0.0
O397 O 0.81392 0.18181 0.64549 0.0
O398 O 0.85007 0.16012 0.67333 0.0
O399 O 0.80524 0.0957 0.71149 0.0
C400 C 0.96449 0.22656 0.71613 0.0
O401 O 0.87196 0.11967 0.71589 0.0
C402 C 0.84759 0.16553 0.79562 0.0
C403 C 0.85993 0.25298 0.72311 0.0
O404 O 0.948 0.20549 0.7497 0.0
O405 O 0.93797 0.22305 0.68847 0.0
O406 O 0.87669 0.15881 0.79031 0.0
O407 O 0.84305 0.18302 0.76248 0.0
O408 O 0.88871 0.24529 0.71572 0.0
O409 O 0.824 0.22118 0.72839 0.0
C410 C 0.72838 0.11557 0.72389 0.0
O411 O 0.74585 0.14851 0.69918 0.0
O412 O 0.75393 0.10532 0.73913 0.0
C413 C 0.84559 0.17928 0.6414 0.0
C414 C 0.32577 0.87131 0.1448 0.0
C415 C 0.29427 0.87471 0.12473 0.0
C416 C 0.34128 0.93105 0.07831 0.0
C417 C 0.3714 0.92204 0.09352 0.0
N418 N 0.39272 0.88412 0.1427 0.0
N419 N 0.27143 0.90645 0.07075 0.0
C420 C 0.36378 0.89244 0.12739 0.0
C421 C 0.3022 0.90525 0.09186 0.0
N422 N 0.31889 0.84746 0.18062 0.0
N423 N 0.34948 0.96331 0.0498 0.0
H424 H 0.24258 0.88804 0.07982 0.0
H425 H 0.27401 0.92339 0.04292 0.0
H426 H 0.37641 0.98052 0.03589 0.0
H427 H 0.33014 0.97475 0.04165 0.0
H428 H 0.34059 0.84551 0.19926 0.0
H429 H 0.29156 0.83315 0.19383 0.0
H430 H 0.38804 0.85954 0.16384 0.0
H431 H 0.42155 0.90105 0.13326 0.0
C432 C 0.13077 0.41634 0.06403 0.0
C433 C 0.1696 0.44295 0.07817 0.0
C434 C 0.16347 0.50554 0.05978 0.0
C435 C 0.12472 0.47889 0.04492 0.0
N436 N 0.07388 0.41034 0.02434 0.0
N437 N 0.22615 0.51177 0.08142 0.0
C438 C 0.10904 0.43459 0.04443 0.0
C439 C 0.18701 0.48728 0.07331 0.0
N440 N 0.11467 0.37373 0.07028 0.0
N441 N 0.17694 0.54776 0.06349 0.0
H442 H 0.2439 0.49901 0.09171 0.0
H443 H 0.24155 0.54401 0.07439 0.0
H444 H 0.16077 0.56267 0.05374 0.0
H445 H 0.20312 0.56767 0.07904 0.0
H446 H 0.08513 0.35257 0.06497 0.0
H447 H 0.13076 0.35968 0.08308 0.0
H448 H 0.06232 0.37825 0.01983 0.0
H449 H 0.05774 0.42312 1.0088 0.0
C450 C 0.57412 0.69494 0.07873 0.0
C451 C 0.54497 0.70646 0.08306 0.0
C452 C 0.49605 0.63786 0.0566 0.0
C453 C 0.52422 0.62355 0.06021 0.0
N454 N 0.58792 0.63772 0.09032 0.0
N455 N 0.4764 0.68553 0.08338 0.0
C456 C 0.56289 0.65189 0.07527 0.0
C457 C 0.50529 0.67693 0.0741 0.0
N458 N 0.61262 0.72499 0.07906 0.0
N459 N 0.46137 0.61558 0.03512 0.0
H460 H 0.48232 0.71351 0.09693 0.0
H461 H 0.44676 0.66333 0.08098 0.0
H462 H 0.45484 0.58907 1.01848 0.0
H463 H 0.44135 0.62658 0.0295 0.0
H464 H 0.63489 0.71823 0.07322 0.0
H465 H 0.62147 0.75701 0.08076 0.0
H466 H 0.61529 0.65762 0.10383 0.0
H467 H 0.57941 0.60595 0.0956 0.0
C468 C 0.91881 0.34973 0.99081 0.0
C469 C 0.87824 0.33551 0.99146 0.0
C470 C 0.89307 0.4019 0.02296 0.0
C471 C 0.9336 0.41863 1.0154 0.0
N472 N 0.98075 0.41014 0.97664 0.0
N473 N 0.82683 0.35251 1.0001 0.0
C474 C 0.94544 0.39306 0.99506 0.0
C475 C 0.86528 0.3629 1.00522 0.0
N476 N 0.93212 0.32188 0.98651 0.0
N477 N 0.88099 0.42184 0.04827 0.0
H478 H 0.80625 0.32507 0.98574 0.0
H479 H 0.81649 0.37314 1.00628 0.0
H480 H 0.90037 0.44846 0.06458 0.0
H481 H 0.85202 0.40893 0.05693 0.0
H482 H 0.96181 0.33062 0.98878 0.0
H483 H 0.91321 0.28958 0.98577 0.0
H484 H 0.98874 0.39239 0.95922 0.0
H485 H 0.99931 0.44244 0.97323 0.0
C486 C 0.72296 0.6283 1.00543 0.0
C487 C 0.72966 0.60236 0.97987 0.0
C488 C 0.66261 0.54597 0.98715 0.0
C489 C 0.65749 0.56971 1.0171 0.0
N490 N 0.6823 0.63231 0.05697 0.0
N491 N 0.70844 0.5354 0.94937 0.0
C492 C 0.68748 0.61076 0.02677 0.0
C493 C 0.70017 0.56085 0.97149 0.0
N494 N 0.75059 0.66973 1.00865 0.0
N495 N 0.63119 0.51051 0.97202 0.0
H496 H 0.73529 0.54598 0.93582 0.0
H497 H 0.68951 0.5032 0.94667 0.0
H498 H 0.60282 0.49962 0.98169 0.0
H499 H 0.63255 0.49446 0.947 0.0
H500 H 0.7464 0.69162 0.0239 0.0
H501 H 0.77686 0.68292 0.99313 0.0
H502 H 0.70438 0.66077 0.06817 0.0
H503 H 0.6564 0.62025 0.073 0.0
C504 C 0.50761 0.1809 0.97135 0.0
C505 C 0.4673 0.16692 0.96215 0.0
C506 C 0.45548 0.09415 0.97354 0.0
C507 C 0.49372 0.10899 0.99232 0.0
N508 N 0.55347 0.16973 1.01607 0.0
N509 N 0.40174 0.10884 0.95908 0.0
C510 C 0.51936 0.15329 0.99266 0.0
C511 C 0.44089 0.12305 0.96426 0.0
N512 N 0.53455 0.22135 0.96119 0.0
N513 N 0.4336 0.05303 0.96283 0.0
H514 H 0.3905 0.12924 0.95229 0.0
H515 H 0.38078 0.07746 0.9646 0.0
H516 H 0.44439 0.03179 0.96534 0.0
H517 H 0.40682 0.04164 0.94648 0.0
H518 H 0.56466 0.2326 0.96441 0.0
H519 H 0.52649 0.24178 0.94511 0.0
H520 H 0.57123 0.20203 0.01982 0.0
H521 H 0.56154 0.15159 0.03611 0.0
C522 C 0.73382 0.20518 0.97637 0.0
C523 C 0.76386 0.19388 0.9777 0.0
C524 C 0.71617 0.12184 1.00029 0.0
C525 C 0.68751 0.13485 1.0038 0.0
N526 N 0.67255 0.19205 1.00365 0.0
N527 N 0.78527 0.14324 0.99526 0.0
C528 C 0.6972 0.17734 0.9939 0.0
C529 C 0.75544 0.15258 0.99076 0.0
N530 N 0.74041 0.24275 0.95797 0.0
N531 N 0.70567 0.08008 1.00453 0.0
H532 H 0.81391 0.16516 0.9879 0.0
H533 H 0.78215 0.11512 1.00883 0.0
H534 H 0.67727 0.05665 1.0109 0.0
H535 H 0.72424 0.06826 0.99826 0.0
H536 H 0.71854 0.25109 0.95233 0.0
H537 H 0.7667 0.26351 0.9441 0.0
H538 H 0.68003 0.22378 1.00099 0.0
H539 H 0.64648 0.17368 0.01891 0.0
C540 C 0.89911 0.65622 0.98158 0.0
C541 C 0.86165 0.62223 0.97206 0.0
C542 C 0.88201 0.57168 1.00131 0.0
C543 C 0.92007 0.60579 1.01 0.0
N544 N 0.96687 0.67995 1.00335 0.0
N545 N 0.81806 0.54758 0.96785 0.0
C546 C 0.92931 0.64789 0.99824 0.0
C547 C 0.85346 0.57997 0.98044 0.0
N548 N 0.90492 0.69642 0.97704 0.0
N549 N 0.87282 0.53116 1.01298 0.0
H550 H 0.79588 0.55238 0.95381 0.0
H551 H 0.81147 0.51618 0.9679 0.0
H552 H 0.89328 0.52175 0.0226 0.0
H553 H 0.8443 0.50628 1.01428 0.0
H554 H 0.93008 0.72282 0.98753 0.0
H555 H 0.88311 0.70303 0.96508 0.0
H556 H 0.97652 0.71037 0.99101 0.0
H557 H 0.98915 0.67572 1.01823 0.0
C558 C 0.44098 0.2991 0.02661 0.0
C559 C 0.4694 0.29603 1.00424 0.0
C560 C 0.51367 0.37161 1.01022 0.0
C561 C 0.48584 0.37499 0.03428 0.0
N562 N 0.42773 0.33911 0.07473 0.0
N563 N 0.53626 0.32589 0.98531 0.0
C564 C 0.45086 0.33777 0.0454 0.0
C565 C 0.50704 0.33116 1.00006 0.0
N566 N 0.40425 0.26531 0.02889 0.0
N567 N 0.54454 0.4066 0.99349 0.0
H568 H 0.53172 0.29658 0.97711 0.0
H569 H 0.5655 0.34939 0.98551 0.0
H570 H 0.54868 0.43691 0.9952 0.0
H571 H 0.56341 0.40527 0.97292 0.0
H572 H 0.38078 0.26677 0.04081 0.0
H573 H 0.39687 0.23642 1.01632 0.0
H574 H 0.40351 0.31239 0.08635 0.0
H575 H 0.4352 0.36632 0.0907 0.0
C576 C 0.17833 0.7096 0.08943 0.0
C577 C 0.17736 0.74677 0.07569 0.0
C578 C 0.12004 0.7057 0.03008 0.0
C579 C 0.11978 0.668 0.04532 0.0
N580 N 0.15321 0.63485 0.08458 0.0
N581 N 0.15328 0.78266 0.02855 0.0
C582 C 0.15057 0.67024 0.07297 0.0
C583 C 0.14997 0.74545 0.04447 0.0
N584 N 0.20433 0.7116 0.12054 0.0
N585 N 0.09163 0.70331 1.00187 0.0
H586 H 0.17522 0.81178 0.03887 0.0
H587 H 0.13625 0.7852 1.00381 0.0
H588 H 0.07172 0.67537 0.98772 0.0
H589 H 0.0872 0.7286 0.99264 0.0
H590 H 0.20291 0.68544 0.13696 0.0
H591 H 0.22683 0.73983 0.13148 0.0
H592 H 0.17863 0.63579 0.09749 0.0
H593 H 0.13064 0.60417 0.08128 0.0
C594 C 0.27976 0.37653 0.0941 0.0
C595 C 0.27296 0.4089 0.10662 0.0
C596 C 0.33626 0.46267 0.08054 0.0
C597 C 0.34364 0.43026 0.06841 0.0
N598 N 0.32563 0.35647 0.06932 0.0
N599 N 0.29819 0.4819 0.12168 0.0
C600 C 0.3165 0.38715 0.07734 0.0
C601 C 0.30254 0.45166 0.10309 0.0
N602 N 0.25017 0.33586 0.09643 0.0
N603 N 0.36097 0.50412 0.07029 0.0
H604 H 0.27379 0.47488 0.13862 0.0
H605 H 0.32036 0.51298 0.12445 0.0
H606 H 0.38854 0.51545 0.05835 0.0
H607 H 0.35341 0.52776 0.07216 0.0
H608 H 0.25105 0.31072 0.08357 0.0
H609 H 0.22376 0.32776 0.11001 0.0
H610 H 0.30902 0.32507 0.07907 0.0
H611 H 0.35102 0.36275 0.05456 0.0
C612 C 0.59168 0.88236 0.07118 0.0
C613 C 0.56936 0.85265 0.10244 0.0
C614 C 0.54058 0.89706 0.11673 0.0
C615 C 0.55835 0.92373 0.08146 0.0
N616 N 0.5917 0.93167 1.01795 0.0
N617 N 0.51218 0.82511 0.14339 0.0
C618 C 0.58205 0.9142 0.05693 0.0
C619 C 0.54094 0.85817 0.1222 0.0
N620 N 0.6207 0.87887 0.05347 0.0
N621 N 0.52364 0.90871 0.14534 0.0
H622 H 0.50888 0.79489 0.1432 0.0
H623 H 0.48873 0.82638 0.15567 0.0
H624 H 0.52674 0.93888 0.14558 0.0
H625 H 0.5105 0.88993 0.17142 0.0
H626 H 0.64067 0.90217 0.0337 0.0
H627 H 0.62602 0.85379 0.06061 0.0
H628 H 0.60638 0.9233 0.99772 0.0
H629 H 0.57985 0.94935 1.00346 0.0
C630 C 0.96628 0.24592 0.42514 0.0
C631 C 0.95575 0.21072 0.45311 0.0
C632 C 0.02336 0.22275 0.45288 0.0
C633 C 0.03407 0.25867 0.42562 0.0
N634 N 0.0173 0.3101 0.39421 0.0
N635 N 0.97555 0.17075 0.49987 0.0
C636 C 1.00622 0.27247 0.41514 0.0
C637 C 0.98509 0.20143 0.46947 0.0
N638 N 0.93744 0.25122 0.40442 0.0
N639 N 0.04916 0.20797 0.46186 0.0
H640 H 0.94739 0.15428 0.51108 0.0
H641 H 0.99587 0.16437 0.51629 0.0
H642 H 0.07746 0.22268 0.45101 0.0
H643 H 0.04178 0.1795 0.47777 0.0
H644 H 0.94267 0.27278 0.37968 0.0
H645 H 0.90778 0.23153 0.40973 0.0
H646 H 0.99912 0.32359 0.38985 0.0
H647 H 0.0455 0.32944 0.38392 0.0
C648 C 0.82395 0.7717 0.40211 0.0
C649 C 0.8495 0.79308 0.43593 0.0
C650 C 0.82447 0.84286 0.43458 0.0
C651 C 0.80087 0.82322 0.39893 0.0
N652 N 0.7821 0.77343 0.34457 0.0
N653 N 0.88007 0.85289 0.47944 0.0
C654 C 0.80205 0.78917 0.38119 0.0
C655 C 0.85158 0.82996 0.45065 0.0
N656 N 0.81939 0.73372 0.3913 0.0
N657 N 0.82031 0.87303 0.45362 0.0
H658 H 0.90017 0.8437 0.49166 0.0
H659 H 0.8857 0.88237 0.48866 0.0
H660 H 0.80132 0.884 0.44225 0.0
H661 H 0.83359 0.88505 0.48224 0.0
H662 H 0.79807 0.71427 0.36999 0.0
H663 H 0.83489 0.71991 0.40608 0.0
H664 H 0.78519 0.75159 0.32789 0.0
H665 H 0.7646 0.78455 0.3291 0.0
C666 C 0.17552 1.01344 0.41029 0.0
C667 C 0.21475 0.04644 0.41027 0.0
C668 C 0.23542 0.99657 0.39145 0.0
C669 C 0.19554 0.96422 0.38536 0.0
N670 N 0.1284 0.95096 0.37522 0.0
N671 N 0.27973 0.07174 0.38666 0.0
C672 C 0.16563 0.97524 0.3906 0.0
C673 C 0.24367 0.03884 0.39503 0.0
N674 N 0.14787 0.01789 0.42986 0.0
N675 N 0.26523 0.98746 0.39922 0.0
H676 H 0.28638 0.10303 0.38967 0.0
H677 H 0.30119 0.06764 0.37315 0.0
H678 H 0.26077 0.95749 0.40782 0.0
H679 H 0.29403 1.01074 0.40525 0.0
H680 H 0.1195 0.99309 0.43362 0.0
H681 H 0.15449 0.04516 0.4453 0.0
H682 H 0.10664 0.95947 0.377 0.0
H683 H 0.12093 0.92638 0.35534 0.0
C684 C 0.53383 0.69778 0.34402 0.0
C685 C 0.54485 0.6688 0.3303 0.0
C686 C 0.61334 0.72354 0.33402 0.0
C687 C 0.6031 0.75107 0.3533 0.0
N688 N 0.55259 0.7573 0.38723 0.0
N689 N 0.596 0.65084 0.32548 0.0
C690 C 0.56299 0.73614 0.36153 0.0
C691 C 0.58495 0.68059 0.33003 0.0
N692 N 0.49598 0.68964 0.33894 0.0
N693 N 0.6486 0.73842 0.31596 0.0
H694 H 0.57565 0.61889 0.32385 0.0
H695 H 0.62517 0.6576 0.32801 0.0
H696 H 0.66844 0.77032 0.312 0.0
H697 H 0.65546 0.7193 0.29924 0.0
H698 H 0.48724 0.71162 0.34513 0.0
H699 H 0.47435 0.66274 0.32466 0.0
H700 H 0.52387 0.74572 0.39624 0.0
H701 H 0.57307 0.7833 0.40366 0.0
C702 C 0.38465 0.90782 0.32575 0.0
C703 C 0.4118 0.94742 0.34225 0.0
C704 C 0.36119 0.94675 0.38358 0.0
C705 C 0.33402 0.90741 0.36672 0.0
N706 N 0.3197 0.84675 0.3276 0.0
N707 N 0.42921 1.00151 0.39097 0.0
C708 C 0.34574 0.88674 0.33956 0.0
C709 C 0.40097 0.96595 0.37252 0.0
N710 N 0.39605 0.89103 0.29614 0.0
N711 N 0.34863 0.96591 0.40942 0.0
H712 H 0.45849 0.01595 0.38286 0.0
H713 H 0.42444 1.01521 0.41585 0.0
H714 H 0.32015 0.95142 0.41998 0.0
H715 H 0.36577 0.99659 0.41931 0.0
H716 H 0.37683 0.86536 0.27865 0.0
H717 H 0.42499 0.90377 0.28771 0.0
H718 H 0.32713 0.82812 0.311 0.0
H719 H 0.29072 0.83071 0.33675 0.0
C720 C 0.10289 0.46217 0.31708 0.0
C721 C 0.12713 0.50078 0.29576 0.0
C722 C 0.18137 0.48459 0.30817 0.0
C723 C 0.15512 0.44299 0.32381 0.0
N724 N 0.08637 0.38929 0.32282 0.0
N725 N 0.18841 0.5436 0.2632 0.0
C726 C 0.11442 0.43065 0.3217 0.0
C727 C 0.16574 0.50958 0.28784 0.0
N728 N 0.07083 0.45669 0.33683 0.0
N729 N 0.22086 0.50247 0.31577 0.0
H730 H 0.17752 0.56228 0.24887 0.0
H731 H 0.21588 0.55006 0.25376 0.0
H732 H 0.23398 0.48911 0.3356 0.0
H733 H 0.24026 0.53368 0.30733 0.0
H734 H 0.05414 0.42971 0.35509 0.0
H735 H 0.06379 0.48081 0.33852 0.0
H736 H 0.0566 0.3802 0.31999 0.0
H737 H 0.09272 0.36484 0.31997 0.0
C738 C 0.39457 0.53766 0.30478 0.0
C739 C 0.42635 0.52941 0.31264 0.0
C740 C 0.38201 0.46279 0.34932 0.0
C741 C 0.34983 0.46979 0.33845 0.0
N742 N 0.32365 0.50794 0.29874 0.0
N743 N 0.44995 0.48259 0.33908 0.0
C744 C 0.35586 0.50574 0.31389 0.0
C745 C 0.41973 0.49116 0.33347 0.0
N746 N 0.40171 0.57704 0.29148 0.0
N747 N 0.37737 0.43107 0.37719 0.0
H748 H 0.47819 0.50418 0.33054 0.0
H749 H 0.44662 0.45344 0.34961 0.0
H750 H 0.35098 0.41112 0.39121 0.0
H751 H 0.40043 0.42686 0.38958 0.0
H752 H 0.38061 0.58671 0.29046 0.0
H753 H 0.42965 0.60138 0.28501 0.0
H754 H 0.32444 0.53118 0.27763 0.0
H755 H 0.32444 0.53118 0.27763 0.0
C756 C 0.55191 0.95487 0.28355 0.0
C757 C 0.5446 0.97982 0.30965 0.0
C758 C 0.59594 0.98292 0.35908 0.0
C759 C 0.60306 0.95784 0.33261 0.0
N760 N 0.59852 0.93469 0.26272 0.0
N761 N 0.56443 0.02531 0.36757 0.0
C762 C 0.58477 0.94885 0.29243 0.0
C763 C 0.56878 0.99689 0.34566 0.0
N764 N 0.5256 0.93374 0.25249 0.0
N765 N 0.6144 0.99243 0.39731 0.0
H766 H 0.54384 0.03494 0.3587 0.0
H767 H 0.58294 0.04166 0.39229 0.0
H768 H 0.63618 0.98477 0.40688 0.0
H769 H 0.60723 1.00641 0.42008 0.0
H770 H 0.52664 0.90996 0.23705 0.0
H771 H 0.50071 0.93676 0.24557 0.0
H772 H 0.58735 0.9303 0.23221 0.0
H773 H 0.624 0.93243 0.2671 0.0
C774 C 0.11125 0.63687 0.37162 0.0
C775 C 0.1346 0.63178 0.34312 0.0
C776 C 0.18105 0.70786 0.34337 0.0
C777 C 0.15688 0.71332 0.37127 0.0
N778 N 0.10573 0.68165 0.42082 0.0
N779 N 0.1956 0.6596 0.30883 0.0
C780 C 0.12399 0.67728 0.38812 0.0
C781 C 0.17102 0.66639 0.33175 0.0
N782 N 0.07628 0.60299 0.38193 0.0
N783 N 0.2118 0.74209 0.32534 0.0
H784 H 0.18812 0.63033 0.29742 0.0
H785 H 0.22461 0.68192 0.30378 0.0
H786 H 0.21914 0.77319 0.3297 0.0
H787 H 0.22867 0.74023 0.30272 0.0
H788 H 0.05539 0.60506 0.39871 0.0
H789 H 0.06732 0.57285 0.37151 0.0
H790 H 0.08361 0.65637 0.43682 0.0
H791 H 0.11545 0.71048 0.43472 0.0
C792 C 0.81161 0.08033 0.37092 0.0
C793 C 0.83862 0.08448 0.40369 0.0
C794 C 0.81797 1.0091 0.40235 0.0
C795 C 0.787 1.00359 0.37333 0.0
N796 N 0.75634 0.03399 0.32674 0.0
N797 N 0.86687 0.05376 0.45272 0.0
C798 C 0.78459 0.0394 0.35648 0.0
C799 C 0.84206 0.04925 0.41944 0.0
N800 N 0.8124 0.11593 0.35364 0.0
N801 N 0.82453 0.97628 0.41431 0.0
H802 H 0.88637 0.08282 0.46497 0.0
H803 H 0.86654 0.02857 0.47012 0.0
H804 H 0.80577 0.94501 0.40768 0.0
H805 H 0.85018 0.98027 0.42973 0.0
H806 H 0.79561 0.11643 0.32768 0.0
H807 H 0.83192 0.1459 0.3643 0.0
H808 H 0.74981 0.0575 0.31612 0.0
H809 H 0.73882 1.00526 0.31262 0.0
C810 C 0.9456 0.7184 0.42556 0.0
C811 C 0.94689 0.74507 0.45674 0.0
C812 C 0.01777 0.77652 0.4609 0.0
C813 C 0.01742 0.75767 0.42376 0.0
N814 N 0.98022 0.70907 0.37017 0.0
N815 N 0.98695 0.81102 0.491 0.0
C816 C 0.98098 0.72775 0.40592 0.0
C817 C 0.98375 0.77733 0.47101 0.0
N818 N 0.91037 0.68563 0.41373 0.0
N819 N 0.04992 0.7932 0.48696 0.0
H820 H 0.96268 0.81409 0.49764 0.0
H821 H 0.01407 0.8368 0.49855 0.0
H822 H 0.07414 0.78925 0.48293 0.0
H823 H 0.04991 0.80582 0.51522 0.0
H824 H 0.90729 0.6632 0.39299 0.0
H825 H 0.88453 0.67938 0.42748 0.0
H826 H 0.95455 0.69001 0.35339 0.0
H827 H 1.0058 0.71425 0.35648 0.0
C828 C 0.2488 0.21271 0.39563 0.0
C829 C 0.23584 0.19067 0.43429 0.0
C830 C 0.21925 0.24438 0.45288 0.0
C831 C 0.22415 0.26061 0.41137 0.0
N832 N 0.23734 0.25401 0.3409 0.0
N833 N 0.20129 0.18202 0.49653 0.0
C834 C 0.23775 0.2435 0.38209 0.0
C835 C 0.21937 0.20576 0.46235 0.0
N836 N 0.2712 0.20377 0.37159 0.0
N837 N 0.21559 0.26637 0.48352 0.0
H838 H 0.19768 0.15193 0.50202 0.0
H839 H 0.18607 0.19021 0.51625 0.0
H840 H 0.21804 0.29606 0.47777 0.0
H841 H 0.21544 0.2576 0.51485 0.0
H842 H 0.28419 0.22138 0.34482 0.0
H843 H 0.27974 0.18133 0.38067 0.0
H844 H 0.24372 0.2395 0.3179 0.0
H845 H 0.22606 0.2734 0.32945 0.0
C846 C 0.66018 0.53669 0.81529 0.0
C847 C 0.62956 0.54128 0.79441 0.0
C848 C 0.67907 0.60333 0.75595 0.0
C849 C 0.70875 0.59347 0.77042 0.0
N850 N 0.72705 0.54918 0.81438 0.0
N851 N 0.60982 0.57674 0.74108 0.0
C852 C 0.69943 0.56032 0.80105 0.0
C853 C 0.63914 0.57461 0.76431 0.0
N854 N 0.65115 0.50834 0.84784 0.0
N855 N 0.68906 0.64062 0.73475 0.0
H856 H 0.58026 0.55613 0.74605 0.0
H857 H 0.61486 0.59688 0.71512 0.0
H858 H 0.71809 0.66323 0.7297 0.0
H859 H 0.66903 0.65111 0.7265 0.0
H860 H 0.67194 0.50541 0.86722 0.0
H861 H 0.62252 0.49031 0.85751 0.0
H862 H 0.72101 0.52262 0.83316 0.0
H863 H 0.75571 0.56467 0.80455 0.0
C864 C 0.52948 0.15306 0.73882 0.0
C865 C 0.51274 0.10883 0.74442 0.0
C866 C 0.4524 0.09906 0.70862 0.0
C867 C 0.46711 0.14325 0.70871 0.0
N868 N 0.51847 0.21264 0.72738 0.0
N869 N 0.4588 0.03907 0.73608 0.0
C870 C 0.50555 0.17051 0.72416 0.0
C871 C 0.47431 0.08158 0.72953 0.0
N872 N 0.56842 0.17837 0.74727 0.0
N873 N 0.41812 0.0742 0.68739 0.0
H874 H 0.4751 0.02558 0.74964 0.0
H875 H 0.42946 0.01747 0.73023 0.0
H876 H 0.40242 0.08661 0.67027 0.0
H877 H 0.40723 0.04214 0.68332 0.0
H878 H 0.58342 0.21047 0.73947 0.0
H879 H 0.58652 0.16644 0.75851 0.0
H880 H 0.54396 0.23279 0.74382 0.0
H881 H 0.50247 0.22726 0.71633 0.0
C882 C 0.91841 0.36709 0.75592 0.0
C883 C 0.89047 0.38114 0.75088 0.0
C884 C 0.84396 0.31323 0.72089 0.0
C885 C 0.86987 0.29704 0.73258 0.0
N886 N 0.92689 0.3071 0.77512 0.0
N887 N 0.82328 0.36375 0.73641 0.0
C888 C 0.90591 0.32354 0.75386 0.0
C889 C 0.85219 0.35314 0.73551 0.0
N890 N 0.95697 0.39534 0.76278 0.0
N891 N 0.81241 0.29163 0.69474 0.0
H892 H 0.82804 0.39191 0.74848 0.0
H893 H 0.79402 0.34283 0.72907 0.0
H894 H 0.80661 0.26368 0.6813 0.0
H895 H 0.79466 0.30401 0.68281 0.0
H896 H 0.9789 0.38681 0.76372 0.0
H897 H 0.96707 0.42769 0.76286 0.0
H898 H 0.95184 0.32539 0.79336 0.0
H899 H 0.91655 0.27482 0.77963 0.0
C900 C 0.24773 1.01116 0.68129 0.0
C901 C 0.21066 1.00685 0.6702 0.0
C902 C 0.23287 0.07687 0.69695 0.0
C903 C 0.27263 0.08569 0.69694 0.0
N904 N 0.31648 0.05876 0.67907 0.0
N905 N 0.16856 0.03798 0.66382 0.0
C906 C 0.27996 0.05202 0.68735 0.0
C907 C 0.2032 0.04028 0.67726 0.0
N908 N 0.25236 0.97626 0.6845 0.0
N909 N 0.22311 0.1025 0.7167 0.0
H910 H 0.14666 1.01197 0.64851 0.0
H911 H 0.16325 0.06339 0.6648 0.0
H912 H 0.24329 0.12698 0.73507 0.0
H913 H 0.1942 0.09579 0.71942 0.0
H914 H 0.27829 0.97715 0.69569 0.0
H915 H 0.2288 0.94604 0.68048 0.0
H916 H 0.32138 0.03501 0.66904 0.0
H917 H 0.34094 0.0881 0.67538 0.0
C918 C 0.05729 0.25412 0.6621 0.0
C919 C 0.08368 0.29292 0.6807 0.0
C920 C 0.03334 0.28413 0.72812 0.0
C921 C 1.00641 0.24687 0.7076 0.0
N922 N 0.99118 0.19593 0.65516 0.0
N923 N 0.0975 0.34703 0.72825 0.0
C924 C 0.01804 0.23166 0.67474 0.0
C925 C 0.07191 0.30837 0.71312 0.0
N926 N 0.0701 0.23826 0.63297 0.0
N927 N 0.02181 0.29636 0.76151 0.0
H928 H 0.1258 0.36506 0.71741 0.0
H929 H 0.09042 0.36244 0.74956 0.0
H930 H 0.99345 0.27995 0.77239 0.0
H931 H 0.04061 0.32129 0.78003 0.0
H932 H 0.05436 0.20773 0.62233 0.0
H933 H 0.09757 0.25491 0.62038 0.0
H934 H 0.99566 0.18654 0.62707 0.0
H935 H 0.96336 0.17588 0.66632 0.0
C936 C 0.77043 0.79433 0.64659 0.0
C937 C 0.79373 0.83188 0.62325 0.0
C938 C 0.84738 0.81461 0.63112 0.0
C939 C 0.82197 0.77404 0.6496 0.0
N940 N 0.75322 0.7213 0.65517 0.0
N941 N 0.85138 0.87073 0.58369 0.0
C942 C 0.78152 0.76243 0.65099 0.0
C943 C 0.83086 0.839 0.61156 0.0
N944 N 0.73953 0.79015 0.66775 0.0
N945 N 0.88718 0.83238 0.63527 0.0
H946 H 0.83932 0.88814 0.569 0.0
H947 H 0.87761 0.87577 0.57183 0.0
H948 H 0.90153 0.82027 0.65487 0.0
H949 H 0.90604 0.86288 0.62431 0.0
H950 H 0.72381 0.76429 0.6877 0.0
H951 H 0.73232 0.81424 0.66838 0.0
H952 H 0.72352 0.71252 0.65501 0.0
H953 H 0.75874 0.69629 0.65211 0.0
C954 C 0.0856 0.83347 0.65419 0.0
C955 C 0.09187 0.87174 0.6338 0.0
C956 C 0.02074 0.84236 0.62269 0.0
C957 C 0.0143 0.80592 0.6469 0.0
N958 N 0.04049 0.76761 0.68881 0.0
N959 N 0.06528 0.91592 0.60669 0.0
C960 C 0.0467 0.80122 0.66282 0.0
C961 C 0.05938 0.87695 0.61986 0.0
N962 N 0.11718 0.82886 0.66692 0.0
N963 N 0.98991 0.84366 0.60183 0.0
H964 H 0.09299 0.94242 0.60641 0.0
H965 H 0.04259 0.92281 0.60012 0.0
H966 H 0.96132 0.81862 0.60286 0.0
H967 H 0.99328 0.86759 0.58034 0.0
H968 H 0.11544 0.80029 0.67699 0.0
H969 H 0.14558 0.85388 0.666 0.0
H970 H 0.06271 0.76455 0.70518 0.0
H971 H 1.01275 0.74362 0.69649 0.0
C972 C 0.2508 0.33846 0.66402 0.0
C973 C 0.21094 0.30735 0.65822 0.0
C974 C 0.22948 0.25156 0.66769 0.0
C975 C 0.26851 0.28238 0.67655 0.0
N976 N 0.31884 0.35505 0.67639 0.0
N977 N 0.16174 0.23325 0.6636 0.0
C978 C 0.28003 0.32591 0.67233 0.0
C979 C 0.20017 0.26364 0.66236 0.0
N980 N 0.25992 0.37972 0.66547 0.0
N981 N 0.22059 0.21071 0.6621 0.0
H982 H 0.13857 0.23928 0.65792 0.0
H983 H 0.15267 0.20208 0.67319 0.0
H984 H 0.24139 0.20052 0.66462 0.0
H985 H 0.19353 0.18789 0.6504 0.0
H986 H 0.28766 0.40436 0.67258 0.0
H987 H 0.23862 0.38903 0.66254 0.0
H988 H 0.33013 0.38718 0.67005 0.0
H989 H 0.34053 0.34676 0.6841 0.0
C990 C 0.84041 0.99817 0.66063 0.0
C991 C 0.80482 0.96354 0.67379 0.0
C992 C 0.79642 1.00935 0.72044 0.0
C993 C 0.82817 0.04538 0.70189 0.0
N994 N 0.87891 0.07358 0.65062 0.0
N995 N 0.7482 0.93514 0.71531 0.0
C996 C 0.85034 0.03971 0.67157 0.0
C997 C 0.78276 0.96887 0.7037 0.0
N998 N 0.86448 0.99136 0.63692 0.0
N999 N 0.78028 1.01366 0.75503 0.0
H1000 H 0.73863 0.90494 0.7047 0.0
H1001 H 0.72816 0.93753 0.73331 0.0
H1002 H 0.79091 0.0424 0.7694 0.0
H1003 H 0.75924 0.98826 0.77199 0.0
H1004 H 0.89311 1.01414 0.6307 0.0
H1005 H 0.85733 0.9618 0.62654 0.0
H1006 H 0.89319 0.07093 0.62571 0.0
H1007 H 0.88624 0.10476 0.65446 0.0
C1008 C 0.48675 0.41264 0.70885 0.0
C1009 C 0.51361 0.41428 0.74096 0.0
C1010 C 0.49656 0.34158 0.72805 0.0
C1011 C 0.4637 0.33663 0.70267 0.0
N1012 N 0.43063 0.36953 0.66395 0.0
N1013 N 0.54005 0.3783 0.78561 0.0
C1014 C 0.45984 0.37299 0.69145 0.0
C1015 C 0.51735 0.37815 0.75182 0.0
N1016 N 0.48757 0.44922 0.69483 0.0
N1017 N 0.5097 0.31304 0.72789 0.0
H1018 H 0.55547 0.40444 0.80406 0.0
H1019 H 0.54042 0.35119 0.79748 0.0
H1020 H 0.5001 0.28995 0.70596 0.0
H1021 H 0.53484 0.31687 0.74444 0.0
H1022 H 0.47114 0.45136 0.66923 0.0
H1023 H 0.507 0.47826 0.70747 0.0
H1024 H 0.42284 0.39301 0.65827 0.0
H1025 H 0.41378 0.34249 0.64698 0.0
C1026 C 0.62583 0.0474 0.76548 0.0
C1027 C 0.61868 0.07897 0.77972 0.0
C1028 C 0.68593 0.13291 0.76418 0.0
C1029 C 0.69086 0.10234 0.74385 0.0
N1030 N 0.6669 0.03022 0.72573 0.0
N1031 N 0.64113 0.15212 0.79208 0.0
C1032 C 0.66143 0.05925 0.74529 0.0
C1033 C 0.64883 0.12176 0.77944 0.0
N1034 N 0.5978 1.00625 0.77051 0.0
N1035 N 0.71712 0.17221 0.77043 0.0
H1036 H 0.61557 0.14489 0.8069 0.0
H1037 H 0.65912 0.18429 0.78645 0.0
H1038 H 0.74554 0.18111 0.76223 0.0
H1039 H 0.716 0.1949 0.78769 0.0
H1040 H 0.60127 0.98074 0.7634 0.0
H1041 H 0.57173 0.99778 0.78501 0.0
H1042 H 0.64557 0.99889 0.72249 0.0
H1043 H 0.6925 0.03802 0.71055 0.0
C1044 C 0.86813 0.51823 0.75491 0.0
C1045 C 0.90711 0.52532 0.75792 0.0
C1046 C 0.93077 0.60038 0.74015 0.0
C1047 C 0.89135 0.59251 0.73333 0.0
N1048 N 0.8237 0.53941 0.72102 0.0
N1049 N 0.97429 0.57043 0.74135 0.0
C1050 C 0.8603 0.55017 0.7372 0.0
C1051 C 0.93813 0.56566 0.74715 0.0
N1052 N 0.83826 0.48057 0.7685 0.0
N1053 N 0.96133 0.64062 0.74136 0.0
H1054 H 0.97949 0.54492 0.74334 0.0
H1055 H 0.99739 0.59821 0.72966 0.0
H1056 H 0.95826 0.66745 0.7373 0.0
H1057 H 0.98971 0.64743 0.75061 0.0
H1058 H 0.80977 0.47526 0.7711 0.0
H1059 H 0.84274 0.45615 0.78109 0.0
H1060 H 0.8011 0.50837 0.71972 0.0
H1061 H 0.81725 0.56041 0.70372 0.0
C1062 C 0.48276 1.004 0.20412 0.0
C1063 C 0.51042 0.01704 0.23809 0.0
C1064 C 0.56201 0.05526 0.18775 0.0
C1065 C 0.53294 0.04653 0.15539 0.0
N1066 N 0.46638 0.03003 0.14036 0.0
N1067 N 0.57588 0.0663 0.26155 0.0
C1068 C 0.49348 0.0263 0.16587 0.0
C1069 C 0.55011 0.04603 0.22983 0.0
N1070 N 0.44677 0.96942 0.20736 0.0
N1071 N 0.60038 0.07092 0.17886 0.0
H1072 H 0.5668 0.06299 0.29184 0.0
H1073 H 0.60459 0.08988 0.2568 0.0
H1074 H 0.61035 0.07723 0.14871 0.0
H1075 H 0.62163 0.07409 0.20156 0.0
H1076 H 0.42659 0.959 0.18238 0.0
H1077 H 0.43919 0.94892 0.23314 0.0
H1078 H 0.43732 0.01776 0.14862 0.0
H1079 H 0.47448 0.04969 0.11373 0.0
C1080 C 0.05002 0.50108 0.21495 0.0
C1081 C 0.08591 0.53721 0.22648 0.0
C1082 C 0.08064 0.57234 0.16079 0.0
C1083 C 0.0472 0.53505 0.14736 0.0
N1084 N 1.00463 0.4607 0.15933 0.0
N1085 N 0.13971 0.60355 0.20384 0.0
C1086 C 0.03363 0.49824 0.17355 0.0
C1087 C 0.10316 0.57074 0.19636 0.0
N1088 N 0.02964 0.47109 0.24431 0.0
N1089 N 0.08822 0.61053 0.14328 0.0
H1090 H 0.15554 0.6057 0.23145 0.0
H1091 H 0.15479 0.62704 0.18147 0.0
H1092 H 0.06978 0.61392 0.12072 0.0
H1093 H 0.10977 0.63908 0.15505 0.0
H1094 H 1.00144 0.44626 0.23909 0.0
H1095 H 0.03977 0.47369 0.27485 0.0
H1096 H 0.99598 0.43213 0.17567 0.0
H1097 H 0.99173 0.45781 0.12963 0.0
C1098 C 0.50789 0.53099 0.23933 0.0
C1099 C 0.48197 0.54809 0.23775 0.0
C1100 C 0.46369 0.52633 0.16545 0.0
C1101 C 0.49312 0.51411 0.16552 0.0
N1102 N 0.52993 0.48782 0.20722 0.0
N1103 N 0.43906 0.56702 0.19757 0.0
C1104 C 0.51108 0.51119 0.20405 0.0
C1105 C 0.46031 0.5463 0.20055 0.0
N1106 N 0.53231 0.53725 0.27329 0.0
N1107 N 0.43746 0.51685 0.13302 0.0
H1108 H 0.43682 0.58261 0.22238 0.0
H1109 H 0.42674 0.57201 0.16981 0.0
H1110 H 0.43707 0.499 0.10907 0.0
H1111 H 0.41304 0.52112 0.13309 0.0
H1112 H 0.55544 0.53065 0.27438 0.0
H1113 H 0.53145 0.55229 0.29937 0.0
H1114 H 0.54062 0.48104 0.23522 0.0
H1115 H 0.53054 0.47087 0.18251 0.0
C1116 C 0.92845 0.51011 0.87285 0.0
C1117 C 0.9461 0.50563 0.83792 0.0
C1118 C 1.00986 0.54034 0.87495 0.0
C1119 C 0.99118 0.53542 0.91272 0.0
N1120 N 0.93258 0.52212 0.9462 0.0
N1121 N 1.00371 0.51254 0.80728 0.0
C1122 C 0.95051 0.52301 0.91115 0.0
C1123 C 0.98701 0.52049 0.83907 0.0
N1124 N 0.89029 0.50115 0.86937 0.0
N1125 N 0.04961 0.56422 0.87341 0.0
H1126 H 0.98774 0.4969 0.78097 0.0
H1127 H 0.03259 0.51834 0.80866 0.0
H1128 H 0.06681 0.58084 0.89888 0.0
H1129 H 0.06459 0.57152 0.84588 0.0
H1130 H 0.87605 0.50732 0.89201 0.0
H1131 H 0.87371 0.49026 0.84203 0.0
H1132 H 0.90237 0.50664 0.94918 0.0
H1133 H 0.94853 0.53776 0.97217 0.0
C1134 C 0.54385 0.4731 0.8852 0.0
C1135 C 0.55709 0.5079 0.8568 0.0
C1136 C 0.54175 0.54568 0.90756 0.0
C1137 C 0.52224 0.50786 0.93218 0.0
N1138 N 0.49487 0.43227 0.93556 0.0
N1139 N 0.56648 0.57719 0.83972 0.0
C1140 C 0.52114 0.47064 0.91913 0.0
C1141 C 0.55592 0.54448 0.86789 0.0
N1142 N 0.55068 0.44108 0.87664 0.0
N1143 N 0.54677 0.58264 0.922 0.0
H1144 H 0.5778 0.57717 0.81139 0.0
H1145 H 0.56223 0.60292 0.84362 0.0
H1146 H 0.53613 0.58429 0.95033 0.0
H1147 H 0.56388 0.61187 0.90742 0.0
H1148 H 0.54362 0.41468 0.89617 0.0
H1149 H 0.54362 0.41468 0.89617 0.0
H1150 H 0.48954 0.40376 0.92385 0.0
H1151 H 0.47479 0.42873 0.95734 0.0
C1152 C 0.58178 0.05178 0.88711 0.0
C1153 C 0.55565 0.03854 0.85232 0.0
C1154 C 0.50647 0.98026 0.89495 0.0
C1155 C 0.53162 0.99668 0.93069 0.0
N1156 N 0.59928 0.03115 0.9534 0.0
N1157 N 0.49939 0.98216 0.81953 0.0
C1158 C 0.57121 0.02716 0.92445 0.0
C1159 C 0.52007 0.9998 0.85517 0.0
N1160 N 0.61581 0.08898 0.88568 0.0
N1161 N 0.46957 0.94703 0.89864 0.0
H1162 H 0.5094 0.99592 0.79038 0.0
H1163 H 0.47478 0.95241 0.81846 0.0
H1164 H 0.46054 0.9272 0.92487 0.0
H1165 H 0.44796 0.9386 0.87516 0.0
H1166 H 0.63378 0.10223 0.91185 0.0
H1167 H 0.62469 0.10758 0.85885 0.0
H1168 H 0.62913 0.04885 0.94794 0.0
H1169 H 0.59242 1.01297 0.98063 0.0
C1170 C 0.17496 0.31678 0.55143 0.0
C1171 C 0.1873 0.34819 0.581 0.0
C1172 C 0.21084 0.40229 0.52383 0.0
C1173 C 0.19542 0.36998 0.49397 0.0
N1174 N 0.14794 0.29676 0.48322 0.0
N1175 N 0.21017 0.42091 0.59478 0.0
C1176 C 0.17362 0.32733 0.50881 0.0
C1177 C 0.20412 0.39112 0.56705 0.0
N1178 N 0.16145 0.27583 0.5641 0.0
N1179 N 0.22995 0.44377 0.51125 0.0
H1180 H 0.204 0.41356 0.62608 0.0
H1181 H 0.21794 0.45203 0.58642 0.0
H1182 H 0.22776 0.45429 0.48109 0.0
H1183 H 0.24758 0.46792 0.53121 0.0
H1184 H 0.15629 0.25196 0.54416 0.0
H1185 H 0.15809 0.26644 0.59497 0.0
H1186 H 0.12886 0.26611 0.49339 0.0
H1187 H 0.14112 0.30339 0.45351 0.0
C1188 C 0.77102 0.90475 0.52695 0.0
C1189 C 0.75325 0.87077 0.5565 0.0
C1190 C 0.6997 0.83402 0.50427 0.0
C1191 C 0.71409 0.87132 0.47876 0.0
N1192 N 0.75816 0.94616 0.47385 0.0
N1193 N 0.69705 0.80457 0.57394 0.0
C1194 C 0.74878 0.9076 0.49173 0.0
C1195 C 0.71685 0.8354 0.54501 0.0
N1196 N 0.80802 0.93666 0.53464 0.0
N1197 N 0.66945 0.79735 0.48987 0.0
H1198 H 0.70849 0.80539 0.60377 0.0
H1199 H 0.66845 0.78038 0.56922 0.0
H1200 H 0.65593 0.79555 0.46066 0.0
H1201 H 0.66012 0.76829 0.50542 0.0
H1202 H 0.82372 0.96008 0.51244 0.0
H1203 H 0.8237 0.93801 0.56218 0.0
H1204 H 0.78063 0.97429 0.48538 0.0
H1205 H 0.74042 0.95062 0.45115 0.0
C1206 C 0.17626 0.87259 0.57018 0.0
C1207 C 0.15433 0.89444 0.56732 0.0
C1208 C 0.13895 0.87707 0.49382 0.0
C1209 C 0.16396 0.8589 0.49567 0.0
N1210 N 0.19423 0.82578 0.53824 0.0
N1211 N 0.12162 0.92476 0.5245 0.0
C1212 C 0.17875 0.85242 0.53483 0.0
C1213 C 0.13704 0.89816 0.52869 0.0
N1214 N 0.19799 0.87476 0.6055 0.0
N1215 N 0.11514 0.87192 0.45981 0.0
H1216 H 0.12188 0.94236 0.54892 0.0
H1217 H 0.11255 0.93281 0.49612 0.0
H1218 H 0.11051 0.84962 0.43838 0.0
H1219 H 0.09483 0.8827 0.45695 0.0
H1220 H 0.21816 0.8638 0.60815 0.0
H1221 H 0.19876 0.89132 0.63108 0.0
H1222 H 0.20226 0.81628 0.56645 0.0
H1223 H 0.19485 0.80939 0.51303 0.0
C1224 C 0.64961 0.84661 0.17363 0.0
C1225 C 0.60829 0.82614 0.17699 0.0
C1226 C 0.61709 0.84444 0.25022 0.0
C1227 C 0.65811 0.86028 0.24836 0.0
N1228 N 0.71399 0.89074 0.20524 0.0
N1229 N 0.55313 0.79697 0.22123 0.0
C1230 C 0.67452 0.86577 0.20896 0.0
C1231 C 0.59213 0.8233 0.21589 0.0
N1232 N 0.6649 0.84379 0.13779 0.0
N1233 N 0.60192 0.85129 0.28381 0.0
H1234 H 0.53455 0.77817 0.19776 0.0
H1235 H 0.54033 0.78977 0.25008 0.0
H1236 H 0.62003 0.87163 0.30626 0.0
H1237 H 0.57257 0.84316 0.28576 0.0
H1238 H 0.69447 0.85377 0.13439 0.0
H1239 H 0.64736 0.82756 0.11251 0.0
H1240 H 0.72779 0.89939 0.17696 0.0
H1241 H 0.73243 0.90679 0.23025 0.0
C1242 C 0.20965 0.80648 0.21965 0.0
C1243 C 0.2234 0.84126 0.19078 0.0
C1244 C 0.20767 0.8795 0.24088 0.0
C1245 C 0.18793 0.84188 0.26575 0.0
N1246 N 0.16088 0.76643 0.27034 0.0
N1247 N 0.23382 0.91087 0.17339 0.0
C1248 C 0.18681 0.80456 0.25318 0.0
C1249 C 0.22243 0.87808 0.20158 0.0
N1250 N 0.21601 0.77364 0.21296 0.0
N1251 N 0.21225 0.9165 0.25469 0.0
H1252 H 0.24605 0.91095 0.14562 0.0
H1253 H 0.22967 0.93674 0.17677 0.0
H1254 H 0.20071 0.9182 0.28239 0.0
H1255 H 0.22958 0.94569 0.24016 0.0
H1256 H 0.2082 0.74795 0.23361 0.0
H1257 H 0.23234 0.77434 0.18835 0.0
H1258 H 0.15572 0.73777 0.25911 0.0
H1259 H 0.14116 0.76319 0.29244 0.0
C1260 C 0.17571 0.33516 0.18756 0.0
C1261 C 0.21307 0.37103 0.18261 0.0
C1262 C 0.22965 0.35926 0.25414 0.0
C1263 C 0.18952 0.33307 0.26242 0.0
N1264 N 0.12267 0.29604 0.23394 0.0
N1265 N 0.27652 0.41741 0.21309 0.0
C1266 C 0.16195 0.32 0.22821 0.0
C1267 C 0.24056 0.38285 0.21625 0.0
N1268 N 0.15291 0.31702 0.1532 0.0
N1269 N 0.25753 0.35994 0.28159 0.0
H1270 H 0.28614 0.43431 0.18543 0.0
H1271 H 0.29574 0.43004 0.23857 0.0
H1272 H 0.24998 0.34019 0.30786 0.0
H1273 H 0.28727 0.37547 0.27529 0.0
H1274 H 0.12646 0.28891 0.1544 0.0
H1275 H 0.1629 0.32792 0.12335 0.0
H1276 H 0.10177 0.29057 0.21012 0.0
H1277 H 0.1103 0.28396 0.26249 0.0
C1278 C 0.85769 0.63991 0.86541 0.0
C1279 C 0.8427 0.65985 0.88921 0.0
C1280 C 0.86119 0.7163 0.8356 0.0
C1281 C 0.87807 0.69715 0.81316 0.0
N1282 N 0.90627 0.65061 0.81694 0.0
N1283 N 0.83963 0.72272 0.90241 0.0
C1284 C 0.88112 0.66234 0.83144 0.0
C1285 C 0.84772 0.70011 0.87606 0.0
N1286 N 0.84709 0.59856 0.87289 0.0
N1287 N 0.85791 0.74972 0.81839 0.0
H1288 H 0.83028 0.71174 0.93245 0.0
H1289 H 0.84571 0.75369 0.89599 0.0
H1290 H 0.86973 0.7641 0.78996 0.0
H1291 H 0.84178 0.76174 0.83138 0.0
H1292 H 0.85484 0.58167 0.85397 0.0
H1293 H 0.82639 0.58019 0.89452 0.0
H1294 H 0.91082 0.62682 0.8313 0.0
H1295 H 0.92606 0.66812 0.7942 0.0
C1296 C 0.44572 0.20567 0.85377 0.0
C1297 C 0.42398 0.197 0.88984 0.0
C1298 C 0.36471 0.17601 0.84498 0.0
C1299 C 0.38782 0.19543 0.80966 0.0
N1300 N 0.45243 0.22527 0.78098 0.0
N1301 N 0.36206 0.17729 0.91944 0.0
C1302 C 0.42884 0.20861 0.81399 0.0
C1303 C 0.38308 0.18234 0.88529 0.0
N1304 N 0.48284 0.21143 0.85773 0.0
N1305 N 0.32523 0.15053 0.84013 0.0
H1306 H 0.3745 0.182 0.94945 0.0
H1307 H 0.33316 0.17146 0.91752 0.0
H1308 H 0.31132 0.14192 0.81099 0.0
H1309 H 0.30752 0.13347 0.86478 0.0
H1310 H 0.49502 0.20884 0.88646 0.0
H1311 H 0.49956 0.21391 0.83269 0.0
H1312 H 0.48282 0.24254 0.78406 0.0
H1313 H 0.44197 0.22184 0.75056 0.0
C1314 C 0.79382 0.18848 0.87614 0.0
C1315 C 0.82372 0.21015 0.90633 0.0
C1316 C 0.86963 0.19976 0.8666 0.0
C1317 C 0.83924 0.17604 0.83705 0.0
N1318 N 0.76968 0.13292 0.8267 0.0
N1319 N 0.88378 0.21843 0.93863 0.0
C1320 C 0.80032 0.16581 0.84572 0.0
C1321 C 0.85941 0.20934 0.90441 0.0
N1322 N 0.75997 0.19047 0.87545 0.0
N1323 N 0.90826 0.21625 0.85817 0.0
H1324 H 0.87542 0.22292 0.96717 0.0
H1325 H 0.9093 0.21599 0.93961 0.0
H1326 H 0.91832 0.21436 0.82973 0.0
H1327 H 0.93064 0.23658 0.87815 0.0
H1328 H 0.73775 0.17625 0.85295 0.0
H1329 H 0.75586 0.20933 0.89536 0.0
H1330 H 0.74057 0.12249 0.83348 0.0
H1331 H 0.77439 0.11236 0.80976 0.0
C1332 C 0.26164 0.14023 0.54774 0.0
C1333 C 0.27438 0.1629 0.50952 0.0
C1334 C 0.33315 0.21574 0.5472 0.0
C1335 C 0.32405 0.18766 0.5823 0.0
N1336 N 0.28582 0.11567 0.60641 0.0
N1337 N 0.32611 0.22068 0.47228 0.0
C1338 C 0.28947 0.14819 0.58066 0.0
C1339 C 0.3109 0.20091 0.50911 0.0
N1340 N 0.22442 0.10752 0.55096 0.0
N1341 N 0.36384 0.25569 0.54969 0.0
H1342 H 0.31184 0.20893 0.44404 0.0
H1343 H 0.35423 0.2462 0.46973 0.0
H1344 H 0.38078 0.26673 0.57698 0.0
H1345 H 0.37004 0.27855 0.52601 0.0
H1346 H 0.21336 0.09199 0.57924 0.0
H1347 H 0.20422 0.09783 0.52596 0.0
H1348 H 0.26204 0.0854 0.60461 0.0
H1349 H 0.30948 0.11745 0.6243 0.0
C1350 C 0.88958 0.21491 0.53326 0.0
C1351 C 0.88674 0.1771 0.51939 0.0
C1352 C 0.85508 0.14077 0.58417 0.0
C1353 C 0.86079 0.17912 0.5998 0.0
N1354 N 0.88955 0.2546 0.59154 0.0
N1355 N 0.87676 0.10815 0.53571 0.0
C1356 C 0.88017 0.2169 0.5751 0.0
C1357 C 0.87357 0.14174 0.54719 0.0
N1358 N 0.89922 0.24812 0.50593 0.0
N1359 N 0.82857 0.10312 0.60173 0.0
H1360 H 0.86936 0.08109 0.55428 0.0
H1361 H 0.86936 0.08109 0.55428 0.0
H1362 H 0.81188 0.10089 0.62669 0.0
H1363 H 0.81973 0.07419 0.58854 0.0
H1364 H 0.89761 0.27497 0.51244 0.0
H1365 H 0.90658 0.24735 0.47575 0.0
H1366 H 0.90686 0.28357 0.57659 0.0
H1367 H 0.88251 0.25694 0.62161 0.0
C1368 C 0.84063 0.66528 0.5246 0.0
C1369 C 0.88006 0.69863 0.52412 0.0
C1370 C 0.89194 0.66691 0.58807 0.0
C1371 C 0.85175 0.64703 0.59619 0.0
N1372 N 0.78593 0.6203 0.56798 0.0
N1373 N 0.94369 0.73056 0.55878 0.0
C1374 C 0.82529 0.64297 0.56274 0.0
C1375 C 0.90639 0.69855 0.55611 0.0
N1376 N 0.81779 0.65667 0.4892 0.0
N1377 N 0.91582 0.65573 0.61112 0.0
H1378 H 0.95131 0.75892 0.54322 0.0
H1379 H 0.96469 0.73097 0.58033 0.0
H1380 H 0.90409 0.62986 0.63196 0.0
H1381 H 0.9454 0.66804 0.6052 0.0
H1382 H 0.78951 0.63125 0.48691 0.0
H1383 H 0.82897 0.67293 0.46128 0.0
H1384 H 0.76538 0.62074 0.54623 0.0
H1385 H 0.77407 0.60178 0.59465 0.0
loop_
_geom_bond_atom_site_label_1
_geom_bond_atom_site_label_2
_geom_bond_distance
_geom_bond_site_symmetry_2
_ccdc_geom_bond_type
C0 N1 1.317 . S
C0 N2 1.348 . S
C0 C3 1.485 . S
N1 C0 1.317 . S
N1 N5 1.370 . S
N2 C0 1.348 . S
N2 C4 1.346 . S
C3 C0 1.485 . S
C3 H7 0.960 . S
C3 H8 0.961 . S
C3 H9 0.960 . S
C4 N2 1.346 . S
C4 N5 1.307 . S
C4 C6 1.486 . S
N5 N1 1.370 . S
N5 C4 1.307 . S
C6 C4 1.486 . S
C6 H10 0.960 . S
C6 H11 0.960 . S
C6 H12 0.959 . S
H7 C3 0.960 . S
H8 C3 0.961 . S
H9 C3 0.960 . S
H10 C6 0.960 . S
H11 C6 0.960 . S
H12 C6 0.959 . S
C13 N14 1.317 . S
C13 N15 1.348 . S
C13 C16 1.485 . S
N14 C13 1.317 . S
N14 N18 1.370 . S
N15 C13 1.348 . S
N15 C17 1.346 . S
C16 C13 1.485 . S
C16 H20 0.960 . S
C16 H21 0.961 . S
C16 H22 0.960 . S
C17 N15 1.346 . S
C17 N18 1.307 . S
C17 C19 1.486 . S
N18 N14 1.370 . S
N18 C17 1.307 . S
C19 C17 1.486 . S
C19 H23 0.960 . S
C19 H24 0.960 . S
C19 H25 0.959 . S
H20 C16 0.960 . S
H21 C16 0.961 . S
H22 C16 0.960 . S
H23 C19 0.960 . S
H24 C19 0.960 . S
H25 C19 0.959 . S
C26 N27 1.317 . S
C26 N28 1.348 . S
C26 C29 1.485 . S
N27 C26 1.317 . S
N27 N31 1.370 . S
N28 C26 1.348 . S
N28 C30 1.346 . S
C29 C26 1.485 . S
C29 H33 0.960 . S
C29 H34 0.961 . S
C29 H35 0.960 . S
C30 N28 1.346 . S
C30 N31 1.307 . S
C30 C32 1.486 . S
N31 N27 1.370 . S
N31 C30 1.307 . S
C32 C30 1.486 . S
C32 H36 0.960 . S
C32 H37 0.960 . S
C32 H38 0.959 . S
H33 C29 0.960 . S
H34 C29 0.961 . S
H35 C29 0.960 . S
H36 C32 0.960 . S
H37 C32 0.960 . S
H38 C32 0.959 . S
C39 N40 1.317 . S
C39 N41 1.348 . S
C39 C42 1.485 . S
N40 C39 1.317 . S
N40 N44 1.370 . S
N41 C39 1.348 . S
N41 C43 1.346 . S
C42 C39 1.485 . S
C42 H46 0.960 . S
C42 H47 0.961 . S
C42 H48 0.960 . S
C43 N41 1.346 . S
C43 N44 1.307 . S
C43 C45 1.486 . S
N44 N40 1.370 . S
N44 C43 1.307 . S
C45 C43 1.486 . S
C45 H49 0.960 . S
C45 H50 0.960 . S
C45 H51 0.959 . S
H46 C42 0.960 . S
H47 C42 0.961 . S
H48 C42 0.960 . S
H49 C45 0.960 . S
H50 C45 0.960 . S
H51 C45 0.959 . S
C52 N53 1.317 . S
C52 N54 1.348 . S
C52 C55 1.485 . S
N53 C52 1.317 . S
N53 N57 1.370 . S
N54 C52 1.348 . S
N54 C56 1.346 . S
C55 C52 1.485 . S
C55 H59 0.960 . S
C55 H60 0.961 . S
C55 H61 0.960 . S
C56 N54 1.346 . S
C56 N57 1.307 . S
C56 C58 1.486 . S
N57 N53 1.370 . S
N57 C56 1.307 . S
C58 C56 1.486 . S
C58 H62 0.960 . S
C58 H63 0.960 . S
C58 H64 0.959 . S
H59 C55 0.960 . S
H60 C55 0.961 . S
H61 C55 0.960 . S
H62 C58 0.960 . S
H63 C58 0.960 . S
H64 C58 0.959 . S
C65 N66 1.317 . S
C65 N67 1.348 . S
C65 C68 1.485 . S
N66 C65 1.317 . S
N66 N70 1.370 . S
N67 C65 1.348 . S
N67 C69 1.346 . S
C68 C65 1.485 . S
C68 H72 0.960 . S
C68 H73 0.961 . S
C68 H74 0.960 . S
C69 N67 1.346 . S
C69 N70 1.307 . S
C69 C71 1.486 . S
N70 N66 1.370 . S
N70 C69 1.307 . S
C71 C69 1.486 . S
C71 H75 0.960 . S
C71 H76 0.960 . S
C71 H77 0.959 . S
H72 C68 0.960 . S
H73 C68 0.961 . S
H74 C68 0.960 . S
H75 C71 0.960 . S
H76 C71 0.960 . S
H77 C71 0.959 . S
C78 N79 1.317 . S
C78 N80 1.348 . S
C78 C81 1.485 . S
N79 C78 1.317 . S
N79 N83 1.370 . S
N80 C78 1.348 . S
N80 C82 1.346 . S
C81 C78 1.485 . S
C81 H85 0.960 . S
C81 H86 0.961 . S
C81 H87 0.960 . S
C82 N80 1.346 . S
C82 N83 1.307 . S
C82 C84 1.486 . S
N83 N79 1.370 . S
N83 C82 1.307 . S
C84 C82 1.486 . S
C84 H88 0.960 . S
C84 H89 0.960 . S
C84 H90 0.959 . S
H85 C81 0.960 . S
H86 C81 0.961 . S
H87 C81 0.960 . S
H88 C84 0.960 . S
H89 C84 0.960 . S
H90 C84 0.959 . S
C91 N92 1.317 . S
C91 N93 1.348 . S
C91 C94 1.485 . S
N92 C91 1.317 . S
N92 N96 1.370 . S
N93 C91 1.348 . S
N93 C95 1.346 . S
C94 C91 1.485 . S
C94 H98 0.960 . S
C94 H99 0.961 . S
C94 H100 0.960 . S
C95 N93 1.346 . S
C95 N96 1.307 . S
C95 C97 1.486 . S
N96 N92 1.370 . S
N96 C95 1.307 . S
C97 C95 1.486 . S
C97 H101 0.960 . S
C97 H102 0.960 . S
C97 H103 0.959 . S
H98 C94 0.960 . S
H99 C94 0.961 . S
H100 C94 0.960 . S
H101 C97 0.960 . S
H102 C97 0.960 . S
H103 C97 0.959 . S
C104 N105 1.317 . S
C104 N106 1.348 . S
C104 C107 1.485 . S
N105 C104 1.317 . S
N105 N109 1.370 . S
N106 C104 1.348 . S
N106 C108 1.346 . S
C107 C104 1.485 . S
C107 H111 0.960 . S
C107 H112 0.961 . S
C107 H113 0.960 . S
C108 N106 1.346 . S
C108 N109 1.307 . S
C108 C110 1.486 . S
N109 N105 1.370 . S
N109 C108 1.307 . S
C110 C108 1.486 . S
C110 H114 0.960 . S
C110 H115 0.960 . S
C110 H116 0.959 . S
H111 C107 0.960 . S
H112 C107 0.961 . S
H113 C107 0.960 . S
H114 C110 0.960 . S
H115 C110 0.960 . S
H116 C110 0.959 . S
C117 N118 1.317 . S
C117 N119 1.348 . S
C117 C120 1.485 . S
N118 C117 1.317 . S
N118 N122 1.370 . S
N119 C117 1.348 . S
N119 C121 1.346 . S
C120 C117 1.485 . S
C120 H124 0.960 . S
C120 H125 0.961 1_556 S
C120 H126 0.965 . S
C121 N119 1.346 . S
C121 N122 1.307 . S
C121 C123 1.486 . S
N122 N118 1.370 . S
N122 C121 1.307 . S
C123 C121 1.486 . S
C123 H127 0.960 . S
C123 H128 0.960 . S
C123 H129 0.959 . S
H124 C120 0.960 . S
H125 C120 0.961 1_554 S
H126 C120 0.965 . S
H127 C123 0.960 . S
H128 C123 0.960 . S
H129 C123 0.959 . S
C130 N131 1.317 . S
C130 N132 1.348 . S
C130 C133 1.485 1_556 S
N131 C130 1.317 . S
N131 N135 1.370 . S
N132 C130 1.348 . S
N132 C134 1.346 . S
C133 C130 1.485 1_554 S
C133 H137 0.960 . S
C133 H138 0.961 . S
C133 H139 0.960 . S
C134 N132 1.346 . S
C134 N135 1.307 . S
C134 C136 1.486 . S
N135 N131 1.370 . S
N135 C134 1.307 . S
C136 C134 1.486 . S
C136 H140 0.960 . S
C136 H141 0.960 . S
C136 H142 0.959 . S
H137 C133 0.960 . S
H138 C133 0.961 . S
H139 C133 0.960 . S
H140 C136 0.960 . S
H141 C136 0.960 . S
H142 C136 0.959 . S
C143 N144 1.317 . S
C143 N145 1.348 . S
C143 C146 1.485 1_556 S
N144 C143 1.317 . S
N144 N148 1.370 . S
N145 C143 1.348 . S
N145 C147 1.346 . S
C146 C143 1.485 1_554 S
C146 H150 0.960 . S
C146 H151 0.961 . S
C146 H152 0.960 . S
C147 N145 1.346 . S
C147 N148 1.307 . S
C147 C149 1.486 . S
N148 N144 1.370 . S
N148 C147 1.307 . S
C149 C147 1.486 . S
C149 H153 0.960 . S
C149 H154 0.960 . S
C149 H155 0.959 . S
H150 C146 0.960 . S
H151 C146 0.961 . S
H152 C146 0.960 . S
H153 C149 0.960 . S
H154 C149 0.960 . S
H155 C149 0.959 . S
C156 N157 1.317 . S
C156 N158 1.348 . S
C156 C159 1.485 . S
N157 C156 1.317 . S
N157 N161 1.370 . S
N158 C156 1.348 . S
N158 C160 1.346 . S
C159 C156 1.485 . S
C159 H163 0.960 . S
C159 H164 0.961 1_554 S
C159 H165 0.960 1_554 S
C160 N158 1.346 . S
C160 N161 1.307 . S
C160 C162 1.486 . S
N161 N157 1.370 . S
N161 C160 1.307 . S
C162 C160 1.486 . S
C162 H166 0.960 . S
C162 H167 0.960 . S
C162 H168 0.959 . S
H163 C159 0.960 . S
H164 C159 0.961 1_556 S
H165 C159 0.960 1_556 S
H166 C162 0.960 . S
H167 C162 0.960 . S
H168 C162 0.959 . S
C169 N170 1.317 . S
C169 N171 1.348 . S
C169 C172 1.485 . S
N170 C169 1.317 . S
N170 N174 1.370 . S
N171 C169 1.348 . S
N171 C173 1.346 . S
C172 C169 1.485 . S
C172 H176 0.960 . S
C172 H177 0.961 . S
C172 H178 0.960 . S
C173 N171 1.346 . S
C173 N174 1.307 . S
C173 C175 1.486 . S
N174 N170 1.370 . S
N174 C173 1.307 . S
C175 C173 1.486 . S
C175 H179 0.960 . S
C175 H180 0.960 . S
C175 H181 0.959 . S
H176 C172 0.960 . S
H177 C172 0.961 . S
H178 C172 0.960 . S
H179 C175 0.960 . S
H180 C175 0.960 . S
H181 C175 0.959 . S
C182 N183 1.317 . S
C182 N184 1.348 . S
C182 C185 1.485 . S
N183 C182 1.317 . S
N183 N187 1.370 . S
N184 C182 1.348 . S
N184 C186 1.346 . S
C185 C182 1.485 . S
C185 H189 0.960 . S
C185 H190 0.961 . S
C185 H191 0.960 . S
C186 N184 1.346 . S
C186 N187 1.307 . S
C186 C188 1.486 . S
N187 N183 1.370 . S
N187 C186 1.307 . S
C188 C186 1.486 . S
C188 H192 0.960 . S
C188 H193 0.960 . S
C188 H194 0.959 . S
H189 C185 0.960 . S
H190 C185 0.961 . S
H191 C185 0.960 . S
H192 C188 0.960 . S
H193 C188 0.960 . S
H194 C188 0.959 . S
C195 N196 1.317 . S
C195 N197 1.348 . S
C195 C198 1.485 . S
N196 C195 1.317 . S
N196 N200 1.370 . S
N197 C195 1.348 . S
N197 C199 1.346 . S
C198 C195 1.485 . S
C198 H202 0.960 . S
C198 H203 0.961 . S
C198 H204 0.960 . S
C199 N197 1.346 . S
C199 N200 1.307 . S
C199 C201 1.486 . S
N200 N196 1.370 . S
N200 C199 1.307 . S
C201 C199 1.486 . S
C201 H205 0.960 . S
C201 H206 0.960 . S
C201 H207 0.959 . S
H202 C198 0.960 . S
H203 C198 0.961 . S
H204 C198 0.960 . S
H205 C201 0.960 . S
H206 C201 0.960 . S
H207 C201 0.959 . S
C208 N209 1.317 . S
C208 N210 1.348 . S
C208 C211 1.485 . S
N209 C208 1.317 . S
N209 N213 1.370 . S
N210 C208 1.348 . S
N210 C212 1.346 . S
C211 C208 1.485 . S
C211 H215 0.960 . S
C211 H216 0.961 . S
C211 H217 0.960 . S
C212 N210 1.346 . S
C212 N213 1.307 . S
C212 C214 1.486 . S
N213 N209 1.370 . S
N213 C212 1.307 . S
C214 C212 1.486 . S
C214 H218 0.960 . S
C214 H219 0.960 . S
C214 H220 0.959 . S
H215 C211 0.960 . S
H216 C211 0.961 . S
H217 C211 0.960 . S
H218 C214 0.960 . S
H219 C214 0.960 . S
H220 C214 0.959 . S
C221 N222 1.317 . S
C221 N223 1.348 . S
C221 C224 1.485 . S
N222 C221 1.317 . S
N222 N226 1.370 . S
N223 C221 1.348 . S
N223 C225 1.346 . S
C224 C221 1.485 . S
C224 H228 0.960 . S
C224 H229 0.961 . S
C224 H230 0.960 . S
C225 N223 1.346 . S
C225 N226 1.307 . S
C225 C227 1.486 . S
N226 N222 1.370 . S
N226 C225 1.307 . S
C227 C225 1.486 . S
C227 H231 0.960 . S
C227 H232 0.960 . S
C227 H233 0.959 . S
H228 C224 0.960 . S
H229 C224 0.961 . S
H230 C224 0.960 . S
H231 C227 0.960 . S
H232 C227 0.960 . S
H233 C227 0.959 . S
Tb234 O237 2.453 . S
Tb234 O238 2.596 1_545 S
Tb234 O239 2.374 1_545 S
Tb234 O247 2.343 1_554 S
Tb234 O249 2.353 . S
Tb234 O251 2.427 . S
Tb234 O252 2.513 . S
C235 O239 1.251 . S
C235 O241 1.263 . S
Tb236 O238 2.343 1_556 S
Tb236 O241 2.353 1_556 S
Tb236 O244 2.427 1_556 S
Tb236 O245 2.513 1_556 S
Tb236 O246 2.453 . S
Tb236 O247 2.596 1_565 S
Tb236 O248 2.374 1_566 S
O237 Tb234 2.453 . S
O237 C253 1.245 1_545 S
O238 Tb234 2.596 1_565 S
O238 Tb236 2.343 1_554 S
O238 C253 1.259 . S
O239 Tb234 2.374 1_565 S
O239 C235 1.251 . S
C240 O244 1.275 . S
C240 O245 1.246 . S
O241 C235 1.263 . S
O241 Tb236 2.353 1_554 S
C242 O246 1.245 1_545 S
C242 O247 1.259 . S
C243 O248 1.250 . S
C243 O249 1.263 . S
O244 Tb236 2.427 1_554 S
O244 C240 1.275 . S
O245 Tb236 2.513 1_554 S
O245 C240 1.246 . S
O246 Tb236 2.453 . S
O246 C242 1.245 1_565 S
O247 Tb234 2.343 1_556 S
O247 Tb236 2.596 1_545 S
O247 C242 1.259 . S
O248 Tb236 2.374 1_544 S
O248 C243 1.250 . S
O249 Tb234 2.353 . S
O249 C243 1.263 . S
C250 O251 1.275 . S
C250 O252 1.246 . S
O251 Tb234 2.427 . S
O251 C250 1.275 . S
O252 Tb234 2.513 . S
O252 C250 1.246 . S
C253 O237 1.245 1_565 S
C253 O238 1.259 . S
Tb254 O257 2.453 . S
Tb254 O258 2.596 1_655 S
Tb254 O259 2.374 1_655 S
Tb254 O267 2.343 1_554 S
Tb254 O269 2.353 . S
Tb254 O271 2.427 1_554 S
Tb254 O272 2.513 1_554 S
C255 O259 1.251 . S
C255 O261 1.263 1_554 S
Tb256 O258 2.343 1_556 S
Tb256 O261 2.353 . S
Tb256 O264 2.427 1_556 S
Tb256 O265 2.513 1_556 S
Tb256 O266 2.453 . S
Tb256 O267 2.596 1_455 S
Tb256 O268 2.374 1_455 S
O257 Tb254 2.453 . S
O257 C273 1.245 1_655 S
O258 Tb254 2.596 1_455 S
O258 Tb256 2.343 1_554 S
O258 C273 1.259 . S
O259 Tb254 2.374 1_455 S
O259 C255 1.251 . S
C260 O264 1.275 . S
C260 O265 1.246 . S
O261 C255 1.263 1_556 S
O261 Tb256 2.353 . S
C262 O266 1.245 1_655 S
C262 O267 1.259 . S
C263 O268 1.250 1_554 S
C263 O269 1.263 . S
O264 Tb256 2.427 1_554 S
O264 C260 1.275 . S
O265 Tb256 2.513 1_554 S
O265 C260 1.246 . S
O266 Tb256 2.453 . S
O266 C262 1.245 1_455 S
O267 Tb254 2.343 1_556 S
O267 Tb256 2.596 1_655 S
O267 C262 1.259 . S
O268 Tb256 2.374 1_655 S
O268 C263 1.250 1_556 S
O269 Tb254 2.353 . S
O269 C263 1.263 . S
C270 O271 1.275 . S
C270 O272 1.246 . S
O271 Tb254 2.427 1_556 S
O271 C270 1.275 . S
O272 Tb254 2.513 1_556 S
O272 C270 1.246 . S
C273 O257 1.245 1_455 S
C273 O258 1.259 . S
Tb274 O277 2.453 1_554 S
Tb274 O278 2.596 1_554 S
Tb274 O279 2.374 . S
Tb274 O287 2.343 . S
Tb274 O289 2.353 . S
Tb274 O291 2.427 . S
Tb274 O292 2.513 . S
C275 O279 1.251 . S
C275 O281 1.263 . S
Tb276 O278 2.343 1_554 S
Tb276 O281 2.353 . S
Tb276 O284 2.427 . S
Tb276 O285 2.513 . S
Tb276 O286 2.453 . S
Tb276 O287 2.596 . S
Tb276 O288 2.374 . S
O277 Tb274 2.453 1_556 S
O277 C293 1.245 . S
O278 Tb274 2.596 1_556 S
O278 Tb276 2.343 1_556 S
O278 C293 1.259 . S
O279 Tb274 2.374 . S
O279 C275 1.251 . S
C280 O284 1.275 1_556 S
C280 O285 1.246 1_556 S
O281 C275 1.263 . S
O281 Tb276 2.353 . S
C282 O286 1.245 . S
C282 O287 1.259 . S
C283 O288 1.250 . S
C283 O289 1.263 . S
O284 Tb276 2.427 . S
O284 C280 1.275 1_554 S
O285 Tb276 2.513 . S
O285 C280 1.246 1_554 S
O286 Tb276 2.453 . S
O286 C282 1.245 . S
O287 Tb274 2.343 . S
O287 Tb276 2.596 . S
O287 C282 1.259 . S
O288 Tb276 2.374 . S
O288 C283 1.250 . S
O289 Tb274 2.353 . S
O289 C283 1.263 . S
C290 O291 1.275 . S
C290 O292 1.246 . S
O291 Tb274 2.427 . S
O291 C290 1.275 . S
O292 Tb274 2.513 . S
O292 C290 1.246 . S
C293 O277 1.245 . S
C293 O278 1.259 . S
Tb294 O297 2.453 . S
Tb294 O298 2.596 . S
Tb294 O299 2.374 . S
Tb294 O307 2.343 . S
Tb294 O309 2.353 . S
Tb294 O311 2.427 . S
Tb294 O312 2.513 . S
C295 O299 1.251 . S
C295 O301 1.263 . S
Tb296 O298 2.343 . S
Tb296 O301 2.353 . S
Tb296 O304 2.427 . S
Tb296 O305 2.513 . S
Tb296 O306 2.453 . S
Tb296 O307 2.596 . S
Tb296 O308 2.374 . S
O297 Tb294 2.453 . S
O297 C313 1.245 . S
O298 Tb294 2.596 . S
O298 Tb296 2.343 . S
O298 C313 1.259 . S
O299 Tb294 2.374 . S
O299 C295 1.251 . S
C300 O304 1.275 . S
C300 O305 1.246 . S
O301 C295 1.263 . S
O301 Tb296 2.353 . S
C302 O306 1.245 . S
C302 O307 1.259 . S
C303 O308 1.250 . S
C303 O309 1.263 . S
O304 Tb296 2.427 . S
O304 C300 1.275 . S
O305 Tb296 2.513 . S
O305 C300 1.246 . S
O306 Tb296 2.453 . S
O306 C302 1.245 . S
O307 Tb294 2.343 . S
O307 Tb296 2.596 . S
O307 C302 1.259 . S
O308 Tb296 2.374 . S
O308 C303 1.250 . S
O309 Tb294 2.353 . S
O309 C303 1.263 . S
C310 O311 1.275 . S
C310 O312 1.246 . S
O311 Tb294 2.427 . S
O311 C310 1.275 . S
O312 Tb294 2.513 . S
O312 C310 1.246 . S
C313 O297 1.245 . S
C313 O298 1.259 . S
Tb314 O317 2.453 . S
Tb314 O318 2.596 . S
Tb314 O319 2.374 . S
Tb314 O327 2.343 . S
Tb314 O329 2.353 . S
Tb314 O331 2.427 . S
Tb314 O332 2.513 . S
C315 O319 1.251 . S
C315 O321 1.263 . S
Tb316 O318 2.343 . S
Tb316 O321 2.353 . S
Tb316 O324 2.427 . S
Tb316 O325 2.513 . S
Tb316 O326 2.453 . S
Tb316 O327 2.596 . S
Tb316 O328 2.374 . S
O317 Tb314 2.453 . S
O317 C333 1.245 . S
O318 Tb314 2.596 . S
O318 Tb316 2.343 . S
O318 C333 1.259 . S
O319 Tb314 2.374 . S
O319 C315 1.251 . S
C320 O324 1.275 . S
C320 O325 1.246 . S
O321 C315 1.263 . S
O321 Tb316 2.353 . S
C322 O326 1.245 . S
C322 O327 1.259 . S
C323 O328 1.250 . S
C323 O329 1.263 . S
O324 Tb316 2.427 . S
O324 C320 1.275 . S
O325 Tb316 2.513 . S
O325 C320 1.246 . S
O326 Tb316 2.453 . S
O326 C322 1.245 . S
O327 Tb314 2.343 . S
O327 Tb316 2.596 . S
O327 C322 1.259 . S
O328 Tb316 2.374 . S
O328 C323 1.250 . S
O329 Tb314 2.353 . S
O329 C323 1.263 . S
C330 O331 1.275 . S
C330 O332 1.246 . S
O331 Tb314 2.427 . S
O331 C330 1.275 . S
O332 Tb314 2.513 . S
O332 C330 1.246 . S
C333 O317 1.245 . S
C333 O318 1.259 . S
Tb334 O337 2.453 . S
Tb334 O338 2.596 . S
Tb334 O339 2.374 . S
Tb334 O347 2.343 . S
Tb334 O349 2.353 . S
Tb334 O351 2.427 . S
Tb334 O352 2.513 . S
C335 O339 1.251 . S
C335 O341 1.263 . S
Tb336 O338 2.343 . S
Tb336 O341 2.353 . S
Tb336 O344 2.427 . S
Tb336 O345 2.513 . S
Tb336 O346 2.453 . S
Tb336 O347 2.596 . S
Tb336 O348 2.374 . S
O337 Tb334 2.453 . S
O337 C353 1.245 . S
O338 Tb334 2.596 . S
O338 Tb336 2.343 . S
O338 C353 1.259 . S
O339 Tb334 2.374 . S
O339 C335 1.251 . S
C340 O344 1.275 . S
C340 O345 1.246 . S
O341 C335 1.263 . S
O341 Tb336 2.353 . S
C342 O346 1.245 . S
C342 O347 1.259 . S
C343 O348 1.250 . S
C343 O349 1.263 . S
O344 Tb336 2.427 . S
O344 C340 1.275 . S
O345 Tb336 2.513 . S
O345 C340 1.246 . S
O346 Tb336 2.453 . S
O346 C342 1.245 . S
O347 Tb334 2.343 . S
O347 Tb336 2.596 . S
O347 C342 1.259 . S
O348 Tb336 2.374 . S
O348 C343 1.250 . S
O349 Tb334 2.353 . S
O349 C343 1.263 . S
C350 O351 1.275 . S
C350 O352 1.246 . S
O351 Tb334 2.427 . S
O351 C350 1.275 . S
O352 Tb334 2.513 . S
O352 C350 1.246 . S
C353 O337 1.245 . S
C353 O338 1.259 . S
Tb354 O357 2.453 . S
Tb354 O358 2.596 . S
Tb354 O359 2.374 . S
Tb354 O367 2.343 . S
Tb354 O369 2.353 . S
Tb354 O371 2.427 . S
Tb354 O372 2.513 . S
C355 O359 1.251 . S
C355 O361 1.263 . S
Tb356 O358 2.343 . S
Tb356 O361 2.353 . S
Tb356 O364 2.427 . S
Tb356 O365 2.513 . S
Tb356 O366 2.453 . S
Tb356 O367 2.596 . S
Tb356 O368 2.374 . S
O357 Tb354 2.453 . S
O357 C373 1.245 . S
O358 Tb354 2.596 . S
O358 Tb356 2.343 . S
O358 C373 1.259 . S
O359 Tb354 2.374 . S
O359 C355 1.251 . S
C360 O364 1.275 . S
C360 O365 1.246 . S
O361 C355 1.263 . S
O361 Tb356 2.353 . S
C362 O366 1.245 . S
C362 O367 1.259 . S
C363 O368 1.250 . S
C363 O369 1.263 . S
O364 Tb356 2.427 . S
O364 C360 1.275 . S
O365 Tb356 2.513 . S
O365 C360 1.246 . S
O366 Tb356 2.453 . S
O366 C362 1.245 . S
O367 Tb354 2.343 . S
O367 Tb356 2.596 . S
O367 C362 1.259 . S
O368 Tb356 2.374 . S
O368 C363 1.250 . S
O369 Tb354 2.353 . S
O369 C363 1.263 . S
C370 O371 1.275 . S
C370 O372 1.246 . S
O371 Tb354 2.427 . S
O371 C370 1.275 . S
O372 Tb354 2.513 . S
O372 C370 1.246 . S
C373 O357 1.245 . S
C373 O358 1.259 . S
Tb374 O377 2.453 . S
Tb374 O378 2.596 . S
Tb374 O379 2.374 . S
Tb374 O387 2.343 . S
Tb374 O389 2.353 . S
Tb374 O391 2.427 . S
Tb374 O392 2.513 . S
C375 O379 1.251 . S
C375 O381 1.263 . S
Tb376 O378 2.343 . S
Tb376 O381 2.353 . S
Tb376 O384 2.427 . S
Tb376 O385 2.513 . S
Tb376 O386 2.453 . S
Tb376 O387 2.596 . S
Tb376 O388 2.374 . S
O377 Tb374 2.453 . S
O377 C393 1.245 . S
O378 Tb374 2.596 . S
O378 Tb376 2.343 . S
O378 C393 1.259 . S
O379 Tb374 2.374 . S
O379 C375 1.251 . S
C380 O384 1.275 . S
C380 O385 1.246 . S
O381 C375 1.263 . S
O381 Tb376 2.353 . S
C382 O386 1.245 . S
C382 O387 1.259 . S
C383 O388 1.250 . S
C383 O389 1.263 . S
O384 Tb376 2.427 . S
O384 C380 1.275 . S
O385 Tb376 2.513 . S
O385 C380 1.246 . S
O386 Tb376 2.453 . S
O386 C382 1.245 . S
O387 Tb374 2.343 . S
O387 Tb376 2.596 . S
O387 C382 1.259 . S
O388 Tb376 2.374 . S
O388 C383 1.250 . S
O389 Tb374 2.353 . S
O389 C383 1.263 . S
C390 O391 1.275 . S
C390 O392 1.246 . S
O391 Tb374 2.427 . S
O391 C390 1.275 . S
O392 Tb374 2.513 . S
O392 C390 1.246 . S
C393 O377 1.245 . S
C393 O378 1.259 . S
Tb394 O397 2.453 . S
Tb394 O398 2.596 . S
Tb394 O399 2.374 . S
Tb394 O407 2.343 . S
Tb394 O409 2.353 . S
Tb394 O411 2.427 . S
Tb394 O412 2.513 . S
C395 O399 1.251 . S
C395 O401 1.263 . S
Tb396 O398 2.343 . S
Tb396 O401 2.353 . S
Tb396 O404 2.427 . S
Tb396 O405 2.513 . S
Tb396 O406 2.453 . S
Tb396 O407 2.596 . S
Tb396 O408 2.374 . S
O397 Tb394 2.453 . S
O397 C413 1.245 . S
O398 Tb394 2.596 . S
O398 Tb396 2.343 . S
O398 C413 1.259 . S
O399 Tb394 2.374 . S
O399 C395 1.251 . S
C400 O404 1.275 . S
C400 O405 1.246 . S
O401 C395 1.263 . S
O401 Tb396 2.353 . S
C402 O406 1.245 . S
C402 O407 1.259 . S
C403 O408 1.250 . S
C403 O409 1.263 . S
O404 Tb396 2.427 . S
O404 C400 1.275 . S
O405 Tb396 2.513 . S
O405 C400 1.246 . S
O406 Tb396 2.453 . S
O406 C402 1.245 . S
O407 Tb394 2.343 . S
O407 Tb396 2.596 . S
O407 C402 1.259 . S
O408 Tb396 2.374 . S
O408 C403 1.250 . S
O409 Tb394 2.353 . S
O409 C403 1.263 . S
C410 O411 1.275 . S
C410 O412 1.246 . S
O411 Tb394 2.427 . S
O411 C410 1.275 . S
O412 Tb394 2.513 . S
O412 C410 1.246 . S
C413 O397 1.245 . S
C413 O398 1.259 . S
C414 C415 1.363 . S
C414 C420 1.379 . S
C414 N422 1.356 . S
C415 C414 1.363 . S
C415 C421 1.363 . S
C416 C417 1.363 . S
C416 C421 1.379 . S
C416 N423 1.356 . S
C417 C416 1.363 . S
C417 C420 1.363 . S
N418 C420 1.356 . S
N418 H430 0.984 . S
N418 H431 0.985 . S
N419 C421 1.356 . S
N419 H424 0.984 . S
N419 H425 0.985 . S
C420 C414 1.379 . S
C420 C417 1.363 . S
C420 N418 1.356 . S
C421 C415 1.363 . S
C421 C416 1.379 . S
C421 N419 1.356 . S
N422 C414 1.356 . S
N422 H428 0.984 . S
N422 H429 0.984 . S
N423 C416 1.356 . S
N423 H426 0.984 . S
N423 H427 0.985 . S
H424 N419 0.984 . S
H425 N419 0.985 . S
H426 N423 0.984 . S
H427 N423 0.985 . S
H428 N422 0.984 . S
H429 N422 0.984 . S
H430 N418 0.984 . S
H431 N418 0.985 . S
C432 C433 1.363 . S
C432 C438 1.379 . S
C432 N440 1.356 . S
C433 C432 1.363 . S
C433 C439 1.363 . S
C434 C435 1.363 . S
C434 C439 1.379 . S
C434 N441 1.356 . S
C435 C434 1.363 . S
C435 C438 1.363 . S
N436 C438 1.356 . S
N436 H448 0.984 . S
N436 H449 0.985 . S
N437 C439 1.356 . S
N437 H442 0.984 . S
N437 H443 0.985 . S
C438 C432 1.379 . S
C438 C435 1.363 . S
C438 N436 1.356 . S
C439 C433 1.363 . S
C439 C434 1.379 . S
C439 N437 1.356 . S
N440 C432 1.356 . S
N440 H446 0.984 . S
N440 H447 0.984 . S
N441 C434 1.356 . S
N441 H444 0.984 . S
N441 H445 0.985 . S
H442 N437 0.984 . S
H443 N437 0.985 . S
H444 N441 0.984 . S
H445 N441 0.985 . S
H446 N440 0.984 . S
H447 N440 0.984 . S
H448 N436 0.984 . S
H449 N436 0.985 . S
C450 C451 1.363 . S
C450 C456 1.379 . S
C450 N458 1.356 . S
C451 C450 1.363 . S
C451 C457 1.363 . S
C452 C453 1.363 . S
C452 C457 1.379 . S
C452 N459 1.356 1_554 S
C453 C452 1.363 . S
C453 C456 1.363 . S
N454 C456 1.356 . S
N454 H466 0.984 . S
N454 H467 0.985 . S
N455 C457 1.356 . S
N455 H460 0.984 . S
N455 H461 0.985 1_554 S
C456 C450 1.379 . S
C456 C453 1.363 . S
C456 N454 1.356 . S
C457 C451 1.363 . S
C457 C452 1.379 . S
C457 N455 1.356 . S
N458 C450 1.356 . S
N458 H464 0.984 . S
N458 H465 0.984 . S
N459 C452 1.356 1_556 S
N459 H462 0.984 1_556 S
N459 H463 0.985 . S
H460 N455 0.984 . S
H461 N455 0.985 1_556 S
H462 N459 0.984 1_554 S
H463 N459 0.985 . S
H464 N458 0.984 . S
H465 N458 0.984 . S
H466 N454 0.984 . S
H467 N454 0.985 . S
C468 C469 1.363 . S
C468 C474 1.379 . S
C468 N476 1.356 . S
C469 C468 1.363 . S
C469 C475 1.363 1_556 S
C470 C471 1.363 1_554 S
C470 C475 1.379 . S
C470 N477 1.356 . S
C471 C470 1.363 1_556 S
C471 C474 1.363 . S
N472 C474 1.356 . S
N472 H484 0.984 . S
N472 H485 0.985 . S
N473 C475 1.356 . S
N473 H478 0.984 . S
N473 H479 0.985 . S
C474 C468 1.379 . S
C474 C471 1.363 . S
C474 N472 1.356 . S
C475 C469 1.363 1_554 S
C475 C470 1.379 . S
C475 N473 1.356 . S
N476 C468 1.356 . S
N476 H482 0.984 . S
N476 H483 0.984 . S
N477 C470 1.356 . S
N477 H480 0.984 . S
N477 H481 0.985 . S
H478 N473 0.984 . S
H479 N473 0.985 . S
H480 N477 0.984 . S
H481 N477 0.985 . S
H482 N476 0.984 . S
H483 N476 0.984 . S
H484 N472 0.984 . S
H485 N472 0.985 . S
C486 C487 1.363 . S
C486 C492 1.379 1_556 S
C486 N494 1.349 1_556 S
C487 C486 1.363 . S
C487 C493 1.363 . S
C488 C489 1.363 . S
C488 C493 1.379 . S
C488 N495 1.356 . S
C489 C488 1.363 . S
C489 C492 1.363 1_556 S
N490 C492 1.356 . S
N490 H502 0.984 . S
N490 H503 0.985 . S
N491 C493 1.356 . S
N491 H496 0.984 . S
N491 H497 0.985 . S
C492 C486 1.379 1_554 S
C492 C489 1.363 1_554 S
C492 N490 1.356 . S
C493 C487 1.363 . S
C493 C488 1.379 . S
C493 N491 1.356 . S
N494 C486 1.349 1_554 S
N494 H500 1.009 . S
N494 H501 0.967 1_554 S
N495 C488 1.356 . S
N495 H498 0.984 . S
N495 H499 0.985 . S
H496 N491 0.984 . S
H497 N491 0.985 . S
H498 N495 0.984 . S
H499 N495 0.985 . S
H500 N494 1.009 . S
H501 N494 0.967 1_556 S
H502 N490 0.984 . S
H503 N490 0.985 . S
C504 C505 1.363 1_554 S
C504 C510 1.379 . S
C504 N512 1.356 . S
C505 C504 1.363 1_556 S
C505 C511 1.363 . S
C506 C507 1.363 . S
C506 C511 1.379 . S
C506 N513 1.356 . S
C507 C506 1.363 . S
C507 C510 1.363 1_556 S
N508 C510 1.356 . S
N508 H520 0.984 . S
N508 H521 0.985 . S
N509 C511 1.356 . S
N509 H514 0.984 . S
N509 H515 0.985 . S
C510 C504 1.379 . S
C510 C507 1.363 1_554 S
C510 N508 1.356 . S
C511 C505 1.363 . S
C511 C506 1.379 . S
C511 N509 1.356 . S
N512 C504 1.356 . S
N512 H518 0.984 . S
N512 H519 0.984 1_554 S
N513 C506 1.356 . S
N513 H516 0.984 . S
N513 H517 0.985 . S
H514 N509 0.984 . S
H515 N509 0.985 . S
H516 N513 0.984 . S
H517 N513 0.985 . S
H518 N512 0.984 . S
H519 N512 0.984 1_556 S
H520 N508 0.984 . S
H521 N508 0.985 . S
C522 C523 1.363 . S
C522 C528 1.379 . S
C522 N530 1.356 . S
C523 C522 1.363 . S
C523 C529 1.363 . S
C524 C525 1.363 . S
C524 C529 1.379 . S
C524 N531 1.356 . S
C525 C524 1.363 . S
C525 C528 1.363 . S
N526 C528 1.356 . S
N526 H538 0.984 . S
N526 H539 0.985 . S
N527 C529 1.356 . S
N527 H532 0.984 . S
N527 H533 0.985 . S
C528 C522 1.379 . S
C528 C525 1.363 . S
C528 N526 1.356 . S
C529 C523 1.363 . S
C529 C524 1.379 . S
C529 N527 1.356 . S
N530 C522 1.356 . S
N530 H536 0.984 . S
N530 H537 0.984 . S
N531 C524 1.356 . S
N531 H534 0.984 . S
N531 H535 0.985 . S
H532 N527 0.984 . S
H533 N527 0.985 . S
H534 N531 0.984 . S
H535 N531 0.985 . S
H536 N530 0.984 . S
H537 N530 0.984 . S
H538 N526 0.984 . S
H539 N526 0.985 . S
C540 C541 1.363 . S
C540 C546 1.379 . S
C540 N548 1.356 . S
C541 C540 1.363 . S
C541 C547 1.363 . S
C542 C543 1.363 . S
C542 C547 1.379 . S
C542 N549 1.356 . S
C543 C542 1.363 . S
C543 C546 1.363 . S
N544 C546 1.356 . S
N544 H556 0.984 . S
N544 H557 0.985 . S
N545 C547 1.356 . S
N545 H550 0.984 . S
N545 H551 0.985 . S
C546 C540 1.379 . S
C546 C543 1.363 . S
C546 N544 1.356 . S
C547 C541 1.363 . S
C547 C542 1.379 . S
C547 N545 1.356 . S
N548 C540 1.356 . S
N548 H554 0.984 . S
N548 H555 0.984 . S
N549 C542 1.356 . S
N549 H552 0.984 . S
N549 H553 0.985 . S
H550 N545 0.984 . S
H551 N545 0.985 . S
H552 N549 0.984 . S
H553 N549 0.985 . S
H554 N548 0.984 . S
H555 N548 0.984 . S
H556 N544 0.984 . S
H557 N544 0.985 . S
C558 C559 1.363 1_554 S
C558 C564 1.379 . S
C558 N566 1.356 . S
C559 C558 1.363 1_556 S
C559 C565 1.363 . S
C560 C561 1.363 1_556 S
C560 C565 1.379 . S
C560 N567 1.356 . S
C561 C560 1.363 1_554 S
C561 C564 1.363 . S
N562 C564 1.356 . S
N562 H574 0.984 . S
N562 H575 0.985 . S
N563 C565 1.356 . S
N563 H568 0.984 . S
N563 H569 0.985 . S
C564 C558 1.379 . S
C564 C561 1.363 . S
C564 N562 1.356 . S
C565 C559 1.363 . S
C565 C560 1.379 . S
C565 N563 1.356 . S
N566 C558 1.356 . S
N566 H572 0.984 . S
N566 H573 0.984 . S
N567 C560 1.356 . S
N567 H570 0.984 . S
N567 H571 0.985 . S
H568 N563 0.984 . S
H569 N563 0.985 . S
H570 N567 0.984 . S
H571 N567 0.985 . S
H572 N566 0.984 . S
H573 N566 0.984 . S
H574 N562 0.984 . S
H575 N562 0.985 . S
C576 C577 1.363 . S
C576 C582 1.379 . S
C576 N584 1.356 . S
C577 C576 1.363 . S
C577 C583 1.363 . S
C578 C579 1.363 . S
C578 C583 1.379 . S
C578 N585 1.356 1_554 S
C579 C578 1.363 . S
C579 C582 1.363 . S
N580 C582 1.356 . S
N580 H592 0.984 . S
N580 H593 0.985 . S
N581 C583 1.347 1_556 S
N581 H586 0.972 1_556 S
N581 H587 1.007 . S
C582 C576 1.379 . S
C582 C579 1.363 . S
C582 N580 1.356 . S
C583 C577 1.363 . S
C583 C578 1.379 . S
C583 N581 1.347 1_554 S
N584 C576 1.356 . S
N584 H590 0.984 . S
N584 H591 0.984 . S
N585 C578 1.356 1_556 S
N585 H588 0.984 . S
N585 H589 0.985 . S
H586 N581 0.972 1_554 S
H587 N581 1.007 . S
H588 N585 0.984 . S
H589 N585 0.985 . S
H590 N584 0.984 . S
H591 N584 0.984 . S
H592 N580 0.984 . S
H593 N580 0.985 . S
C594 C595 1.363 . S
C594 C600 1.379 . S
C594 N602 1.356 . S
C595 C594 1.363 . S
C595 C601 1.363 . S
C596 C597 1.363 . S
C596 C601 1.379 . S
C596 N603 1.356 . S
C597 C596 1.363 . S
C597 C600 1.363 . S
N598 C600 1.356 . S
N598 H610 0.984 . S
N598 H611 0.985 . S
N599 C601 1.356 . S
N599 H604 0.984 . S
N599 H605 0.985 . S
C600 C594 1.379 . S
C600 C597 1.363 . S
C600 N598 1.356 . S
C601 C595 1.363 . S
C601 C596 1.379 . S
C601 N599 1.356 . S
N602 C594 1.356 . S
N602 H608 0.984 . S
N602 H609 0.984 . S
N603 C596 1.356 . S
N603 H606 0.984 . S
N603 H607 0.985 . S
H604 N599 0.984 . S
H605 N599 0.985 . S
H606 N603 0.984 . S
H607 N603 0.985 . S
H608 N602 0.984 . S
H609 N602 0.984 . S
H610 N598 0.984 . S
H611 N598 0.985 . S
C612 C613 1.363 . S
C612 C618 1.379 . S
C612 N620 1.356 . S
C613 C612 1.363 . S
C613 C619 1.363 . S
C614 C615 1.363 . S
C614 C619 1.379 . S
C614 N621 1.356 . S
C615 C614 1.363 . S
C615 C618 1.363 . S
N616 C618 1.355 1_556 S
N616 H628 0.986 . S
N616 H629 0.984 . S
N617 C619 1.356 . S
N617 H622 0.984 . S
N617 H623 0.985 . S
C618 C612 1.379 . S
C618 C615 1.363 . S
C618 N616 1.355 1_554 S
C619 C613 1.363 . S
C619 C614 1.379 . S
C619 N617 1.356 . S
N620 C612 1.356 . S
N620 H626 0.987 . S
N620 H627 0.984 . S
N621 C614 1.356 . S
N621 H624 0.984 . S
N621 H625 0.985 . S
H622 N617 0.984 . S
H623 N617 0.985 . S
H624 N621 0.984 . S
H625 N621 0.985 . S
H626 N620 0.987 . S
H627 N620 0.984 . S
H628 N616 0.986 . S
H629 N616 0.984 . S
C630 C631 1.363 . S
C630 C636 1.379 1_655 S
C630 N638 1.356 . S
C631 C630 1.363 . S
C631 C637 1.363 . S
C632 C633 1.363 1_655 S
C632 C637 1.379 . S
C632 N639 1.356 1_655 S
C633 C632 1.363 1_455 S
C633 C636 1.363 . S
N634 C636 1.356 . S
N634 H646 0.984 . S
N634 H647 0.985 . S
N635 C637 1.356 . S
N635 H640 0.984 . S
N635 H641 0.985 . S
C636 C630 1.379 1_455 S
C636 C633 1.363 . S
C636 N634 1.356 . S
C637 C631 1.363 . S
C637 C632 1.379 . S
C637 N635 1.356 . S
N638 C630 1.356 . S
N638 H644 0.984 . S
N638 H645 0.984 . S
N639 C632 1.356 1_455 S
N639 H642 0.984 . S
N639 H643 0.985 . S
H640 N635 0.984 . S
H641 N635 0.985 . S
H642 N639 0.984 . S
H643 N639 0.985 . S
H644 N638 0.984 . S
H645 N638 0.984 . S
H646 N634 0.984 . S
H647 N634 0.985 . S
C648 C649 1.363 . S
C648 C654 1.379 . S
C648 N656 1.356 . S
C649 C648 1.363 . S
C649 C655 1.363 . S
C650 C651 1.363 . S
C650 C655 1.379 . S
C650 N657 1.356 . S
C651 C650 1.363 . S
C651 C654 1.363 . S
N652 C654 1.356 . S
N652 H664 0.984 . S
N652 H665 0.985 . S
N653 C655 1.356 . S
N653 H658 0.984 . S
N653 H659 0.985 . S
C654 C648 1.379 . S
C654 C651 1.363 . S
C654 N652 1.356 . S
C655 C649 1.363 . S
C655 C650 1.379 . S
C655 N653 1.356 . S
N656 C648 1.356 . S
N656 H662 0.984 . S
N656 H663 0.984 . S
N657 C650 1.356 . S
N657 H660 0.984 . S
N657 H661 0.985 . S
H658 N653 0.984 . S
H659 N653 0.985 . S
H660 N657 0.984 . S
H661 N657 0.985 . S
H662 N656 0.984 . S
H663 N656 0.984 . S
H664 N652 0.984 . S
H665 N652 0.985 . S
C666 C667 1.363 . S
C666 C672 1.379 1_545 S
C666 N674 1.356 . S
C667 C666 1.363 . S
C667 C673 1.363 . S
C668 C669 1.363 . S
C668 C673 1.379 1_565 S
C668 N675 1.356 . S
C669 C668 1.363 . S
C669 C672 1.363 . S
N670 C672 1.356 . S
N670 H682 0.984 . S
N670 H683 0.985 . S
N671 C673 1.356 . S
N671 H676 0.984 . S
N671 H677 0.985 . S
C672 C666 1.379 1_565 S
C672 C669 1.363 . S
C672 N670 1.356 . S
C673 C667 1.363 . S
C673 C668 1.379 1_545 S
C673 N671 1.356 . S
N674 C666 1.356 . S
N674 H680 0.984 . S
N674 H681 0.984 . S
N675 C668 1.356 . S
N675 H678 0.984 . S
N675 H679 0.985 . S
H676 N671 0.984 . S
H677 N671 0.985 . S
H678 N675 0.984 . S
H679 N675 0.985 . S
H680 N674 0.984 . S
H681 N674 0.984 . S
H682 N670 0.984 . S
H683 N670 0.985 . S
C684 C685 1.363 . S
C684 C690 1.379 . S
C684 N692 1.356 . S
C685 C684 1.363 . S
C685 C691 1.363 . S
C686 C687 1.363 . S
C686 C691 1.379 . S
C686 N693 1.356 . S
C687 C686 1.363 . S
C687 C690 1.363 . S
N688 C690 1.356 . S
N688 H700 0.984 . S
N688 H701 0.985 . S
N689 C691 1.356 . S
N689 H694 0.984 . S
N689 H695 0.985 . S
C690 C684 1.379 . S
C690 C687 1.363 . S
C690 N688 1.356 . S
C691 C685 1.363 . S
C691 C686 1.379 . S
C691 N689 1.356 . S
N692 C684 1.356 . S
N692 H698 0.984 . S
N692 H699 0.984 . S
N693 C686 1.356 . S
N693 H696 0.984 . S
N693 H697 0.985 . S
H694 N689 0.984 . S
H695 N689 0.985 . S
H696 N693 0.984 . S
H697 N693 0.985 . S
H698 N692 0.984 . S
H699 N692 0.984 . S
H700 N688 0.984 . S
H701 N688 0.985 . S
C702 C703 1.363 . S
C702 C708 1.379 . S
C702 N710 1.356 . S
C703 C702 1.363 . S
C703 C709 1.363 . S
C704 C705 1.363 . S
C704 C709 1.379 . S
C704 N711 1.356 . S
C705 C704 1.363 . S
C705 C708 1.363 . S
N706 C708 1.356 . S
N706 H718 0.984 . S
N706 H719 0.985 . S
N707 C709 1.356 . S
N707 H712 0.984 . S
N707 H713 0.985 . S
C708 C702 1.379 . S
C708 C705 1.363 . S
C708 N706 1.356 . S
C709 C703 1.363 . S
C709 C704 1.379 . S
C709 N707 1.356 . S
N710 C702 1.356 . S
N710 H716 0.984 . S
N710 H717 0.984 . S
N711 C704 1.356 . S
N711 H714 0.984 . S
N711 H715 0.985 . S
H712 N707 0.984 . S
H713 N707 0.985 . S
H714 N711 0.984 . S
H715 N711 0.985 . S
H716 N710 0.984 . S
H717 N710 0.984 . S
H718 N706 0.984 . S
H719 N706 0.985 . S
C720 C721 1.363 . S
C720 C726 1.379 . S
C720 N728 1.356 . S
C721 C720 1.363 . S
C721 C727 1.363 . S
C722 C723 1.363 . S
C722 C727 1.379 . S
C722 N729 1.356 . S
C723 C722 1.363 . S
C723 C726 1.363 . S
N724 C726 1.356 . S
N724 H736 0.984 . S
N724 H737 0.985 . S
N725 C727 1.356 . S
N725 H730 0.984 . S
N725 H731 0.985 . S
C726 C720 1.379 . S
C726 C723 1.363 . S
C726 N724 1.356 . S
C727 C721 1.363 . S
C727 C722 1.379 . S
C727 N725 1.356 . S
N728 C720 1.356 . S
N728 H734 0.984 . S
N728 H735 0.984 . S
N729 C722 1.356 . S
N729 H732 0.984 . S
N729 H733 0.985 . S
H730 N725 0.984 . S
H731 N725 0.985 . S
H732 N729 0.984 . S
H733 N729 0.985 . S
H734 N728 0.984 . S
H735 N728 0.984 . S
H736 N724 0.984 . S
H737 N724 0.985 . S
C738 C739 1.363 . S
C738 C744 1.379 . S
C738 N746 1.356 . S
C739 C738 1.363 . S
C739 C745 1.363 . S
C740 C741 1.363 . S
C740 C745 1.379 . S
C740 N747 1.356 . S
C741 C740 1.363 . S
C741 C744 1.363 . S
N742 C744 1.356 . S
N742 H754 0.984 . S
N742 H755 0.985 . S
N743 C745 1.356 . S
N743 H748 0.984 . S
N743 H749 0.985 . S
C744 C738 1.379 . S
C744 C741 1.363 . S
C744 N742 1.356 . S
C745 C739 1.363 . S
C745 C740 1.379 . S
C745 N743 1.356 . S
N746 C738 1.356 . S
N746 H752 0.984 . S
N746 H753 0.984 . S
N747 C740 1.356 . S
N747 H750 0.984 . S
N747 H751 0.985 . S
H748 N743 0.984 . S
H749 N743 0.985 . S
H750 N747 0.984 . S
H751 N747 0.985 . S
H752 N746 0.984 . S
H753 N746 0.984 . S
H754 N742 0.984 . S
H755 N742 0.985 . S
C756 C757 1.363 . S
C756 C762 1.379 . S
C756 N764 1.356 . S
C757 C756 1.363 . S
C757 C763 1.363 . S
C758 C759 1.363 . S
C758 C763 1.379 . S
C758 N765 1.356 . S
C759 C758 1.363 . S
C759 C762 1.363 . S
N760 C762 1.356 . S
N760 H772 0.984 . S
N760 H773 0.985 . S
N761 C763 1.356 . S
N761 H766 0.984 . S
N761 H767 0.985 . S
C762 C756 1.379 . S
C762 C759 1.363 . S
C762 N760 1.356 . S
C763 C757 1.363 . S
C763 C758 1.379 . S
C763 N761 1.356 . S
N764 C756 1.356 . S
N764 H770 0.984 . S
N764 H771 0.984 . S
N765 C758 1.356 . S
N765 H768 0.984 . S
N765 H769 0.985 . S
H766 N761 0.984 . S
H767 N761 0.985 . S
H768 N765 0.984 . S
H769 N765 0.985 . S
H770 N764 0.984 . S
H771 N764 0.984 . S
H772 N760 0.984 . S
H773 N760 0.985 . S
C774 C775 1.363 . S
C774 C780 1.379 . S
C774 N782 1.356 . S
C775 C774 1.363 . S
C775 C781 1.363 . S
C776 C777 1.363 . S
C776 C781 1.379 . S
C776 N783 1.356 . S
C777 C776 1.363 . S
C777 C780 1.363 . S
N778 C780 1.356 . S
N778 H790 0.984 . S
N778 H791 0.985 . S
N779 C781 1.356 . S
N779 H784 0.984 . S
N779 H785 0.985 . S
C780 C774 1.379 . S
C780 C777 1.363 . S
C780 N778 1.356 . S
C781 C775 1.363 . S
C781 C776 1.379 . S
C781 N779 1.356 . S
N782 C774 1.356 . S
N782 H788 0.984 . S
N782 H789 0.984 . S
N783 C776 1.356 . S
N783 H786 0.984 . S
N783 H787 0.985 . S
H784 N779 0.984 . S
H785 N779 0.985 . S
H786 N783 0.984 . S
H787 N783 0.985 . S
H788 N782 0.984 . S
H789 N782 0.984 . S
H790 N778 0.984 . S
H791 N778 0.985 . S
C792 C793 1.363 . S
C792 C798 1.379 . S
C792 N800 1.356 . S
C793 C792 1.363 . S
C793 C799 1.363 . S
C794 C795 1.363 . S
C794 C799 1.379 1_565 S
C794 N801 1.356 . S
C795 C794 1.363 . S
C795 C798 1.363 1_565 S
N796 C798 1.356 1_565 S
N796 H808 0.984 1_565 S
N796 H809 0.985 . S
N797 C799 1.356 . S
N797 H802 0.984 . S
N797 H803 0.985 . S
C798 C792 1.379 . S
C798 C795 1.363 1_545 S
C798 N796 1.356 1_545 S
C799 C793 1.363 . S
C799 C794 1.379 1_545 S
C799 N797 1.356 . S
N800 C792 1.356 . S
N800 H806 0.984 . S
N800 H807 0.984 . S
N801 C794 1.356 . S
N801 H804 0.984 . S
N801 H805 0.985 . S
H802 N797 0.984 . S
H803 N797 0.985 . S
H804 N801 0.984 . S
H805 N801 0.985 . S
H806 N800 0.984 . S
H807 N800 0.984 . S
H808 N796 0.984 1_545 S
H809 N796 0.985 . S
C810 C811 1.363 . S
C810 C816 1.379 . S
C810 N818 1.356 . S
C811 C810 1.363 . S
C811 C817 1.363 . S
C812 C813 1.363 . S
C812 C817 1.379 1_455 S
C812 N819 1.356 . S
C813 C812 1.363 . S
C813 C816 1.363 1_455 S
N814 C816 1.356 1_455 S
N814 H826 0.984 1_455 S
N814 H827 0.985 . S
N815 C817 1.356 . S
N815 H820 0.984 . S
N815 H821 0.985 . S
C816 C810 1.379 . S
C816 C813 1.363 1_655 S
C816 N814 1.356 1_655 S
C817 C811 1.363 . S
C817 C812 1.379 1_655 S
C817 N815 1.356 . S
N818 C810 1.356 . S
N818 H824 0.984 . S
N818 H825 0.984 . S
N819 C812 1.356 . S
N819 H822 0.984 . S
N819 H823 0.985 . S
H820 N815 0.984 . S
H821 N815 0.985 . S
H822 N819 0.984 . S
H823 N819 0.985 . S
H824 N818 0.984 . S
H825 N818 0.984 . S
H826 N814 0.984 1_655 S
H827 N814 0.985 . S
C828 C829 1.363 . S
C828 C834 1.379 . S
C828 N836 1.356 . S
C829 C828 1.363 . S
C829 C835 1.363 . S
C830 C831 1.363 . S
C830 C835 1.379 . S
C830 N837 1.356 . S
C831 C830 1.363 . S
C831 C834 1.363 . S
N832 C834 1.356 . S
N832 H844 0.984 . S
N832 H845 0.985 . S
N833 C835 1.356 . S
N833 H838 0.984 . S
N833 H839 0.985 . S
C834 C828 1.379 . S
C834 C831 1.363 . S
C834 N832 1.356 . S
C835 C829 1.363 . S
C835 C830 1.379 . S
C835 N833 1.356 . S
N836 C828 1.356 . S
N836 H842 0.984 . S
N836 H843 0.984 . S
N837 C830 1.356 . S
N837 H840 0.984 . S
N837 H841 0.985 . S
H838 N833 0.984 . S
H839 N833 0.985 . S
H840 N837 0.984 . S
H841 N837 0.985 . S
H842 N836 0.984 . S
H843 N836 0.984 . S
H844 N832 0.984 . S
H845 N832 0.985 . S
C846 C847 1.363 . S
C846 C852 1.379 . S
C846 N854 1.356 . S
C847 C846 1.363 . S
C847 C853 1.363 . S
C848 C849 1.363 . S
C848 C853 1.379 . S
C848 N855 1.356 . S
C849 C848 1.363 . S
C849 C852 1.363 . S
N850 C852 1.356 . S
N850 H862 0.984 . S
N850 H863 0.985 . S
N851 C853 1.356 . S
N851 H856 0.984 . S
N851 H857 0.985 . S
C852 C846 1.379 . S
C852 C849 1.363 . S
C852 N850 1.356 . S
C853 C847 1.363 . S
C853 C848 1.379 . S
C853 N851 1.356 . S
N854 C846 1.356 . S
N854 H860 0.984 . S
N854 H861 0.984 . S
N855 C848 1.356 . S
N855 H858 0.984 . S
N855 H859 0.985 . S
H856 N851 0.984 . S
H857 N851 0.985 . S
H858 N855 0.984 . S
H859 N855 0.985 . S
H860 N854 0.984 . S
H861 N854 0.984 . S
H862 N850 0.984 . S
H863 N850 0.985 . S
C864 C865 1.363 . S
C864 C870 1.379 . S
C864 N872 1.356 . S
C865 C864 1.363 . S
C865 C871 1.363 . S
C866 C867 1.363 . S
C866 C871 1.379 . S
C866 N873 1.356 . S
C867 C866 1.363 . S
C867 C870 1.363 . S
N868 C870 1.356 . S
N868 H880 0.984 . S
N868 H881 0.985 . S
N869 C871 1.356 . S
N869 H874 0.984 . S
N869 H875 0.985 . S
C870 C864 1.379 . S
C870 C867 1.363 . S
C870 N868 1.356 . S
C871 C865 1.363 . S
C871 C866 1.379 . S
C871 N869 1.356 . S
N872 C864 1.356 . S
N872 H878 0.984 . S
N872 H879 0.984 . S
N873 C866 1.356 . S
N873 H876 0.984 . S
N873 H877 0.985 . S
H874 N869 0.984 . S
H875 N869 0.985 . S
H876 N873 0.984 . S
H877 N873 0.985 . S
H878 N872 0.984 . S
H879 N872 0.984 . S
H880 N868 0.984 . S
H881 N868 0.985 . S
C882 C883 1.363 . S
C882 C888 1.379 . S
C882 N890 1.356 . S
C883 C882 1.363 . S
C883 C889 1.363 . S
C884 C885 1.363 . S
C884 C889 1.379 . S
C884 N891 1.356 . S
C885 C884 1.363 . S
C885 C888 1.363 . S
N886 C888 1.356 . S
N886 H898 0.984 . S
N886 H899 0.985 . S
N887 C889 1.356 . S
N887 H892 0.984 . S
N887 H893 0.985 . S
C888 C882 1.379 . S
C888 C885 1.363 . S
C888 N886 1.356 . S
C889 C883 1.363 . S
C889 C884 1.379 . S
C889 N887 1.356 . S
N890 C882 1.356 . S
N890 H896 0.984 . S
N890 H897 0.984 . S
N891 C884 1.356 . S
N891 H894 0.984 . S
N891 H895 0.985 . S
H892 N887 0.984 . S
H893 N887 0.985 . S
H894 N891 0.984 . S
H895 N891 0.985 . S
H896 N890 0.984 . S
H897 N890 0.984 . S
H898 N886 0.984 . S
H899 N886 0.985 . S
C900 C901 1.363 . S
C900 C906 1.379 1_565 S
C900 N908 1.356 . S
C901 C900 1.363 . S
C901 C907 1.363 1_565 S
C902 C903 1.363 . S
C902 C907 1.379 . S
C902 N909 1.356 . S
C903 C902 1.363 . S
C903 C906 1.363 . S
N904 C906 1.356 . S
N904 H916 0.984 . S
N904 H917 0.985 . S
N905 C907 1.356 1_565 S
N905 H910 0.984 . S
N905 H911 0.985 . S
C906 C900 1.379 1_545 S
C906 C903 1.363 . S
C906 N904 1.356 . S
C907 C901 1.363 1_545 S
C907 C902 1.379 . S
C907 N905 1.356 1_545 S
N908 C900 1.356 . S
N908 H914 0.984 . S
N908 H915 0.984 . S
N909 C902 1.356 . S
N909 H912 0.984 . S
N909 H913 0.985 . S
H910 N905 0.984 . S
H911 N905 0.985 . S
H912 N909 0.984 . S
H913 N909 0.985 . S
H914 N908 0.984 . S
H915 N908 0.984 . S
H916 N904 0.984 . S
H917 N904 0.985 . S
C918 C919 1.363 . S
C918 C924 1.379 1_455 S
C918 N926 1.356 . S
C919 C918 1.363 . S
C919 C925 1.363 . S
C920 C921 1.360 . S
C920 C925 1.382 1_655 S
C920 N927 1.354 . S
C921 C920 1.360 . S
C921 C924 1.363 . S
N922 C924 1.356 . S
N922 H934 0.984 . S
N922 H935 0.985 . S
N923 C925 1.356 . S
N923 H928 0.984 . S
N923 H929 0.985 . S
C924 C918 1.379 1_655 S
C924 C921 1.363 . S
C924 N922 1.356 . S
C925 C919 1.363 . S
C925 C920 1.382 1_455 S
C925 N923 1.356 . S
N926 C918 1.356 . S
N926 H932 0.984 . S
N926 H933 0.984 . S
N927 C920 1.354 . S
N927 H930 0.984 . S
N927 H931 0.985 1_655 S
H928 N923 0.984 . S
H929 N923 0.985 . S
H930 N927 0.984 . S
H931 N927 0.985 1_455 S
H932 N926 0.984 . S
H933 N926 0.984 . S
H934 N922 0.984 . S
H935 N922 0.985 . S
C936 C937 1.363 . S
C936 C942 1.379 . S
C936 N944 1.356 . S
C937 C936 1.363 . S
C937 C943 1.363 . S
C938 C939 1.363 . S
C938 C943 1.379 . S
C938 N945 1.356 . S
C939 C938 1.363 . S
C939 C942 1.363 . S
N940 C942 1.356 . S
N940 H952 0.984 . S
N940 H953 0.985 . S
N941 C943 1.356 . S
N941 H946 0.984 . S
N941 H947 0.985 . S
C942 C936 1.379 . S
C942 C939 1.363 . S
C942 N940 1.356 . S
C943 C937 1.363 . S
C943 C938 1.379 . S
C943 N941 1.356 . S
N944 C936 1.356 . S
N944 H950 0.984 . S
N944 H951 0.984 . S
N945 C938 1.356 . S
N945 H948 0.984 . S
N945 H949 0.985 . S
H946 N941 0.984 . S
H947 N941 0.985 . S
H948 N945 0.984 . S
H949 N945 0.985 . S
H950 N944 0.984 . S
H951 N944 0.984 . S
H952 N940 0.984 . S
H953 N940 0.985 . S
C954 C955 1.363 . S
C954 C960 1.379 . S
C954 N962 1.356 . S
C955 C954 1.363 . S
C955 C961 1.363 . S
C956 C957 1.363 . S
C956 C961 1.379 . S
C956 N963 1.356 1_455 S
C957 C956 1.363 . S
C957 C960 1.363 . S
N958 C960 1.356 . S
N958 H970 0.984 . S
N958 H971 0.985 1_455 S
N959 C961 1.356 . S
N959 H964 0.984 . S
N959 H965 0.985 . S
C960 C954 1.379 . S
C960 C957 1.363 . S
C960 N958 1.356 . S
C961 C955 1.363 . S
C961 C956 1.379 . S
C961 N959 1.356 . S
N962 C954 1.356 . S
N962 H968 0.984 . S
N962 H969 0.984 . S
N963 C956 1.356 1_655 S
N963 H966 0.984 . S
N963 H967 0.985 . S
H964 N959 0.984 . S
H965 N959 0.985 . S
H966 N963 0.984 . S
H967 N963 0.985 . S
H968 N962 0.984 . S
H969 N962 0.984 . S
H970 N958 0.984 . S
H971 N958 0.985 1_655 S
C972 C973 1.363 . S
C972 C978 1.379 . S
C972 N980 1.356 . S
C973 C972 1.363 . S
C973 C979 1.363 . S
C974 C975 1.363 . S
C974 C979 1.379 . S
C974 N981 1.356 . S
C975 C974 1.363 . S
C975 C978 1.363 . S
N976 C978 1.356 . S
N976 H988 0.984 . S
N976 H989 0.985 . S
N977 C979 1.356 . S
N977 H982 0.984 . S
N977 H983 0.985 . S
C978 C972 1.379 . S
C978 C975 1.363 . S
C978 N976 1.356 . S
C979 C973 1.363 . S
C979 C974 1.379 . S
C979 N977 1.356 . S
N980 C972 1.356 . S
N980 H986 0.984 . S
N980 H987 0.984 . S
N981 C974 1.356 . S
N981 H984 0.984 . S
N981 H985 0.985 . S
H982 N977 0.984 . S
H983 N977 0.985 . S
H984 N981 0.984 . S
H985 N981 0.985 . S
H986 N980 0.984 . S
H987 N980 0.984 . S
H988 N976 0.984 . S
H989 N976 0.985 . S
C990 C991 1.363 . S
C990 C996 1.379 1_565 S
C990 N998 1.356 . S
C991 C990 1.363 . S
C991 C997 1.363 . S
C992 C993 1.363 . S
C992 C997 1.379 1_545 S
C992 N999 1.356 . S
C993 C992 1.363 . S
C993 C996 1.363 . S
N994 C996 1.356 . S
N994 H1006 0.984 . S
N994 H1007 0.985 . S
N995 C997 1.356 . S
N995 H1000 0.984 . S
N995 H1001 0.985 . S
C996 C990 1.379 1_545 S
C996 C993 1.363 . S
C996 N994 1.356 . S
C997 C991 1.363 . S
C997 C992 1.379 1_565 S
C997 N995 1.356 . S
N998 C990 1.356 . S
N998 H1004 0.984 . S
N998 H1005 0.984 . S
N999 C992 1.356 . S
N999 H1002 0.984 . S
N999 H1003 0.985 . S
H1000 N995 0.984 . S
H1001 N995 0.985 . S
H1002 N999 0.984 . S
H1003 N999 0.985 . S
H1004 N998 0.984 . S
H1005 N998 0.984 . S
H1006 N994 0.984 . S
H1007 N994 0.985 . S
C1008 C1009 1.363 . S
C1008 C1014 1.379 . S
C1008 N1016 1.356 . S
C1009 C1008 1.363 . S
C1009 C1015 1.363 . S
C1010 C1011 1.363 . S
C1010 C1015 1.379 . S
C1010 N1017 1.356 . S
C1011 C1010 1.363 . S
C1011 C1014 1.363 . S
N1012 C1014 1.356 . S
N1012 H1024 0.984 . S
N1012 H1025 0.985 . S
N1013 C1015 1.356 . S
N1013 H1018 0.984 . S
N1013 H1019 0.985 . S
C1014 C1008 1.379 . S
C1014 C1011 1.363 . S
C1014 N1012 1.356 . S
C1015 C1009 1.363 . S
C1015 C1010 1.379 . S
C1015 N1013 1.356 . S
N1016 C1008 1.356 . S
N1016 H1022 0.984 . S
N1016 H1023 0.984 . S
N1017 C1010 1.356 . S
N1017 H1020 0.984 . S
N1017 H1021 0.985 . S
H1018 N1013 0.984 . S
H1019 N1013 0.985 . S
H1020 N1017 0.984 . S
H1021 N1017 0.985 . S
H1022 N1016 0.984 . S
H1023 N1016 0.984 . S
H1024 N1012 0.984 . S
H1025 N1012 0.985 . S
C1026 C1027 1.363 . S
C1026 C1032 1.379 . S
C1026 N1034 1.356 . S
C1027 C1026 1.363 . S
C1027 C1033 1.363 . S
C1028 C1029 1.363 . S
C1028 C1033 1.379 . S
C1028 N1035 1.356 . S
C1029 C1028 1.363 . S
C1029 C1032 1.363 . S
N1030 C1032 1.356 . S
N1030 H1042 0.984 . S
N1030 H1043 0.985 . S
N1031 C1033 1.356 . S
N1031 H1036 0.984 . S
N1031 H1037 0.985 . S
C1032 C1026 1.379 . S
C1032 C1029 1.363 . S
C1032 N1030 1.356 . S
C1033 C1027 1.363 . S
C1033 C1028 1.379 . S
C1033 N1031 1.356 . S
N1034 C1026 1.356 . S
N1034 H1040 0.984 . S
N1034 H1041 0.984 . S
N1035 C1028 1.356 . S
N1035 H1038 0.984 . S
N1035 H1039 0.985 . S
H1036 N1031 0.984 . S
H1037 N1031 0.985 . S
H1038 N1035 0.984 . S
H1039 N1035 0.985 . S
H1040 N1034 0.984 . S
H1041 N1034 0.984 . S
H1042 N1030 0.984 . S
H1043 N1030 0.985 . S
C1044 C1045 1.363 . S
C1044 C1050 1.379 . S
C1044 N1052 1.356 . S
C1045 C1044 1.363 . S
C1045 C1051 1.363 . S
C1046 C1047 1.363 . S
C1046 C1051 1.379 . S
C1046 N1053 1.356 . S
C1047 C1046 1.363 . S
C1047 C1050 1.363 . S
N1048 C1050 1.356 . S
N1048 H1060 0.984 . S
N1048 H1061 0.985 . S
N1049 C1051 1.356 . S
N1049 H1054 0.984 . S
N1049 H1055 0.985 . S
C1050 C1044 1.379 . S
C1050 C1047 1.363 . S
C1050 N1048 1.356 . S
C1051 C1045 1.363 . S
C1051 C1046 1.379 . S
C1051 N1049 1.356 . S
N1052 C1044 1.356 . S
N1052 H1058 0.984 . S
N1052 H1059 0.984 . S
N1053 C1046 1.356 . S
N1053 H1056 0.984 . S
N1053 H1057 0.985 . S
H1054 N1049 0.984 . S
H1055 N1049 0.985 . S
H1056 N1053 0.984 . S
H1057 N1053 0.985 . S
H1058 N1052 0.984 . S
H1059 N1052 0.984 . S
H1060 N1048 0.984 . S
H1061 N1048 0.985 . S
C1062 C1063 1.363 . S
C1062 C1068 1.379 . S
C1062 N1070 1.356 . S
C1063 C1062 1.363 . S
C1063 C1069 1.363 . S
C1064 C1065 1.363 . S
C1064 C1069 1.379 . S
C1064 N1071 1.356 1_565 S
C1065 C1064 1.363 . S
C1065 C1068 1.363 . S
N1066 C1068 1.356 . S
N1066 H1078 0.984 . S
N1066 H1079 0.985 . S
N1067 C1069 1.356 . S
N1067 H1072 0.984 . S
N1067 H1073 0.985 1_565 S
C1068 C1062 1.379 . S
C1068 C1065 1.363 . S
C1068 N1066 1.356 . S
C1069 C1063 1.363 . S
C1069 C1064 1.379 . S
C1069 N1067 1.356 . S
N1070 C1062 1.356 . S
N1070 H1076 0.984 . S
N1070 H1077 0.984 . S
N1071 C1064 1.356 1_545 S
N1071 H1074 0.984 . S
N1071 H1075 0.985 . S
H1072 N1067 0.984 . S
H1073 N1067 0.985 1_545 S
H1074 N1071 0.984 . S
H1075 N1071 0.985 . S
H1076 N1070 0.984 . S
H1077 N1070 0.984 . S
H1078 N1066 0.984 . S
H1079 N1066 0.985 . S
C1080 C1081 1.363 . S
C1080 C1086 1.379 . S
C1080 N1088 1.356 . S
C1081 C1080 1.363 . S
C1081 C1087 1.363 . S
C1082 C1083 1.363 . S
C1082 C1087 1.379 . S
C1082 N1089 1.356 . S
C1083 C1082 1.363 . S
C1083 C1086 1.363 . S
N1084 C1086 1.356 . S
N1084 H1096 0.984 . S
N1084 H1097 0.985 . S
N1085 C1087 1.356 . S
N1085 H1090 0.984 . S
N1085 H1091 0.985 . S
C1086 C1080 1.379 . S
C1086 C1083 1.363 . S
C1086 N1084 1.356 . S
C1087 C1081 1.363 . S
C1087 C1082 1.379 . S
C1087 N1085 1.356 . S
N1088 C1080 1.356 . S
N1088 H1094 0.984 . S
N1088 H1095 0.984 . S
N1089 C1082 1.356 . S
N1089 H1092 0.984 . S
N1089 H1093 0.985 . S
H1090 N1085 0.984 . S
H1091 N1085 0.985 . S
H1092 N1089 0.984 . S
H1093 N1089 0.985 . S
H1094 N1088 0.984 . S
H1095 N1088 0.984 . S
H1096 N1084 0.984 . S
H1097 N1084 0.985 . S
C1098 C1099 1.363 . S
C1098 C1104 1.379 . S
C1098 N1106 1.356 . S
C1099 C1098 1.363 . S
C1099 C1105 1.363 . S
C1100 C1101 1.363 . S
C1100 C1105 1.379 . S
C1100 N1107 1.356 . S
C1101 C1100 1.363 . S
C1101 C1104 1.363 . S
N1102 C1104 1.356 . S
N1102 H1114 0.984 . S
N1102 H1115 0.985 . S
N1103 C1105 1.356 . S
N1103 H1108 0.984 . S
N1103 H1109 0.985 . S
C1104 C1098 1.379 . S
C1104 C1101 1.363 . S
C1104 N1102 1.356 . S
C1105 C1099 1.363 . S
C1105 C1100 1.379 . S
C1105 N1103 1.356 . S
N1106 C1098 1.356 . S
N1106 H1112 0.984 . S
N1106 H1113 0.984 . S
N1107 C1100 1.356 . S
N1107 H1110 0.984 . S
N1107 H1111 0.985 . S
H1108 N1103 0.984 . S
H1109 N1103 0.985 . S
H1110 N1107 0.984 . S
H1111 N1107 0.985 . S
H1112 N1106 0.984 . S
H1113 N1106 0.984 . S
H1114 N1102 0.984 . S
H1115 N1102 0.985 . S
C1116 C1117 1.363 . S
C1116 C1122 1.379 . S
C1116 N1124 1.356 . S
C1117 C1116 1.363 . S
C1117 C1123 1.363 . S
C1118 C1119 1.363 . S
C1118 C1123 1.379 . S
C1118 N1125 1.356 1_655 S
C1119 C1118 1.363 . S
C1119 C1122 1.363 . S
N1120 C1122 1.356 . S
N1120 H1132 0.984 . S
N1120 H1133 0.985 . S
N1121 C1123 1.356 . S
N1121 H1126 0.984 . S
N1121 H1127 0.985 1_655 S
C1122 C1116 1.379 . S
C1122 C1119 1.363 . S
C1122 N1120 1.356 . S
C1123 C1117 1.363 . S
C1123 C1118 1.379 . S
C1123 N1121 1.356 . S
N1124 C1116 1.356 . S
N1124 H1130 0.984 . S
N1124 H1131 0.984 . S
N1125 C1118 1.356 1_455 S
N1125 H1128 0.984 . S
N1125 H1129 0.985 . S
H1126 N1121 0.984 . S
H1127 N1121 0.985 1_455 S
H1128 N1125 0.984 . S
H1129 N1125 0.985 . S
H1130 N1124 0.984 . S
H1131 N1124 0.984 . S
H1132 N1120 0.984 . S
H1133 N1120 0.985 . S
C1134 C1135 1.363 . S
C1134 C1140 1.379 . S
C1134 N1142 1.356 . S
C1135 C1134 1.363 . S
C1135 C1141 1.363 . S
C1136 C1137 1.363 . S
C1136 C1141 1.379 . S
C1136 N1143 1.356 . S
C1137 C1136 1.363 . S
C1137 C1140 1.363 . S
N1138 C1140 1.356 . S
N1138 H1150 0.984 . S
N1138 H1151 0.985 . S
N1139 C1141 1.356 . S
N1139 H1144 0.984 . S
N1139 H1145 0.985 . S
C1140 C1134 1.379 . S
C1140 C1137 1.363 . S
C1140 N1138 1.356 . S
C1141 C1135 1.363 . S
C1141 C1136 1.379 . S
C1141 N1139 1.356 . S
N1142 C1134 1.356 . S
N1142 H1148 0.984 . S
N1142 H1149 0.984 . S
N1143 C1136 1.356 . S
N1143 H1146 0.984 . S
N1143 H1147 0.985 . S
H1144 N1139 0.984 . S
H1145 N1139 0.985 . S
H1146 N1143 0.984 . S
H1147 N1143 0.985 . S
H1148 N1142 0.984 . S
H1149 N1142 0.984 . S
H1150 N1138 0.984 . S
H1151 N1138 0.985 . S
C1152 C1153 1.363 . S
C1152 C1158 1.379 . S
C1152 N1160 1.356 . S
C1153 C1152 1.363 . S
C1153 C1159 1.363 . S
C1154 C1155 1.363 . S
C1154 C1159 1.379 . S
C1154 N1161 1.356 . S
C1155 C1154 1.363 . S
C1155 C1158 1.363 . S
N1156 C1158 1.356 . S
N1156 H1168 0.984 . S
N1156 H1169 0.985 . S
N1157 C1159 1.356 . S
N1157 H1162 0.984 . S
N1157 H1163 0.985 . S
C1158 C1152 1.379 . S
C1158 C1155 1.363 . S
C1158 N1156 1.356 . S
C1159 C1153 1.363 . S
C1159 C1154 1.379 . S
C1159 N1157 1.356 . S
N1160 C1152 1.356 . S
N1160 H1166 0.984 . S
N1160 H1167 0.984 . S
N1161 C1154 1.356 . S
N1161 H1164 0.984 . S
N1161 H1165 0.985 . S
H1162 N1157 0.984 . S
H1163 N1157 0.985 . S
H1164 N1161 0.984 . S
H1165 N1161 0.985 . S
H1166 N1160 0.984 . S
H1167 N1160 0.984 . S
H1168 N1156 0.984 . S
H1169 N1156 0.985 . S
C1170 C1171 1.363 . S
C1170 C1176 1.379 . S
C1170 N1178 1.356 . S
C1171 C1170 1.363 . S
C1171 C1177 1.363 . S
C1172 C1173 1.363 . S
C1172 C1177 1.379 . S
C1172 N1179 1.356 . S
C1173 C1172 1.363 . S
C1173 C1176 1.363 . S
N1174 C1176 1.356 . S
N1174 H1186 0.984 . S
N1174 H1187 0.985 . S
N1175 C1177 1.356 . S
N1175 H1180 0.984 . S
N1175 H1181 0.985 . S
C1176 C1170 1.379 . S
C1176 C1173 1.363 . S
C1176 N1174 1.356 . S
C1177 C1171 1.363 . S
C1177 C1172 1.379 . S
C1177 N1175 1.356 . S
N1178 C1170 1.356 . S
N1178 H1184 0.984 . S
N1178 H1185 0.984 . S
N1179 C1172 1.356 . S
N1179 H1182 0.984 . S
N1179 H1183 0.985 . S
H1180 N1175 0.984 . S
H1181 N1175 0.985 . S
H1182 N1179 0.984 . S
H1183 N1179 0.985 . S
H1184 N1178 0.984 . S
H1185 N1178 0.984 . S
H1186 N1174 0.984 . S
H1187 N1174 0.985 . S
C1188 C1189 1.363 . S
C1188 C1194 1.379 . S
C1188 N1196 1.356 . S
C1189 C1188 1.363 . S
C1189 C1195 1.363 . S
C1190 C1191 1.363 . S
C1190 C1195 1.379 . S
C1190 N1197 1.356 . S
C1191 C1190 1.363 . S
C1191 C1194 1.363 . S
N1192 C1194 1.356 . S
N1192 H1204 0.984 . S
N1192 H1205 0.985 . S
N1193 C1195 1.356 . S
N1193 H1198 0.984 . S
N1193 H1199 0.985 . S
C1194 C1188 1.379 . S
C1194 C1191 1.363 . S
C1194 N1192 1.356 . S
C1195 C1189 1.363 . S
C1195 C1190 1.379 . S
C1195 N1193 1.356 . S
N1196 C1188 1.356 . S
N1196 H1202 0.984 . S
N1196 H1203 0.984 . S
N1197 C1190 1.356 . S
N1197 H1200 0.984 . S
N1197 H1201 0.985 . S
H1198 N1193 0.984 . S
H1199 N1193 0.985 . S
H1200 N1197 0.984 . S
H1201 N1197 0.985 . S
H1202 N1196 0.984 . S
H1203 N1196 0.984 . S
H1204 N1192 0.984 . S
H1205 N1192 0.985 . S
C1206 C1207 1.363 . S
C1206 C1212 1.379 . S
C1206 N1214 1.356 . S
C1207 C1206 1.363 . S
C1207 C1213 1.363 . S
C1208 C1209 1.363 . S
C1208 C1213 1.379 . S
C1208 N1215 1.356 . S
C1209 C1208 1.363 . S
C1209 C1212 1.363 . S
N1210 C1212 1.356 . S
N1210 H1222 0.984 . S
N1210 H1223 0.985 . S
N1211 C1213 1.356 . S
N1211 H1216 0.984 . S
N1211 H1217 0.985 . S
C1212 C1206 1.379 . S
C1212 C1209 1.363 . S
C1212 N1210 1.356 . S
C1213 C1207 1.363 . S
C1213 C1208 1.379 . S
C1213 N1211 1.356 . S
N1214 C1206 1.356 . S
N1214 H1220 0.984 . S
N1214 H1221 0.984 . S
N1215 C1208 1.356 . S
N1215 H1218 0.984 . S
N1215 H1219 0.985 . S
H1216 N1211 0.984 . S
H1217 N1211 0.985 . S
H1218 N1215 0.984 . S
H1219 N1215 0.985 . S
H1220 N1214 0.984 . S
H1221 N1214 0.984 . S
H1222 N1210 0.984 . S
H1223 N1210 0.985 . S
C1224 C1225 1.363 . S
C1224 C1230 1.379 . S
C1224 N1232 1.356 . S
C1225 C1224 1.363 . S
C1225 C1231 1.363 . S
C1226 C1227 1.363 . S
C1226 C1231 1.379 . S
C1226 N1233 1.356 . S
C1227 C1226 1.363 . S
C1227 C1230 1.363 . S
N1228 C1230 1.356 . S
N1228 H1240 0.984 . S
N1228 H1241 0.985 . S
N1229 C1231 1.356 . S
N1229 H1234 0.984 . S
N1229 H1235 0.985 . S
C1230 C1224 1.379 . S
C1230 C1227 1.363 . S
C1230 N1228 1.356 . S
C1231 C1225 1.363 . S
C1231 C1226 1.379 . S
C1231 N1229 1.356 . S
N1232 C1224 1.356 . S
N1232 H1238 0.984 . S
N1232 H1239 0.984 . S
N1233 C1226 1.356 . S
N1233 H1236 0.984 . S
N1233 H1237 0.985 . S
H1234 N1229 0.984 . S
H1235 N1229 0.985 . S
H1236 N1233 0.984 . S
H1237 N1233 0.985 . S
H1238 N1232 0.984 . S
H1239 N1232 0.984 . S
H1240 N1228 0.984 . S
H1241 N1228 0.985 . S
C1242 C1243 1.363 . S
C1242 C1248 1.379 . S
C1242 N1250 1.356 . S
C1243 C1242 1.363 . S
C1243 C1249 1.363 . S
C1244 C1245 1.363 . S
C1244 C1249 1.379 . S
C1244 N1251 1.356 . S
C1245 C1244 1.363 . S
C1245 C1248 1.363 . S
N1246 C1248 1.356 . S
N1246 H1258 0.984 . S
N1246 H1259 0.985 . S
N1247 C1249 1.356 . S
N1247 H1252 0.984 . S
N1247 H1253 0.985 . S
C1248 C1242 1.379 . S
C1248 C1245 1.363 . S
C1248 N1246 1.356 . S
C1249 C1243 1.363 . S
C1249 C1244 1.379 . S
C1249 N1247 1.356 . S
N1250 C1242 1.356 . S
N1250 H1256 0.984 . S
N1250 H1257 0.984 . S
N1251 C1244 1.356 . S
N1251 H1254 0.984 . S
N1251 H1255 0.985 . S
H1252 N1247 0.984 . S
H1253 N1247 0.985 . S
H1254 N1251 0.984 . S
H1255 N1251 0.985 . S
H1256 N1250 0.984 . S
H1257 N1250 0.984 . S
H1258 N1246 0.984 . S
H1259 N1246 0.985 . S
C1260 C1261 1.363 . S
C1260 C1266 1.379 . S
C1260 N1268 1.356 . S
C1261 C1260 1.363 . S
C1261 C1267 1.363 . S
C1262 C1263 1.363 . S
C1262 C1267 1.379 . S
C1262 N1269 1.356 . S
C1263 C1262 1.363 . S
C1263 C1266 1.363 . S
N1264 C1266 1.356 . S
N1264 H1276 0.984 . S
N1264 H1277 0.985 . S
N1265 C1267 1.356 . S
N1265 H1270 0.984 . S
N1265 H1271 0.985 . S
C1266 C1260 1.379 . S
C1266 C1263 1.363 . S
C1266 N1264 1.356 . S
C1267 C1261 1.363 . S
C1267 C1262 1.379 . S
C1267 N1265 1.356 . S
N1268 C1260 1.356 . S
N1268 H1274 0.984 . S
N1268 H1275 0.984 . S
N1269 C1262 1.356 . S
N1269 H1272 0.984 . S
N1269 H1273 0.985 . S
H1270 N1265 0.984 . S
H1271 N1265 0.985 . S
H1272 N1269 0.984 . S
H1273 N1269 0.985 . S
H1274 N1268 0.984 . S
H1275 N1268 0.984 . S
H1276 N1264 0.984 . S
H1277 N1264 0.985 . S
C1278 C1279 1.363 . S
C1278 C1284 1.379 . S
C1278 N1286 1.356 . S
C1279 C1278 1.363 . S
C1279 C1285 1.363 . S
C1280 C1281 1.363 . S
C1280 C1285 1.379 . S
C1280 N1287 1.356 . S
C1281 C1280 1.363 . S
C1281 C1284 1.363 . S
N1282 C1284 1.356 . S
N1282 H1294 0.984 . S
N1282 H1295 0.985 . S
N1283 C1285 1.356 . S
N1283 H1288 0.984 . S
N1283 H1289 0.985 . S
C1284 C1278 1.379 . S
C1284 C1281 1.363 . S
C1284 N1282 1.356 . S
C1285 C1279 1.363 . S
C1285 C1280 1.379 . S
C1285 N1283 1.356 . S
N1286 C1278 1.356 . S
N1286 H1292 0.984 . S
N1286 H1293 0.984 . S
N1287 C1280 1.356 . S
N1287 H1290 0.984 . S
N1287 H1291 0.985 . S
H1288 N1283 0.984 . S
H1289 N1283 0.985 . S
H1290 N1287 0.984 . S
H1291 N1287 0.985 . S
H1292 N1286 0.984 . S
H1293 N1286 0.984 . S
H1294 N1282 0.984 . S
H1295 N1282 0.985 . S
C1296 C1297 1.363 . S
C1296 C1302 1.379 . S
C1296 N1304 1.356 . S
C1297 C1296 1.363 . S
C1297 C1303 1.363 . S
C1298 C1299 1.363 . S
C1298 C1303 1.379 . S
C1298 N1305 1.356 . S
C1299 C1298 1.363 . S
C1299 C1302 1.363 . S
N1300 C1302 1.356 . S
N1300 H1312 0.984 . S
N1300 H1313 0.985 . S
N1301 C1303 1.356 . S
N1301 H1306 0.984 . S
N1301 H1307 0.985 . S
C1302 C1296 1.379 . S
C1302 C1299 1.363 . S
C1302 N1300 1.356 . S
C1303 C1297 1.363 . S
C1303 C1298 1.379 . S
C1303 N1301 1.356 . S
N1304 C1296 1.356 . S
N1304 H1310 0.984 . S
N1304 H1311 0.984 . S
N1305 C1298 1.356 . S
N1305 H1308 0.984 . S
N1305 H1309 0.985 . S
H1306 N1301 0.984 . S
H1307 N1301 0.985 . S
H1308 N1305 0.984 . S
H1309 N1305 0.985 . S
H1310 N1304 0.984 . S
H1311 N1304 0.984 . S
H1312 N1300 0.984 . S
H1313 N1300 0.985 . S
C1314 C1315 1.363 . S
C1314 C1320 1.379 . S
C1314 N1322 1.356 . S
C1315 C1314 1.363 . S
C1315 C1321 1.363 . S
C1316 C1317 1.363 . S
C1316 C1321 1.379 . S
C1316 N1323 1.356 . S
C1317 C1316 1.363 . S
C1317 C1320 1.363 . S
N1318 C1320 1.356 . S
N1318 H1330 0.984 . S
N1318 H1331 0.985 . S
N1319 C1321 1.356 . S
N1319 H1324 0.984 . S
N1319 H1325 0.985 . S
C1320 C1314 1.379 . S
C1320 C1317 1.363 . S
C1320 N1318 1.356 . S
C1321 C1315 1.363 . S
C1321 C1316 1.379 . S
C1321 N1319 1.356 . S
N1322 C1314 1.356 . S
N1322 H1328 0.984 . S
N1322 H1329 0.984 . S
N1323 C1316 1.356 . S
N1323 H1326 0.984 . S
N1323 H1327 0.985 . S
H1324 N1319 0.984 . S
H1325 N1319 0.985 . S
H1326 N1323 0.984 . S
H1327 N1323 0.985 . S
H1328 N1322 0.984 . S
H1329 N1322 0.984 . S
H1330 N1318 0.984 . S
H1331 N1318 0.985 . S
C1332 C1333 1.363 . S
C1332 C1338 1.379 . S
C1332 N1340 1.356 . S
C1333 C1332 1.363 . S
C1333 C1339 1.363 . S
C1334 C1335 1.363 . S
C1334 C1339 1.379 . S
C1334 N1341 1.356 . S
C1335 C1334 1.363 . S
C1335 C1338 1.363 . S
N1336 C1338 1.356 . S
N1336 H1348 0.984 . S
N1336 H1349 0.985 . S
N1337 C1339 1.356 . S
N1337 H1342 0.984 . S
N1337 H1343 0.985 . S
C1338 C1332 1.379 . S
C1338 C1335 1.363 . S
C1338 N1336 1.356 . S
C1339 C1333 1.363 . S
C1339 C1334 1.379 . S
C1339 N1337 1.356 . S
N1340 C1332 1.356 . S
N1340 H1346 0.984 . S
N1340 H1347 0.984 . S
N1341 C1334 1.356 . S
N1341 H1344 0.984 . S
N1341 H1345 0.985 . S
H1342 N1337 0.984 . S
H1343 N1337 0.985 . S
H1344 N1341 0.984 . S
H1345 N1341 0.985 . S
H1346 N1340 0.984 . S
H1347 N1340 0.984 . S
H1348 N1336 0.984 . S
H1349 N1336 0.985 . S
C1350 C1351 1.363 . S
C1350 C1356 1.379 . S
C1350 N1358 1.356 . S
C1351 C1350 1.363 . S
C1351 C1357 1.363 . S
C1352 C1353 1.363 . S
C1352 C1357 1.379 . S
C1352 N1359 1.356 . S
C1353 C1352 1.363 . S
C1353 C1356 1.363 . S
N1354 C1356 1.356 . S
N1354 H1366 0.984 . S
N1354 H1367 0.985 . S
N1355 C1357 1.356 . S
N1355 H1360 0.984 . S
N1355 H1361 0.985 . S
C1356 C1350 1.379 . S
C1356 C1353 1.363 . S
C1356 N1354 1.356 . S
C1357 C1351 1.363 . S
C1357 C1352 1.379 . S
C1357 N1355 1.356 . S
N1358 C1350 1.356 . S
N1358 H1364 0.984 . S
N1358 H1365 0.984 . S
N1359 C1352 1.356 . S
N1359 H1362 0.984 . S
N1359 H1363 0.985 . S
H1360 N1355 0.984 . S
H1361 N1355 0.985 . S
H1362 N1359 0.984 . S
H1363 N1359 0.985 . S
H1364 N1358 0.984 . S
H1365 N1358 0.984 . S
H1366 N1354 0.984 . S
H1367 N1354 0.985 . S
C1368 C1369 1.363 . S
C1368 C1374 1.379 . S
C1368 N1376 1.356 . S
C1369 C1368 1.363 . S
C1369 C1375 1.363 . S
C1370 C1371 1.363 . S
C1370 C1375 1.379 . S
C1370 N1377 1.356 . S
C1371 C1370 1.363 . S
C1371 C1374 1.363 . S
N1372 C1374 1.356 . S
N1372 H1384 0.984 . S
N1372 H1385 0.985 . S
N1373 C1375 1.356 . S
N1373 H1378 0.984 . S
N1373 H1379 0.985 . S
C1374 C1368 1.379 . S
C1374 C1371 1.363 . S
C1374 N1372 1.356 . S
C1375 C1369 1.363 . S
C1375 C1370 1.379 . S
C1375 N1373 1.356 . S
N1376 C1368 1.356 . S
N1376 H1382 0.984 . S
N1376 H1383 0.984 . S
N1377 C1370 1.356 . S
N1377 H1380 0.984 . S
N1377 H1381 0.985 . S
H1378 N1373 0.984 . S
H1379 N1373 0.985 . S
H1380 N1377 0.984 . S
H1381 N1377 0.985 . S
H1382 N1376 0.984 . S
H1383 N1376 0.984 . S
H1384 N1372 0.984 . S
H1385 N1372 0.985 . S
C415 N170 1.805 . S
C417 C240 1.811 . S
C433 N184 1.191 . S
C435 C260 1.169 . S
C451 N158 1.556 . S
C453 C283 1.553 . S
C469 N145 1.501 . S
C471 C263 1.498 1_556 S
C489 C280 1.145 . S
C487 N119 1.164 . S
C505 N131 1.806 . S
C507 C243 1.826 1_556 S
C525 C250 1.582 1_556 S
C523 N144 1.606 . S
C543 C270 1.396 . S
C541 N118 1.435 . S
C559 N132 1.523 . S
C561 C275 1.532 . S
C577 N171 1.480 . S
C579 C255 1.489 . S
C595 N183 1.381 . S
C597 C290 1.357 . S
C615 C235 1.566 . S
C613 N157 1.571 . S
C633 C300 1.810 . S
C631 N14 1.805 . S
C649 N28 1.192 . S
C651 C320 1.169 . S
C667 N2 1.556 . S
C669 C343 1.553 . S
C685 N223 1.501 . S
C687 C323 1.498 . S
C703 N197 1.164 . S
C705 C340 1.145 . S
C721 N209 1.806 . S
C723 C303 1.826 . S
C739 N222 1.606 . S
C741 C310 1.582 . S
C757 N196 1.435 . S
C759 C330 1.396 . S
C777 C335 1.532 . S
C775 N210 1.523 . S
C793 N15 1.480 . S
C795 C315 1.489 . S
C813 C350 1.357 . S
C811 N27 1.381 . S
C829 N1 1.571 . S
C831 C295 1.566 . S
C849 C360 1.811 . S
C847 N92 1.805 . S
C865 N106 1.191 . S
C867 C380 1.169 . S
C885 C403 1.553 . S
C883 N80 1.556 . S
C903 C383 1.498 . S
C901 N67 1.501 . S
C921 C400 1.145 . S
C919 N41 1.164 . S
C937 N53 1.806 . S
C939 C363 1.826 . S
C955 N66 1.606 . S
C957 C370 1.583 1_455 S
C973 N40 1.435 . S
C975 C390 1.396 . S
C993 C395 1.532 . S
C991 N54 1.523 . S
C1009 N93 1.480 . S
C1011 C375 1.489 . S
C1027 N105 1.381 . S
C1029 C410 1.357 . S
C1045 N79 1.571 . S
C1047 C355 1.566 . S
C1063 N200 1.111 . S
C1065 C253 1.091 . S
C1083 C273 1.786 . S
C1081 N213 1.802 . S
C1099 N226 1.504 . S
C1101 C282 1.474 . S
C1117 N83 1.568 . S
C1119 C262 1.532 . S
C1135 N96 1.745 . S
C1137 C293 1.736 . S
C1155 C242 1.139 . S
C1153 N109 1.154 . S
C1171 N44 1.111 . S
C1173 C313 1.091 . S
C1189 N57 1.802 . S
C1191 C333 1.786 . S
C1207 N70 1.504 . S
C1209 C342 1.474 . S
C1225 N161 1.568 . S
C1227 C322 1.532 . S
C1245 C353 1.736 . S
C1243 N174 1.745 . S
C1261 N187 1.154 . S
C1263 C302 1.139 . S
C1279 N122 1.111 . S
C1281 C373 1.091 . S
C1297 N135 1.802 . S
C1299 C393 1.786 . S
C1317 C402 1.474 . S
C1315 N148 1.504 . S
C1333 N5 1.568 . S
C1335 C382 1.532 . S
C1351 N18 1.745 . S
C1353 C413 1.736 . S
C1369 N31 1.154 . S
C1371 C362 1.139 . S
