# Generated by pormake.
# Topology zzz, (3,6)-cn, num edge types: 1
# Building blocks:
#     Node 0, Type 0, BuildingBlock: BETDAH_clean_linker_0, # of connection points: 3
#     Node 1, Type 0, BuildingBlock: BETDAH_clean_linker_0, # of connection points: 3
#     Node 2, Type 0, BuildingBlock: BETDAH_clean_linker_0, # of connection points: 3
#     Node 3, Type 0, BuildingBlock: BETDAH_clean_linker_0, # of connection points: 3
#     Node 4, Type 0, BuildingBlock: BETDAH_clean_linker_0, # of connection points: 3
#     Node 5, Type 0, BuildingBlock: BETDAH_clean_linker_0, # of connection points: 3
#     Node 6, Type 0, BuildingBlock: BETDAH_clean_linker_0, # of connection points: 3
#     Node 7, Type 0, BuildingBlock: BETDAH_clean_linker_0, # of connection points: 3
#     Node 8, Type 1, BuildingBlock: HISSIN_clean_sbu_0, # of connection points: 6
#     Node 9, Type 1, BuildingBlock: HISSIN_clean_sbu_0, # of connection points: 6
#     Node 10, Type 1, BuildingBlock: HISSIN_clean_sbu_0, # of connection points: 6
#     Node 11, Type 1, BuildingBlock: HISSIN_clean_sbu_0, # of connection points: 6
#     Edge 12, Type (0, 1), BuildingBlock: CIFDUS_clean_linker_0, # of connection points: 2
#     Edge 13, Type (0, 1), BuildingBlock: CIFDUS_clean_linker_0, # of connection points: 2
#     Edge 14, Type (0, 1), BuildingBlock: CIFDUS_clean_linker_0, # of connection points: 2
#     Edge 15, Type (0, 1), BuildingBlock: CIFDUS_clean_linker_0, # of connection points: 2
#     Edge 16, Type (0, 1), BuildingBlock: CIFDUS_clean_linker_0, # of connection points: 2
#     Edge 17, Type (0, 1), BuildingBlock: CIFDUS_clean_linker_0, # of connection points: 2
#     Edge 18, Type (0, 1), BuildingBlock: CIFDUS_clean_linker_0, # of connection points: 2
#     Edge 19, Type (0, 1), BuildingBlock: CIFDUS_clean_linker_0, # of connection points: 2
#     Edge 20, Type (0, 1), BuildingBlock: CIFDUS_clean_linker_0, # of connection points: 2
#     Edge 21, Type (0, 1), BuildingBlock: CIFDUS_clean_linker_0, # of connection points: 2
#     Edge 22, Type (0, 1), BuildingBlock: CIFDUS_clean_linker_0, # of connection points: 2
#     Edge 23, Type (0, 1), BuildingBlock: CIFDUS_clean_linker_0, # of connection points: 2
#     Edge 24, Type (0, 1), BuildingBlock: CIFDUS_clean_linker_0, # of connection points: 2
#     Edge 25, Type (0, 1), BuildingBlock: CIFDUS_clean_linker_0, # of connection points: 2
#     Edge 26, Type (0, 1), BuildingBlock: CIFDUS_clean_linker_0, # of connection points: 2
#     Edge 27, Type (0, 1), BuildingBlock: CIFDUS_clean_linker_0, # of connection points: 2
#     Edge 28, Type (0, 1), BuildingBlock: CIFDUS_clean_linker_0, # of connection points: 2
#     Edge 29, Type (0, 1), BuildingBlock: CIFDUS_clean_linker_0, # of connection points: 2
#     Edge 30, Type (0, 1), BuildingBlock: CIFDUS_clean_linker_0, # of connection points: 2
#     Edge 31, Type (0, 1), BuildingBlock: CIFDUS_clean_linker_0, # of connection points: 2
#     Edge 32, Type (0, 1), BuildingBlock: CIFDUS_clean_linker_0, # of connection points: 2
#     Edge 33, Type (0, 1), BuildingBlock: CIFDUS_clean_linker_0, # of connection points: 2
#     Edge 34, Type (0, 1), BuildingBlock: CIFDUS_clean_linker_0, # of connection points: 2
#     Edge 35, Type (0, 1), BuildingBlock: CIFDUS_clean_linker_0, # of connection points: 2
# Relax obj value: 0.301
# Max RMSD: 0.194
# Mean RMSD: 0.098
data_MOF--net-zzz--node1-HISSIN_clean_sbu_0--node2-BETDAH_clean_linker_0--edge1-CIFDUS_clean_linker_0
_symmetry_space_group_name_H-M    P1
_symmetry_Int_Tables_number       1
_symmetry_cell_setting            triclinic
loop_
_symmetry_equiv_pos_as_xyz
'x, y, z'
_cell_length_a     43.61294
_cell_length_b     43.785191
_cell_length_c     14.366865
_cell_angle_alpha  90.195983
_cell_angle_beta   91.82817
_cell_angle_gamma 90.414877
loop_
_atom_site_label
_atom_site_type_symbol
_atom_site_fract_x
_atom_site_fract_y
_atom_site_fract_z
_atom_type_partial_charge
H0 H 0.83128 0.55874 0.33028 0.0
H1 H 0.73618 0.55522 0.24989 0.0
H2 H 0.76524 0.5326 0.53154 0.0
C3 C 0.80762 0.55615 0.3499 0.0
C4 C 0.80156 0.54728 0.44125 0.0
C5 C 0.78422 0.55865 0.28094 0.0
C6 C 0.75389 0.5532 0.30395 0.0
C7 C 0.7466 0.54343 0.39354 0.0
C8 C 0.77062 0.54043 0.46251 0.0
N9 N 0.7156 0.53531 0.41322 0.0
C10 C 0.6915 0.53507 0.34566 0.0
H11 H 0.07863 0.82161 0.34569 0.0
H12 H 0.05548 0.73659 0.2103 0.0
H13 H 1.01044 0.76295 0.46151 0.0
C14 C 0.06607 0.80012 0.34471 0.0
C15 C 0.04473 0.79477 0.41352 0.0
C16 C 0.06982 0.77942 0.27115 0.0
C17 C 0.05262 0.75227 0.26776 0.0
C18 C 0.03134 0.74579 0.33655 0.0
C19 C 0.0272 0.76741 0.40913 0.0
N20 N 1.01347 0.71824 0.33294 0.0
C21 C 1.01484 0.69566 0.26334 0.0
H22 H 0.72012 0.07468 0.3133 0.0
H23 H 0.80528 0.05979 0.17911 0.0
H24 H 0.78003 1.003 0.41015 0.0
C25 C 0.74157 0.06241 0.30954 0.0
C26 C 0.74729 0.03827 0.37137 0.0
C27 C 0.76244 0.07024 0.24079 0.0
C28 C 0.78963 0.05372 0.23313 0.0
C29 C 0.7964 0.02931 0.29314 0.0
C30 C 0.77517 0.02184 0.36345 0.0
N31 N 0.82387 1.01182 0.28248 0.0
C32 C 0.84519 1.01577 0.2113 0.0
H33 H 0.48787 0.71754 0.38007 0.0
H34 H 0.49915 0.80015 0.22402 0.0
H35 H 0.57104 0.76967 0.41447 0.0
C36 C 0.50086 0.73811 0.36592 0.0
C37 C 0.52997 0.74156 0.40872 0.0
C38 C 0.48967 0.75873 0.2984 0.0
C39 C 0.50767 0.78427 0.27612 0.0
C40 C 0.53705 0.78858 0.31783 0.0
C41 C 0.5482 0.7669 0.38364 0.0
N42 N 0.5562 0.81371 0.29258 0.0
C43 C 0.54906 0.83529 0.22325 0.0
H44 H 0.23404 0.56026 0.11716 0.0
H45 H 0.32555 0.55036 0.23219 0.0
H46 H 0.29439 0.4949 0.998 0.0
C47 C 0.25655 0.54995 0.11501 0.0
C48 C 0.26141 0.52721 0.04858 0.0
C49 C 0.27954 0.55863 0.18084 0.0
C50 C 0.30801 0.54396 0.18056 0.0
C51 C 0.31367 0.52082 0.11523 0.0
C52 C 0.29033 0.51283 0.04814 0.0
N53 N 0.34212 0.50477 0.11746 0.0
C54 C 0.36567 0.50897 0.1853 0.0
H55 H 0.98432 0.21483 0.10655 0.0
H56 H 1.0008 0.29876 0.25608 0.0
H57 H 0.06775 0.26509 0.06671 0.0
C58 C 0.99819 0.23521 0.11875 0.0
C59 C 0.02656 0.23753 0.07631 0.0
C60 C 0.98903 0.25685 0.18452 0.0
C61 C 1.00777 0.28241 0.20423 0.0
C62 C 0.03597 0.28604 0.16048 0.0
C63 C 0.04554 0.2631 0.09791 0.0
N64 N 0.05564 0.31165 0.18087 0.0
C65 C 0.04885 0.33617 0.23987 0.0
H66 H 0.33666 0.97299 0.11977 0.0
H67 H 0.24909 0.9844 0.24417 0.0
H68 H 0.2819 0.05107 0.04901 0.0
C69 C 0.31549 0.98558 0.12558 0.0
C70 C 0.31219 1.0128 0.07563 0.0
C71 C 0.29293 0.97504 0.18583 0.0
C72 C 0.2662 0.99223 0.19656 0.0
C73 C 0.26186 0.01978 0.14791 0.0
C74 C 0.28488 0.02977 0.0862 0.0
N75 N 0.23524 0.03816 0.1619 0.0
C76 C 0.21136 0.03176 0.22313 0.0
H77 H 0.57766 0.32816 0.12309 0.0
H78 H 0.56644 0.2404 0.25261 0.0
H79 H 0.50205 0.27058 0.03846 0.0
C80 C 0.56607 0.30624 0.12691 0.0
C81 C 0.53977 0.30158 0.07037 0.0
C82 C 0.5758 0.28464 0.19375 0.0
C83 C 0.55916 0.25714 0.20136 0.0
C84 C 0.53259 0.25173 0.14513 0.0
C85 C 0.52285 0.27426 0.08035 0.0
N86 N 0.51468 0.22448 0.15396 0.0
C87 C 0.52049 0.2009 0.21777 0.0
Eu88 Eu 1.00483 0.02861 0.6435 0.0
Eu89 Eu 0.05658 1.01005 0.79673 0.0
C90 C 0.03296 0.08026 0.78829 0.0
C91 C 0.94589 0.07485 0.51134 0.0
C92 C 0.94234 0.09401 0.58876 0.0
C93 C 0.92865 0.1156 0.40969 0.0
C94 C 0.93321 0.1243 0.57621 0.0
C95 C 0.93749 0.08531 0.42245 0.0
C96 C 0.92812 0.13599 0.4859 0.0
C97 C 0.96364 0.04665 0.52035 0.0
O98 O 1.01163 0.99819 0.86535 0.0
O99 O 0.98002 0.02989 0.78111 0.0
C100 C 0.98538 1.01278 0.85502 0.0
O101 O 1.00237 0.97716 0.64141 0.0
O102 O 0.07409 0.99761 0.93573 0.0
O103 O 0.10523 1.0018 0.82216 0.0
O104 O 0.04945 0.96673 0.70825 0.0
C105 C 0.02473 0.95793 0.6597 0.0
O106 O 0.04918 0.01971 0.56547 0.0
O107 O 0.07951 0.03704 0.68427 0.0
O108 O 0.04574 0.05871 0.83981 0.0
O109 O 0.99308 0.05033 0.51124 0.0
O110 O 0.95736 0.02887 0.58996 0.0
O111 O 1.02022 0.0741 0.70586 0.0
C112 C 0.11609 0.96417 0.93469 0.0
C113 C 0.11961 0.94054 0.86949 0.0
C114 C 0.13493 0.93081 0.0573 0.0
C115 C 0.13003 0.91193 0.89864 0.0
C116 C 0.12452 0.95933 0.02808 0.0
C117 C 0.13684 0.90648 0.99342 0.0
C118 C 0.10189 0.99324 0.90792 0.0
C119 C 0.07609 0.03002 0.59588 0.0
H120 H 0.94878 0.08626 0.65817 0.0
H121 H 0.92528 0.12355 0.33887 0.0
H122 H 0.93252 0.13913 0.63657 0.0
H123 H 0.94024 0.07084 0.36198 0.0
H124 H 0.11315 0.94378 0.79677 0.0
H125 H 0.13927 0.92731 0.13113 0.0
H126 H 0.13127 0.89367 0.84788 0.0
H127 H 0.12152 0.97718 0.07922 0.0
Eu128 Eu 0.54865 0.04865 0.81967 0.0
Eu129 Eu 0.51694 1.00196 0.67123 0.0
C130 C 0.54458 0.97744 0.87044 0.0
C131 C 0.58906 0.11552 0.9502 0.0
C132 C 0.60756 0.12433 0.87681 0.0
C133 C 0.6189 0.14786 0.05569 0.0
C134 C 0.63298 0.1434 0.89456 0.0
C135 C 0.59347 0.12912 0.03767 0.0
C136 C 0.64061 0.1528 0.98646 0.0
C137 C 0.56896 0.08872 0.9423 0.0
O138 O 0.47656 0.02303 0.74578 0.0
O139 O 0.50346 0.03345 0.88033 0.0
C140 C 0.47699 0.02906 0.83557 0.0
O141 O 0.52773 0.07849 0.70698 0.0
O142 O 0.5099 0.95456 0.62558 0.0
O143 O 0.4874 0.99141 0.55066 0.0
O144 O 0.52491 0.04479 0.58548 0.0
C145 C 0.52513 0.07299 0.61725 0.0
O146 O 0.58643 0.04354 0.71372 0.0
O147 O 0.56758 1.00104 0.63547 0.0
O148 O 0.5226 0.97491 0.80605 0.0
O149 O 0.54324 0.09168 0.89482 0.0
O150 O 0.5825 0.06291 0.92551 0.0
O151 O 0.56159 1.00226 0.87621 0.0
C152 C 0.45895 0.94638 0.57058 0.0
C153 C 0.43471 0.96125 0.61298 0.0
C154 C 0.42402 0.90548 0.52262 0.0
C155 C 0.405 0.94958 0.60405 0.0
C156 C 0.4538 0.91765 0.52971 0.0
C157 C 0.3988 0.92242 0.5534 0.0
C158 C 0.48876 0.96196 0.56372 0.0
C159 C 0.58964 0.02142 0.652 0.0
H160 H 0.60399 0.11437 0.80813 0.0
H161 H 0.62339 0.15481 0.12722 0.0
H162 H 0.64854 0.14769 0.83874 0.0
H163 H 0.57908 0.12277 0.09472 0.0
H164 H 0.43832 0.98309 0.64738 0.0
H165 H 0.42069 0.88379 0.48733 0.0
H166 H 0.38685 0.96369 0.62981 0.0
H167 H 0.47249 0.90536 0.49919 0.0
Eu168 Eu 0.50742 0.52957 0.81848 0.0
Eu169 Eu 0.56122 0.5159 0.67061 0.0
C170 C 0.57875 0.52885 0.89101 0.0
C171 C 0.45357 0.57907 0.94013 0.0
C172 C 0.47492 0.60231 0.92403 0.0
C173 C 0.41661 0.6173 0.98464 0.0
C174 C 0.4674 0.63267 0.93834 0.0
C175 C 0.42421 0.58661 0.96955 0.0
C176 C 0.43823 0.64068 0.96927 0.0
C177 C 0.46194 0.54753 0.91849 0.0
O178 O 0.5468 0.46908 0.72376 0.0
O179 O 0.51791 0.48029 0.85107 0.0
C180 C 0.53264 0.46066 0.79959 0.0
O181 O 0.48589 0.50374 0.69624 0.0
O182 O 0.60938 0.51253 0.63263 0.0
O183 O 0.57326 0.50086 0.53214 0.0
O184 O 0.51663 0.52359 0.58746 0.0
C185 C 0.49017 0.51165 0.60967 0.0
O186 O 0.51444 0.57348 0.73742 0.0
O187 O 0.5613 0.56758 0.67204 0.0
O188 O 0.5857 0.51579 0.81187 0.0
O189 O 0.459 0.54054 0.83057 0.0
O190 O 0.48816 0.53843 0.95451 0.0
O191 O 0.55121 0.54001 0.90377 0.0
C192 C 0.61709 0.47036 0.53395 0.0
C193 C 0.60179 0.44334 0.55679 0.0
C194 C 0.65646 0.44039 0.46121 0.0
C195 C 0.61279 0.41521 0.52826 0.0
C196 C 0.64502 0.46877 0.48875 0.0
C197 C 0.63977 0.41324 0.47705 0.0
C198 C 0.60259 0.49986 0.55237 0.0
C199 C 0.53789 0.58475 0.69285 0.0
H200 H 0.49767 0.59696 0.90091 0.0
H201 H 0.39404 0.62271 1.00903 0.0
H202 H 0.48506 0.64977 0.92851 0.0
H203 H 0.40731 0.56888 0.981 0.0
H204 H 0.58025 0.44403 0.59213 0.0
H205 H 0.67764 0.43995 0.424 0.0
H206 H 0.59861 0.39539 0.54095 0.0
H207 H 0.65738 0.48946 0.47176 0.0
Eu208 Eu 0.04711 0.54295 0.6591 0.0
Eu209 Eu 1.01844 0.49879 0.81037 0.0
C210 C 0.09248 0.51138 0.81514 0.0
C211 C 0.10114 0.59439 0.52935 0.0
C212 C 0.12782 0.57791 0.55093 0.0
C213 C 0.13237 0.636 0.47235 0.0
C214 C 0.15637 0.58951 0.52792 0.0
C215 C 0.10362 0.62401 0.49372 0.0
C216 C 0.15901 0.61818 0.48422 0.0
C217 C 0.07086 0.58008 0.53902 0.0
O218 O 1.01032 0.54699 0.86382 0.0
O219 O 0.0519 0.56803 0.79702 0.0
C220 C 0.03091 0.56899 0.86045 0.0
O221 O 0.99601 0.55292 0.64864 0.0
O222 O 1.0102 0.48589 0.95379 0.0
O223 O 0.9919 0.45774 0.84067 0.0
O224 O 0.97766 0.50926 0.71331 0.0
C225 C 0.973 0.53432 0.66523 0.0
O226 O 0.03527 0.49813 0.58377 0.0
O227 O 0.04231 0.46787 0.71034 0.0
O228 O 0.06798 0.50306 0.86031 0.0
O229 O 0.06969 0.55046 0.52846 0.0
O230 O 0.05491 0.58938 0.60864 0.0
O231 O 0.09007 0.52351 0.73128 0.0
C232 C 0.95811 0.47361 0.95577 0.0
C233 C 0.9344 0.47671 0.88737 0.0
C234 C 0.92956 0.50538 0.05985 0.0
C235 C 0.90933 0.49534 0.90358 0.0
C236 C 0.95446 0.48657 0.04404 0.0
C237 C 0.9077 0.51107 0.98817 0.0
C238 C 0.98925 0.46592 0.92752 0.0
C239 C 0.04027 0.47094 0.61965 0.0
H240 H 0.12652 0.55523 0.58058 0.0
H241 H 0.13343 0.65852 0.44172 0.0
H242 H 0.17587 0.57463 0.53798 0.0
H243 H 0.08323 0.63736 0.47873 0.0
H244 H 0.93636 0.46687 0.81858 0.0
H245 H 0.928 0.51644 0.12711 0.0
H246 H 0.89224 0.49886 0.84833 0.0
H247 H 0.97228 0.48449 0.09792 0.0
H248 H 0.20412 0.0518 0.40082 0.0
H249 H 0.15782 1.00352 0.17584 0.0
H250 H 0.11138 0.99901 0.26771 0.0
H251 H 0.08346 1.00925 0.41396 0.0
H252 H 0.13108 0.05742 0.6385 0.0
H253 H 0.1767 0.06152 0.54619 0.0
C254 C 0.18391 0.04012 0.37228 0.0
C255 C 0.18449 0.02779 0.28157 0.0
C256 C 0.15718 0.03775 0.42586 0.0
C257 C 0.158 1.01297 0.24554 0.0
C258 C 0.13138 1.01052 0.29817 0.0
C259 C 0.10373 0.02081 0.44255 0.0
C260 C 0.10332 0.03311 0.53389 0.0
C261 C 0.13054 0.02294 0.38863 0.0
C262 C 0.13024 0.04771 0.56904 0.0
C263 C 0.15661 0.05007 0.51606 0.0
H264 H 0.51587 0.20015 0.40507 0.0
H265 H 0.53103 0.14255 0.16792 0.0
H266 H 0.5334 0.09743 0.26887 0.0
H267 H 0.53048 0.07412 0.42593 0.0
H268 H 0.51528 0.13258 0.66239 0.0
H269 H 0.5134 0.17706 0.56136 0.0
C270 C 0.51989 0.1777 0.37589 0.0
C271 C 0.52356 0.17461 0.27948 0.0
C272 C 0.52096 0.15183 0.4345 0.0
C273 C 0.52848 0.14545 0.24219 0.0
C274 C 0.52967 0.11964 0.29992 0.0
C275 C 0.52659 0.09655 0.45531 0.0
C276 C 0.52292 0.09968 0.55224 0.0
C277 C 0.52577 0.12246 0.39638 0.0
C278 C 0.51819 0.12917 0.58851 0.0
C279 C 0.51713 0.15481 0.53061 0.0
H280 H 0.36834 0.48826 0.36257 0.0
H281 H 0.42011 0.53706 0.15989 0.0
H282 H 0.46366 0.54184 0.27169 0.0
H283 H 0.48716 0.53206 0.42821 0.0
H284 H 0.43474 0.48344 0.63083 0.0
H285 H 0.39176 0.4786 0.51884 0.0
C286 C 0.38918 0.49999 0.34326 0.0
C287 C 0.39107 0.51236 0.25336 0.0
C288 C 0.41416 0.50258 0.4081 0.0
C289 C 0.41814 0.52743 0.22887 0.0
C290 C 0.44306 0.53011 0.2928 0.0
C291 C 0.46641 0.52028 0.44784 0.0
C292 C 0.46448 0.50808 0.53846 0.0
C293 C 0.44142 0.51772 0.38277 0.0
C294 C 0.43714 0.49308 0.5621 0.0
C295 C 0.4124 0.4903 0.49789 0.0
H296 H 0.05769 0.34122 0.42678 0.0
H297 H 0.03074 0.39204 0.18202 0.0
H298 H 0.02592 0.43855 0.27619 0.0
H299 H 0.03005 0.46516 0.42926 0.0
H300 H 0.05681 0.41352 0.67369 0.0
H301 H 0.06105 0.36751 0.57946 0.0
C302 C 0.05056 0.36248 0.39441 0.0
C303 C 0.04441 0.36321 0.29772 0.0
C304 C 0.04797 0.3892 0.4492 0.0
C305 C 0.03542 0.3909 0.25644 0.0
C306 C 0.03276 0.41753 0.31034 0.0
C307 C 0.03688 0.44388 0.46194 0.0
C308 C 0.04315 0.44315 0.55905 0.0
C309 C 0.03913 0.41707 0.40695 0.0
C310 C 0.0518 0.4151 0.59953 0.0
C311 C 0.05424 0.38858 0.54554 0.0
H312 H 0.90127 0.98892 0.20534 0.0
H313 H 0.8404 0.04861 0.05134 0.0
H314 H 0.87779 0.05311 0.92801 0.0
H315 H 0.9282 0.03999 0.86255 0.0
H316 H 0.98882 0.97986 0.01723 0.0
H317 H 0.95155 0.97569 0.13976 0.0
C318 C 0.89623 1.00294 0.14476 0.0
C319 C 0.86799 0.0185 0.13802 0.0
C320 C 0.91797 1.00532 0.07343 0.0
C321 C 0.86189 0.03648 0.05882 0.0
C322 C 0.88334 0.03902 0.98797 0.0
C323 C 0.93333 0.0259 0.92288 0.0
C324 C 0.96167 1.01023 0.92936 0.0
C325 C 0.91153 0.02353 0.9942 0.0
C326 C 0.96749 0.99221 1.00904 0.0
C327 C 0.94605 0.98979 0.07976 0.0
H328 H 0.58212 0.88684 0.20013 0.0
H329 H 0.50477 0.83601 0.08612 0.0
H330 H 0.49653 0.87507 0.96576 0.0
H331 H 0.51135 0.92414 0.89286 0.0
H332 H 0.58905 0.97463 1.00869 0.0
H333 H 0.59707 0.93553 0.12709 0.0
C334 C 0.56345 0.8844 0.14886 0.0
C335 C 0.54399 0.85866 0.15208 0.0
C336 C 0.55894 0.90697 0.07971 0.0
C337 C 0.51996 0.85568 0.08525 0.0
C338 C 0.5153 0.87802 0.01631 0.0
C339 C 0.53012 0.92659 0.94372 0.0
C340 C 0.54955 0.95257 0.94096 0.0
C341 C 0.53465 0.90384 1.01269 0.0
C342 C 0.57365 0.95511 1.00826 0.0
C343 C 0.5783 0.93267 0.07648 0.0
H344 H 0.69708 0.52374 0.16188 0.0
H345 H 0.63105 0.54637 0.36706 0.0
H346 H 0.59012 0.54742 0.2455 0.0
H347 H 0.57297 0.54174 0.07901 0.0
H348 H 0.63996 0.51845 0.87604 0.0
H349 H 0.68019 0.51812 0.99724 0.0
C350 C 0.67372 0.52897 0.17982 0.0
C351 C 0.66711 0.53512 0.27323 0.0
C352 C 0.65032 0.52953 0.10937 0.0
C353 C 0.63672 0.54165 0.29556 0.0
C354 C 0.61331 0.54227 0.22592 0.0
C355 C 0.59638 0.53678 0.06115 0.0
C356 C 0.60311 0.53017 0.9675 0.0
C357 C 0.61979 0.53631 0.13221 0.0
C358 C 0.63374 0.52356 0.94677 0.0
C359 C 0.65696 0.52334 0.01637 0.0
H360 H 0.05296 0.68614 0.11976 0.0
H361 H 0.97428 0.64896 0.25441 0.0
H362 H 0.9717 0.60653 0.14238 0.0
H363 H 0.99208 0.57956 1.00553 0.0
H364 H 0.07097 0.61725 0.87143 0.0
H365 H 0.07312 0.6594 0.98259 0.0
C366 C 0.03527 0.66874 0.12434 0.0
C367 C 1.01381 0.67068 0.19526 0.0
C368 C 0.03395 0.64431 0.05938 0.0
C369 C 0.99104 0.64796 0.20041 0.0
C370 C 0.98957 0.62366 0.13628 0.0
C371 C 1.00973 0.597 1.00041 0.0
C372 C 0.03132 0.59492 0.92934 0.0
C373 C 1.01092 0.62151 0.06529 0.0
C374 C 0.05398 0.61795 0.92469 0.0
C375 C 0.05528 0.64223 0.98861 0.0
H376 H 0.99086 0.25389 0.37154 0.0
H377 H 0.9306 0.23958 0.13169 0.0
H378 H 0.89851 0.2053 0.22146 0.0
H379 H 0.89741 0.16887 0.35077 0.0
H380 H 0.96308 0.17886 0.58052 0.0
H381 H 0.98175 0.22614 0.51543 0.0
C382 C 0.96984 0.24447 0.34038 0.0
C383 C 0.96341 0.24857 0.24486 0.0
C384 C 0.95267 0.22338 0.39072 0.0
C385 C 0.93614 0.23631 0.20502 0.0
C386 C 0.918 0.21647 0.2561 0.0
C387 C 0.91527 0.18182 0.38779 0.0
C388 C 0.92962 0.16947 0.46826 0.0
C389 C 0.92754 0.20801 0.34649 0.0
C390 C 0.95174 0.1873 0.51771 0.0
C391 C 0.96286 0.21431 0.47974 0.0
H392 H 0.28282 0.96893 0.37158 0.0
H393 H 0.31967 0.92107 0.13757 0.0
H394 H 0.3525 0.89131 0.24264 0.0
H395 H 0.38125 0.89289 0.3904 0.0
H396 H 0.34267 0.93755 0.62803 0.0
H397 H 0.29902 0.95374 0.53114 0.0
C398 C 0.29683 0.95096 0.34352 0.0
C399 C 0.30029 0.94852 0.24671 0.0
C400 C 0.31591 0.93405 0.40436 0.0
C401 C 0.31782 0.92441 0.21194 0.0
C402 C 0.33665 0.9074 0.27197 0.0
C403 C 0.36292 0.90493 0.4234 0.0
C404 C 0.36696 0.91657 0.5147 0.0
C405 C 0.33778 0.91412 0.3674 0.0
C406 C 0.34162 0.93054 0.55567 0.0
C407 C 0.31644 0.93973 0.5004 0.0
H408 H 0.62819 0.31738 0.16577 0.0
H409 H 0.57787 0.27312 0.38189 0.0
H410 H 0.60425 0.30478 0.499 0.0
H411 H 0.62872 0.35421 0.53272 0.0
H412 H 0.66662 0.40589 0.30714 0.0
H413 H 0.65946 0.36243 0.204 0.0
C414 C 0.62338 0.31428 0.23877 0.0
C415 C 0.59998 0.29389 0.26419 0.0
C416 C 0.63621 0.3347 0.30474 0.0
C417 C 0.5953 0.28895 0.35945 0.0
C418 C 0.6101 0.30745 0.42672 0.0
C419 C 0.63561 0.35603 0.46112 0.0
C420 C 0.64663 0.38413 0.4273 0.0
C421 C 0.6285 0.33202 0.39905 0.0
C422 C 0.65749 0.38505 0.33598 0.0
C423 C 0.653 0.36018 0.27591 0.0
H424 H 0.24724 0.6112 0.16448 0.0
H425 H 0.29398 0.55432 0.36748 0.0
H426 H 0.26599 0.57836 0.49183 0.0
H427 H 0.21858 0.60373 0.5342 0.0
H428 H 0.16481 0.65034 0.32102 0.0
H429 H 0.20554 0.64395 0.21273 0.0
C430 C 0.25176 0.60457 0.2363 0.0
C431 C 0.2717 0.58021 0.25625 0.0
C432 C 0.23378 0.61662 0.30634 0.0
C433 C 0.27841 0.57271 0.34978 0.0
C434 C 0.2621 0.58624 0.42101 0.0
C435 C 0.21581 0.61279 0.46431 0.0
C436 C 0.1877 0.6259 0.43505 0.0
C437 C 0.23806 0.60634 0.39888 0.0
C438 C 0.18565 0.63948 0.34625 0.0
C439 C 0.2089 0.63543 0.28307 0.0
H440 H 0.12758 0.80299 0.27654 0.0
H441 H 0.05261 0.77826 0.08764 0.0
H442 H 0.0734 0.81113 0.96818 0.0
H443 H 0.10333 0.85708 0.93797 0.0
H444 H 0.17595 0.88511 0.13142 0.0
H445 H 0.16599 0.84056 0.22802 0.0
C446 C 0.11648 0.80405 0.20796 0.0
C447 C 0.08822 0.78906 0.19156 0.0
C448 C 0.12773 0.82416 0.14134 0.0
C449 C 0.07427 0.78986 0.10213 0.0
C450 C 0.08597 0.80896 0.03411 0.0
C451 C 0.11798 0.85278 0.99886 0.0
C452 C 0.13964 0.87489 0.02932 0.0
C453 C 0.11133 0.82784 0.05569 0.0
C454 C 0.15851 0.86881 0.10815 0.0
C455 C 0.15275 0.84342 0.16354 0.0
H456 H 0.74081 0.12764 0.26846 0.0
H457 H 0.76384 0.06368 0.0531 0.0
H458 H 0.73447 0.09315 0.93841 0.0
H459 H 0.69092 0.12642 0.91372 0.0
H460 H 0.66501 0.18916 0.12936 0.0
H461 H 0.70794 0.17182 0.22819 0.0
C462 C 0.74013 0.12081 0.19576 0.0
C463 C 0.75353 0.09309 0.16955 0.0
C464 C 0.72241 0.13739 0.13059 0.0
C465 C 0.75334 0.08475 0.07505 0.0
C466 C 0.73638 0.10151 1.00947 0.0
C467 C 0.69525 0.13758 0.98032 0.0
C468 C 0.67334 0.15746 0.01681 0.0
C469 C 0.71904 0.12647 0.03814 0.0
C470 C 0.68056 0.1725 0.10161 0.0
C471 C 0.70495 0.16236 0.15865 0.0
H472 H 0.48204 0.76346 0.1101 0.0
H473 H 0.43568 0.73261 0.35374 0.0
H474 H 0.40702 0.69499 0.25987 0.0
H475 H 0.40972 0.66116 0.12335 0.0
H476 H 0.45503 0.69296 0.8789 0.0
H477 H 0.46869 0.74068 0.95803 0.0
C478 C 0.46453 0.74973 0.14223 0.0
C479 C 0.46242 0.74942 0.23972 0.0
C480 C 0.44855 0.72775 0.08812 0.0
C481 C 0.43882 0.73214 0.27924 0.0
C482 C 0.42251 0.71049 0.22568 0.0
C483 C 0.42119 0.67907 0.0855 0.0
C484 C 0.43299 0.67285 0.99753 0.0
C485 C 0.42939 0.70633 0.13193 0.0
C486 C 0.44703 0.6967 0.94863 0.0
C487 C 0.45492 0.724 0.99386 0.0
H488 H 0.82601 0.59629 0.20394 0.0
H489 H 0.76203 0.52343 0.13649 0.0
H490 H 0.79359 0.50691 1.00982 0.0
H491 H 0.84684 0.50174 0.96252 0.0
H492 H 0.91399 0.56958 0.04925 0.0
H493 H 0.87441 0.59933 0.12364 0.0
C494 C 0.81846 0.57761 0.15871 0.0
C495 C 0.7928 0.56012 0.18229 0.0
C496 C 0.83813 0.5665 0.0918 0.0
C497 C 0.78223 0.53683 0.12138 0.0
C498 C 0.80059 0.52697 0.04972 0.0
C499 C 0.85242 0.52366 0.99445 0.0
C500 C 0.88312 0.53308 1.004 0.0
C501 C 0.82989 0.53974 0.041 0.0
C502 C 0.8904 0.56162 0.04412 0.0
C503 C 0.86783 0.57859 0.08645 0.0
H504 H 0.99794 0.21372 0.92073 0.0
H505 H 0.07625 0.2006 0.10591 0.0
H506 H 0.08581 0.15087 0.0333 0.0
H507 H 0.06908 0.10892 0.92492 0.0
H508 H 0.99191 0.12399 0.73547 0.0
H509 H 0.98486 0.1747 0.80127 0.0
C510 C 1.01757 0.20029 0.94357 0.0
C511 C 0.0365 0.21106 0.0183 0.0
C512 C 0.02285 0.17167 0.90147 0.0
C513 C 0.06164 0.19318 0.04764 0.0
C514 C 0.06687 0.16452 1.00675 0.0
C515 C 0.05087 0.12339 0.89758 0.0
C516 C 0.0309 0.11223 0.82554 0.0
C517 C 0.04719 0.15314 0.93495 0.0
C518 C 1.00767 0.13166 0.79062 0.0
C519 C 1.00354 0.16081 0.82846 0.0
H520 H 0.37163 0.02233 0.13208 0.0
H521 H 0.31285 0.02313 0.88582 0.0
H522 H 0.35804 0.02827 0.78839 0.0
H523 H 0.41539 0.02898 0.77297 0.0
H524 H 0.47262 0.02889 0.02396 0.0
H525 H 0.42742 0.02685 0.11811 0.0
C526 C 0.3686 0.02427 0.05709 0.0
C527 C 0.33863 0.02259 0.01679 0.0
C528 C 0.39474 0.02686 1.00166 0.0
C529 C 0.3354 0.02487 0.91926 0.0
C530 C 0.3614 0.02744 0.86338 0.0
C531 C 0.41799 0.02869 0.84824 0.0
C532 C 0.44792 0.02897 0.89037 0.0
C533 C 0.39137 0.02786 0.90358 0.0
C534 C 0.45034 0.02872 0.98845 0.0
C535 C 0.42431 0.02754 0.043 0.0
H536 H 0.57057 0.32757 0.92897 0.0
H537 H 0.48712 0.33476 0.07941 0.0
H538 H 0.4766 0.38442 1.00677 0.0
H539 H 0.49407 0.42829 0.912 0.0
H540 H 0.57689 0.41961 0.75778 0.0
H541 H 0.58459 0.36833 0.81956 0.0
C542 C 0.54963 0.33965 0.94372 0.0
C543 C 0.52951 0.32733 1.009 0.0
C544 C 0.54389 0.36828 0.90203 0.0
C545 C 0.50268 0.34343 0.02833 0.0
C546 C 0.49689 0.37205 0.9876 0.0
C547 C 0.51363 0.41506 0.89115 0.0
C548 C 0.535 0.42813 0.83065 0.0
C549 C 0.51778 0.38513 0.92625 0.0
C550 C 0.56 0.41035 0.80383 0.0
C551 C 0.56452 0.38093 0.83949 0.0
H552 H 0.20718 0.50248 0.09623 0.0
H553 H 0.25538 0.53494 0.85895 0.0
H554 H 0.2077 0.53196 0.76286 0.0
H555 H 0.15074 0.5245 0.751 0.0
H556 H 0.10402 0.49167 0.9923 0.0
H557 H 0.15226 0.49043 0.0809 0.0
C558 C 0.2074 0.50814 0.02277 0.0
C559 C 0.23491 0.5186 0.98463 0.0
C560 C 0.17985 0.50679 0.9687 0.0
C561 C 0.2347 0.52629 0.88968 0.0
C562 C 0.20729 0.52493 0.83506 0.0
C563 C 0.15114 0.51677 0.82261 0.0
C564 C 0.12329 0.50845 0.86435 0.0
C565 C 0.17945 0.51592 0.87439 0.0
C566 C 0.12466 0.49839 0.95748 0.0
C567 C 0.15241 0.49763 1.0088 0.0
H568 H 0.99853 0.83629 0.42501 0.0
H569 H 0.08442 0.81024 0.5561 0.0
H570 H 0.08561 0.85755 0.64799 0.0
H571 H 0.06459 0.90902 0.6802 0.0
H572 H 0.97889 0.93499 0.54505 0.0
H573 H 0.9754 0.88569 0.46689 0.0
C574 C 1.01695 0.84054 0.47603 0.0
C575 C 0.04098 0.81931 0.48519 0.0
C576 C 1.0179 0.86835 0.5269 0.0
C577 C 0.06527 0.82578 0.54928 0.0
C578 C 0.06614 0.85308 0.60105 0.0
C579 C 0.04498 0.90383 0.63446 0.0
C580 C 1.02218 0.92623 0.61882 0.0
C581 C 0.04298 0.87501 0.58879 0.0
C582 C 0.99696 0.91864 0.559 0.0
C583 C 0.99486 0.89024 0.51381 0.0
H584 H 0.69013 1.01362 0.33896 0.0
H585 H 0.74895 0.04959 0.55965 0.0
H586 H 0.70599 0.04827 0.66641 0.0
H587 H 0.65006 0.0397 0.69479 0.0
H588 H 0.59278 1.00085 0.47387 0.0
H589 H 0.63616 1.00056 0.37095 0.0
C590 C 0.69376 0.02041 0.41115 0.0
C591 C 0.7231 0.03117 0.44129 0.0
C592 C 0.66881 0.01954 0.47232 0.0
C593 C 0.727 0.04054 0.53476 0.0
C594 C 0.70221 0.04011 0.59567 0.0
C595 C 0.64711 0.031 0.62433 0.0
C596 C 0.61773 0.02041 0.5928 0.0
C597 C 0.67275 0.03015 0.56501 0.0
C598 C 0.6148 1.00903 0.50105 0.0
C599 C 0.63974 1.0089 0.4416 0.0
H600 H 0.50083 0.71721 0.55585 0.0
H601 H 0.58298 0.70805 0.39996 0.0
H602 H 0.59422 0.65945 0.47839 0.0
H603 H 0.57729 0.61652 0.57906 0.0
H604 H 0.49409 0.62669 0.73125 0.0
H605 H 0.48684 0.67743 0.66689 0.0
C606 C 0.52159 0.70491 0.54049 0.0
C607 C 0.54103 0.7164 0.47194 0.0
C608 C 0.52746 0.67666 0.58427 0.0
C609 C 0.56779 0.70007 0.45304 0.0
C610 C 0.574 0.672 0.49716 0.0
C611 C 0.55778 0.62996 0.59914 0.0
C612 C 0.53613 0.61724 0.65972 0.0
C613 C 0.55349 0.65956 0.56099 0.0
C614 C 0.51109 0.63536 0.6846 0.0
C615 C 0.50684 0.66459 0.64766 0.0
H616 H 0.85141 0.58483 0.46687 0.0
H617 H 0.81411 0.49962 0.5631 0.0
H618 H 0.86316 0.48848 0.64458 0.0
H619 H 0.91871 0.50082 0.67573 0.0
H620 H 0.95517 0.58547 0.5706 0.0
H621 H 0.90496 0.59833 0.50412 0.0
C622 C 0.85379 0.56385 0.50623 0.0
C623 C 0.82881 0.54303 0.50768 0.0
C624 C 0.88239 0.55711 0.55001 0.0
C625 C 0.83255 0.51628 0.56082 0.0
C626 C 0.86087 0.50969 0.60653 0.0
C627 C 0.91568 0.52218 0.63877 0.0
C628 C 0.94125 0.54197 0.6281 0.0
C629 C 0.8863 0.52956 0.59956 0.0
C630 C 0.93643 0.56957 0.5799 0.0
C631 C 0.9075 0.57705 0.54179 0.0
loop_
_geom_bond_atom_site_label_1
_geom_bond_atom_site_label_2
_geom_bond_distance
_geom_bond_site_symmetry_2
_ccdc_geom_bond_type
H0 C3 0.929 . S
H1 C6 0.929 . S
H2 C8 0.930 . S
C3 H0 0.929 . S
C3 C4 1.398 . S
C3 C5 1.396 . S
C4 C3 1.398 . S
C4 C8 1.407 . S
C5 C3 1.396 . S
C5 C6 1.394 . S
C6 H1 0.929 . S
C6 C5 1.394 . S
C6 C7 1.382 . S
C7 C6 1.382 . S
C7 C8 1.392 . S
C7 N9 1.420 . S
C8 H2 0.930 . S
C8 C4 1.407 . S
C8 C7 1.392 . S
N9 C7 1.420 . S
N9 C10 1.244 . S
C10 N9 1.244 . S
H11 C14 0.929 . S
H12 C17 0.929 . S
H13 C19 0.930 . S
C14 H11 0.929 . S
C14 C15 1.398 . S
C14 C16 1.396 . S
C15 C14 1.398 . S
C15 C19 1.407 . S
C16 C14 1.396 . S
C16 C17 1.394 . S
C17 H12 0.929 . S
C17 C16 1.394 . S
C17 C18 1.382 . S
C18 C17 1.382 . S
C18 C19 1.392 . S
C18 N20 1.420 . S
C19 H13 0.930 . S
C19 C15 1.407 . S
C19 C18 1.392 . S
N20 C18 1.420 . S
N20 C21 1.244 . S
C21 N20 1.244 . S
H22 C25 0.929 . S
H23 C28 0.929 . S
H24 C30 0.930 . S
C25 H22 0.929 . S
C25 C26 1.398 . S
C25 C27 1.396 . S
C26 C25 1.398 . S
C26 C30 1.407 . S
C27 C25 1.396 . S
C27 C28 1.394 . S
C28 H23 0.929 . S
C28 C27 1.394 . S
C28 C29 1.382 . S
C29 C28 1.382 . S
C29 C30 1.392 . S
C29 N31 1.420 . S
C30 H24 0.930 . S
C30 C26 1.407 . S
C30 C29 1.392 . S
N31 C29 1.420 . S
N31 C32 1.244 . S
C32 N31 1.244 . S
H33 C36 0.929 . S
H34 C39 0.929 . S
H35 C41 0.930 . S
C36 H33 0.929 . S
C36 C37 1.398 . S
C36 C38 1.396 . S
C37 C36 1.398 . S
C37 C41 1.407 . S
C38 C36 1.396 . S
C38 C39 1.394 . S
C39 H34 0.929 . S
C39 C38 1.394 . S
C39 C40 1.382 . S
C40 C39 1.382 . S
C40 C41 1.392 . S
C40 N42 1.420 . S
C41 H35 0.930 . S
C41 C37 1.407 . S
C41 C40 1.392 . S
N42 C40 1.420 . S
N42 C43 1.244 . S
C43 N42 1.244 . S
H44 C47 0.929 . S
H45 C50 0.929 . S
H46 C52 0.930 1_556 S
C47 H44 0.929 . S
C47 C48 1.398 1_554 S
C47 C49 1.396 . S
C48 C47 1.398 1_556 S
C48 C52 1.407 1_556 S
C49 C47 1.396 . S
C49 C50 1.394 . S
C50 H45 0.929 . S
C50 C49 1.394 . S
C50 C51 1.382 . S
C51 C50 1.382 . S
C51 C52 1.392 . S
C51 N53 1.420 . S
C52 H46 0.930 1_554 S
C52 C48 1.407 1_554 S
C52 C51 1.392 . S
N53 C51 1.420 . S
N53 C54 1.244 . S
C54 N53 1.244 . S
H55 C58 0.929 . S
H56 C61 0.929 . S
H57 C63 0.930 . S
C58 H55 0.929 . S
C58 C59 1.398 1_554 S
C58 C60 1.396 . S
C59 C58 1.398 1_556 S
C59 C63 1.407 . S
C60 C58 1.396 . S
C60 C61 1.394 . S
C61 H56 0.929 . S
C61 C60 1.394 . S
C61 C62 1.382 . S
C62 C61 1.382 . S
C62 C63 1.392 1_554 S
C62 N64 1.420 . S
C63 H57 0.930 . S
C63 C59 1.407 . S
C63 C62 1.392 1_556 S
N64 C62 1.420 . S
N64 C65 1.244 . S
C65 N64 1.244 . S
H66 C69 0.928 1_556 S
H67 C72 0.929 . S
H68 C74 0.930 . S
C69 H66 0.928 1_554 S
C69 C70 1.392 1_554 S
C69 C71 1.404 . S
C70 C69 1.392 1_556 S
C70 C74 1.407 . S
C71 C69 1.404 . S
C71 C72 1.394 . S
C72 H67 0.929 . S
C72 C71 1.394 . S
C72 C73 1.382 . S
C73 C72 1.382 . S
C73 C74 1.392 1_554 S
C73 N75 1.420 . S
C74 H68 0.930 . S
C74 C70 1.407 . S
C74 C73 1.392 1_556 S
N75 C73 1.420 . S
N75 C76 1.244 . S
C76 N75 1.244 . S
H77 C80 0.929 . S
H78 C83 0.929 . S
H79 C85 0.930 . S
C80 H77 0.929 . S
C80 C81 1.398 1_554 S
C80 C82 1.396 . S
C81 C80 1.398 1_556 S
C81 C85 1.407 . S
C82 C80 1.396 . S
C82 C83 1.394 . S
C83 H78 0.929 . S
C83 C82 1.394 . S
C83 C84 1.382 . S
C84 C83 1.382 . S
C84 C85 1.392 1_554 S
C84 N86 1.420 . S
C85 H79 0.930 . S
C85 C81 1.407 . S
C85 C84 1.392 1_556 S
N86 C84 1.420 . S
N86 C87 1.244 . S
C87 N86 1.244 . S
Eu88 C97 2.828 . S
Eu88 O99 2.392 . S
Eu88 O101 2.418 1_545 S
Eu88 O106 2.373 1_655 S
Eu88 O109 2.488 . S
Eu88 O110 2.471 . S
Eu88 O111 2.349 1_655 S
Eu89 O98 2.373 1_455 S
Eu89 O102 2.488 . S
Eu89 O103 2.471 . S
Eu89 O104 2.349 . S
Eu89 O107 2.392 1_565 S
Eu89 O108 2.418 1_565 S
Eu89 C118 2.828 . S
C90 O108 1.244 . S
C90 O111 1.265 . S
C91 C92 1.379 1_655 S
C91 C95 1.373 . S
C91 C97 1.505 . S
C92 C91 1.379 1_455 S
C92 C94 1.369 . S
C92 H120 0.930 . S
C93 C95 1.383 . S
C93 C96 1.382 1_655 S
C93 H121 0.930 . S
C94 C92 1.369 . S
C94 C96 1.392 . S
C94 H122 0.930 . S
C95 C91 1.373 . S
C95 C93 1.383 . S
C95 H123 0.931 . S
C96 C93 1.382 1_455 S
C96 C94 1.392 . S
C97 Eu88 2.828 . S
C97 C91 1.505 . S
C97 O109 1.249 . S
C97 O110 1.244 . S
O98 Eu89 2.373 1_655 S
O98 C100 1.251 1_565 S
O99 Eu88 2.392 . S
O99 C100 1.256 . S
C100 O98 1.251 1_545 S
C100 O99 1.256 . S
O101 Eu88 2.418 1_565 S
O101 C105 1.244 . S
O102 Eu89 2.488 . S
O102 C118 1.249 . S
O103 Eu89 2.471 . S
O103 C118 1.244 . S
O104 Eu89 2.349 . S
O104 C105 1.265 1_455 S
C105 O101 1.244 . S
C105 O104 1.265 1_655 S
O106 Eu88 2.373 1_455 S
O106 C119 1.258 . S
O107 Eu89 2.392 1_545 S
O107 C119 1.242 . S
O108 Eu89 2.418 1_545 S
O108 C90 1.244 . S
O109 Eu88 2.488 . S
O109 C97 1.249 . S
O110 Eu88 2.471 . S
O110 C97 1.244 . S
O111 Eu88 2.349 1_455 S
O111 C90 1.265 . S
C112 C113 1.379 . S
C112 C116 1.373 . S
C112 C118 1.505 1_554 S
C113 C112 1.379 . S
C113 C115 1.369 . S
C113 H124 0.930 1_454 S
C114 C116 1.383 . S
C114 C117 1.382 . S
C114 H125 0.930 . S
C115 C113 1.369 . S
C115 C117 1.392 . S
C115 H126 0.930 1_455 S
C116 C112 1.373 . S
C116 C114 1.383 . S
C116 H127 0.931 . S
C117 C114 1.382 . S
C117 C115 1.392 . S
C118 Eu89 2.828 . S
C118 O102 1.249 . S
C118 O103 1.244 . S
C118 C112 1.505 1_556 S
C119 O106 1.258 . S
C119 O107 1.242 . S
H120 C92 0.930 . S
H121 C93 0.930 . S
H122 C94 0.930 . S
H123 C95 0.931 . S
H124 C113 0.930 1_656 S
H125 C114 0.930 . S
H126 C115 0.930 1_655 S
H127 C116 0.931 . S
Eu128 C137 2.828 . S
Eu128 O139 2.392 . S
Eu128 O141 2.418 . S
Eu128 O146 2.373 . S
Eu128 O149 2.488 . S
Eu128 O150 2.471 . S
Eu128 O151 2.349 1_545 S
Eu129 O138 2.373 1_565 S
Eu129 O142 2.488 . S
Eu129 O143 2.471 1_565 S
Eu129 O144 2.349 1_565 S
Eu129 O147 2.392 . S
Eu129 O148 2.418 . S
Eu129 C158 2.828 . S
C130 O148 1.244 . S
C130 O151 1.265 . S
C131 C132 1.379 1_556 S
C131 C135 1.373 . S
C131 C137 1.505 . S
C132 C131 1.379 1_554 S
C132 C134 1.369 . S
C132 H160 0.930 1_544 S
C133 C135 1.383 1_554 S
C133 C136 1.382 . S
C133 H161 0.930 . S
C134 C132 1.369 . S
C134 C136 1.392 . S
C134 H162 0.930 1_545 S
C135 C131 1.373 . S
C135 C133 1.383 1_556 S
C135 H163 0.931 . S
C136 C133 1.382 . S
C136 C134 1.392 . S
C137 Eu128 2.828 . S
C137 C131 1.505 . S
C137 O149 1.249 . S
C137 O150 1.244 . S
O138 Eu129 2.373 1_545 S
O138 C140 1.258 . S
O139 Eu128 2.392 . S
O139 C140 1.242 . S
C140 O138 1.258 . S
C140 O139 1.242 . S
O141 Eu128 2.418 . S
O141 C145 1.244 . S
O142 Eu129 2.488 . S
O142 C158 1.249 . S
O143 Eu129 2.471 1_545 S
O143 C158 1.244 1_545 S
O144 Eu129 2.349 1_545 S
O144 C145 1.265 . S
C145 O141 1.244 . S
C145 O144 1.265 . S
O146 Eu128 2.373 . S
O146 C159 1.258 1_545 S
O147 Eu129 2.392 . S
O147 C159 1.242 . S
O148 Eu129 2.418 . S
O148 C130 1.244 . S
O149 Eu128 2.488 . S
O149 C137 1.249 . S
O150 Eu128 2.471 . S
O150 C137 1.244 . S
O151 Eu128 2.349 1_565 S
O151 C130 1.265 . S
C152 C153 1.379 1_565 S
C152 C156 1.373 . S
C152 C158 1.505 . S
C153 C152 1.379 1_545 S
C153 C155 1.369 . S
C153 H164 0.930 . S
C154 C156 1.383 . S
C154 C157 1.382 . S
C154 H165 0.930 . S
C155 C153 1.369 . S
C155 C157 1.392 1_545 S
C155 H166 0.930 . S
C156 C152 1.373 . S
C156 C154 1.383 . S
C156 H167 0.931 . S
C157 C154 1.382 . S
C157 C155 1.392 1_565 S
C158 Eu129 2.828 . S
C158 O142 1.249 . S
C158 O143 1.244 1_565 S
C158 C152 1.505 . S
C159 O146 1.258 1_565 S
C159 O147 1.242 . S
H160 C132 0.930 1_566 S
H161 C133 0.930 . S
H162 C134 0.930 1_565 S
H163 C135 0.931 . S
H164 C153 0.930 . S
H165 C154 0.930 . S
H166 C155 0.930 . S
H167 C156 0.931 . S
Eu168 C177 2.828 . S
Eu168 O179 2.392 . S
Eu168 O181 2.418 . S
Eu168 O186 2.373 . S
Eu168 O189 2.488 . S
Eu168 O190 2.471 . S
Eu168 O191 2.349 . S
Eu169 O178 2.373 . S
Eu169 O182 2.488 . S
Eu169 O183 2.471 . S
Eu169 O184 2.349 . S
Eu169 O187 2.392 . S
Eu169 O188 2.418 . S
Eu169 C198 2.828 . S
C170 O188 1.244 . S
C170 O191 1.265 . S
C171 C172 1.379 . S
C171 C175 1.373 . S
C171 C177 1.505 . S
C172 C171 1.379 . S
C172 C174 1.369 1_556 S
C172 H200 0.930 . S
C173 C175 1.383 1_554 S
C173 C176 1.382 . S
C173 H201 0.930 . S
C174 C172 1.369 1_554 S
C174 C176 1.392 . S
C174 H202 0.930 . S
C175 C171 1.373 . S
C175 C173 1.383 1_556 S
C175 H203 0.931 . S
C176 C173 1.382 . S
C176 C174 1.392 . S
C177 Eu168 2.828 . S
C177 C171 1.505 . S
C177 O189 1.249 . S
C177 O190 1.244 . S
O178 Eu169 2.373 . S
O178 C180 1.258 . S
O179 Eu168 2.392 . S
O179 C180 1.242 . S
C180 O178 1.258 . S
C180 O179 1.242 . S
O181 Eu168 2.418 . S
O181 C185 1.244 . S
O182 Eu169 2.488 . S
O182 C198 1.249 . S
O183 Eu169 2.471 . S
O183 C198 1.244 . S
O184 Eu169 2.349 . S
O184 C185 1.265 . S
C185 O181 1.244 . S
C185 O184 1.265 . S
O186 Eu168 2.373 . S
O186 C199 1.258 . S
O187 Eu169 2.392 . S
O187 C199 1.242 . S
O188 Eu169 2.418 . S
O188 C170 1.244 . S
O189 Eu168 2.488 . S
O189 C177 1.249 . S
O190 Eu168 2.471 . S
O190 C177 1.244 . S
O191 Eu168 2.349 . S
O191 C170 1.265 . S
C192 C193 1.379 . S
C192 C196 1.373 . S
C192 C198 1.505 . S
C193 C192 1.379 . S
C193 C195 1.369 . S
C193 H204 0.930 . S
C194 C196 1.383 . S
C194 C197 1.382 . S
C194 H205 0.930 . S
C195 C193 1.369 . S
C195 C197 1.392 . S
C195 H206 0.930 . S
C196 C192 1.373 . S
C196 C194 1.383 . S
C196 H207 0.931 . S
C197 C194 1.382 . S
C197 C195 1.392 . S
C198 Eu169 2.828 . S
C198 O182 1.249 . S
C198 O183 1.244 . S
C198 C192 1.505 . S
C199 O186 1.258 . S
C199 O187 1.242 . S
H200 C172 0.930 . S
H201 C173 0.930 . S
H202 C174 0.930 . S
H203 C175 0.931 . S
H204 C193 0.930 . S
H205 C194 0.930 . S
H206 C195 0.930 . S
H207 C196 0.931 . S
Eu208 C217 2.828 . S
Eu208 O219 2.392 . S
Eu208 O221 2.418 1_455 S
Eu208 O226 2.373 . S
Eu208 O229 2.488 . S
Eu208 O230 2.471 . S
Eu208 O231 2.349 . S
Eu209 O218 2.373 . S
Eu209 O222 2.488 . S
Eu209 O223 2.471 . S
Eu209 O224 2.349 . S
Eu209 O227 2.392 1_655 S
Eu209 O228 2.418 1_655 S
Eu209 C238 2.828 . S
C210 O228 1.244 . S
C210 O231 1.265 . S
C211 C212 1.379 . S
C211 C215 1.373 . S
C211 C217 1.505 . S
C212 C211 1.379 . S
C212 C214 1.369 . S
C212 H240 0.930 . S
C213 C215 1.383 . S
C213 C216 1.382 . S
C213 H241 0.930 . S
C214 C212 1.369 . S
C214 C216 1.392 . S
C214 H242 0.930 . S
C215 C211 1.373 . S
C215 C213 1.383 . S
C215 H243 0.931 . S
C216 C213 1.382 . S
C216 C214 1.392 . S
C217 Eu208 2.828 . S
C217 C211 1.505 . S
C217 O229 1.249 . S
C217 O230 1.244 . S
O218 Eu209 2.373 . S
O218 C220 1.262 . S
O219 Eu208 2.392 . S
O219 C220 1.232 1_455 S
C220 O218 1.262 . S
C220 O219 1.232 1_655 S
O221 Eu208 2.418 1_655 S
O221 C225 1.244 . S
O222 Eu209 2.488 . S
O222 C238 1.249 . S
O223 Eu209 2.471 . S
O223 C238 1.244 . S
O224 Eu209 2.349 . S
O224 C225 1.265 . S
C225 O221 1.244 . S
C225 O224 1.265 . S
O226 Eu208 2.373 . S
O226 C239 1.258 . S
O227 Eu209 2.392 1_455 S
O227 C239 1.242 . S
O228 Eu209 2.418 1_455 S
O228 C210 1.244 . S
O229 Eu208 2.488 . S
O229 C217 1.249 . S
O230 Eu208 2.471 . S
O230 C217 1.244 . S
O231 Eu208 2.349 . S
O231 C210 1.265 . S
C232 C233 1.381 . S
C232 C236 1.373 . S
C232 C238 1.505 1_554 S
C233 C232 1.381 . S
C233 C235 1.379 . S
C233 H244 0.918 1_554 S
C234 C236 1.383 . S
C234 C237 1.382 . S
C234 H245 0.930 . S
C235 C233 1.379 . S
C235 C237 1.392 . S
C235 H246 0.930 . S
C236 C232 1.373 . S
C236 C234 1.383 . S
C236 H247 0.931 . S
C237 C234 1.382 . S
C237 C235 1.392 . S
C238 Eu209 2.828 . S
C238 O222 1.249 . S
C238 O223 1.244 . S
C238 C232 1.505 1_556 S
C239 O226 1.258 . S
C239 O227 1.242 . S
H240 C212 0.930 . S
H241 C213 0.930 . S
H242 C214 0.930 . S
H243 C215 0.931 . S
H244 C233 0.918 1_556 S
H245 C234 0.930 . S
H246 C235 0.930 . S
H247 C236 0.931 . S
H248 C254 0.930 1_565 S
H249 C257 0.930 . S
H250 C258 0.930 . S
H251 C259 0.930 . S
H252 C262 0.930 . S
H253 C263 0.930 . S
C254 H248 0.930 1_545 S
C254 C255 1.355 . S
C254 C256 1.415 . S
C255 C254 1.355 . S
C255 C257 1.419 . S
C256 C254 1.415 . S
C256 C261 1.425 . S
C256 C263 1.409 1_545 S
C257 H249 0.930 . S
C257 C255 1.419 . S
C257 C258 1.362 . S
C258 H250 0.930 . S
C258 C257 1.362 . S
C258 C261 1.409 . S
C259 H251 0.930 . S
C259 C260 1.355 . S
C259 C261 1.415 . S
C260 C259 1.355 . S
C260 C262 1.419 1_545 S
C261 C256 1.425 . S
C261 C258 1.409 . S
C261 C259 1.415 . S
C262 H252 0.930 . S
C262 C260 1.419 1_565 S
C262 C263 1.362 . S
C263 H253 0.930 . S
C263 C256 1.409 1_565 S
C263 C262 1.362 . S
H264 C270 0.930 . S
H265 C273 0.930 . S
H266 C274 0.930 . S
H267 C275 0.930 . S
H268 C278 0.930 . S
H269 C279 0.930 . S
C270 H264 0.930 . S
C270 C271 1.355 . S
C270 C272 1.415 . S
C271 C270 1.355 . S
C271 C273 1.419 . S
C272 C270 1.415 . S
C272 C277 1.425 . S
C272 C279 1.409 . S
C273 H265 0.930 . S
C273 C271 1.419 . S
C273 C274 1.362 . S
C274 H266 0.930 . S
C274 C273 1.362 . S
C274 C277 1.409 . S
C275 H267 0.930 . S
C275 C276 1.355 . S
C275 C277 1.415 . S
C276 C275 1.355 . S
C276 C278 1.419 . S
C277 C272 1.425 . S
C277 C274 1.409 . S
C277 C275 1.415 . S
C278 H268 0.930 . S
C278 C276 1.419 . S
C278 C279 1.362 . S
C279 H269 0.930 . S
C279 C272 1.409 . S
C279 C278 1.362 . S
H280 C286 0.930 . S
H281 C289 0.930 . S
H282 C290 0.930 . S
H283 C291 0.930 . S
H284 C294 0.930 . S
H285 C295 0.930 . S
C286 H280 0.930 . S
C286 C287 1.355 . S
C286 C288 1.415 . S
C287 C286 1.355 . S
C287 C289 1.419 . S
C288 C286 1.415 . S
C288 C293 1.425 . S
C288 C295 1.409 . S
C289 H281 0.930 . S
C289 C287 1.419 . S
C289 C290 1.362 . S
C290 H282 0.930 . S
C290 C289 1.362 . S
C290 C293 1.409 . S
C291 H283 0.930 . S
C291 C292 1.355 . S
C291 C293 1.415 . S
C292 C291 1.355 . S
C292 C294 1.419 . S
C293 C288 1.425 . S
C293 C290 1.409 . S
C293 C291 1.415 . S
C294 H284 0.930 . S
C294 C292 1.419 . S
C294 C295 1.362 . S
C295 H285 0.930 . S
C295 C288 1.409 . S
C295 C294 1.362 . S
H296 C302 0.930 . S
H297 C305 0.930 . S
H298 C306 0.930 . S
H299 C307 0.930 . S
H300 C310 0.930 1_655 S
H301 C311 0.930 1_655 S
C302 H296 0.930 . S
C302 C303 1.355 . S
C302 C304 1.415 . S
C303 C302 1.355 . S
C303 C305 1.419 . S
C304 C302 1.415 . S
C304 C309 1.425 . S
C304 C311 1.409 . S
C305 H297 0.930 . S
C305 C303 1.419 . S
C305 C306 1.362 . S
C306 H298 0.930 . S
C306 C305 1.362 . S
C306 C309 1.409 . S
C307 H299 0.930 . S
C307 C308 1.355 . S
C307 C309 1.415 . S
C308 C307 1.355 . S
C308 C310 1.419 . S
C309 C304 1.425 . S
C309 C306 1.409 . S
C309 C307 1.415 . S
C310 H300 0.930 1_455 S
C310 C308 1.419 . S
C310 C311 1.362 . S
C311 H301 0.930 1_455 S
C311 C304 1.409 . S
C311 C310 1.362 . S
H312 C318 0.930 . S
H313 C321 0.930 . S
H314 C322 0.930 . S
H315 C323 0.930 1_556 S
H316 C326 0.930 . S
H317 C327 0.930 . S
C318 H312 0.930 . S
C318 C319 1.355 . S
C318 C320 1.415 . S
C319 C318 1.355 . S
C319 C321 1.419 1_565 S
C320 C318 1.415 . S
C320 C325 1.425 1_565 S
C320 C327 1.409 . S
C321 H313 0.930 . S
C321 C319 1.419 1_545 S
C321 C322 1.362 . S
C322 H314 0.930 . S
C322 C321 1.362 . S
C322 C325 1.409 . S
C323 H315 0.930 1_554 S
C323 C324 1.355 1_544 S
C323 C325 1.415 . S
C324 C323 1.355 1_566 S
C324 C326 1.419 . S
C325 C320 1.425 1_545 S
C325 C322 1.409 . S
C325 C323 1.415 . S
C326 H316 0.930 . S
C326 C324 1.419 . S
C326 C327 1.362 1_556 S
C327 H317 0.930 . S
C327 C320 1.409 . S
C327 C326 1.362 1_554 S
H328 C334 0.930 . S
H329 C337 0.930 . S
H330 C338 0.930 . S
H331 C339 0.930 . S
H332 C342 0.930 . S
H333 C343 0.930 . S
C334 H328 0.930 . S
C334 C335 1.355 . S
C334 C336 1.415 . S
C335 C334 1.355 . S
C335 C337 1.419 . S
C336 C334 1.415 . S
C336 C341 1.425 . S
C336 C343 1.409 . S
C337 H329 0.930 . S
C337 C335 1.419 . S
C337 C338 1.362 . S
C338 H330 0.930 . S
C338 C337 1.362 . S
C338 C341 1.409 . S
C339 H331 0.930 . S
C339 C340 1.355 . S
C339 C341 1.415 1_556 S
C340 C339 1.355 . S
C340 C342 1.419 . S
C341 C336 1.425 . S
C341 C338 1.409 . S
C341 C339 1.415 1_554 S
C342 H332 0.930 . S
C342 C340 1.419 . S
C342 C343 1.362 1_556 S
C343 H333 0.930 . S
C343 C336 1.409 . S
C343 C342 1.362 1_554 S
H344 C350 0.930 . S
H345 C353 0.930 . S
H346 C354 0.930 . S
H347 C355 0.930 . S
H348 C358 0.930 . S
H349 C359 0.930 . S
C350 H344 0.930 . S
C350 C351 1.355 . S
C350 C352 1.415 . S
C351 C350 1.355 . S
C351 C353 1.419 . S
C352 C350 1.415 . S
C352 C357 1.425 . S
C352 C359 1.409 1_554 S
C353 H345 0.930 . S
C353 C351 1.419 . S
C353 C354 1.362 . S
C354 H346 0.930 . S
C354 C353 1.362 . S
C354 C357 1.409 . S
C355 H347 0.930 . S
C355 C356 1.355 . S
C355 C357 1.415 1_556 S
C356 C355 1.355 . S
C356 C358 1.419 . S
C357 C352 1.425 . S
C357 C354 1.409 . S
C357 C355 1.415 1_554 S
C358 H348 0.930 . S
C358 C356 1.419 . S
C358 C359 1.362 . S
C359 H349 0.930 . S
C359 C352 1.409 1_556 S
C359 C358 1.362 . S
H360 C366 0.930 . S
H361 C369 0.930 . S
H362 C370 0.930 . S
H363 C371 0.930 . S
H364 C374 0.930 . S
H365 C375 0.930 . S
C366 H360 0.930 . S
C366 C367 1.355 . S
C366 C368 1.415 . S
C367 C366 1.355 . S
C367 C369 1.419 . S
C368 C366 1.415 . S
C368 C373 1.425 . S
C368 C375 1.409 1_554 S
C369 H361 0.930 . S
C369 C367 1.419 . S
C369 C370 1.362 . S
C370 H362 0.930 . S
C370 C369 1.362 . S
C370 C373 1.409 . S
C371 H363 0.930 . S
C371 C372 1.355 1_554 S
C371 C373 1.415 . S
C372 C371 1.355 1_556 S
C372 C374 1.419 . S
C373 C368 1.425 . S
C373 C370 1.409 . S
C373 C371 1.415 . S
C374 H364 0.930 . S
C374 C372 1.419 . S
C374 C375 1.362 . S
C375 H365 0.930 . S
C375 C368 1.409 1_556 S
C375 C374 1.362 . S
H376 C382 0.930 . S
H377 C385 0.930 . S
H378 C386 0.930 1_655 S
H379 C387 0.930 . S
H380 C390 0.930 . S
H381 C391 0.930 . S
C382 H376 0.930 . S
C382 C383 1.355 . S
C382 C384 1.415 . S
C383 C382 1.355 . S
C383 C385 1.419 . S
C384 C382 1.415 . S
C384 C389 1.425 . S
C384 C391 1.409 . S
C385 H377 0.930 . S
C385 C383 1.419 . S
C385 C386 1.362 . S
C386 H378 0.930 1_455 S
C386 C385 1.362 . S
C386 C389 1.409 . S
C387 H379 0.930 . S
C387 C388 1.355 1_655 S
C387 C389 1.415 1_655 S
C388 C387 1.355 1_455 S
C388 C390 1.419 . S
C389 C384 1.425 . S
C389 C386 1.409 . S
C389 C387 1.415 1_455 S
C390 H380 0.930 . S
C390 C388 1.419 . S
C390 C391 1.362 . S
C391 H381 0.930 . S
C391 C384 1.409 . S
C391 C390 1.362 . S
H392 C398 0.930 . S
H393 C401 0.930 . S
H394 C402 0.914 1_565 S
H395 C403 0.930 . S
H396 C406 0.930 . S
H397 C407 0.930 . S
C398 H392 0.930 . S
C398 C399 1.355 . S
C398 C400 1.415 . S
C399 C398 1.355 . S
C399 C401 1.419 . S
C400 C398 1.415 . S
C400 C405 1.425 . S
C400 C407 1.409 . S
C401 H393 0.930 . S
C401 C399 1.419 . S
C401 C402 1.377 . S
C402 H394 0.914 1_545 S
C402 C401 1.377 . S
C402 C405 1.411 . S
C403 H395 0.930 . S
C403 C404 1.355 . S
C403 C405 1.415 1_565 S
C404 C403 1.355 . S
C404 C406 1.419 1_565 S
C405 C400 1.425 . S
C405 C402 1.411 . S
C405 C403 1.415 1_545 S
C406 H396 0.930 . S
C406 C404 1.419 1_545 S
C406 C407 1.362 . S
C407 H397 0.930 . S
C407 C400 1.409 . S
C407 C406 1.362 . S
H408 C414 0.930 . S
H409 C417 0.930 . S
H410 C418 0.930 . S
H411 C419 0.930 . S
H412 C422 0.930 . S
H413 C423 0.930 . S
C414 H408 0.930 . S
C414 C415 1.355 . S
C414 C416 1.415 . S
C415 C414 1.355 . S
C415 C417 1.419 . S
C416 C414 1.415 . S
C416 C421 1.425 . S
C416 C423 1.409 . S
C417 H409 0.930 . S
C417 C415 1.419 . S
C417 C418 1.362 . S
C418 H410 0.930 . S
C418 C417 1.362 . S
C418 C421 1.409 . S
C419 H411 0.930 . S
C419 C420 1.355 . S
C419 C421 1.415 . S
C420 C419 1.355 . S
C420 C422 1.419 . S
C421 C416 1.425 . S
C421 C418 1.409 . S
C421 C419 1.415 . S
C422 H412 0.930 . S
C422 C420 1.419 . S
C422 C423 1.362 . S
C423 H413 0.930 . S
C423 C416 1.409 . S
C423 C422 1.362 . S
H424 C430 0.930 . S
H425 C433 0.930 . S
H426 C434 0.930 . S
H427 C435 0.930 . S
H428 C438 0.930 . S
H429 C439 0.930 . S
C430 H424 0.930 . S
C430 C431 1.355 . S
C430 C432 1.415 . S
C431 C430 1.355 . S
C431 C433 1.419 . S
C432 C430 1.415 . S
C432 C437 1.425 . S
C432 C439 1.409 . S
C433 H425 0.930 . S
C433 C431 1.419 . S
C433 C434 1.362 . S
C434 H426 0.930 . S
C434 C433 1.362 . S
C434 C437 1.409 . S
C435 H427 0.930 . S
C435 C436 1.355 . S
C435 C437 1.415 . S
C436 C435 1.355 . S
C436 C438 1.419 . S
C437 C432 1.425 . S
C437 C434 1.409 . S
C437 C435 1.415 . S
C438 H428 0.930 . S
C438 C436 1.419 . S
C438 C439 1.362 . S
C439 H429 0.930 . S
C439 C432 1.409 . S
C439 C438 1.362 . S
H440 C446 0.930 . S
H441 C449 0.930 . S
H442 C450 0.930 . S
H443 C451 0.930 . S
H444 C454 0.930 . S
H445 C455 0.930 . S
C446 H440 0.930 . S
C446 C447 1.355 . S
C446 C448 1.415 . S
C447 C446 1.355 . S
C447 C449 1.419 . S
C448 C446 1.415 . S
C448 C453 1.425 . S
C448 C455 1.409 1_655 S
C449 H441 0.930 . S
C449 C447 1.419 . S
C449 C450 1.362 . S
C450 H442 0.930 . S
C450 C449 1.362 . S
C450 C453 1.409 . S
C451 H443 0.930 . S
C451 C452 1.355 1_655 S
C451 C453 1.415 . S
C452 C451 1.355 1_455 S
C452 C454 1.419 . S
C453 C448 1.425 . S
C453 C450 1.409 . S
C453 C451 1.415 . S
C454 H444 0.930 . S
C454 C452 1.419 . S
C454 C455 1.362 . S
C455 H445 0.930 . S
C455 C448 1.409 1_455 S
C455 C454 1.362 . S
H456 C462 0.930 . S
H457 C465 0.930 . S
H458 C466 0.930 . S
H459 C467 0.930 . S
H460 C470 0.930 . S
H461 C471 0.930 . S
C462 H456 0.930 . S
C462 C463 1.355 . S
C462 C464 1.415 1_565 S
C463 C462 1.355 . S
C463 C465 1.419 . S
C464 C462 1.415 1_545 S
C464 C469 1.425 . S
C464 C471 1.409 . S
C465 H457 0.930 . S
C465 C463 1.419 . S
C465 C466 1.362 . S
C466 H458 0.930 . S
C466 C465 1.362 . S
C466 C469 1.409 1_565 S
C467 H459 0.930 . S
C467 C468 1.355 . S
C467 C469 1.415 . S
C468 C467 1.355 . S
C468 C470 1.419 . S
C469 C464 1.425 . S
C469 C466 1.409 1_545 S
C469 C467 1.415 . S
C470 H460 0.930 . S
C470 C468 1.419 . S
C470 C471 1.362 . S
C471 H461 0.930 . S
C471 C464 1.409 . S
C471 C470 1.362 . S
H472 C478 0.930 . S
H473 C481 0.930 . S
H474 C482 0.930 . S
H475 C483 0.930 . S
H476 C486 0.930 1_556 S
H477 C487 0.930 . S
C478 H472 0.930 . S
C478 C479 1.355 . S
C478 C480 1.415 . S
C479 C478 1.355 . S
C479 C481 1.419 . S
C480 C478 1.415 . S
C480 C485 1.425 . S
C480 C487 1.409 . S
C481 H473 0.930 . S
C481 C479 1.419 . S
C481 C482 1.362 . S
C482 H474 0.930 . S
C482 C481 1.362 . S
C482 C485 1.409 . S
C483 H475 0.930 . S
C483 C484 1.355 . S
C483 C485 1.415 . S
C484 C483 1.355 . S
C484 C486 1.419 . S
C485 C480 1.425 . S
C485 C482 1.409 . S
C485 C483 1.415 . S
C486 H476 0.930 1_554 S
C486 C484 1.419 . S
C486 C487 1.362 . S
C487 H477 0.930 . S
C487 C480 1.409 . S
C487 C486 1.362 . S
H488 C494 0.930 . S
H489 C497 0.930 . S
H490 C498 0.930 . S
H491 C499 0.930 . S
H492 C502 0.930 . S
H493 C503 0.930 . S
C494 H488 0.930 . S
C494 C495 1.355 . S
C494 C496 1.415 . S
C495 C494 1.355 . S
C495 C497 1.419 . S
C496 C494 1.415 . S
C496 C501 1.425 . S
C496 C503 1.409 . S
C497 H489 0.930 . S
C497 C495 1.419 . S
C497 C498 1.362 . S
C498 H490 0.930 . S
C498 C497 1.362 . S
C498 C501 1.409 . S
C499 H491 0.930 . S
C499 C500 1.355 . S
C499 C501 1.415 . S
C500 C499 1.355 . S
C500 C502 1.419 . S
C501 C496 1.425 . S
C501 C498 1.409 . S
C501 C499 1.415 . S
C502 H492 0.930 . S
C502 C500 1.419 . S
C502 C503 1.362 . S
C503 H493 0.930 . S
C503 C496 1.409 . S
C503 C502 1.362 . S
H504 C510 0.930 . S
H505 C513 0.930 1_554 S
H506 C514 0.930 1_554 S
H507 C515 0.930 . S
H508 C518 0.930 . S
H509 C519 0.930 . S
C510 H504 0.930 . S
C510 C511 1.355 . S
C510 C512 1.415 . S
C511 C510 1.355 . S
C511 C513 1.419 . S
C512 C510 1.415 . S
C512 C517 1.425 . S
C512 C519 1.409 . S
C513 H505 0.930 1_556 S
C513 C511 1.419 . S
C513 C514 1.362 . S
C514 H506 0.930 1_556 S
C514 C513 1.362 . S
C514 C517 1.409 . S
C515 H507 0.930 . S
C515 C516 1.355 . S
C515 C517 1.415 . S
C516 C515 1.355 . S
C516 C518 1.419 . S
C517 C512 1.425 . S
C517 C514 1.409 . S
C517 C515 1.415 . S
C518 H508 0.930 . S
C518 C516 1.419 . S
C518 C519 1.362 . S
C519 H509 0.930 . S
C519 C512 1.409 . S
C519 C518 1.362 . S
H520 C526 0.930 . S
H521 C529 0.930 1_565 S
H522 C530 0.930 . S
H523 C531 0.930 1_565 S
H524 C534 0.930 . S
H525 C535 0.930 . S
C526 H520 0.930 . S
C526 C527 1.355 . S
C526 C528 1.415 . S
C527 C526 1.355 . S
C527 C529 1.419 . S
C528 C526 1.415 . S
C528 C533 1.425 . S
C528 C535 1.409 . S
C529 H521 0.930 1_545 S
C529 C527 1.419 . S
C529 C530 1.362 1_545 S
C530 H522 0.930 . S
C530 C529 1.362 1_565 S
C530 C533 1.409 1_565 S
C531 H523 0.930 1_545 S
C531 C532 1.355 . S
C531 C533 1.415 . S
C532 C531 1.355 . S
C532 C534 1.419 . S
C533 C528 1.425 . S
C533 C530 1.409 1_545 S
C533 C531 1.415 . S
C534 H524 0.930 . S
C534 C532 1.419 . S
C534 C535 1.362 . S
C535 H525 0.930 . S
C535 C528 1.409 . S
C535 C534 1.362 . S
H536 C542 0.930 . S
H537 C545 0.930 1_554 S
H538 C546 0.930 . S
H539 C547 0.930 . S
H540 C550 0.930 . S
H541 C551 0.930 . S
C542 H536 0.930 . S
C542 C543 1.355 . S
C542 C544 1.415 . S
C543 C542 1.355 . S
C543 C545 1.419 . S
C544 C542 1.415 . S
C544 C549 1.425 . S
C544 C551 1.409 . S
C545 H537 0.930 1_556 S
C545 C543 1.419 . S
C545 C546 1.362 . S
C546 H538 0.930 . S
C546 C545 1.362 . S
C546 C549 1.409 . S
C547 H539 0.930 . S
C547 C548 1.355 . S
C547 C549 1.415 . S
C548 C547 1.355 . S
C548 C550 1.419 . S
C549 C544 1.425 . S
C549 C546 1.409 . S
C549 C547 1.415 . S
C550 H540 0.930 . S
C550 C548 1.419 . S
C550 C551 1.362 . S
C551 H541 0.930 . S
C551 C544 1.409 . S
C551 C550 1.362 . S
H552 C558 0.930 1_554 S
H553 C561 0.930 . S
H554 C562 0.930 . S
H555 C563 0.930 . S
H556 C566 0.930 . S
H557 C567 0.930 1_554 S
C558 H552 0.930 1_556 S
C558 C559 1.355 . S
C558 C560 1.415 . S
C559 C558 1.355 . S
C559 C561 1.419 . S
C560 C558 1.415 . S
C560 C565 1.425 . S
C560 C567 1.409 . S
C561 H553 0.930 . S
C561 C559 1.419 . S
C561 C562 1.362 . S
C562 H554 0.930 . S
C562 C561 1.362 . S
C562 C565 1.409 . S
C563 H555 0.930 . S
C563 C564 1.355 . S
C563 C565 1.415 . S
C564 C563 1.355 . S
C564 C566 1.419 . S
C565 C560 1.425 . S
C565 C562 1.409 . S
C565 C563 1.415 . S
C566 H556 0.930 . S
C566 C564 1.419 . S
C566 C567 1.362 . S
C567 H557 0.930 1_556 S
C567 C560 1.409 . S
C567 C566 1.362 . S
H568 C574 0.930 . S
H569 C577 0.930 . S
H570 C578 0.930 . S
H571 C579 0.930 . S
H572 C582 0.930 . S
H573 C583 0.930 . S
C574 H568 0.930 . S
C574 C575 1.355 . S
C574 C576 1.415 . S
C575 C574 1.355 . S
C575 C577 1.419 1_655 S
C576 C574 1.415 . S
C576 C581 1.425 . S
C576 C583 1.409 . S
C577 H569 0.930 . S
C577 C575 1.419 1_455 S
C577 C578 1.362 . S
C578 H570 0.930 . S
C578 C577 1.362 . S
C578 C581 1.409 1_455 S
C579 H571 0.930 . S
C579 C580 1.355 1_455 S
C579 C581 1.415 1_455 S
C580 C579 1.355 1_655 S
C580 C582 1.419 . S
C581 C576 1.425 . S
C581 C578 1.409 1_655 S
C581 C579 1.415 1_655 S
C582 H572 0.930 . S
C582 C580 1.419 . S
C582 C583 1.362 . S
C583 H573 0.930 . S
C583 C576 1.409 . S
C583 C582 1.362 . S
H584 C590 0.930 . S
H585 C593 0.930 . S
H586 C594 0.930 . S
H587 C595 0.930 . S
H588 C598 0.930 . S
H589 C599 0.930 . S
C590 H584 0.930 . S
C590 C591 1.355 1_545 S
C590 C592 1.415 1_545 S
C591 C590 1.355 1_565 S
C591 C593 1.419 . S
C592 C590 1.415 1_565 S
C592 C597 1.425 . S
C592 C599 1.409 1_565 S
C593 H585 0.930 . S
C593 C591 1.419 . S
C593 C594 1.362 . S
C594 H586 0.930 . S
C594 C593 1.362 . S
C594 C597 1.409 . S
C595 H587 0.930 . S
C595 C596 1.355 . S
C595 C597 1.415 . S
C596 C595 1.355 . S
C596 C598 1.419 1_565 S
C597 C592 1.425 . S
C597 C594 1.409 . S
C597 C595 1.415 . S
C598 H588 0.930 . S
C598 C596 1.419 1_545 S
C598 C599 1.362 . S
C599 H589 0.930 . S
C599 C592 1.409 1_545 S
C599 C598 1.362 . S
H600 C606 0.930 . S
H601 C609 0.930 . S
H602 C610 0.930 . S
H603 C611 0.930 . S
H604 C614 0.930 . S
H605 C615 0.930 . S
C606 H600 0.930 . S
C606 C607 1.355 . S
C606 C608 1.415 . S
C607 C606 1.355 . S
C607 C609 1.419 . S
C608 C606 1.415 . S
C608 C613 1.425 . S
C608 C615 1.409 . S
C609 H601 0.930 . S
C609 C607 1.419 . S
C609 C610 1.362 . S
C610 H602 0.930 . S
C610 C609 1.362 . S
C610 C613 1.409 . S
C611 H603 0.930 . S
C611 C612 1.355 . S
C611 C613 1.415 . S
C612 C611 1.355 . S
C612 C614 1.419 . S
C613 C608 1.425 . S
C613 C610 1.409 . S
C613 C611 1.415 . S
C614 H604 0.930 . S
C614 C612 1.419 . S
C614 C615 1.362 . S
C615 H605 0.930 . S
C615 C608 1.409 . S
C615 C614 1.362 . S
H616 C622 0.930 . S
H617 C625 0.930 . S
H618 C626 0.930 . S
H619 C627 0.930 . S
H620 C630 0.930 . S
H621 C631 0.930 . S
C622 H616 0.930 . S
C622 C623 1.355 . S
C622 C624 1.415 . S
C623 C622 1.355 . S
C623 C625 1.419 . S
C624 C622 1.415 . S
C624 C629 1.425 . S
C624 C631 1.409 . S
C625 H617 0.930 . S
C625 C623 1.419 . S
C625 C626 1.362 . S
C626 H618 0.930 . S
C626 C625 1.362 . S
C626 C629 1.409 . S
C627 H619 0.930 . S
C627 C628 1.355 . S
C627 C629 1.415 . S
C628 C627 1.355 . S
C628 C630 1.419 . S
C629 C624 1.425 . S
C629 C626 1.409 . S
C629 C627 1.415 . S
C630 H620 0.930 . S
C630 C628 1.419 . S
C630 C631 1.362 . S
C631 H621 0.930 . S
C631 C624 1.409 . S
C631 C630 1.362 . S
C255 C76 2.196 . S
C260 C119 2.378 . S
C276 C145 1.990 . S
C271 C87 1.801 . S
C292 C185 2.037 . S
C287 C54 1.900 . S
C308 C239 2.399 . S
C303 C65 2.242 . S
C324 C100 2.370 1_565 S
C319 C32 2.175 . S
C335 C43 1.759 . S
C340 C130 1.990 . S
C351 C10 1.876 . S
C356 C170 2.028 . S
C367 C21 2.250 . S
C372 C220 2.407 . S
C388 C96 0.582 . S
C383 C60 0.573 . S
C404 C157 0.792 . S
C399 C71 0.732 . S
C420 C197 0.617 . S
C415 C82 0.671 . S
C431 C49 0.699 . S
C436 C216 0.663 . S
C447 C16 0.768 . S
C452 C117 0.730 . S
C468 C136 0.755 . S
C463 C27 0.811 . S
C484 C176 0.596 . S
C479 C38 0.583 . S
C495 C5 0.665 . S
C500 C237 0.641 . S
C511 C59 1.915 . S
C516 C90 2.224 . S
C527 C70 2.407 . S
C532 C140 2.643 . S
C548 C180 2.433 . S
C543 C81 2.171 . S
C564 C210 2.010 . S
C559 C48 1.819 . S
C575 C15 1.954 . S
C580 C105 2.223 . S
C596 C159 2.629 . S
C591 C26 2.410 . S
C612 C199 2.444 . S
C607 C37 2.256 . S
C623 C4 1.723 . S
C628 C225 2.008 . S
