# Generated by pormake.
# Topology csq, (4,8)-cn, num edge types: 1
# Building blocks:
#     Node 0, Type 0, BuildingBlock: KUFVIS_clean_linker_0, # of connection points: 4
#     Node 1, Type 0, BuildingBlock: KUFVIS_clean_linker_0, # of connection points: 4
#     Node 2, Type 0, BuildingBlock: KUFVIS_clean_linker_0, # of connection points: 4
#     Node 3, Type 0, BuildingBlock: KUFVIS_clean_linker_0, # of connection points: 4
#     Node 4, Type 0, BuildingBlock: KUFVIS_clean_linker_0, # of connection points: 4
#     Node 5, Type 0, BuildingBlock: KUFVIS_clean_linker_0, # of connection points: 4
#     Node 6, Type 1, BuildingBlock: TAGTUT_clean_sbu_3, # of connection points: 8
#     Node 7, Type 1, BuildingBlock: TAGTUT_clean_sbu_3, # of connection points: 8
#     Node 8, Type 1, BuildingBlock: TAGTUT_clean_sbu_3, # of connection points: 8
#     Edge 9, Type (0, 1), BuildingBlock: AJUNOK_clean_linker_0, # of connection points: 2
#     Edge 10, Type (0, 1), BuildingBlock: AJUNOK_clean_linker_0, # of connection points: 2
#     Edge 11, Type (0, 1), BuildingBlock: AJUNOK_clean_linker_0, # of connection points: 2
#     Edge 12, Type (0, 1), BuildingBlock: AJUNOK_clean_linker_0, # of connection points: 2
#     Edge 13, Type (0, 1), BuildingBlock: AJUNOK_clean_linker_0, # of connection points: 2
#     Edge 14, Type (0, 1), BuildingBlock: AJUNOK_clean_linker_0, # of connection points: 2
#     Edge 15, Type (0, 1), BuildingBlock: AJUNOK_clean_linker_0, # of connection points: 2
#     Edge 16, Type (0, 1), BuildingBlock: AJUNOK_clean_linker_0, # of connection points: 2
#     Edge 17, Type (0, 1), BuildingBlock: AJUNOK_clean_linker_0, # of connection points: 2
#     Edge 18, Type (0, 1), BuildingBlock: AJUNOK_clean_linker_0, # of connection points: 2
#     Edge 19, Type (0, 1), BuildingBlock: AJUNOK_clean_linker_0, # of connection points: 2
#     Edge 20, Type (0, 1), BuildingBlock: AJUNOK_clean_linker_0, # of connection points: 2
#     Edge 21, Type (0, 1), BuildingBlock: AJUNOK_clean_linker_0, # of connection points: 2
#     Edge 22, Type (0, 1), BuildingBlock: AJUNOK_clean_linker_0, # of connection points: 2
#     Edge 23, Type (0, 1), BuildingBlock: AJUNOK_clean_linker_0, # of connection points: 2
#     Edge 24, Type (0, 1), BuildingBlock: AJUNOK_clean_linker_0, # of connection points: 2
#     Edge 25, Type (0, 1), BuildingBlock: AJUNOK_clean_linker_0, # of connection points: 2
#     Edge 26, Type (0, 1), BuildingBlock: AJUNOK_clean_linker_0, # of connection points: 2
#     Edge 27, Type (0, 1), BuildingBlock: AJUNOK_clean_linker_0, # of connection points: 2
#     Edge 28, Type (0, 1), BuildingBlock: AJUNOK_clean_linker_0, # of connection points: 2
#     Edge 29, Type (0, 1), BuildingBlock: AJUNOK_clean_linker_0, # of connection points: 2
#     Edge 30, Type (0, 1), BuildingBlock: AJUNOK_clean_linker_0, # of connection points: 2
#     Edge 31, Type (0, 1), BuildingBlock: AJUNOK_clean_linker_0, # of connection points: 2
#     Edge 32, Type (0, 1), BuildingBlock: AJUNOK_clean_linker_0, # of connection points: 2
# Relax obj value: 0.039
# Max RMSD: 0.108
# Mean RMSD: 0.085
data_MOF--net-csq--node1-TAGTUT_clean_sbu_3--node2-KUFVIS_clean_linker_0--edge1-AJUNOK_clean_linker_0
_symmetry_space_group_name_H-M    P1
_symmetry_Int_Tables_number       1
_symmetry_cell_setting            triclinic
loop_
_symmetry_equiv_pos_as_xyz
'x, y, z'
_cell_length_a     40.246885
_cell_length_b     39.843276
_cell_length_c     14.497337
_cell_angle_alpha  92.760564
_cell_angle_beta   93.223496
_cell_angle_gamma 119.77547
loop_
_atom_site_label
_atom_site_type_symbol
_atom_site_fract_x
_atom_site_fract_y
_atom_site_fract_z
_atom_type_partial_charge
H0 H 0.40084 0.52909 0.19299 0.0
H1 H 0.29677 0.49988 0.31395 0.0
H2 H 0.30205 0.5086 0.01764 0.0
H3 H 0.23739 0.46501 0.02407 0.0
H4 H 0.14729 0.47353 0.14914 0.0
H5 H 0.25908 0.52719 0.29448 0.0
C6 C 0.37171 0.52421 0.18505 0.0
C7 C 0.35421 0.52008 0.09669 0.0
C8 C 0.351 0.51667 0.26228 0.0
C9 C 0.31266 0.50735 0.25316 0.0
C10 C 0.29468 0.50621 0.16581 0.0
C11 C 0.31556 0.51153 0.08652 0.0
C12 C 0.25385 0.49755 0.15935 0.0
C13 C 0.22796 0.47556 0.08142 0.0
C14 C 0.1893 0.46622 0.07823 0.0
C15 C 0.1768 0.47966 0.15217 0.0
C16 C 0.20151 0.50085 0.23048 0.0
C17 C 0.24004 0.51007 0.23384 0.0
H18 H 0.69686 0.14599 0.08955 0.0
H19 H 0.78354 0.25143 0.2363 0.0
H20 H 0.77371 0.23685 0.93416 0.0
H21 H 0.80916 0.29919 0.94591 0.0
H22 H 0.91322 0.39079 0.08741 0.0
H23 H 0.8438 0.29188 0.23066 0.0
C24 C 0.72157 0.17487 0.08767 0.0
C25 C 0.73188 0.18984 0.00312 0.0
C26 C 0.74013 0.1972 0.17025 0.0
C27 C 0.7714 0.23451 0.17027 0.0
C28 C 0.78562 0.2497 0.08586 0.0
C29 C 0.76495 0.2267 0.00115 0.0
C30 C 0.82084 0.2895 0.08786 0.0
C31 C 0.82856 0.31048 0.00845 0.0
C32 C 0.86185 0.34666 0.00828 0.0
C33 C 0.88709 0.3631 0.08869 0.0
C34 C 0.88019 0.34403 0.16964 0.0
C35 C 0.84739 0.30699 0.16884 0.0
H36 H 0.56272 0.8992 0.03694 0.0
H37 H 0.56871 0.80789 0.16553 0.0
H38 H 0.55261 0.80346 0.86548 0.0
H39 H 0.58261 0.76964 0.87166 0.0
H40 H 0.56566 0.66703 -0.00874 0.0
H41 H 0.53896 0.74427 0.14213 0.0
C42 C 0.56266 0.87192 0.03019 0.0
C43 C 0.55934 0.8542 0.94192 0.0
C44 C 0.56481 0.85451 0.11003 0.0
C45 C 0.56524 0.81966 0.10236 0.0
C46 C 0.56083 0.80026 0.01457 0.0
C47 C 0.55719 0.81778 0.93412 0.0
C48 C 0.56081 0.76245 0.00784 0.0
C49 C 0.57316 0.75144 0.92855 0.0
C50 C 0.57447 0.71703 0.92272 0.0
C51 C 0.56405 0.69344 -0.00361 0.0
C52 C 0.55184 0.70329 0.07637 0.0
C53 C 0.54972 0.73759 0.08138 0.0
H54 H 0.91375 0.53175 -0.02214 0.0
H55 H 0.83623 0.54173 0.14957 0.0
H56 H 0.82813 0.55289 0.85327 0.0
H57 H 0.76784 0.53176 0.8661 0.0
H58 H 0.69356 0.55002 0.03286 0.0
H59 H 0.79773 0.56346 0.16338 0.0
C60 C 0.88813 0.53407 -0.01625 0.0
C61 C 0.87106 0.54019 0.90568 0.0
C62 C 0.87679 0.53701 0.07087 0.0
C63 C 0.84458 0.541 0.08039 0.0
C64 C 0.82453 0.54474 0.00212 0.0
C65 C 0.83961 0.54619 0.9143 0.0
C66 C 0.78875 0.54746 0.01274 0.0
C67 C 0.76275 0.53949 0.93419 0.0
C68 C 0.72913 0.54092 0.9424 0.0
C69 C 0.72003 0.54924 0.02811 0.0
C70 C 0.74442 0.55695 0.10757 0.0
C71 C 0.77905 0.55654 0.10053 0.0
H72 H 0.36499 0.93157 0.05238 0.0
H73 H 0.3158 0.83484 0.2168 0.0
H74 H 0.25748 0.83171 0.95292 0.0
H75 H 0.2344 0.76822 0.95121 0.0
H76 H 0.16571 0.68467 0.13486 0.0
H77 H 0.25599 0.79599 0.24952 0.0
C78 C 0.3415 0.90301 0.06314 0.0
C79 C 0.31071 0.88349 -0.00534 0.0
C80 C 0.34324 0.88614 0.14415 0.0
C81 C 0.31399 0.84802 0.15466 0.0
C82 C 0.2824 0.82749 0.08612 0.0
C83 C 0.28124 0.84597 0.0063 0.0
C84 C 0.25028 0.78748 0.09865 0.0
C85 C 0.22792 0.76076 0.02128 0.0
C86 C 0.19637 0.72423 0.03382 0.0
C87 C 0.18913 0.71328 0.12416 0.0
C88 C 0.21111 0.7389 0.20125 0.0
C89 C 0.24081 0.7761 0.18865 0.0
H90 H 0.47138 0.35246 0.13768 0.0
H91 H 0.46985 0.26672 0.3067 0.0
H92 H 0.5116 0.27835 0.03382 0.0
H93 H 0.49604 0.21684 0.04815 0.0
H94 H 0.54096 0.16609 0.23483 0.0
H95 H 0.50826 0.24549 0.34512 0.0
C96 C 0.47549 0.32781 0.14619 0.0
C97 C 0.48906 0.31511 0.07361 0.0
C98 C 0.4702 0.31149 0.23148 0.0
C99 C 0.47631 0.28024 0.24226 0.0
C100 C 0.4922 0.26801 0.17325 0.0
C101 C 0.49836 0.28584 0.08788 0.0
C102 C 0.50399 0.23834 0.19264 0.0
C103 C 0.50601 0.21559 0.11811 0.0
C104 C 0.51842 0.18899 0.13376 0.0
C105 C 0.53061 0.18621 0.2234 0.0
C106 C 0.52398 0.20393 0.29946 0.0
C107 C 0.51165 0.2309 0.28476 0.0
C108 C 0.10296 0.50384 0.49954 0.0
C109 C 0.07596 0.44412 0.81386 0.0
C110 C 0.96495 0.43904 0.76446 0.0
Mg111 Mg 0.06656 0.55003 0.39755 0.0
Mg112 Mg 0.04264 0.6062 0.5205 0.0
O113 O 0.03653 0.55659 0.49529 0.0
Mg114 Mg 0.04653 0.53005 0.59413 0.0
O115 O 0.0577 0.50077 0.68553 0.0
Mg116 Mg 0.03085 0.44739 0.61724 0.0
Mg117 Mg 0.04722 0.50387 0.80765 0.0
C118 C 0.98909 0.56096 0.67443 0.0
O119 O 0.08924 0.58727 0.68874 0.0
O120 O 0.03085 0.56708 0.30257 0.0
O121 O 0.07766 0.56649 0.83211 0.0
O122 O 0.11417 0.61335 0.42358 0.0
O123 O 1.01241 0.6018 0.39208 0.0
O124 O 0.102 0.65085 0.51792 0.0
O125 O 1.00353 0.47049 0.51163 0.0
O126 O 1.01918 0.48701 0.36959 0.0
C127 C 0.99909 0.46175 0.42385 0.0
C128 C 1.01071 0.5835 0.31544 0.0
O129 O 0.99729 0.53349 0.66613 0.0
O130 O 0.06265 0.43127 0.7293 0.0
O131 O 1.00736 0.59291 0.6362 0.0
O132 O 0.97725 0.42561 0.70119 0.0
O133 O 0.07262 0.47101 0.85679 0.0
O134 O 0.98666 0.47208 0.80869 0.0
O135 O 0.09416 0.53045 0.51145 0.0
O136 O 0.08389 0.47118 0.5338 0.0
C137 C 0.12439 0.6462 0.46656 0.0
C138 C 0.09363 0.59363 0.77797 0.0
C139 C 0.52694 0.08968 0.48911 0.0
C140 C 0.6391 0.08093 0.37645 0.0
C141 C 0.57202 0.95648 0.40816 0.0
Mg142 Mg 0.46558 0.03855 0.62987 0.0
Mg143 Mg 0.48418 0.9923 0.7908 0.0
O144 O 0.48691 1.00458 0.66983 0.0
Mg145 Mg 0.53301 0.0229 0.6002 0.0
O146 O 0.57507 0.04126 0.51959 0.0
Mg147 Mg 0.54503 0.02479 0.39565 0.0
Mg148 Mg 0.61465 0.02953 0.53834 0.0
C149 C 0.53147 0.95279 0.72501 0.0
O150 O 0.58275 0.06248 0.71859 0.0
O151 O 0.40857 0.99736 0.69408 0.0
O152 O 0.63092 0.05207 0.6817 0.0
O153 O 0.48873 0.07617 0.76741 0.0
O154 O 0.42337 0.962 0.78697 0.0
O155 O 0.50571 0.04612 0.87091 0.0
O156 O 0.49029 0.98731 0.47006 0.0
O157 O 0.44338 1.00018 0.49575 0.0
C158 C 0.45734 0.98365 0.44638 0.0
C159 C 0.39905 0.96953 0.74664 0.0
O160 O 0.53979 0.97027 0.64967 0.0
O161 O 0.6037 0.066 0.345 0.0
O162 O 0.5135 0.95955 0.78682 0.0
O163 O 0.5546 0.97321 0.37474 0.0
O164 O 0.65003 0.06999 0.44764 0.0
O165 O 0.59606 0.97142 0.4799 0.0
O166 O 0.52348 0.07425 0.56597 0.0
O167 O 0.53556 0.07653 0.41795 0.0
C168 C 0.50219 0.07481 0.8481 0.0
C169 C 0.61753 0.06873 0.7336 0.0
C170 C 0.56961 0.60126 0.70813 0.0
C171 C 0.45359 0.49394 0.86852 0.0
C172 C 0.50014 0.41963 0.7976 0.0
Mg173 Mg 0.60536 0.5921 0.52007 0.0
Mg174 Mg 0.55148 0.5221 0.35951 0.0
O175 O 0.57035 0.53533 0.48424 0.0
Mg176 Mg 0.53585 0.51914 0.58733 0.0
O177 O 0.50379 0.50522 0.69333 0.0
Mg178 Mg 0.54214 0.51893 0.80055 0.0
Mg179 Mg 0.46034 0.45495 0.68571 0.0
C180 C 0.50015 0.44153 0.44674 0.0
O181 O 0.48412 0.51399 0.50639 0.0
O182 O 0.64567 0.58906 0.41145 0.0
O183 O 0.43468 0.45993 0.55436 0.0
O184 O 0.57612 0.61242 0.41005 0.0
O185 O 0.60682 0.53579 0.3147 0.0
O186 O 0.53469 0.56274 0.31126 0.0
O187 O 0.58352 0.52182 0.68587 0.0
O188 O 0.63256 0.57189 0.62833 0.0
C189 C 0.61957 0.54543 0.68467 0.0
C190 C 0.64035 0.56382 0.34471 0.0
O191 O 0.51178 0.45592 0.5313 0.0
O192 O 0.49068 0.51417 0.88536 0.0
O193 O 0.50903 0.46211 0.37687 0.0
O194 O 0.5237 0.45518 0.82498 0.0
O195 O 0.43722 0.46929 0.79794 0.0
O196 O 0.47362 0.4109 0.73246 0.0
O197 O 0.56121 0.58427 0.62648 0.0
O198 O 0.56247 0.58217 0.77973 0.0
C199 C 0.55078 0.5986 0.34037 0.0
C200 C 0.44817 0.48897 0.50443 0.0
C201 C 0.1652 0.5306 0.29791 0.0
C202 C 0.18485 0.50989 0.31017 0.0
C203 C 0.14053 0.5307 0.36261 0.0
C204 C 0.13395 0.50927 0.4406 0.0
H205 H 0.16735 0.54508 0.2353 0.0
H206 H 0.12476 0.54562 0.34827 0.0
S207 S 0.18201 0.4541 0.50956 0.0
N208 N 0.199 0.47067 0.4103 0.0
N209 N 0.15236 0.4703 0.5314 0.0
C210 C 0.15536 0.49054 0.45646 0.0
C211 C 0.18092 0.49102 0.39141 0.0
C212 C 0.73294 0.15541 0.29438 0.0
C213 C 0.72261 0.18058 0.25392 0.0
C214 C 0.70592 0.12352 0.33679 0.0
C215 C 0.66788 0.11583 0.33782 0.0
H216 H 0.76062 0.15806 0.28468 0.0
H217 H 0.71414 0.10347 0.36337 0.0
S218 S 0.62919 0.17742 0.2546 0.0
N219 N 0.67425 0.19941 0.22884 0.0
N220 N 0.62297 0.13917 0.30741 0.0
C221 C 0.65847 0.14306 0.30559 0.0
C222 C 0.6862 0.17585 0.2647 0.0
C223 C 0.52099 0.63713 0.13539 0.0
C224 C 0.54354 0.67773 0.1543 0.0
C225 C 0.52109 0.61166 0.19901 0.0
C226 C 0.54391 0.62567 0.28453 0.0
H227 H 0.5049 0.62493 0.06828 0.0
H228 H 0.5049 0.58081 0.17819 0.0
S229 S 0.6023 0.72954 0.37485 0.0
N230 N 0.58507 0.73069 0.26968 0.0
N231 N 0.58492 0.68317 0.39024 0.0
C232 C 0.56352 0.66621 0.30806 0.0
C233 C 0.5634 0.69213 0.24286 0.0
C234 C 0.92699 0.58393 0.18794 0.0
C235 C 0.90496 0.54534 0.14917 0.0
C236 C 0.96226 0.59674 0.23901 0.0
C237 C 0.97664 0.57142 0.25135 0.0
H238 H 0.91795 0.60483 0.17413 0.0
H239 H 0.97861 0.62669 0.26798 0.0
S240 S 0.92684 0.46625 0.17403 0.0
N241 N 0.89773 0.48116 0.13304 0.0
N242 N 0.96407 0.5049 0.22982 0.0
C243 C 0.95389 0.53226 0.21642 0.0
C244 C 0.91789 0.51925 0.16545 0.0
C245 C 0.38286 0.94865 0.24204 0.0
C246 C 0.37456 0.91037 0.21874 0.0
C247 C 0.41154 0.97275 0.31172 0.0
C248 C 0.43338 0.95982 0.36157 0.0
H249 H 0.36632 0.95991 0.20764 0.0
H250 H 0.41587 1.00153 0.32865 0.0
S251 S 0.42441 0.86278 0.32642 0.0
N252 N 0.39177 0.86113 0.249 0.0
N253 N 0.44555 0.90659 0.38206 0.0
C254 C 0.42638 0.92209 0.33778 0.0
C255 C 0.39686 0.89726 0.26634 0.0
C256 C 0.44203 0.34899 0.30106 0.0
C257 C 0.46573 0.33255 0.31264 0.0
C258 C 0.44984 0.38241 0.35559 0.0
C259 C 0.48074 0.39948 0.4248 0.0
H260 H 0.4205 0.3389 0.24238 0.0
H261 H 0.43441 0.39732 0.33681 0.0
S262 S 0.54376 0.36125 0.50116 0.0
N263 N 0.5161 0.33121 0.41147 0.0
N264 N 0.52928 0.39313 0.5164 0.0
C265 C 0.5 0.37949 0.44798 0.0
C266 C 0.49276 0.34597 0.39117 0.0
C267 C 0.5856 0.91219 0.84978 0.0
C268 C 0.55612 0.87408 0.86024 0.0
C269 C 0.5791 0.93659 0.79364 0.0
C270 C 0.54283 0.92377 0.74638 0.0
H271 H 0.6129 0.92425 0.89133 0.0
H272 H 0.60136 0.96675 0.79473 0.0
S273 S 0.45744 0.82552 0.74275 0.0
N274 N 0.49059 0.82369 0.81142 0.0
N275 N 0.47822 0.86962 0.70708 0.0
C276 C 0.51423 0.8848 0.75005 0.0
C277 C 0.52092 0.85988 0.80659 0.0
C278 C 0.71265 0.57263 0.8228 0.0
C279 C 0.70448 0.53817 0.86155 0.0
C280 C 0.6848 0.57441 0.76533 0.0
C281 C 0.64786 0.54177 0.74511 0.0
H282 H 0.73995 0.59894 0.8416 0.0
H283 H 0.69196 0.60201 0.73914 0.0
S284 S 0.61477 0.4433 0.82049 0.0
N285 N 0.65891 0.47 0.87119 0.0
N286 N 0.60617 0.47279 0.76027 0.0
C287 C 0.6401 0.50648 0.77969 0.0
C288 C 0.66861 0.50481 0.83862 0.0
C289 C 0.18404 0.68394 0.88228 0.0
C290 C 0.17 0.69697 0.95437 0.0
C291 C 0.15876 0.65243 0.81795 0.0
C292 C 0.11876 0.63315 0.82389 0.0
H293 H 0.21474 0.69638 0.87939 0.0
H294 H 0.17071 0.64128 0.76799 0.0
S295 S 0.06728 0.66014 -0.01066 0.0
N296 N 0.11321 0.69145 0.01916 0.0
N297 N 0.0662 0.63208 0.90022 0.0
C298 C 0.1044 0.64793 0.89082 0.0
C299 C 0.12989 0.67991 0.95549 0.0
C300 C 0.52648 0.17086 -0.02785 0.0
C301 C 0.51366 0.15986 0.05975 0.0
C302 C 0.52279 0.14312 0.90303 0.0
C303 C 0.50746 0.10405 0.92108 0.0
H304 H 0.5397 0.20099 0.95737 0.0
H305 H 0.53276 0.15236 0.83595 0.0
S306 S 0.46368 0.05955 0.13331 0.0
N307 N 0.47966 0.10633 0.15556 0.0
N308 N 0.47542 0.05495 0.02814 0.0
C309 C 0.49347 0.09256 0.00721 0.0
C310 C 0.49594 0.12033 0.07604 0.0
C311 C 0.41408 0.5458 0.01477 0.0
C312 C 0.37544 0.5167 0.01964 0.0
C313 C 0.43968 0.53814 0.96835 0.0
C314 C 0.42761 0.5011 0.9249 0.0
H315 H 0.42513 0.57406 0.05205 0.0
H316 H 0.46907 0.56132 0.96667 0.0
S317 S 0.32931 0.41509 0.91672 0.0
N318 N 0.32644 0.44983 -0.02405 0.0
N319 N 0.37396 0.43517 0.88839 0.0
C320 C 0.38868 0.47216 0.92684 0.0
C321 C 0.36274 0.48008 -0.02633 0.0
C322 C 0.88722 0.40649 0.92605 0.0
C323 C 0.87386 0.36648 0.92265 0.0
C324 C 0.9139 0.42971 0.86652 0.0
C325 C 0.92752 0.41353 0.80041 0.0
H326 H 0.88027 0.42047 -0.01844 0.0
H327 H 0.9263 0.46089 0.8779 0.0
S328 S 0.89228 0.30857 0.74676 0.0
N329 N 0.86967 0.31046 0.8367 0.0
N330 N 0.91878 0.3539 0.72155 0.0
C331 C 0.90951 0.37279 0.78666 0.0
C332 C 0.88274 0.34921 0.8486 0.0
C333 C 0.9254 0.58318 0.81947 0.0
C334 C 0.89241 0.54661 0.82241 0.0
C335 C 0.95633 0.58749 0.77102 0.0
C336 C 0.95564 0.55531 0.72423 0.0
H337 H 0.92869 0.60807 0.86151 0.0
H338 H 0.98169 0.61602 0.77376 0.0
S339 S 0.87266 0.45476 0.69518 0.0
N340 N 0.8588 0.47863 0.76479 0.0
N341 N 0.91654 0.48671 0.6717 0.0
C342 C 0.92161 0.51911 0.72069 0.0
C343 C 0.89008 0.51481 0.76996 0.0
C344 C 0.3195 0.8836 0.82786 0.0
C345 C 0.31346 0.90125 0.90631 0.0
C346 C 0.34252 0.90632 0.7614 0.0
C347 C 0.35965 0.94697 0.77191 0.0
H348 H 0.31155 0.85327 0.825 0.0
H349 H 0.35159 0.8927 0.70982 0.0
S350 S 0.34184 1.0048 0.94848 0.0
N351 N 0.31762 0.95979 -0.02227 0.0
N352 N 0.36129 1.00256 0.85267 0.0
C353 C 0.34756 0.96372 0.83962 0.0
C354 C 0.32417 0.94066 0.90732 0.0
C355 C 0.52722 0.37546 -0.00453 0.0
C356 C 0.49708 0.33677 -0.01127 0.0
C357 C 0.52922 0.40099 0.92963 0.0
C358 C 0.50116 0.38917 0.8534 0.0
H359 H 0.54801 0.38688 0.05586 0.0
H360 H 0.55188 0.431 0.94236 0.0
S361 S 0.41822 0.28926 0.79954 0.0
N362 N 0.43999 0.28677 0.89692 0.0
N363 N 0.44387 0.33437 0.77178 0.0
C364 C 0.47225 0.34964 0.84249 0.0
C365 C 0.47018 0.32361 0.91037 0.0
C366 C 0.17104 0.46253 0.91 0.0
C367 C 0.16186 0.4461 -0.00495 0.0
C368 C 0.14186 0.45653 0.84252 0.0
C369 C 0.10297 0.43422 0.85889 0.0
H370 H 0.20044 0.4838 0.90011 0.0
H371 H 0.14976 0.47327 0.78266 0.0
S372 S 0.06444 0.37655 0.05837 0.0
N373 N 0.11161 0.39915 0.08182 0.0
N374 N 0.05681 0.38986 0.95679 0.0
C375 C 0.09361 0.41336 0.93726 0.0
C376 C 0.12321 0.41864 0.00486 0.0
C377 C 0.71447 0.14417 0.86096 0.0
C378 C 0.70492 0.1659 0.92136 0.0
C379 C 0.68588 0.11257 0.8024 0.0
C380 C 0.64633 0.10101 0.80214 0.0
H381 H 0.74392 0.15034 0.86243 0.0
H382 H 0.69512 0.09685 0.75758 0.0
S383 S 0.60702 0.14905 0.9499 0.0
N384 N 0.65381 0.17446 -0.02223 0.0
N385 N 0.59999 0.11503 0.86882 0.0
C386 C 0.63672 0.12326 0.86131 0.0
C387 C 0.66595 0.15566 0.92016 0.0
C388 C 0.61451 0.69474 0.84787 0.0
C389 C 0.58452 0.70314 0.8386 0.0
C390 C 0.61338 0.6647 0.79135 0.0
C391 C 0.58242 0.64264 0.72397 0.0
H392 H 0.63592 0.7077 0.90693 0.0
H393 H 0.63387 0.65534 0.80885 0.0
S394 S 0.5031 0.66071 0.65616 0.0
N395 N 0.5279 0.69306 0.74489 0.0
N396 N 0.52608 0.63666 0.63742 0.0
C397 C 0.55619 0.65531 0.70354 0.0
C398 C 0.55716 0.68575 0.76161 0.0
C399 C 0.48843 0.15172 0.40019 0.0
C400 C 0.5227 0.18625 0.3881 0.0
C401 C 0.48913 0.12137 0.44457 0.0
C402 C 0.52402 0.12499 0.48046 0.0
H403 H 0.46159 0.14593 0.36385 0.0
H404 H 0.46281 0.09362 0.44209 0.0
S405 S 0.62049 0.21229 0.48471 0.0
N406 N 0.59154 0.22424 0.4284 0.0
N407 N 0.59275 0.16781 0.51411 0.0
C408 C 0.55769 0.1611 0.47959 0.0
C409 C 0.55703 0.19175 0.43348 0.0
C410 C 0.35804 0.4744 0.37021 0.0
C411 C 0.36917 0.51217 0.34727 0.0
C412 C 0.38355 0.467 0.42279 0.0
C413 C 0.42094 0.49716 0.45261 0.0
H414 H 0.33084 0.45008 0.34066 0.0
H415 H 0.37464 0.4373 0.436 0.0
S416 S 0.46089 0.60204 0.42203 0.0
N417 N 0.4174 0.58045 0.36696 0.0
N418 N 0.46573 0.56708 0.46594 0.0
C419 C 0.43105 0.53555 0.43627 0.0
C420 C 0.4049 0.54295 0.38403 0.0
C421 C 0.94796 0.37744 0.24139 0.0
C422 C 0.90888 0.364 0.25205 0.0
C423 C 0.97719 0.40661 0.3035 0.0
C424 C 0.96867 0.42327 0.37982 0.0
H425 H 0.95606 0.36756 0.18019 0.0
H426 H 1.00675 0.41814 0.28795 0.0
S427 S 0.87113 0.39507 0.44586 0.0
N428 N 0.86323 0.36705 0.34983 0.0
N429 N 0.91833 0.42142 0.46799 0.0
C430 C 0.92983 0.40758 0.39649 0.0
C431 C 0.89988 0.37802 0.33229 0.0
C432 C 0.53226 0.87627 0.21715 0.0
C433 C 0.56425 0.8724 0.20086 0.0
C434 C 0.53375 0.90061 0.29169 0.0
C435 C 0.56736 0.92214 0.35236 0.0
H436 H 0.50676 0.8623 0.16844 0.0
H437 H 0.50939 0.90488 0.29751 0.0
S438 S 0.65702 0.91749 0.34622 0.0
N439 N 0.62879 0.88808 0.2562 0.0
N440 N 0.63188 0.93433 0.39724 0.0
C441 C 0.59831 0.91562 0.34187 0.0
C442 C 0.59672 0.89065 0.2655 0.0
C443 C 0.73014 0.5975 0.21655 0.0
C444 C 0.73008 0.56251 0.19572 0.0
C445 C 0.70276 0.59875 0.27107 0.0
C446 C 0.67387 0.56478 0.30423 0.0
H447 H 0.74922 0.62321 0.18365 0.0
H448 H 0.70233 0.62565 0.28085 0.0
S449 S 0.66426 0.46715 0.27884 0.0
N450 N 0.7014 0.49437 0.22113 0.0
N451 N 0.64972 0.49633 0.32169 0.0
C452 C 0.67548 0.53044 0.28996 0.0
C453 C 0.70371 0.52943 0.23639 0.0
C454 C 0.20659 0.69615 0.32428 0.0
C455 C 0.20101 0.72611 0.29449 0.0
C456 C 0.18576 0.67371 0.39388 0.0
C457 C 0.15807 0.68002 0.4343 0.0
H458 H 0.22439 0.6877 0.28761 0.0
H459 H 0.18808 0.64845 0.40816 0.0
S460 S 0.13934 0.76057 0.39305 0.0
N461 N 0.17146 0.76554 0.32072 0.0
N462 N 0.13169 0.72308 0.45117 0.0
C463 C 0.15628 0.71332 0.41384 0.0
C464 C 0.17774 0.73631 0.34316 0.0
loop_
_geom_bond_atom_site_label_1
_geom_bond_atom_site_label_2
_geom_bond_distance
_geom_bond_site_symmetry_2
_ccdc_geom_bond_type
H0 C6 0.930 . S
H1 C9 0.931 . S
H2 C11 0.931 . S
H3 C13 0.930 . S
H4 C15 0.930 . S
H5 C17 0.931 . S
C6 H0 0.930 . S
C6 C7 1.380 . S
C6 C8 1.394 . S
C7 C6 1.380 . S
C7 C11 1.382 . S
C8 C6 1.394 . S
C8 C9 1.400 . S
C9 H1 0.931 . S
C9 C8 1.400 . S
C9 C10 1.375 . S
C10 C9 1.375 . S
C10 C11 1.415 . S
C10 C12 1.501 . S
C11 H2 0.931 . S
C11 C7 1.382 . S
C11 C10 1.415 . S
C12 C10 1.501 . S
C12 C13 1.384 . S
C12 C17 1.408 . S
C13 H3 0.930 . S
C13 C12 1.384 . S
C13 C14 1.389 . S
C14 C13 1.389 . S
C14 C15 1.405 . S
C15 H4 0.930 . S
C15 C14 1.405 . S
C15 C16 1.364 . S
C16 C15 1.364 . S
C16 C17 1.400 . S
C17 H5 0.931 . S
C17 C12 1.408 . S
C17 C16 1.400 . S
H18 C24 0.930 . S
H19 C27 0.931 . S
H20 C29 0.931 1_556 S
H21 C31 0.930 1_556 S
H22 C33 0.930 . S
H23 C35 0.931 . S
C24 H18 0.930 . S
C24 C25 1.380 . S
C24 C26 1.394 . S
C25 C24 1.380 . S
C25 C29 1.382 . S
C26 C24 1.394 . S
C26 C27 1.400 . S
C27 H19 0.931 . S
C27 C26 1.400 . S
C27 C28 1.375 . S
C28 C27 1.375 . S
C28 C29 1.415 . S
C28 C30 1.501 . S
C29 H20 0.931 1_554 S
C29 C25 1.382 . S
C29 C28 1.415 . S
C30 C28 1.501 . S
C30 C31 1.384 . S
C30 C35 1.408 . S
C31 H21 0.930 1_554 S
C31 C30 1.384 . S
C31 C32 1.389 . S
C32 C31 1.389 . S
C32 C33 1.405 . S
C33 H22 0.930 . S
C33 C32 1.405 . S
C33 C34 1.364 . S
C34 C33 1.364 . S
C34 C35 1.400 . S
C35 H23 0.931 . S
C35 C30 1.408 . S
C35 C34 1.400 . S
H36 C42 0.930 . S
H37 C45 0.931 . S
H38 C47 0.931 . S
H39 C49 0.930 . S
H40 C51 0.930 . S
H41 C53 0.931 . S
C42 H36 0.930 . S
C42 C43 1.380 1_554 S
C42 C44 1.394 . S
C43 C42 1.380 1_556 S
C43 C47 1.382 . S
C44 C42 1.394 . S
C44 C45 1.400 . S
C45 H37 0.931 . S
C45 C44 1.400 . S
C45 C46 1.375 . S
C46 C45 1.375 . S
C46 C47 1.415 1_554 S
C46 C48 1.501 . S
C47 H38 0.931 . S
C47 C43 1.382 . S
C47 C46 1.415 1_556 S
C48 C46 1.501 . S
C48 C49 1.384 1_554 S
C48 C53 1.408 . S
C49 H39 0.930 . S
C49 C48 1.384 1_556 S
C49 C50 1.389 . S
C50 C49 1.389 . S
C50 C51 1.405 1_556 S
C51 H40 0.930 . S
C51 C50 1.405 1_554 S
C51 C52 1.364 . S
C52 C51 1.364 . S
C52 C53 1.400 . S
C53 H41 0.931 . S
C53 C48 1.408 . S
C53 C52 1.400 . S
H54 C60 0.930 . S
H55 C63 0.931 . S
H56 C65 0.931 . S
H57 C67 0.930 . S
H58 C69 0.930 . S
H59 C71 0.931 . S
C60 H54 0.930 . S
C60 C61 1.380 1_554 S
C60 C62 1.394 . S
C61 C60 1.380 1_556 S
C61 C65 1.382 . S
C62 C60 1.394 . S
C62 C63 1.400 . S
C63 H55 0.931 . S
C63 C62 1.400 . S
C63 C64 1.375 . S
C64 C63 1.375 . S
C64 C65 1.415 1_554 S
C64 C66 1.501 . S
C65 H56 0.931 . S
C65 C61 1.382 . S
C65 C64 1.415 1_556 S
C66 C64 1.501 . S
C66 C67 1.384 1_554 S
C66 C71 1.408 . S
C67 H57 0.930 . S
C67 C66 1.384 1_556 S
C67 C68 1.389 . S
C68 C67 1.389 . S
C68 C69 1.405 1_556 S
C69 H58 0.930 . S
C69 C68 1.405 1_554 S
C69 C70 1.364 . S
C70 C69 1.364 . S
C70 C71 1.400 . S
C71 H59 0.931 . S
C71 C66 1.408 . S
C71 C70 1.400 . S
H72 C78 0.930 . S
H73 C81 0.931 . S
H74 C83 0.931 1_556 S
H75 C85 0.930 1_556 S
H76 C87 0.930 . S
H77 C89 0.931 . S
C78 H72 0.930 . S
C78 C79 1.380 . S
C78 C80 1.394 . S
C79 C78 1.380 . S
C79 C83 1.382 . S
C80 C78 1.394 . S
C80 C81 1.400 . S
C81 H73 0.931 . S
C81 C80 1.400 . S
C81 C82 1.375 . S
C82 C81 1.375 . S
C82 C83 1.415 . S
C82 C84 1.501 . S
C83 H74 0.931 1_554 S
C83 C79 1.382 . S
C83 C82 1.415 . S
C84 C82 1.501 . S
C84 C85 1.384 . S
C84 C89 1.408 . S
C85 H75 0.930 1_554 S
C85 C84 1.384 . S
C85 C86 1.389 . S
C86 C85 1.389 . S
C86 C87 1.405 . S
C87 H76 0.930 . S
C87 C86 1.405 . S
C87 C88 1.364 . S
C88 C87 1.364 . S
C88 C89 1.400 . S
C89 H77 0.931 . S
C89 C84 1.408 . S
C89 C88 1.400 . S
H90 C96 0.930 . S
H91 C99 0.931 . S
H92 C101 0.931 . S
H93 C103 0.930 . S
H94 C105 0.930 . S
H95 C107 0.931 . S
C96 H90 0.930 . S
C96 C97 1.380 . S
C96 C98 1.394 . S
C97 C96 1.380 . S
C97 C101 1.382 . S
C98 C96 1.394 . S
C98 C99 1.400 . S
C99 H91 0.931 . S
C99 C98 1.400 . S
C99 C100 1.375 . S
C100 C99 1.375 . S
C100 C101 1.415 . S
C100 C102 1.501 . S
C101 H92 0.931 . S
C101 C97 1.382 . S
C101 C100 1.415 . S
C102 C100 1.501 . S
C102 C103 1.384 . S
C102 C107 1.408 . S
C103 H93 0.930 . S
C103 C102 1.384 . S
C103 C104 1.389 . S
C104 C103 1.389 . S
C104 C105 1.405 . S
C105 H94 0.930 . S
C105 C104 1.405 . S
C105 C106 1.364 . S
C106 C105 1.364 . S
C106 C107 1.400 . S
C107 H95 0.931 . S
C107 C102 1.408 . S
C107 C106 1.400 . S
C108 O135 1.312 . S
C108 O136 1.208 . S
C109 O130 1.331 . S
C109 O133 1.244 . S
C110 O132 1.264 . S
C110 O134 1.273 . S
Mg111 O113 1.936 1_455 S
Mg111 O120 2.081 1_455 S
Mg111 O122 2.023 . S
Mg111 O126 2.031 1_455 S
Mg111 O135 2.291 . S
Mg112 O113 1.963 . S
Mg112 O123 1.942 . S
Mg112 O124 1.955 1_655 S
Mg112 O131 1.986 . S
O113 Mg111 1.936 1_655 S
O113 Mg112 1.963 . S
O113 Mg114 1.915 1_655 S
Mg114 O113 1.915 1_455 S
Mg114 O115 1.915 . S
Mg114 O119 2.013 . S
Mg114 O125 2.114 1_455 S
Mg114 O129 2.013 1_455 S
Mg114 O135 2.114 . S
O115 Mg114 1.915 . S
O115 Mg116 1.936 . S
O115 Mg117 1.963 . S
Mg116 O115 1.936 . S
Mg116 O125 2.291 1_455 S
Mg116 O130 2.081 . S
Mg116 O132 2.023 1_455 S
Mg116 O136 2.031 . S
Mg117 O115 1.963 . S
Mg117 O121 1.986 . S
Mg117 O133 1.942 . S
Mg117 O134 1.955 1_455 S
C118 O129 1.191 . S
C118 O131 1.307 . S
O119 Mg114 2.013 . S
O119 C138 1.191 . S
O120 Mg111 2.081 1_655 S
O120 C128 1.331 . S
O121 Mg117 1.986 . S
O121 C138 1.307 . S
O122 Mg111 2.023 . S
O122 C137 1.264 . S
O123 Mg112 1.942 . S
O123 C128 1.244 . S
O124 Mg112 1.955 1_455 S
O124 C137 1.273 . S
O125 Mg114 2.114 1_655 S
O125 Mg116 2.291 1_655 S
O125 C127 1.312 . S
O126 Mg111 2.031 1_655 S
O126 C127 1.208 . S
C127 O125 1.312 . S
C127 O126 1.208 . S
C128 O120 1.331 . S
C128 O123 1.244 . S
O129 Mg114 2.013 1_655 S
O129 C118 1.191 . S
O130 C109 1.331 . S
O130 Mg116 2.081 . S
O131 Mg112 1.986 . S
O131 C118 1.307 . S
O132 C110 1.264 . S
O132 Mg116 2.023 1_655 S
O133 C109 1.244 . S
O133 Mg117 1.942 . S
O134 C110 1.273 . S
O134 Mg117 1.955 1_655 S
O135 C108 1.312 . S
O135 Mg111 2.291 . S
O135 Mg114 2.114 . S
O136 C108 1.208 . S
O136 Mg116 2.031 . S
C137 O122 1.264 . S
C137 O124 1.273 . S
C138 O119 1.191 . S
C138 O121 1.307 . S
C139 O166 1.312 . S
C139 O167 1.208 . S
C140 O161 1.331 . S
C140 O164 1.244 . S
C141 O163 1.264 . S
C141 O165 1.273 . S
Mg142 O144 1.936 1_545 S
Mg142 O151 2.081 1_545 S
Mg142 O153 2.023 . S
Mg142 O157 2.031 1_545 S
Mg142 O166 2.291 . S
Mg143 O144 1.963 . S
Mg143 O154 1.942 . S
Mg143 O155 1.955 1_565 S
Mg143 O162 1.986 . S
O144 Mg142 1.936 1_565 S
O144 Mg143 1.963 . S
O144 Mg145 1.915 1_565 S
Mg145 O144 1.915 1_545 S
Mg145 O146 1.915 . S
Mg145 O150 2.013 . S
Mg145 O156 2.114 1_545 S
Mg145 O160 2.013 1_545 S
Mg145 O166 2.114 . S
O146 Mg145 1.915 . S
O146 Mg147 1.936 . S
O146 Mg148 1.963 . S
Mg147 O146 1.936 . S
Mg147 O156 2.291 1_545 S
Mg147 O161 2.081 . S
Mg147 O163 2.023 1_545 S
Mg147 O167 2.031 . S
Mg148 O146 1.963 . S
Mg148 O152 1.986 . S
Mg148 O164 1.942 . S
Mg148 O165 1.955 1_545 S
C149 O160 1.191 . S
C149 O162 1.307 . S
O150 Mg145 2.013 . S
O150 C169 1.191 . S
O151 Mg142 2.081 1_565 S
O151 C159 1.331 . S
O152 Mg148 1.986 . S
O152 C169 1.307 . S
O153 Mg142 2.023 . S
O153 C168 1.264 . S
O154 Mg143 1.942 . S
O154 C159 1.244 . S
O155 Mg143 1.955 1_545 S
O155 C168 1.273 . S
O156 Mg145 2.114 1_565 S
O156 Mg147 2.291 1_565 S
O156 C158 1.312 . S
O157 Mg142 2.031 1_565 S
O157 C158 1.208 . S
C158 O156 1.312 . S
C158 O157 1.208 . S
C159 O151 1.331 . S
C159 O154 1.244 . S
O160 Mg145 2.013 1_565 S
O160 C149 1.191 . S
O161 C140 1.331 . S
O161 Mg147 2.081 . S
O162 Mg143 1.986 . S
O162 C149 1.307 . S
O163 C141 1.264 . S
O163 Mg147 2.023 1_565 S
O164 C140 1.244 . S
O164 Mg148 1.942 . S
O165 C141 1.273 . S
O165 Mg148 1.955 1_565 S
O166 C139 1.312 . S
O166 Mg142 2.291 . S
O166 Mg145 2.114 . S
O167 C139 1.208 . S
O167 Mg147 2.031 . S
C168 O153 1.264 . S
C168 O155 1.273 . S
C169 O150 1.191 . S
C169 O152 1.307 . S
C170 O197 1.312 . S
C170 O198 1.208 . S
C171 O192 1.331 . S
C171 O195 1.244 . S
C172 O194 1.264 . S
C172 O196 1.273 . S
Mg173 O175 1.936 . S
Mg173 O182 2.081 . S
Mg173 O184 2.023 . S
Mg173 O188 2.031 . S
Mg173 O197 2.291 . S
Mg174 O175 1.963 . S
Mg174 O185 1.942 . S
Mg174 O186 1.955 . S
Mg174 O193 1.986 . S
O175 Mg173 1.936 . S
O175 Mg174 1.963 . S
O175 Mg176 1.915 . S
Mg176 O175 1.915 . S
Mg176 O177 1.915 . S
Mg176 O181 2.013 . S
Mg176 O187 2.114 . S
Mg176 O191 2.013 . S
Mg176 O197 2.114 . S
O177 Mg176 1.915 . S
O177 Mg178 1.936 . S
O177 Mg179 1.963 . S
Mg178 O177 1.936 . S
Mg178 O187 2.291 . S
Mg178 O192 2.081 . S
Mg178 O194 2.023 . S
Mg178 O198 2.031 . S
Mg179 O177 1.963 . S
Mg179 O183 1.986 . S
Mg179 O195 1.942 . S
Mg179 O196 1.955 . S
C180 O191 1.191 . S
C180 O193 1.307 . S
O181 Mg176 2.013 . S
O181 C200 1.191 . S
O182 Mg173 2.081 . S
O182 C190 1.331 . S
O183 Mg179 1.986 . S
O183 C200 1.307 . S
O184 Mg173 2.023 . S
O184 C199 1.264 . S
O185 Mg174 1.942 . S
O185 C190 1.244 . S
O186 Mg174 1.955 . S
O186 C199 1.273 . S
O187 Mg176 2.114 . S
O187 Mg178 2.291 . S
O187 C189 1.312 . S
O188 Mg173 2.031 . S
O188 C189 1.208 . S
C189 O187 1.312 . S
C189 O188 1.208 . S
C190 O182 1.331 . S
C190 O185 1.244 . S
O191 Mg176 2.013 . S
O191 C180 1.191 . S
O192 C171 1.331 . S
O192 Mg178 2.081 . S
O193 Mg174 1.986 . S
O193 C180 1.307 . S
O194 C172 1.264 . S
O194 Mg178 2.023 . S
O195 C171 1.244 . S
O195 Mg179 1.942 . S
O196 C172 1.273 . S
O196 Mg179 1.955 . S
O197 C170 1.312 . S
O197 Mg173 2.291 . S
O197 Mg176 2.114 . S
O198 C170 1.208 . S
O198 Mg178 2.031 . S
C199 O184 1.264 . S
C199 O186 1.273 . S
C200 O181 1.191 . S
C200 O183 1.307 . S
C201 C202 1.369 . S
C201 C203 1.419 . S
C201 H205 0.930 . S
C202 C201 1.369 . S
C202 C211 1.429 . S
C203 C201 1.419 . S
C203 C204 1.363 . S
C203 H206 0.929 . S
C204 C203 1.363 . S
C204 C210 1.428 . S
H205 C201 0.930 . S
H206 C203 0.929 . S
S207 N208 1.613 . S
S207 N209 1.610 . S
N208 S207 1.613 . S
N208 C211 1.350 . S
N209 S207 1.610 . S
N209 C210 1.351 . S
C210 C204 1.428 . S
C210 N209 1.351 . S
C210 C211 1.434 . S
C211 C202 1.429 . S
C211 N208 1.350 . S
C211 C210 1.434 . S
C212 C213 1.369 . S
C212 C214 1.419 . S
C212 H216 0.930 . S
C213 C212 1.369 . S
C213 C222 1.429 . S
C214 C212 1.419 . S
C214 C215 1.363 . S
C214 H217 0.929 . S
C215 C214 1.363 . S
C215 C221 1.428 . S
H216 C212 0.930 . S
H217 C214 0.929 . S
S218 N219 1.613 . S
S218 N220 1.610 . S
N219 S218 1.613 . S
N219 C222 1.350 . S
N220 S218 1.610 . S
N220 C221 1.351 . S
C221 C215 1.428 . S
C221 N220 1.351 . S
C221 C222 1.434 . S
C222 C213 1.429 . S
C222 N219 1.350 . S
C222 C221 1.434 . S
C223 C224 1.369 . S
C223 C225 1.419 . S
C223 H227 0.930 . S
C224 C223 1.369 . S
C224 C233 1.429 . S
C225 C223 1.419 . S
C225 C226 1.363 . S
C225 H228 0.929 . S
C226 C225 1.363 . S
C226 C232 1.428 . S
H227 C223 0.930 . S
H228 C225 0.929 . S
S229 N230 1.613 . S
S229 N231 1.610 . S
N230 S229 1.613 . S
N230 C233 1.350 . S
N231 S229 1.610 . S
N231 C232 1.351 . S
C232 C226 1.428 . S
C232 N231 1.351 . S
C232 C233 1.434 . S
C233 C224 1.429 . S
C233 N230 1.350 . S
C233 C232 1.434 . S
C234 C235 1.369 . S
C234 C236 1.419 . S
C234 H238 0.930 . S
C235 C234 1.369 . S
C235 C244 1.429 . S
C236 C234 1.419 . S
C236 C237 1.363 . S
C236 H239 0.929 . S
C237 C236 1.363 . S
C237 C243 1.428 . S
H238 C234 0.930 . S
H239 C236 0.929 . S
S240 N241 1.613 . S
S240 N242 1.610 . S
N241 S240 1.613 . S
N241 C244 1.350 . S
N242 S240 1.610 . S
N242 C243 1.351 . S
C243 C237 1.428 . S
C243 N242 1.351 . S
C243 C244 1.434 . S
C244 C235 1.429 . S
C244 N241 1.350 . S
C244 C243 1.434 . S
C245 C246 1.369 . S
C245 C247 1.419 . S
C245 H249 0.930 . S
C246 C245 1.369 . S
C246 C255 1.429 . S
C247 C245 1.419 . S
C247 C248 1.363 . S
C247 H250 0.929 . S
C248 C247 1.363 . S
C248 C254 1.428 . S
H249 C245 0.930 . S
H250 C247 0.929 . S
S251 N252 1.613 . S
S251 N253 1.610 . S
N252 S251 1.613 . S
N252 C255 1.350 . S
N253 S251 1.610 . S
N253 C254 1.351 . S
C254 C248 1.428 . S
C254 N253 1.351 . S
C254 C255 1.434 . S
C255 C246 1.429 . S
C255 N252 1.350 . S
C255 C254 1.434 . S
C256 C257 1.369 . S
C256 C258 1.419 . S
C256 H260 0.930 . S
C257 C256 1.369 . S
C257 C266 1.429 . S
C258 C256 1.419 . S
C258 C259 1.363 . S
C258 H261 0.929 . S
C259 C258 1.363 . S
C259 C265 1.428 . S
H260 C256 0.930 . S
H261 C258 0.929 . S
S262 N263 1.613 . S
S262 N264 1.610 . S
N263 S262 1.613 . S
N263 C266 1.350 . S
N264 S262 1.610 . S
N264 C265 1.351 . S
C265 C259 1.428 . S
C265 N264 1.351 . S
C265 C266 1.434 . S
C266 C257 1.429 . S
C266 N263 1.350 . S
C266 C265 1.434 . S
C267 C268 1.369 . S
C267 C269 1.419 . S
C267 H271 0.930 . S
C268 C267 1.369 . S
C268 C277 1.429 . S
C269 C267 1.419 . S
C269 C270 1.363 . S
C269 H272 0.929 . S
C270 C269 1.363 . S
C270 C276 1.428 . S
H271 C267 0.930 . S
H272 C269 0.929 . S
S273 N274 1.613 . S
S273 N275 1.610 . S
N274 S273 1.613 . S
N274 C277 1.350 . S
N275 S273 1.610 . S
N275 C276 1.351 . S
C276 C270 1.428 . S
C276 N275 1.351 . S
C276 C277 1.434 . S
C277 C268 1.429 . S
C277 N274 1.350 . S
C277 C276 1.434 . S
C278 C279 1.369 . S
C278 C280 1.419 . S
C278 H282 0.930 . S
C279 C278 1.369 . S
C279 C288 1.429 . S
C280 C278 1.419 . S
C280 C281 1.363 . S
C280 H283 0.929 . S
C281 C280 1.363 . S
C281 C287 1.428 . S
H282 C278 0.930 . S
H283 C280 0.929 . S
S284 N285 1.613 . S
S284 N286 1.610 . S
N285 S284 1.613 . S
N285 C288 1.350 . S
N286 S284 1.610 . S
N286 C287 1.351 . S
C287 C281 1.428 . S
C287 N286 1.351 . S
C287 C288 1.434 . S
C288 C279 1.429 . S
C288 N285 1.350 . S
C288 C287 1.434 . S
C289 C290 1.369 . S
C289 C291 1.419 . S
C289 H293 0.930 . S
C290 C289 1.369 . S
C290 C299 1.429 . S
C291 C289 1.419 . S
C291 C292 1.363 . S
C291 H294 0.929 . S
C292 C291 1.363 . S
C292 C298 1.428 . S
H293 C289 0.930 . S
H294 C291 0.929 . S
S295 N296 1.613 . S
S295 N297 1.610 1_554 S
N296 S295 1.613 . S
N296 C299 1.350 1_554 S
N297 S295 1.610 1_556 S
N297 C298 1.351 . S
C298 C292 1.428 . S
C298 N297 1.351 . S
C298 C299 1.434 . S
C299 C290 1.429 . S
C299 N296 1.350 1_556 S
C299 C298 1.434 . S
C300 C301 1.369 . S
C300 C302 1.419 1_554 S
C300 H304 0.930 . S
C301 C300 1.369 . S
C301 C310 1.429 . S
C302 C300 1.419 1_556 S
C302 C303 1.363 . S
C302 H305 0.929 . S
C303 C302 1.363 . S
C303 C309 1.428 . S
H304 C300 0.930 . S
H305 C302 0.929 . S
S306 N307 1.613 1_556 S
S306 N308 1.610 . S
N307 S306 1.613 1_554 S
N307 C310 1.350 . S
N308 S306 1.610 . S
N308 C309 1.351 . S
C309 C303 1.428 . S
C309 N308 1.351 . S
C309 C310 1.434 1_556 S
C310 C301 1.429 . S
C310 N307 1.350 . S
C310 C309 1.434 1_554 S
C311 C312 1.369 1_556 S
C311 C313 1.419 . S
C311 H315 0.930 . S
C312 C311 1.369 1_554 S
C312 C321 1.429 . S
C313 C311 1.419 . S
C313 C314 1.363 . S
C313 H316 0.929 . S
C314 C313 1.363 . S
C314 C320 1.428 1_556 S
H315 C311 0.930 . S
H316 C313 0.929 . S
S317 N318 1.613 . S
S317 N319 1.610 . S
N318 S317 1.613 . S
N318 C321 1.350 . S
N319 S317 1.610 . S
N319 C320 1.351 . S
C320 C314 1.428 1_554 S
C320 N319 1.351 . S
C320 C321 1.434 . S
C321 C312 1.429 . S
C321 N318 1.350 . S
C321 C320 1.434 . S
C322 C323 1.369 1_554 S
C322 C324 1.419 1_554 S
C322 H326 0.930 . S
C323 C322 1.369 1_556 S
C323 C332 1.429 . S
C324 C322 1.419 1_556 S
C324 C325 1.363 . S
C324 H327 0.929 1_556 S
C325 C324 1.363 . S
C325 C331 1.428 . S
H326 C322 0.930 . S
H327 C324 0.929 1_554 S
S328 N329 1.613 . S
S328 N330 1.610 . S
N329 S328 1.613 . S
N329 C332 1.350 . S
N330 S328 1.610 . S
N330 C331 1.351 . S
C331 C325 1.428 . S
C331 N330 1.351 . S
C331 C332 1.434 . S
C332 C323 1.429 . S
C332 N329 1.350 . S
C332 C331 1.434 . S
C333 C334 1.369 . S
C333 C335 1.419 . S
C333 H337 0.930 . S
C334 C333 1.369 . S
C334 C343 1.429 . S
C335 C333 1.419 . S
C335 C336 1.363 . S
C335 H338 0.929 . S
C336 C335 1.363 . S
C336 C342 1.428 . S
H337 C333 0.930 . S
H338 C335 0.929 . S
S339 N340 1.613 . S
S339 N341 1.610 . S
N340 S339 1.613 . S
N340 C343 1.350 . S
N341 S339 1.610 . S
N341 C342 1.351 . S
C342 C336 1.428 . S
C342 N341 1.351 . S
C342 C343 1.434 . S
C343 C334 1.429 . S
C343 N340 1.350 . S
C343 C342 1.434 . S
C344 C345 1.369 1_554 S
C344 C346 1.419 1_554 S
C344 H348 0.930 . S
C345 C344 1.369 1_556 S
C345 C354 1.429 . S
C346 C344 1.419 1_556 S
C346 C347 1.363 . S
C346 H349 0.929 . S
C347 C346 1.363 . S
C347 C353 1.428 . S
H348 C344 0.930 . S
H349 C346 0.929 . S
S350 N351 1.613 . S
S350 N352 1.610 . S
N351 S350 1.613 . S
N351 C354 1.350 . S
N352 S350 1.610 . S
N352 C353 1.351 . S
C353 C347 1.428 . S
C353 N352 1.351 . S
C353 C354 1.434 . S
C354 C345 1.429 . S
C354 N351 1.350 . S
C354 C353 1.434 . S
C355 C356 1.369 . S
C355 C357 1.419 1_554 S
C355 H359 0.930 . S
C356 C355 1.369 . S
C356 C365 1.429 1_554 S
C357 C355 1.419 1_556 S
C357 C358 1.363 . S
C357 H360 0.929 1_556 S
C358 C357 1.363 . S
C358 C364 1.428 . S
H359 C355 0.930 . S
H360 C357 0.929 1_554 S
S361 N362 1.613 . S
S361 N363 1.610 . S
N362 S361 1.613 . S
N362 C365 1.350 . S
N363 S361 1.610 . S
N363 C364 1.351 . S
C364 C358 1.428 . S
C364 N363 1.351 . S
C364 C365 1.434 . S
C365 C356 1.429 1_556 S
C365 N362 1.350 . S
C365 C364 1.434 . S
C366 C367 1.369 1_556 S
C366 C368 1.419 . S
C366 H370 0.930 . S
C367 C366 1.369 1_554 S
C367 C376 1.429 . S
C368 C366 1.419 . S
C368 C369 1.363 . S
C368 H371 0.929 . S
C369 C368 1.363 . S
C369 C375 1.428 1_556 S
H370 C366 0.930 . S
H371 C368 0.929 . S
S372 N373 1.613 . S
S372 N374 1.610 . S
N373 S372 1.613 . S
N373 C376 1.350 . S
N374 S372 1.610 . S
N374 C375 1.351 . S
C375 C369 1.428 1_554 S
C375 N374 1.351 . S
C375 C376 1.434 . S
C376 C367 1.429 . S
C376 N373 1.350 . S
C376 C375 1.434 . S
C377 C378 1.369 . S
C377 C379 1.419 . S
C377 H381 0.930 . S
C378 C377 1.369 . S
C378 C387 1.429 . S
C379 C377 1.419 . S
C379 C380 1.363 . S
C379 H382 0.929 . S
C380 C379 1.363 . S
C380 C386 1.428 . S
H381 C377 0.930 . S
H382 C379 0.929 . S
S383 N384 1.613 . S
S383 N385 1.610 1_554 S
N384 S383 1.613 . S
N384 C387 1.350 1_554 S
N385 S383 1.610 1_556 S
N385 C386 1.351 . S
C386 C380 1.428 . S
C386 N385 1.351 . S
C386 C387 1.434 . S
C387 C378 1.429 . S
C387 N384 1.350 1_556 S
C387 C386 1.434 . S
C388 C389 1.369 . S
C388 C390 1.419 . S
C388 H392 0.930 . S
C389 C388 1.369 . S
C389 C398 1.429 . S
C390 C388 1.419 . S
C390 C391 1.363 . S
C390 H393 0.929 . S
C391 C390 1.363 . S
C391 C397 1.428 . S
H392 C388 0.930 . S
H393 C390 0.929 . S
S394 N395 1.613 . S
S394 N396 1.610 . S
N395 S394 1.613 . S
N395 C398 1.350 . S
N396 S394 1.610 . S
N396 C397 1.351 . S
C397 C391 1.428 . S
C397 N396 1.351 . S
C397 C398 1.434 . S
C398 C389 1.429 . S
C398 N395 1.350 . S
C398 C397 1.434 . S
C399 C400 1.369 . S
C399 C401 1.419 . S
C399 H403 0.930 . S
C400 C399 1.369 . S
C400 C409 1.429 . S
C401 C399 1.419 . S
C401 C402 1.363 . S
C401 H404 0.929 . S
C402 C401 1.363 . S
C402 C408 1.428 . S
H403 C399 0.930 . S
H404 C401 0.929 . S
S405 N406 1.613 . S
S405 N407 1.610 . S
N406 S405 1.613 . S
N406 C409 1.350 . S
N407 S405 1.610 . S
N407 C408 1.351 . S
C408 C402 1.428 . S
C408 N407 1.351 . S
C408 C409 1.434 . S
C409 C400 1.429 . S
C409 N406 1.350 . S
C409 C408 1.434 . S
C410 C411 1.369 . S
C410 C412 1.419 . S
C410 H414 0.930 . S
C411 C410 1.369 . S
C411 C420 1.429 . S
C412 C410 1.419 . S
C412 C413 1.363 . S
C412 H415 0.929 . S
C413 C412 1.363 . S
C413 C419 1.428 . S
H414 C410 0.930 . S
H415 C412 0.929 . S
S416 N417 1.613 . S
S416 N418 1.610 . S
N417 S416 1.613 . S
N417 C420 1.350 . S
N418 S416 1.610 . S
N418 C419 1.351 . S
C419 C413 1.428 . S
C419 N418 1.351 . S
C419 C420 1.434 . S
C420 C411 1.429 . S
C420 N417 1.350 . S
C420 C419 1.434 . S
C421 C422 1.369 . S
C421 C423 1.419 . S
C421 H425 0.930 . S
C422 C421 1.369 . S
C422 C431 1.429 . S
C423 C421 1.419 . S
C423 C424 1.363 . S
C423 H426 0.929 . S
C424 C423 1.363 . S
C424 C430 1.428 . S
H425 C421 0.930 . S
H426 C423 0.929 . S
S427 N428 1.613 . S
S427 N429 1.610 . S
N428 S427 1.613 . S
N428 C431 1.350 . S
N429 S427 1.610 . S
N429 C430 1.351 . S
C430 C424 1.428 . S
C430 N429 1.351 . S
C430 C431 1.434 . S
C431 C422 1.429 . S
C431 N428 1.350 . S
C431 C430 1.434 . S
C432 C433 1.369 . S
C432 C434 1.419 . S
C432 H436 0.930 . S
C433 C432 1.369 . S
C433 C442 1.429 . S
C434 C432 1.419 . S
C434 C435 1.363 . S
C434 H437 0.929 . S
C435 C434 1.363 . S
C435 C441 1.428 . S
H436 C432 0.930 . S
H437 C434 0.929 . S
S438 N439 1.613 . S
S438 N440 1.610 . S
N439 S438 1.613 . S
N439 C442 1.350 . S
N440 S438 1.610 . S
N440 C441 1.351 . S
C441 C435 1.428 . S
C441 N440 1.351 . S
C441 C442 1.434 . S
C442 C433 1.429 . S
C442 N439 1.350 . S
C442 C441 1.434 . S
C443 C444 1.369 . S
C443 C445 1.419 . S
C443 H447 0.930 . S
C444 C443 1.369 . S
C444 C453 1.429 . S
C445 C443 1.419 . S
C445 C446 1.363 . S
C445 H448 0.929 . S
C446 C445 1.363 . S
C446 C452 1.428 . S
H447 C443 0.930 . S
H448 C445 0.929 . S
S449 N450 1.613 . S
S449 N451 1.610 . S
N450 S449 1.613 . S
N450 C453 1.350 . S
N451 S449 1.610 . S
N451 C452 1.351 . S
C452 C446 1.428 . S
C452 N451 1.351 . S
C452 C453 1.434 . S
C453 C444 1.429 . S
C453 N450 1.350 . S
C453 C452 1.434 . S
C454 C455 1.369 . S
C454 C456 1.419 . S
C454 H458 0.930 . S
C455 C454 1.369 . S
C455 C464 1.429 . S
C456 C454 1.419 . S
C456 C457 1.363 . S
C456 H459 0.929 . S
C457 C456 1.363 . S
C457 C463 1.428 . S
H458 C454 0.930 . S
H459 C456 0.929 . S
S460 N461 1.613 . S
S460 N462 1.610 . S
N461 S460 1.613 . S
N461 C464 1.350 . S
N462 S460 1.610 . S
N462 C463 1.351 . S
C463 C457 1.428 . S
C463 N462 1.351 . S
C463 C464 1.434 . S
C464 C455 1.429 . S
C464 N461 1.350 . S
C464 C463 1.434 . S
C202 C16 1.748 . S
C204 C108 1.763 . S
C213 C26 1.476 . S
C215 C140 1.518 . S
C226 C199 1.795 . S
C224 C52 1.800 . S
C237 C128 1.405 . S
C235 C62 1.402 . S
C246 C80 1.715 . S
C248 C158 1.656 . S
C259 C180 1.401 . S
C257 C98 1.332 . S
C270 C149 1.788 . S
C268 C43 1.712 . S
C279 C68 1.415 . S
C281 C189 1.408 . S
C292 C138 1.677 . S
C290 C86 1.672 1_556 S
C301 C104 1.485 . S
C303 C168 1.470 . S
C312 C7 1.725 . S
C314 C171 1.728 . S
C325 C110 1.588 . S
C323 C32 1.558 1_556 S
C336 C118 1.699 . S
C334 C61 1.680 . S
C347 C159 1.465 . S
C345 C79 1.452 1_556 S
C358 C172 1.789 . S
C356 C97 1.820 . S
C369 C109 1.388 . S
C367 C14 1.407 . S
C380 C169 1.591 . S
C378 C25 1.610 1_556 S
C389 C50 1.314 . S
C391 C170 1.343 . S
C402 C139 1.686 . S
C400 C106 1.698 . S
C413 C200 1.346 . S
C411 C8 1.311 . S
C424 C127 1.578 . S
C422 C34 1.642 . S
C435 C141 1.463 . S
C433 C44 1.484 . S
C444 C70 1.728 . S
C446 C190 1.693 . S
C455 C88 1.545 . S
C457 C137 1.556 . S
