# Generated by pormake.
# Topology tsx, (6,3)-cn, num edge types: 1
# Building blocks:
#     Node 0, Type 0, BuildingBlock: CIFDUS_clean_sbu_1, # of connection points: 6
#     Node 1, Type 0, BuildingBlock: CIFDUS_clean_sbu_1, # of connection points: 6
#     Node 2, Type 1, BuildingBlock: BETDIP_clean_linker_0, # of connection points: 3
#     Node 3, Type 1, BuildingBlock: BETDIP_clean_linker_0, # of connection points: 3
#     Node 4, Type 1, BuildingBlock: BETDIP_clean_linker_0, # of connection points: 3
#     Node 5, Type 1, BuildingBlock: BETDIP_clean_linker_0, # of connection points: 3
#     Edge 6, Type (0, 1), BuildingBlock: FUNLAD_clean_linker_1, # of connection points: 2
#     Edge 7, Type (0, 1), BuildingBlock: FUNLAD_clean_linker_1, # of connection points: 2
#     Edge 8, Type (0, 1), BuildingBlock: FUNLAD_clean_linker_1, # of connection points: 2
#     Edge 9, Type (0, 1), BuildingBlock: FUNLAD_clean_linker_1, # of connection points: 2
#     Edge 10, Type (0, 1), BuildingBlock: FUNLAD_clean_linker_1, # of connection points: 2
#     Edge 11, Type (0, 1), BuildingBlock: FUNLAD_clean_linker_1, # of connection points: 2
#     Edge 12, Type (0, 1), BuildingBlock: FUNLAD_clean_linker_1, # of connection points: 2
#     Edge 13, Type (0, 1), BuildingBlock: FUNLAD_clean_linker_1, # of connection points: 2
#     Edge 14, Type (0, 1), BuildingBlock: FUNLAD_clean_linker_1, # of connection points: 2
#     Edge 15, Type (0, 1), BuildingBlock: FUNLAD_clean_linker_1, # of connection points: 2
#     Edge 16, Type (0, 1), BuildingBlock: FUNLAD_clean_linker_1, # of connection points: 2
#     Edge 17, Type (0, 1), BuildingBlock: FUNLAD_clean_linker_1, # of connection points: 2
# Relax obj value: 0.095
# Max RMSD: 0.148
# Mean RMSD: 0.111
data_MOF--net-tsx--node1-CIFDUS_clean_sbu_1--node2-BETDIP_clean_linker_0--edge1-FUNLAD_clean_linker_1
_symmetry_space_group_name_H-M    P1
_symmetry_Int_Tables_number       1
_symmetry_cell_setting            triclinic
loop_
_symmetry_equiv_pos_as_xyz
'x, y, z'
_cell_length_a     18.847264
_cell_length_b     23.589588
_cell_length_c     35.717836
_cell_angle_alpha  97.374123
_cell_angle_beta   103.40253
_cell_angle_gamma 92.021752
loop_
_atom_site_label
_atom_site_type_symbol
_atom_site_fract_x
_atom_site_fract_y
_atom_site_fract_z
_atom_type_partial_charge
O0 O 0.99476 0.08905 0.99325 0.0
Mn1 Mn 0.05132 0.01362 0.99353 0.0
O2 O 0.8803 0.06331 0.95685 0.0
Mn3 Mn 0.89738 0.99007 0.93684 0.0
O4 O 0.10589 0.93774 0.99258 0.0
O5 O 0.14692 0.06078 0.01094 0.0
Mn6 Mn 0.20632 0.03171 0.04851 0.0
O7 O 0.0459 0.01171 0.05151 0.0
O8 O 0.22142 0.95833 0.02774 0.0
O9 O 0.05756 0.01591 0.93587 0.0
O10 O 0.9466 0.98533 0.89756 0.0
O11 O 0.25757 0.09454 0.03918 0.0
O12 O 0.15946 0.03601 0.08883 0.0
C13 C 0.90887 0.92411 0.97365 0.0
C14 C 0.92825 0.10023 0.97873 0.0
C15 C 0.17126 0.92349 0.00563 0.0
C16 C 0.19848 0.09939 0.0132 0.0
C17 C 0.09146 0.02346 0.08491 0.0
C18 C 1.01374 1.00111 0.90229 0.0
O19 O 0.95696 0.96531 0.97592 0.0
O20 O 0.85023 0.9253 0.94653 0.0
O21 O 0.53258 0.60991 0.51758 0.0
Mn22 Mn 0.57058 0.52709 0.51114 0.0
O23 O 0.4151 0.60371 0.48399 0.0
Mn24 Mn 0.41965 0.53454 0.45413 0.0
O25 O 0.60952 0.44493 0.50329 0.0
O26 O 0.67172 0.56095 0.53573 0.0
Mn27 Mn 0.71999 0.519 0.56924 0.0
O28 O 0.55402 0.51646 0.56583 0.0
O29 O 0.7245 0.44916 0.54023 0.0
O30 O 0.58636 0.53838 0.45673 0.0
O31 O 0.47387 0.53804 0.41708 0.0
O32 O 0.78198 0.58209 0.56942 0.0
O33 O 0.66563 0.51802 0.60633 0.0
C34 C 0.41509 0.45505 0.4777 0.0
C35 C 0.47077 0.63193 0.50692 0.0
C36 C 0.67089 0.42266 0.51468 0.0
C37 C 0.72732 0.59734 0.54433 0.0
C38 C 0.59591 0.51555 0.59973 0.0
C39 C 0.54363 0.54079 0.42333 0.0
O40 O 0.46976 0.49239 0.48654 0.0
O41 O 0.35928 0.47015 0.45329 0.0
H42 H 0.13433 1.00186 0.48767 0.0
H43 H 0.04448 0.06992 0.3822 0.0
H44 H 0.22059 0.95782 0.38709 0.0
H45 H 0.939 0.06217 0.40682 0.0
C46 C 0.96395 0.08304 0.43613 0.0
C47 C 0.134 0.0055 0.45771 0.0
C48 C 0.18441 0.97682 0.44018 0.0
C49 C 0.08266 0.03831 0.43679 0.0
C50 C 0.08196 0.04253 0.39779 0.0
C51 C 0.13116 0.01311 0.37944 0.0
C52 C 0.18319 0.98129 0.40115 0.0
N53 N 0.0337 0.06801 0.45587 0.0
H54 H 0.03476 0.00209 0.52103 0.0
H55 H 0.15433 0.099 0.62901 0.0
H56 H 1.00368 0.95783 0.62919 0.0
H57 H 0.11751 0.17197 0.58612 0.0
C58 C 0.14469 0.15139 0.56481 0.0
C59 C 0.04737 0.01004 0.55248 0.0
C60 C 1.01191 0.97611 0.573 0.0
C61 C 0.09696 0.05565 0.57253 0.0
C62 C 0.114 0.06509 0.61341 0.0
C63 C 0.08022 0.0308 0.63438 0.0
C64 C 1.0287 0.9864 0.61381 0.0
N65 N 0.12982 0.09181 0.55154 0.0
H66 H 0.65189 0.49914 1.00035 0.0
H67 H 0.53709 0.55805 0.89563 0.0
H68 H 0.71432 0.44917 0.89297 0.0
H69 H 0.43947 0.54482 0.92957 0.0
C70 C 0.47039 0.57269 0.95525 0.0
C71 C 0.64402 0.49996 0.96944 0.0
C72 C 0.68858 0.46882 0.94898 0.0
C73 C 0.58788 0.53065 0.95006 0.0
C74 C 0.57783 0.53175 0.90995 0.0
C75 C 0.62295 0.50194 0.88909 0.0
C76 C 0.67838 0.47093 0.90889 0.0
N77 N 0.54421 0.56247 0.97154 0.0
H78 H 0.492 0.4914 0.02137 0.0
H79 H 0.61583 0.56776 0.1347 0.0
H80 H 0.41313 0.47155 0.123 0.0
H81 H 0.66545 0.62544 0.10557 0.0
C82 C 0.66218 0.60611 0.07596 0.0
C83 C 0.49851 0.49983 0.05256 0.0
C84 C 0.44537 0.47744 0.06958 0.0
C85 C 0.55906 0.53461 0.07579 0.0
C86 C 0.56832 0.54332 0.11644 0.0
C87 C 0.51614 0.52038 0.13368 0.0
C88 C 0.45387 0.48923 0.10987 0.0
N89 N 0.60936 0.56025 0.05759 0.0
H90 H 0.23631 0.14568 0.97251 0.0
C91 C 0.19492 0.1458 0.98925 0.0
H92 H 0.13721 0.19729 0.02207 0.0
H93 H 0.41924 0.36032 0.09339 0.0
H94 H 0.40337 0.31459 0.14787 0.0
H95 H 0.3057 0.2385 0.13965 0.0
H96 H 0.22434 0.20744 0.07696 0.0
C97 C 0.17476 0.19672 0.00311 0.0
C98 C 0.22593 0.24853 0.00827 0.0
C99 C 0.27115 0.26806 0.04583 0.0
C100 C 0.32602 0.31323 0.0509 0.0
C101 C 0.37411 0.32851 0.08811 0.0
C102 C 0.36629 0.30202 0.11969 0.0
C103 C 0.31147 0.25914 0.11504 0.0
C104 C 0.26477 0.24188 0.07866 0.0
H105 H 0.33056 0.44412 0.05649 0.0
C106 C 0.38131 0.43945 0.04715 0.0
H107 H 0.44011 0.38263 0.0171 0.0
H108 H 0.14942 0.22153 0.93273 0.0
H109 H 0.16657 0.2673 0.87794 0.0
H110 H 0.25866 0.34799 0.88725 0.0
H111 H 0.33536 0.38301 0.95141 0.0
C112 C 0.38871 0.39043 0.02508 0.0
C113 C 0.33328 0.34112 0.01887 0.0
C114 C 0.28841 0.32155 0.98141 0.0
C115 C 0.23495 0.27502 0.97604 0.0
C116 C 0.1913 0.2562 0.93827 0.0
C117 C 0.20034 0.28226 0.90666 0.0
C118 C 0.25219 0.32778 0.91192 0.0
C119 C 0.29578 0.34748 0.94882 0.0
H120 H 0.14895 0.83602 0.97241 0.0
C121 C 0.18986 0.8646 0.99354 0.0
H122 H 0.29876 0.87552 0.02728 0.0
H123 H 0.2779 0.59386 0.99128 0.0
H124 H 0.18887 0.59581 0.03083 0.0
H125 H 0.14129 0.68691 0.05311 0.0
H126 H 0.18222 0.7767 0.036 0.0
C127 C 0.25687 0.8467 0.00699 0.0
C128 C 0.2802 0.79075 0.9914 0.0
C129 C 0.25545 0.73876 0.00169 0.0
C130 C 0.28331 0.6862 0.98909 0.0
C131 C 0.25836 0.63491 1.00003 0.0
C132 C 0.2074 0.63544 0.02276 0.0
C133 C 0.18058 0.68677 0.03529 0.0
C134 C 0.20436 0.73799 0.02514 0.0
H135 H 0.47142 0.64927 0.99502 0.0
C136 C 0.43861 0.61975 0.97082 0.0
H137 H 0.33231 0.60092 0.93111 0.0
H138 H 0.33649 0.88242 0.9651 0.0
H139 H 0.42287 0.8799 0.92416 0.0
H140 H 0.46901 0.7885 0.90124 0.0
H141 H 0.42978 0.69923 0.91949 0.0
C142 C 0.36664 0.63126 0.95425 0.0
C143 C 0.33612 0.68588 0.96657 0.0
C144 C 0.35898 0.73759 0.9552 0.0
C145 C 0.33156 0.79013 0.96796 0.0
C146 C 0.35575 0.84126 0.9564 0.0
C147 C 0.40509 0.84043 0.93274 0.0
C148 C 0.43104 0.78899 0.91983 0.0
C149 C 0.40833 0.73805 0.93073 0.0
H150 H 0.93032 0.89303 0.03067 0.0
C151 C 0.9155 0.87977 0.99944 0.0
H152 H 0.8733 0.81499 0.95278 0.0
H153 H 0.88308 0.67997 0.10812 0.0
H154 H 1.01417 0.70245 0.12642 0.0
H155 H 0.07338 0.76306 0.08948 0.0
H156 H 1.00186 0.80151 0.03396 0.0
C157 C 0.88685 0.82642 0.98423 0.0
C158 C 0.85317 0.7886 0.00665 0.0
C159 C 0.89596 0.76552 0.03852 0.0
C160 C 0.86172 0.73006 0.05957 0.0
C161 C 0.90592 0.70751 0.09127 0.0
C162 C 0.98135 0.71985 0.10199 0.0
C163 C 1.0147 0.75398 0.0812 0.0
C164 C 0.97289 0.77622 0.04959 0.0
H165 H 0.69928 0.6153 0.02437 0.0
C166 C 0.70482 0.63176 0.05483 0.0
H167 H 0.75697 0.69677 0.10242 0.0
H168 H 0.7539 0.82605 0.94678 0.0
H169 H 0.62311 0.80629 0.92996 0.0
H170 H 0.56367 0.74894 0.96859 0.0
H171 H 0.63444 0.71086 0.0236 0.0
C172 C 0.74927 0.68179 0.07157 0.0
C173 C 0.78485 0.71729 0.0485 0.0
C174 C 0.74184 0.74136 0.01701 0.0
C175 C 0.77617 0.77599 0.9956 0.0
C176 C 0.73162 0.79901 0.96407 0.0
C177 C 0.65601 0.78841 0.95415 0.0
C178 C 0.62253 0.75608 0.97578 0.0
C179 C 0.6644 0.73349 0.00711 0.0
H180 H 0.84527 0.16286 0.97412 0.0
C181 C 0.90333 0.15838 0.98541 0.0
H182 H 1.00561 0.20365 0.0102 0.0
H183 H 0.87086 0.40981 0.92272 0.0
H184 H 0.97808 0.39217 0.8972 0.0
H185 H 0.05739 0.31547 0.91765 0.0
H186 H 0.03099 0.25617 0.96424 0.0
C187 C 0.94696 0.20599 0.00056 0.0
C188 C 0.9146 0.26272 0.99799 0.0
C189 C 0.93233 0.29793 0.97176 0.0
C190 C 0.88588 0.34168 0.95951 0.0
C191 C 0.90376 0.37546 0.93254 0.0
C192 C 0.96522 0.36593 0.9178 0.0
C193 C 1.01001 0.32274 0.92939 0.0
C194 C 0.99405 0.28892 0.95602 0.0
H195 H 0.76941 0.44865 0.00082 0.0
C196 C 0.74571 0.43472 0.97009 0.0
H197 H 0.74085 0.37014 0.92262 0.0
H198 H 0.87889 0.21436 0.05692 0.0
H199 H 0.77295 0.2326 0.08374 0.0
H200 H 0.68684 0.30334 0.05927 0.0
H201 H 0.70655 0.35693 0.00874 0.0
C202 C 0.76514 0.38536 0.95307 0.0
C203 C 0.82183 0.35003 0.97342 0.0
C204 C 0.80831 0.31866 0.0027 0.0
C205 C 0.85604 0.27602 0.01567 0.0
C206 C 0.84268 0.24587 0.04538 0.0
C207 C 0.78246 0.25612 0.06106 0.0
C208 C 0.73412 0.29608 0.04736 0.0
C209 C 0.74638 0.32688 0.0184 0.0
H210 H 0.67661 0.67241 0.51982 0.0
C211 C 0.72796 0.65426 0.53138 0.0
H212 H 0.84244 0.6672 0.55099 0.0
H213 H 0.85834 0.90175 0.48196 0.0
H214 H 0.83049 0.84384 0.41821 0.0
H215 H 0.78726 0.74196 0.41007 0.0
H216 H 0.77086 0.69746 0.46566 0.0
C217 C 0.79168 0.68594 0.53902 0.0
C218 C 0.7968 0.74914 0.54066 0.0
C219 C 0.80622 0.77429 0.50814 0.0
C220 C 0.83265 0.8327 0.51303 0.0
C221 C 0.8405 0.85712 0.47995 0.0
C222 C 0.82423 0.82447 0.44324 0.0
C223 C 0.79983 0.76709 0.43865 0.0
C224 C 0.79091 0.74201 0.47068 0.0
H225 H 0.98182 0.89212 0.53636 0.0
C226 C 0.96062 0.92715 0.55246 0.0
H227 H 0.87293 0.95782 0.57426 0.0
H228 H 0.77064 0.71633 0.60714 0.0
H229 H 0.79361 0.77442 0.67042 0.0
H230 H 0.84344 0.8747 0.67983 0.0
H231 H 0.86999 0.9175 0.62631 0.0
C232 C 0.89274 0.92204 0.55814 0.0
C233 C 0.85103 0.8652 0.55067 0.0
C234 C 0.83456 0.84143 0.5825 0.0
C235 C 0.80702 0.78338 0.57733 0.0
C236 C 0.79247 0.76006 0.60964 0.0
C237 C 0.80519 0.79295 0.64609 0.0
C238 C 0.83311 0.8494 0.65137 0.0
C239 C 0.84798 0.87351 0.62016 0.0
H240 H 0.64439 0.34705 0.46868 0.0
C241 C 0.68254 0.36535 0.49564 0.0
H242 H 0.78155 0.3573 0.53615 0.0
H243 H 0.74498 0.093 0.44477 0.0
H244 H 0.6335 0.08104 0.4668 0.0
H245 H 0.58275 0.16376 0.49871 0.0
H246 H 0.64287 0.25897 0.50862 0.0
C247 C 0.74291 0.33835 0.50952 0.0
C248 C 0.76755 0.2888 0.48675 0.0
C249 C 0.73147 0.23352 0.48111 0.0
C250 C 0.76121 0.18568 0.46306 0.0
C251 C 0.72468 0.13079 0.4582 0.0
C252 C 0.66075 0.12332 0.47079 0.0
C253 C 0.63215 0.1699 0.48874 0.0
C254 C 0.66706 0.22441 0.4941 0.0
H255 H 0.95524 0.14773 0.48255 0.0
C256 C 0.92834 0.12563 0.45387 0.0
H257 H 0.83172 0.11923 0.40661 0.0
H258 H 0.84744 0.38968 0.49057 0.0
H259 H 0.95696 0.40189 0.4671 0.0
H260 H 1.00713 0.31924 0.43481 0.0
H261 H 0.94832 0.22398 0.42603 0.0
C262 C 0.86075 0.14266 0.4345 0.0
C263 C 0.82735 0.19315 0.45121 0.0
C264 C 0.86161 0.24884 0.4553 0.0
C265 C 0.83205 0.29657 0.47339 0.0
C266 C 0.86776 0.35171 0.47737 0.0
C267 C 0.93052 0.35945 0.46382 0.0
C268 C 0.95879 0.31293 0.44568 0.0
C269 C 0.92476 0.2583 0.44116 0.0
H270 H 0.46701 0.38 0.50141 0.0
C271 C 0.41532 0.39853 0.49125 0.0
H272 H 0.30071 0.38933 0.47756 0.0
H273 H 0.19015 0.14293 0.45036 0.0
H274 H 0.15812 0.1668 0.38463 0.0
H275 H 0.21168 0.25504 0.36873 0.0
H276 H 0.29716 0.32014 0.41862 0.0
C277 C 0.35116 0.36957 0.48873 0.0
C278 C 0.34181 0.30907 0.49574 0.0
C279 C 0.29449 0.27019 0.46589 0.0
C280 C 0.26449 0.21886 0.47476 0.0
C281 C 0.21457 0.18233 0.44497 0.0
C282 C 0.19592 0.19546 0.40714 0.0
C283 C 0.22606 0.24517 0.39822 0.0
C284 C 0.27467 0.28229 0.42713 0.0
H285 H 0.19947 0.23071 0.56313 0.0
C286 C 0.19323 0.18534 0.55173 0.0
H287 H 0.22866 0.11992 0.51283 0.0
H288 H 0.44063 0.36856 0.55955 0.0
H289 H 0.48747 0.33479 0.62097 0.0
H290 H 0.44068 0.24256 0.63437 0.0
H291 H 0.34752 0.18238 0.58528 0.0
C292 C 0.23479 0.16462 0.52576 0.0
C293 C 0.2827 0.20627 0.51328 0.0
C294 C 0.33909 0.23989 0.54135 0.0
C295 C 0.36761 0.29232 0.53307 0.0
C296 C 0.41928 0.32713 0.56307 0.0
C297 C 0.44598 0.30864 0.5989 0.0
C298 C 0.41979 0.25658 0.60644 0.0
C299 C 0.36634 0.22267 0.5782 0.0
H300 H 0.51662 0.72172 0.52654 0.0
C301 C 0.46624 0.69463 0.51607 0.0
H302 H 0.35182 0.69141 0.49408 0.0
H303 H 0.31696 0.95621 0.53544 0.0
H304 H 0.3236 0.93473 0.60091 0.0
H305 H 0.36334 0.84158 0.61958 0.0
H306 H 0.39801 0.76964 0.57298 0.0
C307 C 0.40217 0.71846 0.50481 0.0
C308 C 0.39691 0.77908 0.49771 0.0
C309 C 0.37635 0.82026 0.52494 0.0
C310 C 0.35128 0.87324 0.51376 0.0
C311 C 0.33344 0.91441 0.54199 0.0
C312 C 0.33768 0.9028 0.57971 0.0
C313 C 0.36017 0.85036 0.59024 0.0
C314 C 0.37951 0.80941 0.56328 0.0
H315 H 0.20793 0.90961 0.47805 0.0
C316 C 0.23226 0.93716 0.46156 0.0
H317 H 0.32692 0.96084 0.44409 0.0
H318 H 0.44503 0.71356 0.44077 0.0
H319 H 0.44338 0.73613 0.37631 0.0
H320 H 0.39595 0.82628 0.35591 0.0
H321 H 0.35045 0.89436 0.39975 0.0
C322 C 0.30247 0.93239 0.45993 0.0
C323 C 0.34418 0.88385 0.47483 0.0
C324 C 0.37189 0.84499 0.44879 0.0
C325 C 0.39853 0.79265 0.46036 0.0
C326 C 0.42393 0.7538 0.43349 0.0
C327 C 0.42336 0.76622 0.39636 0.0
C328 C 0.39676 0.81699 0.3849 0.0
C329 C 0.37088 0.85588 0.41054 0.0
H330 H 1.0075 0.00962 0.11812 0.0
C331 C 0.0649 0.02125 0.12067 0.0
H332 H 0.16833 0.0454 0.15883 0.0
H333 H 0.08286 0.13338 0.31213 0.0
H334 H 0.1037 0.22413 0.28985 0.0
H335 H 0.11674 0.22723 0.22294 0.0
H336 H 0.10923 0.13956 0.17795 0.0
C337 C 0.11132 0.03219 0.15607 0.0
C338 C 0.08873 0.03025 0.19315 0.0
C339 C 0.09196 0.08186 0.21887 0.0
C340 C 0.08395 0.08015 0.25733 0.0
C341 C 0.08852 0.13231 0.28259 0.0
C342 C 0.10038 0.18468 0.27016 0.0
C343 C 0.1078 0.18641 0.2325 0.0
C344 C 0.10367 0.13578 0.20703 0.0
H345 H 0.17937 0.00501 0.32815 0.0
C346 C 0.1299 0.01477 0.33778 0.0
H347 H 1.01874 0.03317 0.31895 0.0
H348 H 0.07768 0.92304 0.15113 0.0
H349 H 0.05297 0.83289 0.17296 0.0
H350 H 0.03592 0.8304 0.23919 0.0
H351 H 0.04404 0.91827 0.28411 0.0
C352 C 0.07016 0.02513 0.31117 0.0
C353 C 0.07291 0.02683 0.27005 0.0
C354 C 0.066 0.97535 0.24382 0.0
C355 C 0.07446 0.97695 0.20536 0.0
C356 C 0.07035 0.92461 0.18036 0.0
C357 C 0.05638 0.87245 0.19257 0.0
C358 C 0.04686 0.87104 0.22988 0.0
C359 C 0.05173 0.92173 0.25537 0.0
H360 H 1.00359 0.98015 0.83986 0.0
C361 C 0.03948 0.0021 0.86659 0.0
H362 H 0.13474 0.05759 0.88992 0.0
H363 H 0.12084 0.92776 0.70849 0.0
H364 H 0.16567 0.84685 0.74076 0.0
H365 H 0.18821 0.85229 0.81208 0.0
H366 H 0.16566 0.93881 0.85156 0.0
C367 C 0.09989 0.03199 0.86439 0.0
C368 C 0.11213 0.03581 0.82511 0.0
C369 C 0.12803 0.98606 0.80268 0.0
C370 C 0.11565 0.9832 0.76171 0.0
C371 C 0.12934 0.93214 0.73978 0.0
C372 C 0.15521 0.8855 0.75794 0.0
C373 C 0.16785 0.88854 0.7981 0.0
C374 C 0.15441 0.93815 0.82037 0.0
H375 H 0.1552 0.06423 0.69126 0.0
C376 C 0.1029 0.04085 0.6776 0.0
H377 H 1.00835 1.00116 0.68838 0.0
H378 H 0.09056 0.14099 0.86094 0.0
H379 H 0.05068 0.2236 0.82922 0.0
H380 H 0.02906 0.21891 0.75802 0.0
H381 H 0.04634 0.13151 0.71797 0.0
C382 C 0.06178 0.0232 0.70052 0.0
C383 C 0.08855 0.03053 0.74346 0.0
C384 C 0.08017 0.08244 0.76634 0.0
C385 C 0.09255 0.08517 0.80738 0.0
C386 C 0.08153 0.13677 0.82962 0.0
C387 C 0.05899 0.18445 0.81181 0.0
C388 C 0.04675 0.18178 0.7717 0.0
C389 C 0.0569 0.13142 0.74905 0.0
H390 H 0.50562 0.52454 0.63003 0.0
C391 C 0.5625 0.51489 0.6333 0.0
H392 H 0.66017 0.49742 0.67136 0.0
H393 H 0.63192 0.61556 0.82988 0.0
H394 H 0.71337 0.68558 0.8137 0.0
H395 H 0.73315 0.67919 0.7474 0.0
H396 H 0.67125 0.60299 0.69688 0.0
C397 C 0.60291 0.50595 0.66811 0.0
C398 C 0.57777 0.51621 0.70475 0.0
C399 C 0.61415 0.56112 0.73389 0.0
C400 C 0.60343 0.5645 0.77214 0.0
C401 C 0.63969 0.61021 0.80058 0.0
C402 C 0.68614 0.65091 0.79161 0.0
C403 C 0.69724 0.64733 0.75429 0.0
C404 C 0.66171 0.60316 0.72563 0.0
H405 H 0.66428 0.49431 0.83575 0.0
C406 C 0.61693 0.50492 0.84719 0.0
H407 H 0.50643 0.52646 0.83172 0.0
H408 H 0.4912 0.42994 0.65444 0.0
H409 H 0.40391 0.36387 0.66989 0.0
H410 H 0.38608 0.36956 0.73644 0.0
H411 H 0.45492 0.44164 0.78799 0.0
C412 C 0.55679 0.51929 0.82259 0.0
C413 C 0.55719 0.52243 0.78131 0.0
C414 C 0.51532 0.48098 0.75139 0.0
C415 C 0.52572 0.47771 0.71296 0.0
C416 C 0.48521 0.43452 0.68398 0.0
C417 C 0.43505 0.39629 0.69249 0.0
C418 C 0.4249 0.39953 0.72998 0.0
C419 C 0.4647 0.4411 0.75927 0.0
H420 H 0.63475 0.53984 0.39366 0.0
C421 C 0.57652 0.54476 0.39006 0.0
H422 H 0.47694 0.55763 0.35125 0.0
H423 H 0.6189 0.64987 0.22615 0.0
H424 H 0.62267 0.74135 0.26696 0.0
H425 H 0.60034 0.74549 0.33267 0.0
H426 H 0.5741 0.65818 0.35799 0.0
C427 C 0.53499 0.55172 0.35519 0.0
C428 C 0.5643 0.54888 0.32009 0.0
C429 C 0.58087 0.60009 0.30619 0.0
C430 C 0.59388 0.59769 0.26844 0.0
C431 C 0.60862 0.64946 0.2547 0.0
C432 C 0.61102 0.70213 0.27783 0.0
C433 C 0.59842 0.70447 0.31483 0.0
C434 C 0.58329 0.65416 0.32897 0.0
H435 H 0.47591 0.51766 0.18677 0.0
C436 C 0.52426 0.52754 0.1764 0.0
H437 H 0.63852 0.55132 0.19495 0.0
H438 H 0.54206 0.4424 0.3401 0.0
H439 H 0.54518 0.35106 0.30076 0.0
H440 H 0.57095 0.347 0.23583 0.0
H441 H 0.59323 0.43443 0.20979 0.0
C442 C 0.58779 0.5419 0.20297 0.0
C443 C 0.58963 0.5441 0.24484 0.0
C444 C 0.57973 0.49268 0.26016 0.0
C445 C 0.56629 0.49505 0.29778 0.0
C446 C 0.55325 0.4431 0.3118 0.0
C447 C 0.55493 0.39036 0.28952 0.0
C448 C 0.56935 0.38807 0.25295 0.0
C449 C 0.58166 0.4385 0.23828 0.0
loop_
_geom_bond_atom_site_label_1
_geom_bond_atom_site_label_2
_geom_bond_distance
_geom_bond_site_symmetry_2
_ccdc_geom_bond_type
O0 Mn1 2.162 1_554 S
O0 C14 1.244 1_454 S
Mn1 O0 2.162 1_556 S
Mn1 O4 2.161 1_545 S
Mn1 O5 2.221 1_556 S
Mn1 O7 2.140 1_556 S
Mn1 O9 2.183 . S
Mn1 O19 2.223 1_445 S
O2 Mn3 2.087 1_545 S
O2 C14 1.256 . S
Mn3 O2 2.087 1_565 S
Mn3 O10 2.089 1_565 S
Mn3 O19 2.290 . S
Mn3 O20 2.251 . S
O4 Mn1 2.161 1_565 S
O4 C15 1.239 1_556 S
O5 Mn1 2.221 1_554 S
O5 Mn6 2.290 . S
O5 C16 1.278 . S
Mn6 O5 2.290 . S
Mn6 O8 2.089 1_545 S
Mn6 O11 2.251 . S
Mn6 O12 2.087 . S
O7 Mn1 2.140 1_554 S
O7 C17 1.244 . S
O8 Mn6 2.089 1_565 S
O8 C15 1.256 . S
O9 Mn1 2.183 . S
O9 C18 1.239 . S
O10 Mn3 2.089 1_545 S
O10 C18 1.256 1_655 S
O11 Mn6 2.251 . S
O11 C16 1.241 . S
O12 Mn6 2.087 . S
O12 C17 1.256 . S
C13 O19 1.278 . S
C13 O20 1.241 . S
C14 O0 1.244 1_656 S
C14 O2 1.256 . S
C15 O4 1.239 1_554 S
C15 O8 1.256 . S
C16 O5 1.278 . S
C16 O11 1.241 . S
C17 O7 1.244 . S
C17 O12 1.256 . S
C18 O9 1.239 . S
C18 O10 1.256 1_455 S
O19 Mn1 2.223 1_665 S
O19 Mn3 2.290 . S
O19 C13 1.278 . S
O20 Mn3 2.251 . S
O20 C13 1.241 . S
O21 Mn22 2.163 . S
O21 C35 1.244 . S
Mn22 O21 2.163 . S
Mn22 O25 2.160 . S
Mn22 O26 2.221 . S
Mn22 O28 2.163 . S
Mn22 O30 2.160 . S
Mn22 O40 2.221 . S
O23 Mn24 2.087 . S
O23 C35 1.256 . S
Mn24 O23 2.087 . S
Mn24 O31 2.089 . S
Mn24 O40 2.290 . S
Mn24 O41 2.251 . S
O25 Mn22 2.160 . S
O25 C36 1.239 . S
O26 Mn22 2.221 . S
O26 Mn27 2.290 . S
O26 C37 1.278 . S
Mn27 O26 2.290 . S
Mn27 O29 2.089 . S
Mn27 O32 2.251 . S
Mn27 O33 2.087 . S
O28 Mn22 2.163 . S
O28 C38 1.244 . S
O29 Mn27 2.089 . S
O29 C36 1.256 . S
O30 Mn22 2.160 . S
O30 C39 1.239 . S
O31 Mn24 2.089 . S
O31 C39 1.256 . S
O32 Mn27 2.251 . S
O32 C37 1.241 . S
O33 Mn27 2.087 . S
O33 C38 1.256 . S
C34 O40 1.278 . S
C34 O41 1.241 . S
C35 O21 1.244 . S
C35 O23 1.256 . S
C36 O25 1.239 . S
C36 O29 1.256 . S
C37 O26 1.278 . S
C37 O32 1.241 . S
C38 O28 1.244 . S
C38 O33 1.256 . S
C39 O30 1.239 . S
C39 O31 1.256 . S
O40 Mn22 2.221 . S
O40 Mn24 2.290 . S
O40 C34 1.278 . S
O41 Mn24 2.251 . S
O41 C34 1.241 . S
H42 C47 0.930 . S
H43 C50 0.930 . S
H44 C52 0.930 . S
H45 C46 1.016 . S
C46 H45 1.016 . S
C46 N53 1.286 . S
C47 H42 0.930 . S
C47 C48 1.397 . S
C47 C49 1.361 1_565 S
C48 C47 1.397 . S
C48 C52 1.390 . S
C49 C47 1.361 1_545 S
C49 C50 1.393 . S
C49 N53 1.413 1_455 S
C50 H43 0.930 . S
C50 C49 1.393 . S
C50 C51 1.399 1_545 S
C51 C50 1.399 1_565 S
C51 C52 1.381 . S
C52 H44 0.930 . S
C52 C48 1.390 . S
C52 C51 1.381 . S
N53 C46 1.286 . S
N53 C49 1.413 1_655 S
H54 C59 0.930 . S
H55 C62 0.930 . S
H56 C64 0.930 1_565 S
H57 C58 1.016 . S
C58 H57 1.016 . S
C58 N65 1.286 . S
C59 H54 0.930 . S
C59 C60 1.397 1_545 S
C59 C61 1.361 1_655 S
C60 C59 1.397 1_565 S
C60 C64 1.390 1_565 S
C61 C59 1.361 1_455 S
C61 C62 1.393 . S
C61 N65 1.413 . S
C62 H55 0.930 . S
C62 C61 1.393 . S
C62 C63 1.399 1_455 S
C63 C62 1.399 1_655 S
C63 C64 1.381 . S
C64 H56 0.930 1_545 S
C64 C60 1.390 1_545 S
C64 C63 1.381 . S
N65 C58 1.286 . S
N65 C61 1.413 . S
H66 C71 0.930 . S
H67 C74 0.930 . S
H68 C76 0.930 . S
H69 C70 1.016 . S
C70 H69 1.016 . S
C70 N77 1.286 . S
C71 H66 0.930 . S
C71 C72 1.397 . S
C71 C73 1.361 . S
C72 C71 1.397 . S
C72 C76 1.390 . S
C73 C71 1.361 . S
C73 C74 1.393 . S
C73 N77 1.413 . S
C74 H67 0.930 . S
C74 C73 1.393 . S
C74 C75 1.399 . S
C75 C74 1.399 . S
C75 C76 1.381 . S
C76 H68 0.930 . S
C76 C72 1.390 . S
C76 C75 1.381 . S
N77 C70 1.286 . S
N77 C73 1.413 . S
H78 C83 0.930 . S
H79 C86 0.930 . S
H80 C88 0.930 . S
H81 C82 1.016 . S
C82 H81 1.016 . S
C82 N89 1.286 . S
C83 H78 0.930 . S
C83 C84 1.397 . S
C83 C85 1.361 . S
C84 C83 1.397 . S
C84 C88 1.390 . S
C85 C83 1.361 . S
C85 C86 1.393 . S
C85 N89 1.413 . S
C86 H79 0.930 . S
C86 C85 1.393 . S
C86 C87 1.399 . S
C87 C86 1.399 . S
C87 C88 1.381 . S
C88 H80 0.930 . S
C88 C84 1.390 . S
C88 C87 1.381 . S
N89 C82 1.286 . S
N89 C85 1.413 . S
H90 C91 0.951 . S
C91 H90 0.951 . S
C91 C97 1.265 . S
H92 C97 0.950 . S
H93 C101 0.949 . S
H94 C102 0.950 . S
H95 C103 0.951 . S
H96 C104 0.951 . S
C97 C91 1.265 . S
C97 H92 0.950 . S
C97 C98 1.478 . S
C98 C97 1.478 . S
C98 C99 1.397 . S
C98 C115 1.394 1_554 S
C99 C98 1.397 . S
C99 C100 1.438 . S
C99 C104 1.429 . S
C100 C99 1.438 . S
C100 C101 1.428 . S
C100 C113 1.394 . S
C101 H93 0.949 . S
C101 C100 1.428 . S
C101 C102 1.345 . S
C102 H94 0.950 . S
C102 C101 1.345 . S
C102 C103 1.424 . S
C103 H95 0.951 . S
C103 C102 1.424 . S
C103 C104 1.347 . S
C104 H96 0.951 . S
C104 C99 1.429 . S
C104 C103 1.347 . S
H105 C106 0.951 . S
C106 H105 0.951 . S
C106 C112 1.265 . S
H107 C112 0.950 . S
H108 C116 0.949 . S
H109 C117 0.950 . S
H110 C118 0.951 . S
H111 C119 0.951 . S
C112 C106 1.265 . S
C112 H107 0.950 . S
C112 C113 1.478 . S
C113 C100 1.394 . S
C113 C112 1.478 . S
C113 C114 1.401 . S
C114 C113 1.401 . S
C114 C115 1.439 1_554 S
C114 C119 1.424 1_554 S
C115 C98 1.394 1_556 S
C115 C114 1.439 1_556 S
C115 C116 1.428 . S
C116 H108 0.949 . S
C116 C115 1.428 . S
C116 C117 1.345 . S
C117 H109 0.950 . S
C117 C116 1.345 . S
C117 C118 1.424 . S
C118 H110 0.951 . S
C118 C117 1.424 . S
C118 C119 1.347 . S
C119 H111 0.951 . S
C119 C114 1.424 1_556 S
C119 C118 1.347 . S
H120 C121 0.951 1_556 S
C121 H120 0.951 1_554 S
C121 C127 1.265 . S
H122 C127 0.950 . S
H123 C131 0.949 . S
H124 C132 0.950 . S
H125 C133 0.951 . S
H126 C134 0.951 . S
C127 C121 1.265 . S
C127 H122 0.950 . S
C127 C128 1.478 . S
C128 C127 1.478 . S
C128 C129 1.397 1_554 S
C128 C145 1.394 . S
C129 C128 1.397 1_556 S
C129 C130 1.438 . S
C129 C134 1.429 . S
C130 C129 1.438 . S
C130 C131 1.428 . S
C130 C143 1.394 . S
C131 H123 0.949 . S
C131 C130 1.428 . S
C131 C132 1.345 . S
C132 H124 0.950 . S
C132 C131 1.345 . S
C132 C133 1.424 . S
C133 H125 0.951 . S
C133 C132 1.424 . S
C133 C134 1.347 . S
C134 H126 0.951 . S
C134 C129 1.429 . S
C134 C133 1.347 . S
H135 C136 0.951 . S
C136 H135 0.951 . S
C136 C142 1.265 . S
H137 C142 0.950 . S
H138 C146 0.949 . S
H139 C147 0.950 . S
H140 C148 0.951 . S
H141 C149 0.951 . S
C142 C136 1.265 . S
C142 H137 0.950 . S
C142 C143 1.478 . S
C143 C130 1.394 . S
C143 C142 1.478 . S
C143 C144 1.397 1_556 S
C144 C143 1.397 1_554 S
C144 C145 1.438 . S
C144 C149 1.429 . S
C145 C128 1.394 . S
C145 C144 1.438 . S
C145 C146 1.428 . S
C146 H138 0.949 . S
C146 C145 1.428 . S
C146 C147 1.345 . S
C147 H139 0.950 . S
C147 C146 1.345 . S
C147 C148 1.424 . S
C148 H140 0.951 . S
C148 C147 1.424 . S
C148 C149 1.347 . S
C149 H141 0.951 . S
C149 C144 1.429 . S
C149 C148 1.347 . S
H150 C151 0.951 1_556 S
C151 H150 0.951 1_554 S
C151 C157 1.265 . S
H152 C157 0.950 . S
H153 C161 0.949 . S
H154 C162 0.950 . S
H155 C163 0.951 . S
H156 C164 0.951 . S
C157 C151 1.265 . S
C157 H152 0.950 . S
C157 C158 1.478 . S
C158 C157 1.478 . S
C158 C159 1.397 . S
C158 C175 1.394 1_554 S
C159 C158 1.397 . S
C159 C160 1.438 . S
C159 C164 1.429 . S
C160 C159 1.438 . S
C160 C161 1.428 . S
C160 C173 1.394 . S
C161 H153 0.949 . S
C161 C160 1.428 . S
C161 C162 1.345 . S
C162 H154 0.950 . S
C162 C161 1.345 . S
C162 C163 1.424 . S
C163 H155 0.951 . S
C163 C162 1.424 . S
C163 C164 1.347 . S
C164 H156 0.951 . S
C164 C159 1.429 . S
C164 C163 1.347 . S
H165 C166 0.951 . S
C166 H165 0.951 . S
C166 C172 1.265 . S
H167 C172 0.950 . S
H168 C176 0.949 . S
H169 C177 0.950 . S
H170 C178 0.951 . S
H171 C179 0.951 . S
C172 C166 1.265 . S
C172 H167 0.950 . S
C172 C173 1.478 . S
C173 C160 1.394 . S
C173 C172 1.478 . S
C173 C174 1.397 1_554 S
C174 C173 1.397 1_556 S
C174 C175 1.438 . S
C174 C179 1.429 . S
C175 C158 1.394 1_556 S
C175 C174 1.438 . S
C175 C176 1.428 . S
C176 H168 0.949 . S
C176 C175 1.428 . S
C176 C177 1.345 . S
C177 H169 0.950 . S
C177 C176 1.345 . S
C177 C178 1.424 . S
C178 H170 0.951 . S
C178 C177 1.424 . S
C178 C179 1.347 . S
C179 H171 0.951 . S
C179 C174 1.429 . S
C179 C178 1.347 . S
H180 C181 0.951 . S
C181 H180 0.951 . S
C181 C187 1.265 . S
H182 C187 0.950 . S
H183 C191 0.949 . S
H184 C192 0.950 . S
H185 C193 0.951 . S
H186 C194 0.951 . S
C187 C181 1.265 . S
C187 H182 0.950 . S
C187 C188 1.478 . S
C188 C187 1.478 . S
C188 C189 1.397 . S
C188 C205 1.394 1_556 S
C189 C188 1.397 . S
C189 C190 1.438 . S
C189 C194 1.429 . S
C190 C189 1.438 . S
C190 C191 1.428 . S
C190 C203 1.394 . S
C191 H183 0.949 . S
C191 C190 1.428 . S
C191 C192 1.345 . S
C192 H184 0.950 . S
C192 C191 1.345 . S
C192 C193 1.424 . S
C193 H185 0.951 . S
C193 C192 1.424 . S
C193 C194 1.347 . S
C194 H186 0.951 . S
C194 C189 1.429 . S
C194 C193 1.347 . S
H195 C196 0.951 . S
C196 H195 0.951 . S
C196 C202 1.265 . S
H197 C202 0.950 . S
H198 C206 0.949 . S
H199 C207 0.950 . S
H200 C208 0.951 . S
H201 C209 0.951 . S
C202 C196 1.265 . S
C202 H197 0.950 . S
C202 C203 1.478 . S
C203 C190 1.394 . S
C203 C202 1.478 . S
C203 C204 1.410 . S
C204 C203 1.410 . S
C204 C205 1.436 1_556 S
C204 C209 1.416 1_556 S
C205 C188 1.394 1_554 S
C205 C204 1.436 1_554 S
C205 C206 1.428 . S
C206 H198 0.949 . S
C206 C205 1.428 . S
C206 C207 1.345 . S
C207 H199 0.950 . S
C207 C206 1.345 . S
C207 C208 1.424 . S
C208 H200 0.951 . S
C208 C207 1.424 . S
C208 C209 1.347 . S
C209 H201 0.951 . S
C209 C204 1.416 1_554 S
C209 C208 1.347 . S
H210 C211 0.951 . S
C211 H210 0.951 . S
C211 C217 1.265 . S
H212 C217 0.950 . S
H213 C221 0.949 . S
H214 C222 0.950 . S
H215 C223 0.951 . S
H216 C224 0.951 . S
C217 C211 1.265 . S
C217 H212 0.950 . S
C217 C218 1.478 . S
C218 C217 1.478 . S
C218 C219 1.397 . S
C218 C235 1.394 . S
C219 C218 1.397 . S
C219 C220 1.438 . S
C219 C224 1.429 . S
C220 C219 1.438 . S
C220 C221 1.428 . S
C220 C233 1.394 . S
C221 H213 0.949 . S
C221 C220 1.428 . S
C221 C222 1.345 . S
C222 H214 0.950 . S
C222 C221 1.345 . S
C222 C223 1.424 . S
C223 H215 0.951 . S
C223 C222 1.424 . S
C223 C224 1.347 . S
C224 H216 0.951 . S
C224 C219 1.429 . S
C224 C223 1.347 . S
H225 C226 0.951 . S
C226 H225 0.951 . S
C226 C232 1.265 . S
H227 C232 0.950 . S
H228 C236 0.949 . S
H229 C237 0.950 . S
H230 C238 0.951 . S
H231 C239 0.951 . S
C232 C226 1.265 . S
C232 H227 0.950 . S
C232 C233 1.478 . S
C233 C220 1.394 . S
C233 C232 1.478 . S
C233 C234 1.397 . S
C234 C233 1.397 . S
C234 C235 1.438 . S
C234 C239 1.429 . S
C235 C218 1.394 . S
C235 C234 1.438 . S
C235 C236 1.428 . S
C236 H228 0.949 . S
C236 C235 1.428 . S
C236 C237 1.345 . S
C237 H229 0.950 . S
C237 C236 1.345 . S
C237 C238 1.424 . S
C238 H230 0.951 . S
C238 C237 1.424 . S
C238 C239 1.347 . S
C239 H231 0.951 . S
C239 C234 1.429 . S
C239 C238 1.347 . S
H240 C241 0.951 . S
C241 H240 0.951 . S
C241 C247 1.265 . S
H242 C247 0.950 . S
H243 C251 0.949 . S
H244 C252 0.950 . S
H245 C253 0.951 . S
H246 C254 0.951 . S
C247 C241 1.265 . S
C247 H242 0.950 . S
C247 C248 1.478 . S
C248 C247 1.478 . S
C248 C249 1.397 . S
C248 C265 1.394 . S
C249 C248 1.397 . S
C249 C250 1.438 . S
C249 C254 1.429 . S
C250 C249 1.438 . S
C250 C251 1.428 . S
C250 C263 1.394 . S
C251 H243 0.949 . S
C251 C250 1.428 . S
C251 C252 1.345 . S
C252 H244 0.950 . S
C252 C251 1.345 . S
C252 C253 1.424 . S
C253 H245 0.951 . S
C253 C252 1.424 . S
C253 C254 1.347 . S
C254 H246 0.951 . S
C254 C249 1.429 . S
C254 C253 1.347 . S
H255 C256 0.951 . S
C256 H255 0.951 . S
C256 C262 1.265 . S
H257 C262 0.950 . S
H258 C266 0.949 . S
H259 C267 0.950 . S
H260 C268 0.951 . S
H261 C269 0.951 . S
C262 C256 1.265 . S
C262 H257 0.950 . S
C262 C263 1.478 . S
C263 C250 1.394 . S
C263 C262 1.478 . S
C263 C264 1.397 . S
C264 C263 1.397 . S
C264 C265 1.438 . S
C264 C269 1.429 . S
C265 C248 1.394 . S
C265 C264 1.438 . S
C265 C266 1.428 . S
C266 H258 0.949 . S
C266 C265 1.428 . S
C266 C267 1.345 . S
C267 H259 0.950 . S
C267 C266 1.345 . S
C267 C268 1.424 . S
C268 H260 0.951 . S
C268 C267 1.424 . S
C268 C269 1.347 . S
C269 H261 0.951 . S
C269 C264 1.429 . S
C269 C268 1.347 . S
H270 C271 0.951 . S
C271 H270 0.951 . S
C271 C277 1.265 . S
H272 C277 0.950 . S
H273 C281 0.949 . S
H274 C282 0.950 . S
H275 C283 0.951 . S
H276 C284 0.951 . S
C277 C271 1.265 . S
C277 H272 0.950 . S
C277 C278 1.478 . S
C278 C277 1.478 . S
C278 C279 1.397 . S
C278 C295 1.394 . S
C279 C278 1.397 . S
C279 C280 1.438 . S
C279 C284 1.429 . S
C280 C279 1.438 . S
C280 C281 1.428 . S
C280 C293 1.394 . S
C281 H273 0.949 . S
C281 C280 1.428 . S
C281 C282 1.345 . S
C282 H274 0.950 . S
C282 C281 1.345 . S
C282 C283 1.424 . S
C283 H275 0.951 . S
C283 C282 1.424 . S
C283 C284 1.347 . S
C284 H276 0.951 . S
C284 C279 1.429 . S
C284 C283 1.347 . S
H285 C286 0.951 . S
C286 H285 0.951 . S
C286 C292 1.265 . S
H287 C292 0.950 . S
H288 C296 0.949 . S
H289 C297 0.950 . S
H290 C298 0.951 . S
H291 C299 0.951 . S
C292 C286 1.265 . S
C292 H287 0.950 . S
C292 C293 1.478 . S
C293 C280 1.394 . S
C293 C292 1.478 . S
C293 C294 1.397 . S
C294 C293 1.397 . S
C294 C295 1.438 . S
C294 C299 1.429 . S
C295 C278 1.394 . S
C295 C294 1.438 . S
C295 C296 1.428 . S
C296 H288 0.949 . S
C296 C295 1.428 . S
C296 C297 1.345 . S
C297 H289 0.950 . S
C297 C296 1.345 . S
C297 C298 1.424 . S
C298 H290 0.951 . S
C298 C297 1.424 . S
C298 C299 1.347 . S
C299 H291 0.951 . S
C299 C294 1.429 . S
C299 C298 1.347 . S
H300 C301 0.951 . S
C301 H300 0.951 . S
C301 C307 1.265 . S
H302 C307 0.950 . S
H303 C311 0.949 . S
H304 C312 0.950 . S
H305 C313 0.951 . S
H306 C314 0.951 . S
C307 C301 1.265 . S
C307 H302 0.950 . S
C307 C308 1.478 . S
C308 C307 1.478 . S
C308 C309 1.397 . S
C308 C325 1.394 . S
C309 C308 1.397 . S
C309 C310 1.438 . S
C309 C314 1.429 . S
C310 C309 1.438 . S
C310 C311 1.428 . S
C310 C323 1.394 . S
C311 H303 0.949 . S
C311 C310 1.428 . S
C311 C312 1.345 . S
C312 H304 0.950 . S
C312 C311 1.345 . S
C312 C313 1.424 . S
C313 H305 0.951 . S
C313 C312 1.424 . S
C313 C314 1.347 . S
C314 H306 0.951 . S
C314 C309 1.429 . S
C314 C313 1.347 . S
H315 C316 0.951 . S
C316 H315 0.951 . S
C316 C322 1.265 . S
H317 C322 0.950 . S
H318 C326 0.949 . S
H319 C327 0.950 . S
H320 C328 0.951 . S
H321 C329 0.951 . S
C322 C316 1.265 . S
C322 H317 0.950 . S
C322 C323 1.478 . S
C323 C310 1.394 . S
C323 C322 1.478 . S
C323 C324 1.397 . S
C324 C323 1.397 . S
C324 C325 1.438 . S
C324 C329 1.429 . S
C325 C308 1.394 . S
C325 C324 1.438 . S
C325 C326 1.428 . S
C326 H318 0.949 . S
C326 C325 1.428 . S
C326 C327 1.345 . S
C327 H319 0.950 . S
C327 C326 1.345 . S
C327 C328 1.424 . S
C328 H320 0.951 . S
C328 C327 1.424 . S
C328 C329 1.347 . S
C329 H321 0.951 . S
C329 C324 1.429 . S
C329 C328 1.347 . S
H330 C331 0.950 1_565 S
C331 H330 0.950 1_545 S
C331 C337 1.264 . S
H332 C337 0.950 . S
H333 C341 0.949 . S
H334 C342 0.950 . S
H335 C343 0.951 . S
H336 C344 0.951 . S
C337 C331 1.264 . S
C337 H332 0.950 . S
C337 C338 1.478 1_545 S
C338 C337 1.478 1_565 S
C338 C339 1.397 1_565 S
C338 C355 1.394 . S
C339 C338 1.397 1_545 S
C339 C340 1.438 . S
C339 C344 1.429 . S
C340 C339 1.438 . S
C340 C341 1.428 . S
C340 C353 1.394 1_545 S
C341 H333 0.949 . S
C341 C340 1.428 . S
C341 C342 1.345 . S
C342 H334 0.950 . S
C342 C341 1.345 . S
C342 C343 1.424 . S
C343 H335 0.951 . S
C343 C342 1.424 . S
C343 C344 1.347 . S
C344 H336 0.951 . S
C344 C339 1.429 . S
C344 C343 1.347 . S
H345 C346 0.951 . S
C346 H345 0.951 . S
C346 C352 1.265 . S
H347 C352 0.950 . S
H348 C356 0.949 . S
H349 C357 0.950 1_655 S
H350 C358 0.951 . S
H351 C359 0.951 . S
C352 C346 1.265 . S
C352 H347 0.950 . S
C352 C353 1.478 . S
C353 C340 1.394 1_565 S
C353 C352 1.478 . S
C353 C354 1.397 . S
C354 C353 1.397 . S
C354 C355 1.438 . S
C354 C359 1.429 . S
C355 C338 1.394 . S
C355 C354 1.438 . S
C355 C356 1.428 . S
C356 H348 0.949 . S
C356 C355 1.428 . S
C356 C357 1.345 . S
C357 H349 0.950 1_455 S
C357 C356 1.345 . S
C357 C358 1.424 1_455 S
C358 H350 0.951 . S
C358 C357 1.424 1_655 S
C358 C359 1.347 1_655 S
C359 H351 0.951 . S
C359 C354 1.429 . S
C359 C358 1.347 1_455 S
H360 C361 0.951 1_655 S
C361 H360 0.951 1_455 S
C361 C367 1.265 . S
H362 C367 0.950 1_565 S
H363 C371 0.949 . S
H364 C372 0.950 . S
H365 C373 0.951 1_455 S
H366 C374 0.951 . S
C367 C361 1.265 . S
C367 H362 0.950 1_545 S
C367 C368 1.478 . S
C368 C367 1.478 . S
C368 C369 1.397 1_545 S
C368 C385 1.394 . S
C369 C368 1.397 1_565 S
C369 C370 1.438 1_455 S
C369 C374 1.429 . S
C370 C369 1.438 1_655 S
C370 C371 1.428 . S
C370 C383 1.394 1_565 S
C371 H363 0.949 . S
C371 C370 1.428 . S
C371 C372 1.345 . S
C372 H364 0.950 . S
C372 C371 1.345 . S
C372 C373 1.425 . S
C373 H365 0.951 1_655 S
C373 C372 1.425 . S
C373 C374 1.346 1_655 S
C374 H366 0.951 . S
C374 C369 1.429 . S
C374 C373 1.346 1_455 S
H375 C376 0.951 . S
C376 H375 0.951 . S
C376 C382 1.265 1_455 S
H377 C382 0.950 . S
H378 C386 0.949 . S
H379 C387 0.950 . S
H380 C388 0.951 . S
H381 C389 0.951 . S
C382 C376 1.265 1_655 S
C382 H377 0.950 . S
C382 C383 1.478 . S
C383 C370 1.394 1_545 S
C383 C382 1.478 . S
C383 C384 1.397 1_655 S
C384 C383 1.397 1_455 S
C384 C385 1.438 . S
C384 C389 1.429 . S
C385 C368 1.394 . S
C385 C384 1.438 . S
C385 C386 1.428 . S
C386 H378 0.949 . S
C386 C385 1.428 . S
C386 C387 1.345 . S
C387 H379 0.950 . S
C387 C386 1.345 . S
C387 C388 1.424 . S
C388 H380 0.951 . S
C388 C387 1.424 . S
C388 C389 1.347 . S
C389 H381 0.951 . S
C389 C384 1.429 . S
C389 C388 1.347 . S
H390 C391 0.951 . S
C391 H390 0.951 . S
C391 C397 1.265 . S
H392 C397 0.950 . S
H393 C401 0.949 . S
H394 C402 0.950 . S
H395 C403 0.951 . S
H396 C404 0.951 . S
C397 C391 1.265 . S
C397 H392 0.950 . S
C397 C398 1.478 . S
C398 C397 1.478 . S
C398 C399 1.397 . S
C398 C415 1.394 . S
C399 C398 1.397 . S
C399 C400 1.438 . S
C399 C404 1.429 . S
C400 C399 1.438 . S
C400 C401 1.428 . S
C400 C413 1.394 . S
C401 H393 0.949 . S
C401 C400 1.428 . S
C401 C402 1.345 . S
C402 H394 0.950 . S
C402 C401 1.345 . S
C402 C403 1.424 . S
C403 H395 0.951 . S
C403 C402 1.424 . S
C403 C404 1.347 . S
C404 H396 0.951 . S
C404 C399 1.429 . S
C404 C403 1.347 . S
H405 C406 0.951 . S
C406 H405 0.951 . S
C406 C412 1.265 . S
H407 C412 0.950 . S
H408 C416 0.949 . S
H409 C417 0.950 . S
H410 C418 0.951 . S
H411 C419 0.951 . S
C412 C406 1.265 . S
C412 H407 0.950 . S
C412 C413 1.478 . S
C413 C400 1.394 . S
C413 C412 1.478 . S
C413 C414 1.397 . S
C414 C413 1.397 . S
C414 C415 1.438 . S
C414 C419 1.429 . S
C415 C398 1.394 . S
C415 C414 1.438 . S
C415 C416 1.428 . S
C416 H408 0.949 . S
C416 C415 1.428 . S
C416 C417 1.345 . S
C417 H409 0.950 . S
C417 C416 1.345 . S
C417 C418 1.424 . S
C418 H410 0.951 . S
C418 C417 1.424 . S
C418 C419 1.347 . S
C419 H411 0.951 . S
C419 C414 1.429 . S
C419 C418 1.347 . S
H420 C421 0.951 . S
C421 H420 0.951 . S
C421 C427 1.265 . S
H422 C427 0.950 . S
H423 C431 0.949 . S
H424 C432 0.950 . S
H425 C433 0.951 . S
H426 C434 0.951 . S
C427 C421 1.265 . S
C427 H422 0.950 . S
C427 C428 1.478 . S
C428 C427 1.478 . S
C428 C429 1.397 . S
C428 C445 1.394 . S
C429 C428 1.397 . S
C429 C430 1.438 . S
C429 C434 1.429 . S
C430 C429 1.438 . S
C430 C431 1.428 . S
C430 C443 1.394 . S
C431 H423 0.949 . S
C431 C430 1.428 . S
C431 C432 1.345 . S
C432 H424 0.950 . S
C432 C431 1.345 . S
C432 C433 1.424 . S
C433 H425 0.951 . S
C433 C432 1.424 . S
C433 C434 1.347 . S
C434 H426 0.951 . S
C434 C429 1.429 . S
C434 C433 1.347 . S
H435 C436 0.951 . S
C436 H435 0.951 . S
C436 C442 1.265 . S
H437 C442 0.950 . S
H438 C446 0.949 . S
H439 C447 0.950 . S
H440 C448 0.951 . S
H441 C449 0.951 . S
C442 C436 1.265 . S
C442 H437 0.950 . S
C442 C443 1.478 . S
C443 C430 1.394 . S
C443 C442 1.478 . S
C443 C444 1.397 . S
C444 C443 1.397 . S
C444 C445 1.438 . S
C444 C449 1.429 . S
C445 C428 1.394 . S
C445 C444 1.438 . S
C445 C446 1.428 . S
C446 H438 0.949 . S
C446 C445 1.428 . S
C446 C447 1.345 . S
C447 H439 0.950 . S
C447 C446 1.345 . S
C447 C448 1.424 . S
C448 H440 0.951 . S
C448 C447 1.424 . S
C448 C449 1.347 . S
C449 H441 0.951 . S
C449 C444 1.429 . S
C449 C448 1.347 . S
C106 C84 1.459 . S
C91 C16 1.260 . S
C121 C15 1.387 . S
C136 C70 1.422 . S
C151 C13 1.174 1_554 S
C166 C82 1.387 . S
C181 C14 1.369 . S
C196 C72 1.450 . S
C211 C37 1.362 . S
C226 C60 1.423 . S
C241 C36 1.376 . S
C256 C46 1.395 . S
C286 C58 1.382 . S
C271 C34 1.285 . S
C316 C48 1.440 . S
C301 C35 1.455 . S
C331 C17 1.603 . S
C346 C51 1.608 . S
C361 C18 1.349 . S
C376 C63 1.398 1_455 S
C406 C75 1.608 . S
C391 C38 1.600 . S
C421 C39 1.411 . S
C436 C87 1.426 . S
