# Generated by pormake.
# Topology eea, (3,6)-cn, num edge types: 1
# Building blocks:
#     Node 0, Type 0, BuildingBlock: KAKCAD_clean_linker_0, # of connection points: 3
#     Node 1, Type 0, BuildingBlock: KAKCAD_clean_linker_0, # of connection points: 3
#     Node 2, Type 0, BuildingBlock: KAKCAD_clean_linker_0, # of connection points: 3
#     Node 3, Type 0, BuildingBlock: KAKCAD_clean_linker_0, # of connection points: 3
#     Node 4, Type 0, BuildingBlock: KAKCAD_clean_linker_0, # of connection points: 3
#     Node 5, Type 0, BuildingBlock: KAKCAD_clean_linker_0, # of connection points: 3
#     Node 6, Type 0, BuildingBlock: KAKCAD_clean_linker_0, # of connection points: 3
#     Node 7, Type 0, BuildingBlock: KAKCAD_clean_linker_0, # of connection points: 3
#     Node 8, Type 0, BuildingBlock: KAKCAD_clean_linker_0, # of connection points: 3
#     Node 9, Type 0, BuildingBlock: KAKCAD_clean_linker_0, # of connection points: 3
#     Node 10, Type 0, BuildingBlock: KAKCAD_clean_linker_0, # of connection points: 3
#     Node 11, Type 0, BuildingBlock: KAKCAD_clean_linker_0, # of connection points: 3
#     Node 12, Type 0, BuildingBlock: KAKCAD_clean_linker_0, # of connection points: 3
#     Node 13, Type 0, BuildingBlock: KAKCAD_clean_linker_0, # of connection points: 3
#     Node 14, Type 0, BuildingBlock: KAKCAD_clean_linker_0, # of connection points: 3
#     Node 15, Type 0, BuildingBlock: KAKCAD_clean_linker_0, # of connection points: 3
#     Node 16, Type 0, BuildingBlock: KAKCAD_clean_linker_0, # of connection points: 3
#     Node 17, Type 0, BuildingBlock: KAKCAD_clean_linker_0, # of connection points: 3
#     Node 18, Type 1, BuildingBlock: CIFDUS_clean_sbu_1, # of connection points: 6
#     Node 19, Type 1, BuildingBlock: CIFDUS_clean_sbu_1, # of connection points: 6
#     Node 20, Type 1, BuildingBlock: CIFDUS_clean_sbu_1, # of connection points: 6
#     Node 21, Type 1, BuildingBlock: CIFDUS_clean_sbu_1, # of connection points: 6
#     Node 22, Type 1, BuildingBlock: CIFDUS_clean_sbu_1, # of connection points: 6
#     Node 23, Type 1, BuildingBlock: CIFDUS_clean_sbu_1, # of connection points: 6
#     Node 24, Type 1, BuildingBlock: CIFDUS_clean_sbu_1, # of connection points: 6
#     Node 25, Type 1, BuildingBlock: CIFDUS_clean_sbu_1, # of connection points: 6
#     Node 26, Type 1, BuildingBlock: CIFDUS_clean_sbu_1, # of connection points: 6
#     Edge 27, Type (0, 1), BuildingBlock: MIFKUJ_clean_linker_0, # of connection points: 2
#     Edge 28, Type (0, 1), BuildingBlock: MIFKUJ_clean_linker_0, # of connection points: 2
#     Edge 29, Type (0, 1), BuildingBlock: MIFKUJ_clean_linker_0, # of connection points: 2
#     Edge 30, Type (0, 1), BuildingBlock: MIFKUJ_clean_linker_0, # of connection points: 2
#     Edge 31, Type (0, 1), BuildingBlock: MIFKUJ_clean_linker_0, # of connection points: 2
#     Edge 32, Type (0, 1), BuildingBlock: MIFKUJ_clean_linker_0, # of connection points: 2
#     Edge 33, Type (0, 1), BuildingBlock: MIFKUJ_clean_linker_0, # of connection points: 2
#     Edge 34, Type (0, 1), BuildingBlock: MIFKUJ_clean_linker_0, # of connection points: 2
#     Edge 35, Type (0, 1), BuildingBlock: MIFKUJ_clean_linker_0, # of connection points: 2
#     Edge 36, Type (0, 1), BuildingBlock: MIFKUJ_clean_linker_0, # of connection points: 2
#     Edge 37, Type (0, 1), BuildingBlock: MIFKUJ_clean_linker_0, # of connection points: 2
#     Edge 38, Type (0, 1), BuildingBlock: MIFKUJ_clean_linker_0, # of connection points: 2
#     Edge 39, Type (0, 1), BuildingBlock: MIFKUJ_clean_linker_0, # of connection points: 2
#     Edge 40, Type (0, 1), BuildingBlock: MIFKUJ_clean_linker_0, # of connection points: 2
#     Edge 41, Type (0, 1), BuildingBlock: MIFKUJ_clean_linker_0, # of connection points: 2
#     Edge 42, Type (0, 1), BuildingBlock: MIFKUJ_clean_linker_0, # of connection points: 2
#     Edge 43, Type (0, 1), BuildingBlock: MIFKUJ_clean_linker_0, # of connection points: 2
#     Edge 44, Type (0, 1), BuildingBlock: MIFKUJ_clean_linker_0, # of connection points: 2
#     Edge 45, Type (0, 1), BuildingBlock: MIFKUJ_clean_linker_0, # of connection points: 2
#     Edge 46, Type (0, 1), BuildingBlock: MIFKUJ_clean_linker_0, # of connection points: 2
#     Edge 47, Type (0, 1), BuildingBlock: MIFKUJ_clean_linker_0, # of connection points: 2
#     Edge 48, Type (0, 1), BuildingBlock: MIFKUJ_clean_linker_0, # of connection points: 2
#     Edge 49, Type (0, 1), BuildingBlock: MIFKUJ_clean_linker_0, # of connection points: 2
#     Edge 50, Type (0, 1), BuildingBlock: MIFKUJ_clean_linker_0, # of connection points: 2
#     Edge 51, Type (0, 1), BuildingBlock: MIFKUJ_clean_linker_0, # of connection points: 2
#     Edge 52, Type (0, 1), BuildingBlock: MIFKUJ_clean_linker_0, # of connection points: 2
#     Edge 53, Type (0, 1), BuildingBlock: MIFKUJ_clean_linker_0, # of connection points: 2
#     Edge 54, Type (0, 1), BuildingBlock: MIFKUJ_clean_linker_0, # of connection points: 2
#     Edge 55, Type (0, 1), BuildingBlock: MIFKUJ_clean_linker_0, # of connection points: 2
#     Edge 56, Type (0, 1), BuildingBlock: MIFKUJ_clean_linker_0, # of connection points: 2
#     Edge 57, Type (0, 1), BuildingBlock: MIFKUJ_clean_linker_0, # of connection points: 2
#     Edge 58, Type (0, 1), BuildingBlock: MIFKUJ_clean_linker_0, # of connection points: 2
#     Edge 59, Type (0, 1), BuildingBlock: MIFKUJ_clean_linker_0, # of connection points: 2
#     Edge 60, Type (0, 1), BuildingBlock: MIFKUJ_clean_linker_0, # of connection points: 2
#     Edge 61, Type (0, 1), BuildingBlock: MIFKUJ_clean_linker_0, # of connection points: 2
#     Edge 62, Type (0, 1), BuildingBlock: MIFKUJ_clean_linker_0, # of connection points: 2
#     Edge 63, Type (0, 1), BuildingBlock: MIFKUJ_clean_linker_0, # of connection points: 2
#     Edge 64, Type (0, 1), BuildingBlock: MIFKUJ_clean_linker_0, # of connection points: 2
#     Edge 65, Type (0, 1), BuildingBlock: MIFKUJ_clean_linker_0, # of connection points: 2
#     Edge 66, Type (0, 1), BuildingBlock: MIFKUJ_clean_linker_0, # of connection points: 2
#     Edge 67, Type (0, 1), BuildingBlock: MIFKUJ_clean_linker_0, # of connection points: 2
#     Edge 68, Type (0, 1), BuildingBlock: MIFKUJ_clean_linker_0, # of connection points: 2
#     Edge 69, Type (0, 1), BuildingBlock: MIFKUJ_clean_linker_0, # of connection points: 2
#     Edge 70, Type (0, 1), BuildingBlock: MIFKUJ_clean_linker_0, # of connection points: 2
#     Edge 71, Type (0, 1), BuildingBlock: MIFKUJ_clean_linker_0, # of connection points: 2
#     Edge 72, Type (0, 1), BuildingBlock: MIFKUJ_clean_linker_0, # of connection points: 2
#     Edge 73, Type (0, 1), BuildingBlock: MIFKUJ_clean_linker_0, # of connection points: 2
#     Edge 74, Type (0, 1), BuildingBlock: MIFKUJ_clean_linker_0, # of connection points: 2
#     Edge 75, Type (0, 1), BuildingBlock: MIFKUJ_clean_linker_0, # of connection points: 2
#     Edge 76, Type (0, 1), BuildingBlock: MIFKUJ_clean_linker_0, # of connection points: 2
#     Edge 77, Type (0, 1), BuildingBlock: MIFKUJ_clean_linker_0, # of connection points: 2
#     Edge 78, Type (0, 1), BuildingBlock: MIFKUJ_clean_linker_0, # of connection points: 2
#     Edge 79, Type (0, 1), BuildingBlock: MIFKUJ_clean_linker_0, # of connection points: 2
#     Edge 80, Type (0, 1), BuildingBlock: MIFKUJ_clean_linker_0, # of connection points: 2
# Relax obj value: 0.099
# Max RMSD: 0.184
# Mean RMSD: 0.093
data_MOF--net-eea--node1-CIFDUS_clean_sbu_1--node2-KAKCAD_clean_linker_0--edge1-MIFKUJ_clean_linker_0
_symmetry_space_group_name_H-M    P1
_symmetry_Int_Tables_number       1
_symmetry_cell_setting            triclinic
loop_
_symmetry_equiv_pos_as_xyz
'x, y, z'
_cell_length_a     82.943945
_cell_length_b     82.190001
_cell_length_c     84.080216
_cell_angle_alpha  90.43787
_cell_angle_beta   90.251516
_cell_angle_gamma 119.99238
loop_
_atom_site_label
_atom_site_type_symbol
_atom_site_fract_x
_atom_site_fract_y
_atom_site_fract_z
_atom_type_partial_charge
C0 C 0.28067 0.15211 0.46224 0.0
C1 C 0.29184 0.14502 0.4678 0.0
C2 C 0.27535 0.14997 0.44624 0.0
C3 C 0.28141 0.14098 0.43545 0.0
C4 C 0.29292 0.13419 0.44111 0.0
C5 C 0.29795 0.13606 0.45718 0.0
C6 C 0.27514 0.13816 0.41853 0.0
C7 C 0.27277 0.15185 0.41074 0.0
C8 C 0.26445 0.14839 0.39559 0.0
C9 C 0.25996 0.13154 0.38758 0.0
C10 C 0.26287 0.11787 0.39491 0.0
C11 C 0.27021 0.12124 0.4105 0.0
C12 C 0.2571 0.09948 0.38694 0.0
C13 C 0.24061 0.09025 0.37782 0.0
C14 C 0.26754 0.09046 0.38919 0.0
C15 C 0.26118 0.07233 0.38325 0.0
C16 C 0.24431 0.06278 0.37467 0.0
C17 C 0.25857 0.16143 0.3891 0.0
C18 C 0.25118 0.16952 0.39944 0.0
C19 C 0.25922 0.16513 0.37272 0.0
C20 C 0.25218 0.17628 0.36684 0.0
C21 C 0.24431 0.18383 0.37723 0.0
C22 C 0.24431 0.18067 0.39361 0.0
C23 C 0.23436 0.07219 0.37168 0.0
H24 H 0.27566 0.15887 0.47035 0.0
H25 H 0.26611 0.15497 0.44244 0.0
H26 H 0.29802 0.12741 0.43312 0.0
H27 H 0.30664 0.13054 0.46134 0.0
H28 H 0.27697 0.16512 0.41671 0.0
H29 H 0.27125 0.11029 0.41668 0.0
H30 H 0.25363 0.12881 0.37585 0.0
H31 H 0.23209 0.09665 0.3759 0.0
H32 H 0.2805 0.09725 0.39589 0.0
H33 H 0.26918 0.06556 0.38597 0.0
H34 H 0.25011 0.16679 0.41209 0.0
H35 H 0.265 0.15927 0.36446 0.0
H36 H 0.2215 0.06546 0.36486 0.0
H37 H 0.2387 0.18662 0.40197 0.0
H38 H 0.2524 0.17853 0.35414 0.0
C39 C 0.8615 0.15807 0.45505 0.0
C40 C 0.85618 0.14332 0.4659 0.0
C41 C 0.86456 0.15561 0.43908 0.0
C42 C 0.86221 0.13834 0.43368 0.0
C43 C 0.85739 0.12382 0.4446 0.0
C44 C 0.85448 0.1263 0.46052 0.0
C45 C 0.86456 0.13515 0.41671 0.0
C46 C 0.88059 0.14783 0.40851 0.0
C47 C 0.88368 0.14376 0.39291 0.0
C48 C 0.87026 0.12694 0.38547 0.0
C49 C 0.85418 0.11411 0.3936 0.0
C50 C 0.85133 0.11852 0.4091 0.0
C51 C 0.8412 0.09534 0.38663 0.0
C52 C 0.83557 0.09315 0.37056 0.0
C53 C 0.83467 0.07929 0.39614 0.0
C54 C 0.82281 0.0615 0.38978 0.0
C55 C 0.81725 0.05936 0.37381 0.0
C56 C 0.90177 0.15612 0.38513 0.0
C57 C 0.91049 0.17577 0.3867 0.0
C58 C 0.91109 0.14825 0.37704 0.0
C59 C 0.92897 0.15971 0.37117 0.0
C60 C 0.93797 0.17929 0.37331 0.0
C61 C 0.92841 0.18724 0.38084 0.0
C62 C 0.8236 0.07523 0.36419 0.0
H63 H 0.86286 0.17133 0.45881 0.0
H64 H 0.8683 0.16703 0.43086 0.0
H65 H 0.85592 0.11051 0.44082 0.0
H66 H 0.85095 0.11484 0.46863 0.0
H67 H 0.89117 0.1603 0.41465 0.0
H68 H 0.83887 0.10878 0.41543 0.0
H69 H 0.87268 0.1235 0.37358 0.0
H70 H 0.84034 0.10527 0.36298 0.0
H71 H 0.83902 0.08042 0.40845 0.0
H72 H 0.81808 0.04932 0.39731 0.0
H73 H 0.90359 0.18227 0.39274 0.0
H74 H 0.90491 0.13317 0.37577 0.0
H75 H 0.81944 0.07372 0.35179 0.0
H76 H 0.93503 0.20229 0.38275 0.0
H77 H 0.93589 0.15319 0.36522 0.0
C78 C 0.87321 0.72267 0.46372 0.0
C79 C 0.85575 0.70864 0.46906 0.0
C80 C 0.87587 0.72767 0.44773 0.0
C81 C 0.86109 0.71884 0.43672 0.0
C82 C 0.84367 0.70464 0.442 0.0
C83 C 0.84105 0.69951 0.45801 0.0
C84 C 0.86382 0.72506 0.41994 0.0
C85 C 0.88004 0.72863 0.41192 0.0
C86 C 0.88397 0.73665 0.39671 0.0
C87 C 0.87095 0.74038 0.38931 0.0
C88 C 0.85441 0.73652 0.39701 0.0
C89 C 0.85095 0.72881 0.41233 0.0
C90 C 0.84136 0.74171 0.38956 0.0
C91 C 0.84822 0.75888 0.3816 0.0
C92 C 0.822 0.72991 0.39082 0.0
C93 C 0.80979 0.73535 0.38456 0.0
C94 C 0.81671 0.75266 0.37684 0.0
C95 C 0.90217 0.74222 0.38909 0.0
C96 C 0.91841 0.74918 0.3985 0.0
C97 C 0.90366 0.74113 0.37246 0.0
C98 C 0.92097 0.74692 0.36548 0.0
C99 C 0.93698 0.75351 0.37503 0.0
C100 C 0.93554 0.75456 0.39156 0.0
C101 C 0.83603 0.76426 0.37527 0.0
H102 H 0.88482 0.72983 0.47195 0.0
H103 H 0.8894 0.73881 0.44404 0.0
H104 H 0.83207 0.69755 0.43376 0.0
H105 H 0.82741 0.68874 0.46183 0.0
H106 H 0.88971 0.72528 0.41768 0.0
H107 H 0.8387 0.72663 0.41868 0.0
H108 H 0.87387 0.74674 0.37767 0.0
H109 H 0.86305 0.76848 0.38068 0.0
H110 H 0.81628 0.71649 0.39669 0.0
H111 H 0.79494 0.72605 0.38579 0.0
H112 H 0.91802 0.7508 0.41126 0.0
H113 H 0.89146 0.73566 0.36484 0.0
H114 H 0.84177 0.77781 0.36962 0.0
H115 H 0.9478 0.75987 0.39912 0.0
H116 H 0.92182 0.74596 0.35268 0.0
C117 C 0.14815 0.28237 0.54458 0.0
C118 C 0.14466 0.29639 0.53907 0.0
C119 C 0.14672 0.27813 0.5607 0.0
C120 C 0.14164 0.28773 0.57166 0.0
C121 C 0.13804 0.30172 0.56618 0.0
C122 C 0.13972 0.30615 0.55 0.0
C123 C 0.13933 0.28224 0.58859 0.0
C124 C 0.15267 0.27916 0.59612 0.0
C125 C 0.14901 0.26991 0.6108 0.0
C126 C 0.13211 0.26504 0.61841 0.0
C127 C 0.11907 0.26907 0.61142 0.0
C128 C 0.1228 0.27767 0.59649 0.0
C129 C 0.1007 0.26255 0.61883 0.0
C130 C 0.09034 0.2441 0.62445 0.0
C131 C 0.0929 0.27429 0.6194 0.0
C132 C 0.07488 0.26754 0.6251 0.0
C133 C 0.0643 0.24887 0.63015 0.0
C134 C 0.16196 0.26382 0.61729 0.0
C135 C 0.17256 0.25945 0.6069 0.0
C136 C 0.16326 0.2614 0.63372 0.0
C137 C 0.17424 0.25415 0.63947 0.0
C138 C 0.18462 0.24959 0.62898 0.0
C139 C 0.18398 0.25286 0.61267 0.0
C140 C 0.07229 0.23731 0.63001 0.0
H141 H 0.15215 0.27477 0.53643 0.0
H142 H 0.14928 0.26707 0.56455 0.0
H143 H 0.13403 0.30925 0.57441 0.0
H144 H 0.13692 0.317 0.54599 0.0
H145 H 0.16569 0.28349 0.59011 0.0
H146 H 0.11227 0.27961 0.59053 0.0
H147 H 0.12868 0.25753 0.62953 0.0
H148 H 0.09591 0.23467 0.624 0.0
H149 H 0.10064 0.2886 0.6152 0.0
H150 H 0.06898 0.27669 0.62502 0.0
H151 H 0.17179 0.26057 0.59414 0.0
H152 H 0.15568 0.26491 0.64222 0.0
H153 H 0.06444 0.22291 0.63396 0.0
H154 H 0.19213 0.25013 0.60418 0.0
H155 H 0.17418 0.25174 0.65211 0.0
C156 C 0.69838 0.83687 0.55034 0.0
C157 C 0.70784 0.85134 0.53935 0.0
C158 C 0.7036 0.83972 0.56643 0.0
C159 C 0.71811 0.85721 0.57181 0.0
C160 C 0.72742 0.8717 0.56081 0.0
C161 C 0.72241 0.86876 0.54475 0.0
C162 C 0.72382 0.86045 0.58879 0.0
C163 C 0.72788 0.84803 0.59683 0.0
C164 C 0.73466 0.85175 0.61263 0.0
C165 C 0.73735 0.86829 0.62023 0.0
C166 C 0.73377 0.8811 0.61216 0.0
C167 C 0.72655 0.87676 0.59659 0.0
C168 C 0.73906 0.89974 0.61934 0.0
C169 C 0.73694 0.90188 0.63572 0.0
C170 C 0.74705 0.91582 0.60975 0.0
C171 C 0.75266 0.93349 0.61627 0.0
C172 C 0.75071 0.93556 0.63256 0.0
C173 C 0.74016 0.83904 0.62062 0.0
C174 C 0.7308 0.81969 0.61702 0.0
C175 C 0.75543 0.84622 0.63123 0.0
C176 C 0.76149 0.83452 0.63761 0.0
C177 C 0.75283 0.8154 0.63322 0.0
C178 C 0.73721 0.80813 0.623 0.0
C179 C 0.74285 0.91972 0.64231 0.0
H180 H 0.68713 0.82329 0.54645 0.0
H181 H 0.69619 0.82835 0.5747 0.0
H182 H 0.73877 0.88526 0.56462 0.0
H183 H 0.72981 0.8802 0.53654 0.0
H184 H 0.72661 0.83597 0.59041 0.0
H185 H 0.72328 0.88625 0.59035 0.0
H186 H 0.74281 0.87154 0.63225 0.0
H187 H 0.73073 0.8898 0.64343 0.0
H188 H 0.74941 0.91488 0.5972 0.0
H189 H 0.75893 0.94566 0.60865 0.0
H190 H 0.7187 0.81344 0.60926 0.0
H191 H 0.76322 0.86102 0.63425 0.0
H192 H 0.74133 0.92117 0.65494 0.0
H193 H 0.73018 0.79361 0.61908 0.0
H194 H 0.77325 0.84066 0.64576 0.0
C195 C 0.13206 0.8451 0.54203 0.0
C196 C 0.15015 0.85144 0.53651 0.0
C197 C 0.12903 0.84715 0.55804 0.0
C198 C 0.14402 0.85531 0.56895 0.0
C199 C 0.16209 0.86122 0.56343 0.0
C200 C 0.16513 0.85942 0.54735 0.0
C201 C 0.14081 0.85829 0.58584 0.0
C202 C 0.12453 0.84515 0.59352 0.0
C203 C 0.12027 0.84879 0.6088 0.0
C204 C 0.13316 0.86524 0.61692 0.0
C205 C 0.14978 0.87841 0.60961 0.0
C206 C 0.15336 0.87487 0.594 0.0
C207 C 0.16277 0.89655 0.61765 0.0
C208 C 0.15593 0.90625 0.62669 0.0
C209 C 0.18211 0.9049 0.61548 0.0
C210 C 0.19418 0.92296 0.62136 0.0
C211 C 0.1872 0.93285 0.6298 0.0
C212 C 0.10158 0.83634 0.61552 0.0
C213 C 0.08574 0.82939 0.60564 0.0
C214 C 0.09925 0.83214 0.63181 0.0
C215 C 0.08141 0.82152 0.63812 0.0
C216 C 0.06561 0.81499 0.62824 0.0
C217 C 0.06799 0.81879 0.61191 0.0
C218 C 0.16807 0.92419 0.6328 0.0
H219 H 0.12031 0.83914 0.53385 0.0
H220 H 0.11498 0.84282 0.56175 0.0
H221 H 0.17391 0.86731 0.57152 0.0
H222 H 0.1792 0.86427 0.54336 0.0
H223 H 0.11489 0.83216 0.58745 0.0
H224 H 0.16551 0.88549 0.58789 0.0
H225 H 0.12995 0.8681 0.62872 0.0
H226 H 0.14113 0.90043 0.62842 0.0
H227 H 0.1879 0.89767 0.60889 0.0
H228 H 0.20894 0.92938 0.619 0.0
H229 H 0.08698 0.83258 0.59307 0.0
H230 H 0.1112 0.83716 0.6397 0.0
H231 H 0.16239 0.9317 0.63914 0.0
H232 H 0.05608 0.81368 0.60396 0.0
H233 H 0.07996 0.81882 0.65077 0.0
C234 C 0.94527 0.48634 0.79586 0.0
C235 C 0.95704 0.47996 0.80166 0.0
C236 C 0.93975 0.48373 0.77991 0.0
C237 C 0.94605 0.47493 0.76918 0.0
C238 C 0.95807 0.46882 0.7749 0.0
C239 C 0.96344 0.47124 0.79094 0.0
C240 C 0.93953 0.47168 0.75228 0.0
C241 C 0.93637 0.48488 0.74445 0.0
C242 C 0.92782 0.48102 0.72934 0.0
C243 C 0.92337 0.46404 0.72162 0.0
C244 C 0.9273 0.45109 0.72891 0.0
C245 C 0.93526 0.45492 0.74424 0.0
C246 C 0.92205 0.43295 0.72101 0.0
C247 C 0.90366 0.42103 0.71584 0.0
C248 C 0.93516 0.42704 0.71936 0.0
C249 C 0.92986 0.40926 0.71308 0.0
C250 C 0.91122 0.39685 0.70863 0.0
C251 C 0.92252 0.49425 0.72227 0.0
C252 C 0.91601 0.50357 0.73215 0.0
C253 C 0.9236 0.49752 0.70578 0.0
C254 C 0.91837 0.50993 0.6994 0.0
C255 C 0.91227 0.51945 0.70945 0.0
C256 C 0.91111 0.51612 0.72584 0.0
C257 C 0.89826 0.40311 0.70983 0.0
H258 H 0.94026 0.49337 0.80366 0.0
H259 H 0.9302 0.48833 0.77608 0.0
H260 H 0.96335 0.46213 0.76699 0.0
H261 H 0.97232 0.46591 0.79498 0.0
H262 H 0.94041 0.4982 0.75026 0.0
H263 H 0.93726 0.44438 0.75014 0.0
H264 H 0.91652 0.46067 0.71008 0.0
H265 H 0.89328 0.42527 0.7171 0.0
H266 H 0.94948 0.43613 0.7231 0.0
H267 H 0.94034 0.40515 0.71198 0.0
H268 H 0.91438 0.50099 0.74481 0.0
H269 H 0.92864 0.49066 0.69782 0.0
H270 H 0.88374 0.39392 0.70678 0.0
H271 H 0.90602 0.52295 0.73379 0.0
H272 H 0.91929 0.51227 0.68669 0.0
C273 C 0.53032 0.49511 0.78966 0.0
C274 C 0.52551 0.48026 0.80027 0.0
C275 C 0.53269 0.49283 0.77349 0.0
C276 C 0.52989 0.47554 0.76771 0.0
C277 C 0.5252 0.46077 0.77835 0.0
C278 C 0.52314 0.46314 0.79449 0.0
C279 C 0.53174 0.4726 0.75062 0.0
C280 C 0.54823 0.48438 0.74258 0.0
C281 C 0.55096 0.48006 0.72694 0.0
C282 C 0.53691 0.46354 0.71954 0.0
C283 C 0.52048 0.45142 0.72765 0.0
C284 C 0.51772 0.45663 0.74289 0.0
C285 C 0.5075 0.43219 0.72138 0.0
C286 C 0.50407 0.42835 0.70497 0.0
C287 C 0.49941 0.41712 0.73203 0.0
C288 C 0.48847 0.39882 0.72653 0.0
C289 C 0.48573 0.39482 0.71018 0.0
C290 C 0.56916 0.49188 0.71902 0.0
C291 C 0.57931 0.51139 0.72178 0.0
C292 C 0.57702 0.48367 0.70933 0.0
C293 C 0.59466 0.49461 0.70284 0.0
C294 C 0.60515 0.51398 0.70619 0.0
C295 C 0.59714 0.52226 0.71561 0.0
C296 C 0.49332 0.4098 0.69941 0.0
H297 H 0.5323 0.50848 0.7939 0.0
H298 H 0.53635 0.50439 0.76548 0.0
H299 H 0.52318 0.44736 0.77416 0.0
H300 H 0.5193 0.45145 0.80242 0.0
H301 H 0.55931 0.49628 0.74892 0.0
H302 H 0.50492 0.44776 0.74917 0.0
H303 H 0.53911 0.4597 0.70775 0.0
H304 H 0.50987 0.4396 0.69642 0.0
H305 H 0.50198 0.41925 0.74472 0.0
H306 H 0.48239 0.38771 0.73521 0.0
H307 H 0.57363 0.51831 0.72894 0.0
H308 H 0.56985 0.46867 0.70708 0.0
H309 H 0.4914 0.40718 0.68671 0.0
H310 H 0.6048 0.53706 0.71866 0.0
H311 H 0.60016 0.48776 0.69538 0.0
C312 C 0.53787 0.05065 0.79717 0.0
C313 C 0.51973 0.03999 0.8031 0.0
C314 C 0.54078 0.05548 0.78116 0.0
C315 C 0.52562 0.04957 0.7706 0.0
C316 C 0.50747 0.03864 0.77646 0.0
C317 C 0.50456 0.03396 0.79254 0.0
C318 C 0.52885 0.05547 0.75371 0.0
C319 C 0.5441 0.05667 0.74556 0.0
C320 C 0.54897 0.06481 0.73042 0.0
C321 C 0.53698 0.06983 0.72276 0.0
C322 C 0.52105 0.06791 0.73042 0.0
C323 C 0.51748 0.0612 0.74608 0.0
C324 C 0.50866 0.07383 0.72254 0.0
C325 C 0.51577 0.08879 0.71175 0.0
C326 C 0.48959 0.06489 0.72618 0.0
C327 C 0.47825 0.07141 0.72 0.0
C328 C 0.48545 0.08666 0.7095 0.0
C329 C 0.56741 0.06975 0.72346 0.0
C330 C 0.58279 0.07451 0.73353 0.0
C331 C 0.57029 0.07117 0.70691 0.0
C332 C 0.58817 0.07817 0.70072 0.0
C333 C 0.60356 0.08342 0.71089 0.0
C334 C 0.60045 0.08084 0.72733 0.0
C335 C 0.50426 0.09486 0.7051 0.0
H336 H 0.5499 0.0553 0.8049 0.0
H337 H 0.55494 0.06419 0.77714 0.0
H338 H 0.4955 0.03374 0.76863 0.0
H339 H 0.4904 0.0259 0.79674 0.0
H340 H 0.55246 0.05162 0.75126 0.0
H341 H 0.50625 0.06112 0.75266 0.0
H342 H 0.54029 0.07572 0.71099 0.0
H343 H 0.53035 0.09629 0.70868 0.0
H344 H 0.48336 0.05297 0.73406 0.0
H345 H 0.46397 0.06474 0.72393 0.0
H346 H 0.58151 0.07405 0.74634 0.0
H347 H 0.55886 0.06724 0.69865 0.0
H348 H 0.51031 0.10625 0.6967 0.0
H349 H 0.61173 0.08406 0.73559 0.0
H350 H 0.58991 0.07997 0.68799 0.0
C351 C 0.81591 0.61392 0.87792 0.0
C352 C 0.81195 0.62754 0.87212 0.0
C353 C 0.81384 0.60941 0.894 0.0
C354 C 0.80783 0.61843 0.90473 0.0
C355 C 0.80387 0.63208 0.89898 0.0
C356 C 0.806 0.63666 0.88282 0.0
C357 C 0.8053 0.61306 0.92175 0.0
C358 C 0.81822 0.60945 0.92945 0.0
C359 C 0.81477 0.60168 0.9447 0.0
C360 C 0.79852 0.59824 0.95259 0.0
C361 C 0.78553 0.60199 0.94518 0.0
C362 C 0.78911 0.60961 0.92983 0.0
C363 C 0.76722 0.59573 0.9526 0.0
C364 C 0.75692 0.57739 0.95851 0.0
C365 C 0.7594 0.60746 0.95295 0.0
C366 C 0.74144 0.60081 0.95882 0.0
C367 C 0.73098 0.58225 0.96414 0.0
C368 C 0.82702 0.59514 0.95154 0.0
C369 C 0.83279 0.58495 0.94195 0.0
C370 C 0.83227 0.59815 0.96769 0.0
C371 C 0.84305 0.59102 0.97411 0.0
C372 C 0.84849 0.58055 0.96453 0.0
C373 C 0.84337 0.57771 0.94838 0.0
C374 C 0.73891 0.57068 0.96412 0.0
H375 H 0.82075 0.60682 0.87003 0.0
H376 H 0.81671 0.59859 0.89798 0.0
H377 H 0.79924 0.63927 0.90697 0.0
H378 H 0.80274 0.64714 0.87866 0.0
H379 H 0.83082 0.6122 0.92335 0.0
H380 H 0.77869 0.61162 0.92375 0.0
H381 H 0.79553 0.59178 0.9642 0.0
H382 H 0.76251 0.56797 0.95821 0.0
H383 H 0.76708 0.62165 0.94848 0.0
H384 H 0.73545 0.60988 0.95865 0.0
H385 H 0.82875 0.58217 0.92952 0.0
H386 H 0.82804 0.60599 0.97533 0.0
H387 H 0.73101 0.5563 0.96815 0.0
H388 H 0.84759 0.56989 0.9407 0.0
H389 H 0.84684 0.59338 0.98661 0.0
C390 C 0.36202 0.172 0.88411 0.0
C391 C 0.37381 0.18494 0.87271 0.0
C392 C 0.3675 0.17394 0.90011 0.0
C393 C 0.38471 0.18902 0.90506 0.0
C394 C 0.3966 0.20178 0.89375 0.0
C395 C 0.39133 0.19966 0.87776 0.0
C396 C 0.39005 0.19221 0.92205 0.0
C397 C 0.39289 0.17927 0.93062 0.0
C398 C 0.39967 0.18325 0.94644 0.0
C399 C 0.40299 0.20023 0.95363 0.0
C400 C 0.40066 0.21342 0.94495 0.0
C401 C 0.39393 0.20917 0.92928 0.0
C402 C 0.4073 0.23256 0.95139 0.0
C403 C 0.40239 0.23561 0.96664 0.0
C404 C 0.41894 0.24807 0.94203 0.0
C405 C 0.42519 0.26624 0.94756 0.0
C406 C 0.41987 0.26944 0.96258 0.0
C407 C 0.40521 0.17074 0.95468 0.0
C408 C 0.3956 0.15125 0.95173 0.0
C409 C 0.42109 0.17838 0.96463 0.0
C410 C 0.42758 0.167 0.97089 0.0
C411 C 0.41866 0.14773 0.96709 0.0
C412 C 0.40234 0.13994 0.95771 0.0
C413 C 0.4086 0.25395 0.9722 0.0
H414 H 0.34835 0.16062 0.88079 0.0
H415 H 0.35809 0.16402 0.90871 0.0
H416 H 0.41003 0.21343 0.89733 0.0
H417 H 0.40107 0.20959 0.86937 0.0
H418 H 0.39086 0.1667 0.92457 0.0
H419 H 0.39212 0.21932 0.92249 0.0
H420 H 0.40826 0.20366 0.96573 0.0
H421 H 0.39348 0.22384 0.9741 0.0
H422 H 0.42337 0.24614 0.93041 0.0
H423 H 0.43434 0.27785 0.94006 0.0
H424 H 0.38311 0.14474 0.94443 0.0
H425 H 0.42909 0.19332 0.9671 0.0
H426 H 0.40431 0.256 0.98384 0.0
H427 H 0.3951 0.12522 0.95437 0.0
H428 H 0.43992 0.17348 0.97839 0.0
C429 C 0.80076 0.17933 0.87659 0.0
C430 C 0.81893 0.18675 0.87086 0.0
C431 C 0.79773 0.18111 0.89264 0.0
C432 C 0.8128 0.19017 0.90337 0.0
C433 C 0.83098 0.19725 0.89768 0.0
C434 C 0.83402 0.1956 0.88155 0.0
C435 C 0.80939 0.19305 0.92022 0.0
C436 C 0.79388 0.17902 0.92812 0.0
C437 C 0.78821 0.18262 0.94286 0.0
C438 C 0.79982 0.20009 0.95044 0.0
C439 C 0.81628 0.21384 0.94324 0.0
C440 C 0.82062 0.21033 0.92793 0.0
C441 C 0.82856 0.23227 0.95127 0.0
C442 C 0.82107 0.24128 0.96041 0.0
C443 C 0.84797 0.24132 0.94938 0.0
C444 C 0.8595 0.25923 0.95579 0.0
C445 C 0.85199 0.2685 0.96451 0.0
C446 C 0.76956 0.16883 0.94951 0.0
C447 C 0.75504 0.15608 0.93938 0.0
C448 C 0.76557 0.16895 0.96577 0.0
C449 C 0.74749 0.15774 0.97142 0.0
C450 C 0.73295 0.14535 0.96116 0.0
C451 C 0.73727 0.14421 0.94519 0.0
C452 C 0.83266 0.25908 0.96707 0.0
H453 H 0.7889 0.17269 0.86856 0.0
H454 H 0.78356 0.17586 0.89653 0.0
H455 H 0.84286 0.20412 0.90566 0.0
H456 H 0.84817 0.20126 0.87744 0.0
H457 H 0.78603 0.16539 0.92243 0.0
H458 H 0.83236 0.22138 0.92171 0.0
H459 H 0.79602 0.20327 0.96182 0.0
H460 H 0.8062 0.2349 0.96205 0.0
H461 H 0.85431 0.23468 0.94271 0.0
H462 H 0.87426 0.26603 0.95335 0.0
H463 H 0.75695 0.15547 0.92674 0.0
H464 H 0.77622 0.17792 0.97425 0.0
H465 H 0.82636 0.26559 0.97397 0.0
H466 H 0.72689 0.13442 0.93689 0.0
H467 H 0.745 0.15934 0.98379 0.0
C468 C 0.60915 0.81616 0.12945 0.0
C469 C 0.62226 0.81135 0.13487 0.0
C470 C 0.60404 0.81412 0.11342 0.0
C471 C 0.61198 0.80731 0.10235 0.0
C472 C 0.6252 0.80262 0.10772 0.0
C473 C 0.63031 0.80465 0.12381 0.0
C474 C 0.60625 0.80501 0.08531 0.0
C475 C 0.60312 0.81846 0.078 0.0
C476 C 0.59604 0.81576 0.06243 0.0
C477 C 0.59318 0.79989 0.0537 0.0
C478 C 0.59627 0.78615 0.06073 0.0
C479 C 0.60273 0.78887 0.07663 0.0
C480 C 0.59152 0.76837 0.052 0.0
C481 C 0.57646 0.76017 0.04116 0.0
C482 C 0.60141 0.75891 0.055 0.0
C483 C 0.5958 0.74135 0.0481 0.0
C484 C 0.5804 0.73288 0.03763 0.0
C485 C 0.58996 0.82864 0.05604 0.0
C486 C 0.57995 0.8343 0.06586 0.0
C487 C 0.59356 0.83499 0.04027 0.0
C488 C 0.58747 0.84701 0.03456 0.0
C489 C 0.57767 0.85284 0.04453 0.0
C490 C 0.57389 0.84621 0.06019 0.0
C491 C 0.57117 0.74284 0.03392 0.0
H492 H 0.60284 0.82156 0.13762 0.0
H493 H 0.59362 0.81762 0.10975 0.0
H494 H 0.63166 0.79747 0.09947 0.0
H495 H 0.64033 0.80066 0.12764 0.0
H496 H 0.6059 0.83101 0.08457 0.0
H497 H 0.6042 0.77804 0.08257 0.0
H498 H 0.58796 0.798 0.04162 0.0
H499 H 0.56825 0.76675 0.03861 0.0
H500 H 0.61335 0.76489 0.06295 0.0
H501 H 0.60321 0.73417 0.05149 0.0
H502 H 0.57648 0.82923 0.07792 0.0
H503 H 0.60124 0.83086 0.03244 0.0
H504 H 0.55954 0.73711 0.02564 0.0
H505 H 0.56591 0.84995 0.06804 0.0
H506 H 0.59061 0.85192 0.02244 0.0
C507 C 0.19805 0.82738 0.12201 0.0
C508 C 0.18924 0.8123 0.13254 0.0
C509 C 0.20099 0.8242 0.10619 0.0
C510 C 0.19536 0.80589 0.10067 0.0
C511 C 0.18694 0.79092 0.1114 0.0
C512 C 0.1838 0.79407 0.1271 0.0
C513 C 0.19818 0.8023 0.08382 0.0
C514 C 0.21465 0.81462 0.07586 0.0
C515 C 0.21769 0.81089 0.0601 0.0
C516 C 0.20394 0.79447 0.0524 0.0
C517 C 0.18779 0.78168 0.06042 0.0
C518 C 0.18478 0.78596 0.07591 0.0
C519 C 0.17518 0.76285 0.05348 0.0
C520 C 0.16883 0.76053 0.03763 0.0
C521 C 0.17017 0.74688 0.0627 0.0
C522 C 0.15924 0.72896 0.05623 0.0
C523 C 0.15295 0.72657 0.04041 0.0
C524 C 0.23583 0.82332 0.05226 0.0
C525 C 0.2457 0.84277 0.05544 0.0
C526 C 0.24391 0.81571 0.04214 0.0
C527 C 0.26148 0.82711 0.03569 0.0
C528 C 0.27173 0.84638 0.0395 0.0
C529 C 0.26348 0.85411 0.04929 0.0
C530 C 0.1576 0.74248 0.03118 0.0
H531 H 0.20233 0.84157 0.12593 0.0
H532 H 0.20739 0.83603 0.09822 0.0
H533 H 0.1829 0.77671 0.10773 0.0
H534 H 0.17731 0.78225 0.13508 0.0
H535 H 0.22547 0.82664 0.08225 0.0
H536 H 0.17203 0.77628 0.08188 0.0
H537 H 0.20608 0.79116 0.04038 0.0
H538 H 0.17252 0.77265 0.03028 0.0
H539 H 0.17506 0.74822 0.07487 0.0
H540 H 0.15564 0.7169 0.06364 0.0
H541 H 0.23984 0.84926 0.06291 0.0
H542 H 0.23698 0.8008 0.03953 0.0
H543 H 0.15284 0.74092 0.01895 0.0
H544 H 0.27094 0.86883 0.05266 0.0
H545 H 0.26713 0.82068 0.02791 0.0
C546 C 0.20368 0.38692 0.13057 0.0
C547 C 0.18621 0.37315 0.13605 0.0
C548 C 0.20627 0.39148 0.11451 0.0
C549 C 0.19138 0.3825 0.10364 0.0
C550 C 0.17388 0.36869 0.10908 0.0
C551 C 0.17135 0.36391 0.12517 0.0
C552 C 0.19426 0.38824 0.0868 0.0
C553 C 0.20977 0.38995 0.07877 0.0
C554 C 0.21501 0.39879 0.06391 0.0
C555 C 0.20319 0.40432 0.05659 0.0
C556 C 0.18693 0.40173 0.06411 0.0
C557 C 0.18276 0.39387 0.07937 0.0
C558 C 0.17487 0.40822 0.05652 0.0
C559 C 0.18261 0.42455 0.04725 0.0
C560 C 0.1555 0.39838 0.05885 0.0
C561 C 0.1443 0.40503 0.05257 0.0
C562 C 0.15207 0.42149 0.04346 0.0
C563 C 0.23347 0.40361 0.05682 0.0
C564 C 0.24821 0.4055 0.06655 0.0
C565 C 0.23705 0.40752 0.04051 0.0
C566 C 0.25494 0.41436 0.03446 0.0
C567 C 0.26973 0.41662 0.04432 0.0
C568 C 0.26576 0.41127 0.06032 0.0
C569 C 0.17134 0.43095 0.04065 0.0
H570 H 0.21534 0.39418 0.13874 0.0
H571 H 0.21984 0.40235 0.11063 0.0
H572 H 0.16222 0.36162 0.10089 0.0
H573 H 0.15772 0.35334 0.12918 0.0
H574 H 0.21789 0.38467 0.08453 0.0
H575 H 0.17109 0.39299 0.08586 0.0
H576 H 0.20672 0.41106 0.04517 0.0
H577 H 0.19746 0.43274 0.04535 0.0
H578 H 0.14894 0.38557 0.06567 0.0
H579 H 0.12959 0.39744 0.05523 0.0
H580 H 0.24667 0.40314 0.07921 0.0
H581 H 0.22621 0.4057 0.03228 0.0
H582 H 0.17785 0.44344 0.03345 0.0
H583 H 0.27622 0.41182 0.06836 0.0
H584 H 0.25707 0.41832 0.02209 0.0
C585 C 0.47833 0.94478 0.21167 0.0
C586 C 0.47906 0.96132 0.20636 0.0
C587 C 0.47566 0.94004 0.22768 0.0
C588 C 0.47332 0.95151 0.23876 0.0
C589 C 0.47332 0.96767 0.23353 0.0
C590 C 0.47632 0.97264 0.21746 0.0
C591 C 0.47105 0.94629 0.2557 0.0
C592 C 0.48402 0.9425 0.26299 0.0
C593 C 0.48061 0.93412 0.278 0.0
C594 C 0.46423 0.93022 0.28598 0.0
C595 C 0.45132 0.9344 0.27898 0.0
C596 C 0.45493 0.94267 0.26388 0.0
C597 C 0.43317 0.9283 0.28664 0.0
C598 C 0.42247 0.90981 0.29209 0.0
C599 C 0.42602 0.94053 0.28786 0.0
C600 C 0.40837 0.9343 0.29423 0.0
C601 C 0.39738 0.91561 0.29928 0.0
C602 C 0.49322 0.92777 0.28452 0.0
C603 C 0.50096 0.91993 0.27429 0.0
C604 C 0.49708 0.92878 0.30092 0.0
C605 C 0.50819 0.92182 0.30694 0.0
C606 C 0.51567 0.91375 0.29666 0.0
C607 C 0.51214 0.91316 0.28026 0.0
C608 C 0.40475 0.90351 0.29827 0.0
H609 H 0.47975 0.93538 0.20346 0.0
H610 H 0.47534 0.92729 0.23141 0.0
H611 H 0.47147 0.97666 0.24193 0.0
H612 H 0.47689 0.98552 0.21383 0.0
H613 H 0.49655 0.94556 0.25663 0.0
H614 H 0.44462 0.94505 0.25804 0.0
H615 H 0.46112 0.92325 0.29737 0.0
H616 H 0.42755 0.9 0.29105 0.0
H617 H 0.43407 0.95489 0.28384 0.0
H618 H 0.40331 0.94413 0.29509 0.0
H619 H 0.49806 0.91859 0.26163 0.0
H620 H 0.49147 0.93487 0.30911 0.0
H621 H 0.39661 0.88895 0.30174 0.0
H622 H 0.51795 0.90735 0.27198 0.0
H623 H 0.51059 0.9224 0.31965 0.0
C624 C 0.03487 0.50345 0.2161 0.0
C625 C 0.04212 0.51892 0.20583 0.0
C626 C 0.03927 0.50602 0.23238 0.0
C627 C 0.05101 0.52411 0.23873 0.0
C628 C 0.05813 0.53953 0.22843 0.0
C629 C 0.05366 0.53699 0.21226 0.0
C630 C 0.05643 0.5271 0.25589 0.0
C631 C 0.06092 0.51492 0.26387 0.0
C632 C 0.06791 0.51881 0.27959 0.0
C633 C 0.07079 0.53542 0.28715 0.0
C634 C 0.06667 0.54794 0.27924 0.0
C635 C 0.05873 0.54316 0.26392 0.0
C636 C 0.07222 0.5668 0.28617 0.0
C637 C 0.07139 0.56958 0.30264 0.0
C638 C 0.07915 0.58249 0.27614 0.0
C639 C 0.08471 0.60031 0.28229 0.0
C640 C 0.08391 0.60303 0.29865 0.0
C641 C 0.07355 0.50621 0.28749 0.0
C642 C 0.06334 0.48667 0.28484 0.0
C643 C 0.08974 0.51364 0.29701 0.0
C644 C 0.09593 0.50195 0.30316 0.0
C645 C 0.08628 0.48256 0.29974 0.0
C646 C 0.06968 0.47503 0.29077 0.0
C647 C 0.07736 0.58762 0.30885 0.0
H648 H 0.02602 0.48932 0.21154 0.0
H649 H 0.03345 0.49384 0.23999 0.0
H650 H 0.06749 0.55364 0.23278 0.0
H651 H 0.05924 0.54928 0.20481 0.0
H652 H 0.05988 0.50291 0.25753 0.0
H653 H 0.05476 0.5523 0.25799 0.0
H654 H 0.07678 0.5389 0.29901 0.0
H655 H 0.06606 0.55786 0.31072 0.0
H656 H 0.08067 0.58115 0.26349 0.0
H657 H 0.09007 0.61211 0.27427 0.0
H658 H 0.0506 0.48037 0.27785 0.0
H659 H 0.09811 0.52861 0.29925 0.0
H660 H 0.07672 0.58952 0.32155 0.0
H661 H 0.06191 0.46021 0.28775 0.0
H662 H 0.10856 0.50823 0.3103 0.0
C663 C 0.46693 0.51279 0.20968 0.0
C664 C 0.48494 0.51767 0.20479 0.0
C665 C 0.4636 0.51544 0.22546 0.0
C666 C 0.47819 0.52289 0.23674 0.0
C667 C 0.49618 0.52759 0.23187 0.0
C668 C 0.49953 0.52506 0.21603 0.0
C669 C 0.47462 0.52617 0.25341 0.0
C670 C 0.45806 0.51327 0.26083 0.0
C671 C 0.45344 0.5171 0.27589 0.0
C672 C 0.46623 0.53363 0.28402 0.0
C673 C 0.48317 0.54654 0.27696 0.0
C674 C 0.48713 0.54273 0.26158 0.0
C675 C 0.49619 0.56469 0.28496 0.0
C676 C 0.48943 0.57499 0.2932 0.0
C677 C 0.51555 0.57249 0.28344 0.0
C678 C 0.52779 0.59057 0.28916 0.0
C679 C 0.52095 0.60115 0.29672 0.0
C680 C 0.43463 0.50456 0.28237 0.0
C681 C 0.41901 0.49712 0.27217 0.0
C682 C 0.43195 0.50037 0.29865 0.0
C683 C 0.414 0.48915 0.3046 0.0
C684 C 0.39843 0.48198 0.29437 0.0
C685 C 0.40117 0.48589 0.27807 0.0
C686 C 0.50171 0.59301 0.29909 0.0
H687 H 0.45549 0.5074 0.20119 0.0
H688 H 0.44966 0.51207 0.22872 0.0
H689 H 0.50766 0.53317 0.24031 0.0
H690 H 0.51353 0.52881 0.21257 0.0
H691 H 0.44853 0.50027 0.25471 0.0
H692 H 0.49958 0.5531 0.25563 0.0
H693 H 0.46276 0.5367 0.29565 0.0
H694 H 0.47462 0.56954 0.29444 0.0
H695 H 0.52125 0.56478 0.27747 0.0
H696 H 0.54259 0.59646 0.28738 0.0
H697 H 0.4205 0.50029 0.2596 0.0
H698 H 0.44371 0.50576 0.30679 0.0
H699 H 0.49607 0.60096 0.30476 0.0
H700 H 0.38949 0.48033 0.26984 0.0
H701 H 0.4123 0.48642 0.31724 0.0
O702 O 0.47594 0.97926 0.00655 0.0
Mn703 Mn 0.50263 0.00229 0.0054 0.0
O704 O 0.46587 0.98736 0.02812 0.0
Mn705 Mn 0.48106 0.0132 0.02669 0.0
O706 O 0.52973 0.02605 0.00437 0.0
O707 O 0.51341 0.98492 0.00257 0.0
Mn708 Mn 0.53104 0.99681 0.98801 0.0
O709 O 0.4985 0.00342 0.98106 0.0
O710 O 0.54925 0.01503 0.00052 0.0
O711 O 0.50654 0.00136 0.03051 0.0
O712 O 0.50095 0.02325 0.04012 0.0
O713 O 0.52295 0.972 0.9852 0.0
O714 O 0.52466 0.00655 0.97095 0.0
C715 C 0.47935 0.02338 0.00438 0.0
C716 C 0.46372 0.97562 0.01725 0.0
C717 C 0.54623 0.02817 0.00464 0.0
C718 C 0.5109 0.96943 0.99605 0.0
C719 C 0.50966 0.00691 0.96951 0.0
C720 C 0.5072 0.01216 0.04209 0.0
O721 O 0.4928 0.02038 0.00832 0.0
O722 O 0.46916 0.0232 0.01608 0.0
O723 O 0.01675 0.48886 0.00759 0.0
Mn724 Mn 0.99743 0.49761 0.00448 0.0
O725 O 0.00373 0.46597 0.02596 0.0
Mn726 Mn 0.98084 0.46488 0.02796 0.0
O727 O 0.97792 0.50624 0.00179 0.0
O728 O 0.01839 0.52381 -0.00062 0.0
Mn729 Mn 0.01272 0.53029 0.98121 0.0
O730 O 0.99346 0.48885 0.98022 0.0
O731 O 0.99103 0.53096 0.98523 0.0
O732 O 0.00108 0.50616 0.02892 0.0
O733 O 0.97962 0.48122 0.04206 0.0
O734 O 0.035 0.55035 0.98689 0.0
O735 O 0.01169 0.51414 0.9657 0.0
C736 C 0.96314 0.45432 0.00773 0.0
C737 C 0.01705 0.47651 0.0167 0.0
C738 C 0.9778 0.51966 0.99418 0.0
C739 C 0.0327 0.54069 -0.00037 0.0
C740 C 0.00088 0.49662 0.96691 0.0
C741 C 0.99176 0.49851 0.04165 0.0
O742 O 0.97684 0.47136 0.00923 0.0
O743 O 0.95976 0.44425 0.02036 0.0
O744 O 0.52659 0.50655 7e-05 0.0
Mn745 Mn 0.49921 0.50073 0.00089 0.0
O746 O 0.53889 0.52849 0.98092 0.0
Mn747 Mn 0.5193 0.53333 0.97884 0.0
O748 O 0.47186 0.49531 0.00135 0.0
O749 O 0.49051 0.47253 0.00359 0.0
Mn750 Mn 0.47897 0.46884 0.02188 0.0
O751 O 0.5019 0.50758 0.0257 0.0
O752 O 0.4596 0.47384 0.02057 0.0
O753 O 0.49611 0.49386 0.97634 0.0
O754 O 0.50161 0.51969 0.96372 0.0
O755 O 0.4745 0.44582 0.01733 0.0
O756 O 0.49683 0.48138 0.0369 0.0
C757 C 0.51354 0.54634 0.99776 0.0
C758 C 0.53992 0.51733 0.99084 0.0
C759 C 0.45852 0.48491 0.01069 0.0
C760 C 0.48496 0.45463 0.00533 0.0
C761 C 0.50193 0.49852 0.03807 0.0
C762 C 0.49519 0.50216 0.96377 0.0
O763 O 0.50836 0.52854 0.99755 0.0
O764 O 0.52218 0.55573 0.98528 0.0
O765 O 0.14045 0.315 0.34041 0.0
Mn766 Mn 0.16804 0.33586 0.33833 0.0
O767 O 0.12852 0.32589 0.35904 0.0
Mn768 Mn 0.14949 0.34941 0.36267 0.0
O769 O 0.19586 0.35688 0.33664 0.0
O770 O 0.17421 0.31585 0.3319 0.0
Mn771 Mn 0.18816 0.3234 0.31486 0.0
O772 O 0.16313 0.34026 0.31447 0.0
O773 O 0.20978 0.34478 0.32147 0.0
O774 O 0.17301 0.3317 0.3623 0.0
O775 O 0.16688 0.35086 0.37692 0.0
O776 O 0.18514 0.30034 0.31903 0.0
O777 O 0.17484 0.32629 0.29901 0.0
C778 C 0.15705 0.36852 0.34356 0.0
C779 C 0.12707 0.31332 0.34915 0.0
C780 C 0.21032 0.35769 0.33036 0.0
C781 C 0.17703 0.30169 0.33171 0.0
C782 C 0.16589 0.33493 0.30082 0.0
C783 C 0.17377 0.34021 0.37548 0.0
O784 O 0.16101 0.35521 0.34441 0.0
O785 O 0.14921 0.37049 0.35612 0.0
O786 O 0.68731 0.82605 0.33846 0.0
Mn787 Mn 0.66556 0.83176 0.3375 0.0
O788 O 0.68079 0.80993 0.36091 0.0
Mn789 Mn 0.6554 0.80104 0.36081 0.0
O790 O 0.64414 0.83806 0.33628 0.0
O791 O 0.68459 0.85852 0.3323 0.0
Mn792 Mn 0.67718 0.86558 0.31543 0.0
O793 O 0.6613 0.82373 0.3132 0.0
O794 O 0.6549 0.86399 0.32117 0.0
O795 O 0.6692 0.8396 0.36209 0.0
O796 O 0.64888 0.81365 0.37489 0.0
O797 O 0.69931 0.88611 0.3213 0.0
O798 O 0.67606 0.85027 0.29902 0.0
C799 C 0.64055 0.78761 0.33944 0.0
C800 C 0.69191 0.81891 0.34981 0.0
C801 C 0.64245 0.85123 0.32979 0.0
C802 C 0.69868 0.87542 0.3328 0.0
C803 C 0.66725 0.8325 0.29997 0.0
C804 C 0.65961 0.83134 0.3746 0.0
O805 O 0.64616 0.80502 0.34301 0.0
O806 O 0.6426 0.77834 0.35088 0.0
O807 O 0.1947 0.84415 0.33075 0.0
Mn808 Mn 0.1665 0.83393 0.33368 0.0
O809 O 0.20185 0.86425 0.31031 0.0
Mn810 Mn 0.17954 0.86472 0.3088 0.0
O811 O 0.13826 0.82368 0.33653 0.0
O812 O 0.16255 0.80783 0.33869 0.0
Mn813 Mn 0.15452 0.80441 0.35835 0.0
O814 O 0.17031 0.84349 0.35768 0.0
O815 O 0.13206 0.80465 0.35755 0.0
O816 O 0.16251 0.82466 0.30975 0.0
O817 O 0.16146 0.84687 0.29574 0.0
O818 O 0.15472 0.78306 0.35377 0.0
O819 O 0.17402 0.82225 0.37011 0.0
C820 C 0.17298 0.87639 0.3287 0.0
C821 C 0.20615 0.85533 0.32037 0.0
C822 C 0.12714 0.81268 0.34715 0.0
C823 C 0.16042 0.79108 0.34014 0.0
C824 C 0.17463 0.83783 0.37031 0.0
C825 C 0.15901 0.83044 0.29674 0.0
O826 O 0.17053 0.85956 0.32814 0.0
O827 O 0.17859 0.8855 0.31552 0.0
O828 O 0.808 0.64769 0.67287 0.0
Mn829 Mn 0.83542 0.66896 0.67118 0.0
O830 O 0.79807 0.65694 0.69408 0.0
Mn831 Mn 0.81652 0.68207 0.69497 0.0
O832 O 0.86308 0.69062 0.66984 0.0
O833 O 0.84261 0.64921 0.66603 0.0
Mn834 Mn 0.85738 0.65718 0.64944 0.0
O835 O 0.83098 0.67228 0.64688 0.0
O836 O 0.87829 0.67915 0.65573 0.0
O837 O 0.83995 0.66598 0.69573 0.0
O838 O 0.83592 0.68768 0.70844 0.0
O839 O 0.85558 0.63482 0.65401 0.0
O840 O 0.84398 0.65858 0.63273 0.0
C841 C 0.81771 0.69557 0.67355 0.0
C842 C 0.79569 0.64498 0.68326 0.0
C843 C 0.87799 0.69199 0.66404 0.0
C844 C 0.8453 0.63494 0.66552 0.0
C845 C 0.83429 0.66656 0.63363 0.0
C846 C 0.84181 0.67609 0.70824 0.0
O847 O 0.82811 0.68835 0.67665 0.0
O848 O 0.80918 0.69734 0.68572 0.0
O849 O 0.3563 0.16242 0.67226 0.0
Mn850 Mn 0.33196 0.16451 0.66972 0.0
O851 O 0.34546 0.13206 0.67203 0.0
Mn852 Mn 0.32671 0.13042 0.68432 0.0
O853 O 0.30724 0.16662 0.6684 0.0
O854 O 0.35171 0.19325 0.66664 0.0
Mn855 Mn 0.33395 0.19372 0.65458 0.0
O856 O 0.33143 0.15841 0.6456 0.0
O857 O 0.3181 0.19681 0.6672 0.0
O858 O 0.33279 0.16926 0.69436 0.0
O859 O 0.33259 0.1435 0.70334 0.0
O860 O 0.35303 0.21453 0.64858 0.0
O861 O 0.32387 0.17875 0.63675 0.0
C862 C 0.30106 0.11832 0.67427 0.0
C863 C 0.35906 0.14846 0.67138 0.0
C864 C 0.30504 0.18087 0.6706 0.0
C865 C 0.36087 0.20979 0.65956 0.0
C866 C 0.32612 0.16491 0.63436 0.0
C867 C 0.3335 0.15923 0.70574 0.0
O868 O 0.31292 0.13627 0.67237 0.0
O869 O 0.30559 0.10865 0.68352 0.0
O870 O 0.86021 0.17234 0.66702 0.0
Mn871 Mn 0.83283 0.16658 0.66749 0.0
O872 O 0.87413 0.19674 0.65017 0.0
Mn873 Mn 0.8544 0.20116 0.64749 0.0
O874 O 0.80544 0.16086 0.66799 0.0
O875 O 0.82395 0.13867 0.6697 0.0
Mn876 Mn 0.81174 0.13261 0.68772 0.0
O877 O 0.83489 0.17213 0.6924 0.0
O878 O 0.79231 0.13762 0.68591 0.0
O879 O 0.83077 0.1612 0.64254 0.0
O880 O 0.83766 0.18839 0.63164 0.0
O881 O 0.80924 0.11064 0.68086 0.0
O882 O 0.82891 0.14527 0.70325 0.0
C883 C 0.84654 0.21203 0.66647 0.0
C884 C 0.87433 0.18439 0.65915 0.0
C885 C 0.79176 0.1496 0.6767 0.0
C886 C 0.81927 0.121 0.66925 0.0
C887 C 0.83422 0.16251 0.70462 0.0
C888 C 0.83184 0.17102 0.63033 0.0
O889 O 0.84187 0.19444 0.66529 0.0
O890 O 0.85623 0.22274 0.65491 0.0
H891 H 0.29003 0.88374 0.03125 0.0
H892 H 0.32273 0.90329 0.02451 0.0
H893 H 0.33022 0.85509 0.02745 0.0
H894 H 0.29805 0.8358 0.03557 0.0
H895 H 0.35721 0.88327 0.04235 0.0
H896 H 0.32779 0.87633 0.99047 0.0
H897 H 0.30589 0.8786 0.9719 0.0
H898 H 0.33163 0.93781 0.98157 0.0
H899 H 0.35355 0.93586 0.00031 0.0
H900 H 0.45126 0.93754 0.01483 0.0
H901 H 0.41828 0.91221 0.0149 0.0
H902 H 0.40108 0.95387 0.01536 0.0
H903 H 0.43342 0.97872 0.01522 0.0
H904 H 0.37929 0.92595 0.99617 0.0
H905 H 0.40438 0.93453 0.04909 0.0
H906 H 0.42541 0.93541 0.07033 0.0
H907 H 0.40719 0.87713 0.0618 0.0
H908 H 0.38627 0.876 0.04031 0.0
C909 C 0.29862 0.87727 0.0306 0.0
C910 C 0.29126 0.85811 0.03399 0.0
C911 C 0.3173 0.88844 0.02646 0.0
C912 C 0.32889 0.88059 0.02516 0.0
C913 C 0.32153 0.86144 0.02826 0.0
C914 C 0.30298 0.85035 0.03272 0.0
C915 C 0.34894 0.89248 0.02147 0.0
C916 C 0.36203 0.89227 0.03203 0.0
C917 C 0.35526 0.90474 0.00834 0.0
C918 C 0.34226 0.90591 0.99684 0.0
C919 C 0.32874 0.88981 0.98867 0.0
C920 C 0.31633 0.89105 0.97811 0.0
C921 C 0.31736 0.90833 0.97557 0.0
C922 C 0.33085 0.92443 0.98354 0.0
C923 C 0.34329 0.92327 0.9941 0.0
C924 C 0.44031 0.94109 0.01464 0.0
C925 C 0.44468 0.95992 0.01514 0.0
C926 C 0.42159 0.92673 0.01477 0.0
C927 C 0.40727 0.93122 0.01524 0.0
C928 C 0.41183 0.95007 0.01494 0.0
C929 C 0.43032 0.96423 0.01495 0.0
C930 C 0.38747 0.9167 0.01704 0.0
C931 C 0.37443 0.91651 0.00622 0.0
C932 C 0.38117 0.90451 0.03019 0.0
C933 C 0.39401 0.90526 0.0429 0.0
C934 C 0.40504 0.92197 0.0516 0.0
C935 C 0.4169 0.9225 0.06371 0.0
C936 C 0.4177 0.90636 0.06736 0.0
C937 C 0.40662 0.88965 0.05891 0.0
C938 C 0.39477 0.88905 0.04675 0.0
H939 H 0.42686 0.90678 0.07677 0.0
H940 H 0.30772 0.90925 0.96742 0.0
H941 H 0.11548 0.40196 0.03343 0.0
H942 H 0.09563 0.41465 0.02603 0.0
H943 H 0.14215 0.47101 0.03122 0.0
H944 H 0.16169 0.4585 0.04015 0.0
H945 H 0.114 0.46955 0.04455 0.0
H946 H 0.12218 0.44768 0.99343 0.0
H947 H 0.12155 0.42455 0.97419 0.0
H948 H 0.06282 0.3891 0.98129 0.0
H949 H 0.06313 0.41183 0.00075 0.0
H950 H 0.05398 0.50306 0.01382 0.0
H951 H 0.08062 0.49763 0.01527 0.0
H952 H 0.04266 0.43814 0.02003 0.0
H953 H 0.01632 0.44348 0.01885 0.0
H954 H 0.07047 0.44617 0.99845 0.0
H955 H 0.06223 0.46398 0.0513 0.0
H956 H 0.06134 0.4847 0.07219 0.0
H957 H 0.11852 0.52537 0.0634 0.0
H958 H 0.11963 0.50507 0.04216 0.0
C959 C 0.12153 0.41707 0.03317 0.0
C960 C 0.14028 0.42915 0.03748 0.0
C961 C 0.11019 0.42432 0.02861 0.0
C962 C 0.11746 0.44382 0.02772 0.0
C963 C 0.13624 0.45592 0.03169 0.0
C964 C 0.14748 0.44869 0.03662 0.0
C965 C 0.10521 0.4516 0.0237 0.0
C966 C 0.10482 0.46477 0.03423 0.0
C967 C 0.09289 0.44506 0.01044 0.0
C968 C 0.09272 0.43145 0.99862 0.0
C969 C 0.10915 0.43491 0.99096 0.0
C970 C 0.10884 0.42186 0.98001 0.0
C971 C 0.09216 0.40536 0.97654 0.0
C972 C 0.07574 0.40188 0.98399 0.0
C973 C 0.07597 0.41485 0.99496 0.0
C974 C 0.05144 0.48885 0.01502 0.0
C975 C 0.03319 0.47367 0.01631 0.0
C976 C 0.06659 0.48579 0.01591 0.0
C977 C 0.06354 0.46749 0.0178 0.0
C978 C 0.04528 0.45235 0.01856 0.0
C979 C 0.03027 0.45542 0.01796 0.0
C980 C 0.07909 0.46371 0.01945 0.0
C981 C 0.08008 0.4513 0.00849 0.0
C982 C 0.09175 0.47073 0.03242 0.0
C983 C 0.0909 0.48317 0.04488 0.0
C984 C 0.07452 0.47748 0.0536 0.0
C985 C 0.074 0.48912 0.06556 0.0
C986 C 0.08983 0.50638 0.06906 0.0
C987 C 0.10623 0.51204 0.06061 0.0
C988 C 0.1068 0.50049 0.04859 0.0
H989 H 0.08942 0.51534 0.07836 0.0
H990 H 0.09196 0.39528 0.96806 0.0
H991 H 0.6001 0.7148 0.03061 0.0
H992 H 0.58752 0.6814 0.02551 0.0
H993 H 0.53189 0.67314 0.02456 0.0
H994 H 0.54408 0.70596 0.03126 0.0
H995 H 0.53206 0.64957 0.04298 0.0
H996 H 0.55518 0.6681 0.99055 0.0
H997 H 0.57838 0.68623 0.97012 0.0
H998 H 0.61268 0.664 0.98608 0.0
H999 H 0.58978 0.6459 0.00676 0.0
H1000 H 0.48913 0.55791 0.00492 0.0
H1001 H 0.50003 0.58955 0.01553 0.0
H1002 H 0.55156 0.59312 0.03024 0.0
H1003 H 0.54037 0.56124 0.02011 0.0
H1004 H 0.5543 0.61869 0.00521 0.0
H1005 H 0.53031 0.60176 0.05863 0.0
H1006 H 0.50812 0.58771 0.08051 0.0
H1007 H 0.47372 0.60785 0.06035 0.0
H1008 H 0.4959 0.62217 0.03837 0.0
C1009 C 0.58516 0.70591 0.02941 0.0
C1010 C 0.57317 0.71324 0.03168 0.0
C1011 C 0.578 0.68679 0.02616 0.0
C1012 C 0.55871 0.67465 0.02461 0.0
C1013 C 0.54682 0.68216 0.02579 0.0
C1014 C 0.55391 0.70112 0.02944 0.0
C1015 C 0.5507 0.65394 0.02362 0.0
C1016 C 0.53672 0.64287 0.03444 0.0
C1017 C 0.55713 0.64512 0.01288 0.0
C1018 C 0.57084 0.65578 0.00032 0.0
C1019 C 0.56773 0.66717 0.98978 0.0
C1020 C 0.58082 0.67742 0.97814 0.0
C1021 C 0.59702 0.67631 0.97683 0.0
C1022 C 0.60013 0.66487 0.98712 0.0
C1023 C 0.58708 0.65458 0.9988 0.0
C1024 C 0.50215 0.56488 0.01153 0.0
C1025 C 0.51387 0.55714 0.01179 0.0
C1026 C 0.50854 0.58312 0.01734 0.0
C1027 C 0.52677 0.5938 0.02334 0.0
C1028 C 0.53749 0.58514 0.02556 0.0
C1029 C 0.53092 0.56676 0.02005 0.0
C1030 C 0.53559 0.61453 0.02447 0.0
C1031 C 0.54968 0.62554 0.01363 0.0
C1032 C 0.52899 0.62335 0.03487 0.0
C1033 C 0.51462 0.61285 0.04685 0.0
C1034 C 0.51782 0.60285 0.05871 0.0
C1035 C 0.50529 0.59495 0.0712 0.0
C1036 C 0.48948 0.5969 0.07184 0.0
C1037 C 0.48598 0.6064 0.05984 0.0
C1038 C 0.49853 0.61442 0.0474 0.0
H1039 H 0.48001 0.59131 0.08169 0.0
H1040 H 0.60715 0.68429 0.96783 0.0
H1041 H 0.88842 0.28596 0.97511 0.0
H1042 H 0.90929 0.31952 0.97956 0.0
H1043 H 0.86371 0.32967 0.97121 0.0
H1044 H 0.84316 0.29649 0.96554 0.0
H1045 H 0.89114 0.35262 0.95466 0.0
H1046 H 0.8843 0.33391 0.00882 0.0
H1047 H 0.88436 0.31557 0.03186 0.0
H1048 H 0.94279 0.33628 0.02587 0.0
H1049 H 0.94305 0.35457 0.00262 0.0
H1050 H 0.92888 0.44198 0.99519 0.0
H1051 H 0.91157 0.41055 0.98329 0.0
H1052 H 0.96284 0.40996 0.97712 0.0
H1053 H 0.98021 0.44173 0.98841 0.0
H1054 H 0.93522 0.38252 -0.00019 0.0
H1055 H 0.93995 0.40332 0.94554 0.0
H1056 H 0.93712 0.42222 0.92428 0.0
H1057 H 0.87886 0.3981 0.93364 0.0
H1058 H 0.88128 0.37909 0.95508 0.0
C1059 C 0.88282 0.29531 0.97417 0.0
C1060 C 0.86409 0.28842 0.96974 0.0
C1061 C 0.89475 0.31452 0.97694 0.0
C1062 C 0.88811 0.32718 0.9757 0.0
C1063 C 0.86922 0.32021 0.97213 0.0
C1064 C 0.85738 0.3011 0.96909 0.0
C1065 C 0.90098 0.3478 0.97694 0.0
C1066 C 0.90062 0.3591 0.96465 0.0
C1067 C 0.91367 0.35632 0.98979 0.0
C1068 C 0.91364 0.34544 0.00383 0.0
C1069 C 0.89714 0.33444 0.01232 0.0
C1070 C 0.89712 0.32408 0.02544 0.0
C1071 C 0.91355 0.32471 0.03029 0.0
C1072 C 0.93006 0.33578 0.02207 0.0
C1073 C 0.93016 0.34616 0.00893 0.0
C1074 C 0.93656 0.43575 0.99014 0.0
C1075 C 0.95583 0.44425 0.99266 0.0
C1076 C 0.92664 0.41761 0.98365 0.0
C1077 C 0.93592 0.4078 0.97972 0.0
C1078 C 0.95543 0.41726 0.98021 0.0
C1079 C 0.96537 0.43559 0.98633 0.0
C1080 C 0.92511 0.38713 0.97761 0.0
C1081 C 0.92585 0.37586 0.98977 0.0
C1082 C 0.91234 0.37864 0.96494 0.0
C1083 C 0.91083 0.38989 0.95197 0.0
C1084 C 0.92656 0.40214 0.94313 0.0
C1085 C 0.92503 0.41286 0.93104 0.0
C1086 C 0.90788 0.41145 0.92764 0.0
C1087 C 0.89215 0.39921 0.93629 0.0
C1088 C 0.89357 0.38841 0.94839 0.0
H1089 H 0.90678 0.41981 0.91827 0.0
H1090 H 0.91351 0.31667 0.04044 0.0
H1091 H 0.71667 0.59329 0.98841 0.0
H1092 H 0.68359 0.57969 0.99533 0.0
H1093 H 0.66828 0.54037 0.95613 0.0
H1094 H 0.7012 0.55362 0.94946 0.0
H1095 H 0.6483 0.56019 0.95764 0.0
H1096 H 0.66675 0.52469 0.99105 0.0
H1097 H 0.68571 0.52068 0.01162 0.0
H1098 H 0.66917 0.54828 0.04602 0.0
H1099 H 0.65035 0.55275 0.02557 0.0
H1100 H 0.55372 0.50325 0.96921 0.0
H1101 H 0.58627 0.51111 0.96704 0.0
H1102 H 0.59905 0.54206 0.01142 0.0
H1103 H 0.56624 0.53339 0.0139 0.0
H1104 H 0.62082 0.52718 0.00811 0.0
H1105 H 0.60289 0.56328 0.97564 0.0
H1106 H 0.584 0.56818 0.95558 0.0
H1107 H 0.60029 0.5417 0.91991 0.0
H1108 H 0.619 0.5363 0.93983 0.0
C1109 C 0.70616 0.58171 0.98136 0.0
C1110 C 0.71129 0.57438 0.96847 0.0
C1111 C 0.68738 0.57394 0.98533 0.0
C1112 C 0.67358 0.55899 0.97626 0.0
C1113 C 0.67875 0.55186 0.96328 0.0
C1114 C 0.69748 0.55937 0.95951 0.0
C1115 C 0.65365 0.551 0.97994 0.0
C1116 C 0.64222 0.55278 0.96859 0.0
C1117 C 0.64594 0.54186 0.99444 0.0
C1118 C 0.65733 0.53927 0.00672 0.0
C1119 C 0.66732 0.5301 0.00295 0.0
C1120 C 0.67801 0.5277 0.0146 0.0
C1121 C 0.67869 0.53428 0.03011 0.0
C1122 C 0.66866 0.54323 0.034 0.0
C1123 C 0.65798 0.5457 0.02238 0.0
C1124 C 0.56341 0.5111 0.97876 0.0
C1125 C 0.55769 0.51769 0.99175 0.0
C1126 C 0.58198 0.51574 0.97746 0.0
C1127 C 0.59518 0.52763 0.98884 0.0
C1128 C 0.58913 0.53297 0.00247 0.0
C1129 C 0.57044 0.52799 0.00392 0.0
C1130 C 0.61535 0.53609 0.98568 0.0
C1131 C 0.62686 0.53456 0.99715 0.0
C1132 C 0.62324 0.54573 0.97135 0.0
C1133 C 0.6122 0.54921 0.95928 0.0
C1134 C 0.60235 0.55839 0.96355 0.0
C1135 C 0.59167 0.56126 0.9522 0.0
C1136 C 0.5909 0.55521 0.93649 0.0
C1137 C 0.60086 0.54634 0.93209 0.0
C1138 C 0.61151 0.54337 0.94341 0.0
H1139 H 0.58261 0.55744 0.92773 0.0
H1140 H 0.68696 0.53238 0.03912 0.0
H1141 H 0.45578 0.15868 0.96988 0.0
H1142 H 0.46947 0.13914 0.9753 0.0
H1143 H 0.41461 0.09059 0.97912 0.0
H1144 H 0.40075 0.11033 0.97512 0.0
H1145 H 0.43628 0.088 -0.00032 0.0
H1146 H 0.44197 0.1027 0.9436 0.0
H1147 H 0.45186 0.12392 0.92061 0.0
H1148 H 0.50892 0.14866 0.93576 0.0
H1149 H 0.49934 0.12771 0.95893 0.0
H1150 H 0.45123 0.01453 0.98402 0.0
H1151 H 0.44396 0.03844 0.97542 0.0
H1152 H 0.50004 0.08169 0.98688 0.0
H1153 H 0.50726 0.05769 0.99575 0.0
H1154 H 0.48064 0.08893 0.95974 0.0
H1155 H 0.47442 0.07235 0.01513 0.0
H1156 H 0.464 0.0515 0.03834 0.0
H1157 H 0.40698 0.02999 0.02437 0.0
H1158 H 0.41707 0.0505 0.00092 0.0
C1159 C 0.44654 0.14396 0.97231 0.0
C1160 C 0.42706 0.13611 0.97184 0.0
C1161 C 0.45445 0.13271 0.97514 0.0
C1162 C 0.44309 0.11327 0.9771 0.0
C1163 C 0.42369 0.10552 0.97742 0.0
C1164 C 0.41576 0.11682 0.97493 0.0
C1165 C 0.45128 0.10085 0.97828 0.0
C1166 C 0.44581 0.08809 0.99084 0.0
C1167 C 0.46417 0.10129 0.967 0.0
C1168 C 0.46993 0.11377 0.95304 0.0
C1169 C 0.45662 0.11274 0.94206 0.0
C1170 C 0.46216 0.12471 0.929 0.0
C1171 C 0.481 0.13766 0.92674 0.0
C1172 C 0.49434 0.13864 0.93753 0.0
C1173 C 0.48886 0.12671 0.95061 0.0
C1174 C 0.46238 0.02903 0.98364 0.0
C1175 C 0.47974 0.03433 0.99064 0.0
C1176 C 0.45809 0.04271 0.97905 0.0
C1177 C 0.4713 0.06177 0.98104 0.0
C1178 C 0.48962 0.067 0.98544 0.0
C1179 C 0.49386 0.05325 0.9902 0.0
C1180 C 0.46518 0.07584 0.98083 0.0
C1181 C 0.47113 0.08892 0.96855 0.0
C1182 C 0.45261 0.07562 0.99231 0.0
C1183 C 0.44653 0.06277 0.00611 0.0
C1184 C 0.45967 0.06296 0.01685 0.0
C1185 C 0.45382 0.05126 0.0301 0.0
C1186 C 0.43484 0.03937 0.03279 0.0
C1187 C 0.42168 0.03916 0.02224 0.0
C1188 C 0.42746 0.05082 0.00897 0.0
H1189 H 0.43034 0.03036 0.04308 0.0
H1190 H 0.48527 0.14692 0.91662 0.0
H1191 H 0.70037 0.1322 0.94363 0.0
H1192 H 0.66874 0.11451 0.95271 0.0
H1193 H 0.68833 0.11794 0.00091 0.0
H1194 H 0.72019 0.13311 0.99164 0.0
H1195 H 0.66035 0.08583 0.99655 0.0
H1196 H 0.67076 0.14847 0.98284 0.0
H1197 H 0.67974 0.17434 0.96386 0.0
H1198 H 0.63703 0.13669 0.93131 0.0
H1199 H 0.62788 0.11061 0.95004 0.0
H1200 H 0.57179 0.04754 0.02799 0.0
H1201 H 0.60373 0.07292 0.02323 0.0
H1202 H 0.58967 0.07376 0.97381 0.0
H1203 H 0.55764 0.04968 0.97895 0.0
H1204 H 0.61546 0.10605 0.98062 0.0
H1205 H 0.60688 0.04421 0.98912 0.0
H1206 H 0.5976 0.01512 0.00401 0.0
H1207 H 0.63573 0.04719 0.0417 0.0
H1208 H 0.64513 0.07648 0.02706 0.0
C1209 C 0.69823 0.1288 0.95611 0.0
C1210 C 0.71328 0.13437 0.96682 0.0
C1211 C 0.6799 0.11906 0.96138 0.0
C1212 C 0.67606 0.11556 0.97761 0.0
C1213 C 0.69091 0.12076 0.98833 0.0
C1214 C 0.70926 0.12978 0.98298 0.0
C1215 C 0.65659 0.10611 0.98341 0.0
C1216 C 0.65068 0.09054 0.99334 0.0
C1217 C 0.64365 0.1117 0.97871 0.0
C1218 C 0.64866 0.12762 0.96783 0.0
C1219 C 0.66327 0.14575 0.97165 0.0
C1220 C 0.6684 0.16043 0.96093 0.0
C1221 C 0.65897 0.15715 0.94639 0.0
C1222 C 0.6443 0.13922 0.94258 0.0
C1223 C 0.6391 0.12451 0.95327 0.0
C1224 C 0.5754 0.05397 0.01638 0.0
C1225 C 0.56241 0.047 0.00386 0.0
C1226 C 0.59367 0.06818 0.01356 0.0
C1227 C 0.59929 0.07478 0.99802 0.0
C1228 C 0.58578 0.06892 0.98589 0.0
C1229 C 0.56744 0.05522 0.98883 0.0
C1230 C 0.6193 0.08587 0.99385 0.0
C1231 C 0.62528 0.10164 0.98414 0.0
C1232 C 0.63217 0.0801 0.9983 0.0
C1233 C 0.62654 0.06252 0.0071 0.0
C1234 C 0.6132 0.04505 0.00062 0.0
C1235 C 0.60793 0.02853 0.009 0.0
C1236 C 0.61603 0.02931 0.02381 0.0
C1237 C 0.62945 0.04661 0.03024 0.0
C1238 C 0.63476 0.06317 0.02191 0.0
H1239 H 0.61193 0.01651 0.03028 0.0
H1240 H 0.66302 0.16852 0.93808 0.0
H1241 H 0.84186 0.54477 0.96105 0.0
H1242 H 0.86169 0.53226 0.96979 0.0
H1243 H 0.89991 0.58579 0.99146 0.0
H1244 H 0.88009 0.5984 0.98272 0.0
H1245 H 0.91628 0.57154 0.9701 0.0
H1246 H 0.87498 0.55051 0.0152 0.0
H1247 H 0.84394 0.53442 0.02748 0.0
H1248 H 0.83219 0.48255 0.0049 0.0
H1249 H 0.86313 0.49839 0.99237 0.0
H1250 H 0.97941 0.55153 0.00431 0.0
H1251 H 0.95445 0.55913 0.00347 0.0
H1252 H 0.91608 0.50298 0.98652 0.0
H1253 H 0.94105 0.49508 0.98811 0.0
H1254 H 0.8985 0.51705 0.00537 0.0
H1255 H 0.9378 0.53623 0.96002 0.0
H1256 H 0.96777 0.55099 0.94598 0.0
H1257 H 0.98171 0.60466 0.96615 0.0
H1258 H 0.95191 0.59016 0.98051 0.0
C1259 C 0.85441 0.5538 0.96781 0.0
C1260 C 0.85954 0.57256 0.97116 0.0
C1261 C 0.86564 0.54661 0.97287 0.0
C1262 C 0.88219 0.55811 0.9813 0.0
C1263 C 0.88713 0.57672 0.985 0.0
C1264 C 0.87579 0.58386 0.98008 0.0
C1265 C 0.89502 0.55112 0.9852 0.0
C1266 C 0.91253 0.55985 0.97803 0.0
C1267 C 0.88971 0.53531 0.99496 0.0
C1268 C 0.87131 0.52566 0.00279 0.0
C1269 C 0.86574 0.53569 0.01281 0.0
C1270 C 0.84818 0.52662 0.01982 0.0
C1271 C 0.83609 0.50748 0.01695 0.0
C1272 C 0.84158 0.49737 0.00712 0.0
C1273 C 0.85914 0.50638 9e-05 0.0
C1274 C 0.96552 0.54072 0.00078 0.0
C1275 C 0.96205 0.52285 0.9961 0.0
C1276 C 0.9513 0.54503 0.00029 0.0
C1277 C 0.93355 0.53175 0.99456 0.0
C1278 C 0.92971 0.51343 0.99092 0.0
C1279 C 0.94392 0.50896 0.99178 0.0
C1280 C 0.91998 0.53785 0.99061 0.0
C1281 C 0.9023 0.52884 0.99755 0.0
C1282 C 0.92493 0.5532 0.98034 0.0
C1283 C 0.94269 0.56208 0.97143 0.0
C1284 C 0.9473 0.55117 0.96152 0.0
C1285 C 0.96425 0.55949 0.95351 0.0
C1286 C 0.97666 0.57875 0.9552 0.0
C1287 C 0.97209 0.58974 0.96486 0.0
C1288 C 0.95516 0.58149 0.97293 0.0
H1289 H 0.98979 0.58516 0.949 0.0
H1290 H 0.82248 0.50049 0.02237 0.0
H1291 H 0.42124 0.29769 0.94495 0.0
H1292 H 0.4362 0.33095 0.95199 0.0
H1293 H 0.44735 0.31895 -0.00072 0.0
H1294 H 0.433 0.28545 0.99211 0.0
H1295 H 0.43231 0.34653 0.99462 0.0
H1296 H 0.48152 0.33479 0.98175 0.0
H1297 H 0.49768 0.3218 0.96618 0.0
H1298 H 0.49867 0.35384 0.92571 0.0
H1299 H 0.48217 0.36674 0.94096 0.0
H1300 H 0.50464 0.43856 0.01385 0.0
H1301 H 0.49597 0.40699 0.00476 0.0
H1302 H 0.46677 0.41288 0.9647 0.0
H1303 H 0.4745 0.44428 0.9744 0.0
H1304 H 0.49199 0.38805 0.96744 0.0
H1305 H 0.4386 0.39677 0.98158 0.0
H1306 H 0.42338 0.40931 0.99878 0.0
H1307 H 0.43023 0.38127 0.03892 0.0
H1308 H 0.44652 0.36942 0.02204 0.0
C1309 C 0.42689 0.30208 0.95686 0.0
C1310 C 0.42632 0.28901 0.96787 0.0
C1311 C 0.43532 0.32105 0.96086 0.0
C1312 C 0.44308 0.32731 0.97602 0.0
C1313 C 0.44148 0.31426 0.98747 0.0
C1314 C 0.43323 0.29518 0.98339 0.0
C1315 C 0.4536 0.34767 0.97936 0.0
C1316 C 0.44544 0.35562 0.98883 0.0
C1317 C 0.47066 0.35941 0.97171 0.0
C1318 C 0.48039 0.35154 0.96243 0.0
C1319 C 0.48495 0.33887 0.96946 0.0
C1320 C 0.49423 0.33156 0.96071 0.0
C1321 C 0.49915 0.33694 0.94495 0.0
C1322 C 0.49482 0.34965 0.93791 0.0
C1323 C 0.4855 0.35696 0.9466 0.0
C1324 C 0.49732 0.43359 0.00257 0.0
C1325 C 0.49005 0.44368 0.99488 0.0
C1326 C 0.49214 0.41543 0.99754 0.0
C1327 C 0.48021 0.40751 0.98444 0.0
C1328 C 0.47569 0.41878 0.97508 0.0
C1329 C 0.48044 0.43684 0.9804 0.0
C1330 C 0.47038 0.38695 0.98221 0.0
C1331 C 0.47881 0.37897 0.97315 0.0
C1332 C 0.45364 0.37517 0.99038 0.0
C1333 C 0.44437 0.38276 0.00063 0.0
C1334 C 0.43742 0.39377 0.99416 0.0
C1335 C 0.42847 0.40065 0.00385 0.0
C1336 C 0.42591 0.39619 0.01998 0.0
C1337 C 0.43236 0.38486 0.02646 0.0
C1338 C 0.44158 0.37817 0.01685 0.0
H1339 H 0.41883 0.4014 0.02743 0.0
H1340 H 0.50637 0.33131 0.9382 0.0
H1341 H 0.16104 0.69844 0.0407 0.0
H1342 H 0.14001 0.66526 0.03436 0.0
H1343 H 0.09768 0.678 0.01964 0.0
H1344 H 0.11882 0.71139 0.02598 0.0
H1345 H 0.08601 0.65021 0.04279 0.0
H1346 H 0.11624 0.66375 0.99233 0.0
H1347 H 0.14343 0.67698 0.97465 0.0
H1348 H 0.16118 0.64064 0.99488 0.0
H1349 H 0.13421 0.62734 0.01283 0.0
H1350 H 0.02011 0.55881 0.01677 0.0
H1351 H 0.04106 0.59107 0.02369 0.0
H1352 H 0.08734 0.58077 0.02292 0.0
H1353 H 0.0663 0.54907 0.01259 0.0
H1354 H 0.09738 0.60859 0.00733 0.0
H1355 H 0.0658 0.59448 0.05811 0.0
H1356 H 0.03649 0.57955 0.07299 0.0
H1357 H 0.02123 0.61782 0.05269 0.0
H1358 H 0.05001 0.6323 0.03698 0.0
C1359 C 0.14736 0.69418 0.03582 0.0
C1360 C 0.14143 0.70735 0.03393 0.0
C1361 C 0.13541 0.67527 0.03216 0.0
C1362 C 0.1173 0.6692 0.02659 0.0
C1363 C 0.11162 0.68246 0.02396 0.0
C1364 C 0.12369 0.70147 0.02747 0.0
C1365 C 0.10388 0.64885 0.02503 0.0
C1366 C 0.08833 0.64104 0.03495 0.0
C1367 C 0.10726 0.63698 0.01508 0.0
C1368 C 0.12326 0.64464 0.00402 0.0
C1369 C 0.12599 0.65865 0.99307 0.0
C1370 C 0.14136 0.66615 0.98299 0.0
C1371 C 0.15405 0.65969 0.98367 0.0
C1372 C 0.15134 0.64564 0.99437 0.0
C1373 C 0.13599 0.63809 0.00449 0.0
C1374 C 0.03461 0.56309 0.01897 0.0
C1375 C 0.0416 0.55151 0.01406 0.0
C1376 C 0.04678 0.58183 0.02294 0.0
C1377 C 0.06608 0.58878 0.0241 0.0
C1378 C 0.07262 0.57604 0.02191 0.0
C1379 C 0.06052 0.55765 0.01656 0.0
C1380 C 0.07942 0.60947 0.02549 0.0
C1381 C 0.09503 0.6175 0.01544 0.0
C1382 C 0.07615 0.62157 0.03545 0.0
C1383 C 0.06005 0.61442 0.04633 0.0
C1384 C 0.05627 0.59981 0.05692 0.0
C1385 C 0.03967 0.59135 0.06543 0.0
C1386 C 0.02703 0.5978 0.06388 0.0
C1387 C 0.03104 0.61285 0.0539 0.0
C1388 C 0.04747 0.62115 0.04514 0.0
H1389 H 0.01406 0.59108 0.07032 0.0
H1390 H 0.16596 0.66554 0.97588 0.0
H1391 H 0.30282 0.43515 0.06149 0.0
H1392 H 0.33409 0.44898 0.05188 0.0
H1393 H 0.31357 0.43511 0.00361 0.0
H1394 H 0.28188 0.41817 0.01326 0.0
H1395 H 0.34139 0.43093 0.00604 0.0
H1396 H 0.33265 0.48272 0.02389 0.0
H1397 H 0.32392 0.49892 0.044 0.0
H1398 H 0.36583 0.50178 0.07593 0.0
H1399 H 0.37468 0.48548 0.05611 0.0
H1400 H 0.4373 0.4831 0.98485 0.0
H1401 H 0.40481 0.47634 0.9857 0.0
H1402 H 0.40805 0.47982 0.03701 0.0
H1403 H 0.44013 0.48668 0.03612 0.0
H1404 H 0.38802 0.49369 0.0272 0.0
H1405 H 0.39114 0.43718 0.01634 0.0
H1406 H 0.39864 0.41612 0.00112 0.0
H1407 H 0.36805 0.41879 0.96085 0.0
H1408 H 0.36033 0.43989 0.97591 0.0
C1409 C 0.30459 0.4343 0.04884 0.0
C1410 C 0.28927 0.42533 0.03827 0.0
C1411 C 0.32277 0.44291 0.04329 0.0
C1412 C 0.32632 0.44402 0.02694 0.0
C1413 C 0.31124 0.43486 0.0163 0.0
C1414 C 0.29298 0.42537 0.0219 0.0
C1415 C 0.34577 0.45421 0.02104 0.0
C1416 C 0.35145 0.44488 0.01035 0.0
C1417 C 0.35912 0.47226 0.02693 0.0
C1418 C 0.35433 0.4829 0.03849 0.0
C1419 C 0.34003 0.48687 0.03518 0.0
C1420 C 0.33504 0.49603 0.04655 0.0
C1421 C 0.34432 0.50138 0.06123 0.0
C1422 C 0.35868 0.49768 0.06455 0.0
C1423 C 0.36373 0.48853 0.05323 0.0
C1424 C 0.43114 0.48299 0.99621 0.0
C1425 C 0.44102 0.48527 0.01044 0.0
C1426 C 0.41259 0.47895 0.99671 0.0
C1427 C 0.40391 0.47727 0.01144 0.0
C1428 C 0.41439 0.481 0.02551 0.0
C1429 C 0.43271 0.48489 0.02501 0.0
C1430 C 0.38364 0.4701 0.01272 0.0
C1431 C 0.37777 0.48004 0.02245 0.0
C1432 C 0.37024 0.45238 0.0064 0.0
C1433 C 0.37547 0.44036 0.99712 0.0
C1434 C 0.38623 0.43346 0.00417 0.0
C1435 C 0.39047 0.42147 0.99559 0.0
C1436 C 0.38398 0.41624 0.97997 0.0
C1437 C 0.37316 0.42294 0.97292 0.0
C1438 C 0.36883 0.43489 0.98147 0.0
H1439 H 0.38725 0.40692 0.97337 0.0
H1440 H 0.34037 0.50839 0.07003 0.0
H1441 H 0.57835 0.88219 0.06052 0.0
H1442 H 0.56334 0.90005 0.05282 0.0
H1443 H 0.54722 0.87055 0.00778 0.0
H1444 H 0.56168 0.85203 0.01562 0.0
H1445 H 0.56234 0.91229 0.00759 0.0
H1446 H 0.51511 0.85516 0.03125 0.0
H1447 H 0.5024 0.83091 0.05194 0.0
H1448 H 0.50924 0.87249 0.08671 0.0
H1449 H 0.52224 0.89705 0.06624 0.0
H1450 H 0.49488 0.93414 0.98431 0.0
H1451 H 0.50384 0.91186 0.99403 0.0
H1452 H 0.52391 0.94371 0.03773 0.0
H1453 H 0.51547 0.96643 0.02784 0.0
H1454 H 0.50661 0.90043 0.03847 0.0
H1455 H 0.55392 0.95766 0.01499 0.0
H1456 H 0.56881 0.98249 0.99499 0.0
H1457 H 0.56399 0.94165 0.9603 0.0
H1458 H 0.54857 0.91646 0.97999 0.0
C1459 C 0.57161 0.87946 0.04897 0.0
C1460 C 0.57091 0.86545 0.03879 0.0
C1461 C 0.56314 0.88975 0.04457 0.0
C1462 C 0.55399 0.88639 0.02985 0.0
C1463 C 0.5542 0.87326 0.01922 0.0
C1464 C 0.56253 0.86277 0.02369 0.0
C1465 C 0.54342 0.89598 0.02605 0.0
C1466 C 0.54997 0.90951 0.01412 0.0
C1467 C 0.52764 0.89264 0.03494 0.0
C1468 C 0.51979 0.87795 0.04726 0.0
C1469 C 0.51405 0.85915 0.04334 0.0
C1470 C 0.50676 0.84535 0.05502 0.0
C1471 C 0.50505 0.85016 0.07064 0.0
C1472 C 0.51059 0.86879 0.07461 0.0
C1473 C 0.5179 0.88265 0.06297 0.0
C1474 C 0.50011 0.93576 0.99639 0.0
C1475 C 0.5048 0.95218 0.00519 0.0
C1476 C 0.50556 0.92321 0.0018 0.0
C1477 C 0.51509 0.92658 0.01633 0.0
C1478 C 0.51677 0.94108 0.02637 0.0
C1479 C 0.51161 0.95388 0.02082 0.0
C1480 C 0.52541 0.91667 0.01988 0.0
C1481 C 0.51888 0.90313 0.03182 0.0
C1482 C 0.54129 0.92008 0.011 0.0
C1483 C 0.54967 0.93508 -0.00111 0.0
C1484 C 0.55562 0.95388 0.003 0.0
C1485 C 0.56427 0.96805 0.99174 0.0
C1486 C 0.56726 0.96364 0.97636 0.0
C1487 C 0.56157 0.94504 0.9722 0.0
C1488 C 0.55283 0.9308 0.98339 0.0
H1489 H 0.57407 0.97465 0.96769 0.0
H1490 H 0.49938 0.83945 0.07967 0.0
H1491 H 0.96647 0.17221 0.37762 0.0
H1492 H -0.00087 0.19214 0.37065 0.0
H1493 H 0.9869 0.2335 0.35183 0.0
H1494 H 0.95399 0.21337 0.35846 0.0
H1495 H 0.0102 0.22768 0.33242 0.0
H1496 H 0.00634 0.24065 0.38736 0.0
H1497 H -0.00152 0.23355 0.41565 0.0
H1498 H 0.03348 0.20896 0.41851 0.0
H1499 H 0.04136 0.2157 0.39015 0.0
H1500 H 0.09559 0.31246 0.34015 0.0
H1501 H 0.064 0.28548 0.34029 0.0
H1502 H 0.08555 0.24969 0.35482 0.0
H1503 H 0.11745 0.27684 0.3543 0.0
H1504 H 0.05836 0.24937 0.37504 0.0
H1505 H 0.06467 0.24063 0.31955 0.0
H1506 H 0.07306 0.25057 0.29177 0.0
H1507 H 0.03402 0.27042 0.29064 0.0
H1508 H 0.02549 0.26072 0.31846 0.0
C1509 C 0.97066 0.18541 0.37178 0.0
C1510 C 0.95765 0.19121 0.36854 0.0
C1511 C 0.98935 0.19685 0.36794 0.0
C1512 C 0.99542 0.21432 0.36084 0.0
C1513 C 0.98245 0.22003 0.35731 0.0
C1514 C 0.96372 0.20861 0.3612 0.0
C1515 C 0.01538 0.22678 0.35744 0.0
C1516 C 0.02074 0.23251 0.34174 0.0
C1517 C 0.02912 0.23273 0.36957 0.0
C1518 C 0.02423 0.22843 0.38657 0.0
C1519 C 0.01219 0.23353 0.39397 0.0
C1520 C 0.00777 0.22962 0.41003 0.0
C1521 C 0.01541 0.22074 0.41886 0.0
C1522 C 0.02753 0.21579 0.41164 0.0
C1523 C 0.03198 0.21966 0.39558 0.0
C1524 C 0.09355 0.29873 0.34303 0.0
C1525 C 0.10871 0.29656 0.34724 0.0
C1526 C 0.07558 0.28334 0.34301 0.0
C1527 C 0.07248 0.26561 0.34747 0.0
C1528 C 0.08773 0.26327 0.35122 0.0
C1529 C 0.10584 0.27868 0.35092 0.0
C1530 C 0.05319 0.25035 0.35004 0.0
C1531 C 0.04789 0.24417 0.36565 0.0
C1532 C 0.03951 0.24425 0.33788 0.0
C1533 C 0.04451 0.25002 0.32111 0.0
C1534 C 0.05795 0.24721 0.3134 0.0
C1535 C 0.0627 0.25277 0.29764 0.0
C1536 C 0.05409 0.26115 0.28945 0.0
C1537 C 0.04067 0.26392 0.29699 0.0
C1538 C 0.03583 0.25834 0.31274 0.0
H1539 H 0.05781 0.26547 0.27725 0.0
H1540 H 0.01199 0.21774 0.43129 0.0
H1541 H 0.78733 0.75111 0.39259 0.0
H1542 H 0.76781 0.76403 0.38428 0.0
H1543 H 0.7978 0.78203 0.34016 0.0
H1544 H 0.81754 0.76922 0.34851 0.0
H1545 H 0.79434 0.80979 0.35386 0.0
H1546 H 0.75273 0.74445 0.34115 0.0
H1547 H 0.73521 0.71044 0.34644 0.0
H1548 H 0.70628 0.71977 0.38445 0.0
H1549 H 0.72377 0.75385 0.37952 0.0
H1550 H 0.7127 0.81898 0.32436 0.0
H1551 H 0.73768 0.81105 0.32546 0.0
H1552 H 0.73566 0.81087 0.37667 0.0
H1553 H 0.71124 0.81908 0.37573 0.0
H1554 H 0.72532 0.77403 0.35491 0.0
H1555 H 0.77011 0.83797 0.37175 0.0
H1556 H 0.78767 0.87234 0.36849 0.0
H1557 H 0.81031 0.86567 0.3247 0.0
H1558 H 0.79257 0.83119 0.32759 0.0
C1559 C 0.78954 0.75751 0.38099 0.0
C1560 C 0.80393 0.75913 0.37118 0.0
C1561 C 0.77839 0.7649 0.37626 0.0
C1562 C 0.78123 0.77382 0.36152 0.0
C1563 C 0.79539 0.7752 0.35158 0.0
C1564 C 0.80664 0.76791 0.35636 0.0
C1565 C 0.76998 0.78251 0.35693 0.0
C1566 C 0.77924 0.80186 0.35375 0.0
C1567 C 0.75028 0.77226 0.35711 0.0
C1568 C 0.73965 0.75173 0.36001 0.0
C1569 C 0.74271 0.73926 0.35069 0.0
C1570 C 0.73277 0.71997 0.35362 0.0
C1571 C 0.71966 0.71295 0.36579 0.0
C1572 C 0.71643 0.72522 0.37503 0.0
C1573 C 0.72633 0.74452 0.37216 0.0
C1574 C 0.71814 0.81798 0.33582 0.0
C1575 C 0.7099 0.81935 0.34995 0.0
C1576 C 0.73231 0.81339 0.33643 0.0
C1577 C 0.73834 0.81033 0.35116 0.0
C1578 C 0.73117 0.81324 0.36523 0.0
C1579 C 0.71719 0.81787 0.36464 0.0
C1580 C 0.74971 0.80119 0.3521 0.0
C1581 C 0.74042 0.78177 0.35464 0.0
C1582 C 0.76931 0.81138 0.3516 0.0
C1583 C 0.77973 0.83202 0.34971 0.0
C1584 C 0.77858 0.84382 0.36129 0.0
C1585 C 0.78863 0.86332 0.35955 0.0
C1586 C 0.80002 0.87119 0.34635 0.0
C1587 C 0.80142 0.85956 0.33488 0.0
C1588 C 0.79136 0.84004 0.33656 0.0
H1589 H 0.80782 0.88629 0.34504 0.0
H1590 H 0.712 0.69802 0.36804 0.0
H1591 H 0.20773 0.0347 0.37432 0.0
H1592 H 0.19532 0.00136 0.36915 0.0
H1593 H 0.25073 0.01142 0.36029 0.0
H1594 H 0.2632 0.04509 0.36437 0.0
H1595 H 0.22737 0.9856 0.34064 0.0
H1596 H 0.22903 0.99526 0.39669 0.0
H1597 H 0.223 0.0071 0.42169 0.0
H1598 H 0.1641 0.97287 0.41366 0.0
H1599 H 0.16978 0.96105 0.38847 0.0
H1600 H 0.20283 0.891 0.34803 0.0
H1601 H 0.21551 0.92241 0.35981 0.0
H1602 H 0.1627 0.91958 0.35256 0.0
H1603 H 0.15031 0.88854 0.34006 0.0
H1604 H 0.18653 0.94145 0.38186 0.0
H1605 H 0.18647 0.93405 0.32423 0.0
H1606 H 0.19385 0.92393 0.29897 0.0
H1607 H 0.25214 0.95528 0.31057 0.0
H1608 H 0.24506 0.96522 0.33612 0.0
C1609 C 0.2173 0.02999 0.37089 0.0
C1610 C 0.23656 0.04268 0.36996 0.0
C1611 C 0.21017 0.0108 0.36818 0.0
C1612 C 0.22214 0.00377 0.36482 0.0
C1613 C 0.24124 0.01646 0.3631 0.0
C1614 C 0.24837 0.03571 0.36559 0.0
C1615 C 0.21474 0.98318 0.36347 0.0
C1616 C 0.21871 0.97601 0.34979 0.0
C1617 C 0.20331 0.97058 0.37535 0.0
C1618 C 0.19983 0.97737 0.39064 0.0
C1619 C 0.21479 0.99033 0.40022 0.0
C1620 C 0.21144 0.99704 0.41442 0.0
C1621 C 0.19318 0.99076 0.41925 0.0
C1622 C 0.17823 0.97772 0.4099 0.0
C1623 C 0.18151 0.971 0.39567 0.0
C1624 C 0.19357 0.89656 0.3499 0.0
C1625 C 0.17556 0.88734 0.34325 0.0
C1626 C 0.20094 0.91465 0.35639 0.0
C1627 C 0.19013 0.9234 0.35672 0.0
C1628 C 0.17125 0.91304 0.35233 0.0
C1629 C 0.16407 0.89517 0.34543 0.0
C1630 C 0.19908 0.944 0.35902 0.0
C1631 C 0.19539 0.95113 0.37285 0.0
C1632 C 0.211 0.9566 0.34737 0.0
C1633 C 0.21518 0.95002 0.33227 0.0
C1634 C 0.20082 0.93846 0.32157 0.0
C1635 C 0.20496 0.93283 0.30715 0.0
C1636 C 0.22344 0.93886 0.30321 0.0
C1637 C 0.23782 0.95053 0.31368 0.0
C1638 C 0.23375 0.95612 0.32815 0.0
H1639 H 0.22662 0.93456 0.292 0.0
H1640 H 0.19061 0.99598 0.43024 0.0
H1641 H 0.5468 0.62784 0.27765 0.0
H1642 H 0.56581 0.66148 0.28306 0.0
H1643 H 0.54275 0.65344 0.33018 0.0
H1644 H 0.52325 0.61967 0.3246 0.0
H1645 H 0.54219 0.68173 0.31627 0.0
H1646 H 0.5884 0.66368 0.32376 0.0
H1647 H 0.60645 0.64836 0.31648 0.0
H1648 H 0.62709 0.68301 0.27517 0.0
H1649 H 0.60901 0.6984 0.28211 0.0
H1650 H 0.60545 0.77051 0.34872 0.0
H1651 H 0.58304 0.73956 0.33956 0.0
H1652 H 0.61541 0.74759 0.29714 0.0
H1653 H 0.63975 0.77774 0.30809 0.0
H1654 H 0.6103 0.71857 0.30788 0.0
H1655 H 0.56299 0.73724 0.30172 0.0
H1656 H 0.54502 0.752 0.31093 0.0
H1657 H 0.52644 0.71582 0.35144 0.0
H1658 H 0.54433 0.70092 0.34253 0.0
C1659 C 0.54602 0.63321 0.28926 0.0
C1660 C 0.53363 0.62119 0.30075 0.0
C1661 C 0.55691 0.65244 0.29235 0.0
C1662 C 0.55586 0.65998 0.30708 0.0
C1663 C 0.54375 0.64793 0.31871 0.0
C1664 C 0.53266 0.62868 0.31555 0.0
C1665 C 0.56671 0.68057 0.30998 0.0
C1666 C 0.55713 0.68985 0.31454 0.0
C1667 C 0.5861 0.69115 0.30743 0.0
C1668 C 0.59722 0.68209 0.30339 0.0
C1669 C 0.59671 0.66796 0.31308 0.0
C1670 C 0.60696 0.65927 0.30902 0.0
C1671 C 0.61787 0.66467 0.29535 0.0
C1672 C 0.61862 0.67883 0.28575 0.0
C1673 C 0.6084 0.68756 0.28975 0.0
C1674 C 0.60734 0.76607 0.33703 0.0
C1675 C 0.62433 0.7764 0.32916 0.0
C1676 C 0.59429 0.74817 0.33165 0.0
C1677 C 0.59714 0.74083 0.31746 0.0
C1678 C 0.61288 0.75263 0.30826 0.0
C1679 C 0.62663 0.77011 0.31427 0.0
C1680 C 0.5858 0.72023 0.3138 0.0
C1681 C 0.59531 0.71075 0.30926 0.0
C1682 C 0.56631 0.70945 0.31648 0.0
C1683 C 0.55502 0.718 0.32144 0.0
C1684 C 0.55505 0.73243 0.31257 0.0
C1685 C 0.54488 0.74082 0.31775 0.0
C1686 C 0.5346 0.73485 0.33176 0.0
C1687 C 0.53436 0.7204 0.34058 0.0
C1688 C 0.54445 0.71193 0.33543 0.0
H1689 H 0.52682 0.74143 0.33579 0.0
H1690 H 0.62578 0.65791 0.29222 0.0
H1691 H 0.37183 0.9245 0.28785 0.0
H1692 H 0.33965 0.91189 0.29603 0.0
H1693 H 0.34615 0.87713 0.33065 0.0
H1694 H 0.37877 0.89027 0.32303 0.0
H1695 H 0.31386 0.85801 0.30958 0.0
H1696 H 0.34322 0.91142 0.34476 0.0
H1697 H 0.36358 0.94468 0.35236 0.0
H1698 H 0.33244 0.9606 0.32163 0.0
H1699 H 0.31211 0.92751 0.31361 0.0
H1700 H 0.22156 0.83903 0.33901 0.0
H1701 H 0.2538 0.8453 0.3385 0.0
H1702 H 0.26593 0.88412 0.30013 0.0
H1703 H 0.23406 0.87796 0.30036 0.0
H1704 H 0.28904 0.89825 0.329 0.0
H1705 H 0.26346 0.84786 0.29048 0.0
H1706 H 0.2438 0.81577 0.28004 0.0
H1707 H 0.26802 0.79501 0.31374 0.0
H1708 H 0.28756 0.82703 0.32472 0.0
C1709 C 0.36664 0.91452 0.29747 0.0
C1710 C 0.37799 0.90849 0.30481 0.0
C1711 C 0.34818 0.90723 0.30205 0.0
C1712 C 0.34061 0.89367 0.31398 0.0
C1713 C 0.35179 0.88758 0.3214 0.0
C1714 C 0.37038 0.89505 0.31696 0.0
C1715 C 0.32078 0.88554 0.31814 0.0
C1716 C 0.30839 0.86663 0.31423 0.0
C1717 C 0.31377 0.89698 0.32386 0.0
C1718 C 0.3262 0.91696 0.3285 0.0
C1719 C 0.34083 0.92203 0.33949 0.0
C1720 C 0.35235 0.94086 0.3439 0.0
C1721 C 0.34933 0.95474 0.33747 0.0
C1722 C 0.33478 0.94984 0.3266 0.0
C1723 C 0.32325 0.93104 0.32213 0.0
C1724 C 0.23106 0.84879 0.33038 0.0
C1725 C 0.22525 0.85819 0.31987 0.0
C1726 C 0.2494 0.85224 0.33006 0.0
C1727 C 0.26213 0.86515 0.31928 0.0
C1728 C 0.25625 0.87412 0.30854 0.0
C1729 C 0.23801 0.87061 0.30876 0.0
C1730 C 0.28207 0.87095 0.31993 0.0
C1731 C 0.2945 0.88945 0.3248 0.0
C1732 C 0.28903 0.85922 0.31478 0.0
C1733 C 0.27665 0.83982 0.30871 0.0
C1734 C 0.2643 0.83643 0.29595 0.0
C1735 C 0.25325 0.81823 0.28985 0.0
C1736 C 0.25455 0.8033 0.29628 0.0
C1737 C 0.26693 0.80656 0.30884 0.0
C1738 C 0.27798 0.82473 0.31503 0.0
H1739 H 0.24604 0.78924 0.29148 0.0
H1740 H 0.35823 0.96931 0.34092 0.0
H1741 H 0.12301 0.49202 0.30072 0.0
H1742 H 0.13581 0.47161 0.30575 0.0
H1743 H 0.08051 0.42495 0.31314 0.0
H1744 H 0.0676 0.44562 0.3092 0.0
H1745 H 0.10392 0.42312 0.33313 0.0
H1746 H 0.10316 0.43171 0.27699 0.0
H1747 H 0.10964 0.44989 0.25231 0.0
H1748 H 0.16838 0.47585 0.26152 0.0
H1749 H 0.16224 0.45801 0.28638 0.0
H1750 H 0.12809 0.35337 0.3234 0.0
H1751 H 0.11591 0.37252 0.3123 0.0
H1752 H 0.16889 0.42244 0.32091 0.0
H1753 H 0.18079 0.40334 0.33276 0.0
H1754 H 0.14547 0.4211 0.29176 0.0
H1755 H 0.14509 0.41298 0.34904 0.0
H1756 H 0.13769 0.39532 0.37405 0.0
H1757 H 0.07941 0.36789 0.36245 0.0
H1758 H 0.08651 0.38509 0.33716 0.0
C1759 C 0.11353 0.47755 0.30381 0.0
C1760 C 0.09419 0.47048 0.30437 0.0
C1761 C 0.12089 0.4658 0.30645 0.0
C1762 C 0.10909 0.44661 0.30934 0.0
C1763 C 0.08988 0.43966 0.3107 0.0
C1764 C 0.0825 0.45148 0.30828 0.0
C1765 C 0.11677 0.43376 0.31049 0.0
C1766 C 0.11275 0.42246 0.32395 0.0
C1767 C 0.1285 0.43305 0.29861 0.0
C1768 C 0.13224 0.44363 0.28359 0.0
C1769 C 0.11746 0.44137 0.27379 0.0
C1770 C 0.12106 0.45161 0.25977 0.0
C1771 C 0.13941 0.46404 0.25537 0.0
C1772 C 0.15418 0.46623 0.26495 0.0
C1773 C 0.15065 0.45604 0.279 0.0
C1774 C 0.13752 0.36829 0.32192 0.0
C1775 C 0.15538 0.37695 0.32889 0.0
C1776 C 0.13042 0.37924 0.31586 0.0
C1777 C 0.1414 0.39887 0.31619 0.0
C1778 C 0.16021 0.40729 0.32068 0.0
C1779 C 0.16713 0.39635 0.32717 0.0
C1780 C 0.13262 0.41059 0.31437 0.0
C1781 C 0.13647 0.42165 0.30082 0.0
C1782 C 0.12058 0.41094 0.32611 0.0
C1783 C 0.11638 0.40001 0.34101 0.0
C1784 C 0.13073 0.40289 0.35164 0.0
C1785 C 0.12658 0.39304 0.36592 0.0
C1786 C 0.10811 0.38039 0.36979 0.0
C1787 C 0.09373 0.37759 0.35939 0.0
C1788 C 0.09782 0.38737 0.34507 0.0
H1789 H 0.10492 0.37284 0.38088 0.0
H1790 H 0.14218 0.47196 0.24451 0.0
H1791 H 0.38558 0.45408 0.31656 0.0
H1792 H 0.35362 0.43514 0.32605 0.0
H1793 H 0.33611 0.46533 0.29528 0.0
H1794 H 0.36803 0.48471 0.28623 0.0
H1795 H 0.32035 0.46058 0.32322 0.0
H1796 H 0.32849 0.42222 0.28523 0.0
H1797 H 0.34251 0.40523 0.27243 0.0
H1798 H 0.33186 0.37154 0.31406 0.0
H1799 H 0.31808 0.38858 0.32725 0.0
H1800 H 0.22301 0.39184 0.31728 0.0
H1801 H 0.25575 0.41633 0.31516 0.0
H1802 H 0.27137 0.38509 0.3466 0.0
H1803 H 0.2387 0.36026 0.34808 0.0
H1804 H 0.28847 0.39111 0.31938 0.0
H1805 H 0.27782 0.43056 0.35616 0.0
H1806 H 0.2621 0.44741 0.36588 0.0
H1807 H 0.2752 0.47853 0.32248 0.0
H1808 H 0.29082 0.46173 0.31243 0.0
C1809 C 0.37495 0.45681 0.31198 0.0
C1810 C 0.37928 0.47078 0.30057 0.0
C1811 C 0.35669 0.44589 0.3173 0.0
C1812 C 0.34247 0.4487 0.31122 0.0
C1813 C 0.34685 0.4629 0.3001 0.0
C1814 C 0.36507 0.47383 0.29482 0.0
C1815 C 0.32295 0.43672 0.31627 0.0
C1816 C 0.31331 0.44537 0.32233 0.0
C1817 C 0.31384 0.4169 0.31511 0.0
C1818 C 0.3225 0.4069 0.30733 0.0
C1819 C 0.32936 0.41137 0.29175 0.0
C1820 C 0.33722 0.40169 0.2844 0.0
C1821 C 0.33815 0.38737 0.29245 0.0
C1822 C 0.33119 0.38268 0.30786 0.0
C1823 C 0.32337 0.39236 0.31528 0.0
C1824 C 0.23343 0.39065 0.32418 0.0
C1825 C 0.22856 0.37439 0.33289 0.0
C1826 C 0.25212 0.40462 0.32301 0.0
C1827 C 0.26604 0.40257 0.33075 0.0
C1828 C 0.26087 0.38695 0.34051 0.0
C1829 C 0.24226 0.37285 0.34144 0.0
C1830 C 0.28591 0.4149 0.32672 0.0
C1831 C 0.29558 0.40629 0.32061 0.0
C1832 C 0.29484 0.43474 0.32746 0.0
C1833 C 0.28537 0.44477 0.33351 0.0
C1834 C 0.27723 0.44089 0.34864 0.0
C1835 C 0.26836 0.45047 0.35422 0.0
C1836 C 0.26762 0.46401 0.34479 0.0
C1837 C 0.27577 0.46804 0.32977 0.0
C1838 C 0.28466 0.45851 0.32414 0.0
H1839 H 0.26075 0.4714 0.34913 0.0
H1840 H 0.34419 0.37985 0.28672 0.0
H1841 H 0.51428 0.88126 0.28708 0.0
H1842 H 0.53376 0.86865 0.29607 0.0
H1843 H 0.56126 0.9145 0.32976 0.0
H1844 H 0.5423 0.92774 0.3203 0.0
H1845 H 0.58575 0.90866 0.31276 0.0
H1846 H 0.52955 0.86977 0.34237 0.0
H1847 H 0.49562 0.84883 0.34466 0.0
H1848 H 0.49795 0.80932 0.3124 0.0
H1849 H 0.53187 0.83009 0.30983 0.0
H1850 H 0.63843 0.87533 0.3489 0.0
H1851 H 0.61357 0.88311 0.34717 0.0
H1852 H 0.58446 0.83825 0.31283 0.0
H1853 H 0.6092 0.8302 0.31491 0.0
H1854 H 0.56013 0.84322 0.33151 0.0
H1855 H 0.61337 0.88034 0.29966 0.0
H1856 H 0.64674 0.90054 0.29397 0.0
H1857 H 0.64954 0.9426 0.32632 0.0
H1858 H 0.6162 0.92249 0.33239 0.0
C1859 C 0.52454 0.88876 0.29634 0.0
C1860 C 0.52682 0.90559 0.3029 0.0
C1861 C 0.5355 0.88138 0.30161 0.0
C1862 C 0.54877 0.8905 0.31373 0.0
C1863 C 0.55099 0.9072 0.32045 0.0
C1864 C 0.54007 0.91466 0.31512 0.0
C1865 C 0.56089 0.88301 0.31883 0.0
C1866 C 0.58018 0.89451 0.31721 0.0
C1867 C 0.55352 0.86426 0.32396 0.0
C1868 C 0.53323 0.85151 0.32587 0.0
C1869 C 0.52281 0.85663 0.33575 0.0
C1870 C 0.50358 0.84479 0.3371 0.0
C1871 C 0.49463 0.82776 0.32867 0.0
C1872 C 0.5049 0.8225 0.31894 0.0
C1873 C 0.52414 0.83427 0.31756 0.0
C1874 C 0.62632 0.8667 0.34151 0.0
C1875 C 0.62548 0.85212 0.33214 0.0
C1876 C 0.61224 0.87121 0.34042 0.0
C1877 C 0.59739 0.86148 0.32964 0.0
C1878 C 0.5958 0.84591 0.32122 0.0
C1879 C 0.60985 0.84128 0.32243 0.0
C1880 C 0.58498 0.86902 0.32573 0.0
C1881 C 0.56569 0.8575 0.32737 0.0
C1882 C 0.59229 0.88764 0.32025 0.0
C1883 C 0.61234 0.89981 0.31663 0.0
C1884 C 0.62114 0.89382 0.30567 0.0
C1885 C 0.64004 0.90527 0.30236 0.0
C1886 C 0.65027 0.92282 0.30982 0.0
C1887 C 0.6416 0.92898 0.32058 0.0
C1888 C 0.6227 0.91757 0.32396 0.0
H1889 H 0.66491 0.93167 0.30724 0.0
H1890 H 0.47974 0.81864 0.3297 0.0
H1891 H 0.0694 0.62539 0.29231 0.0
H1892 H 0.08363 0.65907 0.29809 0.0
H1893 H 0.12843 0.65782 0.32333 0.0
H1894 H 0.11373 0.62391 0.31804 0.0
H1895 H 0.11969 0.68149 0.3375 0.0
H1896 H 0.13228 0.67079 0.28347 0.0
H1897 H 0.12356 0.65723 0.2564 0.0
H1898 H 0.0916 0.6847 0.24958 0.0
H1899 H 0.09996 0.69823 0.27669 0.0
H1900 H 0.18282 0.77639 0.33767 0.0
H1901 H 0.17084 0.74419 0.32821 0.0
H1902 H 0.12467 0.74535 0.30558 0.0
H1903 H 0.13681 0.77771 0.31496 0.0
H1904 H 0.134 0.7218 0.28998 0.0
H1905 H 0.12099 0.73258 0.34328 0.0
H1906 H 0.12721 0.74468 0.37087 0.0
H1907 H 0.15795 0.71632 0.37968 0.0
H1908 H 0.15215 0.70427 0.35205 0.0
C1909 C 0.08204 0.63229 0.29941 0.0
C1910 C 0.09056 0.62223 0.30473 0.0
C1911 C 0.09025 0.65151 0.30259 0.0
C1912 C 0.10738 0.66106 0.31073 0.0
C1913 C 0.11529 0.65076 0.31691 0.0
C1914 C 0.1069 0.63143 0.31395 0.0
C1915 C 0.11754 0.68188 0.31201 0.0
C1916 C 0.12309 0.69031 0.3271 0.0
C1917 C 0.12152 0.69339 0.29846 0.0
C1918 C 0.11665 0.68541 0.28212 0.0
C1919 C 0.12333 0.67386 0.27622 0.0
C1920 C 0.11845 0.66619 0.26087 0.0
C1921 C 0.10701 0.67008 0.25129 0.0
C1922 C 0.10045 0.68169 0.25702 0.0
C1923 C 0.10527 0.68938 0.27236 0.0
C1924 C 0.17084 0.77022 0.32973 0.0
C1925 C 0.16069 0.77944 0.32705 0.0
C1926 C 0.16376 0.75167 0.32465 0.0
C1927 C 0.1465 0.74219 0.31675 0.0
C1928 C 0.13789 0.75236 0.31187 0.0
C1929 C 0.14503 0.77099 0.31696 0.0
C1930 C 0.13639 0.72141 0.31544 0.0
C1931 C 0.13076 0.71299 0.30037 0.0
C1932 C 0.13224 0.70991 0.32904 0.0
C1933 C 0.13637 0.71775 0.3455 0.0
C1934 C 0.1293 0.72914 0.35102 0.0
C1935 C 0.1327 0.73594 0.36669 0.0
C1936 C 0.14303 0.73133 0.377 0.0
C1937 C 0.15 0.71993 0.37166 0.0
C1938 C 0.14667 0.71312 0.35599 0.0
H1939 H 0.14557 0.73654 0.38915 0.0
H1940 H 0.10326 0.66413 0.23941 0.0
H1941 H 0.77956 0.04046 0.37106 0.0
H1942 H 0.75952 0.00665 0.36563 0.0
H1943 H 0.80827 0.00163 0.35792 0.0
H1944 H 0.8282 0.03538 0.36319 0.0
H1945 H 0.77948 0.97991 0.33692 0.0
H1946 H 0.78746 0.99289 0.39443 0.0
H1947 H 0.78459 0.00835 0.41867 0.0
H1948 H 0.72573 0.98313 0.41042 0.0
H1949 H 0.7283 0.9677 0.38606 0.0
H1950 H 0.73462 0.88385 0.33593 0.0
H1951 H 0.75772 0.91461 0.34657 0.0
H1952 H 0.71359 0.92027 0.36817 0.0
H1953 H 0.69103 0.88891 0.35893 0.0
H1954 H 0.74117 0.94253 0.3823 0.0
H1955 H 0.7301 0.93187 0.3258 0.0
H1956 H 0.7297 0.91911 0.29904 0.0
H1957 H 0.78883 0.94163 0.30181 0.0
H1958 H 0.78954 0.95432 0.32866 0.0
C1959 C 0.78586 0.03213 0.36777 0.0
C1960 C 0.80528 0.04029 0.36742 0.0
C1961 C 0.77448 0.01288 0.36482 0.0
C1962 C 0.78246 0.00161 0.36169 0.0
C1963 C 0.80186 0.01006 0.36039 0.0
C1964 C 0.81321 0.02928 0.36334 0.0
C1965 C 0.77084 0.98088 0.36078 0.0
C1966 C 0.77122 0.97164 0.34687 0.0
C1967 C 0.75961 0.97024 0.37358 0.0
C1968 C 0.7581 0.97922 0.38841 0.0
C1969 C 0.77393 0.99069 0.39778 0.0
C1970 C 0.77235 -0.00055 0.41153 0.0
C1971 C 0.75499 0.99673 0.41608 0.0
C1972 C 0.73916 0.98522 0.4069 0.0
C1973 C 0.74067 0.97644 0.39314 0.0
C1974 C 0.73012 0.89109 0.34402 0.0
C1975 C 0.71108 0.88424 0.34643 0.0
C1976 C 0.74325 0.90898 0.34966 0.0
C1977 C 0.7373 0.92038 0.35721 0.0
C1978 C 0.71864 0.91209 0.36202 0.0
C1979 C 0.70568 0.89392 0.35694 0.0
C1980 C 0.74958 0.9412 0.35829 0.0
C1981 C 0.7494 0.95059 0.37227 0.0
C1982 C 0.76037 0.95205 0.34523 0.0
C1983 C 0.75982 0.94379 0.32934 0.0
C1984 C 0.74298 0.93392 0.32077 0.0
C1985 C 0.74271 0.92674 0.30557 0.0
C1986 C 0.75922 0.9295 0.29876 0.0
C1987 C 0.77604 0.93944 0.30713 0.0
C1988 C 0.77638 0.94661 0.32233 0.0
H1989 H 0.75899 0.92399 0.28697 0.0
H1990 H 0.7538 0.00354 0.42672 0.0
H1991 H 0.9556 0.78085 0.35307 0.0
H1992 H 0.9882 0.79383 0.34503 0.0
H1993 H 0.99193 0.75222 0.37335 0.0
H1994 H 0.95972 0.7397 0.38169 0.0
H1995 H 0.01905 0.78632 0.38074 0.0
H1996 H 0.99191 0.75116 0.33176 0.0
H1997 H 0.97162 0.74258 0.30799 0.0
H1998 H 0.00155 0.79973 0.29228 0.0
H1999 H 0.02193 0.80867 0.31605 0.0
H2000 H 0.09773 0.7832 0.36114 0.0
H2001 H 0.0658 0.77663 0.36266 0.0
H2002 H 0.08 0.82632 0.33559 0.0
H2003 H 0.11232 0.8329 0.33369 0.0
H2004 H 0.04532 0.79492 0.32653 0.0
H2005 H 0.07432 0.82906 0.37486 0.0
H2006 H 0.09405 0.83688 0.39892 0.0
H2007 H 0.05996 0.78076 0.41596 0.0
H2008 H 0.04001 0.77258 0.39199 0.0
C2009 C 0.96336 0.77431 0.35727 0.0
C2010 C 0.95534 0.7594 0.36804 0.0
C2011 C 0.98193 0.7817 0.35268 0.0
C2012 C 0.99252 0.77403 0.35865 0.0
C2013 C 0.98408 0.75846 0.36872 0.0
C2014 C 0.9657 0.75128 0.37344 0.0
C2015 C 0.01277 0.78294 0.35563 0.0
C2016 C 0.02473 0.78808 0.36887 0.0
C2017 C 0.02032 0.78602 0.34015 0.0
C2018 C 0.00832 0.78061 0.32573 0.0
C2019 C 0.9941 0.76191 0.32327 0.0
C2020 C 0.9826 0.75697 0.30979 0.0
C2021 C 0.98527 0.77061 0.29865 0.0
C2022 C -0.0005 0.78919 0.30093 0.0
C2023 C 0.01105 0.79419 0.31438 0.0
C2024 C 0.09417 0.7928 0.35549 0.0
C2025 C 0.10765 0.8087 0.34744 0.0
C2026 C 0.07587 0.78901 0.35637 0.0
C2027 C 0.07061 0.80116 0.34949 0.0
C2028 C 0.08382 0.81681 0.34103 0.0
C2029 C 0.10225 0.82055 0.34 0.0
C2030 C 0.05133 0.7974 0.35169 0.0
C2031 C 0.03961 0.79341 0.33836 0.0
C2032 C 0.04386 0.7953 0.36712 0.0
C2033 C 0.05571 0.80021 0.38162 0.0
C2034 C 0.07107 0.81838 0.38372 0.0
C2035 C 0.08228 0.82288 0.39735 0.0
C2036 C 0.07829 0.80933 0.40895 0.0
C2037 C 0.06302 0.79125 0.40698 0.0
C2038 C 0.05172 0.7867 0.39341 0.0
H2039 H 0.08703 0.81285 0.41947 0.0
H2040 H 0.97633 0.76677 0.28824 0.0
H2041 H 0.25712 0.2113 0.35447 0.0
H2042 H 0.24361 0.23087 0.34711 0.0
H2043 H 0.19848 0.20014 0.37966 0.0
H2044 H 0.21137 0.1802 0.38649 0.0
H2045 H 0.18647 0.20844 0.35256 0.0
H2046 H 0.24067 0.24325 0.39036 0.0
H2047 H 0.27441 0.25822 0.39597 0.0
H2048 H 0.28615 0.29096 0.35359 0.0
H2049 H 0.25251 0.27613 0.34774 0.0
H2050 H 0.15177 0.27039 0.34861 0.0
H2051 H 0.16127 0.24972 0.3613 0.0
H2052 H 0.21887 0.29195 0.35307 0.0
H2053 H 0.20928 0.31356 0.34553 0.0
H2054 H 0.22413 0.27505 0.36915 0.0
H2055 H 0.1759 0.24213 0.32582 0.0
H2056 H 0.14398 0.22653 0.31455 0.0
H2057 H 0.12349 0.19176 0.35582 0.0
H2058 H 0.15522 0.20718 0.36731 0.0
C2059 C 0.24413 0.20852 0.35979 0.0
C2060 C 0.23549 0.19448 0.37129 0.0
C2061 C 0.2365 0.21977 0.35567 0.0
C2062 C 0.22023 0.21716 0.3631 0.0
C2063 C 0.21109 0.20247 0.37387 0.0
C2064 C 0.2186 0.19122 0.37789 0.0
C2065 C 0.21319 0.23035 0.36077 0.0
C2066 C 0.19471 0.22322 0.35578 0.0
C2067 C 0.22402 0.24954 0.36479 0.0
C2068 C 0.24414 0.25854 0.36861 0.0
C2069 C 0.25047 0.25362 0.38226 0.0
C2070 C 0.26957 0.26208 0.38547 0.0
C2071 C 0.28241 0.27551 0.37514 0.0
C2072 C 0.2762 0.28057 0.36159 0.0
C2073 C 0.25714 0.27217 0.35834 0.0
C2074 C 0.1664 0.2755 0.3509 0.0
C2075 C 0.17988 0.29346 0.34601 0.0
C2076 C 0.17197 0.2633 0.3573 0.0
C2077 C 0.19093 0.26818 0.35706 0.0
C2078 C 0.20413 0.28703 0.35372 0.0
C2079 C 0.19861 0.29973 0.34931 0.0
C2080 C 0.19744 0.25414 0.35908 0.0
C2081 C 0.21579 0.2608 0.36473 0.0
C2082 C 0.18687 0.23485 0.35433 0.0
C2083 C 0.16783 0.226 0.3475 0.0
C2084 C 0.16454 0.23124 0.3325 0.0
C2085 C 0.1465 0.22241 0.32608 0.0
C2086 C 0.13171 0.20823 0.3345 0.0
C2087 C 0.13493 0.20279 0.34933 0.0
C2088 C 0.15292 0.21155 0.3558 0.0
H2089 H 0.11777 0.20141 0.32951 0.0
H2090 H 0.29718 0.28202 0.37764 0.0
H2091 H 0.62353 0.55094 0.69699 0.0
H2092 H 0.65617 0.5701 0.69012 0.0
H2093 H 0.66341 0.52185 0.69443 0.0
H2094 H 0.63123 0.50296 0.7028 0.0
H2095 H 0.69067 0.55049 0.70867 0.0
H2096 H 0.66096 0.54194 0.65682 0.0
H2097 H 0.63879 0.54335 0.63799 0.0
H2098 H 0.66396 0.60276 0.64636 0.0
H2099 H 0.68612 0.60168 0.66535 0.0
H2100 H 0.78463 0.60742 0.68058 0.0
H2101 H 0.75213 0.58112 0.68074 0.0
H2102 H 0.73256 0.6209 0.68235 0.0
H2103 H 0.76452 0.64676 0.68234 0.0
H2104 H 0.71214 0.59251 0.66204 0.0
H2105 H 0.73721 0.60243 0.71515 0.0
H2106 H 0.75855 0.60416 0.73643 0.0
H2107 H 0.74142 0.54601 0.72868 0.0
H2108 H 0.72025 0.54405 0.70708 0.0
C2109 C 0.63205 0.54437 0.69664 0.0
C2110 C 0.62462 0.52533 0.70051 0.0
C2111 C 0.65069 0.55531 0.6924 0.0
C2112 C 0.66218 0.54732 0.69141 0.0
C2113 C 0.65477 0.52827 0.69498 0.0
C2114 C 0.63624 0.51742 0.69958 0.0
C2115 C 0.68217 0.55907 0.68755 0.0
C2116 C 0.69537 0.55932 0.69824 0.0
C2117 C 0.6883 0.57105 0.67422 0.0
C2118 C 0.67517 0.5717 0.66254 0.0
C2119 C 0.66173 0.55529 0.65467 0.0
C2120 C 0.64916 0.55603 0.64397 0.0
C2121 C 0.64996 0.57313 0.64099 0.0
C2122 C 0.66336 0.58953 0.64866 0.0
C2123 C 0.67595 0.58886 0.65936 0.0
C2124 C 0.77327 0.61036 0.68072 0.0
C2125 C 0.77685 0.62893 0.68157 0.0
C2126 C 0.75483 0.59545 0.68087 0.0
C2127 C 0.74002 0.59915 0.68162 0.0
C2128 C 0.74377 0.61776 0.68172 0.0
C2129 C 0.76199 0.63249 0.68181 0.0
C2130 C 0.7205 0.58401 0.68323 0.0
C2131 C 0.70741 0.58319 0.67217 0.0
C2132 C 0.71445 0.57194 0.69646 0.0
C2133 C 0.72741 0.57319 0.70927 0.0
C2134 C 0.73819 0.59008 0.71781 0.0
C2135 C 0.75022 0.59109 0.72997 0.0
C2136 C 0.75142 0.57523 0.73385 0.0
C2137 C 0.74055 0.55831 0.7256 0.0
C2138 C 0.72856 0.55725 0.71338 0.0
H2139 H 0.7607 0.57602 0.7433 0.0
H2140 H 0.6402 0.57366 0.63272 0.0
H2141 H 0.44735 0.06831 0.70445 0.0
H2142 H 0.42824 0.08227 0.69864 0.0
H2143 H 0.47763 0.13665 0.69432 0.0
H2144 H 0.4967 0.12338 0.70217 0.0
H2145 H 0.45447 0.14091 0.71034 0.0
H2146 H 0.44742 0.10561 0.66075 0.0
H2147 H 0.43865 0.07677 0.64511 0.0
H2148 H 0.38326 0.05108 0.66375 0.0
H2149 H 0.39173 0.07969 0.67957 0.0
H2150 H 0.39415 0.16697 0.65799 0.0
H2151 H 0.4201 0.16172 0.66537 0.0
H2152 H 0.38781 0.1271 0.70432 0.0
H2153 H 0.36287 0.13318 0.6978 0.0
H2154 H 0.40363 0.11521 0.67005 0.0
H2155 H 0.41115 0.14555 0.72302 0.0
H2156 H 0.41758 0.17295 0.73969 0.0
H2157 H 0.47008 0.20584 0.71657 0.0
H2158 H 0.46359 0.17873 0.69931 0.0
C2159 C 0.45424 0.0833 0.70252 0.0
C2160 C 0.47373 0.09463 0.70394 0.0
C2161 C 0.44323 0.09122 0.69882 0.0
C2162 C 0.45147 0.1105 0.69572 0.0
C2163 C 0.47091 0.12172 0.69661 0.0
C2164 C 0.48187 0.11397 0.70086 0.0
C2165 C 0.43998 0.11933 0.69241 0.0
C2166 C 0.44359 0.13541 0.70131 0.0
C2167 C 0.4253 0.11189 0.68101 0.0
C2168 C 0.42026 0.09476 0.6714 0.0
C2169 C 0.4334 0.09378 0.66155 0.0
C2170 C 0.42847 0.07748 0.65265 0.0
C2171 C 0.41043 0.0621 0.65346 0.0
C2172 C 0.39724 0.063 0.66313 0.0
C2173 C 0.40208 0.07926 0.67204 0.0
C2174 C 0.39311 0.15903 0.66853 0.0
C2175 C 0.37658 0.15031 0.67724 0.0
C2176 C 0.4078 0.15598 0.67271 0.0
C2177 C 0.40586 0.14426 0.68553 0.0
C2178 C 0.38982 0.13666 0.69474 0.0
C2179 C 0.37551 0.13999 0.69085 0.0
C2180 C 0.41857 0.13683 0.68765 0.0
C2181 C 0.41492 0.12087 0.67873 0.0
C2182 C 0.43282 0.14402 0.69927 0.0
C2183 C 0.43661 0.16031 0.70952 0.0
C2184 C 0.42383 0.15874 0.72118 0.0
C2185 C 0.42753 0.17419 0.73081 0.0
C2186 C 0.44415 0.19118 0.72909 0.0
C2187 C 0.45713 0.19272 0.71778 0.0
C2188 C 0.45341 0.17734 0.70804 0.0
H2189 H 0.44703 0.20311 0.7366 0.0
H2190 H 0.40665 0.04949 0.64657 0.0
H2191 H 0.88428 0.37434 0.68666 0.0
H2192 H 0.8715 0.34066 0.68196 0.0
H2193 H 0.91159 0.34082 0.71483 0.0
H2194 H 0.92384 0.37412 0.72028 0.0
H2195 H 0.90555 0.31946 0.68496 0.0
H2196 H 0.87186 0.32777 0.72879 0.0
H2197 H 0.85277 0.33974 0.74096 0.0
H2198 H 0.81055 0.31122 0.70509 0.0
H2199 H 0.82956 0.29933 0.69256 0.0
H2200 H 0.86864 0.22368 0.69245 0.0
H2201 H 0.87916 0.25525 0.70301 0.0
H2202 H 0.83192 0.2547 0.68073 0.0
H2203 H 0.82139 0.22315 0.67045 0.0
H2204 H 0.84203 0.27682 0.7052 0.0
H2205 H 0.87278 0.26848 0.66074 0.0
H2206 H 0.89103 0.25805 0.64498 0.0
H2207 H 0.93746 0.28744 0.67701 0.0
H2208 H 0.91939 0.29779 0.69314 0.0
C2209 C 0.89037 0.36725 0.69295 0.0
C2210 C 0.90499 0.37701 0.70401 0.0
C2211 C 0.88313 0.34803 0.69014 0.0
C2212 C 0.89053 0.33831 0.69818 0.0
C2213 C 0.90574 0.34814 0.70851 0.0
C2214 C 0.9128 0.36725 0.71152 0.0
C2215 C 0.88174 0.31768 0.69666 0.0
C2216 C 0.89177 0.31006 0.68956 0.0
C2217 C 0.86353 0.30557 0.70218 0.0
C2218 C 0.85221 0.31284 0.70965 0.0
C2219 C 0.8586 0.32422 0.72341 0.0
C2220 C 0.84778 0.33095 0.73039 0.0
C2221 C 0.83048 0.32628 0.72378 0.0
C2222 C 0.82396 0.31485 0.71018 0.0
C2223 C 0.83475 0.30811 0.70314 0.0
C2224 C 0.85978 0.22976 0.69085 0.0
C2225 C 0.84432 0.22115 0.68054 0.0
C2226 C 0.86609 0.24803 0.6965 0.0
C2227 C 0.85678 0.25764 0.692 0.0
C2228 C 0.83953 0.2477 0.6841 0.0
C2229 C 0.83326 0.22946 0.6785 0.0
C2230 C 0.8659 0.27837 0.69368 0.0
C2231 C 0.85589 0.28609 0.7007 0.0
C2232 C 0.88396 0.29056 0.68763 0.0
C2233 C 0.89458 0.28363 0.67834 0.0
C2234 C 0.88677 0.27248 0.66458 0.0
C2235 C 0.89711 0.26663 0.65555 0.0
C2236 C 0.91536 0.272 0.66004 0.0
C2237 C 0.9233 0.28322 0.67359 0.0
C2238 C 0.913 0.28906 0.68269 0.0
H2239 H 0.92336 0.26752 0.65299 0.0
H2240 H 0.8221 0.33148 0.72923 0.0
H2241 H 0.19299 0.94982 0.65901 0.0
H2242 H 0.21143 0.98359 0.66501 0.0
H2243 H 0.22624 0.99449 0.61549 0.0
H2244 H 0.20868 0.96079 0.6097 0.0
H2245 H 0.2549 0.01643 0.63339 0.0
H2246 H 0.18824 0.99811 0.63441 0.0
H2247 H 0.15653 0.98 0.6453 0.0
H2248 H 0.17766 0.0017 0.6921 0.0
H2249 H 0.20947 0.01981 0.68151 0.0
H2250 H 0.29647 0.113 0.64238 0.0
H2251 H 0.27345 0.0826 0.63093 0.0
H2252 H 0.24601 0.06703 0.67644 0.0
H2253 H 0.26739 0.09795 0.68688 0.0
H2254 H 0.22275 0.04713 0.65829 0.0
H2255 H 0.28742 0.06209 0.66178 0.0
H2256 H 0.32081 0.07772 0.65517 0.0
H2257 H 0.30692 0.06072 0.60628 0.0
H2258 H 0.27348 0.04521 0.61256 0.0
C2259 C 0.20041 0.9595 0.64951 0.0
C2260 C 0.19947 0.95285 0.63391 0.0
C2261 C 0.21079 0.97875 0.65289 0.0
C2262 C 0.21981 0.99163 0.6406 0.0
C2263 C 0.21934 0.98485 0.62514 0.0
C2264 C 0.20934 0.96563 0.62184 0.0
C2265 C 0.22936 0.01219 0.64358 0.0
C2266 C 0.24787 0.02323 0.63873 0.0
C2267 C 0.22038 0.02098 0.65097 0.0
C2268 C 0.20119 0.01023 0.65717 0.0
C2269 C 0.1861 -0.00103 0.64702 0.0
C2270 C 0.16812 0.98871 0.65315 0.0
C2271 C 0.16509 0.98969 0.66938 0.0
C2272 C 0.18002 0.00096 0.67953 0.0
C2273 C 0.198 0.01124 0.67347 0.0
C2274 C 0.2845 0.10365 0.64937 0.0
C2275 C 0.28359 0.10774 0.66544 0.0
C2276 C 0.27178 0.08592 0.64307 0.0
C2277 C 0.25858 0.07198 0.65305 0.0
C2278 C 0.25611 0.07724 0.6684 0.0
C2279 C 0.26825 0.09513 0.67438 0.0
C2280 C 0.24868 0.05165 0.64853 0.0
C2281 C 0.22997 0.04054 0.65295 0.0
C2282 C 0.25783 0.04272 0.64145 0.0
C2283 C 0.27795 0.05277 0.6376 0.0
C2284 C 0.2915 0.06188 0.64959 0.0
C2285 C 0.31043 0.07068 0.64591 0.0
C2286 C 0.31598 0.07028 0.6303 0.0
C2287 C 0.30261 0.0611 0.61834 0.0
C2288 C 0.28368 0.05233 0.62196 0.0
H2289 H 0.33064 0.07702 0.62749 0.0
H2290 H 0.15116 0.98173 0.67409 0.0
H2291 H 0.03462 0.21626 0.61967 0.0
H2292 H 0.00189 0.20338 0.62659 0.0
H2293 H 0.01671 0.251 0.65754 0.0
H2294 H 0.04963 0.26404 0.6506 0.0
H2295 H 0.99166 0.21524 0.6711 0.0
H2296 H -0.00191 0.25099 0.6246 0.0
H2297 H 0.00678 0.26173 0.59705 0.0
H2298 H 0.96988 0.20583 0.57955 0.0
H2299 H 0.96118 0.19469 0.60704 0.0
H2300 H 0.90266 0.20743 0.67836 0.0
H2301 H 0.93507 0.21517 0.67582 0.0
H2302 H 0.91866 0.17151 0.64014 0.0
H2303 H 0.88615 0.16403 0.64254 0.0
H2304 H 0.94472 0.20455 0.62943 0.0
H2305 H 0.93765 0.16906 0.67653 0.0
H2306 H 0.92835 0.15933 0.70422 0.0
H2307 H 0.96582 0.21556 0.72069 0.0
H2308 H 0.97522 0.22567 0.69307 0.0
C2309 C 0.03091 0.2239 0.62804 0.0
C2310 C 0.04461 0.24109 0.63467 0.0
C2311 C 0.01224 0.21661 0.6319 0.0
C2312 C 0.00696 0.22629 0.64251 0.0
C2313 C 0.02059 0.24335 0.64932 0.0
C2314 C 0.0393 0.2508 0.64531 0.0
C2315 C 0.98712 0.21851 0.64638 0.0
C2316 C 0.98138 0.21306 0.66206 0.0
C2317 C 0.97377 0.21536 0.63446 0.0
C2318 C 0.97917 0.22195 0.61791 0.0
C2319 C 0.992 0.24094 0.6149 0.0
C2320 C 0.99689 0.24711 0.59928 0.0
C2321 C 0.98894 0.23446 0.58656 0.0
C2322 C 0.97606 0.21561 0.58942 0.0
C2323 C 0.97114 0.20936 0.60502 0.0
C2324 C 0.90596 0.19904 0.67047 0.0
C2325 C 0.89212 0.185 0.66083 0.0
C2326 C 0.92443 0.20344 0.669 0.0
C2327 C 0.92927 0.19384 0.65785 0.0
C2328 C 0.91519 0.17902 0.64886 0.0
C2329 C 0.89668 0.17463 0.65032 0.0
C2330 C 0.9491 0.20096 0.65415 0.0
C2331 C 0.95491 0.20646 0.63848 0.0
C2332 C 0.96248 0.20421 0.66609 0.0
C2333 C 0.95706 0.19813 0.68273 0.0
C2334 C 0.94384 0.17937 0.68605 0.0
C2335 C 0.93856 0.17378 0.70174 0.0
C2336 C 0.94647 0.18683 0.71421 0.0
C2337 C 0.95971 0.20547 0.71102 0.0
C2338 C 0.96505 0.21113 0.69536 0.0
H2339 H 0.94235 0.18248 0.72634 0.0
H2340 H 0.99272 0.23927 0.57448 0.0
H2341 H 0.78952 0.8261 0.63963 0.0
H2342 H 0.80252 0.80611 0.64545 0.0
H2343 H 0.74766 0.7572 0.64257 0.0
H2344 H 0.73421 0.77722 0.63866 0.0
H2345 H 0.76576 0.7513 0.66364 0.0
H2346 H 0.78158 0.77506 0.60981 0.0
H2347 H 0.79546 0.80016 0.58986 0.0
H2348 H 0.84893 0.82235 0.61263 0.0
H2349 H 0.83531 0.79749 0.63279 0.0
H2350 H 0.78961 0.68296 0.65234 0.0
H2351 H 0.77978 0.70456 0.6425 0.0
H2352 H 0.83398 0.75145 0.65407 0.0
H2353 H 0.84381 0.72978 0.66376 0.0
H2354 H 0.81736 0.75902 0.62898 0.0
H2355 H 0.80178 0.73484 0.68216 0.0
H2356 H 0.7879 0.71104 0.70315 0.0
H2357 H 0.73374 0.68999 0.68206 0.0
H2358 H 0.74731 0.71357 0.66086 0.0
C2359 C 0.78003 0.81117 0.6407 0.0
C2360 C 0.76071 0.80338 0.63831 0.0
C2361 C 0.78762 0.79967 0.64372 0.0
C2362 C 0.7762 0.78004 0.64378 0.0
C2363 C 0.75686 0.77228 0.64229 0.0
C2364 C 0.74919 0.7838 0.63979 0.0
C2365 C 0.78432 0.76751 0.64488 0.0
C2366 C 0.77682 0.75283 0.65586 0.0
C2367 C 0.79919 0.76978 0.63509 0.0
C2368 C 0.80741 0.78451 0.62284 0.0
C2369 C 0.79628 0.78533 0.61057 0.0
C2370 C 0.8041 0.79952 0.59923 0.0
C2371 C 0.82306 0.81286 0.59999 0.0
C2372 C 0.83425 0.81202 0.61206 0.0
C2373 C 0.8265 0.79787 0.62343 0.0
C2374 C 0.79985 0.69778 0.65166 0.0
C2375 C 0.81743 0.70477 0.65888 0.0
C2376 C 0.79406 0.71015 0.64642 0.0
C2377 C 0.80593 0.7296 0.64819 0.0
C2378 C 0.82453 0.73647 0.65282 0.0
C2379 C 0.8303 0.72405 0.65803 0.0
C2380 C 0.79836 0.74254 0.64735 0.0
C2381 C 0.80612 0.7574 0.63659 0.0
C2382 C 0.78368 0.74039 0.65731 0.0
C2383 C 0.77562 0.72579 0.66977 0.0
C2384 C 0.78695 0.72498 0.68187 0.0
C2385 C 0.77912 0.71158 0.69385 0.0
C2386 C 0.75997 0.69894 0.69389 0.0
C2387 C 0.74859 0.69973 0.68198 0.0
C2388 C 0.75633 0.71312 0.66999 0.0
H2389 H 0.75395 0.6886 0.70318 0.0
H2390 H 0.82909 0.82384 0.59121 0.0
H2391 H 0.03616 0.81982 0.62137 0.0
H2392 H 0.00429 0.80143 0.63091 0.0
H2393 H 0.02031 0.76857 0.6598 0.0
H2394 H 0.05222 0.78664 0.64994 0.0
H2395 H 0.98896 0.74704 0.64153 0.0
H2396 H 0.0113 0.80046 0.67738 0.0
H2397 H 0.02652 0.83434 0.68367 0.0
H2398 H 0.98548 0.83878 0.65569 0.0
H2399 H 0.97011 0.80495 0.64913 0.0
H2400 H 0.9067 0.69469 0.68101 0.0
H2401 H 0.93924 0.71935 0.67856 0.0
H2402 H 0.92244 0.75127 0.64925 0.0
H2403 H 0.88968 0.72665 0.65202 0.0
H2404 H 0.95413 0.77409 0.66805 0.0
H2405 H 0.93222 0.72284 0.63126 0.0
H2406 H 0.91698 0.68976 0.62234 0.0
H2407 H 0.95703 0.68197 0.64869 0.0
H2408 H 0.97234 0.71495 0.65801 0.0
C2409 C 0.03289 0.80866 0.62975 0.0
C2410 C 0.04663 0.80457 0.63485 0.0
C2411 C 0.01474 0.79832 0.63531 0.0
C2412 C 0.01004 0.7838 0.64617 0.0
C2413 C 0.02375 0.77982 0.65147 0.0
C2414 C 0.04195 0.79019 0.64591 0.0
C2415 C 0.99055 0.77211 0.65127 0.0
C2416 C 0.98145 0.75287 0.64763 0.0
C2417 C 0.98059 0.77995 0.65855 0.0
C2418 C 0.98962 0.80021 0.66271 0.0
C2419 C 0.00557 0.80869 0.67252 0.0
C2420 C 0.01421 0.82787 0.67614 0.0
C2421 C 0.00698 0.83871 0.67006 0.0
C2422 C 0.99106 0.83037 0.66039 0.0
C2423 C 0.98235 0.81118 0.65675 0.0
C2424 C 0.90995 0.70738 0.67464 0.0
C2425 C 0.89591 0.70899 0.66676 0.0
C2426 C 0.92848 0.72134 0.67315 0.0
C2427 C 0.93318 0.73687 0.66346 0.0
C2428 C 0.91902 0.73935 0.65676 0.0
C2429 C 0.90038 0.72539 0.6584 0.0
C2430 C 0.95272 0.74896 0.65867 0.0
C2431 C 0.96174 0.76824 0.66216 0.0
C2432 C 0.96256 0.74124 0.65095 0.0
C2433 C 0.95329 0.72132 0.6455 0.0
C2434 C 0.93766 0.71402 0.63531 0.0
C2435 C 0.92903 0.6953 0.63015 0.0
C2436 C 0.936 0.68375 0.63499 0.0
C2437 C 0.95163 0.69092 0.64498 0.0
C2438 C 0.96028 0.70963 0.65021 0.0
H2439 H 0.92933 0.66927 0.63095 0.0
H2440 H 0.01371 0.85357 0.67286 0.0
H2441 H 0.19152 0.22419 0.6134 0.0
H2442 H 0.21034 0.21105 0.62225 0.0
H2443 H 0.22002 0.2401 0.66729 0.0
H2444 H 0.20285 0.25514 0.65785 0.0
H2445 H 0.25061 0.24197 0.65782 0.0
H2446 H 0.18669 0.18983 0.66106 0.0
H2447 H 0.15548 0.16859 0.6497 0.0
H2448 H 0.1797 0.15081 0.61334 0.0
H2449 H 0.21103 0.172 0.62443 0.0
H2450 H 0.29226 0.19523 0.69291 0.0
H2451 H 0.26885 0.20449 0.68809 0.0
H2452 H 0.25564 0.17565 0.64266 0.0
H2453 H 0.27838 0.16566 0.64789 0.0
H2454 H 0.22593 0.17326 0.65364 0.0
H2455 H 0.28815 0.22442 0.64716 0.0
H2456 H 0.32066 0.24743 0.65439 0.0
H2457 H 0.30173 0.2686 0.69247 0.0
H2458 H 0.2691 0.2456 0.68554 0.0
C2459 C 0.19793 0.22823 0.62507 0.0
C2460 C 0.19563 0.24094 0.63482 0.0
C2461 C 0.2084 0.22028 0.63027 0.0
C2462 C 0.21618 0.22411 0.64563 0.0
C2463 C 0.21398 0.23676 0.65544 0.0
C2464 C 0.20393 0.24518 0.65007 0.0
C2465 C 0.22698 0.21525 0.65126 0.0
C2466 C 0.24506 0.2269 0.65724 0.0
C2467 C 0.22007 0.19566 0.64988 0.0
C2468 C 0.20118 0.18252 0.64356 0.0
C2469 C 0.18534 0.18138 0.65065 0.0
C2470 C 0.16764 0.16936 0.64425 0.0
C2471 C 0.16562 0.15837 0.6308 0.0
C2472 C 0.18128 0.1593 0.62376 0.0
C2473 C 0.199 0.17127 0.63013 0.0
C2474 C 0.28356 0.19 0.68233 0.0
C2475 C 0.2867 0.17933 0.67096 0.0
C2476 C 0.27053 0.19568 0.67939 0.0
C2477 C 0.26087 0.19126 0.6648 0.0
C2478 C 0.26293 0.17929 0.65399 0.0
C2479 C 0.27571 0.1733 0.65709 0.0
C2480 C 0.24952 0.19995 0.66034 0.0
C2481 C 0.23138 0.1883 0.65451 0.0
C2482 C 0.25656 0.21961 0.66149 0.0
C2483 C 0.27619 0.2331 0.66597 0.0
C2484 C 0.29093 0.23384 0.65718 0.0
C2485 C 0.30937 0.24692 0.66119 0.0
C2486 C 0.31326 0.25942 0.67392 0.0
C2487 C 0.2987 0.25888 0.68264 0.0
C2488 C 0.28023 0.24583 0.67867 0.0
H2489 H 0.32755 0.26956 0.67698 0.0
H2490 H 0.15191 0.14912 0.62584 0.0
H2491 H 0.73391 0.95654 0.63127 0.0
H2492 H 0.74857 0.99042 0.63655 0.0
H2493 H 0.79864 0.99139 0.65233 0.0
H2494 H 0.7837 0.95738 0.64752 0.0
H2495 H 0.79209 0.01554 0.66954 0.0
H2496 H 0.79276 0.00099 0.61311 0.0
H2497 H 0.7776 0.98575 0.58766 0.0
H2498 H 0.74522 0.01332 0.58899 0.0
H2499 H 0.76004 0.02854 0.61453 0.0
H2500 H 0.84634 0.11199 0.66752 0.0
H2501 H 0.83813 0.08035 0.65871 0.0
H2502 H 0.78932 0.07481 0.635 0.0
H2503 H 0.79823 0.1067 0.64301 0.0
H2504 H 0.79682 0.05251 0.62163 0.0
H2505 H 0.79191 0.06515 0.67693 0.0
H2506 H 0.80204 0.07839 0.70397 0.0
H2507 H 0.83674 0.05348 0.70694 0.0
H2508 H 0.82701 0.04029 0.67984 0.0
C2509 C 0.74782 0.96397 0.63634 0.0
C2510 C 0.75774 0.95458 0.63909 0.0
C2511 C 0.75625 0.98329 0.63919 0.0
C2512 C 0.77487 0.99348 0.64441 0.0
C2513 C 0.78432 0.9838 0.64819 0.0
C2514 C 0.7758 0.96444 0.64552 0.0
C2515 C 0.78496 0.01429 0.64478 0.0
C2516 C 0.79339 0.02369 0.65904 0.0
C2517 C 0.78616 0.02485 0.63116 0.0
C2518 C 0.77745 0.01582 0.61574 0.0
C2519 C 0.78236 0.00373 0.60799 0.0
C2520 C 0.77383 0.9951 0.59355 0.0
C2521 C 0.76045 0.99855 0.58672 0.0
C2522 C 0.75559 0.01066 0.59429 0.0
C2523 C 0.76406 0.01931 0.60873 0.0
C2524 C 0.83469 0.10451 0.65937 0.0
C2525 C 0.82274 0.11158 0.65609 0.0
C2526 C 0.82965 0.08619 0.65477 0.0
C2527 C 0.81253 0.07479 0.647 0.0
C2528 C 0.80241 0.08312 0.6413 0.0
C2529 C 0.80771 0.10156 0.64561 0.0
C2530 C 0.80393 0.054 0.64648 0.0
C2531 C 0.79577 0.0445 0.63216 0.0
C2532 C 0.80247 0.04336 0.66022 0.0
C2533 C 0.80896 0.052 0.67624 0.0
C2534 C 0.80189 0.06271 0.68327 0.0
C2535 C 0.80752 0.07015 0.69862 0.0
C2536 C 0.82009 0.06684 0.70713 0.0
C2537 C 0.82707 0.0561 0.70031 0.0
C2538 C 0.82152 0.04866 0.68494 0.0
H2539 H 0.82437 0.07255 0.71904 0.0
H2540 H 0.75387 0.99186 0.57554 0.0
H2541 H 0.46072 0.37941 0.68526 0.0
H2542 H 0.44159 0.34605 0.6784 0.0
H2543 H 0.46721 0.3321 0.71672 0.0
H2544 H 0.48748 0.36523 0.72257 0.0
H2545 H 0.46221 0.31022 0.69402 0.0
H2546 H 0.42274 0.33109 0.71858 0.0
H2547 H 0.40815 0.35081 0.72093 0.0
H2548 H 0.38191 0.3311 0.67524 0.0
H2549 H 0.39661 0.31156 0.67245 0.0
H2550 H 0.37796 0.21287 0.68869 0.0
H2551 H 0.4017 0.24284 0.701 0.0
H2552 H 0.40576 0.27142 0.65713 0.0
H2553 H 0.38362 0.24205 0.64459 0.0
H2554 H 0.394 0.28331 0.68821 0.0
H2555 H 0.43734 0.26838 0.66141 0.0
H2556 H 0.4512 0.24829 0.65734 0.0
H2557 H 0.46984 0.25724 0.70601 0.0
H2558 H 0.45544 0.27689 0.71052 0.0
C2559 C 0.46253 0.36924 0.69199 0.0
C2560 C 0.47527 0.37495 0.70475 0.0
C2561 C 0.45138 0.35016 0.68824 0.0
C2562 C 0.45245 0.33651 0.69747 0.0
C2563 C 0.46587 0.3423 0.70961 0.0
C2564 C 0.4773 0.36129 0.71307 0.0
C2565 C 0.43961 0.31618 0.69468 0.0
C2566 C 0.44727 0.30435 0.69307 0.0
C2567 C 0.42007 0.30843 0.69337 0.0
C2568 C 0.4109 0.31993 0.69527 0.0
C2569 C 0.41392 0.33101 0.709 0.0
C2570 C 0.40565 0.34218 0.7104 0.0
C2571 C 0.39414 0.34223 0.69823 0.0
C2572 C 0.39084 0.33107 0.68465 0.0
C2573 C 0.39914 0.31994 0.68316 0.0
C2574 C 0.38451 0.22544 0.68157 0.0
C2575 C 0.37863 0.22519 0.66582 0.0
C2576 C 0.39779 0.24251 0.68864 0.0
C2577 C 0.40491 0.25923 0.67999 0.0
C2578 C 0.40013 0.25864 0.66399 0.0
C2579 C 0.38752 0.24176 0.65686 0.0
C2580 C 0.41676 0.27781 0.68729 0.0
C2581 C 0.40892 0.28928 0.68972 0.0
C2582 C 0.43607 0.28529 0.68918 0.0
C2583 C 0.44494 0.27374 0.6864 0.0
C2584 C 0.44407 0.26579 0.67133 0.0
C2585 C 0.45207 0.25452 0.66893 0.0
C2586 C 0.4613 0.25139 0.68143 0.0
C2587 C 0.46259 0.25959 0.69636 0.0
C2588 C 0.45446 0.27074 0.69886 0.0
H2589 H 0.46753 0.2427 0.67954 0.0
H2590 H 0.38777 0.3509 0.69933 0.0
H2591 H 0.61545 0.07722 0.68197 0.0
H2592 H 0.64712 0.09251 0.67187 0.0
H2593 H 0.66737 0.12375 0.71595 0.0
H2594 H 0.63579 0.1103 0.72536 0.0
H2595 H 0.68552 0.14556 0.69454 0.0
H2596 H 0.66943 0.0821 0.70548 0.0
H2597 H 0.65124 0.04752 0.70364 0.0
H2598 H 0.66168 0.04987 0.6535 0.0
H2599 H 0.67973 0.08451 0.655 0.0
H2600 H 0.77516 0.15521 0.70181 0.0
H2601 H 0.74304 0.14869 0.70308 0.0
H2602 H 0.73654 0.13702 0.6526 0.0
H2603 H 0.76902 0.14391 0.65129 0.0
H2604 H 0.71116 0.10722 0.67235 0.0
H2605 H 0.73343 0.17356 0.66589 0.0
H2606 H 0.75397 0.20715 0.67237 0.0
H2607 H 0.73436 0.19754 0.72045 0.0
H2608 H 0.71386 0.16388 0.71432 0.0
C2609 C 0.62656 0.08761 0.68943 0.0
C2610 C 0.62289 0.09227 0.70462 0.0
C2611 C 0.64476 0.09615 0.6837 0.0
C2612 C 0.65975 0.10906 0.69324 0.0
C2613 C 0.65611 0.11383 0.70832 0.0
C2614 C 0.63794 0.10576 0.71384 0.0
C2615 C 0.67931 0.11762 0.68775 0.0
C2616 C 0.69109 0.13711 0.68975 0.0
C2617 C 0.68664 0.10672 0.68127 0.0
C2618 C 0.67569 0.08591 0.68031 0.0
C2619 C 0.6677 0.07525 0.69403 0.0
C2620 C 0.65744 0.05564 0.69305 0.0
C2621 C 0.65524 0.04651 0.67845 0.0
C2622 C 0.66334 0.05697 0.66479 0.0
C2623 C 0.67358 0.07659 0.6657 0.0
C2624 C 0.76703 0.15189 0.69091 0.0
C2625 C 0.77439 0.15012 0.67645 0.0
C2626 C 0.74874 0.14819 0.69163 0.0
C2627 C 0.73748 0.14244 0.67792 0.0
C2628 C 0.74512 0.14158 0.66327 0.0
C2629 C 0.7636 0.14561 0.6625 0.0
C2630 C 0.71726 0.13494 0.6795 0.0
C2631 C 0.70539 0.11565 0.6768 0.0
C2632 C 0.71004 0.14584 0.68603 0.0
C2633 C 0.72213 0.16618 0.68964 0.0
C2634 C 0.73355 0.1786 0.67786 0.0
C2635 C 0.74518 0.19766 0.68147 0.0
C2636 C 0.74547 0.20447 0.69681 0.0
C2637 C 0.7341 0.19225 0.70857 0.0
C2638 C 0.72244 0.17319 0.70502 0.0
H2639 H 0.75451 0.21922 0.69959 0.0
H2640 H 0.6473 0.03133 0.67772 0.0
H2641 H 0.88692 0.51267 0.68582 0.0
H2642 H 0.87289 0.53194 0.67932 0.0
H2643 H 0.91026 0.57457 0.71261 0.0
H2644 H 0.92403 0.5552 0.71929 0.0
H2645 H 0.87554 0.56516 0.71866 0.0
H2646 H 0.91377 0.58203 0.67272 0.0
H2647 H 0.92722 0.57666 0.64852 0.0
H2648 H 0.87304 0.54762 0.62659 0.0
H2649 H 0.85919 0.55254 0.65076 0.0
H2650 H 0.86066 0.64008 0.6947 0.0
H2651 H 0.86932 0.61756 0.70438 0.0
H2652 H 0.82909 0.57533 0.67239 0.0
H2653 H 0.82074 0.59804 0.66255 0.0
H2654 H 0.86428 0.5836 0.66558 0.0
H2655 H 0.82689 0.56864 0.71268 0.0
H2656 H 0.81547 0.57666 0.73685 0.0
H2657 H 0.87085 0.60505 0.7565 0.0
H2658 H 0.88267 0.59745 0.73234 0.0
C2659 C 0.89241 0.52636 0.69141 0.0
C2660 C 0.9064 0.53243 0.70315 0.0
C2661 C 0.88439 0.53735 0.68773 0.0
C2662 C 0.89043 0.55464 0.69559 0.0
C2663 C 0.90524 0.56119 0.70655 0.0
C2664 C 0.91313 0.55018 0.71031 0.0
C2665 C 0.88036 0.56514 0.69347 0.0
C2666 C 0.87326 0.56937 0.70705 0.0
C2667 C 0.87709 0.57032 0.67831 0.0
C2668 C 0.88539 0.56747 0.66366 0.0
C2669 C 0.90468 0.57435 0.6628 0.0
C2670 C 0.91239 0.57141 0.64907 0.0
C2671 C 0.90098 0.56175 0.63605 0.0
C2672 C 0.88185 0.55507 0.6367 0.0
C2673 C 0.87407 0.55794 0.65041 0.0
C2674 C 0.8527 0.62561 0.69061 0.0
C2675 C 0.84017 0.62079 0.67781 0.0
C2676 C 0.8579 0.61279 0.69593 0.0
C2677 C 0.85017 0.59488 0.6888 0.0
C2678 C 0.83543 0.58916 0.67788 0.0
C2679 C 0.83033 0.60201 0.67254 0.0
C2680 C 0.85936 0.58347 0.69078 0.0
C2681 C 0.8664 0.57918 0.67715 0.0
C2682 C 0.86284 0.5785 0.70591 0.0
C2683 C 0.85568 0.58257 0.72065 0.0
C2684 C 0.83665 0.57666 0.72213 0.0
C2685 C 0.83011 0.58113 0.73582 0.0
C2686 C 0.84244 0.59139 0.74819 0.0
C2687 C 0.86132 0.59711 0.74691 0.0
C2688 C 0.86795 0.5927 0.73323 0.0
H2689 H 0.83736 0.59489 0.75877 0.0
H2690 H 0.90698 0.55948 0.62544 0.0
H2691 H 0.46468 0.97843 0.18754 0.0
H2692 H 0.47066 0.98618 0.15941 0.0
H2693 H 0.5071 0.96283 0.15826 0.0
H2694 H 0.50251 0.95657 0.18655 0.0
H2695 H 0.52185 0.99279 0.14209 0.0
H2696 H 0.45943 0.93888 0.14368 0.0
H2697 H 0.42679 0.92166 0.15251 0.0
H2698 H 0.41735 0.96421 0.13271 0.0
H2699 H 0.44999 0.98181 0.12394 0.0
H2700 H 0.51696 0.98687 0.05421 0.0
H2701 H 0.51282 0.97579 0.08194 0.0
H2702 H 0.49367 0.01407 0.09491 0.0
H2703 H 0.49876 0.02594 0.06822 0.0
H2704 H 0.46952 0.97317 0.1038 0.0
H2705 H 0.53092 0.02857 0.10598 0.0
H2706 H 0.56332 0.04759 0.09702 0.0
H2707 H 0.57417 0.00352 0.11008 0.0
H2708 H 0.5416 0.98401 0.11874 0.0
C2709 C 0.4742 0.97522 0.18138 0.0
C2710 C 0.48289 0.96661 0.18933 0.0
C2711 C 0.47738 0.97938 0.1652 0.0
C2712 C 0.48893 0.9746 0.15657 0.0
C2713 C 0.49796 0.96645 0.16458 0.0
C2714 C 0.49511 0.96266 0.18077 0.0
C2715 C 0.49194 0.97826 0.13927 0.0
C2716 C 0.51035 0.9881 0.13373 0.0
C2717 C 0.47698 0.97255 0.1283 0.0
C2718 C 0.45721 0.96172 0.13324 0.0
C2719 C 0.45041 0.94459 0.14126 0.0
C2720 C 0.43191 0.93477 0.14625 0.0
C2721 C 0.42002 0.94185 0.1432 0.0
C2722 C 0.42658 0.95874 0.13507 0.0
C2723 C 0.44507 0.96863 0.13006 0.0
C2724 C 0.5123 0.99319 0.06309 0.0
C2725 C 0.50823 0.00729 0.05888 0.0
C2726 C 0.50972 0.9867 0.07881 0.0
C2727 C 0.50258 0.99393 0.09027 0.0
C2728 C 0.49893 0.00818 0.08616 0.0
C2729 C 0.50208 0.01505 0.07081 0.0
C2730 C 0.49929 0.98738 0.10684 0.0
C2731 C 0.48089 0.97726 0.11222 0.0
C2732 C 0.51417 0.99294 0.11769 0.0
C2733 C 0.53377 0.00471 0.11273 0.0
C2734 C 0.54014 0.02283 0.10674 0.0
C2735 C 0.55854 0.03371 0.10174 0.0
C2736 C 0.57078 0.02673 0.1029 0.0
C2737 C 0.56464 0.00887 0.10912 0.0
C2738 C 0.54621 0.99788 0.11405 0.0
H2739 H 0.58503 0.03519 0.09905 0.0
H2740 H 0.40571 0.93425 0.1471 0.0
H2741 H 0.00893 0.49474 0.19086 0.0
H2742 H 0.00178 0.49238 0.16234 0.0
H2743 H 0.05824 0.53551 0.15305 0.0
H2744 H 0.0657 0.53756 0.18136 0.0
H2745 H 0.03111 0.54221 0.13942 0.0
H2746 H 0.04558 0.49252 0.143 0.0
H2747 H 0.0423 0.46362 0.15469 0.0
H2748 H 0.9847 0.43334 0.14064 0.0
H2749 H 0.98755 0.46217 0.12909 0.0
H2750 H 0.02684 0.52485 0.05236 0.0
H2751 H 0.03671 0.53041 0.08052 0.0
H2752 H 0.97959 0.49656 0.09485 0.0
H2753 H 0.9696 0.49175 0.06709 0.0
H2754 H 0.00828 0.48508 0.10555 0.0
H2755 H 0.99157 0.53286 0.10513 0.0
H2756 H 0.99127 0.56166 0.09779 0.0
H2757 H 0.04972 0.59464 0.10843 0.0
H2758 H 0.05047 0.56592 0.11542 0.0
C2759 C 0.01993 0.50347 0.18273 0.0
C2760 C 0.03786 0.51647 0.18845 0.0
C2761 C 0.01579 0.50216 0.16644 0.0
C2762 C 0.02949 0.51381 0.15561 0.0
C2763 C 0.04745 0.52649 0.16123 0.0
C2764 C 0.05163 0.5277 0.17744 0.0
C2765 C 0.02494 0.51349 0.13849 0.0
C2766 C 0.02649 0.52984 0.13191 0.0
C2767 C 0.01833 0.49712 0.12891 0.0
C2768 C 0.01675 0.47957 0.13527 0.0
C2769 C 0.03218 0.47973 0.14246 0.0
C2770 C 0.0304 0.46336 0.14907 0.0
C2771 C 0.01329 0.44666 0.14844 0.0
C2772 C -0.00205 0.44629 0.14112 0.0
C2773 C -0.00036 0.46264 0.13452 0.0
C2774 C 0.01635 0.51939 0.06153 0.0
C2775 C 0.99745 0.5078 0.05749 0.0
C2776 C 0.02202 0.52229 0.07759 0.0
C2777 C 0.00887 0.51352 0.08969 0.0
C2778 C 0.98995 0.50324 0.08568 0.0
C2779 C 0.98428 0.5007 0.0698 0.0
C2780 C 0.01469 0.51395 0.10646 0.0
C2781 C 0.01326 0.49756 0.11298 0.0
C2782 C 0.02115 0.53018 0.11612 0.0
C2783 C 0.02115 0.54721 0.11053 0.0
C2784 C 0.00446 0.54618 0.10553 0.0
C2785 C 0.00417 0.56251 0.10156 0.0
C2786 C 0.02043 0.57998 0.10279 0.0
C2787 C 0.03711 0.58111 0.10762 0.0
C2788 C 0.0375 0.5648 0.11149 0.0
H2789 H 0.02014 0.59264 0.09994 0.0
H2790 H 0.01193 0.43401 0.1536 0.0
H2791 H 0.4648 0.48779 0.18477 0.0
H2792 H 0.46955 0.48589 0.1562 0.0
H2793 H 0.51773 0.54148 0.15812 0.0
H2794 H 0.513 0.54355 0.18661 0.0
H2795 H 0.4888 0.53447 0.13462 0.0
H2796 H 0.52387 0.50456 0.15456 0.0
H2797 H 0.5246 0.47963 0.17018 0.0
H2798 H 0.47979 0.43747 0.14179 0.0
H2799 H 0.47865 0.46213 0.12613 0.0
H2800 H 0.52436 0.53247 0.05412 0.0
H2801 H 0.52251 0.53821 0.0829 0.0
H2802 H 0.47407 0.48312 0.08677 0.0
H2803 H 0.47521 0.47775 0.05861 0.0
H2804 H 0.50442 0.49035 0.10767 0.0
H2805 H 0.46435 0.50991 0.09013 0.0
H2806 H 0.44902 0.52567 0.07788 0.0
H2807 H 0.48521 0.5762 0.10404 0.0
H2808 H 0.50199 0.5613 0.11526 0.0
C2809 C 0.47647 0.49954 0.17909 0.0
C2810 C 0.48855 0.51582 0.18786 0.0
C2811 C 0.47923 0.49838 0.16285 0.0
C2812 C 0.49407 0.5135 0.15517 0.0
C2813 C 0.50629 0.52964 0.16393 0.0
C2814 C 0.50363 0.53076 0.18017 0.0
C2815 C 0.49615 0.51309 0.13779 0.0
C2816 C 0.49284 0.52532 0.12865 0.0
C2817 C 0.49984 0.49995 0.13018 0.0
C2818 C 0.50117 0.48521 0.13919 0.0
C2819 C 0.51417 0.48998 0.15166 0.0
C2820 C 0.51464 0.47589 0.16053 0.0
C2821 C 0.50224 0.45698 0.15698 0.0
C2822 C 0.4894 0.45212 0.14451 0.0
C2823 C 0.48887 0.46614 0.13561 0.0
C2824 C 0.51314 0.52189 0.06112 0.0
C2825 C 0.50023 0.50453 0.05426 0.0
C2826 C 0.51212 0.52509 0.07748 0.0
C2827 C 0.4983 0.5109 0.0869 0.0
C2828 C 0.48496 0.4941 0.07976 0.0
C2829 C 0.48571 0.4911 0.06364 0.0
C2830 C 0.49806 0.51256 0.10438 0.0
C2831 C 0.50128 0.50022 0.11357 0.0
C2832 C 0.49288 0.52462 0.11198 0.0
C2833 C 0.48493 0.53461 0.10316 0.0
C2834 C 0.46977 0.52467 0.09264 0.0
C2835 C 0.46071 0.53344 0.08591 0.0
C2836 C 0.46625 0.55199 0.09001 0.0
C2837 C 0.4811 0.56192 0.10062 0.0
C2838 C 0.49059 0.55341 0.10698 0.0
H2839 H 0.45883 0.55855 0.08512 0.0
H2840 H 0.50259 0.44611 0.1639 0.0
H2841 H 0.93527 0.47666 0.82732 0.0
H2842 H 0.94348 0.47938 0.85548 0.0
H2843 H -0.00175 0.48968 0.84347 0.0
H2844 H 0.99046 0.48774 0.81517 0.0
H2845 H 0.98087 0.46205 0.86627 0.0
H2846 H 0.99526 0.52453 0.8573 0.0
H2847 H 0.99033 0.54992 0.84755 0.0
H2848 H 0.94427 0.53268 0.87922 0.0
H2849 H 0.94871 0.50694 0.88899 0.0
H2850 H 0.02153 0.4932 0.94383 0.0
H2851 H 0.01354 0.48915 0.91548 0.0
H2852 H 0.9578 0.4766 0.92659 0.0
H2853 H 0.96576 0.4804 0.95508 0.0
H2854 H 0.97663 0.50637 0.90411 0.0
H2855 H 0.96374 0.44371 0.91274 0.0
H2856 H 0.97056 0.41955 0.92258 0.0
H2857 H 0.01714 0.43973 0.89105 0.0
H2858 H 0.01057 0.46407 0.88122 0.0
C2859 C 0.94921 0.47988 0.83058 0.0
C2860 C 0.9622 0.48199 0.81888 0.0
C2861 C 0.95384 0.48134 0.84673 0.0
C2862 C 0.97148 0.48478 0.85155 0.0
C2863 C 0.98452 0.48695 0.83998 0.0
C2864 C 0.97999 0.48571 0.8238 0.0
C2865 C 0.97596 0.48531 0.86872 0.0
C2866 C 0.98021 0.47192 0.87451 0.0
C2867 C 0.97487 0.49806 0.87946 0.0
C2868 C 0.97218 0.51363 0.87375 0.0
C2869 C 0.98395 0.52602 0.86209 0.0
C2870 C 0.98128 0.54051 0.85657 0.0
C2871 C 0.96696 0.54288 0.86272 0.0
C2872 C 0.95534 0.5308 0.87444 0.0
C2873 C 0.95794 0.51626 0.87999 0.0
C2874 C 0.0073 0.4886 0.94025 0.0
C2875 C 0.99412 0.48661 0.95163 0.0
C2876 C 0.00284 0.48663 0.92405 0.0
C2877 C 0.98515 0.48282 0.91892 0.0
C2878 C 0.97157 0.47967 0.9303 0.0
C2879 C 0.97598 0.48138 0.94657 0.0
C2880 C 0.98122 0.48288 0.90166 0.0
C2881 C 0.97721 0.49648 0.89585 0.0
C2882 C 0.98286 0.47055 0.89082 0.0
C2883 C 0.98667 0.4557 0.89635 0.0
C2884 C 0.97541 0.44293 0.90797 0.0
C2885 C 0.97925 0.42925 0.91354 0.0
C2886 C 0.9943 0.42812 0.90745 0.0
C2887 C 0.00548 0.44062 0.89575 0.0
C2888 C 0.00167 0.45435 0.89016 0.0
H2889 H 0.9973 0.41754 0.91179 0.0
H2890 H 0.9649 0.5541 0.85843 0.0
H2891 H 0.54039 0.47212 0.82585 0.0
H2892 H 0.53402 0.47406 0.854 0.0
H2893 H 0.49667 0.49416 0.841 0.0
H2894 H 0.50349 0.49278 0.81287 0.0
H2895 H 0.51775 0.51359 0.8653 0.0
H2896 H 0.48072 0.44705 0.85246 0.0
H2897 H 0.47602 0.41662 0.84257 0.0
H2898 H 0.51489 0.41849 0.87747 0.0
H2899 H 0.51992 0.449 0.88747 0.0
H2900 H 0.47592 0.50508 0.93893 0.0
H2901 H 0.47957 0.49929 0.91096 0.0
H2902 H 0.51375 0.47576 0.92492 0.0
H2903 H 0.50931 0.48071 0.95292 0.0
H2904 H 0.495 0.45808 0.90015 0.0
H2905 H 0.53274 0.52374 0.91312 0.0
H2906 H 0.54055 0.55548 0.92224 0.0
H2907 H 0.5035 0.5567 0.88704 0.0
H2908 H 0.49537 0.52492 0.8778 0.0
C2909 C 0.53086 0.47699 0.82906 0.0
C2910 C 0.52239 0.48229 0.81727 0.0
C2911 C 0.52715 0.47798 0.8451 0.0
C2912 C 0.51458 0.4839 0.84959 0.0
C2913 C 0.50637 0.48951 0.83781 0.0
C2914 C 0.5103 0.48877 0.82177 0.0
C2915 C 0.51009 0.48446 0.86657 0.0
C2916 C 0.51249 0.50137 0.87287 0.0
C2917 C 0.5039 0.46872 0.87659 0.0
C2918 C 0.50078 0.45034 0.87063 0.0
C2919 C 0.48832 0.441 0.85796 0.0
C2920 C 0.48559 0.42374 0.85235 0.0
C2921 C 0.49518 0.41564 0.85937 0.0
C2922 C 0.50748 0.42477 0.87204 0.0
C2923 C 0.51025 0.44203 0.87771 0.0
C2924 C 0.48357 0.49797 0.93599 0.0
C2925 C 0.49221 0.49318 0.94802 0.0
C2926 C 0.48597 0.49501 0.92002 0.0
C2927 C 0.4975 0.48772 0.9158 0.0
C2928 C 0.50492 0.48156 0.92786 0.0
C2929 C 0.5022 0.48417 0.94388 0.0
C2930 C 0.50237 0.48716 0.8989 0.0
C2931 C 0.50016 0.47029 0.8926 0.0
C2932 C 0.50897 0.50305 0.88892 0.0
C2933 C 0.51327 0.52185 0.89491 0.0
C2934 C 0.52609 0.53068 0.90746 0.0
C2935 C 0.53063 0.54871 0.91261 0.0
C2936 C 0.52248 0.55807 0.90526 0.0
C2937 C 0.50977 0.54943 0.89275 0.0
C2938 C 0.50521 0.53141 0.88755 0.0
H2939 H 0.52605 0.57205 0.90923 0.0
H2940 H 0.49305 0.40228 0.855 0.0
H2941 H 0.49349 0.00717 0.8168 0.0
H2942 H 0.48868 5e-05 0.84518 0.0
H2943 H 0.53464 0.05512 0.85659 0.0
H2944 H 0.53914 0.06265 0.82837 0.0
H2945 H 0.53558 0.02522 0.8724 0.0
H2946 H 0.49334 0.04839 0.8618 0.0
H2947 H 0.46748 0.04879 0.84758 0.0
H2948 H 0.43036 0.99179 0.86128 0.0
H2949 H 0.4561 0.99099 0.87543 0.0
H2950 H 0.53085 0.03821 0.95301 0.0
H2951 H 0.52939 0.04211 0.92437 0.0
H2952 H 0.47893 0.98827 0.92118 0.0
H2953 H 0.48015 0.9846 0.95013 0.0
H2954 H 0.47831 0.01348 0.90055 0.0
H2955 H 0.51992 0.99105 0.91313 0.0
H2956 H 0.5459 0.99007 0.92657 0.0
H2957 H 0.58437 0.04463 0.90852 0.0
H2958 H 0.55858 0.04605 0.89514 0.0
C2959 C 0.50242 0.01786 0.82534 0.0
C2960 C 0.51673 0.03548 0.82029 0.0
C2961 C 0.4997 0.01372 0.84153 0.0
C2962 C 0.5113 0.02708 0.85291 0.0
C2963 C 0.52563 0.0446 0.84794 0.0
C2964 C 0.52823 0.04883 0.8318 0.0
C2965 C 0.50867 0.02288 0.87006 0.0
C2966 C 0.52315 0.02281 0.87862 0.0
C2967 C 0.49216 0.0191 0.87795 0.0
C2968 C 0.47667 0.01957 0.86952 0.0
C2969 C 0.4797 0.03589 0.86166 0.0
C2970 C 0.46506 0.0362 0.85364 0.0
C2971 C 0.4473 0.02031 0.85349 0.0
C2972 C 0.44413 0.00408 0.86139 0.0
C2973 C 0.45874 0.0037 0.86942 0.0
C2974 C 0.5191 0.02754 0.94625 0.0
C2975 C 0.50552 0.01121 0.95366 0.0
C2976 C 0.5184 0.02964 0.9299 0.0
C2977 C 0.50435 0.01524 0.92062 0.0
C2978 C 0.48996 -0.00052 0.92815 0.0
C2979 C 0.49055 0.99747 0.94465 0.0
C2980 C 0.50548 0.01634 0.90305 0.0
C2981 C 0.4907 0.01572 0.89436 0.0
C2982 C 0.52172 0.01939 0.89499 0.0
C2983 C 0.53726 0.01872 0.90324 0.0
C2984 C 0.53388 0.00292 0.91215 0.0
C2985 C 0.54859 0.00227 0.91973 0.0
C2986 C 0.56677 0.0173 0.91843 0.0
C2987 C 0.57028 0.03301 0.90953 0.0
C2988 C 0.55562 0.03373 0.90194 0.0
H2989 H 0.57814 0.01676 0.92429 0.0
H2990 H 0.43598 0.02058 0.84728 0.0
H2991 H 0.16412 0.33085 0.52544 0.0
H2992 H 0.16984 0.33771 0.49707 0.0
H2993 H 0.13499 0.27875 0.4858 0.0
H2994 H 0.12966 0.27183 0.51416 0.0
H2995 H 0.16591 0.29218 0.47 0.0
H2996 H 0.12092 0.31112 0.47859 0.0
H2997 H 0.10716 0.32779 0.49239 0.0
H2998 H 0.15481 0.3808 0.48085 0.0
H2999 H 0.16903 0.36445 0.46718 0.0
H3000 H 0.15959 0.3048 0.38638 0.0
H3001 H 0.1551 0.29668 0.41455 0.0
H3002 H 0.19164 0.3549 0.42734 0.0
H3003 H 0.19563 0.36306 0.39917 0.0
H3004 H 0.15884 0.34125 0.44211 0.0
H3005 H 0.20363 0.3206 0.43392 0.0
H3006 H 0.21541 0.3027 0.41914 0.0
H3007 H 0.16519 0.2512 0.42922 0.0
H3008 H 0.153 0.26884 0.44387 0.0
C3009 C 0.15747 0.31943 0.51686 0.0
C3010 C 0.1465 0.30083 0.52194 0.0
C3011 C 0.16073 0.32334 0.50067 0.0
C3012 C 0.15276 0.30874 0.48928 0.0
C3013 C 0.14136 0.29021 0.49436 0.0
C3014 C 0.1383 0.28628 0.51054 0.0
C3015 C 0.157 0.31267 0.47214 0.0
C3016 C 0.16413 0.30276 0.46387 0.0
C3017 C 0.15488 0.3266 0.46417 0.0
C3018 C 0.14613 0.33654 0.47196 0.0
C3019 C 0.12852 0.32633 0.47905 0.0
C3020 C 0.12063 0.33573 0.48685 0.0
C3021 C 0.13013 0.35534 0.48753 0.0
C3022 C 0.14749 0.3656 0.48032 0.0
C3023 C 0.15546 0.35628 0.47253 0.0
C3024 C 0.16744 0.31567 0.39518 0.0
C3025 C 0.17812 0.33449 0.39065 0.0
C3026 C 0.16465 0.31109 0.41131 0.0
C3027 C 0.1729 0.32524 0.42308 0.0
C3028 C 0.18499 0.3438 0.41848 0.0
C3029 C 0.18759 0.34839 0.4024 0.0
C3030 C 0.16799 0.32093 0.44009 0.0
C3031 C 0.16065 0.33073 0.4483 0.0
C3032 C 0.16966 0.30673 0.44798 0.0
C3033 C 0.17739 0.29604 0.43993 0.0
C3034 C 0.19511 0.30546 0.43298 0.0
C3035 C 0.20184 0.29536 0.42461 0.0
C3036 C 0.19104 0.27583 0.42322 0.0
C3037 C 0.17354 0.26633 0.4303 0.0
C3038 C 0.16673 0.27637 0.43867 0.0
H3039 H 0.19624 0.26804 0.41667 0.0
H3040 H 0.12402 0.36259 0.4936 0.0
H3041 H 0.67314 0.83722 0.52622 0.0
H3042 H 0.66501 0.83484 0.49792 0.0
H3043 H 0.72265 0.85639 0.48578 0.0
H3044 H 0.73084 0.85929 0.51405 0.0
H3045 H 0.70954 0.87372 0.46935 0.0
H3046 H 0.68835 0.80924 0.48071 0.0
H3047 H 0.67095 0.77956 0.49529 0.0
H3048 H 0.61937 0.77664 0.48257 0.0
H3049 H 0.63648 0.80649 0.46813 0.0
H3050 H 0.69471 0.85135 0.38636 0.0
H3051 H 0.70317 0.85549 0.41457 0.0
H3052 H 0.64564 0.83433 0.42688 0.0
H3053 H 0.63709 0.82929 0.39864 0.0
H3054 H 0.65886 0.8166 0.44316 0.0
H3055 H 0.68135 0.88204 0.4317 0.0
H3056 H 0.69969 0.91092 0.41628 0.0
H3057 H 0.75002 0.91105 0.42873 0.0
H3058 H 0.73195 0.88198 0.44399 0.0
C3059 C 0.684 0.84123 0.51747 0.0
C3060 C 0.70262 0.84848 0.52227 0.0
C3061 C 0.67936 0.83984 0.50131 0.0
C3062 C 0.6932 0.84531 0.48967 0.0
C3063 C 0.71174 0.85217 0.49451 0.0
C3064 C 0.71641 0.85381 0.51064 0.0
C3065 C 0.68857 0.8447 0.47249 0.0
C3066 C 0.69859 0.86114 0.46359 0.0
C3067 C 0.67409 0.8284 0.46501 0.0
C3068 C 0.66373 0.81023 0.47346 0.0
C3069 C 0.67331 0.80235 0.4811 0.0
C3070 C 0.66349 0.78548 0.48934 0.0
C3071 C 0.64407 0.77625 0.48989 0.0
C3072 C 0.63442 0.78382 0.48215 0.0
C3073 C 0.64417 0.80071 0.47393 0.0
C3074 C 0.68403 0.84841 0.39508 0.0
C3075 C 0.66531 0.84037 0.39036 0.0
C3076 C 0.68882 0.85058 0.41123 0.0
C3077 C 0.67504 0.84526 0.42292 0.0
C3078 C 0.6565 0.83846 0.41812 0.0
C3079 C 0.65167 0.83592 0.402 0.0
C3080 C 0.67971 0.84569 0.44009 0.0
C3081 C 0.66974 0.82918 0.44896 0.0
C3082 C 0.69435 0.86187 0.44754 0.0
C3083 C 0.70528 0.87978 0.43891 0.0
C3084 C 0.69633 0.88821 0.43112 0.0
C3085 C 0.70667 0.9046 0.42239 0.0
C3086 C 0.726 0.9128 0.4215 0.0
C3087 C 0.73504 0.90468 0.42942 0.0
C3088 C 0.72476 0.88826 0.43812 0.0
H3089 H 0.73398 0.92545 0.41469 0.0
H3090 H 0.6365 0.7632 0.49629 0.0
H3091 H 0.13229 0.82122 0.51643 0.0
H3092 H 0.13674 0.82036 0.48765 0.0
H3093 H 0.17941 0.87881 0.48925 0.0
H3094 H 0.17508 0.87971 0.51798 0.0
H3095 H 0.15189 0.86939 0.46504 0.0
H3096 H 0.19263 0.848 0.48566 0.0
H3097 H 0.20013 0.82752 0.50157 0.0
H3098 H 0.15945 0.77924 0.47528 0.0
H3099 H 0.15153 0.79941 0.45934 0.0
H3100 H 0.19298 0.87169 0.38697 0.0
H3101 H 0.18838 0.87601 0.41547 0.0
H3102 H 0.14292 0.81887 0.4171 0.0
H3103 H 0.14695 0.81475 0.38907 0.0
H3104 H 0.17262 0.82831 0.43973 0.0
H3105 H 0.1313 0.84775 0.4193 0.0
H3106 H 0.12225 0.86674 0.40302 0.0
H3107 H 0.16078 0.91642 0.42899 0.0
H3108 H 0.17061 0.89786 0.44509 0.0
C3109 C 0.14266 0.83383 0.5106 0.0
C3110 C 0.1534 0.85052 0.51936 0.0
C3111 C 0.14521 0.83332 0.49424 0.0
C3112 C 0.15841 0.84953 0.4864 0.0
C3113 C 0.16916 0.86618 0.49513 0.0
C3114 C 0.16678 0.86664 0.51151 0.0
C3115 C 0.16086 0.84925 0.46904 0.0
C3116 C 0.15673 0.86066 0.45949 0.0
C3117 C 0.16658 0.83737 0.46187 0.0
C3118 C 0.17136 0.82521 0.47141 0.0
C3119 C 0.18517 0.833 0.48336 0.0
C3120 C 0.18952 0.82145 0.49236 0.0
C3121 C 0.18024 0.80209 0.48946 0.0
C3122 C 0.16661 0.79424 0.47752 0.0
C3123 C 0.1622 0.80573 0.46849 0.0
C3124 C 0.18175 0.86035 0.3934 0.0
C3125 C 0.17049 0.84286 0.38598 0.0
C3126 C 0.1792 0.86272 0.4096 0.0
C3127 C 0.16552 0.84758 0.41834 0.0
C3128 C 0.15367 0.83059 0.4106 0.0
C3129 C 0.15598 0.82833 0.39458 0.0
C3130 C 0.16398 0.84872 0.43574 0.0
C3131 C 0.16806 0.83727 0.44528 0.0
C3132 C 0.15791 0.8603 0.44286 0.0
C3133 C 0.15198 0.87147 0.43321 0.0
C3134 C 0.13809 0.86277 0.42138 0.0
C3135 C 0.13276 0.87344 0.41222 0.0
C3136 C 0.14095 0.89276 0.41494 0.0
C3137 C 0.15449 0.90145 0.42686 0.0
C3138 C 0.15999 0.89088 0.43598 0.0
H3139 H 0.13677 0.90099 0.40785 0.0
H3140 H 0.18363 0.79317 0.49645 0.0
H3141 H 0.65674 0.82449 0.14854 0.0
H3142 H 0.6644 0.82654 0.17692 0.0
H3143 H 0.60649 0.80401 0.1884 0.0
H3144 H 0.59872 0.80179 0.16013 0.0
H3145 H 0.62919 0.83383 0.20749 0.0
H3146 H 0.62641 0.77637 0.18901 0.0
H3147 H 0.63534 0.75747 0.17219 0.0
H3148 H 0.69217 0.79107 0.18781 0.0
H3149 H 0.6836 0.81031 0.20456 0.0
H3150 H 0.63213 0.81188 0.28836 0.0
H3151 H 0.62393 0.807 0.25993 0.0
H3152 H 0.68165 0.82821 0.24842 0.0
H3153 H 0.6898 0.83322 0.27671 0.0
H3154 H 0.65947 0.79968 0.22923 0.0
H3155 H 0.66378 0.85657 0.24793 0.0
H3156 H 0.6572 0.87792 0.26376 0.0
H3157 H 0.60051 0.84888 0.24714 0.0
H3158 H 0.60664 0.8271 0.23145 0.0
C3159 C 0.64563 0.81985 0.15711 0.0
C3160 C 0.62712 0.81292 0.15207 0.0
C3161 C 0.65003 0.82108 0.17331 0.0
C3162 C 0.63598 0.81526 0.18476 0.0
C3163 C 0.61755 0.80862 0.17977 0.0
C3164 C 0.61315 0.8074 0.1636 0.0
C3165 C 0.64032 0.81578 0.20195 0.0
C3166 C 0.63555 0.82613 0.21232 0.0
C3167 C 0.64923 0.8063 0.20812 0.0
C3168 C 0.65439 0.79487 0.19791 0.0
C3169 C 0.64083 0.77982 0.18874 0.0
C3170 C 0.64583 0.76903 0.17925 0.0
C3171 C 0.66432 0.77309 0.1789 0.0
C3172 C 0.67786 0.78795 0.18806 0.0
C3173 C 0.67294 0.79879 0.19756 0.0
C3174 C 0.64286 0.81459 0.27975 0.0
C3175 C 0.66153 0.82255 0.28464 0.0
C3176 C 0.63825 0.81221 0.26354 0.0
C3177 C 0.65225 0.81764 0.25207 0.0
C3178 C 0.67065 0.82403 0.25705 0.0
C3179 C 0.67526 0.82661 0.2732 0.0
C3180 C 0.64804 0.81744 0.23489 0.0
C3181 C 0.65297 0.80727 0.22448 0.0
C3182 C 0.63954 0.82737 0.22869 0.0
C3183 C 0.6356 0.83995 0.23872 0.0
C3184 C 0.64982 0.8545 0.24786 0.0
C3185 C 0.64619 0.86675 0.25676 0.0
C3186 C 0.62843 0.8647 0.25652 0.0
C3187 C 0.61425 0.8504 0.24738 0.0
C3188 C 0.61779 0.83808 0.23849 0.0
H3189 H 0.62567 0.87424 0.26337 0.0
H3190 H 0.66815 0.7647 0.17157 0.0
H3191 H 0.15674 0.79346 0.14868 0.0
H3192 H 0.15143 0.7967 0.17686 0.0
H3193 H 0.20851 0.84105 0.18224 0.0
H3194 H 0.21388 0.8379 0.15396 0.0
H3195 H 0.197 0.81183 0.2045 0.0
H3196 H 0.17672 0.85263 0.18377 0.0
H3197 H 0.15875 0.86159 0.16607 0.0
H3198 H 0.10767 0.81738 0.18497 0.0
H3199 H 0.12533 0.80794 0.20262 0.0
H3200 H 0.19095 0.83822 0.28332 0.0
H3201 H 0.19594 0.83468 0.25539 0.0
H3202 H 0.13645 0.80212 0.24766 0.0
H3203 H 0.13156 0.80731 0.27566 0.0
H3204 H 0.14964 0.82583 0.22603 0.0
H3205 H 0.16967 0.78417 0.24628 0.0
H3206 H 0.18754 0.77388 0.26274 0.0
H3207 H 0.2387 0.81828 0.24414 0.0
H3208 H 0.22116 0.82902 0.22773 0.0
C3209 C 0.1681 0.80399 0.15587 0.0
C3210 C 0.18573 0.81538 0.14922 0.0
C3211 C 0.16503 0.80591 0.1719 0.0
C3212 C 0.17957 0.81914 0.18158 0.0
C3213 C 0.19712 0.83078 0.17492 0.0
C3214 C 0.20014 0.82904 0.1588 0.0
C3215 C 0.17668 0.81989 0.19885 0.0
C3216 C 0.18685 0.81515 0.2093 0.0
C3217 C 0.16303 0.82368 0.20493 0.0
C3218 C 0.15236 0.82945 0.19442 0.0
C3219 C 0.16165 0.8447 0.18406 0.0
C3220 C 0.15152 0.84989 0.17405 0.0
C3221 C 0.13208 0.84003 0.17436 0.0
C3222 C 0.12273 0.82499 0.18473 0.0
C3223 C 0.1328 0.81972 0.19475 0.0
C3224 C 0.17895 0.82972 0.27576 0.0
C3225 C 0.16088 0.8226 0.28163 0.0
C3226 C 0.18181 0.82767 0.25974 0.0
C3227 C 0.16661 0.81779 0.24932 0.0
C3228 C 0.14844 0.80976 0.25543 0.0
C3229 C 0.14559 0.81241 0.27144 0.0
C3230 C 0.16976 0.8174 0.23191 0.0
C3231 C 0.15973 0.82236 0.22136 0.0
C3232 C 0.18349 0.81366 0.22571 0.0
C3233 C 0.19408 0.80745 0.23583 0.0
C3234 C 0.18473 0.79184 0.2458 0.0
C3235 C 0.1948 0.78591 0.2551 0.0
C3236 C 0.21423 0.79539 0.25446 0.0
C3237 C 0.22365 0.81092 0.2446 0.0
C3238 C 0.21365 0.81693 0.23529 0.0
H3239 H 0.22196 0.79066 0.26157 0.0
H3240 H 0.12426 0.84406 0.1666 0.0
H3241 H 0.1707 0.3388 0.1501 0.0
H3242 H 0.16629 0.33211 0.17862 0.0
H3243 H 0.19077 0.39139 0.1889 0.0
H3244 H 0.19571 0.39811 0.16051 0.0
H3245 H 0.2032 0.3754 0.20929 0.0
H3246 H 0.14138 0.3594 0.18787 0.0
H3247 H 0.11422 0.34142 0.17011 0.0
H3248 H 0.1073 0.28966 0.18834 0.0
H3249 H 0.13447 0.30735 0.20613 0.0
H3250 H 0.17719 0.37004 0.28966 0.0
H3251 H 0.17967 0.37748 0.2612 0.0
H3252 H 0.14773 0.31818 0.24992 0.0
H3253 H 0.14443 0.31102 0.27806 0.0
H3254 H 0.1396 0.33393 0.22967 0.0
H3255 H 0.19813 0.34564 0.25081 0.0
H3256 H 0.22681 0.35977 0.26718 0.0
H3257 H 0.24232 0.41429 0.24901 0.0
H3258 H 0.21362 0.40054 0.23268 0.0
C3259 C 0.17508 0.35034 0.1585 0.0
C3260 C 0.18345 0.36894 0.15318 0.0
C3261 C 0.17256 0.34653 0.17475 0.0
C3262 C 0.17794 0.36125 0.18587 0.0
C3263 C 0.18652 0.37984 0.18054 0.0
C3264 C 0.1893 0.38366 0.16435 0.0
C3265 C 0.17433 0.35745 0.20306 0.0
C3266 C 0.18928 0.36652 0.21384 0.0
C3267 C 0.15631 0.34521 0.20888 0.0
C3268 C 0.13998 0.33468 0.19823 0.0
C3269 C 0.13409 0.34419 0.18802 0.0
C3270 C 0.11869 0.33405 0.17797 0.0
C3271 C 0.10906 0.31441 0.17808 0.0
C3272 C 0.11477 0.30487 0.18827 0.0
C3273 C 0.13014 0.31493 0.19835 0.0
C3274 C 0.16979 0.35877 0.28106 0.0
C3275 C 0.16038 0.33998 0.28595 0.0
C3276 C 0.17168 0.36295 0.26481 0.0
C3277 C 0.16441 0.34836 0.25336 0.0
C3278 C 0.15354 0.32974 0.25842 0.0
C3279 C 0.15141 0.32562 0.27454 0.0
C3280 C 0.16846 0.35205 0.23615 0.0
C3281 C 0.15359 0.34291 0.2253 0.0
C3282 C 0.18671 0.36366 0.23029 0.0
C3283 C 0.20353 0.37209 0.24072 0.0
C3284 C 0.2075 0.36068 0.25048 0.0
C3285 C 0.22381 0.36861 0.25971 0.0
C3286 C 0.23634 0.38792 0.25919 0.0
C3287 C 0.23257 0.39935 0.24945 0.0
C3288 C 0.21628 0.39149 0.24022 0.0
H3289 H 0.24898 0.39402 0.26629 0.0
H3290 H 0.09714 0.3066 0.17029 0.0
H3291 H 0.80116 0.60311 0.84689 0.0
H3292 H 0.80684 0.61062 0.81868 0.0
H3293 H 0.83339 0.66974 0.83023 0.0
H3294 H 0.82778 0.6623 0.85854 0.0
H3295 H 0.81049 0.6607 0.80457 0.0
H3296 H 0.85925 0.64916 0.8218 0.0
H3297 H 0.87279 0.63128 0.83367 0.0
H3298 H 0.84367 0.58693 0.7993 0.0
H3299 H 0.82974 0.60444 0.78739 0.0
H3300 H 0.85791 0.69898 0.73371 0.0
H3301 H 0.85215 0.68946 0.76147 0.0
H3302 H 0.8253 0.63125 0.74679 0.0
H3303 H 0.83092 0.64074 0.71884 0.0
H3304 H 0.84662 0.63838 0.77357 0.0
H3305 H 0.79877 0.65021 0.7556 0.0
H3306 H 0.78388 0.66708 0.74425 0.0
H3307 H 0.81032 0.71037 0.77991 0.0
H3308 H 0.82556 0.69388 0.79136 0.0
C3309 C 0.80826 0.61772 0.84343 0.0
C3310 C 0.81421 0.63213 0.85494 0.0
C3311 C 0.81149 0.62198 0.82731 0.0
C3312 C 0.82083 0.64074 0.82239 0.0
C3313 C 0.82621 0.65516 0.83379 0.0
C3314 C 0.82295 0.6509 0.84994 0.0
C3315 C 0.82517 0.64532 0.80536 0.0
C3316 C 0.81863 0.65608 0.79783 0.0
C3317 C 0.83523 0.63871 0.79646 0.0
C3318 C 0.84329 0.62801 0.80383 0.0
C3319 C 0.85557 0.6355 0.81689 0.0
C3320 C 0.86335 0.62545 0.82361 0.0
C3321 C 0.85905 0.60795 0.81728 0.0
C3322 C 0.84696 0.60046 0.80422 0.0
C3323 C 0.83912 0.61044 0.79748 0.0
C3324 C 0.85137 0.68415 0.73642 0.0
C3325 C 0.84485 0.67059 0.72412 0.0
C3326 C 0.84779 0.67874 0.75227 0.0
C3327 C 0.83774 0.65966 0.75612 0.0
C3328 C 0.83283 0.64607 0.744 0.0
C3329 C 0.83634 0.65149 0.72806 0.0
C3330 C 0.83222 0.65405 0.77281 0.0
C3331 C 0.83848 0.64303 0.78028 0.0
C3332 C 0.82187 0.66043 0.78162 0.0
C3333 C 0.81353 0.67091 0.77421 0.0
C3334 C 0.80166 0.66347 0.76087 0.0
C3335 C 0.79308 0.67293 0.75447 0.0
C3336 C 0.7962 0.68982 0.76132 0.0
C3337 C 0.80795 0.69731 0.77458 0.0
C3338 C 0.81656 0.68791 0.78104 0.0
H3339 H 0.78948 0.69707 0.75639 0.0
H3340 H 0.86512 0.60021 0.82247 0.0
H3341 H 0.38217 0.21334 0.85149 0.0
H3342 H 0.37463 0.2106 0.8233 0.0
H3343 H 0.3432 0.15022 0.82714 0.0
H3344 H 0.35218 0.15275 0.85506 0.0
H3345 H 0.36241 0.15795 0.80238 0.0
H3346 H 0.32296 0.18031 0.82272 0.0
H3347 H 0.31526 0.20154 0.83751 0.0
H3348 H 0.35203 0.24744 0.8079 0.0
H3349 H 0.3601 0.22654 0.79305 0.0
H3350 H 0.3153 0.13641 0.72991 0.0
H3351 H 0.32145 0.14284 0.75822 0.0
H3352 H 0.36099 0.20083 0.74837 0.0
H3353 H 0.35473 0.19437 0.71959 0.0
H3354 H 0.3389 0.19566 0.77553 0.0
H3355 H 0.37619 0.17069 0.75423 0.0
H3356 H 0.38193 0.14786 0.73979 0.0
H3357 H 0.34635 0.10451 0.77197 0.0
H3358 H 0.34006 0.12695 0.7864 0.0
C3359 C 0.37388 0.19942 0.84636 0.0
C3360 C 0.36798 0.18326 0.85567 0.0
C3361 C 0.36924 0.1979 0.83022 0.0
C3362 C 0.35807 0.18021 0.82305 0.0
C3363 C 0.35181 0.16406 0.83236 0.0
C3364 C 0.3568 0.16554 0.84844 0.0
C3365 C 0.35374 0.17847 0.80569 0.0
C3366 C 0.35699 0.16601 0.79661 0.0
C3367 C 0.34715 0.18934 0.79797 0.0
C3368 C 0.34227 0.2019 0.80687 0.0
C3369 C 0.3295 0.19496 0.81944 0.0
C3370 C 0.32505 0.20693 0.82782 0.0
C3371 C 0.33319 0.22584 0.82368 0.0
C3372 C 0.34575 0.2328 0.81111 0.0
C3373 C 0.35025 0.2209 0.80269 0.0
C3374 C 0.32507 0.15065 0.73375 0.0
C3375 C 0.33468 0.16489 0.72258 0.0
C3376 C 0.32864 0.15426 0.74994 0.0
C3377 C 0.34203 0.17216 0.75535 0.0
C3378 C 0.35073 0.18684 0.74436 0.0
C3379 C 0.34708 0.18322 0.72798 0.0
C3380 C 0.34735 0.17502 0.77243 0.0
C3381 C 0.34433 0.18767 0.7814 0.0
C3382 C 0.35383 0.16405 0.78013 0.0
C3383 C 0.35753 0.15051 0.77133 0.0
C3384 C 0.36944 0.15625 0.75814 0.0
C3385 C 0.37282 0.14338 0.74997 0.0
C3386 C 0.3645 0.12475 0.75495 0.0
C3387 C 0.35277 0.11894 0.76811 0.0
C3388 C 0.3493 0.13173 0.77629 0.0
H3389 H 0.36717 0.11483 0.74863 0.0
H3390 H 0.32974 0.23508 0.83018 0.0
H3391 H 0.80117 0.15643 0.85085 0.0
H3392 H 0.8055 0.15542 0.82213 0.0
H3393 H 0.84784 0.21399 0.82335 0.0
H3394 H 0.84351 0.21513 0.85207 0.0
H3395 H 0.82019 0.20351 0.79851 0.0
H3396 H 0.8611 0.18249 0.82108 0.0
H3397 H 0.86781 0.16179 0.83751 0.0
H3398 H 0.8271 0.11362 0.81112 0.0
H3399 H 0.81997 0.13399 0.79467 0.0
H3400 H 0.8537 0.19842 0.71814 0.0
H3401 H 0.85249 0.20653 0.74642 0.0
H3402 H 0.81109 0.14889 0.75528 0.0
H3403 H 0.81211 0.14084 0.72787 0.0
H3404 H 0.84161 0.16207 0.77515 0.0
H3405 H 0.79692 0.17707 0.75543 0.0
H3406 H 0.78429 0.19292 0.73904 0.0
H3407 H 0.82416 0.24617 0.75959 0.0
H3408 H 0.83726 0.23064 0.77593 0.0
C3409 C 0.81139 0.16907 0.84498 0.0
C3410 C 0.82207 0.18584 0.85365 0.0
C3411 C 0.81389 0.16847 0.82862 0.0
C3412 C 0.82704 0.18463 0.8207 0.0
C3413 C 0.83765 0.2014 0.82931 0.0
C3414 C 0.83528 0.20197 0.84569 0.0
C3415 C 0.82975 0.18401 0.80342 0.0
C3416 C 0.82526 0.19478 0.79336 0.0
C3417 C 0.83561 0.172 0.79679 0.0
C3418 C 0.83992 0.15977 0.80672 0.0
C3419 C 0.85348 0.16747 0.81886 0.0
C3420 C 0.85738 0.1558 0.82816 0.0
C3421 C 0.84787 0.1364 0.82537 0.0
C3422 C 0.83445 0.12864 0.81327 0.0
C3423 C 0.83049 0.14025 0.80395 0.0
C3424 C 0.84435 0.18763 0.7262 0.0
C3425 C 0.83354 0.16891 0.72093 0.0
C3426 C 0.84361 0.19223 0.74224 0.0
C3427 C 0.83191 0.17816 0.7529 0.0
C3428 C 0.82045 0.15984 0.74733 0.0
C3429 C 0.82121 0.15529 0.7316 0.0
C3430 C 0.83212 0.18161 0.77017 0.0
C3431 C 0.83702 0.17122 0.78027 0.0
C3432 C 0.82585 0.1933 0.77675 0.0
C3433 C 0.81834 0.20275 0.76666 0.0
C3434 C 0.80322 0.1922 0.75626 0.0
C3435 C 0.79591 0.20111 0.74704 0.0
C3436 C 0.80349 0.22055 0.74821 0.0
C3437 C 0.81836 0.23112 0.75864 0.0
C3438 C 0.82575 0.22227 0.76788 0.0
H3439 H 0.79778 0.22743 0.74108 0.0
H3440 H 0.85092 0.1274 0.83258 0.0
H3441 H 0.31446 0.17655 0.48501 0.0
H3442 H 0.32185 0.17861 0.51359 0.0
H3443 H 0.28643 0.11856 0.51729 0.0
H3444 H 0.27937 0.11647 0.48869 0.0
H3445 H 0.28075 0.14116 0.54096 0.0
H3446 H 0.331 0.13498 0.51664 0.0
H3447 H 0.35763 0.14501 0.49861 0.0
H3448 H 0.3859 0.19908 0.52174 0.0
H3449 H 0.35934 0.18944 0.53978 0.0
H3450 H 0.30226 0.13126 0.61984 0.0
H3451 H 0.29791 0.12567 0.591 0.0
H3452 H 0.34395 0.18157 0.58304 0.0
H3453 H 0.34872 0.18666 0.61165 0.0
H3454 H 0.34425 0.16065 0.5611 0.0
H3455 H 0.29804 0.1714 0.58383 0.0
H3456 H 0.27251 0.16667 0.6016 0.0
H3457 H 0.23769 0.11162 0.58153 0.0
H3458 H 0.26314 0.11589 0.56382 0.0
C3459 C 0.30838 0.16385 0.49199 0.0
C3460 C 0.2965 0.14634 0.48483 0.0
C3461 C 0.31258 0.16502 0.50822 0.0
C3462 C 0.30473 0.14871 0.51745 0.0
C3463 C 0.29264 0.13126 0.5103 0.0
C3464 C 0.28869 0.13006 0.49405 0.0
C3465 C 0.30898 0.14976 0.53461 0.0
C3466 C 0.29454 0.14512 0.54543 0.0
C3467 C 0.32717 0.15579 0.54032 0.0
C3468 C 0.34311 0.16154 0.52946 0.0
C3469 C 0.34283 0.14905 0.51779 0.0
C3470 C 0.35793 0.15466 0.50759 0.0
C3471 C 0.37343 0.17268 0.509 0.0
C3472 C 0.37388 0.18513 0.52064 0.0
C3473 C 0.35882 0.17959 0.53087 0.0
C3474 C 0.31188 0.14192 0.61188 0.0
C3475 C 0.32591 0.15927 0.6178 0.0
C3476 C 0.30922 0.13891 0.59543 0.0
C3477 C 0.32035 0.15338 0.58486 0.0
C3478 C 0.33516 0.1702 0.5909 0.0
C3479 C 0.33789 0.17311 0.60723 0.0
C3480 C 0.31593 0.15175 0.56762 0.0
C3481 C 0.33036 0.15645 0.55674 0.0
C3482 C 0.29788 0.14657 0.56188 0.0
C3483 C 0.2826 0.14386 0.57265 0.0
C3484 C 0.28501 0.1582 0.58332 0.0
C3485 C 0.27054 0.15562 0.59336 0.0
C3486 C 0.25351 0.13883 0.59273 0.0
C3487 C 0.25091 0.1246 0.58204 0.0
C3488 C 0.26535 0.12709 0.572 0.0
H3489 H 0.24231 0.13687 0.60049 0.0
H3490 H 0.38511 0.17698 0.5011 0.0
H3491 H 0.87483 0.17408 0.48567 0.0
H3492 H 0.86881 0.17656 0.51379 0.0
H3493 H 0.82298 0.11952 0.51247 0.0
H3494 H 0.82824 0.11727 0.48424 0.0
H3495 H 0.8142 0.14142 0.52942 0.0
H3496 H 0.86764 0.1316 0.52708 0.0
H3497 H 0.89929 0.13985 0.51873 0.0
H3498 H 0.92155 0.19392 0.54141 0.0
H3499 H 0.89001 0.18608 0.54974 0.0
H3500 H 0.80992 0.13577 0.61607 0.0
H3501 H 0.81199 0.12743 0.58803 0.0
H3502 H 0.85759 0.18362 0.5806 0.0
H3503 H 0.85573 0.19182 0.60779 0.0
H3504 H 0.86525 0.1584 0.56853 0.0
H3505 H 0.81574 0.17256 0.5685 0.0
H3506 H 0.78545 0.16904 0.57591 0.0
H3507 H 0.7574 0.11272 0.55706 0.0
H3508 H 0.78761 0.11581 0.54976 0.0
C3509 C 0.8633 0.16217 0.49131 0.0
C3510 C 0.85218 0.14539 0.48276 0.0
C3511 C 0.86 0.16353 0.50742 0.0
C3512 C 0.84571 0.14805 0.51531 0.0
C3513 C 0.8342 0.13156 0.50666 0.0
C3514 C 0.83736 0.13024 0.49056 0.0
C3515 C 0.84288 0.1488 0.53263 0.0
C3516 C 0.82527 0.1448 0.53801 0.0
C3517 C 0.85746 0.15371 0.54379 0.0
C3518 C 0.87645 0.15828 0.53895 0.0
C3519 C 0.87927 0.14527 0.53023 0.0
C3520 C 0.8972 0.14988 0.5255 0.0
C3521 C 0.91241 0.16741 0.52952 0.0
C3522 C 0.90975 0.18035 0.53831 0.0
C3523 C 0.89186 0.17583 0.54305 0.0
C3524 C 0.82034 0.14619 0.60836 0.0
C3525 C 0.83238 0.16451 0.61403 0.0
C3526 C 0.8215 0.14149 0.59243 0.0
C3527 C 0.83494 0.15499 0.58227 0.0
C3528 C 0.84716 0.17299 0.58818 0.0
C3529 C 0.8459 0.17768 0.60376 0.0
C3530 C 0.8366 0.15109 0.56533 0.0
C3531 C 0.85405 0.15458 0.55998 0.0
C3532 C 0.82206 0.14631 0.55419 0.0
C3533 C 0.80394 0.14428 0.55886 0.0
C3534 C 0.80314 0.15933 0.56614 0.0
C3535 C 0.78598 0.15744 0.57027 0.0
C3536 C 0.76951 0.14063 0.56703 0.0
C3537 C 0.77018 0.1257 0.55962 0.0
C3538 C 0.78731 0.12751 0.5555 0.0
H3539 H 0.75624 0.13921 0.5702 0.0
H3540 H 0.92627 0.17094 0.52584 0.0
H3541 H 0.86667 0.73315 0.49415 0.0
H3542 H 0.86121 0.72585 0.52238 0.0
H3543 H 0.8327 0.66659 0.511 0.0
H3544 H 0.83792 0.67387 0.48263 0.0
H3545 H 0.81366 0.6735 0.53206 0.0
H3546 H 0.87653 0.68877 0.52731 0.0
H3547 H 0.90938 0.70745 0.51937 0.0
H3548 H 0.91655 0.75277 0.54987 0.0
H3549 H 0.88364 0.73448 0.55782 0.0
H3550 H 0.81688 0.642 0.60972 0.0
H3551 H 0.81874 0.6498 0.58167 0.0
H3552 H 0.8431 0.70851 0.59415 0.0
H3553 H 0.84156 0.70063 0.62249 0.0
H3554 H 0.86417 0.70197 0.57264 0.0
H3555 H 0.79893 0.68341 0.57719 0.0
H3556 H 0.76669 0.66153 0.58537 0.0
H3557 H 0.7652 0.61847 0.5551 0.0
H3558 H 0.7975 0.64003 0.54688 0.0
C3559 C 0.85941 0.71857 0.49768 0.0
C3560 C 0.85277 0.70407 0.4862 0.0
C3561 C 0.85631 0.71441 0.51382 0.0
C3562 C 0.84673 0.69567 0.51884 0.0
C3563 C 0.8401 0.68115 0.5074 0.0
C3564 C 0.84307 0.68531 0.49121 0.0
C3565 C 0.84316 0.69131 0.53601 0.0
C3566 C 0.82475 0.67959 0.5409 0.0
C3567 C 0.85761 0.69934 0.54758 0.0
C3568 C 0.87753 0.71031 0.54304 0.0
C3569 C 0.88506 0.70278 0.53224 0.0
C3570 C 0.90371 0.71329 0.52775 0.0
C3571 C 0.91503 0.73131 0.53407 0.0
C3572 C 0.90775 0.73882 0.54496 0.0
C3573 C 0.8891 0.72837 0.54948 0.0
C3574 C 0.82183 0.65648 0.60651 0.0
C3575 C 0.8288 0.6707 0.61823 0.0
C3576 C 0.82304 0.66096 0.59045 0.0
C3577 C 0.83105 0.67975 0.58577 0.0
C3578 C 0.83686 0.69392 0.59752 0.0
C3579 C 0.83564 0.6894 0.61369 0.0
C3580 C 0.83463 0.68449 0.56866 0.0
C3581 C 0.85309 0.69612 0.56378 0.0
C3582 C 0.82032 0.67601 0.55704 0.0
C3583 C 0.80064 0.66332 0.56146 0.0
C3584 C 0.79172 0.66927 0.57229 0.0
C3585 C 0.77345 0.65692 0.57694 0.0
C3586 C 0.76391 0.63862 0.57077 0.0
C3587 C 0.77259 0.63266 0.55986 0.0
C3588 C 0.79087 0.64495 0.55517 0.0
H3589 H 0.74978 0.62906 0.57443 0.0
H3590 H 0.92945 0.73944 0.53056 0.0
loop_
_geom_bond_atom_site_label_1
_geom_bond_atom_site_label_2
_geom_bond_distance
_geom_bond_site_symmetry_2
_ccdc_geom_bond_type
C0 C1 1.386 . S
C0 C2 1.397 . S
C0 H24 0.931 . S
C1 C0 1.386 . S
C1 C5 1.397 . S
C2 C0 1.397 . S
C2 C3 1.384 . S
C2 H25 0.930 . S
C3 C2 1.384 . S
C3 C4 1.377 . S
C3 C6 1.481 . S
C4 C3 1.377 . S
C4 C5 1.389 . S
C4 H26 0.929 . S
C5 C1 1.397 . S
C5 C4 1.389 . S
C5 H27 0.931 . S
C6 C3 1.481 . S
C6 C7 1.387 . S
C6 C11 1.390 . S
C7 C6 1.387 . S
C7 C8 1.401 . S
C7 H28 0.930 . S
C8 C7 1.401 . S
C8 C9 1.376 . S
C8 C17 1.511 . S
C9 C8 1.376 . S
C9 C10 1.392 . S
C9 H30 0.931 . S
C10 C9 1.392 . S
C10 C11 1.361 . S
C10 C12 1.500 . S
C11 C6 1.390 . S
C11 C10 1.361 . S
C11 H29 0.931 . S
C12 C10 1.500 . S
C12 C13 1.371 . S
C12 C14 1.365 . S
C13 C12 1.371 . S
C13 C23 1.386 . S
C13 H31 0.931 . S
C14 C12 1.365 . S
C14 C15 1.409 . S
C14 H32 0.929 . S
C15 C14 1.409 . S
C15 C16 1.380 . S
C15 H33 0.930 . S
C16 C15 1.380 . S
C16 C23 1.357 . S
C17 C8 1.511 . S
C17 C18 1.341 . S
C17 C19 1.371 . S
C18 C17 1.341 . S
C18 C22 1.394 . S
C18 H34 0.930 . S
C19 C17 1.371 . S
C19 C20 1.392 . S
C19 H35 0.931 . S
C20 C19 1.392 . S
C20 C21 1.331 . S
C20 H38 0.932 . S
C21 C20 1.331 . S
C21 C22 1.336 . S
C22 C18 1.394 . S
C22 C21 1.336 . S
C22 H37 0.929 . S
C23 C13 1.386 . S
C23 C16 1.357 . S
C23 H36 0.928 . S
H24 C0 0.931 . S
H25 C2 0.930 . S
H26 C4 0.929 . S
H27 C5 0.931 . S
H28 C7 0.930 . S
H29 C11 0.931 . S
H30 C9 0.931 . S
H31 C13 0.931 . S
H32 C14 0.929 . S
H33 C15 0.930 . S
H34 C18 0.930 . S
H35 C19 0.931 . S
H36 C23 0.928 . S
H37 C22 0.929 . S
H38 C20 0.932 . S
C39 C40 1.386 . S
C39 C41 1.397 . S
C39 H63 0.931 . S
C40 C39 1.386 . S
C40 C44 1.397 . S
C41 C39 1.397 . S
C41 C42 1.384 . S
C41 H64 0.930 . S
C42 C41 1.384 . S
C42 C43 1.377 . S
C42 C45 1.481 . S
C43 C42 1.377 . S
C43 C44 1.389 . S
C43 H65 0.929 . S
C44 C40 1.397 . S
C44 C43 1.389 . S
C44 H66 0.931 . S
C45 C42 1.481 . S
C45 C46 1.387 . S
C45 C50 1.390 . S
C46 C45 1.387 . S
C46 C47 1.401 . S
C46 H67 0.930 . S
C47 C46 1.401 . S
C47 C48 1.376 . S
C47 C56 1.511 . S
C48 C47 1.376 . S
C48 C49 1.392 . S
C48 H69 0.931 . S
C49 C48 1.392 . S
C49 C50 1.361 . S
C49 C51 1.500 . S
C50 C45 1.390 . S
C50 C49 1.361 . S
C50 H68 0.931 . S
C51 C49 1.500 . S
C51 C52 1.371 . S
C51 C53 1.365 . S
C52 C51 1.371 . S
C52 C62 1.386 . S
C52 H70 0.931 . S
C53 C51 1.365 . S
C53 C54 1.409 . S
C53 H71 0.929 . S
C54 C53 1.409 . S
C54 C55 1.380 . S
C54 H72 0.930 . S
C55 C54 1.380 . S
C55 C62 1.357 . S
C56 C47 1.511 . S
C56 C57 1.341 . S
C56 C58 1.371 . S
C57 C56 1.341 . S
C57 C61 1.394 . S
C57 H73 0.930 . S
C58 C56 1.371 . S
C58 C59 1.392 . S
C58 H74 0.931 . S
C59 C58 1.392 . S
C59 C60 1.331 . S
C59 H77 0.932 . S
C60 C59 1.331 . S
C60 C61 1.336 . S
C61 C57 1.394 . S
C61 C60 1.336 . S
C61 H76 0.929 . S
C62 C52 1.386 . S
C62 C55 1.357 . S
C62 H75 0.928 . S
H63 C39 0.931 . S
H64 C41 0.930 . S
H65 C43 0.929 . S
H66 C44 0.931 . S
H67 C46 0.930 . S
H68 C50 0.931 . S
H69 C48 0.931 . S
H70 C52 0.931 . S
H71 C53 0.929 . S
H72 C54 0.930 . S
H73 C57 0.930 . S
H74 C58 0.931 . S
H75 C62 0.928 . S
H76 C61 0.929 . S
H77 C59 0.932 . S
C78 C79 1.386 . S
C78 C80 1.397 . S
C78 H102 0.931 . S
C79 C78 1.386 . S
C79 C83 1.397 . S
C80 C78 1.397 . S
C80 C81 1.384 . S
C80 H103 0.930 . S
C81 C80 1.384 . S
C81 C82 1.377 . S
C81 C84 1.481 . S
C82 C81 1.377 . S
C82 C83 1.389 . S
C82 H104 0.929 . S
C83 C79 1.397 . S
C83 C82 1.389 . S
C83 H105 0.931 . S
C84 C81 1.481 . S
C84 C85 1.387 . S
C84 C89 1.390 . S
C85 C84 1.387 . S
C85 C86 1.401 . S
C85 H106 0.930 . S
C86 C85 1.401 . S
C86 C87 1.376 . S
C86 C95 1.511 . S
C87 C86 1.376 . S
C87 C88 1.392 . S
C87 H108 0.931 . S
C88 C87 1.392 . S
C88 C89 1.361 . S
C88 C90 1.500 . S
C89 C84 1.390 . S
C89 C88 1.361 . S
C89 H107 0.931 . S
C90 C88 1.500 . S
C90 C91 1.371 . S
C90 C92 1.365 . S
C91 C90 1.371 . S
C91 C101 1.386 . S
C91 H109 0.931 . S
C92 C90 1.365 . S
C92 C93 1.409 . S
C92 H110 0.929 . S
C93 C92 1.409 . S
C93 C94 1.380 . S
C93 H111 0.930 . S
C94 C93 1.380 . S
C94 C101 1.357 . S
C95 C86 1.511 . S
C95 C96 1.341 . S
C95 C97 1.371 . S
C96 C95 1.341 . S
C96 C100 1.394 . S
C96 H112 0.930 . S
C97 C95 1.371 . S
C97 C98 1.392 . S
C97 H113 0.931 . S
C98 C97 1.392 . S
C98 C99 1.331 . S
C98 H116 0.932 . S
C99 C98 1.331 . S
C99 C100 1.336 . S
C100 C96 1.394 . S
C100 C99 1.336 . S
C100 H115 0.929 . S
C101 C91 1.386 . S
C101 C94 1.357 . S
C101 H114 0.928 . S
H102 C78 0.931 . S
H103 C80 0.930 . S
H104 C82 0.929 . S
H105 C83 0.931 . S
H106 C85 0.930 . S
H107 C89 0.931 . S
H108 C87 0.931 . S
H109 C91 0.931 . S
H110 C92 0.929 . S
H111 C93 0.930 . S
H112 C96 0.930 . S
H113 C97 0.931 . S
H114 C101 0.928 . S
H115 C100 0.929 . S
H116 C98 0.932 . S
C117 C118 1.386 . S
C117 C119 1.397 . S
C117 H141 0.931 . S
C118 C117 1.386 . S
C118 C122 1.397 . S
C119 C117 1.397 . S
C119 C120 1.384 . S
C119 H142 0.930 . S
C120 C119 1.384 . S
C120 C121 1.377 . S
C120 C123 1.481 . S
C121 C120 1.377 . S
C121 C122 1.389 . S
C121 H143 0.929 . S
C122 C118 1.397 . S
C122 C121 1.389 . S
C122 H144 0.931 . S
C123 C120 1.481 . S
C123 C124 1.387 . S
C123 C128 1.390 . S
C124 C123 1.387 . S
C124 C125 1.401 . S
C124 H145 0.930 . S
C125 C124 1.401 . S
C125 C126 1.376 . S
C125 C134 1.511 . S
C126 C125 1.376 . S
C126 C127 1.392 . S
C126 H147 0.931 . S
C127 C126 1.392 . S
C127 C128 1.361 . S
C127 C129 1.500 . S
C128 C123 1.390 . S
C128 C127 1.361 . S
C128 H146 0.931 . S
C129 C127 1.500 . S
C129 C130 1.371 . S
C129 C131 1.365 . S
C130 C129 1.371 . S
C130 C140 1.386 . S
C130 H148 0.931 . S
C131 C129 1.365 . S
C131 C132 1.409 . S
C131 H149 0.929 . S
C132 C131 1.409 . S
C132 C133 1.380 . S
C132 H150 0.930 . S
C133 C132 1.380 . S
C133 C140 1.357 . S
C134 C125 1.511 . S
C134 C135 1.341 . S
C134 C136 1.371 . S
C135 C134 1.341 . S
C135 C139 1.394 . S
C135 H151 0.930 . S
C136 C134 1.371 . S
C136 C137 1.392 . S
C136 H152 0.931 . S
C137 C136 1.392 . S
C137 C138 1.331 . S
C137 H155 0.932 . S
C138 C137 1.331 . S
C138 C139 1.336 . S
C139 C135 1.394 . S
C139 C138 1.336 . S
C139 H154 0.929 . S
C140 C130 1.386 . S
C140 C133 1.357 . S
C140 H153 0.928 . S
H141 C117 0.931 . S
H142 C119 0.930 . S
H143 C121 0.929 . S
H144 C122 0.931 . S
H145 C124 0.930 . S
H146 C128 0.931 . S
H147 C126 0.931 . S
H148 C130 0.931 . S
H149 C131 0.929 . S
H150 C132 0.930 . S
H151 C135 0.930 . S
H152 C136 0.931 . S
H153 C140 0.928 . S
H154 C139 0.929 . S
H155 C137 0.932 . S
C156 C157 1.386 . S
C156 C158 1.397 . S
C156 H180 0.931 . S
C157 C156 1.386 . S
C157 C161 1.397 . S
C158 C156 1.397 . S
C158 C159 1.384 . S
C158 H181 0.930 . S
C159 C158 1.384 . S
C159 C160 1.377 . S
C159 C162 1.481 . S
C160 C159 1.377 . S
C160 C161 1.389 . S
C160 H182 0.929 . S
C161 C157 1.397 . S
C161 C160 1.389 . S
C161 H183 0.931 . S
C162 C159 1.481 . S
C162 C163 1.387 . S
C162 C167 1.390 . S
C163 C162 1.387 . S
C163 C164 1.401 . S
C163 H184 0.930 . S
C164 C163 1.401 . S
C164 C165 1.376 . S
C164 C173 1.511 . S
C165 C164 1.376 . S
C165 C166 1.392 . S
C165 H186 0.931 . S
C166 C165 1.392 . S
C166 C167 1.361 . S
C166 C168 1.500 . S
C167 C162 1.390 . S
C167 C166 1.361 . S
C167 H185 0.931 . S
C168 C166 1.500 . S
C168 C169 1.371 . S
C168 C170 1.365 . S
C169 C168 1.371 . S
C169 C179 1.386 . S
C169 H187 0.931 . S
C170 C168 1.365 . S
C170 C171 1.409 . S
C170 H188 0.929 . S
C171 C170 1.409 . S
C171 C172 1.380 . S
C171 H189 0.930 . S
C172 C171 1.380 . S
C172 C179 1.357 . S
C173 C164 1.511 . S
C173 C174 1.341 . S
C173 C175 1.371 . S
C174 C173 1.341 . S
C174 C178 1.394 . S
C174 H190 0.930 . S
C175 C173 1.371 . S
C175 C176 1.392 . S
C175 H191 0.931 . S
C176 C175 1.392 . S
C176 C177 1.331 . S
C176 H194 0.932 . S
C177 C176 1.331 . S
C177 C178 1.336 . S
C178 C174 1.394 . S
C178 C177 1.336 . S
C178 H193 0.929 . S
C179 C169 1.386 . S
C179 C172 1.357 . S
C179 H192 0.928 . S
H180 C156 0.931 . S
H181 C158 0.930 . S
H182 C160 0.929 . S
H183 C161 0.931 . S
H184 C163 0.930 . S
H185 C167 0.931 . S
H186 C165 0.931 . S
H187 C169 0.931 . S
H188 C170 0.929 . S
H189 C171 0.930 . S
H190 C174 0.930 . S
H191 C175 0.931 . S
H192 C179 0.928 . S
H193 C178 0.929 . S
H194 C176 0.932 . S
C195 C196 1.386 . S
C195 C197 1.397 . S
C195 H219 0.931 . S
C196 C195 1.386 . S
C196 C200 1.397 . S
C197 C195 1.397 . S
C197 C198 1.384 . S
C197 H220 0.930 . S
C198 C197 1.384 . S
C198 C199 1.377 . S
C198 C201 1.481 . S
C199 C198 1.377 . S
C199 C200 1.389 . S
C199 H221 0.929 . S
C200 C196 1.397 . S
C200 C199 1.389 . S
C200 H222 0.931 . S
C201 C198 1.481 . S
C201 C202 1.387 . S
C201 C206 1.390 . S
C202 C201 1.387 . S
C202 C203 1.401 . S
C202 H223 0.930 . S
C203 C202 1.401 . S
C203 C204 1.376 . S
C203 C212 1.511 . S
C204 C203 1.376 . S
C204 C205 1.392 . S
C204 H225 0.931 . S
C205 C204 1.392 . S
C205 C206 1.361 . S
C205 C207 1.500 . S
C206 C201 1.390 . S
C206 C205 1.361 . S
C206 H224 0.931 . S
C207 C205 1.500 . S
C207 C208 1.371 . S
C207 C209 1.365 . S
C208 C207 1.371 . S
C208 C218 1.386 . S
C208 H226 0.931 . S
C209 C207 1.365 . S
C209 C210 1.409 . S
C209 H227 0.929 . S
C210 C209 1.409 . S
C210 C211 1.380 . S
C210 H228 0.930 . S
C211 C210 1.380 . S
C211 C218 1.357 . S
C212 C203 1.511 . S
C212 C213 1.341 . S
C212 C214 1.371 . S
C213 C212 1.341 . S
C213 C217 1.394 . S
C213 H229 0.930 . S
C214 C212 1.371 . S
C214 C215 1.392 . S
C214 H230 0.931 . S
C215 C214 1.392 . S
C215 C216 1.331 . S
C215 H233 0.932 . S
C216 C215 1.331 . S
C216 C217 1.336 . S
C217 C213 1.394 . S
C217 C216 1.336 . S
C217 H232 0.929 . S
C218 C208 1.386 . S
C218 C211 1.357 . S
C218 H231 0.928 . S
H219 C195 0.931 . S
H220 C197 0.930 . S
H221 C199 0.929 . S
H222 C200 0.931 . S
H223 C202 0.930 . S
H224 C206 0.931 . S
H225 C204 0.931 . S
H226 C208 0.931 . S
H227 C209 0.929 . S
H228 C210 0.930 . S
H229 C213 0.930 . S
H230 C214 0.931 . S
H231 C218 0.928 . S
H232 C217 0.929 . S
H233 C215 0.932 . S
C234 C235 1.386 . S
C234 C236 1.397 . S
C234 H258 0.931 . S
C235 C234 1.386 . S
C235 C239 1.397 . S
C236 C234 1.397 . S
C236 C237 1.384 . S
C236 H259 0.930 . S
C237 C236 1.384 . S
C237 C238 1.377 . S
C237 C240 1.481 . S
C238 C237 1.377 . S
C238 C239 1.389 . S
C238 H260 0.929 . S
C239 C235 1.397 . S
C239 C238 1.389 . S
C239 H261 0.931 . S
C240 C237 1.481 . S
C240 C241 1.387 . S
C240 C245 1.390 . S
C241 C240 1.387 . S
C241 C242 1.401 . S
C241 H262 0.930 . S
C242 C241 1.401 . S
C242 C243 1.376 . S
C242 C251 1.511 . S
C243 C242 1.376 . S
C243 C244 1.392 . S
C243 H264 0.931 . S
C244 C243 1.392 . S
C244 C245 1.361 . S
C244 C246 1.500 . S
C245 C240 1.390 . S
C245 C244 1.361 . S
C245 H263 0.931 . S
C246 C244 1.500 . S
C246 C247 1.371 . S
C246 C248 1.365 . S
C247 C246 1.371 . S
C247 C257 1.386 . S
C247 H265 0.931 . S
C248 C246 1.365 . S
C248 C249 1.409 . S
C248 H266 0.929 . S
C249 C248 1.409 . S
C249 C250 1.380 . S
C249 H267 0.930 . S
C250 C249 1.380 . S
C250 C257 1.357 . S
C251 C242 1.511 . S
C251 C252 1.341 . S
C251 C253 1.371 . S
C252 C251 1.341 . S
C252 C256 1.394 . S
C252 H268 0.930 . S
C253 C251 1.371 . S
C253 C254 1.392 . S
C253 H269 0.931 . S
C254 C253 1.392 . S
C254 C255 1.331 . S
C254 H272 0.932 . S
C255 C254 1.331 . S
C255 C256 1.336 . S
C256 C252 1.394 . S
C256 C255 1.336 . S
C256 H271 0.929 . S
C257 C247 1.386 . S
C257 C250 1.357 . S
C257 H270 0.928 . S
H258 C234 0.931 . S
H259 C236 0.930 . S
H260 C238 0.929 . S
H261 C239 0.931 . S
H262 C241 0.930 . S
H263 C245 0.931 . S
H264 C243 0.931 . S
H265 C247 0.931 . S
H266 C248 0.929 . S
H267 C249 0.930 . S
H268 C252 0.930 . S
H269 C253 0.931 . S
H270 C257 0.928 . S
H271 C256 0.929 . S
H272 C254 0.932 . S
C273 C274 1.386 . S
C273 C275 1.397 . S
C273 H297 0.931 . S
C274 C273 1.386 . S
C274 C278 1.397 . S
C275 C273 1.397 . S
C275 C276 1.384 . S
C275 H298 0.930 . S
C276 C275 1.384 . S
C276 C277 1.377 . S
C276 C279 1.481 . S
C277 C276 1.377 . S
C277 C278 1.389 . S
C277 H299 0.929 . S
C278 C274 1.397 . S
C278 C277 1.389 . S
C278 H300 0.931 . S
C279 C276 1.481 . S
C279 C280 1.387 . S
C279 C284 1.390 . S
C280 C279 1.387 . S
C280 C281 1.401 . S
C280 H301 0.930 . S
C281 C280 1.401 . S
C281 C282 1.376 . S
C281 C290 1.511 . S
C282 C281 1.376 . S
C282 C283 1.392 . S
C282 H303 0.931 . S
C283 C282 1.392 . S
C283 C284 1.361 . S
C283 C285 1.500 . S
C284 C279 1.390 . S
C284 C283 1.361 . S
C284 H302 0.931 . S
C285 C283 1.500 . S
C285 C286 1.371 . S
C285 C287 1.365 . S
C286 C285 1.371 . S
C286 C296 1.386 . S
C286 H304 0.931 . S
C287 C285 1.365 . S
C287 C288 1.409 . S
C287 H305 0.929 . S
C288 C287 1.409 . S
C288 C289 1.380 . S
C288 H306 0.930 . S
C289 C288 1.380 . S
C289 C296 1.357 . S
C290 C281 1.511 . S
C290 C291 1.341 . S
C290 C292 1.371 . S
C291 C290 1.341 . S
C291 C295 1.394 . S
C291 H307 0.930 . S
C292 C290 1.371 . S
C292 C293 1.392 . S
C292 H308 0.931 . S
C293 C292 1.392 . S
C293 C294 1.331 . S
C293 H311 0.932 . S
C294 C293 1.331 . S
C294 C295 1.336 . S
C295 C291 1.394 . S
C295 C294 1.336 . S
C295 H310 0.929 . S
C296 C286 1.386 . S
C296 C289 1.357 . S
C296 H309 0.928 . S
H297 C273 0.931 . S
H298 C275 0.930 . S
H299 C277 0.929 . S
H300 C278 0.931 . S
H301 C280 0.930 . S
H302 C284 0.931 . S
H303 C282 0.931 . S
H304 C286 0.931 . S
H305 C287 0.929 . S
H306 C288 0.930 . S
H307 C291 0.930 . S
H308 C292 0.931 . S
H309 C296 0.928 . S
H310 C295 0.929 . S
H311 C293 0.932 . S
C312 C313 1.386 . S
C312 C314 1.397 . S
C312 H336 0.931 . S
C313 C312 1.386 . S
C313 C317 1.397 . S
C314 C312 1.397 . S
C314 C315 1.384 . S
C314 H337 0.930 . S
C315 C314 1.384 . S
C315 C316 1.377 . S
C315 C318 1.481 . S
C316 C315 1.377 . S
C316 C317 1.389 . S
C316 H338 0.929 . S
C317 C313 1.397 . S
C317 C316 1.389 . S
C317 H339 0.931 . S
C318 C315 1.481 . S
C318 C319 1.387 . S
C318 C323 1.390 . S
C319 C318 1.387 . S
C319 C320 1.401 . S
C319 H340 0.930 . S
C320 C319 1.401 . S
C320 C321 1.376 . S
C320 C329 1.511 . S
C321 C320 1.376 . S
C321 C322 1.392 . S
C321 H342 0.931 . S
C322 C321 1.392 . S
C322 C323 1.361 . S
C322 C324 1.500 . S
C323 C318 1.390 . S
C323 C322 1.361 . S
C323 H341 0.931 . S
C324 C322 1.500 . S
C324 C325 1.371 . S
C324 C326 1.365 . S
C325 C324 1.371 . S
C325 C335 1.386 . S
C325 H343 0.931 . S
C326 C324 1.365 . S
C326 C327 1.409 . S
C326 H344 0.929 . S
C327 C326 1.409 . S
C327 C328 1.380 . S
C327 H345 0.930 . S
C328 C327 1.380 . S
C328 C335 1.357 . S
C329 C320 1.511 . S
C329 C330 1.341 . S
C329 C331 1.371 . S
C330 C329 1.341 . S
C330 C334 1.394 . S
C330 H346 0.930 . S
C331 C329 1.371 . S
C331 C332 1.392 . S
C331 H347 0.931 . S
C332 C331 1.392 . S
C332 C333 1.331 . S
C332 H350 0.932 . S
C333 C332 1.331 . S
C333 C334 1.336 . S
C334 C330 1.394 . S
C334 C333 1.336 . S
C334 H349 0.929 . S
C335 C325 1.386 . S
C335 C328 1.357 . S
C335 H348 0.928 . S
H336 C312 0.931 . S
H337 C314 0.930 . S
H338 C316 0.929 . S
H339 C317 0.931 . S
H340 C319 0.930 . S
H341 C323 0.931 . S
H342 C321 0.931 . S
H343 C325 0.931 . S
H344 C326 0.929 . S
H345 C327 0.930 . S
H346 C330 0.930 . S
H347 C331 0.931 . S
H348 C335 0.928 . S
H349 C334 0.929 . S
H350 C332 0.932 . S
C351 C352 1.386 . S
C351 C353 1.397 . S
C351 H375 0.931 . S
C352 C351 1.386 . S
C352 C356 1.397 . S
C353 C351 1.397 . S
C353 C354 1.384 . S
C353 H376 0.930 . S
C354 C353 1.384 . S
C354 C355 1.377 . S
C354 C357 1.481 . S
C355 C354 1.377 . S
C355 C356 1.389 . S
C355 H377 0.929 . S
C356 C352 1.397 . S
C356 C355 1.389 . S
C356 H378 0.931 . S
C357 C354 1.481 . S
C357 C358 1.387 . S
C357 C362 1.390 . S
C358 C357 1.387 . S
C358 C359 1.401 . S
C358 H379 0.930 . S
C359 C358 1.401 . S
C359 C360 1.376 . S
C359 C368 1.511 . S
C360 C359 1.376 . S
C360 C361 1.392 . S
C360 H381 0.931 . S
C361 C360 1.392 . S
C361 C362 1.361 . S
C361 C363 1.500 . S
C362 C357 1.390 . S
C362 C361 1.361 . S
C362 H380 0.931 . S
C363 C361 1.500 . S
C363 C364 1.371 . S
C363 C365 1.365 . S
C364 C363 1.371 . S
C364 C374 1.386 . S
C364 H382 0.931 . S
C365 C363 1.365 . S
C365 C366 1.409 . S
C365 H383 0.929 . S
C366 C365 1.409 . S
C366 C367 1.380 . S
C366 H384 0.930 . S
C367 C366 1.380 . S
C367 C374 1.357 . S
C368 C359 1.511 . S
C368 C369 1.341 . S
C368 C370 1.371 . S
C369 C368 1.341 . S
C369 C373 1.394 . S
C369 H385 0.930 . S
C370 C368 1.371 . S
C370 C371 1.392 . S
C370 H386 0.931 . S
C371 C370 1.392 . S
C371 C372 1.331 . S
C371 H389 0.932 . S
C372 C371 1.331 . S
C372 C373 1.336 . S
C373 C369 1.394 . S
C373 C372 1.336 . S
C373 H388 0.929 . S
C374 C364 1.386 . S
C374 C367 1.357 . S
C374 H387 0.928 . S
H375 C351 0.931 . S
H376 C353 0.930 . S
H377 C355 0.929 . S
H378 C356 0.931 . S
H379 C358 0.930 . S
H380 C362 0.931 . S
H381 C360 0.931 . S
H382 C364 0.931 . S
H383 C365 0.929 . S
H384 C366 0.930 . S
H385 C369 0.930 . S
H386 C370 0.931 . S
H387 C374 0.928 . S
H388 C373 0.929 . S
H389 C371 0.932 . S
C390 C391 1.386 . S
C390 C392 1.397 . S
C390 H414 0.931 . S
C391 C390 1.386 . S
C391 C395 1.397 . S
C392 C390 1.397 . S
C392 C393 1.384 . S
C392 H415 0.930 . S
C393 C392 1.384 . S
C393 C394 1.377 . S
C393 C396 1.481 . S
C394 C393 1.377 . S
C394 C395 1.389 . S
C394 H416 0.929 . S
C395 C391 1.397 . S
C395 C394 1.389 . S
C395 H417 0.931 . S
C396 C393 1.481 . S
C396 C397 1.387 . S
C396 C401 1.390 . S
C397 C396 1.387 . S
C397 C398 1.401 . S
C397 H418 0.930 . S
C398 C397 1.401 . S
C398 C399 1.376 . S
C398 C407 1.511 . S
C399 C398 1.376 . S
C399 C400 1.392 . S
C399 H420 0.931 . S
C400 C399 1.392 . S
C400 C401 1.361 . S
C400 C402 1.500 . S
C401 C396 1.390 . S
C401 C400 1.361 . S
C401 H419 0.931 . S
C402 C400 1.500 . S
C402 C403 1.371 . S
C402 C404 1.365 . S
C403 C402 1.371 . S
C403 C413 1.386 . S
C403 H421 0.931 . S
C404 C402 1.365 . S
C404 C405 1.409 . S
C404 H422 0.929 . S
C405 C404 1.409 . S
C405 C406 1.380 . S
C405 H423 0.930 . S
C406 C405 1.380 . S
C406 C413 1.357 . S
C407 C398 1.511 . S
C407 C408 1.341 . S
C407 C409 1.371 . S
C408 C407 1.341 . S
C408 C412 1.394 . S
C408 H424 0.930 . S
C409 C407 1.371 . S
C409 C410 1.392 . S
C409 H425 0.931 . S
C410 C409 1.392 . S
C410 C411 1.331 . S
C410 H428 0.932 . S
C411 C410 1.331 . S
C411 C412 1.336 . S
C412 C408 1.394 . S
C412 C411 1.336 . S
C412 H427 0.929 . S
C413 C403 1.386 . S
C413 C406 1.357 . S
C413 H426 0.928 . S
H414 C390 0.931 . S
H415 C392 0.930 . S
H416 C394 0.929 . S
H417 C395 0.931 . S
H418 C397 0.930 . S
H419 C401 0.931 . S
H420 C399 0.931 . S
H421 C403 0.931 . S
H422 C404 0.929 . S
H423 C405 0.930 . S
H424 C408 0.930 . S
H425 C409 0.931 . S
H426 C413 0.928 . S
H427 C412 0.929 . S
H428 C410 0.932 . S
C429 C430 1.386 . S
C429 C431 1.397 . S
C429 H453 0.931 . S
C430 C429 1.386 . S
C430 C434 1.397 . S
C431 C429 1.397 . S
C431 C432 1.384 . S
C431 H454 0.930 . S
C432 C431 1.384 . S
C432 C433 1.377 . S
C432 C435 1.481 . S
C433 C432 1.377 . S
C433 C434 1.389 . S
C433 H455 0.929 . S
C434 C430 1.397 . S
C434 C433 1.389 . S
C434 H456 0.931 . S
C435 C432 1.481 . S
C435 C436 1.387 . S
C435 C440 1.390 . S
C436 C435 1.387 . S
C436 C437 1.401 . S
C436 H457 0.930 . S
C437 C436 1.401 . S
C437 C438 1.376 . S
C437 C446 1.511 . S
C438 C437 1.376 . S
C438 C439 1.392 . S
C438 H459 0.931 . S
C439 C438 1.392 . S
C439 C440 1.361 . S
C439 C441 1.500 . S
C440 C435 1.390 . S
C440 C439 1.361 . S
C440 H458 0.931 . S
C441 C439 1.500 . S
C441 C442 1.371 . S
C441 C443 1.365 . S
C442 C441 1.371 . S
C442 C452 1.386 . S
C442 H460 0.931 . S
C443 C441 1.365 . S
C443 C444 1.409 . S
C443 H461 0.929 . S
C444 C443 1.409 . S
C444 C445 1.380 . S
C444 H462 0.930 . S
C445 C444 1.380 . S
C445 C452 1.357 . S
C446 C437 1.511 . S
C446 C447 1.341 . S
C446 C448 1.371 . S
C447 C446 1.341 . S
C447 C451 1.394 . S
C447 H463 0.930 . S
C448 C446 1.371 . S
C448 C449 1.392 . S
C448 H464 0.931 . S
C449 C448 1.392 . S
C449 C450 1.331 . S
C449 H467 0.932 . S
C450 C449 1.331 . S
C450 C451 1.336 . S
C451 C447 1.394 . S
C451 C450 1.336 . S
C451 H466 0.929 . S
C452 C442 1.386 . S
C452 C445 1.357 . S
C452 H465 0.928 . S
H453 C429 0.931 . S
H454 C431 0.930 . S
H455 C433 0.929 . S
H456 C434 0.931 . S
H457 C436 0.930 . S
H458 C440 0.931 . S
H459 C438 0.931 . S
H460 C442 0.931 . S
H461 C443 0.929 . S
H462 C444 0.930 . S
H463 C447 0.930 . S
H464 C448 0.931 . S
H465 C452 0.928 . S
H466 C451 0.929 . S
H467 C449 0.932 . S
C468 C469 1.386 . S
C468 C470 1.397 . S
C468 H492 0.931 . S
C469 C468 1.386 . S
C469 C473 1.397 . S
C470 C468 1.397 . S
C470 C471 1.384 . S
C470 H493 0.930 . S
C471 C470 1.384 . S
C471 C472 1.377 . S
C471 C474 1.481 . S
C472 C471 1.377 . S
C472 C473 1.389 . S
C472 H494 0.929 . S
C473 C469 1.397 . S
C473 C472 1.389 . S
C473 H495 0.931 . S
C474 C471 1.481 . S
C474 C475 1.387 . S
C474 C479 1.390 . S
C475 C474 1.387 . S
C475 C476 1.401 . S
C475 H496 0.930 . S
C476 C475 1.401 . S
C476 C477 1.376 . S
C476 C485 1.511 . S
C477 C476 1.376 . S
C477 C478 1.392 . S
C477 H498 0.931 . S
C478 C477 1.392 . S
C478 C479 1.361 . S
C478 C480 1.500 . S
C479 C474 1.390 . S
C479 C478 1.361 . S
C479 H497 0.931 . S
C480 C478 1.500 . S
C480 C481 1.371 . S
C480 C482 1.365 . S
C481 C480 1.371 . S
C481 C491 1.386 . S
C481 H499 0.931 . S
C482 C480 1.365 . S
C482 C483 1.409 . S
C482 H500 0.929 . S
C483 C482 1.409 . S
C483 C484 1.380 . S
C483 H501 0.930 . S
C484 C483 1.380 . S
C484 C491 1.357 . S
C485 C476 1.511 . S
C485 C486 1.341 . S
C485 C487 1.371 . S
C486 C485 1.341 . S
C486 C490 1.394 . S
C486 H502 0.930 . S
C487 C485 1.371 . S
C487 C488 1.392 . S
C487 H503 0.931 . S
C488 C487 1.392 . S
C488 C489 1.331 . S
C488 H506 0.932 . S
C489 C488 1.331 . S
C489 C490 1.336 . S
C490 C486 1.394 . S
C490 C489 1.336 . S
C490 H505 0.929 . S
C491 C481 1.386 . S
C491 C484 1.357 . S
C491 H504 0.928 . S
H492 C468 0.931 . S
H493 C470 0.930 . S
H494 C472 0.929 . S
H495 C473 0.931 . S
H496 C475 0.930 . S
H497 C479 0.931 . S
H498 C477 0.931 . S
H499 C481 0.931 . S
H500 C482 0.929 . S
H501 C483 0.930 . S
H502 C486 0.930 . S
H503 C487 0.931 . S
H504 C491 0.928 . S
H505 C490 0.929 . S
H506 C488 0.932 . S
C507 C508 1.386 . S
C507 C509 1.397 . S
C507 H531 0.931 . S
C508 C507 1.386 . S
C508 C512 1.397 . S
C509 C507 1.397 . S
C509 C510 1.384 . S
C509 H532 0.930 . S
C510 C509 1.384 . S
C510 C511 1.377 . S
C510 C513 1.481 . S
C511 C510 1.377 . S
C511 C512 1.389 . S
C511 H533 0.929 . S
C512 C508 1.397 . S
C512 C511 1.389 . S
C512 H534 0.931 . S
C513 C510 1.481 . S
C513 C514 1.387 . S
C513 C518 1.390 . S
C514 C513 1.387 . S
C514 C515 1.401 . S
C514 H535 0.930 . S
C515 C514 1.401 . S
C515 C516 1.376 . S
C515 C524 1.511 . S
C516 C515 1.376 . S
C516 C517 1.392 . S
C516 H537 0.931 . S
C517 C516 1.392 . S
C517 C518 1.361 . S
C517 C519 1.500 . S
C518 C513 1.390 . S
C518 C517 1.361 . S
C518 H536 0.931 . S
C519 C517 1.500 . S
C519 C520 1.371 . S
C519 C521 1.365 . S
C520 C519 1.371 . S
C520 C530 1.386 . S
C520 H538 0.931 . S
C521 C519 1.365 . S
C521 C522 1.409 . S
C521 H539 0.929 . S
C522 C521 1.409 . S
C522 C523 1.380 . S
C522 H540 0.930 . S
C523 C522 1.380 . S
C523 C530 1.357 . S
C524 C515 1.511 . S
C524 C525 1.341 . S
C524 C526 1.371 . S
C525 C524 1.341 . S
C525 C529 1.394 . S
C525 H541 0.930 . S
C526 C524 1.371 . S
C526 C527 1.392 . S
C526 H542 0.931 . S
C527 C526 1.392 . S
C527 C528 1.331 . S
C527 H545 0.932 . S
C528 C527 1.331 . S
C528 C529 1.336 . S
C529 C525 1.394 . S
C529 C528 1.336 . S
C529 H544 0.929 . S
C530 C520 1.386 . S
C530 C523 1.357 . S
C530 H543 0.928 . S
H531 C507 0.931 . S
H532 C509 0.930 . S
H533 C511 0.929 . S
H534 C512 0.931 . S
H535 C514 0.930 . S
H536 C518 0.931 . S
H537 C516 0.931 . S
H538 C520 0.931 . S
H539 C521 0.929 . S
H540 C522 0.930 . S
H541 C525 0.930 . S
H542 C526 0.931 . S
H543 C530 0.928 . S
H544 C529 0.929 . S
H545 C527 0.932 . S
C546 C547 1.386 . S
C546 C548 1.397 . S
C546 H570 0.931 . S
C547 C546 1.386 . S
C547 C551 1.397 . S
C548 C546 1.397 . S
C548 C549 1.384 . S
C548 H571 0.930 . S
C549 C548 1.384 . S
C549 C550 1.377 . S
C549 C552 1.481 . S
C550 C549 1.377 . S
C550 C551 1.389 . S
C550 H572 0.929 . S
C551 C547 1.397 . S
C551 C550 1.389 . S
C551 H573 0.931 . S
C552 C549 1.481 . S
C552 C553 1.387 . S
C552 C557 1.390 . S
C553 C552 1.387 . S
C553 C554 1.401 . S
C553 H574 0.930 . S
C554 C553 1.401 . S
C554 C555 1.376 . S
C554 C563 1.511 . S
C555 C554 1.376 . S
C555 C556 1.392 . S
C555 H576 0.931 . S
C556 C555 1.392 . S
C556 C557 1.361 . S
C556 C558 1.500 . S
C557 C552 1.390 . S
C557 C556 1.361 . S
C557 H575 0.931 . S
C558 C556 1.500 . S
C558 C559 1.371 . S
C558 C560 1.365 . S
C559 C558 1.371 . S
C559 C569 1.386 . S
C559 H577 0.931 . S
C560 C558 1.365 . S
C560 C561 1.409 . S
C560 H578 0.929 . S
C561 C560 1.409 . S
C561 C562 1.380 . S
C561 H579 0.930 . S
C562 C561 1.380 . S
C562 C569 1.357 . S
C563 C554 1.511 . S
C563 C564 1.341 . S
C563 C565 1.371 . S
C564 C563 1.341 . S
C564 C568 1.394 . S
C564 H580 0.930 . S
C565 C563 1.371 . S
C565 C566 1.392 . S
C565 H581 0.931 . S
C566 C565 1.392 . S
C566 C567 1.331 . S
C566 H584 0.932 . S
C567 C566 1.331 . S
C567 C568 1.336 . S
C568 C564 1.394 . S
C568 C567 1.336 . S
C568 H583 0.929 . S
C569 C559 1.386 . S
C569 C562 1.357 . S
C569 H582 0.928 . S
H570 C546 0.931 . S
H571 C548 0.930 . S
H572 C550 0.929 . S
H573 C551 0.931 . S
H574 C553 0.930 . S
H575 C557 0.931 . S
H576 C555 0.931 . S
H577 C559 0.931 . S
H578 C560 0.929 . S
H579 C561 0.930 . S
H580 C564 0.930 . S
H581 C565 0.931 . S
H582 C569 0.928 . S
H583 C568 0.929 . S
H584 C566 0.932 . S
C585 C586 1.386 . S
C585 C587 1.397 . S
C585 H609 0.931 . S
C586 C585 1.386 . S
C586 C590 1.397 . S
C587 C585 1.397 . S
C587 C588 1.384 . S
C587 H610 0.930 . S
C588 C587 1.384 . S
C588 C589 1.377 . S
C588 C591 1.481 . S
C589 C588 1.377 . S
C589 C590 1.389 . S
C589 H611 0.929 . S
C590 C586 1.397 . S
C590 C589 1.389 . S
C590 H612 0.931 . S
C591 C588 1.481 . S
C591 C592 1.387 . S
C591 C596 1.390 . S
C592 C591 1.387 . S
C592 C593 1.401 . S
C592 H613 0.930 . S
C593 C592 1.401 . S
C593 C594 1.376 . S
C593 C602 1.511 . S
C594 C593 1.376 . S
C594 C595 1.392 . S
C594 H615 0.931 . S
C595 C594 1.392 . S
C595 C596 1.361 . S
C595 C597 1.500 . S
C596 C591 1.390 . S
C596 C595 1.361 . S
C596 H614 0.931 . S
C597 C595 1.500 . S
C597 C598 1.371 . S
C597 C599 1.365 . S
C598 C597 1.371 . S
C598 C608 1.386 . S
C598 H616 0.931 . S
C599 C597 1.365 . S
C599 C600 1.409 . S
C599 H617 0.929 . S
C600 C599 1.409 . S
C600 C601 1.380 . S
C600 H618 0.930 . S
C601 C600 1.380 . S
C601 C608 1.357 . S
C602 C593 1.511 . S
C602 C603 1.341 . S
C602 C604 1.371 . S
C603 C602 1.341 . S
C603 C607 1.394 . S
C603 H619 0.930 . S
C604 C602 1.371 . S
C604 C605 1.392 . S
C604 H620 0.931 . S
C605 C604 1.392 . S
C605 C606 1.331 . S
C605 H623 0.932 . S
C606 C605 1.331 . S
C606 C607 1.336 . S
C607 C603 1.394 . S
C607 C606 1.336 . S
C607 H622 0.929 . S
C608 C598 1.386 . S
C608 C601 1.357 . S
C608 H621 0.928 . S
H609 C585 0.931 . S
H610 C587 0.930 . S
H611 C589 0.929 . S
H612 C590 0.931 . S
H613 C592 0.930 . S
H614 C596 0.931 . S
H615 C594 0.931 . S
H616 C598 0.931 . S
H617 C599 0.929 . S
H618 C600 0.930 . S
H619 C603 0.930 . S
H620 C604 0.931 . S
H621 C608 0.928 . S
H622 C607 0.929 . S
H623 C605 0.932 . S
C624 C625 1.386 . S
C624 C626 1.397 . S
C624 H648 0.931 . S
C625 C624 1.386 . S
C625 C629 1.397 . S
C626 C624 1.397 . S
C626 C627 1.384 . S
C626 H649 0.930 . S
C627 C626 1.384 . S
C627 C628 1.377 . S
C627 C630 1.481 . S
C628 C627 1.377 . S
C628 C629 1.389 . S
C628 H650 0.929 . S
C629 C625 1.397 . S
C629 C628 1.389 . S
C629 H651 0.931 . S
C630 C627 1.481 . S
C630 C631 1.387 . S
C630 C635 1.390 . S
C631 C630 1.387 . S
C631 C632 1.401 . S
C631 H652 0.930 . S
C632 C631 1.401 . S
C632 C633 1.376 . S
C632 C641 1.511 . S
C633 C632 1.376 . S
C633 C634 1.392 . S
C633 H654 0.931 . S
C634 C633 1.392 . S
C634 C635 1.361 . S
C634 C636 1.500 . S
C635 C630 1.390 . S
C635 C634 1.361 . S
C635 H653 0.931 . S
C636 C634 1.500 . S
C636 C637 1.371 . S
C636 C638 1.365 . S
C637 C636 1.371 . S
C637 C647 1.386 . S
C637 H655 0.931 . S
C638 C636 1.365 . S
C638 C639 1.409 . S
C638 H656 0.929 . S
C639 C638 1.409 . S
C639 C640 1.380 . S
C639 H657 0.930 . S
C640 C639 1.380 . S
C640 C647 1.357 . S
C641 C632 1.511 . S
C641 C642 1.341 . S
C641 C643 1.371 . S
C642 C641 1.341 . S
C642 C646 1.394 . S
C642 H658 0.930 . S
C643 C641 1.371 . S
C643 C644 1.392 . S
C643 H659 0.931 . S
C644 C643 1.392 . S
C644 C645 1.331 . S
C644 H662 0.932 . S
C645 C644 1.331 . S
C645 C646 1.336 . S
C646 C642 1.394 . S
C646 C645 1.336 . S
C646 H661 0.929 . S
C647 C637 1.386 . S
C647 C640 1.357 . S
C647 H660 0.928 . S
H648 C624 0.931 . S
H649 C626 0.930 . S
H650 C628 0.929 . S
H651 C629 0.931 . S
H652 C631 0.930 . S
H653 C635 0.931 . S
H654 C633 0.931 . S
H655 C637 0.931 . S
H656 C638 0.929 . S
H657 C639 0.930 . S
H658 C642 0.930 . S
H659 C643 0.931 . S
H660 C647 0.928 . S
H661 C646 0.929 . S
H662 C644 0.932 . S
C663 C664 1.386 . S
C663 C665 1.397 . S
C663 H687 0.931 . S
C664 C663 1.386 . S
C664 C668 1.397 . S
C665 C663 1.397 . S
C665 C666 1.384 . S
C665 H688 0.930 . S
C666 C665 1.384 . S
C666 C667 1.377 . S
C666 C669 1.481 . S
C667 C666 1.377 . S
C667 C668 1.389 . S
C667 H689 0.929 . S
C668 C664 1.397 . S
C668 C667 1.389 . S
C668 H690 0.931 . S
C669 C666 1.481 . S
C669 C670 1.387 . S
C669 C674 1.390 . S
C670 C669 1.387 . S
C670 C671 1.401 . S
C670 H691 0.930 . S
C671 C670 1.401 . S
C671 C672 1.376 . S
C671 C680 1.511 . S
C672 C671 1.376 . S
C672 C673 1.392 . S
C672 H693 0.931 . S
C673 C672 1.392 . S
C673 C674 1.361 . S
C673 C675 1.500 . S
C674 C669 1.390 . S
C674 C673 1.361 . S
C674 H692 0.931 . S
C675 C673 1.500 . S
C675 C676 1.371 . S
C675 C677 1.365 . S
C676 C675 1.371 . S
C676 C686 1.386 . S
C676 H694 0.931 . S
C677 C675 1.365 . S
C677 C678 1.409 . S
C677 H695 0.929 . S
C678 C677 1.409 . S
C678 C679 1.380 . S
C678 H696 0.930 . S
C679 C678 1.380 . S
C679 C686 1.357 . S
C680 C671 1.511 . S
C680 C681 1.341 . S
C680 C682 1.371 . S
C681 C680 1.341 . S
C681 C685 1.394 . S
C681 H697 0.930 . S
C682 C680 1.371 . S
C682 C683 1.392 . S
C682 H698 0.931 . S
C683 C682 1.392 . S
C683 C684 1.331 . S
C683 H701 0.932 . S
C684 C683 1.331 . S
C684 C685 1.336 . S
C685 C681 1.394 . S
C685 C684 1.336 . S
C685 H700 0.929 . S
C686 C676 1.386 . S
C686 C679 1.357 . S
C686 H699 0.928 . S
H687 C663 0.931 . S
H688 C665 0.930 . S
H689 C667 0.929 . S
H690 C668 0.931 . S
H691 C670 0.930 . S
H692 C674 0.931 . S
H693 C672 0.931 . S
H694 C676 0.931 . S
H695 C677 0.929 . S
H696 C678 0.930 . S
H697 C681 0.930 . S
H698 C682 0.931 . S
H699 C686 0.928 . S
H700 C685 0.929 . S
H701 C683 0.932 . S
O702 Mn703 2.163 1_565 S
O702 C716 1.244 . S
Mn703 O702 2.163 1_545 S
Mn703 O706 2.160 . S
Mn703 O707 2.221 1_545 S
Mn703 O709 2.163 1_554 S
Mn703 O711 2.160 . S
Mn703 O721 2.221 . S
O704 Mn705 2.087 1_565 S
O704 C716 1.256 . S
Mn705 O704 2.087 1_545 S
Mn705 O712 2.089 . S
Mn705 O721 2.290 . S
Mn705 O722 2.251 . S
O706 Mn703 2.160 . S
O706 C717 1.239 1_554 S
O707 Mn703 2.221 1_565 S
O707 Mn708 2.290 1_554 S
O707 C718 1.278 . S
Mn708 O707 2.290 1_556 S
Mn708 O710 2.089 1_565 S
Mn708 O713 2.251 . S
Mn708 O714 2.087 . S
O709 Mn703 2.163 1_556 S
O709 C719 1.244 . S
O710 Mn708 2.089 1_545 S
O710 C717 1.256 . S
O711 Mn703 2.160 . S
O711 C720 1.239 . S
O712 Mn705 2.089 . S
O712 C720 1.256 . S
O713 Mn708 2.251 . S
O713 C718 1.241 1_556 S
O714 Mn708 2.087 . S
O714 C719 1.256 1_565 S
C715 O721 1.278 . S
C715 O722 1.241 . S
C716 O702 1.244 . S
C716 O704 1.256 . S
C717 O706 1.239 1_556 S
C717 O710 1.256 . S
C718 O707 1.278 . S
C718 O713 1.241 1_554 S
C719 O709 1.244 . S
C719 O714 1.256 1_545 S
C720 O711 1.239 . S
C720 O712 1.256 . S
O721 Mn703 2.221 . S
O721 Mn705 2.290 . S
O721 C715 1.278 . S
O722 Mn705 2.251 . S
O722 C715 1.241 . S
O723 Mn724 2.134 1_455 S
O723 C737 1.244 . S
Mn724 O723 2.134 1_655 S
Mn724 O727 2.188 . S
Mn724 O728 2.219 1_655 S
Mn724 O730 2.162 1_554 S
Mn724 O732 2.162 . S
Mn724 O742 2.226 . S
O725 Mn726 2.087 1_455 S
O725 C737 1.256 . S
Mn726 O725 2.087 1_655 S
Mn726 O733 2.089 1_655 S
Mn726 O742 2.290 . S
Mn726 O743 2.251 . S
O727 Mn724 2.188 . S
O727 C738 1.239 1_554 S
O728 Mn724 2.219 1_455 S
O728 Mn729 2.290 1_554 S
O728 C739 1.278 . S
Mn729 O728 2.290 1_556 S
Mn729 O731 2.089 1_455 S
Mn729 O734 2.251 . S
Mn729 O735 2.087 . S
O730 Mn724 2.162 1_556 S
O730 C740 1.249 1_655 S
O731 Mn729 2.089 1_655 S
O731 C738 1.256 . S
O732 Mn724 2.162 . S
O732 C741 1.239 1_655 S
O733 Mn726 2.089 1_455 S
O733 C741 1.256 . S
O734 Mn729 2.251 . S
O734 C739 1.241 1_556 S
O735 Mn729 2.087 . S
O735 C740 1.254 . S
C736 O742 1.278 . S
C736 O743 1.241 . S
C737 O723 1.244 . S
C737 O725 1.256 . S
C738 O727 1.239 1_556 S
C738 O731 1.256 . S
C739 O728 1.278 . S
C739 O734 1.241 1_554 S
C740 O730 1.249 1_455 S
C740 O735 1.254 . S
C741 O732 1.239 1_455 S
C741 O733 1.256 . S
O742 Mn724 2.226 . S
O742 Mn726 2.290 . S
O742 C736 1.278 . S
O743 Mn726 2.251 . S
O743 C736 1.241 . S
O744 Mn745 2.158 1_556 S
O744 C758 1.267 . S
Mn745 O744 2.158 1_554 S
Mn745 O748 2.162 . S
Mn745 O749 2.225 . S
Mn745 O751 2.208 . S
Mn745 O753 2.114 1_554 S
Mn745 O763 2.216 1_554 S
O746 Mn747 2.087 . S
O746 C758 1.256 . S
Mn747 O746 2.087 . S
Mn747 O754 2.089 . S
Mn747 O763 2.290 . S
Mn747 O764 2.251 1_556 S
O748 Mn745 2.162 . S
O748 C759 1.239 . S
O749 Mn745 2.225 . S
O749 Mn750 2.290 . S
O749 C760 1.278 . S
Mn750 O749 2.290 . S
Mn750 O752 2.089 . S
Mn750 O755 2.251 . S
Mn750 O756 2.087 . S
O751 Mn745 2.208 . S
O751 C761 1.244 . S
O752 Mn750 2.089 . S
O752 C759 1.256 . S
O753 Mn745 2.114 1_556 S
O753 C762 1.239 . S
O754 Mn747 2.089 . S
O754 C762 1.256 . S
O755 Mn750 2.251 . S
O755 C760 1.241 . S
O756 Mn750 2.087 . S
O756 C761 1.256 . S
C757 O763 1.278 1_554 S
C757 O764 1.241 . S
C758 O744 1.267 . S
C758 O746 1.256 . S
C759 O748 1.239 . S
C759 O752 1.256 . S
C760 O749 1.278 . S
C760 O755 1.241 . S
C761 O751 1.244 . S
C761 O756 1.256 . S
C762 O753 1.239 . S
C762 O754 1.256 . S
O763 Mn745 2.216 1_556 S
O763 Mn747 2.290 . S
O763 C757 1.278 1_556 S
O764 Mn747 2.251 1_554 S
O764 C757 1.241 . S
O765 Mn766 2.163 . S
O765 C779 1.244 . S
Mn766 O765 2.163 . S
Mn766 O769 2.160 . S
Mn766 O770 2.221 . S
Mn766 O772 2.163 . S
Mn766 O774 2.160 . S
Mn766 O784 2.221 . S
O767 Mn768 2.087 . S
O767 C779 1.256 . S
Mn768 O767 2.087 . S
Mn768 O775 2.089 . S
Mn768 O784 2.290 . S
Mn768 O785 2.251 . S
O769 Mn766 2.160 . S
O769 C780 1.239 . S
O770 Mn766 2.221 . S
O770 Mn771 2.290 . S
O770 C781 1.278 . S
Mn771 O770 2.290 . S
Mn771 O773 2.089 . S
Mn771 O776 2.251 . S
Mn771 O777 2.087 . S
O772 Mn766 2.163 . S
O772 C782 1.244 . S
O773 Mn771 2.089 . S
O773 C780 1.256 . S
O774 Mn766 2.160 . S
O774 C783 1.239 . S
O775 Mn768 2.089 . S
O775 C783 1.256 . S
O776 Mn771 2.251 . S
O776 C781 1.241 . S
O777 Mn771 2.087 . S
O777 C782 1.256 . S
C778 O784 1.278 . S
C778 O785 1.241 . S
C779 O765 1.244 . S
C779 O767 1.256 . S
C780 O769 1.239 . S
C780 O773 1.256 . S
C781 O770 1.278 . S
C781 O776 1.241 . S
C782 O772 1.244 . S
C782 O777 1.256 . S
C783 O774 1.239 . S
C783 O775 1.256 . S
O784 Mn766 2.221 . S
O784 Mn768 2.290 . S
O784 C778 1.278 . S
O785 Mn768 2.251 . S
O785 C778 1.241 . S
O786 Mn787 2.163 . S
O786 C800 1.244 . S
Mn787 O786 2.163 . S
Mn787 O790 2.160 . S
Mn787 O791 2.221 . S
Mn787 O793 2.163 . S
Mn787 O795 2.160 . S
Mn787 O805 2.221 . S
O788 Mn789 2.087 . S
O788 C800 1.256 . S
Mn789 O788 2.087 . S
Mn789 O796 2.089 . S
Mn789 O805 2.290 . S
Mn789 O806 2.251 . S
O790 Mn787 2.160 . S
O790 C801 1.239 . S
O791 Mn787 2.221 . S
O791 Mn792 2.290 . S
O791 C802 1.278 . S
Mn792 O791 2.290 . S
Mn792 O794 2.089 . S
Mn792 O797 2.251 . S
Mn792 O798 2.087 . S
O793 Mn787 2.163 . S
O793 C803 1.244 . S
O794 Mn792 2.089 . S
O794 C801 1.256 . S
O795 Mn787 2.160 . S
O795 C804 1.239 . S
O796 Mn789 2.089 . S
O796 C804 1.256 . S
O797 Mn792 2.251 . S
O797 C802 1.241 . S
O798 Mn792 2.087 . S
O798 C803 1.256 . S
C799 O805 1.278 . S
C799 O806 1.241 . S
C800 O786 1.244 . S
C800 O788 1.256 . S
C801 O790 1.239 . S
C801 O794 1.256 . S
C802 O791 1.278 . S
C802 O797 1.241 . S
C803 O793 1.244 . S
C803 O798 1.256 . S
C804 O795 1.239 . S
C804 O796 1.256 . S
O805 Mn787 2.221 . S
O805 Mn789 2.290 . S
O805 C799 1.278 . S
O806 Mn789 2.251 . S
O806 C799 1.241 . S
O807 Mn808 2.163 . S
O807 C821 1.244 . S
Mn808 O807 2.163 . S
Mn808 O811 2.160 . S
Mn808 O812 2.221 . S
Mn808 O814 2.163 . S
Mn808 O816 2.160 . S
Mn808 O826 2.221 . S
O809 Mn810 2.087 . S
O809 C821 1.256 . S
Mn810 O809 2.087 . S
Mn810 O817 2.089 . S
Mn810 O826 2.290 . S
Mn810 O827 2.251 . S
O811 Mn808 2.160 . S
O811 C822 1.239 . S
O812 Mn808 2.221 . S
O812 Mn813 2.290 . S
O812 C823 1.278 . S
Mn813 O812 2.290 . S
Mn813 O815 2.089 . S
Mn813 O818 2.251 . S
Mn813 O819 2.087 . S
O814 Mn808 2.163 . S
O814 C824 1.244 . S
O815 Mn813 2.089 . S
O815 C822 1.256 . S
O816 Mn808 2.160 . S
O816 C825 1.239 . S
O817 Mn810 2.089 . S
O817 C825 1.256 . S
O818 Mn813 2.251 . S
O818 C823 1.241 . S
O819 Mn813 2.087 . S
O819 C824 1.256 . S
C820 O826 1.278 . S
C820 O827 1.241 . S
C821 O807 1.244 . S
C821 O809 1.256 . S
C822 O811 1.239 . S
C822 O815 1.256 . S
C823 O812 1.278 . S
C823 O818 1.241 . S
C824 O814 1.244 . S
C824 O819 1.256 . S
C825 O816 1.239 . S
C825 O817 1.256 . S
O826 Mn808 2.221 . S
O826 Mn810 2.290 . S
O826 C820 1.278 . S
O827 Mn810 2.251 . S
O827 C820 1.241 . S
O828 Mn829 2.163 . S
O828 C842 1.244 . S
Mn829 O828 2.163 . S
Mn829 O832 2.160 . S
Mn829 O833 2.221 . S
Mn829 O835 2.163 . S
Mn829 O837 2.160 . S
Mn829 O847 2.221 . S
O830 Mn831 2.087 . S
O830 C842 1.256 . S
Mn831 O830 2.087 . S
Mn831 O838 2.089 . S
Mn831 O847 2.290 . S
Mn831 O848 2.251 . S
O832 Mn829 2.160 . S
O832 C843 1.239 . S
O833 Mn829 2.221 . S
O833 Mn834 2.290 . S
O833 C844 1.278 . S
Mn834 O833 2.290 . S
Mn834 O836 2.089 . S
Mn834 O839 2.251 . S
Mn834 O840 2.087 . S
O835 Mn829 2.163 . S
O835 C845 1.244 . S
O836 Mn834 2.089 . S
O836 C843 1.256 . S
O837 Mn829 2.160 . S
O837 C846 1.239 . S
O838 Mn831 2.089 . S
O838 C846 1.256 . S
O839 Mn834 2.251 . S
O839 C844 1.241 . S
O840 Mn834 2.087 . S
O840 C845 1.256 . S
C841 O847 1.278 . S
C841 O848 1.241 . S
C842 O828 1.244 . S
C842 O830 1.256 . S
C843 O832 1.239 . S
C843 O836 1.256 . S
C844 O833 1.278 . S
C844 O839 1.241 . S
C845 O835 1.244 . S
C845 O840 1.256 . S
C846 O837 1.239 . S
C846 O838 1.256 . S
O847 Mn829 2.221 . S
O847 Mn831 2.290 . S
O847 C841 1.278 . S
O848 Mn831 2.251 . S
O848 C841 1.241 . S
O849 Mn850 2.163 . S
O849 C863 1.244 . S
Mn850 O849 2.163 . S
Mn850 O853 2.160 . S
Mn850 O854 2.221 . S
Mn850 O856 2.163 . S
Mn850 O858 2.160 . S
Mn850 O868 2.221 . S
O851 Mn852 2.087 . S
O851 C863 1.256 . S
Mn852 O851 2.087 . S
Mn852 O859 2.089 . S
Mn852 O868 2.290 . S
Mn852 O869 2.251 . S
O853 Mn850 2.160 . S
O853 C864 1.239 . S
O854 Mn850 2.221 . S
O854 Mn855 2.290 . S
O854 C865 1.278 . S
Mn855 O854 2.290 . S
Mn855 O857 2.089 . S
Mn855 O860 2.251 . S
Mn855 O861 2.087 . S
O856 Mn850 2.163 . S
O856 C866 1.244 . S
O857 Mn855 2.089 . S
O857 C864 1.256 . S
O858 Mn850 2.160 . S
O858 C867 1.239 . S
O859 Mn852 2.089 . S
O859 C867 1.256 . S
O860 Mn855 2.251 . S
O860 C865 1.241 . S
O861 Mn855 2.087 . S
O861 C866 1.256 . S
C862 O868 1.278 . S
C862 O869 1.241 . S
C863 O849 1.244 . S
C863 O851 1.256 . S
C864 O853 1.239 . S
C864 O857 1.256 . S
C865 O854 1.278 . S
C865 O860 1.241 . S
C866 O856 1.244 . S
C866 O861 1.256 . S
C867 O858 1.239 . S
C867 O859 1.256 . S
O868 Mn850 2.221 . S
O868 Mn852 2.290 . S
O868 C862 1.278 . S
O869 Mn852 2.251 . S
O869 C862 1.241 . S
O870 Mn871 2.163 . S
O870 C884 1.244 . S
Mn871 O870 2.163 . S
Mn871 O874 2.160 . S
Mn871 O875 2.221 . S
Mn871 O877 2.163 . S
Mn871 O879 2.160 . S
Mn871 O889 2.221 . S
O872 Mn873 2.087 . S
O872 C884 1.256 . S
Mn873 O872 2.087 . S
Mn873 O880 2.089 . S
Mn873 O889 2.290 . S
Mn873 O890 2.251 . S
O874 Mn871 2.160 . S
O874 C885 1.239 . S
O875 Mn871 2.221 . S
O875 Mn876 2.290 . S
O875 C886 1.278 . S
Mn876 O875 2.290 . S
Mn876 O878 2.089 . S
Mn876 O881 2.251 . S
Mn876 O882 2.087 . S
O877 Mn871 2.163 . S
O877 C887 1.244 . S
O878 Mn876 2.089 . S
O878 C885 1.256 . S
O879 Mn871 2.160 . S
O879 C888 1.239 . S
O880 Mn873 2.089 . S
O880 C888 1.256 . S
O881 Mn876 2.251 . S
O881 C886 1.241 . S
O882 Mn876 2.087 . S
O882 C887 1.256 . S
C883 O889 1.278 . S
C883 O890 1.241 . S
C884 O870 1.244 . S
C884 O872 1.256 . S
C885 O874 1.239 . S
C885 O878 1.256 . S
C886 O875 1.278 . S
C886 O881 1.241 . S
C887 O877 1.244 . S
C887 O882 1.256 . S
C888 O879 1.239 . S
C888 O880 1.256 . S
O889 Mn871 2.221 . S
O889 Mn873 2.290 . S
O889 C883 1.278 . S
O890 Mn873 2.251 . S
O890 C883 1.241 . S
H891 C909 0.951 . S
H892 C911 0.951 . S
H893 C913 0.950 . S
H894 C914 0.950 . S
H895 C916 0.950 . S
H896 C919 0.950 . S
H897 C920 0.950 . S
H898 C922 0.950 . S
H899 C923 0.950 1_554 S
H900 C924 0.951 . S
H901 C926 0.951 . S
H902 C928 0.950 . S
H903 C929 0.950 . S
H904 C931 0.950 . S
H905 C934 0.950 . S
H906 C935 0.950 . S
H907 C937 0.950 . S
H908 C938 0.950 . S
C909 H891 0.951 . S
C909 C910 1.366 . S
C909 C911 1.388 . S
C910 C909 1.366 . S
C910 C914 1.385 . S
C911 H892 0.951 . S
C911 C909 1.388 . S
C911 C912 1.366 . S
C912 C911 1.366 . S
C912 C913 1.414 . S
C912 C915 1.499 . S
C913 H893 0.950 . S
C913 C912 1.414 . S
C913 C914 1.374 . S
C914 H894 0.950 . S
C914 C910 1.385 . S
C914 C913 1.374 . S
C915 C912 1.499 . S
C915 C916 1.373 . S
C915 C917 1.389 . S
C916 H895 0.950 . S
C916 C915 1.373 . S
C916 C932 1.377 . S
C917 C915 1.389 . S
C917 C918 1.524 . S
C917 C931 1.377 . S
C918 C917 1.524 . S
C918 C919 1.397 1_554 S
C918 C923 1.363 1_554 S
C919 H896 0.950 . S
C919 C918 1.397 1_556 S
C919 C920 1.334 . S
C920 H897 0.950 . S
C920 C919 1.334 . S
C920 C921 1.287 . S
C921 C920 1.287 . S
C921 C922 1.524 . S
C921 H940 0.913 . S
C922 H898 0.950 . S
C922 C921 1.524 . S
C922 C923 1.415 . S
C923 H899 0.950 1_556 S
C923 C918 1.363 1_556 S
C923 C922 1.415 . S
C924 H900 0.951 . S
C924 C925 1.366 . S
C924 C926 1.388 . S
C925 C924 1.366 . S
C925 C929 1.385 . S
C926 H901 0.951 . S
C926 C924 1.388 . S
C926 C927 1.366 . S
C927 C926 1.366 . S
C927 C928 1.414 . S
C927 C930 1.499 . S
C928 H902 0.950 . S
C928 C927 1.414 . S
C928 C929 1.374 . S
C929 H903 0.950 . S
C929 C925 1.385 . S
C929 C928 1.374 . S
C930 C927 1.499 . S
C930 C931 1.373 . S
C930 C932 1.389 . S
C931 H904 0.950 . S
C931 C917 1.377 . S
C931 C930 1.373 . S
C932 C916 1.377 . S
C932 C930 1.389 . S
C932 C933 1.524 . S
C933 C932 1.524 . S
C933 C934 1.397 . S
C933 C938 1.363 . S
C934 H905 0.950 . S
C934 C933 1.397 . S
C934 C935 1.334 . S
C935 H906 0.950 . S
C935 C934 1.334 . S
C935 C936 1.287 . S
C936 C935 1.287 . S
C936 C937 1.524 . S
C936 H939 0.999 . S
C937 H907 0.950 . S
C937 C936 1.524 . S
C937 C938 1.415 . S
C938 H908 0.950 . S
C938 C933 1.363 . S
C938 C937 1.415 . S
H939 C936 0.999 . S
H940 C921 0.913 . S
H941 C959 0.951 . S
H942 C961 0.951 . S
H943 C963 0.950 . S
H944 C964 0.950 . S
H945 C966 0.950 . S
H946 C969 0.950 . S
H947 C970 0.950 . S
H948 C972 0.950 . S
H949 C973 0.937 1_554 S
H950 C974 0.951 . S
H951 C976 0.951 . S
H952 C978 0.950 . S
H953 C979 0.950 . S
H954 C981 0.950 . S
H955 C984 0.950 . S
H956 C985 0.950 . S
H957 C987 0.950 . S
H958 C988 0.950 . S
C959 H941 0.951 . S
C959 C960 1.366 . S
C959 C961 1.388 . S
C960 C959 1.366 . S
C960 C964 1.385 . S
C961 H942 0.951 . S
C961 C959 1.388 . S
C961 C962 1.366 . S
C962 C961 1.366 . S
C962 C963 1.414 . S
C962 C965 1.499 . S
C963 H943 0.950 . S
C963 C962 1.414 . S
C963 C964 1.374 . S
C964 H944 0.950 . S
C964 C960 1.385 . S
C964 C963 1.374 . S
C965 C962 1.499 . S
C965 C966 1.373 . S
C965 C967 1.389 . S
C966 H945 0.950 . S
C966 C965 1.373 . S
C966 C982 1.377 . S
C967 C965 1.389 . S
C967 C968 1.524 . S
C967 C981 1.377 . S
C968 C967 1.524 . S
C968 C969 1.397 1_554 S
C968 C973 1.357 1_554 S
C969 H946 0.950 . S
C969 C968 1.397 1_556 S
C969 C970 1.334 . S
C970 H947 0.950 . S
C970 C969 1.334 . S
C970 C971 1.287 . S
C971 C970 1.287 . S
C971 C972 1.524 . S
C971 H990 0.913 . S
C972 H948 0.950 . S
C972 C971 1.524 . S
C972 C973 1.435 . S
C973 H949 0.937 1_556 S
C973 C968 1.357 1_556 S
C973 C972 1.435 . S
C974 H950 0.951 . S
C974 C975 1.366 . S
C974 C976 1.388 . S
C975 C974 1.366 . S
C975 C979 1.385 . S
C976 H951 0.951 . S
C976 C974 1.388 . S
C976 C977 1.366 . S
C977 C976 1.366 . S
C977 C978 1.414 . S
C977 C980 1.499 . S
C978 H952 0.950 . S
C978 C977 1.414 . S
C978 C979 1.374 . S
C979 H953 0.950 . S
C979 C975 1.385 . S
C979 C978 1.374 . S
C980 C977 1.499 . S
C980 C981 1.373 . S
C980 C982 1.389 . S
C981 H954 0.950 . S
C981 C967 1.377 . S
C981 C980 1.373 . S
C982 C966 1.377 . S
C982 C980 1.389 . S
C982 C983 1.524 . S
C983 C982 1.524 . S
C983 C984 1.397 . S
C983 C988 1.363 . S
C984 H955 0.950 . S
C984 C983 1.397 . S
C984 C985 1.334 . S
C985 H956 0.950 . S
C985 C984 1.334 . S
C985 C986 1.287 . S
C986 C985 1.287 . S
C986 C987 1.524 . S
C986 H989 0.999 . S
C987 H957 0.950 . S
C987 C986 1.524 . S
C987 C988 1.415 . S
C988 H958 0.950 . S
C988 C983 1.363 . S
C988 C987 1.415 . S
H989 C986 0.999 . S
H990 C971 0.913 . S
H991 C1009 0.951 . S
H992 C1011 0.951 . S
H993 C1013 0.950 . S
H994 C1014 0.950 . S
H995 C1016 0.950 . S
H996 C1019 0.950 . S
H997 C1020 0.950 . S
H998 C1022 0.950 . S
H999 C1023 0.977 . S
H1000 C1024 0.951 . S
H1001 C1026 0.951 . S
H1002 C1028 0.950 . S
H1003 C1029 0.950 . S
H1004 C1031 0.950 . S
H1005 C1034 0.950 . S
H1006 C1035 0.950 . S
H1007 C1037 0.950 . S
H1008 C1038 0.950 . S
C1009 H991 0.951 . S
C1009 C1010 1.366 . S
C1009 C1011 1.388 . S
C1010 C1009 1.366 . S
C1010 C1014 1.385 . S
C1011 H992 0.951 . S
C1011 C1009 1.388 . S
C1011 C1012 1.366 . S
C1012 C1011 1.366 . S
C1012 C1013 1.414 . S
C1012 C1015 1.499 . S
C1013 H993 0.950 . S
C1013 C1012 1.414 . S
C1013 C1014 1.374 . S
C1014 H994 0.950 . S
C1014 C1010 1.385 . S
C1014 C1013 1.374 . S
C1015 C1012 1.499 . S
C1015 C1016 1.373 . S
C1015 C1017 1.389 . S
C1016 H995 0.950 . S
C1016 C1015 1.373 . S
C1016 C1032 1.377 . S
C1017 C1015 1.389 . S
C1017 C1018 1.524 . S
C1017 C1031 1.377 . S
C1018 C1017 1.524 . S
C1018 C1019 1.397 1_554 S
C1018 C1023 1.371 . S
C1019 H996 0.950 . S
C1019 C1018 1.397 1_556 S
C1019 C1020 1.334 . S
C1020 H997 0.950 . S
C1020 C1019 1.334 . S
C1020 C1021 1.287 . S
C1021 C1020 1.287 . S
C1021 C1022 1.524 . S
C1021 H1040 0.913 . S
C1022 H998 0.950 . S
C1022 C1021 1.524 . S
C1022 C1023 1.382 1_556 S
C1023 H999 0.977 . S
C1023 C1018 1.371 . S
C1023 C1022 1.382 1_554 S
C1024 H1000 0.951 . S
C1024 C1025 1.366 . S
C1024 C1026 1.388 . S
C1025 C1024 1.366 . S
C1025 C1029 1.385 . S
C1026 H1001 0.951 . S
C1026 C1024 1.388 . S
C1026 C1027 1.366 . S
C1027 C1026 1.366 . S
C1027 C1028 1.414 . S
C1027 C1030 1.499 . S
C1028 H1002 0.950 . S
C1028 C1027 1.414 . S
C1028 C1029 1.374 . S
C1029 H1003 0.950 . S
C1029 C1025 1.385 . S
C1029 C1028 1.374 . S
C1030 C1027 1.499 . S
C1030 C1031 1.373 . S
C1030 C1032 1.389 . S
C1031 H1004 0.950 . S
C1031 C1017 1.377 . S
C1031 C1030 1.373 . S
C1032 C1016 1.377 . S
C1032 C1030 1.389 . S
C1032 C1033 1.524 . S
C1033 C1032 1.524 . S
C1033 C1034 1.397 . S
C1033 C1038 1.363 . S
C1034 H1005 0.950 . S
C1034 C1033 1.397 . S
C1034 C1035 1.334 . S
C1035 H1006 0.950 . S
C1035 C1034 1.334 . S
C1035 C1036 1.287 . S
C1036 C1035 1.287 . S
C1036 C1037 1.524 . S
C1036 H1039 0.999 . S
C1037 H1007 0.950 . S
C1037 C1036 1.524 . S
C1037 C1038 1.415 . S
C1038 H1008 0.950 . S
C1038 C1033 1.363 . S
C1038 C1037 1.415 . S
H1039 C1036 0.999 . S
H1040 C1021 0.913 . S
H1041 C1059 0.951 . S
H1042 C1061 0.951 . S
H1043 C1063 0.950 . S
H1044 C1064 0.950 . S
H1045 C1066 0.950 . S
H1046 C1069 0.950 . S
H1047 C1070 0.950 . S
H1048 C1072 0.950 . S
H1049 C1073 0.950 . S
H1050 C1074 0.951 . S
H1051 C1076 0.951 . S
H1052 C1078 0.950 . S
H1053 C1079 0.950 . S
H1054 C1081 0.950 1_554 S
H1055 C1084 0.950 . S
H1056 C1085 0.950 . S
H1057 C1087 0.950 . S
H1058 C1088 0.950 . S
C1059 H1041 0.951 . S
C1059 C1060 1.366 . S
C1059 C1061 1.388 . S
C1060 C1059 1.366 . S
C1060 C1064 1.385 . S
C1061 H1042 0.951 . S
C1061 C1059 1.388 . S
C1061 C1062 1.366 . S
C1062 C1061 1.366 . S
C1062 C1063 1.414 . S
C1062 C1065 1.499 . S
C1063 H1043 0.950 . S
C1063 C1062 1.414 . S
C1063 C1064 1.374 . S
C1064 H1044 0.950 . S
C1064 C1060 1.385 . S
C1064 C1063 1.374 . S
C1065 C1062 1.499 . S
C1065 C1066 1.373 . S
C1065 C1067 1.389 . S
C1066 H1045 0.950 . S
C1066 C1065 1.373 . S
C1066 C1082 1.377 . S
C1067 C1065 1.389 . S
C1067 C1068 1.524 1_556 S
C1067 C1081 1.377 . S
C1068 C1067 1.524 1_554 S
C1068 C1069 1.397 . S
C1068 C1073 1.363 . S
C1069 H1046 0.950 . S
C1069 C1068 1.397 . S
C1069 C1070 1.334 . S
C1070 H1047 0.950 . S
C1070 C1069 1.334 . S
C1070 C1071 1.287 . S
C1071 C1070 1.287 . S
C1071 C1072 1.524 . S
C1071 H1090 0.913 . S
C1072 H1048 0.950 . S
C1072 C1071 1.524 . S
C1072 C1073 1.415 . S
C1073 H1049 0.950 . S
C1073 C1068 1.363 . S
C1073 C1072 1.415 . S
C1074 H1050 0.951 . S
C1074 C1075 1.366 . S
C1074 C1076 1.388 . S
C1075 C1074 1.366 . S
C1075 C1079 1.385 . S
C1076 H1051 0.951 . S
C1076 C1074 1.388 . S
C1076 C1077 1.366 . S
C1077 C1076 1.366 . S
C1077 C1078 1.414 . S
C1077 C1080 1.499 . S
C1078 H1052 0.950 . S
C1078 C1077 1.414 . S
C1078 C1079 1.374 . S
C1079 H1053 0.950 . S
C1079 C1075 1.385 . S
C1079 C1078 1.374 . S
C1080 C1077 1.499 . S
C1080 C1081 1.373 . S
C1080 C1082 1.389 . S
C1081 H1054 0.950 1_556 S
C1081 C1067 1.377 . S
C1081 C1080 1.373 . S
C1082 C1066 1.377 . S
C1082 C1080 1.389 . S
C1082 C1083 1.524 . S
C1083 C1082 1.524 . S
C1083 C1084 1.397 . S
C1083 C1088 1.363 . S
C1084 H1055 0.950 . S
C1084 C1083 1.397 . S
C1084 C1085 1.334 . S
C1085 H1056 0.950 . S
C1085 C1084 1.334 . S
C1085 C1086 1.287 . S
C1086 C1085 1.287 . S
C1086 C1087 1.524 . S
C1086 H1089 0.999 . S
C1087 H1057 0.950 . S
C1087 C1086 1.524 . S
C1087 C1088 1.415 . S
C1088 H1058 0.950 . S
C1088 C1083 1.363 . S
C1088 C1087 1.415 . S
H1089 C1086 0.999 . S
H1090 C1071 0.913 . S
H1091 C1109 0.951 . S
H1092 C1111 0.951 . S
H1093 C1113 0.950 . S
H1094 C1114 0.950 . S
H1095 C1116 0.950 . S
H1096 C1119 0.950 1_556 S
H1097 C1120 0.950 . S
H1098 C1122 0.950 . S
H1099 C1123 0.950 . S
H1100 C1124 0.951 . S
H1101 C1126 0.951 . S
H1102 C1128 0.950 . S
H1103 C1129 0.950 . S
H1104 C1131 0.950 1_554 S
H1105 C1134 0.950 . S
H1106 C1135 0.950 . S
H1107 C1137 0.950 . S
H1108 C1138 0.950 . S
C1109 H1091 0.951 . S
C1109 C1110 1.366 . S
C1109 C1111 1.388 . S
C1110 C1109 1.366 . S
C1110 C1114 1.385 . S
C1111 H1092 0.951 . S
C1111 C1109 1.388 . S
C1111 C1112 1.366 . S
C1112 C1111 1.366 . S
C1112 C1113 1.414 . S
C1112 C1115 1.499 . S
C1113 H1093 0.950 . S
C1113 C1112 1.414 . S
C1113 C1114 1.374 . S
C1114 H1094 0.950 . S
C1114 C1110 1.385 . S
C1114 C1113 1.374 . S
C1115 C1112 1.499 . S
C1115 C1116 1.373 . S
C1115 C1117 1.389 . S
C1116 H1095 0.950 . S
C1116 C1115 1.373 . S
C1116 C1132 1.377 . S
C1117 C1115 1.389 . S
C1117 C1118 1.524 1_556 S
C1117 C1131 1.377 . S
C1118 C1117 1.524 1_554 S
C1118 C1119 1.397 . S
C1118 C1123 1.363 . S
C1119 H1096 0.950 1_554 S
C1119 C1118 1.397 . S
C1119 C1120 1.334 . S
C1120 H1097 0.950 . S
C1120 C1119 1.334 . S
C1120 C1121 1.287 . S
C1121 C1120 1.287 . S
C1121 C1122 1.524 . S
C1121 H1140 0.913 . S
C1122 H1098 0.950 . S
C1122 C1121 1.524 . S
C1122 C1123 1.415 . S
C1123 H1099 0.950 . S
C1123 C1118 1.363 . S
C1123 C1122 1.415 . S
C1124 H1100 0.951 . S
C1124 C1125 1.366 . S
C1124 C1126 1.388 . S
C1125 C1124 1.366 . S
C1125 C1129 1.385 1_556 S
C1126 H1101 0.951 . S
C1126 C1124 1.388 . S
C1126 C1127 1.366 . S
C1127 C1126 1.366 . S
C1127 C1128 1.414 1_556 S
C1127 C1130 1.499 . S
C1128 H1102 0.950 . S
C1128 C1127 1.414 1_554 S
C1128 C1129 1.374 . S
C1129 H1103 0.950 . S
C1129 C1125 1.385 1_554 S
C1129 C1128 1.374 . S
C1130 C1127 1.499 . S
C1130 C1131 1.373 . S
C1130 C1132 1.389 . S
C1131 H1104 0.950 1_556 S
C1131 C1117 1.377 . S
C1131 C1130 1.373 . S
C1132 C1116 1.377 . S
C1132 C1130 1.389 . S
C1132 C1133 1.524 . S
C1133 C1132 1.524 . S
C1133 C1134 1.397 . S
C1133 C1138 1.363 . S
C1134 H1105 0.950 . S
C1134 C1133 1.397 . S
C1134 C1135 1.334 . S
C1135 H1106 0.950 . S
C1135 C1134 1.334 . S
C1135 C1136 1.287 . S
C1136 C1135 1.287 . S
C1136 C1137 1.524 . S
C1136 H1139 0.999 . S
C1137 H1107 0.950 . S
C1137 C1136 1.524 . S
C1137 C1138 1.415 . S
C1138 H1108 0.950 . S
C1138 C1133 1.363 . S
C1138 C1137 1.415 . S
H1139 C1136 0.999 . S
H1140 C1121 0.913 . S
H1141 C1159 0.951 . S
H1142 C1161 0.951 . S
H1143 C1163 0.950 . S
H1144 C1164 0.950 . S
H1145 C1166 0.956 . S
H1146 C1169 0.950 . S
H1147 C1170 0.950 . S
H1148 C1172 0.950 . S
H1149 C1173 0.950 . S
H1150 C1174 0.951 . S
H1151 C1176 0.951 . S
H1152 C1178 0.950 . S
H1153 C1179 0.950 . S
H1154 C1181 0.950 . S
H1155 C1184 0.950 . S
H1156 C1185 0.950 . S
H1157 C1187 0.950 . S
H1158 C1188 0.950 . S
C1159 H1141 0.951 . S
C1159 C1160 1.366 . S
C1159 C1161 1.388 . S
C1160 C1159 1.366 . S
C1160 C1164 1.385 . S
C1161 H1142 0.951 . S
C1161 C1159 1.388 . S
C1161 C1162 1.366 . S
C1162 C1161 1.366 . S
C1162 C1163 1.414 . S
C1162 C1165 1.499 . S
C1163 H1143 0.950 . S
C1163 C1162 1.414 . S
C1163 C1164 1.374 . S
C1164 H1144 0.950 . S
C1164 C1160 1.385 . S
C1164 C1163 1.374 . S
C1165 C1162 1.499 . S
C1165 C1166 1.373 . S
C1165 C1167 1.389 . S
C1166 H1145 0.956 . S
C1166 C1165 1.373 . S
C1166 C1182 1.377 . S
C1167 C1165 1.389 . S
C1167 C1168 1.524 . S
C1167 C1181 1.377 . S
C1168 C1167 1.524 . S
C1168 C1169 1.397 . S
C1168 C1173 1.363 . S
C1169 H1146 0.950 . S
C1169 C1168 1.397 . S
C1169 C1170 1.334 . S
C1170 H1147 0.950 . S
C1170 C1169 1.334 . S
C1170 C1171 1.287 . S
C1171 C1170 1.287 . S
C1171 C1172 1.524 . S
C1171 H1190 0.913 . S
C1172 H1148 0.950 . S
C1172 C1171 1.524 . S
C1172 C1173 1.415 . S
C1173 H1149 0.950 . S
C1173 C1168 1.363 . S
C1173 C1172 1.415 . S
C1174 H1150 0.951 . S
C1174 C1175 1.366 . S
C1174 C1176 1.388 . S
C1175 C1174 1.366 . S
C1175 C1179 1.385 . S
C1176 H1151 0.951 . S
C1176 C1174 1.388 . S
C1176 C1177 1.366 . S
C1177 C1176 1.366 . S
C1177 C1178 1.414 . S
C1177 C1180 1.499 . S
C1178 H1152 0.950 . S
C1178 C1177 1.414 . S
C1178 C1179 1.374 . S
C1179 H1153 0.950 . S
C1179 C1175 1.385 . S
C1179 C1178 1.374 . S
C1180 C1177 1.499 . S
C1180 C1181 1.373 . S
C1180 C1182 1.389 . S
C1181 H1154 0.950 . S
C1181 C1167 1.377 . S
C1181 C1180 1.373 . S
C1182 C1166 1.377 . S
C1182 C1180 1.389 . S
C1182 C1183 1.524 1_556 S
C1183 C1182 1.524 1_554 S
C1183 C1184 1.397 . S
C1183 C1188 1.363 . S
C1184 H1155 0.950 . S
C1184 C1183 1.397 . S
C1184 C1185 1.334 . S
C1185 H1156 0.950 . S
C1185 C1184 1.334 . S
C1185 C1186 1.287 . S
C1186 C1185 1.287 . S
C1186 C1187 1.524 . S
C1186 H1189 0.999 . S
C1187 H1157 0.950 . S
C1187 C1186 1.524 . S
C1187 C1188 1.415 . S
C1188 H1158 0.950 . S
C1188 C1183 1.363 . S
C1188 C1187 1.415 . S
H1189 C1186 0.999 . S
H1190 C1171 0.913 . S
H1191 C1209 0.951 . S
H1192 C1211 0.951 . S
H1193 C1213 0.879 1_554 S
H1194 C1214 0.950 . S
H1195 C1216 0.950 . S
H1196 C1219 0.950 . S
H1197 C1220 0.950 . S
H1198 C1222 0.950 . S
H1199 C1223 0.950 . S
H1200 C1224 0.951 . S
H1201 C1226 0.951 . S
H1202 C1228 0.950 . S
H1203 C1229 0.950 . S
H1204 C1231 0.950 . S
H1205 C1234 0.952 . S
H1206 C1235 0.950 . S
H1207 C1237 0.950 . S
H1208 C1238 0.950 . S
C1209 H1191 0.951 . S
C1209 C1210 1.366 . S
C1209 C1211 1.388 . S
C1210 C1209 1.366 . S
C1210 C1214 1.385 . S
C1211 H1192 0.951 . S
C1211 C1209 1.388 . S
C1211 C1212 1.366 . S
C1212 C1211 1.366 . S
C1212 C1213 1.414 . S
C1212 C1215 1.499 . S
C1213 H1193 0.879 1_556 S
C1213 C1212 1.414 . S
C1213 C1214 1.374 . S
C1214 H1194 0.950 . S
C1214 C1210 1.385 . S
C1214 C1213 1.374 . S
C1215 C1212 1.499 . S
C1215 C1216 1.373 . S
C1215 C1217 1.389 . S
C1216 H1195 0.950 . S
C1216 C1215 1.373 . S
C1216 C1232 1.377 . S
C1217 C1215 1.389 . S
C1217 C1218 1.524 . S
C1217 C1231 1.377 . S
C1218 C1217 1.524 . S
C1218 C1219 1.397 . S
C1218 C1223 1.363 . S
C1219 H1196 0.950 . S
C1219 C1218 1.397 . S
C1219 C1220 1.334 . S
C1220 H1197 0.950 . S
C1220 C1219 1.334 . S
C1220 C1221 1.287 . S
C1221 C1220 1.287 . S
C1221 C1222 1.524 . S
C1221 H1240 0.913 . S
C1222 H1198 0.950 . S
C1222 C1221 1.524 . S
C1222 C1223 1.415 . S
C1223 H1199 0.950 . S
C1223 C1218 1.363 . S
C1223 C1222 1.415 . S
C1224 H1200 0.951 . S
C1224 C1225 1.366 1_554 S
C1224 C1226 1.388 . S
C1225 C1224 1.366 1_556 S
C1225 C1229 1.385 . S
C1226 H1201 0.951 . S
C1226 C1224 1.388 . S
C1226 C1227 1.366 1_554 S
C1227 C1226 1.366 1_556 S
C1227 C1228 1.414 . S
C1227 C1230 1.499 . S
C1228 H1202 0.950 . S
C1228 C1227 1.414 . S
C1228 C1229 1.374 . S
C1229 H1203 0.950 . S
C1229 C1225 1.385 . S
C1229 C1228 1.374 . S
C1230 C1227 1.499 . S
C1230 C1231 1.373 . S
C1230 C1232 1.389 . S
C1231 H1204 0.950 . S
C1231 C1217 1.377 . S
C1231 C1230 1.373 . S
C1232 C1216 1.377 . S
C1232 C1230 1.389 . S
C1232 C1233 1.524 1_556 S
C1233 C1232 1.524 1_554 S
C1233 C1234 1.396 1_554 S
C1233 C1238 1.363 . S
C1234 H1205 0.952 . S
C1234 C1233 1.396 1_556 S
C1234 C1235 1.333 1_556 S
C1235 H1206 0.950 . S
C1235 C1234 1.333 1_554 S
C1235 C1236 1.287 . S
C1236 C1235 1.287 . S
C1236 C1237 1.524 . S
C1236 H1239 0.999 . S
C1237 H1207 0.950 . S
C1237 C1236 1.524 . S
C1237 C1238 1.415 . S
C1238 H1208 0.950 . S
C1238 C1233 1.363 . S
C1238 C1237 1.415 . S
H1239 C1236 0.999 . S
H1240 C1221 0.913 . S
H1241 C1259 0.951 . S
H1242 C1261 0.951 . S
H1243 C1263 0.950 . S
H1244 C1264 0.950 . S
H1245 C1266 0.950 . S
H1246 C1269 0.950 . S
H1247 C1270 0.950 . S
H1248 C1272 0.950 . S
H1249 C1273 0.950 . S
H1250 C1274 0.971 . S
H1251 C1276 0.956 . S
H1252 C1278 0.950 . S
H1253 C1279 0.950 . S
H1254 C1281 0.950 . S
H1255 C1284 0.950 . S
H1256 C1285 0.950 . S
H1257 C1287 0.950 . S
H1258 C1288 0.950 . S
C1259 H1241 0.951 . S
C1259 C1260 1.366 . S
C1259 C1261 1.388 . S
C1260 C1259 1.366 . S
C1260 C1264 1.385 . S
C1261 H1242 0.951 . S
C1261 C1259 1.388 . S
C1261 C1262 1.366 . S
C1262 C1261 1.366 . S
C1262 C1263 1.414 . S
C1262 C1265 1.499 . S
C1263 H1243 0.950 . S
C1263 C1262 1.414 . S
C1263 C1264 1.374 . S
C1264 H1244 0.950 . S
C1264 C1260 1.385 . S
C1264 C1263 1.374 . S
C1265 C1262 1.499 . S
C1265 C1266 1.373 . S
C1265 C1267 1.389 . S
C1266 H1245 0.950 . S
C1266 C1265 1.373 . S
C1266 C1282 1.377 . S
C1267 C1265 1.389 . S
C1267 C1268 1.537 . S
C1267 C1281 1.377 . S
C1268 C1267 1.537 . S
C1268 C1269 1.380 1_556 S
C1268 C1273 1.366 . S
C1269 H1246 0.950 . S
C1269 C1268 1.380 1_554 S
C1269 C1270 1.334 . S
C1270 H1247 0.950 . S
C1270 C1269 1.334 . S
C1270 C1271 1.287 . S
C1271 C1270 1.287 . S
C1271 C1272 1.524 . S
C1271 H1290 0.913 . S
C1272 H1248 0.950 . S
C1272 C1271 1.524 . S
C1272 C1273 1.415 1_554 S
C1273 H1249 0.950 . S
C1273 C1268 1.366 . S
C1273 C1272 1.415 1_556 S
C1274 H1250 0.971 . S
C1274 C1275 1.358 1_554 S
C1274 C1276 1.379 1_554 S
C1275 C1274 1.358 1_556 S
C1275 C1279 1.385 . S
C1276 H1251 0.956 . S
C1276 C1274 1.379 1_556 S
C1276 C1277 1.366 . S
C1277 C1276 1.366 . S
C1277 C1278 1.414 . S
C1277 C1280 1.499 . S
C1278 H1252 0.950 . S
C1278 C1277 1.414 . S
C1278 C1279 1.374 . S
C1279 H1253 0.950 . S
C1279 C1275 1.385 . S
C1279 C1278 1.374 . S
C1280 C1277 1.499 . S
C1280 C1281 1.373 . S
C1280 C1282 1.389 . S
C1281 H1254 0.950 . S
C1281 C1267 1.377 . S
C1281 C1280 1.373 . S
C1282 C1266 1.377 . S
C1282 C1280 1.389 . S
C1282 C1283 1.524 . S
C1283 C1282 1.524 . S
C1283 C1284 1.397 . S
C1283 C1288 1.363 . S
C1284 H1255 0.950 . S
C1284 C1283 1.397 . S
C1284 C1285 1.334 . S
C1285 H1256 0.950 . S
C1285 C1284 1.334 . S
C1285 C1286 1.287 . S
C1286 C1285 1.287 . S
C1286 C1287 1.524 . S
C1286 H1289 0.999 . S
C1287 H1257 0.950 . S
C1287 C1286 1.524 . S
C1287 C1288 1.415 . S
C1288 H1258 0.950 . S
C1288 C1283 1.363 . S
C1288 C1287 1.415 . S
H1289 C1286 0.999 . S
H1290 C1271 0.913 . S
H1291 C1309 0.951 . S
H1292 C1311 0.951 . S
H1293 C1313 0.950 1_554 S
H1294 C1314 0.950 . S
H1295 C1316 0.950 . S
H1296 C1319 0.950 . S
H1297 C1320 0.950 . S
H1298 C1322 0.950 . S
H1299 C1323 0.950 . S
H1300 C1324 0.951 . S
H1301 C1326 0.951 . S
H1302 C1328 0.950 . S
H1303 C1329 0.950 . S
H1304 C1331 0.950 . S
H1305 C1334 0.950 . S
H1306 C1335 0.950 . S
H1307 C1337 0.950 . S
H1308 C1338 0.950 . S
C1309 H1291 0.951 . S
C1309 C1310 1.366 . S
C1309 C1311 1.388 . S
C1310 C1309 1.366 . S
C1310 C1314 1.385 . S
C1311 H1292 0.951 . S
C1311 C1309 1.388 . S
C1311 C1312 1.366 . S
C1312 C1311 1.366 . S
C1312 C1313 1.414 . S
C1312 C1315 1.499 . S
C1313 H1293 0.950 1_556 S
C1313 C1312 1.414 . S
C1313 C1314 1.374 . S
C1314 H1294 0.950 . S
C1314 C1310 1.385 . S
C1314 C1313 1.374 . S
C1315 C1312 1.499 . S
C1315 C1316 1.373 . S
C1315 C1317 1.389 . S
C1316 H1295 0.950 . S
C1316 C1315 1.373 . S
C1316 C1332 1.377 . S
C1317 C1315 1.389 . S
C1317 C1318 1.524 . S
C1317 C1331 1.377 . S
C1318 C1317 1.524 . S
C1318 C1319 1.397 . S
C1318 C1323 1.363 . S
C1319 H1296 0.950 . S
C1319 C1318 1.397 . S
C1319 C1320 1.334 . S
C1320 H1297 0.950 . S
C1320 C1319 1.334 . S
C1320 C1321 1.287 . S
C1321 C1320 1.287 . S
C1321 C1322 1.524 . S
C1321 H1340 0.913 . S
C1322 H1298 0.950 . S
C1322 C1321 1.524 . S
C1322 C1323 1.415 . S
C1323 H1299 0.950 . S
C1323 C1318 1.363 . S
C1323 C1322 1.415 . S
C1324 H1300 0.951 . S
C1324 C1325 1.366 1_554 S
C1324 C1326 1.388 . S
C1325 C1324 1.366 1_556 S
C1325 C1329 1.385 . S
C1326 H1301 0.951 . S
C1326 C1324 1.388 . S
C1326 C1327 1.366 1_554 S
C1327 C1326 1.366 1_556 S
C1327 C1328 1.414 . S
C1327 C1330 1.499 . S
C1328 H1302 0.950 . S
C1328 C1327 1.414 . S
C1328 C1329 1.374 . S
C1329 H1303 0.950 . S
C1329 C1325 1.385 . S
C1329 C1328 1.374 . S
C1330 C1327 1.499 . S
C1330 C1331 1.373 . S
C1330 C1332 1.389 . S
C1331 H1304 0.950 . S
C1331 C1317 1.377 . S
C1331 C1330 1.373 . S
C1332 C1316 1.377 . S
C1332 C1330 1.389 . S
C1332 C1333 1.524 1_556 S
C1333 C1332 1.524 1_554 S
C1333 C1334 1.397 1_554 S
C1333 C1338 1.363 . S
C1334 H1305 0.950 . S
C1334 C1333 1.397 1_556 S
C1334 C1335 1.334 1_556 S
C1335 H1306 0.950 . S
C1335 C1334 1.334 1_554 S
C1335 C1336 1.287 . S
C1336 C1335 1.287 . S
C1336 C1337 1.524 . S
C1336 H1339 0.999 . S
C1337 H1307 0.950 . S
C1337 C1336 1.524 . S
C1337 C1338 1.415 . S
C1338 H1308 0.950 . S
C1338 C1333 1.363 . S
C1338 C1337 1.415 . S
H1339 C1336 0.999 . S
H1340 C1321 0.913 . S
H1341 C1359 0.951 . S
H1342 C1361 0.951 . S
H1343 C1363 0.950 . S
H1344 C1364 0.950 . S
H1345 C1366 0.950 . S
H1346 C1369 0.950 . S
H1347 C1370 0.950 . S
H1348 C1372 0.950 . S
H1349 C1373 0.950 . S
H1350 C1374 0.951 . S
H1351 C1376 0.951 . S
H1352 C1378 0.950 . S
H1353 C1379 0.950 . S
H1354 C1381 0.950 . S
H1355 C1384 0.950 . S
H1356 C1385 0.950 . S
H1357 C1387 0.950 . S
H1358 C1388 0.950 . S
C1359 H1341 0.951 . S
C1359 C1360 1.366 . S
C1359 C1361 1.388 . S
C1360 C1359 1.366 . S
C1360 C1364 1.385 . S
C1361 H1342 0.951 . S
C1361 C1359 1.388 . S
C1361 C1362 1.366 . S
C1362 C1361 1.366 . S
C1362 C1363 1.414 . S
C1362 C1365 1.499 . S
C1363 H1343 0.950 . S
C1363 C1362 1.414 . S
C1363 C1364 1.374 . S
C1364 H1344 0.950 . S
C1364 C1360 1.385 . S
C1364 C1363 1.374 . S
C1365 C1362 1.499 . S
C1365 C1366 1.373 . S
C1365 C1367 1.389 . S
C1366 H1345 0.950 . S
C1366 C1365 1.373 . S
C1366 C1382 1.377 . S
C1367 C1365 1.389 . S
C1367 C1368 1.524 . S
C1367 C1381 1.377 . S
C1368 C1367 1.524 . S
C1368 C1369 1.397 1_554 S
C1368 C1373 1.363 . S
C1369 H1346 0.950 . S
C1369 C1368 1.397 1_556 S
C1369 C1370 1.334 . S
C1370 H1347 0.950 . S
C1370 C1369 1.334 . S
C1370 C1371 1.287 . S
C1371 C1370 1.287 . S
C1371 C1372 1.524 . S
C1371 H1390 0.913 . S
C1372 H1348 0.950 . S
C1372 C1371 1.524 . S
C1372 C1373 1.415 1_556 S
C1373 H1349 0.950 . S
C1373 C1368 1.363 . S
C1373 C1372 1.415 1_554 S
C1374 H1350 0.951 . S
C1374 C1375 1.366 . S
C1374 C1376 1.388 . S
C1375 C1374 1.366 . S
C1375 C1379 1.385 . S
C1376 H1351 0.951 . S
C1376 C1374 1.388 . S
C1376 C1377 1.366 . S
C1377 C1376 1.366 . S
C1377 C1378 1.414 . S
C1377 C1380 1.499 . S
C1378 H1352 0.950 . S
C1378 C1377 1.414 . S
C1378 C1379 1.374 . S
C1379 H1353 0.950 . S
C1379 C1375 1.385 . S
C1379 C1378 1.374 . S
C1380 C1377 1.499 . S
C1380 C1381 1.373 . S
C1380 C1382 1.389 . S
C1381 H1354 0.950 . S
C1381 C1367 1.377 . S
C1381 C1380 1.373 . S
C1382 C1366 1.377 . S
C1382 C1380 1.389 . S
C1382 C1383 1.524 . S
C1383 C1382 1.524 . S
C1383 C1384 1.397 . S
C1383 C1388 1.363 . S
C1384 H1355 0.950 . S
C1384 C1383 1.397 . S
C1384 C1385 1.334 . S
C1385 H1356 0.950 . S
C1385 C1384 1.334 . S
C1385 C1386 1.287 . S
C1386 C1385 1.287 . S
C1386 C1387 1.524 . S
C1386 H1389 0.999 . S
C1387 H1357 0.950 . S
C1387 C1386 1.524 . S
C1387 C1388 1.415 . S
C1388 H1358 0.950 . S
C1388 C1383 1.363 . S
C1388 C1387 1.415 . S
H1389 C1386 0.999 . S
H1390 C1371 0.913 . S
H1391 C1409 0.951 . S
H1392 C1411 0.951 . S
H1393 C1413 0.950 . S
H1394 C1414 0.950 . S
H1395 C1416 0.950 . S
H1396 C1419 0.950 . S
H1397 C1420 0.950 . S
H1398 C1422 0.950 . S
H1399 C1423 0.950 . S
H1400 C1424 0.951 . S
H1401 C1426 0.951 1_556 S
H1402 C1428 0.950 . S
H1403 C1429 0.950 . S
H1404 C1431 0.950 . S
H1405 C1434 0.950 . S
H1406 C1435 0.939 1_554 S
H1407 C1437 0.950 . S
H1408 C1438 0.950 . S
C1409 H1391 0.951 . S
C1409 C1410 1.366 . S
C1409 C1411 1.388 . S
C1410 C1409 1.366 . S
C1410 C1414 1.385 . S
C1411 H1392 0.951 . S
C1411 C1409 1.388 . S
C1411 C1412 1.366 . S
C1412 C1411 1.366 . S
C1412 C1413 1.414 . S
C1412 C1415 1.499 . S
C1413 H1393 0.950 . S
C1413 C1412 1.414 . S
C1413 C1414 1.374 . S
C1414 H1394 0.950 . S
C1414 C1410 1.385 . S
C1414 C1413 1.374 . S
C1415 C1412 1.499 . S
C1415 C1416 1.373 . S
C1415 C1417 1.389 . S
C1416 H1395 0.950 . S
C1416 C1415 1.373 . S
C1416 C1432 1.377 . S
C1417 C1415 1.389 . S
C1417 C1418 1.524 . S
C1417 C1431 1.377 . S
C1418 C1417 1.524 . S
C1418 C1419 1.397 . S
C1418 C1423 1.363 . S
C1419 H1396 0.950 . S
C1419 C1418 1.397 . S
C1419 C1420 1.334 . S
C1420 H1397 0.950 . S
C1420 C1419 1.334 . S
C1420 C1421 1.287 . S
C1421 C1420 1.287 . S
C1421 C1422 1.524 . S
C1421 H1440 0.913 . S
C1422 H1398 0.950 . S
C1422 C1421 1.524 . S
C1422 C1423 1.415 . S
C1423 H1399 0.950 . S
C1423 C1418 1.363 . S
C1423 C1422 1.415 . S
C1424 H1400 0.951 . S
C1424 C1425 1.366 1_556 S
C1424 C1426 1.388 1_556 S
C1425 C1424 1.366 1_554 S
C1425 C1429 1.385 . S
C1426 H1401 0.951 1_554 S
C1426 C1424 1.388 1_554 S
C1426 C1427 1.366 . S
C1427 C1426 1.366 . S
C1427 C1428 1.414 . S
C1427 C1430 1.499 . S
C1428 H1402 0.950 . S
C1428 C1427 1.414 . S
C1428 C1429 1.374 . S
C1429 H1403 0.950 . S
C1429 C1425 1.385 . S
C1429 C1428 1.374 . S
C1430 C1427 1.499 . S
C1430 C1431 1.373 . S
C1430 C1432 1.389 . S
C1431 H1404 0.950 . S
C1431 C1417 1.377 . S
C1431 C1430 1.373 . S
C1432 C1416 1.377 . S
C1432 C1430 1.389 . S
C1432 C1433 1.555 . S
C1433 C1432 1.555 . S
C1433 C1434 1.413 . S
C1433 C1438 1.321 1_554 S
C1434 H1405 0.950 . S
C1434 C1433 1.413 . S
C1434 C1435 1.334 1_554 S
C1435 H1406 0.939 1_556 S
C1435 C1434 1.334 1_556 S
C1435 C1436 1.287 . S
C1436 C1435 1.287 . S
C1436 C1437 1.524 . S
C1436 H1439 0.999 . S
C1437 H1407 0.950 . S
C1437 C1436 1.524 . S
C1437 C1438 1.415 . S
C1438 H1408 0.950 . S
C1438 C1433 1.321 1_556 S
C1438 C1437 1.415 . S
H1439 C1436 0.999 . S
H1440 C1421 0.913 . S
H1441 C1459 0.951 . S
H1442 C1461 0.951 . S
H1443 C1463 0.950 . S
H1444 C1464 0.950 . S
H1445 C1466 0.950 . S
H1446 C1469 0.950 . S
H1447 C1470 0.950 . S
H1448 C1472 0.950 . S
H1449 C1473 0.950 . S
H1450 C1474 0.951 . S
H1451 C1476 0.897 1_556 S
H1452 C1478 0.950 . S
H1453 C1479 0.950 . S
H1454 C1481 0.950 . S
H1455 C1484 0.950 . S
H1456 C1485 0.950 . S
H1457 C1487 0.950 . S
H1458 C1488 0.950 . S
C1459 H1441 0.951 . S
C1459 C1460 1.366 . S
C1459 C1461 1.388 . S
C1460 C1459 1.366 . S
C1460 C1464 1.385 . S
C1461 H1442 0.951 . S
C1461 C1459 1.388 . S
C1461 C1462 1.366 . S
C1462 C1461 1.366 . S
C1462 C1463 1.414 . S
C1462 C1465 1.499 . S
C1463 H1443 0.950 . S
C1463 C1462 1.414 . S
C1463 C1464 1.374 . S
C1464 H1444 0.950 . S
C1464 C1460 1.385 . S
C1464 C1463 1.374 . S
C1465 C1462 1.499 . S
C1465 C1466 1.373 . S
C1465 C1467 1.389 . S
C1466 H1445 0.950 . S
C1466 C1465 1.373 . S
C1466 C1482 1.377 . S
C1467 C1465 1.389 . S
C1467 C1468 1.524 . S
C1467 C1481 1.377 . S
C1468 C1467 1.524 . S
C1468 C1469 1.397 . S
C1468 C1473 1.363 . S
C1469 H1446 0.950 . S
C1469 C1468 1.397 . S
C1469 C1470 1.334 . S
C1470 H1447 0.950 . S
C1470 C1469 1.334 . S
C1470 C1471 1.287 . S
C1471 C1470 1.287 . S
C1471 C1472 1.524 . S
C1471 H1490 0.913 . S
C1472 H1448 0.950 . S
C1472 C1471 1.524 . S
C1472 C1473 1.415 . S
C1473 H1449 0.950 . S
C1473 C1468 1.363 . S
C1473 C1472 1.415 . S
C1474 H1450 0.951 . S
C1474 C1475 1.366 1_556 S
C1474 C1476 1.375 1_556 S
C1475 C1474 1.366 1_554 S
C1475 C1479 1.385 . S
C1476 H1451 0.897 1_554 S
C1476 C1474 1.375 1_554 S
C1476 C1477 1.435 . S
C1477 C1476 1.435 . S
C1477 C1478 1.414 . S
C1477 C1480 1.499 . S
C1478 H1452 0.950 . S
C1478 C1477 1.414 . S
C1478 C1479 1.374 . S
C1479 H1453 0.950 . S
C1479 C1475 1.385 . S
C1479 C1478 1.374 . S
C1480 C1477 1.499 . S
C1480 C1481 1.373 . S
C1480 C1482 1.389 . S
C1481 H1454 0.950 . S
C1481 C1467 1.377 . S
C1481 C1480 1.373 . S
C1482 C1466 1.377 . S
C1482 C1480 1.389 . S
C1482 C1483 1.524 1_554 S
C1483 C1482 1.524 1_556 S
C1483 C1484 1.397 1_556 S
C1483 C1488 1.363 . S
C1484 H1455 0.950 . S
C1484 C1483 1.397 1_554 S
C1484 C1485 1.334 1_554 S
C1485 H1456 0.950 . S
C1485 C1484 1.334 1_556 S
C1485 C1486 1.287 . S
C1486 C1485 1.287 . S
C1486 C1487 1.524 . S
C1486 H1489 0.999 . S
C1487 H1457 0.950 . S
C1487 C1486 1.524 . S
C1487 C1488 1.415 . S
C1488 H1458 0.950 . S
C1488 C1483 1.363 . S
C1488 C1487 1.415 . S
H1489 C1486 0.999 . S
H1490 C1471 0.913 . S
H1491 C1509 0.951 . S
H1492 C1511 0.996 . S
H1493 C1513 0.950 . S
H1494 C1514 0.950 . S
H1495 C1516 0.950 . S
H1496 C1519 0.950 . S
H1497 C1520 0.980 . S
H1498 C1522 0.950 . S
H1499 C1523 0.950 . S
H1500 C1524 0.951 . S
H1501 C1526 0.951 . S
H1502 C1528 0.950 . S
H1503 C1529 0.950 . S
H1504 C1531 0.950 . S
H1505 C1534 0.950 . S
H1506 C1535 0.950 . S
H1507 C1537 0.950 . S
H1508 C1538 0.950 . S
C1509 H1491 0.951 . S
C1509 C1510 1.366 . S
C1509 C1511 1.388 . S
C1510 C1509 1.366 . S
C1510 C1514 1.385 . S
C1511 H1492 0.996 . S
C1511 C1509 1.388 . S
C1511 C1512 1.366 . S
C1512 C1511 1.366 . S
C1512 C1513 1.414 . S
C1512 C1515 1.499 1_655 S
C1513 H1493 0.950 . S
C1513 C1512 1.414 . S
C1513 C1514 1.374 . S
C1514 H1494 0.950 . S
C1514 C1510 1.385 . S
C1514 C1513 1.374 . S
C1515 C1512 1.499 1_455 S
C1515 C1516 1.373 . S
C1515 C1517 1.389 . S
C1516 H1495 0.950 . S
C1516 C1515 1.373 . S
C1516 C1532 1.377 . S
C1517 C1515 1.389 . S
C1517 C1518 1.524 . S
C1517 C1531 1.377 . S
C1518 C1517 1.524 . S
C1518 C1519 1.397 . S
C1518 C1523 1.363 . S
C1519 H1496 0.950 . S
C1519 C1518 1.397 . S
C1519 C1520 1.334 . S
C1520 H1497 0.980 . S
C1520 C1519 1.334 . S
C1520 C1521 1.287 . S
C1521 C1520 1.287 . S
C1521 C1522 1.524 . S
C1521 H1540 0.913 . S
C1522 H1498 0.950 . S
C1522 C1521 1.524 . S
C1522 C1523 1.415 . S
C1523 H1499 0.950 . S
C1523 C1518 1.363 . S
C1523 C1522 1.415 . S
C1524 H1500 0.951 . S
C1524 C1525 1.366 . S
C1524 C1526 1.388 . S
C1525 C1524 1.366 . S
C1525 C1529 1.385 . S
C1526 H1501 0.951 . S
C1526 C1524 1.388 . S
C1526 C1527 1.366 . S
C1527 C1526 1.366 . S
C1527 C1528 1.414 . S
C1527 C1530 1.499 . S
C1528 H1502 0.950 . S
C1528 C1527 1.414 . S
C1528 C1529 1.374 . S
C1529 H1503 0.950 . S
C1529 C1525 1.385 . S
C1529 C1528 1.374 . S
C1530 C1527 1.499 . S
C1530 C1531 1.373 . S
C1530 C1532 1.389 . S
C1531 H1504 0.950 . S
C1531 C1517 1.377 . S
C1531 C1530 1.373 . S
C1532 C1516 1.377 . S
C1532 C1530 1.389 . S
C1532 C1533 1.524 . S
C1533 C1532 1.524 . S
C1533 C1534 1.397 . S
C1533 C1538 1.363 . S
C1534 H1505 0.950 . S
C1534 C1533 1.397 . S
C1534 C1535 1.334 . S
C1535 H1506 0.950 . S
C1535 C1534 1.334 . S
C1535 C1536 1.287 . S
C1536 C1535 1.287 . S
C1536 C1537 1.524 . S
C1536 H1539 0.999 . S
C1537 H1507 0.950 . S
C1537 C1536 1.524 . S
C1537 C1538 1.415 . S
C1538 H1508 0.950 . S
C1538 C1533 1.363 . S
C1538 C1537 1.415 . S
H1539 C1536 0.999 . S
H1540 C1521 0.913 . S
H1541 C1559 0.951 . S
H1542 C1561 0.951 . S
H1543 C1563 0.950 . S
H1544 C1564 0.950 . S
H1545 C1566 0.950 . S
H1546 C1569 0.950 . S
H1547 C1570 0.950 . S
H1548 C1572 0.950 . S
H1549 C1573 0.950 . S
H1550 C1574 0.951 . S
H1551 C1576 0.951 . S
H1552 C1578 0.950 . S
H1553 C1579 0.950 . S
H1554 C1581 0.950 . S
H1555 C1584 0.950 . S
H1556 C1585 0.950 . S
H1557 C1587 0.950 . S
H1558 C1588 0.950 . S
C1559 H1541 0.951 . S
C1559 C1560 1.366 . S
C1559 C1561 1.388 . S
C1560 C1559 1.366 . S
C1560 C1564 1.385 . S
C1561 H1542 0.951 . S
C1561 C1559 1.388 . S
C1561 C1562 1.366 . S
C1562 C1561 1.366 . S
C1562 C1563 1.414 . S
C1562 C1565 1.499 . S
C1563 H1543 0.950 . S
C1563 C1562 1.414 . S
C1563 C1564 1.374 . S
C1564 H1544 0.950 . S
C1564 C1560 1.385 . S
C1564 C1563 1.374 . S
C1565 C1562 1.499 . S
C1565 C1566 1.373 . S
C1565 C1567 1.389 . S
C1566 H1545 0.950 . S
C1566 C1565 1.373 . S
C1566 C1582 1.377 . S
C1567 C1565 1.389 . S
C1567 C1568 1.524 . S
C1567 C1581 1.377 . S
C1568 C1567 1.524 . S
C1568 C1569 1.397 . S
C1568 C1573 1.363 . S
C1569 H1546 0.950 . S
C1569 C1568 1.397 . S
C1569 C1570 1.334 . S
C1570 H1547 0.950 . S
C1570 C1569 1.334 . S
C1570 C1571 1.287 . S
C1571 C1570 1.287 . S
C1571 C1572 1.524 . S
C1571 H1590 0.913 . S
C1572 H1548 0.950 . S
C1572 C1571 1.524 . S
C1572 C1573 1.415 . S
C1573 H1549 0.950 . S
C1573 C1568 1.363 . S
C1573 C1572 1.415 . S
C1574 H1550 0.951 . S
C1574 C1575 1.366 . S
C1574 C1576 1.388 . S
C1575 C1574 1.366 . S
C1575 C1579 1.385 . S
C1576 H1551 0.951 . S
C1576 C1574 1.388 . S
C1576 C1577 1.366 . S
C1577 C1576 1.366 . S
C1577 C1578 1.414 . S
C1577 C1580 1.499 . S
C1578 H1552 0.950 . S
C1578 C1577 1.414 . S
C1578 C1579 1.374 . S
C1579 H1553 0.950 . S
C1579 C1575 1.385 . S
C1579 C1578 1.374 . S
C1580 C1577 1.499 . S
C1580 C1581 1.373 . S
C1580 C1582 1.389 . S
C1581 H1554 0.950 . S
C1581 C1567 1.377 . S
C1581 C1580 1.373 . S
C1582 C1566 1.377 . S
C1582 C1580 1.389 . S
C1582 C1583 1.524 . S
C1583 C1582 1.524 . S
C1583 C1584 1.397 . S
C1583 C1588 1.363 . S
C1584 H1555 0.950 . S
C1584 C1583 1.397 . S
C1584 C1585 1.334 . S
C1585 H1556 0.950 . S
C1585 C1584 1.334 . S
C1585 C1586 1.287 . S
C1586 C1585 1.287 . S
C1586 C1587 1.524 . S
C1586 H1589 0.999 . S
C1587 H1557 0.950 . S
C1587 C1586 1.524 . S
C1587 C1588 1.415 . S
C1588 H1558 0.950 . S
C1588 C1583 1.363 . S
C1588 C1587 1.415 . S
H1589 C1586 0.999 . S
H1590 C1571 0.913 . S
H1591 C1609 0.951 . S
H1592 C1611 0.951 . S
H1593 C1613 0.950 . S
H1594 C1614 0.950 . S
H1595 C1616 0.950 . S
H1596 C1619 0.950 . S
H1597 C1620 0.950 1_545 S
H1598 C1622 0.950 . S
H1599 C1623 0.950 . S
H1600 C1624 0.951 . S
H1601 C1626 0.951 . S
H1602 C1628 0.950 . S
H1603 C1629 0.950 . S
H1604 C1631 0.950 . S
H1605 C1634 0.950 . S
H1606 C1635 0.950 . S
H1607 C1637 0.950 . S
H1608 C1638 0.950 . S
C1609 H1591 0.951 . S
C1609 C1610 1.366 . S
C1609 C1611 1.388 . S
C1610 C1609 1.366 . S
C1610 C1614 1.385 . S
C1611 H1592 0.951 . S
C1611 C1609 1.388 . S
C1611 C1612 1.366 . S
C1612 C1611 1.366 . S
C1612 C1613 1.414 . S
C1612 C1615 1.499 1_545 S
C1613 H1593 0.950 . S
C1613 C1612 1.414 . S
C1613 C1614 1.374 . S
C1614 H1594 0.950 . S
C1614 C1610 1.385 . S
C1614 C1613 1.374 . S
C1615 C1612 1.499 1_565 S
C1615 C1616 1.373 . S
C1615 C1617 1.389 . S
C1616 H1595 0.950 . S
C1616 C1615 1.373 . S
C1616 C1632 1.377 . S
C1617 C1615 1.389 . S
C1617 C1618 1.524 . S
C1617 C1631 1.377 . S
C1618 C1617 1.524 . S
C1618 C1619 1.397 . S
C1618 C1623 1.363 . S
C1619 H1596 0.950 . S
C1619 C1618 1.397 . S
C1619 C1620 1.334 . S
C1620 H1597 0.950 1_565 S
C1620 C1619 1.334 . S
C1620 C1621 1.287 . S
C1621 C1620 1.287 . S
C1621 C1622 1.524 . S
C1621 H1640 0.913 . S
C1622 H1598 0.950 . S
C1622 C1621 1.524 . S
C1622 C1623 1.415 . S
C1623 H1599 0.950 . S
C1623 C1618 1.363 . S
C1623 C1622 1.415 . S
C1624 H1600 0.951 . S
C1624 C1625 1.366 . S
C1624 C1626 1.388 . S
C1625 C1624 1.366 . S
C1625 C1629 1.385 . S
C1626 H1601 0.951 . S
C1626 C1624 1.388 . S
C1626 C1627 1.366 . S
C1627 C1626 1.366 . S
C1627 C1628 1.414 . S
C1627 C1630 1.499 . S
C1628 H1602 0.950 . S
C1628 C1627 1.414 . S
C1628 C1629 1.374 . S
C1629 H1603 0.950 . S
C1629 C1625 1.385 . S
C1629 C1628 1.374 . S
C1630 C1627 1.499 . S
C1630 C1631 1.373 . S
C1630 C1632 1.389 . S
C1631 H1604 0.950 . S
C1631 C1617 1.377 . S
C1631 C1630 1.373 . S
C1632 C1616 1.377 . S
C1632 C1630 1.389 . S
C1632 C1633 1.524 . S
C1633 C1632 1.524 . S
C1633 C1634 1.397 . S
C1633 C1638 1.363 . S
C1634 H1605 0.950 . S
C1634 C1633 1.397 . S
C1634 C1635 1.334 . S
C1635 H1606 0.950 . S
C1635 C1634 1.334 . S
C1635 C1636 1.287 . S
C1636 C1635 1.287 . S
C1636 C1637 1.524 . S
C1636 H1639 0.999 . S
C1637 H1607 0.950 . S
C1637 C1636 1.524 . S
C1637 C1638 1.415 . S
C1638 H1608 0.950 . S
C1638 C1633 1.363 . S
C1638 C1637 1.415 . S
H1639 C1636 0.999 . S
H1640 C1621 0.913 . S
H1641 C1659 0.951 . S
H1642 C1661 0.951 . S
H1643 C1663 0.950 . S
H1644 C1664 0.950 . S
H1645 C1666 0.950 . S
H1646 C1669 0.950 . S
H1647 C1670 0.950 . S
H1648 C1672 0.950 . S
H1649 C1673 0.950 . S
H1650 C1674 0.951 . S
H1651 C1676 0.951 . S
H1652 C1678 0.950 . S
H1653 C1679 0.950 . S
H1654 C1681 0.950 . S
H1655 C1684 0.950 . S
H1656 C1685 0.950 . S
H1657 C1687 0.950 . S
H1658 C1688 0.950 . S
C1659 H1641 0.951 . S
C1659 C1660 1.366 . S
C1659 C1661 1.388 . S
C1660 C1659 1.366 . S
C1660 C1664 1.385 . S
C1661 H1642 0.951 . S
C1661 C1659 1.388 . S
C1661 C1662 1.366 . S
C1662 C1661 1.366 . S
C1662 C1663 1.414 . S
C1662 C1665 1.499 . S
C1663 H1643 0.950 . S
C1663 C1662 1.414 . S
C1663 C1664 1.374 . S
C1664 H1644 0.950 . S
C1664 C1660 1.385 . S
C1664 C1663 1.374 . S
C1665 C1662 1.499 . S
C1665 C1666 1.373 . S
C1665 C1667 1.389 . S
C1666 H1645 0.950 . S
C1666 C1665 1.373 . S
C1666 C1682 1.377 . S
C1667 C1665 1.389 . S
C1667 C1668 1.524 . S
C1667 C1681 1.377 . S
C1668 C1667 1.524 . S
C1668 C1669 1.397 . S
C1668 C1673 1.363 . S
C1669 H1646 0.950 . S
C1669 C1668 1.397 . S
C1669 C1670 1.334 . S
C1670 H1647 0.950 . S
C1670 C1669 1.334 . S
C1670 C1671 1.287 . S
C1671 C1670 1.287 . S
C1671 C1672 1.524 . S
C1671 H1690 0.913 . S
C1672 H1648 0.950 . S
C1672 C1671 1.524 . S
C1672 C1673 1.415 . S
C1673 H1649 0.950 . S
C1673 C1668 1.363 . S
C1673 C1672 1.415 . S
C1674 H1650 0.951 . S
C1674 C1675 1.366 . S
C1674 C1676 1.388 . S
C1675 C1674 1.366 . S
C1675 C1679 1.385 . S
C1676 H1651 0.951 . S
C1676 C1674 1.388 . S
C1676 C1677 1.366 . S
C1677 C1676 1.366 . S
C1677 C1678 1.414 . S
C1677 C1680 1.499 . S
C1678 H1652 0.950 . S
C1678 C1677 1.414 . S
C1678 C1679 1.374 . S
C1679 H1653 0.950 . S
C1679 C1675 1.385 . S
C1679 C1678 1.374 . S
C1680 C1677 1.499 . S
C1680 C1681 1.373 . S
C1680 C1682 1.389 . S
C1681 H1654 0.950 . S
C1681 C1667 1.377 . S
C1681 C1680 1.373 . S
C1682 C1666 1.377 . S
C1682 C1680 1.389 . S
C1682 C1683 1.524 . S
C1683 C1682 1.524 . S
C1683 C1684 1.397 . S
C1683 C1688 1.363 . S
C1684 H1655 0.950 . S
C1684 C1683 1.397 . S
C1684 C1685 1.334 . S
C1685 H1656 0.950 . S
C1685 C1684 1.334 . S
C1685 C1686 1.287 . S
C1686 C1685 1.287 . S
C1686 C1687 1.524 . S
C1686 H1689 0.999 . S
C1687 H1657 0.950 . S
C1687 C1686 1.524 . S
C1687 C1688 1.415 . S
C1688 H1658 0.950 . S
C1688 C1683 1.363 . S
C1688 C1687 1.415 . S
H1689 C1686 0.999 . S
H1690 C1671 0.913 . S
H1691 C1709 0.951 . S
H1692 C1711 0.951 . S
H1693 C1713 0.950 . S
H1694 C1714 0.950 . S
H1695 C1716 0.950 . S
H1696 C1719 0.950 . S
H1697 C1720 0.950 . S
H1698 C1722 0.950 . S
H1699 C1723 0.950 . S
H1700 C1724 0.951 . S
H1701 C1726 0.951 . S
H1702 C1728 0.950 . S
H1703 C1729 0.950 . S
H1704 C1731 0.950 . S
H1705 C1734 0.950 . S
H1706 C1735 0.950 . S
H1707 C1737 0.950 . S
H1708 C1738 0.950 . S
C1709 H1691 0.951 . S
C1709 C1710 1.366 . S
C1709 C1711 1.388 . S
C1710 C1709 1.366 . S
C1710 C1714 1.385 . S
C1711 H1692 0.951 . S
C1711 C1709 1.388 . S
C1711 C1712 1.366 . S
C1712 C1711 1.366 . S
C1712 C1713 1.414 . S
C1712 C1715 1.499 . S
C1713 H1693 0.950 . S
C1713 C1712 1.414 . S
C1713 C1714 1.374 . S
C1714 H1694 0.950 . S
C1714 C1710 1.385 . S
C1714 C1713 1.374 . S
C1715 C1712 1.499 . S
C1715 C1716 1.373 . S
C1715 C1717 1.389 . S
C1716 H1695 0.950 . S
C1716 C1715 1.373 . S
C1716 C1732 1.377 . S
C1717 C1715 1.389 . S
C1717 C1718 1.524 . S
C1717 C1731 1.377 . S
C1718 C1717 1.524 . S
C1718 C1719 1.397 . S
C1718 C1723 1.363 . S
C1719 H1696 0.950 . S
C1719 C1718 1.397 . S
C1719 C1720 1.334 . S
C1720 H1697 0.950 . S
C1720 C1719 1.334 . S
C1720 C1721 1.287 . S
C1721 C1720 1.287 . S
C1721 C1722 1.524 . S
C1721 H1740 0.913 . S
C1722 H1698 0.950 . S
C1722 C1721 1.524 . S
C1722 C1723 1.415 . S
C1723 H1699 0.950 . S
C1723 C1718 1.363 . S
C1723 C1722 1.415 . S
C1724 H1700 0.951 . S
C1724 C1725 1.366 . S
C1724 C1726 1.388 . S
C1725 C1724 1.366 . S
C1725 C1729 1.385 . S
C1726 H1701 0.951 . S
C1726 C1724 1.388 . S
C1726 C1727 1.366 . S
C1727 C1726 1.366 . S
C1727 C1728 1.414 . S
C1727 C1730 1.499 . S
C1728 H1702 0.950 . S
C1728 C1727 1.414 . S
C1728 C1729 1.374 . S
C1729 H1703 0.950 . S
C1729 C1725 1.385 . S
C1729 C1728 1.374 . S
C1730 C1727 1.499 . S
C1730 C1731 1.373 . S
C1730 C1732 1.389 . S
C1731 H1704 0.950 . S
C1731 C1717 1.377 . S
C1731 C1730 1.373 . S
C1732 C1716 1.377 . S
C1732 C1730 1.389 . S
C1732 C1733 1.524 . S
C1733 C1732 1.524 . S
C1733 C1734 1.397 . S
C1733 C1738 1.363 . S
C1734 H1705 0.950 . S
C1734 C1733 1.397 . S
C1734 C1735 1.334 . S
C1735 H1706 0.950 . S
C1735 C1734 1.334 . S
C1735 C1736 1.287 . S
C1736 C1735 1.287 . S
C1736 C1737 1.524 . S
C1736 H1739 0.999 . S
C1737 H1707 0.950 . S
C1737 C1736 1.524 . S
C1737 C1738 1.415 . S
C1738 H1708 0.950 . S
C1738 C1733 1.363 . S
C1738 C1737 1.415 . S
H1739 C1736 0.999 . S
H1740 C1721 0.913 . S
H1741 C1759 0.951 . S
H1742 C1761 0.951 . S
H1743 C1763 0.950 . S
H1744 C1764 0.950 . S
H1745 C1766 0.950 . S
H1746 C1769 0.950 . S
H1747 C1770 0.950 . S
H1748 C1772 0.950 . S
H1749 C1773 0.950 . S
H1750 C1774 0.951 . S
H1751 C1776 0.951 . S
H1752 C1778 0.950 . S
H1753 C1779 0.950 . S
H1754 C1781 0.950 . S
H1755 C1784 0.950 . S
H1756 C1785 0.950 . S
H1757 C1787 0.950 . S
H1758 C1788 0.950 . S
C1759 H1741 0.951 . S
C1759 C1760 1.366 . S
C1759 C1761 1.388 . S
C1760 C1759 1.366 . S
C1760 C1764 1.385 . S
C1761 H1742 0.951 . S
C1761 C1759 1.388 . S
C1761 C1762 1.366 . S
C1762 C1761 1.366 . S
C1762 C1763 1.414 . S
C1762 C1765 1.499 . S
C1763 H1743 0.950 . S
C1763 C1762 1.414 . S
C1763 C1764 1.374 . S
C1764 H1744 0.950 . S
C1764 C1760 1.385 . S
C1764 C1763 1.374 . S
C1765 C1762 1.499 . S
C1765 C1766 1.373 . S
C1765 C1767 1.389 . S
C1766 H1745 0.950 . S
C1766 C1765 1.373 . S
C1766 C1782 1.377 . S
C1767 C1765 1.389 . S
C1767 C1768 1.524 . S
C1767 C1781 1.377 . S
C1768 C1767 1.524 . S
C1768 C1769 1.397 . S
C1768 C1773 1.363 . S
C1769 H1746 0.950 . S
C1769 C1768 1.397 . S
C1769 C1770 1.334 . S
C1770 H1747 0.950 . S
C1770 C1769 1.334 . S
C1770 C1771 1.287 . S
C1771 C1770 1.287 . S
C1771 C1772 1.524 . S
C1771 H1790 0.913 . S
C1772 H1748 0.950 . S
C1772 C1771 1.524 . S
C1772 C1773 1.415 . S
C1773 H1749 0.950 . S
C1773 C1768 1.363 . S
C1773 C1772 1.415 . S
C1774 H1750 0.951 . S
C1774 C1775 1.366 . S
C1774 C1776 1.388 . S
C1775 C1774 1.366 . S
C1775 C1779 1.385 . S
C1776 H1751 0.951 . S
C1776 C1774 1.388 . S
C1776 C1777 1.366 . S
C1777 C1776 1.366 . S
C1777 C1778 1.414 . S
C1777 C1780 1.499 . S
C1778 H1752 0.950 . S
C1778 C1777 1.414 . S
C1778 C1779 1.374 . S
C1779 H1753 0.950 . S
C1779 C1775 1.385 . S
C1779 C1778 1.374 . S
C1780 C1777 1.499 . S
C1780 C1781 1.373 . S
C1780 C1782 1.389 . S
C1781 H1754 0.950 . S
C1781 C1767 1.377 . S
C1781 C1780 1.373 . S
C1782 C1766 1.377 . S
C1782 C1780 1.389 . S
C1782 C1783 1.524 . S
C1783 C1782 1.524 . S
C1783 C1784 1.397 . S
C1783 C1788 1.363 . S
C1784 H1755 0.950 . S
C1784 C1783 1.397 . S
C1784 C1785 1.334 . S
C1785 H1756 0.950 . S
C1785 C1784 1.334 . S
C1785 C1786 1.287 . S
C1786 C1785 1.287 . S
C1786 C1787 1.524 . S
C1786 H1789 0.999 . S
C1787 H1757 0.950 . S
C1787 C1786 1.524 . S
C1787 C1788 1.415 . S
C1788 H1758 0.950 . S
C1788 C1783 1.363 . S
C1788 C1787 1.415 . S
H1789 C1786 0.999 . S
H1790 C1771 0.913 . S
H1791 C1809 0.951 . S
H1792 C1811 0.951 . S
H1793 C1813 0.950 . S
H1794 C1814 0.950 . S
H1795 C1816 0.950 . S
H1796 C1819 0.950 . S
H1797 C1820 0.950 . S
H1798 C1822 0.950 . S
H1799 C1823 0.950 . S
H1800 C1824 0.951 . S
H1801 C1826 0.951 . S
H1802 C1828 0.950 . S
H1803 C1829 0.950 . S
H1804 C1831 0.950 . S
H1805 C1834 0.950 . S
H1806 C1835 0.950 . S
H1807 C1837 0.950 . S
H1808 C1838 0.950 . S
C1809 H1791 0.951 . S
C1809 C1810 1.366 . S
C1809 C1811 1.388 . S
C1810 C1809 1.366 . S
C1810 C1814 1.385 . S
C1811 H1792 0.951 . S
C1811 C1809 1.388 . S
C1811 C1812 1.366 . S
C1812 C1811 1.366 . S
C1812 C1813 1.414 . S
C1812 C1815 1.499 . S
C1813 H1793 0.950 . S
C1813 C1812 1.414 . S
C1813 C1814 1.374 . S
C1814 H1794 0.950 . S
C1814 C1810 1.385 . S
C1814 C1813 1.374 . S
C1815 C1812 1.499 . S
C1815 C1816 1.373 . S
C1815 C1817 1.389 . S
C1816 H1795 0.950 . S
C1816 C1815 1.373 . S
C1816 C1832 1.377 . S
C1817 C1815 1.389 . S
C1817 C1818 1.524 . S
C1817 C1831 1.377 . S
C1818 C1817 1.524 . S
C1818 C1819 1.397 . S
C1818 C1823 1.363 . S
C1819 H1796 0.950 . S
C1819 C1818 1.397 . S
C1819 C1820 1.334 . S
C1820 H1797 0.950 . S
C1820 C1819 1.334 . S
C1820 C1821 1.287 . S
C1821 C1820 1.287 . S
C1821 C1822 1.524 . S
C1821 H1840 0.913 . S
C1822 H1798 0.950 . S
C1822 C1821 1.524 . S
C1822 C1823 1.415 . S
C1823 H1799 0.950 . S
C1823 C1818 1.363 . S
C1823 C1822 1.415 . S
C1824 H1800 0.951 . S
C1824 C1825 1.366 . S
C1824 C1826 1.388 . S
C1825 C1824 1.366 . S
C1825 C1829 1.385 . S
C1826 H1801 0.951 . S
C1826 C1824 1.388 . S
C1826 C1827 1.366 . S
C1827 C1826 1.366 . S
C1827 C1828 1.414 . S
C1827 C1830 1.499 . S
C1828 H1802 0.950 . S
C1828 C1827 1.414 . S
C1828 C1829 1.374 . S
C1829 H1803 0.950 . S
C1829 C1825 1.385 . S
C1829 C1828 1.374 . S
C1830 C1827 1.499 . S
C1830 C1831 1.373 . S
C1830 C1832 1.389 . S
C1831 H1804 0.950 . S
C1831 C1817 1.377 . S
C1831 C1830 1.373 . S
C1832 C1816 1.377 . S
C1832 C1830 1.389 . S
C1832 C1833 1.524 . S
C1833 C1832 1.524 . S
C1833 C1834 1.397 . S
C1833 C1838 1.363 . S
C1834 H1805 0.950 . S
C1834 C1833 1.397 . S
C1834 C1835 1.334 . S
C1835 H1806 0.950 . S
C1835 C1834 1.334 . S
C1835 C1836 1.287 . S
C1836 C1835 1.287 . S
C1836 C1837 1.524 . S
C1836 H1839 0.999 . S
C1837 H1807 0.950 . S
C1837 C1836 1.524 . S
C1837 C1838 1.415 . S
C1838 H1808 0.950 . S
C1838 C1833 1.363 . S
C1838 C1837 1.415 . S
H1839 C1836 0.999 . S
H1840 C1821 0.913 . S
H1841 C1859 0.951 . S
H1842 C1861 0.951 . S
H1843 C1863 0.950 . S
H1844 C1864 0.950 . S
H1845 C1866 0.950 . S
H1846 C1869 0.950 . S
H1847 C1870 0.950 . S
H1848 C1872 0.950 . S
H1849 C1873 0.950 . S
H1850 C1874 0.951 . S
H1851 C1876 0.951 . S
H1852 C1878 0.950 . S
H1853 C1879 0.950 . S
H1854 C1881 0.950 . S
H1855 C1884 0.950 . S
H1856 C1885 0.950 . S
H1857 C1887 0.950 . S
H1858 C1888 0.950 . S
C1859 H1841 0.951 . S
C1859 C1860 1.366 . S
C1859 C1861 1.388 . S
C1860 C1859 1.366 . S
C1860 C1864 1.385 . S
C1861 H1842 0.951 . S
C1861 C1859 1.388 . S
C1861 C1862 1.366 . S
C1862 C1861 1.366 . S
C1862 C1863 1.414 . S
C1862 C1865 1.499 . S
C1863 H1843 0.950 . S
C1863 C1862 1.414 . S
C1863 C1864 1.374 . S
C1864 H1844 0.950 . S
C1864 C1860 1.385 . S
C1864 C1863 1.374 . S
C1865 C1862 1.499 . S
C1865 C1866 1.373 . S
C1865 C1867 1.389 . S
C1866 H1845 0.950 . S
C1866 C1865 1.373 . S
C1866 C1882 1.377 . S
C1867 C1865 1.389 . S
C1867 C1868 1.524 . S
C1867 C1881 1.377 . S
C1868 C1867 1.524 . S
C1868 C1869 1.397 . S
C1868 C1873 1.363 . S
C1869 H1846 0.950 . S
C1869 C1868 1.397 . S
C1869 C1870 1.334 . S
C1870 H1847 0.950 . S
C1870 C1869 1.334 . S
C1870 C1871 1.287 . S
C1871 C1870 1.287 . S
C1871 C1872 1.524 . S
C1871 H1890 0.913 . S
C1872 H1848 0.950 . S
C1872 C1871 1.524 . S
C1872 C1873 1.415 . S
C1873 H1849 0.950 . S
C1873 C1868 1.363 . S
C1873 C1872 1.415 . S
C1874 H1850 0.951 . S
C1874 C1875 1.366 . S
C1874 C1876 1.388 . S
C1875 C1874 1.366 . S
C1875 C1879 1.385 . S
C1876 H1851 0.951 . S
C1876 C1874 1.388 . S
C1876 C1877 1.366 . S
C1877 C1876 1.366 . S
C1877 C1878 1.414 . S
C1877 C1880 1.499 . S
C1878 H1852 0.950 . S
C1878 C1877 1.414 . S
C1878 C1879 1.374 . S
C1879 H1853 0.950 . S
C1879 C1875 1.385 . S
C1879 C1878 1.374 . S
C1880 C1877 1.499 . S
C1880 C1881 1.373 . S
C1880 C1882 1.389 . S
C1881 H1854 0.950 . S
C1881 C1867 1.377 . S
C1881 C1880 1.373 . S
C1882 C1866 1.377 . S
C1882 C1880 1.389 . S
C1882 C1883 1.524 . S
C1883 C1882 1.524 . S
C1883 C1884 1.397 . S
C1883 C1888 1.363 . S
C1884 H1855 0.950 . S
C1884 C1883 1.397 . S
C1884 C1885 1.334 . S
C1885 H1856 0.950 . S
C1885 C1884 1.334 . S
C1885 C1886 1.287 . S
C1886 C1885 1.287 . S
C1886 C1887 1.524 . S
C1886 H1889 0.999 . S
C1887 H1857 0.950 . S
C1887 C1886 1.524 . S
C1887 C1888 1.415 . S
C1888 H1858 0.950 . S
C1888 C1883 1.363 . S
C1888 C1887 1.415 . S
H1889 C1886 0.999 . S
H1890 C1871 0.913 . S
H1891 C1909 0.951 . S
H1892 C1911 0.951 . S
H1893 C1913 0.950 . S
H1894 C1914 0.950 . S
H1895 C1916 0.950 . S
H1896 C1919 0.950 . S
H1897 C1920 0.950 . S
H1898 C1922 0.950 . S
H1899 C1923 0.950 . S
H1900 C1924 0.951 . S
H1901 C1926 0.951 . S
H1902 C1928 0.950 . S
H1903 C1929 0.950 . S
H1904 C1931 0.950 . S
H1905 C1934 0.950 . S
H1906 C1935 0.950 . S
H1907 C1937 0.950 . S
H1908 C1938 0.950 . S
C1909 H1891 0.951 . S
C1909 C1910 1.366 . S
C1909 C1911 1.388 . S
C1910 C1909 1.366 . S
C1910 C1914 1.385 . S
C1911 H1892 0.951 . S
C1911 C1909 1.388 . S
C1911 C1912 1.366 . S
C1912 C1911 1.366 . S
C1912 C1913 1.414 . S
C1912 C1915 1.499 . S
C1913 H1893 0.950 . S
C1913 C1912 1.414 . S
C1913 C1914 1.374 . S
C1914 H1894 0.950 . S
C1914 C1910 1.385 . S
C1914 C1913 1.374 . S
C1915 C1912 1.499 . S
C1915 C1916 1.373 . S
C1915 C1917 1.389 . S
C1916 H1895 0.950 . S
C1916 C1915 1.373 . S
C1916 C1932 1.377 . S
C1917 C1915 1.389 . S
C1917 C1918 1.524 . S
C1917 C1931 1.377 . S
C1918 C1917 1.524 . S
C1918 C1919 1.397 . S
C1918 C1923 1.363 . S
C1919 H1896 0.950 . S
C1919 C1918 1.397 . S
C1919 C1920 1.334 . S
C1920 H1897 0.950 . S
C1920 C1919 1.334 . S
C1920 C1921 1.287 . S
C1921 C1920 1.287 . S
C1921 C1922 1.524 . S
C1921 H1940 0.913 . S
C1922 H1898 0.950 . S
C1922 C1921 1.524 . S
C1922 C1923 1.415 . S
C1923 H1899 0.950 . S
C1923 C1918 1.363 . S
C1923 C1922 1.415 . S
C1924 H1900 0.951 . S
C1924 C1925 1.366 . S
C1924 C1926 1.388 . S
C1925 C1924 1.366 . S
C1925 C1929 1.385 . S
C1926 H1901 0.951 . S
C1926 C1924 1.388 . S
C1926 C1927 1.366 . S
C1927 C1926 1.366 . S
C1927 C1928 1.414 . S
C1927 C1930 1.499 . S
C1928 H1902 0.950 . S
C1928 C1927 1.414 . S
C1928 C1929 1.374 . S
C1929 H1903 0.950 . S
C1929 C1925 1.385 . S
C1929 C1928 1.374 . S
C1930 C1927 1.499 . S
C1930 C1931 1.373 . S
C1930 C1932 1.389 . S
C1931 H1904 0.950 . S
C1931 C1917 1.377 . S
C1931 C1930 1.373 . S
C1932 C1916 1.377 . S
C1932 C1930 1.389 . S
C1932 C1933 1.524 . S
C1933 C1932 1.524 . S
C1933 C1934 1.397 . S
C1933 C1938 1.363 . S
C1934 H1905 0.950 . S
C1934 C1933 1.397 . S
C1934 C1935 1.334 . S
C1935 H1906 0.950 . S
C1935 C1934 1.334 . S
C1935 C1936 1.287 . S
C1936 C1935 1.287 . S
C1936 C1937 1.524 . S
C1936 H1939 0.999 . S
C1937 H1907 0.950 . S
C1937 C1936 1.524 . S
C1937 C1938 1.415 . S
C1938 H1908 0.950 . S
C1938 C1933 1.363 . S
C1938 C1937 1.415 . S
H1939 C1936 0.999 . S
H1940 C1921 0.913 . S
H1941 C1959 0.951 . S
H1942 C1961 0.951 . S
H1943 C1963 0.950 . S
H1944 C1964 0.950 . S
H1945 C1966 0.950 . S
H1946 C1969 0.950 . S
H1947 C1970 0.949 1_545 S
H1948 C1972 0.950 . S
H1949 C1973 0.950 . S
H1950 C1974 0.951 . S
H1951 C1976 0.951 . S
H1952 C1978 0.950 . S
H1953 C1979 0.950 . S
H1954 C1981 0.950 . S
H1955 C1984 0.950 . S
H1956 C1985 0.950 . S
H1957 C1987 0.950 . S
H1958 C1988 0.950 . S
C1959 H1941 0.951 . S
C1959 C1960 1.366 . S
C1959 C1961 1.388 . S
C1960 C1959 1.366 . S
C1960 C1964 1.385 . S
C1961 H1942 0.951 . S
C1961 C1959 1.388 . S
C1961 C1962 1.366 . S
C1962 C1961 1.366 . S
C1962 C1963 1.414 . S
C1962 C1965 1.499 1_545 S
C1963 H1943 0.950 . S
C1963 C1962 1.414 . S
C1963 C1964 1.374 . S
C1964 H1944 0.950 . S
C1964 C1960 1.385 . S
C1964 C1963 1.374 . S
C1965 C1962 1.499 1_565 S
C1965 C1966 1.373 . S
C1965 C1967 1.389 . S
C1966 H1945 0.950 . S
C1966 C1965 1.373 . S
C1966 C1982 1.377 . S
C1967 C1965 1.389 . S
C1967 C1968 1.524 . S
C1967 C1981 1.377 . S
C1968 C1967 1.524 . S
C1968 C1969 1.397 . S
C1968 C1973 1.363 . S
C1969 H1946 0.950 . S
C1969 C1968 1.397 . S
C1969 C1970 1.334 . S
C1970 H1947 0.949 1_565 S
C1970 C1969 1.334 . S
C1970 C1971 1.287 . S
C1971 C1970 1.287 . S
C1971 C1972 1.524 . S
C1971 H1990 0.913 . S
C1972 H1948 0.950 . S
C1972 C1971 1.524 . S
C1972 C1973 1.415 . S
C1973 H1949 0.950 . S
C1973 C1968 1.363 . S
C1973 C1972 1.415 . S
C1974 H1950 0.951 . S
C1974 C1975 1.366 . S
C1974 C1976 1.388 . S
C1975 C1974 1.366 . S
C1975 C1979 1.385 . S
C1976 H1951 0.951 . S
C1976 C1974 1.388 . S
C1976 C1977 1.366 . S
C1977 C1976 1.366 . S
C1977 C1978 1.414 . S
C1977 C1980 1.499 . S
C1978 H1952 0.950 . S
C1978 C1977 1.414 . S
C1978 C1979 1.374 . S
C1979 H1953 0.950 . S
C1979 C1975 1.385 . S
C1979 C1978 1.374 . S
C1980 C1977 1.499 . S
C1980 C1981 1.373 . S
C1980 C1982 1.389 . S
C1981 H1954 0.950 . S
C1981 C1967 1.377 . S
C1981 C1980 1.373 . S
C1982 C1966 1.377 . S
C1982 C1980 1.389 . S
C1982 C1983 1.524 . S
C1983 C1982 1.524 . S
C1983 C1984 1.397 . S
C1983 C1988 1.363 . S
C1984 H1955 0.950 . S
C1984 C1983 1.397 . S
C1984 C1985 1.334 . S
C1985 H1956 0.950 . S
C1985 C1984 1.334 . S
C1985 C1986 1.287 . S
C1986 C1985 1.287 . S
C1986 C1987 1.524 . S
C1986 H1989 0.999 . S
C1987 H1957 0.950 . S
C1987 C1986 1.524 . S
C1987 C1988 1.415 . S
C1988 H1958 0.950 . S
C1988 C1983 1.363 . S
C1988 C1987 1.415 . S
H1989 C1986 0.999 . S
H1990 C1971 0.913 . S
H1991 C2009 0.951 . S
H1992 C2011 0.951 . S
H1993 C2013 0.950 . S
H1994 C2014 0.950 . S
H1995 C2016 0.950 . S
H1996 C2019 0.950 . S
H1997 C2020 0.950 . S
H1998 C2022 0.950 1_455 S
H1999 C2023 0.950 . S
H2000 C2024 0.951 . S
H2001 C2026 0.951 . S
H2002 C2028 0.950 . S
H2003 C2029 0.950 . S
H2004 C2031 0.950 . S
H2005 C2034 0.950 . S
H2006 C2035 0.950 . S
H2007 C2037 0.950 . S
H2008 C2038 0.950 . S
C2009 H1991 0.951 . S
C2009 C2010 1.366 . S
C2009 C2011 1.388 . S
C2010 C2009 1.366 . S
C2010 C2014 1.385 . S
C2011 H1992 0.951 . S
C2011 C2009 1.388 . S
C2011 C2012 1.366 . S
C2012 C2011 1.366 . S
C2012 C2013 1.414 . S
C2012 C2015 1.499 1_655 S
C2013 H1993 0.950 . S
C2013 C2012 1.414 . S
C2013 C2014 1.374 . S
C2014 H1994 0.950 . S
C2014 C2010 1.385 . S
C2014 C2013 1.374 . S
C2015 C2012 1.499 1_455 S
C2015 C2016 1.373 . S
C2015 C2017 1.389 . S
C2016 H1995 0.950 . S
C2016 C2015 1.373 . S
C2016 C2032 1.377 . S
C2017 C2015 1.389 . S
C2017 C2018 1.524 . S
C2017 C2031 1.377 . S
C2018 C2017 1.524 . S
C2018 C2019 1.397 1_455 S
C2018 C2023 1.363 . S
C2019 H1996 0.950 . S
C2019 C2018 1.397 1_655 S
C2019 C2020 1.334 . S
C2020 H1997 0.950 . S
C2020 C2019 1.334 . S
C2020 C2021 1.287 . S
C2021 C2020 1.287 . S
C2021 C2022 1.525 . S
C2021 H2040 0.913 . S
C2022 H1998 0.950 1_655 S
C2022 C2021 1.525 . S
C2022 C2023 1.413 1_655 S
C2023 H1999 0.950 . S
C2023 C2018 1.363 . S
C2023 C2022 1.413 1_455 S
C2024 H2000 0.951 . S
C2024 C2025 1.366 . S
C2024 C2026 1.388 . S
C2025 C2024 1.366 . S
C2025 C2029 1.385 . S
C2026 H2001 0.951 . S
C2026 C2024 1.388 . S
C2026 C2027 1.366 . S
C2027 C2026 1.366 . S
C2027 C2028 1.414 . S
C2027 C2030 1.499 . S
C2028 H2002 0.950 . S
C2028 C2027 1.414 . S
C2028 C2029 1.374 . S
C2029 H2003 0.950 . S
C2029 C2025 1.385 . S
C2029 C2028 1.374 . S
C2030 C2027 1.499 . S
C2030 C2031 1.373 . S
C2030 C2032 1.389 . S
C2031 H2004 0.950 . S
C2031 C2017 1.377 . S
C2031 C2030 1.373 . S
C2032 C2016 1.377 . S
C2032 C2030 1.389 . S
C2032 C2033 1.524 . S
C2033 C2032 1.524 . S
C2033 C2034 1.397 . S
C2033 C2038 1.363 . S
C2034 H2005 0.950 . S
C2034 C2033 1.397 . S
C2034 C2035 1.334 . S
C2035 H2006 0.950 . S
C2035 C2034 1.334 . S
C2035 C2036 1.287 . S
C2036 C2035 1.287 . S
C2036 C2037 1.524 . S
C2036 H2039 0.999 . S
C2037 H2007 0.950 . S
C2037 C2036 1.524 . S
C2037 C2038 1.415 . S
C2038 H2008 0.950 . S
C2038 C2033 1.363 . S
C2038 C2037 1.415 . S
H2039 C2036 0.999 . S
H2040 C2021 0.913 . S
H2041 C2059 0.951 . S
H2042 C2061 0.951 . S
H2043 C2063 0.950 . S
H2044 C2064 0.950 . S
H2045 C2066 0.950 . S
H2046 C2069 0.950 . S
H2047 C2070 0.950 . S
H2048 C2072 0.950 . S
H2049 C2073 0.950 . S
H2050 C2074 0.951 . S
H2051 C2076 0.951 . S
H2052 C2078 0.950 . S
H2053 C2079 0.950 . S
H2054 C2081 0.950 . S
H2055 C2084 0.950 . S
H2056 C2085 0.950 . S
H2057 C2087 0.950 . S
H2058 C2088 0.950 . S
C2059 H2041 0.951 . S
C2059 C2060 1.366 . S
C2059 C2061 1.388 . S
C2060 C2059 1.366 . S
C2060 C2064 1.385 . S
C2061 H2042 0.951 . S
C2061 C2059 1.388 . S
C2061 C2062 1.366 . S
C2062 C2061 1.366 . S
C2062 C2063 1.414 . S
C2062 C2065 1.499 . S
C2063 H2043 0.950 . S
C2063 C2062 1.414 . S
C2063 C2064 1.374 . S
C2064 H2044 0.950 . S
C2064 C2060 1.385 . S
C2064 C2063 1.374 . S
C2065 C2062 1.499 . S
C2065 C2066 1.373 . S
C2065 C2067 1.389 . S
C2066 H2045 0.950 . S
C2066 C2065 1.373 . S
C2066 C2082 1.377 . S
C2067 C2065 1.389 . S
C2067 C2068 1.524 . S
C2067 C2081 1.377 . S
C2068 C2067 1.524 . S
C2068 C2069 1.397 . S
C2068 C2073 1.363 . S
C2069 H2046 0.950 . S
C2069 C2068 1.397 . S
C2069 C2070 1.334 . S
C2070 H2047 0.950 . S
C2070 C2069 1.334 . S
C2070 C2071 1.287 . S
C2071 C2070 1.287 . S
C2071 C2072 1.524 . S
C2071 H2090 0.913 . S
C2072 H2048 0.950 . S
C2072 C2071 1.524 . S
C2072 C2073 1.415 . S
C2073 H2049 0.950 . S
C2073 C2068 1.363 . S
C2073 C2072 1.415 . S
C2074 H2050 0.951 . S
C2074 C2075 1.366 . S
C2074 C2076 1.388 . S
C2075 C2074 1.366 . S
C2075 C2079 1.385 . S
C2076 H2051 0.951 . S
C2076 C2074 1.388 . S
C2076 C2077 1.366 . S
C2077 C2076 1.366 . S
C2077 C2078 1.414 . S
C2077 C2080 1.499 . S
C2078 H2052 0.950 . S
C2078 C2077 1.414 . S
C2078 C2079 1.374 . S
C2079 H2053 0.950 . S
C2079 C2075 1.385 . S
C2079 C2078 1.374 . S
C2080 C2077 1.499 . S
C2080 C2081 1.373 . S
C2080 C2082 1.389 . S
C2081 H2054 0.950 . S
C2081 C2067 1.377 . S
C2081 C2080 1.373 . S
C2082 C2066 1.377 . S
C2082 C2080 1.389 . S
C2082 C2083 1.524 . S
C2083 C2082 1.524 . S
C2083 C2084 1.397 . S
C2083 C2088 1.363 . S
C2084 H2055 0.950 . S
C2084 C2083 1.397 . S
C2084 C2085 1.334 . S
C2085 H2056 0.950 . S
C2085 C2084 1.334 . S
C2085 C2086 1.287 . S
C2086 C2085 1.287 . S
C2086 C2087 1.524 . S
C2086 H2089 0.999 . S
C2087 H2057 0.950 . S
C2087 C2086 1.524 . S
C2087 C2088 1.415 . S
C2088 H2058 0.950 . S
C2088 C2083 1.363 . S
C2088 C2087 1.415 . S
H2089 C2086 0.999 . S
H2090 C2071 0.913 . S
H2091 C2109 0.951 . S
H2092 C2111 0.951 . S
H2093 C2113 0.950 . S
H2094 C2114 0.950 . S
H2095 C2116 0.950 . S
H2096 C2119 0.950 . S
H2097 C2120 0.950 . S
H2098 C2122 0.950 . S
H2099 C2123 0.950 . S
H2100 C2124 0.951 . S
H2101 C2126 0.951 . S
H2102 C2128 0.950 . S
H2103 C2129 0.950 . S
H2104 C2131 0.950 . S
H2105 C2134 0.950 . S
H2106 C2135 0.950 . S
H2107 C2137 0.950 . S
H2108 C2138 0.950 . S
C2109 H2091 0.951 . S
C2109 C2110 1.366 . S
C2109 C2111 1.388 . S
C2110 C2109 1.366 . S
C2110 C2114 1.385 . S
C2111 H2092 0.951 . S
C2111 C2109 1.388 . S
C2111 C2112 1.366 . S
C2112 C2111 1.366 . S
C2112 C2113 1.414 . S
C2112 C2115 1.499 . S
C2113 H2093 0.950 . S
C2113 C2112 1.414 . S
C2113 C2114 1.374 . S
C2114 H2094 0.950 . S
C2114 C2110 1.385 . S
C2114 C2113 1.374 . S
C2115 C2112 1.499 . S
C2115 C2116 1.373 . S
C2115 C2117 1.389 . S
C2116 H2095 0.950 . S
C2116 C2115 1.373 . S
C2116 C2132 1.377 . S
C2117 C2115 1.389 . S
C2117 C2118 1.524 . S
C2117 C2131 1.377 . S
C2118 C2117 1.524 . S
C2118 C2119 1.397 . S
C2118 C2123 1.363 . S
C2119 H2096 0.950 . S
C2119 C2118 1.397 . S
C2119 C2120 1.334 . S
C2120 H2097 0.950 . S
C2120 C2119 1.334 . S
C2120 C2121 1.287 . S
C2121 C2120 1.287 . S
C2121 C2122 1.524 . S
C2121 H2140 0.913 . S
C2122 H2098 0.950 . S
C2122 C2121 1.524 . S
C2122 C2123 1.415 . S
C2123 H2099 0.950 . S
C2123 C2118 1.363 . S
C2123 C2122 1.415 . S
C2124 H2100 0.951 . S
C2124 C2125 1.366 . S
C2124 C2126 1.388 . S
C2125 C2124 1.366 . S
C2125 C2129 1.385 . S
C2126 H2101 0.951 . S
C2126 C2124 1.388 . S
C2126 C2127 1.366 . S
C2127 C2126 1.366 . S
C2127 C2128 1.414 . S
C2127 C2130 1.499 . S
C2128 H2102 0.950 . S
C2128 C2127 1.414 . S
C2128 C2129 1.374 . S
C2129 H2103 0.950 . S
C2129 C2125 1.385 . S
C2129 C2128 1.374 . S
C2130 C2127 1.499 . S
C2130 C2131 1.373 . S
C2130 C2132 1.389 . S
C2131 H2104 0.950 . S
C2131 C2117 1.377 . S
C2131 C2130 1.373 . S
C2132 C2116 1.377 . S
C2132 C2130 1.389 . S
C2132 C2133 1.524 . S
C2133 C2132 1.524 . S
C2133 C2134 1.397 . S
C2133 C2138 1.363 . S
C2134 H2105 0.950 . S
C2134 C2133 1.397 . S
C2134 C2135 1.334 . S
C2135 H2106 0.950 . S
C2135 C2134 1.334 . S
C2135 C2136 1.287 . S
C2136 C2135 1.287 . S
C2136 C2137 1.524 . S
C2136 H2139 0.999 . S
C2137 H2107 0.950 . S
C2137 C2136 1.524 . S
C2137 C2138 1.415 . S
C2138 H2108 0.950 . S
C2138 C2133 1.363 . S
C2138 C2137 1.415 . S
H2139 C2136 0.999 . S
H2140 C2121 0.913 . S
H2141 C2159 0.951 . S
H2142 C2161 0.951 . S
H2143 C2163 0.950 . S
H2144 C2164 0.950 . S
H2145 C2166 0.950 . S
H2146 C2169 0.950 . S
H2147 C2170 0.950 . S
H2148 C2172 0.950 . S
H2149 C2173 0.950 . S
H2150 C2174 0.951 . S
H2151 C2176 0.951 . S
H2152 C2178 0.950 . S
H2153 C2179 0.950 . S
H2154 C2181 0.950 . S
H2155 C2184 0.950 . S
H2156 C2185 0.950 . S
H2157 C2187 0.950 . S
H2158 C2188 0.950 . S
C2159 H2141 0.951 . S
C2159 C2160 1.366 . S
C2159 C2161 1.388 . S
C2160 C2159 1.366 . S
C2160 C2164 1.385 . S
C2161 H2142 0.951 . S
C2161 C2159 1.388 . S
C2161 C2162 1.366 . S
C2162 C2161 1.366 . S
C2162 C2163 1.414 . S
C2162 C2165 1.499 . S
C2163 H2143 0.950 . S
C2163 C2162 1.414 . S
C2163 C2164 1.374 . S
C2164 H2144 0.950 . S
C2164 C2160 1.385 . S
C2164 C2163 1.374 . S
C2165 C2162 1.499 . S
C2165 C2166 1.373 . S
C2165 C2167 1.389 . S
C2166 H2145 0.950 . S
C2166 C2165 1.373 . S
C2166 C2182 1.377 . S
C2167 C2165 1.389 . S
C2167 C2168 1.524 . S
C2167 C2181 1.377 . S
C2168 C2167 1.524 . S
C2168 C2169 1.397 . S
C2168 C2173 1.363 . S
C2169 H2146 0.950 . S
C2169 C2168 1.397 . S
C2169 C2170 1.334 . S
C2170 H2147 0.950 . S
C2170 C2169 1.334 . S
C2170 C2171 1.287 . S
C2171 C2170 1.287 . S
C2171 C2172 1.524 . S
C2171 H2190 0.913 . S
C2172 H2148 0.950 . S
C2172 C2171 1.524 . S
C2172 C2173 1.415 . S
C2173 H2149 0.950 . S
C2173 C2168 1.363 . S
C2173 C2172 1.415 . S
C2174 H2150 0.951 . S
C2174 C2175 1.366 . S
C2174 C2176 1.388 . S
C2175 C2174 1.366 . S
C2175 C2179 1.385 . S
C2176 H2151 0.951 . S
C2176 C2174 1.388 . S
C2176 C2177 1.366 . S
C2177 C2176 1.366 . S
C2177 C2178 1.414 . S
C2177 C2180 1.499 . S
C2178 H2152 0.950 . S
C2178 C2177 1.414 . S
C2178 C2179 1.374 . S
C2179 H2153 0.950 . S
C2179 C2175 1.385 . S
C2179 C2178 1.374 . S
C2180 C2177 1.499 . S
C2180 C2181 1.373 . S
C2180 C2182 1.389 . S
C2181 H2154 0.950 . S
C2181 C2167 1.377 . S
C2181 C2180 1.373 . S
C2182 C2166 1.377 . S
C2182 C2180 1.389 . S
C2182 C2183 1.524 . S
C2183 C2182 1.524 . S
C2183 C2184 1.397 . S
C2183 C2188 1.363 . S
C2184 H2155 0.950 . S
C2184 C2183 1.397 . S
C2184 C2185 1.334 . S
C2185 H2156 0.950 . S
C2185 C2184 1.334 . S
C2185 C2186 1.287 . S
C2186 C2185 1.287 . S
C2186 C2187 1.524 . S
C2186 H2189 0.999 . S
C2187 H2157 0.950 . S
C2187 C2186 1.524 . S
C2187 C2188 1.415 . S
C2188 H2158 0.950 . S
C2188 C2183 1.363 . S
C2188 C2187 1.415 . S
H2189 C2186 0.999 . S
H2190 C2171 0.913 . S
H2191 C2209 0.951 . S
H2192 C2211 0.951 . S
H2193 C2213 0.950 . S
H2194 C2214 0.950 . S
H2195 C2216 0.950 . S
H2196 C2219 0.950 . S
H2197 C2220 0.950 . S
H2198 C2222 0.950 . S
H2199 C2223 0.950 . S
H2200 C2224 0.951 . S
H2201 C2226 0.951 . S
H2202 C2228 0.950 . S
H2203 C2229 0.950 . S
H2204 C2231 0.950 . S
H2205 C2234 0.950 . S
H2206 C2235 0.950 . S
H2207 C2237 0.950 . S
H2208 C2238 0.950 . S
C2209 H2191 0.951 . S
C2209 C2210 1.366 . S
C2209 C2211 1.388 . S
C2210 C2209 1.366 . S
C2210 C2214 1.385 . S
C2211 H2192 0.951 . S
C2211 C2209 1.388 . S
C2211 C2212 1.366 . S
C2212 C2211 1.366 . S
C2212 C2213 1.414 . S
C2212 C2215 1.499 . S
C2213 H2193 0.950 . S
C2213 C2212 1.414 . S
C2213 C2214 1.374 . S
C2214 H2194 0.950 . S
C2214 C2210 1.385 . S
C2214 C2213 1.374 . S
C2215 C2212 1.499 . S
C2215 C2216 1.373 . S
C2215 C2217 1.389 . S
C2216 H2195 0.950 . S
C2216 C2215 1.373 . S
C2216 C2232 1.377 . S
C2217 C2215 1.389 . S
C2217 C2218 1.524 . S
C2217 C2231 1.377 . S
C2218 C2217 1.524 . S
C2218 C2219 1.397 . S
C2218 C2223 1.363 . S
C2219 H2196 0.950 . S
C2219 C2218 1.397 . S
C2219 C2220 1.334 . S
C2220 H2197 0.950 . S
C2220 C2219 1.334 . S
C2220 C2221 1.287 . S
C2221 C2220 1.287 . S
C2221 C2222 1.524 . S
C2221 H2240 0.913 . S
C2222 H2198 0.950 . S
C2222 C2221 1.524 . S
C2222 C2223 1.415 . S
C2223 H2199 0.950 . S
C2223 C2218 1.363 . S
C2223 C2222 1.415 . S
C2224 H2200 0.951 . S
C2224 C2225 1.366 . S
C2224 C2226 1.388 . S
C2225 C2224 1.366 . S
C2225 C2229 1.385 . S
C2226 H2201 0.951 . S
C2226 C2224 1.388 . S
C2226 C2227 1.366 . S
C2227 C2226 1.366 . S
C2227 C2228 1.414 . S
C2227 C2230 1.499 . S
C2228 H2202 0.950 . S
C2228 C2227 1.414 . S
C2228 C2229 1.374 . S
C2229 H2203 0.950 . S
C2229 C2225 1.385 . S
C2229 C2228 1.374 . S
C2230 C2227 1.499 . S
C2230 C2231 1.373 . S
C2230 C2232 1.389 . S
C2231 H2204 0.950 . S
C2231 C2217 1.377 . S
C2231 C2230 1.373 . S
C2232 C2216 1.377 . S
C2232 C2230 1.389 . S
C2232 C2233 1.524 . S
C2233 C2232 1.524 . S
C2233 C2234 1.397 . S
C2233 C2238 1.363 . S
C2234 H2205 0.950 . S
C2234 C2233 1.397 . S
C2234 C2235 1.334 . S
C2235 H2206 0.950 . S
C2235 C2234 1.334 . S
C2235 C2236 1.287 . S
C2236 C2235 1.287 . S
C2236 C2237 1.524 . S
C2236 H2239 0.999 . S
C2237 H2207 0.950 . S
C2237 C2236 1.524 . S
C2237 C2238 1.415 . S
C2238 H2208 0.950 . S
C2238 C2233 1.363 . S
C2238 C2237 1.415 . S
H2239 C2236 0.999 . S
H2240 C2221 0.913 . S
H2241 C2259 0.951 . S
H2242 C2261 0.951 . S
H2243 C2263 0.950 . S
H2244 C2264 0.950 . S
H2245 C2266 0.950 . S
H2246 C2269 0.950 . S
H2247 C2270 0.953 . S
H2248 C2272 0.950 . S
H2249 C2273 0.950 . S
H2250 C2274 0.951 . S
H2251 C2276 0.951 . S
H2252 C2278 0.950 . S
H2253 C2279 0.950 . S
H2254 C2281 0.950 . S
H2255 C2284 0.950 . S
H2256 C2285 0.950 . S
H2257 C2287 0.950 . S
H2258 C2288 0.950 . S
C2259 H2241 0.951 . S
C2259 C2260 1.366 . S
C2259 C2261 1.388 . S
C2260 C2259 1.366 . S
C2260 C2264 1.385 . S
C2261 H2242 0.951 . S
C2261 C2259 1.388 . S
C2261 C2262 1.366 . S
C2262 C2261 1.366 . S
C2262 C2263 1.414 . S
C2262 C2265 1.499 1_565 S
C2263 H2243 0.950 . S
C2263 C2262 1.414 . S
C2263 C2264 1.374 . S
C2264 H2244 0.950 . S
C2264 C2260 1.385 . S
C2264 C2263 1.374 . S
C2265 C2262 1.499 1_545 S
C2265 C2266 1.373 . S
C2265 C2267 1.389 . S
C2266 H2245 0.950 . S
C2266 C2265 1.373 . S
C2266 C2282 1.377 . S
C2267 C2265 1.389 . S
C2267 C2268 1.524 . S
C2267 C2281 1.377 . S
C2268 C2267 1.524 . S
C2268 C2269 1.397 . S
C2268 C2273 1.363 . S
C2269 H2246 0.950 . S
C2269 C2268 1.397 . S
C2269 C2270 1.337 1_545 S
C2270 H2247 0.953 . S
C2270 C2269 1.337 1_565 S
C2270 C2271 1.281 1_565 S
C2271 C2270 1.281 1_545 S
C2271 C2272 1.524 . S
C2271 H2290 0.913 1_545 S
C2272 H2248 0.950 . S
C2272 C2271 1.524 . S
C2272 C2273 1.415 . S
C2273 H2249 0.950 . S
C2273 C2268 1.363 . S
C2273 C2272 1.415 . S
C2274 H2250 0.951 . S
C2274 C2275 1.366 . S
C2274 C2276 1.388 . S
C2275 C2274 1.366 . S
C2275 C2279 1.385 . S
C2276 H2251 0.951 . S
C2276 C2274 1.388 . S
C2276 C2277 1.366 . S
C2277 C2276 1.366 . S
C2277 C2278 1.414 . S
C2277 C2280 1.499 . S
C2278 H2252 0.950 . S
C2278 C2277 1.414 . S
C2278 C2279 1.374 . S
C2279 H2253 0.950 . S
C2279 C2275 1.385 . S
C2279 C2278 1.374 . S
C2280 C2277 1.499 . S
C2280 C2281 1.373 . S
C2280 C2282 1.389 . S
C2281 H2254 0.950 . S
C2281 C2267 1.377 . S
C2281 C2280 1.373 . S
C2282 C2266 1.377 . S
C2282 C2280 1.389 . S
C2282 C2283 1.524 . S
C2283 C2282 1.524 . S
C2283 C2284 1.397 . S
C2283 C2288 1.363 . S
C2284 H2255 0.950 . S
C2284 C2283 1.397 . S
C2284 C2285 1.334 . S
C2285 H2256 0.950 . S
C2285 C2284 1.334 . S
C2285 C2286 1.287 . S
C2286 C2285 1.287 . S
C2286 C2287 1.524 . S
C2286 H2289 0.999 . S
C2287 H2257 0.950 . S
C2287 C2286 1.524 . S
C2287 C2288 1.415 . S
C2288 H2258 0.950 . S
C2288 C2283 1.363 . S
C2288 C2287 1.415 . S
H2289 C2286 0.999 . S
H2290 C2271 0.913 1_565 S
H2291 C2309 0.951 . S
H2292 C2311 0.951 . S
H2293 C2313 0.950 . S
H2294 C2314 0.950 . S
H2295 C2316 0.950 . S
H2296 C2319 0.953 . S
H2297 C2320 0.951 1_455 S
H2298 C2322 0.950 . S
H2299 C2323 0.950 . S
H2300 C2324 0.951 . S
H2301 C2326 0.951 . S
H2302 C2328 0.950 . S
H2303 C2329 0.950 . S
H2304 C2331 0.950 . S
H2305 C2334 0.950 . S
H2306 C2335 0.950 . S
H2307 C2337 0.950 . S
H2308 C2338 0.950 . S
C2309 H2291 0.951 . S
C2309 C2310 1.366 . S
C2309 C2311 1.388 . S
C2310 C2309 1.366 . S
C2310 C2314 1.385 . S
C2311 H2292 0.951 . S
C2311 C2309 1.388 . S
C2311 C2312 1.366 . S
C2312 C2311 1.366 . S
C2312 C2313 1.414 . S
C2312 C2315 1.499 1_455 S
C2313 H2293 0.950 . S
C2313 C2312 1.414 . S
C2313 C2314 1.374 . S
C2314 H2294 0.950 . S
C2314 C2310 1.385 . S
C2314 C2313 1.374 . S
C2315 C2312 1.499 1_655 S
C2315 C2316 1.373 . S
C2315 C2317 1.389 . S
C2316 H2295 0.950 . S
C2316 C2315 1.373 . S
C2316 C2332 1.377 . S
C2317 C2315 1.389 . S
C2317 C2318 1.524 . S
C2317 C2331 1.377 . S
C2318 C2317 1.524 . S
C2318 C2319 1.397 . S
C2318 C2323 1.363 . S
C2319 H2296 0.953 . S
C2319 C2318 1.397 . S
C2319 C2320 1.334 . S
C2320 H2297 0.951 1_655 S
C2320 C2319 1.334 . S
C2320 C2321 1.287 . S
C2321 C2320 1.287 . S
C2321 C2322 1.524 . S
C2321 H2340 0.913 . S
C2322 H2298 0.950 . S
C2322 C2321 1.524 . S
C2322 C2323 1.415 . S
C2323 H2299 0.950 . S
C2323 C2318 1.363 . S
C2323 C2322 1.415 . S
C2324 H2300 0.951 . S
C2324 C2325 1.366 . S
C2324 C2326 1.388 . S
C2325 C2324 1.366 . S
C2325 C2329 1.385 . S
C2326 H2301 0.951 . S
C2326 C2324 1.388 . S
C2326 C2327 1.366 . S
C2327 C2326 1.366 . S
C2327 C2328 1.414 . S
C2327 C2330 1.499 . S
C2328 H2302 0.950 . S
C2328 C2327 1.414 . S
C2328 C2329 1.374 . S
C2329 H2303 0.950 . S
C2329 C2325 1.385 . S
C2329 C2328 1.374 . S
C2330 C2327 1.499 . S
C2330 C2331 1.373 . S
C2330 C2332 1.389 . S
C2331 H2304 0.950 . S
C2331 C2317 1.377 . S
C2331 C2330 1.373 . S
C2332 C2316 1.377 . S
C2332 C2330 1.389 . S
C2332 C2333 1.524 . S
C2333 C2332 1.524 . S
C2333 C2334 1.397 . S
C2333 C2338 1.363 . S
C2334 H2305 0.950 . S
C2334 C2333 1.397 . S
C2334 C2335 1.334 . S
C2335 H2306 0.950 . S
C2335 C2334 1.334 . S
C2335 C2336 1.287 . S
C2336 C2335 1.287 . S
C2336 C2337 1.524 . S
C2336 H2339 0.999 . S
C2337 H2307 0.950 . S
C2337 C2336 1.524 . S
C2337 C2338 1.415 . S
C2338 H2308 0.950 . S
C2338 C2333 1.363 . S
C2338 C2337 1.415 . S
H2339 C2336 0.999 . S
H2340 C2321 0.913 . S
H2341 C2359 0.951 . S
H2342 C2361 0.951 . S
H2343 C2363 0.950 . S
H2344 C2364 0.950 . S
H2345 C2366 0.950 . S
H2346 C2369 0.950 . S
H2347 C2370 0.950 . S
H2348 C2372 0.950 . S
H2349 C2373 0.950 . S
H2350 C2374 0.951 . S
H2351 C2376 0.951 . S
H2352 C2378 0.950 . S
H2353 C2379 0.950 . S
H2354 C2381 0.950 . S
H2355 C2384 0.950 . S
H2356 C2385 0.950 . S
H2357 C2387 0.950 . S
H2358 C2388 0.950 . S
C2359 H2341 0.951 . S
C2359 C2360 1.366 . S
C2359 C2361 1.388 . S
C2360 C2359 1.366 . S
C2360 C2364 1.385 . S
C2361 H2342 0.951 . S
C2361 C2359 1.388 . S
C2361 C2362 1.366 . S
C2362 C2361 1.366 . S
C2362 C2363 1.414 . S
C2362 C2365 1.499 . S
C2363 H2343 0.950 . S
C2363 C2362 1.414 . S
C2363 C2364 1.374 . S
C2364 H2344 0.950 . S
C2364 C2360 1.385 . S
C2364 C2363 1.374 . S
C2365 C2362 1.499 . S
C2365 C2366 1.373 . S
C2365 C2367 1.389 . S
C2366 H2345 0.950 . S
C2366 C2365 1.373 . S
C2366 C2382 1.377 . S
C2367 C2365 1.389 . S
C2367 C2368 1.524 . S
C2367 C2381 1.377 . S
C2368 C2367 1.524 . S
C2368 C2369 1.397 . S
C2368 C2373 1.363 . S
C2369 H2346 0.950 . S
C2369 C2368 1.397 . S
C2369 C2370 1.334 . S
C2370 H2347 0.950 . S
C2370 C2369 1.334 . S
C2370 C2371 1.287 . S
C2371 C2370 1.287 . S
C2371 C2372 1.524 . S
C2371 H2390 0.913 . S
C2372 H2348 0.950 . S
C2372 C2371 1.524 . S
C2372 C2373 1.415 . S
C2373 H2349 0.950 . S
C2373 C2368 1.363 . S
C2373 C2372 1.415 . S
C2374 H2350 0.951 . S
C2374 C2375 1.366 . S
C2374 C2376 1.388 . S
C2375 C2374 1.366 . S
C2375 C2379 1.385 . S
C2376 H2351 0.951 . S
C2376 C2374 1.388 . S
C2376 C2377 1.366 . S
C2377 C2376 1.366 . S
C2377 C2378 1.414 . S
C2377 C2380 1.499 . S
C2378 H2352 0.950 . S
C2378 C2377 1.414 . S
C2378 C2379 1.374 . S
C2379 H2353 0.950 . S
C2379 C2375 1.385 . S
C2379 C2378 1.374 . S
C2380 C2377 1.499 . S
C2380 C2381 1.373 . S
C2380 C2382 1.389 . S
C2381 H2354 0.950 . S
C2381 C2367 1.377 . S
C2381 C2380 1.373 . S
C2382 C2366 1.377 . S
C2382 C2380 1.389 . S
C2382 C2383 1.524 . S
C2383 C2382 1.524 . S
C2383 C2384 1.397 . S
C2383 C2388 1.363 . S
C2384 H2355 0.950 . S
C2384 C2383 1.397 . S
C2384 C2385 1.334 . S
C2385 H2356 0.950 . S
C2385 C2384 1.334 . S
C2385 C2386 1.287 . S
C2386 C2385 1.287 . S
C2386 C2387 1.524 . S
C2386 H2389 0.999 . S
C2387 H2357 0.950 . S
C2387 C2386 1.524 . S
C2387 C2388 1.415 . S
C2388 H2358 0.950 . S
C2388 C2383 1.363 . S
C2388 C2387 1.415 . S
H2389 C2386 0.999 . S
H2390 C2371 0.913 . S
H2391 C2409 0.951 . S
H2392 C2411 0.951 . S
H2393 C2413 0.950 . S
H2394 C2414 0.950 . S
H2395 C2416 0.950 . S
H2396 C2419 0.950 . S
H2397 C2420 0.950 . S
H2398 C2422 0.950 . S
H2399 C2423 0.950 . S
H2400 C2424 0.951 . S
H2401 C2426 0.951 . S
H2402 C2428 0.950 . S
H2403 C2429 0.950 . S
H2404 C2431 0.950 . S
H2405 C2434 0.950 . S
H2406 C2435 0.950 . S
H2407 C2437 0.950 . S
H2408 C2438 0.950 . S
C2409 H2391 0.951 . S
C2409 C2410 1.366 . S
C2409 C2411 1.388 . S
C2410 C2409 1.366 . S
C2410 C2414 1.385 . S
C2411 H2392 0.951 . S
C2411 C2409 1.388 . S
C2411 C2412 1.366 . S
C2412 C2411 1.366 . S
C2412 C2413 1.414 . S
C2412 C2415 1.499 1_455 S
C2413 H2393 0.950 . S
C2413 C2412 1.414 . S
C2413 C2414 1.374 . S
C2414 H2394 0.950 . S
C2414 C2410 1.385 . S
C2414 C2413 1.374 . S
C2415 C2412 1.499 1_655 S
C2415 C2416 1.373 . S
C2415 C2417 1.389 . S
C2416 H2395 0.950 . S
C2416 C2415 1.373 . S
C2416 C2432 1.377 . S
C2417 C2415 1.389 . S
C2417 C2418 1.524 . S
C2417 C2431 1.377 . S
C2418 C2417 1.524 . S
C2418 C2419 1.397 1_655 S
C2418 C2423 1.363 . S
C2419 H2396 0.950 . S
C2419 C2418 1.397 1_455 S
C2419 C2420 1.334 . S
C2420 H2397 0.950 . S
C2420 C2419 1.334 . S
C2420 C2421 1.287 . S
C2421 C2420 1.287 . S
C2421 C2422 1.524 1_455 S
C2421 H2440 0.913 . S
C2422 H2398 0.950 . S
C2422 C2421 1.524 1_655 S
C2422 C2423 1.415 . S
C2423 H2399 0.950 . S
C2423 C2418 1.363 . S
C2423 C2422 1.415 . S
C2424 H2400 0.951 . S
C2424 C2425 1.366 . S
C2424 C2426 1.388 . S
C2425 C2424 1.366 . S
C2425 C2429 1.385 . S
C2426 H2401 0.951 . S
C2426 C2424 1.388 . S
C2426 C2427 1.366 . S
C2427 C2426 1.366 . S
C2427 C2428 1.414 . S
C2427 C2430 1.499 . S
C2428 H2402 0.950 . S
C2428 C2427 1.414 . S
C2428 C2429 1.374 . S
C2429 H2403 0.950 . S
C2429 C2425 1.385 . S
C2429 C2428 1.374 . S
C2430 C2427 1.499 . S
C2430 C2431 1.373 . S
C2430 C2432 1.389 . S
C2431 H2404 0.950 . S
C2431 C2417 1.377 . S
C2431 C2430 1.373 . S
C2432 C2416 1.377 . S
C2432 C2430 1.389 . S
C2432 C2433 1.524 . S
C2433 C2432 1.524 . S
C2433 C2434 1.397 . S
C2433 C2438 1.363 . S
C2434 H2405 0.950 . S
C2434 C2433 1.397 . S
C2434 C2435 1.334 . S
C2435 H2406 0.950 . S
C2435 C2434 1.334 . S
C2435 C2436 1.287 . S
C2436 C2435 1.287 . S
C2436 C2437 1.524 . S
C2436 H2439 0.999 . S
C2437 H2407 0.950 . S
C2437 C2436 1.524 . S
C2437 C2438 1.415 . S
C2438 H2408 0.950 . S
C2438 C2433 1.363 . S
C2438 C2437 1.415 . S
H2439 C2436 0.999 . S
H2440 C2421 0.913 . S
H2441 C2459 0.951 . S
H2442 C2461 0.951 . S
H2443 C2463 0.950 . S
H2444 C2464 0.950 . S
H2445 C2466 0.950 . S
H2446 C2469 0.950 . S
H2447 C2470 0.950 . S
H2448 C2472 0.950 . S
H2449 C2473 0.950 . S
H2450 C2474 0.951 . S
H2451 C2476 0.951 . S
H2452 C2478 0.950 . S
H2453 C2479 0.950 . S
H2454 C2481 0.950 . S
H2455 C2484 0.950 . S
H2456 C2485 0.950 . S
H2457 C2487 0.950 . S
H2458 C2488 0.950 . S
C2459 H2441 0.951 . S
C2459 C2460 1.366 . S
C2459 C2461 1.388 . S
C2460 C2459 1.366 . S
C2460 C2464 1.385 . S
C2461 H2442 0.951 . S
C2461 C2459 1.388 . S
C2461 C2462 1.366 . S
C2462 C2461 1.366 . S
C2462 C2463 1.414 . S
C2462 C2465 1.499 . S
C2463 H2443 0.950 . S
C2463 C2462 1.414 . S
C2463 C2464 1.374 . S
C2464 H2444 0.950 . S
C2464 C2460 1.385 . S
C2464 C2463 1.374 . S
C2465 C2462 1.499 . S
C2465 C2466 1.373 . S
C2465 C2467 1.389 . S
C2466 H2445 0.950 . S
C2466 C2465 1.373 . S
C2466 C2482 1.377 . S
C2467 C2465 1.389 . S
C2467 C2468 1.524 . S
C2467 C2481 1.377 . S
C2468 C2467 1.524 . S
C2468 C2469 1.397 . S
C2468 C2473 1.363 . S
C2469 H2446 0.950 . S
C2469 C2468 1.397 . S
C2469 C2470 1.334 . S
C2470 H2447 0.950 . S
C2470 C2469 1.334 . S
C2470 C2471 1.287 . S
C2471 C2470 1.287 . S
C2471 C2472 1.524 . S
C2471 H2490 0.913 . S
C2472 H2448 0.950 . S
C2472 C2471 1.524 . S
C2472 C2473 1.415 . S
C2473 H2449 0.950 . S
C2473 C2468 1.363 . S
C2473 C2472 1.415 . S
C2474 H2450 0.951 . S
C2474 C2475 1.366 . S
C2474 C2476 1.388 . S
C2475 C2474 1.366 . S
C2475 C2479 1.385 . S
C2476 H2451 0.951 . S
C2476 C2474 1.388 . S
C2476 C2477 1.366 . S
C2477 C2476 1.366 . S
C2477 C2478 1.414 . S
C2477 C2480 1.499 . S
C2478 H2452 0.950 . S
C2478 C2477 1.414 . S
C2478 C2479 1.374 . S
C2479 H2453 0.950 . S
C2479 C2475 1.385 . S
C2479 C2478 1.374 . S
C2480 C2477 1.499 . S
C2480 C2481 1.373 . S
C2480 C2482 1.389 . S
C2481 H2454 0.950 . S
C2481 C2467 1.377 . S
C2481 C2480 1.373 . S
C2482 C2466 1.377 . S
C2482 C2480 1.389 . S
C2482 C2483 1.524 . S
C2483 C2482 1.524 . S
C2483 C2484 1.397 . S
C2483 C2488 1.363 . S
C2484 H2455 0.950 . S
C2484 C2483 1.397 . S
C2484 C2485 1.334 . S
C2485 H2456 0.950 . S
C2485 C2484 1.334 . S
C2485 C2486 1.287 . S
C2486 C2485 1.287 . S
C2486 C2487 1.524 . S
C2486 H2489 0.999 . S
C2487 H2457 0.950 . S
C2487 C2486 1.524 . S
C2487 C2488 1.415 . S
C2488 H2458 0.950 . S
C2488 C2483 1.363 . S
C2488 C2487 1.415 . S
H2489 C2486 0.999 . S
H2490 C2471 0.913 . S
H2491 C2509 0.951 . S
H2492 C2511 0.951 . S
H2493 C2513 0.950 . S
H2494 C2514 0.950 . S
H2495 C2516 0.950 . S
H2496 C2519 0.950 . S
H2497 C2520 0.948 . S
H2498 C2522 0.950 . S
H2499 C2523 0.950 . S
H2500 C2524 0.951 . S
H2501 C2526 0.951 . S
H2502 C2528 0.950 . S
H2503 C2529 0.950 . S
H2504 C2531 0.950 . S
H2505 C2534 0.950 . S
H2506 C2535 0.950 . S
H2507 C2537 0.950 . S
H2508 C2538 0.950 . S
C2509 H2491 0.951 . S
C2509 C2510 1.366 . S
C2509 C2511 1.388 . S
C2510 C2509 1.366 . S
C2510 C2514 1.385 . S
C2511 H2492 0.951 . S
C2511 C2509 1.388 . S
C2511 C2512 1.366 . S
C2512 C2511 1.366 . S
C2512 C2513 1.414 . S
C2512 C2515 1.499 1_565 S
C2513 H2493 0.950 . S
C2513 C2512 1.414 . S
C2513 C2514 1.374 . S
C2514 H2494 0.950 . S
C2514 C2510 1.385 . S
C2514 C2513 1.374 . S
C2515 C2512 1.499 1_545 S
C2515 C2516 1.373 . S
C2515 C2517 1.389 . S
C2516 H2495 0.950 . S
C2516 C2515 1.373 . S
C2516 C2532 1.377 . S
C2517 C2515 1.389 . S
C2517 C2518 1.524 . S
C2517 C2531 1.377 . S
C2518 C2517 1.524 . S
C2518 C2519 1.397 . S
C2518 C2523 1.363 . S
C2519 H2496 0.950 . S
C2519 C2518 1.397 . S
C2519 C2520 1.334 . S
C2520 H2497 0.948 . S
C2520 C2519 1.334 . S
C2520 C2521 1.287 . S
C2521 C2520 1.287 . S
C2521 C2522 1.524 . S
C2521 H2540 0.913 . S
C2522 H2498 0.950 . S
C2522 C2521 1.524 . S
C2522 C2523 1.415 . S
C2523 H2499 0.950 . S
C2523 C2518 1.363 . S
C2523 C2522 1.415 . S
C2524 H2500 0.951 . S
C2524 C2525 1.366 . S
C2524 C2526 1.388 . S
C2525 C2524 1.366 . S
C2525 C2529 1.385 . S
C2526 H2501 0.951 . S
C2526 C2524 1.388 . S
C2526 C2527 1.366 . S
C2527 C2526 1.366 . S
C2527 C2528 1.414 . S
C2527 C2530 1.499 . S
C2528 H2502 0.950 . S
C2528 C2527 1.414 . S
C2528 C2529 1.374 . S
C2529 H2503 0.950 . S
C2529 C2525 1.385 . S
C2529 C2528 1.374 . S
C2530 C2527 1.499 . S
C2530 C2531 1.373 . S
C2530 C2532 1.389 . S
C2531 H2504 0.950 . S
C2531 C2517 1.377 . S
C2531 C2530 1.373 . S
C2532 C2516 1.377 . S
C2532 C2530 1.389 . S
C2532 C2533 1.524 . S
C2533 C2532 1.524 . S
C2533 C2534 1.397 . S
C2533 C2538 1.363 . S
C2534 H2505 0.950 . S
C2534 C2533 1.397 . S
C2534 C2535 1.334 . S
C2535 H2506 0.950 . S
C2535 C2534 1.334 . S
C2535 C2536 1.287 . S
C2536 C2535 1.287 . S
C2536 C2537 1.524 . S
C2536 H2539 0.999 . S
C2537 H2507 0.950 . S
C2537 C2536 1.524 . S
C2537 C2538 1.415 . S
C2538 H2508 0.950 . S
C2538 C2533 1.363 . S
C2538 C2537 1.415 . S
H2539 C2536 0.999 . S
H2540 C2521 0.913 . S
H2541 C2559 0.951 . S
H2542 C2561 0.951 . S
H2543 C2563 0.950 . S
H2544 C2564 0.950 . S
H2545 C2566 0.950 . S
H2546 C2569 0.950 . S
H2547 C2570 0.950 . S
H2548 C2572 0.950 . S
H2549 C2573 0.950 . S
H2550 C2574 0.951 . S
H2551 C2576 0.951 . S
H2552 C2578 0.950 . S
H2553 C2579 0.950 . S
H2554 C2581 0.950 . S
H2555 C2584 0.950 . S
H2556 C2585 0.950 . S
H2557 C2587 0.950 . S
H2558 C2588 0.950 . S
C2559 H2541 0.951 . S
C2559 C2560 1.366 . S
C2559 C2561 1.388 . S
C2560 C2559 1.366 . S
C2560 C2564 1.385 . S
C2561 H2542 0.951 . S
C2561 C2559 1.388 . S
C2561 C2562 1.366 . S
C2562 C2561 1.366 . S
C2562 C2563 1.414 . S
C2562 C2565 1.499 . S
C2563 H2543 0.950 . S
C2563 C2562 1.414 . S
C2563 C2564 1.374 . S
C2564 H2544 0.950 . S
C2564 C2560 1.385 . S
C2564 C2563 1.374 . S
C2565 C2562 1.499 . S
C2565 C2566 1.373 . S
C2565 C2567 1.389 . S
C2566 H2545 0.950 . S
C2566 C2565 1.373 . S
C2566 C2582 1.377 . S
C2567 C2565 1.389 . S
C2567 C2568 1.524 . S
C2567 C2581 1.377 . S
C2568 C2567 1.524 . S
C2568 C2569 1.397 . S
C2568 C2573 1.363 . S
C2569 H2546 0.950 . S
C2569 C2568 1.397 . S
C2569 C2570 1.334 . S
C2570 H2547 0.950 . S
C2570 C2569 1.334 . S
C2570 C2571 1.287 . S
C2571 C2570 1.287 . S
C2571 C2572 1.524 . S
C2571 H2590 0.913 . S
C2572 H2548 0.950 . S
C2572 C2571 1.524 . S
C2572 C2573 1.415 . S
C2573 H2549 0.950 . S
C2573 C2568 1.363 . S
C2573 C2572 1.415 . S
C2574 H2550 0.951 . S
C2574 C2575 1.366 . S
C2574 C2576 1.388 . S
C2575 C2574 1.366 . S
C2575 C2579 1.385 . S
C2576 H2551 0.951 . S
C2576 C2574 1.388 . S
C2576 C2577 1.366 . S
C2577 C2576 1.366 . S
C2577 C2578 1.414 . S
C2577 C2580 1.499 . S
C2578 H2552 0.950 . S
C2578 C2577 1.414 . S
C2578 C2579 1.374 . S
C2579 H2553 0.950 . S
C2579 C2575 1.385 . S
C2579 C2578 1.374 . S
C2580 C2577 1.499 . S
C2580 C2581 1.373 . S
C2580 C2582 1.389 . S
C2581 H2554 0.950 . S
C2581 C2567 1.377 . S
C2581 C2580 1.373 . S
C2582 C2566 1.377 . S
C2582 C2580 1.389 . S
C2582 C2583 1.524 . S
C2583 C2582 1.524 . S
C2583 C2584 1.397 . S
C2583 C2588 1.363 . S
C2584 H2555 0.950 . S
C2584 C2583 1.397 . S
C2584 C2585 1.334 . S
C2585 H2556 0.950 . S
C2585 C2584 1.334 . S
C2585 C2586 1.287 . S
C2586 C2585 1.287 . S
C2586 C2587 1.524 . S
C2586 H2589 0.999 . S
C2587 H2557 0.950 . S
C2587 C2586 1.524 . S
C2587 C2588 1.415 . S
C2588 H2558 0.950 . S
C2588 C2583 1.363 . S
C2588 C2587 1.415 . S
H2589 C2586 0.999 . S
H2590 C2571 0.913 . S
H2591 C2609 0.951 . S
H2592 C2611 0.951 . S
H2593 C2613 0.950 . S
H2594 C2614 0.950 . S
H2595 C2616 0.950 . S
H2596 C2619 0.950 . S
H2597 C2620 0.950 . S
H2598 C2622 0.950 . S
H2599 C2623 0.950 . S
H2600 C2624 0.951 . S
H2601 C2626 0.951 . S
H2602 C2628 0.950 . S
H2603 C2629 0.950 . S
H2604 C2631 0.950 . S
H2605 C2634 0.950 . S
H2606 C2635 0.950 . S
H2607 C2637 0.950 . S
H2608 C2638 0.950 . S
C2609 H2591 0.951 . S
C2609 C2610 1.366 . S
C2609 C2611 1.388 . S
C2610 C2609 1.366 . S
C2610 C2614 1.385 . S
C2611 H2592 0.951 . S
C2611 C2609 1.388 . S
C2611 C2612 1.366 . S
C2612 C2611 1.366 . S
C2612 C2613 1.414 . S
C2612 C2615 1.499 . S
C2613 H2593 0.950 . S
C2613 C2612 1.414 . S
C2613 C2614 1.374 . S
C2614 H2594 0.950 . S
C2614 C2610 1.385 . S
C2614 C2613 1.374 . S
C2615 C2612 1.499 . S
C2615 C2616 1.373 . S
C2615 C2617 1.389 . S
C2616 H2595 0.950 . S
C2616 C2615 1.373 . S
C2616 C2632 1.377 . S
C2617 C2615 1.389 . S
C2617 C2618 1.524 . S
C2617 C2631 1.377 . S
C2618 C2617 1.524 . S
C2618 C2619 1.397 . S
C2618 C2623 1.363 . S
C2619 H2596 0.950 . S
C2619 C2618 1.397 . S
C2619 C2620 1.334 . S
C2620 H2597 0.950 . S
C2620 C2619 1.334 . S
C2620 C2621 1.287 . S
C2621 C2620 1.287 . S
C2621 C2622 1.524 . S
C2621 H2640 0.913 . S
C2622 H2598 0.950 . S
C2622 C2621 1.524 . S
C2622 C2623 1.415 . S
C2623 H2599 0.950 . S
C2623 C2618 1.363 . S
C2623 C2622 1.415 . S
C2624 H2600 0.951 . S
C2624 C2625 1.366 . S
C2624 C2626 1.388 . S
C2625 C2624 1.366 . S
C2625 C2629 1.385 . S
C2626 H2601 0.951 . S
C2626 C2624 1.388 . S
C2626 C2627 1.366 . S
C2627 C2626 1.366 . S
C2627 C2628 1.414 . S
C2627 C2630 1.499 . S
C2628 H2602 0.950 . S
C2628 C2627 1.414 . S
C2628 C2629 1.374 . S
C2629 H2603 0.950 . S
C2629 C2625 1.385 . S
C2629 C2628 1.374 . S
C2630 C2627 1.499 . S
C2630 C2631 1.373 . S
C2630 C2632 1.389 . S
C2631 H2604 0.950 . S
C2631 C2617 1.377 . S
C2631 C2630 1.373 . S
C2632 C2616 1.377 . S
C2632 C2630 1.389 . S
C2632 C2633 1.524 . S
C2633 C2632 1.524 . S
C2633 C2634 1.397 . S
C2633 C2638 1.363 . S
C2634 H2605 0.950 . S
C2634 C2633 1.397 . S
C2634 C2635 1.334 . S
C2635 H2606 0.950 . S
C2635 C2634 1.334 . S
C2635 C2636 1.287 . S
C2636 C2635 1.287 . S
C2636 C2637 1.524 . S
C2636 H2639 0.999 . S
C2637 H2607 0.950 . S
C2637 C2636 1.524 . S
C2637 C2638 1.415 . S
C2638 H2608 0.950 . S
C2638 C2633 1.363 . S
C2638 C2637 1.415 . S
H2639 C2636 0.999 . S
H2640 C2621 0.913 . S
H2641 C2659 0.951 . S
H2642 C2661 0.951 . S
H2643 C2663 0.950 . S
H2644 C2664 0.950 . S
H2645 C2666 0.950 . S
H2646 C2669 0.950 . S
H2647 C2670 0.950 . S
H2648 C2672 0.950 . S
H2649 C2673 0.950 . S
H2650 C2674 0.951 . S
H2651 C2676 0.951 . S
H2652 C2678 0.950 . S
H2653 C2679 0.950 . S
H2654 C2681 0.950 . S
H2655 C2684 0.950 . S
H2656 C2685 0.950 . S
H2657 C2687 0.950 . S
H2658 C2688 0.950 . S
C2659 H2641 0.951 . S
C2659 C2660 1.366 . S
C2659 C2661 1.388 . S
C2660 C2659 1.366 . S
C2660 C2664 1.385 . S
C2661 H2642 0.951 . S
C2661 C2659 1.388 . S
C2661 C2662 1.366 . S
C2662 C2661 1.366 . S
C2662 C2663 1.414 . S
C2662 C2665 1.499 . S
C2663 H2643 0.950 . S
C2663 C2662 1.414 . S
C2663 C2664 1.374 . S
C2664 H2644 0.950 . S
C2664 C2660 1.385 . S
C2664 C2663 1.374 . S
C2665 C2662 1.499 . S
C2665 C2666 1.373 . S
C2665 C2667 1.389 . S
C2666 H2645 0.950 . S
C2666 C2665 1.373 . S
C2666 C2682 1.377 . S
C2667 C2665 1.389 . S
C2667 C2668 1.524 . S
C2667 C2681 1.377 . S
C2668 C2667 1.524 . S
C2668 C2669 1.397 . S
C2668 C2673 1.363 . S
C2669 H2646 0.950 . S
C2669 C2668 1.397 . S
C2669 C2670 1.334 . S
C2670 H2647 0.950 . S
C2670 C2669 1.334 . S
C2670 C2671 1.287 . S
C2671 C2670 1.287 . S
C2671 C2672 1.524 . S
C2671 H2690 0.913 . S
C2672 H2648 0.950 . S
C2672 C2671 1.524 . S
C2672 C2673 1.415 . S
C2673 H2649 0.950 . S
C2673 C2668 1.363 . S
C2673 C2672 1.415 . S
C2674 H2650 0.951 . S
C2674 C2675 1.366 . S
C2674 C2676 1.388 . S
C2675 C2674 1.366 . S
C2675 C2679 1.385 . S
C2676 H2651 0.951 . S
C2676 C2674 1.388 . S
C2676 C2677 1.366 . S
C2677 C2676 1.366 . S
C2677 C2678 1.414 . S
C2677 C2680 1.499 . S
C2678 H2652 0.950 . S
C2678 C2677 1.414 . S
C2678 C2679 1.374 . S
C2679 H2653 0.950 . S
C2679 C2675 1.385 . S
C2679 C2678 1.374 . S
C2680 C2677 1.499 . S
C2680 C2681 1.373 . S
C2680 C2682 1.389 . S
C2681 H2654 0.950 . S
C2681 C2667 1.377 . S
C2681 C2680 1.373 . S
C2682 C2666 1.377 . S
C2682 C2680 1.389 . S
C2682 C2683 1.524 . S
C2683 C2682 1.524 . S
C2683 C2684 1.397 . S
C2683 C2688 1.363 . S
C2684 H2655 0.950 . S
C2684 C2683 1.397 . S
C2684 C2685 1.334 . S
C2685 H2656 0.950 . S
C2685 C2684 1.334 . S
C2685 C2686 1.287 . S
C2686 C2685 1.287 . S
C2686 C2687 1.524 . S
C2686 H2689 0.999 . S
C2687 H2657 0.950 . S
C2687 C2686 1.524 . S
C2687 C2688 1.415 . S
C2688 H2658 0.950 . S
C2688 C2683 1.363 . S
C2688 C2687 1.415 . S
H2689 C2686 0.999 . S
H2690 C2671 0.913 . S
H2691 C2709 0.951 . S
H2692 C2711 0.951 . S
H2693 C2713 0.950 . S
H2694 C2714 0.950 . S
H2695 C2716 0.950 . S
H2696 C2719 0.950 . S
H2697 C2720 0.950 . S
H2698 C2722 0.950 . S
H2699 C2723 0.950 . S
H2700 C2724 0.951 . S
H2701 C2726 0.951 . S
H2702 C2728 0.950 . S
H2703 C2729 0.950 . S
H2704 C2731 0.950 . S
H2705 C2734 0.950 . S
H2706 C2735 0.950 . S
H2707 C2737 0.950 . S
H2708 C2738 0.950 . S
C2709 H2691 0.951 . S
C2709 C2710 1.366 . S
C2709 C2711 1.388 . S
C2710 C2709 1.366 . S
C2710 C2714 1.385 . S
C2711 H2692 0.951 . S
C2711 C2709 1.388 . S
C2711 C2712 1.366 . S
C2712 C2711 1.366 . S
C2712 C2713 1.414 . S
C2712 C2715 1.499 . S
C2713 H2693 0.950 . S
C2713 C2712 1.414 . S
C2713 C2714 1.374 . S
C2714 H2694 0.950 . S
C2714 C2710 1.385 . S
C2714 C2713 1.374 . S
C2715 C2712 1.499 . S
C2715 C2716 1.373 . S
C2715 C2717 1.389 . S
C2716 H2695 0.950 . S
C2716 C2715 1.373 . S
C2716 C2732 1.377 . S
C2717 C2715 1.389 . S
C2717 C2718 1.524 . S
C2717 C2731 1.377 . S
C2718 C2717 1.524 . S
C2718 C2719 1.397 . S
C2718 C2723 1.363 . S
C2719 H2696 0.950 . S
C2719 C2718 1.397 . S
C2719 C2720 1.334 . S
C2720 H2697 0.950 . S
C2720 C2719 1.334 . S
C2720 C2721 1.287 . S
C2721 C2720 1.287 . S
C2721 C2722 1.524 . S
C2721 H2740 0.913 . S
C2722 H2698 0.950 . S
C2722 C2721 1.524 . S
C2722 C2723 1.415 . S
C2723 H2699 0.950 . S
C2723 C2718 1.363 . S
C2723 C2722 1.415 . S
C2724 H2700 0.951 . S
C2724 C2725 1.351 1_565 S
C2724 C2726 1.388 . S
C2725 C2724 1.351 1_545 S
C2725 C2729 1.396 . S
C2726 H2701 0.951 . S
C2726 C2724 1.388 . S
C2726 C2727 1.366 . S
C2727 C2726 1.366 . S
C2727 C2728 1.414 1_565 S
C2727 C2730 1.499 . S
C2728 H2702 0.950 . S
C2728 C2727 1.414 1_545 S
C2728 C2729 1.374 . S
C2729 H2703 0.950 . S
C2729 C2725 1.396 . S
C2729 C2728 1.374 . S
C2730 C2727 1.499 . S
C2730 C2731 1.373 . S
C2730 C2732 1.389 . S
C2731 H2704 0.950 . S
C2731 C2717 1.377 . S
C2731 C2730 1.373 . S
C2732 C2716 1.377 . S
C2732 C2730 1.389 . S
C2732 C2733 1.524 1_565 S
C2733 C2732 1.524 1_545 S
C2733 C2734 1.397 . S
C2733 C2738 1.363 1_545 S
C2734 H2705 0.950 . S
C2734 C2733 1.397 . S
C2734 C2735 1.334 . S
C2735 H2706 0.950 . S
C2735 C2734 1.334 . S
C2735 C2736 1.287 . S
C2736 C2735 1.287 . S
C2736 C2737 1.524 . S
C2736 H2739 0.999 . S
C2737 H2707 0.950 . S
C2737 C2736 1.524 . S
C2737 C2738 1.415 1_545 S
C2738 H2708 0.950 . S
C2738 C2733 1.363 1_565 S
C2738 C2737 1.415 1_565 S
H2739 C2736 0.999 . S
H2740 C2721 0.913 . S
H2741 C2759 0.951 . S
H2742 C2761 0.951 . S
H2743 C2763 0.950 . S
H2744 C2764 0.950 . S
H2745 C2766 0.950 . S
H2746 C2769 0.950 . S
H2747 C2770 0.950 . S
H2748 C2772 0.947 . S
H2749 C2773 0.902 1_655 S
H2750 C2774 0.951 . S
H2751 C2776 0.951 . S
H2752 C2778 0.950 . S
H2753 C2779 0.950 . S
H2754 C2781 0.950 . S
H2755 C2784 0.950 1_655 S
H2756 C2785 0.950 1_655 S
H2757 C2787 0.950 . S
H2758 C2788 0.950 . S
C2759 H2741 0.951 . S
C2759 C2760 1.366 . S
C2759 C2761 1.388 . S
C2760 C2759 1.366 . S
C2760 C2764 1.385 . S
C2761 H2742 0.951 . S
C2761 C2759 1.388 . S
C2761 C2762 1.366 . S
C2762 C2761 1.366 . S
C2762 C2763 1.414 . S
C2762 C2765 1.499 . S
C2763 H2743 0.950 . S
C2763 C2762 1.414 . S
C2763 C2764 1.374 . S
C2764 H2744 0.950 . S
C2764 C2760 1.385 . S
C2764 C2763 1.374 . S
C2765 C2762 1.499 . S
C2765 C2766 1.373 . S
C2765 C2767 1.389 . S
C2766 H2745 0.950 . S
C2766 C2765 1.373 . S
C2766 C2782 1.377 . S
C2767 C2765 1.389 . S
C2767 C2768 1.524 . S
C2767 C2781 1.377 . S
C2768 C2767 1.524 . S
C2768 C2769 1.397 . S
C2768 C2773 1.388 . S
C2769 H2746 0.950 . S
C2769 C2768 1.397 . S
C2769 C2770 1.334 . S
C2770 H2747 0.950 . S
C2770 C2769 1.334 . S
C2770 C2771 1.287 . S
C2771 C2770 1.287 . S
C2771 C2772 1.530 1_455 S
C2771 H2790 0.913 . S
C2772 H2748 0.947 . S
C2772 C2771 1.530 1_655 S
C2772 C2773 1.437 1_655 S
C2773 H2749 0.902 1_455 S
C2773 C2768 1.388 . S
C2773 C2772 1.437 1_455 S
C2774 H2750 0.951 . S
C2774 C2775 1.366 . S
C2774 C2776 1.388 . S
C2775 C2774 1.366 . S
C2775 C2779 1.385 1_455 S
C2776 H2751 0.951 . S
C2776 C2774 1.388 . S
C2776 C2777 1.366 . S
C2777 C2776 1.366 . S
C2777 C2778 1.414 1_455 S
C2777 C2780 1.499 . S
C2778 H2752 0.950 . S
C2778 C2777 1.414 1_655 S
C2778 C2779 1.374 . S
C2779 H2753 0.950 . S
C2779 C2775 1.385 1_655 S
C2779 C2778 1.374 . S
C2780 C2777 1.499 . S
C2780 C2781 1.373 . S
C2780 C2782 1.389 . S
C2781 H2754 0.950 . S
C2781 C2767 1.377 . S
C2781 C2780 1.373 . S
C2782 C2766 1.377 . S
C2782 C2780 1.389 . S
C2782 C2783 1.524 . S
C2783 C2782 1.524 . S
C2783 C2784 1.397 . S
C2783 C2788 1.363 . S
C2784 H2755 0.950 1_455 S
C2784 C2783 1.397 . S
C2784 C2785 1.334 . S
C2785 H2756 0.950 1_455 S
C2785 C2784 1.334 . S
C2785 C2786 1.287 . S
C2786 C2785 1.287 . S
C2786 C2787 1.524 . S
C2786 H2789 0.999 . S
C2787 H2757 0.950 . S
C2787 C2786 1.524 . S
C2787 C2788 1.415 . S
C2788 H2758 0.950 . S
C2788 C2783 1.363 . S
C2788 C2787 1.415 . S
H2789 C2786 0.999 . S
H2790 C2771 0.913 . S
H2791 C2809 0.951 . S
H2792 C2811 0.951 . S
H2793 C2813 0.950 . S
H2794 C2814 0.950 . S
H2795 C2816 0.950 . S
H2796 C2819 0.950 . S
H2797 C2820 0.950 . S
H2798 C2822 0.950 . S
H2799 C2823 0.950 . S
H2800 C2824 0.951 . S
H2801 C2826 0.951 . S
H2802 C2828 0.950 . S
H2803 C2829 0.950 . S
H2804 C2831 0.950 . S
H2805 C2834 0.950 . S
H2806 C2835 0.950 . S
H2807 C2837 0.950 . S
H2808 C2838 0.950 . S
C2809 H2791 0.951 . S
C2809 C2810 1.366 . S
C2809 C2811 1.388 . S
C2810 C2809 1.366 . S
C2810 C2814 1.385 . S
C2811 H2792 0.951 . S
C2811 C2809 1.388 . S
C2811 C2812 1.366 . S
C2812 C2811 1.366 . S
C2812 C2813 1.414 . S
C2812 C2815 1.499 . S
C2813 H2793 0.950 . S
C2813 C2812 1.414 . S
C2813 C2814 1.374 . S
C2814 H2794 0.950 . S
C2814 C2810 1.385 . S
C2814 C2813 1.374 . S
C2815 C2812 1.499 . S
C2815 C2816 1.373 . S
C2815 C2817 1.389 . S
C2816 H2795 0.950 . S
C2816 C2815 1.373 . S
C2816 C2832 1.377 . S
C2817 C2815 1.389 . S
C2817 C2818 1.524 . S
C2817 C2831 1.377 . S
C2818 C2817 1.524 . S
C2818 C2819 1.397 . S
C2818 C2823 1.363 . S
C2819 H2796 0.950 . S
C2819 C2818 1.397 . S
C2819 C2820 1.334 . S
C2820 H2797 0.950 . S
C2820 C2819 1.334 . S
C2820 C2821 1.287 . S
C2821 C2820 1.287 . S
C2821 C2822 1.524 . S
C2821 H2840 0.913 . S
C2822 H2798 0.950 . S
C2822 C2821 1.524 . S
C2822 C2823 1.415 . S
C2823 H2799 0.950 . S
C2823 C2818 1.363 . S
C2823 C2822 1.415 . S
C2824 H2800 0.951 . S
C2824 C2825 1.366 . S
C2824 C2826 1.388 . S
C2825 C2824 1.366 . S
C2825 C2829 1.385 . S
C2826 H2801 0.951 . S
C2826 C2824 1.388 . S
C2826 C2827 1.366 . S
C2827 C2826 1.366 . S
C2827 C2828 1.414 . S
C2827 C2830 1.499 . S
C2828 H2802 0.950 . S
C2828 C2827 1.414 . S
C2828 C2829 1.374 . S
C2829 H2803 0.950 . S
C2829 C2825 1.385 . S
C2829 C2828 1.374 . S
C2830 C2827 1.499 . S
C2830 C2831 1.373 . S
C2830 C2832 1.389 . S
C2831 H2804 0.950 . S
C2831 C2817 1.377 . S
C2831 C2830 1.373 . S
C2832 C2816 1.377 . S
C2832 C2830 1.389 . S
C2832 C2833 1.524 . S
C2833 C2832 1.524 . S
C2833 C2834 1.397 . S
C2833 C2838 1.363 . S
C2834 H2805 0.950 . S
C2834 C2833 1.397 . S
C2834 C2835 1.334 . S
C2835 H2806 0.950 . S
C2835 C2834 1.334 . S
C2835 C2836 1.287 . S
C2836 C2835 1.287 . S
C2836 C2837 1.524 . S
C2836 H2839 0.999 . S
C2837 H2807 0.950 . S
C2837 C2836 1.524 . S
C2837 C2838 1.415 . S
C2838 H2808 0.950 . S
C2838 C2833 1.363 . S
C2838 C2837 1.415 . S
H2839 C2836 0.999 . S
H2840 C2821 0.913 . S
H2841 C2859 0.951 . S
H2842 C2861 0.951 . S
H2843 C2863 0.950 . S
H2844 C2864 0.950 . S
H2845 C2866 0.950 . S
H2846 C2869 0.950 . S
H2847 C2870 0.950 . S
H2848 C2872 0.950 . S
H2849 C2873 0.950 . S
H2850 C2874 0.951 . S
H2851 C2876 0.951 . S
H2852 C2878 0.950 . S
H2853 C2879 0.950 . S
H2854 C2881 0.950 . S
H2855 C2884 0.950 . S
H2856 C2885 0.950 . S
H2857 C2887 0.950 . S
H2858 C2888 0.950 . S
C2859 H2841 0.951 . S
C2859 C2860 1.366 . S
C2859 C2861 1.388 . S
C2860 C2859 1.366 . S
C2860 C2864 1.385 . S
C2861 H2842 0.951 . S
C2861 C2859 1.388 . S
C2861 C2862 1.366 . S
C2862 C2861 1.366 . S
C2862 C2863 1.414 . S
C2862 C2865 1.499 . S
C2863 H2843 0.950 . S
C2863 C2862 1.414 . S
C2863 C2864 1.374 . S
C2864 H2844 0.950 . S
C2864 C2860 1.385 . S
C2864 C2863 1.374 . S
C2865 C2862 1.499 . S
C2865 C2866 1.373 . S
C2865 C2867 1.389 . S
C2866 H2845 0.950 . S
C2866 C2865 1.373 . S
C2866 C2882 1.377 . S
C2867 C2865 1.389 . S
C2867 C2868 1.524 . S
C2867 C2881 1.377 . S
C2868 C2867 1.524 . S
C2868 C2869 1.397 . S
C2868 C2873 1.363 . S
C2869 H2846 0.950 . S
C2869 C2868 1.397 . S
C2869 C2870 1.334 . S
C2870 H2847 0.950 . S
C2870 C2869 1.334 . S
C2870 C2871 1.287 . S
C2871 C2870 1.287 . S
C2871 C2872 1.524 . S
C2871 H2890 0.913 . S
C2872 H2848 0.950 . S
C2872 C2871 1.524 . S
C2872 C2873 1.415 . S
C2873 H2849 0.950 . S
C2873 C2868 1.363 . S
C2873 C2872 1.415 . S
C2874 H2850 0.951 . S
C2874 C2875 1.366 1_455 S
C2874 C2876 1.388 . S
C2875 C2874 1.366 1_655 S
C2875 C2879 1.385 . S
C2876 H2851 0.951 . S
C2876 C2874 1.388 . S
C2876 C2877 1.366 1_455 S
C2877 C2876 1.366 1_655 S
C2877 C2878 1.414 . S
C2877 C2880 1.499 . S
C2878 H2852 0.950 . S
C2878 C2877 1.414 . S
C2878 C2879 1.374 . S
C2879 H2853 0.950 . S
C2879 C2875 1.385 . S
C2879 C2878 1.374 . S
C2880 C2877 1.499 . S
C2880 C2881 1.373 . S
C2880 C2882 1.389 . S
C2881 H2854 0.950 . S
C2881 C2867 1.377 . S
C2881 C2880 1.373 . S
C2882 C2866 1.377 . S
C2882 C2880 1.389 . S
C2882 C2883 1.524 . S
C2883 C2882 1.524 . S
C2883 C2884 1.397 . S
C2883 C2888 1.363 1_655 S
C2884 H2855 0.950 . S
C2884 C2883 1.397 . S
C2884 C2885 1.334 . S
C2885 H2856 0.950 . S
C2885 C2884 1.334 . S
C2885 C2886 1.287 . S
C2886 C2885 1.287 . S
C2886 C2887 1.524 1_655 S
C2886 H2889 0.999 . S
C2887 H2857 0.950 . S
C2887 C2886 1.524 1_455 S
C2887 C2888 1.415 . S
C2888 H2858 0.950 . S
C2888 C2883 1.363 1_455 S
C2888 C2887 1.415 . S
H2889 C2886 0.999 . S
H2890 C2871 0.913 . S
H2891 C2909 0.951 . S
H2892 C2911 0.951 . S
H2893 C2913 0.950 . S
H2894 C2914 0.950 . S
H2895 C2916 0.950 . S
H2896 C2919 0.950 . S
H2897 C2920 0.950 . S
H2898 C2922 0.950 . S
H2899 C2923 0.950 . S
H2900 C2924 0.951 . S
H2901 C2926 0.951 . S
H2902 C2928 0.950 . S
H2903 C2929 0.950 . S
H2904 C2931 0.950 . S
H2905 C2934 0.950 . S
H2906 C2935 0.950 . S
H2907 C2937 0.950 . S
H2908 C2938 0.950 . S
C2909 H2891 0.951 . S
C2909 C2910 1.366 . S
C2909 C2911 1.388 . S
C2910 C2909 1.366 . S
C2910 C2914 1.385 . S
C2911 H2892 0.951 . S
C2911 C2909 1.388 . S
C2911 C2912 1.366 . S
C2912 C2911 1.366 . S
C2912 C2913 1.414 . S
C2912 C2915 1.499 . S
C2913 H2893 0.950 . S
C2913 C2912 1.414 . S
C2913 C2914 1.374 . S
C2914 H2894 0.950 . S
C2914 C2910 1.385 . S
C2914 C2913 1.374 . S
C2915 C2912 1.499 . S
C2915 C2916 1.373 . S
C2915 C2917 1.389 . S
C2916 H2895 0.950 . S
C2916 C2915 1.373 . S
C2916 C2932 1.377 . S
C2917 C2915 1.389 . S
C2917 C2918 1.524 . S
C2917 C2931 1.377 . S
C2918 C2917 1.524 . S
C2918 C2919 1.397 . S
C2918 C2923 1.363 . S
C2919 H2896 0.950 . S
C2919 C2918 1.397 . S
C2919 C2920 1.334 . S
C2920 H2897 0.950 . S
C2920 C2919 1.334 . S
C2920 C2921 1.287 . S
C2921 C2920 1.287 . S
C2921 C2922 1.524 . S
C2921 H2940 0.913 . S
C2922 H2898 0.950 . S
C2922 C2921 1.524 . S
C2922 C2923 1.415 . S
C2923 H2899 0.950 . S
C2923 C2918 1.363 . S
C2923 C2922 1.415 . S
C2924 H2900 0.951 . S
C2924 C2925 1.366 . S
C2924 C2926 1.388 . S
C2925 C2924 1.366 . S
C2925 C2929 1.385 . S
C2926 H2901 0.951 . S
C2926 C2924 1.388 . S
C2926 C2927 1.366 . S
C2927 C2926 1.366 . S
C2927 C2928 1.414 . S
C2927 C2930 1.499 . S
C2928 H2902 0.950 . S
C2928 C2927 1.414 . S
C2928 C2929 1.374 . S
C2929 H2903 0.950 . S
C2929 C2925 1.385 . S
C2929 C2928 1.374 . S
C2930 C2927 1.499 . S
C2930 C2931 1.373 . S
C2930 C2932 1.389 . S
C2931 H2904 0.950 . S
C2931 C2917 1.377 . S
C2931 C2930 1.373 . S
C2932 C2916 1.377 . S
C2932 C2930 1.389 . S
C2932 C2933 1.524 . S
C2933 C2932 1.524 . S
C2933 C2934 1.397 . S
C2933 C2938 1.363 . S
C2934 H2905 0.950 . S
C2934 C2933 1.397 . S
C2934 C2935 1.334 . S
C2935 H2906 0.950 . S
C2935 C2934 1.334 . S
C2935 C2936 1.287 . S
C2936 C2935 1.287 . S
C2936 C2937 1.524 . S
C2936 H2939 0.999 . S
C2937 H2907 0.950 . S
C2937 C2936 1.524 . S
C2937 C2938 1.415 . S
C2938 H2908 0.950 . S
C2938 C2933 1.363 . S
C2938 C2937 1.415 . S
H2939 C2936 0.999 . S
H2940 C2921 0.913 . S
H2941 C2959 0.951 . S
H2942 C2961 0.951 . S
H2943 C2963 0.950 . S
H2944 C2964 0.950 . S
H2945 C2966 0.950 . S
H2946 C2969 0.950 . S
H2947 C2970 0.950 . S
H2948 C2972 0.950 1_565 S
H2949 C2973 0.950 1_565 S
H2950 C2974 0.951 . S
H2951 C2976 0.951 . S
H2952 C2978 0.950 . S
H2953 C2979 0.950 . S
H2954 C2981 0.950 . S
H2955 C2984 0.950 1_565 S
H2956 C2985 0.950 1_565 S
H2957 C2987 0.950 . S
H2958 C2988 0.950 . S
C2959 H2941 0.951 . S
C2959 C2960 1.366 . S
C2959 C2961 1.388 . S
C2960 C2959 1.366 . S
C2960 C2964 1.385 . S
C2961 H2942 0.951 . S
C2961 C2959 1.388 . S
C2961 C2962 1.366 . S
C2962 C2961 1.366 . S
C2962 C2963 1.414 . S
C2962 C2965 1.499 . S
C2963 H2943 0.950 . S
C2963 C2962 1.414 . S
C2963 C2964 1.374 . S
C2964 H2944 0.950 . S
C2964 C2960 1.385 . S
C2964 C2963 1.374 . S
C2965 C2962 1.499 . S
C2965 C2966 1.373 . S
C2965 C2967 1.389 . S
C2966 H2945 0.950 . S
C2966 C2965 1.373 . S
C2966 C2982 1.377 . S
C2967 C2965 1.389 . S
C2967 C2968 1.524 . S
C2967 C2981 1.377 . S
C2968 C2967 1.524 . S
C2968 C2969 1.397 . S
C2968 C2973 1.363 . S
C2969 H2946 0.950 . S
C2969 C2968 1.397 . S
C2969 C2970 1.334 . S
C2970 H2947 0.950 . S
C2970 C2969 1.334 . S
C2970 C2971 1.287 . S
C2971 C2970 1.287 . S
C2971 C2972 1.524 . S
C2971 H2990 0.913 . S
C2972 H2948 0.950 1_545 S
C2972 C2971 1.524 . S
C2972 C2973 1.415 . S
C2973 H2949 0.950 1_545 S
C2973 C2968 1.363 . S
C2973 C2972 1.415 . S
C2974 H2950 0.951 . S
C2974 C2975 1.366 . S
C2974 C2976 1.388 . S
C2975 C2974 1.366 . S
C2975 C2979 1.385 1_545 S
C2976 H2951 0.951 . S
C2976 C2974 1.388 . S
C2976 C2977 1.366 . S
C2977 C2976 1.366 . S
C2977 C2978 1.414 1_545 S
C2977 C2980 1.499 . S
C2978 H2952 0.950 . S
C2978 C2977 1.414 1_565 S
C2978 C2979 1.374 . S
C2979 H2953 0.950 . S
C2979 C2975 1.385 1_565 S
C2979 C2978 1.374 . S
C2980 C2977 1.499 . S
C2980 C2981 1.373 . S
C2980 C2982 1.389 . S
C2981 H2954 0.950 . S
C2981 C2967 1.377 . S
C2981 C2980 1.373 . S
C2982 C2966 1.377 . S
C2982 C2980 1.389 . S
C2982 C2983 1.524 . S
C2983 C2982 1.524 . S
C2983 C2984 1.397 . S
C2983 C2988 1.363 . S
C2984 H2955 0.950 1_545 S
C2984 C2983 1.397 . S
C2984 C2985 1.334 . S
C2985 H2956 0.950 1_545 S
C2985 C2984 1.334 . S
C2985 C2986 1.287 . S
C2986 C2985 1.287 . S
C2986 C2987 1.524 . S
C2986 H2989 0.999 . S
C2987 H2957 0.950 . S
C2987 C2986 1.524 . S
C2987 C2988 1.415 . S
C2988 H2958 0.950 . S
C2988 C2983 1.363 . S
C2988 C2987 1.415 . S
H2989 C2986 0.999 . S
H2990 C2971 0.913 . S
H2991 C3009 0.951 . S
H2992 C3011 0.951 . S
H2993 C3013 0.950 . S
H2994 C3014 0.950 . S
H2995 C3016 0.950 . S
H2996 C3019 0.950 . S
H2997 C3020 0.950 . S
H2998 C3022 0.950 . S
H2999 C3023 0.950 . S
H3000 C3024 0.951 . S
H3001 C3026 0.951 . S
H3002 C3028 0.950 . S
H3003 C3029 0.950 . S
H3004 C3031 0.950 . S
H3005 C3034 0.950 . S
H3006 C3035 0.950 . S
H3007 C3037 0.950 . S
H3008 C3038 0.950 . S
C3009 H2991 0.951 . S
C3009 C3010 1.366 . S
C3009 C3011 1.388 . S
C3010 C3009 1.366 . S
C3010 C3014 1.385 . S
C3011 H2992 0.951 . S
C3011 C3009 1.388 . S
C3011 C3012 1.366 . S
C3012 C3011 1.366 . S
C3012 C3013 1.414 . S
C3012 C3015 1.499 . S
C3013 H2993 0.950 . S
C3013 C3012 1.414 . S
C3013 C3014 1.374 . S
C3014 H2994 0.950 . S
C3014 C3010 1.385 . S
C3014 C3013 1.374 . S
C3015 C3012 1.499 . S
C3015 C3016 1.373 . S
C3015 C3017 1.389 . S
C3016 H2995 0.950 . S
C3016 C3015 1.373 . S
C3016 C3032 1.377 . S
C3017 C3015 1.389 . S
C3017 C3018 1.524 . S
C3017 C3031 1.377 . S
C3018 C3017 1.524 . S
C3018 C3019 1.397 . S
C3018 C3023 1.363 . S
C3019 H2996 0.950 . S
C3019 C3018 1.397 . S
C3019 C3020 1.334 . S
C3020 H2997 0.950 . S
C3020 C3019 1.334 . S
C3020 C3021 1.287 . S
C3021 C3020 1.287 . S
C3021 C3022 1.524 . S
C3021 H3040 0.913 . S
C3022 H2998 0.950 . S
C3022 C3021 1.524 . S
C3022 C3023 1.415 . S
C3023 H2999 0.950 . S
C3023 C3018 1.363 . S
C3023 C3022 1.415 . S
C3024 H3000 0.951 . S
C3024 C3025 1.366 . S
C3024 C3026 1.388 . S
C3025 C3024 1.366 . S
C3025 C3029 1.385 . S
C3026 H3001 0.951 . S
C3026 C3024 1.388 . S
C3026 C3027 1.366 . S
C3027 C3026 1.366 . S
C3027 C3028 1.414 . S
C3027 C3030 1.499 . S
C3028 H3002 0.950 . S
C3028 C3027 1.414 . S
C3028 C3029 1.374 . S
C3029 H3003 0.950 . S
C3029 C3025 1.385 . S
C3029 C3028 1.374 . S
C3030 C3027 1.499 . S
C3030 C3031 1.373 . S
C3030 C3032 1.389 . S
C3031 H3004 0.950 . S
C3031 C3017 1.377 . S
C3031 C3030 1.373 . S
C3032 C3016 1.377 . S
C3032 C3030 1.389 . S
C3032 C3033 1.524 . S
C3033 C3032 1.524 . S
C3033 C3034 1.397 . S
C3033 C3038 1.363 . S
C3034 H3005 0.950 . S
C3034 C3033 1.397 . S
C3034 C3035 1.334 . S
C3035 H3006 0.950 . S
C3035 C3034 1.334 . S
C3035 C3036 1.287 . S
C3036 C3035 1.287 . S
C3036 C3037 1.524 . S
C3036 H3039 0.999 . S
C3037 H3007 0.950 . S
C3037 C3036 1.524 . S
C3037 C3038 1.415 . S
C3038 H3008 0.950 . S
C3038 C3033 1.363 . S
C3038 C3037 1.415 . S
H3039 C3036 0.999 . S
H3040 C3021 0.913 . S
H3041 C3059 0.951 . S
H3042 C3061 0.951 . S
H3043 C3063 0.950 . S
H3044 C3064 0.950 . S
H3045 C3066 0.950 . S
H3046 C3069 0.950 . S
H3047 C3070 0.950 . S
H3048 C3072 0.950 . S
H3049 C3073 0.950 . S
H3050 C3074 0.951 . S
H3051 C3076 0.951 . S
H3052 C3078 0.950 . S
H3053 C3079 0.950 . S
H3054 C3081 0.950 . S
H3055 C3084 0.950 . S
H3056 C3085 0.950 . S
H3057 C3087 0.950 . S
H3058 C3088 0.950 . S
C3059 H3041 0.951 . S
C3059 C3060 1.366 . S
C3059 C3061 1.388 . S
C3060 C3059 1.366 . S
C3060 C3064 1.385 . S
C3061 H3042 0.951 . S
C3061 C3059 1.388 . S
C3061 C3062 1.366 . S
C3062 C3061 1.366 . S
C3062 C3063 1.414 . S
C3062 C3065 1.499 . S
C3063 H3043 0.950 . S
C3063 C3062 1.414 . S
C3063 C3064 1.374 . S
C3064 H3044 0.950 . S
C3064 C3060 1.385 . S
C3064 C3063 1.374 . S
C3065 C3062 1.499 . S
C3065 C3066 1.373 . S
C3065 C3067 1.389 . S
C3066 H3045 0.950 . S
C3066 C3065 1.373 . S
C3066 C3082 1.377 . S
C3067 C3065 1.389 . S
C3067 C3068 1.524 . S
C3067 C3081 1.377 . S
C3068 C3067 1.524 . S
C3068 C3069 1.397 . S
C3068 C3073 1.363 . S
C3069 H3046 0.950 . S
C3069 C3068 1.397 . S
C3069 C3070 1.334 . S
C3070 H3047 0.950 . S
C3070 C3069 1.334 . S
C3070 C3071 1.287 . S
C3071 C3070 1.287 . S
C3071 C3072 1.524 . S
C3071 H3090 0.913 . S
C3072 H3048 0.950 . S
C3072 C3071 1.524 . S
C3072 C3073 1.415 . S
C3073 H3049 0.950 . S
C3073 C3068 1.363 . S
C3073 C3072 1.415 . S
C3074 H3050 0.951 . S
C3074 C3075 1.366 . S
C3074 C3076 1.388 . S
C3075 C3074 1.366 . S
C3075 C3079 1.385 . S
C3076 H3051 0.951 . S
C3076 C3074 1.388 . S
C3076 C3077 1.366 . S
C3077 C3076 1.366 . S
C3077 C3078 1.414 . S
C3077 C3080 1.499 . S
C3078 H3052 0.950 . S
C3078 C3077 1.414 . S
C3078 C3079 1.374 . S
C3079 H3053 0.950 . S
C3079 C3075 1.385 . S
C3079 C3078 1.374 . S
C3080 C3077 1.499 . S
C3080 C3081 1.373 . S
C3080 C3082 1.389 . S
C3081 H3054 0.950 . S
C3081 C3067 1.377 . S
C3081 C3080 1.373 . S
C3082 C3066 1.377 . S
C3082 C3080 1.389 . S
C3082 C3083 1.524 . S
C3083 C3082 1.524 . S
C3083 C3084 1.397 . S
C3083 C3088 1.363 . S
C3084 H3055 0.950 . S
C3084 C3083 1.397 . S
C3084 C3085 1.334 . S
C3085 H3056 0.950 . S
C3085 C3084 1.334 . S
C3085 C3086 1.287 . S
C3086 C3085 1.287 . S
C3086 C3087 1.524 . S
C3086 H3089 0.999 . S
C3087 H3057 0.950 . S
C3087 C3086 1.524 . S
C3087 C3088 1.415 . S
C3088 H3058 0.950 . S
C3088 C3083 1.363 . S
C3088 C3087 1.415 . S
H3089 C3086 0.999 . S
H3090 C3071 0.913 . S
H3091 C3109 0.951 . S
H3092 C3111 0.951 . S
H3093 C3113 0.950 . S
H3094 C3114 0.950 . S
H3095 C3116 0.950 . S
H3096 C3119 0.950 . S
H3097 C3120 0.950 . S
H3098 C3122 0.950 . S
H3099 C3123 0.950 . S
H3100 C3124 0.951 . S
H3101 C3126 0.951 . S
H3102 C3128 0.950 . S
H3103 C3129 0.950 . S
H3104 C3131 0.950 . S
H3105 C3134 0.950 . S
H3106 C3135 0.950 . S
H3107 C3137 0.950 . S
H3108 C3138 0.950 . S
C3109 H3091 0.951 . S
C3109 C3110 1.366 . S
C3109 C3111 1.388 . S
C3110 C3109 1.366 . S
C3110 C3114 1.385 . S
C3111 H3092 0.951 . S
C3111 C3109 1.388 . S
C3111 C3112 1.366 . S
C3112 C3111 1.366 . S
C3112 C3113 1.414 . S
C3112 C3115 1.499 . S
C3113 H3093 0.950 . S
C3113 C3112 1.414 . S
C3113 C3114 1.374 . S
C3114 H3094 0.950 . S
C3114 C3110 1.385 . S
C3114 C3113 1.374 . S
C3115 C3112 1.499 . S
C3115 C3116 1.373 . S
C3115 C3117 1.389 . S
C3116 H3095 0.950 . S
C3116 C3115 1.373 . S
C3116 C3132 1.377 . S
C3117 C3115 1.389 . S
C3117 C3118 1.524 . S
C3117 C3131 1.377 . S
C3118 C3117 1.524 . S
C3118 C3119 1.397 . S
C3118 C3123 1.363 . S
C3119 H3096 0.950 . S
C3119 C3118 1.397 . S
C3119 C3120 1.334 . S
C3120 H3097 0.950 . S
C3120 C3119 1.334 . S
C3120 C3121 1.287 . S
C3121 C3120 1.287 . S
C3121 C3122 1.524 . S
C3121 H3140 0.913 . S
C3122 H3098 0.950 . S
C3122 C3121 1.524 . S
C3122 C3123 1.415 . S
C3123 H3099 0.950 . S
C3123 C3118 1.363 . S
C3123 C3122 1.415 . S
C3124 H3100 0.951 . S
C3124 C3125 1.366 . S
C3124 C3126 1.388 . S
C3125 C3124 1.366 . S
C3125 C3129 1.385 . S
C3126 H3101 0.951 . S
C3126 C3124 1.388 . S
C3126 C3127 1.366 . S
C3127 C3126 1.366 . S
C3127 C3128 1.414 . S
C3127 C3130 1.499 . S
C3128 H3102 0.950 . S
C3128 C3127 1.414 . S
C3128 C3129 1.374 . S
C3129 H3103 0.950 . S
C3129 C3125 1.385 . S
C3129 C3128 1.374 . S
C3130 C3127 1.499 . S
C3130 C3131 1.373 . S
C3130 C3132 1.389 . S
C3131 H3104 0.950 . S
C3131 C3117 1.377 . S
C3131 C3130 1.373 . S
C3132 C3116 1.377 . S
C3132 C3130 1.389 . S
C3132 C3133 1.524 . S
C3133 C3132 1.524 . S
C3133 C3134 1.397 . S
C3133 C3138 1.363 . S
C3134 H3105 0.950 . S
C3134 C3133 1.397 . S
C3134 C3135 1.334 . S
C3135 H3106 0.950 . S
C3135 C3134 1.334 . S
C3135 C3136 1.287 . S
C3136 C3135 1.287 . S
C3136 C3137 1.524 . S
C3136 H3139 0.999 . S
C3137 H3107 0.950 . S
C3137 C3136 1.524 . S
C3137 C3138 1.415 . S
C3138 H3108 0.950 . S
C3138 C3133 1.363 . S
C3138 C3137 1.415 . S
H3139 C3136 0.999 . S
H3140 C3121 0.913 . S
H3141 C3159 0.951 . S
H3142 C3161 0.951 . S
H3143 C3163 0.950 . S
H3144 C3164 0.950 . S
H3145 C3166 0.950 . S
H3146 C3169 0.950 . S
H3147 C3170 0.950 . S
H3148 C3172 0.950 . S
H3149 C3173 0.950 . S
H3150 C3174 0.951 . S
H3151 C3176 0.951 . S
H3152 C3178 0.950 . S
H3153 C3179 0.950 . S
H3154 C3181 0.950 . S
H3155 C3184 0.950 . S
H3156 C3185 0.950 . S
H3157 C3187 0.950 . S
H3158 C3188 0.950 . S
C3159 H3141 0.951 . S
C3159 C3160 1.366 . S
C3159 C3161 1.388 . S
C3160 C3159 1.366 . S
C3160 C3164 1.385 . S
C3161 H3142 0.951 . S
C3161 C3159 1.388 . S
C3161 C3162 1.366 . S
C3162 C3161 1.366 . S
C3162 C3163 1.414 . S
C3162 C3165 1.499 . S
C3163 H3143 0.950 . S
C3163 C3162 1.414 . S
C3163 C3164 1.374 . S
C3164 H3144 0.950 . S
C3164 C3160 1.385 . S
C3164 C3163 1.374 . S
C3165 C3162 1.499 . S
C3165 C3166 1.373 . S
C3165 C3167 1.389 . S
C3166 H3145 0.950 . S
C3166 C3165 1.373 . S
C3166 C3182 1.377 . S
C3167 C3165 1.389 . S
C3167 C3168 1.524 . S
C3167 C3181 1.377 . S
C3168 C3167 1.524 . S
C3168 C3169 1.397 . S
C3168 C3173 1.363 . S
C3169 H3146 0.950 . S
C3169 C3168 1.397 . S
C3169 C3170 1.334 . S
C3170 H3147 0.950 . S
C3170 C3169 1.334 . S
C3170 C3171 1.287 . S
C3171 C3170 1.287 . S
C3171 C3172 1.524 . S
C3171 H3190 0.913 . S
C3172 H3148 0.950 . S
C3172 C3171 1.524 . S
C3172 C3173 1.415 . S
C3173 H3149 0.950 . S
C3173 C3168 1.363 . S
C3173 C3172 1.415 . S
C3174 H3150 0.951 . S
C3174 C3175 1.366 . S
C3174 C3176 1.388 . S
C3175 C3174 1.366 . S
C3175 C3179 1.385 . S
C3176 H3151 0.951 . S
C3176 C3174 1.388 . S
C3176 C3177 1.366 . S
C3177 C3176 1.366 . S
C3177 C3178 1.414 . S
C3177 C3180 1.499 . S
C3178 H3152 0.950 . S
C3178 C3177 1.414 . S
C3178 C3179 1.374 . S
C3179 H3153 0.950 . S
C3179 C3175 1.385 . S
C3179 C3178 1.374 . S
C3180 C3177 1.499 . S
C3180 C3181 1.373 . S
C3180 C3182 1.389 . S
C3181 H3154 0.950 . S
C3181 C3167 1.377 . S
C3181 C3180 1.373 . S
C3182 C3166 1.377 . S
C3182 C3180 1.389 . S
C3182 C3183 1.524 . S
C3183 C3182 1.524 . S
C3183 C3184 1.397 . S
C3183 C3188 1.363 . S
C3184 H3155 0.950 . S
C3184 C3183 1.397 . S
C3184 C3185 1.334 . S
C3185 H3156 0.950 . S
C3185 C3184 1.334 . S
C3185 C3186 1.287 . S
C3186 C3185 1.287 . S
C3186 C3187 1.524 . S
C3186 H3189 0.999 . S
C3187 H3157 0.950 . S
C3187 C3186 1.524 . S
C3187 C3188 1.415 . S
C3188 H3158 0.950 . S
C3188 C3183 1.363 . S
C3188 C3187 1.415 . S
H3189 C3186 0.999 . S
H3190 C3171 0.913 . S
H3191 C3209 0.951 . S
H3192 C3211 0.951 . S
H3193 C3213 0.950 . S
H3194 C3214 0.950 . S
H3195 C3216 0.950 . S
H3196 C3219 0.950 . S
H3197 C3220 0.950 . S
H3198 C3222 0.950 . S
H3199 C3223 0.950 . S
H3200 C3224 0.951 . S
H3201 C3226 0.951 . S
H3202 C3228 0.950 . S
H3203 C3229 0.950 . S
H3204 C3231 0.950 . S
H3205 C3234 0.950 . S
H3206 C3235 0.950 . S
H3207 C3237 0.950 . S
H3208 C3238 0.950 . S
C3209 H3191 0.951 . S
C3209 C3210 1.366 . S
C3209 C3211 1.388 . S
C3210 C3209 1.366 . S
C3210 C3214 1.385 . S
C3211 H3192 0.951 . S
C3211 C3209 1.388 . S
C3211 C3212 1.366 . S
C3212 C3211 1.366 . S
C3212 C3213 1.414 . S
C3212 C3215 1.499 . S
C3213 H3193 0.950 . S
C3213 C3212 1.414 . S
C3213 C3214 1.374 . S
C3214 H3194 0.950 . S
C3214 C3210 1.385 . S
C3214 C3213 1.374 . S
C3215 C3212 1.499 . S
C3215 C3216 1.373 . S
C3215 C3217 1.389 . S
C3216 H3195 0.950 . S
C3216 C3215 1.373 . S
C3216 C3232 1.377 . S
C3217 C3215 1.389 . S
C3217 C3218 1.524 . S
C3217 C3231 1.377 . S
C3218 C3217 1.524 . S
C3218 C3219 1.397 . S
C3218 C3223 1.363 . S
C3219 H3196 0.950 . S
C3219 C3218 1.397 . S
C3219 C3220 1.334 . S
C3220 H3197 0.950 . S
C3220 C3219 1.334 . S
C3220 C3221 1.287 . S
C3221 C3220 1.287 . S
C3221 C3222 1.524 . S
C3221 H3240 0.913 . S
C3222 H3198 0.950 . S
C3222 C3221 1.524 . S
C3222 C3223 1.415 . S
C3223 H3199 0.950 . S
C3223 C3218 1.363 . S
C3223 C3222 1.415 . S
C3224 H3200 0.951 . S
C3224 C3225 1.366 . S
C3224 C3226 1.388 . S
C3225 C3224 1.366 . S
C3225 C3229 1.385 . S
C3226 H3201 0.951 . S
C3226 C3224 1.388 . S
C3226 C3227 1.366 . S
C3227 C3226 1.366 . S
C3227 C3228 1.414 . S
C3227 C3230 1.499 . S
C3228 H3202 0.950 . S
C3228 C3227 1.414 . S
C3228 C3229 1.374 . S
C3229 H3203 0.950 . S
C3229 C3225 1.385 . S
C3229 C3228 1.374 . S
C3230 C3227 1.499 . S
C3230 C3231 1.373 . S
C3230 C3232 1.389 . S
C3231 H3204 0.950 . S
C3231 C3217 1.377 . S
C3231 C3230 1.373 . S
C3232 C3216 1.377 . S
C3232 C3230 1.389 . S
C3232 C3233 1.524 . S
C3233 C3232 1.524 . S
C3233 C3234 1.397 . S
C3233 C3238 1.363 . S
C3234 H3205 0.950 . S
C3234 C3233 1.397 . S
C3234 C3235 1.334 . S
C3235 H3206 0.950 . S
C3235 C3234 1.334 . S
C3235 C3236 1.287 . S
C3236 C3235 1.287 . S
C3236 C3237 1.524 . S
C3236 H3239 0.999 . S
C3237 H3207 0.950 . S
C3237 C3236 1.524 . S
C3237 C3238 1.415 . S
C3238 H3208 0.950 . S
C3238 C3233 1.363 . S
C3238 C3237 1.415 . S
H3239 C3236 0.999 . S
H3240 C3221 0.913 . S
H3241 C3259 0.951 . S
H3242 C3261 0.951 . S
H3243 C3263 0.950 . S
H3244 C3264 0.950 . S
H3245 C3266 0.950 . S
H3246 C3269 0.950 . S
H3247 C3270 0.950 . S
H3248 C3272 0.950 . S
H3249 C3273 0.950 . S
H3250 C3274 0.951 . S
H3251 C3276 0.951 . S
H3252 C3278 0.950 . S
H3253 C3279 0.950 . S
H3254 C3281 0.950 . S
H3255 C3284 0.950 . S
H3256 C3285 0.950 . S
H3257 C3287 0.950 . S
H3258 C3288 0.950 . S
C3259 H3241 0.951 . S
C3259 C3260 1.366 . S
C3259 C3261 1.388 . S
C3260 C3259 1.366 . S
C3260 C3264 1.385 . S
C3261 H3242 0.951 . S
C3261 C3259 1.388 . S
C3261 C3262 1.366 . S
C3262 C3261 1.366 . S
C3262 C3263 1.414 . S
C3262 C3265 1.499 . S
C3263 H3243 0.950 . S
C3263 C3262 1.414 . S
C3263 C3264 1.374 . S
C3264 H3244 0.950 . S
C3264 C3260 1.385 . S
C3264 C3263 1.374 . S
C3265 C3262 1.499 . S
C3265 C3266 1.373 . S
C3265 C3267 1.389 . S
C3266 H3245 0.950 . S
C3266 C3265 1.373 . S
C3266 C3282 1.377 . S
C3267 C3265 1.389 . S
C3267 C3268 1.524 . S
C3267 C3281 1.377 . S
C3268 C3267 1.524 . S
C3268 C3269 1.397 . S
C3268 C3273 1.363 . S
C3269 H3246 0.950 . S
C3269 C3268 1.397 . S
C3269 C3270 1.334 . S
C3270 H3247 0.950 . S
C3270 C3269 1.334 . S
C3270 C3271 1.287 . S
C3271 C3270 1.287 . S
C3271 C3272 1.524 . S
C3271 H3290 0.913 . S
C3272 H3248 0.950 . S
C3272 C3271 1.524 . S
C3272 C3273 1.415 . S
C3273 H3249 0.950 . S
C3273 C3268 1.363 . S
C3273 C3272 1.415 . S
C3274 H3250 0.951 . S
C3274 C3275 1.366 . S
C3274 C3276 1.388 . S
C3275 C3274 1.366 . S
C3275 C3279 1.385 . S
C3276 H3251 0.951 . S
C3276 C3274 1.388 . S
C3276 C3277 1.366 . S
C3277 C3276 1.366 . S
C3277 C3278 1.414 . S
C3277 C3280 1.499 . S
C3278 H3252 0.950 . S
C3278 C3277 1.414 . S
C3278 C3279 1.374 . S
C3279 H3253 0.950 . S
C3279 C3275 1.385 . S
C3279 C3278 1.374 . S
C3280 C3277 1.499 . S
C3280 C3281 1.373 . S
C3280 C3282 1.389 . S
C3281 H3254 0.950 . S
C3281 C3267 1.377 . S
C3281 C3280 1.373 . S
C3282 C3266 1.377 . S
C3282 C3280 1.389 . S
C3282 C3283 1.524 . S
C3283 C3282 1.524 . S
C3283 C3284 1.397 . S
C3283 C3288 1.363 . S
C3284 H3255 0.950 . S
C3284 C3283 1.397 . S
C3284 C3285 1.334 . S
C3285 H3256 0.950 . S
C3285 C3284 1.334 . S
C3285 C3286 1.287 . S
C3286 C3285 1.287 . S
C3286 C3287 1.524 . S
C3286 H3289 0.999 . S
C3287 H3257 0.950 . S
C3287 C3286 1.524 . S
C3287 C3288 1.415 . S
C3288 H3258 0.950 . S
C3288 C3283 1.363 . S
C3288 C3287 1.415 . S
H3289 C3286 0.999 . S
H3290 C3271 0.913 . S
H3291 C3309 0.951 . S
H3292 C3311 0.951 . S
H3293 C3313 0.950 . S
H3294 C3314 0.950 . S
H3295 C3316 0.950 . S
H3296 C3319 0.950 . S
H3297 C3320 0.950 . S
H3298 C3322 0.950 . S
H3299 C3323 0.950 . S
H3300 C3324 0.951 . S
H3301 C3326 0.951 . S
H3302 C3328 0.950 . S
H3303 C3329 0.950 . S
H3304 C3331 0.950 . S
H3305 C3334 0.950 . S
H3306 C3335 0.950 . S
H3307 C3337 0.950 . S
H3308 C3338 0.950 . S
C3309 H3291 0.951 . S
C3309 C3310 1.366 . S
C3309 C3311 1.388 . S
C3310 C3309 1.366 . S
C3310 C3314 1.385 . S
C3311 H3292 0.951 . S
C3311 C3309 1.388 . S
C3311 C3312 1.366 . S
C3312 C3311 1.366 . S
C3312 C3313 1.414 . S
C3312 C3315 1.499 . S
C3313 H3293 0.950 . S
C3313 C3312 1.414 . S
C3313 C3314 1.374 . S
C3314 H3294 0.950 . S
C3314 C3310 1.385 . S
C3314 C3313 1.374 . S
C3315 C3312 1.499 . S
C3315 C3316 1.373 . S
C3315 C3317 1.389 . S
C3316 H3295 0.950 . S
C3316 C3315 1.373 . S
C3316 C3332 1.377 . S
C3317 C3315 1.389 . S
C3317 C3318 1.524 . S
C3317 C3331 1.377 . S
C3318 C3317 1.524 . S
C3318 C3319 1.397 . S
C3318 C3323 1.363 . S
C3319 H3296 0.950 . S
C3319 C3318 1.397 . S
C3319 C3320 1.334 . S
C3320 H3297 0.950 . S
C3320 C3319 1.334 . S
C3320 C3321 1.287 . S
C3321 C3320 1.287 . S
C3321 C3322 1.524 . S
C3321 H3340 0.913 . S
C3322 H3298 0.950 . S
C3322 C3321 1.524 . S
C3322 C3323 1.415 . S
C3323 H3299 0.950 . S
C3323 C3318 1.363 . S
C3323 C3322 1.415 . S
C3324 H3300 0.951 . S
C3324 C3325 1.366 . S
C3324 C3326 1.388 . S
C3325 C3324 1.366 . S
C3325 C3329 1.385 . S
C3326 H3301 0.951 . S
C3326 C3324 1.388 . S
C3326 C3327 1.366 . S
C3327 C3326 1.366 . S
C3327 C3328 1.414 . S
C3327 C3330 1.499 . S
C3328 H3302 0.950 . S
C3328 C3327 1.414 . S
C3328 C3329 1.374 . S
C3329 H3303 0.950 . S
C3329 C3325 1.385 . S
C3329 C3328 1.374 . S
C3330 C3327 1.499 . S
C3330 C3331 1.373 . S
C3330 C3332 1.389 . S
C3331 H3304 0.950 . S
C3331 C3317 1.377 . S
C3331 C3330 1.373 . S
C3332 C3316 1.377 . S
C3332 C3330 1.389 . S
C3332 C3333 1.524 . S
C3333 C3332 1.524 . S
C3333 C3334 1.397 . S
C3333 C3338 1.363 . S
C3334 H3305 0.950 . S
C3334 C3333 1.397 . S
C3334 C3335 1.334 . S
C3335 H3306 0.950 . S
C3335 C3334 1.334 . S
C3335 C3336 1.287 . S
C3336 C3335 1.287 . S
C3336 C3337 1.524 . S
C3336 H3339 0.999 . S
C3337 H3307 0.950 . S
C3337 C3336 1.524 . S
C3337 C3338 1.415 . S
C3338 H3308 0.950 . S
C3338 C3333 1.363 . S
C3338 C3337 1.415 . S
H3339 C3336 0.999 . S
H3340 C3321 0.913 . S
H3341 C3359 0.951 . S
H3342 C3361 0.951 . S
H3343 C3363 0.950 . S
H3344 C3364 0.950 . S
H3345 C3366 0.950 . S
H3346 C3369 0.950 . S
H3347 C3370 0.950 . S
H3348 C3372 0.950 . S
H3349 C3373 0.950 . S
H3350 C3374 0.951 . S
H3351 C3376 0.951 . S
H3352 C3378 0.950 . S
H3353 C3379 0.950 . S
H3354 C3381 0.950 . S
H3355 C3384 0.950 . S
H3356 C3385 0.950 . S
H3357 C3387 0.950 . S
H3358 C3388 0.950 . S
C3359 H3341 0.951 . S
C3359 C3360 1.366 . S
C3359 C3361 1.388 . S
C3360 C3359 1.366 . S
C3360 C3364 1.385 . S
C3361 H3342 0.951 . S
C3361 C3359 1.388 . S
C3361 C3362 1.366 . S
C3362 C3361 1.366 . S
C3362 C3363 1.414 . S
C3362 C3365 1.499 . S
C3363 H3343 0.950 . S
C3363 C3362 1.414 . S
C3363 C3364 1.374 . S
C3364 H3344 0.950 . S
C3364 C3360 1.385 . S
C3364 C3363 1.374 . S
C3365 C3362 1.499 . S
C3365 C3366 1.373 . S
C3365 C3367 1.389 . S
C3366 H3345 0.950 . S
C3366 C3365 1.373 . S
C3366 C3382 1.377 . S
C3367 C3365 1.389 . S
C3367 C3368 1.524 . S
C3367 C3381 1.377 . S
C3368 C3367 1.524 . S
C3368 C3369 1.397 . S
C3368 C3373 1.363 . S
C3369 H3346 0.950 . S
C3369 C3368 1.397 . S
C3369 C3370 1.334 . S
C3370 H3347 0.950 . S
C3370 C3369 1.334 . S
C3370 C3371 1.287 . S
C3371 C3370 1.287 . S
C3371 C3372 1.524 . S
C3371 H3390 0.913 . S
C3372 H3348 0.950 . S
C3372 C3371 1.524 . S
C3372 C3373 1.415 . S
C3373 H3349 0.950 . S
C3373 C3368 1.363 . S
C3373 C3372 1.415 . S
C3374 H3350 0.951 . S
C3374 C3375 1.366 . S
C3374 C3376 1.388 . S
C3375 C3374 1.366 . S
C3375 C3379 1.385 . S
C3376 H3351 0.951 . S
C3376 C3374 1.388 . S
C3376 C3377 1.366 . S
C3377 C3376 1.366 . S
C3377 C3378 1.414 . S
C3377 C3380 1.499 . S
C3378 H3352 0.950 . S
C3378 C3377 1.414 . S
C3378 C3379 1.374 . S
C3379 H3353 0.950 . S
C3379 C3375 1.385 . S
C3379 C3378 1.374 . S
C3380 C3377 1.499 . S
C3380 C3381 1.373 . S
C3380 C3382 1.389 . S
C3381 H3354 0.950 . S
C3381 C3367 1.377 . S
C3381 C3380 1.373 . S
C3382 C3366 1.377 . S
C3382 C3380 1.389 . S
C3382 C3383 1.524 . S
C3383 C3382 1.524 . S
C3383 C3384 1.397 . S
C3383 C3388 1.363 . S
C3384 H3355 0.950 . S
C3384 C3383 1.397 . S
C3384 C3385 1.334 . S
C3385 H3356 0.950 . S
C3385 C3384 1.334 . S
C3385 C3386 1.287 . S
C3386 C3385 1.287 . S
C3386 C3387 1.524 . S
C3386 H3389 0.999 . S
C3387 H3357 0.950 . S
C3387 C3386 1.524 . S
C3387 C3388 1.415 . S
C3388 H3358 0.950 . S
C3388 C3383 1.363 . S
C3388 C3387 1.415 . S
H3389 C3386 0.999 . S
H3390 C3371 0.913 . S
H3391 C3409 0.951 . S
H3392 C3411 0.951 . S
H3393 C3413 0.950 . S
H3394 C3414 0.950 . S
H3395 C3416 0.950 . S
H3396 C3419 0.950 . S
H3397 C3420 0.950 . S
H3398 C3422 0.950 . S
H3399 C3423 0.950 . S
H3400 C3424 0.951 . S
H3401 C3426 0.951 . S
H3402 C3428 0.950 . S
H3403 C3429 0.950 . S
H3404 C3431 0.950 . S
H3405 C3434 0.950 . S
H3406 C3435 0.950 . S
H3407 C3437 0.950 . S
H3408 C3438 0.950 . S
C3409 H3391 0.951 . S
C3409 C3410 1.366 . S
C3409 C3411 1.388 . S
C3410 C3409 1.366 . S
C3410 C3414 1.385 . S
C3411 H3392 0.951 . S
C3411 C3409 1.388 . S
C3411 C3412 1.366 . S
C3412 C3411 1.366 . S
C3412 C3413 1.414 . S
C3412 C3415 1.499 . S
C3413 H3393 0.950 . S
C3413 C3412 1.414 . S
C3413 C3414 1.374 . S
C3414 H3394 0.950 . S
C3414 C3410 1.385 . S
C3414 C3413 1.374 . S
C3415 C3412 1.499 . S
C3415 C3416 1.373 . S
C3415 C3417 1.389 . S
C3416 H3395 0.950 . S
C3416 C3415 1.373 . S
C3416 C3432 1.377 . S
C3417 C3415 1.389 . S
C3417 C3418 1.524 . S
C3417 C3431 1.377 . S
C3418 C3417 1.524 . S
C3418 C3419 1.397 . S
C3418 C3423 1.363 . S
C3419 H3396 0.950 . S
C3419 C3418 1.397 . S
C3419 C3420 1.334 . S
C3420 H3397 0.950 . S
C3420 C3419 1.334 . S
C3420 C3421 1.287 . S
C3421 C3420 1.287 . S
C3421 C3422 1.524 . S
C3421 H3440 0.913 . S
C3422 H3398 0.950 . S
C3422 C3421 1.524 . S
C3422 C3423 1.415 . S
C3423 H3399 0.950 . S
C3423 C3418 1.363 . S
C3423 C3422 1.415 . S
C3424 H3400 0.951 . S
C3424 C3425 1.366 . S
C3424 C3426 1.388 . S
C3425 C3424 1.366 . S
C3425 C3429 1.385 . S
C3426 H3401 0.951 . S
C3426 C3424 1.388 . S
C3426 C3427 1.366 . S
C3427 C3426 1.366 . S
C3427 C3428 1.414 . S
C3427 C3430 1.499 . S
C3428 H3402 0.950 . S
C3428 C3427 1.414 . S
C3428 C3429 1.374 . S
C3429 H3403 0.950 . S
C3429 C3425 1.385 . S
C3429 C3428 1.374 . S
C3430 C3427 1.499 . S
C3430 C3431 1.373 . S
C3430 C3432 1.389 . S
C3431 H3404 0.950 . S
C3431 C3417 1.377 . S
C3431 C3430 1.373 . S
C3432 C3416 1.377 . S
C3432 C3430 1.389 . S
C3432 C3433 1.524 . S
C3433 C3432 1.524 . S
C3433 C3434 1.397 . S
C3433 C3438 1.363 . S
C3434 H3405 0.950 . S
C3434 C3433 1.397 . S
C3434 C3435 1.334 . S
C3435 H3406 0.950 . S
C3435 C3434 1.334 . S
C3435 C3436 1.287 . S
C3436 C3435 1.287 . S
C3436 C3437 1.524 . S
C3436 H3439 0.999 . S
C3437 H3407 0.950 . S
C3437 C3436 1.524 . S
C3437 C3438 1.415 . S
C3438 H3408 0.950 . S
C3438 C3433 1.363 . S
C3438 C3437 1.415 . S
H3439 C3436 0.999 . S
H3440 C3421 0.913 . S
H3441 C3459 0.951 . S
H3442 C3461 0.951 . S
H3443 C3463 0.950 . S
H3444 C3464 0.950 . S
H3445 C3466 0.950 . S
H3446 C3469 0.950 . S
H3447 C3470 0.950 . S
H3448 C3472 0.950 . S
H3449 C3473 0.950 . S
H3450 C3474 0.951 . S
H3451 C3476 0.951 . S
H3452 C3478 0.950 . S
H3453 C3479 0.950 . S
H3454 C3481 0.950 . S
H3455 C3484 0.950 . S
H3456 C3485 0.950 . S
H3457 C3487 0.950 . S
H3458 C3488 0.950 . S
C3459 H3441 0.951 . S
C3459 C3460 1.366 . S
C3459 C3461 1.388 . S
C3460 C3459 1.366 . S
C3460 C3464 1.385 . S
C3461 H3442 0.951 . S
C3461 C3459 1.388 . S
C3461 C3462 1.366 . S
C3462 C3461 1.366 . S
C3462 C3463 1.414 . S
C3462 C3465 1.499 . S
C3463 H3443 0.950 . S
C3463 C3462 1.414 . S
C3463 C3464 1.374 . S
C3464 H3444 0.950 . S
C3464 C3460 1.385 . S
C3464 C3463 1.374 . S
C3465 C3462 1.499 . S
C3465 C3466 1.373 . S
C3465 C3467 1.389 . S
C3466 H3445 0.950 . S
C3466 C3465 1.373 . S
C3466 C3482 1.377 . S
C3467 C3465 1.389 . S
C3467 C3468 1.524 . S
C3467 C3481 1.377 . S
C3468 C3467 1.524 . S
C3468 C3469 1.397 . S
C3468 C3473 1.363 . S
C3469 H3446 0.950 . S
C3469 C3468 1.397 . S
C3469 C3470 1.334 . S
C3470 H3447 0.950 . S
C3470 C3469 1.334 . S
C3470 C3471 1.287 . S
C3471 C3470 1.287 . S
C3471 C3472 1.524 . S
C3471 H3490 0.913 . S
C3472 H3448 0.950 . S
C3472 C3471 1.524 . S
C3472 C3473 1.415 . S
C3473 H3449 0.950 . S
C3473 C3468 1.363 . S
C3473 C3472 1.415 . S
C3474 H3450 0.951 . S
C3474 C3475 1.366 . S
C3474 C3476 1.388 . S
C3475 C3474 1.366 . S
C3475 C3479 1.385 . S
C3476 H3451 0.951 . S
C3476 C3474 1.388 . S
C3476 C3477 1.366 . S
C3477 C3476 1.366 . S
C3477 C3478 1.414 . S
C3477 C3480 1.499 . S
C3478 H3452 0.950 . S
C3478 C3477 1.414 . S
C3478 C3479 1.374 . S
C3479 H3453 0.950 . S
C3479 C3475 1.385 . S
C3479 C3478 1.374 . S
C3480 C3477 1.499 . S
C3480 C3481 1.373 . S
C3480 C3482 1.389 . S
C3481 H3454 0.950 . S
C3481 C3467 1.377 . S
C3481 C3480 1.373 . S
C3482 C3466 1.377 . S
C3482 C3480 1.389 . S
C3482 C3483 1.524 . S
C3483 C3482 1.524 . S
C3483 C3484 1.397 . S
C3483 C3488 1.363 . S
C3484 H3455 0.950 . S
C3484 C3483 1.397 . S
C3484 C3485 1.334 . S
C3485 H3456 0.950 . S
C3485 C3484 1.334 . S
C3485 C3486 1.287 . S
C3486 C3485 1.287 . S
C3486 C3487 1.524 . S
C3486 H3489 0.999 . S
C3487 H3457 0.950 . S
C3487 C3486 1.524 . S
C3487 C3488 1.415 . S
C3488 H3458 0.950 . S
C3488 C3483 1.363 . S
C3488 C3487 1.415 . S
H3489 C3486 0.999 . S
H3490 C3471 0.913 . S
H3491 C3509 0.951 . S
H3492 C3511 0.951 . S
H3493 C3513 0.950 . S
H3494 C3514 0.950 . S
H3495 C3516 0.950 . S
H3496 C3519 0.950 . S
H3497 C3520 0.950 . S
H3498 C3522 0.950 . S
H3499 C3523 0.950 . S
H3500 C3524 0.951 . S
H3501 C3526 0.951 . S
H3502 C3528 0.950 . S
H3503 C3529 0.950 . S
H3504 C3531 0.950 . S
H3505 C3534 0.950 . S
H3506 C3535 0.950 . S
H3507 C3537 0.950 . S
H3508 C3538 0.950 . S
C3509 H3491 0.951 . S
C3509 C3510 1.366 . S
C3509 C3511 1.388 . S
C3510 C3509 1.366 . S
C3510 C3514 1.385 . S
C3511 H3492 0.951 . S
C3511 C3509 1.388 . S
C3511 C3512 1.366 . S
C3512 C3511 1.366 . S
C3512 C3513 1.414 . S
C3512 C3515 1.499 . S
C3513 H3493 0.950 . S
C3513 C3512 1.414 . S
C3513 C3514 1.374 . S
C3514 H3494 0.950 . S
C3514 C3510 1.385 . S
C3514 C3513 1.374 . S
C3515 C3512 1.499 . S
C3515 C3516 1.373 . S
C3515 C3517 1.389 . S
C3516 H3495 0.950 . S
C3516 C3515 1.373 . S
C3516 C3532 1.377 . S
C3517 C3515 1.389 . S
C3517 C3518 1.524 . S
C3517 C3531 1.377 . S
C3518 C3517 1.524 . S
C3518 C3519 1.397 . S
C3518 C3523 1.363 . S
C3519 H3496 0.950 . S
C3519 C3518 1.397 . S
C3519 C3520 1.334 . S
C3520 H3497 0.950 . S
C3520 C3519 1.334 . S
C3520 C3521 1.287 . S
C3521 C3520 1.287 . S
C3521 C3522 1.524 . S
C3521 H3540 0.913 . S
C3522 H3498 0.950 . S
C3522 C3521 1.524 . S
C3522 C3523 1.415 . S
C3523 H3499 0.950 . S
C3523 C3518 1.363 . S
C3523 C3522 1.415 . S
C3524 H3500 0.951 . S
C3524 C3525 1.366 . S
C3524 C3526 1.388 . S
C3525 C3524 1.366 . S
C3525 C3529 1.385 . S
C3526 H3501 0.951 . S
C3526 C3524 1.388 . S
C3526 C3527 1.366 . S
C3527 C3526 1.366 . S
C3527 C3528 1.414 . S
C3527 C3530 1.499 . S
C3528 H3502 0.950 . S
C3528 C3527 1.414 . S
C3528 C3529 1.374 . S
C3529 H3503 0.950 . S
C3529 C3525 1.385 . S
C3529 C3528 1.374 . S
C3530 C3527 1.499 . S
C3530 C3531 1.373 . S
C3530 C3532 1.389 . S
C3531 H3504 0.950 . S
C3531 C3517 1.377 . S
C3531 C3530 1.373 . S
C3532 C3516 1.377 . S
C3532 C3530 1.389 . S
C3532 C3533 1.524 . S
C3533 C3532 1.524 . S
C3533 C3534 1.397 . S
C3533 C3538 1.363 . S
C3534 H3505 0.950 . S
C3534 C3533 1.397 . S
C3534 C3535 1.334 . S
C3535 H3506 0.950 . S
C3535 C3534 1.334 . S
C3535 C3536 1.287 . S
C3536 C3535 1.287 . S
C3536 C3537 1.524 . S
C3536 H3539 0.999 . S
C3537 H3507 0.950 . S
C3537 C3536 1.524 . S
C3537 C3538 1.415 . S
C3538 H3508 0.950 . S
C3538 C3533 1.363 . S
C3538 C3537 1.415 . S
H3539 C3536 0.999 . S
H3540 C3521 0.913 . S
H3541 C3559 0.951 . S
H3542 C3561 0.951 . S
H3543 C3563 0.950 . S
H3544 C3564 0.950 . S
H3545 C3566 0.950 . S
H3546 C3569 0.950 . S
H3547 C3570 0.950 . S
H3548 C3572 0.950 . S
H3549 C3573 0.950 . S
H3550 C3574 0.951 . S
H3551 C3576 0.951 . S
H3552 C3578 0.950 . S
H3553 C3579 0.950 . S
H3554 C3581 0.950 . S
H3555 C3584 0.950 . S
H3556 C3585 0.950 . S
H3557 C3587 0.950 . S
H3558 C3588 0.950 . S
C3559 H3541 0.951 . S
C3559 C3560 1.366 . S
C3559 C3561 1.388 . S
C3560 C3559 1.366 . S
C3560 C3564 1.385 . S
C3561 H3542 0.951 . S
C3561 C3559 1.388 . S
C3561 C3562 1.366 . S
C3562 C3561 1.366 . S
C3562 C3563 1.414 . S
C3562 C3565 1.499 . S
C3563 H3543 0.950 . S
C3563 C3562 1.414 . S
C3563 C3564 1.374 . S
C3564 H3544 0.950 . S
C3564 C3560 1.385 . S
C3564 C3563 1.374 . S
C3565 C3562 1.499 . S
C3565 C3566 1.373 . S
C3565 C3567 1.389 . S
C3566 H3545 0.950 . S
C3566 C3565 1.373 . S
C3566 C3582 1.377 . S
C3567 C3565 1.389 . S
C3567 C3568 1.524 . S
C3567 C3581 1.377 . S
C3568 C3567 1.524 . S
C3568 C3569 1.397 . S
C3568 C3573 1.363 . S
C3569 H3546 0.950 . S
C3569 C3568 1.397 . S
C3569 C3570 1.334 . S
C3570 H3547 0.950 . S
C3570 C3569 1.334 . S
C3570 C3571 1.287 . S
C3571 C3570 1.287 . S
C3571 C3572 1.524 . S
C3571 H3590 0.913 . S
C3572 H3548 0.950 . S
C3572 C3571 1.524 . S
C3572 C3573 1.415 . S
C3573 H3549 0.950 . S
C3573 C3568 1.363 . S
C3573 C3572 1.415 . S
C3574 H3550 0.951 . S
C3574 C3575 1.366 . S
C3574 C3576 1.388 . S
C3575 C3574 1.366 . S
C3575 C3579 1.385 . S
C3576 H3551 0.951 . S
C3576 C3574 1.388 . S
C3576 C3577 1.366 . S
C3577 C3576 1.366 . S
C3577 C3578 1.414 . S
C3577 C3580 1.499 . S
C3578 H3552 0.950 . S
C3578 C3577 1.414 . S
C3578 C3579 1.374 . S
C3579 H3553 0.950 . S
C3579 C3575 1.385 . S
C3579 C3578 1.374 . S
C3580 C3577 1.499 . S
C3580 C3581 1.373 . S
C3580 C3582 1.389 . S
C3581 H3554 0.950 . S
C3581 C3567 1.377 . S
C3581 C3580 1.373 . S
C3582 C3566 1.377 . S
C3582 C3580 1.389 . S
C3582 C3583 1.524 . S
C3583 C3582 1.524 . S
C3583 C3584 1.397 . S
C3583 C3588 1.363 . S
C3584 H3555 0.950 . S
C3584 C3583 1.397 . S
C3584 C3585 1.334 . S
C3585 H3556 0.950 . S
C3585 C3584 1.334 . S
C3585 C3586 1.287 . S
C3586 C3585 1.287 . S
C3586 C3587 1.524 . S
C3586 H3589 0.999 . S
C3587 H3557 0.950 . S
C3587 C3586 1.524 . S
C3587 C3588 1.415 . S
C3588 H3558 0.950 . S
C3588 C3583 1.363 . S
C3588 C3587 1.415 . S
H3589 C3586 0.999 . S
H3590 C3571 0.913 . S
C910 C528 1.365 . S
C925 C716 1.299 . S
C960 C562 1.400 . S
C975 C737 1.331 . S
C1010 C484 1.304 . S
C1025 C757 1.117 . S
C1060 C445 1.333 . S
C1075 C736 1.134 1_556 S
C1125 C758 1.358 . S
C1110 C367 1.432 . S
C1160 C411 1.329 . S
C1175 C715 1.130 1_556 S
C1225 C717 1.257 . S
C1210 C450 1.323 . S
C1275 C738 1.255 . S
C1260 C372 1.314 . S
C1310 C406 1.367 . S
C1325 C760 1.160 1_556 S
C1360 C523 1.307 . S
C1375 C739 1.118 . S
C1410 C567 1.274 . S
C1425 C759 1.215 . S
C1475 C718 1.141 . S
C1460 C489 1.332 . S
C1525 C779 1.299 . S
C1510 C60 1.366 . S
C1560 C94 1.399 . S
C1575 C800 1.329 . S
C1610 C16 1.305 . S
C1625 C820 1.120 . S
C1660 C679 1.333 . S
C1675 C799 1.134 . S
C1710 C601 1.431 . S
C1725 C821 1.356 . S
C1760 C645 1.330 . S
C1775 C778 1.130 . S
C1810 C684 1.322 . S
C1825 C780 1.255 . S
C1860 C606 1.315 . S
C1875 C801 1.256 . S
C1925 C823 1.159 . S
C1910 C640 1.366 . S
C1960 C55 1.308 . S
C1975 C802 1.120 . S
C2025 C822 1.215 . S
C2010 C99 1.274 . S
C2060 C21 1.331 . S
C2075 C781 1.139 . S
C2125 C842 1.299 . S
C2110 C294 1.365 . S
C2160 C328 1.399 . S
C2175 C863 1.330 . S
C2225 C883 1.119 . S
C2210 C250 1.304 . S
C2275 C862 1.136 . S
C2260 C211 1.333 . S
C2325 C884 1.356 . S
C2310 C133 1.432 . S
C2360 C177 1.329 . S
C2375 C841 1.130 . S
C2410 C216 1.323 . S
C2425 C843 1.257 . S
C2460 C138 1.315 . S
C2475 C864 1.256 . S
C2525 C886 1.160 . S
C2510 C172 1.367 . S
C2560 C289 1.308 . S
C2575 C865 1.118 . S
C2610 C333 1.273 . S
C2625 C885 1.213 . S
C2660 C255 1.332 . S
C2675 C844 1.139 . S
C2710 C586 1.390 . S
C2725 C720 1.360 . S
C2775 C741 1.372 . S
C2760 C625 1.408 . S
C2810 C664 1.486 . S
C2825 C761 1.461 . S
C2860 C235 1.537 . S
C2875 C740 1.504 1_655 S
C2910 C274 1.423 . S
C2925 C762 1.383 . S
C2975 C719 1.480 . S
C2960 C313 1.504 . S
C3010 C118 1.390 . S
C3025 C783 1.355 . S
C3060 C157 1.408 . S
C3075 C804 1.371 . S
C3110 C196 1.487 . S
C3125 C824 1.462 . S
C3160 C469 1.537 . S
C3175 C803 1.510 . S
C3225 C825 1.382 . S
C3210 C508 1.422 . S
C3260 C547 1.504 . S
C3275 C782 1.480 . S
C3310 C352 1.391 . S
C3325 C846 1.356 . S
C3360 C391 1.408 . S
C3375 C867 1.373 . S
C3425 C887 1.461 . S
C3410 C430 1.485 . S
C3460 C1 1.537 . S
C3475 C866 1.510 . S
C3510 C40 1.424 . S
C3525 C888 1.383 . S
C3560 C79 1.504 . S
C3575 C845 1.479 . S
