# Generated by pormake.
# Topology nom, (4,4)-cn, num edge types: 1
# Building blocks:
#     Node 0, Type 0, BuildingBlock: NAWXER_clean_linker_0, # of connection points: 4
#     Node 1, Type 0, BuildingBlock: NAWXER_clean_linker_0, # of connection points: 4
#     Node 2, Type 0, BuildingBlock: NAWXER_clean_linker_0, # of connection points: 4
#     Node 3, Type 0, BuildingBlock: NAWXER_clean_linker_0, # of connection points: 4
#     Node 4, Type 0, BuildingBlock: NAWXER_clean_linker_0, # of connection points: 4
#     Node 5, Type 0, BuildingBlock: NAWXER_clean_linker_0, # of connection points: 4
#     Node 6, Type 1, BuildingBlock: NAHDIM_clean_sbu_0, # of connection points: 4
#     Node 7, Type 1, BuildingBlock: NAHDIM_clean_sbu_0, # of connection points: 4
#     Node 8, Type 1, BuildingBlock: NAHDIM_clean_sbu_0, # of connection points: 4
#     Node 9, Type 1, BuildingBlock: NAHDIM_clean_sbu_0, # of connection points: 4
#     Node 10, Type 1, BuildingBlock: NAHDIM_clean_sbu_0, # of connection points: 4
#     Node 11, Type 1, BuildingBlock: NAHDIM_clean_sbu_0, # of connection points: 4
#     Edge 12, Type (0, 1), BuildingBlock: XIVTED_clean_linker_0, # of connection points: 2
#     Edge 13, Type (0, 1), BuildingBlock: XIVTED_clean_linker_0, # of connection points: 2
#     Edge 14, Type (0, 1), BuildingBlock: XIVTED_clean_linker_0, # of connection points: 2
#     Edge 15, Type (0, 1), BuildingBlock: XIVTED_clean_linker_0, # of connection points: 2
#     Edge 16, Type (0, 1), BuildingBlock: XIVTED_clean_linker_0, # of connection points: 2
#     Edge 17, Type (0, 1), BuildingBlock: XIVTED_clean_linker_0, # of connection points: 2
#     Edge 18, Type (0, 1), BuildingBlock: XIVTED_clean_linker_0, # of connection points: 2
#     Edge 19, Type (0, 1), BuildingBlock: XIVTED_clean_linker_0, # of connection points: 2
#     Edge 20, Type (0, 1), BuildingBlock: XIVTED_clean_linker_0, # of connection points: 2
#     Edge 21, Type (0, 1), BuildingBlock: XIVTED_clean_linker_0, # of connection points: 2
#     Edge 22, Type (0, 1), BuildingBlock: XIVTED_clean_linker_0, # of connection points: 2
#     Edge 23, Type (0, 1), BuildingBlock: XIVTED_clean_linker_0, # of connection points: 2
#     Edge 24, Type (0, 1), BuildingBlock: XIVTED_clean_linker_0, # of connection points: 2
#     Edge 25, Type (0, 1), BuildingBlock: XIVTED_clean_linker_0, # of connection points: 2
#     Edge 26, Type (0, 1), BuildingBlock: XIVTED_clean_linker_0, # of connection points: 2
#     Edge 27, Type (0, 1), BuildingBlock: XIVTED_clean_linker_0, # of connection points: 2
#     Edge 28, Type (0, 1), BuildingBlock: XIVTED_clean_linker_0, # of connection points: 2
#     Edge 29, Type (0, 1), BuildingBlock: XIVTED_clean_linker_0, # of connection points: 2
#     Edge 30, Type (0, 1), BuildingBlock: XIVTED_clean_linker_0, # of connection points: 2
#     Edge 31, Type (0, 1), BuildingBlock: XIVTED_clean_linker_0, # of connection points: 2
#     Edge 32, Type (0, 1), BuildingBlock: XIVTED_clean_linker_0, # of connection points: 2
#     Edge 33, Type (0, 1), BuildingBlock: XIVTED_clean_linker_0, # of connection points: 2
#     Edge 34, Type (0, 1), BuildingBlock: XIVTED_clean_linker_0, # of connection points: 2
#     Edge 35, Type (0, 1), BuildingBlock: XIVTED_clean_linker_0, # of connection points: 2
# Relax obj value: 0.024
# Max RMSD: 0.118
# Mean RMSD: 0.110
data_MOF--net-nom--node1-NAHDIM_clean_sbu_0--node2-NAWXER_clean_linker_0--edge1-XIVTED_clean_linker_0
_symmetry_space_group_name_H-M    P1
_symmetry_Int_Tables_number       1
_symmetry_cell_setting            triclinic
loop_
_symmetry_equiv_pos_as_xyz
'x, y, z'
_cell_length_a     51.985182
_cell_length_b     53.519245
_cell_length_c     58.0165
_cell_angle_alpha  89.896798
_cell_angle_beta   90.764201
_cell_angle_gamma 120.99478
loop_
_atom_site_label
_atom_site_type_symbol
_atom_site_fract_x
_atom_site_fract_y
_atom_site_fract_z
_atom_type_partial_charge
C0 C 0.89566 0.48553 0.3253 0.0
C1 C 0.88074 0.46425 0.34225 0.0
C2 C 0.92426 0.4929 0.31834 0.0
C3 C 0.93844 0.47893 0.32798 0.0
C4 C 0.89489 0.45016 0.35186 0.0
C5 C 0.92366 0.45765 0.34491 0.0
C6 C 0.96966 0.48853 0.32182 0.0
C7 C 0.91579 0.44545 0.25733 0.0
C8 C 0.92209 0.46442 0.2386 0.0
C9 C 0.93404 0.45482 0.27713 0.0
C10 C 0.95887 0.48336 0.27861 0.0
C11 C 0.94681 0.49305 0.2403 0.0
C12 C 0.96511 0.50232 0.26001 0.0
C13 C 0.97948 0.49318 0.29883 0.0
C14 C 0.11395 0.54641 0.30668 0.0
C15 C 0.12184 0.56898 0.29073 0.0
C16 C 0.08417 0.52908 0.31376 0.0
C17 C 0.06209 0.5346 0.30537 0.0
C18 C 0.09956 0.57406 0.28218 0.0
C19 C 0.07006 0.55704 0.28939 0.0
C20 C 0.03032 0.51693 0.31213 0.0
C21 C 0.08317 0.55744 0.37785 0.0
C22 C 0.07783 0.53733 0.39554 0.0
C23 C 0.06465 0.54902 0.35822 0.0
C24 C 0.04093 0.52008 0.35549 0.0
C25 C 0.05359 0.50854 0.39293 0.0
C26 C 0.03538 0.50005 0.37315 0.0
C27 C 0.02047 0.51077 0.33518 0.0
H28 H 0.88525 0.4966 0.31746 0.0
H29 H 0.93556 0.51006 0.30577 0.0
H30 H 0.88404 0.4339 0.36514 0.0
H31 H 0.93443 0.44697 0.35284 0.0
H32 H 0.89722 0.42313 0.25647 0.0
H33 H 0.92918 0.43956 0.29105 0.0
H34 H 0.95202 0.50842 0.22642 0.0
H35 H 0.98415 0.52443 0.26077 0.0
H36 H 0.1307 0.54191 0.31337 0.0
H37 H 0.07841 0.5114 0.32565 0.0
H38 H 0.10504 0.59155 0.27014 0.0
H39 H 0.05342 0.56167 0.28263 0.0
H40 H 0.1017 0.57974 0.3791 0.0
H41 H 0.06877 0.56522 0.34528 0.0
H42 H 0.04825 0.49259 0.40636 0.0
H43 H 0.01683 0.47776 0.37165 0.0
N44 N 0.99046 0.49693 0.33909 0.0
N45 N 0.00938 0.5076 0.29493 0.0
C46 C 0.44183 0.91182 0.49494 0.0
C47 C 0.44921 0.89885 0.51283 0.0
C48 C 0.46134 0.94083 0.48915 0.0
C49 C 0.4891 0.95733 0.50069 0.0
C50 C 0.4766 0.91548 0.52484 0.0
C51 C 0.49641 0.94455 0.51881 0.0
C52 C 0.5089 0.98858 0.49525 0.0
C53 C 0.50352 0.9383 0.43238 0.0
C54 C 0.48721 0.94116 0.4141 0.0
C55 C 0.51315 0.95755 0.45114 0.0
C56 C 0.50653 0.9799 0.45196 0.0
C57 C 0.48181 0.96433 0.41452 0.0
C58 C 0.49153 0.9836 0.4332 0.0
C59 C 0.51452 -0.00086 0.47242 0.0
C60 C 0.57819 0.13018 0.48327 0.0
C61 C 0.55962 0.13491 0.46825 0.0
C62 C 0.57038 0.10182 0.48938 0.0
C63 C 0.54379 0.07784 0.48066 0.0
C64 C 0.53313 0.11073 0.45955 0.0
C65 C 0.52545 0.08255 0.46557 0.0
C66 C 0.53453 0.04754 0.48661 0.0
C67 C 0.53203 0.09008 0.5533 0.0
C68 C 0.55009 0.08876 0.57097 0.0
C69 C 0.52618 0.07375 0.53308 0.0
C70 C 0.53868 0.05617 0.53001 0.0
C71 C 0.56247 0.07106 0.56783 0.0
C72 C 0.55669 0.05483 0.54759 0.0
C73 C 0.53121 0.03728 0.50947 0.0
H74 H 0.42052 0.89974 0.4858 0.0
H75 H 0.45435 0.9505 0.47594 0.0
H76 H 0.48274 0.90596 0.53877 0.0
H77 H 0.5174 0.95705 0.52829 0.0
H78 H 0.50799 0.92065 0.43253 0.0
H79 H 0.5253 0.95467 0.46519 0.0
H80 H 0.46976 0.96738 0.40048 0.0
H81 H 0.48645 0.00086 0.43333 0.0
H82 H 0.59894 0.14834 0.49004 0.0
H83 H 0.58513 0.09863 0.50074 0.0
H84 H 0.51802 0.11354 0.44831 0.0
H85 H 0.50478 0.06434 0.45869 0.0
H86 H 0.5217 0.10307 0.55538 0.0
H87 H 0.51136 0.07436 0.5201 0.0
H88 H 0.57669 0.06979 0.58102 0.0
H89 H 0.56625 0.04113 0.54567 0.0
N90 N 0.51823 0.00812 0.5129 0.0
N91 N 0.52644 0.02811 0.469 0.0
C92 C 0.578 0.50324 0.58412 0.0
C93 C 0.5602 0.49247 0.56398 0.0
C94 C 0.56701 0.50983 0.60363 0.0
C95 C 0.53782 0.50522 0.60344 0.0
C96 C 0.5311 0.48798 0.56386 0.0
C97 C 0.52007 0.49433 0.58334 0.0
C98 C 0.52602 0.51327 0.6234 0.0
C99 C 0.5367 0.44072 0.64978 0.0
C100 C 0.55538 0.44682 0.66925 0.0
C101 C 0.52898 0.46076 0.64216 0.0
C102 C 0.54039 0.48772 0.65347 0.0
C103 C 0.56655 0.47362 0.68078 0.0
C104 C 0.55909 0.49388 0.67295 0.0
C105 C 0.52999 0.5078 0.64663 0.0
C106 C 0.45282 0.5389 0.70014 0.0
C107 C 0.47339 0.55898 0.71639 0.0
C108 C 0.46284 0.52995 0.68144 0.0
C109 C 0.49364 0.54119 0.6785 0.0
C110 C 0.50419 0.56979 0.71355 0.0
C111 C 0.51418 0.56083 0.69484 0.0
C112 C 0.50465 0.53203 0.65884 0.0
C113 C 0.45856 0.57795 0.63038 0.0
C114 C 0.43601 0.56096 0.61395 0.0
C115 C 0.47951 0.57029 0.63727 0.0
C116 C 0.47783 0.54516 0.62819 0.0
C117 C 0.4354 0.53665 0.6042 0.0
C118 C 0.45598 0.52884 0.61128 0.0
C119 C 0.49845 0.53522 0.63559 0.0
H120 H 0.60064 0.50719 0.58459 0.0
H121 H 0.5815 0.51899 0.61866 0.0
H122 H 0.51671 0.47931 0.54871 0.0
H123 H 0.49753 0.49063 0.5827 0.0
H124 H 0.52718 0.41998 0.64088 0.0
H125 H 0.5133 0.45468 0.62782 0.0
H126 H 0.58103 0.47888 0.69583 0.0
H127 H 0.5677 0.51426 0.68224 0.0
H128 H 0.42896 0.53027 0.70176 0.0
H129 H 0.44657 0.51431 0.66925 0.0
H130 H 0.52056 0.58486 0.72597 0.0
H131 H 0.53801 0.56942 0.69302 0.0
H132 H 0.45973 0.59685 0.63823 0.0
H133 H 0.49677 0.58384 0.64977 0.0
H134 H 0.41899 0.52355 0.59102 0.0
H135 H 0.45445 0.5096 0.60373 0.0
N136 N 0.50987 0.52617 0.61889 0.0
N137 N 0.51991 0.51818 0.66346 0.0
C138 C 0.89095 0.40259 0.80242 0.0
C139 C 0.87732 0.41169 0.78608 0.0
C140 C 0.91992 0.42198 0.81064 0.0
C141 C 0.93577 0.45082 0.8027 0.0
C142 C 0.89335 0.44048 0.77794 0.0
C143 C 0.92249 0.45981 0.78603 0.0
C144 C 0.96664 0.47115 0.81106 0.0
C145 C 0.90704 0.4577 0.87085 0.0
C146 C 0.91181 0.4448 0.8903 0.0
C147 C 0.92717 0.4674 0.85262 0.0
C148 C 0.95227 0.46406 0.85336 0.0
C149 C 0.93704 0.44164 0.89102 0.0
C150 C 0.95711 0.45129 0.87278 0.0
C151 C 0.97457 0.47547 0.8347 0.0
C152 C 0.10818 0.56281 0.83322 0.0
C153 C 0.11758 0.54963 0.84956 0.0
C154 C 0.07834 0.54855 0.82551 0.0
C155 C 0.0576 0.52056 0.83361 0.0
C156 C 0.09649 0.5222 0.85835 0.0
C157 C 0.06679 0.50783 0.85046 0.0
C158 C 0.02624 0.50425 0.82496 0.0
C159 C 0.08463 0.5187 0.76379 0.0
C160 C 0.08158 0.53518 0.7462 0.0
C161 C 0.06406 0.50739 0.78171 0.0
C162 C 0.04034 0.51275 0.7826 0.0
C163 C 0.05748 0.54006 0.74697 0.0
C164 C 0.037 0.52883 0.76494 0.0
C165 C 0.0182 0.50075 0.80129 0.0
H166 H 0.87905 0.38059 0.80909 0.0
H167 H 0.93003 0.41438 0.82311 0.0
H168 H 0.88347 0.44794 0.76516 0.0
H169 H 0.93453 0.48187 0.77949 0.0
H170 H 0.88776 0.46033 0.86971 0.0
H171 H 0.92336 0.47795 0.83815 0.0
H172 H 0.94166 0.43228 0.90592 0.0
H173 H 0.97652 0.44883 0.87386 0.0
H174 H 0.12391 0.58417 0.82646 0.0
H175 H 0.07155 0.55928 0.81311 0.0
H176 H 0.10315 0.51144 0.87084 0.0
H177 H 0.05113 0.48638 0.85713 0.0
H178 H 0.10301 0.51466 0.7638 0.0
H179 H 0.06664 0.49438 0.79482 0.0
H180 H 0.05412 0.55214 0.73348 0.0
H181 H 0.01858 0.53284 0.76513 0.0
N182 N 0.98869 0.4843 0.79527 0.0
N183 N 0.00408 0.49152 0.84071 0.0
C184 C 0.45583 0.9012 0.98828 0.0
C185 C 0.43652 0.88702 0.96939 0.0
C186 C 0.46138 0.92829 0.99574 0.0
C187 C 0.44739 0.94168 0.98473 0.0
C188 C 0.42268 0.90051 0.95822 0.0
C189 C 0.42819 0.9277 0.96578 0.0
C190 C 0.45563 0.97159 0.99142 0.0
C191 C 0.40938 0.91629 0.05335 0.0
C192 C 0.42682 0.92437 0.07373 0.0
C193 C 0.41947 0.93437 0.034 0.0
C194 C 0.44748 0.9605 0.03456 0.0
C195 C 0.45466 0.95056 0.07428 0.0
C196 C 0.46486 0.96839 0.05494 0.0
C197 C 0.45852 0.98068 0.01466 0.0
C198 C 0.52649 0.11312 0.0075 0.0
C199 C 0.54896 0.11821 0.02387 0.0
C200 C 0.50482 0.08461 0.00093 0.0
C201 C 0.5057 0.06083 0.01031 0.0
C202 C 0.54852 0.09423 0.03415 0.0
C203 C 0.52725 0.06595 0.0274 0.0
C204 C 0.48512 0.03038 0.00268 0.0
C205 C 0.53336 0.08091 0.93923 0.0
C206 C 0.5135 0.0805 0.92228 0.0
C207 C 0.5226 0.06151 0.95769 0.0
C208 C 0.49171 0.04169 0.95982 0.0
C209 C 0.48262 0.06011 0.92424 0.0
C210 C 0.47188 0.04081 0.94279 0.0
C211 C 0.47997 0.02125 0.97937 0.0
H212 H 0.46746 0.8918 0.99689 0.0
H213 H 0.47737 0.93915 0.00971 0.0
H214 H 0.40762 0.89008 0.94365 0.0
H215 H 0.41763 0.93789 0.95675 0.0
H216 H 0.38768 0.89634 0.05256 0.0
H217 H 0.40516 0.92812 0.01878 0.0
H218 H 0.46877 0.95715 0.08964 0.0
H219 H 0.48652 0.98839 0.05592 0.0
H220 H 0.52611 0.13113 -0.00069 0.0
H221 H 0.48783 0.08122 0.98825 0.0
H222 H 0.56486 0.09726 0.04733 0.0
H223 H 0.5282 0.04802 0.0352 0.0
H224 H 0.55723 0.09643 0.93838 0.0
H225 H 0.53838 0.06212 0.97038 0.0
H226 H 0.46677 0.05878 0.91129 0.0
H227 H 0.44801 0.02533 0.94395 0.0
N228 N 0.46565 0.9922 0.97465 0.0
N229 N 0.47364 0.00969 0.01927 0.0
C230 C 0.46136 0.57696 0.14955 0.0
C231 C 0.441 0.57154 0.16725 0.0
C232 C 0.46777 0.55574 0.14305 0.0
C233 C 0.45351 0.52835 0.15376 0.0
C234 C 0.42711 0.54435 0.17831 0.0
C235 C 0.4334 0.52294 0.17165 0.0
C236 C 0.46186 0.50665 0.14766 0.0
C237 C 0.41751 0.51663 0.0843 0.0
C238 C 0.43671 0.52915 0.06545 0.0
C239 C 0.42664 0.50724 0.10357 0.0
C240 C 0.45518 0.51034 0.10437 0.0
C241 C 0.46499 0.53166 0.06615 0.0
C242 C 0.47405 0.52224 0.08536 0.0
C243 C 0.4654 0.50061 0.12458 0.0
C244 C 0.52374 0.42786 0.13479 0.0
C245 C 0.54874 0.44484 0.12082 0.0
C246 C 0.50389 0.43732 0.13996 0.0
C247 C 0.50901 0.46406 0.13144 0.0
C248 C 0.55309 0.47108 0.11174 0.0
C249 C 0.53335 0.48048 0.11692 0.0
C250 C 0.49003 0.47599 0.13782 0.0
C251 C 0.53567 0.47015 0.20194 0.0
C252 C 0.51508 0.45019 0.2178 0.0
C253 C 0.52588 0.4804 0.18371 0.0
C254 C 0.49526 0.47057 0.18078 0.0
C255 C 0.48455 0.44122 0.21527 0.0
C256 C 0.47476 0.45142 0.19696 0.0
C257 C 0.48451 0.4801 0.16087 0.0
H258 H 0.473 0.59795 0.14111 0.0
H259 H 0.48447 0.56106 0.12997 0.0
H260 H 0.41132 0.5396 0.19202 0.0
H261 H 0.42259 0.50217 0.18045 0.0
H262 H 0.39562 0.51447 0.0843 0.0
H263 H 0.41136 0.49749 0.1178 0.0
H264 H 0.48007 0.5407 0.05174 0.0
H265 H 0.49604 0.52461 0.08545 0.0
H266 H 0.51954 0.40732 0.14174 0.0
H267 H 0.48484 0.424 0.15081 0.0
H268 H 0.57232 0.48488 0.1012 0.0
H269 H 0.5377 0.50118 0.11015 0.0
H270 H 0.55941 0.47799 0.20369 0.0
H271 H 0.54219 0.4958 0.17175 0.0
H272 H 0.46811 0.42578 0.22713 0.0
H273 H 0.45107 0.44381 0.19509 0.0
N274 N 0.47084 0.4955 0.16495 0.0
N275 N 0.47994 0.48609 0.12061 0.0
C276 C 0.60449 0.33361 0.42086 0.0
O277 O 0.62472 0.35639 0.43269 0.0
O278 O 0.65412 0.39344 0.38527 0.0
Zn279 Zn 0.61157 0.37955 0.3935 0.0
O280 O 0.61058 0.40168 0.42106 0.0
C281 C 0.59701 0.38363 0.34595 0.0
O282 O 0.61847 0.37814 0.34209 0.0
O283 O 0.5937 0.33766 0.4024 0.0
C284 C 0.60681 0.42327 0.41953 0.0
O285 O 0.60381 0.43212 0.39907 0.0
C286 C 0.67544 0.41982 0.38583 0.0
O287 O 0.66998 0.44032 0.39174 0.0
O288 O 0.58963 0.38448 0.3666 0.0
C289 C 0.29101 0.69323 0.54892 0.0
O290 O 0.28679 0.67215 0.53487 0.0
O291 O 0.28055 0.63033 0.57557 0.0
Zn292 Zn 0.25074 0.64342 0.57186 0.0
O293 O 0.2244 0.62658 0.54346 0.0
C294 C 0.21915 0.60961 0.6108 0.0
O295 O 0.22944 0.59355 0.60275 0.0
O296 O 0.27631 0.68664 0.56751 0.0
C297 C 0.20288 0.60043 0.54097 0.0
O298 O 0.1966 0.58175 0.55777 0.0
C299 C 0.27969 0.60826 0.56665 0.0
O300 O 0.25697 0.59055 0.55324 0.0
O301 O 0.22545 0.63298 0.60038 0.0
C302 C 0.59216 0.2889 0.72137 0.0
O303 O 0.60954 0.28321 0.70898 0.0
O304 O 0.64216 0.27533 0.7524 0.0
Zn305 Zn 0.59769 0.24874 0.74762 0.0
O306 O 0.5897 0.223 0.71978 0.0
C307 C 0.59508 0.21614 0.78723 0.0
O308 O 0.62168 0.22354 0.77944 0.0
O309 O 0.5822 0.27549 0.74029 0.0
C310 C 0.58278 0.19652 0.72028 0.0
O311 O 0.58025 0.18387 0.74023 0.0
C312 C 0.66216 0.271 0.74433 0.0
O313 O 0.65409 0.24725 0.7323 0.0
O314 O 0.57954 0.22465 0.77638 0.0
C315 C 0.41186 0.69651 0.91907 0.0
O316 O 0.40554 0.6765 0.93476 0.0
O317 O 0.34963 0.62959 0.88333 0.0
Zn318 Zn 0.39366 0.64721 0.88996 0.0
O319 O 0.40097 0.6274 0.91671 0.0
C320 C 0.3994 0.61557 0.85433 0.0
O321 O 0.37596 0.5954 0.8654 0.0
O322 O 0.4099 0.68959 0.89788 0.0
C323 C 0.38202 0.60268 0.92493 0.0
O324 O 0.35519 0.58752 0.91539 0.0
C325 C 0.33152 0.62882 0.89821 0.0
O326 O 0.34141 0.63871 0.91914 0.0
O327 O 0.41234 0.64172 0.86168 0.0
C328 C 0.70712 0.39616 0.08944 0.0
O329 O 0.70936 0.37782 0.1032 0.0
O330 O 0.71283 0.34153 0.06039 0.0
Zn331 Zn 0.74452 0.38345 0.06507 0.0
O332 O 0.77081 0.38903 0.09273 0.0
C333 C 0.78148 0.38373 0.02985 0.0
O334 O 0.77786 0.3616 0.04223 0.0
O335 O 0.72201 0.4038 0.07092 0.0
C336 C 0.79777 0.41024 0.09328 0.0
O337 O 0.80823 0.42763 0.07543 0.0
C338 C 0.71383 0.31968 0.0677 0.0
O339 O 0.73744 0.32372 0.07948 0.0
O340 O 0.76909 0.39768 0.03629 0.0
C341 C 0.40705 0.73201 0.21528 0.0
O342 O 0.39556 0.74156 0.19979 0.0
O343 O 0.34741 0.73346 0.25364 0.0
Zn344 Zn 0.38955 0.76297 0.24477 0.0
O345 O 0.38927 0.78593 0.21719 0.0
C346 C 0.39487 0.79497 0.2853 0.0
O347 O 0.36595 0.78259 0.28101 0.0
O348 O 0.40854 0.73966 0.23622 0.0
C349 C 0.3885 0.80925 0.21826 0.0
O350 O 0.38767 0.81977 0.23849 0.0
C351 C 0.32742 0.71822 0.23861 0.0
O352 O 0.3341 0.72268 0.21665 0.0
O353 O 0.41075 0.7898 0.27189 0.0
H354 H 0.17321 0.59498 0.31724 0.0
H355 H 0.27859 0.68291 0.21127 0.0
H356 H 0.14153 0.58588 0.24688 0.0
H357 H 0.3079 0.70032 0.2825 0.0
H358 H 0.22927 0.64418 0.22373 0.0
H359 H 0.22413 0.62997 0.30446 0.0
C360 C 0.17708 0.60007 0.29907 0.0
C361 C 0.15316 0.58775 0.2831 0.0
C362 C 0.2465 0.65646 0.23664 0.0
C363 C 0.21107 0.62786 0.26841 0.0
C364 C 0.27466 0.6786 0.22953 0.0
C365 C 0.29736 0.69496 0.24587 0.0
C366 C 0.24102 0.65054 0.26025 0.0
C367 C 0.29101 0.68835 0.2693 0.0
C368 C 0.20605 0.62019 0.29181 0.0
C369 C 0.1593 0.59525 0.25979 0.0
N370 N 0.26343 0.66665 0.27579 0.0
N371 N 0.18762 0.6149 0.25316 0.0
H372 H 0.58404 0.18416 0.49541 0.0
H373 H 0.57079 0.28222 0.39715 0.0
H374 H 0.55296 0.15382 0.42591 0.0
H375 H 0.61967 0.31757 0.46115 0.0
H376 H 0.56009 0.23391 0.40882 0.0
H377 H 0.59447 0.23258 0.48426 0.0
C378 C 0.57964 0.18771 0.47777 0.0
C379 C 0.56746 0.16481 0.46161 0.0
C380 C 0.57313 0.25224 0.42032 0.0
C381 C 0.57882 0.22 0.44887 0.0
C382 C 0.57911 0.27979 0.41371 0.0
C383 C 0.59622 0.30397 0.42817 0.0
C384 C 0.58417 0.24881 0.44159 0.0
C385 C 0.60649 0.29955 0.44942 0.0
C386 C 0.58541 0.2153 0.47146 0.0
C387 C 0.56182 0.17063 0.43908 0.0
N388 N 0.60031 0.27251 0.45549 0.0
N389 N 0.56743 0.19759 0.43342 0.0
H390 H 0.37633 0.52305 0.60456 0.0
H391 H 0.33466 0.64536 0.58602 0.0
H392 H 0.4427 0.61504 0.60769 0.0
H393 H 0.27912 0.5572 0.56068 0.0
H394 H 0.37318 0.6343 0.59727 0.0
H395 H 0.33898 0.5348 0.5918 0.0
C396 C 0.38318 0.54575 0.60241 0.0
C397 C 0.4129 0.56809 0.60702 0.0
C398 C 0.35263 0.61743 0.58914 0.0
C399 C 0.36986 0.58162 0.59286 0.0
C400 C 0.33059 0.62368 0.58277 0.0
C401 C 0.3036 0.60211 0.57245 0.0
C402 C 0.34748 0.58932 0.58546 0.0
C403 C 0.29961 0.57447 0.56855 0.0
C404 C 0.36175 0.5524 0.5952 0.0
C405 C 0.42007 0.59709 0.60456 0.0
N406 N 0.32124 0.56879 0.57522 0.0
N407 N 0.39868 0.60302 0.59768 0.0
H408 H 0.85274 0.35483 0.77245 0.0
H409 H 0.68645 0.32591 0.76211 0.0
H410 H 0.83127 0.42206 0.7813 0.0
H411 H 0.71071 0.26493 0.73716 0.0
H412 H 0.73921 0.36072 0.77069 0.0
H413 H 0.80058 0.32078 0.76086 0.0
C414 C 0.83702 0.3624 0.77192 0.0
C415 C 0.84625 0.39125 0.7779 0.0
C416 C 0.73304 0.33979 0.76324 0.0
C417 C 0.78668 0.35251 0.7647 0.0
C418 C 0.7029 0.31984 0.75842 0.0
C419 C 0.69416 0.29242 0.74898 0.0
C420 C 0.75465 0.3322 0.75884 0.0
C421 C 0.71647 0.28583 0.74443 0.0
C422 C 0.80733 0.34303 0.7652 0.0
C423 C 0.82511 0.40006 0.77666 0.0
N424 N 0.74571 0.30553 0.74954 0.0
N425 N 0.79625 0.3807 0.77036 0.0
H426 H 0.43416 0.86876 0.92474 0.0
H427 H 0.41809 0.71756 0.96282 0.0
H428 H 0.42832 0.8408 0.9953 0.0
H429 H 0.41885 0.74153 0.89162 0.0
H430 H 0.42379 0.76373 0.9747 0.0
H431 H 0.4292 0.82288 0.91192 0.0
C432 C 0.43155 0.85287 0.93752 0.0
C433 C 0.43176 0.85868 0.96115 0.0
C434 C 0.42281 0.759 0.95646 0.0
C435 C 0.42655 0.8064 0.94662 0.0
C436 C 0.41964 0.73262 0.94964 0.0
C437 C 0.4179 0.72559 0.92617 0.0
C438 C 0.42421 0.77862 0.93972 0.0
C439 C 0.42011 0.74605 0.90991 0.0
C440 C 0.42896 0.8268 0.9302 0.0
C441 C 0.42872 0.83746 0.97694 0.0
N442 N 0.42304 0.77164 0.91699 0.0
N443 N 0.42631 0.81235 0.9694 0.0
H444 H 0.57119 0.42104 0.15099 0.0
H445 H 0.69025 0.42698 0.06177 0.0
H446 H 0.57729 0.44897 0.08037 0.0
H447 H 0.67408 0.38565 0.12832 0.0
H448 H 0.65127 0.4384 0.06936 0.0
H449 H 0.61036 0.4098 0.14372 0.0
C450 C 0.58051 0.42449 0.13389 0.0
C451 C 0.57098 0.43602 0.11628 0.0
C452 C 0.65631 0.42688 0.08232 0.0
C453 C 0.61623 0.42378 0.10798 0.0
C454 C 0.67866 0.4205 0.07805 0.0
C455 C 0.68535 0.40526 0.09441 0.0
C456 C 0.64063 0.41807 0.10314 0.0
C457 C 0.66958 0.39734 0.11518 0.0
C458 C 0.60304 0.4183 0.12981 0.0
C459 C 0.58426 0.44054 0.09456 0.0
N460 N 0.64792 0.40381 0.11894 0.0
N461 N 0.60626 0.4345 0.09106 0.0
H462 H 0.42992 0.87614 0.55585 0.0
H463 H 0.31999 0.71435 0.50838 0.0
H464 H 0.41951 0.85213 0.48391 0.0
H465 H 0.31453 0.7413 0.57734 0.0
H466 H 0.35963 0.76404 0.50008 0.0
H467 H 0.39132 0.82585 0.56518 0.0
C468 C 0.41972 0.86019 0.54208 0.0
C469 C 0.42776 0.86823 0.51908 0.0
C470 C 0.34973 0.75916 0.51702 0.0
C471 C 0.38366 0.81101 0.52954 0.0
C472 C 0.32707 0.73076 0.52178 0.0
C473 C 0.3139 0.72368 0.54359 0.0
C474 C 0.35954 0.78068 0.53423 0.0
C475 C 0.32399 0.74587 0.56027 0.0
C476 C 0.39757 0.83162 0.54737 0.0
C477 C 0.41371 0.84686 0.50184 0.0
N478 N 0.34634 0.77341 0.55527 0.0
N479 N 0.39235 0.81925 0.50742 0.0
H480 H 0.55387 0.4286 0.71368 0.0
H481 H 0.60357 0.31504 0.67939 0.0
H482 H 0.57209 0.41455 0.64409 0.0
H483 H 0.56686 0.31472 0.74578 0.0
H484 H 0.59549 0.35404 0.66711 0.0
H485 H 0.56254 0.38993 0.72684 0.0
C486 C 0.55997 0.41756 0.70122 0.0
C487 C 0.56223 0.42472 0.67776 0.0
C488 C 0.58909 0.34541 0.68434 0.0
C489 C 0.57192 0.38044 0.69261 0.0
C490 C 0.59371 0.32313 0.6914 0.0
C491 C 0.58585 0.31158 0.71366 0.0
C492 C 0.57673 0.35651 0.6997 0.0
C493 C 0.57313 0.32292 0.72843 0.0
C494 C 0.56466 0.39535 0.7087 0.0
C495 C 0.56983 0.40951 0.6623 0.0
N496 N 0.56908 0.34489 0.72122 0.0
N497 N 0.57443 0.38814 0.67 0.0
H498 H 0.16699 0.57552 0.8223 0.0
H499 H 0.28484 0.61731 0.92642 0.0
H500 H 0.1406 0.55557 0.8933 0.0
H501 H 0.30626 0.6154 0.85503 0.0
H502 H 0.23275 0.59968 0.91485 0.0
H503 H 0.21938 0.59603 0.83431 0.0
C504 C 0.17229 0.57576 0.84045 0.0
C505 C 0.14948 0.5638 0.85684 0.0
C506 C 0.24889 0.60311 0.90175 0.0
C507 C 0.20923 0.58694 0.87068 0.0
C508 C 0.2786 0.61319 0.90833 0.0
C509 C 0.29989 0.61775 0.89167 0.0
C510 C 0.24054 0.59787 0.87834 0.0
C511 C 0.29057 0.61206 0.86847 0.0
C512 C 0.20213 0.58723 0.84727 0.0
C513 C 0.15753 0.56432 0.8801 0.0
N514 N 0.26161 0.60251 0.8625 0.0
N515 N 0.18677 0.57571 0.88635 0.0
H516 H 0.60832 0.1375 0.03182 0.0
H517 H 0.65828 0.3039 0.05052 0.0
H518 H 0.54545 0.16747 0.02964 0.0
H519 H 0.71247 0.26802 0.07199 0.0
H520 H 0.61778 0.25499 0.03986 0.0
H521 H 0.64789 0.18617 0.04343 0.0
C522 C 0.60273 0.15425 0.03395 0.0
C523 C 0.57333 0.14821 0.03 0.0
C524 C 0.63848 0.25781 0.04699 0.0
C525 C 0.6189 0.2043 0.04287 0.0
C526 C 0.66165 0.28572 0.05303 0.0
C527 C 0.68884 0.29003 0.06211 0.0
C528 C 0.64263 0.23409 0.04979 0.0
C529 C 0.69188 0.26568 0.06509 0.0
C530 C 0.62542 0.18209 0.04049 0.0
C531 C 0.56777 0.17112 0.03235 0.0
N532 N 0.6691 0.23874 0.0588 0.0
N533 N 0.59036 0.19818 0.03864 0.0
H534 H 0.43106 0.60707 0.1395 0.0
H535 H 0.42286 0.70071 0.24356 0.0
H536 H 0.43784 0.58884 0.21108 0.0
H537 H 0.40826 0.71283 0.172 0.0
H538 H 0.43108 0.66137 0.23214 0.0
H539 H 0.42453 0.64717 0.15127 0.0
C540 C 0.43117 0.61155 0.15772 0.0
C541 C 0.43509 0.59468 0.17434 0.0
C542 C 0.42618 0.67273 0.21896 0.0
C543 C 0.42759 0.64057 0.18798 0.0
C544 C 0.42165 0.69529 0.22544 0.0
C545 C 0.41478 0.71003 0.20871 0.0
C546 C 0.42391 0.66496 0.19558 0.0
C547 C 0.41339 0.70202 0.1855 0.0
C548 C 0.42737 0.6344 0.16444 0.0
C549 C 0.43462 0.60116 0.19771 0.0
N550 N 0.41784 0.68001 0.17965 0.0
N551 N 0.43108 0.62371 0.20385 0.0
H552 H 0.83135 0.41047 0.35027 0.0
H553 H 0.72661 0.47381 0.38376 0.0
H554 H 0.86198 0.50227 0.35204 0.0
H555 H 0.69421 0.3821 0.37513 0.0
H556 H 0.77708 0.48475 0.37431 0.0
H557 H 0.78159 0.39964 0.36191 0.0
C558 C 0.82764 0.42834 0.35326 0.0
C559 C 0.85075 0.45729 0.35005 0.0
C560 C 0.7589 0.46223 0.37449 0.0
C561 C 0.79391 0.44511 0.3632 0.0
C562 C 0.73009 0.45598 0.37988 0.0
C563 C 0.70613 0.42701 0.38017 0.0
C564 C 0.76378 0.43934 0.36941 0.0
C565 C 0.71198 0.40478 0.37505 0.0
C566 C 0.79921 0.42216 0.35977 0.0
C567 C 0.84465 0.47961 0.35396 0.0
N568 N 0.74019 0.41141 0.36989 0.0
N569 N 0.81682 0.47305 0.36031 0.0
H570 H 0.09557 0.50543 0.42139 0.0
H571 H 0.20102 0.63533 0.50737 0.0
H572 H 0.104 0.59003 0.41841 0.0
H573 H 0.16417 0.54493 0.5252 0.0
H574 H 0.17106 0.62002 0.47175 0.0
H575 H 0.12585 0.52045 0.45682 0.0
C576 C 0.10359 0.52709 0.42817 0.0
C577 C 0.09701 0.54641 0.41679 0.0
C578 C 0.16952 0.60356 0.48348 0.0
C579 C 0.13235 0.56389 0.45712 0.0
C580 C 0.18668 0.61225 0.50377 0.0
C581 C 0.18502 0.59135 0.5193 0.0
C582 C 0.15089 0.57375 0.4785 0.0
C583 C 0.16601 0.56175 0.51375 0.0
C584 C 0.12101 0.53566 0.44836 0.0
C585 C 0.10878 0.57447 0.42624 0.0
N586 N 0.14977 0.55381 0.49373 0.0
N587 N 0.12592 0.58236 0.44579 0.0
H588 H 0.56202 0.14463 0.57676 0.0
H589 H 0.56949 0.14022 0.71465 0.0
H590 H 0.54993 0.07019 0.61504 0.0
H591 H 0.58505 0.21583 0.67621 0.0
H592 H 0.56173 0.11401 0.67835 0.0
H593 H 0.56983 0.17086 0.61307 0.0
C594 C 0.56091 0.13377 0.59281 0.0
C595 C 0.55534 0.10517 0.59285 0.0
C596 C 0.56685 0.13634 0.67786 0.0
C597 C 0.56445 0.13513 0.63449 0.0
C598 C 0.57126 0.15132 0.69859 0.0
C599 C 0.57792 0.18027 0.69849 0.0
C600 C 0.56906 0.15038 0.65686 0.0
C601 C 0.57996 0.19353 0.67714 0.0
C602 C 0.56552 0.1488 0.61353 0.0
C603 C 0.55455 0.09233 0.61416 0.0
N604 N 0.57553 0.17848 0.6572 0.0
N605 N 0.559 0.10737 0.63411 0.0
H606 H 0.4979 0.61378 0.73525 0.0
H607 H 0.37555 0.56181 0.83455 0.0
H608 H 0.42467 0.52523 0.74331 0.0
H609 H 0.44785 0.65099 0.82727 0.0
H610 H 0.3934 0.54843 0.80091 0.0
H611 H 0.48025 0.62816 0.76873 0.0
C612 C 0.47818 0.59734 0.7441 0.0
C613 C 0.46274 0.56823 0.73644 0.0
C614 C 0.4054 0.57094 0.80662 0.0
C615 C 0.44229 0.5846 0.77465 0.0
C616 C 0.39521 0.57863 0.82587 0.0
C617 C 0.41024 0.60759 0.83378 0.0
C618 C 0.43088 0.59233 0.79509 0.0
C619 C 0.43558 0.6284 0.82178 0.0
C620 C 0.46803 0.6056 0.76314 0.0
C621 C 0.43706 0.54797 0.74839 0.0
N622 N 0.44513 0.62035 0.80302 0.0
N623 N 0.42771 0.55652 0.76689 0.0
H624 H 0.88521 0.47267 0.9094 0.0
H625 H 0.80826 0.3565 0.01056 0.0
H626 H 0.89114 0.39545 0.91632 0.0
H627 H 0.79639 0.43002 0.00122 0.0
H628 H 0.83876 0.37065 0.97605 0.0
H629 H 0.85233 0.45738 0.9427 0.0
C630 C 0.87939 0.45236 0.91778 0.0
C631 C 0.89103 0.43534 0.91005 0.0
C632 C 0.82946 0.38369 0.9815 0.0
C633 C 0.85372 0.41793 0.94842 0.0
C634 C 0.81206 0.37564 0.00125 0.0
C635 C 0.79979 0.39214 0.00883 0.0
C636 C 0.83477 0.4085 0.96921 0.0
C637 C 0.80542 0.41668 0.99601 0.0
C638 C 0.86075 0.44374 0.93689 0.0
C639 C 0.88308 0.40948 0.92186 0.0
N640 N 0.82258 0.42416 0.97685 0.0
N641 N 0.86499 0.40161 0.94046 0.0
H642 H 0.40226 0.86522 0.07638 0.0
H643 H 0.39416 0.86285 0.21425 0.0
H644 H 0.42773 0.94122 0.11828 0.0
H645 H 0.38622 0.79164 0.17359 0.0
H646 H 0.39947 0.88969 0.17879 0.0
H647 H 0.389 0.8357 0.11143 0.0
C648 C 0.40472 0.8756 0.09294 0.0
C649 C 0.41635 0.90572 0.09449 0.0
C650 C 0.39644 0.86814 0.17763 0.0
C651 C 0.40142 0.87224 0.13456 0.0
C652 C 0.39335 0.85277 0.19787 0.0
C653 C 0.38999 0.82505 0.19691 0.0
C654 C 0.39602 0.85566 0.15624 0.0
C655 C 0.38901 0.81305 0.17516 0.0
C656 C 0.39734 0.85881 0.11293 0.0
C657 C 0.41928 0.91813 0.11637 0.0
N658 N 0.39211 0.82847 0.1557 0.0
N659 N 0.41196 0.90137 0.13554 0.0
H660 H 0.49757 0.4412 0.26299 0.0
H661 H 0.6091 0.38604 0.29993 0.0
H662 H 0.55617 0.43275 0.21579 0.0
H663 H 0.55326 0.3977 0.34788 0.0
H664 H 0.58787 0.40055 0.26854 0.0
H665 H 0.51559 0.42276 0.29395 0.0
C666 C 0.51409 0.4353 0.2591 0.0
C667 C 0.52547 0.43867 0.23677 0.0
C668 C 0.58017 0.39984 0.28592 0.0
C669 C 0.54638 0.41773 0.27218 0.0
C670 C 0.59225 0.39149 0.30386 0.0
C671 C 0.58304 0.39074 0.32661 0.0
C672 C 0.55869 0.40751 0.29071 0.0
C673 C 0.56109 0.39803 0.33063 0.0
C674 C 0.52448 0.4249 0.27681 0.0
C675 C 0.54711 0.43097 0.23281 0.0
N676 N 0.54975 0.40619 0.31287 0.0
N677 N 0.55687 0.4209 0.25033 0.0
H678 H 0.5145 0.91692 0.39023 0.0
H679 H 0.36729 0.81326 0.31463 0.0
H680 H 0.43098 0.91546 0.39513 0.0
H681 H 0.45368 0.82382 0.30047 0.0
H682 H 0.39 0.84823 0.34613 0.0
H683 H 0.49237 0.88047 0.35916 0.0
C684 C 0.49151 0.90889 0.38479 0.0
C685 C 0.47459 0.91935 0.39516 0.0
C686 C 0.40405 0.84295 0.33617 0.0
C687 C 0.44921 0.87778 0.35978 0.0
C688 C 0.39107 0.82288 0.31817 0.0
C689 C 0.40862 0.81563 0.30483 0.0
C690 C 0.43487 0.85589 0.34101 0.0
C691 C 0.43933 0.82884 0.31029 0.0
C692 C 0.47896 0.88822 0.36702 0.0
C693 C 0.44499 0.90836 0.38738 0.0
N694 N 0.45151 0.84837 0.32799 0.0
N695 N 0.43326 0.88817 0.37022 0.0
H696 H 0.5909 0.4636 0.56103 0.0
H697 H 0.59244 0.46569 0.42298 0.0
H698 H 0.55551 0.5062 0.51934 0.0
H699 H 0.61513 0.41233 0.46425 0.0
H700 H 0.58497 0.48582 0.4583 0.0
H701 H 0.6063 0.44986 0.52588 0.0
C702 C 0.58668 0.47032 0.54449 0.0
C703 C 0.57166 0.48581 0.54306 0.0
C704 C 0.59172 0.46981 0.45962 0.0
C705 C 0.58899 0.47005 0.50284 0.0
C706 C 0.59605 0.45834 0.43946 0.0
C707 C 0.60417 0.43711 0.44066 0.0
C708 C 0.59564 0.46004 0.48114 0.0
C709 C 0.60863 0.42849 0.4625 0.0
C710 C 0.5953 0.46234 0.52444 0.0
C711 C 0.56656 0.49381 0.52118 0.0
N712 N 0.60419 0.4399 0.48188 0.0
N713 N 0.5751 0.48575 0.50194 0.0
H714 H 0.10646 0.50818 0.72324 0.0
H715 H 0.19414 0.63729 0.63283 0.0
H716 H 0.10551 0.58836 0.72495 0.0
H717 H 0.20028 0.55989 0.63559 0.0
H718 H 0.1615 0.61994 0.66641 0.0
H719 H 0.141 0.52708 0.69108 0.0
C720 C 0.1137 0.52988 0.71699 0.0
C721 C 0.10304 0.54669 0.72686 0.0
C722 C 0.17007 0.60682 0.65968 0.0
C723 C 0.14233 0.56835 0.6897 0.0
C724 C 0.18868 0.6167 0.64051 0.0
C725 C 0.19991 0.6 0.63135 0.0
C726 C 0.16259 0.58002 0.6697 0.0
C727 C 0.19214 0.5735 0.64202 0.0
C728 C 0.13331 0.5406 0.69851 0.0
C729 C 0.11282 0.57446 0.71769 0.0
N730 N 0.17392 0.56432 0.66056 0.0
N731 N 0.13187 0.58439 0.69961 0.0
H732 H 0.48847 0.1095 0.90157 0.0
H733 H 0.62216 0.19258 0.81216 0.0
H734 H 0.5648 0.09824 0.89778 0.0
H735 H 0.54103 0.19605 0.80878 0.0
H736 H 0.60235 0.16017 0.84508 0.0
H737 H 0.50793 0.14289 0.86889 0.0
C738 C 0.50923 0.11391 0.89383 0.0
C739 C 0.52501 0.10099 0.90251 0.0
C740 C 0.58882 0.16798 0.83718 0.0
C741 C 0.54758 0.13952 0.86528 0.0
C742 C 0.60016 0.18659 0.81836 0.0
C743 C 0.58321 0.19704 0.80762 0.0
C744 C 0.56029 0.15972 0.84548 0.0
C745 C 0.55485 0.18848 0.8165 0.0
C746 C 0.52039 0.1331 0.87524 0.0
C747 C 0.55206 0.10796 0.89197 0.0
N748 N 0.54426 0.17029 0.83493 0.0
N749 N 0.56244 0.1267 0.87396 0.0
H750 H 0.38185 0.50301 0.04322 0.0
H751 H 0.43543 0.6288 0.94865 0.0
H752 H 0.47068 0.57945 0.04137 0.0
H753 H 0.34691 0.55168 0.94832 0.0
H754 H 0.44822 0.61102 0.983 0.0
H755 H 0.36792 0.52068 0.0091 0.0
C756 C 0.39836 0.52359 0.03573 0.0
C757 C 0.42752 0.53972 0.04511 0.0
C758 C 0.42599 0.59793 0.97544 0.0
C759 C 0.41183 0.55992 0.00599 0.0
C760 C 0.41866 0.60807 0.95577 0.0
C761 C 0.39004 0.59169 0.94554 0.0
C762 C 0.40457 0.57119 0.98506 0.0
C763 C 0.36926 0.56501 0.95561 0.0
C764 C 0.39045 0.53357 0.01618 0.0
C765 C 0.4481 0.56607 0.03453 0.0
N766 N 0.37693 0.55559 0.97483 0.0
N767 N 0.43986 0.57531 0.01557 0.0
H768 H 0.86083 0.42844 0.23443 0.0
H769 H 0.85782 0.44932 0.09836 0.0
H770 H 0.94062 0.47735 0.19387 0.0
H771 H 0.78065 0.38526 0.13592 0.0
H772 H 0.88819 0.46102 0.13355 0.0
H773 H 0.83066 0.41321 0.19889 0.0
C774 C 0.87206 0.43582 0.21808 0.0
C775 C 0.90335 0.45439 0.2172 0.0
C776 C 0.86465 0.44428 0.13409 0.0
C777 C 0.86887 0.43735 0.17648 0.0
C778 C 0.84728 0.43763 0.114 0.0
C779 C 0.81663 0.41634 0.11421 0.0
C780 C 0.85125 0.42976 0.15464 0.0
C781 C 0.8042 0.40182 0.13497 0.0
C782 C 0.85479 0.4272 0.1978 0.0
C783 C 0.91655 0.46354 0.19548 0.0
N784 N 0.82152 0.40894 0.15441 0.0
N785 N 0.89925 0.45504 0.17603 0.0
loop_
_geom_bond_atom_site_label_1
_geom_bond_atom_site_label_2
_geom_bond_distance
_geom_bond_site_symmetry_2
_ccdc_geom_bond_type
C0 C1 1.384 . S
C0 C2 1.384 . S
C0 H28 0.931 . S
C1 C0 1.384 . S
C1 C4 1.382 . S
C2 C0 1.384 . S
C2 C3 1.381 . S
C2 H29 0.930 . S
C3 C2 1.381 . S
C3 C5 1.381 . S
C3 C6 1.487 . S
C4 C1 1.382 . S
C4 C5 1.387 . S
C4 H30 0.930 . S
C5 C3 1.381 . S
C5 C4 1.387 . S
C5 H31 0.931 . S
C6 C3 1.487 . S
C6 C13 1.399 . S
C6 N44 1.343 . S
C7 C8 1.384 . S
C7 C9 1.384 . S
C7 H32 0.931 . S
C8 C7 1.384 . S
C8 C11 1.382 . S
C9 C7 1.384 . S
C9 C10 1.381 . S
C9 H33 0.930 . S
C10 C9 1.381 . S
C10 C12 1.381 . S
C10 C13 1.487 . S
C11 C8 1.382 . S
C11 C12 1.387 . S
C11 H34 0.930 . S
C12 C10 1.381 . S
C12 C11 1.387 . S
C12 H35 0.931 . S
C13 C6 1.399 . S
C13 C10 1.487 . S
C13 N45 1.343 1_655 S
C14 C15 1.384 . S
C14 C16 1.384 . S
C14 H36 0.931 . S
C15 C14 1.384 . S
C15 C18 1.382 . S
C16 C14 1.384 . S
C16 C17 1.381 . S
C16 H37 0.930 . S
C17 C16 1.381 . S
C17 C19 1.381 . S
C17 C20 1.487 . S
C18 C15 1.382 . S
C18 C19 1.387 . S
C18 H38 0.930 . S
C19 C17 1.381 . S
C19 C18 1.387 . S
C19 H39 0.931 . S
C20 C17 1.487 . S
C20 C27 1.399 . S
C20 N45 1.343 . S
C21 C22 1.384 . S
C21 C23 1.384 . S
C21 H40 0.931 . S
C22 C21 1.384 . S
C22 C25 1.382 . S
C23 C21 1.384 . S
C23 C24 1.381 . S
C23 H41 0.930 . S
C24 C23 1.381 . S
C24 C26 1.381 . S
C24 C27 1.487 . S
C25 C22 1.382 . S
C25 C26 1.387 . S
C25 H42 0.930 . S
C26 C24 1.381 . S
C26 C25 1.387 . S
C26 H43 0.931 . S
C27 C20 1.399 . S
C27 C24 1.487 . S
C27 N44 1.343 1_455 S
H28 C0 0.931 . S
H29 C2 0.930 . S
H30 C4 0.930 . S
H31 C5 0.931 . S
H32 C7 0.931 . S
H33 C9 0.930 . S
H34 C11 0.930 . S
H35 C12 0.931 . S
H36 C14 0.931 . S
H37 C16 0.930 . S
H38 C18 0.930 . S
H39 C19 0.931 . S
H40 C21 0.931 . S
H41 C23 0.930 . S
H42 C25 0.930 . S
H43 C26 0.931 . S
N44 C6 1.343 . S
N44 C27 1.343 1_655 S
N45 C13 1.343 1_455 S
N45 C20 1.343 . S
C46 C47 1.384 . S
C46 C48 1.384 . S
C46 H74 0.931 . S
C47 C46 1.384 . S
C47 C50 1.382 . S
C48 C46 1.384 . S
C48 C49 1.381 . S
C48 H75 0.930 . S
C49 C48 1.381 . S
C49 C51 1.381 . S
C49 C52 1.487 . S
C50 C47 1.382 . S
C50 C51 1.387 . S
C50 H76 0.930 . S
C51 C49 1.381 . S
C51 C50 1.387 . S
C51 H77 0.931 . S
C52 C49 1.487 . S
C52 C59 1.399 . S
C52 N90 1.343 1_565 S
C53 C54 1.384 . S
C53 C55 1.384 . S
C53 H78 0.931 . S
C54 C53 1.384 . S
C54 C57 1.382 . S
C55 C53 1.384 . S
C55 C56 1.381 . S
C55 H79 0.930 . S
C56 C55 1.381 . S
C56 C58 1.381 . S
C56 C59 1.487 . S
C57 C54 1.382 . S
C57 C58 1.387 . S
C57 H80 0.930 . S
C58 C56 1.381 . S
C58 C57 1.387 . S
C58 H81 0.931 . S
C59 C52 1.399 . S
C59 C56 1.487 . S
C59 N91 1.343 1_565 S
C60 C61 1.384 . S
C60 C62 1.384 . S
C60 H82 0.931 . S
C61 C60 1.384 . S
C61 C64 1.382 . S
C62 C60 1.384 . S
C62 C63 1.381 . S
C62 H83 0.930 . S
C63 C62 1.381 . S
C63 C65 1.381 . S
C63 C66 1.487 . S
C64 C61 1.382 . S
C64 C65 1.387 . S
C64 H84 0.930 . S
C65 C63 1.381 . S
C65 C64 1.387 . S
C65 H85 0.931 . S
C66 C63 1.487 . S
C66 C73 1.399 . S
C66 N91 1.343 . S
C67 C68 1.384 . S
C67 C69 1.384 . S
C67 H86 0.931 . S
C68 C67 1.384 . S
C68 C71 1.382 . S
C69 C67 1.384 . S
C69 C70 1.381 . S
C69 H87 0.930 . S
C70 C69 1.381 . S
C70 C72 1.381 . S
C70 C73 1.487 . S
C71 C68 1.382 . S
C71 C72 1.387 . S
C71 H88 0.930 . S
C72 C70 1.381 . S
C72 C71 1.387 . S
C72 H89 0.931 . S
C73 C66 1.399 . S
C73 C70 1.487 . S
C73 N90 1.343 . S
H74 C46 0.931 . S
H75 C48 0.930 . S
H76 C50 0.930 . S
H77 C51 0.931 . S
H78 C53 0.931 . S
H79 C55 0.930 . S
H80 C57 0.930 . S
H81 C58 0.931 . S
H82 C60 0.931 . S
H83 C62 0.930 . S
H84 C64 0.930 . S
H85 C65 0.931 . S
H86 C67 0.931 . S
H87 C69 0.930 . S
H88 C71 0.930 . S
H89 C72 0.931 . S
N90 C52 1.343 1_545 S
N90 C73 1.343 . S
N91 C59 1.343 1_545 S
N91 C66 1.343 . S
C92 C93 1.384 . S
C92 C94 1.384 . S
C92 H120 0.931 . S
C93 C92 1.384 . S
C93 C96 1.382 . S
C94 C92 1.384 . S
C94 C95 1.381 . S
C94 H121 0.930 . S
C95 C94 1.381 . S
C95 C97 1.381 . S
C95 C98 1.487 . S
C96 C93 1.382 . S
C96 C97 1.387 . S
C96 H122 0.930 . S
C97 C95 1.381 . S
C97 C96 1.387 . S
C97 H123 0.931 . S
C98 C95 1.487 . S
C98 C105 1.399 . S
C98 N136 1.343 . S
C99 C100 1.384 . S
C99 C101 1.384 . S
C99 H124 0.931 . S
C100 C99 1.384 . S
C100 C103 1.382 . S
C101 C99 1.384 . S
C101 C102 1.381 . S
C101 H125 0.930 . S
C102 C101 1.381 . S
C102 C104 1.381 . S
C102 C105 1.487 . S
C103 C100 1.382 . S
C103 C104 1.387 . S
C103 H126 0.930 . S
C104 C102 1.381 . S
C104 C103 1.387 . S
C104 H127 0.931 . S
C105 C98 1.399 . S
C105 C102 1.487 . S
C105 N137 1.343 . S
C106 C107 1.384 . S
C106 C108 1.384 . S
C106 H128 0.931 . S
C107 C106 1.384 . S
C107 C110 1.382 . S
C108 C106 1.384 . S
C108 C109 1.381 . S
C108 H129 0.930 . S
C109 C108 1.381 . S
C109 C111 1.381 . S
C109 C112 1.487 . S
C110 C107 1.382 . S
C110 C111 1.387 . S
C110 H130 0.930 . S
C111 C109 1.381 . S
C111 C110 1.387 . S
C111 H131 0.931 . S
C112 C109 1.487 . S
C112 C119 1.399 . S
C112 N137 1.343 . S
C113 C114 1.384 . S
C113 C115 1.384 . S
C113 H132 0.931 . S
C114 C113 1.384 . S
C114 C117 1.382 . S
C115 C113 1.384 . S
C115 C116 1.381 . S
C115 H133 0.930 . S
C116 C115 1.381 . S
C116 C118 1.381 . S
C116 C119 1.487 . S
C117 C114 1.382 . S
C117 C118 1.387 . S
C117 H134 0.930 . S
C118 C116 1.381 . S
C118 C117 1.387 . S
C118 H135 0.931 . S
C119 C112 1.399 . S
C119 C116 1.487 . S
C119 N136 1.343 . S
H120 C92 0.931 . S
H121 C94 0.930 . S
H122 C96 0.930 . S
H123 C97 0.931 . S
H124 C99 0.931 . S
H125 C101 0.930 . S
H126 C103 0.930 . S
H127 C104 0.931 . S
H128 C106 0.931 . S
H129 C108 0.930 . S
H130 C110 0.930 . S
H131 C111 0.931 . S
H132 C113 0.931 . S
H133 C115 0.930 . S
H134 C117 0.930 . S
H135 C118 0.931 . S
N136 C98 1.343 . S
N136 C119 1.343 . S
N137 C105 1.343 . S
N137 C112 1.343 . S
C138 C139 1.384 . S
C138 C140 1.384 . S
C138 H166 0.931 . S
C139 C138 1.384 . S
C139 C142 1.382 . S
C140 C138 1.384 . S
C140 C141 1.381 . S
C140 H167 0.930 . S
C141 C140 1.381 . S
C141 C143 1.381 . S
C141 C144 1.487 . S
C142 C139 1.382 . S
C142 C143 1.387 . S
C142 H168 0.930 . S
C143 C141 1.381 . S
C143 C142 1.387 . S
C143 H169 0.931 . S
C144 C141 1.487 . S
C144 C151 1.399 . S
C144 N182 1.343 . S
C145 C146 1.384 . S
C145 C147 1.384 . S
C145 H170 0.931 . S
C146 C145 1.384 . S
C146 C149 1.382 . S
C147 C145 1.384 . S
C147 C148 1.381 . S
C147 H171 0.930 . S
C148 C147 1.381 . S
C148 C150 1.381 . S
C148 C151 1.487 . S
C149 C146 1.382 . S
C149 C150 1.387 . S
C149 H172 0.930 . S
C150 C148 1.381 . S
C150 C149 1.387 . S
C150 H173 0.931 . S
C151 C144 1.399 . S
C151 C148 1.487 . S
C151 N183 1.343 1_655 S
C152 C153 1.384 . S
C152 C154 1.384 . S
C152 H174 0.931 . S
C153 C152 1.384 . S
C153 C156 1.382 . S
C154 C152 1.384 . S
C154 C155 1.381 . S
C154 H175 0.930 . S
C155 C154 1.381 . S
C155 C157 1.381 . S
C155 C158 1.487 . S
C156 C153 1.382 . S
C156 C157 1.387 . S
C156 H176 0.930 . S
C157 C155 1.381 . S
C157 C156 1.387 . S
C157 H177 0.931 . S
C158 C155 1.487 . S
C158 C165 1.399 . S
C158 N183 1.343 . S
C159 C160 1.384 . S
C159 C161 1.384 . S
C159 H178 0.931 . S
C160 C159 1.384 . S
C160 C163 1.382 . S
C161 C159 1.384 . S
C161 C162 1.381 . S
C161 H179 0.930 . S
C162 C161 1.381 . S
C162 C164 1.381 . S
C162 C165 1.487 . S
C163 C160 1.382 . S
C163 C164 1.387 . S
C163 H180 0.930 . S
C164 C162 1.381 . S
C164 C163 1.387 . S
C164 H181 0.931 . S
C165 C158 1.399 . S
C165 C162 1.487 . S
C165 N182 1.343 1_455 S
H166 C138 0.931 . S
H167 C140 0.930 . S
H168 C142 0.930 . S
H169 C143 0.931 . S
H170 C145 0.931 . S
H171 C147 0.930 . S
H172 C149 0.930 . S
H173 C150 0.931 . S
H174 C152 0.931 . S
H175 C154 0.930 . S
H176 C156 0.930 . S
H177 C157 0.931 . S
H178 C159 0.931 . S
H179 C161 0.930 . S
H180 C163 0.930 . S
H181 C164 0.931 . S
N182 C144 1.343 . S
N182 C165 1.343 1_655 S
N183 C151 1.343 1_455 S
N183 C158 1.343 . S
C184 C185 1.384 . S
C184 C186 1.384 . S
C184 H212 0.931 . S
C185 C184 1.384 . S
C185 C188 1.382 . S
C186 C184 1.384 . S
C186 C187 1.381 . S
C186 H213 0.941 . S
C187 C186 1.381 . S
C187 C189 1.381 . S
C187 C190 1.487 . S
C188 C185 1.382 . S
C188 C189 1.387 . S
C188 H214 0.930 . S
C189 C187 1.381 . S
C189 C188 1.387 . S
C189 H215 0.931 . S
C190 C187 1.487 . S
C190 C197 1.399 1_556 S
C190 N228 1.331 1_565 S
C191 C192 1.384 . S
C191 C193 1.384 . S
C191 H216 0.931 . S
C192 C191 1.384 . S
C192 C195 1.382 . S
C193 C191 1.384 . S
C193 C194 1.381 . S
C193 H217 0.930 . S
C194 C193 1.381 . S
C194 C196 1.381 . S
C194 C197 1.487 . S
C195 C192 1.382 . S
C195 C196 1.387 . S
C195 H218 0.930 . S
C196 C194 1.381 . S
C196 C195 1.387 . S
C196 H219 0.931 . S
C197 C190 1.399 1_554 S
C197 C194 1.487 . S
C197 N229 1.343 1_565 S
C198 C199 1.384 . S
C198 C200 1.384 1_554 S
C198 H220 0.931 1_554 S
C199 C198 1.384 . S
C199 C202 1.382 . S
C200 C198 1.384 1_556 S
C200 C201 1.381 1_556 S
C200 H221 0.930 . S
C201 C200 1.381 1_554 S
C201 C203 1.381 . S
C201 C204 1.487 1_554 S
C202 C199 1.382 . S
C202 C203 1.387 . S
C202 H222 0.930 . S
C203 C201 1.381 . S
C203 C202 1.387 . S
C203 H223 0.931 . S
C204 C201 1.487 1_556 S
C204 C211 1.399 . S
C204 N229 1.343 1_556 S
C205 C206 1.384 . S
C205 C207 1.384 . S
C205 H224 0.931 . S
C206 C205 1.384 . S
C206 C209 1.382 . S
C207 C205 1.384 . S
C207 C208 1.381 . S
C207 H225 0.930 . S
C208 C207 1.381 . S
C208 C210 1.381 . S
C208 C211 1.487 . S
C209 C206 1.382 . S
C209 C210 1.387 . S
C209 H226 0.930 . S
C210 C208 1.381 . S
C210 C209 1.387 . S
C210 H227 0.931 . S
C211 C204 1.399 . S
C211 C208 1.487 . S
C211 N228 1.360 . S
H212 C184 0.931 . S
H213 C186 0.941 . S
H214 C188 0.930 . S
H215 C189 0.931 . S
H216 C191 0.931 . S
H217 C193 0.930 . S
H218 C195 0.930 . S
H219 C196 0.931 . S
H220 C198 0.931 1_556 S
H221 C200 0.930 . S
H222 C202 0.930 . S
H223 C203 0.931 . S
H224 C205 0.931 . S
H225 C207 0.930 . S
H226 C209 0.930 . S
H227 C210 0.931 . S
N228 C190 1.331 1_545 S
N228 C211 1.360 . S
N229 C197 1.343 1_545 S
N229 C204 1.343 1_554 S
C230 C231 1.384 . S
C230 C232 1.384 . S
C230 H258 0.931 . S
C231 C230 1.384 . S
C231 C234 1.382 . S
C232 C230 1.384 . S
C232 C233 1.381 . S
C232 H259 0.930 . S
C233 C232 1.381 . S
C233 C235 1.381 . S
C233 C236 1.487 . S
C234 C231 1.382 . S
C234 C235 1.387 . S
C234 H260 0.930 . S
C235 C233 1.381 . S
C235 C234 1.387 . S
C235 H261 0.931 . S
C236 C233 1.487 . S
C236 C243 1.399 . S
C236 N274 1.343 . S
C237 C238 1.384 . S
C237 C239 1.384 . S
C237 H262 0.931 . S
C238 C237 1.384 . S
C238 C241 1.382 . S
C239 C237 1.384 . S
C239 C240 1.381 . S
C239 H263 0.930 . S
C240 C239 1.381 . S
C240 C242 1.381 . S
C240 C243 1.487 . S
C241 C238 1.382 . S
C241 C242 1.387 . S
C241 H264 0.930 . S
C242 C240 1.381 . S
C242 C241 1.387 . S
C242 H265 0.931 . S
C243 C236 1.399 . S
C243 C240 1.487 . S
C243 N275 1.343 . S
C244 C245 1.384 . S
C244 C246 1.384 . S
C244 H266 0.931 . S
C245 C244 1.384 . S
C245 C248 1.382 . S
C246 C244 1.384 . S
C246 C247 1.381 . S
C246 H267 0.930 . S
C247 C246 1.381 . S
C247 C249 1.381 . S
C247 C250 1.487 . S
C248 C245 1.382 . S
C248 C249 1.387 . S
C248 H268 0.930 . S
C249 C247 1.381 . S
C249 C248 1.387 . S
C249 H269 0.931 . S
C250 C247 1.487 . S
C250 C257 1.399 . S
C250 N275 1.343 . S
C251 C252 1.384 . S
C251 C253 1.384 . S
C251 H270 0.931 . S
C252 C251 1.384 . S
C252 C255 1.382 . S
C253 C251 1.384 . S
C253 C254 1.381 . S
C253 H271 0.930 . S
C254 C253 1.381 . S
C254 C256 1.381 . S
C254 C257 1.487 . S
C255 C252 1.382 . S
C255 C256 1.387 . S
C255 H272 0.930 . S
C256 C254 1.381 . S
C256 C255 1.387 . S
C256 H273 0.931 . S
C257 C250 1.399 . S
C257 C254 1.487 . S
C257 N274 1.343 . S
H258 C230 0.931 . S
H259 C232 0.930 . S
H260 C234 0.930 . S
H261 C235 0.931 . S
H262 C237 0.931 . S
H263 C239 0.930 . S
H264 C241 0.930 . S
H265 C242 0.931 . S
H266 C244 0.931 . S
H267 C246 0.930 . S
H268 C248 0.930 . S
H269 C249 0.931 . S
H270 C251 0.931 . S
H271 C253 0.930 . S
H272 C255 0.930 . S
H273 C256 0.931 . S
N274 C236 1.343 . S
N274 C257 1.343 . S
N275 C243 1.343 . S
N275 C250 1.343 . S
C276 O277 1.160 . S
C276 O283 1.185 . S
O277 C276 1.160 . S
O278 Zn279 1.899 . S
O278 C286 1.284 . S
Zn279 O278 1.899 . S
Zn279 O280 2.032 . S
Zn279 O283 2.086 . S
Zn279 O288 1.977 . S
O280 Zn279 2.032 . S
O280 C284 1.278 . S
C281 O282 1.203 . S
C281 O288 1.267 . S
O282 C281 1.203 . S
O283 C276 1.185 . S
O283 Zn279 2.086 . S
C284 O280 1.278 . S
C284 O285 1.211 . S
O285 C284 1.211 . S
C286 O278 1.284 . S
C286 O287 1.273 . S
O287 C286 1.273 . S
O288 Zn279 1.977 . S
O288 C281 1.267 . S
C289 O290 1.160 . S
C289 O296 1.185 . S
O290 C289 1.160 . S
O291 Zn292 1.899 . S
O291 C299 1.284 . S
Zn292 O291 1.899 . S
Zn292 O293 2.032 . S
Zn292 O296 2.086 . S
Zn292 O301 1.977 . S
O293 Zn292 2.032 . S
O293 C297 1.278 . S
C294 O295 1.203 . S
C294 O301 1.267 . S
O295 C294 1.203 . S
O296 C289 1.185 . S
O296 Zn292 2.086 . S
C297 O293 1.278 . S
C297 O298 1.211 . S
O298 C297 1.211 . S
C299 O291 1.284 . S
C299 O300 1.273 . S
O300 C299 1.273 . S
O301 Zn292 1.977 . S
O301 C294 1.267 . S
C302 O303 1.160 . S
C302 O309 1.185 . S
O303 C302 1.160 . S
O304 Zn305 1.899 . S
O304 C312 1.284 . S
Zn305 O304 1.899 . S
Zn305 O306 2.032 . S
Zn305 O309 2.086 . S
Zn305 O314 1.977 . S
O306 Zn305 2.032 . S
O306 C310 1.278 . S
C307 O308 1.203 . S
C307 O314 1.267 . S
O308 C307 1.203 . S
O309 C302 1.185 . S
O309 Zn305 2.086 . S
C310 O306 1.278 . S
C310 O311 1.211 . S
O311 C310 1.211 . S
C312 O304 1.284 . S
C312 O313 1.273 . S
O313 C312 1.273 . S
O314 Zn305 1.977 . S
O314 C307 1.267 . S
C315 O316 1.160 . S
C315 O322 1.185 . S
O316 C315 1.160 . S
O317 Zn318 1.899 . S
O317 C325 1.284 . S
Zn318 O317 1.899 . S
Zn318 O319 2.032 . S
Zn318 O322 2.086 . S
Zn318 O327 1.977 . S
O319 Zn318 2.032 . S
O319 C323 1.278 . S
C320 O321 1.203 . S
C320 O327 1.267 . S
O321 C320 1.203 . S
O322 C315 1.185 . S
O322 Zn318 2.086 . S
C323 O319 1.278 . S
C323 O324 1.211 . S
O324 C323 1.211 . S
C325 O317 1.284 . S
C325 O326 1.273 . S
O326 C325 1.273 . S
O327 Zn318 1.977 . S
O327 C320 1.267 . S
C328 O329 1.160 . S
C328 O335 1.185 . S
O329 C328 1.160 . S
O330 Zn331 1.899 . S
O330 C338 1.284 . S
Zn331 O330 1.899 . S
Zn331 O332 2.032 . S
Zn331 O335 2.086 . S
Zn331 O340 1.977 . S
O332 Zn331 2.032 . S
O332 C336 1.278 . S
C333 O334 1.203 . S
C333 O340 1.267 . S
O334 C333 1.203 . S
O335 C328 1.185 . S
O335 Zn331 2.086 . S
C336 O332 1.278 . S
C336 O337 1.211 . S
O337 C336 1.211 . S
C338 O330 1.284 . S
C338 O339 1.273 . S
O339 C338 1.273 . S
O340 Zn331 1.977 . S
O340 C333 1.267 . S
C341 O342 1.160 . S
C341 O348 1.185 . S
O342 C341 1.160 . S
O343 Zn344 1.899 . S
O343 C351 1.284 . S
Zn344 O343 1.899 . S
Zn344 O345 2.032 . S
Zn344 O348 2.086 . S
Zn344 O353 1.977 . S
O345 Zn344 2.032 . S
O345 C349 1.278 . S
C346 O347 1.203 . S
C346 O353 1.267 . S
O347 C346 1.203 . S
O348 C341 1.185 . S
O348 Zn344 2.086 . S
C349 O345 1.278 . S
C349 O350 1.211 . S
O350 C349 1.211 . S
C351 O343 1.284 . S
C351 O352 1.273 . S
O352 C351 1.273 . S
O353 Zn344 1.977 . S
O353 C346 1.267 . S
H354 C360 0.930 . S
H355 C364 0.930 . S
H356 C369 0.929 . S
H357 C367 0.929 . S
H358 C362 0.929 . S
H359 C368 0.929 . S
C360 H354 0.930 . S
C360 C361 1.367 . S
C360 C368 1.378 . S
C361 C360 1.367 . S
C361 C369 1.433 . S
C362 H358 0.929 . S
C362 C364 1.378 . S
C362 C366 1.350 . S
C363 C366 1.463 . S
C363 C368 1.350 . S
C363 N371 1.427 . S
C364 H355 0.930 . S
C364 C362 1.378 . S
C364 C365 1.367 . S
C365 C364 1.367 . S
C365 C367 1.433 . S
C366 C362 1.350 . S
C366 C363 1.463 . S
C366 N370 1.427 . S
C367 H357 0.929 . S
C367 C365 1.433 . S
C367 N370 1.384 . S
C368 H359 0.929 . S
C368 C360 1.378 . S
C368 C363 1.350 . S
C369 H356 0.929 . S
C369 C361 1.433 . S
C369 N371 1.384 . S
N370 C366 1.427 . S
N370 C367 1.384 . S
N371 C363 1.427 . S
N371 C369 1.384 . S
H372 C378 0.930 . S
H373 C382 0.930 . S
H374 C387 0.929 . S
H375 C385 0.929 . S
H376 C380 0.929 . S
H377 C386 0.929 . S
C378 H372 0.930 . S
C378 C379 1.367 . S
C378 C386 1.378 . S
C379 C378 1.367 . S
C379 C387 1.433 . S
C380 H376 0.929 . S
C380 C382 1.378 . S
C380 C384 1.350 . S
C381 C384 1.463 . S
C381 C386 1.350 . S
C381 N389 1.427 . S
C382 H373 0.930 . S
C382 C380 1.378 . S
C382 C383 1.367 . S
C383 C382 1.367 . S
C383 C385 1.433 . S
C384 C380 1.350 . S
C384 C381 1.463 . S
C384 N388 1.427 . S
C385 H375 0.929 . S
C385 C383 1.433 . S
C385 N388 1.384 . S
C386 H377 0.929 . S
C386 C378 1.378 . S
C386 C381 1.350 . S
C387 H374 0.929 . S
C387 C379 1.433 . S
C387 N389 1.384 . S
N388 C384 1.427 . S
N388 C385 1.384 . S
N389 C381 1.427 . S
N389 C387 1.384 . S
H390 C396 0.930 . S
H391 C400 0.930 . S
H392 C405 0.929 . S
H393 C403 0.929 . S
H394 C398 0.929 . S
H395 C404 0.929 . S
C396 H390 0.930 . S
C396 C397 1.367 . S
C396 C404 1.378 . S
C397 C396 1.367 . S
C397 C405 1.433 . S
C398 H394 0.929 . S
C398 C400 1.378 . S
C398 C402 1.350 . S
C399 C402 1.463 . S
C399 C404 1.350 . S
C399 N407 1.427 . S
C400 H391 0.930 . S
C400 C398 1.378 . S
C400 C401 1.367 . S
C401 C400 1.367 . S
C401 C403 1.433 . S
C402 C398 1.350 . S
C402 C399 1.463 . S
C402 N406 1.427 . S
C403 H393 0.929 . S
C403 C401 1.433 . S
C403 N406 1.384 . S
C404 H395 0.929 . S
C404 C396 1.378 . S
C404 C399 1.350 . S
C405 H392 0.929 . S
C405 C397 1.433 . S
C405 N407 1.384 . S
N406 C402 1.427 . S
N406 C403 1.384 . S
N407 C399 1.427 . S
N407 C405 1.384 . S
H408 C414 0.930 . S
H409 C418 0.930 . S
H410 C423 0.929 . S
H411 C421 0.929 . S
H412 C416 0.929 . S
H413 C422 0.929 . S
C414 H408 0.930 . S
C414 C415 1.367 . S
C414 C422 1.378 . S
C415 C414 1.367 . S
C415 C423 1.433 . S
C416 H412 0.929 . S
C416 C418 1.378 . S
C416 C420 1.350 . S
C417 C420 1.463 . S
C417 C422 1.350 . S
C417 N425 1.427 . S
C418 H409 0.930 . S
C418 C416 1.378 . S
C418 C419 1.367 . S
C419 C418 1.367 . S
C419 C421 1.433 . S
C420 C416 1.350 . S
C420 C417 1.463 . S
C420 N424 1.427 . S
C421 H411 0.929 . S
C421 C419 1.433 . S
C421 N424 1.384 . S
C422 H413 0.929 . S
C422 C414 1.378 . S
C422 C417 1.350 . S
C423 H410 0.929 . S
C423 C415 1.433 . S
C423 N425 1.384 . S
N424 C420 1.427 . S
N424 C421 1.384 . S
N425 C417 1.427 . S
N425 C423 1.384 . S
H426 C432 0.930 . S
H427 C436 0.930 . S
H428 C441 0.929 . S
H429 C439 0.929 . S
H430 C434 0.929 . S
H431 C440 0.929 . S
C432 H426 0.930 . S
C432 C433 1.367 . S
C432 C440 1.378 . S
C433 C432 1.367 . S
C433 C441 1.433 . S
C434 H430 0.929 . S
C434 C436 1.378 . S
C434 C438 1.350 . S
C435 C438 1.463 . S
C435 C440 1.350 . S
C435 N443 1.427 . S
C436 H427 0.930 . S
C436 C434 1.378 . S
C436 C437 1.367 . S
C437 C436 1.367 . S
C437 C439 1.433 . S
C438 C434 1.350 . S
C438 C435 1.463 . S
C438 N442 1.427 . S
C439 H429 0.929 . S
C439 C437 1.433 . S
C439 N442 1.384 . S
C440 H431 0.929 . S
C440 C432 1.378 . S
C440 C435 1.350 . S
C441 H428 0.929 . S
C441 C433 1.433 . S
C441 N443 1.384 . S
N442 C438 1.427 . S
N442 C439 1.384 . S
N443 C435 1.427 . S
N443 C441 1.384 . S
H444 C450 0.930 . S
H445 C454 0.930 . S
H446 C459 0.929 . S
H447 C457 0.929 . S
H448 C452 0.929 . S
H449 C458 0.929 . S
C450 H444 0.930 . S
C450 C451 1.367 . S
C450 C458 1.378 . S
C451 C450 1.367 . S
C451 C459 1.433 . S
C452 H448 0.929 . S
C452 C454 1.378 . S
C452 C456 1.350 . S
C453 C456 1.463 . S
C453 C458 1.350 . S
C453 N461 1.427 . S
C454 H445 0.930 . S
C454 C452 1.378 . S
C454 C455 1.367 . S
C455 C454 1.367 . S
C455 C457 1.433 . S
C456 C452 1.350 . S
C456 C453 1.463 . S
C456 N460 1.427 . S
C457 H447 0.929 . S
C457 C455 1.433 . S
C457 N460 1.384 . S
C458 H449 0.929 . S
C458 C450 1.378 . S
C458 C453 1.350 . S
C459 H446 0.929 . S
C459 C451 1.433 . S
C459 N461 1.384 . S
N460 C456 1.427 . S
N460 C457 1.384 . S
N461 C453 1.427 . S
N461 C459 1.384 . S
H462 C468 0.930 . S
H463 C472 0.930 . S
H464 C477 0.929 . S
H465 C475 0.929 . S
H466 C470 0.929 . S
H467 C476 0.929 . S
C468 H462 0.930 . S
C468 C469 1.367 . S
C468 C476 1.378 . S
C469 C468 1.367 . S
C469 C477 1.433 . S
C470 H466 0.929 . S
C470 C472 1.378 . S
C470 C474 1.350 . S
C471 C474 1.463 . S
C471 C476 1.350 . S
C471 N479 1.427 . S
C472 H463 0.930 . S
C472 C470 1.378 . S
C472 C473 1.367 . S
C473 C472 1.367 . S
C473 C475 1.433 . S
C474 C470 1.350 . S
C474 C471 1.463 . S
C474 N478 1.427 . S
C475 H465 0.929 . S
C475 C473 1.433 . S
C475 N478 1.384 . S
C476 H467 0.929 . S
C476 C468 1.378 . S
C476 C471 1.350 . S
C477 H464 0.929 . S
C477 C469 1.433 . S
C477 N479 1.384 . S
N478 C474 1.427 . S
N478 C475 1.384 . S
N479 C471 1.427 . S
N479 C477 1.384 . S
H480 C486 0.930 . S
H481 C490 0.930 . S
H482 C495 0.929 . S
H483 C493 0.929 . S
H484 C488 0.929 . S
H485 C494 0.929 . S
C486 H480 0.930 . S
C486 C487 1.367 . S
C486 C494 1.378 . S
C487 C486 1.367 . S
C487 C495 1.433 . S
C488 H484 0.929 . S
C488 C490 1.378 . S
C488 C492 1.350 . S
C489 C492 1.463 . S
C489 C494 1.350 . S
C489 N497 1.427 . S
C490 H481 0.930 . S
C490 C488 1.378 . S
C490 C491 1.367 . S
C491 C490 1.367 . S
C491 C493 1.433 . S
C492 C488 1.350 . S
C492 C489 1.463 . S
C492 N496 1.427 . S
C493 H483 0.929 . S
C493 C491 1.433 . S
C493 N496 1.384 . S
C494 H485 0.929 . S
C494 C486 1.378 . S
C494 C489 1.350 . S
C495 H482 0.929 . S
C495 C487 1.433 . S
C495 N497 1.384 . S
N496 C492 1.427 . S
N496 C493 1.384 . S
N497 C489 1.427 . S
N497 C495 1.384 . S
H498 C504 0.930 . S
H499 C508 0.930 . S
H500 C513 0.929 . S
H501 C511 0.929 . S
H502 C506 0.929 . S
H503 C512 0.929 . S
C504 H498 0.930 . S
C504 C505 1.367 . S
C504 C512 1.378 . S
C505 C504 1.367 . S
C505 C513 1.433 . S
C506 H502 0.929 . S
C506 C508 1.378 . S
C506 C510 1.350 . S
C507 C510 1.463 . S
C507 C512 1.350 . S
C507 N515 1.427 . S
C508 H499 0.930 . S
C508 C506 1.378 . S
C508 C509 1.367 . S
C509 C508 1.367 . S
C509 C511 1.433 . S
C510 C506 1.350 . S
C510 C507 1.463 . S
C510 N514 1.427 . S
C511 H501 0.929 . S
C511 C509 1.433 . S
C511 N514 1.384 . S
C512 H503 0.929 . S
C512 C504 1.378 . S
C512 C507 1.350 . S
C513 H500 0.929 . S
C513 C505 1.433 . S
C513 N515 1.384 . S
N514 C510 1.427 . S
N514 C511 1.384 . S
N515 C507 1.427 . S
N515 C513 1.384 . S
H516 C522 0.930 . S
H517 C526 0.930 . S
H518 C531 0.929 . S
H519 C529 0.929 . S
H520 C524 0.929 . S
H521 C530 0.929 . S
C522 H516 0.930 . S
C522 C523 1.367 . S
C522 C530 1.378 . S
C523 C522 1.367 . S
C523 C531 1.433 . S
C524 H520 0.929 . S
C524 C526 1.378 . S
C524 C528 1.350 . S
C525 C528 1.463 . S
C525 C530 1.350 . S
C525 N533 1.427 . S
C526 H517 0.930 . S
C526 C524 1.378 . S
C526 C527 1.367 . S
C527 C526 1.367 . S
C527 C529 1.433 . S
C528 C524 1.350 . S
C528 C525 1.463 . S
C528 N532 1.427 . S
C529 H519 0.929 . S
C529 C527 1.433 . S
C529 N532 1.384 . S
C530 H521 0.929 . S
C530 C522 1.378 . S
C530 C525 1.350 . S
C531 H518 0.929 . S
C531 C523 1.433 . S
C531 N533 1.384 . S
N532 C528 1.427 . S
N532 C529 1.384 . S
N533 C525 1.427 . S
N533 C531 1.384 . S
H534 C540 0.930 . S
H535 C544 0.930 . S
H536 C549 0.929 . S
H537 C547 0.929 . S
H538 C542 0.929 . S
H539 C548 0.929 . S
C540 H534 0.930 . S
C540 C541 1.367 . S
C540 C548 1.378 . S
C541 C540 1.367 . S
C541 C549 1.433 . S
C542 H538 0.929 . S
C542 C544 1.378 . S
C542 C546 1.350 . S
C543 C546 1.463 . S
C543 C548 1.350 . S
C543 N551 1.427 . S
C544 H535 0.930 . S
C544 C542 1.378 . S
C544 C545 1.367 . S
C545 C544 1.367 . S
C545 C547 1.433 . S
C546 C542 1.350 . S
C546 C543 1.463 . S
C546 N550 1.427 . S
C547 H537 0.929 . S
C547 C545 1.433 . S
C547 N550 1.384 . S
C548 H539 0.929 . S
C548 C540 1.378 . S
C548 C543 1.350 . S
C549 H536 0.929 . S
C549 C541 1.433 . S
C549 N551 1.384 . S
N550 C546 1.427 . S
N550 C547 1.384 . S
N551 C543 1.427 . S
N551 C549 1.384 . S
H552 C558 0.930 . S
H553 C562 0.930 . S
H554 C567 0.929 . S
H555 C565 0.929 . S
H556 C560 0.929 . S
H557 C566 0.929 . S
C558 H552 0.930 . S
C558 C559 1.367 . S
C558 C566 1.378 . S
C559 C558 1.367 . S
C559 C567 1.433 . S
C560 H556 0.929 . S
C560 C562 1.378 . S
C560 C564 1.350 . S
C561 C564 1.463 . S
C561 C566 1.350 . S
C561 N569 1.427 . S
C562 H553 0.930 . S
C562 C560 1.378 . S
C562 C563 1.367 . S
C563 C562 1.367 . S
C563 C565 1.433 . S
C564 C560 1.350 . S
C564 C561 1.463 . S
C564 N568 1.427 . S
C565 H555 0.929 . S
C565 C563 1.433 . S
C565 N568 1.384 . S
C566 H557 0.929 . S
C566 C558 1.378 . S
C566 C561 1.350 . S
C567 H554 0.929 . S
C567 C559 1.433 . S
C567 N569 1.384 . S
N568 C564 1.427 . S
N568 C565 1.384 . S
N569 C561 1.427 . S
N569 C567 1.384 . S
H570 C576 0.930 . S
H571 C580 0.930 . S
H572 C585 0.929 . S
H573 C583 0.929 . S
H574 C578 0.929 . S
H575 C584 0.929 . S
C576 H570 0.930 . S
C576 C577 1.367 . S
C576 C584 1.378 . S
C577 C576 1.367 . S
C577 C585 1.433 . S
C578 H574 0.929 . S
C578 C580 1.378 . S
C578 C582 1.350 . S
C579 C582 1.463 . S
C579 C584 1.350 . S
C579 N587 1.427 . S
C580 H571 0.930 . S
C580 C578 1.378 . S
C580 C581 1.367 . S
C581 C580 1.367 . S
C581 C583 1.433 . S
C582 C578 1.350 . S
C582 C579 1.463 . S
C582 N586 1.427 . S
C583 H573 0.929 . S
C583 C581 1.433 . S
C583 N586 1.384 . S
C584 H575 0.929 . S
C584 C576 1.378 . S
C584 C579 1.350 . S
C585 H572 0.929 . S
C585 C577 1.433 . S
C585 N587 1.384 . S
N586 C582 1.427 . S
N586 C583 1.384 . S
N587 C579 1.427 . S
N587 C585 1.384 . S
H588 C594 0.930 . S
H589 C598 0.930 . S
H590 C603 0.929 . S
H591 C601 0.929 . S
H592 C596 0.929 . S
H593 C602 0.929 . S
C594 H588 0.930 . S
C594 C595 1.367 . S
C594 C602 1.378 . S
C595 C594 1.367 . S
C595 C603 1.433 . S
C596 H592 0.929 . S
C596 C598 1.378 . S
C596 C600 1.350 . S
C597 C600 1.463 . S
C597 C602 1.350 . S
C597 N605 1.427 . S
C598 H589 0.930 . S
C598 C596 1.378 . S
C598 C599 1.367 . S
C599 C598 1.367 . S
C599 C601 1.433 . S
C600 C596 1.350 . S
C600 C597 1.463 . S
C600 N604 1.427 . S
C601 H591 0.929 . S
C601 C599 1.433 . S
C601 N604 1.384 . S
C602 H593 0.929 . S
C602 C594 1.378 . S
C602 C597 1.350 . S
C603 H590 0.929 . S
C603 C595 1.433 . S
C603 N605 1.384 . S
N604 C600 1.427 . S
N604 C601 1.384 . S
N605 C597 1.427 . S
N605 C603 1.384 . S
H606 C612 0.930 . S
H607 C616 0.930 . S
H608 C621 0.929 . S
H609 C619 0.929 . S
H610 C614 0.929 . S
H611 C620 0.929 . S
C612 H606 0.930 . S
C612 C613 1.367 . S
C612 C620 1.378 . S
C613 C612 1.367 . S
C613 C621 1.433 . S
C614 H610 0.929 . S
C614 C616 1.378 . S
C614 C618 1.350 . S
C615 C618 1.463 . S
C615 C620 1.350 . S
C615 N623 1.427 . S
C616 H607 0.930 . S
C616 C614 1.378 . S
C616 C617 1.367 . S
C617 C616 1.367 . S
C617 C619 1.433 . S
C618 C614 1.350 . S
C618 C615 1.463 . S
C618 N622 1.427 . S
C619 H609 0.929 . S
C619 C617 1.433 . S
C619 N622 1.384 . S
C620 H611 0.929 . S
C620 C612 1.378 . S
C620 C615 1.350 . S
C621 H608 0.929 . S
C621 C613 1.433 . S
C621 N623 1.384 . S
N622 C618 1.427 . S
N622 C619 1.384 . S
N623 C615 1.427 . S
N623 C621 1.384 . S
H624 C630 0.930 . S
H625 C634 0.930 . S
H626 C639 0.929 . S
H627 C637 0.920 1_554 S
H628 C632 0.929 . S
H629 C638 0.929 . S
C630 H624 0.930 . S
C630 C631 1.367 . S
C630 C638 1.378 . S
C631 C630 1.367 . S
C631 C639 1.433 . S
C632 H628 0.929 . S
C632 C634 1.378 1_556 S
C632 C636 1.350 . S
C633 C636 1.463 . S
C633 C638 1.350 . S
C633 N641 1.427 . S
C634 H625 0.930 . S
C634 C632 1.378 1_554 S
C634 C635 1.367 . S
C635 C634 1.367 . S
C635 C637 1.414 1_554 S
C636 C632 1.350 . S
C636 C633 1.463 . S
C636 N640 1.427 . S
C637 H627 0.920 1_556 S
C637 C635 1.414 1_556 S
C637 N640 1.414 . S
C638 H629 0.929 . S
C638 C630 1.378 . S
C638 C633 1.350 . S
C639 H626 0.929 . S
C639 C631 1.433 . S
C639 N641 1.384 . S
N640 C636 1.427 . S
N640 C637 1.414 . S
N641 C633 1.427 . S
N641 C639 1.384 . S
H642 C648 0.930 . S
H643 C652 0.930 . S
H644 C657 0.929 . S
H645 C655 0.929 . S
H646 C650 0.929 . S
H647 C656 0.929 . S
C648 H642 0.930 . S
C648 C649 1.367 . S
C648 C656 1.378 . S
C649 C648 1.367 . S
C649 C657 1.433 . S
C650 H646 0.929 . S
C650 C652 1.378 . S
C650 C654 1.350 . S
C651 C654 1.463 . S
C651 C656 1.350 . S
C651 N659 1.427 . S
C652 H643 0.930 . S
C652 C650 1.378 . S
C652 C653 1.367 . S
C653 C652 1.367 . S
C653 C655 1.433 . S
C654 C650 1.350 . S
C654 C651 1.463 . S
C654 N658 1.427 . S
C655 H645 0.929 . S
C655 C653 1.433 . S
C655 N658 1.384 . S
C656 H647 0.929 . S
C656 C648 1.378 . S
C656 C651 1.350 . S
C657 H644 0.929 . S
C657 C649 1.433 . S
C657 N659 1.384 . S
N658 C654 1.427 . S
N658 C655 1.384 . S
N659 C651 1.427 . S
N659 C657 1.384 . S
H660 C666 0.930 . S
H661 C670 0.930 . S
H662 C675 0.929 . S
H663 C673 0.929 . S
H664 C668 0.929 . S
H665 C674 0.929 . S
C666 H660 0.930 . S
C666 C667 1.367 . S
C666 C674 1.378 . S
C667 C666 1.367 . S
C667 C675 1.433 . S
C668 H664 0.929 . S
C668 C670 1.378 . S
C668 C672 1.350 . S
C669 C672 1.463 . S
C669 C674 1.350 . S
C669 N677 1.427 . S
C670 H661 0.930 . S
C670 C668 1.378 . S
C670 C671 1.367 . S
C671 C670 1.367 . S
C671 C673 1.433 . S
C672 C668 1.350 . S
C672 C669 1.463 . S
C672 N676 1.427 . S
C673 H663 0.929 . S
C673 C671 1.433 . S
C673 N676 1.384 . S
C674 H665 0.929 . S
C674 C666 1.378 . S
C674 C669 1.350 . S
C675 H662 0.929 . S
C675 C667 1.433 . S
C675 N677 1.384 . S
N676 C672 1.427 . S
N676 C673 1.384 . S
N677 C669 1.427 . S
N677 C675 1.384 . S
H678 C684 0.930 . S
H679 C688 0.930 . S
H680 C693 0.929 . S
H681 C691 0.929 . S
H682 C686 0.929 . S
H683 C692 0.929 . S
C684 H678 0.930 . S
C684 C685 1.367 . S
C684 C692 1.378 . S
C685 C684 1.367 . S
C685 C693 1.433 . S
C686 H682 0.929 . S
C686 C688 1.378 . S
C686 C690 1.350 . S
C687 C690 1.463 . S
C687 C692 1.350 . S
C687 N695 1.427 . S
C688 H679 0.930 . S
C688 C686 1.378 . S
C688 C689 1.367 . S
C689 C688 1.367 . S
C689 C691 1.433 . S
C690 C686 1.350 . S
C690 C687 1.463 . S
C690 N694 1.427 . S
C691 H681 0.929 . S
C691 C689 1.433 . S
C691 N694 1.384 . S
C692 H683 0.929 . S
C692 C684 1.378 . S
C692 C687 1.350 . S
C693 H680 0.929 . S
C693 C685 1.433 . S
C693 N695 1.384 . S
N694 C690 1.427 . S
N694 C691 1.384 . S
N695 C687 1.427 . S
N695 C693 1.384 . S
H696 C702 0.930 . S
H697 C706 0.930 . S
H698 C711 0.929 . S
H699 C709 0.929 . S
H700 C704 0.929 . S
H701 C710 0.929 . S
C702 H696 0.930 . S
C702 C703 1.367 . S
C702 C710 1.378 . S
C703 C702 1.367 . S
C703 C711 1.433 . S
C704 H700 0.929 . S
C704 C706 1.378 . S
C704 C708 1.350 . S
C705 C708 1.463 . S
C705 C710 1.350 . S
C705 N713 1.427 . S
C706 H697 0.930 . S
C706 C704 1.378 . S
C706 C707 1.367 . S
C707 C706 1.367 . S
C707 C709 1.433 . S
C708 C704 1.350 . S
C708 C705 1.463 . S
C708 N712 1.427 . S
C709 H699 0.929 . S
C709 C707 1.433 . S
C709 N712 1.384 . S
C710 H701 0.929 . S
C710 C702 1.378 . S
C710 C705 1.350 . S
C711 H698 0.929 . S
C711 C703 1.433 . S
C711 N713 1.384 . S
N712 C708 1.427 . S
N712 C709 1.384 . S
N713 C705 1.427 . S
N713 C711 1.384 . S
H714 C720 0.930 . S
H715 C724 0.930 . S
H716 C729 0.929 . S
H717 C727 0.929 . S
H718 C722 0.929 . S
H719 C728 0.929 . S
C720 H714 0.930 . S
C720 C721 1.367 . S
C720 C728 1.378 . S
C721 C720 1.367 . S
C721 C729 1.433 . S
C722 H718 0.929 . S
C722 C724 1.378 . S
C722 C726 1.350 . S
C723 C726 1.463 . S
C723 C728 1.350 . S
C723 N731 1.427 . S
C724 H715 0.930 . S
C724 C722 1.378 . S
C724 C725 1.367 . S
C725 C724 1.367 . S
C725 C727 1.433 . S
C726 C722 1.350 . S
C726 C723 1.463 . S
C726 N730 1.427 . S
C727 H717 0.929 . S
C727 C725 1.433 . S
C727 N730 1.384 . S
C728 H719 0.929 . S
C728 C720 1.378 . S
C728 C723 1.350 . S
C729 H716 0.929 . S
C729 C721 1.433 . S
C729 N731 1.384 . S
N730 C726 1.427 . S
N730 C727 1.384 . S
N731 C723 1.427 . S
N731 C729 1.384 . S
H732 C738 0.930 . S
H733 C742 0.930 . S
H734 C747 0.929 . S
H735 C745 0.929 . S
H736 C740 0.929 . S
H737 C746 0.929 . S
C738 H732 0.930 . S
C738 C739 1.367 . S
C738 C746 1.378 . S
C739 C738 1.367 . S
C739 C747 1.433 . S
C740 H736 0.929 . S
C740 C742 1.378 . S
C740 C744 1.350 . S
C741 C744 1.463 . S
C741 C746 1.350 . S
C741 N749 1.427 . S
C742 H733 0.930 . S
C742 C740 1.378 . S
C742 C743 1.367 . S
C743 C742 1.367 . S
C743 C745 1.433 . S
C744 C740 1.350 . S
C744 C741 1.463 . S
C744 N748 1.427 . S
C745 H735 0.929 . S
C745 C743 1.433 . S
C745 N748 1.384 . S
C746 H737 0.929 . S
C746 C738 1.378 . S
C746 C741 1.350 . S
C747 H734 0.929 . S
C747 C739 1.433 . S
C747 N749 1.384 . S
N748 C744 1.427 . S
N748 C745 1.384 . S
N749 C741 1.427 . S
N749 C747 1.384 . S
H750 C756 0.930 . S
H751 C760 0.930 . S
H752 C765 0.929 . S
H753 C763 0.929 . S
H754 C758 0.929 . S
H755 C764 0.929 . S
C756 H750 0.930 . S
C756 C757 1.367 . S
C756 C764 1.378 . S
C757 C756 1.367 . S
C757 C765 1.433 . S
C758 H754 0.929 . S
C758 C760 1.378 . S
C758 C762 1.350 . S
C759 C762 1.463 1_554 S
C759 C764 1.350 . S
C759 N767 1.427 . S
C760 H751 0.930 . S
C760 C758 1.378 . S
C760 C761 1.367 . S
C761 C760 1.367 . S
C761 C763 1.433 . S
C762 C758 1.350 . S
C762 C759 1.463 1_556 S
C762 N766 1.427 . S
C763 H753 0.929 . S
C763 C761 1.433 . S
C763 N766 1.384 . S
C764 H755 0.929 . S
C764 C756 1.378 . S
C764 C759 1.350 . S
C765 H752 0.929 . S
C765 C757 1.433 . S
C765 N767 1.384 . S
N766 C762 1.427 . S
N766 C763 1.384 . S
N767 C759 1.427 . S
N767 C765 1.384 . S
H768 C774 0.930 . S
H769 C778 0.930 . S
H770 C783 0.929 . S
H771 C781 0.929 . S
H772 C776 0.929 . S
H773 C782 0.929 . S
C774 H768 0.930 . S
C774 C775 1.367 . S
C774 C782 1.378 . S
C775 C774 1.367 . S
C775 C783 1.433 . S
C776 H772 0.929 . S
C776 C778 1.378 . S
C776 C780 1.350 . S
C777 C780 1.463 . S
C777 C782 1.350 . S
C777 N785 1.427 . S
C778 H769 0.930 . S
C778 C776 1.378 . S
C778 C779 1.367 . S
C779 C778 1.367 . S
C779 C781 1.433 . S
C780 C776 1.350 . S
C780 C777 1.463 . S
C780 N784 1.427 . S
C781 H771 0.929 . S
C781 C779 1.433 . S
C781 N784 1.384 . S
C782 H773 0.929 . S
C782 C774 1.378 . S
C782 C777 1.350 . S
C783 H770 0.929 . S
C783 C775 1.433 . S
C783 N785 1.384 . S
N784 C780 1.427 . S
N784 C781 1.384 . S
N785 C777 1.427 . S
N785 C783 1.384 . S
C365 C351 1.601 . S
C361 C15 1.572 . S
C379 C61 1.541 . S
C383 C276 1.490 . S
C397 C114 1.584 . S
C401 C299 1.625 . S
C415 C139 1.444 . S
C419 C312 1.453 . S
C437 C315 1.539 . S
C433 C185 1.603 . S
C451 C245 1.471 . S
C455 C328 1.432 . S
C469 C47 1.486 . S
C473 C289 1.427 . S
C487 C100 1.603 . S
C491 C302 1.539 . S
C505 C153 1.433 . S
C509 C325 1.450 . S
C527 C338 1.627 . S
C523 C199 1.586 . S
C545 C341 1.493 . S
C541 C231 1.557 . S
C563 C286 1.602 . S
C559 C1 1.588 . S
C577 C22 1.458 . S
C581 C297 1.431 . S
C595 C68 1.441 . S
C599 C310 1.409 . S
C617 C320 1.430 . S
C613 C107 1.479 . S
C631 C146 1.453 . S
C635 C333 1.398 . S
C653 C349 1.451 . S
C649 C192 1.487 . S
C671 C281 1.399 . S
C667 C252 1.443 . S
C689 C346 1.394 . S
C685 C54 1.444 . S
C703 C93 1.487 . S
C707 C284 1.450 . S
C725 C294 1.408 . S
C721 C160 1.451 . S
C739 C206 1.479 . S
C743 C307 1.430 . S
C757 C238 1.442 . S
C761 C323 1.410 . S
C775 C8 1.461 . S
C779 C336 1.424 . S
