# Generated by pormake.
# Topology ctn, (3,4)-cn, num edge types: 1
# Building blocks:
#     Node 0, Type 0, BuildingBlock: ESEHIV_clean_linker_0, # of connection points: 3
#     Node 1, Type 0, BuildingBlock: ESEHIV_clean_linker_0, # of connection points: 3
#     Node 2, Type 0, BuildingBlock: ESEHIV_clean_linker_0, # of connection points: 3
#     Node 3, Type 0, BuildingBlock: ESEHIV_clean_linker_0, # of connection points: 3
#     Node 4, Type 0, BuildingBlock: ESEHIV_clean_linker_0, # of connection points: 3
#     Node 5, Type 0, BuildingBlock: ESEHIV_clean_linker_0, # of connection points: 3
#     Node 6, Type 0, BuildingBlock: ESEHIV_clean_linker_0, # of connection points: 3
#     Node 7, Type 0, BuildingBlock: ESEHIV_clean_linker_0, # of connection points: 3
#     Node 8, Type 0, BuildingBlock: ESEHIV_clean_linker_0, # of connection points: 3
#     Node 9, Type 0, BuildingBlock: ESEHIV_clean_linker_0, # of connection points: 3
#     Node 10, Type 0, BuildingBlock: ESEHIV_clean_linker_0, # of connection points: 3
#     Node 11, Type 0, BuildingBlock: ESEHIV_clean_linker_0, # of connection points: 3
#     Node 12, Type 0, BuildingBlock: ESEHIV_clean_linker_0, # of connection points: 3
#     Node 13, Type 0, BuildingBlock: ESEHIV_clean_linker_0, # of connection points: 3
#     Node 14, Type 0, BuildingBlock: ESEHIV_clean_linker_0, # of connection points: 3
#     Node 15, Type 0, BuildingBlock: ESEHIV_clean_linker_0, # of connection points: 3
#     Node 16, Type 1, BuildingBlock: KUFVIS_clean_sbu_0, # of connection points: 4
#     Node 17, Type 1, BuildingBlock: KUFVIS_clean_sbu_0, # of connection points: 4
#     Node 18, Type 1, BuildingBlock: KUFVIS_clean_sbu_0, # of connection points: 4
#     Node 19, Type 1, BuildingBlock: KUFVIS_clean_sbu_0, # of connection points: 4
#     Node 20, Type 1, BuildingBlock: KUFVIS_clean_sbu_0, # of connection points: 4
#     Node 21, Type 1, BuildingBlock: KUFVIS_clean_sbu_0, # of connection points: 4
#     Node 22, Type 1, BuildingBlock: KUFVIS_clean_sbu_0, # of connection points: 4
#     Node 23, Type 1, BuildingBlock: KUFVIS_clean_sbu_0, # of connection points: 4
#     Node 24, Type 1, BuildingBlock: KUFVIS_clean_sbu_0, # of connection points: 4
#     Node 25, Type 1, BuildingBlock: KUFVIS_clean_sbu_0, # of connection points: 4
#     Node 26, Type 1, BuildingBlock: KUFVIS_clean_sbu_0, # of connection points: 4
#     Node 27, Type 1, BuildingBlock: KUFVIS_clean_sbu_0, # of connection points: 4
#     Edge 28, Type (0, 1), BuildingBlock: XIVTED_clean_linker_0, # of connection points: 2
#     Edge 29, Type (0, 1), BuildingBlock: XIVTED_clean_linker_0, # of connection points: 2
#     Edge 30, Type (0, 1), BuildingBlock: XIVTED_clean_linker_0, # of connection points: 2
#     Edge 31, Type (0, 1), BuildingBlock: XIVTED_clean_linker_0, # of connection points: 2
#     Edge 32, Type (0, 1), BuildingBlock: XIVTED_clean_linker_0, # of connection points: 2
#     Edge 33, Type (0, 1), BuildingBlock: XIVTED_clean_linker_0, # of connection points: 2
#     Edge 34, Type (0, 1), BuildingBlock: XIVTED_clean_linker_0, # of connection points: 2
#     Edge 35, Type (0, 1), BuildingBlock: XIVTED_clean_linker_0, # of connection points: 2
#     Edge 36, Type (0, 1), BuildingBlock: XIVTED_clean_linker_0, # of connection points: 2
#     Edge 37, Type (0, 1), BuildingBlock: XIVTED_clean_linker_0, # of connection points: 2
#     Edge 38, Type (0, 1), BuildingBlock: XIVTED_clean_linker_0, # of connection points: 2
#     Edge 39, Type (0, 1), BuildingBlock: XIVTED_clean_linker_0, # of connection points: 2
#     Edge 40, Type (0, 1), BuildingBlock: XIVTED_clean_linker_0, # of connection points: 2
#     Edge 41, Type (0, 1), BuildingBlock: XIVTED_clean_linker_0, # of connection points: 2
#     Edge 42, Type (0, 1), BuildingBlock: XIVTED_clean_linker_0, # of connection points: 2
#     Edge 43, Type (0, 1), BuildingBlock: XIVTED_clean_linker_0, # of connection points: 2
#     Edge 44, Type (0, 1), BuildingBlock: XIVTED_clean_linker_0, # of connection points: 2
#     Edge 45, Type (0, 1), BuildingBlock: XIVTED_clean_linker_0, # of connection points: 2
#     Edge 46, Type (0, 1), BuildingBlock: XIVTED_clean_linker_0, # of connection points: 2
#     Edge 47, Type (0, 1), BuildingBlock: XIVTED_clean_linker_0, # of connection points: 2
#     Edge 48, Type (0, 1), BuildingBlock: XIVTED_clean_linker_0, # of connection points: 2
#     Edge 49, Type (0, 1), BuildingBlock: XIVTED_clean_linker_0, # of connection points: 2
#     Edge 50, Type (0, 1), BuildingBlock: XIVTED_clean_linker_0, # of connection points: 2
#     Edge 51, Type (0, 1), BuildingBlock: XIVTED_clean_linker_0, # of connection points: 2
#     Edge 52, Type (0, 1), BuildingBlock: XIVTED_clean_linker_0, # of connection points: 2
#     Edge 53, Type (0, 1), BuildingBlock: XIVTED_clean_linker_0, # of connection points: 2
#     Edge 54, Type (0, 1), BuildingBlock: XIVTED_clean_linker_0, # of connection points: 2
#     Edge 55, Type (0, 1), BuildingBlock: XIVTED_clean_linker_0, # of connection points: 2
#     Edge 56, Type (0, 1), BuildingBlock: XIVTED_clean_linker_0, # of connection points: 2
#     Edge 57, Type (0, 1), BuildingBlock: XIVTED_clean_linker_0, # of connection points: 2
#     Edge 58, Type (0, 1), BuildingBlock: XIVTED_clean_linker_0, # of connection points: 2
#     Edge 59, Type (0, 1), BuildingBlock: XIVTED_clean_linker_0, # of connection points: 2
#     Edge 60, Type (0, 1), BuildingBlock: XIVTED_clean_linker_0, # of connection points: 2
#     Edge 61, Type (0, 1), BuildingBlock: XIVTED_clean_linker_0, # of connection points: 2
#     Edge 62, Type (0, 1), BuildingBlock: XIVTED_clean_linker_0, # of connection points: 2
#     Edge 63, Type (0, 1), BuildingBlock: XIVTED_clean_linker_0, # of connection points: 2
#     Edge 64, Type (0, 1), BuildingBlock: XIVTED_clean_linker_0, # of connection points: 2
#     Edge 65, Type (0, 1), BuildingBlock: XIVTED_clean_linker_0, # of connection points: 2
#     Edge 66, Type (0, 1), BuildingBlock: XIVTED_clean_linker_0, # of connection points: 2
#     Edge 67, Type (0, 1), BuildingBlock: XIVTED_clean_linker_0, # of connection points: 2
#     Edge 68, Type (0, 1), BuildingBlock: XIVTED_clean_linker_0, # of connection points: 2
#     Edge 69, Type (0, 1), BuildingBlock: XIVTED_clean_linker_0, # of connection points: 2
#     Edge 70, Type (0, 1), BuildingBlock: XIVTED_clean_linker_0, # of connection points: 2
#     Edge 71, Type (0, 1), BuildingBlock: XIVTED_clean_linker_0, # of connection points: 2
#     Edge 72, Type (0, 1), BuildingBlock: XIVTED_clean_linker_0, # of connection points: 2
#     Edge 73, Type (0, 1), BuildingBlock: XIVTED_clean_linker_0, # of connection points: 2
#     Edge 74, Type (0, 1), BuildingBlock: XIVTED_clean_linker_0, # of connection points: 2
#     Edge 75, Type (0, 1), BuildingBlock: XIVTED_clean_linker_0, # of connection points: 2
# Relax obj value: 0.012
# Max RMSD: 0.062
# Mean RMSD: 0.030
data_MOF--net-ctn--node1-KUFVIS_clean_sbu_0--node2-ESEHIV_clean_linker_0--edge1-XIVTED_clean_linker_0
_symmetry_space_group_name_H-M    P1
_symmetry_Int_Tables_number       1
_symmetry_cell_setting            triclinic
loop_
_symmetry_equiv_pos_as_xyz
'x, y, z'
_cell_length_a     51.289185
_cell_length_b     51.229662
_cell_length_c     51.412262
_cell_angle_alpha  90.995461
_cell_angle_beta   90.40854
_cell_angle_gamma 91.697539
loop_
_atom_site_label
_atom_site_type_symbol
_atom_site_fract_x
_atom_site_fract_y
_atom_site_fract_z
_atom_type_partial_charge
H0 H 0.00642 0.06606 0.05691 0.0
H1 H 0.05879 0.00473 0.07417 0.0
H2 H 0.07453 0.05536 0.01002 0.0
C3 C 0.02426 0.05603 0.05284 0.0
C4 C 0.03954 0.06344 0.03144 0.0
C5 C 0.03127 0.03519 0.06864 0.0
C6 C 0.05354 0.02109 0.06235 0.0
C7 C 0.06899 0.02788 0.04085 0.0
C8 C 0.06205 0.04936 0.02586 0.0
H9 H 0.32622 0.66432 0.22825 0.0
H10 H 0.35104 0.7342 0.1893 0.0
H11 H 0.28314 0.69039 0.16193 0.0
C12 C 0.32377 0.67807 0.2127 0.0
C13 C 0.30269 0.67459 0.19525 0.0
C14 C 0.3412 0.69957 0.21087 0.0
C15 C 0.33759 0.7176 0.191 0.0
C16 C 0.3169 0.71427 0.17309 0.0
C17 C 0.29964 0.69256 0.17516 0.0
H18 H 0.96286 0.51574 0.06219 0.0
H19 H 0.00647 0.44697 0.04607 0.0
H20 H 0.94269 0.46626 0.99614 0.0
C21 C 0.96666 0.49899 0.04981 0.0
C22 C 0.95044 0.49344 0.02807 0.0
C23 C 0.98704 0.48247 0.05643 0.0
C24 C 0.99099 0.45997 0.04108 0.0
C25 C 0.97472 0.45375 0.01965 0.0
C26 C 0.95475 0.47073 0.01311 0.0
H27 H 0.66482 0.77577 0.19498 0.0
H28 H 0.7279 0.82403 0.16612 0.0
H29 H 0.68678 0.84742 0.23507 0.0
C30 C 0.67712 0.79332 0.19655 0.0
C31 C 0.67338 0.81124 0.21704 0.0
C32 C 0.69632 0.7982 0.17776 0.0
C33 C 0.71237 0.82086 0.18 0.0
C34 C 0.70947 0.83848 0.20098 0.0
C35 C 0.68942 0.83382 0.21897 0.0
H36 H 0.99459 0.94257 0.47165 0.0
H37 H 0.04863 0.00251 0.44718 0.0
H38 H 0.061 0.96381 0.51976 0.0
C39 C 0.01224 0.95429 0.47516 0.0
C40 C 0.02716 0.95045 0.49775 0.0
C41 C 0.01974 0.97322 0.45702 0.0
C42 C 0.04234 0.98876 0.46178 0.0
C43 C 0.05747 0.98568 0.48445 0.0
C44 C 0.04951 0.96654 0.50235 0.0
H45 H 0.1674 0.73073 0.8205 0.0
H46 H 0.2358 0.69223 0.84697 0.0
H47 H 0.19358 0.66225 0.77986 0.0
C48 C 0.18101 0.71504 0.81858 0.0
C49 C 0.17776 0.69653 0.79821 0.0
C50 C 0.20195 0.71374 0.83621 0.0
C51 C 0.21973 0.69359 0.8333 0.0
C52 C 0.21681 0.67489 0.81314 0.0
C53 C 0.19558 0.67627 0.79583 0.0
H54 H 0.95116 0.54928 0.50862 0.0
H55 H 0.01659 0.56831 0.46 0.0
H56 H 0.96855 0.49972 0.443 0.0
C57 C 0.96346 0.5447 0.49219 0.0
C58 C 0.95763 0.52232 0.47684 0.0
C59 C 0.98488 0.56125 0.48645 0.0
C60 C 1.00047 0.55522 0.46498 0.0
C61 C 0.99469 0.53314 0.4491 0.0
C62 C 0.97358 0.51638 0.45552 0.0
H63 H 0.78192 0.83226 0.85166 0.0
H64 H 0.82376 0.84757 0.78118 0.0
H65 H 0.84428 0.78282 0.82874 0.0
C66 C 0.79763 0.82769 0.8385 0.0
C67 C 0.81269 0.80572 0.84295 0.0
C68 C 0.80146 0.84284 0.81629 0.0
C69 C 0.82126 0.83639 0.79874 0.0
C70 C 0.83702 0.81487 0.80321 0.0
C71 C 0.83275 0.79987 0.82555 0.0
H72 H 0.27672 0.32034 0.34898 0.0
H73 H 0.31507 0.34401 0.27891 0.0
H74 H 0.34758 0.28375 0.32516 0.0
C75 C 0.29292 0.31864 0.3357 0.0
C76 C 0.3122 0.30016 0.34016 0.0
C77 C 0.2941 0.33483 0.31398 0.0
C78 C 0.31444 0.33207 0.29612 0.0
C79 C 0.33361 0.31351 0.29999 0.0
C80 C 0.33269 0.29799 0.32224 0.0
H81 H 0.46293 0.01385 0.56619 0.0
H82 H 0.50662 0.94523 0.55005 0.0
H83 H 0.44062 0.96234 0.50213 0.0
C84 C 0.46601 0.99649 0.55444 0.0
C85 C 0.44907 0.99029 0.53338 0.0
C86 C 0.48667 0.98029 0.56085 0.0
C87 C 0.49056 0.95775 0.54561 0.0
C88 C 0.47426 0.95142 0.52426 0.0
C89 C 0.45365 0.96779 0.51813 0.0
H90 H 0.16759 0.27492 0.69827 0.0
H91 H 0.233 0.31956 0.66876 0.0
H92 H 0.19368 0.34556 0.73784 0.0
C93 C 0.18085 0.29177 0.69966 0.0
C94 C 0.17819 0.31005 0.72004 0.0
C95 C 0.20018 0.29546 0.68073 0.0
C96 C 0.21743 0.31726 0.68276 0.0
C97 C 0.21562 0.33514 0.70367 0.0
C98 C 0.19548 0.33172 0.7218 0.0
H99 H 0.83054 0.16597 0.72671 0.0
H100 H 0.85582 0.23531 0.68705 0.0
H101 H 0.78623 0.19317 0.66168 0.0
C102 C 0.82799 0.17978 0.71123 0.0
C103 C 0.80636 0.17682 0.69438 0.0
C104 C 0.84586 0.20087 0.7089 0.0
C105 C 0.84208 0.21901 0.68915 0.0
C106 C 0.8208 0.2162 0.6719 0.0
C107 C 0.80314 0.1949 0.67443 0.0
H108 H 0.50941 0.56998 0.55838 0.0
H109 H 0.55947 0.50657 0.57521 0.0
H110 H 0.57389 0.55388 0.50833 0.0
C111 C 0.52609 0.55846 0.55359 0.0
C112 C 0.5408 0.56457 0.53139 0.0
C113 C 0.53257 0.53755 0.56957 0.0
C114 C 0.55432 0.5227 0.56307 0.0
C115 C 0.56942 0.52836 0.541 0.0
C116 C 0.56245 0.54938 0.52536 0.0
H117 H 0.49519 0.44841 0.97216 0.0
H118 H 0.55423 0.50443 0.94908 0.0
H119 H 0.56462 0.46108 0.01895 0.0
C120 C 0.51374 0.45851 0.97585 0.0
C121 C 0.52855 0.45262 0.99807 0.0
C122 C 0.52309 0.47693 0.95794 0.0
C123 C 0.54719 0.48993 0.96266 0.0
C124 C 0.56202 0.4847 0.98494 0.0
C125 C 0.5526 0.46598 0.00242 0.0
H126 H 0.66762 0.22949 0.31992 0.0
H127 H 0.73569 0.1897 0.3454 0.0
H128 H 0.6947 0.16337 0.27614 0.0
C129 C 0.68127 0.2139 0.31746 0.0
C130 C 0.67835 0.19645 0.29617 0.0
C131 C 0.70196 0.21175 0.33526 0.0
C132 C 0.71962 0.19155 0.33181 0.0
C133 C 0.71721 0.17413 0.31051 0.0
C134 C 0.69648 0.17663 0.29277 0.0
H135 H 0.45088 0.0493 0.00865 0.0
H136 H 0.51591 0.07132 0.96068 0.0
H137 H 0.47022 1.00135 0.94258 0.0
C138 C 0.46352 0.04539 0.99231 0.0
C139 C 0.45839 0.02318 0.97656 0.0
C140 C 0.48425 0.06287 0.98682 0.0
C141 C 0.5003 0.05756 0.9655 0.0
C142 C 0.49546 0.03538 0.94941 0.0
C143 C 0.47474 0.01793 0.9554 0.0
Mn144 Mn 0.25729 0.87323 0.00858 0.0
Mn145 Mn 0.25332 0.89726 0.94799 0.0
C146 C 0.23572 0.84972 0.97577 0.0
C147 C 0.27719 0.84851 0.04031 0.0
C148 C 0.22033 0.91638 0.99259 0.0
O149 O 0.28689 0.90071 0.00859 0.0
O150 O 0.28216 0.91554 0.96772 0.0
C151 C 0.30366 0.87883 0.9279 0.0
N152 N 0.27718 0.87945 0.92601 0.0
C153 C 0.27689 0.85177 0.88769 0.0
C154 C 0.30416 0.85097 0.88914 0.0
C155 C 0.31759 0.86453 0.90936 0.0
C156 C 0.26406 0.86647 0.90663 0.0
H157 H 0.31408 0.8891 0.94346 0.0
C158 C 0.29367 0.91558 0.98995 0.0
O159 O 0.26162 0.86711 0.04646 0.0
O160 O 0.28214 0.84505 0.0158 0.0
N161 N 0.22649 0.88082 0.92681 0.0
C162 C 0.20012 0.88239 0.92901 0.0
C163 C 0.18379 0.86929 0.91068 0.0
C164 C 0.19473 0.85481 0.89027 0.0
C165 C 0.22192 0.85364 0.88829 0.0
C166 C 0.23722 0.8673 0.90699 0.0
H167 H 0.19159 0.89339 0.94472 0.0
O168 O 0.22983 0.84571 0.99992 0.0
O169 O 0.25343 0.86775 0.97168 0.0
O170 O 0.22997 0.90163 0.00967 0.0
O171 O 0.22758 0.91629 0.96888 0.0
C172 C 0.23444 0.83906 0.86881 0.0
C173 C 0.26189 0.8381 0.86852 0.0
H174 H 0.31497 0.83982 0.87498 0.0
H175 H 0.33863 0.8639 0.91068 0.0
H176 H 0.16282 0.87025 0.91237 0.0
H177 H 0.18207 0.84451 0.87633 0.0
H178 H 0.22311 0.82819 0.85417 0.0
H179 H 0.27127 0.82651 0.85367 0.0
Mn180 Mn 0.14215 0.50342 0.25197 0.0
Mn181 Mn 0.12296 0.56574 0.24786 0.0
C182 C 0.16821 0.53461 0.23175 0.0
C183 C 0.16449 0.47074 0.27303 0.0
C184 C 0.10113 0.52185 0.21316 0.0
O185 O 0.11386 0.50512 0.27974 0.0
O186 O 0.10332 0.54725 0.27549 0.0
C187 C 0.14272 0.58506 0.29914 0.0
N188 N 0.14215 0.58693 0.27275 0.0
C189 C 0.17181 0.62423 0.27425 0.0
C190 C 0.1726 0.62279 0.30145 0.0
C191 C 0.15803 0.60309 0.31394 0.0
C192 C 0.15615 0.60577 0.26053 0.0
H193 H 0.13162 0.56991 0.30882 0.0
C194 C 0.10072 0.52498 0.28632 0.0
O195 O 0.14594 0.46506 0.25637 0.0
O196 O 0.16906 0.49528 0.27839 0.0
N197 N 0.1407 0.586 0.22211 0.0
C198 C 0.1387 0.584 0.1957 0.0
C199 C 0.15251 0.60196 0.18027 0.0
C200 C 0.16807 0.62188 0.19213 0.0
C201 C 0.16958 0.62373 0.21934 0.0
C202 C 0.15522 0.6054 0.23372 0.0
H203 H 0.12679 0.56872 0.18647 0.0
O204 O 0.17071 0.51003 0.22619 0.0
O205 O 0.15047 0.54014 0.24868 0.0
O206 O 0.11446 0.50375 0.22297 0.0
O207 O 0.10275 0.54561 0.2211 0.0
C208 C 0.18514 0.64276 0.23275 0.0
C209 C 0.1863 0.64297 0.26018 0.0
H210 H 0.18447 0.63659 0.31293 0.0
H211 H 0.15863 0.60178 0.33492 0.0
H212 H 0.15125 0.60039 0.15928 0.0
H213 H 0.1789 0.63553 0.18016 0.0
H214 H 0.19659 0.65709 0.22215 0.0
H215 H 0.19862 0.65747 0.27026 0.0
Mn216 Mn 0.75652 0.62714 0.00779 0.0
Mn217 Mn 0.69798 0.64418 0.98371 0.0
C218 C 0.72029 0.59936 0.01176 0.0
C219 C 0.79692 0.60764 0.00364 0.0
C220 C 0.72162 0.66745 0.03342 0.0
O221 O 0.76631 0.65664 0.98283 0.0
O222 O 0.7264 0.66379 0.96623 0.0
C223 C 0.70293 0.62273 0.9302 0.0
N224 N 0.68969 0.62396 0.95303 0.0
C225 C 0.65577 0.5947 0.93634 0.0
C226 C 0.66898 0.59319 0.91259 0.0
C227 C 0.69271 0.6072 0.90956 0.0
C228 C 0.66695 0.61043 0.95623 0.0
H229 H 0.72113 0.63353 0.92779 0.0
C230 C 0.7511 0.66821 0.96722 0.0
O231 O 0.793 0.62571 0.02105 0.0
O232 O 0.77768 0.60162 0.9879 0.0
N233 N 0.66853 0.62654 0.99883 0.0
C234 C 0.65882 0.62926 0.02329 0.0
C235 C 0.63535 0.61615 0.0297 0.0
C236 C 0.62197 0.60068 0.01082 0.0
C237 C 0.63218 0.59844 0.98568 0.0
C238 C 0.6556 0.612 0.98041 0.0
H239 H 0.66891 0.64131 0.03782 0.0
O240 O 0.74012 0.59736 0.02734 0.0
O241 O 0.72225 0.61743 0.99446 0.0
O242 O 0.74184 0.65359 0.03366 0.0
O243 O 0.70434 0.66592 0.01541 0.0
C244 C 0.62025 0.58297 0.96575 0.0
C245 C 0.63212 0.58097 0.94115 0.0
H246 H 0.66118 0.58122 0.89663 0.0
H247 H 0.70306 0.60606 0.89132 0.0
H248 H 0.62759 0.61799 0.04914 0.0
H249 H 0.60397 0.59046 0.01588 0.0
H250 H 0.60218 0.57218 0.96928 0.0
H251 H 0.62299 0.56866 0.92614 0.0
Mn252 Mn 0.87448 0.00733 0.25698 0.0
Mn253 Mn 0.8917 0.94438 0.2512 0.0
C254 C 0.84765 0.97687 0.23522 0.0
C255 C 0.85286 0.04122 0.27764 0.0
C256 C 0.91567 0.9877 0.21898 0.0
O257 O 0.90225 0.00467 0.28561 0.0
O258 O 0.91113 0.96201 0.28038 0.0
C259 C 0.87018 0.92516 0.30087 0.0
N260 N 0.87125 0.9236 0.27443 0.0
C261 C 0.84011 0.8875 0.27315 0.0
C262 C 0.83879 0.88863 0.30038 0.0
C263 C 0.85387 0.90758 0.31428 0.0
C264 C 0.8568 0.90546 0.26085 0.0
H265 H 0.88164 0.93974 0.31165 0.0
C266 C 0.91427 0.98419 0.29214 0.0
O267 O 0.87195 0.0458 0.26176 0.0
O268 O 0.84747 0.01697 0.28284 0.0
N269 N 0.87383 0.92506 0.22391 0.0
C270 C 0.87635 0.92741 0.19768 0.0
C271 C 0.86215 0.91023 0.18094 0.0
C272 C 0.84562 0.89076 0.19133 0.0
C273 C 0.8435 0.8886 0.21838 0.0
C274 C 0.8583 0.90613 0.2341 0.0
H275 H 0.889 0.94234 0.18958 0.0
O276 O 0.84611 1.00149 0.2302 0.0
O277 O 0.86504 0.97088 0.25238 0.0
O278 O 0.90245 0.006 0.22889 0.0
O279 O 0.91336 0.96396 0.22601 0.0
C280 C 0.8269 0.87007 0.23036 0.0
C281 C 0.82514 0.86957 0.25772 0.0
H282 H 0.82613 0.8752 0.31079 0.0
H283 H 0.85286 0.90865 0.33529 0.0
H284 H 0.86386 0.91205 0.16008 0.0
H285 H 0.83449 0.87772 0.17835 0.0
H286 H 0.81508 0.85638 0.2187 0.0
H287 H 0.81201 0.85549 0.26668 0.0
Mn288 Mn 0.25533 0.12615 0.50843 0.0
Mn289 Mn 0.20142 0.14952 0.47954 0.0
C290 C 0.21679 0.10147 0.50762 0.0
C291 C 0.29449 0.10392 0.50837 0.0
C292 C 0.22065 0.16792 0.53261 0.0
O293 O 0.27036 0.15536 0.48593 0.0
O294 O 0.23309 0.16873 0.46747 0.0
C295 C 0.21212 0.13199 0.42561 0.0
N296 N 0.19599 0.1325 0.44652 0.0
C297 C 0.16264 0.10749 0.42323 0.0
C298 C 0.17883 0.10682 0.40138 0.0
C299 C 0.20371 0.11904 0.40261 0.0
C300 C 0.17209 0.12068 0.4456 0.0
H301 H 0.23123 0.14141 0.42649 0.0
C302 C 0.25786 0.17015 0.47083 0.0
O303 O 0.28946 0.12158 0.52583 0.0
O304 O 0.27702 0.0996 0.49024 0.0
N305 N 0.16908 0.133 0.48922 0.0
C306 C 0.15652 0.13423 0.51245 0.0
C307 C 0.13163 0.12235 0.51475 0.0
C308 C 0.11978 0.10968 0.49308 0.0
C309 C 0.13297 0.10896 0.46929 0.0
C310 C 0.1577 0.1212 0.46815 0.0
H311 H 0.16547 0.14411 0.52911 0.0
O312 O 0.23461 0.09741 0.52501 0.0
O313 O 0.22199 0.1198 0.49104 0.0
O314 O 0.24009 0.15304 0.53361 0.0
O315 O 0.20487 0.1682 0.51333 0.0
C316 C 0.12279 0.09612 0.4468 0.0
C317 C 0.13766 0.09529 0.42383 0.0
H318 H 0.17243 0.09681 0.38362 0.0
H319 H 0.21636 0.11851 0.38586 0.0
H320 H 0.12158 0.12299 0.53317 0.0
H321 H 0.10065 0.10041 0.49498 0.0
H322 H 0.10371 0.08648 0.44708 0.0
H323 H 0.12979 0.085 0.4068 0.0
Mn324 Mn 0.37564 0.50869 0.75911 0.0
Mn325 Mn 0.39907 0.44785 0.7547 0.0
C326 C 0.35214 0.47577 0.73739 0.0
C327 C 0.35114 0.54077 0.77922 0.0
C328 C 0.41912 0.49251 0.72197 0.0
O329 O 0.40294 0.50886 0.78829 0.0
O330 O 0.41683 0.46758 0.78372 0.0
C331 C 0.37889 0.42764 0.80452 0.0
N332 N 0.38029 0.42576 0.77811 0.0
C333 C 0.35189 0.38748 0.77716 0.0
C334 C 0.3503 0.38892 0.80436 0.0
C335 C 0.36383 0.4091 0.81809 0.0
C336 C 0.36736 0.40639 0.76471 0.0
H337 H 0.38911 0.44321 0.81514 0.0
C338 C 0.41727 0.49008 0.79507 0.0
O339 O 0.37006 0.54674 0.76358 0.0
O340 O 0.34731 0.51621 0.78425 0.0
N341 N 0.38315 0.42665 0.72759 0.0
C342 C 0.38558 0.42888 0.70134 0.0
C343 C 0.37271 0.41054 0.68476 0.0
C344 C 0.35756 0.3901 0.69532 0.0
C345 C 0.3555 0.38811 0.7224 0.0
C346 C 0.369 0.40679 0.73796 0.0
H347 H 0.39711 0.44461 0.69311 0.0
O348 O 0.34838 0.50002 0.73196 0.0
O349 O 0.36978 0.47162 0.75497 0.0
O350 O 0.40401 0.50953 0.73135 0.0
O351 O 0.4192 0.46888 0.72945 0.0
C352 C 0.34014 0.36865 0.73453 0.0
C353 C 0.3383 0.36837 0.76189 0.0
H354 H 0.33855 0.37477 0.81489 0.0
H355 H 0.36258 0.41042 0.83907 0.0
H356 H 0.37434 0.41225 0.66388 0.0
H357 H 0.34741 0.37617 0.68246 0.0
H358 H 0.32934 0.35406 0.72299 0.0
H359 H 0.32612 0.35355 0.77098 0.0
Mn360 Mn 0.75667 0.37244 0.50682 0.0
Mn361 Mn 0.75196 0.39749 0.44672 0.0
C362 C 0.73552 0.34894 0.47379 0.0
C363 C 0.77763 0.34791 0.53798 0.0
C364 C 0.71896 0.4152 0.49192 0.0
O365 O 0.78541 0.40089 0.50718 0.0
O366 O 0.781 0.41566 0.46623 0.0
C367 C 0.80201 0.37969 0.4254 0.0
N368 N 0.7755 0.38014 0.42404 0.0
C369 C 0.77464 0.35279 0.38548 0.0
C370 C 0.80194 0.35218 0.38637 0.0
C371 C 0.81568 0.36567 0.40644 0.0
C372 C 0.76209 0.36726 0.40479 0.0
H373 H 0.81266 0.38989 0.44087 0.0
C374 C 0.79223 0.41584 0.4886 0.0
O375 O 0.76144 0.36583 0.54455 0.0
O376 O 0.78252 0.34504 0.51338 0.0
N377 N 0.72483 0.38114 0.42587 0.0
C378 C 0.6985 0.38236 0.42872 0.0
C379 C 0.6819 0.36921 0.41068 0.0
C380 C 0.69252 0.355 0.3899 0.0
C381 C 0.71968 0.35415 0.38728 0.0
C382 C 0.73525 0.36786 0.40571 0.0
H383 H 0.69023 0.39314 0.44473 0.0
O384 O 0.73003 0.34426 0.49791 0.0
O385 O 0.75272 0.36753 0.46989 0.0
O386 O 0.72832 0.39971 0.50848 0.0
O387 O 0.72659 0.41625 0.46836 0.0
C388 C 0.7319 0.33981 0.36743 0.0
C389 C 0.75936 0.33912 0.36653 0.0
H390 H 0.81255 0.34123 0.37191 0.0
H391 H 0.83674 0.36517 0.40735 0.0
H392 H 0.66096 0.36989 0.41287 0.0
H393 H 0.67966 0.34464 0.37619 0.0
H394 H 0.72036 0.32891 0.35298 0.0
H395 H 0.76852 0.32771 0.3514 0.0
Mn396 Mn 0.64468 0.00692 0.75249 0.0
Mn397 Mn 0.62482 0.06911 0.74981 0.0
C398 C 0.67033 0.03878 0.73284 0.0
C399 C 0.66739 0.97371 0.7722 0.0
C400 C 0.60322 0.02575 0.71436 0.0
O401 O 0.61651 0.00767 0.78048 0.0
O402 O 0.60552 0.04979 0.77713 0.0
C403 C 0.64457 0.08758 0.80139 0.0
N404 N 0.64389 0.08998 0.77505 0.0
C405 C 0.67326 0.12749 0.77719 0.0
C406 C 0.67415 0.12551 0.80435 0.0
C407 C 0.65977 0.10544 0.81649 0.0
C408 C 0.65769 0.10919 0.76317 0.0
H409 H 0.63363 0.07214 0.8108 0.0
C410 C 0.6032 0.02728 0.78753 0.0
O411 O 0.6488 0.96857 0.75546 0.0
O412 O 0.67178 0.99807 0.77858 0.0
N413 N 0.64224 0.09009 0.72442 0.0
C414 C 0.64019 0.0886 0.698 0.0
C415 C 0.65384 0.10696 0.68288 0.0
C416 C 0.6693 0.12675 0.69508 0.0
C417 C 0.67086 0.12808 0.72231 0.0
C418 C 0.65666 0.10937 0.73637 0.0
H419 H 0.62837 0.07341 0.6885 0.0
O420 O 0.67296 0.01435 0.7267 0.0
O421 O 0.65269 0.04382 0.75005 0.0
O422 O 0.61685 0.00768 0.72374 0.0
O423 O 0.60464 0.04938 0.72271 0.0
C424 C 0.68634 0.14694 0.73605 0.0
C425 C 0.68758 0.14661 0.76346 0.0
H426 H 0.68595 0.13917 0.81606 0.0
H427 H 0.66045 0.10371 0.83743 0.0
H428 H 0.65253 0.1058 0.66188 0.0
H429 H 0.68001 0.1407 0.68335 0.0
H430 H 0.69767 0.16155 0.7257 0.0
H431 H 0.69983 0.161 0.77378 0.0
Mn432 Mn 0.01042 0.25139 0.8768 0.0
Mn433 Mn 0.94774 0.24446 0.89569 0.0
C434 C 0.97964 0.23105 0.84964 0.0
C435 C 0.04462 0.27316 0.85602 0.0
C436 C 0.99109 0.21161 0.91653 0.0
O437 O 0.00803 0.27873 0.90621 0.0
O438 O 0.96523 0.27361 0.91558 0.0
C439 C 0.9277 0.29443 0.87688 0.0
N440 N 0.92658 0.26783 0.87679 0.0
C441 C 0.89054 0.26656 0.8465 0.0
C442 C 0.89123 0.29394 0.84638 0.0
C443 C 0.90991 0.30792 0.86161 0.0
C444 C 0.90866 0.25418 0.86223 0.0
H445 H 0.94209 0.30527 0.88846 0.0
C446 C 0.98759 0.28519 0.91869 0.0
O447 O 0.04877 0.25627 0.87397 0.0
O448 O 0.02052 0.27873 0.8513 0.0
N449 N 0.92879 0.21713 0.8772 0.0
C450 C 0.93178 0.19083 0.87824 0.0
C451 C 0.91511 0.17404 0.86347 0.0
C452 C 0.89552 0.18444 0.84785 0.0
C453 C 0.89274 0.21157 0.84719 0.0
C454 C 0.90978 0.22733 0.8625 0.0
H455 H 0.94686 0.18272 0.89013 0.0
O456 O 0.00415 0.22609 0.84703 0.0
O457 O 0.97398 0.24721 0.8683 0.0
O458 O 0.00902 0.22168 0.90262 0.0
O459 O 0.96755 0.21905 0.91606 0.0
C460 C 0.87407 0.2236 0.83154 0.0
C461 C 0.87298 0.25107 0.83118 0.0
H462 H 0.87766 0.30442 0.8345 0.0
H463 H 0.91064 0.32905 0.86153 0.0
H464 H 0.91742 0.15313 0.86403 0.0
H465 H 0.88287 0.17144 0.83628 0.0
H466 H 0.86072 0.21192 0.81939 0.0
H467 H 0.8588 0.2601 0.81877 0.0
Mn468 Mn 0.50728 0.7518 0.37688 0.0
Mn469 Mn 0.44576 0.74696 0.39962 0.0
C470 C 0.47459 0.7318 0.35197 0.0
C471 C 0.54067 0.77244 0.35385 0.0
C472 C 0.48915 0.71297 0.4182 0.0
O473 O 0.5073 0.77978 0.40569 0.0
O474 O 0.46539 0.77537 0.41878 0.0
C475 C 0.42668 0.79777 0.38207 0.0
N476 N 0.42452 0.77121 0.38201 0.0
C477 C 0.38709 0.77141 0.35351 0.0
C478 C 0.38882 0.79878 0.35341 0.0
C479 C 0.40872 0.812 0.36773 0.0
C480 C 0.40541 0.75828 0.36834 0.0
H481 H 0.44203 0.80803 0.39292 0.0
C482 C 0.48816 0.7864 0.41996 0.0
O483 O 0.54549 0.75565 0.37173 0.0
O484 O 0.51647 0.7784 0.35036 0.0
N485 N 0.4248 0.72041 0.3822 0.0
C486 C 0.42686 0.69397 0.38301 0.0
C487 C 0.40892 0.67786 0.369 0.0
C488 C 0.38904 0.68906 0.35437 0.0
C489 C 0.38723 0.71631 0.35395 0.0
C490 C 0.40552 0.73138 0.3685 0.0
H491 H 0.44218 0.68526 0.3941 0.0
O492 O 0.49875 0.72608 0.34813 0.0
O493 O 0.47035 0.74855 0.37059 0.0
O494 O 0.50664 0.72261 0.40345 0.0
O495 O 0.46577 0.72081 0.41869 0.0
C496 C 0.36835 0.72911 0.33922 0.0
C497 C 0.36828 0.75664 0.339 0.0
H498 H 0.37513 0.80982 0.34221 0.0
H499 H 0.41026 0.83311 0.36764 0.0
H500 H 0.41049 0.65685 0.36936 0.0
H501 H 0.37542 0.67657 0.34336 0.0
H502 H 0.35404 0.71797 0.32768 0.0
H503 H 0.35391 0.76625 0.3273 0.0
Mn504 Mn 0.00514 0.75394 0.63041 0.0
Mn505 Mn 0.98078 0.69498 0.64863 0.0
C506 C 0.0092 0.71751 0.60349 0.0
C507 C 1.00128 0.79415 0.61021 0.0
C508 C 0.03089 0.71935 0.67076 0.0
O509 O 0.97981 0.76361 0.65934 0.0
O510 O 0.96387 0.72335 0.6684 0.0
C511 C 0.92691 0.69975 0.62855 0.0
N512 N 0.94959 0.68661 0.62931 0.0
C513 C 0.93196 0.65286 0.60055 0.0
C514 C 0.90837 0.66597 0.59956 0.0
C515 C 0.90587 0.68956 0.61355 0.0
C516 C 0.95226 0.66399 0.61578 0.0
H517 H 0.9249 0.71786 0.63931 0.0
C518 C 0.96454 0.7482 0.6718 0.0
O519 O 0.01859 0.79068 0.62825 0.0
O520 O 0.98558 0.7745 0.6045 0.0
N521 N 0.99516 0.66561 0.63091 0.0
C522 C 0.01953 0.65595 0.63311 0.0
C523 C 0.02541 0.63264 0.61992 0.0
C524 C 0.00611 0.61935 0.60488 0.0
C525 C 0.98106 0.62947 0.6032 0.0
C526 C 0.97632 0.65273 0.61684 0.0
H527 H 0.03441 0.666 0.64477 0.0
O528 O 0.02503 0.73756 0.60117 0.0
O529 O 0.99164 0.71933 0.62143 0.0
O530 O 0.03059 0.74001 0.6573 0.0
O531 O 0.01312 0.70139 0.66921 0.0
C532 C 0.96073 0.61761 0.5882 0.0
C533 C 0.93624 0.62937 0.58677 0.0
H534 H 0.8921 0.65819 0.58799 0.0
H535 H 0.88776 0.69984 0.6128 0.0
H536 H 0.04478 0.62495 0.62134 0.0
H537 H 0.01077 0.60149 0.59457 0.0
H538 H 0.96386 0.59968 0.57734 0.0
H539 H 0.9209 0.62028 0.57484 0.0
Mn540 Mn 0.50563 0.25647 0.13025 0.0
Mn541 Mn 0.47895 0.19895 0.14938 0.0
C542 C 0.50862 0.21942 0.10399 0.0
C543 C 0.50221 0.29644 0.10959 0.0
C544 C 0.52946 0.22256 0.17192 0.0
O545 O 0.48098 0.26722 0.15935 0.0
O546 O 0.46125 0.22818 0.16722 0.0
C547 C 0.4265 0.20377 0.1258 0.0
N548 N 0.44872 0.19019 0.12871 0.0
C549 C 0.43222 0.15565 0.10025 0.0
C550 C 0.40897 0.16905 0.09732 0.0
C551 C 0.40617 0.1933 0.11002 0.0
C552 C 0.45181 0.16709 0.11618 0.0
H553 H 0.42439 0.22252 0.13531 0.0
C554 C 0.4638 0.25297 0.17071 0.0
O555 O 0.51979 0.29289 0.12736 0.0
O556 O 0.48615 0.27698 0.10431 0.0
N557 N 0.49394 0.16895 0.13335 0.0
C558 C 0.51816 0.1593 0.13692 0.0
C559 C 0.52448 0.13556 0.1248 0.0
C560 C 0.50578 0.12185 0.10936 0.0
C561 C 0.4809 0.13202 0.10619 0.0
C562 C 0.4757 0.15573 0.11881 0.0
H563 H 0.53259 0.16965 0.14887 0.0
O564 O 0.52481 0.23907 0.10102 0.0
O565 O 0.49127 0.2222 0.12197 0.0
O566 O 0.53078 0.24219 0.15704 0.0
O567 O 0.51048 0.20579 0.17135 0.0
C568 C 0.46119 0.11976 0.09069 0.0
C569 C 0.43691 0.13163 0.08761 0.0
H570 H 0.39328 0.16107 0.08511 0.0
H571 H 0.38841 0.20391 0.10762 0.0
H572 H 0.54373 0.12784 0.12735 0.0
H573 H 0.51078 0.10364 0.0999 0.0
H574 H 0.46467 0.10144 0.08065 0.0
H575 H 0.42211 0.12228 0.07522 0.0
H576 H 0.16504 0.73551 0.86786 0.0
H577 H 0.27058 0.82449 0.94666 0.0
H578 H 0.24764 0.73794 0.8522 0.0
H579 H 0.18816 0.82758 0.96142 0.0
H580 H 0.26203 0.79114 0.91312 0.0
H581 H 0.17239 0.76837 0.90259 0.0
C582 C 0.18469 0.74301 0.87165 0.0
C583 C 0.20579 0.73381 0.8572 0.0
C584 C 0.2457 0.79905 0.92355 0.0
C585 C 0.21433 0.77111 0.89702 0.0
C586 C 0.25059 0.81817 0.9426 0.0
C587 C 0.22993 0.82928 0.95603 0.0
C588 C 0.2199 0.79074 0.91802 0.0
C589 C 0.2045 0.81977 0.95094 0.0
C590 C 0.18887 0.76164 0.89156 0.0
C591 C 0.23085 0.74405 0.86312 0.0
N592 N 0.2001 0.80115 0.93204 0.0
N593 N 0.23438 0.76209 0.88254 0.0
H594 H 0.01606 0.48828 0.42905 0.0
H595 H 0.06483 0.5605 0.30067 0.0
H596 H 0.00541 0.56958 0.41269 0.0
H597 H 0.09436 0.48582 0.32252 0.0
H598 H 0.03768 0.56049 0.339 0.0
H599 H 0.04015 0.48381 0.38793 0.0
C600 C 0.01875 0.50512 0.41679 0.0
C601 C 0.00904 0.52942 0.4244 0.0
C602 C 0.05001 0.54402 0.33548 0.0
C603 C 0.03611 0.52441 0.37753 0.0
C604 C 0.06557 0.54396 0.31346 0.0
C605 C 0.08225 0.52325 0.30839 0.0
C606 C 0.05095 0.52325 0.35285 0.0
C607 C 0.08191 0.50225 0.32568 0.0
C608 C 0.03251 0.50258 0.39344 0.0
C609 C 0.01297 0.55061 0.40784 0.0
N610 N 0.06662 0.50286 0.34729 0.0
N611 N 0.02613 0.54759 0.38527 0.0
H612 H 0.84455 0.77895 0.87628 0.0
H613 H 0.72432 0.69395 0.93023 0.0
H614 H 0.76369 0.78905 0.85602 0.0
H615 H 0.8018 0.68839 0.9629 0.0
H616 H 0.74011 0.72772 0.90181 0.0
H617 H 0.83089 0.74526 0.90731 0.0
C618 C 0.82396 0.77425 0.87848 0.0
C619 C 0.80523 0.78701 0.86361 0.0
C620 C 0.75378 0.71928 0.91518 0.0
C621 C 0.78959 0.74852 0.89881 0.0
C622 C 0.74476 0.6998 0.93153 0.0
C623 C 0.76169 0.68825 0.94927 0.0
C624 C 0.78008 0.72752 0.91623 0.0
C625 C 0.78802 0.69675 0.9496 0.0
C626 C 0.81622 0.75509 0.8962 0.0
C627 C 0.77885 0.7802 0.86732 0.0
N628 N 0.79645 0.71594 0.93329 0.0
N629 N 0.77191 0.76143 0.88439 0.0
H630 H 1.00144 0.93407 0.42459 0.0
H631 H 0.92613 0.02549 0.32628 0.0
H632 H 0.00408 0.01802 0.43327 0.0
H633 H 0.9422 0.94428 0.31143 0.0
H634 H 0.95262 0.02398 0.3663 0.0
H635 H 0.97691 0.93801 0.38417 0.0
C636 C 0.99669 0.95336 0.41804 0.0
C637 C 0.0047 0.97573 0.4324 0.0
C638 C 0.9504 0.00662 0.35409 0.0
C639 C 0.97669 0.98048 0.38582 0.0
C640 C 0.93532 0.00746 0.33124 0.0
C641 C 0.93174 0.98497 0.31539 0.0
C642 C 0.96173 0.98308 0.36118 0.0
C643 C 0.94416 0.96215 0.32291 0.0
C644 C 0.98284 0.95564 0.39483 0.0
C645 C 0.99836 1.00028 0.42271 0.0
N646 N 0.95836 0.96179 0.34522 0.0
N647 N 0.98459 0.00202 0.40006 0.0
H648 H 0.20476 0.24265 0.68418 0.0
H649 H 0.19551 0.21422 0.53181 0.0
H650 H 0.20155 0.30452 0.62857 0.0
H651 H 0.23652 0.16369 0.58337 0.0
H652 H 0.19021 0.24526 0.56802 0.0
H653 H 0.20931 0.21099 0.64818 0.0
C654 C 0.2049 0.24949 0.66436 0.0
C655 C 0.20281 0.27615 0.65923 0.0
C656 C 0.20034 0.22735 0.57136 0.0
C657 C 0.20768 0.24021 0.61817 0.0
C658 C 0.20324 0.20956 0.55078 0.0
C659 C 0.21653 0.18635 0.55458 0.0
C660 C 0.21031 0.22165 0.59603 0.0
C661 C 0.22628 0.18142 0.57956 0.0
C662 C 0.20762 0.2315 0.64391 0.0
C663 C 0.20326 0.28412 0.63327 0.0
N664 N 0.22283 0.19886 0.5994 0.0
N665 N 0.20545 0.26618 0.61366 0.0
H666 H 0.54868 0.51881 0.61698 0.0
H667 H 0.4122 0.53115 0.68685 0.0
H668 H 0.47941 0.54137 0.57565 0.0
H669 H 0.46559 0.47134 0.70792 0.0
H670 H 0.44018 0.5424 0.65006 0.0
H671 H 0.5216 0.50776 0.65439 0.0
C672 C 0.52784 0.52134 0.61558 0.0
C673 C 0.51646 0.53108 0.59286 0.0
C674 C 0.44575 0.52687 0.66282 0.0
C675 C 0.48558 0.51926 0.63614 0.0
C676 C 0.42993 0.52054 0.68389 0.0
C677 C 0.43658 0.50025 0.70046 0.0
C678 C 0.46869 0.51321 0.65859 0.0
C679 C 0.45969 0.48703 0.69554 0.0
C680 C 0.51247 0.51517 0.63707 0.0
C681 C 0.48932 0.5345 0.59274 0.0
N682 N 0.47504 0.49385 0.67512 0.0
N683 N 0.47488 0.52877 0.61407 0.0
H684 H 0.82072 0.2691 0.67915 0.0
H685 H 0.7999 0.30082 0.52906 0.0
H686 H 0.8108 0.20902 0.61981 0.0
H687 H 0.77817 0.35358 0.59102 0.0
H688 H 0.8122 0.26894 0.56156 0.0
H689 H 0.81287 0.30221 0.64639 0.0
C690 C 0.81706 0.26293 0.65916 0.0
C691 C 0.81638 0.23633 0.65211 0.0
C692 C 0.8049 0.28757 0.568 0.0
C693 C 0.80758 0.27402 0.61462 0.0
C694 C 0.79807 0.30585 0.5495 0.0
C695 C 0.78793 0.32985 0.55738 0.0
C696 C 0.80193 0.2935 0.59455 0.0
C697 C 0.78581 0.33526 0.58412 0.0
C698 C 0.81248 0.28179 0.64055 0.0
C699 C 0.81131 0.22933 0.62602 0.0
N700 N 0.79276 0.31722 0.60177 0.0
N701 N 0.80722 0.24809 0.60816 0.0
H702 H 0.50652 0.94665 0.59651 0.0
H703 H 0.57627 0.05939 0.68393 0.0
H704 H 0.506 0.02842 0.57756 0.0
H705 H 0.58937 0.97726 0.69406 0.0
H706 H 0.54784 0.04837 0.64686 0.0
H707 H 0.53464 0.95748 0.63392 0.0
C708 C 0.51244 0.96687 0.60006 0.0
C709 C 0.50386 0.98663 0.58372 0.0
C710 C 0.55693 0.03276 0.6572 0.0
C711 C 0.53576 0.99921 0.62693 0.0
C712 C 0.57313 0.03901 0.67847 0.0
C713 C 0.58533 0.01923 0.69222 0.0
C714 C 0.55268 0.0065 0.64962 0.0
C715 C 0.58049 0.9932 0.68406 0.0
C716 C 0.52839 0.97304 0.62155 0.0
C717 C 0.51179 0.01254 0.58974 0.0
N718 N 0.56453 0.9876 0.66334 0.0
N719 N 0.52724 0.01806 0.61084 0.0
H720 H 0.87761 0.16391 0.72937 0.0
H721 H 0.95267 0.26693 0.82411 0.0
H722 H 0.86327 0.24651 0.73235 0.0
H723 H 0.967 0.18452 0.82463 0.0
H724 H 0.92175 0.25965 0.78832 0.0
H725 H 0.91172 0.17071 0.76259 0.0
C726 C 0.88165 0.18347 0.73696 0.0
C727 C 0.86756 0.20469 0.728 0.0
C728 C 0.93157 0.24306 0.79615 0.0
C729 C 0.90669 0.2126 0.7658 0.0
C730 C 0.94909 0.24722 0.81666 0.0
C731 C 0.96155 0.22613 0.82774 0.0
C732 C 0.92657 0.21759 0.7865 0.0
C733 C 0.95718 0.20114 0.81686 0.0
C734 C 0.9012 0.18734 0.75583 0.0
C735 C 0.87386 0.22963 0.73833 0.0
N736 N 0.93972 0.19745 0.79696 0.0
N737 N 0.89286 0.23285 0.75669 0.0
H738 H 0.48066 0.94582 0.47164 0.0
H739 H 0.46887 0.79206 0.46875 0.0
H740 H 0.47741 0.90197 0.54241 0.0
H741 H 0.51307 0.83318 0.41048 0.0
H742 H 0.46784 0.83238 0.49499 0.0
H743 H 0.48799 0.90504 0.44709 0.0
C744 C 0.48143 0.92758 0.48193 0.0
C745 C 0.47841 0.92712 0.50901 0.0
C746 C 0.47809 0.83249 0.47664 0.0
C747 C 0.48656 0.88071 0.48124 0.0
C748 C 0.47872 0.80953 0.46172 0.0
C749 C 0.49124 0.80933 0.43757 0.0
C750 C 0.48937 0.85561 0.46697 0.0
C751 C 0.50351 0.83251 0.42917 0.0
C752 C 0.48582 0.90445 0.46801 0.0
C753 C 0.47974 0.90308 0.52154 0.0
N754 N 0.5019 0.8549 0.44367 0.0
N755 N 0.48344 0.88078 0.50753 0.0
H756 H 0.14176 0.34432 0.73677 0.0
H757 H 0.0942 0.25557 0.854 0.0
H758 H 0.16973 0.26702 0.7496 0.0
H759 H 0.04362 0.31118 0.819 0.0
H760 H 0.1272 0.26577 0.82142 0.0
H761 H 0.10996 0.33781 0.77182 0.0
C762 C 0.14113 0.32599 0.74698 0.0
C763 C 0.15819 0.30608 0.74029 0.0
C764 C 0.10896 0.27589 0.82103 0.0
C765 C 0.1225 0.29879 0.78049 0.0
C766 C 0.09019 0.27027 0.83975 0.0
C767 C 0.06605 0.28246 0.83914 0.0
C768 C 0.10374 0.29409 0.80175 0.0
C769 C 0.06194 0.30128 0.82011 0.0
C770 C 0.12304 0.32231 0.76688 0.0
C771 C 0.1567 0.28271 0.75404 0.0
N772 N 0.08061 0.30651 0.80209 0.0
N773 N 0.13928 0.27977 0.77363 0.0
H774 H 0.54448 0.56791 0.47801 0.0
H775 H 0.46729 0.69888 0.46462 0.0
H776 H 0.51977 0.61171 0.54564 0.0
H777 H 0.52723 0.67753 0.41042 0.0
H778 H 0.47992 0.66281 0.49246 0.0
H779 H 0.53232 0.60418 0.45073 0.0
C780 C 0.53673 0.58513 0.48726 0.0
C781 C 0.53333 0.58657 0.51437 0.0
C782 C 0.49028 0.66612 0.47447 0.0
C783 C 0.51848 0.62785 0.48288 0.0
C784 C 0.48303 0.68657 0.45855 0.0
C785 C 0.49631 0.69127 0.43523 0.0
C786 C 0.5105 0.64991 0.4667 0.0
C787 C 0.51661 0.67474 0.42833 0.0
C788 C 0.52962 0.60576 0.47157 0.0
C789 C 0.52239 0.6093 0.52489 0.0
N790 N 0.52295 0.65467 0.44389 0.0
N791 N 0.51521 0.62894 0.50912 0.0
H792 H 0.87217 0.8452 0.77562 0.0
H793 H 0.92873 0.72118 0.70053 0.0
H794 H 0.84532 0.76536 0.78541 0.0
H795 H 0.95795 0.79975 0.68716 0.0
H796 H 0.89832 0.73809 0.73181 0.0
H797 H 0.9036 0.83007 0.74317 0.0
C798 C 0.87287 0.82453 0.77095 0.0
C799 C 0.85628 0.80649 0.7835 0.0
C800 C 0.91133 0.75175 0.72213 0.0
C801 C 0.8921 0.78912 0.74656 0.0
C802 C 0.92885 0.74208 0.70416 0.0
C803 C 0.94612 0.75902 0.69108 0.0
C804 C 0.91081 0.7787 0.72732 0.0
C805 C 0.94506 0.78593 0.69676 0.0
C806 C 0.89085 0.81593 0.75252 0.0
C807 C 0.85806 0.77995 0.77674 0.0
N808 N 0.92768 0.79497 0.7145 0.0
N809 N 0.8756 0.77214 0.75882 0.0
H810 H 0.0317 0.94982 0.55135 0.0
H811 H 0.97587 0.80315 0.56439 0.0
H812 H 0.00664 0.90147 0.4856 0.0
H813 H 0.02632 0.84084 0.62209 0.0
H814 H 0.97942 0.84238 0.53793 0.0
H815 H 0.02286 0.91298 0.57993 0.0
C816 C 0.02437 0.93155 0.54284 0.0
C817 C 0.02012 0.92887 0.51585 0.0
C818 C 0.98955 0.84211 0.55648 0.0
C819 C 0.00937 0.88677 0.54871 0.0
C820 C 0.98742 0.8198 0.57166 0.0
C821 C 1.00094 0.81868 0.59542 0.0
C822 C 0.00506 0.86359 0.56525 0.0
C823 C 0.01569 0.84081 0.60382 0.0
C824 C 0.01918 0.91057 0.55924 0.0
C825 C 0.00993 0.90476 0.50623 0.0
N826 N 0.0174 0.86235 0.58874 0.0
N827 N 0.00495 0.8847 0.52261 0.0
H828 H 0.14464 0.65811 0.77801 0.0
H829 H 0.06929 0.75527 0.68516 0.0
H830 H 0.16232 0.74082 0.77426 0.0
H831 H 0.04305 0.67569 0.69815 0.0
H832 H 0.1053 0.74939 0.71556 0.0
H833 H 0.1092 0.66321 0.74643 0.0
C834 C 0.14112 0.67731 0.77046 0.0
C835 C 0.15635 0.69909 0.77889 0.0
C836 C 0.09165 0.73321 0.71177 0.0
C837 C 0.11587 0.70509 0.74283 0.0
C838 C 0.07108 0.73653 0.69435 0.0
C839 C 0.05298 0.71597 0.68908 0.0
C840 C 0.09435 0.70911 0.72397 0.0
C841 C 0.0564 0.69215 0.70166 0.0
C842 C 0.12082 0.68024 0.75255 0.0
C843 C 0.15082 0.72355 0.76861 0.0
N844 N 0.07668 0.68937 0.71848 0.0
N845 N 0.13109 0.72588 0.75112 0.0
H846 H 0.03179 0.58143 0.50498 0.0
H847 H 0.96659 0.70399 0.57476 0.0
H848 H 0.94959 0.59692 0.50254 0.0
H849 H 0.04761 0.68642 0.58462 0.0
H850 H 0.96173 0.66804 0.54312 0.0
H851 H 0.03941 0.62209 0.53017 0.0
C852 C 0.01538 0.59346 0.50965 0.0
C853 C 0.98998 0.58569 0.50183 0.0
C854 C 0.98064 0.67201 0.55204 0.0
C855 C 0.99858 0.63224 0.53037 0.0
C856 C 0.98337 0.69245 0.57014 0.0
C857 C 0.00725 0.6973 0.5829 0.0
C858 C 1.002 0.65627 0.54672 0.0
C859 C 0.02871 0.68266 0.57559 0.0
C860 C 0.01974 0.61662 0.52401 0.0
C861 C 0.96942 0.60191 0.50851 0.0
N862 N 0.02549 0.66239 0.55826 0.0
N863 N 0.97418 0.62437 0.52236 0.0
H864 H 0.73158 0.85469 0.24706 0.0
H865 H 0.8262 0.96477 0.18719 0.0
H866 H 0.73138 0.87206 0.16519 0.0
H867 H 0.81856 0.94936 0.26892 0.0
H868 H 0.79068 0.93234 0.17791 0.0
H869 H 0.76311 0.89026 0.25476 0.0
C870 C 0.7379 0.86625 0.23069 0.0
C871 C 0.72852 0.86055 0.20547 0.0
C872 C 0.79674 0.93618 0.19786 0.0
C873 C 0.76521 0.90134 0.21413 0.0
C874 C 0.81693 0.95459 0.2031 0.0
C875 C 0.82575 0.95881 0.22871 0.0
C876 C 0.78523 0.92247 0.21853 0.0
C877 C 0.81283 0.94586 0.24882 0.0
C878 C 0.75607 0.88654 0.23509 0.0
C879 C 0.73814 0.87574 0.18495 0.0
N880 N 0.7934 0.92811 0.24329 0.0
N881 N 0.75601 0.89548 0.18971 0.0
H882 H 0.74538 0.16542 0.26657 0.0
H883 H 0.81621 0.03987 0.31623 0.0
H884 H 0.73494 0.13829 0.34483 0.0
H885 H 0.84944 0.09008 0.25782 0.0
H886 H 0.78353 0.07277 0.32542 0.0
H887 H 0.78024 0.1342 0.26048 0.0
C888 C 0.7503 0.15269 0.28237 0.0
C889 C 0.73728 0.1543 0.30619 0.0
C890 C 0.79819 0.07665 0.31083 0.0
C891 C 0.77705 0.11868 0.29943 0.0
C892 C 0.81686 0.05795 0.30561 0.0
C893 C 0.83559 0.06226 0.28626 0.0
C894 C 0.79792 0.09951 0.29615 0.0
C895 C 0.83545 0.08598 0.27299 0.0
C896 C 0.77032 0.1351 0.27899 0.0
C897 C 0.7446 0.13762 0.32618 0.0
N898 N 0.81668 0.10355 0.27793 0.0
N899 N 0.76389 0.12033 0.3223 0.0
H900 H 0.40917 0.04085 0.97908 0.0
H901 H 0.3396 0.9051 0.01465 0.0
H902 H 0.45246 0.97016 0.98332 0.0
H903 H 0.30149 0.96433 0.97096 0.0
H904 H 0.38053 0.93143 0.01323 0.0
H905 H 0.36873 0.0154 0.98572 0.0
C906 C 0.41011 0.01994 0.98157 0.0
C907 C 0.43409 0.00751 0.98064 0.0
C908 C 0.36308 0.93868 0.00423 0.0
C909 C 0.388 0.97839 0.98851 0.0
C910 C 0.33974 0.92388 0.00528 0.0
C911 C 0.31721 0.93265 0.99294 0.0
C912 C 0.36359 0.9626 0.99128 0.0
C913 C 0.31846 0.95689 0.98067 0.0
C914 C 0.38708 0.00547 0.98529 0.0
C915 C 0.43428 0.98037 0.98379 0.0
N916 N 0.34124 0.97105 0.98022 0.0
N917 N 0.41152 0.96664 0.98774 0.0
H918 H 0.24102 0.32718 0.31325 0.0
H919 H 0.21134 0.47817 0.29788 0.0
H920 H 0.30129 0.38689 0.30517 0.0
H921 H 0.1573 0.41736 0.27064 0.0
H922 H 0.24226 0.44486 0.30959 0.0
H923 H 0.20796 0.36009 0.30579 0.0
C924 C 0.24723 0.34725 0.31003 0.0
C925 C 0.27386 0.3544 0.30972 0.0
C926 C 0.22355 0.43882 0.30123 0.0
C927 C 0.23634 0.39199 0.30158 0.0
C928 C 0.20579 0.45778 0.29471 0.0
C929 C 0.18172 0.45053 0.28315 0.0
C930 C 0.21709 0.41235 0.29653 0.0
C931 C 0.17568 0.4238 0.27941 0.0
C932 C 0.22843 0.36593 0.30571 0.0
C933 C 0.28095 0.38059 0.30535 0.0
N934 N 0.19328 0.40563 0.28607 0.0
N935 N 0.2623 0.39848 0.30159 0.0
H936 H 0.10318 0.97194 0.50906 0.0
H937 H 0.19988 0.07658 0.46326 0.0
H938 H 0.06823 0.03655 0.47001 0.0
H939 H 0.1846 0.08265 0.5454 0.0
H940 H 0.16131 0.04708 0.45809 0.0
H941 H 0.14278 0.99905 0.5161 0.0
C942 C 0.10353 0.99177 0.50214 0.0
C943 C 0.08194 0.00184 0.48896 0.0
C944 C 0.16656 0.05491 0.47719 0.0
C945 C 0.12776 0.03225 0.49609 0.0
C946 C 0.18824 0.07183 0.48012 0.0
C947 C 0.19443 0.08297 0.50455 0.0
C948 C 0.15166 0.04854 0.49901 0.0
C949 C 0.17981 0.07504 0.52612 0.0
C950 C 0.12629 0.00704 0.50602 0.0
C951 C 0.08431 0.02756 0.4798 0.0
N952 N 0.15882 0.05838 0.52285 0.0
N953 N 0.10689 0.04177 0.48333 0.0
H954 H 0.7807 0.1448 0.65827 0.0
H955 H 0.69867 0.06861 0.76685 0.0
H956 H 0.78619 0.16126 0.74078 0.0
H957 H 0.68998 0.05106 0.68497 0.0
H958 H 0.73242 0.10145 0.75713 0.0
H959 H 0.74811 0.11001 0.66689 0.0
C960 C 0.77505 0.14113 0.67816 0.0
C961 C 0.78641 0.15578 0.69886 0.0
C962 C 0.7232 0.09053 0.74118 0.0
C963 C 0.74942 0.11598 0.70884 0.0
C964 C 0.70386 0.0719 0.74675 0.0
C965 C 0.69103 0.05798 0.72657 0.0
C966 C 0.7299 0.09516 0.71518 0.0
C967 C 0.69911 0.06201 0.70095 0.0
C968 C 0.75657 0.1212 0.68307 0.0
C969 C 0.77842 0.15012 0.72425 0.0
N970 N 0.71788 0.08056 0.69589 0.0
N971 N 0.76049 0.13072 0.72848 0.0
H972 H 0.42711 0.00298 0.48602 0.0
H973 H 0.32904 0.10368 0.54875 0.0
H974 H 0.41816 0.01526 0.56879 0.0
H975 H 0.31412 0.06857 0.47298 0.0
H976 H 0.36663 0.07622 0.55379 0.0
H977 H 0.3897 0.03077 0.47857 0.0
C978 C 0.41734 0.01136 0.50264 0.0
C979 C 0.42616 0.00687 0.52812 0.0
C980 C 0.35519 0.07452 0.53602 0.0
C981 C 0.38372 0.03913 0.51957 0.0
C982 C 0.33377 0.09032 0.53304 0.0
C983 C 0.31831 0.08838 0.51042 0.0
C984 C 0.36154 0.05676 0.51614 0.0
C985 C 0.32546 0.07062 0.49077 0.0
C986 C 0.39606 0.02732 0.49831 0.0
C987 C 0.41273 0.01861 0.54878 0.0
N988 N 0.34663 0.05549 0.49405 0.0
N989 N 0.3924 0.03425 0.54404 0.0
H990 H 0.61621 0.54412 0.51912 0.0
H991 H 0.6843 0.40755 0.5315 0.0
H992 H 0.5751 0.47541 0.54712 0.0
H993 H 0.70492 0.46167 0.47107 0.0
H994 H 0.64818 0.43533 0.54388 0.0
H995 H 0.65276 0.51694 0.5072 0.0
C996 C 0.61467 0.52337 0.52267 0.0
C997 C 0.59226 0.51217 0.53414 0.0
C998 C 0.66067 0.44109 0.52794 0.0
C999 C 0.63461 0.48115 0.52122 0.0
C1000 C 0.68136 0.42536 0.52096 0.0
C1001 C 0.69763 0.43229 0.50019 0.0
C1002 C 0.65653 0.46419 0.51443 0.0
C1003 C 0.69277 0.45552 0.48711 0.0
C1004 C 0.63569 0.50792 0.51598 0.0
C1005 C 0.59199 0.48517 0.53882 0.0
N1006 N 0.67275 0.47074 0.49455 0.0
N1007 N 0.61286 0.47065 0.53248 0.0
H1008 H 0.66518 0.23342 0.36717 0.0
H1009 H 0.77044 0.32492 0.44362 0.0
H1010 H 0.74782 0.23527 0.35172 0.0
H1011 H 0.68824 0.32602 0.46 0.0
H1012 H 0.76204 0.29112 0.41045 0.0
H1013 H 0.67258 0.26677 0.40142 0.0
C1014 C 0.68486 0.24083 0.37096 0.0
C1015 C 0.70594 0.23141 0.35663 0.0
C1016 C 0.74573 0.29871 0.42114 0.0
C1017 C 0.71452 0.26937 0.39584 0.0
C1018 C 0.75052 0.31812 0.43994 0.0
C1019 C 0.72985 0.32876 0.45376 0.0
C1020 C 0.72003 0.2896 0.4163 0.0
C1021 C 0.70456 0.31861 0.44919 0.0
C1022 C 0.68907 0.25977 0.39057 0.0
C1023 C 0.73104 0.24156 0.36254 0.0
N1024 N 0.70026 0.29968 0.43058 0.0
N1025 N 0.73459 0.25996 0.38163 0.0
H1026 H 0.50525 0.07252 0.91348 0.0
H1027 H 0.59725 0.98729 0.82292 0.0
H1028 H 0.51849 0.99151 0.92904 0.0
H1029 H 0.56734 0.06237 0.803 0.0
H1030 H 0.56955 0.98732 0.86185 0.0
H1031 H 0.52961 0.06852 0.87333 0.0
C1032 C 0.51348 0.05387 0.90848 0.0
C1033 C 0.51013 0.03241 0.92478 0.0
C1034 C 0.56899 0.00362 0.84875 0.0
C1035 C 0.538 0.02751 0.87841 0.0
C1036 C 0.58473 0.0036 0.82651 0.0
C1037 C 0.5849 0.02498 0.80971 0.0
C1038 C 0.55348 0.0252 0.85418 0.0
C1039 C 0.56824 0.04557 0.81541 0.0
C1040 C 0.52724 0.05151 0.8854 0.0
C1041 C 0.52071 0.00854 0.91699 0.0
N1042 N 0.55346 0.04521 0.83714 0.0
N1043 N 0.5344 0.00675 0.8944 0.0
H1044 H 0.29547 0.31158 0.38963 0.0
H1045 H 0.30206 0.16549 0.44149 0.0
H1046 H 0.32397 0.24805 0.34248 0.0
H1047 H 0.2451 0.22065 0.46642 0.0
H1048 H 0.32042 0.19853 0.41184 0.0
H1049 H 0.28703 0.28101 0.4247 0.0
C1050 C 0.30006 0.29126 0.38661 0.0
C1051 C 0.31001 0.28239 0.36277 0.0
C1052 C 0.30417 0.20343 0.42415 0.0
C1053 C 0.30096 0.24741 0.40322 0.0
C1054 C 0.29387 0.18474 0.44113 0.0
C1055 C 0.27205 0.19047 0.45622 0.0
C1056 C 0.29282 0.22803 0.42283 0.0
C1057 C 0.26187 0.21551 0.45493 0.0
C1058 C 0.29539 0.27387 0.40674 0.0
C1059 C 0.31636 0.2559 0.36046 0.0
N1060 N 0.27231 0.23335 0.4385 0.0
N1061 N 0.31155 0.2393 0.38036 0.0
H1062 H 0.54142 0.47657 0.90831 0.0
H1063 H 0.40818 0.51705 0.84056 0.0
H1064 H 0.4714 0.48846 0.95236 0.0
H1065 H 0.46508 0.46974 0.80227 0.0
H1066 H 0.43465 0.51644 0.88069 0.0
H1067 H 0.51686 0.48355 0.86812 0.0
C1068 C 0.5209 0.48087 0.9095 0.0
C1069 C 0.50836 0.48184 0.93364 0.0
C1070 C 0.44139 0.50647 0.86337 0.0
C1071 C 0.48025 0.49007 0.88782 0.0
C1072 C 0.42647 0.50702 0.84047 0.0
C1073 C 0.43449 0.49339 0.81814 0.0
C1074 C 0.46467 0.49268 0.86366 0.0
C1075 C 0.45817 0.48039 0.81911 0.0
C1076 C 0.50691 0.48476 0.8866 0.0
C1077 C 0.4817 0.48731 0.93409 0.0
N1078 N 0.47243 0.48039 0.84146 0.0
N1079 N 0.4685 0.49132 0.91149 0.0
H1080 H 0.69697 0.80743 0.12563 0.0
H1081 H 0.74051 0.66546 0.08327 0.0
H1082 H 0.70451 0.74595 0.18115 0.0
H1083 H 0.69466 0.71271 0.03266 0.0
H1084 H 0.73436 0.69737 0.11865 0.0
H1085 H 0.70305 0.77542 0.09019 0.0
C1086 C 0.7 0.7872 0.13029 0.0
C1087 C 0.70016 0.7792 0.15622 0.0
C1088 C 0.72564 0.70066 0.09978 0.0
C1089 C 0.70743 0.74277 0.11607 0.0
C1090 C 0.72923 0.68257 0.07959 0.0
C1091 C 0.71803 0.68643 0.05501 0.0
C1092 C 0.71128 0.72304 0.0952 0.0
C1093 C 0.70349 0.7089 0.05135 0.0
C1094 C 0.70333 0.76899 0.11014 0.0
C1095 C 0.70407 0.75278 0.16134 0.0
N1096 N 0.70071 0.72648 0.07117 0.0
N1097 N 0.70776 0.7355 0.14143 0.0
H1098 H 0.00893 0.06828 0.10389 0.0
H1099 H 0.94365 0.95417 0.1884 0.0
H1100 H 0.01693 0.98629 0.08597 0.0
H1101 H 0.92967 0.03617 0.20084 0.0
H1102 H 0.97262 0.96546 0.15251 0.0
H1103 H 0.98171 0.05675 0.14093 0.0
C1104 C 0.00487 0.04783 0.10766 0.0
C1105 C 0.01517 0.02824 0.09165 0.0
C1106 C 0.96325 0.98097 0.16314 0.0
C1107 C 0.98418 0.01486 0.13437 0.0
C1108 C 0.94673 0.97456 0.18372 0.0
C1109 C 0.93409 0.99423 0.19774 0.0
C1110 C 0.96728 0.00727 0.15653 0.0
C1111 C 0.93886 0.02029 0.19062 0.0
C1112 C 0.98942 0.04126 0.12893 0.0
C1113 C 0.00965 0.00206 0.09788 0.0
N1114 N 0.95502 0.02602 0.17054 0.0
N1115 N 0.9945 0.99615 0.11871 0.0
H1116 H 0.30781 0.70654 0.12091 0.0
H1117 H 0.27725 0.8549 0.09327 0.0
H1118 H 0.31629 0.76725 0.17979 0.0
H1119 H 0.29799 0.80055 0.03233 0.0
H1120 H 0.28863 0.82253 0.12563 0.0
H1121 H 0.30063 0.74002 0.08826 0.0
C1122 C 0.30813 0.72692 0.12692 0.0
C1123 C 0.31269 0.73419 0.15302 0.0
C1124 C 0.29092 0.8178 0.10518 0.0
C1125 C 0.30442 0.77247 0.11596 0.0
C1126 C 0.28445 0.83626 0.08672 0.0
C1127 C 0.28669 0.8304 0.06009 0.0
C1128 C 0.29923 0.79314 0.09693 0.0
C1129 C 0.29607 0.80592 0.05267 0.0
C1130 C 0.30421 0.746 0.10831 0.0
C1131 C 0.31307 0.76086 0.15981 0.0
N1132 N 0.30172 0.78807 0.07098 0.0
N1133 N 0.30879 0.77903 0.14143 0.0
H1134 H 0.00626 0.53026 0.07393 0.0
H1135 H 0.08734 0.47334 0.19267 0.0
H1136 H 0.00594 0.4483 0.09223 0.0
H1137 H 0.07479 0.55554 0.18235 0.0
H1138 H 0.05938 0.46354 0.15479 0.0
H1139 H 0.03316 0.53968 0.1125 0.0
C1140 C 0.01171 0.51423 0.0861 0.0
C1141 C 0.00375 0.48843 0.07973 0.0
C1142 C 0.0627 0.4837 0.1609 0.0
C1143 C 0.03496 0.49909 0.12386 0.0
C1144 C 0.0787 0.48933 0.18253 0.0
C1145 C 0.0835 0.51532 0.1908 0.0
C1146 C 0.05157 0.5042 0.14728 0.0
C1147 C 0.07167 0.5352 0.17682 0.0
C1148 C 0.02719 0.51963 0.10809 0.0
C1149 C 0.01189 0.46845 0.09608 0.0
N1150 N 0.05639 0.52922 0.15574 0.0
N1151 N 0.02706 0.4742 0.11734 0.0
H1152 H 0.37328 0.66329 0.23191 0.0
H1153 H 0.44588 0.76728 0.32757 0.0
H1154 H 0.35687 0.74544 0.23511 0.0
H1155 H 0.46114 0.68506 0.32803 0.0
H1156 H 0.4142 0.75949 0.29246 0.0
H1157 H 0.4063 0.67059 0.26608 0.0
C1158 C 0.37663 0.68286 0.23978 0.0
C1159 C 0.36229 0.7038 0.23059 0.0
C1160 C 0.42433 0.74306 0.30022 0.0
C1161 C 0.40015 0.71229 0.26954 0.0
C1162 C 0.44224 0.74749 0.32037 0.0
C1163 C 0.45528 0.7266 0.33118 0.0
C1164 C 0.41966 0.71754 0.29054 0.0
C1165 C 0.45089 0.70152 0.3205 0.0
C1166 C 0.39553 0.68701 0.25922 0.0
C1167 C 0.36768 0.72878 0.24129 0.0
N1168 N 0.4332 0.6976 0.30086 0.0
N1169 N 0.3861 0.73229 0.26021 0.0
H1170 H 0.9363 0.41866 0.00483 0.0
H1171 H 0.02803 0.32152 0.92708 0.0
H1172 H 0.01967 0.43177 1.00154 0.0
H1173 H 0.949 0.30255 0.95025 0.0
H1174 H 0.02613 0.36253 0.95248 0.0
H1175 H 0.94092 0.37705 0.9819 0.0
C1176 C 0.95559 0.41284 0.99907 0.0
C1177 C 0.97761 0.42876 0.005 0.0
C1178 C 0.00935 0.34919 0.9521 0.0
C1179 C 0.98315 0.38084 0.97889 0.0
C1180 C 0.01044 0.32575 0.93769 0.0
C1181 C 0.98859 0.30853 0.93629 0.0
C1182 C 0.9862 0.35548 0.96496 0.0
C1183 C 0.96631 0.31516 0.95044 0.0
C1184 C 0.95827 0.38895 0.98618 0.0
C1185 C 1.0022 0.42 0.99745 0.0
N1186 N 0.96565 0.3381 0.96392 0.0
N1187 N 0.00433 0.39665 0.98465 0.0
H1188 H 0.66619 0.76682 0.24492 0.0
H1189 H 0.53863 0.81148 0.31807 0.0
H1190 H 0.63602 0.84377 0.2353 0.0
H1191 H 0.58949 0.75352 0.3485 0.0
H1192 H 0.57137 0.822 0.28497 0.0
H1193 H 0.63472 0.75909 0.2798 0.0
C1194 C 0.65276 0.78198 0.25005 0.0
C1195 C 0.65359 0.80592 0.23726 0.0
C1196 C 0.57541 0.80719 0.2991 0.0
C1197 C 0.61769 0.7973 0.27704 0.0
C1198 C 0.55679 0.80121 0.31799 0.0
C1199 C 0.56136 0.7816 0.33605 0.0
C1200 C 0.59844 0.79307 0.298 0.0
C1201 C 0.58518 0.76883 0.33502 0.0
C1202 C 0.635 0.77768 0.27006 0.0
C1203 C 0.636 0.82507 0.24481 0.0
N1204 N 0.60269 0.77456 0.31611 0.0
N1205 N 0.61862 0.8203 0.26413 0.0
H1206 H 0.01546 0.10892 0.04606 0.0
H1207 H 0.0305 0.17758 0.90993 0.0
H1208 H 0.0459 0.06893 0.97857 0.0
H1209 H 0.96736 0.19578 0.96161 0.0
H1210 H 0.04184 0.14144 0.9379 0.0
H1211 H 1.00256 0.14453 0.01815 0.0
C1212 C 0.01932 0.10741 0.02542 0.0
C1213 C 0.03186 0.08564 0.0148 0.0
C1214 C 0.02549 0.15334 0.94308 0.0
C1215 C 0.01776 0.12692 0.98295 0.0
C1216 C 0.01908 0.17405 0.92723 0.0
C1217 C 0.99795 0.18974 0.93348 0.0
C1218 C 0.01104 0.14856 0.96564 0.0
C1219 C 0.98373 0.1841 0.95604 0.0
C1220 C 0.01203 0.12788 0.00956 0.0
C1221 C 0.03683 0.08539 0.98791 0.0
N1222 N 0.99067 0.16408 0.97147 0.0
N1223 N 0.02994 0.10575 0.973 0.0
H1224 H 0.32466 0.30122 0.24908 0.0
H1225 H 0.47234 0.29489 0.20422 0.0
H1226 H 0.38696 0.31441 0.30494 0.0
H1227 H 0.4129 0.23898 0.17791 0.0
H1228 H 0.44094 0.31288 0.23546 0.0
H1229 H 0.3569 0.28939 0.21624 0.0
C1230 C 0.34519 0.30201 0.25426 0.0
C1231 C 0.35327 0.3087 0.27967 0.0
C1232 C 0.4349 0.2968 0.22263 0.0
C1233 C 0.39006 0.29552 0.2423 0.0
C1234 C 0.45266 0.28665 0.20479 0.0
C1235 C 0.44518 0.26539 0.18853 0.0
C1236 C 0.40941 0.28607 0.22348 0.0
C1237 C 0.41952 0.25529 0.19013 0.0
C1238 C 0.36349 0.29517 0.23562 0.0
C1239 C 0.38006 0.30921 0.28553 0.0
N1240 N 0.40252 0.26583 0.20715 0.0
N1241 N 0.39761 0.30275 0.26692 0.0
H1242 H 0.53352 0.45161 0.05135 0.0
H1243 H 0.47559 0.3057 0.06449 0.0
H1244 H 0.50402 0.40537 0.98592 0.0
H1245 H 0.52783 0.3429 0.12092 0.0
H1246 H 0.47827 0.34519 0.0383 0.0
H1247 H 0.52401 0.41488 0.07976 0.0
C1248 C 0.52497 0.43379 0.04291 0.0
C1249 C 0.51992 0.43156 0.01604 0.0
C1250 C 0.48897 0.34475 0.05652 0.0
C1251 C 0.50856 0.38952 0.04869 0.0
C1252 C 0.48737 0.32228 0.07153 0.0
C1253 C 0.50164 0.32097 0.09485 0.0
C1254 C 0.50471 0.36615 0.06504 0.0
C1255 C 0.51665 0.34301 0.10299 0.0
C1256 C 0.51946 0.41287 0.05921 0.0
C1257 C 0.50813 0.40816 0.00647 0.0
N1258 N 0.51782 0.36467 0.08809 0.0
N1259 N 0.50299 0.38802 0.02275 0.0
H1260 H 0.64509 0.15852 0.27541 0.0
H1261 H 0.56893 0.25748 0.18552 0.0
H1262 H 0.66244 0.24138 0.27379 0.0
H1263 H 0.54012 0.17912 0.20041 0.0
H1264 H 0.60532 0.2508 0.2152 0.0
H1265 H 0.60872 0.16449 0.24504 0.0
C1266 C 0.64132 0.17793 0.26855 0.0
C1267 C 0.65671 0.1995 0.27722 0.0
C1268 C 0.59101 0.23508 0.21203 0.0
C1269 C 0.61521 0.20649 0.24258 0.0
C1270 C 0.57021 0.23885 0.19502 0.0
C1271 C 0.55133 0.21884 0.19042 0.0
C1272 C 0.59321 0.21104 0.22445 0.0
C1273 C 0.5541 0.19515 0.20341 0.0
C1274 C 0.62048 0.18135 0.25137 0.0
C1275 C 0.65086 0.22425 0.26787 0.0
N1276 N 0.57469 0.19187 0.21975 0.0
N1277 N 0.63064 0.22705 0.25104 0.0
H1278 H 0.44624 0.09515 0.00361 0.0
H1279 H 0.46618 0.20946 0.07408 0.0
H1280 H 0.52978 0.08741 0.00445 0.0
H1281 H 0.54464 0.18466 0.08669 0.0
H1282 H 0.45945 0.17473 0.04186 0.0
H1283 H 0.45118 0.13485 0.02926 0.0
C1284 C 0.46573 0.1019 0.00919 0.0
C1285 C 0.48759 0.08772 0.00202 0.0
C1286 C 0.47803 0.17621 0.05185 0.0
C1287 C 0.49376 0.13453 0.03077 0.0
C1288 C 0.4819 0.19631 0.07014 0.0
C1289 C 0.50559 0.1991 0.08364 0.0
C1290 C 0.49793 0.15836 0.04739 0.0
C1291 C 0.52582 0.18251 0.0771 0.0
C1292 C 0.46866 0.12509 0.02354 0.0
C1293 C 0.51237 0.09779 0.00944 0.0
N1294 N 0.52138 0.16247 0.05972 0.0
N1295 N 0.51477 0.12048 0.02356 0.0
H1296 H 0.23964 0.34967 0.74926 0.0
H1297 H 0.33186 0.462 0.68932 0.0
H1298 H 0.23789 0.36822 0.66771 0.0
H1299 H 0.32542 0.44578 0.77099 0.0
H1300 H 0.29804 0.42781 0.67999 0.0
H1301 H 0.27225 0.38439 0.75668 0.0
C1302 C 0.24593 0.36128 0.73292 0.0
C1303 C 0.23572 0.35627 0.70789 0.0
C1304 C 0.30409 0.43175 0.69993 0.0
C1305 C 0.27346 0.39614 0.71621 0.0
C1306 C 0.32331 0.45116 0.70519 0.0
C1307 C 0.33191 0.45584 0.73081 0.0
C1308 C 0.29326 0.41748 0.72057 0.0
C1309 C 0.31989 0.44199 0.75087 0.0
C1310 C 0.26469 0.38108 0.73714 0.0
C1311 C 0.24525 0.37146 0.68733 0.0
N1312 N 0.30133 0.42333 0.74532 0.0
N1313 N 0.26357 0.39081 0.69195 0.0
H1314 H 0.20886 0.62214 0.80533 0.0
H1315 H 0.35825 0.59388 0.77919 0.0
H1316 H 0.26981 0.68165 0.81317 0.0
H1317 H 0.30229 0.53309 0.79922 0.0
H1318 H 0.32575 0.62654 0.7892 0.0
H1319 H 0.24227 0.58917 0.79989 0.0
C1320 C 0.22927 0.62823 0.80585 0.0
C1321 C 0.23662 0.6546 0.80974 0.0
C1322 C 0.32068 0.60607 0.79167 0.0
C1323 C 0.27482 0.61716 0.80349 0.0
C1324 C 0.33922 0.58743 0.78599 0.0
C1325 C 0.33295 0.56075 0.78839 0.0
C1326 C 0.29553 0.59795 0.79934 0.0
C1327 C 0.30798 0.55347 0.79722 0.0
C1328 C 0.2483 0.60943 0.80294 0.0
C1329 C 0.26333 0.66147 0.81044 0.0
N1330 N 0.29006 0.57196 0.80208 0.0
N1331 N 0.28145 0.64291 0.80717 0.0
H1332 H 0.95218 0.46926 0.48255 0.0
H1333 H 0.79889 0.46526 0.47098 0.0
H1334 H 0.90832 0.53976 0.48204 0.0
H1335 H 0.83852 0.40563 0.51268 0.0
H1336 H 0.83936 0.49183 0.47105 0.0
H1337 H 0.91135 0.44391 0.48949 0.0
C1338 C 0.93396 0.47934 0.48397 0.0
C1339 C 0.93352 0.50658 0.48178 0.0
C1340 C 0.83912 0.47309 0.48049 0.0
C1341 C 0.88705 0.4779 0.48935 0.0
C1342 C 0.81608 0.45796 0.48046 0.0
C1343 C 0.81541 0.43334 0.49197 0.0
C1344 C 0.86187 0.46321 0.49143 0.0
C1345 C 0.83822 0.42466 0.50386 0.0
C1346 C 0.91079 0.46495 0.48809 0.0
C1347 C 0.90948 0.5188 0.48381 0.0
N1348 N 0.86072 0.43942 0.50292 0.0
N1349 N 0.88716 0.50435 0.48718 0.0
H1350 H 0.78598 0.88301 0.84789 0.0
H1351 H 0.67148 0.92414 0.75251 0.0
H1352 H 0.77386 0.84887 0.77136 0.0
H1353 H 0.70375 0.97684 0.81156 0.0
H1354 H 0.70442 0.89251 0.76359 0.0
H1355 H 0.75208 0.91454 0.83864 0.0
C1356 C 0.77629 0.88232 0.82909 0.0
C1357 C 0.78282 0.8635 0.81026 0.0
C1358 C 0.70418 0.91094 0.77421 0.0
C1359 C 0.74378 0.89894 0.79981 0.0
C1360 C 0.68525 0.92891 0.76807 0.0
C1361 C 0.68491 0.95319 0.78111 0.0
C1362 C 0.72271 0.91713 0.79376 0.0
C1363 C 0.70336 0.95837 0.80099 0.0
C1364 C 0.75699 0.90024 0.82384 0.0
C1365 C 0.76965 0.86331 0.78625 0.0
N1366 N 0.72153 0.94048 0.80674 0.0
N1367 N 0.7506 0.88062 0.78178 0.0
H1368 H 0.60079 0.49522 0.94991 0.0
H1369 H 0.68889 0.58072 0.0505 0.0
H1370 H 0.5815 0.50537 0.03095 0.0
H1371 H 0.70687 0.56996 0.96941 0.0
H1372 H 0.65235 0.54879 0.04537 0.0
H1373 H 0.64204 0.51907 0.95789 0.0
C1374 C 0.60523 0.5025 0.96939 0.0
C1375 C 0.58757 0.49846 0.98975 0.0
C1376 C 0.66444 0.55322 0.02875 0.0
C1377 C 0.63498 0.5256 0.99914 0.0
C1378 C 0.6852 0.57139 0.03171 0.0
C1379 C 0.69998 0.57857 0.01007 0.0
C1380 C 0.65889 0.54202 0.00406 0.0
C1381 C 0.69514 0.56555 0.98629 0.0
C1382 C 0.6289 0.51592 0.97401 0.0
C1383 C 0.5946 0.50792 0.01472 0.0
N1384 N 0.67478 0.54814 0.98382 0.0
N1385 N 0.61766 0.52123 0.01867 0.0
H1386 H 0.27867 0.64182 0.15862 0.0
H1387 H 0.19655 0.56401 0.266 0.0
H1388 H 0.28172 0.65872 0.24115 0.0
H1389 H 0.18852 0.54673 0.184 0.0
H1390 H 0.23027 0.59695 0.25667 0.0
H1391 H 0.2469 0.60608 0.16667 0.0
C1392 C 0.27266 0.63804 0.17839 0.0
C1393 C 0.28312 0.65309 0.19928 0.0
C1394 C 0.22124 0.58605 0.2406 0.0
C1395 C 0.24712 0.61221 0.2086 0.0
C1396 C 0.20193 0.56734 0.24595 0.0
C1397 C 0.18926 0.5535 0.22563 0.0
C1398 C 0.22802 0.59092 0.21466 0.0
C1399 C 0.19754 0.55762 0.20008 0.0
C1400 C 0.25467 0.61757 0.18297 0.0
C1401 C 0.27469 0.6473 0.22449 0.0
N1402 N 0.21623 0.57632 0.19522 0.0
N1403 N 0.25728 0.62737 0.2284 0.0
H1404 H 0.90157 0.47984 0.0086 0.0
H1405 H 0.84312 0.62058 0.02824 0.0
H1406 H 0.94907 0.5471 0.03278 0.0
H1407 H 0.80609 0.56087 0.9793 0.0
H1408 H 0.88157 0.59363 0.03178 0.0
H1409 H 0.86577 0.50865 0.99933 0.0
C1410 C 0.90468 0.50065 0.0117 0.0
C1411 C 0.92857 0.51092 0.02157 0.0
C1412 C 0.86514 0.58655 0.02004 0.0
C1413 C 0.88716 0.54404 0.01151 0.0
C1414 C 0.84318 0.60191 0.01802 0.0
C1415 C 0.82135 0.59294 0.00348 0.0
C1416 C 0.8651 0.5618 0.00783 0.0
C1417 C 0.82252 0.56859 0.99065 0.0
C1418 C 0.8841 0.5171 0.0065 0.0
C1419 C 0.93097 0.53812 0.02569 0.0
N1420 N 0.84389 0.55373 0.99337 0.0
N1421 N 0.91051 0.55366 0.02084 0.0
H1422 H 0.08545 0.01389 0.99202 0.0
H1423 H 0.20215 0.92688 0.04178 0.0
H1424 H 0.1052 0.00608 0.07325 0.0
H1425 H 0.18974 0.94585 0.96119 0.0
H1426 H 0.16605 0.95466 0.05379 0.0
H1427 H 0.12296 0.98806 0.9805 0.0
C1428 C 0.09778 0.00696 0.00747 0.0
C1429 C 0.09208 0.01231 0.03369 0.0
C1430 C 0.17131 0.95281 0.0335 0.0
C1431 C 0.13499 0.98216 0.02054 0.0
C1432 C 0.19193 0.93691 0.02659 0.0
C1433 C 0.19908 0.93393 1.00039 0.0
C1434 C 0.15755 0.96573 0.01408 0.0
C1435 C 0.18505 0.94753 0.98163 0.0
C1436 C 0.11916 0.99205 1.00085 0.0
C1437 C 0.10855 0.00222 0.0528 0.0
N1438 N 0.16494 0.9627 0.98883 0.0
N1439 N 0.12919 0.98761 0.04585 0.0
loop_
_geom_bond_atom_site_label_1
_geom_bond_atom_site_label_2
_geom_bond_distance
_geom_bond_site_symmetry_2
_ccdc_geom_bond_type
H0 C3 0.931 . S
H1 C6 0.928 . S
H2 C8 0.906 1_556 S
C3 H0 0.931 . S
C3 C4 1.413 . S
C3 C5 1.360 . S
C4 C3 1.413 . S
C4 C8 1.429 . S
C5 C3 1.360 . S
C5 C6 1.372 . S
C6 H1 0.928 . S
C6 C5 1.372 . S
C6 C7 1.404 . S
C7 C6 1.404 . S
C7 C8 1.391 . S
C8 H2 0.906 1_554 S
C8 C4 1.429 . S
C8 C7 1.391 . S
H9 C12 0.931 . S
H10 C15 0.928 . S
H11 C17 0.930 . S
C12 H9 0.931 . S
C12 C13 1.413 . S
C12 C14 1.360 . S
C13 C12 1.413 . S
C13 C17 1.429 . S
C14 C12 1.360 . S
C14 C15 1.372 . S
C15 H10 0.928 . S
C15 C14 1.372 . S
C15 C16 1.404 . S
C16 C15 1.404 . S
C16 C17 1.391 . S
C17 H11 0.930 . S
C17 C13 1.429 . S
C17 C16 1.391 . S
H18 C21 0.931 . S
H19 C24 0.928 1_455 S
H20 C26 0.898 1_556 S
C21 H18 0.931 . S
C21 C22 1.413 . S
C21 C23 1.360 . S
C22 C21 1.413 . S
C22 C26 1.429 . S
C23 C21 1.360 . S
C23 C24 1.372 . S
C24 H19 0.928 1_655 S
C24 C23 1.372 . S
C24 C25 1.404 . S
C25 C24 1.404 . S
C25 C26 1.391 . S
C26 H20 0.898 1_554 S
C26 C22 1.429 . S
C26 C25 1.391 . S
H27 C30 0.931 . S
H28 C33 0.928 . S
H29 C35 0.930 . S
C30 H27 0.931 . S
C30 C31 1.413 . S
C30 C32 1.360 . S
C31 C30 1.413 . S
C31 C35 1.429 . S
C32 C30 1.360 . S
C32 C33 1.372 . S
C33 H28 0.928 . S
C33 C32 1.372 . S
C33 C34 1.404 . S
C34 C33 1.404 . S
C34 C35 1.391 . S
C35 H29 0.930 . S
C35 C31 1.429 . S
C35 C34 1.391 . S
H36 C39 0.931 . S
H37 C42 0.928 1_545 S
H38 C44 0.930 . S
C39 H36 0.931 . S
C39 C40 1.413 . S
C39 C41 1.360 . S
C40 C39 1.413 . S
C40 C44 1.429 . S
C41 C39 1.360 . S
C41 C42 1.372 . S
C42 H37 0.928 1_565 S
C42 C41 1.372 . S
C42 C43 1.404 . S
C43 C42 1.404 . S
C43 C44 1.391 . S
C44 H38 0.930 . S
C44 C40 1.429 . S
C44 C43 1.391 . S
H45 C48 0.931 . S
H46 C51 0.928 . S
H47 C53 0.930 . S
C48 H45 0.931 . S
C48 C49 1.413 . S
C48 C50 1.360 . S
C49 C48 1.413 . S
C49 C53 1.429 . S
C50 C48 1.360 . S
C50 C51 1.372 . S
C51 H46 0.928 . S
C51 C50 1.372 . S
C51 C52 1.404 . S
C52 C51 1.404 . S
C52 C53 1.391 . S
C53 H47 0.930 . S
C53 C49 1.429 . S
C53 C52 1.391 . S
H54 C57 0.931 . S
H55 C60 0.928 1_455 S
H56 C62 0.930 . S
C57 H54 0.931 . S
C57 C58 1.413 . S
C57 C59 1.360 . S
C58 C57 1.413 . S
C58 C62 1.429 . S
C59 C57 1.360 . S
C59 C60 1.372 . S
C60 H55 0.928 1_655 S
C60 C59 1.372 . S
C60 C61 1.404 . S
C61 C60 1.404 . S
C61 C62 1.391 . S
C62 H56 0.930 . S
C62 C58 1.429 . S
C62 C61 1.391 . S
H63 C66 0.931 . S
H64 C69 0.928 . S
H65 C71 0.930 . S
C66 H63 0.931 . S
C66 C67 1.413 . S
C66 C68 1.360 . S
C67 C66 1.413 . S
C67 C71 1.429 . S
C68 C66 1.360 . S
C68 C69 1.372 . S
C69 H64 0.928 . S
C69 C68 1.372 . S
C69 C70 1.404 . S
C70 C69 1.404 . S
C70 C71 1.391 . S
C71 H65 0.930 . S
C71 C67 1.429 . S
C71 C70 1.391 . S
H72 C75 0.931 . S
H73 C78 0.928 . S
H74 C80 0.930 . S
C75 H72 0.931 . S
C75 C76 1.413 . S
C75 C77 1.360 . S
C76 C75 1.413 . S
C76 C80 1.429 . S
C77 C75 1.360 . S
C77 C78 1.372 . S
C78 H73 0.928 . S
C78 C77 1.372 . S
C78 C79 1.404 . S
C79 C78 1.404 . S
C79 C80 1.391 . S
C80 H74 0.930 . S
C80 C76 1.429 . S
C80 C79 1.391 . S
H81 C84 0.931 1_545 S
H82 C87 0.928 . S
H83 C89 0.930 . S
C84 H81 0.931 1_565 S
C84 C85 1.413 . S
C84 C86 1.360 . S
C85 C84 1.413 . S
C85 C89 1.429 . S
C86 C84 1.360 . S
C86 C87 1.372 . S
C87 H82 0.928 . S
C87 C86 1.372 . S
C87 C88 1.404 . S
C88 C87 1.404 . S
C88 C89 1.391 . S
C89 H83 0.930 . S
C89 C85 1.429 . S
C89 C88 1.391 . S
H90 C93 0.931 . S
H91 C96 0.928 . S
H92 C98 0.930 . S
C93 H90 0.931 . S
C93 C94 1.413 . S
C93 C95 1.360 . S
C94 C93 1.413 . S
C94 C98 1.429 . S
C95 C93 1.360 . S
C95 C96 1.372 . S
C96 H91 0.928 . S
C96 C95 1.372 . S
C96 C97 1.404 . S
C97 C96 1.404 . S
C97 C98 1.391 . S
C98 H92 0.930 . S
C98 C94 1.429 . S
C98 C97 1.391 . S
H99 C102 0.931 . S
H100 C105 0.928 . S
H101 C107 0.930 . S
C102 H99 0.931 . S
C102 C103 1.413 . S
C102 C104 1.360 . S
C103 C102 1.413 . S
C103 C107 1.429 . S
C104 C102 1.360 . S
C104 C105 1.372 . S
C105 H100 0.928 . S
C105 C104 1.372 . S
C105 C106 1.404 . S
C106 C105 1.404 . S
C106 C107 1.391 . S
C107 H101 0.930 . S
C107 C103 1.429 . S
C107 C106 1.391 . S
H108 C111 0.931 . S
H109 C114 0.928 . S
H110 C116 0.930 . S
C111 H108 0.931 . S
C111 C112 1.413 . S
C111 C113 1.360 . S
C112 C111 1.413 . S
C112 C116 1.429 . S
C113 C111 1.360 . S
C113 C114 1.372 . S
C114 H109 0.928 . S
C114 C113 1.372 . S
C114 C115 1.404 . S
C115 C114 1.404 . S
C115 C116 1.391 . S
C116 H110 0.930 . S
C116 C112 1.429 . S
C116 C115 1.391 . S
H117 C120 0.931 . S
H118 C123 0.928 . S
H119 C125 0.930 1_554 S
C120 H117 0.931 . S
C120 C121 1.413 . S
C120 C122 1.360 . S
C121 C120 1.413 . S
C121 C125 1.429 . S
C122 C120 1.360 . S
C122 C123 1.372 . S
C123 H118 0.928 . S
C123 C122 1.372 . S
C123 C124 1.404 . S
C124 C123 1.404 . S
C124 C125 1.391 . S
C125 H119 0.930 1_556 S
C125 C121 1.429 . S
C125 C124 1.391 . S
H126 C129 0.931 . S
H127 C132 0.928 . S
H128 C134 0.930 . S
C129 H126 0.931 . S
C129 C130 1.413 . S
C129 C131 1.360 . S
C130 C129 1.413 . S
C130 C134 1.429 . S
C131 C129 1.360 . S
C131 C132 1.372 . S
C132 H127 0.928 . S
C132 C131 1.372 . S
C132 C133 1.404 . S
C133 C132 1.404 . S
C133 C134 1.391 . S
C134 H128 0.930 . S
C134 C130 1.429 . S
C134 C133 1.391 . S
H135 C138 0.931 1_554 S
H136 C141 0.928 . S
H137 C143 0.930 . S
C138 H135 0.931 1_556 S
C138 C139 1.413 . S
C138 C140 1.360 . S
C139 C138 1.413 . S
C139 C143 1.429 . S
C140 C138 1.360 . S
C140 C141 1.372 . S
C141 H136 0.928 . S
C141 C140 1.372 . S
C141 C142 1.404 . S
C142 C141 1.404 . S
C142 C143 1.391 . S
C143 H137 0.930 . S
C143 C139 1.429 . S
C143 C142 1.391 . S
Mn144 O149 2.095 . S
Mn144 O159 2.162 . S
Mn144 O160 2.297 . S
Mn144 O168 2.385 1_554 S
Mn144 O169 2.209 1_554 S
Mn144 O170 2.094 . S
Mn145 O150 2.121 . S
Mn145 N152 2.257 . S
Mn145 N161 2.282 . S
Mn145 O169 2.215 . S
Mn145 O171 2.117 . S
C146 O168 1.234 . S
C146 O169 1.283 . S
C147 O159 1.281 . S
C147 O160 1.236 . S
C148 O170 1.240 . S
C148 O171 1.264 1_554 S
O149 Mn144 2.095 . S
O149 C158 1.235 1_554 S
O150 Mn145 2.121 . S
O150 C158 1.278 . S
C151 N152 1.326 . S
C151 C155 1.460 . S
C151 H157 0.929 . S
N152 Mn145 2.257 . S
N152 C151 1.326 . S
N152 C156 1.362 . S
C153 C154 1.258 . S
C153 C156 1.431 . S
C153 C173 1.449 . S
C154 C153 1.258 . S
C154 C155 1.477 . S
C154 H174 0.931 . S
C155 C151 1.460 . S
C155 C154 1.477 . S
C155 H175 0.930 . S
C156 N152 1.362 . S
C156 C153 1.431 . S
C156 C166 1.476 . S
H157 C151 0.929 . S
C158 O149 1.235 1_556 S
C158 O150 1.278 . S
O159 Mn144 2.162 . S
O159 C147 1.281 . S
O160 Mn144 2.297 . S
O160 C147 1.236 . S
N161 Mn145 2.282 . S
N161 C162 1.328 . S
N161 C166 1.318 . S
C162 N161 1.328 . S
C162 C163 1.457 . S
C162 H167 0.929 . S
C163 C162 1.457 . S
C163 C164 1.291 . S
C163 H176 0.931 . S
C164 C163 1.291 . S
C164 C165 1.373 . S
C164 H177 0.929 . S
C165 C164 1.373 . S
C165 C166 1.396 . S
C165 C172 1.403 . S
C166 C156 1.476 . S
C166 N161 1.318 . S
C166 C165 1.396 . S
H167 C162 0.929 . S
O168 Mn144 2.385 1_556 S
O168 C146 1.234 . S
O169 Mn144 2.209 1_556 S
O169 Mn145 2.215 . S
O169 C146 1.283 . S
O170 Mn144 2.094 . S
O170 C148 1.240 . S
O171 Mn145 2.117 . S
O171 C148 1.264 1_556 S
C172 C165 1.403 . S
C172 C173 1.399 . S
C172 H178 0.929 . S
C173 C153 1.449 . S
C173 C172 1.399 . S
C173 H179 0.930 . S
H174 C154 0.931 . S
H175 C155 0.930 . S
H176 C163 0.931 . S
H177 C164 0.929 . S
H178 C172 0.929 . S
H179 C173 0.930 . S
Mn180 O185 2.095 . S
Mn180 O195 2.162 . S
Mn180 O196 2.297 . S
Mn180 O204 2.385 . S
Mn180 O205 2.209 . S
Mn180 O206 2.094 . S
Mn181 O186 2.121 . S
Mn181 N188 2.257 . S
Mn181 N197 2.282 . S
Mn181 O205 2.215 . S
Mn181 O207 2.117 . S
C182 O204 1.234 . S
C182 O205 1.283 . S
C183 O195 1.281 . S
C183 O196 1.236 . S
C184 O206 1.240 . S
C184 O207 1.264 . S
O185 Mn180 2.095 . S
O185 C194 1.250 . S
O186 Mn181 2.121 . S
O186 C194 1.258 . S
C187 N188 1.326 . S
C187 C191 1.460 . S
C187 H193 0.929 . S
N188 Mn181 2.257 . S
N188 C187 1.326 . S
N188 C192 1.362 . S
C189 C190 1.258 . S
C189 C192 1.431 . S
C189 C209 1.449 . S
C190 C189 1.258 . S
C190 C191 1.477 . S
C190 H210 0.931 . S
C191 C187 1.460 . S
C191 C190 1.477 . S
C191 H211 0.930 . S
C192 N188 1.362 . S
C192 C189 1.431 . S
C192 C202 1.476 . S
H193 C187 0.929 . S
C194 O185 1.250 . S
C194 O186 1.258 . S
O195 Mn180 2.162 . S
O195 C183 1.281 . S
O196 Mn180 2.297 . S
O196 C183 1.236 . S
N197 Mn181 2.282 . S
N197 C198 1.328 . S
N197 C202 1.318 . S
C198 N197 1.328 . S
C198 C199 1.457 . S
C198 H203 0.929 . S
C199 C198 1.457 . S
C199 C200 1.291 . S
C199 H212 0.931 . S
C200 C199 1.291 . S
C200 C201 1.373 . S
C200 H213 0.929 . S
C201 C200 1.373 . S
C201 C202 1.396 . S
C201 C208 1.403 . S
C202 C192 1.476 . S
C202 N197 1.318 . S
C202 C201 1.396 . S
H203 C198 0.929 . S
O204 Mn180 2.385 . S
O204 C182 1.234 . S
O205 Mn180 2.209 . S
O205 Mn181 2.215 . S
O205 C182 1.283 . S
O206 Mn180 2.094 . S
O206 C184 1.240 . S
O207 Mn181 2.117 . S
O207 C184 1.264 . S
C208 C201 1.403 . S
C208 C209 1.399 . S
C208 H214 0.929 . S
C209 C189 1.449 . S
C209 C208 1.399 . S
C209 H215 0.930 . S
H210 C190 0.931 . S
H211 C191 0.930 . S
H212 C199 0.931 . S
H213 C200 0.929 . S
H214 C208 0.929 . S
H215 C209 0.930 . S
Mn216 O221 2.095 1_554 S
Mn216 O231 2.162 . S
Mn216 O232 2.297 1_554 S
Mn216 O240 2.385 . S
Mn216 O241 2.209 1_554 S
Mn216 O242 2.094 . S
Mn217 O222 2.121 . S
Mn217 N224 2.257 . S
Mn217 N233 2.282 . S
Mn217 O241 2.215 . S
Mn217 O243 2.117 1_556 S
C218 O240 1.266 . S
C218 O241 1.261 1_554 S
C219 O231 1.281 . S
C219 O232 1.236 1_554 S
C220 O242 1.240 . S
C220 O243 1.264 . S
O221 Mn216 2.095 1_556 S
O221 C230 1.250 . S
O222 Mn217 2.121 . S
O222 C230 1.258 . S
C223 N224 1.326 . S
C223 C227 1.460 . S
C223 H229 0.929 . S
N224 Mn217 2.257 . S
N224 C223 1.326 . S
N224 C228 1.362 . S
C225 C226 1.258 . S
C225 C228 1.431 . S
C225 C245 1.449 . S
C226 C225 1.258 . S
C226 C227 1.477 . S
C226 H246 0.931 . S
C227 C223 1.460 . S
C227 C226 1.477 . S
C227 H247 0.930 . S
C228 N224 1.362 . S
C228 C225 1.431 . S
C228 C238 1.476 . S
H229 C223 0.929 . S
C230 O221 1.250 . S
C230 O222 1.258 . S
O231 Mn216 2.162 . S
O231 C219 1.281 . S
O232 Mn216 2.297 1_556 S
O232 C219 1.236 1_556 S
N233 Mn217 2.282 . S
N233 C234 1.328 1_556 S
N233 C238 1.318 . S
C234 N233 1.328 1_554 S
C234 C235 1.457 . S
C234 H239 0.929 . S
C235 C234 1.457 . S
C235 C236 1.291 . S
C235 H248 0.931 . S
C236 C235 1.291 . S
C236 C237 1.373 1_554 S
C236 H249 0.929 . S
C237 C236 1.373 1_556 S
C237 C238 1.396 . S
C237 C244 1.403 . S
C238 C228 1.476 . S
C238 N233 1.318 . S
C238 C237 1.396 . S
H239 C234 0.929 . S
O240 Mn216 2.385 . S
O240 C218 1.266 . S
O241 Mn216 2.209 1_556 S
O241 Mn217 2.215 . S
O241 C218 1.261 1_556 S
O242 Mn216 2.094 . S
O242 C220 1.240 . S
O243 Mn217 2.117 1_554 S
O243 C220 1.264 . S
C244 C237 1.403 . S
C244 C245 1.399 . S
C244 H250 0.929 . S
C245 C225 1.449 . S
C245 C244 1.399 . S
C245 H251 0.930 . S
H246 C226 0.931 . S
H247 C227 0.930 . S
H248 C235 0.931 . S
H249 C236 0.929 . S
H250 C244 0.929 . S
H251 C245 0.930 . S
Mn252 O257 2.095 . S
Mn252 O267 2.162 . S
Mn252 O268 2.297 . S
Mn252 O276 2.385 1_545 S
Mn252 O277 2.209 1_545 S
Mn252 O278 2.094 . S
Mn253 O258 2.121 . S
Mn253 N260 2.257 . S
Mn253 N269 2.282 . S
Mn253 O277 2.215 . S
Mn253 O279 2.117 . S
C254 O276 1.234 . S
C254 O277 1.283 . S
C255 O267 1.281 . S
C255 O268 1.236 . S
C256 O278 1.240 . S
C256 O279 1.264 1_545 S
O257 Mn252 2.095 . S
O257 C266 1.250 1_545 S
O258 Mn253 2.121 . S
O258 C266 1.258 . S
C259 N260 1.326 . S
C259 C263 1.460 . S
C259 H265 0.929 . S
N260 Mn253 2.257 . S
N260 C259 1.326 . S
N260 C264 1.362 . S
C261 C262 1.258 . S
C261 C264 1.431 . S
C261 C281 1.449 . S
C262 C261 1.258 . S
C262 C263 1.477 . S
C262 H282 0.931 . S
C263 C259 1.460 . S
C263 C262 1.477 . S
C263 H283 0.930 . S
C264 N260 1.362 . S
C264 C261 1.431 . S
C264 C274 1.476 . S
H265 C259 0.929 . S
C266 O257 1.250 1_565 S
C266 O258 1.258 . S
O267 Mn252 2.162 . S
O267 C255 1.281 . S
O268 Mn252 2.297 . S
O268 C255 1.236 . S
N269 Mn253 2.282 . S
N269 C270 1.328 . S
N269 C274 1.318 . S
C270 N269 1.328 . S
C270 C271 1.457 . S
C270 H275 0.929 . S
C271 C270 1.457 . S
C271 C272 1.291 . S
C271 H284 0.931 . S
C272 C271 1.291 . S
C272 C273 1.373 . S
C272 H285 0.929 . S
C273 C272 1.373 . S
C273 C274 1.396 . S
C273 C280 1.403 . S
C274 C264 1.476 . S
C274 N269 1.318 . S
C274 C273 1.396 . S
H275 C270 0.929 . S
O276 Mn252 2.385 1_565 S
O276 C254 1.234 . S
O277 Mn252 2.209 1_565 S
O277 Mn253 2.215 . S
O277 C254 1.283 . S
O278 Mn252 2.094 . S
O278 C256 1.240 . S
O279 Mn253 2.117 . S
O279 C256 1.264 1_565 S
C280 C273 1.403 . S
C280 C281 1.399 . S
C280 H286 0.929 . S
C281 C261 1.449 . S
C281 C280 1.399 . S
C281 H287 0.930 . S
H282 C262 0.931 . S
H283 C263 0.930 . S
H284 C271 0.931 . S
H285 C272 0.929 . S
H286 C280 0.929 . S
H287 C281 0.930 . S
Mn288 O293 2.095 . S
Mn288 O303 2.162 . S
Mn288 O304 2.297 . S
Mn288 O312 2.385 . S
Mn288 O313 2.209 . S
Mn288 O314 2.094 . S
Mn289 O294 2.121 . S
Mn289 N296 2.257 . S
Mn289 N305 2.282 . S
Mn289 O313 2.215 . S
Mn289 O315 2.117 . S
C290 O312 1.234 . S
C290 O313 1.283 . S
C291 O303 1.281 . S
C291 O304 1.236 . S
C292 O314 1.240 . S
C292 O315 1.264 . S
O293 Mn288 2.095 . S
O293 C302 1.250 . S
O294 Mn289 2.121 . S
O294 C302 1.258 . S
C295 N296 1.326 . S
C295 C299 1.460 . S
C295 H301 0.929 . S
N296 Mn289 2.257 . S
N296 C295 1.326 . S
N296 C300 1.362 . S
C297 C298 1.258 . S
C297 C300 1.431 . S
C297 C317 1.449 . S
C298 C297 1.258 . S
C298 C299 1.477 . S
C298 H318 0.931 . S
C299 C295 1.460 . S
C299 C298 1.477 . S
C299 H319 0.930 . S
C300 N296 1.362 . S
C300 C297 1.431 . S
C300 C310 1.476 . S
H301 C295 0.929 . S
C302 O293 1.250 . S
C302 O294 1.258 . S
O303 Mn288 2.162 . S
O303 C291 1.281 . S
O304 Mn288 2.297 . S
O304 C291 1.236 . S
N305 Mn289 2.282 . S
N305 C306 1.328 . S
N305 C310 1.318 . S
C306 N305 1.328 . S
C306 C307 1.457 . S
C306 H311 0.929 . S
C307 C306 1.457 . S
C307 C308 1.291 . S
C307 H320 0.931 . S
C308 C307 1.291 . S
C308 C309 1.373 . S
C308 H321 0.929 . S
C309 C308 1.373 . S
C309 C310 1.396 . S
C309 C316 1.403 . S
C310 C300 1.476 . S
C310 N305 1.318 . S
C310 C309 1.396 . S
H311 C306 0.929 . S
O312 Mn288 2.385 . S
O312 C290 1.234 . S
O313 Mn288 2.209 . S
O313 Mn289 2.215 . S
O313 C290 1.283 . S
O314 Mn288 2.094 . S
O314 C292 1.240 . S
O315 Mn289 2.117 . S
O315 C292 1.264 . S
C316 C309 1.403 . S
C316 C317 1.399 . S
C316 H322 0.929 . S
C317 C297 1.449 . S
C317 C316 1.399 . S
C317 H323 0.930 . S
H318 C298 0.931 . S
H319 C299 0.930 . S
H320 C307 0.931 . S
H321 C308 0.929 . S
H322 C316 0.929 . S
H323 C317 0.930 . S
Mn324 O329 2.095 . S
Mn324 O339 2.162 . S
Mn324 O340 2.297 . S
Mn324 O348 2.385 . S
Mn324 O349 2.209 . S
Mn324 O350 2.094 . S
Mn325 O330 2.121 . S
Mn325 N332 2.257 . S
Mn325 N341 2.282 . S
Mn325 O349 2.215 . S
Mn325 O351 2.117 . S
C326 O348 1.234 . S
C326 O349 1.283 . S
C327 O339 1.281 . S
C327 O340 1.236 . S
C328 O350 1.240 . S
C328 O351 1.264 . S
O329 Mn324 2.095 . S
O329 C338 1.250 . S
O330 Mn325 2.121 . S
O330 C338 1.258 . S
C331 N332 1.326 . S
C331 C335 1.460 . S
C331 H337 0.929 . S
N332 Mn325 2.257 . S
N332 C331 1.326 . S
N332 C336 1.362 . S
C333 C334 1.258 . S
C333 C336 1.431 . S
C333 C353 1.449 . S
C334 C333 1.258 . S
C334 C335 1.477 . S
C334 H354 0.931 . S
C335 C331 1.460 . S
C335 C334 1.477 . S
C335 H355 0.930 . S
C336 N332 1.362 . S
C336 C333 1.431 . S
C336 C346 1.476 . S
H337 C331 0.929 . S
C338 O329 1.250 . S
C338 O330 1.258 . S
O339 Mn324 2.162 . S
O339 C327 1.281 . S
O340 Mn324 2.297 . S
O340 C327 1.236 . S
N341 Mn325 2.282 . S
N341 C342 1.328 . S
N341 C346 1.318 . S
C342 N341 1.328 . S
C342 C343 1.457 . S
C342 H347 0.929 . S
C343 C342 1.457 . S
C343 C344 1.291 . S
C343 H356 0.931 . S
C344 C343 1.291 . S
C344 C345 1.373 . S
C344 H357 0.929 . S
C345 C344 1.373 . S
C345 C346 1.396 . S
C345 C352 1.403 . S
C346 C336 1.476 . S
C346 N341 1.318 . S
C346 C345 1.396 . S
H347 C342 0.929 . S
O348 Mn324 2.385 . S
O348 C326 1.234 . S
O349 Mn324 2.209 . S
O349 Mn325 2.215 . S
O349 C326 1.283 . S
O350 Mn324 2.094 . S
O350 C328 1.240 . S
O351 Mn325 2.117 . S
O351 C328 1.264 . S
C352 C345 1.403 . S
C352 C353 1.399 . S
C352 H358 0.929 . S
C353 C333 1.449 . S
C353 C352 1.399 . S
C353 H359 0.930 . S
H354 C334 0.931 . S
H355 C335 0.930 . S
H356 C343 0.931 . S
H357 C344 0.929 . S
H358 C352 0.929 . S
H359 C353 0.930 . S
Mn360 O365 2.095 . S
Mn360 O375 2.162 . S
Mn360 O376 2.297 . S
Mn360 O384 2.385 . S
Mn360 O385 2.209 . S
Mn360 O386 2.094 . S
Mn361 O366 2.121 . S
Mn361 N368 2.257 . S
Mn361 N377 2.282 . S
Mn361 O385 2.215 . S
Mn361 O387 2.117 . S
C362 O384 1.234 . S
C362 O385 1.283 . S
C363 O375 1.281 . S
C363 O376 1.236 . S
C364 O386 1.240 . S
C364 O387 1.264 . S
O365 Mn360 2.095 . S
O365 C374 1.250 . S
O366 Mn361 2.121 . S
O366 C374 1.258 . S
C367 N368 1.326 . S
C367 C371 1.460 . S
C367 H373 0.929 . S
N368 Mn361 2.257 . S
N368 C367 1.326 . S
N368 C372 1.362 . S
C369 C370 1.258 . S
C369 C372 1.431 . S
C369 C389 1.449 . S
C370 C369 1.258 . S
C370 C371 1.477 . S
C370 H390 0.931 . S
C371 C367 1.460 . S
C371 C370 1.477 . S
C371 H391 0.930 . S
C372 N368 1.362 . S
C372 C369 1.431 . S
C372 C382 1.476 . S
H373 C367 0.929 . S
C374 O365 1.250 . S
C374 O366 1.258 . S
O375 Mn360 2.162 . S
O375 C363 1.281 . S
O376 Mn360 2.297 . S
O376 C363 1.236 . S
N377 Mn361 2.282 . S
N377 C378 1.328 . S
N377 C382 1.318 . S
C378 N377 1.328 . S
C378 C379 1.457 . S
C378 H383 0.929 . S
C379 C378 1.457 . S
C379 C380 1.291 . S
C379 H392 0.931 . S
C380 C379 1.291 . S
C380 C381 1.373 . S
C380 H393 0.929 . S
C381 C380 1.373 . S
C381 C382 1.396 . S
C381 C388 1.403 . S
C382 C372 1.476 . S
C382 N377 1.318 . S
C382 C381 1.396 . S
H383 C378 0.929 . S
O384 Mn360 2.385 . S
O384 C362 1.234 . S
O385 Mn360 2.209 . S
O385 Mn361 2.215 . S
O385 C362 1.283 . S
O386 Mn360 2.094 . S
O386 C364 1.240 . S
O387 Mn361 2.117 . S
O387 C364 1.264 . S
C388 C381 1.403 . S
C388 C389 1.399 . S
C388 H394 0.929 . S
C389 C369 1.449 . S
C389 C388 1.399 . S
C389 H395 0.930 . S
H390 C370 0.931 . S
H391 C371 0.930 . S
H392 C379 0.931 . S
H393 C380 0.929 . S
H394 C388 0.929 . S
H395 C389 0.930 . S
Mn396 O401 2.095 . S
Mn396 O411 2.162 . S
Mn396 O412 2.297 . S
Mn396 O420 2.385 1_565 S
Mn396 O421 2.209 1_565 S
Mn396 O422 2.094 . S
Mn397 O402 2.121 . S
Mn397 N404 2.257 . S
Mn397 N413 2.282 . S
Mn397 O421 2.215 . S
Mn397 O423 2.117 . S
C398 O420 1.234 . S
C398 O421 1.283 . S
C399 O411 1.281 . S
C399 O412 1.236 . S
C400 O422 1.223 1_545 S
C400 O423 1.286 . S
O401 Mn396 2.095 . S
O401 C410 1.250 1_565 S
O402 Mn397 2.121 . S
O402 C410 1.258 . S
C403 N404 1.326 . S
C403 C407 1.460 . S
C403 H409 0.929 . S
N404 Mn397 2.257 . S
N404 C403 1.326 . S
N404 C408 1.362 . S
C405 C406 1.258 . S
C405 C408 1.431 . S
C405 C425 1.449 . S
C406 C405 1.258 . S
C406 C407 1.477 . S
C406 H426 0.931 . S
C407 C403 1.460 . S
C407 C406 1.477 . S
C407 H427 0.930 . S
C408 N404 1.362 . S
C408 C405 1.431 . S
C408 C418 1.476 . S
H409 C403 0.929 . S
C410 O401 1.250 1_545 S
C410 O402 1.258 . S
O411 Mn396 2.162 . S
O411 C399 1.281 . S
O412 Mn396 2.297 . S
O412 C399 1.236 . S
N413 Mn397 2.282 . S
N413 C414 1.328 . S
N413 C418 1.318 . S
C414 N413 1.328 . S
C414 C415 1.457 . S
C414 H419 0.929 . S
C415 C414 1.457 . S
C415 C416 1.291 . S
C415 H428 0.931 . S
C416 C415 1.291 . S
C416 C417 1.373 . S
C416 H429 0.929 . S
C417 C416 1.373 . S
C417 C418 1.396 . S
C417 C424 1.403 . S
C418 C408 1.476 . S
C418 N413 1.318 . S
C418 C417 1.396 . S
H419 C414 0.929 . S
O420 Mn396 2.385 1_545 S
O420 C398 1.234 . S
O421 Mn396 2.209 1_545 S
O421 Mn397 2.215 . S
O421 C398 1.283 . S
O422 Mn396 2.094 . S
O422 C400 1.223 1_565 S
O423 Mn397 2.117 . S
O423 C400 1.286 . S
C424 C417 1.403 . S
C424 C425 1.399 . S
C424 H430 0.929 . S
C425 C405 1.449 . S
C425 C424 1.399 . S
C425 H431 0.930 . S
H426 C406 0.931 . S
H427 C407 0.930 . S
H428 C415 0.931 . S
H429 C416 0.929 . S
H430 C424 0.929 . S
H431 C425 0.930 . S
Mn432 O437 2.095 . S
Mn432 O447 2.162 . S
Mn432 O448 2.297 . S
Mn432 O456 2.385 1_455 S
Mn432 O457 2.209 1_455 S
Mn432 O458 2.094 . S
Mn433 O438 2.121 . S
Mn433 N440 2.257 . S
Mn433 N449 2.282 . S
Mn433 O457 2.215 . S
Mn433 O459 2.117 . S
C434 O456 1.234 . S
C434 O457 1.283 . S
C435 O447 1.281 . S
C435 O448 1.236 . S
C436 O458 1.240 . S
C436 O459 1.264 1_455 S
O437 Mn432 2.095 . S
O437 C446 1.250 1_455 S
O438 Mn433 2.121 . S
O438 C446 1.258 . S
C439 N440 1.326 . S
C439 C443 1.460 . S
C439 H445 0.929 . S
N440 Mn433 2.257 . S
N440 C439 1.326 . S
N440 C444 1.362 . S
C441 C442 1.258 . S
C441 C444 1.431 . S
C441 C461 1.449 . S
C442 C441 1.258 . S
C442 C443 1.477 . S
C442 H462 0.931 . S
C443 C439 1.460 . S
C443 C442 1.477 . S
C443 H463 0.930 . S
C444 N440 1.362 . S
C444 C441 1.431 . S
C444 C454 1.476 . S
H445 C439 0.929 . S
C446 O437 1.250 1_655 S
C446 O438 1.258 . S
O447 Mn432 2.162 . S
O447 C435 1.281 . S
O448 Mn432 2.297 . S
O448 C435 1.236 . S
N449 Mn433 2.282 . S
N449 C450 1.328 . S
N449 C454 1.318 . S
C450 N449 1.328 . S
C450 C451 1.457 . S
C450 H455 0.929 . S
C451 C450 1.457 . S
C451 C452 1.291 . S
C451 H464 0.931 . S
C452 C451 1.291 . S
C452 C453 1.373 . S
C452 H465 0.929 . S
C453 C452 1.373 . S
C453 C454 1.396 . S
C453 C460 1.403 . S
C454 C444 1.476 . S
C454 N449 1.318 . S
C454 C453 1.396 . S
H455 C450 0.929 . S
O456 Mn432 2.385 1_655 S
O456 C434 1.234 . S
O457 Mn432 2.209 1_655 S
O457 Mn433 2.215 . S
O457 C434 1.283 . S
O458 Mn432 2.094 . S
O458 C436 1.240 . S
O459 Mn433 2.117 . S
O459 C436 1.264 1_655 S
C460 C453 1.403 . S
C460 C461 1.399 . S
C460 H466 0.929 . S
C461 C441 1.449 . S
C461 C460 1.399 . S
C461 H467 0.930 . S
H462 C442 0.931 . S
H463 C443 0.930 . S
H464 C451 0.931 . S
H465 C452 0.929 . S
H466 C460 0.929 . S
H467 C461 0.930 . S
Mn468 O473 2.095 . S
Mn468 O483 2.162 . S
Mn468 O484 2.297 . S
Mn468 O492 2.385 . S
Mn468 O493 2.209 . S
Mn468 O494 2.094 . S
Mn469 O474 2.121 . S
Mn469 N476 2.257 . S
Mn469 N485 2.282 . S
Mn469 O493 2.215 . S
Mn469 O495 2.117 . S
C470 O492 1.234 . S
C470 O493 1.283 . S
C471 O483 1.281 . S
C471 O484 1.236 . S
C472 O494 1.240 . S
C472 O495 1.264 . S
O473 Mn468 2.095 . S
O473 C482 1.250 . S
O474 Mn469 2.121 . S
O474 C482 1.258 . S
C475 N476 1.326 . S
C475 C479 1.460 . S
C475 H481 0.929 . S
N476 Mn469 2.257 . S
N476 C475 1.326 . S
N476 C480 1.362 . S
C477 C478 1.258 . S
C477 C480 1.431 . S
C477 C497 1.449 . S
C478 C477 1.258 . S
C478 C479 1.477 . S
C478 H498 0.931 . S
C479 C475 1.460 . S
C479 C478 1.477 . S
C479 H499 0.930 . S
C480 N476 1.362 . S
C480 C477 1.431 . S
C480 C490 1.476 . S
H481 C475 0.929 . S
C482 O473 1.250 . S
C482 O474 1.258 . S
O483 Mn468 2.162 . S
O483 C471 1.281 . S
O484 Mn468 2.297 . S
O484 C471 1.236 . S
N485 Mn469 2.282 . S
N485 C486 1.328 . S
N485 C490 1.318 . S
C486 N485 1.328 . S
C486 C487 1.457 . S
C486 H491 0.929 . S
C487 C486 1.457 . S
C487 C488 1.291 . S
C487 H500 0.931 . S
C488 C487 1.291 . S
C488 C489 1.373 . S
C488 H501 0.929 . S
C489 C488 1.373 . S
C489 C490 1.396 . S
C489 C496 1.403 . S
C490 C480 1.476 . S
C490 N485 1.318 . S
C490 C489 1.396 . S
H491 C486 0.929 . S
O492 Mn468 2.385 . S
O492 C470 1.234 . S
O493 Mn468 2.209 . S
O493 Mn469 2.215 . S
O493 C470 1.283 . S
O494 Mn468 2.094 . S
O494 C472 1.240 . S
O495 Mn469 2.117 . S
O495 C472 1.264 . S
C496 C489 1.403 . S
C496 C497 1.399 . S
C496 H502 0.929 . S
C497 C477 1.449 . S
C497 C496 1.399 . S
C497 H503 0.930 . S
H498 C478 0.931 . S
H499 C479 0.930 . S
H500 C487 0.931 . S
H501 C488 0.929 . S
H502 C496 0.929 . S
H503 C497 0.930 . S
Mn504 O509 2.095 1_455 S
Mn504 O519 2.162 . S
Mn504 O520 2.297 1_455 S
Mn504 O528 2.385 . S
Mn504 O529 2.209 1_455 S
Mn504 O530 2.094 . S
Mn505 O510 2.121 . S
Mn505 N512 2.257 . S
Mn505 N521 2.282 1_655 S
Mn505 O529 2.215 . S
Mn505 O531 2.117 1_655 S
C506 O528 1.234 . S
C506 O529 1.283 1_455 S
C507 O519 1.281 . S
C507 O520 1.236 1_455 S
C508 O530 1.240 . S
C508 O531 1.264 . S
O509 Mn504 2.095 1_655 S
O509 C518 1.250 . S
O510 Mn505 2.121 . S
O510 C518 1.258 . S
C511 N512 1.326 . S
C511 C515 1.460 . S
C511 H517 0.929 . S
N512 Mn505 2.257 . S
N512 C511 1.326 . S
N512 C516 1.362 . S
C513 C514 1.258 . S
C513 C516 1.431 . S
C513 C533 1.449 . S
C514 C513 1.258 . S
C514 C515 1.477 . S
C514 H534 0.931 . S
C515 C511 1.460 . S
C515 C514 1.477 . S
C515 H535 0.930 . S
C516 N512 1.362 . S
C516 C513 1.431 . S
C516 C526 1.476 . S
H517 C511 0.929 . S
C518 O509 1.250 . S
C518 O510 1.258 . S
O519 Mn504 2.162 . S
O519 C507 1.281 . S
O520 Mn504 2.297 1_655 S
O520 C507 1.236 1_655 S
N521 Mn505 2.282 1_455 S
N521 C522 1.328 . S
N521 C526 1.318 1_455 S
C522 N521 1.328 . S
C522 C523 1.457 . S
C522 H527 0.929 . S
C523 C522 1.457 . S
C523 C524 1.291 . S
C523 H536 0.931 . S
C524 C523 1.291 . S
C524 C525 1.373 1_455 S
C524 H537 0.929 . S
C525 C524 1.373 1_655 S
C525 C526 1.396 . S
C525 C532 1.403 . S
C526 C516 1.476 . S
C526 N521 1.318 1_655 S
C526 C525 1.396 . S
H527 C522 0.929 . S
O528 Mn504 2.385 . S
O528 C506 1.234 . S
O529 Mn504 2.209 1_655 S
O529 Mn505 2.215 . S
O529 C506 1.283 1_655 S
O530 Mn504 2.094 . S
O530 C508 1.240 . S
O531 Mn505 2.117 1_455 S
O531 C508 1.264 . S
C532 C525 1.403 . S
C532 C533 1.399 . S
C532 H538 0.929 . S
C533 C513 1.449 . S
C533 C532 1.399 . S
C533 H539 0.930 . S
H534 C514 0.931 . S
H535 C515 0.930 . S
H536 C523 0.931 . S
H537 C524 0.929 . S
H538 C532 0.929 . S
H539 C533 0.930 . S
Mn540 O545 2.095 . S
Mn540 O555 2.162 . S
Mn540 O556 2.297 . S
Mn540 O564 2.385 . S
Mn540 O565 2.209 . S
Mn540 O566 2.094 . S
Mn541 O546 2.121 . S
Mn541 N548 2.257 . S
Mn541 N557 2.282 . S
Mn541 O565 2.215 . S
Mn541 O567 2.117 . S
C542 O564 1.234 . S
C542 O565 1.283 . S
C543 O555 1.281 . S
C543 O556 1.236 . S
C544 O566 1.240 . S
C544 O567 1.264 . S
O545 Mn540 2.095 . S
O545 C554 1.250 . S
O546 Mn541 2.121 . S
O546 C554 1.258 . S
C547 N548 1.326 . S
C547 C551 1.460 . S
C547 H553 0.929 . S
N548 Mn541 2.257 . S
N548 C547 1.326 . S
N548 C552 1.362 . S
C549 C550 1.258 . S
C549 C552 1.431 . S
C549 C569 1.449 . S
C550 C549 1.258 . S
C550 C551 1.477 . S
C550 H570 0.931 . S
C551 C547 1.460 . S
C551 C550 1.477 . S
C551 H571 0.930 . S
C552 N548 1.362 . S
C552 C549 1.431 . S
C552 C562 1.476 . S
H553 C547 0.929 . S
C554 O545 1.250 . S
C554 O546 1.258 . S
O555 Mn540 2.162 . S
O555 C543 1.281 . S
O556 Mn540 2.297 . S
O556 C543 1.236 . S
N557 Mn541 2.282 . S
N557 C558 1.328 . S
N557 C562 1.318 . S
C558 N557 1.328 . S
C558 C559 1.457 . S
C558 H563 0.929 . S
C559 C558 1.457 . S
C559 C560 1.291 . S
C559 H572 0.931 . S
C560 C559 1.291 . S
C560 C561 1.373 . S
C560 H573 0.929 . S
C561 C560 1.373 . S
C561 C562 1.396 . S
C561 C568 1.403 . S
C562 C552 1.476 . S
C562 N557 1.318 . S
C562 C561 1.396 . S
H563 C558 0.929 . S
O564 Mn540 2.385 . S
O564 C542 1.234 . S
O565 Mn540 2.209 . S
O565 Mn541 2.215 . S
O565 C542 1.283 . S
O566 Mn540 2.094 . S
O566 C544 1.240 . S
O567 Mn541 2.117 . S
O567 C544 1.264 . S
C568 C561 1.403 . S
C568 C569 1.399 . S
C568 H574 0.929 . S
C569 C549 1.449 . S
C569 C568 1.399 . S
C569 H575 0.930 . S
H570 C550 0.931 . S
H571 C551 0.930 . S
H572 C559 0.931 . S
H573 C560 0.929 . S
H574 C568 0.929 . S
H575 C569 0.930 . S
H576 C582 0.930 . S
H577 C586 0.930 . S
H578 C591 0.929 . S
H579 C589 0.929 . S
H580 C584 0.929 . S
H581 C590 0.929 . S
C582 H576 0.930 . S
C582 C583 1.367 . S
C582 C590 1.378 . S
C583 C582 1.367 . S
C583 C591 1.433 . S
C584 H580 0.929 . S
C584 C586 1.378 . S
C584 C588 1.350 . S
C585 C588 1.463 . S
C585 C590 1.350 . S
C585 N593 1.427 . S
C586 H577 0.930 . S
C586 C584 1.378 . S
C586 C587 1.367 . S
C587 C586 1.367 . S
C587 C589 1.433 . S
C588 C584 1.350 . S
C588 C585 1.463 . S
C588 N592 1.427 . S
C589 H579 0.929 . S
C589 C587 1.433 . S
C589 N592 1.384 . S
C590 H581 0.929 . S
C590 C582 1.378 . S
C590 C585 1.350 . S
C591 H578 0.929 . S
C591 C583 1.433 . S
C591 N593 1.384 . S
N592 C588 1.427 . S
N592 C589 1.384 . S
N593 C585 1.427 . S
N593 C591 1.384 . S
H594 C600 0.930 1_655 S
H595 C604 0.930 . S
H596 C609 0.929 . S
H597 C607 0.929 . S
H598 C602 0.929 . S
H599 C608 0.929 . S
C600 H594 0.930 1_455 S
C600 C601 1.367 . S
C600 C608 1.378 . S
C601 C600 1.367 . S
C601 C609 1.433 . S
C602 H598 0.929 . S
C602 C604 1.378 . S
C602 C606 1.350 . S
C603 C606 1.463 . S
C603 C608 1.350 . S
C603 N611 1.427 . S
C604 H595 0.930 . S
C604 C602 1.378 . S
C604 C605 1.367 . S
C605 C604 1.367 . S
C605 C607 1.433 . S
C606 C602 1.350 . S
C606 C603 1.463 . S
C606 N610 1.427 . S
C607 H597 0.929 . S
C607 C605 1.433 . S
C607 N610 1.384 . S
C608 H599 0.929 . S
C608 C600 1.378 . S
C608 C603 1.350 . S
C609 H596 0.929 . S
C609 C601 1.433 . S
C609 N611 1.384 . S
N610 C606 1.427 . S
N610 C607 1.384 . S
N611 C603 1.427 . S
N611 C609 1.384 . S
H612 C618 0.930 . S
H613 C622 0.930 . S
H614 C627 0.929 . S
H615 C625 0.929 . S
H616 C620 0.929 . S
H617 C626 0.929 . S
C618 H612 0.930 . S
C618 C619 1.367 . S
C618 C626 1.378 . S
C619 C618 1.367 . S
C619 C627 1.433 . S
C620 H616 0.929 . S
C620 C622 1.378 . S
C620 C624 1.350 . S
C621 C624 1.463 . S
C621 C626 1.350 . S
C621 N629 1.427 . S
C622 H613 0.930 . S
C622 C620 1.378 . S
C622 C623 1.367 . S
C623 C622 1.367 . S
C623 C625 1.433 . S
C624 C620 1.350 . S
C624 C621 1.463 . S
C624 N628 1.427 . S
C625 H615 0.929 . S
C625 C623 1.433 . S
C625 N628 1.384 . S
C626 H617 0.929 . S
C626 C618 1.378 . S
C626 C621 1.350 . S
C627 H614 0.929 . S
C627 C619 1.433 . S
C627 N629 1.384 . S
N628 C624 1.427 . S
N628 C625 1.384 . S
N629 C621 1.427 . S
N629 C627 1.384 . S
H630 C636 0.930 1_455 S
H631 C640 0.930 . S
H632 C645 0.929 . S
H633 C643 0.929 . S
H634 C638 0.929 . S
H635 C644 0.929 . S
C636 H630 0.930 1_655 S
C636 C637 1.367 1_655 S
C636 C644 1.378 . S
C637 C636 1.367 1_455 S
C637 C645 1.433 1_465 S
C638 H634 0.929 . S
C638 C640 1.378 . S
C638 C642 1.350 1_545 S
C639 C642 1.463 . S
C639 C644 1.350 . S
C639 N647 1.427 1_565 S
C640 H631 0.930 . S
C640 C638 1.378 . S
C640 C641 1.365 1_545 S
C641 C640 1.365 1_565 S
C641 C643 1.436 . S
C642 C638 1.350 1_565 S
C642 C639 1.463 . S
C642 N646 1.427 . S
C643 H633 0.929 . S
C643 C641 1.436 . S
C643 N646 1.384 . S
C644 H635 0.929 . S
C644 C636 1.378 . S
C644 C639 1.350 . S
C645 H632 0.929 . S
C645 C637 1.433 1_645 S
C645 N647 1.384 . S
N646 C642 1.427 . S
N646 C643 1.384 . S
N647 C639 1.427 1_545 S
N647 C645 1.384 . S
H648 C654 0.930 . S
H649 C658 0.930 . S
H650 C663 0.929 . S
H651 C661 0.929 . S
H652 C656 0.929 . S
H653 C662 0.929 . S
C654 H648 0.930 . S
C654 C655 1.367 . S
C654 C662 1.378 . S
C655 C654 1.367 . S
C655 C663 1.433 . S
C656 H652 0.929 . S
C656 C658 1.378 . S
C656 C660 1.350 . S
C657 C660 1.463 . S
C657 C662 1.350 . S
C657 N665 1.427 . S
C658 H649 0.930 . S
C658 C656 1.378 . S
C658 C659 1.367 . S
C659 C658 1.367 . S
C659 C661 1.433 . S
C660 C656 1.350 . S
C660 C657 1.463 . S
C660 N664 1.427 . S
C661 H651 0.929 . S
C661 C659 1.433 . S
C661 N664 1.384 . S
C662 H653 0.929 . S
C662 C654 1.378 . S
C662 C657 1.350 . S
C663 H650 0.929 . S
C663 C655 1.433 . S
C663 N665 1.384 . S
N664 C660 1.427 . S
N664 C661 1.384 . S
N665 C657 1.427 . S
N665 C663 1.384 . S
H666 C672 0.930 . S
H667 C676 0.930 . S
H668 C681 0.929 . S
H669 C679 0.929 . S
H670 C674 0.929 . S
H671 C680 0.929 . S
C672 H666 0.930 . S
C672 C673 1.367 . S
C672 C680 1.378 . S
C673 C672 1.367 . S
C673 C681 1.433 . S
C674 H670 0.929 . S
C674 C676 1.378 . S
C674 C678 1.350 . S
C675 C678 1.463 . S
C675 C680 1.350 . S
C675 N683 1.427 . S
C676 H667 0.930 . S
C676 C674 1.378 . S
C676 C677 1.367 . S
C677 C676 1.367 . S
C677 C679 1.433 . S
C678 C674 1.350 . S
C678 C675 1.463 . S
C678 N682 1.427 . S
C679 H669 0.929 . S
C679 C677 1.433 . S
C679 N682 1.384 . S
C680 H671 0.929 . S
C680 C672 1.378 . S
C680 C675 1.350 . S
C681 H668 0.929 . S
C681 C673 1.433 . S
C681 N683 1.384 . S
N682 C678 1.427 . S
N682 C679 1.384 . S
N683 C675 1.427 . S
N683 C681 1.384 . S
H684 C690 0.930 . S
H685 C694 0.930 . S
H686 C699 0.929 . S
H687 C697 0.929 . S
H688 C692 0.929 . S
H689 C698 0.929 . S
C690 H684 0.930 . S
C690 C691 1.367 . S
C690 C698 1.378 . S
C691 C690 1.367 . S
C691 C699 1.433 . S
C692 H688 0.929 . S
C692 C694 1.378 . S
C692 C696 1.350 . S
C693 C696 1.463 . S
C693 C698 1.350 . S
C693 N701 1.427 . S
C694 H685 0.930 . S
C694 C692 1.378 . S
C694 C695 1.367 . S
C695 C694 1.367 . S
C695 C697 1.433 . S
C696 C692 1.350 . S
C696 C693 1.463 . S
C696 N700 1.427 . S
C697 H687 0.929 . S
C697 C695 1.433 . S
C697 N700 1.384 . S
C698 H689 0.929 . S
C698 C690 1.378 . S
C698 C693 1.350 . S
C699 H686 0.929 . S
C699 C691 1.433 . S
C699 N701 1.384 . S
N700 C696 1.427 . S
N700 C697 1.384 . S
N701 C693 1.427 . S
N701 C699 1.384 . S
H702 C708 0.930 . S
H703 C712 0.930 . S
H704 C717 0.929 . S
H705 C715 0.929 . S
H706 C710 0.929 . S
H707 C716 0.929 . S
C708 H702 0.930 . S
C708 C709 1.367 . S
C708 C716 1.378 . S
C709 C708 1.367 . S
C709 C717 1.433 1_565 S
C710 H706 0.929 . S
C710 C712 1.378 . S
C710 C714 1.350 1_545 S
C711 C714 1.463 . S
C711 C716 1.350 . S
C711 N719 1.427 1_565 S
C712 H703 0.930 . S
C712 C710 1.378 . S
C712 C713 1.367 1_545 S
C713 C712 1.367 1_565 S
C713 C715 1.433 . S
C714 C710 1.350 1_565 S
C714 C711 1.463 . S
C714 N718 1.427 . S
C715 H705 0.929 . S
C715 C713 1.433 . S
C715 N718 1.384 . S
C716 H707 0.929 . S
C716 C708 1.378 . S
C716 C711 1.350 . S
C717 H704 0.929 . S
C717 C709 1.433 1_545 S
C717 N719 1.384 . S
N718 C714 1.427 . S
N718 C715 1.384 . S
N719 C711 1.427 1_545 S
N719 C717 1.384 . S
H720 C726 0.930 . S
H721 C730 0.930 . S
H722 C735 0.929 . S
H723 C733 0.929 . S
H724 C728 0.929 . S
H725 C734 0.929 . S
C726 H720 0.930 . S
C726 C727 1.367 . S
C726 C734 1.378 . S
C727 C726 1.367 . S
C727 C735 1.433 . S
C728 H724 0.929 . S
C728 C730 1.378 . S
C728 C732 1.350 . S
C729 C732 1.463 . S
C729 C734 1.350 . S
C729 N737 1.427 . S
C730 H721 0.930 . S
C730 C728 1.378 . S
C730 C731 1.367 . S
C731 C730 1.367 . S
C731 C733 1.433 . S
C732 C728 1.350 . S
C732 C729 1.463 . S
C732 N736 1.427 . S
C733 H723 0.929 . S
C733 C731 1.433 . S
C733 N736 1.384 . S
C734 H725 0.929 . S
C734 C726 1.378 . S
C734 C729 1.350 . S
C735 H722 0.929 . S
C735 C727 1.433 . S
C735 N737 1.384 . S
N736 C732 1.427 . S
N736 C733 1.384 . S
N737 C729 1.427 . S
N737 C735 1.384 . S
H738 C744 0.930 . S
H739 C748 0.930 . S
H740 C753 0.929 . S
H741 C751 0.929 . S
H742 C746 0.929 . S
H743 C752 0.929 . S
C744 H738 0.930 . S
C744 C745 1.367 . S
C744 C752 1.378 . S
C745 C744 1.367 . S
C745 C753 1.433 . S
C746 H742 0.929 . S
C746 C748 1.378 . S
C746 C750 1.350 . S
C747 C750 1.463 . S
C747 C752 1.350 . S
C747 N755 1.427 . S
C748 H739 0.930 . S
C748 C746 1.378 . S
C748 C749 1.367 . S
C749 C748 1.367 . S
C749 C751 1.433 . S
C750 C746 1.350 . S
C750 C747 1.463 . S
C750 N754 1.427 . S
C751 H741 0.929 . S
C751 C749 1.433 . S
C751 N754 1.384 . S
C752 H743 0.929 . S
C752 C744 1.378 . S
C752 C747 1.350 . S
C753 H740 0.929 . S
C753 C745 1.433 . S
C753 N755 1.384 . S
N754 C750 1.427 . S
N754 C751 1.384 . S
N755 C747 1.427 . S
N755 C753 1.384 . S
H756 C762 0.930 . S
H757 C766 0.930 . S
H758 C771 0.929 . S
H759 C769 0.929 . S
H760 C764 0.929 . S
H761 C770 0.929 . S
C762 H756 0.930 . S
C762 C763 1.367 . S
C762 C770 1.378 . S
C763 C762 1.367 . S
C763 C771 1.433 . S
C764 H760 0.929 . S
C764 C766 1.378 . S
C764 C768 1.350 . S
C765 C768 1.463 . S
C765 C770 1.350 . S
C765 N773 1.427 . S
C766 H757 0.930 . S
C766 C764 1.378 . S
C766 C767 1.367 . S
C767 C766 1.367 . S
C767 C769 1.433 . S
C768 C764 1.350 . S
C768 C765 1.463 . S
C768 N772 1.427 . S
C769 H759 0.929 . S
C769 C767 1.433 . S
C769 N772 1.384 . S
C770 H761 0.929 . S
C770 C762 1.378 . S
C770 C765 1.350 . S
C771 H758 0.929 . S
C771 C763 1.433 . S
C771 N773 1.384 . S
N772 C768 1.427 . S
N772 C769 1.384 . S
N773 C765 1.427 . S
N773 C771 1.384 . S
H774 C780 0.930 . S
H775 C784 0.930 . S
H776 C789 0.929 . S
H777 C787 0.929 . S
H778 C782 0.929 . S
H779 C788 0.929 . S
C780 H774 0.930 . S
C780 C781 1.367 . S
C780 C788 1.378 . S
C781 C780 1.367 . S
C781 C789 1.433 . S
C782 H778 0.929 . S
C782 C784 1.378 . S
C782 C786 1.350 . S
C783 C786 1.463 . S
C783 C788 1.350 . S
C783 N791 1.427 . S
C784 H775 0.930 . S
C784 C782 1.378 . S
C784 C785 1.367 . S
C785 C784 1.367 . S
C785 C787 1.433 . S
C786 C782 1.350 . S
C786 C783 1.463 . S
C786 N790 1.427 . S
C787 H777 0.929 . S
C787 C785 1.433 . S
C787 N790 1.384 . S
C788 H779 0.929 . S
C788 C780 1.378 . S
C788 C783 1.350 . S
C789 H776 0.929 . S
C789 C781 1.433 . S
C789 N791 1.384 . S
N790 C786 1.427 . S
N790 C787 1.384 . S
N791 C783 1.427 . S
N791 C789 1.384 . S
H792 C798 0.930 . S
H793 C802 0.930 . S
H794 C807 0.929 . S
H795 C805 0.929 . S
H796 C800 0.929 . S
H797 C806 0.929 . S
C798 H792 0.930 . S
C798 C799 1.367 . S
C798 C806 1.378 . S
C799 C798 1.367 . S
C799 C807 1.433 . S
C800 H796 0.929 . S
C800 C802 1.378 . S
C800 C804 1.350 . S
C801 C804 1.463 . S
C801 C806 1.350 . S
C801 N809 1.427 . S
C802 H793 0.930 . S
C802 C800 1.378 . S
C802 C803 1.367 . S
C803 C802 1.367 . S
C803 C805 1.433 . S
C804 C800 1.350 . S
C804 C801 1.463 . S
C804 N808 1.427 . S
C805 H795 0.929 . S
C805 C803 1.433 . S
C805 N808 1.384 . S
C806 H797 0.929 . S
C806 C798 1.378 . S
C806 C801 1.350 . S
C807 H794 0.929 . S
C807 C799 1.433 . S
C807 N809 1.384 . S
N808 C804 1.427 . S
N808 C805 1.384 . S
N809 C801 1.427 . S
N809 C807 1.384 . S
H810 C816 0.930 . S
H811 C820 0.930 . S
H812 C825 0.929 . S
H813 C823 0.953 . S
H814 C818 0.929 . S
H815 C824 0.926 1_655 S
C816 H810 0.930 . S
C816 C817 1.367 . S
C816 C824 1.378 . S
C817 C816 1.367 . S
C817 C825 1.433 . S
C818 H814 0.929 . S
C818 C820 1.378 . S
C818 C822 1.350 . S
C819 C822 1.463 . S
C819 C824 1.350 . S
C819 N827 1.427 . S
C820 H811 0.930 . S
C820 C818 1.378 . S
C820 C821 1.367 . S
C821 C820 1.367 . S
C821 C823 1.414 1_455 S
C822 C818 1.350 . S
C822 C819 1.463 . S
C822 N826 1.427 . S
C823 H813 0.953 . S
C823 C821 1.414 1_655 S
C823 N826 1.379 1_655 S
C824 H815 0.926 1_455 S
C824 C816 1.378 . S
C824 C819 1.350 . S
C825 H812 0.929 . S
C825 C817 1.433 . S
C825 N827 1.384 . S
N826 C822 1.427 . S
N826 C823 1.379 1_455 S
N827 C819 1.427 . S
N827 C825 1.384 . S
H828 C834 0.930 . S
H829 C838 0.930 . S
H830 C843 0.929 . S
H831 C841 0.929 . S
H832 C836 0.929 . S
H833 C842 0.929 . S
C834 H828 0.930 . S
C834 C835 1.367 . S
C834 C842 1.378 . S
C835 C834 1.367 . S
C835 C843 1.433 . S
C836 H832 0.929 . S
C836 C838 1.378 . S
C836 C840 1.350 . S
C837 C840 1.463 . S
C837 C842 1.350 . S
C837 N845 1.427 . S
C838 H829 0.930 . S
C838 C836 1.378 . S
C838 C839 1.367 . S
C839 C838 1.367 . S
C839 C841 1.433 . S
C840 C836 1.350 . S
C840 C837 1.463 . S
C840 N844 1.427 . S
C841 H831 0.929 . S
C841 C839 1.433 . S
C841 N844 1.384 . S
C842 H833 0.929 . S
C842 C834 1.378 . S
C842 C837 1.350 . S
C843 H830 0.929 . S
C843 C835 1.433 . S
C843 N845 1.384 . S
N844 C840 1.427 . S
N844 C841 1.384 . S
N845 C837 1.427 . S
N845 C843 1.384 . S
H846 C852 0.930 . S
H847 C856 0.930 . S
H848 C861 0.929 . S
H849 C859 0.929 . S
H850 C854 0.929 . S
H851 C860 0.929 . S
C852 H846 0.930 . S
C852 C853 1.367 . S
C852 C860 1.378 . S
C853 C852 1.367 . S
C853 C861 1.433 . S
C854 H850 0.929 . S
C854 C856 1.378 . S
C854 C858 1.350 . S
C855 C858 1.463 . S
C855 C860 1.350 . S
C855 N863 1.427 . S
C856 H847 0.930 . S
C856 C854 1.378 . S
C856 C857 1.367 . S
C857 C856 1.367 . S
C857 C859 1.433 . S
C858 C854 1.350 . S
C858 C855 1.463 . S
C858 N862 1.427 . S
C859 H849 0.929 . S
C859 C857 1.433 . S
C859 N862 1.384 . S
C860 H851 0.929 . S
C860 C852 1.378 . S
C860 C855 1.350 . S
C861 H848 0.929 . S
C861 C853 1.433 . S
C861 N863 1.384 . S
N862 C858 1.427 . S
N862 C859 1.384 . S
N863 C855 1.427 . S
N863 C861 1.384 . S
H864 C870 0.930 . S
H865 C874 0.930 . S
H866 C879 0.929 . S
H867 C877 0.929 . S
H868 C872 0.929 . S
H869 C878 0.929 . S
C870 H864 0.930 . S
C870 C871 1.367 . S
C870 C878 1.378 . S
C871 C870 1.367 . S
C871 C879 1.433 . S
C872 H868 0.929 . S
C872 C874 1.378 . S
C872 C876 1.350 . S
C873 C876 1.463 . S
C873 C878 1.350 . S
C873 N881 1.427 . S
C874 H865 0.930 . S
C874 C872 1.378 . S
C874 C875 1.367 . S
C875 C874 1.367 . S
C875 C877 1.433 . S
C876 C872 1.350 . S
C876 C873 1.463 . S
C876 N880 1.427 . S
C877 H867 0.929 . S
C877 C875 1.433 . S
C877 N880 1.384 . S
C878 H869 0.929 . S
C878 C870 1.378 . S
C878 C873 1.350 . S
C879 H866 0.929 . S
C879 C871 1.433 . S
C879 N881 1.384 . S
N880 C876 1.427 . S
N880 C877 1.384 . S
N881 C873 1.427 . S
N881 C879 1.384 . S
H882 C888 0.930 . S
H883 C892 0.930 . S
H884 C897 0.929 . S
H885 C895 0.929 . S
H886 C890 0.929 . S
H887 C896 0.929 . S
C888 H882 0.930 . S
C888 C889 1.367 . S
C888 C896 1.378 . S
C889 C888 1.367 . S
C889 C897 1.433 . S
C890 H886 0.929 . S
C890 C892 1.378 . S
C890 C894 1.350 . S
C891 C894 1.463 . S
C891 C896 1.350 . S
C891 N899 1.427 . S
C892 H883 0.930 . S
C892 C890 1.378 . S
C892 C893 1.367 . S
C893 C892 1.367 . S
C893 C895 1.433 . S
C894 C890 1.350 . S
C894 C891 1.463 . S
C894 N898 1.427 . S
C895 H885 0.929 . S
C895 C893 1.433 . S
C895 N898 1.384 . S
C896 H887 0.929 . S
C896 C888 1.378 . S
C896 C891 1.350 . S
C897 H884 0.929 . S
C897 C889 1.433 . S
C897 N899 1.384 . S
N898 C894 1.427 . S
N898 C895 1.384 . S
N899 C891 1.427 . S
N899 C897 1.384 . S
H900 C906 0.930 1_554 S
H901 C910 0.930 . S
H902 C915 0.929 . S
H903 C913 0.929 . S
H904 C908 0.929 . S
H905 C914 0.920 1_545 S
C906 H900 0.930 1_556 S
C906 C907 1.367 . S
C906 C914 1.378 1_546 S
C907 C906 1.367 . S
C907 C915 1.433 1_545 S
C908 H904 0.929 . S
C908 C910 1.378 . S
C908 C912 1.350 . S
C909 C912 1.463 . S
C909 C914 1.350 1_556 S
C909 N917 1.427 . S
C910 H901 0.930 . S
C910 C908 1.378 . S
C910 C911 1.348 1_556 S
C911 C910 1.348 1_554 S
C911 C913 1.448 . S
C912 C908 1.350 . S
C912 C909 1.463 . S
C912 N916 1.427 1_556 S
C913 H903 0.929 . S
C913 C911 1.448 . S
C913 N916 1.384 . S
C914 H905 0.920 1_565 S
C914 C906 1.378 1_564 S
C914 C909 1.350 1_554 S
C915 H902 0.929 . S
C915 C907 1.433 1_565 S
C915 N917 1.384 . S
N916 C912 1.427 1_554 S
N916 C913 1.384 . S
N917 C909 1.427 . S
N917 C915 1.384 . S
H918 C924 0.930 . S
H919 C928 0.930 . S
H920 C933 0.929 . S
H921 C931 0.929 . S
H922 C926 0.929 . S
H923 C932 0.929 . S
C924 H918 0.930 . S
C924 C925 1.367 . S
C924 C932 1.378 . S
C925 C924 1.367 . S
C925 C933 1.433 . S
C926 H922 0.929 . S
C926 C928 1.378 . S
C926 C930 1.350 . S
C927 C930 1.463 . S
C927 C932 1.350 . S
C927 N935 1.427 . S
C928 H919 0.930 . S
C928 C926 1.378 . S
C928 C929 1.367 . S
C929 C928 1.367 . S
C929 C931 1.433 . S
C930 C926 1.350 . S
C930 C927 1.463 . S
C930 N934 1.427 . S
C931 H921 0.929 . S
C931 C929 1.433 . S
C931 N934 1.384 . S
C932 H923 0.929 . S
C932 C924 1.378 . S
C932 C927 1.350 . S
C933 H920 0.929 . S
C933 C925 1.433 . S
C933 N935 1.384 . S
N934 C930 1.427 . S
N934 C931 1.384 . S
N935 C927 1.427 . S
N935 C933 1.384 . S
H936 C942 0.930 . S
H937 C946 0.930 . S
H938 C951 0.929 . S
H939 C949 0.929 . S
H940 C944 0.929 . S
H941 C950 0.929 . S
C942 H936 0.930 . S
C942 C943 1.367 1_565 S
C942 C950 1.378 1_565 S
C943 C942 1.367 1_545 S
C943 C951 1.433 . S
C944 H940 0.929 . S
C944 C946 1.378 . S
C944 C948 1.350 . S
C945 C948 1.463 . S
C945 C950 1.350 . S
C945 N953 1.427 . S
C946 H937 0.930 . S
C946 C944 1.378 . S
C946 C947 1.367 . S
C947 C946 1.367 . S
C947 C949 1.433 . S
C948 C944 1.350 . S
C948 C945 1.463 . S
C948 N952 1.427 . S
C949 H939 0.929 . S
C949 C947 1.433 . S
C949 N952 1.384 . S
C950 H941 0.929 . S
C950 C942 1.378 1_545 S
C950 C945 1.350 . S
C951 H938 0.929 . S
C951 C943 1.433 . S
C951 N953 1.384 . S
N952 C948 1.427 . S
N952 C949 1.384 . S
N953 C945 1.427 . S
N953 C951 1.384 . S
H954 C960 0.930 . S
H955 C964 0.930 . S
H956 C969 0.929 . S
H957 C967 0.929 . S
H958 C962 0.929 . S
H959 C968 0.929 . S
C960 H954 0.930 . S
C960 C961 1.367 . S
C960 C968 1.378 . S
C961 C960 1.367 . S
C961 C969 1.433 . S
C962 H958 0.929 . S
C962 C964 1.378 . S
C962 C966 1.350 . S
C963 C966 1.463 . S
C963 C968 1.350 . S
C963 N971 1.427 . S
C964 H955 0.930 . S
C964 C962 1.378 . S
C964 C965 1.367 . S
C965 C964 1.367 . S
C965 C967 1.433 . S
C966 C962 1.350 . S
C966 C963 1.463 . S
C966 N970 1.427 . S
C967 H957 0.929 . S
C967 C965 1.433 . S
C967 N970 1.384 . S
C968 H959 0.929 . S
C968 C960 1.378 . S
C968 C963 1.350 . S
C969 H956 0.929 . S
C969 C961 1.433 . S
C969 N971 1.384 . S
N970 C966 1.427 . S
N970 C967 1.384 . S
N971 C963 1.427 . S
N971 C969 1.384 . S
H972 C978 0.930 . S
H973 C982 0.930 . S
H974 C987 0.929 . S
H975 C985 0.929 . S
H976 C980 0.929 . S
H977 C986 0.929 . S
C978 H972 0.930 . S
C978 C979 1.367 1_565 S
C978 C986 1.378 1_565 S
C979 C978 1.367 1_545 S
C979 C987 1.433 . S
C980 H976 0.929 . S
C980 C982 1.378 . S
C980 C984 1.350 . S
C981 C984 1.463 . S
C981 C986 1.350 . S
C981 N989 1.427 . S
C982 H973 0.930 . S
C982 C980 1.378 . S
C982 C983 1.367 . S
C983 C982 1.367 . S
C983 C985 1.433 . S
C984 C980 1.350 . S
C984 C981 1.463 . S
C984 N988 1.427 . S
C985 H975 0.929 . S
C985 C983 1.433 . S
C985 N988 1.384 . S
C986 H977 0.929 . S
C986 C978 1.378 1_545 S
C986 C981 1.350 . S
C987 H974 0.929 . S
C987 C979 1.433 . S
C987 N989 1.384 . S
N988 C984 1.427 . S
N988 C985 1.384 . S
N989 C981 1.427 . S
N989 C987 1.384 . S
H990 C996 0.930 . S
H991 C1000 0.930 . S
H992 C1005 0.929 . S
H993 C1003 0.929 . S
H994 C998 0.929 . S
H995 C1004 0.929 . S
C996 H990 0.930 . S
C996 C997 1.367 . S
C996 C1004 1.378 . S
C997 C996 1.367 . S
C997 C1005 1.433 . S
C998 H994 0.929 . S
C998 C1000 1.378 . S
C998 C1002 1.350 . S
C999 C1002 1.463 . S
C999 C1004 1.350 . S
C999 N1007 1.427 . S
C1000 H991 0.930 . S
C1000 C998 1.378 . S
C1000 C1001 1.367 . S
C1001 C1000 1.367 . S
C1001 C1003 1.433 . S
C1002 C998 1.350 . S
C1002 C999 1.463 . S
C1002 N1006 1.427 . S
C1003 H993 0.929 . S
C1003 C1001 1.433 . S
C1003 N1006 1.384 . S
C1004 H995 0.929 . S
C1004 C996 1.378 . S
C1004 C999 1.350 . S
C1005 H992 0.929 . S
C1005 C997 1.433 . S
C1005 N1007 1.384 . S
N1006 C1002 1.427 . S
N1006 C1003 1.384 . S
N1007 C999 1.427 . S
N1007 C1005 1.384 . S
H1008 C1014 0.930 . S
H1009 C1018 0.930 . S
H1010 C1023 0.929 . S
H1011 C1021 0.929 . S
H1012 C1016 0.929 . S
H1013 C1022 0.929 . S
C1014 H1008 0.930 . S
C1014 C1015 1.367 . S
C1014 C1022 1.378 . S
C1015 C1014 1.367 . S
C1015 C1023 1.433 . S
C1016 H1012 0.929 . S
C1016 C1018 1.378 . S
C1016 C1020 1.350 . S
C1017 C1020 1.463 . S
C1017 C1022 1.350 . S
C1017 N1025 1.427 . S
C1018 H1009 0.930 . S
C1018 C1016 1.378 . S
C1018 C1019 1.367 . S
C1019 C1018 1.367 . S
C1019 C1021 1.433 . S
C1020 C1016 1.350 . S
C1020 C1017 1.463 . S
C1020 N1024 1.427 . S
C1021 H1011 0.929 . S
C1021 C1019 1.433 . S
C1021 N1024 1.384 . S
C1022 H1013 0.929 . S
C1022 C1014 1.378 . S
C1022 C1017 1.350 . S
C1023 H1010 0.929 . S
C1023 C1015 1.433 . S
C1023 N1025 1.384 . S
N1024 C1020 1.427 . S
N1024 C1021 1.384 . S
N1025 C1017 1.427 . S
N1025 C1023 1.384 . S
H1026 C1032 0.930 . S
H1027 C1036 0.930 . S
H1028 C1041 0.929 1_565 S
H1029 C1039 0.929 . S
H1030 C1034 0.929 . S
H1031 C1040 0.929 . S
C1032 H1026 0.930 . S
C1032 C1033 1.367 . S
C1032 C1040 1.378 . S
C1033 C1032 1.367 . S
C1033 C1041 1.433 . S
C1034 H1030 0.929 . S
C1034 C1036 1.378 . S
C1034 C1038 1.350 1_565 S
C1035 C1038 1.463 . S
C1035 C1040 1.350 . S
C1035 N1043 1.455 . S
C1036 H1027 0.930 . S
C1036 C1034 1.378 . S
C1036 C1037 1.367 1_565 S
C1037 C1036 1.367 1_545 S
C1037 C1039 1.433 . S
C1038 C1034 1.350 1_545 S
C1038 C1035 1.463 . S
C1038 N1042 1.427 . S
C1039 H1029 0.929 . S
C1039 C1037 1.433 . S
C1039 N1042 1.384 . S
C1040 H1031 0.929 . S
C1040 C1032 1.378 . S
C1040 C1035 1.350 . S
C1041 H1028 0.929 1_545 S
C1041 C1033 1.433 . S
C1041 N1043 1.389 . S
N1042 C1038 1.427 . S
N1042 C1039 1.384 . S
N1043 C1035 1.455 . S
N1043 C1041 1.389 . S
H1044 C1050 0.930 . S
H1045 C1054 0.930 . S
H1046 C1059 0.929 . S
H1047 C1057 0.929 . S
H1048 C1052 0.929 . S
H1049 C1058 0.929 . S
C1050 H1044 0.930 . S
C1050 C1051 1.367 . S
C1050 C1058 1.378 . S
C1051 C1050 1.367 . S
C1051 C1059 1.433 . S
C1052 H1048 0.929 . S
C1052 C1054 1.378 . S
C1052 C1056 1.350 . S
C1053 C1056 1.463 . S
C1053 C1058 1.350 . S
C1053 N1061 1.427 . S
C1054 H1045 0.930 . S
C1054 C1052 1.378 . S
C1054 C1055 1.367 . S
C1055 C1054 1.367 . S
C1055 C1057 1.433 . S
C1056 C1052 1.350 . S
C1056 C1053 1.463 . S
C1056 N1060 1.427 . S
C1057 H1047 0.929 . S
C1057 C1055 1.433 . S
C1057 N1060 1.384 . S
C1058 H1049 0.929 . S
C1058 C1050 1.378 . S
C1058 C1053 1.350 . S
C1059 H1046 0.929 . S
C1059 C1051 1.433 . S
C1059 N1061 1.384 . S
N1060 C1056 1.427 . S
N1060 C1057 1.384 . S
N1061 C1053 1.427 . S
N1061 C1059 1.384 . S
H1062 C1068 0.930 . S
H1063 C1072 0.930 . S
H1064 C1077 0.929 . S
H1065 C1075 0.929 . S
H1066 C1070 0.929 . S
H1067 C1076 0.929 . S
C1068 H1062 0.930 . S
C1068 C1069 1.367 . S
C1068 C1076 1.378 . S
C1069 C1068 1.367 . S
C1069 C1077 1.433 . S
C1070 H1066 0.929 . S
C1070 C1072 1.378 . S
C1070 C1074 1.350 . S
C1071 C1074 1.463 . S
C1071 C1076 1.350 . S
C1071 N1079 1.427 . S
C1072 H1063 0.930 . S
C1072 C1070 1.378 . S
C1072 C1073 1.367 . S
C1073 C1072 1.367 . S
C1073 C1075 1.433 . S
C1074 C1070 1.350 . S
C1074 C1071 1.463 . S
C1074 N1078 1.427 . S
C1075 H1065 0.929 . S
C1075 C1073 1.433 . S
C1075 N1078 1.384 . S
C1076 H1067 0.929 . S
C1076 C1068 1.378 . S
C1076 C1071 1.350 . S
C1077 H1064 0.929 . S
C1077 C1069 1.433 . S
C1077 N1079 1.384 . S
N1078 C1074 1.427 . S
N1078 C1075 1.384 . S
N1079 C1071 1.427 . S
N1079 C1077 1.384 . S
H1080 C1086 0.930 . S
H1081 C1090 0.930 . S
H1082 C1095 0.929 . S
H1083 C1093 0.929 . S
H1084 C1088 0.929 . S
H1085 C1094 0.929 . S
C1086 H1080 0.930 . S
C1086 C1087 1.367 . S
C1086 C1094 1.378 . S
C1087 C1086 1.367 . S
C1087 C1095 1.433 . S
C1088 H1084 0.929 . S
C1088 C1090 1.378 . S
C1088 C1092 1.350 . S
C1089 C1092 1.463 . S
C1089 C1094 1.350 . S
C1089 N1097 1.427 . S
C1090 H1081 0.930 . S
C1090 C1088 1.378 . S
C1090 C1091 1.367 . S
C1091 C1090 1.367 . S
C1091 C1093 1.433 . S
C1092 C1088 1.350 . S
C1092 C1089 1.463 . S
C1092 N1096 1.427 . S
C1093 H1083 0.929 . S
C1093 C1091 1.433 . S
C1093 N1096 1.384 . S
C1094 H1085 0.929 . S
C1094 C1086 1.378 . S
C1094 C1089 1.350 . S
C1095 H1082 0.929 . S
C1095 C1087 1.433 . S
C1095 N1097 1.384 . S
N1096 C1092 1.427 . S
N1096 C1093 1.384 . S
N1097 C1089 1.427 . S
N1097 C1095 1.384 . S
H1098 C1104 0.930 . S
H1099 C1108 0.930 . S
H1100 C1113 0.929 1_565 S
H1101 C1111 0.929 . S
H1102 C1106 0.929 . S
H1103 C1112 0.929 . S
C1104 H1098 0.930 . S
C1104 C1105 1.354 1_655 S
C1104 C1112 1.378 . S
C1105 C1104 1.354 1_455 S
C1105 C1113 1.437 . S
C1106 H1102 0.929 . S
C1106 C1108 1.378 . S
C1106 C1110 1.350 1_565 S
C1107 C1110 1.463 . S
C1107 C1112 1.350 . S
C1107 N1115 1.427 . S
C1108 H1099 0.930 . S
C1108 C1106 1.378 . S
C1108 C1109 1.367 1_565 S
C1109 C1108 1.367 1_545 S
C1109 C1111 1.433 . S
C1110 C1106 1.350 1_545 S
C1110 C1107 1.463 . S
C1110 N1114 1.427 . S
C1111 H1101 0.929 . S
C1111 C1109 1.433 . S
C1111 N1114 1.384 . S
C1112 H1103 0.929 . S
C1112 C1104 1.378 . S
C1112 C1107 1.350 . S
C1113 H1100 0.929 1_545 S
C1113 C1105 1.437 . S
C1113 N1115 1.384 1_455 S
N1114 C1110 1.427 . S
N1114 C1111 1.384 . S
N1115 C1107 1.427 . S
N1115 C1113 1.384 1_655 S
H1116 C1122 0.930 . S
H1117 C1126 0.930 . S
H1118 C1131 0.929 . S
H1119 C1129 0.929 . S
H1120 C1124 0.929 . S
H1121 C1130 0.929 . S
C1122 H1116 0.930 . S
C1122 C1123 1.367 . S
C1122 C1130 1.378 . S
C1123 C1122 1.367 . S
C1123 C1131 1.433 . S
C1124 H1120 0.929 . S
C1124 C1126 1.378 . S
C1124 C1128 1.350 . S
C1125 C1128 1.463 . S
C1125 C1130 1.350 . S
C1125 N1133 1.427 . S
C1126 H1117 0.930 . S
C1126 C1124 1.378 . S
C1126 C1127 1.367 . S
C1127 C1126 1.367 . S
C1127 C1129 1.433 . S
C1128 C1124 1.350 . S
C1128 C1125 1.463 . S
C1128 N1132 1.427 . S
C1129 H1119 0.929 . S
C1129 C1127 1.433 . S
C1129 N1132 1.384 . S
C1130 H1121 0.929 . S
C1130 C1122 1.378 . S
C1130 C1125 1.350 . S
C1131 H1118 0.929 . S
C1131 C1123 1.433 . S
C1131 N1133 1.384 . S
N1132 C1128 1.427 . S
N1132 C1129 1.384 . S
N1133 C1125 1.427 . S
N1133 C1131 1.384 . S
H1134 C1140 0.930 . S
H1135 C1144 0.930 . S
H1136 C1149 0.929 1_655 S
H1137 C1147 0.929 . S
H1138 C1142 0.929 . S
H1139 C1148 0.929 . S
C1140 H1134 0.930 . S
C1140 C1141 1.367 . S
C1140 C1148 1.378 . S
C1141 C1140 1.367 . S
C1141 C1149 1.433 . S
C1142 H1138 0.929 . S
C1142 C1144 1.378 . S
C1142 C1146 1.350 . S
C1143 C1146 1.463 . S
C1143 C1148 1.350 . S
C1143 N1151 1.427 . S
C1144 H1135 0.930 . S
C1144 C1142 1.378 . S
C1144 C1145 1.367 . S
C1145 C1144 1.367 . S
C1145 C1147 1.433 . S
C1146 C1142 1.350 . S
C1146 C1143 1.463 . S
C1146 N1150 1.427 . S
C1147 H1137 0.929 . S
C1147 C1145 1.433 . S
C1147 N1150 1.384 . S
C1148 H1139 0.929 . S
C1148 C1140 1.378 . S
C1148 C1143 1.350 . S
C1149 H1136 0.929 1_455 S
C1149 C1141 1.433 . S
C1149 N1151 1.384 . S
N1150 C1146 1.427 . S
N1150 C1147 1.384 . S
N1151 C1143 1.427 . S
N1151 C1149 1.384 . S
H1152 C1158 0.930 . S
H1153 C1162 0.930 . S
H1154 C1167 0.929 . S
H1155 C1165 0.929 . S
H1156 C1160 0.929 . S
H1157 C1166 0.929 . S
C1158 H1152 0.930 . S
C1158 C1159 1.367 . S
C1158 C1166 1.378 . S
C1159 C1158 1.367 . S
C1159 C1167 1.433 . S
C1160 H1156 0.929 . S
C1160 C1162 1.378 . S
C1160 C1164 1.350 . S
C1161 C1164 1.463 . S
C1161 C1166 1.350 . S
C1161 N1169 1.427 . S
C1162 H1153 0.930 . S
C1162 C1160 1.378 . S
C1162 C1163 1.367 . S
C1163 C1162 1.367 . S
C1163 C1165 1.433 . S
C1164 C1160 1.350 . S
C1164 C1161 1.463 . S
C1164 N1168 1.427 . S
C1165 H1155 0.929 . S
C1165 C1163 1.433 . S
C1165 N1168 1.384 . S
C1166 H1157 0.929 . S
C1166 C1158 1.378 . S
C1166 C1161 1.350 . S
C1167 H1154 0.929 . S
C1167 C1159 1.433 . S
C1167 N1169 1.384 . S
N1168 C1164 1.427 . S
N1168 C1165 1.384 . S
N1169 C1161 1.427 . S
N1169 C1167 1.384 . S
H1170 C1176 0.930 . S
H1171 C1180 0.930 . S
H1172 C1185 0.929 1_455 S
H1173 C1183 0.929 . S
H1174 C1178 0.929 . S
H1175 C1184 0.929 . S
C1176 H1170 0.930 . S
C1176 C1177 1.367 1_554 S
C1176 C1184 1.378 1_554 S
C1177 C1176 1.367 1_556 S
C1177 C1185 1.433 . S
C1178 H1174 0.929 . S
C1178 C1180 1.378 . S
C1178 C1182 1.350 1_455 S
C1179 C1182 1.463 . S
C1179 C1184 1.350 . S
C1179 N1187 1.427 . S
C1180 H1171 0.930 . S
C1180 C1178 1.378 . S
C1180 C1181 1.367 1_455 S
C1181 C1180 1.367 1_655 S
C1181 C1183 1.433 . S
C1182 C1178 1.350 1_655 S
C1182 C1179 1.463 . S
C1182 N1186 1.427 . S
C1183 H1173 0.929 . S
C1183 C1181 1.433 . S
C1183 N1186 1.384 . S
C1184 H1175 0.929 . S
C1184 C1176 1.378 1_556 S
C1184 C1179 1.350 . S
C1185 H1172 0.929 1_655 S
C1185 C1177 1.433 . S
C1185 N1187 1.384 . S
N1186 C1182 1.427 . S
N1186 C1183 1.384 . S
N1187 C1179 1.427 . S
N1187 C1185 1.384 . S
H1188 C1194 0.930 . S
H1189 C1198 0.930 . S
H1190 C1203 0.929 . S
H1191 C1201 0.929 . S
H1192 C1196 0.929 . S
H1193 C1202 0.929 . S
C1194 H1188 0.930 . S
C1194 C1195 1.367 . S
C1194 C1202 1.378 . S
C1195 C1194 1.367 . S
C1195 C1203 1.433 . S
C1196 H1192 0.929 . S
C1196 C1198 1.378 . S
C1196 C1200 1.350 . S
C1197 C1200 1.463 . S
C1197 C1202 1.350 . S
C1197 N1205 1.427 . S
C1198 H1189 0.930 . S
C1198 C1196 1.378 . S
C1198 C1199 1.367 . S
C1199 C1198 1.367 . S
C1199 C1201 1.433 . S
C1200 C1196 1.350 . S
C1200 C1197 1.463 . S
C1200 N1204 1.427 . S
C1201 H1191 0.929 . S
C1201 C1199 1.433 . S
C1201 N1204 1.384 . S
C1202 H1193 0.929 . S
C1202 C1194 1.378 . S
C1202 C1197 1.350 . S
C1203 H1190 0.929 . S
C1203 C1195 1.433 . S
C1203 N1205 1.384 . S
N1204 C1200 1.427 . S
N1204 C1201 1.384 . S
N1205 C1197 1.427 . S
N1205 C1203 1.384 . S
H1206 C1212 0.930 . S
H1207 C1216 0.943 . S
H1208 C1221 0.929 . S
H1209 C1219 0.929 . S
H1210 C1214 0.929 . S
H1211 C1220 0.929 1_554 S
C1212 H1206 0.930 . S
C1212 C1213 1.362 1_554 S
C1212 C1220 1.378 1_554 S
C1213 C1212 1.362 1_556 S
C1213 C1221 1.446 . S
C1214 H1210 0.929 . S
C1214 C1216 1.378 . S
C1214 C1218 1.350 . S
C1215 C1218 1.463 . S
C1215 C1220 1.350 . S
C1215 N1223 1.427 . S
C1216 H1207 0.943 . S
C1216 C1214 1.378 . S
C1216 C1217 1.367 . S
C1217 C1216 1.367 . S
C1217 C1219 1.433 . S
C1218 C1214 1.350 . S
C1218 C1215 1.463 . S
C1218 N1222 1.427 . S
C1219 H1209 0.929 . S
C1219 C1217 1.433 . S
C1219 N1222 1.384 . S
C1220 H1211 0.929 1_556 S
C1220 C1212 1.378 1_556 S
C1220 C1215 1.350 . S
C1221 H1208 0.929 . S
C1221 C1213 1.446 . S
C1221 N1223 1.384 . S
N1222 C1218 1.427 . S
N1222 C1219 1.384 . S
N1223 C1215 1.427 . S
N1223 C1221 1.384 . S
H1224 C1230 0.930 . S
H1225 C1234 0.930 . S
H1226 C1239 0.929 . S
H1227 C1237 0.929 . S
H1228 C1232 0.929 . S
H1229 C1238 0.929 . S
C1230 H1224 0.930 . S
C1230 C1231 1.367 . S
C1230 C1238 1.378 . S
C1231 C1230 1.367 . S
C1231 C1239 1.433 . S
C1232 H1228 0.929 . S
C1232 C1234 1.378 . S
C1232 C1236 1.350 . S
C1233 C1236 1.463 . S
C1233 C1238 1.350 . S
C1233 N1241 1.427 . S
C1234 H1225 0.930 . S
C1234 C1232 1.378 . S
C1234 C1235 1.367 . S
C1235 C1234 1.367 . S
C1235 C1237 1.433 . S
C1236 C1232 1.350 . S
C1236 C1233 1.463 . S
C1236 N1240 1.427 . S
C1237 H1227 0.929 . S
C1237 C1235 1.433 . S
C1237 N1240 1.384 . S
C1238 H1229 0.929 . S
C1238 C1230 1.378 . S
C1238 C1233 1.350 . S
C1239 H1226 0.929 . S
C1239 C1231 1.433 . S
C1239 N1241 1.384 . S
N1240 C1236 1.427 . S
N1240 C1237 1.384 . S
N1241 C1233 1.427 . S
N1241 C1239 1.384 . S
H1242 C1248 0.930 . S
H1243 C1252 0.930 . S
H1244 C1257 0.929 . S
H1245 C1255 0.929 . S
H1246 C1250 0.929 . S
H1247 C1256 0.929 . S
C1248 H1242 0.930 . S
C1248 C1249 1.367 . S
C1248 C1256 1.378 . S
C1249 C1248 1.367 . S
C1249 C1257 1.433 1_554 S
C1250 H1246 0.929 . S
C1250 C1252 1.378 . S
C1250 C1254 1.350 . S
C1251 C1254 1.463 . S
C1251 C1256 1.350 . S
C1251 N1259 1.427 . S
C1252 H1243 0.930 . S
C1252 C1250 1.378 . S
C1252 C1253 1.367 . S
C1253 C1252 1.367 . S
C1253 C1255 1.433 . S
C1254 C1250 1.350 . S
C1254 C1251 1.463 . S
C1254 N1258 1.427 . S
C1255 H1245 0.929 . S
C1255 C1253 1.433 . S
C1255 N1258 1.384 . S
C1256 H1247 0.929 . S
C1256 C1248 1.378 . S
C1256 C1251 1.350 . S
C1257 H1244 0.929 . S
C1257 C1249 1.433 1_556 S
C1257 N1259 1.384 1_556 S
N1258 C1254 1.427 . S
N1258 C1255 1.384 . S
N1259 C1251 1.427 . S
N1259 C1257 1.384 1_554 S
H1260 C1266 0.930 . S
H1261 C1270 0.930 . S
H1262 C1275 0.929 . S
H1263 C1273 0.929 . S
H1264 C1268 0.929 . S
H1265 C1274 0.929 . S
C1266 H1260 0.930 . S
C1266 C1267 1.367 . S
C1266 C1274 1.378 . S
C1267 C1266 1.367 . S
C1267 C1275 1.433 . S
C1268 H1264 0.929 . S
C1268 C1270 1.378 . S
C1268 C1272 1.350 . S
C1269 C1272 1.463 . S
C1269 C1274 1.350 . S
C1269 N1277 1.427 . S
C1270 H1261 0.930 . S
C1270 C1268 1.378 . S
C1270 C1271 1.367 . S
C1271 C1270 1.367 . S
C1271 C1273 1.433 . S
C1272 C1268 1.350 . S
C1272 C1269 1.463 . S
C1272 N1276 1.427 . S
C1273 H1263 0.929 . S
C1273 C1271 1.433 . S
C1273 N1276 1.384 . S
C1274 H1265 0.929 . S
C1274 C1266 1.378 . S
C1274 C1269 1.350 . S
C1275 H1262 0.929 . S
C1275 C1267 1.433 . S
C1275 N1277 1.384 . S
N1276 C1272 1.427 . S
N1276 C1273 1.384 . S
N1277 C1269 1.427 . S
N1277 C1275 1.384 . S
H1278 C1284 0.930 1_556 S
H1279 C1288 0.930 . S
H1280 C1293 0.929 . S
H1281 C1291 0.929 . S
H1282 C1286 0.929 . S
H1283 C1292 0.929 . S
C1284 H1278 0.930 1_554 S
C1284 C1285 1.367 . S
C1284 C1292 1.378 . S
C1285 C1284 1.367 . S
C1285 C1293 1.433 . S
C1286 H1282 0.929 . S
C1286 C1288 1.378 . S
C1286 C1290 1.350 . S
C1287 C1290 1.463 . S
C1287 C1292 1.350 . S
C1287 N1295 1.427 . S
C1288 H1279 0.930 . S
C1288 C1286 1.378 . S
C1288 C1289 1.367 . S
C1289 C1288 1.367 . S
C1289 C1291 1.433 . S
C1290 C1286 1.350 . S
C1290 C1287 1.463 . S
C1290 N1294 1.427 . S
C1291 H1281 0.929 . S
C1291 C1289 1.433 . S
C1291 N1294 1.384 . S
C1292 H1283 0.929 . S
C1292 C1284 1.378 . S
C1292 C1287 1.350 . S
C1293 H1280 0.929 . S
C1293 C1285 1.433 . S
C1293 N1295 1.384 . S
N1294 C1290 1.427 . S
N1294 C1291 1.384 . S
N1295 C1287 1.427 . S
N1295 C1293 1.384 . S
H1296 C1302 0.930 . S
H1297 C1306 0.930 . S
H1298 C1311 0.929 . S
H1299 C1309 0.929 . S
H1300 C1304 0.929 . S
H1301 C1310 0.929 . S
C1302 H1296 0.930 . S
C1302 C1303 1.367 . S
C1302 C1310 1.378 . S
C1303 C1302 1.367 . S
C1303 C1311 1.433 . S
C1304 H1300 0.929 . S
C1304 C1306 1.378 . S
C1304 C1308 1.350 . S
C1305 C1308 1.463 . S
C1305 C1310 1.350 . S
C1305 N1313 1.427 . S
C1306 H1297 0.930 . S
C1306 C1304 1.378 . S
C1306 C1307 1.367 . S
C1307 C1306 1.367 . S
C1307 C1309 1.433 . S
C1308 C1304 1.350 . S
C1308 C1305 1.463 . S
C1308 N1312 1.427 . S
C1309 H1299 0.929 . S
C1309 C1307 1.433 . S
C1309 N1312 1.384 . S
C1310 H1301 0.929 . S
C1310 C1302 1.378 . S
C1310 C1305 1.350 . S
C1311 H1298 0.929 . S
C1311 C1303 1.433 . S
C1311 N1313 1.384 . S
N1312 C1308 1.427 . S
N1312 C1309 1.384 . S
N1313 C1305 1.427 . S
N1313 C1311 1.384 . S
H1314 C1320 0.930 . S
H1315 C1324 0.930 . S
H1316 C1329 0.929 . S
H1317 C1327 0.929 . S
H1318 C1322 0.929 . S
H1319 C1328 0.929 . S
C1320 H1314 0.930 . S
C1320 C1321 1.367 . S
C1320 C1328 1.378 . S
C1321 C1320 1.367 . S
C1321 C1329 1.433 . S
C1322 H1318 0.929 . S
C1322 C1324 1.378 . S
C1322 C1326 1.350 . S
C1323 C1326 1.463 . S
C1323 C1328 1.350 . S
C1323 N1331 1.427 . S
C1324 H1315 0.930 . S
C1324 C1322 1.378 . S
C1324 C1325 1.367 . S
C1325 C1324 1.367 . S
C1325 C1327 1.433 . S
C1326 C1322 1.350 . S
C1326 C1323 1.463 . S
C1326 N1330 1.427 . S
C1327 H1317 0.929 . S
C1327 C1325 1.433 . S
C1327 N1330 1.384 . S
C1328 H1319 0.929 . S
C1328 C1320 1.378 . S
C1328 C1323 1.350 . S
C1329 H1316 0.929 . S
C1329 C1321 1.433 . S
C1329 N1331 1.384 . S
N1330 C1326 1.427 . S
N1330 C1327 1.384 . S
N1331 C1323 1.427 . S
N1331 C1329 1.384 . S
H1332 C1338 0.930 . S
H1333 C1342 0.930 . S
H1334 C1347 0.929 . S
H1335 C1345 0.929 . S
H1336 C1340 0.929 . S
H1337 C1346 0.929 . S
C1338 H1332 0.930 . S
C1338 C1339 1.367 . S
C1338 C1346 1.378 . S
C1339 C1338 1.367 . S
C1339 C1347 1.433 . S
C1340 H1336 0.929 . S
C1340 C1342 1.378 . S
C1340 C1344 1.350 . S
C1341 C1344 1.463 . S
C1341 C1346 1.350 . S
C1341 N1349 1.427 . S
C1342 H1333 0.930 . S
C1342 C1340 1.378 . S
C1342 C1343 1.367 . S
C1343 C1342 1.367 . S
C1343 C1345 1.433 . S
C1344 C1340 1.350 . S
C1344 C1341 1.463 . S
C1344 N1348 1.427 . S
C1345 H1335 0.929 . S
C1345 C1343 1.433 . S
C1345 N1348 1.384 . S
C1346 H1337 0.929 . S
C1346 C1338 1.378 . S
C1346 C1341 1.350 . S
C1347 H1334 0.929 . S
C1347 C1339 1.433 . S
C1347 N1349 1.384 . S
N1348 C1344 1.427 . S
N1348 C1345 1.384 . S
N1349 C1341 1.427 . S
N1349 C1347 1.384 . S
H1350 C1356 0.930 . S
H1351 C1360 0.930 . S
H1352 C1365 0.929 . S
H1353 C1363 0.929 . S
H1354 C1358 0.929 . S
H1355 C1364 0.929 . S
C1356 H1350 0.930 . S
C1356 C1357 1.367 . S
C1356 C1364 1.378 . S
C1357 C1356 1.367 . S
C1357 C1365 1.433 . S
C1358 H1354 0.929 . S
C1358 C1360 1.378 . S
C1358 C1362 1.350 . S
C1359 C1362 1.463 . S
C1359 C1364 1.350 . S
C1359 N1367 1.427 . S
C1360 H1351 0.930 . S
C1360 C1358 1.378 . S
C1360 C1361 1.367 . S
C1361 C1360 1.367 . S
C1361 C1363 1.433 . S
C1362 C1358 1.350 . S
C1362 C1359 1.463 . S
C1362 N1366 1.427 . S
C1363 H1353 0.929 . S
C1363 C1361 1.433 . S
C1363 N1366 1.384 . S
C1364 H1355 0.929 . S
C1364 C1356 1.378 . S
C1364 C1359 1.350 . S
C1365 H1352 0.929 . S
C1365 C1357 1.433 . S
C1365 N1367 1.384 . S
N1366 C1362 1.427 . S
N1366 C1363 1.384 . S
N1367 C1359 1.427 . S
N1367 C1365 1.384 . S
H1368 C1374 0.930 . S
H1369 C1378 0.930 . S
H1370 C1383 0.908 1_554 S
H1371 C1381 0.929 . S
H1372 C1376 0.929 . S
H1373 C1382 0.929 . S
C1374 H1368 0.930 . S
C1374 C1375 1.367 . S
C1374 C1382 1.378 . S
C1375 C1374 1.367 . S
C1375 C1383 1.459 . S
C1376 H1372 0.929 . S
C1376 C1378 1.378 . S
C1376 C1380 1.350 1_554 S
C1377 C1380 1.463 . S
C1377 C1382 1.350 . S
C1377 N1385 1.427 1_556 S
C1378 H1369 0.930 . S
C1378 C1376 1.378 . S
C1378 C1379 1.367 1_554 S
C1379 C1378 1.367 1_556 S
C1379 C1381 1.433 . S
C1380 C1376 1.350 1_556 S
C1380 C1377 1.463 . S
C1380 N1384 1.427 . S
C1381 H1371 0.929 . S
C1381 C1379 1.433 . S
C1381 N1384 1.384 . S
C1382 H1373 0.929 . S
C1382 C1374 1.378 . S
C1382 C1377 1.350 . S
C1383 H1370 0.908 1_556 S
C1383 C1375 1.459 . S
C1383 N1385 1.381 1_556 S
N1384 C1380 1.427 . S
N1384 C1381 1.384 . S
N1385 C1377 1.427 1_554 S
N1385 C1383 1.381 1_554 S
H1386 C1392 0.930 . S
H1387 C1396 0.930 . S
H1388 C1401 0.929 . S
H1389 C1399 0.929 . S
H1390 C1394 0.929 . S
H1391 C1400 0.929 . S
C1392 H1386 0.930 . S
C1392 C1393 1.367 . S
C1392 C1400 1.378 . S
C1393 C1392 1.367 . S
C1393 C1401 1.433 . S
C1394 H1390 0.929 . S
C1394 C1396 1.378 . S
C1394 C1398 1.350 . S
C1395 C1398 1.463 . S
C1395 C1400 1.350 . S
C1395 N1403 1.427 . S
C1396 H1387 0.930 . S
C1396 C1394 1.378 . S
C1396 C1397 1.367 . S
C1397 C1396 1.367 . S
C1397 C1399 1.433 . S
C1398 C1394 1.350 . S
C1398 C1395 1.463 . S
C1398 N1402 1.427 . S
C1399 H1389 0.929 . S
C1399 C1397 1.433 . S
C1399 N1402 1.384 . S
C1400 H1391 0.929 . S
C1400 C1392 1.378 . S
C1400 C1395 1.350 . S
C1401 H1388 0.929 . S
C1401 C1393 1.433 . S
C1401 N1403 1.384 . S
N1402 C1398 1.427 . S
N1402 C1399 1.384 . S
N1403 C1395 1.427 . S
N1403 C1401 1.384 . S
H1404 C1410 0.930 . S
H1405 C1414 0.930 . S
H1406 C1419 0.929 . S
H1407 C1417 0.946 . S
H1408 C1412 0.929 . S
H1409 C1418 0.929 . S
C1410 H1404 0.930 . S
C1410 C1411 1.367 . S
C1410 C1418 1.378 . S
C1411 C1410 1.367 . S
C1411 C1419 1.433 . S
C1412 H1408 0.929 . S
C1412 C1414 1.378 . S
C1412 C1416 1.350 . S
C1413 C1416 1.463 . S
C1413 C1418 1.350 . S
C1413 N1421 1.427 . S
C1414 H1405 0.930 . S
C1414 C1412 1.378 . S
C1414 C1415 1.367 . S
C1415 C1414 1.367 . S
C1415 C1417 1.423 1_554 S
C1416 C1412 1.350 . S
C1416 C1413 1.463 . S
C1416 N1420 1.427 . S
C1417 H1407 0.946 . S
C1417 C1415 1.423 1_556 S
C1417 N1420 1.379 1_556 S
C1418 H1409 0.929 . S
C1418 C1410 1.378 . S
C1418 C1413 1.350 . S
C1419 H1406 0.929 . S
C1419 C1411 1.433 . S
C1419 N1421 1.384 . S
N1420 C1416 1.427 . S
N1420 C1417 1.379 1_554 S
N1421 C1413 1.427 . S
N1421 C1419 1.384 . S
H1422 C1428 0.930 1_546 S
H1423 C1432 0.930 . S
H1424 C1437 0.929 . S
H1425 C1435 0.929 . S
H1426 C1430 0.929 . S
H1427 C1436 0.908 1_556 S
C1428 H1422 0.930 1_564 S
C1428 C1429 1.367 . S
C1428 C1436 1.380 . S
C1429 C1428 1.367 . S
C1429 C1437 1.433 . S
C1430 H1426 0.929 . S
C1430 C1432 1.378 . S
C1430 C1434 1.350 . S
C1431 C1434 1.463 . S
C1431 C1436 1.368 . S
C1431 N1439 1.427 . S
C1432 H1423 0.930 . S
C1432 C1430 1.378 . S
C1432 C1433 1.367 . S
C1433 C1432 1.367 . S
C1433 C1435 1.433 1_554 S
C1434 C1430 1.350 . S
C1434 C1431 1.463 . S
C1434 N1438 1.427 1_554 S
C1435 H1425 0.929 . S
C1435 C1433 1.433 1_556 S
C1435 N1438 1.384 . S
C1436 H1427 0.908 1_554 S
C1436 C1428 1.380 . S
C1436 C1431 1.368 . S
C1437 H1424 0.929 . S
C1437 C1429 1.433 . S
C1437 N1439 1.384 . S
N1438 C1434 1.427 1_556 S
N1438 C1435 1.384 . S
N1439 C1431 1.427 . S
N1439 C1437 1.384 . S
C587 C146 1.434 . S
C583 C50 1.437 . S
C605 C194 1.581 . S
C601 C61 1.637 1_455 S
C619 C67 1.437 . S
C623 C230 1.367 . S
C641 C266 1.547 . S
C637 C41 1.591 . S
C659 C292 1.440 . S
C655 C95 1.438 . S
C677 C328 1.561 . S
C673 C113 1.562 . S
C691 C106 1.467 . S
C695 C363 1.475 . S
C713 C400 1.586 1_565 S
C709 C86 1.593 . S
C727 C104 1.429 . S
C731 C434 1.425 . S
C749 C482 1.530 . S
C745 C88 1.581 . S
C763 C94 1.436 . S
C767 C435 1.441 . S
C785 C472 1.579 . S
C781 C112 1.579 . S
C799 C70 1.456 . S
C803 C518 1.387 . S
C817 C40 1.605 . S
C821 C507 1.599 . S
C835 C49 1.475 . S
C839 C508 1.476 . S
C853 C59 1.629 . S
C857 C506 1.622 1_655 S
C871 C34 1.422 . S
C875 C254 1.416 . S
C889 C133 1.417 . S
C893 C255 1.427 . S
C911 C158 1.569 1_554 S
C907 C139 1.622 . S
C929 C183 1.474 . S
C925 C77 1.469 . S
C943 C43 1.595 1_545 S
C947 C290 1.592 . S
C965 C398 1.465 . S
C961 C103 1.467 . S
C983 C291 1.577 . S
C979 C85 1.585 1_545 S
C1001 C364 1.575 . S
C997 C115 1.577 . S
C1019 C362 1.431 . S
C1015 C131 1.435 . S
C1033 C142 1.636 . S
C1037 C410 1.590 . S
C1051 C76 1.437 . S
C1055 C302 1.373 . S
C1073 C338 1.542 . S
C1069 C122 1.591 . S
C1087 C32 1.442 . S
C1091 C220 1.444 . S
C1109 C256 1.560 . S
C1105 C5 1.575 . S
C1127 C147 1.476 . S
C1123 C16 1.472 . S
C1145 C184 1.592 . S
C1141 C23 1.593 1_455 S
C1159 C14 1.431 . S
C1163 C470 1.427 . S
C1177 C25 1.579 1_556 S
C1181 C446 1.537 . S
C1195 C31 1.432 . S
C1199 C471 1.443 . S
C1213 C4 1.569 1_556 S
C1217 C436 1.576 . S
C1235 C554 1.391 . S
C1231 C79 1.452 . S
C1253 C543 1.601 . S
C1249 C121 1.605 1_554 S
C1271 C544 1.477 . S
C1267 C130 1.476 . S
C1285 C140 1.627 1_554 S
C1289 C542 1.624 . S
C1303 C97 1.420 . S
C1307 C326 1.414 . S
C1325 C327 1.427 . S
C1321 C52 1.423 . S
C1343 C374 1.564 . S
C1339 C58 1.623 . S
C1361 C399 1.473 . S
C1357 C68 1.478 . S
C1375 C124 1.595 . S
C1379 C218 1.582 1_556 S
C1397 C182 1.465 . S
C1393 C13 1.471 . S
C1411 C22 1.585 . S
C1415 C219 1.577 . S
C1433 C148 1.576 . S
C1429 C7 1.578 1_565 S
