# Generated by pormake.
# Topology nom, (4,4)-cn, num edge types: 1
# Building blocks:
#     Node 0, Type 0, BuildingBlock: KUFVIS_clean_linker_0, # of connection points: 4
#     Node 1, Type 0, BuildingBlock: KUFVIS_clean_linker_0, # of connection points: 4
#     Node 2, Type 0, BuildingBlock: KUFVIS_clean_linker_0, # of connection points: 4
#     Node 3, Type 0, BuildingBlock: KUFVIS_clean_linker_0, # of connection points: 4
#     Node 4, Type 0, BuildingBlock: KUFVIS_clean_linker_0, # of connection points: 4
#     Node 5, Type 0, BuildingBlock: KUFVIS_clean_linker_0, # of connection points: 4
#     Node 6, Type 1, BuildingBlock: NAHDIM_clean_sbu_0, # of connection points: 4
#     Node 7, Type 1, BuildingBlock: NAHDIM_clean_sbu_0, # of connection points: 4
#     Node 8, Type 1, BuildingBlock: NAHDIM_clean_sbu_0, # of connection points: 4
#     Node 9, Type 1, BuildingBlock: NAHDIM_clean_sbu_0, # of connection points: 4
#     Node 10, Type 1, BuildingBlock: NAHDIM_clean_sbu_0, # of connection points: 4
#     Node 11, Type 1, BuildingBlock: NAHDIM_clean_sbu_0, # of connection points: 4
#     Edge 12, Type (0, 1), BuildingBlock: ZUJKAS_clean_linker_0, # of connection points: 2
#     Edge 13, Type (0, 1), BuildingBlock: ZUJKAS_clean_linker_0, # of connection points: 2
#     Edge 14, Type (0, 1), BuildingBlock: ZUJKAS_clean_linker_0, # of connection points: 2
#     Edge 15, Type (0, 1), BuildingBlock: ZUJKAS_clean_linker_0, # of connection points: 2
#     Edge 16, Type (0, 1), BuildingBlock: ZUJKAS_clean_linker_0, # of connection points: 2
#     Edge 17, Type (0, 1), BuildingBlock: ZUJKAS_clean_linker_0, # of connection points: 2
#     Edge 18, Type (0, 1), BuildingBlock: ZUJKAS_clean_linker_0, # of connection points: 2
#     Edge 19, Type (0, 1), BuildingBlock: ZUJKAS_clean_linker_0, # of connection points: 2
#     Edge 20, Type (0, 1), BuildingBlock: ZUJKAS_clean_linker_0, # of connection points: 2
#     Edge 21, Type (0, 1), BuildingBlock: ZUJKAS_clean_linker_0, # of connection points: 2
#     Edge 22, Type (0, 1), BuildingBlock: ZUJKAS_clean_linker_0, # of connection points: 2
#     Edge 23, Type (0, 1), BuildingBlock: ZUJKAS_clean_linker_0, # of connection points: 2
#     Edge 24, Type (0, 1), BuildingBlock: ZUJKAS_clean_linker_0, # of connection points: 2
#     Edge 25, Type (0, 1), BuildingBlock: ZUJKAS_clean_linker_0, # of connection points: 2
#     Edge 26, Type (0, 1), BuildingBlock: ZUJKAS_clean_linker_0, # of connection points: 2
#     Edge 27, Type (0, 1), BuildingBlock: ZUJKAS_clean_linker_0, # of connection points: 2
#     Edge 28, Type (0, 1), BuildingBlock: ZUJKAS_clean_linker_0, # of connection points: 2
#     Edge 29, Type (0, 1), BuildingBlock: ZUJKAS_clean_linker_0, # of connection points: 2
#     Edge 30, Type (0, 1), BuildingBlock: ZUJKAS_clean_linker_0, # of connection points: 2
#     Edge 31, Type (0, 1), BuildingBlock: ZUJKAS_clean_linker_0, # of connection points: 2
#     Edge 32, Type (0, 1), BuildingBlock: ZUJKAS_clean_linker_0, # of connection points: 2
#     Edge 33, Type (0, 1), BuildingBlock: ZUJKAS_clean_linker_0, # of connection points: 2
#     Edge 34, Type (0, 1), BuildingBlock: ZUJKAS_clean_linker_0, # of connection points: 2
#     Edge 35, Type (0, 1), BuildingBlock: ZUJKAS_clean_linker_0, # of connection points: 2
# Relax obj value: 0.021
# Max RMSD: 0.122
# Mean RMSD: 0.082
data_MOF--net-nom--node1-NAHDIM_clean_sbu_0--node2-KUFVIS_clean_linker_0--edge1-ZUJKAS_clean_linker_0
_symmetry_space_group_name_H-M    P1
_symmetry_Int_Tables_number       1
_symmetry_cell_setting            triclinic
loop_
_symmetry_equiv_pos_as_xyz
'x, y, z'
_cell_length_a     58.403735
_cell_length_b     59.953807
_cell_length_c     59.717898
_cell_angle_alpha  90.048994
_cell_angle_beta   90.515429
_cell_angle_gamma 120.89112
loop_
_atom_site_label
_atom_site_type_symbol
_atom_site_fract_x
_atom_site_fract_y
_atom_site_fract_z
_atom_type_partial_charge
H0 H 0.10374 0.57672 0.33075 0.0
H1 H 0.04208 0.56088 0.28276 0.0
H2 H 0.02195 0.53047 0.35005 0.0
H3 H 0.98613 0.53539 0.34228 0.0
H4 H 0.92299 0.48821 0.29597 0.0
H5 H 1.00418 0.52076 0.27556 0.0
C6 C 0.08269 0.56718 0.32644 0.0
C7 C 0.06368 0.55351 0.34288 0.0
C8 C 0.07507 0.56973 0.30476 0.0
C9 C 0.04782 0.55845 0.29946 0.0
C10 C 0.02816 0.54389 0.31562 0.0
C11 C 0.03649 0.54178 0.3374 0.0
C12 C 0.99906 0.52994 0.30971 0.0
C13 C 0.97991 0.52648 0.32585 0.0
C14 C 0.95253 0.51101 0.32101 0.0
C15 C 0.94418 0.4997 0.2998 0.0
C16 C 0.96268 0.5036 0.28327 0.0
C17 C 0.99007 0.51868 0.28823 0.0
H18 H 0.52331 0.10318 0.50425 0.0
H19 H 0.49278 0.04318 0.45415 0.0
H20 H 0.50663 0.02717 0.52205 0.0
H21 H 0.47018 0.98778 0.51344 0.0
H22 H 0.46498 0.93174 0.46609 0.0
H23 H 0.50299 0.01183 0.44704 0.0
C24 C 0.51569 0.08304 0.49964 0.0
C25 C 0.51491 0.06582 0.51581 0.0
C26 C 0.50812 0.07514 0.4774 0.0
C27 C 0.49916 0.04926 0.47128 0.0
C28 C 0.49797 0.03134 0.48735 0.0
C29 C 0.50645 0.04015 0.50954 0.0
C30 C 0.48827 1.00362 0.48116 0.0
C31 C 0.47475 0.98354 0.497 0.0
C32 C 0.4671 0.95779 0.49178 0.0
C33 C 0.47197 0.95185 0.47038 0.0
C34 C 0.48438 0.97108 0.45409 0.0
C35 C 0.49269 0.99698 0.45956 0.0
H36 H 0.54049 0.4541 0.62319 0.0
H37 H 0.50115 0.47396 0.67257 0.0
H38 H 0.5096 0.50252 0.60455 0.0
H39 H 0.47237 0.50217 0.61215 0.0
H40 H 0.45114 0.53983 0.66167 0.0
H41 H 0.50089 0.50986 0.68075 0.0
C42 C 0.53017 0.46417 0.62777 0.0
C43 C 0.52495 0.47761 0.61141 0.0
C44 C 0.52239 0.46353 0.64992 0.0
C45 C 0.5081 0.47571 0.65557 0.0
C46 C 0.50318 0.49016 0.63943 0.0
C47 C 0.51231 0.49127 0.61733 0.0
C48 C 0.48875 0.50404 0.64556 0.0
C49 C 0.474 0.50884 0.62925 0.0
C50 C 0.4613 0.52259 0.63486 0.0
C51 C 0.46171 0.52999 0.65711 0.0
C52 C 0.47531 0.52478 0.67365 0.0
C53 C 0.48954 0.51265 0.66781 0.0
H54 H 0.10336 0.54372 0.79567 0.0
H55 H 0.04181 0.49869 0.84282 0.0
H56 H 0.02169 0.50988 0.77535 0.0
H57 H 0.9846 0.47094 0.7824 0.0
H58 H 0.92314 0.45496 0.82945 0.0
H59 H 1.0049 0.50086 0.85031 0.0
C60 C 0.08233 0.53248 0.79975 0.0
C61 C 0.06331 0.52759 0.78313 0.0
C62 C 0.07476 0.52241 0.82131 0.0
C63 C 0.04749 0.50684 0.82622 0.0
C64 C 0.02778 0.50224 0.80986 0.0
C65 C 0.03612 0.51262 0.7882 0.0
C66 C 0.99873 0.48784 0.81557 0.0
C67 C 0.97898 0.47328 0.79907 0.0
C68 C 0.95176 0.46204 0.80389 0.0
C69 C 0.94418 0.46435 0.8255 0.0
C70 C 0.96322 0.47782 0.84232 0.0
C71 C 0.99042 0.48963 0.83734 0.0
H72 H 0.47304 0.92687 -0.00049 0.0
H73 H 0.52521 0.98492 0.9532 0.0
H74 H 0.51528 1.00679 0.02 0.0
H75 H 0.5573 0.03973 0.01395 0.0
H76 H 0.58964 0.10045 0.96518 0.0
H77 H 0.52909 0.02374 0.94512 0.0
C78 C 0.48628 0.9472 0.9955 0.0
C79 C 0.49307 0.96609 0.01213 0.0
C80 C 0.49758 0.95389 0.97423 0.0
C81 C 0.51595 0.98007 0.9695 0.0
C82 C 0.52235 0.99975 0.9857 0.0
C83 C 0.51084 0.99233 0.00715 0.0
C84 C 0.54099 0.0278 0.9802 0.0
C85 C 0.55758 0.04588 0.99687 0.0
C86 C 0.57516 0.07208 0.99149 0.0
C87 C 0.57651 0.08014 0.96932 0.0
C88 C 0.56021 0.06277 0.95258 0.0
C89 C 0.54216 0.03679 0.95812 0.0
H90 H 0.509 0.59728 0.12456 0.0
H91 H 0.53664 0.56631 0.17576 0.0
H92 H 0.52271 0.53567 0.1081 0.0
H93 H 0.55878 0.53196 0.11753 0.0
H94 H 0.56007 0.4795 0.16545 0.0
H95 H 0.52443 0.5241 0.18315 0.0
C96 C 0.51583 0.58425 0.12956 0.0
C97 C 0.51599 0.56716 0.11372 0.0
C98 C 0.52281 0.58379 0.15197 0.0
C99 C 0.53071 0.56617 0.15851 0.0
C100 C 0.53138 0.54888 0.1427 0.0
C101 C 0.52338 0.5493 0.12039 0.0
C102 C 0.53993 0.53013 0.1493 0.0
C103 C 0.5534 0.523 0.13388 0.0
C104 C 0.56006 0.50425 0.13944 0.0
C105 C 0.55396 0.49318 0.16074 0.0
C106 C 0.54163 0.50062 0.17659 0.0
C107 C 0.53452 0.51897 0.17087 0.0
C108 C 0.61968 0.33419 0.41295 0.0
O109 O 0.63251 0.34886 0.43038 0.0
O110 O 0.67514 0.40108 0.38904 0.0
Zn111 Zn 0.63515 0.38406 0.39334 0.0
O112 O 0.62662 0.39773 0.42112 0.0
C113 C 0.63245 0.41178 0.35453 0.0
O114 O 0.6584 0.42584 0.35769 0.0
O115 O 0.61822 0.34495 0.39509 0.0
C116 C 0.62919 0.42013 0.42055 0.0
O117 O 0.63865 0.43421 0.40241 0.0
C118 C 0.69267 0.41625 0.40323 0.0
O119 O 0.68497 0.42111 0.42228 0.0
O120 O 0.61865 0.3925 0.36723 0.0
C121 C 0.31994 0.69789 0.5626 0.0
O122 O 0.33353 0.68595 0.56293 0.0
O123 O 0.29807 0.6304 0.56561 0.0
Zn124 Zn 0.27358 0.64506 0.56425 0.0
O125 O 0.24914 0.63133 0.53723 0.0
C126 C 0.23038 0.61058 0.59254 0.0
O127 O 0.22641 0.59421 0.57624 0.0
O128 O 0.29459 0.68445 0.56312 0.0
C129 C 0.2292 0.63447 0.53684 0.0
O130 O 0.22622 0.64722 0.55336 0.0
C131 C 0.29193 0.60867 0.55679 0.0
O132 O 0.26903 0.59522 0.54606 0.0
O133 O 0.25015 0.63372 0.59151 0.0
C134 C 0.62906 0.31504 0.72857 0.0
O135 O 0.65435 0.32596 0.7233 0.0
O136 O 0.67422 0.29231 0.73884 0.0
Zn137 Zn 0.63395 0.2696 0.73568 0.0
O138 O 0.6235 0.24705 0.70798 0.0
C139 C 0.63375 0.23811 0.77234 0.0
O140 O 0.65905 0.24884 0.76713 0.0
O141 O 0.61645 0.29134 0.73451 0.0
C142 C 0.63142 0.23105 0.70529 0.0
O143 O 0.648 0.23061 0.72004 0.0
C144 C 0.69033 0.29882 0.72259 0.0
O145 O 0.68082 0.29112 0.70222 0.0
O146 O 0.61927 0.24478 0.76171 0.0
C147 C 0.39718 0.69648 0.90216 0.0
O148 O 0.37207 0.68161 0.90781 0.0
O149 O 0.35218 0.63007 0.89024 0.0
Zn150 Zn 0.39248 0.64673 0.89274 0.0
O151 O 0.40274 0.63364 0.92009 0.0
C152 C 0.39329 0.6185 0.85327 0.0
O153 O 0.36767 0.60371 0.85722 0.0
O154 O 0.40993 0.6859 0.89522 0.0
C155 C 0.40505 0.6137 0.91869 0.0
O156 O 0.39962 0.60108 0.89956 0.0
C157 C 0.33563 0.60795 0.89833 0.0
O158 O 0.34461 0.59463 0.90875 0.0
O159 O 0.40736 0.63827 0.86568 0.0
C160 C 0.71893 0.39997 0.08037 0.0
O161 O 0.72209 0.38873 0.09804 0.0
O162 O 0.72828 0.34355 0.0574 0.0
Zn163 Zn 0.75196 0.38263 0.06055 0.0
O164 O 0.77554 0.39219 0.08805 0.0
C165 C 0.79585 0.39293 0.03271 0.0
O166 O 0.79899 0.3793 0.04836 0.0
O167 O 0.72972 0.39963 0.06208 0.0
C168 C 0.79499 0.41544 0.08991 0.0
O169 O 0.7983 0.43231 0.07436 0.0
C170 C 0.72283 0.32793 0.07364 0.0
O171 O 0.73258 0.3373 0.09365 0.0
O172 O 0.77628 0.39657 0.03395 0.0
C173 C 0.41286 0.73392 0.21507 0.0
O174 O 0.40124 0.73661 0.19719 0.0
O175 O 0.3534 0.7402 0.23816 0.0
Zn176 Zn 0.39309 0.76473 0.23415 0.0
O177 O 0.39974 0.78525 0.20573 0.0
C178 C 0.40019 0.78864 0.27891 0.0
O179 O 0.3805 0.76589 0.28529 0.0
O180 O 0.41212 0.74442 0.23335 0.0
C181 C 0.4227 0.80545 0.20353 0.0
O182 O 0.44103 0.81082 0.21896 0.0
C183 C 0.33672 0.74724 0.23361 0.0
O184 O 0.34557 0.77095 0.22636 0.0
O185 O 0.40823 0.79157 0.25885 0.0
H186 H 0.08359 0.61219 0.28077 0.0
H187 H 0.12446 0.64255 0.26062 0.0
H188 H 0.15598 0.5925 0.27322 0.0
H189 H 0.1153 0.56221 0.29291 0.0
H190 H 0.17316 0.66767 0.28168 0.0
H191 H 0.17822 0.61319 0.20913 0.0
H192 H 0.14763 0.60288 0.22406 0.0
H193 H 0.17172 0.59513 0.23456 0.0
C194 C 0.09888 0.6073 0.27846 0.0
C195 C 0.09635 0.5849 0.28833 0.0
C196 C 0.12226 0.62469 0.2671 0.0
C197 C 0.14323 0.61971 0.26521 0.0
C198 C 0.13994 0.59655 0.27398 0.0
H199 H 0.31166 0.69683 0.24807 0.0
H200 H 0.26385 0.66722 0.25363 0.0
C201 C 0.11673 0.5793 0.28535 0.0
C202 C 0.16982 0.63997 0.25694 0.0
H203 H 0.2203 0.64928 0.22242 0.0
C204 C 0.18328 0.66389 0.26839 0.0
C205 C 0.18309 0.63495 0.23971 0.0
C206 C 0.16929 0.61023 0.22602 0.0
C207 C 0.21007 0.68232 0.26391 0.0
C208 C 0.22365 0.67685 0.24729 0.0
C209 C 0.20991 0.65337 0.23525 0.0
C210 C 0.25248 0.69471 0.24299 0.0
C211 C 0.22402 0.70694 0.27777 0.0
C212 C 0.26192 0.71989 0.23489 0.0
C213 C 0.28926 0.73691 0.23175 0.0
C214 C 0.30768 0.72902 0.23656 0.0
C215 C 0.29807 0.70359 0.24428 0.0
C216 C 0.27073 0.6866 0.2474 0.0
H217 H 0.21244 0.70578 0.29284 0.0
H218 H 0.24409 0.71116 0.28324 0.0
H219 H 0.22666 0.72348 0.26748 0.0
H220 H 0.24814 0.72641 0.23105 0.0
H221 H 0.29593 0.75628 0.22563 0.0
H222 H 0.48913 0.10797 0.48026 0.0
H223 H 0.50483 0.1482 0.4596 0.0
H224 H 0.55125 0.12846 0.41708 0.0
H225 H 0.53596 0.08821 0.43828 0.0
H226 H 0.58167 0.17471 0.43616 0.0
H227 H 0.49323 0.17269 0.40062 0.0
H228 H 0.48828 0.1644 0.4297 0.0
H229 H 0.49219 0.14362 0.41022 0.0
C230 C 0.50197 0.11179 0.46601 0.0
C231 C 0.5114 0.09504 0.4609 0.0
C232 C 0.51083 0.13476 0.45409 0.0
C233 C 0.5291 0.14137 0.43662 0.0
C234 C 0.53705 0.12372 0.43041 0.0
H235 H 0.59245 0.29797 0.37982 0.0
H236 H 0.57156 0.25064 0.38228 0.0
C237 C 0.52815 0.10064 0.4424 0.0
C238 C 0.54279 0.16823 0.42751 0.0
H239 H 0.53131 0.2157 0.40936 0.0
C240 C 0.57067 0.18349 0.42983 0.0
C241 C 0.52861 0.17977 0.41899 0.0
C242 C 0.49895 0.16413 0.41452 0.0
C243 C 0.58449 0.21022 0.42525 0.0
C244 C 0.57001 0.22218 0.41864 0.0
C245 C 0.54237 0.20665 0.41485 0.0
C246 C 0.58296 0.25089 0.41688 0.0
C247 C 0.61446 0.22546 0.42792 0.0
C248 C 0.59597 0.26674 0.4356 0.0
C249 C 0.60796 0.29374 0.43426 0.0
C250 C 0.60699 0.3055 0.4142 0.0
C251 C 0.59365 0.28956 0.39551 0.0
C252 C 0.58168 0.2625 0.39688 0.0
H253 H 0.62301 0.21279 0.42572 0.0
H254 H 0.62383 0.24158 0.41568 0.0
H255 H 0.61976 0.23387 0.44506 0.0
H256 H 0.59664 0.2582 0.45139 0.0
H257 H 0.61785 0.30535 0.44903 0.0
H258 H 0.42073 0.49038 0.60604 0.0
H259 H 0.39241 0.50168 0.58385 0.0
H260 H 0.44143 0.58168 0.60496 0.0
H261 H 0.46971 0.57057 0.62664 0.0
H262 H 0.3636 0.52079 0.6029 0.0
H263 H 0.43011 0.59053 0.53963 0.0
H264 H 0.43834 0.56931 0.55453 0.0
H265 H 0.44485 0.5994 0.56707 0.0
C266 C 0.42587 0.51048 0.60525 0.0
C267 C 0.44734 0.52963 0.61799 0.0
C268 C 0.40966 0.5169 0.59271 0.0
C269 C 0.41496 0.5426 0.59252 0.0
C270 C 0.43725 0.56187 0.60437 0.0
H271 H 0.34126 0.63198 0.57691 0.0
H272 H 0.36993 0.61375 0.58259 0.0
C273 C 0.4533 0.55547 0.6169 0.0
C274 C 0.39564 0.54899 0.58254 0.0
H275 H 0.39199 0.59401 0.55009 0.0
C276 C 0.36959 0.53637 0.59094 0.0
C277 C 0.4035 0.56942 0.567 0.0
C278 C 0.43066 0.58274 0.55638 0.0
C279 C 0.35174 0.54468 0.58531 0.0
C280 C 0.3601 0.56596 0.57066 0.0
C281 C 0.38571 0.57782 0.56145 0.0
C282 C 0.34315 0.57724 0.56594 0.0
C283 C 0.32461 0.53155 0.59602 0.0
C284 C 0.31877 0.56291 0.55436 0.0
C285 C 0.3023 0.57326 0.55109 0.0
C286 C 0.30993 0.59817 0.55933 0.0
C287 C 0.33469 0.6127 0.57044 0.0
C288 C 0.35115 0.60235 0.57365 0.0
H289 H 0.32302 0.51852 0.6099 0.0
H290 H 0.32018 0.54623 0.60264 0.0
H291 H 0.30915 0.51969 0.58323 0.0
H292 H 0.3124 0.54363 0.54801 0.0
H293 H 0.28344 0.56159 0.54235 0.0
H294 H 0.94347 0.42092 0.77766 0.0
H295 H 0.90325 0.3923 0.75523 0.0
H296 H 0.87157 0.44153 0.77063 0.0
H297 H 0.91161 0.47014 0.79252 0.0
H298 H 0.8539 0.3653 0.77311 0.0
H299 H 0.852 0.42667 0.70522 0.0
H300 H 0.88191 0.43551 0.72122 0.0
H301 H 0.85754 0.44264 0.7318 0.0
C302 C 0.92826 0.42601 0.77556 0.0
C303 C 0.93055 0.44766 0.7868 0.0
C304 C 0.90527 0.40962 0.76288 0.0
C305 C 0.88448 0.4149 0.76104 0.0
C306 C 0.88751 0.43732 0.77133 0.0
H307 H 0.71635 0.31836 0.76254 0.0
H308 H 0.76439 0.34454 0.76936 0.0
C309 C 0.91032 0.45356 0.784 0.0
C310 C 0.85824 0.39561 0.75101 0.0
H311 H 0.80884 0.39065 0.71653 0.0
C312 C 0.84426 0.37067 0.76038 0.0
C313 C 0.84569 0.40241 0.73421 0.0
C314 C 0.86022 0.42819 0.72238 0.0
C315 C 0.81756 0.35301 0.75448 0.0
C316 C 0.80433 0.36068 0.73912 0.0
C317 C 0.81882 0.38493 0.72862 0.0
C318 C 0.77516 0.34448 0.73477 0.0
C319 C 0.80365 0.32646 0.76507 0.0
C320 C 0.76515 0.33637 0.71295 0.0
C321 C 0.7376 0.32154 0.70895 0.0
C322 C 0.71953 0.31471 0.7267 0.0
C323 C 0.72966 0.32312 0.7485 0.0
C324 C 0.75716 0.33794 0.75246 0.0
H325 H 0.81815 0.32066 0.77033 0.0
H326 H 0.79305 0.32691 0.78024 0.0
H327 H 0.78881 0.31148 0.75339 0.0
H328 H 0.77868 0.3414 0.69903 0.0
H329 H 0.73048 0.31544 0.69195 0.0
H330 H 0.5315 0.94372 0.95105 0.0
H331 H 0.51942 0.90369 0.9302 0.0
H332 H 0.43607 0.87589 0.94093 0.0
H333 H 0.44802 0.91576 0.96133 0.0
H334 H 0.49306 0.85585 0.95 0.0
H335 H 0.43484 0.85504 0.8763 0.0
H336 H 0.45645 0.88432 0.89208 0.0
H337 H 0.42317 0.86188 0.90157 0.0
C338 C 0.51061 0.92942 0.94822 0.0
C339 C 0.49067 0.93277 0.95776 0.0
C340 C 0.50373 0.90652 0.93645 0.0
C341 C 0.47682 0.88688 0.9338 0.0
C342 C 0.45692 0.89094 0.9423 0.0
H343 H 0.37511 0.72485 0.91557 0.0
H344 H 0.3973 0.77192 0.92055 0.0
C345 C 0.46376 0.91366 0.9541 0.0
C346 C 0.46937 0.86083 0.92491 0.0
H347 H 0.42589 0.81297 0.88909 0.0
C348 C 0.47885 0.84664 0.93633 0.0
C349 C 0.45075 0.84881 0.90714 0.0
C350 C 0.44094 0.86342 0.89343 0.0
C351 C 0.46897 0.82031 0.9314 0.0
C352 C 0.44937 0.80795 0.91436 0.0
C353 C 0.4408 0.82245 0.90224 0.0
C354 C 0.43605 0.77957 0.91011 0.0
C355 C 0.47847 0.80554 0.94529 0.0
C356 C 0.4504 0.76827 0.90227 0.0
C357 C 0.43777 0.74129 0.89944 0.0
C358 C 0.41052 0.72515 0.90435 0.0
C359 C 0.39613 0.73665 0.91172 0.0
C360 C 0.40875 0.76358 0.91451 0.0
H361 H 0.48997 0.81669 0.96036 0.0
H362 H 0.4613 0.78667 0.95077 0.0
H363 H 0.4916 0.80138 0.93502 0.0
H364 H 0.4714 0.78031 0.89848 0.0
H365 H 0.44941 0.73309 0.89361 0.0
H366 H 0.60613 0.53602 0.11679 0.0
H367 H 0.63467 0.52293 0.09791 0.0
H368 H 0.57601 0.44239 0.10972 0.0
H369 H 0.54741 0.45532 0.128 0.0
H370 H 0.65579 0.49822 0.1196 0.0
H371 H 0.59799 0.43812 0.04691 0.0
H372 H 0.5897 0.45967 0.06104 0.0
H373 H 0.57833 0.42761 0.0718 0.0
C374 C 0.59898 0.51552 0.11458 0.0
C375 C 0.57462 0.49667 0.12388 0.0
C376 C 0.61533 0.50806 0.10393 0.0
C377 C 0.60741 0.48165 0.1022 0.0
C378 C 0.58236 0.46283 0.11036 0.0
H379 H 0.69396 0.40439 0.11708 0.0
H380 H 0.669 0.42672 0.12001 0.0
C381 C 0.5661 0.47025 0.12099 0.0
C382 C 0.62645 0.4737 0.09486 0.0
H383 H 0.63103 0.42915 0.06249 0.0
C384 C 0.65061 0.4835 0.10678 0.0
C385 C 0.61991 0.45469 0.07798 0.0
C386 C 0.59518 0.44464 0.06355 0.0
C387 C 0.66755 0.4737 0.10325 0.0
C388 C 0.65992 0.45321 0.08768 0.0
C389 C 0.63664 0.44455 0.07472 0.0
C390 C 0.67504 0.43958 0.08558 0.0
C391 C 0.69327 0.4851 0.11654 0.0
C392 C 0.68607 0.43871 0.06505 0.0
C393 C 0.70028 0.42578 0.06327 0.0
C394 C 0.70352 0.41332 0.08196 0.0
C395 C 0.69203 0.4139 0.10238 0.0
C396 C 0.67788 0.42682 0.10414 0.0
H397 H 0.70011 0.50527 0.12216 0.0
H398 H 0.69 0.47315 0.13168 0.0
H399 H 0.70932 0.48527 0.10657 0.0
H400 H 0.68392 0.44825 0.05047 0.0
H401 H 0.7088 0.42563 0.04727 0.0
H402 H 0.48146 0.92335 0.50485 0.0
H403 H 0.45403 0.88243 0.52459 0.0
H404 H 0.39342 0.90216 0.53435 0.0
H405 H 0.42092 0.94328 0.51434 0.0
H406 H 0.42824 0.86804 0.56776 0.0
H407 H 0.35703 0.83468 0.49545 0.0
H408 H 0.38998 0.86316 0.49401 0.0
H409 H 0.36425 0.86432 0.50923 0.0
C410 C 0.46255 0.91921 0.51168 0.0
C411 C 0.45317 0.93632 0.50797 0.0
C412 C 0.44692 0.89587 0.52295 0.0
C413 C 0.42154 0.88909 0.5306 0.0
C414 C 0.41285 0.90694 0.52832 0.0
H415 H 0.29813 0.72893 0.56278 0.0
H416 H 0.32134 0.77619 0.55852 0.0
C417 C 0.42862 0.93047 0.5171 0.0
C418 C 0.40352 0.86234 0.53884 0.0
H419 H 0.34974 0.80401 0.52295 0.0
C420 C 0.41084 0.85409 0.55817 0.0
C421 C 0.38086 0.84418 0.52626 0.0
C422 C 0.37252 0.85183 0.50499 0.0
C423 C 0.39642 0.828 0.56499 0.0
C424 C 0.37451 0.8096 0.55181 0.0
C425 C 0.36656 0.8181 0.53301 0.0
C426 C 0.36067 0.78123 0.55622 0.0
C427 C 0.40494 0.82041 0.58616 0.0
C428 C 0.37503 0.76829 0.55623 0.0
C429 C 0.36185 0.74131 0.5587 0.0
C430 C 0.33396 0.72662 0.56096 0.0
C431 C 0.31962 0.73964 0.56108 0.0
C432 C 0.33285 0.76666 0.55868 0.0
H433 H 0.41546 0.83717 0.59788 0.0
H434 H 0.38759 0.80434 0.59486 0.0
H435 H 0.41899 0.81381 0.58187 0.0
H436 H 0.3964 0.77897 0.55373 0.0
H437 H 0.37351 0.73193 0.5584 0.0
H438 H 0.57207 0.47321 0.65916 0.0
H439 H 0.58446 0.44654 0.68105 0.0
H440 H 0.50237 0.39677 0.70016 0.0
H441 H 0.48979 0.42351 0.67789 0.0
H442 H 0.57789 0.42999 0.72646 0.0
H443 H 0.52113 0.34806 0.66626 0.0
H444 H 0.52855 0.3806 0.66036 0.0
H445 H 0.50305 0.3609 0.68004 0.0
C446 C 0.55674 0.45685 0.66838 0.0
C447 C 0.52996 0.45023 0.66673 0.0
C448 C 0.56384 0.44167 0.6809 0.0
C449 C 0.54429 0.41945 0.69192 0.0
C450 C 0.5177 0.41366 0.6915 0.0
H451 H 0.57636 0.29805 0.73645 0.0
H452 H 0.55344 0.32239 0.73165 0.0
C453 C 0.51057 0.42902 0.67899 0.0
C454 C 0.5519 0.40154 0.70206 0.0
H455 H 0.54835 0.34363 0.69265 0.0
C456 C 0.5711 0.41091 0.71935 0.0
C457 C 0.54303 0.37666 0.69274 0.0
C458 C 0.52293 0.36588 0.67373 0.0
C459 C 0.58235 0.39646 0.72703 0.0
C460 C 0.57458 0.37223 0.71683 0.0
C461 C 0.55435 0.36225 0.70039 0.0
C462 C 0.58872 0.35801 0.72149 0.0
C463 C 0.60281 0.40749 0.74573 0.0
C464 C 0.61613 0.36988 0.71725 0.0
C465 C 0.62926 0.35605 0.71994 0.0
C466 C 0.61523 0.32995 0.72677 0.0
C467 C 0.58779 0.31813 0.73121 0.0
C468 C 0.57465 0.33201 0.72849 0.0
H469 H 0.60001 0.42104 0.75646 0.0
H470 H 0.6018 0.39185 0.75639 0.0
H471 H 0.62305 0.4186 0.73845 0.0
H472 H 0.62728 0.38969 0.71127 0.0
H473 H 0.65036 0.36574 0.71628 0.0
H474 H 0.1167 0.56997 0.83216 0.0
H475 H 0.15694 0.57971 0.85299 0.0
H476 H 0.12155 0.4986 0.86945 0.0
H477 H 0.08124 0.48861 0.84788 0.0
H478 H 0.16974 0.57303 0.89574 0.0
H479 H 0.18755 0.51323 0.83488 0.0
H480 H 0.16205 0.52126 0.83041 0.0
H481 H 0.15686 0.49644 0.85006 0.0
C482 C 0.11732 0.55425 0.84052 0.0
C483 C 0.09606 0.52848 0.83813 0.0
C484 C 0.1403 0.55985 0.85247 0.0
C485 C 0.14253 0.53982 0.86233 0.0
C486 C 0.12048 0.51428 0.86153 0.0
H487 H 0.2951 0.55898 0.9087 0.0
H488 H 0.24708 0.54073 0.90325 0.0
C489 C 0.09736 0.50863 0.84946 0.0
C490 C 0.1688 0.54585 0.87161 0.0
H491 H 0.22125 0.5372 0.8614 0.0
C492 C 0.18086 0.56493 0.88845 0.0
C493 C 0.18339 0.53536 0.862 0.0
C494 C 0.17199 0.51559 0.84322 0.0
C495 C 0.20732 0.57434 0.89546 0.0
C496 C 0.22216 0.56457 0.88522 0.0
C497 C 0.20977 0.54465 0.86917 0.0
C498 C 0.25109 0.576 0.88972 0.0
C499 C 0.21934 0.59497 0.91348 0.0
C500 C 0.26926 0.6018 0.88372 0.0
C501 C 0.29669 0.61224 0.88664 0.0
C502 C 0.30651 0.59706 0.89564 0.0
C503 C 0.28822 0.57124 0.90178 0.0
C504 C 0.26077 0.56076 0.8987 0.0
H505 H 0.20371 0.59523 0.92375 0.0
H506 H 0.23277 0.59193 0.92468 0.0
H507 H 0.2313 0.61431 0.90555 0.0
H508 H 0.26222 0.61374 0.87635 0.0
H509 H 0.3102 0.63217 0.88171 0.0
H510 H 0.62832 0.10771 0.99076 0.0
H511 H 0.65213 0.1472 0.01341 0.0
H512 H 0.58193 0.12186 0.05341 0.0
H513 H 0.55777 0.08233 0.03033 0.0
H514 H 0.59967 0.16931 0.03568 0.0
H515 H 0.68505 0.16847 0.07513 0.0
H516 H 0.68312 0.16165 0.04571 0.0
H517 H 0.65657 0.13946 0.06372 0.0
C518 C 0.61823 0.11019 0.00483 0.0
C519 C 0.5912 0.09202 0.00877 0.0
C520 C 0.63191 0.13271 0.01787 0.0
C521 C 0.61892 0.13747 0.03526 0.0
C522 C 0.5924 0.11852 0.04017 0.0
H523 H 0.70838 0.28903 0.10432 0.0
H524 H 0.68122 0.24203 0.09785 0.0
C525 C 0.57868 0.09587 0.0271 0.0
C526 C 0.63185 0.16367 0.04584 0.0
H527 H 0.69056 0.21102 0.06917 0.0
C528 C 0.61933 0.17824 0.04342 0.0
C529 C 0.65738 0.17534 0.05614 0.0
C530 C 0.67117 0.16029 0.06054 0.0
C531 C 0.63226 0.20453 0.04979 0.0
C532 C 0.65861 0.21672 0.05845 0.0
C533 C 0.67052 0.20178 0.06217 0.0
C534 C 0.6746 0.2452 0.06259 0.0
C535 C 0.61771 0.2191 0.04683 0.0
C536 C 0.68016 0.26257 0.04488 0.0
C537 C 0.69563 0.2894 0.0485 0.0
C538 C 0.70606 0.29944 0.06992 0.0
C539 C 0.7006 0.28198 0.08763 0.0
C540 C 0.6851 0.2551 0.08397 0.0
H541 H 0.59573 0.2057 0.04677 0.0
H542 H 0.62314 0.2338 0.06032 0.0
H543 H 0.62322 0.22931 0.03052 0.0
H544 H 0.67276 0.25536 0.02813 0.0
H545 H 0.69956 0.30224 0.03444 0.0
H546 H 0.49526 0.56994 0.19131 0.0
H547 H 0.47999 0.59538 0.21185 0.0
H548 H 0.5266 0.66072 0.16865 0.0
H549 H 0.54241 0.63574 0.14865 0.0
H550 H 0.52424 0.67617 0.21179 0.0
H551 H 0.42331 0.60352 0.17882 0.0
H552 H 0.43887 0.59101 0.1968 0.0
H553 H 0.45302 0.6041 0.16995 0.0
C554 C 0.503 0.59005 0.18681 0.0
C555 C 0.51972 0.60079 0.16822 0.0
C556 C 0.49403 0.60446 0.19835 0.0
C557 C 0.50156 0.6297 0.19136 0.0
C558 C 0.52033 0.64123 0.17424 0.0
H559 H 0.41976 0.71142 0.17806 0.0
H560 H 0.44154 0.68602 0.17569 0.0
C561 C 0.52933 0.62693 0.1628 0.0
C562 C 0.48776 0.6431 0.19962 0.0
H563 H 0.42776 0.64009 0.19703 0.0
C564 C 0.50306 0.66815 0.20892 0.0
C565 C 0.46017 0.63275 0.19551 0.0
C566 C 0.44283 0.60648 0.18457 0.0
C567 C 0.49171 0.68344 0.21354 0.0
C568 C 0.46425 0.67322 0.20903 0.0
C569 C 0.44878 0.64784 0.20052 0.0
C570 C 0.45158 0.6892 0.21098 0.0
C571 C 0.50948 0.71085 0.22209 0.0
C572 C 0.44989 0.69943 0.23165 0.0
C573 C 0.43748 0.71413 0.23305 0.0
C574 C 0.42638 0.71869 0.21382 0.0
C575 C 0.42807 0.70832 0.1932 0.0
C576 C 0.4405 0.69374 0.19182 0.0
H577 H 0.53098 0.71743 0.22053 0.0
H578 H 0.50545 0.72456 0.21283 0.0
H579 H 0.5053 0.71178 0.24004 0.0
H580 H 0.45787 0.69579 0.24672 0.0
H581 H 0.43641 0.72173 0.24921 0.0
H582 H 0.941 0.54579 0.33935 0.0
H583 H 0.90039 0.5353 0.36 0.0
H584 H 0.87631 0.45417 0.35923 0.0
H585 H 0.91663 0.46463 0.33868 0.0
H586 H 0.8498 0.50276 0.34149 0.0
H587 H 0.85884 0.46453 0.42328 0.0
H588 H 0.88729 0.48444 0.40585 0.0
H589 H 0.86628 0.45021 0.40016 0.0
C590 C 0.92744 0.5259 0.34435 0.0
C591 C 0.93191 0.50601 0.33769 0.0
C592 C 0.90423 0.51989 0.35598 0.0
C593 C 0.88545 0.49397 0.36136 0.0
C594 C 0.89073 0.47434 0.3557 0.0
H595 H 0.71538 0.40983 0.36575 0.0
H596 H 0.76278 0.43112 0.35697 0.0
C597 C 0.91371 0.4803 0.34394 0.0
C598 C 0.85885 0.48677 0.37018 0.0
H599 H 0.81422 0.4514 0.41095 0.0
C600 C 0.84216 0.49193 0.35689 0.0
C601 C 0.84894 0.4728 0.39032 0.0
C602 C 0.86636 0.46788 0.40585 0.0
C603 C 0.81545 0.48237 0.36262 0.0
C604 C 0.80503 0.4669 0.38198 0.0
C605 C 0.8221 0.46292 0.39592 0.0
C606 C 0.77627 0.45389 0.38755 0.0
C607 C 0.79855 0.48867 0.34771 0.0
C608 C 0.7681 0.45901 0.40797 0.0
C609 C 0.74096 0.4467 0.41314 0.0
C610 C 0.72148 0.4289 0.39802 0.0
C611 C 0.7298 0.42354 0.37772 0.0
C612 C 0.75691 0.43583 0.3726 0.0
H613 H 0.81103 0.50653 0.33781 0.0
H614 H 0.7871 0.47237 0.33575 0.0
H615 H 0.78416 0.49137 0.35764 0.0
H616 H 0.78272 0.47275 0.41982 0.0
H617 H 0.73527 0.45125 0.42893 0.0
H618 H 0.10104 0.54161 0.35566 0.0
H619 H 0.12296 0.54955 0.39226 0.0
H620 H 0.06964 0.57258 0.41874 0.0
H621 H 0.04784 0.56503 0.3819 0.0
H622 H 0.1234 0.60994 0.42373 0.0
H623 H 0.10469 0.51455 0.45343 0.0
H624 H 0.11626 0.52142 0.42511 0.0
H625 H 0.08449 0.51759 0.43194 0.0
C626 C 0.09359 0.54778 0.36944 0.0
C627 C 0.07287 0.55287 0.36596 0.0
C628 C 0.10598 0.5521 0.39039 0.0
C629 C 0.0978 0.56146 0.40827 0.0
C630 C 0.07612 0.56518 0.40517 0.0
H631 H 0.18261 0.63454 0.53324 0.0
H632 H 0.14915 0.61581 0.50327 0.0
C633 C 0.0636 0.56074 0.38419 0.0
C634 C 0.11423 0.57068 0.42901 0.0
H635 H 0.14162 0.55232 0.47053 0.0
C636 C 0.12705 0.59728 0.43421 0.0
C637 C 0.11918 0.55416 0.44245 0.0
C638 C 0.10524 0.52529 0.4381 0.0
C639 C 0.14547 0.60802 0.45199 0.0
C640 C 0.15079 0.59159 0.46521 0.0
C641 C 0.13755 0.56488 0.46032 0.0
C642 C 0.17052 0.60196 0.48385 0.0
C643 C 0.15989 0.63703 0.45587 0.0
C644 C 0.19329 0.59975 0.48317 0.0
C645 C 0.21243 0.61031 0.50036 0.0
C646 C 0.20906 0.62321 0.51856 0.0
C647 C 0.18598 0.62498 0.51935 0.0
C648 C 0.16684 0.61434 0.50221 0.0
H649 H 0.15846 0.64747 0.44106 0.0
H650 H 0.15079 0.64127 0.47026 0.0
H651 H 0.1813 0.64486 0.45988 0.0
H652 H 0.19644 0.59017 0.46915 0.0
H653 H 0.2299 0.60848 0.49932 0.0
H654 H 0.50076 0.09438 0.54121 0.0
H655 H 0.521 0.11676 0.57648 0.0
H656 H 0.56939 0.08147 0.57836 0.0
H657 H 0.54965 0.0595 0.54251 0.0
H658 H 0.52521 0.10056 0.61901 0.0
H659 H 0.62477 0.15937 0.57948 0.0
H660 H 0.59468 0.13985 0.56324 0.0
H661 H 0.60997 0.1247 0.57807 0.0
C662 C 0.51557 0.09122 0.54922 0.0
C663 C 0.52393 0.07552 0.53897 0.0
C664 C 0.52703 0.10392 0.56941 0.0
C665 C 0.54708 0.1012 0.57978 0.0
C666 C 0.55431 0.08423 0.57037 0.0
H667 H 0.64567 0.19567 0.69371 0.0
H668 H 0.62564 0.16213 0.66446 0.0
C669 C 0.54283 0.07148 0.55005 0.0
C670 C 0.5612 0.11745 0.59967 0.0
H671 H 0.621 0.16919 0.61685 0.0
C672 C 0.54622 0.11537 0.61864 0.0
C673 C 0.58863 0.13682 0.59912 0.0
C674 C 0.60551 0.14057 0.57886 0.0
C675 C 0.55776 0.13254 0.63684 0.0
C676 C 0.58488 0.15246 0.63591 0.0
C677 C 0.60018 0.1539 0.6174 0.0
C678 C 0.59729 0.1729 0.65339 0.0
C679 C 0.54077 0.12949 0.65681 0.0
C680 C 0.58836 0.19039 0.65642 0.0
C681 C 0.59984 0.20966 0.67296 0.0
C682 C 0.62048 0.21177 0.68679 0.0
C683 C 0.62976 0.19452 0.68338 0.0
C684 C 0.61833 0.17533 0.66672 0.0
H685 H 0.5228 0.10969 0.65753 0.0
H686 H 0.55235 0.13338 0.67266 0.0
H687 H 0.53401 0.1437 0.6556 0.0
H688 H 0.57244 0.18911 0.64598 0.0
H689 H 0.59226 0.22265 0.6751 0.0
H690 H 0.43074 0.5055 0.69827 0.0
H691 H 0.4252 0.52293 0.73348 0.0
H692 H 0.50991 0.5779 0.73651 0.0
H693 H 0.51547 0.5604 0.70093 0.0
H694 H 0.44843 0.53102 0.77745 0.0
H695 H 0.47488 0.62316 0.7336 0.0
H696 H 0.46737 0.59404 0.71852 0.0
H697 H 0.49876 0.61271 0.73296 0.0
C698 C 0.44825 0.52086 0.70677 0.0
C699 C 0.4735 0.5317 0.69702 0.0
C700 C 0.44508 0.53082 0.72683 0.0
C701 C 0.46707 0.55194 0.73739 0.0
C702 C 0.49266 0.56178 0.72843 0.0
H703 H 0.44622 0.64325 0.84219 0.0
H704 H 0.46758 0.62826 0.81595 0.0
C705 C 0.49587 0.55167 0.70831 0.0
C706 C 0.46233 0.5647 0.75655 0.0
H707 H 0.458 0.61783 0.76988 0.0
C708 C 0.45092 0.55018 0.77598 0.0
C709 C 0.46559 0.5897 0.75454 0.0
C710 C 0.47716 0.60587 0.73378 0.0
C711 C 0.44183 0.55961 0.79314 0.0
C712 C 0.44374 0.58397 0.79056 0.0
C713 C 0.45643 0.5991 0.7717 0.0
C714 C 0.43096 0.59319 0.80642 0.0
C715 C 0.42982 0.54322 0.8137 0.0
C716 C 0.40321 0.57878 0.80929 0.0
C717 C 0.39093 0.5873 0.82414 0.0
C718 C 0.40616 0.61051 0.83637 0.0
C719 C 0.43391 0.62526 0.83306 0.0
C720 C 0.44618 0.61671 0.81813 0.0
H721 H 0.43708 0.52952 0.81626 0.0
H722 H 0.43454 0.55553 0.82893 0.0
H723 H 0.4078 0.53156 0.81162 0.0
H724 H 0.39102 0.56089 0.79998 0.0
H725 H 0.36953 0.57552 0.8262 0.0
H726 H 0.92916 0.49379 0.85432 0.0
H727 H 0.90539 0.48517 0.88972 0.0
H728 H 0.95095 0.45292 0.91663 0.0
H729 H 0.97511 0.46195 0.88123 0.0
H730 H 0.87439 0.43458 0.90358 0.0
H731 H 0.94777 0.49409 0.97006 0.0
H732 H 0.95416 0.50145 0.94064 0.0
H733 H 0.95749 0.47584 0.9528 0.0
C734 C 0.93466 0.48562 0.86806 0.0
C735 C 0.95387 0.47845 0.86512 0.0
C736 C 0.92106 0.48067 0.88823 0.0
C737 C 0.92641 0.46844 0.90582 0.0
C738 C 0.94683 0.46279 0.90343 0.0
H739 H 0.83963 0.38872 0.02536 0.0
H740 H 0.87168 0.40776 0.99489 0.0
C741 C 0.96061 0.46793 0.88323 0.0
C742 C 0.90812 0.45841 0.92514 0.0
H743 H 0.90497 0.46062 0.98211 0.0
C744 C 0.88105 0.44046 0.92074 0.0
C745 C 0.91692 0.46584 0.9475 0.0
C746 C 0.94563 0.48553 0.95311 0.0
C747 C 0.86255 0.42955 0.93808 0.0
C748 C 0.87126 0.43713 0.96044 0.0
C749 C 0.89836 0.45495 0.96492 0.0
C750 C 0.85242 0.42652 0.97933 0.0
C751 C 0.83394 0.40953 0.93233 0.0
C752 C 0.83116 0.43104 0.9808 0.0
C753 C 0.81272 0.42008 -0.00191 0.0
C754 C 0.81532 0.40453 0.01434 0.0
C755 C 0.83695 0.40046 0.01305 0.0
C756 C 0.85536 0.41141 0.99572 0.0
H757 H 0.83198 0.40115 0.91533 0.0
H758 H 0.8256 0.39347 0.94466 0.0
H759 H 0.82174 0.41887 0.9327 0.0
H760 H 0.8288 0.443 0.9685 0.0
H761 H 0.79645 0.42381 -0.00129 0.0
H762 H 0.52223 0.97707 0.05072 0.0
H763 H 0.50714 0.95295 0.08594 0.0
H764 H 0.42649 0.91063 0.0601 0.0
H765 H 0.44153 0.93443 0.02482 0.0
H766 H 0.4658 0.94091 0.1188 0.0
H767 H 0.44811 0.85522 0.06854 0.0
H768 H 0.46667 0.88797 0.05799 0.0
H769 H 0.43086 0.87101 0.05869 0.0
C770 C 0.50115 0.96328 0.05289 0.0
C771 C 0.48305 0.95738 0.03505 0.0
C772 C 0.49258 0.94943 0.07294 0.0
C773 C 0.46583 0.92962 0.07535 0.0
C774 C 0.4473 0.92552 0.05836 0.0
H775 H 0.38885 0.80154 0.16961 0.0
H776 H 0.39817 0.8325 0.13932 0.0
C777 C 0.45587 0.93919 0.03831 0.0
C778 C 0.45793 0.91135 0.09435 0.0
H779 H 0.43699 0.84815 0.10671 0.0
C780 C 0.45943 0.92062 0.11621 0.0
C781 C 0.44976 0.88491 0.09086 0.0
C782 C 0.44893 0.87414 0.0678 0.0
C783 C 0.45268 0.904 0.13472 0.0
C784 C 0.44469 0.87761 0.1312 0.0
C785 C 0.443 0.86835 0.10932 0.0
C786 C 0.43883 0.85935 0.14998 0.0
C787 C 0.45384 0.91474 0.15782 0.0
C788 C 0.45876 0.86398 0.16575 0.0
C789 C 0.45355 0.84632 0.183 0.0
C790 C 0.42833 0.82359 0.18474 0.0
C791 C 0.40848 0.81885 0.16875 0.0
C792 C 0.41373 0.83655 0.15148 0.0
H793 H 0.45298 0.93281 0.15716 0.0
H794 H 0.4372 0.90028 0.16829 0.0
H795 H 0.47291 0.91949 0.16611 0.0
H796 H 0.47847 0.88111 0.16456 0.0
H797 H 0.46933 0.85054 0.19497 0.0
H798 H 0.56365 0.52812 0.21498 0.0
H799 H 0.57197 0.51088 0.24938 0.0
H800 H 0.52289 0.43285 0.22371 0.0
H801 H 0.51483 0.45002 0.18926 0.0
H802 H 0.54043 0.46901 0.28317 0.0
H803 H 0.6023 0.44947 0.2252 0.0
H804 H 0.58953 0.47025 0.21779 0.0
H805 H 0.56786 0.43556 0.21717 0.0
C806 C 0.55368 0.50726 0.21716 0.0
C807 C 0.53875 0.49035 0.19953 0.0
C808 C 0.55854 0.49744 0.23673 0.0
C809 C 0.54841 0.47066 0.23883 0.0
C810 C 0.53107 0.4536 0.22227 0.0
H811 H 0.57888 0.38948 0.34589 0.0
H812 H 0.55731 0.40354 0.31866 0.0
C813 C 0.52637 0.46339 0.20269 0.0
C814 C 0.5594 0.46104 0.25618 0.0
H815 H 0.60063 0.43676 0.26269 0.0
C816 C 0.55349 0.46183 0.27877 0.0
C817 C 0.57679 0.45213 0.25031 0.0
C818 C 0.58475 0.45194 0.22634 0.0
C819 C 0.56442 0.45367 0.29571 0.0
C820 C 0.58147 0.44438 0.28975 0.0
C821 C 0.58741 0.44373 0.26716 0.0
C822 C 0.59425 0.43607 0.30666 0.0
C823 C 0.5582 0.45563 0.31983 0.0
C824 C 0.62216 0.44932 0.30853 0.0
C825 C 0.63455 0.44125 0.32392 0.0
C826 C 0.61925 0.41964 0.33765 0.0
C827 C 0.59125 0.40621 0.33557 0.0
C828 C 0.57887 0.41435 0.32017 0.0
H829 H 0.54962 0.4683 0.32188 0.0
H830 H 0.54344 0.43597 0.326 0.0
H831 H 0.57644 0.46338 0.33048 0.0
H832 H 0.63439 0.46602 0.29812 0.0
H833 H 0.65613 0.45203 0.32508 0.0
H834 H 0.50369 0.94012 0.44202 0.0
H835 H 0.49553 0.91684 0.40664 0.0
H836 H 0.46135 0.95984 0.37884 0.0
H837 H 0.46872 0.98265 0.41471 0.0
H838 H 0.42745 0.90913 0.37575 0.0
H839 H 0.52451 0.92842 0.34463 0.0
H840 H 0.52061 0.91877 0.37339 0.0
H841 H 0.52193 0.94851 0.36581 0.0
C842 C 0.49517 0.94517 0.42813 0.0
C843 C 0.48662 0.96301 0.43114 0.0
C844 C 0.49071 0.93199 0.40782 0.0
C845 C 0.47795 0.93665 0.38997 0.0
C846 C 0.47131 0.95599 0.39236 0.0
H847 H 0.43779 0.83904 0.26954 0.0
H848 H 0.4566 0.87654 0.29483 0.0
C849 C 0.47571 0.96917 0.41278 0.0
C850 C 0.46792 0.91854 0.3705 0.0
H851 H 0.48583 0.88718 0.33315 0.0
C852 C 0.44032 0.90472 0.36614 0.0
C853 C 0.48464 0.91285 0.35778 0.0
C854 C 0.5146 0.92816 0.3605 0.0
C855 C 0.42886 0.88451 0.35028 0.0
C856 C 0.44536 0.87748 0.33884 0.0
C857 C 0.47311 0.89221 0.34227 0.0
C858 C 0.43411 0.8546 0.32361 0.0
C859 C 0.39915 0.8708 0.34605 0.0
C860 C 0.41555 0.8297 0.33149 0.0
C861 C 0.40462 0.8082 0.31705 0.0
C862 C 0.41229 0.81116 0.2945 0.0
C863 C 0.43137 0.83605 0.2868 0.0
C864 C 0.44218 0.85754 0.30123 0.0
H865 H 0.391 0.88335 0.35056 0.0
H866 H 0.39415 0.86483 0.32823 0.0
H867 H 0.38907 0.85313 0.35657 0.0
H868 H 0.40954 0.82687 0.34885 0.0
H869 H 0.39015 0.78929 0.32356 0.0
H870 H 0.50605 0.435 0.58511 0.0
H871 H 0.52459 0.43109 0.54971 0.0
H872 H 0.58089 0.51366 0.55053 0.0
H873 H 0.56212 0.51763 0.58609 0.0
H874 H 0.53466 0.45888 0.50606 0.0
H875 H 0.62519 0.47531 0.55273 0.0
H876 H 0.59437 0.46637 0.5667 0.0
H877 H 0.61494 0.49874 0.55631 0.0
C878 C 0.52192 0.45238 0.57739 0.0
C879 C 0.53271 0.4766 0.58815 0.0
C880 C 0.53249 0.45014 0.55725 0.0
C881 C 0.55423 0.47204 0.54769 0.0
C882 C 0.56418 0.49654 0.55778 0.0
H883 H 0.62643 0.46423 0.42211 0.0
H884 H 0.60937 0.47896 0.45242 0.0
C885 C 0.55338 0.49883 0.57791 0.0
C886 C 0.56766 0.46847 0.52832 0.0
H887 H 0.62206 0.46442 0.51457 0.0
C888 C 0.55394 0.46046 0.50775 0.0
C889 C 0.59261 0.47016 0.53082 0.0
C890 C 0.60771 0.47796 0.55282 0.0
C891 C 0.56442 0.45373 0.48963 0.0
C892 C 0.58921 0.45511 0.49223 0.0
C893 C 0.6031 0.4635 0.51269 0.0
C894 C 0.60042 0.44675 0.4742 0.0
C895 C 0.54853 0.4443 0.46808 0.0
C896 C 0.60151 0.42405 0.47667 0.0
C897 C 0.6112 0.4155 0.45937 0.0
C898 C 0.62018 0.4297 0.4394 0.0
C899 C 0.61964 0.4528 0.43725 0.0
C900 C 0.6098 0.46123 0.4545 0.0
H901 H 0.52793 0.44057 0.46993 0.0
H902 H 0.55866 0.45923 0.45495 0.0
H903 H 0.54739 0.42617 0.46222 0.0
H904 H 0.59443 0.41269 0.49184 0.0
H905 H 0.61141 0.39768 0.46158 0.0
H906 H 0.098 0.57762 0.77161 0.0
H907 H 0.1219 0.59289 0.73628 0.0
H908 H 0.07512 0.51552 0.70856 0.0
H909 H 0.05084 0.50028 0.7439 0.0
H910 H 0.15203 0.57226 0.72207 0.0
H911 H 0.07961 0.56124 0.65574 0.0
H912 H 0.07329 0.56211 0.68519 0.0
H913 H 0.06915 0.53296 0.67273 0.0
C914 C 0.09226 0.5641 0.7577 0.0
C915 C 0.07268 0.5378 0.7604 0.0
C916 C 0.10593 0.5728 0.73758 0.0
C917 C 0.10028 0.55536 0.71979 0.0
C918 C 0.07949 0.52941 0.72193 0.0
H919 H 0.18618 0.56276 0.59947 0.0
H920 H 0.15437 0.54961 0.63013 0.0
C921 C 0.06563 0.52071 0.74209 0.0
C922 C 0.11863 0.56354 0.70053 0.0
H923 H 0.12216 0.56995 0.64365 0.0
C924 C 0.14553 0.57195 0.70494 0.0
C925 C 0.11002 0.56278 0.6782 0.0
C926 C 0.08149 0.55449 0.6726 0.0
C927 C 0.16406 0.57946 0.68763 0.0
C928 C 0.15556 0.57898 0.66531 0.0
C929 C 0.12861 0.57038 0.66082 0.0
C930 C 0.17446 0.58725 0.64645 0.0
C931 C 0.19247 0.58728 0.69336 0.0
C932 C 0.19614 0.61285 0.64539 0.0
C933 C 0.21445 0.62041 0.62799 0.0
C934 C 0.21129 0.60253 0.61122 0.0
C935 C 0.1893 0.57698 0.61217 0.0
C936 C 0.17102 0.56944 0.62962 0.0
H937 H 0.19409 0.58029 0.71019 0.0
H938 H 0.20056 0.57955 0.68079 0.0
H939 H 0.2051 0.6088 0.69342 0.0
H940 H 0.19889 0.62701 0.65804 0.0
H941 H 0.23101 0.64029 0.62764 0.0
H942 H 0.60485 0.09005 0.92786 0.0
H943 H 0.60948 0.11332 0.89302 0.0
H944 H 0.52443 0.08166 0.89068 0.0
H945 H 0.51971 0.05838 0.92586 0.0
H946 H 0.58493 0.09697 0.84901 0.0
H947 H 0.55839 0.16219 0.89369 0.0
H948 H 0.56718 0.14137 0.90852 0.0
H949 H 0.53517 0.12774 0.89499 0.0
C950 C 0.58709 0.08772 0.9197 0.0
C951 C 0.56196 0.07264 0.92957 0.0
C952 C 0.58974 0.10095 0.89981 0.0
C953 C 0.56736 0.0995 0.88951 0.0
C954 C 0.54197 0.08324 0.89858 0.0
H955 H 0.58149 0.20944 0.7853 0.0
H956 H 0.56195 0.17331 0.81185 0.0
C957 C 0.53927 0.06981 0.9185 0.0
C958 C 0.57133 0.1167 0.87033 0.0
H959 H 0.57369 0.1732 0.85692 0.0
C960 C 0.5821 0.11342 0.85057 0.0
C961 C 0.56758 0.13812 0.87246 0.0
C962 C 0.55659 0.14282 0.89356 0.0
C963 C 0.59001 0.13147 0.83311 0.0
C964 C 0.58762 0.15365 0.83574 0.0
C965 C 0.57562 0.15625 0.85503 0.0
C966 C 0.59922 0.17527 0.81947 0.0
C967 C 0.60121 0.12681 0.81214 0.0
C968 C 0.62673 0.18871 0.81538 0.0
C969 C 0.63796 0.20934 0.80031 0.0
C970 C 0.62191 0.21709 0.78914 0.0
C971 C 0.5944 0.20394 0.79361 0.0
C972 C 0.58318 0.18325 0.80872 0.0
H973 H 0.59396 0.10583 0.80973 0.0
H974 H 0.59578 0.13405 0.79709 0.0
H975 H 0.62329 0.13728 0.81357 0.0
H976 H 0.6396 0.18333 0.82396 0.0
H977 H 0.65922 0.21912 0.79737 0.0
H978 H 0.53331 0.60932 0.08698 0.0
H979 H 0.51371 0.61183 0.0514 0.0
H980 H 0.45892 0.52898 0.0526 0.0
H981 H 0.47839 0.52639 0.08847 0.0
H982 H 0.50508 0.58538 0.00879 0.0
H983 H 0.41139 0.56264 0.05192 0.0
H984 H 0.442 0.57217 0.06703 0.0
H985 H 0.42261 0.53997 0.05555 0.0
C986 C 0.51734 0.59159 0.07947 0.0
C987 C 0.50718 0.5677 0.0905 0.0
C988 C 0.50623 0.59304 0.05916 0.0
C989 C 0.48465 0.57066 0.0496 0.0
C990 C 0.47539 0.5465 0.0599 0.0
H991 H 0.41463 0.57366 0.92011 0.0
H992 H 0.43284 0.56108 0.95137 0.0
C993 C 0.48664 0.54501 0.08024 0.0
C994 C 0.47092 0.57324 0.02972 0.0
H995 H 0.4141 0.57209 0.0135 0.0
C996 C 0.48507 0.58218 0.00967 0.0
C997 C 0.44497 0.56941 0.03115 0.0
C998 C 0.4293 0.56069 0.05257 0.0
C999 C 0.47406 0.58773 0.99103 0.0
C1000 C 0.44818 0.58404 0.99251 0.0
C1001 C 0.43389 0.57476 0.01245 0.0
C1002 C 0.43612 0.59089 0.97387 0.0
C1003 C 0.49054 0.59839 0.97018 0.0
C1004 C 0.4313 0.61139 0.97641 0.0
C1005 C 0.42084 0.61864 0.9586 0.0
C1006 C 0.41487 0.60536 0.93798 0.0
C1007 C 0.41912 0.58438 0.93572 0.0
C1008 C 0.42963 0.57721 0.95352 0.0
H1009 H 0.51184 0.60475 0.97324 0.0
H1010 H 0.48259 0.58308 0.95702 0.0
H1011 H 0.48937 0.61513 0.96367 0.0
H1012 H 0.4361 0.6221 0.99206 0.0
H1013 H 0.41773 0.63481 0.96092 0.0
H1014 H 0.92679 0.45315 0.27314 0.0
H1015 H 0.90243 0.43609 0.23776 0.0
H1016 H 0.95012 0.51158 0.20773 0.0
H1017 H 0.97486 0.5286 0.24312 0.0
H1018 H 0.87267 0.45564 0.2209 0.0
H1019 H 0.94502 0.46303 0.15741 0.0
H1020 H 0.95151 0.46417 0.18715 0.0
H1021 H 0.95569 0.49246 0.17299 0.0
C1022 C 0.93258 0.46586 0.25876 0.0
C1023 C 0.9526 0.49217 0.26078 0.0
C1024 C 0.91865 0.45614 0.2386 0.0
C1025 C 0.92448 0.47253 0.22009 0.0
C1026 C 0.94561 0.49845 0.22166 0.0
H1027 H 0.83946 0.46303 0.09764 0.0
H1028 H 0.87107 0.47608 0.129 0.0
C1029 C 0.95972 0.50818 0.24186 0.0
C1030 C 0.90614 0.46339 0.20044 0.0
H1031 H 0.90286 0.45483 0.1437 0.0
C1032 C 0.87923 0.45522 0.20405 0.0
C1033 C 0.91481 0.46314 0.17846 0.0
C1034 C 0.94328 0.47095 0.17372 0.0
C1035 C 0.8608 0.44713 0.18627 0.0
C1036 C 0.86942 0.44683 0.1643 0.0
C1037 C 0.89633 0.45503 0.16061 0.0
C1038 C 0.85076 0.43846 0.14493 0.0
C1039 C 0.83239 0.43961 0.19108 0.0
C1040 C 0.82902 0.41288 0.14341 0.0
C1041 C 0.81084 0.40536 0.12556 0.0
C1042 C 0.81416 0.42328 0.10886 0.0
C1043 C 0.83622 0.44878 0.11028 0.0
C1044 C 0.85439 0.45626 0.12812 0.0
H1045 H 0.83054 0.44666 0.2078 0.0
H1046 H 0.82472 0.44751 0.17816 0.0
H1047 H 0.81955 0.41811 0.1908 0.0
H1048 H 0.82609 0.39876 0.15608 0.0
H1049 H 0.79418 0.38553 0.12488 0.0
loop_
_geom_bond_atom_site_label_1
_geom_bond_atom_site_label_2
_geom_bond_distance
_geom_bond_site_symmetry_2
_ccdc_geom_bond_type
H0 C6 0.930 . S
H1 C9 0.931 . S
H2 C11 0.931 . S
H3 C13 0.930 . S
H4 C15 0.930 . S
H5 C17 0.931 . S
C6 H0 0.930 . S
C6 C7 1.380 . S
C6 C8 1.394 . S
C7 C6 1.380 . S
C7 C11 1.382 . S
C8 C6 1.394 . S
C8 C9 1.400 . S
C9 H1 0.931 . S
C9 C8 1.400 . S
C9 C10 1.375 . S
C10 C9 1.375 . S
C10 C11 1.415 . S
C10 C12 1.501 1_455 S
C11 H2 0.931 . S
C11 C7 1.382 . S
C11 C10 1.415 . S
C12 C10 1.501 1_655 S
C12 C13 1.384 . S
C12 C17 1.408 . S
C13 H3 0.930 . S
C13 C12 1.384 . S
C13 C14 1.389 . S
C14 C13 1.389 . S
C14 C15 1.405 . S
C15 H4 0.930 . S
C15 C14 1.405 . S
C15 C16 1.364 . S
C16 C15 1.364 . S
C16 C17 1.400 . S
C17 H5 0.931 . S
C17 C12 1.408 . S
C17 C16 1.400 . S
H18 C24 0.930 . S
H19 C27 0.931 . S
H20 C29 0.931 . S
H21 C31 0.930 . S
H22 C33 0.930 . S
H23 C35 0.931 1_545 S
C24 H18 0.930 . S
C24 C25 1.380 . S
C24 C26 1.394 . S
C25 C24 1.380 . S
C25 C29 1.382 . S
C26 C24 1.394 . S
C26 C27 1.400 . S
C27 H19 0.931 . S
C27 C26 1.400 . S
C27 C28 1.375 . S
C28 C27 1.375 . S
C28 C29 1.415 . S
C28 C30 1.501 1_545 S
C29 H20 0.931 . S
C29 C25 1.382 . S
C29 C28 1.415 . S
C30 C28 1.501 1_565 S
C30 C31 1.384 . S
C30 C35 1.408 . S
C31 H21 0.930 . S
C31 C30 1.384 . S
C31 C32 1.389 . S
C32 C31 1.389 . S
C32 C33 1.405 . S
C33 H22 0.930 . S
C33 C32 1.405 . S
C33 C34 1.364 . S
C34 C33 1.364 . S
C34 C35 1.400 . S
C35 H23 0.931 1_565 S
C35 C30 1.408 . S
C35 C34 1.400 . S
H36 C42 0.930 . S
H37 C45 0.931 . S
H38 C47 0.931 . S
H39 C49 0.930 . S
H40 C51 0.930 . S
H41 C53 0.931 . S
C42 H36 0.930 . S
C42 C43 1.380 . S
C42 C44 1.394 . S
C43 C42 1.380 . S
C43 C47 1.382 . S
C44 C42 1.394 . S
C44 C45 1.400 . S
C45 H37 0.931 . S
C45 C44 1.400 . S
C45 C46 1.375 . S
C46 C45 1.375 . S
C46 C47 1.415 . S
C46 C48 1.501 . S
C47 H38 0.931 . S
C47 C43 1.382 . S
C47 C46 1.415 . S
C48 C46 1.501 . S
C48 C49 1.384 . S
C48 C53 1.408 . S
C49 H39 0.930 . S
C49 C48 1.384 . S
C49 C50 1.389 . S
C50 C49 1.389 . S
C50 C51 1.405 . S
C51 H40 0.930 . S
C51 C50 1.405 . S
C51 C52 1.364 . S
C52 C51 1.364 . S
C52 C53 1.400 . S
C53 H41 0.931 . S
C53 C48 1.408 . S
C53 C52 1.400 . S
H54 C60 0.930 . S
H55 C63 0.931 . S
H56 C65 0.931 . S
H57 C67 0.930 . S
H58 C69 0.930 . S
H59 C71 0.931 . S
C60 H54 0.930 . S
C60 C61 1.380 . S
C60 C62 1.394 . S
C61 C60 1.380 . S
C61 C65 1.382 . S
C62 C60 1.394 . S
C62 C63 1.400 . S
C63 H55 0.931 . S
C63 C62 1.400 . S
C63 C64 1.375 . S
C64 C63 1.375 . S
C64 C65 1.415 . S
C64 C66 1.501 1_455 S
C65 H56 0.931 . S
C65 C61 1.382 . S
C65 C64 1.415 . S
C66 C64 1.501 1_655 S
C66 C67 1.384 . S
C66 C71 1.408 . S
C67 H57 0.930 . S
C67 C66 1.384 . S
C67 C68 1.389 . S
C68 C67 1.389 . S
C68 C69 1.405 . S
C69 H58 0.930 . S
C69 C68 1.405 . S
C69 C70 1.364 . S
C70 C69 1.364 . S
C70 C71 1.400 . S
C71 H59 0.931 . S
C71 C66 1.408 . S
C71 C70 1.400 . S
H72 C78 0.930 . S
H73 C81 0.931 . S
H74 C83 0.931 1_545 S
H75 C85 0.930 . S
H76 C87 0.930 . S
H77 C89 0.931 . S
C78 H72 0.930 . S
C78 C79 1.380 . S
C78 C80 1.394 1_554 S
C79 C78 1.380 . S
C79 C83 1.382 . S
C80 C78 1.394 1_556 S
C80 C81 1.400 . S
C81 H73 0.931 . S
C81 C80 1.400 . S
C81 C82 1.375 . S
C82 C81 1.375 . S
C82 C83 1.415 1_556 S
C82 C84 1.501 1_565 S
C83 H74 0.931 1_565 S
C83 C79 1.382 . S
C83 C82 1.415 1_554 S
C84 C82 1.501 1_545 S
C84 C85 1.384 1_556 S
C84 C89 1.408 . S
C85 H75 0.930 . S
C85 C84 1.384 1_554 S
C85 C86 1.389 1_554 S
C86 C85 1.389 1_556 S
C86 C87 1.405 . S
C87 H76 0.930 . S
C87 C86 1.405 . S
C87 C88 1.364 . S
C88 C87 1.364 . S
C88 C89 1.400 . S
C89 H77 0.931 . S
C89 C84 1.408 . S
C89 C88 1.400 . S
H90 C96 0.930 . S
H91 C99 0.931 . S
H92 C101 0.931 . S
H93 C103 0.930 . S
H94 C105 0.930 . S
H95 C107 0.931 . S
C96 H90 0.930 . S
C96 C97 1.380 . S
C96 C98 1.394 . S
C97 C96 1.380 . S
C97 C101 1.382 . S
C98 C96 1.394 . S
C98 C99 1.400 . S
C99 H91 0.931 . S
C99 C98 1.400 . S
C99 C100 1.375 . S
C100 C99 1.375 . S
C100 C101 1.415 . S
C100 C102 1.501 . S
C101 H92 0.931 . S
C101 C97 1.382 . S
C101 C100 1.415 . S
C102 C100 1.501 . S
C102 C103 1.384 . S
C102 C107 1.408 . S
C103 H93 0.930 . S
C103 C102 1.384 . S
C103 C104 1.389 . S
C104 C103 1.389 . S
C104 C105 1.405 . S
C105 H94 0.930 . S
C105 C104 1.405 . S
C105 C106 1.364 . S
C106 C105 1.364 . S
C106 C107 1.400 . S
C107 H95 0.931 . S
C107 C102 1.408 . S
C107 C106 1.400 . S
C108 O109 1.160 . S
C108 O115 1.185 . S
O109 C108 1.160 . S
O110 Zn111 1.899 . S
O110 C118 1.284 . S
Zn111 O110 1.899 . S
Zn111 O112 2.032 . S
Zn111 O115 2.086 . S
Zn111 O120 1.977 . S
O112 Zn111 2.032 . S
O112 C116 1.278 . S
C113 O114 1.203 . S
C113 O120 1.267 . S
O114 C113 1.203 . S
O115 C108 1.185 . S
O115 Zn111 2.086 . S
C116 O112 1.278 . S
C116 O117 1.211 . S
O117 C116 1.211 . S
C118 O110 1.284 . S
C118 O119 1.273 . S
O119 C118 1.273 . S
O120 Zn111 1.977 . S
O120 C113 1.267 . S
C121 O122 1.160 . S
C121 O128 1.185 . S
O122 C121 1.160 . S
O123 Zn124 1.899 . S
O123 C131 1.284 . S
Zn124 O123 1.899 . S
Zn124 O125 2.032 . S
Zn124 O128 2.086 . S
Zn124 O133 1.977 . S
O125 Zn124 2.032 . S
O125 C129 1.278 . S
C126 O127 1.203 . S
C126 O133 1.267 . S
O127 C126 1.203 . S
O128 C121 1.185 . S
O128 Zn124 2.086 . S
C129 O125 1.278 . S
C129 O130 1.211 . S
O130 C129 1.211 . S
C131 O123 1.284 . S
C131 O132 1.273 . S
O132 C131 1.273 . S
O133 Zn124 1.977 . S
O133 C126 1.267 . S
C134 O135 1.160 . S
C134 O141 1.185 . S
O135 C134 1.160 . S
O136 Zn137 1.899 . S
O136 C144 1.284 . S
Zn137 O136 1.899 . S
Zn137 O138 2.032 . S
Zn137 O141 2.086 . S
Zn137 O146 1.977 . S
O138 Zn137 2.032 . S
O138 C142 1.278 . S
C139 O140 1.203 . S
C139 O146 1.267 . S
O140 C139 1.203 . S
O141 C134 1.185 . S
O141 Zn137 2.086 . S
C142 O138 1.278 . S
C142 O143 1.211 . S
O143 C142 1.211 . S
C144 O136 1.284 . S
C144 O145 1.273 . S
O145 C144 1.273 . S
O146 Zn137 1.977 . S
O146 C139 1.267 . S
C147 O148 1.160 . S
C147 O154 1.185 . S
O148 C147 1.160 . S
O149 Zn150 1.899 . S
O149 C157 1.284 . S
Zn150 O149 1.899 . S
Zn150 O151 2.032 . S
Zn150 O154 2.086 . S
Zn150 O159 1.977 . S
O151 Zn150 2.032 . S
O151 C155 1.278 . S
C152 O153 1.203 . S
C152 O159 1.267 . S
O153 C152 1.203 . S
O154 C147 1.185 . S
O154 Zn150 2.086 . S
C155 O151 1.278 . S
C155 O156 1.211 . S
O156 C155 1.211 . S
C157 O149 1.284 . S
C157 O158 1.273 . S
O158 C157 1.273 . S
O159 Zn150 1.977 . S
O159 C152 1.267 . S
C160 O161 1.160 . S
C160 O167 1.185 . S
O161 C160 1.160 . S
O162 Zn163 1.899 . S
O162 C170 1.284 . S
Zn163 O162 1.899 . S
Zn163 O164 2.032 . S
Zn163 O167 2.086 . S
Zn163 O172 1.977 . S
O164 Zn163 2.032 . S
O164 C168 1.278 . S
C165 O166 1.203 . S
C165 O172 1.267 . S
O166 C165 1.203 . S
O167 C160 1.185 . S
O167 Zn163 2.086 . S
C168 O164 1.278 . S
C168 O169 1.211 . S
O169 C168 1.211 . S
C170 O162 1.284 . S
C170 O171 1.273 . S
O171 C170 1.273 . S
O172 Zn163 1.977 . S
O172 C165 1.267 . S
C173 O174 1.160 . S
C173 O180 1.185 . S
O174 C173 1.160 . S
O175 Zn176 1.899 . S
O175 C183 1.284 . S
Zn176 O175 1.899 . S
Zn176 O177 2.032 . S
Zn176 O180 2.086 . S
Zn176 O185 1.977 . S
O177 Zn176 2.032 . S
O177 C181 1.278 . S
C178 O179 1.203 . S
C178 O185 1.267 . S
O179 C178 1.203 . S
O180 C173 1.185 . S
O180 Zn176 2.086 . S
C181 O177 1.278 . S
C181 O182 1.211 . S
O182 C181 1.211 . S
C183 O175 1.284 . S
C183 O184 1.273 . S
O184 C183 1.273 . S
O185 Zn176 1.977 . S
O185 C178 1.267 . S
H186 C194 0.929 . S
H187 C196 0.930 . S
H188 C198 0.930 . S
H189 C201 0.929 . S
H190 C204 0.930 . S
H191 C206 0.960 . S
H192 C206 0.960 . S
H193 C206 0.960 . S
C194 H186 0.929 . S
C194 C195 1.377 . S
C194 C196 1.384 . S
C195 C194 1.377 . S
C195 C201 1.390 . S
C196 H187 0.930 . S
C196 C194 1.384 . S
C196 C197 1.372 . S
C197 C196 1.372 . S
C197 C198 1.400 . S
C197 C202 1.490 . S
C198 H188 0.930 . S
C198 C197 1.400 . S
C198 C201 1.386 . S
H199 C215 0.930 . S
H200 C216 0.931 . S
C201 H189 0.929 . S
C201 C195 1.390 . S
C201 C198 1.386 . S
C202 C197 1.490 . S
C202 C204 1.395 . S
C202 C205 1.403 . S
H203 C209 0.930 . S
C204 H190 0.930 . S
C204 C202 1.395 . S
C204 C207 1.403 . S
C205 C202 1.403 . S
C205 C206 1.524 . S
C205 C209 1.400 . S
C206 H191 0.960 . S
C206 H192 0.960 . S
C206 H193 0.960 . S
C206 C205 1.524 . S
C207 C204 1.403 . S
C207 C208 1.392 . S
C207 C211 1.495 . S
C208 C207 1.392 . S
C208 C209 1.385 . S
C208 C210 1.478 . S
C209 H203 0.930 . S
C209 C205 1.400 . S
C209 C208 1.385 . S
C210 C208 1.478 . S
C210 C212 1.381 . S
C210 C216 1.383 . S
C211 C207 1.495 . S
C211 H217 0.959 . S
C211 H218 0.961 . S
C211 H219 0.960 . S
C212 C210 1.381 . S
C212 C213 1.394 . S
C212 H220 0.930 . S
C213 C212 1.394 . S
C213 C214 1.383 . S
C213 H221 0.929 . S
C214 C213 1.383 . S
C214 C215 1.377 . S
C215 H199 0.930 . S
C215 C214 1.377 . S
C215 C216 1.379 . S
C216 H200 0.931 . S
C216 C210 1.383 . S
C216 C215 1.379 . S
H217 C211 0.959 . S
H218 C211 0.961 . S
H219 C211 0.960 . S
H220 C212 0.930 . S
H221 C213 0.929 . S
H222 C230 0.929 . S
H223 C232 0.930 . S
H224 C234 0.930 . S
H225 C237 0.929 . S
H226 C240 0.930 . S
H227 C242 0.960 . S
H228 C242 0.960 . S
H229 C242 0.960 . S
C230 H222 0.929 . S
C230 C231 1.377 . S
C230 C232 1.384 . S
C231 C230 1.377 . S
C231 C237 1.390 . S
C232 H223 0.930 . S
C232 C230 1.384 . S
C232 C233 1.372 . S
C233 C232 1.372 . S
C233 C234 1.400 . S
C233 C238 1.490 . S
C234 H224 0.930 . S
C234 C233 1.400 . S
C234 C237 1.386 . S
H235 C251 0.930 . S
H236 C252 0.931 . S
C237 H225 0.929 . S
C237 C231 1.390 . S
C237 C234 1.386 . S
C238 C233 1.490 . S
C238 C240 1.395 . S
C238 C241 1.403 . S
H239 C245 0.930 . S
C240 H226 0.930 . S
C240 C238 1.395 . S
C240 C243 1.403 . S
C241 C238 1.403 . S
C241 C242 1.524 . S
C241 C245 1.400 . S
C242 H227 0.960 . S
C242 H228 0.960 . S
C242 H229 0.960 . S
C242 C241 1.524 . S
C243 C240 1.403 . S
C243 C244 1.392 . S
C243 C247 1.495 . S
C244 C243 1.392 . S
C244 C245 1.385 . S
C244 C246 1.478 . S
C245 H239 0.930 . S
C245 C241 1.400 . S
C245 C244 1.385 . S
C246 C244 1.478 . S
C246 C248 1.381 . S
C246 C252 1.383 . S
C247 C243 1.495 . S
C247 H253 0.959 . S
C247 H254 0.961 . S
C247 H255 0.960 . S
C248 C246 1.381 . S
C248 C249 1.394 . S
C248 H256 0.930 . S
C249 C248 1.394 . S
C249 C250 1.383 . S
C249 H257 0.929 . S
C250 C249 1.383 . S
C250 C251 1.377 . S
C251 H235 0.930 . S
C251 C250 1.377 . S
C251 C252 1.379 . S
C252 H236 0.931 . S
C252 C246 1.383 . S
C252 C251 1.379 . S
H253 C247 0.959 . S
H254 C247 0.961 . S
H255 C247 0.960 . S
H256 C248 0.930 . S
H257 C249 0.929 . S
H258 C266 0.929 . S
H259 C268 0.930 . S
H260 C270 0.930 . S
H261 C273 0.929 . S
H262 C276 0.930 . S
H263 C278 0.960 . S
H264 C278 0.960 . S
H265 C278 0.960 . S
C266 H258 0.929 . S
C266 C267 1.377 . S
C266 C268 1.384 . S
C267 C266 1.377 . S
C267 C273 1.390 . S
C268 H259 0.930 . S
C268 C266 1.384 . S
C268 C269 1.372 . S
C269 C268 1.372 . S
C269 C270 1.400 . S
C269 C274 1.490 . S
C270 H260 0.930 . S
C270 C269 1.400 . S
C270 C273 1.386 . S
H271 C287 0.930 . S
H272 C288 0.931 . S
C273 H261 0.929 . S
C273 C267 1.390 . S
C273 C270 1.386 . S
C274 C269 1.490 . S
C274 C276 1.395 . S
C274 C277 1.403 . S
H275 C281 0.930 . S
C276 H262 0.930 . S
C276 C274 1.395 . S
C276 C279 1.403 . S
C277 C274 1.403 . S
C277 C278 1.524 . S
C277 C281 1.400 . S
C278 H263 0.960 . S
C278 H264 0.960 . S
C278 H265 0.960 . S
C278 C277 1.524 . S
C279 C276 1.403 . S
C279 C280 1.392 . S
C279 C283 1.495 . S
C280 C279 1.392 . S
C280 C281 1.385 . S
C280 C282 1.478 . S
C281 H275 0.930 . S
C281 C277 1.400 . S
C281 C280 1.385 . S
C282 C280 1.478 . S
C282 C284 1.381 . S
C282 C288 1.383 . S
C283 C279 1.495 . S
C283 H289 0.959 . S
C283 H290 0.961 . S
C283 H291 0.960 . S
C284 C282 1.381 . S
C284 C285 1.394 . S
C284 H292 0.930 . S
C285 C284 1.394 . S
C285 C286 1.383 . S
C285 H293 0.929 . S
C286 C285 1.383 . S
C286 C287 1.377 . S
C287 H271 0.930 . S
C287 C286 1.377 . S
C287 C288 1.379 . S
C288 H272 0.931 . S
C288 C282 1.383 . S
C288 C287 1.379 . S
H289 C283 0.959 . S
H290 C283 0.961 . S
H291 C283 0.960 . S
H292 C284 0.930 . S
H293 C285 0.929 . S
H294 C302 0.929 . S
H295 C304 0.930 . S
H296 C306 0.930 . S
H297 C309 0.929 . S
H298 C312 0.930 . S
H299 C314 0.960 . S
H300 C314 0.960 . S
H301 C314 0.960 . S
C302 H294 0.929 . S
C302 C303 1.377 . S
C302 C304 1.384 . S
C303 C302 1.377 . S
C303 C309 1.390 . S
C304 H295 0.930 . S
C304 C302 1.384 . S
C304 C305 1.372 . S
C305 C304 1.372 . S
C305 C306 1.400 . S
C305 C310 1.490 . S
C306 H296 0.930 . S
C306 C305 1.400 . S
C306 C309 1.386 . S
H307 C323 0.930 . S
H308 C324 0.931 . S
C309 H297 0.929 . S
C309 C303 1.390 . S
C309 C306 1.386 . S
C310 C305 1.490 . S
C310 C312 1.395 . S
C310 C313 1.403 . S
H311 C317 0.930 . S
C312 H298 0.930 . S
C312 C310 1.395 . S
C312 C315 1.403 . S
C313 C310 1.403 . S
C313 C314 1.524 . S
C313 C317 1.400 . S
C314 H299 0.960 . S
C314 H300 0.960 . S
C314 H301 0.960 . S
C314 C313 1.524 . S
C315 C312 1.403 . S
C315 C316 1.392 . S
C315 C319 1.495 . S
C316 C315 1.392 . S
C316 C317 1.385 . S
C316 C318 1.478 . S
C317 H311 0.930 . S
C317 C313 1.400 . S
C317 C316 1.385 . S
C318 C316 1.478 . S
C318 C320 1.381 . S
C318 C324 1.383 . S
C319 C315 1.495 . S
C319 H325 0.959 . S
C319 H326 0.961 . S
C319 H327 0.960 . S
C320 C318 1.381 . S
C320 C321 1.394 . S
C320 H328 0.930 . S
C321 C320 1.394 . S
C321 C322 1.383 . S
C321 H329 0.929 . S
C322 C321 1.383 . S
C322 C323 1.377 . S
C323 H307 0.930 . S
C323 C322 1.377 . S
C323 C324 1.379 . S
C324 H308 0.931 . S
C324 C318 1.383 . S
C324 C323 1.379 . S
H325 C319 0.959 . S
H326 C319 0.961 . S
H327 C319 0.960 . S
H328 C320 0.930 . S
H329 C321 0.929 . S
H330 C338 0.929 . S
H331 C340 0.930 . S
H332 C342 0.930 . S
H333 C345 0.929 . S
H334 C348 0.930 . S
H335 C350 0.960 . S
H336 C350 0.960 . S
H337 C350 0.960 . S
C338 H330 0.929 . S
C338 C339 1.377 . S
C338 C340 1.384 . S
C339 C338 1.377 . S
C339 C345 1.390 . S
C340 H331 0.930 . S
C340 C338 1.384 . S
C340 C341 1.372 . S
C341 C340 1.372 . S
C341 C342 1.400 . S
C341 C346 1.490 . S
C342 H332 0.930 . S
C342 C341 1.400 . S
C342 C345 1.386 . S
H343 C359 0.930 . S
H344 C360 0.931 . S
C345 H333 0.929 . S
C345 C339 1.390 . S
C345 C342 1.386 . S
C346 C341 1.490 . S
C346 C348 1.395 . S
C346 C349 1.403 . S
H347 C353 0.930 . S
C348 H334 0.930 . S
C348 C346 1.395 . S
C348 C351 1.403 . S
C349 C346 1.403 . S
C349 C350 1.524 . S
C349 C353 1.400 . S
C350 H335 0.960 . S
C350 H336 0.960 . S
C350 H337 0.960 . S
C350 C349 1.524 . S
C351 C348 1.403 . S
C351 C352 1.392 . S
C351 C355 1.495 . S
C352 C351 1.392 . S
C352 C353 1.385 . S
C352 C354 1.478 . S
C353 H347 0.930 . S
C353 C349 1.400 . S
C353 C352 1.385 . S
C354 C352 1.478 . S
C354 C356 1.381 . S
C354 C360 1.383 . S
C355 C351 1.495 . S
C355 H361 0.959 . S
C355 H362 0.961 . S
C355 H363 0.960 . S
C356 C354 1.381 . S
C356 C357 1.394 . S
C356 H364 0.930 . S
C357 C356 1.394 . S
C357 C358 1.383 . S
C357 H365 0.929 . S
C358 C357 1.383 . S
C358 C359 1.377 . S
C359 H343 0.930 . S
C359 C358 1.377 . S
C359 C360 1.379 . S
C360 H344 0.931 . S
C360 C354 1.383 . S
C360 C359 1.379 . S
H361 C355 0.959 . S
H362 C355 0.961 . S
H363 C355 0.960 . S
H364 C356 0.930 . S
H365 C357 0.929 . S
H366 C374 0.929 . S
H367 C376 0.930 . S
H368 C378 0.930 . S
H369 C381 0.929 . S
H370 C384 0.930 . S
H371 C386 0.960 . S
H372 C386 0.960 . S
H373 C386 0.960 . S
C374 H366 0.929 . S
C374 C375 1.377 . S
C374 C376 1.384 . S
C375 C374 1.377 . S
C375 C381 1.390 . S
C376 H367 0.930 . S
C376 C374 1.384 . S
C376 C377 1.372 . S
C377 C376 1.372 . S
C377 C378 1.400 . S
C377 C382 1.490 . S
C378 H368 0.930 . S
C378 C377 1.400 . S
C378 C381 1.386 . S
H379 C395 0.930 . S
H380 C396 0.931 . S
C381 H369 0.929 . S
C381 C375 1.390 . S
C381 C378 1.386 . S
C382 C377 1.490 . S
C382 C384 1.395 . S
C382 C385 1.403 . S
H383 C389 0.930 . S
C384 H370 0.930 . S
C384 C382 1.395 . S
C384 C387 1.403 . S
C385 C382 1.403 . S
C385 C386 1.524 . S
C385 C389 1.400 . S
C386 H371 0.960 . S
C386 H372 0.960 . S
C386 H373 0.960 . S
C386 C385 1.524 . S
C387 C384 1.403 . S
C387 C388 1.392 . S
C387 C391 1.495 . S
C388 C387 1.392 . S
C388 C389 1.385 . S
C388 C390 1.478 . S
C389 H383 0.930 . S
C389 C385 1.400 . S
C389 C388 1.385 . S
C390 C388 1.478 . S
C390 C392 1.381 . S
C390 C396 1.383 . S
C391 C387 1.495 . S
C391 H397 0.959 . S
C391 H398 0.961 . S
C391 H399 0.960 . S
C392 C390 1.381 . S
C392 C393 1.394 . S
C392 H400 0.930 . S
C393 C392 1.394 . S
C393 C394 1.383 . S
C393 H401 0.929 . S
C394 C393 1.383 . S
C394 C395 1.377 . S
C395 H379 0.930 . S
C395 C394 1.377 . S
C395 C396 1.379 . S
C396 H380 0.931 . S
C396 C390 1.383 . S
C396 C395 1.379 . S
H397 C391 0.959 . S
H398 C391 0.961 . S
H399 C391 0.960 . S
H400 C392 0.930 . S
H401 C393 0.929 . S
H402 C410 0.929 . S
H403 C412 0.930 . S
H404 C414 0.930 . S
H405 C417 0.929 . S
H406 C420 0.930 . S
H407 C422 0.960 . S
H408 C422 0.960 . S
H409 C422 0.960 . S
C410 H402 0.929 . S
C410 C411 1.377 . S
C410 C412 1.384 . S
C411 C410 1.377 . S
C411 C417 1.390 . S
C412 H403 0.930 . S
C412 C410 1.384 . S
C412 C413 1.372 . S
C413 C412 1.372 . S
C413 C414 1.400 . S
C413 C418 1.490 . S
C414 H404 0.930 . S
C414 C413 1.400 . S
C414 C417 1.386 . S
H415 C431 0.930 . S
H416 C432 0.931 . S
C417 H405 0.929 . S
C417 C411 1.390 . S
C417 C414 1.386 . S
C418 C413 1.490 . S
C418 C420 1.395 . S
C418 C421 1.403 . S
H419 C425 0.930 . S
C420 H406 0.930 . S
C420 C418 1.395 . S
C420 C423 1.403 . S
C421 C418 1.403 . S
C421 C422 1.524 . S
C421 C425 1.400 . S
C422 H407 0.960 . S
C422 H408 0.960 . S
C422 H409 0.960 . S
C422 C421 1.524 . S
C423 C420 1.403 . S
C423 C424 1.392 . S
C423 C427 1.495 . S
C424 C423 1.392 . S
C424 C425 1.385 . S
C424 C426 1.478 . S
C425 H419 0.930 . S
C425 C421 1.400 . S
C425 C424 1.385 . S
C426 C424 1.478 . S
C426 C428 1.381 . S
C426 C432 1.383 . S
C427 C423 1.495 . S
C427 H433 0.959 . S
C427 H434 0.961 . S
C427 H435 0.960 . S
C428 C426 1.381 . S
C428 C429 1.394 . S
C428 H436 0.930 . S
C429 C428 1.394 . S
C429 C430 1.383 . S
C429 H437 0.929 . S
C430 C429 1.383 . S
C430 C431 1.377 . S
C431 H415 0.930 . S
C431 C430 1.377 . S
C431 C432 1.379 . S
C432 H416 0.931 . S
C432 C426 1.383 . S
C432 C431 1.379 . S
H433 C427 0.959 . S
H434 C427 0.961 . S
H435 C427 0.960 . S
H436 C428 0.930 . S
H437 C429 0.929 . S
H438 C446 0.929 . S
H439 C448 0.930 . S
H440 C450 0.930 . S
H441 C453 0.929 . S
H442 C456 0.930 . S
H443 C458 0.960 . S
H444 C458 0.960 . S
H445 C458 0.960 . S
C446 H438 0.929 . S
C446 C447 1.377 . S
C446 C448 1.384 . S
C447 C446 1.377 . S
C447 C453 1.390 . S
C448 H439 0.930 . S
C448 C446 1.384 . S
C448 C449 1.372 . S
C449 C448 1.372 . S
C449 C450 1.400 . S
C449 C454 1.490 . S
C450 H440 0.930 . S
C450 C449 1.400 . S
C450 C453 1.386 . S
H451 C467 0.930 . S
H452 C468 0.931 . S
C453 H441 0.929 . S
C453 C447 1.390 . S
C453 C450 1.386 . S
C454 C449 1.490 . S
C454 C456 1.395 . S
C454 C457 1.403 . S
H455 C461 0.930 . S
C456 H442 0.930 . S
C456 C454 1.395 . S
C456 C459 1.403 . S
C457 C454 1.403 . S
C457 C458 1.524 . S
C457 C461 1.400 . S
C458 H443 0.960 . S
C458 H444 0.960 . S
C458 H445 0.960 . S
C458 C457 1.524 . S
C459 C456 1.403 . S
C459 C460 1.392 . S
C459 C463 1.495 . S
C460 C459 1.392 . S
C460 C461 1.385 . S
C460 C462 1.478 . S
C461 H455 0.930 . S
C461 C457 1.400 . S
C461 C460 1.385 . S
C462 C460 1.478 . S
C462 C464 1.381 . S
C462 C468 1.383 . S
C463 C459 1.495 . S
C463 H469 0.959 . S
C463 H470 0.961 . S
C463 H471 0.960 . S
C464 C462 1.381 . S
C464 C465 1.394 . S
C464 H472 0.930 . S
C465 C464 1.394 . S
C465 C466 1.383 . S
C465 H473 0.929 . S
C466 C465 1.383 . S
C466 C467 1.377 . S
C467 H451 0.930 . S
C467 C466 1.377 . S
C467 C468 1.379 . S
C468 H452 0.931 . S
C468 C462 1.383 . S
C468 C467 1.379 . S
H469 C463 0.959 . S
H470 C463 0.961 . S
H471 C463 0.960 . S
H472 C464 0.930 . S
H473 C465 0.929 . S
H474 C482 0.929 . S
H475 C484 0.930 . S
H476 C486 0.930 . S
H477 C489 0.929 . S
H478 C492 0.930 . S
H479 C494 0.960 . S
H480 C494 0.960 . S
H481 C494 0.960 . S
C482 H474 0.929 . S
C482 C483 1.377 . S
C482 C484 1.384 . S
C483 C482 1.377 . S
C483 C489 1.390 . S
C484 H475 0.930 . S
C484 C482 1.384 . S
C484 C485 1.372 . S
C485 C484 1.372 . S
C485 C486 1.400 . S
C485 C490 1.490 . S
C486 H476 0.930 . S
C486 C485 1.400 . S
C486 C489 1.386 . S
H487 C503 0.930 . S
H488 C504 0.931 . S
C489 H477 0.929 . S
C489 C483 1.390 . S
C489 C486 1.386 . S
C490 C485 1.490 . S
C490 C492 1.395 . S
C490 C493 1.403 . S
H491 C497 0.930 . S
C492 H478 0.930 . S
C492 C490 1.395 . S
C492 C495 1.403 . S
C493 C490 1.403 . S
C493 C494 1.524 . S
C493 C497 1.400 . S
C494 H479 0.960 . S
C494 H480 0.960 . S
C494 H481 0.960 . S
C494 C493 1.524 . S
C495 C492 1.403 . S
C495 C496 1.392 . S
C495 C499 1.495 . S
C496 C495 1.392 . S
C496 C497 1.385 . S
C496 C498 1.478 . S
C497 H491 0.930 . S
C497 C493 1.400 . S
C497 C496 1.385 . S
C498 C496 1.478 . S
C498 C500 1.381 . S
C498 C504 1.383 . S
C499 C495 1.495 . S
C499 H505 0.959 . S
C499 H506 0.961 . S
C499 H507 0.960 . S
C500 C498 1.381 . S
C500 C501 1.394 . S
C500 H508 0.930 . S
C501 C500 1.394 . S
C501 C502 1.383 . S
C501 H509 0.929 . S
C502 C501 1.383 . S
C502 C503 1.377 . S
C503 H487 0.930 . S
C503 C502 1.377 . S
C503 C504 1.379 . S
C504 H488 0.931 . S
C504 C498 1.383 . S
C504 C503 1.379 . S
H505 C499 0.959 . S
H506 C499 0.961 . S
H507 C499 0.960 . S
H508 C500 0.930 . S
H509 C501 0.929 . S
H510 C518 0.929 . S
H511 C520 0.930 . S
H512 C522 0.930 . S
H513 C525 0.929 . S
H514 C528 0.930 . S
H515 C530 0.960 . S
H516 C530 0.960 . S
H517 C530 0.960 . S
C518 H510 0.929 . S
C518 C519 1.377 1_556 S
C518 C520 1.384 . S
C519 C518 1.377 1_554 S
C519 C525 1.390 . S
C520 H511 0.930 . S
C520 C518 1.384 . S
C520 C521 1.372 1_556 S
C521 C520 1.372 1_554 S
C521 C522 1.400 . S
C521 C526 1.490 . S
C522 H512 0.930 . S
C522 C521 1.400 . S
C522 C525 1.386 . S
H523 C539 0.930 . S
H524 C540 0.931 . S
C525 H513 0.929 . S
C525 C519 1.390 . S
C525 C522 1.386 . S
C526 C521 1.490 . S
C526 C528 1.395 . S
C526 C529 1.403 . S
H527 C533 0.930 . S
C528 H514 0.930 . S
C528 C526 1.395 . S
C528 C531 1.403 . S
C529 C526 1.403 . S
C529 C530 1.524 . S
C529 C533 1.400 . S
C530 H515 0.960 . S
C530 H516 0.960 . S
C530 H517 0.960 . S
C530 C529 1.524 . S
C531 C528 1.403 . S
C531 C532 1.392 . S
C531 C535 1.495 . S
C532 C531 1.392 . S
C532 C533 1.385 . S
C532 C534 1.478 . S
C533 H527 0.930 . S
C533 C529 1.400 . S
C533 C532 1.385 . S
C534 C532 1.478 . S
C534 C536 1.381 . S
C534 C540 1.383 . S
C535 C531 1.495 . S
C535 H541 0.959 . S
C535 H542 0.961 . S
C535 H543 0.960 . S
C536 C534 1.381 . S
C536 C537 1.394 . S
C536 H544 0.930 . S
C537 C536 1.394 . S
C537 C538 1.383 . S
C537 H545 0.929 . S
C538 C537 1.383 . S
C538 C539 1.377 . S
C539 H523 0.930 . S
C539 C538 1.377 . S
C539 C540 1.379 . S
C540 H524 0.931 . S
C540 C534 1.383 . S
C540 C539 1.379 . S
H541 C535 0.959 . S
H542 C535 0.961 . S
H543 C535 0.960 . S
H544 C536 0.930 . S
H545 C537 0.929 . S
H546 C554 0.929 . S
H547 C556 0.930 . S
H548 C558 0.930 . S
H549 C561 0.929 . S
H550 C564 0.930 . S
H551 C566 0.960 . S
H552 C566 0.960 . S
H553 C566 0.960 . S
C554 H546 0.929 . S
C554 C555 1.377 . S
C554 C556 1.384 . S
C555 C554 1.377 . S
C555 C561 1.390 . S
C556 H547 0.930 . S
C556 C554 1.384 . S
C556 C557 1.372 . S
C557 C556 1.372 . S
C557 C558 1.400 . S
C557 C562 1.490 . S
C558 H548 0.930 . S
C558 C557 1.400 . S
C558 C561 1.386 . S
H559 C575 0.930 . S
H560 C576 0.931 . S
C561 H549 0.929 . S
C561 C555 1.390 . S
C561 C558 1.386 . S
C562 C557 1.490 . S
C562 C564 1.395 . S
C562 C565 1.403 . S
H563 C569 0.930 . S
C564 H550 0.930 . S
C564 C562 1.395 . S
C564 C567 1.403 . S
C565 C562 1.403 . S
C565 C566 1.524 . S
C565 C569 1.400 . S
C566 H551 0.960 . S
C566 H552 0.960 . S
C566 H553 0.960 . S
C566 C565 1.524 . S
C567 C564 1.403 . S
C567 C568 1.392 . S
C567 C571 1.495 . S
C568 C567 1.392 . S
C568 C569 1.385 . S
C568 C570 1.478 . S
C569 H563 0.930 . S
C569 C565 1.400 . S
C569 C568 1.385 . S
C570 C568 1.478 . S
C570 C572 1.381 . S
C570 C576 1.383 . S
C571 C567 1.495 . S
C571 H577 0.959 . S
C571 H578 0.961 . S
C571 H579 0.960 . S
C572 C570 1.381 . S
C572 C573 1.394 . S
C572 H580 0.930 . S
C573 C572 1.394 . S
C573 C574 1.383 . S
C573 H581 0.929 . S
C574 C573 1.383 . S
C574 C575 1.377 . S
C575 H559 0.930 . S
C575 C574 1.377 . S
C575 C576 1.379 . S
C576 H560 0.931 . S
C576 C570 1.383 . S
C576 C575 1.379 . S
H577 C571 0.959 . S
H578 C571 0.961 . S
H579 C571 0.960 . S
H580 C572 0.930 . S
H581 C573 0.929 . S
H582 C590 0.929 . S
H583 C592 0.930 . S
H584 C594 0.930 . S
H585 C597 0.929 . S
H586 C600 0.930 . S
H587 C602 0.960 . S
H588 C602 0.960 . S
H589 C602 0.960 . S
C590 H582 0.929 . S
C590 C591 1.377 . S
C590 C592 1.384 . S
C591 C590 1.377 . S
C591 C597 1.390 . S
C592 H583 0.930 . S
C592 C590 1.384 . S
C592 C593 1.372 . S
C593 C592 1.372 . S
C593 C594 1.400 . S
C593 C598 1.490 . S
C594 H584 0.930 . S
C594 C593 1.400 . S
C594 C597 1.386 . S
H595 C611 0.930 . S
H596 C612 0.931 . S
C597 H585 0.929 . S
C597 C591 1.390 . S
C597 C594 1.386 . S
C598 C593 1.490 . S
C598 C600 1.395 . S
C598 C601 1.403 . S
H599 C605 0.930 . S
C600 H586 0.930 . S
C600 C598 1.395 . S
C600 C603 1.403 . S
C601 C598 1.403 . S
C601 C602 1.524 . S
C601 C605 1.400 . S
C602 H587 0.960 . S
C602 H588 0.960 . S
C602 H589 0.960 . S
C602 C601 1.524 . S
C603 C600 1.403 . S
C603 C604 1.392 . S
C603 C607 1.495 . S
C604 C603 1.392 . S
C604 C605 1.385 . S
C604 C606 1.478 . S
C605 H599 0.930 . S
C605 C601 1.400 . S
C605 C604 1.385 . S
C606 C604 1.478 . S
C606 C608 1.381 . S
C606 C612 1.383 . S
C607 C603 1.495 . S
C607 H613 0.959 . S
C607 H614 0.961 . S
C607 H615 0.960 . S
C608 C606 1.381 . S
C608 C609 1.394 . S
C608 H616 0.930 . S
C609 C608 1.394 . S
C609 C610 1.383 . S
C609 H617 0.929 . S
C610 C609 1.383 . S
C610 C611 1.377 . S
C611 H595 0.930 . S
C611 C610 1.377 . S
C611 C612 1.379 . S
C612 H596 0.931 . S
C612 C606 1.383 . S
C612 C611 1.379 . S
H613 C607 0.959 . S
H614 C607 0.961 . S
H615 C607 0.960 . S
H616 C608 0.930 . S
H617 C609 0.929 . S
H618 C626 0.929 . S
H619 C628 0.930 . S
H620 C630 0.930 . S
H621 C633 0.929 . S
H622 C636 0.930 . S
H623 C638 0.960 . S
H624 C638 0.960 . S
H625 C638 0.960 . S
C626 H618 0.929 . S
C626 C627 1.377 . S
C626 C628 1.384 . S
C627 C626 1.377 . S
C627 C633 1.390 . S
C628 H619 0.930 . S
C628 C626 1.384 . S
C628 C629 1.372 . S
C629 C628 1.372 . S
C629 C630 1.400 . S
C629 C634 1.490 . S
C630 H620 0.930 . S
C630 C629 1.400 . S
C630 C633 1.386 . S
H631 C647 0.930 . S
H632 C648 0.931 . S
C633 H621 0.929 . S
C633 C627 1.390 . S
C633 C630 1.386 . S
C634 C629 1.490 . S
C634 C636 1.395 . S
C634 C637 1.403 . S
H635 C641 0.930 . S
C636 H622 0.930 . S
C636 C634 1.395 . S
C636 C639 1.403 . S
C637 C634 1.403 . S
C637 C638 1.524 . S
C637 C641 1.400 . S
C638 H623 0.960 . S
C638 H624 0.960 . S
C638 H625 0.960 . S
C638 C637 1.524 . S
C639 C636 1.403 . S
C639 C640 1.392 . S
C639 C643 1.495 . S
C640 C639 1.392 . S
C640 C641 1.385 . S
C640 C642 1.478 . S
C641 H635 0.930 . S
C641 C637 1.400 . S
C641 C640 1.385 . S
C642 C640 1.478 . S
C642 C644 1.381 . S
C642 C648 1.383 . S
C643 C639 1.495 . S
C643 H649 0.959 . S
C643 H650 0.961 . S
C643 H651 0.960 . S
C644 C642 1.381 . S
C644 C645 1.394 . S
C644 H652 0.930 . S
C645 C644 1.394 . S
C645 C646 1.383 . S
C645 H653 0.929 . S
C646 C645 1.383 . S
C646 C647 1.377 . S
C647 H631 0.930 . S
C647 C646 1.377 . S
C647 C648 1.379 . S
C648 H632 0.931 . S
C648 C642 1.383 . S
C648 C647 1.379 . S
H649 C643 0.959 . S
H650 C643 0.961 . S
H651 C643 0.960 . S
H652 C644 0.930 . S
H653 C645 0.929 . S
H654 C662 0.929 . S
H655 C664 0.930 . S
H656 C666 0.930 . S
H657 C669 0.929 . S
H658 C672 0.930 . S
H659 C674 0.960 . S
H660 C674 0.960 . S
H661 C674 0.960 . S
C662 H654 0.929 . S
C662 C663 1.377 . S
C662 C664 1.384 . S
C663 C662 1.377 . S
C663 C669 1.390 . S
C664 H655 0.930 . S
C664 C662 1.384 . S
C664 C665 1.372 . S
C665 C664 1.372 . S
C665 C666 1.400 . S
C665 C670 1.490 . S
C666 H656 0.930 . S
C666 C665 1.400 . S
C666 C669 1.386 . S
H667 C683 0.930 . S
H668 C684 0.931 . S
C669 H657 0.929 . S
C669 C663 1.390 . S
C669 C666 1.386 . S
C670 C665 1.490 . S
C670 C672 1.395 . S
C670 C673 1.403 . S
H671 C677 0.930 . S
C672 H658 0.930 . S
C672 C670 1.395 . S
C672 C675 1.403 . S
C673 C670 1.403 . S
C673 C674 1.524 . S
C673 C677 1.400 . S
C674 H659 0.960 . S
C674 H660 0.960 . S
C674 H661 0.960 . S
C674 C673 1.524 . S
C675 C672 1.403 . S
C675 C676 1.392 . S
C675 C679 1.495 . S
C676 C675 1.392 . S
C676 C677 1.385 . S
C676 C678 1.478 . S
C677 H671 0.930 . S
C677 C673 1.400 . S
C677 C676 1.385 . S
C678 C676 1.478 . S
C678 C680 1.381 . S
C678 C684 1.383 . S
C679 C675 1.495 . S
C679 H685 0.959 . S
C679 H686 0.961 . S
C679 H687 0.960 . S
C680 C678 1.381 . S
C680 C681 1.394 . S
C680 H688 0.930 . S
C681 C680 1.394 . S
C681 C682 1.383 . S
C681 H689 0.929 . S
C682 C681 1.383 . S
C682 C683 1.377 . S
C683 H667 0.930 . S
C683 C682 1.377 . S
C683 C684 1.379 . S
C684 H668 0.931 . S
C684 C678 1.383 . S
C684 C683 1.379 . S
H685 C679 0.959 . S
H686 C679 0.961 . S
H687 C679 0.960 . S
H688 C680 0.930 . S
H689 C681 0.929 . S
H690 C698 0.929 . S
H691 C700 0.930 . S
H692 C702 0.930 . S
H693 C705 0.929 . S
H694 C708 0.930 . S
H695 C710 0.960 . S
H696 C710 0.960 . S
H697 C710 0.960 . S
C698 H690 0.929 . S
C698 C699 1.377 . S
C698 C700 1.384 . S
C699 C698 1.377 . S
C699 C705 1.390 . S
C700 H691 0.930 . S
C700 C698 1.384 . S
C700 C701 1.372 . S
C701 C700 1.372 . S
C701 C702 1.400 . S
C701 C706 1.490 . S
C702 H692 0.930 . S
C702 C701 1.400 . S
C702 C705 1.386 . S
H703 C719 0.930 . S
H704 C720 0.931 . S
C705 H693 0.929 . S
C705 C699 1.390 . S
C705 C702 1.386 . S
C706 C701 1.490 . S
C706 C708 1.395 . S
C706 C709 1.403 . S
H707 C713 0.930 . S
C708 H694 0.930 . S
C708 C706 1.395 . S
C708 C711 1.403 . S
C709 C706 1.403 . S
C709 C710 1.524 . S
C709 C713 1.400 . S
C710 H695 0.960 . S
C710 H696 0.960 . S
C710 H697 0.960 . S
C710 C709 1.524 . S
C711 C708 1.403 . S
C711 C712 1.392 . S
C711 C715 1.495 . S
C712 C711 1.392 . S
C712 C713 1.385 . S
C712 C714 1.478 . S
C713 H707 0.930 . S
C713 C709 1.400 . S
C713 C712 1.385 . S
C714 C712 1.478 . S
C714 C716 1.381 . S
C714 C720 1.383 . S
C715 C711 1.495 . S
C715 H721 0.959 . S
C715 H722 0.961 . S
C715 H723 0.960 . S
C716 C714 1.381 . S
C716 C717 1.394 . S
C716 H724 0.930 . S
C717 C716 1.394 . S
C717 C718 1.383 . S
C717 H725 0.929 . S
C718 C717 1.383 . S
C718 C719 1.377 . S
C719 H703 0.930 . S
C719 C718 1.377 . S
C719 C720 1.379 . S
C720 H704 0.931 . S
C720 C714 1.383 . S
C720 C719 1.379 . S
H721 C715 0.959 . S
H722 C715 0.961 . S
H723 C715 0.960 . S
H724 C716 0.930 . S
H725 C717 0.929 . S
H726 C734 0.929 . S
H727 C736 0.930 . S
H728 C738 0.930 . S
H729 C741 0.929 . S
H730 C744 0.930 . S
H731 C746 0.960 . S
H732 C746 0.960 . S
H733 C746 0.960 . S
C734 H726 0.929 . S
C734 C735 1.377 . S
C734 C736 1.384 . S
C735 C734 1.377 . S
C735 C741 1.390 . S
C736 H727 0.930 . S
C736 C734 1.384 . S
C736 C737 1.372 . S
C737 C736 1.372 . S
C737 C738 1.400 . S
C737 C742 1.490 . S
C738 H728 0.930 . S
C738 C737 1.400 . S
C738 C741 1.386 . S
H739 C755 0.930 . S
H740 C756 0.931 . S
C741 H729 0.929 . S
C741 C735 1.390 . S
C741 C738 1.386 . S
C742 C737 1.490 . S
C742 C744 1.395 . S
C742 C745 1.403 . S
H743 C749 0.930 . S
C744 H730 0.930 . S
C744 C742 1.395 . S
C744 C747 1.403 . S
C745 C742 1.403 . S
C745 C746 1.524 . S
C745 C749 1.400 . S
C746 H731 0.960 . S
C746 H732 0.960 . S
C746 H733 0.960 . S
C746 C745 1.524 . S
C747 C744 1.403 . S
C747 C748 1.392 . S
C747 C751 1.495 . S
C748 C747 1.392 . S
C748 C749 1.385 . S
C748 C750 1.478 . S
C749 H743 0.930 . S
C749 C745 1.400 . S
C749 C748 1.385 . S
C750 C748 1.478 . S
C750 C752 1.381 . S
C750 C756 1.383 . S
C751 C747 1.495 . S
C751 H757 0.959 . S
C751 H758 0.961 . S
C751 H759 0.960 . S
C752 C750 1.381 . S
C752 C753 1.394 . S
C752 H760 0.930 . S
C753 C752 1.394 . S
C753 C754 1.383 1_556 S
C753 H761 0.929 . S
C754 C753 1.383 1_554 S
C754 C755 1.377 . S
C755 H739 0.930 . S
C755 C754 1.377 . S
C755 C756 1.379 1_554 S
C756 H740 0.931 . S
C756 C750 1.383 . S
C756 C755 1.379 1_556 S
H757 C751 0.959 . S
H758 C751 0.961 . S
H759 C751 0.960 . S
H760 C752 0.930 . S
H761 C753 0.929 . S
H762 C770 0.929 . S
H763 C772 0.930 . S
H764 C774 0.930 . S
H765 C777 0.929 . S
H766 C780 0.930 . S
H767 C782 0.960 . S
H768 C782 0.960 . S
H769 C782 0.960 . S
C770 H762 0.929 . S
C770 C771 1.377 . S
C770 C772 1.384 . S
C771 C770 1.377 . S
C771 C777 1.390 . S
C772 H763 0.930 . S
C772 C770 1.384 . S
C772 C773 1.372 . S
C773 C772 1.372 . S
C773 C774 1.400 . S
C773 C778 1.490 . S
C774 H764 0.930 . S
C774 C773 1.400 . S
C774 C777 1.386 . S
H775 C791 0.930 . S
H776 C792 0.931 . S
C777 H765 0.929 . S
C777 C771 1.390 . S
C777 C774 1.386 . S
C778 C773 1.490 . S
C778 C780 1.395 . S
C778 C781 1.403 . S
H779 C785 0.930 . S
C780 H766 0.930 . S
C780 C778 1.395 . S
C780 C783 1.403 . S
C781 C778 1.403 . S
C781 C782 1.524 . S
C781 C785 1.400 . S
C782 H767 0.960 . S
C782 H768 0.960 . S
C782 H769 0.960 . S
C782 C781 1.524 . S
C783 C780 1.403 . S
C783 C784 1.392 . S
C783 C787 1.495 . S
C784 C783 1.392 . S
C784 C785 1.385 . S
C784 C786 1.478 . S
C785 H779 0.930 . S
C785 C781 1.400 . S
C785 C784 1.385 . S
C786 C784 1.478 . S
C786 C788 1.381 . S
C786 C792 1.383 . S
C787 C783 1.495 . S
C787 H793 0.959 . S
C787 H794 0.961 . S
C787 H795 0.960 . S
C788 C786 1.381 . S
C788 C789 1.394 . S
C788 H796 0.930 . S
C789 C788 1.394 . S
C789 C790 1.383 . S
C789 H797 0.929 . S
C790 C789 1.383 . S
C790 C791 1.377 . S
C791 H775 0.930 . S
C791 C790 1.377 . S
C791 C792 1.379 . S
C792 H776 0.931 . S
C792 C786 1.383 . S
C792 C791 1.379 . S
H793 C787 0.959 . S
H794 C787 0.961 . S
H795 C787 0.960 . S
H796 C788 0.930 . S
H797 C789 0.929 . S
H798 C806 0.929 . S
H799 C808 0.930 . S
H800 C810 0.930 . S
H801 C813 0.929 . S
H802 C816 0.930 . S
H803 C818 0.960 . S
H804 C818 0.960 . S
H805 C818 0.960 . S
C806 H798 0.929 . S
C806 C807 1.377 . S
C806 C808 1.384 . S
C807 C806 1.377 . S
C807 C813 1.390 . S
C808 H799 0.930 . S
C808 C806 1.384 . S
C808 C809 1.372 . S
C809 C808 1.372 . S
C809 C810 1.400 . S
C809 C814 1.490 . S
C810 H800 0.930 . S
C810 C809 1.400 . S
C810 C813 1.386 . S
H811 C827 0.930 . S
H812 C828 0.931 . S
C813 H801 0.929 . S
C813 C807 1.390 . S
C813 C810 1.386 . S
C814 C809 1.490 . S
C814 C816 1.395 . S
C814 C817 1.403 . S
H815 C821 0.930 . S
C816 H802 0.930 . S
C816 C814 1.395 . S
C816 C819 1.403 . S
C817 C814 1.403 . S
C817 C818 1.524 . S
C817 C821 1.400 . S
C818 H803 0.960 . S
C818 H804 0.960 . S
C818 H805 0.960 . S
C818 C817 1.524 . S
C819 C816 1.403 . S
C819 C820 1.392 . S
C819 C823 1.495 . S
C820 C819 1.392 . S
C820 C821 1.385 . S
C820 C822 1.478 . S
C821 H815 0.930 . S
C821 C817 1.400 . S
C821 C820 1.385 . S
C822 C820 1.478 . S
C822 C824 1.381 . S
C822 C828 1.383 . S
C823 C819 1.495 . S
C823 H829 0.959 . S
C823 H830 0.961 . S
C823 H831 0.960 . S
C824 C822 1.381 . S
C824 C825 1.394 . S
C824 H832 0.930 . S
C825 C824 1.394 . S
C825 C826 1.383 . S
C825 H833 0.929 . S
C826 C825 1.383 . S
C826 C827 1.377 . S
C827 H811 0.930 . S
C827 C826 1.377 . S
C827 C828 1.379 . S
C828 H812 0.931 . S
C828 C822 1.383 . S
C828 C827 1.379 . S
H829 C823 0.959 . S
H830 C823 0.961 . S
H831 C823 0.960 . S
H832 C824 0.930 . S
H833 C825 0.929 . S
H834 C842 0.929 . S
H835 C844 0.930 . S
H836 C846 0.930 . S
H837 C849 0.929 . S
H838 C852 0.930 . S
H839 C854 0.960 . S
H840 C854 0.960 . S
H841 C854 0.960 . S
C842 H834 0.929 . S
C842 C843 1.377 . S
C842 C844 1.384 . S
C843 C842 1.377 . S
C843 C849 1.390 . S
C844 H835 0.930 . S
C844 C842 1.384 . S
C844 C845 1.372 . S
C845 C844 1.372 . S
C845 C846 1.400 . S
C845 C850 1.490 . S
C846 H836 0.930 . S
C846 C845 1.400 . S
C846 C849 1.386 . S
H847 C863 0.930 . S
H848 C864 0.931 . S
C849 H837 0.929 . S
C849 C843 1.390 . S
C849 C846 1.386 . S
C850 C845 1.490 . S
C850 C852 1.395 . S
C850 C853 1.403 . S
H851 C857 0.930 . S
C852 H838 0.930 . S
C852 C850 1.395 . S
C852 C855 1.403 . S
C853 C850 1.403 . S
C853 C854 1.524 . S
C853 C857 1.400 . S
C854 H839 0.960 . S
C854 H840 0.960 . S
C854 H841 0.960 . S
C854 C853 1.524 . S
C855 C852 1.403 . S
C855 C856 1.392 . S
C855 C859 1.495 . S
C856 C855 1.392 . S
C856 C857 1.385 . S
C856 C858 1.478 . S
C857 H851 0.930 . S
C857 C853 1.400 . S
C857 C856 1.385 . S
C858 C856 1.478 . S
C858 C860 1.381 . S
C858 C864 1.383 . S
C859 C855 1.495 . S
C859 H865 0.959 . S
C859 H866 0.961 . S
C859 H867 0.960 . S
C860 C858 1.381 . S
C860 C861 1.394 . S
C860 H868 0.930 . S
C861 C860 1.394 . S
C861 C862 1.383 . S
C861 H869 0.929 . S
C862 C861 1.383 . S
C862 C863 1.377 . S
C863 H847 0.930 . S
C863 C862 1.377 . S
C863 C864 1.379 . S
C864 H848 0.931 . S
C864 C858 1.383 . S
C864 C863 1.379 . S
H865 C859 0.959 . S
H866 C859 0.961 . S
H867 C859 0.960 . S
H868 C860 0.930 . S
H869 C861 0.929 . S
H870 C878 0.929 . S
H871 C880 0.930 . S
H872 C882 0.930 . S
H873 C885 0.929 . S
H874 C888 0.930 . S
H875 C890 0.960 . S
H876 C890 0.960 . S
H877 C890 0.960 . S
C878 H870 0.929 . S
C878 C879 1.377 . S
C878 C880 1.384 . S
C879 C878 1.377 . S
C879 C885 1.390 . S
C880 H871 0.930 . S
C880 C878 1.384 . S
C880 C881 1.372 . S
C881 C880 1.372 . S
C881 C882 1.400 . S
C881 C886 1.490 . S
C882 H872 0.930 . S
C882 C881 1.400 . S
C882 C885 1.386 . S
H883 C899 0.930 . S
H884 C900 0.931 . S
C885 H873 0.929 . S
C885 C879 1.390 . S
C885 C882 1.386 . S
C886 C881 1.490 . S
C886 C888 1.395 . S
C886 C889 1.403 . S
H887 C893 0.930 . S
C888 H874 0.930 . S
C888 C886 1.395 . S
C888 C891 1.403 . S
C889 C886 1.403 . S
C889 C890 1.524 . S
C889 C893 1.400 . S
C890 H875 0.960 . S
C890 H876 0.960 . S
C890 H877 0.960 . S
C890 C889 1.524 . S
C891 C888 1.403 . S
C891 C892 1.392 . S
C891 C895 1.495 . S
C892 C891 1.392 . S
C892 C893 1.385 . S
C892 C894 1.478 . S
C893 H887 0.930 . S
C893 C889 1.400 . S
C893 C892 1.385 . S
C894 C892 1.478 . S
C894 C896 1.381 . S
C894 C900 1.383 . S
C895 C891 1.495 . S
C895 H901 0.959 . S
C895 H902 0.961 . S
C895 H903 0.960 . S
C896 C894 1.381 . S
C896 C897 1.394 . S
C896 H904 0.930 . S
C897 C896 1.394 . S
C897 C898 1.383 . S
C897 H905 0.929 . S
C898 C897 1.383 . S
C898 C899 1.377 . S
C899 H883 0.930 . S
C899 C898 1.377 . S
C899 C900 1.379 . S
C900 H884 0.931 . S
C900 C894 1.383 . S
C900 C899 1.379 . S
H901 C895 0.959 . S
H902 C895 0.961 . S
H903 C895 0.960 . S
H904 C896 0.930 . S
H905 C897 0.929 . S
H906 C914 0.929 . S
H907 C916 0.930 . S
H908 C918 0.930 . S
H909 C921 0.929 . S
H910 C924 0.930 . S
H911 C926 0.960 . S
H912 C926 0.960 . S
H913 C926 0.960 . S
C914 H906 0.929 . S
C914 C915 1.377 . S
C914 C916 1.384 . S
C915 C914 1.377 . S
C915 C921 1.390 . S
C916 H907 0.930 . S
C916 C914 1.384 . S
C916 C917 1.372 . S
C917 C916 1.372 . S
C917 C918 1.400 . S
C917 C922 1.490 . S
C918 H908 0.930 . S
C918 C917 1.400 . S
C918 C921 1.386 . S
H919 C935 0.930 . S
H920 C936 0.931 . S
C921 H909 0.929 . S
C921 C915 1.390 . S
C921 C918 1.386 . S
C922 C917 1.490 . S
C922 C924 1.395 . S
C922 C925 1.403 . S
H923 C929 0.930 . S
C924 H910 0.930 . S
C924 C922 1.395 . S
C924 C927 1.403 . S
C925 C922 1.403 . S
C925 C926 1.524 . S
C925 C929 1.400 . S
C926 H911 0.960 . S
C926 H912 0.960 . S
C926 H913 0.960 . S
C926 C925 1.524 . S
C927 C924 1.403 . S
C927 C928 1.392 . S
C927 C931 1.495 . S
C928 C927 1.392 . S
C928 C929 1.385 . S
C928 C930 1.478 . S
C929 H923 0.930 . S
C929 C925 1.400 . S
C929 C928 1.385 . S
C930 C928 1.478 . S
C930 C932 1.381 . S
C930 C936 1.383 . S
C931 C927 1.495 . S
C931 H937 0.959 . S
C931 H938 0.961 . S
C931 H939 0.960 . S
C932 C930 1.381 . S
C932 C933 1.394 . S
C932 H940 0.930 . S
C933 C932 1.394 . S
C933 C934 1.383 . S
C933 H941 0.929 . S
C934 C933 1.383 . S
C934 C935 1.377 . S
C935 H919 0.930 . S
C935 C934 1.377 . S
C935 C936 1.379 . S
C936 H920 0.931 . S
C936 C930 1.383 . S
C936 C935 1.379 . S
H937 C931 0.959 . S
H938 C931 0.961 . S
H939 C931 0.960 . S
H940 C932 0.930 . S
H941 C933 0.929 . S
H942 C950 0.929 . S
H943 C952 0.930 . S
H944 C954 0.930 . S
H945 C957 0.929 . S
H946 C960 0.930 . S
H947 C962 0.960 . S
H948 C962 0.960 . S
H949 C962 0.960 . S
C950 H942 0.929 . S
C950 C951 1.377 . S
C950 C952 1.384 . S
C951 C950 1.377 . S
C951 C957 1.390 . S
C952 H943 0.930 . S
C952 C950 1.384 . S
C952 C953 1.372 . S
C953 C952 1.372 . S
C953 C954 1.400 . S
C953 C958 1.490 . S
C954 H944 0.930 . S
C954 C953 1.400 . S
C954 C957 1.386 . S
H955 C971 0.930 . S
H956 C972 0.931 . S
C957 H945 0.929 . S
C957 C951 1.390 . S
C957 C954 1.386 . S
C958 C953 1.490 . S
C958 C960 1.395 . S
C958 C961 1.403 . S
H959 C965 0.930 . S
C960 H946 0.930 . S
C960 C958 1.395 . S
C960 C963 1.403 . S
C961 C958 1.403 . S
C961 C962 1.524 . S
C961 C965 1.400 . S
C962 H947 0.960 . S
C962 H948 0.960 . S
C962 H949 0.960 . S
C962 C961 1.524 . S
C963 C960 1.403 . S
C963 C964 1.392 . S
C963 C967 1.495 . S
C964 C963 1.392 . S
C964 C965 1.385 . S
C964 C966 1.478 . S
C965 H959 0.930 . S
C965 C961 1.400 . S
C965 C964 1.385 . S
C966 C964 1.478 . S
C966 C968 1.381 . S
C966 C972 1.383 . S
C967 C963 1.495 . S
C967 H973 0.959 . S
C967 H974 0.961 . S
C967 H975 0.960 . S
C968 C966 1.381 . S
C968 C969 1.394 . S
C968 H976 0.930 . S
C969 C968 1.394 . S
C969 C970 1.383 . S
C969 H977 0.929 . S
C970 C969 1.383 . S
C970 C971 1.377 . S
C971 H955 0.930 . S
C971 C970 1.377 . S
C971 C972 1.379 . S
C972 H956 0.931 . S
C972 C966 1.383 . S
C972 C971 1.379 . S
H973 C967 0.959 . S
H974 C967 0.961 . S
H975 C967 0.960 . S
H976 C968 0.930 . S
H977 C969 0.929 . S
H978 C986 0.929 . S
H979 C988 0.930 . S
H980 C990 0.930 . S
H981 C993 0.929 . S
H982 C996 0.930 . S
H983 C998 0.960 . S
H984 C998 0.960 . S
H985 C998 0.960 . S
C986 H978 0.929 . S
C986 C987 1.377 . S
C986 C988 1.384 . S
C987 C986 1.377 . S
C987 C993 1.390 . S
C988 H979 0.930 . S
C988 C986 1.384 . S
C988 C989 1.372 . S
C989 C988 1.372 . S
C989 C990 1.400 . S
C989 C994 1.490 . S
C990 H980 0.930 . S
C990 C989 1.400 . S
C990 C993 1.386 . S
H991 C1007 0.930 . S
H992 C1008 0.931 . S
C993 H981 0.929 . S
C993 C987 1.390 . S
C993 C990 1.386 . S
C994 C989 1.490 . S
C994 C996 1.395 . S
C994 C997 1.403 . S
H995 C1001 0.930 . S
C996 H982 0.930 . S
C996 C994 1.395 . S
C996 C999 1.403 . S
C997 C994 1.403 . S
C997 C998 1.524 . S
C997 C1001 1.400 . S
C998 H983 0.960 . S
C998 H984 0.960 . S
C998 H985 0.960 . S
C998 C997 1.524 . S
C999 C996 1.403 . S
C999 C1000 1.392 . S
C999 C1003 1.502 . S
C1000 C999 1.392 . S
C1000 C1001 1.385 . S
C1000 C1002 1.478 1_554 S
C1001 H995 0.930 . S
C1001 C997 1.400 . S
C1001 C1000 1.385 . S
C1002 C1000 1.478 1_556 S
C1002 C1004 1.381 . S
C1002 C1008 1.383 . S
C1003 C999 1.502 . S
C1003 H1009 0.966 . S
C1003 H1010 0.946 1_554 S
C1003 H1011 0.961 . S
C1004 C1002 1.381 . S
C1004 C1005 1.394 . S
C1004 H1012 0.939 . S
C1005 C1004 1.394 . S
C1005 C1006 1.383 . S
C1005 H1013 0.929 . S
C1006 C1005 1.383 . S
C1006 C1007 1.377 . S
C1007 H991 0.930 . S
C1007 C1006 1.377 . S
C1007 C1008 1.379 . S
C1008 H992 0.931 . S
C1008 C1002 1.383 . S
C1008 C1007 1.379 . S
H1009 C1003 0.966 . S
H1010 C1003 0.946 1_556 S
H1011 C1003 0.961 . S
H1012 C1004 0.939 . S
H1013 C1005 0.929 . S
H1014 C1022 0.929 . S
H1015 C1024 0.930 . S
H1016 C1026 0.930 . S
H1017 C1029 0.929 . S
H1018 C1032 0.930 . S
H1019 C1034 0.960 . S
H1020 C1034 0.960 . S
H1021 C1034 0.960 . S
C1022 H1014 0.929 . S
C1022 C1023 1.377 . S
C1022 C1024 1.384 . S
C1023 C1022 1.377 . S
C1023 C1029 1.390 . S
C1024 H1015 0.930 . S
C1024 C1022 1.384 . S
C1024 C1025 1.372 . S
C1025 C1024 1.372 . S
C1025 C1026 1.400 . S
C1025 C1030 1.490 . S
C1026 H1016 0.930 . S
C1026 C1025 1.400 . S
C1026 C1029 1.386 . S
H1027 C1043 0.930 . S
H1028 C1044 0.931 . S
C1029 H1017 0.929 . S
C1029 C1023 1.390 . S
C1029 C1026 1.386 . S
C1030 C1025 1.490 . S
C1030 C1032 1.395 . S
C1030 C1033 1.403 . S
H1031 C1037 0.930 . S
C1032 H1018 0.930 . S
C1032 C1030 1.395 . S
C1032 C1035 1.403 . S
C1033 C1030 1.403 . S
C1033 C1034 1.524 . S
C1033 C1037 1.400 . S
C1034 H1019 0.960 . S
C1034 H1020 0.960 . S
C1034 H1021 0.960 . S
C1034 C1033 1.524 . S
C1035 C1032 1.403 . S
C1035 C1036 1.392 . S
C1035 C1039 1.495 . S
C1036 C1035 1.392 . S
C1036 C1037 1.385 . S
C1036 C1038 1.478 . S
C1037 H1031 0.930 . S
C1037 C1033 1.400 . S
C1037 C1036 1.385 . S
C1038 C1036 1.478 . S
C1038 C1040 1.381 . S
C1038 C1044 1.383 . S
C1039 C1035 1.495 . S
C1039 H1045 0.959 . S
C1039 H1046 0.961 . S
C1039 H1047 0.960 . S
C1040 C1038 1.381 . S
C1040 C1041 1.394 . S
C1040 H1048 0.930 . S
C1041 C1040 1.394 . S
C1041 C1042 1.383 . S
C1041 H1049 0.929 . S
C1042 C1041 1.383 . S
C1042 C1043 1.377 . S
C1043 H1027 0.930 . S
C1043 C1042 1.377 . S
C1043 C1044 1.379 . S
C1044 H1028 0.931 . S
C1044 C1038 1.383 . S
C1044 C1043 1.379 . S
H1045 C1039 0.959 . S
H1046 C1039 0.961 . S
H1047 C1039 0.960 . S
H1048 C1040 0.930 . S
H1049 C1041 0.929 . S
C214 C183 1.548 . S
C195 C8 1.507 . S
C231 C26 1.480 . S
C250 C108 1.457 . S
C267 C50 1.519 . S
C286 C131 1.565 . S
C303 C68 1.423 . S
C322 C144 1.453 . S
C358 C147 1.507 . S
C339 C80 1.514 . S
C375 C104 1.426 . S
C394 C160 1.451 . S
C411 C32 1.422 . S
C430 C121 1.420 . S
C447 C44 1.509 . S
C466 C134 1.485 . S
C483 C62 1.412 . S
C502 C157 1.454 . S
C538 C170 1.563 . S
C519 C86 1.503 1_554 S
C574 C173 1.497 . S
C555 C98 1.485 . S
C610 C118 1.553 . S
C591 C14 1.503 . S
C627 C7 1.446 . S
C646 C129 1.464 . S
C663 C25 1.428 . S
C682 C142 1.429 . S
C718 C152 1.449 . S
C699 C52 1.457 . S
C735 C70 1.435 . S
C754 C165 1.439 . S
C790 C181 1.456 . S
C771 C79 1.471 . S
C826 C113 1.440 . S
C807 C106 1.424 . S
C862 C178 1.415 . S
C843 C34 1.423 . S
C879 C43 1.466 . S
C898 C116 1.455 . S
C934 C126 1.442 . S
C915 C61 1.433 . S
C951 C88 1.459 . S
C970 C139 1.459 . S
C987 C97 1.428 . S
C1006 C155 1.430 . S
C1023 C16 1.449 . S
C1042 C168 1.465 . S
