# Generated by pormake.
# Topology pyr, (3,6)-cn, num edge types: 1
# Building blocks:
#     Node 0, Type 0, BuildingBlock: BELTOD_clean_linker_0, # of connection points: 3
#     Node 1, Type 0, BuildingBlock: BELTOD_clean_linker_0, # of connection points: 3
#     Node 2, Type 0, BuildingBlock: BELTOD_clean_linker_0, # of connection points: 3
#     Node 3, Type 0, BuildingBlock: BELTOD_clean_linker_0, # of connection points: 3
#     Node 4, Type 0, BuildingBlock: BELTOD_clean_linker_0, # of connection points: 3
#     Node 5, Type 0, BuildingBlock: BELTOD_clean_linker_0, # of connection points: 3
#     Node 6, Type 0, BuildingBlock: BELTOD_clean_linker_0, # of connection points: 3
#     Node 7, Type 0, BuildingBlock: BELTOD_clean_linker_0, # of connection points: 3
#     Node 8, Type 1, BuildingBlock: MIDCAF_clean_sbu_0, # of connection points: 6
#     Node 9, Type 1, BuildingBlock: MIDCAF_clean_sbu_0, # of connection points: 6
#     Node 10, Type 1, BuildingBlock: MIDCAF_clean_sbu_0, # of connection points: 6
#     Node 11, Type 1, BuildingBlock: MIDCAF_clean_sbu_0, # of connection points: 6
#     Edge 12, Type (0, 1), BuildingBlock: EYOCIG_clean_linker_4, # of connection points: 2
#     Edge 13, Type (0, 1), BuildingBlock: EYOCIG_clean_linker_4, # of connection points: 2
#     Edge 14, Type (0, 1), BuildingBlock: EYOCIG_clean_linker_4, # of connection points: 2
#     Edge 15, Type (0, 1), BuildingBlock: EYOCIG_clean_linker_4, # of connection points: 2
#     Edge 16, Type (0, 1), BuildingBlock: EYOCIG_clean_linker_4, # of connection points: 2
#     Edge 17, Type (0, 1), BuildingBlock: EYOCIG_clean_linker_4, # of connection points: 2
#     Edge 18, Type (0, 1), BuildingBlock: EYOCIG_clean_linker_4, # of connection points: 2
#     Edge 19, Type (0, 1), BuildingBlock: EYOCIG_clean_linker_4, # of connection points: 2
#     Edge 20, Type (0, 1), BuildingBlock: EYOCIG_clean_linker_4, # of connection points: 2
#     Edge 21, Type (0, 1), BuildingBlock: EYOCIG_clean_linker_4, # of connection points: 2
#     Edge 22, Type (0, 1), BuildingBlock: EYOCIG_clean_linker_4, # of connection points: 2
#     Edge 23, Type (0, 1), BuildingBlock: EYOCIG_clean_linker_4, # of connection points: 2
#     Edge 24, Type (0, 1), BuildingBlock: EYOCIG_clean_linker_4, # of connection points: 2
#     Edge 25, Type (0, 1), BuildingBlock: EYOCIG_clean_linker_4, # of connection points: 2
#     Edge 26, Type (0, 1), BuildingBlock: EYOCIG_clean_linker_4, # of connection points: 2
#     Edge 27, Type (0, 1), BuildingBlock: EYOCIG_clean_linker_4, # of connection points: 2
#     Edge 28, Type (0, 1), BuildingBlock: EYOCIG_clean_linker_4, # of connection points: 2
#     Edge 29, Type (0, 1), BuildingBlock: EYOCIG_clean_linker_4, # of connection points: 2
#     Edge 30, Type (0, 1), BuildingBlock: EYOCIG_clean_linker_4, # of connection points: 2
#     Edge 31, Type (0, 1), BuildingBlock: EYOCIG_clean_linker_4, # of connection points: 2
#     Edge 32, Type (0, 1), BuildingBlock: EYOCIG_clean_linker_4, # of connection points: 2
#     Edge 33, Type (0, 1), BuildingBlock: EYOCIG_clean_linker_4, # of connection points: 2
#     Edge 34, Type (0, 1), BuildingBlock: EYOCIG_clean_linker_4, # of connection points: 2
#     Edge 35, Type (0, 1), BuildingBlock: EYOCIG_clean_linker_4, # of connection points: 2
# Relax obj value: 0.020
# Max RMSD: 0.063
# Mean RMSD: 0.033
data_MOF--net-pry--node1-MIDCAF_clean_sbu_0--node2-BELTOD_clean_linker_0--edge1-EYOCIG_clean_linker_4
_symmetry_space_group_name_H-M    P1
_symmetry_Int_Tables_number       1
_symmetry_cell_setting            triclinic
loop_
_symmetry_equiv_pos_as_xyz
'x, y, z'
_cell_length_a     33.177915
_cell_length_b     33.531442
_cell_length_c     33.066595
_cell_angle_alpha  89.547549
_cell_angle_beta   90.42415
_cell_angle_gamma 90.081144
loop_
_atom_site_label
_atom_site_type_symbol
_atom_site_fract_x
_atom_site_fract_y
_atom_site_fract_z
_atom_type_partial_charge
P0 P 0.21374 0.22153 0.22068 0.0
H1 H 0.29482 0.23318 0.19093 0.0
H2 H 0.34383 0.18801 0.16069 0.0
H3 H 0.255 0.09394 0.15974 0.0
H4 H 0.20566 0.13937 0.19036 0.0
H5 H 0.18671 0.30307 0.22982 0.0
H6 H 0.15697 0.35138 0.18254 0.0
H7 H 0.15171 0.26134 0.09017 0.0
H8 H 0.18188 0.21265 0.13773 0.0
H9 H 0.22908 0.17357 0.29198 0.0
H10 H 0.12541 0.20902 0.22082 0.0
O11 O 0.24241 0.24957 0.25093 0.0
H12 H 0.18456 0.14351 0.34262 0.0
H13 H 0.08077 0.17873 0.27164 0.0
C14 C 0.24711 0.1892 0.19384 0.0
C15 C 0.28576 0.20292 0.18411 0.0
C16 C 0.31367 0.17722 0.16687 0.0
C17 C 0.3031 0.13764 0.15886 0.0
C18 C 0.26373 0.12436 0.1664 0.0
C19 C 0.2357 0.15018 0.18379 0.0
C20 C 0.1875 0.25472 0.18682 0.0
C21 C 0.1791 0.29358 0.19948 0.0
C22 C 0.16212 0.3211 0.17258 0.0
C23 C 0.15302 0.30993 0.13288 0.0
C24 C 0.15922 0.27047 0.12067 0.0
C25 C 0.17637 0.24282 0.1477 0.0
C26 C 0.18049 0.19397 0.25311 0.0
C27 C 0.19678 0.17438 0.28702 0.0
C28 C 0.17145 0.15735 0.31588 0.0
C29 C 0.12957 0.1596 0.31098 0.0
C30 C 0.11314 0.1772 0.27598 0.0
C31 C 0.13858 0.19438 0.24704 0.0
P32 P 0.37423 0.87753 0.65575 0.0
H33 H 0.44912 0.9018 0.69539 0.0
H34 H 0.46768 0.91106 0.76669 0.0
H35 H 0.34734 0.87783 0.80229 0.0
H36 H 0.32861 0.86875 0.73092 0.0
H37 H 0.40036 0.84067 0.5808 0.0
H38 H 0.40856 0.77092 0.56064 0.0
H39 H 0.37228 0.73199 0.67956 0.0
H40 H 0.36422 0.8018 0.69989 0.0
H41 H 0.33529 0.95485 0.65365 0.0
H42 H 0.29928 0.83162 0.64249 0.0
O43 O 0.40313 0.90687 0.627 0.0
H44 H 0.26454 0.97541 0.64709 0.0
H45 H 0.22865 0.85229 0.63597 0.0
C46 C 0.38741 0.88507 0.70793 0.0
C47 C 0.42667 0.89664 0.71846 0.0
C48 C 0.43729 0.90174 0.75905 0.0
C49 C 0.40889 0.89483 0.78947 0.0
C50 C 0.36965 0.88308 0.77908 0.0
C51 C 0.35898 0.87812 0.73844 0.0
C52 C 0.38235 0.8264 0.64202 0.0
C53 C 0.39447 0.81721 0.60267 0.0
C54 C 0.39891 0.7775 0.5911 0.0
C55 C 0.39076 0.74658 0.6186 0.0
C56 C 0.37854 0.75561 0.65794 0.0
C57 C 0.37423 0.79539 0.66957 0.0
C58 C 0.32257 0.89184 0.64805 0.0
C59 C 0.31224 0.9323 0.64953 0.0
C60 C 0.27199 0.94398 0.64609 0.0
C61 C 0.24166 0.91527 0.64145 0.0
C62 C 0.25182 0.87478 0.63987 0.0
C63 C 0.29214 0.86306 0.64332 0.0
P64 P 0.71982 0.31035 0.80647 0.0
H65 H 0.80194 0.30115 0.83576 0.0
H66 H 0.85029 0.34798 0.86551 0.0
H67 H 0.75885 0.43928 0.86661 0.0
H68 H 0.7102 0.39224 0.83659 0.0
H69 H 0.69215 0.22891 0.7972 0.0
H70 H 0.66081 0.18118 0.8437 0.0
H71 H 0.65664 0.2713 0.93594 0.0
H72 H 0.6884 0.3194 0.88916 0.0
H73 H 0.73455 0.3576 0.73467 0.0
H74 H 0.63171 0.3236 0.80638 0.0
O75 O 0.74848 0.28233 0.7767 0.0
H76 H 0.68957 0.38931 0.68483 0.0
H77 H 0.58666 0.35544 0.75636 0.0
C78 C 0.7529 0.34361 0.83313 0.0
C79 C 0.79217 0.33115 0.84255 0.0
C80 C 0.81972 0.35781 0.85945 0.0
C81 C 0.80817 0.39709 0.8674 0.0
C82 C 0.76831 0.40912 0.86002 0.0
C83 C 0.74066 0.38235 0.843 0.0
C84 C 0.69359 0.27725 0.8402 0.0
C85 C 0.68456 0.23851 0.82739 0.0
C86 C 0.66665 0.21132 0.85384 0.0
C87 C 0.65723 0.22267 0.89327 0.0
C88 C 0.66436 0.26198 0.90567 0.0
C89 C 0.68244 0.28931 0.87909 0.0
C90 C 0.68636 0.3377 0.77368 0.0
C91 C 0.70234 0.35728 0.73982 0.0
C92 C 0.67677 0.37529 0.71145 0.0
C93 C 0.63498 0.37399 0.71682 0.0
C94 C 0.61895 0.3562 0.75167 0.0
C95 C 0.64461 0.33809 0.78012 0.0
P96 P 0.80968 0.72687 0.30736 0.0
H97 H 0.83962 0.8076 0.29789 0.0
H98 H 0.87007 0.85463 0.34554 0.0
H99 H 0.87095 0.76344 0.43831 0.0
H100 H 0.84029 0.71613 0.39047 0.0
H101 H 0.80029 0.70036 0.22464 0.0
H102 H 0.84645 0.6686 0.17734 0.0
H103 H 0.938 0.66274 0.27052 0.0
H104 H 0.89162 0.6948 0.31815 0.0
H105 H 0.73848 0.74067 0.35486 0.0
H106 H 0.81108 0.63969 0.32103 0.0
O107 O 0.77964 0.75557 0.2788 0.0
H108 H 0.68911 0.69545 0.38562 0.0
H109 H 0.76151 0.59444 0.35186 0.0
C110 C 0.83675 0.7589 0.34112 0.0
C111 C 0.84652 0.79762 0.32839 0.0
C112 C 0.86385 0.82437 0.35548 0.0
C113 C 0.87183 0.81249 0.39539 0.0
C114 C 0.8643 0.7731 0.40763 0.0
C115 C 0.84687 0.74624 0.38044 0.0
C116 C 0.8431 0.70098 0.27436 0.0
C117 C 0.83029 0.69235 0.23495 0.0
C118 C 0.8565 0.67419 0.20804 0.0
C119 C 0.89562 0.6642 0.22045 0.0
C120 C 0.90797 0.67094 0.26044 0.0
C121 C 0.88164 0.68923 0.28746 0.0
C122 C 0.77777 0.69341 0.33494 0.0
C123 C 0.74396 0.70883 0.35445 0.0
C124 C 0.7159 0.68314 0.37194 0.0
C125 C 0.72158 0.64185 0.37017 0.0
C126 C 0.75661 0.62636 0.35292 0.0
C127 C 0.78476 0.65214 0.33535 0.0
P128 P 0.95023 0.95525 0.96219 0.0
H129 H 0.90654 0.98491 0.03237 0.0
H130 H 0.83561 0.003 0.04284 0.0
H131 H 0.80819 0.97179 0.91939 0.0
H132 H 0.87907 0.95375 0.90888 0.0
H133 H 0.02052 0.91299 -0.00535 0.0
H134 H 0.0335 0.84229 0.00985 0.0
H135 H 0.91243 0.81296 0.9721 0.0
H136 H 0.8994 0.88358 0.95691 0.0
H137 H 0.96008 0.02896 0.91593 0.0
H138 H 0.97088 0.90267 0.89419 0.0
O139 O 0.97893 0.9837 0.99199 0.0
H140 H 0.97855 0.04275 0.84524 0.0
H141 H 0.98939 0.91653 0.82395 0.0
C142 C 0.8982 0.96875 0.96962 0.0
C143 C 0.88536 0.98227 0.00745 0.0
C144 C 0.84496 0.9926 0.01342 0.0
C145 C 0.81691 0.9892 0.98169 0.0
C146 C 0.82957 0.97508 0.94407 0.0
C147 C 0.86997 0.96481 0.93809 0.0
C148 C 0.95866 0.90368 0.97566 0.0
C149 C 0.99656 0.89147 0.9902 0.0
C150 C 0.004 0.85119 -0.00122 0.0
C151 C 0.9737 0.82266 0.99258 0.0
C152 C 0.93598 0.83472 0.97758 0.0
C153 C 0.92853 0.875 0.96904 0.0
C154 C 0.96453 0.96486 0.9105 0.0
C155 C 0.96668 0.00428 0.89611 0.0
C156 C 0.97723 0.01214 0.8559 0.0
C157 C 0.98568 0.9806 0.82969 0.0
C158 C 0.98331 0.94123 0.84393 0.0
C159 C 0.97271 0.93337 0.88408 0.0
P160 P 0.6329 0.1431 0.40075 0.0
H161 H 0.6577 0.21858 0.43458 0.0
H162 H 0.62172 0.26997 0.4718 0.0
H163 H 0.51691 0.19397 0.47808 0.0
H164 H 0.55306 0.14222 0.44005 0.0
H165 H 0.71185 0.11354 0.37958 0.0
H166 H 0.76136 0.07244 0.41536 0.0
H167 H 0.67967 0.05856 0.51538 0.0
H168 H 0.62966 0.10067 0.47942 0.0
H169 H 0.5776 0.1703 0.33882 0.0
H170 H 0.61251 0.05743 0.3919 0.0
O171 O 0.66031 0.17127 0.36943 0.0
H172 H 0.5395 0.13531 0.28625 0.0
H173 H 0.57392 0.02233 0.33922 0.0
C174 C 0.60778 0.17696 0.43402 0.0
C175 C 0.6272 0.2126 0.4444 0.0
C176 C 0.60676 0.24185 0.46575 0.0
C177 C 0.56684 0.23563 0.4776 0.0
C178 C 0.54788 0.19911 0.46927 0.0
C179 C 0.56839 0.16975 0.44752 0.0
C180 C 0.66744 0.11073 0.42721 0.0
C181 C 0.70435 0.10172 0.40914 0.0
C182 C 0.73252 0.07804 0.42941 0.0
C183 C 0.72397 0.06245 0.46774 0.0
C184 C 0.68656 0.07025 0.48559 0.0
C185 C 0.65825 0.09435 0.46526 0.0
C186 C 0.59804 0.1165 0.369 0.0
C187 C 0.57614 0.13803 0.3398 0.0
C188 C 0.55437 0.11811 0.30989 0.0
C189 C 0.55395 0.07641 0.30904 0.0
C190 C 0.57375 0.05464 0.33966 0.0
C191 C 0.59584 0.07466 0.36961 0.0
P192 P 0.45448 0.58153 0.06942 0.0
H193 H 0.41022 0.55172 -0.00112 0.0
H194 H 0.33906 0.534 0.98776 0.0
H195 H 0.31261 0.56544 0.11094 0.0
H196 H 0.38367 0.58312 0.1221 0.0
H197 H 0.5241 0.62389 0.0361 0.0
H198 H 0.53642 0.69458 0.02004 0.0
H199 H 0.41588 0.72331 0.05792 0.0
H200 H 0.40353 0.65282 0.07396 0.0
H201 H 0.46407 0.50854 0.11696 0.0
H202 H 0.47573 0.63509 0.13691 0.0
O203 O 0.48303 0.55279 0.04026 0.0
H204 H 0.48172 0.49575 0.18829 0.0
H205 H 0.49341 0.62223 0.20785 0.0
C206 C 0.40238 0.5679 0.06157 0.0
C207 C 0.38921 0.55444 0.02361 0.0
C208 C 0.34868 0.54435 0.01727 0.0
C209 C 0.32083 0.54793 0.04874 0.0
C210 C 0.33382 0.56199 0.08646 0.0
C211 C 0.37434 0.57203 0.09282 0.0
C212 C 0.46256 0.63296 0.05527 0.0
C213 C 0.50012 0.64529 0.0404 0.0
C214 C 0.50718 0.68555 0.03131 0.0
C215 C 0.47682 0.71389 0.03734 0.0
C216 C 0.43945 0.70169 0.05258 0.0
C217 C 0.43239 0.66147 0.06163 0.0
C218 C 0.46894 0.57269 0.12145 0.0
C219 C 0.47075 0.53349 0.13652 0.0
C220 C 0.48084 0.5262 0.17712 0.0
C221 C 0.48917 0.55809 0.2031 0.0
C222 C 0.48738 0.59725 0.1881 0.0
C223 C 0.47725 0.60455 0.14755 0.0
P224 P 0.13189 0.39964 0.6299 0.0
H225 H 0.15737 0.32462 0.59621 0.0
H226 H 0.12167 0.27254 0.55905 0.0
H227 H 0.01573 0.3468 0.55225 0.0
H228 H 0.05163 0.39925 0.59021 0.0
H229 H 0.2105 0.43036 0.65208 0.0
H230 H 0.25989 0.47128 0.61645 0.0
H231 H 0.17822 0.48308 0.51495 0.0
H232 H 0.12837 0.44117 0.55076 0.0
H233 H 0.0765 0.37228 0.69085 0.0
H234 H 0.11148 0.48522 0.63828 0.0
O235 O 0.15951 0.37187 0.66174 0.0
H236 H 0.03844 0.40719 0.74285 0.0
H237 H 0.07293 0.52024 0.69038 0.0
C238 C 0.1069 0.3654 0.5965 0.0
C239 C 0.12669 0.33008 0.58627 0.0
C240 C 0.1064 0.30043 0.56495 0.0
C241 C 0.06625 0.30596 0.553 0.0
C242 C 0.04689 0.34219 0.56114 0.0
C243 C 0.06726 0.37196 0.58285 0.0
C244 C 0.16617 0.43213 0.60369 0.0
C245 C 0.20298 0.44172 0.62224 0.0
C246 C 0.23106 0.4653 0.60205 0.0
C247 C 0.22249 0.48019 0.56333 0.0
C248 C 0.18512 0.47192 0.54505 0.0
C249 C 0.15691 0.44793 0.56529 0.0
C250 C 0.09695 0.42613 0.66098 0.0
C251 C 0.07503 0.40454 0.68983 0.0
C252 C 0.05327 0.42442 0.7194 0.0
C253 C 0.0529 0.46611 0.72022 0.0
C254 C 0.0727 0.48793 0.6899 0.0
C255 C 0.09477 0.46796 0.6603 0.0
Zn256 Zn 0.95048 0.07765 0.58449 0.0
Zn257 Zn 0.04286 0.9876 0.49415 0.0
Zn258 Zn 0.9959 0.03204 0.54015 0.0
C259 C 0.04553 0.06359 0.46178 0.0
C260 C 0.96608 0.95535 0.49021 0.0
O261 O 0.01213 0.02068 0.60471 0.0
O262 O 0.96534 0.05436 0.63752 0.0
C263 C 0.99618 0.1288 0.53808 0.0
O264 O 0.02513 0.07082 0.49394 0.0
O265 O 0.05617 0.02859 0.45335 0.0
O266 O 0.00179 0.94738 0.48046 0.0
O267 O 0.95773 0.98687 0.51048 0.0
O268 O 0.97342 0.12967 0.56838 0.0
O269 O 0.00639 0.09534 0.52219 0.0
O270 O 0.93233 0.01459 0.52875 0.0
O271 O 0.89839 0.0617 0.56043 0.0
C272 C 0.89883 0.03138 0.53817 0.0
O273 O 0.04103 0.00268 0.58009 0.0
O274 O 0.0826 0.97436 0.53664 0.0
C275 C 0.99481 0.03071 0.6379 0.0
C276 C 0.07331 0.98289 0.57242 0.0
Zn277 Zn 0.48167 0.04616 0.98687 0.0
Zn278 Zn 0.5738 0.95576 0.07881 0.0
Zn279 Zn 0.52784 0.00031 0.033 0.0
C280 C 0.62547 -0.00195 0.02878 0.0
C281 C 0.52472 0.90411 0.03571 0.0
O282 O 0.48297 0.02994 0.07211 0.0
O283 O 0.44124 0.05887 0.02817 0.0
C284 C 0.55882 0.07766 0.98332 0.0
O285 O 0.59208 0.01571 0.01949 0.0
O286 O 0.62581 0.96886 0.053 0.0
O287 O 0.54829 0.90404 0.06577 0.0
O288 O 0.51534 0.93701 0.01756 0.0
O289 O 0.52305 0.08654 0.9739 0.0
O290 O 0.56691 0.04522 0.00291 0.0
O291 O 0.49636 0.96165 0.98882 0.0
O292 O 0.46776 0.0051 0.94666 0.0
C293 C 0.47601 0.96962 0.95643 0.0
O294 O 0.51239 0.01248 0.09695 0.0
O295 O 0.56066 0.98092 0.13095 0.0
C296 C 0.45039 0.04944 0.06403 0.0
C297 C 0.53035 0.00352 0.13049 0.0
Zn298 Zn 0.5409 0.55253 0.54239 0.0
Zn299 Zn 0.44865 0.46334 0.44782 0.0
Zn300 Zn 0.49396 0.50818 0.49455 0.0
C301 C 0.49397 0.41147 0.49478 0.0
C302 C 0.49361 0.51075 0.39607 0.0
O303 O 0.45572 0.5525 0.52595 0.0
O304 O 0.49954 0.59165 0.55756 0.0
C305 C 0.54474 0.47535 0.57204 0.0
O306 O 0.50429 0.44465 0.51134 0.0
O307 O 0.47113 0.41106 0.46418 0.0
O308 O 0.4644 0.48671 0.39527 0.0
O309 O 0.51016 0.52071 0.42997 0.0
O310 O 0.55496 0.51023 0.58164 0.0
O311 O 0.52387 0.46873 0.53975 0.0
O312 O 0.53939 0.537 0.45598 0.0
O313 O 0.58039 0.56616 0.50015 0.0
C314 C 0.57175 0.5566 0.46434 0.0
O315 O 0.43079 0.52575 0.50501 0.0
O316 O 0.39666 0.47999 0.47091 0.0
C317 C 0.46376 0.58322 0.54779 0.0
C318 C 0.39723 0.50966 0.49406 0.0
Zn319 Zn 0.07632 0.58329 0.95192 0.0
Zn320 Zn 0.98489 0.49174 0.04118 0.0
Zn321 Zn 0.03129 0.53759 -0.00357 0.0
C322 C 0.06154 0.45879 0.04304 0.0
C323 C 0.95239 0.49 0.96449 0.0
O324 O 0.01836 0.6006 0.01279 0.0
O325 O 0.05004 0.63452 0.96484 0.0
C326 C 0.12866 0.54021 0.00122 0.0
O327 O 0.07031 0.49192 0.02514 0.0
O328 O 0.02561 0.45007 0.05152 0.0
O329 O 0.9428 0.48118 0.00025 0.0
O330 O 0.98557 0.50857 0.9569 0.0
O331 O 0.1285 0.57041 0.9783 0.0
O332 O 0.09556 0.52172 0.00945 0.0
O333 O 0.01444 0.52702 0.93253 0.0
O334 O 0.06297 0.55845 0.89941 0.0
C335 C 0.03224 0.53633 0.89929 0.0
O336 O 0.00252 0.5752 0.04235 0.0
O337 O 0.97428 0.53111 0.08375 0.0
C338 C 0.02676 0.63379 -0.00524 0.0
C339 C 0.98378 0.56657 0.07524 0.0
C340 C 0.08585 0.13257 0.37172 0.0
C341 C 0.10402 0.1454 0.343 0.0
C342 C 0.06818 0.11473 0.40607 0.0
C343 C 0.05597 0.09469 0.43379 0.0
C344 C 0.43243 0.90701 0.86483 0.0
C345 C 0.42006 0.90097 0.83108 0.0
C346 C 0.44879 0.92035 0.90181 0.0
C347 C 0.46298 0.93881 0.92957 0.0
C348 C 0.58975 0.40351 0.65786 0.0
C349 C 0.60894 0.38964 0.68562 0.0
C350 C 0.57043 0.42255 0.62493 0.0
C351 C 0.55685 0.44349 0.59845 0.0
C352 C 0.9423 0.63455 0.16415 0.0
C353 C 0.92283 0.64789 0.19141 0.0
C354 C 0.96078 0.6166 0.13078 0.0
C355 C 0.97293 0.59686 0.10326 0.0
C356 C 0.36145 0.09185 0.13178 0.0
C357 C 0.33341 0.11094 0.14405 0.0
C358 C 0.39539 0.07331 0.11474 0.0
C359 C 0.42293 0.0606 0.09516 0.0
C360 C 0.16658 0.94022 0.63301 0.0
C361 C 0.20044 0.92777 0.63678 0.0
C362 C 0.12904 0.95659 0.62166 0.0
C363 C 0.10056 0.97054 0.60381 0.0
C364 C 0.86516 0.44501 0.89481 0.0
C365 C 0.83782 0.42474 0.88237 0.0
C366 C 0.8983 0.46484 0.91253 0.0
C367 C 0.92542 0.4781 0.93277 0.0
C368 C 0.6617 0.59735 0.39649 0.0
C369 C 0.69012 0.61585 0.38399 0.0
C370 C 0.62745 0.57956 0.41376 0.0
C371 C 0.59971 0.56735 0.43349 0.0
C372 C 0.12688 0.36783 0.08521 0.0
C373 C 0.13862 0.3398 0.10495 0.0
C374 C 0.11075 0.40221 0.06648 0.0
C375 C 0.09198 0.43048 0.05405 0.0
C376 C 0.62777 0.16582 0.94016 0.0
C377 C 0.64105 0.19327 0.92063 0.0
C378 C 0.60982 0.13242 0.959 0.0
C379 C 0.58989 0.10513 0.97185 0.0
C380 C 0.89864 0.86835 0.44427 0.0
C381 C 0.88648 0.84147 0.42363 0.0
C382 C 0.91567 0.90114 0.46443 0.0
C383 C 0.93526 0.92811 0.47807 0.0
C384 C 0.40151 0.67298 0.59294 0.0
C385 C 0.39604 0.70584 0.60634 0.0
C386 C 0.4144 0.63694 0.57556 0.0
C387 C 0.43275 0.60976 0.56085 0.0
C388 C 0.00368 0.99509 0.75297 0.0
C389 C 0.99549 0.98844 0.78791 0.0
C390 C 0.00858 0.0039 0.71138 0.0
C391 C 0.00626 0.01349 0.67619 0.0
C392 C 0.52407 0.044 0.24269 0.0
C393 C 0.53805 0.05686 0.27372 0.0
C394 C 0.51631 0.03146 0.20273 0.0
C395 C 0.5186 0.02105 0.16801 0.0
C396 C 0.50527 0.54517 0.28088 0.0
C397 C 0.49792 0.5509 0.24544 0.0
C398 C 0.50909 0.53725 0.3229 0.0
C399 C 0.50598 0.52793 0.35812 0.0
C400 C 0.02357 0.49817 0.78641 0.0
C401 C 0.03731 0.48559 0.7554 0.0
C402 C 0.01653 0.51011 0.82654 0.0
C403 C 0.01964 0.51981 0.86141 0.0
C404 C 0.73984 0.00684 0.99312 0.0
C405 C 0.77497 -0.00116 0.98804 0.0
C406 C 0.6982 0.01157 0.00108 0.0
C407 C 0.66324 0.00942 0.0109 0.0
C408 C 0.78596 0.0255 0.50085 0.0
C409 C 0.75541 0.04129 0.48905 0.0
C410 C 0.82605 0.0164 0.51197 0.0
C411 C 0.86114 0.01855 0.52132 0.0
C412 C 0.24355 0.53071 0.03668 0.0
C413 C 0.27877 0.53852 0.04203 0.0
C414 C 0.20181 0.52617 0.02852 0.0
C415 C 0.16672 0.52845 0.01869 0.0
C416 C 0.2845 0.51639 0.53025 0.0
C417 C 0.25395 0.50088 0.54202 0.0
C418 C 0.3246 0.52496 0.51936 0.0
C419 C 0.3596 0.52235 0.51045 0.0
C420 C 0.98833 0.74603 0.00656 0.0
C421 C 0.98171 0.78094 0.0002 0.0
C422 C -0.00205 0.70501 0.0097 0.0
C423 C 0.0087 0.6708 0.00658 0.0
C424 C 0.49006 0.79069 0.02306 0.0
C425 C 0.48437 0.75562 0.02946 0.0
C426 C 0.49824 0.83202 0.02018 0.0
C427 C 0.50783 0.86657 0.02357 0.0
C428 C 0.03248 0.24085 0.52425 0.0
C429 C 0.04466 0.27242 0.53661 0.0
C430 C 0.0213 0.20056 0.51911 0.0
C431 C 0.01225 0.16601 0.52378 0.0
C432 C 0.53224 0.29981 0.50685 0.0
C433 C 0.54497 0.26868 0.49419 0.0
C434 C 0.52019 0.33973 0.51251 0.0
C435 C 0.51054 0.37417 0.50834 0.0
loop_
_geom_bond_atom_site_label_1
_geom_bond_atom_site_label_2
_geom_bond_distance
_geom_bond_site_symmetry_2
_ccdc_geom_bond_type
P0 O11 1.490 . S
P0 C14 1.812 . S
P0 C20 1.803 . S
P0 C26 1.819 . S
H1 C15 0.941 . S
H2 C16 0.939 . S
H3 C18 0.940 . S
H4 C19 0.940 . S
H5 C21 0.939 . S
H6 C22 0.942 . S
H7 C24 0.940 . S
H8 C25 0.939 . S
H9 C27 0.941 . S
H10 C31 0.939 . S
O11 P0 1.490 . S
H12 C28 0.939 . S
H13 C30 0.940 . S
C14 P0 1.812 . S
C14 C15 1.389 . S
C14 C19 1.391 . S
C15 H1 0.941 . S
C15 C14 1.389 . S
C15 C16 1.397 . S
C16 H2 0.939 . S
C16 C15 1.397 . S
C16 C17 1.378 . S
C17 C16 1.378 . S
C17 C18 1.378 . S
C18 H3 0.940 . S
C18 C17 1.378 . S
C18 C19 1.396 . S
C19 H4 0.940 . S
C19 C14 1.391 . S
C19 C18 1.396 . S
C20 P0 1.803 . S
C20 C21 1.378 . S
C20 C25 1.400 . S
C21 H5 0.939 . S
C21 C20 1.378 . S
C21 C22 1.361 . S
C22 H6 0.942 . S
C22 C21 1.361 . S
C22 C23 1.369 . S
C23 C22 1.369 . S
C23 C24 1.404 . S
C24 H7 0.940 . S
C24 C23 1.404 . S
C24 C25 1.389 . S
C25 H8 0.939 . S
C25 C20 1.400 . S
C25 C24 1.389 . S
C26 P0 1.819 . S
C26 C27 1.391 . S
C26 C31 1.391 . S
C27 H9 0.941 . S
C27 C26 1.391 . S
C27 C28 1.396 . S
C28 H12 0.939 . S
C28 C27 1.396 . S
C28 C29 1.397 . S
C29 C28 1.397 . S
C29 C30 1.385 . S
C30 H13 0.940 . S
C30 C29 1.385 . S
C30 C31 1.388 . S
C31 H10 0.939 . S
C31 C26 1.391 . S
C31 C30 1.388 . S
P32 O43 1.490 . S
P32 C46 1.812 . S
P32 C52 1.803 . S
P32 C58 1.819 . S
H33 C47 0.941 . S
H34 C48 0.939 . S
H35 C50 0.940 . S
H36 C51 0.940 . S
H37 C53 0.939 . S
H38 C54 0.942 . S
H39 C56 0.940 . S
H40 C57 0.939 . S
H41 C59 0.941 . S
H42 C63 0.939 . S
O43 P32 1.490 . S
H44 C60 0.939 . S
H45 C62 0.940 . S
C46 P32 1.812 . S
C46 C47 1.389 . S
C46 C51 1.391 . S
C47 H33 0.941 . S
C47 C46 1.389 . S
C47 C48 1.397 . S
C48 H34 0.939 . S
C48 C47 1.397 . S
C48 C49 1.378 . S
C49 C48 1.378 . S
C49 C50 1.378 . S
C50 H35 0.940 . S
C50 C49 1.378 . S
C50 C51 1.396 . S
C51 H36 0.940 . S
C51 C46 1.391 . S
C51 C50 1.396 . S
C52 P32 1.803 . S
C52 C53 1.378 . S
C52 C57 1.400 . S
C53 H37 0.939 . S
C53 C52 1.378 . S
C53 C54 1.361 . S
C54 H38 0.942 . S
C54 C53 1.361 . S
C54 C55 1.369 . S
C55 C54 1.369 . S
C55 C56 1.404 . S
C56 H39 0.940 . S
C56 C55 1.404 . S
C56 C57 1.389 . S
C57 H40 0.939 . S
C57 C52 1.400 . S
C57 C56 1.389 . S
C58 P32 1.819 . S
C58 C59 1.391 . S
C58 C63 1.391 . S
C59 H41 0.941 . S
C59 C58 1.391 . S
C59 C60 1.396 . S
C60 H44 0.939 . S
C60 C59 1.396 . S
C60 C61 1.397 . S
C61 C60 1.397 . S
C61 C62 1.385 . S
C62 H45 0.940 . S
C62 C61 1.385 . S
C62 C63 1.388 . S
C63 H42 0.939 . S
C63 C58 1.391 . S
C63 C62 1.388 . S
P64 O75 1.490 . S
P64 C78 1.812 . S
P64 C84 1.803 . S
P64 C90 1.819 . S
H65 C79 0.941 . S
H66 C80 0.939 . S
H67 C82 0.940 . S
H68 C83 0.940 . S
H69 C85 0.939 . S
H70 C86 0.942 . S
H71 C88 0.940 . S
H72 C89 0.939 . S
H73 C91 0.941 . S
H74 C95 0.939 . S
O75 P64 1.490 . S
H76 C92 0.939 . S
H77 C94 0.940 . S
C78 P64 1.812 . S
C78 C79 1.389 . S
C78 C83 1.391 . S
C79 H65 0.941 . S
C79 C78 1.389 . S
C79 C80 1.397 . S
C80 H66 0.939 . S
C80 C79 1.397 . S
C80 C81 1.378 . S
C81 C80 1.378 . S
C81 C82 1.378 . S
C82 H67 0.940 . S
C82 C81 1.378 . S
C82 C83 1.396 . S
C83 H68 0.940 . S
C83 C78 1.391 . S
C83 C82 1.396 . S
C84 P64 1.803 . S
C84 C85 1.378 . S
C84 C89 1.400 . S
C85 H69 0.939 . S
C85 C84 1.378 . S
C85 C86 1.361 . S
C86 H70 0.942 . S
C86 C85 1.361 . S
C86 C87 1.369 . S
C87 C86 1.369 . S
C87 C88 1.404 . S
C88 H71 0.940 . S
C88 C87 1.404 . S
C88 C89 1.389 . S
C89 H72 0.939 . S
C89 C84 1.400 . S
C89 C88 1.389 . S
C90 P64 1.819 . S
C90 C91 1.391 . S
C90 C95 1.391 . S
C91 H73 0.941 . S
C91 C90 1.391 . S
C91 C92 1.396 . S
C92 H76 0.939 . S
C92 C91 1.396 . S
C92 C93 1.397 . S
C93 C92 1.397 . S
C93 C94 1.385 . S
C94 H77 0.940 . S
C94 C93 1.385 . S
C94 C95 1.388 . S
C95 H74 0.939 . S
C95 C90 1.391 . S
C95 C94 1.388 . S
P96 O107 1.490 . S
P96 C110 1.812 . S
P96 C116 1.803 . S
P96 C122 1.819 . S
H97 C111 0.941 . S
H98 C112 0.939 . S
H99 C114 0.940 . S
H100 C115 0.940 . S
H101 C117 0.939 . S
H102 C118 0.942 . S
H103 C120 0.940 . S
H104 C121 0.939 . S
H105 C123 0.941 . S
H106 C127 0.939 . S
O107 P96 1.490 . S
H108 C124 0.939 . S
H109 C126 0.940 . S
C110 P96 1.812 . S
C110 C111 1.389 . S
C110 C115 1.391 . S
C111 H97 0.941 . S
C111 C110 1.389 . S
C111 C112 1.397 . S
C112 H98 0.939 . S
C112 C111 1.397 . S
C112 C113 1.378 . S
C113 C112 1.378 . S
C113 C114 1.378 . S
C114 H99 0.940 . S
C114 C113 1.378 . S
C114 C115 1.396 . S
C115 H100 0.940 . S
C115 C110 1.391 . S
C115 C114 1.396 . S
C116 P96 1.803 . S
C116 C117 1.378 . S
C116 C121 1.400 . S
C117 H101 0.939 . S
C117 C116 1.378 . S
C117 C118 1.361 . S
C118 H102 0.942 . S
C118 C117 1.361 . S
C118 C119 1.369 . S
C119 C118 1.369 . S
C119 C120 1.404 . S
C120 H103 0.940 . S
C120 C119 1.404 . S
C120 C121 1.389 . S
C121 H104 0.939 . S
C121 C116 1.400 . S
C121 C120 1.389 . S
C122 P96 1.819 . S
C122 C123 1.391 . S
C122 C127 1.391 . S
C123 H105 0.941 . S
C123 C122 1.391 . S
C123 C124 1.396 . S
C124 H108 0.939 . S
C124 C123 1.396 . S
C124 C125 1.397 . S
C125 C124 1.397 . S
C125 C126 1.385 . S
C126 H109 0.940 . S
C126 C125 1.385 . S
C126 C127 1.388 . S
C127 H106 0.939 . S
C127 C122 1.391 . S
C127 C126 1.388 . S
P128 O139 1.490 1_556 S
P128 C142 1.812 . S
P128 C148 1.803 . S
P128 C154 1.819 . S
H129 C143 0.941 . S
H130 C144 0.939 1_545 S
H131 C146 0.940 . S
H132 C147 0.940 . S
H133 C149 0.937 1_554 S
H134 C150 0.940 1_554 S
H135 C152 0.940 . S
H136 C153 0.939 . S
H137 C155 0.941 . S
H138 C159 0.939 . S
O139 P128 1.490 1_554 S
H140 C156 0.939 . S
H141 C158 0.940 . S
C142 P128 1.812 . S
C142 C143 1.389 1_556 S
C142 C147 1.391 . S
C143 H129 0.941 . S
C143 C142 1.389 1_554 S
C143 C144 1.397 . S
C144 H130 0.939 1_565 S
C144 C143 1.397 . S
C144 C145 1.378 1_554 S
C145 C144 1.378 1_556 S
C145 C146 1.378 . S
C146 H131 0.940 . S
C146 C145 1.378 . S
C146 C147 1.396 . S
C147 H132 0.940 . S
C147 C142 1.391 . S
C147 C146 1.396 . S
C148 P128 1.803 . S
C148 C149 1.378 1_655 S
C148 C153 1.400 . S
C149 H133 0.937 1_556 S
C149 C148 1.378 1_455 S
C149 C150 1.361 . S
C150 H134 0.940 1_556 S
C150 C149 1.361 . S
C150 C151 1.370 1_455 S
C151 C150 1.370 1_655 S
C151 C152 1.404 . S
C152 H135 0.940 . S
C152 C151 1.404 . S
C152 C153 1.389 . S
C153 H136 0.939 . S
C153 C148 1.400 . S
C153 C152 1.389 . S
C154 P128 1.819 . S
C154 C155 1.391 1_565 S
C154 C159 1.391 . S
C155 H137 0.941 . S
C155 C154 1.391 1_545 S
C155 C156 1.396 . S
C156 H140 0.939 . S
C156 C155 1.396 . S
C156 C157 1.397 1_545 S
C157 C156 1.397 1_565 S
C157 C158 1.385 . S
C158 H141 0.940 . S
C158 C157 1.385 . S
C158 C159 1.388 . S
C159 H138 0.939 . S
C159 C154 1.391 . S
C159 C158 1.388 . S
P160 O171 1.490 . S
P160 C174 1.812 . S
P160 C180 1.803 . S
P160 C186 1.819 . S
H161 C175 0.941 . S
H162 C176 0.939 . S
H163 C178 0.940 . S
H164 C179 0.940 . S
H165 C181 0.939 . S
H166 C182 0.942 . S
H167 C184 0.940 . S
H168 C185 0.939 . S
H169 C187 0.941 . S
H170 C191 0.939 . S
O171 P160 1.490 . S
H172 C188 0.939 . S
H173 C190 0.940 . S
C174 P160 1.812 . S
C174 C175 1.389 . S
C174 C179 1.391 . S
C175 H161 0.941 . S
C175 C174 1.389 . S
C175 C176 1.397 . S
C176 H162 0.939 . S
C176 C175 1.397 . S
C176 C177 1.378 . S
C177 C176 1.378 . S
C177 C178 1.378 . S
C178 H163 0.940 . S
C178 C177 1.378 . S
C178 C179 1.396 . S
C179 H164 0.940 . S
C179 C174 1.391 . S
C179 C178 1.396 . S
C180 P160 1.803 . S
C180 C181 1.378 . S
C180 C185 1.400 . S
C181 H165 0.939 . S
C181 C180 1.378 . S
C181 C182 1.361 . S
C182 H166 0.942 . S
C182 C181 1.361 . S
C182 C183 1.369 . S
C183 C182 1.369 . S
C183 C184 1.404 . S
C184 H167 0.940 . S
C184 C183 1.404 . S
C184 C185 1.389 . S
C185 H168 0.939 . S
C185 C180 1.400 . S
C185 C184 1.389 . S
C186 P160 1.819 . S
C186 C187 1.391 . S
C186 C191 1.391 . S
C187 H169 0.941 . S
C187 C186 1.391 . S
C187 C188 1.396 . S
C188 H172 0.939 . S
C188 C187 1.396 . S
C188 C189 1.397 . S
C189 C188 1.397 . S
C189 C190 1.385 . S
C190 H173 0.940 . S
C190 C189 1.385 . S
C190 C191 1.388 . S
C191 H170 0.939 . S
C191 C186 1.391 . S
C191 C190 1.388 . S
P192 O203 1.490 . S
P192 C206 1.812 . S
P192 C212 1.803 . S
P192 C218 1.819 . S
H193 C207 0.941 1_556 S
H194 C208 0.939 1_556 S
H195 C210 0.940 . S
H196 C211 0.940 . S
H197 C213 0.939 . S
H198 C214 0.942 . S
H199 C216 0.940 . S
H200 C217 0.939 . S
H201 C219 0.941 . S
H202 C223 0.939 . S
O203 P192 1.490 . S
H204 C220 0.939 . S
H205 C222 0.940 . S
C206 P192 1.812 . S
C206 C207 1.389 . S
C206 C211 1.391 . S
C207 H193 0.941 1_554 S
C207 C206 1.389 . S
C207 C208 1.397 . S
C208 H194 0.939 1_554 S
C208 C207 1.397 . S
C208 C209 1.378 . S
C209 C208 1.378 . S
C209 C210 1.378 . S
C210 H195 0.940 . S
C210 C209 1.378 . S
C210 C211 1.396 . S
C211 H196 0.940 . S
C211 C206 1.391 . S
C211 C210 1.396 . S
C212 P192 1.803 . S
C212 C213 1.378 . S
C212 C217 1.400 . S
C213 H197 0.939 . S
C213 C212 1.378 . S
C213 C214 1.361 . S
C214 H198 0.942 . S
C214 C213 1.361 . S
C214 C215 1.369 . S
C215 C214 1.369 . S
C215 C216 1.404 . S
C216 H199 0.940 . S
C216 C215 1.404 . S
C216 C217 1.389 . S
C217 H200 0.939 . S
C217 C212 1.400 . S
C217 C216 1.389 . S
C218 P192 1.819 . S
C218 C219 1.391 . S
C218 C223 1.391 . S
C219 H201 0.941 . S
C219 C218 1.391 . S
C219 C220 1.396 . S
C220 H204 0.939 . S
C220 C219 1.396 . S
C220 C221 1.397 . S
C221 C220 1.397 . S
C221 C222 1.385 . S
C222 H205 0.940 . S
C222 C221 1.385 . S
C222 C223 1.388 . S
C223 H202 0.939 . S
C223 C218 1.391 . S
C223 C222 1.388 . S
P224 O235 1.490 . S
P224 C238 1.812 . S
P224 C244 1.803 . S
P224 C250 1.819 . S
H225 C239 0.941 . S
H226 C240 0.939 . S
H227 C242 0.940 . S
H228 C243 0.940 . S
H229 C245 0.939 . S
H230 C246 0.942 . S
H231 C248 0.940 . S
H232 C249 0.939 . S
H233 C251 0.941 . S
H234 C255 0.939 . S
O235 P224 1.490 . S
H236 C252 0.939 . S
H237 C254 0.940 . S
C238 P224 1.812 . S
C238 C239 1.389 . S
C238 C243 1.391 . S
C239 H225 0.941 . S
C239 C238 1.389 . S
C239 C240 1.397 . S
C240 H226 0.939 . S
C240 C239 1.397 . S
C240 C241 1.378 . S
C241 C240 1.378 . S
C241 C242 1.378 . S
C242 H227 0.940 . S
C242 C241 1.378 . S
C242 C243 1.396 . S
C243 H228 0.940 . S
C243 C238 1.391 . S
C243 C242 1.396 . S
C244 P224 1.803 . S
C244 C245 1.378 . S
C244 C249 1.400 . S
C245 H229 0.939 . S
C245 C244 1.378 . S
C245 C246 1.361 . S
C246 H230 0.942 . S
C246 C245 1.361 . S
C246 C247 1.369 . S
C247 C246 1.369 . S
C247 C248 1.404 . S
C248 H231 0.940 . S
C248 C247 1.404 . S
C248 C249 1.389 . S
C249 H232 0.939 . S
C249 C244 1.400 . S
C249 C248 1.389 . S
C250 P224 1.819 . S
C250 C251 1.391 . S
C250 C255 1.391 . S
C251 H233 0.941 . S
C251 C250 1.391 . S
C251 C252 1.396 . S
C252 H236 0.939 . S
C252 C251 1.396 . S
C252 C253 1.397 . S
C253 C252 1.397 . S
C253 C254 1.385 . S
C254 H237 0.940 . S
C254 C253 1.385 . S
C254 C255 1.388 . S
C255 H234 0.939 . S
C255 C250 1.391 . S
C255 C254 1.388 . S
Zn256 O262 1.920 . S
Zn256 O268 1.898 . S
Zn256 O271 1.905 . S
Zn257 O265 1.905 1_565 S
Zn257 O266 1.898 . S
Zn257 O274 1.920 . S
Zn258 O261 2.080 1_455 S
Zn258 O264 2.114 . S
Zn258 O267 2.120 1_445 S
Zn258 O269 2.120 . S
Zn258 O270 2.114 1_455 S
Zn258 O273 2.080 . S
C259 O264 1.166 . S
C259 O265 1.182 . S
C260 O266 1.167 1_655 S
C260 O267 1.299 . S
O261 Zn258 2.080 1_655 S
O261 C275 1.305 . S
O262 Zn256 1.920 . S
O262 C275 1.234 . S
C263 O268 1.167 1_455 S
C263 O269 1.299 . S
O264 Zn258 2.114 . S
O264 C259 1.166 . S
O265 Zn257 1.905 1_545 S
O265 C259 1.182 . S
O266 Zn257 1.898 . S
O266 C260 1.167 1_455 S
O267 Zn258 2.120 1_665 S
O267 C260 1.299 . S
O268 Zn256 1.898 . S
O268 C263 1.167 1_655 S
O269 Zn258 2.120 . S
O269 C263 1.299 . S
O270 Zn258 2.114 1_655 S
O270 C272 1.166 . S
O271 Zn256 1.905 . S
O271 C272 1.182 . S
C272 O270 1.166 . S
C272 O271 1.182 . S
O273 Zn258 2.080 . S
O273 C276 1.305 1_545 S
O274 Zn257 1.920 . S
O274 C276 1.234 . S
C275 O261 1.305 . S
C275 O262 1.234 . S
C276 O273 1.305 1_565 S
C276 O274 1.234 . S
Zn277 O283 1.920 1_556 S
Zn277 O289 1.898 . S
Zn277 O292 1.905 . S
Zn278 O286 1.905 . S
Zn278 O287 1.898 . S
Zn278 O295 1.920 . S
Zn279 O282 2.080 . S
Zn279 O285 2.114 1_545 S
Zn279 O288 2.120 1_545 S
Zn279 O290 2.120 . S
Zn279 O291 2.114 1_544 S
Zn279 O294 2.080 . S
C280 O285 1.166 . S
C280 O286 1.182 . S
C281 O287 1.167 . S
C281 O288 1.299 . S
O282 Zn279 2.080 . S
O282 C296 1.305 . S
O283 Zn277 1.920 1_554 S
O283 C296 1.234 . S
C284 O289 1.167 . S
C284 O290 1.299 1_556 S
O285 Zn279 2.114 1_565 S
O285 C280 1.166 . S
O286 Zn278 1.905 . S
O286 C280 1.182 . S
O287 Zn278 1.898 . S
O287 C281 1.167 . S
O288 Zn279 2.120 1_565 S
O288 C281 1.299 . S
O289 Zn277 1.898 . S
O289 C284 1.167 . S
O290 Zn279 2.120 . S
O290 C284 1.299 1_554 S
O291 Zn279 2.114 1_566 S
O291 C293 1.166 . S
O292 Zn277 1.905 . S
O292 C293 1.182 1_545 S
C293 O291 1.166 . S
C293 O292 1.182 1_565 S
O294 Zn279 2.080 . S
O294 C297 1.305 . S
O295 Zn278 1.920 . S
O295 C297 1.234 1_565 S
C296 O282 1.305 . S
C296 O283 1.234 . S
C297 O294 1.305 . S
C297 O295 1.234 1_545 S
Zn298 O304 1.920 . S
Zn298 O310 1.898 . S
Zn298 O313 1.905 . S
Zn299 O307 1.905 . S
Zn299 O308 1.898 . S
Zn299 O316 1.920 . S
Zn300 O303 2.080 . S
Zn300 O306 2.114 . S
Zn300 O309 2.120 . S
Zn300 O311 2.120 . S
Zn300 O312 2.114 . S
Zn300 O315 2.080 . S
C301 O306 1.166 . S
C301 O307 1.182 . S
C302 O308 1.167 . S
C302 O309 1.299 . S
O303 Zn300 2.080 . S
O303 C317 1.305 . S
O304 Zn298 1.920 . S
O304 C317 1.234 . S
C305 O310 1.167 . S
C305 O311 1.299 . S
O306 Zn300 2.114 . S
O306 C301 1.166 . S
O307 Zn299 1.905 . S
O307 C301 1.182 . S
O308 Zn299 1.898 . S
O308 C302 1.167 . S
O309 Zn300 2.120 . S
O309 C302 1.299 . S
O310 Zn298 1.898 . S
O310 C305 1.167 . S
O311 Zn300 2.120 . S
O311 C305 1.299 . S
O312 Zn300 2.114 . S
O312 C314 1.166 . S
O313 Zn298 1.905 . S
O313 C314 1.182 . S
C314 O312 1.166 . S
C314 O313 1.182 . S
O315 Zn300 2.080 . S
O315 C318 1.305 . S
O316 Zn299 1.920 . S
O316 C318 1.234 . S
C317 O303 1.305 . S
C317 O304 1.234 . S
C318 O315 1.305 . S
C318 O316 1.234 . S
Zn319 O325 1.920 . S
Zn319 O331 1.898 . S
Zn319 O334 1.905 . S
Zn320 O328 1.905 1_655 S
Zn320 O329 1.898 . S
Zn320 O337 1.920 . S
Zn321 O324 2.080 1_554 S
Zn321 O327 2.114 . S
Zn321 O330 2.120 1_454 S
Zn321 O332 2.120 . S
Zn321 O333 2.114 1_554 S
Zn321 O336 2.080 . S
C322 O327 1.166 . S
C322 O328 1.182 . S
C323 O329 1.167 1_556 S
C323 O330 1.299 . S
O324 Zn321 2.080 1_556 S
O324 C338 1.305 . S
O325 Zn319 1.920 . S
O325 C338 1.234 . S
C326 O331 1.167 1_554 S
C326 O332 1.299 . S
O327 Zn321 2.114 . S
O327 C322 1.166 . S
O328 Zn320 1.905 1_455 S
O328 C322 1.182 . S
O329 Zn320 1.898 . S
O329 C323 1.167 1_554 S
O330 Zn321 2.120 1_656 S
O330 C323 1.299 . S
O331 Zn319 1.898 . S
O331 C326 1.167 1_556 S
O332 Zn321 2.120 . S
O332 C326 1.299 . S
O333 Zn321 2.114 1_556 S
O333 C335 1.166 . S
O334 Zn319 1.905 . S
O334 C335 1.182 . S
C335 O333 1.166 . S
C335 O334 1.182 . S
O336 Zn321 2.080 . S
O336 C339 1.305 1_455 S
O337 Zn320 1.920 . S
O337 C339 1.234 . S
C338 O324 1.305 . S
C338 O325 1.234 . S
C339 O336 1.305 1_655 S
C339 O337 1.234 . S
C340 C341 1.170 . S
C340 C342 1.380 . S
C341 C340 1.170 . S
C342 C340 1.380 . S
C342 C343 1.170 . S
C343 C342 1.170 . S
C344 C345 1.170 . S
C344 C346 1.380 . S
C345 C344 1.170 . S
C346 C344 1.380 . S
C346 C347 1.170 . S
C347 C346 1.170 . S
C348 C349 1.170 . S
C348 C350 1.380 . S
C349 C348 1.170 . S
C350 C348 1.380 . S
C350 C351 1.170 . S
C351 C350 1.170 . S
C352 C353 1.170 . S
C352 C354 1.380 . S
C353 C352 1.170 . S
C354 C352 1.380 . S
C354 C355 1.170 . S
C355 C354 1.170 . S
C356 C357 1.170 . S
C356 C358 1.380 . S
C357 C356 1.170 . S
C358 C356 1.380 . S
C358 C359 1.170 . S
C359 C358 1.170 . S
C360 C361 1.170 . S
C360 C362 1.380 . S
C361 C360 1.170 . S
C362 C360 1.380 . S
C362 C363 1.170 . S
C363 C362 1.170 . S
C364 C365 1.170 . S
C364 C366 1.380 . S
C365 C364 1.170 . S
C366 C364 1.380 . S
C366 C367 1.170 . S
C367 C366 1.170 . S
C368 C369 1.170 . S
C368 C370 1.380 . S
C369 C368 1.170 . S
C370 C368 1.380 . S
C370 C371 1.170 . S
C371 C370 1.170 . S
C372 C373 1.170 . S
C372 C374 1.380 . S
C373 C372 1.170 . S
C374 C372 1.380 . S
C374 C375 1.170 . S
C375 C374 1.170 . S
C376 C377 1.170 . S
C376 C378 1.380 . S
C377 C376 1.170 . S
C378 C376 1.380 . S
C378 C379 1.170 . S
C379 C378 1.170 . S
C380 C381 1.170 . S
C380 C382 1.380 . S
C381 C380 1.170 . S
C382 C380 1.380 . S
C382 C383 1.170 . S
C383 C382 1.170 . S
C384 C385 1.170 . S
C384 C386 1.380 . S
C385 C384 1.170 . S
C386 C384 1.380 . S
C386 C387 1.170 . S
C387 C386 1.170 . S
C388 C389 1.170 . S
C388 C390 1.380 . S
C389 C388 1.170 . S
C390 C388 1.380 . S
C390 C391 1.170 . S
C391 C390 1.170 . S
C392 C393 1.170 . S
C392 C394 1.380 . S
C393 C392 1.170 . S
C394 C392 1.380 . S
C394 C395 1.170 . S
C395 C394 1.170 . S
C396 C397 1.170 . S
C396 C398 1.380 . S
C397 C396 1.170 . S
C398 C396 1.380 . S
C398 C399 1.170 . S
C399 C398 1.170 . S
C400 C401 1.170 . S
C400 C402 1.380 . S
C401 C400 1.170 . S
C402 C400 1.380 . S
C402 C403 1.170 . S
C403 C402 1.170 . S
C404 C405 1.170 . S
C404 C406 1.380 . S
C405 C404 1.170 . S
C406 C404 1.380 . S
C406 C407 1.170 . S
C407 C406 1.170 . S
C408 C409 1.170 . S
C408 C410 1.380 . S
C409 C408 1.170 . S
C410 C408 1.380 . S
C410 C411 1.170 . S
C411 C410 1.170 . S
C412 C413 1.170 . S
C412 C414 1.380 . S
C413 C412 1.170 . S
C414 C412 1.380 . S
C414 C415 1.170 . S
C415 C414 1.170 . S
C416 C417 1.170 . S
C416 C418 1.380 . S
C417 C416 1.170 . S
C418 C416 1.380 . S
C418 C419 1.170 . S
C419 C418 1.170 . S
C420 C421 1.170 . S
C420 C422 1.382 . S
C421 C420 1.170 . S
C422 C420 1.382 . S
C422 C423 1.167 1_655 S
C423 C422 1.167 1_455 S
C424 C425 1.170 . S
C424 C426 1.380 . S
C425 C424 1.170 . S
C426 C424 1.380 . S
C426 C427 1.170 . S
C427 C426 1.170 . S
C428 C429 1.170 . S
C428 C430 1.380 . S
C429 C428 1.170 . S
C430 C428 1.380 . S
C430 C431 1.170 . S
C431 C430 1.170 . S
C432 C433 1.170 . S
C432 C434 1.380 . S
C433 C432 1.170 . S
C434 C432 1.380 . S
C434 C435 1.170 . S
C435 C434 1.170 . S
C341 C29 1.556 . S
C343 C259 1.471 . S
C345 C49 1.454 . S
C347 C293 1.367 . S
C351 C305 1.446 . S
C349 C93 1.503 . S
C353 C119 1.431 . S
C355 C339 1.378 . S
C359 C296 1.445 . S
C357 C17 1.497 . S
C363 C276 1.409 . S
C361 C61 1.511 . S
C367 C323 1.407 . S
C365 C81 1.454 . S
C371 C314 1.409 . S
C369 C125 1.517 . S
C373 C23 1.493 . S
C375 C322 1.386 . S
C379 C284 1.399 . S
C377 C87 1.461 . S
C381 C113 1.504 . S
C383 C260 1.411 . S
C385 C55 1.480 . S
C387 C317 1.386 . S
C391 C275 1.586 . S
C389 C157 1.698 1_545 S
C393 C189 1.527 . S
C395 C297 1.560 . S
C397 C221 1.722 . S
C399 C302 1.607 . S
C401 C253 1.542 . S
C403 C335 1.636 . S
C405 C145 1.744 1_554 S
C407 C280 1.611 . S
C411 C272 1.579 . S
C409 C183 1.542 . S
C415 C326 1.629 . S
C413 C209 1.732 . S
C419 C318 1.580 . S
C417 C247 1.516 . S
C421 C151 1.704 . S
C423 C338 1.604 . S
C427 C281 1.562 . S
C425 C215 1.737 . S
C431 C263 1.580 . S
C429 C241 1.582 . S
C433 C177 1.598 . S
C435 C301 1.607 . S
