# Generated by pormake.
# Topology zzz, (3,6)-cn, num edge types: 1
# Building blocks:
#     Node 0, Type 0, BuildingBlock: MIDCAF_clean_linker_0, # of connection points: 3
#     Node 1, Type 0, BuildingBlock: MIDCAF_clean_linker_0, # of connection points: 3
#     Node 2, Type 0, BuildingBlock: MIDCAF_clean_linker_0, # of connection points: 3
#     Node 3, Type 0, BuildingBlock: MIDCAF_clean_linker_0, # of connection points: 3
#     Node 4, Type 0, BuildingBlock: MIDCAF_clean_linker_0, # of connection points: 3
#     Node 5, Type 0, BuildingBlock: MIDCAF_clean_linker_0, # of connection points: 3
#     Node 6, Type 0, BuildingBlock: MIDCAF_clean_linker_0, # of connection points: 3
#     Node 7, Type 0, BuildingBlock: MIDCAF_clean_linker_0, # of connection points: 3
#     Node 8, Type 1, BuildingBlock: BETDEL_clean_sbu_0, # of connection points: 6
#     Node 9, Type 1, BuildingBlock: BETDEL_clean_sbu_0, # of connection points: 6
#     Node 10, Type 1, BuildingBlock: BETDEL_clean_sbu_0, # of connection points: 6
#     Node 11, Type 1, BuildingBlock: BETDEL_clean_sbu_0, # of connection points: 6
#     Edge 12, Type (0, 1), BuildingBlock: OJICUG_clean_linker_0, # of connection points: 2
#     Edge 13, Type (0, 1), BuildingBlock: OJICUG_clean_linker_0, # of connection points: 2
#     Edge 14, Type (0, 1), BuildingBlock: OJICUG_clean_linker_0, # of connection points: 2
#     Edge 15, Type (0, 1), BuildingBlock: OJICUG_clean_linker_0, # of connection points: 2
#     Edge 16, Type (0, 1), BuildingBlock: OJICUG_clean_linker_0, # of connection points: 2
#     Edge 17, Type (0, 1), BuildingBlock: OJICUG_clean_linker_0, # of connection points: 2
#     Edge 18, Type (0, 1), BuildingBlock: OJICUG_clean_linker_0, # of connection points: 2
#     Edge 19, Type (0, 1), BuildingBlock: OJICUG_clean_linker_0, # of connection points: 2
#     Edge 20, Type (0, 1), BuildingBlock: OJICUG_clean_linker_0, # of connection points: 2
#     Edge 21, Type (0, 1), BuildingBlock: OJICUG_clean_linker_0, # of connection points: 2
#     Edge 22, Type (0, 1), BuildingBlock: OJICUG_clean_linker_0, # of connection points: 2
#     Edge 23, Type (0, 1), BuildingBlock: OJICUG_clean_linker_0, # of connection points: 2
#     Edge 24, Type (0, 1), BuildingBlock: OJICUG_clean_linker_0, # of connection points: 2
#     Edge 25, Type (0, 1), BuildingBlock: OJICUG_clean_linker_0, # of connection points: 2
#     Edge 26, Type (0, 1), BuildingBlock: OJICUG_clean_linker_0, # of connection points: 2
#     Edge 27, Type (0, 1), BuildingBlock: OJICUG_clean_linker_0, # of connection points: 2
#     Edge 28, Type (0, 1), BuildingBlock: OJICUG_clean_linker_0, # of connection points: 2
#     Edge 29, Type (0, 1), BuildingBlock: OJICUG_clean_linker_0, # of connection points: 2
#     Edge 30, Type (0, 1), BuildingBlock: OJICUG_clean_linker_0, # of connection points: 2
#     Edge 31, Type (0, 1), BuildingBlock: OJICUG_clean_linker_0, # of connection points: 2
#     Edge 32, Type (0, 1), BuildingBlock: OJICUG_clean_linker_0, # of connection points: 2
#     Edge 33, Type (0, 1), BuildingBlock: OJICUG_clean_linker_0, # of connection points: 2
#     Edge 34, Type (0, 1), BuildingBlock: OJICUG_clean_linker_0, # of connection points: 2
#     Edge 35, Type (0, 1), BuildingBlock: OJICUG_clean_linker_0, # of connection points: 2
# Relax obj value: 0.353
# Max RMSD: 0.231
# Mean RMSD: 0.213
data_MOF--net-zzz--node1-BETDEL_clean_sbu_0--node2-MIDCAF_clean_linker_0--edge1-OJICUG_clean_linker_0
_symmetry_space_group_name_H-M    P1
_symmetry_Int_Tables_number       1
_symmetry_cell_setting            triclinic
loop_
_symmetry_equiv_pos_as_xyz
'x, y, z'
_cell_length_a     43.512976
_cell_length_b     43.58339
_cell_length_c     15.420769
_cell_angle_alpha  90.857386
_cell_angle_beta   89.56689
_cell_angle_gamma 95.548435
loop_
_atom_site_label
_atom_site_type_symbol
_atom_site_fract_x
_atom_site_fract_y
_atom_site_fract_z
_atom_type_partial_charge
C0 C 0.81496 0.4786 0.30344 0.0
C1 C 0.83618 0.50453 0.28861 0.0
C2 C 0.8303 0.52379 0.21892 0.0
C3 C 0.8059 0.5156 0.16099 0.0
H4 H 0.69142 0.50185 0.0055 0.0
H5 H 0.6491 0.51117 0.90638 0.0
H6 H 0.69525 0.46625 0.6986 0.0
H7 H 0.73678 0.45716 0.7952 0.0
H8 H 0.78455 0.41517 0.82158 0.0
H9 H 0.8317 0.39912 0.75907 0.0
H10 H 0.86565 0.38292 0.01524 0.0
H11 H 0.81846 0.39956 0.07835 0.0
H12 H 0.77682 0.44876 0.2546 0.0
H13 H 0.81851 0.4629 0.35535 0.0
H14 H 0.84559 0.54434 0.20608 0.0
H15 H 0.80402 0.52919 0.10336 0.0
N16 N 0.75015 0.48299 0.04451 0.0
N17 N 0.75577 0.44291 0.94284 0.0
N18 N 0.78583 0.44663 0.06729 0.0
C19 C 0.7413 0.46787 0.96852 0.0
C20 C 0.7779 0.43207 0.99178 0.0
C21 C 0.77245 0.47184 0.09452 0.0
C22 C 0.71737 0.47824 0.90919 0.0
C23 C 0.69268 0.49445 0.93833 0.0
C24 C 0.66842 0.49973 0.88155 0.0
C25 C 0.66842 0.48881 0.79486 0.0
C26 C 0.69398 0.47424 0.76528 0.0
C27 C 0.71795 0.4691 0.82117 0.0
C28 C 0.79844 0.41002 0.95503 0.0
C29 C 0.80136 0.40685 0.86465 0.0
C30 C 0.8285 0.39745 0.82861 0.0
C31 C 0.85291 0.39092 0.88257 0.0
C32 C 0.84756 0.38874 0.97228 0.0
C33 C 0.8205 0.39828 0.00835 0.0
C34 C 0.78673 0.48806 0.1716 0.0
C35 C 0.79068 0.47053 0.24581 0.0
C36 C 0.95361 0.81282 0.27243 0.0
C37 C 0.97157 0.82225 0.34538 0.0
C38 C 0.99409 0.80337 0.3724 0.0
C39 C 1.00128 0.77826 0.32124 0.0
H40 H 0.05857 0.69049 0.98647 0.0
H41 H 0.04949 0.64314 0.90027 0.0
H42 H 0.95175 0.64085 0.95273 0.0
H43 H 0.96094 0.68817 0.04135 0.0
H44 H 0.07644 0.77145 0.91355 0.0
H45 H 0.09653 0.81564 0.8283 0.0
H46 H 0.07062 0.87674 0.03466 0.0
H47 H 0.0536 0.83323 0.12106 0.0
H48 H 0.94922 0.78329 0.15981 0.0
H49 H 0.93564 0.82641 0.25076 0.0
H50 H 0.00854 0.80982 0.42786 0.0
H51 H 0.02134 0.76666 0.33778 0.0
N52 N 0.99867 0.73157 0.1334 0.0
N53 N 0.03791 0.74486 0.03006 0.0
N54 N 0.02633 0.78049 0.13665 0.0
C55 C 0.01605 0.72368 0.06371 0.0
C56 C 0.04305 0.77346 0.06634 0.0
C57 C 1.00444 0.76004 0.17072 0.0
C58 C 0.01046 0.69307 0.02046 0.0
C59 C 0.03519 0.67962 0.98091 0.0
C60 C 0.03002 0.6524 0.93199 0.0
C61 C 0.99992 0.63829 0.91988 0.0
C62 C 0.97518 0.65126 0.96114 0.0
C63 C 0.98046 0.67821 0.01203 0.0
C64 C 0.06235 0.79872 0.02291 0.0
C65 C 0.07603 0.79436 0.94148 0.0
C66 C 0.0872 0.81984 0.89215 0.0
C67 C 0.08411 0.85016 0.92233 0.0
C68 C 0.07355 0.85414 0.00779 0.0
C69 C 0.06324 0.82882 0.05764 0.0
C70 C 0.98612 0.7715 0.24235 0.0
C71 C 0.96086 0.78764 0.2213 0.0
C72 C 0.6913 0.97903 0.26934 0.0
C73 C 0.68262 1.00014 0.33319 0.0
C74 C 0.70248 0.02721 0.34772 0.0
C75 C 0.72815 0.03453 0.29395 0.0
H76 H 0.84718 0.01537 0.10374 0.0
H77 H 0.89248 1.0022 0.01872 0.0
H78 H 0.83668 0.99488 0.78743 0.0
H79 H 0.79229 0.00771 0.8714 0.0
H80 H 0.75051 0.06289 0.85332 0.0
H81 H 0.70891 0.07904 0.76754 0.0
H82 H 0.66894 0.11763 0.99743 0.0
H83 H 0.71004 0.09979 0.08432 0.0
H84 H 0.72168 0.97085 0.1627 0.0
H85 H 0.67668 0.95805 0.25532 0.0
H86 H 0.69726 0.04369 0.39762 0.0
H87 H 0.74118 0.05687 0.30159 0.0
N88 N 0.77789 0.0151 0.11565 0.0
N89 N 0.77633 0.04776 0.99566 0.0
N90 N 0.74008 0.0501 0.10705 0.0
C91 C 0.79011 0.02581 0.03846 0.0
C92 C 0.75153 0.06021 0.02975 0.0
C93 C 0.75286 0.02773 0.15042 0.0
C94 C 0.81618 0.01235 0.99423 0.0
C95 C 0.84462 0.01007 0.03518 0.0
C96 C 0.87058 1.00289 0.98629 0.0
C97 C 0.86831 0.99735 0.89604 0.0
C98 C 0.83938 0.99842 0.85672 0.0
C99 C 0.81384 0.00592 0.90491 0.0
C100 C 0.733 0.0792 0.97596 0.0
C101 C 0.73345 0.07571 0.88533 0.0
C102 C 0.70948 0.0852 0.8358 0.0
C103 C 0.68486 0.09884 0.87583 0.0
C104 C 0.68689 0.1062 0.96489 0.0
C105 C 0.71057 0.09617 0.01469 0.0
C106 C 0.7352 0.01465 0.22572 0.0
C107 C 0.71736 0.98619 0.21641 0.0
C108 C 0.6029 0.65821 0.02262 0.0
C109 C 0.59033 0.65431 0.93938 0.0
C110 C 0.58629 0.68049 0.89 0.0
C111 C 0.59099 0.70995 0.92743 0.0
H112 H 0.60769 0.81848 0.94713 0.0
H113 H 0.59696 0.86249 0.86044 0.0
H114 H 0.51133 0.86819 1.00007 0.0
H115 H 0.52227 0.82413 0.08827 0.0
H116 H 0.50546 0.73495 0.20979 0.0
H117 H 0.49015 0.68939 0.29608 0.0
H118 H 0.57734 0.70203 0.42994 0.0
H119 H 0.59236 0.74738 0.34364 0.0
H120 H 0.61514 0.6897 0.12675 0.0
H121 H 0.6069 0.6384 0.06112 0.0
H122 H 0.57677 0.6781 0.82527 0.0
H123 H 0.58451 0.72937 0.89104 0.0
N124 N 0.58635 0.76736 0.02662 0.0
N125 N 0.55951 0.7828 0.15107 0.0
N126 N 0.58109 0.73557 0.14692 0.0
C127 C 0.57121 0.78898 0.06981 0.0
C128 C 0.56534 0.75615 0.19031 0.0
C129 C 0.59135 0.74053 0.06522 0.0
C130 C 0.56575 0.81772 0.02437 0.0
C131 C 0.58672 0.82932 0.96019 0.0
C132 C 0.58069 0.85465 0.9108 0.0
C133 C 0.55329 0.86874 0.92328 0.0
C134 C 0.53258 0.85767 0.98882 0.0
C135 C 0.53892 0.83259 0.03959 0.0
C136 C 0.55003 0.74478 0.27035 0.0
C137 C 0.52039 0.72922 0.26187 0.0
C138 C 0.51199 0.70261 0.30974 0.0
C139 C 0.53293 0.6915 0.3679 0.0
C140 C 0.56066 0.70981 0.38552 0.0
C141 C 0.56912 0.73621 0.33707 0.0
C142 C 0.59968 0.71349 0.01476 0.0
C143 C 0.60788 0.68762 0.05968 0.0
C144 C 0.20742 0.5278 0.80547 0.0
C145 C 0.18626 0.50184 0.82047 0.0
C146 C 0.19225 0.48259 0.89008 0.0
C147 C 0.21674 0.4908 0.94771 0.0
H148 H 0.28611 0.54791 0.31295 0.0
H149 H 0.32802 0.53914 0.40859 0.0
H150 H 0.37549 0.49753 0.19731 0.0
H151 H 0.33269 0.5064 0.09941 0.0
H152 H 0.23795 0.59023 0.28815 0.0
H153 H 0.1908 0.60617 0.35116 0.0
H154 H 0.15691 0.62321 0.09549 0.0
H155 H 0.20408 0.60671 0.0319 0.0
H156 H 0.2456 0.55769 0.85395 0.0
H157 H 0.20378 0.5435 0.75363 0.0
H158 H 0.177 0.46204 0.90308 0.0
H159 H 0.21873 0.47721 0.00529 0.0
N160 N 0.27288 0.52356 0.06305 0.0
N161 N 0.26713 0.56333 0.16569 0.0
N162 N 0.2367 0.55955 0.04193 0.0
C163 C 0.28182 0.53861 0.13909 0.0
C164 C 0.24472 0.57403 0.11748 0.0
C165 C 0.25027 0.53455 0.01388 0.0
C166 C 0.30609 0.52837 0.19752 0.0
C167 C 0.30531 0.53674 0.28608 0.0
C168 C 0.32952 0.5318 0.34139 0.0
C169 C 0.35558 0.51829 0.31059 0.0
C170 C 0.35581 0.50814 0.22318 0.0
C171 C 0.33127 0.51316 0.16707 0.0
C172 C 0.22409 0.59586 0.15491 0.0
C173 C 0.22115 0.59871 0.24535 0.0
C174 C 0.19402 0.60804 0.28166 0.0
C175 C 0.16964 0.61482 0.22793 0.0
C176 C 0.17498 0.61722 0.13826 0.0
C177 C 0.20203 0.60776 0.10192 0.0
C178 C 0.23589 0.51835 0.93691 0.0
C179 C 0.23178 0.5359 0.86284 0.0
C180 C 0.07202 0.19611 0.83212 0.0
C181 C 0.05456 0.18649 0.75839 0.0
C182 C 0.03177 0.20494 0.73072 0.0
C183 C 0.02389 0.22981 0.78176 0.0
H184 H 0.96499 0.31746 0.11461 0.0
H185 H 0.97369 0.36433 0.20306 0.0
H186 H 0.07178 0.3661 0.15689 0.0
H187 H 0.06297 0.31928 0.06602 0.0
H188 H 0.94735 0.23608 0.18762 0.0
H189 H 0.92814 0.19166 0.27311 0.0
H190 H 0.95434 0.13107 0.06585 0.0
H191 H 0.97044 0.17479 0.97921 0.0
H192 H 0.07539 0.22557 0.945 0.0
H193 H 0.09015 0.18284 0.85436 0.0
H194 H 0.01768 0.19831 0.6747 0.0
H195 H 1.00368 0.24106 0.76453 0.0
N196 N 0.02555 0.2765 0.97016 0.0
N197 N 0.98583 0.26298 0.07188 0.0
N198 N 0.99782 0.22762 0.965 0.0
C199 C 0.00785 0.28423 0.03935 0.0
C200 C 0.98081 0.23448 0.03492 0.0
C201 C 0.01988 0.24814 0.93205 0.0
C202 C 0.01331 0.31468 0.08357 0.0
C203 C 0.98838 0.32813 0.122 0.0
C204 C 0.99334 0.35508 0.17223 0.0
C205 C 0.02341 0.36887 0.18682 0.0
C206 C 0.04836 0.35592 0.14661 0.0
C207 C 0.04331 0.32926 0.0944 0.0
C208 C 0.96156 0.20908 0.07786 0.0
C209 C 0.94797 0.21322 0.15952 0.0
C210 C 0.93732 0.18761 0.209 0.0
C211 C 0.94089 0.1574 0.17874 0.0
C212 C 0.95114 0.15358 0.09288 0.0
C213 C 0.96091 0.17903 0.04287 0.0
C214 C 0.03863 0.23679 0.86115 0.0
C215 C 0.06409 0.22108 0.8831 0.0
C216 C 0.33304 0.97226 0.77311 0.0
C217 C 0.34447 1.00348 0.76624 0.0
C218 C 0.32806 0.02566 0.80971 0.0
C219 C 0.30282 0.01661 0.86441 0.0
H220 H 0.18131 0.9889 0.99944 0.0
H221 H 0.13626 1.00326 0.08331 0.0
H222 H 0.19299 0.01503 0.31247 0.0
H223 H 0.23716 1.00116 0.22935 0.0
H224 H 0.2769 0.9427 0.25531 0.0
H225 H 0.31879 0.92665 0.34077 0.0
H226 H 0.35589 0.88393 0.11316 0.0
H227 H 0.31438 0.90116 0.02667 0.0
H228 H 0.30129 0.93893 0.83493 0.0
H229 H 0.34481 0.95422 0.74223 0.0
H230 H 0.33552 0.04999 0.80475 0.0
H231 H 0.2924 0.03401 0.90242 0.0
N232 N 0.25099 0.98854 0.98733 0.0
N233 N 0.25118 0.95735 0.11111 0.0
N234 N 0.287 0.95195 1.00032 0.0
C235 C 0.23842 0.97935 0.06566 0.0
C236 C 0.27525 0.94332 0.07848 0.0
C237 C 0.27542 0.97439 0.95428 0.0
C238 C 0.21278 0.9942 0.10776 0.0
C239 C 0.18415 0.99556 0.06707 0.0
C240 C 0.15832 1.00338 0.11544 0.0
C241 C 0.16085 0.01038 0.20495 0.0
C242 C 0.19002 0.01037 0.24371 0.0
C243 C 0.21546 1.0023 0.19601 0.0
C244 C 0.29295 0.92408 0.13378 0.0
C245 C 0.29328 0.92886 0.224 0.0
C246 C 0.31738 0.91948 0.27327 0.0
C247 C 0.34134 0.90484 0.23322 0.0
C248 C 0.33835 0.89606 0.14537 0.0
C249 C 0.31448 0.9058 0.0959 0.0
C250 C 0.29339 0.98521 0.8764 0.0
C251 C 0.30788 0.96335 0.82682 0.0
C252 C 0.42052 0.35008 0.09178 0.0
C253 C 0.43878 0.35434 0.1662 0.0
C254 C 0.44537 0.32851 0.21362 0.0
C255 C 0.43755 0.29881 0.18065 0.0
H256 H 0.41388 0.18831 0.15633 0.0
H257 H 0.42569 0.14438 0.24172 0.0
H258 H 0.51163 0.14123 0.10176 0.0
H259 H 0.49955 0.18526 0.01482 0.0
H260 H 0.5145 0.27293 0.89347 0.0
H261 H 0.53078 0.31798 0.80591 0.0
H262 H 0.44219 0.30891 0.67907 0.0
H263 H 0.42613 0.26414 0.76695 0.0
H264 H 0.40184 0.31783 0.99561 0.0
H265 H 0.41484 0.36969 0.0548 0.0
H266 H 0.45886 0.33136 0.27249 0.0
H267 H 0.44599 0.27957 0.21373 0.0
N268 N 0.43537 0.24069 0.08158 0.0
N269 N 0.46066 0.22602 0.95372 0.0
N270 N 0.43928 0.27334 0.96297 0.0
C271 C 0.44985 0.21929 0.03556 0.0
C272 C 0.45445 0.25297 0.91674 0.0
C273 C 0.43002 0.26782 0.04533 0.0
C274 C 0.45584 0.19032 0.07899 0.0
C275 C 0.43512 0.17801 0.14281 0.0
C276 C 0.44179 0.15273 0.19149 0.0
C277 C 0.46962 0.13942 0.17868 0.0
C278 C 0.49006 0.15116 0.11329 0.0
C279 C 0.48307 0.17618 0.06319 0.0
C280 C 0.46916 0.26488 0.83639 0.0
C281 C 0.49934 0.27934 0.84275 0.0
C282 C 0.50836 0.30562 0.79409 0.0
C283 C 0.48746 0.31754 0.7373 0.0
C284 C 0.45886 0.30043 0.72228 0.0
C285 C 0.44977 0.2744 0.77167 0.0
C286 C 0.42359 0.29474 0.09902 0.0
C287 C 0.41291 0.32038 0.05837 0.0
Dy288 Dy 0.03503 0.99109 0.60622 0.0
C289 C 0.96345 0.05681 0.39693 0.0
C290 C 0.06519 0.95181 0.70423 0.0
Dy291 Dy 0.994 0.01784 0.49487 0.0
O292 O 0.061 0.94963 0.62146 0.0
O293 O 0.05295 0.97584 0.73468 0.0
O294 O 0.07611 0.0158 0.54188 0.0
O295 O 0.03838 0.99972 0.46468 0.0
C296 C 0.06499 0.01435 0.46416 0.0
C297 C 0.96413 0.99443 0.63679 0.0
O298 O 0.98833 0.97079 0.43469 0.0
O299 O 1.0037 0.95 0.56087 0.0
O300 O 0.9678 0.05915 0.47961 0.0
O301 O 0.97581 0.03286 0.36648 0.0
O302 O 0.95299 0.99299 0.55911 0.0
O303 O 0.99068 0.00921 0.63632 0.0
O304 O 0.04059 0.03812 0.66656 0.0
O305 O 0.02526 0.05896 0.54038 0.0
C306 C 0.99119 0.94652 0.48314 0.0
C307 C 0.03767 0.06241 0.61825 0.0
Dy308 Dy 0.49583 0.9783 0.49759 0.0
C309 C 0.57429 0.06823 0.68624 0.0
C310 C 0.45311 0.939 0.41283 0.0
Dy311 Dy 0.53046 0.03021 0.60171 0.0
O312 O 0.4763 0.95491 0.37616 0.0
O313 O 0.45343 0.94449 0.49562 0.0
O314 O 0.54034 0.95733 0.46946 0.0
O315 O 0.54061 0.00513 0.48338 0.0
C316 C 0.55755 0.98339 0.47389 0.0
C317 C 0.46877 0.02615 0.62449 0.0
O318 O 0.52189 0.05614 0.48217 0.0
O319 O 0.48283 0.02083 0.42994 0.0
O320 O 0.54904 0.05555 0.72116 0.0
O321 O 0.5755 0.06022 0.60504 0.0
O322 O 0.4866 0.05176 0.63244 0.0
O323 O 0.48522 0.00396 0.61465 0.0
O324 O 0.50353 0.95265 0.61808 0.0
O325 O 0.54249 0.98771 0.67134 0.0
C326 C 0.49914 0.0482 0.42728 0.0
C327 C 0.526 0.96047 0.67374 0.0
Dy328 Dy 0.51049 0.51759 0.64296 0.0
C329 C 0.50012 0.46601 0.29908 0.0
C330 C 0.52861 0.54244 0.80064 0.0
Dy331 Dy 0.51503 0.49098 0.45819 0.0
O332 O 0.50292 0.54646 0.76179 0.0
O333 O 0.54266 0.5226 0.7557 0.0
O334 O 0.46407 0.53371 0.61291 0.0
O335 O 0.47783 0.49425 0.55079 0.0
C336 C 0.45759 0.51312 0.55213 0.0
C337 C 0.56765 0.49501 0.55023 0.0
O338 O 0.51598 0.54161 0.42888 0.0
O339 O 0.5259 0.56012 0.56886 0.0
O340 O 0.52613 0.46414 0.33868 0.0
O341 O 0.48357 0.48378 0.34386 0.0
O342 O 0.56083 0.47404 0.49085 0.0
O343 O 0.54769 0.5142 0.55028 0.0
O344 O 0.50865 0.46691 0.67239 0.0
O345 O 0.49918 0.44839 0.53202 0.0
C346 C 0.52214 0.56478 0.48508 0.0
C347 C 0.50249 0.44375 0.6161 0.0
Dy348 Dy 0.99752 0.47815 0.60831 0.0
C349 C 0.06007 0.56783 0.39795 0.0
C350 C 0.96223 0.43832 0.71208 0.0
Dy351 Dy 0.02477 0.52792 0.50144 0.0
O352 O 0.96796 0.43372 0.63071 0.0
O353 O 0.97577 0.46479 0.73699 0.0
O354 O 0.02739 0.44569 0.54303 0.0
O355 O 0.00956 0.47985 0.46977 0.0
C356 C 0.02621 0.45764 0.46672 0.0
C357 C 0.99598 0.54832 0.64321 0.0
O358 O 0.97925 0.52193 0.43416 0.0
O359 O 0.95503 0.49513 0.54716 0.0
O360 O 0.05438 0.57235 0.47938 0.0
O361 O 0.04647 0.54141 0.37282 0.0
O362 O 0.99469 0.5602 0.56685 0.0
O363 O 0.0128 0.52625 0.63999 0.0
O364 O 0.04308 0.48413 0.67549 0.0
O365 O 0.06726 0.5109 0.56239 0.0
C366 C 0.95376 0.50956 0.47218 0.0
C367 C 0.06856 0.49649 0.63738 0.0
C368 C 0.13632 0.03685 0.33026 0.0
C369 C 0.13336 0.01552 0.26064 0.0
H370 H 0.11693 0.05313 0.4484 0.0
C371 C 0.10522 0.99678 0.25182 0.0
H372 H 0.15725 0.05219 0.33826 0.0
C373 C 0.0817 0.99779 0.31471 0.0
C374 C 0.08601 0.01737 0.38783 0.0
H375 H 0.1021 0.97999 0.1994 0.0
H376 H 0.06108 0.98187 0.30897 0.0
C377 C 0.11311 0.03756 0.39325 0.0
C378 C 0.50676 0.11719 0.27832 0.0
C379 C 0.47788 0.11473 0.2374 0.0
H380 H 0.53595 0.09843 0.37093 0.0
C381 C 0.45629 0.08967 0.25755 0.0
H382 H 0.52374 0.13641 0.26484 0.0
C383 C 0.46333 0.06773 0.31797 0.0
C384 C 0.49191 0.07069 0.36075 0.0
H385 H 0.43386 0.08715 0.22683 0.0
H386 H 0.44612 0.04883 0.3325 0.0
C387 C 0.51361 0.09557 0.33974 0.0
C388 C 0.3922 0.54188 0.4242 0.0
C389 C 0.38259 0.51657 0.36972 0.0
H390 H 0.42305 0.56052 0.5235 0.0
C391 C 0.39823 0.48985 0.37524 0.0
H392 H 0.3811 0.56303 0.42108 0.0
C393 C 0.4224 0.48839 0.43495 0.0
C394 C 0.43176 0.51377 0.48941 0.0
H395 H 0.39129 0.46984 0.33499 0.0
H396 H 0.43356 0.4673 0.43906 0.0
C397 C 0.41633 0.54048 0.4831 0.0
C398 C 0.04842 0.39286 0.32055 0.0
C399 C 0.02843 0.3949 0.25016 0.0
H400 H 0.06332 0.41132 0.44468 0.0
C401 C 0.01066 0.42014 0.24658 0.0
H402 H 0.0622 0.37355 0.32533 0.0
C403 C 0.01167 0.44202 0.31422 0.0
C404 C 0.02998 0.43869 0.38757 0.0
H405 H 0.99515 0.42232 0.19287 0.0
H406 H 0.99671 0.46046 0.31139 0.0
C407 C 0.04899 0.41441 0.38894 0.0
C408 C 0.92401 0.01094 0.85013 0.0
C409 C 0.89581 0.9924 0.84037 0.0
H410 H 0.96822 0.02601 0.79355 0.0
C411 C 0.89276 0.9715 0.76979 0.0
H412 H 0.92717 0.02739 0.9034 0.0
C413 C 0.91599 0.97102 0.70684 0.0
C414 C 0.94315 0.99108 0.71311 0.0
H415 H 0.87173 0.95636 0.76106 0.0
H416 H 0.9121 0.95578 0.651 0.0
C417 C 0.94754 0.01022 0.78712 0.0
C418 C 0.56777 0.91822 0.84412 0.0
C419 C 0.54568 0.89356 0.8642 0.0
H420 H 0.5788 0.95892 0.76909 0.0
C421 C 0.51685 0.89168 0.82311 0.0
H422 H 0.59017 0.92029 0.87499 0.0
C423 C 0.51052 0.91345 0.7616 0.0
C424 C 0.53269 0.93794 0.7407 0.0
H425 H 0.4995 0.87278 0.83656 0.0
H426 H 0.48821 0.91102 0.73023 0.0
C427 C 0.56124 0.94035 0.78363 0.0
C428 C 0.63088 0.46499 0.68409 0.0
C429 C 0.64164 0.49081 0.73526 0.0
H430 H 0.59936 0.44616 0.58661 0.0
C431 C 0.62753 0.51829 0.72552 0.0
H432 H 0.6409 0.44334 0.69038 0.0
C433 C 0.60375 0.51994 0.66471 0.0
C434 C 0.59312 0.49404 0.61387 0.0
H435 H 0.63542 0.53869 0.76307 0.0
H436 H 0.59393 0.54153 0.65649 0.0
C437 C 0.60703 0.4666 0.62438 0.0
C438 C 0.97404 0.61339 0.78857 0.0
C439 C 0.99459 0.61189 0.85792 0.0
H440 H 0.95844 0.59423 0.66583 0.0
C441 C 0.01259 0.58682 0.86147 0.0
H442 H 0.96007 0.63255 0.78384 0.0
C443 C 0.01129 0.56461 0.79464 0.0
C444 C 0.99245 0.56745 0.72212 0.0
H445 H 0.02852 0.58505 0.91441 0.0
H446 H 0.02645 0.54635 0.79728 0.0
C447 C 0.97318 0.59152 0.72096 0.0
C448 C 0.93459 0.10005 0.2083 0.0
C449 C 0.93937 0.1308 0.23938 0.0
H450 H 0.93938 0.05235 0.23313 0.0
C451 C 0.94775 0.13584 0.32687 0.0
H452 H 0.92698 0.09488 0.14262 0.0
C453 C 0.95345 0.11128 0.37928 0.0
C454 C 0.95177 0.08119 0.34515 0.0
H455 H 0.95215 0.15884 0.35407 0.0
H456 H 0.96133 0.11622 0.44498 0.0
C457 C 0.94141 0.07554 0.26016 0.0
C458 C 0.39891 0.9144 0.23137 0.0
C459 C 0.3716 0.90501 0.27741 0.0
H460 H 0.44637 0.93228 0.23865 0.0
C461 C 0.37318 0.90161 0.36778 0.0
H462 H 0.39866 0.91764 0.16192 0.0
C463 C 0.40063 0.9105 0.41185 0.0
C464 C 0.42693 0.92271 0.36614 0.0
H465 H 0.35274 0.89392 0.40499 0.0
H466 H 0.40067 0.90966 0.48203 0.0
C467 C 0.42632 0.92311 0.27538 0.0
C468 C 0.48708 0.38779 0.19709 0.0
C469 C 0.45487 0.3849 0.18709 0.0
H470 H 0.52714 0.41666 0.23656 0.0
C471 C 0.43871 0.41106 0.19725 0.0
H472 H 0.50016 0.3681 0.18683 0.0
C473 C 0.45423 0.43904 0.2252 0.0
C474 C 0.48609 0.44114 0.24245 0.0
H475 H 0.41394 0.40945 0.18826 0.0
H476 H 0.44096 0.45834 0.23906 0.0
C477 C 0.50259 0.41572 0.22399 0.0
C478 C 0.11544 0.59096 0.21797 0.0
C479 C 0.1376 0.61093 0.26228 0.0
H480 H 0.07325 0.56158 0.22687 0.0
C481 C 0.13075 0.62111 0.34648 0.0
H482 H 0.12002 0.58238 0.15335 0.0
C483 C 0.10381 0.60902 0.38865 0.0
C484 C 0.08355 0.58645 0.3473 0.0
H485 H 0.14724 0.63668 0.38186 0.0
H486 H 0.10011 0.61555 0.4557 0.0
C487 C 0.08871 0.57874 0.2603 0.0
C488 C 0.09202 0.90751 0.89347 0.0
C489 C 0.08664 0.87686 0.86195 0.0
H490 H 0.08856 0.95548 0.86888 0.0
C491 C 0.07868 0.87216 0.77405 0.0
H492 H 0.09937 0.91241 0.95951 0.0
C493 C 0.07392 0.89699 0.72159 0.0
C494 C 0.07614 0.92706 0.75606 0.0
H495 H 0.07386 0.84925 0.7465 0.0
H496 H 0.06629 0.89234 0.65555 0.0
C497 C 0.08614 0.93233 0.84153 0.0
C498 C 0.62709 0.09078 0.87241 0.0
C499 C 0.65512 0.09947 0.82897 0.0
H500 H 0.57932 0.07452 0.86083 0.0
C501 C 0.65462 0.10318 0.73846 0.0
H502 H 0.62637 0.08732 0.94178 0.0
C503 C 0.62754 0.09506 0.69184 0.0
C504 C 0.60044 0.08362 0.73511 0.0
H505 H 0.67554 0.11057 0.70301 0.0
H506 H 0.6283 0.09604 0.62169 0.0
C507 C 0.6 0.08312 0.82591 0.0
C508 C 0.55759 0.60447 0.96168 0.0
C509 C 0.57766 0.62343 0.90837 0.0
H510 H 0.52573 0.56354 0.96901 0.0
C511 C 0.5827 0.61422 0.82251 0.0
H512 H 0.55288 0.61141 0.02782 0.0
C513 C 0.5673 0.58711 0.78969 0.0
C514 C 0.54666 0.56866 0.84194 0.0
H515 H 0.59782 0.62845 0.78002 0.0
H516 H 0.57046 0.58132 0.72193 0.0
C517 C 0.54194 0.57729 0.92833 0.0
C518 C 0.90699 0.4151 0.89232 0.0
C519 C 0.88495 0.39492 0.84825 0.0
H520 H 0.949 0.44476 0.88307 0.0
C521 C 0.89187 0.38466 0.76417 0.0
H522 H 0.90236 0.42375 0.95684 0.0
C523 C 0.91873 0.39689 0.72185 0.0
C524 C 0.93884 0.41966 0.76293 0.0
H525 H 0.87548 0.36894 0.72897 0.0
H526 H 0.92247 0.39028 0.65488 0.0
C527 C 0.93364 0.42745 0.84984 0.0
C528 C 0.05103 0.14966 0.6303 0.0
C529 C 0.05613 0.15508 0.71939 0.0
H530 H 0.04137 0.11631 0.52854 0.0
C531 C 0.05849 0.12954 0.77315 0.0
H532 H 0.0495 0.1687 0.58671 0.0
C533 C 0.05404 0.0994 0.73964 0.0
C534 C 0.04694 0.09406 0.65169 0.0
H535 H 0.06193 0.13267 0.8423 0.0
H536 H 0.05465 0.08033 0.78361 0.0
C537 C 0.0464 0.11955 0.59694 0.0
C538 C 0.38513 0.99378 0.65264 0.0
C539 C 0.37493 0.01202 0.72155 0.0
H540 H 0.42256 0.98388 0.56874 0.0
C541 C 0.3955 0.03667 0.75272 0.0
H542 H 0.36997 0.9752 0.62439 0.0
C543 C 0.42552 0.04201 0.71867 0.0
C544 C 0.43606 0.02248 0.65394 0.0
H545 H 0.38903 0.05111 0.80621 0.0
H546 H 0.44096 0.06061 0.74593 0.0
C547 C 0.41537 0.99872 0.62022 0.0
C548 C 0.48533 0.35651 0.61892 0.0
C549 C 0.49336 0.34951 0.70392 0.0
H550 H 0.48184 0.39151 0.52467 0.0
C551 C 0.50455 0.37383 0.75989 0.0
H552 H 0.47663 0.33836 0.57426 0.0
C553 C 0.50725 0.40441 0.7319 0.0
C554 C 0.49901 0.41143 0.64706 0.0
H555 H 0.51037 0.36934 0.82637 0.0
H556 H 0.5158 0.42252 0.77688 0.0
C557 C 0.48828 0.38705 0.59069 0.0
C558 C 0.15525 0.506 0.68252 0.0
C559 C 0.15659 0.49713 0.76995 0.0
H560 H 0.12687 0.51283 0.57248 0.0
C561 C 0.12866 0.48629 0.81108 0.0
H562 H 0.17611 0.514 0.64766 0.0
C563 C 0.10038 0.48525 0.76734 0.0
C564 C 0.09899 0.49525 0.68118 0.0
H565 H 0.12834 0.47975 0.87854 0.0
H566 H 0.07945 0.47751 0.8023 0.0
C567 C 0.1269 0.50521 0.639 0.0
C568 C 0.97647 0.85935 0.47274 0.0
C569 C 0.97083 0.85381 0.38394 0.0
H570 H 0.98718 0.8928 0.57363 0.0
C571 C 0.96872 0.87932 0.32986 0.0
H572 H 0.97784 0.84035 0.51656 0.0
C573 C 0.97388 0.90949 0.36273 0.0
C574 C 0.98145 0.91491 0.45034 0.0
H575 H 0.9649 0.87609 0.26089 0.0
H576 H 0.97338 0.92851 0.31851 0.0
C577 C 0.9818 0.88949 0.50546 0.0
C578 C 0.6375 0.96609 0.39673 0.0
C579 C 0.6516 0.9957 0.37723 0.0
H580 H 0.59692 0.93899 0.44282 0.0
C581 C 0.63475 0.02121 0.39472 0.0
H582 H 0.64968 0.94587 0.38545 0.0
C583 C 0.60469 0.01722 0.42856 0.0
C584 C 0.59038 0.98762 0.44528 0.0
H585 H 0.64425 0.04436 0.37916 0.0
H586 H 0.59227 0.03735 0.43894 0.0
C587 C 0.60726 0.96211 0.43012 0.0
C588 C 0.53625 0.65225 0.48497 0.0
C589 C 0.5282 0.65927 0.40001 0.0
H590 H 0.54083 0.61718 0.57819 0.0
C591 C 0.51818 0.63485 0.34295 0.0
H592 H 0.54407 0.67046 0.53051 0.0
C593 C 0.51653 0.60418 0.36993 0.0
C594 C 0.52476 0.59716 0.45477 0.0
H595 H 0.51242 0.63936 0.27643 0.0
H596 H 0.50881 0.586 0.32421 0.0
C597 C 0.53444 0.62162 0.51211 0.0
C598 C 0.86708 0.50022 0.42671 0.0
C599 C 0.86581 0.50917 0.33932 0.0
H600 H 0.89538 0.49324 0.53681 0.0
C601 C 0.89377 0.51999 0.29837 0.0
H602 H 0.84619 0.49223 0.46145 0.0
C603 C 0.92202 0.52093 0.34222 0.0
C604 C 0.92335 0.51086 0.42831 0.0
H605 H 0.89416 0.52659 0.23095 0.0
H606 H 0.94298 0.52868 0.30738 0.0
C607 C 0.8954 0.50091 0.47033 0.0
loop_
_geom_bond_atom_site_label_1
_geom_bond_atom_site_label_2
_geom_bond_distance
_geom_bond_site_symmetry_2
_ccdc_geom_bond_type
C0 C1 1.384 . S
C0 H13 0.947 . S
C0 C35 1.382 . S
C1 C0 1.384 . S
C1 C2 1.378 . S
C2 C1 1.378 . S
C2 C3 1.378 . S
C2 H14 0.952 . S
C3 C2 1.378 . S
C3 H15 0.950 . S
C3 C34 1.383 . S
H4 C23 0.947 . S
H5 C24 0.946 . S
H6 C26 0.953 . S
H7 C27 0.945 . S
H8 C29 0.952 . S
H9 C30 0.949 . S
H10 C32 0.950 . S
H11 C33 0.948 . S
H12 C35 0.951 . S
H13 C0 0.947 . S
H14 C2 0.952 . S
H15 C3 0.950 . S
N16 C19 1.382 . S
N16 C21 1.363 . S
N17 C19 1.371 1_556 S
N17 C20 1.372 . S
N18 C20 1.361 1_554 S
N18 C21 1.377 . S
C19 N16 1.382 . S
C19 N17 1.371 1_554 S
C19 C22 1.480 1_554 S
C20 N17 1.372 . S
C20 N18 1.361 1_556 S
C20 C28 1.457 . S
C21 N16 1.363 . S
C21 N18 1.377 . S
C21 C34 1.479 . S
C22 C19 1.480 1_556 S
C22 C23 1.383 1_556 S
C22 C27 1.385 . S
C23 H4 0.947 . S
C23 C22 1.383 1_554 S
C23 C24 1.388 . S
C24 H5 0.946 . S
C24 C23 1.388 . S
C24 C25 1.384 1_554 S
C25 C24 1.384 1_556 S
C25 C26 1.377 . S
C26 H6 0.953 . S
C26 C25 1.377 . S
C26 C27 1.369 . S
C27 H7 0.945 . S
C27 C22 1.385 . S
C27 C26 1.369 . S
C28 C20 1.457 . S
C28 C29 1.372 . S
C28 C33 1.364 . S
C29 H8 0.952 . S
C29 C28 1.372 . S
C29 C30 1.389 . S
C30 H9 0.949 . S
C30 C29 1.389 . S
C30 C31 1.387 . S
C31 C30 1.387 . S
C31 C32 1.372 . S
C32 H10 0.950 . S
C32 C31 1.372 . S
C32 C33 1.379 . S
C33 H11 0.948 . S
C33 C28 1.364 . S
C33 C32 1.379 . S
C34 C3 1.383 . S
C34 C21 1.479 . S
C34 C35 1.398 . S
C35 C0 1.382 . S
C35 H12 0.951 . S
C35 C34 1.398 . S
C36 C37 1.384 . S
C36 H49 0.947 . S
C36 C71 1.382 . S
C37 C36 1.384 . S
C37 C38 1.378 . S
C38 C37 1.378 . S
C38 C39 1.378 . S
C38 H50 0.952 . S
C39 C38 1.378 . S
C39 H51 0.950 . S
C39 C70 1.383 . S
H40 C59 0.947 . S
H41 C60 0.946 . S
H42 C62 0.953 . S
H43 C63 0.945 . S
H44 C65 0.952 . S
H45 C66 0.949 . S
H46 C68 0.950 . S
H47 C69 0.948 . S
H48 C71 0.951 . S
H49 C36 0.947 . S
H50 C38 0.952 . S
H51 C39 0.950 . S
N52 C55 1.382 . S
N52 C57 1.363 . S
N53 C55 1.371 1_556 S
N53 C56 1.372 . S
N54 C56 1.361 1_554 S
N54 C57 1.377 . S
C55 N52 1.382 . S
C55 N53 1.371 1_554 S
C55 C58 1.480 1_554 S
C56 N53 1.372 . S
C56 N54 1.361 1_556 S
C56 C64 1.457 . S
C57 N52 1.363 . S
C57 N54 1.377 . S
C57 C70 1.479 . S
C58 C55 1.480 1_556 S
C58 C59 1.383 1_556 S
C58 C63 1.385 . S
C59 H40 0.947 . S
C59 C58 1.383 1_554 S
C59 C60 1.388 . S
C60 H41 0.946 . S
C60 C59 1.388 . S
C60 C61 1.384 1_554 S
C61 C60 1.384 1_556 S
C61 C62 1.377 . S
C62 H42 0.953 . S
C62 C61 1.377 . S
C62 C63 1.369 . S
C63 H43 0.945 . S
C63 C58 1.385 . S
C63 C62 1.369 . S
C64 C56 1.457 . S
C64 C65 1.372 . S
C64 C69 1.364 . S
C65 H44 0.952 . S
C65 C64 1.372 . S
C65 C66 1.389 . S
C66 H45 0.949 . S
C66 C65 1.389 . S
C66 C67 1.387 . S
C67 C66 1.387 . S
C67 C68 1.372 . S
C68 H46 0.950 . S
C68 C67 1.372 . S
C68 C69 1.379 . S
C69 H47 0.948 . S
C69 C64 1.364 . S
C69 C68 1.379 . S
C70 C39 1.383 . S
C70 C57 1.479 . S
C70 C71 1.398 . S
C71 C36 1.382 . S
C71 H48 0.951 . S
C71 C70 1.398 . S
C72 C73 1.384 1_565 S
C72 H85 0.947 . S
C72 C107 1.382 1_565 S
C73 C72 1.384 1_545 S
C73 C74 1.378 . S
C74 C73 1.378 . S
C74 C75 1.378 . S
C74 H86 0.952 . S
C75 C74 1.378 . S
C75 H87 0.950 . S
C75 C106 1.383 . S
H76 C95 0.947 . S
H77 C96 0.954 . S
H78 C98 0.953 . S
H79 C99 0.945 . S
H80 C101 0.946 1_565 S
H81 C102 0.949 . S
H82 C104 0.950 . S
H83 C105 0.948 . S
H84 C107 0.951 1_565 S
H85 C72 0.947 . S
H86 C74 0.952 . S
H87 C75 0.950 . S
N88 C91 1.382 . S
N88 C93 1.363 . S
N89 C91 1.371 1_556 S
N89 C92 1.372 . S
N90 C92 1.361 1_554 S
N90 C93 1.377 . S
C91 N88 1.382 . S
C91 N89 1.371 1_554 S
C91 C94 1.480 1_554 S
C92 N89 1.372 . S
C92 N90 1.361 1_556 S
C92 C100 1.457 . S
C93 N88 1.363 . S
C93 N90 1.377 . S
C93 C106 1.479 . S
C94 C91 1.480 1_556 S
C94 C95 1.383 1_556 S
C94 C99 1.385 . S
C95 H76 0.947 . S
C95 C94 1.383 1_554 S
C95 C96 1.383 1_545 S
C96 H77 0.954 . S
C96 C95 1.383 1_565 S
C96 C97 1.382 1_564 S
C97 C96 1.382 1_546 S
C97 C98 1.377 . S
C98 H78 0.953 . S
C98 C97 1.377 . S
C98 C99 1.369 . S
C99 H79 0.945 . S
C99 C94 1.385 . S
C99 C98 1.369 . S
C100 C92 1.457 . S
C100 C101 1.377 . S
C100 C105 1.364 . S
C101 H80 0.946 1_545 S
C101 C100 1.377 . S
C101 C102 1.389 1_545 S
C102 H81 0.949 . S
C102 C101 1.389 1_565 S
C102 C103 1.387 1_565 S
C103 C102 1.387 1_545 S
C103 C104 1.372 . S
C104 H82 0.950 . S
C104 C103 1.372 . S
C104 C105 1.379 . S
C105 H83 0.948 . S
C105 C100 1.364 . S
C105 C104 1.379 . S
C106 C75 1.383 . S
C106 C93 1.479 . S
C106 C107 1.398 . S
C107 C72 1.382 1_545 S
C107 H84 0.951 1_545 S
C107 C106 1.398 . S
C108 C109 1.384 . S
C108 H121 0.947 . S
C108 C143 1.382 . S
C109 C108 1.384 . S
C109 C110 1.378 . S
C110 C109 1.378 . S
C110 C111 1.378 . S
C110 H122 0.952 . S
C111 C110 1.378 . S
C111 H123 0.950 . S
C111 C142 1.383 . S
H112 C131 0.947 . S
H113 C132 0.946 . S
H114 C134 0.953 . S
H115 C135 0.945 . S
H116 C137 0.952 . S
H117 C138 0.949 . S
H118 C140 0.950 . S
H119 C141 0.948 . S
H120 C143 0.951 1_554 S
H121 C108 0.947 . S
H122 C110 0.952 . S
H123 C111 0.950 . S
N124 C127 1.382 1_556 S
N124 C129 1.363 1_556 S
N125 C127 1.371 . S
N125 C128 1.372 . S
N126 C128 1.361 . S
N126 C129 1.377 . S
C127 N124 1.382 1_554 S
C127 N125 1.371 . S
C127 C130 1.480 . S
C128 N125 1.372 . S
C128 N126 1.361 . S
C128 C136 1.457 . S
C129 N124 1.363 1_554 S
C129 N126 1.377 . S
C129 C142 1.479 1_554 S
C130 C127 1.480 . S
C130 C131 1.383 1_554 S
C130 C135 1.385 . S
C131 H112 0.947 . S
C131 C130 1.383 1_556 S
C131 C132 1.388 . S
C132 H113 0.946 . S
C132 C131 1.388 . S
C132 C133 1.383 1_556 S
C133 C132 1.383 1_554 S
C133 C134 1.377 . S
C134 H114 0.953 . S
C134 C133 1.377 . S
C134 C135 1.369 . S
C135 H115 0.945 . S
C135 C130 1.385 . S
C135 C134 1.369 . S
C136 C128 1.457 . S
C136 C137 1.372 . S
C136 C141 1.364 . S
C137 H116 0.952 . S
C137 C136 1.372 . S
C137 C138 1.389 . S
C138 H117 0.949 . S
C138 C137 1.389 . S
C138 C139 1.387 . S
C139 C138 1.387 . S
C139 C140 1.372 . S
C140 H118 0.950 . S
C140 C139 1.372 . S
C140 C141 1.379 . S
C141 H119 0.948 . S
C141 C136 1.364 . S
C141 C140 1.379 . S
C142 C111 1.383 . S
C142 C129 1.479 1_556 S
C142 C143 1.398 . S
C143 C108 1.382 . S
C143 H120 0.951 1_556 S
C143 C142 1.398 . S
C144 C145 1.384 . S
C144 H157 0.947 . S
C144 C179 1.382 . S
C145 C144 1.384 . S
C145 C146 1.378 . S
C146 C145 1.378 . S
C146 C147 1.378 . S
C146 H158 0.952 . S
C147 C146 1.378 . S
C147 H159 0.950 . S
C147 C178 1.383 . S
H148 C167 0.947 1_556 S
H149 C168 0.946 . S
H150 C170 0.953 . S
H151 C171 0.945 . S
H152 C173 0.952 . S
H153 C174 0.949 . S
H154 C176 0.950 . S
H155 C177 0.948 . S
H156 C179 0.951 . S
H157 C144 0.947 . S
H158 C146 0.952 . S
H159 C147 0.950 . S
N160 C163 1.385 . S
N160 C165 1.362 1_554 S
N161 C163 1.371 . S
N161 C164 1.372 . S
N162 C164 1.361 . S
N162 C165 1.377 1_554 S
C163 N160 1.385 . S
C163 N161 1.371 . S
C163 C166 1.480 . S
C164 N161 1.372 . S
C164 N162 1.361 . S
C164 C172 1.457 . S
C165 N160 1.362 1_556 S
C165 N162 1.377 1_556 S
C165 C178 1.479 . S
C166 C163 1.480 . S
C166 C167 1.383 . S
C166 C171 1.385 . S
C167 H148 0.947 1_554 S
C167 C166 1.383 . S
C167 C168 1.388 . S
C168 H149 0.946 . S
C168 C167 1.388 . S
C168 C169 1.384 . S
C169 C168 1.384 . S
C169 C170 1.377 . S
C170 H150 0.953 . S
C170 C169 1.377 . S
C170 C171 1.369 . S
C171 H151 0.945 . S
C171 C166 1.385 . S
C171 C170 1.369 . S
C172 C164 1.457 . S
C172 C173 1.372 . S
C172 C177 1.364 . S
C173 H152 0.952 . S
C173 C172 1.372 . S
C173 C174 1.389 . S
C174 H153 0.949 . S
C174 C173 1.389 . S
C174 C175 1.387 . S
C175 C174 1.387 . S
C175 C176 1.372 . S
C176 H154 0.950 . S
C176 C175 1.372 . S
C176 C177 1.379 . S
C177 H155 0.948 . S
C177 C172 1.364 . S
C177 C176 1.379 . S
C178 C147 1.383 . S
C178 C165 1.479 . S
C178 C179 1.398 . S
C179 C144 1.382 . S
C179 H156 0.951 . S
C179 C178 1.398 . S
C180 C181 1.384 . S
C180 H193 0.947 . S
C180 C215 1.382 . S
C181 C180 1.384 . S
C181 C182 1.378 . S
C182 C181 1.378 . S
C182 C183 1.378 . S
C182 H194 0.952 . S
C183 C182 1.378 . S
C183 H195 0.950 . S
C183 C214 1.383 . S
H184 C203 0.947 1_556 S
H185 C204 0.946 . S
H186 C206 0.953 . S
H187 C207 0.945 . S
H188 C209 0.952 . S
H189 C210 0.949 . S
H190 C212 0.950 . S
H191 C213 0.948 . S
H192 C215 0.951 . S
H193 C180 0.947 . S
H194 C182 0.952 . S
H195 C183 0.950 . S
N196 C199 1.382 . S
N196 C201 1.363 1_554 S
N197 C199 1.371 . S
N197 C200 1.372 . S
N198 C200 1.361 . S
N198 C201 1.377 1_554 S
C199 N196 1.382 . S
C199 N197 1.371 . S
C199 C202 1.480 . S
C200 N197 1.372 . S
C200 N198 1.361 . S
C200 C208 1.457 . S
C201 N196 1.363 1_556 S
C201 N198 1.377 1_556 S
C201 C214 1.479 . S
C202 C199 1.480 . S
C202 C203 1.383 . S
C202 C207 1.385 . S
C203 H184 0.947 1_554 S
C203 C202 1.383 . S
C203 C204 1.388 . S
C204 H185 0.946 . S
C204 C203 1.388 . S
C204 C205 1.384 . S
C205 C204 1.384 . S
C205 C206 1.377 . S
C206 H186 0.953 . S
C206 C205 1.377 . S
C206 C207 1.369 . S
C207 H187 0.945 . S
C207 C202 1.385 . S
C207 C206 1.369 . S
C208 C200 1.457 . S
C208 C209 1.372 . S
C208 C213 1.364 . S
C209 H188 0.952 . S
C209 C208 1.372 . S
C209 C210 1.389 . S
C210 H189 0.949 . S
C210 C209 1.389 . S
C210 C211 1.387 . S
C211 C210 1.387 . S
C211 C212 1.372 . S
C212 H190 0.950 . S
C212 C211 1.372 . S
C212 C213 1.379 . S
C213 H191 0.948 . S
C213 C208 1.364 . S
C213 C212 1.379 . S
C214 C183 1.383 . S
C214 C201 1.479 . S
C214 C215 1.398 . S
C215 C180 1.382 . S
C215 H192 0.951 . S
C215 C214 1.398 . S
C216 C217 1.384 1_565 S
C216 H229 0.947 . S
C216 C251 1.382 1_565 S
C217 C216 1.384 1_545 S
C217 C218 1.378 . S
C218 C217 1.378 . S
C218 C219 1.378 . S
C218 H230 0.952 . S
C219 C218 1.378 . S
C219 H231 0.950 . S
C219 C250 1.383 . S
H220 C239 0.947 1_556 S
H221 C240 0.948 . S
H222 C242 0.953 . S
H223 C243 0.945 . S
H224 C245 0.950 1_565 S
H225 C246 0.954 . S
H226 C248 0.950 . S
H227 C249 0.948 . S
H228 C251 0.949 1_565 S
H229 C216 0.947 . S
H230 C218 0.952 . S
H231 C219 0.950 . S
N232 C235 1.382 1_556 S
N232 C237 1.363 . S
N233 C235 1.371 . S
N233 C236 1.372 . S
N234 C236 1.361 . S
N234 C237 1.377 1_554 S
C235 N232 1.382 1_554 S
C235 N233 1.371 . S
C235 C238 1.480 . S
C236 N233 1.372 . S
C236 N234 1.361 . S
C236 C244 1.457 . S
C237 N232 1.363 . S
C237 N234 1.377 1_556 S
C237 C250 1.479 . S
C238 C235 1.480 . S
C238 C239 1.383 . S
C238 C243 1.385 . S
C239 H220 0.947 1_554 S
C239 C238 1.383 . S
C239 C240 1.388 1_545 S
C240 H221 0.948 . S
C240 C239 1.388 1_565 S
C240 C241 1.382 1_565 S
C241 C240 1.382 1_545 S
C241 C242 1.377 . S
C242 H222 0.953 . S
C242 C241 1.377 . S
C242 C243 1.369 . S
C243 H223 0.945 . S
C243 C238 1.385 . S
C243 C242 1.369 . S
C244 C236 1.457 . S
C244 C245 1.378 . S
C244 C249 1.364 . S
C245 H224 0.950 1_545 S
C245 C244 1.378 . S
C245 C246 1.381 1_545 S
C246 H225 0.954 . S
C246 C245 1.381 1_565 S
C246 C247 1.386 1_565 S
C247 C246 1.386 1_545 S
C247 C248 1.372 . S
C248 H226 0.950 . S
C248 C247 1.372 . S
C248 C249 1.379 . S
C249 H227 0.948 . S
C249 C244 1.364 . S
C249 C248 1.379 . S
C250 C219 1.383 . S
C250 C237 1.479 . S
C250 C251 1.400 . S
C251 C216 1.382 1_545 S
C251 H228 0.949 1_545 S
C251 C250 1.400 . S
C252 C253 1.384 . S
C252 H265 0.947 . S
C252 C287 1.382 . S
C253 C252 1.384 . S
C253 C254 1.378 . S
C254 C253 1.378 . S
C254 C255 1.378 . S
C254 H266 0.952 . S
C255 C254 1.378 . S
C255 H267 0.950 . S
C255 C286 1.383 . S
H256 C275 0.947 . S
H257 C276 0.946 . S
H258 C278 0.953 1_556 S
H259 C279 0.945 . S
H260 C281 0.952 . S
H261 C282 0.949 . S
H262 C284 0.950 . S
H263 C285 0.948 . S
H264 C287 0.951 . S
H265 C252 0.947 . S
H266 C254 0.952 . S
H267 C255 0.950 . S
N268 C271 1.382 . S
N268 C273 1.363 . S
N269 C271 1.371 1_556 S
N269 C272 1.372 . S
N270 C272 1.361 1_554 S
N270 C273 1.377 . S
C271 N268 1.382 . S
C271 N269 1.371 1_554 S
C271 C274 1.480 . S
C272 N269 1.372 . S
C272 N270 1.361 1_556 S
C272 C280 1.457 . S
C273 N268 1.363 . S
C273 N270 1.377 . S
C273 C286 1.479 . S
C274 C271 1.480 . S
C274 C275 1.383 . S
C274 C279 1.385 1_554 S
C275 H256 0.947 . S
C275 C274 1.383 . S
C275 C276 1.388 . S
C276 H257 0.946 . S
C276 C275 1.388 . S
C276 C277 1.384 . S
C277 C276 1.384 . S
C277 C278 1.377 . S
C278 H258 0.953 1_554 S
C278 C277 1.377 . S
C278 C279 1.369 1_554 S
C279 H259 0.945 . S
C279 C274 1.385 1_556 S
C279 C278 1.369 1_556 S
C280 C272 1.457 . S
C280 C281 1.372 . S
C280 C285 1.364 . S
C281 H260 0.952 . S
C281 C280 1.372 . S
C281 C282 1.389 . S
C282 H261 0.949 . S
C282 C281 1.389 . S
C282 C283 1.387 . S
C283 C282 1.387 . S
C283 C284 1.372 . S
C284 H262 0.950 . S
C284 C283 1.372 . S
C284 C285 1.379 . S
C285 H263 0.948 . S
C285 C280 1.364 . S
C285 C284 1.379 . S
C286 C255 1.383 . S
C286 C273 1.479 . S
C286 C287 1.398 . S
C287 C252 1.382 . S
C287 H264 0.951 . S
C287 C286 1.398 . S
Dy288 O292 2.398 . S
Dy288 O293 2.491 1_455 S
Dy288 O294 2.403 . S
Dy288 O295 2.664 1_565 S
Dy288 O299 2.326 . S
Dy288 O303 2.310 1_455 S
Dy288 O304 2.351 1_565 S
C289 O300 1.185 1_455 S
C289 O301 1.355 . S
C290 O292 1.185 . S
C290 O293 1.355 1_455 S
Dy291 O295 2.310 1_655 S
Dy291 O298 2.351 1_545 S
Dy291 O300 2.398 . S
Dy291 O301 2.491 1_655 S
Dy291 O302 2.403 . S
Dy291 O303 2.664 1_545 S
Dy291 O305 2.326 1_655 S
O292 Dy288 2.398 . S
O292 C290 1.185 . S
O293 Dy288 2.491 1_655 S
O293 C290 1.355 1_655 S
O294 Dy288 2.403 . S
O294 C296 1.254 . S
O295 Dy288 2.664 1_545 S
O295 Dy291 2.310 1_455 S
O295 C296 1.268 1_545 S
C296 O294 1.254 . S
C296 O295 1.268 1_565 S
C297 O302 1.254 . S
C297 O303 1.268 1_545 S
O298 Dy291 2.351 1_565 S
O298 C306 1.249 . S
O299 Dy288 2.326 . S
O299 C306 1.267 1_455 S
O300 C289 1.185 1_655 S
O300 Dy291 2.398 . S
O301 C289 1.355 . S
O301 Dy291 2.491 1_455 S
O302 Dy291 2.403 . S
O302 C297 1.254 . S
O303 Dy288 2.310 1_655 S
O303 Dy291 2.664 1_565 S
O303 C297 1.268 1_565 S
O304 Dy288 2.351 1_545 S
O304 C307 1.249 . S
O305 Dy291 2.326 1_455 S
O305 C307 1.267 . S
C306 O298 1.249 . S
C306 O299 1.267 1_655 S
C307 O304 1.249 . S
C307 O305 1.267 . S
Dy308 O312 2.398 . S
Dy308 O313 2.491 . S
Dy308 O314 2.403 . S
Dy308 O315 2.664 . S
Dy308 O319 2.326 1_565 S
Dy308 O323 2.310 1_565 S
Dy308 O324 2.351 . S
C309 O320 1.185 . S
C309 O321 1.355 . S
C310 O312 1.185 . S
C310 O313 1.355 . S
Dy311 O315 2.310 1_545 S
Dy311 O318 2.351 . S
Dy311 O320 2.398 . S
Dy311 O321 2.491 . S
Dy311 O322 2.403 . S
Dy311 O323 2.664 . S
Dy311 O325 2.326 1_545 S
O312 Dy308 2.398 . S
O312 C310 1.185 . S
O313 Dy308 2.491 . S
O313 C310 1.355 . S
O314 Dy308 2.403 . S
O314 C316 1.254 . S
O315 Dy308 2.664 . S
O315 Dy311 2.310 1_565 S
O315 C316 1.268 . S
C316 O314 1.254 . S
C316 O315 1.268 . S
C317 O322 1.254 . S
C317 O323 1.268 . S
O318 Dy311 2.351 . S
O318 C326 1.249 . S
O319 Dy308 2.326 1_545 S
O319 C326 1.267 . S
O320 C309 1.185 . S
O320 Dy311 2.398 . S
O321 C309 1.355 . S
O321 Dy311 2.491 . S
O322 Dy311 2.403 . S
O322 C317 1.254 . S
O323 Dy308 2.310 1_545 S
O323 Dy311 2.664 . S
O323 C317 1.268 . S
O324 Dy308 2.351 . S
O324 C327 1.249 . S
O325 Dy311 2.326 1_565 S
O325 C327 1.267 . S
C326 O318 1.249 . S
C326 O319 1.267 . S
C327 O324 1.249 . S
C327 O325 1.267 . S
Dy328 O332 2.398 . S
Dy328 O333 2.491 . S
Dy328 O334 2.403 . S
Dy328 O335 2.664 . S
Dy328 O339 2.326 . S
Dy328 O343 2.310 . S
Dy328 O344 2.351 . S
C329 O340 1.185 . S
C329 O341 1.355 . S
C330 O332 1.185 . S
C330 O333 1.355 . S
Dy331 O335 2.310 . S
Dy331 O338 2.351 . S
Dy331 O340 2.398 . S
Dy331 O341 2.491 . S
Dy331 O342 2.403 . S
Dy331 O343 2.664 . S
Dy331 O345 2.326 . S
O332 Dy328 2.398 . S
O332 C330 1.185 . S
O333 Dy328 2.491 . S
O333 C330 1.355 . S
O334 Dy328 2.403 . S
O334 C336 1.254 . S
O335 Dy328 2.664 . S
O335 Dy331 2.310 . S
O335 C336 1.268 . S
C336 O334 1.254 . S
C336 O335 1.268 . S
C337 O342 1.254 . S
C337 O343 1.268 . S
O338 Dy331 2.351 . S
O338 C346 1.249 . S
O339 Dy328 2.326 . S
O339 C346 1.267 . S
O340 C329 1.185 . S
O340 Dy331 2.398 . S
O341 C329 1.355 . S
O341 Dy331 2.491 . S
O342 Dy331 2.403 . S
O342 C337 1.254 . S
O343 Dy328 2.310 . S
O343 Dy331 2.664 . S
O343 C337 1.268 . S
O344 Dy328 2.351 . S
O344 C347 1.249 . S
O345 Dy331 2.326 . S
O345 C347 1.267 . S
C346 O338 1.249 . S
C346 O339 1.267 . S
C347 O344 1.249 . S
C347 O345 1.267 . S
Dy348 O352 2.398 . S
Dy348 O353 2.491 . S
Dy348 O354 2.403 . S
Dy348 O355 2.664 1_655 S
Dy348 O359 2.326 . S
Dy348 O363 2.310 . S
Dy348 O364 2.351 1_655 S
C349 O360 1.185 . S
C349 O361 1.355 . S
C350 O352 1.185 . S
C350 O353 1.355 . S
Dy351 O355 2.310 . S
Dy351 O358 2.351 1_455 S
Dy351 O360 2.398 . S
Dy351 O361 2.491 . S
Dy351 O362 2.403 . S
Dy351 O363 2.664 1_455 S
Dy351 O365 2.326 . S
O352 Dy348 2.398 . S
O352 C350 1.185 . S
O353 Dy348 2.491 . S
O353 C350 1.355 . S
O354 Dy348 2.403 . S
O354 C356 1.254 1_655 S
O355 Dy348 2.664 1_455 S
O355 Dy351 2.310 . S
O355 C356 1.268 . S
C356 O354 1.254 1_455 S
C356 O355 1.268 . S
C357 O362 1.254 1_655 S
C357 O363 1.268 . S
O358 Dy351 2.351 1_655 S
O358 C366 1.249 . S
O359 Dy348 2.326 . S
O359 C366 1.267 . S
O360 C349 1.185 . S
O360 Dy351 2.398 . S
O361 C349 1.355 . S
O361 Dy351 2.491 . S
O362 Dy351 2.403 . S
O362 C357 1.254 1_455 S
O363 Dy348 2.310 . S
O363 Dy351 2.664 1_655 S
O363 C357 1.268 . S
O364 Dy348 2.351 1_455 S
O364 C367 1.249 . S
O365 Dy351 2.326 . S
O365 C367 1.267 . S
C366 O358 1.249 . S
C366 O359 1.267 . S
C367 O364 1.249 . S
C367 O365 1.267 . S
C368 C369 1.356 1_545 S
C368 H372 0.950 . S
C368 C377 1.390 . S
C369 C368 1.356 1_565 S
C369 C371 1.420 . S
H370 C377 0.950 . S
C371 C369 1.420 . S
C371 C373 1.390 . S
C371 H375 0.950 . S
H372 C368 0.950 . S
C373 C371 1.390 . S
C373 C374 1.387 . S
C373 H376 0.950 . S
C374 C373 1.387 . S
C374 C377 1.387 1_565 S
H375 C371 0.950 . S
H376 C373 0.950 . S
C377 C368 1.390 . S
C377 H370 0.950 . S
C377 C374 1.387 1_545 S
C378 C379 1.387 . S
C378 H382 0.950 . S
C378 C387 1.390 . S
C379 C378 1.387 . S
C379 C381 1.387 . S
H380 C387 0.950 . S
C381 C379 1.387 . S
C381 C383 1.390 . S
C381 H385 0.950 . S
H382 C378 0.950 . S
C383 C381 1.390 . S
C383 C384 1.387 . S
C383 H386 0.950 . S
C384 C383 1.387 . S
C384 C387 1.387 . S
H385 C381 0.950 . S
H386 C383 0.950 . S
C387 C378 1.390 . S
C387 H380 0.950 . S
C387 C384 1.387 . S
C388 C389 1.387 . S
C388 H392 0.950 . S
C388 C397 1.390 . S
C389 C388 1.387 . S
C389 C391 1.387 . S
H390 C397 0.950 . S
C391 C389 1.387 . S
C391 C393 1.390 . S
C391 H395 0.950 . S
H392 C388 0.950 . S
C393 C391 1.390 . S
C393 C394 1.387 . S
C393 H396 0.950 . S
C394 C393 1.387 . S
C394 C397 1.387 . S
H395 C391 0.950 . S
H396 C393 0.950 . S
C397 C388 1.390 . S
C397 H390 0.950 . S
C397 C394 1.387 . S
C398 C399 1.387 . S
C398 H402 0.950 . S
C398 C407 1.390 . S
C399 C398 1.387 . S
C399 C401 1.387 . S
H400 C407 0.950 . S
C401 C399 1.387 . S
C401 C403 1.390 . S
C401 H405 0.950 . S
H402 C398 0.950 . S
C403 C401 1.390 . S
C403 C404 1.387 . S
C403 H406 0.950 . S
C404 C403 1.387 . S
C404 C407 1.387 . S
H405 C401 0.950 . S
H406 C403 0.950 . S
C407 C398 1.390 . S
C407 H400 0.950 . S
C407 C404 1.387 . S
C408 C409 1.387 . S
C408 H412 0.950 . S
C408 C417 1.390 . S
C409 C408 1.387 . S
C409 C411 1.387 1_545 S
H410 C417 0.950 . S
C411 C409 1.387 1_565 S
C411 C413 1.390 . S
C411 H415 0.950 . S
H412 C408 0.950 . S
C413 C411 1.390 . S
C413 C414 1.387 1_565 S
C413 H416 0.950 . S
C414 C413 1.387 1_545 S
C414 C417 1.387 . S
H415 C411 0.950 . S
H416 C413 0.950 . S
C417 C408 1.390 . S
C417 H410 0.950 . S
C417 C414 1.387 . S
C418 C419 1.387 . S
C418 H422 0.950 . S
C418 C427 1.390 . S
C419 C418 1.387 . S
C419 C421 1.387 . S
H420 C427 0.950 . S
C421 C419 1.387 . S
C421 C423 1.390 . S
C421 H425 0.950 . S
H422 C418 0.950 . S
C423 C421 1.390 . S
C423 C424 1.387 . S
C423 H426 0.950 . S
C424 C423 1.387 . S
C424 C427 1.387 . S
H425 C421 0.950 . S
H426 C423 0.950 . S
C427 C418 1.390 . S
C427 H420 0.950 . S
C427 C424 1.387 . S
C428 C429 1.387 . S
C428 H432 0.950 . S
C428 C437 1.390 . S
C429 C428 1.387 . S
C429 C431 1.387 . S
H430 C437 0.950 . S
C431 C429 1.387 . S
C431 C433 1.390 . S
C431 H435 0.950 . S
H432 C428 0.950 . S
C433 C431 1.390 . S
C433 C434 1.387 . S
C433 H436 0.950 . S
C434 C433 1.387 . S
C434 C437 1.387 . S
H435 C431 0.950 . S
H436 C433 0.950 . S
C437 C428 1.390 . S
C437 H430 0.950 . S
C437 C434 1.387 . S
C438 C439 1.387 . S
C438 H442 0.950 . S
C438 C447 1.390 . S
C439 C438 1.387 . S
C439 C441 1.387 . S
H440 C447 0.950 . S
C441 C439 1.387 . S
C441 C443 1.390 . S
C441 H445 0.950 . S
H442 C438 0.950 . S
C443 C441 1.390 . S
C443 C444 1.387 . S
C443 H446 0.950 . S
C444 C443 1.387 . S
C444 C447 1.387 . S
H445 C441 0.950 . S
H446 C443 0.950 . S
C447 C438 1.390 . S
C447 H440 0.950 . S
C447 C444 1.387 . S
C448 C449 1.387 . S
C448 H452 0.950 . S
C448 C457 1.390 . S
C449 C448 1.387 . S
C449 C451 1.387 . S
H450 C457 0.950 . S
C451 C449 1.387 . S
C451 C453 1.390 . S
C451 H455 0.950 . S
H452 C448 0.950 . S
C453 C451 1.390 . S
C453 C454 1.387 . S
C453 H456 0.950 . S
C454 C453 1.387 . S
C454 C457 1.387 . S
H455 C451 0.950 . S
H456 C453 0.950 . S
C457 C448 1.390 . S
C457 H450 0.950 . S
C457 C454 1.387 . S
C458 C459 1.389 . S
C458 H462 0.950 . S
C458 C467 1.390 . S
C459 C458 1.389 . S
C459 C461 1.386 1_545 S
H460 C467 0.950 . S
C461 C459 1.386 1_565 S
C461 C463 1.390 . S
C461 H465 0.950 . S
H462 C458 0.950 . S
C463 C461 1.390 . S
C463 C464 1.387 . S
C463 H466 0.950 . S
C464 C463 1.387 . S
C464 C467 1.387 1_565 S
H465 C461 0.950 . S
H466 C463 0.950 . S
C467 C458 1.390 . S
C467 H460 0.950 . S
C467 C464 1.387 1_545 S
C468 C469 1.387 . S
C468 H472 0.950 . S
C468 C477 1.390 . S
C469 C468 1.387 . S
C469 C471 1.387 . S
H470 C477 0.950 . S
C471 C469 1.387 . S
C471 C473 1.390 . S
C471 H475 0.950 . S
H472 C468 0.950 . S
C473 C471 1.390 . S
C473 C474 1.387 . S
C473 H476 0.950 . S
C474 C473 1.387 . S
C474 C477 1.387 . S
H475 C471 0.950 . S
H476 C473 0.950 . S
C477 C468 1.390 . S
C477 H470 0.950 . S
C477 C474 1.387 . S
C478 C479 1.387 . S
C478 H482 0.950 . S
C478 C487 1.390 . S
C479 C478 1.387 . S
C479 C481 1.387 . S
H480 C487 0.950 . S
C481 C479 1.387 . S
C481 C483 1.390 . S
C481 H485 0.950 . S
H482 C478 0.950 . S
C483 C481 1.390 . S
C483 C484 1.387 . S
C483 H486 0.950 . S
C484 C483 1.387 . S
C484 C487 1.387 . S
H485 C481 0.950 . S
H486 C483 0.950 . S
C487 C478 1.390 . S
C487 H480 0.950 . S
C487 C484 1.387 . S
C488 C489 1.387 . S
C488 H492 0.950 . S
C488 C497 1.390 . S
C489 C488 1.387 . S
C489 C491 1.387 . S
H490 C497 0.950 . S
C491 C489 1.387 . S
C491 C493 1.390 . S
C491 H495 0.950 . S
H492 C488 0.950 . S
C493 C491 1.390 . S
C493 C494 1.387 . S
C493 H496 0.950 . S
C494 C493 1.387 . S
C494 C497 1.387 . S
H495 C491 0.950 . S
H496 C493 0.950 . S
C497 C488 1.390 . S
C497 H490 0.950 . S
C497 C494 1.387 . S
C498 C499 1.388 . S
C498 H502 0.950 . S
C498 C507 1.390 . S
C499 C498 1.388 . S
C499 C501 1.387 1_565 S
H500 C507 0.950 . S
C501 C499 1.387 1_545 S
C501 C503 1.390 . S
C501 H505 0.950 . S
H502 C498 0.950 . S
C503 C501 1.390 . S
C503 C504 1.387 . S
C503 H506 0.950 . S
C504 C503 1.387 . S
C504 C507 1.387 1_545 S
H505 C501 0.950 . S
H506 C503 0.950 . S
C507 C498 1.390 . S
C507 H500 0.950 . S
C507 C504 1.387 1_565 S
C508 C509 1.387 . S
C508 H512 0.950 . S
C508 C517 1.390 . S
C509 C508 1.387 . S
C509 C511 1.387 . S
H510 C517 0.950 . S
C511 C509 1.387 . S
C511 C513 1.390 . S
C511 H515 0.950 . S
H512 C508 0.950 . S
C513 C511 1.390 . S
C513 C514 1.387 . S
C513 H516 0.950 . S
C514 C513 1.387 . S
C514 C517 1.387 . S
H515 C511 0.950 . S
H516 C513 0.950 . S
C517 C508 1.390 . S
C517 H510 0.950 . S
C517 C514 1.387 . S
C518 C519 1.387 . S
C518 H522 0.950 . S
C518 C527 1.390 . S
C519 C518 1.387 . S
C519 C521 1.387 . S
H520 C527 0.950 . S
C521 C519 1.387 . S
C521 C523 1.390 . S
C521 H525 0.950 . S
H522 C518 0.950 . S
C523 C521 1.390 . S
C523 C524 1.387 . S
C523 H526 0.950 . S
C524 C523 1.387 . S
C524 C527 1.387 . S
H525 C521 0.950 . S
H526 C523 0.950 . S
C527 C518 1.390 . S
C527 H520 0.950 . S
C527 C524 1.387 . S
C528 C529 1.387 . S
C528 H532 0.950 . S
C528 C537 1.390 . S
C529 C528 1.387 . S
C529 C531 1.387 . S
H530 C537 0.950 . S
C531 C529 1.387 . S
C531 C533 1.390 . S
C531 H535 0.950 . S
H532 C528 0.950 . S
C533 C531 1.390 . S
C533 C534 1.387 . S
C533 H536 0.950 . S
C534 C533 1.387 . S
C534 C537 1.387 . S
H535 C531 0.950 . S
H536 C533 0.950 . S
C537 C528 1.390 . S
C537 H530 0.950 . S
C537 C534 1.387 . S
C538 C539 1.387 1_565 S
C538 H542 0.950 . S
C538 C547 1.390 . S
C539 C538 1.387 1_545 S
C539 C541 1.387 . S
H540 C547 0.950 . S
C541 C539 1.387 . S
C541 C543 1.390 . S
C541 H545 0.950 . S
H542 C538 0.950 . S
C543 C541 1.390 . S
C543 C544 1.387 . S
C543 H546 0.950 . S
C544 C543 1.387 . S
C544 C547 1.387 1_545 S
H545 C541 0.950 . S
H546 C543 0.950 . S
C547 C538 1.390 . S
C547 H540 0.950 . S
C547 C544 1.387 1_565 S
C548 C549 1.387 . S
C548 H552 0.950 . S
C548 C557 1.390 . S
C549 C548 1.387 . S
C549 C551 1.387 . S
H550 C557 0.950 . S
C551 C549 1.387 . S
C551 C553 1.390 . S
C551 H555 0.950 . S
H552 C548 0.950 . S
C553 C551 1.390 . S
C553 C554 1.387 . S
C553 H556 0.950 . S
C554 C553 1.387 . S
C554 C557 1.387 . S
H555 C551 0.950 . S
H556 C553 0.950 . S
C557 C548 1.390 . S
C557 H550 0.950 . S
C557 C554 1.387 . S
C558 C559 1.387 . S
C558 H562 0.950 . S
C558 C567 1.390 . S
C559 C558 1.387 . S
C559 C561 1.387 . S
H560 C567 0.950 . S
C561 C559 1.387 . S
C561 C563 1.390 . S
C561 H565 0.950 . S
H562 C558 0.950 . S
C563 C561 1.390 . S
C563 C564 1.387 . S
C563 H566 0.950 . S
C564 C563 1.387 . S
C564 C567 1.387 . S
H565 C561 0.950 . S
H566 C563 0.950 . S
C567 C558 1.390 . S
C567 H560 0.950 . S
C567 C564 1.387 . S
C568 C569 1.387 . S
C568 H572 0.950 . S
C568 C577 1.390 . S
C569 C568 1.387 . S
C569 C571 1.387 . S
H570 C577 0.950 . S
C571 C569 1.387 . S
C571 C573 1.390 . S
C571 H575 0.950 . S
H572 C568 0.950 . S
C573 C571 1.390 . S
C573 C574 1.387 . S
C573 H576 0.950 . S
C574 C573 1.387 . S
C574 C577 1.387 . S
H575 C571 0.950 . S
H576 C573 0.950 . S
C577 C568 1.390 . S
C577 H570 0.950 . S
C577 C574 1.387 . S
C578 C579 1.387 . S
C578 H582 0.950 . S
C578 C587 1.390 . S
C579 C578 1.387 . S
C579 C581 1.387 1_565 S
H580 C587 0.950 . S
C581 C579 1.387 1_545 S
C581 C583 1.390 . S
C581 H585 0.950 . S
H582 C578 0.950 . S
C583 C581 1.390 . S
C583 C584 1.387 1_545 S
C583 H586 0.950 . S
C584 C583 1.387 1_565 S
C584 C587 1.387 . S
H585 C581 0.950 . S
H586 C583 0.950 . S
C587 C578 1.390 . S
C587 H580 0.950 . S
C587 C584 1.387 . S
C588 C589 1.387 . S
C588 H592 0.950 . S
C588 C597 1.390 . S
C589 C588 1.387 . S
C589 C591 1.387 . S
H590 C597 0.950 . S
C591 C589 1.387 . S
C591 C593 1.390 . S
C591 H595 0.950 . S
H592 C588 0.950 . S
C593 C591 1.390 . S
C593 C594 1.387 . S
C593 H596 0.950 . S
C594 C593 1.387 . S
C594 C597 1.387 . S
H595 C591 0.950 . S
H596 C593 0.950 . S
C597 C588 1.390 . S
C597 H590 0.950 . S
C597 C594 1.387 . S
C598 C599 1.387 . S
C598 H602 0.950 . S
C598 C607 1.390 . S
C599 C598 1.387 . S
C599 C601 1.387 . S
H600 C607 0.950 . S
C601 C599 1.387 . S
C601 C603 1.390 . S
C601 H605 0.950 . S
H602 C598 0.950 . S
C603 C601 1.390 . S
C603 C604 1.387 . S
C603 H606 0.950 . S
C604 C603 1.387 . S
C604 C607 1.387 . S
H605 C601 0.950 . S
H606 C603 0.950 . S
C607 C598 1.390 . S
C607 H600 0.950 . S
C607 C604 1.387 . S
C369 C241 1.832 1_565 S
C374 C296 2.029 . S
C384 C326 2.506 . S
C379 C277 2.315 . S
C394 C336 2.132 . S
C389 C169 1.893 . S
C404 C356 2.069 . S
C399 C205 1.837 . S
C414 C297 2.028 . S
C409 C97 1.827 . S
C419 C133 2.403 1_556 S
C424 C327 2.508 . S
C429 C25 1.956 . S
C434 C337 2.132 . S
C439 C61 1.768 . S
C444 C357 2.069 . S
C454 C289 1.185 . S
C449 C211 1.121 . S
C464 C310 0.731 . S
C459 C247 0.734 . S
C474 C329 1.405 . S
C469 C253 1.248 . S
C479 C175 0.808 . S
C484 C349 0.831 . S
C489 C67 1.055 . S
C494 C290 1.194 1_655 S
C504 C309 0.738 . S
C499 C103 0.744 1_565 S
C514 C330 1.408 . S
C509 C109 1.326 . S
C519 C31 0.817 . S
C524 C350 0.831 . S
C529 C181 2.405 . S
C534 C307 2.682 . S
C539 C217 2.085 . S
C544 C317 2.432 . S
C554 C347 2.912 . S
C549 C283 2.467 . S
C564 C367 2.773 . S
C559 C145 2.462 . S
C569 C37 2.369 . S
C574 C306 2.689 . S
C584 C316 2.432 . S
C579 C73 2.092 1_565 S
C594 C346 2.911 . S
C589 C139 2.532 . S
C599 C1 2.513 . S
C604 C366 2.772 . S
