# Generated by pormake.
# Topology pyr, (3,6)-cn, num edge types: 1
# Building blocks:
#     Node 0, Type 0, BuildingBlock: BELTOD_clean_linker_0, # of connection points: 3
#     Node 1, Type 0, BuildingBlock: BELTOD_clean_linker_0, # of connection points: 3
#     Node 2, Type 0, BuildingBlock: BELTOD_clean_linker_0, # of connection points: 3
#     Node 3, Type 0, BuildingBlock: BELTOD_clean_linker_0, # of connection points: 3
#     Node 4, Type 0, BuildingBlock: BELTOD_clean_linker_0, # of connection points: 3
#     Node 5, Type 0, BuildingBlock: BELTOD_clean_linker_0, # of connection points: 3
#     Node 6, Type 0, BuildingBlock: BELTOD_clean_linker_0, # of connection points: 3
#     Node 7, Type 0, BuildingBlock: BELTOD_clean_linker_0, # of connection points: 3
#     Node 8, Type 1, BuildingBlock: GEDQOX_clean_sbu_0, # of connection points: 6
#     Node 9, Type 1, BuildingBlock: GEDQOX_clean_sbu_0, # of connection points: 6
#     Node 10, Type 1, BuildingBlock: GEDQOX_clean_sbu_0, # of connection points: 6
#     Node 11, Type 1, BuildingBlock: GEDQOX_clean_sbu_0, # of connection points: 6
#     Edge 12, Type (0, 1), BuildingBlock: XIVTED_clean_linker_0, # of connection points: 2
#     Edge 13, Type (0, 1), BuildingBlock: XIVTED_clean_linker_0, # of connection points: 2
#     Edge 14, Type (0, 1), BuildingBlock: XIVTED_clean_linker_0, # of connection points: 2
#     Edge 15, Type (0, 1), BuildingBlock: XIVTED_clean_linker_0, # of connection points: 2
#     Edge 16, Type (0, 1), BuildingBlock: XIVTED_clean_linker_0, # of connection points: 2
#     Edge 17, Type (0, 1), BuildingBlock: XIVTED_clean_linker_0, # of connection points: 2
#     Edge 18, Type (0, 1), BuildingBlock: XIVTED_clean_linker_0, # of connection points: 2
#     Edge 19, Type (0, 1), BuildingBlock: XIVTED_clean_linker_0, # of connection points: 2
#     Edge 20, Type (0, 1), BuildingBlock: XIVTED_clean_linker_0, # of connection points: 2
#     Edge 21, Type (0, 1), BuildingBlock: XIVTED_clean_linker_0, # of connection points: 2
#     Edge 22, Type (0, 1), BuildingBlock: XIVTED_clean_linker_0, # of connection points: 2
#     Edge 23, Type (0, 1), BuildingBlock: XIVTED_clean_linker_0, # of connection points: 2
#     Edge 24, Type (0, 1), BuildingBlock: XIVTED_clean_linker_0, # of connection points: 2
#     Edge 25, Type (0, 1), BuildingBlock: XIVTED_clean_linker_0, # of connection points: 2
#     Edge 26, Type (0, 1), BuildingBlock: XIVTED_clean_linker_0, # of connection points: 2
#     Edge 27, Type (0, 1), BuildingBlock: XIVTED_clean_linker_0, # of connection points: 2
#     Edge 28, Type (0, 1), BuildingBlock: XIVTED_clean_linker_0, # of connection points: 2
#     Edge 29, Type (0, 1), BuildingBlock: XIVTED_clean_linker_0, # of connection points: 2
#     Edge 30, Type (0, 1), BuildingBlock: XIVTED_clean_linker_0, # of connection points: 2
#     Edge 31, Type (0, 1), BuildingBlock: XIVTED_clean_linker_0, # of connection points: 2
#     Edge 32, Type (0, 1), BuildingBlock: XIVTED_clean_linker_0, # of connection points: 2
#     Edge 33, Type (0, 1), BuildingBlock: XIVTED_clean_linker_0, # of connection points: 2
#     Edge 34, Type (0, 1), BuildingBlock: XIVTED_clean_linker_0, # of connection points: 2
#     Edge 35, Type (0, 1), BuildingBlock: XIVTED_clean_linker_0, # of connection points: 2
# Relax obj value: 0.111
# Max RMSD: 0.158
# Mean RMSD: 0.060
data_MOF--net-pyr--node1-GEDQOX_clean_sbu_0--node2-BELTOD_clean_linker_0--edge1-XIVTED_clean_linker_0
_symmetry_space_group_name_H-M    P1
_symmetry_Int_Tables_number       1
_symmetry_cell_setting            triclinic
loop_
_symmetry_equiv_pos_as_xyz
'x, y, z'
_cell_length_a     45.027557
_cell_length_b     46.131568
_cell_length_c     39.361705
_cell_angle_alpha  87.370446
_cell_angle_beta   91.19667
_cell_angle_gamma 86.904259
loop_
_atom_site_label
_atom_site_type_symbol
_atom_site_fract_x
_atom_site_fract_y
_atom_site_fract_z
_atom_type_partial_charge
P0 P 0.21223 0.199 0.19845 0.0
H1 H 0.26549 0.21926 0.16587 0.0
H2 H 0.30825 0.19457 0.14019 0.0
H3 H 0.26525 0.11331 0.14973 0.0
H4 H 0.22233 0.13834 0.17549 0.0
H5 H 0.17195 0.24417 0.22362 0.0
H6 H 0.14444 0.28667 0.19749 0.0
H7 H 0.17632 0.26374 0.09901 0.0
H8 H 0.20411 0.22092 0.12573 0.0
H9 H 0.22803 0.1502 0.24687 0.0
H10 H 0.14695 0.19431 0.20726 0.0
O11 O 0.23202 0.21526 0.22764 0.0
H12 H 0.1996 0.123 0.28869 0.0
H13 H 0.1185 0.16761 0.24937 0.0
C14 C 0.24049 0.18083 0.17281 0.0
C15 C 0.26494 0.1962 0.16196 0.0
C16 C 0.28965 0.18191 0.14752 0.0
C17 C 0.29067 0.15171 0.14318 0.0
C18 C 0.26542 0.13654 0.15251 0.0
C19 C 0.24073 0.15089 0.1673 0.0
C20 C 0.18988 0.2289 0.17675 0.0
C21 C 0.17275 0.24797 0.1963 0.0
C22 C 0.15687 0.2724 0.18119 0.0
C23 C 0.1578 0.27889 0.14591 0.0
C24 C 0.17509 0.25972 0.12625 0.0
C25 C 0.19088 0.23499 0.14148 0.0
C26 C 0.18986 0.1744 0.22361 0.0
C27 C 0.20404 0.15364 0.24662 0.0
C28 C 0.18769 0.1381 0.27071 0.0
C29 C 0.15665 0.14322 0.27285 0.0
C30 C 0.14237 0.16336 0.24898 0.0
C31 C 0.15873 0.17861 0.22459 0.0
P32 P 0.39625 0.81605 0.72717 0.0
H33 H 0.45261 0.82 0.76375 0.0
H34 H 0.46499 0.84049 0.8182 0.0
H35 H 0.37147 0.84995 0.84022 0.0
H36 H 0.35927 0.82963 0.78592 0.0
H37 H 0.39903 0.79205 0.66107 0.0
H38 H 0.41375 0.74414 0.64142 0.0
H39 H 0.43536 0.71397 0.74501 0.0
H40 H 0.42046 0.76237 0.76459 0.0
H41 H 0.35712 0.86724 0.71088 0.0
H42 H 0.34863 0.77488 0.72585 0.0
O43 O 0.41275 0.84055 0.7026 0.0
H44 H 0.30405 0.87378 0.69654 0.0
H45 H 0.29544 0.78125 0.71151 0.0
C46 C 0.40508 0.8235 0.77062 0.0
C47 C 0.43484 0.82577 0.78074 0.0
C48 C 0.44188 0.83744 0.8119 0.0
C49 C 0.41916 0.8472 0.83331 0.0
C50 C 0.38943 0.84308 0.82402 0.0
C51 C 0.38245 0.8313 0.79296 0.0
C52 C 0.40907 0.78079 0.71414 0.0
C53 C 0.40711 0.77517 0.67955 0.0
C54 C 0.41523 0.7477 0.6684 0.0
C55 C 0.42552 0.72522 0.69169 0.0
C56 C 0.42765 0.73094 0.72648 0.0
C57 C 0.41922 0.75854 0.73768 0.0
C58 C 0.35687 0.82055 0.71854 0.0
C59 C 0.34378 0.84839 0.71112 0.0
C60 C 0.31342 0.8521 0.70325 0.0
C61 C 0.29562 0.82798 0.70274 0.0
C62 C 0.30869 0.80016 0.71125 0.0
C63 C 0.33907 0.79652 0.71941 0.0
P64 P 0.7873 0.35003 0.79178 0.0
H65 H 0.83856 0.33489 0.83601 0.0
H66 H 0.86824 0.36295 0.87395 0.0
H67 H 0.80909 0.43861 0.85105 0.0
H68 H 0.7799 0.41052 0.81272 0.0
H69 H 0.76963 0.29398 0.77007 0.0
H70 H 0.73851 0.25765 0.796 0.0
H71 H 0.73316 0.3067 0.88682 0.0
H72 H 0.76414 0.34307 0.86057 0.0
H73 H 0.78692 0.38237 0.72595 0.0
H74 H 0.72522 0.36636 0.80618 0.0
O75 O 0.81153 0.33596 0.76467 0.0
H76 H 0.74683 0.408 0.6915 0.0
H77 H 0.68522 0.39159 0.77189 0.0
C78 C 0.80734 0.37071 0.82129 0.0
C79 C 0.83195 0.35749 0.83935 0.0
C80 C 0.84871 0.3735 0.86124 0.0
C81 C 0.84108 0.40306 0.86544 0.0
C82 C 0.81579 0.41599 0.848 0.0
C83 C 0.79902 0.39992 0.82612 0.0
C84 C 0.76963 0.32086 0.81365 0.0
C85 C 0.7624 0.2965 0.7959 0.0
C86 C 0.7446 0.27577 0.81074 0.0
C87 C 0.73339 0.27935 0.84344 0.0
C88 C 0.74133 0.30348 0.8615 0.0
C89 C 0.75929 0.32409 0.84669 0.0
C90 C 0.75884 0.37175 0.76816 0.0
C91 C 0.76484 0.38451 0.73622 0.0
C92 C 0.74199 0.39927 0.71668 0.0
C93 C 0.71286 0.40137 0.72888 0.0
C94 C 0.70735 0.38981 0.76163 0.0
C95 C 0.73022 0.37535 0.78122 0.0
P96 P 0.78469 0.85611 0.27722 0.0
H97 H 0.81302 0.91135 0.26939 0.0
H98 H 0.84532 0.93723 0.30716 0.0
H99 H 0.84245 0.86678 0.38307 0.0
H100 H 0.81012 0.84136 0.34559 0.0
H101 H 0.76744 0.83304 0.21272 0.0
H102 H 0.79091 0.79444 0.18024 0.0
H103 H 0.87065 0.79643 0.24275 0.0
H104 H 0.84721 0.83502 0.27499 0.0
H105 H 0.72712 0.85732 0.31125 0.0
H106 H 0.80057 0.7953 0.29725 0.0
O107 O 0.76012 0.87996 0.25763 0.0
H108 H 0.70106 0.81967 0.3431 0.0
H109 H 0.77488 0.75809 0.32847 0.0
C110 C 0.80859 0.87482 0.30498 0.0
C111 C 0.81929 0.9016 0.29424 0.0
C112 C 0.83793 0.91622 0.31571 0.0
C113 C 0.8462 0.90415 0.34823 0.0
C114 C 0.836 0.87691 0.35845 0.0
C115 C 0.81748 0.86233 0.33696 0.0
C116 C 0.80565 0.83706 0.24604 0.0
C117 C 0.79044 0.82609 0.21841 0.0
C118 C 0.80382 0.80395 0.19997 0.0
C119 C 0.83242 0.79226 0.20933 0.0
C120 C 0.84845 0.80493 0.23526 0.0
C121 C 0.83517 0.82722 0.25346 0.0
C122 C 0.76538 0.82895 0.30101 0.0
C123 C 0.73754 0.83566 0.31481 0.0
C124 C 0.72279 0.81422 0.33311 0.0
C125 C 0.73577 0.78584 0.33774 0.0
C126 C 0.76399 0.77954 0.32458 0.0
C127 C 0.77871 0.80091 0.30664 0.0
P128 P 0.8636 0.8728 0.90217 0.0
H129 H 0.83715 0.88391 0.96774 0.0
H130 H 0.7885 0.90242 0.98526 0.0
H131 H 0.75672 0.90426 0.88077 0.0
H132 H 0.80541 0.88416 0.86381 0.0
H133 H 0.87993 0.84256 0.96741 0.0
H134 H 0.90095 0.79385 0.98364 0.0
H135 H 0.89277 0.76975 0.87935 0.0
H136 H 0.87095 0.8186 0.86335 0.0
H137 H 0.84245 0.9215 0.85441 0.0
H138 H 0.91192 0.85344 0.85756 0.0
O139 O 0.88502 0.89186 0.92694 0.0
H140 H 0.86186 0.94172 0.80148 0.0
H141 H 0.93163 0.87363 0.80504 0.0
C142 C 0.82549 0.88316 0.91425 0.0
C143 C 0.81969 0.88803 0.94852 0.0
C144 C 0.79167 0.89906 0.95852 0.0
C145 C 0.76829 0.90577 0.93454 0.0
C146 C 0.77381 0.89955 0.90027 0.0
C147 C 0.80192 0.88818 0.89034 0.0
C148 C 0.87436 0.83474 0.91395 0.0
C149 C 0.88221 0.82676 0.94799 0.0
C150 C 0.89429 0.79872 0.95731 0.0
C151 C 0.89909 0.77776 0.9328 0.0
C152 C 0.89 0.7854 0.89887 0.0
C153 C 0.87738 0.8134 0.88967 0.0
C154 C 0.8743 0.88459 0.85929 0.0
C155 C 0.86114 0.91011 0.84317 0.0
C156 C 0.87276 0.9221 0.81304 0.0
C157 C 0.89832 0.90929 0.79842 0.0
C158 C 0.91149 0.88379 0.81471 0.0
C159 C 0.89992 0.87193 0.84486 0.0
P160 P 0.71287 0.29463 0.23751 0.0
H161 H 0.6878 0.35466 0.2315 0.0
H162 H 0.65967 0.38471 0.27064 0.0
H163 H 0.65768 0.31114 0.34228 0.0
H164 H 0.68631 0.28132 0.3034 0.0
H165 H 0.77014 0.31589 0.25744 0.0
H166 H 0.80957 0.29655 0.29722 0.0
H167 H 0.76088 0.2195 0.31625 0.0
H168 H 0.72151 0.23904 0.27663 0.0
H169 H 0.66115 0.2604 0.25498 0.0
H170 H 0.72365 0.26689 0.17378 0.0
O171 O 0.72668 0.31684 0.20786 0.0
H172 H 0.6373 0.22159 0.22646 0.0
H173 H 0.6998 0.2281 0.14505 0.0
C174 C 0.68914 0.31572 0.26449 0.0
C175 C 0.68114 0.34489 0.25548 0.0
C176 C 0.66517 0.36209 0.2779 0.0
C177 C 0.65658 0.35024 0.3095 0.0
C178 C 0.6638 0.32075 0.31797 0.0
C179 C 0.68017 0.30371 0.29576 0.0
C180 C 0.74322 0.27865 0.2636 0.0
C181 C 0.76823 0.29461 0.26973 0.0
C182 C 0.79074 0.28355 0.29246 0.0
C183 C 0.78833 0.2565 0.30985 0.0
C184 C 0.76325 0.2405 0.30344 0.0
C185 C 0.74086 0.25152 0.28055 0.0
C186 C 0.69389 0.26695 0.21622 0.0
C187 C 0.66967 0.25368 0.23095 0.0
C188 C 0.65614 0.2313 0.21471 0.0
C189 C 0.66659 0.22187 0.18343 0.0
C190 C 0.69096 0.23517 0.16887 0.0
C191 C 0.70461 0.25734 0.18527 0.0
P192 P 0.37299 0.59408 0.14173 0.0
H193 H 0.33634 0.54459 0.15113 0.0
H194 H 0.28302 0.53853 0.14332 0.0
H195 H 0.26971 0.62979 0.11378 0.0
H196 H 0.32294 0.63554 0.12105 0.0
H197 H 0.40113 0.62034 0.08201 0.0
H198 H 0.41862 0.669 0.06997 0.0
H199 H 0.38517 0.69593 0.16646 0.0
H200 H 0.3671 0.64766 0.17771 0.0
H201 H 0.34229 0.58776 0.20708 0.0
H202 H 0.43229 0.58537 0.1714 0.0
O203 O 0.39058 0.57083 0.11672 0.0
H204 H 0.36115 0.58247 0.26594 0.0
H205 H 0.45124 0.58045 0.2302 0.0
C206 C 0.33359 0.59045 0.13673 0.0
C207 C 0.32188 0.56327 0.14303 0.0
C208 C 0.2914 0.5599 0.13877 0.0
C209 C 0.27212 0.58371 0.12796 0.0
C210 C 0.28401 0.61097 0.12178 0.0
C211 C 0.31449 0.61431 0.12614 0.0
C212 C 0.38325 0.63039 0.13095 0.0
C213 C 0.39735 0.63685 0.10036 0.0
C214 C 0.40746 0.66461 0.09361 0.0
C215 C 0.40352 0.68631 0.11736 0.0
C216 C 0.38833 0.6799 0.14742 0.0
C217 C 0.3782 0.65222 0.15406 0.0
C218 C 0.38595 0.58628 0.18486 0.0
C219 C 0.36608 0.58552 0.21182 0.0
C220 C 0.37686 0.58265 0.24547 0.0
C221 C 0.40764 0.58117 0.25258 0.0
C222 C 0.42741 0.58181 0.22545 0.0
C223 C 0.41663 0.58429 0.19189 0.0
P224 P 0.26639 0.18437 0.78512 0.0
H225 H 0.27833 0.1387 0.7382 0.0
H226 H 0.24621 0.1107 0.70301 0.0
H227 H 0.1688 0.15394 0.74542 0.0
H228 H 0.20105 0.18053 0.78173 0.0
H229 H 0.32559 0.20598 0.79386 0.0
H230 H 0.35436 0.23831 0.75798 0.0
H231 H 0.28715 0.23703 0.67812 0.0
H232 H 0.25891 0.20451 0.71381 0.0
H233 H 0.26786 0.20432 0.8549 0.0
H234 H 0.22376 0.23003 0.75909 0.0
O235 O 0.28649 0.16334 0.81365 0.0
H236 H 0.24583 0.24778 0.88013 0.0
H237 H 0.20195 0.27351 0.78391 0.0
C238 C 0.24212 0.16214 0.76199 0.0
C239 C 0.25442 0.14187 0.74012 0.0
C240 C 0.23599 0.12609 0.71978 0.0
C241 C 0.20484 0.13037 0.72088 0.0
C242 C 0.19264 0.14994 0.74393 0.0
C243 C 0.21113 0.1655 0.7645 0.0
C244 C 0.29053 0.20229 0.7562 0.0
C245 C 0.31757 0.21197 0.76823 0.0
C246 C 0.33379 0.23071 0.74785 0.0
C247 C 0.323 0.24029 0.71522 0.0
C248 C 0.29635 0.22969 0.70287 0.0
C249 C 0.28017 0.21102 0.72328 0.0
C250 C 0.24687 0.21365 0.80536 0.0
C251 C 0.25303 0.21903 0.83947 0.0
C252 C 0.24069 0.24402 0.85374 0.0
C253 C 0.2221 0.26404 0.83402 0.0
C254 C 0.21576 0.2583 0.79994 0.0
C255 C 0.2282 0.23344 0.78572 0.0
Nd256 Nd 0.03667 0.99708 0.52244 0.0
Nd257 Nd 1.00653 0.05276 0.53833 0.0
C258 C 0.05344 0.94224 0.51331 0.0
C259 C 0.06791 0.91942 0.53619 0.0
C260 C 0.06275 0.91896 0.57126 0.0
C261 C 0.08103 0.90142 0.59379 0.0
C262 C 0.10503 0.88435 0.58169 0.0
C263 C 0.10885 0.88347 0.54634 0.0
C264 C 0.09042 0.90088 0.5238 0.0
C265 C 0.0712 0.0307 0.56165 0.0
C266 C 0.9963 1.00015 0.59177 0.0
C267 C 0.9892 0.10746 0.54747 0.0
C268 C 0.97488 0.13023 0.52445 0.0
C269 C 0.9561 0.15198 0.53754 0.0
C270 C 0.93848 0.17074 0.51554 0.0
C271 C 0.93937 0.16793 0.48011 0.0
C272 C 0.95931 0.14693 0.46711 0.0
C273 C 0.9768 0.12815 0.4891 0.0
C274 C 0.9719 0.01876 0.5 0.0
C275 C 0.04751 0.04983 0.46937 0.0
O276 O 1.02607 0.95075 0.52001 0.0
O277 O 0.06997 0.96393 0.50588 0.0
O278 O 0.0814 0.01529 0.53743 0.0
O279 O 0.04405 0.02705 0.5658 0.0
O280 O 1.00588 0.98391 0.56693 0.0
O281 O 0.99911 0.02851 0.58957 0.0
O282 O 1.01666 0.09918 0.54097 0.0
O283 O 0.97275 0.08563 0.5545 0.0
O284 O 0.96192 0.03418 0.5243 0.0
O285 O 0.99896 0.0226 0.49517 0.0
O286 O 0.03726 0.06607 0.49388 0.0
O287 O 0.04512 0.02142 0.47158 0.0
H288 H 0.04563 0.93327 0.58145 0.0
H289 H 0.07719 0.90225 0.62081 0.0
H290 H 0.12729 0.87086 0.53613 0.0
H291 H 0.09492 0.90119 0.49685 0.0
H292 H 0.95417 0.15371 0.56477 0.0
H293 H 0.92357 0.1869 0.52629 0.0
H294 H 0.96025 0.14392 0.44002 0.0
H295 H 0.99083 0.11116 0.47852 0.0
Nd296 Nd 0.52943 1.00604 0.06474 0.0
Nd297 Nd 0.52173 0.04207 1.00629 0.0
C298 C 0.53558 0.96142 0.10958 0.0
C299 C 0.52551 0.93161 0.11023 0.0
C300 C 0.52571 0.91561 0.0807 0.0
C301 C 0.5131 0.88861 0.08067 0.0
C302 C 0.49992 0.87724 0.11009 0.0
C303 C 0.5004 0.89302 0.13981 0.0
C304 C 0.51312 0.91997 0.13986 0.0
C305 C 0.48262 0.04709 0.07124 0.0
C306 C 0.48956 0.98461 1.00191 0.0
C307 C 0.51549 0.08585 0.9605 0.0
C308 C 0.53721 0.10609 0.94805 0.0
C309 C 0.52822 0.13063 0.92738 0.0
C310 C 0.54924 0.14999 0.91621 0.0
C311 C 0.5795 0.14492 0.92552 0.0
C312 C 0.58827 0.12029 0.9464 0.0
C313 C 0.5673 0.10109 0.95762 0.0
C314 C 0.56968 1.0022 0.99984 0.0
C315 C 0.56268 0.06399 0.06959 0.0
O316 O 0.55585 0.96779 0.08762 0.0
O317 O 0.5145 0.98183 0.11071 0.0
O318 O 0.50392 0.04144 0.0936 0.0
O319 O 0.48694 0.03216 0.04532 0.0
O320 O 0.51007 0.9763 0.02512 0.0
O321 O 0.48468 1.01239 0.99403 0.0
O322 O 0.50849 0.08815 0.99232 0.0
O323 O 0.52059 0.05888 0.95262 0.0
O324 O 0.54916 1.00844 0.97678 0.0
O325 O 0.56442 0.01658 0.02595 0.0
O326 O 0.54638 0.07153 0.0421 0.0
O327 O 0.56297 0.03734 0.08281 0.0
H328 H 0.53493 0.92426 0.05741 0.0
H329 H 0.5128 0.8771 0.0573 0.0
H330 H 0.49072 0.88462 0.16297 0.0
H331 H 0.51263 0.93207 0.16282 0.0
H332 H 0.50503 0.13481 0.91993 0.0
H333 H 0.54189 0.1687 0.89996 0.0
H334 H 0.6113 0.11605 0.95445 0.0
H335 H 0.57454 0.08234 0.97391 0.0
Nd336 Nd 0.50134 0.49554 0.52571 0.0
Nd337 Nd 0.55548 0.53155 0.52548 0.0
C338 C 0.44837 0.4733 0.52415 0.0
C339 C 0.4347 0.45039 0.54442 0.0
C340 C 0.40902 0.43808 0.5323 0.0
C341 C 0.39666 0.41543 0.55106 0.0
C342 C 0.40987 0.40483 0.58223 0.0
C343 C 0.43559 0.41741 0.59426 0.0
C344 C 0.44794 0.43995 0.57547 0.0
C345 C 0.54506 0.47506 0.57184 0.0
C346 C 0.50221 0.55261 0.57024 0.0
C347 C 0.6076 0.55527 0.52896 0.0
C348 C 0.62319 0.57601 0.50748 0.0
C349 C 0.64453 0.59286 0.52219 0.0
C350 C 0.65718 0.61495 0.50286 0.0
C351 C 0.64867 0.62048 0.46849 0.0
C352 C 0.62775 0.60303 0.45365 0.0
C353 C 0.61499 0.58106 0.47305 0.0
C354 C 0.51196 0.55064 0.4777 0.0
C355 C 0.55539 0.47437 0.48012 0.0
O356 O 0.45399 0.4967 0.54006 0.0
O357 O 0.4703 0.46455 0.50533 0.0
O358 O 0.52714 0.45846 0.55689 0.0
O359 O 0.53753 0.50133 0.56528 0.0
O360 O 0.48591 0.53906 0.54838 0.0
O361 O 0.53124 0.54755 0.57175 0.0
O362 O 0.60411 0.52967 0.51698 0.0
O363 O 0.58363 0.56607 0.54282 0.0
O364 O 0.52937 0.56785 0.49251 0.0
O365 O 0.51995 0.52479 0.48563 0.0
O366 O 0.57184 0.48994 0.49974 0.0
O367 O 0.52608 0.47671 0.48094 0.0
H368 H 0.39864 0.44587 0.50827 0.0
H369 H 0.37668 0.40635 0.5413 0.0
H370 H 0.44654 0.40945 0.6179 0.0
H371 H 0.46799 0.44906 0.58501 0.0
H372 H 0.65089 0.58937 0.54882 0.0
H373 H 0.67347 0.62784 0.51486 0.0
H374 H 0.62051 0.60699 0.42735 0.0
H375 H 0.59816 0.56852 0.46145 0.0
Nd376 Nd 1.00687 0.52303 0.05832 0.0
Nd377 Nd 0.05129 0.5297 1.00392 0.0
C378 C 0.95831 0.52596 0.09465 0.0
C379 C 0.94145 0.552 0.10514 0.0
C380 C 0.91356 0.55029 0.12002 0.0
C381 C 0.89782 0.5757 0.12916 0.0
C382 C 0.90967 0.60301 0.12291 0.0
C383 C 0.93757 0.60447 0.10795 0.0
C384 C 0.95341 0.5792 0.09945 0.0
C385 C 0.0589 0.54553 0.07949 0.0
C386 C 1.00434 0.58395 1.00852 0.0
C387 C 0.09984 0.52678 0.96759 0.0
C388 C 0.11471 0.50089 0.95394 0.0
C389 C 0.14278 0.50186 0.93935 0.0
C390 C 0.1562 0.47675 0.92622 0.0
C391 C 0.14156 0.45052 0.92746 0.0
C392 C 0.11367 0.44971 0.94271 0.0
C393 C 0.1004 0.47463 0.95579 0.0
C394 C 0.99949 0.50727 0.98221 0.0
C395 C 0.05339 0.46849 0.05359 0.0
O396 O 0.95782 0.52227 0.0619 0.0
O397 O 0.98504 0.52192 0.10823 0.0
O398 O 0.0447 0.52694 0.09766 0.0
O399 O 0.04501 0.55264 0.05204 0.0
O400 O 0.98981 0.56546 0.02783 0.0
O401 O 0.03177 0.577 0.9992 0.0
O402 O 0.10053 0.52752 1.00078 0.0
O403 O 0.07341 0.53382 0.95437 0.0
O404 O 1.014 0.52581 0.96437 0.0
O405 O 1.01305 0.49985 1.00985 0.0
O406 O 0.06793 0.48664 0.03377 0.0
O407 O 1.02623 0.47584 0.06339 0.0
H408 H 0.90404 0.52944 0.12458 0.0
H409 H 0.87635 0.57409 0.14081 0.0
H410 H 0.94746 0.62516 0.10345 0.0
H411 H 0.97512 0.58091 0.08847 0.0
H412 H 0.15415 0.52197 0.93791 0.0
H413 H 0.17767 0.47799 0.91451 0.0
H414 H 0.10211 0.42973 0.94465 0.0
H415 H 0.07878 0.47344 0.9672 0.0
H416 H 0.16238 0.08619 0.29806 0.0
H417 H 0.04787 0.10797 0.44983 0.0
H418 H 0.11195 0.16679 0.31173 0.0
H419 H 0.08106 0.02356 0.42036 0.0
H420 H 0.07334 0.1303 0.40163 0.0
H421 H 0.13534 0.06342 0.34477 0.0
C422 C 0.14566 0.09916 0.31084 0.0
C423 C 0.13954 0.12857 0.30065 0.0
C424 C 0.07499 0.10688 0.40561 0.0
C425 C 0.10837 0.10245 0.35466 0.0
C426 C 0.06046 0.09406 0.43324 0.0
C427 C 0.06218 0.06372 0.43936 0.0
C428 C 0.09185 0.08938 0.38392 0.0
C429 C 0.07891 0.04699 0.41674 0.0
C430 C 0.13009 0.08606 0.33748 0.0
C431 C 0.11732 0.14404 0.31822 0.0
N432 N 0.09317 0.05999 0.3903 0.0
N433 N 0.10278 0.13092 0.34435 0.0
H434 H 0.46412 0.83653 0.88143 0.0
H435 H 0.4427 0.99348 0.9565 0.0
H436 H 0.39084 0.89744 0.85261 0.0
H437 H 0.50325 0.92606 1.00157 0.0
H438 H 0.42251 0.95803 0.91931 0.0
H439 H 0.47829 0.86833 0.92656 0.0
C440 C 0.45088 0.85646 0.88479 0.0
C441 C 0.42629 0.86435 0.86318 0.0
C442 C 0.44 0.9509 0.93758 0.0
C443 C 0.44245 0.90091 0.91454 0.0
C444 C 0.45155 0.97116 0.95882 0.0
C445 C 0.47484 0.96278 0.98203 0.0
C446 C 0.45207 0.92211 0.93923 0.0
C447 C 0.48535 0.93351 0.98401 0.0
C448 C 0.45889 0.87454 0.91062 0.0
C449 C 0.40977 0.89032 0.86886 0.0
N450 N 0.47413 0.9143 0.9626 0.0
N451 N 0.41833 0.90778 0.89372 0.0
H452 H 0.70985 0.45232 0.68974 0.0
H453 H 0.55569 0.42026 0.59949 0.0
H454 H 0.65936 0.37832 0.71748 0.0
H455 H 0.58928 0.50612 0.59825 0.0
H456 H 0.59635 0.40298 0.6387 0.0
H457 H 0.66848 0.47116 0.65191 0.0
C458 C 0.69004 0.44011 0.68787 0.0
C459 C 0.68791 0.41381 0.7068 0.0
C460 C 0.59477 0.42563 0.62998 0.0
C461 C 0.64086 0.43498 0.66361 0.0
C462 C 0.57164 0.43546 0.60757 0.0
C463 C 0.56917 0.46463 0.59585 0.0
C464 C 0.6158 0.44504 0.64032 0.0
C465 C 0.5904 0.48347 0.60696 0.0
C466 C 0.66645 0.4509 0.66647 0.0
C467 C 0.66175 0.39886 0.70362 0.0
N468 N 0.613 0.4733 0.62848 0.0
N469 N 0.63934 0.40955 0.68227 0.0
H470 H 0.85489 0.74403 0.24511 0.0
H471 H 0.89858 0.6537 0.08502 0.0
H472 H 0.83449 0.77727 0.14257 0.0
H473 H 0.88604 0.61385 0.18459 0.0
H474 H 0.87825 0.7001 0.10504 0.0
H475 H 0.87081 0.69724 0.22308 0.0
C476 C 0.85413 0.74154 0.21787 0.0
C477 C 0.84371 0.76459 0.19554 0.0
C478 C 0.87964 0.68112 0.12236 0.0
C479 C 0.86148 0.71099 0.17022 0.0
C480 C 0.89124 0.65472 0.111 0.0
C481 C 0.894 0.63004 0.13329 0.0
C482 C 0.87129 0.68288 0.15638 0.0
C483 C 0.88409 0.63236 0.1666 0.0
C484 C 0.86286 0.71474 0.20537 0.0
C485 C 0.84249 0.76001 0.16056 0.0
N486 N 0.8735 0.65844 0.17728 0.0
N487 N 0.8515 0.73372 0.14889 0.0
H488 H 0.29616 0.107 0.09822 0.0
H489 H 0.47377 0.08471 0.12188 0.0
H490 H 0.34916 0.16059 0.15961 0.0
H491 H 0.42658 0.04715 0.03987 0.0
H492 H 0.42748 0.11009 0.13802 0.0
H493 H 0.34221 0.08226 0.07892 0.0
C494 C 0.31738 0.11359 0.10774 0.0
C495 C 0.31849 0.13619 0.13058 0.0
C496 C 0.42712 0.09643 0.11639 0.0
C497 C 0.37161 0.10763 0.10855 0.0
C498 C 0.45365 0.08185 0.10713 0.0
C499 C 0.45427 0.06371 0.07938 0.0
C500 C 0.40047 0.09272 0.09821 0.0
C501 C 0.4273 0.06098 0.06133 0.0
C502 C 0.34373 0.09952 0.0965 0.0
C503 C 0.3469 0.1437 0.14168 0.0
N504 N 0.40153 0.07509 0.07118 0.0
N505 N 0.37206 0.12946 0.13079 0.0
H506 H 0.25427 0.86975 0.72098 0.0
H507 H 0.13601 0.83141 0.57826 0.0
H508 H 0.26499 0.79529 0.65903 0.0
H509 H 0.12757 0.90667 0.63936 0.0
H510 H 0.17949 0.81368 0.61306 0.0
H511 H 0.20409 0.87945 0.69698 0.0
C512 C 0.24595 0.85532 0.70248 0.0
C513 C 0.26393 0.8319 0.69166 0.0
C514 C 0.16783 0.83386 0.61913 0.0
C515 C 0.20652 0.84286 0.66398 0.0
C516 C 0.14306 0.84403 0.59922 0.0
C517 C 0.12821 0.87071 0.60566 0.0
C518 C 0.17792 0.85057 0.64555 0.0
C519 C 0.13806 0.88589 0.63352 0.0
C520 C 0.21726 0.86079 0.68886 0.0
C521 C 0.25184 0.81357 0.66811 0.0
N522 N 0.16245 0.87577 0.65214 0.0
N523 N 0.22401 0.81964 0.65473 0.0
H524 H 0.85803 0.45814 0.85059 0.0
H525 H 0.97183 0.46026 1.00951 0.0
H526 H 0.86895 0.38807 0.92712 0.0
H527 H 0.96746 0.5231 0.92472 0.0
H528 H 0.92988 0.43633 0.98401 0.0
H529 H 0.89338 0.48536 0.88215 0.0
C530 C 0.86753 0.44863 0.87432 0.0
C531 C 0.86059 0.4207 0.88613 0.0
C532 C 0.93804 0.45545 0.97114 0.0
C533 C 0.90164 0.45161 0.92217 0.0
C534 C 0.96189 0.46909 0.98566 0.0
C535 C 0.97321 0.49346 0.96892 0.0
C536 C 0.92545 0.46647 0.93985 0.0
C537 C 0.95957 0.50419 0.93823 0.0
C538 C 0.88794 0.4641 0.89221 0.0
C539 C 0.87401 0.40935 0.91681 0.0
N540 N 0.93649 0.49057 0.92464 0.0
N541 N 0.89402 0.42479 0.9337 0.0
H542 H 0.7065 0.78872 0.39804 0.0
H543 H 0.66832 0.62093 0.40312 0.0
H544 H 0.73002 0.73005 0.31943 0.0
H545 H 0.65634 0.67576 0.48824 0.0
H546 H 0.68747 0.66184 0.3703 0.0
H547 H 0.68398 0.74879 0.42961 0.0
C548 C 0.70666 0.76751 0.3873 0.0
C549 C 0.72028 0.7626 0.35621 0.0
C550 C 0.68068 0.66493 0.39617 0.0
C551 C 0.69486 0.71689 0.39216 0.0
C552 C 0.66965 0.64162 0.41485 0.0
C553 C 0.66083 0.64493 0.44847 0.0
C554 C 0.68275 0.69184 0.41113 0.0
C555 C 0.66329 0.67216 0.46254 0.0
C556 C 0.69402 0.7447 0.40541 0.0
C557 C 0.72011 0.73465 0.34356 0.0
N558 N 0.67397 0.69459 0.44378 0.0
N559 N 0.70766 0.71286 0.36159 0.0
H560 H 0.10251 0.3027 0.16199 0.0
H561 H 0.1076 0.44408 0.03493 0.0
H562 H 0.17479 0.31695 0.09407 0.0
H563 H 0.03345 0.42678 0.09902 0.0
H564 H 0.13225 0.39776 0.0556 0.0
H565 H 0.07703 0.34768 0.13889 0.0
C566 C 0.11317 0.31525 0.14227 0.0
C567 C 0.14115 0.30575 0.13029 0.0
C568 C 0.11056 0.40401 0.06511 0.0
C569 C 0.11157 0.35786 0.10326 0.0
C570 C 0.09639 0.43059 0.0533 0.0
C571 C 0.06825 0.43965 0.0652 0.0
C572 C 0.09672 0.38611 0.08924 0.0
C573 C 0.05504 0.42091 0.08899 0.0
C574 C 0.09843 0.341 0.12892 0.0
C575 C 0.15325 0.323 0.1041 0.0
N576 N 0.06936 0.39527 0.10023 0.0
N577 N 0.13855 0.34814 0.0917 0.0
H578 H 0.73609 0.2199 0.84257 0.0
H579 H 0.57557 0.20448 0.92311 0.0
H580 H 0.68165 0.29256 0.87594 0.0
H581 H 0.63464 0.1313 0.90098 0.0
H582 H 0.61352 0.23727 0.90431 0.0
H583 H 0.69872 0.18708 0.86281 0.0
C584 C 0.71629 0.22892 0.85424 0.0
C585 C 0.71197 0.25898 0.85761 0.0
C586 C 0.6182 0.21404 0.90362 0.0
C587 C 0.66909 0.22162 0.88075 0.0
C588 C 0.59647 0.19533 0.91411 0.0
C589 C 0.60199 0.16514 0.91363 0.0
C590 C 0.64557 0.20246 0.89235 0.0
C591 C 0.62959 0.15444 0.90214 0.0
C592 C 0.69501 0.21019 0.86588 0.0
C593 C 0.68605 0.26949 0.87322 0.0
N594 N 0.65032 0.17308 0.89189 0.0
N595 N 0.66551 0.25085 0.88405 0.0
H596 H 0.83868 0.9102 0.41627 0.0
H597 H 0.91368 1.00859 0.50858 0.0
H598 H 0.89579 0.93442 0.33418 0.0
H599 H 0.98708 0.99008 0.44281 0.0
H600 H 0.88206 0.98056 0.47307 0.0
H601 H 0.86889 0.93665 0.45502 0.0
C602 C 0.85759 0.92114 0.40638 0.0
C603 C 0.86463 0.92021 0.37188 0.0
C604 C 0.90519 0.98209 0.46666 0.0
C605 C 0.8988 0.95151 0.41596 0.0
C606 C 0.92318 0.99838 0.48675 0.0
C607 C 0.95301 1.00151 0.47864 0.0
C608 C 0.91716 0.96874 0.43825 0.0
C609 C 0.96417 0.98805 0.44995 0.0
C610 C 0.87459 0.93665 0.42845 0.0
C611 C 0.88931 0.93496 0.36048 0.0
N612 N 0.94615 0.97233 0.43061 0.0
N613 N 0.9056 0.94993 0.38252 0.0
H614 H 0.47515 0.69039 0.70966 0.0
H615 H 0.44453 0.57531 0.56824 0.0
H616 H 0.39633 0.69423 0.64503 0.0
H617 H 0.5285 0.57995 0.62216 0.0
H618 H 0.42362 0.61439 0.60202 0.0
H619 H 0.49194 0.64516 0.68405 0.0
C620 C 0.46119 0.68149 0.69043 0.0
C621 C 0.43448 0.69624 0.67918 0.0
C622 C 0.44657 0.6067 0.60659 0.0
C623 C 0.45363 0.64471 0.64954 0.0
C624 C 0.45849 0.58435 0.58736 0.0
C625 C 0.48839 0.57453 0.59214 0.0
C626 C 0.46464 0.61921 0.63086 0.0
C627 C 0.50542 0.58701 0.61735 0.0
C628 C 0.47086 0.65579 0.67565 0.0
C629 C 0.41734 0.68382 0.654 0.0
N630 N 0.49335 0.60877 0.63563 0.0
N631 N 0.42729 0.65889 0.6399 0.0
H632 H 0.90302 0.96765 0.7811 0.0
H633 H 0.98931 0.94198 0.60696 0.0
H634 H 0.92549 0.88264 0.7446 0.0
H635 H 0.97099 0.02662 0.64646 0.0
H636 H 0.96544 0.91997 0.65645 0.0
H637 H 0.92647 0.98951 0.73137 0.0
C638 C 0.9126 0.95348 0.76256 0.0
C639 C 0.91203 0.92307 0.76739 0.0
C640 C 0.96664 0.94336 0.65435 0.0
C641 C 0.93957 0.94828 0.71 0.0
C642 C 0.98033 0.956 0.626 0.0
C643 C 0.9823 0.98632 0.62229 0.0
C644 C 0.95458 0.96104 0.67941 0.0
C645 C 0.97013 1.00319 0.64805 0.0
C646 C 0.92626 0.96606 0.73417 0.0
C647 C 0.92552 0.9061 0.74247 0.0
N648 N 0.95683 0.99038 0.67531 0.0
N649 N 0.9386 0.91888 0.71502 0.0
H650 H 0.65158 0.21977 0.11586 0.0
H651 H 0.58986 0.06031 0.13277 0.0
H652 H 0.64888 0.17021 0.2113 0.0
H653 H 0.57456 0.11816 0.04403 0.0
H654 H 0.61616 0.09826 0.16037 0.0
H655 H 0.62784 0.18065 0.08758 0.0
C656 C 0.64612 0.20057 0.13083 0.0
C657 C 0.65217 0.19826 0.166 0.0
C658 C 0.60707 0.1026 0.13485 0.0
C659 C 0.62494 0.15342 0.13381 0.0
C660 C 0.59217 0.08091 0.11901 0.0
C661 C 0.57988 0.0861 0.08609 0.0
C662 C 0.60994 0.12958 0.11752 0.0
C663 C 0.5835 0.11325 0.06952 0.0
C664 C 0.63243 0.17833 0.11471 0.0
C665 C 0.64431 0.17303 0.18421 0.0
N666 N 0.59821 0.13395 0.0854 0.0
N667 N 0.63117 0.15155 0.1679 0.0
H668 H 0.39099 0.54532 0.30531 0.0
H669 H 0.50897 0.60165 0.43888 0.0
H670 H 0.45062 0.6129 0.28061 0.0
H671 H 0.47079 0.51802 0.44905 0.0
H672 H 0.48009 0.61184 0.38563 0.0
H673 H 0.41267 0.54077 0.36307 0.0
C674 C 0.40844 0.55938 0.31218 0.0
C675 C 0.41927 0.5793 0.28814 0.0
C676 C 0.47787 0.59138 0.39973 0.0
C677 C 0.44404 0.57431 0.35397 0.0
C678 C 0.49419 0.58565 0.43012 0.0
C679 C 0.49238 0.55888 0.44804 0.0
C680 C 0.45943 0.5703 0.38759 0.0
C681 C 0.47297 0.53883 0.4357 0.0
C682 C 0.42087 0.5567 0.34504 0.0
C683 C 0.44199 0.59694 0.29828 0.0
N684 N 0.4573 0.5449 0.40616 0.0
N685 N 0.45367 0.59401 0.33044 0.0
H686 H 0.1659 0.28932 0.82585 0.0
H687 H 0.19936 0.42808 0.93286 0.0
H688 H 0.25088 0.30092 0.87464 0.0
H689 H 0.1137 0.41258 0.88812 0.0
H690 H 0.21955 0.38266 0.91013 0.0
H691 H 0.147 0.3353 0.84745 0.0
C692 C 0.1806 0.30159 0.84109 0.0
C693 C 0.21002 0.29128 0.84842 0.0
C694 C 0.19634 0.38924 0.90529 0.0
C695 C 0.1885 0.34399 0.8734 0.0
C696 C 0.18489 0.41523 0.91805 0.0
C697 C 0.15477 0.42398 0.91256 0.0
C698 C 0.17755 0.37204 0.88679 0.0
C699 C 0.13693 0.40642 0.89344 0.0
C700 C 0.16978 0.32781 0.85352 0.0
C701 C 0.22795 0.3079 0.8687 0.0
N702 N 0.14857 0.38131 0.88131 0.0
N703 N 0.21693 0.3335 0.8804 0.0
H704 H 0.75714 0.94359 0.98635 0.0
H705 H 0.58183 0.96897 0.94571 0.0
H706 H 0.71124 0.90019 0.90758 0.0
H707 H 0.62377 0.9996 0.03565 0.0
H708 H 0.62929 0.94516 0.93057 0.0
H709 H 0.7095 0.96531 1.00372 0.0
C710 C 0.73718 0.93826 0.97276 0.0
C711 C 0.73879 0.91957 0.94534 0.0
C712 C 0.62823 0.95696 0.9537 0.0
C713 C 0.68342 0.94542 0.96507 0.0
C714 C 0.60103 0.97064 0.96241 0.0
C715 C 0.59861 0.98644 0.99206 0.0
C716 C 0.6537 0.95915 0.97451 0.0
C717 C 0.62443 0.98766 1.01262 0.0
C718 C 0.70982 0.95097 0.98269 0.0
C719 C 0.71169 0.91457 0.92851 0.0
N720 N 0.65082 0.97441 1.00337 0.0
N721 N 0.68539 0.92736 0.93855 0.0
H722 H 0.84903 0.25683 0.30503 0.0
H723 H 0.88012 0.17993 0.4898 0.0
H724 H 0.7801 0.23126 0.37292 0.0
H725 H 0.94916 0.19387 0.41733 0.0
H726 H 0.84379 0.20371 0.44943 0.0
H727 H 0.88652 0.23827 0.34771 0.0
C728 C 0.8418 0.24743 0.32897 0.0
C729 C 0.8114 0.24542 0.33536 0.0
C730 C 0.8669 0.20174 0.44239 0.0
C731 C 0.85411 0.22416 0.38424 0.0
C732 C 0.88774 0.1884 0.46559 0.0
C733 C 0.91776 0.18487 0.45694 0.0
C734 C 0.87608 0.21169 0.41024 0.0
C735 C 0.92619 0.19584 0.4249 0.0
C736 C 0.86319 0.23675 0.35325 0.0
C737 C 0.80328 0.23283 0.36671 0.0
N738 N 0.90544 0.20868 0.40266 0.0
N739 N 0.82449 0.2227 0.38995 0.0
H740 H 0.2352 0.55218 0.16792 0.0
H741 H 0.09327 0.58193 0.04258 0.0
H742 H 0.23553 0.60664 0.0758 0.0
H743 H 0.0932 0.52835 0.13532 0.0
H744 H 0.14471 0.59319 0.0555 0.0
H745 H 0.18256 0.54477 0.15745 0.0
C746 C 0.2242 0.56254 0.14544 0.0
C747 C 0.23985 0.57995 0.12262 0.0
C748 C 0.1334 0.57911 0.07313 0.0
C749 C 0.17947 0.57174 0.11058 0.0
C750 C 0.10405 0.57273 0.06578 0.0
C751 C 0.0891 0.55414 0.0879 0.0
C752 C 0.14783 0.56675 0.10278 0.0
C753 C 0.10401 0.54275 0.11758 0.0
C754 C 0.1941 0.55844 0.13957 0.0
C755 C 0.2243 0.59326 0.09423 0.0
N756 N 0.1326 0.54914 0.12409 0.0
N757 N 0.19502 0.58876 0.08894 0.0
H758 H 0.33242 0.24379 0.64644 0.0
H759 H 0.40287 0.39933 0.65109 0.0
H760 H 0.34716 0.28902 0.73839 0.0
H761 H 0.38807 0.35498 0.55854 0.0
H762 H 0.38334 0.35851 0.68351 0.0
H763 H 0.35373 0.28366 0.61375 0.0
C764 C 0.34023 0.26206 0.65976 0.0
C765 C 0.33803 0.26304 0.69522 0.0
C766 C 0.38435 0.35767 0.65611 0.0
C767 C 0.36242 0.30872 0.658 0.0
C768 C 0.39561 0.38093 0.6376 0.0
C769 C 0.39717 0.38054 0.60205 0.0
C770 C 0.37458 0.33374 0.63902 0.0
C771 C 0.38697 0.35633 0.58587 0.0
C772 C 0.35243 0.28478 0.6411 0.0
C773 C 0.34879 0.2871 0.71118 0.0
N774 N 0.37616 0.33387 0.60449 0.0
N775 N 0.36039 0.30901 0.69245 0.0
H776 H 0.94274 0.74684 0.89904 0.0
H777 H 0.95206 0.60876 0.03142 0.0
H778 H 0.89044 0.7418 0.98941 0.0
H779 H 1.02119 0.625 0.95993 0.0
H780 H 0.92673 0.65517 1.01303 0.0
H781 H 0.96864 0.70023 0.91703 0.0
C782 C 0.93646 0.73588 0.92251 0.0
C783 C 0.91423 0.74852 0.94266 0.0
C784 C 0.94747 0.64869 1.00136 0.0
C785 C 0.94405 0.69479 0.96353 0.0
C786 C 0.96207 0.62206 1.01191 0.0
C787 C 0.98909 0.61275 0.99748 0.0
C788 C 0.9595 0.66629 0.97559 0.0
C789 C 1.00058 0.63116 0.97202 0.0
C790 C 0.95148 0.70931 0.93291 0.0
C791 C 0.90751 0.73322 0.97309 0.0
N792 N 0.9857 0.65685 0.9618 0.0
N793 N 0.92216 0.70728 0.98243 0.0
H794 H 0.45763 0.69798 0.09071 0.0
H795 H 0.44613 0.86501 0.13655 0.0
H796 H 0.37929 0.74008 0.132 0.0
H797 H 0.51916 0.82652 0.08183 0.0
H798 H 0.42152 0.81917 0.13549 0.0
H799 H 0.48033 0.74484 0.08639 0.0
C800 C 0.445 0.71712 0.09843 0.0
C801 C 0.41652 0.71502 0.11191 0.0
C802 C 0.44289 0.82074 0.12362 0.0
C803 C 0.44269 0.76867 0.10767 0.0
C804 C 0.45706 0.84683 0.12447 0.0
C805 C 0.48483 0.8495 0.10946 0.0
C806 C 0.45665 0.79703 0.10783 0.0
C807 C 0.4977 0.82543 0.09356 0.0
C808 C 0.45809 0.74385 0.09619 0.0
C809 C 0.40148 0.74055 0.12203 0.0
N810 N 0.48357 0.80014 0.09332 0.0
N811 N 0.41482 0.76625 0.11989 0.0
H812 H 0.21464 0.11808 0.65436 0.0
H813 H 0.05568 0.05434 0.62165 0.0
H814 H 0.15011 0.10854 0.73323 0.0
H815 H 0.12961 0.04175 0.55493 0.0
H816 H 0.08812 0.07862 0.66085 0.0
H817 H 0.18211 0.09392 0.61574 0.0
C818 C 0.19378 0.11067 0.66374 0.0
C819 C 0.18527 0.11527 0.6973 0.0
C820 C 0.09722 0.07051 0.63765 0.0
C821 C 0.14752 0.08814 0.65272 0.0
C822 C 0.07873 0.05676 0.61526 0.0
C823 C 0.09009 0.04598 0.58515 0.0
C824 C 0.12716 0.07374 0.62961 0.0
C825 C 0.12005 0.04967 0.57799 0.0
C826 C 0.17512 0.09704 0.64154 0.0
C827 C 0.15752 0.10583 0.70754 0.0
N828 N 0.13755 0.06331 0.60004 0.0
N829 N 0.13962 0.09277 0.68532 0.0
H830 H 0.67188 0.40341 0.3295 0.0
H831 H 0.53135 0.43045 0.44606 0.0
H832 H 0.60678 0.33925 0.34573 0.0
H833 H 0.61262 0.47482 0.45821 0.0
H834 H 0.55572 0.39994 0.40433 0.0
H835 H 0.64723 0.43342 0.37145 0.0
C836 C 0.65225 0.39577 0.34175 0.0
C837 C 0.64128 0.36887 0.33415 0.0
C838 C 0.5682 0.41629 0.41626 0.0
C839 C 0.61304 0.40301 0.3821 0.0
C840 C 0.55431 0.43376 0.43998 0.0
C841 C 0.57 0.45518 0.45566 0.0
C842 C 0.5978 0.42063 0.40775 0.0
C843 C 0.59973 0.45847 0.44688 0.0
C844 C 0.63835 0.41278 0.36583 0.0
C845 C 0.616 0.3598 0.35104 0.0
N846 N 0.6126 0.44152 0.42334 0.0
N847 N 0.6026 0.37692 0.37412 0.0
loop_
_geom_bond_atom_site_label_1
_geom_bond_atom_site_label_2
_geom_bond_distance
_geom_bond_site_symmetry_2
_ccdc_geom_bond_type
P0 O11 1.490 . S
P0 C14 1.812 . S
P0 C20 1.803 . S
P0 C26 1.819 . S
H1 C15 0.941 . S
H2 C16 0.939 . S
H3 C18 0.940 . S
H4 C19 0.940 . S
H5 C21 0.939 . S
H6 C22 0.942 . S
H7 C24 0.940 . S
H8 C25 0.939 . S
H9 C27 0.941 . S
H10 C31 0.939 . S
O11 P0 1.490 . S
H12 C28 0.939 . S
H13 C30 0.940 . S
C14 P0 1.812 . S
C14 C15 1.389 . S
C14 C19 1.391 . S
C15 H1 0.941 . S
C15 C14 1.389 . S
C15 C16 1.397 . S
C16 H2 0.939 . S
C16 C15 1.397 . S
C16 C17 1.378 . S
C17 C16 1.378 . S
C17 C18 1.378 . S
C18 H3 0.940 . S
C18 C17 1.378 . S
C18 C19 1.396 . S
C19 H4 0.940 . S
C19 C14 1.391 . S
C19 C18 1.396 . S
C20 P0 1.803 . S
C20 C21 1.378 . S
C20 C25 1.400 . S
C21 H5 0.939 . S
C21 C20 1.378 . S
C21 C22 1.361 . S
C22 H6 0.942 . S
C22 C21 1.361 . S
C22 C23 1.369 . S
C23 C22 1.369 . S
C23 C24 1.404 . S
C24 H7 0.940 . S
C24 C23 1.404 . S
C24 C25 1.389 . S
C25 H8 0.939 . S
C25 C20 1.400 . S
C25 C24 1.389 . S
C26 P0 1.819 . S
C26 C27 1.391 . S
C26 C31 1.391 . S
C27 H9 0.941 . S
C27 C26 1.391 . S
C27 C28 1.396 . S
C28 H12 0.939 . S
C28 C27 1.396 . S
C28 C29 1.397 . S
C29 C28 1.397 . S
C29 C30 1.385 . S
C30 H13 0.940 . S
C30 C29 1.385 . S
C30 C31 1.388 . S
C31 H10 0.939 . S
C31 C26 1.391 . S
C31 C30 1.388 . S
P32 O43 1.490 . S
P32 C46 1.812 . S
P32 C52 1.803 . S
P32 C58 1.819 . S
H33 C47 0.941 . S
H34 C48 0.939 . S
H35 C50 0.940 . S
H36 C51 0.940 . S
H37 C53 0.939 . S
H38 C54 0.942 . S
H39 C56 0.940 . S
H40 C57 0.939 . S
H41 C59 0.941 . S
H42 C63 0.939 . S
O43 P32 1.490 . S
H44 C60 0.939 . S
H45 C62 0.940 . S
C46 P32 1.812 . S
C46 C47 1.389 . S
C46 C51 1.391 . S
C47 H33 0.941 . S
C47 C46 1.389 . S
C47 C48 1.397 . S
C48 H34 0.939 . S
C48 C47 1.397 . S
C48 C49 1.378 . S
C49 C48 1.378 . S
C49 C50 1.378 . S
C50 H35 0.940 . S
C50 C49 1.378 . S
C50 C51 1.396 . S
C51 H36 0.940 . S
C51 C46 1.391 . S
C51 C50 1.396 . S
C52 P32 1.803 . S
C52 C53 1.378 . S
C52 C57 1.400 . S
C53 H37 0.939 . S
C53 C52 1.378 . S
C53 C54 1.361 . S
C54 H38 0.942 . S
C54 C53 1.361 . S
C54 C55 1.369 . S
C55 C54 1.369 . S
C55 C56 1.404 . S
C56 H39 0.940 . S
C56 C55 1.404 . S
C56 C57 1.389 . S
C57 H40 0.939 . S
C57 C52 1.400 . S
C57 C56 1.389 . S
C58 P32 1.819 . S
C58 C59 1.391 . S
C58 C63 1.391 . S
C59 H41 0.941 . S
C59 C58 1.391 . S
C59 C60 1.396 . S
C60 H44 0.939 . S
C60 C59 1.396 . S
C60 C61 1.397 . S
C61 C60 1.397 . S
C61 C62 1.385 . S
C62 H45 0.940 . S
C62 C61 1.385 . S
C62 C63 1.388 . S
C63 H42 0.939 . S
C63 C58 1.391 . S
C63 C62 1.388 . S
P64 O75 1.490 . S
P64 C78 1.812 . S
P64 C84 1.803 . S
P64 C90 1.819 . S
H65 C79 0.941 . S
H66 C80 0.939 . S
H67 C82 0.940 . S
H68 C83 0.940 . S
H69 C85 0.939 . S
H70 C86 0.942 . S
H71 C88 0.940 . S
H72 C89 0.939 . S
H73 C91 0.941 . S
H74 C95 0.939 . S
O75 P64 1.490 . S
H76 C92 0.939 . S
H77 C94 0.940 . S
C78 P64 1.812 . S
C78 C79 1.389 . S
C78 C83 1.391 . S
C79 H65 0.941 . S
C79 C78 1.389 . S
C79 C80 1.397 . S
C80 H66 0.939 . S
C80 C79 1.397 . S
C80 C81 1.378 . S
C81 C80 1.378 . S
C81 C82 1.378 . S
C82 H67 0.940 . S
C82 C81 1.378 . S
C82 C83 1.396 . S
C83 H68 0.940 . S
C83 C78 1.391 . S
C83 C82 1.396 . S
C84 P64 1.803 . S
C84 C85 1.378 . S
C84 C89 1.400 . S
C85 H69 0.939 . S
C85 C84 1.378 . S
C85 C86 1.361 . S
C86 H70 0.942 . S
C86 C85 1.361 . S
C86 C87 1.369 . S
C87 C86 1.369 . S
C87 C88 1.404 . S
C88 H71 0.940 . S
C88 C87 1.404 . S
C88 C89 1.389 . S
C89 H72 0.939 . S
C89 C84 1.400 . S
C89 C88 1.389 . S
C90 P64 1.819 . S
C90 C91 1.391 . S
C90 C95 1.391 . S
C91 H73 0.941 . S
C91 C90 1.391 . S
C91 C92 1.396 . S
C92 H76 0.939 . S
C92 C91 1.396 . S
C92 C93 1.397 . S
C93 C92 1.397 . S
C93 C94 1.385 . S
C94 H77 0.940 . S
C94 C93 1.385 . S
C94 C95 1.388 . S
C95 H74 0.939 . S
C95 C90 1.391 . S
C95 C94 1.388 . S
P96 O107 1.490 . S
P96 C110 1.812 . S
P96 C116 1.803 . S
P96 C122 1.819 . S
H97 C111 0.941 . S
H98 C112 0.939 . S
H99 C114 0.940 . S
H100 C115 0.940 . S
H101 C117 0.939 . S
H102 C118 0.942 . S
H103 C120 0.940 . S
H104 C121 0.939 . S
H105 C123 0.941 . S
H106 C127 0.939 . S
O107 P96 1.490 . S
H108 C124 0.939 . S
H109 C126 0.940 . S
C110 P96 1.812 . S
C110 C111 1.389 . S
C110 C115 1.391 . S
C111 H97 0.941 . S
C111 C110 1.389 . S
C111 C112 1.397 . S
C112 H98 0.939 . S
C112 C111 1.397 . S
C112 C113 1.378 . S
C113 C112 1.378 . S
C113 C114 1.378 . S
C114 H99 0.940 . S
C114 C113 1.378 . S
C114 C115 1.396 . S
C115 H100 0.940 . S
C115 C110 1.391 . S
C115 C114 1.396 . S
C116 P96 1.803 . S
C116 C117 1.378 . S
C116 C121 1.400 . S
C117 H101 0.939 . S
C117 C116 1.378 . S
C117 C118 1.361 . S
C118 H102 0.942 . S
C118 C117 1.361 . S
C118 C119 1.369 . S
C119 C118 1.369 . S
C119 C120 1.404 . S
C120 H103 0.940 . S
C120 C119 1.404 . S
C120 C121 1.389 . S
C121 H104 0.939 . S
C121 C116 1.400 . S
C121 C120 1.389 . S
C122 P96 1.819 . S
C122 C123 1.391 . S
C122 C127 1.391 . S
C123 H105 0.941 . S
C123 C122 1.391 . S
C123 C124 1.396 . S
C124 H108 0.939 . S
C124 C123 1.396 . S
C124 C125 1.397 . S
C125 C124 1.397 . S
C125 C126 1.385 . S
C126 H109 0.940 . S
C126 C125 1.385 . S
C126 C127 1.388 . S
C127 H106 0.939 . S
C127 C122 1.391 . S
C127 C126 1.388 . S
P128 O139 1.490 . S
P128 C142 1.812 . S
P128 C148 1.803 . S
P128 C154 1.819 . S
H129 C143 0.941 . S
H130 C144 0.939 . S
H131 C146 0.940 . S
H132 C147 0.940 . S
H133 C149 0.939 . S
H134 C150 0.942 . S
H135 C152 0.940 . S
H136 C153 0.939 . S
H137 C155 0.941 . S
H138 C159 0.939 . S
O139 P128 1.490 . S
H140 C156 0.939 . S
H141 C158 0.940 . S
C142 P128 1.812 . S
C142 C143 1.389 . S
C142 C147 1.391 . S
C143 H129 0.941 . S
C143 C142 1.389 . S
C143 C144 1.397 . S
C144 H130 0.939 . S
C144 C143 1.397 . S
C144 C145 1.378 . S
C145 C144 1.378 . S
C145 C146 1.378 . S
C146 H131 0.940 . S
C146 C145 1.378 . S
C146 C147 1.396 . S
C147 H132 0.940 . S
C147 C142 1.391 . S
C147 C146 1.396 . S
C148 P128 1.803 . S
C148 C149 1.378 . S
C148 C153 1.400 . S
C149 H133 0.939 . S
C149 C148 1.378 . S
C149 C150 1.361 . S
C150 H134 0.942 . S
C150 C149 1.361 . S
C150 C151 1.369 . S
C151 C150 1.369 . S
C151 C152 1.404 . S
C152 H135 0.940 . S
C152 C151 1.404 . S
C152 C153 1.389 . S
C153 H136 0.939 . S
C153 C148 1.400 . S
C153 C152 1.389 . S
C154 P128 1.819 . S
C154 C155 1.391 . S
C154 C159 1.391 . S
C155 H137 0.941 . S
C155 C154 1.391 . S
C155 C156 1.396 . S
C156 H140 0.939 . S
C156 C155 1.396 . S
C156 C157 1.397 . S
C157 C156 1.397 . S
C157 C158 1.385 . S
C158 H141 0.940 . S
C158 C157 1.385 . S
C158 C159 1.388 . S
C159 H138 0.939 . S
C159 C154 1.391 . S
C159 C158 1.388 . S
P160 O171 1.490 . S
P160 C174 1.812 . S
P160 C180 1.803 . S
P160 C186 1.819 . S
H161 C175 0.941 . S
H162 C176 0.939 . S
H163 C178 0.940 . S
H164 C179 0.940 . S
H165 C181 0.939 . S
H166 C182 0.942 . S
H167 C184 0.940 . S
H168 C185 0.939 . S
H169 C187 0.941 . S
H170 C191 0.939 . S
O171 P160 1.490 . S
H172 C188 0.939 . S
H173 C190 0.940 . S
C174 P160 1.812 . S
C174 C175 1.389 . S
C174 C179 1.391 . S
C175 H161 0.941 . S
C175 C174 1.389 . S
C175 C176 1.397 . S
C176 H162 0.939 . S
C176 C175 1.397 . S
C176 C177 1.378 . S
C177 C176 1.378 . S
C177 C178 1.378 . S
C178 H163 0.940 . S
C178 C177 1.378 . S
C178 C179 1.396 . S
C179 H164 0.940 . S
C179 C174 1.391 . S
C179 C178 1.396 . S
C180 P160 1.803 . S
C180 C181 1.378 . S
C180 C185 1.400 . S
C181 H165 0.939 . S
C181 C180 1.378 . S
C181 C182 1.361 . S
C182 H166 0.942 . S
C182 C181 1.361 . S
C182 C183 1.369 . S
C183 C182 1.369 . S
C183 C184 1.404 . S
C184 H167 0.940 . S
C184 C183 1.404 . S
C184 C185 1.389 . S
C185 H168 0.939 . S
C185 C180 1.400 . S
C185 C184 1.389 . S
C186 P160 1.819 . S
C186 C187 1.391 . S
C186 C191 1.391 . S
C187 H169 0.941 . S
C187 C186 1.391 . S
C187 C188 1.396 . S
C188 H172 0.939 . S
C188 C187 1.396 . S
C188 C189 1.397 . S
C189 C188 1.397 . S
C189 C190 1.385 . S
C190 H173 0.940 . S
C190 C189 1.385 . S
C190 C191 1.388 . S
C191 H170 0.939 . S
C191 C186 1.391 . S
C191 C190 1.388 . S
P192 O203 1.490 . S
P192 C206 1.812 . S
P192 C212 1.803 . S
P192 C218 1.819 . S
H193 C207 0.941 . S
H194 C208 0.939 . S
H195 C210 0.940 . S
H196 C211 0.940 . S
H197 C213 0.939 . S
H198 C214 0.942 . S
H199 C216 0.940 . S
H200 C217 0.939 . S
H201 C219 0.941 . S
H202 C223 0.939 . S
O203 P192 1.490 . S
H204 C220 0.939 . S
H205 C222 0.940 . S
C206 P192 1.812 . S
C206 C207 1.389 . S
C206 C211 1.391 . S
C207 H193 0.941 . S
C207 C206 1.389 . S
C207 C208 1.397 . S
C208 H194 0.939 . S
C208 C207 1.397 . S
C208 C209 1.378 . S
C209 C208 1.378 . S
C209 C210 1.378 . S
C210 H195 0.940 . S
C210 C209 1.378 . S
C210 C211 1.396 . S
C211 H196 0.940 . S
C211 C206 1.391 . S
C211 C210 1.396 . S
C212 P192 1.803 . S
C212 C213 1.378 . S
C212 C217 1.400 . S
C213 H197 0.939 . S
C213 C212 1.378 . S
C213 C214 1.361 . S
C214 H198 0.942 . S
C214 C213 1.361 . S
C214 C215 1.369 . S
C215 C214 1.369 . S
C215 C216 1.404 . S
C216 H199 0.940 . S
C216 C215 1.404 . S
C216 C217 1.389 . S
C217 H200 0.939 . S
C217 C212 1.400 . S
C217 C216 1.389 . S
C218 P192 1.819 . S
C218 C219 1.391 . S
C218 C223 1.391 . S
C219 H201 0.941 . S
C219 C218 1.391 . S
C219 C220 1.396 . S
C220 H204 0.939 . S
C220 C219 1.396 . S
C220 C221 1.397 . S
C221 C220 1.397 . S
C221 C222 1.385 . S
C222 H205 0.940 . S
C222 C221 1.385 . S
C222 C223 1.388 . S
C223 H202 0.939 . S
C223 C218 1.391 . S
C223 C222 1.388 . S
P224 O235 1.490 . S
P224 C238 1.812 . S
P224 C244 1.803 . S
P224 C250 1.819 . S
H225 C239 0.941 . S
H226 C240 0.939 . S
H227 C242 0.940 . S
H228 C243 0.940 . S
H229 C245 0.939 . S
H230 C246 0.942 . S
H231 C248 0.940 . S
H232 C249 0.939 . S
H233 C251 0.941 . S
H234 C255 0.939 . S
O235 P224 1.490 . S
H236 C252 0.939 . S
H237 C254 0.940 . S
C238 P224 1.812 . S
C238 C239 1.389 . S
C238 C243 1.391 . S
C239 H225 0.941 . S
C239 C238 1.389 . S
C239 C240 1.397 . S
C240 H226 0.939 . S
C240 C239 1.397 . S
C240 C241 1.378 . S
C241 C240 1.378 . S
C241 C242 1.378 . S
C242 H227 0.940 . S
C242 C241 1.378 . S
C242 C243 1.396 . S
C243 H228 0.940 . S
C243 C238 1.391 . S
C243 C242 1.396 . S
C244 P224 1.803 . S
C244 C245 1.378 . S
C244 C249 1.400 . S
C245 H229 0.939 . S
C245 C244 1.378 . S
C245 C246 1.361 . S
C246 H230 0.942 . S
C246 C245 1.361 . S
C246 C247 1.369 . S
C247 C246 1.369 . S
C247 C248 1.404 . S
C248 H231 0.940 . S
C248 C247 1.404 . S
C248 C249 1.389 . S
C249 H232 0.939 . S
C249 C244 1.400 . S
C249 C248 1.389 . S
C250 P224 1.819 . S
C250 C251 1.391 . S
C250 C255 1.391 . S
C251 H233 0.941 . S
C251 C250 1.391 . S
C251 C252 1.396 . S
C252 H236 0.939 . S
C252 C251 1.396 . S
C252 C253 1.397 . S
C253 C252 1.397 . S
C253 C254 1.385 . S
C254 H237 0.940 . S
C254 C253 1.385 . S
C254 C255 1.388 . S
C255 H234 0.939 . S
C255 C250 1.391 . S
C255 C254 1.388 . S
Nd256 C258 2.836 . S
Nd256 O276 2.500 . S
Nd256 O277 2.492 . S
Nd256 O278 2.487 1_565 S
Nd256 O279 2.682 1_565 S
Nd256 O280 2.410 . S
Nd256 O285 2.414 1_455 S
Nd256 O287 2.424 1_565 S
Nd257 C267 2.836 . S
Nd257 O279 2.414 1_655 S
Nd257 O281 2.424 1_545 S
Nd257 O282 2.500 . S
Nd257 O283 2.492 . S
Nd257 O284 2.487 1_545 S
Nd257 O285 2.682 1_545 S
Nd257 O286 2.410 . S
C258 Nd256 2.836 . S
C258 C259 1.498 . S
C258 O276 1.258 . S
C258 O277 1.239 . S
C259 C258 1.498 . S
C259 C260 1.366 . S
C259 C264 1.407 . S
C260 C259 1.366 . S
C260 C261 1.392 . S
C260 H288 0.930 . S
C261 C260 1.392 . S
C261 C262 1.398 . S
C261 H289 0.929 . S
C262 C261 1.398 . S
C262 C263 1.352 . S
C263 C262 1.352 . S
C263 C264 1.384 . S
C263 H290 0.930 . S
C264 C259 1.407 . S
C264 C263 1.384 . S
C264 H291 0.929 . S
C265 O278 1.241 . S
C265 O279 1.273 . S
C266 O280 1.251 1_655 S
C266 O281 1.268 . S
C267 Nd257 2.836 . S
C267 C268 1.498 . S
C267 O282 1.258 . S
C267 O283 1.239 . S
C268 C267 1.498 . S
C268 C269 1.366 . S
C268 C273 1.407 . S
C269 C268 1.366 . S
C269 C270 1.392 . S
C269 H292 0.930 . S
C270 C269 1.392 . S
C270 C271 1.398 . S
C270 H293 0.929 . S
C271 C270 1.398 . S
C271 C272 1.352 . S
C272 C271 1.352 . S
C272 C273 1.384 . S
C272 H294 0.930 . S
C273 C268 1.407 . S
C273 C272 1.384 . S
C273 H295 0.929 . S
C274 O284 1.241 . S
C274 O285 1.273 . S
C275 O286 1.251 1_455 S
C275 O287 1.268 . S
O276 Nd256 2.500 . S
O276 C258 1.258 . S
O277 Nd256 2.492 . S
O277 C258 1.239 . S
O278 Nd256 2.487 1_545 S
O278 C265 1.241 . S
O279 Nd256 2.682 1_545 S
O279 Nd257 2.414 1_455 S
O279 C265 1.273 . S
O280 Nd256 2.410 . S
O280 C266 1.251 1_455 S
O281 Nd257 2.424 1_565 S
O281 C266 1.268 . S
O282 Nd257 2.500 . S
O282 C267 1.258 . S
O283 Nd257 2.492 . S
O283 C267 1.239 . S
O284 Nd257 2.487 1_565 S
O284 C274 1.241 . S
O285 Nd256 2.414 1_655 S
O285 Nd257 2.682 1_565 S
O285 C274 1.273 . S
O286 Nd257 2.410 . S
O286 C275 1.251 1_655 S
O287 Nd256 2.424 1_545 S
O287 C275 1.268 . S
H288 C260 0.930 . S
H289 C261 0.929 . S
H290 C263 0.930 . S
H291 C264 0.929 . S
H292 C269 0.930 . S
H293 C270 0.929 . S
H294 C272 0.930 . S
H295 C273 0.929 . S
Nd296 C298 2.836 . S
Nd296 O316 2.500 . S
Nd296 O317 2.492 . S
Nd296 O318 2.487 1_565 S
Nd296 O319 2.682 1_565 S
Nd296 O320 2.410 1_554 S
Nd296 O325 2.414 1_554 S
Nd296 O327 2.424 1_565 S
Nd297 C307 2.836 . S
Nd297 O319 2.414 1_556 S
Nd297 O321 2.424 1_545 S
Nd297 O322 2.500 . S
Nd297 O323 2.492 . S
Nd297 O324 2.487 . S
Nd297 O325 2.682 1_545 S
Nd297 O326 2.410 1_556 S
C298 Nd296 2.836 . S
C298 C299 1.498 . S
C298 O316 1.258 . S
C298 O317 1.239 . S
C299 C298 1.498 . S
C299 C300 1.366 . S
C299 C304 1.407 . S
C300 C299 1.366 . S
C300 C301 1.392 . S
C300 H328 0.930 . S
C301 C300 1.392 . S
C301 C302 1.398 . S
C301 H329 0.929 . S
C302 C301 1.398 . S
C302 C303 1.352 . S
C303 C302 1.352 . S
C303 C304 1.384 . S
C303 H330 0.930 . S
C304 C299 1.407 . S
C304 C303 1.384 . S
C304 H331 0.929 . S
C305 O318 1.241 . S
C305 O319 1.273 . S
C306 O320 1.251 . S
C306 O321 1.268 . S
C307 Nd297 2.836 . S
C307 C308 1.498 . S
C307 O322 1.258 . S
C307 O323 1.239 . S
C308 C307 1.498 . S
C308 C309 1.366 . S
C308 C313 1.407 . S
C309 C308 1.366 . S
C309 C310 1.392 . S
C309 H332 0.930 . S
C310 C309 1.392 . S
C310 C311 1.398 . S
C310 H333 0.929 . S
C311 C310 1.398 . S
C311 C312 1.352 . S
C312 C311 1.352 . S
C312 C313 1.384 . S
C312 H334 0.930 . S
C313 C308 1.407 . S
C313 C312 1.384 . S
C313 H335 0.929 . S
C314 O324 1.241 1_565 S
C314 O325 1.273 . S
C315 O326 1.251 . S
C315 O327 1.268 . S
O316 Nd296 2.500 . S
O316 C298 1.258 . S
O317 Nd296 2.492 . S
O317 C298 1.239 . S
O318 Nd296 2.487 1_545 S
O318 C305 1.241 . S
O319 Nd296 2.682 1_545 S
O319 Nd297 2.414 1_554 S
O319 C305 1.273 . S
O320 Nd296 2.410 1_556 S
O320 C306 1.251 . S
O321 Nd297 2.424 1_565 S
O321 C306 1.268 . S
O322 Nd297 2.500 . S
O322 C307 1.258 . S
O323 Nd297 2.492 . S
O323 C307 1.239 . S
O324 Nd297 2.487 . S
O324 C314 1.241 1_545 S
O325 Nd296 2.414 1_556 S
O325 Nd297 2.682 1_565 S
O325 C314 1.273 . S
O326 Nd297 2.410 1_554 S
O326 C315 1.251 . S
O327 Nd296 2.424 1_545 S
O327 C315 1.268 . S
H328 C300 0.930 . S
H329 C301 0.929 . S
H330 C303 0.930 . S
H331 C304 0.929 . S
H332 C309 0.930 . S
H333 C310 0.929 . S
H334 C312 0.930 . S
H335 C313 0.929 . S
Nd336 C338 2.836 . S
Nd336 O356 2.500 . S
Nd336 O357 2.492 . S
Nd336 O358 2.487 . S
Nd336 O359 2.682 . S
Nd336 O360 2.410 . S
Nd336 O365 2.414 . S
Nd336 O367 2.424 . S
Nd337 C347 2.836 . S
Nd337 O359 2.414 . S
Nd337 O361 2.424 . S
Nd337 O362 2.500 . S
Nd337 O363 2.492 . S
Nd337 O364 2.487 . S
Nd337 O365 2.682 . S
Nd337 O366 2.410 . S
C338 Nd336 2.836 . S
C338 C339 1.498 . S
C338 O356 1.258 . S
C338 O357 1.239 . S
C339 C338 1.498 . S
C339 C340 1.366 . S
C339 C344 1.407 . S
C340 C339 1.366 . S
C340 C341 1.392 . S
C340 H368 0.930 . S
C341 C340 1.392 . S
C341 C342 1.398 . S
C341 H369 0.929 . S
C342 C341 1.398 . S
C342 C343 1.352 . S
C343 C342 1.352 . S
C343 C344 1.384 . S
C343 H370 0.930 . S
C344 C339 1.407 . S
C344 C343 1.384 . S
C344 H371 0.929 . S
C345 O358 1.241 . S
C345 O359 1.273 . S
C346 O360 1.251 . S
C346 O361 1.268 . S
C347 Nd337 2.836 . S
C347 C348 1.498 . S
C347 O362 1.258 . S
C347 O363 1.239 . S
C348 C347 1.498 . S
C348 C349 1.366 . S
C348 C353 1.407 . S
C349 C348 1.366 . S
C349 C350 1.392 . S
C349 H372 0.930 . S
C350 C349 1.392 . S
C350 C351 1.398 . S
C350 H373 0.929 . S
C351 C350 1.398 . S
C351 C352 1.352 . S
C352 C351 1.352 . S
C352 C353 1.384 . S
C352 H374 0.930 . S
C353 C348 1.407 . S
C353 C352 1.384 . S
C353 H375 0.929 . S
C354 O364 1.241 . S
C354 O365 1.273 . S
C355 O366 1.251 . S
C355 O367 1.268 . S
O356 Nd336 2.500 . S
O356 C338 1.258 . S
O357 Nd336 2.492 . S
O357 C338 1.239 . S
O358 Nd336 2.487 . S
O358 C345 1.241 . S
O359 Nd336 2.682 . S
O359 Nd337 2.414 . S
O359 C345 1.273 . S
O360 Nd336 2.410 . S
O360 C346 1.251 . S
O361 Nd337 2.424 . S
O361 C346 1.268 . S
O362 Nd337 2.500 . S
O362 C347 1.258 . S
O363 Nd337 2.492 . S
O363 C347 1.239 . S
O364 Nd337 2.487 . S
O364 C354 1.241 . S
O365 Nd336 2.414 . S
O365 Nd337 2.682 . S
O365 C354 1.273 . S
O366 Nd337 2.410 . S
O366 C355 1.251 . S
O367 Nd336 2.424 . S
O367 C355 1.268 . S
H368 C340 0.930 . S
H369 C341 0.929 . S
H370 C343 0.930 . S
H371 C344 0.929 . S
H372 C349 0.930 . S
H373 C350 0.929 . S
H374 C352 0.930 . S
H375 C353 0.929 . S
Nd376 C378 2.836 . S
Nd376 O396 2.500 . S
Nd376 O397 2.492 . S
Nd376 O398 2.487 1_655 S
Nd376 O399 2.682 1_655 S
Nd376 O400 2.410 . S
Nd376 O405 2.414 1_554 S
Nd376 O407 2.424 1_655 S
Nd377 C387 2.836 . S
Nd377 O399 2.414 1_556 S
Nd377 O401 2.424 1_455 S
Nd377 O402 2.500 . S
Nd377 O403 2.492 . S
Nd377 O404 2.487 1_455 S
Nd377 O405 2.682 1_455 S
Nd377 O406 2.410 . S
C378 Nd376 2.836 . S
C378 C379 1.498 . S
C378 O396 1.258 . S
C378 O397 1.239 . S
C379 C378 1.498 . S
C379 C380 1.366 . S
C379 C384 1.407 . S
C380 C379 1.366 . S
C380 C381 1.392 . S
C380 H408 0.930 . S
C381 C380 1.392 . S
C381 C382 1.398 . S
C381 H409 0.929 . S
C382 C381 1.398 . S
C382 C383 1.352 . S
C383 C382 1.352 . S
C383 C384 1.384 . S
C383 H410 0.930 . S
C384 C379 1.407 . S
C384 C383 1.384 . S
C384 H411 0.929 . S
C385 O398 1.241 . S
C385 O399 1.273 . S
C386 O400 1.251 1_556 S
C386 O401 1.268 . S
C387 Nd377 2.836 . S
C387 C388 1.498 . S
C387 O402 1.258 . S
C387 O403 1.239 . S
C388 C387 1.498 . S
C388 C389 1.366 . S
C388 C393 1.407 . S
C389 C388 1.366 . S
C389 C390 1.392 . S
C389 H412 0.930 . S
C390 C389 1.392 . S
C390 C391 1.398 . S
C390 H413 0.929 . S
C391 C390 1.398 . S
C391 C392 1.352 . S
C392 C391 1.352 . S
C392 C393 1.384 . S
C392 H414 0.930 . S
C393 C388 1.407 . S
C393 C392 1.384 . S
C393 H415 0.929 . S
C394 O404 1.241 . S
C394 O405 1.273 . S
C395 O406 1.251 1_554 S
C395 O407 1.268 . S
O396 Nd376 2.500 . S
O396 C378 1.258 . S
O397 Nd376 2.492 . S
O397 C378 1.239 . S
O398 Nd376 2.487 1_455 S
O398 C385 1.241 . S
O399 Nd376 2.682 1_455 S
O399 Nd377 2.414 1_554 S
O399 C385 1.273 . S
O400 Nd376 2.410 . S
O400 C386 1.251 1_554 S
O401 Nd377 2.424 1_655 S
O401 C386 1.268 . S
O402 Nd377 2.500 . S
O402 C387 1.258 . S
O403 Nd377 2.492 . S
O403 C387 1.239 . S
O404 Nd377 2.487 1_655 S
O404 C394 1.241 . S
O405 Nd376 2.414 1_556 S
O405 Nd377 2.682 1_655 S
O405 C394 1.273 . S
O406 Nd377 2.410 . S
O406 C395 1.251 1_556 S
O407 Nd376 2.424 1_455 S
O407 C395 1.268 . S
H408 C380 0.930 . S
H409 C381 0.929 . S
H410 C383 0.930 . S
H411 C384 0.929 . S
H412 C389 0.930 . S
H413 C390 0.929 . S
H414 C392 0.930 . S
H415 C393 0.929 . S
H416 C422 0.930 . S
H417 C426 0.930 . S
H418 C431 0.929 . S
H419 C429 0.929 . S
H420 C424 0.929 . S
H421 C430 0.929 . S
C422 H416 0.930 . S
C422 C423 1.367 . S
C422 C430 1.378 . S
C423 C422 1.367 . S
C423 C431 1.433 . S
C424 H420 0.929 . S
C424 C426 1.378 . S
C424 C428 1.350 . S
C425 C428 1.463 . S
C425 C430 1.350 . S
C425 N433 1.427 . S
C426 H417 0.930 . S
C426 C424 1.378 . S
C426 C427 1.367 . S
C427 C426 1.367 . S
C427 C429 1.433 . S
C428 C424 1.350 . S
C428 C425 1.463 . S
C428 N432 1.427 . S
C429 H419 0.929 . S
C429 C427 1.433 . S
C429 N432 1.384 . S
C430 H421 0.929 . S
C430 C422 1.378 . S
C430 C425 1.350 . S
C431 H418 0.929 . S
C431 C423 1.433 . S
C431 N433 1.384 . S
N432 C428 1.427 . S
N432 C429 1.384 . S
N433 C425 1.427 . S
N433 C431 1.384 . S
H434 C440 0.930 . S
H435 C444 0.930 . S
H436 C449 0.929 . S
H437 C447 0.929 . S
H438 C442 0.929 . S
H439 C448 0.929 . S
C440 H434 0.930 . S
C440 C441 1.367 . S
C440 C448 1.378 . S
C441 C440 1.367 . S
C441 C449 1.433 . S
C442 H438 0.929 . S
C442 C444 1.378 . S
C442 C446 1.350 . S
C443 C446 1.463 . S
C443 C448 1.350 . S
C443 N451 1.427 . S
C444 H435 0.930 . S
C444 C442 1.378 . S
C444 C445 1.367 . S
C445 C444 1.367 . S
C445 C447 1.433 . S
C446 C442 1.350 . S
C446 C443 1.463 . S
C446 N450 1.427 . S
C447 H437 0.929 . S
C447 C445 1.433 . S
C447 N450 1.384 . S
C448 H439 0.929 . S
C448 C440 1.378 . S
C448 C443 1.350 . S
C449 H436 0.929 . S
C449 C441 1.433 . S
C449 N451 1.384 . S
N450 C446 1.427 . S
N450 C447 1.384 . S
N451 C443 1.427 . S
N451 C449 1.384 . S
H452 C458 0.930 . S
H453 C462 0.930 . S
H454 C467 0.929 . S
H455 C465 0.929 . S
H456 C460 0.929 . S
H457 C466 0.929 . S
C458 H452 0.930 . S
C458 C459 1.367 . S
C458 C466 1.378 . S
C459 C458 1.367 . S
C459 C467 1.433 . S
C460 H456 0.929 . S
C460 C462 1.378 . S
C460 C464 1.350 . S
C461 C464 1.463 . S
C461 C466 1.350 . S
C461 N469 1.427 . S
C462 H453 0.930 . S
C462 C460 1.378 . S
C462 C463 1.367 . S
C463 C462 1.367 . S
C463 C465 1.433 . S
C464 C460 1.350 . S
C464 C461 1.463 . S
C464 N468 1.427 . S
C465 H455 0.929 . S
C465 C463 1.433 . S
C465 N468 1.384 . S
C466 H457 0.929 . S
C466 C458 1.378 . S
C466 C461 1.350 . S
C467 H454 0.929 . S
C467 C459 1.433 . S
C467 N469 1.384 . S
N468 C464 1.427 . S
N468 C465 1.384 . S
N469 C461 1.427 . S
N469 C467 1.384 . S
H470 C476 0.930 . S
H471 C480 0.930 . S
H472 C485 0.929 . S
H473 C483 0.929 . S
H474 C478 0.929 . S
H475 C484 0.929 . S
C476 H470 0.930 . S
C476 C477 1.367 . S
C476 C484 1.378 . S
C477 C476 1.367 . S
C477 C485 1.433 . S
C478 H474 0.929 . S
C478 C480 1.378 . S
C478 C482 1.350 . S
C479 C482 1.463 . S
C479 C484 1.350 . S
C479 N487 1.427 . S
C480 H471 0.930 . S
C480 C478 1.378 . S
C480 C481 1.367 . S
C481 C480 1.367 . S
C481 C483 1.433 . S
C482 C478 1.350 . S
C482 C479 1.463 . S
C482 N486 1.427 . S
C483 H473 0.929 . S
C483 C481 1.433 . S
C483 N486 1.384 . S
C484 H475 0.929 . S
C484 C476 1.378 . S
C484 C479 1.350 . S
C485 H472 0.929 . S
C485 C477 1.433 . S
C485 N487 1.384 . S
N486 C482 1.427 . S
N486 C483 1.384 . S
N487 C479 1.427 . S
N487 C485 1.384 . S
H488 C494 0.930 . S
H489 C498 0.930 . S
H490 C503 0.929 . S
H491 C501 0.929 . S
H492 C496 0.929 . S
H493 C502 0.929 . S
C494 H488 0.930 . S
C494 C495 1.367 . S
C494 C502 1.378 . S
C495 C494 1.367 . S
C495 C503 1.433 . S
C496 H492 0.929 . S
C496 C498 1.378 . S
C496 C500 1.350 . S
C497 C500 1.463 . S
C497 C502 1.350 . S
C497 N505 1.427 . S
C498 H489 0.930 . S
C498 C496 1.378 . S
C498 C499 1.367 . S
C499 C498 1.367 . S
C499 C501 1.433 . S
C500 C496 1.350 . S
C500 C497 1.463 . S
C500 N504 1.427 . S
C501 H491 0.929 . S
C501 C499 1.433 . S
C501 N504 1.384 . S
C502 H493 0.929 . S
C502 C494 1.378 . S
C502 C497 1.350 . S
C503 H490 0.929 . S
C503 C495 1.433 . S
C503 N505 1.384 . S
N504 C500 1.427 . S
N504 C501 1.384 . S
N505 C497 1.427 . S
N505 C503 1.384 . S
H506 C512 0.930 . S
H507 C516 0.930 . S
H508 C521 0.929 . S
H509 C519 0.929 . S
H510 C514 0.929 . S
H511 C520 0.929 . S
C512 H506 0.930 . S
C512 C513 1.367 . S
C512 C520 1.378 . S
C513 C512 1.367 . S
C513 C521 1.433 . S
C514 H510 0.929 . S
C514 C516 1.378 . S
C514 C518 1.350 . S
C515 C518 1.463 . S
C515 C520 1.350 . S
C515 N523 1.427 . S
C516 H507 0.930 . S
C516 C514 1.378 . S
C516 C517 1.367 . S
C517 C516 1.367 . S
C517 C519 1.433 . S
C518 C514 1.350 . S
C518 C515 1.463 . S
C518 N522 1.427 . S
C519 H509 0.929 . S
C519 C517 1.433 . S
C519 N522 1.384 . S
C520 H511 0.929 . S
C520 C512 1.378 . S
C520 C515 1.350 . S
C521 H508 0.929 . S
C521 C513 1.433 . S
C521 N523 1.384 . S
N522 C518 1.427 . S
N522 C519 1.384 . S
N523 C515 1.427 . S
N523 C521 1.384 . S
H524 C530 0.930 . S
H525 C534 0.930 1_554 S
H526 C539 0.929 . S
H527 C537 0.929 . S
H528 C532 0.929 . S
H529 C538 0.929 . S
C530 H524 0.930 . S
C530 C531 1.367 . S
C530 C538 1.378 . S
C531 C530 1.367 . S
C531 C539 1.433 . S
C532 H528 0.929 . S
C532 C534 1.378 . S
C532 C536 1.350 . S
C533 C536 1.463 . S
C533 C538 1.350 . S
C533 N541 1.427 . S
C534 H525 0.930 1_556 S
C534 C532 1.378 . S
C534 C535 1.367 . S
C535 C534 1.367 . S
C535 C537 1.433 . S
C536 C532 1.350 . S
C536 C533 1.463 . S
C536 N540 1.427 . S
C537 H527 0.929 . S
C537 C535 1.433 . S
C537 N540 1.384 . S
C538 H529 0.929 . S
C538 C530 1.378 . S
C538 C533 1.350 . S
C539 H526 0.929 . S
C539 C531 1.433 . S
C539 N541 1.384 . S
N540 C536 1.427 . S
N540 C537 1.384 . S
N541 C533 1.427 . S
N541 C539 1.384 . S
H542 C548 0.930 . S
H543 C552 0.930 . S
H544 C557 0.929 . S
H545 C555 0.929 . S
H546 C550 0.929 . S
H547 C556 0.929 . S
C548 H542 0.930 . S
C548 C549 1.367 . S
C548 C556 1.378 . S
C549 C548 1.367 . S
C549 C557 1.433 . S
C550 H546 0.929 . S
C550 C552 1.378 . S
C550 C554 1.350 . S
C551 C554 1.463 . S
C551 C556 1.350 . S
C551 N559 1.427 . S
C552 H543 0.930 . S
C552 C550 1.378 . S
C552 C553 1.367 . S
C553 C552 1.367 . S
C553 C555 1.433 . S
C554 C550 1.350 . S
C554 C551 1.463 . S
C554 N558 1.427 . S
C555 H545 0.929 . S
C555 C553 1.433 . S
C555 N558 1.384 . S
C556 H547 0.929 . S
C556 C548 1.378 . S
C556 C551 1.350 . S
C557 H544 0.929 . S
C557 C549 1.433 . S
C557 N559 1.384 . S
N558 C554 1.427 . S
N558 C555 1.384 . S
N559 C551 1.427 . S
N559 C557 1.384 . S
H560 C566 0.930 . S
H561 C570 0.930 1_556 S
H562 C575 0.929 . S
H563 C573 0.929 . S
H564 C568 0.929 1_556 S
H565 C574 0.929 . S
C566 H560 0.930 . S
C566 C567 1.367 . S
C566 C574 1.378 . S
C567 C566 1.367 . S
C567 C575 1.433 . S
C568 H564 0.929 1_554 S
C568 C570 1.378 . S
C568 C572 1.350 . S
C569 C572 1.463 . S
C569 C574 1.350 . S
C569 N577 1.427 . S
C570 H561 0.930 1_554 S
C570 C568 1.378 . S
C570 C571 1.367 . S
C571 C570 1.367 . S
C571 C573 1.433 . S
C572 C568 1.350 . S
C572 C569 1.463 . S
C572 N576 1.427 . S
C573 H563 0.929 . S
C573 C571 1.433 . S
C573 N576 1.384 . S
C574 H565 0.929 . S
C574 C566 1.378 . S
C574 C569 1.350 . S
C575 H562 0.929 . S
C575 C567 1.433 . S
C575 N577 1.384 . S
N576 C572 1.427 . S
N576 C573 1.384 . S
N577 C569 1.427 . S
N577 C575 1.384 . S
H578 C584 0.930 . S
H579 C588 0.930 . S
H580 C593 0.929 . S
H581 C591 0.929 . S
H582 C586 0.929 . S
H583 C592 0.929 . S
C584 H578 0.930 . S
C584 C585 1.367 . S
C584 C592 1.378 . S
C585 C584 1.367 . S
C585 C593 1.433 . S
C586 H582 0.929 . S
C586 C588 1.378 . S
C586 C590 1.350 . S
C587 C590 1.463 . S
C587 C592 1.350 . S
C587 N595 1.427 . S
C588 H579 0.930 . S
C588 C586 1.378 . S
C588 C589 1.367 . S
C589 C588 1.367 . S
C589 C591 1.433 . S
C590 C586 1.350 . S
C590 C587 1.463 . S
C590 N594 1.427 . S
C591 H581 0.929 . S
C591 C589 1.433 . S
C591 N594 1.384 . S
C592 H583 0.929 . S
C592 C584 1.378 . S
C592 C587 1.350 . S
C593 H580 0.929 . S
C593 C585 1.433 . S
C593 N595 1.384 . S
N594 C590 1.427 . S
N594 C591 1.384 . S
N595 C587 1.427 . S
N595 C593 1.384 . S
H596 C602 0.930 . S
H597 C606 0.930 . S
H598 C611 0.929 . S
H599 C609 0.929 . S
H600 C604 0.929 . S
H601 C610 0.929 . S
C602 H596 0.930 . S
C602 C603 1.367 . S
C602 C610 1.378 . S
C603 C602 1.367 . S
C603 C611 1.433 . S
C604 H600 0.929 . S
C604 C606 1.378 . S
C604 C608 1.350 . S
C605 C608 1.463 . S
C605 C610 1.350 . S
C605 N613 1.427 . S
C606 H597 0.930 . S
C606 C604 1.378 . S
C606 C607 1.367 . S
C607 C606 1.367 . S
C607 C609 1.433 . S
C608 C604 1.350 . S
C608 C605 1.463 . S
C608 N612 1.427 . S
C609 H599 0.929 . S
C609 C607 1.433 . S
C609 N612 1.384 . S
C610 H601 0.929 . S
C610 C602 1.378 . S
C610 C605 1.350 . S
C611 H598 0.929 . S
C611 C603 1.433 . S
C611 N613 1.384 . S
N612 C608 1.427 . S
N612 C609 1.384 . S
N613 C605 1.427 . S
N613 C611 1.384 . S
H614 C620 0.930 . S
H615 C624 0.930 . S
H616 C629 0.929 . S
H617 C627 0.929 . S
H618 C622 0.929 . S
H619 C628 0.929 . S
C620 H614 0.930 . S
C620 C621 1.367 . S
C620 C628 1.378 . S
C621 C620 1.367 . S
C621 C629 1.433 . S
C622 H618 0.929 . S
C622 C624 1.378 . S
C622 C626 1.350 . S
C623 C626 1.463 . S
C623 C628 1.350 . S
C623 N631 1.427 . S
C624 H615 0.930 . S
C624 C622 1.378 . S
C624 C625 1.367 . S
C625 C624 1.367 . S
C625 C627 1.433 . S
C626 C622 1.350 . S
C626 C623 1.463 . S
C626 N630 1.427 . S
C627 H617 0.929 . S
C627 C625 1.433 . S
C627 N630 1.384 . S
C628 H619 0.929 . S
C628 C620 1.378 . S
C628 C623 1.350 . S
C629 H616 0.929 . S
C629 C621 1.433 . S
C629 N631 1.384 . S
N630 C626 1.427 . S
N630 C627 1.384 . S
N631 C623 1.427 . S
N631 C629 1.384 . S
H632 C638 0.930 . S
H633 C642 0.930 . S
H634 C647 0.929 . S
H635 C645 0.929 . S
H636 C640 0.929 . S
H637 C646 0.929 . S
C638 H632 0.930 . S
C638 C639 1.367 . S
C638 C646 1.378 . S
C639 C638 1.367 . S
C639 C647 1.433 . S
C640 H636 0.929 . S
C640 C642 1.378 . S
C640 C644 1.350 . S
C641 C644 1.463 . S
C641 C646 1.350 . S
C641 N649 1.427 . S
C642 H633 0.930 . S
C642 C640 1.378 . S
C642 C643 1.367 . S
C643 C642 1.367 . S
C643 C645 1.433 . S
C644 C640 1.350 . S
C644 C641 1.463 . S
C644 N648 1.427 . S
C645 H635 0.929 . S
C645 C643 1.433 . S
C645 N648 1.384 . S
C646 H637 0.929 . S
C646 C638 1.378 . S
C646 C641 1.350 . S
C647 H634 0.929 . S
C647 C639 1.433 . S
C647 N649 1.384 . S
N648 C644 1.427 . S
N648 C645 1.384 . S
N649 C641 1.427 . S
N649 C647 1.384 . S
H650 C656 0.930 . S
H651 C660 0.930 . S
H652 C665 0.929 . S
H653 C663 0.929 . S
H654 C658 0.929 . S
H655 C664 0.929 . S
C656 H650 0.930 . S
C656 C657 1.367 . S
C656 C664 1.378 . S
C657 C656 1.367 . S
C657 C665 1.433 . S
C658 H654 0.929 . S
C658 C660 1.378 . S
C658 C662 1.350 . S
C659 C662 1.463 . S
C659 C664 1.350 . S
C659 N667 1.427 . S
C660 H651 0.930 . S
C660 C658 1.378 . S
C660 C661 1.367 . S
C661 C660 1.367 . S
C661 C663 1.433 . S
C662 C658 1.350 . S
C662 C659 1.463 . S
C662 N666 1.427 . S
C663 H653 0.929 . S
C663 C661 1.433 . S
C663 N666 1.384 . S
C664 H655 0.929 . S
C664 C656 1.378 . S
C664 C659 1.350 . S
C665 H652 0.929 . S
C665 C657 1.433 . S
C665 N667 1.384 . S
N666 C662 1.427 . S
N666 C663 1.384 . S
N667 C659 1.427 . S
N667 C665 1.384 . S
H668 C674 0.930 . S
H669 C678 0.930 . S
H670 C683 0.929 . S
H671 C681 0.929 . S
H672 C676 0.929 . S
H673 C682 0.929 . S
C674 H668 0.930 . S
C674 C675 1.367 . S
C674 C682 1.378 . S
C675 C674 1.367 . S
C675 C683 1.433 . S
C676 H672 0.929 . S
C676 C678 1.378 . S
C676 C680 1.350 . S
C677 C680 1.463 . S
C677 C682 1.350 . S
C677 N685 1.427 . S
C678 H669 0.930 . S
C678 C676 1.378 . S
C678 C679 1.367 . S
C679 C678 1.367 . S
C679 C681 1.433 . S
C680 C676 1.350 . S
C680 C677 1.463 . S
C680 N684 1.427 . S
C681 H671 0.929 . S
C681 C679 1.433 . S
C681 N684 1.384 . S
C682 H673 0.929 . S
C682 C674 1.378 . S
C682 C677 1.350 . S
C683 H670 0.929 . S
C683 C675 1.433 . S
C683 N685 1.384 . S
N684 C680 1.427 . S
N684 C681 1.384 . S
N685 C677 1.427 . S
N685 C683 1.384 . S
H686 C692 0.930 . S
H687 C696 0.930 . S
H688 C701 0.929 . S
H689 C699 0.929 . S
H690 C694 0.929 . S
H691 C700 0.929 . S
C692 H686 0.930 . S
C692 C693 1.367 . S
C692 C700 1.378 . S
C693 C692 1.367 . S
C693 C701 1.433 . S
C694 H690 0.929 . S
C694 C696 1.378 . S
C694 C698 1.350 . S
C695 C698 1.463 . S
C695 C700 1.350 . S
C695 N703 1.427 . S
C696 H687 0.930 . S
C696 C694 1.378 . S
C696 C697 1.367 . S
C697 C696 1.367 . S
C697 C699 1.433 . S
C698 C694 1.350 . S
C698 C695 1.463 . S
C698 N702 1.427 . S
C699 H689 0.929 . S
C699 C697 1.433 . S
C699 N702 1.384 . S
C700 H691 0.929 . S
C700 C692 1.378 . S
C700 C695 1.350 . S
C701 H688 0.929 . S
C701 C693 1.433 . S
C701 N703 1.384 . S
N702 C698 1.427 . S
N702 C699 1.384 . S
N703 C695 1.427 . S
N703 C701 1.384 . S
H704 C710 0.930 . S
H705 C714 0.930 . S
H706 C719 0.929 . S
H707 C717 0.929 1_554 S
H708 C712 0.929 . S
H709 C718 0.929 . S
C710 H704 0.930 . S
C710 C711 1.367 . S
C710 C718 1.378 . S
C711 C710 1.367 . S
C711 C719 1.433 . S
C712 H708 0.929 . S
C712 C714 1.378 . S
C712 C716 1.350 . S
C713 C716 1.463 . S
C713 C718 1.350 . S
C713 N721 1.427 . S
C714 H705 0.930 . S
C714 C712 1.378 . S
C714 C715 1.367 . S
C715 C714 1.367 . S
C715 C717 1.433 . S
C716 C712 1.350 . S
C716 C713 1.463 . S
C716 N720 1.427 . S
C717 H707 0.929 1_556 S
C717 C715 1.433 . S
C717 N720 1.384 . S
C718 H709 0.929 . S
C718 C710 1.378 . S
C718 C713 1.350 . S
C719 H706 0.929 . S
C719 C711 1.433 . S
C719 N721 1.384 . S
N720 C716 1.427 . S
N720 C717 1.384 . S
N721 C713 1.427 . S
N721 C719 1.384 . S
H722 C728 0.930 . S
H723 C732 0.930 . S
H724 C737 0.929 . S
H725 C735 0.929 . S
H726 C730 0.929 . S
H727 C736 0.929 . S
C728 H722 0.930 . S
C728 C729 1.367 . S
C728 C736 1.378 . S
C729 C728 1.367 . S
C729 C737 1.433 . S
C730 H726 0.929 . S
C730 C732 1.378 . S
C730 C734 1.350 . S
C731 C734 1.463 . S
C731 C736 1.350 . S
C731 N739 1.427 . S
C732 H723 0.930 . S
C732 C730 1.378 . S
C732 C733 1.367 . S
C733 C732 1.367 . S
C733 C735 1.433 . S
C734 C730 1.350 . S
C734 C731 1.463 . S
C734 N738 1.427 . S
C735 H725 0.929 . S
C735 C733 1.433 . S
C735 N738 1.384 . S
C736 H727 0.929 . S
C736 C728 1.378 . S
C736 C731 1.350 . S
C737 H724 0.929 . S
C737 C729 1.433 . S
C737 N739 1.384 . S
N738 C734 1.427 . S
N738 C735 1.384 . S
N739 C731 1.427 . S
N739 C737 1.384 . S
H740 C746 0.930 . S
H741 C750 0.930 . S
H742 C755 0.929 . S
H743 C753 0.929 . S
H744 C748 0.929 . S
H745 C754 0.929 . S
C746 H740 0.930 . S
C746 C747 1.367 . S
C746 C754 1.378 . S
C747 C746 1.367 . S
C747 C755 1.433 . S
C748 H744 0.929 . S
C748 C750 1.378 . S
C748 C752 1.350 . S
C749 C752 1.463 . S
C749 C754 1.350 . S
C749 N757 1.427 . S
C750 H741 0.930 . S
C750 C748 1.378 . S
C750 C751 1.367 . S
C751 C750 1.367 . S
C751 C753 1.433 . S
C752 C748 1.350 . S
C752 C749 1.463 . S
C752 N756 1.427 . S
C753 H743 0.929 . S
C753 C751 1.433 . S
C753 N756 1.384 . S
C754 H745 0.929 . S
C754 C746 1.378 . S
C754 C749 1.350 . S
C755 H742 0.929 . S
C755 C747 1.433 . S
C755 N757 1.384 . S
N756 C752 1.427 . S
N756 C753 1.384 . S
N757 C749 1.427 . S
N757 C755 1.384 . S
H758 C764 0.930 . S
H759 C768 0.930 . S
H760 C773 0.929 . S
H761 C771 0.929 . S
H762 C766 0.929 . S
H763 C772 0.929 . S
C764 H758 0.930 . S
C764 C765 1.367 . S
C764 C772 1.378 . S
C765 C764 1.367 . S
C765 C773 1.433 . S
C766 H762 0.929 . S
C766 C768 1.378 . S
C766 C770 1.350 . S
C767 C770 1.463 . S
C767 C772 1.350 . S
C767 N775 1.427 . S
C768 H759 0.930 . S
C768 C766 1.378 . S
C768 C769 1.367 . S
C769 C768 1.367 . S
C769 C771 1.433 . S
C770 C766 1.350 . S
C770 C767 1.463 . S
C770 N774 1.427 . S
C771 H761 0.929 . S
C771 C769 1.433 . S
C771 N774 1.384 . S
C772 H763 0.929 . S
C772 C764 1.378 . S
C772 C767 1.350 . S
C773 H760 0.929 . S
C773 C765 1.433 . S
C773 N775 1.384 . S
N774 C770 1.427 . S
N774 C771 1.384 . S
N775 C767 1.427 . S
N775 C773 1.384 . S
H776 C782 0.930 . S
H777 C786 0.965 . S
H778 C791 0.929 . S
H779 C789 0.929 . S
H780 C784 0.929 1_554 S
H781 C790 0.929 . S
C782 H776 0.930 . S
C782 C783 1.367 . S
C782 C790 1.378 . S
C783 C782 1.367 . S
C783 C791 1.433 . S
C784 H780 0.929 1_556 S
C784 C786 1.371 1_556 S
C784 C788 1.350 . S
C785 C788 1.463 . S
C785 C790 1.350 . S
C785 N793 1.427 . S
C786 H777 0.965 . S
C786 C784 1.371 1_554 S
C786 C787 1.339 1_554 S
C787 C786 1.339 1_556 S
C787 C789 1.433 . S
C788 C784 1.350 . S
C788 C785 1.463 . S
C788 N792 1.427 . S
C789 H779 0.929 . S
C789 C787 1.433 . S
C789 N792 1.384 . S
C790 H781 0.929 . S
C790 C782 1.378 . S
C790 C785 1.350 . S
C791 H778 0.929 . S
C791 C783 1.433 . S
C791 N793 1.384 . S
N792 C788 1.427 . S
N792 C789 1.384 . S
N793 C785 1.427 . S
N793 C791 1.384 . S
H794 C800 0.930 . S
H795 C804 0.930 . S
H796 C809 0.929 . S
H797 C807 0.929 . S
H798 C802 0.929 . S
H799 C808 0.929 . S
C800 H794 0.930 . S
C800 C801 1.367 . S
C800 C808 1.378 . S
C801 C800 1.367 . S
C801 C809 1.433 . S
C802 H798 0.929 . S
C802 C804 1.378 . S
C802 C806 1.350 . S
C803 C806 1.463 . S
C803 C808 1.350 . S
C803 N811 1.427 . S
C804 H795 0.930 . S
C804 C802 1.378 . S
C804 C805 1.367 . S
C805 C804 1.367 . S
C805 C807 1.433 . S
C806 C802 1.350 . S
C806 C803 1.463 . S
C806 N810 1.427 . S
C807 H797 0.929 . S
C807 C805 1.433 . S
C807 N810 1.384 . S
C808 H799 0.929 . S
C808 C800 1.378 . S
C808 C803 1.350 . S
C809 H796 0.929 . S
C809 C801 1.433 . S
C809 N811 1.384 . S
N810 C806 1.427 . S
N810 C807 1.384 . S
N811 C803 1.427 . S
N811 C809 1.384 . S
H812 C818 0.930 . S
H813 C822 0.930 . S
H814 C827 0.929 . S
H815 C825 0.929 . S
H816 C820 0.929 . S
H817 C826 0.929 . S
C818 H812 0.930 . S
C818 C819 1.367 . S
C818 C826 1.378 . S
C819 C818 1.367 . S
C819 C827 1.433 . S
C820 H816 0.929 . S
C820 C822 1.378 . S
C820 C824 1.350 . S
C821 C824 1.463 . S
C821 C826 1.350 . S
C821 N829 1.427 . S
C822 H813 0.930 . S
C822 C820 1.378 . S
C822 C823 1.367 . S
C823 C822 1.367 . S
C823 C825 1.433 . S
C824 C820 1.350 . S
C824 C821 1.463 . S
C824 N828 1.427 . S
C825 H815 0.929 . S
C825 C823 1.433 . S
C825 N828 1.384 . S
C826 H817 0.929 . S
C826 C818 1.378 . S
C826 C821 1.350 . S
C827 H814 0.929 . S
C827 C819 1.433 . S
C827 N829 1.384 . S
N828 C824 1.427 . S
N828 C825 1.384 . S
N829 C821 1.427 . S
N829 C827 1.384 . S
H830 C836 0.930 . S
H831 C840 0.930 . S
H832 C845 0.929 . S
H833 C843 0.929 . S
H834 C838 0.929 . S
H835 C844 0.929 . S
C836 H830 0.930 . S
C836 C837 1.367 . S
C836 C844 1.378 . S
C837 C836 1.367 . S
C837 C845 1.433 . S
C838 H834 0.929 . S
C838 C840 1.378 . S
C838 C842 1.350 . S
C839 C842 1.463 . S
C839 C844 1.350 . S
C839 N847 1.427 . S
C840 H831 0.930 . S
C840 C838 1.378 . S
C840 C841 1.367 . S
C841 C840 1.367 . S
C841 C843 1.433 . S
C842 C838 1.350 . S
C842 C839 1.463 . S
C842 N846 1.427 . S
C843 H833 0.929 . S
C843 C841 1.433 . S
C843 N846 1.384 . S
C844 H835 0.929 . S
C844 C836 1.378 . S
C844 C839 1.350 . S
C845 H832 0.929 . S
C845 C837 1.433 . S
C845 N847 1.384 . S
N846 C842 1.427 . S
N846 C843 1.384 . S
N847 C839 1.427 . S
N847 C845 1.384 . S
C423 C29 2.869 . S
C427 C275 2.917 . S
C441 C49 2.166 . S
C445 C306 2.367 . S
C463 C345 1.377 . S
C459 C93 1.356 . S
C477 C119 0.476 . S
C481 C382 0.458 . S
C499 C305 2.779 . S
C495 C17 2.814 . S
C517 C262 1.478 . S
C513 C61 1.408 . S
C535 C394 1.417 . S
C531 C81 1.402 . S
C553 C351 1.116 . S
C549 C125 1.122 . S
C567 C23 2.209 . S
C571 C395 2.258 . S
C589 C311 1.266 . S
C585 C87 1.232 . S
C603 C113 0.582 . S
C607 C274 0.639 . S
C621 C55 2.284 . S
C625 C346 2.443 . S
C643 C266 2.864 . S
C639 C157 2.853 . S
C657 C189 2.404 . S
C661 C315 2.430 . S
C675 C221 1.393 . S
C679 C354 1.373 . S
C693 C253 0.557 . S
C697 C391 0.519 . S
C711 C145 2.907 . S
C715 C314 2.826 . S
C733 C271 1.416 . S
C729 C183 1.424 . S
C751 C385 1.446 . S
C747 C209 1.489 . S
C769 C342 1.073 . S
C765 C247 1.089 . S
C783 C151 2.265 . S
C787 C386 2.280 . S
C805 C302 1.252 . S
C801 C215 1.242 . S
C823 C265 0.605 . S
C819 C241 0.545 . S
C837 C177 2.483 . S
C841 C355 2.452 . S
