# Generated by pormake.
# Topology nom, (4,4)-cn, num edge types: 1
# Building blocks:
#     Node 0, Type 0, BuildingBlock: NAWXER_clean_linker_0, # of connection points: 4
#     Node 1, Type 0, BuildingBlock: NAWXER_clean_linker_0, # of connection points: 4
#     Node 2, Type 0, BuildingBlock: NAWXER_clean_linker_0, # of connection points: 4
#     Node 3, Type 0, BuildingBlock: NAWXER_clean_linker_0, # of connection points: 4
#     Node 4, Type 0, BuildingBlock: NAWXER_clean_linker_0, # of connection points: 4
#     Node 5, Type 0, BuildingBlock: NAWXER_clean_linker_0, # of connection points: 4
#     Node 6, Type 1, BuildingBlock: AZAVOO_clean_sbu_0, # of connection points: 4
#     Node 7, Type 1, BuildingBlock: AZAVOO_clean_sbu_0, # of connection points: 4
#     Node 8, Type 1, BuildingBlock: AZAVOO_clean_sbu_0, # of connection points: 4
#     Node 9, Type 1, BuildingBlock: AZAVOO_clean_sbu_0, # of connection points: 4
#     Node 10, Type 1, BuildingBlock: AZAVOO_clean_sbu_0, # of connection points: 4
#     Node 11, Type 1, BuildingBlock: AZAVOO_clean_sbu_0, # of connection points: 4
#     Edge 12, Type (0, 1), BuildingBlock: CIFDUS_clean_linker_0, # of connection points: 2
#     Edge 13, Type (0, 1), BuildingBlock: CIFDUS_clean_linker_0, # of connection points: 2
#     Edge 14, Type (0, 1), BuildingBlock: CIFDUS_clean_linker_0, # of connection points: 2
#     Edge 15, Type (0, 1), BuildingBlock: CIFDUS_clean_linker_0, # of connection points: 2
#     Edge 16, Type (0, 1), BuildingBlock: CIFDUS_clean_linker_0, # of connection points: 2
#     Edge 17, Type (0, 1), BuildingBlock: CIFDUS_clean_linker_0, # of connection points: 2
#     Edge 18, Type (0, 1), BuildingBlock: CIFDUS_clean_linker_0, # of connection points: 2
#     Edge 19, Type (0, 1), BuildingBlock: CIFDUS_clean_linker_0, # of connection points: 2
#     Edge 20, Type (0, 1), BuildingBlock: CIFDUS_clean_linker_0, # of connection points: 2
#     Edge 21, Type (0, 1), BuildingBlock: CIFDUS_clean_linker_0, # of connection points: 2
#     Edge 22, Type (0, 1), BuildingBlock: CIFDUS_clean_linker_0, # of connection points: 2
#     Edge 23, Type (0, 1), BuildingBlock: CIFDUS_clean_linker_0, # of connection points: 2
#     Edge 24, Type (0, 1), BuildingBlock: CIFDUS_clean_linker_0, # of connection points: 2
#     Edge 25, Type (0, 1), BuildingBlock: CIFDUS_clean_linker_0, # of connection points: 2
#     Edge 26, Type (0, 1), BuildingBlock: CIFDUS_clean_linker_0, # of connection points: 2
#     Edge 27, Type (0, 1), BuildingBlock: CIFDUS_clean_linker_0, # of connection points: 2
#     Edge 28, Type (0, 1), BuildingBlock: CIFDUS_clean_linker_0, # of connection points: 2
#     Edge 29, Type (0, 1), BuildingBlock: CIFDUS_clean_linker_0, # of connection points: 2
#     Edge 30, Type (0, 1), BuildingBlock: CIFDUS_clean_linker_0, # of connection points: 2
#     Edge 31, Type (0, 1), BuildingBlock: CIFDUS_clean_linker_0, # of connection points: 2
#     Edge 32, Type (0, 1), BuildingBlock: CIFDUS_clean_linker_0, # of connection points: 2
#     Edge 33, Type (0, 1), BuildingBlock: CIFDUS_clean_linker_0, # of connection points: 2
#     Edge 34, Type (0, 1), BuildingBlock: CIFDUS_clean_linker_0, # of connection points: 2
#     Edge 35, Type (0, 1), BuildingBlock: CIFDUS_clean_linker_0, # of connection points: 2
# Relax obj value: 0.044
# Max RMSD: 0.158
# Mean RMSD: 0.130
data_MOF--net-nom--node1-AZAVOO_clean_sbu_0--node2-NAWXER_clean_linker_0--edge1-CIFDUS_clean_linker_0
_symmetry_space_group_name_H-M    P1
_symmetry_Int_Tables_number       1
_symmetry_cell_setting            triclinic
loop_
_symmetry_equiv_pos_as_xyz
'x, y, z'
_cell_length_a     47.167357
_cell_length_b     47.523446
_cell_length_c     50.18809
_cell_angle_alpha  91.306208
_cell_angle_beta   91.373852
_cell_angle_gamma 119.9715
loop_
_atom_site_label
_atom_site_type_symbol
_atom_site_fract_x
_atom_site_fract_y
_atom_site_fract_z
_atom_type_partial_charge
C0 C 0.89225 0.50582 0.34709 0.0
C1 C 0.87675 0.48301 0.36674 0.0
C2 C 0.92279 0.51269 0.33847 0.0
C3 C 0.93832 0.49643 0.34886 0.0
C4 C 0.89237 0.46688 0.37736 0.0
C5 C 0.92305 0.47373 0.3686 0.0
C6 C 0.97179 0.50571 0.34098 0.0
C7 C 0.90904 0.45794 0.26709 0.0
C8 C 0.91291 0.47923 0.24671 0.0
C9 C 0.93108 0.4685 0.28915 0.0
C10 C 0.95761 0.50053 0.29121 0.0
C11 C 0.93941 0.51129 0.24881 0.0
C12 C 0.96175 0.52172 0.27071 0.0
C13 C 0.98146 0.51157 0.31432 0.0
C14 C 0.12802 0.56716 0.32228 0.0
C15 C 0.138 0.59763 0.31148 0.0
C16 C 0.09511 0.54652 0.32784 0.0
C17 C 0.07188 0.55614 0.32256 0.0
C18 C 0.11445 0.60668 0.30566 0.0
C19 C 0.08169 0.58603 0.31098 0.0
C20 C 0.03739 0.53609 0.32951 0.0
C21 C 0.09951 0.56986 0.40645 0.0
C22 C 0.09262 0.5448 0.42413 0.0
C23 C 0.07842 0.56469 0.38444 0.0
C24 C 0.05054 0.53402 0.37903 0.0
C25 C 0.064 0.51451 0.41911 0.0
C26 C 0.04337 0.5092 0.39683 0.0
C27 C 0.02753 0.52752 0.35591 0.0
H28 H 0.88073 0.51836 0.33822 0.0
H29 H 0.93452 0.53126 0.324 0.0
H30 H 0.88114 0.44938 0.39268 0.0
H31 H 0.93491 0.4614 0.37729 0.0
H32 H 0.88885 0.43312 0.26601 0.0
H33 H 0.92764 0.45149 0.30446 0.0
H34 H 0.94322 0.52811 0.23324 0.0
H35 H 0.98211 0.54646 0.27176 0.0
H36 H 0.14572 0.55959 0.32684 0.0
H37 H 0.08787 0.52335 0.33653 0.0
H38 H 0.12137 0.62972 0.29684 0.0
H39 H 0.06405 0.59375 0.30661 0.0
H40 H 0.12127 0.5935 0.40946 0.0
H41 H 0.08389 0.58481 0.37182 0.0
H42 H 0.05712 0.49486 0.43258 0.0
H43 H 0.02166 0.48553 0.3935 0.0
N44 N 0.99504 0.51302 0.3606 0.0
N45 N 0.01399 0.5274 0.30969 0.0
C46 C 0.41018 0.89345 0.50861 0.0
C47 C 0.42137 0.88054 0.52846 0.0
C48 C 0.42964 0.92539 0.50115 0.0
C49 C 0.46127 0.94499 0.51267 0.0
C50 C 0.45293 0.90026 0.54026 0.0
C51 C 0.47265 0.93226 0.53247 0.0
C52 C 0.48128 0.97929 0.50523 0.0
C53 C 0.47183 0.92006 0.43151 0.0
C54 C 0.45175 0.92123 0.41093 0.0
C55 C 0.48195 0.94192 0.4535 0.0
C56 C 0.47218 0.96538 0.45535 0.0
C57 C 0.44214 0.94483 0.41275 0.0
C58 C 0.45252 0.9669 0.43464 0.0
C59 C 0.48304 0.98878 0.47854 0.0
C60 C 0.56392 0.13432 0.48449 0.0
C61 C 0.54251 0.14174 0.4704 0.0
C62 C 0.553 0.10271 0.49266 0.0
C63 C 0.52057 0.07811 0.48673 0.0
C64 C 0.50998 0.1171 0.46485 0.0
C65 C 0.4992 0.08553 0.47277 0.0
C66 C 0.50884 0.04421 0.49376 0.0
C67 C 0.52322 0.10007 0.57201 0.0
C68 C 0.55169 0.10497 0.58602 0.0
C69 C 0.50958 0.07743 0.55052 0.0
C70 C 0.52386 0.05893 0.5428 0.0
C71 C 0.56601 0.08645 0.57788 0.0
C72 C 0.55199 0.0634 0.55672 0.0
C73 C 0.50967 0.035 0.52014 0.0
H74 H 0.3862 0.87894 0.49886 0.0
H75 H 0.4196 0.93488 0.4866 0.0
H76 H 0.46211 0.89127 0.55592 0.0
H77 H 0.49673 0.94709 0.54199 0.0
H78 H 0.47956 0.9021 0.43067 0.0
H79 H 0.49762 0.94065 0.46899 0.0
H80 H 0.42706 0.94659 0.397 0.0
H81 H 0.44491 0.98495 0.43555 0.0
H82 H 0.58913 0.1529 0.48899 0.0
H83 H 0.57002 0.09732 0.50305 0.0
H84 H 0.49311 0.12202 0.45366 0.0
H85 H 0.47415 0.0668 0.46788 0.0
H86 H 0.51104 0.11329 0.57789 0.0
H87 H 0.48768 0.0741 0.54008 0.0
H88 H 0.58828 0.08988 0.58767 0.0
H89 H 0.56345 0.04946 0.55089 0.0
N90 N 0.49543 0.00281 0.52502 0.0
N91 N 0.49597 0.02084 0.47389 0.0
C92 C 0.5703 0.47804 0.56126 0.0
C93 C 0.54829 0.4676 0.53909 0.0
C94 C 0.5621 0.4869 0.58539 0.0
C95 C 0.53127 0.4844 0.588 0.0
C96 C 0.5176 0.46512 0.54156 0.0
C97 C 0.50909 0.47325 0.56581 0.0
C98 C 0.52305 0.49637 0.61259 0.0
C99 C 0.53873 0.41684 0.64235 0.0
C100 C 0.56395 0.42598 0.66191 0.0
C101 C 0.52928 0.43897 0.63427 0.0
C102 C 0.54519 0.47093 0.64524 0.0
C103 C 0.58007 0.45807 0.67269 0.0
C104 C 0.57065 0.48025 0.66453 0.0
C105 C 0.53305 0.49343 0.63873 0.0
C106 C 0.46953 0.54678 0.70982 0.0
C107 C 0.49634 0.57165 0.72477 0.0
C108 C 0.47445 0.53177 0.6876 0.0
C109 C 0.50627 0.54149 0.67971 0.0
C110 C 0.52823 0.58102 0.71704 0.0
C111 C 0.53313 0.56586 0.6948 0.0
C112 C 0.51161 0.52588 0.65607 0.0
C113 C 0.46884 0.58534 0.61891 0.0
C114 C 0.43484 0.56403 0.61479 0.0
C115 C 0.48992 0.57323 0.62439 0.0
C116 C 0.47745 0.53966 0.62531 0.0
C117 C 0.42271 0.53034 0.61604 0.0
C118 C 0.44387 0.51833 0.6208 0.0
C119 C 0.49908 0.5262 0.63041 0.0
H120 H 0.59433 0.4806 0.55959 0.0
H121 H 0.58035 0.49671 0.60164 0.0
H122 H 0.5003 0.45714 0.52463 0.0
H123 H 0.48529 0.47132 0.56708 0.0
H124 H 0.52596 0.3924 0.63352 0.0
H125 H 0.50886 0.43075 0.61998 0.0
H126 H 0.59924 0.46576 0.6881 0.0
H127 H 0.58294 0.50458 0.6736 0.0
H128 H 0.44465 0.53918 0.71508 0.0
H129 H 0.45337 0.51243 0.67667 0.0
H130 H 0.54937 0.59985 0.72831 0.0
H131 H 0.55789 0.57344 0.68917 0.0
H132 H 0.47931 0.61135 0.61771 0.0
H133 H 0.51593 0.58998 0.6276 0.0
H134 H 0.39675 0.51306 0.61383 0.0
H135 H 0.4339 0.4923 0.62155 0.0
N136 N 0.50571 0.51198 0.60962 0.0
N137 N 0.52777 0.50914 0.65938 0.0
C138 C 0.89535 0.43365 0.82926 0.0
C139 C 0.87957 0.43757 0.80672 0.0
C140 C 0.92505 0.45925 0.83951 0.0
C141 C 0.93931 0.48973 0.828 0.0
C142 C 0.89326 0.46836 0.79564 0.0
C143 C 0.92299 0.49415 0.80611 0.0
C144 C 0.97371 0.51441 0.83514 0.0
C145 C 0.93355 0.52488 0.91678 0.0
C146 C 0.93094 0.49949 0.93252 0.0
C147 C 0.95031 0.53205 0.89301 0.0
C148 C 0.96551 0.51462 0.8849 0.0
C149 C 0.94612 0.48197 0.92384 0.0
C150 C 0.96396 0.49011 0.90075 0.0
C151 C 0.98616 0.52429 0.86161 0.0
C152 C 0.13309 0.60809 0.84632 0.0
C153 C 0.14331 0.59511 0.86691 0.0
C154 C 0.09969 0.5956 0.84026 0.0
C155 C 0.07603 0.56938 0.85423 0.0
C156 C 0.11948 0.57104 0.88239 0.0
C157 C 0.08629 0.55824 0.87605 0.0
C158 C 0.04066 0.55234 0.84633 0.0
C159 C 0.0915 0.54478 0.77358 0.0
C160 C 0.08547 0.55775 0.75061 0.0
C161 C 0.07301 0.53994 0.79611 0.0
C162 C 0.04877 0.54885 0.79642 0.0
C163 C 0.06036 0.56556 0.75072 0.0
C164 C 0.04221 0.56112 0.77339 0.0
C165 C 0.02817 0.54287 0.81969 0.0
H166 H 0.88529 0.41038 0.83851 0.0
H167 H 0.93774 0.45434 0.85529 0.0
H168 H 0.88186 0.47212 0.77815 0.0
H169 H 0.93392 0.51721 0.79645 0.0
H170 H 0.92322 0.53972 0.92287 0.0
H171 H 0.95221 0.5518 0.88137 0.0
H172 H 0.94419 0.4617 0.93464 0.0
H173 H 0.97623 0.4769 0.89502 0.0
H174 H 0.15081 0.62679 0.83409 0.0
H175 H 0.09245 0.60563 0.82406 0.0
H176 H 0.12647 0.56122 0.89892 0.0
H177 H 0.06862 0.53856 0.8876 0.0
H178 H 0.11076 0.53869 0.77433 0.0
H179 H 0.07767 0.5292 0.81327 0.0
H180 H 0.0545 0.57487 0.73322 0.0
H181 H 0.023 0.56732 0.77295 0.0
N182 N 0.99523 0.52449 0.81523 0.0
N183 N 0.01901 0.54269 0.86617 0.0
C184 C 0.46953 0.89778 0.98332 0.0
C185 C 0.4443 0.88278 0.96352 0.0
C186 C 0.47938 0.92908 0.99341 0.0
C187 C 0.46394 0.94602 0.98425 0.0
C188 C 0.42864 0.89963 0.9545 0.0
C189 C 0.43851 0.93101 0.96467 0.0
C190 C 0.47683 0.98052 0.99284 0.0
C191 C 0.43847 0.92643 0.06787 0.0
C192 C 0.46271 0.93282 0.08771 0.0
C193 C 0.44621 0.9453 0.04538 0.0
C194 C 0.47832 0.97084 0.0424 0.0
C195 C 0.49475 0.95848 0.08473 0.0
C196 C 0.50242 0.97746 0.06237 0.0
C197 C 0.48661 0.99216 0.0195 0.0
C198 C 0.55196 0.13891 0.0138 0.0
C199 C 0.57938 0.14641 0.03063 0.0
C200 C 0.52982 0.10663 0.0055 0.0
C201 C 0.53505 0.08138 0.01352 0.0
C202 C 0.58376 0.12088 0.03928 0.0
C203 C 0.56197 0.08888 0.03078 0.0
C204 C 0.51249 0.04681 0.00542 0.0
C205 C 0.54605 0.09783 0.92774 0.0
C206 C 0.52007 0.095 0.91133 0.0
C207 C 0.53983 0.07868 0.94993 0.0
C208 C 0.50751 0.05662 0.95628 0.0
C209 C 0.48773 0.07272 0.91767 0.0
C210 C 0.48154 0.05352 0.93985 0.0
C211 C 0.50051 0.03523 0.97898 0.0
H212 H 0.48263 0.88586 0.99028 0.0
H213 H 0.49998 0.94047 0.00766 0.0
H214 H 0.40895 0.88868 0.93941 0.0
H215 H 0.42651 0.94371 0.95701 0.0
H216 H 0.41363 0.90663 0.06963 0.0
H217 H 0.42704 0.94022 0.03052 0.0
H218 H 0.51381 0.96409 0.09985 0.0
H219 H 0.52726 0.99727 0.0606 0.0
H220 H 0.54783 0.15798 0.00673 0.0
H221 H 0.50867 0.1015 0.99294 0.0
H222 H 0.60404 0.12555 0.05277 0.0
H223 H 0.56637 0.06987 0.03762 0.0
H224 H 0.57123 0.11498 0.9235 0.0
H225 H 0.56027 0.08091 0.96199 0.0
H226 H 0.46724 0.06972 0.90523 0.0
H227 H 0.45643 0.03625 0.94422 0.0
N228 N 0.48345 0.00255 0.97369 0.0
N229 N 0.50452 0.0247 0.0246 0.0
C230 C 0.4738 0.60389 0.15423 0.0
C231 C 0.45776 0.59941 0.17836 0.0
C232 C 0.47589 0.57845 0.14186 0.0
C233 C 0.46129 0.54769 0.15297 0.0
C234 C 0.44239 0.5684 0.18909 0.0
C235 C 0.4442 0.54283 0.17653 0.0
C236 C 0.46859 0.52254 0.14302 0.0
C237 C 0.41473 0.53361 0.07202 0.0
C238 C 0.4344 0.54753 0.05011 0.0
C239 C 0.42654 0.52406 0.09381 0.0
C240 C 0.45809 0.52795 0.09388 0.0
C241 C 0.46623 0.55211 0.05054 0.0
C242 C 0.47781 0.54207 0.0721 0.0
C243 C 0.46996 0.51557 0.11572 0.0
C244 C 0.52038 0.41975 0.12171 0.0
C245 C 0.54297 0.43262 0.1015 0.0
C246 C 0.50275 0.43488 0.12942 0.0
C247 C 0.50861 0.46392 0.11783 0.0
C248 C 0.5472 0.46032 0.08873 0.0
C249 C 0.53028 0.47589 0.09688 0.0
C250 C 0.49328 0.48276 0.12751 0.0
C251 C 0.54856 0.47511 0.19909 0.0
C252 C 0.5287 0.45951 0.22059 0.0
C253 C 0.5364 0.48467 0.17764 0.0
C254 C 0.50387 0.47806 0.1769 0.0
C255 C 0.49633 0.45353 0.22 0.0
C256 C 0.48409 0.46282 0.19839 0.0
C257 C 0.49097 0.48902 0.15482 0.0
H258 H 0.48545 0.62732 0.14517 0.0
H259 H 0.49039 0.58347 0.12436 0.0
H260 H 0.43009 0.56416 0.20776 0.0
H261 H 0.43324 0.51951 0.18578 0.0
H262 H 0.39008 0.52978 0.07213 0.0
H263 H 0.41072 0.5128 0.11023 0.0
H264 H 0.48173 0.56241 0.03377 0.0
H265 H 0.50216 0.54515 0.07169 0.0
H266 H 0.51649 0.39811 0.13155 0.0
H267 H 0.48514 0.42427 0.14482 0.0
H268 H 0.56453 0.47061 0.07306 0.0
H269 H 0.53501 0.49798 0.08737 0.0
H270 H 0.5735 0.47983 0.19874 0.0
H271 H 0.55246 0.49733 0.16168 0.0
H272 H 0.48058 0.44216 0.23643 0.0
H273 H 0.45912 0.45812 0.19846 0.0
N274 N 0.47872 0.50859 0.1614 0.0
N275 N 0.48256 0.49624 0.10908 0.0
Mg276 Mg 0.61011 0.36097 0.36668 0.0
O277 O 0.60057 0.38574 0.40228 0.0
O278 O 0.61936 0.4378 0.3932 0.0
Mg279 Mg 0.64181 0.44649 0.35226 0.0
C280 C 0.60546 0.41402 0.40861 0.0
C281 C 0.61643 0.30463 0.39043 0.0
O282 O 0.64099 0.31637 0.37433 0.0
O283 O 0.66384 0.38549 0.37939 0.0
O284 O 0.68224 0.43687 0.3683 0.0
O285 O 0.56276 0.34977 0.34615 0.0
O286 O 0.61001 0.39457 0.34111 0.0
C287 C 0.68707 0.41466 0.37748 0.0
C288 C 0.57904 0.3778 0.33553 0.0
O289 O 0.59865 0.3177 0.39177 0.0
Mg290 Mg 0.25968 0.64524 0.60567 0.0
O291 O 0.22617 0.62371 0.56787 0.0
O292 O 0.19357 0.57052 0.57316 0.0
Mg293 Mg 0.20466 0.55875 0.61476 0.0
C294 C 0.20346 0.5957 0.5593 0.0
C295 C 0.28151 0.70817 0.57548 0.0
O296 O 0.25023 0.69798 0.57807 0.0
O297 O 0.2897 0.62182 0.59456 0.0
O298 O 0.25577 0.56935 0.60219 0.0
O299 O 0.22352 0.65571 0.62394 0.0
O300 O 0.22414 0.60987 0.62866 0.0
C301 C 0.28348 0.59248 0.59543 0.0
C302 C 0.21041 0.62698 0.63349 0.0
O303 O 0.2932 0.69101 0.58414 0.0
Mg304 Mg 0.62191 0.26251 0.7625 0.0
O305 O 0.61813 0.22809 0.72764 0.0
O306 O 0.64402 0.2023 0.7419 0.0
Mg307 Mg 0.66361 0.21913 0.78481 0.0
C308 C 0.62771 0.20748 0.72392 0.0
C309 C 0.57808 0.2816 0.72733 0.0
O310 O 0.55461 0.25323 0.73458 0.0
O311 O 0.67581 0.29765 0.75596 0.0
O312 O 0.69958 0.27107 0.77275 0.0
O313 O 0.5755 0.22314 0.77918 0.0
O314 O 0.62494 0.23157 0.78955 0.0
C315 C 0.70137 0.29631 0.76263 0.0
C316 C 0.59382 0.21435 0.79193 0.0
O317 O 0.60746 0.29109 0.73496 0.0
Mg318 Mg 0.39573 0.65531 0.86692 0.0
O319 O 0.40441 0.63403 0.90515 0.0
O320 O 0.37928 0.58009 0.89778 0.0
Mg321 Mg 0.35809 0.56723 0.85499 0.0
C322 C 0.39581 0.60549 0.91291 0.0
C323 C 0.40633 0.72402 0.87583 0.0
O324 O 0.397 0.71727 0.85049 0.0
O325 O 0.34195 0.63515 0.87602 0.0
O326 O 0.3205 0.58216 0.86594 0.0
O327 O 0.44196 0.66138 0.84955 0.0
O328 O 0.39355 0.61706 0.8443 0.0
C329 C 0.31746 0.60637 0.87336 0.0
C330 C 0.42437 0.63179 0.84006 0.0
O331 O 0.40919 0.70309 0.88918 0.0
Mg332 Mg 0.74966 0.39856 0.06893 0.0
O333 O 0.78371 0.40726 0.10605 0.0
O334 O 0.81827 0.39067 0.0929 0.0
Mg335 Mg 0.81097 0.37779 0.04809 0.0
C336 C 0.80728 0.40179 0.11085 0.0
C337 C 0.68449 0.39163 0.07875 0.0
O338 O 0.68333 0.38131 0.05401 0.0
O339 O 0.7245 0.34355 0.07174 0.0
O340 O 0.76115 0.33228 0.05454 0.0
O341 O 0.78145 0.44926 0.05549 0.0
O342 O 0.7875 0.40737 0.04448 0.0
C343 C 0.73282 0.3232 0.06347 0.0
C344 C 0.79745 0.43784 0.04297 0.0
O345 O 0.71051 0.40072 0.09297 0.0
Mg346 Mg 0.37201 0.76264 0.23406 0.0
O347 O 0.39932 0.79589 0.2709 0.0
O348 O 0.45204 0.82453 0.26083 0.0
Mg349 Mg 0.45765 0.81364 0.21727 0.0
C350 C 0.42916 0.81677 0.27715 0.0
C351 C 0.31432 0.69928 0.25181 0.0
O352 O 0.32629 0.68953 0.23264 0.0
O353 O 0.39516 0.73136 0.24136 0.0
O354 O 0.4453 0.76167 0.22615 0.0
O355 O 0.36141 0.79999 0.2175 0.0
O356 O 0.40536 0.79654 0.20939 0.0
C357 C 0.42284 0.73506 0.23509 0.0
C358 C 0.38906 0.8113 0.20589 0.0
O359 O 0.32822 0.72946 0.25815 0.0
H360 H 0.17927 0.58319 0.28556 0.0
H361 H 0.1742 0.66235 0.3244 0.0
H362 H 0.22952 0.7007 0.31102 0.0
H363 H 0.27762 0.71219 0.28557 0.0
H364 H 0.28205 0.6332 0.2455 0.0
H365 H 0.22894 0.59432 0.26235 0.0
C366 C 0.19056 0.60876 0.29144 0.0
C367 C 0.1727 0.62001 0.30575 0.0
C368 C 0.22215 0.63072 0.28333 0.0
C369 C 0.1874 0.65323 0.31307 0.0
C370 C 0.21901 0.67514 0.30547 0.0
C371 C 0.26714 0.68645 0.28075 0.0
C372 C 0.28366 0.67568 0.26412 0.0
C373 C 0.23635 0.66425 0.29014 0.0
C374 C 0.26973 0.6422 0.25809 0.0
C375 C 0.23934 0.61991 0.26771 0.0
H376 H 0.5978 0.17792 0.44374 0.0
H377 H 0.51303 0.17849 0.47344 0.0
H378 H 0.52933 0.22995 0.45229 0.0
H379 H 0.56587 0.27292 0.42327 0.0
H380 H 0.65004 0.27169 0.39265 0.0
H381 H 0.63593 0.22247 0.41649 0.0
C382 C 0.58325 0.18965 0.44596 0.0
C383 C 0.55426 0.17449 0.46005 0.0
C384 C 0.5925 0.21892 0.43343 0.0
C385 C 0.53532 0.18964 0.46247 0.0
C386 C 0.54462 0.21902 0.45041 0.0
C387 C 0.58126 0.26202 0.42191 0.0
C388 C 0.60882 0.27584 0.40603 0.0
C389 C 0.57285 0.23356 0.43545 0.0
C390 C 0.62855 0.26145 0.4046 0.0
C391 C 0.62053 0.2333 0.41823 0.0
H392 H 0.37782 0.5358 0.58409 0.0
H393 H 0.43973 0.62081 0.63473 0.0
H394 H 0.40036 0.63933 0.62946 0.0
H395 H 0.34583 0.62878 0.61446 0.0
H396 H 0.28062 0.53996 0.56976 0.0
H397 H 0.3235 0.52521 0.56913 0.0
C398 C 0.38271 0.55821 0.5943 0.0
C399 C 0.41185 0.57661 0.60999 0.0
C400 C 0.35917 0.56797 0.59235 0.0
C401 C 0.41792 0.60618 0.62221 0.0
C402 C 0.39519 0.61672 0.61945 0.0
C403 C 0.34131 0.60651 0.60416 0.0
C404 C 0.31035 0.58557 0.59195 0.0
C405 C 0.36547 0.59749 0.60503 0.0
C406 C 0.30438 0.55644 0.57917 0.0
C407 C 0.32883 0.548 0.57891 0.0
H408 H 0.82388 0.43478 0.78612 0.0
H409 H 0.86903 0.37615 0.79872 0.0
H410 H 0.81888 0.32771 0.78278 0.0
H411 H 0.76087 0.30121 0.7696 0.0
H412 H 0.71493 0.35908 0.75689 0.0
H413 H 0.76705 0.40863 0.76749 0.0
C414 C 0.8229 0.41149 0.78496 0.0
C415 C 0.84992 0.40901 0.79429 0.0
C416 C 0.79389 0.38356 0.77564 0.0
C417 C 0.84826 0.37863 0.79252 0.0
C418 C 0.81967 0.35091 0.78317 0.0
C419 C 0.7623 0.32467 0.76869 0.0
C420 C 0.73387 0.32631 0.76287 0.0
C421 C 0.79209 0.35296 0.77538 0.0
C422 C 0.73637 0.357 0.76141 0.0
C423 C 0.76614 0.38539 0.7677 0.0
H424 H 0.43147 0.86331 0.91105 0.0
H425 H 0.43831 0.82968 0.98879 0.0
H426 H 0.42777 0.77789 0.96862 0.0
H427 H 0.41727 0.74233 0.92876 0.0
H428 H 0.40933 0.7759 0.85121 0.0
H429 H 0.41931 0.8273 0.87151 0.0
C430 C 0.43015 0.84449 0.92365 0.0
C431 C 0.43571 0.85046 0.95141 0.0
C432 C 0.42402 0.81474 0.91194 0.0
C433 C 0.4345 0.82592 0.96734 0.0
C434 C 0.42837 0.79624 0.95583 0.0
C435 C 0.41778 0.76091 0.9163 0.0
C436 C 0.41268 0.75524 0.88848 0.0
C437 C 0.42334 0.79046 0.92812 0.0
C438 C 0.41319 0.77954 0.87267 0.0
C439 C 0.41889 0.809 0.88425 0.0
H440 H 0.58617 0.42641 0.13369 0.0
H441 H 0.54612 0.40834 0.05298 0.0
H442 H 0.58474 0.39101 0.03941 0.0
H443 H 0.6325 0.38545 0.04971 0.0
H444 H 0.6757 0.40732 0.12965 0.0
H445 H 0.63312 0.41855 0.14446 0.0
C446 C 0.58565 0.41808 0.11328 0.0
C447 C 0.56342 0.41839 0.0943 0.0
C448 C 0.60862 0.4092 0.1055 0.0
C449 C 0.5631 0.40815 0.06781 0.0
C450 C 0.58519 0.39838 0.06009 0.0
C451 C 0.63248 0.39233 0.07046 0.0
C452 C 0.65734 0.39569 0.08853 0.0
C453 C 0.60849 0.39949 0.07863 0.0
C454 C 0.65692 0.40472 0.11532 0.0
C455 C 0.6326 0.41115 0.12378 0.0
H456 H 0.35581 0.85089 0.5352 0.0
H457 H 0.43797 0.83474 0.54175 0.0
H458 H 0.40187 0.77975 0.55646 0.0
H459 H 0.34696 0.73642 0.5676 0.0
H460 H 0.26486 0.75256 0.55936 0.0
H461 H 0.30097 0.80717 0.54435 0.0
C462 C 0.36584 0.83524 0.5394 0.0
C463 C 0.3996 0.84699 0.53728 0.0
C464 C 0.34493 0.80358 0.54739 0.0
C465 C 0.41218 0.82652 0.54352 0.0
C466 C 0.39151 0.79498 0.55174 0.0
C467 C 0.33692 0.75181 0.56238 0.0
C468 C 0.30325 0.74042 0.5647 0.0
C469 C 0.35785 0.78328 0.55378 0.0
C470 C 0.29066 0.76067 0.55779 0.0
C471 C 0.3113 0.79196 0.54927 0.0
H472 H 0.52189 0.36298 0.67305 0.0
H473 H 0.62482 0.43459 0.67377 0.0
H474 H 0.6383 0.39575 0.69302 0.0
H475 H 0.62073 0.34226 0.71116 0.0
H476 H 0.51775 0.2706 0.71031 0.0
H477 H 0.50452 0.30852 0.689 0.0
C478 C 0.54732 0.36995 0.67698 0.0
C479 C 0.5723 0.40172 0.67203 0.0
C480 C 0.5549 0.34751 0.68802 0.0
C481 C 0.60508 0.41046 0.67772 0.0
C482 C 0.61282 0.38822 0.6886 0.0
C483 C 0.59538 0.33479 0.70616 0.0
C484 C 0.57027 0.30364 0.71249 0.0
C485 C 0.5879 0.3568 0.69411 0.0
C486 C 0.53759 0.29442 0.70576 0.0
C487 C 0.52997 0.31613 0.69361 0.0
H488 H 0.16667 0.55464 0.8768 0.0
H489 H 0.19845 0.6556 0.86482 0.0
H490 H 0.25572 0.66869 0.86793 0.0
H491 H 0.29647 0.65052 0.87154 0.0
H492 H 0.26315 0.54905 0.88308 0.0
H493 H 0.20671 0.53733 0.88351 0.0
C494 C 0.18605 0.57969 0.8755 0.0
C495 C 0.17823 0.60411 0.8707 0.0
C496 C 0.21868 0.58695 0.87726 0.0
C497 C 0.20377 0.63627 0.86829 0.0
C498 C 0.23651 0.64378 0.87019 0.0
C499 C 0.27688 0.62597 0.87458 0.0
C500 C 0.28402 0.60067 0.8771 0.0
C501 C 0.24424 0.6192 0.87432 0.0
C502 C 0.25834 0.56893 0.88086 0.0
C503 C 0.22603 0.56216 0.88107 0.0
H504 H 0.64554 0.17366 0.03529 0.0
H505 H 0.56824 0.19625 0.04454 0.0
H506 H 0.60879 0.25248 0.05757 0.0
H507 H 0.66639 0.2956 0.06485 0.0
H508 H 0.74316 0.27211 0.05573 0.0
H509 H 0.70238 0.2155 0.04511 0.0
C510 C 0.6374 0.19066 0.04058 0.0
C511 C 0.6038 0.18062 0.0389 0.0
C512 C 0.66075 0.22276 0.04832 0.0
C513 C 0.59393 0.20335 0.04526 0.0
C514 C 0.61709 0.23546 0.05294 0.0
C515 C 0.67421 0.278 0.061 0.0
C516 C 0.70786 0.28819 0.06105 0.0
C517 C 0.65061 0.24548 0.05439 0.0
C518 C 0.71748 0.26504 0.05576 0.0
C519 C 0.69417 0.23265 0.04956 0.0
H520 H 0.40808 0.59983 0.20492 0.0
H521 H 0.50859 0.66182 0.18426 0.0
H522 H 0.50805 0.70893 0.20375 0.0
H523 H 0.47752 0.73319 0.22238 0.0
H524 H 0.37693 0.67155 0.24306 0.0
H525 H 0.37965 0.62351 0.229 0.0
C526 C 0.43006 0.62352 0.20511 0.0
C527 C 0.45806 0.62735 0.19254 0.0
C528 C 0.42969 0.65059 0.21652 0.0
C529 C 0.48633 0.6583 0.193 0.0
C530 C 0.48618 0.68525 0.20438 0.0
C531 C 0.45632 0.70925 0.22432 0.0
C532 C 0.4269 0.70612 0.23328 0.0
C533 C 0.45774 0.68179 0.21555 0.0
C534 C 0.39987 0.6748 0.23602 0.0
C535 C 0.40129 0.64727 0.22776 0.0
H536 H 0.82418 0.42381 0.37593 0.0
H537 H 0.85584 0.5262 0.37696 0.0
H538 H 0.79989 0.5141 0.38362 0.0
H539 H 0.74139 0.47431 0.38369 0.0
H540 H 0.70946 0.37184 0.38289 0.0
H541 H 0.76626 0.38423 0.38251 0.0
C542 C 0.81898 0.44351 0.37827 0.0
C543 C 0.84399 0.47579 0.37534 0.0
C544 C 0.7867 0.4364 0.38203 0.0
C545 C 0.83683 0.50106 0.3784 0.0
C546 C 0.80488 0.49419 0.38232 0.0
C547 C 0.74685 0.45467 0.38385 0.0
C548 C 0.72119 0.42222 0.38278 0.0
C549 C 0.77948 0.46191 0.38325 0.0
C550 C 0.72872 0.39708 0.38351 0.0
C551 C 0.76121 0.40412 0.38313 0.0
H552 H 0.12857 0.60064 0.4553 0.0
H553 H 0.1069 0.50104 0.44679 0.0
H554 H 0.13907 0.50804 0.48755 0.0
H555 H 0.17204 0.54176 0.52649 0.0
H556 H 0.19749 0.64242 0.53325 0.0
H557 H 0.16599 0.63586 0.49185 0.0
C558 C 0.1313 0.58056 0.46195 0.0
C559 C 0.11463 0.55015 0.44798 0.0
C560 C 0.15065 0.58493 0.48514 0.0
C561 C 0.11845 0.52447 0.45738 0.0
C562 C 0.13716 0.5285 0.48063 0.0
C563 C 0.17082 0.5623 0.51882 0.0
C564 C 0.18682 0.59244 0.53306 0.0
C565 C 0.15302 0.55848 0.49486 0.0
C566 C 0.18542 0.61896 0.52267 0.0
C567 C 0.16729 0.61518 0.49905 0.0
H568 H 0.58163 0.09994 0.6315 0.0
H569 H 0.55408 0.16379 0.59327 0.0
H570 H 0.57519 0.20115 0.63223 0.0
H571 H 0.60079 0.21538 0.67767 0.0
H572 H 0.6312 0.15268 0.71407 0.0
H573 H 0.61063 0.11595 0.67491 0.0
C574 C 0.58074 0.12229 0.63129 0.0
C575 C 0.56597 0.12869 0.60932 0.0
C576 C 0.59365 0.14412 0.65348 0.0
C577 C 0.56459 0.15764 0.61 0.0
C578 C 0.57695 0.17927 0.63223 0.0
C579 C 0.60311 0.1938 0.67696 0.0
C580 C 0.61745 0.18687 0.69894 0.0
C581 C 0.59135 0.17265 0.65419 0.0
C582 C 0.62039 0.15882 0.69753 0.0
C583 C 0.60849 0.13762 0.67514 0.0
H584 H 0.45274 0.54318 0.76347 0.0
H585 H 0.52743 0.63675 0.73828 0.0
H586 H 0.51442 0.66373 0.7741 0.0
H587 H 0.47798 0.66078 0.80982 0.0
H588 H 0.40204 0.56688 0.83327 0.0
H589 H 0.41929 0.54007 0.80099 0.0
C590 C 0.46619 0.56948 0.76582 0.0
C591 C 0.49072 0.58792 0.74803 0.0
C592 C 0.45821 0.58481 0.7861 0.0
C593 C 0.50848 0.62196 0.75175 0.0
C594 C 0.50092 0.63742 0.77214 0.0
C595 C 0.46563 0.63445 0.80817 0.0
C596 C 0.43843 0.61587 0.82368 0.0
C597 C 0.47535 0.61911 0.78909 0.0
C598 C 0.42258 0.58179 0.82126 0.0
C599 C 0.4325 0.56639 0.8028 0.0
H600 H 0.87875 0.50741 0.94501 0.0
H601 H 0.94083 0.47248 0.97748 0.0
H602 H 0.90577 0.45141 0.01508 0.0
H603 H 0.85494 0.43908 0.03715 0.0
H604 H 0.79743 0.48023 0.00802 0.0
H605 H 0.8344 0.50418 0.97136 0.0
C606 C 0.88547 0.49609 0.96051 0.0
C607 C 0.91208 0.49074 0.9575 0.0
C608 C 0.8661 0.4853 0.98292 0.0
C609 C 0.91972 0.4757 0.97818 0.0
C610 C 0.89991 0.46396 1.00007 0.0
C611 C 0.851 0.45386 0.02303 0.0
C612 C 0.82353 0.45774 0.02496 0.0
C613 C 0.87259 0.46792 0.0023 0.0
C614 C 0.81864 0.47715 0.00688 0.0
C615 C 0.83957 0.49056 0.98582 0.0
H616 H 0.41076 0.91363 0.1195 0.0
H617 H 0.49725 0.90618 0.1084 0.0
H618 H 0.48353 0.87032 0.14582 0.0
H619 H 0.4453 0.83835 0.1793 0.0
H620 H 0.35816 0.84457 0.1907 0.0
H621 H 0.37392 0.88393 0.15554 0.0
C622 C 0.42653 0.9041 0.12534 0.0
C623 C 0.45484 0.91231 0.11117 0.0
C624 C 0.41844 0.88341 0.14684 0.0
C625 C 0.47543 0.90031 0.11912 0.0
C626 C 0.46754 0.87974 0.14043 0.0
C627 C 0.42995 0.84865 0.17451 0.0
C628 C 0.40055 0.83845 0.18759 0.0
C629 C 0.43892 0.87082 0.15416 0.0
C630 C 0.38094 0.85203 0.18094 0.0
C631 C 0.38984 0.87439 0.16075 0.0
H632 H 0.49732 0.40409 0.24852 0.0
H633 H 0.58982 0.49337 0.24459 0.0
H634 H 0.61286 0.47642 0.28053 0.0
H635 H 0.60764 0.4355 0.31142 0.0
H636 H 0.51509 0.34681 0.3169 0.0
H637 H 0.4909 0.36471 0.28226 0.0
C638 C 0.52235 0.42009 0.25579 0.0
C639 C 0.5419 0.4498 0.24357 0.0
C640 C 0.53541 0.41038 0.27674 0.0
C641 C 0.57442 0.47004 0.25313 0.0
C642 C 0.58757 0.4605 0.27384 0.0
C643 C 0.58204 0.42022 0.30544 0.0
C644 C 0.56323 0.38986 0.31679 0.0
C645 C 0.56842 0.43058 0.28554 0.0
C646 C 0.53012 0.37034 0.30853 0.0
C647 C 0.51632 0.3805 0.28865 0.0
H648 H 0.48992 0.90547 0.38182 0.0
H649 H 0.39069 0.88616 0.38697 0.0
H650 H 0.37429 0.85017 0.34703 0.0
H651 H 0.38877 0.82601 0.30958 0.0
H652 H 0.4887 0.84742 0.30365 0.0
H653 H 0.50408 0.88031 0.34515 0.0
C654 C 0.46463 0.89306 0.37436 0.0
C655 C 0.44156 0.89846 0.3873 0.0
C656 C 0.4555 0.87276 0.35126 0.0
C657 C 0.40897 0.88262 0.37719 0.0
C658 C 0.39956 0.86195 0.35444 0.0
C659 C 0.41381 0.83753 0.31756 0.0
C660 C 0.43753 0.83423 0.30353 0.0
C661 C 0.42269 0.85707 0.34115 0.0
C662 C 0.46998 0.84966 0.31398 0.0
C663 C 0.47882 0.86851 0.33771 0.0
H664 H 0.56601 0.42284 0.52672 0.0
H665 H 0.55208 0.49795 0.49323 0.0
H666 H 0.56916 0.48847 0.44985 0.0
H667 H 0.58824 0.45895 0.42162 0.0
H668 H 0.59879 0.38127 0.45413 0.0
H669 H 0.58273 0.39141 0.4977 0.0
C670 C 0.56678 0.43703 0.50984 0.0
C671 C 0.55801 0.46109 0.51296 0.0
C672 C 0.57595 0.43095 0.48488 0.0
C673 C 0.55869 0.47924 0.49107 0.0
C674 C 0.56849 0.47387 0.46637 0.0
C675 C 0.58707 0.44429 0.43826 0.0
C676 C 0.59489 0.41957 0.43474 0.0
C677 C 0.57722 0.44983 0.46305 0.0
C678 C 0.59281 0.40042 0.45636 0.0
C679 C 0.58373 0.40626 0.48128 0.0
H680 H 0.1074 0.60896 0.71805 0.0
H681 H 0.10937 0.5202 0.72974 0.0
H682 H 0.14637 0.53257 0.69308 0.0
H683 H 0.18088 0.57034 0.65965 0.0
H684 H 0.17771 0.65842 0.64757 0.0
H685 H 0.1375 0.64387 0.68188 0.0
C686 C 0.1153 0.5919 0.71229 0.0
C687 C 0.10582 0.56385 0.72691 0.0
C688 C 0.1363 0.59898 0.69104 0.0
C689 C 0.11682 0.54236 0.71928 0.0
C690 C 0.1378 0.54928 0.69817 0.0
C691 C 0.17101 0.5861 0.6642 0.0
C692 C 0.1825 0.61554 0.65121 0.0
C693 C 0.14814 0.5778 0.6842 0.0
C694 C 0.16941 0.63567 0.65735 0.0
C695 C 0.1465 0.62746 0.67706 0.0
H696 H 0.56597 0.10753 0.87484 0.0
H697 H 0.48909 0.12754 0.89454 0.0
H698 H 0.50262 0.16348 0.85703 0.0
H699 H 0.53954 0.19283 0.82095 0.0
H700 H 0.61747 0.17386 0.8028 0.0
H701 H 0.60036 0.13398 0.83729 0.0
C702 C 0.55222 0.11982 0.87096 0.0
C703 C 0.52684 0.11519 0.88762 0.0
C704 C 0.56041 0.14073 0.84966 0.0
C705 C 0.50871 0.13065 0.88196 0.0
C706 C 0.51652 0.15131 0.86058 0.0
C707 C 0.55235 0.1795 0.82428 0.0
C708 C 0.58004 0.18662 0.80965 0.0
C709 C 0.5427 0.15696 0.84457 0.0
C710 C 0.59656 0.16936 0.81418 0.0
C711 C 0.58672 0.14645 0.83387 0.0
H712 H 0.46213 0.60379 0.02333 0.0
H713 H 0.377 0.50791 0.02276 0.0
H714 H 0.35692 0.51787 0.98071 0.0
H715 H 0.36511 0.55256 0.94291 0.0
H716 H 0.44908 0.64927 0.94381 0.0
H717 H 0.46803 0.64039 0.98699 0.0
C718 C 0.4391 0.58523 0.01401 0.0
C719 C 0.42111 0.55512 0.02599 0.0
C720 C 0.4276 0.59122 0.98989 0.0
C721 C 0.39113 0.53134 0.01397 0.0
C722 C 0.37975 0.53695 0.98986 0.0
C723 C 0.3875 0.57176 0.95261 0.0
C724 C 0.40587 0.60138 0.94004 0.0
C725 C 0.39802 0.5666 0.97747 0.0
C726 C 0.43451 0.62623 0.95306 0.0
C727 C 0.44542 0.62112 0.97769 0.0
H728 H 0.8928 0.42421 0.21614 0.0
H729 H 0.88196 0.50883 0.22382 0.0
H730 H 0.84572 0.49089 0.1837 0.0
H731 H 0.81917 0.45224 0.1451 0.0
H732 H 0.83348 0.36976 0.1362 0.0
H733 H 0.86575 0.38536 0.17823 0.0
C734 C 0.88218 0.4385 0.20917 0.0
C735 C 0.88998 0.46776 0.22292 0.0
C736 C 0.86192 0.42835 0.18586 0.0
C737 C 0.87648 0.48633 0.21345 0.0
C738 C 0.85569 0.47602 0.19058 0.0
C739 C 0.82896 0.43748 0.15262 0.0
C740 C 0.82382 0.40981 0.13765 0.0
C741 C 0.84847 0.44721 0.17644 0.0
C742 C 0.83714 0.39119 0.14737 0.0
C743 C 0.85565 0.40012 0.17137 0.0
loop_
_geom_bond_atom_site_label_1
_geom_bond_atom_site_label_2
_geom_bond_distance
_geom_bond_site_symmetry_2
_ccdc_geom_bond_type
C0 C1 1.384 . S
C0 C2 1.384 . S
C0 H28 0.931 . S
C1 C0 1.384 . S
C1 C4 1.382 . S
C2 C0 1.384 . S
C2 C3 1.381 . S
C2 H29 0.930 . S
C3 C2 1.381 . S
C3 C5 1.381 . S
C3 C6 1.487 . S
C4 C1 1.382 . S
C4 C5 1.387 . S
C4 H30 0.930 . S
C5 C3 1.381 . S
C5 C4 1.387 . S
C5 H31 0.931 . S
C6 C3 1.487 . S
C6 C13 1.399 . S
C6 N44 1.343 . S
C7 C8 1.384 . S
C7 C9 1.384 . S
C7 H32 0.931 . S
C8 C7 1.384 . S
C8 C11 1.382 . S
C9 C7 1.384 . S
C9 C10 1.381 . S
C9 H33 0.930 . S
C10 C9 1.381 . S
C10 C12 1.381 . S
C10 C13 1.487 . S
C11 C8 1.382 . S
C11 C12 1.387 . S
C11 H34 0.930 . S
C12 C10 1.381 . S
C12 C11 1.387 . S
C12 H35 0.931 . S
C13 C6 1.399 . S
C13 C10 1.487 . S
C13 N45 1.343 1_655 S
C14 C15 1.384 . S
C14 C16 1.384 . S
C14 H36 0.931 . S
C15 C14 1.384 . S
C15 C18 1.382 . S
C16 C14 1.384 . S
C16 C17 1.381 . S
C16 H37 0.930 . S
C17 C16 1.381 . S
C17 C19 1.381 . S
C17 C20 1.487 . S
C18 C15 1.382 . S
C18 C19 1.387 . S
C18 H38 0.930 . S
C19 C17 1.381 . S
C19 C18 1.387 . S
C19 H39 0.931 . S
C20 C17 1.487 . S
C20 C27 1.399 . S
C20 N45 1.343 . S
C21 C22 1.384 . S
C21 C23 1.384 . S
C21 H40 0.931 . S
C22 C21 1.384 . S
C22 C25 1.382 . S
C23 C21 1.384 . S
C23 C24 1.381 . S
C23 H41 0.930 . S
C24 C23 1.381 . S
C24 C26 1.381 . S
C24 C27 1.487 . S
C25 C22 1.382 . S
C25 C26 1.387 . S
C25 H42 0.930 . S
C26 C24 1.381 . S
C26 C25 1.387 . S
C26 H43 0.931 . S
C27 C20 1.399 . S
C27 C24 1.487 . S
C27 N44 1.343 1_455 S
H28 C0 0.931 . S
H29 C2 0.930 . S
H30 C4 0.930 . S
H31 C5 0.931 . S
H32 C7 0.931 . S
H33 C9 0.930 . S
H34 C11 0.930 . S
H35 C12 0.931 . S
H36 C14 0.931 . S
H37 C16 0.930 . S
H38 C18 0.930 . S
H39 C19 0.931 . S
H40 C21 0.931 . S
H41 C23 0.930 . S
H42 C25 0.930 . S
H43 C26 0.931 . S
N44 C6 1.343 . S
N44 C27 1.343 1_655 S
N45 C13 1.343 1_455 S
N45 C20 1.343 . S
C46 C47 1.384 . S
C46 C48 1.384 . S
C46 H74 0.931 . S
C47 C46 1.384 . S
C47 C50 1.382 . S
C48 C46 1.384 . S
C48 C49 1.381 . S
C48 H75 0.930 . S
C49 C48 1.381 . S
C49 C51 1.381 . S
C49 C52 1.487 . S
C50 C47 1.382 . S
C50 C51 1.387 . S
C50 H76 0.930 . S
C51 C49 1.381 . S
C51 C50 1.387 . S
C51 H77 0.931 . S
C52 C49 1.487 . S
C52 C59 1.399 . S
C52 N90 1.343 1_565 S
C53 C54 1.384 . S
C53 C55 1.384 . S
C53 H78 0.931 . S
C54 C53 1.384 . S
C54 C57 1.382 . S
C55 C53 1.384 . S
C55 C56 1.381 . S
C55 H79 0.930 . S
C56 C55 1.381 . S
C56 C58 1.381 . S
C56 C59 1.487 . S
C57 C54 1.382 . S
C57 C58 1.387 . S
C57 H80 0.930 . S
C58 C56 1.381 . S
C58 C57 1.387 . S
C58 H81 0.931 . S
C59 C52 1.399 . S
C59 C56 1.487 . S
C59 N91 1.343 1_565 S
C60 C61 1.384 . S
C60 C62 1.384 . S
C60 H82 0.931 . S
C61 C60 1.384 . S
C61 C64 1.382 . S
C62 C60 1.384 . S
C62 C63 1.381 . S
C62 H83 0.930 . S
C63 C62 1.381 . S
C63 C65 1.381 . S
C63 C66 1.487 . S
C64 C61 1.382 . S
C64 C65 1.387 . S
C64 H84 0.930 . S
C65 C63 1.381 . S
C65 C64 1.387 . S
C65 H85 0.931 . S
C66 C63 1.487 . S
C66 C73 1.399 . S
C66 N91 1.343 . S
C67 C68 1.384 . S
C67 C69 1.384 . S
C67 H86 0.931 . S
C68 C67 1.384 . S
C68 C71 1.382 . S
C69 C67 1.384 . S
C69 C70 1.381 . S
C69 H87 0.930 . S
C70 C69 1.381 . S
C70 C72 1.381 . S
C70 C73 1.487 . S
C71 C68 1.382 . S
C71 C72 1.387 . S
C71 H88 0.930 . S
C72 C70 1.381 . S
C72 C71 1.387 . S
C72 H89 0.931 . S
C73 C66 1.399 . S
C73 C70 1.487 . S
C73 N90 1.343 . S
H74 C46 0.931 . S
H75 C48 0.930 . S
H76 C50 0.930 . S
H77 C51 0.931 . S
H78 C53 0.931 . S
H79 C55 0.930 . S
H80 C57 0.930 . S
H81 C58 0.931 . S
H82 C60 0.931 . S
H83 C62 0.930 . S
H84 C64 0.930 . S
H85 C65 0.931 . S
H86 C67 0.931 . S
H87 C69 0.930 . S
H88 C71 0.930 . S
H89 C72 0.931 . S
N90 C52 1.343 1_545 S
N90 C73 1.343 . S
N91 C59 1.343 1_545 S
N91 C66 1.343 . S
C92 C93 1.384 . S
C92 C94 1.384 . S
C92 H120 0.931 . S
C93 C92 1.384 . S
C93 C96 1.382 . S
C94 C92 1.384 . S
C94 C95 1.381 . S
C94 H121 0.930 . S
C95 C94 1.381 . S
C95 C97 1.381 . S
C95 C98 1.487 . S
C96 C93 1.382 . S
C96 C97 1.387 . S
C96 H122 0.930 . S
C97 C95 1.381 . S
C97 C96 1.387 . S
C97 H123 0.931 . S
C98 C95 1.487 . S
C98 C105 1.399 . S
C98 N136 1.343 . S
C99 C100 1.384 . S
C99 C101 1.384 . S
C99 H124 0.931 . S
C100 C99 1.384 . S
C100 C103 1.382 . S
C101 C99 1.384 . S
C101 C102 1.381 . S
C101 H125 0.930 . S
C102 C101 1.381 . S
C102 C104 1.381 . S
C102 C105 1.487 . S
C103 C100 1.382 . S
C103 C104 1.387 . S
C103 H126 0.930 . S
C104 C102 1.381 . S
C104 C103 1.387 . S
C104 H127 0.931 . S
C105 C98 1.399 . S
C105 C102 1.487 . S
C105 N137 1.343 . S
C106 C107 1.384 . S
C106 C108 1.384 . S
C106 H128 0.931 . S
C107 C106 1.384 . S
C107 C110 1.382 . S
C108 C106 1.384 . S
C108 C109 1.381 . S
C108 H129 0.930 . S
C109 C108 1.381 . S
C109 C111 1.381 . S
C109 C112 1.487 . S
C110 C107 1.382 . S
C110 C111 1.387 . S
C110 H130 0.930 . S
C111 C109 1.381 . S
C111 C110 1.387 . S
C111 H131 0.931 . S
C112 C109 1.487 . S
C112 C119 1.399 . S
C112 N137 1.343 . S
C113 C114 1.384 . S
C113 C115 1.384 . S
C113 H132 0.931 . S
C114 C113 1.384 . S
C114 C117 1.382 . S
C115 C113 1.384 . S
C115 C116 1.381 . S
C115 H133 0.930 . S
C116 C115 1.381 . S
C116 C118 1.381 . S
C116 C119 1.487 . S
C117 C114 1.382 . S
C117 C118 1.387 . S
C117 H134 0.930 . S
C118 C116 1.381 . S
C118 C117 1.387 . S
C118 H135 0.931 . S
C119 C112 1.399 . S
C119 C116 1.487 . S
C119 N136 1.343 . S
H120 C92 0.931 . S
H121 C94 0.930 . S
H122 C96 0.930 . S
H123 C97 0.931 . S
H124 C99 0.931 . S
H125 C101 0.930 . S
H126 C103 0.930 . S
H127 C104 0.931 . S
H128 C106 0.931 . S
H129 C108 0.930 . S
H130 C110 0.930 . S
H131 C111 0.931 . S
H132 C113 0.931 . S
H133 C115 0.930 . S
H134 C117 0.930 . S
H135 C118 0.931 . S
N136 C98 1.343 . S
N136 C119 1.343 . S
N137 C105 1.343 . S
N137 C112 1.343 . S
C138 C139 1.384 . S
C138 C140 1.384 . S
C138 H166 0.931 . S
C139 C138 1.384 . S
C139 C142 1.382 . S
C140 C138 1.384 . S
C140 C141 1.381 . S
C140 H167 0.930 . S
C141 C140 1.381 . S
C141 C143 1.381 . S
C141 C144 1.487 . S
C142 C139 1.382 . S
C142 C143 1.387 . S
C142 H168 0.930 . S
C143 C141 1.381 . S
C143 C142 1.387 . S
C143 H169 0.931 . S
C144 C141 1.487 . S
C144 C151 1.399 . S
C144 N182 1.343 . S
C145 C146 1.384 . S
C145 C147 1.384 . S
C145 H170 0.931 . S
C146 C145 1.384 . S
C146 C149 1.382 . S
C147 C145 1.384 . S
C147 C148 1.381 . S
C147 H171 0.930 . S
C148 C147 1.381 . S
C148 C150 1.381 . S
C148 C151 1.487 . S
C149 C146 1.382 . S
C149 C150 1.387 . S
C149 H172 0.930 . S
C150 C148 1.381 . S
C150 C149 1.387 . S
C150 H173 0.931 . S
C151 C144 1.399 . S
C151 C148 1.487 . S
C151 N183 1.343 1_655 S
C152 C153 1.384 . S
C152 C154 1.384 . S
C152 H174 0.931 . S
C153 C152 1.384 . S
C153 C156 1.382 . S
C154 C152 1.384 . S
C154 C155 1.381 . S
C154 H175 0.930 . S
C155 C154 1.381 . S
C155 C157 1.381 . S
C155 C158 1.487 . S
C156 C153 1.382 . S
C156 C157 1.387 . S
C156 H176 0.930 . S
C157 C155 1.381 . S
C157 C156 1.387 . S
C157 H177 0.931 . S
C158 C155 1.487 . S
C158 C165 1.399 . S
C158 N183 1.343 . S
C159 C160 1.384 . S
C159 C161 1.384 . S
C159 H178 0.931 . S
C160 C159 1.384 . S
C160 C163 1.382 . S
C161 C159 1.384 . S
C161 C162 1.381 . S
C161 H179 0.930 . S
C162 C161 1.381 . S
C162 C164 1.381 . S
C162 C165 1.487 . S
C163 C160 1.382 . S
C163 C164 1.387 . S
C163 H180 0.930 . S
C164 C162 1.381 . S
C164 C163 1.387 . S
C164 H181 0.931 . S
C165 C158 1.399 . S
C165 C162 1.487 . S
C165 N182 1.343 1_455 S
H166 C138 0.931 . S
H167 C140 0.930 . S
H168 C142 0.930 . S
H169 C143 0.931 . S
H170 C145 0.931 . S
H171 C147 0.930 . S
H172 C149 0.930 . S
H173 C150 0.931 . S
H174 C152 0.931 . S
H175 C154 0.930 . S
H176 C156 0.930 . S
H177 C157 0.931 . S
H178 C159 0.931 . S
H179 C161 0.930 . S
H180 C163 0.930 . S
H181 C164 0.931 . S
N182 C144 1.343 . S
N182 C165 1.343 1_655 S
N183 C151 1.343 1_455 S
N183 C158 1.343 . S
C184 C185 1.384 . S
C184 C186 1.384 . S
C184 H212 0.931 . S
C185 C184 1.384 . S
C185 C188 1.382 . S
C186 C184 1.384 . S
C186 C187 1.381 . S
C186 H213 0.930 1_556 S
C187 C186 1.381 . S
C187 C189 1.381 . S
C187 C190 1.487 . S
C188 C185 1.382 . S
C188 C189 1.387 . S
C188 H214 0.930 . S
C189 C187 1.381 . S
C189 C188 1.387 . S
C189 H215 0.931 . S
C190 C187 1.487 . S
C190 C197 1.399 1_556 S
C190 N228 1.343 1_565 S
C191 C192 1.384 . S
C191 C193 1.384 . S
C191 H216 0.931 . S
C192 C191 1.384 . S
C192 C195 1.382 . S
C193 C191 1.384 . S
C193 C194 1.381 . S
C193 H217 0.930 . S
C194 C193 1.381 . S
C194 C196 1.381 . S
C194 C197 1.487 . S
C195 C192 1.382 . S
C195 C196 1.387 . S
C195 H218 0.930 . S
C196 C194 1.381 . S
C196 C195 1.387 . S
C196 H219 0.933 . S
C197 C190 1.399 1_554 S
C197 C194 1.487 . S
C197 N229 1.343 1_565 S
C198 C199 1.384 . S
C198 C200 1.384 1_554 S
C198 H220 0.943 . S
C199 C198 1.384 . S
C199 C202 1.382 . S
C200 C198 1.384 1_556 S
C200 C201 1.381 1_556 S
C200 H221 0.930 . S
C201 C200 1.381 1_554 S
C201 C203 1.381 . S
C201 C204 1.487 1_554 S
C202 C199 1.382 . S
C202 C203 1.387 . S
C202 H222 0.930 . S
C203 C201 1.381 . S
C203 C202 1.387 . S
C203 H223 0.931 . S
C204 C201 1.487 1_556 S
C204 C211 1.399 . S
C204 N229 1.343 1_556 S
C205 C206 1.384 . S
C205 C207 1.384 . S
C205 H224 0.931 . S
C206 C205 1.384 . S
C206 C209 1.382 . S
C207 C205 1.384 . S
C207 C208 1.381 . S
C207 H225 0.930 . S
C208 C207 1.381 . S
C208 C210 1.381 . S
C208 C211 1.487 . S
C209 C206 1.382 . S
C209 C210 1.387 . S
C209 H226 0.930 . S
C210 C208 1.381 . S
C210 C209 1.387 . S
C210 H227 0.931 . S
C211 C204 1.399 . S
C211 C208 1.487 . S
C211 N228 1.343 . S
H212 C184 0.931 . S
H213 C186 0.930 1_554 S
H214 C188 0.930 . S
H215 C189 0.931 . S
H216 C191 0.931 . S
H217 C193 0.930 . S
H218 C195 0.930 . S
H219 C196 0.933 . S
H220 C198 0.943 . S
H221 C200 0.930 . S
H222 C202 0.930 . S
H223 C203 0.931 . S
H224 C205 0.931 . S
H225 C207 0.930 . S
H226 C209 0.930 . S
H227 C210 0.931 . S
N228 C190 1.343 1_545 S
N228 C211 1.343 . S
N229 C197 1.343 1_545 S
N229 C204 1.343 1_554 S
C230 C231 1.384 . S
C230 C232 1.384 . S
C230 H258 0.931 . S
C231 C230 1.384 . S
C231 C234 1.382 . S
C232 C230 1.384 . S
C232 C233 1.381 . S
C232 H259 0.930 . S
C233 C232 1.381 . S
C233 C235 1.381 . S
C233 C236 1.487 . S
C234 C231 1.382 . S
C234 C235 1.387 . S
C234 H260 0.930 . S
C235 C233 1.381 . S
C235 C234 1.387 . S
C235 H261 0.931 . S
C236 C233 1.487 . S
C236 C243 1.399 . S
C236 N274 1.343 . S
C237 C238 1.384 . S
C237 C239 1.384 . S
C237 H262 0.931 . S
C238 C237 1.384 . S
C238 C241 1.382 . S
C239 C237 1.384 . S
C239 C240 1.381 . S
C239 H263 0.930 . S
C240 C239 1.381 . S
C240 C242 1.381 . S
C240 C243 1.487 . S
C241 C238 1.382 . S
C241 C242 1.387 . S
C241 H264 0.930 . S
C242 C240 1.381 . S
C242 C241 1.387 . S
C242 H265 0.931 . S
C243 C236 1.399 . S
C243 C240 1.487 . S
C243 N275 1.343 . S
C244 C245 1.384 . S
C244 C246 1.384 . S
C244 H266 0.931 . S
C245 C244 1.384 . S
C245 C248 1.382 . S
C246 C244 1.384 . S
C246 C247 1.381 . S
C246 H267 0.930 . S
C247 C246 1.381 . S
C247 C249 1.381 . S
C247 C250 1.487 . S
C248 C245 1.382 . S
C248 C249 1.387 . S
C248 H268 0.930 . S
C249 C247 1.381 . S
C249 C248 1.387 . S
C249 H269 0.931 . S
C250 C247 1.487 . S
C250 C257 1.399 . S
C250 N275 1.343 . S
C251 C252 1.384 . S
C251 C253 1.384 . S
C251 H270 0.931 . S
C252 C251 1.384 . S
C252 C255 1.382 . S
C253 C251 1.384 . S
C253 C254 1.381 . S
C253 H271 0.930 . S
C254 C253 1.381 . S
C254 C256 1.381 . S
C254 C257 1.487 . S
C255 C252 1.382 . S
C255 C256 1.387 . S
C255 H272 0.930 . S
C256 C254 1.381 . S
C256 C255 1.387 . S
C256 H273 0.931 . S
C257 C250 1.399 . S
C257 C254 1.487 . S
C257 N274 1.343 . S
H258 C230 0.931 . S
H259 C232 0.930 . S
H260 C234 0.930 . S
H261 C235 0.931 . S
H262 C237 0.931 . S
H263 C239 0.930 . S
H264 C241 0.930 . S
H265 C242 0.931 . S
H266 C244 0.931 . S
H267 C246 0.930 . S
H268 C248 0.930 . S
H269 C249 0.931 . S
H270 C251 0.931 . S
H271 C253 0.930 . S
H272 C255 0.930 . S
H273 C256 0.931 . S
N274 C236 1.343 . S
N274 C257 1.343 . S
N275 C243 1.343 . S
N275 C250 1.343 . S
Mg276 O277 2.028 . S
Mg276 O283 1.986 . S
Mg276 O285 2.114 . S
Mg276 O286 2.251 . S
Mg276 O289 2.010 . S
O277 Mg276 2.028 . S
O277 C280 1.250 . S
O278 Mg279 2.028 . S
O278 C280 1.248 . S
Mg279 O278 2.028 . S
Mg279 O284 2.032 . S
Mg279 O286 2.079 . S
C280 O277 1.250 . S
C280 O278 1.248 . S
C281 O282 1.264 . S
C281 O289 1.249 . S
O282 C281 1.264 . S
O283 Mg276 1.986 . S
O283 C287 1.246 . S
O284 Mg279 2.032 . S
O284 C287 1.259 . S
O285 Mg276 2.114 . S
O285 C288 1.252 . S
O286 Mg276 2.251 . S
O286 Mg279 2.079 . S
O286 C288 1.273 . S
C287 O283 1.246 . S
C287 O284 1.259 . S
C288 O285 1.252 . S
C288 O286 1.273 . S
O289 Mg276 2.010 . S
O289 C281 1.249 . S
Mg290 O291 2.028 . S
Mg290 O297 1.986 . S
Mg290 O299 2.114 . S
Mg290 O300 2.251 . S
Mg290 O303 2.010 . S
O291 Mg290 2.028 . S
O291 C294 1.250 . S
O292 Mg293 2.028 . S
O292 C294 1.248 . S
Mg293 O292 2.028 . S
Mg293 O298 2.032 . S
Mg293 O300 2.079 . S
C294 O291 1.250 . S
C294 O292 1.248 . S
C295 O296 1.264 . S
C295 O303 1.249 . S
O296 C295 1.264 . S
O297 Mg290 1.986 . S
O297 C301 1.246 . S
O298 Mg293 2.032 . S
O298 C301 1.259 . S
O299 Mg290 2.114 . S
O299 C302 1.252 . S
O300 Mg290 2.251 . S
O300 Mg293 2.079 . S
O300 C302 1.273 . S
C301 O297 1.246 . S
C301 O298 1.259 . S
C302 O299 1.252 . S
C302 O300 1.273 . S
O303 Mg290 2.010 . S
O303 C295 1.249 . S
Mg304 O305 2.028 . S
Mg304 O311 1.986 . S
Mg304 O313 2.114 . S
Mg304 O314 2.251 . S
Mg304 O317 2.010 . S
O305 Mg304 2.028 . S
O305 C308 1.250 . S
O306 Mg307 2.028 . S
O306 C308 1.248 . S
Mg307 O306 2.028 . S
Mg307 O312 2.032 . S
Mg307 O314 2.079 . S
C308 O305 1.250 . S
C308 O306 1.248 . S
C309 O310 1.264 . S
C309 O317 1.249 . S
O310 C309 1.264 . S
O311 Mg304 1.986 . S
O311 C315 1.246 . S
O312 Mg307 2.032 . S
O312 C315 1.259 . S
O313 Mg304 2.114 . S
O313 C316 1.252 . S
O314 Mg304 2.251 . S
O314 Mg307 2.079 . S
O314 C316 1.273 . S
C315 O311 1.246 . S
C315 O312 1.259 . S
C316 O313 1.252 . S
C316 O314 1.273 . S
O317 Mg304 2.010 . S
O317 C309 1.249 . S
Mg318 O319 2.028 . S
Mg318 O325 1.986 . S
Mg318 O327 2.114 . S
Mg318 O328 2.251 . S
Mg318 O331 2.010 . S
O319 Mg318 2.028 . S
O319 C322 1.250 . S
O320 Mg321 2.028 . S
O320 C322 1.248 . S
Mg321 O320 2.028 . S
Mg321 O326 2.032 . S
Mg321 O328 2.079 . S
C322 O319 1.250 . S
C322 O320 1.248 . S
C323 O324 1.264 . S
C323 O331 1.249 . S
O324 C323 1.264 . S
O325 Mg318 1.986 . S
O325 C329 1.246 . S
O326 Mg321 2.032 . S
O326 C329 1.259 . S
O327 Mg318 2.114 . S
O327 C330 1.252 . S
O328 Mg318 2.251 . S
O328 Mg321 2.079 . S
O328 C330 1.273 . S
C329 O325 1.246 . S
C329 O326 1.259 . S
C330 O327 1.252 . S
C330 O328 1.273 . S
O331 Mg318 2.010 . S
O331 C323 1.249 . S
Mg332 O333 2.028 . S
Mg332 O339 1.986 . S
Mg332 O341 2.114 . S
Mg332 O342 2.251 . S
Mg332 O345 2.010 . S
O333 Mg332 2.028 . S
O333 C336 1.250 . S
O334 Mg335 2.028 . S
O334 C336 1.248 . S
Mg335 O334 2.028 . S
Mg335 O340 2.032 . S
Mg335 O342 2.079 . S
C336 O333 1.250 . S
C336 O334 1.248 . S
C337 O338 1.264 . S
C337 O345 1.249 . S
O338 C337 1.264 . S
O339 Mg332 1.986 . S
O339 C343 1.246 . S
O340 Mg335 2.032 . S
O340 C343 1.259 . S
O341 Mg332 2.114 . S
O341 C344 1.252 . S
O342 Mg332 2.251 . S
O342 Mg335 2.079 . S
O342 C344 1.273 . S
C343 O339 1.246 . S
C343 O340 1.259 . S
C344 O341 1.252 . S
C344 O342 1.273 . S
O345 Mg332 2.010 . S
O345 C337 1.249 . S
Mg346 O347 2.028 . S
Mg346 O353 1.986 . S
Mg346 O355 2.114 . S
Mg346 O356 2.251 . S
Mg346 O359 2.010 . S
O347 Mg346 2.028 . S
O347 C350 1.250 . S
O348 Mg349 2.028 . S
O348 C350 1.248 . S
Mg349 O348 2.028 . S
Mg349 O354 2.032 . S
Mg349 O356 2.079 . S
C350 O347 1.250 . S
C350 O348 1.248 . S
C351 O352 1.264 . S
C351 O359 1.249 . S
O352 C351 1.264 . S
O353 Mg346 1.986 . S
O353 C357 1.246 . S
O354 Mg349 2.032 . S
O354 C357 1.259 . S
O355 Mg346 2.114 . S
O355 C358 1.252 . S
O356 Mg346 2.251 . S
O356 Mg349 2.079 . S
O356 C358 1.273 . S
C357 O353 1.246 . S
C357 O354 1.259 . S
C358 O355 1.252 . S
C358 O356 1.273 . S
O359 Mg346 2.010 . S
O359 C351 1.249 . S
H360 C366 0.930 . S
H361 C369 0.930 . S
H362 C370 0.930 . S
H363 C371 0.930 . S
H364 C374 0.930 . S
H365 C375 0.930 . S
C366 H360 0.930 . S
C366 C367 1.355 . S
C366 C368 1.415 . S
C367 C366 1.355 . S
C367 C369 1.419 . S
C368 C366 1.415 . S
C368 C373 1.425 . S
C368 C375 1.409 . S
C369 H361 0.930 . S
C369 C367 1.419 . S
C369 C370 1.362 . S
C370 H362 0.930 . S
C370 C369 1.362 . S
C370 C373 1.409 . S
C371 H363 0.930 . S
C371 C372 1.355 . S
C371 C373 1.415 . S
C372 C371 1.355 . S
C372 C374 1.419 . S
C373 C368 1.425 . S
C373 C370 1.409 . S
C373 C371 1.415 . S
C374 H364 0.930 . S
C374 C372 1.419 . S
C374 C375 1.362 . S
C375 H365 0.930 . S
C375 C368 1.409 . S
C375 C374 1.362 . S
H376 C382 0.930 . S
H377 C385 0.930 . S
H378 C386 0.930 . S
H379 C387 0.930 . S
H380 C390 0.930 . S
H381 C391 0.930 . S
C382 H376 0.930 . S
C382 C383 1.355 . S
C382 C384 1.415 . S
C383 C382 1.355 . S
C383 C385 1.419 . S
C384 C382 1.415 . S
C384 C389 1.425 . S
C384 C391 1.409 . S
C385 H377 0.930 . S
C385 C383 1.419 . S
C385 C386 1.362 . S
C386 H378 0.930 . S
C386 C385 1.362 . S
C386 C389 1.409 . S
C387 H379 0.930 . S
C387 C388 1.355 . S
C387 C389 1.415 . S
C388 C387 1.355 . S
C388 C390 1.419 . S
C389 C384 1.425 . S
C389 C386 1.409 . S
C389 C387 1.415 . S
C390 H380 0.930 . S
C390 C388 1.419 . S
C390 C391 1.362 . S
C391 H381 0.930 . S
C391 C384 1.409 . S
C391 C390 1.362 . S
H392 C398 0.930 . S
H393 C401 0.930 . S
H394 C402 0.930 . S
H395 C403 0.930 . S
H396 C406 0.930 . S
H397 C407 0.930 . S
C398 H392 0.930 . S
C398 C399 1.355 . S
C398 C400 1.415 . S
C399 C398 1.355 . S
C399 C401 1.419 . S
C400 C398 1.415 . S
C400 C405 1.425 . S
C400 C407 1.409 . S
C401 H393 0.930 . S
C401 C399 1.419 . S
C401 C402 1.362 . S
C402 H394 0.930 . S
C402 C401 1.362 . S
C402 C405 1.409 . S
C403 H395 0.930 . S
C403 C404 1.355 . S
C403 C405 1.415 . S
C404 C403 1.355 . S
C404 C406 1.419 . S
C405 C400 1.425 . S
C405 C402 1.409 . S
C405 C403 1.415 . S
C406 H396 0.930 . S
C406 C404 1.419 . S
C406 C407 1.362 . S
C407 H397 0.930 . S
C407 C400 1.409 . S
C407 C406 1.362 . S
H408 C414 0.930 . S
H409 C417 0.930 . S
H410 C418 0.930 . S
H411 C419 0.930 . S
H412 C422 0.930 . S
H413 C423 0.930 . S
C414 H408 0.930 . S
C414 C415 1.355 . S
C414 C416 1.415 . S
C415 C414 1.355 . S
C415 C417 1.419 . S
C416 C414 1.415 . S
C416 C421 1.425 . S
C416 C423 1.409 . S
C417 H409 0.930 . S
C417 C415 1.419 . S
C417 C418 1.362 . S
C418 H410 0.930 . S
C418 C417 1.362 . S
C418 C421 1.409 . S
C419 H411 0.930 . S
C419 C420 1.355 . S
C419 C421 1.415 . S
C420 C419 1.355 . S
C420 C422 1.419 . S
C421 C416 1.425 . S
C421 C418 1.409 . S
C421 C419 1.415 . S
C422 H412 0.930 . S
C422 C420 1.419 . S
C422 C423 1.362 . S
C423 H413 0.930 . S
C423 C416 1.409 . S
C423 C422 1.362 . S
H424 C430 0.930 . S
H425 C433 0.930 . S
H426 C434 0.930 . S
H427 C435 0.930 . S
H428 C438 0.930 . S
H429 C439 0.930 . S
C430 H424 0.930 . S
C430 C431 1.355 . S
C430 C432 1.415 . S
C431 C430 1.355 . S
C431 C433 1.419 . S
C432 C430 1.415 . S
C432 C437 1.425 . S
C432 C439 1.409 . S
C433 H425 0.930 . S
C433 C431 1.419 . S
C433 C434 1.362 . S
C434 H426 0.930 . S
C434 C433 1.362 . S
C434 C437 1.409 . S
C435 H427 0.930 . S
C435 C436 1.355 . S
C435 C437 1.415 . S
C436 C435 1.355 . S
C436 C438 1.419 . S
C437 C432 1.425 . S
C437 C434 1.409 . S
C437 C435 1.415 . S
C438 H428 0.930 . S
C438 C436 1.419 . S
C438 C439 1.362 . S
C439 H429 0.930 . S
C439 C432 1.409 . S
C439 C438 1.362 . S
H440 C446 0.930 . S
H441 C449 0.930 . S
H442 C450 0.930 . S
H443 C451 0.930 . S
H444 C454 0.930 . S
H445 C455 0.930 . S
C446 H440 0.930 . S
C446 C447 1.355 . S
C446 C448 1.415 . S
C447 C446 1.355 . S
C447 C449 1.419 . S
C448 C446 1.415 . S
C448 C453 1.425 . S
C448 C455 1.409 . S
C449 H441 0.930 . S
C449 C447 1.419 . S
C449 C450 1.362 . S
C450 H442 0.930 . S
C450 C449 1.362 . S
C450 C453 1.409 . S
C451 H443 0.930 . S
C451 C452 1.355 . S
C451 C453 1.415 . S
C452 C451 1.355 . S
C452 C454 1.419 . S
C453 C448 1.425 . S
C453 C450 1.409 . S
C453 C451 1.415 . S
C454 H444 0.930 . S
C454 C452 1.419 . S
C454 C455 1.362 . S
C455 H445 0.930 . S
C455 C448 1.409 . S
C455 C454 1.362 . S
H456 C462 0.930 . S
H457 C465 0.930 . S
H458 C466 0.930 . S
H459 C467 0.930 . S
H460 C470 0.930 . S
H461 C471 0.930 . S
C462 H456 0.930 . S
C462 C463 1.355 . S
C462 C464 1.415 . S
C463 C462 1.355 . S
C463 C465 1.419 . S
C464 C462 1.415 . S
C464 C469 1.425 . S
C464 C471 1.409 . S
C465 H457 0.930 . S
C465 C463 1.419 . S
C465 C466 1.362 . S
C466 H458 0.930 . S
C466 C465 1.362 . S
C466 C469 1.409 . S
C467 H459 0.930 . S
C467 C468 1.355 . S
C467 C469 1.415 . S
C468 C467 1.355 . S
C468 C470 1.419 . S
C469 C464 1.425 . S
C469 C466 1.409 . S
C469 C467 1.415 . S
C470 H460 0.930 . S
C470 C468 1.419 . S
C470 C471 1.362 . S
C471 H461 0.930 . S
C471 C464 1.409 . S
C471 C470 1.362 . S
H472 C478 0.930 . S
H473 C481 0.930 . S
H474 C482 0.930 . S
H475 C483 0.930 . S
H476 C486 0.930 . S
H477 C487 0.930 . S
C478 H472 0.930 . S
C478 C479 1.355 . S
C478 C480 1.415 . S
C479 C478 1.355 . S
C479 C481 1.419 . S
C480 C478 1.415 . S
C480 C485 1.425 . S
C480 C487 1.409 . S
C481 H473 0.930 . S
C481 C479 1.419 . S
C481 C482 1.362 . S
C482 H474 0.930 . S
C482 C481 1.362 . S
C482 C485 1.409 . S
C483 H475 0.930 . S
C483 C484 1.355 . S
C483 C485 1.415 . S
C484 C483 1.355 . S
C484 C486 1.419 . S
C485 C480 1.425 . S
C485 C482 1.409 . S
C485 C483 1.415 . S
C486 H476 0.930 . S
C486 C484 1.419 . S
C486 C487 1.362 . S
C487 H477 0.930 . S
C487 C480 1.409 . S
C487 C486 1.362 . S
H488 C494 0.930 . S
H489 C497 0.930 . S
H490 C498 0.930 . S
H491 C499 0.930 . S
H492 C502 0.930 . S
H493 C503 0.930 . S
C494 H488 0.930 . S
C494 C495 1.355 . S
C494 C496 1.415 . S
C495 C494 1.355 . S
C495 C497 1.419 . S
C496 C494 1.415 . S
C496 C501 1.425 . S
C496 C503 1.409 . S
C497 H489 0.930 . S
C497 C495 1.419 . S
C497 C498 1.362 . S
C498 H490 0.930 . S
C498 C497 1.362 . S
C498 C501 1.409 . S
C499 H491 0.930 . S
C499 C500 1.355 . S
C499 C501 1.415 . S
C500 C499 1.355 . S
C500 C502 1.419 . S
C501 C496 1.425 . S
C501 C498 1.409 . S
C501 C499 1.415 . S
C502 H492 0.930 . S
C502 C500 1.419 . S
C502 C503 1.362 . S
C503 H493 0.930 . S
C503 C496 1.409 . S
C503 C502 1.362 . S
H504 C510 0.930 . S
H505 C513 0.930 . S
H506 C514 0.930 . S
H507 C515 0.930 . S
H508 C518 0.930 . S
H509 C519 0.949 . S
C510 H504 0.930 . S
C510 C511 1.355 . S
C510 C512 1.415 . S
C511 C510 1.355 . S
C511 C513 1.419 . S
C512 C510 1.415 . S
C512 C517 1.425 . S
C512 C519 1.409 . S
C513 H505 0.930 . S
C513 C511 1.419 . S
C513 C514 1.362 . S
C514 H506 0.930 . S
C514 C513 1.362 . S
C514 C517 1.409 . S
C515 H507 0.930 . S
C515 C516 1.355 . S
C515 C517 1.415 . S
C516 C515 1.355 . S
C516 C518 1.419 . S
C517 C512 1.425 . S
C517 C514 1.409 . S
C517 C515 1.415 . S
C518 H508 0.930 . S
C518 C516 1.419 . S
C518 C519 1.362 . S
C519 H509 0.949 . S
C519 C512 1.409 . S
C519 C518 1.362 . S
H520 C526 0.930 . S
H521 C529 0.930 . S
H522 C530 0.930 . S
H523 C531 0.930 . S
H524 C534 0.930 . S
H525 C535 0.930 . S
C526 H520 0.930 . S
C526 C527 1.355 . S
C526 C528 1.415 . S
C527 C526 1.355 . S
C527 C529 1.419 . S
C528 C526 1.415 . S
C528 C533 1.425 . S
C528 C535 1.409 . S
C529 H521 0.930 . S
C529 C527 1.419 . S
C529 C530 1.362 . S
C530 H522 0.930 . S
C530 C529 1.362 . S
C530 C533 1.409 . S
C531 H523 0.930 . S
C531 C532 1.355 . S
C531 C533 1.415 . S
C532 C531 1.355 . S
C532 C534 1.419 . S
C533 C528 1.425 . S
C533 C530 1.409 . S
C533 C531 1.415 . S
C534 H524 0.930 . S
C534 C532 1.419 . S
C534 C535 1.362 . S
C535 H525 0.930 . S
C535 C528 1.409 . S
C535 C534 1.362 . S
H536 C542 0.930 . S
H537 C545 0.930 . S
H538 C546 0.930 . S
H539 C547 0.930 . S
H540 C550 0.930 . S
H541 C551 0.930 . S
C542 H536 0.930 . S
C542 C543 1.355 . S
C542 C544 1.415 . S
C543 C542 1.355 . S
C543 C545 1.419 . S
C544 C542 1.415 . S
C544 C549 1.425 . S
C544 C551 1.409 . S
C545 H537 0.930 . S
C545 C543 1.419 . S
C545 C546 1.362 . S
C546 H538 0.930 . S
C546 C545 1.362 . S
C546 C549 1.409 . S
C547 H539 0.930 . S
C547 C548 1.355 . S
C547 C549 1.415 . S
C548 C547 1.355 . S
C548 C550 1.419 . S
C549 C544 1.425 . S
C549 C546 1.409 . S
C549 C547 1.415 . S
C550 H540 0.930 . S
C550 C548 1.419 . S
C550 C551 1.362 . S
C551 H541 0.930 . S
C551 C544 1.409 . S
C551 C550 1.362 . S
H552 C558 0.930 . S
H553 C561 0.930 . S
H554 C562 0.930 . S
H555 C563 0.930 . S
H556 C566 0.930 . S
H557 C567 0.930 . S
C558 H552 0.930 . S
C558 C559 1.355 . S
C558 C560 1.415 . S
C559 C558 1.355 . S
C559 C561 1.419 . S
C560 C558 1.415 . S
C560 C565 1.425 . S
C560 C567 1.409 . S
C561 H553 0.930 . S
C561 C559 1.419 . S
C561 C562 1.362 . S
C562 H554 0.930 . S
C562 C561 1.362 . S
C562 C565 1.409 . S
C563 H555 0.930 . S
C563 C564 1.355 . S
C563 C565 1.415 . S
C564 C563 1.355 . S
C564 C566 1.419 . S
C565 C560 1.425 . S
C565 C562 1.409 . S
C565 C563 1.415 . S
C566 H556 0.930 . S
C566 C564 1.419 . S
C566 C567 1.362 . S
C567 H557 0.930 . S
C567 C560 1.409 . S
C567 C566 1.362 . S
H568 C574 0.930 . S
H569 C577 0.930 . S
H570 C578 0.930 . S
H571 C579 0.930 . S
H572 C582 0.930 . S
H573 C583 0.930 . S
C574 H568 0.930 . S
C574 C575 1.355 . S
C574 C576 1.415 . S
C575 C574 1.355 . S
C575 C577 1.419 . S
C576 C574 1.415 . S
C576 C581 1.425 . S
C576 C583 1.409 . S
C577 H569 0.930 . S
C577 C575 1.419 . S
C577 C578 1.362 . S
C578 H570 0.930 . S
C578 C577 1.362 . S
C578 C581 1.409 . S
C579 H571 0.930 . S
C579 C580 1.355 . S
C579 C581 1.415 . S
C580 C579 1.355 . S
C580 C582 1.419 . S
C581 C576 1.425 . S
C581 C578 1.409 . S
C581 C579 1.415 . S
C582 H572 0.930 . S
C582 C580 1.419 . S
C582 C583 1.362 . S
C583 H573 0.930 . S
C583 C576 1.409 . S
C583 C582 1.362 . S
H584 C590 0.930 . S
H585 C593 0.930 . S
H586 C594 0.930 . S
H587 C595 0.930 . S
H588 C598 0.930 . S
H589 C599 0.930 . S
C590 H584 0.930 . S
C590 C591 1.355 . S
C590 C592 1.415 . S
C591 C590 1.355 . S
C591 C593 1.419 . S
C592 C590 1.415 . S
C592 C597 1.425 . S
C592 C599 1.409 . S
C593 H585 0.930 . S
C593 C591 1.419 . S
C593 C594 1.362 . S
C594 H586 0.930 . S
C594 C593 1.362 . S
C594 C597 1.409 . S
C595 H587 0.930 . S
C595 C596 1.355 . S
C595 C597 1.415 . S
C596 C595 1.355 . S
C596 C598 1.419 . S
C597 C592 1.425 . S
C597 C594 1.409 . S
C597 C595 1.415 . S
C598 H588 0.930 . S
C598 C596 1.419 . S
C598 C599 1.362 . S
C599 H589 0.930 . S
C599 C592 1.409 . S
C599 C598 1.362 . S
H600 C606 0.930 . S
H601 C609 0.930 . S
H602 C610 0.930 1_554 S
H603 C611 0.930 . S
H604 C614 0.930 . S
H605 C615 0.930 . S
C606 H600 0.930 . S
C606 C607 1.355 . S
C606 C608 1.415 . S
C607 C606 1.355 . S
C607 C609 1.419 . S
C608 C606 1.415 . S
C608 C613 1.425 . S
C608 C615 1.409 . S
C609 H601 0.930 . S
C609 C607 1.419 . S
C609 C610 1.362 . S
C610 H602 0.930 1_556 S
C610 C609 1.362 . S
C610 C613 1.409 . S
C611 H603 0.930 . S
C611 C612 1.355 . S
C611 C613 1.415 1_554 S
C612 C611 1.355 . S
C612 C614 1.419 1_554 S
C613 C608 1.425 . S
C613 C610 1.409 . S
C613 C611 1.415 1_556 S
C614 H604 0.930 . S
C614 C612 1.419 1_556 S
C614 C615 1.362 . S
C615 H605 0.930 . S
C615 C608 1.409 . S
C615 C614 1.362 . S
H616 C622 0.930 . S
H617 C625 0.930 . S
H618 C626 0.930 . S
H619 C627 0.930 . S
H620 C630 0.930 . S
H621 C631 0.930 . S
C622 H616 0.930 . S
C622 C623 1.355 . S
C622 C624 1.415 . S
C623 C622 1.355 . S
C623 C625 1.419 . S
C624 C622 1.415 . S
C624 C629 1.425 . S
C624 C631 1.409 . S
C625 H617 0.930 . S
C625 C623 1.419 . S
C625 C626 1.362 . S
C626 H618 0.930 . S
C626 C625 1.362 . S
C626 C629 1.409 . S
C627 H619 0.930 . S
C627 C628 1.355 . S
C627 C629 1.415 . S
C628 C627 1.355 . S
C628 C630 1.419 . S
C629 C624 1.425 . S
C629 C626 1.409 . S
C629 C627 1.415 . S
C630 H620 0.930 . S
C630 C628 1.419 . S
C630 C631 1.362 . S
C631 H621 0.930 . S
C631 C624 1.409 . S
C631 C630 1.362 . S
H632 C638 0.930 . S
H633 C641 0.930 . S
H634 C642 0.930 . S
H635 C643 0.930 . S
H636 C646 0.930 . S
H637 C647 0.930 . S
C638 H632 0.930 . S
C638 C639 1.355 . S
C638 C640 1.415 . S
C639 C638 1.355 . S
C639 C641 1.419 . S
C640 C638 1.415 . S
C640 C645 1.425 . S
C640 C647 1.409 . S
C641 H633 0.930 . S
C641 C639 1.419 . S
C641 C642 1.362 . S
C642 H634 0.930 . S
C642 C641 1.362 . S
C642 C645 1.409 . S
C643 H635 0.930 . S
C643 C644 1.355 . S
C643 C645 1.415 . S
C644 C643 1.355 . S
C644 C646 1.419 . S
C645 C640 1.425 . S
C645 C642 1.409 . S
C645 C643 1.415 . S
C646 H636 0.930 . S
C646 C644 1.419 . S
C646 C647 1.362 . S
C647 H637 0.930 . S
C647 C640 1.409 . S
C647 C646 1.362 . S
H648 C654 0.930 . S
H649 C657 0.930 . S
H650 C658 0.930 . S
H651 C659 0.930 . S
H652 C662 0.930 . S
H653 C663 0.930 . S
C654 H648 0.930 . S
C654 C655 1.355 . S
C654 C656 1.415 . S
C655 C654 1.355 . S
C655 C657 1.419 . S
C656 C654 1.415 . S
C656 C661 1.425 . S
C656 C663 1.409 . S
C657 H649 0.930 . S
C657 C655 1.419 . S
C657 C658 1.362 . S
C658 H650 0.930 . S
C658 C657 1.362 . S
C658 C661 1.409 . S
C659 H651 0.930 . S
C659 C660 1.355 . S
C659 C661 1.415 . S
C660 C659 1.355 . S
C660 C662 1.419 . S
C661 C656 1.425 . S
C661 C658 1.409 . S
C661 C659 1.415 . S
C662 H652 0.930 . S
C662 C660 1.419 . S
C662 C663 1.362 . S
C663 H653 0.930 . S
C663 C656 1.409 . S
C663 C662 1.362 . S
H664 C670 0.930 . S
H665 C673 0.930 . S
H666 C674 0.930 . S
H667 C675 0.930 . S
H668 C678 0.930 . S
H669 C679 0.930 . S
C670 H664 0.930 . S
C670 C671 1.355 . S
C670 C672 1.415 . S
C671 C670 1.355 . S
C671 C673 1.419 . S
C672 C670 1.415 . S
C672 C677 1.425 . S
C672 C679 1.409 . S
C673 H665 0.930 . S
C673 C671 1.419 . S
C673 C674 1.362 . S
C674 H666 0.930 . S
C674 C673 1.362 . S
C674 C677 1.409 . S
C675 H667 0.930 . S
C675 C676 1.355 . S
C675 C677 1.415 . S
C676 C675 1.355 . S
C676 C678 1.419 . S
C677 C672 1.425 . S
C677 C674 1.409 . S
C677 C675 1.415 . S
C678 H668 0.930 . S
C678 C676 1.419 . S
C678 C679 1.362 . S
C679 H669 0.930 . S
C679 C672 1.409 . S
C679 C678 1.362 . S
H680 C686 0.930 . S
H681 C689 0.930 . S
H682 C690 0.930 . S
H683 C691 0.930 . S
H684 C694 0.930 . S
H685 C695 0.930 . S
C686 H680 0.930 . S
C686 C687 1.355 . S
C686 C688 1.415 . S
C687 C686 1.355 . S
C687 C689 1.419 . S
C688 C686 1.415 . S
C688 C693 1.425 . S
C688 C695 1.409 . S
C689 H681 0.930 . S
C689 C687 1.419 . S
C689 C690 1.362 . S
C690 H682 0.930 . S
C690 C689 1.362 . S
C690 C693 1.409 . S
C691 H683 0.930 . S
C691 C692 1.355 . S
C691 C693 1.415 . S
C692 C691 1.355 . S
C692 C694 1.419 . S
C693 C688 1.425 . S
C693 C690 1.409 . S
C693 C691 1.415 . S
C694 H684 0.930 . S
C694 C692 1.419 . S
C694 C695 1.362 . S
C695 H685 0.930 . S
C695 C688 1.409 . S
C695 C694 1.362 . S
H696 C702 0.930 . S
H697 C705 0.930 . S
H698 C706 0.930 . S
H699 C707 0.930 . S
H700 C710 0.930 . S
H701 C711 0.930 . S
C702 H696 0.930 . S
C702 C703 1.355 . S
C702 C704 1.415 . S
C703 C702 1.355 . S
C703 C705 1.419 . S
C704 C702 1.415 . S
C704 C709 1.425 . S
C704 C711 1.409 . S
C705 H697 0.930 . S
C705 C703 1.419 . S
C705 C706 1.362 . S
C706 H698 0.930 . S
C706 C705 1.362 . S
C706 C709 1.409 . S
C707 H699 0.930 . S
C707 C708 1.355 . S
C707 C709 1.415 . S
C708 C707 1.355 . S
C708 C710 1.419 . S
C709 C704 1.425 . S
C709 C706 1.409 . S
C709 C707 1.415 . S
C710 H700 0.930 . S
C710 C708 1.419 . S
C710 C711 1.362 . S
C711 H701 0.930 . S
C711 C704 1.409 . S
C711 C710 1.362 . S
H712 C718 0.930 . S
H713 C721 0.930 . S
H714 C722 0.923 1_556 S
H715 C723 0.930 . S
H716 C726 0.930 . S
H717 C727 0.930 . S
C718 H712 0.930 . S
C718 C719 1.355 . S
C718 C720 1.415 . S
C719 C718 1.355 . S
C719 C721 1.419 . S
C720 C718 1.415 . S
C720 C725 1.425 1_554 S
C720 C727 1.409 . S
C721 H713 0.930 . S
C721 C719 1.419 . S
C721 C722 1.373 . S
C722 H714 0.923 1_554 S
C722 C721 1.373 . S
C722 C725 1.405 1_554 S
C723 H715 0.930 . S
C723 C724 1.355 . S
C723 C725 1.415 . S
C724 C723 1.355 . S
C724 C726 1.419 . S
C725 C720 1.425 1_556 S
C725 C722 1.405 1_556 S
C725 C723 1.415 . S
C726 H716 0.930 . S
C726 C724 1.419 . S
C726 C727 1.362 1_556 S
C727 H717 0.930 . S
C727 C720 1.409 . S
C727 C726 1.362 1_554 S
H728 C734 0.930 . S
H729 C737 0.930 . S
H730 C738 0.930 . S
H731 C739 0.930 . S
H732 C742 0.930 . S
H733 C743 0.930 . S
C734 H728 0.930 . S
C734 C735 1.355 . S
C734 C736 1.415 . S
C735 C734 1.355 . S
C735 C737 1.419 . S
C736 C734 1.415 . S
C736 C741 1.425 . S
C736 C743 1.409 . S
C737 H729 0.930 . S
C737 C735 1.419 . S
C737 C738 1.362 . S
C738 H730 0.930 . S
C738 C737 1.362 . S
C738 C741 1.409 . S
C739 H731 0.930 . S
C739 C740 1.355 . S
C739 C741 1.415 . S
C740 C739 1.355 . S
C740 C742 1.419 . S
C741 C736 1.425 . S
C741 C738 1.409 . S
C741 C739 1.415 . S
C742 H732 0.930 . S
C742 C740 1.419 . S
C742 C743 1.362 . S
C743 H733 0.930 . S
C743 C736 1.409 . S
C743 C742 1.362 . S
C372 C351 1.219 . S
C367 C15 1.501 . S
C383 C61 1.536 . S
C388 C281 1.245 . S
C399 C114 1.525 . S
C404 C301 1.590 . S
C415 C139 1.471 . S
C420 C315 1.521 . S
C436 C323 1.187 . S
C431 C185 1.512 . S
C447 C245 1.529 . S
C452 C337 1.334 . S
C463 C47 1.589 . S
C468 C295 1.323 . S
C479 C100 1.549 . S
C484 C309 1.322 . S
C495 C153 1.497 . S
C500 C329 1.499 . S
C516 C343 1.546 . S
C511 C199 1.510 . S
C532 C357 1.558 . S
C527 C231 1.508 . S
C548 C287 1.584 . S
C543 C1 1.531 . S
C559 C22 1.427 . S
C564 C294 1.406 . S
C575 C68 1.447 . S
C580 C308 1.411 . S
C596 C330 1.441 . S
C591 C107 1.437 . S
C607 C146 1.466 . S
C612 C344 1.452 . S
C628 C358 1.439 . S
C623 C192 1.432 . S
C644 C288 1.428 . S
C639 C252 1.419 . S
C660 C350 1.412 . S
C655 C54 1.445 . S
C671 C93 1.456 . S
C676 C280 1.448 . S
C692 C302 1.440 . S
C687 C160 1.447 . S
C703 C206 1.436 . S
C708 C316 1.438 . S
C719 C238 1.488 . S
C724 C322 1.486 . S
C735 C8 1.473 . S
C740 C336 1.434 . S
