# Generated by pormake.
# Topology rtl, (3,6)-cn, num edge types: 1
# Building blocks:
#     Node 0, Type 0, BuildingBlock: CUQRIR_clean_linker_1, # of connection points: 3
#     Node 1, Type 0, BuildingBlock: CUQRIR_clean_linker_1, # of connection points: 3
#     Node 2, Type 0, BuildingBlock: CUQRIR_clean_linker_1, # of connection points: 3
#     Node 3, Type 0, BuildingBlock: CUQRIR_clean_linker_1, # of connection points: 3
#     Node 4, Type 1, BuildingBlock: LEVNOQ01_clean_sbu_1, # of connection points: 6
#     Node 5, Type 1, BuildingBlock: LEVNOQ01_clean_sbu_1, # of connection points: 6
#     Edge 6, Type (0, 1), BuildingBlock: KIFKEQ_clean_linker_1, # of connection points: 2
#     Edge 7, Type (0, 1), BuildingBlock: KIFKEQ_clean_linker_1, # of connection points: 2
#     Edge 8, Type (0, 1), BuildingBlock: KIFKEQ_clean_linker_1, # of connection points: 2
#     Edge 9, Type (0, 1), BuildingBlock: KIFKEQ_clean_linker_1, # of connection points: 2
#     Edge 10, Type (0, 1), BuildingBlock: KIFKEQ_clean_linker_1, # of connection points: 2
#     Edge 11, Type (0, 1), BuildingBlock: KIFKEQ_clean_linker_1, # of connection points: 2
#     Edge 12, Type (0, 1), BuildingBlock: KIFKEQ_clean_linker_1, # of connection points: 2
#     Edge 13, Type (0, 1), BuildingBlock: KIFKEQ_clean_linker_1, # of connection points: 2
#     Edge 14, Type (0, 1), BuildingBlock: KIFKEQ_clean_linker_1, # of connection points: 2
#     Edge 15, Type (0, 1), BuildingBlock: KIFKEQ_clean_linker_1, # of connection points: 2
#     Edge 16, Type (0, 1), BuildingBlock: KIFKEQ_clean_linker_1, # of connection points: 2
#     Edge 17, Type (0, 1), BuildingBlock: KIFKEQ_clean_linker_1, # of connection points: 2
# Relax obj value: 0.023
# Max RMSD: 0.124
# Mean RMSD: 0.102
data_MOF--net-rtl--node1-LEVNOQ01_clean_sbu_1--node2-CUQRIR_clean_linker_1--edge1-KIFKEQ_clean_linker_1
_symmetry_space_group_name_H-M    P1
_symmetry_Int_Tables_number       1
_symmetry_cell_setting            triclinic
loop_
_symmetry_equiv_pos_as_xyz
'x, y, z'
_cell_length_a     34.125287
_cell_length_b     34.117267
_cell_length_c     20.374702
_cell_angle_alpha  89.947613
_cell_angle_beta   98.155497
_cell_angle_gamma 90.084893
loop_
_atom_site_label
_atom_site_type_symbol
_atom_site_fract_x
_atom_site_fract_y
_atom_site_fract_z
_atom_type_partial_charge
C0 C 0.22334 0.79278 0.06108 0.0
N1 N 0.19703 0.82076 0.07258 0.0
N2 N 0.24854 0.78494 0.11697 0.0
C3 C 0.22645 0.77523 0.99425 0.0
C4 C 0.23709 0.80939 0.16277 0.0
N5 N 0.20605 0.83162 0.13564 0.0
C6 C 0.25428 0.80924 0.235 0.0
H7 H 0.20438 0.75128 0.98438 0.0
H8 H 0.25634 0.76294 0.99236 0.0
H9 H 0.21992 0.79755 0.95458 0.0
H10 H 0.27463 0.8346 0.24507 0.0
H11 H 0.27116 0.78198 0.24874 0.0
H12 H 0.2305 0.81216 0.26658 0.0
C13 C 0.71976 0.70836 0.65788 0.0
N14 N 0.69445 0.67966 0.63275 0.0
N15 N 0.73667 0.72556 0.60924 0.0
C16 C 0.73014 0.71812 0.73029 0.0
C17 C 0.72109 0.70642 0.5535 0.0
N18 N 0.69555 0.67813 0.56767 0.0
C19 C 0.72854 0.71768 0.4849 0.0
H20 H 0.70923 0.74061 0.74377 0.0
H21 H 0.76054 0.73032 0.74084 0.0
H22 H 0.72797 0.6918 0.76159 0.0
H23 H 0.7531 0.69958 0.47118 0.0
H24 H 0.73727 0.74895 0.48296 0.0
H25 H 0.70183 0.71253 0.44805 0.0
C26 C 0.80187 0.23457 0.05677 0.0
N27 N 0.82693 0.20541 0.04488 0.0
N28 N 0.78551 0.25162 0.99942 0.0
C29 C 0.79265 0.24618 0.12419 0.0
C30 C 0.80134 0.23192 0.95202 0.0
N31 N 0.82709 0.20425 0.97958 0.0
C32 C 0.7901 0.23845 0.87864 0.0
H33 H 0.76616 0.22977 0.13477 0.0
H34 H 0.78589 0.27789 0.1259 0.0
H35 H 0.81778 0.23946 0.16334 0.0
H36 H 0.81263 0.25756 0.86057 0.0
H37 H 0.761 0.25315 0.86706 0.0
H38 H 0.78931 0.2102 0.85152 0.0
C39 C 0.25478 0.31813 0.44005 0.0
N40 N 0.28461 0.34154 0.46828 0.0
N41 N 0.24487 0.29184 0.48451 0.0
C42 C 0.2374 0.31888 0.36793 0.0
C43 C 0.26967 0.29984 0.54075 0.0
N44 N 0.29438 0.32967 0.53068 0.0
C45 C 0.26755 0.28048 0.60659 0.0
H46 H 0.21673 0.34401 0.35908 0.0
H47 H 0.22093 0.29151 0.35303 0.0
H48 H 0.26109 0.32295 0.33643 0.0
H49 H 0.29057 0.25739 0.6149 0.0
H50 H 0.23822 0.26666 0.60793 0.0
H51 H 0.27321 0.30207 0.64754 0.0
O52 O 0.00923 0.03811 0.71089 0.0
Mg53 Mg 0.05024 0.03222 0.64227 0.0
O54 O 0.96216 0.03589 0.62607 0.0
Mg55 Mg -0.00046 0.00321 0.55539 0.0
O56 O 0.04415 0.05705 0.55011 0.0
O57 O 0.07778 0.08419 0.64208 0.0
O58 O 0.04165 0.97279 0.48413 0.0
O59 O 0.96465 0.0401 0.4685 0.0
Mg60 Mg 0.96987 0.95302 0.46893 0.0
O61 O 0.94877 0.95492 0.55828 0.0
O62 O 0.01632 0.91435 0.46626 0.0
O63 O 0.96048 -0.00502 0.39166 0.0
O64 O 0.91878 0.92379 0.46712 0.0
C65 C 0.06942 0.96018 0.66963 0.0
C66 C 0.97326 0.04257 0.68736 0.0
C67 C 0.06672 0.08465 0.579 0.0
C68 C 0.04449 0.93776 0.46293 0.0
C69 C 0.95662 0.03029 0.40776 0.0
C70 C 0.92092 0.93208 0.52915 0.0
O71 O 0.09203 0.98782 0.65859 0.0
O72 O 0.03288 0.96243 0.6446 0.0
O73 O 0.53047 0.48608 0.21427 0.0
Mg74 Mg 0.51399 0.44748 0.13216 0.0
O75 O 0.53659 0.53267 0.14231 0.0
Mg76 Mg 0.49807 0.50211 0.0532 0.0
O77 O 0.5434 0.44772 0.05183 0.0
O78 O 0.55464 0.4052 0.13699 0.0
O79 O 0.46069 0.46565 0.96291 0.0
O80 O 0.54128 0.52858 0.98515 0.0
Mg81 Mg 0.45322 0.53813 0.96224 0.0
O82 O 0.45963 0.56052 0.05619 0.0
O83 O 0.40625 0.49945 0.94018 0.0
O84 O 0.4968 0.53797 0.89806 0.0
O85 O 0.4334 0.5934 0.96452 0.0
C86 C 0.43846 0.44607 0.1337 0.0
C87 C 0.5416 0.52039 0.20198 0.0
C88 C 0.5617 0.41715 0.07986 0.0
C89 C 0.42505 0.46834 0.93354 0.0
C90 C 0.53263 0.53671 0.92381 0.0
C91 C 0.44155 0.59112 0.02809 0.0
O92 O 0.45985 0.41798 0.12103 0.0
O93 O 0.45018 0.48065 0.1226 0.0
H94 H 0.16647 0.30361 0.45794 0.0
H95 H 0.25585 0.21413 0.49154 0.0
H96 H 0.11452 0.2536 0.45872 0.0
H97 H 0.20437 0.16388 0.49155 0.0
H98 H 0.10268 0.07909 0.46797 0.0
H99 H 0.14184 0.13089 0.42377 0.0
H100 H 0.10339 0.21329 0.56216 0.0
H101 H 0.06545 0.16164 0.60694 0.0
C102 C 0.17469 0.27302 0.46371 0.0
C103 C 0.21469 0.26229 0.47508 0.0
C104 C 0.14523 0.24454 0.46411 0.0
C105 C 0.1555 0.20493 0.47493 0.0
C106 C 0.19561 0.1941 0.4821 0.0
C107 C 0.22499 0.22266 0.48267 0.0
C108 C 0.10168 0.10864 0.48711 0.0
C109 C 0.08135 0.11663 0.54077 0.0
C110 C 0.12415 0.13811 0.4622 0.0
C111 C 0.12564 0.17598 0.48974 0.0
C112 C 0.10245 0.18451 0.53955 0.0
C113 C 0.08088 0.15497 0.56534 0.0
H114 H 0.24297 0.7069 0.10338 0.0
H115 H 0.3259 0.80163 0.14777 0.0
H116 H 0.29791 0.66049 0.10491 0.0
H117 H 0.38131 0.7555 0.14867 0.0
H118 H 0.40305 0.58177 0.13545 0.0
H119 H 0.35973 0.63047 0.17706 0.0
H120 H 0.39984 0.71775 0.04803 0.0
H121 H 0.44217 0.66913 1.00581 0.0
C122 C 0.27313 0.71742 0.11462 0.0
C123 C 0.28064 0.75746 0.12508 0.0
C124 C 0.30448 0.69103 0.11615 0.0
C125 C 0.34385 0.70444 0.12723 0.0
C126 C 0.35125 0.74444 0.14024 0.0
C127 C 0.3198 0.77072 0.13967 0.0
C128 C 0.40366 0.61177 0.1181 0.0
C129 C 0.4257 0.62186 0.06741 0.0
C130 C 0.37871 0.63947 0.14141 0.0
C131 C 0.37627 0.67773 0.11532 0.0
C132 C 0.40132 0.6886 0.06937 0.0
C133 C 0.4255 0.66079 0.04512 0.0
H134 H 0.72188 0.79954 0.64319 0.0
H135 H 0.81231 0.72367 0.58766 0.0
H136 H 0.76695 0.85604 0.64406 0.0
H137 H 0.85787 0.7796 0.58981 0.0
H138 H 0.84128 0.93361 0.50325 0.0
H139 H 0.79602 0.88572 0.54089 0.0
H140 H 0.89327 0.83427 0.67102 0.0
H141 H 0.93845 0.88325 0.63451 0.0
C142 C 0.75173 0.79511 0.6324 0.0
C143 C 0.76398 0.75779 0.61505 0.0
C144 C 0.7774 0.82715 0.63302 0.0
C145 C 0.81592 0.82201 0.61765 0.0
C146 C 0.82855 0.78422 0.60294 0.0
C147 C 0.8026 0.7524 0.60109 0.0
C148 C 0.85254 0.91318 0.54214 0.0
C149 C 0.89307 0.91212 0.56655 0.0
C150 C 0.82673 0.88576 0.56355 0.0
C151 C 0.8413 0.85621 0.60842 0.0
C152 C 0.88143 0.85682 0.63631 0.0
C153 C 0.90713 0.88495 0.61599 0.0
H154 H 0.71022 0.23403 0.95346 0.0
H155 H 0.78743 0.32873 0.02746 0.0
H156 H 0.65262 0.27689 0.95258 0.0
H157 H 0.7299 0.37187 0.02855 0.0
H158 H 0.61583 0.44414 1.00207 0.0
H159 H 0.6698 0.40584 0.96495 0.0
H160 H 0.62543 0.30147 0.04975 0.0
H161 H 0.5725 0.33922 0.08627 0.0
C162 C 0.71464 0.26437 0.96831 0.0
C163 C 0.75275 0.27835 0.99085 0.0
C164 C 0.68189 0.28884 0.96805 0.0
C165 C 0.68672 0.32768 0.991 0.0
C166 C 0.72525 0.34226 1.00995 0.0
C167 C 0.75805 0.31767 1.00993 0.0
C168 C 0.61736 0.41286 1.01121 0.0
C169 C 0.59033 0.3946 0.04737 0.0
C170 C 0.64825 0.39104 0.99046 0.0
C171 C 0.65182 0.35064 1.00442 0.0
C172 C 0.6233 0.33235 0.03736 0.0
C173 C 0.59311 0.35407 0.05878 0.0
H174 H 0.12861 0.82307 0.14156 0.0
H175 H 0.23032 0.89381 0.21297 0.0
H176 H 0.09163 0.85352 0.22248 0.0
H177 H 0.19373 0.9241 0.29527 0.0
H178 H 0.0643 0.86395 0.4316 0.0
H179 H 0.1033 0.84421 0.34645 0.0
H180 H 0.1327 0.96519 0.31449 0.0
H181 H 0.09318 0.9853 0.40057 0.0
C182 C 0.14255 0.846 0.17347 0.0
C183 C 0.1822 0.85596 0.17183 0.0
C184 C 0.12172 0.86305 0.22029 0.0
C185 C 0.14017 0.89051 0.26618 0.0
C186 C 0.17885 0.9029 0.2608 0.0
C187 C 0.19975 0.88563 0.21397 0.0
C188 C 0.0795 0.88642 0.40725 0.0
C189 C 0.07529 0.92624 0.42235 0.0
C190 C 0.10152 0.8751 0.35795 0.0
C191 C 0.12005 0.90325 0.32252 0.0
C192 C 0.11835 0.94293 0.34066 0.0
C193 C 0.09601 0.95438 0.3902 0.0
H194 H 0.64605 0.70383 0.71757 0.0
H195 H 0.69064 0.60032 0.63232 0.0
H196 H 0.61281 0.663 0.79164 0.0
H197 H 0.65534 0.55903 0.7043 0.0
H198 H 0.53197 0.52355 0.79239 0.0
H199 H 0.57462 0.55402 0.71976 0.0
H200 H 0.6427 0.60922 0.88937 0.0
H201 H 0.60069 0.57782 0.96258 0.0
C202 C 0.64857 0.67227 0.71476 0.0
C203 C 0.67125 0.65513 0.67016 0.0
C204 C 0.6297 0.649 0.75703 0.0
C205 C 0.63228 0.60803 0.75433 0.0
C206 C 0.65337 0.59064 0.70758 0.0
C207 C 0.67312 0.6141 0.66616 0.0
C208 C 0.55675 0.54132 0.81432 0.0
C209 C 0.56305 0.54851 0.88299 0.0
C210 C 0.58111 0.55861 0.77281 0.0
C211 C 0.61159 0.58404 0.79915 0.0
C212 C 0.61923 0.58968 0.86814 0.0
C213 C 0.59541 0.57161 0.90993 0.0
H214 H 0.90533 0.18869 0.06499 0.0
H215 H 0.79462 0.16242 0.13425 0.0
H216 H 0.94036 0.14761 0.15408 0.0
H217 H 0.82948 0.12323 0.2248 0.0
H218 H 0.91408 0.09745 0.41966 0.0
H219 H 0.8843 0.14058 0.32962 0.0
H220 H 0.93691 0.0712 0.18829 0.0
H221 H 0.96578 0.02761 0.27753 0.0
C222 C 0.8886 0.174 0.09912 0.0
C223 C 0.84744 0.17907 0.09356 0.0
C224 C 0.90853 0.15082 0.15016 0.0
C225 C 0.88763 0.13299 0.19699 0.0
C226 C 0.84638 0.13738 0.19028 0.0
C227 C 0.82648 0.15973 0.1386 0.0
C228 C 0.91961 0.09173 0.3695 0.0
C229 C 0.94199 0.05905 0.35554 0.0
C230 C 0.90248 0.11624 0.31805 0.0
C231 C 0.90829 0.10905 0.2521 0.0
C232 C 0.93213 0.07745 0.23867 0.0
C233 C 0.94845 0.05246 0.28973 0.0
H234 H 0.29357 0.40595 0.56201 0.0
H235 H 0.35426 0.29738 0.61427 0.0
H236 H 0.32878 0.43676 0.66182 0.0
H237 H 0.38918 0.32769 0.71531 0.0
H238 H 0.46439 0.4149 0.86548 0.0
H239 H 0.4374 0.38053 0.76309 0.0
H240 H 0.32125 0.42598 0.78002 0.0
H241 H 0.34791 0.46008 0.88118 0.0
C242 C 0.31522 0.38906 0.59426 0.0
C243 C 0.32106 0.34938 0.5812 0.0
C244 C 0.33497 0.40639 0.65176 0.0
C245 C 0.36107 0.38435 0.69725 0.0
C246 C 0.36914 0.34536 0.68149 0.0
C247 C 0.3492 0.32802 0.62393 0.0
C248 C 0.43295 0.41671 0.84807 0.0
C249 C 0.40835 0.4405 0.8811 0.0
C250 C 0.41757 0.39728 0.78924 0.0
C251 C 0.37743 0.40149 0.76254 0.0
C252 C 0.35253 0.42314 0.79816 0.0
C253 C 0.36776 0.44234 0.85661 0.0
H254 H 0.6162 0.66634 0.55234 0.0
H255 H 0.72272 0.63297 0.47573 0.0
H256 H 0.57667 0.62785 0.46465 0.0
H257 H 0.68334 0.59618 0.38644 0.0
H258 H 0.59263 0.58162 0.19403 0.0
H259 H 0.62916 0.61883 0.28589 0.0
H260 H 0.57174 0.5524 0.42539 0.0
H261 H 0.53586 0.51452 0.33391 0.0
C262 C 0.6311 0.6504 0.5172 0.0
C263 C 0.67243 0.65274 0.52036 0.0
C264 C 0.60856 0.62867 0.46689 0.0
C265 C 0.62698 0.60959 0.41829 0.0
C266 C 0.66837 0.61118 0.4226 0.0
C267 C 0.69085 0.63215 0.47354 0.0
C268 C 0.5876 0.57514 0.24423 0.0
C269 C 0.56153 0.54502 0.25674 0.0
C270 C 0.60863 0.59628 0.29674 0.0
C271 C 0.60333 0.58832 0.36265 0.0
C272 C 0.57628 0.55916 0.37504 0.0
C273 C 0.5559 0.53743 0.32269 0.0
H274 H 0.87563 0.22391 0.89223 0.0
H275 H 0.82785 0.12483 0.98577 0.0
H276 H 0.90604 0.17974 0.81955 0.0
H277 H 0.86025 0.08015 0.91513 0.0
H278 H 0.97708 0.03368 0.82078 0.0
H279 H 0.93931 0.06946 0.89497 0.0
H280 H 0.87199 0.12615 0.72619 0.0
H281 H 0.90902 0.08959 0.65154 0.0
C282 C 0.87192 0.19259 0.89732 0.0
C283 C 0.84916 0.17769 0.94386 0.0
C284 C 0.88919 0.16741 0.85584 0.0
C285 C 0.88483 0.1267 0.86117 0.0
C286 C 0.8637 0.11152 0.90993 0.0
C287 C 0.84559 0.13691 0.9506 0.0
C288 C 0.95358 0.05312 0.79945 0.0
C289 C 0.94603 0.05903 0.73044 0.0
C290 C 0.93199 0.07343 0.84188 0.0
C291 C 0.90308 0.10062 0.81613 0.0
C292 C 0.89431 0.10534 0.74704 0.0
C293 C 0.91529 0.08432 0.70443 0.0
H294 H 0.2584 0.40557 0.39732 0.0
H295 H 0.36142 0.33444 0.45721 0.0
H296 H 0.2928 0.43855 0.31421 0.0
H297 H 0.39578 0.36698 0.37442 0.0
H298 H 0.40351 0.37635 0.15164 0.0
H299 H 0.36638 0.35872 0.2407 0.0
H300 H 0.36608 0.47956 0.30249 0.0
H301 H 0.40443 0.4976 0.21328 0.0
C302 C 0.28885 0.39802 0.3939 0.0
C303 C 0.30744 0.36752 0.43294 0.0
C304 C 0.30842 0.41677 0.34665 0.0
C305 C 0.34662 0.40486 0.33768 0.0
C306 C 0.3662 0.37646 0.38034 0.0
C307 C 0.34681 0.35811 0.4279 0.0
C308 C 0.395 0.39943 0.18326 0.0
C309 C 0.40741 0.4383 0.17593 0.0
C310 C 0.37397 0.38922 0.23448 0.0
C311 C 0.36435 0.41767 0.2791 0.0
C312 C 0.37361 0.45713 0.26883 0.0
C313 C 0.39522 0.46742 0.21758 0.0
H314 H 0.13734 0.78795 0.98921 0.0
H315 H 0.19672 0.8972 0.04218 0.0
H316 H 0.10143 0.81847 0.88883 0.0
H317 H 0.16114 0.9279 0.94235 0.0
H318 H 0.14592 0.94524 0.71915 0.0
H319 H 0.17076 0.91114 0.8212 0.0
H320 H 0.05181 0.87693 0.84486 0.0
H321 H 0.02635 0.91199 0.74199 0.0
C322 C 0.14182 0.81877 0.97996 0.0
C323 C 0.16979 0.84036 0.02273 0.0
C324 C 0.12137 0.83618 0.9228 0.0
C325 C 0.12903 0.87533 0.90734 0.0
C326 C 0.15509 0.8975 0.95266 0.0
C327 C 0.17511 0.8802 1.00999 0.0
C328 C 0.12491 0.93005 0.74534 0.0
C329 C 0.08405 0.93177 0.72268 0.0
C330 C 0.1392 0.91079 0.80419 0.0
C331 C 0.11313 0.8923 0.8418 0.0
C332 C 0.07249 0.89133 0.81701 0.0
C333 C 0.05799 0.91111 0.75796 0.0
loop_
_geom_bond_atom_site_label_1
_geom_bond_atom_site_label_2
_geom_bond_distance
_geom_bond_site_symmetry_2
_ccdc_geom_bond_type
C0 N1 1.317 . S
C0 N2 1.348 . S
C0 C3 1.485 1_554 S
N1 C0 1.317 . S
N1 N5 1.370 . S
N2 C0 1.348 . S
N2 C4 1.346 . S
C3 C0 1.485 1_556 S
C3 H7 0.960 . S
C3 H8 0.961 . S
C3 H9 0.960 . S
C4 N2 1.346 . S
C4 N5 1.307 . S
C4 C6 1.486 . S
N5 N1 1.370 . S
N5 C4 1.307 . S
C6 C4 1.486 . S
C6 H10 0.960 . S
C6 H11 0.960 . S
C6 H12 0.959 . S
H7 C3 0.960 . S
H8 C3 0.961 . S
H9 C3 0.960 . S
H10 C6 0.960 . S
H11 C6 0.960 . S
H12 C6 0.959 . S
C13 N14 1.317 . S
C13 N15 1.348 . S
C13 C16 1.485 . S
N14 C13 1.317 . S
N14 N18 1.370 . S
N15 C13 1.348 . S
N15 C17 1.346 . S
C16 C13 1.485 . S
C16 H20 0.960 . S
C16 H21 0.961 . S
C16 H22 0.960 . S
C17 N15 1.346 . S
C17 N18 1.307 . S
C17 C19 1.486 . S
N18 N14 1.370 . S
N18 C17 1.307 . S
C19 C17 1.486 . S
C19 H23 0.960 . S
C19 H24 0.960 . S
C19 H25 0.959 . S
H20 C16 0.960 . S
H21 C16 0.961 . S
H22 C16 0.960 . S
H23 C19 0.960 . S
H24 C19 0.960 . S
H25 C19 0.959 . S
C26 N27 1.317 . S
C26 N28 1.354 . S
C26 C29 1.485 . S
N27 C26 1.317 . S
N27 N31 1.370 1_554 S
N28 C26 1.354 . S
N28 C30 1.340 1_554 S
C29 C26 1.485 . S
C29 H33 0.960 . S
C29 H34 0.961 . S
C29 H35 0.960 . S
C30 N28 1.340 1_556 S
C30 N31 1.307 . S
C30 C32 1.486 . S
N31 N27 1.370 1_556 S
N31 C30 1.307 . S
C32 C30 1.486 . S
C32 H36 0.960 . S
C32 H37 0.960 . S
C32 H38 0.959 . S
H33 C29 0.960 . S
H34 C29 0.961 . S
H35 C29 0.960 . S
H36 C32 0.960 . S
H37 C32 0.960 . S
H38 C32 0.959 . S
C39 N40 1.317 . S
C39 N41 1.348 . S
C39 C42 1.485 . S
N40 C39 1.317 . S
N40 N44 1.370 . S
N41 C39 1.348 . S
N41 C43 1.346 . S
C42 C39 1.485 . S
C42 H46 0.960 . S
C42 H47 0.961 . S
C42 H48 0.960 . S
C43 N41 1.346 . S
C43 N44 1.307 . S
C43 C45 1.486 . S
N44 N40 1.370 . S
N44 C43 1.307 . S
C45 C43 1.486 . S
C45 H49 0.960 . S
C45 H50 0.960 . S
C45 H51 0.959 . S
H46 C42 0.960 . S
H47 C42 0.961 . S
H48 C42 0.960 . S
H49 C45 0.960 . S
H50 C45 0.960 . S
H51 C45 0.959 . S
O52 Mg53 1.990 . S
O52 C66 1.253 1_455 S
Mg53 O52 1.990 . S
Mg53 O56 2.180 . S
Mg53 O57 2.117 . S
Mg53 O71 2.030 . S
O54 Mg55 2.072 1_655 S
O54 C66 1.260 . S
Mg55 O54 2.072 1_455 S
Mg55 O56 2.099 . S
Mg55 O58 2.079 1_545 S
Mg55 O59 2.072 1_455 S
Mg55 O61 2.099 1_445 S
Mg55 O72 2.079 1_545 S
O56 Mg53 2.180 . S
O56 Mg55 2.099 . S
O56 C67 1.279 . S
O57 Mg53 2.117 . S
O57 C67 1.250 . S
O58 Mg55 2.079 1_565 S
O58 C68 1.264 . S
O59 Mg55 2.072 1_655 S
O59 C69 1.260 . S
Mg60 O61 2.180 . S
Mg60 O62 2.030 1_655 S
Mg60 O63 1.990 1_565 S
Mg60 O64 2.117 . S
O61 Mg55 2.099 1_665 S
O61 Mg60 2.180 . S
O61 C70 1.279 . S
O62 Mg60 2.030 1_455 S
O62 C68 1.248 . S
O63 Mg60 1.990 1_545 S
O63 C69 1.253 . S
O64 Mg60 2.117 . S
O64 C70 1.250 . S
C65 O71 1.248 1_565 S
C65 O72 1.264 . S
C66 O52 1.253 1_655 S
C66 O54 1.260 . S
C67 O56 1.279 . S
C67 O57 1.250 . S
C68 O58 1.264 . S
C68 O62 1.248 . S
C69 O59 1.260 . S
C69 O63 1.253 . S
C70 O61 1.279 . S
C70 O64 1.250 . S
O71 Mg53 2.030 . S
O71 C65 1.248 1_545 S
O72 Mg55 2.079 1_565 S
O72 C65 1.264 . S
O73 Mg74 1.990 . S
O73 C87 1.253 . S
Mg74 O73 1.990 . S
Mg74 O77 2.180 . S
Mg74 O78 2.117 . S
Mg74 O92 2.030 . S
O75 Mg76 2.072 . S
O75 C87 1.260 . S
Mg76 O75 2.072 . S
Mg76 O77 2.099 . S
Mg76 O79 2.079 1_554 S
Mg76 O80 2.072 1_554 S
Mg76 O82 2.099 . S
Mg76 O93 2.079 . S
O77 Mg74 2.180 . S
O77 Mg76 2.099 . S
O77 C88 1.279 . S
O78 Mg74 2.117 . S
O78 C88 1.250 . S
O79 Mg76 2.079 1_556 S
O79 C89 1.264 . S
O80 Mg76 2.072 1_556 S
O80 C90 1.260 . S
Mg81 O82 2.180 1_556 S
Mg81 O83 2.030 . S
Mg81 O84 1.990 . S
Mg81 O85 2.117 . S
O82 Mg76 2.099 . S
O82 Mg81 2.180 1_554 S
O82 C91 1.279 . S
O83 Mg81 2.030 . S
O83 C89 1.248 . S
O84 Mg81 1.990 . S
O84 C90 1.253 . S
O85 Mg81 2.117 . S
O85 C91 1.250 1_556 S
C86 O92 1.248 . S
C86 O93 1.264 . S
C87 O73 1.253 . S
C87 O75 1.260 . S
C88 O77 1.279 . S
C88 O78 1.250 . S
C89 O79 1.264 . S
C89 O83 1.248 . S
C90 O80 1.260 . S
C90 O84 1.253 . S
C91 O82 1.279 . S
C91 O85 1.250 1_554 S
O92 Mg74 2.030 . S
O92 C86 1.248 . S
O93 Mg76 2.079 . S
O93 C86 1.264 . S
H94 C102 0.950 . S
H95 C107 0.950 . S
H96 C104 0.950 . S
H97 C106 0.950 . S
H98 C108 0.950 . S
H99 C110 0.950 . S
H100 C112 0.950 . S
H101 C113 0.950 . S
C102 H94 0.950 . S
C102 C103 1.386 . S
C102 C104 1.391 . S
C103 C102 1.386 . S
C103 C107 1.393 . S
C104 H96 0.950 . S
C104 C102 1.391 . S
C104 C105 1.400 . S
C105 C104 1.400 . S
C105 C106 1.398 . S
C105 C111 1.491 . S
C106 H97 0.950 . S
C106 C105 1.398 . S
C106 C107 1.391 . S
C107 H95 0.950 . S
C107 C103 1.393 . S
C107 C106 1.391 . S
C108 H98 0.950 . S
C108 C109 1.386 . S
C108 C110 1.391 . S
C109 C108 1.386 . S
C109 C113 1.393 . S
C110 H99 0.950 . S
C110 C108 1.391 . S
C110 C111 1.400 . S
C111 C105 1.491 . S
C111 C110 1.400 . S
C111 C112 1.398 . S
C112 H100 0.950 . S
C112 C111 1.398 . S
C112 C113 1.391 . S
C113 H101 0.950 . S
C113 C109 1.393 . S
C113 C112 1.391 . S
H114 C122 0.950 1_556 S
H115 C127 0.950 . S
H116 C124 0.950 1_556 S
H117 C126 0.950 . S
H118 C128 0.950 . S
H119 C130 0.950 . S
H120 C132 0.950 1_556 S
H121 C133 0.949 1_556 S
C122 H114 0.950 1_554 S
C122 C123 1.386 . S
C122 C124 1.391 . S
C123 C122 1.386 . S
C123 C127 1.393 . S
C124 H116 0.950 1_554 S
C124 C122 1.391 . S
C124 C125 1.400 . S
C125 C124 1.400 . S
C125 C126 1.398 . S
C125 C131 1.491 . S
C126 H117 0.950 . S
C126 C125 1.398 . S
C126 C127 1.391 . S
C127 H115 0.950 . S
C127 C123 1.393 . S
C127 C126 1.391 . S
C128 H118 0.950 . S
C128 C129 1.386 . S
C128 C130 1.391 . S
C129 C128 1.386 . S
C129 C133 1.393 . S
C130 H119 0.950 . S
C130 C128 1.391 . S
C130 C131 1.400 . S
C131 C125 1.491 . S
C131 C130 1.400 . S
C131 C132 1.398 . S
C132 H120 0.950 1_554 S
C132 C131 1.398 . S
C132 C133 1.391 . S
C133 H121 0.949 1_554 S
C133 C129 1.393 . S
C133 C132 1.391 . S
H134 C142 0.950 . S
H135 C147 0.950 . S
H136 C144 0.950 . S
H137 C146 0.950 . S
H138 C148 0.950 . S
H139 C150 0.950 . S
H140 C152 0.950 . S
H141 C153 0.950 . S
C142 H134 0.950 . S
C142 C143 1.386 . S
C142 C144 1.391 . S
C143 C142 1.386 . S
C143 C147 1.393 . S
C144 H136 0.950 . S
C144 C142 1.391 . S
C144 C145 1.400 . S
C145 C144 1.400 . S
C145 C146 1.398 . S
C145 C151 1.491 . S
C146 H137 0.950 . S
C146 C145 1.398 . S
C146 C147 1.391 . S
C147 H135 0.950 . S
C147 C143 1.393 . S
C147 C146 1.391 . S
C148 H138 0.950 . S
C148 C149 1.386 . S
C148 C150 1.391 . S
C149 C148 1.386 . S
C149 C153 1.393 . S
C150 H139 0.950 . S
C150 C148 1.391 . S
C150 C151 1.400 . S
C151 C145 1.491 . S
C151 C150 1.400 . S
C151 C152 1.398 . S
C152 H140 0.950 . S
C152 C151 1.398 . S
C152 C153 1.391 . S
C153 H141 0.950 . S
C153 C149 1.393 . S
C153 C152 1.391 . S
H154 C162 0.950 . S
H155 C167 0.950 . S
H156 C164 0.950 . S
H157 C166 0.950 . S
H158 C168 0.950 . S
H159 C170 0.950 . S
H160 C172 0.950 . S
H161 C173 0.950 . S
C162 H154 0.950 . S
C162 C163 1.386 1_556 S
C162 C164 1.391 . S
C163 C162 1.386 1_554 S
C163 C167 1.393 . S
C164 H156 0.950 . S
C164 C162 1.391 . S
C164 C165 1.400 1_556 S
C165 C164 1.400 1_554 S
C165 C166 1.398 . S
C165 C171 1.491 . S
C166 H157 0.950 . S
C166 C165 1.398 . S
C166 C167 1.391 . S
C167 H155 0.950 . S
C167 C163 1.393 . S
C167 C166 1.391 . S
C168 H158 0.950 . S
C168 C169 1.386 . S
C168 C170 1.391 . S
C169 C168 1.386 . S
C169 C173 1.393 1_554 S
C170 H159 0.950 . S
C170 C168 1.391 . S
C170 C171 1.400 . S
C171 C165 1.491 . S
C171 C170 1.400 . S
C171 C172 1.398 1_554 S
C172 H160 0.950 . S
C172 C171 1.398 1_556 S
C172 C173 1.391 . S
C173 H161 0.950 . S
C173 C169 1.393 1_556 S
C173 C172 1.391 . S
H174 C182 0.950 . S
H175 C187 0.950 . S
H176 C184 0.950 . S
H177 C186 0.950 . S
H178 C188 0.950 . S
H179 C190 0.950 . S
H180 C192 0.950 . S
H181 C193 0.950 . S
C182 H174 0.950 . S
C182 C183 1.386 . S
C182 C184 1.391 . S
C183 C182 1.386 . S
C183 C187 1.393 . S
C184 H176 0.950 . S
C184 C182 1.391 . S
C184 C185 1.400 . S
C185 C184 1.400 . S
C185 C186 1.398 . S
C185 C191 1.491 . S
C186 H177 0.950 . S
C186 C185 1.398 . S
C186 C187 1.391 . S
C187 H175 0.950 . S
C187 C183 1.393 . S
C187 C186 1.391 . S
C188 H178 0.950 . S
C188 C189 1.386 . S
C188 C190 1.391 . S
C189 C188 1.386 . S
C189 C193 1.393 . S
C190 H179 0.950 . S
C190 C188 1.391 . S
C190 C191 1.400 . S
C191 C185 1.491 . S
C191 C190 1.400 . S
C191 C192 1.398 . S
C192 H180 0.950 . S
C192 C191 1.398 . S
C192 C193 1.391 . S
C193 H181 0.950 . S
C193 C189 1.393 . S
C193 C192 1.391 . S
H194 C202 0.950 . S
H195 C207 0.950 . S
H196 C204 0.950 . S
H197 C206 0.950 . S
H198 C208 0.950 . S
H199 C210 0.950 . S
H200 C212 0.950 . S
H201 C213 0.950 . S
C202 H194 0.950 . S
C202 C203 1.386 . S
C202 C204 1.391 . S
C203 C202 1.386 . S
C203 C207 1.393 . S
C204 H196 0.950 . S
C204 C202 1.391 . S
C204 C205 1.400 . S
C205 C204 1.400 . S
C205 C206 1.398 . S
C205 C211 1.491 . S
C206 H197 0.950 . S
C206 C205 1.398 . S
C206 C207 1.391 . S
C207 H195 0.950 . S
C207 C203 1.393 . S
C207 C206 1.391 . S
C208 H198 0.950 . S
C208 C209 1.386 . S
C208 C210 1.391 . S
C209 C208 1.386 . S
C209 C213 1.393 . S
C210 H199 0.950 . S
C210 C208 1.391 . S
C210 C211 1.400 . S
C211 C205 1.491 . S
C211 C210 1.400 . S
C211 C212 1.398 . S
C212 H200 0.950 . S
C212 C211 1.398 . S
C212 C213 1.391 . S
C213 H201 0.950 . S
C213 C209 1.393 . S
C213 C212 1.391 . S
H214 C222 0.950 . S
H215 C227 0.950 . S
H216 C224 0.950 . S
H217 C226 0.950 . S
H218 C228 0.950 . S
H219 C230 0.950 . S
H220 C232 0.950 . S
H221 C233 0.950 1_455 S
C222 H214 0.950 . S
C222 C223 1.386 . S
C222 C224 1.391 . S
C223 C222 1.386 . S
C223 C227 1.393 . S
C224 H216 0.950 . S
C224 C222 1.391 . S
C224 C225 1.400 . S
C225 C224 1.400 . S
C225 C226 1.398 . S
C225 C231 1.491 . S
C226 H217 0.950 . S
C226 C225 1.398 . S
C226 C227 1.391 . S
C227 H215 0.950 . S
C227 C223 1.393 . S
C227 C226 1.391 . S
C228 H218 0.950 . S
C228 C229 1.386 . S
C228 C230 1.391 . S
C229 C228 1.386 . S
C229 C233 1.393 . S
C230 H219 0.950 . S
C230 C228 1.391 . S
C230 C231 1.400 . S
C231 C225 1.491 . S
C231 C230 1.400 . S
C231 C232 1.398 . S
C232 H220 0.950 . S
C232 C231 1.398 . S
C232 C233 1.391 . S
C233 H221 0.950 1_655 S
C233 C229 1.393 . S
C233 C232 1.391 . S
H234 C242 0.950 . S
H235 C247 0.950 . S
H236 C244 0.950 . S
H237 C246 0.950 . S
H238 C248 0.950 . S
H239 C250 0.950 . S
H240 C252 0.950 . S
H241 C253 0.950 . S
C242 H234 0.950 . S
C242 C243 1.386 . S
C242 C244 1.391 . S
C243 C242 1.386 . S
C243 C247 1.393 . S
C244 H236 0.950 . S
C244 C242 1.391 . S
C244 C245 1.400 . S
C245 C244 1.400 . S
C245 C246 1.398 . S
C245 C251 1.491 . S
C246 H237 0.950 . S
C246 C245 1.398 . S
C246 C247 1.391 . S
C247 H235 0.950 . S
C247 C243 1.393 . S
C247 C246 1.391 . S
C248 H238 0.950 . S
C248 C249 1.386 . S
C248 C250 1.391 . S
C249 C248 1.386 . S
C249 C253 1.393 . S
C250 H239 0.950 . S
C250 C248 1.391 . S
C250 C251 1.400 . S
C251 C245 1.491 . S
C251 C250 1.400 . S
C251 C252 1.398 . S
C252 H240 0.950 . S
C252 C251 1.398 . S
C252 C253 1.391 . S
C253 H241 0.950 . S
C253 C249 1.393 . S
C253 C252 1.391 . S
H254 C262 0.950 . S
H255 C267 0.950 . S
H256 C264 0.950 . S
H257 C266 0.950 . S
H258 C268 0.950 . S
H259 C270 0.950 . S
H260 C272 0.950 . S
H261 C273 0.950 . S
C262 H254 0.950 . S
C262 C263 1.386 . S
C262 C264 1.391 . S
C263 C262 1.386 . S
C263 C267 1.393 . S
C264 H256 0.950 . S
C264 C262 1.391 . S
C264 C265 1.400 . S
C265 C264 1.400 . S
C265 C266 1.398 . S
C265 C271 1.491 . S
C266 H257 0.950 . S
C266 C265 1.398 . S
C266 C267 1.391 . S
C267 H255 0.950 . S
C267 C263 1.393 . S
C267 C266 1.391 . S
C268 H258 0.950 . S
C268 C269 1.386 . S
C268 C270 1.391 . S
C269 C268 1.386 . S
C269 C273 1.393 . S
C270 H259 0.950 . S
C270 C268 1.391 . S
C270 C271 1.400 . S
C271 C265 1.491 . S
C271 C270 1.400 . S
C271 C272 1.398 . S
C272 H260 0.950 . S
C272 C271 1.398 . S
C272 C273 1.391 . S
C273 H261 0.950 . S
C273 C269 1.393 . S
C273 C272 1.391 . S
H274 C282 0.950 . S
H275 C287 0.950 . S
H276 C284 0.950 . S
H277 C286 0.950 . S
H278 C288 0.950 . S
H279 C290 0.950 . S
H280 C292 0.950 . S
H281 C293 0.950 . S
C282 H274 0.950 . S
C282 C283 1.386 . S
C282 C284 1.391 . S
C283 C282 1.386 . S
C283 C287 1.393 . S
C284 H276 0.950 . S
C284 C282 1.391 . S
C284 C285 1.400 . S
C285 C284 1.400 . S
C285 C286 1.398 . S
C285 C291 1.491 . S
C286 H277 0.950 . S
C286 C285 1.398 . S
C286 C287 1.391 . S
C287 H275 0.950 . S
C287 C283 1.393 . S
C287 C286 1.391 . S
C288 H278 0.950 . S
C288 C289 1.386 . S
C288 C290 1.391 . S
C289 C288 1.386 . S
C289 C293 1.393 . S
C290 H279 0.950 . S
C290 C288 1.391 . S
C290 C291 1.400 . S
C291 C285 1.491 . S
C291 C290 1.400 . S
C291 C292 1.398 . S
C292 H280 0.950 . S
C292 C291 1.398 . S
C292 C293 1.391 . S
C293 H281 0.950 . S
C293 C289 1.393 . S
C293 C292 1.391 . S
H294 C302 0.950 . S
H295 C307 0.950 . S
H296 C304 0.950 . S
H297 C306 0.950 . S
H298 C308 0.950 . S
H299 C310 0.950 . S
H300 C312 0.950 . S
H301 C313 0.950 . S
C302 H294 0.950 . S
C302 C303 1.386 . S
C302 C304 1.391 . S
C303 C302 1.386 . S
C303 C307 1.393 . S
C304 H296 0.950 . S
C304 C302 1.391 . S
C304 C305 1.400 . S
C305 C304 1.400 . S
C305 C306 1.398 . S
C305 C311 1.491 . S
C306 H297 0.950 . S
C306 C305 1.398 . S
C306 C307 1.391 . S
C307 H295 0.950 . S
C307 C303 1.393 . S
C307 C306 1.391 . S
C308 H298 0.950 . S
C308 C309 1.386 . S
C308 C310 1.391 . S
C309 C308 1.386 . S
C309 C313 1.393 . S
C310 H299 0.950 . S
C310 C308 1.391 . S
C310 C311 1.400 . S
C311 C305 1.491 . S
C311 C310 1.400 . S
C311 C312 1.398 . S
C312 H300 0.950 . S
C312 C311 1.398 . S
C312 C313 1.391 . S
C313 H301 0.950 . S
C313 C309 1.393 . S
C313 C312 1.391 . S
H314 C322 0.950 1_554 S
H315 C327 0.950 . S
H316 C324 0.950 . S
H317 C326 0.950 . S
H318 C328 0.950 . S
H319 C330 0.950 . S
H320 C332 0.950 . S
H321 C333 0.950 . S
C322 H314 0.950 1_556 S
C322 C323 1.386 . S
C322 C324 1.391 . S
C323 C322 1.386 . S
C323 C327 1.393 . S
C324 H316 0.950 . S
C324 C322 1.391 . S
C324 C325 1.400 . S
C325 C324 1.400 . S
C325 C326 1.398 . S
C325 C331 1.491 . S
C326 H317 0.950 . S
C326 C325 1.398 . S
C326 C327 1.391 . S
C327 H315 0.950 . S
C327 C323 1.393 . S
C327 C326 1.391 . S
C328 H318 0.950 . S
C328 C329 1.386 . S
C328 C330 1.391 . S
C329 C328 1.386 . S
C329 C333 1.393 . S
C330 H319 0.950 . S
C330 C328 1.391 . S
C330 C331 1.400 . S
C331 C325 1.491 . S
C331 C330 1.400 . S
C331 C332 1.398 . S
C332 H320 0.950 . S
C332 C331 1.398 . S
C332 C333 1.391 . S
C333 H321 0.950 . S
C333 C329 1.393 . S
C333 C332 1.391 . S
C109 C67 1.257 . S
C103 N41 1.477 . S
C123 N2 1.474 . S
C129 C91 1.278 . S
C143 N15 1.608 . S
C149 C70 1.393 . S
C163 N28 1.607 . S
C169 C88 1.407 . S
C189 C68 1.453 . S
C183 N5 1.488 . S
C209 C90 1.526 . S
C203 N14 1.585 . S
C223 N27 1.543 . S
C229 C69 1.502 . S
C243 N44 1.477 . S
C249 C89 1.433 . S
C269 C87 1.497 . S
C263 N18 1.548 . S
C289 C66 1.529 . S
C283 N31 1.585 . S
C309 C86 1.466 . S
C303 N40 1.486 . S
C323 N1 1.486 1_556 S
C329 C65 1.456 . S
