# Generated by pormake.
# Topology anh, (6,3)-cn, num edge types: 1
# Building blocks:
#     Node 0, Type 0, BuildingBlock: CUKXOW_clean_sbu_0, # of connection points: 6
#     Node 1, Type 0, BuildingBlock: CUKXOW_clean_sbu_0, # of connection points: 6
#     Node 2, Type 0, BuildingBlock: CUKXOW_clean_sbu_0, # of connection points: 6
#     Node 3, Type 1, BuildingBlock: KAKCAD_clean_linker_0, # of connection points: 3
#     Node 4, Type 1, BuildingBlock: KAKCAD_clean_linker_0, # of connection points: 3
#     Node 5, Type 1, BuildingBlock: KAKCAD_clean_linker_0, # of connection points: 3
#     Node 6, Type 1, BuildingBlock: KAKCAD_clean_linker_0, # of connection points: 3
#     Node 7, Type 1, BuildingBlock: KAKCAD_clean_linker_0, # of connection points: 3
#     Node 8, Type 1, BuildingBlock: KAKCAD_clean_linker_0, # of connection points: 3
#     Edge 9, Type (0, 1), BuildingBlock: OJICUG_clean_linker_0, # of connection points: 2
#     Edge 10, Type (0, 1), BuildingBlock: OJICUG_clean_linker_0, # of connection points: 2
#     Edge 11, Type (0, 1), BuildingBlock: OJICUG_clean_linker_0, # of connection points: 2
#     Edge 12, Type (0, 1), BuildingBlock: OJICUG_clean_linker_0, # of connection points: 2
#     Edge 13, Type (0, 1), BuildingBlock: OJICUG_clean_linker_0, # of connection points: 2
#     Edge 14, Type (0, 1), BuildingBlock: OJICUG_clean_linker_0, # of connection points: 2
#     Edge 15, Type (0, 1), BuildingBlock: OJICUG_clean_linker_0, # of connection points: 2
#     Edge 16, Type (0, 1), BuildingBlock: OJICUG_clean_linker_0, # of connection points: 2
#     Edge 17, Type (0, 1), BuildingBlock: OJICUG_clean_linker_0, # of connection points: 2
#     Edge 18, Type (0, 1), BuildingBlock: OJICUG_clean_linker_0, # of connection points: 2
#     Edge 19, Type (0, 1), BuildingBlock: OJICUG_clean_linker_0, # of connection points: 2
#     Edge 20, Type (0, 1), BuildingBlock: OJICUG_clean_linker_0, # of connection points: 2
#     Edge 21, Type (0, 1), BuildingBlock: OJICUG_clean_linker_0, # of connection points: 2
#     Edge 22, Type (0, 1), BuildingBlock: OJICUG_clean_linker_0, # of connection points: 2
#     Edge 23, Type (0, 1), BuildingBlock: OJICUG_clean_linker_0, # of connection points: 2
#     Edge 24, Type (0, 1), BuildingBlock: OJICUG_clean_linker_0, # of connection points: 2
#     Edge 25, Type (0, 1), BuildingBlock: OJICUG_clean_linker_0, # of connection points: 2
#     Edge 26, Type (0, 1), BuildingBlock: OJICUG_clean_linker_0, # of connection points: 2
# Relax obj value: 0.136
# Max RMSD: 0.194
# Mean RMSD: 0.141
data_MOF--net-anh--node1-CUKXOW_clean_sbu_0--node2-KAKCAD_clean_linker_0--edge1-OJICUG_clean_linker_0
_symmetry_space_group_name_H-M    P1
_symmetry_Int_Tables_number       1
_symmetry_cell_setting            triclinic
loop_
_symmetry_equiv_pos_as_xyz
'x, y, z'
_cell_length_a     26.84423
_cell_length_b     26.039893
_cell_length_c     50.994089
_cell_angle_alpha  94.401639
_cell_angle_beta   90.25991
_cell_angle_gamma 112.09255
loop_
_atom_site_label
_atom_site_type_symbol
_atom_site_fract_x
_atom_site_fract_y
_atom_site_fract_z
_atom_type_partial_charge
Tb0 Tb 0.10816 0.57445 0.15516 0.0
C1 C 0.06248 0.51611 0.20486 0.0
Tb2 Tb 0.03542 0.45356 0.14737 0.0
O3 O 0.04081 0.59719 0.16869 0.0
O4 O 1.02681 0.52941 0.14137 0.0
O5 O 0.1041 0.55594 0.19575 0.0
C6 C 0.95167 0.35671 0.14893 0.0
O7 O 1.02676 0.47643 0.18899 0.0
C8 C 0.13898 0.4718 0.14568 0.0
C9 C 0.08052 0.51434 0.09729 0.0
O10 O 0.99848 0.36956 0.16044 0.0
O11 O 0.95242 0.39801 0.13604 0.0
O12 O 0.1011 0.42984 0.13308 0.0
O13 O 0.11727 0.49814 0.16057 0.0
O14 O 0.04202 0.4707 0.10614 0.0
O15 O 0.11283 0.55673 0.11309 0.0
C16 C 0.194 0.67013 0.15616 0.0
O17 O 0.14421 0.66568 0.15533 0.0
O18 O 0.19519 0.62098 0.15655 0.0
C19 C 1.00386 0.5553 0.15555 0.0
Tb20 Tb 0.50353 0.98187 0.50098 0.0
C21 C 0.56741 0.01647 0.44956 0.0
Tb22 Tb 0.62314 0.07042 0.50602 0.0
O23 O 0.47688 0.04408 0.48552 0.0
O24 O 0.5441 0.06827 0.51102 0.0
O25 O 0.52618 0.97837 0.4602 0.0
C26 C 0.69747 0.17086 0.50235 0.0
O27 O 0.60598 0.05736 0.46361 0.0
C28 C 0.61912 0.96711 0.50295 0.0
C29 C 0.56271 0.02695 0.55742 0.0
O30 O 0.65381 0.14817 0.48778 0.0
O31 O 0.69994 0.13669 0.51925 0.0
O32 O 0.66431 0.01036 0.50509 0.0
O33 O 0.58225 0.98546 0.50201 0.0
O34 O 0.60203 0.06806 0.54716 0.0
O35 O 0.52379 0.98688 0.54297 0.0
C36 C 0.41476 0.89161 0.50248 0.0
O37 O 0.41991 0.94117 0.51196 0.0
O38 O 0.45904 0.89318 0.49185 0.0
C39 C 0.51723 0.08607 0.49648 0.0
Tb40 Tb 0.50046 0.5223 0.82832 0.0
C41 C 0.56975 0.52576 0.8788 0.0
Tb42 Tb 0.61599 0.51814 0.82309 0.0
O43 O 0.46401 0.4338 0.83644 0.0
O44 O 0.53467 0.4639 0.81618 0.0
O45 O 0.5364 0.54602 0.86816 0.0
C46 C 0.69405 0.48083 0.81473 0.0
O47 O 0.59971 0.5046 0.86441 0.0
C48 C 0.6185 0.62169 0.8312 0.0
C49 C 0.54775 0.51715 0.77166 0.0
O50 O 0.66171 0.46883 0.83422 0.0
O51 O 0.68343 0.5151 0.80066 0.0
O52 O 0.66137 0.61038 0.82751 0.0
O53 O 0.58066 0.57546 0.831 0.0
O54 O 0.58788 0.50645 0.78214 0.0
O55 O 0.51012 0.52652 0.78587 0.0
C56 C 0.42763 0.56837 0.82966 0.0
O57 O 0.45975 0.57009 0.81061 0.0
O58 O 0.43451 0.53816 0.84739 0.0
C59 C 0.50451 0.42263 0.82736 0.0
C60 C 0.59534 0.07129 0.32536 0.0
C61 C 0.57507 0.01953 0.33614 0.0
C62 C 0.59559 0.07423 0.29812 0.0
C63 C 0.57539 0.02551 0.28102 0.0
C64 C 0.55555 0.97373 0.29175 0.0
C65 C 0.55541 0.97077 0.319 0.0
C66 C 0.57357 0.02879 0.2521 0.0
C67 C 0.61748 0.06556 0.23957 0.0
C68 C 0.61565 0.06988 0.21221 0.0
C69 C 0.56904 0.03521 0.19731 0.0
C70 C 0.52475 0.99814 0.20971 0.0
C71 C 0.52746 0.99545 0.23702 0.0
C72 C 0.47557 0.96036 0.19463 0.0
C73 C 0.42465 0.9548 0.20377 0.0
C74 C 0.47896 0.92439 0.17336 0.0
C75 C 0.43252 0.88098 0.16279 0.0
C76 C 0.38189 0.87305 0.17321 0.0
C77 C 0.66264 0.1108 0.1997 0.0
C78 C 0.6932 0.16221 0.21351 0.0
C79 C 0.67872 0.09855 0.17447 0.0
C80 C 0.72499 0.13609 0.16378 0.0
C81 C 0.75631 0.18602 0.17829 0.0
C82 C 0.73975 0.19897 0.20307 0.0
C83 C 0.37834 0.91171 0.19318 0.0
H84 H 0.60998 0.10971 0.33798 0.0
H85 H 0.61041 0.11475 0.29045 0.0
H86 H 0.54039 0.9354 0.27906 0.0
H87 H 0.5403 0.93023 0.32664 0.0
H88 H 0.65367 0.09005 0.25121 0.0
H89 H 0.49338 0.96695 0.24661 0.0
H90 H 0.5665 0.03788 0.17629 0.0
H91 H 0.42092 0.9823 0.22004 0.0
H92 H 0.51774 0.92771 0.16599 0.0
H93 H 0.4365 0.85237 0.14714 0.0
H94 H 0.68141 0.17413 0.23258 0.0
H95 H 0.65657 0.05934 0.16329 0.0
H96 H 0.34019 0.90676 0.20181 0.0
H97 H 0.763 0.23769 0.21442 0.0
H98 H 0.7372 0.12543 0.14458 0.0
C99 C 0.51966 0.55141 0.64538 0.0
C100 C 0.54078 0.51764 0.65814 0.0
C101 C 0.52131 0.55272 0.618 0.0
C102 C 0.54419 0.52035 0.60284 0.0
C103 C 0.56463 0.48612 0.61563 0.0
C104 C 0.56263 0.48452 0.64287 0.0
C105 C 0.54774 0.52262 0.57383 0.0
C106 C 0.56165 0.57336 0.56248 0.0
C107 C 0.56734 0.57594 0.53517 0.0
C108 C 0.55987 0.52702 0.51901 0.0
C109 C 0.54616 0.47601 0.53026 0.0
C110 C 0.53936 0.47414 0.55744 0.0
C111 C 0.54187 0.42405 0.51479 0.0
C112 C 0.49216 0.37905 0.51225 0.0
C113 C 0.58879 0.41512 0.50809 0.0
C114 C 0.58644 0.36129 0.50071 0.0
C115 C 0.53702 0.31559 0.4997 0.0
C116 C 0.58067 0.63042 0.5242 0.0
C117 C 0.5438 0.63918 0.50727 0.0
C118 C 0.6269 0.6759 0.53357 0.0
C119 C 0.63515 0.72957 0.52696 0.0
C120 C 0.59681 0.73898 0.51124 0.0
C121 C 0.55157 0.69309 0.50101 0.0
C122 C 0.48968 0.32538 0.50454 0.0
H123 H 0.5029 0.57775 0.65657 0.0
H124 H 0.50465 0.57906 0.60873 0.0
H125 H 0.58319 0.46118 0.60467 0.0
H126 H 0.5785 0.45736 0.65199 0.0
H127 H 0.5686 0.61127 0.57491 0.0
H128 H 0.52835 0.43453 0.56589 0.0
H129 H 0.5652 0.52873 0.498 0.0
H130 H 0.45564 0.38489 0.51785 0.0
H131 H 0.62766 0.4491 0.51043 0.0
H132 H 0.62353 0.35506 0.49691 0.0
H133 H 0.50758 0.6048 0.50005 0.0
H134 H 0.65569 0.67012 0.54681 0.0
H135 H 0.45108 0.29107 0.50419 0.0
H136 H 0.52152 0.69912 0.48873 0.0
H137 H 0.67015 0.76408 0.53531 0.0
C138 C 0.12251 0.61359 0.98333 0.0
C139 C 0.09875 0.55714 0.98817 0.0
C140 C 0.12363 0.62969 0.95781 0.0
C141 C 0.10075 0.58971 0.93665 0.0
C142 C 0.07785 0.53318 0.9414 0.0
C143 C 0.07678 0.51706 0.96692 0.0
C144 C 0.09947 0.60686 0.90974 0.0
C145 C 0.14547 0.64559 0.89943 0.0
C146 C 0.14506 0.65966 0.87325 0.0
C147 C 0.09679 0.63601 0.85807 0.0
C148 C 0.05183 0.59501 0.86773 0.0
C149 C 0.05291 0.58174 0.89372 0.0
C150 C 1.00466 0.56325 0.85031 0.0
C151 C 0.98194 0.59085 0.83443 0.0
C152 C 0.9807 0.50509 0.85042 0.0
C153 C 0.93207 0.47558 0.8367 0.0
C154 C 0.90685 0.50388 0.82267 0.0
C155 C 0.19686 0.6878 0.86033 0.0
C156 C 0.24292 0.7228 0.87535 0.0
C157 C 0.20361 0.66892 0.83444 0.0
C158 C 0.25452 0.67505 0.82601 0.0
C159 C 0.29909 0.69891 0.84351 0.0
C160 C 0.29393 0.72773 0.86711 0.0
C161 C 0.93338 0.56139 0.82069 0.0
H162 H 0.13906 0.64555 -0.00063 0.0
H163 H 0.1411 0.67353 0.95471 0.0
H164 H 0.06082 0.50134 0.92535 0.0
H165 H 0.05894 0.47324 0.97 0.0
H166 H 0.18245 0.66116 0.91133 0.0
H167 H 1.01731 0.55137 0.90143 0.0
H168 H 0.09513 0.6463 0.838 0.0
H169 H 0.99983 0.63563 0.83395 0.0
H170 H 0.99851 0.48273 0.86197 0.0
H171 H 0.91264 0.43125 0.83833 0.0
H172 H 0.23946 0.74082 0.89478 0.0
H173 H 0.16983 0.64263 0.82176 0.0
H174 H 0.91457 0.58458 0.81036 0.0
H175 H 0.32825 0.74787 0.88062 0.0
H176 H 0.25742 0.65317 0.80748 0.0
C177 C 0.99097 0.5137 0.32949 0.0
C178 C 0.03917 0.51747 0.31752 0.0
C179 C 0.98837 0.51746 0.35695 0.0
C180 C 0.03393 0.52497 0.37283 0.0
C181 C 0.08141 0.52671 0.36073 0.0
C182 C 0.08402 0.52312 0.33343 0.0
C183 C 0.03305 0.53194 0.40194 0.0
C184 C 0.98984 0.4974 0.41571 0.0
C185 C 0.99221 0.50104 0.44334 0.0
C186 C 0.0375 0.5398 0.45728 0.0
C187 C 0.08036 0.57542 0.44377 0.0
C188 C 0.07745 0.57169 0.41616 0.0
C189 C 0.12911 0.61557 0.45813 0.0
C190 C 0.12526 0.64837 0.48063 0.0
C191 C 0.18006 0.62289 0.44857 0.0
C192 C 0.22602 0.66408 0.46034 0.0
C193 C 0.22229 0.69859 0.48221 0.0
C194 C 0.9491 0.46112 0.45748 0.0
C195 C 0.89626 0.45862 0.4551 0.0
C196 C 0.96026 0.42307 0.47211 0.0
C197 C 0.91851 0.38081 0.48298 0.0
C198 C 0.86496 0.37652 0.47974 0.0
C199 C 0.85461 0.41717 0.46646 0.0
C200 C 0.1715 0.68957 0.49259 0.0
H201 H 0.95584 0.50955 0.31765 0.0
H202 H 0.95128 0.51605 0.36575 0.0
H203 H 0.11676 0.53096 0.37242 0.0
H204 H 0.12133 0.52488 0.32475 0.0
H205 H 0.95562 0.46583 0.40502 0.0
H206 H 0.11009 0.59984 0.40563 0.0
H207 H 0.03969 0.5414 0.47859 0.0
H208 H 0.08642 0.64355 0.48842 0.0
H209 H 0.18436 0.59748 0.43156 0.0
H210 H 0.26425 0.67025 0.45153 0.0
H211 H 0.88715 0.48817 0.44408 0.0
H212 H 1.00096 0.4244 0.47403 0.0
H213 H 0.16737 0.71506 0.50959 0.0
H214 H 0.8141 0.41607 0.46416 0.0
H215 H 0.92807 0.34999 0.49273 0.0
C216 C 0.53701 0.97019 0.6823 0.0
C217 C 0.55987 0.02094 0.6708 0.0
C218 C 0.53622 0.96898 0.70966 0.0
C219 C 0.5585 0.01848 0.72617 0.0
C220 C 0.5815 0.06917 0.71465 0.0
C221 C 0.582 0.07041 0.68734 0.0
C222 C 0.55832 0.0175 0.75529 0.0
C223 C 0.56982 0.9765 0.76742 0.0
C224 C 0.57245 0.97667 0.79503 0.0
C225 C 0.56268 0.01904 0.81068 0.0
C226 C 0.55056 0.0602 0.79857 0.0
C227 C 0.54816 0.05865 0.77106 0.0
C228 C 0.54267 0.10763 0.81347 0.0
C229 C 0.49141 0.1104 0.81343 0.0
C230 C 0.58756 0.15592 0.82127 0.0
C231 C 0.58165 0.20678 0.82729 0.0
C232 C 0.53067 0.2104 0.82567 0.0
C233 C 0.58591 0.93212 0.80657 0.0
C234 C 0.55525 0.9012 0.82636 0.0
C235 C 0.62636 0.91614 0.79551 0.0
C236 C 0.63382 0.86876 0.80272 0.0
C237 C 0.60164 0.83595 0.82161 0.0
C238 C 0.563 0.85368 0.83379 0.0
C239 C 0.48538 0.1611 0.81968 0.0
H240 H 0.52017 0.93122 0.67018 0.0
H241 H 0.51776 0.92927 0.71787 0.0
H242 H 0.59972 0.10802 0.72676 0.0
H243 H 0.59935 0.11031 0.67919 0.0
H244 H 0.57742 0.94446 0.75523 0.0
H245 H 0.53868 0.09028 0.76191 0.0
H246 H 0.56522 0.02048 0.83195 0.0
H247 H 0.45635 0.07406 0.80679 0.0
H248 H 0.62763 0.15516 0.82083 0.0
H249 H 0.61733 0.24377 0.83212 0.0
H250 H 0.52371 0.91227 0.83525 0.0
H251 H 0.65129 0.93935 0.78046 0.0
H252 H 0.44561 0.16229 0.81799 0.0
H253 H 0.538 0.83036 0.84876 0.0
H254 H 0.6635 0.85675 0.7925 0.0
C255 C 0.60787 0.50313 0.00584 0.0
C256 C 0.5761 0.52625 0.99269 0.0
C257 C 0.60692 0.50134 0.03318 0.0
C258 C 0.57522 0.5239 0.04839 0.0
C259 C 0.54403 0.54773 0.03529 0.0
C260 C 0.54394 0.54826 0.00789 0.0
C261 C 0.57459 0.52243 0.0777 0.0
C262 C 0.6208 0.52615 0.09209 0.0
C263 C 0.62068 0.52336 0.11947 0.0
C264 C 0.57319 0.51841 0.13302 0.0
C265 C 0.52636 0.51542 0.11886 0.0
C266 C 0.52767 0.51676 0.09138 0.0
C267 C 0.47435 0.50937 0.13143 0.0
C268 C 0.43272 0.45665 0.13093 0.0
C269 C 0.4617 0.55644 0.13804 0.0
C270 C 0.4084 0.55098 0.14314 0.0
C271 C 0.36606 0.49825 0.14134 0.0
C272 C 0.6712 0.52466 0.13258 0.0
C273 C 0.68387 0.47682 0.13047 0.0
C274 C 0.71201 0.57563 0.14144 0.0
C275 C 0.76454 0.57894 0.14732 0.0
C276 C 0.77802 0.53137 0.14425 0.0
C277 C 0.73629 0.48001 0.13635 0.0
C278 C 0.37953 0.45114 0.13592 0.0
H279 H 0.63398 0.48656 -0.00488 0.0
H280 H 0.63082 0.48163 0.04227 0.0
H281 H 0.51972 0.56645 0.04615 0.0
H282 H 0.51802 0.56553 -0.0013 0.0
H283 H 0.6577 0.53161 0.08204 0.0
H284 H 0.49119 0.51243 0.08063 0.0
H285 H 0.57253 0.51639 0.15415 0.0
H286 H 0.44087 0.41968 0.1253 0.0
H287 H 0.49256 0.5977 0.13781 0.0
H288 H 0.39998 0.58833 0.14699 0.0
H289 H 0.65369 0.43717 0.12305 0.0
H290 H 0.70401 0.61351 0.14244 0.0
H291 H 0.34855 0.40974 0.13474 0.0
H292 H 0.7443 0.44218 0.1341 0.0
H293 H 0.7952 0.61945 0.15297 0.0
C294 C 0.21409 0.44687 0.12704 0.0
C295 C 0.19743 0.48024 0.14514 0.0
H296 H 0.27891 0.42649 0.11148 0.0
C297 C 0.23683 0.51992 0.16232 0.0
H298 H 0.18513 0.41599 0.1134 0.0
C299 C 0.29141 0.52614 0.16119 0.0
C300 C 0.30794 0.49226 0.14312 0.0
H301 H 0.2255 0.54579 0.1768 0.0
H302 H 0.32053 0.55692 0.17478 0.0
C303 C 0.26817 0.45267 0.12606 0.0
C304 C 0.78443 0.24961 0.51529 0.0
C305 C 0.73863 0.2256 0.49852 0.0
H306 H 0.85986 0.31767 0.52311 0.0
C307 C 0.73273 0.25335 0.47694 0.0
H308 H 0.78949 0.22905 0.53219 0.0
C309 C 0.77302 0.30309 0.47143 0.0
C310 C 0.8199 0.32684 0.48763 0.0
H311 H 0.69767 0.23567 0.4637 0.0
H312 H 0.76816 0.32153 0.45376 0.0
C313 C 0.82469 0.30011 0.50997 0.0
C314 C 0.56572 0.68378 0.83512 0.0
C315 C 0.61489 0.67729 0.83152 0.0
H316 H 0.5222 0.73774 0.83428 0.0
C317 C 0.66065 0.72434 0.82725 0.0
H318 H 0.53033 0.64878 0.83943 0.0
C319 C 0.6568 0.77614 0.82531 0.0
C320 C 0.60683 0.78224 0.82719 0.0
H321 H 0.69941 0.72096 0.82488 0.0
H322 H 0.69312 0.81125 0.82194 0.0
C323 C 0.56149 0.73535 0.8327 0.0
C324 C 0.92501 0.57992 0.16976 0.0
C325 C 0.94566 0.54729 0.1533 0.0
H326 H 0.85683 0.60012 0.18032 0.0
C327 C 0.91043 0.50833 0.13434 0.0
H328 H 0.95086 0.61022 0.18467 0.0
C329 C 0.85629 0.50263 0.1317 0.0
C330 C 0.83553 0.53576 0.14794 0.0
H331 H 0.92494 0.48292 0.12112 0.0
H332 H 0.83112 0.47313 0.11635 0.0
C333 C 0.87092 0.57428 0.16714 0.0
C334 C 0.36831 0.78922 0.49685 0.0
C335 C 0.36543 0.84167 0.50179 0.0
H336 H 0.32492 0.70208 0.48814 0.0
C337 C 0.31513 0.84605 0.50392 0.0
H338 H 0.40687 0.78492 0.49558 0.0
C339 C 0.2681 0.79881 0.49904 0.0
C340 C 0.27088 0.74651 0.49237 0.0
H341 H 0.31217 0.88628 0.50779 0.0
H342 H 0.2299 0.80393 0.49894 0.0
C343 C 0.32143 0.74194 0.49249 0.0
C344 C 0.55429 0.36066 0.81459 0.0
C345 C 0.51169 0.36884 0.82778 0.0
H346 H 0.59388 0.30492 0.80377 0.0
C347 C 0.476 0.32503 0.84101 0.0
H348 H 0.58184 0.39318 0.80379 0.0
C349 C 0.48254 0.27393 0.8408 0.0
C350 C 0.52525 0.26571 0.82758 0.0
H351 H 0.44278 0.33008 0.85135 0.0
H352 H 0.45415 0.24083 0.85101 0.0
C353 C 0.56122 0.30998 0.81463 0.0
C354 C 0.65659 0.89225 0.49889 0.0
C355 C 0.61293 0.90841 0.50391 0.0
H356 H 0.68561 0.82567 0.49695 0.0
C357 C 0.56405 0.86846 0.5109 0.0
H358 H 0.69496 0.9224 0.49371 0.0
C359 C 0.55834 0.81312 0.51233 0.0
C360 C 0.60196 0.7968 0.50743 0.0
H361 H 0.53089 0.88039 0.51634 0.0
H362 H 0.52035 0.78352 0.5183 0.0
C363 C 0.65122 0.83698 0.50072 0.0
C364 C 0.77593 0.48711 0.791 0.0
C365 C 0.74221 0.46777 0.81199 0.0
H366 H 0.85616 0.51183 0.77743 0.0
C367 C 0.75959 0.44525 0.83257 0.0
H368 H 0.7627 0.5035 0.7746 0.0
C369 C 0.81299 0.45012 0.83421 0.0
C370 C 0.84913 0.4775 0.81524 0.0
H371 H 0.73377 0.42929 0.84873 0.0
H372 H 0.82711 0.4385 0.85189 0.0
C373 C 0.82925 0.49174 0.79257 0.0
C374 C 0.23669 0.77416 0.15947 0.0
C375 C 0.24188 0.72237 0.15792 0.0
H376 H 0.27711 0.86278 0.16494 0.0
C377 C 0.29345 0.72062 0.15918 0.0
H378 H 0.19734 0.77659 0.1584 0.0
C379 C 0.33901 0.76973 0.16292 0.0
C380 C 0.33398 0.82172 0.16553 0.0
H381 H 0.29857 0.68118 0.15799 0.0
H382 H 0.37798 0.76674 0.16495 0.0
C383 C 0.28233 0.82341 0.16327 0.0
C384 C 0.56545 0.18688 0.51132 0.0
C385 C 0.52491 0.14524 0.49562 0.0
H386 H 0.60154 0.27336 0.52454 0.0
C387 C 0.49027 0.16041 0.47998 0.0
H388 H 0.59221 0.17636 0.52388 0.0
C389 C 0.49515 0.21598 0.4806 0.0
C390 C 0.5352 0.25759 0.49663 0.0
H391 H 0.45864 0.12915 0.46769 0.0
H392 H 0.46717 0.22635 0.46879 0.0
C393 C 0.57085 0.24249 0.51164 0.0
C394 C 0.37777 0.61232 0.8581 0.0
C395 C 0.39806 0.60531 0.83343 0.0
H396 H 0.33224 0.64986 0.88085 0.0
C397 C 0.39296 0.63654 0.81306 0.0
H398 H 0.3823 0.58955 0.87426 0.0
C399 C 0.36471 0.67175 0.81688 0.0
C400 C 0.34203 0.67667 0.84124 0.0
H401 H 0.40946 0.63257 0.79401 0.0
H402 H 0.35835 0.69302 0.8005 0.0
C403 C 0.3503 0.64794 0.86202 0.0
C404 C 0.90356 0.2758 0.1746 0.0
C405 C 0.90303 0.30806 0.15385 0.0
H406 H 0.8569 0.21194 0.19868 0.0
C407 C 0.85449 0.29664 0.13966 0.0
H408 H 0.94033 0.2839 0.18596 0.0
C409 C 0.80691 0.25476 0.14669 0.0
C410 C 0.80717 0.22453 0.16829 0.0
H411 H 0.85301 0.3211 0.12363 0.0
H412 H 0.76958 0.24768 0.13605 0.0
C413 C 0.85594 0.23478 0.18192 0.0
C414 C 0.04376 0.49018 0.05079 0.0
C415 C 0.08674 0.51887 0.06879 0.0
H416 H 1.01356 0.48052 0.01102 0.0
C417 C 0.13514 0.55612 0.05963 0.0
H418 H 1.00599 0.46133 0.05735 0.0
C419 C 0.13963 0.56679 0.03324 0.0
C420 C 0.09574 0.54067 0.01544 0.0
H421 H 0.16934 0.57817 0.07298 0.0
H422 H 0.17721 0.59639 0.02687 0.0
C423 C 0.04817 0.50114 0.02429 0.0
C424 C 0.52748 0.9776 0.40423 0.0
C425 C 0.57024 0.0148 0.42051 0.0
H426 H 0.49509 0.95041 0.36489 0.0
C427 C 0.6153 0.05211 0.40874 0.0
H428 H 0.49208 0.94843 0.4126 0.0
C429 C 0.61715 0.05296 0.38143 0.0
C430 C 0.57396 0.01667 0.36515 0.0
H431 H 0.6492 0.08114 0.42061 0.0
H432 H 0.65256 0.08213 0.37305 0.0
C433 C 0.5293 0.97857 0.37685 0.0
C434 C 0.58856 0.5158 0.72789 0.0
C435 C 0.545 0.51732 0.74268 0.0
H436 H 0.6219 0.51619 0.69 0.0
C437 C 0.49993 0.51976 0.72949 0.0
H438 H 0.6243 0.51467 0.73736 0.0
C439 C 0.49835 0.51999 0.70203 0.0
C440 C 0.5419 0.51805 0.6873 0.0
H441 H 0.46573 0.52103 0.7403 0.0
H442 H 0.46274 0.52087 0.69234 0.0
C443 C 0.58712 0.51639 0.70062 0.0
C444 C 0.51709 0.98856 0.59838 0.0
C445 C 0.56189 0.02568 0.5864 0.0
H446 H 0.48082 0.9587 0.6343 0.0
C447 C 0.60608 0.06113 0.60238 0.0
H448 H 0.48222 0.96082 0.58669 0.0
C449 C 0.60553 0.05937 0.62969 0.0
C450 C 0.56064 0.02241 0.6417 0.0
H451 H 0.64144 0.08993 0.59381 0.0
H452 H 0.64067 0.08655 0.64136 0.0
C453 C 0.5164 0.98707 0.6257 0.0
C454 C 0.5652 0.56931 0.92369 0.0
C455 C 0.57357 0.5271 0.90776 0.0
H456 H 0.56202 0.60391 0.96265 0.0
C457 C 0.58387 0.48521 0.91975 0.0
H458 H 0.55766 0.60244 0.91493 0.0
C459 C 0.58444 0.48473 0.94717 0.0
C460 C 0.57612 0.52702 0.96334 0.0
H461 H 0.58983 0.45177 0.9079 0.0
H462 H 0.59026 0.45037 0.95554 0.0
C463 C 0.5672 0.56973 0.95112 0.0
C464 C 0.09523 0.55558 0.25073 0.0
C465 C 0.05558 0.51642 0.23361 0.0
H466 H 0.12066 0.5869 0.29053 0.0
C467 C 1.00959 0.47805 0.24428 0.0
H468 H 0.13105 0.58592 0.24324 0.0
C469 C 1.00367 0.47869 0.27154 0.0
C470 C 0.04382 0.51741 0.28858 0.0
H471 H 0.9782 0.44745 0.23161 0.0
H472 H 0.96823 0.44829 0.27929 0.0
C473 C 0.08943 0.55601 0.27788 0.0
loop_
_geom_bond_atom_site_label_1
_geom_bond_atom_site_label_2
_geom_bond_distance
_geom_bond_site_symmetry_2
_ccdc_geom_bond_type
Tb0 O3 2.453 1_455 S
Tb0 O4 2.596 1_455 S
Tb0 O5 2.374 . S
Tb0 O13 2.343 . S
Tb0 O15 2.353 . S
Tb0 O17 2.427 . S
Tb0 O18 2.513 . S
C1 O5 1.251 . S
C1 O7 1.263 . S
Tb2 O4 2.343 1_455 S
Tb2 O7 2.353 . S
Tb2 O10 2.427 1_455 S
Tb2 O11 2.513 1_455 S
Tb2 O12 2.453 . S
Tb2 O13 2.596 . S
Tb2 O14 2.374 . S
O3 Tb0 2.453 1_655 S
O3 C19 1.245 . S
O4 Tb0 2.596 1_655 S
O4 Tb2 2.343 1_655 S
O4 C19 1.259 . S
O5 Tb0 2.374 . S
O5 C1 1.251 . S
C6 O10 1.275 . S
C6 O11 1.246 . S
O7 C1 1.263 . S
O7 Tb2 2.353 . S
C8 O12 1.245 . S
C8 O13 1.259 . S
C9 O14 1.250 . S
C9 O15 1.263 . S
O10 Tb2 2.427 1_655 S
O10 C6 1.275 . S
O11 Tb2 2.513 1_655 S
O11 C6 1.246 . S
O12 Tb2 2.453 . S
O12 C8 1.245 . S
O13 Tb0 2.343 . S
O13 Tb2 2.596 . S
O13 C8 1.259 . S
O14 Tb2 2.374 . S
O14 C9 1.250 . S
O15 Tb0 2.353 . S
O15 C9 1.263 . S
C16 O17 1.275 . S
C16 O18 1.246 . S
O17 Tb0 2.427 . S
O17 C16 1.275 . S
O18 Tb0 2.513 . S
O18 C16 1.246 . S
C19 O3 1.245 . S
C19 O4 1.259 . S
Tb20 O23 2.453 . S
Tb20 O24 2.596 . S
Tb20 O25 2.374 . S
Tb20 O33 2.343 1_545 S
Tb20 O35 2.353 . S
Tb20 O37 2.427 1_545 S
Tb20 O38 2.513 1_545 S
C21 O25 1.251 . S
C21 O27 1.263 . S
Tb22 O24 2.343 . S
Tb22 O27 2.353 . S
Tb22 O30 2.427 . S
Tb22 O31 2.513 . S
Tb22 O32 2.453 1_545 S
Tb22 O33 2.596 1_545 S
Tb22 O34 2.374 . S
O23 Tb20 2.453 . S
O23 C39 1.245 . S
O24 Tb20 2.596 . S
O24 Tb22 2.343 . S
O24 C39 1.259 . S
O25 Tb20 2.374 . S
O25 C21 1.251 . S
C26 O30 1.275 . S
C26 O31 1.246 . S
O27 C21 1.263 . S
O27 Tb22 2.353 . S
C28 O32 1.245 . S
C28 O33 1.259 . S
C29 O34 1.250 . S
C29 O35 1.263 . S
O30 Tb22 2.427 . S
O30 C26 1.275 . S
O31 Tb22 2.513 . S
O31 C26 1.246 . S
O32 Tb22 2.453 1_565 S
O32 C28 1.245 . S
O33 Tb20 2.343 1_565 S
O33 Tb22 2.596 1_565 S
O33 C28 1.259 . S
O34 Tb22 2.374 . S
O34 C29 1.250 . S
O35 Tb20 2.353 . S
O35 C29 1.263 . S
C36 O37 1.275 . S
C36 O38 1.246 . S
O37 Tb20 2.427 1_565 S
O37 C36 1.275 . S
O38 Tb20 2.513 1_565 S
O38 C36 1.246 . S
C39 O23 1.245 . S
C39 O24 1.259 . S
Tb40 O43 2.453 . S
Tb40 O44 2.596 . S
Tb40 O45 2.374 . S
Tb40 O53 2.343 . S
Tb40 O55 2.353 . S
Tb40 O57 2.427 . S
Tb40 O58 2.513 . S
C41 O45 1.251 . S
C41 O47 1.263 . S
Tb42 O44 2.343 . S
Tb42 O47 2.353 . S
Tb42 O50 2.427 . S
Tb42 O51 2.513 . S
Tb42 O52 2.453 . S
Tb42 O53 2.596 . S
Tb42 O54 2.374 . S
O43 Tb40 2.453 . S
O43 C59 1.245 . S
O44 Tb40 2.596 . S
O44 Tb42 2.343 . S
O44 C59 1.259 . S
O45 Tb40 2.374 . S
O45 C41 1.251 . S
C46 O50 1.275 . S
C46 O51 1.246 . S
O47 C41 1.263 . S
O47 Tb42 2.353 . S
C48 O52 1.245 . S
C48 O53 1.259 . S
C49 O54 1.250 . S
C49 O55 1.263 . S
O50 Tb42 2.427 . S
O50 C46 1.275 . S
O51 Tb42 2.513 . S
O51 C46 1.246 . S
O52 Tb42 2.453 . S
O52 C48 1.245 . S
O53 Tb40 2.343 . S
O53 Tb42 2.596 . S
O53 C48 1.259 . S
O54 Tb42 2.374 . S
O54 C49 1.250 . S
O55 Tb40 2.353 . S
O55 C49 1.263 . S
C56 O57 1.275 . S
C56 O58 1.246 . S
O57 Tb40 2.427 . S
O57 C56 1.275 . S
O58 Tb40 2.513 . S
O58 C56 1.246 . S
C59 O43 1.245 . S
C59 O44 1.259 . S
C60 C61 1.386 . S
C60 C62 1.397 . S
C60 H84 0.931 . S
C61 C60 1.386 . S
C61 C65 1.397 . S
C62 C60 1.397 . S
C62 C63 1.384 . S
C62 H85 0.930 . S
C63 C62 1.384 . S
C63 C64 1.377 . S
C63 C66 1.481 . S
C64 C63 1.377 . S
C64 C65 1.389 . S
C64 H86 0.929 1_545 S
C65 C61 1.397 . S
C65 C64 1.389 . S
C65 H87 0.931 1_545 S
C66 C63 1.481 . S
C66 C67 1.387 . S
C66 C71 1.390 . S
C67 C66 1.387 . S
C67 C68 1.401 . S
C67 H88 0.930 . S
C68 C67 1.401 . S
C68 C69 1.376 . S
C68 C77 1.511 . S
C69 C68 1.376 . S
C69 C70 1.392 1_545 S
C69 H90 0.931 . S
C70 C69 1.392 1_565 S
C70 C71 1.361 1_565 S
C70 C72 1.500 . S
C71 C66 1.390 . S
C71 C70 1.361 1_545 S
C71 H89 0.931 1_545 S
C72 C70 1.500 . S
C72 C73 1.371 . S
C72 C74 1.365 . S
C73 C72 1.371 . S
C73 C83 1.386 . S
C73 H91 0.931 . S
C74 C72 1.365 . S
C74 C75 1.409 . S
C74 H92 0.929 . S
C75 C74 1.409 . S
C75 C76 1.380 . S
C75 H93 0.930 . S
C76 C75 1.380 . S
C76 C83 1.357 . S
C77 C68 1.511 . S
C77 C78 1.341 . S
C77 C79 1.371 . S
C78 C77 1.341 . S
C78 C82 1.394 . S
C78 H94 0.930 . S
C79 C77 1.371 . S
C79 C80 1.392 . S
C79 H95 0.931 . S
C80 C79 1.392 . S
C80 C81 1.331 . S
C80 H98 0.932 . S
C81 C80 1.331 . S
C81 C82 1.336 . S
C82 C78 1.394 . S
C82 C81 1.336 . S
C82 H97 0.929 . S
C83 C73 1.386 . S
C83 C76 1.357 . S
C83 H96 0.928 . S
H84 C60 0.931 . S
H85 C62 0.930 . S
H86 C64 0.929 1_565 S
H87 C65 0.931 1_565 S
H88 C67 0.930 . S
H89 C71 0.931 1_565 S
H90 C69 0.931 . S
H91 C73 0.931 . S
H92 C74 0.929 . S
H93 C75 0.930 . S
H94 C78 0.930 . S
H95 C79 0.931 . S
H96 C83 0.928 . S
H97 C82 0.929 . S
H98 C80 0.932 . S
C99 C100 1.386 . S
C99 C101 1.397 . S
C99 H123 0.931 . S
C100 C99 1.386 . S
C100 C104 1.397 . S
C101 C99 1.397 . S
C101 C102 1.384 . S
C101 H124 0.930 . S
C102 C101 1.384 . S
C102 C103 1.377 . S
C102 C105 1.481 . S
C103 C102 1.377 . S
C103 C104 1.389 . S
C103 H125 0.929 . S
C104 C100 1.397 . S
C104 C103 1.389 . S
C104 H126 0.931 . S
C105 C102 1.481 . S
C105 C106 1.387 . S
C105 C110 1.390 . S
C106 C105 1.387 . S
C106 C107 1.401 . S
C106 H127 0.930 . S
C107 C106 1.401 . S
C107 C108 1.376 . S
C107 C116 1.511 . S
C108 C107 1.376 . S
C108 C109 1.392 . S
C108 H129 0.931 . S
C109 C108 1.392 . S
C109 C110 1.361 . S
C109 C111 1.500 . S
C110 C105 1.390 . S
C110 C109 1.361 . S
C110 H128 0.931 . S
C111 C109 1.500 . S
C111 C112 1.371 . S
C111 C113 1.365 . S
C112 C111 1.371 . S
C112 C122 1.386 . S
C112 H130 0.931 . S
C113 C111 1.365 . S
C113 C114 1.409 . S
C113 H131 0.929 . S
C114 C113 1.409 . S
C114 C115 1.380 . S
C114 H132 0.930 . S
C115 C114 1.380 . S
C115 C122 1.357 . S
C116 C107 1.511 . S
C116 C117 1.341 . S
C116 C118 1.371 . S
C117 C116 1.341 . S
C117 C121 1.394 . S
C117 H133 0.930 . S
C118 C116 1.371 . S
C118 C119 1.392 . S
C118 H134 0.931 . S
C119 C118 1.392 . S
C119 C120 1.331 . S
C119 H137 0.932 . S
C120 C119 1.331 . S
C120 C121 1.336 . S
C121 C117 1.394 . S
C121 C120 1.336 . S
C121 H136 0.929 . S
C122 C112 1.386 . S
C122 C115 1.357 . S
C122 H135 0.928 . S
H123 C99 0.931 . S
H124 C101 0.930 . S
H125 C103 0.929 . S
H126 C104 0.931 . S
H127 C106 0.930 . S
H128 C110 0.931 . S
H129 C108 0.931 . S
H130 C112 0.931 . S
H131 C113 0.929 . S
H132 C114 0.930 . S
H133 C117 0.930 . S
H134 C118 0.931 . S
H135 C122 0.928 . S
H136 C121 0.929 . S
H137 C119 0.932 . S
C138 C139 1.386 1_556 S
C138 C140 1.397 . S
C138 H162 0.931 1_556 S
C139 C138 1.386 1_554 S
C139 C143 1.397 1_554 S
C140 C138 1.397 . S
C140 C141 1.384 . S
C140 H163 0.930 . S
C141 C140 1.384 . S
C141 C142 1.377 . S
C141 C144 1.481 . S
C142 C141 1.377 . S
C142 C143 1.389 . S
C142 H164 0.929 1_455 S
C143 C139 1.397 1_556 S
C143 C142 1.389 . S
C143 H165 0.931 1_455 S
C144 C141 1.481 . S
C144 C145 1.387 . S
C144 C149 1.390 . S
C145 C144 1.387 . S
C145 C146 1.401 . S
C145 H166 0.930 . S
C146 C145 1.401 . S
C146 C147 1.376 . S
C146 C155 1.511 . S
C147 C146 1.376 . S
C147 C148 1.392 . S
C147 H168 0.931 . S
C148 C147 1.392 . S
C148 C149 1.361 . S
C148 C150 1.500 1_455 S
C149 C144 1.390 . S
C149 C148 1.361 . S
C149 H167 0.935 . S
C150 C148 1.500 1_655 S
C150 C151 1.371 . S
C150 C152 1.365 . S
C151 C150 1.371 . S
C151 C161 1.386 . S
C151 H169 0.931 1_655 S
C152 C150 1.365 . S
C152 C153 1.409 . S
C152 H170 0.929 . S
C153 C152 1.409 . S
C153 C154 1.380 . S
C153 H171 0.930 . S
C154 C153 1.380 . S
C154 C161 1.357 . S
C155 C146 1.511 . S
C155 C156 1.341 . S
C155 C157 1.371 . S
C156 C155 1.341 . S
C156 C160 1.394 . S
C156 H172 0.930 . S
C157 C155 1.371 . S
C157 C158 1.392 . S
C157 H173 0.931 . S
C158 C157 1.392 . S
C158 C159 1.331 . S
C158 H176 0.932 . S
C159 C158 1.331 . S
C159 C160 1.336 . S
C160 C156 1.394 . S
C160 C159 1.336 . S
C160 H175 0.929 . S
C161 C151 1.386 . S
C161 C154 1.357 . S
C161 H174 0.928 . S
H162 C138 0.931 1_554 S
H163 C140 0.930 . S
H164 C142 0.929 1_655 S
H165 C143 0.931 1_655 S
H166 C145 0.930 . S
H167 C149 0.935 . S
H168 C147 0.931 . S
H169 C151 0.931 1_455 S
H170 C152 0.929 . S
H171 C153 0.930 . S
H172 C156 0.930 . S
H173 C157 0.931 . S
H174 C161 0.928 . S
H175 C160 0.929 . S
H176 C158 0.932 . S
C177 C178 1.386 . S
C177 C179 1.397 . S
C177 H201 0.931 . S
C178 C177 1.386 . S
C178 C182 1.397 1_655 S
C179 C177 1.397 . S
C179 C180 1.384 . S
C179 H202 0.930 . S
C180 C179 1.384 . S
C180 C181 1.377 1_655 S
C180 C183 1.481 . S
C181 C180 1.377 1_455 S
C181 C182 1.389 . S
C181 H203 0.929 . S
C182 C178 1.397 1_455 S
C182 C181 1.389 . S
C182 H204 0.931 . S
C183 C180 1.481 . S
C183 C184 1.387 . S
C183 C188 1.390 1_655 S
C184 C183 1.387 . S
C184 C185 1.401 . S
C184 H205 0.930 . S
C185 C184 1.401 . S
C185 C186 1.368 1_655 S
C185 C194 1.511 . S
C186 C185 1.368 1_455 S
C186 C187 1.401 . S
C186 H207 0.930 . S
C187 C186 1.401 . S
C187 C188 1.361 . S
C187 C189 1.500 . S
C188 C183 1.390 1_455 S
C188 C187 1.361 . S
C188 H206 0.931 . S
C189 C187 1.500 . S
C189 C190 1.371 . S
C189 C191 1.365 . S
C190 C189 1.371 . S
C190 C200 1.386 . S
C190 H208 0.931 . S
C191 C189 1.365 . S
C191 C192 1.409 . S
C191 H209 0.929 . S
C192 C191 1.409 . S
C192 C193 1.380 . S
C192 H210 0.930 . S
C193 C192 1.380 . S
C193 C200 1.357 . S
C194 C185 1.511 . S
C194 C195 1.341 . S
C194 C196 1.371 . S
C195 C194 1.341 . S
C195 C199 1.394 . S
C195 H211 0.930 . S
C196 C194 1.371 . S
C196 C197 1.392 . S
C196 H212 0.931 . S
C197 C196 1.392 . S
C197 C198 1.331 . S
C197 H215 0.932 . S
C198 C197 1.331 . S
C198 C199 1.336 . S
C199 C195 1.394 . S
C199 C198 1.336 . S
C199 H214 0.929 . S
C200 C190 1.386 . S
C200 C193 1.357 . S
C200 H213 0.928 . S
H201 C177 0.931 . S
H202 C179 0.930 . S
H203 C181 0.929 . S
H204 C182 0.931 . S
H205 C184 0.930 . S
H206 C188 0.931 . S
H207 C186 0.930 . S
H208 C190 0.931 . S
H209 C191 0.929 . S
H210 C192 0.930 . S
H211 C195 0.930 . S
H212 C196 0.931 . S
H213 C200 0.928 . S
H214 C199 0.929 . S
H215 C197 0.932 . S
C216 C217 1.386 1_565 S
C216 C218 1.397 . S
C216 H240 0.931 . S
C217 C216 1.386 1_545 S
C217 C221 1.397 . S
C218 C216 1.397 . S
C218 C219 1.384 1_565 S
C218 H241 0.930 . S
C219 C218 1.384 1_545 S
C219 C220 1.377 . S
C219 C222 1.481 . S
C220 C219 1.377 . S
C220 C221 1.389 . S
C220 H242 0.929 . S
C221 C217 1.397 . S
C221 C220 1.389 . S
C221 H243 0.931 . S
C222 C219 1.481 . S
C222 C223 1.387 1_545 S
C222 C227 1.390 . S
C223 C222 1.387 1_565 S
C223 C224 1.401 . S
C223 H244 0.930 . S
C224 C223 1.401 . S
C224 C225 1.376 1_565 S
C224 C233 1.511 . S
C225 C224 1.376 1_545 S
C225 C226 1.392 . S
C225 H246 0.931 . S
C226 C225 1.392 . S
C226 C227 1.361 . S
C226 C228 1.500 . S
C227 C222 1.390 . S
C227 C226 1.361 . S
C227 H245 0.931 . S
C228 C226 1.500 . S
C228 C229 1.371 . S
C228 C230 1.365 . S
C229 C228 1.371 . S
C229 C239 1.386 . S
C229 H247 0.931 . S
C230 C228 1.365 . S
C230 C231 1.409 . S
C230 H248 0.929 . S
C231 C230 1.409 . S
C231 C232 1.380 . S
C231 H249 0.930 . S
C232 C231 1.380 . S
C232 C239 1.357 . S
C233 C224 1.511 . S
C233 C234 1.341 . S
C233 C235 1.371 . S
C234 C233 1.341 . S
C234 C238 1.394 . S
C234 H250 0.930 . S
C235 C233 1.371 . S
C235 C236 1.392 . S
C235 H251 0.931 . S
C236 C235 1.392 . S
C236 C237 1.331 . S
C236 H254 0.932 . S
C237 C236 1.331 . S
C237 C238 1.336 . S
C238 C234 1.394 . S
C238 C237 1.336 . S
C238 H253 0.929 . S
C239 C229 1.386 . S
C239 C232 1.357 . S
C239 H252 0.928 . S
H240 C216 0.931 . S
H241 C218 0.930 . S
H242 C220 0.929 . S
H243 C221 0.931 . S
H244 C223 0.930 . S
H245 C227 0.931 . S
H246 C225 0.931 . S
H247 C229 0.931 . S
H248 C230 0.929 . S
H249 C231 0.930 . S
H250 C234 0.930 . S
H251 C235 0.931 . S
H252 C239 0.928 . S
H253 C238 0.929 . S
H254 C236 0.932 . S
C255 C256 1.386 1_554 S
C255 C257 1.397 . S
C255 H279 0.931 1_554 S
C256 C255 1.386 1_556 S
C256 C260 1.397 1_556 S
C257 C255 1.397 . S
C257 C258 1.384 . S
C257 H280 0.930 . S
C258 C257 1.384 . S
C258 C259 1.377 . S
C258 C261 1.481 . S
C259 C258 1.377 . S
C259 C260 1.389 . S
C259 H281 0.929 . S
C260 C256 1.397 1_554 S
C260 C259 1.389 . S
C260 H282 0.931 . S
C261 C258 1.481 . S
C261 C262 1.387 . S
C261 C266 1.390 . S
C262 C261 1.387 . S
C262 C263 1.401 . S
C262 H283 0.930 . S
C263 C262 1.401 . S
C263 C264 1.376 . S
C263 C272 1.511 . S
C264 C263 1.376 . S
C264 C265 1.392 . S
C264 H285 0.931 . S
C265 C264 1.392 . S
C265 C266 1.361 . S
C265 C267 1.500 . S
C266 C261 1.390 . S
C266 C265 1.361 . S
C266 H284 0.931 . S
C267 C265 1.500 . S
C267 C268 1.371 . S
C267 C269 1.365 . S
C268 C267 1.371 . S
C268 C278 1.386 . S
C268 H286 0.931 . S
C269 C267 1.365 . S
C269 C270 1.409 . S
C269 H287 0.929 . S
C270 C269 1.409 . S
C270 C271 1.380 . S
C270 H288 0.930 . S
C271 C270 1.380 . S
C271 C278 1.357 . S
C272 C263 1.511 . S
C272 C273 1.341 . S
C272 C274 1.371 . S
C273 C272 1.341 . S
C273 C277 1.394 . S
C273 H289 0.930 . S
C274 C272 1.371 . S
C274 C275 1.392 . S
C274 H290 0.931 . S
C275 C274 1.392 . S
C275 C276 1.331 . S
C275 H293 0.932 . S
C276 C275 1.331 . S
C276 C277 1.336 . S
C277 C273 1.394 . S
C277 C276 1.336 . S
C277 H292 0.929 . S
C278 C268 1.386 . S
C278 C271 1.357 . S
C278 H291 0.928 . S
H279 C255 0.931 1_556 S
H280 C257 0.930 . S
H281 C259 0.929 . S
H282 C260 0.931 . S
H283 C262 0.930 . S
H284 C266 0.931 . S
H285 C264 0.931 . S
H286 C268 0.931 . S
H287 C269 0.929 . S
H288 C270 0.930 . S
H289 C273 0.930 . S
H290 C274 0.931 . S
H291 C278 0.928 . S
H292 C277 0.929 . S
H293 C275 0.932 . S
C294 C295 1.387 . S
C294 H298 0.950 . S
C294 C303 1.390 . S
C295 C294 1.387 . S
C295 C297 1.387 . S
H296 C303 0.950 . S
C297 C295 1.387 . S
C297 C299 1.390 . S
C297 H301 0.950 . S
H298 C294 0.950 . S
C299 C297 1.390 . S
C299 C300 1.387 . S
C299 H302 0.950 . S
C300 C299 1.387 . S
C300 C303 1.387 . S
H301 C297 0.950 . S
H302 C299 0.950 . S
C303 C294 1.390 . S
C303 H296 0.950 . S
C303 C300 1.387 . S
C304 C305 1.387 . S
C304 H308 0.950 . S
C304 C313 1.390 . S
C305 C304 1.387 . S
C305 C307 1.387 . S
H306 C313 0.950 . S
C307 C305 1.387 . S
C307 C309 1.390 . S
C307 H311 0.950 . S
H308 C304 0.950 . S
C309 C307 1.390 . S
C309 C310 1.387 . S
C309 H312 0.950 . S
C310 C309 1.387 . S
C310 C313 1.387 . S
H311 C307 0.950 . S
H312 C309 0.950 . S
C313 C304 1.390 . S
C313 H306 0.950 . S
C313 C310 1.387 . S
C314 C315 1.387 . S
C314 H318 0.950 . S
C314 C323 1.390 . S
C315 C314 1.387 . S
C315 C317 1.387 . S
H316 C323 0.950 . S
C317 C315 1.387 . S
C317 C319 1.390 . S
C317 H321 0.950 . S
H318 C314 0.950 . S
C319 C317 1.390 . S
C319 C320 1.387 . S
C319 H322 0.950 . S
C320 C319 1.387 . S
C320 C323 1.387 . S
H321 C317 0.950 . S
H322 C319 0.950 . S
C323 C314 1.390 . S
C323 H316 0.950 . S
C323 C320 1.387 . S
C324 C325 1.387 . S
C324 H328 0.950 . S
C324 C333 1.390 . S
C325 C324 1.387 . S
C325 C327 1.387 . S
H326 C333 0.950 . S
C327 C325 1.387 . S
C327 C329 1.390 . S
C327 H331 0.950 . S
H328 C324 0.950 . S
C329 C327 1.390 . S
C329 C330 1.387 . S
C329 H332 0.950 . S
C330 C329 1.387 . S
C330 C333 1.387 . S
H331 C327 0.950 . S
H332 C329 0.950 . S
C333 C324 1.390 . S
C333 H326 0.950 . S
C333 C330 1.387 . S
C334 C335 1.387 . S
C334 H338 0.950 . S
C334 C343 1.390 . S
C335 C334 1.387 . S
C335 C337 1.387 . S
H336 C343 0.950 . S
C337 C335 1.387 . S
C337 C339 1.390 . S
C337 H341 0.950 . S
H338 C334 0.950 . S
C339 C337 1.390 . S
C339 C340 1.387 . S
C339 H342 0.950 . S
C340 C339 1.387 . S
C340 C343 1.387 . S
H341 C337 0.950 . S
H342 C339 0.950 . S
C343 C334 1.390 . S
C343 H336 0.950 . S
C343 C340 1.387 . S
C344 C345 1.387 . S
C344 H348 0.950 . S
C344 C353 1.390 . S
C345 C344 1.387 . S
C345 C347 1.387 . S
H346 C353 0.950 . S
C347 C345 1.387 . S
C347 C349 1.390 . S
C347 H351 0.950 . S
H348 C344 0.950 . S
C349 C347 1.390 . S
C349 C350 1.387 . S
C349 H352 0.950 . S
C350 C349 1.387 . S
C350 C353 1.387 . S
H351 C347 0.950 . S
H352 C349 0.950 . S
C353 C344 1.390 . S
C353 H346 0.950 . S
C353 C350 1.387 . S
C354 C355 1.387 . S
C354 H358 0.950 . S
C354 C363 1.390 . S
C355 C354 1.387 . S
C355 C357 1.387 . S
H356 C363 0.950 . S
C357 C355 1.387 . S
C357 C359 1.390 . S
C357 H361 0.950 . S
H358 C354 0.950 . S
C359 C357 1.390 . S
C359 C360 1.387 . S
C359 H362 0.950 . S
C360 C359 1.387 . S
C360 C363 1.387 . S
H361 C357 0.950 . S
H362 C359 0.950 . S
C363 C354 1.390 . S
C363 H356 0.950 . S
C363 C360 1.387 . S
C364 C365 1.387 . S
C364 H368 0.950 . S
C364 C373 1.390 . S
C365 C364 1.387 . S
C365 C367 1.387 . S
H366 C373 0.950 . S
C367 C365 1.387 . S
C367 C369 1.390 . S
C367 H371 0.950 . S
H368 C364 0.950 . S
C369 C367 1.390 . S
C369 C370 1.387 . S
C369 H372 0.950 . S
C370 C369 1.387 . S
C370 C373 1.387 . S
H371 C367 0.950 . S
H372 C369 0.950 . S
C373 C364 1.390 . S
C373 H366 0.950 . S
C373 C370 1.387 . S
C374 C375 1.387 . S
C374 H378 0.950 . S
C374 C383 1.390 . S
C375 C374 1.387 . S
C375 C377 1.387 . S
H376 C383 0.950 . S
C377 C375 1.387 . S
C377 C379 1.390 . S
C377 H381 0.950 . S
H378 C374 0.950 . S
C379 C377 1.390 . S
C379 C380 1.387 . S
C379 H382 0.950 . S
C380 C379 1.387 . S
C380 C383 1.387 . S
H381 C377 0.950 . S
H382 C379 0.950 . S
C383 C374 1.390 . S
C383 H376 0.950 . S
C383 C380 1.387 . S
C384 C385 1.387 . S
C384 H388 0.950 . S
C384 C393 1.390 . S
C385 C384 1.387 . S
C385 C387 1.387 . S
H386 C393 0.950 . S
C387 C385 1.387 . S
C387 C389 1.390 . S
C387 H391 0.950 . S
H388 C384 0.950 . S
C389 C387 1.390 . S
C389 C390 1.387 . S
C389 H392 0.950 . S
C390 C389 1.387 . S
C390 C393 1.387 . S
H391 C387 0.950 . S
H392 C389 0.950 . S
C393 C384 1.390 . S
C393 H386 0.950 . S
C393 C390 1.387 . S
C394 C395 1.387 . S
C394 H398 0.950 . S
C394 C403 1.390 . S
C395 C394 1.387 . S
C395 C397 1.387 . S
H396 C403 0.950 . S
C397 C395 1.387 . S
C397 C399 1.390 . S
C397 H401 0.950 . S
H398 C394 0.950 . S
C399 C397 1.390 . S
C399 C400 1.387 . S
C399 H402 0.950 . S
C400 C399 1.387 . S
C400 C403 1.387 . S
H401 C397 0.950 . S
H402 C399 0.950 . S
C403 C394 1.390 . S
C403 H396 0.950 . S
C403 C400 1.387 . S
C404 C405 1.387 . S
C404 H408 0.950 . S
C404 C413 1.390 . S
C405 C404 1.387 . S
C405 C407 1.387 . S
H406 C413 0.950 . S
C407 C405 1.387 . S
C407 C409 1.390 . S
C407 H411 0.950 . S
H408 C404 0.950 . S
C409 C407 1.390 . S
C409 C410 1.387 . S
C409 H412 0.950 . S
C410 C409 1.387 . S
C410 C413 1.387 . S
H411 C407 0.950 . S
H412 C409 0.950 . S
C413 C404 1.390 . S
C413 H406 0.950 . S
C413 C410 1.387 . S
C414 C415 1.387 . S
C414 H418 0.950 1_455 S
C414 C423 1.390 . S
C415 C414 1.387 . S
C415 C417 1.387 . S
H416 C423 0.950 1_655 S
C417 C415 1.387 . S
C417 C419 1.390 . S
C417 H421 0.950 . S
H418 C414 0.950 1_655 S
C419 C417 1.390 . S
C419 C420 1.387 . S
C419 H422 0.950 . S
C420 C419 1.387 . S
C420 C423 1.387 . S
H421 C417 0.950 . S
H422 C419 0.950 . S
C423 C414 1.390 . S
C423 H416 0.950 1_455 S
C423 C420 1.387 . S
C424 C425 1.387 . S
C424 H428 0.950 . S
C424 C433 1.390 . S
C425 C424 1.387 . S
C425 C427 1.387 . S
H426 C433 0.950 . S
C427 C425 1.387 . S
C427 C429 1.390 . S
C427 H431 0.950 . S
H428 C424 0.950 . S
C429 C427 1.390 . S
C429 C430 1.387 . S
C429 H432 0.950 . S
C430 C429 1.387 . S
C430 C433 1.387 . S
H431 C427 0.950 . S
H432 C429 0.950 . S
C433 C424 1.390 . S
C433 H426 0.950 . S
C433 C430 1.387 . S
C434 C435 1.387 . S
C434 H438 0.950 . S
C434 C443 1.390 . S
C435 C434 1.387 . S
C435 C437 1.387 . S
H436 C443 0.950 . S
C437 C435 1.387 . S
C437 C439 1.390 . S
C437 H441 0.950 . S
H438 C434 0.950 . S
C439 C437 1.390 . S
C439 C440 1.387 . S
C439 H442 0.950 . S
C440 C439 1.387 . S
C440 C443 1.387 . S
H441 C437 0.950 . S
H442 C439 0.950 . S
C443 C434 1.390 . S
C443 H436 0.950 . S
C443 C440 1.387 . S
C444 C445 1.387 . S
C444 H448 0.950 . S
C444 C453 1.390 . S
C445 C444 1.387 . S
C445 C447 1.387 . S
H446 C453 0.950 . S
C447 C445 1.387 . S
C447 C449 1.390 . S
C447 H451 0.950 . S
H448 C444 0.950 . S
C449 C447 1.390 . S
C449 C450 1.387 . S
C449 H452 0.950 . S
C450 C449 1.387 . S
C450 C453 1.387 . S
H451 C447 0.950 . S
H452 C449 0.950 . S
C453 C444 1.390 . S
C453 H446 0.950 . S
C453 C450 1.387 . S
C454 C455 1.387 . S
C454 H458 0.950 . S
C454 C463 1.390 . S
C455 C454 1.387 . S
C455 C457 1.387 . S
H456 C463 0.950 . S
C457 C455 1.387 . S
C457 C459 1.390 . S
C457 H461 0.950 . S
H458 C454 0.950 . S
C459 C457 1.390 . S
C459 C460 1.387 . S
C459 H462 0.950 . S
C460 C459 1.387 . S
C460 C463 1.387 . S
H461 C457 0.950 . S
H462 C459 0.950 . S
C463 C454 1.390 . S
C463 H456 0.950 . S
C463 C460 1.387 . S
C464 C465 1.387 . S
C464 H468 0.950 . S
C464 C473 1.390 . S
C465 C464 1.387 . S
C465 C467 1.387 . S
H466 C473 0.950 . S
C467 C465 1.387 . S
C467 C469 1.390 1_455 S
C467 H471 0.950 . S
H468 C464 0.950 . S
C469 C467 1.390 1_655 S
C469 C470 1.387 1_655 S
C469 H472 0.950 . S
C470 C469 1.387 1_455 S
C470 C473 1.387 . S
H471 C467 0.950 . S
H472 C469 0.950 . S
C473 C464 1.390 . S
C473 H466 0.950 . S
C473 C470 1.387 . S
C295 C8 2.073 . S
C300 C271 2.121 . S
C305 C26 1.426 . S
C310 C198 1.406 . S
C315 C48 1.587 . S
C320 C237 1.619 . S
C325 C19 1.968 . S
C330 C276 1.944 . S
C340 C193 1.563 . S
C335 C36 1.575 . S
C350 C232 1.817 . S
C345 C59 1.820 . S
C355 C28 1.612 . S
C360 C120 1.643 . S
C365 C46 1.302 . S
C370 C154 1.298 . S
C375 C16 1.647 . S
C380 C76 1.631 . S
C390 C115 1.781 . S
C385 C39 1.801 . S
C400 C159 1.107 . S
C395 C56 1.112 . S
C405 C6 1.491 . S
C410 C81 1.459 . S
C420 C139 1.449 . S
C415 C9 1.409 . S
C425 C21 1.516 . S
C430 C61 1.523 . S
C435 C49 1.483 . S
C440 C100 1.493 . S
C450 C217 1.482 . S
C445 C29 1.479 . S
C460 C256 1.594 . S
C455 C41 1.577 . S
C465 C1 1.504 . S
C470 C178 1.516 1_455 S
