# Generated by pormake.
# Topology hwx, (6,3)-cn, num edge types: 1
# Building blocks:
#     Node 0, Type 0, BuildingBlock: OJICUG_clean_sbu_0, # of connection points: 6
#     Node 1, Type 0, BuildingBlock: OJICUG_clean_sbu_0, # of connection points: 6
#     Node 2, Type 0, BuildingBlock: OJICUG_clean_sbu_0, # of connection points: 6
#     Node 3, Type 0, BuildingBlock: OJICUG_clean_sbu_0, # of connection points: 6
#     Node 4, Type 1, BuildingBlock: PAMTOO_clean_linker_0, # of connection points: 3
#     Node 5, Type 1, BuildingBlock: PAMTOO_clean_linker_0, # of connection points: 3
#     Node 6, Type 1, BuildingBlock: PAMTOO_clean_linker_0, # of connection points: 3
#     Node 7, Type 1, BuildingBlock: PAMTOO_clean_linker_0, # of connection points: 3
#     Node 8, Type 1, BuildingBlock: PAMTOO_clean_linker_0, # of connection points: 3
#     Node 9, Type 1, BuildingBlock: PAMTOO_clean_linker_0, # of connection points: 3
#     Node 10, Type 1, BuildingBlock: PAMTOO_clean_linker_0, # of connection points: 3
#     Node 11, Type 1, BuildingBlock: PAMTOO_clean_linker_0, # of connection points: 3
#     Edge 12, Type (0, 1), BuildingBlock: UVAHIK_clean_linker_0, # of connection points: 2
#     Edge 13, Type (0, 1), BuildingBlock: UVAHIK_clean_linker_0, # of connection points: 2
#     Edge 14, Type (0, 1), BuildingBlock: UVAHIK_clean_linker_0, # of connection points: 2
#     Edge 15, Type (0, 1), BuildingBlock: UVAHIK_clean_linker_0, # of connection points: 2
#     Edge 16, Type (0, 1), BuildingBlock: UVAHIK_clean_linker_0, # of connection points: 2
#     Edge 17, Type (0, 1), BuildingBlock: UVAHIK_clean_linker_0, # of connection points: 2
#     Edge 18, Type (0, 1), BuildingBlock: UVAHIK_clean_linker_0, # of connection points: 2
#     Edge 19, Type (0, 1), BuildingBlock: UVAHIK_clean_linker_0, # of connection points: 2
#     Edge 20, Type (0, 1), BuildingBlock: UVAHIK_clean_linker_0, # of connection points: 2
#     Edge 21, Type (0, 1), BuildingBlock: UVAHIK_clean_linker_0, # of connection points: 2
#     Edge 22, Type (0, 1), BuildingBlock: UVAHIK_clean_linker_0, # of connection points: 2
#     Edge 23, Type (0, 1), BuildingBlock: UVAHIK_clean_linker_0, # of connection points: 2
#     Edge 24, Type (0, 1), BuildingBlock: UVAHIK_clean_linker_0, # of connection points: 2
#     Edge 25, Type (0, 1), BuildingBlock: UVAHIK_clean_linker_0, # of connection points: 2
#     Edge 26, Type (0, 1), BuildingBlock: UVAHIK_clean_linker_0, # of connection points: 2
#     Edge 27, Type (0, 1), BuildingBlock: UVAHIK_clean_linker_0, # of connection points: 2
#     Edge 28, Type (0, 1), BuildingBlock: UVAHIK_clean_linker_0, # of connection points: 2
#     Edge 29, Type (0, 1), BuildingBlock: UVAHIK_clean_linker_0, # of connection points: 2
#     Edge 30, Type (0, 1), BuildingBlock: UVAHIK_clean_linker_0, # of connection points: 2
#     Edge 31, Type (0, 1), BuildingBlock: UVAHIK_clean_linker_0, # of connection points: 2
#     Edge 32, Type (0, 1), BuildingBlock: UVAHIK_clean_linker_0, # of connection points: 2
#     Edge 33, Type (0, 1), BuildingBlock: UVAHIK_clean_linker_0, # of connection points: 2
#     Edge 34, Type (0, 1), BuildingBlock: UVAHIK_clean_linker_0, # of connection points: 2
#     Edge 35, Type (0, 1), BuildingBlock: UVAHIK_clean_linker_0, # of connection points: 2
# Relax obj value: 0.008
# Max RMSD: 0.050
# Mean RMSD: 0.044
data_MOF--net-hwx--node1-OJICUG_clean_sbu_0--node2-PAMTOO_clean_linker_0--edge1-UVAHIK_clean_linker_0
_symmetry_space_group_name_H-M    P1
_symmetry_Int_Tables_number       1
_symmetry_cell_setting            triclinic
loop_
_symmetry_equiv_pos_as_xyz
'x, y, z'
_cell_length_a     67.818659
_cell_length_b     67.783151
_cell_length_c     26.164709
_cell_angle_alpha  88.267153
_cell_angle_beta   91.731978
_cell_angle_gamma 90.004466
loop_
_atom_site_label
_atom_site_type_symbol
_atom_site_fract_x
_atom_site_fract_y
_atom_site_fract_z
_atom_type_partial_charge
Sc0 Sc 0.21744 0.2156 0.07611 0.0
Sc1 Sc 0.18472 0.18621 0.00355 0.0
Sc2 Sc 0.21797 0.21824 0.94156 0.0
O3 O 0.20671 0.20669 0.00709 0.0
C4 C 0.21614 0.2562 0.01075 0.0
C5 C 0.17099 0.21301 0.09408 0.0
C6 C 0.17203 0.21603 0.91161 0.0
C7 C 0.21164 0.16935 0.09732 0.0
C8 C 0.25686 0.21337 0.01278 0.0
C9 C 0.21301 0.17264 0.91584 0.0
O10 O 0.21643 0.24633 0.05288 0.0
O11 O 0.16745 0.20099 0.05858 0.0
O12 O 0.18928 0.22296 0.90624 0.0
O13 O 0.21972 0.18582 0.10684 0.0
O14 O 0.24796 0.21504 0.96944 0.0
O15 O 0.19976 0.16928 0.94832 0.0
O16 O 0.24785 0.21326 0.05473 0.0
O17 O 0.19862 0.16738 0.06188 0.0
O18 O 0.22072 0.18959 0.9088 0.0
O19 O 0.18826 0.21924 0.10502 0.0
O20 O 0.21658 0.24811 0.96754 0.0
O21 O 0.16816 0.20258 0.94468 0.0
Sc22 Sc 0.27763 0.71988 0.44381 0.0
Sc23 Sc 0.30957 0.68694 0.51301 0.0
Sc24 Sc 0.27829 0.71834 0.57856 0.0
O25 O 0.28849 0.70839 0.51176 0.0
C26 C 0.28158 0.75829 0.51144 0.0
C27 C 0.32365 0.71577 0.42273 0.0
C28 C 0.32433 0.71338 0.60535 0.0
C29 C 0.28111 0.67407 0.42026 0.0
C30 C 0.23873 0.71731 0.50934 0.0
C31 C 0.2814 0.67186 0.60161 0.0
O32 O 0.28041 0.74987 0.46863 0.0
O33 O 0.32696 0.70261 0.45759 0.0
O34 O 0.30744 0.72074 0.61248 0.0
O35 O 0.27366 0.69113 0.41177 0.0
O36 O 0.24799 0.71728 0.5523 0.0
O37 O 0.29434 0.66896 0.56849 0.0
O38 O 0.24742 0.7182 0.46695 0.0
O39 O 0.29432 0.67057 0.45484 0.0
O40 O 0.27443 0.68886 0.60974 0.0
O41 O 0.30662 0.72305 0.41308 0.0
O42 O 0.28097 0.74881 0.55406 0.0
O43 O 0.32732 0.70085 0.57128 0.0
Sc44 Sc 0.77472 0.77845 0.93733 0.0
Sc45 Sc 0.80913 0.80877 0.00095 0.0
Sc46 Sc 0.7787 0.77652 0.07189 0.0
O47 O 0.78752 0.78791 0.00343 0.0
C48 C 0.73772 0.78091 0.00895 0.0
C49 C 0.77906 0.82467 0.91313 0.0
C50 C 0.78376 0.8223 0.09465 0.0
C51 C 0.8201 0.78131 0.90894 0.0
C52 C 0.77884 0.73827 0.00413 0.0
C53 C 0.82538 0.77983 0.09087 0.0
O54 O 0.74542 0.78133 0.96527 0.0
O55 O 0.79291 0.8272 0.94605 0.0
O56 O 0.77633 0.80536 0.10357 0.0
O57 O 0.80275 0.77453 0.90271 0.0
O58 O 0.78008 0.74658 0.04702 0.0
O59 O 0.8278 0.79287 0.05575 0.0
O60 O 0.77652 0.74788 0.96188 0.0
O61 O 0.82455 0.79402 0.94217 0.0
O62 O 0.80855 0.77279 0.10135 0.0
O63 O 0.77134 0.80791 0.90534 0.0
O64 O 0.7478 0.7788 0.05052 0.0
O65 O 0.79602 0.82563 0.05959 0.0
Sc66 Sc 0.7204 0.27728 0.56703 0.0
Sc67 Sc 0.68711 0.31024 0.50213 0.0
Sc68 Sc 0.71749 0.27912 0.43272 0.0
O69 O 0.70831 0.28889 0.50067 0.0
C70 C 0.75811 0.28132 0.49727 0.0
C71 C 0.71688 0.32305 0.59184 0.0
C72 C 0.71304 0.32547 0.40924 0.0
C73 C 0.6749 0.28084 0.59375 0.0
C74 C 0.71669 0.23899 0.49936 0.0
C75 C 0.67096 0.28319 0.41219 0.0
O76 O 0.75011 0.27998 0.54057 0.0
O77 O 0.70335 0.32688 0.55831 0.0
O78 O 0.71992 0.30848 0.40089 0.0
O79 O 0.69201 0.27335 0.6004 0.0
O80 O 0.71626 0.24864 0.45698 0.0
O81 O 0.66848 0.29592 0.44615 0.0
O82 O 0.71818 0.24727 0.54225 0.0
O83 O 0.67099 0.29441 0.56031 0.0
O84 O 0.68776 0.27597 0.40315 0.0
O85 O 0.72416 0.30589 0.59935 0.0
O86 O 0.74822 0.28114 0.45521 0.0
O87 O 0.70085 0.32852 0.44415 0.0
H88 H 0.2258 0.55494 0.00232 0.0
H89 H 0.21666 0.49838 0.9349 0.0
H90 H 0.22359 0.50232 0.09796 0.0
H91 H 0.24524 0.47048 0.05701 0.0
C92 C 0.23607 0.46733 0.02221 0.0
O93 O 0.21897 0.47835 0.0219 0.0
H94 H 0.24489 0.47146 0.98827 0.0
C95 C 0.22358 0.53913 0.0064 0.0
C96 C 0.22479 0.5301 0.05532 0.0
C97 C 0.22055 0.52793 0.96262 0.0
C98 C 0.21854 0.50737 0.96825 0.0
C99 C 0.21951 0.49823 0.01705 0.0
C100 C 0.2223 0.5096 0.06056 0.0
H101 H 0.94098 0.72564 0.51705 0.0
H102 H 0.99706 0.72425 0.44484 0.0
H103 H 0.9943 0.71637 0.60802 0.0
H104 H 0.0259 0.74196 0.57565 0.0
C105 C 0.02851 0.73617 0.53706 0.0
O106 O 0.0177 0.71917 0.53035 0.0
H107 H 0.02376 0.74775 0.50817 0.0
C108 C 0.95684 0.72352 0.51973 0.0
C109 C 0.96617 0.72027 0.56781 0.0
C110 C 0.9678 0.72506 0.47523 0.0
C111 C 0.98834 0.72272 0.47876 0.0
C112 C 0.99782 0.71968 0.52669 0.0
C113 C 0.98678 0.71839 0.5711 0.0
H114 H 0.77255 0.44296 0.99703 0.0
H115 H 0.77844 0.49834 0.07213 0.0
H116 H 0.78079 0.49664 0.90833 0.0
H117 H 0.80998 0.52298 0.9547 0.0
C118 C 0.80196 0.52717 0.98925 0.0
O119 O 0.78324 0.51927 0.98765 0.0
H120 H 0.81041 0.52127 0.02354 0.0
C121 C 0.77506 0.45877 0.99515 0.0
C122 C 0.77684 0.4684 0.94734 0.0
C123 C 0.77548 0.46938 0.04037 0.0
C124 C 0.77798 0.48991 0.03758 0.0
C125 C 0.78021 0.49961 0.99002 0.0
C126 C 0.77931 0.48894 0.94493 0.0
H127 H 0.05396 0.27397 0.4849 0.0
H128 H 0.00016 0.28192 0.56473 0.0
H129 H 0.99881 0.28116 0.40055 0.0
H130 H 0.97367 0.3115 0.44379 0.0
C131 C 0.96948 0.30354 0.47969 0.0
O132 O 0.97767 0.28491 0.48174 0.0
H133 H 0.97516 0.31217 0.51254 0.0
C134 C 0.0382 0.2767 0.48408 0.0
C135 C 0.02773 0.27764 0.43698 0.0
C136 C 0.02846 0.27817 0.53035 0.0
C137 C 0.00793 0.28076 0.52936 0.0
C138 C 0.99737 0.28211 0.48251 0.0
C139 C 0.00719 0.28032 0.43647 0.0
H140 H 0.72624 0.94111 0.50308 0.0
H141 H 0.71686 0.99789 0.56777 0.0
H142 H 0.72556 0.99366 0.4067 0.0
H143 H 0.74685 0.02545 0.45093 0.0
C144 C 0.73779 0.02834 0.48467 0.0
O145 O 0.72048 0.01772 0.48141 0.0
H146 H 0.74657 0.02363 0.51961 0.0
C147 C 0.72418 0.95693 0.49834 0.0
C148 C 0.726 0.96591 0.44969 0.0
C149 C 0.72078 0.96825 0.54126 0.0
C150 C 0.71899 0.98881 0.53499 0.0
C151 C 0.72059 0.99786 0.48645 0.0
C152 C 0.72375 0.98642 0.44376 0.0
H153 H 0.55421 0.22549 0.0047 0.0
H154 H 0.49761 0.22283 0.07471 0.0
H155 H 0.50108 0.22211 0.91125 0.0
H156 H 0.46841 0.24605 0.94605 0.0
C157 C 0.46625 0.23873 0.98411 0.0
O158 O 0.47734 0.22169 0.98836 0.0
H159 H 0.47109 0.24925 0.01391 0.0
C160 C 0.53831 0.22393 0.00143 0.0
C161 C 0.52913 0.22333 0.95268 0.0
C162 C 0.52716 0.22383 0.0458 0.0
C163 C 0.50652 0.22286 0.04102 0.0
C164 C 0.49721 0.2222 0.99257 0.0
C165 C 0.50847 0.22245 0.94852 0.0
H166 H 0.26037 0.05065 0.52146 0.0
H167 H 0.27135 0.99615 0.44702 0.0
H168 H 0.27968 0.9993 0.61001 0.0
H169 H 0.30944 0.97461 0.56142 0.0
C170 C 0.30049 0.97001 0.52747 0.0
O171 O 0.28132 0.97641 0.53134 0.0
H172 H 0.30717 0.97672 0.49269 0.0
C173 C 0.26496 0.03531 0.52348 0.0
C174 C 0.27023 0.02644 0.57108 0.0
C175 C 0.26518 0.02455 0.47854 0.0
C176 C 0.27118 0.00473 0.4813 0.0
C177 C 0.2764 0.9957 0.52869 0.0
C178 C 0.27577 0.00648 0.57354 0.0
H179 H 0.44174 0.77113 0.0194 0.0
H180 H 0.4964 0.77763 0.94127 0.0
H181 H 0.49591 0.78113 0.1047 0.0
H182 H 0.52183 0.81053 0.04866 0.0
C183 C 0.52652 0.80078 0.01777 0.0
O184 O 0.51794 0.78247 0.02444 0.0
H185 H 0.52173 0.80749 0.98011 0.0
C186 C 0.45745 0.77411 0.02033 0.0
C187 C 0.46743 0.77636 0.0676 0.0
C188 C 0.46768 0.77454 0.97447 0.0
C189 C 0.48819 0.77732 0.97618 0.0
C190 C 0.49822 0.77995 0.02307 0.0
C191 C 0.48791 0.77936 0.06865 0.0
C192 C 0.15706 0.23582 0.15754 0.0
C193 C 0.15422 0.22051 0.12298 0.0
C194 C 0.14121 0.24327 0.18383 0.0
C195 C 0.09217 0.23012 0.22887 0.0
H196 H 0.08758 0.28642 0.2482 0.0
C197 C 0.03155 0.26136 0.35294 0.0
C198 C 0.03845 0.2748 0.38919 0.0
C199 C 0.04331 0.25635 0.31223 0.0
C200 C 0.08868 0.27066 0.24324 0.0
H201 H 0.13236 0.20103 0.08913 0.0
H202 H 0.10472 0.21401 0.13538 0.0
H203 H 0.11316 0.27401 0.19394 0.0
H204 H 0.06236 0.2946 0.40925 0.0
H205 H 0.08294 0.28571 0.33904 0.0
H206 H 0.06816 0.22666 0.27948 0.0
C207 C 0.11927 0.22018 0.14209 0.0
C208 C 0.10334 0.26356 0.21223 0.0
C209 C 0.13512 0.21279 0.11552 0.0
C210 C 0.05676 0.28402 0.3822 0.0
C211 C 0.06848 0.27905 0.34162 0.0
C212 C 0.07755 0.23721 0.26008 0.0
C213 C 0.12215 0.23554 0.17641 0.0
C214 C 0.10549 0.24319 0.20553 0.0
C215 C 0.06214 0.26476 0.30695 0.0
C216 C 0.07589 0.25754 0.26847 0.0
H217 H 0.17154 0.24217 0.16421 0.0
H218 H 0.14395 0.25491 0.21061 0.0
H219 H 0.09356 0.21433 0.2248 0.0
H220 H 0.01752 0.25398 0.35747 0.0
H221 H 0.03789 0.2455 0.28573 0.0
C222 C 0.28134 0.6356 0.62462 0.0
C223 C 0.27364 0.65463 0.63088 0.0
C224 C 0.27373 0.61934 0.65159 0.0
C225 C 0.23024 0.6025 0.72299 0.0
H226 H 0.26735 0.56666 0.79278 0.0
C227 C 0.21191 0.556 0.90191 0.0
C228 C 0.2215 0.53784 0.9115 0.0
C229 C 0.2159 0.5674 0.85816 0.0
C230 C 0.25673 0.57622 0.77265 0.0
H231 H 0.25173 0.67135 0.67027 0.0
H232 H 0.23868 0.64306 0.71756 0.0
H233 H 0.27946 0.59245 0.73516 0.0
H234 H 0.24167 0.51668 0.88109 0.0
H235 H 0.2484 0.53647 0.80395 0.0
H236 H 0.20754 0.58658 0.76164 0.0
C237 C 0.25044 0.64069 0.6913 0.0
C238 C 0.2637 0.59106 0.73972 0.0
C239 C 0.25807 0.65695 0.66453 0.0
C240 C 0.23402 0.5306 0.87459 0.0
C241 C 0.23804 0.54204 0.83075 0.0
C242 C 0.22326 0.58762 0.75583 0.0
C243 C 0.2582 0.62171 0.68521 0.0
C244 C 0.25058 0.60466 0.71553 0.0
C245 C 0.22956 0.56087 0.823 0.0
C246 C 0.23647 0.57461 0.78202 0.0
H247 H 0.29325 0.63322 0.59886 0.0
H248 H 0.27992 0.60487 0.64586 0.0
H249 H 0.21974 0.61254 0.7041 0.0
H250 H 0.20203 0.56183 0.92953 0.0
H251 H 0.20919 0.58187 0.85364 0.0
C252 C 0.84113 0.75775 0.15922 0.0
C253 C 0.84293 0.77265 0.12106 0.0
C254 C 0.85756 0.75149 0.18882 0.0
C255 C 0.90534 0.76946 0.2358 0.0
H256 H 0.91282 0.71501 0.28226 0.0
C257 C 0.95948 0.7195 0.38261 0.0
C258 C 0.95771 0.73085 0.42625 0.0
C259 C 0.94839 0.72432 0.33794 0.0
C260 C 0.91114 0.73022 0.26896 0.0
H261 H 0.86367 0.79219 0.08315 0.0
H262 H 0.89228 0.78125 0.13494 0.0
H263 H 0.88752 0.72314 0.21644 0.0
H264 H 0.94392 0.75656 0.45706 0.0
H265 H 0.92471 0.76503 0.37941 0.0
H266 H 0.9286 0.77661 0.28915 0.0
C267 C 0.87809 0.77456 0.14216 0.0
C268 C 0.89652 0.7349 0.23175 0.0
C269 C 0.86167 0.78079 0.11244 0.0
C270 C 0.94539 0.7475 0.42396 0.0
C271 C 0.93455 0.75243 0.37939 0.0
C272 C 0.91987 0.76479 0.2731 0.0
C273 C 0.87617 0.76 0.18104 0.0
C274 C 0.89317 0.75463 0.21569 0.0
C275 C 0.93568 0.74075 0.33616 0.0
C276 C 0.92257 0.7452 0.291 0.0
H277 H 0.82696 0.75108 0.16682 0.0
H278 H 0.85556 0.74043 0.21894 0.0
H279 H 0.90306 0.78481 0.22449 0.0
H280 H 0.96891 0.70659 0.38365 0.0
H281 H 0.94958 0.71513 0.30503 0.0
C282 C 0.74085 0.33591 0.65748 0.0
C283 C 0.72471 0.33927 0.62334 0.0
C284 C 0.74819 0.35103 0.68764 0.0
C285 C 0.74865 0.40521 0.70107 0.0
H286 H 0.76153 0.39125 0.84294 0.0
C287 C 0.76126 0.46176 0.86157 0.0
C288 C 0.77519 0.45672 0.90058 0.0
C289 C 0.75708 0.44865 0.82237 0.0
C290 C 0.75833 0.39536 0.80323 0.0
H291 H 0.70384 0.36138 0.59366 0.0
H292 H 0.71649 0.3877 0.64711 0.0
H293 H 0.74992 0.36592 0.78576 0.0
H294 H 0.7969 0.43501 0.92705 0.0
H295 H 0.78994 0.41232 0.85826 0.0
H296 H 0.75682 0.43483 0.71922 0.0
C297 C 0.7236 0.37339 0.64996 0.0
C298 C 0.75164 0.38083 0.77044 0.0
C299 C 0.71626 0.35825 0.6196 0.0
C300 C 0.78589 0.43908 0.89775 0.0
C301 C 0.78182 0.42608 0.85856 0.0
C302 C 0.75536 0.41983 0.73404 0.0
C303 C 0.73953 0.36988 0.68464 0.0
C304 C 0.74675 0.38554 0.71897 0.0
C305 C 0.76685 0.43036 0.82157 0.0
C306 C 0.76032 0.41502 0.78547 0.0
H307 H 0.74789 0.32157 0.66104 0.0
H308 H 0.7607 0.34793 0.71334 0.0
H309 H 0.74516 0.40927 0.66147 0.0
H310 H 0.75275 0.47524 0.86313 0.0
H311 H 0.74543 0.45234 0.79452 0.0
C312 C 0.65533 0.26009 0.34996 0.0
C313 C 0.65353 0.27607 0.38255 0.0
C314 C 0.63897 0.25315 0.32235 0.0
C315 C 0.59099 0.26874 0.26819 0.0
H316 H 0.58348 0.2126 0.25047 0.0
C317 C 0.53058 0.24016 0.13038 0.0
C318 C 0.5373 0.22621 0.09625 0.0
C319 C 0.54191 0.24465 0.17404 0.0
C320 C 0.58538 0.22832 0.25501 0.0
H321 H 0.63296 0.29721 0.41179 0.0
H322 H 0.60438 0.28511 0.36307 0.0
H323 H 0.60915 0.224 0.30993 0.0
H324 H 0.56036 0.205 0.08293 0.0
H325 H 0.58025 0.21302 0.15837 0.0
H326 H 0.56777 0.27314 0.21192 0.0
C327 C 0.61853 0.27802 0.35899 0.0
C328 C 0.60008 0.23484 0.28902 0.0
C329 C 0.63491 0.28491 0.38695 0.0
C330 C 0.55493 0.21599 0.10827 0.0
C331 C 0.56623 0.22046 0.15182 0.0
C332 C 0.57633 0.26223 0.23403 0.0
C333 C 0.62041 0.26206 0.32643 0.0
C334 C 0.60335 0.25512 0.29504 0.0
C335 C 0.56014 0.23524 0.18446 0.0
C336 C 0.57367 0.24195 0.22613 0.0
H337 H 0.66941 0.25286 0.34569 0.0
H338 H 0.64096 0.24103 0.29696 0.0
H339 H 0.59326 0.28447 0.27169 0.0
H340 H 0.51708 0.24833 0.12201 0.0
H341 H 0.53669 0.25592 0.19882 0.0
C342 C 0.23448 0.15904 0.84874 0.0
C343 C 0.2202 0.15596 0.88601 0.0
C344 C 0.24158 0.14326 0.82152 0.0
C345 C 0.22871 0.09294 0.78281 0.0
H346 H 0.28383 0.09088 0.74784 0.0
C347 C 0.25827 0.03116 0.6596 0.0
C348 C 0.26901 0.03815 0.61774 0.0
C349 C 0.25441 0.0436 0.69986 0.0
C350 C 0.2684 0.09126 0.75733 0.0
H351 H 0.20231 0.1337 0.92402 0.0
H352 H 0.21481 0.1062 0.87673 0.0
H353 H 0.27247 0.11669 0.80298 0.0
H354 H 0.28531 0.06301 0.58665 0.0
H355 H 0.27857 0.08469 0.65661 0.0
H356 H 0.22456 0.06776 0.73632 0.0
C357 C 0.22034 0.12089 0.86817 0.0
C358 C 0.26187 0.10608 0.78873 0.0
C359 C 0.21321 0.13668 0.89537 0.0
C360 C 0.27685 0.05733 0.61833 0.0
C361 C 0.27311 0.06968 0.6586 0.0
C362 C 0.23525 0.07809 0.75151 0.0
C363 C 0.23461 0.12399 0.83094 0.0
C364 C 0.24188 0.10732 0.80102 0.0
C365 C 0.26138 0.06315 0.6991 0.0
C366 C 0.25509 0.07731 0.73762 0.0
H367 H 0.2402 0.17367 0.84042 0.0
H368 H 0.25233 0.14622 0.79248 0.0
H369 H 0.21318 0.09358 0.79106 0.0
H370 H 0.252 0.01646 0.65995 0.0
H371 H 0.24551 0.03809 0.73088 0.0
C372 C 0.35956 0.71559 0.40177 0.0
C373 C 0.34044 0.72328 0.39282 0.0
C374 C 0.37539 0.72287 0.37392 0.0
C375 C 0.39107 0.76562 0.29377 0.0
H376 H 0.42669 0.72802 0.23648 0.0
C377 C 0.43778 0.78325 0.11882 0.0
C378 C 0.45636 0.7743 0.11544 0.0
C379 C 0.42594 0.77896 0.16036 0.0
C380 C 0.41715 0.73877 0.25303 0.0
H381 H 0.3231 0.74477 0.34758 0.0
H382 H 0.35065 0.75723 0.29876 0.0
H383 H 0.40131 0.71635 0.29386 0.0
H384 H 0.47757 0.75467 0.15419 0.0
H385 H 0.45693 0.74735 0.22738 0.0
H386 H 0.40662 0.78799 0.25184 0.0
C387 C 0.35342 0.74576 0.32781 0.0
C388 C 0.40256 0.73206 0.28583 0.0
C389 C 0.33759 0.73847 0.35553 0.0
C390 C 0.46334 0.76184 0.1559 0.0
C391 C 0.45145 0.7575 0.19749 0.0
C392 C 0.40567 0.77233 0.26099 0.0
C393 C 0.37249 0.73803 0.33663 0.0
C394 C 0.3891 0.74537 0.30572 0.0
C395 C 0.43241 0.76561 0.19947 0.0
C396 C 0.41862 0.75893 0.23943 0.0
H397 H 0.36234 0.70395 0.43034 0.0
H398 H 0.38994 0.71673 0.38187 0.0
H399 H 0.38114 0.77627 0.30928 0.0
H400 H 0.43213 0.79308 0.0884 0.0
H401 H 0.4113 0.78535 0.16047 0.0
C402 C 0.77919 0.86098 0.89088 0.0
C403 C 0.77122 0.84207 0.88346 0.0
C404 C 0.77163 0.87737 0.86317 0.0
C405 C 0.72825 0.89479 0.78487 0.0
H406 H 0.76595 0.92991 0.72087 0.0
C407 C 0.71157 0.94042 0.60071 0.0
C408 C 0.72125 0.95851 0.59272 0.0
C409 C 0.71509 0.92924 0.64568 0.0
C410 C 0.75517 0.92056 0.73935 0.0
H411 H 0.74885 0.82571 0.84134 0.0
H412 H 0.73594 0.85422 0.79262 0.0
H413 H 0.77761 0.90416 0.78108 0.0
H414 H 0.74113 0.97977 0.62692 0.0
H415 H 0.74707 0.96033 0.70604 0.0
H416 H 0.70586 0.91081 0.74165 0.0
C417 C 0.74784 0.8564 0.82042 0.0
C418 C 0.76188 0.90575 0.7738 0.0
C419 C 0.7554 0.84001 0.84803 0.0
C420 C 0.73341 0.9659 0.63213 0.0
C421 C 0.73696 0.95469 0.67716 0.0
C422 C 0.72153 0.90962 0.75041 0.0
C423 C 0.75592 0.87525 0.82754 0.0
C424 C 0.74854 0.89238 0.79592 0.0
C425 C 0.72839 0.93592 0.6836 0.0
C426 C 0.73497 0.92235 0.72629 0.0
H427 H 0.79129 0.86315 0.91809 0.0
H428 H 0.77806 0.89174 0.86978 0.0
H429 H 0.71758 0.88494 0.8021 0.0
H430 H 0.70197 0.93448 0.5711 0.0
H431 H 0.70833 0.9148 0.64923 0.0
C432 C 0.83194 0.75797 0.84406 0.0
C433 C 0.83592 0.77347 0.87737 0.0
C434 C 0.84689 0.75012 0.81533 0.0
C435 C 0.90113 0.74651 0.80711 0.0
H436 H 0.88857 0.73522 0.66547 0.0
C437 C 0.95916 0.73399 0.65304 0.0
C438 C 0.95423 0.72088 0.61412 0.0
C439 C 0.94573 0.73775 0.69109 0.0
C440 C 0.89227 0.73794 0.7052 0.0
H441 H 0.85888 0.79282 0.90657 0.0
H442 H 0.88489 0.77932 0.85556 0.0
H443 H 0.86303 0.74773 0.71888 0.0
H444 H 0.93237 0.70009 0.58687 0.0
H445 H 0.90907 0.70635 0.65378 0.0
H446 H 0.93057 0.73704 0.79273 0.0
C447 C 0.87023 0.77306 0.85236 0.0
C448 C 0.87761 0.74517 0.73582 0.0
C449 C 0.85526 0.78091 0.88126 0.0
C450 C 0.93638 0.71045 0.61615 0.0
C451 C 0.92303 0.71412 0.65423 0.0
C452 C 0.91586 0.73929 0.77634 0.0
C453 C 0.86618 0.75761 0.81899 0.0
C454 C 0.88186 0.7496 0.78707 0.0
C455 C 0.92721 0.72841 0.69086 0.0
C456 C 0.91157 0.73495 0.72501 0.0
H457 H 0.81728 0.75172 0.84039 0.0
H458 H 0.84334 0.73802 0.79055 0.0
H459 H 0.9048 0.74957 0.84666 0.0
H460 H 0.97277 0.74233 0.65207 0.0
H461 H 0.94935 0.7489 0.71865 0.0
C462 C 0.73601 0.33973 0.3452 0.0
C463 C 0.71996 0.3423 0.3771 0.0
C464 C 0.74253 0.3552 0.31389 0.0
C465 C 0.74133 0.40923 0.29201 0.0
H466 H 0.75494 0.39498 0.15502 0.0
C467 C 0.7575 0.46438 0.12205 0.0
C468 C 0.77248 0.45867 0.08959 0.0
C469 C 0.75207 0.45192 0.16295 0.0
C470 C 0.75144 0.39918 0.19334 0.0
H471 H 0.69849 0.36344 0.40197 0.0
H472 H 0.70976 0.39054 0.34612 0.0
H473 H 0.74266 0.36986 0.21388 0.0
H474 H 0.79475 0.4366 0.07694 0.0
H475 H 0.78548 0.41503 0.14846 0.0
H476 H 0.74995 0.43877 0.27045 0.0
C477 C 0.71736 0.37649 0.34596 0.0
C478 C 0.74438 0.38478 0.22709 0.0
C479 C 0.71084 0.36094 0.37769 0.0
C480 C 0.78295 0.44116 0.101 0.0
C481 C 0.77759 0.42881 0.14174 0.0
C482 C 0.74835 0.42376 0.25789 0.0
C483 C 0.73312 0.37367 0.31322 0.0
C484 C 0.73954 0.38952 0.27707 0.0
C485 C 0.76158 0.43366 0.17181 0.0
C486 C 0.75376 0.41875 0.20849 0.0
H487 H 0.74363 0.32571 0.34429 0.0
H488 H 0.75502 0.35266 0.29006 0.0
H489 H 0.73777 0.41332 0.33034 0.0
H490 H 0.74917 0.47779 0.11385 0.0
H491 H 0.73967 0.45601 0.18554 0.0
C492 C 0.13684 0.21578 0.87822 0.0
C493 C 0.15585 0.22411 0.87782 0.0
C494 C 0.12182 0.22323 0.84525 0.0
C495 C 0.11502 0.25133 0.7234 0.0
H496 H 0.06082 0.25681 0.76414 0.0
C497 C 0.05774 0.28649 0.58551 0.0
C498 C 0.04001 0.27605 0.5791 0.0
C499 C 0.07052 0.28211 0.62701 0.0
C500 C 0.07588 0.25526 0.75223 0.0
H501 H 0.17369 0.24729 0.8435 0.0
H502 H 0.14754 0.26031 0.78673 0.0
H503 H 0.08599 0.24492 0.82676 0.0
H504 H 0.02112 0.25368 0.61249 0.0
H505 H 0.04362 0.24581 0.68518 0.0
H506 H 0.10506 0.26138 0.64899 0.0
C507 C 0.14434 0.24777 0.81176 0.0
C508 C 0.09027 0.24843 0.78799 0.0
C509 C 0.15933 0.24032 0.8445 0.0
C510 C 0.03467 0.26201 0.61677 0.0
C511 C 0.04755 0.25751 0.65831 0.0
C512 C 0.10071 0.25815 0.68785 0.0
C513 C 0.12548 0.23918 0.81125 0.0
C514 C 0.11002 0.24644 0.77392 0.0
C515 C 0.06592 0.26706 0.66284 0.0
C516 C 0.08099 0.26027 0.7018 0.0
H517 H 0.13362 0.20331 0.90345 0.0
H518 H 0.10749 0.21618 0.84547 0.0
H519 H 0.12998 0.24955 0.71096 0.0
H520 H 0.06204 0.29759 0.55732 0.0
H521 H 0.08433 0.29006 0.63013 0.0
C522 C 0.28238 0.63854 0.39646 0.0
C523 C 0.27412 0.65748 0.38878 0.0
C524 C 0.27613 0.62294 0.36634 0.0
C525 C 0.23588 0.60644 0.27924 0.0
H526 H 0.2769 0.57443 0.22308 0.0
C527 C 0.24666 0.55481 0.09687 0.0
C528 C 0.23038 0.54207 0.09983 0.0
C529 C 0.25168 0.56692 0.13728 0.0
C530 C 0.26527 0.5832 0.23863 0.0
H531 H 0.25242 0.67468 0.34394 0.0
H532 H 0.24168 0.64745 0.29103 0.0
H533 H 0.28578 0.59978 0.28368 0.0
H534 H 0.20678 0.53167 0.14761 0.0
H535 H 0.21553 0.55316 0.21885 0.0
H536 H 0.21545 0.59017 0.23267 0.0
C537 C 0.25288 0.64468 0.32076 0.0
C538 C 0.27034 0.5976 0.27364 0.0
C539 C 0.25917 0.66032 0.35083 0.0
C540 C 0.21941 0.54138 0.14452 0.0
C541 C 0.22433 0.55372 0.18498 0.0
C542 C 0.2308 0.59191 0.24433 0.0
C543 C 0.26143 0.62587 0.32788 0.0
C544 C 0.25574 0.60961 0.2937 0.0
C545 C 0.24049 0.56666 0.18157 0.0
C546 C 0.2455 0.58042 0.22295 0.0
H547 H 0.29382 0.63572 0.42555 0.0
H548 H 0.28283 0.60856 0.37314 0.0
H549 H 0.22429 0.61532 0.2945 0.0
H550 H 0.25549 0.55547 0.06302 0.0
H551 H 0.26408 0.57688 0.13329 0.0
C552 C 0.33898 0.73572 0.6709 0.0
C553 C 0.34132 0.72019 0.63713 0.0
C554 C 0.35501 0.74256 0.69993 0.0
C555 C 0.40324 0.72762 0.75438 0.0
H556 H 0.40944 0.78377 0.77444 0.0
C557 C 0.46371 0.75761 0.8908 0.0
C558 C 0.45679 0.77122 0.92554 0.0
C559 C 0.4521 0.75266 0.84798 0.0
C560 C 0.40789 0.76805 0.76925 0.0
H561 H 0.36246 0.6997 0.60756 0.0
H562 H 0.39045 0.71166 0.65865 0.0
H563 H 0.38404 0.77218 0.71455 0.0
H564 H 0.43295 0.79124 0.94116 0.0
H565 H 0.41262 0.78249 0.86708 0.0
H566 H 0.42665 0.72344 0.81029 0.0
C567 C 0.37614 0.71845 0.66258 0.0
C568 C 0.39334 0.76142 0.73503 0.0
C569 C 0.3601 0.71164 0.63326 0.0
C570 C 0.43855 0.78053 0.91528 0.0
C571 C 0.42699 0.77566 0.87254 0.0
C572 C 0.41777 0.73426 0.78874 0.0
C573 C 0.37376 0.73403 0.69607 0.0
C574 C 0.39056 0.74111 0.72814 0.0
C575 C 0.43343 0.76134 0.83901 0.0
C576 C 0.41994 0.75452 0.79744 0.0
H577 H 0.32476 0.74269 0.67488 0.0
H578 H 0.35264 0.75438 0.72604 0.0
H579 H 0.40135 0.71188 0.75015 0.0
H580 H 0.47769 0.75015 0.89789 0.0
H581 H 0.45753 0.74174 0.82252 0.0
C582 C 0.78648 0.85763 0.12013 0.0
C583 C 0.77753 0.83899 0.12574 0.0
C584 C 0.78049 0.87337 0.14923 0.0
C585 C 0.73955 0.89093 0.22589 0.0
H586 H 0.78019 0.92155 0.29435 0.0
C587 C 0.74802 0.94085 0.41332 0.0
C588 C 0.73203 0.95392 0.4065 0.0
C589 C 0.75361 0.929 0.37367 0.0
C590 C 0.76868 0.91317 0.27528 0.0
H591 H 0.75506 0.82243 0.16599 0.0
H592 H 0.74477 0.84986 0.21691 0.0
H593 H 0.78954 0.89629 0.23517 0.0
H594 H 0.70956 0.96519 0.35275 0.0
H595 H 0.71929 0.94417 0.28291 0.0
H596 H 0.71872 0.90742 0.26741 0.0
C597 C 0.75629 0.85231 0.18964 0.0
C598 C 0.77402 0.89883 0.24112 0.0
C599 C 0.76233 0.83654 0.16077 0.0
C600 C 0.72193 0.9552 0.35886 0.0
C601 C 0.72742 0.94314 0.31916 0.0
C602 C 0.7342 0.90537 0.25986 0.0
C603 C 0.76536 0.87087 0.18433 0.0
C604 C 0.75953 0.88729 0.21686 0.0
C605 C 0.74329 0.92988 0.32633 0.0
C606 C 0.74874 0.91633 0.2857 0.0
H607 H 0.79817 0.86009 0.09338 0.0
H608 H 0.78764 0.88755 0.14408 0.0
H609 H 0.72806 0.8824 0.20723 0.0
H610 H 0.75622 0.93976 0.44948 0.0
H611 H 0.76575 0.91877 0.38052 0.0
C612 C 0.66229 0.25723 0.66074 0.0
C613 C 0.65884 0.27326 0.62621 0.0
C614 C 0.64732 0.25012 0.69173 0.0
C615 C 0.5932 0.25016 0.70674 0.0
H616 H 0.6075 0.23743 0.84849 0.0
C617 C 0.53674 0.23907 0.86757 0.0
C618 C 0.54137 0.22507 0.90677 0.0
C619 C 0.55004 0.24299 0.82869 0.0
C620 C 0.60328 0.24059 0.80883 0.0
H621 H 0.63672 0.29417 0.59686 0.0
H622 H 0.61067 0.28191 0.65167 0.0
H623 H 0.63277 0.24846 0.79039 0.0
H624 H 0.5627 0.20307 0.9339 0.0
H625 H 0.58578 0.20968 0.86578 0.0
H626 H 0.56356 0.24254 0.72579 0.0
C627 C 0.62494 0.27471 0.6542 0.0
C628 C 0.61779 0.24696 0.7755 0.0
C629 C 0.63993 0.28182 0.62304 0.0
C630 C 0.55892 0.21417 0.90458 0.0
C631 C 0.57215 0.21802 0.86571 0.0
C632 C 0.57862 0.24379 0.74023 0.0
C633 C 0.62852 0.25887 0.68917 0.0
C634 C 0.61295 0.25183 0.72408 0.0
C635 C 0.56816 0.23292 0.82828 0.0
C636 C 0.58353 0.23894 0.79167 0.0
H637 H 0.6766 0.25011 0.66394 0.0
H638 H 0.65048 0.23768 0.71764 0.0
H639 H 0.58902 0.2536 0.6672 0.0
H640 H 0.52338 0.24779 0.86856 0.0
H641 H 0.54657 0.25463 0.80057 0.0
C642 C 0.20919 0.13314 0.11971 0.0
C643 C 0.21776 0.15168 0.12867 0.0
C644 C 0.21482 0.11655 0.1497 0.0
C645 C 0.25409 0.09743 0.23963 0.0
H646 H 0.21242 0.06419 0.29266 0.0
C647 C 0.24119 0.04531 0.42673 0.0
C648 C 0.25871 0.03424 0.42942 0.0
C649 C 0.23599 0.05639 0.38266 0.0
C650 C 0.22423 0.07327 0.27796 0.0
H651 H 0.23924 0.16714 0.17587 0.0
H652 H 0.24882 0.13832 0.2284 0.0
H653 H 0.20431 0.09051 0.23002 0.0
H654 H 0.28411 0.02533 0.38754 0.0
H655 H 0.275 0.04483 0.30987 0.0
H656 H 0.27388 0.08077 0.28943 0.0
C657 C 0.23793 0.13656 0.19774 0.0
C658 C 0.21961 0.08825 0.24174 0.0
C659 C 0.23229 0.15314 0.16786 0.0
C660 C 0.27052 0.03374 0.38631 0.0
C661 C 0.26538 0.04499 0.34215 0.0
C662 C 0.25871 0.08242 0.2758 0.0
C663 C 0.22918 0.1181 0.18922 0.0
C664 C 0.23442 0.10081 0.22312 0.0
C665 C 0.24823 0.05671 0.34026 0.0
C666 C 0.24376 0.07051 0.29632 0.0
H667 H 0.19804 0.13141 0.08967 0.0
H668 H 0.20794 0.1025 0.14188 0.0
H669 H 0.26587 0.10667 0.22541 0.0
H670 H 0.23173 0.04578 0.45931 0.0
H671 H 0.22281 0.06541 0.38273 0.0
C672 C 0.21612 0.28972 0.96692 0.0
C673 C 0.21562 0.27806 0.01227 0.0
C674 C 0.21636 0.31031 0.96867 0.0
C675 C 0.22953 0.35041 0.05516 0.0
H676 H 0.20014 0.38325 0.95566 0.0
C677 C 0.22839 0.43505 0.06756 0.0
C678 C 0.23112 0.44574 0.02159 0.0
C679 C 0.22465 0.41479 0.06718 0.0
C680 C 0.20854 0.37427 0.98349 0.0
H681 H 0.21445 0.27906 0.09503 0.0
H682 H 0.21473 0.31489 0.0979 0.0
H683 H 0.19713 0.34738 0.95347 0.0
H684 H 0.23094 0.44413 0.93911 0.0
H685 H 0.22468 0.4086 0.9382 0.0
H686 H 0.24114 0.37721 0.08482 0.0
C687 C 0.21524 0.30809 0.06104 0.0
C688 C 0.20682 0.35373 0.98221 0.0
C689 C 0.21499 0.28752 0.05932 0.0
C690 C 0.22915 0.43607 0.97506 0.0
C691 C 0.22542 0.4158 0.9746 0.0
C692 C 0.23125 0.37092 0.05642 0.0
C693 C 0.21611 0.31973 0.01579 0.0
C694 C 0.21737 0.34157 0.0179 0.0
C695 C 0.22343 0.40486 0.02072 0.0
C696 C 0.22086 0.38309 0.02046 0.0
H697 H 0.2166 0.28296 0.92998 0.0
H698 H 0.21724 0.31884 0.93315 0.0
H699 H 0.23812 0.34147 0.08266 0.0
H700 H 0.22948 0.44234 0.10382 0.0
H701 H 0.2228 0.40686 0.10328 0.0
C702 C 0.20685 0.71479 0.5551 0.0
C703 C 0.21688 0.71661 0.50892 0.0
C704 C 0.18627 0.71479 0.55508 0.0
C705 C 0.14303 0.73161 0.47819 0.0
H706 H 0.11455 0.6973 0.57151 0.0
C707 C 0.05804 0.73171 0.48259 0.0
C708 C 0.05 0.73181 0.53135 0.0
C709 C 0.07813 0.72803 0.47719 0.0
C710 C 0.12231 0.70706 0.54548 0.0
H711 H 0.21302 0.71946 0.42633 0.0
H712 H 0.17705 0.71939 0.42643 0.0
H713 H 0.15027 0.6941 0.56659 0.0
H714 H 0.05616 0.72719 0.61246 0.0
H715 H 0.09137 0.72105 0.60335 0.0
H716 H 0.11515 0.74482 0.4577 0.0
C717 C 0.18519 0.71816 0.46266 0.0
C718 C 0.14275 0.70522 0.54264 0.0
C719 C 0.2058 0.71811 0.46263 0.0
C720 C 0.06215 0.72745 0.57454 0.0
C721 C 0.08224 0.72377 0.56921 0.0
C722 C 0.12259 0.73347 0.48106 0.0
C723 C 0.17521 0.71663 0.50892 0.0
C724 C 0.15336 0.71764 0.50941 0.0
C725 C 0.09049 0.72423 0.5205 0.0
C726 C 0.11203 0.72137 0.51517 0.0
H727 H 0.21486 0.71358 0.5915 0.0
H728 H 0.17903 0.71384 0.5914 0.0
H729 H 0.15081 0.74158 0.45271 0.0
H730 H 0.0488 0.73468 0.44875 0.0
H731 H 0.08398 0.72815 0.43912 0.0
C732 C 0.78296 0.70516 0.04883 0.0
C733 C 0.78062 0.7165 0.00311 0.0
C734 C 0.78518 0.68469 0.04767 0.0
C735 C 0.8002 0.6452 0.96344 0.0
H736 H 0.77281 0.611 0.05927 0.0
C737 C 0.79818 0.56063 0.94577 0.0
C738 C 0.80043 0.5492 0.99116 0.0
C739 C 0.79589 0.58107 0.9475 0.0
C740 C 0.78074 0.62036 0.03265 0.0
H741 H 0.77862 0.71506 0.92028 0.0
H742 H 0.78233 0.67938 0.91845 0.0
H743 H 0.76842 0.64666 0.06185 0.0
H744 H 0.80137 0.54982 0.07384 0.0
H745 H 0.79769 0.58566 0.07711 0.0
H746 H 0.81255 0.61893 0.93428 0.0
C747 C 0.78267 0.68638 0.95514 0.0
C748 C 0.77821 0.64078 0.03411 0.0
C749 C 0.78041 0.70683 0.95626 0.0
C750 C 0.79997 0.55844 0.03836 0.0
C751 C 0.79769 0.57889 0.04016 0.0
C752 C 0.80275 0.62478 0.96201 0.0
C753 C 0.78516 0.6751 0.0008 0.0
C754 C 0.78788 0.65341 -0.00055 0.0
C755 C 0.79562 0.59043 0.99473 0.0
C756 C 0.79303 0.61213 0.99655 0.0
H757 H 0.78324 0.71209 0.08561 0.0
H758 H 0.78727 0.67641 0.08348 0.0
H759 H 0.8081 0.65457 0.93677 0.0
H760 H 0.79807 0.55369 0.90899 0.0
H761 H 0.79397 0.58949 0.91187 0.0
C762 C 0.78932 0.28494 0.4486 0.0
C763 C 0.77987 0.28339 0.49569 0.0
C764 C 0.80978 0.28713 0.44707 0.0
C765 C 0.85562 0.27939 0.52489 0.0
H766 H 0.87781 0.31618 0.42588 0.0
C767 C 0.93824 0.30014 0.52886 0.0
C768 C 0.94744 0.3018 0.48162 0.0
C769 C 0.91778 0.29793 0.53078 0.0
C770 C 0.87186 0.30569 0.45339 0.0
H771 H 0.78467 0.28297 0.57816 0.0
H772 H 0.82031 0.28695 0.57535 0.0
H773 H 0.84213 0.31226 0.4289 0.0
H774 H 0.94282 0.30161 0.39945 0.0
H775 H 0.90701 0.29769 0.40254 0.0
H776 H 0.88535 0.27283 0.54939 0.0
C777 C 0.81188 0.28622 0.53962 0.0
C778 C 0.85141 0.30344 0.45511 0.0
C779 C 0.79142 0.28404 0.54119 0.0
C780 C 0.93595 0.30077 0.43629 0.0
C781 C 0.91549 0.29858 0.43814 0.0
C782 C 0.87607 0.28165 0.52318 0.0
C783 C 0.8213 0.28782 0.49255 0.0
C784 C 0.84305 0.29025 0.49085 0.0
C785 C 0.90617 0.29717 0.48542 0.0
C786 C 0.88442 0.29481 0.48738 0.0
H787 H 0.78094 0.28446 0.41276 0.0
H788 H 0.81661 0.28805 0.41018 0.0
H789 H 0.84966 0.26889 0.55237 0.0
H790 H 0.9469 0.3006 0.56429 0.0
H791 H 0.91105 0.29702 0.56778 0.0
C792 C 0.71788 0.2056 0.5438 0.0
C793 C 0.71599 0.21716 0.49834 0.0
C794 C 0.71826 0.18501 0.54222 0.0
C795 C 0.72988 0.14527 0.45559 0.0
H796 H 0.70342 0.11169 0.55462 0.0
C797 C 0.72927 0.06084 0.4406 0.0
C798 C 0.73316 0.04993 0.48618 0.0
C799 C 0.72546 0.08106 0.44177 0.0
C800 C 0.71101 0.12089 0.52695 0.0
H801 H 0.71229 0.21601 0.4157 0.0
H802 H 0.71281 0.1802 0.41318 0.0
H803 H 0.69989 0.14751 0.55757 0.0
H804 H 0.73505 0.0511 0.56876 0.0
H805 H 0.72873 0.08658 0.571 0.0
H806 H 0.74123 0.11878 0.42533 0.0
C807 C 0.71434 0.18707 0.44993 0.0
C808 C 0.70899 0.14138 0.52865 0.0
C809 C 0.71396 0.20762 0.45146 0.0
C810 C 0.73238 0.05934 0.53311 0.0
C811 C 0.72859 0.07957 0.53433 0.0
C812 C 0.73192 0.12483 0.45393 0.0
C813 C 0.71676 0.17555 0.4952 0.0
C814 C 0.71844 0.15378 0.49303 0.0
C815 C 0.72535 0.09071 0.48861 0.0
C816 C 0.72256 0.1124 0.48965 0.0
H817 H 0.71945 0.21244 0.58058 0.0
H818 H 0.7203 0.17652 0.57773 0.0
H819 H 0.73764 0.15443 0.42818 0.0
H820 H 0.72942 0.05373 0.40408 0.0
H821 H 0.72263 0.08915 0.40596 0.0
C822 C 0.28961 0.21298 0.06064 0.0
C823 C 0.27872 0.21227 0.0141 0.0
C824 C 0.31024 0.21329 0.06116 0.0
C825 C 0.35335 0.20325 0.98201 0.0
H826 H 0.3794 0.2423 0.06569 0.0
C827 C 0.43273 0.22976 0.94772 0.0
C828 C 0.44488 0.23372 0.9905 0.0
C829 C 0.41283 0.22514 0.95367 0.0
C830 C 0.37241 0.2311 0.0427 0.0
H831 H 0.28113 0.21067 0.93171 0.0
H832 H 0.31694 0.21138 0.93274 0.0
H833 H 0.34392 0.2374 0.07123 0.0
H834 H 0.4463 0.23493 0.07307 0.0
H835 H 0.41145 0.22681 0.08374 0.0
H836 H 0.3818 0.1972 0.95282 0.0
C837 C 0.30956 0.21154 0.96887 0.0
C838 C 0.35207 0.22828 0.04591 0.0
C839 C 0.28898 0.21129 0.9683 0.0
C840 C 0.43704 0.23232 0.03949 0.0
C841 C 0.41714 0.22772 0.0455 0.0
C842 C 0.37369 0.20607 0.97881 0.0
C843 C 0.32043 0.2128 0.01521 0.0
C844 C 0.34226 0.21453 0.01505 0.0
C845 C 0.40477 0.22423 0.0026 0.0
C846 C 0.38341 0.22023 0.00857 0.0
H847 H 0.28221 0.21368 0.09666 0.0
H848 H 0.31822 0.21404 0.09754 0.0
H849 H 0.34627 0.19232 0.95833 0.0
H850 H 0.43858 0.23047 0.90964 0.0
H851 H 0.40368 0.2227 0.91981 0.0
C852 C 0.28442 0.7913 0.4658 0.0
C853 C 0.28401 0.78005 0.51183 0.0
C854 C 0.28691 0.81177 0.46636 0.0
C855 C 0.30531 0.85169 0.54815 0.0
H856 H 0.27323 0.88538 0.45667 0.0
C857 C 0.3009 0.93607 0.56948 0.0
C858 C 0.30049 0.94791 0.52455 0.0
C859 C 0.29969 0.91554 0.56694 0.0
C860 C 0.2825 0.87618 0.48199 0.0
H861 H 0.28591 0.78165 0.59464 0.0
H862 H 0.29007 0.81728 0.59546 0.0
H863 H 0.26958 0.84965 0.45391 0.0
H864 H 0.29793 0.94784 0.44192 0.0
H865 H 0.29613 0.91189 0.43719 0.0
H866 H 0.31818 0.87821 0.57637 0.0
C867 C 0.28869 0.81023 0.55892 0.0
C868 C 0.28039 0.8557 0.48042 0.0
C869 C 0.28616 0.78979 0.5584 0.0
C870 C 0.29859 0.93894 0.47703 0.0
C871 C 0.29738 0.91841 0.47442 0.0
C872 C 0.30744 0.87217 0.54968 0.0
C873 C 0.2891 0.82146 0.51293 0.0
C874 C 0.2917 0.84322 0.51368 0.0
C875 C 0.29785 0.90647 0.51937 0.0
C876 C 0.29599 0.88466 0.51679 0.0
H877 H 0.28289 0.78431 0.4292 0.0
H878 H 0.28738 0.81998 0.43025 0.0
H879 H 0.31447 0.84247 0.57371 0.0
H880 H 0.30194 0.94275 0.60657 0.0
H881 H 0.29972 0.90681 0.6023 0.0
C882 C 0.70617 0.77776 0.05612 0.0
C883 C 0.71608 0.78325 0.01145 0.0
C884 C 0.68573 0.77993 0.05822 0.0
C885 C 0.644 0.80787 0.00163 0.0
H886 H 0.61232 0.76375 0.04925 0.0
C887 C 0.5605 0.81375 0.03952 0.0
C888 C 0.54863 0.7988 0.01894 0.0
C889 C 0.58106 0.81223 0.03954 0.0
C890 C 0.62101 0.77617 0.03585 0.0
H891 H 0.71231 0.79562 0.93424 0.0
H892 H 0.67664 0.79959 0.9383 0.0
H893 H 0.64822 0.76042 0.04797 0.0
H894 H 0.54889 0.77113 0.97945 0.0
H895 H 0.58482 0.76824 0.98058 0.0
H896 H 0.61677 0.82361 0.98948 0.0
C897 C 0.68473 0.79356 0.97153 0.0
C898 C 0.64151 0.77432 0.03547 0.0
C899 C 0.70512 0.79114 0.96914 0.0
C900 C 0.55769 0.78258 0.99696 0.0
C901 C 0.57821 0.78094 0.99756 0.0
C902 C 0.62351 0.80981 0.00265 0.0
C903 C 0.67484 0.7879 0.01599 0.0
C904 C 0.65318 0.7901 0.01799 0.0
C905 C 0.59008 0.79572 0.01896 0.0
C906 C 0.61183 0.79392 0.01938 0.0
H907 H 0.71418 0.77162 0.08934 0.0
H908 H 0.67844 0.77557 0.09306 0.0
H909 H 0.6527 0.82029 0.98828 0.0
H910 H 0.55386 0.8266 0.05568 0.0
H911 H 0.5899 0.82384 0.05619 0.0
loop_
_geom_bond_atom_site_label_1
_geom_bond_atom_site_label_2
_geom_bond_distance
_geom_bond_site_symmetry_2
_ccdc_geom_bond_type
Sc0 O3 2.025 . S
Sc0 O10 2.105 . S
Sc0 O13 2.105 . S
Sc0 O16 2.105 . S
Sc0 O19 2.105 . S
Sc1 O3 2.025 . S
Sc1 O11 2.105 . S
Sc1 O15 2.105 1_554 S
Sc1 O17 2.105 . S
Sc1 O21 2.105 1_554 S
Sc2 O3 2.025 1_556 S
Sc2 O12 2.105 . S
Sc2 O14 2.105 . S
Sc2 O18 2.105 . S
Sc2 O20 2.105 . S
O3 Sc0 2.025 . S
O3 Sc1 2.025 . S
O3 Sc2 2.025 1_554 S
C4 O10 1.268 . S
C4 O20 1.268 1_554 S
C5 O11 1.268 . S
C5 O19 1.268 . S
C6 O12 1.268 . S
C6 O21 1.268 . S
C7 O13 1.268 . S
C7 O17 1.268 . S
C8 O14 1.268 1_554 S
C8 O16 1.268 . S
C9 O15 1.268 . S
C9 O18 1.268 . S
O10 Sc0 2.105 . S
O10 C4 1.268 . S
O11 Sc1 2.105 . S
O11 C5 1.268 . S
O12 Sc2 2.105 . S
O12 C6 1.268 . S
O13 Sc0 2.105 . S
O13 C7 1.268 . S
O14 Sc2 2.105 . S
O14 C8 1.268 1_556 S
O15 Sc1 2.105 1_556 S
O15 C9 1.268 . S
O16 Sc0 2.105 . S
O16 C8 1.268 . S
O17 Sc1 2.105 . S
O17 C7 1.268 . S
O18 Sc2 2.105 . S
O18 C9 1.268 . S
O19 Sc0 2.105 . S
O19 C5 1.268 . S
O20 Sc2 2.105 . S
O20 C4 1.268 1_556 S
O21 Sc1 2.105 1_556 S
O21 C6 1.268 . S
Sc22 O25 2.025 . S
Sc22 O32 2.105 . S
Sc22 O35 2.105 . S
Sc22 O38 2.105 . S
Sc22 O41 2.105 . S
Sc23 O25 2.025 . S
Sc23 O33 2.105 . S
Sc23 O37 2.105 . S
Sc23 O39 2.105 . S
Sc23 O43 2.105 . S
Sc24 O25 2.025 . S
Sc24 O34 2.105 . S
Sc24 O36 2.105 . S
Sc24 O40 2.105 . S
Sc24 O42 2.105 . S
O25 Sc22 2.025 . S
O25 Sc23 2.025 . S
O25 Sc24 2.025 . S
C26 O32 1.268 . S
C26 O42 1.268 . S
C27 O33 1.268 . S
C27 O41 1.268 . S
C28 O34 1.268 . S
C28 O43 1.268 . S
C29 O35 1.268 . S
C29 O39 1.268 . S
C30 O36 1.268 . S
C30 O38 1.268 . S
C31 O37 1.268 . S
C31 O40 1.268 . S
O32 Sc22 2.105 . S
O32 C26 1.268 . S
O33 Sc23 2.105 . S
O33 C27 1.268 . S
O34 Sc24 2.105 . S
O34 C28 1.268 . S
O35 Sc22 2.105 . S
O35 C29 1.268 . S
O36 Sc24 2.105 . S
O36 C30 1.268 . S
O37 Sc23 2.105 . S
O37 C31 1.268 . S
O38 Sc22 2.105 . S
O38 C30 1.268 . S
O39 Sc23 2.105 . S
O39 C29 1.268 . S
O40 Sc24 2.105 . S
O40 C31 1.268 . S
O41 Sc22 2.105 . S
O41 C27 1.268 . S
O42 Sc24 2.105 . S
O42 C26 1.268 . S
O43 Sc23 2.105 . S
O43 C28 1.268 . S
Sc44 O47 2.025 1_556 S
Sc44 O54 2.105 . S
Sc44 O57 2.105 . S
Sc44 O60 2.105 . S
Sc44 O63 2.105 . S
Sc45 O47 2.025 . S
Sc45 O55 2.105 1_554 S
Sc45 O59 2.105 . S
Sc45 O61 2.105 1_554 S
Sc45 O65 2.105 . S
Sc46 O47 2.025 . S
Sc46 O56 2.105 . S
Sc46 O58 2.105 . S
Sc46 O62 2.105 . S
Sc46 O64 2.105 . S
O47 Sc44 2.025 1_554 S
O47 Sc45 2.025 . S
O47 Sc46 2.025 . S
C48 O54 1.268 1_554 S
C48 O64 1.268 . S
C49 O55 1.268 . S
C49 O63 1.268 . S
C50 O56 1.268 . S
C50 O65 1.268 . S
C51 O57 1.268 . S
C51 O61 1.268 . S
C52 O58 1.268 . S
C52 O60 1.268 1_554 S
C53 O59 1.268 . S
C53 O62 1.268 . S
O54 Sc44 2.105 . S
O54 C48 1.268 1_556 S
O55 Sc45 2.105 1_556 S
O55 C49 1.268 . S
O56 Sc46 2.105 . S
O56 C50 1.268 . S
O57 Sc44 2.105 . S
O57 C51 1.268 . S
O58 Sc46 2.105 . S
O58 C52 1.268 . S
O59 Sc45 2.105 . S
O59 C53 1.268 . S
O60 Sc44 2.105 . S
O60 C52 1.268 1_556 S
O61 Sc45 2.105 1_556 S
O61 C51 1.268 . S
O62 Sc46 2.105 . S
O62 C53 1.268 . S
O63 Sc44 2.105 . S
O63 C49 1.268 . S
O64 Sc46 2.105 . S
O64 C48 1.268 . S
O65 Sc45 2.105 . S
O65 C50 1.268 . S
Sc66 O69 2.025 . S
Sc66 O76 2.105 . S
Sc66 O79 2.105 . S
Sc66 O82 2.105 . S
Sc66 O85 2.105 . S
Sc67 O69 2.025 . S
Sc67 O77 2.105 . S
Sc67 O81 2.105 . S
Sc67 O83 2.105 . S
Sc67 O87 2.105 . S
Sc68 O69 2.025 . S
Sc68 O78 2.105 . S
Sc68 O80 2.105 . S
Sc68 O84 2.105 . S
Sc68 O86 2.105 . S
O69 Sc66 2.025 . S
O69 Sc67 2.025 . S
O69 Sc68 2.025 . S
C70 O76 1.268 . S
C70 O86 1.268 . S
C71 O77 1.268 . S
C71 O85 1.268 . S
C72 O78 1.268 . S
C72 O87 1.268 . S
C73 O79 1.268 . S
C73 O83 1.268 . S
C74 O80 1.268 . S
C74 O82 1.268 . S
C75 O81 1.268 . S
C75 O84 1.268 . S
O76 Sc66 2.105 . S
O76 C70 1.268 . S
O77 Sc67 2.105 . S
O77 C71 1.268 . S
O78 Sc68 2.105 . S
O78 C72 1.268 . S
O79 Sc66 2.105 . S
O79 C73 1.268 . S
O80 Sc68 2.105 . S
O80 C74 1.268 . S
O81 Sc67 2.105 . S
O81 C75 1.268 . S
O82 Sc66 2.105 . S
O82 C74 1.268 . S
O83 Sc67 2.105 . S
O83 C73 1.268 . S
O84 Sc68 2.105 . S
O84 C75 1.268 . S
O85 Sc66 2.105 . S
O85 C71 1.268 . S
O86 Sc68 2.105 . S
O86 C70 1.268 . S
O87 Sc67 2.105 . S
O87 C72 1.268 . S
H88 C95 0.929 . S
H89 C98 0.930 . S
H90 C100 0.929 . S
H91 C92 0.969 . S
C92 H91 0.969 . S
C92 O93 1.550 1_556 S
C92 H94 0.973 . S
O93 C92 1.550 1_554 S
O93 C99 1.412 . S
H94 C92 0.973 . S
C95 H88 0.929 . S
C95 C96 1.400 . S
C95 C97 1.364 1_554 S
C96 C95 1.400 . S
C96 C100 1.377 . S
C97 C95 1.364 1_556 S
C97 C98 1.374 . S
C98 H89 0.930 . S
C98 C97 1.374 . S
C98 C99 1.383 1_556 S
C99 O93 1.412 . S
C99 C98 1.383 1_554 S
C99 C100 1.394 . S
C100 H90 0.929 . S
C100 C96 1.377 . S
C100 C99 1.394 . S
H101 C108 0.929 . S
H102 C111 0.930 . S
H103 C113 0.929 . S
H104 C105 0.969 . S
C105 H104 0.969 . S
C105 O106 1.550 . S
C105 H107 0.973 . S
O106 C105 1.550 . S
O106 C112 1.412 1_455 S
H107 C105 0.973 . S
C108 H101 0.929 . S
C108 C109 1.400 . S
C108 C110 1.364 . S
C109 C108 1.400 . S
C109 C113 1.377 . S
C110 C108 1.364 . S
C110 C111 1.374 . S
C111 H102 0.930 . S
C111 C110 1.374 . S
C111 C112 1.383 . S
C112 O106 1.412 1_655 S
C112 C111 1.383 . S
C112 C113 1.394 . S
C113 H103 0.929 . S
C113 C109 1.377 . S
C113 C112 1.394 . S
H114 C121 0.928 1_554 S
H115 C124 0.930 . S
H116 C126 0.929 . S
H117 C118 0.969 . S
C118 H117 0.969 . S
C118 O119 1.550 1_554 S
C118 H120 0.973 . S
O119 C118 1.550 1_556 S
O119 C125 1.412 . S
H120 C118 0.973 . S
C121 H114 0.928 1_556 S
C121 C122 1.406 . S
C121 C123 1.359 1_556 S
C122 C121 1.406 . S
C122 C126 1.377 . S
C123 C121 1.359 1_554 S
C123 C124 1.374 . S
C124 H115 0.930 . S
C124 C123 1.374 . S
C124 C125 1.383 1_554 S
C125 O119 1.412 . S
C125 C124 1.383 1_556 S
C125 C126 1.394 . S
C126 H116 0.929 . S
C126 C122 1.377 . S
C126 C125 1.394 . S
H127 C134 0.929 . S
H128 C137 0.930 . S
H129 C139 0.929 . S
H130 C131 0.969 . S
C131 H130 0.969 . S
C131 O132 1.550 . S
C131 H133 0.973 . S
O132 C131 1.550 . S
O132 C138 1.412 1_655 S
H133 C131 0.973 . S
C134 H127 0.929 . S
C134 C135 1.400 . S
C134 C136 1.364 . S
C135 C134 1.400 . S
C135 C139 1.377 . S
C136 C134 1.364 . S
C136 C137 1.374 . S
C137 H128 0.930 . S
C137 C136 1.374 . S
C137 C138 1.383 . S
C138 O132 1.412 1_455 S
C138 C137 1.383 . S
C138 C139 1.394 . S
C139 H129 0.929 . S
C139 C135 1.377 . S
C139 C138 1.394 . S
H140 C147 0.929 . S
H141 C150 0.930 . S
H142 C152 0.929 . S
H143 C144 0.969 . S
C144 H143 0.969 . S
C144 O145 1.550 . S
C144 H146 0.973 . S
O145 C144 1.550 . S
O145 C151 1.412 1_545 S
H146 C144 0.973 . S
C147 H140 0.929 . S
C147 C148 1.400 . S
C147 C149 1.364 . S
C148 C147 1.400 . S
C148 C152 1.377 . S
C149 C147 1.364 . S
C149 C150 1.374 . S
C150 H141 0.930 . S
C150 C149 1.374 . S
C150 C151 1.383 . S
C151 O145 1.412 1_565 S
C151 C150 1.383 . S
C151 C152 1.394 . S
C152 H142 0.929 . S
C152 C148 1.377 . S
C152 C151 1.394 . S
H153 C160 0.928 1_554 S
H154 C163 0.930 . S
H155 C165 0.929 . S
H156 C157 0.969 . S
C157 H156 0.969 . S
C157 O158 1.550 1_554 S
C157 H159 0.973 . S
O158 C157 1.550 1_556 S
O158 C164 1.412 . S
H159 C157 0.973 . S
C160 H153 0.928 1_556 S
C160 C161 1.406 . S
C160 C162 1.358 1_556 S
C161 C160 1.406 . S
C161 C165 1.377 . S
C162 C160 1.358 1_554 S
C162 C163 1.374 . S
C163 H154 0.930 . S
C163 C162 1.374 . S
C163 C164 1.383 1_554 S
C164 O158 1.412 . S
C164 C163 1.383 1_556 S
C164 C165 1.394 . S
C165 H155 0.929 . S
C165 C161 1.377 . S
C165 C164 1.394 . S
H166 C173 0.929 . S
H167 C176 0.930 . S
H168 C178 0.929 . S
H169 C170 0.969 . S
C170 H169 0.969 . S
C170 O171 1.550 . S
C170 H172 0.973 . S
O171 C170 1.550 . S
O171 C177 1.412 1_565 S
H172 C170 0.973 . S
C173 H166 0.929 . S
C173 C174 1.400 . S
C173 C175 1.364 . S
C174 C173 1.400 . S
C174 C178 1.377 . S
C175 C173 1.364 . S
C175 C176 1.374 . S
C176 H167 0.930 . S
C176 C175 1.374 . S
C176 C177 1.383 . S
C177 O171 1.412 1_545 S
C177 C176 1.383 . S
C177 C178 1.394 . S
C178 H168 0.929 . S
C178 C174 1.377 . S
C178 C177 1.394 . S
H179 C186 0.929 . S
H180 C189 0.930 . S
H181 C191 0.929 . S
H182 C183 0.969 . S
C183 H182 0.969 . S
C183 O184 1.550 1_556 S
C183 H185 0.973 . S
O184 C183 1.550 1_554 S
O184 C190 1.412 . S
H185 C183 0.973 . S
C186 H179 0.929 . S
C186 C187 1.400 . S
C186 C188 1.364 1_554 S
C187 C186 1.400 . S
C187 C191 1.377 . S
C188 C186 1.364 1_556 S
C188 C189 1.374 . S
C189 H180 0.930 . S
C189 C188 1.374 . S
C189 C190 1.383 1_556 S
C190 O184 1.412 . S
C190 C189 1.383 1_554 S
C190 C191 1.394 . S
C191 H181 0.929 . S
C191 C187 1.377 . S
C191 C190 1.394 . S
C192 C193 1.349 . S
C192 C194 1.327 . S
C192 H217 0.950 . S
C193 C192 1.349 . S
C193 C209 1.349 . S
C194 C192 1.327 . S
C194 C213 1.429 . S
C194 H218 0.950 . S
C195 C212 1.574 . S
C195 C214 1.368 . S
C195 H219 0.949 . S
H196 C200 0.949 . S
C197 C198 1.349 . S
C197 C199 1.327 . S
C197 H220 0.950 . S
C198 C197 1.349 . S
C198 C210 1.349 . S
C199 C197 1.327 . S
C199 C215 1.429 . S
C199 H221 0.950 . S
C200 H196 0.949 . S
C200 C208 1.574 . S
C200 C216 1.368 . S
H201 C209 0.950 . S
H202 C207 0.950 . S
H203 C208 0.949 . S
H204 C210 0.950 . S
H205 C211 0.950 . S
H206 C212 0.949 . S
C207 H202 0.950 . S
C207 C209 1.327 . S
C207 C213 1.429 . S
C208 C200 1.574 . S
C208 H203 0.949 . S
C208 C214 1.368 . S
C209 C193 1.349 . S
C209 H201 0.950 . S
C209 C207 1.327 . S
C210 C198 1.349 . S
C210 H204 0.950 . S
C210 C211 1.327 . S
C211 H205 0.950 . S
C211 C210 1.327 . S
C211 C215 1.429 . S
C212 C195 1.574 . S
C212 H206 0.949 . S
C212 C216 1.368 . S
C213 C194 1.429 . S
C213 C207 1.429 . S
C213 C214 1.523 . S
C214 C195 1.368 . S
C214 C208 1.368 . S
C214 C213 1.523 . S
C215 C199 1.429 . S
C215 C211 1.429 . S
C215 C216 1.523 . S
C216 C200 1.368 . S
C216 C212 1.368 . S
C216 C215 1.523 . S
H217 C192 0.950 . S
H218 C194 0.950 . S
H219 C195 0.949 . S
H220 C197 0.950 . S
H221 C199 0.950 . S
C222 C223 1.349 . S
C222 C224 1.327 . S
C222 H247 0.950 . S
C223 C222 1.349 . S
C223 C239 1.349 . S
C224 C222 1.327 . S
C224 C243 1.429 . S
C224 H248 0.950 . S
C225 C242 1.574 . S
C225 C244 1.368 . S
C225 H249 0.949 . S
H226 C230 0.949 . S
C227 C228 1.349 . S
C227 C229 1.327 . S
C227 H250 0.950 . S
C228 C227 1.349 . S
C228 C240 1.349 . S
C229 C227 1.327 . S
C229 C245 1.429 . S
C229 H251 0.950 . S
C230 H226 0.949 . S
C230 C238 1.574 . S
C230 C246 1.368 . S
H231 C239 0.950 . S
H232 C237 0.950 . S
H233 C238 0.949 . S
H234 C240 0.950 . S
H235 C241 0.950 . S
H236 C242 0.949 . S
C237 H232 0.950 . S
C237 C239 1.327 . S
C237 C243 1.429 . S
C238 C230 1.574 . S
C238 H233 0.949 . S
C238 C244 1.368 . S
C239 C223 1.349 . S
C239 H231 0.950 . S
C239 C237 1.327 . S
C240 C228 1.349 . S
C240 H234 0.950 . S
C240 C241 1.327 . S
C241 H235 0.950 . S
C241 C240 1.327 . S
C241 C245 1.429 . S
C242 C225 1.574 . S
C242 H236 0.949 . S
C242 C246 1.368 . S
C243 C224 1.429 . S
C243 C237 1.429 . S
C243 C244 1.523 . S
C244 C225 1.368 . S
C244 C238 1.368 . S
C244 C243 1.523 . S
C245 C229 1.429 . S
C245 C241 1.429 . S
C245 C246 1.523 . S
C246 C230 1.368 . S
C246 C242 1.368 . S
C246 C245 1.523 . S
H247 C222 0.950 . S
H248 C224 0.950 . S
H249 C225 0.949 . S
H250 C227 0.950 . S
H251 C229 0.950 . S
C252 C253 1.349 . S
C252 C254 1.327 . S
C252 H277 0.950 . S
C253 C252 1.349 . S
C253 C269 1.349 . S
C254 C252 1.327 . S
C254 C273 1.429 . S
C254 H278 0.950 . S
C255 C272 1.574 . S
C255 C274 1.368 . S
C255 H279 0.949 . S
H256 C260 0.949 . S
C257 C258 1.349 . S
C257 C259 1.327 . S
C257 H280 0.950 . S
C258 C257 1.349 . S
C258 C270 1.349 . S
C259 C257 1.327 . S
C259 C275 1.429 . S
C259 H281 0.950 . S
C260 H256 0.949 . S
C260 C268 1.574 . S
C260 C276 1.368 . S
H261 C269 0.950 . S
H262 C267 0.950 . S
H263 C268 0.949 . S
H264 C270 0.950 . S
H265 C271 0.950 . S
H266 C272 0.949 . S
C267 H262 0.950 . S
C267 C269 1.327 . S
C267 C273 1.429 . S
C268 C260 1.574 . S
C268 H263 0.949 . S
C268 C274 1.368 . S
C269 C253 1.349 . S
C269 H261 0.950 . S
C269 C267 1.327 . S
C270 C258 1.349 . S
C270 H264 0.950 . S
C270 C271 1.327 . S
C271 H265 0.950 . S
C271 C270 1.327 . S
C271 C275 1.429 . S
C272 C255 1.574 . S
C272 H266 0.949 . S
C272 C276 1.368 . S
C273 C254 1.429 . S
C273 C267 1.429 . S
C273 C274 1.523 . S
C274 C255 1.368 . S
C274 C268 1.368 . S
C274 C273 1.523 . S
C275 C259 1.429 . S
C275 C271 1.429 . S
C275 C276 1.523 . S
C276 C260 1.368 . S
C276 C272 1.368 . S
C276 C275 1.523 . S
H277 C252 0.950 . S
H278 C254 0.950 . S
H279 C255 0.949 . S
H280 C257 0.950 . S
H281 C259 0.950 . S
C282 C283 1.349 . S
C282 C284 1.327 . S
C282 H307 0.950 . S
C283 C282 1.349 . S
C283 C299 1.349 . S
C284 C282 1.327 . S
C284 C303 1.429 . S
C284 H308 0.950 . S
C285 C302 1.574 . S
C285 C304 1.368 . S
C285 H309 0.949 . S
H286 C290 0.949 . S
C287 C288 1.349 . S
C287 C289 1.327 . S
C287 H310 0.950 . S
C288 C287 1.349 . S
C288 C300 1.349 . S
C289 C287 1.327 . S
C289 C305 1.429 . S
C289 H311 0.950 . S
C290 H286 0.949 . S
C290 C298 1.574 . S
C290 C306 1.368 . S
H291 C299 0.950 . S
H292 C297 0.950 . S
H293 C298 0.949 . S
H294 C300 0.950 . S
H295 C301 0.950 . S
H296 C302 0.949 . S
C297 H292 0.950 . S
C297 C299 1.327 . S
C297 C303 1.429 . S
C298 C290 1.574 . S
C298 H293 0.949 . S
C298 C304 1.368 . S
C299 C283 1.349 . S
C299 H291 0.950 . S
C299 C297 1.327 . S
C300 C288 1.349 . S
C300 H294 0.950 . S
C300 C301 1.327 . S
C301 H295 0.950 . S
C301 C300 1.327 . S
C301 C305 1.429 . S
C302 C285 1.574 . S
C302 H296 0.949 . S
C302 C306 1.368 . S
C303 C284 1.429 . S
C303 C297 1.429 . S
C303 C304 1.523 . S
C304 C285 1.368 . S
C304 C298 1.368 . S
C304 C303 1.523 . S
C305 C289 1.429 . S
C305 C301 1.429 . S
C305 C306 1.523 . S
C306 C290 1.368 . S
C306 C302 1.368 . S
C306 C305 1.523 . S
H307 C282 0.950 . S
H308 C284 0.950 . S
H309 C285 0.949 . S
H310 C287 0.950 . S
H311 C289 0.950 . S
C312 C313 1.349 . S
C312 C314 1.327 . S
C312 H337 0.950 . S
C313 C312 1.349 . S
C313 C329 1.349 . S
C314 C312 1.327 . S
C314 C333 1.429 . S
C314 H338 0.950 . S
C315 C332 1.574 . S
C315 C334 1.368 . S
C315 H339 0.949 . S
H316 C320 0.949 . S
C317 C318 1.349 . S
C317 C319 1.327 . S
C317 H340 0.950 . S
C318 C317 1.349 . S
C318 C330 1.349 . S
C319 C317 1.327 . S
C319 C335 1.429 . S
C319 H341 0.950 . S
C320 H316 0.949 . S
C320 C328 1.574 . S
C320 C336 1.368 . S
H321 C329 0.950 . S
H322 C327 0.950 . S
H323 C328 0.949 . S
H324 C330 0.950 . S
H325 C331 0.950 . S
H326 C332 0.949 . S
C327 H322 0.950 . S
C327 C329 1.327 . S
C327 C333 1.429 . S
C328 C320 1.574 . S
C328 H323 0.949 . S
C328 C334 1.368 . S
C329 C313 1.349 . S
C329 H321 0.950 . S
C329 C327 1.327 . S
C330 C318 1.349 . S
C330 H324 0.950 . S
C330 C331 1.327 . S
C331 H325 0.950 . S
C331 C330 1.327 . S
C331 C335 1.429 . S
C332 C315 1.574 . S
C332 H326 0.949 . S
C332 C336 1.368 . S
C333 C314 1.429 . S
C333 C327 1.429 . S
C333 C334 1.523 . S
C334 C315 1.368 . S
C334 C328 1.368 . S
C334 C333 1.523 . S
C335 C319 1.429 . S
C335 C331 1.429 . S
C335 C336 1.523 . S
C336 C320 1.368 . S
C336 C332 1.368 . S
C336 C335 1.523 . S
H337 C312 0.950 . S
H338 C314 0.950 . S
H339 C315 0.949 . S
H340 C317 0.950 . S
H341 C319 0.950 . S
C342 C343 1.349 . S
C342 C344 1.327 . S
C342 H367 0.950 . S
C343 C342 1.349 . S
C343 C359 1.349 . S
C344 C342 1.327 . S
C344 C363 1.429 . S
C344 H368 0.950 . S
C345 C362 1.574 . S
C345 C364 1.368 . S
C345 H369 0.949 . S
H346 C350 0.949 . S
C347 C348 1.349 . S
C347 C349 1.327 . S
C347 H370 0.950 . S
C348 C347 1.349 . S
C348 C360 1.349 . S
C349 C347 1.327 . S
C349 C365 1.429 . S
C349 H371 0.950 . S
C350 H346 0.949 . S
C350 C358 1.574 . S
C350 C366 1.368 . S
H351 C359 0.950 . S
H352 C357 0.950 . S
H353 C358 0.949 . S
H354 C360 0.950 . S
H355 C361 0.950 . S
H356 C362 0.949 . S
C357 H352 0.950 . S
C357 C359 1.327 . S
C357 C363 1.429 . S
C358 C350 1.574 . S
C358 H353 0.949 . S
C358 C364 1.368 . S
C359 C343 1.349 . S
C359 H351 0.950 . S
C359 C357 1.327 . S
C360 C348 1.349 . S
C360 H354 0.950 . S
C360 C361 1.327 . S
C361 H355 0.950 . S
C361 C360 1.327 . S
C361 C365 1.429 . S
C362 C345 1.574 . S
C362 H356 0.949 . S
C362 C366 1.368 . S
C363 C344 1.429 . S
C363 C357 1.429 . S
C363 C364 1.523 . S
C364 C345 1.368 . S
C364 C358 1.368 . S
C364 C363 1.523 . S
C365 C349 1.429 . S
C365 C361 1.429 . S
C365 C366 1.523 . S
C366 C350 1.368 . S
C366 C362 1.368 . S
C366 C365 1.523 . S
H367 C342 0.950 . S
H368 C344 0.950 . S
H369 C345 0.949 . S
H370 C347 0.950 . S
H371 C349 0.950 . S
C372 C373 1.349 . S
C372 C374 1.327 . S
C372 H397 0.950 . S
C373 C372 1.349 . S
C373 C389 1.349 . S
C374 C372 1.327 . S
C374 C393 1.429 . S
C374 H398 0.950 . S
C375 C392 1.574 . S
C375 C394 1.368 . S
C375 H399 0.949 . S
H376 C380 0.949 . S
C377 C378 1.349 . S
C377 C379 1.327 . S
C377 H400 0.950 . S
C378 C377 1.349 . S
C378 C390 1.349 . S
C379 C377 1.327 . S
C379 C395 1.429 . S
C379 H401 0.950 . S
C380 H376 0.949 . S
C380 C388 1.574 . S
C380 C396 1.368 . S
H381 C389 0.950 . S
H382 C387 0.950 . S
H383 C388 0.949 . S
H384 C390 0.950 . S
H385 C391 0.950 . S
H386 C392 0.949 . S
C387 H382 0.950 . S
C387 C389 1.327 . S
C387 C393 1.429 . S
C388 C380 1.574 . S
C388 H383 0.949 . S
C388 C394 1.368 . S
C389 C373 1.349 . S
C389 H381 0.950 . S
C389 C387 1.327 . S
C390 C378 1.349 . S
C390 H384 0.950 . S
C390 C391 1.327 . S
C391 H385 0.950 . S
C391 C390 1.327 . S
C391 C395 1.429 . S
C392 C375 1.574 . S
C392 H386 0.949 . S
C392 C396 1.368 . S
C393 C374 1.429 . S
C393 C387 1.429 . S
C393 C394 1.523 . S
C394 C375 1.368 . S
C394 C388 1.368 . S
C394 C393 1.523 . S
C395 C379 1.429 . S
C395 C391 1.429 . S
C395 C396 1.523 . S
C396 C380 1.368 . S
C396 C392 1.368 . S
C396 C395 1.523 . S
H397 C372 0.950 . S
H398 C374 0.950 . S
H399 C375 0.949 . S
H400 C377 0.950 . S
H401 C379 0.950 . S
C402 C403 1.349 . S
C402 C404 1.327 . S
C402 H427 0.950 . S
C403 C402 1.349 . S
C403 C419 1.349 . S
C404 C402 1.327 . S
C404 C423 1.429 . S
C404 H428 0.950 . S
C405 C422 1.574 . S
C405 C424 1.368 . S
C405 H429 0.949 . S
H406 C410 0.949 . S
C407 C408 1.349 . S
C407 C409 1.327 . S
C407 H430 0.950 . S
C408 C407 1.349 . S
C408 C420 1.349 . S
C409 C407 1.327 . S
C409 C425 1.429 . S
C409 H431 0.950 . S
C410 H406 0.949 . S
C410 C418 1.574 . S
C410 C426 1.368 . S
H411 C419 0.950 . S
H412 C417 0.950 . S
H413 C418 0.949 . S
H414 C420 0.950 . S
H415 C421 0.950 . S
H416 C422 0.949 . S
C417 H412 0.950 . S
C417 C419 1.327 . S
C417 C423 1.429 . S
C418 C410 1.574 . S
C418 H413 0.949 . S
C418 C424 1.368 . S
C419 C403 1.349 . S
C419 H411 0.950 . S
C419 C417 1.327 . S
C420 C408 1.349 . S
C420 H414 0.950 . S
C420 C421 1.327 . S
C421 H415 0.950 . S
C421 C420 1.327 . S
C421 C425 1.429 . S
C422 C405 1.574 . S
C422 H416 0.949 . S
C422 C426 1.368 . S
C423 C404 1.429 . S
C423 C417 1.429 . S
C423 C424 1.523 . S
C424 C405 1.368 . S
C424 C418 1.368 . S
C424 C423 1.523 . S
C425 C409 1.429 . S
C425 C421 1.429 . S
C425 C426 1.523 . S
C426 C410 1.368 . S
C426 C422 1.368 . S
C426 C425 1.523 . S
H427 C402 0.950 . S
H428 C404 0.950 . S
H429 C405 0.949 . S
H430 C407 0.950 . S
H431 C409 0.950 . S
C432 C433 1.349 . S
C432 C434 1.327 . S
C432 H457 0.950 . S
C433 C432 1.349 . S
C433 C449 1.349 . S
C434 C432 1.327 . S
C434 C453 1.429 . S
C434 H458 0.950 . S
C435 C452 1.574 . S
C435 C454 1.368 . S
C435 H459 0.949 . S
H436 C440 0.949 . S
C437 C438 1.349 . S
C437 C439 1.327 . S
C437 H460 0.950 . S
C438 C437 1.349 . S
C438 C450 1.349 . S
C439 C437 1.327 . S
C439 C455 1.429 . S
C439 H461 0.950 . S
C440 H436 0.949 . S
C440 C448 1.574 . S
C440 C456 1.368 . S
H441 C449 0.950 . S
H442 C447 0.950 . S
H443 C448 0.949 . S
H444 C450 0.950 . S
H445 C451 0.950 . S
H446 C452 0.949 . S
C447 H442 0.950 . S
C447 C449 1.327 . S
C447 C453 1.429 . S
C448 C440 1.574 . S
C448 H443 0.949 . S
C448 C454 1.368 . S
C449 C433 1.349 . S
C449 H441 0.950 . S
C449 C447 1.327 . S
C450 C438 1.349 . S
C450 H444 0.950 . S
C450 C451 1.327 . S
C451 H445 0.950 . S
C451 C450 1.327 . S
C451 C455 1.429 . S
C452 C435 1.574 . S
C452 H446 0.949 . S
C452 C456 1.368 . S
C453 C434 1.429 . S
C453 C447 1.429 . S
C453 C454 1.523 . S
C454 C435 1.368 . S
C454 C448 1.368 . S
C454 C453 1.523 . S
C455 C439 1.429 . S
C455 C451 1.429 . S
C455 C456 1.523 . S
C456 C440 1.368 . S
C456 C452 1.368 . S
C456 C455 1.523 . S
H457 C432 0.950 . S
H458 C434 0.950 . S
H459 C435 0.949 . S
H460 C437 0.950 . S
H461 C439 0.950 . S
C462 C463 1.349 . S
C462 C464 1.327 . S
C462 H487 0.950 . S
C463 C462 1.349 . S
C463 C479 1.349 . S
C464 C462 1.327 . S
C464 C483 1.429 . S
C464 H488 0.950 . S
C465 C482 1.574 . S
C465 C484 1.368 . S
C465 H489 0.949 . S
H466 C470 0.949 . S
C467 C468 1.349 . S
C467 C469 1.327 . S
C467 H490 0.950 . S
C468 C467 1.349 . S
C468 C480 1.349 . S
C469 C467 1.327 . S
C469 C485 1.429 . S
C469 H491 0.950 . S
C470 H466 0.949 . S
C470 C478 1.574 . S
C470 C486 1.368 . S
H471 C479 0.950 . S
H472 C477 0.950 . S
H473 C478 0.949 . S
H474 C480 0.950 . S
H475 C481 0.950 . S
H476 C482 0.949 . S
C477 H472 0.950 . S
C477 C479 1.327 . S
C477 C483 1.429 . S
C478 C470 1.574 . S
C478 H473 0.949 . S
C478 C484 1.368 . S
C479 C463 1.349 . S
C479 H471 0.950 . S
C479 C477 1.327 . S
C480 C468 1.349 . S
C480 H474 0.950 . S
C480 C481 1.327 . S
C481 H475 0.950 . S
C481 C480 1.327 . S
C481 C485 1.429 . S
C482 C465 1.574 . S
C482 H476 0.949 . S
C482 C486 1.368 . S
C483 C464 1.429 . S
C483 C477 1.429 . S
C483 C484 1.523 . S
C484 C465 1.368 . S
C484 C478 1.368 . S
C484 C483 1.523 . S
C485 C469 1.429 . S
C485 C481 1.429 . S
C485 C486 1.523 . S
C486 C470 1.368 . S
C486 C482 1.368 . S
C486 C485 1.523 . S
H487 C462 0.950 . S
H488 C464 0.950 . S
H489 C465 0.949 . S
H490 C467 0.950 . S
H491 C469 0.950 . S
C492 C493 1.349 . S
C492 C494 1.327 . S
C492 H517 0.950 . S
C493 C492 1.349 . S
C493 C509 1.349 . S
C494 C492 1.327 . S
C494 C513 1.429 . S
C494 H518 0.950 . S
C495 C512 1.574 . S
C495 C514 1.368 . S
C495 H519 0.949 . S
H496 C500 0.949 . S
C497 C498 1.349 . S
C497 C499 1.327 . S
C497 H520 0.950 . S
C498 C497 1.349 . S
C498 C510 1.349 . S
C499 C497 1.327 . S
C499 C515 1.429 . S
C499 H521 0.950 . S
C500 H496 0.949 . S
C500 C508 1.574 . S
C500 C516 1.368 . S
H501 C509 0.950 . S
H502 C507 0.950 . S
H503 C508 0.949 . S
H504 C510 0.950 . S
H505 C511 0.950 . S
H506 C512 0.949 . S
C507 H502 0.950 . S
C507 C509 1.327 . S
C507 C513 1.429 . S
C508 C500 1.574 . S
C508 H503 0.949 . S
C508 C514 1.368 . S
C509 C493 1.349 . S
C509 H501 0.950 . S
C509 C507 1.327 . S
C510 C498 1.349 . S
C510 H504 0.950 . S
C510 C511 1.327 . S
C511 H505 0.950 . S
C511 C510 1.327 . S
C511 C515 1.429 . S
C512 C495 1.574 . S
C512 H506 0.949 . S
C512 C516 1.368 . S
C513 C494 1.429 . S
C513 C507 1.429 . S
C513 C514 1.523 . S
C514 C495 1.368 . S
C514 C508 1.368 . S
C514 C513 1.523 . S
C515 C499 1.429 . S
C515 C511 1.429 . S
C515 C516 1.523 . S
C516 C500 1.368 . S
C516 C512 1.368 . S
C516 C515 1.523 . S
H517 C492 0.950 . S
H518 C494 0.950 . S
H519 C495 0.949 . S
H520 C497 0.950 . S
H521 C499 0.950 . S
C522 C523 1.349 . S
C522 C524 1.327 . S
C522 H547 0.950 . S
C523 C522 1.349 . S
C523 C539 1.349 . S
C524 C522 1.327 . S
C524 C543 1.429 . S
C524 H548 0.950 . S
C525 C542 1.574 . S
C525 C544 1.368 . S
C525 H549 0.949 . S
H526 C530 0.949 . S
C527 C528 1.349 . S
C527 C529 1.327 . S
C527 H550 0.950 . S
C528 C527 1.349 . S
C528 C540 1.349 . S
C529 C527 1.327 . S
C529 C545 1.429 . S
C529 H551 0.950 . S
C530 H526 0.949 . S
C530 C538 1.574 . S
C530 C546 1.368 . S
H531 C539 0.950 . S
H532 C537 0.950 . S
H533 C538 0.949 . S
H534 C540 0.950 . S
H535 C541 0.950 . S
H536 C542 0.949 . S
C537 H532 0.950 . S
C537 C539 1.327 . S
C537 C543 1.429 . S
C538 C530 1.574 . S
C538 H533 0.949 . S
C538 C544 1.368 . S
C539 C523 1.349 . S
C539 H531 0.950 . S
C539 C537 1.327 . S
C540 C528 1.349 . S
C540 H534 0.950 . S
C540 C541 1.327 . S
C541 H535 0.950 . S
C541 C540 1.327 . S
C541 C545 1.429 . S
C542 C525 1.574 . S
C542 H536 0.949 . S
C542 C546 1.368 . S
C543 C524 1.429 . S
C543 C537 1.429 . S
C543 C544 1.523 . S
C544 C525 1.368 . S
C544 C538 1.368 . S
C544 C543 1.523 . S
C545 C529 1.429 . S
C545 C541 1.429 . S
C545 C546 1.523 . S
C546 C530 1.368 . S
C546 C542 1.368 . S
C546 C545 1.523 . S
H547 C522 0.950 . S
H548 C524 0.950 . S
H549 C525 0.949 . S
H550 C527 0.950 . S
H551 C529 0.950 . S
C552 C553 1.349 . S
C552 C554 1.327 . S
C552 H577 0.950 . S
C553 C552 1.349 . S
C553 C569 1.349 . S
C554 C552 1.327 . S
C554 C573 1.429 . S
C554 H578 0.950 . S
C555 C572 1.574 . S
C555 C574 1.368 . S
C555 H579 0.949 . S
H556 C560 0.949 . S
C557 C558 1.349 . S
C557 C559 1.327 . S
C557 H580 0.950 . S
C558 C557 1.349 . S
C558 C570 1.349 . S
C559 C557 1.327 . S
C559 C575 1.429 . S
C559 H581 0.950 . S
C560 H556 0.949 . S
C560 C568 1.574 . S
C560 C576 1.368 . S
H561 C569 0.950 . S
H562 C567 0.950 . S
H563 C568 0.949 . S
H564 C570 0.950 . S
H565 C571 0.950 . S
H566 C572 0.949 . S
C567 H562 0.950 . S
C567 C569 1.327 . S
C567 C573 1.429 . S
C568 C560 1.574 . S
C568 H563 0.949 . S
C568 C574 1.368 . S
C569 C553 1.349 . S
C569 H561 0.950 . S
C569 C567 1.327 . S
C570 C558 1.349 . S
C570 H564 0.950 . S
C570 C571 1.327 . S
C571 H565 0.950 . S
C571 C570 1.327 . S
C571 C575 1.429 . S
C572 C555 1.574 . S
C572 H566 0.949 . S
C572 C576 1.368 . S
C573 C554 1.429 . S
C573 C567 1.429 . S
C573 C574 1.523 . S
C574 C555 1.368 . S
C574 C568 1.368 . S
C574 C573 1.523 . S
C575 C559 1.429 . S
C575 C571 1.429 . S
C575 C576 1.523 . S
C576 C560 1.368 . S
C576 C572 1.368 . S
C576 C575 1.523 . S
H577 C552 0.950 . S
H578 C554 0.950 . S
H579 C555 0.949 . S
H580 C557 0.950 . S
H581 C559 0.950 . S
C582 C583 1.349 . S
C582 C584 1.327 . S
C582 H607 0.950 . S
C583 C582 1.349 . S
C583 C599 1.349 . S
C584 C582 1.327 . S
C584 C603 1.429 . S
C584 H608 0.950 . S
C585 C602 1.574 . S
C585 C604 1.368 . S
C585 H609 0.949 . S
H586 C590 0.949 . S
C587 C588 1.349 . S
C587 C589 1.327 . S
C587 H610 0.950 . S
C588 C587 1.349 . S
C588 C600 1.349 . S
C589 C587 1.327 . S
C589 C605 1.429 . S
C589 H611 0.950 . S
C590 H586 0.949 . S
C590 C598 1.574 . S
C590 C606 1.368 . S
H591 C599 0.950 . S
H592 C597 0.950 . S
H593 C598 0.949 . S
H594 C600 0.950 . S
H595 C601 0.950 . S
H596 C602 0.949 . S
C597 H592 0.950 . S
C597 C599 1.327 . S
C597 C603 1.429 . S
C598 C590 1.574 . S
C598 H593 0.949 . S
C598 C604 1.368 . S
C599 C583 1.349 . S
C599 H591 0.950 . S
C599 C597 1.327 . S
C600 C588 1.349 . S
C600 H594 0.950 . S
C600 C601 1.327 . S
C601 H595 0.950 . S
C601 C600 1.327 . S
C601 C605 1.429 . S
C602 C585 1.574 . S
C602 H596 0.949 . S
C602 C606 1.368 . S
C603 C584 1.429 . S
C603 C597 1.429 . S
C603 C604 1.523 . S
C604 C585 1.368 . S
C604 C598 1.368 . S
C604 C603 1.523 . S
C605 C589 1.429 . S
C605 C601 1.429 . S
C605 C606 1.523 . S
C606 C590 1.368 . S
C606 C602 1.368 . S
C606 C605 1.523 . S
H607 C582 0.950 . S
H608 C584 0.950 . S
H609 C585 0.949 . S
H610 C587 0.950 . S
H611 C589 0.950 . S
C612 C613 1.349 . S
C612 C614 1.327 . S
C612 H637 0.950 . S
C613 C612 1.349 . S
C613 C629 1.349 . S
C614 C612 1.327 . S
C614 C633 1.429 . S
C614 H638 0.950 . S
C615 C632 1.574 . S
C615 C634 1.368 . S
C615 H639 0.949 . S
H616 C620 0.949 . S
C617 C618 1.349 . S
C617 C619 1.327 . S
C617 H640 0.950 . S
C618 C617 1.349 . S
C618 C630 1.349 . S
C619 C617 1.327 . S
C619 C635 1.429 . S
C619 H641 0.950 . S
C620 H616 0.949 . S
C620 C628 1.574 . S
C620 C636 1.368 . S
H621 C629 0.950 . S
H622 C627 0.950 . S
H623 C628 0.949 . S
H624 C630 0.950 . S
H625 C631 0.950 . S
H626 C632 0.949 . S
C627 H622 0.950 . S
C627 C629 1.327 . S
C627 C633 1.429 . S
C628 C620 1.574 . S
C628 H623 0.949 . S
C628 C634 1.368 . S
C629 C613 1.349 . S
C629 H621 0.950 . S
C629 C627 1.327 . S
C630 C618 1.349 . S
C630 H624 0.950 . S
C630 C631 1.327 . S
C631 H625 0.950 . S
C631 C630 1.327 . S
C631 C635 1.429 . S
C632 C615 1.574 . S
C632 H626 0.949 . S
C632 C636 1.368 . S
C633 C614 1.429 . S
C633 C627 1.429 . S
C633 C634 1.523 . S
C634 C615 1.368 . S
C634 C628 1.368 . S
C634 C633 1.523 . S
C635 C619 1.429 . S
C635 C631 1.429 . S
C635 C636 1.523 . S
C636 C620 1.368 . S
C636 C632 1.368 . S
C636 C635 1.523 . S
H637 C612 0.950 . S
H638 C614 0.950 . S
H639 C615 0.949 . S
H640 C617 0.950 . S
H641 C619 0.950 . S
C642 C643 1.349 . S
C642 C644 1.327 . S
C642 H667 0.950 . S
C643 C642 1.349 . S
C643 C659 1.349 . S
C644 C642 1.327 . S
C644 C663 1.429 . S
C644 H668 0.950 . S
C645 C662 1.574 . S
C645 C664 1.368 . S
C645 H669 0.949 . S
H646 C650 0.949 . S
C647 C648 1.349 . S
C647 C649 1.327 . S
C647 H670 0.950 . S
C648 C647 1.349 . S
C648 C660 1.349 . S
C649 C647 1.327 . S
C649 C665 1.429 . S
C649 H671 0.950 . S
C650 H646 0.949 . S
C650 C658 1.574 . S
C650 C666 1.368 . S
H651 C659 0.950 . S
H652 C657 0.950 . S
H653 C658 0.949 . S
H654 C660 0.950 . S
H655 C661 0.950 . S
H656 C662 0.949 . S
C657 H652 0.950 . S
C657 C659 1.327 . S
C657 C663 1.429 . S
C658 C650 1.574 . S
C658 H653 0.949 . S
C658 C664 1.368 . S
C659 C643 1.349 . S
C659 H651 0.950 . S
C659 C657 1.327 . S
C660 C648 1.349 . S
C660 H654 0.950 . S
C660 C661 1.327 . S
C661 H655 0.950 . S
C661 C660 1.327 . S
C661 C665 1.429 . S
C662 C645 1.574 . S
C662 H656 0.949 . S
C662 C666 1.368 . S
C663 C644 1.429 . S
C663 C657 1.429 . S
C663 C664 1.523 . S
C664 C645 1.368 . S
C664 C658 1.368 . S
C664 C663 1.523 . S
C665 C649 1.429 . S
C665 C661 1.429 . S
C665 C666 1.523 . S
C666 C650 1.368 . S
C666 C662 1.368 . S
C666 C665 1.523 . S
H667 C642 0.950 . S
H668 C644 0.950 . S
H669 C645 0.949 . S
H670 C647 0.950 . S
H671 C649 0.950 . S
C672 C673 1.349 1_556 S
C672 C674 1.327 . S
C672 H697 0.950 . S
C673 C672 1.349 1_554 S
C673 C689 1.349 . S
C674 C672 1.327 . S
C674 C693 1.429 1_556 S
C674 H698 0.950 . S
C675 C692 1.574 . S
C675 C694 1.368 . S
C675 H699 0.949 . S
H676 C680 0.949 . S
C677 C678 1.349 . S
C677 C679 1.327 . S
C677 H700 0.950 . S
C678 C677 1.349 . S
C678 C690 1.349 1_554 S
C679 C677 1.327 . S
C679 C695 1.429 . S
C679 H701 0.950 . S
C680 H676 0.949 . S
C680 C688 1.574 . S
C680 C696 1.368 1_556 S
H681 C689 0.950 . S
H682 C687 0.950 . S
H683 C688 0.949 . S
H684 C690 0.950 . S
H685 C691 0.950 . S
H686 C692 0.949 . S
C687 H682 0.950 . S
C687 C689 1.327 . S
C687 C693 1.429 . S
C688 C680 1.574 . S
C688 H683 0.949 . S
C688 C694 1.368 1_556 S
C689 C673 1.349 . S
C689 H681 0.950 . S
C689 C687 1.327 . S
C690 C678 1.349 1_556 S
C690 H684 0.950 . S
C690 C691 1.327 . S
C691 H685 0.950 . S
C691 C690 1.327 . S
C691 C695 1.429 1_556 S
C692 C675 1.574 . S
C692 H686 0.949 . S
C692 C696 1.368 . S
C693 C674 1.429 1_554 S
C693 C687 1.429 . S
C693 C694 1.523 . S
C694 C675 1.368 . S
C694 C688 1.368 1_554 S
C694 C693 1.523 . S
C695 C679 1.429 . S
C695 C691 1.429 1_554 S
C695 C696 1.523 . S
C696 C680 1.368 1_554 S
C696 C692 1.368 . S
C696 C695 1.523 . S
H697 C672 0.950 . S
H698 C674 0.950 . S
H699 C675 0.949 . S
H700 C677 0.950 . S
H701 C679 0.950 . S
C702 C703 1.349 . S
C702 C704 1.327 . S
C702 H727 0.950 . S
C703 C702 1.349 . S
C703 C719 1.349 . S
C704 C702 1.327 . S
C704 C723 1.429 . S
C704 H728 0.950 . S
C705 C722 1.574 . S
C705 C724 1.368 . S
C705 H729 0.949 . S
H706 C710 0.949 . S
C707 C708 1.349 . S
C707 C709 1.327 . S
C707 H730 0.950 . S
C708 C707 1.349 . S
C708 C720 1.349 . S
C709 C707 1.327 . S
C709 C725 1.429 . S
C709 H731 0.950 . S
C710 H706 0.949 . S
C710 C718 1.574 . S
C710 C726 1.368 . S
H711 C719 0.950 . S
H712 C717 0.950 . S
H713 C718 0.949 . S
H714 C720 0.950 . S
H715 C721 0.950 . S
H716 C722 0.949 . S
C717 H712 0.950 . S
C717 C719 1.327 . S
C717 C723 1.429 . S
C718 C710 1.574 . S
C718 H713 0.949 . S
C718 C724 1.368 . S
C719 C703 1.349 . S
C719 H711 0.950 . S
C719 C717 1.327 . S
C720 C708 1.349 . S
C720 H714 0.950 . S
C720 C721 1.327 . S
C721 H715 0.950 . S
C721 C720 1.327 . S
C721 C725 1.429 . S
C722 C705 1.574 . S
C722 H716 0.949 . S
C722 C726 1.368 . S
C723 C704 1.429 . S
C723 C717 1.429 . S
C723 C724 1.523 . S
C724 C705 1.368 . S
C724 C718 1.368 . S
C724 C723 1.523 . S
C725 C709 1.429 . S
C725 C721 1.429 . S
C725 C726 1.523 . S
C726 C710 1.368 . S
C726 C722 1.368 . S
C726 C725 1.523 . S
H727 C702 0.950 . S
H728 C704 0.950 . S
H729 C705 0.949 . S
H730 C707 0.950 . S
H731 C709 0.950 . S
C732 C733 1.349 . S
C732 C734 1.327 . S
C732 H757 0.950 . S
C733 C732 1.349 . S
C733 C749 1.349 1_554 S
C734 C732 1.327 . S
C734 C753 1.429 . S
C734 H758 0.950 . S
C735 C752 1.574 . S
C735 C754 1.368 1_556 S
C735 H759 0.949 . S
H736 C740 0.949 . S
C737 C738 1.349 1_556 S
C737 C739 1.327 . S
C737 H760 0.950 . S
C738 C737 1.349 1_554 S
C738 C750 1.349 . S
C739 C737 1.327 . S
C739 C755 1.429 1_556 S
C739 H761 0.950 . S
C740 H736 0.949 . S
C740 C748 1.574 . S
C740 C756 1.368 . S
H741 C749 0.950 . S
H742 C747 0.950 . S
H743 C748 0.949 . S
H744 C750 0.950 . S
H745 C751 0.950 . S
H746 C752 0.949 . S
C747 H742 0.950 . S
C747 C749 1.327 . S
C747 C753 1.429 1_556 S
C748 C740 1.574 . S
C748 H743 0.949 . S
C748 C754 1.368 . S
C749 C733 1.349 1_556 S
C749 H741 0.950 . S
C749 C747 1.327 . S
C750 C738 1.349 . S
C750 H744 0.950 . S
C750 C751 1.327 . S
C751 H745 0.950 . S
C751 C750 1.327 . S
C751 C755 1.429 . S
C752 C735 1.574 . S
C752 H746 0.949 . S
C752 C756 1.368 1_556 S
C753 C734 1.429 . S
C753 C747 1.429 1_554 S
C753 C754 1.523 . S
C754 C735 1.368 1_554 S
C754 C748 1.368 . S
C754 C753 1.523 . S
C755 C739 1.429 1_554 S
C755 C751 1.429 . S
C755 C756 1.523 . S
C756 C740 1.368 . S
C756 C752 1.368 1_554 S
C756 C755 1.523 . S
H757 C732 0.950 . S
H758 C734 0.950 . S
H759 C735 0.949 . S
H760 C737 0.950 . S
H761 C739 0.950 . S
C762 C763 1.349 . S
C762 C764 1.327 . S
C762 H787 0.950 . S
C763 C762 1.349 . S
C763 C779 1.349 . S
C764 C762 1.327 . S
C764 C783 1.429 . S
C764 H788 0.950 . S
C765 C782 1.574 . S
C765 C784 1.368 . S
C765 H789 0.949 . S
H766 C770 0.949 . S
C767 C768 1.349 . S
C767 C769 1.327 . S
C767 H790 0.950 . S
C768 C767 1.349 . S
C768 C780 1.349 . S
C769 C767 1.327 . S
C769 C785 1.429 . S
C769 H791 0.950 . S
C770 H766 0.949 . S
C770 C778 1.574 . S
C770 C786 1.368 . S
H771 C779 0.950 . S
H772 C777 0.950 . S
H773 C778 0.949 . S
H774 C780 0.950 . S
H775 C781 0.950 . S
H776 C782 0.949 . S
C777 H772 0.950 . S
C777 C779 1.327 . S
C777 C783 1.429 . S
C778 C770 1.574 . S
C778 H773 0.949 . S
C778 C784 1.368 . S
C779 C763 1.349 . S
C779 H771 0.950 . S
C779 C777 1.327 . S
C780 C768 1.349 . S
C780 H774 0.950 . S
C780 C781 1.327 . S
C781 H775 0.950 . S
C781 C780 1.327 . S
C781 C785 1.429 . S
C782 C765 1.574 . S
C782 H776 0.949 . S
C782 C786 1.368 . S
C783 C764 1.429 . S
C783 C777 1.429 . S
C783 C784 1.523 . S
C784 C765 1.368 . S
C784 C778 1.368 . S
C784 C783 1.523 . S
C785 C769 1.429 . S
C785 C781 1.429 . S
C785 C786 1.523 . S
C786 C770 1.368 . S
C786 C782 1.368 . S
C786 C785 1.523 . S
H787 C762 0.950 . S
H788 C764 0.950 . S
H789 C765 0.949 . S
H790 C767 0.950 . S
H791 C769 0.950 . S
C792 C793 1.349 . S
C792 C794 1.327 . S
C792 H817 0.950 . S
C793 C792 1.349 . S
C793 C809 1.349 . S
C794 C792 1.327 . S
C794 C813 1.429 . S
C794 H818 0.950 . S
C795 C812 1.574 . S
C795 C814 1.368 . S
C795 H819 0.949 . S
H796 C800 0.949 . S
C797 C798 1.349 . S
C797 C799 1.327 . S
C797 H820 0.950 . S
C798 C797 1.349 . S
C798 C810 1.349 . S
C799 C797 1.327 . S
C799 C815 1.429 . S
C799 H821 0.950 . S
C800 H796 0.949 . S
C800 C808 1.574 . S
C800 C816 1.368 . S
H801 C809 0.950 . S
H802 C807 0.950 . S
H803 C808 0.949 . S
H804 C810 0.950 . S
H805 C811 0.950 . S
H806 C812 0.949 . S
C807 H802 0.950 . S
C807 C809 1.327 . S
C807 C813 1.429 . S
C808 C800 1.574 . S
C808 H803 0.949 . S
C808 C814 1.368 . S
C809 C793 1.349 . S
C809 H801 0.950 . S
C809 C807 1.327 . S
C810 C798 1.349 . S
C810 H804 0.950 . S
C810 C811 1.327 . S
C811 H805 0.950 . S
C811 C810 1.327 . S
C811 C815 1.429 . S
C812 C795 1.574 . S
C812 H806 0.949 . S
C812 C816 1.368 . S
C813 C794 1.429 . S
C813 C807 1.429 . S
C813 C814 1.523 . S
C814 C795 1.368 . S
C814 C808 1.368 . S
C814 C813 1.523 . S
C815 C799 1.429 . S
C815 C811 1.429 . S
C815 C816 1.523 . S
C816 C800 1.368 . S
C816 C812 1.368 . S
C816 C815 1.523 . S
H817 C792 0.950 . S
H818 C794 0.950 . S
H819 C795 0.949 . S
H820 C797 0.950 . S
H821 C799 0.950 . S
C822 C823 1.349 . S
C822 C824 1.327 . S
C822 H847 0.950 . S
C823 C822 1.349 . S
C823 C839 1.349 1_554 S
C824 C822 1.327 . S
C824 C843 1.429 . S
C824 H848 0.950 . S
C825 C842 1.574 . S
C825 C844 1.368 1_556 S
C825 H849 0.949 . S
H826 C830 0.949 . S
C827 C828 1.349 1_556 S
C827 C829 1.327 . S
C827 H850 0.950 . S
C828 C827 1.349 1_554 S
C828 C840 1.349 . S
C829 C827 1.327 . S
C829 C845 1.429 1_556 S
C829 H851 0.950 . S
C830 H826 0.949 . S
C830 C838 1.574 . S
C830 C846 1.368 . S
H831 C839 0.950 . S
H832 C837 0.950 . S
H833 C838 0.949 . S
H834 C840 0.950 . S
H835 C841 0.950 . S
H836 C842 0.949 . S
C837 H832 0.950 . S
C837 C839 1.327 . S
C837 C843 1.429 1_556 S
C838 C830 1.574 . S
C838 H833 0.949 . S
C838 C844 1.368 . S
C839 C823 1.349 1_556 S
C839 H831 0.950 . S
C839 C837 1.327 . S
C840 C828 1.349 . S
C840 H834 0.950 . S
C840 C841 1.327 . S
C841 H835 0.950 . S
C841 C840 1.327 . S
C841 C845 1.429 . S
C842 C825 1.574 . S
C842 H836 0.949 . S
C842 C846 1.368 1_556 S
C843 C824 1.429 . S
C843 C837 1.429 1_554 S
C843 C844 1.523 . S
C844 C825 1.368 1_554 S
C844 C838 1.368 . S
C844 C843 1.523 . S
C845 C829 1.429 1_554 S
C845 C841 1.429 . S
C845 C846 1.523 . S
C846 C830 1.368 . S
C846 C842 1.368 1_554 S
C846 C845 1.523 . S
H847 C822 0.950 . S
H848 C824 0.950 . S
H849 C825 0.949 . S
H850 C827 0.950 . S
H851 C829 0.950 . S
C852 C853 1.349 . S
C852 C854 1.327 . S
C852 H877 0.950 . S
C853 C852 1.349 . S
C853 C869 1.349 . S
C854 C852 1.327 . S
C854 C873 1.429 . S
C854 H878 0.950 . S
C855 C872 1.574 . S
C855 C874 1.368 . S
C855 H879 0.949 . S
H856 C860 0.949 . S
C857 C858 1.349 . S
C857 C859 1.327 . S
C857 H880 0.950 . S
C858 C857 1.349 . S
C858 C870 1.349 . S
C859 C857 1.327 . S
C859 C875 1.429 . S
C859 H881 0.950 . S
C860 H856 0.949 . S
C860 C868 1.574 . S
C860 C876 1.368 . S
H861 C869 0.950 . S
H862 C867 0.950 . S
H863 C868 0.949 . S
H864 C870 0.950 . S
H865 C871 0.950 . S
H866 C872 0.949 . S
C867 H862 0.950 . S
C867 C869 1.327 . S
C867 C873 1.429 . S
C868 C860 1.574 . S
C868 H863 0.949 . S
C868 C874 1.368 . S
C869 C853 1.349 . S
C869 H861 0.950 . S
C869 C867 1.327 . S
C870 C858 1.349 . S
C870 H864 0.950 . S
C870 C871 1.327 . S
C871 H865 0.950 . S
C871 C870 1.327 . S
C871 C875 1.429 . S
C872 C855 1.574 . S
C872 H866 0.949 . S
C872 C876 1.368 . S
C873 C854 1.429 . S
C873 C867 1.429 . S
C873 C874 1.523 . S
C874 C855 1.368 . S
C874 C868 1.368 . S
C874 C873 1.523 . S
C875 C859 1.429 . S
C875 C871 1.429 . S
C875 C876 1.523 . S
C876 C860 1.368 . S
C876 C872 1.368 . S
C876 C875 1.523 . S
H877 C852 0.950 . S
H878 C854 0.950 . S
H879 C855 0.949 . S
H880 C857 0.950 . S
H881 C859 0.950 . S
C882 C883 1.349 . S
C882 C884 1.327 . S
C882 H907 0.950 . S
C883 C882 1.349 . S
C883 C899 1.349 1_554 S
C884 C882 1.327 . S
C884 C903 1.429 . S
C884 H908 0.950 . S
C885 C902 1.574 . S
C885 C904 1.368 1_556 S
C885 H909 0.949 . S
H886 C890 0.949 . S
C887 C888 1.349 1_556 S
C887 C889 1.327 . S
C887 H910 0.950 . S
C888 C887 1.349 1_554 S
C888 C900 1.349 . S
C889 C887 1.327 . S
C889 C905 1.429 1_556 S
C889 H911 0.950 . S
C890 H886 0.949 . S
C890 C898 1.574 . S
C890 C906 1.368 . S
H891 C899 0.950 . S
H892 C897 0.950 . S
H893 C898 0.949 . S
H894 C900 0.950 . S
H895 C901 0.950 . S
H896 C902 0.949 . S
C897 H892 0.950 . S
C897 C899 1.327 . S
C897 C903 1.429 1_556 S
C898 C890 1.574 . S
C898 H893 0.949 . S
C898 C904 1.368 . S
C899 C883 1.349 1_556 S
C899 H891 0.950 . S
C899 C897 1.327 . S
C900 C888 1.349 . S
C900 H894 0.950 . S
C900 C901 1.327 . S
C901 H895 0.950 . S
C901 C900 1.327 . S
C901 C905 1.429 . S
C902 C885 1.574 . S
C902 H896 0.949 . S
C902 C906 1.368 1_556 S
C903 C884 1.429 . S
C903 C897 1.429 1_554 S
C903 C904 1.523 . S
C904 C885 1.368 1_554 S
C904 C898 1.368 . S
C904 C903 1.523 . S
C905 C889 1.429 1_554 S
C905 C901 1.429 . S
C905 C906 1.523 . S
C906 C890 1.368 . S
C906 C902 1.368 1_554 S
C906 C905 1.523 . S
H907 C882 0.950 . S
H908 C884 0.950 . S
H909 C885 0.949 . S
H910 C887 0.950 . S
H911 C889 0.950 . S
C193 C5 1.452 . S
C198 C135 1.463 . S
C223 C31 1.477 . S
C228 C97 1.467 . S
C258 C110 1.454 . S
C253 C53 1.462 . S
C283 C71 1.437 . S
C288 C122 1.450 . S
C318 C162 1.467 . S
C313 C75 1.477 . S
C348 C174 1.463 . S
C343 C9 1.452 . S
C378 C187 1.450 . S
C373 C27 1.437 . S
C408 C149 1.454 . S
C403 C49 1.462 . S
C433 C51 1.452 . S
C438 C109 1.460 . S
C463 C72 1.477 . S
C468 C123 1.468 . S
C493 C6 1.462 . S
C498 C136 1.456 . S
C528 C96 1.447 . S
C523 C29 1.437 . S
C553 C28 1.477 . S
C558 C188 1.468 . S
C588 C148 1.460 . S
C583 C50 1.452 . S
C618 C161 1.447 . S
C613 C73 1.437 . S
C643 C7 1.462 . S
C648 C175 1.456 . S
C678 C92 1.451 1_554 S
C673 C4 1.501 . S
C708 C105 1.452 . S
C703 C30 1.502 . S
C733 C52 1.501 . S
C738 C118 1.477 . S
C763 C70 1.501 . S
C768 C131 1.477 . S
C798 C144 1.451 . S
C793 C74 1.501 . S
C823 C8 1.501 . S
C828 C157 1.451 . S
C853 C26 1.501 . S
C858 C170 1.477 . S
C883 C48 1.501 . S
C888 C183 1.477 1_554 S
