# Generated by pormake.
# Topology pyr, (3,6)-cn, num edge types: 1
# Building blocks:
#     Node 0, Type 0, BuildingBlock: BETDAH_clean_linker_0, # of connection points: 3
#     Node 1, Type 0, BuildingBlock: BETDAH_clean_linker_0, # of connection points: 3
#     Node 2, Type 0, BuildingBlock: BETDAH_clean_linker_0, # of connection points: 3
#     Node 3, Type 0, BuildingBlock: BETDAH_clean_linker_0, # of connection points: 3
#     Node 4, Type 0, BuildingBlock: BETDAH_clean_linker_0, # of connection points: 3
#     Node 5, Type 0, BuildingBlock: BETDAH_clean_linker_0, # of connection points: 3
#     Node 6, Type 0, BuildingBlock: BETDAH_clean_linker_0, # of connection points: 3
#     Node 7, Type 0, BuildingBlock: BETDAH_clean_linker_0, # of connection points: 3
#     Node 8, Type 1, BuildingBlock: BETDEL_clean_sbu_0, # of connection points: 6
#     Node 9, Type 1, BuildingBlock: BETDEL_clean_sbu_0, # of connection points: 6
#     Node 10, Type 1, BuildingBlock: BETDEL_clean_sbu_0, # of connection points: 6
#     Node 11, Type 1, BuildingBlock: BETDEL_clean_sbu_0, # of connection points: 6
#     Edge 12, Type (0, 1), BuildingBlock: AJUNOK_clean_linker_0, # of connection points: 2
#     Edge 13, Type (0, 1), BuildingBlock: AJUNOK_clean_linker_0, # of connection points: 2
#     Edge 14, Type (0, 1), BuildingBlock: AJUNOK_clean_linker_0, # of connection points: 2
#     Edge 15, Type (0, 1), BuildingBlock: AJUNOK_clean_linker_0, # of connection points: 2
#     Edge 16, Type (0, 1), BuildingBlock: AJUNOK_clean_linker_0, # of connection points: 2
#     Edge 17, Type (0, 1), BuildingBlock: AJUNOK_clean_linker_0, # of connection points: 2
#     Edge 18, Type (0, 1), BuildingBlock: AJUNOK_clean_linker_0, # of connection points: 2
#     Edge 19, Type (0, 1), BuildingBlock: AJUNOK_clean_linker_0, # of connection points: 2
#     Edge 20, Type (0, 1), BuildingBlock: AJUNOK_clean_linker_0, # of connection points: 2
#     Edge 21, Type (0, 1), BuildingBlock: AJUNOK_clean_linker_0, # of connection points: 2
#     Edge 22, Type (0, 1), BuildingBlock: AJUNOK_clean_linker_0, # of connection points: 2
#     Edge 23, Type (0, 1), BuildingBlock: AJUNOK_clean_linker_0, # of connection points: 2
#     Edge 24, Type (0, 1), BuildingBlock: AJUNOK_clean_linker_0, # of connection points: 2
#     Edge 25, Type (0, 1), BuildingBlock: AJUNOK_clean_linker_0, # of connection points: 2
#     Edge 26, Type (0, 1), BuildingBlock: AJUNOK_clean_linker_0, # of connection points: 2
#     Edge 27, Type (0, 1), BuildingBlock: AJUNOK_clean_linker_0, # of connection points: 2
#     Edge 28, Type (0, 1), BuildingBlock: AJUNOK_clean_linker_0, # of connection points: 2
#     Edge 29, Type (0, 1), BuildingBlock: AJUNOK_clean_linker_0, # of connection points: 2
#     Edge 30, Type (0, 1), BuildingBlock: AJUNOK_clean_linker_0, # of connection points: 2
#     Edge 31, Type (0, 1), BuildingBlock: AJUNOK_clean_linker_0, # of connection points: 2
#     Edge 32, Type (0, 1), BuildingBlock: AJUNOK_clean_linker_0, # of connection points: 2
#     Edge 33, Type (0, 1), BuildingBlock: AJUNOK_clean_linker_0, # of connection points: 2
#     Edge 34, Type (0, 1), BuildingBlock: AJUNOK_clean_linker_0, # of connection points: 2
#     Edge 35, Type (0, 1), BuildingBlock: AJUNOK_clean_linker_0, # of connection points: 2
# Relax obj value: 0.080
# Max RMSD: 0.185
# Mean RMSD: 0.131
data_MOF--net-pyr--node1-BETDEL_clean_sbu_0--node2-BETDAH_clean_linker_0--edge1-AJUNOK_clean_linker_0
_symmetry_space_group_name_H-M    P1
_symmetry_Int_Tables_number       1
_symmetry_cell_setting            triclinic
loop_
_symmetry_equiv_pos_as_xyz
'x, y, z'
_cell_length_a     25.921216
_cell_length_b     28.181949
_cell_length_c     26.642642
_cell_angle_alpha  92.039934
_cell_angle_beta   89.809897
_cell_angle_gamma 103.77638
loop_
_atom_site_label
_atom_site_type_symbol
_atom_site_fract_x
_atom_site_fract_y
_atom_site_fract_z
_atom_type_partial_charge
H0 H 0.23384 0.1117 0.22504 0.0
H1 H 0.3162 0.24127 0.15222 0.0
H2 H 0.17486 0.24264 0.23557 0.0
C3 C 0.23565 0.14889 0.21468 0.0
C4 C 0.1984 0.17391 0.23384 0.0
C5 C 0.27769 0.17294 0.18473 0.0
C6 C 0.28319 0.22219 0.17459 0.0
C7 C 0.24597 0.24701 0.19207 0.0
C8 C 0.20317 0.22284 0.22122 0.0
N9 N 0.2535 0.29678 0.18094 0.0
C10 C 0.21137 0.31707 0.17031 0.0
H11 H 0.35672 0.79696 0.78728 0.0
H12 H 0.30234 0.92235 0.74312 0.0
H13 H 0.30492 0.80604 0.63579 0.0
C14 C 0.33864 0.81532 0.75957 0.0
C15 C 0.32989 0.79484 0.71077 0.0
C16 C 0.32921 0.86139 0.77175 0.0
C17 C 0.30688 0.88557 0.73525 0.0
C18 C 0.29678 0.86486 0.68644 0.0
C19 C 0.30868 0.81981 0.67445 0.0
N20 N 0.28754 0.89374 0.64659 0.0
C21 C 0.24014 0.9073 0.63872 0.0
H22 H 0.7212 0.32938 0.96722 0.0
H23 H 0.69595 0.46479 0.91302 0.0
H24 H 0.5663 0.33868 0.91773 0.0
C25 C 0.6953 0.35049 0.95222 0.0
C26 C 0.64127 0.32796 0.94436 0.0
C27 C 0.7161 0.40003 0.94132 0.0
C28 C 0.68207 0.42617 0.91962 0.0
C29 C 0.62851 0.40349 0.90975 0.0
C30 C 0.60831 0.35499 0.92306 0.0
N31 N 0.59259 0.43088 0.89373 0.0
C32 C 0.59365 0.45067 0.84644 0.0
H33 H 0.78601 0.74947 0.46219 0.0
H34 H 0.91305 0.72157 0.36972 0.0
H35 H 0.77806 0.60461 0.40115 0.0
C36 C 0.80236 0.72466 0.43843 0.0
C37 C 0.77536 0.67526 0.43352 0.0
C38 C 0.85219 0.74158 0.41603 0.0
C39 C 0.87402 0.70911 0.38601 0.0
C40 C 0.8467 0.65969 0.37994 0.0
C41 C 0.79814 0.643 0.40461 0.0
N42 N 0.86995 0.62452 0.35516 0.0
C43 C 0.89332 0.62874 0.30781 0.0
H44 H 0.93631 0.83653 0.85761 0.0
H45 H 0.87429 0.84461 1.00658 0.0
H46 H 0.85361 0.94793 0.89836 0.0
C47 C 0.91505 0.85379 0.8851 0.0
C48 C 0.89618 0.89453 0.87219 0.0
C49 C 0.9063 0.83498 0.93311 0.0
C50 C 0.87966 0.85782 0.96873 0.0
C51 C 0.85966 0.89762 0.95628 0.0
C52 C 0.86753 0.91599 0.90772 0.0
N53 N 0.83378 0.91917 0.99446 0.0
C54 C 0.79656 0.94601 0.98587 0.0
H55 H 0.7883 0.13624 0.36962 0.0
H56 H 0.83722 0.24771 0.48599 0.0
H57 H 0.72149 0.26225 0.37667 0.0
C58 C 0.78657 0.17113 0.38704 0.0
C59 C 0.7532 0.19825 0.36628 0.0
C60 C 0.81672 0.18815 0.43062 0.0
C61 C 0.8137 0.23343 0.45286 0.0
C62 C 0.77943 0.26011 0.43384 0.0
C63 C 0.74881 0.24219 0.39084 0.0
N64 N 0.77682 0.30471 0.45916 0.0
C65 C 0.73687 0.32928 0.45233 0.0
H66 H 0.32786 0.77893 0.13657 0.0
H67 H 0.35268 0.65511 0.21652 0.0
H68 H 0.47168 0.7902 0.22 0.0
C69 C 0.3521 0.76215 0.16003 0.0
C70 C 0.40191 0.79004 0.1762 0.0
C71 C 0.33314 0.71331 0.17446 0.0
C72 C 0.36512 0.693 0.2065 0.0
C73 C 0.41492 0.72103 0.22334 0.0
C74 C 0.4329 0.76907 0.20769 0.0
N75 N 0.45011 0.70167 0.25297 0.0
C76 C 0.43619 0.66494 0.28768 0.0
H77 H 0.23298 0.32309 0.62945 0.0
H78 H 0.21299 0.44469 0.72422 0.0
H79 H 0.08637 0.31495 0.70813 0.0
C80 C 0.20885 0.33932 0.65503 0.0
C81 C 0.15736 0.313 0.66654 0.0
C82 C 0.2292 0.38689 0.67523 0.0
C83 C 0.19801 0.40781 0.70903 0.0
C84 C 0.14654 0.38123 0.72152 0.0
C85 C 0.12663 0.33445 0.69969 0.0
N86 N 0.11115 0.40162 0.75144 0.0
C87 C 0.12382 0.43191 0.79432 0.0
Dy88 Dy 0.0326 0.0397 0.48468 0.0
C89 C 0.95398 0.97289 0.67588 0.0
C90 C 0.06737 0.08212 0.39617 0.0
Dy91 Dy 0.98576 0.01281 0.58578 0.0
O92 O 0.05887 0.03584 0.40428 0.0
O93 O 0.05647 0.10515 0.43629 0.0
O94 O 0.0841 0.98632 0.48979 0.0
O95 O 0.0653 0.02114 0.55529 0.0
C96 C 0.08646 0.98811 0.53835 0.0
C97 C 0.93497 0.06797 0.53393 0.0
O98 O 0.0407 0.0838 0.60947 0.0
O99 O 0.05997 0.11092 0.52902 0.0
O100 O 0.92239 0.98145 0.64148 0.0
O101 O 1.00282 0.98563 0.66074 0.0
O102 O 0.93911 0.06991 0.58253 0.0
O103 O 0.9537 0.03368 0.51559 0.0
O104 O 0.96785 0.97437 0.4629 0.0
O105 O 0.96675 0.94141 0.54096 0.0
C106 C 0.06208 0.11874 0.57845 0.0
C107 C 0.9562 0.93637 0.49217 0.0
Dy108 Dy 0.56186 0.07919 0.1105 0.0
C109 C 0.43652 0.97094 0.94564 0.0
C110 C 0.62933 0.12115 0.1868 0.0
Dy111 Dy 0.4968 0.03272 0.01576 0.0
O112 O 0.61755 0.07507 0.17363 0.0
O113 O 0.60484 0.14481 0.15767 0.0
O114 O 0.50498 0.02625 0.15725 0.0
O115 O 0.52152 1.00417 0.08458 0.0
C116 C 0.49367 0.99151 0.12301 0.0
C117 C 0.5446 0.12662 0.99702 0.0
O118 O 0.43608 0.05448 0.06654 0.0
O119 O 0.49381 0.11361 0.11545 0.0
O120 O 0.48797 0.98418 0.94653 0.0
O121 O 0.41739 0.99082 0.984 0.0
O122 O 0.51381 0.09703 0.9654 0.0
O123 O 0.54713 0.10411 0.03674 0.0
O124 O 0.62538 0.06308 0.06117 0.0
O125 O 0.57167 0.00683 1.00638 0.0
C126 C 0.44534 0.09191 0.09969 0.0
C127 C 0.61909 0.02905 0.02476 0.0
Dy128 Dy 0.52554 0.50061 0.53543 0.0
C129 C 0.42793 0.64069 0.63823 0.0
C130 C 0.58493 0.44562 0.48533 0.0
Dy131 Dy 0.48141 0.58206 0.58634 0.0
O132 O 0.53622 0.42953 0.49998 0.0
O133 O 0.60026 0.49196 0.49678 0.0
O134 O 0.4676 0.44449 0.57797 0.0
O135 O 0.44603 0.50837 0.55731 0.0
C136 C 0.43209 0.47003 0.58212 0.0
C137 C 0.57584 0.61187 0.54123 0.0
O138 O 0.50482 0.54398 0.65286 0.0
O139 O 0.56188 0.50359 0.61194 0.0
O140 O 0.47912 0.64598 0.63877 0.0
O141 O 0.40601 0.60273 0.61016 0.0
O142 O 0.5407 0.63786 0.54419 0.0
O143 O 0.5605 0.57367 0.5658 0.0
O144 O 0.49793 0.5351 0.46821 0.0
O145 O 0.44861 0.58353 0.50912 0.0
C146 C 0.54158 0.51814 0.65384 0.0
C147 C 0.46572 0.56548 0.46734 0.0
Dy148 Dy 0.03528 0.50713 0.07307 0.0
C149 C 0.9885 0.67302 0.9964 0.0
C150 C 0.07042 0.42873 0.10238 0.0
Dy151 Dy 0.02624 0.59621 0.02577 0.0
O152 O 0.04944 0.45646 0.13192 0.0
O153 O 0.07135 0.44348 0.05678 0.0
O154 O 0.96748 0.51045 0.12346 0.0
O155 O 0.02101 0.57617 0.10465 0.0
C156 C 0.97876 0.55785 0.1282 0.0
C157 C 0.07967 0.54339 0.96841 0.0
O158 O 0.09691 0.63027 0.0733 0.0
O159 O 0.11606 0.55652 0.09002 0.0
O160 O 0.0336 0.6646 0.98248 0.0
O161 O 0.9648 0.64015 0.02695 0.0
O162 O 0.09001 0.59078 0.97014 0.0
O163 O 0.03898 0.52698 0.99453 0.0
O164 O 0.95943 0.47303 0.03292 0.0
O165 O 0.94702 0.54613 1.00435 0.0
C166 C 0.12916 0.60487 0.09092 0.0
C167 C 0.93031 0.49837 1.00986 0.0
C168 C 0.15199 0.17773 0.31579 0.0
C169 C 0.15859 0.15103 0.2715 0.0
C170 C 0.11994 0.15565 0.3549 0.0
C171 C 0.09387 0.10589 0.35149 0.0
H172 H 0.17366 0.21546 0.32138 0.0
H173 H 0.11773 0.17719 0.38901 0.0
S174 S 0.09168 0.02151 0.24113 0.0
N175 N 0.13108 0.07359 0.22432 0.0
N176 N 0.07223 0.03161 0.29881 0.0
C177 C 0.0978 0.07931 0.30663 0.0
C178 C 0.1299 0.10197 0.26642 0.0
C179 C 0.40733 0.89043 0.82822 0.0
C180 C 0.35339 0.88771 0.81837 0.0
C181 C 0.433 0.91635 0.87028 0.0
C182 C 0.40588 0.9406 0.90446 0.0
H183 H 0.43042 0.87327 0.80246 0.0
H184 H 0.47482 0.91794 0.87557 0.0
S185 S 0.26386 0.9437 0.89693 0.0
N186 N 0.2732 0.91059 0.84676 0.0
N187 N 0.32168 0.95951 0.92657 0.0
C188 C 0.35165 0.93756 0.89585 0.0
C189 C 0.32542 0.91127 0.85248 0.0
C190 C 0.54494 0.49607 0.79422 0.0
C191 C 0.58488 0.47043 0.79848 0.0
C192 C 0.5322 0.51234 0.74763 0.0
C193 C 0.5588 0.50338 0.7033 0.0
H194 H 0.52257 0.50283 0.82705 0.0
H195 H 0.50037 0.53116 0.74638 0.0
S196 S 0.66874 0.43919 0.69577 0.0
N197 N 0.65227 0.43791 0.75574 0.0
N198 N 0.62907 0.46831 0.66798 0.0
C199 C 0.59992 0.47853 0.70764 0.0
C200 C 0.61275 0.46207 0.75526 0.0
C201 C 0.883 0.57913 0.22936 0.0
C202 C 0.91312 0.61836 0.25857 0.0
C203 C 0.90394 0.56164 0.18578 0.0
C204 C 0.95571 0.58293 0.16949 0.0
H205 H 0.84372 0.56031 0.24149 0.0
H206 H 0.87994 0.53003 0.16556 0.0
S207 S 0.04987 0.6884 0.23184 0.0
N208 N 0.9965 0.67932 0.26774 0.0
N209 N 0.03582 0.64711 0.18514 0.0
C210 C 0.9854 0.62384 0.19715 0.0
C211 C 0.96413 0.64133 0.24201 0.0
C212 C 0.3715 0.16778 0.17909 0.0
C213 C 0.31825 0.14822 0.16578 0.0
C214 C 0.41187 0.14886 0.15774 0.0
C215 C 0.40065 0.10974 0.12185 0.0
H216 H 0.38208 0.19854 0.20575 0.0
H217 H 0.45231 0.16572 0.16925 0.0
S218 S 0.26645 0.04547 0.07502 0.0
N219 N 0.25541 0.08761 0.11558 0.0
N220 N 0.33143 0.05153 0.0748 0.0
C221 C 0.3471 0.08924 0.10886 0.0
C222 C 0.30584 0.10856 0.13106 0.0
C223 C 0.17977 0.96365 0.63899 0.0
C224 C 0.19532 0.92267 0.61838 0.0
C225 C 0.14232 0.98353 0.61416 0.0
C226 C 0.12034 0.96349 0.56757 0.0
H227 H 0.198 0.98146 0.67342 0.0
H228 H 0.13242 0.01602 0.63037 0.0
S229 S 0.14515 0.85338 0.50075 0.0
N230 N 0.18347 0.86062 0.55122 0.0
N231 N 0.11397 0.89812 0.50415 0.0
C232 C 0.13411 0.92123 0.54797 0.0
C233 C 0.17153 0.9008 0.57349 0.0
C234 C 0.7926 0.4136 1.00251 0.0
C235 C 0.77195 0.42483 0.95659 0.0
C236 C 0.84421 0.43668 0.01873 0.0
C237 C 0.87704 0.47289 0.99044 0.0
H238 H 0.76838 0.38736 0.02687 0.0
H239 H 0.85794 0.42707 0.05449 0.0
S240 S 0.8448 0.51398 0.86621 0.0
N241 N 0.79095 0.47259 0.88143 0.0
N242 N 0.88673 0.5178 0.91354 0.0
C243 C 0.85747 0.48452 0.94449 0.0
C244 C 0.80529 0.46015 0.92723 0.0
C245 C 0.68189 0.67936 0.4534 0.0
C246 C 0.72446 0.65729 0.4605 0.0
C247 C 0.63399 0.6641 0.47951 0.0
C248 C 0.62696 0.62648 0.51409 0.0
H249 H 0.68559 0.70854 0.42724 0.0
H250 H 0.60218 0.68195 0.47244 0.0
S251 S 0.72797 0.55972 0.54939 0.0
N252 N 0.75738 0.59727 0.50608 0.0
N253 N 0.66797 0.56955 0.5562 0.0
C254 C 0.66954 0.60462 0.52215 0.0
C255 C 0.71811 0.61976 0.49508 0.0
C256 C 0.14439 0.36396 0.18807 0.0
C257 C 0.17027 0.33898 0.15368 0.0
C258 C 0.10903 0.39064 0.17123 0.0
C259 C 0.09918 0.3932 0.11958 0.0
H260 H 0.15294 0.36434 0.22789 0.0
H261 H 0.09141 0.41125 0.19865 0.0
S262 S 0.1542 0.3297 0.01551 0.0
N263 N 0.18147 0.31488 0.06681 0.0
N264 N 0.11514 0.36516 0.03472 0.0
C265 C 0.12296 0.36606 0.08521 0.0
C266 C 0.15869 0.33888 0.10245 0.0
C267 C 0.5847 0.24376 0.92556 0.0
C268 C 0.6186 0.27649 0.95896 0.0
C269 C 0.56153 0.19564 0.93859 0.0
C270 C 0.57102 0.17796 0.98566 0.0
H271 H 0.57614 0.25534 0.8888 0.0
H272 H 0.53571 0.17211 0.91131 0.0
S273 S 0.65611 0.24891 0.08706 0.0
N274 N 0.65989 0.288 0.04173 0.0
N275 N 0.61688 0.19709 0.06571 0.0
C276 C 0.60502 0.21007 0.01939 0.0
C277 C 0.62869 0.25935 1.00615 0.0
C278 C 0.86902 0.83294 0.41299 0.0
C279 C 0.88358 0.79136 0.43035 0.0
C280 C 0.89386 0.88011 0.43193 0.0
C281 C 0.93271 0.88696 0.47003 0.0
H282 H 0.83754 0.82882 0.38538 0.0
H283 H 0.88118 0.91119 0.41802 0.0
S284 S 0.98597 0.78987 0.52658 0.0
N285 N 0.94066 0.76013 0.48593 0.0
N286 N 0.98613 0.84826 0.52264 0.0
C287 C 0.94811 0.84563 0.48695 0.0
C288 C 0.9238 0.79794 0.46685 0.0
C289 C 0.40527 0.75377 0.70685 0.0
C290 C 0.35183 0.75235 0.69581 0.0
C291 C 0.42894 0.71656 0.68948 0.0
C292 C 0.40007 0.67637 0.66059 0.0
H293 H 0.42961 0.7848 0.72762 0.0
H294 H 0.4706 0.72001 0.69772 0.0
S295 S 0.25779 0.65344 0.6246 0.0
N296 N 0.2699 0.70625 0.65658 0.0
N297 N 0.31428 0.63598 0.62396 0.0
C298 C 0.34606 0.67355 0.65078 0.0
C299 C 0.32201 0.7117 0.66825 0.0
C300 C 0.96241 0.92635 0.80616 0.0
C301 C 0.90933 0.91563 0.82235 0.0
C302 C 0.97629 0.94486 0.7587 0.0
C303 C 0.93757 0.95312 0.72553 0.0
H304 H 0.99355 0.92052 0.83053 0.0
H305 H 0.01772 0.95264 0.74794 0.0
S306 S 0.79278 0.93018 0.74965 0.0
N307 N 0.81776 0.91403 0.80154 0.0
N308 N 0.84377 0.949 0.71199 0.0
C309 C 0.88429 0.94262 0.7412 0.0
C310 C 0.87019 0.92393 0.78977 0.0
C311 C 0.69677 0.12977 0.31368 0.0
C312 C 0.72196 0.17977 0.31976 0.0
C313 C 0.6677 0.11122 0.27014 0.0
C314 C 0.66172 0.14201 0.23135 0.0
H315 H 0.69895 0.1047 0.34304 0.0
H316 H 0.6489 0.07252 0.26733 0.0
S317 S 0.72157 0.275 0.22694 0.0
N318 N 0.74132 0.25922 0.28142 0.0
N319 N 0.68415 0.22448 0.2009 0.0
C320 C 0.68642 0.19195 0.23672 0.0
C321 C 0.71707 0.2108 0.28061 0.0
C322 C 0.40965 0.64013 0.37391 0.0
C323 C 0.43526 0.63245 0.32898 0.0
C324 C 0.41742 0.61613 0.41766 0.0
C325 C 0.45158 0.5838 0.41834 0.0
H326 H 0.38534 0.66655 0.37594 0.0
H327 H 0.39807 0.62472 0.45173 0.0
S328 S 0.52514 0.54935 0.30824 0.0
N329 N 0.49359 0.58877 0.28629 0.0
N330 N 0.50851 0.54352 0.368 0.0
C331 C 0.47534 0.57418 0.37254 0.0
C332 C 0.46721 0.59865 0.32805 0.0
C333 C 0.08687 0.43682 0.87902 0.0
C334 C 0.12103 0.45917 0.84112 0.0
C335 C 0.0756 0.46392 0.92121 0.0
C336 C 0.09796 0.51451 0.92696 0.0
H337 H 0.06697 0.39841 0.87507 0.0
H338 H 0.0476 0.44537 0.94856 0.0
S339 S 0.19346 0.58922 0.83951 0.0
N340 N 0.17946 0.53377 0.81285 0.0
N341 N 0.15914 0.585 0.89223 0.0
C342 C 0.13431 0.53673 0.89025 0.0
C343 C 0.14556 0.509 0.8472 0.0
C344 C 0.70348 0.94686 0.97077 0.0
C345 C 0.75468 0.97141 0.98655 0.0
C346 C 0.65994 0.96714 0.98075 0.0
C347 C 0.66639 0.01231 1.00739 0.0
H348 H 0.69665 0.91079 0.95278 0.0
H349 H 0.62075 0.946 0.96977 0.0
S350 S 0.79466 0.09269 0.05168 0.0
N351 N 0.81093 0.04408 0.02607 0.0
N352 N 0.72965 0.08291 0.04484 0.0
C353 C 0.71836 0.03835 0.02061 0.0
C354 C 0.76245 0.01761 1.01024 0.0
C355 C 0.84619 0.1534 0.50781 0.0
C356 C 0.8484 0.15747 0.45527 0.0
C357 C 0.8744 0.12445 0.53252 0.0
C358 C 0.90541 0.09753 0.5058 0.0
H359 H 0.82184 0.17227 0.53021 0.0
H360 H 0.87134 0.12281 0.57302 0.0
S361 S 0.92662 0.09638 0.36812 0.0
N362 N 0.88661 0.1335 0.37752 0.0
N363 N 0.9374 0.07701 0.42401 0.0
C364 C 0.90797 0.10084 0.45332 0.0
C365 C 0.87999 0.1312 0.42804 0.0
C366 C 0.26639 0.68933 0.10393 0.0
C367 C 0.28094 0.68386 0.15409 0.0
C368 C 0.21704 0.66402 0.084 0.0
C369 C 0.18077 0.63111 0.11285 0.0
H370 H 0.29343 0.7133 0.07954 0.0
H371 H 0.20752 0.66969 0.04543 0.0
S372 S 0.19701 0.60409 0.24608 0.0
N373 N 0.2526 0.64416 0.23267 0.0
N374 N 0.16133 0.59457 0.19385 0.0
C375 C 0.19451 0.62453 0.16258 0.0
C376 C 0.24424 0.65126 0.18348 0.0
C377 C 0.32682 0.3951 0.66571 0.0
C378 C 0.28223 0.41427 0.65804 0.0
C379 C 0.37536 0.41456 0.64213 0.0
C380 C 0.38119 0.45366 0.60945 0.0
H381 H 0.3236 0.36373 0.68891 0.0
H382 H 0.40825 0.39794 0.64865 0.0
S383 S 0.27603 0.51644 0.57627 0.0
N384 N 0.24687 0.47473 0.61594 0.0
N385 N 0.33786 0.51088 0.5708 0.0
C386 C 0.33723 0.47396 0.60237 0.0
C387 C 0.28782 0.45435 0.62684 0.0
C388 C 0.97936 0.79146 0.93892 0.0
C389 C 0.92588 0.79209 0.94684 0.0
C390 C 0.99935 0.75242 0.95468 0.0
C391 C 0.96651 0.71304 0.979 0.0
H392 H 1.00616 0.82184 0.92149 0.0
H393 H 0.04096 0.75354 0.94857 0.0
S394 S 0.82232 0.69505 1.00363 0.0
N395 N 0.83952 0.74836 0.97672 0.0
N396 N 0.87723 0.67531 1.00712 0.0
C397 C 0.91265 0.71261 0.98585 0.0
C398 C 0.89228 0.75212 0.96955 0.0
C399 C 0.43558 0.87916 0.1979 0.0
C400 C 0.42188 0.84144 0.16092 0.0
C401 C 0.45711 0.92767 0.18495 0.0
C402 C 0.46692 0.94033 0.13453 0.0
H403 H 0.42981 0.87102 0.23725 0.0
H404 H 0.4674 0.95525 0.21497 0.0
S405 S 0.43699 0.85521 0.02333 0.0
N406 N 0.41807 0.82005 0.07162 0.0
N407 N 0.45999 0.91112 0.04732 0.0
C408 C 0.45278 0.90304 0.09708 0.0
C409 C 0.42987 0.85366 0.11026 0.0
C410 C 0.11037 0.2246 0.67324 0.0
C411 C 0.13488 0.26356 0.64316 0.0
C412 C 0.08776 0.17797 0.65207 0.0
C413 C 0.08831 0.1683 0.59979 0.0
H414 H 0.1088 0.23018 0.71361 0.0
H415 H 0.06927 0.14944 0.67709 0.0
S416 S 0.14669 0.25863 0.50434 0.0
N417 N 0.15765 0.28988 0.5584 0.0
N418 N 0.11565 0.2025 0.51842 0.0
C419 C 0.11292 0.20712 0.56926 0.0
C420 C 0.13608 0.25458 0.59095 0.0
C421 C 0.71252 0.40852 0.4528 0.0
C422 C 0.69689 0.35731 0.45214 0.0
C423 C 0.67523 0.43687 0.46053 0.0
C424 C 0.62115 0.41487 0.46824 0.0
H425 H 0.7541 0.42683 0.44929 0.0
H426 H 0.68933 0.47629 0.46263 0.0
S427 S 0.56016 0.28153 0.46564 0.0
N428 N 0.62407 0.2854 0.4564 0.0
N429 N 0.55364 0.33841 0.47107 0.0
C430 C 0.60483 0.36349 0.46508 0.0
C431 C 0.64289 0.33473 0.4571 0.0
loop_
_geom_bond_atom_site_label_1
_geom_bond_atom_site_label_2
_geom_bond_distance
_geom_bond_site_symmetry_2
_ccdc_geom_bond_type
H0 C3 0.929 . S
H1 C6 0.929 . S
H2 C8 0.930 . S
C3 H0 0.929 . S
C3 C4 1.398 . S
C3 C5 1.396 . S
C4 C3 1.398 . S
C4 C8 1.407 . S
C5 C3 1.396 . S
C5 C6 1.394 . S
C6 H1 0.929 . S
C6 C5 1.394 . S
C6 C7 1.382 . S
C7 C6 1.382 . S
C7 C8 1.392 . S
C7 N9 1.420 . S
C8 H2 0.930 . S
C8 C4 1.407 . S
C8 C7 1.392 . S
N9 C7 1.420 . S
N9 C10 1.244 . S
C10 N9 1.244 . S
H11 C14 0.929 . S
H12 C17 0.929 . S
H13 C19 0.930 . S
C14 H11 0.929 . S
C14 C15 1.398 . S
C14 C16 1.396 . S
C15 C14 1.398 . S
C15 C19 1.407 . S
C16 C14 1.396 . S
C16 C17 1.394 . S
C17 H12 0.929 . S
C17 C16 1.394 . S
C17 C18 1.382 . S
C18 C17 1.382 . S
C18 C19 1.392 . S
C18 N20 1.420 . S
C19 H13 0.930 . S
C19 C15 1.407 . S
C19 C18 1.392 . S
N20 C18 1.420 . S
N20 C21 1.244 . S
C21 N20 1.244 . S
H22 C25 0.929 . S
H23 C28 0.929 . S
H24 C30 0.930 . S
C25 H22 0.929 . S
C25 C26 1.398 . S
C25 C27 1.396 . S
C26 C25 1.398 . S
C26 C30 1.407 . S
C27 C25 1.396 . S
C27 C28 1.394 . S
C28 H23 0.929 . S
C28 C27 1.394 . S
C28 C29 1.382 . S
C29 C28 1.382 . S
C29 C30 1.392 . S
C29 N31 1.420 . S
C30 H24 0.930 . S
C30 C26 1.407 . S
C30 C29 1.392 . S
N31 C29 1.420 . S
N31 C32 1.244 . S
C32 N31 1.244 . S
H33 C36 0.929 . S
H34 C39 0.929 . S
H35 C41 0.930 . S
C36 H33 0.929 . S
C36 C37 1.398 . S
C36 C38 1.396 . S
C37 C36 1.398 . S
C37 C41 1.407 . S
C38 C36 1.396 . S
C38 C39 1.394 . S
C39 H34 0.929 . S
C39 C38 1.394 . S
C39 C40 1.382 . S
C40 C39 1.382 . S
C40 C41 1.392 . S
C40 N42 1.420 . S
C41 H35 0.930 . S
C41 C37 1.407 . S
C41 C40 1.392 . S
N42 C40 1.420 . S
N42 C43 1.244 . S
C43 N42 1.244 . S
H44 C47 0.929 . S
H45 C50 0.929 . S
H46 C52 0.930 . S
C47 H44 0.929 . S
C47 C48 1.398 . S
C47 C49 1.396 . S
C48 C47 1.398 . S
C48 C52 1.407 . S
C49 C47 1.396 . S
C49 C50 1.394 . S
C50 H45 0.929 . S
C50 C49 1.394 . S
C50 C51 1.382 . S
C51 C50 1.382 . S
C51 C52 1.392 . S
C51 N53 1.420 . S
C52 H46 0.930 . S
C52 C48 1.407 . S
C52 C51 1.392 . S
N53 C51 1.420 . S
N53 C54 1.244 . S
C54 N53 1.244 . S
H55 C58 0.929 . S
H56 C61 0.929 . S
H57 C63 0.930 . S
C58 H55 0.929 . S
C58 C59 1.398 . S
C58 C60 1.396 . S
C59 C58 1.398 . S
C59 C63 1.407 . S
C60 C58 1.396 . S
C60 C61 1.394 . S
C61 H56 0.929 . S
C61 C60 1.394 . S
C61 C62 1.382 . S
C62 C61 1.382 . S
C62 C63 1.392 . S
C62 N64 1.420 . S
C63 H57 0.930 . S
C63 C59 1.407 . S
C63 C62 1.392 . S
N64 C62 1.420 . S
N64 C65 1.244 . S
C65 N64 1.244 . S
H66 C69 0.929 . S
H67 C72 0.929 . S
H68 C74 0.930 . S
C69 H66 0.929 . S
C69 C70 1.398 . S
C69 C71 1.396 . S
C70 C69 1.398 . S
C70 C74 1.407 . S
C71 C69 1.396 . S
C71 C72 1.394 . S
C72 H67 0.929 . S
C72 C71 1.394 . S
C72 C73 1.382 . S
C73 C72 1.382 . S
C73 C74 1.392 . S
C73 N75 1.420 . S
C74 H68 0.930 . S
C74 C70 1.407 . S
C74 C73 1.392 . S
N75 C73 1.420 . S
N75 C76 1.244 . S
C76 N75 1.244 . S
H77 C80 0.929 . S
H78 C83 0.929 . S
H79 C85 0.930 . S
C80 H77 0.929 . S
C80 C81 1.398 . S
C80 C82 1.396 . S
C81 C80 1.398 . S
C81 C85 1.407 . S
C82 C80 1.396 . S
C82 C83 1.394 . S
C83 H78 0.929 . S
C83 C82 1.394 . S
C83 C84 1.382 . S
C84 C83 1.382 . S
C84 C85 1.392 . S
C84 N86 1.420 . S
C85 H79 0.930 . S
C85 C81 1.407 . S
C85 C84 1.392 . S
N86 C84 1.420 . S
N86 C87 1.244 . S
C87 N86 1.244 . S
Dy88 O92 2.398 . S
Dy88 O93 2.491 . S
Dy88 O94 2.403 . S
Dy88 O95 2.664 1_545 S
Dy88 O99 2.326 . S
Dy88 O103 2.310 1_455 S
Dy88 O104 2.351 1_445 S
C89 O100 1.185 . S
C89 O101 1.355 . S
C90 O92 1.185 . S
C90 O93 1.355 . S
Dy91 O95 2.310 1_645 S
Dy91 O98 2.351 1_655 S
Dy91 O100 2.398 1_545 S
Dy91 O101 2.491 1_545 S
Dy91 O102 2.403 . S
Dy91 O103 2.664 . S
Dy91 O105 2.326 1_545 S
O92 Dy88 2.398 . S
O92 C90 1.185 . S
O93 Dy88 2.491 . S
O93 C90 1.355 . S
O94 Dy88 2.403 . S
O94 C96 1.254 1_545 S
O95 Dy88 2.664 1_565 S
O95 Dy91 2.310 1_465 S
O95 C96 1.268 . S
C96 O94 1.254 1_565 S
C96 O95 1.268 . S
C97 O102 1.254 . S
C97 O103 1.268 . S
O98 Dy91 2.351 1_455 S
O98 C106 1.249 . S
O99 Dy88 2.326 . S
O99 C106 1.267 . S
O100 C89 1.185 . S
O100 Dy91 2.398 1_565 S
O101 C89 1.355 . S
O101 Dy91 2.491 1_565 S
O102 Dy91 2.403 . S
O102 C97 1.254 . S
O103 Dy88 2.310 1_655 S
O103 Dy91 2.664 . S
O103 C97 1.268 . S
O104 Dy88 2.351 1_665 S
O104 C107 1.249 . S
O105 Dy91 2.326 1_565 S
O105 C107 1.267 . S
C106 O98 1.249 . S
C106 O99 1.267 . S
C107 O104 1.249 . S
C107 O105 1.267 . S
Dy108 O112 2.398 . S
Dy108 O113 2.491 . S
Dy108 O114 2.403 1_545 S
Dy108 O115 2.664 1_545 S
Dy108 O119 2.326 . S
Dy108 O123 2.310 . S
Dy108 O124 2.351 1_545 S
C109 O120 1.185 1_565 S
C109 O121 1.355 . S
C110 O112 1.185 . S
C110 O113 1.355 . S
Dy111 O115 2.310 1_545 S
Dy111 O118 2.351 . S
Dy111 O120 2.398 1_554 S
Dy111 O121 2.491 1_544 S
Dy111 O122 2.403 1_554 S
Dy111 O123 2.664 . S
Dy111 O125 2.326 1_544 S
O112 Dy108 2.398 . S
O112 C110 1.185 . S
O113 Dy108 2.491 . S
O113 C110 1.355 . S
O114 Dy108 2.403 1_565 S
O114 C116 1.254 . S
O115 Dy108 2.664 1_565 S
O115 Dy111 2.310 1_565 S
O115 C116 1.268 . S
C116 O114 1.254 . S
C116 O115 1.268 . S
C117 O122 1.254 1_554 S
C117 O123 1.268 . S
O118 Dy111 2.351 . S
O118 C126 1.249 . S
O119 Dy108 2.326 . S
O119 C126 1.267 . S
O120 C109 1.185 1_545 S
O120 Dy111 2.398 1_556 S
O121 C109 1.355 . S
O121 Dy111 2.491 1_566 S
O122 Dy111 2.403 1_556 S
O122 C117 1.254 1_556 S
O123 Dy108 2.310 . S
O123 Dy111 2.664 . S
O123 C117 1.268 . S
O124 Dy108 2.351 1_565 S
O124 C127 1.249 . S
O125 Dy111 2.326 1_566 S
O125 C127 1.267 1_556 S
C126 O118 1.249 . S
C126 O119 1.267 . S
C127 O124 1.249 . S
C127 O125 1.267 1_554 S
Dy128 O132 2.398 . S
Dy128 O133 2.491 . S
Dy128 O134 2.403 . S
Dy128 O135 2.664 . S
Dy128 O139 2.326 . S
Dy128 O143 2.310 . S
Dy128 O144 2.351 . S
C129 O140 1.185 . S
C129 O141 1.355 . S
C130 O132 1.185 . S
C130 O133 1.355 . S
Dy131 O135 2.310 . S
Dy131 O138 2.351 . S
Dy131 O140 2.398 . S
Dy131 O141 2.491 . S
Dy131 O142 2.403 . S
Dy131 O143 2.664 . S
Dy131 O145 2.326 . S
O132 Dy128 2.398 . S
O132 C130 1.185 . S
O133 Dy128 2.491 . S
O133 C130 1.355 . S
O134 Dy128 2.403 . S
O134 C136 1.254 . S
O135 Dy128 2.664 . S
O135 Dy131 2.310 . S
O135 C136 1.268 . S
C136 O134 1.254 . S
C136 O135 1.268 . S
C137 O142 1.254 . S
C137 O143 1.268 . S
O138 Dy131 2.351 . S
O138 C146 1.249 . S
O139 Dy128 2.326 . S
O139 C146 1.267 . S
O140 C129 1.185 . S
O140 Dy131 2.398 . S
O141 C129 1.355 . S
O141 Dy131 2.491 . S
O142 Dy131 2.403 . S
O142 C137 1.254 . S
O143 Dy128 2.310 . S
O143 Dy131 2.664 . S
O143 C137 1.268 . S
O144 Dy128 2.351 . S
O144 C147 1.249 . S
O145 Dy131 2.326 . S
O145 C147 1.267 . S
C146 O138 1.249 . S
C146 O139 1.267 . S
C147 O144 1.249 . S
C147 O145 1.267 . S
Dy148 O152 2.398 . S
Dy148 O153 2.491 . S
Dy148 O154 2.403 1_455 S
Dy148 O155 2.664 1_455 S
Dy148 O159 2.326 . S
Dy148 O163 2.310 1_554 S
Dy148 O164 2.351 1_455 S
C149 O160 1.185 . S
C149 O161 1.355 . S
C150 O152 1.185 . S
C150 O153 1.355 . S
Dy151 O155 2.310 1_456 S
Dy151 O158 2.351 1_556 S
Dy151 O160 2.398 1_455 S
Dy151 O161 2.491 1_455 S
Dy151 O162 2.403 . S
Dy151 O163 2.664 . S
Dy151 O165 2.326 1_455 S
O152 Dy148 2.398 . S
O152 C150 1.185 . S
O153 Dy148 2.491 . S
O153 C150 1.355 . S
O154 Dy148 2.403 1_655 S
O154 C156 1.254 . S
O155 Dy148 2.664 1_655 S
O155 Dy151 2.310 1_654 S
O155 C156 1.268 . S
C156 O154 1.254 . S
C156 O155 1.268 . S
C157 O162 1.254 . S
C157 O163 1.268 . S
O158 Dy151 2.351 1_554 S
O158 C166 1.249 . S
O159 Dy148 2.326 . S
O159 C166 1.267 . S
O160 C149 1.185 . S
O160 Dy151 2.398 1_655 S
O161 C149 1.355 . S
O161 Dy151 2.491 1_655 S
O162 Dy151 2.403 . S
O162 C157 1.254 . S
O163 Dy148 2.310 1_556 S
O163 Dy151 2.664 . S
O163 C157 1.268 . S
O164 Dy148 2.351 1_655 S
O164 C167 1.249 1_554 S
O165 Dy151 2.326 1_655 S
O165 C167 1.267 . S
C166 O158 1.249 . S
C166 O159 1.267 . S
C167 O164 1.249 1_556 S
C167 O165 1.267 . S
C168 C169 1.369 . S
C168 C170 1.419 . S
C168 H172 0.930 . S
C169 C168 1.369 . S
C169 C178 1.429 . S
C170 C168 1.419 . S
C170 C171 1.363 . S
C170 H173 0.929 . S
C171 C170 1.363 . S
C171 C177 1.428 . S
H172 C168 0.930 . S
H173 C170 0.929 . S
S174 N175 1.613 . S
S174 N176 1.610 . S
N175 S174 1.613 . S
N175 C178 1.350 . S
N176 S174 1.610 . S
N176 C177 1.351 . S
C177 C171 1.428 . S
C177 N176 1.351 . S
C177 C178 1.434 . S
C178 C169 1.429 . S
C178 N175 1.350 . S
C178 C177 1.434 . S
C179 C180 1.369 . S
C179 C181 1.419 . S
C179 H183 0.930 . S
C180 C179 1.369 . S
C180 C189 1.429 . S
C181 C179 1.419 . S
C181 C182 1.363 . S
C181 H184 0.929 . S
C182 C181 1.363 . S
C182 C188 1.428 . S
H183 C179 0.930 . S
H184 C181 0.929 . S
S185 N186 1.613 . S
S185 N187 1.610 . S
N186 S185 1.613 . S
N186 C189 1.350 . S
N187 S185 1.610 . S
N187 C188 1.351 . S
C188 C182 1.428 . S
C188 N187 1.351 . S
C188 C189 1.434 . S
C189 C180 1.429 . S
C189 N186 1.350 . S
C189 C188 1.434 . S
C190 C191 1.369 . S
C190 C192 1.419 . S
C190 H194 0.930 . S
C191 C190 1.369 . S
C191 C200 1.429 . S
C192 C190 1.419 . S
C192 C193 1.363 . S
C192 H195 0.929 . S
C193 C192 1.363 . S
C193 C199 1.428 . S
H194 C190 0.930 . S
H195 C192 0.929 . S
S196 N197 1.613 . S
S196 N198 1.610 . S
N197 S196 1.613 . S
N197 C200 1.350 . S
N198 S196 1.610 . S
N198 C199 1.351 . S
C199 C193 1.428 . S
C199 N198 1.351 . S
C199 C200 1.434 . S
C200 C191 1.429 . S
C200 N197 1.350 . S
C200 C199 1.434 . S
C201 C202 1.369 . S
C201 C203 1.419 . S
C201 H205 0.930 . S
C202 C201 1.369 . S
C202 C211 1.429 . S
C203 C201 1.419 . S
C203 C204 1.363 . S
C203 H206 0.929 . S
C204 C203 1.363 . S
C204 C210 1.428 . S
H205 C201 0.930 . S
H206 C203 0.929 . S
S207 N208 1.613 . S
S207 N209 1.610 . S
N208 S207 1.613 . S
N208 C211 1.350 1_455 S
N209 S207 1.610 . S
N209 C210 1.351 1_455 S
C210 C204 1.428 . S
C210 N209 1.351 1_655 S
C210 C211 1.434 . S
C211 C202 1.429 . S
C211 N208 1.350 1_655 S
C211 C210 1.434 . S
C212 C213 1.369 . S
C212 C214 1.419 . S
C212 H216 0.930 . S
C213 C212 1.369 . S
C213 C222 1.429 . S
C214 C212 1.419 . S
C214 C215 1.363 . S
C214 H217 0.929 . S
C215 C214 1.363 . S
C215 C221 1.428 . S
H216 C212 0.930 . S
H217 C214 0.929 . S
S218 N219 1.613 . S
S218 N220 1.610 . S
N219 S218 1.613 . S
N219 C222 1.350 . S
N220 S218 1.610 . S
N220 C221 1.351 . S
C221 C215 1.428 . S
C221 N220 1.351 . S
C221 C222 1.434 . S
C222 C213 1.429 . S
C222 N219 1.350 . S
C222 C221 1.434 . S
C223 C224 1.369 . S
C223 C225 1.419 . S
C223 H227 0.930 . S
C224 C223 1.369 . S
C224 C233 1.429 . S
C225 C223 1.419 . S
C225 C226 1.363 . S
C225 H228 0.929 . S
C226 C225 1.363 . S
C226 C232 1.428 . S
H227 C223 0.930 . S
H228 C225 0.929 . S
S229 N230 1.613 . S
S229 N231 1.610 . S
N230 S229 1.613 . S
N230 C233 1.350 . S
N231 S229 1.610 . S
N231 C232 1.351 . S
C232 C226 1.428 . S
C232 N231 1.351 . S
C232 C233 1.434 . S
C233 C224 1.429 . S
C233 N230 1.350 . S
C233 C232 1.434 . S
C234 C235 1.369 . S
C234 C236 1.419 . S
C234 H238 0.930 1_556 S
C235 C234 1.369 . S
C235 C244 1.429 . S
C236 C234 1.419 . S
C236 C237 1.363 . S
C236 H239 0.929 1_556 S
C237 C236 1.363 . S
C237 C243 1.428 . S
H238 C234 0.930 1_554 S
H239 C236 0.929 1_554 S
S240 N241 1.613 . S
S240 N242 1.610 . S
N241 S240 1.613 . S
N241 C244 1.350 . S
N242 S240 1.610 . S
N242 C243 1.351 . S
C243 C237 1.428 . S
C243 N242 1.351 . S
C243 C244 1.434 . S
C244 C235 1.429 . S
C244 N241 1.350 . S
C244 C243 1.434 . S
C245 C246 1.369 . S
C245 C247 1.419 . S
C245 H249 0.930 . S
C246 C245 1.369 . S
C246 C255 1.429 . S
C247 C245 1.419 . S
C247 C248 1.363 . S
C247 H250 0.929 . S
C248 C247 1.363 . S
C248 C254 1.428 . S
H249 C245 0.930 . S
H250 C247 0.929 . S
S251 N252 1.613 . S
S251 N253 1.610 . S
N252 S251 1.613 . S
N252 C255 1.350 . S
N253 S251 1.610 . S
N253 C254 1.351 . S
C254 C248 1.428 . S
C254 N253 1.351 . S
C254 C255 1.434 . S
C255 C246 1.429 . S
C255 N252 1.350 . S
C255 C254 1.434 . S
C256 C257 1.369 . S
C256 C258 1.419 . S
C256 H260 0.930 . S
C257 C256 1.369 . S
C257 C266 1.429 . S
C258 C256 1.419 . S
C258 C259 1.363 . S
C258 H261 0.929 . S
C259 C258 1.363 . S
C259 C265 1.428 . S
H260 C256 0.930 . S
H261 C258 0.929 . S
S262 N263 1.613 . S
S262 N264 1.610 . S
N263 S262 1.613 . S
N263 C266 1.350 . S
N264 S262 1.610 . S
N264 C265 1.351 . S
C265 C259 1.428 . S
C265 N264 1.351 . S
C265 C266 1.434 . S
C266 C257 1.429 . S
C266 N263 1.350 . S
C266 C265 1.434 . S
C267 C268 1.369 . S
C267 C269 1.419 . S
C267 H271 0.930 . S
C268 C267 1.369 . S
C268 C277 1.429 1_556 S
C269 C267 1.419 . S
C269 C270 1.363 . S
C269 H272 0.929 . S
C270 C269 1.363 . S
C270 C276 1.428 1_556 S
H271 C267 0.930 . S
H272 C269 0.929 . S
S273 N274 1.613 . S
S273 N275 1.610 . S
N274 S273 1.613 . S
N274 C277 1.350 . S
N275 S273 1.610 . S
N275 C276 1.351 . S
C276 C270 1.428 1_554 S
C276 N275 1.351 . S
C276 C277 1.434 . S
C277 C268 1.429 1_554 S
C277 N274 1.350 . S
C277 C276 1.434 . S
C278 C279 1.369 . S
C278 C280 1.419 . S
C278 H282 0.930 . S
C279 C278 1.369 . S
C279 C288 1.429 . S
C280 C278 1.419 . S
C280 C281 1.363 . S
C280 H283 0.929 . S
C281 C280 1.363 . S
C281 C287 1.428 . S
H282 C278 0.930 . S
H283 C280 0.929 . S
S284 N285 1.613 1_455 S
S284 N286 1.610 . S
N285 S284 1.613 1_655 S
N285 C288 1.350 . S
N286 S284 1.610 . S
N286 C287 1.351 1_455 S
C287 C281 1.428 . S
C287 N286 1.351 1_655 S
C287 C288 1.434 . S
C288 C279 1.429 . S
C288 N285 1.350 . S
C288 C287 1.434 . S
C289 C290 1.369 . S
C289 C291 1.419 . S
C289 H293 0.930 . S
C290 C289 1.369 . S
C290 C299 1.429 . S
C291 C289 1.419 . S
C291 C292 1.363 . S
C291 H294 0.929 . S
C292 C291 1.363 . S
C292 C298 1.428 . S
H293 C289 0.930 . S
H294 C291 0.929 . S
S295 N296 1.613 . S
S295 N297 1.610 . S
N296 S295 1.613 . S
N296 C299 1.350 . S
N297 S295 1.610 . S
N297 C298 1.351 . S
C298 C292 1.428 . S
C298 N297 1.351 . S
C298 C299 1.434 . S
C299 C290 1.429 . S
C299 N296 1.350 . S
C299 C298 1.434 . S
C300 C301 1.369 . S
C300 C302 1.419 . S
C300 H304 0.930 . S
C301 C300 1.369 . S
C301 C310 1.429 . S
C302 C300 1.419 . S
C302 C303 1.363 . S
C302 H305 0.929 . S
C303 C302 1.363 . S
C303 C309 1.428 . S
H304 C300 0.930 . S
H305 C302 0.929 . S
S306 N307 1.613 . S
S306 N308 1.610 . S
N307 S306 1.613 . S
N307 C310 1.350 . S
N308 S306 1.610 . S
N308 C309 1.351 . S
C309 C303 1.428 . S
C309 N308 1.351 . S
C309 C310 1.434 . S
C310 C301 1.429 . S
C310 N307 1.350 . S
C310 C309 1.434 . S
C311 C312 1.369 . S
C311 C313 1.419 . S
C311 H315 0.930 . S
C312 C311 1.369 . S
C312 C321 1.429 . S
C313 C311 1.419 . S
C313 C314 1.363 . S
C313 H316 0.929 . S
C314 C313 1.363 . S
C314 C320 1.428 . S
H315 C311 0.930 . S
H316 C313 0.929 . S
S317 N318 1.613 . S
S317 N319 1.610 . S
N318 S317 1.613 . S
N318 C321 1.350 . S
N319 S317 1.610 . S
N319 C320 1.351 . S
C320 C314 1.428 . S
C320 N319 1.351 . S
C320 C321 1.434 . S
C321 C312 1.429 . S
C321 N318 1.350 . S
C321 C320 1.434 . S
C322 C323 1.369 . S
C322 C324 1.419 . S
C322 H326 0.930 . S
C323 C322 1.369 . S
C323 C332 1.429 . S
C324 C322 1.419 . S
C324 C325 1.363 . S
C324 H327 0.929 . S
C325 C324 1.363 . S
C325 C331 1.428 . S
H326 C322 0.930 . S
H327 C324 0.929 . S
S328 N329 1.613 . S
S328 N330 1.610 . S
N329 S328 1.613 . S
N329 C332 1.350 . S
N330 S328 1.610 . S
N330 C331 1.351 . S
C331 C325 1.428 . S
C331 N330 1.351 . S
C331 C332 1.434 . S
C332 C323 1.429 . S
C332 N329 1.350 . S
C332 C331 1.434 . S
C333 C334 1.369 . S
C333 C335 1.419 . S
C333 H337 0.930 . S
C334 C333 1.369 . S
C334 C343 1.429 . S
C335 C333 1.419 . S
C335 C336 1.363 . S
C335 H338 0.929 . S
C336 C335 1.363 . S
C336 C342 1.428 . S
H337 C333 0.930 . S
H338 C335 0.929 . S
S339 N340 1.613 . S
S339 N341 1.610 . S
N340 S339 1.613 . S
N340 C343 1.350 . S
N341 S339 1.610 . S
N341 C342 1.351 . S
C342 C336 1.428 . S
C342 N341 1.351 . S
C342 C343 1.434 . S
C343 C334 1.429 . S
C343 N340 1.350 . S
C343 C342 1.434 . S
C344 C345 1.369 . S
C344 C346 1.419 . S
C344 H348 0.930 . S
C345 C344 1.369 . S
C345 C354 1.429 . S
C346 C344 1.419 . S
C346 C347 1.363 . S
C346 H349 0.929 . S
C347 C346 1.363 . S
C347 C353 1.428 . S
H348 C344 0.930 . S
H349 C346 0.929 . S
S350 N351 1.613 1_554 S
S350 N352 1.610 . S
N351 S350 1.613 1_556 S
N351 C354 1.350 . S
N352 S350 1.610 . S
N352 C353 1.351 1_554 S
C353 C347 1.428 . S
C353 N352 1.351 1_556 S
C353 C354 1.434 . S
C354 C345 1.429 . S
C354 N351 1.350 . S
C354 C353 1.434 . S
C355 C356 1.369 . S
C355 C357 1.419 . S
C355 H359 0.930 . S
C356 C355 1.369 . S
C356 C365 1.429 . S
C357 C355 1.419 . S
C357 C358 1.363 . S
C357 H360 0.929 . S
C358 C357 1.363 . S
C358 C364 1.428 . S
H359 C355 0.930 . S
H360 C357 0.929 . S
S361 N362 1.613 . S
S361 N363 1.610 . S
N362 S361 1.613 . S
N362 C365 1.350 . S
N363 S361 1.610 . S
N363 C364 1.351 . S
C364 C358 1.428 . S
C364 N363 1.351 . S
C364 C365 1.434 . S
C365 C356 1.429 . S
C365 N362 1.350 . S
C365 C364 1.434 . S
C366 C367 1.369 . S
C366 C368 1.419 . S
C366 H370 0.930 . S
C367 C366 1.369 . S
C367 C376 1.429 . S
C368 C366 1.419 . S
C368 C369 1.363 . S
C368 H371 0.929 . S
C369 C368 1.363 . S
C369 C375 1.428 . S
H370 C366 0.930 . S
H371 C368 0.929 . S
S372 N373 1.613 . S
S372 N374 1.610 . S
N373 S372 1.613 . S
N373 C376 1.350 . S
N374 S372 1.610 . S
N374 C375 1.351 . S
C375 C369 1.428 . S
C375 N374 1.351 . S
C375 C376 1.434 . S
C376 C367 1.429 . S
C376 N373 1.350 . S
C376 C375 1.434 . S
C377 C378 1.369 . S
C377 C379 1.419 . S
C377 H381 0.930 . S
C378 C377 1.369 . S
C378 C387 1.429 . S
C379 C377 1.419 . S
C379 C380 1.363 . S
C379 H382 0.929 . S
C380 C379 1.363 . S
C380 C386 1.428 . S
H381 C377 0.930 . S
H382 C379 0.929 . S
S383 N384 1.613 . S
S383 N385 1.610 . S
N384 S383 1.613 . S
N384 C387 1.350 . S
N385 S383 1.610 . S
N385 C386 1.351 . S
C386 C380 1.428 . S
C386 N385 1.351 . S
C386 C387 1.434 . S
C387 C378 1.429 . S
C387 N384 1.350 . S
C387 C386 1.434 . S
C388 C389 1.369 . S
C388 C390 1.419 . S
C388 H392 0.930 . S
C389 C388 1.369 . S
C389 C398 1.429 . S
C390 C388 1.419 . S
C390 C391 1.363 . S
C390 H393 0.929 . S
C391 C390 1.363 . S
C391 C397 1.428 . S
H392 C388 0.930 . S
H393 C390 0.929 . S
S394 N395 1.613 . S
S394 N396 1.610 . S
N395 S394 1.613 . S
N395 C398 1.350 . S
N396 S394 1.610 . S
N396 C397 1.351 . S
C397 C391 1.428 . S
C397 N396 1.351 . S
C397 C398 1.434 . S
C398 C389 1.429 . S
C398 N395 1.350 . S
C398 C397 1.434 . S
C399 C400 1.369 . S
C399 C401 1.419 . S
C399 H403 0.930 . S
C400 C399 1.369 . S
C400 C409 1.429 . S
C401 C399 1.419 . S
C401 C402 1.363 . S
C401 H404 0.929 . S
C402 C401 1.363 . S
C402 C408 1.428 . S
H403 C399 0.930 . S
H404 C401 0.929 . S
S405 N406 1.613 . S
S405 N407 1.610 . S
N406 S405 1.613 . S
N406 C409 1.350 . S
N407 S405 1.610 . S
N407 C408 1.351 . S
C408 C402 1.428 . S
C408 N407 1.351 . S
C408 C409 1.434 . S
C409 C400 1.429 . S
C409 N406 1.350 . S
C409 C408 1.434 . S
C410 C411 1.369 . S
C410 C412 1.419 . S
C410 H414 0.930 . S
C411 C410 1.369 . S
C411 C420 1.429 . S
C412 C410 1.419 . S
C412 C413 1.363 . S
C412 H415 0.929 . S
C413 C412 1.363 . S
C413 C419 1.428 . S
H414 C410 0.930 . S
H415 C412 0.929 . S
S416 N417 1.613 1_655 S
S416 N418 1.610 1_655 S
N417 S416 1.613 1_455 S
N417 C420 1.350 . S
N418 S416 1.610 1_455 S
N418 C419 1.351 . S
C419 C413 1.428 . S
C419 N418 1.351 . S
C419 C420 1.434 . S
C420 C411 1.429 . S
C420 N417 1.350 . S
C420 C419 1.434 . S
C421 C422 1.369 . S
C421 C423 1.419 . S
C421 H425 0.930 . S
C422 C421 1.369 . S
C422 C431 1.429 . S
C423 C421 1.419 . S
C423 C424 1.363 . S
C423 H426 0.929 . S
C424 C423 1.363 . S
C424 C430 1.428 . S
H425 C421 0.930 . S
H426 C423 0.929 . S
S427 N428 1.613 . S
S427 N429 1.610 . S
N428 S427 1.613 . S
N428 C431 1.350 . S
N429 S427 1.610 . S
N429 C430 1.351 . S
C430 C424 1.428 . S
C430 N429 1.351 . S
C430 C431 1.434 . S
C431 C422 1.429 . S
C431 N428 1.350 . S
C431 C430 1.434 . S
C169 C4 1.474 . S
C171 C90 1.478 . S
C180 C16 1.527 . S
C182 C109 1.497 . S
C193 C146 1.485 . S
C191 C32 1.498 . S
C202 C43 1.640 . S
C204 C156 1.594 . S
C215 C126 2.132 . S
C213 C5 2.067 . S
C226 C96 1.184 . S
C224 C21 1.218 . S
C237 C167 1.523 . S
C235 C27 1.558 . S
C248 C137 1.438 . S
C246 C37 1.442 . S
C257 C10 1.566 . S
C259 C150 1.580 . S
C270 C117 1.821 1_556 S
C268 C26 1.878 . S
C279 C38 1.609 . S
C281 C107 1.609 . S
C290 C15 1.349 . S
C292 C129 1.333 . S
C303 C89 1.550 . S
C301 C48 1.548 . S
C312 C59 1.429 . S
C314 C110 1.398 . S
C323 C76 1.734 . S
C325 C147 1.703 . S
C334 C87 1.539 . S
C336 C157 1.529 . S
C345 C54 1.641 . S
C347 C127 1.692 1_556 S
C358 C97 1.722 . S
C356 C60 1.782 . S
C369 C166 1.436 . S
C367 C71 1.471 . S
C380 C136 1.371 . S
C378 C82 1.430 . S
C389 C49 1.727 . S
C391 C149 1.789 . S
C402 C116 1.484 . S
C400 C70 1.536 . S
C413 C106 1.868 . S
C411 C81 1.872 . S
C422 C65 1.317 . S
C424 C130 1.318 . S
