# Generated by pormake.
# Topology dag, (6,3)-cn, num edge types: 1
# Building blocks:
#     Node 0, Type 0, BuildingBlock: IZENUY_clean_sbu_0, # of connection points: 6
#     Node 1, Type 0, BuildingBlock: IZENUY_clean_sbu_0, # of connection points: 6
#     Node 2, Type 0, BuildingBlock: IZENUY_clean_sbu_0, # of connection points: 6
#     Node 3, Type 0, BuildingBlock: IZENUY_clean_sbu_0, # of connection points: 6
#     Node 4, Type 1, BuildingBlock: BETDAH_clean_linker_0, # of connection points: 3
#     Node 5, Type 1, BuildingBlock: BETDAH_clean_linker_0, # of connection points: 3
#     Node 6, Type 1, BuildingBlock: BETDAH_clean_linker_0, # of connection points: 3
#     Node 7, Type 1, BuildingBlock: BETDAH_clean_linker_0, # of connection points: 3
#     Node 8, Type 1, BuildingBlock: BETDAH_clean_linker_0, # of connection points: 3
#     Node 9, Type 1, BuildingBlock: BETDAH_clean_linker_0, # of connection points: 3
#     Node 10, Type 1, BuildingBlock: BETDAH_clean_linker_0, # of connection points: 3
#     Node 11, Type 1, BuildingBlock: BETDAH_clean_linker_0, # of connection points: 3
#     Edge 12, Type (0, 1), BuildingBlock: OJICUG_clean_linker_0, # of connection points: 2
#     Edge 13, Type (0, 1), BuildingBlock: OJICUG_clean_linker_0, # of connection points: 2
#     Edge 14, Type (0, 1), BuildingBlock: OJICUG_clean_linker_0, # of connection points: 2
#     Edge 15, Type (0, 1), BuildingBlock: OJICUG_clean_linker_0, # of connection points: 2
#     Edge 16, Type (0, 1), BuildingBlock: OJICUG_clean_linker_0, # of connection points: 2
#     Edge 17, Type (0, 1), BuildingBlock: OJICUG_clean_linker_0, # of connection points: 2
#     Edge 18, Type (0, 1), BuildingBlock: OJICUG_clean_linker_0, # of connection points: 2
#     Edge 19, Type (0, 1), BuildingBlock: OJICUG_clean_linker_0, # of connection points: 2
#     Edge 20, Type (0, 1), BuildingBlock: OJICUG_clean_linker_0, # of connection points: 2
#     Edge 21, Type (0, 1), BuildingBlock: OJICUG_clean_linker_0, # of connection points: 2
#     Edge 22, Type (0, 1), BuildingBlock: OJICUG_clean_linker_0, # of connection points: 2
#     Edge 23, Type (0, 1), BuildingBlock: OJICUG_clean_linker_0, # of connection points: 2
#     Edge 24, Type (0, 1), BuildingBlock: OJICUG_clean_linker_0, # of connection points: 2
#     Edge 25, Type (0, 1), BuildingBlock: OJICUG_clean_linker_0, # of connection points: 2
#     Edge 26, Type (0, 1), BuildingBlock: OJICUG_clean_linker_0, # of connection points: 2
#     Edge 27, Type (0, 1), BuildingBlock: OJICUG_clean_linker_0, # of connection points: 2
#     Edge 28, Type (0, 1), BuildingBlock: OJICUG_clean_linker_0, # of connection points: 2
#     Edge 29, Type (0, 1), BuildingBlock: OJICUG_clean_linker_0, # of connection points: 2
#     Edge 30, Type (0, 1), BuildingBlock: OJICUG_clean_linker_0, # of connection points: 2
#     Edge 31, Type (0, 1), BuildingBlock: OJICUG_clean_linker_0, # of connection points: 2
#     Edge 32, Type (0, 1), BuildingBlock: OJICUG_clean_linker_0, # of connection points: 2
#     Edge 33, Type (0, 1), BuildingBlock: OJICUG_clean_linker_0, # of connection points: 2
#     Edge 34, Type (0, 1), BuildingBlock: OJICUG_clean_linker_0, # of connection points: 2
#     Edge 35, Type (0, 1), BuildingBlock: OJICUG_clean_linker_0, # of connection points: 2
# Relax obj value: 0.092
# Max RMSD: 0.109
# Mean RMSD: 0.094
data_MOF--net-dag--node1-IZENUY_clean_sbu_0--node2-BETDAH_clean_linker_0--edge1-OJICUG_clean_linker_0
_symmetry_space_group_name_H-M    P1
_symmetry_Int_Tables_number       1
_symmetry_cell_setting            triclinic
loop_
_symmetry_equiv_pos_as_xyz
'x, y, z'
_cell_length_a     28.186843
_cell_length_b     30.092719
_cell_length_c     26.078557
_cell_angle_alpha  94.722381
_cell_angle_beta   90.108456
_cell_angle_gamma 89.897197
loop_
_atom_site_label
_atom_site_type_symbol
_atom_site_fract_x
_atom_site_fract_y
_atom_site_fract_z
_atom_type_partial_charge
Fe0 Fe 0.19688 0.86276 0.08734 0.0
Fe1 Fe 0.09499 0.89484 0.07673 0.0
O2 O 0.13592 0.85052 0.07646 0.0
Fe3 Fe 0.11555 0.79467 0.06535 0.0
O4 O 0.15882 0.77211 0.10924 0.0
O5 O 0.1978 0.8309 0.14313 0.0
O6 O 0.18574 0.91258 0.13214 0.0
C7 C 0.14933 0.92442 0.15856 0.0
C8 C 0.19873 0.7902 0.01002 0.0
O9 O 0.10851 0.91191 0.14344 0.0
C10 C 0.06441 0.84186 0.99333 0.0
O11 O 0.20011 0.8963 0.03186 0.0
O12 O 0.13658 0.93504 0.05435 0.0
O13 O 0.15447 0.78417 0.0103 0.0
O14 O 0.21878 0.81509 0.04518 0.0
C15 C 0.04321 0.83056 0.12516 0.0
O16 O 0.07988 0.87969 0.01006 0.0
O17 O 0.06896 0.80826 0.01939 0.0
C18 C 0.17425 0.93026 0.02856 0.0
O19 O 0.04491 0.86397 0.09923 0.0
O20 O 0.07429 0.80036 0.11963 0.0
C21 C 0.18411 0.79116 0.14483 0.0
Fe22 Fe 0.70262 0.63712 0.46246 0.0
Fe23 Fe 0.61946 0.70281 0.48795 0.0
O24 O 0.64184 0.64756 0.47763 0.0
Fe25 Fe 0.60302 0.6023 0.48292 0.0
O26 O 0.63702 0.58412 0.53592 0.0
O27 O 0.70662 0.58667 0.4981 0.0
O28 O 0.7216 0.66837 0.52114 0.0
C29 C 0.70965 0.70759 0.53665 0.0
C30 C 0.66151 0.57082 0.39984 0.0
O31 O 0.67437 0.72633 0.51723 0.0
C32 C 0.54661 0.65623 0.43021 0.0
O33 O 0.70898 0.68583 0.42474 0.0
O34 O 0.63729 0.71511 0.42428 0.0
O35 O 0.63406 0.56399 0.43649 0.0
O36 O 0.68843 0.60436 0.40226 0.0
C37 C 0.57211 0.66351 0.56332 0.0
O38 O 0.56039 0.68899 0.46036 0.0
O39 O 0.56705 0.61886 0.43015 0.0
C40 C 0.67817 0.71014 0.40515 0.0
O41 O 0.59958 0.69448 0.55292 0.0
O42 O 0.56413 0.63103 0.53079 0.0
C43 C 0.68057 0.57461 0.53407 0.0
Fe44 Fe 0.88595 0.20774 0.98528 0.0
Fe45 Fe 0.90658 0.10757 0.97405 0.0
O46 O 0.86563 0.15187 0.97424 0.0
Fe47 Fe 0.80468 0.13958 0.96334 0.0
O48 O 0.8038 0.17132 0.90746 0.0
O49 O 0.84272 0.23019 0.94125 0.0
O50 O 0.92729 0.20202 0.93108 0.0
C51 C 0.95839 0.17184 0.92562 0.0
C52 C 0.8027 0.21224 0.04049 0.0
O53 O 0.95665 0.13842 0.95153 0.0
C54 C 0.82735 0.07223 0.02232 0.0
O55 O 0.93249 0.19423 0.03134 0.0
O56 O 0.92165 0.12279 0.0407 0.0
O57 O 0.78271 0.1873 0.00533 0.0
O58 O 0.84695 0.21828 0.04027 0.0
C59 C 0.85227 0.0779 0.89222 0.0
O60 O 0.86498 0.06739 0.99647 0.0
O61 O 0.80146 0.10616 0.01892 0.0
C62 C 0.93709 0.16064 0.05741 0.0
O63 O 0.89308 0.09043 0.90734 0.0
O64 O 0.81587 0.08969 0.91866 0.0
C65 C 0.8175 0.21104 0.90566 0.0
Fe66 Fe 0.39873 0.39948 0.56817 0.0
Fe67 Fe 0.29904 0.3648 0.58857 0.0
O68 O 0.35981 0.35428 0.57339 0.0
Fe69 Fe 0.38209 0.29899 0.56297 0.0
O70 O 0.44121 0.31269 0.59051 0.0
O71 O 0.43466 0.38279 0.6209 0.0
O72 O 0.36776 0.4378 0.61465 0.0
C73 C 0.34025 0.43102 0.65125 0.0
C74 C 0.42945 0.33834 0.48764 0.0
O75 O 0.31326 0.39754 0.64878 0.0
C76 C 0.29189 0.29438 0.51433 0.0
O77 O 0.36477 0.41779 0.51521 0.0
O78 O 0.29512 0.41526 0.55293 0.0
O79 O 0.40193 0.30739 0.49799 0.0
O80 O 0.43754 0.37073 0.52025 0.0
C81 C 0.32344 0.29174 0.64585 0.0
O82 O 0.28001 0.3336 0.52988 0.0
O83 O 0.32713 0.27557 0.53372 0.0
C84 C 0.32122 0.42732 0.517 0.0
O85 O 0.29264 0.3161 0.62629 0.0
O86 O 0.36428 0.28666 0.62663 0.0
C87 C 0.45507 0.34539 0.62071 0.0
H88 H 0.06632 0.07953 0.20564 0.0
H89 H 0.18785 0.12289 0.29598 0.0
H90 H 0.0937 0.21936 0.23714 0.0
C91 C 0.08628 0.10632 0.2259 0.0
C92 C 0.07368 0.15056 0.21955 0.0
C93 C 0.12713 0.09581 0.25326 0.0
C94 C 0.15529 0.13053 0.27636 0.0
C95 C 0.14253 0.17525 0.27107 0.0
C96 C 0.10229 0.18488 0.24221 0.0
N97 N 0.17203 0.21127 0.28919 0.0
C98 C 0.1942 0.21539 0.33696 0.0
H99 H 0.43008 0.58041 0.69689 0.0
H100 H 0.42095 0.7197 0.74747 0.0
H101 H 0.31588 0.62822 0.79569 0.0
C102 C 0.41352 0.60756 0.7203 0.0
C103 C 0.37218 0.59886 0.74775 0.0
C104 C 0.43169 0.65089 0.71959 0.0
C105 C 0.40774 0.6859 0.74746 0.0
C106 C 0.36663 0.67811 0.7756 0.0
C107 C 0.34849 0.63438 0.77557 0.0
N108 N 0.34337 0.71587 0.80033 0.0
C109 C 0.31281 0.71618 0.84215 0.0
H110 H 0.88378 0.91915 0.13638 0.0
H111 H 0.81821 0.813 0.21124 0.0
H112 H 0.73231 0.91592 0.15166 0.0
C113 C 0.85222 0.90385 0.1509 0.0
C114 C 0.80771 0.92255 0.14201 0.0
C115 C 0.8564 0.86451 0.17598 0.0
C116 C 0.81527 0.84393 0.19294 0.0
C117 C 0.77035 0.86306 0.18481 0.0
C118 C 0.76694 0.90215 0.15929 0.0
N119 N 0.7276 0.84295 0.19939 0.0
C120 C 0.72432 0.81347 0.23736 0.0
H121 H 0.62675 0.43211 0.64941 0.0
H122 H 0.67934 0.30809 0.6978 0.0
H123 H 0.77656 0.40648 0.64877 0.0
C124 C 0.65635 0.41104 0.65855 0.0
C125 C 0.7026 0.42496 0.64884 0.0
C126 C 0.64738 0.36894 0.67564 0.0
C127 C 0.6858 0.34092 0.68507 0.0
C128 C 0.73258 0.35494 0.67613 0.0
C129 C 0.74062 0.39633 0.65674 0.0
N130 N 0.77212 0.32754 0.68486 0.0
C131 C 0.77535 0.30315 0.72757 0.0
H132 H 0.57152 0.4216 0.35422 0.0
H133 H 0.68525 0.37381 0.25474 0.0
H134 H 0.57996 0.28245 0.30276 0.0
C135 C 0.58792 0.39448 0.33061 0.0
C136 C 0.56958 0.35119 0.33112 0.0
C137 C 0.6292 0.40316 0.30306 0.0
C138 C 0.65268 0.36767 0.27496 0.0
C139 C 0.63437 0.32399 0.27473 0.0
C140 C 0.59331 0.31621 0.30295 0.0
N141 N 0.65736 0.28624 0.24962 0.0
C142 C 0.68815 0.28606 0.20801 0.0
H143 H 0.11811 0.08338 0.91471 0.0
H144 H 0.1836 0.19014 0.84085 0.0
H145 H 0.26965 0.08746 0.90068 0.0
C146 C 0.14967 0.09888 0.90049 0.0
C147 C 0.19423 0.08038 0.90964 0.0
C148 C 0.14544 0.1383 0.87557 0.0
C149 C 0.18658 0.15916 0.85903 0.0
C150 C 0.23154 0.14023 0.86744 0.0
C151 C 0.235 0.10108 0.89283 0.0
N152 N 0.27425 0.16064 0.85326 0.0
C153 C 0.27761 0.18971 0.81487 0.0
H154 H 0.37509 0.56941 0.40115 0.0
H155 H 0.32256 0.6932 0.35207 0.0
H156 H 0.22527 0.59494 0.40127 0.0
C157 C 0.3455 0.59043 0.39183 0.0
C158 C 0.29923 0.57652 0.40148 0.0
C159 C 0.35448 0.63246 0.37459 0.0
C160 C 0.31608 0.66042 0.36491 0.0
C161 C 0.26928 0.6464 0.37376 0.0
C162 C 0.26122 0.60508 0.39333 0.0
N163 N 0.22973 0.67374 0.36486 0.0
C164 C 0.22665 0.69829 0.32226 0.0
H165 H 0.93532 0.92292 0.84487 0.0
H166 H 0.90789 0.78308 0.81356 0.0
H167 H 0.81373 0.8795 0.75467 0.0
C168 C 0.91535 0.89612 0.82464 0.0
C169 C 0.87449 0.90661 0.79729 0.0
C170 C 0.92794 0.85188 0.83105 0.0
C171 C 0.89931 0.81755 0.80843 0.0
C172 C 0.85906 0.82716 0.77959 0.0
C173 C 0.84631 0.87188 0.77426 0.0
N174 N 0.82952 0.79114 0.76159 0.0
C175 C 0.80733 0.78694 0.71382 0.0
C176 C 0.11409 0.97262 0.23129 0.0
C177 C 0.15242 0.96272 0.19792 0.0
H178 H 0.07712 0.02331 0.27781 0.0
C179 C 0.18918 0.99414 0.19591 0.0
H180 H 0.08559 0.94885 0.23428 0.0
C181 C 0.18423 0.03691 0.22091 0.0
C182 C 0.14267 0.04859 0.24844 0.0
H183 H 0.21934 0.98744 0.17076 0.0
H184 H 0.21022 0.06212 0.21368 0.0
C185 C 0.10943 0.01513 0.25661 0.0
C186 C 0.51024 0.70066 0.62035 0.0
C187 C 0.54377 0.66655 0.61071 0.0
H188 H 0.44766 0.72218 0.66173 0.0
C189 C 0.54402 0.63045 0.64139 0.0
H190 H 0.509 0.72841 0.59641 0.0
C191 C 0.50976 0.62718 0.67943 0.0
C192 C 0.47344 0.65926 0.68652 0.0
H193 H 0.56955 0.60368 0.63437 0.0
H194 H 0.51053 0.59837 0.70172 0.0
C195 C 0.47513 0.69695 0.65779 0.0
C196 C 0.7914 0.03927 0.09921 0.0
C197 C 0.81235 0.03396 0.05024 0.0
H198 H 0.77341 0.00725 0.16755 0.0
C199 C 0.82585 0.99105 0.03 0.0
H200 H 0.78096 0.07204 0.11567 0.0
C201 C 0.8221 0.95476 0.05936 0.0
C202 C 0.80438 0.96036 0.10954 0.0
H203 H 0.84147 0.9858 0.99201 0.0
H204 H 0.83475 0.92247 0.04352 0.0
C205 C 0.78736 0.00244 0.12881 0.0
C206 C 0.51512 0.37765 0.6837 0.0
C207 C 0.50169 0.34337 0.64671 0.0
H208 H 0.57256 0.4116 0.72371 0.0
C209 C 0.53564 0.31118 0.62953 0.0
H210 H 0.48963 0.40248 0.69843 0.0
C211 C 0.58326 0.31645 0.64415 0.0
C212 C 0.59742 0.35381 0.67631 0.0
H213 H 0.52634 0.28415 0.60131 0.0
H214 H 0.60949 0.29383 0.6263 0.0
C215 C 0.56253 0.38271 0.6985 0.0
C216 C 0.69833 0.50023 0.3632 0.0
C217 C 0.66546 0.53481 0.35833 0.0
H218 H 0.71302 0.43035 0.34756 0.0
C219 C 0.62705 0.52751 0.32446 0.0
H220 H 0.72746 0.5048 0.39029 0.0
C221 C 0.61881 0.48509 0.30007 0.0
C222 C 0.64857 0.44913 0.30963 0.0
H223 H 0.60066 0.55336 0.32109 0.0
H224 H 0.58634 0.47931 0.27823 0.0
C225 C 0.69002 0.45761 0.3388 0.0
C226 C 0.03781 0.2057 0.91587 0.0
C227 C 0.002 0.17683 0.89584 0.0
H228 H 0.11294 0.21621 0.92395 0.0
C229 C 0.01396 0.14201 0.85897 0.0
H230 H 0.02952 0.23201 0.9454 0.0
C231 C 0.06141 0.13279 0.84705 0.0
C232 C 0.09765 0.15827 0.87183 0.0
H233 H 0.98701 0.11883 0.84381 0.0
H234 H 0.06994 0.10298 0.82261 0.0
C235 C 0.08552 0.19649 0.90382 0.0
C236 C 0.3239 0.45951 0.4328 0.0
C237 C 0.30402 0.45973 0.48208 0.0
H238 H 0.33629 0.49629 0.36748 0.0
C239 C 0.27405 0.49498 0.49995 0.0
H240 H 0.34656 0.43231 0.41796 0.0
C241 C 0.26848 0.53191 0.47114 0.0
C242 C 0.29258 0.53358 0.42421 0.0
H243 H 0.25842 0.49581 0.53794 0.0
H244 H 0.24882 0.56058 0.48759 0.0
C245 C 0.31797 0.496 0.40395 0.0
C246 C 0.99593 0.80878 0.94237 0.0
C247 C 0.03407 0.83884 0.94703 0.0
H248 H 0.93189 0.78965 0.90233 0.0
C249 C 0.0407 0.86864 0.90906 0.0
H250 H 0.99002 0.78543 0.97118 0.0
C251 C 0.00818 0.87026 0.86886 0.0
C252 C 0.96765 0.8429 0.86648 0.0
H253 H 0.07032 0.89163 0.91128 0.0
H254 H 0.01368 0.89443 0.84089 0.0
C255 C 0.96278 0.81101 0.90266 0.0
C256 C 0.88752 0.02978 0.81943 0.0
C257 C 0.8492 0.03963 0.85282 0.0
H258 H 0.92447 0.97915 0.7728 0.0
C259 C 0.81244 0.0082 0.85477 0.0
H260 H 0.91601 0.05355 0.81647 0.0
C261 C 0.81737 0.96547 0.82969 0.0
C262 C 0.85893 0.95383 0.80214 0.0
H263 H 0.78228 0.01487 0.87994 0.0
H264 H 0.79138 0.94025 0.83688 0.0
C265 C 0.89217 0.98731 0.79401 0.0
C266 C 0.49104 0.30119 0.43021 0.0
C267 C 0.45768 0.3354 0.44016 0.0
H268 H 0.55345 0.27964 0.38853 0.0
C269 C 0.45751 0.37167 0.40974 0.0
H270 H 0.49222 0.27331 0.45395 0.0
C271 C 0.4917 0.375 0.37164 0.0
C272 C 0.52788 0.34281 0.36425 0.0
H273 H 0.43211 0.39852 0.417 0.0
H274 H 0.491 0.40394 0.34956 0.0
C275 C 0.52609 0.30496 0.39272 0.0
C276 C 0.21034 0.96346 0.95189 0.0
C277 C 0.18933 0.96863 1.00084 0.0
H278 H 0.22845 0.99572 0.88376 0.0
C279 C 0.1759 0.0115 0.02128 0.0
H280 H 0.22073 0.93073 0.93529 0.0
C281 C 0.17976 0.0479 0.99212 0.0
C282 C 0.19753 0.04246 0.94195 0.0
H283 H 0.16024 0.01663 0.05925 0.0
H284 H 0.16714 0.08017 0.00808 0.0
C285 C 0.21448 1.00041 0.92249 0.0
C286 C 0.48677 0.62382 0.36706 0.0
C287 C 0.50006 0.65816 0.40405 0.0
H288 H 0.42948 0.58977 0.32689 0.0
C289 C 0.46604 0.69036 0.42101 0.0
H290 H 0.51232 0.59898 0.35249 0.0
C291 C 0.41847 0.68504 0.4062 0.0
C292 C 0.40443 0.64763 0.37406 0.0
H293 H 0.47524 0.71744 0.44921 0.0
H294 H 0.39218 0.70767 0.42389 0.0
C295 C 0.43942 0.61872 0.35208 0.0
C296 C 0.37471 0.4745 0.7265 0.0
C297 C 0.33625 0.46706 0.69272 0.0
H298 H 0.41534 0.52284 0.7726 0.0
C299 C 0.30324 0.50153 0.6879 0.0
H300 H 0.40119 0.44873 0.72983 0.0
C301 C 0.31146 0.5442 0.71223 0.0
C302 C 0.35295 0.55283 0.74129 0.0
H303 H 0.27406 0.49686 0.6609 0.0
H304 H 0.28834 0.57139 0.7035 0.0
C305 C 0.38285 0.51695 0.75084 0.0
C306 C 0.98792 0.86038 0.19208 0.0
C307 C 0.99966 0.82561 0.15506 0.0
H308 H 0.93216 0.89949 0.22878 0.0
C309 C 0.9637 0.79689 0.13507 0.0
H310 H 0.01498 0.88346 0.2072 0.0
C311 C 0.91605 0.80622 0.14734 0.0
C312 C 0.90413 0.84438 0.17951 0.0
H313 H 0.97182 0.77063 0.10542 0.0
H314 H 0.88851 0.78663 0.12725 0.0
C315 C 0.94054 0.86971 0.20422 0.0
C316 C 0.72778 0.5069 0.55082 0.0
C317 C 0.69779 0.54209 0.56885 0.0
H318 H 0.75301 0.44124 0.56284 0.0
C319 C 0.67791 0.54212 0.61811 0.0
H320 H 0.74342 0.50621 0.51285 0.0
C321 C 0.68384 0.50551 0.64676 0.0
C322 C 0.70923 0.46799 0.62633 0.0
H323 H 0.65523 0.56926 0.63307 0.0
H324 H 0.66553 0.50508 0.68322 0.0
C325 C 0.73335 0.46985 0.57943 0.0
C326 C 0.00559 0.19374 0.10834 0.0
C327 C 0.96744 0.16369 0.1037 0.0
H328 H 0.06967 0.21284 0.14832 0.0
C329 C 0.96084 0.13388 0.14167 0.0
H330 H 0.01147 0.2171 0.07952 0.0
C331 C 0.9934 0.13222 0.18182 0.0
C332 C 0.03394 0.15958 0.18417 0.0
H333 H 0.93122 0.11088 0.13947 0.0
H334 H 0.98793 0.10804 0.20979 0.0
C335 C 0.03877 0.19149 0.14801 0.0
C336 C 0.22435 0.7873 0.23032 0.0
C337 C 0.19816 0.76628 0.18914 0.0
H338 H 0.25409 0.78171 0.30548 0.0
C339 C 0.18362 0.72184 0.19188 0.0
H340 H 0.23607 0.82151 0.22953 0.0
C341 C 0.19405 0.69936 0.23529 0.0
C342 C 0.21912 0.72087 0.27649 0.0
H343 H 0.16344 0.70463 0.16097 0.0
H344 H 0.18175 0.6654 0.23703 0.0
C345 C 0.23471 0.76471 0.27376 0.0
C346 C 0.78038 0.71376 0.5951 0.0
C347 C 0.73734 0.7317 0.57869 0.0
H348 H 0.83649 0.71814 0.65087 0.0
C349 C 0.71979 0.77103 0.60519 0.0
H350 H 0.79507 0.68366 0.57562 0.0
C351 C 0.74371 0.79068 0.64852 0.0
C352 C 0.78568 0.77155 0.66544 0.0
H353 H 0.68667 0.78564 0.59371 0.0
H354 H 0.72863 0.81983 0.66967 0.0
C355 C 0.80427 0.73355 0.63801 0.0
C356 C 0.79456 0.2583 0.1253 0.0
C357 C 0.77332 0.23554 0.08175 0.0
H358 H 0.78371 0.29277 0.2 0.0
C359 C 0.72348 0.23386 0.07891 0.0
H360 H 0.8328 0.26025 0.12883 0.0
C361 C 0.69567 0.25294 0.11931 0.0
C362 C 0.71705 0.27405 0.16331 0.0
H363 H 0.70583 0.21688 0.04596 0.0
H364 H 0.65742 0.24967 0.11698 0.0
C365 C 0.76659 0.27718 0.1659 0.0
C366 C 0.26451 0.26716 0.71023 0.0
C367 C 0.31094 0.26646 0.69024 0.0
H368 H 0.21727 0.24278 0.76627 0.0
C369 C 0.34582 0.2409 0.71298 0.0
H370 H 0.23686 0.28655 0.69365 0.0
C371 C 0.33452 0.21627 0.75421 0.0
C372 C 0.28829 0.21671 0.7735 0.0
H373 H 0.38195 0.2397 0.69887 0.0
H374 H 0.36194 0.19657 0.77081 0.0
C375 C 0.25324 0.24229 0.75164 0.0
C376 C 0.73734 0.73548 0.34147 0.0
C377 C 0.69074 0.7356 0.36092 0.0
H378 H 0.78481 0.76069 0.2862 0.0
C379 C 0.65576 0.76087 0.33793 0.0
H380 H 0.76506 0.71634 0.35826 0.0
C381 C 0.66715 0.78584 0.29701 0.0
C382 C 0.71356 0.78603 0.2783 0.0
H383 H 0.61949 0.76162 0.35163 0.0
H384 H 0.63966 0.80534 0.28024 0.0
C385 C 0.7487 0.7607 0.30038 0.0
C386 C 0.77738 0.2146 0.82007 0.0
C387 C 0.80359 0.23574 0.86117 0.0
H388 H 0.74773 0.21991 0.74482 0.0
C389 C 0.81828 0.28011 0.85815 0.0
H390 H 0.76555 0.18044 0.82107 0.0
C391 C 0.80797 0.30239 0.81457 0.0
C392 C 0.78287 0.28075 0.77347 0.0
H393 H 0.83848 0.2974 0.88899 0.0
H394 H 0.82037 0.33629 0.81262 0.0
C395 C 0.76715 0.23699 0.77646 0.0
C396 C 0.22121 0.28841 0.4558 0.0
C397 C 0.26417 0.27035 0.47224 0.0
H398 H 0.16515 0.2842 0.39996 0.0
C399 C 0.28166 0.23101 0.44572 0.0
H400 H 0.20657 0.31852 0.47529 0.0
C401 C 0.25774 0.21145 0.40234 0.0
C402 C 0.21585 0.23069 0.38538 0.0
H403 H 0.31472 0.21632 0.45721 0.0
H404 H 0.27276 0.18228 0.38117 0.0
C405 C 0.19732 0.26871 0.41283 0.0
C406 C 0.27788 0.76879 0.97123 0.0
C407 C 0.22803 0.76692 0.96867 0.0
H408 H 0.34381 0.75309 0.93286 0.0
C409 C 0.20668 0.74394 0.92532 0.0
H410 H 0.29561 0.78596 0.004 0.0
C411 C 0.23454 0.72502 0.88465 0.0
C412 C 0.28408 0.72832 0.88696 0.0
H413 H 0.16844 0.74184 0.922 0.0
H414 H 0.21732 0.70923 0.85071 0.0
C415 C 0.30557 0.74968 0.93075 0.0
loop_
_geom_bond_atom_site_label_1
_geom_bond_atom_site_label_2
_geom_bond_distance
_geom_bond_site_symmetry_2
_ccdc_geom_bond_type
Fe0 O2 1.918 . S
Fe0 O5 1.997 . S
Fe0 O6 2.002 . S
Fe0 O11 1.976 . S
Fe0 O14 1.996 . S
Fe1 O2 1.918 . S
Fe1 O9 1.997 . S
Fe1 O12 1.996 1_554 S
Fe1 O16 1.976 1_554 S
Fe1 O19 2.002 . S
O2 Fe0 1.918 . S
O2 Fe1 1.918 . S
O2 Fe3 1.918 . S
Fe3 O2 1.918 . S
Fe3 O4 2.002 . S
Fe3 O13 1.976 1_554 S
Fe3 O17 1.996 1_554 S
Fe3 O20 1.997 . S
O4 Fe3 2.002 . S
O4 C21 1.295 . S
O5 Fe0 1.997 . S
O5 C21 1.235 . S
O6 Fe0 2.002 . S
O6 C7 1.295 . S
C7 O6 1.295 . S
C7 O9 1.235 . S
C8 O13 1.287 . S
C8 O14 1.255 1_556 S
O9 Fe1 1.997 . S
O9 C7 1.235 . S
C10 O16 1.287 . S
C10 O17 1.255 . S
O11 Fe0 1.976 . S
O11 C18 1.287 1_554 S
O12 Fe1 1.996 1_556 S
O12 C18 1.255 . S
O13 Fe3 1.976 1_556 S
O13 C8 1.287 . S
O14 Fe0 1.996 . S
O14 C8 1.255 1_554 S
C15 O19 1.295 . S
C15 O20 1.235 . S
O16 Fe1 1.976 1_556 S
O16 C10 1.287 . S
O17 Fe3 1.996 1_556 S
O17 C10 1.255 . S
C18 O11 1.287 1_556 S
C18 O12 1.255 . S
O19 Fe1 2.002 . S
O19 C15 1.295 . S
O20 Fe3 1.997 . S
O20 C15 1.235 . S
C21 O4 1.295 . S
C21 O5 1.235 . S
Fe22 O24 1.918 . S
Fe22 O27 1.997 . S
Fe22 O28 2.002 . S
Fe22 O33 1.976 . S
Fe22 O36 1.996 . S
Fe23 O24 1.918 . S
Fe23 O31 1.997 . S
Fe23 O34 1.996 . S
Fe23 O38 1.976 . S
Fe23 O41 2.002 . S
O24 Fe22 1.918 . S
O24 Fe23 1.918 . S
O24 Fe25 1.918 . S
Fe25 O24 1.918 . S
Fe25 O26 2.002 . S
Fe25 O35 1.976 . S
Fe25 O39 1.996 . S
Fe25 O42 1.997 . S
O26 Fe25 2.002 . S
O26 C43 1.295 . S
O27 Fe22 1.997 . S
O27 C43 1.235 . S
O28 Fe22 2.002 . S
O28 C29 1.295 . S
C29 O28 1.295 . S
C29 O31 1.235 . S
C30 O35 1.287 . S
C30 O36 1.255 . S
O31 Fe23 1.997 . S
O31 C29 1.235 . S
C32 O38 1.287 . S
C32 O39 1.255 . S
O33 Fe22 1.976 . S
O33 C40 1.287 . S
O34 Fe23 1.996 . S
O34 C40 1.255 . S
O35 Fe25 1.976 . S
O35 C30 1.287 . S
O36 Fe22 1.996 . S
O36 C30 1.255 . S
C37 O41 1.295 . S
C37 O42 1.235 . S
O38 Fe23 1.976 . S
O38 C32 1.287 . S
O39 Fe25 1.996 . S
O39 C32 1.255 . S
C40 O33 1.287 . S
C40 O34 1.255 . S
O41 Fe23 2.002 . S
O41 C37 1.295 . S
O42 Fe25 1.997 . S
O42 C37 1.235 . S
C43 O26 1.295 . S
C43 O27 1.235 . S
Fe44 O46 1.918 . S
Fe44 O49 1.997 1_554 S
Fe44 O50 2.002 1_554 S
Fe44 O55 1.976 . S
Fe44 O58 1.996 . S
Fe45 O46 1.918 . S
Fe45 O53 1.997 1_554 S
Fe45 O56 1.996 . S
Fe45 O60 1.976 . S
Fe45 O63 2.002 1_554 S
O46 Fe44 1.918 . S
O46 Fe45 1.918 . S
O46 Fe47 1.918 1_554 S
Fe47 O46 1.918 1_556 S
Fe47 O48 2.002 . S
Fe47 O57 1.976 1_556 S
Fe47 O61 1.996 1_556 S
Fe47 O64 1.997 . S
O48 Fe47 2.002 . S
O48 C65 1.295 . S
O49 Fe44 1.997 1_556 S
O49 C65 1.235 . S
O50 Fe44 2.002 1_556 S
O50 C51 1.295 . S
C51 O50 1.295 . S
C51 O53 1.235 . S
C52 O57 1.287 . S
C52 O58 1.255 . S
O53 Fe45 1.997 1_556 S
O53 C51 1.235 . S
C54 O60 1.287 . S
C54 O61 1.255 . S
O55 Fe44 1.976 . S
O55 C62 1.287 . S
O56 Fe45 1.996 . S
O56 C62 1.255 . S
O57 Fe47 1.976 1_554 S
O57 C52 1.287 . S
O58 Fe44 1.996 . S
O58 C52 1.255 . S
C59 O63 1.295 . S
C59 O64 1.235 . S
O60 Fe45 1.976 . S
O60 C54 1.287 . S
O61 Fe47 1.996 1_554 S
O61 C54 1.255 . S
C62 O55 1.287 . S
C62 O56 1.255 . S
O63 Fe45 2.002 1_556 S
O63 C59 1.295 . S
O64 Fe47 1.997 . S
O64 C59 1.235 . S
C65 O48 1.295 . S
C65 O49 1.235 . S
Fe66 O68 1.918 . S
Fe66 O71 1.997 . S
Fe66 O72 2.002 . S
Fe66 O77 1.976 . S
Fe66 O80 1.996 . S
Fe67 O68 1.918 . S
Fe67 O75 1.997 . S
Fe67 O78 1.996 . S
Fe67 O82 1.976 . S
Fe67 O85 2.002 . S
O68 Fe66 1.918 . S
O68 Fe67 1.918 . S
O68 Fe69 1.918 . S
Fe69 O68 1.918 . S
Fe69 O70 2.002 . S
Fe69 O79 1.976 . S
Fe69 O83 1.996 . S
Fe69 O86 1.997 . S
O70 Fe69 2.002 . S
O70 C87 1.295 . S
O71 Fe66 1.997 . S
O71 C87 1.235 . S
O72 Fe66 2.002 . S
O72 C73 1.295 . S
C73 O72 1.295 . S
C73 O75 1.235 . S
C74 O79 1.287 . S
C74 O80 1.255 . S
O75 Fe67 1.997 . S
O75 C73 1.235 . S
C76 O82 1.287 . S
C76 O83 1.255 . S
O77 Fe66 1.976 . S
O77 C84 1.287 . S
O78 Fe67 1.996 . S
O78 C84 1.255 . S
O79 Fe69 1.976 . S
O79 C74 1.287 . S
O80 Fe66 1.996 . S
O80 C74 1.255 . S
C81 O85 1.295 . S
C81 O86 1.235 . S
O82 Fe67 1.976 . S
O82 C76 1.287 . S
O83 Fe69 1.996 . S
O83 C76 1.255 . S
C84 O77 1.287 . S
C84 O78 1.255 . S
O85 Fe67 2.002 . S
O85 C81 1.295 . S
O86 Fe69 1.997 . S
O86 C81 1.235 . S
C87 O70 1.295 . S
C87 O71 1.235 . S
H88 C91 0.929 . S
H89 C94 0.929 . S
H90 C96 0.930 . S
C91 H88 0.929 . S
C91 C92 1.398 . S
C91 C93 1.396 . S
C92 C91 1.398 . S
C92 C96 1.407 . S
C93 C91 1.396 . S
C93 C94 1.394 . S
C94 H89 0.929 . S
C94 C93 1.394 . S
C94 C95 1.382 . S
C95 C94 1.382 . S
C95 C96 1.392 . S
C95 N97 1.420 . S
C96 H90 0.930 . S
C96 C92 1.407 . S
C96 C95 1.392 . S
N97 C95 1.420 . S
N97 C98 1.244 . S
C98 N97 1.244 . S
H99 C102 0.929 . S
H100 C105 0.929 . S
H101 C107 0.930 . S
C102 H99 0.929 . S
C102 C103 1.398 . S
C102 C104 1.396 . S
C103 C102 1.398 . S
C103 C107 1.407 . S
C104 C102 1.396 . S
C104 C105 1.394 . S
C105 H100 0.929 . S
C105 C104 1.394 . S
C105 C106 1.382 . S
C106 C105 1.382 . S
C106 C107 1.392 . S
C106 N108 1.420 . S
C107 H101 0.930 . S
C107 C103 1.407 . S
C107 C106 1.392 . S
N108 C106 1.420 . S
N108 C109 1.244 . S
C109 N108 1.244 . S
H110 C113 0.929 . S
H111 C116 0.929 . S
H112 C118 0.930 . S
C113 H110 0.929 . S
C113 C114 1.398 . S
C113 C115 1.396 . S
C114 C113 1.398 . S
C114 C118 1.407 . S
C115 C113 1.396 . S
C115 C116 1.394 . S
C116 H111 0.929 . S
C116 C115 1.394 . S
C116 C117 1.382 . S
C117 C116 1.382 . S
C117 C118 1.392 . S
C117 N119 1.420 . S
C118 H112 0.930 . S
C118 C114 1.407 . S
C118 C117 1.392 . S
N119 C117 1.420 . S
N119 C120 1.244 . S
C120 N119 1.244 . S
H121 C124 0.929 . S
H122 C127 0.929 . S
H123 C129 0.930 . S
C124 H121 0.929 . S
C124 C125 1.398 . S
C124 C126 1.396 . S
C125 C124 1.398 . S
C125 C129 1.407 . S
C126 C124 1.396 . S
C126 C127 1.394 . S
C127 H122 0.929 . S
C127 C126 1.394 . S
C127 C128 1.382 . S
C128 C127 1.382 . S
C128 C129 1.392 . S
C128 N130 1.420 . S
C129 H123 0.930 . S
C129 C125 1.407 . S
C129 C128 1.392 . S
N130 C128 1.420 . S
N130 C131 1.244 . S
C131 N130 1.244 . S
H132 C135 0.929 . S
H133 C138 0.929 . S
H134 C140 0.930 . S
C135 H132 0.929 . S
C135 C136 1.398 . S
C135 C137 1.396 . S
C136 C135 1.398 . S
C136 C140 1.407 . S
C137 C135 1.396 . S
C137 C138 1.394 . S
C138 H133 0.929 . S
C138 C137 1.394 . S
C138 C139 1.382 . S
C139 C138 1.382 . S
C139 C140 1.392 . S
C139 N141 1.420 . S
C140 H134 0.930 . S
C140 C136 1.407 . S
C140 C139 1.392 . S
N141 C139 1.420 . S
N141 C142 1.244 . S
C142 N141 1.244 . S
H143 C146 0.929 . S
H144 C149 0.929 . S
H145 C151 0.930 . S
C146 H143 0.929 . S
C146 C147 1.398 . S
C146 C148 1.396 . S
C147 C146 1.398 . S
C147 C151 1.407 . S
C148 C146 1.396 . S
C148 C149 1.394 . S
C149 H144 0.929 . S
C149 C148 1.394 . S
C149 C150 1.382 . S
C150 C149 1.382 . S
C150 C151 1.392 . S
C150 N152 1.420 . S
C151 H145 0.930 . S
C151 C147 1.407 . S
C151 C150 1.392 . S
N152 C150 1.420 . S
N152 C153 1.244 . S
C153 N152 1.244 . S
H154 C157 0.929 . S
H155 C160 0.929 . S
H156 C162 0.930 . S
C157 H154 0.929 . S
C157 C158 1.398 . S
C157 C159 1.396 . S
C158 C157 1.398 . S
C158 C162 1.407 . S
C159 C157 1.396 . S
C159 C160 1.394 . S
C160 H155 0.929 . S
C160 C159 1.394 . S
C160 C161 1.382 . S
C161 C160 1.382 . S
C161 C162 1.392 . S
C161 N163 1.420 . S
C162 H156 0.930 . S
C162 C158 1.407 . S
C162 C161 1.392 . S
N163 C161 1.420 . S
N163 C164 1.244 . S
C164 N163 1.244 . S
H165 C168 0.929 . S
H166 C171 0.929 . S
H167 C173 0.930 . S
C168 H165 0.929 . S
C168 C169 1.398 . S
C168 C170 1.396 . S
C169 C168 1.398 . S
C169 C173 1.407 . S
C170 C168 1.396 . S
C170 C171 1.394 . S
C171 H166 0.929 . S
C171 C170 1.394 . S
C171 C172 1.382 . S
C172 C171 1.382 . S
C172 C173 1.392 . S
C172 N174 1.420 . S
C173 H167 0.930 . S
C173 C169 1.407 . S
C173 C172 1.392 . S
N174 C172 1.420 . S
N174 C175 1.244 . S
C175 N174 1.244 . S
C176 C177 1.387 1_545 S
C176 H180 0.950 1_545 S
C176 C185 1.390 . S
C177 C176 1.387 1_565 S
C177 C179 1.387 . S
H178 C185 0.950 . S
C179 C177 1.387 . S
C179 C181 1.390 1_565 S
C179 H183 0.950 . S
H180 C176 0.950 1_565 S
C181 C179 1.390 1_545 S
C181 C182 1.387 . S
C181 H184 0.950 . S
C182 C181 1.387 . S
C182 C185 1.387 . S
H183 C179 0.950 . S
H184 C181 0.950 . S
C185 C176 1.390 . S
C185 H178 0.950 . S
C185 C182 1.387 . S
C186 C187 1.387 . S
C186 H190 0.950 . S
C186 C195 1.390 . S
C187 C186 1.387 . S
C187 C189 1.387 . S
H188 C195 0.950 . S
C189 C187 1.387 . S
C189 C191 1.390 . S
C189 H193 0.950 . S
H190 C186 0.950 . S
C191 C189 1.390 . S
C191 C192 1.387 . S
C191 H194 0.950 . S
C192 C191 1.387 . S
C192 C195 1.387 . S
H193 C189 0.950 . S
H194 C191 0.950 . S
C195 C186 1.390 . S
C195 H188 0.950 . S
C195 C192 1.387 . S
C196 C197 1.387 . S
C196 H200 0.950 . S
C196 C205 1.390 1_545 S
C197 C196 1.387 . S
C197 C199 1.387 1_545 S
H198 C205 0.950 . S
C199 C197 1.387 1_565 S
C199 C201 1.390 . S
C199 H203 0.950 . S
H200 C196 0.950 . S
C201 C199 1.390 . S
C201 C202 1.387 . S
C201 H204 0.950 . S
C202 C201 1.387 . S
C202 C205 1.387 . S
H203 C199 0.950 . S
H204 C201 0.950 . S
C205 C196 1.390 1_565 S
C205 H198 0.950 . S
C205 C202 1.387 . S
C206 C207 1.387 . S
C206 H210 0.950 . S
C206 C215 1.390 . S
C207 C206 1.387 . S
C207 C209 1.387 . S
H208 C215 0.950 . S
C209 C207 1.387 . S
C209 C211 1.390 . S
C209 H213 0.950 . S
H210 C206 0.950 . S
C211 C209 1.390 . S
C211 C212 1.387 . S
C211 H214 0.950 . S
C212 C211 1.387 . S
C212 C215 1.387 . S
H213 C209 0.950 . S
H214 C211 0.950 . S
C215 C206 1.390 . S
C215 H208 0.950 . S
C215 C212 1.387 . S
C216 C217 1.387 . S
C216 H220 0.950 . S
C216 C225 1.390 . S
C217 C216 1.387 . S
C217 C219 1.387 . S
H218 C225 0.950 . S
C219 C217 1.387 . S
C219 C221 1.390 . S
C219 H223 0.950 . S
H220 C216 0.950 . S
C221 C219 1.390 . S
C221 C222 1.387 . S
C221 H224 0.950 . S
C222 C221 1.387 . S
C222 C225 1.387 . S
H223 C219 0.950 . S
H224 C221 0.950 . S
C225 C216 1.390 . S
C225 H218 0.950 . S
C225 C222 1.387 . S
C226 C227 1.387 . S
C226 H230 0.950 . S
C226 C235 1.390 . S
C227 C226 1.387 . S
C227 C229 1.387 . S
H228 C235 0.950 . S
C229 C227 1.387 . S
C229 C231 1.390 . S
C229 H233 0.950 . S
H230 C226 0.950 . S
C231 C229 1.390 . S
C231 C232 1.387 . S
C231 H234 0.950 . S
C232 C231 1.387 . S
C232 C235 1.387 . S
H233 C229 0.950 . S
H234 C231 0.950 . S
C235 C226 1.390 . S
C235 H228 0.950 . S
C235 C232 1.387 . S
C236 C237 1.387 . S
C236 H240 0.950 . S
C236 C245 1.390 . S
C237 C236 1.387 . S
C237 C239 1.387 . S
H238 C245 0.950 . S
C239 C237 1.387 . S
C239 C241 1.390 . S
C239 H243 0.950 . S
H240 C236 0.950 . S
C241 C239 1.390 . S
C241 C242 1.387 . S
C241 H244 0.950 . S
C242 C241 1.387 . S
C242 C245 1.387 . S
H243 C239 0.950 . S
H244 C241 0.950 . S
C245 C236 1.390 . S
C245 H238 0.950 . S
C245 C242 1.387 . S
C246 C247 1.387 . S
C246 H250 0.950 . S
C246 C255 1.390 1_455 S
C247 C246 1.387 . S
C247 C249 1.387 . S
H248 C255 0.950 . S
C249 C247 1.387 . S
C249 C251 1.390 1_455 S
C249 H253 0.950 . S
H250 C246 0.950 . S
C251 C249 1.390 1_655 S
C251 C252 1.387 . S
C251 H254 0.950 . S
C252 C251 1.387 . S
C252 C255 1.387 . S
H253 C249 0.950 . S
H254 C251 0.950 . S
C255 C246 1.390 1_655 S
C255 H248 0.950 . S
C255 C252 1.387 . S
C256 C257 1.387 . S
C256 H260 0.950 . S
C256 C265 1.390 1_545 S
C257 C256 1.387 . S
C257 C259 1.387 1_545 S
H258 C265 0.950 . S
C259 C257 1.387 1_565 S
C259 C261 1.390 . S
C259 H263 0.950 . S
H260 C256 0.950 . S
C261 C259 1.390 . S
C261 C262 1.387 . S
C261 H264 0.950 . S
C262 C261 1.387 . S
C262 C265 1.387 . S
H263 C259 0.950 . S
H264 C261 0.950 . S
C265 C256 1.390 1_565 S
C265 H258 0.950 . S
C265 C262 1.387 . S
C266 C267 1.387 . S
C266 H270 0.950 . S
C266 C275 1.390 . S
C267 C266 1.387 . S
C267 C269 1.387 . S
H268 C275 0.950 . S
C269 C267 1.387 . S
C269 C271 1.390 . S
C269 H273 0.950 . S
H270 C266 0.950 . S
C271 C269 1.390 . S
C271 C272 1.387 . S
C271 H274 0.950 . S
C272 C271 1.387 . S
C272 C275 1.387 . S
H273 C269 0.950 . S
H274 C271 0.950 . S
C275 C266 1.390 . S
C275 H268 0.950 . S
C275 C272 1.387 . S
C276 C277 1.387 . S
C276 H280 0.950 . S
C276 C285 1.390 1_565 S
C277 C276 1.387 . S
C277 C279 1.387 1_565 S
H278 C285 0.950 . S
C279 C277 1.387 1_545 S
C279 C281 1.390 . S
C279 H283 0.950 1_556 S
H280 C276 0.950 . S
C281 C279 1.390 . S
C281 C282 1.387 . S
C281 H284 0.950 . S
C282 C281 1.387 . S
C282 C285 1.387 . S
H283 C279 0.950 1_554 S
H284 C281 0.950 . S
C285 C276 1.390 1_545 S
C285 H278 0.950 . S
C285 C282 1.387 . S
C286 C287 1.387 . S
C286 H290 0.950 . S
C286 C295 1.390 . S
C287 C286 1.387 . S
C287 C289 1.387 . S
H288 C295 0.950 . S
C289 C287 1.387 . S
C289 C291 1.390 . S
C289 H293 0.950 . S
H290 C286 0.950 . S
C291 C289 1.390 . S
C291 C292 1.387 . S
C291 H294 0.950 . S
C292 C291 1.387 . S
C292 C295 1.387 . S
H293 C289 0.950 . S
H294 C291 0.950 . S
C295 C286 1.390 . S
C295 H288 0.950 . S
C295 C292 1.387 . S
C296 C297 1.387 . S
C296 H300 0.950 . S
C296 C305 1.390 . S
C297 C296 1.387 . S
C297 C299 1.387 . S
H298 C305 0.950 . S
C299 C297 1.387 . S
C299 C301 1.390 . S
C299 H303 0.950 . S
H300 C296 0.950 . S
C301 C299 1.390 . S
C301 C302 1.387 . S
C301 H304 0.950 . S
C302 C301 1.387 . S
C302 C305 1.387 . S
H303 C299 0.950 . S
H304 C301 0.950 . S
C305 C296 1.390 . S
C305 H298 0.950 . S
C305 C302 1.387 . S
C306 C307 1.387 . S
C306 H310 0.950 . S
C306 C315 1.390 . S
C307 C306 1.387 . S
C307 C309 1.387 . S
H308 C315 0.950 . S
C309 C307 1.387 . S
C309 C311 1.390 . S
C309 H313 0.950 . S
H310 C306 0.950 . S
C311 C309 1.390 . S
C311 C312 1.387 . S
C311 H314 0.950 . S
C312 C311 1.387 . S
C312 C315 1.387 . S
H313 C309 0.950 . S
H314 C311 0.950 . S
C315 C306 1.390 . S
C315 H308 0.950 . S
C315 C312 1.387 . S
C316 C317 1.387 . S
C316 H320 0.950 . S
C316 C325 1.390 . S
C317 C316 1.387 . S
C317 C319 1.387 . S
H318 C325 0.950 . S
C319 C317 1.387 . S
C319 C321 1.390 . S
C319 H323 0.950 . S
H320 C316 0.950 . S
C321 C319 1.390 . S
C321 C322 1.387 . S
C321 H324 0.950 . S
C322 C321 1.387 . S
C322 C325 1.387 . S
H323 C319 0.950 . S
H324 C321 0.950 . S
C325 C316 1.390 . S
C325 H318 0.950 . S
C325 C322 1.387 . S
C326 C327 1.387 . S
C326 H330 0.950 . S
C326 C335 1.390 1_655 S
C327 C326 1.387 . S
C327 C329 1.387 . S
H328 C335 0.950 . S
C329 C327 1.387 . S
C329 C331 1.390 1_655 S
C329 H333 0.950 . S
H330 C326 0.950 . S
C331 C329 1.390 1_455 S
C331 C332 1.387 . S
C331 H334 0.950 . S
C332 C331 1.387 . S
C332 C335 1.387 . S
H333 C329 0.950 . S
H334 C331 0.950 . S
C335 C326 1.390 1_455 S
C335 H328 0.950 . S
C335 C332 1.387 . S
C336 C337 1.387 . S
C336 H340 0.950 . S
C336 C345 1.390 . S
C337 C336 1.387 . S
C337 C339 1.387 . S
H338 C345 0.950 . S
C339 C337 1.387 . S
C339 C341 1.390 . S
C339 H343 0.950 . S
H340 C336 0.950 . S
C341 C339 1.390 . S
C341 C342 1.387 . S
C341 H344 0.950 . S
C342 C341 1.387 . S
C342 C345 1.387 . S
H343 C339 0.950 . S
H344 C341 0.950 . S
C345 C336 1.390 . S
C345 H338 0.950 . S
C345 C342 1.387 . S
C346 C347 1.387 . S
C346 H350 0.950 . S
C346 C355 1.390 . S
C347 C346 1.387 . S
C347 C349 1.387 . S
H348 C355 0.950 . S
C349 C347 1.387 . S
C349 C351 1.390 . S
C349 H353 0.950 . S
H350 C346 0.950 . S
C351 C349 1.390 . S
C351 C352 1.387 . S
C351 H354 0.950 . S
C352 C351 1.387 . S
C352 C355 1.387 . S
H353 C349 0.950 . S
H354 C351 0.950 . S
C355 C346 1.390 . S
C355 H348 0.950 . S
C355 C352 1.387 . S
C356 C357 1.387 . S
C356 H360 0.950 . S
C356 C365 1.390 . S
C357 C356 1.387 . S
C357 C359 1.387 . S
H358 C365 0.950 . S
C359 C357 1.387 . S
C359 C361 1.390 . S
C359 H363 0.950 . S
H360 C356 0.950 . S
C361 C359 1.390 . S
C361 C362 1.387 . S
C361 H364 0.950 . S
C362 C361 1.387 . S
C362 C365 1.387 . S
H363 C359 0.950 . S
H364 C361 0.950 . S
C365 C356 1.390 . S
C365 H358 0.950 . S
C365 C362 1.387 . S
C366 C367 1.387 . S
C366 H370 0.950 . S
C366 C375 1.390 . S
C367 C366 1.387 . S
C367 C369 1.387 . S
H368 C375 0.950 . S
C369 C367 1.387 . S
C369 C371 1.390 . S
C369 H373 0.950 . S
H370 C366 0.950 . S
C371 C369 1.390 . S
C371 C372 1.387 . S
C371 H374 0.950 . S
C372 C371 1.387 . S
C372 C375 1.387 . S
H373 C369 0.950 . S
H374 C371 0.950 . S
C375 C366 1.390 . S
C375 H368 0.950 . S
C375 C372 1.387 . S
C376 C377 1.387 . S
C376 H380 0.950 . S
C376 C385 1.390 . S
C377 C376 1.387 . S
C377 C379 1.387 . S
H378 C385 0.950 . S
C379 C377 1.387 . S
C379 C381 1.390 . S
C379 H383 0.950 . S
H380 C376 0.950 . S
C381 C379 1.390 . S
C381 C382 1.387 . S
C381 H384 0.950 . S
C382 C381 1.387 . S
C382 C385 1.387 . S
H383 C379 0.950 . S
H384 C381 0.950 . S
C385 C376 1.390 . S
C385 H378 0.950 . S
C385 C382 1.387 . S
C386 C387 1.387 . S
C386 H390 0.950 . S
C386 C395 1.390 . S
C387 C386 1.387 . S
C387 C389 1.387 . S
H388 C395 0.950 . S
C389 C387 1.387 . S
C389 C391 1.390 . S
C389 H393 0.950 . S
H390 C386 0.950 . S
C391 C389 1.390 . S
C391 C392 1.387 . S
C391 H394 0.950 . S
C392 C391 1.387 . S
C392 C395 1.387 . S
H393 C389 0.950 . S
H394 C391 0.950 . S
C395 C386 1.390 . S
C395 H388 0.950 . S
C395 C392 1.387 . S
C396 C397 1.387 . S
C396 H400 0.950 . S
C396 C405 1.390 . S
C397 C396 1.387 . S
C397 C399 1.387 . S
H398 C405 0.950 . S
C399 C397 1.387 . S
C399 C401 1.390 . S
C399 H403 0.950 . S
H400 C396 0.950 . S
C401 C399 1.390 . S
C401 C402 1.387 . S
C401 H404 0.950 . S
C402 C401 1.387 . S
C402 C405 1.387 . S
H403 C399 0.950 . S
H404 C401 0.950 . S
C405 C396 1.390 . S
C405 H398 0.950 . S
C405 C402 1.387 . S
C406 C407 1.387 . S
C406 H410 0.950 . S
C406 C415 1.390 . S
C407 C406 1.387 . S
C407 C409 1.387 . S
H408 C415 0.950 . S
C409 C407 1.387 . S
C409 C411 1.390 . S
C409 H413 0.950 . S
H410 C406 0.950 . S
C411 C409 1.390 . S
C411 C412 1.387 . S
C411 H414 0.950 . S
C412 C411 1.387 . S
C412 C415 1.387 . S
H413 C409 0.950 . S
H414 C411 0.950 . S
C415 C406 1.390 . S
C415 H408 0.950 . S
C415 C412 1.387 . S
C177 C7 1.510 . S
C182 C93 1.437 . S
C187 C37 1.483 . S
C192 C104 1.380 . S
C197 C54 1.416 . S
C202 C114 1.344 . S
C212 C126 1.424 . S
C207 C87 1.440 . S
C222 C137 1.407 . S
C217 C30 1.485 . S
C227 C51 1.449 1_455 S
C232 C148 1.430 . S
C237 C84 1.449 . S
C242 C158 1.370 . S
C247 C10 1.456 . S
C252 C170 1.353 . S
C257 C59 1.392 . S
C262 C169 1.360 . S
C272 C136 1.238 . S
C267 C74 1.290 . S
C282 C147 1.354 . S
C277 C18 1.416 . S
C287 C32 1.451 . S
C292 C159 1.410 . S
C302 C103 1.357 . S
C297 C73 1.390 . S
C307 C15 1.449 1_655 S
C312 C115 1.426 . S
C322 C125 1.384 . S
C317 C43 1.430 . S
C332 C92 1.245 . S
C327 C62 1.295 . S
C342 C164 1.482 . S
C337 C21 1.518 . S
C352 C175 1.475 . S
C347 C29 1.470 . S
C357 C52 1.409 . S
C362 C142 1.398 . S
C372 C153 1.436 . S
C367 C81 1.475 . S
C382 C120 1.463 . S
C377 C40 1.492 . S
C387 C65 1.473 . S
C392 C131 1.433 . S
C402 C98 1.406 . S
C397 C76 1.416 . S
C412 C109 1.477 . S
C407 C8 1.485 . S
