# Generated by pormake.
# Topology ssa, (4,4)-cn, num edge types: 1
# Building blocks:
#     Node 0, Type 0, BuildingBlock: KUFVIS_clean_linker_0, # of connection points: 4
#     Node 1, Type 0, BuildingBlock: KUFVIS_clean_linker_0, # of connection points: 4
#     Node 2, Type 0, BuildingBlock: KUFVIS_clean_linker_0, # of connection points: 4
#     Node 3, Type 0, BuildingBlock: KUFVIS_clean_linker_0, # of connection points: 4
#     Node 4, Type 0, BuildingBlock: KUFVIS_clean_linker_0, # of connection points: 4
#     Node 5, Type 0, BuildingBlock: KUFVIS_clean_linker_0, # of connection points: 4
#     Node 6, Type 1, BuildingBlock: MUDLON_clean_sbu_0, # of connection points: 4
#     Node 7, Type 1, BuildingBlock: MUDLON_clean_sbu_0, # of connection points: 4
#     Node 8, Type 1, BuildingBlock: MUDLON_clean_sbu_0, # of connection points: 4
#     Node 9, Type 1, BuildingBlock: MUDLON_clean_sbu_0, # of connection points: 4
#     Node 10, Type 1, BuildingBlock: MUDLON_clean_sbu_0, # of connection points: 4
#     Node 11, Type 1, BuildingBlock: MUDLON_clean_sbu_0, # of connection points: 4
#     Edge 12, Type (0, 1), BuildingBlock: ZUJKAS_clean_linker_0, # of connection points: 2
#     Edge 13, Type (0, 1), BuildingBlock: ZUJKAS_clean_linker_0, # of connection points: 2
#     Edge 14, Type (0, 1), BuildingBlock: ZUJKAS_clean_linker_0, # of connection points: 2
#     Edge 15, Type (0, 1), BuildingBlock: ZUJKAS_clean_linker_0, # of connection points: 2
#     Edge 16, Type (0, 1), BuildingBlock: ZUJKAS_clean_linker_0, # of connection points: 2
#     Edge 17, Type (0, 1), BuildingBlock: ZUJKAS_clean_linker_0, # of connection points: 2
#     Edge 18, Type (0, 1), BuildingBlock: ZUJKAS_clean_linker_0, # of connection points: 2
#     Edge 19, Type (0, 1), BuildingBlock: ZUJKAS_clean_linker_0, # of connection points: 2
#     Edge 20, Type (0, 1), BuildingBlock: ZUJKAS_clean_linker_0, # of connection points: 2
#     Edge 21, Type (0, 1), BuildingBlock: ZUJKAS_clean_linker_0, # of connection points: 2
#     Edge 22, Type (0, 1), BuildingBlock: ZUJKAS_clean_linker_0, # of connection points: 2
#     Edge 23, Type (0, 1), BuildingBlock: ZUJKAS_clean_linker_0, # of connection points: 2
#     Edge 24, Type (0, 1), BuildingBlock: ZUJKAS_clean_linker_0, # of connection points: 2
#     Edge 25, Type (0, 1), BuildingBlock: ZUJKAS_clean_linker_0, # of connection points: 2
#     Edge 26, Type (0, 1), BuildingBlock: ZUJKAS_clean_linker_0, # of connection points: 2
#     Edge 27, Type (0, 1), BuildingBlock: ZUJKAS_clean_linker_0, # of connection points: 2
#     Edge 28, Type (0, 1), BuildingBlock: ZUJKAS_clean_linker_0, # of connection points: 2
#     Edge 29, Type (0, 1), BuildingBlock: ZUJKAS_clean_linker_0, # of connection points: 2
#     Edge 30, Type (0, 1), BuildingBlock: ZUJKAS_clean_linker_0, # of connection points: 2
#     Edge 31, Type (0, 1), BuildingBlock: ZUJKAS_clean_linker_0, # of connection points: 2
#     Edge 32, Type (0, 1), BuildingBlock: ZUJKAS_clean_linker_0, # of connection points: 2
#     Edge 33, Type (0, 1), BuildingBlock: ZUJKAS_clean_linker_0, # of connection points: 2
#     Edge 34, Type (0, 1), BuildingBlock: ZUJKAS_clean_linker_0, # of connection points: 2
#     Edge 35, Type (0, 1), BuildingBlock: ZUJKAS_clean_linker_0, # of connection points: 2
# Relax obj value: 0.001
# Max RMSD: 0.051
# Mean RMSD: 0.029
data_MOF--net-ssa--node1-MUDLON_clean_sbu_0--node2-KUFVIS_clean_linker_0--edge1-ZUJKAS_clean_linker_0
_symmetry_space_group_name_H-M    P1
_symmetry_Int_Tables_number       1
_symmetry_cell_setting            triclinic
loop_
_symmetry_equiv_pos_as_xyz
'x, y, z'
_cell_length_a     57.02328
_cell_length_b     56.968002
_cell_length_c     53.104346
_cell_angle_alpha  90.333345
_cell_angle_beta   90.432171
_cell_angle_gamma 120.08141
loop_
_atom_site_label
_atom_site_type_symbol
_atom_site_fract_x
_atom_site_fract_y
_atom_site_fract_z
_atom_type_partial_charge
H0 H 0.9565 0.45528 0.95829 0.0
H1 H 0.98622 0.50792 1.02271 0.0
H2 H 1.00536 0.44364 1.01281 0.0
H3 H 0.01078 0.44752 0.05435 0.0
H4 H 0.06146 0.51184 0.1056 0.0
H5 H 0.02636 0.52936 0.04213 0.0
C6 C 0.96849 0.46154 0.97556 0.0
C7 C 0.98027 0.44666 0.98425 0.0
C8 C 0.97086 0.48367 0.98918 0.0
C9 C 0.98536 0.49122 1.01211 0.0
C10 C 0.99868 0.47746 1.02108 0.0
C11 C 0.99555 0.45476 1.00687 0.0
C12 C 0.01589 0.48698 0.04488 0.0
C13 C 0.02036 0.46878 0.05949 0.0
C14 C 0.03676 0.47767 0.08136 0.0
C15 C 0.04869 0.50491 0.08884 0.0
C16 C 0.04478 0.52351 0.07499 0.0
C17 C 0.02842 0.51452 0.05306 0.0
H18 H 0.51484 0.05978 0.61039 0.0
H19 H 0.4508 0.01112 0.55823 0.0
H20 H 0.53168 0.02375 0.54715 0.0
H21 H 0.50878 0.98263 0.5291 0.0
H22 H 0.45551 0.95148 0.46519 0.0
H23 H 0.44776 0.00576 0.51615 0.0
C24 C 0.50803 0.04741 0.59336 0.0
C25 C 0.52634 0.0429 0.57975 0.0
C26 C 0.48106 0.03631 0.5855 0.0
C27 C 0.47194 0.02006 0.5636 0.0
C28 C 0.48976 0.01475 0.54936 0.0
C29 C 0.51716 0.02654 0.55781 0.0
C30 C 0.47982 0.99693 0.52599 0.0
C31 C 0.49242 0.98209 0.51817 0.0
C32 C 0.48373 0.966 0.4962 0.0
C33 C 0.46217 0.96414 0.48206 0.0
C34 C 0.44895 0.97809 0.48927 0.0
C35 C 0.45774 0.9945 0.51121 0.0
H36 H 0.46429 0.55872 0.08064 0.0
H37 H 0.44818 0.49353 0.03035 0.0
H38 H 0.52945 0.56367 0.03792 0.0
H39 H 0.53831 0.55273 1.00235 0.0
H40 H 0.528 0.48403 0.96048 0.0
H41 H 0.46596 0.47371 1.0112 0.0
C42 C 0.47127 0.55007 0.06628 0.0
C43 C 0.49835 0.56415 0.05935 0.0
C44 C 0.45349 0.52439 0.05638 0.0
C45 C 0.46279 0.51308 0.03808 0.0
C46 C 0.4903 0.52708 0.03008 0.0
C47 C 0.50803 0.55261 0.04178 0.0
C48 C 0.50062 0.51508 1.01029 0.0
C49 C 0.52608 0.53127 0.99845 0.0
C50 C 0.53641 0.51987 0.9813 0.0
C51 C 0.52059 0.4925 0.97459 0.0
C52 C 0.495 0.47613 0.98488 0.0
C53 C 0.48528 0.48727 1.00292 0.0
H54 H 0.96376 0.51993 0.60929 0.0
H55 H 0.02695 0.58258 0.56621 0.0
H56 H 1.00018 0.49795 0.55028 0.0
H57 H 0.04323 0.51503 0.53759 0.0
H58 H 0.08994 0.57197 0.48062 0.0
H59 H 0.03621 0.5866 0.52488 0.0
C60 C 0.97826 0.52582 0.59414 0.0
C61 C 0.98019 0.50586 0.58043 0.0
C62 C 0.99479 0.55331 0.58893 0.0
C63 C 0.01386 0.56114 0.56954 0.0
C64 C 0.0165 0.54142 0.55527 0.0
C65 C 0.99932 0.51366 0.56107 0.0
C66 C 0.03696 0.54975 0.53445 0.0
C67 C 0.04854 0.53355 0.52767 0.0
C68 C 0.06777 0.54165 0.50834 0.0
C69 C 0.07537 0.56579 0.49575 0.0
C70 C 0.06425 0.58195 0.5018 0.0
C71 C 0.04506 0.57404 0.52099 0.0
H72 H 0.52218 0.96076 0.10847 0.0
H73 H 0.50192 1.00269 0.05355 0.0
H74 H 0.58577 0.02469 0.06642 0.0
H75 H 0.58717 0.03334 1.02363 0.0
H76 H 0.57664 0.09355 0.98562 0.0
H77 H 0.5219 0.04781 0.04433 0.0
C78 C 0.52856 0.97621 0.09412 0.0
C79 C 0.55604 0.99206 0.08864 0.0
C80 C 0.50917 0.98017 0.08172 0.0
C81 C 0.51732 1.00029 0.0633 0.0
C82 C 0.54504 0.0166 0.05711 0.0
C83 C 0.56434 0.01221 0.07015 0.0
C84 C 0.55372 0.038 0.03719 0.0
C85 C 0.57632 0.04432 1.0218 0.0
C86 C 0.58463 0.06456 1.00347 0.0
C87 C 0.57041 0.07833 1.0002 0.0
C88 C 0.54767 0.07212 1.01448 0.0
C89 C 0.53929 0.05204 0.03305 0.0
H90 H 0.55074 0.46467 0.59307 0.0
H91 H 0.56547 0.52022 0.53326 0.0
H92 H 0.48306 0.46073 0.55364 0.0
H93 H 0.47602 0.46299 0.51152 0.0
H94 H 0.48494 0.52836 0.46533 0.0
H95 H 0.54524 0.54383 0.52166 0.0
C96 C 0.54295 0.47202 0.57822 0.0
C97 C 0.51505 0.46 0.57459 0.0
C98 C 0.561 0.49386 0.56372 0.0
C99 C 0.55103 0.50367 0.54468 0.0
C100 C 0.52271 0.49172 0.54025 0.0
C101 C 0.5048 0.46986 0.55578 0.0
C102 C 0.51201 0.502 0.51957 0.0
C103 C 0.48732 0.48428 0.50683 0.0
C104 C 0.47755 0.49368 0.48717 0.0
C105 C 0.49243 0.52102 0.48041 0.0
C106 C 0.5169 0.53909 0.49253 0.0
C107 C 0.52662 0.52953 0.51207 0.0
Mg108 Mg 0.22421 0.44405 0.2924 0.0
C109 C 0.18816 0.41308 0.24695 0.0
O110 O 0.21147 0.41837 0.23742 0.0
C111 C 0.26154 0.44673 0.3305 0.0
O112 O 0.26754 0.47159 0.32505 0.0
C113 C 0.18946 0.45079 0.32825 0.0
O114 O 0.17711 0.42481 0.32246 0.0
O115 O 0.21181 0.46657 0.31749 0.0
O116 O 0.18728 0.41843 0.27014 0.0
O117 O 0.25592 0.46586 0.26435 0.0
C118 C 0.26859 0.45357 0.25819 0.0
O119 O 0.26282 0.43116 0.27005 0.0
O120 O 0.24155 0.42721 0.3189 0.0
Mg121 Mg 0.79254 0.23142 0.76671 0.0
C122 C 0.75731 0.17357 0.74294 0.0
O123 O 0.75336 0.16536 0.7664 0.0
C124 C 0.82655 0.23497 0.81265 0.0
O125 O 0.80238 0.21818 0.82145 0.0
C126 C 0.73706 0.20708 0.7924 0.0
O127 O 0.7274 0.1979 0.76969 0.0
O128 O 0.76226 0.22374 0.79528 0.0
O129 O 0.77426 0.19835 0.73846 0.0
O130 O 0.80717 0.26781 0.74398 0.0
C131 C 0.82776 0.27175 0.7314 0.0
O132 O 0.83643 0.25442 0.73395 0.0
O133 O 0.82878 0.24078 0.78931 0.0
Mg134 Mg 0.57443 0.79275 0.29529 0.0
C135 C 0.60874 0.83121 0.25297 0.0
O136 O 0.60544 0.80874 0.24262 0.0
C137 C 0.57107 0.75138 0.32853 0.0
O138 O 0.54705 0.74257 0.31814 0.0
C139 C 0.54959 0.82469 0.31633 0.0
O140 O 0.5637 0.84065 0.29787 0.0
O141 O 0.54819 0.80175 0.31837 0.0
O142 O 0.60138 0.83067 0.27566 0.0
O143 O 0.55478 0.76096 0.26655 0.0
C144 C 0.54619 0.7631 0.24499 0.0
O145 O 0.5459 0.78541 0.23948 0.0
O146 O 0.59016 0.77483 0.3224 0.0
Mg147 Mg 0.79387 0.57268 0.79018 0.0
C148 C 0.77087 0.54859 0.73832 0.0
O149 O 0.79677 0.56043 0.73299 0.0
C150 C 0.81419 0.56235 0.83788 0.0
O151 O 0.81364 0.58473 0.84258 0.0
C152 C 0.74973 0.56846 0.82022 0.0
O153 O 0.74313 0.54379 0.81291 0.0
O154 O 0.77241 0.58807 0.81311 0.0
O155 O 0.76394 0.54831 0.76111 0.0
O156 O 0.83002 0.60052 0.76871 0.0
C157 C 0.85177 0.59972 0.77203 0.0
O158 O 0.85334 0.58612 0.79122 0.0
O159 O 0.80575 0.55084 0.81644 0.0
Mg160 Mg 0.23761 0.79069 0.2684 0.0
C161 C 0.19714 0.74459 0.23834 0.0
O162 O 0.21199 0.73621 0.24994 0.0
C163 C 0.26828 0.84775 0.29024 0.0
O164 O 0.28457 0.84992 0.27192 0.0
C165 C 0.23531 0.76751 0.32049 0.0
O166 O 0.25152 0.7932 0.32624 0.0
O167 O 0.22921 0.76065 0.29747 0.0
O168 O 0.20246 0.76889 0.24249 0.0
O169 O 0.27383 0.80344 0.24567 0.0
C170 C 0.27179 0.80698 0.22227 0.0
O171 O 0.24785 0.80027 0.21283 0.0
O172 O 0.24502 0.82635 0.2912 0.0
Mg173 Mg 0.44985 0.22733 0.80187 0.0
C174 C 0.42407 0.1916 0.75552 0.0
O175 O 0.42963 0.21508 0.74608 0.0
C176 C 0.41759 0.25458 0.82 0.0
O177 O 0.41699 0.25976 0.796 0.0
C178 C 0.47467 0.2225 0.85105 0.0
O179 O 0.46267 0.23562 0.8591 0.0
O180 O 0.4748 0.21831 0.82744 0.0
O181 O 0.42771 0.19022 0.77905 0.0
O182 O 0.47053 0.25972 0.77428 0.0
C183 C 0.47765 0.28449 0.77826 0.0
O184 O 0.47671 0.2925 0.80129 0.0
O185 O 0.42691 0.23933 0.82649 0.0
H186 H 0.03329 0.47058 0.13222 0.0
H187 H 0.0526 0.44862 0.15768 0.0
H188 H 0.07402 0.4218 0.09008 0.0
H189 H 0.05497 0.44416 0.06441 0.0
H190 H 0.04541 0.39475 0.16052 0.0
H191 H 0.14731 0.47195 0.1265 0.0
H192 H 0.11774 0.47531 0.12195 0.0
H193 H 0.12251 0.45205 0.1027 0.0
C194 C 0.04166 0.45956 0.12277 0.0
C195 C 0.0429 0.45934 0.09632 0.0
C196 C 0.05262 0.44696 0.13735 0.0
C197 C 0.06518 0.43398 0.12581 0.0
C198 C 0.06474 0.43203 0.09938 0.0
H199 H 0.18246 0.39866 0.19712 0.0
H200 H 0.14957 0.39803 0.16694 0.0
C201 C 0.05364 0.44458 0.08473 0.0
C202 C 0.08088 0.42499 0.14153 0.0
H203 H 0.14569 0.4414 0.15664 0.0
C204 C 0.06732 0.40471 0.15952 0.0
C205 C 0.10947 0.43808 0.14028 0.0
C206 C 0.12526 0.4607 0.12199 0.0
C207 C 0.08163 0.39731 0.1764 0.0
C208 C 0.11031 0.41101 0.17566 0.0
C209 C 0.12373 0.43079 0.15721 0.0
C210 C 0.12713 0.40659 0.19461 0.0
C211 C 0.06584 0.37485 0.19478 0.0
C212 C 0.12511 0.41084 0.22042 0.0
C213 C 0.14377 0.41094 0.23781 0.0
C214 C 0.16515 0.40723 0.2297 0.0
C215 C 0.1663 0.40163 0.20404 0.0
C216 C 0.14752 0.40132 0.18672 0.0
H217 H 0.04508 0.36063 0.1875 0.0
H218 H 0.07621 0.36318 0.19887 0.0
H219 H 0.06381 0.38377 0.21269 0.0
H220 H 0.11002 0.41559 0.22701 0.0
H221 H 0.14237 0.41555 0.25737 0.0
H222 H 0.55622 0.01817 0.58984 0.0
H223 H 0.59899 0.0375 0.61418 0.0
H224 H 0.60282 0.11499 0.61646 0.0
H225 H 0.56035 0.09587 0.59237 0.0
H226 H 0.65404 0.08612 0.60876 0.0
H227 H 0.59799 0.09156 0.69151 0.0
H228 H 0.58104 0.07145 0.66381 0.0
H229 H 0.59459 0.10753 0.66374 0.0
C230 C 0.56662 0.03949 0.59496 0.0
C231 C 0.55481 0.05544 0.58939 0.0
C232 C 0.59097 0.05049 0.60897 0.0
C233 C 0.60384 0.07757 0.61758 0.0
C234 C 0.59305 0.09395 0.61042 0.0
H235 H 0.75629 0.18561 0.69302 0.0
H236 H 0.72037 0.15989 0.66194 0.0
C237 C 0.56881 0.08301 0.59657 0.0
C238 C 0.62718 0.08836 0.63566 0.0
H239 H 0.64583 0.11374 0.69554 0.0
C240 C 0.65225 0.092 0.62779 0.0
C241 C 0.62477 0.09569 0.66063 0.0
C242 C 0.59811 0.09117 0.67059 0.0
C243 C 0.67515 0.1036 0.64399 0.0
C244 C 0.67297 0.11197 0.66864 0.0
C245 C 0.64765 0.10751 0.67666 0.0
C246 C 0.69661 0.12598 0.68638 0.0
C247 C 0.70141 0.10662 0.63463 0.0
C248 C 0.69548 0.11558 0.71056 0.0
C249 C 0.71599 0.13032 0.72846 0.0
C250 C 0.73808 0.15599 0.72271 0.0
C251 C 0.73971 0.16588 0.69814 0.0
C252 C 0.71919 0.15109 0.68023 0.0
H253 H 0.69794 0.09245 0.61872 0.0
H254 H 0.71445 0.12761 0.62783 0.0
H255 H 0.7125 0.10291 0.64993 0.0
H256 H 0.67826 0.09633 0.71584 0.0
H257 H 0.71391 0.12204 0.74715 0.0
H258 H 0.5034 0.61291 0.0489 0.0
H259 H 0.51774 0.65059 0.07895 0.0
H260 H 0.54389 0.61028 0.13103 0.0
H261 H 0.52952 0.57258 0.10089 0.0
H262 H 0.50269 0.62014 0.1488 0.0
H263 H 0.58851 0.71377 0.10962 0.0
H264 H 0.56075 0.69444 0.08812 0.0
H265 H 0.58057 0.68017 0.0996 0.0
C266 C 0.51359 0.61288 0.06619 0.0
C267 C 0.51595 0.59022 0.07243 0.0
C268 C 0.52163 0.63432 0.08343 0.0
C269 C 0.532 0.63331 0.10721 0.0
C270 C 0.53615 0.61156 0.11271 0.0
H271 H 0.54971 0.71716 0.24934 0.0
H272 H 0.546 0.6859 0.21595 0.0
C273 C 0.52825 0.5902 0.09541 0.0
C274 C 0.53427 0.65241 0.12752 0.0
H275 H 0.56609 0.71934 0.14477 0.0
C276 C 0.51674 0.64182 0.14805 0.0
C277 C 0.55223 0.68068 0.12626 0.0
C278 C 0.57177 0.69303 0.10483 0.0
C279 C 0.51642 0.65873 0.16721 0.0
C280 C 0.53462 0.68703 0.16617 0.0
C281 C 0.55214 0.69766 0.14558 0.0
C282 C 0.53617 0.70581 0.18655 0.0
C283 C 0.49601 0.64615 0.188 0.0
C284 C 0.53227 0.72774 0.18115 0.0
C285 C 0.53457 0.74588 0.20027 0.0
C286 C 0.54095 0.7425 0.22514 0.0
C287 C 0.54452 0.7203 0.23048 0.0
C288 C 0.54233 0.7023 0.21138 0.0
H289 H 0.47856 0.62624 0.1821 0.0
H290 H 0.50588 0.64267 0.20451 0.0
H291 H 0.4882 0.65965 0.19397 0.0
H292 H 0.52758 0.73091 0.16211 0.0
H293 H 0.53189 0.76284 0.19543 0.0
H294 H 1.00363 0.56295 0.63909 0.0
H295 H 0.98498 0.58428 0.66629 0.0
H296 H 0.95668 0.60764 0.6008 0.0
H297 H 0.97532 0.58606 0.57346 0.0
H298 H 0.98871 0.63664 0.67088 0.0
H299 H 0.88684 0.55458 0.63875 0.0
H300 H 0.91731 0.55345 0.63246 0.0
H301 H 0.90973 0.57567 0.61482 0.0
C302 C 0.9943 0.57352 0.63051 0.0
C303 C 0.991 0.57301 0.60422 0.0
C304 C 0.98354 0.58559 0.64604 0.0
C305 C 0.96902 0.59715 0.63562 0.0
C306 C 0.96753 0.59855 0.60926 0.0
H307 H 0.84944 0.61612 0.72383 0.0
H308 H 0.87997 0.62205 0.68909 0.0
C309 C 0.97845 0.58653 0.59365 0.0
C310 C 0.95308 0.60471 0.65252 0.0
H311 H 0.88829 0.58266 0.67167 0.0
C312 C 0.96674 0.62514 0.67082 0.0
C313 C 0.92438 0.58972 0.65246 0.0
C314 C 0.90856 0.56699 0.63373 0.0
C315 C 0.95252 0.63046 0.68945 0.0
C316 C 0.92388 0.61449 0.69018 0.0
C317 C 0.91021 0.59495 0.67115 0.0
C318 C 0.90783 0.61553 0.7118 0.0
C319 C 0.96839 0.65296 0.70831 0.0
C320 C 0.9135 0.61041 0.73628 0.0
C321 C 0.89619 0.60713 0.75613 0.0
C322 C 0.87255 0.6086 0.75201 0.0
C323 C 0.86752 0.61502 0.72774 0.0
C324 C 0.88492 0.6183 0.70782 0.0
H325 H 0.98759 0.66905 0.70011 0.0
H326 H 0.95648 0.66228 0.71501 0.0
H327 H 0.97377 0.6446 0.72476 0.0
H328 H 0.93058 0.60748 0.73984 0.0
H329 H 0.90069 0.60213 0.77452 0.0
H330 H 0.47916 0.99535 0.10968 0.0
H331 H 0.4369 0.96488 0.13151 0.0
H332 H 0.43341 0.89613 0.0933 0.0
H333 H 0.47607 0.92652 0.07218 0.0
H334 H 0.38501 0.92692 0.11882 0.0
H335 H 0.43598 0.87788 0.16635 0.0
H336 H 0.45423 0.90829 0.14808 0.0
H337 H 0.43624 0.87564 0.13265 0.0
C338 C 0.46886 0.9738 0.10545 0.0
C339 C 0.48061 0.96318 0.08921 0.0
C340 C 0.44487 0.95639 0.11804 0.0
C341 C 0.43237 0.92814 0.11456 0.0
C342 C 0.44307 0.91777 0.09681 0.0
H343 H 0.27352 0.81039 0.1711 0.0
H344 H 0.31249 0.83911 0.14502 0.0
C345 C 0.46717 0.93512 0.08447 0.0
C346 C 0.40918 0.90952 0.13052 0.0
H347 H 0.3886 0.85774 0.1725 0.0
C348 C 0.38579 0.9118 0.13056 0.0
C349 C 0.41043 0.89019 0.14632 0.0
C350 C 0.43566 0.88798 0.14861 0.0
C351 C 0.36345 0.89497 0.14558 0.0
C352 C 0.36426 0.87484 0.16052 0.0
C353 C 0.38783 0.8729 0.16081 0.0
C354 C 0.34098 0.85585 0.17622 0.0
C355 C 0.33949 0.89942 0.14572 0.0
C356 C 0.34427 0.85447 0.20234 0.0
C357 C 0.32204 0.83763 0.21732 0.0
C358 C 0.29611 0.82191 0.20641 0.0
C359 C 0.29316 0.82246 0.18013 0.0
C360 C 0.31539 0.83908 0.16519 0.0
H361 H 0.3452 0.92017 0.13946 0.0
H362 H 0.32367 0.88473 0.13253 0.0
H363 H 0.33061 0.8963 0.16479 0.0
H364 H 0.36389 0.86703 0.21126 0.0
H365 H 0.32499 0.83771 0.2375 0.0
H366 H 0.49602 0.46437 0.6199 0.0
H367 H 0.48442 0.43223 0.65456 0.0
H368 H 0.48741 0.37451 0.60377 0.0
H369 H 0.49896 0.40667 0.56911 0.0
H370 H 0.44538 0.3514 0.64362 0.0
H371 H 0.54963 0.42303 0.67894 0.0
H372 H 0.52833 0.43744 0.67339 0.0
H373 H 0.53856 0.42451 0.64736 0.0
C374 C 0.49278 0.44428 0.61592 0.0
C375 C 0.49782 0.43773 0.59177 0.0
C376 C 0.48659 0.4261 0.63578 0.0
C377 C 0.48552 0.40117 0.63182 0.0
C378 C 0.48815 0.39363 0.60724 0.0
H379 H 0.47743 0.27342 0.72783 0.0
H380 H 0.47942 0.30154 0.69235 0.0
C381 C 0.49441 0.41185 0.58739 0.0
C382 C 0.48489 0.38452 0.65354 0.0
H383 H 0.52293 0.38459 0.70367 0.0
C384 C 0.46229 0.35862 0.65678 0.0
C385 C 0.50709 0.39393 0.67059 0.0
C386 C 0.53242 0.42114 0.66741 0.0
C387 C 0.46105 0.34207 0.67692 0.0
C388 C 0.48331 0.35145 0.69395 0.0
C389 C 0.50589 0.37739 0.69066 0.0
C390 C 0.48349 0.33483 0.71545 0.0
C391 C 0.43567 0.31495 0.6801 0.0
C392 C 0.48641 0.34464 0.74027 0.0
C393 C 0.48562 0.32875 0.76064 0.0
C394 C 0.482 0.30268 0.75663 0.0
C395 C 0.48014 0.29333 0.73168 0.0
C396 C 0.48098 0.30928 0.71133 0.0
H397 H 0.41809 0.31395 0.66991 0.0
H398 H 0.43902 0.29876 0.67231 0.0
H399 H 0.43049 0.31065 0.7003 0.0
H400 H 0.48864 0.3644 0.74394 0.0
H401 H 0.4871 0.33663 0.77955 0.0
H402 H 0.46932 0.91357 0.50496 0.0
H403 H 0.48263 0.88577 0.48001 0.0
H404 H 0.53842 0.95677 0.43862 0.0
H405 H 0.5256 0.98446 0.46399 0.0
H406 H 0.4734 0.87756 0.43077 0.0
H407 H 0.58331 0.92129 0.44726 0.0
H408 H 0.56263 0.92878 0.46762 0.0
H409 H 0.57553 0.94704 0.43871 0.0
C410 C 0.48534 0.92331 0.49132 0.0
C411 C 0.49701 0.95118 0.48675 0.0
C412 C 0.49272 0.90743 0.47689 0.0
C413 C 0.51178 0.91916 0.45757 0.0
C414 C 0.52428 0.9473 0.45383 0.0
H415 H 0.55417 0.87464 0.31935 0.0
H416 H 0.54345 0.89469 0.35503 0.0
C417 C 0.51701 0.96316 0.46834 0.0
C418 C 0.51611 0.90176 0.43933 0.0
H419 H 0.56532 0.89593 0.40838 0.0
C420 C 0.49347 0.88123 0.42625 0.0
C421 C 0.54228 0.90649 0.43334 0.0
C422 C 0.56726 0.92692 0.44768 0.0
C423 C 0.49643 0.86628 0.40662 0.0
C424 C 0.52265 0.87197 0.3999 0.0
C425 C 0.54522 0.89178 0.41348 0.0
C426 C 0.52727 0.85874 0.37788 0.0
C427 C 0.47166 0.84527 0.39243 0.0
C428 C 0.52126 0.83166 0.37877 0.0
C429 C 0.52743 0.82005 0.35835 0.0
C430 C 0.53966 0.83537 0.33669 0.0
C431 C 0.54475 0.86221 0.33566 0.0
C432 C 0.53875 0.87379 0.35608 0.0
H433 H 0.45288 0.84491 0.39854 0.0
H434 H 0.4742 0.84931 0.37191 0.0
H435 H 0.46917 0.8249 0.39549 0.0
H436 H 0.51247 0.81976 0.3955 0.0
H437 H 0.52333 0.79938 0.35982 0.0
H438 H 0.5578 0.56846 0.95627 0.0
H439 H 0.59922 0.58962 0.93086 0.0
H440 H 0.61691 0.52764 0.95403 0.0
H441 H 0.57618 0.50697 0.97964 0.0
H442 H 0.66334 0.57836 0.95099 0.0
H443 H 0.59952 0.55342 0.86413 0.0
H444 H 0.5962 0.57491 0.88701 0.0
H445 H 0.58518 0.54023 0.8945 0.0
C446 C 0.57094 0.55983 0.9564 0.0
C447 C 0.56362 0.53591 0.96972 0.0
C448 C 0.59445 0.57175 0.94168 0.0
C449 C 0.61093 0.5599 0.94011 0.0
C450 C 0.60452 0.53711 0.9548 0.0
H451 H 0.69839 0.5305 0.83231 0.0
H452 H 0.66753 0.53461 0.86084 0.0
C453 C 0.58116 0.52525 0.96938 0.0
C454 C 0.63354 0.56938 0.92181 0.0
H455 H 0.64572 0.56925 0.85887 0.0
C456 C 0.65966 0.57694 0.93082 0.0
C457 C 0.62867 0.56725 0.89547 0.0
C458 C 0.60089 0.55835 0.88456 0.0
C459 C 0.68062 0.58116 0.91431 0.0
C460 C 0.67542 0.57802 0.88805 0.0
C461 C 0.64972 0.57182 0.879 0.0
C462 C 0.69475 0.57689 0.87003 0.0
C463 C 0.70765 0.58722 0.92515 0.0
C464 C 0.72044 0.59945 0.86535 0.0
C465 C 0.7384 0.59717 0.84882 0.0
C466 C 0.73093 0.57226 0.83679 0.0
C467 C 0.705 0.54999 0.84127 0.0
C468 C 0.68719 0.5523 0.85758 0.0
H469 H 0.7073 0.58562 0.946 0.0
H470 H 0.71375 0.57306 0.91712 0.0
H471 H 0.72332 0.60813 0.92007 0.0
H472 H 0.72661 0.61875 0.87451 0.0
H473 H 0.75819 0.61472 0.84575 0.0
H474 H 0.1028 0.63305 0.51527 0.0
H475 H 0.13077 0.66899 0.48556 0.0
H476 H 0.07694 0.62153 0.42475 0.0
H477 H 0.04906 0.5857 0.45442 0.0
H478 H 0.13332 0.63334 0.42269 0.0
H479 H 0.1253 0.72574 0.43851 0.0
H480 H 0.12803 0.70868 0.46587 0.0
H481 H 0.09825 0.69215 0.44626 0.0
C482 C 0.09614 0.63109 0.49582 0.0
C483 C 0.07359 0.60693 0.48712 0.0
C484 C 0.11222 0.65149 0.47882 0.0
C485 C 0.10591 0.64788 0.45296 0.0
C486 C 0.08205 0.62476 0.44464 0.0
H487 H 0.19262 0.71573 0.31499 0.0
H488 H 0.16249 0.6867 0.34778 0.0
C489 C 0.06597 0.60446 0.46161 0.0
C490 C 0.12626 0.66552 0.43432 0.0
H491 H 0.15869 0.72937 0.41015 0.0
C492 C 0.13882 0.65433 0.41985 0.0
C493 C 0.13369 0.69295 0.43105 0.0
C494 C 0.12059 0.70572 0.44609 0.0
C495 C 0.15866 0.66983 0.40214 0.0
C496 C 0.16564 0.69712 0.3983 0.0
C497 C 0.1533 0.70844 0.41305 0.0
C498 C 0.18507 0.71403 0.37858 0.0
C499 C 0.17231 0.65691 0.38812 0.0
C500 C 0.20781 0.73917 0.38489 0.0
C501 C 0.22502 0.75598 0.3661 0.0
C502 C 0.21978 0.748 0.3406 0.0
C503 C 0.19747 0.72242 0.33443 0.0
C504 C 0.18019 0.70573 0.3532 0.0
H505 H 0.17124 0.63964 0.39871 0.0
H506 H 0.16182 0.6489 0.36974 0.0
H507 H 0.19393 0.67182 0.38453 0.0
H508 H 0.21198 0.74601 0.40434 0.0
H509 H 0.24194 0.77558 0.37153 0.0
H510 H 0.56414 0.12522 1.02227 0.0
H511 H 0.5488 0.15181 0.99842 0.0
H512 H 0.48445 0.07817 0.96499 0.0
H513 H 0.49961 0.05157 0.98922 0.0
H514 H 0.55069 0.15192 0.94704 0.0
H515 H 0.44653 0.12172 0.9773 0.0
H516 H 0.46919 0.11522 0.99605 0.0
H517 H 0.45125 0.09364 0.96958 0.0
C518 C 0.54588 0.11468 1.01082 0.0
C519 C 0.53271 0.08633 1.00795 0.0
C520 C 0.53733 0.12988 0.99693 0.0
C521 C 0.51546 0.11705 0.97986 0.0
C522 C 0.50106 0.08855 0.97834 0.0
H523 H 0.49386 0.18749 0.84202 0.0
H524 H 0.5045 0.16251 0.87319 0.0
C525 C 0.50958 0.0733 0.99234 0.0
C526 C 0.51013 0.13357 0.96148 0.0
H527 H 0.46143 0.14653 0.93911 0.0
C528 C 0.5312 0.15085 0.94544 0.0
C529 C 0.48476 0.13226 0.95936 0.0
C530 C 0.46168 0.11491 0.97663 0.0
C531 C 0.52754 0.16659 0.92723 0.0
C532 C 0.50197 0.16477 0.92467 0.0
C533 C 0.48098 0.14777 0.94092 0.0
C534 C 0.49671 0.18072 0.90559 0.0
C535 C 0.55124 0.18537 0.91117 0.0
C536 C 0.48875 0.19925 0.91334 0.0
C537 C 0.48267 0.21354 0.8956 0.0
C538 C 0.48421 0.20952 0.8696 0.0
C539 C 0.49268 0.19129 0.86185 0.0
C540 C 0.49879 0.17699 0.87967 0.0
H541 H 0.57085 0.18954 0.91966 0.0
H542 H 0.54915 0.17577 0.89242 0.0
H543 H 0.55183 0.20496 0.90836 0.0
H544 H 0.48702 0.20251 0.9332 0.0
H545 H 0.47617 0.22733 0.90232 0.0
H546 H 0.42755 0.45811 0.50652 0.0
H547 H 0.38398 0.43555 0.48357 0.0
H548 H 0.42592 0.46783 0.41385 0.0
H549 H 0.46911 0.48925 0.4364 0.0
H550 H 0.36272 0.46056 0.46011 0.0
H551 H 0.37116 0.39434 0.38953 0.0
H552 H 0.39425 0.40813 0.41608 0.0
H553 H 0.40039 0.42749 0.38765 0.0
C554 C 0.42744 0.45952 0.48619 0.0
C555 C 0.45174 0.4756 0.4733 0.0
C556 C 0.40253 0.44677 0.47308 0.0
C557 C 0.40151 0.44966 0.44684 0.0
C558 C 0.42597 0.46457 0.43391 0.0
H559 H 0.30425 0.48571 0.35715 0.0
H560 H 0.33342 0.4806 0.38734 0.0
C561 C 0.45073 0.47715 0.44691 0.0
C562 C 0.37524 0.44055 0.43329 0.0
H563 H 0.34276 0.41368 0.37709 0.0
C564 C 0.35805 0.44968 0.44227 0.0
C565 C 0.36852 0.42584 0.4102 0.0
C566 C 0.38445 0.41315 0.40051 0.0
C567 C 0.33586 0.44657 0.42789 0.0
C568 C 0.33104 0.43462 0.40355 0.0
C569 C 0.34672 0.42336 0.3955 0.0
C570 C 0.31228 0.43676 0.38525 0.0
C571 C 0.3183 0.45694 0.43865 0.0
C572 C 0.29098 0.4138 0.3732 0.0
C573 C 0.2741 0.41666 0.35548 0.0
C574 C 0.27849 0.44258 0.3494 0.0
C575 C 0.30002 0.46539 0.3614 0.0
C576 C 0.3167 0.46252 0.37893 0.0
H577 H 0.31791 0.45589 0.45954 0.0
H578 H 0.32681 0.47853 0.43349 0.0
H579 H 0.29718 0.44521 0.43128 0.0
H580 H 0.28737 0.39371 0.37755 0.0
H581 H 0.25782 0.3987 0.34649 0.0
H582 H 0.98915 0.44347 0.93436 0.0
H583 H 0.96886 0.40256 0.90786 0.0
H584 H 0.9377 0.35316 0.97394 0.0
H585 H 0.95775 0.39428 1.00059 0.0
H586 H 0.96966 0.3531 0.90455 0.0
H587 H 0.86918 0.33711 0.93361 0.0
H588 H 0.90035 0.36821 0.94036 0.0
H589 H 0.89114 0.3385 0.95873 0.0
C590 C 0.97863 0.42383 0.9433 0.0
C591 C 0.9749 0.42207 0.96954 0.0
C592 C 0.96699 0.40045 0.92812 0.0
C593 C 0.95123 0.37478 0.93881 0.0
C594 C 0.94938 0.37278 0.96522 0.0
H595 H 0.82925 0.22622 0.86289 0.0
H596 H 0.86189 0.25754 0.89402 0.0
C597 C 0.96112 0.39626 0.98047 0.0
C598 C 0.93466 0.35079 0.92209 0.0
H599 H 0.86925 0.30658 0.90393 0.0
C600 C 0.94769 0.34273 0.90456 0.0
C601 C 0.90597 0.33734 0.92193 0.0
C602 C 0.89072 0.34577 0.93948 0.0
C603 C 0.93284 0.32168 0.88692 0.0
C604 C 0.90416 0.30866 0.88641 0.0
C605 C 0.89119 0.3164 0.9043 0.0
C606 C 0.88701 0.28786 0.86695 0.0
C607 C 0.94805 0.31349 0.86915 0.0
C608 C 0.8905 0.294 0.84115 0.0
C609 C 0.87192 0.27593 0.82319 0.0
C610 C 0.8492 0.25147 0.83068 0.0
C611 C 0.84647 0.24484 0.85639 0.0
C612 C 0.86512 0.26281 0.87428 0.0
H613 H 0.96818 0.31863 0.87708 0.0
H614 H 0.93643 0.29141 0.86484 0.0
H615 H 0.9515 0.32467 0.85125 0.0
H616 H 0.90678 0.31339 0.83494 0.0
H617 H 0.87456 0.28188 0.80362 0.0
H618 H 0.98033 0.50867 0.94416 0.0
H619 H 0.95275 0.52452 0.9228 0.0
H620 H 0.90253 0.50557 0.98841 0.0
H621 H 0.93033 0.48963 1.00995 0.0
H622 H 0.87377 0.48213 0.94205 0.0
H623 H 0.94543 0.59242 0.93292 0.0
H624 H 0.95911 0.57152 0.92314 0.0
H625 H 0.95038 0.57171 0.95557 0.0
C626 C 0.96386 0.50861 0.95426 0.0
C627 C 0.95756 0.4982 0.97875 0.0
C628 C 0.94812 0.51765 0.94206 0.0
C629 C 0.92569 0.5164 0.95406 0.0
C630 C 0.91986 0.50685 0.97888 0.0
H631 H 0.8318 0.58199 0.88537 0.0
H632 H 0.85659 0.56948 0.91486 0.0
C633 C 0.93583 0.49799 0.99123 0.0
C634 C 0.90729 0.52302 0.93976 0.0
H635 H 0.90613 0.57339 0.90624 0.0
C636 C 0.88071 0.50216 0.93445 0.0
C637 C 0.91634 0.54916 0.92993 0.0
C638 C 0.9443 0.57258 0.93584 0.0
C639 C 0.86321 0.50656 0.91892 0.0
C640 C 0.87267 0.53242 0.90822 0.0
C641 C 0.89897 0.55348 0.91421 0.0
C642 C 0.85569 0.53826 0.89084 0.0
C643 C 0.83475 0.48353 0.91415 0.0
C644 C 0.84668 0.52469 0.86751 0.0
C645 C 0.83239 0.5318 0.85049 0.0
C646 C 0.82701 0.55272 0.85647 0.0
C647 C 0.8356 0.56581 0.88008 0.0
C648 C 0.84983 0.55872 0.89701 0.0
H649 H 0.82846 0.46753 0.92862 0.0
H650 H 0.82007 0.49094 0.91391 0.0
H651 H 0.83378 0.47416 0.89551 0.0
H652 H 0.85138 0.50915 0.86214 0.0
H653 H 0.82623 0.52144 0.83242 0.0
H654 H 0.39528 0.95403 0.50149 0.0
H655 H 0.35683 0.93647 0.47157 0.0
H656 H 0.41242 0.97428 0.41051 0.0
H657 H 0.45059 0.99196 0.44029 0.0
H658 H 0.36387 0.97575 0.4045 0.0
H659 H 0.34401 0.87201 0.42669 0.0
H660 H 0.34289 0.89167 0.45274 0.0
H661 H 0.37441 0.90215 0.43715 0.0
C662 C 0.39912 0.95941 0.48182 0.0
C663 C 0.42587 0.97446 0.4732 0.0
C664 C 0.37721 0.94906 0.46467 0.0
C665 C 0.38174 0.95354 0.43866 0.0
C666 C 0.40834 0.97042 0.43041 0.0
H667 H 0.31557 0.89621 0.29253 0.0
H668 H 0.33891 0.92298 0.32993 0.0
C669 C 0.43016 0.98065 0.44746 0.0
C670 C 0.35952 0.93884 0.41967 0.0
H671 H 0.31838 0.87579 0.39403 0.0
C672 C 0.35365 0.95386 0.40242 0.0
C673 C 0.34614 0.91023 0.41685 0.0
C674 C 0.35222 0.89297 0.43417 0.0
C675 C 0.33529 0.94116 0.3822 0.0
C676 C 0.32282 0.91269 0.37877 0.0
C677 C 0.32783 0.89758 0.39662 0.0
C678 C 0.30667 0.89842 0.35565 0.0
C679 C 0.32963 0.95846 0.36461 0.0
C680 C 0.28056 0.87558 0.35738 0.0
C681 C 0.26705 0.86005 0.33584 0.0
C682 C 0.27958 0.86684 0.31216 0.0
C683 C 0.30521 0.89039 0.31038 0.0
C684 C 0.31859 0.90589 0.33183 0.0
H685 H 0.3326 0.97712 0.37429 0.0
H686 H 0.34398 0.96486 0.3487 0.0
H687 H 0.30865 0.94716 0.35685 0.0
H688 H 0.27096 0.86925 0.37553 0.0
H689 H 0.24745 0.84197 0.33799 0.0
H690 H 0.51044 0.43809 0.98078 0.0
H691 H 0.48806 0.39601 0.95593 0.0
H692 H 0.42039 0.4081 0.94161 0.0
H693 H 0.44285 0.45053 0.96646 0.0
H694 H 0.41059 0.34837 0.9519 0.0
H695 H 0.48187 0.40874 0.87606 0.0
H696 H 0.49638 0.41194 0.90699 0.0
H697 H 0.47337 0.42426 0.90147 0.0
C698 C 0.49048 0.43144 0.97287 0.0
C699 C 0.47848 0.44771 0.97538 0.0
C700 C 0.47773 0.40741 0.9587 0.0
C701 C 0.45273 0.39912 0.94675 0.0
C702 C 0.43968 0.41417 0.95074 0.0
H703 H 0.40598 0.29532 0.81286 0.0
H704 H 0.40911 0.32852 0.84407 0.0
C705 C 0.45246 0.43831 0.96501 0.0
C706 C 0.44215 0.37675 0.92783 0.0
H707 H 0.45576 0.36138 0.86949 0.0
C708 C 0.42024 0.35118 0.93377 0.0
C709 C 0.45459 0.3806 0.90411 0.0
C710 C 0.47775 0.40788 0.89655 0.0
C711 C 0.41102 0.32908 0.91682 0.0
C712 C 0.42426 0.33268 0.8935 0.0
C713 C 0.44558 0.35854 0.88733 0.0
C714 C 0.41754 0.30987 0.87558 0.0
C715 C 0.3872 0.30212 0.92402 0.0
C716 C 0.42053 0.28787 0.88295 0.0
C717 C 0.41866 0.26876 0.86513 0.0
C718 C 0.41401 0.27137 0.83948 0.0
C719 C 0.40955 0.2926 0.8324 0.0
C720 C 0.41141 0.31168 0.85024 0.0
H721 H 0.37436 0.30464 0.93818 0.0
H722 H 0.37447 0.29121 0.90731 0.0
H723 H 0.39477 0.28937 0.93248 0.0
H724 H 0.4258 0.28625 0.90224 0.0
H725 H 0.42227 0.25274 0.8713 0.0
H726 H 0.12112 0.55707 0.50679 0.0
H727 H 0.14161 0.5381 0.47908 0.0
H728 H 0.06227 0.47088 0.46076 0.0
H729 H 0.04163 0.49041 0.48804 0.0
H730 H 0.14346 0.49185 0.47185 0.0
H731 H 0.0877 0.50622 0.39284 0.0
H732 H 0.08843 0.51881 0.42423 0.0
H733 H 0.06615 0.48355 0.41659 0.0
C734 C 0.10813 0.53773 0.49753 0.0
C735 C 0.07978 0.52524 0.49947 0.0
C736 C 0.11985 0.52698 0.48155 0.0
C737 C 0.10347 0.50351 0.46717 0.0
C738 C 0.07529 0.48944 0.47112 0.0
H739 H 0.13805 0.4238 0.34594 0.0
H740 H 0.11841 0.43731 0.37973 0.0
C741 C 0.06351 0.50031 0.48707 0.0
C742 C 0.11579 0.49551 0.44656 0.0
H743 H 0.11471 0.48694 0.38264 0.0
C744 C 0.13715 0.49076 0.45235 0.0
C745 C 0.10792 0.49454 0.421 0.0
C746 C 0.08649 0.50131 0.41318 0.0
C747 C 0.1504 0.48455 0.4334 0.0
C748 C 0.14224 0.48324 0.40797 0.0
C749 C 0.12094 0.48798 0.40216 0.0
C750 C 0.15467 0.47576 0.38719 0.0
C751 C 0.17276 0.47899 0.44066 0.0
C752 C 0.18155 0.4932 0.37974 0.0
C753 C 0.19289 0.48563 0.3601 0.0
C754 C 0.17755 0.46041 0.34775 0.0
C755 C 0.15053 0.44331 0.35508 0.0
C756 C 0.13921 0.45097 0.37444 0.0
H757 H 0.17385 0.47667 0.46133 0.0
H758 H 0.16975 0.46028 0.43108 0.0
H759 H 0.19248 0.49609 0.43451 0.0
H760 H 0.19373 0.51261 0.38914 0.0
H761 H 0.21375 0.49922 0.35495 0.0
H762 H 0.58199 0.0396 0.95926 0.0
H763 H 0.61167 0.06146 0.92336 0.0
H764 H 0.66573 0.12869 0.97131 0.0
H765 H 0.63599 0.10685 1.00713 0.0
H766 H 0.61877 0.1139 0.91067 0.0
H767 H 0.71751 0.11783 0.92357 0.0
H768 H 0.68675 0.09245 0.93828 0.0
H769 H 0.7046 0.12642 0.95077 0.0
C770 C 0.60102 0.05826 0.96238 0.0
C771 C 0.60707 0.07132 0.98599 0.0
C772 C 0.61778 0.07091 0.94183 0.0
C773 C 0.64093 0.09668 0.94467 0.0
C774 C 0.64824 0.10862 0.96877 0.0
H775 H 0.74993 0.22161 0.84205 0.0
H776 H 0.72566 0.19544 0.87896 0.0
C777 C 0.63138 0.09605 0.98928 0.0
C778 C 0.65458 0.11294 0.92212 0.0
H779 H 0.71498 0.14538 0.89156 0.0
C780 C 0.63975 0.12059 0.90632 0.0
C781 C 0.68204 0.12206 0.91683 0.0
C782 C 0.69871 0.11418 0.9331 0.0
C783 C 0.65172 0.13743 0.88554 0.0
C784 C 0.67913 0.14628 0.87994 0.0
C785 C 0.69398 0.13862 0.8958 0.0
C786 C 0.69268 0.16316 0.85757 0.0
C787 C 0.63506 0.14622 0.8703 0.0
C788 C 0.68206 0.154 0.83323 0.0
C789 C 0.69567 0.16912 0.81211 0.0
C790 C 0.72048 0.19354 0.81483 0.0
C791 C 0.7308 0.20297 0.83926 0.0
C792 C 0.71704 0.18794 0.86039 0.0
H793 H 0.61808 0.14505 0.88142 0.0
H794 H 0.64766 0.1673 0.86349 0.0
H795 H 0.62615 0.13251 0.85371 0.0
H796 H 0.66366 0.13467 0.83048 0.0
H797 H 0.68732 0.16102 0.7936 0.0
H798 H 0.49747 0.57356 0.48513 0.0
H799 H 0.5188 0.61597 0.4618 0.0
H800 H 0.592 0.61178 0.45595 0.0
H801 H 0.57036 0.56874 0.47898 0.0
H802 H 0.56559 0.66688 0.46636 0.0
H803 H 0.56908 0.60982 0.38231 0.0
H804 H 0.55054 0.59291 0.41015 0.0
H805 H 0.58684 0.60886 0.41003 0.0
C806 C 0.51829 0.58191 0.47926 0.0
C807 C 0.53212 0.56763 0.4836 0.0
C808 C 0.53051 0.60622 0.46597 0.0
C809 C 0.55683 0.61684 0.45663 0.0
C810 C 0.57149 0.60373 0.46256 0.0
H811 H 0.61349 0.76475 0.36221 0.0
H812 H 0.61631 0.73507 0.3943 0.0
C813 C 0.55923 0.5793 0.47595 0.0
C814 C 0.56741 0.64 0.43882 0.0
H815 H 0.57991 0.65475 0.37633 0.0
C816 C 0.5693 0.66449 0.44677 0.0
C817 C 0.572 0.63676 0.41318 0.0
C818 C 0.56937 0.61066 0.40322 0.0
C819 C 0.57444 0.68526 0.42961 0.0
C820 C 0.57797 0.68154 0.40384 0.0
C821 C 0.57741 0.65764 0.39613 0.0
C822 C 0.5778 0.69991 0.38408 0.0
C823 C 0.57431 0.71028 0.43883 0.0
C824 C 0.55562 0.68991 0.36741 0.0
C825 C 0.55399 0.70665 0.34927 0.0
C826 C 0.5746 0.73391 0.34711 0.0
C827 C 0.59728 0.74387 0.36338 0.0
C828 C 0.59883 0.72699 0.3818 0.0
H829 H 0.56854 0.70884 0.45893 0.0
H830 H 0.59482 0.72824 0.43669 0.0
H831 H 0.55996 0.71371 0.42734 0.0
H832 H 0.53918 0.66913 0.36874 0.0
H833 H 0.53629 0.69814 0.33702 0.0
H834 H 0.4592 0.06759 0.57242 0.0
H835 H 0.44069 0.08789 0.60145 0.0
H836 H 0.44545 0.04041 0.66213 0.0
H837 H 0.46457 0.02077 0.63336 0.0
H838 H 0.3971 0.0699 0.63574 0.0
H839 H 0.49681 0.11842 0.68526 0.0
H840 H 0.49122 0.10142 0.6552 0.0
H841 H 0.48032 0.08209 0.68369 0.0
C842 C 0.45543 0.06091 0.59178 0.0
C843 C 0.46321 0.04263 0.60072 0.0
C844 C 0.44502 0.0726 0.60838 0.0
C845 C 0.44226 0.06613 0.6341 0.0
C846 C 0.44792 0.04614 0.6425 0.0
H847 H 0.42153 0.14352 0.76739 0.0
H848 H 0.42167 0.11025 0.7381 0.0
C849 C 0.45856 0.03471 0.62603 0.0
C850 C 0.43606 0.08202 0.65253 0.0
H851 H 0.46274 0.12479 0.70336 0.0
C852 C 0.41141 0.08188 0.65055 0.0
C853 C 0.45485 0.09785 0.67176 0.0
C854 C 0.48239 0.10025 0.67404 0.0
C855 C 0.40489 0.0968 0.66754 0.0
C856 C 0.42365 0.11248 0.68681 0.0
C857 C 0.44823 0.11252 0.68878 0.0
C858 C 0.4191 0.13017 0.70449 0.0
C859 C 0.37788 0.09541 0.6649 0.0
C860 C 0.41706 0.15217 0.6954 0.0
C861 C 0.417 0.17126 0.7121 0.0
C862 C 0.41912 0.16884 0.73829 0.0
C863 C 0.4198 0.14602 0.74738 0.0
C864 C 0.41994 0.12699 0.73064 0.0
H865 H 0.36304 0.07707 0.65413 0.0
H866 H 0.36932 0.09533 0.68364 0.0
H867 H 0.38065 0.1135 0.65459 0.0
H868 H 0.4169 0.15539 0.67533 0.0
H869 H 0.41652 0.18857 0.70439 0.0
H870 H 0.43233 0.47719 0.08233 0.0
H871 H 0.39591 0.46159 0.1133 0.0
H872 H 0.37877 0.52374 0.08946 0.0
H873 H 0.41495 0.53916 0.05848 0.0
H874 H 0.40102 0.49801 0.15154 0.0
H875 H 0.30263 0.45928 0.10119 0.0
H876 H 0.33217 0.46177 0.0863 0.0
H877 H 0.32916 0.49148 0.09038 0.0
C878 C 0.41986 0.48658 0.08286 0.0
C879 C 0.42627 0.50922 0.06788 0.0
C880 C 0.39926 0.47789 0.10074 0.0
C881 C 0.38455 0.49146 0.10372 0.0
C882 C 0.38947 0.51262 0.08729 0.0
H883 H 0.27894 0.49291 0.22281 0.0
H884 H 0.30754 0.50351 0.18534 0.0
C885 C 0.41011 0.5214 0.06953 0.0
C886 C 0.36722 0.48638 0.12619 0.0
H887 H 0.30324 0.46854 0.14508 0.0
C888 C 0.37958 0.49133 0.1501 0.0
C889 C 0.33939 0.47823 0.12433 0.0
C890 C 0.32493 0.47215 0.09919 0.0
C891 C 0.36498 0.48848 0.17216 0.0
C892 C 0.33703 0.47988 0.17038 0.0
C893 C 0.32467 0.47519 0.14645 0.0
C894 C 0.32009 0.47417 0.19323 0.0
C895 C 0.3798 0.49522 0.19717 0.0
C896 C 0.31758 0.45418 0.21005 0.0
C897 C 0.30149 0.44824 0.23139 0.0
C898 C 0.28725 0.46198 0.23642 0.0
C899 C 0.28981 0.48213 0.21963 0.0
C900 C 0.306 0.48808 0.19814 0.0
H901 H 0.40193 0.5091 0.19494 0.0
H902 H 0.37194 0.5048 0.21033 0.0
H903 H 0.3769 0.47627 0.20581 0.0
H904 H 0.3278 0.44281 0.20648 0.0
H905 H 0.29994 0.43249 0.24376 0.0
H906 H 0.99499 0.46817 0.59152 0.0
H907 H 0.9672 0.42467 0.61267 0.0
H908 H 0.89819 0.4364 0.60847 0.0
H909 H 0.92557 0.47926 0.58687 0.0
H910 H 0.94499 0.42167 0.6585 0.0
H911 H 0.86311 0.3569 0.59085 0.0
H912 H 0.89368 0.38699 0.58132 0.0
H913 H 0.86635 0.38966 0.59511 0.0
C914 C 0.97364 0.46091 0.59428 0.0
C915 C 0.96244 0.47708 0.58761 0.0
C916 C 0.95783 0.43619 0.60654 0.0
C917 C 0.93053 0.42715 0.61207 0.0
C918 C 0.91898 0.44258 0.60403 0.0
H919 H 0.81297 0.30881 0.71613 0.0
H920 H 0.83751 0.34677 0.68701 0.0
C921 C 0.93472 0.46719 0.59182 0.0
C922 C 0.91504 0.40355 0.62881 0.0
H923 H 0.85546 0.34349 0.63411 0.0
C924 C 0.92556 0.40445 0.65302 0.0
C925 C 0.88951 0.3812 0.62182 0.0
C926 C 0.87761 0.37845 0.59577 0.0
C927 C 0.91112 0.38389 0.67053 0.0
C928 C 0.88555 0.3617 0.6636 0.0
C929 C 0.87497 0.36069 0.63942 0.0
C930 C 0.87029 0.33869 0.68088 0.0
C931 C 0.92311 0.38624 0.69648 0.0
C932 C 0.8805 0.32157 0.68682 0.0
C933 C 0.8666 0.29999 0.70325 0.0
C934 C 0.84212 0.29503 0.71417 0.0
C935 C 0.83181 0.31217 0.70812 0.0
C936 C 0.84573 0.33376 0.69146 0.0
H937 H 0.93988 0.40714 0.70068 0.0
H938 H 0.90735 0.38035 0.7111 0.0
H939 H 0.93131 0.37226 0.69778 0.0
H940 H 0.89927 0.32487 0.67867 0.0
H941 H 0.87517 0.28723 0.70741 0.0
H942 H 0.57394 0.00822 0.13644 0.0
H943 H 0.59335 0.98834 0.1647 0.0
H944 H 0.59728 0.94125 0.10269 0.0
H945 H 0.57824 0.96153 0.07439 0.0
H946 H 0.56553 0.93406 0.17339 0.0
H947 H 0.66824 0.96302 0.13983 0.0
H948 H 0.65106 0.98114 0.13086 0.0
H949 H 0.64265 0.94962 0.11551 0.0
C950 C 0.58019 0.9946 0.12867 0.0
C951 C 0.57521 0.98684 0.10317 0.0
C952 C 0.59102 0.98304 0.14485 0.0
C953 C 0.59701 0.9634 0.13587 0.0
C954 C 0.59348 0.95679 0.11002 0.0
H955 H 0.61567 0.83541 0.20185 0.0
H956 H 0.61585 0.86984 0.17448 0.0
C957 C 0.58267 0.96844 0.0938 0.0
C958 C 0.60304 0.94716 0.15402 0.0
H959 H 0.64803 0.92599 0.16853 0.0
C960 C 0.58377 0.93262 0.17253 0.0
C961 C 0.62665 0.94495 0.15273 0.0
C962 C 0.64848 0.9607 0.13381 0.0
C963 C 0.58704 0.91547 0.18931 0.0
C964 C 0.61062 0.91317 0.18804 0.0
C965 C 0.63005 0.92785 0.16964 0.0
C966 C 0.61459 0.89456 0.20491 0.0
C967 C 0.56463 0.89912 0.2076 0.0
C968 C 0.61506 0.89755 0.23123 0.0
C969 C 0.61484 0.87779 0.247 0.0
C970 C 0.6144 0.85471 0.23678 0.0
C971 C 0.61592 0.85282 0.21044 0.0
C972 C 0.61601 0.87253 0.1947 0.0
H973 H 0.54531 0.89807 0.202 0.0
H974 H 0.56098 0.87811 0.20907 0.0
H975 H 0.57054 0.90882 0.22653 0.0
H976 H 0.61461 0.9147 0.2396 0.0
H977 H 0.61386 0.88007 0.26717 0.0
H978 H 0.59425 0.47349 0.5555 0.0
H979 H 0.63514 0.48482 0.58021 0.0
H980 H 0.63216 0.55199 0.61468 0.0
H981 H 0.59155 0.54095 0.58954 0.0
H982 H 0.68574 0.56181 0.60778 0.0
H983 H 0.61948 0.4637 0.65474 0.0
H984 H 0.62263 0.46106 0.62137 0.0
H985 H 0.60643 0.47892 0.63325 0.0
C986 C 0.60317 0.49147 0.56743 0.0
C987 C 0.59004 0.50657 0.57048 0.0
C988 C 0.62625 0.49768 0.58182 0.0
C989 C 0.63625 0.5188 0.59975 0.0
C990 C 0.62469 0.53552 0.60103 0.0
H991 H 0.71684 0.53207 0.74187 0.0
H992 H 0.68506 0.52444 0.70738 0.0
C993 C 0.60169 0.52941 0.5865 0.0
C994 C 0.65641 0.52143 0.6191 0.0
H995 H 0.66507 0.4882 0.66851 0.0
C996 C 0.68134 0.54569 0.62098 0.0
C997 C 0.65033 0.50057 0.63668 0.0
C998 C 0.62319 0.47468 0.63667 0.0
C999 C 0.70046 0.54959 0.63985 0.0
C1000 C 0.69465 0.52845 0.65703 0.0
C1001 C 0.66965 0.50425 0.65518 0.0
C1002 C 0.71368 0.53146 0.67778 0.0
C1003 C 0.72632 0.57665 0.6417 0.0
C1004 C 0.74008 0.53701 0.67266 0.0
C1005 C 0.75834 0.54144 0.69236 0.0
C1006 C 0.75048 0.54015 0.71762 0.0
C1007 C 0.7236 0.53324 0.72267 0.0
C1008 C 0.70541 0.52895 0.70295 0.0
H1009 H 0.72457 0.59272 0.63156 0.0
H1010 H 0.73188 0.58313 0.66166 0.0
H1011 H 0.74303 0.57486 0.63309 0.0
H1012 H 0.74671 0.5383 0.6534 0.0
H1013 H 0.77881 0.54652 0.68776 0.0
H1014 H 0.0217 0.5548 0.0852 0.0
H1015 H 0.04296 0.59877 0.10767 0.0
H1016 H 0.11916 0.59994 0.10903 0.0
H1017 H 0.09818 0.55651 0.08653 0.0
H1018 H 0.06496 0.6074 0.15518 0.0
H1019 H 0.14374 0.67759 0.09021 0.0
H1020 H 0.11588 0.6452 0.07991 0.0
H1021 H 0.14553 0.64732 0.09448 0.0
C1022 C 0.04317 0.56492 0.08964 0.0
C1023 C 0.05829 0.55225 0.08406 0.0
C1024 C 0.05528 0.58994 0.10262 0.0
C1025 C 0.08281 0.60294 0.10987 0.0
C1026 C 0.0981 0.59077 0.10325 0.0
H1027 H 0.17311 0.68981 0.23678 0.0
H1028 H 0.14213 0.65839 0.20506 0.0
C1029 C 0.08603 0.56581 0.09049 0.0
C1030 C 0.09505 0.62749 0.12664 0.0
H1031 H 0.15181 0.68986 0.13459 0.0
C1032 C 0.08364 0.62566 0.15042 0.0
C1033 C 0.11926 0.65159 0.1205 0.0
C1034 C 0.13165 0.65568 0.09477 0.0
C1035 C 0.09672 0.64632 0.16872 0.0
C1036 C 0.12208 0.66937 0.16329 0.0
C1037 C 0.13253 0.67211 0.13893 0.0
C1038 C 0.13942 0.68899 0.18339 0.0
C1039 C 0.08359 0.64291 0.19401 0.0
C1040 C 0.14854 0.71693 0.18185 0.0
C1041 C 0.1664 0.73519 0.20025 0.0
C1042 C 0.17583 0.72581 0.22019 0.0
C1043 C 0.1663 0.69781 0.22173 0.0
C1044 C 0.14838 0.67969 0.20363 0.0
H1045 H 0.06123 0.62963 0.19256 0.0
H1046 H 0.09137 0.6332 0.2071 0.0
H1047 H 0.08826 0.66278 0.20223 0.0
H1048 H 0.14208 0.72463 0.16627 0.0
H1049 H 0.17355 0.75665 0.19838 0.0
loop_
_geom_bond_atom_site_label_1
_geom_bond_atom_site_label_2
_geom_bond_distance
_geom_bond_site_symmetry_2
_ccdc_geom_bond_type
H0 C6 0.930 . S
H1 C9 0.931 . S
H2 C11 0.931 1_455 S
H3 C13 0.930 . S
H4 C15 0.930 . S
H5 C17 0.931 . S
C6 H0 0.930 . S
C6 C7 1.380 . S
C6 C8 1.394 . S
C7 C6 1.380 . S
C7 C11 1.382 . S
C8 C6 1.394 . S
C8 C9 1.400 . S
C9 H1 0.931 . S
C9 C8 1.400 . S
C9 C10 1.375 1_655 S
C10 C9 1.375 1_455 S
C10 C11 1.415 1_455 S
C10 C12 1.501 1_556 S
C11 H2 0.931 1_655 S
C11 C7 1.382 . S
C11 C10 1.415 1_655 S
C12 C10 1.501 1_554 S
C12 C13 1.384 . S
C12 C17 1.408 . S
C13 H3 0.930 . S
C13 C12 1.384 . S
C13 C14 1.389 . S
C14 C13 1.389 . S
C14 C15 1.405 . S
C15 H4 0.930 . S
C15 C14 1.405 . S
C15 C16 1.364 . S
C16 C15 1.364 . S
C16 C17 1.400 . S
C17 H5 0.931 . S
C17 C12 1.408 . S
C17 C16 1.400 . S
H18 C24 0.930 . S
H19 C27 0.931 . S
H20 C29 0.931 . S
H21 C31 0.931 1_545 S
H22 C33 0.930 . S
H23 C35 0.947 . S
C24 H18 0.930 . S
C24 C25 1.380 . S
C24 C26 1.394 . S
C25 C24 1.380 . S
C25 C29 1.382 . S
C26 C24 1.394 . S
C26 C27 1.400 . S
C27 H19 0.931 . S
C27 C26 1.400 . S
C27 C28 1.375 . S
C28 C27 1.375 . S
C28 C29 1.415 . S
C28 C30 1.501 . S
C29 H20 0.931 . S
C29 C25 1.382 . S
C29 C28 1.415 . S
C30 C28 1.501 . S
C30 C31 1.381 1_545 S
C30 C35 1.408 1_545 S
C31 H21 0.931 1_565 S
C31 C30 1.381 1_565 S
C31 C32 1.392 . S
C32 C31 1.392 . S
C32 C33 1.405 . S
C33 H22 0.930 . S
C33 C32 1.405 . S
C33 C34 1.364 . S
C34 C33 1.364 . S
C34 C35 1.400 . S
C35 H23 0.947 . S
C35 C30 1.408 1_565 S
C35 C34 1.400 . S
H36 C42 0.930 . S
H37 C45 0.931 . S
H38 C47 0.931 . S
H39 C49 0.930 . S
H40 C51 0.930 . S
H41 C53 0.931 . S
C42 H36 0.930 . S
C42 C43 1.380 . S
C42 C44 1.394 . S
C43 C42 1.380 . S
C43 C47 1.382 . S
C44 C42 1.394 . S
C44 C45 1.400 . S
C45 H37 0.931 . S
C45 C44 1.400 . S
C45 C46 1.375 . S
C46 C45 1.375 . S
C46 C47 1.415 . S
C46 C48 1.501 1_554 S
C47 H38 0.931 . S
C47 C43 1.382 . S
C47 C46 1.415 . S
C48 C46 1.501 1_556 S
C48 C49 1.384 . S
C48 C53 1.408 . S
C49 H39 0.930 . S
C49 C48 1.384 . S
C49 C50 1.389 . S
C50 C49 1.389 . S
C50 C51 1.405 . S
C51 H40 0.930 . S
C51 C50 1.405 . S
C51 C52 1.364 . S
C52 C51 1.364 . S
C52 C53 1.400 . S
C53 H41 0.931 . S
C53 C48 1.408 . S
C53 C52 1.400 . S
H54 C60 0.930 . S
H55 C63 0.931 . S
H56 C65 0.931 . S
H57 C67 0.930 . S
H58 C69 0.930 . S
H59 C71 0.931 . S
C60 H54 0.930 . S
C60 C61 1.380 . S
C60 C62 1.394 . S
C61 C60 1.380 . S
C61 C65 1.382 . S
C62 C60 1.394 . S
C62 C63 1.400 . S
C63 H55 0.931 . S
C63 C62 1.400 . S
C63 C64 1.375 . S
C64 C63 1.375 . S
C64 C65 1.415 . S
C64 C66 1.501 1_655 S
C65 H56 0.931 . S
C65 C61 1.382 . S
C65 C64 1.415 . S
C66 C64 1.501 1_455 S
C66 C67 1.384 . S
C66 C71 1.408 . S
C67 H57 0.930 . S
C67 C66 1.384 . S
C67 C68 1.389 . S
C68 C67 1.389 . S
C68 C69 1.405 . S
C69 H58 0.930 . S
C69 C68 1.405 . S
C69 C70 1.364 . S
C70 C69 1.364 . S
C70 C71 1.400 . S
C71 H59 0.931 . S
C71 C66 1.408 . S
C71 C70 1.400 . S
H72 C78 0.930 . S
H73 C81 0.931 . S
H74 C83 0.931 . S
H75 C85 0.930 . S
H76 C87 0.930 . S
H77 C89 0.931 . S
C78 H72 0.930 . S
C78 C79 1.380 . S
C78 C80 1.394 . S
C79 C78 1.380 . S
C79 C83 1.382 . S
C80 C78 1.394 . S
C80 C81 1.400 . S
C81 H73 0.931 . S
C81 C80 1.400 . S
C81 C82 1.375 . S
C82 C81 1.375 . S
C82 C83 1.415 . S
C82 C84 1.501 1_564 S
C83 H74 0.931 . S
C83 C79 1.382 . S
C83 C82 1.415 . S
C84 C82 1.501 1_546 S
C84 C85 1.384 . S
C84 C89 1.408 . S
C85 H75 0.930 . S
C85 C84 1.384 . S
C85 C86 1.389 . S
C86 C85 1.389 . S
C86 C87 1.405 . S
C87 H76 0.930 . S
C87 C86 1.405 . S
C87 C88 1.364 . S
C88 C87 1.364 . S
C88 C89 1.400 . S
C89 H77 0.931 . S
C89 C84 1.408 . S
C89 C88 1.400 . S
H90 C96 0.930 . S
H91 C99 0.931 . S
H92 C101 0.931 . S
H93 C103 0.930 . S
H94 C105 0.930 . S
H95 C107 0.931 . S
C96 H90 0.930 . S
C96 C97 1.380 . S
C96 C98 1.394 . S
C97 C96 1.380 . S
C97 C101 1.382 . S
C98 C96 1.394 . S
C98 C99 1.400 . S
C99 H91 0.931 . S
C99 C98 1.400 . S
C99 C100 1.375 . S
C100 C99 1.375 . S
C100 C101 1.415 . S
C100 C102 1.501 . S
C101 H92 0.931 . S
C101 C97 1.382 . S
C101 C100 1.415 . S
C102 C100 1.501 . S
C102 C103 1.384 . S
C102 C107 1.408 . S
C103 H93 0.930 . S
C103 C102 1.384 . S
C103 C104 1.389 . S
C104 C103 1.389 . S
C104 C105 1.405 . S
C105 H94 0.930 . S
C105 C104 1.405 . S
C105 C106 1.364 . S
C106 C105 1.364 . S
C106 C107 1.400 . S
C107 H95 0.931 . S
C107 C102 1.408 . S
C107 C106 1.400 . S
Mg108 O115 2.141 . S
Mg108 O116 2.048 . S
Mg108 O117 2.048 . S
Mg108 O120 2.141 . S
C109 O110 1.313 . S
C109 O116 1.195 . S
O110 C109 1.313 . S
C111 O112 1.245 . S
C111 O120 1.289 . S
O112 C111 1.245 . S
C113 O114 1.245 . S
C113 O115 1.289 . S
O114 C113 1.245 . S
O115 Mg108 2.141 . S
O115 C113 1.289 . S
O116 Mg108 2.048 . S
O116 C109 1.195 . S
O117 Mg108 2.048 . S
O117 C118 1.195 . S
C118 O117 1.195 . S
C118 O119 1.313 . S
O119 C118 1.313 . S
O120 Mg108 2.141 . S
O120 C111 1.289 . S
Mg121 O128 2.141 . S
Mg121 O129 2.048 . S
Mg121 O130 2.048 . S
Mg121 O133 2.141 . S
C122 O123 1.313 . S
C122 O129 1.195 . S
O123 C122 1.313 . S
C124 O125 1.245 . S
C124 O133 1.289 . S
O125 C124 1.245 . S
C126 O127 1.245 . S
C126 O128 1.289 . S
O127 C126 1.245 . S
O128 Mg121 2.141 . S
O128 C126 1.289 . S
O129 Mg121 2.048 . S
O129 C122 1.195 . S
O130 Mg121 2.048 . S
O130 C131 1.195 . S
C131 O130 1.195 . S
C131 O132 1.313 . S
O132 C131 1.313 . S
O133 Mg121 2.141 . S
O133 C124 1.289 . S
Mg134 O141 2.141 . S
Mg134 O142 2.048 . S
Mg134 O143 2.048 . S
Mg134 O146 2.141 . S
C135 O136 1.313 . S
C135 O142 1.195 . S
O136 C135 1.313 . S
C137 O138 1.245 . S
C137 O146 1.289 . S
O138 C137 1.245 . S
C139 O140 1.245 . S
C139 O141 1.289 . S
O140 C139 1.245 . S
O141 Mg134 2.141 . S
O141 C139 1.289 . S
O142 Mg134 2.048 . S
O142 C135 1.195 . S
O143 Mg134 2.048 . S
O143 C144 1.195 . S
C144 O143 1.195 . S
C144 O145 1.313 . S
O145 C144 1.313 . S
O146 Mg134 2.141 . S
O146 C137 1.289 . S
Mg147 O154 2.141 . S
Mg147 O155 2.048 . S
Mg147 O156 2.048 . S
Mg147 O159 2.141 . S
C148 O149 1.313 . S
C148 O155 1.195 . S
O149 C148 1.313 . S
C150 O151 1.245 . S
C150 O159 1.289 . S
O151 C150 1.245 . S
C152 O153 1.245 . S
C152 O154 1.289 . S
O153 C152 1.245 . S
O154 Mg147 2.141 . S
O154 C152 1.289 . S
O155 Mg147 2.048 . S
O155 C148 1.195 . S
O156 Mg147 2.048 . S
O156 C157 1.195 . S
C157 O156 1.195 . S
C157 O158 1.313 . S
O158 C157 1.313 . S
O159 Mg147 2.141 . S
O159 C150 1.289 . S
Mg160 O167 2.141 . S
Mg160 O168 2.048 . S
Mg160 O169 2.048 . S
Mg160 O172 2.141 . S
C161 O162 1.313 . S
C161 O168 1.195 . S
O162 C161 1.313 . S
C163 O164 1.245 . S
C163 O172 1.289 . S
O164 C163 1.245 . S
C165 O166 1.245 . S
C165 O167 1.289 . S
O166 C165 1.245 . S
O167 Mg160 2.141 . S
O167 C165 1.289 . S
O168 Mg160 2.048 . S
O168 C161 1.195 . S
O169 Mg160 2.048 . S
O169 C170 1.195 . S
C170 O169 1.195 . S
C170 O171 1.313 . S
O171 C170 1.313 . S
O172 Mg160 2.141 . S
O172 C163 1.289 . S
Mg173 O180 2.141 . S
Mg173 O181 2.048 . S
Mg173 O182 2.048 . S
Mg173 O185 2.141 . S
C174 O175 1.313 . S
C174 O181 1.195 . S
O175 C174 1.313 . S
C176 O177 1.245 . S
C176 O185 1.289 . S
O177 C176 1.245 . S
C178 O179 1.245 . S
C178 O180 1.289 . S
O179 C178 1.245 . S
O180 Mg173 2.141 . S
O180 C178 1.289 . S
O181 Mg173 2.048 . S
O181 C174 1.195 . S
O182 Mg173 2.048 . S
O182 C183 1.195 . S
C183 O182 1.195 . S
C183 O184 1.313 . S
O184 C183 1.313 . S
O185 Mg173 2.141 . S
O185 C176 1.289 . S
H186 C194 0.929 . S
H187 C196 0.930 . S
H188 C198 0.930 . S
H189 C201 0.929 . S
H190 C204 0.930 . S
H191 C206 0.960 . S
H192 C206 0.960 . S
H193 C206 0.960 . S
C194 H186 0.929 . S
C194 C195 1.377 . S
C194 C196 1.384 . S
C195 C194 1.377 . S
C195 C201 1.390 . S
C196 H187 0.930 . S
C196 C194 1.384 . S
C196 C197 1.372 . S
C197 C196 1.372 . S
C197 C198 1.400 . S
C197 C202 1.490 . S
C198 H188 0.930 . S
C198 C197 1.400 . S
C198 C201 1.386 . S
H199 C215 0.930 . S
H200 C216 0.931 . S
C201 H189 0.929 . S
C201 C195 1.390 . S
C201 C198 1.386 . S
C202 C197 1.490 . S
C202 C204 1.395 . S
C202 C205 1.403 . S
H203 C209 0.930 . S
C204 H190 0.930 . S
C204 C202 1.395 . S
C204 C207 1.403 . S
C205 C202 1.403 . S
C205 C206 1.524 . S
C205 C209 1.400 . S
C206 H191 0.960 . S
C206 H192 0.960 . S
C206 H193 0.960 . S
C206 C205 1.524 . S
C207 C204 1.403 . S
C207 C208 1.392 . S
C207 C211 1.495 . S
C208 C207 1.392 . S
C208 C209 1.385 . S
C208 C210 1.478 . S
C209 H203 0.930 . S
C209 C205 1.400 . S
C209 C208 1.385 . S
C210 C208 1.478 . S
C210 C212 1.381 . S
C210 C216 1.383 . S
C211 C207 1.495 . S
C211 H217 0.959 . S
C211 H218 0.961 . S
C211 H219 0.960 . S
C212 C210 1.381 . S
C212 C213 1.394 . S
C212 H220 0.930 . S
C213 C212 1.394 . S
C213 C214 1.383 . S
C213 H221 0.929 . S
C214 C213 1.383 . S
C214 C215 1.377 . S
C215 H199 0.930 . S
C215 C214 1.377 . S
C215 C216 1.379 . S
C216 H200 0.931 . S
C216 C210 1.383 . S
C216 C215 1.379 . S
H217 C211 0.959 . S
H218 C211 0.961 . S
H219 C211 0.960 . S
H220 C212 0.930 . S
H221 C213 0.929 . S
H222 C230 0.929 . S
H223 C232 0.930 . S
H224 C234 0.930 . S
H225 C237 0.929 . S
H226 C240 0.930 . S
H227 C242 0.960 . S
H228 C242 0.960 . S
H229 C242 0.960 . S
C230 H222 0.929 . S
C230 C231 1.377 . S
C230 C232 1.384 . S
C231 C230 1.377 . S
C231 C237 1.390 . S
C232 H223 0.930 . S
C232 C230 1.384 . S
C232 C233 1.372 . S
C233 C232 1.372 . S
C233 C234 1.400 . S
C233 C238 1.490 . S
C234 H224 0.930 . S
C234 C233 1.400 . S
C234 C237 1.386 . S
H235 C251 0.930 . S
H236 C252 0.931 . S
C237 H225 0.929 . S
C237 C231 1.390 . S
C237 C234 1.386 . S
C238 C233 1.490 . S
C238 C240 1.395 . S
C238 C241 1.403 . S
H239 C245 0.930 . S
C240 H226 0.930 . S
C240 C238 1.395 . S
C240 C243 1.403 . S
C241 C238 1.403 . S
C241 C242 1.524 . S
C241 C245 1.400 . S
C242 H227 0.960 . S
C242 H228 0.960 . S
C242 H229 0.960 . S
C242 C241 1.524 . S
C243 C240 1.403 . S
C243 C244 1.392 . S
C243 C247 1.495 . S
C244 C243 1.392 . S
C244 C245 1.385 . S
C244 C246 1.478 . S
C245 H239 0.930 . S
C245 C241 1.400 . S
C245 C244 1.385 . S
C246 C244 1.478 . S
C246 C248 1.381 . S
C246 C252 1.383 . S
C247 C243 1.495 . S
C247 H253 0.959 . S
C247 H254 0.961 . S
C247 H255 0.960 . S
C248 C246 1.381 . S
C248 C249 1.394 . S
C248 H256 0.930 . S
C249 C248 1.394 . S
C249 C250 1.383 . S
C249 H257 0.929 . S
C250 C249 1.383 . S
C250 C251 1.377 . S
C251 H235 0.930 . S
C251 C250 1.377 . S
C251 C252 1.379 . S
C252 H236 0.931 . S
C252 C246 1.383 . S
C252 C251 1.379 . S
H253 C247 0.959 . S
H254 C247 0.961 . S
H255 C247 0.960 . S
H256 C248 0.930 . S
H257 C249 0.929 . S
H258 C266 0.929 . S
H259 C268 0.930 . S
H260 C270 0.930 . S
H261 C273 0.929 . S
H262 C276 0.930 . S
H263 C278 0.960 . S
H264 C278 0.960 . S
H265 C278 0.960 . S
C266 H258 0.929 . S
C266 C267 1.377 . S
C266 C268 1.384 . S
C267 C266 1.377 . S
C267 C273 1.390 . S
C268 H259 0.930 . S
C268 C266 1.384 . S
C268 C269 1.372 . S
C269 C268 1.372 . S
C269 C270 1.400 . S
C269 C274 1.490 . S
C270 H260 0.930 . S
C270 C269 1.400 . S
C270 C273 1.386 . S
H271 C287 0.930 . S
H272 C288 0.931 . S
C273 H261 0.929 . S
C273 C267 1.390 . S
C273 C270 1.386 . S
C274 C269 1.490 . S
C274 C276 1.395 . S
C274 C277 1.403 . S
H275 C281 0.930 . S
C276 H262 0.930 . S
C276 C274 1.395 . S
C276 C279 1.403 . S
C277 C274 1.403 . S
C277 C278 1.524 . S
C277 C281 1.400 . S
C278 H263 0.960 . S
C278 H264 0.960 . S
C278 H265 0.960 . S
C278 C277 1.524 . S
C279 C276 1.403 . S
C279 C280 1.392 . S
C279 C283 1.495 . S
C280 C279 1.392 . S
C280 C281 1.385 . S
C280 C282 1.478 . S
C281 H275 0.930 . S
C281 C277 1.400 . S
C281 C280 1.385 . S
C282 C280 1.478 . S
C282 C284 1.381 . S
C282 C288 1.383 . S
C283 C279 1.495 . S
C283 H289 0.959 . S
C283 H290 0.961 . S
C283 H291 0.960 . S
C284 C282 1.381 . S
C284 C285 1.394 . S
C284 H292 0.930 . S
C285 C284 1.394 . S
C285 C286 1.383 . S
C285 H293 0.929 . S
C286 C285 1.383 . S
C286 C287 1.377 . S
C287 H271 0.930 . S
C287 C286 1.377 . S
C287 C288 1.379 . S
C288 H272 0.931 . S
C288 C282 1.383 . S
C288 C287 1.379 . S
H289 C283 0.959 . S
H290 C283 0.961 . S
H291 C283 0.960 . S
H292 C284 0.930 . S
H293 C285 0.929 . S
H294 C302 0.929 . S
H295 C304 0.930 . S
H296 C306 0.930 . S
H297 C309 0.929 . S
H298 C312 0.930 . S
H299 C314 0.960 . S
H300 C314 0.960 . S
H301 C314 0.960 . S
C302 H294 0.929 . S
C302 C303 1.377 . S
C302 C304 1.384 . S
C303 C302 1.377 . S
C303 C309 1.390 . S
C304 H295 0.930 . S
C304 C302 1.384 . S
C304 C305 1.372 . S
C305 C304 1.372 . S
C305 C306 1.400 . S
C305 C310 1.490 . S
C306 H296 0.930 . S
C306 C305 1.400 . S
C306 C309 1.386 . S
H307 C323 0.930 . S
H308 C324 0.931 . S
C309 H297 0.929 . S
C309 C303 1.390 . S
C309 C306 1.386 . S
C310 C305 1.490 . S
C310 C312 1.395 . S
C310 C313 1.403 . S
H311 C317 0.930 . S
C312 H298 0.930 . S
C312 C310 1.395 . S
C312 C315 1.403 . S
C313 C310 1.403 . S
C313 C314 1.524 . S
C313 C317 1.400 . S
C314 H299 0.960 . S
C314 H300 0.960 . S
C314 H301 0.960 . S
C314 C313 1.524 . S
C315 C312 1.403 . S
C315 C316 1.392 . S
C315 C319 1.495 . S
C316 C315 1.392 . S
C316 C317 1.385 . S
C316 C318 1.478 . S
C317 H311 0.930 . S
C317 C313 1.400 . S
C317 C316 1.385 . S
C318 C316 1.478 . S
C318 C320 1.381 . S
C318 C324 1.383 . S
C319 C315 1.495 . S
C319 H325 0.959 . S
C319 H326 0.961 . S
C319 H327 0.960 . S
C320 C318 1.381 . S
C320 C321 1.394 . S
C320 H328 0.930 . S
C321 C320 1.394 . S
C321 C322 1.383 . S
C321 H329 0.929 . S
C322 C321 1.383 . S
C322 C323 1.377 . S
C323 H307 0.930 . S
C323 C322 1.377 . S
C323 C324 1.379 . S
C324 H308 0.931 . S
C324 C318 1.383 . S
C324 C323 1.379 . S
H325 C319 0.959 . S
H326 C319 0.961 . S
H327 C319 0.960 . S
H328 C320 0.930 . S
H329 C321 0.929 . S
H330 C338 0.929 . S
H331 C340 0.930 . S
H332 C342 0.930 . S
H333 C345 0.929 . S
H334 C348 0.930 . S
H335 C350 0.960 . S
H336 C350 0.960 . S
H337 C350 0.960 . S
C338 H330 0.929 . S
C338 C339 1.377 . S
C338 C340 1.384 . S
C339 C338 1.377 . S
C339 C345 1.390 . S
C340 H331 0.930 . S
C340 C338 1.384 . S
C340 C341 1.372 . S
C341 C340 1.372 . S
C341 C342 1.400 . S
C341 C346 1.490 . S
C342 H332 0.930 . S
C342 C341 1.400 . S
C342 C345 1.386 . S
H343 C359 0.930 . S
H344 C360 0.931 . S
C345 H333 0.929 . S
C345 C339 1.390 . S
C345 C342 1.386 . S
C346 C341 1.490 . S
C346 C348 1.395 . S
C346 C349 1.403 . S
H347 C353 0.930 . S
C348 H334 0.930 . S
C348 C346 1.395 . S
C348 C351 1.403 . S
C349 C346 1.403 . S
C349 C350 1.524 . S
C349 C353 1.400 . S
C350 H335 0.960 . S
C350 H336 0.960 . S
C350 H337 0.960 . S
C350 C349 1.524 . S
C351 C348 1.403 . S
C351 C352 1.392 . S
C351 C355 1.495 . S
C352 C351 1.392 . S
C352 C353 1.385 . S
C352 C354 1.478 . S
C353 H347 0.930 . S
C353 C349 1.400 . S
C353 C352 1.385 . S
C354 C352 1.478 . S
C354 C356 1.381 . S
C354 C360 1.383 . S
C355 C351 1.495 . S
C355 H361 0.959 . S
C355 H362 0.961 . S
C355 H363 0.960 . S
C356 C354 1.381 . S
C356 C357 1.394 . S
C356 H364 0.930 . S
C357 C356 1.394 . S
C357 C358 1.383 . S
C357 H365 0.929 . S
C358 C357 1.383 . S
C358 C359 1.377 . S
C359 H343 0.930 . S
C359 C358 1.377 . S
C359 C360 1.379 . S
C360 H344 0.931 . S
C360 C354 1.383 . S
C360 C359 1.379 . S
H361 C355 0.959 . S
H362 C355 0.961 . S
H363 C355 0.960 . S
H364 C356 0.930 . S
H365 C357 0.929 . S
H366 C374 0.929 . S
H367 C376 0.930 . S
H368 C378 0.930 . S
H369 C381 0.929 . S
H370 C384 0.930 . S
H371 C386 0.960 . S
H372 C386 0.960 . S
H373 C386 0.960 . S
C374 H366 0.929 . S
C374 C375 1.377 . S
C374 C376 1.384 . S
C375 C374 1.377 . S
C375 C381 1.390 . S
C376 H367 0.930 . S
C376 C374 1.384 . S
C376 C377 1.372 . S
C377 C376 1.372 . S
C377 C378 1.400 . S
C377 C382 1.490 . S
C378 H368 0.930 . S
C378 C377 1.400 . S
C378 C381 1.386 . S
H379 C395 0.930 . S
H380 C396 0.931 . S
C381 H369 0.929 . S
C381 C375 1.390 . S
C381 C378 1.386 . S
C382 C377 1.490 . S
C382 C384 1.395 . S
C382 C385 1.403 . S
H383 C389 0.930 . S
C384 H370 0.930 . S
C384 C382 1.395 . S
C384 C387 1.403 . S
C385 C382 1.403 . S
C385 C386 1.524 . S
C385 C389 1.400 . S
C386 H371 0.960 . S
C386 H372 0.960 . S
C386 H373 0.960 . S
C386 C385 1.524 . S
C387 C384 1.403 . S
C387 C388 1.392 . S
C387 C391 1.495 . S
C388 C387 1.392 . S
C388 C389 1.385 . S
C388 C390 1.478 . S
C389 H383 0.930 . S
C389 C385 1.400 . S
C389 C388 1.385 . S
C390 C388 1.478 . S
C390 C392 1.381 . S
C390 C396 1.383 . S
C391 C387 1.495 . S
C391 H397 0.959 . S
C391 H398 0.961 . S
C391 H399 0.960 . S
C392 C390 1.381 . S
C392 C393 1.394 . S
C392 H400 0.930 . S
C393 C392 1.394 . S
C393 C394 1.383 . S
C393 H401 0.929 . S
C394 C393 1.383 . S
C394 C395 1.377 . S
C395 H379 0.930 . S
C395 C394 1.377 . S
C395 C396 1.379 . S
C396 H380 0.931 . S
C396 C390 1.383 . S
C396 C395 1.379 . S
H397 C391 0.959 . S
H398 C391 0.961 . S
H399 C391 0.960 . S
H400 C392 0.930 . S
H401 C393 0.929 . S
H402 C410 0.929 . S
H403 C412 0.930 . S
H404 C414 0.930 . S
H405 C417 0.929 . S
H406 C420 0.930 . S
H407 C422 0.960 . S
H408 C422 0.960 . S
H409 C422 0.960 . S
C410 H402 0.929 . S
C410 C411 1.377 . S
C410 C412 1.384 . S
C411 C410 1.377 . S
C411 C417 1.390 . S
C412 H403 0.930 . S
C412 C410 1.384 . S
C412 C413 1.372 . S
C413 C412 1.372 . S
C413 C414 1.400 . S
C413 C418 1.490 . S
C414 H404 0.930 . S
C414 C413 1.400 . S
C414 C417 1.386 . S
H415 C431 0.930 . S
H416 C432 0.931 . S
C417 H405 0.929 . S
C417 C411 1.390 . S
C417 C414 1.386 . S
C418 C413 1.490 . S
C418 C420 1.395 . S
C418 C421 1.403 . S
H419 C425 0.930 . S
C420 H406 0.930 . S
C420 C418 1.395 . S
C420 C423 1.403 . S
C421 C418 1.403 . S
C421 C422 1.524 . S
C421 C425 1.400 . S
C422 H407 0.960 . S
C422 H408 0.960 . S
C422 H409 0.960 . S
C422 C421 1.524 . S
C423 C420 1.403 . S
C423 C424 1.392 . S
C423 C427 1.495 . S
C424 C423 1.392 . S
C424 C425 1.385 . S
C424 C426 1.478 . S
C425 H419 0.930 . S
C425 C421 1.400 . S
C425 C424 1.385 . S
C426 C424 1.478 . S
C426 C428 1.381 . S
C426 C432 1.383 . S
C427 C423 1.495 . S
C427 H433 0.959 . S
C427 H434 0.961 . S
C427 H435 0.960 . S
C428 C426 1.381 . S
C428 C429 1.394 . S
C428 H436 0.930 . S
C429 C428 1.394 . S
C429 C430 1.383 . S
C429 H437 0.929 . S
C430 C429 1.383 . S
C430 C431 1.377 . S
C431 H415 0.930 . S
C431 C430 1.377 . S
C431 C432 1.379 . S
C432 H416 0.931 . S
C432 C426 1.383 . S
C432 C431 1.379 . S
H433 C427 0.959 . S
H434 C427 0.961 . S
H435 C427 0.960 . S
H436 C428 0.930 . S
H437 C429 0.929 . S
H438 C446 0.929 . S
H439 C448 0.930 . S
H440 C450 0.930 . S
H441 C453 0.929 . S
H442 C456 0.930 . S
H443 C458 0.960 . S
H444 C458 0.960 . S
H445 C458 0.960 . S
C446 H438 0.929 . S
C446 C447 1.377 . S
C446 C448 1.384 . S
C447 C446 1.377 . S
C447 C453 1.390 . S
C448 H439 0.930 . S
C448 C446 1.384 . S
C448 C449 1.372 . S
C449 C448 1.372 . S
C449 C450 1.400 . S
C449 C454 1.490 . S
C450 H440 0.930 . S
C450 C449 1.400 . S
C450 C453 1.386 . S
H451 C467 0.930 . S
H452 C468 0.931 . S
C453 H441 0.929 . S
C453 C447 1.390 . S
C453 C450 1.386 . S
C454 C449 1.490 . S
C454 C456 1.395 . S
C454 C457 1.403 . S
H455 C461 0.930 . S
C456 H442 0.930 . S
C456 C454 1.395 . S
C456 C459 1.403 . S
C457 C454 1.403 . S
C457 C458 1.524 . S
C457 C461 1.400 . S
C458 H443 0.960 . S
C458 H444 0.960 . S
C458 H445 0.960 . S
C458 C457 1.524 . S
C459 C456 1.403 . S
C459 C460 1.392 . S
C459 C463 1.495 . S
C460 C459 1.392 . S
C460 C461 1.385 . S
C460 C462 1.478 . S
C461 H455 0.930 . S
C461 C457 1.400 . S
C461 C460 1.385 . S
C462 C460 1.478 . S
C462 C464 1.381 . S
C462 C468 1.383 . S
C463 C459 1.495 . S
C463 H469 0.959 . S
C463 H470 0.961 . S
C463 H471 0.960 . S
C464 C462 1.381 . S
C464 C465 1.394 . S
C464 H472 0.930 . S
C465 C464 1.394 . S
C465 C466 1.383 . S
C465 H473 0.929 . S
C466 C465 1.383 . S
C466 C467 1.377 . S
C467 H451 0.930 . S
C467 C466 1.377 . S
C467 C468 1.379 . S
C468 H452 0.931 . S
C468 C462 1.383 . S
C468 C467 1.379 . S
H469 C463 0.959 . S
H470 C463 0.961 . S
H471 C463 0.960 . S
H472 C464 0.930 . S
H473 C465 0.929 . S
H474 C482 0.929 . S
H475 C484 0.930 . S
H476 C486 0.930 . S
H477 C489 0.929 . S
H478 C492 0.930 . S
H479 C494 0.960 . S
H480 C494 0.960 . S
H481 C494 0.960 . S
C482 H474 0.929 . S
C482 C483 1.377 . S
C482 C484 1.384 . S
C483 C482 1.377 . S
C483 C489 1.390 . S
C484 H475 0.930 . S
C484 C482 1.384 . S
C484 C485 1.372 . S
C485 C484 1.372 . S
C485 C486 1.400 . S
C485 C490 1.490 . S
C486 H476 0.930 . S
C486 C485 1.400 . S
C486 C489 1.386 . S
H487 C503 0.930 . S
H488 C504 0.931 . S
C489 H477 0.929 . S
C489 C483 1.390 . S
C489 C486 1.386 . S
C490 C485 1.490 . S
C490 C492 1.395 . S
C490 C493 1.403 . S
H491 C497 0.930 . S
C492 H478 0.930 . S
C492 C490 1.395 . S
C492 C495 1.403 . S
C493 C490 1.403 . S
C493 C494 1.524 . S
C493 C497 1.400 . S
C494 H479 0.960 . S
C494 H480 0.960 . S
C494 H481 0.960 . S
C494 C493 1.524 . S
C495 C492 1.403 . S
C495 C496 1.392 . S
C495 C499 1.495 . S
C496 C495 1.392 . S
C496 C497 1.385 . S
C496 C498 1.478 . S
C497 H491 0.930 . S
C497 C493 1.400 . S
C497 C496 1.385 . S
C498 C496 1.478 . S
C498 C500 1.381 . S
C498 C504 1.383 . S
C499 C495 1.495 . S
C499 H505 0.959 . S
C499 H506 0.961 . S
C499 H507 0.960 . S
C500 C498 1.381 . S
C500 C501 1.394 . S
C500 H508 0.930 . S
C501 C500 1.394 . S
C501 C502 1.383 . S
C501 H509 0.929 . S
C502 C501 1.383 . S
C502 C503 1.377 . S
C503 H487 0.930 . S
C503 C502 1.377 . S
C503 C504 1.379 . S
C504 H488 0.931 . S
C504 C498 1.383 . S
C504 C503 1.379 . S
H505 C499 0.959 . S
H506 C499 0.961 . S
H507 C499 0.960 . S
H508 C500 0.930 . S
H509 C501 0.929 . S
H510 C518 0.929 . S
H511 C520 0.930 . S
H512 C522 0.930 . S
H513 C525 0.929 . S
H514 C528 0.930 . S
H515 C530 0.960 . S
H516 C530 0.960 . S
H517 C530 0.960 . S
C518 H510 0.929 . S
C518 C519 1.377 . S
C518 C520 1.384 . S
C519 C518 1.377 . S
C519 C525 1.390 . S
C520 H511 0.930 . S
C520 C518 1.384 . S
C520 C521 1.372 . S
C521 C520 1.372 . S
C521 C522 1.400 . S
C521 C526 1.490 . S
C522 H512 0.930 . S
C522 C521 1.400 . S
C522 C525 1.386 . S
H523 C539 0.930 . S
H524 C540 0.931 . S
C525 H513 0.929 . S
C525 C519 1.390 . S
C525 C522 1.386 . S
C526 C521 1.490 . S
C526 C528 1.395 . S
C526 C529 1.403 . S
H527 C533 0.930 . S
C528 H514 0.930 . S
C528 C526 1.395 . S
C528 C531 1.403 . S
C529 C526 1.403 . S
C529 C530 1.524 . S
C529 C533 1.400 . S
C530 H515 0.960 . S
C530 H516 0.960 . S
C530 H517 0.960 . S
C530 C529 1.524 . S
C531 C528 1.403 . S
C531 C532 1.392 . S
C531 C535 1.495 . S
C532 C531 1.392 . S
C532 C533 1.385 . S
C532 C534 1.478 . S
C533 H527 0.930 . S
C533 C529 1.400 . S
C533 C532 1.385 . S
C534 C532 1.478 . S
C534 C536 1.381 . S
C534 C540 1.383 . S
C535 C531 1.495 . S
C535 H541 0.959 . S
C535 H542 0.961 . S
C535 H543 0.960 . S
C536 C534 1.381 . S
C536 C537 1.394 . S
C536 H544 0.930 . S
C537 C536 1.394 . S
C537 C538 1.383 . S
C537 H545 0.929 . S
C538 C537 1.383 . S
C538 C539 1.377 . S
C539 H523 0.930 . S
C539 C538 1.377 . S
C539 C540 1.379 . S
C540 H524 0.931 . S
C540 C534 1.383 . S
C540 C539 1.379 . S
H541 C535 0.959 . S
H542 C535 0.961 . S
H543 C535 0.960 . S
H544 C536 0.930 . S
H545 C537 0.929 . S
H546 C554 0.929 . S
H547 C556 0.930 . S
H548 C558 0.930 . S
H549 C561 0.929 . S
H550 C564 0.930 . S
H551 C566 0.960 . S
H552 C566 0.960 . S
H553 C566 0.960 . S
C554 H546 0.929 . S
C554 C555 1.377 . S
C554 C556 1.384 . S
C555 C554 1.377 . S
C555 C561 1.390 . S
C556 H547 0.930 . S
C556 C554 1.384 . S
C556 C557 1.372 . S
C557 C556 1.372 . S
C557 C558 1.400 . S
C557 C562 1.490 . S
C558 H548 0.930 . S
C558 C557 1.400 . S
C558 C561 1.386 . S
H559 C575 0.930 . S
H560 C576 0.931 . S
C561 H549 0.929 . S
C561 C555 1.390 . S
C561 C558 1.386 . S
C562 C557 1.490 . S
C562 C564 1.395 . S
C562 C565 1.403 . S
H563 C569 0.930 . S
C564 H550 0.930 . S
C564 C562 1.395 . S
C564 C567 1.403 . S
C565 C562 1.403 . S
C565 C566 1.524 . S
C565 C569 1.400 . S
C566 H551 0.960 . S
C566 H552 0.960 . S
C566 H553 0.960 . S
C566 C565 1.524 . S
C567 C564 1.403 . S
C567 C568 1.392 . S
C567 C571 1.495 . S
C568 C567 1.392 . S
C568 C569 1.385 . S
C568 C570 1.478 . S
C569 H563 0.930 . S
C569 C565 1.400 . S
C569 C568 1.385 . S
C570 C568 1.478 . S
C570 C572 1.381 . S
C570 C576 1.383 . S
C571 C567 1.495 . S
C571 H577 0.959 . S
C571 H578 0.961 . S
C571 H579 0.960 . S
C572 C570 1.381 . S
C572 C573 1.394 . S
C572 H580 0.930 . S
C573 C572 1.394 . S
C573 C574 1.383 . S
C573 H581 0.929 . S
C574 C573 1.383 . S
C574 C575 1.377 . S
C575 H559 0.930 . S
C575 C574 1.377 . S
C575 C576 1.379 . S
C576 H560 0.931 . S
C576 C570 1.383 . S
C576 C575 1.379 . S
H577 C571 0.959 . S
H578 C571 0.961 . S
H579 C571 0.960 . S
H580 C572 0.930 . S
H581 C573 0.929 . S
H582 C590 0.929 . S
H583 C592 0.930 . S
H584 C594 0.930 . S
H585 C597 0.929 . S
H586 C600 0.930 . S
H587 C602 0.960 . S
H588 C602 0.960 . S
H589 C602 0.960 . S
C590 H582 0.929 . S
C590 C591 1.377 . S
C590 C592 1.384 . S
C591 C590 1.377 . S
C591 C597 1.390 . S
C592 H583 0.930 . S
C592 C590 1.384 . S
C592 C593 1.372 . S
C593 C592 1.372 . S
C593 C594 1.400 . S
C593 C598 1.490 . S
C594 H584 0.930 . S
C594 C593 1.400 . S
C594 C597 1.386 . S
H595 C611 0.930 . S
H596 C612 0.931 . S
C597 H585 0.929 . S
C597 C591 1.390 . S
C597 C594 1.386 . S
C598 C593 1.490 . S
C598 C600 1.395 . S
C598 C601 1.403 . S
H599 C605 0.930 . S
C600 H586 0.930 . S
C600 C598 1.395 . S
C600 C603 1.403 . S
C601 C598 1.403 . S
C601 C602 1.524 . S
C601 C605 1.400 . S
C602 H587 0.960 . S
C602 H588 0.960 . S
C602 H589 0.960 . S
C602 C601 1.524 . S
C603 C600 1.403 . S
C603 C604 1.392 . S
C603 C607 1.495 . S
C604 C603 1.392 . S
C604 C605 1.385 . S
C604 C606 1.478 . S
C605 H599 0.930 . S
C605 C601 1.400 . S
C605 C604 1.385 . S
C606 C604 1.478 . S
C606 C608 1.381 . S
C606 C612 1.383 . S
C607 C603 1.495 . S
C607 H613 0.959 . S
C607 H614 0.961 . S
C607 H615 0.960 . S
C608 C606 1.381 . S
C608 C609 1.394 . S
C608 H616 0.930 . S
C609 C608 1.394 . S
C609 C610 1.383 . S
C609 H617 0.929 . S
C610 C609 1.383 . S
C610 C611 1.377 . S
C611 H595 0.930 . S
C611 C610 1.377 . S
C611 C612 1.379 . S
C612 H596 0.931 . S
C612 C606 1.383 . S
C612 C611 1.379 . S
H613 C607 0.959 . S
H614 C607 0.961 . S
H615 C607 0.960 . S
H616 C608 0.930 . S
H617 C609 0.929 . S
H618 C626 0.929 . S
H619 C628 0.930 . S
H620 C630 0.930 . S
H621 C633 0.929 . S
H622 C636 0.930 . S
H623 C638 0.960 . S
H624 C638 0.960 . S
H625 C638 0.960 . S
C626 H618 0.929 . S
C626 C627 1.377 . S
C626 C628 1.384 . S
C627 C626 1.377 . S
C627 C633 1.390 . S
C628 H619 0.930 . S
C628 C626 1.384 . S
C628 C629 1.372 . S
C629 C628 1.372 . S
C629 C630 1.400 . S
C629 C634 1.490 . S
C630 H620 0.930 . S
C630 C629 1.400 . S
C630 C633 1.386 . S
H631 C647 0.930 . S
H632 C648 0.931 . S
C633 H621 0.929 . S
C633 C627 1.390 . S
C633 C630 1.386 . S
C634 C629 1.490 . S
C634 C636 1.395 . S
C634 C637 1.403 . S
H635 C641 0.930 . S
C636 H622 0.930 . S
C636 C634 1.395 . S
C636 C639 1.403 . S
C637 C634 1.403 . S
C637 C638 1.524 . S
C637 C641 1.400 . S
C638 H623 0.960 . S
C638 H624 0.960 . S
C638 H625 0.960 . S
C638 C637 1.524 . S
C639 C636 1.403 . S
C639 C640 1.392 . S
C639 C643 1.495 . S
C640 C639 1.392 . S
C640 C641 1.385 . S
C640 C642 1.478 . S
C641 H635 0.930 . S
C641 C637 1.400 . S
C641 C640 1.385 . S
C642 C640 1.478 . S
C642 C644 1.381 . S
C642 C648 1.383 . S
C643 C639 1.495 . S
C643 H649 0.959 . S
C643 H650 0.961 . S
C643 H651 0.960 . S
C644 C642 1.381 . S
C644 C645 1.394 . S
C644 H652 0.930 . S
C645 C644 1.394 . S
C645 C646 1.383 . S
C645 H653 0.929 . S
C646 C645 1.383 . S
C646 C647 1.377 . S
C647 H631 0.930 . S
C647 C646 1.377 . S
C647 C648 1.379 . S
C648 H632 0.931 . S
C648 C642 1.383 . S
C648 C647 1.379 . S
H649 C643 0.959 . S
H650 C643 0.961 . S
H651 C643 0.960 . S
H652 C644 0.930 . S
H653 C645 0.929 . S
H654 C662 0.929 . S
H655 C664 0.930 . S
H656 C666 0.930 . S
H657 C669 0.929 . S
H658 C672 0.930 . S
H659 C674 0.960 . S
H660 C674 0.960 . S
H661 C674 0.960 . S
C662 H654 0.929 . S
C662 C663 1.377 . S
C662 C664 1.384 . S
C663 C662 1.377 . S
C663 C669 1.390 . S
C664 H655 0.930 . S
C664 C662 1.384 . S
C664 C665 1.372 . S
C665 C664 1.372 . S
C665 C666 1.400 . S
C665 C670 1.490 . S
C666 H656 0.930 . S
C666 C665 1.400 . S
C666 C669 1.386 . S
H667 C683 0.930 . S
H668 C684 0.931 . S
C669 H657 0.929 . S
C669 C663 1.390 . S
C669 C666 1.386 . S
C670 C665 1.490 . S
C670 C672 1.395 . S
C670 C673 1.403 . S
H671 C677 0.930 . S
C672 H658 0.930 . S
C672 C670 1.395 . S
C672 C675 1.403 . S
C673 C670 1.403 . S
C673 C674 1.524 . S
C673 C677 1.400 . S
C674 H659 0.960 . S
C674 H660 0.960 . S
C674 H661 0.960 . S
C674 C673 1.524 . S
C675 C672 1.403 . S
C675 C676 1.392 . S
C675 C679 1.495 . S
C676 C675 1.392 . S
C676 C677 1.385 . S
C676 C678 1.478 . S
C677 H671 0.930 . S
C677 C673 1.400 . S
C677 C676 1.385 . S
C678 C676 1.478 . S
C678 C680 1.381 . S
C678 C684 1.383 . S
C679 C675 1.495 . S
C679 H685 0.959 . S
C679 H686 0.961 . S
C679 H687 0.960 . S
C680 C678 1.381 . S
C680 C681 1.394 . S
C680 H688 0.930 . S
C681 C680 1.394 . S
C681 C682 1.383 . S
C681 H689 0.929 . S
C682 C681 1.383 . S
C682 C683 1.377 . S
C683 H667 0.930 . S
C683 C682 1.377 . S
C683 C684 1.379 . S
C684 H668 0.931 . S
C684 C678 1.383 . S
C684 C683 1.379 . S
H685 C679 0.959 . S
H686 C679 0.961 . S
H687 C679 0.960 . S
H688 C680 0.930 . S
H689 C681 0.929 . S
H690 C698 0.929 . S
H691 C700 0.930 . S
H692 C702 0.930 . S
H693 C705 0.929 . S
H694 C708 0.930 . S
H695 C710 0.960 . S
H696 C710 0.960 . S
H697 C710 0.960 . S
C698 H690 0.929 . S
C698 C699 1.377 . S
C698 C700 1.384 . S
C699 C698 1.377 . S
C699 C705 1.390 . S
C700 H691 0.930 . S
C700 C698 1.384 . S
C700 C701 1.372 . S
C701 C700 1.372 . S
C701 C702 1.400 . S
C701 C706 1.490 . S
C702 H692 0.930 . S
C702 C701 1.400 . S
C702 C705 1.386 . S
H703 C719 0.930 . S
H704 C720 0.931 . S
C705 H693 0.929 . S
C705 C699 1.390 . S
C705 C702 1.386 . S
C706 C701 1.490 . S
C706 C708 1.395 . S
C706 C709 1.403 . S
H707 C713 0.930 . S
C708 H694 0.930 . S
C708 C706 1.395 . S
C708 C711 1.403 . S
C709 C706 1.403 . S
C709 C710 1.524 . S
C709 C713 1.400 . S
C710 H695 0.960 . S
C710 H696 0.960 . S
C710 H697 0.960 . S
C710 C709 1.524 . S
C711 C708 1.403 . S
C711 C712 1.392 . S
C711 C715 1.495 . S
C712 C711 1.392 . S
C712 C713 1.385 . S
C712 C714 1.478 . S
C713 H707 0.930 . S
C713 C709 1.400 . S
C713 C712 1.385 . S
C714 C712 1.478 . S
C714 C716 1.381 . S
C714 C720 1.383 . S
C715 C711 1.495 . S
C715 H721 0.959 . S
C715 H722 0.961 . S
C715 H723 0.960 . S
C716 C714 1.381 . S
C716 C717 1.394 . S
C716 H724 0.930 . S
C717 C716 1.394 . S
C717 C718 1.383 . S
C717 H725 0.929 . S
C718 C717 1.383 . S
C718 C719 1.377 . S
C719 H703 0.930 . S
C719 C718 1.377 . S
C719 C720 1.379 . S
C720 H704 0.931 . S
C720 C714 1.383 . S
C720 C719 1.379 . S
H721 C715 0.959 . S
H722 C715 0.961 . S
H723 C715 0.960 . S
H724 C716 0.930 . S
H725 C717 0.929 . S
H726 C734 0.929 . S
H727 C736 0.930 . S
H728 C738 0.930 . S
H729 C741 0.929 . S
H730 C744 0.930 . S
H731 C746 0.960 . S
H732 C746 0.960 . S
H733 C746 0.960 . S
C734 H726 0.929 . S
C734 C735 1.377 . S
C734 C736 1.384 . S
C735 C734 1.377 . S
C735 C741 1.390 . S
C736 H727 0.930 . S
C736 C734 1.384 . S
C736 C737 1.372 . S
C737 C736 1.372 . S
C737 C738 1.400 . S
C737 C742 1.490 . S
C738 H728 0.930 . S
C738 C737 1.400 . S
C738 C741 1.386 . S
H739 C755 0.930 . S
H740 C756 0.931 . S
C741 H729 0.929 . S
C741 C735 1.390 . S
C741 C738 1.386 . S
C742 C737 1.490 . S
C742 C744 1.395 . S
C742 C745 1.403 . S
H743 C749 0.930 . S
C744 H730 0.930 . S
C744 C742 1.395 . S
C744 C747 1.403 . S
C745 C742 1.403 . S
C745 C746 1.524 . S
C745 C749 1.400 . S
C746 H731 0.960 . S
C746 H732 0.960 . S
C746 H733 0.960 . S
C746 C745 1.524 . S
C747 C744 1.403 . S
C747 C748 1.392 . S
C747 C751 1.495 . S
C748 C747 1.392 . S
C748 C749 1.385 . S
C748 C750 1.478 . S
C749 H743 0.930 . S
C749 C745 1.400 . S
C749 C748 1.385 . S
C750 C748 1.478 . S
C750 C752 1.381 . S
C750 C756 1.383 . S
C751 C747 1.495 . S
C751 H757 0.959 . S
C751 H758 0.961 . S
C751 H759 0.960 . S
C752 C750 1.381 . S
C752 C753 1.394 . S
C752 H760 0.930 . S
C753 C752 1.394 . S
C753 C754 1.383 . S
C753 H761 0.929 . S
C754 C753 1.383 . S
C754 C755 1.377 . S
C755 H739 0.930 . S
C755 C754 1.377 . S
C755 C756 1.379 . S
C756 H740 0.931 . S
C756 C750 1.383 . S
C756 C755 1.379 . S
H757 C751 0.959 . S
H758 C751 0.961 . S
H759 C751 0.960 . S
H760 C752 0.930 . S
H761 C753 0.929 . S
H762 C770 0.929 . S
H763 C772 0.930 . S
H764 C774 0.930 . S
H765 C777 0.929 . S
H766 C780 0.930 . S
H767 C782 0.960 . S
H768 C782 0.960 . S
H769 C782 0.960 . S
C770 H762 0.929 . S
C770 C771 1.377 . S
C770 C772 1.384 . S
C771 C770 1.377 . S
C771 C777 1.390 . S
C772 H763 0.930 . S
C772 C770 1.384 . S
C772 C773 1.372 . S
C773 C772 1.372 . S
C773 C774 1.400 . S
C773 C778 1.490 . S
C774 H764 0.930 . S
C774 C773 1.400 . S
C774 C777 1.386 . S
H775 C791 0.930 . S
H776 C792 0.931 . S
C777 H765 0.929 . S
C777 C771 1.390 . S
C777 C774 1.386 . S
C778 C773 1.490 . S
C778 C780 1.395 . S
C778 C781 1.403 . S
H779 C785 0.930 . S
C780 H766 0.930 . S
C780 C778 1.395 . S
C780 C783 1.403 . S
C781 C778 1.403 . S
C781 C782 1.524 . S
C781 C785 1.400 . S
C782 H767 0.960 . S
C782 H768 0.960 . S
C782 H769 0.960 . S
C782 C781 1.524 . S
C783 C780 1.403 . S
C783 C784 1.392 . S
C783 C787 1.495 . S
C784 C783 1.392 . S
C784 C785 1.385 . S
C784 C786 1.478 . S
C785 H779 0.930 . S
C785 C781 1.400 . S
C785 C784 1.385 . S
C786 C784 1.478 . S
C786 C788 1.381 . S
C786 C792 1.383 . S
C787 C783 1.495 . S
C787 H793 0.959 . S
C787 H794 0.961 . S
C787 H795 0.960 . S
C788 C786 1.381 . S
C788 C789 1.394 . S
C788 H796 0.930 . S
C789 C788 1.394 . S
C789 C790 1.383 . S
C789 H797 0.929 . S
C790 C789 1.383 . S
C790 C791 1.377 . S
C791 H775 0.930 . S
C791 C790 1.377 . S
C791 C792 1.379 . S
C792 H776 0.931 . S
C792 C786 1.383 . S
C792 C791 1.379 . S
H793 C787 0.959 . S
H794 C787 0.961 . S
H795 C787 0.960 . S
H796 C788 0.930 . S
H797 C789 0.929 . S
H798 C806 0.929 . S
H799 C808 0.930 . S
H800 C810 0.930 . S
H801 C813 0.929 . S
H802 C816 0.930 . S
H803 C818 0.960 . S
H804 C818 0.960 . S
H805 C818 0.960 . S
C806 H798 0.929 . S
C806 C807 1.377 . S
C806 C808 1.384 . S
C807 C806 1.377 . S
C807 C813 1.390 . S
C808 H799 0.930 . S
C808 C806 1.384 . S
C808 C809 1.372 . S
C809 C808 1.372 . S
C809 C810 1.400 . S
C809 C814 1.490 . S
C810 H800 0.930 . S
C810 C809 1.400 . S
C810 C813 1.386 . S
H811 C827 0.930 . S
H812 C828 0.931 . S
C813 H801 0.929 . S
C813 C807 1.390 . S
C813 C810 1.386 . S
C814 C809 1.490 . S
C814 C816 1.395 . S
C814 C817 1.403 . S
H815 C821 0.930 . S
C816 H802 0.930 . S
C816 C814 1.395 . S
C816 C819 1.403 . S
C817 C814 1.403 . S
C817 C818 1.524 . S
C817 C821 1.400 . S
C818 H803 0.960 . S
C818 H804 0.960 . S
C818 H805 0.960 . S
C818 C817 1.524 . S
C819 C816 1.403 . S
C819 C820 1.392 . S
C819 C823 1.495 . S
C820 C819 1.392 . S
C820 C821 1.385 . S
C820 C822 1.478 . S
C821 H815 0.930 . S
C821 C817 1.400 . S
C821 C820 1.385 . S
C822 C820 1.478 . S
C822 C824 1.381 . S
C822 C828 1.383 . S
C823 C819 1.495 . S
C823 H829 0.959 . S
C823 H830 0.961 . S
C823 H831 0.960 . S
C824 C822 1.381 . S
C824 C825 1.394 . S
C824 H832 0.930 . S
C825 C824 1.394 . S
C825 C826 1.383 . S
C825 H833 0.929 . S
C826 C825 1.383 . S
C826 C827 1.377 . S
C827 H811 0.930 . S
C827 C826 1.377 . S
C827 C828 1.379 . S
C828 H812 0.931 . S
C828 C822 1.383 . S
C828 C827 1.379 . S
H829 C823 0.959 . S
H830 C823 0.961 . S
H831 C823 0.960 . S
H832 C824 0.930 . S
H833 C825 0.929 . S
H834 C842 0.929 . S
H835 C844 0.930 . S
H836 C846 0.930 . S
H837 C849 0.929 . S
H838 C852 0.930 . S
H839 C854 0.960 . S
H840 C854 0.960 . S
H841 C854 0.960 . S
C842 H834 0.929 . S
C842 C843 1.377 . S
C842 C844 1.384 . S
C843 C842 1.377 . S
C843 C849 1.390 . S
C844 H835 0.930 . S
C844 C842 1.384 . S
C844 C845 1.372 . S
C845 C844 1.372 . S
C845 C846 1.400 . S
C845 C850 1.490 . S
C846 H836 0.930 . S
C846 C845 1.400 . S
C846 C849 1.386 . S
H847 C863 0.930 . S
H848 C864 0.931 . S
C849 H837 0.929 . S
C849 C843 1.390 . S
C849 C846 1.386 . S
C850 C845 1.490 . S
C850 C852 1.395 . S
C850 C853 1.403 . S
H851 C857 0.930 . S
C852 H838 0.930 . S
C852 C850 1.395 . S
C852 C855 1.403 . S
C853 C850 1.403 . S
C853 C854 1.524 . S
C853 C857 1.400 . S
C854 H839 0.960 . S
C854 H840 0.960 . S
C854 H841 0.960 . S
C854 C853 1.524 . S
C855 C852 1.403 . S
C855 C856 1.392 . S
C855 C859 1.495 . S
C856 C855 1.392 . S
C856 C857 1.385 . S
C856 C858 1.478 . S
C857 H851 0.930 . S
C857 C853 1.400 . S
C857 C856 1.385 . S
C858 C856 1.478 . S
C858 C860 1.381 . S
C858 C864 1.383 . S
C859 C855 1.495 . S
C859 H865 0.959 . S
C859 H866 0.961 . S
C859 H867 0.960 . S
C860 C858 1.381 . S
C860 C861 1.394 . S
C860 H868 0.930 . S
C861 C860 1.394 . S
C861 C862 1.383 . S
C861 H869 0.929 . S
C862 C861 1.383 . S
C862 C863 1.377 . S
C863 H847 0.930 . S
C863 C862 1.377 . S
C863 C864 1.379 . S
C864 H848 0.931 . S
C864 C858 1.383 . S
C864 C863 1.379 . S
H865 C859 0.959 . S
H866 C859 0.961 . S
H867 C859 0.960 . S
H868 C860 0.930 . S
H869 C861 0.929 . S
H870 C878 0.929 . S
H871 C880 0.930 . S
H872 C882 0.930 . S
H873 C885 0.929 . S
H874 C888 0.930 . S
H875 C890 0.960 . S
H876 C890 0.960 . S
H877 C890 0.960 . S
C878 H870 0.929 . S
C878 C879 1.377 . S
C878 C880 1.384 . S
C879 C878 1.377 . S
C879 C885 1.390 . S
C880 H871 0.930 . S
C880 C878 1.384 . S
C880 C881 1.372 . S
C881 C880 1.372 . S
C881 C882 1.400 . S
C881 C886 1.490 . S
C882 H872 0.930 . S
C882 C881 1.400 . S
C882 C885 1.386 . S
H883 C899 0.930 . S
H884 C900 0.931 . S
C885 H873 0.929 . S
C885 C879 1.390 . S
C885 C882 1.386 . S
C886 C881 1.490 . S
C886 C888 1.395 . S
C886 C889 1.403 . S
H887 C893 0.930 . S
C888 H874 0.930 . S
C888 C886 1.395 . S
C888 C891 1.403 . S
C889 C886 1.403 . S
C889 C890 1.524 . S
C889 C893 1.400 . S
C890 H875 0.960 . S
C890 H876 0.960 . S
C890 H877 0.960 . S
C890 C889 1.524 . S
C891 C888 1.403 . S
C891 C892 1.392 . S
C891 C895 1.495 . S
C892 C891 1.392 . S
C892 C893 1.385 . S
C892 C894 1.478 . S
C893 H887 0.930 . S
C893 C889 1.400 . S
C893 C892 1.385 . S
C894 C892 1.478 . S
C894 C896 1.381 . S
C894 C900 1.383 . S
C895 C891 1.495 . S
C895 H901 0.959 . S
C895 H902 0.961 . S
C895 H903 0.960 . S
C896 C894 1.381 . S
C896 C897 1.394 . S
C896 H904 0.930 . S
C897 C896 1.394 . S
C897 C898 1.383 . S
C897 H905 0.929 . S
C898 C897 1.383 . S
C898 C899 1.377 . S
C899 H883 0.930 . S
C899 C898 1.377 . S
C899 C900 1.379 . S
C900 H884 0.931 . S
C900 C894 1.383 . S
C900 C899 1.379 . S
H901 C895 0.959 . S
H902 C895 0.961 . S
H903 C895 0.960 . S
H904 C896 0.930 . S
H905 C897 0.929 . S
H906 C914 0.929 . S
H907 C916 0.930 . S
H908 C918 0.930 . S
H909 C921 0.929 . S
H910 C924 0.930 . S
H911 C926 0.960 . S
H912 C926 0.960 . S
H913 C926 0.960 . S
C914 H906 0.929 . S
C914 C915 1.377 . S
C914 C916 1.384 . S
C915 C914 1.377 . S
C915 C921 1.390 . S
C916 H907 0.930 . S
C916 C914 1.384 . S
C916 C917 1.372 . S
C917 C916 1.372 . S
C917 C918 1.400 . S
C917 C922 1.490 . S
C918 H908 0.930 . S
C918 C917 1.400 . S
C918 C921 1.386 . S
H919 C935 0.930 . S
H920 C936 0.931 . S
C921 H909 0.929 . S
C921 C915 1.390 . S
C921 C918 1.386 . S
C922 C917 1.490 . S
C922 C924 1.395 . S
C922 C925 1.403 . S
H923 C929 0.930 . S
C924 H910 0.930 . S
C924 C922 1.395 . S
C924 C927 1.403 . S
C925 C922 1.403 . S
C925 C926 1.524 . S
C925 C929 1.400 . S
C926 H911 0.960 . S
C926 H912 0.960 . S
C926 H913 0.960 . S
C926 C925 1.524 . S
C927 C924 1.403 . S
C927 C928 1.392 . S
C927 C931 1.495 . S
C928 C927 1.392 . S
C928 C929 1.385 . S
C928 C930 1.478 . S
C929 H923 0.930 . S
C929 C925 1.400 . S
C929 C928 1.385 . S
C930 C928 1.478 . S
C930 C932 1.381 . S
C930 C936 1.383 . S
C931 C927 1.495 . S
C931 H937 0.959 . S
C931 H938 0.961 . S
C931 H939 0.960 . S
C932 C930 1.381 . S
C932 C933 1.394 . S
C932 H940 0.930 . S
C933 C932 1.394 . S
C933 C934 1.383 . S
C933 H941 0.929 . S
C934 C933 1.383 . S
C934 C935 1.377 . S
C935 H919 0.930 . S
C935 C934 1.377 . S
C935 C936 1.379 . S
C936 H920 0.931 . S
C936 C930 1.383 . S
C936 C935 1.379 . S
H937 C931 0.959 . S
H938 C931 0.961 . S
H939 C931 0.960 . S
H940 C932 0.930 . S
H941 C933 0.929 . S
H942 C950 0.929 . S
H943 C952 0.930 . S
H944 C954 0.930 . S
H945 C957 0.929 . S
H946 C960 0.930 . S
H947 C962 0.960 . S
H948 C962 0.960 . S
H949 C962 0.960 . S
C950 H942 0.929 . S
C950 C951 1.377 . S
C950 C952 1.384 . S
C951 C950 1.377 . S
C951 C957 1.390 . S
C952 H943 0.930 . S
C952 C950 1.384 . S
C952 C953 1.372 . S
C953 C952 1.372 . S
C953 C954 1.400 . S
C953 C958 1.490 . S
C954 H944 0.930 . S
C954 C953 1.400 . S
C954 C957 1.386 . S
H955 C971 0.930 . S
H956 C972 0.931 . S
C957 H945 0.929 . S
C957 C951 1.390 . S
C957 C954 1.386 . S
C958 C953 1.490 . S
C958 C960 1.395 . S
C958 C961 1.403 . S
H959 C965 0.930 . S
C960 H946 0.930 . S
C960 C958 1.395 . S
C960 C963 1.403 . S
C961 C958 1.403 . S
C961 C962 1.524 . S
C961 C965 1.400 . S
C962 H947 0.960 . S
C962 H948 0.960 . S
C962 H949 0.960 . S
C962 C961 1.524 . S
C963 C960 1.403 . S
C963 C964 1.392 . S
C963 C967 1.495 . S
C964 C963 1.392 . S
C964 C965 1.385 . S
C964 C966 1.478 . S
C965 H959 0.930 . S
C965 C961 1.400 . S
C965 C964 1.385 . S
C966 C964 1.478 . S
C966 C968 1.381 . S
C966 C972 1.383 . S
C967 C963 1.495 . S
C967 H973 0.959 . S
C967 H974 0.961 . S
C967 H975 0.960 . S
C968 C966 1.381 . S
C968 C969 1.394 . S
C968 H976 0.930 . S
C969 C968 1.394 . S
C969 C970 1.383 . S
C969 H977 0.929 . S
C970 C969 1.383 . S
C970 C971 1.377 . S
C971 H955 0.930 . S
C971 C970 1.377 . S
C971 C972 1.379 . S
C972 H956 0.931 . S
C972 C966 1.383 . S
C972 C971 1.379 . S
H973 C967 0.959 . S
H974 C967 0.961 . S
H975 C967 0.960 . S
H976 C968 0.930 . S
H977 C969 0.929 . S
H978 C986 0.929 . S
H979 C988 0.930 . S
H980 C990 0.930 . S
H981 C993 0.929 . S
H982 C996 0.930 . S
H983 C998 0.960 . S
H984 C998 0.960 . S
H985 C998 0.960 . S
C986 H978 0.929 . S
C986 C987 1.377 . S
C986 C988 1.384 . S
C987 C986 1.377 . S
C987 C993 1.390 . S
C988 H979 0.930 . S
C988 C986 1.384 . S
C988 C989 1.372 . S
C989 C988 1.372 . S
C989 C990 1.400 . S
C989 C994 1.490 . S
C990 H980 0.930 . S
C990 C989 1.400 . S
C990 C993 1.386 . S
H991 C1007 0.930 . S
H992 C1008 0.931 . S
C993 H981 0.929 . S
C993 C987 1.390 . S
C993 C990 1.386 . S
C994 C989 1.490 . S
C994 C996 1.395 . S
C994 C997 1.403 . S
H995 C1001 0.930 . S
C996 H982 0.930 . S
C996 C994 1.395 . S
C996 C999 1.403 . S
C997 C994 1.403 . S
C997 C998 1.524 . S
C997 C1001 1.400 . S
C998 H983 0.960 . S
C998 H984 0.960 . S
C998 H985 0.960 . S
C998 C997 1.524 . S
C999 C996 1.403 . S
C999 C1000 1.392 . S
C999 C1003 1.495 . S
C1000 C999 1.392 . S
C1000 C1001 1.385 . S
C1000 C1002 1.478 . S
C1001 H995 0.930 . S
C1001 C997 1.400 . S
C1001 C1000 1.385 . S
C1002 C1000 1.478 . S
C1002 C1004 1.381 . S
C1002 C1008 1.383 . S
C1003 C999 1.495 . S
C1003 H1009 0.959 . S
C1003 H1010 0.961 . S
C1003 H1011 0.960 . S
C1004 C1002 1.381 . S
C1004 C1005 1.394 . S
C1004 H1012 0.930 . S
C1005 C1004 1.394 . S
C1005 C1006 1.383 . S
C1005 H1013 0.929 . S
C1006 C1005 1.383 . S
C1006 C1007 1.377 . S
C1007 H991 0.930 . S
C1007 C1006 1.377 . S
C1007 C1008 1.379 . S
C1008 H992 0.931 . S
C1008 C1002 1.383 . S
C1008 C1007 1.379 . S
H1009 C1003 0.959 . S
H1010 C1003 0.961 . S
H1011 C1003 0.960 . S
H1012 C1004 0.930 . S
H1013 C1005 0.929 . S
H1014 C1022 0.929 . S
H1015 C1024 0.930 . S
H1016 C1026 0.930 . S
H1017 C1029 0.929 . S
H1018 C1032 0.930 . S
H1019 C1034 0.960 . S
H1020 C1034 0.960 . S
H1021 C1034 0.960 . S
C1022 H1014 0.929 . S
C1022 C1023 1.377 . S
C1022 C1024 1.384 . S
C1023 C1022 1.377 . S
C1023 C1029 1.390 . S
C1024 H1015 0.930 . S
C1024 C1022 1.384 . S
C1024 C1025 1.372 . S
C1025 C1024 1.372 . S
C1025 C1026 1.400 . S
C1025 C1030 1.490 . S
C1026 H1016 0.930 . S
C1026 C1025 1.400 . S
C1026 C1029 1.386 . S
H1027 C1043 0.930 . S
H1028 C1044 0.931 . S
C1029 H1017 0.929 . S
C1029 C1023 1.390 . S
C1029 C1026 1.386 . S
C1030 C1025 1.490 . S
C1030 C1032 1.395 . S
C1030 C1033 1.403 . S
H1031 C1037 0.930 . S
C1032 H1018 0.930 . S
C1032 C1030 1.395 . S
C1032 C1035 1.403 . S
C1033 C1030 1.403 . S
C1033 C1034 1.524 . S
C1033 C1037 1.400 . S
C1034 H1019 0.960 . S
C1034 H1020 0.960 . S
C1034 H1021 0.960 . S
C1034 C1033 1.524 . S
C1035 C1032 1.403 . S
C1035 C1036 1.392 . S
C1035 C1039 1.495 . S
C1036 C1035 1.392 . S
C1036 C1037 1.385 . S
C1036 C1038 1.478 . S
C1037 H1031 0.930 . S
C1037 C1033 1.400 . S
C1037 C1036 1.385 . S
C1038 C1036 1.478 . S
C1038 C1040 1.381 . S
C1038 C1044 1.383 . S
C1039 C1035 1.495 . S
C1039 H1045 0.959 . S
C1039 H1046 0.961 . S
C1039 H1047 0.960 . S
C1040 C1038 1.381 . S
C1040 C1041 1.394 . S
C1040 H1048 0.930 . S
C1041 C1040 1.394 . S
C1041 C1042 1.383 . S
C1041 H1049 0.929 . S
C1042 C1041 1.383 . S
C1042 C1043 1.377 . S
C1043 H1027 0.930 . S
C1043 C1042 1.377 . S
C1043 C1044 1.379 . S
C1044 H1028 0.931 . S
C1044 C1038 1.383 . S
C1044 C1043 1.379 . S
H1045 C1039 0.959 . S
H1046 C1039 0.961 . S
H1047 C1039 0.960 . S
H1048 C1040 0.930 . S
H1049 C1041 0.929 . S
C195 C14 1.503 . S
C214 C109 1.554 . S
C231 C25 1.509 . S
C250 C122 1.554 . S
C286 C144 1.510 . S
C267 C43 1.504 . S
C322 C157 1.531 . S
C303 C62 1.502 . S
C358 C170 1.527 . S
C339 C80 1.501 . S
C394 C183 1.531 . S
C375 C97 1.497 . S
C411 C32 1.510 . S
C430 C139 1.501 . S
C447 C50 1.505 . S
C466 C152 1.529 . S
C502 C165 1.493 . S
C483 C70 1.496 . S
C538 C178 1.497 . S
C519 C88 1.502 . S
C555 C104 1.509 . S
C574 C111 1.554 . S
C610 C124 1.555 . S
C591 C7 1.500 . S
C646 C150 1.502 . S
C627 C8 1.504 . S
C663 C34 1.498 . S
C682 C163 1.530 . S
C718 C176 1.528 . S
C699 C52 1.496 . S
C735 C68 1.500 . S
C754 C113 1.549 . S
C771 C86 1.510 . S
C790 C126 1.552 . S
C807 C106 1.497 . S
C826 C137 1.496 . S
C843 C26 1.506 . S
C862 C174 1.538 . S
C898 C118 1.561 . S
C879 C44 1.518 . S
C915 C61 1.511 . S
C934 C131 1.560 . S
C951 C79 1.508 . S
C970 C135 1.512 . S
C987 C98 1.502 . S
C1006 C148 1.512 . S
C1023 C16 1.507 . S
C1042 C161 1.532 . S
