# Generated by pormake.
# Topology ant, (3,6)-cn, num edge types: 1
# Building blocks:
#     Node 0, Type 0, BuildingBlock: BETDAH_clean_linker_0, # of connection points: 3
#     Node 1, Type 0, BuildingBlock: BETDAH_clean_linker_0, # of connection points: 3
#     Node 2, Type 0, BuildingBlock: BETDAH_clean_linker_0, # of connection points: 3
#     Node 3, Type 0, BuildingBlock: BETDAH_clean_linker_0, # of connection points: 3
#     Node 4, Type 0, BuildingBlock: BETDAH_clean_linker_0, # of connection points: 3
#     Node 5, Type 0, BuildingBlock: BETDAH_clean_linker_0, # of connection points: 3
#     Node 6, Type 0, BuildingBlock: BETDAH_clean_linker_0, # of connection points: 3
#     Node 7, Type 0, BuildingBlock: BETDAH_clean_linker_0, # of connection points: 3
#     Node 8, Type 1, BuildingBlock: MIDCAF_clean_sbu_0, # of connection points: 6
#     Node 9, Type 1, BuildingBlock: MIDCAF_clean_sbu_0, # of connection points: 6
#     Node 10, Type 1, BuildingBlock: MIDCAF_clean_sbu_0, # of connection points: 6
#     Node 11, Type 1, BuildingBlock: MIDCAF_clean_sbu_0, # of connection points: 6
#     Edge 12, Type (0, 1), BuildingBlock: CIFDUS_clean_linker_0, # of connection points: 2
#     Edge 13, Type (0, 1), BuildingBlock: CIFDUS_clean_linker_0, # of connection points: 2
#     Edge 14, Type (0, 1), BuildingBlock: CIFDUS_clean_linker_0, # of connection points: 2
#     Edge 15, Type (0, 1), BuildingBlock: CIFDUS_clean_linker_0, # of connection points: 2
#     Edge 16, Type (0, 1), BuildingBlock: CIFDUS_clean_linker_0, # of connection points: 2
#     Edge 17, Type (0, 1), BuildingBlock: CIFDUS_clean_linker_0, # of connection points: 2
#     Edge 18, Type (0, 1), BuildingBlock: CIFDUS_clean_linker_0, # of connection points: 2
#     Edge 19, Type (0, 1), BuildingBlock: CIFDUS_clean_linker_0, # of connection points: 2
#     Edge 20, Type (0, 1), BuildingBlock: CIFDUS_clean_linker_0, # of connection points: 2
#     Edge 21, Type (0, 1), BuildingBlock: CIFDUS_clean_linker_0, # of connection points: 2
#     Edge 22, Type (0, 1), BuildingBlock: CIFDUS_clean_linker_0, # of connection points: 2
#     Edge 23, Type (0, 1), BuildingBlock: CIFDUS_clean_linker_0, # of connection points: 2
#     Edge 24, Type (0, 1), BuildingBlock: CIFDUS_clean_linker_0, # of connection points: 2
#     Edge 25, Type (0, 1), BuildingBlock: CIFDUS_clean_linker_0, # of connection points: 2
#     Edge 26, Type (0, 1), BuildingBlock: CIFDUS_clean_linker_0, # of connection points: 2
#     Edge 27, Type (0, 1), BuildingBlock: CIFDUS_clean_linker_0, # of connection points: 2
#     Edge 28, Type (0, 1), BuildingBlock: CIFDUS_clean_linker_0, # of connection points: 2
#     Edge 29, Type (0, 1), BuildingBlock: CIFDUS_clean_linker_0, # of connection points: 2
#     Edge 30, Type (0, 1), BuildingBlock: CIFDUS_clean_linker_0, # of connection points: 2
#     Edge 31, Type (0, 1), BuildingBlock: CIFDUS_clean_linker_0, # of connection points: 2
#     Edge 32, Type (0, 1), BuildingBlock: CIFDUS_clean_linker_0, # of connection points: 2
#     Edge 33, Type (0, 1), BuildingBlock: CIFDUS_clean_linker_0, # of connection points: 2
#     Edge 34, Type (0, 1), BuildingBlock: CIFDUS_clean_linker_0, # of connection points: 2
#     Edge 35, Type (0, 1), BuildingBlock: CIFDUS_clean_linker_0, # of connection points: 2
# Relax obj value: 0.057
# Max RMSD: 0.148
# Mean RMSD: 0.090
data_MOF--net-ant--node1-MIDCAF_clean_sbu_0--node2-BETDAH_clean_linker_0--edge1-CIFDUS_clean_linker_0
_symmetry_space_group_name_H-M    P1
_symmetry_Int_Tables_number       1
_symmetry_cell_setting            triclinic
loop_
_symmetry_equiv_pos_as_xyz
'x, y, z'
_cell_length_a     25.474179
_cell_length_b     25.234722
_cell_length_c     61.052592
_cell_angle_alpha  94.479318
_cell_angle_beta   98.305705
_cell_angle_gamma 89.612895
loop_
_atom_site_label
_atom_site_type_symbol
_atom_site_fract_x
_atom_site_fract_y
_atom_site_fract_z
_atom_type_partial_charge
H0 H 0.21273 0.32903 0.03639 0.0
H1 H 0.25725 0.17429 0.0577 0.0
H2 H 0.28442 0.3121 0.1038 0.0
C3 C 0.22776 0.30404 0.04954 0.0
C4 C 0.24713 0.32744 0.07077 0.0
C5 C 0.23185 0.24884 0.04474 0.0
C6 C 0.25309 0.21664 0.06155 0.0
C7 C 0.27161 0.23957 0.08297 0.0
C8 C 0.26926 0.29472 0.08732 0.0
N9 N 0.29485 0.20847 0.10019 0.0
C10 C 0.27758 0.15732 0.10234 0.0
H11 H 0.18314 0.81953 0.29396 0.0
H12 H 0.01955 0.78842 0.29829 0.0
H13 H 0.13633 0.78866 0.35669 0.0
C14 C 0.15229 0.81338 0.30405 0.0
C15 C 0.16627 0.80618 0.32669 0.0
C16 C 0.09955 0.80675 0.29374 0.0
C17 C 0.05994 0.79503 0.3064 0.0
C18 C 0.07325 0.78941 0.32927 0.0
C19 C 0.12622 0.79477 0.3392 0.0
N20 N 0.03518 0.775 0.34256 0.0
C21 C 0.98067 0.77834 0.3365 0.0
H22 H 0.68284 0.81371 0.54327 0.0
H23 H 0.76204 0.66912 0.56161 0.0
H24 H 0.75173 0.79778 0.61117 0.0
C25 C 0.70396 0.79042 0.5559 0.0
C26 C 0.7146 0.8122 0.578 0.0
C27 C 0.72087 0.73867 0.55 0.0
C28 C 0.74841 0.70851 0.56634 0.0
C29 C 0.75923 0.72968 0.58852 0.0
C30 C 0.74266 0.78145 0.59409 0.0
N31 N 0.78741 0.70066 0.60557 0.0
C32 C 0.79429 0.64574 0.60395 0.0
H33 H 0.68829 0.35872 0.78553 0.0
H34 H 0.52577 0.33956 0.79517 0.0
H35 H 0.65092 0.33274 0.85028 0.0
C36 C 0.65908 0.35495 0.7966 0.0
C37 C 0.67625 0.34757 0.81905 0.0
C38 C 0.60489 0.35162 0.78784 0.0
C39 C 0.56739 0.34324 0.80199 0.0
C40 C 0.58403 0.33718 0.82465 0.0
C41 C 0.63827 0.33908 0.83295 0.0
N42 N 0.54789 0.32607 0.83935 0.0
C43 C 0.49299 0.32891 0.83439 0.0
H44 H 0.04348 0.60953 0.94038 0.0
H45 H 0.04771 0.78067 0.9457 0.0
H46 H 0.96376 0.69641 0.88744 0.0
C47 C 0.03151 0.64702 0.93369 0.0
C48 C 1.00124 0.64706 0.91252 0.0
C49 C 0.04886 0.69488 0.94578 0.0
C50 C 0.03554 0.74335 0.93642 0.0
C51 C 0.00451 0.74394 0.91548 0.0
C52 C 0.98718 0.69581 0.90372 0.0
N53 N 0.98911 0.7923 0.90603 0.0
C54 C 0.0205 0.83798 0.90893 0.0
H55 H 0.55792 0.7988 0.20963 0.0
H56 H 0.7256 0.82559 0.21275 0.0
H57 H 0.61771 0.86871 0.15604 0.0
C58 C 0.59088 0.81329 0.20231 0.0
C59 C 0.58134 0.83421 0.18146 0.0
C60 C 0.64269 0.81015 0.2137 0.0
C61 C 0.68554 0.8278 0.20405 0.0
C62 C 0.67642 0.84879 0.18318 0.0
C63 C 0.62442 0.85241 0.17211 0.0
N64 N 0.7187 0.86801 0.17325 0.0
C65 C 0.76502 0.83953 0.17154 0.0
H66 H 0.53748 0.07738 0.44785 0.0
H67 H 0.55299 0.24527 0.44288 0.0
H68 H 0.45378 0.1503 0.39173 0.0
C69 C 0.52672 0.11262 0.43917 0.0
C70 C 0.49184 0.10794 0.4191 0.0
C71 C 0.54891 0.16172 0.44798 0.0
C72 C 0.53708 0.20685 0.43603 0.0
C73 C 0.50299 0.20294 0.41567 0.0
C74 C 0.48029 0.15337 0.40734 0.0
N75 N 0.48983 0.24822 0.40351 0.0
C76 C 0.51835 0.29593 0.40669 0.0
H77 H 0.08465 0.34546 0.71358 0.0
H78 H 0.23922 0.30102 0.69892 0.0
H79 H 0.11009 0.31047 0.64569 0.0
C80 C 0.11067 0.33545 0.70133 0.0
C81 C 0.08971 0.32891 0.67866 0.0
C82 C 0.16394 0.32399 0.70874 0.0
C83 C 0.19837 0.31097 0.69318 0.0
C84 C 0.17914 0.30849 0.67031 0.0
C85 C 0.12489 0.31644 0.66325 0.0
N86 N 0.21217 0.29453 0.65393 0.0
C87 C 0.26728 0.29213 0.65786 0.0
Zn88 Zn 0.21934 0.68766 0.15184 0.0
Zn89 Zn 0.0968 0.79657 0.1024 0.0
Zn90 Zn 0.16128 0.74641 0.12502 0.0
C91 C 0.12697 0.7205 0.07314 0.0
C92 C 0.17838 0.86687 0.11695 0.0
O93 O 0.12516 0.73961 0.1557 0.0
O94 O 0.17448 0.68284 0.1755 0.0
C95 C 0.19926 0.62566 0.11208 0.0
O96 O 0.14444 0.70111 0.09173 0.0
O97 O 0.10814 0.76673 0.07302 0.0
O98 O 0.1288 0.86731 0.11112 0.0
O99 O 0.20156 0.8226 0.12144 0.0
O100 O 0.22512 0.62512 0.1313 0.0
O101 O 0.17184 0.66701 0.10646 0.0
O102 O 0.23809 0.78968 0.13414 0.0
O103 O 0.28102 0.73653 0.1578 0.0
C104 C 0.27966 0.77819 0.14758 0.0
O105 O 0.08708 0.76322 0.14055 0.0
O106 O 0.02804 0.78169 0.11209 0.0
C107 C 0.13508 0.71343 0.17315 0.0
C108 C 0.03869 0.7727 0.13224 0.0
Zn109 Zn 0.53644 0.633 0.3485 0.0
Zn110 Zn 0.63557 0.78298 0.39362 0.0
Zn111 Zn 0.58044 0.70676 0.37221 0.0
C112 C 0.53632 0.82568 0.38177 0.0
C113 C 0.69155 0.75571 0.36022 0.0
O114 O 0.58198 0.63384 0.39173 0.0
O115 O 0.57055 0.57297 0.36352 0.0
C116 C 0.45708 0.70153 0.35987 0.0
O117 O 0.52679 0.77742 0.37366 0.0
O118 O 0.58175 0.83893 0.39166 0.0
O119 O 0.69405 0.78984 0.37654 0.0
O120 O 0.65208 0.72273 0.35601 0.0
O121 O 0.46351 0.65281 0.35452 0.0
O122 O 0.49766 0.73251 0.36483 0.0
O123 O 0.61417 0.69659 0.34024 0.0
O124 O 0.5551 0.64459 0.31907 0.0
C125 C 0.59536 0.67427 0.32097 0.0
O126 O 0.60558 0.67873 0.40584 0.0
O127 O 0.65187 0.74897 0.42162 0.0
C128 C 0.581 0.58451 0.38415 0.0
C129 C 0.63378 0.70307 0.42284 0.0
Zn130 Zn 0.62741 0.31092 0.59815 0.0
Zn131 Zn 0.69691 0.18162 0.65493 0.0
Zn132 Zn 0.66967 0.24658 0.62543 0.0
C133 C 0.78205 0.255 0.65525 0.0
C134 C 0.68112 0.1168 0.61636 0.0
O135 O 0.59177 0.27726 0.63436 0.0
O136 O 0.55982 0.33051 0.60867 0.0
C137 C 0.72452 0.35567 0.6146 0.0
O138 O 0.75018 0.27512 0.63976 0.0
O139 O 0.76804 0.21459 0.664 0.0
O140 O 0.69156 0.11395 0.63704 0.0
O141 O 0.67327 0.16281 0.60845 0.0
O142 O 0.68258 0.36461 0.60181 0.0
O143 O 0.72866 0.31311 0.6252 0.0
O144 O 0.65592 0.19952 0.59289 0.0
O145 O 0.62611 0.2632 0.57144 0.0
C146 C 0.64033 0.21573 0.57353 0.0
O147 O 0.61929 0.25389 0.65273 0.0
O148 O 0.64587 0.19294 0.67595 0.0
C149 C 0.55478 0.30814 0.62601 0.0
C150 C 0.6158 0.23109 0.67069 0.0
Zn151 Zn 0.05 0.16668 0.84059 0.0
Zn152 Zn 0.14664 0.31792 0.89207 0.0
Zn153 Zn 0.09132 0.24319 0.86831 0.0
C154 C 0.14247 0.23274 0.91875 0.0
C155 C 0.0448 0.3582 0.88142 0.0
O156 O 0.1302 0.23588 0.83776 0.0
O157 O 0.08499 0.17585 0.81425 0.0
C158 C 0.08588 0.11949 0.87906 0.0
O159 O 0.11405 0.21151 0.90113 0.0
O160 O 0.16232 0.27846 0.9189 0.0
O161 O 0.09033 0.37135 0.89125 0.0
O162 O 0.03598 0.31113 0.87186 0.0
O163 O 0.07363 0.10712 0.85854 0.0
O164 O 0.09105 0.16887 0.88635 0.0
O165 O 0.00869 0.26855 0.85928 0.0
O166 O 0.97598 0.19347 0.84154 0.0
C167 C 0.96889 0.24012 0.84972 0.0
O168 O 0.16495 0.26464 0.85412 0.0
O169 O 0.20544 0.33073 0.87582 0.0
C170 C 0.12157 0.21013 0.81846 0.0
C171 C 0.2038 0.29825 0.85899 0.0
H172 H 0.16561 0.39809 0.06228 0.0
H173 H 0.33086 0.38839 0.08988 0.0
H174 H 0.33199 0.48275 0.10192 0.0
H175 H 0.28425 0.5649 0.10842 0.0
H176 H 0.11812 0.57617 0.08325 0.0
H177 H 0.11922 0.48514 0.06571 0.0
C178 C 0.20194 0.41701 0.07062 0.0
C179 C 0.24788 0.38611 0.07557 0.0
C180 C 0.20214 0.47156 0.07783 0.0
C181 C 0.29477 0.41105 0.08633 0.0
C182 C 0.29552 0.46504 0.09312 0.0
C183 C 0.24849 0.54779 0.09868 0.0
C184 C 0.20119 0.5771 0.09702 0.0
C185 C 0.24917 0.49521 0.08953 0.0
C186 C 0.15519 0.5547 0.08435 0.0
C187 C 0.15573 0.50236 0.07466 0.0
H188 H 0.90764 0.70017 0.3274 0.0
H189 H 0.92809 0.86935 0.34134 0.0
H190 H 0.83463 0.87862 0.34606 0.0
H191 H 0.75254 0.83667 0.35239 0.0
H192 H 0.73142 0.6672 0.33968 0.0
H193 H 0.81908 0.65976 0.32759 0.0
C194 C 0.89092 0.73907 0.33083 0.0
C195 C 0.92398 0.78411 0.33415 0.0
C196 C 0.83738 0.74382 0.33391 0.0
C197 C 0.9028 0.83438 0.33871 0.0
C198 C 0.84959 0.83959 0.34151 0.0
C199 C 0.7667 0.79826 0.34649 0.0
C200 C 0.73639 0.75238 0.34737 0.0
C201 C 0.81725 0.79433 0.34008 0.0
C202 C 0.7544 0.70298 0.33928 0.0
C203 C 0.80466 0.69871 0.33256 0.0
H204 H 0.80389 0.5849 0.63867 0.0
H205 H 0.79253 0.57868 0.5674 0.0
H206 H 0.78441 0.48184 0.56515 0.0
H207 H 0.76439 0.40218 0.58282 0.0
H208 H 0.76948 0.40768 0.65373 0.0
H209 H 0.79896 0.50078 0.65707 0.0
C210 C 0.80078 0.56196 0.62275 0.0
C211 C 0.79802 0.58842 0.60316 0.0
C212 C 0.79544 0.50621 0.62161 0.0
C213 C 0.79417 0.55891 0.58261 0.0
C214 C 0.78965 0.5036 0.58134 0.0
C215 C 0.77433 0.42317 0.59909 0.0
C216 C 0.76465 0.39845 0.618 0.0
C217 C 0.7882 0.47714 0.60064 0.0
C218 C 0.77721 0.4258 0.63899 0.0
C219 C 0.79296 0.47936 0.64081 0.0
H220 H 0.72244 0.26769 0.84155 0.0
H221 H 0.75887 0.41243 0.81371 0.0
H222 H 0.85414 0.39567 0.82334 0.0
H223 H 0.92712 0.33489 0.83673 0.0
H224 H 0.88771 0.18672 0.86124 0.0
H225 H 0.79392 0.21011 0.85637 0.0
C226 C 0.75122 0.29617 0.83803 0.0
C227 C 0.73372 0.34134 0.82707 0.0
C228 C 0.80555 0.28541 0.84296 0.0
C229 C 0.7715 0.37729 0.82213 0.0
C230 C 0.8259 0.36769 0.82762 0.0
C231 C 0.89787 0.30839 0.84131 0.0
C232 C 0.91396 0.25918 0.84929 0.0
C233 C 0.84346 0.32121 0.83761 0.0
C234 C 0.87595 0.2247 0.85497 0.0
C235 C 0.82237 0.23798 0.85215 0.0
H236 H 0.95871 0.55677 0.92453 0.0
H237 H 0.01938 0.62283 0.87011 0.0
H238 H 0.02275 0.53424 0.85124 0.0
H239 H 0.0293 0.43811 0.85496 0.0
H240 H 0.97407 0.37179 0.91033 0.0
H241 H 0.94559 0.45976 0.92368 0.0
C242 C 0.97126 0.55173 0.90826 0.0
C243 C 0.98979 0.596 0.89892 0.0
C244 C 0.97406 0.50047 0.8977 0.0
C245 C 0.00514 0.58932 0.87768 0.0
C246 C 0.00737 0.53859 0.86693 0.0
C247 C 0.00816 0.44267 0.86921 0.0
C248 C 0.00361 0.39893 0.88168 0.0
C249 C 0.99467 0.49375 0.87736 0.0
C250 C 0.97721 0.40499 0.90035 0.0
C251 C 0.96201 0.45549 0.90822 0.0
H252 H 0.86675 0.85794 0.18988 0.0
H253 H 0.76661 0.76155 0.13945 0.0
H254 H 0.84465 0.72584 0.12432 0.0
H255 H 0.94017 0.7313 0.12253 0.0
H256 H 0.04042 0.83032 0.17181 0.0
H257 H 0.96439 0.85462 0.19082 0.0
C258 C 0.86243 0.82814 0.17593 0.0
C259 C 0.81151 0.81215 0.16567 0.0
C260 C 0.90754 0.80837 0.16718 0.0
C261 C 0.80575 0.77403 0.14754 0.0
C262 C 0.85026 0.75387 0.13886 0.0
C263 C 0.9454 0.75709 0.13777 0.0
C264 C 0.99584 0.77819 0.14611 0.0
C265 C 0.90119 0.77204 0.1481 0.0
C266 C 0.00232 0.81206 0.16565 0.0
C267 C 0.95861 0.82674 0.17624 0.0
H268 H 0.50104 0.39202 0.42777 0.0
H269 H 0.5983 0.31011 0.3839 0.0
H270 H 0.6365 0.39465 0.37682 0.0
H271 H 0.63082 0.49163 0.37817 0.0
H272 H 0.53209 0.57542 0.42081 0.0
H273 H 0.50734 0.49092 0.43404 0.0
C274 C 0.53155 0.3929 0.41711 0.0
C275 C 0.5468 0.34528 0.40619 0.0
C276 C 0.55299 0.442 0.41294 0.0
C277 C 0.5861 0.34646 0.39239 0.0
C278 C 0.60783 0.39476 0.38832 0.0
C279 C 0.60549 0.4915 0.39101 0.0
C280 C 0.5831 0.53955 0.39844 0.0
C281 C 0.59013 0.44281 0.39785 0.0
C282 C 0.55024 0.53901 0.41501 0.0
C283 C 0.53538 0.49054 0.42227 0.0
H284 H 0.01451 0.2934 0.70139 0.0
H285 H 0.0314 0.35983 0.63969 0.0
H286 H 0.93614 0.3473 0.62727 0.0
H287 H 0.84872 0.31051 0.63313 0.0
H288 H 0.83588 0.24862 0.69616 0.0
H289 H 0.92847 0.26898 0.70915 0.0
C290 C 0.99772 0.30717 0.68552 0.0
C291 C 0.03083 0.32775 0.67163 0.0
C292 C 0.94317 0.30066 0.67865 0.0
C293 C 0.00742 0.34312 0.65073 0.0
C294 C 0.95275 0.33626 0.64363 0.0
C295 C 0.86607 0.3026 0.64984 0.0
C296 C 0.83556 0.27722 0.6635 0.0
C297 C 0.92027 0.31403 0.65731 0.0
C298 C 0.8586 0.26724 0.68513 0.0
C299 C 0.91167 0.27881 0.69262 0.0
H300 H 0.3276 0.36964 0.6477 0.0
H301 H 0.33274 0.20995 0.668 0.0
H302 H 0.42634 0.20255 0.66258 0.0
H303 H 0.50284 0.23825 0.64748 0.0
H304 H 0.49492 0.39709 0.62577 0.0
H305 H 0.40657 0.40837 0.63634 0.0
C306 C 0.34974 0.33371 0.65135 0.0
C307 C 0.32403 0.29044 0.65824 0.0
C308 C 0.40281 0.32949 0.64768 0.0
C309 C 0.35233 0.24376 0.66276 0.0
C310 C 0.40561 0.23949 0.65955 0.0
C311 C 0.48233 0.27578 0.64568 0.0
C312 C 0.50536 0.31678 0.63586 0.0
C313 C 0.43084 0.28162 0.65139 0.0
C314 C 0.47785 0.36484 0.63317 0.0
C315 C 0.4273 0.37133 0.63918 0.0
H316 H 0.4918 0.87334 0.19607 0.0
H317 H 0.54854 0.79299 0.13919 0.0
H318 H 0.45721 0.77774 0.12105 0.0
H319 H 0.36177 0.77438 0.12428 0.0
H320 H 0.30542 0.85252 0.18157 0.0
H321 H 0.39554 0.88293 0.19643 0.0
C322 C 0.48401 0.85338 0.17953 0.0
C323 C 0.52666 0.83366 0.16908 0.0
C324 C 0.4314 0.84454 0.16928 0.0
C325 C 0.51629 0.80846 0.14755 0.0
C326 C 0.46408 0.79954 0.13722 0.0
C327 C 0.36912 0.80007 0.13951 0.0
C328 C 0.3273 0.81199 0.15173 0.0
C329 C 0.42133 0.81577 0.14826 0.0
C330 C 0.33709 0.84392 0.17175 0.0
C331 C 0.38869 0.86057 0.18038 0.0
H332 H 0.4207 0.2499 0.82493 0.0
H333 H 0.43948 0.41834 0.84179 0.0
H334 H 0.34641 0.42525 0.8474 0.0
H335 H 0.26474 0.38116 0.85301 0.0
H336 H 0.24558 0.21221 0.83746 0.0
H337 H 0.33297 0.20764 0.82512 0.0
C338 C 0.40372 0.28817 0.82926 0.0
C339 C 0.43625 0.33362 0.83306 0.0
C340 C 0.35037 0.29156 0.83279 0.0
C341 C 0.41466 0.38305 0.83878 0.0
C342 C 0.36165 0.38691 0.84207 0.0
C343 C 0.27926 0.34352 0.84646 0.0
C344 C 0.24924 0.29699 0.84641 0.0
C345 C 0.32982 0.34113 0.83995 0.0
C346 C 0.26801 0.24858 0.83762 0.0
C347 C 0.31821 0.2459 0.83079 0.0
H348 H 0.21154 0.72987 0.35158 0.0
H349 H 0.24864 0.8725 0.3223 0.0
H350 H 0.34369 0.85668 0.33288 0.0
H351 H 0.41599 0.7959 0.34649 0.0
H352 H 0.37615 0.65043 0.3731 0.0
H353 H 0.28257 0.6743 0.36804 0.0
C354 C 0.24031 0.75835 0.34805 0.0
C355 C 0.2231 0.80226 0.33619 0.0
C356 C 0.29452 0.74817 0.35358 0.0
C357 C 0.26101 0.83817 0.33131 0.0
C358 C 0.31529 0.82911 0.33733 0.0
C359 C 0.38679 0.7702 0.3516 0.0
C360 C 0.40262 0.72139 0.36001 0.0
C361 C 0.33256 0.78331 0.34788 0.0
C362 C 0.3646 0.68799 0.36639 0.0
C363 C 0.31114 0.70155 0.36348 0.0
H364 H 0.72518 0.90633 0.55879 0.0
H365 H 0.66169 0.83969 0.6125 0.0
H366 H 0.63923 0.92824 0.62703 0.0
H367 H 0.64575 0.02409 0.62692 0.0
H368 H 0.71155 0.09442 0.57478 0.0
H369 H 0.72346 0.00521 0.55675 0.0
C370 C 0.70568 0.91132 0.57345 0.0
C371 C 0.69593 0.86639 0.58478 0.0
C372 C 0.69333 0.96297 0.58198 0.0
C373 C 0.67059 0.87351 0.60375 0.0
C374 C 0.65753 0.92416 0.61202 0.0
C375 C 0.66204 0.02006 0.61141 0.0
C376 C 0.67826 0.06577 0.60232 0.0
C377 C 0.67001 0.96908 0.60165 0.0
C378 C 0.69855 0.05991 0.58207 0.0
C379 C 0.70588 0.00883 0.57192 0.0
H380 H 0.32684 0.06327 0.10918 0.0
H381 H 0.1749 0.14116 0.10286 0.0
H382 H 0.13148 0.05838 0.10869 0.0
H383 H 0.13624 0.96458 0.11452 0.0
H384 H 0.28636 0.88295 0.11923 0.0
H385 H 0.33153 0.96679 0.1157 0.0
C386 C 0.28427 0.06167 0.10909 0.0
C387 C 0.25363 0.10755 0.10552 0.0
C388 C 0.25959 0.01371 0.11238 0.0
C389 C 0.19877 0.10587 0.10549 0.0
C390 C 0.1741 0.05874 0.10888 0.0
C391 C 0.17895 0.96484 0.11488 0.0
C392 C 0.20789 0.91741 0.1172 0.0
C393 C 0.20406 0.01249 0.11222 0.0
C394 C 0.26321 0.91891 0.11777 0.0
C395 C 0.28892 0.96678 0.11552 0.0
H396 H 0.49084 0.05893 0.37753 0.0
H397 H 0.44654 0.03605 0.44168 0.0
H398 H 0.44091 0.94028 0.43257 0.0
H399 H 0.47243 0.86395 0.41059 0.0
H400 H 0.51925 0.88619 0.34703 0.0
H401 H 0.49792 0.98071 0.3511 0.0
C402 C 0.47778 0.03316 0.38911 0.0
C403 C 0.47084 0.05427 0.41051 0.0
C404 C 0.47554 0.97775 0.38389 0.0
C405 C 0.45352 0.02045 0.42531 0.0
C406 C 0.45036 0.96564 0.42013 0.0
C407 C 0.47481 0.88899 0.3971 0.0
C408 C 0.4974 0.86853 0.3786 0.0
C409 C 0.46469 0.9437 0.40007 0.0
C410 C 0.50132 0.90121 0.36132 0.0
C411 C 0.49012 0.95551 0.36386 0.0
H412 H 0.00856 0.93616 0.92895 0.0
H413 H 0.09816 0.84576 0.88441 0.0
H414 H 0.13629 0.9276 0.8744 0.0
H415 H 0.13151 0.02426 0.87343 0.0
H416 H 0.04088 0.1163 0.917 0.0
H417 H 0.01711 0.03495 0.93294 0.0
C418 C 0.03762 0.93464 0.91756 0.0
C419 C 0.05061 0.88546 0.90727 0.0
C420 C 0.05889 0.98214 0.91169 0.0
C421 C 0.08787 0.88342 0.89247 0.0
C422 C 0.10945 0.93016 0.8867 0.0
C423 C 0.10811 0.0266 0.88698 0.0
C424 C 0.08759 0.07592 0.89395 0.0
C425 C 0.09357 0.97971 0.89552 0.0
C426 C 0.05741 0.07875 0.91151 0.0
C427 C 0.04319 0.03211 0.92036 0.0
H428 H 0.13691 0.2275 0.01875 0.0
H429 H 0.30595 0.22254 0.01874 0.0
H430 H 0.29275 0.20383 0.97842 0.0
H431 H 0.23343 0.2062 0.94311 0.0
H432 H 0.06437 0.21087 0.94252 0.0
H433 H 0.07668 0.21019 0.98307 0.0
C434 C 0.17057 0.22081 0.00986 0.0
C435 C 0.22228 0.22683 0.02142 0.0
C436 C 0.16257 0.20995 0.98664 0.0
C437 C 0.26588 0.2181 0.00999 0.0
C438 C 0.25834 0.20756 0.98699 0.0
C439 C 0.19935 0.20444 0.95185 0.0
C440 C 0.14818 0.20852 0.94005 0.0
C441 C 0.20694 0.20558 0.97509 0.0
C442 C 0.1041 0.20696 0.95136 0.0
C443 C 0.11122 0.20759 0.97456 0.0
H444 H 0.06487 0.72104 0.26674 0.0
H445 H 0.11378 0.88399 0.26646 0.0
H446 H 0.11851 0.87117 0.2266 0.0
H447 H 0.12546 0.80915 0.19413 0.0
H448 H 0.0867 0.64386 0.19565 0.0
H449 H 0.06074 0.66154 0.23266 0.0
C450 C 0.0747 0.75408 0.2577 0.0
C451 C 0.08876 0.80339 0.26928 0.0
C452 C 0.07993 0.74555 0.23513 0.0
C453 C 0.1026 0.84583 0.25769 0.0
C454 C 0.10567 0.83835 0.23501 0.0
C455 C 0.1092 0.7776 0.20227 0.0
C456 C 0.1069 0.72558 0.19224 0.0
C457 C 0.09678 0.78778 0.22383 0.0
C458 C 0.08794 0.68432 0.2031 0.0
C459 C 0.0735 0.69441 0.22426 0.0
H460 H 0.62849 0.7091 0.52358 0.0
H461 H 0.7972 0.72176 0.52396 0.0
H462 H 0.78595 0.69885 0.48387 0.0
H463 H 0.72683 0.68968 0.44833 0.0
H464 H 0.55815 0.6766 0.44732 0.0
H465 H 0.5704 0.68283 0.48804 0.0
C466 C 0.66265 0.70584 0.51482 0.0
C467 C 0.71351 0.71783 0.52644 0.0
C468 C 0.65583 0.69212 0.49176 0.0
C469 C 0.75775 0.71302 0.51519 0.0
C470 C 0.75131 0.6999 0.49232 0.0
C471 C 0.69305 0.6857 0.45708 0.0
C472 C 0.64174 0.68255 0.44498 0.0
C473 C 0.70043 0.69106 0.48037 0.0
C474 C 0.59806 0.67815 0.45634 0.0
C475 C 0.60504 0.68282 0.47962 0.0
H476 H 0.54822 0.27318 0.76278 0.0
H477 H 0.6296 0.42026 0.75838 0.0
H478 H 0.62586 0.40099 0.71827 0.0
H479 H 0.61805 0.33312 0.68682 0.0
H480 H 0.54861 0.18092 0.69303 0.0
H481 H 0.52675 0.21176 0.7296 0.0
C482 C 0.56328 0.30189 0.75286 0.0
C483 C 0.58951 0.34782 0.76343 0.0
C484 C 0.56337 0.28918 0.73008 0.0
C485 C 0.60958 0.38447 0.75053 0.0
C486 C 0.60761 0.37332 0.72764 0.0
C487 C 0.59604 0.3077 0.69584 0.0
C488 C 0.58501 0.25493 0.68748 0.0
C489 C 0.58726 0.32447 0.71749 0.0
C490 C 0.55735 0.22174 0.69929 0.0
C491 C 0.54546 0.2392 0.72028 0.0
H492 H 0.0325 0.63334 0.97904 0.0
H493 H 0.13566 0.75532 0.96313 0.0
H494 H 0.17903 0.76421 0.00156 0.0
H495 H 0.17708 0.74815 0.04043 0.0
H496 H 0.06997 0.63149 0.05701 0.0
H497 H 0.04068 0.6073 0.01751 0.0
C498 C 0.06536 0.66091 0.98386 0.0
C499 C 0.08003 0.69448 0.96833 0.0
C500 C 0.08979 0.66624 0.0061 0.0
C501 C 0.12261 0.73009 0.97488 0.0
C502 C 0.14771 0.73491 0.99681 0.0
C503 C 0.1491 0.71573 0.03529 0.0
C504 C 0.12632 0.69087 0.05145 0.0
C505 C 0.13026 0.70465 0.01269 0.0
C506 C 0.08923 0.64985 0.04482 0.0
C507 C 0.0716 0.63702 0.02223 0.0
H508 H 0.62099 0.71072 0.2229 0.0
H509 H 0.68143 0.8617 0.25359 0.0
H510 H 0.6792 0.83039 0.29054 0.0
H511 H 0.64721 0.7643 0.31344 0.0
H512 H 0.58777 0.61298 0.28219 0.0
H513 H 0.60274 0.63992 0.24613 0.0
C514 C 0.63467 0.73622 0.23775 0.0
C515 C 0.65089 0.78839 0.23572 0.0
C516 C 0.63295 0.71805 0.25877 0.0
C517 C 0.66883 0.8213 0.25491 0.0
C518 C 0.66724 0.80351 0.27597 0.0
C519 C 0.63949 0.73648 0.29891 0.0
C520 C 0.61625 0.68674 0.30054 0.0
C521 C 0.64772 0.75248 0.27808 0.0
C522 C 0.60528 0.65166 0.28138 0.0
C523 C 0.61367 0.66706 0.26072 0.0
H524 H 0.53521 0.11061 0.48457 0.0
H525 H 0.63844 0.22209 0.46121 0.0
H526 H 0.68579 0.23868 0.49877 0.0
H527 H 0.68743 0.23278 0.53864 0.0
H528 H 0.58272 0.1244 0.56236 0.0
H529 H 0.54842 0.09244 0.52398 0.0
C530 C 0.56903 0.1374 0.4875 0.0
C531 C 0.58243 0.16602 0.47012 0.0
C532 C 0.59611 0.14673 0.50915 0.0
C533 C 0.62619 0.20081 0.47436 0.0
C534 C 0.65364 0.20992 0.49579 0.0
C535 C 0.6587 0.20051 0.53532 0.0
C536 C 0.63722 0.18096 0.55303 0.0
C537 C 0.63756 0.18466 0.51339 0.0
C538 C 0.59995 0.13951 0.54885 0.0
C539 C 0.57975 0.12208 0.52694 0.0
H540 H 0.18931 0.23084 0.72558 0.0
H541 H 0.16687 0.3964 0.74457 0.0
H542 H 0.16289 0.37571 0.78287 0.0
H543 H 0.14734 0.30849 0.80849 0.0
H544 H 0.15757 0.1422 0.78742 0.0
H545 H 0.18557 0.1647 0.75263 0.0
C546 C 0.18575 0.2625 0.73837 0.0
C547 C 0.17885 0.31502 0.73246 0.0
C548 C 0.18015 0.2498 0.75989 0.0
C549 C 0.17281 0.35576 0.74892 0.0
C550 C 0.16994 0.3438 0.77071 0.0
C551 C 0.15737 0.27735 0.79653 0.0
C552 C 0.15026 0.22383 0.80034 0.0
C553 C 0.1708 0.29067 0.77609 0.0
C554 C 0.16256 0.18367 0.78469 0.0
C555 C 0.17838 0.19653 0.7648 0.0
loop_
_geom_bond_atom_site_label_1
_geom_bond_atom_site_label_2
_geom_bond_distance
_geom_bond_site_symmetry_2
_ccdc_geom_bond_type
H0 C3 0.929 . S
H1 C6 0.929 . S
H2 C8 0.930 . S
C3 H0 0.929 . S
C3 C4 1.398 . S
C3 C5 1.396 . S
C4 C3 1.398 . S
C4 C8 1.407 . S
C5 C3 1.396 . S
C5 C6 1.394 . S
C6 H1 0.929 . S
C6 C5 1.394 . S
C6 C7 1.382 . S
C7 C6 1.382 . S
C7 C8 1.392 . S
C7 N9 1.420 . S
C8 H2 0.930 . S
C8 C4 1.407 . S
C8 C7 1.392 . S
N9 C7 1.420 . S
N9 C10 1.244 . S
C10 N9 1.244 . S
H11 C14 0.929 . S
H12 C17 0.929 . S
H13 C19 0.930 . S
C14 H11 0.929 . S
C14 C15 1.398 . S
C14 C16 1.396 . S
C15 C14 1.398 . S
C15 C19 1.407 . S
C16 C14 1.396 . S
C16 C17 1.394 . S
C17 H12 0.929 . S
C17 C16 1.394 . S
C17 C18 1.382 . S
C18 C17 1.382 . S
C18 C19 1.392 . S
C18 N20 1.420 . S
C19 H13 0.930 . S
C19 C15 1.407 . S
C19 C18 1.392 . S
N20 C18 1.420 . S
N20 C21 1.244 1_455 S
C21 N20 1.244 1_655 S
H22 C25 0.929 . S
H23 C28 0.929 . S
H24 C30 0.930 . S
C25 H22 0.929 . S
C25 C26 1.398 . S
C25 C27 1.396 . S
C26 C25 1.398 . S
C26 C30 1.407 . S
C27 C25 1.396 . S
C27 C28 1.394 . S
C28 H23 0.929 . S
C28 C27 1.394 . S
C28 C29 1.382 . S
C29 C28 1.382 . S
C29 C30 1.392 . S
C29 N31 1.420 . S
C30 H24 0.930 . S
C30 C26 1.407 . S
C30 C29 1.392 . S
N31 C29 1.420 . S
N31 C32 1.244 . S
C32 N31 1.244 . S
H33 C36 0.929 . S
H34 C39 0.929 . S
H35 C41 0.930 . S
C36 H33 0.929 . S
C36 C37 1.398 . S
C36 C38 1.396 . S
C37 C36 1.398 . S
C37 C41 1.407 . S
C38 C36 1.396 . S
C38 C39 1.394 . S
C39 H34 0.929 . S
C39 C38 1.394 . S
C39 C40 1.382 . S
C40 C39 1.382 . S
C40 C41 1.392 . S
C40 N42 1.420 . S
C41 H35 0.930 . S
C41 C37 1.407 . S
C41 C40 1.392 . S
N42 C40 1.420 . S
N42 C43 1.244 . S
C43 N42 1.244 . S
H44 C47 0.929 . S
H45 C50 0.929 . S
H46 C52 0.930 . S
C47 H44 0.929 . S
C47 C48 1.398 . S
C47 C49 1.396 . S
C48 C47 1.398 . S
C48 C52 1.407 . S
C49 C47 1.396 . S
C49 C50 1.394 . S
C50 H45 0.929 . S
C50 C49 1.394 . S
C50 C51 1.382 . S
C51 C50 1.382 . S
C51 C52 1.392 . S
C51 N53 1.420 . S
C52 H46 0.930 . S
C52 C48 1.407 . S
C52 C51 1.392 . S
N53 C51 1.420 . S
N53 C54 1.244 . S
C54 N53 1.244 . S
H55 C58 0.929 . S
H56 C61 0.929 . S
H57 C63 0.930 . S
C58 H55 0.929 . S
C58 C59 1.398 . S
C58 C60 1.396 . S
C59 C58 1.398 . S
C59 C63 1.407 . S
C60 C58 1.396 . S
C60 C61 1.394 . S
C61 H56 0.929 . S
C61 C60 1.394 . S
C61 C62 1.382 . S
C62 C61 1.382 . S
C62 C63 1.392 . S
C62 N64 1.420 . S
C63 H57 0.930 . S
C63 C59 1.407 . S
C63 C62 1.392 . S
N64 C62 1.420 . S
N64 C65 1.244 . S
C65 N64 1.244 . S
H66 C69 0.929 . S
H67 C72 0.929 . S
H68 C74 0.930 . S
C69 H66 0.929 . S
C69 C70 1.398 . S
C69 C71 1.396 . S
C70 C69 1.398 . S
C70 C74 1.407 . S
C71 C69 1.396 . S
C71 C72 1.394 . S
C72 H67 0.929 . S
C72 C71 1.394 . S
C72 C73 1.382 . S
C73 C72 1.382 . S
C73 C74 1.392 . S
C73 N75 1.420 . S
C74 H68 0.930 . S
C74 C70 1.407 . S
C74 C73 1.392 . S
N75 C73 1.420 . S
N75 C76 1.244 . S
C76 N75 1.244 . S
H77 C80 0.929 . S
H78 C83 0.929 . S
H79 C85 0.930 . S
C80 H77 0.929 . S
C80 C81 1.398 . S
C80 C82 1.396 . S
C81 C80 1.398 . S
C81 C85 1.407 . S
C82 C80 1.396 . S
C82 C83 1.394 . S
C83 H78 0.929 . S
C83 C82 1.394 . S
C83 C84 1.382 . S
C84 C83 1.382 . S
C84 C85 1.392 . S
C84 N86 1.420 . S
C85 H79 0.930 . S
C85 C81 1.407 . S
C85 C84 1.392 . S
N86 C84 1.420 . S
N86 C87 1.244 . S
C87 N86 1.244 . S
Zn88 O94 1.920 . S
Zn88 O100 1.898 . S
Zn88 O103 1.905 . S
Zn89 O97 1.905 . S
Zn89 O98 1.898 . S
Zn89 O106 1.920 . S
Zn90 O93 2.080 . S
Zn90 O96 2.114 . S
Zn90 O99 2.120 . S
Zn90 O101 2.120 . S
Zn90 O102 2.114 . S
Zn90 O105 2.080 . S
C91 O96 1.166 . S
C91 O97 1.182 . S
C92 O98 1.167 . S
C92 O99 1.299 . S
O93 Zn90 2.080 . S
O93 C107 1.305 . S
O94 Zn88 1.920 . S
O94 C107 1.234 . S
C95 O100 1.167 . S
C95 O101 1.299 . S
O96 Zn90 2.114 . S
O96 C91 1.166 . S
O97 Zn89 1.905 . S
O97 C91 1.182 . S
O98 Zn89 1.898 . S
O98 C92 1.167 . S
O99 Zn90 2.120 . S
O99 C92 1.299 . S
O100 Zn88 1.898 . S
O100 C95 1.167 . S
O101 Zn90 2.120 . S
O101 C95 1.299 . S
O102 Zn90 2.114 . S
O102 C104 1.166 . S
O103 Zn88 1.905 . S
O103 C104 1.182 . S
C104 O102 1.166 . S
C104 O103 1.182 . S
O105 Zn90 2.080 . S
O105 C108 1.305 . S
O106 Zn89 1.920 . S
O106 C108 1.234 . S
C107 O93 1.305 . S
C107 O94 1.234 . S
C108 O105 1.305 . S
C108 O106 1.234 . S
Zn109 O115 1.920 . S
Zn109 O121 1.898 . S
Zn109 O124 1.905 . S
Zn110 O118 1.905 . S
Zn110 O119 1.898 . S
Zn110 O127 1.920 . S
Zn111 O114 2.080 . S
Zn111 O117 2.114 . S
Zn111 O120 2.120 . S
Zn111 O122 2.120 . S
Zn111 O123 2.114 . S
Zn111 O126 2.080 . S
C112 O117 1.166 . S
C112 O118 1.182 . S
C113 O119 1.167 . S
C113 O120 1.299 . S
O114 Zn111 2.080 . S
O114 C128 1.305 . S
O115 Zn109 1.920 . S
O115 C128 1.234 . S
C116 O121 1.167 . S
C116 O122 1.299 . S
O117 Zn111 2.114 . S
O117 C112 1.166 . S
O118 Zn110 1.905 . S
O118 C112 1.182 . S
O119 Zn110 1.898 . S
O119 C113 1.167 . S
O120 Zn111 2.120 . S
O120 C113 1.299 . S
O121 Zn109 1.898 . S
O121 C116 1.167 . S
O122 Zn111 2.120 . S
O122 C116 1.299 . S
O123 Zn111 2.114 . S
O123 C125 1.166 . S
O124 Zn109 1.905 . S
O124 C125 1.182 . S
C125 O123 1.166 . S
C125 O124 1.182 . S
O126 Zn111 2.080 . S
O126 C129 1.305 . S
O127 Zn110 1.920 . S
O127 C129 1.234 . S
C128 O114 1.305 . S
C128 O115 1.234 . S
C129 O126 1.305 . S
C129 O127 1.234 . S
Zn130 O136 1.920 . S
Zn130 O142 1.898 . S
Zn130 O145 1.905 . S
Zn131 O139 1.905 . S
Zn131 O140 1.898 . S
Zn131 O148 1.920 . S
Zn132 O135 2.080 . S
Zn132 O138 2.114 . S
Zn132 O141 2.120 . S
Zn132 O143 2.120 . S
Zn132 O144 2.114 . S
Zn132 O147 2.080 . S
C133 O138 1.166 . S
C133 O139 1.182 . S
C134 O140 1.167 . S
C134 O141 1.299 . S
O135 Zn132 2.080 . S
O135 C149 1.305 . S
O136 Zn130 1.920 . S
O136 C149 1.234 . S
C137 O142 1.167 . S
C137 O143 1.299 . S
O138 Zn132 2.114 . S
O138 C133 1.166 . S
O139 Zn131 1.905 . S
O139 C133 1.182 . S
O140 Zn131 1.898 . S
O140 C134 1.167 . S
O141 Zn132 2.120 . S
O141 C134 1.299 . S
O142 Zn130 1.898 . S
O142 C137 1.167 . S
O143 Zn132 2.120 . S
O143 C137 1.299 . S
O144 Zn132 2.114 . S
O144 C146 1.166 . S
O145 Zn130 1.905 . S
O145 C146 1.182 . S
C146 O144 1.166 . S
C146 O145 1.182 . S
O147 Zn132 2.080 . S
O147 C150 1.305 . S
O148 Zn131 1.920 . S
O148 C150 1.234 . S
C149 O135 1.305 . S
C149 O136 1.234 . S
C150 O147 1.305 . S
C150 O148 1.234 . S
Zn151 O157 1.920 . S
Zn151 O163 1.898 . S
Zn151 O166 1.905 1_455 S
Zn152 O160 1.905 . S
Zn152 O161 1.898 . S
Zn152 O169 1.920 . S
Zn153 O156 2.080 . S
Zn153 O159 2.114 . S
Zn153 O162 2.120 . S
Zn153 O164 2.120 . S
Zn153 O165 2.114 . S
Zn153 O168 2.080 . S
C154 O159 1.166 . S
C154 O160 1.182 . S
C155 O161 1.167 . S
C155 O162 1.299 . S
O156 Zn153 2.080 . S
O156 C170 1.305 . S
O157 Zn151 1.920 . S
O157 C170 1.234 . S
C158 O163 1.167 . S
C158 O164 1.299 . S
O159 Zn153 2.114 . S
O159 C154 1.166 . S
O160 Zn152 1.905 . S
O160 C154 1.182 . S
O161 Zn152 1.898 . S
O161 C155 1.167 . S
O162 Zn153 2.120 . S
O162 C155 1.299 . S
O163 Zn151 1.898 . S
O163 C158 1.167 . S
O164 Zn153 2.120 . S
O164 C158 1.299 . S
O165 Zn153 2.114 . S
O165 C167 1.166 1_455 S
O166 Zn151 1.905 1_655 S
O166 C167 1.182 . S
C167 O165 1.166 1_655 S
C167 O166 1.182 . S
O168 Zn153 2.080 . S
O168 C171 1.305 . S
O169 Zn152 1.920 . S
O169 C171 1.234 . S
C170 O156 1.305 . S
C170 O157 1.234 . S
C171 O168 1.305 . S
C171 O169 1.234 . S
H172 C178 0.930 . S
H173 C181 0.930 . S
H174 C182 0.930 . S
H175 C183 0.930 . S
H176 C186 0.930 . S
H177 C187 0.930 . S
C178 H172 0.930 . S
C178 C179 1.355 . S
C178 C180 1.415 . S
C179 C178 1.355 . S
C179 C181 1.419 . S
C180 C178 1.415 . S
C180 C185 1.425 . S
C180 C187 1.409 . S
C181 H173 0.930 . S
C181 C179 1.419 . S
C181 C182 1.362 . S
C182 H174 0.930 . S
C182 C181 1.362 . S
C182 C185 1.409 . S
C183 H175 0.930 . S
C183 C184 1.355 . S
C183 C185 1.415 . S
C184 C183 1.355 . S
C184 C186 1.419 . S
C185 C180 1.425 . S
C185 C182 1.409 . S
C185 C183 1.415 . S
C186 H176 0.930 . S
C186 C184 1.419 . S
C186 C187 1.362 . S
C187 H177 0.930 . S
C187 C180 1.409 . S
C187 C186 1.362 . S
H188 C194 0.930 . S
H189 C197 0.930 . S
H190 C198 0.930 . S
H191 C199 0.930 . S
H192 C202 0.930 . S
H193 C203 0.930 . S
C194 H188 0.930 . S
C194 C195 1.355 . S
C194 C196 1.415 . S
C195 C194 1.355 . S
C195 C197 1.419 . S
C196 C194 1.415 . S
C196 C201 1.425 . S
C196 C203 1.409 . S
C197 H189 0.930 . S
C197 C195 1.419 . S
C197 C198 1.362 . S
C198 H190 0.930 . S
C198 C197 1.362 . S
C198 C201 1.409 . S
C199 H191 0.930 . S
C199 C200 1.355 . S
C199 C201 1.415 . S
C200 C199 1.355 . S
C200 C202 1.419 . S
C201 C196 1.425 . S
C201 C198 1.409 . S
C201 C199 1.415 . S
C202 H192 0.930 . S
C202 C200 1.419 . S
C202 C203 1.362 . S
C203 H193 0.930 . S
C203 C196 1.409 . S
C203 C202 1.362 . S
H204 C210 0.930 . S
H205 C213 0.930 . S
H206 C214 0.930 . S
H207 C215 0.930 . S
H208 C218 0.930 . S
H209 C219 0.930 . S
C210 H204 0.930 . S
C210 C211 1.355 . S
C210 C212 1.415 . S
C211 C210 1.355 . S
C211 C213 1.419 . S
C212 C210 1.415 . S
C212 C217 1.425 . S
C212 C219 1.409 . S
C213 H205 0.930 . S
C213 C211 1.419 . S
C213 C214 1.362 . S
C214 H206 0.930 . S
C214 C213 1.362 . S
C214 C217 1.409 . S
C215 H207 0.930 . S
C215 C216 1.355 . S
C215 C217 1.415 . S
C216 C215 1.355 . S
C216 C218 1.419 . S
C217 C212 1.425 . S
C217 C214 1.409 . S
C217 C215 1.415 . S
C218 H208 0.930 . S
C218 C216 1.419 . S
C218 C219 1.362 . S
C219 H209 0.930 . S
C219 C212 1.409 . S
C219 C218 1.362 . S
H220 C226 0.930 . S
H221 C229 0.930 . S
H222 C230 0.930 . S
H223 C231 0.930 . S
H224 C234 0.930 . S
H225 C235 0.930 . S
C226 H220 0.930 . S
C226 C227 1.355 . S
C226 C228 1.415 . S
C227 C226 1.355 . S
C227 C229 1.419 . S
C228 C226 1.415 . S
C228 C233 1.425 . S
C228 C235 1.409 . S
C229 H221 0.930 . S
C229 C227 1.419 . S
C229 C230 1.362 . S
C230 H222 0.930 . S
C230 C229 1.362 . S
C230 C233 1.409 . S
C231 H223 0.930 . S
C231 C232 1.355 . S
C231 C233 1.415 . S
C232 C231 1.355 . S
C232 C234 1.419 . S
C233 C228 1.425 . S
C233 C230 1.409 . S
C233 C231 1.415 . S
C234 H224 0.930 . S
C234 C232 1.419 . S
C234 C235 1.362 . S
C235 H225 0.930 . S
C235 C228 1.409 . S
C235 C234 1.362 . S
H236 C242 0.930 1_655 S
H237 C245 0.930 . S
H238 C246 0.930 . S
H239 C247 0.930 . S
H240 C250 0.930 1_655 S
H241 C251 0.930 . S
C242 H236 0.930 1_455 S
C242 C243 1.355 . S
C242 C244 1.415 . S
C243 C242 1.355 . S
C243 C245 1.419 . S
C244 C242 1.415 . S
C244 C249 1.425 . S
C244 C251 1.409 1_455 S
C245 H237 0.930 . S
C245 C243 1.419 . S
C245 C246 1.362 . S
C246 H238 0.930 . S
C246 C245 1.362 . S
C246 C249 1.409 . S
C247 H239 0.930 . S
C247 C248 1.355 . S
C247 C249 1.415 . S
C248 C247 1.355 . S
C248 C250 1.419 . S
C249 C244 1.425 . S
C249 C246 1.409 . S
C249 C247 1.415 . S
C250 H240 0.930 1_455 S
C250 C248 1.419 . S
C250 C251 1.362 1_455 S
C251 H241 0.930 . S
C251 C244 1.409 1_655 S
C251 C250 1.362 1_655 S
H252 C258 0.930 . S
H253 C261 0.930 . S
H254 C262 0.930 . S
H255 C263 0.930 . S
H256 C266 0.930 1_455 S
H257 C267 0.930 . S
C258 H252 0.930 . S
C258 C259 1.355 . S
C258 C260 1.415 . S
C259 C258 1.355 . S
C259 C261 1.419 . S
C260 C258 1.415 . S
C260 C265 1.425 . S
C260 C267 1.409 . S
C261 H253 0.930 . S
C261 C259 1.419 . S
C261 C262 1.362 . S
C262 H254 0.930 . S
C262 C261 1.362 . S
C262 C265 1.409 . S
C263 H255 0.930 . S
C263 C264 1.355 . S
C263 C265 1.415 . S
C264 C263 1.355 . S
C264 C266 1.419 . S
C265 C260 1.425 . S
C265 C262 1.409 . S
C265 C263 1.415 . S
C266 H256 0.930 1_655 S
C266 C264 1.419 . S
C266 C267 1.362 . S
C267 H257 0.930 . S
C267 C260 1.409 . S
C267 C266 1.362 . S
H268 C274 0.930 . S
H269 C277 0.930 . S
H270 C278 0.930 . S
H271 C279 0.930 . S
H272 C282 0.930 . S
H273 C283 0.930 . S
C274 H268 0.930 . S
C274 C275 1.355 . S
C274 C276 1.415 . S
C275 C274 1.355 . S
C275 C277 1.419 . S
C276 C274 1.415 . S
C276 C281 1.425 . S
C276 C283 1.409 . S
C277 H269 0.930 . S
C277 C275 1.419 . S
C277 C278 1.362 . S
C278 H270 0.930 . S
C278 C277 1.362 . S
C278 C281 1.409 . S
C279 H271 0.930 . S
C279 C280 1.355 . S
C279 C281 1.415 . S
C280 C279 1.355 . S
C280 C282 1.419 . S
C281 C276 1.425 . S
C281 C278 1.409 . S
C281 C279 1.415 . S
C282 H272 0.930 . S
C282 C280 1.419 . S
C282 C283 1.362 . S
C283 H273 0.930 . S
C283 C276 1.409 . S
C283 C282 1.362 . S
H284 C290 0.930 . S
H285 C293 0.930 . S
H286 C294 0.930 . S
H287 C295 0.930 . S
H288 C298 0.930 . S
H289 C299 0.930 . S
C290 H284 0.930 . S
C290 C291 1.355 1_655 S
C290 C292 1.415 . S
C291 C290 1.355 1_455 S
C291 C293 1.419 . S
C292 C290 1.415 . S
C292 C297 1.425 . S
C292 C299 1.409 . S
C293 H285 0.930 . S
C293 C291 1.419 . S
C293 C294 1.362 1_455 S
C294 H286 0.930 . S
C294 C293 1.362 1_655 S
C294 C297 1.409 . S
C295 H287 0.930 . S
C295 C296 1.355 . S
C295 C297 1.415 . S
C296 C295 1.355 . S
C296 C298 1.419 . S
C297 C292 1.425 . S
C297 C294 1.409 . S
C297 C295 1.415 . S
C298 H288 0.930 . S
C298 C296 1.419 . S
C298 C299 1.362 . S
C299 H289 0.930 . S
C299 C292 1.409 . S
C299 C298 1.362 . S
H300 C306 0.930 . S
H301 C309 0.930 . S
H302 C310 0.930 . S
H303 C311 0.930 . S
H304 C314 0.930 . S
H305 C315 0.930 . S
C306 H300 0.930 . S
C306 C307 1.355 . S
C306 C308 1.415 . S
C307 C306 1.355 . S
C307 C309 1.419 . S
C308 C306 1.415 . S
C308 C313 1.425 . S
C308 C315 1.409 . S
C309 H301 0.930 . S
C309 C307 1.419 . S
C309 C310 1.362 . S
C310 H302 0.930 . S
C310 C309 1.362 . S
C310 C313 1.409 . S
C311 H303 0.930 . S
C311 C312 1.355 . S
C311 C313 1.415 . S
C312 C311 1.355 . S
C312 C314 1.419 . S
C313 C308 1.425 . S
C313 C310 1.409 . S
C313 C311 1.415 . S
C314 H304 0.930 . S
C314 C312 1.419 . S
C314 C315 1.362 . S
C315 H305 0.930 . S
C315 C308 1.409 . S
C315 C314 1.362 . S
H316 C322 0.930 . S
H317 C325 0.930 . S
H318 C326 0.930 . S
H319 C327 0.930 . S
H320 C330 0.930 . S
H321 C331 0.930 . S
C322 H316 0.930 . S
C322 C323 1.355 . S
C322 C324 1.415 . S
C323 C322 1.355 . S
C323 C325 1.419 . S
C324 C322 1.415 . S
C324 C329 1.425 . S
C324 C331 1.409 . S
C325 H317 0.930 . S
C325 C323 1.419 . S
C325 C326 1.362 . S
C326 H318 0.930 . S
C326 C325 1.362 . S
C326 C329 1.409 . S
C327 H319 0.930 . S
C327 C328 1.355 . S
C327 C329 1.415 . S
C328 C327 1.355 . S
C328 C330 1.419 . S
C329 C324 1.425 . S
C329 C326 1.409 . S
C329 C327 1.415 . S
C330 H320 0.930 . S
C330 C328 1.419 . S
C330 C331 1.362 . S
C331 H321 0.930 . S
C331 C324 1.409 . S
C331 C330 1.362 . S
H332 C338 0.930 . S
H333 C341 0.930 . S
H334 C342 0.930 . S
H335 C343 0.930 . S
H336 C346 0.930 . S
H337 C347 0.930 . S
C338 H332 0.930 . S
C338 C339 1.355 . S
C338 C340 1.415 . S
C339 C338 1.355 . S
C339 C341 1.419 . S
C340 C338 1.415 . S
C340 C345 1.425 . S
C340 C347 1.409 . S
C341 H333 0.930 . S
C341 C339 1.419 . S
C341 C342 1.362 . S
C342 H334 0.930 . S
C342 C341 1.362 . S
C342 C345 1.409 . S
C343 H335 0.930 . S
C343 C344 1.355 . S
C343 C345 1.415 . S
C344 C343 1.355 . S
C344 C346 1.419 . S
C345 C340 1.425 . S
C345 C342 1.409 . S
C345 C343 1.415 . S
C346 H336 0.930 . S
C346 C344 1.419 . S
C346 C347 1.362 . S
C347 H337 0.930 . S
C347 C340 1.409 . S
C347 C346 1.362 . S
H348 C354 0.930 . S
H349 C357 0.930 . S
H350 C358 0.930 . S
H351 C359 0.930 . S
H352 C362 0.930 . S
H353 C363 0.930 . S
C354 H348 0.930 . S
C354 C355 1.355 . S
C354 C356 1.415 . S
C355 C354 1.355 . S
C355 C357 1.419 . S
C356 C354 1.415 . S
C356 C361 1.425 . S
C356 C363 1.409 . S
C357 H349 0.930 . S
C357 C355 1.419 . S
C357 C358 1.362 . S
C358 H350 0.930 . S
C358 C357 1.362 . S
C358 C361 1.409 . S
C359 H351 0.930 . S
C359 C360 1.355 . S
C359 C361 1.415 . S
C360 C359 1.355 . S
C360 C362 1.419 . S
C361 C356 1.425 . S
C361 C358 1.409 . S
C361 C359 1.415 . S
C362 H352 0.930 . S
C362 C360 1.419 . S
C362 C363 1.362 . S
C363 H353 0.930 . S
C363 C356 1.409 . S
C363 C362 1.362 . S
H364 C370 0.930 . S
H365 C373 0.930 . S
H366 C374 0.930 . S
H367 C375 0.930 . S
H368 C378 0.930 . S
H369 C379 0.930 . S
C370 H364 0.930 . S
C370 C371 1.355 . S
C370 C372 1.415 . S
C371 C370 1.355 . S
C371 C373 1.419 . S
C372 C370 1.415 . S
C372 C377 1.425 . S
C372 C379 1.409 . S
C373 H365 0.930 . S
C373 C371 1.419 . S
C373 C374 1.362 . S
C374 H366 0.930 . S
C374 C373 1.362 . S
C374 C377 1.409 . S
C375 H367 0.930 . S
C375 C376 1.355 . S
C375 C377 1.415 1_545 S
C376 C375 1.355 . S
C376 C378 1.419 . S
C377 C372 1.425 . S
C377 C374 1.409 . S
C377 C375 1.415 1_565 S
C378 H368 0.930 . S
C378 C376 1.419 . S
C378 C379 1.362 1_545 S
C379 H369 0.930 . S
C379 C372 1.409 . S
C379 C378 1.362 1_565 S
H380 C386 0.930 . S
H381 C389 0.930 . S
H382 C390 0.930 . S
H383 C391 0.930 . S
H384 C394 0.930 . S
H385 C395 0.930 . S
C386 H380 0.930 . S
C386 C387 1.355 . S
C386 C388 1.415 1_545 S
C387 C386 1.355 . S
C387 C389 1.419 . S
C388 C386 1.415 1_565 S
C388 C393 1.425 . S
C388 C395 1.409 . S
C389 H381 0.930 . S
C389 C387 1.419 . S
C389 C390 1.362 . S
C390 H382 0.930 . S
C390 C389 1.362 . S
C390 C393 1.409 1_545 S
C391 H383 0.930 . S
C391 C392 1.355 . S
C391 C393 1.415 . S
C392 C391 1.355 . S
C392 C394 1.419 . S
C393 C388 1.425 . S
C393 C390 1.409 1_565 S
C393 C391 1.415 . S
C394 H384 0.930 . S
C394 C392 1.419 . S
C394 C395 1.362 . S
C395 H385 0.930 . S
C395 C388 1.409 . S
C395 C394 1.362 . S
H396 C402 0.930 . S
H397 C405 0.930 . S
H398 C406 0.930 . S
H399 C407 0.930 . S
H400 C410 0.930 . S
H401 C411 0.930 . S
C402 H396 0.930 . S
C402 C403 1.355 . S
C402 C404 1.415 . S
C403 C402 1.355 . S
C403 C405 1.419 . S
C404 C402 1.415 . S
C404 C409 1.425 . S
C404 C411 1.409 . S
C405 H397 0.930 . S
C405 C403 1.419 . S
C405 C406 1.362 . S
C406 H398 0.930 . S
C406 C405 1.362 . S
C406 C409 1.409 . S
C407 H399 0.930 . S
C407 C408 1.355 . S
C407 C409 1.415 1_565 S
C408 C407 1.355 . S
C408 C410 1.419 . S
C409 C404 1.425 . S
C409 C406 1.409 . S
C409 C407 1.415 1_545 S
C410 H400 0.930 . S
C410 C408 1.419 . S
C410 C411 1.362 1_565 S
C411 H401 0.930 . S
C411 C404 1.409 . S
C411 C410 1.362 1_545 S
H412 C418 0.930 1_655 S
H413 C421 0.930 . S
H414 C422 0.930 . S
H415 C423 0.930 . S
H416 C426 0.930 1_655 S
H417 C427 0.930 . S
C418 H412 0.930 1_455 S
C418 C419 1.355 . S
C418 C420 1.415 . S
C419 C418 1.355 . S
C419 C421 1.419 . S
C420 C418 1.415 . S
C420 C425 1.425 1_565 S
C420 C427 1.409 1_465 S
C421 H413 0.930 . S
C421 C419 1.419 . S
C421 C422 1.362 . S
C422 H414 0.930 . S
C422 C421 1.362 . S
C422 C425 1.409 1_565 S
C423 H415 0.930 . S
C423 C424 1.355 . S
C423 C425 1.415 . S
C424 C423 1.355 . S
C424 C426 1.419 . S
C425 C420 1.425 1_545 S
C425 C422 1.409 1_545 S
C425 C423 1.415 . S
C426 H416 0.930 1_455 S
C426 C424 1.419 . S
C426 C427 1.362 1_455 S
C427 H417 0.930 . S
C427 C420 1.409 1_645 S
C427 C426 1.362 1_655 S
H428 C434 0.930 . S
H429 C437 0.930 . S
H430 C438 0.930 . S
H431 C439 0.930 . S
H432 C442 0.930 . S
H433 C443 0.930 . S
C434 H428 0.930 . S
C434 C435 1.355 . S
C434 C436 1.415 1_554 S
C435 C434 1.355 . S
C435 C437 1.419 . S
C436 C434 1.415 1_556 S
C436 C441 1.425 . S
C436 C443 1.409 . S
C437 H429 0.930 . S
C437 C435 1.419 . S
C437 C438 1.362 1_554 S
C438 H430 0.930 . S
C438 C437 1.362 1_556 S
C438 C441 1.409 . S
C439 H431 0.930 . S
C439 C440 1.355 . S
C439 C441 1.415 . S
C440 C439 1.355 . S
C440 C442 1.419 . S
C441 C436 1.425 . S
C441 C438 1.409 . S
C441 C439 1.415 . S
C442 H432 0.930 . S
C442 C440 1.419 . S
C442 C443 1.362 . S
C443 H433 0.930 . S
C443 C436 1.409 . S
C443 C442 1.362 . S
H444 C450 0.930 . S
H445 C453 0.930 . S
H446 C454 0.930 . S
H447 C455 0.930 . S
H448 C458 0.930 . S
H449 C459 0.930 . S
C450 H444 0.930 . S
C450 C451 1.355 . S
C450 C452 1.415 . S
C451 C450 1.355 . S
C451 C453 1.419 . S
C452 C450 1.415 . S
C452 C457 1.425 . S
C452 C459 1.409 . S
C453 H445 0.930 . S
C453 C451 1.419 . S
C453 C454 1.362 . S
C454 H446 0.930 . S
C454 C453 1.362 . S
C454 C457 1.409 . S
C455 H447 0.930 . S
C455 C456 1.355 . S
C455 C457 1.415 . S
C456 C455 1.355 . S
C456 C458 1.419 . S
C457 C452 1.425 . S
C457 C454 1.409 . S
C457 C455 1.415 . S
C458 H448 0.930 . S
C458 C456 1.419 . S
C458 C459 1.362 . S
C459 H449 0.930 . S
C459 C452 1.409 . S
C459 C458 1.362 . S
H460 C466 0.930 . S
H461 C469 0.930 . S
H462 C470 0.930 . S
H463 C471 0.930 . S
H464 C474 0.930 . S
H465 C475 0.930 . S
C466 H460 0.930 . S
C466 C467 1.355 . S
C466 C468 1.415 . S
C467 C466 1.355 . S
C467 C469 1.419 . S
C468 C466 1.415 . S
C468 C473 1.425 . S
C468 C475 1.409 . S
C469 H461 0.930 . S
C469 C467 1.419 . S
C469 C470 1.362 . S
C470 H462 0.930 . S
C470 C469 1.362 . S
C470 C473 1.409 . S
C471 H463 0.930 . S
C471 C472 1.355 . S
C471 C473 1.415 . S
C472 C471 1.355 . S
C472 C474 1.419 . S
C473 C468 1.425 . S
C473 C470 1.409 . S
C473 C471 1.415 . S
C474 H464 0.930 . S
C474 C472 1.419 . S
C474 C475 1.362 . S
C475 H465 0.930 . S
C475 C468 1.409 . S
C475 C474 1.362 . S
H476 C482 0.930 . S
H477 C485 0.930 . S
H478 C486 0.930 . S
H479 C487 0.930 . S
H480 C490 0.930 . S
H481 C491 0.930 . S
C482 H476 0.930 . S
C482 C483 1.355 . S
C482 C484 1.415 . S
C483 C482 1.355 . S
C483 C485 1.419 . S
C484 C482 1.415 . S
C484 C489 1.425 . S
C484 C491 1.409 . S
C485 H477 0.930 . S
C485 C483 1.419 . S
C485 C486 1.362 . S
C486 H478 0.930 . S
C486 C485 1.362 . S
C486 C489 1.409 . S
C487 H479 0.930 . S
C487 C488 1.355 . S
C487 C489 1.415 . S
C488 C487 1.355 . S
C488 C490 1.419 . S
C489 C484 1.425 . S
C489 C486 1.409 . S
C489 C487 1.415 . S
C490 H480 0.930 . S
C490 C488 1.419 . S
C490 C491 1.362 . S
C491 H481 0.930 . S
C491 C484 1.409 . S
C491 C490 1.362 . S
H492 C498 0.930 . S
H493 C501 0.930 . S
H494 C502 0.930 . S
H495 C503 0.930 . S
H496 C506 0.930 . S
H497 C507 0.930 . S
C498 H492 0.930 . S
C498 C499 1.355 . S
C498 C500 1.415 1_556 S
C499 C498 1.355 . S
C499 C501 1.419 . S
C500 C498 1.415 1_554 S
C500 C505 1.425 . S
C500 C507 1.409 . S
C501 H493 0.930 . S
C501 C499 1.419 . S
C501 C502 1.362 . S
C502 H494 0.930 . S
C502 C501 1.362 . S
C502 C505 1.409 1_556 S
C503 H495 0.930 . S
C503 C504 1.355 . S
C503 C505 1.415 . S
C504 C503 1.355 . S
C504 C506 1.419 . S
C505 C500 1.425 . S
C505 C502 1.409 1_554 S
C505 C503 1.415 . S
C506 H496 0.930 . S
C506 C504 1.419 . S
C506 C507 1.362 . S
C507 H497 0.930 . S
C507 C500 1.409 . S
C507 C506 1.362 . S
H508 C514 0.930 . S
H509 C517 0.930 . S
H510 C518 0.930 . S
H511 C519 0.930 . S
H512 C522 0.930 . S
H513 C523 0.930 . S
C514 H508 0.930 . S
C514 C515 1.355 . S
C514 C516 1.415 . S
C515 C514 1.355 . S
C515 C517 1.419 . S
C516 C514 1.415 . S
C516 C521 1.425 . S
C516 C523 1.409 . S
C517 H509 0.930 . S
C517 C515 1.419 . S
C517 C518 1.362 . S
C518 H510 0.930 . S
C518 C517 1.362 . S
C518 C521 1.409 . S
C519 H511 0.930 . S
C519 C520 1.355 . S
C519 C521 1.415 . S
C520 C519 1.355 . S
C520 C522 1.419 . S
C521 C516 1.425 . S
C521 C518 1.409 . S
C521 C519 1.415 . S
C522 H512 0.930 . S
C522 C520 1.419 . S
C522 C523 1.362 . S
C523 H513 0.930 . S
C523 C516 1.409 . S
C523 C522 1.362 . S
H524 C530 0.930 . S
H525 C533 0.930 . S
H526 C534 0.930 . S
H527 C535 0.930 . S
H528 C538 0.930 . S
H529 C539 0.930 . S
C530 H524 0.930 . S
C530 C531 1.355 . S
C530 C532 1.415 . S
C531 C530 1.355 . S
C531 C533 1.419 . S
C532 C530 1.415 . S
C532 C537 1.425 . S
C532 C539 1.409 . S
C533 H525 0.930 . S
C533 C531 1.419 . S
C533 C534 1.362 . S
C534 H526 0.930 . S
C534 C533 1.362 . S
C534 C537 1.409 . S
C535 H527 0.930 . S
C535 C536 1.355 . S
C535 C537 1.415 . S
C536 C535 1.355 . S
C536 C538 1.419 . S
C537 C532 1.425 . S
C537 C534 1.409 . S
C537 C535 1.415 . S
C538 H528 0.930 . S
C538 C536 1.419 . S
C538 C539 1.362 . S
C539 H529 0.930 . S
C539 C532 1.409 . S
C539 C538 1.362 . S
H540 C546 0.930 . S
H541 C549 0.930 . S
H542 C550 0.930 . S
H543 C551 0.930 . S
H544 C554 0.930 . S
H545 C555 0.930 . S
C546 H540 0.930 . S
C546 C547 1.355 . S
C546 C548 1.415 . S
C547 C546 1.355 . S
C547 C549 1.419 . S
C548 C546 1.415 . S
C548 C553 1.425 . S
C548 C555 1.409 . S
C549 H541 0.930 . S
C549 C547 1.419 . S
C549 C550 1.362 . S
C550 H542 0.930 . S
C550 C549 1.362 . S
C550 C553 1.409 . S
C551 H543 0.930 . S
C551 C552 1.355 . S
C551 C553 1.415 . S
C552 C551 1.355 . S
C552 C554 1.419 . S
C553 C548 1.425 . S
C553 C550 1.409 . S
C553 C551 1.415 . S
C554 H544 0.930 . S
C554 C552 1.419 . S
C554 C555 1.362 . S
C555 H545 0.930 . S
C555 C548 1.409 . S
C555 C554 1.362 . S
C184 C95 1.399 . S
C179 C4 1.534 . S
C200 C113 1.421 . S
C195 C21 1.469 . S
C211 C32 1.432 . S
C216 C137 1.241 . S
C232 C167 1.266 . S
C227 C37 1.407 . S
C248 C155 1.312 . S
C243 C48 1.334 . S
C259 C65 1.487 . S
C264 C108 1.433 1_655 S
C275 C76 1.597 . S
C280 C128 1.490 . S
C291 C81 1.444 . S
C296 C133 1.267 . S
C307 C87 1.437 . S
C312 C149 1.335 . S
C323 C59 1.444 . S
C328 C104 1.281 . S
C344 C171 1.347 . S
C339 C43 1.433 . S
C360 C116 1.222 . S
C355 C15 1.416 . S
C371 C26 1.562 . S
C376 C134 1.464 . S
C387 C10 1.431 . S
C392 C92 1.302 . S
C408 C112 1.205 . S
C403 C70 1.372 . S
C424 C158 1.442 . S
C419 C54 1.575 . S
C440 C154 1.351 . S
C435 C5 1.533 . S
C456 C107 1.427 . S
C451 C16 1.537 . S
C467 C27 1.505 . S
C472 C129 1.290 . S
C483 C38 1.537 . S
C488 C150 1.486 . S
C504 C91 1.276 . S
C499 C49 1.545 . S
C515 C60 1.496 . S
C520 C125 1.477 . S
C536 C146 1.406 . S
C531 C71 1.598 . S
C552 C170 1.427 . S
C547 C82 1.488 . S
