# Generated by pormake.
# Topology pyr, (3,6)-cn, num edge types: 1
# Building blocks:
#     Node 0, Type 0, BuildingBlock: BETDIP_clean_linker_0, # of connection points: 3
#     Node 1, Type 0, BuildingBlock: BETDIP_clean_linker_0, # of connection points: 3
#     Node 2, Type 0, BuildingBlock: BETDIP_clean_linker_0, # of connection points: 3
#     Node 3, Type 0, BuildingBlock: BETDIP_clean_linker_0, # of connection points: 3
#     Node 4, Type 0, BuildingBlock: BETDIP_clean_linker_0, # of connection points: 3
#     Node 5, Type 0, BuildingBlock: BETDIP_clean_linker_0, # of connection points: 3
#     Node 6, Type 0, BuildingBlock: BETDIP_clean_linker_0, # of connection points: 3
#     Node 7, Type 0, BuildingBlock: BETDIP_clean_linker_0, # of connection points: 3
#     Node 8, Type 1, BuildingBlock: BETDAH_clean_sbu_0, # of connection points: 6
#     Node 9, Type 1, BuildingBlock: BETDAH_clean_sbu_0, # of connection points: 6
#     Node 10, Type 1, BuildingBlock: BETDAH_clean_sbu_0, # of connection points: 6
#     Node 11, Type 1, BuildingBlock: BETDAH_clean_sbu_0, # of connection points: 6
#     Edge 12, Type (0, 1), BuildingBlock: UVAHIK_clean_linker_0, # of connection points: 2
#     Edge 13, Type (0, 1), BuildingBlock: UVAHIK_clean_linker_0, # of connection points: 2
#     Edge 14, Type (0, 1), BuildingBlock: UVAHIK_clean_linker_0, # of connection points: 2
#     Edge 15, Type (0, 1), BuildingBlock: UVAHIK_clean_linker_0, # of connection points: 2
#     Edge 16, Type (0, 1), BuildingBlock: UVAHIK_clean_linker_0, # of connection points: 2
#     Edge 17, Type (0, 1), BuildingBlock: UVAHIK_clean_linker_0, # of connection points: 2
#     Edge 18, Type (0, 1), BuildingBlock: UVAHIK_clean_linker_0, # of connection points: 2
#     Edge 19, Type (0, 1), BuildingBlock: UVAHIK_clean_linker_0, # of connection points: 2
#     Edge 20, Type (0, 1), BuildingBlock: UVAHIK_clean_linker_0, # of connection points: 2
#     Edge 21, Type (0, 1), BuildingBlock: UVAHIK_clean_linker_0, # of connection points: 2
#     Edge 22, Type (0, 1), BuildingBlock: UVAHIK_clean_linker_0, # of connection points: 2
#     Edge 23, Type (0, 1), BuildingBlock: UVAHIK_clean_linker_0, # of connection points: 2
#     Edge 24, Type (0, 1), BuildingBlock: UVAHIK_clean_linker_0, # of connection points: 2
#     Edge 25, Type (0, 1), BuildingBlock: UVAHIK_clean_linker_0, # of connection points: 2
#     Edge 26, Type (0, 1), BuildingBlock: UVAHIK_clean_linker_0, # of connection points: 2
#     Edge 27, Type (0, 1), BuildingBlock: UVAHIK_clean_linker_0, # of connection points: 2
#     Edge 28, Type (0, 1), BuildingBlock: UVAHIK_clean_linker_0, # of connection points: 2
#     Edge 29, Type (0, 1), BuildingBlock: UVAHIK_clean_linker_0, # of connection points: 2
#     Edge 30, Type (0, 1), BuildingBlock: UVAHIK_clean_linker_0, # of connection points: 2
#     Edge 31, Type (0, 1), BuildingBlock: UVAHIK_clean_linker_0, # of connection points: 2
#     Edge 32, Type (0, 1), BuildingBlock: UVAHIK_clean_linker_0, # of connection points: 2
#     Edge 33, Type (0, 1), BuildingBlock: UVAHIK_clean_linker_0, # of connection points: 2
#     Edge 34, Type (0, 1), BuildingBlock: UVAHIK_clean_linker_0, # of connection points: 2
#     Edge 35, Type (0, 1), BuildingBlock: UVAHIK_clean_linker_0, # of connection points: 2
# Relax obj value: 0.101
# Max RMSD: 0.175
# Mean RMSD: 0.138
data_MOF--net-pyr--node1-BETDAH_clean_sbu_0--node2-BETDIP_clean_linker_0--edge1-UVAHIK_clean_linker_0
_symmetry_space_group_name_H-M    P1
_symmetry_Int_Tables_number       1
_symmetry_cell_setting            triclinic
loop_
_symmetry_equiv_pos_as_xyz
'x, y, z'
_cell_length_a     50.937679
_cell_length_b     49.945785
_cell_length_c     47.06972
_cell_angle_alpha  90.982582
_cell_angle_beta   86.669442
_cell_angle_gamma 104.81173
loop_
_atom_site_label
_atom_site_type_symbol
_atom_site_fract_x
_atom_site_fract_y
_atom_site_fract_z
_atom_type_partial_charge
H0 H 0.28189 0.31462 0.22349 0.0
H1 H 0.33956 0.29306 0.16296 0.0
H2 H 0.30932 0.24145 0.23618 0.0
H3 H 0.3081 0.36112 0.20503 0.0
C4 C 0.30246 0.35311 0.18401 0.0
C5 C 0.29488 0.30127 0.21693 0.0
C6 C 0.29382 0.27755 0.23297 0.0
C7 C 0.31157 0.30707 0.1918 0.0
C8 C 0.32746 0.28905 0.18287 0.0
C9 C 0.327 0.26541 0.19892 0.0
C10 C 0.31026 0.25996 0.22406 0.0
N11 N 0.31044 0.32927 0.17383 0.0
H12 H 0.27411 0.91176 0.64815 0.0
H13 H 0.2613 0.85352 0.57892 0.0
H14 H 0.30907 0.84181 0.64749 0.0
H15 H 0.25227 0.88855 0.55541 0.0
C16 C 0.24149 0.8978 0.57182 0.0
C17 C 0.27783 0.89339 0.63787 0.0
C18 C 0.29305 0.87784 0.65109 0.0
C19 C 0.26673 0.88513 0.61168 0.0
C20 C 0.27064 0.86086 0.59861 0.0
C21 C 0.28576 0.84512 0.61151 0.0
C22 C 0.29692 0.85368 0.63774 0.0
N23 N 0.25022 0.90067 0.60005 0.0
H24 H 0.68658 0.41504 0.85028 0.0
H25 H 0.61793 0.34412 0.84715 0.0
H26 H 0.67882 0.3467 0.90749 0.0
H27 H 0.6203 0.35842 0.80017 0.0
C28 C 0.6243 0.38079 0.80199 0.0
C29 C 0.67557 0.39486 0.85833 0.0
C30 C 0.68622 0.38243 0.8802 0.0
C31 C 0.65123 0.38113 0.84586 0.0
C32 C 0.63687 0.3547 0.85618 0.0
C33 C 0.64676 0.34189 0.87835 0.0
C34 C 0.67145 0.35601 0.89 0.0
N35 N 0.64155 0.39468 0.8235 0.0
H36 H 0.79056 0.65579 0.34463 0.0
H37 H 0.85678 0.7291 0.3367 0.0
H38 H 0.79287 0.7246 0.4014 0.0
H39 H 0.86896 0.71085 0.2977 0.0
C40 C 0.85851 0.68911 0.29613 0.0
C41 C 0.80052 0.67643 0.35184 0.0
C42 C 0.78858 0.68863 0.3745 0.0
C43 C 0.82495 0.69076 0.33783 0.0
C44 C 0.83787 0.71767 0.34703 0.0
C45 C 0.8263 0.73021 0.36983 0.0
C46 C 0.80162 0.71548 0.38335 0.0
N47 N 0.83572 0.67715 0.31484 0.0
H48 H 0.64771 0.78923 0.90924 0.0
H49 H 0.70516 0.77522 0.84433 0.0
H50 H 0.66116 0.83623 0.83133 0.0
H51 H 0.68548 0.72867 0.86114 0.0
C52 C 0.68957 0.73471 0.88308 0.0
C53 C 0.65725 0.7937 0.88809 0.0
C54 C 0.65217 0.81502 0.87172 0.0
C55 C 0.67527 0.77837 0.87762 0.0
C56 C 0.68951 0.7854 0.85122 0.0
C57 C 0.68511 0.80681 0.83471 0.0
C58 C 0.66553 0.8206 0.84462 0.0
N59 N 0.6806 0.75746 0.89485 0.0
H60 H 0.73586 0.20361 0.4105 0.0
H61 H 0.72517 0.24272 0.49086 0.0
H62 H 0.67215 0.24577 0.42428 0.0
H63 H 0.74212 0.20875 0.50654 0.0
C64 C 0.75765 0.20684 0.4904 0.0
C65 C 0.72532 0.21593 0.42377 0.0
C66 C 0.70302 0.22393 0.41372 0.0
C67 C 0.73311 0.22211 0.45164 0.0
C68 C 0.71905 0.2372 0.46945 0.0
C69 C 0.69712 0.24568 0.45957 0.0
C70 C 0.68932 0.23929 0.43169 0.0
N71 N 0.75462 0.21211 0.46139 0.0
H72 H 0.29562 0.66261 0.22086 0.0
H73 H 0.36337 0.73439 0.22559 0.0
H74 H 0.30429 0.73076 0.1632 0.0
H75 H 0.38238 0.70655 0.24848 0.0
C76 C 0.36661 0.69068 0.25936 0.0
C77 C 0.30658 0.68295 0.21316 0.0
C78 C 0.29675 0.69492 0.19036 0.0
C79 C 0.33093 0.69652 0.22572 0.0
C80 C 0.34528 0.72305 0.21556 0.0
C81 C 0.33582 0.73569 0.19298 0.0
C82 C 0.31163 0.7213 0.1806 0.0
N83 N 0.33996 0.68308 0.24867 0.0
H84 H 0.1141 0.34212 0.71907 0.0
H85 H 0.18188 0.414 0.7189 0.0
H86 H 0.17966 0.351 0.65511 0.0
H87 H 0.1707 0.40694 0.76923 0.0
C88 C 0.14909 0.40528 0.76806 0.0
C89 C 0.13359 0.35363 0.70975 0.0
C90 C 0.14521 0.34339 0.68544 0.0
C91 C 0.14698 0.37868 0.7223 0.0
C92 C 0.17197 0.39411 0.70996 0.0
C93 C 0.18361 0.38452 0.6853 0.0
C94 C 0.17023 0.35901 0.67345 0.0
N95 N 0.13437 0.38847 0.74664 0.0
Ho96 Ho -0.00579 0.05023 0.49891 0.0
Ho97 Ho 0.98105 1.02058 0.55685 0.0
C98 C 0.02266 0.08178 0.55412 0.0
C99 C 0.00241 0.08495 0.45716 0.0
C100 C 0.02667 0.10502 0.44507 0.0
C101 C 0.02416 0.12969 0.43317 0.0
C102 C 0.04711 0.14881 0.42144 0.0
C103 C 0.07297 0.14349 0.42127 0.0
C104 C 0.07536 0.11885 0.43371 0.0
C105 C 0.05247 0.09991 0.44566 0.0
C106 C 0.02496 1.0154 0.50968 0.0
C107 C 0.95653 0.98953 0.50098 0.0
C108 C 0.9766 0.99448 0.6043 0.0
C109 C 0.95276 0.97612 0.61933 0.0
C110 C 0.95549 0.95369 0.63541 0.0
C111 C 0.93262 0.93631 0.64954 0.0
C112 C 0.90676 0.94125 0.64782 0.0
C113 C 0.90415 0.96348 0.63129 0.0
C114 C 0.92687 0.98068 0.6172 0.0
C115 C 0.94066 0.04039 0.53767 0.0
O116 O 0.02167 0.08147 0.52607 0.0
O117 O 0.00907 0.06075 0.57025 0.0
O118 O 0.00217 0.05887 0.45399 0.0
O119 O -0.00607 0.09054 0.48272 0.0
O120 O 0.01856 1.02025 0.48442 0.0
O121 O 0.01702 0.03108 0.52744 0.0
O122 O 0.96813 0.98671 0.5248 0.0
O123 O 0.95911 1.0142 0.48961 0.0
O124 O 0.97592 1.02045 0.6026 0.0
O125 O 0.98496 0.9849 0.58026 0.0
O126 O 0.93649 1.01879 0.55368 0.0
O127 O 0.96567 0.05149 0.53512 0.0
H128 H 0.00444 0.13413 0.43288 0.0
H129 H 0.04456 0.16777 0.41252 0.0
H130 H 0.09481 0.11382 0.43366 0.0
H131 H 0.0549 0.08109 0.45506 0.0
H132 H 0.97527 0.94973 0.63714 0.0
H133 H 0.93523 0.9194 0.66224 0.0
H134 H 0.88447 0.96754 0.62914 0.0
H135 H 0.92412 0.99767 0.60476 0.0
Ho136 Ho 0.51825 0.0499 0.05068 0.0
Ho137 Ho 0.46446 1.02978 1.02594 0.0
C138 C 0.46694 0.07087 0.07742 0.0
C139 C 0.56366 0.07872 0.06949 0.0
C140 C 0.57362 0.09161 0.09633 0.0
C141 C 0.59646 0.11427 0.09568 0.0
C142 C 0.60699 0.12616 0.12101 0.0
C143 C 0.59487 0.11546 0.14744 0.0
C144 C 0.57164 0.09295 0.14793 0.0
C145 C 0.56104 0.08119 0.12257 0.0
C146 C 0.48756 1.0014 0.07352 0.0
C147 C 0.51545 1.00788 0.99985 0.0
C148 C 0.41929 1.00134 1.00634 0.0
C149 C 0.41068 0.9889 0.97895 0.0
C150 C 0.38399 0.97289 0.97673 0.0
C151 C 0.37514 0.96192 0.95045 0.0
C152 C 0.39288 0.96691 0.92597 0.0
C153 C 0.41987 0.98256 0.9285 0.0
C154 C 0.4287 0.99346 0.95483 0.0
C155 C 0.49532 0.07836 1.00334 0.0
O156 O 0.49363 0.07695 0.07259 0.0
O157 O 0.4511 0.04908 0.06544 0.0
O158 O 0.55643 0.05169 0.06912 0.0
O159 O 0.54672 0.08969 0.05694 0.0
O160 O 0.51376 1.00769 0.06974 0.0
O161 O 0.47901 1.022 0.06719 0.0
O162 O 0.48875 1.00267 1.0038 0.0
O163 O 0.5316 1.02925 1.01215 0.0
O164 O 0.42661 1.02837 1.00687 0.0
O165 O 0.43582 0.99025 1.01943 0.0
O166 O 0.46916 0.07235 1.0077 0.0
O167 O 0.50374 0.05757 1.00933 0.0
H168 H 0.60629 0.12264 0.07555 0.0
H169 H 0.62458 0.14377 0.11988 0.0
H170 H 0.56198 0.08402 0.1679 0.0
H171 H 0.54328 0.06372 0.12344 0.0
H172 H 0.36991 0.96909 0.99526 0.0
H173 H 0.35438 0.94958 0.94929 0.0
H174 H 0.43394 0.98702 0.91002 0.0
H175 H 0.44943 1.00582 0.9563 0.0
Ho176 Ho 0.49138 0.51289 0.5148 0.0
Ho177 Ho 0.48647 0.55835 0.55496 0.0
C178 C 0.51171 0.51253 0.58028 0.0
C179 C 0.50757 0.47493 0.48678 0.0
C180 C 0.51698 0.45143 0.49707 0.0
C181 C 0.54168 0.45591 0.51048 0.0
C182 C 0.54934 0.43385 0.52226 0.0
C183 C 0.53246 0.4068 0.52107 0.0
C184 C 0.50777 0.40232 0.5076 0.0
C185 C 0.50018 0.4244 0.49561 0.0
C186 C 0.44187 0.50607 0.54121 0.0
C187 C 0.46705 0.55876 0.48964 0.0
C188 C 0.46782 0.59429 0.58386 0.0
C189 C 0.4465 0.60833 0.57796 0.0
C190 C 0.4188 0.59401 0.58006 0.0
C191 C 0.39896 0.607 0.57269 0.0
C192 C 0.40643 0.63444 0.56293 0.0
C193 C 0.43405 0.64878 0.56095 0.0
C194 C 0.45388 0.6359 0.56855 0.0
C195 C 0.53585 0.56543 0.52803 0.0
O196 O 0.51128 0.50242 0.55398 0.0
O197 O 0.50134 0.53368 0.58691 0.0
O198 O 0.48188 0.47364 0.49265 0.0
O199 O 0.52334 0.49972 0.49086 0.0
O200 O 0.44585 0.49952 0.51484 0.0
O201 O 0.46428 0.51476 0.55259 0.0
O202 O 0.46318 0.56543 0.51673 0.0
O203 O 0.4815 0.54088 0.48267 0.0
O204 O 0.48996 0.60096 0.56721 0.0
O205 O 0.45969 0.56765 0.58876 0.0
O206 O 0.53215 0.57243 0.55435 0.0
O207 O 0.51328 0.55652 0.51706 0.0
H208 H 0.55509 0.47648 0.51212 0.0
H209 H 0.56882 0.43799 0.53181 0.0
H210 H 0.49425 0.38176 0.50642 0.0
H211 H 0.48094 0.42042 0.48556 0.0
H212 H 0.41239 0.57269 0.58714 0.0
H213 H 0.37778 0.59554 0.57442 0.0
H214 H 0.44028 0.67016 0.55402 0.0
H215 H 0.47503 0.64744 0.56682 0.0
Ho216 Ho -0.00499 0.50969 0.04146 0.0
Ho217 Ho -0.00818 0.56701 1.02195 0.0
C218 C 0.04439 0.565 0.05479 0.0
C219 C 0.00961 0.46457 0.04998 0.0
C220 C 0.03384 0.4571 0.05936 0.0
C221 C 0.05922 0.47652 0.05872 0.0
C222 C 0.08214 0.46907 0.06749 0.0
C223 C 0.08011 0.44193 0.07662 0.0
C224 C 0.05465 0.42249 0.07707 0.0
C225 C 0.03168 0.43008 0.06862 0.0
C226 C 0.96673 0.53605 0.07717 0.0
C227 C 0.94201 0.51216 1.00973 0.0
C228 C 0.97705 0.61172 1.01244 0.0
C229 C 0.95212 0.61902 1.00465 0.0
C230 C 0.92688 0.60793 1.01923 0.0
C231 C 0.90374 0.61591 1.01195 0.0
C232 C 0.9053 0.63497 0.98982 0.0
C233 C 0.93055 0.64556 0.97497 0.0
C234 C 0.95369 0.63775 0.98241 0.0
C235 C 0.02035 0.5408 0.98629 0.0
O236 O 0.03636 0.5376 0.05203 0.0
O237 O 0.02918 0.58117 0.0469 0.0
O238 O -0.00387 0.47581 0.06916 0.0
O239 O 0.01246 0.47698 1.02535 0.0
O240 O 0.96005 0.50939 0.07335 0.0
O241 O -0.01141 0.54682 0.06321 0.0
O242 O 0.94984 0.53945 1.0133 0.0
O243 O 0.95768 0.49598 1.01636 0.0
O244 O -0.01119 0.59914 0.99288 0.0
O245 O 0.97677 0.60138 0.03784 0.0
O246 O 0.02689 0.56741 0.99037 0.0
O247 O -0.00163 0.52988 1.00007 0.0
H248 H 0.06137 0.49732 0.05113 0.0
H249 H 0.10155 0.48439 0.0666 0.0
H250 H 0.05244 0.4015 0.08423 0.0
H251 H 0.01225 0.41481 0.06919 0.0
H252 H 0.92505 0.5933 0.03642 0.0
H253 H 0.88475 0.60752 1.02404 0.0
H254 H 0.93245 0.65981 0.95744 0.0
H255 H 0.9729 0.64643 0.97078 0.0
C256 C 0.24672 0.27099 0.25492 0.0
C257 C 0.27372 0.26975 0.25745 0.0
C258 C 0.22709 0.26164 0.27689 0.0
C259 C 0.2125 0.21405 0.33801 0.0
H260 H 0.15171 0.24687 0.35238 0.0
C261 C 0.12301 0.16736 0.41839 0.0
C262 C 0.09719 0.16291 0.40722 0.0
C263 C 0.14604 0.18389 0.4039 0.0
C264 C 0.1686 0.23753 0.34861 0.0
H265 H 0.30157 0.25865 0.2854 0.0
H266 H 0.26728 0.2426 0.32413 0.0
H267 H 0.19004 0.27009 0.32061 0.0
H268 H 0.07548 0.17291 0.37218 0.0
H269 H 0.11552 0.20214 0.34735 0.0
H270 H 0.19083 0.18134 0.36582 0.0
C271 C 0.26119 0.25037 0.30489 0.0
C272 C 0.19051 0.25075 0.33035 0.0
C273 C 0.28084 0.25961 0.28278 0.0
C274 C 0.09489 0.17619 0.38171 0.0
C275 C 0.11787 0.19293 0.36741 0.0
C276 C 0.19069 0.20097 0.35647 0.0
C277 C 0.23398 0.25091 0.30204 0.0
C278 C 0.21241 0.23881 0.32425 0.0
C279 C 0.14372 0.19659 0.37811 0.0
C280 C 0.16823 0.21223 0.3614 0.0
H281 H 0.24049 0.27823 0.23546 0.0
H282 H 0.20627 0.26186 0.27365 0.0
H283 H 0.22882 0.20405 0.33356 0.0
H284 H 0.12549 0.15792 0.43827 0.0
H285 H 0.16571 0.18662 0.41278 0.0
C286 C 0.30298 0.86724 0.7006 0.0
C287 C 0.30464 0.88669 0.67892 0.0
C288 C 0.31341 0.87567 0.72702 0.0
C289 C 0.33177 0.93716 0.77313 0.0
H290 H 0.36994 0.89282 0.81337 0.0
C291 C 0.35716 0.95814 0.89012 0.0
C292 C 0.383 0.95663 0.89777 0.0
C293 C 0.34803 0.94922 0.86335 0.0
C294 C 0.35951 0.90554 0.80229 0.0
H295 H 0.31914 0.93008 0.66763 0.0
H296 H 0.33745 0.94481 0.71371 0.0
H297 H 0.35405 0.8784 0.76622 0.0
H298 H 0.41936 0.94412 0.88346 0.0
H299 H 0.40361 0.92905 0.8364 0.0
H300 H 0.33763 0.96457 0.8089 0.0
C301 C 0.32766 0.92311 0.71047 0.0
C302 C 0.35015 0.89712 0.77544 0.0
C303 C 0.31719 0.91469 0.68409 0.0
C304 C 0.39945 0.9458 0.8781 0.0
C305 C 0.39031 0.93689 0.85127 0.0
C306 C 0.34113 0.94558 0.79994 0.0
C307 C 0.32575 0.90372 0.73228 0.0
C308 C 0.33612 0.91281 0.7606 0.0
C309 C 0.36456 0.93866 0.84356 0.0
C310 C 0.355 0.92981 0.81488 0.0
H311 H 0.2931 0.84556 0.69736 0.0
H312 H 0.31126 0.86029 0.74352 0.0
H313 H 0.32078 0.94956 0.76239 0.0
H314 H 0.34412 0.96669 0.90464 0.0
H315 H 0.32795 0.95053 0.85819 0.0
C316 C 0.61439 0.42405 0.78181 0.0
C317 C 0.61406 0.39585 0.77949 0.0
C318 C 0.60368 0.43714 0.76058 0.0
C319 C 0.5594 0.42081 0.69728 0.0
H320 H 0.58815 0.49902 0.68142 0.0
C321 C 0.53013 0.47382 0.5985 0.0
C322 C 0.524 0.49959 0.60294 0.0
C323 C 0.54126 0.46155 0.61995 0.0
C324 C 0.57974 0.47717 0.68567 0.0
H325 H 0.60273 0.35957 0.7527 0.0
H326 H 0.58535 0.38227 0.71545 0.0
H327 H 0.60736 0.47739 0.7184 0.0
H328 H 0.52538 0.53269 0.63368 0.0
H329 H 0.54509 0.51154 0.67075 0.0
H330 H 0.53227 0.42059 0.66396 0.0
C331 C 0.59287 0.39437 0.73393 0.0
C332 C 0.59071 0.46467 0.70711 0.0
C333 C 0.60316 0.38128 0.75528 0.0
C334 C 0.5297 0.51284 0.62939 0.0
C335 C 0.5412 0.50075 0.65067 0.0
C336 C 0.54875 0.43322 0.6756 0.0
C337 C 0.59261 0.42251 0.73621 0.0
C338 C 0.58077 0.4362 0.71336 0.0
C339 C 0.54701 0.47483 0.64638 0.0
C340 C 0.55869 0.4616 0.66944 0.0
H341 H 0.62246 0.4359 0.80025 0.0
H342 H 0.60366 0.45866 0.76364 0.0
H343 H 0.55045 0.39908 0.70159 0.0
H344 H 0.52611 0.46292 0.57849 0.0
H345 H 0.54566 0.44171 0.61568 0.0
C346 C 0.89047 0.68477 0.25522 0.0
C347 C 0.86789 0.67243 0.27328 0.0
C348 C 0.89963 0.66947 0.23343 0.0
C349 C 0.897 0.59767 0.21034 0.0
H350 H 0.92238 0.63255 0.13738 0.0
C351 C 0.92926 0.53758 0.11359 0.0
C352 C 0.95334 0.55113 0.09829 0.0
C353 C 0.91722 0.55187 0.13424 0.0
C354 C 0.91554 0.62257 0.1577 0.0
H355 H 0.83707 0.63429 0.28272 0.0
H356 H 0.85284 0.60764 0.24446 0.0
H357 H 0.90451 0.65836 0.17486 0.0
H358 H 0.98384 0.59011 0.09267 0.0
H359 H 0.96284 0.61505 0.12845 0.0
H360 H 0.90815 0.56189 0.19312 0.0
C361 C 0.86373 0.62908 0.24734 0.0
C362 C 0.90534 0.63738 0.17921 0.0
C363 C 0.8546 0.64441 0.26918 0.0
C364 C 0.96506 0.57923 0.10384 0.0
C365 C 0.95299 0.59353 0.12433 0.0
C366 C 0.90715 0.58282 0.18877 0.0
C367 C 0.88634 0.64144 0.22915 0.0
C368 C 0.89619 0.62523 0.20591 0.0
C369 C 0.929 0.58001 0.13988 0.0
C370 C 0.91679 0.5952 0.16229 0.0
H371 H 0.90114 0.70631 0.25801 0.0
H372 H 0.91736 0.67955 0.22015 0.0
H373 H 0.89044 0.58777 0.23074 0.0
H374 H 0.91981 0.51591 0.1097 0.0
H375 H 0.89861 0.54093 0.14568 0.0
C376 C 0.36984 0.25463 0.17838 0.0
C377 C 0.34256 0.24543 0.18856 0.0
C378 C 0.38425 0.23563 0.1684 0.0
C379 C 0.37366 0.16585 0.13795 0.0
H380 H 0.44685 0.17026 0.15991 0.0
C381 C 0.4268 0.08107 0.10433 0.0
C382 C 0.45437 0.08955 0.09509 0.0
C383 C 0.41398 0.09967 0.1181 0.0
C384 C 0.42654 0.1689 0.15332 0.0
H385 H 0.30889 0.2092 0.19594 0.0
H386 H 0.33398 0.17612 0.17855 0.0
H387 H 0.42307 0.20416 0.17854 0.0
H388 H 0.49038 0.12397 0.09391 0.0
H389 H 0.46788 0.15665 0.11735 0.0
H390 H 0.37711 0.13116 0.11226 0.0
C391 C 0.34426 0.19797 0.17832 0.0
C392 C 0.41293 0.18831 0.16403 0.0
C393 C 0.32998 0.2169 0.18852 0.0
C394 C 0.46912 0.11676 0.10089 0.0
C395 C 0.45621 0.13549 0.11442 0.0
C396 C 0.3873 0.14664 0.12708 0.0
C397 C 0.37152 0.20711 0.16808 0.0
C398 C 0.38629 0.18688 0.15655 0.0
C399 C 0.42831 0.12733 0.12267 0.0
C400 C 0.41387 0.14779 0.13471 0.0
H401 H 0.38007 0.2765 0.17829 0.0
H402 H 0.40518 0.24327 0.16043 0.0
H403 H 0.35332 0.16451 0.13142 0.0
H404 H 0.41492 0.06016 0.10045 0.0
H405 H 0.39266 0.09243 0.12481 0.0
C406 C 0.20271 0.91849 0.58539 0.0
C407 C 0.21723 0.90663 0.56466 0.0
C408 C 0.17942 0.9262 0.57854 0.0
C409 C 0.14639 0.94579 0.51811 0.0
H410 H 0.08382 0.9344 0.57179 0.0
C411 C 0.05213 0.98246 0.4939 0.0
C412 C 0.04279 0.99761 0.51586 0.0
C413 C 0.07067 0.96714 0.49924 0.0
C414 C 0.10118 0.93776 0.55665 0.0
H415 H 0.21887 0.89323 0.52076 0.0
H416 H 0.17795 0.9067 0.50869 0.0
H417 H 0.122 0.91555 0.58204 0.0
H418 H 0.04434 1.00786 0.56075 0.0
H419 H 0.07707 0.98135 0.57008 0.0
H420 H 0.12592 0.96851 0.49302 0.0
C421 C 0.18472 0.91024 0.53014 0.0
C422 C 0.12301 0.92702 0.56251 0.0
C423 C 0.20806 0.90252 0.53701 0.0
C424 C 0.05138 0.99639 0.54346 0.0
C425 C 0.06993 0.98107 0.54881 0.0
C426 C 0.12457 0.95651 0.51225 0.0
C427 C 0.17019 0.92217 0.55086 0.0
C428 C 0.14603 0.93135 0.54352 0.0
C429 C 0.08014 0.96672 0.52663 0.0
C430 C 0.10195 0.95299 0.53168 0.0
H431 H 0.20929 0.92192 0.60692 0.0
H432 H 0.1689 0.93577 0.59483 0.0
H433 H 0.16399 0.94975 0.50325 0.0
H434 H 0.04554 0.98289 0.47248 0.0
H435 H 0.07791 0.95595 0.48184 0.0
C436 C 0.72002 0.42556 0.8977 0.0
C437 C 0.71276 0.39674 0.89283 0.0
C438 C 0.7446 0.43861 0.91002 0.0
C439 C 0.8129 0.42808 0.92475 0.0
H440 H 0.81549 0.48812 0.97864 0.0
C441 C 0.90694 0.47075 0.99185 0.0
C442 C 0.91526 0.49945 0.99708 0.0
C443 C 0.88233 0.45884 0.97919 0.0
C444 C 0.81531 0.4716 0.96339 0.0
H445 H 0.72657 0.35939 0.89679 0.0
H446 H 0.76875 0.38184 0.91861 0.0
H447 H 0.77307 0.46662 0.95639 0.0
H448 H 0.90358 0.53798 0.99306 0.0
H449 H 0.86086 0.5173 0.9709 0.0
H450 H 0.85507 0.43297 0.93175 0.0
C451 C 0.7556 0.39454 0.91272 0.0
C452 C 0.79085 0.45921 0.95055 0.0
C453 C 0.73107 0.38151 0.90047 0.0
C454 C 0.89797 0.51582 0.98948 0.0
C455 C 0.87328 0.50387 0.97685 0.0
C456 C 0.83731 0.44043 0.93759 0.0
C457 C 0.76283 0.42332 0.91777 0.0
C458 C 0.78916 0.43712 0.93109 0.0
C459 C 0.86511 0.47518 0.97131 0.0
C460 C 0.83895 0.46232 0.95726 0.0
H461 H 0.7065 0.43807 0.8924 0.0
H462 H 0.74942 0.46082 0.9132 0.0
H463 H 0.81279 0.41158 0.90951 0.0
H464 H 0.91954 0.45735 0.99742 0.0
H465 H 0.8767 0.43665 0.97582 0.0
C466 C 0.75809 0.64551 0.39672 0.0
C467 C 0.76245 0.67343 0.38896 0.0
C468 C 0.73363 0.63145 0.4108 0.0
C469 C 0.68708 0.6138 0.45627 0.0
H470 H 0.61886 0.62372 0.43155 0.0
C471 C 0.5862 0.58515 0.52534 0.0
C472 C 0.56221 0.57334 0.51159 0.0
C473 C 0.61089 0.59455 0.50956 0.0
C474 C 0.6377 0.6205 0.43856 0.0
H475 H 0.74442 0.70833 0.3894 0.0
H476 H 0.70178 0.68386 0.41403 0.0
H477 H 0.6613 0.64562 0.40505 0.0
H478 H 0.54526 0.56116 0.47073 0.0
H479 H 0.5884 0.57763 0.44312 0.0
H480 H 0.66343 0.58881 0.48992 0.0
C481 C 0.71723 0.6728 0.40917 0.0
C482 C 0.66203 0.63328 0.42355 0.0
C483 C 0.74174 0.6869 0.39532 0.0
C484 C 0.56345 0.57033 0.48186 0.0
C485 C 0.5881 0.57987 0.46606 0.0
C486 C 0.66273 0.60116 0.47142 0.0
C487 C 0.71292 0.64496 0.41715 0.0
C488 C 0.68701 0.63027 0.43237 0.0
C489 C 0.61203 0.59244 0.47971 0.0
C490 C 0.63779 0.60453 0.46284 0.0
H491 H 0.77377 0.63465 0.39228 0.0
H492 H 0.73083 0.60995 0.41652 0.0
H493 H 0.70602 0.61124 0.46369 0.0
H494 H 0.5858 0.58765 0.54825 0.0
H495 H 0.62891 0.60433 0.52068 0.0
C496 C 0.27002 0.35064 0.14523 0.0
C497 C 0.28304 0.3644 0.16885 0.0
C498 C 0.24964 0.36004 0.13304 0.0
C499 C 0.22118 0.42038 0.12709 0.0
H500 H 0.15362 0.36535 0.11539 0.0
C501 C 0.12239 0.45076 0.1039 0.0
C502 C 0.10449 0.43381 0.08547 0.0
C503 C 0.14507 0.44282 0.11264 0.0
C504 C 0.17245 0.38098 0.11802 0.0
H505 H 0.28566 0.39911 0.19767 0.0
H506 H 0.25027 0.41581 0.17609 0.0
H507 H 0.19225 0.35098 0.13206 0.0
H508 H 0.09669 0.39571 0.06106 0.0
H509 H 0.13655 0.38212 0.07569 0.0
H510 H 0.20155 0.4504 0.11281 0.0
C511 C 0.25581 0.3978 0.16702 0.0
C512 C 0.19458 0.3727 0.12766 0.0
C513 C 0.27598 0.38822 0.1794 0.0
C514 C 0.10993 0.40897 0.07563 0.0
C515 C 0.13275 0.40117 0.0841 0.0
C516 C 0.19912 0.42866 0.11716 0.0
C517 C 0.24209 0.38352 0.14403 0.0
C518 C 0.21912 0.39232 0.13247 0.0
C519 C 0.15054 0.41788 0.1029 0.0
C520 C 0.17437 0.40908 0.11268 0.0
H521 H 0.27499 0.33218 0.13665 0.0
H522 H 0.23958 0.34879 0.11515 0.0
H523 H 0.23994 0.43593 0.13037 0.0
H524 H 0.11854 0.46989 0.11205 0.0
H525 H 0.15799 0.456 0.1275 0.0
C526 C 0.6028 0.30703 0.89406 0.0
C527 C 0.63133 0.31397 0.8898 0.0
C528 C 0.58859 0.2814 0.90595 0.0
C529 C 0.59497 0.20993 0.92074 0.0
H530 H 0.53414 0.20796 0.97474 0.0
C531 C 0.54021 0.11011 0.98528 0.0
C532 C 0.51187 0.1048 0.99031 0.0
C533 C 0.55531 0.13535 0.9731 0.0
C534 C 0.55084 0.20792 0.95944 0.0
H535 H 0.66702 0.29855 0.89414 0.0
H536 H 0.64242 0.25426 0.91505 0.0
H537 H 0.55874 0.2517 0.95297 0.0
H538 H 0.47723 0.12191 0.98634 0.0
H539 H 0.50315 0.16531 0.9649 0.0
H540 H 0.58697 0.16608 0.92717 0.0
C541 C 0.63092 0.26857 0.90912 0.0
C542 C 0.56503 0.23318 0.94688 0.0
C543 C 0.64512 0.29422 0.89735 0.0
C544 C 0.49904 0.12529 0.98286 0.0
C545 C 0.51403 0.15039 0.97071 0.0
C546 C 0.58072 0.18462 0.93327 0.0
C547 C 0.60242 0.26179 0.91383 0.0
C548 C 0.58728 0.23464 0.92724 0.0
C549 C 0.54245 0.15597 0.96567 0.0
C550 C 0.55831 0.18314 0.95276 0.0
H551 H 0.5914 0.32165 0.88878 0.0
H552 H 0.56666 0.27694 0.90884 0.0
H553 H 0.61175 0.21001 0.9055 0.0
H554 H 0.55075 0.09482 0.99087 0.0
H555 H 0.57714 0.13885 0.96993 0.0
C556 C 0.86847 0.76641 0.3821 0.0
C557 C 0.84011 0.75844 0.38001 0.0
C558 C 0.88124 0.7924 0.39299 0.0
C559 C 0.8708 0.86212 0.41046 0.0
H560 H 0.92851 0.8651 0.46151 0.0
C561 C 0.93395 0.96507 0.45823 0.0
C562 C 0.94138 0.96422 0.48643 0.0
C563 C 0.92132 0.94064 0.44412 0.0
C564 C 0.91227 0.86464 0.44749 0.0
H565 H 0.80307 0.7721 0.38685 0.0
H566 H 0.82518 0.81701 0.40665 0.0
H567 H 0.90721 0.82155 0.43883 0.0
H568 H 0.94035 0.93716 0.52229 0.0
H569 H 0.91793 0.89492 0.49805 0.0
H570 H 0.87531 0.90511 0.42 0.0
C571 C 0.83766 0.80332 0.39955 0.0
C572 C 0.90032 0.83969 0.43411 0.0
C573 C 0.82491 0.77738 0.38853 0.0
C574 C 0.93521 0.93857 0.50046 0.0
C575 C 0.92248 0.91426 0.48647 0.0
C576 C 0.88272 0.88711 0.42396 0.0
C577 C 0.86596 0.81107 0.4022 0.0
C578 C 0.87932 0.83803 0.41553 0.0
C579 C 0.91576 0.91488 0.45798 0.0
C580 C 0.90347 0.88862 0.44284 0.0
H581 H 0.88081 0.7523 0.37598 0.0
H582 H 0.90312 0.7978 0.39432 0.0
H583 H 0.8549 0.8617 0.39603 0.0
H584 H 0.93849 0.9845 0.44679 0.0
H585 H 0.9166 0.94188 0.42212 0.0
C586 C 0.28599 0.79523 0.61321 0.0
C587 C 0.28996 0.81972 0.59753 0.0
C588 C 0.29148 0.7717 0.60047 0.0
C589 C 0.33741 0.75383 0.54701 0.0
H590 H 0.29628 0.67866 0.56442 0.0
C591 C 0.38865 0.66543 0.53215 0.0
C592 C 0.3855 0.64881 0.5565 0.0
C593 C 0.37097 0.68214 0.52833 0.0
C594 C 0.30795 0.69952 0.55925 0.0
H595 H 0.3019 0.83872 0.55613 0.0
H596 H 0.31194 0.79753 0.53389 0.0
H597 H 0.27567 0.71712 0.57485 0.0
H598 H 0.36063 0.6353 0.59506 0.0
H599 H 0.33027 0.66487 0.58892 0.0
H600 H 0.37038 0.7368 0.53345 0.0
C601 C 0.30442 0.79656 0.55595 0.0
C602 C 0.29612 0.72146 0.56514 0.0
C603 C 0.29865 0.82003 0.56863 0.0
C604 C 0.3634 0.64782 0.57602 0.0
C605 C 0.3459 0.6647 0.57236 0.0
C606 C 0.34933 0.73196 0.54139 0.0
C607 C 0.30127 0.77233 0.57189 0.0
C608 C 0.31116 0.74887 0.56009 0.0
C609 C 0.35002 0.68275 0.54897 0.0
C610 C 0.33514 0.70467 0.54856 0.0
H611 H 0.279 0.79441 0.63544 0.0
H612 H 0.28924 0.75341 0.61336 0.0
H613 H 0.34954 0.77479 0.54311 0.0
H614 H 0.4053 0.66613 0.51654 0.0
H615 H 0.37438 0.69541 0.50981 0.0
C616 C 0.71199 0.84523 0.80308 0.0
C617 C 0.70294 0.81668 0.80877 0.0
C618 C 0.73098 0.85504 0.78069 0.0
C619 C 0.78799 0.83854 0.74131 0.0
H620 H 0.78383 0.89973 0.69367 0.0
C621 C 0.87727 0.89486 0.66378 0.0
C622 C 0.88247 0.92389 0.66359 0.0
C623 C 0.85367 0.87876 0.67785 0.0
C624 C 0.78536 0.88272 0.7069 0.0
H625 H 0.70603 0.77602 0.79431 0.0
H626 H 0.73998 0.79341 0.7556 0.0
H627 H 0.7444 0.8766 0.72402 0.0
H628 H 0.86761 0.95881 0.67886 0.0
H629 H 0.82685 0.93094 0.70356 0.0
H630 H 0.82934 0.84543 0.72516 0.0
C631 C 0.73219 0.80805 0.76864 0.0
C632 C 0.76274 0.86941 0.72415 0.0
C633 C 0.71285 0.79815 0.79087 0.0
C634 C 0.8639 0.93647 0.67813 0.0
C635 C 0.84046 0.92046 0.69219 0.0
C636 C 0.81073 0.85199 0.72416 0.0
C637 C 0.74167 0.83662 0.7636 0.0
C638 C 0.76406 0.84769 0.74208 0.0
C639 C 0.8349 0.89141 0.69204 0.0
C640 C 0.8099 0.87475 0.70739 0.0
H641 H 0.7054 0.86024 0.81668 0.0
H642 H 0.73824 0.87721 0.7776 0.0
H643 H 0.78963 0.82197 0.75511 0.0
H644 H 0.89113 0.8846 0.65256 0.0
H645 H 0.84992 0.85642 0.67725 0.0
C646 C 0.71086 0.21411 0.36175 0.0
C647 C 0.69279 0.21448 0.38542 0.0
C648 C 0.70101 0.20383 0.33555 0.0
C649 C 0.64048 0.15813 0.30457 0.0
H650 H 0.6717 0.19435 0.23374 0.0
C651 C 0.5897 0.13044 0.1982 0.0
C652 C 0.60668 0.12742 0.17438 0.0
C653 C 0.60083 0.14117 0.22368 0.0
C654 C 0.66297 0.18388 0.25335 0.0
H655 H 0.65022 0.20423 0.40009 0.0
H656 H 0.6331 0.18717 0.35434 0.0
H657 H 0.69015 0.21319 0.27874 0.0
H658 H 0.64869 0.13313 0.15878 0.0
H659 H 0.66806 0.15224 0.2032 0.0
H660 H 0.61313 0.12902 0.27922 0.0
C661 C 0.65488 0.19445 0.35607 0.0
C662 C 0.67355 0.19463 0.2791 0.0
C663 C 0.66469 0.20464 0.38221 0.0
C664 C 0.63504 0.13561 0.17657 0.0
C665 C 0.64616 0.14649 0.20202 0.0
C666 C 0.62985 0.14749 0.27888 0.0
C667 C 0.67291 0.19367 0.3325 0.0
C668 C 0.66229 0.18197 0.30501 0.0
C669 C 0.62916 0.14925 0.22586 0.0
C670 C 0.64087 0.16034 0.25303 0.0
H671 H 0.73261 0.22172 0.3635 0.0
H672 H 0.71545 0.20333 0.31785 0.0
H673 H 0.63172 0.14754 0.32411 0.0
H674 H 0.5678 0.12478 0.1971 0.0
H675 H 0.58724 0.14345 0.24161 0.0
C676 C 0.40193 0.68407 0.29149 0.0
C677 C 0.37476 0.67622 0.28376 0.0
C678 C 0.41067 0.67102 0.31395 0.0
C679 C 0.38661 0.62759 0.37883 0.0
H680 H 0.45832 0.61419 0.37007 0.0
C681 C 0.43919 0.59047 0.47293 0.0
C682 C 0.4551 0.57159 0.46661 0.0
C683 C 0.42837 0.6026 0.45107 0.0
C684 C 0.43814 0.61751 0.37295 0.0
H685 H 0.33528 0.64843 0.29414 0.0
H686 H 0.35052 0.62544 0.33345 0.0
H687 H 0.44114 0.63538 0.33148 0.0
H688 H 0.47166 0.55063 0.43194 0.0
H689 H 0.45285 0.57144 0.39423 0.0
H690 H 0.3836 0.60932 0.4203 0.0
C691 C 0.36513 0.64193 0.32212 0.0
C692 C 0.42835 0.63006 0.35079 0.0
C693 C 0.35638 0.65501 0.29943 0.0
C694 C 0.45967 0.56512 0.4378 0.0
C695 C 0.44895 0.57727 0.41602 0.0
C696 C 0.39649 0.61511 0.40113 0.0
C697 C 0.39252 0.64961 0.32961 0.0
C698 C 0.40245 0.63543 0.35332 0.0
C699 C 0.43322 0.59634 0.4222 0.0
C700 C 0.42245 0.60983 0.39855 0.0
H701 H 0.41661 0.70043 0.28003 0.0
H702 H 0.43175 0.67801 0.31921 0.0
H703 H 0.36668 0.63151 0.38181 0.0
H704 H 0.43517 0.59605 0.49479 0.0
H705 H 0.41663 0.61734 0.45683 0.0
C706 C 0.1092 0.42248 0.78694 0.0
C707 C 0.13501 0.41823 0.79064 0.0
C708 C 0.09656 0.43553 0.8082 0.0
C709 C 0.09262 0.44813 0.88435 0.0
H710 H 0.06822 0.51291 0.86577 0.0
C711 C 0.02372 0.49781 0.95978 0.0
C712 C 0.03373 0.52636 0.96449 0.0
C713 C 0.03624 0.48425 0.9389 0.0
C714 C 0.07495 0.49484 0.8712 0.0
H715 H 0.16773 0.42397 0.81931 0.0
H716 H 0.1452 0.44603 0.85693 0.0
H717 H 0.08938 0.48932 0.8283 0.0
H718 H 0.06433 0.56324 0.95072 0.0
H719 H 0.08569 0.53964 0.91354 0.0
H720 H 0.07773 0.45335 0.92714 0.0
C721 C 0.13491 0.43947 0.83752 0.0
C722 C 0.08687 0.48129 0.8498 0.0
C723 C 0.1478 0.42696 0.81602 0.0
C724 C 0.05625 0.54119 0.94764 0.0
C725 C 0.06842 0.52774 0.92635 0.0
C726 C 0.08016 0.46132 0.90563 0.0
C727 C 0.10927 0.44404 0.83372 0.0
C728 C 0.09597 0.45793 0.85623 0.0
C729 C 0.05858 0.49914 0.92187 0.0
C730 C 0.07141 0.48491 0.89927 0.0
H731 H 0.09896 0.41612 0.76748 0.0
H732 H 0.07673 0.43877 0.80483 0.0
H733 H 0.09939 0.43009 0.88979 0.0
H734 H 0.00603 0.48596 0.972 0.0
H735 H 0.02812 0.46223 0.93563 0.0
C736 C 0.61146 0.82177 0.90177 0.0
C737 C 0.63437 0.83268 0.88333 0.0
C738 C 0.59552 0.83884 0.91318 0.0
C739 C 0.57558 0.90268 0.90136 0.0
H740 H 0.56883 0.90946 0.98351 0.0
C741 C 0.51214 0.96929 0.96427 0.0
C742 C 0.52756 0.98825 0.98317 0.0
C743 C 0.52306 0.9491 0.95062 0.0
C744 C 0.5704 0.90757 0.96055 0.0
H745 H 0.65848 0.87059 0.86307 0.0
H746 H 0.62994 0.89966 0.88183 0.0
H747 H 0.59073 0.875 0.96216 0.0
H748 H 0.56652 1.00105 1.00244 0.0
H749 H 0.58523 0.96545 0.9791 0.0
H750 H 0.55532 0.93538 0.8998 0.0
C751 C 0.62437 0.87788 0.88731 0.0
C752 C 0.58274 0.88781 0.94839 0.0
C753 C 0.64062 0.86105 0.87642 0.0
C754 C 0.55419 0.98688 0.98784 0.0
C755 C 0.56484 0.9664 0.9747 0.0
C756 C 0.56271 0.92206 0.91354 0.0
C757 C 0.60183 0.86701 0.90593 0.0
C758 C 0.58591 0.88558 0.9187 0.0
C759 C 0.54931 0.94719 0.9562 0.0
C760 C 0.56056 0.92504 0.94322 0.0
H761 H 0.60574 0.80003 0.90735 0.0
H762 H 0.57817 0.83003 0.92754 0.0
H763 H 0.57781 0.90129 0.87839 0.0
H764 H 0.49154 0.96984 0.96028 0.0
H765 H 0.51076 0.93449 0.93637 0.0
C766 C 0.77538 0.17877 0.52395 0.0
C767 C 0.77834 0.19279 0.49794 0.0
C768 C 0.79336 0.16305 0.53012 0.0
C769 C 0.86082 0.15296 0.51181 0.0
H770 H 0.82828 0.07605 0.53156 0.0
C771 C 0.92492 0.07429 0.50977 0.0
C772 C 0.91996 0.0549 0.53182 0.0
C773 C 0.90697 0.09062 0.50607 0.0
C774 C 0.83771 0.09755 0.52649 0.0
H775 H 0.80309 0.20281 0.45858 0.0
H776 H 0.83474 0.1756 0.46955 0.0
H777 H 0.79923 0.10746 0.52634 0.0
H778 H 0.89206 0.03634 0.56677 0.0
H779 H 0.86084 0.06545 0.5609 0.0
H780 H 0.89928 0.14338 0.51228 0.0
C781 C 0.81842 0.17657 0.48504 0.0
C782 C 0.82108 0.11549 0.5235 0.0
C783 C 0.80025 0.19198 0.47872 0.0
C784 C 0.89621 0.05118 0.54952 0.0
C785 C 0.87837 0.06782 0.54611 0.0
C786 C 0.87747 0.13514 0.51512 0.0
C787 C 0.81478 0.16154 0.51052 0.0
C788 C 0.83251 0.14323 0.51581 0.0
C789 C 0.88386 0.08811 0.52467 0.0
C790 C 0.86608 0.10713 0.5221 0.0
H791 H 0.75865 0.17924 0.5391 0.0
H792 H 0.79036 0.15179 0.55002 0.0
H793 H 0.87006 0.17437 0.50615 0.0
H794 H 0.94284 0.07701 0.49555 0.0
H795 H 0.91137 0.10544 0.4888 0.0
C796 C 0.26928 0.68117 0.14678 0.0
C797 C 0.2711 0.68007 0.17648 0.0
C798 C 0.24514 0.66823 0.13377 0.0
C799 C 0.17866 0.61509 0.1456 0.0
H800 H 0.1584 0.65136 0.08129 0.0
C801 C 0.08677 0.56143 0.07863 0.0
C802 C 0.07075 0.57786 0.06815 0.0
C803 C 0.11113 0.57352 0.09173 0.0
C804 C 0.16351 0.64095 0.09936 0.0
H805 H 0.2484 0.66405 0.2156 0.0
H806 H 0.20636 0.64162 0.19302 0.0
H807 H 0.20002 0.67291 0.10459 0.0
H808 H 0.06825 0.62025 0.06361 0.0
H809 H 0.11027 0.64122 0.08658 0.0
H810 H 0.14177 0.58343 0.14075 0.0
C811 C 0.2238 0.65225 0.17965 0.0
C812 C 0.18774 0.6532 0.11257 0.0
C813 C 0.24801 0.66517 0.19268 0.0
C814 C 0.07994 0.60681 0.07119 0.0
C815 C 0.10429 0.6189 0.0843 0.0
C816 C 0.15441 0.60281 0.13236 0.0
C817 C 0.22187 0.65372 0.14996 0.0
C818 C 0.19579 0.6405 0.13592 0.0
C819 C 0.12032 0.6025 0.09484 0.0
C820 C 0.14638 0.61553 0.109 0.0
H821 H 0.28668 0.69188 0.13341 0.0
H822 H 0.24488 0.66942 0.11085 0.0
H823 H 0.18412 0.6044 0.16328 0.0
H824 H 0.08046 0.53909 0.0769 0.0
H825 H 0.12291 0.56008 0.09914 0.0
C826 C 0.21261 0.40344 0.64176 0.0
C827 C 0.20958 0.40102 0.67155 0.0
C828 C 0.2374 0.41743 0.62848 0.0
C829 C 0.30337 0.4673 0.64014 0.0
H830 H 0.32736 0.43115 0.57366 0.0
C831 C 0.41274 0.50041 0.58661 0.0
C832 C 0.41507 0.4986 0.5568 0.0
C833 C 0.38739 0.49088 0.60126 0.0
C834 C 0.32084 0.44176 0.59194 0.0
H835 H 0.23005 0.41208 0.71079 0.0
H836 H 0.27357 0.43656 0.6875 0.0
H837 H 0.28379 0.4102 0.59806 0.0
H838 H 0.39273 0.48693 0.51881 0.0
H839 H 0.34858 0.47072 0.5442 0.0
H840 H 0.34071 0.49884 0.63394 0.0
C841 C 0.25661 0.42776 0.67447 0.0
C842 C 0.29583 0.42972 0.60596 0.0
C843 C 0.23171 0.41373 0.68781 0.0
C844 C 0.39156 0.48824 0.54183 0.0
C845 C 0.36629 0.47882 0.5564 0.0
C846 C 0.32849 0.47942 0.62603 0.0
C847 C 0.25984 0.42936 0.64462 0.0
C848 C 0.28669 0.44238 0.63011 0.0
C849 C 0.36397 0.47943 0.58631 0.0
C850 C 0.33742 0.46685 0.60164 0.0
H851 H 0.19577 0.39441 0.62866 0.0
H852 H 0.23902 0.41881 0.60547 0.0
H853 H 0.29681 0.47766 0.65859 0.0
H854 H 0.43059 0.50839 0.59865 0.0
H855 H 0.38633 0.49155 0.62429 0.0
C856 C 0.71956 0.70261 0.88366 0.0
C857 C 0.70764 0.72162 0.89826 0.0
C858 C 0.73841 0.69153 0.89658 0.0
C859 C 0.78639 0.70607 0.95426 0.0
H860 H 0.79269 0.63185 0.93629 0.0
C861 C 0.88325 0.67158 0.9744 0.0
C862 C 0.88086 0.64402 0.98237 0.0
C863 C 0.86053 0.68005 0.96677 0.0
C864 C 0.79106 0.65249 0.94191 0.0
H865 H 0.70528 0.7433 0.93824 0.0
H866 H 0.73778 0.72345 0.96118 0.0
H867 H 0.75483 0.6473 0.91937 0.0
H868 H 0.85239 0.60379 0.98873 0.0
H869 H 0.81262 0.6188 0.97643 0.0
H870 H 0.82229 0.71106 0.97732 0.0
C871 C 0.73304 0.71753 0.93947 0.0
C872 C 0.7695 0.66151 0.93185 0.0
C873 C 0.71427 0.72877 0.92641 0.0
C874 C 0.85501 0.62524 0.98297 0.0
C875 C 0.83221 0.63378 0.97554 0.0
C876 C 0.80782 0.69697 0.96452 0.0
C877 C 0.74564 0.69905 0.92456 0.0
C878 C 0.76714 0.68859 0.93745 0.0
C879 C 0.83471 0.66127 0.96716 0.0
C880 C 0.81073 0.67023 0.95807 0.0
H881 H 0.71487 0.69687 0.86187 0.0
H882 H 0.74797 0.67777 0.88422 0.0
H883 H 0.78543 0.72713 0.95882 0.0
H884 H 0.90272 0.68676 0.97412 0.0
H885 H 0.86338 0.70128 0.96006 0.0
C886 C 0.33715 0.78337 0.17421 0.0
C887 C 0.35109 0.76389 0.18213 0.0
C888 C 0.35129 0.80938 0.16326 0.0
C889 C 0.42041 0.85889 0.15761 0.0
H890 H 0.39016 0.89122 0.09711 0.0
C891 C 0.48379 0.9546 0.09436 0.0
C892 C 0.47097 0.97493 0.08641 0.0
C893 C 0.46871 0.92951 0.10647 0.0
C894 C 0.39881 0.88272 0.11424 0.0
H895 H 0.39121 0.75696 0.18445 0.0
H896 H 0.41581 0.80206 0.16533 0.0
H897 H 0.36523 0.84664 0.11721 0.0
H898 H 0.43203 0.98462 0.08479 0.0
H899 H 0.40554 0.94077 0.10605 0.0
H900 H 0.45407 0.89485 0.1545 0.0
C901 C 0.39386 0.79744 0.16799 0.0
C902 C 0.38444 0.85703 0.12585 0.0
C903 C 0.3797 0.77143 0.179 0.0
C904 C 0.44254 0.96942 0.09072 0.0
C905 C 0.42736 0.94418 0.10277 0.0
C906 C 0.43478 0.88452 0.14598 0.0
C907 C 0.3799 0.81685 0.15982 0.0
C908 C 0.39506 0.84459 0.14766 0.0
C909 C 0.44024 0.92384 0.11096 0.0
C910 C 0.42431 0.89682 0.12398 0.0
H911 H 0.31518 0.77865 0.17674 0.0
H912 H 0.33972 0.82379 0.15782 0.0
H913 H 0.42913 0.85045 0.17472 0.0
H914 H 0.50563 0.95804 0.09118 0.0
H915 H 0.47942 0.91434 0.11193 0.0
C916 C 0.11991 0.29313 0.68989 0.0
C917 C 0.13168 0.31627 0.67262 0.0
C918 C 0.10869 0.26728 0.67769 0.0
C919 C 0.1114 0.22768 0.61089 0.0
H920 H 0.04379 0.17993 0.64197 0.0
C921 C 0.05189 0.13058 0.55185 0.0
C922 C 0.03862 0.10713 0.56808 0.0
C923 C 0.06459 0.15539 0.56514 0.0
C924 C 0.0629 0.19283 0.63326 0.0
H925 H 0.13986 0.33058 0.62897 0.0
H926 H 0.12027 0.2856 0.60773 0.0
H927 H 0.06243 0.22472 0.66414 0.0
H928 H 0.02923 0.09121 0.61112 0.0
H929 H 0.05169 0.13434 0.63422 0.0
H930 H 0.11182 0.19587 0.57993 0.0
C931 C 0.12023 0.28727 0.6307 0.0
C932 C 0.07356 0.21854 0.64596 0.0
C933 C 0.13141 0.31308 0.64289 0.0
C934 C 0.03915 0.10885 0.59791 0.0
C935 C 0.05185 0.13367 0.6112 0.0
C936 C 0.10076 0.20197 0.5982 0.0
C937 C 0.10898 0.26398 0.64793 0.0
C938 C 0.09785 0.23636 0.63482 0.0
C939 C 0.06436 0.15736 0.595 0.0
C940 C 0.07629 0.18428 0.60913 0.0
H941 H 0.12007 0.29481 0.71286 0.0
H942 H 0.10041 0.24972 0.69157 0.0
H943 H 0.13042 0.24068 0.60207 0.0
H944 H 0.05185 0.13008 0.52883 0.0
H945 H 0.07381 0.17328 0.552 0.0
C946 C 0.67827 0.28608 0.4711 0.0
C947 C 0.68158 0.26024 0.47879 0.0
C948 C 0.66235 0.29922 0.48856 0.0
C949 C 0.63732 0.32723 0.53704 0.0
H950 H 0.56119 0.28704 0.54178 0.0
C951 C 0.55719 0.38635 0.5561 0.0
C952 C 0.54186 0.38329 0.53177 0.0
C953 C 0.57105 0.36663 0.56248 0.0
C954 C 0.58243 0.2983 0.5413 0.0
H955 H 0.6714 0.22778 0.51055 0.0
H956 H 0.64251 0.25053 0.54082 0.0
H957 H 0.59592 0.2626 0.52786 0.0
H958 H 0.52683 0.35575 0.49684 0.0
H959 H 0.55058 0.32137 0.50818 0.0
H960 H 0.62392 0.36331 0.54835 0.0
C961 C 0.6527 0.26075 0.52161 0.0
C962 C 0.60225 0.28435 0.53344 0.0
C963 C 0.66913 0.24784 0.50439 0.0
C964 C 0.53833 0.35875 0.51579 0.0
C965 C 0.55193 0.33893 0.52235 0.0
C966 C 0.61758 0.3411 0.54521 0.0
C967 C 0.64913 0.28647 0.51371 0.0
C968 C 0.62965 0.29908 0.52976 0.0
C969 C 0.56949 0.34338 0.54487 0.0
C970 C 0.58986 0.32707 0.54582 0.0
H971 H 0.68777 0.29593 0.45144 0.0
H972 H 0.6595 0.31888 0.48183 0.0
H973 H 0.65839 0.3389 0.53447 0.0
H974 H 0.55966 0.4047 0.56933 0.0
H975 H 0.58427 0.37037 0.58013 0.0
loop_
_geom_bond_atom_site_label_1
_geom_bond_atom_site_label_2
_geom_bond_distance
_geom_bond_site_symmetry_2
_ccdc_geom_bond_type
H0 C5 0.930 . S
H1 C8 0.930 . S
H2 C10 0.930 . S
H3 C4 1.016 . S
C4 H3 1.016 . S
C4 N11 1.286 . S
C5 H0 0.930 . S
C5 C6 1.397 . S
C5 C7 1.361 . S
C6 C5 1.397 . S
C6 C10 1.390 . S
C7 C5 1.361 . S
C7 C8 1.393 . S
C7 N11 1.413 . S
C8 H1 0.930 . S
C8 C7 1.393 . S
C8 C9 1.399 . S
C9 C8 1.399 . S
C9 C10 1.381 . S
C10 H2 0.930 . S
C10 C6 1.390 . S
C10 C9 1.381 . S
N11 C4 1.286 . S
N11 C7 1.413 . S
H12 C17 0.930 . S
H13 C20 0.930 . S
H14 C22 0.930 . S
H15 C16 1.016 . S
C16 H15 1.016 . S
C16 N23 1.286 . S
C17 H12 0.930 . S
C17 C18 1.397 . S
C17 C19 1.361 . S
C18 C17 1.397 . S
C18 C22 1.390 . S
C19 C17 1.361 . S
C19 C20 1.393 . S
C19 N23 1.413 . S
C20 H13 0.930 . S
C20 C19 1.393 . S
C20 C21 1.399 . S
C21 C20 1.399 . S
C21 C22 1.381 . S
C22 H14 0.930 . S
C22 C18 1.390 . S
C22 C21 1.381 . S
N23 C16 1.286 . S
N23 C19 1.413 . S
H24 C29 0.930 . S
H25 C32 0.930 . S
H26 C34 0.930 . S
H27 C28 1.016 . S
C28 H27 1.016 . S
C28 N35 1.286 . S
C29 H24 0.930 . S
C29 C30 1.397 . S
C29 C31 1.361 . S
C30 C29 1.397 . S
C30 C34 1.390 . S
C31 C29 1.361 . S
C31 C32 1.393 . S
C31 N35 1.413 . S
C32 H25 0.930 . S
C32 C31 1.393 . S
C32 C33 1.399 . S
C33 C32 1.399 . S
C33 C34 1.381 . S
C34 H26 0.930 . S
C34 C30 1.390 . S
C34 C33 1.381 . S
N35 C28 1.286 . S
N35 C31 1.413 . S
H36 C41 0.930 . S
H37 C44 0.930 . S
H38 C46 0.930 . S
H39 C40 1.016 . S
C40 H39 1.016 . S
C40 N47 1.286 . S
C41 H36 0.930 . S
C41 C42 1.397 . S
C41 C43 1.361 . S
C42 C41 1.397 . S
C42 C46 1.390 . S
C43 C41 1.361 . S
C43 C44 1.393 . S
C43 N47 1.413 . S
C44 H37 0.930 . S
C44 C43 1.393 . S
C44 C45 1.399 . S
C45 C44 1.399 . S
C45 C46 1.381 . S
C46 H38 0.930 . S
C46 C42 1.390 . S
C46 C45 1.381 . S
N47 C40 1.286 . S
N47 C43 1.413 . S
H48 C53 0.930 . S
H49 C56 0.930 . S
H50 C58 0.930 . S
H51 C52 1.016 . S
C52 H51 1.016 . S
C52 N59 1.286 . S
C53 H48 0.930 . S
C53 C54 1.397 . S
C53 C55 1.361 . S
C54 C53 1.397 . S
C54 C58 1.390 . S
C55 C53 1.361 . S
C55 C56 1.393 . S
C55 N59 1.413 . S
C56 H49 0.930 . S
C56 C55 1.393 . S
C56 C57 1.399 . S
C57 C56 1.399 . S
C57 C58 1.381 . S
C58 H50 0.930 . S
C58 C54 1.390 . S
C58 C57 1.381 . S
N59 C52 1.286 . S
N59 C55 1.413 . S
H60 C65 0.930 . S
H61 C68 0.930 . S
H62 C70 0.930 . S
H63 C64 1.016 . S
C64 H63 1.016 . S
C64 N71 1.286 . S
C65 H60 0.930 . S
C65 C66 1.397 . S
C65 C67 1.361 . S
C66 C65 1.397 . S
C66 C70 1.390 . S
C67 C65 1.361 . S
C67 C68 1.393 . S
C67 N71 1.413 . S
C68 H61 0.930 . S
C68 C67 1.393 . S
C68 C69 1.399 . S
C69 C68 1.399 . S
C69 C70 1.381 . S
C70 H62 0.930 . S
C70 C66 1.390 . S
C70 C69 1.381 . S
N71 C64 1.286 . S
N71 C67 1.413 . S
H72 C77 0.930 . S
H73 C80 0.930 . S
H74 C82 0.930 . S
H75 C76 1.016 . S
C76 H75 1.016 . S
C76 N83 1.286 . S
C77 H72 0.930 . S
C77 C78 1.397 . S
C77 C79 1.361 . S
C78 C77 1.397 . S
C78 C82 1.390 . S
C79 C77 1.361 . S
C79 C80 1.393 . S
C79 N83 1.413 . S
C80 H73 0.930 . S
C80 C79 1.393 . S
C80 C81 1.399 . S
C81 C80 1.399 . S
C81 C82 1.381 . S
C82 H74 0.930 . S
C82 C78 1.390 . S
C82 C81 1.381 . S
N83 C76 1.286 . S
N83 C79 1.413 . S
H84 C89 0.930 . S
H85 C92 0.930 . S
H86 C94 0.930 . S
H87 C88 1.016 . S
C88 H87 1.016 . S
C88 N95 1.286 . S
C89 H84 0.930 . S
C89 C90 1.397 . S
C89 C91 1.361 . S
C90 C89 1.397 . S
C90 C94 1.390 . S
C91 C89 1.361 . S
C91 C92 1.393 . S
C91 N95 1.413 . S
C92 H85 0.930 . S
C92 C91 1.393 . S
C92 C93 1.399 . S
C93 C92 1.399 . S
C93 C94 1.381 . S
C94 H86 0.930 . S
C94 C90 1.390 . S
C94 C93 1.381 . S
N95 C88 1.286 . S
N95 C91 1.413 . S
Ho96 C99 2.811 . S
Ho96 O116 2.322 . S
Ho96 O118 2.378 . S
Ho96 O119 2.524 . S
Ho96 O120 2.381 1_545 S
Ho96 O121 2.669 1_545 S
Ho96 O123 2.346 1_445 S
Ho96 O127 2.305 1_455 S
Ho97 C108 2.811 . S
Ho97 O117 2.346 1_665 S
Ho97 O121 2.305 1_655 S
Ho97 O122 2.322 . S
Ho97 O124 2.378 . S
Ho97 O125 2.524 . S
Ho97 O126 2.381 1_565 S
Ho97 O127 2.669 1_565 S
C98 O116 1.259 . S
C98 O117 1.268 . S
C99 Ho96 2.811 . S
C99 C100 1.488 . S
C99 O118 1.215 . S
C99 O119 1.289 . S
C100 C99 1.488 . S
C100 C101 1.348 . S
C100 C105 1.413 . S
C101 C100 1.348 . S
C101 C102 1.442 . S
C101 H128 0.930 . S
C102 C101 1.442 . S
C102 C103 1.381 . S
C102 H129 0.931 . S
C103 C102 1.381 . S
C103 C104 1.321 . S
C104 C103 1.321 . S
C104 C105 1.403 . S
C104 H130 0.934 . S
C105 C100 1.413 . S
C105 C104 1.403 . S
C105 H131 0.930 . S
C106 O120 1.275 . S
C106 O121 1.256 . S
C107 O122 1.259 . S
C107 O123 1.268 . S
C108 Ho97 2.811 . S
C108 C109 1.488 . S
C108 O124 1.215 . S
C108 O125 1.289 . S
C109 C108 1.488 . S
C109 C110 1.348 . S
C109 C114 1.413 . S
C110 C109 1.348 . S
C110 C111 1.442 . S
C110 H132 0.930 . S
C111 C110 1.442 . S
C111 C112 1.381 . S
C111 H133 0.931 . S
C112 C111 1.381 . S
C112 C113 1.321 . S
C113 C112 1.321 . S
C113 C114 1.403 . S
C113 H134 0.934 . S
C114 C109 1.413 . S
C114 C113 1.403 . S
C114 H135 0.930 . S
C115 O126 1.275 . S
C115 O127 1.256 . S
O116 Ho96 2.322 . S
O116 C98 1.259 . S
O117 Ho97 2.346 1_445 S
O117 C98 1.268 . S
O118 Ho96 2.378 . S
O118 C99 1.215 . S
O119 Ho96 2.524 . S
O119 C99 1.289 . S
O120 Ho96 2.381 1_565 S
O120 C106 1.275 . S
O121 Ho96 2.669 1_565 S
O121 Ho97 2.305 1_455 S
O121 C106 1.256 . S
O122 Ho97 2.322 . S
O122 C107 1.259 . S
O123 Ho96 2.346 1_665 S
O123 C107 1.268 . S
O124 Ho97 2.378 . S
O124 C108 1.215 . S
O125 Ho97 2.524 . S
O125 C108 1.289 . S
O126 Ho97 2.381 1_545 S
O126 C115 1.275 . S
O127 Ho96 2.305 1_655 S
O127 Ho97 2.669 1_545 S
O127 C115 1.256 . S
H128 C101 0.930 . S
H129 C102 0.931 . S
H130 C104 0.934 . S
H131 C105 0.930 . S
H132 C110 0.930 . S
H133 C111 0.931 . S
H134 C113 0.934 . S
H135 C114 0.930 . S
Ho136 C139 2.811 . S
Ho136 O156 2.322 . S
Ho136 O158 2.378 . S
Ho136 O159 2.524 . S
Ho136 O160 2.381 1_545 S
Ho136 O161 2.669 1_545 S
Ho136 O163 2.346 1_544 S
Ho136 O167 2.300 1_554 S
Ho137 C148 2.811 1_545 S
Ho137 O157 2.346 1_556 S
Ho137 O161 2.305 1_546 S
Ho137 O162 2.322 1_545 S
Ho137 O164 2.378 1_545 S
Ho137 O165 2.524 1_545 S
Ho137 O166 2.381 . S
Ho137 O167 2.671 . S
C138 O156 1.259 . S
C138 O157 1.268 . S
C139 Ho136 2.811 . S
C139 C140 1.488 . S
C139 O158 1.215 . S
C139 O159 1.289 . S
C140 C139 1.488 . S
C140 C141 1.348 . S
C140 C145 1.413 . S
C141 C140 1.348 . S
C141 C142 1.442 . S
C141 H168 0.930 . S
C142 C141 1.442 . S
C142 C143 1.381 . S
C142 H169 0.931 . S
C143 C142 1.381 . S
C143 C144 1.321 . S
C144 C143 1.321 . S
C144 C145 1.403 . S
C144 H170 0.934 . S
C145 C140 1.413 . S
C145 C144 1.403 . S
C145 H171 0.930 . S
C146 O160 1.275 . S
C146 O161 1.256 . S
C147 O162 1.259 . S
C147 O163 1.268 . S
C148 Ho137 2.811 1_565 S
C148 C149 1.488 . S
C148 O164 1.215 . S
C148 O165 1.289 . S
C149 C148 1.488 . S
C149 C150 1.348 . S
C149 C154 1.413 . S
C150 C149 1.348 . S
C150 C151 1.442 . S
C150 H172 0.930 . S
C151 C150 1.442 . S
C151 C152 1.381 . S
C151 H173 0.931 . S
C152 C151 1.381 . S
C152 C153 1.321 . S
C153 C152 1.321 . S
C153 C154 1.403 . S
C153 H174 0.934 . S
C154 C149 1.413 . S
C154 C153 1.403 . S
C154 H175 0.930 . S
C155 O166 1.275 . S
C155 O167 1.261 . S
O156 Ho136 2.322 . S
O156 C138 1.259 . S
O157 Ho137 2.346 1_554 S
O157 C138 1.268 . S
O158 Ho136 2.378 . S
O158 C139 1.215 . S
O159 Ho136 2.524 . S
O159 C139 1.289 . S
O160 Ho136 2.381 1_565 S
O160 C146 1.275 . S
O161 Ho136 2.669 1_565 S
O161 Ho137 2.305 1_564 S
O161 C146 1.256 . S
O162 Ho137 2.322 1_565 S
O162 C147 1.259 . S
O163 Ho136 2.346 1_566 S
O163 C147 1.268 . S
O164 Ho137 2.378 1_565 S
O164 C148 1.215 . S
O165 Ho137 2.524 1_565 S
O165 C148 1.289 . S
O166 Ho137 2.381 . S
O166 C155 1.275 . S
O167 Ho136 2.300 1_556 S
O167 Ho137 2.671 . S
O167 C155 1.261 . S
H168 C141 0.930 . S
H169 C142 0.931 . S
H170 C144 0.934 . S
H171 C145 0.930 . S
H172 C150 0.930 . S
H173 C151 0.931 . S
H174 C153 0.934 . S
H175 C154 0.930 . S
Ho176 C179 2.811 . S
Ho176 O196 2.322 . S
Ho176 O198 2.378 . S
Ho176 O199 2.524 . S
Ho176 O200 2.381 . S
Ho176 O201 2.669 . S
Ho176 O203 2.346 . S
Ho176 O207 2.305 . S
Ho177 C188 2.811 . S
Ho177 O197 2.346 . S
Ho177 O201 2.305 . S
Ho177 O202 2.322 . S
Ho177 O204 2.378 . S
Ho177 O205 2.524 . S
Ho177 O206 2.381 . S
Ho177 O207 2.669 . S
C178 O196 1.259 . S
C178 O197 1.268 . S
C179 Ho176 2.811 . S
C179 C180 1.488 . S
C179 O198 1.215 . S
C179 O199 1.289 . S
C180 C179 1.488 . S
C180 C181 1.348 . S
C180 C185 1.413 . S
C181 C180 1.348 . S
C181 C182 1.442 . S
C181 H208 0.930 . S
C182 C181 1.442 . S
C182 C183 1.381 . S
C182 H209 0.931 . S
C183 C182 1.381 . S
C183 C184 1.321 . S
C184 C183 1.321 . S
C184 C185 1.403 . S
C184 H210 0.934 . S
C185 C180 1.413 . S
C185 C184 1.403 . S
C185 H211 0.930 . S
C186 O200 1.275 . S
C186 O201 1.256 . S
C187 O202 1.259 . S
C187 O203 1.268 . S
C188 Ho177 2.811 . S
C188 C189 1.488 . S
C188 O204 1.215 . S
C188 O205 1.289 . S
C189 C188 1.488 . S
C189 C190 1.348 . S
C189 C194 1.413 . S
C190 C189 1.348 . S
C190 C191 1.442 . S
C190 H212 0.930 . S
C191 C190 1.442 . S
C191 C192 1.381 . S
C191 H213 0.931 . S
C192 C191 1.381 . S
C192 C193 1.321 . S
C193 C192 1.321 . S
C193 C194 1.403 . S
C193 H214 0.934 . S
C194 C189 1.413 . S
C194 C193 1.403 . S
C194 H215 0.930 . S
C195 O206 1.275 . S
C195 O207 1.256 . S
O196 Ho176 2.322 . S
O196 C178 1.259 . S
O197 Ho177 2.346 . S
O197 C178 1.268 . S
O198 Ho176 2.378 . S
O198 C179 1.215 . S
O199 Ho176 2.524 . S
O199 C179 1.289 . S
O200 Ho176 2.381 . S
O200 C186 1.275 . S
O201 Ho176 2.669 . S
O201 Ho177 2.305 . S
O201 C186 1.256 . S
O202 Ho177 2.322 . S
O202 C187 1.259 . S
O203 Ho176 2.346 . S
O203 C187 1.268 . S
O204 Ho177 2.378 . S
O204 C188 1.215 . S
O205 Ho177 2.524 . S
O205 C188 1.289 . S
O206 Ho177 2.381 . S
O206 C195 1.275 . S
O207 Ho176 2.305 . S
O207 Ho177 2.669 . S
O207 C195 1.256 . S
H208 C181 0.930 . S
H209 C182 0.931 . S
H210 C184 0.934 . S
H211 C185 0.930 . S
H212 C190 0.930 . S
H213 C191 0.931 . S
H214 C193 0.934 . S
H215 C194 0.930 . S
Ho216 C219 2.811 . S
Ho216 O236 2.322 . S
Ho216 O238 2.378 . S
Ho216 O239 2.524 . S
Ho216 O240 2.381 1_455 S
Ho216 O241 2.669 1_455 S
Ho216 O243 2.346 1_454 S
Ho216 O247 2.305 1_554 S
Ho217 C228 2.811 1_455 S
Ho217 O237 2.346 1_556 S
Ho217 O241 2.305 1_456 S
Ho217 O242 2.322 1_455 S
Ho217 O244 2.378 1_455 S
Ho217 O245 2.524 1_455 S
Ho217 O246 2.381 . S
Ho217 O247 2.669 . S
C218 O236 1.259 . S
C218 O237 1.268 . S
C219 Ho216 2.811 . S
C219 C220 1.488 . S
C219 O238 1.215 . S
C219 O239 1.289 . S
C220 C219 1.488 . S
C220 C221 1.348 . S
C220 C225 1.413 . S
C221 C220 1.348 . S
C221 C222 1.442 . S
C221 H248 0.930 . S
C222 C221 1.442 . S
C222 C223 1.381 . S
C222 H249 0.931 . S
C223 C222 1.381 . S
C223 C224 1.321 . S
C224 C223 1.321 . S
C224 C225 1.403 . S
C224 H250 0.934 . S
C225 C220 1.413 . S
C225 C224 1.403 . S
C225 H251 0.930 . S
C226 O240 1.275 . S
C226 O241 1.256 . S
C227 O242 1.259 . S
C227 O243 1.268 . S
C228 Ho217 2.811 1_655 S
C228 C229 1.488 . S
C228 O244 1.215 . S
C228 O245 1.289 . S
C229 C228 1.488 . S
C229 C230 1.348 . S
C229 C234 1.413 . S
C230 C229 1.348 . S
C230 C231 1.442 . S
C230 H252 0.930 . S
C231 C230 1.442 . S
C231 C232 1.381 . S
C231 H253 0.931 . S
C232 C231 1.381 . S
C232 C233 1.321 . S
C233 C232 1.321 . S
C233 C234 1.403 . S
C233 H254 0.934 . S
C234 C229 1.413 . S
C234 C233 1.403 . S
C234 H255 0.930 . S
C235 O246 1.275 . S
C235 O247 1.256 . S
O236 Ho216 2.322 . S
O236 C218 1.259 . S
O237 Ho217 2.346 1_554 S
O237 C218 1.268 . S
O238 Ho216 2.378 . S
O238 C219 1.215 . S
O239 Ho216 2.524 . S
O239 C219 1.289 . S
O240 Ho216 2.381 1_655 S
O240 C226 1.275 . S
O241 Ho216 2.669 1_655 S
O241 Ho217 2.305 1_654 S
O241 C226 1.256 . S
O242 Ho217 2.322 1_655 S
O242 C227 1.259 . S
O243 Ho216 2.346 1_656 S
O243 C227 1.268 . S
O244 Ho217 2.378 1_655 S
O244 C228 1.215 . S
O245 Ho217 2.524 1_655 S
O245 C228 1.289 . S
O246 Ho217 2.381 . S
O246 C235 1.275 . S
O247 Ho216 2.305 1_556 S
O247 Ho217 2.669 . S
O247 C235 1.256 . S
H248 C221 0.930 . S
H249 C222 0.931 . S
H250 C224 0.934 . S
H251 C225 0.930 . S
H252 C230 0.930 . S
H253 C231 0.931 . S
H254 C233 0.934 . S
H255 C234 0.930 . S
C256 C257 1.349 . S
C256 C258 1.327 . S
C256 H281 0.950 . S
C257 C256 1.349 . S
C257 C273 1.349 . S
C258 C256 1.327 . S
C258 C277 1.429 . S
C258 H282 0.950 . S
C259 C276 1.574 . S
C259 C278 1.368 . S
C259 H283 0.949 . S
H260 C264 0.949 . S
C261 C262 1.349 . S
C261 C263 1.327 . S
C261 H284 0.950 . S
C262 C261 1.349 . S
C262 C274 1.349 . S
C263 C261 1.327 . S
C263 C279 1.429 . S
C263 H285 0.950 . S
C264 H260 0.949 . S
C264 C272 1.574 . S
C264 C280 1.368 . S
H265 C273 0.950 . S
H266 C271 0.950 . S
H267 C272 0.949 . S
H268 C274 0.950 . S
H269 C275 0.950 . S
H270 C276 0.949 . S
C271 H266 0.950 . S
C271 C273 1.327 . S
C271 C277 1.429 . S
C272 C264 1.574 . S
C272 H267 0.949 . S
C272 C278 1.368 . S
C273 C257 1.349 . S
C273 H265 0.950 . S
C273 C271 1.327 . S
C274 C262 1.349 . S
C274 H268 0.950 . S
C274 C275 1.327 . S
C275 H269 0.950 . S
C275 C274 1.327 . S
C275 C279 1.429 . S
C276 C259 1.574 . S
C276 H270 0.949 . S
C276 C280 1.368 . S
C277 C258 1.429 . S
C277 C271 1.429 . S
C277 C278 1.523 . S
C278 C259 1.368 . S
C278 C272 1.368 . S
C278 C277 1.523 . S
C279 C263 1.429 . S
C279 C275 1.429 . S
C279 C280 1.523 . S
C280 C264 1.368 . S
C280 C276 1.368 . S
C280 C279 1.523 . S
H281 C256 0.950 . S
H282 C258 0.950 . S
H283 C259 0.949 . S
H284 C261 0.950 . S
H285 C263 0.950 . S
C286 C287 1.349 . S
C286 C288 1.327 . S
C286 H311 0.950 . S
C287 C286 1.349 . S
C287 C303 1.349 . S
C288 C286 1.327 . S
C288 C307 1.429 . S
C288 H312 0.950 . S
C289 C306 1.574 . S
C289 C308 1.368 . S
C289 H313 0.949 . S
H290 C294 0.949 . S
C291 C292 1.349 . S
C291 C293 1.327 . S
C291 H314 0.950 . S
C292 C291 1.349 . S
C292 C304 1.349 . S
C293 C291 1.327 . S
C293 C309 1.429 . S
C293 H315 0.950 . S
C294 H290 0.949 . S
C294 C302 1.574 . S
C294 C310 1.368 . S
H295 C303 0.950 . S
H296 C301 0.950 . S
H297 C302 0.949 . S
H298 C304 0.950 . S
H299 C305 0.950 . S
H300 C306 0.949 . S
C301 H296 0.950 . S
C301 C303 1.327 . S
C301 C307 1.429 . S
C302 C294 1.574 . S
C302 H297 0.949 . S
C302 C308 1.368 . S
C303 C287 1.349 . S
C303 H295 0.950 . S
C303 C301 1.327 . S
C304 C292 1.349 . S
C304 H298 0.950 . S
C304 C305 1.327 . S
C305 H299 0.950 . S
C305 C304 1.327 . S
C305 C309 1.429 . S
C306 C289 1.574 . S
C306 H300 0.949 . S
C306 C310 1.368 . S
C307 C288 1.429 . S
C307 C301 1.429 . S
C307 C308 1.523 . S
C308 C289 1.368 . S
C308 C302 1.368 . S
C308 C307 1.523 . S
C309 C293 1.429 . S
C309 C305 1.429 . S
C309 C310 1.523 . S
C310 C294 1.368 . S
C310 C306 1.368 . S
C310 C309 1.523 . S
H311 C286 0.950 . S
H312 C288 0.950 . S
H313 C289 0.949 . S
H314 C291 0.950 . S
H315 C293 0.950 . S
C316 C317 1.349 . S
C316 C318 1.327 . S
C316 H341 0.950 . S
C317 C316 1.349 . S
C317 C333 1.349 . S
C318 C316 1.327 . S
C318 C337 1.429 . S
C318 H342 0.950 . S
C319 C336 1.574 . S
C319 C338 1.368 . S
C319 H343 0.949 . S
H320 C324 0.949 . S
C321 C322 1.349 . S
C321 C323 1.327 . S
C321 H344 0.950 . S
C322 C321 1.349 . S
C322 C334 1.349 . S
C323 C321 1.327 . S
C323 C339 1.429 . S
C323 H345 0.950 . S
C324 H320 0.949 . S
C324 C332 1.574 . S
C324 C340 1.368 . S
H325 C333 0.950 . S
H326 C331 0.950 . S
H327 C332 0.949 . S
H328 C334 0.950 . S
H329 C335 0.950 . S
H330 C336 0.949 . S
C331 H326 0.950 . S
C331 C333 1.327 . S
C331 C337 1.429 . S
C332 C324 1.574 . S
C332 H327 0.949 . S
C332 C338 1.368 . S
C333 C317 1.349 . S
C333 H325 0.950 . S
C333 C331 1.327 . S
C334 C322 1.349 . S
C334 H328 0.950 . S
C334 C335 1.327 . S
C335 H329 0.950 . S
C335 C334 1.327 . S
C335 C339 1.429 . S
C336 C319 1.574 . S
C336 H330 0.949 . S
C336 C340 1.368 . S
C337 C318 1.429 . S
C337 C331 1.429 . S
C337 C338 1.523 . S
C338 C319 1.368 . S
C338 C332 1.368 . S
C338 C337 1.523 . S
C339 C323 1.429 . S
C339 C335 1.429 . S
C339 C340 1.523 . S
C340 C324 1.368 . S
C340 C336 1.368 . S
C340 C339 1.523 . S
H341 C316 0.950 . S
H342 C318 0.950 . S
H343 C319 0.949 . S
H344 C321 0.950 . S
H345 C323 0.950 . S
C346 C347 1.349 . S
C346 C348 1.327 . S
C346 H371 0.950 . S
C347 C346 1.349 . S
C347 C363 1.349 . S
C348 C346 1.327 . S
C348 C367 1.429 . S
C348 H372 0.950 . S
C349 C366 1.574 . S
C349 C368 1.368 . S
C349 H373 0.949 . S
H350 C354 0.949 . S
C351 C352 1.349 . S
C351 C353 1.327 . S
C351 H374 0.950 . S
C352 C351 1.349 . S
C352 C364 1.349 . S
C353 C351 1.327 . S
C353 C369 1.429 . S
C353 H375 0.950 . S
C354 H350 0.949 . S
C354 C362 1.574 . S
C354 C370 1.368 . S
H355 C363 0.950 . S
H356 C361 0.950 . S
H357 C362 0.949 . S
H358 C364 0.950 . S
H359 C365 0.950 . S
H360 C366 0.949 . S
C361 H356 0.950 . S
C361 C363 1.327 . S
C361 C367 1.429 . S
C362 C354 1.574 . S
C362 H357 0.949 . S
C362 C368 1.368 . S
C363 C347 1.349 . S
C363 H355 0.950 . S
C363 C361 1.327 . S
C364 C352 1.349 . S
C364 H358 0.950 . S
C364 C365 1.327 . S
C365 H359 0.950 . S
C365 C364 1.327 . S
C365 C369 1.429 . S
C366 C349 1.574 . S
C366 H360 0.949 . S
C366 C370 1.368 . S
C367 C348 1.429 . S
C367 C361 1.429 . S
C367 C368 1.523 . S
C368 C349 1.368 . S
C368 C362 1.368 . S
C368 C367 1.523 . S
C369 C353 1.429 . S
C369 C365 1.429 . S
C369 C370 1.523 . S
C370 C354 1.368 . S
C370 C366 1.368 . S
C370 C369 1.523 . S
H371 C346 0.950 . S
H372 C348 0.950 . S
H373 C349 0.949 . S
H374 C351 0.950 . S
H375 C353 0.950 . S
C376 C377 1.349 . S
C376 C378 1.327 . S
C376 H401 0.950 . S
C377 C376 1.349 . S
C377 C393 1.349 . S
C378 C376 1.327 . S
C378 C397 1.429 . S
C378 H402 0.950 . S
C379 C396 1.574 . S
C379 C398 1.368 . S
C379 H403 0.949 . S
H380 C384 0.949 . S
C381 C382 1.349 . S
C381 C383 1.327 . S
C381 H404 0.950 . S
C382 C381 1.349 . S
C382 C394 1.349 . S
C383 C381 1.327 . S
C383 C399 1.429 . S
C383 H405 0.950 . S
C384 H380 0.949 . S
C384 C392 1.574 . S
C384 C400 1.368 . S
H385 C393 0.950 . S
H386 C391 0.950 . S
H387 C392 0.949 . S
H388 C394 0.950 . S
H389 C395 0.950 . S
H390 C396 0.949 . S
C391 H386 0.950 . S
C391 C393 1.327 . S
C391 C397 1.429 . S
C392 C384 1.574 . S
C392 H387 0.949 . S
C392 C398 1.368 . S
C393 C377 1.349 . S
C393 H385 0.950 . S
C393 C391 1.327 . S
C394 C382 1.349 . S
C394 H388 0.950 . S
C394 C395 1.327 . S
C395 H389 0.950 . S
C395 C394 1.327 . S
C395 C399 1.429 . S
C396 C379 1.574 . S
C396 H390 0.949 . S
C396 C400 1.368 . S
C397 C378 1.429 . S
C397 C391 1.429 . S
C397 C398 1.523 . S
C398 C379 1.368 . S
C398 C392 1.368 . S
C398 C397 1.523 . S
C399 C383 1.429 . S
C399 C395 1.429 . S
C399 C400 1.523 . S
C400 C384 1.368 . S
C400 C396 1.368 . S
C400 C399 1.523 . S
H401 C376 0.950 . S
H402 C378 0.950 . S
H403 C379 0.949 . S
H404 C381 0.950 . S
H405 C383 0.950 . S
C406 C407 1.349 . S
C406 C408 1.327 . S
C406 H431 0.950 . S
C407 C406 1.349 . S
C407 C423 1.349 . S
C408 C406 1.327 . S
C408 C427 1.429 . S
C408 H432 0.950 . S
C409 C426 1.574 . S
C409 C428 1.368 . S
C409 H433 0.949 . S
H410 C414 0.949 . S
C411 C412 1.349 . S
C411 C413 1.327 . S
C411 H434 0.950 . S
C412 C411 1.349 . S
C412 C424 1.349 . S
C413 C411 1.327 . S
C413 C429 1.429 . S
C413 H435 0.950 . S
C414 H410 0.949 . S
C414 C422 1.574 . S
C414 C430 1.368 . S
H415 C423 0.950 . S
H416 C421 0.950 . S
H417 C422 0.949 . S
H418 C424 0.950 1_545 S
H419 C425 0.950 . S
H420 C426 0.949 . S
C421 H416 0.950 . S
C421 C423 1.327 . S
C421 C427 1.429 . S
C422 C414 1.574 . S
C422 H417 0.949 . S
C422 C428 1.368 . S
C423 C407 1.349 . S
C423 H415 0.950 . S
C423 C421 1.327 . S
C424 C412 1.349 . S
C424 H418 0.950 1_565 S
C424 C425 1.327 . S
C425 H419 0.950 . S
C425 C424 1.327 . S
C425 C429 1.429 . S
C426 C409 1.574 . S
C426 H420 0.949 . S
C426 C430 1.368 . S
C427 C408 1.429 . S
C427 C421 1.429 . S
C427 C428 1.523 . S
C428 C409 1.368 . S
C428 C422 1.368 . S
C428 C427 1.523 . S
C429 C413 1.429 . S
C429 C425 1.429 . S
C429 C430 1.523 . S
C430 C414 1.368 . S
C430 C426 1.368 . S
C430 C429 1.523 . S
H431 C406 0.950 . S
H432 C408 0.950 . S
H433 C409 0.949 . S
H434 C411 0.950 . S
H435 C413 0.950 . S
C436 C437 1.349 . S
C436 C438 1.327 . S
C436 H461 0.950 . S
C437 C436 1.349 . S
C437 C453 1.349 . S
C438 C436 1.327 . S
C438 C457 1.429 . S
C438 H462 0.950 . S
C439 C456 1.574 . S
C439 C458 1.368 . S
C439 H463 0.949 . S
H440 C444 0.949 . S
C441 C442 1.349 . S
C441 C443 1.327 . S
C441 H464 0.950 . S
C442 C441 1.349 . S
C442 C454 1.349 . S
C443 C441 1.327 . S
C443 C459 1.429 . S
C443 H465 0.950 . S
C444 H440 0.949 . S
C444 C452 1.574 . S
C444 C460 1.368 . S
H445 C453 0.950 . S
H446 C451 0.950 . S
H447 C452 0.949 . S
H448 C454 0.950 . S
H449 C455 0.950 . S
H450 C456 0.949 . S
C451 H446 0.950 . S
C451 C453 1.327 . S
C451 C457 1.429 . S
C452 C444 1.574 . S
C452 H447 0.949 . S
C452 C458 1.368 . S
C453 C437 1.349 . S
C453 H445 0.950 . S
C453 C451 1.327 . S
C454 C442 1.349 . S
C454 H448 0.950 . S
C454 C455 1.327 . S
C455 H449 0.950 . S
C455 C454 1.327 . S
C455 C459 1.429 . S
C456 C439 1.574 . S
C456 H450 0.949 . S
C456 C460 1.368 . S
C457 C438 1.429 . S
C457 C451 1.429 . S
C457 C458 1.523 . S
C458 C439 1.368 . S
C458 C452 1.368 . S
C458 C457 1.523 . S
C459 C443 1.429 . S
C459 C455 1.429 . S
C459 C460 1.523 . S
C460 C444 1.368 . S
C460 C456 1.368 . S
C460 C459 1.523 . S
H461 C436 0.950 . S
H462 C438 0.950 . S
H463 C439 0.949 . S
H464 C441 0.950 . S
H465 C443 0.950 . S
C466 C467 1.349 . S
C466 C468 1.327 . S
C466 H491 0.950 . S
C467 C466 1.349 . S
C467 C483 1.349 . S
C468 C466 1.327 . S
C468 C487 1.429 . S
C468 H492 0.950 . S
C469 C486 1.574 . S
C469 C488 1.368 . S
C469 H493 0.949 . S
H470 C474 0.949 . S
C471 C472 1.349 . S
C471 C473 1.327 . S
C471 H494 0.950 . S
C472 C471 1.349 . S
C472 C484 1.349 . S
C473 C471 1.327 . S
C473 C489 1.429 . S
C473 H495 0.950 . S
C474 H470 0.949 . S
C474 C482 1.574 . S
C474 C490 1.368 . S
H475 C483 0.950 . S
H476 C481 0.950 . S
H477 C482 0.949 . S
H478 C484 0.950 . S
H479 C485 0.950 . S
H480 C486 0.949 . S
C481 H476 0.950 . S
C481 C483 1.327 . S
C481 C487 1.429 . S
C482 C474 1.574 . S
C482 H477 0.949 . S
C482 C488 1.368 . S
C483 C467 1.349 . S
C483 H475 0.950 . S
C483 C481 1.327 . S
C484 C472 1.349 . S
C484 H478 0.950 . S
C484 C485 1.327 . S
C485 H479 0.950 . S
C485 C484 1.327 . S
C485 C489 1.429 . S
C486 C469 1.574 . S
C486 H480 0.949 . S
C486 C490 1.368 . S
C487 C468 1.429 . S
C487 C481 1.429 . S
C487 C488 1.523 . S
C488 C469 1.368 . S
C488 C482 1.368 . S
C488 C487 1.523 . S
C489 C473 1.429 . S
C489 C485 1.429 . S
C489 C490 1.523 . S
C490 C474 1.368 . S
C490 C486 1.368 . S
C490 C489 1.523 . S
H491 C466 0.950 . S
H492 C468 0.950 . S
H493 C469 0.949 . S
H494 C471 0.950 . S
H495 C473 0.950 . S
C496 C497 1.349 . S
C496 C498 1.327 . S
C496 H521 0.950 . S
C497 C496 1.349 . S
C497 C513 1.349 . S
C498 C496 1.327 . S
C498 C517 1.429 . S
C498 H522 0.950 . S
C499 C516 1.574 . S
C499 C518 1.368 . S
C499 H523 0.949 . S
H500 C504 0.949 . S
C501 C502 1.349 . S
C501 C503 1.327 . S
C501 H524 0.950 . S
C502 C501 1.349 . S
C502 C514 1.349 . S
C503 C501 1.327 . S
C503 C519 1.429 . S
C503 H525 0.950 . S
C504 H500 0.949 . S
C504 C512 1.574 . S
C504 C520 1.368 . S
H505 C513 0.950 . S
H506 C511 0.950 . S
H507 C512 0.949 . S
H508 C514 0.950 . S
H509 C515 0.950 . S
H510 C516 0.949 . S
C511 H506 0.950 . S
C511 C513 1.327 . S
C511 C517 1.429 . S
C512 C504 1.574 . S
C512 H507 0.949 . S
C512 C518 1.368 . S
C513 C497 1.349 . S
C513 H505 0.950 . S
C513 C511 1.327 . S
C514 C502 1.349 . S
C514 H508 0.950 . S
C514 C515 1.327 . S
C515 H509 0.950 . S
C515 C514 1.327 . S
C515 C519 1.429 . S
C516 C499 1.574 . S
C516 H510 0.949 . S
C516 C520 1.368 . S
C517 C498 1.429 . S
C517 C511 1.429 . S
C517 C518 1.523 . S
C518 C499 1.368 . S
C518 C512 1.368 . S
C518 C517 1.523 . S
C519 C503 1.429 . S
C519 C515 1.429 . S
C519 C520 1.523 . S
C520 C504 1.368 . S
C520 C516 1.368 . S
C520 C519 1.523 . S
H521 C496 0.950 . S
H522 C498 0.950 . S
H523 C499 0.949 . S
H524 C501 0.950 . S
H525 C503 0.950 . S
C526 C527 1.349 . S
C526 C528 1.327 . S
C526 H551 0.950 . S
C527 C526 1.349 . S
C527 C543 1.349 . S
C528 C526 1.327 . S
C528 C547 1.429 . S
C528 H552 0.950 . S
C529 C546 1.574 . S
C529 C548 1.368 . S
C529 H553 0.949 . S
H530 C534 0.949 . S
C531 C532 1.349 . S
C531 C533 1.327 . S
C531 H554 0.950 . S
C532 C531 1.349 . S
C532 C544 1.349 . S
C533 C531 1.327 . S
C533 C549 1.429 . S
C533 H555 0.950 . S
C534 H530 0.949 . S
C534 C542 1.574 . S
C534 C550 1.368 . S
H535 C543 0.950 . S
H536 C541 0.950 . S
H537 C542 0.949 . S
H538 C544 0.950 . S
H539 C545 0.950 . S
H540 C546 0.949 . S
C541 H536 0.950 . S
C541 C543 1.327 . S
C541 C547 1.429 . S
C542 C534 1.574 . S
C542 H537 0.949 . S
C542 C548 1.368 . S
C543 C527 1.349 . S
C543 H535 0.950 . S
C543 C541 1.327 . S
C544 C532 1.349 . S
C544 H538 0.950 . S
C544 C545 1.327 . S
C545 H539 0.950 . S
C545 C544 1.327 . S
C545 C549 1.429 . S
C546 C529 1.574 . S
C546 H540 0.949 . S
C546 C550 1.368 . S
C547 C528 1.429 . S
C547 C541 1.429 . S
C547 C548 1.523 . S
C548 C529 1.368 . S
C548 C542 1.368 . S
C548 C547 1.523 . S
C549 C533 1.429 . S
C549 C545 1.429 . S
C549 C550 1.523 . S
C550 C534 1.368 . S
C550 C546 1.368 . S
C550 C549 1.523 . S
H551 C526 0.950 . S
H552 C528 0.950 . S
H553 C529 0.949 . S
H554 C531 0.950 . S
H555 C533 0.950 . S
C556 C557 1.349 . S
C556 C558 1.327 . S
C556 H581 0.950 . S
C557 C556 1.349 . S
C557 C573 1.349 . S
C558 C556 1.327 . S
C558 C577 1.429 . S
C558 H582 0.950 . S
C559 C576 1.574 . S
C559 C578 1.368 . S
C559 H583 0.949 . S
H560 C564 0.949 . S
C561 C562 1.349 . S
C561 C563 1.327 . S
C561 H584 0.950 . S
C562 C561 1.349 . S
C562 C574 1.349 . S
C563 C561 1.327 . S
C563 C579 1.429 . S
C563 H585 0.950 . S
C564 H560 0.949 . S
C564 C572 1.574 . S
C564 C580 1.368 . S
H565 C573 0.950 . S
H566 C571 0.950 . S
H567 C572 0.949 . S
H568 C574 0.950 . S
H569 C575 0.950 . S
H570 C576 0.949 . S
C571 H566 0.950 . S
C571 C573 1.327 . S
C571 C577 1.429 . S
C572 C564 1.574 . S
C572 H567 0.949 . S
C572 C578 1.368 . S
C573 C557 1.349 . S
C573 H565 0.950 . S
C573 C571 1.327 . S
C574 C562 1.349 . S
C574 H568 0.950 . S
C574 C575 1.327 . S
C575 H569 0.950 . S
C575 C574 1.327 . S
C575 C579 1.429 . S
C576 C559 1.574 . S
C576 H570 0.949 . S
C576 C580 1.368 . S
C577 C558 1.429 . S
C577 C571 1.429 . S
C577 C578 1.523 . S
C578 C559 1.368 . S
C578 C572 1.368 . S
C578 C577 1.523 . S
C579 C563 1.429 . S
C579 C575 1.429 . S
C579 C580 1.523 . S
C580 C564 1.368 . S
C580 C576 1.368 . S
C580 C579 1.523 . S
H581 C556 0.950 . S
H582 C558 0.950 . S
H583 C559 0.949 . S
H584 C561 0.950 . S
H585 C563 0.950 . S
C586 C587 1.349 . S
C586 C588 1.327 . S
C586 H611 0.950 . S
C587 C586 1.349 . S
C587 C603 1.349 . S
C588 C586 1.327 . S
C588 C607 1.429 . S
C588 H612 0.950 . S
C589 C606 1.574 . S
C589 C608 1.368 . S
C589 H613 0.949 . S
H590 C594 0.949 . S
C591 C592 1.349 . S
C591 C593 1.327 . S
C591 H614 0.950 . S
C592 C591 1.349 . S
C592 C604 1.349 . S
C593 C591 1.327 . S
C593 C609 1.429 . S
C593 H615 0.950 . S
C594 H590 0.949 . S
C594 C602 1.574 . S
C594 C610 1.368 . S
H595 C603 0.950 . S
H596 C601 0.950 . S
H597 C602 0.949 . S
H598 C604 0.950 . S
H599 C605 0.950 . S
H600 C606 0.949 . S
C601 H596 0.950 . S
C601 C603 1.327 . S
C601 C607 1.429 . S
C602 C594 1.574 . S
C602 H597 0.949 . S
C602 C608 1.368 . S
C603 C587 1.349 . S
C603 H595 0.950 . S
C603 C601 1.327 . S
C604 C592 1.349 . S
C604 H598 0.950 . S
C604 C605 1.327 . S
C605 H599 0.950 . S
C605 C604 1.327 . S
C605 C609 1.429 . S
C606 C589 1.574 . S
C606 H600 0.949 . S
C606 C610 1.368 . S
C607 C588 1.429 . S
C607 C601 1.429 . S
C607 C608 1.523 . S
C608 C589 1.368 . S
C608 C602 1.368 . S
C608 C607 1.523 . S
C609 C593 1.429 . S
C609 C605 1.429 . S
C609 C610 1.523 . S
C610 C594 1.368 . S
C610 C606 1.368 . S
C610 C609 1.523 . S
H611 C586 0.950 . S
H612 C588 0.950 . S
H613 C589 0.949 . S
H614 C591 0.950 . S
H615 C593 0.950 . S
C616 C617 1.349 . S
C616 C618 1.327 . S
C616 H641 0.950 . S
C617 C616 1.349 . S
C617 C633 1.349 . S
C618 C616 1.327 . S
C618 C637 1.429 . S
C618 H642 0.950 . S
C619 C636 1.574 . S
C619 C638 1.368 . S
C619 H643 0.949 . S
H620 C624 0.949 . S
C621 C622 1.349 . S
C621 C623 1.327 . S
C621 H644 0.950 . S
C622 C621 1.349 . S
C622 C634 1.349 . S
C623 C621 1.327 . S
C623 C639 1.429 . S
C623 H645 0.950 . S
C624 H620 0.949 . S
C624 C632 1.574 . S
C624 C640 1.368 . S
H625 C633 0.950 . S
H626 C631 0.950 . S
H627 C632 0.949 . S
H628 C634 0.950 . S
H629 C635 0.950 . S
H630 C636 0.949 . S
C631 H626 0.950 . S
C631 C633 1.327 . S
C631 C637 1.429 . S
C632 C624 1.574 . S
C632 H627 0.949 . S
C632 C638 1.368 . S
C633 C617 1.349 . S
C633 H625 0.950 . S
C633 C631 1.327 . S
C634 C622 1.349 . S
C634 H628 0.950 . S
C634 C635 1.327 . S
C635 H629 0.950 . S
C635 C634 1.327 . S
C635 C639 1.429 . S
C636 C619 1.574 . S
C636 H630 0.949 . S
C636 C640 1.368 . S
C637 C618 1.429 . S
C637 C631 1.429 . S
C637 C638 1.523 . S
C638 C619 1.368 . S
C638 C632 1.368 . S
C638 C637 1.523 . S
C639 C623 1.429 . S
C639 C635 1.429 . S
C639 C640 1.523 . S
C640 C624 1.368 . S
C640 C636 1.368 . S
C640 C639 1.523 . S
H641 C616 0.950 . S
H642 C618 0.950 . S
H643 C619 0.949 . S
H644 C621 0.950 . S
H645 C623 0.950 . S
C646 C647 1.349 . S
C646 C648 1.327 . S
C646 H671 0.950 . S
C647 C646 1.349 . S
C647 C663 1.349 . S
C648 C646 1.327 . S
C648 C667 1.429 . S
C648 H672 0.950 . S
C649 C666 1.574 . S
C649 C668 1.368 . S
C649 H673 0.949 . S
H650 C654 0.949 . S
C651 C652 1.349 . S
C651 C653 1.327 . S
C651 H674 0.950 . S
C652 C651 1.349 . S
C652 C664 1.349 . S
C653 C651 1.327 . S
C653 C669 1.429 . S
C653 H675 0.950 . S
C654 H650 0.949 . S
C654 C662 1.574 . S
C654 C670 1.368 . S
H655 C663 0.950 . S
H656 C661 0.950 . S
H657 C662 0.949 . S
H658 C664 0.950 . S
H659 C665 0.950 . S
H660 C666 0.949 . S
C661 H656 0.950 . S
C661 C663 1.327 . S
C661 C667 1.429 . S
C662 C654 1.574 . S
C662 H657 0.949 . S
C662 C668 1.368 . S
C663 C647 1.349 . S
C663 H655 0.950 . S
C663 C661 1.327 . S
C664 C652 1.349 . S
C664 H658 0.950 . S
C664 C665 1.327 . S
C665 H659 0.950 . S
C665 C664 1.327 . S
C665 C669 1.429 . S
C666 C649 1.574 . S
C666 H660 0.949 . S
C666 C670 1.368 . S
C667 C648 1.429 . S
C667 C661 1.429 . S
C667 C668 1.523 . S
C668 C649 1.368 . S
C668 C662 1.368 . S
C668 C667 1.523 . S
C669 C653 1.429 . S
C669 C665 1.429 . S
C669 C670 1.523 . S
C670 C654 1.368 . S
C670 C666 1.368 . S
C670 C669 1.523 . S
H671 C646 0.950 . S
H672 C648 0.950 . S
H673 C649 0.949 . S
H674 C651 0.950 . S
H675 C653 0.950 . S
C676 C677 1.349 . S
C676 C678 1.327 . S
C676 H701 0.950 . S
C677 C676 1.349 . S
C677 C693 1.349 . S
C678 C676 1.327 . S
C678 C697 1.429 . S
C678 H702 0.950 . S
C679 C696 1.574 . S
C679 C698 1.368 . S
C679 H703 0.949 . S
H680 C684 0.949 . S
C681 C682 1.349 . S
C681 C683 1.327 . S
C681 H704 0.950 . S
C682 C681 1.349 . S
C682 C694 1.349 . S
C683 C681 1.327 . S
C683 C699 1.429 . S
C683 H705 0.950 . S
C684 H680 0.949 . S
C684 C692 1.574 . S
C684 C700 1.368 . S
H685 C693 0.950 . S
H686 C691 0.950 . S
H687 C692 0.949 . S
H688 C694 0.950 . S
H689 C695 0.950 . S
H690 C696 0.949 . S
C691 H686 0.950 . S
C691 C693 1.327 . S
C691 C697 1.429 . S
C692 C684 1.574 . S
C692 H687 0.949 . S
C692 C698 1.368 . S
C693 C677 1.349 . S
C693 H685 0.950 . S
C693 C691 1.327 . S
C694 C682 1.349 . S
C694 H688 0.950 . S
C694 C695 1.327 . S
C695 H689 0.950 . S
C695 C694 1.327 . S
C695 C699 1.429 . S
C696 C679 1.574 . S
C696 H690 0.949 . S
C696 C700 1.368 . S
C697 C678 1.429 . S
C697 C691 1.429 . S
C697 C698 1.523 . S
C698 C679 1.368 . S
C698 C692 1.368 . S
C698 C697 1.523 . S
C699 C683 1.429 . S
C699 C695 1.429 . S
C699 C700 1.523 . S
C700 C684 1.368 . S
C700 C696 1.368 . S
C700 C699 1.523 . S
H701 C676 0.950 . S
H702 C678 0.950 . S
H703 C679 0.949 . S
H704 C681 0.950 . S
H705 C683 0.950 . S
C706 C707 1.349 . S
C706 C708 1.327 . S
C706 H731 0.950 . S
C707 C706 1.349 . S
C707 C723 1.349 . S
C708 C706 1.327 . S
C708 C727 1.429 . S
C708 H732 0.950 . S
C709 C726 1.574 . S
C709 C728 1.368 . S
C709 H733 0.949 . S
H710 C714 0.949 . S
C711 C712 1.349 . S
C711 C713 1.327 . S
C711 H734 0.950 . S
C712 C711 1.349 . S
C712 C724 1.349 . S
C713 C711 1.327 . S
C713 C729 1.429 . S
C713 H735 0.950 . S
C714 H710 0.949 . S
C714 C722 1.574 . S
C714 C730 1.368 . S
H715 C723 0.950 . S
H716 C721 0.950 . S
H717 C722 0.949 . S
H718 C724 0.950 . S
H719 C725 0.950 . S
H720 C726 0.949 . S
C721 H716 0.950 . S
C721 C723 1.327 . S
C721 C727 1.429 . S
C722 C714 1.574 . S
C722 H717 0.949 . S
C722 C728 1.368 . S
C723 C707 1.349 . S
C723 H715 0.950 . S
C723 C721 1.327 . S
C724 C712 1.349 . S
C724 H718 0.950 . S
C724 C725 1.327 . S
C725 H719 0.950 . S
C725 C724 1.327 . S
C725 C729 1.429 . S
C726 C709 1.574 . S
C726 H720 0.949 . S
C726 C730 1.368 . S
C727 C708 1.429 . S
C727 C721 1.429 . S
C727 C728 1.523 . S
C728 C709 1.368 . S
C728 C722 1.368 . S
C728 C727 1.523 . S
C729 C713 1.429 . S
C729 C725 1.429 . S
C729 C730 1.523 . S
C730 C714 1.368 . S
C730 C726 1.368 . S
C730 C729 1.523 . S
H731 C706 0.950 . S
H732 C708 0.950 . S
H733 C709 0.949 . S
H734 C711 0.950 . S
H735 C713 0.950 . S
C736 C737 1.349 . S
C736 C738 1.327 . S
C736 H761 0.950 . S
C737 C736 1.349 . S
C737 C753 1.349 . S
C738 C736 1.327 . S
C738 C757 1.429 . S
C738 H762 0.950 . S
C739 C756 1.574 . S
C739 C758 1.368 . S
C739 H763 0.949 . S
H740 C744 0.949 . S
C741 C742 1.349 . S
C741 C743 1.327 . S
C741 H764 0.950 . S
C742 C741 1.349 . S
C742 C754 1.349 . S
C743 C741 1.327 . S
C743 C759 1.429 . S
C743 H765 0.950 . S
C744 H740 0.949 . S
C744 C752 1.574 . S
C744 C760 1.368 . S
H745 C753 0.950 . S
H746 C751 0.950 . S
H747 C752 0.949 . S
H748 C754 0.950 . S
H749 C755 0.950 . S
H750 C756 0.949 . S
C751 H746 0.950 . S
C751 C753 1.327 . S
C751 C757 1.429 . S
C752 C744 1.574 . S
C752 H747 0.949 . S
C752 C758 1.368 . S
C753 C737 1.349 . S
C753 H745 0.950 . S
C753 C751 1.327 . S
C754 C742 1.349 . S
C754 H748 0.950 . S
C754 C755 1.327 . S
C755 H749 0.950 . S
C755 C754 1.327 . S
C755 C759 1.429 . S
C756 C739 1.574 . S
C756 H750 0.949 . S
C756 C760 1.368 . S
C757 C738 1.429 . S
C757 C751 1.429 . S
C757 C758 1.523 . S
C758 C739 1.368 . S
C758 C752 1.368 . S
C758 C757 1.523 . S
C759 C743 1.429 . S
C759 C755 1.429 . S
C759 C760 1.523 . S
C760 C744 1.368 . S
C760 C756 1.368 . S
C760 C759 1.523 . S
H761 C736 0.950 . S
H762 C738 0.950 . S
H763 C739 0.949 . S
H764 C741 0.950 . S
H765 C743 0.950 . S
C766 C767 1.349 . S
C766 C768 1.327 . S
C766 H791 0.950 . S
C767 C766 1.349 . S
C767 C783 1.349 . S
C768 C766 1.327 . S
C768 C787 1.429 . S
C768 H792 0.950 . S
C769 C786 1.574 . S
C769 C788 1.368 . S
C769 H793 0.949 . S
H770 C774 0.949 . S
C771 C772 1.349 . S
C771 C773 1.327 . S
C771 H794 0.950 . S
C772 C771 1.349 . S
C772 C784 1.349 . S
C773 C771 1.327 . S
C773 C789 1.429 . S
C773 H795 0.950 . S
C774 H770 0.949 . S
C774 C782 1.574 . S
C774 C790 1.368 . S
H775 C783 0.950 . S
H776 C781 0.950 . S
H777 C782 0.949 . S
H778 C784 0.950 . S
H779 C785 0.950 . S
H780 C786 0.949 . S
C781 H776 0.950 . S
C781 C783 1.327 . S
C781 C787 1.429 . S
C782 C774 1.574 . S
C782 H777 0.949 . S
C782 C788 1.368 . S
C783 C767 1.349 . S
C783 H775 0.950 . S
C783 C781 1.327 . S
C784 C772 1.349 . S
C784 H778 0.950 . S
C784 C785 1.327 . S
C785 H779 0.950 . S
C785 C784 1.327 . S
C785 C789 1.429 . S
C786 C769 1.574 . S
C786 H780 0.949 . S
C786 C790 1.368 . S
C787 C768 1.429 . S
C787 C781 1.429 . S
C787 C788 1.523 . S
C788 C769 1.368 . S
C788 C782 1.368 . S
C788 C787 1.523 . S
C789 C773 1.429 . S
C789 C785 1.429 . S
C789 C790 1.523 . S
C790 C774 1.368 . S
C790 C786 1.368 . S
C790 C789 1.523 . S
H791 C766 0.950 . S
H792 C768 0.950 . S
H793 C769 0.949 . S
H794 C771 0.950 . S
H795 C773 0.950 . S
C796 C797 1.349 . S
C796 C798 1.327 . S
C796 H821 0.950 . S
C797 C796 1.349 . S
C797 C813 1.349 . S
C798 C796 1.327 . S
C798 C817 1.429 . S
C798 H822 0.950 . S
C799 C816 1.574 . S
C799 C818 1.368 . S
C799 H823 0.949 . S
H800 C804 0.949 . S
C801 C802 1.349 . S
C801 C803 1.327 . S
C801 H824 0.950 . S
C802 C801 1.349 . S
C802 C814 1.349 . S
C803 C801 1.327 . S
C803 C819 1.429 . S
C803 H825 0.950 . S
C804 H800 0.949 . S
C804 C812 1.574 . S
C804 C820 1.368 . S
H805 C813 0.950 . S
H806 C811 0.950 . S
H807 C812 0.949 . S
H808 C814 0.950 . S
H809 C815 0.950 . S
H810 C816 0.949 . S
C811 H806 0.950 . S
C811 C813 1.327 . S
C811 C817 1.429 . S
C812 C804 1.574 . S
C812 H807 0.949 . S
C812 C818 1.368 . S
C813 C797 1.349 . S
C813 H805 0.950 . S
C813 C811 1.327 . S
C814 C802 1.349 . S
C814 H808 0.950 . S
C814 C815 1.327 . S
C815 H809 0.950 . S
C815 C814 1.327 . S
C815 C819 1.429 . S
C816 C799 1.574 . S
C816 H810 0.949 . S
C816 C820 1.368 . S
C817 C798 1.429 . S
C817 C811 1.429 . S
C817 C818 1.523 . S
C818 C799 1.368 . S
C818 C812 1.368 . S
C818 C817 1.523 . S
C819 C803 1.429 . S
C819 C815 1.429 . S
C819 C820 1.523 . S
C820 C804 1.368 . S
C820 C816 1.368 . S
C820 C819 1.523 . S
H821 C796 0.950 . S
H822 C798 0.950 . S
H823 C799 0.949 . S
H824 C801 0.950 . S
H825 C803 0.950 . S
C826 C827 1.349 . S
C826 C828 1.327 . S
C826 H851 0.950 . S
C827 C826 1.349 . S
C827 C843 1.349 . S
C828 C826 1.327 . S
C828 C847 1.429 . S
C828 H852 0.950 . S
C829 C846 1.574 . S
C829 C848 1.368 . S
C829 H853 0.949 . S
H830 C834 0.949 . S
C831 C832 1.349 . S
C831 C833 1.327 . S
C831 H854 0.950 . S
C832 C831 1.349 . S
C832 C844 1.349 . S
C833 C831 1.327 . S
C833 C849 1.429 . S
C833 H855 0.950 . S
C834 H830 0.949 . S
C834 C842 1.574 . S
C834 C850 1.368 . S
H835 C843 0.950 . S
H836 C841 0.950 . S
H837 C842 0.949 . S
H838 C844 0.950 . S
H839 C845 0.950 . S
H840 C846 0.949 . S
C841 H836 0.950 . S
C841 C843 1.327 . S
C841 C847 1.429 . S
C842 C834 1.574 . S
C842 H837 0.949 . S
C842 C848 1.368 . S
C843 C827 1.349 . S
C843 H835 0.950 . S
C843 C841 1.327 . S
C844 C832 1.349 . S
C844 H838 0.950 . S
C844 C845 1.327 . S
C845 H839 0.950 . S
C845 C844 1.327 . S
C845 C849 1.429 . S
C846 C829 1.574 . S
C846 H840 0.949 . S
C846 C850 1.368 . S
C847 C828 1.429 . S
C847 C841 1.429 . S
C847 C848 1.523 . S
C848 C829 1.368 . S
C848 C842 1.368 . S
C848 C847 1.523 . S
C849 C833 1.429 . S
C849 C845 1.429 . S
C849 C850 1.523 . S
C850 C834 1.368 . S
C850 C846 1.368 . S
C850 C849 1.523 . S
H851 C826 0.950 . S
H852 C828 0.950 . S
H853 C829 0.949 . S
H854 C831 0.950 . S
H855 C833 0.950 . S
C856 C857 1.349 . S
C856 C858 1.327 . S
C856 H881 0.950 . S
C857 C856 1.349 . S
C857 C873 1.349 . S
C858 C856 1.327 . S
C858 C877 1.429 . S
C858 H882 0.950 . S
C859 C876 1.574 . S
C859 C878 1.368 . S
C859 H883 0.949 . S
H860 C864 0.949 . S
C861 C862 1.349 . S
C861 C863 1.327 . S
C861 H884 0.950 . S
C862 C861 1.349 . S
C862 C874 1.349 . S
C863 C861 1.327 . S
C863 C879 1.429 . S
C863 H885 0.950 . S
C864 H860 0.949 . S
C864 C872 1.574 . S
C864 C880 1.368 . S
H865 C873 0.950 . S
H866 C871 0.950 . S
H867 C872 0.949 . S
H868 C874 0.950 . S
H869 C875 0.950 . S
H870 C876 0.949 . S
C871 H866 0.950 . S
C871 C873 1.327 . S
C871 C877 1.429 . S
C872 C864 1.574 . S
C872 H867 0.949 . S
C872 C878 1.368 . S
C873 C857 1.349 . S
C873 H865 0.950 . S
C873 C871 1.327 . S
C874 C862 1.349 . S
C874 H868 0.950 . S
C874 C875 1.327 . S
C875 H869 0.950 . S
C875 C874 1.327 . S
C875 C879 1.429 . S
C876 C859 1.574 . S
C876 H870 0.949 . S
C876 C880 1.368 . S
C877 C858 1.429 . S
C877 C871 1.429 . S
C877 C878 1.523 . S
C878 C859 1.368 . S
C878 C872 1.368 . S
C878 C877 1.523 . S
C879 C863 1.429 . S
C879 C875 1.429 . S
C879 C880 1.523 . S
C880 C864 1.368 . S
C880 C876 1.368 . S
C880 C879 1.523 . S
H881 C856 0.950 . S
H882 C858 0.950 . S
H883 C859 0.949 . S
H884 C861 0.950 . S
H885 C863 0.950 . S
C886 C887 1.349 . S
C886 C888 1.327 . S
C886 H911 0.950 . S
C887 C886 1.349 . S
C887 C903 1.349 . S
C888 C886 1.327 . S
C888 C907 1.429 . S
C888 H912 0.950 . S
C889 C906 1.574 . S
C889 C908 1.368 . S
C889 H913 0.949 . S
H890 C894 0.949 . S
C891 C892 1.349 . S
C891 C893 1.327 . S
C891 H914 0.950 . S
C892 C891 1.349 . S
C892 C904 1.349 . S
C893 C891 1.327 . S
C893 C909 1.429 . S
C893 H915 0.950 . S
C894 H890 0.949 . S
C894 C902 1.574 . S
C894 C910 1.368 . S
H895 C903 0.950 . S
H896 C901 0.950 . S
H897 C902 0.949 . S
H898 C904 0.950 . S
H899 C905 0.950 . S
H900 C906 0.949 . S
C901 H896 0.950 . S
C901 C903 1.327 . S
C901 C907 1.429 . S
C902 C894 1.574 . S
C902 H897 0.949 . S
C902 C908 1.368 . S
C903 C887 1.349 . S
C903 H895 0.950 . S
C903 C901 1.327 . S
C904 C892 1.349 . S
C904 H898 0.950 . S
C904 C905 1.327 . S
C905 H899 0.950 . S
C905 C904 1.327 . S
C905 C909 1.429 . S
C906 C889 1.574 . S
C906 H900 0.949 . S
C906 C910 1.368 . S
C907 C888 1.429 . S
C907 C901 1.429 . S
C907 C908 1.523 . S
C908 C889 1.368 . S
C908 C902 1.368 . S
C908 C907 1.523 . S
C909 C893 1.429 . S
C909 C905 1.429 . S
C909 C910 1.523 . S
C910 C894 1.368 . S
C910 C906 1.368 . S
C910 C909 1.523 . S
H911 C886 0.950 . S
H912 C888 0.950 . S
H913 C889 0.949 . S
H914 C891 0.950 . S
H915 C893 0.950 . S
C916 C917 1.349 . S
C916 C918 1.327 . S
C916 H941 0.950 . S
C917 C916 1.349 . S
C917 C933 1.349 . S
C918 C916 1.327 . S
C918 C937 1.429 . S
C918 H942 0.950 . S
C919 C936 1.574 . S
C919 C938 1.368 . S
C919 H943 0.949 . S
H920 C924 0.949 . S
C921 C922 1.349 . S
C921 C923 1.327 . S
C921 H944 0.950 . S
C922 C921 1.349 . S
C922 C934 1.349 . S
C923 C921 1.327 . S
C923 C939 1.429 . S
C923 H945 0.950 . S
C924 H920 0.949 . S
C924 C932 1.574 . S
C924 C940 1.368 . S
H925 C933 0.950 . S
H926 C931 0.950 . S
H927 C932 0.949 . S
H928 C934 0.950 . S
H929 C935 0.950 . S
H930 C936 0.949 . S
C931 H926 0.950 . S
C931 C933 1.327 . S
C931 C937 1.429 . S
C932 C924 1.574 . S
C932 H927 0.949 . S
C932 C938 1.368 . S
C933 C917 1.349 . S
C933 H925 0.950 . S
C933 C931 1.327 . S
C934 C922 1.349 . S
C934 H928 0.950 . S
C934 C935 1.327 . S
C935 H929 0.950 . S
C935 C934 1.327 . S
C935 C939 1.429 . S
C936 C919 1.574 . S
C936 H930 0.949 . S
C936 C940 1.368 . S
C937 C918 1.429 . S
C937 C931 1.429 . S
C937 C938 1.523 . S
C938 C919 1.368 . S
C938 C932 1.368 . S
C938 C937 1.523 . S
C939 C923 1.429 . S
C939 C935 1.429 . S
C939 C940 1.523 . S
C940 C924 1.368 . S
C940 C936 1.368 . S
C940 C939 1.523 . S
H941 C916 0.950 . S
H942 C918 0.950 . S
H943 C919 0.949 . S
H944 C921 0.950 . S
H945 C923 0.950 . S
C946 C947 1.349 . S
C946 C948 1.327 . S
C946 H971 0.950 . S
C947 C946 1.349 . S
C947 C963 1.349 . S
C948 C946 1.327 . S
C948 C967 1.429 . S
C948 H972 0.950 . S
C949 C966 1.574 . S
C949 C968 1.368 . S
C949 H973 0.949 . S
H950 C954 0.949 . S
C951 C952 1.349 . S
C951 C953 1.327 . S
C951 H974 0.950 . S
C952 C951 1.349 . S
C952 C964 1.349 . S
C953 C951 1.327 . S
C953 C969 1.429 . S
C953 H975 0.950 . S
C954 H950 0.949 . S
C954 C962 1.574 . S
C954 C970 1.368 . S
H955 C963 0.950 . S
H956 C961 0.950 . S
H957 C962 0.949 . S
H958 C964 0.950 . S
H959 C965 0.950 . S
H960 C966 0.949 . S
C961 H956 0.950 . S
C961 C963 1.327 . S
C961 C967 1.429 . S
C962 C954 1.574 . S
C962 H957 0.949 . S
C962 C968 1.368 . S
C963 C947 1.349 . S
C963 H955 0.950 . S
C963 C961 1.327 . S
C964 C952 1.349 . S
C964 H958 0.950 . S
C964 C965 1.327 . S
C965 H959 0.950 . S
C965 C964 1.327 . S
C965 C969 1.429 . S
C966 C949 1.574 . S
C966 H960 0.949 . S
C966 C970 1.368 . S
C967 C948 1.429 . S
C967 C961 1.429 . S
C967 C968 1.523 . S
C968 C949 1.368 . S
C968 C962 1.368 . S
C968 C967 1.523 . S
C969 C953 1.429 . S
C969 C965 1.429 . S
C969 C970 1.523 . S
C970 C954 1.368 . S
C970 C966 1.368 . S
C970 C969 1.523 . S
H971 C946 0.950 . S
H972 C948 0.950 . S
H973 C949 0.949 . S
H974 C951 0.950 . S
H975 C953 0.950 . S
C257 C6 1.086 . S
C262 C103 1.110 . S
C287 C18 1.294 . S
C292 C152 1.282 . S
C322 C178 2.565 . S
C317 C28 2.599 . S
C347 C40 1.612 . S
C352 C226 1.578 . S
C382 C138 2.497 . S
C377 C9 2.419 . S
C412 C106 0.886 . S
C407 C16 0.902 . S
C442 C227 1.839 . S
C437 C30 1.865 . S
C472 C195 1.126 . S
C467 C42 1.144 . S
C497 C4 1.527 . S
C502 C223 1.550 . S
C532 C155 2.519 . S
C527 C33 2.584 . S
C557 C45 2.043 . S
C562 C107 2.031 . S
C587 C21 0.951 . S
C592 C192 0.962 . S
C622 C112 1.128 . S
C617 C57 1.113 . S
C647 C66 1.310 . S
C652 C143 1.293 . S
C677 C76 2.652 . S
C682 C187 2.613 . S
C707 C88 1.537 . S
C712 C235 1.509 . S
C737 C54 2.400 . S
C742 C147 2.474 . S
C772 C115 0.997 . S
C767 C64 1.021 . S
C802 C218 1.730 . S
C797 C78 1.764 . S
C832 C186 1.161 . S
C827 C93 1.180 . S
C857 C52 1.482 . S
C862 C232 1.536 . S
C892 C146 2.504 . S
C887 C81 2.572 . S
C922 C98 2.005 . S
C917 C90 2.016 . S
C947 C69 0.965 . S
C952 C183 0.980 . S
