# Generated by pormake.
# Topology csq, (4,8)-cn, num edge types: 1
# Building blocks:
#     Node 0, Type 0, BuildingBlock: NAWXER_clean_linker_0, # of connection points: 4
#     Node 1, Type 0, BuildingBlock: NAWXER_clean_linker_0, # of connection points: 4
#     Node 2, Type 0, BuildingBlock: NAWXER_clean_linker_0, # of connection points: 4
#     Node 3, Type 0, BuildingBlock: NAWXER_clean_linker_0, # of connection points: 4
#     Node 4, Type 0, BuildingBlock: NAWXER_clean_linker_0, # of connection points: 4
#     Node 5, Type 0, BuildingBlock: NAWXER_clean_linker_0, # of connection points: 4
#     Node 6, Type 1, BuildingBlock: TAGTUT_clean_sbu_3, # of connection points: 8
#     Node 7, Type 1, BuildingBlock: TAGTUT_clean_sbu_3, # of connection points: 8
#     Node 8, Type 1, BuildingBlock: TAGTUT_clean_sbu_3, # of connection points: 8
#     Edge 9, Type (0, 1), BuildingBlock: EZIPEK_clean_linker_0, # of connection points: 2
#     Edge 10, Type (0, 1), BuildingBlock: EZIPEK_clean_linker_0, # of connection points: 2
#     Edge 11, Type (0, 1), BuildingBlock: EZIPEK_clean_linker_0, # of connection points: 2
#     Edge 12, Type (0, 1), BuildingBlock: EZIPEK_clean_linker_0, # of connection points: 2
#     Edge 13, Type (0, 1), BuildingBlock: EZIPEK_clean_linker_0, # of connection points: 2
#     Edge 14, Type (0, 1), BuildingBlock: EZIPEK_clean_linker_0, # of connection points: 2
#     Edge 15, Type (0, 1), BuildingBlock: EZIPEK_clean_linker_0, # of connection points: 2
#     Edge 16, Type (0, 1), BuildingBlock: EZIPEK_clean_linker_0, # of connection points: 2
#     Edge 17, Type (0, 1), BuildingBlock: EZIPEK_clean_linker_0, # of connection points: 2
#     Edge 18, Type (0, 1), BuildingBlock: EZIPEK_clean_linker_0, # of connection points: 2
#     Edge 19, Type (0, 1), BuildingBlock: EZIPEK_clean_linker_0, # of connection points: 2
#     Edge 20, Type (0, 1), BuildingBlock: EZIPEK_clean_linker_0, # of connection points: 2
#     Edge 21, Type (0, 1), BuildingBlock: EZIPEK_clean_linker_0, # of connection points: 2
#     Edge 22, Type (0, 1), BuildingBlock: EZIPEK_clean_linker_0, # of connection points: 2
#     Edge 23, Type (0, 1), BuildingBlock: EZIPEK_clean_linker_0, # of connection points: 2
#     Edge 24, Type (0, 1), BuildingBlock: EZIPEK_clean_linker_0, # of connection points: 2
#     Edge 25, Type (0, 1), BuildingBlock: EZIPEK_clean_linker_0, # of connection points: 2
#     Edge 26, Type (0, 1), BuildingBlock: EZIPEK_clean_linker_0, # of connection points: 2
#     Edge 27, Type (0, 1), BuildingBlock: EZIPEK_clean_linker_0, # of connection points: 2
#     Edge 28, Type (0, 1), BuildingBlock: EZIPEK_clean_linker_0, # of connection points: 2
#     Edge 29, Type (0, 1), BuildingBlock: EZIPEK_clean_linker_0, # of connection points: 2
#     Edge 30, Type (0, 1), BuildingBlock: EZIPEK_clean_linker_0, # of connection points: 2
#     Edge 31, Type (0, 1), BuildingBlock: EZIPEK_clean_linker_0, # of connection points: 2
#     Edge 32, Type (0, 1), BuildingBlock: EZIPEK_clean_linker_0, # of connection points: 2
# Relax obj value: 0.028
# Max RMSD: 0.107
# Mean RMSD: 0.039
data_MOF--net-csq--node1-TAGTUT_clean_sbu_3--node2-NAWXER_clean_linker_0--edge1-EZIPEK_clean_linker_0
_symmetry_space_group_name_H-M    P1
_symmetry_Int_Tables_number       1
_symmetry_cell_setting            triclinic
loop_
_symmetry_equiv_pos_as_xyz
'x, y, z'
_cell_length_a     49.351842
_cell_length_b     48.361592
_cell_length_c     17.327686
_cell_angle_alpha  92.483905
_cell_angle_beta   93.090203
_cell_angle_gamma 119.87505
loop_
_atom_site_label
_atom_site_type_symbol
_atom_site_fract_x
_atom_site_fract_y
_atom_site_fract_z
_atom_type_partial_charge
C0 C 0.35883 0.53809 0.08306 0.0
C1 C 0.35499 0.51741 0.01881 0.0
C2 C 0.33255 0.53532 0.11682 0.0
C3 C 0.30215 0.51109 0.08839 0.0
C4 C 0.32461 0.49525 0.98613 0.0
C5 C 0.29839 0.49216 0.02051 0.0
C6 C 0.27468 0.50304 0.13331 0.0
C7 C 0.33849 0.48084 0.26996 0.0
C8 C 0.34733 0.49398 0.34687 0.0
C9 C 0.3143 0.48186 0.22803 0.0
C10 C 0.30065 0.49886 0.25948 0.0
C11 C 0.33202 0.50871 0.38082 0.0
C12 C 0.30925 0.5117 0.33689 0.0
C13 C 0.27545 0.50071 0.21436 0.0
C14 C 0.14333 0.46723 0.28854 0.0
C15 C 0.15243 0.48744 0.35709 0.0
C16 C 0.1658 0.46718 0.24297 0.0
C17 C 0.19797 0.48903 0.26162 0.0
C18 C 0.18451 0.50805 0.3783 0.0
C19 C 0.20693 0.5092 0.33052 0.0
C20 C 0.22306 0.49098 0.21358 0.0
C21 C 0.14755 0.47666 0.02307 0.0
C22 C 0.13342 0.44426 0.99607 0.0
C23 C 0.17637 0.4915 0.06725 0.0
C24 C 0.19118 0.47395 0.08393 0.0
C25 C 0.14807 0.42664 0.01382 0.0
C26 C 0.17717 0.44163 0.05646 0.0
C27 C 0.22092 0.48833 0.13153 0.0
H28 H 0.38209 0.55536 0.10892 0.0
H29 H 0.33603 0.55077 0.16803 0.0
H30 H 0.32125 0.47916 0.93638 0.0
H31 H 0.27527 0.47352 0.99699 0.0
H32 H 0.34968 0.4689 0.24324 0.0
H33 H 0.3064 0.46926 0.171 0.0
H34 H 0.33822 0.5185 0.44072 0.0
H35 H 0.29832 0.52393 0.36344 0.0
H36 H 0.11873 0.45058 0.27173 0.0
H37 H 0.15755 0.44924 0.19498 0.0
H38 H 0.19221 0.52342 0.43168 0.0
H39 H 0.23146 0.52597 0.3478 0.0
H40 H 0.1363 0.49042 0.00946 0.0
H41 H 0.18704 0.51642 0.0884 0.0
H42 H 0.13732 0.40165 0.99316 0.0
H43 H 0.18852 0.42791 0.06946 0.0
N44 N 0.24689 0.49524 0.09459 0.0
N45 N 0.25024 0.49634 0.25151 0.0
C46 C 0.65067 0.1712 0.21513 0.0
C47 C 0.65893 0.15369 0.26372 0.0
C48 C 0.67399 0.19815 0.18442 0.0
C49 C 0.70565 0.20722 0.20071 0.0
C50 C 0.69057 0.16409 0.28457 0.0
C51 C 0.71391 0.1909 0.25342 0.0
C52 C 0.72988 0.2313 0.15681 0.0
C53 C 0.66691 0.14429 9e-05 0.0
C54 C 0.65524 0.14888 0.92915 0.0
C55 C 0.69148 0.17013 0.045 0.0
C56 C 0.70273 0.20167 0.02451 0.0
C57 C 0.66824 0.18007 0.90513 0.0
C58 C 0.69126 0.20623 0.95304 0.0
C59 C 0.72742 0.2298 0.0748 0.0
C60 C 0.8487 0.32888 0.98382 0.0
C61 C 0.84095 0.34871 0.94252 0.0
C62 C 0.82749 0.30699 0.03068 0.0
C63 C 0.79816 0.30447 0.03599 0.0
C64 C 0.81162 0.34627 0.94814 0.0
C65 C 0.7901 0.32383 0.99379 0.0
C66 C 0.77494 0.27988 0.08054 0.0
C67 C 0.84573 0.35902 0.25531 0.0
C68 C 0.85969 0.34834 0.31017 0.0
C69 C 0.81953 0.33697 0.20624 0.0
C70 C 0.80711 0.30393 0.21114 0.0
C71 C 0.84713 0.31545 0.31582 0.0
C72 C 0.82098 0.29345 0.26697 0.0
C73 C 0.77884 0.27981 0.16188 0.0
H74 H 0.62624 0.16354 0.19967 0.0
H75 H 0.66733 0.21089 0.14478 0.0
H76 H 0.6971 0.15088 0.32299 0.0
H77 H 0.73826 0.19778 0.2669 0.0
H78 H 0.65767 0.12049 0.01955 0.0
H79 H 0.70148 0.16514 0.09582 0.0
H80 H 0.66009 0.18422 0.8499 0.0
H81 H 0.70004 0.23007 0.93417 0.0
H82 H 0.87139 0.3307 0.98049 0.0
H83 H 0.83377 0.2918 0.06199 0.0
H84 H 0.80551 0.36171 0.9174 0.0
H85 H 0.7673 0.32176 0.9969 0.0
H86 H 0.85517 0.38439 0.25046 0.0
H87 H 0.80877 0.34576 0.1655 0.0
H88 H 0.85768 0.30686 0.35779 0.0
H89 H 0.8117 0.26813 0.27235 0.0
N90 N 0.75582 0.25563 0.19697 0.0
N91 N 0.74973 0.25473 0.04007 0.0
C92 C 0.57434 0.7151 0.87466 0.0
C93 C 0.55197 0.68472 0.84062 0.0
C94 C 0.56546 0.73112 0.9273 0.0
C95 C 0.53404 0.7174 0.94398 0.0
C96 C 0.52033 0.67168 0.85518 0.0
C97 C 0.51132 0.68833 0.90514 0.0
C98 C 0.52495 0.73551 0.99544 0.0
C99 C 0.50688 0.65043 0.13382 0.0
C100 C 0.52639 0.65888 0.20304 0.0
C101 C 0.50618 0.6741 0.09133 0.0
C102 C 0.52584 0.70671 0.11554 0.0
C103 C 0.54575 0.6914 0.22784 0.0
C104 C 0.54553 0.71503 0.18449 0.0
C105 C 0.52349 0.73218 0.0757 0.0
C106 C 0.49747 0.83379 0.20086 0.0
C107 C 0.51986 0.84481 0.26506 0.0
C108 C 0.49712 0.81258 0.14273 0.0
C109 C 0.5195 0.80274 0.1482 0.0
C110 C 0.54162 0.83437 0.27132 0.0
C111 C 0.54143 0.81349 0.21338 0.0
C112 C 0.51936 0.77929 0.09103 0.0
C113 C 0.53371 0.86282 0.94997 0.0
C114 C 0.51484 0.85361 0.8794 0.0
C115 C 0.53522 0.83976 0.99368 0.0
C116 C 0.51723 0.80703 0.96842 0.0
C117 C 0.49773 0.82112 0.85303 0.0
C118 C 0.49882 0.79815 0.89712 0.0
C119 C 0.51939 0.78175 0.00982 0.0
H120 H 0.59867 0.7258 0.86236 0.0
H121 H 0.58303 0.75429 0.95473 0.0
H122 H 0.50264 0.64852 0.82796 0.0
H123 H 0.48672 0.67843 0.91392 0.0
H124 H 0.49155 0.62547 0.11395 0.0
H125 H 0.48923 0.66669 0.04173 0.0
H126 H 0.56095 0.69847 0.28111 0.0
H127 H 0.56049 0.73992 0.20549 0.0
H128 H 0.48065 0.84193 0.19543 0.0
H129 H 0.47947 0.80385 0.09403 0.0
H130 H 0.55915 0.84293 0.32031 0.0
H131 H 0.55868 0.8059 0.21917 0.0
H132 H 0.54722 0.88782 0.97115 0.0
H133 H 0.55079 0.84765 0.04635 0.0
H134 H 0.48305 0.8135 0.79881 0.0
H135 H 0.48512 0.77322 0.87531 0.0
N136 N 0.52256 0.75978 0.96574 0.0
N137 N 0.52118 0.75454 0.12013 0.0
C138 C 0.86473 0.54416 0.8879 0.0
C139 C 0.85807 0.51577 0.84571 0.0
C140 C 0.84223 0.54505 0.93166 0.0
C141 C 0.81272 0.51754 0.93399 0.0
C142 C 0.82809 0.48862 0.84507 0.0
C143 C 0.80539 0.4896 0.88842 0.0
C144 C 0.79149 0.517 0.99175 0.0
C145 C 0.86624 0.50531 0.10815 0.0
C146 C 0.88652 0.53076 0.16181 0.0
C147 C 0.83804 0.50256 0.0803 0.0
C148 C 0.83064 0.52613 0.10265 0.0
C149 C 0.87926 0.55434 0.18447 0.0
C150 C 0.85138 0.55205 0.1548 0.0
C151 C 0.80115 0.52351 0.0717 0.0
C152 C 0.68389 0.5063 0.2082 0.0
C153 C 0.69607 0.5349 0.25547 0.0
C154 C 0.70288 0.50153 0.15881 0.0
C155 C 0.73427 0.52549 0.15517 0.0
C156 C 0.72776 0.55835 0.25448 0.0
C157 C 0.7468 0.55359 0.20484 0.0
C158 C 0.75366 0.52182 0.09765 0.0
C159 C 0.68523 0.53753 0.94982 0.0
C160 C 0.66169 0.50873 0.91106 0.0
C161 C 0.71147 0.53889 0.98762 0.0
C162 C 0.71442 0.51153 0.98609 0.0
C163 C 0.66377 0.48089 0.91352 0.0
C164 C 0.6904 0.48244 0.94989 0.0
C165 C 0.74354 0.51399 0.01802 0.0
H166 H 0.88766 0.56537 0.88857 0.0
H167 H 0.84828 0.56686 0.96632 0.0
H168 H 0.82257 0.46655 0.81248 0.0
H169 H 0.78282 0.46812 0.8899 0.0
H170 H 0.87146 0.48673 0.09146 0.0
H171 H 0.8218 0.48173 0.04231 0.0
H172 H 0.89474 0.57392 0.22667 0.0
H173 H 0.84591 0.57033 0.17279 0.0
H174 H 0.65951 0.48793 0.20861 0.0
H175 H 0.6929 0.47932 0.12253 0.0
H176 H 0.73747 0.58056 0.2907 0.0
H177 H 0.77098 0.57229 0.20326 0.0
H178 H 0.68383 0.55916 0.94819 0.0
H179 H 0.73001 0.5615 0.01536 0.0
H180 H 0.64563 0.45854 0.88374 0.0
H181 H 0.69256 0.4612 0.9487 0.0
N182 N 0.76277 0.51206 0.96753 0.0
N183 N 0.78224 0.52625 0.12192 0.0
C184 C 0.28561 0.90246 0.01738 0.0
C185 C 0.28883 0.89349 0.94194 0.0
C186 C 0.2635 0.87976 0.06153 0.0
C187 C 0.24561 0.84751 0.03205 0.0
C188 C 0.26803 0.86244 0.90885 0.0
C189 C 0.24687 0.83953 0.95381 0.0
C190 C 0.22637 0.82156 0.08143 0.0
C191 C 0.32155 0.86586 0.21821 0.0
C192 C 0.32279 0.87985 0.2919 0.0
C193 C 0.29292 0.84825 0.17342 0.0
C194 C 0.26523 0.84447 0.20188 0.0
C195 C 0.29523 0.87641 0.31995 0.0
C196 C 0.26659 0.8586 0.27548 0.0
C197 C 0.23449 0.8217 0.16088 0.0
C198 C 0.14819 0.68992 0.25325 0.0
C199 C 0.14371 0.69964 0.32673 0.0
C200 C 0.16266 0.71244 0.19917 0.0
C201 C 0.17138 0.74465 0.21675 0.0
C202 C 0.15364 0.73194 0.34526 0.0
C203 C 0.16681 0.75405 0.2905 0.0
C204 C 0.1893 0.77014 0.16549 0.0
C205 C 0.10999 0.69169 0.00176 0.0
C206 C 0.123 0.68152 0.94453 0.0
C207 C 0.12896 0.72046 0.04758 0.0
C208 C 0.16095 0.73904 0.03622 0.0
C209 C 0.15458 0.70074 0.93162 0.0
C210 C 0.17332 0.72928 0.97674 0.0
C211 C 0.18269 0.76865 0.08455 0.0
H212 H 0.3012 0.92652 0.04331 0.0
H213 H 0.26153 0.88726 0.11967 0.0
H214 H 0.27005 0.85528 0.85029 0.0
H215 H 0.23282 0.81515 0.92835 0.0
H216 H 0.34265 0.86823 0.19602 0.0
H217 H 0.29222 0.83668 0.1178 0.0
H218 H 0.29588 0.88707 0.37683 0.0
H219 H 0.24538 0.85534 0.29904 0.0
H220 H 0.14095 0.66507 0.23836 0.0
H221 H 0.16763 0.7047 0.14494 0.0
H222 H 0.15061 0.73993 0.40188 0.0
H223 H 0.17395 0.77882 0.30639 0.0
H224 H 0.08556 0.67697 0.01221 0.0
H225 H 0.11892 0.72787 0.09246 0.0
H226 H 0.16492 0.69321 0.88774 0.0
H227 H 0.19789 0.74334 0.96666 0.0
N228 N 0.20115 0.79468 0.04647 0.0
N229 N 0.2151 0.79657 0.19978 0.0
C230 C 0.50715 0.18994 0.00767 0.0
C231 C 0.4888 0.15663 0.99427 0.0
C232 C 0.49682 0.20659 0.05365 0.0
C233 C 0.46847 0.19002 0.08806 0.0
C234 C 0.4606 0.13997 0.02915 0.0
C235 C 0.45046 0.15659 0.07601 0.0
C236 C 0.4573 0.20819 0.13297 0.0
C237 C 0.43327 0.14207 0.35776 0.0
C238 C 0.45981 0.13857 0.35702 0.0
C239 C 0.42951 0.16216 0.30803 0.0
C240 C 0.45229 0.17932 0.25689 0.0
C241 C 0.48296 0.15613 0.30733 0.0
C242 C 0.47945 0.17665 0.25846 0.0
C243 C 0.44879 0.20245 0.20941 0.0
C244 C 0.42182 0.31049 0.28985 0.0
C245 C 0.43332 0.31381 0.36754 0.0
C246 C 0.42032 0.28645 0.23872 0.0
C247 C 0.43173 0.26662 0.26441 0.0
C248 C 0.44008 0.29115 0.39568 0.0
C249 C 0.43956 0.26797 0.34463 0.0
C250 C 0.43763 0.24541 0.21165 0.0
C251 C 0.47508 0.33297 0.0605 0.0
C252 C 0.45491 0.32536 0.99259 0.0
C253 C 0.47152 0.30908 0.10897 0.0
C254 C 0.44773 0.27722 0.09028 0.0
C255 C 0.43097 0.29352 0.97446 0.0
C256 C 0.42767 0.26963 0.02237 0.0
C257 C 0.44631 0.25108 0.13452 0.0
H258 H 0.52901 0.20298 0.98113 0.0
H259 H 0.51094 0.23242 0.06238 0.0
H260 H 0.44629 0.11419 0.01911 0.0
H261 H 0.42835 0.14351 0.10143 0.0
H262 H 0.41519 0.12877 0.39584 0.0
H263 H 0.40869 0.16427 0.30951 0.0
H264 H 0.50373 0.15391 0.30637 0.0
H265 H 0.49831 0.19079 0.22321 0.0
H266 H 0.4161 0.32775 0.26776 0.0
H267 H 0.41145 0.28452 0.17923 0.0
H268 H 0.44891 0.29344 0.45564 0.0
H269 H 0.44762 0.25266 0.368 0.0
H270 H 0.49362 0.3574 0.07577 0.0
H271 H 0.48769 0.31533 0.16011 0.0
H272 H 0.41505 0.28714 0.92276 0.0
H273 H 0.40957 0.24509 0.00608 0.0
N274 N 0.45555 0.23203 0.09861 0.0
N275 N 0.43901 0.22105 0.24456 0.0
C276 C 0.05529 0.47902 0.54952 0.0
C277 C 0.03182 0.43401 0.81689 0.0
C278 C 0.94495 0.43454 0.77912 0.0
Mg279 Mg 0.02964 0.51968 0.4571 0.0
Mg280 Mg 0.00023 0.56074 0.54281 0.0
O281 O 0.00364 0.52445 0.536 0.0
Mg282 Mg 0.01167 0.50404 0.62391 0.0
O283 O 0.02002 0.48068 0.7039 0.0
Mg284 Mg -0.00422 0.43624 0.65216 0.0
Mg285 Mg 0.01224 0.48565 0.80537 0.0
C286 C 0.96125 0.52631 0.68246 0.0
O287 O 0.04777 0.55143 0.70001 0.0
O288 O 0.00406 0.53313 0.36506 0.0
O289 O 0.03964 0.53664 0.8216 0.0
O290 O 0.06762 0.57412 0.47895 0.0
O291 O 0.97908 0.55423 0.42878 0.0
O292 O 0.04662 0.59888 0.54325 0.0
O293 O 0.976 0.45587 0.55823 0.0
O294 O 0.98937 0.46824 0.43796 0.0
C295 C 0.97174 0.44855 0.48469 0.0
C296 C 0.98516 0.54401 0.36658 0.0
O297 O 0.97209 0.50702 0.6842 0.0
O298 O 0.01874 0.42174 0.74866 0.0
O299 O 0.97075 0.5494 0.63814 0.0
O300 O 0.95314 0.42148 0.72633 0.0
O301 O 0.03146 0.45795 0.85029 0.0
O302 O 0.96321 0.46284 0.80908 0.0
O303 O 0.04947 0.50212 0.55592 0.0
O304 O 0.0395 0.45367 0.5845 0.0
C305 C 0.06943 0.59967 0.51032 0.0
C306 C 0.05379 0.55791 0.77418 0.0
C307 C 0.48095 0.04625 0.50372 0.0
C308 C 0.57132 0.04035 0.39733 0.0
C309 C 0.52766 0.94442 0.47091 0.0
Mg310 Mg 0.44098 0.01321 0.64875 0.0
Mg311 Mg 0.47103 0.9925 0.79216 0.0
O312 O 0.45921 0.98659 0.68571 0.0
Mg313 Mg 0.49336 -0.00027 0.61547 0.0
O314 O 0.52537 0.01354 0.53964 0.0
Mg315 Mg 0.498 0.99311 0.44101 0.0
Mg316 Mg 0.56145 0.01042 0.55513 0.0
C317 C 0.50128 0.95186 0.73676 0.0
O318 O 0.53323 0.03533 0.70648 0.0
O319 O 0.40182 0.98549 0.73005 0.0
O320 O 0.57648 0.03542 0.66949 0.0
O321 O 0.46912 0.0542 0.74543 0.0
O322 O 0.42497 0.97357 0.82858 0.0
O323 O 0.49724 0.04202 0.82635 0.0
O324 O 0.45666 0.96561 0.5184 0.0
O325 O 0.41691 0.97262 0.55079 0.0
C326 C 0.42828 0.9597 0.50642 0.0
C327 C 0.40096 0.97281 0.79419 0.0
O328 O 0.50194 0.95998 0.66649 0.0
O329 O 0.5417 0.02473 0.37813 0.0
O330 O 0.49301 0.96371 0.79218 0.0
O331 O 0.51002 0.95323 0.43669 0.0
O332 O 0.5838 0.03841 0.46194 0.0
O333 O 0.54812 0.96146 0.52663 0.0
O334 O 0.482 0.03786 0.57261 0.0
O335 O 0.4875 0.03377 0.44679 0.0
C336 C 0.49029 0.06222 0.80157 0.0
C337 C 0.5627 0.04476 0.71602 0.0
C338 C 0.53796 0.57468 0.71023 0.0
C339 C 0.4434 0.49802 0.85864 0.0
C340 C 0.4697 0.42758 0.80165 0.0
Mg341 Mg 0.57001 0.56269 0.56489 0.0
Mg342 Mg 0.52832 0.50384 0.43214 0.0
O343 O 0.54063 0.51578 0.53757 0.0
Mg344 Mg 0.50963 0.50536 0.61826 0.0
O345 O 0.48168 0.49804 0.70449 0.0
Mg346 Mg 0.51162 0.50859 0.7977 0.0
Mg347 Mg 0.44236 0.46137 0.70583 0.0
C348 C 0.48371 0.43905 0.50898 0.0
O349 O 0.47015 0.50214 0.53746 0.0
O350 O 0.6038 0.55903 0.48005 0.0
O351 O 0.42646 0.46507 0.58933 0.0
O352 O 0.54943 0.57881 0.46406 0.0
O353 O 0.57375 0.51511 0.39834 0.0
O354 O 0.51771 0.53735 0.37969 0.0
O355 O 0.54524 0.50712 0.70905 0.0
O356 O 0.58894 0.54561 0.66439 0.0
C357 C 0.57501 0.525 0.71348 0.0
C358 C 0.60049 0.53888 0.42407 0.0
O359 O 0.48912 0.4522 0.5785 0.0
O360 O 0.47323 0.50959 0.87096 0.0
O361 O 0.49376 0.45481 0.44896 0.0
O362 O 0.49264 0.45564 0.82225 0.0
O363 O 0.42721 0.47957 0.79861 0.0
O364 O 0.4479 0.42294 0.75038 0.0
O365 O 0.53267 0.55884 0.64524 0.0
O366 O 0.53047 0.56069 0.77301 0.0
C367 C 0.53111 0.56709 0.40168 0.0
C368 C 0.44025 0.4842 0.53692 0.0
C369 C 0.10613 0.45578 0.43356 0.0
C370 C 0.12834 0.48562 0.40847 0.0
C371 C 0.10706 0.51137 0.49035 0.0
C372 C 0.08059 0.48113 0.50128 0.0
N373 N 0.053 0.42355 0.46408 0.0
N374 N 0.14493 0.5416 0.40097 0.0
C375 C 0.07947 0.45296 0.46754 0.0
C376 C 0.12731 0.51339 0.43305 0.0
N377 N 0.11082 0.43023 0.42758 0.0
N378 N 0.1147 0.53787 0.53807 0.0
H379 H 0.15895 0.54387 0.35603 0.0
H380 H 0.14273 0.56164 0.4136 0.0
H381 H 0.10295 0.53731 0.58664 0.0
H382 H 0.13579 0.55922 0.53601 0.0
H383 H 0.09651 0.4088 0.45174 0.0
H384 H 0.13096 0.43172 0.40716 0.0
H385 H 0.05107 0.40356 0.43318 0.0
H386 H 0.03181 0.4193 0.48309 0.0
C387 C 0.62876 0.094 0.26035 0.0
C388 C 0.63436 0.1241 0.29255 0.0
C389 C 0.59332 0.09776 0.3798 0.0
C390 C 0.59064 0.06809 0.35475 0.0
N391 N 0.60619 0.0372 0.2755 0.0
N392 N 0.62501 0.15548 0.38817 0.0
C393 C 0.60835 0.0659 0.29584 0.0
C394 C 0.61728 0.12625 0.35328 0.0
N395 N 0.64245 0.09237 0.19508 0.0
N396 N 0.57286 0.09864 0.42882 0.0
H397 H 0.64247 0.17705 0.37032 0.0
H398 H 0.61591 0.1584 0.43874 0.0
H399 H 0.5554 0.07836 0.45154 0.0
H400 H 0.5714 0.11905 0.44196 0.0
H401 H 0.63699 0.07097 0.16447 0.0
H402 H 0.65759 0.11257 0.16776 0.0
H403 H 0.62104 0.03462 0.23913 0.0
H404 H 0.59047 0.01603 0.29865 0.0
C405 C 0.49969 0.61226 0.28602 0.0
C406 C 0.52676 0.63385 0.25005 0.0
C407 C 0.55675 0.6121 0.31487 0.0
C408 C 0.52923 0.58947 0.34805 0.0
N409 N 0.47301 0.56305 0.34914 0.0
N410 N 0.57855 0.64873 0.21458 0.0
C411 C 0.50022 0.58791 0.32831 0.0
C412 C 0.55462 0.63221 0.26015 0.0
N413 N 0.47399 0.61602 0.28365 0.0
N414 N 0.58499 0.6143 0.33489 0.0
H415 H 0.57748 0.66295 0.1723 0.0
H416 H 0.59809 0.64588 0.21298 0.0
H417 H 0.58753 0.59844 0.36918 0.0
H418 H 0.60632 0.63302 0.32085 0.0
H419 H 0.45489 0.60304 0.31558 0.0
H420 H 0.47285 0.63407 0.25544 0.0
H421 H 0.45108 0.55801 0.32508 0.0
H422 H 0.47237 0.54583 0.38428 0.0
C423 C 0.90782 0.50753 0.25593 0.0
C424 C 0.91339 0.53068 0.20205 0.0
C425 C 0.96925 0.55986 0.24499 0.0
C426 C 0.96334 0.53674 0.29863 0.0
N427 N 0.93018 0.48383 0.33887 0.0
N428 N 0.94952 0.57377 0.13061 0.0
C429 C 0.93368 0.50876 0.29778 0.0
C430 C 0.94428 0.55521 0.19151 0.0
N431 N 0.87794 0.48604 0.27197 0.0
N432 N -0.00179 0.58662 0.24752 0.0
H433 H 0.93148 0.57052 0.09025 0.0
H434 H 0.97182 0.59039 0.11633 0.0
H435 H 0.01712 0.58977 0.28452 0.0
H436 H 0.0031 0.60612 0.21569 0.0
H437 H 0.87298 0.4712 0.31724 0.0
H438 H 0.85794 0.48492 0.24532 0.0
H439 H 0.90967 0.4616 0.33428 0.0
H440 H 0.94879 0.48431 0.3716 0.0
C441 C 0.35802 0.885 0.40818 0.0
C442 C 0.3529 0.89798 0.34066 0.0
C443 C 0.40417 0.94602 0.36961 0.0
C444 C 0.40657 0.9358 0.44374 0.0
N445 N 0.38632 0.89547 0.53491 0.0
N446 N 0.36974 0.94213 0.25979 0.0
C447 C 0.38378 0.90503 0.4631 0.0
C448 C 0.37577 0.92871 0.3215 0.0
N449 N 0.33847 0.85349 0.41907 0.0
N450 N 0.42924 0.97203 0.34479 0.0
H451 H 0.34912 0.93033 0.22301 0.0
H452 H 0.38405 0.96595 0.24883 0.0
H453 H 0.45059 0.98388 0.37783 0.0
H454 H 0.42996 0.97927 0.28882 0.0
H455 H 0.34254 0.84183 0.46345 0.0
H456 H 0.31951 0.8382 0.37955 0.0
H457 H 0.3686 0.87508 0.55641 0.0
H458 H 0.40587 0.90887 0.57457 0.0
C459 C 0.42624 0.35128 0.45855 0.0
C460 C 0.44589 0.34456 0.41403 0.0
C461 C 0.49155 0.39512 0.4646 0.0
C462 C 0.4713 0.40443 0.49627 0.0
N463 N 0.42052 0.39129 0.5348 0.0
N464 N 0.49701 0.36089 0.36914 0.0
C465 C 0.43892 0.38228 0.49768 0.0
C466 C 0.47859 0.36653 0.41625 0.0
N467 N 0.39578 0.32804 0.46322 0.0
N468 N 0.52327 0.41393 0.48101 0.0
H469 H 0.4886 0.34035 0.33158 0.0
H470 H 0.5202 0.37786 0.36223 0.0
H471 H 0.53323 0.43496 0.51764 0.0
H472 H 0.53929 0.40707 0.46541 0.0
H473 H 0.38068 0.33039 0.49903 0.0
H474 H 0.38599 0.3054 0.43387 0.0
H475 H 0.39617 0.3778 0.53182 0.0
H476 H 0.43002 0.41305 0.56806 0.0
C477 C 0.5366 0.90054 0.79563 0.0
C478 C 0.51133 0.87756 0.83482 0.0
C479 C 0.4778 0.89753 0.78261 0.0
C480 C 0.50424 0.9237 0.755 0.0
N481 N 0.55903 0.95076 0.73418 0.0
N482 N 0.45889 0.85703 0.87426 0.0
C483 C 0.53371 0.92523 0.76034 0.0
C484 C 0.48208 0.87662 0.83007 0.0
N485 N 0.563 0.89831 0.79078 0.0
N486 N 0.44845 0.89266 0.7629 0.0
H487 H 0.46127 0.84197 0.91187 0.0
H488 H 0.43841 0.85795 0.87936 0.0
H489 H 0.44455 0.90732 0.72687 0.0
H490 H 0.42795 0.87236 0.77524 0.0
H491 H 0.58102 0.9124 0.75708 0.0
H492 H 0.56576 0.88052 0.81573 0.0
H493 H 0.58197 0.95546 0.74455 0.0
H494 H 0.55709 0.96814 0.70472 0.0
C495 C 0.63626 0.50496 0.77966 0.0
C496 C 0.63665 0.50887 0.86141 0.0
C497 C 0.59586 0.52325 0.84714 0.0
C498 C 0.5942 0.51731 0.76577 0.0
N499 N 0.60594 0.49351 0.65656 0.0
N500 N 0.61244 0.51463 0.9736 0.0
C501 C 0.61219 0.50522 0.73263 0.0
C502 C 0.61492 0.51566 0.89546 0.0
N503 N 0.65984 0.50296 0.74657 0.0
N504 N 0.58063 0.53762 0.8779 0.0
H505 H 0.62603 0.50888 0.01045 0.0
H506 H 0.59503 0.51654 0.00063 0.0
H507 H 0.56711 0.54421 0.84375 0.0
H508 H 0.58363 0.54553 0.93627 0.0
H509 H 0.66221 0.50364 0.68716 0.0
H510 H 0.6788 0.50384 0.77849 0.0
H511 H 0.61649 0.48163 0.63179 0.0
H512 H 0.58794 0.49274 0.6203 0.0
C513 C 0.09532 0.64795 0.82094 0.0
C514 C 0.1049 0.6498 0.90051 0.0
C515 C 0.09085 0.59353 0.88719 0.0
C516 C 0.07751 0.59069 0.81036 0.0
N517 N 0.08534 0.61925 0.69598 0.0
N518 N 0.11115 0.62438 0.01151 0.0
C519 C 0.08459 0.61896 0.77429 0.0
C520 C 0.10254 0.62258 0.93428 0.0
N521 N 0.09599 0.67379 0.79011 0.0
N522 N 0.09526 0.56947 0.9119 0.0
H523 H 0.12114 0.64555 0.04743 0.0
H524 H 0.10632 0.60444 0.04145 0.0
H525 H 0.09067 0.54971 0.87497 0.0
H526 H 0.10725 0.57092 0.96458 0.0
H527 H 0.08619 0.6727 0.73445 0.0
H528 H 0.10376 0.69548 0.82264 0.0
H529 H 0.09351 0.64009 0.66738 0.0
H530 H 0.08394 0.60022 0.66219 0.0
C531 C 0.49313 0.13848 0.86053 0.0
C532 C 0.49857 0.13897 0.94195 0.0
C533 C 0.51552 0.09965 0.92354 0.0
C534 C 0.50344 0.09429 0.84472 0.0
N535 N 0.49857 0.11982 0.7333 0.0
N536 N 0.51777 0.12297 0.05223 0.0
C537 C 0.49798 0.11746 0.81148 0.0
C538 C 0.51117 0.12082 0.97381 0.0
N539 N 0.48122 0.15631 0.83048 0.0
N540 N 0.53289 0.08642 0.94878 0.0
H541 H 0.51654 0.13961 0.09011 0.0
H542 H 0.52304 0.10739 0.08019 0.0
H543 H 0.54015 0.07454 0.91106 0.0
H544 H 0.54409 0.09119 0.00437 0.0
H545 H 0.47324 0.15391 0.77237 0.0
H546 H 0.47744 0.17219 0.86444 0.0
H547 H 0.49727 0.13785 0.70552 0.0
H548 H 0.50421 0.10579 0.69774 0.0
C549 C 0.40376 0.54017 0.94612 0.0
C550 C 0.38224 0.51602 0.99051 0.0
C551 C 0.40458 0.48218 0.95858 0.0
C552 C 0.42626 0.50625 0.9143 0.0
N553 N 0.45131 0.56075 0.87923 0.0
N554 N 0.36853 0.46896 0.05848 0.0
C555 C 0.42763 0.53627 0.91317 0.0
C556 C 0.38483 0.48864 0.00319 0.0
N557 N 0.40028 0.56585 0.93177 0.0
N558 N 0.40182 0.45259 0.95528 0.0
H559 H 0.35405 0.47322 0.09276 0.0
H560 H 0.3718 0.45038 0.07568 0.0
H561 H 0.41604 0.44695 0.92378 0.0
H562 H 0.38394 0.43298 0.97894 0.0
H563 H 0.4129 0.58243 0.89273 0.0
H564 H 0.38319 0.5695 0.95522 0.0
H565 H 0.4554 0.58408 0.88302 0.0
H566 H 0.46856 0.55837 0.85255 0.0
C567 C 0.86201 0.37178 0.81654 0.0
C568 C 0.86501 0.37366 0.8989 0.0
C569 C 0.92009 0.41396 0.90127 0.0
C570 C 0.91681 0.41435 0.81929 0.0
N571 N 0.88303 0.39853 0.70064 0.0
N572 N 0.89382 0.40363 0.01894 0.0
C573 C 0.88719 0.39479 0.77725 0.0
C574 C 0.89301 0.39732 0.94092 0.0
N575 N 0.83591 0.34734 0.7759 0.0
N576 N 0.94906 0.42707 0.94103 0.0
H577 H 0.87406 0.39205 0.04986 0.0
H578 H 0.91316 0.42269 0.05077 0.0
H579 H 0.96993 0.43671 0.91428 0.0
H580 H 0.95213 0.4246 -0.00018 0.0
H581 H 0.83402 0.34295 0.7159 0.0
H582 H 0.81707 0.32997 0.80263 0.0
H583 H 0.8612 0.3869 0.66889 0.0
H584 H 0.90096 0.41555 0.67084 0.0
C585 C 0.88133 0.51357 0.72167 0.0
C586 C 0.883 0.51462 0.80373 0.0
C587 C 0.93592 0.52168 0.80752 0.0
C588 C 0.93371 0.51952 0.72535 0.0
N589 N 0.90126 0.50448 0.60443 0.0
N590 N 0.90839 0.51212 0.92402 0.0
C591 C 0.90542 0.51267 0.68249 0.0
C592 C 0.90925 0.51627 0.84648 0.0
N593 N 0.85752 0.51494 0.68118 0.0
N594 N 0.96384 0.53038 0.84829 0.0
H595 H 0.88908 0.50786 0.95403 0.0
H596 H 0.92543 0.50997 0.95695 0.0
H597 H 0.98381 0.53453 0.82156 0.0
H598 H 0.96789 0.5358 0.90809 0.0
H599 H 0.85715 0.518 0.62207 0.0
H600 H 0.8394 0.51573 0.70758 0.0
H601 H 0.87994 0.49604 0.57162 0.0
H602 H 0.91816 0.50298 0.57376 0.0
C603 C 0.33869 0.90406 0.88902 0.0
C604 C 0.31695 0.91443 0.90231 0.0
C605 C 0.35073 0.96465 0.8454 0.0
C606 C 0.37053 0.95249 0.82519 0.0
N607 N 0.37749 0.90663 0.80654 0.0
N608 N 0.29921 0.95207 0.8815 0.0
C609 C 0.36267 0.92092 0.84039 0.0
C610 C 0.322 0.94403 0.87696 0.0
N611 N 0.33739 0.87895 0.92551 0.0
N612 N 0.35989 -0.00397 0.83777 0.0
H613 H 0.27788 0.93739 0.90406 0.0
H614 H 0.30038 0.97188 0.85698 0.0
H615 H 0.38092 0.0119 0.81572 0.0
H616 H 0.34787 0.00692 0.85914 0.0
H617 H 0.35467 0.87261 0.92287 0.0
H618 H 0.32118 0.86679 0.96532 0.0
H619 H 0.37052 0.88259 0.8108 0.0
H620 H 0.39422 0.91761 0.76699 0.0
C621 C 0.46763 0.35168 0.86559 0.0
C622 C 0.45816 0.35099 0.94201 0.0
C623 C 0.45884 0.40157 0.92769 0.0
C624 C 0.46566 0.40093 0.84896 0.0
N625 N 0.47254 0.37327 0.73954 0.0
N626 N 0.43779 0.37134 0.03872 0.0
C627 C 0.46863 0.37519 0.8167 0.0
C628 C 0.45185 0.37487 0.97106 0.0
N629 N 0.47701 0.33078 0.84098 0.0
N630 N 0.45937 0.42787 0.9619 0.0
H631 H 0.43167 0.35182 0.07161 0.0
H632 H 0.4293 0.38602 0.05829 0.0
H633 H 0.46308 0.44762 0.93253 0.0
H634 H 0.4585 0.43122 0.02132 0.0
H635 H 0.4872 0.3321 0.7892 0.0
H636 H 0.47707 0.31365 0.87541 0.0
H637 H 0.47141 0.35336 0.71056 0.0
H638 H 0.47482 0.39079 0.70308 0.0
C639 C 0.10535 0.43065 0.86505 0.0
C640 C 0.10382 0.42969 0.94612 0.0
C641 C 0.04894 0.41589 0.93144 0.0
C642 C 0.05295 0.42432 0.85398 0.0
N643 N 0.08555 0.44075 0.74594 0.0
N644 N 0.07424 0.4186 0.05793 0.0
C645 C 0.08088 0.43095 0.81942 0.0
C646 C 0.07536 0.42079 0.97968 0.0
N647 N 0.13067 0.43242 0.83217 0.0
N648 N 0.01997 0.40381 0.9584 0.0
H649 H 0.09299 0.42073 0.09379 0.0
H650 H 0.05536 0.41579 0.08764 0.0
H651 H 0.00039 0.39994 0.92301 0.0
H652 H 0.01477 0.39514 0.01279 0.0
H653 H 0.13153 0.42977 0.77252 0.0
H654 H 0.14963 0.43343 0.86446 0.0
H655 H 0.10716 0.45027 0.72269 0.0
H656 H 0.06871 0.4416 0.70909 0.0
C657 C 0.60266 0.12167 0.85057 0.0
C658 C 0.62979 0.121 0.87955 0.0
C659 C 0.60659 0.06625 0.82078 0.0
C660 C 0.58287 0.06945 0.77941 0.0
N661 N 0.5634 0.10474 0.7429 0.0
N662 N 0.6605 0.09456 0.87391 0.0
C663 C 0.58208 0.09834 0.79104 0.0
C664 C 0.63259 0.09374 0.86 0.0
N665 N 0.59608 0.14403 0.88066 0.0
N666 N 0.60427 0.03697 0.82309 0.0
H667 H 0.68107 0.11512 0.89609 0.0
H668 H 0.664 0.07595 0.85452 0.0
H669 H 0.58468 0.01608 0.79802 0.0
H670 H 0.61994 0.03318 0.85746 0.0
H671 H 0.57548 0.1441 0.86428 0.0
H672 H 0.60937 0.16015 0.92797 0.0
H673 H 0.56469 0.12695 0.7453 0.0
H674 H 0.54909 0.08943 0.69563 0.0
C675 C 0.54636 0.65583 0.71364 0.0
C676 C 0.56079 0.66554 0.79038 0.0
C677 C 0.57689 0.6256 0.77984 0.0
C678 C 0.55406 0.6099 0.71659 0.0
N679 N 0.52032 0.61209 0.61357 0.0
N680 N 0.59139 0.6603 0.89705 0.0
C681 C 0.54051 0.62607 0.6787 0.0
C682 C 0.57755 0.65142 0.82289 0.0
N683 N 0.53747 0.67466 0.67609 0.0
N684 N 0.59652 0.61441 0.80057 0.0
H685 H 0.59202 0.67871 0.93192 0.0
H686 H 0.60052 0.64789 0.92596 0.0
H687 H 0.59585 0.59522 0.76868 0.0
H688 H 0.61515 0.62605 0.84332 0.0
H689 H 0.52878 0.67012 0.61803 0.0
H690 H 0.54173 0.69657 0.70167 0.0
H691 H 0.50649 0.62081 0.58986 0.0
H692 H 0.51685 0.59127 0.58383 0.0
C693 C 0.48642 0.1258 0.46706 0.0
C694 C 0.46256 0.11511 0.40497 0.0
C695 C 0.44444 0.0597 0.4327 0.0
C696 C 0.47134 0.07003 0.48524 0.0
N697 N 0.52 0.11315 0.54717 0.0
N698 N 0.42139 0.07137 0.32129 0.0
C699 C 0.49272 0.10321 0.50201 0.0
C700 C 0.44199 0.0819 0.38628 0.0
N701 N 0.50285 0.15744 0.49289 0.0
N702 N 0.42122 0.02843 0.42699 0.0
H703 H 0.4193 0.08669 0.28405 0.0
H704 H 0.40844 0.04741 0.30013 0.0
H705 H 0.42245 0.01189 0.46102 0.0
H706 H 0.39966 0.01982 0.39512 0.0
H707 H 0.51843 0.16618 0.54261 0.0
H708 H 0.49872 0.17451 0.46859 0.0
H709 H 0.53823 0.13682 0.5539 0.0
H710 H 0.52519 0.0973 0.57425 0.0
C711 C 0.39904 0.52053 0.42677 0.0
C712 C 0.3726 0.49212 0.39179 0.0
C713 C 0.39655 0.4611 0.43358 0.0
C714 C 0.42003 0.48833 0.47913 0.0
N715 N 0.4406 0.5432 0.53041 0.0
N716 N 0.343 0.43416 0.37788 0.0
C717 C 0.4206 0.51796 0.47889 0.0
C718 C 0.37044 0.46197 0.39921 0.0
N719 N 0.40402 0.54988 0.40892 0.0
N720 N 0.39941 0.43458 0.42268 0.0
H721 H 0.32244 0.43358 0.35757 0.0
H722 H 0.33975 0.41172 0.38872 0.0
H723 H 0.4193 0.43413 0.4444 0.0
H724 H 0.384 0.41483 0.38494 0.0
H725 H 0.42416 0.57124 0.42906 0.0
H726 H 0.38989 0.55284 0.36705 0.0
H727 H 0.43937 0.56403 0.53776 0.0
H728 H 0.45662 0.54247 0.57075 0.0
C729 C 0.91813 0.37845 0.3397 0.0
C730 C 0.88816 0.37168 0.36028 0.0
C731 C 0.91258 0.41423 0.46598 0.0
C732 C 0.94273 0.41963 0.44917 0.0
N733 N 0.97368 0.40326 0.37757 0.0
N734 N 0.85637 0.37791 0.4524 0.0
C735 C 0.94525 0.40049 0.38842 0.0
C736 C 0.88527 0.38782 0.42671 0.0
N737 N 0.92078 0.36484 0.27175 0.0
N738 N 0.90979 0.43568 0.51415 0.0
H739 H 0.83579 0.35903 0.42417 0.0
H740 H 0.85319 0.38649 0.50535 0.0
H741 H 0.9288 0.4564 0.54142 0.0
H742 H 0.88849 0.43467 0.52105 0.0
H743 H 0.9421 0.37178 0.24871 0.0
H744 H 0.90146 0.34824 0.23493 0.0
H745 H 0.97658 0.38757 0.34051 0.0
H746 H -0.00582 0.41983 0.4104 0.0
C747 C 0.50283 0.8613 0.38397 0.0
C748 C 0.52278 0.86971 0.32268 0.0
C749 C 0.55147 0.92548 0.37573 0.0
C750 C 0.52914 0.91784 0.43116 0.0
N751 N 0.48296 0.87961 0.48797 0.0
N752 N 0.56359 0.90986 0.25358 0.0
C753 C 0.50471 0.88597 0.43565 0.0
C754 C 0.54662 0.90179 0.31709 0.0
N755 N 0.48255 0.82979 0.39322 0.0
N756 N 0.57716 0.95554 0.37863 0.0
H757 H 0.56075 0.89321 0.20896 0.0
H758 H 0.57864 0.93336 0.24148 0.0
H759 H 0.58117 0.97405 0.41907 0.0
H760 H 0.59595 0.96153 0.34522 0.0
H761 H 0.46953 0.82187 0.44094 0.0
H762 H 0.4803 0.81122 0.35543 0.0
H763 H 0.46247 0.85763 0.48854 0.0
H764 H 0.48488 0.89702 0.52924 0.0
C765 C 0.6551 0.55059 0.26608 0.0
C766 C 0.67485 0.54065 0.30269 0.0
C767 C 0.65064 0.53726 0.42472 0.0
C768 C 0.62828 0.54322 0.38531 0.0
N769 N 0.60819 0.55479 0.26851 0.0
N770 N 0.69129 0.52316 0.41471 0.0
C771 C 0.63037 0.54989 0.30606 0.0
C772 C 0.67288 0.53401 0.38181 0.0
N773 N 0.66035 0.56109 0.19334 0.0
N774 N 0.65035 0.53434 0.50287 0.0
H775 H 0.70833 0.52128 0.38557 0.0
H776 H 0.68862 0.51424 0.46906 0.0
H777 H 0.63366 0.53522 0.5356 0.0
H778 H 0.66781 0.53323 0.53665 0.0
H779 H 0.64896 0.57171 0.16607 0.0
H780 H 0.67804 0.56157 0.16208 0.0
H781 H 0.60587 0.55569 0.20877 0.0
H782 H 0.59083 0.55639 0.2967 0.0
C783 C 0.09994 0.67343 0.4118 0.0
C784 C 0.12763 0.6762 0.38431 0.0
C785 C 0.12364 0.63482 0.46781 0.0
C786 C 0.09524 0.63153 0.49171 0.0
N787 N 0.06958 0.66177 0.52201 0.0
N788 N 0.17073 0.6661 0.40195 0.0
C789 C 0.08759 0.6554 0.47554 0.0
C790 C 0.14114 0.6589 0.41726 0.0
N791 N 0.08454 0.68682 0.37545 0.0
N792 N 0.13383 0.61525 0.49494 0.0
H793 H 0.18431 0.68414 0.36687 0.0
H794 H 0.1828 0.65598 0.42826 0.0
H795 H 0.12314 0.60058 0.53925 0.0
H796 H 0.15252 0.61373 0.47451 0.0
H797 H 0.06276 0.68285 0.39045 0.0
H798 H 0.09169 0.69883 0.32535 0.0
H799 H 0.06509 0.6804 0.51366 0.0
H800 H 0.06353 0.65211 0.57521 0.0
loop_
_geom_bond_atom_site_label_1
_geom_bond_atom_site_label_2
_geom_bond_distance
_geom_bond_site_symmetry_2
_ccdc_geom_bond_type
C0 C1 1.384 . S
C0 C2 1.384 . S
C0 H28 0.931 . S
C1 C0 1.384 . S
C1 C4 1.382 . S
C2 C0 1.384 . S
C2 C3 1.381 . S
C2 H29 0.930 . S
C3 C2 1.381 . S
C3 C5 1.381 . S
C3 C6 1.487 . S
C4 C1 1.382 . S
C4 C5 1.387 . S
C4 H30 0.930 1_554 S
C5 C3 1.381 . S
C5 C4 1.387 . S
C5 H31 0.931 . S
C6 C3 1.487 . S
C6 C13 1.399 . S
C6 N44 1.343 . S
C7 C8 1.384 . S
C7 C9 1.384 . S
C7 H32 0.931 . S
C8 C7 1.384 . S
C8 C11 1.382 . S
C9 C7 1.384 . S
C9 C10 1.381 . S
C9 H33 0.930 . S
C10 C9 1.381 . S
C10 C12 1.381 . S
C10 C13 1.487 . S
C11 C8 1.382 . S
C11 C12 1.387 . S
C11 H34 0.930 . S
C12 C10 1.381 . S
C12 C11 1.387 . S
C12 H35 0.931 . S
C13 C6 1.399 . S
C13 C10 1.487 . S
C13 N45 1.343 . S
C14 C15 1.384 . S
C14 C16 1.384 . S
C14 H36 0.931 . S
C15 C14 1.384 . S
C15 C18 1.382 . S
C16 C14 1.384 . S
C16 C17 1.381 . S
C16 H37 0.930 . S
C17 C16 1.381 . S
C17 C19 1.381 . S
C17 C20 1.487 . S
C18 C15 1.382 . S
C18 C19 1.387 . S
C18 H38 0.930 . S
C19 C17 1.381 . S
C19 C18 1.387 . S
C19 H39 0.931 . S
C20 C17 1.487 . S
C20 C27 1.399 . S
C20 N45 1.343 . S
C21 C22 1.384 . S
C21 C23 1.384 . S
C21 H40 0.931 . S
C22 C21 1.384 . S
C22 C25 1.382 . S
C23 C21 1.384 . S
C23 C24 1.381 . S
C23 H41 0.930 . S
C24 C23 1.381 . S
C24 C26 1.381 . S
C24 C27 1.487 . S
C25 C22 1.382 . S
C25 C26 1.387 . S
C25 H42 0.930 1_554 S
C26 C24 1.381 . S
C26 C25 1.387 . S
C26 H43 0.931 . S
C27 C20 1.399 . S
C27 C24 1.487 . S
C27 N44 1.343 . S
H28 C0 0.931 . S
H29 C2 0.930 . S
H30 C4 0.930 1_556 S
H31 C5 0.931 . S
H32 C7 0.931 . S
H33 C9 0.930 . S
H34 C11 0.930 . S
H35 C12 0.931 . S
H36 C14 0.931 . S
H37 C16 0.930 . S
H38 C18 0.930 . S
H39 C19 0.931 . S
H40 C21 0.931 . S
H41 C23 0.930 . S
H42 C25 0.930 1_556 S
H43 C26 0.931 . S
N44 C6 1.343 . S
N44 C27 1.343 . S
N45 C13 1.343 . S
N45 C20 1.343 . S
C46 C47 1.384 . S
C46 C48 1.384 . S
C46 H74 0.931 . S
C47 C46 1.384 . S
C47 C50 1.382 . S
C48 C46 1.384 . S
C48 C49 1.381 . S
C48 H75 0.930 . S
C49 C48 1.381 . S
C49 C51 1.381 . S
C49 C52 1.487 . S
C50 C47 1.382 . S
C50 C51 1.387 . S
C50 H76 0.930 . S
C51 C49 1.381 . S
C51 C50 1.387 . S
C51 H77 0.931 . S
C52 C49 1.487 . S
C52 C59 1.399 . S
C52 N90 1.343 . S
C53 C54 1.384 . S
C53 C55 1.384 1_556 S
C53 H78 0.931 . S
C54 C53 1.384 . S
C54 C57 1.382 . S
C55 C53 1.384 1_554 S
C55 C56 1.381 . S
C55 H79 0.930 . S
C56 C55 1.381 . S
C56 C58 1.381 1_554 S
C56 C59 1.487 . S
C57 C54 1.382 . S
C57 C58 1.387 . S
C57 H80 0.930 . S
C58 C56 1.381 1_556 S
C58 C57 1.387 . S
C58 H81 0.931 . S
C59 C52 1.399 . S
C59 C56 1.487 . S
C59 N91 1.343 . S
C60 C61 1.384 . S
C60 C62 1.384 1_556 S
C60 H82 0.931 . S
C61 C60 1.384 . S
C61 C64 1.382 . S
C62 C60 1.384 1_554 S
C62 C63 1.381 . S
C62 H83 0.930 . S
C63 C62 1.381 . S
C63 C65 1.381 1_554 S
C63 C66 1.487 . S
C64 C61 1.382 . S
C64 C65 1.387 . S
C64 H84 0.930 . S
C65 C63 1.381 1_556 S
C65 C64 1.387 . S
C65 H85 0.931 . S
C66 C63 1.487 . S
C66 C73 1.399 . S
C66 N91 1.343 . S
C67 C68 1.384 . S
C67 C69 1.384 . S
C67 H86 0.931 . S
C68 C67 1.384 . S
C68 C71 1.382 . S
C69 C67 1.384 . S
C69 C70 1.381 . S
C69 H87 0.930 . S
C70 C69 1.381 . S
C70 C72 1.381 . S
C70 C73 1.487 . S
C71 C68 1.382 . S
C71 C72 1.387 . S
C71 H88 0.930 . S
C72 C70 1.381 . S
C72 C71 1.387 . S
C72 H89 0.931 . S
C73 C66 1.399 . S
C73 C70 1.487 . S
C73 N90 1.343 . S
H74 C46 0.931 . S
H75 C48 0.930 . S
H76 C50 0.930 . S
H77 C51 0.931 . S
H78 C53 0.931 . S
H79 C55 0.930 . S
H80 C57 0.930 . S
H81 C58 0.931 . S
H82 C60 0.931 . S
H83 C62 0.930 . S
H84 C64 0.930 . S
H85 C65 0.931 . S
H86 C67 0.931 . S
H87 C69 0.930 . S
H88 C71 0.930 . S
H89 C72 0.931 . S
N90 C52 1.343 . S
N90 C73 1.343 . S
N91 C59 1.343 . S
N91 C66 1.343 . S
C92 C93 1.384 . S
C92 C94 1.384 . S
C92 H120 0.931 . S
C93 C92 1.384 . S
C93 C96 1.382 . S
C94 C92 1.384 . S
C94 C95 1.381 . S
C94 H121 0.930 1_556 S
C95 C94 1.381 . S
C95 C97 1.381 . S
C95 C98 1.493 . S
C96 C93 1.382 . S
C96 C97 1.387 . S
C96 H122 0.930 . S
C97 C95 1.381 . S
C97 C96 1.387 . S
C97 H123 0.931 . S
C98 C95 1.493 . S
C98 C105 1.388 1_556 S
C98 N136 1.349 . S
C99 C100 1.384 . S
C99 C101 1.384 . S
C99 H124 0.931 . S
C100 C99 1.384 . S
C100 C103 1.382 . S
C101 C99 1.384 . S
C101 C102 1.381 . S
C101 H125 0.930 . S
C102 C101 1.381 . S
C102 C104 1.381 . S
C102 C105 1.487 . S
C103 C100 1.382 . S
C103 C104 1.387 . S
C103 H126 0.930 . S
C104 C102 1.381 . S
C104 C103 1.387 . S
C104 H127 0.931 . S
C105 C98 1.388 1_554 S
C105 C102 1.487 . S
C105 N137 1.343 . S
C106 C107 1.384 . S
C106 C108 1.384 . S
C106 H128 0.931 . S
C107 C106 1.384 . S
C107 C110 1.382 . S
C108 C106 1.384 . S
C108 C109 1.381 . S
C108 H129 0.930 . S
C109 C108 1.381 . S
C109 C111 1.381 . S
C109 C112 1.487 . S
C110 C107 1.382 . S
C110 C111 1.387 . S
C110 H130 0.930 . S
C111 C109 1.381 . S
C111 C110 1.387 . S
C111 H131 0.931 . S
C112 C109 1.487 . S
C112 C119 1.399 . S
C112 N137 1.343 . S
C113 C114 1.384 . S
C113 C115 1.384 . S
C113 H132 0.931 . S
C114 C113 1.384 . S
C114 C117 1.382 . S
C115 C113 1.384 . S
C115 C116 1.381 . S
C115 H133 0.930 1_556 S
C116 C115 1.381 . S
C116 C118 1.381 . S
C116 C119 1.487 1_556 S
C117 C114 1.382 . S
C117 C118 1.387 . S
C117 H134 0.930 . S
C118 C116 1.381 . S
C118 C117 1.387 . S
C118 H135 0.931 . S
C119 C112 1.399 . S
C119 C116 1.487 1_554 S
C119 N136 1.343 1_554 S
H120 C92 0.931 . S
H121 C94 0.930 1_554 S
H122 C96 0.930 . S
H123 C97 0.931 . S
H124 C99 0.931 . S
H125 C101 0.930 . S
H126 C103 0.930 . S
H127 C104 0.931 . S
H128 C106 0.931 . S
H129 C108 0.930 . S
H130 C110 0.930 . S
H131 C111 0.931 . S
H132 C113 0.931 . S
H133 C115 0.930 1_554 S
H134 C117 0.930 . S
H135 C118 0.931 . S
N136 C98 1.349 . S
N136 C119 1.343 1_556 S
N137 C105 1.343 . S
N137 C112 1.343 . S
C138 C139 1.384 . S
C138 C140 1.384 . S
C138 H166 0.931 . S
C139 C138 1.384 . S
C139 C142 1.382 . S
C140 C138 1.384 . S
C140 C141 1.381 . S
C140 H167 0.930 . S
C141 C140 1.381 . S
C141 C143 1.381 . S
C141 C144 1.487 . S
C142 C139 1.382 . S
C142 C143 1.387 . S
C142 H168 0.930 . S
C143 C141 1.381 . S
C143 C142 1.387 . S
C143 H169 0.931 . S
C144 C141 1.487 . S
C144 C151 1.399 1_556 S
C144 N182 1.343 . S
C145 C146 1.384 . S
C145 C147 1.384 . S
C145 H170 0.931 . S
C146 C145 1.384 . S
C146 C149 1.382 . S
C147 C145 1.384 . S
C147 C148 1.381 . S
C147 H171 0.930 . S
C148 C147 1.381 . S
C148 C150 1.381 . S
C148 C151 1.487 . S
C149 C146 1.382 . S
C149 C150 1.387 . S
C149 H172 0.930 . S
C150 C148 1.381 . S
C150 C149 1.387 . S
C150 H173 0.931 . S
C151 C144 1.399 1_554 S
C151 C148 1.487 . S
C151 N183 1.343 . S
C152 C153 1.384 . S
C152 C154 1.384 . S
C152 H174 0.931 . S
C153 C152 1.384 . S
C153 C156 1.382 . S
C154 C152 1.384 . S
C154 C155 1.381 . S
C154 H175 0.930 . S
C155 C154 1.381 . S
C155 C157 1.381 . S
C155 C158 1.487 . S
C156 C153 1.382 . S
C156 C157 1.387 . S
C156 H176 0.930 . S
C157 C155 1.381 . S
C157 C156 1.387 . S
C157 H177 0.931 . S
C158 C155 1.487 . S
C158 C165 1.399 1_554 S
C158 N183 1.343 . S
C159 C160 1.384 . S
C159 C161 1.384 . S
C159 H178 0.931 . S
C160 C159 1.384 . S
C160 C163 1.382 . S
C161 C159 1.384 . S
C161 C162 1.381 . S
C161 H179 0.930 . S
C162 C161 1.381 . S
C162 C164 1.381 . S
C162 C165 1.487 . S
C163 C160 1.382 . S
C163 C164 1.387 . S
C163 H180 0.930 . S
C164 C162 1.381 . S
C164 C163 1.387 . S
C164 H181 0.931 . S
C165 C158 1.399 1_556 S
C165 C162 1.487 . S
C165 N182 1.343 . S
H166 C138 0.931 . S
H167 C140 0.930 . S
H168 C142 0.930 . S
H169 C143 0.931 . S
H170 C145 0.931 . S
H171 C147 0.930 . S
H172 C149 0.930 . S
H173 C150 0.931 . S
H174 C152 0.931 . S
H175 C154 0.930 . S
H176 C156 0.930 . S
H177 C157 0.931 . S
H178 C159 0.931 . S
H179 C161 0.930 . S
H180 C163 0.930 . S
H181 C164 0.931 . S
N182 C144 1.343 . S
N182 C165 1.343 . S
N183 C151 1.343 . S
N183 C158 1.343 . S
C184 C185 1.384 1_554 S
C184 C186 1.384 . S
C184 H212 0.931 . S
C185 C184 1.384 1_556 S
C185 C188 1.382 . S
C186 C184 1.384 . S
C186 C187 1.381 . S
C186 H213 0.930 . S
C187 C186 1.381 . S
C187 C189 1.381 1_554 S
C187 C190 1.487 . S
C188 C185 1.382 . S
C188 C189 1.387 . S
C188 H214 0.930 . S
C189 C187 1.381 1_556 S
C189 C188 1.387 . S
C189 H215 0.931 . S
C190 C187 1.487 . S
C190 C197 1.399 . S
C190 N228 1.343 . S
C191 C192 1.384 . S
C191 C193 1.384 . S
C191 H216 0.931 . S
C192 C191 1.384 . S
C192 C195 1.382 . S
C193 C191 1.384 . S
C193 C194 1.381 . S
C193 H217 0.930 . S
C194 C193 1.381 . S
C194 C196 1.381 . S
C194 C197 1.487 . S
C195 C192 1.382 . S
C195 C196 1.387 . S
C195 H218 0.930 . S
C196 C194 1.381 . S
C196 C195 1.387 . S
C196 H219 0.931 . S
C197 C190 1.399 . S
C197 C194 1.487 . S
C197 N229 1.343 . S
C198 C199 1.384 . S
C198 C200 1.384 . S
C198 H220 0.931 . S
C199 C198 1.384 . S
C199 C202 1.382 . S
C200 C198 1.384 . S
C200 C201 1.381 . S
C200 H221 0.930 . S
C201 C200 1.381 . S
C201 C203 1.381 . S
C201 C204 1.487 . S
C202 C199 1.382 . S
C202 C203 1.387 . S
C202 H222 0.930 . S
C203 C201 1.381 . S
C203 C202 1.387 . S
C203 H223 0.931 . S
C204 C201 1.487 . S
C204 C211 1.399 . S
C204 N229 1.343 . S
C205 C206 1.384 . S
C205 C207 1.384 1_556 S
C205 H224 0.931 . S
C206 C205 1.384 . S
C206 C209 1.382 . S
C207 C205 1.384 1_554 S
C207 C208 1.381 . S
C207 H225 0.930 . S
C208 C207 1.381 . S
C208 C210 1.381 1_554 S
C208 C211 1.487 . S
C209 C206 1.382 . S
C209 C210 1.387 . S
C209 H226 0.930 . S
C210 C208 1.381 1_556 S
C210 C209 1.387 . S
C210 H227 0.931 . S
C211 C204 1.399 . S
C211 C208 1.487 . S
C211 N228 1.343 . S
H212 C184 0.931 . S
H213 C186 0.930 . S
H214 C188 0.930 . S
H215 C189 0.931 . S
H216 C191 0.931 . S
H217 C193 0.930 . S
H218 C195 0.930 . S
H219 C196 0.931 . S
H220 C198 0.931 . S
H221 C200 0.930 . S
H222 C202 0.930 . S
H223 C203 0.931 . S
H224 C205 0.931 . S
H225 C207 0.930 . S
H226 C209 0.930 . S
H227 C210 0.931 . S
N228 C190 1.343 . S
N228 C211 1.343 . S
N229 C197 1.343 . S
N229 C204 1.343 . S
C230 C231 1.384 1_554 S
C230 C232 1.384 . S
C230 H258 0.931 . S
C231 C230 1.384 1_556 S
C231 C234 1.382 . S
C232 C230 1.384 . S
C232 C233 1.381 . S
C232 H259 0.930 . S
C233 C232 1.381 . S
C233 C235 1.381 . S
C233 C236 1.487 . S
C234 C231 1.382 . S
C234 C235 1.387 1_556 S
C234 H260 0.930 . S
C235 C233 1.381 . S
C235 C234 1.387 1_554 S
C235 H261 0.931 . S
C236 C233 1.487 . S
C236 C243 1.399 . S
C236 N274 1.343 . S
C237 C238 1.384 . S
C237 C239 1.384 . S
C237 H262 0.931 . S
C238 C237 1.384 . S
C238 C241 1.382 . S
C239 C237 1.384 . S
C239 C240 1.381 . S
C239 H263 0.930 . S
C240 C239 1.381 . S
C240 C242 1.381 . S
C240 C243 1.487 . S
C241 C238 1.382 . S
C241 C242 1.387 . S
C241 H264 0.930 . S
C242 C240 1.381 . S
C242 C241 1.387 . S
C242 H265 0.931 . S
C243 C236 1.399 . S
C243 C240 1.487 . S
C243 N275 1.343 . S
C244 C245 1.384 . S
C244 C246 1.384 . S
C244 H266 0.931 . S
C245 C244 1.384 . S
C245 C248 1.382 . S
C246 C244 1.384 . S
C246 C247 1.381 . S
C246 H267 0.930 . S
C247 C246 1.381 . S
C247 C249 1.381 . S
C247 C250 1.487 . S
C248 C245 1.382 . S
C248 C249 1.387 . S
C248 H268 0.930 . S
C249 C247 1.381 . S
C249 C248 1.387 . S
C249 H269 0.931 . S
C250 C247 1.487 . S
C250 C257 1.399 . S
C250 N275 1.343 . S
C251 C252 1.384 . S
C251 C253 1.384 . S
C251 H270 0.931 . S
C252 C251 1.384 . S
C252 C255 1.382 1_554 S
C253 C251 1.384 . S
C253 C254 1.381 . S
C253 H271 0.930 . S
C254 C253 1.381 . S
C254 C256 1.381 . S
C254 C257 1.487 . S
C255 C252 1.382 1_556 S
C255 C256 1.387 1_556 S
C255 H272 0.930 . S
C256 C254 1.381 . S
C256 C255 1.387 1_554 S
C256 H273 0.931 . S
C257 C250 1.399 . S
C257 C254 1.487 . S
C257 N274 1.343 . S
H258 C230 0.931 . S
H259 C232 0.930 . S
H260 C234 0.930 . S
H261 C235 0.931 . S
H262 C237 0.931 . S
H263 C239 0.930 . S
H264 C241 0.930 . S
H265 C242 0.931 . S
H266 C244 0.931 . S
H267 C246 0.930 . S
H268 C248 0.930 . S
H269 C249 0.931 . S
H270 C251 0.931 . S
H271 C253 0.930 . S
H272 C255 0.930 . S
H273 C256 0.931 . S
N274 C236 1.343 . S
N274 C257 1.343 . S
N275 C243 1.343 . S
N275 C250 1.343 . S
C276 O303 1.312 . S
C276 O304 1.208 . S
C277 O298 1.331 . S
C277 O301 1.244 . S
C278 O300 1.264 . S
C278 O302 1.273 . S
Mg279 O281 1.936 1_455 S
Mg279 O288 2.081 1_455 S
Mg279 O290 2.023 . S
Mg279 O294 2.031 1_455 S
Mg279 O303 2.291 . S
Mg280 O281 1.963 . S
Mg280 O291 1.942 . S
Mg280 O292 1.955 1_655 S
Mg280 O299 1.986 . S
O281 Mg279 1.936 1_655 S
O281 Mg280 1.963 . S
O281 Mg282 1.915 1_655 S
Mg282 O281 1.915 1_455 S
Mg282 O283 1.915 . S
Mg282 O287 2.013 . S
Mg282 O293 2.114 1_455 S
Mg282 O297 2.013 1_455 S
Mg282 O303 2.114 . S
O283 Mg282 1.915 . S
O283 Mg284 1.936 . S
O283 Mg285 1.963 . S
Mg284 O283 1.936 . S
Mg284 O293 2.291 1_455 S
Mg284 O298 2.081 . S
Mg284 O300 2.023 1_455 S
Mg284 O304 2.031 . S
Mg285 O283 1.963 . S
Mg285 O289 1.986 . S
Mg285 O301 1.942 . S
Mg285 O302 1.955 1_455 S
C286 O297 1.191 . S
C286 O299 1.307 . S
O287 Mg282 2.013 . S
O287 C306 1.191 . S
O288 Mg279 2.081 1_655 S
O288 C296 1.331 . S
O289 Mg285 1.986 . S
O289 C306 1.307 . S
O290 Mg279 2.023 . S
O290 C305 1.264 . S
O291 Mg280 1.942 . S
O291 C296 1.244 . S
O292 Mg280 1.955 1_455 S
O292 C305 1.273 . S
O293 Mg282 2.114 1_655 S
O293 Mg284 2.291 1_655 S
O293 C295 1.312 . S
O294 Mg279 2.031 1_655 S
O294 C295 1.208 . S
C295 O293 1.312 . S
C295 O294 1.208 . S
C296 O288 1.331 . S
C296 O291 1.244 . S
O297 Mg282 2.013 1_655 S
O297 C286 1.191 . S
O298 C277 1.331 . S
O298 Mg284 2.081 . S
O299 Mg280 1.986 . S
O299 C286 1.307 . S
O300 C278 1.264 . S
O300 Mg284 2.023 1_655 S
O301 C277 1.244 . S
O301 Mg285 1.942 . S
O302 C278 1.273 . S
O302 Mg285 1.955 1_655 S
O303 C276 1.312 . S
O303 Mg279 2.291 . S
O303 Mg282 2.114 . S
O304 C276 1.208 . S
O304 Mg284 2.031 . S
C305 O290 1.264 . S
C305 O292 1.273 . S
C306 O287 1.191 . S
C306 O289 1.307 . S
C307 O334 1.312 . S
C307 O335 1.208 . S
C308 O329 1.331 . S
C308 O332 1.244 . S
C309 O331 1.264 . S
C309 O333 1.273 . S
Mg310 O312 1.936 1_545 S
Mg310 O319 2.081 1_545 S
Mg310 O321 2.023 . S
Mg310 O325 2.031 1_545 S
Mg310 O334 2.291 . S
Mg311 O312 1.960 . S
Mg311 O322 1.945 . S
Mg311 O323 1.934 1_565 S
Mg311 O330 2.005 . S
O312 Mg310 1.936 1_565 S
O312 Mg311 1.960 . S
O312 Mg313 1.915 1_565 S
Mg313 O312 1.915 1_545 S
Mg313 O314 1.915 . S
Mg313 O318 2.013 . S
Mg313 O324 2.114 1_545 S
Mg313 O328 2.013 1_545 S
Mg313 O334 2.114 . S
O314 Mg313 1.915 . S
O314 Mg315 1.936 . S
O314 Mg316 1.963 . S
Mg315 O314 1.936 . S
Mg315 O324 2.291 1_545 S
Mg315 O329 2.081 . S
Mg315 O331 2.023 1_545 S
Mg315 O335 2.031 . S
Mg316 O314 1.963 . S
Mg316 O320 1.986 . S
Mg316 O332 1.942 . S
Mg316 O333 1.955 1_545 S
C317 O328 1.191 . S
C317 O330 1.307 . S
O318 Mg313 2.013 . S
O318 C337 1.191 . S
O319 Mg310 2.081 1_565 S
O319 C327 1.331 . S
O320 Mg316 1.986 . S
O320 C337 1.307 . S
O321 Mg310 2.023 . S
O321 C336 1.264 . S
O322 Mg311 1.945 . S
O322 C327 1.244 . S
O323 Mg311 1.934 1_545 S
O323 C336 1.273 . S
O324 Mg313 2.114 1_565 S
O324 Mg315 2.291 1_565 S
O324 C326 1.312 . S
O325 Mg310 2.031 1_565 S
O325 C326 1.208 . S
C326 O324 1.312 . S
C326 O325 1.208 . S
C327 O319 1.331 . S
C327 O322 1.244 . S
O328 Mg313 2.013 1_565 S
O328 C317 1.191 . S
O329 C308 1.331 . S
O329 Mg315 2.081 . S
O330 Mg311 2.005 . S
O330 C317 1.307 . S
O331 C309 1.264 . S
O331 Mg315 2.023 1_565 S
O332 C308 1.244 . S
O332 Mg316 1.942 . S
O333 C309 1.273 . S
O333 Mg316 1.955 1_565 S
O334 C307 1.312 . S
O334 Mg310 2.291 . S
O334 Mg313 2.114 . S
O335 C307 1.208 . S
O335 Mg315 2.031 . S
C336 O321 1.264 . S
C336 O323 1.273 . S
C337 O318 1.191 . S
C337 O320 1.307 . S
C338 O365 1.312 . S
C338 O366 1.208 . S
C339 O360 1.331 . S
C339 O363 1.244 . S
C340 O362 1.264 . S
C340 O364 1.273 . S
Mg341 O343 1.936 . S
Mg341 O350 2.081 . S
Mg341 O352 2.023 . S
Mg341 O356 2.031 . S
Mg341 O365 2.291 . S
Mg342 O343 1.963 . S
Mg342 O353 1.942 . S
Mg342 O354 1.955 . S
Mg342 O361 1.986 . S
O343 Mg341 1.936 . S
O343 Mg342 1.963 . S
O343 Mg344 1.915 . S
Mg344 O343 1.915 . S
Mg344 O345 1.915 . S
Mg344 O349 2.013 . S
Mg344 O355 2.114 . S
Mg344 O359 2.013 . S
Mg344 O365 2.114 . S
O345 Mg344 1.915 . S
O345 Mg346 1.936 . S
O345 Mg347 1.963 . S
Mg346 O345 1.936 . S
Mg346 O355 2.291 . S
Mg346 O360 2.081 . S
Mg346 O362 2.023 . S
Mg346 O366 2.031 . S
Mg347 O345 1.963 . S
Mg347 O351 1.986 . S
Mg347 O363 1.942 . S
Mg347 O364 1.955 . S
C348 O359 1.191 . S
C348 O361 1.307 . S
O349 Mg344 2.013 . S
O349 C368 1.191 . S
O350 Mg341 2.081 . S
O350 C358 1.331 . S
O351 Mg347 1.986 . S
O351 C368 1.307 . S
O352 Mg341 2.023 . S
O352 C367 1.264 . S
O353 Mg342 1.942 . S
O353 C358 1.244 . S
O354 Mg342 1.955 . S
O354 C367 1.273 . S
O355 Mg344 2.114 . S
O355 Mg346 2.291 . S
O355 C357 1.312 . S
O356 Mg341 2.031 . S
O356 C357 1.208 . S
C357 O355 1.312 . S
C357 O356 1.208 . S
C358 O350 1.331 . S
C358 O353 1.244 . S
O359 Mg344 2.013 . S
O359 C348 1.191 . S
O360 C339 1.331 . S
O360 Mg346 2.081 . S
O361 Mg342 1.986 . S
O361 C348 1.307 . S
O362 C340 1.264 . S
O362 Mg346 2.023 . S
O363 C339 1.244 . S
O363 Mg347 1.942 . S
O364 C340 1.273 . S
O364 Mg347 1.955 . S
O365 C338 1.312 . S
O365 Mg341 2.291 . S
O365 Mg344 2.114 . S
O366 C338 1.208 . S
O366 Mg346 2.031 . S
C367 O352 1.264 . S
C367 O354 1.273 . S
C368 O349 1.191 . S
C368 O351 1.307 . S
C369 C370 1.363 . S
C369 C375 1.379 . S
C369 N377 1.356 . S
C370 C369 1.363 . S
C370 C376 1.363 . S
C371 C372 1.363 . S
C371 C376 1.379 . S
C371 N378 1.356 . S
C372 C371 1.363 . S
C372 C375 1.363 . S
N373 C375 1.356 . S
N373 H385 0.984 . S
N373 H386 0.985 . S
N374 C376 1.356 . S
N374 H379 0.984 . S
N374 H380 0.985 . S
C375 C369 1.379 . S
C375 C372 1.363 . S
C375 N373 1.356 . S
C376 C370 1.363 . S
C376 C371 1.379 . S
C376 N374 1.356 . S
N377 C369 1.356 . S
N377 H383 0.984 . S
N377 H384 0.984 . S
N378 C371 1.356 . S
N378 H381 0.984 . S
N378 H382 0.985 . S
H379 N374 0.984 . S
H380 N374 0.985 . S
H381 N378 0.984 . S
H382 N378 0.985 . S
H383 N377 0.984 . S
H384 N377 0.984 . S
H385 N373 0.984 . S
H386 N373 0.985 . S
C387 C388 1.363 . S
C387 C393 1.379 . S
C387 N395 1.356 . S
C388 C387 1.363 . S
C388 C394 1.363 . S
C389 C390 1.363 . S
C389 C394 1.379 . S
C389 N396 1.356 . S
C390 C389 1.363 . S
C390 C393 1.363 . S
N391 C393 1.356 . S
N391 H403 0.984 . S
N391 H404 0.985 . S
N392 C394 1.356 . S
N392 H397 0.984 . S
N392 H398 0.985 . S
C393 C387 1.379 . S
C393 C390 1.363 . S
C393 N391 1.356 . S
C394 C388 1.363 . S
C394 C389 1.379 . S
C394 N392 1.356 . S
N395 C387 1.356 . S
N395 H401 0.984 . S
N395 H402 0.984 . S
N396 C389 1.356 . S
N396 H399 0.984 . S
N396 H400 0.985 . S
H397 N392 0.984 . S
H398 N392 0.985 . S
H399 N396 0.984 . S
H400 N396 0.985 . S
H401 N395 0.984 . S
H402 N395 0.984 . S
H403 N391 0.984 . S
H404 N391 0.985 . S
C405 C406 1.363 . S
C405 C411 1.379 . S
C405 N413 1.356 . S
C406 C405 1.363 . S
C406 C412 1.363 . S
C407 C408 1.363 . S
C407 C412 1.379 . S
C407 N414 1.356 . S
C408 C407 1.363 . S
C408 C411 1.363 . S
N409 C411 1.356 . S
N409 H421 0.984 . S
N409 H422 0.985 . S
N410 C412 1.356 . S
N410 H415 0.984 . S
N410 H416 0.985 . S
C411 C405 1.379 . S
C411 C408 1.363 . S
C411 N409 1.356 . S
C412 C406 1.363 . S
C412 C407 1.379 . S
C412 N410 1.356 . S
N413 C405 1.356 . S
N413 H419 0.984 . S
N413 H420 0.984 . S
N414 C407 1.356 . S
N414 H417 0.984 . S
N414 H418 0.985 . S
H415 N410 0.984 . S
H416 N410 0.985 . S
H417 N414 0.984 . S
H418 N414 0.985 . S
H419 N413 0.984 . S
H420 N413 0.984 . S
H421 N409 0.984 . S
H422 N409 0.985 . S
C423 C424 1.363 . S
C423 C429 1.379 . S
C423 N431 1.356 . S
C424 C423 1.363 . S
C424 C430 1.363 . S
C425 C426 1.363 . S
C425 C430 1.379 . S
C425 N432 1.356 . S
C426 C425 1.363 . S
C426 C429 1.363 . S
N427 C429 1.356 . S
N427 H439 0.984 . S
N427 H440 0.985 . S
N428 C430 1.356 . S
N428 H433 0.984 . S
N428 H434 0.985 . S
C429 C423 1.379 . S
C429 C426 1.363 . S
C429 N427 1.356 . S
C430 C424 1.363 . S
C430 C425 1.379 . S
C430 N428 1.356 . S
N431 C423 1.356 . S
N431 H437 0.984 . S
N431 H438 0.984 . S
N432 C425 1.356 . S
N432 H435 0.984 . S
N432 H436 0.985 . S
H433 N428 0.984 . S
H434 N428 0.985 . S
H435 N432 0.984 . S
H436 N432 0.985 . S
H437 N431 0.984 . S
H438 N431 0.984 . S
H439 N427 0.984 . S
H440 N427 0.985 . S
C441 C442 1.363 . S
C441 C447 1.379 . S
C441 N449 1.356 . S
C442 C441 1.363 . S
C442 C448 1.363 . S
C443 C444 1.363 . S
C443 C448 1.379 . S
C443 N450 1.356 . S
C444 C443 1.363 . S
C444 C447 1.363 . S
N445 C447 1.356 . S
N445 H457 0.984 . S
N445 H458 0.985 . S
N446 C448 1.356 . S
N446 H451 0.984 . S
N446 H452 0.985 . S
C447 C441 1.379 . S
C447 C444 1.363 . S
C447 N445 1.356 . S
C448 C442 1.363 . S
C448 C443 1.379 . S
C448 N446 1.356 . S
N449 C441 1.356 . S
N449 H455 0.984 . S
N449 H456 0.984 . S
N450 C443 1.356 . S
N450 H453 0.984 . S
N450 H454 0.985 . S
H451 N446 0.984 . S
H452 N446 0.985 . S
H453 N450 0.984 . S
H454 N450 0.985 . S
H455 N449 0.984 . S
H456 N449 0.984 . S
H457 N445 0.984 . S
H458 N445 0.985 . S
C459 C460 1.363 . S
C459 C465 1.379 . S
C459 N467 1.356 . S
C460 C459 1.363 . S
C460 C466 1.363 . S
C461 C462 1.363 . S
C461 C466 1.379 . S
C461 N468 1.356 . S
C462 C461 1.363 . S
C462 C465 1.363 . S
N463 C465 1.356 . S
N463 H475 0.984 . S
N463 H476 0.985 . S
N464 C466 1.356 . S
N464 H469 0.984 . S
N464 H470 0.985 . S
C465 C459 1.379 . S
C465 C462 1.363 . S
C465 N463 1.356 . S
C466 C460 1.363 . S
C466 C461 1.379 . S
C466 N464 1.356 . S
N467 C459 1.356 . S
N467 H473 0.984 . S
N467 H474 0.984 . S
N468 C461 1.356 . S
N468 H471 0.984 . S
N468 H472 0.985 . S
H469 N464 0.984 . S
H470 N464 0.985 . S
H471 N468 0.984 . S
H472 N468 0.985 . S
H473 N467 0.984 . S
H474 N467 0.984 . S
H475 N463 0.984 . S
H476 N463 0.985 . S
C477 C478 1.363 . S
C477 C483 1.379 . S
C477 N485 1.356 . S
C478 C477 1.363 . S
C478 C484 1.363 . S
C479 C480 1.363 . S
C479 C484 1.379 . S
C479 N486 1.356 . S
C480 C479 1.363 . S
C480 C483 1.363 . S
N481 C483 1.356 . S
N481 H493 0.984 . S
N481 H494 0.985 . S
N482 C484 1.356 . S
N482 H487 0.984 . S
N482 H488 0.985 . S
C483 C477 1.379 . S
C483 C480 1.363 . S
C483 N481 1.356 . S
C484 C478 1.363 . S
C484 C479 1.379 . S
C484 N482 1.356 . S
N485 C477 1.356 . S
N485 H491 0.984 . S
N485 H492 0.984 . S
N486 C479 1.356 . S
N486 H489 0.984 . S
N486 H490 0.985 . S
H487 N482 0.984 . S
H488 N482 0.985 . S
H489 N486 0.984 . S
H490 N486 0.985 . S
H491 N485 0.984 . S
H492 N485 0.984 . S
H493 N481 0.984 . S
H494 N481 0.985 . S
C495 C496 1.363 . S
C495 C501 1.379 . S
C495 N503 1.356 . S
C496 C495 1.363 . S
C496 C502 1.363 . S
C497 C498 1.363 . S
C497 C502 1.379 . S
C497 N504 1.356 . S
C498 C497 1.363 . S
C498 C501 1.363 . S
N499 C501 1.356 . S
N499 H511 0.984 . S
N499 H512 0.985 . S
N500 C502 1.356 . S
N500 H505 0.984 . S
N500 H506 0.985 . S
C501 C495 1.379 . S
C501 C498 1.363 . S
C501 N499 1.356 . S
C502 C496 1.363 . S
C502 C497 1.379 . S
C502 N500 1.356 . S
N503 C495 1.356 . S
N503 H509 0.984 . S
N503 H510 0.984 . S
N504 C497 1.356 . S
N504 H507 0.984 . S
N504 H508 0.985 . S
H505 N500 0.984 . S
H506 N500 0.985 . S
H507 N504 0.984 . S
H508 N504 0.985 . S
H509 N503 0.984 . S
H510 N503 0.984 . S
H511 N499 0.984 . S
H512 N499 0.985 . S
C513 C514 1.363 . S
C513 C519 1.379 . S
C513 N521 1.356 . S
C514 C513 1.363 . S
C514 C520 1.363 . S
C515 C516 1.363 . S
C515 C520 1.379 . S
C515 N522 1.356 . S
C516 C515 1.363 . S
C516 C519 1.363 . S
N517 C519 1.356 . S
N517 H529 0.984 . S
N517 H530 0.985 . S
N518 C520 1.356 . S
N518 H523 0.984 . S
N518 H524 0.985 . S
C519 C513 1.379 . S
C519 C516 1.363 . S
C519 N517 1.356 . S
C520 C514 1.363 . S
C520 C515 1.379 . S
C520 N518 1.356 . S
N521 C513 1.356 . S
N521 H527 0.984 . S
N521 H528 0.984 . S
N522 C515 1.356 . S
N522 H525 0.984 . S
N522 H526 0.985 . S
H523 N518 0.984 . S
H524 N518 0.985 . S
H525 N522 0.984 . S
H526 N522 0.985 . S
H527 N521 0.984 . S
H528 N521 0.984 . S
H529 N517 0.984 . S
H530 N517 0.985 . S
C531 C532 1.363 . S
C531 C537 1.379 . S
C531 N539 1.356 . S
C532 C531 1.363 . S
C532 C538 1.363 . S
C533 C534 1.363 . S
C533 C538 1.379 . S
C533 N540 1.356 . S
C534 C533 1.363 . S
C534 C537 1.363 . S
N535 C537 1.356 . S
N535 H547 0.984 . S
N535 H548 0.985 . S
N536 C538 1.356 1_554 S
N536 H541 0.984 . S
N536 H542 0.985 . S
C537 C531 1.379 . S
C537 C534 1.363 . S
C537 N535 1.356 . S
C538 C532 1.363 . S
C538 C533 1.379 . S
C538 N536 1.356 1_556 S
N539 C531 1.356 . S
N539 H545 0.984 . S
N539 H546 0.984 . S
N540 C533 1.356 . S
N540 H543 0.984 . S
N540 H544 0.985 . S
H541 N536 0.984 . S
H542 N536 0.985 . S
H543 N540 0.984 . S
H544 N540 0.985 . S
H545 N539 0.984 . S
H546 N539 0.984 . S
H547 N535 0.984 . S
H548 N535 0.985 . S
C549 C550 1.363 . S
C549 C555 1.379 . S
C549 N557 1.356 . S
C550 C549 1.363 . S
C550 C556 1.363 . S
C551 C552 1.363 . S
C551 C556 1.379 . S
C551 N558 1.356 . S
C552 C551 1.363 . S
C552 C555 1.363 . S
N553 C555 1.356 . S
N553 H565 0.984 . S
N553 H566 0.985 . S
N554 C556 1.356 1_554 S
N554 H559 0.984 . S
N554 H560 0.985 . S
C555 C549 1.379 . S
C555 C552 1.363 . S
C555 N553 1.356 . S
C556 C550 1.363 . S
C556 C551 1.379 . S
C556 N554 1.356 1_556 S
N557 C549 1.356 . S
N557 H563 0.984 . S
N557 H564 0.984 . S
N558 C551 1.356 . S
N558 H561 0.984 . S
N558 H562 0.985 . S
H559 N554 0.984 . S
H560 N554 0.985 . S
H561 N558 0.984 . S
H562 N558 0.985 . S
H563 N557 0.984 . S
H564 N557 0.984 . S
H565 N553 0.984 . S
H566 N553 0.985 . S
C567 C568 1.363 . S
C567 C573 1.379 . S
C567 N575 1.356 . S
C568 C567 1.363 . S
C568 C574 1.363 . S
C569 C570 1.363 . S
C569 C574 1.379 . S
C569 N576 1.356 . S
C570 C569 1.363 . S
C570 C573 1.363 . S
N571 C573 1.356 . S
N571 H583 0.984 . S
N571 H584 0.985 . S
N572 C574 1.356 . S
N572 H577 0.984 1_556 S
N572 H578 0.985 1_556 S
C573 C567 1.379 . S
C573 C570 1.363 . S
C573 N571 1.356 . S
C574 C568 1.363 . S
C574 C569 1.379 . S
C574 N572 1.356 . S
N575 C567 1.356 . S
N575 H581 0.984 . S
N575 H582 0.984 . S
N576 C569 1.356 . S
N576 H579 0.984 . S
N576 H580 0.985 . S
H577 N572 0.984 1_554 S
H578 N572 0.985 1_554 S
H579 N576 0.984 . S
H580 N576 0.985 . S
H581 N575 0.984 . S
H582 N575 0.984 . S
H583 N571 0.984 . S
H584 N571 0.985 . S
C585 C586 1.363 . S
C585 C591 1.379 . S
C585 N593 1.356 . S
C586 C585 1.363 . S
C586 C592 1.363 . S
C587 C588 1.363 . S
C587 C592 1.379 . S
C587 N594 1.356 . S
C588 C587 1.363 . S
C588 C591 1.363 . S
N589 C591 1.356 . S
N589 H601 0.984 . S
N589 H602 0.985 . S
N590 C592 1.356 . S
N590 H595 0.984 . S
N590 H596 0.985 . S
C591 C585 1.379 . S
C591 C588 1.363 . S
C591 N589 1.356 . S
C592 C586 1.363 . S
C592 C587 1.379 . S
C592 N590 1.356 . S
N593 C585 1.356 . S
N593 H599 0.984 . S
N593 H600 0.984 . S
N594 C587 1.356 . S
N594 H597 0.984 . S
N594 H598 0.985 . S
H595 N590 0.984 . S
H596 N590 0.985 . S
H597 N594 0.984 . S
H598 N594 0.985 . S
H599 N593 0.984 . S
H600 N593 0.984 . S
H601 N589 0.984 . S
H602 N589 0.985 . S
C603 C604 1.363 . S
C603 C609 1.379 . S
C603 N611 1.356 . S
C604 C603 1.363 . S
C604 C610 1.363 . S
C605 C606 1.363 . S
C605 C610 1.379 . S
C605 N612 1.356 . S
C606 C605 1.363 . S
C606 C609 1.363 . S
N607 C609 1.356 . S
N607 H619 0.984 . S
N607 H620 0.985 . S
N608 C610 1.356 . S
N608 H613 0.984 . S
N608 H614 0.985 . S
C609 C603 1.379 . S
C609 C606 1.363 . S
C609 N607 1.356 . S
C610 C604 1.363 . S
C610 C605 1.379 . S
C610 N608 1.356 . S
N611 C603 1.356 . S
N611 H617 0.984 1_556 S
N611 H618 0.984 1_556 S
N612 C605 1.356 . S
N612 H615 0.984 . S
N612 H616 0.985 . S
H613 N608 0.984 . S
H614 N608 0.985 . S
H615 N612 0.984 . S
H616 N612 0.985 . S
H617 N611 0.984 1_554 S
H618 N611 0.984 1_554 S
H619 N607 0.984 . S
H620 N607 0.985 . S
C621 C622 1.363 . S
C621 C627 1.379 . S
C621 N629 1.356 . S
C622 C621 1.363 . S
C622 C628 1.363 . S
C623 C624 1.363 . S
C623 C628 1.379 . S
C623 N630 1.356 . S
C624 C623 1.363 . S
C624 C627 1.363 . S
N625 C627 1.356 . S
N625 H637 0.984 . S
N625 H638 0.985 . S
N626 C628 1.356 1_554 S
N626 H631 0.984 . S
N626 H632 0.985 . S
C627 C621 1.379 . S
C627 C624 1.363 . S
C627 N625 1.356 . S
C628 C622 1.363 . S
C628 C623 1.379 . S
C628 N626 1.356 1_556 S
N629 C621 1.356 . S
N629 H635 0.984 . S
N629 H636 0.984 . S
N630 C623 1.356 . S
N630 H633 0.984 . S
N630 H634 0.985 . S
H631 N626 0.984 . S
H632 N626 0.985 . S
H633 N630 0.984 . S
H634 N630 0.985 . S
H635 N629 0.984 . S
H636 N629 0.984 . S
H637 N625 0.984 . S
H638 N625 0.985 . S
C639 C640 1.363 . S
C639 C645 1.379 . S
C639 N647 1.356 . S
C640 C639 1.363 . S
C640 C646 1.363 . S
C641 C642 1.363 . S
C641 C646 1.379 . S
C641 N648 1.356 . S
C642 C641 1.363 . S
C642 C645 1.363 . S
N643 C645 1.356 . S
N643 H655 0.984 . S
N643 H656 0.985 . S
N644 C646 1.356 1_554 S
N644 H649 0.984 . S
N644 H650 0.985 . S
C645 C639 1.379 . S
C645 C642 1.363 . S
C645 N643 1.356 . S
C646 C640 1.363 . S
C646 C641 1.379 . S
C646 N644 1.356 1_556 S
N647 C639 1.356 . S
N647 H653 0.984 . S
N647 H654 0.984 . S
N648 C641 1.356 . S
N648 H651 0.984 . S
N648 H652 0.985 . S
H649 N644 0.984 . S
H650 N644 0.985 . S
H651 N648 0.984 . S
H652 N648 0.985 . S
H653 N647 0.984 . S
H654 N647 0.984 . S
H655 N643 0.984 . S
H656 N643 0.985 . S
C657 C658 1.363 . S
C657 C663 1.379 . S
C657 N665 1.356 . S
C658 C657 1.363 . S
C658 C664 1.363 . S
C659 C660 1.363 . S
C659 C664 1.379 . S
C659 N666 1.356 . S
C660 C659 1.363 . S
C660 C663 1.363 . S
N661 C663 1.356 . S
N661 H673 0.984 . S
N661 H674 0.985 . S
N662 C664 1.356 . S
N662 H667 0.984 . S
N662 H668 0.985 . S
C663 C657 1.379 . S
C663 C660 1.363 . S
C663 N661 1.356 . S
C664 C658 1.363 . S
C664 C659 1.379 . S
C664 N662 1.356 . S
N665 C657 1.356 . S
N665 H671 0.984 . S
N665 H672 0.984 . S
N666 C659 1.356 . S
N666 H669 0.984 . S
N666 H670 0.985 . S
H667 N662 0.984 . S
H668 N662 0.985 . S
H669 N666 0.984 . S
H670 N666 0.985 . S
H671 N665 0.984 . S
H672 N665 0.984 . S
H673 N661 0.984 . S
H674 N661 0.985 . S
C675 C676 1.363 . S
C675 C681 1.379 . S
C675 N683 1.356 . S
C676 C675 1.363 . S
C676 C682 1.363 . S
C677 C678 1.363 . S
C677 C682 1.379 . S
C677 N684 1.356 . S
C678 C677 1.363 . S
C678 C681 1.363 . S
N679 C681 1.356 . S
N679 H691 0.984 . S
N679 H692 0.985 . S
N680 C682 1.356 . S
N680 H685 0.984 . S
N680 H686 0.985 . S
C681 C675 1.379 . S
C681 C678 1.363 . S
C681 N679 1.356 . S
C682 C676 1.363 . S
C682 C677 1.379 . S
C682 N680 1.356 . S
N683 C675 1.356 . S
N683 H689 0.984 . S
N683 H690 0.984 . S
N684 C677 1.356 . S
N684 H687 0.984 . S
N684 H688 0.985 . S
H685 N680 0.984 . S
H686 N680 0.985 . S
H687 N684 0.984 . S
H688 N684 0.985 . S
H689 N683 0.984 . S
H690 N683 0.984 . S
H691 N679 0.984 . S
H692 N679 0.985 . S
C693 C694 1.363 . S
C693 C699 1.379 . S
C693 N701 1.356 . S
C694 C693 1.363 . S
C694 C700 1.363 . S
C695 C696 1.363 . S
C695 C700 1.379 . S
C695 N702 1.356 . S
C696 C695 1.363 . S
C696 C699 1.363 . S
N697 C699 1.356 . S
N697 H709 0.984 . S
N697 H710 0.985 . S
N698 C700 1.356 . S
N698 H703 0.984 . S
N698 H704 0.985 . S
C699 C693 1.379 . S
C699 C696 1.363 . S
C699 N697 1.356 . S
C700 C694 1.363 . S
C700 C695 1.379 . S
C700 N698 1.356 . S
N701 C693 1.356 . S
N701 H707 0.984 . S
N701 H708 0.984 . S
N702 C695 1.356 . S
N702 H705 0.984 . S
N702 H706 0.985 . S
H703 N698 0.984 . S
H704 N698 0.985 . S
H705 N702 0.984 . S
H706 N702 0.985 . S
H707 N701 0.984 . S
H708 N701 0.984 . S
H709 N697 0.984 . S
H710 N697 0.985 . S
C711 C712 1.363 . S
C711 C717 1.379 . S
C711 N719 1.356 . S
C712 C711 1.363 . S
C712 C718 1.363 . S
C713 C714 1.363 . S
C713 C718 1.379 . S
C713 N720 1.356 . S
C714 C713 1.363 . S
C714 C717 1.363 . S
N715 C717 1.356 . S
N715 H727 0.984 . S
N715 H728 0.985 . S
N716 C718 1.356 . S
N716 H721 0.984 . S
N716 H722 0.985 . S
C717 C711 1.379 . S
C717 C714 1.363 . S
C717 N715 1.356 . S
C718 C712 1.363 . S
C718 C713 1.379 . S
C718 N716 1.356 . S
N719 C711 1.356 . S
N719 H725 0.984 . S
N719 H726 0.984 . S
N720 C713 1.356 . S
N720 H723 0.984 . S
N720 H724 0.985 . S
H721 N716 0.984 . S
H722 N716 0.985 . S
H723 N720 0.984 . S
H724 N720 0.985 . S
H725 N719 0.984 . S
H726 N719 0.984 . S
H727 N715 0.984 . S
H728 N715 0.985 . S
C729 C730 1.363 . S
C729 C735 1.379 . S
C729 N737 1.356 . S
C730 C729 1.363 . S
C730 C736 1.363 . S
C731 C732 1.363 . S
C731 C736 1.379 . S
C731 N738 1.356 . S
C732 C731 1.363 . S
C732 C735 1.363 . S
N733 C735 1.356 . S
N733 H745 0.984 . S
N733 H746 0.985 . S
N734 C736 1.356 . S
N734 H739 0.984 . S
N734 H740 0.985 . S
C735 C729 1.379 . S
C735 C732 1.363 . S
C735 N733 1.356 . S
C736 C730 1.363 . S
C736 C731 1.379 . S
C736 N734 1.356 . S
N737 C729 1.356 . S
N737 H743 0.984 . S
N737 H744 0.984 . S
N738 C731 1.356 . S
N738 H741 0.984 . S
N738 H742 0.985 . S
H739 N734 0.984 . S
H740 N734 0.985 . S
H741 N738 0.984 . S
H742 N738 0.985 . S
H743 N737 0.984 . S
H744 N737 0.984 . S
H745 N733 0.984 . S
H746 N733 0.985 . S
C747 C748 1.363 . S
C747 C753 1.379 . S
C747 N755 1.356 . S
C748 C747 1.363 . S
C748 C754 1.363 . S
C749 C750 1.363 . S
C749 C754 1.379 . S
C749 N756 1.356 . S
C750 C749 1.363 . S
C750 C753 1.363 . S
N751 C753 1.356 . S
N751 H763 0.984 . S
N751 H764 0.985 . S
N752 C754 1.356 . S
N752 H757 0.984 . S
N752 H758 0.985 . S
C753 C747 1.379 . S
C753 C750 1.363 . S
C753 N751 1.356 . S
C754 C748 1.363 . S
C754 C749 1.379 . S
C754 N752 1.356 . S
N755 C747 1.356 . S
N755 H761 0.984 . S
N755 H762 0.984 . S
N756 C749 1.356 . S
N756 H759 0.984 . S
N756 H760 0.985 . S
H757 N752 0.984 . S
H758 N752 0.985 . S
H759 N756 0.984 . S
H760 N756 0.985 . S
H761 N755 0.984 . S
H762 N755 0.984 . S
H763 N751 0.984 . S
H764 N751 0.985 . S
C765 C766 1.363 . S
C765 C771 1.379 . S
C765 N773 1.356 . S
C766 C765 1.363 . S
C766 C772 1.363 . S
C767 C768 1.363 . S
C767 C772 1.379 . S
C767 N774 1.356 . S
C768 C767 1.363 . S
C768 C771 1.363 . S
N769 C771 1.356 . S
N769 H781 0.984 . S
N769 H782 0.985 . S
N770 C772 1.356 . S
N770 H775 0.984 . S
N770 H776 0.985 . S
C771 C765 1.379 . S
C771 C768 1.363 . S
C771 N769 1.356 . S
C772 C766 1.363 . S
C772 C767 1.379 . S
C772 N770 1.356 . S
N773 C765 1.356 . S
N773 H779 0.984 . S
N773 H780 0.984 . S
N774 C767 1.356 . S
N774 H777 0.984 . S
N774 H778 0.985 . S
H775 N770 0.984 . S
H776 N770 0.985 . S
H777 N774 0.984 . S
H778 N774 0.985 . S
H779 N773 0.984 . S
H780 N773 0.984 . S
H781 N769 0.984 . S
H782 N769 0.985 . S
C783 C784 1.363 . S
C783 C789 1.379 . S
C783 N791 1.356 . S
C784 C783 1.363 . S
C784 C790 1.363 . S
C785 C786 1.363 . S
C785 C790 1.379 . S
C785 N792 1.356 . S
C786 C785 1.363 . S
C786 C789 1.363 . S
N787 C789 1.356 . S
N787 H799 0.984 . S
N787 H800 0.985 . S
N788 C790 1.356 . S
N788 H793 0.984 . S
N788 H794 0.985 . S
C789 C783 1.379 . S
C789 C786 1.363 . S
C789 N787 1.356 . S
C790 C784 1.363 . S
C790 C785 1.379 . S
C790 N788 1.356 . S
N791 C783 1.356 . S
N791 H797 0.984 . S
N791 H798 0.984 . S
N792 C785 1.356 . S
N792 H795 0.984 . S
N792 H796 0.985 . S
H793 N788 0.984 . S
H794 N788 0.985 . S
H795 N792 0.984 . S
H796 N792 0.985 . S
H797 N791 0.984 . S
H798 N791 0.984 . S
H799 N787 0.984 . S
H800 N787 0.985 . S
C370 C15 1.823 . S
C372 C276 1.732 . S
C388 C47 1.554 . S
C390 C308 1.521 . S
C408 C367 1.816 . S
C406 C100 1.884 . S
C426 C296 1.407 . S
C424 C146 1.456 . S
C442 C192 1.768 . S
C444 C326 1.632 . S
C462 C348 1.368 . S
C460 C245 1.342 . S
C480 C317 1.757 . S
C478 C114 1.748 . S
C496 C160 1.427 . S
C498 C357 1.358 . S
C516 C306 1.674 . S
C514 C206 1.686 . S
C532 C231 1.521 . S
C534 C336 1.467 . S
C550 C1 1.812 1_556 S
C552 C339 1.748 . S
C570 C278 1.588 . S
C568 C61 1.605 . S
C588 C286 1.691 . S
C586 C139 1.739 . S
C606 C327 1.496 . S
C604 C185 1.514 . S
C624 C340 1.827 . S
C622 C252 1.894 1_556 S
C642 C277 1.421 . S
C640 C22 1.468 1_556 S
C660 C337 1.600 . S
C658 C54 1.657 . S
C676 C93 1.356 . S
C678 C338 1.345 . S
C696 C307 1.698 . S
C694 C238 1.736 . S
C714 C368 1.341 . S
C712 C8 1.374 . S
C732 C295 1.614 . S
C730 C68 1.701 . S
C750 C309 1.496 . S
C748 C107 1.548 . S
C766 C153 1.808 . S
C768 C358 1.744 . S
C784 C199 1.625 . S
C786 C305 1.592 . S
