# Generated by pormake.
# Topology bwt, (3,3)-cn, num edge types: 1
# Building blocks:
#     Node 0, Type 0, BuildingBlock: OLANEW_clean_sbu_2, # of connection points: 3
#     Node 1, Type 0, BuildingBlock: OLANEW_clean_sbu_2, # of connection points: 3
#     Node 2, Type 0, BuildingBlock: OLANEW_clean_sbu_2, # of connection points: 3
#     Node 3, Type 0, BuildingBlock: OLANEW_clean_sbu_2, # of connection points: 3
#     Node 4, Type 0, BuildingBlock: OLANEW_clean_sbu_2, # of connection points: 3
#     Node 5, Type 0, BuildingBlock: OLANEW_clean_sbu_2, # of connection points: 3
#     Node 6, Type 0, BuildingBlock: OLANEW_clean_sbu_2, # of connection points: 3
#     Node 7, Type 0, BuildingBlock: OLANEW_clean_sbu_2, # of connection points: 3
#     Node 8, Type 0, BuildingBlock: OLANEW_clean_sbu_2, # of connection points: 3
#     Node 9, Type 0, BuildingBlock: OLANEW_clean_sbu_2, # of connection points: 3
#     Node 10, Type 0, BuildingBlock: OLANEW_clean_sbu_2, # of connection points: 3
#     Node 11, Type 0, BuildingBlock: OLANEW_clean_sbu_2, # of connection points: 3
#     Node 12, Type 0, BuildingBlock: OLANEW_clean_sbu_2, # of connection points: 3
#     Node 13, Type 0, BuildingBlock: OLANEW_clean_sbu_2, # of connection points: 3
#     Node 14, Type 0, BuildingBlock: OLANEW_clean_sbu_2, # of connection points: 3
#     Node 15, Type 0, BuildingBlock: OLANEW_clean_sbu_2, # of connection points: 3
#     Node 16, Type 0, BuildingBlock: OLANEW_clean_sbu_2, # of connection points: 3
#     Node 17, Type 0, BuildingBlock: OLANEW_clean_sbu_2, # of connection points: 3
#     Node 18, Type 0, BuildingBlock: OLANEW_clean_sbu_2, # of connection points: 3
#     Node 19, Type 0, BuildingBlock: OLANEW_clean_sbu_2, # of connection points: 3
#     Node 20, Type 0, BuildingBlock: OLANEW_clean_sbu_2, # of connection points: 3
#     Node 21, Type 0, BuildingBlock: OLANEW_clean_sbu_2, # of connection points: 3
#     Node 22, Type 0, BuildingBlock: OLANEW_clean_sbu_2, # of connection points: 3
#     Node 23, Type 0, BuildingBlock: OLANEW_clean_sbu_2, # of connection points: 3
#     Node 24, Type 1, BuildingBlock: CUQRIR_clean_linker_1, # of connection points: 3
#     Node 25, Type 1, BuildingBlock: CUQRIR_clean_linker_1, # of connection points: 3
#     Node 26, Type 1, BuildingBlock: CUQRIR_clean_linker_1, # of connection points: 3
#     Node 27, Type 1, BuildingBlock: CUQRIR_clean_linker_1, # of connection points: 3
#     Node 28, Type 1, BuildingBlock: CUQRIR_clean_linker_1, # of connection points: 3
#     Node 29, Type 1, BuildingBlock: CUQRIR_clean_linker_1, # of connection points: 3
#     Node 30, Type 1, BuildingBlock: CUQRIR_clean_linker_1, # of connection points: 3
#     Node 31, Type 1, BuildingBlock: CUQRIR_clean_linker_1, # of connection points: 3
#     Node 32, Type 1, BuildingBlock: CUQRIR_clean_linker_1, # of connection points: 3
#     Node 33, Type 1, BuildingBlock: CUQRIR_clean_linker_1, # of connection points: 3
#     Node 34, Type 1, BuildingBlock: CUQRIR_clean_linker_1, # of connection points: 3
#     Node 35, Type 1, BuildingBlock: CUQRIR_clean_linker_1, # of connection points: 3
#     Node 36, Type 1, BuildingBlock: CUQRIR_clean_linker_1, # of connection points: 3
#     Node 37, Type 1, BuildingBlock: CUQRIR_clean_linker_1, # of connection points: 3
#     Node 38, Type 1, BuildingBlock: CUQRIR_clean_linker_1, # of connection points: 3
#     Node 39, Type 1, BuildingBlock: CUQRIR_clean_linker_1, # of connection points: 3
#     Node 40, Type 1, BuildingBlock: CUQRIR_clean_linker_1, # of connection points: 3
#     Node 41, Type 1, BuildingBlock: CUQRIR_clean_linker_1, # of connection points: 3
#     Node 42, Type 1, BuildingBlock: CUQRIR_clean_linker_1, # of connection points: 3
#     Node 43, Type 1, BuildingBlock: CUQRIR_clean_linker_1, # of connection points: 3
#     Node 44, Type 1, BuildingBlock: CUQRIR_clean_linker_1, # of connection points: 3
#     Node 45, Type 1, BuildingBlock: CUQRIR_clean_linker_1, # of connection points: 3
#     Node 46, Type 1, BuildingBlock: CUQRIR_clean_linker_1, # of connection points: 3
#     Node 47, Type 1, BuildingBlock: CUQRIR_clean_linker_1, # of connection points: 3
#     Edge 48, Type (0, 1), BuildingBlock: ZUJKAS_clean_linker_0, # of connection points: 2
#     Edge 49, Type (0, 1), BuildingBlock: ZUJKAS_clean_linker_0, # of connection points: 2
#     Edge 50, Type (0, 1), BuildingBlock: ZUJKAS_clean_linker_0, # of connection points: 2
#     Edge 51, Type (0, 1), BuildingBlock: ZUJKAS_clean_linker_0, # of connection points: 2
#     Edge 52, Type (0, 1), BuildingBlock: ZUJKAS_clean_linker_0, # of connection points: 2
#     Edge 53, Type (0, 1), BuildingBlock: ZUJKAS_clean_linker_0, # of connection points: 2
#     Edge 54, Type (0, 1), BuildingBlock: ZUJKAS_clean_linker_0, # of connection points: 2
#     Edge 55, Type (0, 1), BuildingBlock: ZUJKAS_clean_linker_0, # of connection points: 2
#     Edge 56, Type (0, 1), BuildingBlock: ZUJKAS_clean_linker_0, # of connection points: 2
#     Edge 57, Type (0, 1), BuildingBlock: ZUJKAS_clean_linker_0, # of connection points: 2
#     Edge 58, Type (0, 1), BuildingBlock: ZUJKAS_clean_linker_0, # of connection points: 2
#     Edge 59, Type (0, 1), BuildingBlock: ZUJKAS_clean_linker_0, # of connection points: 2
#     Edge 60, Type (0, 1), BuildingBlock: ZUJKAS_clean_linker_0, # of connection points: 2
#     Edge 61, Type (0, 1), BuildingBlock: ZUJKAS_clean_linker_0, # of connection points: 2
#     Edge 62, Type (0, 1), BuildingBlock: ZUJKAS_clean_linker_0, # of connection points: 2
#     Edge 63, Type (0, 1), BuildingBlock: ZUJKAS_clean_linker_0, # of connection points: 2
#     Edge 64, Type (0, 1), BuildingBlock: ZUJKAS_clean_linker_0, # of connection points: 2
#     Edge 65, Type (0, 1), BuildingBlock: ZUJKAS_clean_linker_0, # of connection points: 2
#     Edge 66, Type (0, 1), BuildingBlock: ZUJKAS_clean_linker_0, # of connection points: 2
#     Edge 67, Type (0, 1), BuildingBlock: ZUJKAS_clean_linker_0, # of connection points: 2
#     Edge 68, Type (0, 1), BuildingBlock: ZUJKAS_clean_linker_0, # of connection points: 2
#     Edge 69, Type (0, 1), BuildingBlock: ZUJKAS_clean_linker_0, # of connection points: 2
#     Edge 70, Type (0, 1), BuildingBlock: ZUJKAS_clean_linker_0, # of connection points: 2
#     Edge 71, Type (0, 1), BuildingBlock: ZUJKAS_clean_linker_0, # of connection points: 2
#     Edge 72, Type (0, 1), BuildingBlock: ZUJKAS_clean_linker_0, # of connection points: 2
#     Edge 73, Type (0, 1), BuildingBlock: ZUJKAS_clean_linker_0, # of connection points: 2
#     Edge 74, Type (0, 1), BuildingBlock: ZUJKAS_clean_linker_0, # of connection points: 2
#     Edge 75, Type (0, 1), BuildingBlock: ZUJKAS_clean_linker_0, # of connection points: 2
#     Edge 76, Type (0, 1), BuildingBlock: ZUJKAS_clean_linker_0, # of connection points: 2
#     Edge 77, Type (0, 1), BuildingBlock: ZUJKAS_clean_linker_0, # of connection points: 2
#     Edge 78, Type (0, 1), BuildingBlock: ZUJKAS_clean_linker_0, # of connection points: 2
#     Edge 79, Type (0, 1), BuildingBlock: ZUJKAS_clean_linker_0, # of connection points: 2
#     Edge 80, Type (0, 1), BuildingBlock: ZUJKAS_clean_linker_0, # of connection points: 2
#     Edge 81, Type (0, 1), BuildingBlock: ZUJKAS_clean_linker_0, # of connection points: 2
#     Edge 82, Type (0, 1), BuildingBlock: ZUJKAS_clean_linker_0, # of connection points: 2
#     Edge 83, Type (0, 1), BuildingBlock: ZUJKAS_clean_linker_0, # of connection points: 2
#     Edge 84, Type (0, 1), BuildingBlock: ZUJKAS_clean_linker_0, # of connection points: 2
#     Edge 85, Type (0, 1), BuildingBlock: ZUJKAS_clean_linker_0, # of connection points: 2
#     Edge 86, Type (0, 1), BuildingBlock: ZUJKAS_clean_linker_0, # of connection points: 2
#     Edge 87, Type (0, 1), BuildingBlock: ZUJKAS_clean_linker_0, # of connection points: 2
#     Edge 88, Type (0, 1), BuildingBlock: ZUJKAS_clean_linker_0, # of connection points: 2
#     Edge 89, Type (0, 1), BuildingBlock: ZUJKAS_clean_linker_0, # of connection points: 2
#     Edge 90, Type (0, 1), BuildingBlock: ZUJKAS_clean_linker_0, # of connection points: 2
#     Edge 91, Type (0, 1), BuildingBlock: ZUJKAS_clean_linker_0, # of connection points: 2
#     Edge 92, Type (0, 1), BuildingBlock: ZUJKAS_clean_linker_0, # of connection points: 2
#     Edge 93, Type (0, 1), BuildingBlock: ZUJKAS_clean_linker_0, # of connection points: 2
#     Edge 94, Type (0, 1), BuildingBlock: ZUJKAS_clean_linker_0, # of connection points: 2
#     Edge 95, Type (0, 1), BuildingBlock: ZUJKAS_clean_linker_0, # of connection points: 2
#     Edge 96, Type (0, 1), BuildingBlock: ZUJKAS_clean_linker_0, # of connection points: 2
#     Edge 97, Type (0, 1), BuildingBlock: ZUJKAS_clean_linker_0, # of connection points: 2
#     Edge 98, Type (0, 1), BuildingBlock: ZUJKAS_clean_linker_0, # of connection points: 2
#     Edge 99, Type (0, 1), BuildingBlock: ZUJKAS_clean_linker_0, # of connection points: 2
#     Edge 100, Type (0, 1), BuildingBlock: ZUJKAS_clean_linker_0, # of connection points: 2
#     Edge 101, Type (0, 1), BuildingBlock: ZUJKAS_clean_linker_0, # of connection points: 2
#     Edge 102, Type (0, 1), BuildingBlock: ZUJKAS_clean_linker_0, # of connection points: 2
#     Edge 103, Type (0, 1), BuildingBlock: ZUJKAS_clean_linker_0, # of connection points: 2
#     Edge 104, Type (0, 1), BuildingBlock: ZUJKAS_clean_linker_0, # of connection points: 2
#     Edge 105, Type (0, 1), BuildingBlock: ZUJKAS_clean_linker_0, # of connection points: 2
#     Edge 106, Type (0, 1), BuildingBlock: ZUJKAS_clean_linker_0, # of connection points: 2
#     Edge 107, Type (0, 1), BuildingBlock: ZUJKAS_clean_linker_0, # of connection points: 2
#     Edge 108, Type (0, 1), BuildingBlock: ZUJKAS_clean_linker_0, # of connection points: 2
#     Edge 109, Type (0, 1), BuildingBlock: ZUJKAS_clean_linker_0, # of connection points: 2
#     Edge 110, Type (0, 1), BuildingBlock: ZUJKAS_clean_linker_0, # of connection points: 2
#     Edge 111, Type (0, 1), BuildingBlock: ZUJKAS_clean_linker_0, # of connection points: 2
#     Edge 112, Type (0, 1), BuildingBlock: ZUJKAS_clean_linker_0, # of connection points: 2
#     Edge 113, Type (0, 1), BuildingBlock: ZUJKAS_clean_linker_0, # of connection points: 2
#     Edge 114, Type (0, 1), BuildingBlock: ZUJKAS_clean_linker_0, # of connection points: 2
#     Edge 115, Type (0, 1), BuildingBlock: ZUJKAS_clean_linker_0, # of connection points: 2
#     Edge 116, Type (0, 1), BuildingBlock: ZUJKAS_clean_linker_0, # of connection points: 2
#     Edge 117, Type (0, 1), BuildingBlock: ZUJKAS_clean_linker_0, # of connection points: 2
#     Edge 118, Type (0, 1), BuildingBlock: ZUJKAS_clean_linker_0, # of connection points: 2
#     Edge 119, Type (0, 1), BuildingBlock: ZUJKAS_clean_linker_0, # of connection points: 2
# Relax obj value: 0.075
# Max RMSD: 0.112
# Mean RMSD: 0.066
data_MOF--net-bwt--node1-OLANEW_clean_sbu_2--node2-CUQRIR_clean_linker_1--edge1-ZUJKAS_clean_linker_0
_symmetry_space_group_name_H-M    P1
_symmetry_Int_Tables_number       1
_symmetry_cell_setting            triclinic
loop_
_symmetry_equiv_pos_as_xyz
'x, y, z'
_cell_length_a     72.543
_cell_length_b     72.629246
_cell_length_c     72.618035
_cell_angle_alpha  94.101359
_cell_angle_beta   94.068354
_cell_angle_gamma 94.086577
loop_
_atom_site_label
_atom_site_type_symbol
_atom_site_fract_x
_atom_site_fract_y
_atom_site_fract_z
_atom_type_partial_charge
O0 O 0.19542 0.57359 0.38971 0.0
Cd1 Cd 0.18635 0.58677 0.3607 0.0
O2 O 0.22276 0.58798 0.3882 0.0
Cd3 Cd 0.25251 0.59308 0.39553 0.0
O4 O 0.28211 0.59401 0.39166 0.0
C5 C 0.28964 0.57878 0.38979 0.0
O6 O 0.27958 0.56326 0.39132 0.0
C7 C 0.21202 0.57732 0.39646 0.0
C8 C 0.14904 0.57861 0.34909 0.0
O9 O 0.16116 0.56721 0.34524 0.0
O10 O 0.15455 0.59384 0.35855 0.0
O11 O 0.29699 0.43317 0.80924 0.0
Cd12 Cd 0.28873 0.4115 0.78219 0.0
O13 O 0.27049 0.43197 0.82232 0.0
Cd14 Cd 0.25516 0.41295 0.80089 0.0
O15 O 0.23049 0.40038 0.78425 0.0
C16 C 0.22508 0.40761 0.76958 0.0
O17 O 0.23513 0.42177 0.76425 0.0
C18 C 0.2873 0.4383 0.82231 0.0
C19 C 0.32156 0.40768 0.76496 0.0
O20 O 0.31109 0.42063 0.76125 0.0
O21 O 0.31611 0.39601 0.77623 0.0
O22 O 0.66696 0.98283 0.60605 0.0
Cd23 Cd 0.66933 0.97699 0.63886 0.0
O24 O 0.66776 0.95348 0.5965 0.0
Cd25 Cd 0.67775 0.94699 0.62418 0.0
O26 O 0.69914 0.94894 0.64713 0.0
C27 C 0.71146 0.96227 0.64694 0.0
O28 O 0.71004 0.97358 0.63366 0.0
C29 C 0.66566 0.97013 0.59291 0.0
C30 C 0.63598 0.98401 0.65388 0.0
O31 O 0.64971 0.99629 0.65562 0.0
O32 O 0.63815 0.96833 0.64537 0.0
O33 O 0.81789 0.99164 0.21363 0.0
Cd34 Cd 0.82526 0.00192 0.24625 0.0
O35 O 0.79174 0.0051 0.2101 0.0
Cd36 Cd 0.78952 0.01353 0.2393 0.0
O37 O 0.7702 0.01689 0.26089 0.0
C38 C 0.76208 0.00226 0.26606 0.0
O39 O 0.76682 0.98613 0.25937 0.0
C40 C 0.80413 0.99572 0.2033 0.0
C41 C 0.86248 0.99657 0.25531 0.0
O42 O 0.84962 0.98425 0.25803 0.0
O43 O 0.85771 0.01158 0.24873 0.0
O44 O 0.40461 0.22553 0.57955 0.0
Cd45 Cd 0.37612 0.22359 0.59556 0.0
O46 O 0.41238 0.2549 0.5882 0.0
Cd47 Cd 0.38662 0.26096 0.60043 0.0
O48 O 0.36655 0.28158 0.60503 0.0
C49 C 0.35634 0.28556 0.59114 0.0
O50 O 0.35729 0.27612 0.57515 0.0
C51 C 0.41602 0.2397 0.57996 0.0
C52 C 0.36453 0.18632 0.59748 0.0
O53 O 0.35831 0.19545 0.58422 0.0
O54 O 0.37593 0.19491 0.61003 0.0
O55 O 0.19942 0.82343 0.99624 0.0
Cd56 Cd 0.2327 0.82947 0.00443 0.0
O57 O 0.19446 0.80753 0.0203 0.0
Cd58 Cd 0.22404 0.80659 0.02766 0.0
O59 O 0.24887 0.79157 0.02528 0.0
C60 C 0.2509 0.78431 0.00917 0.0
O61 O 0.23891 0.78737 0.99551 0.0
C62 C 0.18825 0.81472 0.00588 0.0
C63 C 0.245 0.86487 0.99583 0.0
O64 O 0.24554 0.85083 0.98419 0.0
O65 O 0.23878 0.86212 0.01157 0.0
O66 O 0.81792 0.30325 0.42062 0.0
Cd67 Cd 0.79058 0.2957 0.39909 0.0
O68 O 0.82863 0.27564 0.41884 0.0
Cd69 Cd 0.80527 0.26262 0.4007 0.0
O70 O 0.78422 0.24052 0.39044 0.0
C71 C 0.77151 0.23638 0.40094 0.0
O72 O 0.77104 0.24623 0.41678 0.0
C73 C 0.83018 0.29246 0.42531 0.0
C74 C 0.77067 0.32714 0.39857 0.0
O75 O 0.76725 0.31471 0.40978 0.0
O76 O 0.78312 0.32441 0.38721 0.0
O77 O 0.60478 0.65688 0.97898 0.0
Cd78 Cd 0.63742 0.66346 0.97384 0.0
O79 O 0.59393 0.66658 0.95263 0.0
Cd80 Cd 0.62097 0.67997 0.94792 0.0
O81 O 0.64288 0.70245 0.94913 0.0
C82 C 0.65018 0.70889 0.96492 0.0
O83 O 0.64486 0.70131 0.97975 0.0
C84 C 0.59115 0.65892 0.9675 0.0
C85 C 0.65719 0.63371 0.9838 0.0
O86 O 0.65498 0.64716 0.99565 0.0
O87 O 0.65033 0.63451 0.96714 0.0
O88 O 0.57569 0.3831 0.22426 0.0
Cd89 Cd 0.58961 0.35371 0.21855 0.0
O90 O 0.59625 0.39311 0.24717 0.0
Cd91 Cd 0.60794 0.36649 0.25 0.0
O92 O 0.61331 0.3452 0.26907 0.0
C93 C 0.59927 0.3366 0.2749 0.0
O94 O 0.58267 0.3399 0.26807 0.0
C95 C 0.5824 0.39588 0.23626 0.0
C96 C 0.58758 0.34319 0.18063 0.0
O97 O 0.57493 0.33747 0.19078 0.0
O98 O 0.60125 0.35374 0.18844 0.0
O99 O 0.98256 0.20636 0.80824 0.0
Cd100 Cd 0.99074 0.23966 0.81341 0.0
O101 O 0.01017 0.19966 0.80037 0.0
Cd102 Cd 0.01841 0.22885 0.79789 0.0
O103 O 0.01833 0.25352 0.78235 0.0
C104 C 0.00326 0.25546 0.77289 0.0
O105 O 0.98912 0.24331 0.7739 0.0
C106 C 0.99378 0.19437 0.8039 0.0
C107 C 0.98605 0.2516 0.85 0.0
O108 O 0.97295 0.25206 0.83726 0.0
O109 O 0.00143 0.2457 0.84536 0.0
O110 O 0.418 0.80358 0.29312 0.0
Cd111 Cd 0.39878 0.7746 0.28602 0.0
O112 O 0.41306 0.815 0.2661 0.0
Cd113 Cd 0.39676 0.79028 0.25335 0.0
O114 O 0.38715 0.76802 0.23223 0.0
C115 C 0.39699 0.75436 0.23001 0.0
O116 O 0.41196 0.75364 0.24115 0.0
C117 C 0.42055 0.81661 0.28256 0.0
C118 C 0.40045 0.75496 0.31767 0.0
O119 O 0.41172 0.75241 0.30508 0.0
O120 O 0.38804 0.76641 0.31502 0.0
O121 O 0.97961 0.60213 0.65884 0.0
Cd122 Cd 0.97923 0.63584 0.66255 0.0
O123 O 0.95025 0.59661 0.66381 0.0
Cd124 Cd 0.9483 0.62542 0.67381 0.0
O125 O 0.9525 0.64753 0.69606 0.0
C126 C 0.96553 0.64557 0.70826 0.0
O127 O 0.9755 0.63125 0.70612 0.0
C128 C 0.96558 0.5907 0.65951 0.0
C129 C 0.98755 0.65138 0.62978 0.0
O130 O 0.00036 0.64901 0.64228 0.0
O131 O 0.97077 0.64656 0.63287 0.0
O132 O 0.77323 0.40857 0.60862 0.0
Cd133 Cd 0.77682 0.39159 0.63643 0.0
O134 O 0.76109 0.4319 0.62311 0.0
Cd135 Cd 0.75614 0.41843 0.64842 0.0
O136 O 0.73358 0.41377 0.66636 0.0
C137 C 0.7188 0.4051 0.65882 0.0
O138 O 0.71864 0.39825 0.64156 0.0
C139 C 0.76717 0.42457 0.60854 0.0
C140 C 0.81425 0.38789 0.64634 0.0
O141 O 0.80475 0.37586 0.63503 0.0
O142 O 0.80601 0.40159 0.65307 0.0
O143 O 0.68178 0.63802 0.16715 0.0
Cd144 Cd 0.66923 0.66322 0.18519 0.0
O145 O 0.70099 0.63493 0.19121 0.0
Cd146 Cd 0.72457 0.62325 0.20529 0.0
O147 O 0.74922 0.61108 0.21639 0.0
C148 C 0.75894 0.6024 0.2053 0.0
O149 O 0.75381 0.60102 0.18751 0.0
C150 C 0.69466 0.62956 0.17477 0.0
C151 C 0.63949 0.64935 0.20368 0.0
O152 O 0.6369 0.65552 0.18767 0.0
O153 O 0.65614 0.64997 0.21103 0.0
O154 O 0.32235 0.02982 0.37719 0.0
Cd155 Cd 0.32398 0.03211 0.34389 0.0
O156 O 0.32455 -0.00025 0.37362 0.0
Cd157 Cd 0.31317 -0.00134 0.34489 0.0
O158 O 0.28706 0.99664 0.32765 0.0
C159 C 0.27342 0.00216 0.33603 0.0
O160 O 0.27641 0.009 0.35333 0.0
C161 C 0.3248 0.01453 0.38418 0.0
C162 C 0.36035 0.02678 0.33554 0.0
O163 O 0.35522 0.04308 0.33921 0.0
O164 O 0.34818 0.01308 0.33532 0.0
O165 O 0.15948 0.94685 0.79356 0.0
Cd166 Cd 0.13897 0.92988 0.76897 0.0
O167 O 0.17819 0.95517 0.7727 0.0
Cd168 Cd 0.2044 0.96747 0.76429 0.0
O169 O 0.23198 0.97758 0.75747 0.0
C170 C 0.24396 0.96596 0.75459 0.0
O171 O 0.23931 0.94828 0.7557 0.0
C172 C 0.17429 0.95554 0.78952 0.0
C173 C 0.10331 0.94204 0.76736 0.0
O174 O 0.10767 0.92908 0.77756 0.0
O175 O 0.11585 0.94929 0.75796 0.0
O176 O 0.57974 0.78793 0.36914 0.0
Cd177 Cd 0.59794 0.80175 0.3458 0.0
O178 O 0.59923 0.76633 0.37097 0.0
Cd179 Cd 0.61158 0.74217 0.3817 0.0
O180 O 0.62408 0.71733 0.39028 0.0
C181 C 0.62121 0.70232 0.38002 0.0
O182 O 0.61065 0.70212 0.36453 0.0
C183 C 0.5846 0.77327 0.37606 0.0
C184 C 0.60697 0.8397 0.35324 0.0
O185 O 0.59194 0.83365 0.34369 0.0
O186 O 0.61761 0.8278 0.35939 0.0
O187 O 0.78463 0.16308 0.96939 0.0
Cd188 Cd 0.75574 0.14365 0.96253 0.0
O189 O 0.76792 0.18546 0.97866 0.0
Cd190 Cd 0.76436 0.21279 0.99208 0.0
O191 O 0.76259 0.24105 0.00389 0.0
C192 C 0.75894 0.25352 0.99307 0.0
O193 O 0.75629 0.24896 0.97519 0.0
C194 C 0.78373 0.17964 0.97599 0.0
C195 C 0.75968 0.10709 0.97051 0.0
O196 O 0.7614 0.11215 0.95413 0.0
O197 O 0.75613 0.11933 0.98311 0.0
O198 O 0.21018 0.71529 0.59575 0.0
Cd199 Cd 0.23752 0.71555 0.6175 0.0
O200 O 0.22575 0.72944 0.57527 0.0
Cd201 Cd 0.24926 0.73902 0.5949 0.0
O202 O 0.26453 0.76408 0.60815 0.0
C203 C 0.25448 0.77707 0.61265 0.0
O204 O 0.23637 0.77393 0.61016 0.0
C205 C 0.2109 0.72106 0.57968 0.0
C206 C 0.25074 0.68037 0.61482 0.0
O207 O 0.23885 0.68451 0.62638 0.0
O208 O 0.25674 0.69303 0.60485 0.0
O209 O 0.38011 0.36254 0.05024 0.0
Cd210 Cd 0.35178 0.37418 0.06124 0.0
O211 O 0.36751 0.33406 0.04588 0.0
Cd212 Cd 0.36633 0.30487 0.03556 0.0
O213 O 0.36268 0.27595 0.02443 0.0
C214 C 0.35072 0.26503 0.03089 0.0
O215 O 0.34106 0.27142 0.04425 0.0
C216 C 0.38143 0.34561 0.04519 0.0
C217 C 0.34628 0.40861 0.04789 0.0
O218 O 0.35611 0.40727 0.06304 0.0
O219 O 0.33886 0.39365 0.03913 0.0
O220 O 0.37804 0.5807 0.7815 0.0
Cd221 Cd 0.3567 0.60143 0.79517 0.0
O222 O 0.38427 0.59984 0.76032 0.0
Cd223 Cd 0.39658 0.60813 0.73513 0.0
O224 O 0.4068 0.61737 0.70939 0.0
C225 C 0.39572 0.61662 0.69493 0.0
O226 O 0.37845 0.61015 0.69584 0.0
C227 C 0.3868 0.58469 0.76757 0.0
C228 C 0.36184 0.60539 0.83381 0.0
O229 O 0.35019 0.59284 0.82558 0.0
O230 O 0.37103 0.61597 0.82377 0.0
O231 O 0.93977 0.78629 0.15664 0.0
Cd232 Cd 0.92499 0.7604 0.13625 0.0
O233 O 0.95048 0.76692 0.17587 0.0
Cd234 Cd 0.96434 0.76048 0.20212 0.0
O235 O 0.97575 0.75491 0.22963 0.0
C236 C 0.97657 0.76745 0.24287 0.0
O237 O 0.97073 0.78371 0.23962 0.0
C238 C 0.9491 0.78345 0.1715 0.0
C239 C 0.93729 0.76061 0.1007 0.0
O240 O 0.92327 0.76932 0.10507 0.0
O241 O 0.94548 0.75178 0.11316 0.0
O242 O 0.587 0.21281 0.70956 0.0
Cd243 Cd 0.60826 0.2406 0.71093 0.0
O244 O 0.56374 0.22837 0.71817 0.0
Cd245 Cd 0.58131 0.25282 0.72941 0.0
O246 O 0.58909 0.26934 0.7555 0.0
C247 C 0.60351 0.26645 0.76556 0.0
O248 O 0.61477 0.25449 0.75929 0.0
C249 C 0.56989 0.21331 0.71213 0.0
C250 C 0.61089 0.25049 0.6747 0.0
O251 O 0.62188 0.2394 0.6818 0.0
O252 O 0.599 0.25735 0.68493 0.0
O253 O 0.06436 0.36912 0.35145 0.0
Cd254 Cd 0.0809 0.34468 0.36506 0.0
O255 O 0.0642 0.35529 0.32365 0.0
Cd256 Cd 0.05878 0.35145 0.29355 0.0
O257 O 0.04852 0.34599 0.26459 0.0
C258 C 0.04369 0.35907 0.25502 0.0
O259 O 0.0453 0.3761 0.26269 0.0
C260 C 0.0596 0.36866 0.33424 0.0
C261 C 0.0674 0.33871 0.39928 0.0
O262 O 0.08109 0.35057 0.39789 0.0
O263 O 0.06035 0.32935 0.3845 0.0
C264 C 0.28896 0.4774 0.57999 0.0
N265 N 0.2832 0.49133 0.57014 0.0
N266 N 0.28789 0.46135 0.56912 0.0
C267 C 0.29684 0.47968 0.59981 0.0
C268 C 0.28124 0.46602 0.55232 0.0
N269 N 0.27844 0.48428 0.5529 0.0
C270 C 0.27613 0.4524 0.53584 0.0
H271 H 0.30736 0.46962 0.60241 0.0
H272 H 0.28547 0.47709 0.60896 0.0
H273 H 0.30322 0.49394 0.60342 0.0
H274 H 0.2724 0.4384 0.5403 0.0
H275 H 0.2882 0.45153 0.52734 0.0
H276 H 0.26432 0.45685 0.52713 0.0
C277 C 0.32932 0.60189 0.98436 0.0
N278 N 0.33109 0.58547 0.97486 0.0
N279 N 0.32786 0.61548 0.9726 0.0
C280 C 0.32706 0.6042 0.00481 0.0
C281 C 0.32848 0.60664 0.9556 0.0
N282 N 0.33054 0.58841 0.95698 0.0
C283 C 0.32724 0.6158 0.93768 0.0
H284 H 0.31932 0.61642 0.00842 0.0
H285 H 0.34095 0.60606 0.01236 0.0
H286 H 0.31967 0.59167 0.00948 0.0
H287 H 0.33221 0.63063 0.93981 0.0
H288 H 0.31254 0.61491 0.93209 0.0
H289 H 0.33532 0.60868 0.9273 0.0
C290 C 0.66551 0.04602 0.38653 0.0
N291 N 0.66133 0.03219 0.39745 0.0
N292 N 0.6715 0.06176 0.39701 0.0
C293 C 0.66434 0.04398 0.36575 0.0
C294 C 0.67108 0.05696 0.41464 0.0
N295 N 0.66499 0.03894 0.41492 0.0
C296 C 0.67706 0.06981 0.43152 0.0
H297 H 0.67252 0.0554 0.35998 0.0
H298 H 0.64964 0.04421 0.36049 0.0
H299 H 0.66928 0.03051 0.36085 0.0
H300 H 0.66976 0.06564 0.44366 0.0
H301 H 0.67434 0.08429 0.42906 0.0
H302 H 0.69219 0.06931 0.43473 0.0
C303 C 0.75166 0.90103 0.99305 0.0
N304 N 0.75854 0.91539 0.00508 0.0
N305 N 0.75128 0.88495 0.00145 0.0
C306 C 0.74622 0.90249 0.97286 0.0
C307 C 0.75819 0.89006 0.01905 0.0
N308 N 0.76275 0.90852 0.0212 0.0
C309 C 0.75858 0.87739 0.03459 0.0
H310 H 0.73139 0.90532 0.97116 0.0
H311 H 0.74809 0.88935 0.96467 0.0
H312 H 0.75457 0.91401 0.96742 0.0
H313 H 0.77194 0.87082 0.03515 0.0
H314 H 0.74715 0.86629 0.03231 0.0
H315 H 0.75741 0.88512 0.04814 0.0
C316 C 0.59978 0.26302 0.46487 0.0
N317 N 0.58962 0.25799 0.47887 0.0
N318 N 0.589 0.26194 0.44876 0.0
C319 C 0.61986 0.27005 0.46709 0.0
C320 C 0.57194 0.25612 0.45348 0.0
N321 N 0.57236 0.25361 0.47176 0.0
C322 C 0.55463 0.25444 0.44061 0.0
H323 H 0.62693 0.26616 0.4545 0.0
H324 H 0.62706 0.26456 0.47928 0.0
H325 H 0.62078 0.28538 0.46913 0.0
H326 H 0.54524 0.24251 0.44367 0.0
H327 H 0.55795 0.25277 0.42593 0.0
H328 H 0.54721 0.26718 0.44272 0.0
C329 C 0.98671 0.74389 0.90087 0.0
N330 N 0.99655 0.75171 0.91635 0.0
N331 N 0.99697 0.7447 0.88605 0.0
C332 C 0.9668 0.73631 0.90002 0.0
C333 C 0.01344 0.75325 0.89306 0.0
N334 N 0.01314 0.75765 0.91147 0.0
C335 C 0.03035 0.75554 0.88231 0.0
H336 H 0.96631 0.7215 0.90294 0.0
H337 H 0.95984 0.73732 0.88606 0.0
H338 H 0.95918 0.74385 0.91053 0.0
H339 H 0.03084 0.76936 0.87667 0.0
H340 H 0.02989 0.74484 0.87056 0.0
H341 H 0.04321 0.75468 0.89133 0.0
C342 C 0.99477 0.33187 0.58974 0.0
N343 N 0.98605 0.33287 0.57278 0.0
N344 N 0.98253 0.33288 0.60299 0.0
C345 C 0.01475 0.32785 0.5931 0.0
C346 C 0.96606 0.33447 0.59338 0.0
N347 N 0.96819 0.33436 0.57502 0.0
C348 C 0.94809 0.33724 0.60198 0.0
H349 H 0.01989 0.32081 0.58062 0.0
H350 H 0.01658 0.31901 0.60484 0.0
H351 H 0.02328 0.3411 0.59657 0.0
H352 H 0.95066 0.34398 0.61623 0.0
H353 H 0.94036 0.3236 0.60266 0.0
H354 H 0.93934 0.34585 0.59346 0.0
C355 C 0.38516 0.64099 0.04401 0.0
N356 N 0.39675 0.63684 0.03076 0.0
N357 N 0.39477 0.64473 0.0607 0.0
C358 C 0.36483 0.64324 0.0403 0.0
C359 C 0.41262 0.64296 0.05705 0.0
N360 N 0.41388 0.63832 0.03881 0.0
C361 C 0.42887 0.64687 0.07121 0.0
H362 H 0.36303 0.65471 0.03118 0.0
H363 H 0.35803 0.64619 0.05328 0.0
H364 H 0.35795 0.63045 0.03286 0.0
H365 H 0.42546 0.64168 0.08464 0.0
H366 H 0.4321 0.66207 0.07345 0.0
H367 H 0.44129 0.64032 0.06662 0.0
C368 C 0.47412 0.57658 0.30159 0.0
N369 N 0.48747 0.56785 0.29315 0.0
N370 N 0.46228 0.56417 0.30868 0.0
C371 C 0.47332 0.59724 0.30394 0.0
C372 C 0.46889 0.54758 0.30422 0.0
N373 N 0.48429 0.54984 0.29487 0.0
C374 C 0.45941 0.52914 0.30758 0.0
H375 H 0.46643 0.60136 0.3166 0.0
H376 H 0.46523 0.60182 0.29178 0.0
H377 H 0.48744 0.60435 0.30475 0.0
H378 H 0.44426 0.53007 0.30815 0.0
H379 H 0.46508 0.5248 0.32105 0.0
H380 H 0.4619 0.51841 0.29657 0.0
C381 C 0.90153 0.9843 0.74831 0.0
N382 N 0.91662 0.99537 0.75516 0.0
N383 N 0.88597 0.99344 0.74944 0.0
C384 C 0.90183 0.96435 0.74129 0.0
C385 C 0.89214 0.01049 0.75719 0.0
N386 N 0.91077 0.0116 0.76082 0.0
C387 C 0.88025 0.02654 0.75944 0.0
H388 H 0.90416 0.96363 0.72633 0.0
H389 H 0.88843 0.95655 0.74303 0.0
H390 H 0.91324 0.95776 0.74868 0.0
H391 H 0.87519 0.02704 0.77352 0.0
H392 H 0.86807 0.02499 0.74916 0.0
H393 H 0.88827 0.03985 0.75787 0.0
C394 C 0.56668 0.99783 0.32809 0.0
N395 N 0.55044 0.98776 0.32936 0.0
N396 N 0.5808 0.98659 0.32737 0.0
C397 C 0.56853 0.01833 0.32612 0.0
C398 C 0.57252 0.96938 0.32835 0.0
N399 N 0.55409 0.97012 0.32956 0.0
C400 C 0.58226 0.95179 0.32694 0.0
H401 H 0.55703 0.02524 0.33231 0.0
H402 H 0.56811 0.02072 0.31118 0.0
H403 H 0.58189 0.02472 0.33277 0.0
H404 H 0.57619 0.94155 0.33587 0.0
H405 H 0.59729 0.95446 0.33104 0.0
H406 H 0.58043 0.94568 0.31242 0.0
C407 C 0.02348 0.38327 0.68985 0.0
N408 N 0.01028 0.39428 0.684 0.0
N409 N 0.04052 0.39225 0.6901 0.0
C410 C 0.01981 0.36456 0.69695 0.0
C411 C 0.0372 0.40915 0.68448 0.0
N412 N 0.01882 0.41041 0.68083 0.0
C413 C 0.0519 0.42468 0.68353 0.0
H414 H 0.02111 0.36601 0.71231 0.0
H415 H 0.03029 0.35517 0.69236 0.0
H416 H 0.0057 0.35844 0.69229 0.0
H417 H 0.04716 0.43498 0.67403 0.0
H418 H 0.06481 0.41929 0.67878 0.0
H419 H 0.05517 0.43167 0.69759 0.0
C420 C 0.70374 0.52118 0.42066 0.0
N421 N 0.71108 0.50853 0.43123 0.0
N422 N 0.70226 0.5372 0.43102 0.0
C423 C 0.69783 0.51779 0.40038 0.0
C424 C 0.70885 0.53381 0.44825 0.0
N425 N 0.71417 0.51634 0.44839 0.0
C426 C 0.70978 0.54742 0.46495 0.0
H427 H 0.71027 0.51918 0.39239 0.0
H428 H 0.68805 0.52787 0.39573 0.0
H429 H 0.69132 0.5035 0.3973 0.0
H430 H 0.71126 0.56188 0.46099 0.0
H431 H 0.72151 0.54503 0.47493 0.0
H432 H 0.69672 0.54555 0.47192 0.0
C433 C 0.7378 0.45545 0.03867 0.0
N434 N 0.73568 0.4722 0.04728 0.0
N435 N 0.74388 0.44372 0.05107 0.0
C436 C 0.73239 0.45007 0.01852 0.0
C437 C 0.74528 0.45395 0.06754 0.0
N438 N 0.74034 0.47128 0.0652 0.0
C439 C 0.75209 0.44724 0.08571 0.0
H440 H 0.72763 0.43516 0.01629 0.0
H441 H 0.74466 0.45264 0.01051 0.0
H442 H 0.72125 0.45842 0.01317 0.0
H443 H 0.76169 0.43618 0.08356 0.0
H444 H 0.74005 0.44148 0.09263 0.0
H445 H 0.75921 0.45882 0.09494 0.0
C446 C 0.315 0.97905 0.60382 0.0
N447 N 0.31718 0.99088 0.59038 0.0
N448 N 0.3091 0.96186 0.59626 0.0
C449 C 0.31752 0.98439 0.62427 0.0
C450 C 0.30785 0.96361 0.5778 0.0
N451 N 0.31264 0.98124 0.57425 0.0
C452 C 0.30311 0.94785 0.56324 0.0
H453 H 0.3323 0.98366 0.62905 0.0
H454 H 0.309 0.97479 0.63204 0.0
H455 H 0.31375 -0.00123 0.62735 0.0
H456 H 0.28798 0.94694 0.55941 0.0
H457 H 0.30675 0.93449 0.56848 0.0
H458 H 0.31043 0.95015 0.5506 0.0
C459 C 0.30828 0.06262 0.96126 0.0
N460 N 0.29927 0.04872 0.95 0.0
N461 N 0.30856 0.0787 0.9529 0.0
C462 C 0.31545 0.0608 0.98094 0.0
C463 C 0.29926 0.07409 0.93617 0.0
N464 N 0.29348 0.05586 0.93446 0.0
C465 C 0.2951 0.08762 0.92197 0.0
H466 H 0.30356 0.05998 0.98972 0.0
H467 H 0.32515 0.0728 0.98628 0.0
H468 H 0.32262 0.04789 0.98197 0.0
H469 H 0.30657 0.09856 0.92211 0.0
H470 H 0.2824 0.0944 0.92533 0.0
H471 H 0.29281 0.08052 0.90786 0.0
C472 C 0.43724 0.67901 0.50663 0.0
N473 N 0.44636 0.68627 0.49289 0.0
N474 N 0.44919 0.6772 0.52149 0.0
C475 C 0.41663 0.67456 0.50587 0.0
C476 C 0.46588 0.6836 0.51627 0.0
N477 N 0.46415 0.68902 0.49885 0.0
C478 C 0.48358 0.68551 0.52855 0.0
H479 H 0.41006 0.68695 0.51133 0.0
H480 H 0.41302 0.66305 0.5145 0.0
H481 H 0.41086 0.67085 0.49141 0.0
H482 H 0.49572 0.68366 0.52034 0.0
H483 H 0.48325 0.6753 0.53921 0.0
H484 H 0.48524 0.69963 0.53566 0.0
C485 C 0.97237 0.30683 0.05444 0.0
N486 N 0.96033 0.29791 0.04108 0.0
N487 N 0.96484 0.3074 0.071 0.0
C488 C 0.99097 0.31601 0.05114 0.0
C489 C 0.94778 0.29851 0.06723 0.0
N490 N 0.94501 0.29285 0.04902 0.0
C491 C 0.93454 0.29393 0.08158 0.0
H492 H 0.00161 0.30585 0.05259 0.0
H493 H 0.99483 0.32796 0.0614 0.0
H494 H 0.99092 0.32079 0.03697 0.0
H495 H 0.92508 0.3052 0.0831 0.0
H496 H 0.94209 0.2927 0.09521 0.0
H497 H 0.92604 0.2808 0.07737 0.0
C498 C 0.02286 0.71839 0.44031 0.0
N499 N 0.03381 0.71578 0.45563 0.0
N500 N 0.03327 0.72416 0.42677 0.0
C501 C 0.00207 0.71561 0.43862 0.0
C502 C 0.0509 0.72505 0.43437 0.0
N503 N 0.05124 0.72004 0.45197 0.0
C504 C 0.06773 0.73063 0.42454 0.0
H505 H 0.99641 0.71917 0.45212 0.0
H506 H 0.99793 0.70082 0.43444 0.0
H507 H 0.99599 0.72409 0.42797 0.0
H508 H 0.07135 0.74567 0.4277 0.0
H509 H 0.06505 0.72796 0.40932 0.0
H510 H 0.07973 0.72308 0.42934 0.0
C511 C 0.58292 0.30125 0.97108 0.0
N512 N 0.57035 0.30382 0.98378 0.0
N513 N 0.57449 0.29968 0.95371 0.0
C514 C 0.60313 0.29899 0.97564 0.0
C515 C 0.55637 0.30145 0.9563 0.0
N516 N 0.55385 0.30384 0.97456 0.0
C517 C 0.54143 0.30242 0.941 0.0
H518 H 0.61091 0.31278 0.97641 0.0
H519 H 0.60873 0.28993 0.96476 0.0
H520 H 0.60535 0.29307 0.98921 0.0
H521 H 0.53474 0.28831 0.93721 0.0
H522 H 0.5473 0.30773 0.92853 0.0
H523 H 0.53065 0.31148 0.94552 0.0
C524 C 0.52426 0.42452 0.71908 0.0
N525 N 0.50949 0.43457 0.7215 0.0
N526 N 0.53931 0.4357 0.71594 0.0
C527 C 0.52438 0.40407 0.7211 0.0
C528 C 0.53313 0.45289 0.71651 0.0
N529 N 0.51502 0.4522 0.71987 0.0
C530 C 0.54448 0.47014 0.71264 0.0
H531 H 0.53839 0.40038 0.72597 0.0
H532 H 0.52043 0.39652 0.70741 0.0
H533 H 0.51425 0.39955 0.73093 0.0
H534 H 0.55526 0.46682 0.70309 0.0
H535 H 0.55147 0.47661 0.72586 0.0
H536 H 0.53556 0.48027 0.70654 0.0
C537 C 0.06854 0.96601 0.2757 0.0
N538 N 0.05294 0.9554 0.26949 0.0
N539 N 0.08372 0.95651 0.27332 0.0
C540 C 0.06902 0.98599 0.28287 0.0
C541 C 0.07676 0.93972 0.26549 0.0
N542 N 0.05804 0.93909 0.26307 0.0
C543 C 0.08812 0.92352 0.26165 0.0
H544 H 0.05714 0.99277 0.27654 0.0
H545 H 0.08216 0.99364 0.27998 0.0
H546 H 0.06802 0.98672 0.29807 0.0
H547 H 0.10079 0.92443 0.27127 0.0
H548 H 0.09238 0.9236 0.24729 0.0
H549 H 0.07995 0.91025 0.26302 0.0
C550 C 0.44222 0.01799 0.71011 0.0
N551 N 0.45706 0.02943 0.70711 0.0
N552 N 0.42734 0.02781 0.71297 0.0
C553 C 0.44197 0.99723 0.70916 0.0
C554 C 0.43371 0.04562 0.71159 0.0
N555 N 0.45176 0.04658 0.7079 0.0
C556 C 0.42275 0.06212 0.71536 0.0
H557 H 0.42788 0.99075 0.70479 0.0
H558 H 0.44618 0.99293 0.7231 0.0
H559 H 0.45191 0.99214 0.69939 0.0
H560 H 0.41176 0.05895 0.72479 0.0
H561 H 0.41606 0.06592 0.70209 0.0
H562 H 0.4319 0.07419 0.72159 0.0
C563 C 0.94491 0.54504 0.28019 0.0
N564 N 0.95834 0.53398 0.28527 0.0
N565 N 0.92894 0.53473 0.27455 0.0
C566 C 0.94748 0.56578 0.2803 0.0
C567 C 0.93309 0.51706 0.27647 0.0
N568 N 0.95093 0.51663 0.28306 0.0
C569 C 0.91993 0.50029 0.27114 0.0
H570 H 0.95794 0.57153 0.29151 0.0
H571 H 0.93429 0.57225 0.28206 0.0
H572 H 0.95248 0.56946 0.26685 0.0
H573 H 0.92123 0.4958 0.25639 0.0
H574 H 0.9054 0.50358 0.27273 0.0
H575 H 0.92323 0.48866 0.27958 0.0
H576 H 0.13185 0.54523 0.33551 0.0
H577 H 0.09926 0.53837 0.32463 0.0
H578 H 0.08919 0.59569 0.33651 0.0
H579 H 0.12162 0.60249 0.34809 0.0
H580 H 0.06244 0.57387 0.34794 0.0
H581 H 0.07442 0.54938 0.27615 0.0
H582 H 0.08602 0.53637 0.2929 0.0
H583 H 0.09268 0.56065 0.29205 0.0
C584 C 0.1227 0.55638 0.33577 0.0
C585 C 0.12931 0.57442 0.34257 0.0
C586 C 0.1041 0.55247 0.3294 0.0
C587 C 0.09185 0.56659 0.32933 0.0
C588 C 0.0984 0.58458 0.33632 0.0
H589 H 0.98327 0.55483 0.2683 0.0
H590 H 0.01561 0.56392 0.27946 0.0
C591 C 0.11694 0.58845 0.34293 0.0
C592 C 0.07211 0.56255 0.32245 0.0
H593 H 0.04381 0.54331 0.28546 0.0
C594 C 0.05837 0.56731 0.33422 0.0
C595 C 0.06677 0.55427 0.30444 0.0
C596 C 0.08075 0.55005 0.29059 0.0
C597 C 0.03946 0.56371 0.32862 0.0
C598 C 0.03415 0.55457 0.31097 0.0
C599 C 0.04788 0.55012 0.29907 0.0
C600 C 0.01445 0.54953 0.30452 0.0
C601 C 0.02541 0.57009 0.34156 0.0
C602 C 0.00311 0.53836 0.31482 0.0
C603 C 0.9846 0.5336 0.30866 0.0
C604 C 0.97723 0.53954 0.29191 0.0
C605 C 0.98862 0.55042 0.28144 0.0
C606 C 0.00707 0.55544 0.28772 0.0
H607 H 0.0314 0.58168 0.3515 0.0
H608 H 0.01302 0.57468 0.33381 0.0
H609 H 0.02089 0.55846 0.34972 0.0
H610 H 0.0086 0.53321 0.32755 0.0
H611 H 0.97602 0.52524 0.31695 0.0
H612 H 0.34444 0.37928 0.76499 0.0
H613 H 0.37622 0.37977 0.75559 0.0
H614 H 0.37245 0.43562 0.73985 0.0
H615 H 0.34051 0.43493 0.74844 0.0
H616 H 0.39054 0.41649 0.71571 0.0
H617 H 0.4194 0.40578 0.78665 0.0
H618 H 0.40315 0.38729 0.77685 0.0
H619 H 0.39547 0.41006 0.7816 0.0
C620 C 0.35034 0.39158 0.75933 0.0
C621 C 0.34002 0.40712 0.75759 0.0
C622 C 0.36855 0.3919 0.75412 0.0
C623 C 0.37691 0.40792 0.74748 0.0
C624 C 0.36635 0.42315 0.74503 0.0
H625 H 0.49167 0.44645 0.75083 0.0
H626 H 0.4593 0.43839 0.75645 0.0
C627 C 0.34807 0.42273 0.74996 0.0
C628 C 0.39677 0.40918 0.74356 0.0
H629 H 0.44059 0.40704 0.76348 0.0
C630 C 0.40149 0.41435 0.72613 0.0
C631 C 0.41107 0.40666 0.75727 0.0
C632 C 0.40708 0.40232 0.77669 0.0
C633 C 0.42006 0.41736 0.72211 0.0
C634 C 0.43433 0.41447 0.73569 0.0
C635 C 0.42962 0.40902 0.75302 0.0
C636 C 0.45422 0.41837 0.73272 0.0
C637 C 0.42417 0.42441 0.70365 0.0
C638 C 0.46228 0.40949 0.7178 0.0
C639 C 0.48067 0.41438 0.71442 0.0
C640 C 0.49131 0.42798 0.72608 0.0
C641 C 0.48357 0.4361 0.74155 0.0
C642 C 0.46516 0.43143 0.74479 0.0
H643 H 0.41198 0.4304 0.69691 0.0
H644 H 0.43598 0.43515 0.70523 0.0
H645 H 0.42789 0.41275 0.69427 0.0
H646 H 0.45426 0.39903 0.70859 0.0
H647 H 0.48643 0.40798 0.70242 0.0
H648 H 0.6022 0.96589 0.64366 0.0
H649 H 0.57209 0.97373 0.65368 0.0
H650 H 0.59892 0.01842 0.6906 0.0
H651 H 0.62901 0.01119 0.67993 0.0
H652 H 0.55727 0.97417 0.68532 0.0
H653 H 0.56139 0.04576 0.66342 0.0
H654 H 0.57804 0.0295 0.65739 0.0
H655 H 0.58009 0.04198 0.67988 0.0
C656 C 0.60168 0.9774 0.65391 0.0
C657 C 0.61794 0.98805 0.66088 0.0
C658 C 0.58446 0.98187 0.65964 0.0
C659 C 0.58315 0.99694 0.6726 0.0
C660 C 0.59948 0.00713 0.68013 0.0
H661 H 0.48161 0.01279 0.7285 0.0
H662 H 0.51271 0.00487 0.72087 0.0
C663 C 0.61669 0.00289 0.67414 0.0
C664 C 0.56469 0.00187 0.67817 0.0
H665 H 0.53645 0.03742 0.68138 0.0
C666 C 0.55269 0.98799 0.68439 0.0
C667 C 0.55857 0.01983 0.67669 0.0
C668 C 0.57012 0.03506 0.6688 0.0
C669 C 0.53479 0.99154 0.68916 0.0
C670 C 0.52895 0.00969 0.68837 0.0
C671 C 0.54096 0.02356 0.68217 0.0
C672 C 0.51026 0.01451 0.69329 0.0
C673 C 0.52216 0.97564 0.69439 0.0
C674 C 0.49881 0.02319 0.68066 0.0
C675 C 0.48133 0.02807 0.68524 0.0
C676 C 0.47496 0.02419 0.70241 0.0
C677 C 0.48631 0.01558 0.71508 0.0
C678 C 0.50394 0.01099 0.71066 0.0
H679 H 0.52647 0.96209 0.6888 0.0
H680 H 0.5228 0.97557 0.70969 0.0
H681 H 0.50757 0.9769 0.68921 0.0
H682 H 0.50337 0.02614 0.66722 0.0
H683 H 0.47269 0.03478 0.67538 0.0
H684 H 0.87699 0.96825 0.27302 0.0
H685 H 0.90964 0.9621 0.27775 0.0
H686 H 0.92524 0.01068 0.24987 0.0
H687 H 0.89272 0.01723 0.2456 0.0
H688 H 0.93343 0.95447 0.25257 0.0
H689 H 0.96072 0.01804 0.29522 0.0
H690 H 0.93622 0.0117 0.29081 0.0
H691 H 0.94889 0.02315 0.27388 0.0
C692 C 0.88739 0.97775 0.2681 0.0
C693 C 0.88227 0.99328 0.25901 0.0
C694 C 0.90605 0.9742 0.27079 0.0
C695 C 0.91994 0.98608 0.26443 0.0
C696 C 0.91484 0.00159 0.25535 0.0
H697 H 0.02953 0.95617 0.23921 0.0
H698 H 0.99703 0.96371 0.23833 0.0
C699 C 0.89621 0.00525 0.25281 0.0
C700 C 0.93965 0.98169 0.26637 0.0
H701 H 0.98323 -0.00017 0.28169 0.0
C702 C 0.94429 0.96434 0.25907 0.0
C703 C 0.95381 0.99445 0.27511 0.0
C704 C 0.94965 0.01279 0.28437 0.0
C705 C 0.96273 0.95957 0.25986 0.0
C706 C 0.97699 0.97271 0.26769 0.0
C707 C 0.97232 0.98987 0.27543 0.0
C708 C 0.99683 0.96888 0.26807 0.0
C709 C 0.96668 0.94037 0.25253 0.0
C710 C 0.00773 0.97005 0.28497 0.0
C711 C 0.02631 0.96603 0.28539 0.0
C712 C 0.03423 0.96078 0.26894 0.0
C713 C 0.02352 0.96005 0.25202 0.0
C714 C 0.005 0.9642 0.25157 0.0
H715 H 0.95427 0.93045 0.25237 0.0
H716 H 0.97066 0.94083 0.23808 0.0
H717 H 0.97823 0.93504 0.26096 0.0
H718 H 0.00175 0.97373 0.29785 0.0
H719 H 0.03441 0.96656 0.29855 0.0
H720 H 0.37909 0.16216 0.62073 0.0
H721 H 0.37145 0.12876 0.62026 0.0
H722 H 0.32992 0.13191 0.57528 0.0
H723 H 0.33783 0.1652 0.57532 0.0
H724 H 0.33958 0.10858 0.62543 0.0
H725 H 0.36014 0.09194 0.55443 0.0
H726 H 0.36579 0.11433 0.56671 0.0
H727 H 0.34308 0.10862 0.55523 0.0
C728 C 0.36832 0.15575 0.61074 0.0
C729 C 0.35918 0.16631 0.59795 0.0
C730 C 0.36397 0.13666 0.6105 0.0
C731 C 0.35039 0.12777 0.59748 0.0
C732 C 0.34082 0.13838 0.5851 0.0
H733 H 0.29805 0.0173 0.5756 0.0
H734 H 0.30669 0.05072 0.57804 0.0
C735 C 0.34526 0.15744 0.58523 0.0
C736 C 0.34618 0.10743 0.59692 0.0
H737 H 0.34353 0.06773 0.5683 0.0
C738 C 0.34059 0.09963 0.61299 0.0
C739 C 0.34762 0.09574 0.5807 0.0
C740 C 0.35467 0.10304 0.56335 0.0
C741 C 0.33591 0.08053 0.61309 0.0
C742 C 0.33692 0.069 0.59675 0.0
C743 C 0.3427 0.07671 0.58077 0.0
C744 C 0.33162 0.0489 0.5958 0.0
C745 C 0.3295 0.07282 0.6305 0.0
C746 C 0.34285 0.03689 0.60491 0.0
C747 C 0.33804 0.0178 0.60332 0.0
C748 C 0.32192 0.01054 0.59266 0.0
C749 C 0.31064 0.02263 0.58372 0.0
C750 C 0.3155 0.04164 0.58518 0.0
H751 H 0.32698 0.08392 0.64116 0.0
H752 H 0.31656 0.06369 0.62729 0.0
H753 H 0.34024 0.06431 0.63639 0.0
H754 H 0.35547 0.04225 0.61298 0.0
H755 H 0.34705 0.00867 0.61009 0.0
H756 H 0.2424 0.89759 0.01618 0.0
H757 H 0.25175 0.9288 0.00803 0.0
H758 H 0.27124 0.90607 0.95711 0.0
H759 H 0.26155 0.87482 0.96494 0.0
H760 H 0.28569 0.94449 0.0017 0.0
H761 H 0.23749 0.94419 0.93884 0.0
H762 H 0.23544 0.9268 0.95527 0.0
H763 H 0.25227 0.9254 0.93829 0.0
C764 C 0.24864 0.89922 0.00322 0.0
C765 C 0.25112 0.88373 0.99114 0.0
C766 C 0.25398 0.91707 -0.0014 0.0
C767 C 0.26189 0.91979 0.98182 0.0
C768 C 0.26475 0.90433 0.96991 0.0
H769 H 0.32211 0.02184 0.95585 0.0
H770 H 0.31331 0.99016 0.96367 0.0
C771 C 0.2593 0.88647 0.97447 0.0
C772 C 0.26738 0.9388 0.97697 0.0
H773 H 0.26021 0.96957 0.94426 0.0
C774 C 0.28009 0.95 0.98916 0.0
C775 C 0.25987 0.94604 0.96073 0.0
C776 C 0.24537 0.93507 0.94761 0.0
C777 C 0.28565 0.96819 0.98548 0.0
C778 C 0.27859 0.97522 0.96894 0.0
C779 C 0.26574 0.96409 0.95684 0.0
C780 C 0.28405 0.99424 0.96411 0.0
C781 C 0.29869 0.97984 -0.00046 0.0
C782 C 0.27048 0.00682 0.96124 0.0
C783 C 0.27552 0.02475 0.95666 0.0
C784 C 0.29416 0.03033 0.95489 0.0
C785 C 0.30771 0.01776 0.95751 0.0
C786 C 0.30268 -0.00022 0.962 0.0
H787 H 0.29871 0.97433 0.01342 0.0
H788 H 0.313 0.97976 0.99506 0.0
H789 H 0.29492 0.9944 0.00078 0.0
H790 H 0.25602 0.0028 0.96268 0.0
H791 H 0.26493 0.03434 0.95457 0.0
H792 H 0.74394 0.33706 0.42127 0.0
H793 H 0.73063 0.36702 0.42465 0.0
H794 H 0.76341 0.38691 0.38186 0.0
H795 H 0.77658 0.35694 0.37818 0.0
H796 H 0.75058 0.4003 0.43503 0.0
H797 H 0.71237 0.40327 0.36652 0.0
H798 H 0.7202 0.38201 0.37461 0.0
H799 H 0.73613 0.39825 0.36514 0.0
C800 C 0.7481 0.34771 0.41236 0.0
C801 C 0.76132 0.34461 0.39944 0.0
C802 C 0.74049 0.36482 0.41433 0.0
C803 C 0.74587 0.37912 0.40336 0.0
C804 C 0.75876 0.37595 0.39019 0.0
H805 H 0.73296 0.49673 0.40508 0.0
H806 H 0.74037 0.46462 0.39768 0.0
C807 C 0.76636 0.35883 0.38818 0.0
C808 C 0.7391 0.39776 0.4067 0.0
H809 H 0.7169 0.43152 0.38576 0.0
C810 C 0.74305 0.40706 0.42431 0.0
C811 C 0.72938 0.40657 0.39266 0.0
C812 C 0.7241 0.39696 0.37371 0.0
C813 C 0.73791 0.42511 0.42816 0.0
C814 C 0.72832 0.43396 0.41408 0.0
C815 C 0.72427 0.42466 0.39649 0.0
C816 C 0.72266 0.45301 0.41737 0.0
C817 C 0.74323 0.43475 0.44711 0.0
C818 C 0.70989 0.45695 0.43048 0.0
C819 C 0.70565 0.47517 0.43458 0.0
C820 C 0.71405 0.48966 0.42561 0.0
C821 C 0.72626 0.48566 0.412 0.0
C822 C 0.73051 0.46742 0.40786 0.0
H823 H 0.75418 0.42779 0.45482 0.0
H824 H 0.74825 0.44942 0.44605 0.0
H825 H 0.73088 0.43461 0.4553 0.0
H826 H 0.70346 0.44598 0.43774 0.0
H827 H 0.69607 0.47805 0.44501 0.0
H828 H 0.66497 0.60358 0.9617 0.0
H829 H 0.67935 0.57596 0.97124 0.0
H830 H 0.68518 0.59918 0.02788 0.0
H831 H 0.67111 0.62698 0.01844 0.0
H832 H 0.71658 0.58284 0.01712 0.0
H833 H 0.65308 0.5359 -0.00112 0.0
H834 H 0.66068 0.54869 0.98018 0.0
H835 H 0.65282 0.56079 0.00027 0.0
C836 C 0.66938 0.60285 0.97618 0.0
C837 C 0.66678 0.61742 0.98934 0.0
C838 C 0.6775 0.58701 0.98162 0.0
C839 C 0.68301 0.5854 0.00031 0.0
C840 C 0.68093 0.60013 0.01339 0.0
H841 H 0.70492 0.48782 0.05685 0.0
H842 H 0.69255 0.51561 0.04494 0.0
C843 C 0.67287 0.61599 0.00797 0.0
C844 C 0.69075 0.56827 0.00632 0.0
H845 H 0.68035 0.52187 0.00821 0.0
C846 C 0.70869 0.56949 0.01515 0.0
C847 C 0.6803 0.55094 0.00396 0.0
C848 C 0.66059 0.54894 0.99546 0.0
C849 C 0.71653 0.5538 0.02157 0.0
C850 C 0.70624 0.53642 0.01879 0.0
C851 C 0.68827 0.53521 0.01009 0.0
C852 C 0.71358 0.51944 0.02556 0.0
C853 C 0.73555 0.55599 0.0317 0.0
C854 C 0.7293 0.51227 0.01838 0.0
C855 C 0.73636 0.49647 0.02523 0.0
C856 C 0.72776 0.48767 0.03928 0.0
C857 C 0.71179 0.49457 0.04611 0.0
C858 C 0.70474 0.51034 0.0393 0.0
H859 H 0.73988 0.5707 0.03617 0.0
H860 H 0.73592 0.54785 0.04409 0.0
H861 H 0.7458 0.55073 0.02239 0.0
H862 H 0.73613 0.51895 0.00757 0.0
H863 H 0.74871 0.49129 0.01988 0.0
H864 H 0.60979 0.35643 0.1549 0.0
H865 H 0.60704 0.34858 0.12146 0.0
H866 H 0.5602 0.30997 0.12732 0.0
H867 H 0.56254 0.31811 0.16071 0.0
H868 H 0.60936 0.31588 0.10149 0.0
H869 H 0.53951 0.34079 0.08776 0.0
H870 H 0.55297 0.34605 0.1096 0.0
H871 H 0.54024 0.32387 0.10457 0.0
C872 C 0.59887 0.3463 0.14908 0.0
C873 C 0.58629 0.338 0.16045 0.0
C874 C 0.59733 0.34181 0.12996 0.0
C875 C 0.5832 0.32894 0.12183 0.0
C876 C 0.5709 0.3203 0.13321 0.0
H877 H 0.55341 0.28388 0.0085 0.0
H878 H 0.5571 0.28926 0.0424 0.0
C879 C 0.57234 0.32488 0.15232 0.0
C880 C 0.58153 0.32444 0.10148 0.0
H881 H 0.55187 0.32421 0.06273 0.0
C882 C 0.59681 0.31776 0.09301 0.0
C883 C 0.56515 0.32693 0.09042 0.0
C884 C 0.54859 0.33497 0.0985 0.0
C885 C 0.59608 0.31331 0.07382 0.0
C886 C 0.5797 0.31573 0.06282 0.0
C887 C 0.56439 0.3223 0.07126 0.0
C888 C 0.57823 0.31186 0.04246 0.0
C889 C 0.61274 0.30583 0.06544 0.0
C890 C 0.58887 0.3228 0.03135 0.0
C891 C 0.58663 0.31984 0.01206 0.0
C892 C 0.57374 0.30591 0.00363 0.0
C893 C 0.56336 0.29475 0.01477 0.0
C894 C 0.56548 0.29779 0.03404 0.0
H895 H 0.62265 0.30101 0.0761 0.0
H896 H 0.60843 0.29415 0.05495 0.0
H897 H 0.62008 0.31692 0.05838 0.0
H898 H 0.59855 0.33393 0.03759 0.0
H899 H 0.59453 0.32876 0.00367 0.0
H900 H 0.00989 0.24901 0.88042 0.0
H901 H 0.00498 0.25755 0.91279 0.0
H902 H 0.95159 0.27615 0.89615 0.0
H903 H 0.95619 0.26727 0.86377 0.0
H904 H -0.00074 0.29122 0.93002 0.0
H905 H 0.93864 0.24124 0.93528 0.0
H906 H 0.95311 0.23991 0.91609 0.0
H907 H 0.93566 0.25629 0.91691 0.0
C908 C 0.99708 0.25489 0.88364 0.0
C909 C 0.98337 0.25735 0.86953 0.0
C910 C 0.99431 0.25977 0.90214 0.0
C911 C 0.97779 0.26717 0.9069 0.0
C912 C 0.96425 0.27003 0.89283 0.0
H913 H 0.93828 0.30656 0.01202 0.0
H914 H 0.94256 0.29957 0.97903 0.0
C915 C 0.96695 0.26506 0.87431 0.0
C916 C 0.9749 0.27215 0.92659 0.0
H917 H 0.94633 0.26331 0.96086 0.0
C918 C 0.98772 0.28507 0.93678 0.0
C919 C 0.95983 0.26411 0.93538 0.0
C920 C 0.94611 0.24949 0.92543 0.0
C921 C 0.98577 0.29031 0.95548 0.0
C922 C 0.97071 0.28228 0.96422 0.0
C923 C 0.95782 0.26947 0.95404 0.0
C924 C 0.96829 0.28674 0.98405 0.0
C925 C -0.00031 0.30457 0.9657 0.0
C926 C 0.98122 0.28165 0.99769 0.0
C927 C 0.9787 0.28549 0.01643 0.0
C928 C 0.96322 0.29448 0.02177 0.0
C929 C 0.95028 0.29956 0.00812 0.0
C930 C 0.95273 0.29563 0.98938 0.0
H931 H 0.00785 0.31243 0.95605 0.0
H932 H 0.99268 0.31449 0.97465 0.0
H933 H 0.00948 0.2975 0.97471 0.0
H934 H 0.99312 0.27446 0.99384 0.0
H935 H 0.98862 0.28116 0.02678 0.0
H936 H 0.38065 0.75989 0.3481 0.0
H937 H 0.38559 0.74656 0.37791 0.0
H938 H 0.42944 0.71607 0.3568 0.0
H939 H 0.42461 0.72927 0.32691 0.0
H940 H 0.40312 0.69545 0.37812 0.0
H941 H 0.43251 0.76257 0.41388 0.0
H942 H 0.4104 0.76288 0.40107 0.0
H943 H 0.43055 0.75839 0.38898 0.0
C944 C 0.39125 0.75023 0.34973 0.0
C945 C 0.40233 0.74573 0.33516 0.0
C946 C 0.39409 0.74269 0.36679 0.0
C947 C 0.40803 0.73054 0.36958 0.0
C948 C 0.41866 0.72549 0.3549 0.0
H949 H 0.45648 0.67407 0.45959 0.0
H950 H 0.44575 0.68417 0.42941 0.0
C951 C 0.41588 0.73307 0.33785 0.0
C952 C 0.41198 0.72355 0.38799 0.0
H953 H 0.42919 0.73723 0.43219 0.0
C954 C 0.40877 0.70455 0.38998 0.0
C955 C 0.41933 0.73551 0.40338 0.0
C956 C 0.42356 0.75596 0.40181 0.0
C957 C 0.41264 0.69717 0.40707 0.0
C958 C 0.42028 0.70909 0.42241 0.0
C959 C 0.42328 0.72813 0.42043 0.0
C960 C 0.42593 0.70209 0.44048 0.0
C961 C 0.40832 0.67673 0.40859 0.0
C962 C 0.41862 0.70907 0.45675 0.0
C963 C 0.42493 0.70347 0.47395 0.0
C964 C 0.43866 0.69085 0.47513 0.0
C965 C 0.44581 0.68374 0.45889 0.0
C966 C 0.43958 0.68937 0.4417 0.0
H967 H 0.39767 0.67075 0.39763 0.0
H968 H 0.42109 0.66944 0.4069 0.0
H969 H 0.40333 0.67401 0.42232 0.0
H970 H 0.40823 0.71905 0.45613 0.0
H971 H 0.41953 0.70936 0.48639 0.0
H972 H 0.0217 0.66288 0.61928 0.0
H973 H 0.0291 0.67508 0.58992 0.0
H974 H 0.97114 0.66927 0.57096 0.0
H975 H 0.96356 0.65728 0.60036 0.0
H976 H 0.02235 0.65768 0.55458 0.0
H977 H 0.98667 0.72269 0.56091 0.0
H978 H 0.99156 0.70918 0.58036 0.0
H979 H 0.97215 0.70222 0.56395 0.0
C980 C 0.0105 0.66432 0.60892 0.0
C981 C 0.99202 0.65917 0.61219 0.0
C982 C 0.01477 0.67127 0.59215 0.0
C983 C 0.00065 0.67331 0.57836 0.0
C984 C 0.98221 0.66816 0.58156 0.0
H985 H 0.0137 0.68442 0.46146 0.0
H986 H 0.00523 0.67413 0.49148 0.0
C987 C 0.97792 0.66122 0.59833 0.0
C988 C 0.00533 0.68019 0.5604 0.0
H989 H 0.99763 0.71445 0.53156 0.0
C990 C 0.01699 0.67012 0.54956 0.0
C991 C -0.00151 0.69653 0.554 0.0
C992 C 0.98666 0.7084 0.56547 0.0
C993 C 0.02176 0.67579 0.53233 0.0
C994 C 0.01443 0.6918 0.52567 0.0
C995 C 0.00304 0.70206 0.53664 0.0
C996 C 0.01873 0.69828 0.50747 0.0
C997 C 0.03483 0.66479 0.52152 0.0
C998 C 0.02863 0.71546 0.50652 0.0
C999 C 0.03327 0.72136 0.48943 0.0
C1000 C 0.02801 0.7102 0.47307 0.0
C1001 C 0.01774 0.69323 0.47396 0.0
C1002 C 0.0131 0.68731 0.49105 0.0
H1003 H 0.04259 0.65566 0.53038 0.0
H1004 H 0.02675 0.65593 0.51024 0.0
H1005 H 0.04494 0.67412 0.51513 0.0
H1006 H 0.03303 0.72416 0.51903 0.0
H1007 H 0.04111 0.73454 0.48894 0.0
H1008 H 0.83749 0.40988 0.67146 0.0
H1009 H 0.87072 0.4077 0.67862 0.0
H1010 H 0.86944 0.35998 0.63955 0.0
H1011 H 0.83621 0.36203 0.63226 0.0
H1012 H 0.89 0.37593 0.69127 0.0
H1013 H 0.9101 0.39792 0.62311 0.0
H1014 H 0.88783 0.40198 0.63161 0.0
H1015 H 0.89235 0.37924 0.62255 0.0
C1016 C 0.84425 0.39889 0.66441 0.0
C1017 C 0.83421 0.38619 0.6512 0.0
C1018 C 0.86322 0.39764 0.66856 0.0
C1019 C 0.87253 0.3838 0.65947 0.0
C1020 C 0.86252 0.37089 0.64654 0.0
H1021 H 0.99105 0.36984 0.6593 0.0
H1022 H 0.95715 0.36457 0.65429 0.0
C1023 C 0.84353 0.37206 0.64244 0.0
C1024 C 0.89279 0.38313 0.66331 0.0
H1025 H 0.93404 0.39024 0.6441 0.0
C1026 C 0.89966 0.379 0.68097 0.0
C1027 C 0.9053 0.38702 0.64978 0.0
C1028 C 0.89863 0.39193 0.63071 0.0
C1029 C 0.91879 0.37869 0.68548 0.0
C1030 C 0.93134 0.38308 0.6721 0.0
C1031 C 0.92441 0.38687 0.65434 0.0
C1032 C 0.95172 0.38465 0.6764 0.0
C1033 C 0.92535 0.37344 0.70445 0.0
C1034 C 0.95992 0.39754 0.69051 0.0
C1035 C 0.97921 0.40018 0.69349 0.0
C1036 C 0.99055 0.39012 0.68233 0.0
C1037 C 0.98242 0.37719 0.66835 0.0
C1038 C 0.96314 0.3744 0.66541 0.0
H1039 H 0.91438 0.36502 0.7107 0.0
H1040 H 0.93786 0.36551 0.70389 0.0
H1041 H 0.92893 0.38622 0.7137 0.0
H1042 H 0.95143 0.40598 0.6988 0.0
H1043 H 0.98533 0.41043 0.70415 0.0
H1044 H 0.6409 0.63194 0.23585 0.0
H1045 H 0.61492 0.6179 0.25101 0.0
H1046 H 0.57662 0.63519 0.20864 0.0
H1047 H 0.60251 0.64888 0.19315 0.0
H1048 H 0.58534 0.63345 0.26539 0.0
H1049 H 0.56103 0.58047 0.20838 0.0
H1050 H 0.58317 0.5936 0.20906 0.0
H1051 H 0.56231 0.60365 0.20128 0.0
C1052 C 0.62695 0.63273 0.22973 0.0
C1053 C 0.62377 0.64142 0.21323 0.0
C1054 C 0.61212 0.6247 0.23842 0.0
C1055 C 0.59387 0.6252 0.23077 0.0
C1056 C 0.59062 0.63423 0.21453 0.0
H1057 H 0.48564 0.58991 0.26497 0.0
H1058 H 0.51188 0.60422 0.25002 0.0
C1059 C 0.60544 0.64216 0.20576 0.0
C1060 C 0.57822 0.61651 0.23995 0.0
H1061 H 0.54134 0.58417 0.23302 0.0
C1062 C 0.57578 0.6226 0.25835 0.0
C1063 C 0.5658 0.60232 0.23075 0.0
C1064 C 0.56827 0.59448 0.21134 0.0
C1065 C 0.56104 0.61512 0.26768 0.0
C1066 C 0.54853 0.60113 0.25838 0.0
C1067 C 0.55096 0.59498 0.24003 0.0
C1068 C 0.53281 0.59265 0.2675 0.0
C1069 C 0.55872 0.62243 0.28728 0.0
C1070 C 0.53597 0.58134 0.2821 0.0
C1071 C 0.52105 0.57322 0.29056 0.0
C1072 C 0.50282 0.57633 0.28454 0.0
C1073 C 0.49965 0.58757 0.26989 0.0
C1074 C 0.51456 0.59562 0.26136 0.0
H1075 H 0.56737 0.63556 0.29123 0.0
H1076 H 0.54399 0.62483 0.28909 0.0
H1077 H 0.56291 0.61202 0.29692 0.0
H1078 H 0.54997 0.57872 0.28686 0.0
H1079 H 0.52368 0.56456 0.30186 0.0
H1080 H 0.37621 0.99382 0.33197 0.0
H1081 H 0.40898 0.98897 0.32963 0.0
H1082 H 0.42155 0.04791 0.32959 0.0
H1083 H 0.38884 0.05293 0.3324 0.0
H1084 H 0.43343 0.99749 0.30414 0.0
H1085 H 0.45604 0.03483 0.37227 0.0
H1086 H 0.43198 0.02858 0.36501 0.0
H1087 H 0.44381 0.04853 0.35658 0.0
C1088 C 0.38592 0.00576 0.33138 0.0
C1089 C 0.37994 0.02378 0.33255 0.0
C1090 C 0.40465 0.00296 0.33003 0.0
C1091 C 0.41777 0.0181 0.3298 0.0
C1092 C 0.41174 0.03606 0.33021 0.0
H1093 H 0.53299 0.00741 0.30406 0.0
H1094 H 0.50072 0.01587 0.30367 0.0
C1095 C 0.39302 0.03889 0.3317 0.0
C1096 C 0.43776 0.01501 0.32951 0.0
H1097 H 0.47971 0.0248 0.354 0.0
C1098 C 0.44356 0.00351 0.315 0.0
C1099 C 0.45092 0.02263 0.34387 0.0
C1100 C 0.4454 0.03418 0.36041 0.0
C1101 C 0.46218 -0.00053 0.31444 0.0
C1102 C 0.47536 0.00747 0.32855 0.0
C1103 C 0.46958 0.01892 0.34307 0.0
C1104 C 0.49508 0.00331 0.32904 0.0
C1105 C 0.46749 0.98623 0.29907 0.0
C1106 C 0.50268 0.99396 0.34367 0.0
C1107 C 0.52106 0.98938 0.34398 0.0
C1108 C 0.53216 0.99421 0.32978 0.0
C1109 C 0.52471 0.00388 0.31531 0.0
C1110 C 0.50628 0.00848 0.31498 0.0
H1111 H 0.45519 0.97813 0.2918 0.0
H1112 H 0.47458 0.99419 0.28878 0.0
H1113 H 0.47721 0.97643 0.30454 0.0
H1114 H 0.49427 0.98986 0.35465 0.0
H1115 H 0.52659 0.9818 0.35516 0.0
H1116 H 0.074 0.92977 0.78609 0.0
H1117 H 0.04245 0.93964 0.78384 0.0
H1118 H 0.05789 0.97804 0.74394 0.0
H1119 H 0.08958 0.96844 0.74628 0.0
H1120 H 0.03697 0.99326 0.77122 0.0
H1121 H 0.004 0.92583 0.74008 0.0
H1122 H 0.01774 0.92425 0.7614 0.0
H1123 H 0.02873 0.93141 0.74138 0.0
C1124 C 0.0707 0.94032 0.77683 0.0
C1125 C 0.08428 0.94825 0.76628 0.0
C1126 C 0.05264 0.94587 0.7755 0.0
C1127 C 0.04777 0.95935 0.7635 0.0
C1128 C 0.06135 0.96754 0.75321 0.0
H1129 H 0.93553 0.9822 0.7271 0.0
H1130 H 0.96789 0.97416 0.72894 0.0
C1131 C 0.07944 0.96202 0.75455 0.0
C1132 C 0.02852 0.96495 0.76174 0.0
H1133 H 0.98375 0.9483 0.74976 0.0
C1134 C 0.02532 0.98347 0.76648 0.0
C1135 C 0.0134 0.95219 0.7553 0.0
C1136 C 0.01609 0.93235 0.74907 0.0
C1137 C 0.00734 0.9895 0.76527 0.0
C1138 C 0.99216 0.97657 0.75944 0.0
C1139 C 0.9954 0.95814 0.75439 0.0
C1140 C 0.97279 0.98187 0.75833 0.0
C1141 C 0.00477 0.00969 0.76995 0.0
C1142 C 0.96481 0.98873 0.77425 0.0
C1143 C 0.94637 0.99323 0.77317 0.0
C1144 C 0.93561 0.99076 0.75623 0.0
C1145 C 0.94357 0.98392 0.74033 0.0
C1146 C 0.962 0.97945 0.74138 0.0
H1147 H 0.01784 0.01849 0.76929 0.0
H1148 H 0.99388 0.01467 0.76041 0.0
H1149 H 0.0004 0.01151 0.78426 0.0
H1150 H 0.97276 0.99036 0.78753 0.0
H1151 H 0.94038 -0.0016 0.78558 0.0
H1152 H 0.58748 0.86836 0.34193 0.0
H1153 H 0.59624 0.9016 0.34763 0.0
H1154 H 0.64637 0.88977 0.37865 0.0
H1155 H 0.63788 0.8566 0.37286 0.0
H1156 H 0.60302 0.92266 0.38151 0.0
H1157 H 0.66536 0.92512 0.34156 0.0
H1158 H 0.64822 0.90564 0.33915 0.0
H1159 H 0.66556 0.90811 0.35833 0.0
C1160 C 0.60041 0.87283 0.34991 0.0
C1161 C 0.61203 0.85982 0.35687 0.0
C1162 C 0.60538 0.89182 0.35315 0.0
C1163 C 0.6221 0.89812 0.36328 0.0
C1164 C 0.6336 0.88519 0.37044 0.0
H1165 H 0.67995 0.00248 0.40446 0.0
H1166 H 0.6696 0.96987 0.39574 0.0
C1167 C 0.62866 0.86623 0.36722 0.0
C1168 C 0.62732 0.91823 0.3669 0.0
H1169 H 0.66165 0.95168 0.36176 0.0
C1170 C 0.61574 0.92909 0.37704 0.0
C1171 C 0.64389 0.92655 0.36101 0.0
C1172 C 0.6564 0.91581 0.34925 0.0
C1173 C 0.62064 0.94792 0.38208 0.0
C1174 C 0.63743 0.95616 0.37651 0.0
C1175 C 0.64882 0.94536 0.36606 0.0
C1176 C 0.64365 0.97588 0.38165 0.0
C1177 C 0.60812 0.9586 0.3939 0.0
C1178 C 0.63264 0.99005 0.37642 0.0
C1179 C 0.6386 0.0086 0.38134 0.0
C1180 C 0.65562 0.0132 0.39156 0.0
C1181 C 0.66674 -0.0009 0.39661 0.0
C1182 C 0.66085 0.98056 0.39162 0.0
H1183 H 0.59885 0.94924 0.40122 0.0
H1184 H 0.61628 0.96842 0.40434 0.0
H1185 H 0.59924 0.96665 0.38491 0.0
H1186 H 0.61946 0.98671 0.36855 0.0
H1187 H 0.62984 0.01936 0.37745 0.0
H1188 H 0.7634 0.09345 0.00456 0.0
H1189 H 0.7659 0.06123 0.0115 0.0
H1190 H 0.76167 0.04453 0.95303 0.0
H1191 H 0.75986 0.07677 0.94601 0.0
H1192 H 0.74181 0.03248 0.00414 0.0
H1193 H 0.80541 0.01781 0.96984 0.0
H1194 H 0.79824 0.04097 0.97364 0.0
H1195 H 0.78824 0.02599 0.95409 0.0
C1196 C 0.76319 0.08293 0.99318 0.0
C1197 C 0.76152 0.08766 0.97473 0.0
C1198 C 0.76462 0.06452 0.99717 0.0
C1199 C 0.76432 0.05047 0.9828 0.0
C1200 C 0.7625 0.05516 0.96436 0.0
H1201 H 0.73156 0.93492 0.99068 0.0
H1202 H 0.73373 0.96794 0.9856 0.0
C1203 C 0.76132 0.0736 0.96036 0.0
C1204 C 0.76487 0.03082 0.9871 0.0
H1205 H 0.78655 0.9914 0.97758 0.0
C1206 C 0.75172 0.02356 -0.00154 0.0
C1207 C 0.778 0.01922 0.97999 0.0
C1208 C 0.79339 0.02645 0.96889 0.0
C1209 C 0.75097 0.00492 0.00246 0.0
C1210 C 0.76334 0.99306 0.99439 0.0
C1211 C 0.77688 0.00043 0.98352 0.0
C1212 C 0.76226 0.97292 0.99684 0.0
C1213 C 0.73707 -0.00179 0.01548 0.0
C1214 C 0.77778 0.96458 0.00412 0.0
C1215 C 0.77667 0.94561 0.00654 0.0
C1216 C 0.76002 0.93473 0.00173 0.0
C1217 C 0.7446 0.94302 0.99424 0.0
C1218 C 0.74575 0.96191 0.99163 0.0
H1219 H 0.73308 0.00977 0.02487 0.0
H1220 H 0.72432 0.99211 0.00729 0.0
H1221 H 0.74261 0.98748 0.02403 0.0
H1222 H 0.7907 0.97278 0.00811 0.0
H1223 H 0.78874 0.93942 0.01224 0.0
H1224 H 0.23913 0.65026 0.63269 0.0
H1225 H 0.24716 0.61831 0.62706 0.0
H1226 H 0.28336 0.63522 0.58574 0.0
H1227 H 0.27554 0.66725 0.59136 0.0
H1228 H 0.24094 0.59743 0.59271 0.0
H1229 H 0.3155 0.60313 0.6175 0.0
H1230 H 0.29999 0.62053 0.62377 0.0
H1231 H 0.30904 0.6196 0.60135 0.0
C1232 C 0.249 0.64724 0.62257 0.0
C1233 C 0.2567 0.66131 0.61247 0.0
C1234 C 0.25355 0.62897 0.61937 0.0
C1235 C 0.266 0.62444 0.60614 0.0
C1236 C 0.27399 0.63848 0.59627 0.0
H1237 H 0.3001 0.52117 0.55658 0.0
H1238 H 0.29639 0.55384 0.56595 0.0
C1239 C 0.26942 0.65676 0.59943 0.0
C1240 C 0.26958 0.60483 0.60175 0.0
H1241 H 0.30367 0.57472 0.60118 0.0
C1242 C 0.25462 0.59242 0.59468 0.0
C1243 C 0.28748 0.59841 0.60421 0.0
C1244 C 0.30393 0.61105 0.61226 0.0
C1245 C 0.25712 0.57379 0.58973 0.0
C1246 C 0.27499 0.56733 0.59228 0.0
C1247 C 0.28998 0.57973 0.59931 0.0
C1248 C 0.27831 0.54774 0.58755 0.0
C1249 C 0.24069 0.56127 0.58138 0.0
C1250 C 0.26974 0.53359 0.59689 0.0
C1251 C 0.27181 0.51505 0.5915 0.0
C1252 C 0.28253 0.51041 0.57677 0.0
C1253 C 0.29168 0.52455 0.5679 0.0
C1254 C 0.2896 0.54311 0.57326 0.0
H1255 H 0.22913 0.56927 0.57626 0.0
H1256 H 0.24467 0.55202 0.56971 0.0
H1257 H 0.23551 0.55247 0.59207 0.0
H1258 H 0.26119 0.5369 0.60812 0.0
H1259 H 0.26461 0.50428 0.59843 0.0
H1260 H 0.36408 0.44199 0.06055 0.0
H1261 H 0.36056 0.472 0.04808 0.0
H1262 H 0.31924 0.44669 0.00652 0.0
H1263 H 0.32307 0.41648 0.01861 0.0
H1264 H 0.34404 0.46982 0.99186 0.0
H1265 H 0.31905 0.50531 0.05437 0.0
H1266 H 0.34081 0.49565 0.05904 0.0
H1267 H 0.32042 0.48056 0.05178 0.0
C1268 C 0.35416 0.44281 0.04883 0.0
C1269 C 0.34378 0.42687 0.04063 0.0
C1270 C 0.35208 0.46001 0.04178 0.0
C1271 C 0.33937 0.46167 0.0266 0.0
C1272 C 0.32905 0.44575 0.01832 0.0
H1273 H 0.30753 0.55527 0.96585 0.0
H1274 H 0.30934 0.52466 0.97798 0.0
C1275 C 0.33124 0.4285 0.02526 0.0
C1276 C 0.33728 0.4799 0.019 0.0
H1277 H 0.32818 0.52455 0.03077 0.0
C1278 C 0.34042 0.48174 0.00033 0.0
C1279 C 0.33249 0.49545 0.03005 0.0
C1280 C 0.32781 0.49413 0.04986 0.0
C1281 C 0.33936 0.49882 0.99254 0.0
C1282 C 0.33497 0.51439 0.00373 0.0
C1283 C 0.33167 0.51256 0.02232 0.0
C1284 C 0.33381 0.53277 0.99638 0.0
C1285 C 0.34331 0.50022 0.97254 0.0
C1286 C 0.34678 0.54745 0.00296 0.0
C1287 C 0.34581 0.5648 0.99595 0.0
C1288 C 0.33179 0.56773 0.9824 0.0
C1289 C 0.31861 0.55315 0.9761 0.0
C1290 C 0.31964 0.53576 0.983 0.0
H1291 H 0.34997 0.48794 0.96687 0.0
H1292 H 0.3301 0.50123 0.96411 0.0
H1293 H 0.35244 0.51286 0.97096 0.0
H1294 H 0.35776 0.54539 0.01334 0.0
H1295 H 0.3561 0.5759 0.0009 0.0
H1296 H 0.38693 0.62931 0.8549 0.0
H1297 H 0.39133 0.63343 0.88865 0.0
H1298 H 0.34709 0.5914 0.89291 0.0
H1299 H 0.3428 0.58689 0.85907 0.0
H1300 H 0.36459 0.64353 0.9134 0.0
H1301 H 0.38929 0.5745 0.92677 0.0
H1302 H 0.3905 0.58402 0.90453 0.0
H1303 H 0.36871 0.57489 0.91155 0.0
C1304 C 0.37819 0.62084 0.86298 0.0
C1305 C 0.36457 0.60771 0.85428 0.0
C1306 C 0.38073 0.62323 0.88227 0.0
C1307 C 0.36974 0.61252 0.89326 0.0
C1308 C 0.35601 0.59949 0.88467 0.0
H1309 H 0.37582 0.60786 0.01351 0.0
H1310 H 0.36808 0.6019 0.98003 0.0
C1311 C 0.35351 0.59702 0.86534 0.0
C1312 C 0.3724 0.61553 0.9137 0.0
H1313 H 0.38623 0.59501 0.95263 0.0
C1314 C 0.36937 0.63296 0.92202 0.0
C1315 C 0.37825 0.60157 0.92489 0.0
C1316 C 0.38202 0.5827 0.91658 0.0
C1317 C 0.37198 0.63687 0.94127 0.0
C1318 C 0.37857 0.62316 0.95248 0.0
C1319 C 0.38127 0.60558 0.94412 0.0
C1320 C 0.38312 0.62685 0.97278 0.0
C1321 C 0.36694 0.65543 0.9493 0.0
C1322 C 0.39466 0.6425 0.97987 0.0
C1323 C 0.39882 0.64598 -0.00107 0.0
C1324 C 0.3919 0.63363 0.0112 0.0
C1325 C 0.38086 0.61773 0.0042 0.0
C1326 C 0.37654 0.61432 0.98514 0.0
H1327 H 0.35581 0.66092 0.94042 0.0
H1328 H 0.36216 0.65463 0.96341 0.0
H1329 H 0.37925 0.66551 0.94999 0.0
H1330 H 0.40064 0.65197 0.97068 0.0
H1331 H 0.40756 0.65821 0.00414 0.0
H1332 H 0.96559 0.7423 0.08685 0.0
H1333 H 0.97588 0.74208 0.0555 0.0
H1334 H 0.93416 0.77891 0.04054 0.0
H1335 H 0.92356 0.77898 0.07178 0.0
H1336 H 0.93503 0.74943 0.01484 0.0
H1337 H 0.00581 0.78291 0.03246 0.0
H1338 H 0.00072 0.76296 0.04499 0.0
H1339 H 0.98801 0.78312 0.04862 0.0
C1340 C 0.95865 0.75043 0.07692 0.0
C1341 C 0.94378 0.7607 0.08183 0.0
C1342 C 0.96464 0.75038 0.05904 0.0
C1343 C 0.95599 0.76072 0.04578 0.0
C1344 C 0.9411 0.77092 0.05061 0.0
H1345 H 0.99679 0.78294 0.93873 0.0
H1346 H 0.98657 0.78568 0.97034 0.0
C1347 C 0.93507 0.77095 0.06846 0.0
C1348 C 0.962 0.76035 0.02667 0.0
H1349 H -0.00065 0.76918 0.00167 0.0
C1350 C 0.94906 0.75383 0.01195 0.0
C1351 C 0.98025 0.76634 0.02291 0.0
C1352 C 0.99447 0.7744 0.03805 0.0
C1353 C 0.95399 0.75276 0.99358 0.0
C1354 C 0.97243 0.75804 0.98989 0.0
C1355 C 0.98526 0.76496 0.00457 0.0
C1356 C 0.97869 0.75641 0.9709 0.0
C1357 C 0.93934 0.74618 0.97827 0.0
C1358 C 0.97791 0.73906 0.96092 0.0
C1359 C 0.98371 0.73754 0.94298 0.0
C1360 C 0.99047 0.75333 0.93479 0.0
C1361 C 0.99156 0.77064 0.94486 0.0
C1362 C 0.98574 0.77218 0.96282 0.0
H1363 H 0.92514 0.74759 0.98276 0.0
H1364 H 0.94102 0.75405 0.96586 0.0
H1365 H 0.94064 0.73133 0.97425 0.0
H1366 H 0.97296 0.72666 0.96707 0.0
H1367 H 0.98317 0.72403 0.93554 0.0
H1368 H 0.63181 0.23512 0.64867 0.0
H1369 H 0.63027 0.23947 0.61558 0.0
H1370 H 0.58934 0.2791 0.62294 0.0
H1371 H 0.59048 0.2745 0.65605 0.0
H1372 H 0.5786 0.25348 0.59502 0.0
H1373 H 0.65043 0.281 0.58684 0.0
H1374 H 0.64967 0.25967 0.59787 0.0
H1375 H 0.64118 0.27989 0.6092 0.0
C1376 C 0.62267 0.24497 0.64332 0.0
C1377 C 0.61126 0.25447 0.655 0.0
C1378 C 0.62189 0.24753 0.62439 0.0
C1379 C 0.60989 0.25982 0.61681 0.0
C1380 C 0.59877 0.26961 0.62851 0.0
H1381 H 0.60464 0.28741 0.5011 0.0
H1382 H 0.61019 0.28882 0.53502 0.0
C1383 C 0.59946 0.26699 0.64743 0.0
C1384 C 0.60791 0.26134 0.5965 0.0
H1385 H 0.63234 0.26929 0.55895 0.0
C1386 C 0.59033 0.25712 0.58717 0.0
C1387 C 0.62315 0.26633 0.58627 0.0
C1388 C 0.64213 0.27217 0.59558 0.0
C1389 C 0.58769 0.25714 0.56785 0.0
C1390 C 0.60313 0.26108 0.55754 0.0
C1391 C 0.62059 0.26597 0.56688 0.0
C1392 C 0.60138 0.25997 0.53704 0.0
C1393 C 0.56835 0.25302 0.55866 0.0
C1394 C 0.59522 0.24318 0.52697 0.0
C1395 C 0.59219 0.24239 0.50773 0.0
C1396 C 0.59544 0.25831 0.49825 0.0
C1397 C 0.60236 0.27493 0.50819 0.0
C1398 C 0.60538 0.27575 0.52749 0.0
H1399 H 0.55762 0.25552 0.56854 0.0
H1400 H 0.56597 0.26161 0.54678 0.0
H1401 H 0.56648 0.23824 0.55337 0.0
H1402 H 0.5924 0.23076 0.53404 0.0
H1403 H 0.58681 0.22949 0.50022 0.0
H1404 H 0.03904 0.31417 0.4069 0.0
H1405 H 0.02485 0.31185 0.43636 0.0
H1406 H 0.06364 0.35565 0.46174 0.0
H1407 H 0.07788 0.35815 0.43241 0.0
H1408 H 0.04207 0.30552 0.47269 0.0
H1409 H 0.01137 0.37337 0.47077 0.0
H1410 H 0.01937 0.36144 0.4505 0.0
H1411 H 0.03572 0.37396 0.46745 0.0
C1412 C 0.04461 0.32326 0.41877 0.0
C1413 C 0.05952 0.33643 0.41729 0.0
C1414 C 0.0365 0.32189 0.43557 0.0
C1415 C 0.04305 0.33376 0.45109 0.0
C1416 C 0.05822 0.34657 0.4498 0.0
H1417 H 0.01372 0.3557 0.56297 0.0
H1418 H 0.02758 0.35485 0.53307 0.0
C1419 C 0.06638 0.34791 0.43306 0.0
C1420 C 0.03393 0.33295 0.46862 0.0
H1421 H 0.00982 0.35838 0.49861 0.0
C1422 C 0.03491 0.317 0.47835 0.0
C1423 C 0.02459 0.34796 0.47585 0.0
C1424 C 0.02251 0.36511 0.46557 0.0
C1425 C 0.02726 0.3159 0.49551 0.0
C1426 C 0.01812 0.33103 0.50287 0.0
C1427 C 0.0169 0.34684 0.49295 0.0
C1428 C 0.01009 0.33099 0.52105 0.0
C1429 C 0.02954 0.29883 0.50587 0.0
C1430 C 0.99566 0.3179 0.52414 0.0
C1431 C 0.98793 0.31829 0.54125 0.0
C1432 C 0.99434 0.33195 0.55535 0.0
C1433 C 0.00872 0.34502 0.55225 0.0
C1434 C 0.01653 0.34457 0.53522 0.0
H1435 H 0.04067 0.29061 0.5006 0.0
H1436 H 0.03281 0.30256 0.52091 0.0
H1437 H 0.01638 0.2899 0.50412 0.0
H1438 H 0.99024 0.30753 0.51328 0.0
H1439 H 0.9769 0.30804 0.54347 0.0
H1440 H 0.20409 0.54201 0.40511 0.0
H1441 H 0.21547 0.52747 0.43261 0.0
H1442 H 0.24573 0.57898 0.4534 0.0
H1443 H 0.23519 0.59319 0.42532 0.0
H1444 H 0.2662 0.55287 0.45954 0.0
H1445 H 0.19769 0.53109 0.48256 0.0
H1446 H 0.19998 0.52105 0.45967 0.0
H1447 H 0.20023 0.54587 0.46385 0.0
C1448 C 0.21315 0.55019 0.41559 0.0
C1449 C 0.21882 0.56868 0.41314 0.0
C1450 C 0.21951 0.54194 0.4314 0.0
C1451 C 0.23107 0.55223 0.4454 0.0
C1452 C 0.23676 0.57074 0.44287 0.0
H1453 H 0.25036 0.50687 0.55294 0.0
H1454 H 0.23974 0.52522 0.5278 0.0
C1455 C 0.23079 0.57885 0.42683 0.0
C1456 C 0.23773 0.54352 0.46233 0.0
H1457 H 0.22352 0.51639 0.49593 0.0
C1458 C 0.25682 0.54508 0.46762 0.0
C1459 C 0.22552 0.53371 0.47322 0.0
C1460 C 0.20471 0.53302 0.46965 0.0
C1461 C 0.26406 0.5367 0.4831 0.0
C1462 C 0.252 0.52565 0.49308 0.0
C1463 C 0.23286 0.52455 0.48813 0.0
C1464 C 0.25889 0.51502 0.50859 0.0
C1465 C 0.28452 0.54017 0.48874 0.0
C1466 C 0.27307 0.50304 0.50621 0.0
C1467 C 0.27955 0.4931 0.52079 0.0
C1468 C 0.27155 0.49441 0.53782 0.0
C1469 C 0.25696 0.50589 0.54004 0.0
C1470 C 0.25081 0.51624 0.52562 0.0
H1471 H 0.29012 0.55366 0.48433 0.0
H1472 H 0.28741 0.54014 0.50396 0.0
H1473 H 0.29209 0.5292 0.48185 0.0
H1474 H 0.27912 0.5013 0.49306 0.0
H1475 H 0.29089 0.48443 0.51881 0.0
H1476 H 0.3222 0.45584 0.82568 0.0
H1477 H 0.33486 0.48029 0.84901 0.0
H1478 H 0.28343 0.47723 0.87537 0.0
H1479 H 0.27069 0.45268 0.85227 0.0
H1480 H 0.32114 0.51445 0.85562 0.0
H1481 H 0.32209 0.47632 0.91901 0.0
H1482 H 0.31985 0.46472 0.89602 0.0
H1483 H 0.29997 0.47364 0.90599 0.0
C1484 C 0.31364 0.4602 0.83657 0.0
C1485 C 0.29541 0.45227 0.8371 0.0
C1486 C 0.32091 0.47418 0.84988 0.0
C1487 C 0.31018 0.4804 0.86405 0.0
C1488 C 0.29209 0.47237 0.86478 0.0
H1489 H 0.30507 0.58103 0.92818 0.0
H1490 H 0.30372 0.55521 0.90443 0.0
C1491 C 0.28479 0.4584 0.85148 0.0
C1492 C 0.31735 0.49614 0.87736 0.0
H1493 H 0.32373 0.50952 0.92355 0.0
C1494 C 0.32197 0.51332 0.87047 0.0
C1495 C 0.31875 0.49458 0.89671 0.0
C1496 C 0.31509 0.47627 0.90489 0.0
C1497 C 0.32692 0.5292 0.88246 0.0
C1498 C 0.32702 0.52785 0.90177 0.0
C1499 C 0.32345 0.51051 0.90869 0.0
C1500 C 0.32915 0.54448 0.91496 0.0
C1501 C 0.33174 0.54736 0.87442 0.0
C1502 C 0.34391 0.54698 0.92869 0.0
C1503 C 0.34483 0.56194 0.94206 0.0
C1504 C 0.33083 0.57433 0.94205 0.0
C1505 C 0.31624 0.57192 0.92815 0.0
C1506 C 0.31544 0.55715 0.91467 0.0
H1507 H 0.33567 0.54526 0.85995 0.0
H1508 H 0.31953 0.55574 0.87435 0.0
H1509 H 0.34334 0.55538 0.88292 0.0
H1510 H 0.35455 0.53726 0.92919 0.0
H1511 H 0.35621 0.56365 0.95268 0.0
H1512 H 0.6654 0.00457 0.58011 0.0
H1513 H 0.66176 0.01242 0.54804 0.0
H1514 H 0.65458 0.95439 0.5296 0.0
H1515 H 0.65873 0.94637 0.56172 0.0
H1516 H 0.67863 0.97233 0.50991 0.0
H1517 H 0.61628 0.01152 0.513 0.0
H1518 H 0.63396 0.02067 0.53041 0.0
H1519 H 0.6237 0.99743 0.53122 0.0
C1520 C 0.66285 0.99345 0.56927 0.0
C1521 C 0.66233 0.97483 0.5735 0.0
C1522 C 0.66062 -0.00203 0.55092 0.0
C1523 C 0.65752 0.984 0.53641 0.0
C1524 C 0.65682 0.9654 0.54058 0.0
H1525 H 0.63451 0.01945 0.42433 0.0
H1526 H 0.6315 0.00283 0.45246 0.0
C1527 C 0.6592 0.96084 0.55895 0.0
C1528 C 0.65627 0.98891 0.5169 0.0
H1529 H 0.63528 0.0172 0.4877 0.0
C1530 C 0.66895 0.98192 0.50496 0.0
C1531 C 0.64339 0.0011 0.51028 0.0
C1532 C 0.62844 0.00794 0.52185 0.0
C1533 C 0.66978 0.98759 0.48695 0.0
C1534 C 0.65794 0.00097 0.4809 0.0
C1535 C 0.64456 0.00716 0.49244 0.0
C1536 C 0.65998 0.00963 0.46319 0.0
C1537 C 0.68344 0.97928 0.47466 0.0
C1538 C 0.67694 0.0189 0.45989 0.0
C1539 C 0.67866 0.02815 0.44384 0.0
C1540 C 0.66337 0.02861 0.43099 0.0
C1541 C 0.64645 0.01919 0.43411 0.0
C1542 C 0.64474 0.00979 0.45014 0.0
H1543 H 0.68647 0.96521 0.47853 0.0
H1544 H 0.6782 0.97834 0.45985 0.0
H1545 H 0.69668 0.98809 0.47634 0.0
H1546 H 0.68877 0.01935 0.46994 0.0
H1547 H 0.69187 0.03516 0.44153 0.0
H1548 H 0.82662 0.97348 0.18452 0.0
H1549 H 0.82197 0.96072 0.15229 0.0
H1550 H 0.77225 0.98942 0.14507 0.0
H1551 H 0.77681 0.00238 0.17718 0.0
H1552 H 0.79069 0.93818 0.13723 0.0
H1553 H 0.80001 0.00161 0.09951 0.0
H1554 H 0.80793 0.00083 0.12358 0.0
H1555 H 0.78386 0.00307 0.11711 0.0
C1556 C 0.81481 0.97728 0.17603 0.0
C1557 C 0.80208 0.98895 0.18346 0.0
C1558 C 0.81219 0.96996 0.15762 0.0
C1559 C 0.7969 0.97431 0.14625 0.0
C1560 C 0.78434 0.98619 0.1535 0.0
H1561 H 0.74526 0.93568 0.03819 0.0
H1562 H 0.75469 0.95232 0.06845 0.0
C1563 C 0.78692 0.99348 0.17192 0.0
C1564 C 0.79332 0.96537 0.12723 0.0
H1565 H 0.78713 0.97426 0.08175 0.0
C1566 C 0.79009 0.94603 0.12507 0.0
C1567 C 0.79243 0.97569 0.11145 0.0
C1568 C 0.7964 0.99644 0.11294 0.0
C1569 C 0.78552 0.93674 0.10756 0.0
C1570 C 0.78455 0.94707 0.09176 0.0
C1571 C 0.78792 0.9664 0.0939 0.0
C1572 C 0.77961 0.938 0.07296 0.0
C1573 C 0.78119 0.91603 0.10621 0.0
C1574 C 0.79073 0.92483 0.06533 0.0
C1575 C 0.78533 0.91538 0.04814 0.0
C1576 C 0.76887 0.91912 0.03829 0.0
C1577 C 0.75806 0.93273 0.0456 0.0
C1578 C 0.76343 0.94216 0.06282 0.0
H1579 H 0.77802 0.91093 0.11979 0.0
H1580 H 0.76922 0.91182 0.09603 0.0
H1581 H 0.79338 0.90913 0.10153 0.0
H1582 H 0.80345 0.92169 0.07277 0.0
H1583 H 0.79385 0.90501 0.04257 0.0
H1584 H 0.42709 0.21052 0.55844 0.0
H1585 H 0.45482 0.20987 0.54111 0.0
H1586 H 0.47146 0.26613 0.56189 0.0
H1587 H 0.44396 0.26692 0.57934 0.0
H1588 H 0.46379 0.23359 0.51363 0.0
H1589 H 0.51893 0.23957 0.57113 0.0
H1590 H 0.49498 0.23289 0.57439 0.0
H1591 H 0.50254 0.25686 0.57314 0.0
C1592 C 0.43676 0.22269 0.55951 0.0
C1593 C 0.43329 0.23877 0.57029 0.0
C1594 C 0.45258 0.22228 0.54959 0.0
C1595 C 0.4653 0.23786 0.55043 0.0
C1596 C 0.46201 0.25383 0.56135 0.0
H1597 H 0.56 0.27775 0.49679 0.0
H1598 H 0.53386 0.27234 0.51595 0.0
C1599 C 0.4462 0.25428 0.57122 0.0
C1600 C 0.48137 0.23795 0.53895 0.0
H1601 H 0.52849 0.24544 0.54116 0.0
C1602 C 0.47797 0.23593 0.51962 0.0
C1603 C 0.49982 0.24105 0.54684 0.0
C1604 C 0.50435 0.24255 0.56752 0.0
C1605 C 0.49249 0.23769 0.50792 0.0
C1606 C 0.5109 0.24123 0.51583 0.0
C1607 C 0.51434 0.24278 0.53516 0.0
C1608 C 0.52672 0.24424 0.5043 0.0
C1609 C 0.48794 0.23651 0.48725 0.0
C1610 C 0.53145 0.23018 0.49158 0.0
C1611 C 0.54632 0.23332 0.48067 0.0
C1612 C 0.55664 0.2505 0.48242 0.0
C1613 C 0.55206 0.26446 0.49525 0.0
C1614 C 0.53723 0.26135 0.50616 0.0
H1615 H 0.47298 0.2379 0.48364 0.0
H1616 H 0.49617 0.24745 0.48079 0.0
H1617 H 0.49142 0.22287 0.48115 0.0
H1618 H 0.52375 0.21676 0.49022 0.0
H1619 H 0.54997 0.22233 0.47105 0.0
H1620 H 0.16137 0.79328 0.02072 0.0
H1621 H 0.12943 0.78538 0.00798 0.0
H1622 H 0.13803 0.82108 0.96395 0.0
H1623 H 0.17003 0.8291 0.97652 0.0
H1624 H 0.10174 0.8222 0.98254 0.0
H1625 H 0.12024 0.7522 0.9571 0.0
H1626 H 0.1269 0.75968 0.98095 0.0
H1627 H 0.13749 0.77129 0.96295 0.0
C1628 C 0.15643 0.79967 0.00847 0.0
C1629 C 0.16833 0.8117 -0.00046 0.0
C1630 C 0.13819 0.7951 0.00121 0.0
C1631 C 0.13151 0.80253 0.98496 0.0
C1632 C 0.143 0.81521 0.9765 0.0
H1633 H 0.03382 0.78949 0.90889 0.0
H1634 H 0.06176 0.80115 0.92847 0.0
C1635 C 0.16128 0.81973 0.98369 0.0
C1636 C 0.113 0.79611 0.97604 0.0
H1637 H 0.08933 0.75907 0.95129 0.0
C1638 C 0.09894 0.80839 0.97576 0.0
C1639 C 0.10947 0.77806 0.9673 0.0
C1640 C 0.12429 0.76451 0.96691 0.0
C1641 C 0.08131 0.80304 0.96693 0.0
C1642 C 0.0779 0.78512 0.95778 0.0
C1643 C 0.09194 0.77278 0.95834 0.0
C1644 C 0.06018 0.77899 0.94688 0.0
C1645 C 0.06647 0.81655 0.96769 0.0
C1646 C 0.0502 0.76251 0.95049 0.0
C1647 C 0.03451 0.75571 0.9391 0.0
C1648 C 0.02854 0.76529 0.92394 0.0
C1649 C 0.03826 0.78194 0.92054 0.0
C1650 C 0.05404 0.78868 0.93183 0.0
H1651 H 0.06924 0.82686 0.97981 0.0
H1652 H 0.06625 0.82422 0.95501 0.0
H1653 H 0.05256 0.80931 0.96842 0.0
H1654 H 0.05478 0.75472 0.96192 0.0
H1655 H 0.02733 0.74271 0.94177 0.0
H1656 H 0.8579 0.27283 0.43973 0.0
H1657 H 0.8819 0.28341 0.46428 0.0
H1658 H 0.86187 0.33794 0.46646 0.0
H1659 H 0.83764 0.32747 0.44207 0.0
H1660 H 0.91032 0.31244 0.46701 0.0
H1661 H 0.85931 0.32272 0.51978 0.0
H1662 H 0.8532 0.31008 0.49763 0.0
H1663 H 0.85565 0.33495 0.49935 0.0
C1664 C 0.85864 0.28711 0.44533 0.0
C1665 C 0.84571 0.29925 0.43905 0.0
C1666 C 0.8724 0.29314 0.45934 0.0
C1667 C 0.87347 0.31137 0.46737 0.0
C1668 C 0.86106 0.32372 0.46066 0.0
H1669 H 0.96526 0.35695 0.54715 0.0
H1670 H 0.94208 0.35326 0.52041 0.0
C1671 C 0.84727 0.31771 0.44667 0.0
C1672 C 0.88715 0.31716 0.48321 0.0
H1673 H 0.89078 0.3305 0.52946 0.0
C1674 C 0.9061 0.31652 0.48065 0.0
C1675 C 0.88152 0.32227 0.50101 0.0
C1676 C 0.86132 0.32243 0.50474 0.0
C1677 C 0.9196 0.32071 0.49548 0.0
C1678 C 0.91395 0.32589 0.51324 0.0
C1679 C 0.89503 0.32671 0.51576 0.0
C1680 C 0.92736 0.32907 0.5297 0.0
C1681 C 0.93973 0.31892 0.49219 0.0
C1682 C 0.92637 0.31705 0.54395 0.0
C1683 C 0.93948 0.3192 0.55911 0.0
C1684 C 0.9537 0.33346 0.56032 0.0
C1685 C 0.95438 0.34585 0.54637 0.0
C1686 C 0.94127 0.34368 0.53114 0.0
H1687 H 0.94142 0.31133 0.47865 0.0
H1688 H 0.94693 0.33293 0.49227 0.0
H1689 H 0.94667 0.31161 0.50335 0.0
H1690 H 0.91575 0.30569 0.54308 0.0
H1691 H 0.93893 0.30934 0.56959 0.0
H1692 H 0.55952 0.65457 0.9441 0.0
H1693 H 0.52778 0.64723 0.95224 0.0
H1694 H 0.54789 0.64409 0.00919 0.0
H1695 H 0.5796 0.65062 0.00106 0.0
H1696 H 0.52142 0.61738 -0.00089 0.0
H1697 H 0.49791 0.68431 0.97762 0.0
H1698 H 0.50649 0.67017 0.95935 0.0
H1699 H 0.52195 0.67942 0.97881 0.0
C1700 C 0.55716 0.65219 0.95833 0.0
C1701 C 0.57206 0.65334 0.97197 0.0
C1702 C 0.53901 0.64811 0.96298 0.0
C1703 C 0.53539 0.64553 0.98141 0.0
C1704 C 0.55031 0.64608 0.99489 0.0
H1705 H 0.44089 0.66577 0.04017 0.0
H1706 H 0.46966 0.66569 0.0246 0.0
C1707 C 0.56846 0.64986 0.99022 0.0
C1708 C 0.51613 0.64286 0.98697 0.0
H1709 H 0.47562 0.66387 0.98902 0.0
C1710 C 0.51134 0.62748 0.99682 0.0
C1711 C 0.50306 0.65615 0.98409 0.0
C1712 C 0.50761 0.67353 0.97455 0.0
C1713 C 0.4941 0.62532 0.00439 0.0
C1714 C 0.48106 0.63862 0.00152 0.0
C1715 C 0.4856 0.65364 0.99111 0.0
C1716 C 0.4634 0.63833 0.01069 0.0
C1717 C 0.49044 0.60934 0.01616 0.0
C1718 C 0.45018 0.62307 0.00794 0.0
C1719 C 0.43393 0.62296 0.01726 0.0
C1720 C 0.43059 0.6382 0.02924 0.0
C1721 C 0.44348 0.65367 0.03143 0.0
C1722 C 0.45978 0.65369 0.02237 0.0
H1723 H 0.5034 0.60305 0.02056 0.0
H1724 H 0.48359 0.61386 0.02873 0.0
H1725 H 0.48112 0.59845 0.00805 0.0
H1726 H 0.45242 0.61127 -0.0014 0.0
H1727 H 0.42398 0.61102 0.01521 0.0
H1728 H 0.55048 0.40537 0.21799 0.0
H1729 H 0.53417 0.43329 0.22408 0.0
H1730 H 0.57733 0.45392 0.26588 0.0
H1731 H 0.5938 0.42625 0.25981 0.0
H1732 H 0.52106 0.44372 0.25791 0.0
H1733 H 0.56966 0.49921 0.2366 0.0
H1734 H 0.57108 0.47504 0.22944 0.0
H1735 H 0.58049 0.48429 0.25207 0.0
C1736 C 0.55667 0.41599 0.22826 0.0
C1737 C 0.57343 0.41354 0.23844 0.0
C1738 C 0.54732 0.43192 0.23172 0.0
C1739 C 0.55464 0.44576 0.24528 0.0
C1740 C 0.57161 0.44359 0.25509 0.0
H1741 H 0.49991 0.52325 0.31312 0.0
H1742 H 0.51675 0.49796 0.29981 0.0
C1743 C 0.58094 0.42768 0.25168 0.0
C1744 C 0.54381 0.46164 0.2504 0.0
H1745 H 0.54613 0.50887 0.25597 0.0
C1746 C 0.52645 0.45797 0.25729 0.0
C1747 C 0.5508 0.48021 0.24943 0.0
C1748 C 0.56895 0.48497 0.24132 0.0
C1749 C 0.51617 0.47236 0.26387 0.0
C1750 C 0.52359 0.49088 0.26377 0.0
C1751 C 0.54061 0.49462 0.25623 0.0
C1752 C 0.51399 0.5065 0.27185 0.0
C1753 C 0.49749 0.46762 0.27095 0.0
C1754 C 0.50732 0.51988 0.26062 0.0
C1755 C 0.49768 0.53422 0.26821 0.0
C1756 C 0.49474 0.53545 0.28714 0.0
C1757 C 0.50183 0.52234 0.29844 0.0
C1758 C 0.5114 0.50797 0.29086 0.0
H1759 H 0.49177 0.45345 0.26577 0.0
H1760 H 0.49895 0.46823 0.28631 0.0
H1761 H 0.48742 0.47766 0.26679 0.0
H1762 H 0.50926 0.519 0.24593 0.0
H1763 H 0.49221 0.54418 0.25928 0.0
H1764 H 0.01413 0.16484 0.79569 0.0
H1765 H 0.00273 0.13222 0.78978 0.0
H1766 H 0.94777 0.14617 0.80145 0.0
H1767 H 0.95894 0.17874 0.80743 0.0
H1768 H 0.98103 0.10741 0.81389 0.0
H1769 H 0.94446 0.12058 0.74671 0.0
H1770 H 0.96299 0.13621 0.75805 0.0
H1771 H 0.94023 0.13589 0.76629 0.0
C1772 C -0.00035 0.16096 0.79718 0.0
C1773 C 0.98742 0.17444 0.8019 0.0
C1774 C 0.99319 0.14232 0.79383 0.0
C1775 C 0.9744 0.1369 0.79502 0.0
C1776 C 0.9623 0.15017 0.80033 0.0
H1777 H 0.90968 0.03268 0.79266 0.0
H1778 H 0.92749 0.06243 0.80168 0.0
C1779 C 0.96873 0.16877 0.80376 0.0
C1780 C 0.96717 0.11754 0.78987 0.0
H1781 H 0.93867 0.09089 0.75751 0.0
C1782 C 0.97185 0.10372 0.80153 0.0
C1783 C 0.95542 0.11282 0.77361 0.0
C1784 C 0.95054 0.12708 0.76032 0.0
C1785 C 0.96456 0.08529 0.79758 0.0
C1786 C 0.95225 0.08072 0.78166 0.0
C1787 C 0.94805 0.09447 0.76975 0.0
C1788 C 0.94305 0.06192 0.7773 0.0
C1789 C 0.97006 0.07084 0.8104 0.0
C1790 C 0.94588 0.05186 0.76064 0.0
C1791 C 0.93569 0.035 0.75552 0.0
C1792 C 0.92244 0.02805 0.76692 0.0
C1793 C 0.91989 0.03788 0.78376 0.0
C1794 C 0.93012 0.05472 0.78893 0.0
H1795 H 0.98289 0.07552 0.81926 0.0
H1796 H 0.95876 0.06805 0.81959 0.0
H1797 H 0.97227 0.05766 0.80244 0.0
H1798 H 0.95568 0.05728 0.75141 0.0
H1799 H 0.93766 0.02767 0.74237 0.0
H1800 H 0.42991 0.8467 0.26352 0.0
H1801 H 0.45175 0.87323 0.27398 0.0
H1802 H 0.46069 0.85102 0.3271 0.0
H1803 H 0.43904 0.82433 0.31675 0.0
H1804 H 0.45178 0.89974 0.30495 0.0
H1805 H 0.51316 0.85806 0.30906 0.0
H1806 H 0.49132 0.84929 0.29704 0.0
H1807 H 0.4942 0.85022 0.32187 0.0
C1808 C 0.43645 0.84746 0.27745 0.0
C1809 C 0.43284 0.83329 0.28923 0.0
C1810 C 0.44891 0.86265 0.28341 0.0
C1811 C 0.45803 0.86392 0.3012 0.0
C1812 C 0.45404 0.85012 0.3132 0.0
H1813 H 0.54656 0.94347 0.35259 0.0
H1814 H 0.52227 0.91774 0.3471 0.0
C1815 C 0.4416 0.83492 0.30727 0.0
C1816 C 0.47198 0.87951 0.30701 0.0
H1817 H 0.51817 0.88983 0.31869 0.0
C1818 C 0.46629 0.8976 0.308 0.0
C1819 C 0.49088 0.87663 0.31104 0.0
C1820 C 0.49786 0.85754 0.30958 0.0
C1821 C 0.47903 0.91293 0.31291 0.0
C1822 C 0.498 0.91007 0.31657 0.0
C1823 C 0.50362 0.89196 0.31592 0.0
C1824 C 0.51238 0.92569 0.32018 0.0
C1825 C 0.47205 0.93204 0.31424 0.0
C1826 C 0.51502 0.93841 0.30676 0.0
C1827 C 0.52883 0.95288 0.30988 0.0
C1828 C 0.54031 0.95479 0.32636 0.0
C1829 C 0.53787 0.94203 0.33974 0.0
C1830 C 0.52401 0.92749 0.33664 0.0
H1831 H 0.45709 0.9315 0.31674 0.0
H1832 H 0.47993 0.94112 0.3255 0.0
H1833 H 0.47376 0.93843 0.30097 0.0
H1834 H 0.50652 0.93703 0.29379 0.0
H1835 H 0.53066 0.96262 0.29942 0.0
H1836 H 0.99722 0.57337 0.65434 0.0
H1837 H 0.00107 0.54028 0.65335 0.0
H1838 H 0.94232 0.52911 0.65713 0.0
H1839 H 0.93838 0.56236 0.65863 0.0
H1840 H 0.96153 0.51169 0.68196 0.0
H1841 H 0.99024 0.49818 0.61439 0.0
H1842 H 0.00339 0.51707 0.62762 0.0
H1843 H 0.9794 0.51919 0.62035 0.0
C1844 C 0.98504 0.5639 0.65464 0.0
C1845 C 0.96749 0.57054 0.65662 0.0
C1846 C 0.98725 0.54492 0.65391 0.0
C1847 C 0.97194 0.53216 0.65485 0.0
C1848 C 0.95431 0.5387 0.65626 0.0
H1849 H 0.99555 0.41442 0.65096 0.0
H1850 H 0.98057 0.44267 0.6435 0.0
C1851 C 0.95209 0.55771 0.65711 0.0
C1852 C 0.97477 0.51226 0.65633 0.0
H1853 H 0.99735 0.47664 0.63752 0.0
C1854 C 0.96904 0.50392 0.67204 0.0
C1855 C 0.98426 0.50193 0.64324 0.0
C1856 C 0.98948 0.50951 0.62536 0.0
C1857 C 0.97361 0.48601 0.67563 0.0
C1858 C 0.98456 0.47637 0.6634 0.0
C1859 C 0.98921 0.48418 0.64706 0.0
C1860 C 0.99263 0.45897 0.66811 0.0
C1861 C 0.96694 0.47773 0.69267 0.0
C1862 C 0.00439 0.45884 0.6843 0.0
C1863 C 0.01278 0.44282 0.68852 0.0
C1864 C 0.0098 0.42674 0.6765 0.0
C1865 C 0.99797 0.42675 0.66035 0.0
C1866 C 0.9895 0.44281 0.65612 0.0
H1867 H 0.95399 0.48363 0.69676 0.0
H1868 H 0.96438 0.46245 0.69043 0.0
H1869 H 0.97765 0.48098 0.70436 0.0
H1870 H 0.00732 0.47123 0.69356 0.0
H1871 H 0.02171 0.44296 0.70114 0.0
H1872 H 0.75762 0.45982 0.60445 0.0
H1873 H 0.752 0.47458 0.57564 0.0
H1874 H 0.76785 0.42616 0.54458 0.0
H1875 H 0.77346 0.41114 0.57342 0.0
H1876 H 0.77568 0.4819 0.54608 0.0
H1877 H 0.71388 0.43339 0.52388 0.0
H1878 H 0.72414 0.43578 0.54739 0.0
H1879 H 0.73516 0.42312 0.52968 0.0
C1880 C 0.7601 0.45233 0.59154 0.0
C1881 C 0.76583 0.43421 0.59124 0.0
C1882 C 0.75691 0.46083 0.57508 0.0
C1883 C 0.75928 0.45136 0.55801 0.0
C1884 C 0.76572 0.43358 0.55764 0.0
H1885 H 0.74686 0.50102 0.45141 0.0
H1886 H 0.75914 0.48449 0.47749 0.0
C1887 C 0.769 0.42507 0.57413 0.0
C1888 C 0.75407 0.45989 0.54066 0.0
H1889 H 0.72127 0.45677 0.50421 0.0
C1890 C 0.76391 0.47634 0.5368 0.0
C1891 C 0.73857 0.45266 0.52875 0.0
C1892 C 0.72718 0.43534 0.5326 0.0
C1893 C 0.7585 0.48588 0.5214 0.0
C1894 C 0.74292 0.47872 0.5096 0.0
C1895 C 0.73325 0.46215 0.5133 0.0
C1896 C 0.73581 0.48874 0.49388 0.0
C1897 C 0.76907 0.50387 0.51817 0.0
C1898 C 0.71859 0.49634 0.49443 0.0
C1899 C 0.71163 0.50569 0.47962 0.0
C1900 C 0.72175 0.50749 0.46402 0.0
C1901 C 0.73895 0.49982 0.46342 0.0
C1902 C 0.74594 0.49049 0.47826 0.0
H1903 H 0.77892 0.50898 0.53016 0.0
H1904 H 0.77706 0.5018 0.50581 0.0
H1905 H 0.75935 0.51467 0.51542 0.0
H1906 H 0.71053 0.49501 0.50634 0.0
H1907 H 0.6982 0.51124 0.48014 0.0
H1908 H 0.70627 0.59792 0.18848 0.0
H1909 H 0.71725 0.57124 0.17123 0.0
H1910 H 0.70936 0.59811 0.12049 0.0
H1911 H 0.69849 0.62496 0.13776 0.0
H1912 H 0.6936 0.5625 0.11798 0.0
H1913 H 0.76632 0.56474 0.14813 0.0
H1914 H 0.74936 0.56531 0.16496 0.0
H1915 H 0.75231 0.58422 0.15049 0.0
C1916 C 0.70746 0.59841 0.17376 0.0
C1917 C 0.70204 0.61374 0.16453 0.0
C1918 C 0.71363 0.5831 0.16389 0.0
C1919 C 0.7145 0.58285 0.14463 0.0
C1920 C 0.70898 0.59811 0.13538 0.0
H1921 H 0.75812 0.50508 0.06611 0.0
H1922 H 0.75287 0.53223 0.08675 0.0
C1923 C 0.70276 0.6134 0.14523 0.0
C1924 C 0.71994 0.5662 0.13396 0.0
H1925 H 0.75506 0.53767 0.1291 0.0
C1926 C 0.70705 0.55711 0.12039 0.0
C1927 C 0.73757 0.55927 0.13704 0.0
C1928 C 0.75227 0.56896 0.15082 0.0
C1929 C 0.71121 0.54114 0.10997 0.0
C1930 C 0.7286 0.53395 0.11341 0.0
C1931 C 0.74164 0.54313 0.12676 0.0
C1932 C 0.73358 0.51722 0.10269 0.0
C1933 C 0.69711 0.53216 0.09514 0.0
C1934 C 0.72486 0.4998 0.10524 0.0
C1935 C 0.72792 0.48437 0.09354 0.0
C1936 C 0.73968 0.48622 0.07917 0.0
C1937 C 0.74905 0.50346 0.0772 0.0
C1938 C 0.74606 0.51887 0.08892 0.0
H1939 H 0.68557 0.54107 0.09222 0.0
H1940 H 0.70378 0.52902 0.0821 0.0
H1941 H 0.69117 0.51888 0.0997 0.0
H1942 H 0.71519 0.49832 0.11584 0.0
H1943 H 0.72039 0.47122 0.09506 0.0
H1944 H 0.31377 0.03906 0.41071 0.0
H1945 H 0.31384 0.03562 0.44394 0.0
H1946 H 0.34072 0.98473 0.43677 0.0
H1947 H 0.33989 0.98768 0.40343 0.0
H1948 H 0.31265 0.97967 0.45623 0.0
H1949 H 0.35263 0.04395 0.48584 0.0
H1950 H 0.33319 0.04878 0.47079 0.0
H1951 H 0.35165 0.03656 0.46152 0.0
C1952 C 0.31996 0.0273 0.41628 0.0
C1953 C 0.32679 0.01362 0.40448 0.0
C1954 C 0.32011 0.02541 0.43531 0.0
C1955 C 0.32754 0.01006 0.44296 0.0
C1956 C 0.33493 0.99671 0.43123 0.0
H1957 H 0.34408 0.99445 0.56081 0.0
H1958 H 0.34796 0.00231 0.52884 0.0
C1959 C 0.33446 -0.00159 0.41217 0.0
C1960 C 0.32614 0.00698 0.46284 0.0
H1961 H 0.33493 0.02726 0.50681 0.0
C1962 C 0.31769 0.99004 0.46728 0.0
C1963 C 0.33288 0.0204 0.47731 0.0
C1964 C 0.34327 0.03835 0.47364 0.0
C1965 C 0.31557 0.98621 0.48568 0.0
C1966 C 0.3214 -1e-05 0.50009 0.0
C1967 C 0.33016 0.01683 0.49573 0.0
C1968 C 0.31885 0.99695 0.51976 0.0
C1969 C 0.30747 0.96723 0.48945 0.0
C1970 C 0.30117 0.99197 0.52541 0.0
C1971 C 0.29907 0.98725 0.54348 0.0
C1972 C 0.31453 0.98789 0.55627 0.0
C1973 C 0.33204 0.99391 0.55102 0.0
C1974 C 0.33422 -0.00163 0.53284 0.0
H1975 H 0.30911 0.95681 0.47783 0.0
H1976 H 0.31411 0.96247 0.50233 0.0
H1977 H 0.29241 0.96775 0.49104 0.0
H1978 H 0.28904 0.99133 0.51572 0.0
H1979 H 0.28545 0.98281 0.54747 0.0
H1980 H 0.18261 0.94517 0.8242 0.0
H1981 H 0.20342 0.96189 0.84885 0.0
H1982 H 0.21447 0.00567 0.81305 0.0
H1983 H 0.19394 0.98882 0.78831 0.0
H1984 H 0.24576 0.99696 0.83095 0.0
H1985 H 0.1925 0.00636 0.88116 0.0
H1986 H 0.19445 0.9825 0.8739 0.0
H1987 H 0.18664 -0.00192 0.85731 0.0
C1988 C 0.1895 0.95837 0.82164 0.0
C1989 C 0.1869 0.9656 0.8043 0.0
C1990 C 0.20129 0.96796 0.83574 0.0
C1991 C 0.2103 0.98518 0.8329 0.0
C1992 C 0.20771 0.99239 0.81555 0.0
H1993 H 0.26047 0.06502 0.91981 0.0
H1994 H 0.24083 0.04798 0.89442 0.0
C1995 C 0.19609 0.9827 0.80138 0.0
C1996 C 0.22258 0.99562 0.8479 0.0
H1997 H 0.22382 0.01422 0.89254 0.0
C1998 C 0.24095 0.0008 0.8444 0.0
C1999 C 0.21621 0.00086 0.86536 0.0
C2000 C 0.19633 0.99684 0.86962 0.0
C2001 C 0.25318 0.01093 0.85792 0.0
C2002 C 0.24701 0.01556 0.8756 0.0
C2003 C 0.2286 0.01051 0.87904 0.0
C2004 C 0.25924 0.02604 0.89061 0.0
C2005 C 0.27241 0.01695 0.85292 0.0
C2006 C 0.27602 0.01932 0.89701 0.0
C2007 C 0.28739 0.02928 0.91121 0.0
C2008 C 0.28204 0.04595 0.91942 0.0
C2009 C 0.26508 0.05245 0.91331 0.0
C2010 C 0.25381 0.04263 0.89898 0.0
H2011 H 0.27309 0.01711 0.83769 0.0
H2012 H 0.27707 0.03097 0.85942 0.0
H2013 H 0.28225 0.00706 0.85793 0.0
H2014 H 0.28026 0.0063 0.89114 0.0
H2015 H 0.30036 0.02398 0.91585 0.0
H2016 H 0.57949 0.73648 0.38234 0.0
H2017 H 0.56044 0.72264 0.40498 0.0
H2018 H 0.54361 0.77651 0.42231 0.0
H2019 H 0.56323 0.79059 0.40017 0.0
H2020 H 0.56153 0.73401 0.44659 0.0
H2021 H 0.49473 0.74128 0.406 0.0
H2022 H 0.51657 0.7412 0.39548 0.0
H2023 H 0.51106 0.76131 0.4092 0.0
C2024 C 0.57228 0.74548 0.39138 0.0
C2025 C 0.57332 0.76471 0.38984 0.0
C2026 C 0.56117 0.73751 0.40412 0.0
C2027 C 0.55067 0.74858 0.41527 0.0
C2028 C 0.5516 0.76775 0.41375 0.0
H2029 H 0.46593 0.72438 0.49039 0.0
H2030 H 0.48813 0.73936 0.47103 0.0
C2031 C 0.56279 0.77575 0.40111 0.0
C2032 C 0.53847 0.74005 0.4283 0.0
H2033 H 0.49303 0.7298 0.43541 0.0
C2034 C 0.54655 0.73303 0.44419 0.0
C2035 C 0.51898 0.73892 0.42508 0.0
C2036 C 0.50971 0.74595 0.40797 0.0
C2037 C 0.53557 0.72513 0.45719 0.0
C2038 C 0.51602 0.72382 0.4539 0.0
C2039 C 0.508 0.73084 0.43794 0.0
C2040 C 0.50356 0.71515 0.46672 0.0
C2041 C 0.545 0.71869 0.47451 0.0
C2042 C 0.50487 0.69662 0.47075 0.0
C2043 C 0.49233 0.68822 0.48194 0.0
C2044 C 0.47823 0.69816 0.48906 0.0
C2045 C 0.47692 0.71666 0.48514 0.0
C2046 C 0.48951 0.72511 0.47407 0.0
H2047 H 0.55918 0.72556 0.47753 0.0
H2048 H 0.53689 0.72146 0.48668 0.0
H2049 H 0.54626 0.70355 0.47258 0.0
H2050 H 0.51523 0.6885 0.46482 0.0
H2051 H 0.4932 0.67381 0.48454 0.0
H2052 H 0.8166 0.16917 0.99047 0.0
H2053 H 0.84459 0.18918 0.00109 0.0
H2054 H 0.81766 0.2368 0.98387 0.0
H2055 H 0.78976 0.21686 0.97289 0.0
H2056 H 0.86069 0.22759 0.9744 0.0
H2057 H 0.84083 0.23371 0.04726 0.0
H2058 H 0.83676 0.21172 0.03385 0.0
H2059 H 0.82361 0.23066 0.02784 0.0
C2060 C 0.81672 0.18389 0.98883 0.0
C2061 C 0.80087 0.19157 0.98134 0.0
C2062 C 0.83266 0.19526 0.9949 0.0
C2063 C 0.83303 0.2144 0.99335 0.0
C2064 C 0.81751 0.22204 0.98526 0.0
H2065 H 0.90972 0.30199 0.04784 0.0
H2066 H 0.8823 0.28335 0.03308 0.0
C2067 C 0.80153 0.21069 0.97926 0.0
C2068 C 0.84938 0.22653 0.00093 0.0
H2069 H 0.8696 0.24822 0.04129 0.0
C2070 C 0.8627 0.23216 0.989 0.0
C2071 C 0.85174 0.23251 0.01992 0.0
C2072 C 0.83751 0.22696 0.03308 0.0
C2073 C 0.87856 0.24358 0.9957 0.0
C2074 C 0.88113 0.24925 0.01482 0.0
C2075 C 0.86761 0.24379 0.02666 0.0
C2076 C 0.89777 0.26081 0.02294 0.0
C2077 C 0.89226 0.24968 0.98224 0.0
C2078 C 0.91546 0.25424 0.02222 0.0
C2079 C 0.93101 0.26484 0.03067 0.0
C2080 C 0.92906 0.28208 0.04002 0.0
C2081 C 0.9114 0.28866 0.04073 0.0
C2082 C 0.89585 0.27808 0.03229 0.0
H2083 H 0.88597 0.24831 0.96776 0.0
H2084 H 0.89771 0.26429 0.98574 0.0
H2085 H 0.90414 0.24087 0.98294 0.0
H2086 H 0.9172 0.24077 0.01544 0.0
H2087 H 0.94454 0.25949 0.0302 0.0
H2088 H 0.20823 0.73048 0.54386 0.0
H2089 H 0.1805 0.7284 0.52243 0.0
H2090 H 0.14836 0.70431 0.56359 0.0
H2091 H 0.17602 0.70641 0.58524 0.0
H2092 H 0.15597 0.6968 0.50893 0.0
H2093 H 0.121 0.75025 0.54937 0.0
H2094 H 0.14545 0.7473 0.55318 0.0
H2095 H 0.12872 0.73143 0.56196 0.0
C2096 C 0.1953 0.72466 0.54837 0.0
C2097 C 0.19433 0.71873 0.56633 0.0
C2098 C 0.17948 0.72346 0.53608 0.0
C2099 C 0.16238 0.71643 0.54153 0.0
C2100 C 0.1614 0.71004 0.55924 0.0
H2101 H 0.06124 0.69002 0.46876 0.0
H2102 H 0.08823 0.68831 0.4909 0.0
C2103 C 0.17724 0.71118 0.57155 0.0
C2104 C 0.14554 0.71617 0.52872 0.0
H2105 H 0.10424 0.73555 0.52262 0.0
C2106 C 0.14461 0.7052 0.51193 0.0
C2107 C 0.13088 0.72732 0.53264 0.0
C2108 C 0.13152 0.73988 0.55018 0.0
C2109 C 0.12934 0.70507 0.4989 0.0
C2110 C 0.11461 0.71609 0.50289 0.0
C2111 C 0.11554 0.72705 0.51969 0.0
C2112 C 0.09835 0.71692 0.48955 0.0
C2113 C 0.12927 0.69352 0.48077 0.0
C2114 C 0.09498 0.73362 0.48178 0.0
C2115 C 0.0796 0.73458 0.46928 0.0
C2116 C 0.06734 0.7189 0.46447 0.0
C2117 C 0.07062 0.70223 0.47232 0.0
C2118 C 0.08602 0.70124 0.48482 0.0
H2119 H 0.14322 0.68892 0.47826 0.0
H2120 H 0.11958 0.68102 0.481 0.0
H2121 H 0.12443 0.7014 0.46903 0.0
H2122 H 0.10429 0.74589 0.48536 0.0
H2123 H 0.07709 0.74761 0.46354 0.0
H2124 H 0.40526 0.36572 0.02589 0.0
H2125 H 0.43445 0.35666 0.01435 0.0
H2126 H 0.42648 0.30376 0.03724 0.0
H2127 H 0.39741 0.3129 0.04919 0.0
H2128 H 0.46311 0.32313 0.04508 0.0
H2129 H 0.43919 0.31742 0.97035 0.0
H2130 H 0.43455 0.33861 0.98293 0.0
H2131 H 0.42335 0.31705 0.98845 0.0
C2132 C 0.40969 0.35212 0.02839 0.0
C2133 C 0.39884 0.33982 0.03802 0.0
C2134 C 0.4263 0.34695 0.02173 0.0
C2135 C 0.43242 0.32944 0.02469 0.0
C2136 C 0.42183 0.31725 0.03463 0.0
H2137 H 0.52256 0.28134 0.96975 0.0
H2138 H 0.49289 0.2865 0.98291 0.0
C2139 C 0.40513 0.32238 0.04122 0.0
C2140 C 0.45005 0.32408 0.01763 0.0
H2141 H 0.47153 0.31666 0.97776 0.0
C2142 C 0.46496 0.32159 0.03037 0.0
C2143 C 0.45229 0.32191 -0.00156 0.0
C2144 C 0.43647 0.32372 0.9842 0.0
C2145 C 0.4823 0.31746 0.02438 0.0
C2146 C 0.48472 0.31598 0.00519 0.0
C2147 C 0.46965 0.31796 0.99247 0.0
C2148 C 0.50282 0.31253 0.99795 0.0
C2149 C 0.49784 0.31465 0.0386 0.0
C2150 C 0.51812 0.32551 0.00197 0.0
C2151 C 0.53493 0.32262 0.99437 0.0
C2152 C 0.53665 0.30673 0.98264 0.0
C2153 C 0.52139 0.29373 0.97868 0.0
C2154 C 0.50456 0.29663 0.98623 0.0
H2155 H 0.49256 0.31156 0.05213 0.0
H2156 H 0.5061 0.30318 0.03379 0.0
H2157 H 0.50723 0.32748 0.04084 0.0
H2158 H 0.51694 0.33805 0.01069 0.0
H2159 H 0.54653 0.33287 0.99738 0.0
H2160 H 0.41983 0.59284 0.75287 0.0
H2161 H 0.44168 0.57105 0.74209 0.0
H2162 H 0.40485 0.52538 0.75529 0.0
H2163 H 0.38306 0.54715 0.76626 0.0
H2164 H 0.43946 0.52226 0.76891 0.0
H2165 H 0.44041 0.53739 0.69522 0.0
H2166 H 0.44574 0.55756 0.71097 0.0
H2167 H 0.4231 0.54549 0.70986 0.0
C2168 C 0.41616 0.57814 0.75297 0.0
C2169 C 0.39957 0.57165 0.76002 0.0
C2170 C 0.42868 0.56569 0.74685 0.0
C2171 C 0.42474 0.54655 0.74753 0.0
C2172 C 0.40813 0.54008 0.75452 0.0
H2173 H 0.48259 0.45585 0.7005 0.0
H2174 H 0.46083 0.47958 0.70664 0.0
C2175 C 0.3957 0.55251 0.76078 0.0
C2176 C 0.43842 0.53329 0.74213 0.0
H2177 H 0.46374 0.51868 0.70669 0.0
C2178 C 0.44471 0.52145 0.75528 0.0
C2179 C 0.44511 0.53209 0.72427 0.0
C2180 C 0.43812 0.54367 0.7092 0.0
C2181 C 0.45763 0.50859 0.75116 0.0
C2182 C 0.46484 0.50788 0.73355 0.0
C2183 C 0.45839 0.51949 0.72028 0.0
C2184 C 0.47869 0.49471 0.7286 0.0
C2185 C 0.46316 0.49559 0.76556 0.0
C2186 C 0.49611 0.49572 0.73854 0.0
C2187 C 0.50841 0.48214 0.73511 0.0
C2188 C 0.50352 0.46749 0.72162 0.0
C2189 C 0.48652 0.46703 0.71103 0.0
C2190 C 0.47417 0.48055 0.7145 0.0
H2191 H 0.45309 0.4948 0.77636 0.0
H2192 H 0.46428 0.48142 0.7591 0.0
H2193 H 0.4769 0.50067 0.77247 0.0
H2194 H 0.49996 0.50671 0.74929 0.0
H2195 H 0.52142 0.48262 0.74349 0.0
H2196 H 0.98318 0.78572 0.19029 0.0
H2197 H -0.00097 0.81259 0.20842 0.0
H2198 H 0.95169 0.84398 0.19729 0.0
H2199 H 0.93595 0.81714 0.17874 0.0
H2200 H 0.98202 0.8632 0.19113 0.0
H2201 H 0.99356 0.83501 0.25937 0.0
H2202 H 0.00239 0.82068 0.24142 0.0
H2203 H 0.97788 0.82342 0.24109 0.0
C2204 C 0.97596 0.79819 0.19214 0.0
C2205 C 0.9582 0.79926 0.18345 0.0
C2206 C 0.98503 0.81356 0.20252 0.0
C2207 C 0.97639 0.83021 0.20462 0.0
C2208 C 0.95857 0.83124 0.19601 0.0
H2209 H 0.02846 0.92342 0.27828 0.0
H2210 H 0.00683 0.89783 0.2643 0.0
C2211 C 0.9496 0.81594 0.18542 0.0
C2212 C 0.98654 0.84693 0.21451 0.0
H2213 H 0.01255 0.86246 0.25436 0.0
C2214 C 0.98849 0.86308 0.20505 0.0
C2215 C 0.99471 0.84696 0.23281 0.0
C2216 C 0.99186 0.83065 0.24433 0.0
C2217 C -0.00105 0.87898 0.21309 0.0
C2218 C 0.00825 0.87853 0.23083 0.0
C2219 C 0.00569 0.86267 0.24062 0.0
C2220 C 0.02108 0.89418 0.23923 0.0
C2221 C -0.00017 0.89614 0.20251 0.0
C2222 C 0.03634 0.90048 0.22988 0.0
C2223 C 0.04843 0.91523 0.23772 0.0
C2224 C 0.04569 0.9237 0.25517 0.0
C2225 C 0.03067 0.91719 0.2647 0.0
C2226 C 0.01842 0.90255 0.25678 0.0
H2227 H 0.98752 0.89625 0.19251 0.0
H2228 H 0.00068 0.90891 0.21199 0.0
H2229 H 0.0123 0.89639 0.19451 0.0
H2230 H 0.03893 0.89395 0.21654 0.0
H2231 H 0.05987 0.92014 0.23011 0.0
H2232 H 0.5787 0.17804 0.70234 0.0
H2233 H 0.55803 0.14971 0.69933 0.0
H2234 H 0.51187 0.1816 0.71154 0.0
H2235 H 0.53243 0.20995 0.71488 0.0
H2236 H 0.51457 0.15209 0.7327 0.0
H2237 H 0.51865 0.12968 0.65854 0.0
H2238 H 0.54083 0.13393 0.67133 0.0
H2239 H 0.52639 0.15275 0.66823 0.0
C2240 C 0.56411 0.17907 0.70418 0.0
C2241 C 0.55723 0.19628 0.70889 0.0
C2242 C 0.5523 0.16286 0.70234 0.0
C2243 C 0.53338 0.16358 0.70499 0.0
C2244 C 0.52642 0.18076 0.70937 0.0
H2245 H 0.44651 0.07365 0.68498 0.0
H2246 H 0.46637 0.10241 0.68391 0.0
C2247 C 0.53821 0.19695 0.71126 0.0
C2248 C 0.52106 0.14635 0.70447 0.0
H2249 H 0.50435 0.10775 0.67706 0.0
C2250 C 0.51226 0.14244 0.7205 0.0
C2251 C 0.51793 0.13389 0.68849 0.0
C2252 C 0.5263 0.13781 0.67061 0.0
C2253 C 0.50067 0.12624 0.7211 0.0
C2254 C 0.49807 0.11346 0.70534 0.0
C2255 C 0.50655 0.11751 0.68918 0.0
C2256 C 0.4865 0.09584 0.70543 0.0
C2257 C 0.49113 0.12305 0.73853 0.0
C2258 C 0.49144 0.08258 0.71765 0.0
C2259 C 0.48008 0.06633 0.71833 0.0
C2260 C 0.46371 0.06306 0.70672 0.0
C2261 C 0.459 0.07609 0.69417 0.0
C2262 C 0.47035 0.09237 0.6935 0.0
H2263 H 0.49075 0.13611 0.74742 0.0
H2264 H 0.47671 0.11692 0.73521 0.0
H2265 H 0.4988 0.11326 0.74663 0.0
H2266 H 0.504 0.08487 0.72676 0.0
H2267 H 0.48387 0.05645 0.72814 0.0
H2268 H 0.05943 0.40393 0.34938 0.0
H2269 H 0.04051 0.42828 0.33909 0.0
H2270 H 0.01695 0.39182 0.29253 0.0
H2271 H 0.03453 0.36697 0.3037 0.0
H2272 H 0.03902 0.44641 0.30918 0.0
H2273 H 0.97092 0.40787 0.31334 0.0
H2274 H 0.99231 0.39949 0.32226 0.0
H2275 H 0.9852 0.39612 0.2979 0.0
C2276 C 0.05018 0.40107 0.33696 0.0
C2277 C 0.04889 0.38359 0.32709 0.0
C2278 C 0.03943 0.41504 0.33105 0.0
C2279 C 0.02714 0.41186 0.31513 0.0
C2280 C 0.02609 0.39455 0.30503 0.0
H2281 H 0.97773 0.5038 0.26319 0.0
H2282 H 0.99621 0.47761 0.26982 0.0
C2283 C 0.0366 0.38044 0.31114 0.0
C2284 C 0.01541 0.42668 0.30931 0.0
H2285 H 0.97059 0.43638 0.29928 0.0
C2286 C 0.02405 0.44422 0.30705 0.0
C2287 C 0.99583 0.42392 0.30683 0.0
C2288 C 0.9855 0.40589 0.3104 0.0
C2289 C 0.0137 0.45906 0.3024 0.0
C2290 C 0.9942 0.45609 0.29922 0.0
C2291 C 0.98555 0.43857 0.30148 0.0
C2292 C 0.98241 0.47117 0.29434 0.0
C2293 C 0.02376 0.47789 0.30159 0.0
C2294 C 0.96796 0.47567 0.30536 0.0
C2295 C 0.95719 0.49024 0.30126 0.0
C2296 C 0.96075 0.50054 0.28615 0.0
C2297 C 0.97487 0.49588 0.27488 0.0
C2298 C 0.98549 0.48113 0.27881 0.0
H2299 H 0.03748 0.479 0.30959 0.0
H2300 H 0.02618 0.48018 0.28698 0.0
H2301 H 0.01553 0.48908 0.30708 0.0
H2302 H 0.96529 0.46817 0.31739 0.0
H2303 H 0.94644 0.49389 0.31015 0.0
H2304 H 0.31348 0.60814 0.38314 0.0
H2305 H 0.34393 0.60699 0.37073 0.0
H2306 H 0.33969 0.54752 0.37123 0.0
H2307 H 0.3092 0.54846 0.38346 0.0
H2308 H 0.37719 0.59172 0.38402 0.0
H2309 H 0.34734 0.55707 0.31674 0.0
H2310 H 0.33334 0.56806 0.33326 0.0
H2311 H 0.34102 0.54548 0.33668 0.0
C2312 C 0.31908 0.59481 0.38075 0.0
C2313 C 0.30882 0.57837 0.3841 0.0
C2314 C 0.33648 0.5942 0.37369 0.0
C2315 C 0.34387 0.57715 0.36978 0.0
C2316 C 0.33404 0.56079 0.37384 0.0
H2317 H 0.45436 0.55312 0.34202 0.0
H2318 H 0.4258 0.55752 0.35753 0.0
C2319 C 0.31666 0.56137 0.3809 0.0
C2320 C 0.36156 0.5764 0.36086 0.0
H2321 H 0.3801 0.5598 0.32167 0.0
C2322 C 0.37786 0.5848 0.37037 0.0
C2323 C 0.36229 0.56761 0.34293 0.0
C2324 C 0.34506 0.55918 0.33169 0.0
C2325 C 0.39501 0.58425 0.36257 0.0
C2326 C 0.39582 0.57489 0.34491 0.0
C2327 C 0.37944 0.56685 0.33526 0.0
C2328 C 0.4135 0.57311 0.33615 0.0
C2329 C 0.41207 0.59387 0.37316 0.0
C2330 C 0.41591 0.58018 0.31891 0.0
C2331 C 0.43209 0.57752 0.31003 0.0
C2332 C 0.44603 0.56766 0.31822 0.0
C2333 C 0.4437 0.56073 0.33552 0.0
C2334 C 0.42753 0.56339 0.34441 0.0
H2335 H 0.40844 0.60434 0.38396 0.0
H2336 H 0.41996 0.58347 0.38014 0.0
H2337 H 0.42124 0.60081 0.36372 0.0
H2338 H 0.40517 0.58759 0.31224 0.0
H2339 H 0.43358 0.58277 0.2966 0.0
H2340 H 0.19947 0.38068 0.77847 0.0
H2341 H 0.16798 0.3733 0.76415 0.0
H2342 H 0.17776 0.4135 0.72433 0.0
H2343 H 0.20914 0.42109 0.73861 0.0
H2344 H 0.14607 0.41818 0.74336 0.0
H2345 H 0.14764 0.3454 0.71448 0.0
H2346 H 0.15617 0.34992 0.73835 0.0
H2347 H 0.16844 0.3604 0.72068 0.0
C2348 C 0.19503 0.38775 0.76648 0.0
C2349 C 0.20681 0.40155 0.75974 0.0
C2350 C 0.17705 0.38343 0.75825 0.0
C2351 C 0.17059 0.39275 0.74309 0.0
C2352 C 0.1825 0.40611 0.73599 0.0
H2353 H 0.06974 0.38322 0.67164 0.0
H2354 H 0.1014 0.3807 0.68532 0.0
C2355 C 0.20045 0.41042 0.74418 0.0
C2356 C 0.15095 0.38988 0.73563 0.0
H2357 H 0.11824 0.35794 0.71373 0.0
C2358 C 0.13999 0.405 0.7369 0.0
C2359 C 0.14309 0.37269 0.72714 0.0
C2360 C 0.15444 0.35618 0.7249 0.0
C2361 C 0.12138 0.40344 0.72993 0.0
C2362 C 0.11342 0.3862 0.72168 0.0
C2363 C 0.12436 0.37105 0.72029 0.0
C2364 C 0.09399 0.38416 0.71364 0.0
C2365 C 0.11046 0.42037 0.73107 0.0
C2366 C 0.0793 0.38617 0.72505 0.0
C2367 C 0.06133 0.38756 0.71723 0.0
C2368 C 0.05785 0.38689 0.69795 0.0
C2369 C 0.07226 0.38364 0.68654 0.0
C2370 C 0.09025 0.38222 0.69434 0.0
H2371 H 0.11955 0.43329 0.73455 0.0
H2372 H 0.10228 0.42163 0.71776 0.0
H2373 H 0.10061 0.41907 0.74201 0.0
H2374 H 0.08192 0.38759 0.73997 0.0
H2375 H 0.05034 0.39024 0.72617 0.0
H2376 H 0.71963 0.94082 0.67566 0.0
H2377 H 0.74724 0.94435 0.69752 0.0
H2378 H 0.76758 0.99216 0.67093 0.0
H2379 H 0.74007 0.98896 0.64933 0.0
H2380 H 0.78358 0.94295 0.68966 0.0
H2381 H 0.77344 0.01099 0.72513 0.0
H2382 H 0.75507 0.99746 0.71107 0.0
H2383 H 0.77198 0.01174 0.70044 0.0
C2384 C 0.72989 0.95221 0.67461 0.0
C2385 C 0.72762 0.96465 0.66078 0.0
C2386 C 0.74566 0.95418 0.6871 0.0
C2387 C 0.75931 0.9687 0.68605 0.0
C2388 C 0.75701 0.98113 0.6723 0.0
H2389 H 0.87557 0.98074 0.71432 0.0
H2390 H 0.84386 0.97258 0.70083 0.0
C2391 C 0.74131 0.97919 0.65986 0.0
C2392 C 0.77654 0.97034 0.69851 0.0
H2393 H 0.80457 0.00138 0.72725 0.0
C2394 C 0.78806 0.95561 0.69812 0.0
C2395 C 0.78223 0.98673 0.70979 0.0
C2396 C 0.76993 0.00255 0.71181 0.0
C2397 C 0.80557 0.95723 0.70791 0.0
C2398 C 0.81183 0.97415 0.71805 0.0
C2399 C 0.79988 0.98849 0.71927 0.0
C2400 C 0.83106 0.97771 0.72658 0.0
C2401 C 0.81724 0.94084 0.70715 0.0
C2402 C 0.8344 0.98361 0.74544 0.0
C2403 C 0.8525 0.98837 0.75308 0.0
C2404 C 0.86749 0.98734 0.74196 0.0
C2405 C 0.86419 0.98126 0.72317 0.0
C2406 C 0.84612 0.97656 0.71552 0.0
H2407 H 0.80847 0.92762 0.70434 0.0
H2408 H 0.82653 0.94202 0.69573 0.0
H2409 H 0.82591 0.94028 0.7203 0.0
H2410 H 0.82298 0.98474 0.75419 0.0
H2411 H 0.85485 0.99308 0.7676 0.0
H2412 H 0.74087 0.97349 0.27787 0.0
H2413 H 0.71148 0.97479 0.29215 0.0
H2414 H 0.71685 0.03441 0.29391 0.0
H2415 H 0.74623 0.03326 0.27933 0.0
H2416 H 0.70034 0.99238 0.3252 0.0
H2417 H 0.6681 0.01984 0.26196 0.0
H2418 H 0.69041 0.01032 0.26245 0.0
H2419 H 0.68826 0.03316 0.2729 0.0
C2420 C 0.73596 0.98691 0.28149 0.0
C2421 C 0.74578 0.00326 0.2772 0.0
C2422 C 0.71917 0.98762 0.2897 0.0
C2423 C 0.71185 0.00467 0.29378 0.0
C2424 C 0.72212 0.02109 0.29056 0.0
H2425 H 0.60675 0.00955 0.34752 0.0
H2426 H 0.63918 0.01605 0.34053 0.0
C2427 C 0.73894 0.0204 0.2823 0.0
C2428 C 0.69287 0.005 0.30008 0.0
H2429 H 0.6488 0.01419 0.28588 0.0
C2430 C 0.68908 0.99733 0.31674 0.0
C2431 C 0.6782 0.01129 0.28886 0.0
C2432 C 0.68131 0.01899 0.27047 0.0
C2433 C 0.67092 0.99542 0.3223 0.0
C2434 C 0.65626 0.00155 0.31098 0.0
C2435 C 0.66012 0.00961 0.29456 0.0
C2436 C 0.63664 -0.00163 0.3151 0.0
C2437 C 0.66745 0.98616 0.33981 0.0
C2438 C 0.6244 0.98672 0.30284 0.0
C2439 C 0.60599 0.98316 0.30674 0.0
C2440 C 0.59949 0.99122 0.32293 0.0
C2441 C 0.61155 0.00325 0.33496 0.0
C2442 C 0.63003 0.00682 0.33107 0.0
H2443 H 0.67955 0.97889 0.34491 0.0
H2444 H 0.66465 0.99679 0.35078 0.0
H2445 H 0.65513 0.97605 0.33758 0.0
H2446 H 0.6292 0.98015 0.29038 0.0
H2447 H 0.59679 0.974 0.29721 0.0
H2448 H 0.3546 0.31066 0.62091 0.0
H2449 H 0.33982 0.33993 0.62132 0.0
H2450 H 0.31938 0.32745 0.56425 0.0
H2451 H 0.33387 0.29814 0.56375 0.0
H2452 H 0.34882 0.36784 0.5992 0.0
H2453 H 0.27397 0.34602 0.58747 0.0
H2454 H 0.29095 0.33049 0.59481 0.0
H2455 H 0.28753 0.33496 0.5708 0.0
C2456 C 0.34665 0.31396 0.60855 0.0
C2457 C 0.34548 0.30208 0.59227 0.0
C2458 C 0.33823 0.33071 0.60882 0.0
C2459 C 0.32834 0.33579 0.59288 0.0
C2460 C 0.32661 0.32366 0.57682 0.0
H2461 H 0.31252 0.44135 0.55236 0.0
H2462 H 0.32205 0.41091 0.5601 0.0
C2463 C 0.33503 0.30694 0.57653 0.0
C2464 C 0.32146 0.35451 0.59237 0.0
H2465 H 0.28312 0.3773 0.58116 0.0
C2466 C 0.33441 0.36992 0.59553 0.0
C2467 C 0.30262 0.35723 0.58775 0.0
C2468 C 0.28793 0.3413 0.5852 0.0
C2469 C 0.32918 0.38791 0.59334 0.0
C2470 C 0.31057 0.39051 0.58763 0.0
C2471 C 0.29743 0.37523 0.58533 0.0
C2472 C 0.30474 0.40889 0.58307 0.0
C2473 C 0.34367 0.40397 0.59696 0.0
C2474 C 0.29159 0.41763 0.59319 0.0
C2475 C 0.28612 0.43496 0.5887 0.0
C2476 C 0.29357 0.44363 0.57393 0.0
C2477 C 0.30658 0.4348 0.56375 0.0
C2478 C 0.3121 0.41755 0.56825 0.0
H2479 H 0.3557 0.40038 0.60598 0.0
H2480 H 0.34881 0.40779 0.5836 0.0
H2481 H 0.33777 0.41626 0.60358 0.0
H2482 H 0.28567 0.41109 0.60459 0.0
H2483 H 0.27595 0.44154 0.59659 0.0
H2484 H 0.27743 0.7739 0.0344 0.0
H2485 H 0.29801 0.74888 0.03002 0.0
H2486 H 0.27594 0.73863 0.97318 0.0
H2487 H 0.25584 0.76378 0.97726 0.0
H2488 H 0.28689 0.71344 0.02225 0.0
H2489 H 0.32991 0.73523 0.96686 0.0
H2490 H 0.3165 0.75115 0.9795 0.0
H2491 H 0.30586 0.73649 0.95997 0.0
C2492 C 0.27727 0.76657 0.02086 0.0
C2493 C 0.26496 0.77081 0.00619 0.0
C2494 C 0.28904 0.75228 0.01839 0.0
C2495 C 0.28875 0.74204 0.00119 0.0
C2496 C 0.27684 0.74664 0.98642 0.0
H2497 H 0.30026 0.63416 0.9582 0.0
H2498 H 0.29426 0.6664 0.96643 0.0
C2499 C 0.26519 0.76096 0.98884 0.0
C2500 C 0.29913 0.72522 -0.00087 0.0
H2501 H 0.32544 0.70192 0.96945 0.0
C2502 C 0.29573 0.71112 0.011 0.0
C2503 C 0.31074 0.72218 0.9845 0.0
C2504 C 0.31612 0.73718 0.97213 0.0
C2505 C 0.30255 0.69367 0.00785 0.0
C2506 C 0.31296 0.69028 0.99244 0.0
C2507 C 0.31729 0.70461 0.98118 0.0
C2508 C 0.31768 0.67139 0.98676 0.0
C2509 C 0.29778 0.67859 0.02035 0.0
C2510 C 0.33291 0.66372 0.99541 0.0
C2511 C 0.33642 0.64538 0.99058 0.0
C2512 C 0.32474 0.63456 0.97708 0.0
C2513 C 0.30962 0.64237 0.96837 0.0
C2514 C 0.30617 0.66069 0.97311 0.0
H2515 H 0.28962 0.6835 0.03186 0.0
H2516 H 0.28967 0.66684 0.01217 0.0
H2517 H 0.3107 0.67327 0.02631 0.0
H2518 H 0.34189 0.67183 0.00601 0.0
H2519 H 0.34816 0.63959 0.9974 0.0
H2520 H 0.74473 0.22251 0.42185 0.0
H2521 H 0.72635 0.19284 0.41644 0.0
H2522 H 0.75111 0.18216 0.3649 0.0
H2523 H 0.76967 0.21189 0.37016 0.0
H2524 H 0.70917 0.17284 0.36593 0.0
H2525 H 0.75456 0.1434 0.41954 0.0
H2526 H 0.74585 0.1653 0.42613 0.0
H2527 H 0.76171 0.16383 0.4083 0.0
C2528 C 0.74614 0.214 0.40923 0.0
C2529 C 0.75882 0.21949 0.39652 0.0
C2530 C 0.73562 0.19705 0.40619 0.0
C2531 C 0.73755 0.1853 0.39038 0.0
C2532 C 0.74949 0.19107 0.3772 0.0
H2533 H 0.70515 0.06723 0.38452 0.0
H2534 H 0.72116 0.09725 0.37943 0.0
C2535 C 0.76009 0.20803 0.38026 0.0
C2536 C 0.72807 0.16648 0.38838 0.0
H2537 H 0.72755 0.12503 0.4077 0.0
C2538 C 0.7132 0.16231 0.37494 0.0
C2539 C 0.73358 0.15277 0.40002 0.0
C2540 C 0.74989 0.1564 0.41424 0.0
C2541 C 0.70331 0.14482 0.37325 0.0
C2542 C 0.70841 0.13133 0.38538 0.0
C2543 C 0.72363 0.1354 0.39843 0.0
C2544 C 0.69784 0.11311 0.38544 0.0
C2545 C 0.68753 0.1409 0.3585 0.0
C2546 C 0.67938 0.11207 0.39018 0.0
C2547 C 0.67032 0.09498 0.39301 0.0
C2548 C 0.67962 0.07876 0.39119 0.0
C2549 C 0.69779 0.07966 0.38575 0.0
C2550 C 0.70687 0.09673 0.38292 0.0
H2551 H 0.68861 0.15049 0.34731 0.0
H2552 H 0.68713 0.12643 0.3523 0.0
H2553 H 0.67424 0.14275 0.36483 0.0
H2554 H 0.67229 0.12455 0.3926 0.0
H2555 H 0.65636 0.09443 0.39744 0.0
H2556 H 0.67006 0.7243 0.99624 0.0
H2557 H 0.68912 0.75363 0.00012 0.0
H2558 H 0.67847 0.76117 0.94207 0.0
H2559 H 0.65962 0.73161 0.93795 0.0
H2560 H 0.71527 0.77138 0.95542 0.0
H2561 H 0.6655 0.80307 0.0004 0.0
H2562 H 0.67392 0.78222 0.00852 0.0
H2563 H 0.66003 0.78129 0.9869 0.0
C2564 C 0.67188 0.73211 0.98424 0.0
C2565 C 0.66314 0.72573 0.96682 0.0
C2566 C 0.68272 0.7489 0.98651 0.0
C2567 C 0.68487 0.75975 0.97147 0.0
C2568 C 0.67688 0.75305 0.95388 0.0
H2569 H 0.71678 0.87755 0.98522 0.0
H2570 H 0.7013 0.84697 0.9755 0.0
C2571 C 0.6661 0.73617 0.95157 0.0
C2572 C 0.6948 0.77839 0.97428 0.0
H2573 H 0.69414 0.82041 -0.00166 0.0
C2574 C 0.71064 0.78215 0.96474 0.0
C2575 C 0.68852 0.7925 0.98619 0.0
C2576 C 0.67096 0.78968 0.99596 0.0
C2577 C 0.72064 0.79957 0.96713 0.0
C2578 C 0.71476 0.81343 0.97962 0.0
C2579 C 0.69871 0.80974 0.98886 0.0
C2580 C 0.72494 0.83191 0.98346 0.0
C2581 C 0.73721 0.80305 0.95608 0.0
C2582 C 0.74343 0.83362 0.99095 0.0
C2583 C 0.75233 0.85111 0.99623 0.0
C2584 C 0.74282 0.86711 0.9943 0.0
C2585 C 0.72447 0.86541 0.98651 0.0
C2586 C 0.71561 0.84797 0.98111 0.0
H2587 H 0.73664 0.79328 0.94352 0.0
H2588 H 0.73818 0.81743 0.95178 0.0
H2589 H 0.75001 0.80103 0.96476 0.0
H2590 H 0.75077 0.82143 0.99329 0.0
H2591 H 0.76649 0.85218 0.00225 0.0
H2592 H 0.63124 0.33008 0.29508 0.0
H2593 H 0.63394 0.31399 0.32355 0.0
H2594 H 0.57472 0.30141 0.31942 0.0
H2595 H 0.57191 0.31718 0.29094 0.0
H2596 H 0.61817 0.32435 0.35539 0.0
H2597 H 0.59353 0.2521 0.33187 0.0
H2598 H 0.60047 0.26891 0.31603 0.0
H2599 H 0.57763 0.26833 0.3243 0.0
C2600 C 0.61883 0.32357 0.30003 0.0
C2601 C 0.60135 0.32496 0.29075 0.0
C2602 C 0.6204 0.3144 0.31632 0.0
C2603 C 0.60456 0.30632 0.3235 0.0
C2604 C 0.58718 0.30719 0.31394 0.0
H2605 H 0.57665 0.29171 0.43356 0.0
H2606 H 0.58303 0.30221 0.40309 0.0
C2607 C 0.58559 0.31634 0.29769 0.0
C2608 C 0.60583 0.29857 0.34186 0.0
H2609 H 0.59249 0.26076 0.36444 0.0
C2610 C 0.61284 0.31034 0.35734 0.0
C2611 C 0.59909 0.28024 0.34439 0.0
C2612 C 0.59244 0.26661 0.32823 0.0
C2613 C 0.61238 0.30458 0.37534 0.0
C2614 C 0.60445 0.28669 0.37794 0.0
C2615 C 0.59836 0.27457 0.36243 0.0
C2616 C 0.6013 0.28071 0.39662 0.0
C2617 C 0.62017 0.3178 0.39144 0.0
C2618 C 0.60917 0.26498 0.40294 0.0
C2619 C 0.60544 0.25899 0.42029 0.0
C2620 C 0.59369 0.26858 0.43141 0.0
C2621 C 0.58584 0.28428 0.42513 0.0
C2622 C 0.58958 0.29029 0.40785 0.0
H2623 H 0.63055 0.3283 0.38709 0.0
H2624 H 0.60875 0.32525 0.39716 0.0
H2625 H 0.62678 0.31031 0.40265 0.0
H2626 H 0.61811 0.25731 0.39441 0.0
H2627 H 0.61141 0.24672 0.42493 0.0
H2628 H 0.03031 0.28183 0.76565 0.0
H2629 H 0.02907 0.30306 0.7409 0.0
H2630 H 0.97271 0.28207 0.72459 0.0
H2631 H 0.97366 0.26131 0.7494 0.0
H2632 H 0.02489 0.29284 0.70508 0.0
H2633 H 0.96804 0.33625 0.7211 0.0
H2634 H 0.97871 0.32249 0.73805 0.0
H2635 H 0.96029 0.31234 0.72165 0.0
C2636 C 0.01753 0.28204 0.75703 0.0
C2637 C 0.0021 0.26983 0.75946 0.0
C2638 C 0.01684 0.29419 0.7429 0.0
C2639 C 0.0007 0.2944 0.73105 0.0
C2640 C 0.98514 0.28259 0.73386 0.0
H2641 H 0.96302 0.30929 0.62263 0.0
H2642 H 0.96911 0.30375 0.65524 0.0
C2643 C 0.98578 0.27055 0.74797 0.0
C2644 C 0.00064 0.30509 0.71437 0.0
H2645 H 0.97335 0.33132 0.68829 0.0
C2646 C 0.01391 0.30167 0.70162 0.0
C2647 C 0.98642 0.31674 0.70988 0.0
C2648 C 0.97271 0.32232 0.72353 0.0
C2649 C 0.01244 0.30835 0.68395 0.0
C2650 C 0.99733 0.31867 0.67898 0.0
C2651 C 0.98475 0.32312 0.6921 0.0
C2652 C 0.99326 0.32324 0.65969 0.0
C2653 C 0.02636 0.30334 0.6703 0.0
C2654 C 0.00472 0.33618 0.6515 0.0
C2655 C 0.00089 0.33979 0.63301 0.0
C2656 C 0.98581 0.33018 0.62237 0.0
C2657 C 0.97442 0.31722 0.63064 0.0
C2658 C 0.97798 0.31394 0.6492 0.0
H2659 H 0.03612 0.29354 0.6757 0.0
H2660 H 0.01914 0.29703 0.65711 0.0
H2661 H 0.03454 0.31609 0.66716 0.0
H2662 H 0.01655 0.34354 0.6594 0.0
H2663 H 0.00973 0.34998 0.62696 0.0
H2664 H 0.36821 0.75273 0.20316 0.0
H2665 H 0.36358 0.73192 0.1749 0.0
H2666 H 0.41176 0.70415 0.19208 0.0
H2667 H 0.41659 0.7249 0.22027 0.0
H2668 H 0.41213 0.71721 0.15642 0.0
H2669 H 0.34616 0.67615 0.16537 0.0
H2670 H 0.34573 0.70084 0.16933 0.0
H2671 H 0.36011 0.68852 0.18456 0.0
C2672 C 0.37766 0.74201 0.20108 0.0
C2673 C 0.39284 0.74054 0.21395 0.0
C2674 C 0.37492 0.73006 0.18496 0.0
C2675 C 0.38725 0.71641 0.18148 0.0
C2676 C 0.40205 0.71456 0.19456 0.0
H2677 H 0.3924 0.63044 0.09366 0.0
H2678 H 0.38808 0.64779 0.12325 0.0
C2679 C 0.40478 0.72644 0.21067 0.0
C2680 C 0.38581 0.70521 0.1635 0.0
H2681 H 0.35839 0.67251 0.13593 0.0
C2682 C 0.40039 0.70743 0.15195 0.0
C2683 C 0.3705 0.69243 0.15776 0.0
C2684 C 0.35477 0.68916 0.16992 0.0
C2685 C 0.40004 0.69728 0.13476 0.0
C2686 C 0.38462 0.68471 0.12888 0.0
C2687 C 0.37008 0.68233 0.14045 0.0
C2688 C 0.38389 0.67358 0.11094 0.0
C2689 C 0.41632 0.69986 0.12309 0.0
C2690 C 0.38231 0.68222 0.09427 0.0
C2691 C 0.38474 0.67233 0.07751 0.0
C2692 C 0.38873 0.65371 0.07722 0.0
C2693 C 0.38922 0.64478 0.09372 0.0
C2694 C 0.38676 0.65465 0.11051 0.0
H2695 H 0.4285 0.70751 0.13105 0.0
H2696 H 0.42048 0.68626 0.11752 0.0
H2697 H 0.41228 0.70785 0.11117 0.0
H2698 H 0.38006 0.69681 0.09435 0.0
H2699 H 0.38449 0.6794 0.06487 0.0
H2700 H 0.9912 0.64376 0.73723 0.0
H2701 H 0.99528 0.66337 0.76615 0.0
H2702 H 0.95155 0.69602 0.74671 0.0
H2703 H 0.94711 0.6762 0.71773 0.0
H2704 H 0.00409 0.70096 0.77306 0.0
H2705 H 0.93466 0.6805 0.79627 0.0
H2706 H 0.9443 0.66816 0.77722 0.0
H2707 H 0.93448 0.68984 0.77402 0.0
C2708 C 0.98245 0.65513 0.73903 0.0
C2709 C 0.96871 0.65831 0.72522 0.0
C2710 C 0.98484 0.66635 0.75558 0.0
C2711 C 0.97354 0.68097 0.75869 0.0
C2712 C 0.96017 0.68458 0.74473 0.0
H2713 H 0.99816 0.76212 0.85459 0.0
H2714 H 0.99161 0.74801 0.82277 0.0
C2715 C 0.95773 0.6733 0.72814 0.0
C2716 C 0.97572 0.69214 0.77673 0.0
H2717 H 0.95365 0.70265 0.81571 0.0
C2718 C 0.99304 0.70145 0.78235 0.0
C2719 C 0.96132 0.69254 0.78888 0.0
C2720 C 0.94268 0.68212 0.78393 0.0
C2721 C 0.99645 0.71098 0.79991 0.0
C2722 C 0.98202 0.71148 0.81202 0.0
C2723 C 0.96463 0.70236 0.80632 0.0
C2724 C 0.98504 0.72041 0.8311 0.0
C2725 C 0.01567 0.71981 0.8056 0.0
C2726 C 0.98294 0.70971 0.84628 0.0
C2727 C 0.98654 0.71778 0.86434 0.0
C2728 C 0.99222 0.73668 0.86749 0.0
C2729 C 0.99391 0.74749 0.85236 0.0
C2730 C 0.99025 0.73944 0.83427 0.0
H2731 H 0.02612 0.71455 0.79649 0.0
H2732 H 0.01571 0.735 0.80467 0.0
H2733 H 0.01996 0.71725 0.82012 0.0
H2734 H 0.97892 0.69502 0.84414 0.0
H2735 H 0.98534 0.70921 0.87586 0.0
H2736 H 0.68495 0.38834 0.64608 0.0
H2737 H 0.65534 0.39168 0.65955 0.0
H2738 H 0.68328 0.42485 0.70628 0.0
H2739 H 0.71303 0.42176 0.69283 0.0
H2740 H 0.64217 0.38374 0.69472 0.0
H2741 H 0.64582 0.45888 0.68354 0.0
H2742 H 0.66079 0.4432 0.6728 0.0
H2743 H 0.66527 0.45116 0.6968 0.0
C2744 C 0.68487 0.39618 0.65933 0.0
C2745 C 0.70134 0.40498 0.66826 0.0
C2746 C 0.66792 0.39804 0.66702 0.0
C2747 C 0.6671 0.40877 0.68373 0.0
C2748 C 0.68361 0.41676 0.6932 0.0
H2749 H 0.57105 0.44927 0.73515 0.0
H2750 H 0.60262 0.44167 0.72904 0.0
C2751 C 0.7006 0.4149 0.68553 0.0
C2752 C 0.64886 0.41243 0.69058 0.0
H2753 H 0.6197 0.44675 0.69732 0.0
C2754 C 0.63726 0.39752 0.69539 0.0
C2755 C 0.64252 0.43042 0.69139 0.0
C2756 C 0.65414 0.44685 0.68573 0.0
C2757 C 0.61944 0.40013 0.70103 0.0
C2758 C 0.61296 0.41807 0.70149 0.0
C2759 C 0.6247 0.43301 0.69698 0.0
C2760 C 0.59385 0.42166 0.70598 0.0
C2761 C 0.60778 0.3837 0.7066 0.0
C2762 C 0.57848 0.413 0.69502 0.0
C2763 C 0.56053 0.41737 0.69852 0.0
C2764 C 0.5577 0.43058 0.71289 0.0
C2765 C 0.57302 0.43914 0.72393 0.0
C2766 C 0.59096 0.43475 0.72048 0.0
H2767 H 0.61649 0.3725 0.7108 0.0
H2768 H 0.59935 0.38772 0.7182 0.0
H2769 H 0.59822 0.37801 0.69461 0.0
H2770 H 0.58039 0.40323 0.68347 0.0
H2771 H 0.54887 0.41082 0.68973 0.0
H2772 H 0.78213 0.58209 0.18545 0.0
H2773 H 0.81058 0.56914 0.19699 0.0
H2774 H 0.80299 0.59176 0.25224 0.0
H2775 H 0.77442 0.60451 0.24092 0.0
H2776 H 0.84231 0.58807 0.21455 0.0
H2777 H 0.81163 0.53792 0.2601 0.0
H2778 H 0.79786 0.54868 0.2428 0.0
H2779 H 0.80522 0.56113 0.2647 0.0
C2780 C 0.78644 0.58421 0.20008 0.0
C2781 C 0.77597 0.59428 0.21228 0.0
C2782 C 0.8027 0.57681 0.20664 0.0
C2783 C 0.80873 0.57926 0.2255 0.0
C2784 C 0.79836 0.58936 0.2377 0.0
H2785 H 0.90554 0.55464 0.29322 0.0
H2786 H 0.87611 0.56544 0.28072 0.0
C2787 C 0.78209 0.59673 0.23117 0.0
C2788 C 0.82626 0.5719 0.23232 0.0
H2789 H 0.8445 0.54355 0.26325 0.0
C2790 C 0.84279 0.57822 0.22508 0.0
C2791 C 0.82682 0.55907 0.24609 0.0
C2792 C 0.80942 0.55115 0.25377 0.0
C2793 C 0.85994 0.5724 0.23157 0.0
C2794 C 0.86051 0.55974 0.24548 0.0
C2795 C 0.84398 0.5533 0.25262 0.0
C2796 C 0.87816 0.55317 0.25295 0.0
C2797 C 0.87737 0.58021 0.22386 0.0
C2798 C 0.88885 0.54253 0.24152 0.0
C2799 C 0.90557 0.53646 0.24865 0.0
C2800 C 0.91178 0.54096 0.26726 0.0
C2801 C 0.90098 0.55131 0.27876 0.0
C2802 C 0.88425 0.55736 0.27166 0.0
H2803 H 0.87499 0.5928 0.21646 0.0
H2804 H 0.88856 0.58373 0.23507 0.0
H2805 H 0.88225 0.56966 0.2139 0.0
H2806 H 0.88422 0.53887 0.22713 0.0
H2807 H 0.91374 0.52834 0.23969 0.0
H2808 H 0.26183 0.98766 0.3008 0.0
H2809 H 0.22985 0.98218 0.28713 0.0
H2810 H 0.2099 0.0052 0.33771 0.0
H2811 H 0.24164 0.01104 0.35129 0.0
H2812 H 0.20213 0.95997 0.29947 0.0
H2813 H 0.1811 0.03172 0.29939 0.0
H2814 H 0.20503 0.02654 0.30269 0.0
H2815 H 0.19047 0.02647 0.32177 0.0
C2816 C 0.25064 0.99179 0.30891 0.0
C2817 C 0.2543 -0.00017 0.32712 0.0
C2818 C 0.23238 0.98863 0.30109 0.0
C2819 C 0.2175 0.99355 0.31129 0.0
C2820 C 0.22116 0.00172 0.32939 0.0
H2821 H 0.09917 0.97163 0.3063 0.0
H2822 H 0.13212 0.98125 0.31429 0.0
C2823 C 0.23935 0.00492 0.33719 0.0
C2824 C 0.19807 0.98901 0.30362 0.0
H2825 H 0.15645 0.00755 0.29618 0.0
C2826 C 0.1922 0.9704 0.29849 0.0
C2827 C 0.18513 0.00265 0.30237 0.0
C2828 C 0.19078 0.02298 0.30667 0.0
C2829 C 0.17358 0.96496 0.29283 0.0
C2830 C 0.16057 0.97853 0.29213 0.0
C2831 C 0.16648 0.99719 0.29685 0.0
C2832 C 0.14064 0.97351 0.28702 0.0
C2833 C 0.16782 0.94468 0.28826 0.0
C2834 C 0.13457 0.96632 0.26899 0.0
C2835 C 0.11581 0.96098 0.26444 0.0
C2836 C 0.10289 0.96275 0.27784 0.0
C2837 C 0.10893 0.97029 0.29576 0.0
C2838 C 0.12767 0.9757 0.30031 0.0
H2839 H 0.1788 0.9357 0.29277 0.0
H2840 H 0.15497 0.94065 0.2949 0.0
H2841 H 0.16489 0.94203 0.27305 0.0
H2842 H 0.14434 0.96478 0.25848 0.0
H2843 H 0.11136 0.95544 0.25047 0.0
H2844 H 0.27245 0.9446 0.74711 0.0
H2845 H 0.30382 0.95496 0.7401 0.0
H2846 H 0.2897 0.01169 0.74472 0.0
H2847 H 0.25832 0.0015 0.75192 0.0
H2848 H 0.31493 0.97567 0.71088 0.0
H2849 H 0.33707 0.01208 0.77961 0.0
H2850 H 0.31682 0.99593 0.77582 0.0
H2851 H 0.31589 0.01913 0.7689 0.0
C2852 C 0.276 0.95929 0.74669 0.0
C2853 C 0.2629 0.97223 0.75017 0.0
C2854 C 0.29393 0.96517 0.74266 0.0
C2855 C 0.29913 0.98409 0.74214 0.0
C2856 C 0.28605 0.99705 0.74539 0.0
H2857 H 0.39528 0.03414 0.69436 0.0
H2858 H 0.36388 0.02314 0.70122 0.0
C2859 C 0.2681 0.99118 0.74941 0.0
C2860 C 0.31818 0.99022 0.73793 0.0
H2861 H 0.35747 0.01587 0.7558 0.0
C2862 C 0.32427 0.98442 0.72069 0.0
C2863 C 0.33036 0.00146 0.75088 0.0
C2864 C 0.32482 0.0074 0.76991 0.0
C2865 C 0.34217 0.9898 0.71593 0.0
C2866 C 0.35418 0.00147 0.72867 0.0
C2867 C 0.34818 0.00704 0.74602 0.0
C2868 C 0.37308 0.00798 0.72434 0.0
C2869 C 0.34818 0.98274 0.69741 0.0
C2870 C 0.38859 0.00342 0.7353 0.0
C2871 C 0.40643 0.00982 0.73147 0.0
C2872 C 0.40901 0.02096 0.71672 0.0
C2873 C 0.39352 0.02558 0.70582 0.0
C2874 C 0.37567 0.01919 0.70963 0.0
H2875 H 0.3393 0.97037 0.6914 0.0
H2876 H 0.3471 0.99372 0.68761 0.0
H2877 H 0.36281 0.97912 0.69865 0.0
H2878 H 0.38686 0.99489 0.74679 0.0
H2879 H 0.41823 0.0063 0.74014 0.0
H2880 H 0.64381 0.698 0.41102 0.0
H2881 H 0.65827 0.67003 0.4194 0.0
H2882 H 0.63243 0.64032 0.36961 0.0
H2883 H 0.61807 0.66823 0.36099 0.0
H2884 H 0.64129 0.63539 0.42527 0.0
H2885 H 0.68727 0.63041 0.36748 0.0
H2886 H 0.67599 0.65112 0.37359 0.0
H2887 H 0.66326 0.63192 0.36024 0.0
C2888 C 0.64124 0.68554 0.40181 0.0
C2889 C 0.62985 0.68538 0.38528 0.0
C2890 C 0.64951 0.66957 0.40664 0.0
C2891 C 0.64664 0.65319 0.39499 0.0
C2892 C 0.63512 0.65292 0.37861 0.0
H2893 H 0.66622 0.54155 0.42314 0.0
H2894 H 0.65258 0.57003 0.41433 0.0
C2895 C 0.62684 0.66887 0.37376 0.0
C2896 C 0.65538 0.63628 0.4002 0.0
H2897 H 0.68504 0.60467 0.38588 0.0
C2898 C 0.6509 0.6287 0.4167 0.0
C2899 C 0.66809 0.62772 0.3891 0.0
C2900 C 0.67411 0.63577 0.3717 0.0
C2901 C 0.65853 0.61256 0.42224 0.0
C2902 C 0.67075 0.60365 0.41082 0.0
C2903 C 0.67551 0.61143 0.3945 0.0
C2904 C 0.6789 0.58634 0.41568 0.0
C2905 C 0.65366 0.60532 0.44039 0.0
C2906 C 0.69819 0.58596 0.41884 0.0
C2907 C 0.70589 0.56972 0.42372 0.0
C2908 C 0.69442 0.55367 0.42538 0.0
C2909 C 0.67519 0.5539 0.42192 0.0
C2910 C 0.66746 0.57012 0.41704 0.0
H2911 H 0.64803 0.61611 0.44957 0.0
H2912 H 0.64291 0.59359 0.43764 0.0
H2913 H 0.66596 0.6002 0.44781 0.0
H2914 H 0.70724 0.5983 0.41778 0.0
H2915 H 0.72076 0.56965 0.42635 0.0
H2916 H 0.7654 0.26801 0.02903 0.0
H2917 H 0.76296 0.30005 0.04107 0.0
H2918 H 0.74731 0.31482 0.98598 0.0
H2919 H 0.74959 0.28288 0.97381 0.0
H2920 H 0.78229 0.33288 0.03071 0.0
H2921 H 0.70605 0.33357 0.01737 0.0
H2922 H 0.71768 0.3124 0.01756 0.0
H2923 H 0.71776 0.32572 0.99763 0.0
C2924 C 0.76138 0.27806 0.01948 0.0
C2925 C 0.75759 0.27287 0.00046 0.0
C2926 C 0.76002 0.29635 0.02638 0.0
C2927 C 0.75472 0.30971 0.01445 0.0
C2928 C 0.75111 0.30463 0.99546 0.0
H2929 H 0.76614 0.42898 0.02683 0.0
H2930 H 0.76948 0.39592 0.01933 0.0
C2931 C 0.75251 0.28638 0.98853 0.0
C2932 C 0.75324 0.32906 0.02173 0.0
H2933 H 0.72289 0.3627 0.0254 0.0
C2934 C 0.76929 0.33939 0.02968 0.0
C2935 C 0.73622 0.33741 0.02058 0.0
C2936 C 0.71839 0.32668 0.01299 0.0
C2937 C 0.76887 0.35808 0.03599 0.0
C2938 C 0.75199 0.36663 0.0341 0.0
C2939 C 0.73584 0.35613 0.02668 0.0
C2940 C 0.75082 0.38658 0.03933 0.0
C2941 C 0.78644 0.36849 0.04467 0.0
C2942 C 0.73907 0.39223 0.05285 0.0
C2943 C 0.73712 0.41105 0.05702 0.0
C2944 C 0.74677 0.42444 0.04762 0.0
C2945 C 0.75862 0.4188 0.03421 0.0
C2946 C 0.76062 0.4 0.03006 0.0
H2947 H 0.79671 0.35893 0.04958 0.0
H2948 H 0.79281 0.37683 0.03422 0.0
H2949 H 0.78351 0.37808 0.05654 0.0
H2950 H 0.73128 0.38207 0.06004 0.0
H2951 H 0.72772 0.41516 0.06722 0.0
H2952 H 0.29137 0.78893 0.61852 0.0
H2953 H 0.30473 0.82095 0.62414 0.0
H2954 H 0.24976 0.84001 0.62419 0.0
H2955 H 0.23639 0.80823 0.61917 0.0
H2956 H 0.30056 0.84686 0.60088 0.0
H2957 H 0.27473 0.87217 0.66693 0.0
H2958 H 0.27377 0.84782 0.65953 0.0
H2959 H 0.25589 0.86195 0.65138 0.0
C2960 C 0.28216 0.79992 0.62016 0.0
C2961 C 0.26281 0.79602 0.61834 0.0
C2962 C 0.28981 0.81822 0.62338 0.0
C2963 C 0.27828 0.83292 0.62488 0.0
C2964 C 0.25899 0.82894 0.62364 0.0
H2965 H 0.27658 0.9417 0.59477 0.0
H2966 H 0.27119 0.91064 0.60563 0.0
C2967 C 0.25135 0.81071 0.62057 0.0
C2968 C 0.2861 0.85243 0.62535 0.0
H2969 H 0.28224 0.89574 0.64575 0.0
C2970 C 0.29696 0.85747 0.611 0.0
C2971 C 0.28144 0.86632 0.63856 0.0
C2972 C 0.27098 0.86173 0.65507 0.0
C2973 C 0.30225 0.87609 0.60879 0.0
C2974 C 0.29653 0.88999 0.62127 0.0
C2975 C 0.2865 0.88499 0.63617 0.0
C2976 C 0.29922 0.90971 0.61767 0.0
C2977 C 0.31303 0.88092 0.59255 0.0
C2978 C 0.3166 0.91956 0.62136 0.0
C2979 C 0.31961 0.93731 0.61527 0.0
C2980 C 0.3053 0.94525 0.60533 0.0
C2981 C 0.28771 0.93573 0.60247 0.0
C2982 C 0.28466 0.91811 0.60866 0.0
H2983 H 0.31593 0.86847 0.58375 0.0
H2984 H 0.30519 0.89015 0.58387 0.0
H2985 H 0.32642 0.88858 0.59765 0.0
H2986 H 0.328 0.91321 0.62823 0.0
H2987 H 0.33329 0.94446 0.61741 0.0
H2988 H 0.36807 0.2474 0.00311 0.0
H2989 H 0.36161 0.21545 0.98981 0.0
H2990 H 0.3195 0.2066 0.02795 0.0
H2991 H 0.3257 0.2385 0.04122 0.0
H2992 H 0.36303 0.18177 0.00742 0.0
H2993 H 0.29227 0.19119 0.97689 0.0
H2994 H 0.30877 0.21045 0.98467 0.0
H2995 H 0.29614 0.19837 0.00113 0.0
C2996 C 0.35743 0.23867 0.00867 0.0
C2997 C 0.34731 0.24555 0.02315 0.0
C2998 C 0.35378 0.22041 0.00107 0.0
C2999 C 0.33989 0.20878 0.00771 0.0
C3000 C 0.33004 0.21548 0.02239 0.0
H3001 H 0.29312 0.09633 0.98091 0.0
H3002 H 0.30174 0.12796 0.99466 0.0
C3003 C 0.33367 0.2337 0.03001 0.0
C3004 C 0.33572 0.18959 -0.00065 0.0
H3005 H 0.30125 0.16041 0.9765 0.0
C3006 C 0.34957 0.17709 0.00056 0.0
C3007 C 0.31815 0.18358 0.99042 0.0
C3008 C 0.30301 0.19661 0.98801 0.0
C3009 C 0.34615 0.15856 0.99347 0.0
C3010 C 0.32851 0.15252 0.98466 0.0
C3011 C 0.31473 0.16508 0.98332 0.0
C3012 C 0.32394 0.13319 0.97685 0.0
C3013 C 0.36126 0.1455 0.99589 0.0
C3014 C 0.33353 0.1257 0.96228 0.0
C3015 C 0.32864 0.10767 0.95455 0.0
C3016 C 0.31402 0.09699 0.96117 0.0
C3017 C 0.30449 0.10442 0.97574 0.0
C3018 C 0.30937 0.12241 0.9835 0.0
H3019 H 0.3721 0.151 0.00686 0.0
H3020 H 0.35548 0.13174 -0.00056 0.0
H3021 H 0.36798 0.14355 0.9827 0.0
H3022 H 0.34458 0.13389 0.95671 0.0
H3023 H 0.33611 0.10206 0.94332 0.0
H3024 H 0.43037 0.63104 0.68828 0.0
H3025 H 0.44047 0.64226 0.65934 0.0
H3026 H 0.38569 0.62796 0.63294 0.0
H3027 H 0.3754 0.61693 0.6618 0.0
H3028 H 0.44053 0.62323 0.62456 0.0
H3029 H 0.39595 0.68209 0.62185 0.0
H3030 H 0.40007 0.67011 0.64253 0.0
H3031 H 0.38344 0.66027 0.6243 0.0
C3032 C 0.42045 0.63033 0.67633 0.0
C3033 C 0.40204 0.62318 0.67739 0.0
C3034 C 0.42625 0.63673 0.65981 0.0
C3035 C 0.41376 0.63622 0.64408 0.0
C3036 C 0.39546 0.62885 0.64502 0.0
H3037 H 0.43645 0.64315 0.52913 0.0
H3038 H 0.42858 0.63325 0.55948 0.0
C3039 C 0.38964 0.62245 0.66151 0.0
C3040 C 0.41991 0.64304 0.62658 0.0
H3041 H 0.411 0.67416 0.59461 0.0
C3042 C 0.43416 0.63443 0.61805 0.0
C3043 C 0.41175 0.65783 0.61825 0.0
C3044 C 0.39708 0.66825 0.62727 0.0
C3045 C 0.44013 0.63991 0.60114 0.0
C3046 C 0.43143 0.65417 0.59244 0.0
C3047 C 0.41752 0.6631 0.60122 0.0
C3048 C 0.43645 0.65998 0.57416 0.0
C3049 C 0.45583 0.63049 0.59284 0.0
C3050 C 0.4431 0.67834 0.57229 0.0
C3051 C 0.44739 0.68397 0.55498 0.0
C3052 C 0.44493 0.67136 0.53929 0.0
C3053 C 0.43832 0.65303 0.54113 0.0
C3054 C 0.43401 0.64739 0.55842 0.0
H3055 H 0.46421 0.62366 0.60341 0.0
H3056 H 0.45003 0.61967 0.582 0.0
H3057 H 0.4651 0.64052 0.58632 0.0
H3058 H 0.445 0.6883 0.58424 0.0
H3059 H 0.45248 0.69817 0.55373 0.0
H3060 H 0.97891 0.79074 0.27442 0.0
H3061 H 0.98922 0.78388 0.30587 0.0
H3062 H -0.00041 0.72857 0.28572 0.0
H3063 H 0.98944 0.73529 0.25425 0.0
H3064 H 0.97389 0.75539 0.32636 0.0
H3065 H 0.04817 0.74766 0.31615 0.0
H3066 H 0.03324 0.75882 0.30015 0.0
H3067 H 0.03221 0.73399 0.29966 0.0
C3068 C 0.9835 0.77715 0.27665 0.0
C3069 C 0.98337 0.76357 0.26181 0.0
C3070 C 0.98936 0.77326 0.29462 0.0
C3071 C 0.99536 0.7558 0.29807 0.0
C3072 C 0.99532 0.74224 0.2833 0.0
H3073 H 0.03276 0.70222 0.39544 0.0
H3074 H 0.02289 0.71004 0.36398 0.0
C3075 C 0.98942 0.74609 0.26533 0.0
C3076 C 0.00102 0.75152 0.3172 0.0
H3077 H 0.0374 0.73863 0.34452 0.0
C3078 C 0.9878 0.75184 0.3304 0.0
C3079 C 0.01916 0.74683 0.32235 0.0
C3080 C 0.03409 0.74694 0.3089 0.0
C3081 C 0.99213 0.74719 0.34856 0.0
C3082 C 0.01026 0.74245 0.35371 0.0
C3083 C 0.0235 0.74223 0.34052 0.0
C3084 C 0.01579 0.73762 0.3727 0.0
C3085 C 0.97711 0.74691 0.36192 0.0
C3086 C 0.0152 0.75056 0.38795 0.0
C3087 C 0.02075 0.74603 0.40578 0.0
C3088 C 0.02707 0.72859 0.40856 0.0
C3089 C 0.02779 0.71569 0.3934 0.0
C3090 C 0.02222 0.72018 0.37556 0.0
H3091 H 0.96306 0.74606 0.35459 0.0
H3092 H 0.97801 0.73503 0.37067 0.0
H3093 H 0.97881 0.75986 0.37115 0.0
H3094 H 0.01067 0.76423 0.38602 0.0
H3095 H 0.02032 0.75614 0.41743 0.0
H3096 H 0.57925 0.28596 0.78473 0.0
H3097 H 0.5811 0.29457 0.81786 0.0
H3098 H 0.63505 0.27331 0.82396 0.0
H3099 H 0.63303 0.26405 0.79076 0.0
H3100 H 0.61366 0.25977 0.84806 0.0
H3101 H 0.60777 0.33515 0.85151 0.0
H3102 H 0.58909 0.32355 0.83666 0.0
H3103 H 0.61263 0.3222 0.83048 0.0
C3104 C 0.5917 0.28343 0.79301 0.0
C3105 C 0.60597 0.27424 0.78508 0.0
C3106 C 0.5928 0.28852 0.812 0.0
C3107 C 0.60834 0.28486 0.82342 0.0
C3108 C 0.62296 0.27635 0.81542 0.0
H3109 H 0.60321 0.3199 0.94152 0.0
H3110 H 0.61547 0.31614 0.91084 0.0
C3111 C 0.62179 0.27109 0.79643 0.0
C3112 C 0.60828 0.28805 0.84386 0.0
H3113 H 0.59773 0.31949 0.87799 0.0
C3114 C 0.61055 0.27295 0.85465 0.0
C3115 C 0.6046 0.30531 0.85261 0.0
C3116 C 0.60361 0.3225 0.8422 0.0
C3117 C 0.60804 0.27432 0.87367 0.0
C3118 C 0.60261 0.29107 0.88203 0.0
C3119 C 0.60156 0.30653 0.87153 0.0
C3120 C 0.59655 0.29245 0.90115 0.0
C3121 C 0.61101 0.25768 0.88451 0.0
C3122 C 0.58194 0.2804 0.90591 0.0
C3123 C 0.57517 0.28241 0.92339 0.0
C3124 C 0.58266 0.29671 0.93635 0.0
C3125 C 0.59742 0.30866 0.93176 0.0
C3126 C 0.6043 0.30657 0.91426 0.0
H3127 H 0.62131 0.24899 0.8783 0.0
H3128 H 0.61585 0.26181 0.89917 0.0
H3129 H 0.59774 0.249 0.8842 0.0
H3130 H 0.57539 0.26971 0.89591 0.0
H3131 H 0.56382 0.27304 0.92672 0.0
H3132 H 0.03341 0.38379 0.23017 0.0
H3133 H 0.01975 0.37687 0.19837 0.0
H3134 H 0.02269 0.31848 0.20426 0.0
H3135 H 0.03628 0.32519 0.236 0.0
H3136 H 0.03476 0.35623 0.16802 0.0
H3137 H 0.96758 0.32423 0.18702 0.0
H3138 H 0.98326 0.33872 0.20332 0.0
H3139 H 0.98775 0.31505 0.19762 0.0
C3140 C 0.03116 0.36947 0.2247 0.0
C3141 C 0.03586 0.35503 0.23565 0.0
C3142 C 0.02338 0.36556 0.20654 0.0
C3143 C 0.02002 0.34717 0.1991 0.0
C3144 C 0.02493 0.33275 0.20987 0.0
H3145 H 0.99758 0.29925 0.08697 0.0
H3146 H 0.01141 0.31062 0.11789 0.0
C3147 C 0.03276 0.33663 0.22798 0.0
C3148 C 0.01148 0.34298 0.18002 0.0
H3149 H 0.97354 0.32087 0.15525 0.0
C3150 C 0.02133 0.3486 0.16519 0.0
C3151 C 0.99387 0.33323 0.17645 0.0
C3152 C 0.98238 0.32757 0.19192 0.0
C3153 C 0.01423 0.34424 0.14678 0.0
C3154 C 0.99694 0.33386 0.1432 0.0
C3155 C 0.98686 0.32872 0.15805 0.0
C3156 C 0.98917 0.32786 0.12415 0.0
C3157 C 0.02524 0.35081 0.13131 0.0
C3158 C 0.97204 0.33364 0.11754 0.0
C3159 C 0.96421 0.32719 0.09992 0.0
C3160 C 0.97333 0.31477 0.08873 0.0
C3161 C 0.99051 0.30907 0.0953 0.0
C3162 C 0.99837 0.31555 0.11289 0.0
H3163 H 0.0356 0.36243 0.13627 0.0
H3164 H 0.03279 0.33923 0.12555 0.0
H3165 H 0.01597 0.35537 0.11996 0.0
H3166 H 0.96469 0.34307 0.12607 0.0
H3167 H 0.95099 0.33178 0.09502 0.0
loop_
_geom_bond_atom_site_label_1
_geom_bond_atom_site_label_2
_geom_bond_distance
_geom_bond_site_symmetry_2
_ccdc_geom_bond_type
O0 Cd1 2.300 . S
O0 C7 1.275 . S
Cd1 O0 2.300 . S
Cd1 O9 2.381 . S
Cd1 O10 2.378 . S
O2 Cd3 2.385 . S
O2 C7 1.255 . S
Cd3 O2 2.385 . S
Cd3 O4 2.317 . S
O4 Cd3 2.317 . S
O4 C5 1.232 . S
C5 O4 1.232 . S
C5 O6 1.218 . S
O6 C5 1.218 . S
C7 O0 1.275 . S
C7 O2 1.255 . S
C8 O9 1.258 . S
C8 O10 1.256 . S
O9 Cd1 2.381 . S
O9 C8 1.258 . S
O10 Cd1 2.378 . S
O10 C8 1.256 . S
O11 Cd12 2.300 . S
O11 C18 1.275 . S
Cd12 O11 2.300 . S
Cd12 O20 2.381 . S
Cd12 O21 2.378 . S
O13 Cd14 2.385 . S
O13 C18 1.255 . S
Cd14 O13 2.385 . S
Cd14 O15 2.317 . S
O15 Cd14 2.317 . S
O15 C16 1.232 . S
C16 O15 1.232 . S
C16 O17 1.218 . S
O17 C16 1.218 . S
C18 O11 1.275 . S
C18 O13 1.255 . S
C19 O20 1.258 . S
C19 O21 1.256 . S
O20 Cd12 2.381 . S
O20 C19 1.258 . S
O21 Cd12 2.378 . S
O21 C19 1.256 . S
O22 Cd23 2.300 1_545 S
O22 C29 1.275 1_545 S
Cd23 O22 2.300 1_565 S
Cd23 O31 2.381 1_565 S
Cd23 O32 2.378 . S
O24 Cd25 2.385 . S
O24 C29 1.255 . S
Cd25 O24 2.385 . S
Cd25 O26 2.317 . S
O26 Cd25 2.317 . S
O26 C27 1.232 . S
C27 O26 1.232 . S
C27 O28 1.218 . S
O28 C27 1.218 . S
C29 O22 1.275 1_565 S
C29 O24 1.255 . S
C30 O31 1.266 . S
C30 O32 1.243 1_545 S
O31 Cd23 2.381 1_545 S
O31 C30 1.266 . S
O32 Cd23 2.378 . S
O32 C30 1.243 1_565 S
O33 Cd34 2.300 1_565 S
O33 C40 1.276 1_565 S
Cd34 O33 2.300 1_545 S
Cd34 O42 2.381 1_545 S
Cd34 O43 2.378 . S
O35 Cd36 2.385 . S
O35 C40 1.254 . S
Cd36 O35 2.385 . S
Cd36 O37 2.317 . S
O37 Cd36 2.317 . S
O37 C38 1.232 . S
C38 O37 1.232 . S
C38 O39 1.218 . S
O39 C38 1.218 . S
C40 O33 1.276 1_545 S
C40 O35 1.254 . S
C41 O42 1.258 1_545 S
C41 O43 1.256 . S
O42 Cd34 2.381 1_565 S
O42 C41 1.258 1_565 S
O43 Cd34 2.378 . S
O43 C41 1.256 . S
O44 Cd45 2.300 . S
O44 C51 1.275 . S
Cd45 O44 2.300 . S
Cd45 O53 2.381 . S
Cd45 O54 2.378 . S
O46 Cd47 2.385 . S
O46 C51 1.255 . S
Cd47 O46 2.385 . S
Cd47 O48 2.317 . S
O48 Cd47 2.317 . S
O48 C49 1.232 . S
C49 O48 1.232 . S
C49 O50 1.218 . S
O50 C49 1.218 . S
C51 O44 1.275 . S
C51 O46 1.255 . S
C52 O53 1.258 . S
C52 O54 1.256 . S
O53 Cd45 2.381 . S
O53 C52 1.258 . S
O54 Cd45 2.378 . S
O54 C52 1.256 . S
O55 Cd56 2.300 1_556 S
O55 C62 1.276 1_556 S
Cd56 O55 2.300 1_554 S
Cd56 O64 2.381 1_554 S
Cd56 O65 2.378 . S
O57 Cd58 2.385 . S
O57 C62 1.254 . S
Cd58 O57 2.385 . S
Cd58 O59 2.317 . S
O59 Cd58 2.317 . S
O59 C60 1.232 . S
C60 O59 1.232 . S
C60 O61 1.218 . S
O61 C60 1.218 . S
C62 O55 1.276 1_554 S
C62 O57 1.254 . S
C63 O64 1.258 1_554 S
C63 O65 1.256 . S
O64 Cd56 2.381 1_556 S
O64 C63 1.258 1_556 S
O65 Cd56 2.378 . S
O65 C63 1.256 . S
O66 Cd67 2.300 . S
O66 C73 1.275 . S
Cd67 O66 2.300 . S
Cd67 O75 2.381 . S
Cd67 O76 2.378 . S
O68 Cd69 2.385 . S
O68 C73 1.255 . S
Cd69 O68 2.385 . S
Cd69 O70 2.317 . S
O70 Cd69 2.317 . S
O70 C71 1.232 . S
C71 O70 1.232 . S
C71 O72 1.218 . S
O72 C71 1.218 . S
C73 O66 1.275 . S
C73 O68 1.255 . S
C74 O75 1.258 . S
C74 O76 1.256 . S
O75 Cd67 2.381 . S
O75 C74 1.258 . S
O76 Cd67 2.378 . S
O76 C74 1.256 . S
O77 Cd78 2.300 1_554 S
O77 C84 1.275 1_554 S
Cd78 O77 2.300 1_556 S
Cd78 O86 2.381 1_556 S
Cd78 O87 2.378 . S
O79 Cd80 2.385 . S
O79 C84 1.255 . S
Cd80 O79 2.385 . S
Cd80 O81 2.317 . S
O81 Cd80 2.317 . S
O81 C82 1.232 . S
C82 O81 1.232 . S
C82 O83 1.218 . S
O83 C82 1.218 . S
C84 O77 1.275 1_556 S
C84 O79 1.255 . S
C85 O86 1.266 . S
C85 O87 1.243 1_554 S
O86 Cd78 2.381 1_554 S
O86 C85 1.266 . S
O87 Cd78 2.378 . S
O87 C85 1.243 1_556 S
O88 Cd89 2.300 . S
O88 C95 1.275 . S
Cd89 O88 2.300 . S
Cd89 O97 2.381 . S
Cd89 O98 2.378 . S
O90 Cd91 2.385 . S
O90 C95 1.255 . S
Cd91 O90 2.385 . S
Cd91 O92 2.317 . S
O92 Cd91 2.317 . S
O92 C93 1.232 . S
C93 O92 1.232 . S
C93 O94 1.218 . S
O94 C93 1.218 . S
C95 O88 1.275 . S
C95 O90 1.255 . S
C96 O97 1.258 . S
C96 O98 1.256 . S
O97 Cd89 2.381 . S
O97 C96 1.258 . S
O98 Cd89 2.378 . S
O98 C96 1.256 . S
O99 Cd100 2.300 1_655 S
O99 C106 1.276 1_655 S
Cd100 O99 2.300 1_455 S
Cd100 O108 2.381 1_455 S
Cd100 O109 2.378 . S
O101 Cd102 2.385 . S
O101 C106 1.254 . S
Cd102 O101 2.385 . S
Cd102 O103 2.317 . S
O103 Cd102 2.317 . S
O103 C104 1.232 . S
C104 O103 1.232 . S
C104 O105 1.218 . S
O105 C104 1.218 . S
C106 O99 1.276 1_455 S
C106 O101 1.254 . S
C107 O108 1.258 1_455 S
C107 O109 1.256 . S
O108 Cd100 2.381 1_655 S
O108 C107 1.258 1_655 S
O109 Cd100 2.378 . S
O109 C107 1.256 . S
O110 Cd111 2.300 . S
O110 C117 1.275 . S
Cd111 O110 2.300 . S
Cd111 O119 2.381 . S
Cd111 O120 2.378 . S
O112 Cd113 2.385 . S
O112 C117 1.255 . S
Cd113 O112 2.385 . S
Cd113 O114 2.317 . S
O114 Cd113 2.317 . S
O114 C115 1.232 . S
C115 O114 1.232 . S
C115 O116 1.218 . S
O116 C115 1.218 . S
C117 O110 1.275 . S
C117 O112 1.255 . S
C118 O119 1.258 . S
C118 O120 1.256 . S
O119 Cd111 2.381 . S
O119 C118 1.258 . S
O120 Cd111 2.378 . S
O120 C118 1.256 . S
O121 Cd122 2.300 1_455 S
O121 C128 1.275 1_455 S
Cd122 O121 2.300 1_655 S
Cd122 O130 2.381 1_655 S
Cd122 O131 2.378 . S
O123 Cd124 2.385 . S
O123 C128 1.255 . S
Cd124 O123 2.385 . S
Cd124 O125 2.317 . S
O125 Cd124 2.317 . S
O125 C126 1.232 . S
C126 O125 1.232 . S
C126 O127 1.218 . S
O127 C126 1.218 . S
C128 O121 1.275 1_655 S
C128 O123 1.255 . S
C129 O130 1.266 . S
C129 O131 1.243 1_455 S
O130 Cd122 2.381 1_455 S
O130 C129 1.266 . S
O131 Cd122 2.378 . S
O131 C129 1.243 1_655 S
O132 Cd133 2.300 . S
O132 C139 1.275 . S
Cd133 O132 2.300 . S
Cd133 O141 2.381 . S
Cd133 O142 2.378 . S
O134 Cd135 2.385 . S
O134 C139 1.255 . S
Cd135 O134 2.385 . S
Cd135 O136 2.317 . S
O136 Cd135 2.317 . S
O136 C137 1.232 . S
C137 O136 1.232 . S
C137 O138 1.218 . S
O138 C137 1.218 . S
C139 O132 1.275 . S
C139 O134 1.255 . S
C140 O141 1.258 . S
C140 O142 1.256 . S
O141 Cd133 2.381 . S
O141 C140 1.258 . S
O142 Cd133 2.378 . S
O142 C140 1.256 . S
O143 Cd144 2.300 . S
O143 C150 1.275 . S
Cd144 O143 2.300 . S
Cd144 O152 2.381 . S
Cd144 O153 2.378 . S
O145 Cd146 2.385 . S
O145 C150 1.255 . S
Cd146 O145 2.385 . S
Cd146 O147 2.317 . S
O147 Cd146 2.317 . S
O147 C148 1.232 . S
C148 O147 1.232 . S
C148 O149 1.218 . S
O149 C148 1.218 . S
C150 O143 1.275 . S
C150 O145 1.255 . S
C151 O152 1.258 . S
C151 O153 1.256 . S
O152 Cd144 2.381 . S
O152 C151 1.258 . S
O153 Cd144 2.378 . S
O153 C151 1.256 . S
O154 Cd155 2.300 1_545 S
O154 C161 1.275 1_545 S
Cd155 O154 2.300 1_565 S
Cd155 O163 2.381 1_565 S
Cd155 O164 2.378 . S
O156 Cd157 2.385 . S
O156 C161 1.255 . S
Cd157 O156 2.385 . S
Cd157 O158 2.317 . S
O158 Cd157 2.317 . S
O158 C159 1.232 . S
C159 O158 1.232 . S
C159 O160 1.218 . S
O160 C159 1.218 . S
C161 O154 1.275 1_565 S
C161 O156 1.255 . S
C162 O163 1.258 1_565 S
C162 O164 1.256 . S
O163 Cd155 2.381 1_545 S
O163 C162 1.258 1_545 S
O164 Cd155 2.378 . S
O164 C162 1.256 . S
O165 Cd166 2.300 1_565 S
O165 C172 1.275 1_565 S
Cd166 O165 2.300 1_545 S
Cd166 O174 2.381 1_545 S
Cd166 O175 2.378 . S
O167 Cd168 2.385 . S
O167 C172 1.255 . S
Cd168 O167 2.385 . S
Cd168 O169 2.317 . S
O169 Cd168 2.317 . S
O169 C170 1.232 . S
C170 O169 1.232 . S
C170 O171 1.218 . S
O171 C170 1.218 . S
C172 O165 1.275 1_545 S
C172 O167 1.255 . S
C173 O174 1.285 . S
C173 O175 1.221 1_565 S
O174 Cd166 2.381 1_565 S
O174 C173 1.285 . S
O175 Cd166 2.378 . S
O175 C173 1.221 1_545 S
O176 Cd177 2.300 . S
O176 C183 1.275 . S
Cd177 O176 2.300 . S
Cd177 O185 2.381 . S
Cd177 O186 2.378 . S
O178 Cd179 2.385 . S
O178 C183 1.255 . S
Cd179 O178 2.385 . S
Cd179 O180 2.317 . S
O180 Cd179 2.317 . S
O180 C181 1.232 . S
C181 O180 1.232 . S
C181 O182 1.218 . S
O182 C181 1.218 . S
C183 O176 1.275 . S
C183 O178 1.255 . S
C184 O185 1.258 . S
C184 O186 1.256 . S
O185 Cd177 2.381 . S
O185 C184 1.258 . S
O186 Cd177 2.378 . S
O186 C184 1.256 . S
O187 Cd188 2.300 1_556 S
O187 C194 1.275 1_556 S
Cd188 O187 2.300 1_554 S
Cd188 O196 2.381 1_554 S
Cd188 O197 2.378 . S
O189 Cd190 2.385 . S
O189 C194 1.255 . S
Cd190 O189 2.385 . S
Cd190 O191 2.317 . S
O191 Cd190 2.317 . S
O191 C192 1.232 . S
C192 O191 1.232 . S
C192 O193 1.218 . S
O193 C192 1.218 . S
C194 O187 1.275 1_554 S
C194 O189 1.255 . S
C195 O196 1.285 . S
C195 O197 1.221 1_556 S
O196 Cd188 2.381 1_556 S
O196 C195 1.285 . S
O197 Cd188 2.378 . S
O197 C195 1.221 1_554 S
O198 Cd199 2.300 . S
O198 C205 1.275 . S
Cd199 O198 2.300 . S
Cd199 O207 2.381 . S
Cd199 O208 2.378 . S
O200 Cd201 2.385 . S
O200 C205 1.255 . S
Cd201 O200 2.385 . S
Cd201 O202 2.317 . S
O202 Cd201 2.317 . S
O202 C203 1.232 . S
C203 O202 1.232 . S
C203 O204 1.218 . S
O204 C203 1.218 . S
C205 O198 1.275 . S
C205 O200 1.255 . S
C206 O207 1.258 . S
C206 O208 1.256 . S
O207 Cd199 2.381 . S
O207 C206 1.258 . S
O208 Cd199 2.378 . S
O208 C206 1.256 . S
O209 Cd210 2.300 1_554 S
O209 C216 1.275 1_554 S
Cd210 O209 2.300 1_556 S
Cd210 O218 2.381 1_556 S
Cd210 O219 2.378 . S
O211 Cd212 2.385 . S
O211 C216 1.255 . S
Cd212 O211 2.385 . S
Cd212 O213 2.317 . S
O213 Cd212 2.317 . S
O213 C214 1.232 . S
C214 O213 1.232 . S
C214 O215 1.218 . S
O215 C214 1.218 . S
C216 O209 1.275 1_556 S
C216 O211 1.255 . S
C217 O218 1.258 1_556 S
C217 O219 1.256 . S
O218 Cd210 2.381 1_554 S
O218 C217 1.258 1_554 S
O219 Cd210 2.378 . S
O219 C217 1.256 . S
O220 Cd221 2.300 . S
O220 C227 1.275 . S
Cd221 O220 2.300 . S
Cd221 O229 2.381 . S
Cd221 O230 2.378 . S
O222 Cd223 2.385 . S
O222 C227 1.255 . S
Cd223 O222 2.385 . S
Cd223 O224 2.317 . S
O224 Cd223 2.317 . S
O224 C225 1.232 . S
C225 O224 1.232 . S
C225 O226 1.218 . S
O226 C225 1.218 . S
C227 O220 1.275 . S
C227 O222 1.255 . S
C228 O229 1.258 . S
C228 O230 1.256 . S
O229 Cd221 2.381 . S
O229 C228 1.258 . S
O230 Cd221 2.378 . S
O230 C228 1.256 . S
O231 Cd232 2.300 1_655 S
O231 C238 1.275 1_655 S
Cd232 O231 2.300 1_455 S
Cd232 O240 2.381 1_455 S
Cd232 O241 2.378 . S
O233 Cd234 2.385 . S
O233 C238 1.255 . S
Cd234 O233 2.385 . S
Cd234 O235 2.317 . S
O235 Cd234 2.317 . S
O235 C236 1.232 . S
C236 O235 1.232 . S
C236 O237 1.218 . S
O237 C236 1.218 . S
C238 O231 1.275 1_455 S
C238 O233 1.255 . S
C239 O240 1.285 . S
C239 O241 1.221 1_655 S
O240 Cd232 2.381 1_655 S
O240 C239 1.285 . S
O241 Cd232 2.378 . S
O241 C239 1.221 1_455 S
O242 Cd243 2.300 . S
O242 C249 1.275 . S
Cd243 O242 2.300 . S
Cd243 O251 2.381 . S
Cd243 O252 2.378 . S
O244 Cd245 2.385 . S
O244 C249 1.255 . S
Cd245 O244 2.385 . S
Cd245 O246 2.317 . S
O246 Cd245 2.317 . S
O246 C247 1.232 . S
C247 O246 1.232 . S
C247 O248 1.218 . S
O248 C247 1.218 . S
C249 O242 1.275 . S
C249 O244 1.255 . S
C250 O251 1.258 . S
C250 O252 1.256 . S
O251 Cd243 2.381 . S
O251 C250 1.258 . S
O252 Cd243 2.378 . S
O252 C250 1.256 . S
O253 Cd254 2.300 1_455 S
O253 C260 1.275 1_455 S
Cd254 O253 2.300 1_655 S
Cd254 O262 2.381 1_655 S
Cd254 O263 2.378 . S
O255 Cd256 2.385 . S
O255 C260 1.255 . S
Cd256 O255 2.385 . S
Cd256 O257 2.317 . S
O257 Cd256 2.317 . S
O257 C258 1.232 . S
C258 O257 1.232 . S
C258 O259 1.218 . S
O259 C258 1.218 . S
C260 O253 1.275 1_655 S
C260 O255 1.255 . S
C261 O262 1.258 1_655 S
C261 O263 1.256 . S
O262 Cd254 2.381 1_455 S
O262 C261 1.258 1_455 S
O263 Cd254 2.378 . S
O263 C261 1.256 . S
C264 N265 1.317 . S
C264 N266 1.348 . S
C264 C267 1.485 . S
N265 C264 1.317 . S
N265 N269 1.370 . S
N266 C264 1.348 . S
N266 C268 1.346 . S
C267 C264 1.485 . S
C267 H271 0.960 . S
C267 H272 0.961 . S
C267 H273 0.960 . S
C268 N266 1.346 . S
C268 N269 1.307 . S
C268 C270 1.486 . S
N269 N265 1.370 . S
N269 C268 1.307 . S
C270 C268 1.486 . S
C270 H274 0.960 . S
C270 H275 0.960 . S
C270 H276 0.959 . S
H271 C267 0.960 . S
H272 C267 0.961 . S
H273 C267 0.960 . S
H274 C270 0.960 . S
H275 C270 0.960 . S
H276 C270 0.959 . S
C277 N278 1.317 . S
C277 N279 1.348 . S
C277 C280 1.485 . S
N278 C277 1.317 . S
N278 N282 1.370 . S
N279 C277 1.348 . S
N279 C281 1.346 . S
C280 C277 1.485 . S
C280 H284 0.960 . S
C280 H285 0.961 . S
C280 H286 0.960 . S
C281 N279 1.346 . S
C281 N282 1.307 . S
C281 C283 1.486 . S
N282 N278 1.370 . S
N282 C281 1.307 . S
C283 C281 1.486 . S
C283 H287 0.960 . S
C283 H288 0.960 . S
C283 H289 0.959 . S
H284 C280 0.960 . S
H285 C280 0.961 . S
H286 C280 0.960 . S
H287 C283 0.960 . S
H288 C283 0.960 . S
H289 C283 0.959 . S
C290 N291 1.317 . S
C290 N292 1.348 . S
C290 C293 1.485 . S
N291 C290 1.317 . S
N291 N295 1.370 . S
N292 C290 1.348 . S
N292 C294 1.346 . S
C293 C290 1.485 . S
C293 H297 0.960 . S
C293 H298 0.961 . S
C293 H299 0.960 . S
C294 N292 1.346 . S
C294 N295 1.307 . S
C294 C296 1.486 . S
N295 N291 1.370 . S
N295 C294 1.307 . S
C296 C294 1.486 . S
C296 H300 0.960 . S
C296 H301 0.960 . S
C296 H302 0.959 . S
H297 C293 0.960 . S
H298 C293 0.961 . S
H299 C293 0.960 . S
H300 C296 0.960 . S
H301 C296 0.960 . S
H302 C296 0.959 . S
C303 N304 1.317 . S
C303 N305 1.348 . S
C303 C306 1.485 1_554 S
N304 C303 1.317 . S
N304 N308 1.370 . S
N305 C303 1.348 . S
N305 C307 1.346 . S
C306 C303 1.485 1_556 S
C306 H310 0.960 . S
C306 H311 0.961 . S
C306 H312 0.960 . S
C307 N305 1.346 . S
C307 N308 1.307 . S
C307 C309 1.486 . S
N308 N304 1.370 . S
N308 C307 1.307 . S
C309 C307 1.486 . S
C309 H313 0.960 . S
C309 H314 0.960 . S
C309 H315 0.959 . S
H310 C306 0.960 . S
H311 C306 0.961 . S
H312 C306 0.960 . S
H313 C309 0.960 . S
H314 C309 0.960 . S
H315 C309 0.959 . S
C316 N317 1.317 . S
C316 N318 1.348 . S
C316 C319 1.485 . S
N317 C316 1.317 . S
N317 N321 1.370 . S
N318 C316 1.348 . S
N318 C320 1.346 . S
C319 C316 1.485 . S
C319 H323 0.960 . S
C319 H324 0.961 . S
C319 H325 0.960 . S
C320 N318 1.346 . S
C320 N321 1.307 . S
C320 C322 1.486 . S
N321 N317 1.370 . S
N321 C320 1.307 . S
C322 C320 1.486 . S
C322 H326 0.960 . S
C322 H327 0.960 . S
C322 H328 0.959 . S
H323 C319 0.960 . S
H324 C319 0.961 . S
H325 C319 0.960 . S
H326 C322 0.960 . S
H327 C322 0.960 . S
H328 C322 0.959 . S
C329 N330 1.317 . S
C329 N331 1.348 . S
C329 C332 1.485 1_455 S
N330 C329 1.317 . S
N330 N334 1.370 . S
N331 C329 1.348 . S
N331 C333 1.346 . S
C332 C329 1.485 1_655 S
C332 H336 0.960 . S
C332 H337 0.961 . S
C332 H338 0.960 . S
C333 N331 1.346 . S
C333 N334 1.307 . S
C333 C335 1.486 . S
N334 N330 1.370 . S
N334 C333 1.307 . S
C335 C333 1.486 . S
C335 H339 0.960 . S
C335 H340 0.960 . S
C335 H341 0.959 . S
H336 C332 0.960 . S
H337 C332 0.961 . S
H338 C332 0.960 . S
H339 C335 0.960 . S
H340 C335 0.960 . S
H341 C335 0.959 . S
C342 N343 1.317 . S
C342 N344 1.348 . S
C342 C345 1.485 . S
N343 C342 1.317 . S
N343 N347 1.370 . S
N344 C342 1.348 . S
N344 C346 1.346 . S
C345 C342 1.485 . S
C345 H349 0.960 . S
C345 H350 0.961 . S
C345 H351 0.960 . S
C346 N344 1.346 . S
C346 N347 1.307 . S
C346 C348 1.486 . S
N347 N343 1.370 . S
N347 C346 1.307 . S
C348 C346 1.486 . S
C348 H352 0.960 . S
C348 H353 0.960 . S
C348 H354 0.959 . S
H349 C345 0.960 . S
H350 C345 0.961 . S
H351 C345 0.960 . S
H352 C348 0.960 . S
H353 C348 0.960 . S
H354 C348 0.959 . S
C355 N356 1.317 . S
C355 N357 1.348 . S
C355 C358 1.485 . S
N356 C355 1.317 . S
N356 N360 1.370 . S
N357 C355 1.348 . S
N357 C359 1.346 . S
C358 C355 1.485 . S
C358 H362 0.960 . S
C358 H363 0.961 . S
C358 H364 0.960 . S
C359 N357 1.346 . S
C359 N360 1.307 . S
C359 C361 1.486 . S
N360 N356 1.370 . S
N360 C359 1.307 . S
C361 C359 1.486 . S
C361 H365 0.960 . S
C361 H366 0.960 . S
C361 H367 0.959 . S
H362 C358 0.960 . S
H363 C358 0.961 . S
H364 C358 0.960 . S
H365 C361 0.960 . S
H366 C361 0.960 . S
H367 C361 0.959 . S
C368 N369 1.317 . S
C368 N370 1.348 . S
C368 C371 1.485 . S
N369 C368 1.317 . S
N369 N373 1.370 . S
N370 C368 1.348 . S
N370 C372 1.346 . S
C371 C368 1.485 . S
C371 H375 0.960 . S
C371 H376 0.961 . S
C371 H377 0.960 . S
C372 N370 1.346 . S
C372 N373 1.307 . S
C372 C374 1.486 . S
N373 N369 1.370 . S
N373 C372 1.307 . S
C374 C372 1.486 . S
C374 H378 0.960 . S
C374 H379 0.960 . S
C374 H380 0.959 . S
H375 C371 0.960 . S
H376 C371 0.961 . S
H377 C371 0.960 . S
H378 C374 0.960 . S
H379 C374 0.960 . S
H380 C374 0.959 . S
C381 N382 1.317 . S
C381 N383 1.348 . S
C381 C384 1.485 1_545 S
N382 C381 1.317 . S
N382 N386 1.370 . S
N383 C381 1.348 . S
N383 C385 1.346 . S
C384 C381 1.485 1_565 S
C384 H388 0.960 . S
C384 H389 0.961 . S
C384 H390 0.960 . S
C385 N383 1.346 . S
C385 N386 1.307 . S
C385 C387 1.486 . S
N386 N382 1.370 . S
N386 C385 1.307 . S
C387 C385 1.486 . S
C387 H391 0.960 . S
C387 H392 0.960 . S
C387 H393 0.959 . S
H388 C384 0.960 . S
H389 C384 0.961 . S
H390 C384 0.960 . S
H391 C387 0.960 . S
H392 C387 0.960 . S
H393 C387 0.959 . S
C394 N395 1.317 . S
C394 N396 1.348 . S
C394 C397 1.485 . S
N395 C394 1.317 . S
N395 N399 1.370 . S
N396 C394 1.348 . S
N396 C398 1.346 . S
C397 C394 1.485 . S
C397 H401 0.960 . S
C397 H402 0.961 . S
C397 H403 0.960 . S
C398 N396 1.346 . S
C398 N399 1.307 . S
C398 C400 1.486 . S
N399 N395 1.370 . S
N399 C398 1.307 . S
C400 C398 1.486 . S
C400 H404 0.960 . S
C400 H405 0.960 . S
C400 H406 0.959 . S
H401 C397 0.960 . S
H402 C397 0.961 . S
H403 C397 0.960 . S
H404 C400 0.960 . S
H405 C400 0.960 . S
H406 C400 0.959 . S
C407 N408 1.317 . S
C407 N409 1.348 . S
C407 C410 1.485 . S
N408 C407 1.317 . S
N408 N412 1.370 . S
N409 C407 1.348 . S
N409 C411 1.346 . S
C410 C407 1.485 . S
C410 H414 0.960 . S
C410 H415 0.961 . S
C410 H416 0.960 . S
C411 N409 1.346 . S
C411 N412 1.307 . S
C411 C413 1.486 . S
N412 N408 1.370 . S
N412 C411 1.307 . S
C413 C411 1.486 . S
C413 H417 0.960 . S
C413 H418 0.960 . S
C413 H419 0.959 . S
H414 C410 0.960 . S
H415 C410 0.961 . S
H416 C410 0.960 . S
H417 C413 0.960 . S
H418 C413 0.960 . S
H419 C413 0.959 . S
C420 N421 1.317 . S
C420 N422 1.348 . S
C420 C423 1.485 . S
N421 C420 1.317 . S
N421 N425 1.370 . S
N422 C420 1.348 . S
N422 C424 1.346 . S
C423 C420 1.485 . S
C423 H427 0.960 . S
C423 H428 0.961 . S
C423 H429 0.960 . S
C424 N422 1.346 . S
C424 N425 1.307 . S
C424 C426 1.486 . S
N425 N421 1.370 . S
N425 C424 1.307 . S
C426 C424 1.486 . S
C426 H430 0.960 . S
C426 H431 0.960 . S
C426 H432 0.959 . S
H427 C423 0.960 . S
H428 C423 0.961 . S
H429 C423 0.960 . S
H430 C426 0.960 . S
H431 C426 0.960 . S
H432 C426 0.959 . S
C433 N434 1.317 . S
C433 N435 1.348 . S
C433 C436 1.485 . S
N434 C433 1.317 . S
N434 N438 1.370 . S
N435 C433 1.348 . S
N435 C437 1.346 . S
C436 C433 1.485 . S
C436 H440 0.960 . S
C436 H441 0.961 . S
C436 H442 0.960 . S
C437 N435 1.346 . S
C437 N438 1.307 . S
C437 C439 1.486 . S
N438 N434 1.370 . S
N438 C437 1.307 . S
C439 C437 1.486 . S
C439 H443 0.960 . S
C439 H444 0.960 . S
C439 H445 0.959 . S
H440 C436 0.960 . S
H441 C436 0.961 . S
H442 C436 0.960 . S
H443 C439 0.960 . S
H444 C439 0.960 . S
H445 C439 0.959 . S
C446 N447 1.317 . S
C446 N448 1.348 . S
C446 C449 1.485 . S
N447 C446 1.317 . S
N447 N451 1.370 . S
N448 C446 1.348 . S
N448 C450 1.346 . S
C449 C446 1.485 . S
C449 H453 0.960 . S
C449 H454 0.961 . S
C449 H455 0.960 . S
C450 N448 1.346 . S
C450 N451 1.307 . S
C450 C452 1.486 . S
N451 N447 1.370 . S
N451 C450 1.307 . S
C452 C450 1.486 . S
C452 H456 0.960 . S
C452 H457 0.960 . S
C452 H458 0.959 . S
H453 C449 0.960 . S
H454 C449 0.961 . S
H455 C449 0.960 . S
H456 C452 0.960 . S
H457 C452 0.960 . S
H458 C452 0.959 . S
C459 N460 1.317 . S
C459 N461 1.348 . S
C459 C462 1.485 1_556 S
N460 C459 1.317 . S
N460 N464 1.370 . S
N461 C459 1.348 . S
N461 C463 1.346 . S
C462 C459 1.485 1_554 S
C462 H466 0.960 . S
C462 H467 0.961 . S
C462 H468 0.960 . S
C463 N461 1.346 . S
C463 N464 1.307 . S
C463 C465 1.486 . S
N464 N460 1.370 . S
N464 C463 1.307 . S
C465 C463 1.486 . S
C465 H469 0.960 . S
C465 H470 0.960 . S
C465 H471 0.959 . S
H466 C462 0.960 . S
H467 C462 0.961 . S
H468 C462 0.960 . S
H469 C465 0.960 . S
H470 C465 0.960 . S
H471 C465 0.959 . S
C472 N473 1.317 . S
C472 N474 1.348 . S
C472 C475 1.485 . S
N473 C472 1.317 . S
N473 N477 1.370 . S
N474 C472 1.348 . S
N474 C476 1.346 . S
C475 C472 1.485 . S
C475 H479 0.960 . S
C475 H480 0.961 . S
C475 H481 0.960 . S
C476 N474 1.346 . S
C476 N477 1.307 . S
C476 C478 1.486 . S
N477 N473 1.370 . S
N477 C476 1.307 . S
C478 C476 1.486 . S
C478 H482 0.960 . S
C478 H483 0.960 . S
C478 H484 0.959 . S
H479 C475 0.960 . S
H480 C475 0.961 . S
H481 C475 0.960 . S
H482 C478 0.960 . S
H483 C478 0.960 . S
H484 C478 0.959 . S
C485 N486 1.317 . S
C485 N487 1.348 . S
C485 C488 1.485 1_655 S
N486 C485 1.317 . S
N486 N490 1.370 . S
N487 C485 1.348 . S
N487 C489 1.346 . S
C488 C485 1.485 1_455 S
C488 H492 0.960 . S
C488 H493 0.961 . S
C488 H494 0.960 . S
C489 N487 1.346 . S
C489 N490 1.307 . S
C489 C491 1.486 . S
N490 N486 1.370 . S
N490 C489 1.307 . S
C491 C489 1.486 . S
C491 H495 0.960 . S
C491 H496 0.960 . S
C491 H497 0.959 . S
H492 C488 0.960 . S
H493 C488 0.961 . S
H494 C488 0.960 . S
H495 C491 0.960 . S
H496 C491 0.960 . S
H497 C491 0.959 . S
C498 N499 1.317 . S
C498 N500 1.348 . S
C498 C501 1.485 . S
N499 C498 1.317 . S
N499 N503 1.370 . S
N500 C498 1.348 . S
N500 C502 1.346 . S
C501 C498 1.485 . S
C501 H505 0.960 . S
C501 H506 0.961 . S
C501 H507 0.960 . S
C502 N500 1.346 . S
C502 N503 1.307 . S
C502 C504 1.486 . S
N503 N499 1.370 . S
N503 C502 1.307 . S
C504 C502 1.486 . S
C504 H508 0.960 . S
C504 H509 0.960 . S
C504 H510 0.959 . S
H505 C501 0.960 . S
H506 C501 0.961 . S
H507 C501 0.960 . S
H508 C504 0.960 . S
H509 C504 0.960 . S
H510 C504 0.959 . S
C511 N512 1.317 . S
C511 N513 1.348 . S
C511 C514 1.485 . S
N512 C511 1.317 . S
N512 N516 1.370 . S
N513 C511 1.348 . S
N513 C515 1.346 . S
C514 C511 1.485 . S
C514 H518 0.960 . S
C514 H519 0.961 . S
C514 H520 0.960 . S
C515 N513 1.346 . S
C515 N516 1.307 . S
C515 C517 1.486 . S
N516 N512 1.370 . S
N516 C515 1.307 . S
C517 C515 1.486 . S
C517 H521 0.960 . S
C517 H522 0.960 . S
C517 H523 0.959 . S
H518 C514 0.960 . S
H519 C514 0.961 . S
H520 C514 0.960 . S
H521 C517 0.960 . S
H522 C517 0.960 . S
H523 C517 0.959 . S
C524 N525 1.317 . S
C524 N526 1.348 . S
C524 C527 1.485 . S
N525 C524 1.317 . S
N525 N529 1.370 . S
N526 C524 1.348 . S
N526 C528 1.346 . S
C527 C524 1.485 . S
C527 H531 0.960 . S
C527 H532 0.961 . S
C527 H533 0.960 . S
C528 N526 1.346 . S
C528 N529 1.307 . S
C528 C530 1.486 . S
N529 N525 1.370 . S
N529 C528 1.307 . S
C530 C528 1.486 . S
C530 H534 0.960 . S
C530 H535 0.960 . S
C530 H536 0.959 . S
H531 C527 0.960 . S
H532 C527 0.961 . S
H533 C527 0.960 . S
H534 C530 0.960 . S
H535 C530 0.960 . S
H536 C530 0.959 . S
C537 N538 1.317 . S
C537 N539 1.348 . S
C537 C540 1.485 1_565 S
N538 C537 1.317 . S
N538 N542 1.370 . S
N539 C537 1.348 . S
N539 C541 1.346 . S
C540 C537 1.485 1_545 S
C540 H544 0.960 . S
C540 H545 0.961 . S
C540 H546 0.960 . S
C541 N539 1.346 . S
C541 N542 1.307 . S
C541 C543 1.486 . S
N542 N538 1.370 . S
N542 C541 1.307 . S
C543 C541 1.486 . S
C543 H547 0.960 . S
C543 H548 0.960 . S
C543 H549 0.959 . S
H544 C540 0.960 . S
H545 C540 0.961 . S
H546 C540 0.960 . S
H547 C543 0.960 . S
H548 C543 0.960 . S
H549 C543 0.959 . S
C550 N551 1.317 . S
C550 N552 1.348 . S
C550 C553 1.485 . S
N551 C550 1.317 . S
N551 N555 1.370 . S
N552 C550 1.348 . S
N552 C554 1.346 . S
C553 C550 1.485 . S
C553 H557 0.960 . S
C553 H558 0.961 . S
C553 H559 0.960 . S
C554 N552 1.346 . S
C554 N555 1.307 . S
C554 C556 1.486 . S
N555 N551 1.370 . S
N555 C554 1.307 . S
C556 C554 1.486 . S
C556 H560 0.960 . S
C556 H561 0.960 . S
C556 H562 0.959 . S
H557 C553 0.960 . S
H558 C553 0.961 . S
H559 C553 0.960 . S
H560 C556 0.960 . S
H561 C556 0.960 . S
H562 C556 0.959 . S
C563 N564 1.317 . S
C563 N565 1.348 . S
C563 C566 1.485 . S
N564 C563 1.317 . S
N564 N568 1.370 . S
N565 C563 1.348 . S
N565 C567 1.346 . S
C566 C563 1.485 . S
C566 H570 0.960 . S
C566 H571 0.961 . S
C566 H572 0.960 . S
C567 N565 1.346 . S
C567 N568 1.307 . S
C567 C569 1.486 . S
N568 N564 1.370 . S
N568 C567 1.307 . S
C569 C567 1.486 . S
C569 H573 0.960 . S
C569 H574 0.960 . S
C569 H575 0.959 . S
H570 C566 0.960 . S
H571 C566 0.961 . S
H572 C566 0.960 . S
H573 C569 0.960 . S
H574 C569 0.960 . S
H575 C569 0.959 . S
H576 C584 0.929 . S
H577 C586 0.930 . S
H578 C588 0.930 . S
H579 C591 0.929 . S
H580 C594 0.930 . S
H581 C596 0.960 . S
H582 C596 0.960 . S
H583 C596 0.960 . S
C584 H576 0.929 . S
C584 C585 1.377 . S
C584 C586 1.384 . S
C585 C584 1.377 . S
C585 C591 1.390 . S
C586 H577 0.930 . S
C586 C584 1.384 . S
C586 C587 1.372 . S
C587 C586 1.372 . S
C587 C588 1.400 . S
C587 C592 1.490 . S
C588 H578 0.930 . S
C588 C587 1.400 . S
C588 C591 1.386 . S
H589 C605 0.930 . S
H590 C606 0.931 . S
C591 H579 0.929 . S
C591 C585 1.390 . S
C591 C588 1.386 . S
C592 C587 1.490 . S
C592 C594 1.395 . S
C592 C595 1.403 . S
H593 C599 0.930 . S
C594 H580 0.930 . S
C594 C592 1.395 . S
C594 C597 1.403 . S
C595 C592 1.403 . S
C595 C596 1.524 . S
C595 C599 1.400 . S
C596 H581 0.960 . S
C596 H582 0.960 . S
C596 H583 0.960 . S
C596 C595 1.524 . S
C597 C594 1.403 . S
C597 C598 1.392 . S
C597 C601 1.495 . S
C598 C597 1.392 . S
C598 C599 1.385 . S
C598 C600 1.478 . S
C599 H593 0.930 . S
C599 C595 1.400 . S
C599 C598 1.385 . S
C600 C598 1.478 . S
C600 C602 1.381 . S
C600 C606 1.383 . S
C601 C597 1.495 . S
C601 H607 0.959 . S
C601 H608 0.961 . S
C601 H609 0.960 . S
C602 C600 1.381 . S
C602 C603 1.394 . S
C602 H610 0.930 . S
C603 C602 1.394 . S
C603 C604 1.383 . S
C603 H611 0.929 . S
C604 C603 1.383 . S
C604 C605 1.377 . S
C605 H589 0.930 . S
C605 C604 1.377 . S
C605 C606 1.379 . S
C606 H590 0.931 . S
C606 C600 1.383 . S
C606 C605 1.379 . S
H607 C601 0.959 . S
H608 C601 0.961 . S
H609 C601 0.960 . S
H610 C602 0.930 . S
H611 C603 0.929 . S
H612 C620 0.929 . S
H613 C622 0.930 . S
H614 C624 0.930 . S
H615 C627 0.929 . S
H616 C630 0.930 . S
H617 C632 0.960 . S
H618 C632 0.960 . S
H619 C632 0.960 . S
C620 H612 0.929 . S
C620 C621 1.377 . S
C620 C622 1.384 . S
C621 C620 1.377 . S
C621 C627 1.390 . S
C622 H613 0.930 . S
C622 C620 1.384 . S
C622 C623 1.372 . S
C623 C622 1.372 . S
C623 C624 1.400 . S
C623 C628 1.490 . S
C624 H614 0.930 . S
C624 C623 1.400 . S
C624 C627 1.386 . S
H625 C641 0.930 . S
H626 C642 0.931 . S
C627 H615 0.929 . S
C627 C621 1.390 . S
C627 C624 1.386 . S
C628 C623 1.490 . S
C628 C630 1.395 . S
C628 C631 1.403 . S
H629 C635 0.930 . S
C630 H616 0.930 . S
C630 C628 1.395 . S
C630 C633 1.403 . S
C631 C628 1.403 . S
C631 C632 1.524 . S
C631 C635 1.400 . S
C632 H617 0.960 . S
C632 H618 0.960 . S
C632 H619 0.960 . S
C632 C631 1.524 . S
C633 C630 1.403 . S
C633 C634 1.392 . S
C633 C637 1.495 . S
C634 C633 1.392 . S
C634 C635 1.385 . S
C634 C636 1.478 . S
C635 H629 0.930 . S
C635 C631 1.400 . S
C635 C634 1.385 . S
C636 C634 1.478 . S
C636 C638 1.381 . S
C636 C642 1.383 . S
C637 C633 1.495 . S
C637 H643 0.959 . S
C637 H644 0.961 . S
C637 H645 0.960 . S
C638 C636 1.381 . S
C638 C639 1.394 . S
C638 H646 0.930 . S
C639 C638 1.394 . S
C639 C640 1.383 . S
C639 H647 0.929 . S
C640 C639 1.383 . S
C640 C641 1.377 . S
C641 H625 0.930 . S
C641 C640 1.377 . S
C641 C642 1.379 . S
C642 H626 0.931 . S
C642 C636 1.383 . S
C642 C641 1.379 . S
H643 C637 0.959 . S
H644 C637 0.961 . S
H645 C637 0.960 . S
H646 C638 0.930 . S
H647 C639 0.929 . S
H648 C656 0.929 . S
H649 C658 0.930 . S
H650 C660 0.930 . S
H651 C663 0.929 . S
H652 C666 0.930 1_565 S
H653 C668 0.960 . S
H654 C668 0.960 . S
H655 C668 0.960 . S
C656 H648 0.929 . S
C656 C657 1.377 . S
C656 C658 1.384 . S
C657 C656 1.377 . S
C657 C663 1.390 . S
C658 H649 0.930 . S
C658 C656 1.384 . S
C658 C659 1.372 . S
C659 C658 1.372 . S
C659 C660 1.400 . S
C659 C664 1.490 . S
C660 H650 0.930 . S
C660 C659 1.400 . S
C660 C663 1.386 . S
H661 C677 0.930 . S
H662 C678 0.931 . S
C663 H651 0.929 . S
C663 C657 1.390 . S
C663 C660 1.386 . S
C664 C659 1.490 . S
C664 C666 1.395 . S
C664 C667 1.403 . S
H665 C671 0.930 . S
C666 H652 0.930 1_545 S
C666 C664 1.395 . S
C666 C669 1.403 . S
C667 C664 1.403 . S
C667 C668 1.524 . S
C667 C671 1.400 . S
C668 H653 0.960 . S
C668 H654 0.960 . S
C668 H655 0.960 . S
C668 C667 1.524 . S
C669 C666 1.403 . S
C669 C670 1.392 . S
C669 C673 1.495 1_545 S
C670 C669 1.392 . S
C670 C671 1.385 . S
C670 C672 1.478 . S
C671 H665 0.930 . S
C671 C667 1.400 . S
C671 C670 1.385 . S
C672 C670 1.478 . S
C672 C674 1.381 . S
C672 C678 1.383 . S
C673 C669 1.495 1_565 S
C673 H679 0.959 . S
C673 H680 0.961 . S
C673 H681 0.960 . S
C674 C672 1.381 . S
C674 C675 1.394 . S
C674 H682 0.930 . S
C675 C674 1.394 . S
C675 C676 1.383 . S
C675 H683 0.929 . S
C676 C675 1.383 . S
C676 C677 1.377 . S
C677 H661 0.930 . S
C677 C676 1.377 . S
C677 C678 1.379 . S
C678 H662 0.931 . S
C678 C672 1.383 . S
C678 C677 1.379 . S
H679 C673 0.959 . S
H680 C673 0.961 . S
H681 C673 0.960 . S
H682 C674 0.930 . S
H683 C675 0.929 . S
H684 C692 0.929 . S
H685 C694 0.930 . S
H686 C696 0.930 . S
H687 C699 0.929 . S
H688 C702 0.930 . S
H689 C704 0.960 . S
H690 C704 0.960 . S
H691 C704 0.960 . S
C692 H684 0.929 . S
C692 C693 1.377 1_565 S
C692 C694 1.384 . S
C693 C692 1.377 1_545 S
C693 C699 1.390 . S
C694 H685 0.930 . S
C694 C692 1.384 . S
C694 C695 1.372 . S
C695 C694 1.372 . S
C695 C696 1.400 1_565 S
C695 C700 1.490 . S
C696 H686 0.930 . S
C696 C695 1.400 1_545 S
C696 C699 1.386 . S
H697 C713 0.930 . S
H698 C714 0.931 1_545 S
C699 H687 0.929 . S
C699 C693 1.390 . S
C699 C696 1.386 . S
C700 C695 1.490 . S
C700 C702 1.395 . S
C700 C703 1.397 1_565 S
H701 C707 0.930 1_545 S
C702 H688 0.930 . S
C702 C700 1.395 . S
C702 C705 1.403 . S
C703 C700 1.397 1_545 S
C703 C704 1.533 . S
C703 C707 1.396 1_545 S
C704 H689 0.960 . S
C704 H690 0.960 . S
C704 H691 0.960 . S
C704 C703 1.533 . S
C705 C702 1.403 . S
C705 C706 1.392 . S
C705 C709 1.495 . S
C706 C705 1.392 . S
C706 C707 1.385 . S
C706 C708 1.478 . S
C707 H701 0.930 1_565 S
C707 C703 1.396 1_565 S
C707 C706 1.385 . S
C708 C706 1.478 . S
C708 C710 1.381 1_655 S
C708 C714 1.383 1_655 S
C709 C705 1.495 . S
C709 H715 0.959 . S
C709 H716 0.961 . S
C709 H717 0.960 . S
C710 C708 1.381 1_455 S
C710 C711 1.394 . S
C710 H718 0.930 1_455 S
C711 C710 1.394 . S
C711 C712 1.383 . S
C711 H719 0.929 . S
C712 C711 1.383 . S
C712 C713 1.377 . S
C713 H697 0.930 . S
C713 C712 1.377 . S
C713 C714 1.379 . S
C714 H698 0.931 1_565 S
C714 C708 1.383 1_455 S
C714 C713 1.379 . S
H715 C709 0.959 . S
H716 C709 0.961 . S
H717 C709 0.960 . S
H718 C710 0.930 1_655 S
H719 C711 0.929 . S
H720 C728 0.929 . S
H721 C730 0.930 . S
H722 C732 0.930 . S
H723 C735 0.929 . S
H724 C738 0.930 . S
H725 C740 0.960 . S
H726 C740 0.960 . S
H727 C740 0.960 . S
C728 H720 0.929 . S
C728 C729 1.377 . S
C728 C730 1.384 . S
C729 C728 1.377 . S
C729 C735 1.390 . S
C730 H721 0.930 . S
C730 C728 1.384 . S
C730 C731 1.372 . S
C731 C730 1.372 . S
C731 C732 1.400 . S
C731 C736 1.490 . S
C732 H722 0.930 . S
C732 C731 1.400 . S
C732 C735 1.386 . S
H733 C749 0.930 . S
H734 C750 0.931 . S
C735 H723 0.929 . S
C735 C729 1.390 . S
C735 C732 1.386 . S
C736 C731 1.490 . S
C736 C738 1.395 . S
C736 C739 1.403 . S
H737 C743 0.930 . S
C738 H724 0.930 . S
C738 C736 1.395 . S
C738 C741 1.403 . S
C739 C736 1.403 . S
C739 C740 1.524 . S
C739 C743 1.400 . S
C740 H725 0.960 . S
C740 H726 0.960 . S
C740 H727 0.960 . S
C740 C739 1.524 . S
C741 C738 1.403 . S
C741 C742 1.392 . S
C741 C745 1.495 . S
C742 C741 1.392 . S
C742 C743 1.385 . S
C742 C744 1.478 . S
C743 H737 0.930 . S
C743 C739 1.400 . S
C743 C742 1.385 . S
C744 C742 1.478 . S
C744 C746 1.381 . S
C744 C750 1.383 . S
C745 C741 1.495 . S
C745 H751 0.959 . S
C745 H752 0.961 . S
C745 H753 0.960 . S
C746 C744 1.381 . S
C746 C747 1.394 . S
C746 H754 0.930 . S
C747 C746 1.394 . S
C747 C748 1.383 . S
C747 H755 0.929 . S
C748 C747 1.383 . S
C748 C749 1.377 . S
C749 H733 0.930 . S
C749 C748 1.377 . S
C749 C750 1.379 . S
C750 H734 0.931 . S
C750 C744 1.383 . S
C750 C749 1.379 . S
H751 C745 0.959 . S
H752 C745 0.961 . S
H753 C745 0.960 . S
H754 C746 0.930 . S
H755 C747 0.929 . S
H756 C764 0.929 . S
H757 C766 0.930 . S
H758 C768 0.930 . S
H759 C771 0.929 . S
H760 C774 0.930 . S
H761 C776 0.960 . S
H762 C776 0.960 . S
H763 C776 0.960 . S
C764 H756 0.929 . S
C764 C765 1.377 . S
C764 C766 1.384 . S
C765 C764 1.377 . S
C765 C771 1.390 1_554 S
C766 H757 0.930 . S
C766 C764 1.384 . S
C766 C767 1.372 1_554 S
C767 C766 1.372 1_556 S
C767 C768 1.400 . S
C767 C772 1.490 . S
C768 H758 0.930 . S
C768 C767 1.400 . S
C768 C771 1.386 . S
H769 C785 0.930 . S
H770 C786 0.931 1_565 S
C771 H759 0.929 . S
C771 C765 1.390 1_556 S
C771 C768 1.386 . S
C772 C767 1.490 . S
C772 C774 1.395 1_556 S
C772 C775 1.403 . S
H773 C779 0.930 . S
C774 H760 0.930 . S
C774 C772 1.395 1_554 S
C774 C777 1.403 . S
C775 C772 1.403 . S
C775 C776 1.524 . S
C775 C779 1.400 . S
C776 H761 0.960 . S
C776 H762 0.960 . S
C776 H763 0.960 . S
C776 C775 1.524 . S
C777 C774 1.403 . S
C777 C778 1.392 1_554 S
C777 C781 1.495 . S
C778 C777 1.392 1_556 S
C778 C779 1.385 . S
C778 C780 1.475 . S
C779 H773 0.930 . S
C779 C775 1.400 . S
C779 C778 1.385 . S
C780 C778 1.475 . S
C780 C782 1.383 1_565 S
C780 C786 1.383 1_565 S
C781 C777 1.495 . S
C781 H787 0.959 . S
C781 H788 0.961 . S
C781 H789 0.960 . S
C782 C780 1.383 1_545 S
C782 C783 1.394 . S
C782 H790 0.930 1_556 S
C783 C782 1.394 . S
C783 C784 1.383 . S
C783 H791 0.929 . S
C784 C783 1.383 . S
C784 C785 1.377 . S
C785 H769 0.930 . S
C785 C784 1.377 . S
C785 C786 1.379 . S
C786 H770 0.931 1_545 S
C786 C780 1.383 1_545 S
C786 C785 1.379 . S
H787 C781 0.959 . S
H788 C781 0.961 . S
H789 C781 0.960 . S
H790 C782 0.930 1_554 S
H791 C783 0.929 . S
H792 C800 0.929 . S
H793 C802 0.930 . S
H794 C804 0.930 . S
H795 C807 0.929 . S
H796 C810 0.930 . S
H797 C812 0.960 . S
H798 C812 0.960 . S
H799 C812 0.960 . S
C800 H792 0.929 . S
C800 C801 1.377 . S
C800 C802 1.384 . S
C801 C800 1.377 . S
C801 C807 1.390 . S
C802 H793 0.930 . S
C802 C800 1.384 . S
C802 C803 1.372 . S
C803 C802 1.372 . S
C803 C804 1.400 . S
C803 C808 1.490 . S
C804 H794 0.930 . S
C804 C803 1.400 . S
C804 C807 1.386 . S
H805 C821 0.930 . S
H806 C822 0.931 . S
C807 H795 0.929 . S
C807 C801 1.390 . S
C807 C804 1.386 . S
C808 C803 1.490 . S
C808 C810 1.395 . S
C808 C811 1.403 . S
H809 C815 0.930 . S
C810 H796 0.930 . S
C810 C808 1.395 . S
C810 C813 1.403 . S
C811 C808 1.403 . S
C811 C812 1.524 . S
C811 C815 1.400 . S
C812 H797 0.960 . S
C812 H798 0.960 . S
C812 H799 0.960 . S
C812 C811 1.524 . S
C813 C810 1.403 . S
C813 C814 1.392 . S
C813 C817 1.495 . S
C814 C813 1.392 . S
C814 C815 1.385 . S
C814 C816 1.478 . S
C815 H809 0.930 . S
C815 C811 1.400 . S
C815 C814 1.385 . S
C816 C814 1.478 . S
C816 C818 1.381 . S
C816 C822 1.383 . S
C817 C813 1.495 . S
C817 H823 0.959 . S
C817 H824 0.961 . S
C817 H825 0.960 . S
C818 C816 1.381 . S
C818 C819 1.394 . S
C818 H826 0.930 . S
C819 C818 1.394 . S
C819 C820 1.383 . S
C819 H827 0.929 . S
C820 C819 1.383 . S
C820 C821 1.377 . S
C821 H805 0.930 . S
C821 C820 1.377 . S
C821 C822 1.379 . S
C822 H806 0.931 . S
C822 C816 1.383 . S
C822 C821 1.379 . S
H823 C817 0.959 . S
H824 C817 0.961 . S
H825 C817 0.960 . S
H826 C818 0.930 . S
H827 C819 0.929 . S
H828 C836 0.929 . S
H829 C838 0.930 1_556 S
H830 C840 0.930 . S
H831 C843 0.929 . S
H832 C846 0.930 . S
H833 C848 0.960 . S
H834 C848 0.960 . S
H835 C848 0.960 1_554 S
C836 H828 0.929 . S
C836 C837 1.377 1_556 S
C836 C838 1.384 1_556 S
C837 C836 1.377 1_554 S
C837 C843 1.390 . S
C838 H829 0.930 1_554 S
C838 C836 1.384 1_554 S
C838 C839 1.372 . S
C839 C838 1.372 . S
C839 C840 1.400 . S
C839 C844 1.490 . S
C840 H830 0.930 . S
C840 C839 1.400 . S
C840 C843 1.386 . S
H841 C857 0.930 . S
H842 C858 0.931 . S
C843 H831 0.929 . S
C843 C837 1.390 . S
C843 C840 1.386 . S
C844 C839 1.490 . S
C844 C846 1.395 . S
C844 C847 1.403 . S
H845 C851 0.930 . S
C846 H832 0.930 . S
C846 C844 1.395 . S
C846 C849 1.403 . S
C847 C844 1.403 . S
C847 C848 1.524 1_554 S
C847 C851 1.400 . S
C848 H833 0.960 . S
C848 H834 0.960 . S
C848 H835 0.960 1_556 S
C848 C847 1.524 1_556 S
C849 C846 1.403 . S
C849 C850 1.392 . S
C849 C853 1.495 . S
C850 C849 1.392 . S
C850 C851 1.385 . S
C850 C852 1.478 . S
C851 H845 0.930 . S
C851 C847 1.400 . S
C851 C850 1.385 . S
C852 C850 1.478 . S
C852 C854 1.381 . S
C852 C858 1.383 . S
C853 C849 1.495 . S
C853 H859 0.959 . S
C853 H860 0.961 . S
C853 H861 0.960 . S
C854 C852 1.381 . S
C854 C855 1.394 . S
C854 H862 0.930 . S
C855 C854 1.394 . S
C855 C856 1.383 . S
C855 H863 0.929 . S
C856 C855 1.383 . S
C856 C857 1.377 . S
C857 H841 0.930 . S
C857 C856 1.377 . S
C857 C858 1.379 . S
C858 H842 0.931 . S
C858 C852 1.383 . S
C858 C857 1.379 . S
H859 C853 0.959 . S
H860 C853 0.961 . S
H861 C853 0.960 . S
H862 C854 0.930 . S
H863 C855 0.929 . S
H864 C872 0.929 . S
H865 C874 0.930 . S
H866 C876 0.930 . S
H867 C879 0.929 . S
H868 C882 0.930 . S
H869 C884 0.960 . S
H870 C884 0.960 . S
H871 C884 0.960 . S
C872 H864 0.929 . S
C872 C873 1.377 . S
C872 C874 1.384 . S
C873 C872 1.377 . S
C873 C879 1.390 . S
C874 H865 0.930 . S
C874 C872 1.384 . S
C874 C875 1.372 . S
C875 C874 1.372 . S
C875 C876 1.400 . S
C875 C880 1.490 . S
C876 H866 0.930 . S
C876 C875 1.400 . S
C876 C879 1.386 . S
H877 C893 0.930 . S
H878 C894 0.931 . S
C879 H867 0.929 . S
C879 C873 1.390 . S
C879 C876 1.386 . S
C880 C875 1.490 . S
C880 C882 1.395 . S
C880 C883 1.403 . S
H881 C887 0.930 . S
C882 H868 0.930 . S
C882 C880 1.395 . S
C882 C885 1.403 . S
C883 C880 1.403 . S
C883 C884 1.524 . S
C883 C887 1.400 . S
C884 H869 0.960 . S
C884 H870 0.960 . S
C884 H871 0.960 . S
C884 C883 1.524 . S
C885 C882 1.403 . S
C885 C886 1.392 . S
C885 C889 1.495 . S
C886 C885 1.392 . S
C886 C887 1.385 . S
C886 C888 1.478 . S
C887 H881 0.930 . S
C887 C883 1.400 . S
C887 C886 1.385 . S
C888 C886 1.478 . S
C888 C890 1.381 . S
C888 C894 1.383 . S
C889 C885 1.495 . S
C889 H895 0.959 . S
C889 H896 0.961 . S
C889 H897 0.960 . S
C890 C888 1.381 . S
C890 C891 1.394 . S
C890 H898 0.930 . S
C891 C890 1.394 . S
C891 C892 1.383 . S
C891 H899 0.929 . S
C892 C891 1.383 . S
C892 C893 1.377 . S
C893 H877 0.930 . S
C893 C892 1.377 . S
C893 C894 1.379 . S
C894 H878 0.931 . S
C894 C888 1.383 . S
C894 C893 1.379 . S
H895 C889 0.959 . S
H896 C889 0.961 . S
H897 C889 0.960 . S
H898 C890 0.930 . S
H899 C891 0.929 . S
H900 C908 0.929 . S
H901 C910 0.930 . S
H902 C912 0.930 . S
H903 C915 0.929 . S
H904 C918 0.930 . S
H905 C920 0.960 . S
H906 C920 0.960 . S
H907 C920 0.960 . S
C908 H900 0.929 . S
C908 C909 1.377 . S
C908 C910 1.384 . S
C909 C908 1.377 . S
C909 C915 1.390 1_455 S
C910 H901 0.930 . S
C910 C908 1.384 . S
C910 C911 1.372 1_455 S
C911 C910 1.372 1_655 S
C911 C912 1.400 . S
C911 C916 1.490 . S
C912 H902 0.930 . S
C912 C911 1.400 . S
C912 C915 1.386 . S
H913 C929 0.930 . S
H914 C930 0.931 1_556 S
C915 H903 0.929 . S
C915 C909 1.390 1_655 S
C915 C912 1.386 . S
C916 C911 1.490 . S
C916 C918 1.395 1_655 S
C916 C919 1.403 . S
H917 C923 0.930 . S
C918 H904 0.930 . S
C918 C916 1.395 1_455 S
C918 C921 1.403 . S
C919 C916 1.403 . S
C919 C920 1.524 . S
C919 C923 1.400 . S
C920 H905 0.960 . S
C920 H906 0.960 . S
C920 H907 0.960 . S
C920 C919 1.524 . S
C921 C918 1.403 . S
C921 C922 1.392 1_455 S
C921 C925 1.495 . S
C922 C921 1.392 1_655 S
C922 C923 1.385 . S
C922 C924 1.483 . S
C923 H917 0.930 . S
C923 C919 1.400 . S
C923 C922 1.385 . S
C924 C922 1.483 . S
C924 C926 1.377 1_556 S
C924 C930 1.381 1_556 S
C925 C921 1.495 . S
C925 H931 0.959 . S
C925 H932 0.961 . S
C925 H933 0.960 . S
C926 C924 1.377 1_554 S
C926 C927 1.394 . S
C926 H934 0.930 1_655 S
C927 C926 1.394 . S
C927 C928 1.383 . S
C927 H935 0.908 1_655 S
C928 C927 1.383 . S
C928 C929 1.377 . S
C929 H913 0.930 . S
C929 C928 1.377 . S
C929 C930 1.379 . S
C930 H914 0.931 1_554 S
C930 C924 1.381 1_554 S
C930 C929 1.379 . S
H931 C925 0.959 . S
H932 C925 0.961 . S
H933 C925 0.960 . S
H934 C926 0.930 1_455 S
H935 C927 0.908 1_455 S
H936 C944 0.929 . S
H937 C946 0.930 . S
H938 C948 0.930 . S
H939 C951 0.929 . S
H940 C954 0.930 . S
H941 C956 0.960 . S
H942 C956 0.960 . S
H943 C956 0.960 . S
C944 H936 0.929 . S
C944 C945 1.377 . S
C944 C946 1.384 . S
C945 C944 1.377 . S
C945 C951 1.390 . S
C946 H937 0.930 . S
C946 C944 1.384 . S
C946 C947 1.372 . S
C947 C946 1.372 . S
C947 C948 1.400 . S
C947 C952 1.490 . S
C948 H938 0.930 . S
C948 C947 1.400 . S
C948 C951 1.386 . S
H949 C965 0.930 . S
H950 C966 0.931 . S
C951 H939 0.929 . S
C951 C945 1.390 . S
C951 C948 1.386 . S
C952 C947 1.490 . S
C952 C954 1.395 . S
C952 C955 1.403 . S
H953 C959 0.930 . S
C954 H940 0.930 . S
C954 C952 1.395 . S
C954 C957 1.403 . S
C955 C952 1.403 . S
C955 C956 1.524 . S
C955 C959 1.400 . S
C956 H941 0.960 . S
C956 H942 0.960 . S
C956 H943 0.960 . S
C956 C955 1.524 . S
C957 C954 1.403 . S
C957 C958 1.392 . S
C957 C961 1.495 . S
C958 C957 1.392 . S
C958 C959 1.385 . S
C958 C960 1.478 . S
C959 H953 0.930 . S
C959 C955 1.400 . S
C959 C958 1.385 . S
C960 C958 1.478 . S
C960 C962 1.381 . S
C960 C966 1.383 . S
C961 C957 1.495 . S
C961 H967 0.959 . S
C961 H968 0.961 . S
C961 H969 0.960 . S
C962 C960 1.381 . S
C962 C963 1.394 . S
C962 H970 0.930 . S
C963 C962 1.394 . S
C963 C964 1.383 . S
C963 H971 0.929 . S
C964 C963 1.383 . S
C964 C965 1.377 . S
C965 H949 0.930 . S
C965 C964 1.377 . S
C965 C966 1.379 . S
C966 H950 0.931 . S
C966 C960 1.383 . S
C966 C965 1.379 . S
H967 C961 0.959 . S
H968 C961 0.961 . S
H969 C961 0.960 . S
H970 C962 0.930 . S
H971 C963 0.929 . S
H972 C980 0.929 . S
H973 C982 0.930 . S
H974 C984 0.930 . S
H975 C987 0.929 . S
H976 C990 0.930 . S
H977 C992 0.960 . S
H978 C992 0.960 . S
H979 C992 0.960 . S
C980 H972 0.929 . S
C980 C981 1.377 . S
C980 C982 1.384 . S
C981 C980 1.377 . S
C981 C987 1.390 1_455 S
C982 H973 0.930 . S
C982 C980 1.384 . S
C982 C983 1.372 . S
C983 C982 1.372 . S
C983 C984 1.400 1_455 S
C983 C988 1.490 . S
C984 H974 0.930 . S
C984 C983 1.400 1_655 S
C984 C987 1.386 . S
H985 C1001 0.930 . S
H986 C1002 0.931 . S
C987 H975 0.929 . S
C987 C981 1.390 1_655 S
C987 C984 1.386 . S
C988 C983 1.490 . S
C988 C990 1.395 . S
C988 C991 1.403 . S
H989 C995 0.930 . S
C990 H976 0.930 . S
C990 C988 1.395 . S
C990 C993 1.403 . S
C991 C988 1.403 . S
C991 C992 1.524 1_455 S
C991 C995 1.400 . S
C992 H977 0.960 . S
C992 H978 0.960 . S
C992 H979 0.960 . S
C992 C991 1.524 1_655 S
C993 C990 1.403 . S
C993 C994 1.392 . S
C993 C997 1.495 . S
C994 C993 1.392 . S
C994 C995 1.385 . S
C994 C996 1.478 . S
C995 H989 0.930 . S
C995 C991 1.400 . S
C995 C994 1.385 . S
C996 C994 1.478 . S
C996 C998 1.381 . S
C996 C1002 1.383 . S
C997 C993 1.495 . S
C997 H1003 0.959 . S
C997 H1004 0.961 . S
C997 H1005 0.960 . S
C998 C996 1.381 . S
C998 C999 1.394 . S
C998 H1006 0.930 . S
C999 C998 1.394 . S
C999 C1000 1.383 . S
C999 H1007 0.929 . S
C1000 C999 1.383 . S
C1000 C1001 1.377 . S
C1001 H985 0.930 . S
C1001 C1000 1.377 . S
C1001 C1002 1.379 . S
C1002 H986 0.931 . S
C1002 C996 1.383 . S
C1002 C1001 1.379 . S
H1003 C997 0.959 . S
H1004 C997 0.961 . S
H1005 C997 0.960 . S
H1006 C998 0.930 . S
H1007 C999 0.929 . S
H1008 C1016 0.929 . S
H1009 C1018 0.930 . S
H1010 C1020 0.930 . S
H1011 C1023 0.929 . S
H1012 C1026 0.930 . S
H1013 C1028 0.960 . S
H1014 C1028 0.960 . S
H1015 C1028 0.960 . S
C1016 H1008 0.929 . S
C1016 C1017 1.377 . S
C1016 C1018 1.384 . S
C1017 C1016 1.377 . S
C1017 C1023 1.390 . S
C1018 H1009 0.930 . S
C1018 C1016 1.384 . S
C1018 C1019 1.372 . S
C1019 C1018 1.372 . S
C1019 C1020 1.400 . S
C1019 C1024 1.490 . S
C1020 H1010 0.930 . S
C1020 C1019 1.400 . S
C1020 C1023 1.386 . S
H1021 C1037 0.930 . S
H1022 C1038 0.931 . S
C1023 H1011 0.929 . S
C1023 C1017 1.390 . S
C1023 C1020 1.386 . S
C1024 C1019 1.490 . S
C1024 C1026 1.395 . S
C1024 C1027 1.403 . S
H1025 C1031 0.930 . S
C1026 H1012 0.930 . S
C1026 C1024 1.395 . S
C1026 C1029 1.403 . S
C1027 C1024 1.403 . S
C1027 C1028 1.524 . S
C1027 C1031 1.400 . S
C1028 H1013 0.960 . S
C1028 H1014 0.960 . S
C1028 H1015 0.960 . S
C1028 C1027 1.524 . S
C1029 C1026 1.403 . S
C1029 C1030 1.392 . S
C1029 C1033 1.495 . S
C1030 C1029 1.392 . S
C1030 C1031 1.385 . S
C1030 C1032 1.478 . S
C1031 H1025 0.930 . S
C1031 C1027 1.400 . S
C1031 C1030 1.385 . S
C1032 C1030 1.478 . S
C1032 C1034 1.381 . S
C1032 C1038 1.383 . S
C1033 C1029 1.495 . S
C1033 H1039 0.959 . S
C1033 H1040 0.961 . S
C1033 H1041 0.960 . S
C1034 C1032 1.381 . S
C1034 C1035 1.394 . S
C1034 H1042 0.930 . S
C1035 C1034 1.394 . S
C1035 C1036 1.383 . S
C1035 H1043 0.929 . S
C1036 C1035 1.383 . S
C1036 C1037 1.377 . S
C1037 H1021 0.930 . S
C1037 C1036 1.377 . S
C1037 C1038 1.379 . S
C1038 H1022 0.931 . S
C1038 C1032 1.383 . S
C1038 C1037 1.379 . S
H1039 C1033 0.959 . S
H1040 C1033 0.961 . S
H1041 C1033 0.960 . S
H1042 C1034 0.930 . S
H1043 C1035 0.929 . S
H1044 C1052 0.929 . S
H1045 C1054 0.930 . S
H1046 C1056 0.930 . S
H1047 C1059 0.929 . S
H1048 C1062 0.930 . S
H1049 C1064 0.960 . S
H1050 C1064 0.960 . S
H1051 C1064 0.960 . S
C1052 H1044 0.929 . S
C1052 C1053 1.377 . S
C1052 C1054 1.384 . S
C1053 C1052 1.377 . S
C1053 C1059 1.390 . S
C1054 H1045 0.930 . S
C1054 C1052 1.384 . S
C1054 C1055 1.372 . S
C1055 C1054 1.372 . S
C1055 C1056 1.400 . S
C1055 C1060 1.490 . S
C1056 H1046 0.930 . S
C1056 C1055 1.400 . S
C1056 C1059 1.386 . S
H1057 C1073 0.930 . S
H1058 C1074 0.931 . S
C1059 H1047 0.929 . S
C1059 C1053 1.390 . S
C1059 C1056 1.386 . S
C1060 C1055 1.490 . S
C1060 C1062 1.395 . S
C1060 C1063 1.403 . S
H1061 C1067 0.930 . S
C1062 H1048 0.930 . S
C1062 C1060 1.395 . S
C1062 C1065 1.403 . S
C1063 C1060 1.403 . S
C1063 C1064 1.524 . S
C1063 C1067 1.400 . S
C1064 H1049 0.960 . S
C1064 H1050 0.960 . S
C1064 H1051 0.960 . S
C1064 C1063 1.524 . S
C1065 C1062 1.403 . S
C1065 C1066 1.392 . S
C1065 C1069 1.495 . S
C1066 C1065 1.392 . S
C1066 C1067 1.385 . S
C1066 C1068 1.478 . S
C1067 H1061 0.930 . S
C1067 C1063 1.400 . S
C1067 C1066 1.385 . S
C1068 C1066 1.478 . S
C1068 C1070 1.381 . S
C1068 C1074 1.383 . S
C1069 C1065 1.495 . S
C1069 H1075 0.959 . S
C1069 H1076 0.961 . S
C1069 H1077 0.960 . S
C1070 C1068 1.381 . S
C1070 C1071 1.394 . S
C1070 H1078 0.930 . S
C1071 C1070 1.394 . S
C1071 C1072 1.383 . S
C1071 H1079 0.929 . S
C1072 C1071 1.383 . S
C1072 C1073 1.377 . S
C1073 H1057 0.930 . S
C1073 C1072 1.377 . S
C1073 C1074 1.379 . S
C1074 H1058 0.931 . S
C1074 C1068 1.383 . S
C1074 C1073 1.379 . S
H1075 C1069 0.959 . S
H1076 C1069 0.961 . S
H1077 C1069 0.960 . S
H1078 C1070 0.930 . S
H1079 C1071 0.929 . S
H1080 C1088 0.929 . S
H1081 C1090 0.930 . S
H1082 C1092 0.930 . S
H1083 C1095 0.929 . S
H1084 C1098 0.930 . S
H1085 C1100 0.961 . S
H1086 C1100 0.958 1_565 S
H1087 C1100 0.964 . S
C1088 H1080 0.929 . S
C1088 C1089 1.377 . S
C1088 C1090 1.384 . S
C1089 C1088 1.377 . S
C1089 C1095 1.390 1_565 S
C1090 H1081 0.930 . S
C1090 C1088 1.384 . S
C1090 C1091 1.372 . S
C1091 C1090 1.372 . S
C1091 C1092 1.400 1_565 S
C1091 C1096 1.490 . S
C1092 H1082 0.930 . S
C1092 C1091 1.400 1_545 S
C1092 C1095 1.386 . S
H1093 C1109 0.930 . S
H1094 C1110 0.931 . S
C1095 H1083 0.929 . S
C1095 C1089 1.390 1_545 S
C1095 C1092 1.386 . S
C1096 C1091 1.490 . S
C1096 C1098 1.395 . S
C1096 C1099 1.403 . S
H1097 C1103 0.930 . S
C1098 H1084 0.930 . S
C1098 C1096 1.395 . S
C1098 C1101 1.403 . S
C1099 C1096 1.403 . S
C1099 C1100 1.522 1_565 S
C1099 C1103 1.400 . S
C1100 H1085 0.961 . S
C1100 H1086 0.958 1_545 S
C1100 H1087 0.964 . S
C1100 C1099 1.522 1_545 S
C1101 C1098 1.403 . S
C1101 C1102 1.392 . S
C1101 C1105 1.495 . S
C1102 C1101 1.392 . S
C1102 C1103 1.385 . S
C1102 C1104 1.478 . S
C1103 H1097 0.930 . S
C1103 C1099 1.400 . S
C1103 C1102 1.385 . S
C1104 C1102 1.478 . S
C1104 C1106 1.381 . S
C1104 C1110 1.383 . S
C1105 C1101 1.495 . S
C1105 H1111 0.959 . S
C1105 H1112 0.961 . S
C1105 H1113 0.960 . S
C1106 C1104 1.381 . S
C1106 C1107 1.394 . S
C1106 H1114 0.930 . S
C1107 C1106 1.394 . S
C1107 C1108 1.383 . S
C1107 H1115 0.929 . S
C1108 C1107 1.383 . S
C1108 C1109 1.377 . S
C1109 H1093 0.930 . S
C1109 C1108 1.377 . S
C1109 C1110 1.379 . S
C1110 H1094 0.931 . S
C1110 C1104 1.383 . S
C1110 C1109 1.379 . S
H1111 C1105 0.959 . S
H1112 C1105 0.961 . S
H1113 C1105 0.960 . S
H1114 C1106 0.930 . S
H1115 C1107 0.929 . S
H1116 C1124 0.929 . S
H1117 C1126 0.930 . S
H1118 C1128 0.933 . S
H1119 C1131 0.929 . S
H1120 C1134 0.930 . S
H1121 C1136 0.960 . S
H1122 C1136 0.960 . S
H1123 C1136 0.960 . S
C1124 H1116 0.929 . S
C1124 C1125 1.377 1_545 S
C1124 C1126 1.384 . S
C1125 C1124 1.377 1_565 S
C1125 C1131 1.390 . S
C1126 H1117 0.930 . S
C1126 C1124 1.384 . S
C1126 C1127 1.372 . S
C1127 C1126 1.372 . S
C1127 C1128 1.386 1_545 S
C1127 C1132 1.490 . S
C1128 H1118 0.933 . S
C1128 C1127 1.386 1_565 S
C1128 C1131 1.400 . S
H1129 C1145 0.930 . S
H1130 C1146 0.931 . S
C1131 H1119 0.929 . S
C1131 C1125 1.390 . S
C1131 C1128 1.400 . S
C1132 C1127 1.490 . S
C1132 C1134 1.395 . S
C1132 C1135 1.403 1_545 S
H1133 C1139 0.897 1_565 S
C1134 H1120 0.930 . S
C1134 C1132 1.395 . S
C1134 C1137 1.403 . S
C1135 C1132 1.403 1_565 S
C1135 C1136 1.524 . S
C1135 C1139 1.382 1_565 S
C1136 H1121 0.960 . S
C1136 H1122 0.960 . S
C1136 H1123 0.960 . S
C1136 C1135 1.524 . S
C1137 C1134 1.403 . S
C1137 C1138 1.392 . S
C1137 C1141 1.495 . S
C1138 C1137 1.392 . S
C1138 C1139 1.438 . S
C1138 C1140 1.478 . S
C1139 H1133 0.897 1_545 S
C1139 C1135 1.382 1_545 S
C1139 C1138 1.438 . S
C1140 C1138 1.478 . S
C1140 C1142 1.381 1_455 S
C1140 C1146 1.383 1_455 S
C1141 C1137 1.495 . S
C1141 H1147 0.959 . S
C1141 H1148 0.961 . S
C1141 H1149 0.960 . S
C1142 C1140 1.381 1_655 S
C1142 C1143 1.394 . S
C1142 H1150 0.922 1_655 S
C1143 C1142 1.394 . S
C1143 C1144 1.383 . S
C1143 H1151 0.929 . S
C1144 C1143 1.383 . S
C1144 C1145 1.377 . S
C1145 H1129 0.930 . S
C1145 C1144 1.377 . S
C1145 C1146 1.379 . S
C1146 H1130 0.931 . S
C1146 C1140 1.383 1_655 S
C1146 C1145 1.379 . S
H1147 C1141 0.959 . S
H1148 C1141 0.961 . S
H1149 C1141 0.960 . S
H1150 C1142 0.922 1_455 S
H1151 C1143 0.929 . S
H1152 C1160 0.929 . S
H1153 C1162 0.930 . S
H1154 C1164 0.930 . S
H1155 C1167 0.929 . S
H1156 C1170 0.930 . S
H1157 C1172 0.960 . S
H1158 C1172 0.960 . S
H1159 C1172 0.960 . S
C1160 H1152 0.929 . S
C1160 C1161 1.377 . S
C1160 C1162 1.384 . S
C1161 C1160 1.377 . S
C1161 C1167 1.390 . S
C1162 H1153 0.930 . S
C1162 C1160 1.384 . S
C1162 C1163 1.372 . S
C1163 C1162 1.372 . S
C1163 C1164 1.400 . S
C1163 C1168 1.490 . S
C1164 H1154 0.930 . S
C1164 C1163 1.400 . S
C1164 C1167 1.386 . S
H1165 C1181 0.930 . S
H1166 C1182 0.931 . S
C1167 H1155 0.929 . S
C1167 C1161 1.390 . S
C1167 C1164 1.386 . S
C1168 C1163 1.490 . S
C1168 C1170 1.395 . S
C1168 C1171 1.403 . S
H1169 C1175 0.930 . S
C1170 H1156 0.930 . S
C1170 C1168 1.395 . S
C1170 C1173 1.403 . S
C1171 C1168 1.403 . S
C1171 C1172 1.524 . S
C1171 C1175 1.400 . S
C1172 H1157 0.960 . S
C1172 H1158 0.960 . S
C1172 H1159 0.960 . S
C1172 C1171 1.524 . S
C1173 C1170 1.403 . S
C1173 C1174 1.392 . S
C1173 C1177 1.495 . S
C1174 C1173 1.392 . S
C1174 C1175 1.385 . S
C1174 C1176 1.478 . S
C1175 H1169 0.930 . S
C1175 C1171 1.400 . S
C1175 C1174 1.385 . S
C1176 C1174 1.478 . S
C1176 C1178 1.381 . S
C1176 C1182 1.383 . S
C1177 C1173 1.495 . S
C1177 H1183 0.959 . S
C1177 H1184 0.961 . S
C1177 H1185 0.960 . S
C1178 C1176 1.381 . S
C1178 C1179 1.394 . S
C1178 H1186 0.930 . S
C1179 C1178 1.394 . S
C1179 C1180 1.383 . S
C1179 H1187 0.929 . S
C1180 C1179 1.383 . S
C1180 C1181 1.377 . S
C1181 H1165 0.930 . S
C1181 C1180 1.377 . S
C1181 C1182 1.379 . S
C1182 H1166 0.931 . S
C1182 C1176 1.383 . S
C1182 C1181 1.379 . S
H1183 C1177 0.959 . S
H1184 C1177 0.961 . S
H1185 C1177 0.960 . S
H1186 C1178 0.930 . S
H1187 C1179 0.929 . S
H1188 C1196 0.929 . S
H1189 C1198 0.930 . S
H1190 C1200 0.930 . S
H1191 C1203 0.929 . S
H1192 C1206 0.930 . S
H1193 C1208 0.960 . S
H1194 C1208 0.960 . S
H1195 C1208 0.960 . S
C1196 H1188 0.929 . S
C1196 C1197 1.377 1_554 S
C1196 C1198 1.384 . S
C1197 C1196 1.377 1_556 S
C1197 C1203 1.390 . S
C1198 H1189 0.930 . S
C1198 C1196 1.384 . S
C1198 C1199 1.372 . S
C1199 C1198 1.372 . S
C1199 C1200 1.400 1_554 S
C1199 C1204 1.490 . S
C1200 H1190 0.930 . S
C1200 C1199 1.400 1_556 S
C1200 C1203 1.386 . S
H1201 C1217 0.895 1_556 S
H1202 C1218 0.931 1_556 S
C1203 H1191 0.929 . S
C1203 C1197 1.390 . S
C1203 C1200 1.386 . S
C1204 C1199 1.490 . S
C1204 C1206 1.395 . S
C1204 C1207 1.403 . S
H1205 C1211 0.948 . S
C1206 H1192 0.930 . S
C1206 C1204 1.395 . S
C1206 C1209 1.403 . S
C1207 C1204 1.403 . S
C1207 C1208 1.524 1_554 S
C1207 C1211 1.400 . S
C1208 H1193 0.960 . S
C1208 H1194 0.960 . S
C1208 H1195 0.960 . S
C1208 C1207 1.524 1_556 S
C1209 C1206 1.403 . S
C1209 C1210 1.392 . S
C1209 C1213 1.495 . S
C1210 C1209 1.392 . S
C1210 C1211 1.385 . S
C1210 C1212 1.478 . S
C1211 H1205 0.948 . S
C1211 C1207 1.400 . S
C1211 C1210 1.385 . S
C1212 C1210 1.478 . S
C1212 C1214 1.381 1_545 S
C1212 C1218 1.383 1_545 S
C1213 C1209 1.495 . S
C1213 H1219 0.959 . S
C1213 H1220 0.961 . S
C1213 H1221 0.960 . S
C1214 C1212 1.381 1_565 S
C1214 C1215 1.394 . S
C1214 H1222 0.930 1_565 S
C1215 C1214 1.394 . S
C1215 C1216 1.383 . S
C1215 H1223 0.929 . S
C1216 C1215 1.383 . S
C1216 C1217 1.377 . S
C1217 H1201 0.895 1_554 S
C1217 C1216 1.377 . S
C1217 C1218 1.379 . S
C1218 H1202 0.931 1_554 S
C1218 C1212 1.383 1_565 S
C1218 C1217 1.379 . S
H1219 C1213 0.959 . S
H1220 C1213 0.961 . S
H1221 C1213 0.960 . S
H1222 C1214 0.930 1_545 S
H1223 C1215 0.929 . S
H1224 C1232 0.929 . S
H1225 C1234 0.930 . S
H1226 C1236 0.930 . S
H1227 C1239 0.929 . S
H1228 C1242 0.930 . S
H1229 C1244 0.960 . S
H1230 C1244 0.960 . S
H1231 C1244 0.960 . S
C1232 H1224 0.929 . S
C1232 C1233 1.377 . S
C1232 C1234 1.384 . S
C1233 C1232 1.377 . S
C1233 C1239 1.390 . S
C1234 H1225 0.930 . S
C1234 C1232 1.384 . S
C1234 C1235 1.372 . S
C1235 C1234 1.372 . S
C1235 C1236 1.400 . S
C1235 C1240 1.490 . S
C1236 H1226 0.930 . S
C1236 C1235 1.400 . S
C1236 C1239 1.386 . S
H1237 C1253 0.930 . S
H1238 C1254 0.931 . S
C1239 H1227 0.929 . S
C1239 C1233 1.390 . S
C1239 C1236 1.386 . S
C1240 C1235 1.490 . S
C1240 C1242 1.395 . S
C1240 C1243 1.403 . S
H1241 C1247 0.930 . S
C1242 H1228 0.930 . S
C1242 C1240 1.395 . S
C1242 C1245 1.403 . S
C1243 C1240 1.403 . S
C1243 C1244 1.524 . S
C1243 C1247 1.400 . S
C1244 H1229 0.960 . S
C1244 H1230 0.960 . S
C1244 H1231 0.960 . S
C1244 C1243 1.524 . S
C1245 C1242 1.403 . S
C1245 C1246 1.392 . S
C1245 C1249 1.495 . S
C1246 C1245 1.392 . S
C1246 C1247 1.385 . S
C1246 C1248 1.478 . S
C1247 H1241 0.930 . S
C1247 C1243 1.400 . S
C1247 C1246 1.385 . S
C1248 C1246 1.478 . S
C1248 C1250 1.381 . S
C1248 C1254 1.383 . S
C1249 C1245 1.495 . S
C1249 H1255 0.959 . S
C1249 H1256 0.961 . S
C1249 H1257 0.960 . S
C1250 C1248 1.381 . S
C1250 C1251 1.394 . S
C1250 H1258 0.930 . S
C1251 C1250 1.394 . S
C1251 C1252 1.383 . S
C1251 H1259 0.929 . S
C1252 C1251 1.383 . S
C1252 C1253 1.377 . S
C1253 H1237 0.930 . S
C1253 C1252 1.377 . S
C1253 C1254 1.379 . S
C1254 H1238 0.931 . S
C1254 C1248 1.383 . S
C1254 C1253 1.379 . S
H1255 C1249 0.959 . S
H1256 C1249 0.961 . S
H1257 C1249 0.960 . S
H1258 C1250 0.930 . S
H1259 C1251 0.929 . S
H1260 C1268 0.929 . S
H1261 C1270 0.930 1_554 S
H1262 C1272 0.930 . S
H1263 C1275 0.929 . S
H1264 C1278 0.930 . S
H1265 C1280 0.958 1_554 S
H1266 C1280 0.948 1_554 S
H1267 C1280 0.966 . S
C1268 H1260 0.929 . S
C1268 C1269 1.377 1_554 S
C1268 C1270 1.384 1_554 S
C1269 C1268 1.377 1_556 S
C1269 C1275 1.390 . S
C1270 H1261 0.930 1_556 S
C1270 C1268 1.384 1_556 S
C1270 C1271 1.372 . S
C1271 C1270 1.372 . S
C1271 C1272 1.400 . S
C1271 C1276 1.490 . S
C1272 H1262 0.930 . S
C1272 C1271 1.400 . S
C1272 C1275 1.386 . S
H1273 C1289 0.930 . S
H1274 C1290 0.931 . S
C1275 H1263 0.929 . S
C1275 C1269 1.390 . S
C1275 C1272 1.386 . S
C1276 C1271 1.490 . S
C1276 C1278 1.395 . S
C1276 C1279 1.403 . S
H1277 C1283 0.930 . S
C1278 H1264 0.930 . S
C1278 C1276 1.395 . S
C1278 C1281 1.403 . S
C1279 C1276 1.403 . S
C1279 C1280 1.532 . S
C1279 C1283 1.400 . S
C1280 H1265 0.958 1_556 S
C1280 H1266 0.948 1_556 S
C1280 H1267 0.966 . S
C1280 C1279 1.532 . S
C1281 C1278 1.403 . S
C1281 C1282 1.392 . S
C1281 C1285 1.495 . S
C1282 C1281 1.392 . S
C1282 C1283 1.385 . S
C1282 C1284 1.478 . S
C1283 H1277 0.930 . S
C1283 C1279 1.400 . S
C1283 C1282 1.385 . S
C1284 C1282 1.478 . S
C1284 C1286 1.381 . S
C1284 C1290 1.383 . S
C1285 C1281 1.495 . S
C1285 H1291 0.959 . S
C1285 H1292 0.961 . S
C1285 H1293 0.960 . S
C1286 C1284 1.381 . S
C1286 C1287 1.394 . S
C1286 H1294 0.930 . S
C1287 C1286 1.394 . S
C1287 C1288 1.383 . S
C1287 H1295 0.929 . S
C1288 C1287 1.383 . S
C1288 C1289 1.377 . S
C1289 H1273 0.930 . S
C1289 C1288 1.377 . S
C1289 C1290 1.379 . S
C1290 H1274 0.931 . S
C1290 C1284 1.383 . S
C1290 C1289 1.379 . S
H1291 C1285 0.959 . S
H1292 C1285 0.961 . S
H1293 C1285 0.960 . S
H1294 C1286 0.930 . S
H1295 C1287 0.929 . S
H1296 C1304 0.929 . S
H1297 C1306 0.930 . S
H1298 C1308 0.930 . S
H1299 C1311 0.929 . S
H1300 C1314 0.930 . S
H1301 C1316 0.960 . S
H1302 C1316 0.960 . S
H1303 C1316 0.960 . S
C1304 H1296 0.929 . S
C1304 C1305 1.377 . S
C1304 C1306 1.384 . S
C1305 C1304 1.377 . S
C1305 C1311 1.390 . S
C1306 H1297 0.930 . S
C1306 C1304 1.384 . S
C1306 C1307 1.372 . S
C1307 C1306 1.372 . S
C1307 C1308 1.400 . S
C1307 C1312 1.490 . S
C1308 H1298 0.930 . S
C1308 C1307 1.400 . S
C1308 C1311 1.386 . S
H1309 C1325 0.930 . S
H1310 C1326 0.931 . S
C1311 H1299 0.929 . S
C1311 C1305 1.390 . S
C1311 C1308 1.386 . S
C1312 C1307 1.490 . S
C1312 C1314 1.395 . S
C1312 C1315 1.403 . S
H1313 C1319 0.930 . S
C1314 H1300 0.930 . S
C1314 C1312 1.395 . S
C1314 C1317 1.403 . S
C1315 C1312 1.403 . S
C1315 C1316 1.524 . S
C1315 C1319 1.400 . S
C1316 H1301 0.960 . S
C1316 H1302 0.960 . S
C1316 H1303 0.960 . S
C1316 C1315 1.524 . S
C1317 C1314 1.403 . S
C1317 C1318 1.392 . S
C1317 C1321 1.495 . S
C1318 C1317 1.392 . S
C1318 C1319 1.385 . S
C1318 C1320 1.478 . S
C1319 H1313 0.930 . S
C1319 C1315 1.400 . S
C1319 C1318 1.385 . S
C1320 C1318 1.478 . S
C1320 C1322 1.381 . S
C1320 C1326 1.383 . S
C1321 C1317 1.495 . S
C1321 H1327 0.959 . S
C1321 H1328 0.961 . S
C1321 H1329 0.960 . S
C1322 C1320 1.381 . S
C1322 C1323 1.394 . S
C1322 H1330 0.930 . S
C1323 C1322 1.394 . S
C1323 C1324 1.383 . S
C1323 H1331 0.929 . S
C1324 C1323 1.383 . S
C1324 C1325 1.377 . S
C1325 H1309 0.930 . S
C1325 C1324 1.377 . S
C1325 C1326 1.379 . S
C1326 H1310 0.931 . S
C1326 C1320 1.383 . S
C1326 C1325 1.379 . S
H1327 C1321 0.959 . S
H1328 C1321 0.961 . S
H1329 C1321 0.960 . S
H1330 C1322 0.930 . S
H1331 C1323 0.929 . S
H1332 C1340 0.929 . S
H1333 C1342 0.930 . S
H1334 C1344 0.930 . S
H1335 C1347 0.929 . S
H1336 C1350 0.930 1_655 S
H1337 C1352 0.960 . S
H1338 C1352 0.960 . S
H1339 C1352 0.960 . S
C1340 H1332 0.929 . S
C1340 C1341 1.377 1_455 S
C1340 C1342 1.384 . S
C1341 C1340 1.377 1_655 S
C1341 C1347 1.390 . S
C1342 H1333 0.930 . S
C1342 C1340 1.384 . S
C1342 C1343 1.372 . S
C1343 C1342 1.372 . S
C1343 C1344 1.400 1_455 S
C1343 C1348 1.490 . S
C1344 H1334 0.930 . S
C1344 C1343 1.400 1_655 S
C1344 C1347 1.386 . S
H1345 C1361 0.930 . S
H1346 C1362 0.931 1_655 S
C1347 H1335 0.929 . S
C1347 C1341 1.390 . S
C1347 C1344 1.386 . S
C1348 C1343 1.490 . S
C1348 C1350 1.395 . S
C1348 C1351 1.403 . S
H1349 C1355 0.930 . S
C1350 H1336 0.930 1_455 S
C1350 C1348 1.395 . S
C1350 C1353 1.403 . S
C1351 C1348 1.403 . S
C1351 C1352 1.524 . S
C1351 C1355 1.400 . S
C1352 H1337 0.960 . S
C1352 H1338 0.960 . S
C1352 H1339 0.960 . S
C1352 C1351 1.524 . S
C1353 C1350 1.403 . S
C1353 C1354 1.392 . S
C1353 C1357 1.495 . S
C1354 C1353 1.392 . S
C1354 C1355 1.385 . S
C1354 C1356 1.508 . S
C1355 H1349 0.930 . S
C1355 C1351 1.400 . S
C1355 C1354 1.385 . S
C1356 C1354 1.508 . S
C1356 C1358 1.369 1_554 S
C1356 C1362 1.365 1_554 S
C1357 C1353 1.495 . S
C1357 H1363 0.959 1_455 S
C1357 H1364 0.961 1_455 S
C1357 H1365 0.960 . S
C1358 C1356 1.369 1_556 S
C1358 C1359 1.394 . S
C1358 H1366 0.918 1_556 S
C1359 C1358 1.394 . S
C1359 C1360 1.383 . S
C1359 H1367 0.929 . S
C1360 C1359 1.383 . S
C1360 C1361 1.377 . S
C1361 H1345 0.930 . S
C1361 C1360 1.377 . S
C1361 C1362 1.379 . S
C1362 H1346 0.931 1_455 S
C1362 C1356 1.365 1_556 S
C1362 C1361 1.379 . S
H1363 C1357 0.959 1_655 S
H1364 C1357 0.961 1_655 S
H1365 C1357 0.960 . S
H1366 C1358 0.918 1_554 S
H1367 C1359 0.929 . S
H1368 C1376 0.929 . S
H1369 C1378 0.930 . S
H1370 C1380 0.930 . S
H1371 C1383 0.929 . S
H1372 C1386 0.930 . S
H1373 C1388 0.960 . S
H1374 C1388 0.960 . S
H1375 C1388 0.960 . S
C1376 H1368 0.929 . S
C1376 C1377 1.377 . S
C1376 C1378 1.384 . S
C1377 C1376 1.377 . S
C1377 C1383 1.390 . S
C1378 H1369 0.930 . S
C1378 C1376 1.384 . S
C1378 C1379 1.372 . S
C1379 C1378 1.372 . S
C1379 C1380 1.400 . S
C1379 C1384 1.490 . S
C1380 H1370 0.930 . S
C1380 C1379 1.400 . S
C1380 C1383 1.386 . S
H1381 C1397 0.930 . S
H1382 C1398 0.931 . S
C1383 H1371 0.929 . S
C1383 C1377 1.390 . S
C1383 C1380 1.386 . S
C1384 C1379 1.490 . S
C1384 C1386 1.395 . S
C1384 C1387 1.403 . S
H1385 C1391 0.930 . S
C1386 H1372 0.930 . S
C1386 C1384 1.395 . S
C1386 C1389 1.403 . S
C1387 C1384 1.403 . S
C1387 C1388 1.524 . S
C1387 C1391 1.400 . S
C1388 H1373 0.960 . S
C1388 H1374 0.960 . S
C1388 H1375 0.960 . S
C1388 C1387 1.524 . S
C1389 C1386 1.403 . S
C1389 C1390 1.392 . S
C1389 C1393 1.495 . S
C1390 C1389 1.392 . S
C1390 C1391 1.385 . S
C1390 C1392 1.478 . S
C1391 H1385 0.930 . S
C1391 C1387 1.400 . S
C1391 C1390 1.385 . S
C1392 C1390 1.478 . S
C1392 C1394 1.381 . S
C1392 C1398 1.383 . S
C1393 C1389 1.495 . S
C1393 H1399 0.959 . S
C1393 H1400 0.961 . S
C1393 H1401 0.960 . S
C1394 C1392 1.381 . S
C1394 C1395 1.394 . S
C1394 H1402 0.930 . S
C1395 C1394 1.394 . S
C1395 C1396 1.383 . S
C1395 H1403 0.929 . S
C1396 C1395 1.383 . S
C1396 C1397 1.377 . S
C1397 H1381 0.930 . S
C1397 C1396 1.377 . S
C1397 C1398 1.379 . S
C1398 H1382 0.931 . S
C1398 C1392 1.383 . S
C1398 C1397 1.379 . S
H1399 C1393 0.959 . S
H1400 C1393 0.961 . S
H1401 C1393 0.960 . S
H1402 C1394 0.930 . S
H1403 C1395 0.929 . S
H1404 C1412 0.929 . S
H1405 C1414 0.930 . S
H1406 C1416 0.930 . S
H1407 C1419 0.929 . S
H1408 C1422 0.930 . S
H1409 C1424 0.960 . S
H1410 C1424 0.960 . S
H1411 C1424 0.960 . S
C1412 H1404 0.929 . S
C1412 C1413 1.377 . S
C1412 C1414 1.384 . S
C1413 C1412 1.377 . S
C1413 C1419 1.390 1_655 S
C1414 H1405 0.930 . S
C1414 C1412 1.384 . S
C1414 C1415 1.372 . S
C1415 C1414 1.372 . S
C1415 C1416 1.400 1_655 S
C1415 C1420 1.490 . S
C1416 H1406 0.930 . S
C1416 C1415 1.400 1_455 S
C1416 C1419 1.386 . S
H1417 C1433 0.930 . S
H1418 C1434 0.931 . S
C1419 H1407 0.929 . S
C1419 C1413 1.390 1_455 S
C1419 C1416 1.386 . S
C1420 C1415 1.490 . S
C1420 C1422 1.395 . S
C1420 C1423 1.403 . S
H1421 C1427 0.930 . S
C1422 H1408 0.930 . S
C1422 C1420 1.395 . S
C1422 C1425 1.403 . S
C1423 C1420 1.403 . S
C1423 C1424 1.524 . S
C1423 C1427 1.400 . S
C1424 H1409 0.960 . S
C1424 H1410 0.960 . S
C1424 H1411 0.960 . S
C1424 C1423 1.524 . S
C1425 C1422 1.403 . S
C1425 C1426 1.392 . S
C1425 C1429 1.495 . S
C1426 C1425 1.392 . S
C1426 C1427 1.385 . S
C1426 C1428 1.478 . S
C1427 H1421 0.930 . S
C1427 C1423 1.400 . S
C1427 C1426 1.385 . S
C1428 C1426 1.478 . S
C1428 C1430 1.381 . S
C1428 C1434 1.383 . S
C1429 C1425 1.495 . S
C1429 H1435 0.959 . S
C1429 H1436 0.961 . S
C1429 H1437 0.960 . S
C1430 C1428 1.381 . S
C1430 C1431 1.394 . S
C1430 H1438 0.930 . S
C1431 C1430 1.394 . S
C1431 C1432 1.383 . S
C1431 H1439 0.929 . S
C1432 C1431 1.383 . S
C1432 C1433 1.377 . S
C1433 H1417 0.930 . S
C1433 C1432 1.377 . S
C1433 C1434 1.379 . S
C1434 H1418 0.931 . S
C1434 C1428 1.383 . S
C1434 C1433 1.379 . S
H1435 C1429 0.959 . S
H1436 C1429 0.961 . S
H1437 C1429 0.960 . S
H1438 C1430 0.930 . S
H1439 C1431 0.929 . S
H1440 C1448 0.929 . S
H1441 C1450 0.930 . S
H1442 C1452 0.930 . S
H1443 C1455 0.929 . S
H1444 C1458 0.930 . S
H1445 C1460 0.960 . S
H1446 C1460 0.960 . S
H1447 C1460 0.960 . S
C1448 H1440 0.929 . S
C1448 C1449 1.377 . S
C1448 C1450 1.384 . S
C1449 C1448 1.377 . S
C1449 C1455 1.390 . S
C1450 H1441 0.930 . S
C1450 C1448 1.384 . S
C1450 C1451 1.372 . S
C1451 C1450 1.372 . S
C1451 C1452 1.400 . S
C1451 C1456 1.490 . S
C1452 H1442 0.930 . S
C1452 C1451 1.400 . S
C1452 C1455 1.386 . S
H1453 C1469 0.930 . S
H1454 C1470 0.931 . S
C1455 H1443 0.929 . S
C1455 C1449 1.390 . S
C1455 C1452 1.386 . S
C1456 C1451 1.490 . S
C1456 C1458 1.395 . S
C1456 C1459 1.403 . S
H1457 C1463 0.930 . S
C1458 H1444 0.930 . S
C1458 C1456 1.395 . S
C1458 C1461 1.403 . S
C1459 C1456 1.403 . S
C1459 C1460 1.524 . S
C1459 C1463 1.400 . S
C1460 H1445 0.960 . S
C1460 H1446 0.960 . S
C1460 H1447 0.960 . S
C1460 C1459 1.524 . S
C1461 C1458 1.403 . S
C1461 C1462 1.392 . S
C1461 C1465 1.495 . S
C1462 C1461 1.392 . S
C1462 C1463 1.385 . S
C1462 C1464 1.478 . S
C1463 H1457 0.930 . S
C1463 C1459 1.400 . S
C1463 C1462 1.385 . S
C1464 C1462 1.478 . S
C1464 C1466 1.381 . S
C1464 C1470 1.383 . S
C1465 C1461 1.495 . S
C1465 H1471 0.959 . S
C1465 H1472 0.961 . S
C1465 H1473 0.960 . S
C1466 C1464 1.381 . S
C1466 C1467 1.394 . S
C1466 H1474 0.930 . S
C1467 C1466 1.394 . S
C1467 C1468 1.383 . S
C1467 H1475 0.929 . S
C1468 C1467 1.383 . S
C1468 C1469 1.377 . S
C1469 H1453 0.930 . S
C1469 C1468 1.377 . S
C1469 C1470 1.379 . S
C1470 H1454 0.931 . S
C1470 C1464 1.383 . S
C1470 C1469 1.379 . S
H1471 C1465 0.959 . S
H1472 C1465 0.961 . S
H1473 C1465 0.960 . S
H1474 C1466 0.930 . S
H1475 C1467 0.929 . S
H1476 C1484 0.929 . S
H1477 C1486 0.930 . S
H1478 C1488 0.930 . S
H1479 C1491 0.929 . S
H1480 C1494 0.930 . S
H1481 C1496 0.960 . S
H1482 C1496 0.960 . S
H1483 C1496 0.960 . S
C1484 H1476 0.929 . S
C1484 C1485 1.377 . S
C1484 C1486 1.384 . S
C1485 C1484 1.377 . S
C1485 C1491 1.390 . S
C1486 H1477 0.930 . S
C1486 C1484 1.384 . S
C1486 C1487 1.372 . S
C1487 C1486 1.372 . S
C1487 C1488 1.400 . S
C1487 C1492 1.490 . S
C1488 H1478 0.930 . S
C1488 C1487 1.400 . S
C1488 C1491 1.386 . S
H1489 C1505 0.930 . S
H1490 C1506 0.931 . S
C1491 H1479 0.929 . S
C1491 C1485 1.390 . S
C1491 C1488 1.386 . S
C1492 C1487 1.490 . S
C1492 C1494 1.395 . S
C1492 C1495 1.403 . S
H1493 C1499 0.930 . S
C1494 H1480 0.930 . S
C1494 C1492 1.395 . S
C1494 C1497 1.403 . S
C1495 C1492 1.403 . S
C1495 C1496 1.524 . S
C1495 C1499 1.400 . S
C1496 H1481 0.960 . S
C1496 H1482 0.960 . S
C1496 H1483 0.960 . S
C1496 C1495 1.524 . S
C1497 C1494 1.403 . S
C1497 C1498 1.392 . S
C1497 C1501 1.495 . S
C1498 C1497 1.392 . S
C1498 C1499 1.385 . S
C1498 C1500 1.478 . S
C1499 H1493 0.930 . S
C1499 C1495 1.400 . S
C1499 C1498 1.385 . S
C1500 C1498 1.478 . S
C1500 C1502 1.381 . S
C1500 C1506 1.383 . S
C1501 C1497 1.495 . S
C1501 H1507 0.959 . S
C1501 H1508 0.961 . S
C1501 H1509 0.960 . S
C1502 C1500 1.381 . S
C1502 C1503 1.394 . S
C1502 H1510 0.930 . S
C1503 C1502 1.394 . S
C1503 C1504 1.383 . S
C1503 H1511 0.929 . S
C1504 C1503 1.383 . S
C1504 C1505 1.377 . S
C1505 H1489 0.930 . S
C1505 C1504 1.377 . S
C1505 C1506 1.379 . S
C1506 H1490 0.931 . S
C1506 C1500 1.383 . S
C1506 C1505 1.379 . S
H1507 C1501 0.959 . S
H1508 C1501 0.961 . S
H1509 C1501 0.960 . S
H1510 C1502 0.930 . S
H1511 C1503 0.929 . S
H1512 C1520 0.929 . S
H1513 C1522 0.930 . S
H1514 C1524 0.930 . S
H1515 C1527 0.929 . S
H1516 C1530 0.930 . S
H1517 C1532 0.960 . S
H1518 C1532 0.960 . S
H1519 C1532 0.960 . S
C1520 H1512 0.929 . S
C1520 C1521 1.343 1_545 S
C1520 C1522 1.384 . S
C1521 C1520 1.343 1_565 S
C1521 C1527 1.415 . S
C1522 H1513 0.930 . S
C1522 C1520 1.384 . S
C1522 C1523 1.372 . S
C1523 C1522 1.372 . S
C1523 C1524 1.400 1_545 S
C1523 C1528 1.490 . S
C1524 H1514 0.930 . S
C1524 C1523 1.400 1_565 S
C1524 C1527 1.386 . S
H1525 C1541 0.930 1_565 S
H1526 C1542 0.931 1_565 S
C1527 H1515 0.929 . S
C1527 C1521 1.415 . S
C1527 C1524 1.386 . S
C1528 C1523 1.490 . S
C1528 C1530 1.395 . S
C1528 C1531 1.403 . S
H1529 C1535 0.930 . S
C1530 H1516 0.930 . S
C1530 C1528 1.395 . S
C1530 C1533 1.403 . S
C1531 C1528 1.403 . S
C1531 C1532 1.524 . S
C1531 C1535 1.400 . S
C1532 H1517 0.960 . S
C1532 H1518 0.960 . S
C1532 H1519 0.960 . S
C1532 C1531 1.524 . S
C1533 C1530 1.403 . S
C1533 C1534 1.392 . S
C1533 C1537 1.495 . S
C1534 C1533 1.392 . S
C1534 C1535 1.385 . S
C1534 C1536 1.478 . S
C1535 H1529 0.930 . S
C1535 C1531 1.400 . S
C1535 C1534 1.385 . S
C1536 C1534 1.478 . S
C1536 C1538 1.381 . S
C1536 C1542 1.383 . S
C1537 C1533 1.495 . S
C1537 H1543 0.959 . S
C1537 H1544 0.924 1_545 S
C1537 H1545 0.960 . S
C1538 C1536 1.381 . S
C1538 C1539 1.394 . S
C1538 H1546 0.930 . S
C1539 C1538 1.394 . S
C1539 C1540 1.383 . S
C1539 H1547 0.929 . S
C1540 C1539 1.383 . S
C1540 C1541 1.377 . S
C1541 H1525 0.930 1_545 S
C1541 C1540 1.377 . S
C1541 C1542 1.379 . S
C1542 H1526 0.931 1_545 S
C1542 C1536 1.383 . S
C1542 C1541 1.379 . S
H1543 C1537 0.959 . S
H1544 C1537 0.924 1_565 S
H1545 C1537 0.960 . S
H1546 C1538 0.930 . S
H1547 C1539 0.929 . S
H1548 C1556 0.929 . S
H1549 C1558 0.930 . S
H1550 C1560 0.898 1_545 S
H1551 C1563 0.929 . S
H1552 C1566 0.930 . S
H1553 C1568 0.960 . S
H1554 C1568 0.960 . S
H1555 C1568 0.960 . S
C1556 H1548 0.929 . S
C1556 C1557 1.377 . S
C1556 C1558 1.384 . S
C1557 C1556 1.377 . S
C1557 C1563 1.390 1_565 S
C1558 H1549 0.930 . S
C1558 C1556 1.384 . S
C1558 C1559 1.372 . S
C1559 C1558 1.372 . S
C1559 C1560 1.444 . S
C1559 C1564 1.490 . S
C1560 H1550 0.898 1_565 S
C1560 C1559 1.444 . S
C1560 C1563 1.374 1_565 S
H1561 C1577 0.930 . S
H1562 C1578 0.931 . S
C1563 H1551 0.929 . S
C1563 C1557 1.390 1_545 S
C1563 C1560 1.374 1_545 S
C1564 C1559 1.490 . S
C1564 C1566 1.395 . S
C1564 C1567 1.403 . S
H1565 C1571 0.930 . S
C1566 H1552 0.930 . S
C1566 C1564 1.395 . S
C1566 C1569 1.403 . S
C1567 C1564 1.403 . S
C1567 C1568 1.524 . S
C1567 C1571 1.400 . S
C1568 H1553 0.960 . S
C1568 H1554 0.960 . S
C1568 H1555 0.960 . S
C1568 C1567 1.524 . S
C1569 C1566 1.403 . S
C1569 C1570 1.392 . S
C1569 C1573 1.495 . S
C1570 C1569 1.392 . S
C1570 C1571 1.385 . S
C1570 C1572 1.478 . S
C1571 H1565 0.930 . S
C1571 C1567 1.400 . S
C1571 C1570 1.385 . S
C1572 C1570 1.478 . S
C1572 C1574 1.381 . S
C1572 C1578 1.383 . S
C1573 C1569 1.495 . S
C1573 H1579 0.959 . S
C1573 H1580 0.961 . S
C1573 H1581 0.960 . S
C1574 C1572 1.381 . S
C1574 C1575 1.394 . S
C1574 H1582 0.930 . S
C1575 C1574 1.394 . S
C1575 C1576 1.383 . S
C1575 H1583 0.929 . S
C1576 C1575 1.383 . S
C1576 C1577 1.377 . S
C1577 H1561 0.930 . S
C1577 C1576 1.377 . S
C1577 C1578 1.379 . S
C1578 H1562 0.931 . S
C1578 C1572 1.383 . S
C1578 C1577 1.379 . S
H1579 C1573 0.959 . S
H1580 C1573 0.961 . S
H1581 C1573 0.960 . S
H1582 C1574 0.930 . S
H1583 C1575 0.929 . S
H1584 C1592 0.929 . S
H1585 C1594 0.930 . S
H1586 C1596 0.930 . S
H1587 C1599 0.929 . S
H1588 C1602 0.930 . S
H1589 C1604 0.960 . S
H1590 C1604 0.960 . S
H1591 C1604 0.960 . S
C1592 H1584 0.929 . S
C1592 C1593 1.377 . S
C1592 C1594 1.384 . S
C1593 C1592 1.377 . S
C1593 C1599 1.390 . S
C1594 H1585 0.930 . S
C1594 C1592 1.384 . S
C1594 C1595 1.372 . S
C1595 C1594 1.372 . S
C1595 C1596 1.400 . S
C1595 C1600 1.490 . S
C1596 H1586 0.930 . S
C1596 C1595 1.400 . S
C1596 C1599 1.386 . S
H1597 C1613 0.930 . S
H1598 C1614 0.931 . S
C1599 H1587 0.929 . S
C1599 C1593 1.390 . S
C1599 C1596 1.386 . S
C1600 C1595 1.490 . S
C1600 C1602 1.395 . S
C1600 C1603 1.403 . S
H1601 C1607 0.930 . S
C1602 H1588 0.930 . S
C1602 C1600 1.395 . S
C1602 C1605 1.403 . S
C1603 C1600 1.403 . S
C1603 C1604 1.524 . S
C1603 C1607 1.400 . S
C1604 H1589 0.960 . S
C1604 H1590 0.960 . S
C1604 H1591 0.960 . S
C1604 C1603 1.524 . S
C1605 C1602 1.403 . S
C1605 C1606 1.392 . S
C1605 C1609 1.495 . S
C1606 C1605 1.392 . S
C1606 C1607 1.385 . S
C1606 C1608 1.478 . S
C1607 H1601 0.930 . S
C1607 C1603 1.400 . S
C1607 C1606 1.385 . S
C1608 C1606 1.478 . S
C1608 C1610 1.381 . S
C1608 C1614 1.383 . S
C1609 C1605 1.495 . S
C1609 H1615 0.959 . S
C1609 H1616 0.961 . S
C1609 H1617 0.960 . S
C1610 C1608 1.381 . S
C1610 C1611 1.394 . S
C1610 H1618 0.930 . S
C1611 C1610 1.394 . S
C1611 C1612 1.383 . S
C1611 H1619 0.929 . S
C1612 C1611 1.383 . S
C1612 C1613 1.377 . S
C1613 H1597 0.930 . S
C1613 C1612 1.377 . S
C1613 C1614 1.379 . S
C1614 H1598 0.931 . S
C1614 C1608 1.383 . S
C1614 C1613 1.379 . S
H1615 C1609 0.959 . S
H1616 C1609 0.961 . S
H1617 C1609 0.960 . S
H1618 C1610 0.930 . S
H1619 C1611 0.929 . S
H1620 C1628 0.929 . S
H1621 C1630 0.929 1_554 S
H1622 C1632 0.930 . S
H1623 C1635 0.929 . S
H1624 C1638 0.930 . S
H1625 C1640 0.960 . S
H1626 C1640 0.960 . S
H1627 C1640 0.960 . S
C1628 H1620 0.929 . S
C1628 C1629 1.377 1_554 S
C1628 C1630 1.383 1_554 S
C1629 C1628 1.377 1_556 S
C1629 C1635 1.390 . S
C1630 H1621 0.929 1_556 S
C1630 C1628 1.383 1_556 S
C1630 C1631 1.373 . S
C1631 C1630 1.373 . S
C1631 C1632 1.400 . S
C1631 C1636 1.490 . S
C1632 H1622 0.930 . S
C1632 C1631 1.400 . S
C1632 C1635 1.386 . S
H1633 C1649 0.930 . S
H1634 C1650 0.931 . S
C1635 H1623 0.929 . S
C1635 C1629 1.390 . S
C1635 C1632 1.386 . S
C1636 C1631 1.490 . S
C1636 C1638 1.395 . S
C1636 C1639 1.403 . S
H1637 C1643 0.930 . S
C1638 H1624 0.930 . S
C1638 C1636 1.395 . S
C1638 C1641 1.403 . S
C1639 C1636 1.403 . S
C1639 C1640 1.524 . S
C1639 C1643 1.400 . S
C1640 H1625 0.960 . S
C1640 H1626 0.960 . S
C1640 H1627 0.960 . S
C1640 C1639 1.524 . S
C1641 C1638 1.403 . S
C1641 C1642 1.392 . S
C1641 C1645 1.495 . S
C1642 C1641 1.392 . S
C1642 C1643 1.385 . S
C1642 C1644 1.478 . S
C1643 H1637 0.930 . S
C1643 C1639 1.400 . S
C1643 C1642 1.385 . S
C1644 C1642 1.478 . S
C1644 C1646 1.381 . S
C1644 C1650 1.383 . S
C1645 C1641 1.495 . S
C1645 H1651 0.958 . S
C1645 H1652 0.961 . S
C1645 H1653 0.960 . S
C1646 C1644 1.381 . S
C1646 C1647 1.394 . S
C1646 H1654 0.930 . S
C1647 C1646 1.394 . S
C1647 C1648 1.383 . S
C1647 H1655 0.929 . S
C1648 C1647 1.383 . S
C1648 C1649 1.377 . S
C1649 H1633 0.930 . S
C1649 C1648 1.377 . S
C1649 C1650 1.379 . S
C1650 H1634 0.931 . S
C1650 C1644 1.383 . S
C1650 C1649 1.379 . S
H1651 C1645 0.958 . S
H1652 C1645 0.961 . S
H1653 C1645 0.960 . S
H1654 C1646 0.930 . S
H1655 C1647 0.929 . S
H1656 C1664 0.929 . S
H1657 C1666 0.930 . S
H1658 C1668 0.930 . S
H1659 C1671 0.929 . S
H1660 C1674 0.930 . S
H1661 C1676 0.960 . S
H1662 C1676 0.960 . S
H1663 C1676 0.960 . S
C1664 H1656 0.929 . S
C1664 C1665 1.377 . S
C1664 C1666 1.384 . S
C1665 C1664 1.377 . S
C1665 C1671 1.390 . S
C1666 H1657 0.930 . S
C1666 C1664 1.384 . S
C1666 C1667 1.372 . S
C1667 C1666 1.372 . S
C1667 C1668 1.400 . S
C1667 C1672 1.490 . S
C1668 H1658 0.930 . S
C1668 C1667 1.400 . S
C1668 C1671 1.386 . S
H1669 C1685 0.930 . S
H1670 C1686 0.931 . S
C1671 H1659 0.929 . S
C1671 C1665 1.390 . S
C1671 C1668 1.386 . S
C1672 C1667 1.490 . S
C1672 C1674 1.395 . S
C1672 C1675 1.403 . S
H1673 C1679 0.930 . S
C1674 H1660 0.930 . S
C1674 C1672 1.395 . S
C1674 C1677 1.403 . S
C1675 C1672 1.403 . S
C1675 C1676 1.524 . S
C1675 C1679 1.400 . S
C1676 H1661 0.960 . S
C1676 H1662 0.960 . S
C1676 H1663 0.960 . S
C1676 C1675 1.524 . S
C1677 C1674 1.403 . S
C1677 C1678 1.392 . S
C1677 C1681 1.495 . S
C1678 C1677 1.392 . S
C1678 C1679 1.385 . S
C1678 C1680 1.478 . S
C1679 H1673 0.930 . S
C1679 C1675 1.400 . S
C1679 C1678 1.385 . S
C1680 C1678 1.478 . S
C1680 C1682 1.381 . S
C1680 C1686 1.383 . S
C1681 C1677 1.495 . S
C1681 H1687 0.959 . S
C1681 H1688 0.961 . S
C1681 H1689 0.960 . S
C1682 C1680 1.381 . S
C1682 C1683 1.394 . S
C1682 H1690 0.930 . S
C1683 C1682 1.394 . S
C1683 C1684 1.383 . S
C1683 H1691 0.929 . S
C1684 C1683 1.383 . S
C1684 C1685 1.377 . S
C1685 H1669 0.930 . S
C1685 C1684 1.377 . S
C1685 C1686 1.379 . S
C1686 H1670 0.931 . S
C1686 C1680 1.383 . S
C1686 C1685 1.379 . S
H1687 C1681 0.959 . S
H1688 C1681 0.961 . S
H1689 C1681 0.960 . S
H1690 C1682 0.930 . S
H1691 C1683 0.929 . S
H1692 C1700 0.929 . S
H1693 C1702 0.933 1_556 S
H1694 C1704 0.930 . S
H1695 C1707 0.929 . S
H1696 C1710 0.930 . S
H1697 C1712 0.960 . S
H1698 C1712 0.960 . S
H1699 C1712 0.960 . S
C1700 H1692 0.929 . S
C1700 C1701 1.377 . S
C1700 C1702 1.382 1_556 S
C1701 C1700 1.377 . S
C1701 C1707 1.390 1_556 S
C1702 H1693 0.933 1_554 S
C1702 C1700 1.382 1_554 S
C1702 C1703 1.374 . S
C1703 C1702 1.374 . S
C1703 C1704 1.400 . S
C1703 C1708 1.490 . S
C1704 H1694 0.930 . S
C1704 C1703 1.400 . S
C1704 C1707 1.386 . S
H1705 C1721 0.930 . S
H1706 C1722 0.931 . S
C1707 H1695 0.929 . S
C1707 C1701 1.390 1_554 S
C1707 C1704 1.386 . S
C1708 C1703 1.490 . S
C1708 C1710 1.395 . S
C1708 C1711 1.403 1_554 S
H1709 C1715 0.930 1_556 S
C1710 H1696 0.930 . S
C1710 C1708 1.395 . S
C1710 C1713 1.403 . S
C1711 C1708 1.403 1_556 S
C1711 C1712 1.524 . S
C1711 C1715 1.400 1_556 S
C1712 H1697 0.960 . S
C1712 H1698 0.960 . S
C1712 H1699 0.960 . S
C1712 C1711 1.524 . S
C1713 C1710 1.403 . S
C1713 C1714 1.392 . S
C1713 C1717 1.495 . S
C1714 C1713 1.392 . S
C1714 C1715 1.385 . S
C1714 C1716 1.478 . S
C1715 H1709 0.930 1_554 S
C1715 C1711 1.400 1_554 S
C1715 C1714 1.385 . S
C1716 C1714 1.478 . S
C1716 C1718 1.381 . S
C1716 C1722 1.383 . S
C1717 C1713 1.495 . S
C1717 H1723 0.959 . S
C1717 H1724 0.961 . S
C1717 H1725 0.960 . S
C1718 C1716 1.381 . S
C1718 C1719 1.394 . S
C1718 H1726 0.930 . S
C1719 C1718 1.394 . S
C1719 C1720 1.383 . S
C1719 H1727 0.929 . S
C1720 C1719 1.383 . S
C1720 C1721 1.377 . S
C1721 H1705 0.930 . S
C1721 C1720 1.377 . S
C1721 C1722 1.379 . S
C1722 H1706 0.931 . S
C1722 C1716 1.383 . S
C1722 C1721 1.379 . S
H1723 C1717 0.959 . S
H1724 C1717 0.961 . S
H1725 C1717 0.960 . S
H1726 C1718 0.930 . S
H1727 C1719 0.929 . S
H1728 C1736 0.929 . S
H1729 C1738 0.930 . S
H1730 C1740 0.930 . S
H1731 C1743 0.929 . S
H1732 C1746 0.930 . S
H1733 C1748 0.960 . S
H1734 C1748 0.960 . S
H1735 C1748 0.960 . S
C1736 H1728 0.929 . S
C1736 C1737 1.377 . S
C1736 C1738 1.384 . S
C1737 C1736 1.377 . S
C1737 C1743 1.390 . S
C1738 H1729 0.930 . S
C1738 C1736 1.384 . S
C1738 C1739 1.372 . S
C1739 C1738 1.372 . S
C1739 C1740 1.400 . S
C1739 C1744 1.490 . S
C1740 H1730 0.930 . S
C1740 C1739 1.400 . S
C1740 C1743 1.386 . S
H1741 C1757 0.930 . S
H1742 C1758 0.931 . S
C1743 H1731 0.929 . S
C1743 C1737 1.390 . S
C1743 C1740 1.386 . S
C1744 C1739 1.490 . S
C1744 C1746 1.395 . S
C1744 C1747 1.403 . S
H1745 C1751 0.930 . S
C1746 H1732 0.930 . S
C1746 C1744 1.395 . S
C1746 C1749 1.403 . S
C1747 C1744 1.403 . S
C1747 C1748 1.524 . S
C1747 C1751 1.400 . S
C1748 H1733 0.960 . S
C1748 H1734 0.960 . S
C1748 H1735 0.960 . S
C1748 C1747 1.524 . S
C1749 C1746 1.403 . S
C1749 C1750 1.392 . S
C1749 C1753 1.495 . S
C1750 C1749 1.392 . S
C1750 C1751 1.385 . S
C1750 C1752 1.478 . S
C1751 H1745 0.930 . S
C1751 C1747 1.400 . S
C1751 C1750 1.385 . S
C1752 C1750 1.478 . S
C1752 C1754 1.381 . S
C1752 C1758 1.383 . S
C1753 C1749 1.495 . S
C1753 H1759 0.959 . S
C1753 H1760 0.961 . S
C1753 H1761 0.960 . S
C1754 C1752 1.381 . S
C1754 C1755 1.394 . S
C1754 H1762 0.930 . S
C1755 C1754 1.394 . S
C1755 C1756 1.383 . S
C1755 H1763 0.929 . S
C1756 C1755 1.383 . S
C1756 C1757 1.377 . S
C1757 H1741 0.930 . S
C1757 C1756 1.377 . S
C1757 C1758 1.379 . S
C1758 H1742 0.931 . S
C1758 C1752 1.383 . S
C1758 C1757 1.379 . S
H1759 C1753 0.959 . S
H1760 C1753 0.961 . S
H1761 C1753 0.960 . S
H1762 C1754 0.930 . S
H1763 C1755 0.929 . S
H1764 C1772 0.929 . S
H1765 C1774 0.956 . S
H1766 C1776 0.930 . S
H1767 C1779 0.929 . S
H1768 C1782 0.930 . S
H1769 C1784 0.960 . S
H1770 C1784 0.960 . S
H1771 C1784 0.960 . S
C1772 H1764 0.929 . S
C1772 C1773 1.377 1_455 S
C1772 C1774 1.392 . S
C1773 C1772 1.377 1_655 S
C1773 C1779 1.390 . S
C1774 H1765 0.956 . S
C1774 C1772 1.392 . S
C1774 C1775 1.339 1_455 S
C1775 C1774 1.339 1_655 S
C1775 C1776 1.400 . S
C1775 C1780 1.490 . S
C1776 H1766 0.930 . S
C1776 C1775 1.400 . S
C1776 C1779 1.386 . S
H1777 C1793 0.930 . S
H1778 C1794 0.931 . S
C1779 H1767 0.929 . S
C1779 C1773 1.390 . S
C1779 C1776 1.386 . S
C1780 C1775 1.490 . S
C1780 C1782 1.395 . S
C1780 C1783 1.403 . S
H1781 C1787 0.930 . S
C1782 H1768 0.930 . S
C1782 C1780 1.395 . S
C1782 C1785 1.403 . S
C1783 C1780 1.403 . S
C1783 C1784 1.524 . S
C1783 C1787 1.400 . S
C1784 H1769 0.960 . S
C1784 H1770 0.960 . S
C1784 H1771 0.960 . S
C1784 C1783 1.524 . S
C1785 C1782 1.403 . S
C1785 C1786 1.392 . S
C1785 C1789 1.495 . S
C1786 C1785 1.392 . S
C1786 C1787 1.385 . S
C1786 C1788 1.478 . S
C1787 H1781 0.930 . S
C1787 C1783 1.400 . S
C1787 C1786 1.385 . S
C1788 C1786 1.478 . S
C1788 C1790 1.381 . S
C1788 C1794 1.383 . S
C1789 C1785 1.495 . S
C1789 H1795 0.959 . S
C1789 H1796 0.961 . S
C1789 H1797 0.960 . S
C1790 C1788 1.381 . S
C1790 C1791 1.394 . S
C1790 H1798 0.930 . S
C1791 C1790 1.394 . S
C1791 C1792 1.383 . S
C1791 H1799 0.929 . S
C1792 C1791 1.383 . S
C1792 C1793 1.377 . S
C1793 H1777 0.930 . S
C1793 C1792 1.377 . S
C1793 C1794 1.379 . S
C1794 H1778 0.931 . S
C1794 C1788 1.383 . S
C1794 C1793 1.379 . S
H1795 C1789 0.959 . S
H1796 C1789 0.961 . S
H1797 C1789 0.960 . S
H1798 C1790 0.930 . S
H1799 C1791 0.929 . S
H1800 C1808 0.929 . S
H1801 C1810 0.930 . S
H1802 C1812 0.930 . S
H1803 C1815 0.929 . S
H1804 C1818 0.930 . S
H1805 C1820 0.960 . S
H1806 C1820 0.960 . S
H1807 C1820 0.960 . S
C1808 H1800 0.929 . S
C1808 C1809 1.377 . S
C1808 C1810 1.384 . S
C1809 C1808 1.377 . S
C1809 C1815 1.390 . S
C1810 H1801 0.930 . S
C1810 C1808 1.384 . S
C1810 C1811 1.372 . S
C1811 C1810 1.372 . S
C1811 C1812 1.400 . S
C1811 C1816 1.490 . S
C1812 H1802 0.930 . S
C1812 C1811 1.400 . S
C1812 C1815 1.386 . S
H1813 C1829 0.930 . S
H1814 C1830 0.931 . S
C1815 H1803 0.929 . S
C1815 C1809 1.390 . S
C1815 C1812 1.386 . S
C1816 C1811 1.490 . S
C1816 C1818 1.395 . S
C1816 C1819 1.403 . S
H1817 C1823 0.930 . S
C1818 H1804 0.930 . S
C1818 C1816 1.395 . S
C1818 C1821 1.403 . S
C1819 C1816 1.403 . S
C1819 C1820 1.524 . S
C1819 C1823 1.400 . S
C1820 H1805 0.960 . S
C1820 H1806 0.960 . S
C1820 H1807 0.960 . S
C1820 C1819 1.524 . S
C1821 C1818 1.403 . S
C1821 C1822 1.392 . S
C1821 C1825 1.495 . S
C1822 C1821 1.392 . S
C1822 C1823 1.385 . S
C1822 C1824 1.478 . S
C1823 H1817 0.930 . S
C1823 C1819 1.400 . S
C1823 C1822 1.385 . S
C1824 C1822 1.478 . S
C1824 C1826 1.381 . S
C1824 C1830 1.383 . S
C1825 C1821 1.495 . S
C1825 H1831 0.959 . S
C1825 H1832 0.961 . S
C1825 H1833 0.960 . S
C1826 C1824 1.381 . S
C1826 C1827 1.394 . S
C1826 H1834 0.930 . S
C1827 C1826 1.394 . S
C1827 C1828 1.383 . S
C1827 H1835 0.929 . S
C1828 C1827 1.383 . S
C1828 C1829 1.377 . S
C1829 H1813 0.930 . S
C1829 C1828 1.377 . S
C1829 C1830 1.379 . S
C1830 H1814 0.931 . S
C1830 C1824 1.383 . S
C1830 C1829 1.379 . S
H1831 C1825 0.959 . S
H1832 C1825 0.961 . S
H1833 C1825 0.960 . S
H1834 C1826 0.930 . S
H1835 C1827 0.929 . S
H1836 C1844 0.929 . S
H1837 C1846 0.930 . S
H1838 C1848 0.933 1_655 S
H1839 C1851 0.929 . S
H1840 C1854 0.930 . S
H1841 C1856 0.960 . S
H1842 C1856 0.960 . S
H1843 C1856 0.960 . S
C1844 H1836 0.929 . S
C1844 C1845 1.369 1_455 S
C1844 C1846 1.384 . S
C1845 C1844 1.369 1_655 S
C1845 C1851 1.390 . S
C1846 H1837 0.930 . S
C1846 C1844 1.384 . S
C1846 C1847 1.372 . S
C1847 C1846 1.372 . S
C1847 C1848 1.406 . S
C1847 C1852 1.490 . S
C1848 H1838 0.933 1_455 S
C1848 C1847 1.406 . S
C1848 C1851 1.379 1_455 S
H1849 C1865 0.930 . S
H1850 C1866 0.931 . S
C1851 H1839 0.929 . S
C1851 C1845 1.390 . S
C1851 C1848 1.379 1_655 S
C1852 C1847 1.490 . S
C1852 C1854 1.395 1_455 S
C1852 C1855 1.403 . S
H1853 C1859 0.930 . S
C1854 H1840 0.930 . S
C1854 C1852 1.395 1_655 S
C1854 C1857 1.403 . S
C1855 C1852 1.403 . S
C1855 C1856 1.524 . S
C1855 C1859 1.400 . S
C1856 H1841 0.960 . S
C1856 H1842 0.960 . S
C1856 H1843 0.960 . S
C1856 C1855 1.524 . S
C1857 C1854 1.403 . S
C1857 C1858 1.392 1_655 S
C1857 C1861 1.495 . S
C1858 C1857 1.392 1_455 S
C1858 C1859 1.385 . S
C1858 C1860 1.478 . S
C1859 H1853 0.930 . S
C1859 C1855 1.400 . S
C1859 C1858 1.385 . S
C1860 C1858 1.478 . S
C1860 C1862 1.381 . S
C1860 C1866 1.383 . S
C1861 C1857 1.495 . S
C1861 H1867 0.959 . S
C1861 H1868 0.961 . S
C1861 H1869 0.960 . S
C1862 C1860 1.381 . S
C1862 C1863 1.394 . S
C1862 H1870 0.930 . S
C1863 C1862 1.394 . S
C1863 C1864 1.383 . S
C1863 H1871 0.929 . S
C1864 C1863 1.383 . S
C1864 C1865 1.377 . S
C1865 H1849 0.930 . S
C1865 C1864 1.377 . S
C1865 C1866 1.379 . S
C1866 H1850 0.931 . S
C1866 C1860 1.383 . S
C1866 C1865 1.379 . S
H1867 C1861 0.959 . S
H1868 C1861 0.961 . S
H1869 C1861 0.960 . S
H1870 C1862 0.930 . S
H1871 C1863 0.929 . S
H1872 C1880 0.929 . S
H1873 C1882 0.930 . S
H1874 C1884 0.930 . S
H1875 C1887 0.929 . S
H1876 C1890 0.930 . S
H1877 C1892 0.960 . S
H1878 C1892 0.960 . S
H1879 C1892 0.960 . S
C1880 H1872 0.929 . S
C1880 C1881 1.377 . S
C1880 C1882 1.384 . S
C1881 C1880 1.377 . S
C1881 C1887 1.390 . S
C1882 H1873 0.930 . S
C1882 C1880 1.384 . S
C1882 C1883 1.372 . S
C1883 C1882 1.372 . S
C1883 C1884 1.400 . S
C1883 C1888 1.490 . S
C1884 H1874 0.930 . S
C1884 C1883 1.400 . S
C1884 C1887 1.386 . S
H1885 C1901 0.930 . S
H1886 C1902 0.931 . S
C1887 H1875 0.929 . S
C1887 C1881 1.390 . S
C1887 C1884 1.386 . S
C1888 C1883 1.490 . S
C1888 C1890 1.395 . S
C1888 C1891 1.403 . S
H1889 C1895 0.930 . S
C1890 H1876 0.930 . S
C1890 C1888 1.395 . S
C1890 C1893 1.403 . S
C1891 C1888 1.403 . S
C1891 C1892 1.524 . S
C1891 C1895 1.400 . S
C1892 H1877 0.960 . S
C1892 H1878 0.960 . S
C1892 H1879 0.960 . S
C1892 C1891 1.524 . S
C1893 C1890 1.403 . S
C1893 C1894 1.392 . S
C1893 C1897 1.495 . S
C1894 C1893 1.392 . S
C1894 C1895 1.385 . S
C1894 C1896 1.478 . S
C1895 H1889 0.930 . S
C1895 C1891 1.400 . S
C1895 C1894 1.385 . S
C1896 C1894 1.478 . S
C1896 C1898 1.381 . S
C1896 C1902 1.383 . S
C1897 C1893 1.495 . S
C1897 H1903 0.959 . S
C1897 H1904 0.961 . S
C1897 H1905 0.960 . S
C1898 C1896 1.381 . S
C1898 C1899 1.394 . S
C1898 H1906 0.930 . S
C1899 C1898 1.394 . S
C1899 C1900 1.383 . S
C1899 H1907 0.929 . S
C1900 C1899 1.383 . S
C1900 C1901 1.377 . S
C1901 H1885 0.930 . S
C1901 C1900 1.377 . S
C1901 C1902 1.379 . S
C1902 H1886 0.931 . S
C1902 C1896 1.383 . S
C1902 C1901 1.379 . S
H1903 C1897 0.959 . S
H1904 C1897 0.961 . S
H1905 C1897 0.960 . S
H1906 C1898 0.930 . S
H1907 C1899 0.929 . S
H1908 C1916 0.929 . S
H1909 C1918 0.930 . S
H1910 C1920 0.930 . S
H1911 C1923 0.929 . S
H1912 C1926 0.930 . S
H1913 C1928 0.960 . S
H1914 C1928 0.960 . S
H1915 C1928 0.960 . S
C1916 H1908 0.929 . S
C1916 C1917 1.377 . S
C1916 C1918 1.384 . S
C1917 C1916 1.377 . S
C1917 C1923 1.390 . S
C1918 H1909 0.930 . S
C1918 C1916 1.384 . S
C1918 C1919 1.372 . S
C1919 C1918 1.372 . S
C1919 C1920 1.400 . S
C1919 C1924 1.490 . S
C1920 H1910 0.930 . S
C1920 C1919 1.400 . S
C1920 C1923 1.386 . S
H1921 C1937 0.930 . S
H1922 C1938 0.931 . S
C1923 H1911 0.929 . S
C1923 C1917 1.390 . S
C1923 C1920 1.386 . S
C1924 C1919 1.490 . S
C1924 C1926 1.395 . S
C1924 C1927 1.403 . S
H1925 C1931 0.930 . S
C1926 H1912 0.930 . S
C1926 C1924 1.395 . S
C1926 C1929 1.403 . S
C1927 C1924 1.403 . S
C1927 C1928 1.524 . S
C1927 C1931 1.400 . S
C1928 H1913 0.960 . S
C1928 H1914 0.960 . S
C1928 H1915 0.960 . S
C1928 C1927 1.524 . S
C1929 C1926 1.403 . S
C1929 C1930 1.392 . S
C1929 C1933 1.495 . S
C1930 C1929 1.392 . S
C1930 C1931 1.385 . S
C1930 C1932 1.478 . S
C1931 H1925 0.930 . S
C1931 C1927 1.400 . S
C1931 C1930 1.385 . S
C1932 C1930 1.478 . S
C1932 C1934 1.381 . S
C1932 C1938 1.383 . S
C1933 C1929 1.495 . S
C1933 H1939 0.959 . S
C1933 H1940 0.961 . S
C1933 H1941 0.960 . S
C1934 C1932 1.381 . S
C1934 C1935 1.394 . S
C1934 H1942 0.930 . S
C1935 C1934 1.394 . S
C1935 C1936 1.383 . S
C1935 H1943 0.929 . S
C1936 C1935 1.383 . S
C1936 C1937 1.377 . S
C1937 H1921 0.930 . S
C1937 C1936 1.377 . S
C1937 C1938 1.379 . S
C1938 H1922 0.931 . S
C1938 C1932 1.383 . S
C1938 C1937 1.379 . S
H1939 C1933 0.959 . S
H1940 C1933 0.961 . S
H1941 C1933 0.960 . S
H1942 C1934 0.930 . S
H1943 C1935 0.929 . S
H1944 C1952 0.929 . S
H1945 C1954 0.938 . S
H1946 C1956 0.930 . S
H1947 C1959 0.929 . S
H1948 C1962 0.930 . S
H1949 C1964 0.960 . S
H1950 C1964 0.960 . S
H1951 C1964 0.960 . S
C1952 H1944 0.929 . S
C1952 C1953 1.377 . S
C1952 C1954 1.393 . S
C1953 C1952 1.377 . S
C1953 C1959 1.390 1_545 S
C1954 H1945 0.938 . S
C1954 C1952 1.393 . S
C1954 C1955 1.357 1_545 S
C1955 C1954 1.357 1_565 S
C1955 C1956 1.400 . S
C1955 C1960 1.490 . S
C1956 H1946 0.930 . S
C1956 C1955 1.400 . S
C1956 C1959 1.386 . S
H1957 C1973 0.930 . S
H1958 C1974 0.931 . S
C1959 H1947 0.929 . S
C1959 C1953 1.390 1_565 S
C1959 C1956 1.386 . S
C1960 C1955 1.490 . S
C1960 C1962 1.395 . S
C1960 C1963 1.403 1_565 S
H1961 C1967 0.930 1_545 S
C1962 H1948 0.930 . S
C1962 C1960 1.395 . S
C1962 C1965 1.403 . S
C1963 C1960 1.403 1_545 S
C1963 C1964 1.524 . S
C1963 C1967 1.400 1_545 S
C1964 H1949 0.960 . S
C1964 H1950 0.960 . S
C1964 H1951 0.960 . S
C1964 C1963 1.524 . S
C1965 C1962 1.403 . S
C1965 C1966 1.392 . S
C1965 C1969 1.495 . S
C1966 C1965 1.392 . S
C1966 C1967 1.385 . S
C1966 C1968 1.478 . S
C1967 H1961 0.930 1_565 S
C1967 C1963 1.400 1_565 S
C1967 C1966 1.385 . S
C1968 C1966 1.478 . S
C1968 C1970 1.381 . S
C1968 C1974 1.383 . S
C1969 C1965 1.495 . S
C1969 H1975 0.959 . S
C1969 H1976 0.961 . S
C1969 H1977 0.960 . S
C1970 C1968 1.381 . S
C1970 C1971 1.394 . S
C1970 H1978 0.930 . S
C1971 C1970 1.394 . S
C1971 C1972 1.383 . S
C1971 H1979 0.929 . S
C1972 C1971 1.383 . S
C1972 C1973 1.377 . S
C1973 H1957 0.930 . S
C1973 C1972 1.377 . S
C1973 C1974 1.379 . S
C1974 H1958 0.931 . S
C1974 C1968 1.383 . S
C1974 C1973 1.379 . S
H1975 C1969 0.959 . S
H1976 C1969 0.961 . S
H1977 C1969 0.960 . S
H1978 C1970 0.930 . S
H1979 C1971 0.929 . S
H1980 C1988 0.929 . S
H1981 C1990 0.931 1_565 S
H1982 C1992 0.930 . S
H1983 C1995 0.929 . S
H1984 C1998 0.930 . S
H1985 C2000 0.960 . S
H1986 C2000 0.978 . S
H1987 C2000 0.960 . S
C1988 H1980 0.929 . S
C1988 C1989 1.377 1_565 S
C1988 C1990 1.384 1_565 S
C1989 C1988 1.377 1_545 S
C1989 C1995 1.390 . S
C1990 H1981 0.931 1_545 S
C1990 C1988 1.384 1_545 S
C1990 C1991 1.372 . S
C1991 C1990 1.372 . S
C1991 C1992 1.400 . S
C1991 C1996 1.490 . S
C1992 H1982 0.930 . S
C1992 C1991 1.400 . S
C1992 C1995 1.386 . S
H1993 C2009 0.930 . S
H1994 C2010 0.931 . S
C1995 H1983 0.929 . S
C1995 C1989 1.390 . S
C1995 C1992 1.386 . S
C1996 C1991 1.490 . S
C1996 C1998 1.395 . S
C1996 C1999 1.403 . S
H1997 C2003 0.930 . S
C1998 H1984 0.930 . S
C1998 C1996 1.395 . S
C1998 C2001 1.403 . S
C1999 C1996 1.403 . S
C1999 C2000 1.524 . S
C1999 C2003 1.400 . S
C2000 H1985 0.960 . S
C2000 H1986 0.978 . S
C2000 H1987 0.960 . S
C2000 C1999 1.524 . S
C2001 C1998 1.403 . S
C2001 C2002 1.392 . S
C2001 C2005 1.495 . S
C2002 C2001 1.392 . S
C2002 C2003 1.385 . S
C2002 C2004 1.478 . S
C2003 H1997 0.930 . S
C2003 C1999 1.400 . S
C2003 C2002 1.385 . S
C2004 C2002 1.478 . S
C2004 C2006 1.381 . S
C2004 C2010 1.383 . S
C2005 C2001 1.495 . S
C2005 H2011 0.959 . S
C2005 H2012 0.961 . S
C2005 H2013 0.960 . S
C2006 C2004 1.381 . S
C2006 C2007 1.394 . S
C2006 H2014 0.930 . S
C2007 C2006 1.394 . S
C2007 C2008 1.383 . S
C2007 H2015 0.929 . S
C2008 C2007 1.383 . S
C2008 C2009 1.377 . S
C2009 H1993 0.930 . S
C2009 C2008 1.377 . S
C2009 C2010 1.379 . S
C2010 H1994 0.931 . S
C2010 C2004 1.383 . S
C2010 C2009 1.379 . S
H2011 C2005 0.959 . S
H2012 C2005 0.961 . S
H2013 C2005 0.960 . S
H2014 C2006 0.930 . S
H2015 C2007 0.929 . S
H2016 C2024 0.929 . S
H2017 C2026 0.930 . S
H2018 C2028 0.930 . S
H2019 C2031 0.929 . S
H2020 C2034 0.930 . S
H2021 C2036 0.960 . S
H2022 C2036 0.960 . S
H2023 C2036 0.960 . S
C2024 H2016 0.929 . S
C2024 C2025 1.377 . S
C2024 C2026 1.384 . S
C2025 C2024 1.377 . S
C2025 C2031 1.390 . S
C2026 H2017 0.930 . S
C2026 C2024 1.384 . S
C2026 C2027 1.372 . S
C2027 C2026 1.372 . S
C2027 C2028 1.400 . S
C2027 C2032 1.490 . S
C2028 H2018 0.930 . S
C2028 C2027 1.400 . S
C2028 C2031 1.386 . S
H2029 C2045 0.930 . S
H2030 C2046 0.931 . S
C2031 H2019 0.929 . S
C2031 C2025 1.390 . S
C2031 C2028 1.386 . S
C2032 C2027 1.490 . S
C2032 C2034 1.395 . S
C2032 C2035 1.403 . S
H2033 C2039 0.930 . S
C2034 H2020 0.930 . S
C2034 C2032 1.395 . S
C2034 C2037 1.403 . S
C2035 C2032 1.403 . S
C2035 C2036 1.524 . S
C2035 C2039 1.400 . S
C2036 H2021 0.960 . S
C2036 H2022 0.960 . S
C2036 H2023 0.960 . S
C2036 C2035 1.524 . S
C2037 C2034 1.403 . S
C2037 C2038 1.392 . S
C2037 C2041 1.495 . S
C2038 C2037 1.392 . S
C2038 C2039 1.385 . S
C2038 C2040 1.478 . S
C2039 H2033 0.930 . S
C2039 C2035 1.400 . S
C2039 C2038 1.385 . S
C2040 C2038 1.478 . S
C2040 C2042 1.381 . S
C2040 C2046 1.383 . S
C2041 C2037 1.495 . S
C2041 H2047 0.959 . S
C2041 H2048 0.961 . S
C2041 H2049 0.960 . S
C2042 C2040 1.381 . S
C2042 C2043 1.394 . S
C2042 H2050 0.930 . S
C2043 C2042 1.394 . S
C2043 C2044 1.383 . S
C2043 H2051 0.929 . S
C2044 C2043 1.383 . S
C2044 C2045 1.377 . S
C2045 H2029 0.930 . S
C2045 C2044 1.377 . S
C2045 C2046 1.379 . S
C2046 H2030 0.931 . S
C2046 C2040 1.383 . S
C2046 C2045 1.379 . S
H2047 C2041 0.959 . S
H2048 C2041 0.961 . S
H2049 C2041 0.960 . S
H2050 C2042 0.930 . S
H2051 C2043 0.929 . S
H2052 C2060 0.929 . S
H2053 C2062 0.930 . S
H2054 C2064 0.930 . S
H2055 C2067 0.929 . S
H2056 C2070 0.958 . S
H2057 C2072 0.960 . S
H2058 C2072 0.960 . S
H2059 C2072 0.960 . S
C2060 H2052 0.929 . S
C2060 C2061 1.377 . S
C2060 C2062 1.384 . S
C2061 C2060 1.377 . S
C2061 C2067 1.390 . S
C2062 H2053 0.930 . S
C2062 C2060 1.384 . S
C2062 C2063 1.372 . S
C2063 C2062 1.372 . S
C2063 C2064 1.400 . S
C2063 C2068 1.490 . S
C2064 H2054 0.930 . S
C2064 C2063 1.400 . S
C2064 C2067 1.386 . S
H2065 C2081 0.930 . S
H2066 C2082 0.931 . S
C2067 H2055 0.929 . S
C2067 C2061 1.390 . S
C2067 C2064 1.386 . S
C2068 C2063 1.490 . S
C2068 C2070 1.395 . S
C2068 C2071 1.403 . S
H2069 C2075 0.930 . S
C2070 H2056 0.958 . S
C2070 C2068 1.395 . S
C2070 C2073 1.403 . S
C2071 C2068 1.403 . S
C2071 C2072 1.524 . S
C2071 C2075 1.400 . S
C2072 H2057 0.960 . S
C2072 H2058 0.960 . S
C2072 H2059 0.960 . S
C2072 C2071 1.524 . S
C2073 C2070 1.403 . S
C2073 C2074 1.392 . S
C2073 C2077 1.495 . S
C2074 C2073 1.392 . S
C2074 C2075 1.385 . S
C2074 C2076 1.478 . S
C2075 H2069 0.930 . S
C2075 C2071 1.400 . S
C2075 C2074 1.385 . S
C2076 C2074 1.478 . S
C2076 C2078 1.381 . S
C2076 C2082 1.383 . S
C2077 C2073 1.495 . S
C2077 H2083 0.959 1_554 S
C2077 H2084 0.975 . S
C2077 H2085 0.960 . S
C2078 C2076 1.381 . S
C2078 C2079 1.394 . S
C2078 H2086 0.930 . S
C2079 C2078 1.394 . S
C2079 C2080 1.383 . S
C2079 H2087 0.929 . S
C2080 C2079 1.383 . S
C2080 C2081 1.377 . S
C2081 H2065 0.930 . S
C2081 C2080 1.377 . S
C2081 C2082 1.379 . S
C2082 H2066 0.931 . S
C2082 C2076 1.383 . S
C2082 C2081 1.379 . S
H2083 C2077 0.959 1_556 S
H2084 C2077 0.975 . S
H2085 C2077 0.960 . S
H2086 C2078 0.930 . S
H2087 C2079 0.929 . S
H2088 C2096 0.929 . S
H2089 C2098 0.930 . S
H2090 C2100 0.930 . S
H2091 C2103 0.929 . S
H2092 C2106 0.930 . S
H2093 C2108 0.960 . S
H2094 C2108 0.960 . S
H2095 C2108 0.960 . S
C2096 H2088 0.929 . S
C2096 C2097 1.377 . S
C2096 C2098 1.384 . S
C2097 C2096 1.377 . S
C2097 C2103 1.390 . S
C2098 H2089 0.930 . S
C2098 C2096 1.384 . S
C2098 C2099 1.372 . S
C2099 C2098 1.372 . S
C2099 C2100 1.400 . S
C2099 C2104 1.490 . S
C2100 H2090 0.930 . S
C2100 C2099 1.400 . S
C2100 C2103 1.386 . S
H2101 C2117 0.930 . S
H2102 C2118 0.931 . S
C2103 H2091 0.929 . S
C2103 C2097 1.390 . S
C2103 C2100 1.386 . S
C2104 C2099 1.490 . S
C2104 C2106 1.395 . S
C2104 C2107 1.403 . S
H2105 C2111 0.930 . S
C2106 H2092 0.930 . S
C2106 C2104 1.395 . S
C2106 C2109 1.403 . S
C2107 C2104 1.403 . S
C2107 C2108 1.524 . S
C2107 C2111 1.400 . S
C2108 H2093 0.960 . S
C2108 H2094 0.960 . S
C2108 H2095 0.960 . S
C2108 C2107 1.524 . S
C2109 C2106 1.403 . S
C2109 C2110 1.392 . S
C2109 C2113 1.495 . S
C2110 C2109 1.392 . S
C2110 C2111 1.385 . S
C2110 C2112 1.478 . S
C2111 H2105 0.930 . S
C2111 C2107 1.400 . S
C2111 C2110 1.385 . S
C2112 C2110 1.478 . S
C2112 C2114 1.381 . S
C2112 C2118 1.383 . S
C2113 C2109 1.495 . S
C2113 H2119 0.959 . S
C2113 H2120 0.961 . S
C2113 H2121 0.960 . S
C2114 C2112 1.381 . S
C2114 C2115 1.394 . S
C2114 H2122 0.930 . S
C2115 C2114 1.394 . S
C2115 C2116 1.383 . S
C2115 H2123 0.929 . S
C2116 C2115 1.383 . S
C2116 C2117 1.377 . S
C2117 H2101 0.930 . S
C2117 C2116 1.377 . S
C2117 C2118 1.379 . S
C2118 H2102 0.931 . S
C2118 C2112 1.383 . S
C2118 C2117 1.379 . S
H2119 C2113 0.959 . S
H2120 C2113 0.961 . S
H2121 C2113 0.960 . S
H2122 C2114 0.930 . S
H2123 C2115 0.929 . S
H2124 C2132 0.929 . S
H2125 C2134 0.930 . S
H2126 C2136 0.930 . S
H2127 C2139 0.929 . S
H2128 C2142 0.930 . S
H2129 C2144 0.960 . S
H2130 C2144 0.960 . S
H2131 C2144 0.960 . S
C2132 H2124 0.929 . S
C2132 C2133 1.377 . S
C2132 C2134 1.384 . S
C2133 C2132 1.377 . S
C2133 C2139 1.390 1_554 S
C2134 H2125 0.930 . S
C2134 C2132 1.384 . S
C2134 C2135 1.372 1_554 S
C2135 C2134 1.372 1_556 S
C2135 C2136 1.400 . S
C2135 C2140 1.490 . S
C2136 H2126 0.930 . S
C2136 C2135 1.400 . S
C2136 C2139 1.386 . S
H2137 C2153 0.930 . S
H2138 C2154 0.931 . S
C2139 H2127 0.929 . S
C2139 C2133 1.390 1_556 S
C2139 C2136 1.386 . S
C2140 C2135 1.490 . S
C2140 C2142 1.395 1_556 S
C2140 C2143 1.403 . S
H2141 C2147 0.930 . S
C2142 H2128 0.930 . S
C2142 C2140 1.395 1_554 S
C2142 C2145 1.403 . S
C2143 C2140 1.403 . S
C2143 C2144 1.524 . S
C2143 C2147 1.400 . S
C2144 H2129 0.960 . S
C2144 H2130 0.960 . S
C2144 H2131 0.960 . S
C2144 C2143 1.524 . S
C2145 C2142 1.403 . S
C2145 C2146 1.392 1_554 S
C2145 C2149 1.495 . S
C2146 C2145 1.392 1_556 S
C2146 C2147 1.385 . S
C2146 C2148 1.478 . S
C2147 H2141 0.930 . S
C2147 C2143 1.400 . S
C2147 C2146 1.385 . S
C2148 C2146 1.478 . S
C2148 C2150 1.381 . S
C2148 C2154 1.383 . S
C2149 C2145 1.495 . S
C2149 H2155 0.959 . S
C2149 H2156 0.961 . S
C2149 H2157 0.960 . S
C2150 C2148 1.381 . S
C2150 C2151 1.394 . S
C2150 H2158 0.930 . S
C2151 C2150 1.394 . S
C2151 C2152 1.383 . S
C2151 H2159 0.929 . S
C2152 C2151 1.383 . S
C2152 C2153 1.377 . S
C2153 H2137 0.930 . S
C2153 C2152 1.377 . S
C2153 C2154 1.379 . S
C2154 H2138 0.931 . S
C2154 C2148 1.383 . S
C2154 C2153 1.379 . S
H2155 C2149 0.959 . S
H2156 C2149 0.961 . S
H2157 C2149 0.960 . S
H2158 C2150 0.930 . S
H2159 C2151 0.929 . S
H2160 C2168 0.929 . S
H2161 C2170 0.930 . S
H2162 C2172 0.930 . S
H2163 C2175 0.929 . S
H2164 C2178 0.930 . S
H2165 C2180 0.960 . S
H2166 C2180 0.960 . S
H2167 C2180 0.960 . S
C2168 H2160 0.929 . S
C2168 C2169 1.377 . S
C2168 C2170 1.384 . S
C2169 C2168 1.377 . S
C2169 C2175 1.390 . S
C2170 H2161 0.930 . S
C2170 C2168 1.384 . S
C2170 C2171 1.372 . S
C2171 C2170 1.372 . S
C2171 C2172 1.400 . S
C2171 C2176 1.490 . S
C2172 H2162 0.930 . S
C2172 C2171 1.400 . S
C2172 C2175 1.386 . S
H2173 C2189 0.930 . S
H2174 C2190 0.931 . S
C2175 H2163 0.929 . S
C2175 C2169 1.390 . S
C2175 C2172 1.386 . S
C2176 C2171 1.490 . S
C2176 C2178 1.395 . S
C2176 C2179 1.403 . S
H2177 C2183 0.930 . S
C2178 H2164 0.930 . S
C2178 C2176 1.395 . S
C2178 C2181 1.403 . S
C2179 C2176 1.403 . S
C2179 C2180 1.524 . S
C2179 C2183 1.400 . S
C2180 H2165 0.960 . S
C2180 H2166 0.960 . S
C2180 H2167 0.960 . S
C2180 C2179 1.524 . S
C2181 C2178 1.403 . S
C2181 C2182 1.392 . S
C2181 C2185 1.495 . S
C2182 C2181 1.392 . S
C2182 C2183 1.385 . S
C2182 C2184 1.478 . S
C2183 H2177 0.930 . S
C2183 C2179 1.400 . S
C2183 C2182 1.385 . S
C2184 C2182 1.478 . S
C2184 C2186 1.381 . S
C2184 C2190 1.383 . S
C2185 C2181 1.495 . S
C2185 H2191 0.959 . S
C2185 H2192 0.961 . S
C2185 H2193 0.960 . S
C2186 C2184 1.381 . S
C2186 C2187 1.394 . S
C2186 H2194 0.930 . S
C2187 C2186 1.394 . S
C2187 C2188 1.383 . S
C2187 H2195 0.929 . S
C2188 C2187 1.383 . S
C2188 C2189 1.377 . S
C2189 H2173 0.930 . S
C2189 C2188 1.377 . S
C2189 C2190 1.379 . S
C2190 H2174 0.931 . S
C2190 C2184 1.383 . S
C2190 C2189 1.379 . S
H2191 C2185 0.959 . S
H2192 C2185 0.961 . S
H2193 C2185 0.960 . S
H2194 C2186 0.930 . S
H2195 C2187 0.929 . S
H2196 C2204 0.929 . S
H2197 C2206 0.930 . S
H2198 C2208 0.930 1_655 S
H2199 C2211 0.929 . S
H2200 C2214 0.930 . S
H2201 C2216 0.960 . S
H2202 C2216 0.960 . S
H2203 C2216 0.960 . S
C2204 H2196 0.929 . S
C2204 C2205 1.377 . S
C2204 C2206 1.384 . S
C2205 C2204 1.377 . S
C2205 C2211 1.390 1_455 S
C2206 H2197 0.930 . S
C2206 C2204 1.384 . S
C2206 C2207 1.372 . S
C2207 C2206 1.372 . S
C2207 C2208 1.400 . S
C2207 C2212 1.490 . S
C2208 H2198 0.930 1_455 S
C2208 C2207 1.400 . S
C2208 C2211 1.386 1_455 S
H2209 C2225 0.930 . S
H2210 C2226 0.931 . S
C2211 H2199 0.929 . S
C2211 C2205 1.390 1_655 S
C2211 C2208 1.386 1_655 S
C2212 C2207 1.490 . S
C2212 C2214 1.395 . S
C2212 C2215 1.403 . S
H2213 C2219 0.930 . S
C2214 H2200 0.930 . S
C2214 C2212 1.395 . S
C2214 C2217 1.403 . S
C2215 C2212 1.403 . S
C2215 C2216 1.524 . S
C2215 C2219 1.400 . S
C2216 H2201 0.960 . S
C2216 H2202 0.960 . S
C2216 H2203 0.960 . S
C2216 C2215 1.524 . S
C2217 C2214 1.403 . S
C2217 C2218 1.392 . S
C2217 C2221 1.495 . S
C2218 C2217 1.392 . S
C2218 C2219 1.385 . S
C2218 C2220 1.478 . S
C2219 H2213 0.930 . S
C2219 C2215 1.400 . S
C2219 C2218 1.385 . S
C2220 C2218 1.478 . S
C2220 C2222 1.381 . S
C2220 C2226 1.383 . S
C2221 C2217 1.495 . S
C2221 H2227 0.959 . S
C2221 H2228 0.961 . S
C2221 H2229 0.960 . S
C2222 C2220 1.381 . S
C2222 C2223 1.394 . S
C2222 H2230 0.930 . S
C2223 C2222 1.394 . S
C2223 C2224 1.383 . S
C2223 H2231 0.929 . S
C2224 C2223 1.383 . S
C2224 C2225 1.377 . S
C2225 H2209 0.930 . S
C2225 C2224 1.377 . S
C2225 C2226 1.379 . S
C2226 H2210 0.931 . S
C2226 C2220 1.383 . S
C2226 C2225 1.379 . S
H2227 C2221 0.959 . S
H2228 C2221 0.961 . S
H2229 C2221 0.960 . S
H2230 C2222 0.930 . S
H2231 C2223 0.929 . S
H2232 C2240 0.929 . S
H2233 C2242 0.930 . S
H2234 C2244 0.930 . S
H2235 C2247 0.929 . S
H2236 C2250 0.930 . S
H2237 C2252 0.960 . S
H2238 C2252 0.960 . S
H2239 C2252 0.960 . S
C2240 H2232 0.929 . S
C2240 C2241 1.377 . S
C2240 C2242 1.384 . S
C2241 C2240 1.377 . S
C2241 C2247 1.390 . S
C2242 H2233 0.930 . S
C2242 C2240 1.384 . S
C2242 C2243 1.372 . S
C2243 C2242 1.372 . S
C2243 C2244 1.400 . S
C2243 C2248 1.490 . S
C2244 H2234 0.930 . S
C2244 C2243 1.400 . S
C2244 C2247 1.386 . S
H2245 C2261 0.930 . S
H2246 C2262 0.931 . S
C2247 H2235 0.929 . S
C2247 C2241 1.390 . S
C2247 C2244 1.386 . S
C2248 C2243 1.490 . S
C2248 C2250 1.395 . S
C2248 C2251 1.403 . S
H2249 C2255 0.930 . S
C2250 H2236 0.930 . S
C2250 C2248 1.395 . S
C2250 C2253 1.403 . S
C2251 C2248 1.403 . S
C2251 C2252 1.524 . S
C2251 C2255 1.400 . S
C2252 H2237 0.960 . S
C2252 H2238 0.960 . S
C2252 H2239 0.960 . S
C2252 C2251 1.524 . S
C2253 C2250 1.403 . S
C2253 C2254 1.392 . S
C2253 C2257 1.495 . S
C2254 C2253 1.392 . S
C2254 C2255 1.385 . S
C2254 C2256 1.478 . S
C2255 H2249 0.930 . S
C2255 C2251 1.400 . S
C2255 C2254 1.385 . S
C2256 C2254 1.478 . S
C2256 C2258 1.381 . S
C2256 C2262 1.383 . S
C2257 C2253 1.495 . S
C2257 H2263 0.959 . S
C2257 H2264 0.961 . S
C2257 H2265 0.960 . S
C2258 C2256 1.381 . S
C2258 C2259 1.394 . S
C2258 H2266 0.930 . S
C2259 C2258 1.394 . S
C2259 C2260 1.383 . S
C2259 H2267 0.929 . S
C2260 C2259 1.383 . S
C2260 C2261 1.377 . S
C2261 H2245 0.930 . S
C2261 C2260 1.377 . S
C2261 C2262 1.379 . S
C2262 H2246 0.931 . S
C2262 C2256 1.383 . S
C2262 C2261 1.379 . S
H2263 C2257 0.959 . S
H2264 C2257 0.961 . S
H2265 C2257 0.960 . S
H2266 C2258 0.930 . S
H2267 C2259 0.929 . S
H2268 C2276 0.929 . S
H2269 C2278 0.930 . S
H2270 C2280 0.930 . S
H2271 C2283 0.929 . S
H2272 C2286 0.931 1_455 S
H2273 C2288 0.960 . S
H2274 C2288 0.960 . S
H2275 C2288 0.960 . S
C2276 H2268 0.929 . S
C2276 C2277 1.377 . S
C2276 C2278 1.384 . S
C2277 C2276 1.377 . S
C2277 C2283 1.390 1_455 S
C2278 H2269 0.930 . S
C2278 C2276 1.384 . S
C2278 C2279 1.372 1_455 S
C2279 C2278 1.372 1_655 S
C2279 C2280 1.400 . S
C2279 C2284 1.490 . S
C2280 H2270 0.930 . S
C2280 C2279 1.400 . S
C2280 C2283 1.386 . S
H2281 C2297 0.930 . S
H2282 C2298 0.931 . S
C2283 H2271 0.929 . S
C2283 C2277 1.390 1_655 S
C2283 C2280 1.386 . S
C2284 C2279 1.490 . S
C2284 C2286 1.394 . S
C2284 C2287 1.403 . S
H2285 C2291 0.930 . S
C2286 H2272 0.931 1_655 S
C2286 C2284 1.394 . S
C2286 C2289 1.403 . S
C2287 C2284 1.403 . S
C2287 C2288 1.524 . S
C2287 C2291 1.400 . S
C2288 H2273 0.960 . S
C2288 H2274 0.960 . S
C2288 H2275 0.960 . S
C2288 C2287 1.524 . S
C2289 C2286 1.403 . S
C2289 C2290 1.392 . S
C2289 C2293 1.495 1_655 S
C2290 C2289 1.392 . S
C2290 C2291 1.385 . S
C2290 C2292 1.478 . S
C2291 H2285 0.930 . S
C2291 C2287 1.400 . S
C2291 C2290 1.385 . S
C2292 C2290 1.478 . S
C2292 C2294 1.379 . S
C2292 C2298 1.383 . S
C2293 C2289 1.495 1_455 S
C2293 H2299 0.959 . S
C2293 H2300 0.961 1_455 S
C2293 H2301 0.960 . S
C2294 C2292 1.379 . S
C2294 C2295 1.393 . S
C2294 H2302 0.934 1_655 S
C2295 C2294 1.393 . S
C2295 C2296 1.383 . S
C2295 H2303 0.929 1_655 S
C2296 C2295 1.383 . S
C2296 C2297 1.377 . S
C2297 H2281 0.930 . S
C2297 C2296 1.377 . S
C2297 C2298 1.379 . S
C2298 H2282 0.931 . S
C2298 C2292 1.383 . S
C2298 C2297 1.379 . S
H2299 C2293 0.959 . S
H2300 C2293 0.961 1_655 S
H2301 C2293 0.960 . S
H2302 C2294 0.934 1_455 S
H2303 C2295 0.929 1_455 S
H2304 C2312 0.929 . S
H2305 C2314 0.930 . S
H2306 C2316 0.930 . S
H2307 C2319 0.929 . S
H2308 C2322 0.930 . S
H2309 C2324 0.960 . S
H2310 C2324 0.960 . S
H2311 C2324 0.960 . S
C2312 H2304 0.929 . S
C2312 C2313 1.377 . S
C2312 C2314 1.384 . S
C2313 C2312 1.377 . S
C2313 C2319 1.390 . S
C2314 H2305 0.930 . S
C2314 C2312 1.384 . S
C2314 C2315 1.372 . S
C2315 C2314 1.372 . S
C2315 C2316 1.400 . S
C2315 C2320 1.490 . S
C2316 H2306 0.930 . S
C2316 C2315 1.400 . S
C2316 C2319 1.386 . S
H2317 C2333 0.930 . S
H2318 C2334 0.931 . S
C2319 H2307 0.929 . S
C2319 C2313 1.390 . S
C2319 C2316 1.386 . S
C2320 C2315 1.490 . S
C2320 C2322 1.395 . S
C2320 C2323 1.403 . S
H2321 C2327 0.930 . S
C2322 H2308 0.930 . S
C2322 C2320 1.395 . S
C2322 C2325 1.403 . S
C2323 C2320 1.403 . S
C2323 C2324 1.524 . S
C2323 C2327 1.400 . S
C2324 H2309 0.960 . S
C2324 H2310 0.960 . S
C2324 H2311 0.960 . S
C2324 C2323 1.524 . S
C2325 C2322 1.403 . S
C2325 C2326 1.392 . S
C2325 C2329 1.495 . S
C2326 C2325 1.392 . S
C2326 C2327 1.385 . S
C2326 C2328 1.478 . S
C2327 H2321 0.930 . S
C2327 C2323 1.400 . S
C2327 C2326 1.385 . S
C2328 C2326 1.478 . S
C2328 C2330 1.381 . S
C2328 C2334 1.383 . S
C2329 C2325 1.495 . S
C2329 H2335 0.959 . S
C2329 H2336 0.961 . S
C2329 H2337 0.960 . S
C2330 C2328 1.381 . S
C2330 C2331 1.394 . S
C2330 H2338 0.930 . S
C2331 C2330 1.394 . S
C2331 C2332 1.383 . S
C2331 H2339 0.929 . S
C2332 C2331 1.383 . S
C2332 C2333 1.377 . S
C2333 H2317 0.930 . S
C2333 C2332 1.377 . S
C2333 C2334 1.379 . S
C2334 H2318 0.931 . S
C2334 C2328 1.383 . S
C2334 C2333 1.379 . S
H2335 C2329 0.959 . S
H2336 C2329 0.961 . S
H2337 C2329 0.960 . S
H2338 C2330 0.930 . S
H2339 C2331 0.929 . S
H2340 C2348 0.929 . S
H2341 C2350 0.930 . S
H2342 C2352 0.930 . S
H2343 C2355 0.929 . S
H2344 C2358 0.930 . S
H2345 C2360 0.960 . S
H2346 C2360 0.960 . S
H2347 C2360 0.960 . S
C2348 H2340 0.929 . S
C2348 C2349 1.377 . S
C2348 C2350 1.384 . S
C2349 C2348 1.377 . S
C2349 C2355 1.390 . S
C2350 H2341 0.930 . S
C2350 C2348 1.384 . S
C2350 C2351 1.372 . S
C2351 C2350 1.372 . S
C2351 C2352 1.400 . S
C2351 C2356 1.490 . S
C2352 H2342 0.930 . S
C2352 C2351 1.400 . S
C2352 C2355 1.386 . S
H2353 C2369 0.930 . S
H2354 C2370 0.931 . S
C2355 H2343 0.929 . S
C2355 C2349 1.390 . S
C2355 C2352 1.386 . S
C2356 C2351 1.490 . S
C2356 C2358 1.395 . S
C2356 C2359 1.403 . S
H2357 C2363 0.930 . S
C2358 H2344 0.930 . S
C2358 C2356 1.395 . S
C2358 C2361 1.403 . S
C2359 C2356 1.403 . S
C2359 C2360 1.524 . S
C2359 C2363 1.400 . S
C2360 H2345 0.960 . S
C2360 H2346 0.960 . S
C2360 H2347 0.960 . S
C2360 C2359 1.524 . S
C2361 C2358 1.403 . S
C2361 C2362 1.392 . S
C2361 C2365 1.495 . S
C2362 C2361 1.392 . S
C2362 C2363 1.385 . S
C2362 C2364 1.478 . S
C2363 H2357 0.930 . S
C2363 C2359 1.400 . S
C2363 C2362 1.385 . S
C2364 C2362 1.478 . S
C2364 C2366 1.381 . S
C2364 C2370 1.383 . S
C2365 C2361 1.495 . S
C2365 H2371 0.959 . S
C2365 H2372 0.961 . S
C2365 H2373 0.960 . S
C2366 C2364 1.381 . S
C2366 C2367 1.394 . S
C2366 H2374 0.930 . S
C2367 C2366 1.394 . S
C2367 C2368 1.383 . S
C2367 H2375 0.929 . S
C2368 C2367 1.383 . S
C2368 C2369 1.377 . S
C2369 H2353 0.930 . S
C2369 C2368 1.377 . S
C2369 C2370 1.379 . S
C2370 H2354 0.931 . S
C2370 C2364 1.383 . S
C2370 C2369 1.379 . S
H2371 C2365 0.959 . S
H2372 C2365 0.961 . S
H2373 C2365 0.960 . S
H2374 C2366 0.930 . S
H2375 C2367 0.929 . S
H2376 C2384 0.929 . S
H2377 C2386 0.930 . S
H2378 C2388 0.930 . S
H2379 C2391 0.929 . S
H2380 C2394 0.930 . S
H2381 C2396 0.960 . S
H2382 C2396 0.960 . S
H2383 C2396 0.960 . S
C2384 H2376 0.929 . S
C2384 C2385 1.361 1_565 S
C2384 C2386 1.384 . S
C2385 C2384 1.361 1_545 S
C2385 C2391 1.408 . S
C2386 H2377 0.930 . S
C2386 C2384 1.384 . S
C2386 C2387 1.372 1_565 S
C2387 C2386 1.372 1_545 S
C2387 C2388 1.400 . S
C2387 C2392 1.490 . S
C2388 H2378 0.930 . S
C2388 C2387 1.400 . S
C2388 C2391 1.386 . S
H2389 C2405 0.930 . S
H2390 C2406 0.931 . S
C2391 H2379 0.929 . S
C2391 C2385 1.408 . S
C2391 C2388 1.386 . S
C2392 C2387 1.490 . S
C2392 C2394 1.395 1_545 S
C2392 C2395 1.403 . S
H2393 C2399 0.930 . S
C2394 H2380 0.930 . S
C2394 C2392 1.395 1_565 S
C2394 C2397 1.403 . S
C2395 C2392 1.403 . S
C2395 C2396 1.524 . S
C2395 C2399 1.400 . S
C2396 H2381 0.960 . S
C2396 H2382 0.960 . S
C2396 H2383 0.960 . S
C2396 C2395 1.524 . S
C2397 C2394 1.403 . S
C2397 C2398 1.392 1_565 S
C2397 C2401 1.495 . S
C2398 C2397 1.392 1_545 S
C2398 C2399 1.385 . S
C2398 C2400 1.478 . S
C2399 H2393 0.930 . S
C2399 C2395 1.400 . S
C2399 C2398 1.385 . S
C2400 C2398 1.478 . S
C2400 C2402 1.381 . S
C2400 C2406 1.383 . S
C2401 C2397 1.495 . S
C2401 H2407 0.959 . S
C2401 H2408 0.961 . S
C2401 H2409 0.960 . S
C2402 C2400 1.381 . S
C2402 C2403 1.394 . S
C2402 H2410 0.930 1_545 S
C2403 C2402 1.394 . S
C2403 C2404 1.383 . S
C2403 H2411 0.929 . S
C2404 C2403 1.383 . S
C2404 C2405 1.377 . S
C2405 H2389 0.930 . S
C2405 C2404 1.377 . S
C2405 C2406 1.379 . S
C2406 H2390 0.931 . S
C2406 C2400 1.383 . S
C2406 C2405 1.379 . S
H2407 C2401 0.959 . S
H2408 C2401 0.961 . S
H2409 C2401 0.960 . S
H2410 C2402 0.930 1_565 S
H2411 C2403 0.929 . S
H2412 C2420 0.929 . S
H2413 C2422 0.930 . S
H2414 C2424 0.930 . S
H2415 C2427 0.921 1_545 S
H2416 C2430 0.930 . S
H2417 C2432 0.960 . S
H2418 C2432 0.960 . S
H2419 C2432 0.960 . S
C2420 H2412 0.929 . S
C2420 C2421 1.377 . S
C2420 C2422 1.384 . S
C2421 C2420 1.377 . S
C2421 C2427 1.392 . S
C2422 H2413 0.930 . S
C2422 C2420 1.384 . S
C2422 C2423 1.372 . S
C2423 C2422 1.372 . S
C2423 C2424 1.400 . S
C2423 C2428 1.490 . S
C2424 H2414 0.930 . S
C2424 C2423 1.400 . S
C2424 C2427 1.395 . S
H2425 C2441 0.930 . S
H2426 C2442 0.931 . S
C2427 H2415 0.921 1_565 S
C2427 C2421 1.392 . S
C2427 C2424 1.395 . S
C2428 C2423 1.490 . S
C2428 C2430 1.395 . S
C2428 C2431 1.403 . S
H2429 C2435 0.930 . S
C2430 H2416 0.930 . S
C2430 C2428 1.395 . S
C2430 C2433 1.403 . S
C2431 C2428 1.403 . S
C2431 C2432 1.524 1_565 S
C2431 C2435 1.400 . S
C2432 H2417 0.960 . S
C2432 H2418 0.960 . S
C2432 H2419 0.960 . S
C2432 C2431 1.524 1_545 S
C2433 C2430 1.403 . S
C2433 C2434 1.392 . S
C2433 C2437 1.495 . S
C2434 C2433 1.392 . S
C2434 C2435 1.385 . S
C2434 C2436 1.478 . S
C2435 H2429 0.930 . S
C2435 C2431 1.400 . S
C2435 C2434 1.385 . S
C2436 C2434 1.478 . S
C2436 C2438 1.381 . S
C2436 C2442 1.383 . S
C2437 C2433 1.495 . S
C2437 H2443 0.959 . S
C2437 H2444 0.961 . S
C2437 H2445 0.960 . S
C2438 C2436 1.381 . S
C2438 C2439 1.394 . S
C2438 H2446 0.930 . S
C2439 C2438 1.394 . S
C2439 C2440 1.383 . S
C2439 H2447 0.929 . S
C2440 C2439 1.383 . S
C2440 C2441 1.377 . S
C2441 H2425 0.930 . S
C2441 C2440 1.377 . S
C2441 C2442 1.379 . S
C2442 H2426 0.931 . S
C2442 C2436 1.383 . S
C2442 C2441 1.379 . S
H2443 C2437 0.959 . S
H2444 C2437 0.961 . S
H2445 C2437 0.960 . S
H2446 C2438 0.930 . S
H2447 C2439 0.929 . S
H2448 C2456 0.929 . S
H2449 C2458 0.930 . S
H2450 C2460 0.930 . S
H2451 C2463 0.929 . S
H2452 C2466 0.930 . S
H2453 C2468 0.960 . S
H2454 C2468 0.960 . S
H2455 C2468 0.960 . S
C2456 H2448 0.929 . S
C2456 C2457 1.377 . S
C2456 C2458 1.384 . S
C2457 C2456 1.377 . S
C2457 C2463 1.390 . S
C2458 H2449 0.930 . S
C2458 C2456 1.384 . S
C2458 C2459 1.372 . S
C2459 C2458 1.372 . S
C2459 C2460 1.400 . S
C2459 C2464 1.490 . S
C2460 H2450 0.930 . S
C2460 C2459 1.400 . S
C2460 C2463 1.386 . S
H2461 C2477 0.930 . S
H2462 C2478 0.931 . S
C2463 H2451 0.929 . S
C2463 C2457 1.390 . S
C2463 C2460 1.386 . S
C2464 C2459 1.490 . S
C2464 C2466 1.395 . S
C2464 C2467 1.403 . S
H2465 C2471 0.930 . S
C2466 H2452 0.930 . S
C2466 C2464 1.395 . S
C2466 C2469 1.403 . S
C2467 C2464 1.403 . S
C2467 C2468 1.524 . S
C2467 C2471 1.400 . S
C2468 H2453 0.960 . S
C2468 H2454 0.960 . S
C2468 H2455 0.960 . S
C2468 C2467 1.524 . S
C2469 C2466 1.403 . S
C2469 C2470 1.392 . S
C2469 C2473 1.495 . S
C2470 C2469 1.392 . S
C2470 C2471 1.385 . S
C2470 C2472 1.478 . S
C2471 H2465 0.930 . S
C2471 C2467 1.400 . S
C2471 C2470 1.385 . S
C2472 C2470 1.478 . S
C2472 C2474 1.381 . S
C2472 C2478 1.383 . S
C2473 C2469 1.495 . S
C2473 H2479 0.959 . S
C2473 H2480 0.961 . S
C2473 H2481 0.960 . S
C2474 C2472 1.381 . S
C2474 C2475 1.394 . S
C2474 H2482 0.930 . S
C2475 C2474 1.394 . S
C2475 C2476 1.383 . S
C2475 H2483 0.929 . S
C2476 C2475 1.383 . S
C2476 C2477 1.377 . S
C2477 H2461 0.930 . S
C2477 C2476 1.377 . S
C2477 C2478 1.379 . S
C2478 H2462 0.931 . S
C2478 C2472 1.383 . S
C2478 C2477 1.379 . S
H2479 C2473 0.959 . S
H2480 C2473 0.961 . S
H2481 C2473 0.960 . S
H2482 C2474 0.930 . S
H2483 C2475 0.929 . S
H2484 C2492 0.925 1_554 S
H2485 C2494 0.930 . S
H2486 C2496 0.930 . S
H2487 C2499 0.929 . S
H2488 C2502 0.930 1_554 S
H2489 C2504 0.960 . S
H2490 C2504 0.960 . S
H2491 C2504 0.960 . S
C2492 H2484 0.925 1_556 S
C2492 C2493 1.377 . S
C2492 C2494 1.384 . S
C2493 C2492 1.377 . S
C2493 C2499 1.390 . S
C2494 H2485 0.930 . S
C2494 C2492 1.384 . S
C2494 C2495 1.372 . S
C2495 C2494 1.372 . S
C2495 C2496 1.400 . S
C2495 C2500 1.490 . S
C2496 H2486 0.930 . S
C2496 C2495 1.400 . S
C2496 C2499 1.386 . S
H2497 C2513 0.930 . S
H2498 C2514 0.931 . S
C2499 H2487 0.929 . S
C2499 C2493 1.390 . S
C2499 C2496 1.386 . S
C2500 C2495 1.490 . S
C2500 C2502 1.395 . S
C2500 C2503 1.403 . S
H2501 C2507 0.930 . S
C2502 H2488 0.930 1_556 S
C2502 C2500 1.395 . S
C2502 C2505 1.403 . S
C2503 C2500 1.403 . S
C2503 C2504 1.524 . S
C2503 C2507 1.400 . S
C2504 H2489 0.960 . S
C2504 H2490 0.960 . S
C2504 H2491 0.960 . S
C2504 C2503 1.524 . S
C2505 C2502 1.403 . S
C2505 C2506 1.392 . S
C2505 C2509 1.495 1_556 S
C2506 C2505 1.392 . S
C2506 C2507 1.385 . S
C2506 C2508 1.478 . S
C2507 H2501 0.930 . S
C2507 C2503 1.400 . S
C2507 C2506 1.385 . S
C2508 C2506 1.478 . S
C2508 C2510 1.381 . S
C2508 C2514 1.383 . S
C2509 C2505 1.495 1_554 S
C2509 H2515 0.959 . S
C2509 H2516 0.961 . S
C2509 H2517 0.960 . S
C2510 C2508 1.381 . S
C2510 C2511 1.394 . S
C2510 H2518 0.930 . S
C2511 C2510 1.394 . S
C2511 C2512 1.383 . S
C2511 H2519 0.929 . S
C2512 C2511 1.383 . S
C2512 C2513 1.377 . S
C2513 H2497 0.930 . S
C2513 C2512 1.377 . S
C2513 C2514 1.379 . S
C2514 H2498 0.931 . S
C2514 C2508 1.383 . S
C2514 C2513 1.379 . S
H2515 C2509 0.959 . S
H2516 C2509 0.961 . S
H2517 C2509 0.960 . S
H2518 C2510 0.930 . S
H2519 C2511 0.929 . S
H2520 C2528 0.929 . S
H2521 C2530 0.930 . S
H2522 C2532 0.930 . S
H2523 C2535 0.929 . S
H2524 C2538 0.930 . S
H2525 C2540 0.960 . S
H2526 C2540 0.960 . S
H2527 C2540 0.960 . S
C2528 H2520 0.929 . S
C2528 C2529 1.377 . S
C2528 C2530 1.384 . S
C2529 C2528 1.377 . S
C2529 C2535 1.390 . S
C2530 H2521 0.930 . S
C2530 C2528 1.384 . S
C2530 C2531 1.372 . S
C2531 C2530 1.372 . S
C2531 C2532 1.400 . S
C2531 C2536 1.490 . S
C2532 H2522 0.930 . S
C2532 C2531 1.400 . S
C2532 C2535 1.386 . S
H2533 C2549 0.930 . S
H2534 C2550 0.931 . S
C2535 H2523 0.929 . S
C2535 C2529 1.390 . S
C2535 C2532 1.386 . S
C2536 C2531 1.490 . S
C2536 C2538 1.395 . S
C2536 C2539 1.403 . S
H2537 C2543 0.930 . S
C2538 H2524 0.930 . S
C2538 C2536 1.395 . S
C2538 C2541 1.403 . S
C2539 C2536 1.403 . S
C2539 C2540 1.524 . S
C2539 C2543 1.400 . S
C2540 H2525 0.960 . S
C2540 H2526 0.960 . S
C2540 H2527 0.960 . S
C2540 C2539 1.524 . S
C2541 C2538 1.403 . S
C2541 C2542 1.392 . S
C2541 C2545 1.495 . S
C2542 C2541 1.392 . S
C2542 C2543 1.385 . S
C2542 C2544 1.478 . S
C2543 H2537 0.930 . S
C2543 C2539 1.400 . S
C2543 C2542 1.385 . S
C2544 C2542 1.478 . S
C2544 C2546 1.381 . S
C2544 C2550 1.383 . S
C2545 C2541 1.495 . S
C2545 H2551 0.959 . S
C2545 H2552 0.961 . S
C2545 H2553 0.960 . S
C2546 C2544 1.381 . S
C2546 C2547 1.394 . S
C2546 H2554 0.930 . S
C2547 C2546 1.394 . S
C2547 C2548 1.383 . S
C2547 H2555 0.929 . S
C2548 C2547 1.383 . S
C2548 C2549 1.377 . S
C2549 H2533 0.930 . S
C2549 C2548 1.377 . S
C2549 C2550 1.379 . S
C2550 H2534 0.931 . S
C2550 C2544 1.383 . S
C2550 C2549 1.379 . S
H2551 C2545 0.959 . S
H2552 C2545 0.961 . S
H2553 C2545 0.960 . S
H2554 C2546 0.930 . S
H2555 C2547 0.929 . S
H2556 C2564 0.929 . S
H2557 C2566 0.930 . S
H2558 C2568 0.930 . S
H2559 C2571 0.929 . S
H2560 C2574 0.930 . S
H2561 C2576 0.960 . S
H2562 C2576 0.960 . S
H2563 C2576 0.960 1_556 S
C2564 H2556 0.929 . S
C2564 C2565 1.413 . S
C2564 C2566 1.384 . S
C2565 C2564 1.413 . S
C2565 C2571 1.357 1_554 S
C2566 H2557 0.930 . S
C2566 C2564 1.384 . S
C2566 C2567 1.372 . S
C2567 C2566 1.372 . S
C2567 C2568 1.400 1_554 S
C2567 C2572 1.490 . S
C2568 H2558 0.930 . S
C2568 C2567 1.400 1_556 S
C2568 C2571 1.386 . S
H2569 C2585 0.930 1_556 S
H2570 C2586 0.931 1_556 S
C2571 H2559 0.929 . S
C2571 C2565 1.357 1_556 S
C2571 C2568 1.386 . S
C2572 C2567 1.490 . S
C2572 C2574 1.395 . S
C2572 C2575 1.403 . S
H2573 C2579 0.930 . S
C2574 H2560 0.930 . S
C2574 C2572 1.395 . S
C2574 C2577 1.403 . S
C2575 C2572 1.403 . S
C2575 C2576 1.524 . S
C2575 C2579 1.400 . S
C2576 H2561 0.960 . S
C2576 H2562 0.960 . S
C2576 H2563 0.960 1_554 S
C2576 C2575 1.524 . S
C2577 C2574 1.403 . S
C2577 C2578 1.392 . S
C2577 C2581 1.495 . S
C2578 C2577 1.392 . S
C2578 C2579 1.385 . S
C2578 C2580 1.478 . S
C2579 H2573 0.930 . S
C2579 C2575 1.400 . S
C2579 C2578 1.385 . S
C2580 C2578 1.478 . S
C2580 C2582 1.381 . S
C2580 C2586 1.383 . S
C2581 C2577 1.495 . S
C2581 H2587 0.959 . S
C2581 H2588 0.961 . S
C2581 H2589 0.960 . S
C2582 C2580 1.381 . S
C2582 C2583 1.394 . S
C2582 H2590 0.930 . S
C2583 C2582 1.394 . S
C2583 C2584 1.383 . S
C2583 H2591 0.929 . S
C2584 C2583 1.383 . S
C2584 C2585 1.377 . S
C2585 H2569 0.930 1_554 S
C2585 C2584 1.377 . S
C2585 C2586 1.379 . S
C2586 H2570 0.931 1_554 S
C2586 C2580 1.383 . S
C2586 C2585 1.379 . S
H2587 C2581 0.959 . S
H2588 C2581 0.961 . S
H2589 C2581 0.960 . S
H2590 C2582 0.930 . S
H2591 C2583 0.929 . S
H2592 C2600 0.929 . S
H2593 C2602 0.930 . S
H2594 C2604 0.930 . S
H2595 C2607 0.929 . S
H2596 C2610 0.930 . S
H2597 C2612 0.960 . S
H2598 C2612 0.960 . S
H2599 C2612 0.960 . S
C2600 H2592 0.929 . S
C2600 C2601 1.377 . S
C2600 C2602 1.384 . S
C2601 C2600 1.377 . S
C2601 C2607 1.390 . S
C2602 H2593 0.930 . S
C2602 C2600 1.384 . S
C2602 C2603 1.372 . S
C2603 C2602 1.372 . S
C2603 C2604 1.400 . S
C2603 C2608 1.490 . S
C2604 H2594 0.930 . S
C2604 C2603 1.400 . S
C2604 C2607 1.386 . S
H2605 C2621 0.930 . S
H2606 C2622 0.931 . S
C2607 H2595 0.929 . S
C2607 C2601 1.390 . S
C2607 C2604 1.386 . S
C2608 C2603 1.490 . S
C2608 C2610 1.395 . S
C2608 C2611 1.403 . S
H2609 C2615 0.930 . S
C2610 H2596 0.930 . S
C2610 C2608 1.395 . S
C2610 C2613 1.403 . S
C2611 C2608 1.403 . S
C2611 C2612 1.524 . S
C2611 C2615 1.400 . S
C2612 H2597 0.960 . S
C2612 H2598 0.960 . S
C2612 H2599 0.960 . S
C2612 C2611 1.524 . S
C2613 C2610 1.403 . S
C2613 C2614 1.392 . S
C2613 C2617 1.495 . S
C2614 C2613 1.392 . S
C2614 C2615 1.385 . S
C2614 C2616 1.478 . S
C2615 H2609 0.930 . S
C2615 C2611 1.400 . S
C2615 C2614 1.385 . S
C2616 C2614 1.478 . S
C2616 C2618 1.381 . S
C2616 C2622 1.383 . S
C2617 C2613 1.495 . S
C2617 H2623 0.959 . S
C2617 H2624 0.961 . S
C2617 H2625 0.960 . S
C2618 C2616 1.381 . S
C2618 C2619 1.394 . S
C2618 H2626 0.930 . S
C2619 C2618 1.394 . S
C2619 C2620 1.383 . S
C2619 H2627 0.929 . S
C2620 C2619 1.383 . S
C2620 C2621 1.377 . S
C2621 H2605 0.930 . S
C2621 C2620 1.377 . S
C2621 C2622 1.379 . S
C2622 H2606 0.931 . S
C2622 C2616 1.383 . S
C2622 C2621 1.379 . S
H2623 C2617 0.959 . S
H2624 C2617 0.961 . S
H2625 C2617 0.960 . S
H2626 C2618 0.930 . S
H2627 C2619 0.929 . S
H2628 C2636 0.946 . S
H2629 C2638 0.940 . S
H2630 C2640 0.930 . S
H2631 C2643 0.929 . S
H2632 C2646 0.903 1_455 S
H2633 C2648 0.960 . S
H2634 C2648 0.960 . S
H2635 C2648 0.960 . S
C2636 H2628 0.946 . S
C2636 C2637 1.371 1_455 S
C2636 C2638 1.377 1_455 S
C2637 C2636 1.371 1_655 S
C2637 C2643 1.390 . S
C2638 H2629 0.940 . S
C2638 C2636 1.377 1_655 S
C2638 C2639 1.372 . S
C2639 C2638 1.372 . S
C2639 C2640 1.400 . S
C2639 C2644 1.490 . S
C2640 H2630 0.930 . S
C2640 C2639 1.400 . S
C2640 C2643 1.386 . S
H2641 C2657 0.930 . S
H2642 C2658 0.931 . S
C2643 H2631 0.929 . S
C2643 C2637 1.390 . S
C2643 C2640 1.386 . S
C2644 C2639 1.490 . S
C2644 C2646 1.418 . S
C2644 C2647 1.403 . S
H2645 C2651 0.930 . S
C2646 H2632 0.903 1_655 S
C2646 C2644 1.418 . S
C2646 C2649 1.406 . S
C2647 C2644 1.403 . S
C2647 C2648 1.524 . S
C2647 C2651 1.400 . S
C2648 H2633 0.960 . S
C2648 H2634 0.960 . S
C2648 H2635 0.960 . S
C2648 C2647 1.524 . S
C2649 C2646 1.406 . S
C2649 C2650 1.392 . S
C2649 C2653 1.495 1_655 S
C2650 C2649 1.392 . S
C2650 C2651 1.385 . S
C2650 C2652 1.478 . S
C2651 H2645 0.930 . S
C2651 C2647 1.400 . S
C2651 C2650 1.385 . S
C2652 C2650 1.478 . S
C2652 C2654 1.381 . S
C2652 C2658 1.383 . S
C2653 C2649 1.495 1_455 S
C2653 H2659 0.959 . S
C2653 H2660 0.961 . S
C2653 H2661 0.960 . S
C2654 C2652 1.381 . S
C2654 C2655 1.394 . S
C2654 H2662 0.930 . S
C2655 C2654 1.394 . S
C2655 C2656 1.383 . S
C2655 H2663 0.929 . S
C2656 C2655 1.383 . S
C2656 C2657 1.377 . S
C2657 H2641 0.930 . S
C2657 C2656 1.377 . S
C2657 C2658 1.379 . S
C2658 H2642 0.931 . S
C2658 C2652 1.383 . S
C2658 C2657 1.379 . S
H2659 C2653 0.959 . S
H2660 C2653 0.961 . S
H2661 C2653 0.960 . S
H2662 C2654 0.930 . S
H2663 C2655 0.929 . S
H2664 C2672 0.929 . S
H2665 C2674 0.930 . S
H2666 C2676 0.930 . S
H2667 C2679 0.929 . S
H2668 C2682 0.930 . S
H2669 C2684 0.960 . S
H2670 C2684 0.960 . S
H2671 C2684 0.960 . S
C2672 H2664 0.929 . S
C2672 C2673 1.377 . S
C2672 C2674 1.384 . S
C2673 C2672 1.377 . S
C2673 C2679 1.390 . S
C2674 H2665 0.930 . S
C2674 C2672 1.384 . S
C2674 C2675 1.372 . S
C2675 C2674 1.372 . S
C2675 C2676 1.400 . S
C2675 C2680 1.490 . S
C2676 H2666 0.930 . S
C2676 C2675 1.400 . S
C2676 C2679 1.386 . S
H2677 C2693 0.930 . S
H2678 C2694 0.931 . S
C2679 H2667 0.929 . S
C2679 C2673 1.390 . S
C2679 C2676 1.386 . S
C2680 C2675 1.490 . S
C2680 C2682 1.395 . S
C2680 C2683 1.403 . S
H2681 C2687 0.930 . S
C2682 H2668 0.930 . S
C2682 C2680 1.395 . S
C2682 C2685 1.403 . S
C2683 C2680 1.403 . S
C2683 C2684 1.524 . S
C2683 C2687 1.400 . S
C2684 H2669 0.960 . S
C2684 H2670 0.960 . S
C2684 H2671 0.960 . S
C2684 C2683 1.524 . S
C2685 C2682 1.403 . S
C2685 C2686 1.392 . S
C2685 C2689 1.495 . S
C2686 C2685 1.392 . S
C2686 C2687 1.385 . S
C2686 C2688 1.478 . S
C2687 H2681 0.930 . S
C2687 C2683 1.400 . S
C2687 C2686 1.385 . S
C2688 C2686 1.478 . S
C2688 C2690 1.381 . S
C2688 C2694 1.383 . S
C2689 C2685 1.495 . S
C2689 H2695 0.959 . S
C2689 H2696 0.961 . S
C2689 H2697 0.960 . S
C2690 C2688 1.381 . S
C2690 C2691 1.394 . S
C2690 H2698 0.930 . S
C2691 C2690 1.394 . S
C2691 C2692 1.383 . S
C2691 H2699 0.929 . S
C2692 C2691 1.383 . S
C2692 C2693 1.377 . S
C2693 H2677 0.930 . S
C2693 C2692 1.377 . S
C2693 C2694 1.379 . S
C2694 H2678 0.931 . S
C2694 C2688 1.383 . S
C2694 C2693 1.379 . S
H2695 C2689 0.959 . S
H2696 C2689 0.961 . S
H2697 C2689 0.960 . S
H2698 C2690 0.930 . S
H2699 C2691 0.929 . S
H2700 C2708 0.929 . S
H2701 C2710 0.930 . S
H2702 C2712 0.930 . S
H2703 C2715 0.929 . S
H2704 C2718 0.930 . S
H2705 C2720 0.960 . S
H2706 C2720 0.960 . S
H2707 C2720 0.960 . S
C2708 H2700 0.929 . S
C2708 C2709 1.408 . S
C2708 C2710 1.384 . S
C2709 C2708 1.408 . S
C2709 C2715 1.361 1_455 S
C2710 H2701 0.930 . S
C2710 C2708 1.384 . S
C2710 C2711 1.372 . S
C2711 C2710 1.372 . S
C2711 C2712 1.400 1_455 S
C2711 C2716 1.490 . S
C2712 H2702 0.930 . S
C2712 C2711 1.400 1_655 S
C2712 C2715 1.386 . S
H2713 C2729 0.930 1_655 S
H2714 C2730 0.931 1_655 S
C2715 H2703 0.929 . S
C2715 C2709 1.361 1_655 S
C2715 C2712 1.386 . S
C2716 C2711 1.490 . S
C2716 C2718 1.395 . S
C2716 C2719 1.404 . S
H2717 C2723 0.930 1_655 S
C2718 H2704 0.930 . S
C2718 C2716 1.395 . S
C2718 C2721 1.403 . S
C2719 C2716 1.404 . S
C2719 C2720 1.522 1_455 S
C2719 C2723 1.400 . S
C2720 H2705 0.960 . S
C2720 H2706 0.960 . S
C2720 H2707 0.960 . S
C2720 C2719 1.522 1_655 S
C2721 C2718 1.403 . S
C2721 C2722 1.392 . S
C2721 C2725 1.495 . S
C2722 C2721 1.392 . S
C2722 C2723 1.385 . S
C2722 C2724 1.478 . S
C2723 H2717 0.930 1_455 S
C2723 C2719 1.400 . S
C2723 C2722 1.385 . S
C2724 C2722 1.478 . S
C2724 C2726 1.381 . S
C2724 C2730 1.383 . S
C2725 C2721 1.495 . S
C2725 H2731 0.959 . S
C2725 H2732 0.961 . S
C2725 H2733 0.960 . S
C2726 C2724 1.381 . S
C2726 C2727 1.394 . S
C2726 H2734 0.930 . S
C2727 C2726 1.394 . S
C2727 C2728 1.383 . S
C2727 H2735 0.929 . S
C2728 C2727 1.383 . S
C2728 C2729 1.377 . S
C2729 H2713 0.930 1_455 S
C2729 C2728 1.377 . S
C2729 C2730 1.379 . S
C2730 H2714 0.931 1_455 S
C2730 C2724 1.383 . S
C2730 C2729 1.379 . S
H2731 C2725 0.959 . S
H2732 C2725 0.961 . S
H2733 C2725 0.960 . S
H2734 C2726 0.930 . S
H2735 C2727 0.929 . S
H2736 C2744 0.929 . S
H2737 C2746 0.930 . S
H2738 C2748 0.930 . S
H2739 C2751 0.929 . S
H2740 C2754 0.930 . S
H2741 C2756 0.960 . S
H2742 C2756 0.960 . S
H2743 C2756 0.960 . S
C2744 H2736 0.929 . S
C2744 C2745 1.377 . S
C2744 C2746 1.384 . S
C2745 C2744 1.377 . S
C2745 C2751 1.390 . S
C2746 H2737 0.930 . S
C2746 C2744 1.384 . S
C2746 C2747 1.372 . S
C2747 C2746 1.372 . S
C2747 C2748 1.400 . S
C2747 C2752 1.490 . S
C2748 H2738 0.930 . S
C2748 C2747 1.400 . S
C2748 C2751 1.386 . S
H2749 C2765 0.930 . S
H2750 C2766 0.931 . S
C2751 H2739 0.929 . S
C2751 C2745 1.390 . S
C2751 C2748 1.386 . S
C2752 C2747 1.490 . S
C2752 C2754 1.395 . S
C2752 C2755 1.403 . S
H2753 C2759 0.930 . S
C2754 H2740 0.930 . S
C2754 C2752 1.395 . S
C2754 C2757 1.403 . S
C2755 C2752 1.403 . S
C2755 C2756 1.524 . S
C2755 C2759 1.400 . S
C2756 H2741 0.960 . S
C2756 H2742 0.960 . S
C2756 H2743 0.960 . S
C2756 C2755 1.524 . S
C2757 C2754 1.403 . S
C2757 C2758 1.392 . S
C2757 C2761 1.495 . S
C2758 C2757 1.392 . S
C2758 C2759 1.385 . S
C2758 C2760 1.478 . S
C2759 H2753 0.930 . S
C2759 C2755 1.400 . S
C2759 C2758 1.385 . S
C2760 C2758 1.478 . S
C2760 C2762 1.381 . S
C2760 C2766 1.383 . S
C2761 C2757 1.495 . S
C2761 H2767 0.959 . S
C2761 H2768 0.961 . S
C2761 H2769 0.960 . S
C2762 C2760 1.381 . S
C2762 C2763 1.394 . S
C2762 H2770 0.930 . S
C2763 C2762 1.394 . S
C2763 C2764 1.383 . S
C2763 H2771 0.929 . S
C2764 C2763 1.383 . S
C2764 C2765 1.377 . S
C2765 H2749 0.930 . S
C2765 C2764 1.377 . S
C2765 C2766 1.379 . S
C2766 H2750 0.931 . S
C2766 C2760 1.383 . S
C2766 C2765 1.379 . S
H2767 C2761 0.959 . S
H2768 C2761 0.961 . S
H2769 C2761 0.960 . S
H2770 C2762 0.930 . S
H2771 C2763 0.929 . S
H2772 C2780 0.929 . S
H2773 C2782 0.930 . S
H2774 C2784 0.930 . S
H2775 C2787 0.929 . S
H2776 C2790 0.930 . S
H2777 C2792 0.960 . S
H2778 C2792 0.960 . S
H2779 C2792 0.960 . S
C2780 H2772 0.929 . S
C2780 C2781 1.377 . S
C2780 C2782 1.384 . S
C2781 C2780 1.377 . S
C2781 C2787 1.390 . S
C2782 H2773 0.930 . S
C2782 C2780 1.384 . S
C2782 C2783 1.372 . S
C2783 C2782 1.372 . S
C2783 C2784 1.400 . S
C2783 C2788 1.490 . S
C2784 H2774 0.930 . S
C2784 C2783 1.400 . S
C2784 C2787 1.386 . S
H2785 C2801 0.930 . S
H2786 C2802 0.931 . S
C2787 H2775 0.929 . S
C2787 C2781 1.390 . S
C2787 C2784 1.386 . S
C2788 C2783 1.490 . S
C2788 C2790 1.395 . S
C2788 C2791 1.403 . S
H2789 C2795 0.930 . S
C2790 H2776 0.930 . S
C2790 C2788 1.395 . S
C2790 C2793 1.403 . S
C2791 C2788 1.403 . S
C2791 C2792 1.524 . S
C2791 C2795 1.400 . S
C2792 H2777 0.960 . S
C2792 H2778 0.960 . S
C2792 H2779 0.960 . S
C2792 C2791 1.524 . S
C2793 C2790 1.403 . S
C2793 C2794 1.392 . S
C2793 C2797 1.495 . S
C2794 C2793 1.392 . S
C2794 C2795 1.385 . S
C2794 C2796 1.478 . S
C2795 H2789 0.930 . S
C2795 C2791 1.400 . S
C2795 C2794 1.385 . S
C2796 C2794 1.478 . S
C2796 C2798 1.381 . S
C2796 C2802 1.383 . S
C2797 C2793 1.495 . S
C2797 H2803 0.959 . S
C2797 H2804 0.961 . S
C2797 H2805 0.960 . S
C2798 C2796 1.381 . S
C2798 C2799 1.394 . S
C2798 H2806 0.930 . S
C2799 C2798 1.394 . S
C2799 C2800 1.383 . S
C2799 H2807 0.929 . S
C2800 C2799 1.383 . S
C2800 C2801 1.377 . S
C2801 H2785 0.930 . S
C2801 C2800 1.377 . S
C2801 C2802 1.379 . S
C2802 H2786 0.931 . S
C2802 C2796 1.383 . S
C2802 C2801 1.379 . S
H2803 C2797 0.959 . S
H2804 C2797 0.961 . S
H2805 C2797 0.960 . S
H2806 C2798 0.930 . S
H2807 C2799 0.929 . S
H2808 C2816 0.929 . S
H2809 C2818 0.930 . S
H2810 C2820 0.930 . S
H2811 C2823 0.929 . S
H2812 C2826 0.930 . S
H2813 C2828 0.960 . S
H2814 C2828 0.960 . S
H2815 C2828 0.960 1_565 S
C2816 H2808 0.929 . S
C2816 C2817 1.375 1_545 S
C2816 C2818 1.384 . S
C2817 C2816 1.375 1_565 S
C2817 C2823 1.393 . S
C2818 H2809 0.930 . S
C2818 C2816 1.384 . S
C2818 C2819 1.372 1_545 S
C2819 C2818 1.372 1_565 S
C2819 C2820 1.400 . S
C2819 C2824 1.490 . S
C2820 H2810 0.930 . S
C2820 C2819 1.400 . S
C2820 C2823 1.386 . S
H2821 C2837 0.930 . S
H2822 C2838 0.931 . S
C2823 H2811 0.929 . S
C2823 C2817 1.393 . S
C2823 C2820 1.386 . S
C2824 C2819 1.490 . S
C2824 C2826 1.395 . S
C2824 C2827 1.403 . S
H2825 C2831 0.930 . S
C2826 H2812 0.930 . S
C2826 C2824 1.395 . S
C2826 C2829 1.403 . S
C2827 C2824 1.403 . S
C2827 C2828 1.524 1_565 S
C2827 C2831 1.400 . S
C2828 H2813 0.960 . S
C2828 H2814 0.960 . S
C2828 H2815 0.960 1_545 S
C2828 C2827 1.524 1_545 S
C2829 C2826 1.403 . S
C2829 C2830 1.392 . S
C2829 C2833 1.495 . S
C2830 C2829 1.392 . S
C2830 C2831 1.385 . S
C2830 C2832 1.478 . S
C2831 H2825 0.930 . S
C2831 C2827 1.400 . S
C2831 C2830 1.385 . S
C2832 C2830 1.478 . S
C2832 C2834 1.381 . S
C2832 C2838 1.383 . S
C2833 C2829 1.495 . S
C2833 H2839 0.959 . S
C2833 H2840 0.961 . S
C2833 H2841 0.960 . S
C2834 C2832 1.381 . S
C2834 C2835 1.394 . S
C2834 H2842 0.930 1_565 S
C2835 C2834 1.394 . S
C2835 C2836 1.383 . S
C2835 H2843 0.929 . S
C2836 C2835 1.383 . S
C2836 C2837 1.377 . S
C2837 H2821 0.930 . S
C2837 C2836 1.377 . S
C2837 C2838 1.379 . S
C2838 H2822 0.931 . S
C2838 C2832 1.383 . S
C2838 C2837 1.379 . S
H2839 C2833 0.959 . S
H2840 C2833 0.961 . S
H2841 C2833 0.960 . S
H2842 C2834 0.930 1_545 S
H2843 C2835 0.929 . S
H2844 C2852 0.929 . S
H2845 C2854 0.930 . S
H2846 C2856 0.930 . S
H2847 C2859 0.929 . S
H2848 C2862 0.930 1_565 S
H2849 C2864 0.960 . S
H2850 C2864 0.960 . S
H2851 C2864 0.960 . S
C2852 H2844 0.929 . S
C2852 C2853 1.377 1_565 S
C2852 C2854 1.384 . S
C2853 C2852 1.377 1_545 S
C2853 C2859 1.390 . S
C2854 H2845 0.930 . S
C2854 C2852 1.384 . S
C2854 C2855 1.372 1_565 S
C2855 C2854 1.372 1_545 S
C2855 C2856 1.400 . S
C2855 C2860 1.490 . S
C2856 H2846 0.930 . S
C2856 C2855 1.400 . S
C2856 C2859 1.386 . S
H2857 C2873 0.930 . S
H2858 C2874 0.931 . S
C2859 H2847 0.929 . S
C2859 C2853 1.390 . S
C2859 C2856 1.386 . S
C2860 C2855 1.490 . S
C2860 C2862 1.395 . S
C2860 C2863 1.403 . S
H2861 C2867 0.930 . S
C2862 H2848 0.930 1_545 S
C2862 C2860 1.395 . S
C2862 C2865 1.403 . S
C2863 C2860 1.403 . S
C2863 C2864 1.524 . S
C2863 C2867 1.400 . S
C2864 H2849 0.960 . S
C2864 H2850 0.960 . S
C2864 H2851 0.960 . S
C2864 C2863 1.524 . S
C2865 C2862 1.403 . S
C2865 C2866 1.392 . S
C2865 C2869 1.495 1_545 S
C2866 C2865 1.392 . S
C2866 C2867 1.385 . S
C2866 C2868 1.478 . S
C2867 H2861 0.930 . S
C2867 C2863 1.400 . S
C2867 C2866 1.385 . S
C2868 C2866 1.478 . S
C2868 C2870 1.381 . S
C2868 C2874 1.383 . S
C2869 C2865 1.495 1_565 S
C2869 H2875 0.959 . S
C2869 H2876 0.942 1_565 S
C2869 H2877 0.960 . S
C2870 C2868 1.381 . S
C2870 C2871 1.394 . S
C2870 H2878 0.930 . S
C2871 C2870 1.394 . S
C2871 C2872 1.383 . S
C2871 H2879 0.929 . S
C2872 C2871 1.383 . S
C2872 C2873 1.377 . S
C2873 H2857 0.930 . S
C2873 C2872 1.377 . S
C2873 C2874 1.379 . S
C2874 H2858 0.931 . S
C2874 C2868 1.383 . S
C2874 C2873 1.379 . S
H2875 C2869 0.959 . S
H2876 C2869 0.942 1_545 S
H2877 C2869 0.960 . S
H2878 C2870 0.930 . S
H2879 C2871 0.929 . S
H2880 C2888 0.929 . S
H2881 C2890 0.930 . S
H2882 C2892 0.930 . S
H2883 C2895 0.929 . S
H2884 C2898 0.930 . S
H2885 C2900 0.960 . S
H2886 C2900 0.960 . S
H2887 C2900 0.960 . S
C2888 H2880 0.929 . S
C2888 C2889 1.377 . S
C2888 C2890 1.384 . S
C2889 C2888 1.377 . S
C2889 C2895 1.390 . S
C2890 H2881 0.930 . S
C2890 C2888 1.384 . S
C2890 C2891 1.372 . S
C2891 C2890 1.372 . S
C2891 C2892 1.400 . S
C2891 C2896 1.490 . S
C2892 H2882 0.930 . S
C2892 C2891 1.400 . S
C2892 C2895 1.386 . S
H2893 C2909 0.930 . S
H2894 C2910 0.931 . S
C2895 H2883 0.929 . S
C2895 C2889 1.390 . S
C2895 C2892 1.386 . S
C2896 C2891 1.490 . S
C2896 C2898 1.395 . S
C2896 C2899 1.403 . S
H2897 C2903 0.930 . S
C2898 H2884 0.930 . S
C2898 C2896 1.395 . S
C2898 C2901 1.403 . S
C2899 C2896 1.403 . S
C2899 C2900 1.524 . S
C2899 C2903 1.400 . S
C2900 H2885 0.960 . S
C2900 H2886 0.960 . S
C2900 H2887 0.960 . S
C2900 C2899 1.524 . S
C2901 C2898 1.403 . S
C2901 C2902 1.392 . S
C2901 C2905 1.495 . S
C2902 C2901 1.392 . S
C2902 C2903 1.385 . S
C2902 C2904 1.478 . S
C2903 H2897 0.930 . S
C2903 C2899 1.400 . S
C2903 C2902 1.385 . S
C2904 C2902 1.478 . S
C2904 C2906 1.381 . S
C2904 C2910 1.383 . S
C2905 C2901 1.495 . S
C2905 H2911 0.959 . S
C2905 H2912 0.961 . S
C2905 H2913 0.960 . S
C2906 C2904 1.381 . S
C2906 C2907 1.394 . S
C2906 H2914 0.930 . S
C2907 C2906 1.394 . S
C2907 C2908 1.383 . S
C2907 H2915 0.929 . S
C2908 C2907 1.383 . S
C2908 C2909 1.377 . S
C2909 H2893 0.930 . S
C2909 C2908 1.377 . S
C2909 C2910 1.379 . S
C2910 H2894 0.931 . S
C2910 C2904 1.383 . S
C2910 C2909 1.379 . S
H2911 C2905 0.959 . S
H2912 C2905 0.961 . S
H2913 C2905 0.960 . S
H2914 C2906 0.930 . S
H2915 C2907 0.929 . S
H2916 C2924 0.929 . S
H2917 C2926 0.930 . S
H2918 C2928 0.930 . S
H2919 C2931 0.929 . S
H2920 C2934 0.930 . S
H2921 C2936 0.950 1_556 S
H2922 C2936 1.000 . S
H2923 C2936 0.907 1_556 S
C2924 H2916 0.929 . S
C2924 C2925 1.377 . S
C2924 C2926 1.384 . S
C2925 C2924 1.377 . S
C2925 C2931 1.390 1_554 S
C2926 H2917 0.930 . S
C2926 C2924 1.384 . S
C2926 C2927 1.372 . S
C2927 C2926 1.372 . S
C2927 C2928 1.400 1_554 S
C2927 C2932 1.490 . S
C2928 H2918 0.930 . S
C2928 C2927 1.400 1_556 S
C2928 C2931 1.386 . S
H2929 C2945 0.930 . S
H2930 C2946 0.931 . S
C2931 H2919 0.929 . S
C2931 C2925 1.390 1_556 S
C2931 C2928 1.386 . S
C2932 C2927 1.490 . S
C2932 C2934 1.395 . S
C2932 C2935 1.403 . S
H2933 C2939 0.930 . S
C2934 H2920 0.930 . S
C2934 C2932 1.395 . S
C2934 C2937 1.403 . S
C2935 C2932 1.403 . S
C2935 C2936 1.551 . S
C2935 C2939 1.400 . S
C2936 H2921 0.950 1_554 S
C2936 H2922 1.000 . S
C2936 H2923 0.907 1_554 S
C2936 C2935 1.551 . S
C2937 C2934 1.403 . S
C2937 C2938 1.392 . S
C2937 C2941 1.495 . S
C2938 C2937 1.392 . S
C2938 C2939 1.385 . S
C2938 C2940 1.478 . S
C2939 H2933 0.930 . S
C2939 C2935 1.400 . S
C2939 C2938 1.385 . S
C2940 C2938 1.478 . S
C2940 C2942 1.381 . S
C2940 C2946 1.383 . S
C2941 C2937 1.495 . S
C2941 H2947 0.959 . S
C2941 H2948 0.961 . S
C2941 H2949 0.960 . S
C2942 C2940 1.381 . S
C2942 C2943 1.394 . S
C2942 H2950 0.930 . S
C2943 C2942 1.394 . S
C2943 C2944 1.383 . S
C2943 H2951 0.929 . S
C2944 C2943 1.383 . S
C2944 C2945 1.377 . S
C2945 H2929 0.930 . S
C2945 C2944 1.377 . S
C2945 C2946 1.379 . S
C2946 H2930 0.931 . S
C2946 C2940 1.383 . S
C2946 C2945 1.379 . S
H2947 C2941 0.959 . S
H2948 C2941 0.961 . S
H2949 C2941 0.960 . S
H2950 C2942 0.930 . S
H2951 C2943 0.929 . S
H2952 C2960 0.929 . S
H2953 C2962 0.930 . S
H2954 C2964 0.930 . S
H2955 C2967 0.929 . S
H2956 C2970 0.930 . S
H2957 C2972 0.960 . S
H2958 C2972 0.960 . S
H2959 C2972 0.960 . S
C2960 H2952 0.929 . S
C2960 C2961 1.377 . S
C2960 C2962 1.384 . S
C2961 C2960 1.377 . S
C2961 C2967 1.390 . S
C2962 H2953 0.930 . S
C2962 C2960 1.384 . S
C2962 C2963 1.372 . S
C2963 C2962 1.372 . S
C2963 C2964 1.400 . S
C2963 C2968 1.490 . S
C2964 H2954 0.930 . S
C2964 C2963 1.400 . S
C2964 C2967 1.386 . S
H2965 C2981 0.930 . S
H2966 C2982 0.931 . S
C2967 H2955 0.929 . S
C2967 C2961 1.390 . S
C2967 C2964 1.386 . S
C2968 C2963 1.490 . S
C2968 C2970 1.395 . S
C2968 C2971 1.403 . S
H2969 C2975 0.930 . S
C2970 H2956 0.930 . S
C2970 C2968 1.395 . S
C2970 C2973 1.403 . S
C2971 C2968 1.403 . S
C2971 C2972 1.524 . S
C2971 C2975 1.400 . S
C2972 H2957 0.960 . S
C2972 H2958 0.960 . S
C2972 H2959 0.960 . S
C2972 C2971 1.524 . S
C2973 C2970 1.403 . S
C2973 C2974 1.392 . S
C2973 C2977 1.495 . S
C2974 C2973 1.392 . S
C2974 C2975 1.385 . S
C2974 C2976 1.478 . S
C2975 H2969 0.930 . S
C2975 C2971 1.400 . S
C2975 C2974 1.385 . S
C2976 C2974 1.478 . S
C2976 C2978 1.381 . S
C2976 C2982 1.383 . S
C2977 C2973 1.495 . S
C2977 H2983 0.959 . S
C2977 H2984 0.961 . S
C2977 H2985 0.960 . S
C2978 C2976 1.381 . S
C2978 C2979 1.394 . S
C2978 H2986 0.930 . S
C2979 C2978 1.394 . S
C2979 C2980 1.383 . S
C2979 H2987 0.929 . S
C2980 C2979 1.383 . S
C2980 C2981 1.377 . S
C2981 H2965 0.930 . S
C2981 C2980 1.377 . S
C2981 C2982 1.379 . S
C2982 H2966 0.931 . S
C2982 C2976 1.383 . S
C2982 C2981 1.379 . S
H2983 C2977 0.959 . S
H2984 C2977 0.961 . S
H2985 C2977 0.960 . S
H2986 C2978 0.930 . S
H2987 C2979 0.929 . S
H2988 C2996 0.929 . S
H2989 C2998 0.930 . S
H2990 C3000 0.930 . S
H2991 C3003 0.929 . S
H2992 C3006 0.930 . S
H2993 C3008 0.960 . S
H2994 C3008 0.960 . S
H2995 C3008 0.960 . S
C2996 H2988 0.929 . S
C2996 C2997 1.405 . S
C2996 C2998 1.384 . S
C2997 C2996 1.405 . S
C2997 C3003 1.366 1_556 S
C2998 H2989 0.930 . S
C2998 C2996 1.384 . S
C2998 C2999 1.372 . S
C2999 C2998 1.372 . S
C2999 C3000 1.400 1_556 S
C2999 C3004 1.490 . S
C3000 H2990 0.930 . S
C3000 C2999 1.400 1_554 S
C3000 C3003 1.386 . S
H3001 C3017 0.930 1_554 S
H3002 C3018 0.931 1_554 S
C3003 H2991 0.929 . S
C3003 C2997 1.366 1_554 S
C3003 C3000 1.386 . S
C3004 C2999 1.490 . S
C3004 C3006 1.395 . S
C3004 C3007 1.403 . S
H3005 C3011 0.930 . S
C3006 H2992 0.930 . S
C3006 C3004 1.395 . S
C3006 C3009 1.403 . S
C3007 C3004 1.403 . S
C3007 C3008 1.524 . S
C3007 C3011 1.400 . S
C3008 H2993 0.960 . S
C3008 H2994 0.960 . S
C3008 H2995 0.960 . S
C3008 C3007 1.524 . S
C3009 C3006 1.403 . S
C3009 C3010 1.392 . S
C3009 C3013 1.495 . S
C3010 C3009 1.392 . S
C3010 C3011 1.385 . S
C3010 C3012 1.478 . S
C3011 H3005 0.930 . S
C3011 C3007 1.400 . S
C3011 C3010 1.385 . S
C3012 C3010 1.478 . S
C3012 C3014 1.381 . S
C3012 C3018 1.383 . S
C3013 C3009 1.495 . S
C3013 H3019 0.960 . S
C3013 H3020 0.961 1_556 S
C3013 H3021 0.960 . S
C3014 C3012 1.381 . S
C3014 C3015 1.394 . S
C3014 H3022 0.930 . S
C3015 C3014 1.394 . S
C3015 C3016 1.383 . S
C3015 H3023 0.929 . S
C3016 C3015 1.383 . S
C3016 C3017 1.377 . S
C3017 H3001 0.930 1_556 S
C3017 C3016 1.377 . S
C3017 C3018 1.379 . S
C3018 H3002 0.931 1_556 S
C3018 C3012 1.383 . S
C3018 C3017 1.379 . S
H3019 C3013 0.960 . S
H3020 C3013 0.961 1_554 S
H3021 C3013 0.960 . S
H3022 C3014 0.930 . S
H3023 C3015 0.929 . S
H3024 C3032 0.929 . S
H3025 C3034 0.930 . S
H3026 C3036 0.930 . S
H3027 C3039 0.929 . S
H3028 C3042 0.930 . S
H3029 C3044 0.960 . S
H3030 C3044 0.960 . S
H3031 C3044 0.960 . S
C3032 H3024 0.929 . S
C3032 C3033 1.377 . S
C3032 C3034 1.384 . S
C3033 C3032 1.377 . S
C3033 C3039 1.390 . S
C3034 H3025 0.930 . S
C3034 C3032 1.384 . S
C3034 C3035 1.372 . S
C3035 C3034 1.372 . S
C3035 C3036 1.400 . S
C3035 C3040 1.490 . S
C3036 H3026 0.930 . S
C3036 C3035 1.400 . S
C3036 C3039 1.386 . S
H3037 C3053 0.930 . S
H3038 C3054 0.931 . S
C3039 H3027 0.929 . S
C3039 C3033 1.390 . S
C3039 C3036 1.386 . S
C3040 C3035 1.490 . S
C3040 C3042 1.395 . S
C3040 C3043 1.403 . S
H3041 C3047 0.930 . S
C3042 H3028 0.930 . S
C3042 C3040 1.395 . S
C3042 C3045 1.403 . S
C3043 C3040 1.403 . S
C3043 C3044 1.524 . S
C3043 C3047 1.400 . S
C3044 H3029 0.960 . S
C3044 H3030 0.960 . S
C3044 H3031 0.960 . S
C3044 C3043 1.524 . S
C3045 C3042 1.403 . S
C3045 C3046 1.392 . S
C3045 C3049 1.495 . S
C3046 C3045 1.392 . S
C3046 C3047 1.385 . S
C3046 C3048 1.478 . S
C3047 H3041 0.930 . S
C3047 C3043 1.400 . S
C3047 C3046 1.385 . S
C3048 C3046 1.478 . S
C3048 C3050 1.381 . S
C3048 C3054 1.383 . S
C3049 C3045 1.495 . S
C3049 H3055 0.959 . S
C3049 H3056 0.961 . S
C3049 H3057 0.960 . S
C3050 C3048 1.381 . S
C3050 C3051 1.394 . S
C3050 H3058 0.930 . S
C3051 C3050 1.394 . S
C3051 C3052 1.383 . S
C3051 H3059 0.929 . S
C3052 C3051 1.383 . S
C3052 C3053 1.377 . S
C3053 H3037 0.930 . S
C3053 C3052 1.377 . S
C3053 C3054 1.379 . S
C3054 H3038 0.931 . S
C3054 C3048 1.383 . S
C3054 C3053 1.379 . S
H3055 C3049 0.959 . S
H3056 C3049 0.961 . S
H3057 C3049 0.960 . S
H3058 C3050 0.930 . S
H3059 C3051 0.929 . S
H3060 C3068 0.929 . S
H3061 C3070 0.930 . S
H3062 C3072 0.930 . S
H3063 C3075 0.929 . S
H3064 C3078 0.916 1_655 S
H3065 C3080 0.960 . S
H3066 C3080 0.960 . S
H3067 C3080 0.960 . S
C3068 H3060 0.929 . S
C3068 C3069 1.377 1_655 S
C3068 C3070 1.384 . S
C3069 C3068 1.377 1_455 S
C3069 C3075 1.390 . S
C3070 H3061 0.930 . S
C3070 C3068 1.384 . S
C3070 C3071 1.372 1_655 S
C3071 C3070 1.372 1_455 S
C3071 C3072 1.400 . S
C3071 C3076 1.490 . S
C3072 H3062 0.930 . S
C3072 C3071 1.400 . S
C3072 C3075 1.386 . S
H3073 C3089 0.930 . S
H3074 C3090 0.931 . S
C3075 H3063 0.929 . S
C3075 C3069 1.390 . S
C3075 C3072 1.386 . S
C3076 C3071 1.490 . S
C3076 C3078 1.407 . S
C3076 C3079 1.403 . S
H3077 C3083 0.930 . S
C3078 H3064 0.916 1_455 S
C3078 C3076 1.407 . S
C3078 C3081 1.405 . S
C3079 C3076 1.403 . S
C3079 C3080 1.524 . S
C3079 C3083 1.400 . S
C3080 H3065 0.960 . S
C3080 H3066 0.960 . S
C3080 H3067 0.960 . S
C3080 C3079 1.524 . S
C3081 C3078 1.405 . S
C3081 C3082 1.392 . S
C3081 C3085 1.495 1_455 S
C3082 C3081 1.392 . S
C3082 C3083 1.385 . S
C3082 C3084 1.478 . S
C3083 H3077 0.930 . S
C3083 C3079 1.400 . S
C3083 C3082 1.385 . S
C3084 C3082 1.478 . S
C3084 C3086 1.381 . S
C3084 C3090 1.383 . S
C3085 C3081 1.495 1_655 S
C3085 H3091 0.959 . S
C3085 H3092 0.961 . S
C3085 H3093 0.960 . S
C3086 C3084 1.381 . S
C3086 C3087 1.394 . S
C3086 H3094 0.930 . S
C3087 C3086 1.394 . S
C3087 C3088 1.383 . S
C3087 H3095 0.929 . S
C3088 C3087 1.383 . S
C3088 C3089 1.377 . S
C3089 H3073 0.930 . S
C3089 C3088 1.377 . S
C3089 C3090 1.379 . S
C3090 H3074 0.931 . S
C3090 C3084 1.383 . S
C3090 C3089 1.379 . S
H3091 C3085 0.959 . S
H3092 C3085 0.961 . S
H3093 C3085 0.960 . S
H3094 C3086 0.930 . S
H3095 C3087 0.929 . S
H3096 C3104 0.929 . S
H3097 C3106 0.930 . S
H3098 C3108 0.930 . S
H3099 C3111 0.929 . S
H3100 C3114 0.930 . S
H3101 C3116 0.960 . S
H3102 C3116 0.960 . S
H3103 C3116 0.960 . S
C3104 H3096 0.929 . S
C3104 C3105 1.377 . S
C3104 C3106 1.384 . S
C3105 C3104 1.377 . S
C3105 C3111 1.390 . S
C3106 H3097 0.930 . S
C3106 C3104 1.384 . S
C3106 C3107 1.372 . S
C3107 C3106 1.372 . S
C3107 C3108 1.400 . S
C3107 C3112 1.490 . S
C3108 H3098 0.930 . S
C3108 C3107 1.400 . S
C3108 C3111 1.386 . S
H3109 C3125 0.930 . S
H3110 C3126 0.931 . S
C3111 H3099 0.929 . S
C3111 C3105 1.390 . S
C3111 C3108 1.386 . S
C3112 C3107 1.490 . S
C3112 C3114 1.395 . S
C3112 C3115 1.403 . S
H3113 C3119 0.930 . S
C3114 H3100 0.930 . S
C3114 C3112 1.395 . S
C3114 C3117 1.403 . S
C3115 C3112 1.403 . S
C3115 C3116 1.524 . S
C3115 C3119 1.400 . S
C3116 H3101 0.960 . S
C3116 H3102 0.960 . S
C3116 H3103 0.960 . S
C3116 C3115 1.524 . S
C3117 C3114 1.403 . S
C3117 C3118 1.392 . S
C3117 C3121 1.495 . S
C3118 C3117 1.392 . S
C3118 C3119 1.385 . S
C3118 C3120 1.478 . S
C3119 H3113 0.930 . S
C3119 C3115 1.400 . S
C3119 C3118 1.385 . S
C3120 C3118 1.478 . S
C3120 C3122 1.381 . S
C3120 C3126 1.383 . S
C3121 C3117 1.495 . S
C3121 H3127 0.959 . S
C3121 H3128 0.961 . S
C3121 H3129 0.960 . S
C3122 C3120 1.381 . S
C3122 C3123 1.394 . S
C3122 H3130 0.930 . S
C3123 C3122 1.394 . S
C3123 C3124 1.383 . S
C3123 H3131 0.929 . S
C3124 C3123 1.383 . S
C3124 C3125 1.377 . S
C3125 H3109 0.930 . S
C3125 C3124 1.377 . S
C3125 C3126 1.379 . S
C3126 H3110 0.931 . S
C3126 C3120 1.383 . S
C3126 C3125 1.379 . S
H3127 C3121 0.959 . S
H3128 C3121 0.961 . S
H3129 C3121 0.960 . S
H3130 C3122 0.930 . S
H3131 C3123 0.929 . S
H3132 C3140 0.929 . S
H3133 C3142 0.930 . S
H3134 C3144 0.930 . S
H3135 C3147 0.929 . S
H3136 C3150 0.930 . S
H3137 C3152 0.960 . S
H3138 C3152 0.960 . S
H3139 C3152 0.960 . S
C3140 H3132 0.929 . S
C3140 C3141 1.366 1_455 S
C3140 C3142 1.384 . S
C3141 C3140 1.366 1_655 S
C3141 C3147 1.402 . S
C3142 H3133 0.930 . S
C3142 C3140 1.384 . S
C3142 C3143 1.372 1_455 S
C3143 C3142 1.372 1_655 S
C3143 C3144 1.400 . S
C3143 C3148 1.490 . S
C3144 H3134 0.930 . S
C3144 C3143 1.400 . S
C3144 C3147 1.386 . S
H3145 C3161 0.930 . S
H3146 C3162 0.931 . S
C3147 H3135 0.929 . S
C3147 C3141 1.402 . S
C3147 C3144 1.386 . S
C3148 C3143 1.490 . S
C3148 C3150 1.395 1_655 S
C3148 C3151 1.403 . S
H3149 C3155 0.930 . S
C3150 H3136 0.930 . S
C3150 C3148 1.395 1_455 S
C3150 C3153 1.403 . S
C3151 C3148 1.403 . S
C3151 C3152 1.524 . S
C3151 C3155 1.400 . S
C3152 H3137 0.960 . S
C3152 H3138 0.960 . S
C3152 H3139 0.960 . S
C3152 C3151 1.524 . S
C3153 C3150 1.403 . S
C3153 C3154 1.392 1_455 S
C3153 C3157 1.495 . S
C3154 C3153 1.392 1_655 S
C3154 C3155 1.385 . S
C3154 C3156 1.478 . S
C3155 H3149 0.930 . S
C3155 C3151 1.400 . S
C3155 C3154 1.385 . S
C3156 C3154 1.478 . S
C3156 C3158 1.381 . S
C3156 C3162 1.383 . S
C3157 C3153 1.495 . S
C3157 H3163 0.959 . S
C3157 H3164 0.961 . S
C3157 H3165 0.960 . S
C3158 C3156 1.381 . S
C3158 C3159 1.394 . S
C3158 H3166 0.930 1_655 S
C3159 C3158 1.394 . S
C3159 C3160 1.383 . S
C3159 H3167 0.929 1_655 S
C3160 C3159 1.383 . S
C3160 C3161 1.377 . S
C3161 H3145 0.930 . S
C3161 C3160 1.377 . S
C3161 C3162 1.379 . S
C3162 H3146 0.931 . S
C3162 C3156 1.383 . S
C3162 C3161 1.379 . S
H3163 C3157 0.959 . S
H3164 C3157 0.961 . S
H3165 C3157 0.960 . S
H3166 C3158 0.930 1_455 S
H3167 C3159 0.929 1_455 S
C604 N564 1.548 1_455 S
C585 C8 1.538 . S
C640 N525 1.343 . S
C621 C19 1.333 . S
C676 N551 1.094 . S
C657 C30 1.086 . S
C712 N538 1.551 . S
C693 C41 1.530 . S
C748 N447 1.546 1_545 S
C729 C52 1.536 . S
C765 C63 1.524 . S
C784 N460 1.541 . S
C820 N421 1.347 . S
C801 C74 1.335 . S
C837 C85 1.089 . S
C856 N434 1.072 . S
C892 N512 1.546 1_554 S
C873 C96 1.536 . S
C909 C107 1.525 . S
C928 N486 1.539 . S
C945 C118 1.330 . S
C964 N473 1.347 . S
C1000 N499 1.081 . S
C981 C129 1.090 . S
C1036 N408 1.548 1_655 S
C1017 C140 1.505 . S
C1053 C151 1.277 . S
C1072 N369 1.356 . S
C1108 N395 1.085 . S
C1089 C162 1.061 . S
C1125 C173 1.493 . S
C1144 N382 1.552 . S
C1180 N291 1.537 1_565 S
C1161 C184 1.513 . S
C1216 N304 1.553 . S
C1197 C195 1.487 . S
C1233 C206 1.290 . S
C1252 N265 1.345 . S
C1269 C217 1.072 . S
C1288 N278 1.071 . S
C1305 C228 1.508 . S
C1324 N356 1.544 1_556 S
C1341 C239 1.487 . S
C1360 N330 1.551 . S
C1396 N317 1.346 . S
C1377 C250 1.290 . S
C1413 C261 1.060 . S
C1432 N343 1.089 . S
C1468 N269 1.447 . S
C1449 C7 1.430 . S
C1504 N282 1.345 . S
C1485 C18 1.317 . S
C1521 C29 1.221 . S
C1540 N295 1.215 . S
C1557 C40 1.095 1_565 S
C1576 N308 1.090 . S
C1612 N321 1.444 . S
C1593 C51 1.426 . S
C1629 C62 1.100 1_556 S
C1648 N334 1.109 . S
C1684 N347 1.334 . S
C1665 C73 1.325 . S
C1720 N360 1.203 . S
C1701 C84 1.201 . S
C1756 N373 1.443 . S
C1737 C95 1.426 . S
C1773 C106 1.100 1_655 S
C1792 N386 1.108 . S
C1809 C117 1.325 . S
C1828 N399 1.333 . S
C1845 C128 1.224 . S
C1864 N412 1.223 . S
C1881 C139 1.386 . S
C1900 N425 1.444 . S
C1917 C150 1.233 . S
C1936 N438 1.336 . S
C1953 C161 1.176 1_545 S
C1972 N451 1.202 . S
C1989 C172 1.067 . S
C2008 N464 1.086 . S
C2025 C183 1.384 . S
C2044 N477 1.445 . S
C2080 N490 1.114 . S
C2061 C194 1.052 . S
C2116 N503 1.345 . S
C2097 C205 1.246 . S
C2152 N516 1.227 . S
C2133 C216 1.163 1_554 S
C2188 N529 1.448 . S
C2169 C227 1.374 . S
C2205 C238 1.056 . S
C2224 N542 1.101 . S
C2241 C249 1.247 . S
C2260 N555 1.345 . S
C2277 C260 1.170 1_455 S
C2296 N568 1.216 . S
C2313 C5 1.342 . S
C2332 N370 1.516 . S
C2368 N409 1.508 . S
C2349 C16 1.370 . S
C2385 C27 1.257 1_545 S
C2404 N383 1.421 . S
C2440 N396 1.554 . S
C2421 C38 1.343 1_565 S
C2457 C49 1.340 . S
C2476 N266 1.515 . S
C2493 C60 1.367 1_556 S
C2512 N279 1.551 . S
C2529 C71 1.372 . S
C2548 N292 1.495 . S
C2565 C82 1.251 1_554 S
C2584 N305 1.401 . S
C2620 N318 1.517 . S
C2601 C93 1.343 . S
C2656 N344 1.555 . S
C2637 C104 1.363 1_655 S
C2673 C115 1.363 . S
C2692 N357 1.499 . S
C2709 C126 1.250 1_455 S
C2728 N331 1.395 . S
C2764 N526 1.516 . S
C2745 C137 1.215 . S
C2800 N565 1.512 . S
C2781 C148 1.151 . S
C2817 C159 1.179 . S
C2836 N539 1.400 . S
C2872 N552 1.557 . S
C2853 C170 1.203 . S
C2889 C181 1.227 . S
C2908 N422 1.504 . S
C2925 C192 1.199 . S
C2944 N435 1.560 . S
C2961 C203 1.177 . S
C2980 N448 1.496 . S
C3016 N461 1.414 . S
C2997 C214 1.180 . S
C3052 N474 1.504 . S
C3033 C225 1.226 . S
C3088 N500 1.559 . S
C3069 C236 1.198 . S
C3105 C247 1.151 . S
C3124 N513 1.503 . S
C3160 N487 1.421 . S
C3141 C258 1.174 . S
