# Generated by pormake.
# Topology apo, (3,6)-cn, num edge types: 1
# Building blocks:
#     Node 0, Type 0, BuildingBlock: CUQRIR_clean_linker_1, # of connection points: 3
#     Node 1, Type 0, BuildingBlock: CUQRIR_clean_linker_1, # of connection points: 3
#     Node 2, Type 0, BuildingBlock: CUQRIR_clean_linker_1, # of connection points: 3
#     Node 3, Type 0, BuildingBlock: CUQRIR_clean_linker_1, # of connection points: 3
#     Node 4, Type 0, BuildingBlock: CUQRIR_clean_linker_1, # of connection points: 3
#     Node 5, Type 0, BuildingBlock: CUQRIR_clean_linker_1, # of connection points: 3
#     Node 6, Type 0, BuildingBlock: CUQRIR_clean_linker_1, # of connection points: 3
#     Node 7, Type 0, BuildingBlock: CUQRIR_clean_linker_1, # of connection points: 3
#     Node 8, Type 1, BuildingBlock: MIDCAF_clean_sbu_0, # of connection points: 6
#     Node 9, Type 1, BuildingBlock: MIDCAF_clean_sbu_0, # of connection points: 6
#     Node 10, Type 1, BuildingBlock: MIDCAF_clean_sbu_0, # of connection points: 6
#     Node 11, Type 1, BuildingBlock: MIDCAF_clean_sbu_0, # of connection points: 6
#     Edge 12, Type (0, 1), BuildingBlock: XIVTED_clean_linker_0, # of connection points: 2
#     Edge 13, Type (0, 1), BuildingBlock: XIVTED_clean_linker_0, # of connection points: 2
#     Edge 14, Type (0, 1), BuildingBlock: XIVTED_clean_linker_0, # of connection points: 2
#     Edge 15, Type (0, 1), BuildingBlock: XIVTED_clean_linker_0, # of connection points: 2
#     Edge 16, Type (0, 1), BuildingBlock: XIVTED_clean_linker_0, # of connection points: 2
#     Edge 17, Type (0, 1), BuildingBlock: XIVTED_clean_linker_0, # of connection points: 2
#     Edge 18, Type (0, 1), BuildingBlock: XIVTED_clean_linker_0, # of connection points: 2
#     Edge 19, Type (0, 1), BuildingBlock: XIVTED_clean_linker_0, # of connection points: 2
#     Edge 20, Type (0, 1), BuildingBlock: XIVTED_clean_linker_0, # of connection points: 2
#     Edge 21, Type (0, 1), BuildingBlock: XIVTED_clean_linker_0, # of connection points: 2
#     Edge 22, Type (0, 1), BuildingBlock: XIVTED_clean_linker_0, # of connection points: 2
#     Edge 23, Type (0, 1), BuildingBlock: XIVTED_clean_linker_0, # of connection points: 2
#     Edge 24, Type (0, 1), BuildingBlock: XIVTED_clean_linker_0, # of connection points: 2
#     Edge 25, Type (0, 1), BuildingBlock: XIVTED_clean_linker_0, # of connection points: 2
#     Edge 26, Type (0, 1), BuildingBlock: XIVTED_clean_linker_0, # of connection points: 2
#     Edge 27, Type (0, 1), BuildingBlock: XIVTED_clean_linker_0, # of connection points: 2
#     Edge 28, Type (0, 1), BuildingBlock: XIVTED_clean_linker_0, # of connection points: 2
#     Edge 29, Type (0, 1), BuildingBlock: XIVTED_clean_linker_0, # of connection points: 2
#     Edge 30, Type (0, 1), BuildingBlock: XIVTED_clean_linker_0, # of connection points: 2
#     Edge 31, Type (0, 1), BuildingBlock: XIVTED_clean_linker_0, # of connection points: 2
#     Edge 32, Type (0, 1), BuildingBlock: XIVTED_clean_linker_0, # of connection points: 2
#     Edge 33, Type (0, 1), BuildingBlock: XIVTED_clean_linker_0, # of connection points: 2
#     Edge 34, Type (0, 1), BuildingBlock: XIVTED_clean_linker_0, # of connection points: 2
#     Edge 35, Type (0, 1), BuildingBlock: XIVTED_clean_linker_0, # of connection points: 2
# Relax obj value: 0.008
# Max RMSD: 0.061
# Mean RMSD: 0.060
data_MOF--net-apo--node1-MIDCAF_clean_sbu_0--node2-CUQRIR_clean_linker_1--edge1-XIVTED_clean_linker_0
_symmetry_space_group_name_H-M    P1
_symmetry_Int_Tables_number       1
_symmetry_cell_setting            triclinic
loop_
_symmetry_equiv_pos_as_xyz
'x, y, z'
_cell_length_a     34.510371
_cell_length_b     39.369663
_cell_length_c     30.463831
_cell_angle_alpha  89.536212
_cell_angle_beta   90.08927
_cell_angle_gamma 89.881435
loop_
_atom_site_label
_atom_site_type_symbol
_atom_site_fract_x
_atom_site_fract_y
_atom_site_fract_z
_atom_type_partial_charge
C0 C 0.3038 0.26811 0.40799 0.0
N1 N 0.32921 0.29329 0.41716 0.0
N2 N 0.29491 0.26811 0.36465 0.0
C3 C 0.28571 0.24501 0.44171 0.0
C4 C 0.31586 0.29404 0.34771 0.0
N5 N 0.33651 0.30964 0.37964 0.0
C6 C 0.31875 0.30188 0.29936 0.0
H7 H 0.3038 0.22181 0.44517 0.0
H8 H 0.25617 0.23728 0.43145 0.0
H9 H 0.2841 0.25754 0.47414 0.0
H10 H 0.29648 0.32107 0.29036 0.0
H11 H 0.31339 0.27877 0.27966 0.0
H12 H 0.34774 0.31213 0.29093 0.0
C13 C 0.19231 0.21543 0.9123 0.0
N14 N 0.16531 0.19166 0.92201 0.0
N15 N 0.20242 0.2138 0.8694 0.0
C16 C 0.20844 0.24033 0.94469 0.0
C17 C 0.18046 0.18834 0.85326 0.0
N18 N 0.15741 0.17512 0.88511 0.0
C19 C 0.18223 0.1761 0.80662 0.0
H20 H 0.18465 0.25108 0.96478 0.0
H21 H 0.22451 0.26121 0.92831 0.0
H22 H 0.22856 0.22678 0.96725 0.0
H23 H 0.21046 0.18217 0.79119 0.0
H24 H 0.15919 0.18896 0.78722 0.0
H25 H 0.17747 0.14827 0.8052 0.0
C26 C 0.80803 0.21858 0.65312 0.0
N27 N 0.8338 0.19349 0.64467 0.0
N28 N 0.79781 0.21821 0.69603 0.0
C29 C 0.79109 0.24213 0.61898 0.0
C30 C 0.81834 0.19208 0.71346 0.0
N31 N 0.84008 0.17677 0.68219 0.0
C32 C 0.81985 0.18387 0.7618 0.0
H33 H 0.76117 0.24977 0.62789 0.0
H34 H 0.79072 0.23 0.58624 0.0
H35 H 0.80922 0.26533 0.61688 0.0
H36 H 0.81381 0.20683 0.78156 0.0
H37 H 0.84863 0.17354 0.77129 0.0
H38 H 0.79741 0.16464 0.76963 0.0
C39 C 0.69645 0.27553 0.14661 0.0
N40 N 0.66652 0.29659 0.13683 0.0
N41 N 0.70451 0.27637 0.19007 0.0
C42 C 0.7167 0.25303 0.11425 0.0
C43 C 0.67853 0.29859 0.20653 0.0
N44 N 0.65504 0.31075 0.17424 0.0
C45 C 0.67849 0.31027 0.25345 0.0
H46 H 0.73057 0.23099 0.13095 0.0
H47 H 0.73956 0.26795 0.09735 0.0
H48 H 0.69604 0.24381 0.08909 0.0
H49 H 0.70711 0.30589 0.26918 0.0
H50 H 0.65647 0.29563 0.27211 0.0
H51 H 0.67118 0.33767 0.25539 0.0
C52 C 0.6907 0.72009 0.65072 0.0
N53 N 0.66583 0.69448 0.64186 0.0
N54 N 0.70001 0.72028 0.69394 0.0
C55 C 0.70764 0.74367 0.61675 0.0
C56 C 0.67982 0.69393 0.71112 0.0
N57 N 0.6592 0.67798 0.67942 0.0
C58 C 0.67735 0.68615 0.75951 0.0
H59 H 0.70915 0.73122 0.58425 0.0
H60 H 0.73708 0.75204 0.62649 0.0
H61 H 0.68881 0.76644 0.61363 0.0
H62 H 0.64863 0.67544 0.76818 0.0
H63 H 0.68231 0.70937 0.77912 0.0
H64 H 0.70007 0.66733 0.7684 0.0
C65 C 0.80387 0.77017 0.14971 0.0
N66 N 0.83165 0.79324 0.13997 0.0
N67 N 0.79408 0.77191 0.19267 0.0
C68 C 0.78658 0.74591 0.11727 0.0
C69 C 0.81696 0.7967 0.20884 0.0
N70 N 0.84032 0.8094 0.17693 0.0
C71 C 0.81566 0.80894 0.25551 0.0
H72 H 0.766 0.75999 0.0958 0.0
H73 H 0.77069 0.72496 0.13373 0.0
H74 H 0.80964 0.73522 0.09609 0.0
H75 H 0.83844 0.79562 0.27481 0.0
H76 H 0.78735 0.80344 0.27108 0.0
H77 H 0.82114 0.83667 0.25695 0.0
C78 C 0.19489 0.76992 0.41126 0.0
N79 N 0.16732 0.7932 0.42079 0.0
N80 N 0.20465 0.7718 0.36827 0.0
C81 C 0.21211 0.74533 0.44393 0.0
C82 C 0.18194 0.79692 0.35185 0.0
N83 N 0.15875 0.80971 0.38367 0.0
C84 C 0.18335 0.80941 0.30506 0.0
H85 H 0.23398 0.75882 0.46399 0.0
H86 H 0.22657 0.72368 0.42761 0.0
H87 H 0.18932 0.73563 0.46642 0.0
H88 H 0.16062 0.79627 0.28584 0.0
H89 H 0.21173 0.80385 0.28971 0.0
H90 H 0.17788 0.83717 0.30328 0.0
C91 C 0.30474 0.71488 0.91121 0.0
N92 N 0.33324 0.69256 0.92171 0.0
N93 N 0.29518 0.71233 0.86825 0.0
C94 C 0.28668 0.73944 0.94272 0.0
C95 C 0.31898 0.6879 0.8528 0.0
N96 N 0.34261 0.67611 0.88516 0.0
C97 C 0.31792 0.67488 0.8065 0.0
H98 H 0.26472 0.72581 0.9627 0.0
H99 H 0.27213 0.76076 0.92524 0.0
H100 H 0.30895 0.74961 0.96538 0.0
H101 H 0.34007 0.68847 0.78675 0.0
H102 H 0.28926 0.67949 0.79104 0.0
H103 H 0.3244 0.64728 0.80577 0.0
Zn104 Zn 0.03434 0.09309 0.35155 0.0
Zn105 Zn 0.95575 0.09392 0.21502 0.0
Zn106 Zn -0.00343 0.09344 0.28206 0.0
C107 C 0.01893 0.13209 0.19126 0.0
C108 C 0.97069 0.02683 0.22725 0.0
O109 O 0.96292 0.11995 0.33531 0.0
O110 O 0.0062 0.12579 0.38814 0.0
C111 C 0.08407 0.12017 0.29055 0.0
O112 O 0.03015 0.12068 0.22908 0.0
O113 O 0.98484 0.12635 0.1784 0.0
O114 O 0.95848 0.04637 0.19732 0.0
O115 O 0.98475 0.03944 0.26288 0.0
O116 O 0.08487 0.10719 0.32848 0.0
O117 O 0.05254 0.11962 0.2678 0.0
O118 O 0.00818 0.03921 0.30124 0.0
O119 O 0.03059 0.04506 0.36863 0.0
C120 C 0.02071 0.026 0.33753 0.0
O121 O 0.94163 0.12184 0.29565 0.0
O122 O 0.90565 0.10947 0.23798 0.0
C123 C 0.97254 0.13114 0.37355 0.0
C124 C 0.90916 0.12364 0.27468 0.0
Zn125 Zn 0.53094 0.3967 0.70486 0.0
Zn126 Zn 0.45941 0.39334 0.84696 0.0
Zn127 Zn 0.49631 0.39342 0.77784 0.0
C128 C 0.47528 0.45988 0.83605 0.0
C129 C 0.4084 0.36665 0.78896 0.0
O130 O 0.55215 0.36643 0.78825 0.0
O131 O 0.58184 0.38078 0.72661 0.0
C132 C 0.51915 0.46267 0.72412 0.0
O133 O 0.48639 0.44724 0.79916 0.0
O134 O 0.46506 0.44029 0.8668 0.0
O135 O 0.40762 0.38065 0.82599 0.0
O136 O 0.43988 0.36697 0.76617 0.0
O137 O 0.52679 0.44554 0.69043 0.0
O138 O 0.5086 0.4475 0.7599 0.0
O139 O 0.46021 0.36772 0.72611 0.0
O140 O 0.50015 0.3649 0.6696 0.0
C141 C 0.46787 0.35795 0.68668 0.0
O142 O 0.53163 0.36472 0.82832 0.0
O143 O 0.48807 0.3587 0.88066 0.0
C144 C 0.58261 0.36652 0.76384 0.0
C145 C 0.52153 0.35262 0.86613 0.0
Zn146 Zn 0.04004 0.88925 0.84746 0.0
Zn147 Zn 0.96153 0.89628 0.71126 0.0
Zn148 Zn 0.00017 0.89074 0.78009 0.0
C149 C 0.97828 0.96117 0.72798 0.0
C150 C 0.91189 0.86733 0.7717 0.0
O151 O 0.0547 0.86252 0.76466 0.0
O152 O 0.08981 0.87425 0.82324 0.0
C153 C 0.02699 0.95636 0.83729 0.0
O154 O 0.98957 0.94552 0.76321 0.0
O155 O 0.96807 0.9444 0.69491 0.0
O156 O 0.91063 0.88325 0.73564 0.0
O157 O 0.94398 0.86518 0.79325 0.0
O158 O 0.03805 0.93639 0.86731 0.0
O159 O 0.01332 0.94417 0.80121 0.0
O160 O 0.96617 0.86297 0.83232 0.0
O161 O 0.01122 0.85602 0.88301 0.0
C162 C 0.97712 0.85079 0.86983 0.0
O163 O 0.03217 0.86369 0.72604 0.0
O164 O 0.98762 0.86278 0.67406 0.0
C165 C 0.08698 0.86084 0.78597 0.0
C166 C 0.02079 0.85424 0.68762 0.0
Zn167 Zn 0.53917 0.59317 0.2124 0.0
Zn168 Zn 0.46422 0.58984 0.35193 0.0
Zn169 Zn 0.50085 0.59289 0.28063 0.0
C170 C 0.52718 0.62802 0.37253 0.0
C171 C 0.47706 0.52383 0.33353 0.0
O172 O 0.46685 0.62215 0.22961 0.0
O173 O 0.51141 0.62826 0.17839 0.0
C174 C 0.58917 0.61885 0.27229 0.0
O175 O 0.53601 0.61794 0.33357 0.0
O176 O 0.49414 0.62168 0.3881 0.0
O177 O 0.46841 0.54112 0.36676 0.0
O178 O 0.4882 0.53883 0.29788 0.0
O179 O 0.59065 0.60523 0.23505 0.0
O180 O 0.55719 0.61863 0.29413 0.0
O181 O 0.51042 0.53903 0.2588 0.0
O182 O 0.53332 0.54642 0.19189 0.0
C183 C 0.52214 0.52664 0.22199 0.0
O184 O 0.44574 0.621 0.26946 0.0
O185 O 0.41372 0.60592 0.32924 0.0
C186 C 0.47771 0.63442 0.19218 0.0
C187 C 0.41452 0.62109 0.29262 0.0
H188 H 0.15401 0.86509 0.43519 0.0
H189 H 0.03777 0.97915 0.27366 0.0
H190 H 0.10264 0.81822 0.32186 0.0
H191 H 0.02421 0.98989 0.41364 0.0
H192 H 0.06444 0.9219 0.28608 0.0
H193 H 0.11093 0.91399 0.42488 0.0
C194 C 0.13327 0.86493 0.40851 0.0
C195 C 0.1319 0.83769 0.37928 0.0
C196 C 0.05471 0.93661 0.31387 0.0
C197 C 0.08367 0.89394 0.36627 0.0
C198 C 0.03916 0.96908 0.3068 0.0
C199 C 0.02851 0.98922 0.34264 0.0
C200 C 0.06068 0.92489 0.35704 0.0
C201 C 0.03221 0.97531 0.38505 0.0
C202 C 0.10886 0.89284 0.40249 0.0
C203 C 0.10509 0.83909 0.34453 0.0
N204 N 0.04868 0.94432 0.39113 0.0
N205 N 0.0824 0.86706 0.33846 0.0
H206 H 0.34931 0.62112 0.93827 0.0
H207 H 0.46125 0.50954 0.77373 0.0
H208 H 0.39906 0.669 0.82393 0.0
H209 H 0.474 0.49367 0.91331 0.0
H210 H 0.43771 0.56729 0.7879 0.0
H211 H 0.39261 0.57254 0.92803 0.0
C212 C 0.36984 0.62162 0.91146 0.0
C213 C 0.3705 0.64891 0.88174 0.0
C214 C 0.44666 0.55136 0.81526 0.0
C215 C 0.41901 0.59306 0.86881 0.0
C216 C 0.46051 0.51856 0.80716 0.0
C217 C 0.46974 0.49678 0.84235 0.0
C218 C 0.44108 0.56186 0.85877 0.0
C219 C 0.46686 0.50949 0.88519 0.0
C220 C 0.39439 0.59388 0.90547 0.0
C221 C 0.39713 0.64801 0.84693 0.0
N222 N 0.45202 0.54089 0.89224 0.0
N223 N 0.41988 0.62018 0.84083 0.0
H224 H 0.58517 0.66932 0.65049 0.0
H225 H 0.55419 0.49931 0.78825 0.0
H226 H 0.67729 0.61998 0.72245 0.0
H227 H 0.50785 0.50799 0.6571 0.0
H228 H 0.58481 0.55516 0.77888 0.0
H229 H 0.54363 0.61951 0.66445 0.0
C230 C 0.59667 0.64797 0.66895 0.0
C231 C 0.63468 0.64865 0.6854 0.0
C232 C 0.56718 0.54506 0.7526 0.0
C233 C 0.58703 0.59298 0.70328 0.0
C234 C 0.54943 0.51348 0.75807 0.0
C235 C 0.52867 0.49914 0.7233 0.0
C236 C 0.56348 0.56251 0.71244 0.0
C237 C 0.5238 0.51827 0.68458 0.0
C238 C 0.57291 0.61989 0.6773 0.0
C239 C 0.64795 0.62066 0.70993 0.0
N240 N 0.54127 0.54903 0.68003 0.0
N241 N 0.62407 0.5941 0.71853 0.0
H242 H 0.84522 0.86508 0.12492 0.0
H243 H 0.9558 0.97779 0.28998 0.0
H244 H 0.89639 0.81712 0.23872 0.0
H245 H 0.9692 0.99283 0.15041 0.0
H246 H 0.93193 0.92003 0.27601 0.0
H247 H 0.88714 0.91434 0.13602 0.0
C248 C 0.86574 0.86474 0.15182 0.0
C249 C 0.86724 0.83718 0.18109 0.0
C250 C 0.94105 0.9358 0.24864 0.0
C251 C 0.91413 0.89378 0.19501 0.0
C252 C 0.95498 0.96857 0.25661 0.0
C253 C 0.96469 0.99001 0.22133 0.0
C254 C 0.93579 0.92509 0.20514 0.0
C255 C 0.96183 0.97717 0.17856 0.0
C256 C 0.88948 0.89286 0.15831 0.0
C257 C 0.8938 0.83829 0.21606 0.0
N258 N 0.94694 0.94583 0.17161 0.0
N259 N 0.91577 0.86646 0.22262 0.0
H260 H 0.9147 0.16888 0.65486 0.0
H261 H 0.94613 -0.00099 0.7928 0.0
H262 H 0.82224 0.11832 0.72411 0.0
H263 H 0.99061 0.00606 0.66088 0.0
H264 H 0.91657 0.05542 0.78338 0.0
H265 H 0.95684 0.11935 0.66949 0.0
C266 C 0.90326 0.14736 0.6729 0.0
C267 C 0.86498 0.14762 0.68843 0.0
C268 C 0.93368 0.04486 0.75699 0.0
C269 C 0.91328 0.09234 0.70716 0.0
C270 C 0.95083 0.01296 0.76248 0.0
C271 C 0.97058 -0.00202 0.72746 0.0
C272 C 0.93703 0.06196 0.71656 0.0
C273 C 0.97542 0.01686 0.68854 0.0
C274 C 0.92737 0.11945 0.68166 0.0
C275 C 0.85178 0.11938 0.7124 0.0
N276 N 0.9585 0.04791 0.68395 0.0
N277 N 0.87597 0.09304 0.72144 0.0
H278 H 0.5976 0.31532 0.2349 0.0
H279 H 0.52256 0.49374 0.14415 0.0
H280 H 0.64753 0.367 0.12341 0.0
H281 H 0.53569 0.47604 0.28333 0.0
H282 H 0.54716 0.43663 0.13041 0.0
H283 H 0.55531 0.3648 0.24726 0.0
C284 C 0.59937 0.33693 0.21283 0.0
C285 C 0.62641 0.33733 0.1784 0.0
C286 C 0.54371 0.445 0.16398 0.0
C287 C 0.5773 0.3929 0.19117 0.0
C288 C 0.52957 0.47749 0.17194 0.0
C289 C 0.52715 0.48974 0.21503 0.0
C290 C 0.55521 0.42437 0.19931 0.0
C291 C 0.53651 0.46748 0.24971 0.0
C292 C 0.57518 0.36491 0.21977 0.0
C293 C 0.62686 0.36549 0.14999 0.0
N294 N 0.55057 0.43585 0.2411 0.0
N295 N 0.6027 0.39216 0.15701 0.0
H296 H 0.41042 0.31771 0.40915 0.0
H297 H 0.44333 0.48637 0.26937 0.0
H298 H 0.31906 0.3678 0.33679 0.0
H299 H 0.48839 0.4792 0.40123 0.0
H300 H 0.41296 0.43049 0.27928 0.0
H301 H 0.45273 0.36703 0.39478 0.0
C302 C 0.39928 0.33911 0.39047 0.0
C303 C 0.36131 0.33877 0.37391 0.0
C304 C 0.43031 0.44091 0.30558 0.0
C305 C 0.40972 0.39379 0.35564 0.0
C306 C 0.44791 0.4725 0.29981 0.0
C307 C 0.46815 0.48729 0.33463 0.0
C308 C 0.43363 0.42392 0.34611 0.0
C309 C 0.47282 0.46854 0.37371 0.0
C310 C 0.42346 0.36689 0.38191 0.0
C311 C 0.34839 0.36683 0.34929 0.0
N312 N 0.45544 0.43779 0.37858 0.0
N313 N 0.37266 0.39305 0.34047 0.0
H314 H 0.15397 0.11952 0.93742 0.0
H315 H 0.03971 0.00601 0.77461 0.0
H316 H 0.10164 0.16597 0.82329 0.0
H317 H 0.03261 0.98972 0.91457 0.0
H318 H 0.06397 0.06362 0.78795 0.0
H319 H 0.11274 0.0697 0.92726 0.0
C320 C 0.13338 0.11938 0.91059 0.0
C321 C 0.1313 0.14673 0.88102 0.0
C322 C 0.05618 0.04761 0.81561 0.0
C323 C 0.08506 0.0895 0.86823 0.0
C324 C 0.04189 0.0149 0.80801 0.0
C325 C 0.03383 0.9931 0.84348 0.0
C326 C 0.06339 0.05799 0.85889 0.0
C327 C 0.0387 0.00558 0.88621 0.0
C328 C 0.11 0.09095 0.90465 0.0
C329 C 0.10466 0.14501 0.84619 0.0
N330 N 0.05382 0.03691 0.89272 0.0
N331 N 0.08296 0.11658 0.84024 0.0
H332 H 0.08919 0.19882 0.93798 0.0
H333 H 0.09833 0.12481 0.18222 0.0
H334 H 0.1977 0.17362 0.99987 0.0
H335 H -0.00073 0.1769 0.12714 0.0
H336 H 0.13687 0.14328 0.11838 0.0
H337 H 0.05611 0.18998 1.00827 0.0
C338 C 0.1059 0.1915 0.96665 0.0
C339 C 0.14597 0.18699 0.96353 0.0
C340 C 0.10687 0.15113 0.12078 0.0
C341 C 0.10875 0.17667 0.04407 0.0
C342 C 0.085 0.14089 0.15743 0.0
C343 C 0.04546 0.14911 0.15984 0.0
C344 C 0.08882 0.1694 0.08643 0.0
C345 C 0.02953 0.16959 0.12641 0.0
C346 C 0.08723 0.18661 1.00679 0.0
C347 C 0.1667 0.17756 1.00141 0.0
N348 N 0.05104 0.1786 0.09098 0.0
N349 N 0.14782 0.17241 0.04016 0.0
H350 H 0.32229 0.35216 0.4619 0.0
H351 H 0.476 0.2989 0.6429 0.0
H352 H 0.37168 0.25187 0.46897 0.0
H353 H 0.39606 0.38135 0.66345 0.0
H354 H 0.43746 0.28059 0.58001 0.0
H355 H 0.34953 0.36439 0.53497 0.0
C356 C 0.33893 0.33282 0.47902 0.0
C357 C 0.34509 0.3011 0.45971 0.0
C358 C 0.42772 0.30223 0.59876 0.0
C359 C 0.37605 0.31457 0.54276 0.0
C360 C 0.44953 0.31247 0.6349 0.0
C361 C 0.43885 0.34138 0.65855 0.0
C362 C 0.39564 0.32171 0.58526 0.0
C363 C 0.40483 0.35859 0.64635 0.0
C364 C 0.35412 0.3396 0.52071 0.0
C365 C 0.36645 0.27661 0.48302 0.0
N366 N 0.38479 0.34892 0.60992 0.0
N367 N 0.38146 0.28393 0.52313 0.0
H368 H 0.59169 0.2847 0.11791 0.0
H369 H 0.60049 0.36188 0.87548 0.0
H370 H 0.69918 0.31743 0.06034 0.0
H371 H 0.50406 0.30471 0.927 0.0
H372 H 0.63929 0.34402 0.93962 0.0
H373 H 0.55979 0.29187 0.04655 0.0
C374 C 0.60844 0.29338 0.08998 0.0
C375 C 0.64787 0.30053 0.09468 0.0
C376 C 0.60988 0.33486 0.93633 0.0
C377 C 0.61196 0.30889 1.01283 0.0
C378 C 0.5879 0.34474 0.89948 0.0
C379 C 0.5489 0.33501 0.89615 0.0
C380 C 0.59247 0.31539 0.96989 0.0
C381 C 0.53389 0.31314 0.92851 0.0
C382 C 0.59045 0.29729 0.0492 0.0
C383 C 0.66866 0.31154 0.05765 0.0
N384 N 0.55542 0.30453 0.96419 0.0
N385 N 0.6504 0.3157 1.01825 0.0
H386 H 0.88003 0.23509 0.59829 0.0
H387 H 0.89837 0.11082 0.39206 0.0
H388 H 0.82633 0.13665 0.5958 0.0
H389 H 0.98411 0.18579 0.42533 0.0
H390 H 0.86041 0.12779 0.45683 0.0
H391 H 0.9084 0.22424 0.52583 0.0
C392 C 0.87434 0.21118 0.58221 0.0
C393 C 0.85132 0.18656 0.60278 0.0
C394 C 0.88718 0.14091 0.44934 0.0
C395 C 0.88279 0.1741 0.51991 0.0
C396 C 0.90849 0.13161 0.41213 0.0
C397 C 0.94432 0.14701 0.40348 0.0
C398 C 0.90164 0.16613 0.47738 0.0
C399 C 0.95658 0.17335 0.43091 0.0
C400 C 0.89034 0.20499 0.54101 0.0
C401 C 0.84437 0.15598 0.58089 0.0
N402 N 0.9354 0.18197 0.46668 0.0
N403 N 0.86002 0.15057 0.54046 0.0
H404 H 0.90741 0.78462 0.123 0.0
H405 H 0.89803 0.85966 0.87946 0.0
H406 H 0.79897 0.81223 0.06264 0.0
H407 H 0.99575 0.8045 0.93255 0.0
H408 H 0.8595 0.84173 0.94357 0.0
H409 H 0.93995 0.79281 0.05225 0.0
C410 C 0.8906 0.79235 0.09457 0.0
C411 C 0.8507 0.79771 0.09825 0.0
C412 C 0.88918 0.83308 0.94065 0.0
C413 C 0.8873 0.80727 1.0172 0.0
C414 C 0.91101 0.843 0.90384 0.0
C415 C 0.95024 0.83379 0.90085 0.0
C416 C 0.90695 0.81412 0.97457 0.0
C417 C 0.96576 0.81256 0.93375 0.0
C418 C 0.90896 0.79686 0.05417 0.0
C419 C 0.82984 0.80764 0.06068 0.0
N420 N 0.94432 0.80389 0.96937 0.0
N421 N 0.84842 0.8124 1.02167 0.0
H422 H 0.61993 0.73559 0.59394 0.0
H423 H 0.60158 0.60802 0.3911 0.0
H424 H 0.67417 0.63714 0.59407 0.0
H425 H 0.51563 0.68343 0.42275 0.0
H426 H 0.63995 0.62617 0.45512 0.0
H427 H 0.59185 0.72374 0.52156 0.0
C428 C 0.62588 0.7115 0.57841 0.0
C429 C 0.64894 0.68715 0.59971 0.0
C430 C 0.61306 0.63913 0.44741 0.0
C431 C 0.61767 0.67351 0.51699 0.0
C432 C 0.59151 0.62915 0.41063 0.0
C433 C 0.55553 0.64437 0.40179 0.0
C434 C 0.59864 0.66483 0.47479 0.0
C435 C 0.5433 0.67115 0.42852 0.0
C436 C 0.61 0.70473 0.53727 0.0
C437 C 0.65612 0.65628 0.57856 0.0
N438 N 0.56469 0.68043 0.46386 0.0
N439 N 0.64055 0.65028 0.53821 0.0
H440 H 0.40875 0.70206 0.93958 0.0
H441 H 0.39843 0.62718 0.18296 0.0
H442 H 0.30022 0.67432 0.99895 0.0
H443 H 0.49677 0.68118 0.13033 0.0
H444 H 0.36001 0.64588 0.11895 0.0
H445 H 0.44092 0.69445 1.01077 0.0
C446 C 0.39183 0.69445 0.96789 0.0
C447 C 0.35203 0.6888 0.96377 0.0
C448 C 0.3898 0.65415 0.12196 0.0
C449 C 0.38823 0.67988 0.04534 0.0
C450 C 0.41158 0.64379 0.15872 0.0
C451 C 0.45095 0.65237 0.16174 0.0
C452 C 0.40776 0.67294 0.08813 0.0
C453 C 0.46664 0.67359 0.12907 0.0
C454 C 0.40998 0.69027 1.00855 0.0
C455 C 0.33103 0.67907 1.00123 0.0
N456 N 0.44525 0.68267 0.09347 0.0
N457 N 0.34943 0.67458 0.04048 0.0
H458 H 0.20121 0.81097 0.49739 0.0
H459 H -0.00138 0.80989 0.62516 0.0
H460 H 0.09139 0.7863 0.43894 0.0
H461 H 0.10029 0.85845 0.67775 0.0
H462 H 0.03644 0.7907 0.56272 0.0
H463 H 0.16851 0.81989 0.56828 0.0
C464 C 0.17023 0.80717 0.49981 0.0
C465 C 0.14875 0.79793 0.46266 0.0
C466 C 0.05075 0.80518 0.58808 0.0
C467 C 0.11132 0.80782 0.54302 0.0
C468 C 0.02922 0.81595 0.62397 0.0
C469 C 0.04626 0.83603 0.65657 0.0
C470 C 0.08976 0.81466 0.5843 0.0
C471 C 0.08608 0.84289 0.65345 0.0
C472 C 0.15161 0.81233 0.54003 0.0
C473 C 0.10873 0.79358 0.46694 0.0
N474 N 0.10645 0.83261 0.61752 0.0
N475 N 0.09131 0.79854 0.50637 0.0
H476 H 0.23364 0.28826 0.31578 0.0
H477 H 0.15818 0.09828 0.29323 0.0
H478 H 0.29508 0.19963 0.36171 0.0
H479 H 0.0883 0.18565 0.26045 0.0
H480 H 0.21486 0.13484 0.29934 0.0
H481 H 0.1859 0.2514 0.27996 0.0
C482 C 0.23714 0.26096 0.3178 0.0
C483 C 0.26785 0.24674 0.34193 0.0
C484 C 0.18742 0.14606 0.28975 0.0
C485 C 0.21384 0.20453 0.30121 0.0
C486 C 0.15518 0.12511 0.28567 0.0
C487 C 0.11864 0.13912 0.27665 0.0
C488 C 0.18289 0.18138 0.28562 0.0
C489 C 0.1161 0.17397 0.26742 0.0
C490 C 0.21004 0.23997 0.29742 0.0
C491 C 0.27137 0.21136 0.34388 0.0
N492 N 0.1477 0.19415 0.2732 0.0
N493 N 0.24455 0.19145 0.32403 0.0
H494 H 0.19087 0.27918 0.84706 0.0
H495 H 0.40748 0.30162 0.75826 0.0
H496 H 0.27299 0.19728 0.83799 0.0
H497 H 0.33281 0.3842 0.79589 0.0
H498 H 0.3527 0.2623 0.76666 0.0
H499 H 0.23726 0.31704 0.81014 0.0
C500 C 0.21872 0.26931 0.83686 0.0
C501 C 0.22863 0.23549 0.84571 0.0
C502 C 0.34807 0.28918 0.77187 0.0
C503 C 0.28165 0.27809 0.80349 0.0
C504 C 0.37915 0.31165 0.76642 0.0
C505 C 0.37455 0.34604 0.77681 0.0
C506 C 0.31236 0.30146 0.78746 0.0
C507 C 0.33747 0.35776 0.78786 0.0
C508 C 0.24509 0.29071 0.81574 0.0
C509 C 0.26473 0.22341 0.83177 0.0
N510 N 0.30794 0.33546 0.79355 0.0
N511 N 0.29018 0.24478 0.81161 0.0
H512 H 0.73529 0.19854 0.7429 0.0
H513 H 0.65636 0.38819 0.75515 0.0
H514 H 0.79811 0.28668 0.69879 0.0
H515 H 0.58904 0.30156 0.79609 0.0
H516 H 0.71364 0.35212 0.75043 0.0
H517 H 0.6862 0.23581 0.77574 0.0
C518 C 0.73883 0.22582 0.74071 0.0
C519 C 0.7703 0.23977 0.71784 0.0
C520 C 0.68664 0.34096 0.76135 0.0
C521 C 0.71467 0.28246 0.75502 0.0
C522 C 0.65402 0.36164 0.76447 0.0
C523 C 0.61803 0.34767 0.77566 0.0
C524 C 0.68306 0.30583 0.76852 0.0
C525 C 0.61639 0.31321 0.78735 0.0
C526 C 0.71093 0.24705 0.75937 0.0
C527 C 0.77383 0.27513 0.71561 0.0
N528 N 0.64835 0.2932 0.7825 0.0
N529 N 0.7462 0.29526 0.73365 0.0
H530 H 0.78151 0.28679 0.18887 0.0
H531 H 0.83283 0.10902 0.28377 0.0
H532 H 0.69276 0.22343 0.24475 0.0
H533 H 0.91469 0.19123 0.28992 0.0
H534 H 0.78026 0.15028 0.27465 0.0
H535 H 0.83103 0.25244 0.2271 0.0
C536 C 0.77271 0.26568 0.20954 0.0
C537 C 0.73349 0.25745 0.2137 0.0
C538 C 0.80952 0.15943 0.27945 0.0
C539 C 0.78923 0.21815 0.25707 0.0
C540 C 0.83943 0.13589 0.28513 0.0
C541 C 0.87796 0.14687 0.28776 0.0
C542 C 0.81851 0.19403 0.2748 0.0
C543 C 0.88524 0.18187 0.28841 0.0
C544 C 0.8007 0.24632 0.23158 0.0
C545 C 0.72295 0.23014 0.24082 0.0
N546 N 0.85588 0.20427 0.2806 0.0
N547 N 0.75073 0.21104 0.261 0.0
H548 H 0.6971 0.78867 0.69413 0.0
H549 H 0.83837 0.89077 0.77857 0.0
H550 H 0.76152 0.7032 0.74454 0.0
H551 H 0.90682 0.79955 0.78957 0.0
H552 H 0.78009 0.85645 0.77213 0.0
H553 H 0.74369 0.82692 0.72756 0.0
C554 C 0.72101 0.77814 0.71288 0.0
C555 C 0.72583 0.74296 0.71642 0.0
C556 C 0.80763 0.84364 0.77586 0.0
C557 C 0.77908 0.78641 0.75651 0.0
C558 C 0.84084 0.86336 0.78068 0.0
C559 C 0.87728 0.84786 0.78418 0.0
C560 C 0.81118 0.80813 0.77279 0.0
C561 C 0.87911 0.81237 0.78688 0.0
C562 C 0.74745 0.79995 0.73273 0.0
C563 C 0.75695 0.7303 0.7413 0.0
N564 N 0.84657 0.79362 0.78006 0.0
N565 N 0.78268 0.752 0.75998 0.0
H566 H 0.7242 0.79048 0.22387 0.0
H567 H 0.66462 0.60009 0.27088 0.0
H568 H 0.80326 0.70628 0.21529 0.0
H569 H 0.58968 0.6846 0.29967 0.0
H570 H 0.71911 0.63906 0.26375 0.0
H571 H 0.67716 0.75348 0.26143 0.0
C572 C 0.73154 0.76416 0.23038 0.0
C573 C 0.76709 0.75101 0.21638 0.0
C574 C 0.69106 0.64916 0.27279 0.0
C575 C 0.71406 0.70865 0.25899 0.0
C576 C 0.66005 0.62682 0.27738 0.0
C577 C 0.62273 0.63927 0.2856 0.0
C578 C 0.68442 0.68431 0.27526 0.0
C579 C 0.61814 0.67408 0.29338 0.0
C580 C 0.70496 0.74312 0.25192 0.0
C581 C 0.7758 0.71697 0.22541 0.0
N582 N 0.64847 0.6956 0.28683 0.0
N583 N 0.74931 0.69683 0.24576 0.0
H584 H 0.19447 0.70672 0.34544 0.0
H585 H 0.41325 0.68678 0.26266 0.0
H586 H 0.27535 0.78948 0.33822 0.0
H587 H 0.33906 0.60342 0.29939 0.0
H588 H 0.35778 0.72569 0.26956 0.0
H589 H 0.24226 0.66967 0.30998 0.0
C590 C 0.22234 0.71696 0.33589 0.0
C591 C 0.23152 0.75076 0.3449 0.0
C592 C 0.35346 0.69874 0.27495 0.0
C593 C 0.28615 0.70907 0.30447 0.0
C594 C 0.38495 0.67653 0.27043 0.0
C595 C 0.3806 0.64202 0.28089 0.0
C596 C 0.31762 0.68608 0.28969 0.0
C597 C 0.34353 0.62997 0.29136 0.0
C598 C 0.24952 0.69602 0.31564 0.0
C599 C 0.26767 0.76334 0.33186 0.0
N600 N 0.31359 0.65201 0.29609 0.0
N601 N 0.29393 0.74239 0.31259 0.0
H602 H 0.30596 0.77568 0.83767 0.0
H603 H 0.08506 0.7943 0.76206 0.0
H604 H 0.22326 0.69427 0.84301 0.0
H605 H 0.16266 0.87825 0.78249 0.0
H606 H 0.14001 0.75497 0.77031 0.0
H607 H 0.25814 0.81119 0.79877 0.0
C608 C 0.27762 0.76543 0.83025 0.0
C609 C 0.26794 0.73253 0.84374 0.0
C610 C 0.1452 0.78206 0.77163 0.0
C611 C 0.2133 0.77241 0.79942 0.0
C612 C 0.11397 0.80448 0.76619 0.0
C613 C 0.11952 0.83942 0.7719 0.0
C614 C 0.18195 0.79491 0.7826 0.0
C615 C 0.15733 0.8514 0.77802 0.0
C616 C 0.25045 0.78546 0.808 0.0
C617 C 0.23126 0.71981 0.83328 0.0
N618 N 0.18702 0.82917 0.78394 0.0
N619 N 0.20501 0.7399 0.81203 0.0
loop_
_geom_bond_atom_site_label_1
_geom_bond_atom_site_label_2
_geom_bond_distance
_geom_bond_site_symmetry_2
_ccdc_geom_bond_type
C0 N1 1.317 . S
C0 N2 1.348 . S
C0 C3 1.485 . S
N1 C0 1.317 . S
N1 N5 1.370 . S
N2 C0 1.348 . S
N2 C4 1.346 . S
C3 C0 1.485 . S
C3 H7 0.960 . S
C3 H8 0.961 . S
C3 H9 0.960 . S
C4 N2 1.346 . S
C4 N5 1.307 . S
C4 C6 1.486 . S
N5 N1 1.370 . S
N5 C4 1.307 . S
C6 C4 1.486 . S
C6 H10 0.960 . S
C6 H11 0.960 . S
C6 H12 0.959 . S
H7 C3 0.960 . S
H8 C3 0.961 . S
H9 C3 0.960 . S
H10 C6 0.960 . S
H11 C6 0.960 . S
H12 C6 0.959 . S
C13 N14 1.317 . S
C13 N15 1.348 . S
C13 C16 1.485 . S
N14 C13 1.317 . S
N14 N18 1.370 . S
N15 C13 1.348 . S
N15 C17 1.346 . S
C16 C13 1.485 . S
C16 H20 0.960 . S
C16 H21 0.961 . S
C16 H22 0.960 . S
C17 N15 1.346 . S
C17 N18 1.307 . S
C17 C19 1.486 . S
N18 N14 1.370 . S
N18 C17 1.307 . S
C19 C17 1.486 . S
C19 H23 0.960 . S
C19 H24 0.960 . S
C19 H25 0.959 . S
H20 C16 0.960 . S
H21 C16 0.961 . S
H22 C16 0.960 . S
H23 C19 0.960 . S
H24 C19 0.960 . S
H25 C19 0.959 . S
C26 N27 1.317 . S
C26 N28 1.348 . S
C26 C29 1.485 . S
N27 C26 1.317 . S
N27 N31 1.370 . S
N28 C26 1.348 . S
N28 C30 1.346 . S
C29 C26 1.485 . S
C29 H33 0.960 . S
C29 H34 0.961 . S
C29 H35 0.960 . S
C30 N28 1.346 . S
C30 N31 1.307 . S
C30 C32 1.486 . S
N31 N27 1.370 . S
N31 C30 1.307 . S
C32 C30 1.486 . S
C32 H36 0.960 . S
C32 H37 0.960 . S
C32 H38 0.959 . S
H33 C29 0.960 . S
H34 C29 0.961 . S
H35 C29 0.960 . S
H36 C32 0.960 . S
H37 C32 0.960 . S
H38 C32 0.959 . S
C39 N40 1.317 . S
C39 N41 1.348 . S
C39 C42 1.485 . S
N40 C39 1.317 . S
N40 N44 1.370 . S
N41 C39 1.348 . S
N41 C43 1.346 . S
C42 C39 1.485 . S
C42 H46 0.960 . S
C42 H47 0.961 . S
C42 H48 0.960 . S
C43 N41 1.346 . S
C43 N44 1.307 . S
C43 C45 1.486 . S
N44 N40 1.370 . S
N44 C43 1.307 . S
C45 C43 1.486 . S
C45 H49 0.960 . S
C45 H50 0.960 . S
C45 H51 0.959 . S
H46 C42 0.960 . S
H47 C42 0.961 . S
H48 C42 0.960 . S
H49 C45 0.960 . S
H50 C45 0.960 . S
H51 C45 0.959 . S
C52 N53 1.317 . S
C52 N54 1.348 . S
C52 C55 1.485 . S
N53 C52 1.317 . S
N53 N57 1.370 . S
N54 C52 1.348 . S
N54 C56 1.346 . S
C55 C52 1.485 . S
C55 H59 0.960 . S
C55 H60 0.961 . S
C55 H61 0.960 . S
C56 N54 1.346 . S
C56 N57 1.307 . S
C56 C58 1.486 . S
N57 N53 1.370 . S
N57 C56 1.307 . S
C58 C56 1.486 . S
C58 H62 0.960 . S
C58 H63 0.960 . S
C58 H64 0.959 . S
H59 C55 0.960 . S
H60 C55 0.961 . S
H61 C55 0.960 . S
H62 C58 0.960 . S
H63 C58 0.960 . S
H64 C58 0.959 . S
C65 N66 1.317 . S
C65 N67 1.348 . S
C65 C68 1.485 . S
N66 C65 1.317 . S
N66 N70 1.370 . S
N67 C65 1.348 . S
N67 C69 1.346 . S
C68 C65 1.485 . S
C68 H72 0.960 . S
C68 H73 0.961 . S
C68 H74 0.960 . S
C69 N67 1.346 . S
C69 N70 1.307 . S
C69 C71 1.486 . S
N70 N66 1.370 . S
N70 C69 1.307 . S
C71 C69 1.486 . S
C71 H75 0.960 . S
C71 H76 0.960 . S
C71 H77 0.959 . S
H72 C68 0.960 . S
H73 C68 0.961 . S
H74 C68 0.960 . S
H75 C71 0.960 . S
H76 C71 0.960 . S
H77 C71 0.959 . S
C78 N79 1.317 . S
C78 N80 1.348 . S
C78 C81 1.485 . S
N79 C78 1.317 . S
N79 N83 1.370 . S
N80 C78 1.348 . S
N80 C82 1.346 . S
C81 C78 1.485 . S
C81 H85 0.960 . S
C81 H86 0.961 . S
C81 H87 0.960 . S
C82 N80 1.346 . S
C82 N83 1.307 . S
C82 C84 1.486 . S
N83 N79 1.370 . S
N83 C82 1.307 . S
C84 C82 1.486 . S
C84 H88 0.960 . S
C84 H89 0.960 . S
C84 H90 0.959 . S
H85 C81 0.960 . S
H86 C81 0.961 . S
H87 C81 0.960 . S
H88 C84 0.960 . S
H89 C84 0.960 . S
H90 C84 0.959 . S
C91 N92 1.317 . S
C91 N93 1.348 . S
C91 C94 1.485 . S
N92 C91 1.317 . S
N92 N96 1.370 . S
N93 C91 1.348 . S
N93 C95 1.346 . S
C94 C91 1.485 . S
C94 H98 0.960 . S
C94 H99 0.961 . S
C94 H100 0.960 . S
C95 N93 1.346 . S
C95 N96 1.307 . S
C95 C97 1.486 . S
N96 N92 1.370 . S
N96 C95 1.307 . S
C97 C95 1.486 . S
C97 H101 0.960 . S
C97 H102 0.960 . S
C97 H103 0.959 . S
H98 C94 0.960 . S
H99 C94 0.961 . S
H100 C94 0.960 . S
H101 C97 0.960 . S
H102 C97 0.960 . S
H103 C97 0.959 . S
Zn104 O110 1.920 1_455 S
Zn104 O116 1.898 . S
Zn104 O119 1.905 . S
Zn105 O113 1.905 1_655 S
Zn105 O114 1.898 . S
Zn105 O122 1.920 . S
Zn106 O109 2.080 1_455 S
Zn106 O112 2.114 . S
Zn106 O115 2.120 1_455 S
Zn106 O117 2.120 . S
Zn106 O118 2.114 . S
Zn106 O121 2.080 1_455 S
C107 O112 1.166 . S
C107 O113 1.182 . S
C108 O114 1.167 . S
C108 O115 1.299 . S
O109 Zn106 2.080 1_655 S
O109 C123 1.305 . S
O110 Zn104 1.920 1_655 S
O110 C123 1.234 . S
C111 O116 1.167 . S
C111 O117 1.299 . S
O112 Zn106 2.114 . S
O112 C107 1.166 . S
O113 Zn105 1.905 1_455 S
O113 C107 1.182 . S
O114 Zn105 1.898 . S
O114 C108 1.167 . S
O115 Zn106 2.120 1_655 S
O115 C108 1.299 . S
O116 Zn104 1.898 . S
O116 C111 1.167 . S
O117 Zn106 2.120 . S
O117 C111 1.299 . S
O118 Zn106 2.114 . S
O118 C120 1.166 . S
O119 Zn104 1.905 . S
O119 C120 1.182 . S
C120 O118 1.166 . S
C120 O119 1.182 . S
O121 Zn106 2.080 1_655 S
O121 C124 1.305 . S
O122 Zn105 1.920 . S
O122 C124 1.234 . S
C123 O109 1.305 . S
C123 O110 1.234 . S
C124 O121 1.305 . S
C124 O122 1.234 . S
Zn125 O131 1.920 . S
Zn125 O137 1.898 . S
Zn125 O140 1.905 . S
Zn126 O134 1.905 . S
Zn126 O135 1.898 . S
Zn126 O143 1.920 . S
Zn127 O130 2.080 . S
Zn127 O133 2.114 . S
Zn127 O136 2.120 . S
Zn127 O138 2.120 . S
Zn127 O139 2.114 . S
Zn127 O142 2.080 . S
C128 O133 1.166 . S
C128 O134 1.182 . S
C129 O135 1.167 . S
C129 O136 1.299 . S
O130 Zn127 2.080 . S
O130 C144 1.305 . S
O131 Zn125 1.920 . S
O131 C144 1.234 . S
C132 O137 1.167 . S
C132 O138 1.299 . S
O133 Zn127 2.114 . S
O133 C128 1.166 . S
O134 Zn126 1.905 . S
O134 C128 1.182 . S
O135 Zn126 1.898 . S
O135 C129 1.167 . S
O136 Zn127 2.120 . S
O136 C129 1.299 . S
O137 Zn125 1.898 . S
O137 C132 1.167 . S
O138 Zn127 2.120 . S
O138 C132 1.299 . S
O139 Zn127 2.114 . S
O139 C141 1.166 . S
O140 Zn125 1.905 . S
O140 C141 1.182 . S
C141 O139 1.166 . S
C141 O140 1.182 . S
O142 Zn127 2.080 . S
O142 C145 1.305 . S
O143 Zn126 1.920 . S
O143 C145 1.234 . S
C144 O130 1.305 . S
C144 O131 1.234 . S
C145 O142 1.305 . S
C145 O143 1.234 . S
Zn146 O152 1.920 . S
Zn146 O158 1.898 . S
Zn146 O161 1.905 1_455 S
Zn147 O155 1.905 . S
Zn147 O156 1.898 . S
Zn147 O164 1.920 1_655 S
Zn148 O151 2.080 . S
Zn148 O154 2.114 1_455 S
Zn148 O157 2.120 1_455 S
Zn148 O159 2.120 . S
Zn148 O160 2.114 1_455 S
Zn148 O163 2.080 . S
C149 O154 1.166 . S
C149 O155 1.182 . S
C150 O156 1.167 . S
C150 O157 1.299 . S
O151 Zn148 2.080 . S
O151 C165 1.305 . S
O152 Zn146 1.920 . S
O152 C165 1.234 . S
C153 O158 1.167 . S
C153 O159 1.299 . S
O154 Zn148 2.114 1_655 S
O154 C149 1.166 . S
O155 Zn147 1.905 . S
O155 C149 1.182 . S
O156 Zn147 1.898 . S
O156 C150 1.167 . S
O157 Zn148 2.120 1_655 S
O157 C150 1.299 . S
O158 Zn146 1.898 . S
O158 C153 1.167 . S
O159 Zn148 2.120 . S
O159 C153 1.299 . S
O160 Zn148 2.114 1_655 S
O160 C162 1.166 . S
O161 Zn146 1.905 1_655 S
O161 C162 1.182 . S
C162 O160 1.166 . S
C162 O161 1.182 . S
O163 Zn148 2.080 . S
O163 C166 1.305 . S
O164 Zn147 1.920 1_455 S
O164 C166 1.234 . S
C165 O151 1.305 . S
C165 O152 1.234 . S
C166 O163 1.305 . S
C166 O164 1.234 . S
Zn167 O173 1.920 . S
Zn167 O179 1.898 . S
Zn167 O182 1.905 . S
Zn168 O176 1.905 . S
Zn168 O177 1.898 . S
Zn168 O185 1.920 . S
Zn169 O172 2.080 . S
Zn169 O175 2.114 . S
Zn169 O178 2.120 . S
Zn169 O180 2.120 . S
Zn169 O181 2.114 . S
Zn169 O184 2.080 . S
C170 O175 1.166 . S
C170 O176 1.182 . S
C171 O177 1.167 . S
C171 O178 1.299 . S
O172 Zn169 2.080 . S
O172 C186 1.305 . S
O173 Zn167 1.920 . S
O173 C186 1.234 . S
C174 O179 1.167 . S
C174 O180 1.299 . S
O175 Zn169 2.114 . S
O175 C170 1.166 . S
O176 Zn168 1.905 . S
O176 C170 1.182 . S
O177 Zn168 1.898 . S
O177 C171 1.167 . S
O178 Zn169 2.120 . S
O178 C171 1.299 . S
O179 Zn167 1.898 . S
O179 C174 1.167 . S
O180 Zn169 2.120 . S
O180 C174 1.299 . S
O181 Zn169 2.114 . S
O181 C183 1.166 . S
O182 Zn167 1.905 . S
O182 C183 1.182 . S
C183 O181 1.166 . S
C183 O182 1.182 . S
O184 Zn169 2.080 . S
O184 C187 1.305 . S
O185 Zn168 1.920 . S
O185 C187 1.234 . S
C186 O172 1.305 . S
C186 O173 1.234 . S
C187 O184 1.305 . S
C187 O185 1.234 . S
H188 C194 0.930 . S
H189 C198 0.930 . S
H190 C203 0.929 . S
H191 C201 0.929 . S
H192 C196 0.929 . S
H193 C202 0.929 . S
C194 H188 0.930 . S
C194 C195 1.367 . S
C194 C202 1.378 . S
C195 C194 1.367 . S
C195 C203 1.433 . S
C196 H192 0.929 . S
C196 C198 1.378 . S
C196 C200 1.350 . S
C197 C200 1.463 . S
C197 C202 1.350 . S
C197 N205 1.427 . S
C198 H189 0.930 . S
C198 C196 1.378 . S
C198 C199 1.367 1_565 S
C199 C198 1.367 1_545 S
C199 C201 1.433 . S
C200 C196 1.350 . S
C200 C197 1.463 . S
C200 N204 1.427 . S
C201 H191 0.929 . S
C201 C199 1.433 . S
C201 N204 1.384 1_545 S
C202 H193 0.929 . S
C202 C194 1.378 . S
C202 C197 1.350 . S
C203 H190 0.929 . S
C203 C195 1.433 . S
C203 N205 1.384 . S
N204 C200 1.427 . S
N204 C201 1.384 1_565 S
N205 C197 1.427 . S
N205 C203 1.384 . S
H206 C212 0.930 . S
H207 C216 0.930 . S
H208 C221 0.929 . S
H209 C219 0.929 . S
H210 C214 0.929 . S
H211 C220 0.929 . S
C212 H206 0.930 . S
C212 C213 1.367 . S
C212 C220 1.378 . S
C213 C212 1.367 . S
C213 C221 1.433 . S
C214 H210 0.929 . S
C214 C216 1.378 . S
C214 C218 1.350 . S
C215 C218 1.463 . S
C215 C220 1.350 . S
C215 N223 1.427 . S
C216 H207 0.930 . S
C216 C214 1.378 . S
C216 C217 1.367 . S
C217 C216 1.367 . S
C217 C219 1.433 . S
C218 C214 1.350 . S
C218 C215 1.463 . S
C218 N222 1.427 . S
C219 H209 0.929 . S
C219 C217 1.433 . S
C219 N222 1.384 . S
C220 H211 0.929 . S
C220 C212 1.378 . S
C220 C215 1.350 . S
C221 H208 0.929 . S
C221 C213 1.433 . S
C221 N223 1.384 . S
N222 C218 1.427 . S
N222 C219 1.384 . S
N223 C215 1.427 . S
N223 C221 1.384 . S
H224 C230 0.930 . S
H225 C234 0.930 . S
H226 C239 0.929 . S
H227 C237 0.929 . S
H228 C232 0.929 . S
H229 C238 0.929 . S
C230 H224 0.930 . S
C230 C231 1.367 . S
C230 C238 1.378 . S
C231 C230 1.367 . S
C231 C239 1.433 . S
C232 H228 0.929 . S
C232 C234 1.378 . S
C232 C236 1.350 . S
C233 C236 1.463 . S
C233 C238 1.350 . S
C233 N241 1.427 . S
C234 H225 0.930 . S
C234 C232 1.378 . S
C234 C235 1.367 . S
C235 C234 1.367 . S
C235 C237 1.433 . S
C236 C232 1.350 . S
C236 C233 1.463 . S
C236 N240 1.427 . S
C237 H227 0.929 . S
C237 C235 1.433 . S
C237 N240 1.384 . S
C238 H229 0.929 . S
C238 C230 1.378 . S
C238 C233 1.350 . S
C239 H226 0.929 . S
C239 C231 1.433 . S
C239 N241 1.384 . S
N240 C236 1.427 . S
N240 C237 1.384 . S
N241 C233 1.427 . S
N241 C239 1.384 . S
H242 C248 0.930 . S
H243 C252 0.930 . S
H244 C257 0.929 . S
H245 C255 0.929 . S
H246 C250 0.929 . S
H247 C256 0.929 . S
C248 H242 0.930 . S
C248 C249 1.367 . S
C248 C256 1.378 . S
C249 C248 1.367 . S
C249 C257 1.433 . S
C250 H246 0.929 . S
C250 C252 1.378 . S
C250 C254 1.350 . S
C251 C254 1.463 . S
C251 C256 1.350 . S
C251 N259 1.427 . S
C252 H243 0.930 . S
C252 C250 1.378 . S
C252 C253 1.367 1_565 S
C253 C252 1.367 1_545 S
C253 C255 1.433 . S
C254 C250 1.350 . S
C254 C251 1.463 . S
C254 N258 1.427 . S
C255 H245 0.929 . S
C255 C253 1.433 . S
C255 N258 1.384 1_545 S
C256 H247 0.929 . S
C256 C248 1.378 . S
C256 C251 1.350 . S
C257 H244 0.929 . S
C257 C249 1.433 . S
C257 N259 1.384 . S
N258 C254 1.427 . S
N258 C255 1.384 1_565 S
N259 C251 1.427 . S
N259 C257 1.384 . S
H260 C266 0.930 . S
H261 C270 0.930 . S
H262 C275 0.929 . S
H263 C273 0.929 . S
H264 C268 0.929 . S
H265 C274 0.929 . S
C266 H260 0.930 . S
C266 C267 1.367 . S
C266 C274 1.378 . S
C267 C266 1.367 . S
C267 C275 1.433 . S
C268 H264 0.929 . S
C268 C270 1.378 1_545 S
C268 C272 1.350 . S
C269 C272 1.463 . S
C269 C274 1.350 . S
C269 N277 1.427 . S
C270 H261 0.930 . S
C270 C268 1.378 1_565 S
C270 C271 1.367 . S
C271 C270 1.367 . S
C271 C273 1.433 1_565 S
C272 C268 1.350 . S
C272 C269 1.463 . S
C272 N276 1.427 . S
C273 H263 0.929 . S
C273 C271 1.433 1_545 S
C273 N276 1.384 . S
C274 H265 0.929 . S
C274 C266 1.378 . S
C274 C269 1.350 . S
C275 H262 0.929 . S
C275 C267 1.433 . S
C275 N277 1.384 . S
N276 C272 1.427 . S
N276 C273 1.384 . S
N277 C269 1.427 . S
N277 C275 1.384 . S
H278 C284 0.930 . S
H279 C288 0.930 . S
H280 C293 0.929 . S
H281 C291 0.929 . S
H282 C286 0.929 . S
H283 C292 0.929 . S
C284 H278 0.930 . S
C284 C285 1.367 . S
C284 C292 1.378 . S
C285 C284 1.367 . S
C285 C293 1.433 . S
C286 H282 0.929 . S
C286 C288 1.378 . S
C286 C290 1.350 . S
C287 C290 1.463 . S
C287 C292 1.350 . S
C287 N295 1.427 . S
C288 H279 0.930 . S
C288 C286 1.378 . S
C288 C289 1.367 . S
C289 C288 1.367 . S
C289 C291 1.433 . S
C290 C286 1.350 . S
C290 C287 1.463 . S
C290 N294 1.427 . S
C291 H281 0.929 . S
C291 C289 1.433 . S
C291 N294 1.384 . S
C292 H283 0.929 . S
C292 C284 1.378 . S
C292 C287 1.350 . S
C293 H280 0.929 . S
C293 C285 1.433 . S
C293 N295 1.384 . S
N294 C290 1.427 . S
N294 C291 1.384 . S
N295 C287 1.427 . S
N295 C293 1.384 . S
H296 C302 0.930 . S
H297 C306 0.930 . S
H298 C311 0.929 . S
H299 C309 0.929 . S
H300 C304 0.929 . S
H301 C310 0.929 . S
C302 H296 0.930 . S
C302 C303 1.367 . S
C302 C310 1.378 . S
C303 C302 1.367 . S
C303 C311 1.433 . S
C304 H300 0.929 . S
C304 C306 1.378 . S
C304 C308 1.350 . S
C305 C308 1.463 . S
C305 C310 1.350 . S
C305 N313 1.427 . S
C306 H297 0.930 . S
C306 C304 1.378 . S
C306 C307 1.367 . S
C307 C306 1.367 . S
C307 C309 1.433 . S
C308 C304 1.350 . S
C308 C305 1.463 . S
C308 N312 1.427 . S
C309 H299 0.929 . S
C309 C307 1.433 . S
C309 N312 1.384 . S
C310 H301 0.929 . S
C310 C302 1.378 . S
C310 C305 1.350 . S
C311 H298 0.929 . S
C311 C303 1.433 . S
C311 N313 1.384 . S
N312 C308 1.427 . S
N312 C309 1.384 . S
N313 C305 1.427 . S
N313 C311 1.384 . S
H314 C320 0.930 . S
H315 C324 0.930 . S
H316 C329 0.929 . S
H317 C327 0.929 . S
H318 C322 0.929 . S
H319 C328 0.929 . S
C320 H314 0.930 . S
C320 C321 1.367 . S
C320 C328 1.378 . S
C321 C320 1.367 . S
C321 C329 1.433 . S
C322 H318 0.929 . S
C322 C324 1.378 . S
C322 C326 1.350 . S
C323 C326 1.463 . S
C323 C328 1.350 . S
C323 N331 1.427 . S
C324 H315 0.930 . S
C324 C322 1.378 . S
C324 C325 1.367 1_545 S
C325 C324 1.367 1_565 S
C325 C327 1.433 . S
C326 C322 1.350 . S
C326 C323 1.463 . S
C326 N330 1.427 . S
C327 H317 0.929 . S
C327 C325 1.433 . S
C327 N330 1.384 1_565 S
C328 H319 0.929 . S
C328 C320 1.378 . S
C328 C323 1.350 . S
C329 H316 0.929 . S
C329 C321 1.433 . S
C329 N331 1.384 . S
N330 C326 1.427 . S
N330 C327 1.384 1_545 S
N331 C323 1.427 . S
N331 C329 1.384 . S
H332 C338 0.930 . S
H333 C342 0.930 . S
H334 C347 0.929 . S
H335 C345 0.929 . S
H336 C340 0.929 . S
H337 C346 0.929 . S
C338 H332 0.930 . S
C338 C339 1.367 . S
C338 C346 1.378 1_556 S
C339 C338 1.367 . S
C339 C347 1.433 . S
C340 H336 0.929 . S
C340 C342 1.378 . S
C340 C344 1.350 . S
C341 C344 1.463 . S
C341 C346 1.350 . S
C341 N349 1.427 . S
C342 H333 0.930 . S
C342 C340 1.378 . S
C342 C343 1.367 . S
C343 C342 1.367 . S
C343 C345 1.433 . S
C344 C340 1.350 . S
C344 C341 1.463 . S
C344 N348 1.427 . S
C345 H335 0.929 . S
C345 C343 1.433 . S
C345 N348 1.384 . S
C346 H337 0.929 . S
C346 C338 1.378 1_554 S
C346 C341 1.350 . S
C347 H334 0.929 . S
C347 C339 1.433 . S
C347 N349 1.384 1_556 S
N348 C344 1.427 . S
N348 C345 1.384 . S
N349 C341 1.427 . S
N349 C347 1.384 1_554 S
H350 C356 0.930 . S
H351 C360 0.930 . S
H352 C365 0.929 . S
H353 C363 0.929 . S
H354 C358 0.929 . S
H355 C364 0.929 . S
C356 H350 0.930 . S
C356 C357 1.367 . S
C356 C364 1.378 . S
C357 C356 1.367 . S
C357 C365 1.433 . S
C358 H354 0.929 . S
C358 C360 1.378 . S
C358 C362 1.350 . S
C359 C362 1.463 . S
C359 C364 1.350 . S
C359 N367 1.427 . S
C360 H351 0.930 . S
C360 C358 1.378 . S
C360 C361 1.367 . S
C361 C360 1.367 . S
C361 C363 1.433 . S
C362 C358 1.350 . S
C362 C359 1.463 . S
C362 N366 1.427 . S
C363 H353 0.929 . S
C363 C361 1.433 . S
C363 N366 1.384 . S
C364 H355 0.929 . S
C364 C356 1.378 . S
C364 C359 1.350 . S
C365 H352 0.929 . S
C365 C357 1.433 . S
C365 N367 1.384 . S
N366 C362 1.427 . S
N366 C363 1.384 . S
N367 C359 1.427 . S
N367 C365 1.384 . S
H368 C374 0.930 . S
H369 C378 0.930 . S
H370 C383 0.929 . S
H371 C381 0.929 . S
H372 C376 0.929 . S
H373 C382 0.929 . S
C374 H368 0.930 . S
C374 C375 1.367 . S
C374 C382 1.378 . S
C375 C374 1.367 . S
C375 C383 1.433 . S
C376 H372 0.929 . S
C376 C378 1.378 . S
C376 C380 1.350 . S
C377 C380 1.463 . S
C377 C382 1.350 1_556 S
C377 N385 1.427 . S
C378 H369 0.930 . S
C378 C376 1.378 . S
C378 C379 1.367 . S
C379 C378 1.367 . S
C379 C381 1.433 . S
C380 C376 1.350 . S
C380 C377 1.463 . S
C380 N384 1.427 . S
C381 H371 0.929 . S
C381 C379 1.433 . S
C381 N384 1.384 . S
C382 H373 0.929 . S
C382 C374 1.378 . S
C382 C377 1.350 1_554 S
C383 H370 0.929 . S
C383 C375 1.433 . S
C383 N385 1.384 1_554 S
N384 C380 1.427 . S
N384 C381 1.384 . S
N385 C377 1.427 . S
N385 C383 1.384 1_556 S
H386 C392 0.930 . S
H387 C396 0.930 . S
H388 C401 0.929 . S
H389 C399 0.929 . S
H390 C394 0.929 . S
H391 C400 0.929 . S
C392 H386 0.930 . S
C392 C393 1.367 . S
C392 C400 1.378 . S
C393 C392 1.367 . S
C393 C401 1.433 . S
C394 H390 0.929 . S
C394 C396 1.378 . S
C394 C398 1.350 . S
C395 C398 1.463 . S
C395 C400 1.350 . S
C395 N403 1.427 . S
C396 H387 0.930 . S
C396 C394 1.378 . S
C396 C397 1.367 . S
C397 C396 1.367 . S
C397 C399 1.433 . S
C398 C394 1.350 . S
C398 C395 1.463 . S
C398 N402 1.427 . S
C399 H389 0.929 . S
C399 C397 1.433 . S
C399 N402 1.384 . S
C400 H391 0.929 . S
C400 C392 1.378 . S
C400 C395 1.350 . S
C401 H388 0.929 . S
C401 C393 1.433 . S
C401 N403 1.384 . S
N402 C398 1.427 . S
N402 C399 1.384 . S
N403 C395 1.427 . S
N403 C401 1.384 . S
H404 C410 0.930 . S
H405 C414 0.930 . S
H406 C419 0.929 . S
H407 C417 0.929 . S
H408 C412 0.929 . S
H409 C418 0.929 . S
C410 H404 0.930 . S
C410 C411 1.367 . S
C410 C418 1.378 1_554 S
C411 C410 1.367 . S
C411 C419 1.433 . S
C412 H408 0.929 . S
C412 C414 1.378 . S
C412 C416 1.350 . S
C413 C416 1.463 . S
C413 C418 1.350 . S
C413 N421 1.427 1_556 S
C414 H405 0.930 . S
C414 C412 1.378 . S
C414 C415 1.367 . S
C415 C414 1.367 . S
C415 C417 1.433 . S
C416 C412 1.350 . S
C416 C413 1.463 . S
C416 N420 1.427 . S
C417 H407 0.929 . S
C417 C415 1.433 . S
C417 N420 1.384 . S
C418 H409 0.929 . S
C418 C410 1.378 1_556 S
C418 C413 1.350 . S
C419 H406 0.929 . S
C419 C411 1.433 . S
C419 N421 1.384 . S
N420 C416 1.427 . S
N420 C417 1.384 . S
N421 C413 1.427 1_554 S
N421 C419 1.384 . S
H422 C428 0.930 . S
H423 C432 0.930 . S
H424 C437 0.929 . S
H425 C435 0.929 . S
H426 C430 0.929 . S
H427 C436 0.929 . S
C428 H422 0.930 . S
C428 C429 1.367 . S
C428 C436 1.378 . S
C429 C428 1.367 . S
C429 C437 1.433 . S
C430 H426 0.929 . S
C430 C432 1.378 . S
C430 C434 1.350 . S
C431 C434 1.463 . S
C431 C436 1.350 . S
C431 N439 1.427 . S
C432 H423 0.930 . S
C432 C430 1.378 . S
C432 C433 1.367 . S
C433 C432 1.367 . S
C433 C435 1.433 . S
C434 C430 1.350 . S
C434 C431 1.463 . S
C434 N438 1.427 . S
C435 H425 0.929 . S
C435 C433 1.433 . S
C435 N438 1.384 . S
C436 H427 0.929 . S
C436 C428 1.378 . S
C436 C431 1.350 . S
C437 H424 0.929 . S
C437 C429 1.433 . S
C437 N439 1.384 . S
N438 C434 1.427 . S
N438 C435 1.384 . S
N439 C431 1.427 . S
N439 C437 1.384 . S
H440 C446 0.930 . S
H441 C450 0.930 . S
H442 C455 0.929 . S
H443 C453 0.929 . S
H444 C448 0.929 . S
H445 C454 0.929 . S
C446 H440 0.930 . S
C446 C447 1.367 . S
C446 C454 1.378 1_556 S
C447 C446 1.367 . S
C447 C455 1.433 . S
C448 H444 0.929 . S
C448 C450 1.378 . S
C448 C452 1.350 . S
C449 C452 1.463 . S
C449 C454 1.350 . S
C449 N457 1.427 1_554 S
C450 H441 0.930 . S
C450 C448 1.378 . S
C450 C451 1.367 . S
C451 C450 1.367 . S
C451 C453 1.433 . S
C452 C448 1.350 . S
C452 C449 1.463 . S
C452 N456 1.427 . S
C453 H443 0.929 . S
C453 C451 1.433 . S
C453 N456 1.384 . S
C454 H445 0.929 . S
C454 C446 1.378 1_554 S
C454 C449 1.350 . S
C455 H442 0.929 . S
C455 C447 1.433 . S
C455 N457 1.384 . S
N456 C452 1.427 . S
N456 C453 1.384 . S
N457 C449 1.427 1_556 S
N457 C455 1.384 . S
H458 C464 0.930 . S
H459 C468 0.930 . S
H460 C473 0.929 . S
H461 C471 0.929 . S
H462 C466 0.929 . S
H463 C472 0.929 . S
C464 H458 0.930 . S
C464 C465 1.367 . S
C464 C472 1.378 . S
C465 C464 1.367 . S
C465 C473 1.433 . S
C466 H462 0.929 . S
C466 C468 1.378 . S
C466 C470 1.350 . S
C467 C470 1.463 . S
C467 C472 1.350 . S
C467 N475 1.427 . S
C468 H459 0.930 . S
C468 C466 1.378 . S
C468 C469 1.367 . S
C469 C468 1.367 . S
C469 C471 1.433 . S
C470 C466 1.350 . S
C470 C467 1.463 . S
C470 N474 1.427 . S
C471 H461 0.929 . S
C471 C469 1.433 . S
C471 N474 1.384 . S
C472 H463 0.929 . S
C472 C464 1.378 . S
C472 C467 1.350 . S
C473 H460 0.929 . S
C473 C465 1.433 . S
C473 N475 1.384 . S
N474 C470 1.427 . S
N474 C471 1.384 . S
N475 C467 1.427 . S
N475 C473 1.384 . S
H476 C482 0.930 . S
H477 C486 0.930 . S
H478 C491 0.929 . S
H479 C489 0.929 . S
H480 C484 0.929 . S
H481 C490 0.929 . S
C482 H476 0.930 . S
C482 C483 1.367 . S
C482 C490 1.378 . S
C483 C482 1.367 . S
C483 C491 1.433 . S
C484 H480 0.929 . S
C484 C486 1.378 . S
C484 C488 1.350 . S
C485 C488 1.463 . S
C485 C490 1.350 . S
C485 N493 1.427 . S
C486 H477 0.930 . S
C486 C484 1.378 . S
C486 C487 1.367 . S
C487 C486 1.367 . S
C487 C489 1.433 . S
C488 C484 1.350 . S
C488 C485 1.463 . S
C488 N492 1.427 . S
C489 H479 0.929 . S
C489 C487 1.433 . S
C489 N492 1.384 . S
C490 H481 0.929 . S
C490 C482 1.378 . S
C490 C485 1.350 . S
C491 H478 0.929 . S
C491 C483 1.433 . S
C491 N493 1.384 . S
N492 C488 1.427 . S
N492 C489 1.384 . S
N493 C485 1.427 . S
N493 C491 1.384 . S
H494 C500 0.930 . S
H495 C504 0.930 . S
H496 C509 0.929 . S
H497 C507 0.929 . S
H498 C502 0.929 . S
H499 C508 0.929 . S
C500 H494 0.930 . S
C500 C501 1.367 . S
C500 C508 1.378 . S
C501 C500 1.367 . S
C501 C509 1.433 . S
C502 H498 0.929 . S
C502 C504 1.378 . S
C502 C506 1.350 . S
C503 C506 1.463 . S
C503 C508 1.350 . S
C503 N511 1.427 . S
C504 H495 0.930 . S
C504 C502 1.378 . S
C504 C505 1.367 . S
C505 C504 1.367 . S
C505 C507 1.433 . S
C506 C502 1.350 . S
C506 C503 1.463 . S
C506 N510 1.427 . S
C507 H497 0.929 . S
C507 C505 1.433 . S
C507 N510 1.384 . S
C508 H499 0.929 . S
C508 C500 1.378 . S
C508 C503 1.350 . S
C509 H496 0.929 . S
C509 C501 1.433 . S
C509 N511 1.384 . S
N510 C506 1.427 . S
N510 C507 1.384 . S
N511 C503 1.427 . S
N511 C509 1.384 . S
H512 C518 0.930 . S
H513 C522 0.930 . S
H514 C527 0.929 . S
H515 C525 0.929 . S
H516 C520 0.929 . S
H517 C526 0.929 . S
C518 H512 0.930 . S
C518 C519 1.367 . S
C518 C526 1.378 . S
C519 C518 1.367 . S
C519 C527 1.433 . S
C520 H516 0.929 . S
C520 C522 1.378 . S
C520 C524 1.350 . S
C521 C524 1.463 . S
C521 C526 1.350 . S
C521 N529 1.427 . S
C522 H513 0.930 . S
C522 C520 1.378 . S
C522 C523 1.367 . S
C523 C522 1.367 . S
C523 C525 1.433 . S
C524 C520 1.350 . S
C524 C521 1.463 . S
C524 N528 1.427 . S
C525 H515 0.929 . S
C525 C523 1.433 . S
C525 N528 1.384 . S
C526 H517 0.929 . S
C526 C518 1.378 . S
C526 C521 1.350 . S
C527 H514 0.929 . S
C527 C519 1.433 . S
C527 N529 1.384 . S
N528 C524 1.427 . S
N528 C525 1.384 . S
N529 C521 1.427 . S
N529 C527 1.384 . S
H530 C536 0.930 . S
H531 C540 0.930 . S
H532 C545 0.929 . S
H533 C543 0.929 . S
H534 C538 0.929 . S
H535 C544 0.929 . S
C536 H530 0.930 . S
C536 C537 1.367 . S
C536 C544 1.378 . S
C537 C536 1.367 . S
C537 C545 1.433 . S
C538 H534 0.929 . S
C538 C540 1.378 . S
C538 C542 1.350 . S
C539 C542 1.463 . S
C539 C544 1.350 . S
C539 N547 1.427 . S
C540 H531 0.930 . S
C540 C538 1.378 . S
C540 C541 1.367 . S
C541 C540 1.367 . S
C541 C543 1.433 . S
C542 C538 1.350 . S
C542 C539 1.463 . S
C542 N546 1.427 . S
C543 H533 0.929 . S
C543 C541 1.433 . S
C543 N546 1.384 . S
C544 H535 0.929 . S
C544 C536 1.378 . S
C544 C539 1.350 . S
C545 H532 0.929 . S
C545 C537 1.433 . S
C545 N547 1.384 . S
N546 C542 1.427 . S
N546 C543 1.384 . S
N547 C539 1.427 . S
N547 C545 1.384 . S
H548 C554 0.930 . S
H549 C558 0.930 . S
H550 C563 0.929 . S
H551 C561 0.929 . S
H552 C556 0.929 . S
H553 C562 0.929 . S
C554 H548 0.930 . S
C554 C555 1.367 . S
C554 C562 1.378 . S
C555 C554 1.367 . S
C555 C563 1.433 . S
C556 H552 0.929 . S
C556 C558 1.378 . S
C556 C560 1.350 . S
C557 C560 1.463 . S
C557 C562 1.350 . S
C557 N565 1.427 . S
C558 H549 0.930 . S
C558 C556 1.378 . S
C558 C559 1.367 . S
C559 C558 1.367 . S
C559 C561 1.433 . S
C560 C556 1.350 . S
C560 C557 1.463 . S
C560 N564 1.427 . S
C561 H551 0.929 . S
C561 C559 1.433 . S
C561 N564 1.384 . S
C562 H553 0.929 . S
C562 C554 1.378 . S
C562 C557 1.350 . S
C563 H550 0.929 . S
C563 C555 1.433 . S
C563 N565 1.384 . S
N564 C560 1.427 . S
N564 C561 1.384 . S
N565 C557 1.427 . S
N565 C563 1.384 . S
H566 C572 0.930 . S
H567 C576 0.930 . S
H568 C581 0.929 . S
H569 C579 0.929 . S
H570 C574 0.929 . S
H571 C580 0.929 . S
C572 H566 0.930 . S
C572 C573 1.367 . S
C572 C580 1.378 . S
C573 C572 1.367 . S
C573 C581 1.433 . S
C574 H570 0.929 . S
C574 C576 1.378 . S
C574 C578 1.350 . S
C575 C578 1.463 . S
C575 C580 1.350 . S
C575 N583 1.427 . S
C576 H567 0.930 . S
C576 C574 1.378 . S
C576 C577 1.367 . S
C577 C576 1.367 . S
C577 C579 1.433 . S
C578 C574 1.350 . S
C578 C575 1.463 . S
C578 N582 1.427 . S
C579 H569 0.929 . S
C579 C577 1.433 . S
C579 N582 1.384 . S
C580 H571 0.929 . S
C580 C572 1.378 . S
C580 C575 1.350 . S
C581 H568 0.929 . S
C581 C573 1.433 . S
C581 N583 1.384 . S
N582 C578 1.427 . S
N582 C579 1.384 . S
N583 C575 1.427 . S
N583 C581 1.384 . S
H584 C590 0.930 . S
H585 C594 0.930 . S
H586 C599 0.929 . S
H587 C597 0.929 . S
H588 C592 0.929 . S
H589 C598 0.929 . S
C590 H584 0.930 . S
C590 C591 1.367 . S
C590 C598 1.378 . S
C591 C590 1.367 . S
C591 C599 1.433 . S
C592 H588 0.929 . S
C592 C594 1.378 . S
C592 C596 1.350 . S
C593 C596 1.463 . S
C593 C598 1.350 . S
C593 N601 1.427 . S
C594 H585 0.930 . S
C594 C592 1.378 . S
C594 C595 1.367 . S
C595 C594 1.367 . S
C595 C597 1.433 . S
C596 C592 1.350 . S
C596 C593 1.463 . S
C596 N600 1.427 . S
C597 H587 0.929 . S
C597 C595 1.433 . S
C597 N600 1.384 . S
C598 H589 0.929 . S
C598 C590 1.378 . S
C598 C593 1.350 . S
C599 H586 0.929 . S
C599 C591 1.433 . S
C599 N601 1.384 . S
N600 C596 1.427 . S
N600 C597 1.384 . S
N601 C593 1.427 . S
N601 C599 1.384 . S
H602 C608 0.930 . S
H603 C612 0.930 . S
H604 C617 0.929 . S
H605 C615 0.929 . S
H606 C610 0.929 . S
H607 C616 0.929 . S
C608 H602 0.930 . S
C608 C609 1.367 . S
C608 C616 1.378 . S
C609 C608 1.367 . S
C609 C617 1.433 . S
C610 H606 0.929 . S
C610 C612 1.378 . S
C610 C614 1.350 . S
C611 C614 1.463 . S
C611 C616 1.350 . S
C611 N619 1.427 . S
C612 H603 0.930 . S
C612 C610 1.378 . S
C612 C613 1.367 . S
C613 C612 1.367 . S
C613 C615 1.433 . S
C614 C610 1.350 . S
C614 C611 1.463 . S
C614 N618 1.427 . S
C615 H605 0.929 . S
C615 C613 1.433 . S
C615 N618 1.384 . S
C616 H607 0.929 . S
C616 C608 1.378 . S
C616 C611 1.350 . S
C617 H604 0.929 . S
C617 C609 1.433 . S
C617 N619 1.384 . S
N618 C614 1.427 . S
N618 C615 1.384 . S
N619 C611 1.427 . S
N619 C617 1.384 . S
C195 N83 1.451 . S
C199 C120 1.367 . S
C217 C128 1.367 . S
C213 N96 1.451 . S
C235 C132 1.350 . S
C231 N57 1.449 . S
C249 N70 1.448 . S
C253 C108 1.358 . S
C271 C149 1.351 . S
C267 N31 1.452 . S
C289 C183 1.348 . S
C285 N44 1.450 . S
C303 N5 1.449 . S
C307 C171 1.349 . S
C321 N18 1.445 . S
C325 C153 1.357 . S
C343 C107 1.357 . S
C339 N14 1.482 . S
C361 C141 1.360 . S
C357 N1 1.482 . S
C379 C145 1.358 . S
C375 N40 1.483 . S
C397 C123 1.351 . S
C393 N27 1.481 . S
C415 C162 1.347 . S
C411 N66 1.485 . S
C429 N53 1.485 . S
C433 C170 1.345 . S
C451 C186 1.344 . S
C447 N92 1.484 . S
C465 N79 1.484 . S
C469 C166 1.342 . S
C487 C111 1.355 . S
C483 N2 1.535 . S
C505 C129 1.376 . S
C501 N15 1.536 . S
C519 N28 1.529 . S
C523 C144 1.382 . S
C541 C124 1.380 . S
C537 N41 1.528 . S
C559 C150 1.355 . S
C555 N54 1.538 . S
C573 N67 1.538 . S
C577 C174 1.380 . S
C591 N80 1.532 . S
C595 C187 1.358 . S
C609 N93 1.532 . S
C613 C165 1.363 . S
