# Generated by pormake.
# Topology anh, (6,3)-cn, num edge types: 1
# Building blocks:
#     Node 0, Type 0, BuildingBlock: BETFAJ_clean_sbu_0, # of connection points: 6
#     Node 1, Type 0, BuildingBlock: BETFAJ_clean_sbu_0, # of connection points: 6
#     Node 2, Type 0, BuildingBlock: BETFAJ_clean_sbu_0, # of connection points: 6
#     Node 3, Type 1, BuildingBlock: KAKCAD_clean_linker_0, # of connection points: 3
#     Node 4, Type 1, BuildingBlock: KAKCAD_clean_linker_0, # of connection points: 3
#     Node 5, Type 1, BuildingBlock: KAKCAD_clean_linker_0, # of connection points: 3
#     Node 6, Type 1, BuildingBlock: KAKCAD_clean_linker_0, # of connection points: 3
#     Node 7, Type 1, BuildingBlock: KAKCAD_clean_linker_0, # of connection points: 3
#     Node 8, Type 1, BuildingBlock: KAKCAD_clean_linker_0, # of connection points: 3
#     Edge 9, Type (0, 1), BuildingBlock: OJICUG_clean_linker_0, # of connection points: 2
#     Edge 10, Type (0, 1), BuildingBlock: OJICUG_clean_linker_0, # of connection points: 2
#     Edge 11, Type (0, 1), BuildingBlock: OJICUG_clean_linker_0, # of connection points: 2
#     Edge 12, Type (0, 1), BuildingBlock: OJICUG_clean_linker_0, # of connection points: 2
#     Edge 13, Type (0, 1), BuildingBlock: OJICUG_clean_linker_0, # of connection points: 2
#     Edge 14, Type (0, 1), BuildingBlock: OJICUG_clean_linker_0, # of connection points: 2
#     Edge 15, Type (0, 1), BuildingBlock: OJICUG_clean_linker_0, # of connection points: 2
#     Edge 16, Type (0, 1), BuildingBlock: OJICUG_clean_linker_0, # of connection points: 2
#     Edge 17, Type (0, 1), BuildingBlock: OJICUG_clean_linker_0, # of connection points: 2
#     Edge 18, Type (0, 1), BuildingBlock: OJICUG_clean_linker_0, # of connection points: 2
#     Edge 19, Type (0, 1), BuildingBlock: OJICUG_clean_linker_0, # of connection points: 2
#     Edge 20, Type (0, 1), BuildingBlock: OJICUG_clean_linker_0, # of connection points: 2
#     Edge 21, Type (0, 1), BuildingBlock: OJICUG_clean_linker_0, # of connection points: 2
#     Edge 22, Type (0, 1), BuildingBlock: OJICUG_clean_linker_0, # of connection points: 2
#     Edge 23, Type (0, 1), BuildingBlock: OJICUG_clean_linker_0, # of connection points: 2
#     Edge 24, Type (0, 1), BuildingBlock: OJICUG_clean_linker_0, # of connection points: 2
#     Edge 25, Type (0, 1), BuildingBlock: OJICUG_clean_linker_0, # of connection points: 2
#     Edge 26, Type (0, 1), BuildingBlock: OJICUG_clean_linker_0, # of connection points: 2
# Relax obj value: 0.213
# Max RMSD: 0.225
# Mean RMSD: 0.164
data_MOF--net-anh--node1-BETFAJ_clean_sbu_0--node2-KAKCAD_clean_linker_0--edge1-OJICUG_clean_linker_0
_symmetry_space_group_name_H-M    P1
_symmetry_Int_Tables_number       1
_symmetry_cell_setting            triclinic
loop_
_symmetry_equiv_pos_as_xyz
'x, y, z'
_cell_length_a     28.208911
_cell_length_b     35.590549
_cell_length_c     52.489683
_cell_angle_alpha  92.467518
_cell_angle_beta   88.261611
_cell_angle_gamma 130.34744
loop_
_atom_site_label
_atom_site_type_symbol
_atom_site_fract_x
_atom_site_fract_y
_atom_site_fract_z
_atom_type_partial_charge
Sm0 Sm 0.21868 0.58985 0.14688 0.0
Sm1 Sm 0.13453 0.61108 0.1575 0.0
C2 C 0.29844 0.57875 0.13048 0.0
C3 C 0.29415 0.5355 0.12657 0.0
C4 C 0.3427 0.53777 0.13487 0.0
C5 C 0.33782 0.49614 0.13271 0.0
C6 C 0.28439 0.45165 0.12206 0.0
C7 C 0.23577 0.44944 0.11373 0.0
C8 C 0.24037 0.49093 0.11616 0.0
C9 C 0.18873 0.58539 0.19739 0.0
C10 C 0.27665 0.70582 0.1537 0.0
C11 C 1.03965 0.60294 0.17431 0.0
C12 C 0.97374 0.56077 0.16872 0.0
C13 C 0.9324 0.53155 0.18858 0.0
C14 C 0.8748 0.48506 0.18316 0.0
C15 C 0.85821 0.46714 0.15782 0.0
C16 C 0.89805 0.49765 0.13801 0.0
C17 C 0.95513 0.54382 0.14336 0.0
C18 C 0.15646 0.60771 0.10627 0.0
C19 C 1.07487 0.49426 0.15088 0.0
O20 O 0.29582 0.58994 0.15422 0.0
O21 O 0.26585 0.58228 0.11509 0.0
O22 O 0.20365 0.61891 0.1828 0.0
O23 O 0.19003 0.5533 0.18561 0.0
O24 O 0.28322 0.6751 0.14287 0.0
O25 O 0.22402 0.68936 0.16469 0.0
O26 O 1.06707 0.59237 0.18825 0.0
O27 O 1.07413 0.63048 0.15507 0.0
O28 O 0.14582 0.57809 0.12252 0.0
O29 O 0.15401 0.64017 0.11668 0.0
O30 O 1.06808 0.52606 0.15919 0.0
O31 O 0.12894 0.5094 0.14232 0.0
H32 H 0.38423 0.57168 0.14318 0.0
H33 H 0.37631 0.49898 0.13896 0.0
H34 H 0.194 0.41549 0.10559 0.0
H35 H 0.20172 0.48802 0.11006 0.0
H36 H 0.94607 0.54352 0.20828 0.0
H37 H 0.8446 0.4623 0.19876 0.0
H38 H 0.88571 0.48523 0.11826 0.0
H39 H 0.98593 0.56499 0.12755 0.0
Sm40 Sm 0.735 0.07547 0.47632 0.0
Sm41 Sm 0.64286 0.09839 0.47038 0.0
C42 C 0.79165 0.04176 0.48793 0.0
C43 C 0.77317 0.99531 0.49666 0.0
C44 C 0.71784 0.96233 0.51045 0.0
C45 C 0.69934 0.91703 0.51738 0.0
C46 C 0.73558 0.9039 0.51039 0.0
C47 C 0.7909 0.93713 0.49657 0.0
C48 C 0.80954 0.98249 0.48979 0.0
C49 C 0.72246 0.09573 0.42847 0.0
C50 C 0.5817 0.9835 0.47209 0.0
C51 C 0.58626 0.12865 0.4531 0.0
C52 C 0.59073 0.17036 0.46227 0.0
C53 C 0.55389 0.17947 0.45195 0.0
C54 C 0.55835 0.21905 0.46153 0.0
C55 C 0.59947 0.24966 0.48162 0.0
C56 C 0.63687 0.24059 0.49151 0.0
C57 C 0.63247 0.20134 0.48196 0.0
C58 C 0.66436 0.09697 0.5214 0.0
C59 C 0.79571 0.18993 0.47722 0.0
O60 O 0.78485 0.06703 0.50421 0.0
O61 O 0.77438 0.04003 0.46475 0.0
O62 O 0.67873 0.06962 0.44424 0.0
O63 O 0.77492 0.11079 0.43735 0.0
O64 O 0.63654 0.99883 0.4794 0.0
O65 O 0.57365 0.01423 0.46488 0.0
O66 O 0.63749 0.14099 0.44286 0.0
O67 O 0.55971 0.09248 0.46902 0.0
O68 O 0.68589 0.09067 0.50212 0.0
O69 O 0.62922 0.10596 0.51395 0.0
O70 O 0.74159 0.17471 0.46904 0.0
O71 O 0.80358 0.15908 0.48442 0.0
H72 H 0.68867 0.97134 0.51559 0.0
H73 H 0.65619 0.89192 0.52781 0.0
H74 H 0.82006 0.92821 0.49118 0.0
H75 H 0.85212 1.00742 0.47898 0.0
H76 H 0.52148 0.15584 0.43672 0.0
H77 H 0.52879 0.22507 0.45363 0.0
H78 H 0.66978 0.264 0.50665 0.0
H79 H 0.66155 0.19497 0.49004 0.0
Sm80 Sm 0.61748 0.5399 0.843 0.0
Sm81 Sm 0.52312 0.4278 0.83948 0.0
C82 C 0.68263 0.63567 0.83746 0.0
C83 C 0.67263 0.66911 0.82911 0.0
C84 C 0.63307 0.65608 0.80865 0.0
C85 C 0.62629 0.68926 0.8004 0.0
C86 C 0.65859 0.736 0.81255 0.0
C87 C 0.69697 0.74824 0.83343 0.0
C88 C 0.70401 0.71519 0.84155 0.0
C89 C 0.5855 0.49255 0.88824 0.0
C90 C 0.46594 0.48203 0.84264 0.0
C91 C 0.46208 0.33263 0.84487 0.0
C92 C 0.47876 0.30168 0.83899 0.0
C93 C 0.44097 0.25308 0.84721 0.0
C94 C 0.45725 0.22387 0.84148 0.0
C95 C 0.51185 0.24304 0.82758 0.0
C96 C 0.5497 0.292 0.81959 0.0
C97 C 0.53323 0.32095 0.82519 0.0
C98 C 0.55274 0.47242 0.79366 0.0
C99 C 0.67673 0.48687 0.84126 0.0
O100 O 0.67904 0.60664 0.8199 0.0
O101 O 0.65681 0.6139 0.85906 0.0
O102 O 0.54889 0.48211 0.87079 0.0
O103 O 0.64237 0.53068 0.88259 0.0
O104 O 0.52275 0.52139 0.83573 0.0
O105 O 0.45484 0.44142 0.84918 0.0
O106 O 0.49374 0.36567 0.86331 0.0
O107 O 0.45542 0.35011 0.82517 0.0
O108 O 0.59126 0.48545 0.81096 0.0
O109 O 0.49715 0.43306 0.79963 0.0
O110 O 0.61833 0.44528 0.84342 0.0
O111 O 0.68968 0.52941 0.83848 0.0
H112 H 0.60801 0.62054 0.79883 0.0
H113 H 0.59684 0.67865 0.78412 0.0
H114 H 0.72158 0.78339 0.8436 0.0
H115 H 0.73438 0.72578 0.85749 0.0
H116 H 0.39889 0.23771 0.85799 0.0
H117 H 0.42738 0.18645 0.84808 0.0
H118 H 0.59149 0.30771 0.80851 0.0
H119 H 0.56283 0.35832 0.81854 0.0
C120 C 0.71198 0.14476 0.30917 0.0
C121 C 0.69378 0.10291 0.32136 0.0
C122 C 0.70825 0.14429 0.28266 0.0
C123 C 0.68761 0.10228 0.26776 0.0
C124 C 0.66968 0.06048 0.28017 0.0
C125 C 0.67215 0.06065 0.30671 0.0
C126 C 0.68463 0.10203 0.23944 0.0
C127 C 0.72891 0.14498 0.22596 0.0
C128 C 0.72519 0.14581 0.19938 0.0
C129 C 0.67785 0.10199 0.18583 0.0
C130 C 0.63285 0.0585 0.19911 0.0
C131 C 0.63673 0.0591 0.22578 0.0
C132 C 0.57992 0.01205 0.18596 0.0
C133 C 0.51955 0.98605 0.19581 0.0
C134 C 0.58961 0.9905 0.16573 0.0
C135 C 0.5403 0.94254 0.15661 0.0
C136 C 0.48042 0.91545 0.16748 0.0
C137 C 0.76935 0.1939 0.18676 0.0
C138 C 0.77892 0.23515 0.19749 0.0
C139 C 0.80577 0.20029 0.16574 0.0
C140 C 0.85294 0.24766 0.15647 0.0
C141 C 0.86395 0.28924 0.16792 0.0
C142 C 0.82557 0.28207 0.18831 0.0
C143 C 0.47062 0.93843 0.18681 0.0
H144 H 0.72857 0.17767 0.32019 0.0
H145 H 0.72111 0.17679 0.27393 0.0
H146 H 0.65471 0.0278 0.26942 0.0
H147 H 0.65866 0.02817 0.31577 0.0
H148 H 0.76686 0.17828 0.23616 0.0
H149 H 0.60153 0.02581 0.23596 0.0
H150 H 0.67434 0.10227 0.16535 0.0
H151 H 0.51062 1.0019 0.21129 0.0
H152 H 0.63577 1.00973 0.15784 0.0
H153 H 0.5494 0.92631 0.14145 0.0
H154 H 0.75123 0.23129 0.2136 0.0
H155 H 0.7994 0.16906 0.15717 0.0
H156 H 0.42568 0.91887 0.19598 0.0
H157 H 0.83297 0.31301 0.19794 0.0
H158 H 0.88122 0.25179 0.14057 0.0
C159 C 0.58219 0.5507 0.67722 0.0
C160 C 0.61454 0.54014 0.69063 0.0
C161 C 0.59135 0.55837 0.65104 0.0
C162 C 0.63285 0.55542 0.63771 0.0
C163 C 0.66671 0.54647 0.65127 0.0
C164 C 0.65777 0.53903 0.67748 0.0
C165 C 0.63886 0.5597 0.6096 0.0
C166 C 0.64262 0.59611 0.59776 0.0
C167 C 0.64689 0.59958 0.57111 0.0
C168 C 0.64709 0.56593 0.55618 0.0
C169 C 0.64312 0.52912 0.56777 0.0
C170 C 0.6392 0.52641 0.59447 0.0
C171 C 0.64144 0.49242 0.55229 0.0
C172 C 0.60198 0.46778 0.53106 0.0
C173 C 0.67657 0.47954 0.55972 0.0
C174 C 0.67045 0.44145 0.54694 0.0
C175 C 0.62885 0.41515 0.52646 0.0
C176 C 0.65266 0.63934 0.5592 0.0
C177 C 0.6138 0.64946 0.56706 0.0
C178 C 0.69945 0.66934 0.54111 0.0
C179 C 0.70887 0.70996 0.53184 0.0
C180 C 0.67133 0.72115 0.54035 0.0
C181 C 0.62285 0.68979 0.55766 0.0
C182 C 0.59569 0.42944 0.51826 0.0
H183 H 0.54896 0.55219 0.68691 0.0
H184 H 0.56437 0.56497 0.64108 0.0
H185 H 0.69957 0.54459 0.64153 0.0
H186 H 0.683 0.53058 0.68727 0.0
H187 H 0.64368 0.62258 0.60938 0.0
H188 H 0.63431 0.49721 0.60348 0.0
H189 H 0.6503 0.5684 0.5356 0.0
H190 H 0.57405 0.47676 0.52502 0.0
H191 H 0.70823 0.49852 0.57571 0.0
H192 H 0.69782 0.43216 0.55332 0.0
H193 H 0.57678 0.62643 0.58072 0.0
H194 H 0.73041 0.66259 0.53492 0.0
H195 H 0.5631 0.40975 0.50262 0.0
H196 H 0.59223 0.69668 0.56418 0.0
H197 H 0.7471 0.73363 0.51876 0.0
C198 C 0.17717 0.59434 0.98019 0.0
C199 C 0.12965 0.56324 -0.00214 0.0
C200 C 0.16777 0.58172 0.95412 0.0
C201 C 0.11026 0.5383 0.94522 0.0
C202 C 1.06248 0.50759 0.96286 0.0
C203 C 1.07227 0.51972 0.98895 0.0
C204 C 1.10026 0.52465 0.91763 0.0
C205 C 0.14223 0.52321 0.90376 0.0
C206 C 0.13298 0.50912 0.87775 0.0
C207 C 1.08047 0.49736 0.86532 0.0
C208 C 1.03788 0.49931 0.87917 0.0
C209 C 1.04837 0.51247 0.9053 0.0
C210 C 0.98231 0.4889 0.86746 0.0
C211 C 0.98894 0.51807 0.84805 0.0
C212 C 0.92344 0.45545 0.87901 0.0
C213 C 0.87345 0.45269 0.87224 0.0
C214 C 0.88052 0.48356 0.85375 0.0
C215 C 0.17907 0.50642 0.86493 0.0
C216 C 0.2431 0.54712 0.86696 0.0
C217 C 0.16121 0.46143 0.8552 0.0
C218 C 0.20627 0.45677 0.84893 0.0
C219 C 0.27049 0.49708 0.85208 0.0
C220 C 0.28795 0.54262 0.8606 0.0
C221 C 0.93883 0.51558 0.84134 0.0
H222 H 0.22189 0.62799 0.9866 0.0
H223 H 0.20525 0.60608 0.94087 0.0
H224 H 1.01785 0.47379 0.95649 0.0
H225 H 1.03476 0.49528 0.00217 0.0
H226 H 0.18163 0.53171 0.91356 0.0
H227 H 1.0166 0.51447 0.91609 0.0
H228 H 1.07285 0.48681 0.84525 0.0
H229 H 1.03377 0.54474 0.83902 0.0
H230 H 0.91678 0.43278 0.89423 0.0
H231 H 0.83002 0.42791 0.88252 0.0
H232 H 0.25854 0.58217 0.87469 0.0
H233 H 0.11237 0.42915 0.85378 0.0
H234 H 0.94623 0.53954 0.82677 0.0
H235 H 0.33642 0.57451 0.86366 0.0
H236 H 0.19064 0.42122 0.8421 0.0
C237 C 0.11868 0.55476 0.32097 0.0
C238 C 0.17354 0.58822 0.30701 0.0
C239 C 0.12047 0.55422 0.34755 0.0
C240 C 0.17739 0.5865 0.3607 0.0
C241 C 0.23222 0.61992 0.34651 0.0
C242 C 0.23019 0.62108 0.32003 0.0
C243 C 0.17984 0.58526 0.389 0.0
C244 C 0.13985 0.54053 0.40178 0.0
C245 C 0.14205 0.53919 0.42846 0.0
C246 C 0.18549 0.5835 0.44255 0.0
C247 C 0.22706 0.62826 0.42989 0.0
C248 C 0.22318 0.62886 0.40337 0.0
C249 C 0.27736 0.67499 0.44345 0.0
C250 C 0.26448 0.70117 0.45831 0.0
C251 C 0.33947 0.69726 0.43806 0.0
C252 C 0.38793 0.74564 0.44647 0.0
C253 C 0.37532 0.77312 0.46021 0.0
C254 C 1.09901 0.49087 0.44103 0.0
C255 C 1.05942 0.48331 0.46092 0.0
C256 C 1.09358 0.45068 0.43157 0.0
C257 C 1.04811 0.40358 0.44109 0.0
C258 C 1.00642 0.39534 0.46014 0.0
C259 C 1.01322 0.4359 0.47025 0.0
C260 C 0.31307 0.74993 0.46656 0.0
H261 H 1.07438 0.52914 0.3113 0.0
H262 H 1.07712 0.52862 0.35775 0.0
H263 H 0.27714 0.64461 0.35575 0.0
H264 H 0.27326 0.64667 0.30962 0.0
H265 H 0.10695 0.50635 0.39097 0.0
H266 H 0.25425 0.66387 0.39401 0.0
H267 H 0.18846 0.58291 0.46305 0.0
H268 H 0.2168 0.68486 0.46237 0.0
H269 H 0.35032 0.67788 0.42632 0.0
H270 H 0.43508 0.76238 0.44096 0.0
H271 H 1.06244 0.5136 0.46847 0.0
H272 H 0.12367 0.45551 0.4163 0.0
H273 H 0.30183 0.76995 0.4773 0.0
H274 H 0.98207 0.4308 0.48506 0.0
H275 H 1.04386 0.37318 0.43271 0.0
C276 C 0.64525 0.0156 0.63441 0.0
C277 C 0.67778 0.06413 0.62668 0.0
C278 C 0.63814 1.00524 0.66036 0.0
C279 C 0.66383 0.04331 0.67905 0.0
C280 C 0.6993 0.09215 0.67113 0.0
C281 C 0.70585 0.10238 0.64528 0.0
C282 C 0.65071 0.03222 0.70665 0.0
C283 C 0.64961 0.99605 0.71724 0.0
C284 C 0.63668 0.98567 0.74334 0.0
C285 C 0.62455 0.01191 0.75886 0.0
C286 C 0.62542 0.04814 0.74856 0.0
C287 C 0.63812 0.05769 0.72249 0.0
C288 C 0.61243 0.07605 0.76459 0.0
C289 C 0.56112 0.05169 0.78126 0.0
C290 C 0.64939 0.12722 0.76204 0.0
C291 C 0.63419 0.15319 0.77509 0.0
C292 C 0.58157 0.12867 0.79105 0.0
C293 C 0.63692 0.94799 0.75438 0.0
C294 C 0.60783 0.90235 0.74156 0.0
C295 C 0.66729 0.95775 0.77755 0.0
C296 C 0.66942 0.92301 0.78747 0.0
C297 C 0.64077 0.87753 0.77456 0.0
C298 C 0.60949 0.86743 0.7516 0.0
C299 C 0.54568 0.07771 0.79428 0.0
H300 H 0.6228 0.98537 0.62045 0.0
H301 H 0.61025 0.96721 0.66577 0.0
H302 H 0.72111 0.12253 0.68496 0.0
H303 H 0.73201 0.14022 0.63982 0.0
H304 H 0.6604 0.97682 0.70532 0.0
H305 H 0.63654 0.08433 0.71434 0.0
H306 H 0.6145 1.00418 0.77896 0.0
H307 H 0.53164 0.01225 0.78352 0.0
H308 H 0.68961 0.14711 0.74953 0.0
H309 H 0.66253 0.19226 0.77193 0.0
H310 H 0.58361 0.89359 0.72378 0.0
H311 H 0.69053 0.99271 0.78778 0.0
H312 H 0.50522 0.05784 0.80663 0.0
H313 H 0.58738 0.8329 0.74109 0.0
H314 H 0.69341 0.93171 0.80532 0.0
C315 C 0.44815 0.30266 0.9638 0.0
C316 C 0.50985 0.34769 0.96281 0.0
C317 C 0.42765 0.27162 0.98438 0.0
C318 C 0.4688 0.28435 0.00402 0.0
C319 C 0.53134 0.3275 0.00215 0.0
C320 C 0.55151 0.35892 0.98192 0.0
C321 C 0.44584 0.25867 0.02854 0.0
C322 C 0.48053 0.24966 0.04117 0.0
C323 C 0.47706 0.24572 0.06788 0.0
C324 C 0.43158 0.24401 0.08119 0.0
C325 C 0.39386 0.25004 0.0685 0.0
C326 C 0.4006 0.2565 0.04207 0.0
C327 C 0.35959 0.26243 0.08317 0.0
C328 C 0.30138 0.24509 0.07492 0.0
C329 C 0.38998 0.2984 0.10299 0.0
C330 C 0.36528 0.31949 0.11288 0.0
C331 C 0.30946 0.30503 0.10325 0.0
C332 C 0.52973 0.25618 0.08222 0.0
C333 C 0.59056 0.28912 0.07224 0.0
C334 C 0.52219 0.24111 0.10752 0.0
C335 C 0.57406 0.26285 0.12314 0.0
C336 C 0.6343 0.29861 0.11345 0.0
C337 C 0.6419 0.30953 0.08755 0.0
C338 C 0.27636 0.26603 0.08496 0.0
H339 H 0.41503 0.292 0.9491 0.0
H340 H 0.37918 0.23862 0.98544 0.0
H341 H 0.56387 0.33889 0.01731 0.0
H342 H 0.59899 0.3934 0.9822 0.0
H343 H 0.51504 0.25121 0.03036 0.0
H344 H 0.37636 0.26628 0.03265 0.0
H345 H 0.42939 0.24306 0.10179 0.0
H346 H 0.27683 0.21717 0.05977 0.0
H347 H 0.43546 0.31327 0.10947 0.0
H348 H 0.39265 0.34983 0.12665 0.0
H349 H 0.59973 0.30306 0.05324 0.0
H350 H 0.47633 0.21478 0.11578 0.0
H351 H 0.23262 0.25334 0.0775 0.0
H352 H 0.68775 0.3375 0.07959 0.0
H353 H 0.5671 0.25352 0.14304 0.0
C354 C 0.29843 0.39434 0.13837 0.0
C355 C 0.28107 0.40854 0.11858 0.0
H356 H 0.31818 0.3486 0.14944 0.0
C357 C 0.26497 0.38369 0.09478 0.0
H358 H 0.31002 0.41241 0.15703 0.0
C359 C 0.27036 0.34765 0.0903 0.0
C360 C 0.29142 0.33541 0.10962 0.0
H361 H 0.25174 0.39413 0.07917 0.0
H362 H 0.2618 0.33178 0.07119 0.0
C363 C 0.3031 0.35785 0.13399 0.0
C364 C 0.84185 0.2779 0.47321 0.0
C365 C 0.85033 0.24347 0.47619 0.0
H366 H 0.88434 0.35269 0.46606 0.0
C367 C 0.91127 0.26038 0.47608 0.0
H368 H 0.7956 0.26626 0.4733 0.0
C369 C 0.96221 0.31003 0.47179 0.0
C370 C 0.95347 0.34405 0.46785 0.0
H371 H 0.91956 0.23493 0.47828 0.0
H372 H 1.00844 0.32164 0.47105 0.0
C373 C 0.8928 0.32759 0.46923 0.0
C374 C 0.70575 0.82286 0.80305 0.0
C375 C 0.65344 0.77224 0.80318 0.0
H376 H 0.74282 0.89548 0.79384 0.0
C377 C 0.59661 0.75664 0.794 0.0
H378 H 0.75059 0.83623 0.80947 0.0
C379 C 0.59239 0.79072 0.78478 0.0
C380 C 0.64475 0.84125 0.78469 0.0
H381 H 0.5551 0.71813 0.79417 0.0
H382 H 0.54791 0.77757 0.77799 0.0
C383 C 0.70139 0.85691 0.79402 0.0
C384 C 0.80137 0.38757 0.13302 0.0
C385 C 0.80015 0.41674 0.15148 0.0
H386 H 0.74865 0.32521 0.10714 0.0
C387 C 0.74268 0.39979 0.16134 0.0
H388 H 0.84517 0.39933 0.12547 0.0
C389 C 0.68728 0.35722 0.1508 0.0
C390 C 0.68888 0.33114 0.13038 0.0
H391 H 0.74055 0.42154 0.17563 0.0
H392 H 0.64366 0.34752 0.15698 0.0
C393 C 0.74623 0.345 0.12267 0.0
C394 C 0.5353 0.89528 0.47631 0.0
C395 C 0.52777 0.92959 0.47105 0.0
H396 H 0.49305 0.81914 0.47745 0.0
C397 C 0.46848 0.91176 0.46399 0.0
H398 H 0.58009 0.90752 0.48196 0.0
C399 C 0.41853 0.86102 0.46147 0.0
C400 C 0.42659 0.82675 0.46585 0.0
H401 H 0.46074 0.93698 0.45987 0.0
H402 H 0.37415 0.84871 0.45512 0.0
C403 C 0.48539 0.84452 0.47367 0.0
C404 C 0.48327 0.16291 0.81181 0.0
C405 C 0.52871 0.21199 0.82066 0.0
H406 H 0.46431 0.09829 0.79535 0.0
C407 C 0.59101 0.23205 0.82155 0.0
H408 H 0.43497 0.14648 0.81063 0.0
C409 C 0.60782 0.20441 0.81284 0.0
C410 C 0.56277 0.15601 0.803 0.0
H411 H 0.62701 0.26943 0.82873 0.0
H412 H 0.65634 0.22122 0.81351 0.0
C413 C 0.50011 0.13524 0.80307 0.0
C414 C 0.69563 0.83932 0.54255 0.0
C415 C 0.71623 0.85594 0.51766 0.0
H416 H 0.6666 0.78442 0.56936 0.0
C417 C 0.71978 0.82707 0.49994 0.0
H418 H 0.69315 0.8611 0.55667 0.0
C419 C 0.70396 0.78282 0.5071 0.0
C420 C 0.68462 0.76664 0.53218 0.0
H421 H 0.73464 0.83867 0.48051 0.0
H422 H 0.70686 0.76129 0.49297 0.0
C423 C 0.68023 0.79527 0.54976 0.0
C424 C 0.79165 0.52917 0.84152 0.0
C425 C 0.72892 0.48566 0.84287 0.0
H426 H 0.88783 0.56289 0.8439 0.0
C427 C 0.71672 0.44111 0.8466 0.0
H428 H 0.80327 0.56428 0.83872 0.0
C429 C 0.76548 0.44026 0.84942 0.0
C430 C 0.82831 0.48392 0.84864 0.0
H431 H 0.66929 0.40671 0.84766 0.0
H432 H 0.75372 0.40513 0.85231 0.0
C433 C 0.84045 0.52831 0.84432 0.0
C434 C 0.3912 0.77891 0.15242 0.0
C435 C 0.32931 0.7597 0.15413 0.0
H436 H 0.48761 0.84306 0.15565 0.0
C437 C 0.31779 0.79253 0.15756 0.0
H438 H 0.40151 0.75449 0.14976 0.0
C439 C 0.36692 0.84323 0.16033 0.0
C440 C 0.42897 0.86249 0.16027 0.0
H441 H 0.2706 0.77897 0.15848 0.0
H442 H 0.35605 0.86725 0.16315 0.0
C443 C 0.44057 0.82977 0.15563 0.0
C444 C 0.60565 0.32292 0.47721 0.0
C445 C 0.60319 0.29052 0.49278 0.0
H446 H 0.61666 0.38835 0.47559 0.0
C447 C 0.60649 0.29828 0.51936 0.0
H448 H 0.60355 0.31798 0.45665 0.0
C449 C 0.61398 0.33829 0.53014 0.0
C450 C 0.61843 0.37167 0.51463 0.0
H451 H 0.60333 0.27333 0.53191 0.0
H452 H 0.61613 0.343 0.55072 0.0
C453 C 0.61324 0.36319 0.48804 0.0
C454 C 0.35477 0.44502 0.85272 0.0
C455 C 0.41466 0.48448 0.8437 0.0
H456 H 0.26313 0.41787 0.86256 0.0
C457 C 0.42553 0.52707 0.83627 0.0
H458 H 0.34435 0.4116 0.85866 0.0
C459 C 0.37863 0.53055 0.83831 0.0
C460 C 0.31908 0.49161 0.84791 0.0
H461 H 0.47069 0.5582 0.82904 0.0
H462 H 0.38933 0.56407 0.83237 0.0
C463 C 0.3078 0.44852 0.85479 0.0
C464 C 1.02695 0.40496 0.15007 0.0
C465 C 1.02032 0.44088 0.15197 0.0
H466 H 0.98283 0.32875 0.1538 0.0
C467 C 0.96084 0.42566 0.15648 0.0
H468 H 1.07217 0.41551 0.14657 0.0
C469 C 0.90979 0.37616 0.16026 0.0
C470 C 0.9167 0.3404 0.15988 0.0
H471 H 0.95378 0.45218 0.15769 0.0
H472 H 0.865 0.3661 0.16419 0.0
C473 C 0.97563 0.35518 0.15406 0.0
C474 C 0.16829 0.63308 0.06116 0.0
C475 C 0.15338 0.59779 0.07849 0.0
H476 H 0.1731 0.64991 0.02188 0.0
C477 C 0.13292 0.55186 0.06908 0.0
H478 H 0.1843 0.6688 0.06793 0.0
C479 C 0.12557 0.54083 0.04289 0.0
C480 C 0.13969 0.57583 0.02555 0.0
H481 H 0.12117 0.52395 0.082 0.0
H482 H 0.10881 0.50487 0.03616 0.0
C483 C 0.16205 0.62235 0.03488 0.0
C484 C 0.76478 0.13709 0.38693 0.0
C485 C 0.71355 0.10048 0.40171 0.0
H486 H 0.79812 0.16695 0.34973 0.0
C487 C 0.6548 0.06656 0.39028 0.0
H488 H 0.81048 0.16373 0.39539 0.0
C489 C 0.64805 0.0678 0.36414 0.0
C490 C 0.69963 0.10374 0.34925 0.0
H491 H 0.61463 0.03794 0.40132 0.0
H492 H 0.60278 0.04038 0.35546 0.0
C493 C 0.75774 0.13903 0.36092 0.0
C494 C 0.63207 0.52795 0.76052 0.0
C495 C 0.56959 0.49321 0.76809 0.0
H496 H 0.69551 0.57038 0.72989 0.0
C497 C 0.52246 0.47654 0.7506 0.0
H498 H 0.66926 0.54152 0.77373 0.0
C499 C 0.53734 0.49308 0.72571 0.0
C500 C 0.59971 0.5265 0.71775 0.0
H501 H 0.4739 0.4499 0.756 0.0
H502 H 0.49985 0.47829 0.71243 0.0
C503 C 0.64702 0.54427 0.73547 0.0
C504 C 0.6588 0.11082 0.56776 0.0
C505 C 0.67242 0.09109 0.54812 0.0
H506 H 0.65038 0.11799 0.60795 0.0
C507 C 0.68988 0.06354 0.55434 0.0
H508 H 0.64495 0.132 0.56344 0.0
C509 C 0.69224 0.05493 0.57989 0.0
C510 C 0.67825 0.07452 0.59956 0.0
H511 H 0.69973 0.04739 0.53948 0.0
H512 H 0.70477 0.03288 0.58428 0.0
C513 C 0.66216 0.10296 0.59322 0.0
C514 C 0.50617 0.42537 0.91683 0.0
C515 C 0.56783 0.4576 0.9081 0.0
H516 H 0.43994 0.3666 0.94132 0.0
C517 C 0.61043 0.45324 0.91692 0.0
H518 H 0.47244 0.42797 0.91014 0.0
C519 C 0.59135 0.41673 0.9341 0.0
C520 C 0.52958 0.38455 0.9432 0.0
H521 H 0.65795 0.47705 0.90998 0.0
H522 H 0.625 0.41353 0.94001 0.0
C523 C 0.48739 0.38964 0.93439 0.0
C524 C 0.2046 0.6299 0.23877 0.0
C525 C 0.18013 0.58591 0.22518 0.0
H526 H 0.2223 0.66519 0.27566 0.0
C527 C 0.15002 0.54231 0.23852 0.0
H528 H 0.22806 0.66399 0.22887 0.0
C529 C 0.14572 0.5428 0.26508 0.0
C530 C 0.17254 0.58712 0.2788 0.0
H531 H 0.13051 0.50787 0.22843 0.0
H532 H 0.12349 0.50888 0.27497 0.0
C533 C 0.2015 0.63061 0.26544 0.0
loop_
_geom_bond_atom_site_label_1
_geom_bond_atom_site_label_2
_geom_bond_distance
_geom_bond_site_symmetry_2
_ccdc_geom_bond_type
Sm0 C2 2.846 . S
Sm0 O20 2.543 . S
Sm0 O21 2.450 . S
Sm0 O22 2.681 . S
Sm0 O23 2.464 . S
Sm0 O24 2.396 . S
Sm0 O28 2.386 . S
Sm0 O31 2.408 1_455 S
Sm1 C11 2.846 . S
Sm1 O22 2.386 1_655 S
Sm1 O25 2.408 1_655 S
Sm1 O26 2.543 . S
Sm1 O27 2.450 . S
Sm1 O28 2.681 1_655 S
Sm1 O29 2.464 . S
Sm1 O30 2.396 . S
C2 Sm0 2.846 . S
C2 C3 1.506 . S
C2 O20 1.261 . S
C2 O21 1.242 . S
C3 C2 1.506 . S
C3 C4 1.358 . S
C3 C8 1.382 . S
C4 C3 1.358 . S
C4 C5 1.385 . S
C4 H32 0.930 . S
C5 C4 1.385 . S
C5 C6 1.395 . S
C5 H33 0.929 . S
C6 C5 1.395 . S
C6 C7 1.335 . S
C7 C6 1.335 . S
C7 C8 1.398 . S
C7 H34 0.930 . S
C8 C3 1.382 . S
C8 C7 1.398 . S
C8 H35 0.929 . S
C9 O22 1.271 . S
C9 O23 1.251 . S
C10 O24 1.252 . S
C10 O25 1.272 . S
C11 Sm1 2.846 . S
C11 C12 1.506 . S
C11 O26 1.261 . S
C11 O27 1.242 . S
C12 C11 1.506 . S
C12 C13 1.358 . S
C12 C17 1.382 . S
C13 C12 1.358 . S
C13 C14 1.385 . S
C13 H36 0.930 . S
C14 C13 1.385 . S
C14 C15 1.395 . S
C14 H37 0.929 . S
C15 C14 1.395 . S
C15 C16 1.335 . S
C16 C15 1.335 . S
C16 C17 1.398 . S
C16 H38 0.930 . S
C17 C12 1.382 . S
C17 C16 1.398 . S
C17 H39 0.929 . S
C18 O28 1.271 . S
C18 O29 1.251 1_455 S
C19 O30 1.252 . S
C19 O31 1.272 . S
O20 Sm0 2.543 . S
O20 C2 1.261 . S
O21 Sm0 2.450 . S
O21 C2 1.242 . S
O22 Sm0 2.681 . S
O22 Sm1 2.386 1_455 S
O22 C9 1.271 . S
O23 Sm0 2.464 . S
O23 C9 1.251 . S
O24 Sm0 2.396 . S
O24 C10 1.252 . S
O25 Sm1 2.408 1_455 S
O25 C10 1.272 . S
O26 Sm1 2.543 . S
O26 C11 1.261 . S
O27 Sm1 2.450 . S
O27 C11 1.242 . S
O28 Sm0 2.386 . S
O28 Sm1 2.681 1_455 S
O28 C18 1.271 . S
O29 Sm1 2.464 . S
O29 C18 1.251 1_655 S
O30 Sm1 2.396 . S
O30 C19 1.252 . S
O31 Sm0 2.408 1_655 S
O31 C19 1.272 . S
H32 C4 0.930 . S
H33 C5 0.929 . S
H34 C7 0.930 . S
H35 C8 0.929 . S
H36 C13 0.930 . S
H37 C14 0.929 . S
H38 C16 0.930 . S
H39 C17 0.929 . S
Sm40 C42 2.846 . S
Sm40 O60 2.543 . S
Sm40 O61 2.450 . S
Sm40 O62 2.681 1_565 S
Sm40 O63 2.464 . S
Sm40 O64 2.396 . S
Sm40 O68 2.386 . S
Sm40 O71 2.408 1_565 S
Sm41 C51 2.846 . S
Sm41 O62 2.386 . S
Sm41 O65 2.408 1_545 S
Sm41 O66 2.543 . S
Sm41 O67 2.450 . S
Sm41 O68 2.681 1_545 S
Sm41 O69 2.464 . S
Sm41 O70 2.396 . S
C42 Sm40 2.846 . S
C42 C43 1.506 . S
C42 O60 1.261 . S
C42 O61 1.242 . S
C43 C42 1.506 . S
C43 C44 1.358 . S
C43 C48 1.382 . S
C44 C43 1.358 . S
C44 C45 1.385 . S
C44 H72 0.930 . S
C45 C44 1.385 . S
C45 C46 1.395 . S
C45 H73 0.929 . S
C46 C45 1.395 . S
C46 C47 1.335 . S
C47 C46 1.335 . S
C47 C48 1.398 . S
C47 H74 0.930 . S
C48 C43 1.382 . S
C48 C47 1.398 . S
C48 H75 0.929 . S
C49 O62 1.271 . S
C49 O63 1.251 1_545 S
C50 O64 1.252 . S
C50 O65 1.272 . S
C51 Sm41 2.846 . S
C51 C52 1.506 . S
C51 O66 1.261 . S
C51 O67 1.242 . S
C52 C51 1.506 . S
C52 C53 1.358 . S
C52 C57 1.382 . S
C53 C52 1.358 . S
C53 C54 1.385 . S
C53 H76 0.930 . S
C54 C53 1.385 . S
C54 C55 1.395 . S
C54 H77 0.929 . S
C55 C54 1.395 . S
C55 C56 1.335 . S
C56 C55 1.335 . S
C56 C57 1.398 . S
C56 H78 0.930 . S
C57 C52 1.382 . S
C57 C56 1.398 . S
C57 H79 0.929 . S
C58 O68 1.271 1_545 S
C58 O69 1.251 . S
C59 O70 1.252 . S
C59 O71 1.272 . S
O60 Sm40 2.543 . S
O60 C42 1.261 . S
O61 Sm40 2.450 . S
O61 C42 1.242 . S
O62 Sm40 2.681 1_545 S
O62 Sm41 2.386 . S
O62 C49 1.271 . S
O63 Sm40 2.464 . S
O63 C49 1.251 1_565 S
O64 Sm40 2.396 . S
O64 C50 1.252 . S
O65 Sm41 2.408 1_565 S
O65 C50 1.272 . S
O66 Sm41 2.543 . S
O66 C51 1.261 . S
O67 Sm41 2.450 . S
O67 C51 1.242 . S
O68 Sm40 2.386 . S
O68 Sm41 2.681 1_565 S
O68 C58 1.271 1_565 S
O69 Sm41 2.464 . S
O69 C58 1.251 . S
O70 Sm41 2.396 . S
O70 C59 1.252 . S
O71 Sm40 2.408 1_545 S
O71 C59 1.272 . S
H72 C44 0.930 . S
H73 C45 0.929 . S
H74 C47 0.930 . S
H75 C48 0.929 . S
H76 C53 0.930 . S
H77 C54 0.929 . S
H78 C56 0.930 . S
H79 C57 0.929 . S
Sm80 C82 2.846 . S
Sm80 O100 2.543 . S
Sm80 O101 2.450 . S
Sm80 O102 2.681 . S
Sm80 O103 2.464 . S
Sm80 O104 2.396 . S
Sm80 O108 2.386 . S
Sm80 O111 2.408 . S
Sm81 C91 2.846 . S
Sm81 O102 2.386 . S
Sm81 O105 2.408 . S
Sm81 O106 2.543 . S
Sm81 O107 2.450 . S
Sm81 O108 2.681 . S
Sm81 O109 2.464 . S
Sm81 O110 2.396 . S
C82 Sm80 2.846 . S
C82 C83 1.506 . S
C82 O100 1.261 . S
C82 O101 1.242 . S
C83 C82 1.506 . S
C83 C84 1.358 . S
C83 C88 1.382 . S
C84 C83 1.358 . S
C84 C85 1.385 . S
C84 H112 0.930 . S
C85 C84 1.385 . S
C85 C86 1.395 . S
C85 H113 0.929 . S
C86 C85 1.395 . S
C86 C87 1.335 . S
C87 C86 1.335 . S
C87 C88 1.398 . S
C87 H114 0.930 . S
C88 C83 1.382 . S
C88 C87 1.398 . S
C88 H115 0.929 . S
C89 O102 1.271 . S
C89 O103 1.251 . S
C90 O104 1.252 . S
C90 O105 1.272 . S
C91 Sm81 2.846 . S
C91 C92 1.506 . S
C91 O106 1.261 . S
C91 O107 1.242 . S
C92 C91 1.506 . S
C92 C93 1.358 . S
C92 C97 1.382 . S
C93 C92 1.358 . S
C93 C94 1.385 . S
C93 H116 0.930 . S
C94 C93 1.385 . S
C94 C95 1.395 . S
C94 H117 0.929 . S
C95 C94 1.395 . S
C95 C96 1.335 . S
C96 C95 1.335 . S
C96 C97 1.398 . S
C96 H118 0.930 . S
C97 C92 1.382 . S
C97 C96 1.398 . S
C97 H119 0.929 . S
C98 O108 1.271 . S
C98 O109 1.251 . S
C99 O110 1.252 . S
C99 O111 1.272 . S
O100 Sm80 2.543 . S
O100 C82 1.261 . S
O101 Sm80 2.450 . S
O101 C82 1.242 . S
O102 Sm80 2.681 . S
O102 Sm81 2.386 . S
O102 C89 1.271 . S
O103 Sm80 2.464 . S
O103 C89 1.251 . S
O104 Sm80 2.396 . S
O104 C90 1.252 . S
O105 Sm81 2.408 . S
O105 C90 1.272 . S
O106 Sm81 2.543 . S
O106 C91 1.261 . S
O107 Sm81 2.450 . S
O107 C91 1.242 . S
O108 Sm80 2.386 . S
O108 Sm81 2.681 . S
O108 C98 1.271 . S
O109 Sm81 2.464 . S
O109 C98 1.251 . S
O110 Sm81 2.396 . S
O110 C99 1.252 . S
O111 Sm80 2.408 . S
O111 C99 1.272 . S
H112 C84 0.930 . S
H113 C85 0.929 . S
H114 C87 0.930 . S
H115 C88 0.929 . S
H116 C93 0.930 . S
H117 C94 0.929 . S
H118 C96 0.930 . S
H119 C97 0.929 . S
C120 C121 1.386 . S
C120 C122 1.397 . S
C120 H144 0.931 . S
C121 C120 1.386 . S
C121 C125 1.397 1_545 S
C122 C120 1.397 . S
C122 C123 1.384 . S
C122 H145 0.930 . S
C123 C122 1.384 . S
C123 C124 1.377 1_545 S
C123 C126 1.481 . S
C124 C123 1.377 1_565 S
C124 C125 1.389 . S
C124 H146 0.929 . S
C125 C121 1.397 1_565 S
C125 C124 1.389 . S
C125 H147 0.931 . S
C126 C123 1.481 . S
C126 C127 1.387 . S
C126 C131 1.390 1_545 S
C127 C126 1.387 . S
C127 C128 1.401 . S
C127 H148 0.930 . S
C128 C127 1.401 . S
C128 C129 1.376 . S
C128 C137 1.511 . S
C129 C128 1.376 . S
C129 C130 1.392 1_545 S
C129 H150 0.931 . S
C130 C129 1.392 1_565 S
C130 C131 1.361 . S
C130 C132 1.500 . S
C131 C126 1.390 1_565 S
C131 C130 1.361 . S
C131 H149 0.931 . S
C132 C130 1.500 . S
C132 C133 1.371 . S
C132 C134 1.365 . S
C133 C132 1.371 . S
C133 C143 1.386 . S
C133 H151 0.931 . S
C134 C132 1.365 . S
C134 C135 1.409 . S
C134 H152 0.929 . S
C135 C134 1.409 . S
C135 C136 1.380 . S
C135 H153 0.930 . S
C136 C135 1.380 . S
C136 C143 1.357 . S
C137 C128 1.511 . S
C137 C138 1.341 . S
C137 C139 1.371 . S
C138 C137 1.341 . S
C138 C142 1.394 . S
C138 H154 0.930 . S
C139 C137 1.371 . S
C139 C140 1.392 . S
C139 H155 0.931 . S
C140 C139 1.392 . S
C140 C141 1.331 . S
C140 H158 0.932 . S
C141 C140 1.331 . S
C141 C142 1.336 . S
C142 C138 1.394 . S
C142 C141 1.336 . S
C142 H157 0.929 . S
C143 C133 1.386 . S
C143 C136 1.357 . S
C143 H156 0.928 . S
H144 C120 0.931 . S
H145 C122 0.930 . S
H146 C124 0.929 . S
H147 C125 0.931 . S
H148 C127 0.930 . S
H149 C131 0.931 . S
H150 C129 0.931 . S
H151 C133 0.931 . S
H152 C134 0.929 . S
H153 C135 0.930 . S
H154 C138 0.930 . S
H155 C139 0.931 . S
H156 C143 0.928 . S
H157 C142 0.929 . S
H158 C140 0.932 . S
C159 C160 1.386 . S
C159 C161 1.397 . S
C159 H183 0.931 . S
C160 C159 1.386 . S
C160 C164 1.397 . S
C161 C159 1.397 . S
C161 C162 1.384 . S
C161 H184 0.930 . S
C162 C161 1.384 . S
C162 C163 1.377 . S
C162 C165 1.481 . S
C163 C162 1.377 . S
C163 C164 1.389 . S
C163 H185 0.929 . S
C164 C160 1.397 . S
C164 C163 1.389 . S
C164 H186 0.931 . S
C165 C162 1.481 . S
C165 C166 1.387 . S
C165 C170 1.390 . S
C166 C165 1.387 . S
C166 C167 1.401 . S
C166 H187 0.930 . S
C167 C166 1.401 . S
C167 C168 1.376 . S
C167 C176 1.511 . S
C168 C167 1.376 . S
C168 C169 1.392 . S
C168 H189 0.931 . S
C169 C168 1.392 . S
C169 C170 1.361 . S
C169 C171 1.500 . S
C170 C165 1.390 . S
C170 C169 1.361 . S
C170 H188 0.931 . S
C171 C169 1.500 . S
C171 C172 1.371 . S
C171 C173 1.365 . S
C172 C171 1.371 . S
C172 C182 1.386 . S
C172 H190 0.931 . S
C173 C171 1.365 . S
C173 C174 1.409 . S
C173 H191 0.929 . S
C174 C173 1.409 . S
C174 C175 1.380 . S
C174 H192 0.930 . S
C175 C174 1.380 . S
C175 C182 1.357 . S
C176 C167 1.511 . S
C176 C177 1.341 . S
C176 C178 1.371 . S
C177 C176 1.341 . S
C177 C181 1.394 . S
C177 H193 0.930 . S
C178 C176 1.371 . S
C178 C179 1.392 . S
C178 H194 0.931 . S
C179 C178 1.392 . S
C179 C180 1.331 . S
C179 H197 0.932 . S
C180 C179 1.331 . S
C180 C181 1.336 . S
C181 C177 1.394 . S
C181 C180 1.336 . S
C181 H196 0.929 . S
C182 C172 1.386 . S
C182 C175 1.357 . S
C182 H195 0.928 . S
H183 C159 0.931 . S
H184 C161 0.930 . S
H185 C163 0.929 . S
H186 C164 0.931 . S
H187 C166 0.930 . S
H188 C170 0.931 . S
H189 C168 0.931 . S
H190 C172 0.931 . S
H191 C173 0.929 . S
H192 C174 0.930 . S
H193 C177 0.930 . S
H194 C178 0.931 . S
H195 C182 0.928 . S
H196 C181 0.929 . S
H197 C179 0.932 . S
C198 C199 1.407 . S
C198 C200 1.397 . S
C198 H222 0.931 . S
C199 C198 1.407 . S
C199 C203 1.422 1_455 S
C200 C198 1.397 . S
C200 C201 1.384 . S
C200 H223 0.930 . S
C201 C200 1.384 . S
C201 C202 1.377 1_455 S
C201 C204 1.481 . S
C202 C201 1.377 1_655 S
C202 C203 1.389 . S
C202 H224 0.929 . S
C203 C199 1.422 1_655 S
C203 C202 1.389 . S
C203 H225 0.931 . S
C204 C201 1.481 . S
C204 C205 1.387 . S
C204 C209 1.390 . S
C205 C204 1.387 . S
C205 C206 1.401 . S
C205 H226 0.930 . S
C206 C205 1.401 . S
C206 C207 1.376 . S
C206 C215 1.511 . S
C207 C206 1.376 . S
C207 C208 1.392 . S
C207 H228 0.931 . S
C208 C207 1.392 . S
C208 C209 1.361 . S
C208 C210 1.500 1_455 S
C209 C204 1.390 . S
C209 C208 1.361 . S
C209 H227 0.931 1_455 S
C210 C208 1.500 1_655 S
C210 C211 1.371 . S
C210 C212 1.365 . S
C211 C210 1.371 . S
C211 C221 1.386 . S
C211 H229 0.931 1_655 S
C212 C210 1.365 . S
C212 C213 1.409 . S
C212 H230 0.929 . S
C213 C212 1.409 . S
C213 C214 1.380 . S
C213 H231 0.930 . S
C214 C213 1.380 . S
C214 C221 1.357 . S
C215 C206 1.511 . S
C215 C216 1.341 . S
C215 C217 1.371 . S
C216 C215 1.341 . S
C216 C220 1.394 . S
C216 H232 0.930 . S
C217 C215 1.371 . S
C217 C218 1.392 . S
C217 H233 0.931 . S
C218 C217 1.392 . S
C218 C219 1.331 . S
C218 H236 0.932 . S
C219 C218 1.331 . S
C219 C220 1.336 . S
C220 C216 1.394 . S
C220 C219 1.336 . S
C220 H235 0.929 . S
C221 C211 1.386 . S
C221 C214 1.357 . S
C221 H234 0.928 . S
H222 C198 0.931 . S
H223 C200 0.930 . S
H224 C202 0.929 . S
H225 C203 0.931 . S
H226 C205 0.930 . S
H227 C209 0.931 1_655 S
H228 C207 0.931 . S
H229 C211 0.931 1_455 S
H230 C212 0.929 . S
H231 C213 0.930 . S
H232 C216 0.930 . S
H233 C217 0.931 . S
H234 C221 0.928 . S
H235 C220 0.929 . S
H236 C218 0.932 . S
C237 C238 1.387 . S
C237 C239 1.397 . S
C237 H261 0.931 . S
C238 C237 1.387 . S
C238 C242 1.396 1_655 S
C239 C237 1.397 . S
C239 C240 1.384 . S
C239 H262 0.930 . S
C240 C239 1.384 . S
C240 C241 1.377 1_655 S
C240 C243 1.481 . S
C241 C240 1.377 1_455 S
C241 C242 1.389 . S
C241 H263 0.929 . S
C242 C238 1.396 1_455 S
C242 C241 1.389 . S
C242 H264 0.931 . S
C243 C240 1.481 . S
C243 C244 1.387 . S
C243 C248 1.390 1_655 S
C244 C243 1.387 . S
C244 C245 1.401 . S
C244 H265 0.930 . S
C245 C244 1.401 . S
C245 C246 1.376 . S
C245 C254 1.511 . S
C246 C245 1.376 . S
C246 C247 1.392 1_655 S
C246 H267 0.931 . S
C247 C246 1.392 1_455 S
C247 C248 1.361 . S
C247 C249 1.500 . S
C248 C243 1.390 1_455 S
C248 C247 1.361 . S
C248 H266 0.931 . S
C249 C247 1.500 . S
C249 C250 1.371 . S
C249 C251 1.365 . S
C250 C249 1.371 . S
C250 C260 1.386 . S
C250 H268 0.931 . S
C251 C249 1.365 . S
C251 C252 1.409 . S
C251 H269 0.929 . S
C252 C251 1.409 . S
C252 C253 1.380 . S
C252 H270 0.930 . S
C253 C252 1.380 . S
C253 C260 1.357 . S
C254 C245 1.511 . S
C254 C255 1.341 . S
C254 C256 1.371 . S
C255 C254 1.341 . S
C255 C259 1.394 . S
C255 H271 0.930 . S
C256 C254 1.371 . S
C256 C257 1.392 . S
C256 H272 0.931 . S
C257 C256 1.392 . S
C257 C258 1.331 . S
C257 H275 0.932 . S
C258 C257 1.331 . S
C258 C259 1.336 . S
C259 C255 1.394 . S
C259 C258 1.336 . S
C259 H274 0.929 . S
C260 C250 1.386 . S
C260 C253 1.357 . S
C260 H273 0.928 . S
H261 C237 0.931 . S
H262 C239 0.930 . S
H263 C241 0.929 . S
H264 C242 0.931 . S
H265 C244 0.930 . S
H266 C248 0.931 . S
H267 C246 0.931 . S
H268 C250 0.931 . S
H269 C251 0.929 . S
H270 C252 0.930 . S
H271 C255 0.930 . S
H272 C256 0.931 . S
H273 C260 0.928 . S
H274 C259 0.929 . S
H275 C257 0.932 . S
C276 C277 1.386 . S
C276 C278 1.397 . S
C276 H300 0.931 . S
C277 C276 1.386 . S
C277 C281 1.397 1_565 S
C278 C276 1.397 . S
C278 C279 1.384 . S
C278 H301 0.930 . S
C279 C278 1.384 . S
C279 C280 1.377 1_565 S
C279 C282 1.481 . S
C280 C279 1.377 1_545 S
C280 C281 1.389 . S
C280 H302 0.929 . S
C281 C277 1.397 1_545 S
C281 C280 1.389 . S
C281 H303 0.931 . S
C282 C279 1.481 . S
C282 C283 1.387 . S
C282 C287 1.390 1_565 S
C283 C282 1.387 . S
C283 C284 1.401 . S
C283 H304 0.930 . S
C284 C283 1.401 . S
C284 C285 1.376 1_565 S
C284 C293 1.511 . S
C285 C284 1.376 1_545 S
C285 C286 1.392 . S
C285 H306 0.931 . S
C286 C285 1.392 . S
C286 C287 1.361 . S
C286 C288 1.500 . S
C287 C282 1.390 1_545 S
C287 C286 1.361 . S
C287 H305 0.931 . S
C288 C286 1.500 . S
C288 C289 1.371 . S
C288 C290 1.365 . S
C289 C288 1.371 . S
C289 C299 1.386 . S
C289 H307 0.931 . S
C290 C288 1.365 . S
C290 C291 1.409 . S
C290 H308 0.929 . S
C291 C290 1.409 . S
C291 C292 1.380 . S
C291 H309 0.930 . S
C292 C291 1.380 . S
C292 C299 1.357 . S
C293 C284 1.511 . S
C293 C294 1.341 . S
C293 C295 1.371 . S
C294 C293 1.341 . S
C294 C298 1.394 . S
C294 H310 0.930 . S
C295 C293 1.371 . S
C295 C296 1.392 . S
C295 H311 0.931 . S
C296 C295 1.392 . S
C296 C297 1.331 . S
C296 H314 0.932 . S
C297 C296 1.331 . S
C297 C298 1.336 . S
C298 C294 1.394 . S
C298 C297 1.336 . S
C298 H313 0.929 . S
C299 C289 1.386 . S
C299 C292 1.357 . S
C299 H312 0.928 . S
H300 C276 0.931 . S
H301 C278 0.930 . S
H302 C280 0.929 . S
H303 C281 0.931 . S
H304 C283 0.930 . S
H305 C287 0.931 . S
H306 C285 0.931 . S
H307 C289 0.931 . S
H308 C290 0.929 . S
H309 C291 0.930 . S
H310 C294 0.930 . S
H311 C295 0.931 . S
H312 C299 0.928 . S
H313 C298 0.929 . S
H314 C296 0.932 . S
C315 C316 1.386 . S
C315 C317 1.397 1_556 S
C315 H339 0.931 . S
C316 C315 1.386 . S
C316 C320 1.397 . S
C317 C315 1.397 1_554 S
C317 C318 1.384 . S
C317 H340 0.930 . S
C318 C317 1.384 . S
C318 C319 1.377 . S
C318 C321 1.481 . S
C319 C318 1.377 . S
C319 C320 1.389 1_554 S
C319 H341 0.929 . S
C320 C316 1.397 . S
C320 C319 1.389 1_556 S
C320 H342 0.931 . S
C321 C318 1.481 . S
C321 C322 1.387 . S
C321 C326 1.390 . S
C322 C321 1.387 . S
C322 C323 1.401 . S
C322 H343 0.930 . S
C323 C322 1.401 . S
C323 C324 1.376 . S
C323 C332 1.511 . S
C324 C323 1.376 . S
C324 C325 1.392 . S
C324 H345 0.931 . S
C325 C324 1.392 . S
C325 C326 1.361 . S
C325 C327 1.500 . S
C326 C321 1.390 . S
C326 C325 1.361 . S
C326 H344 0.931 . S
C327 C325 1.500 . S
C327 C328 1.371 . S
C327 C329 1.365 . S
C328 C327 1.371 . S
C328 C338 1.386 . S
C328 H346 0.931 . S
C329 C327 1.365 . S
C329 C330 1.409 . S
C329 H347 0.929 . S
C330 C329 1.409 . S
C330 C331 1.380 . S
C330 H348 0.930 . S
C331 C330 1.380 . S
C331 C338 1.357 . S
C332 C323 1.511 . S
C332 C333 1.341 . S
C332 C334 1.371 . S
C333 C332 1.341 . S
C333 C337 1.394 . S
C333 H349 0.930 . S
C334 C332 1.371 . S
C334 C335 1.392 . S
C334 H350 0.931 . S
C335 C334 1.392 . S
C335 C336 1.331 . S
C335 H353 0.932 . S
C336 C335 1.331 . S
C336 C337 1.336 . S
C337 C333 1.394 . S
C337 C336 1.336 . S
C337 H352 0.929 . S
C338 C328 1.386 . S
C338 C331 1.357 . S
C338 H351 0.928 . S
H339 C315 0.931 . S
H340 C317 0.930 . S
H341 C319 0.929 . S
H342 C320 0.931 . S
H343 C322 0.930 . S
H344 C326 0.931 . S
H345 C324 0.931 . S
H346 C328 0.931 . S
H347 C329 0.929 . S
H348 C330 0.930 . S
H349 C333 0.930 . S
H350 C334 0.931 . S
H351 C338 0.928 . S
H352 C337 0.929 . S
H353 C335 0.932 . S
C354 C355 1.387 . S
C354 H358 0.950 . S
C354 C363 1.390 . S
C355 C354 1.387 . S
C355 C357 1.387 . S
H356 C363 0.950 . S
C357 C355 1.387 . S
C357 C359 1.390 . S
C357 H361 0.950 . S
H358 C354 0.950 . S
C359 C357 1.390 . S
C359 C360 1.387 . S
C359 H362 0.950 . S
C360 C359 1.387 . S
C360 C363 1.387 . S
H361 C357 0.950 . S
H362 C359 0.950 . S
C363 C354 1.390 . S
C363 H356 0.950 . S
C363 C360 1.387 . S
C364 C365 1.387 . S
C364 H368 0.950 . S
C364 C373 1.390 . S
C365 C364 1.387 . S
C365 C367 1.387 . S
H366 C373 0.950 . S
C367 C365 1.387 . S
C367 C369 1.390 . S
C367 H371 0.950 . S
H368 C364 0.950 . S
C369 C367 1.390 . S
C369 C370 1.387 . S
C369 H372 0.950 . S
C370 C369 1.387 . S
C370 C373 1.387 . S
H371 C367 0.950 . S
H372 C369 0.950 . S
C373 C364 1.390 . S
C373 H366 0.950 . S
C373 C370 1.387 . S
C374 C375 1.387 . S
C374 H378 0.950 . S
C374 C383 1.390 . S
C375 C374 1.387 . S
C375 C377 1.387 . S
H376 C383 0.950 . S
C377 C375 1.387 . S
C377 C379 1.390 . S
C377 H381 0.950 . S
H378 C374 0.950 . S
C379 C377 1.390 . S
C379 C380 1.387 . S
C379 H382 0.950 . S
C380 C379 1.387 . S
C380 C383 1.387 . S
H381 C377 0.950 . S
H382 C379 0.950 . S
C383 C374 1.390 . S
C383 H376 0.950 . S
C383 C380 1.387 . S
C384 C385 1.387 . S
C384 H388 0.950 . S
C384 C393 1.390 . S
C385 C384 1.387 . S
C385 C387 1.387 . S
H386 C393 0.950 . S
C387 C385 1.387 . S
C387 C389 1.390 . S
C387 H391 0.950 . S
H388 C384 0.950 . S
C389 C387 1.390 . S
C389 C390 1.387 . S
C389 H392 0.950 . S
C390 C389 1.387 . S
C390 C393 1.387 . S
H391 C387 0.950 . S
H392 C389 0.950 . S
C393 C384 1.390 . S
C393 H386 0.950 . S
C393 C390 1.387 . S
C394 C395 1.387 . S
C394 H398 0.950 . S
C394 C403 1.390 . S
C395 C394 1.387 . S
C395 C397 1.387 . S
H396 C403 0.950 . S
C397 C395 1.387 . S
C397 C399 1.390 . S
C397 H401 0.950 . S
H398 C394 0.950 . S
C399 C397 1.390 . S
C399 C400 1.387 . S
C399 H402 0.950 . S
C400 C399 1.387 . S
C400 C403 1.387 . S
H401 C397 0.950 . S
H402 C399 0.950 . S
C403 C394 1.390 . S
C403 H396 0.950 . S
C403 C400 1.387 . S
C404 C405 1.387 . S
C404 H408 0.950 . S
C404 C413 1.390 . S
C405 C404 1.387 . S
C405 C407 1.387 . S
H406 C413 0.950 . S
C407 C405 1.387 . S
C407 C409 1.390 . S
C407 H411 0.950 . S
H408 C404 0.950 . S
C409 C407 1.390 . S
C409 C410 1.387 . S
C409 H412 0.950 . S
C410 C409 1.387 . S
C410 C413 1.387 . S
H411 C407 0.950 . S
H412 C409 0.950 . S
C413 C404 1.390 . S
C413 H406 0.950 . S
C413 C410 1.387 . S
C414 C415 1.387 . S
C414 H418 0.950 . S
C414 C423 1.390 . S
C415 C414 1.387 . S
C415 C417 1.387 . S
H416 C423 0.950 . S
C417 C415 1.387 . S
C417 C419 1.390 . S
C417 H421 0.950 . S
H418 C414 0.950 . S
C419 C417 1.390 . S
C419 C420 1.387 . S
C419 H422 0.950 . S
C420 C419 1.387 . S
C420 C423 1.387 . S
H421 C417 0.950 . S
H422 C419 0.950 . S
C423 C414 1.390 . S
C423 H416 0.950 . S
C423 C420 1.387 . S
C424 C425 1.387 . S
C424 H428 0.950 . S
C424 C433 1.390 . S
C425 C424 1.387 . S
C425 C427 1.387 . S
H426 C433 0.950 . S
C427 C425 1.387 . S
C427 C429 1.390 . S
C427 H431 0.950 . S
H428 C424 0.950 . S
C429 C427 1.390 . S
C429 C430 1.387 . S
C429 H432 0.950 . S
C430 C429 1.387 . S
C430 C433 1.387 . S
H431 C427 0.950 . S
H432 C429 0.950 . S
C433 C424 1.390 . S
C433 H426 0.950 . S
C433 C430 1.387 . S
C434 C435 1.387 . S
C434 H438 0.950 . S
C434 C443 1.390 . S
C435 C434 1.387 . S
C435 C437 1.387 . S
H436 C443 0.950 . S
C437 C435 1.387 . S
C437 C439 1.390 . S
C437 H441 0.950 . S
H438 C434 0.950 . S
C439 C437 1.390 . S
C439 C440 1.387 . S
C439 H442 0.950 . S
C440 C439 1.387 . S
C440 C443 1.387 . S
H441 C437 0.950 . S
H442 C439 0.950 . S
C443 C434 1.390 . S
C443 H436 0.950 . S
C443 C440 1.387 . S
C444 C445 1.387 . S
C444 H448 0.950 . S
C444 C453 1.390 . S
C445 C444 1.387 . S
C445 C447 1.387 . S
H446 C453 0.950 . S
C447 C445 1.387 . S
C447 C449 1.390 . S
C447 H451 0.950 . S
H448 C444 0.950 . S
C449 C447 1.390 . S
C449 C450 1.387 . S
C449 H452 0.950 . S
C450 C449 1.387 . S
C450 C453 1.387 . S
H451 C447 0.950 . S
H452 C449 0.950 . S
C453 C444 1.390 . S
C453 H446 0.950 . S
C453 C450 1.387 . S
C454 C455 1.387 . S
C454 H458 0.950 . S
C454 C463 1.390 . S
C455 C454 1.387 . S
C455 C457 1.387 . S
H456 C463 0.950 . S
C457 C455 1.387 . S
C457 C459 1.390 . S
C457 H461 0.950 . S
H458 C454 0.950 . S
C459 C457 1.390 . S
C459 C460 1.387 . S
C459 H462 0.950 . S
C460 C459 1.387 . S
C460 C463 1.387 . S
H461 C457 0.950 . S
H462 C459 0.950 . S
C463 C454 1.390 . S
C463 H456 0.950 . S
C463 C460 1.387 . S
C464 C465 1.387 . S
C464 H468 0.950 . S
C464 C473 1.390 . S
C465 C464 1.387 . S
C465 C467 1.387 . S
H466 C473 0.950 . S
C467 C465 1.387 . S
C467 C469 1.390 . S
C467 H471 0.950 . S
H468 C464 0.950 . S
C469 C467 1.390 . S
C469 C470 1.387 . S
C469 H472 0.950 . S
C470 C469 1.387 . S
C470 C473 1.387 . S
H471 C467 0.950 . S
H472 C469 0.950 . S
C473 C464 1.390 . S
C473 H466 0.950 . S
C473 C470 1.387 . S
C474 C475 1.387 1_655 S
C474 H478 0.950 . S
C474 C483 1.390 1_655 S
C475 C474 1.387 1_455 S
C475 C477 1.387 . S
H476 C483 0.950 1_655 S
C477 C475 1.387 . S
C477 C479 1.390 . S
C477 H481 0.950 . S
H478 C474 0.950 . S
C479 C477 1.390 . S
C479 C480 1.387 . S
C479 H482 0.950 . S
C480 C479 1.387 . S
C480 C483 1.387 . S
H481 C477 0.950 . S
H482 C479 0.950 . S
C483 C474 1.390 1_455 S
C483 H476 0.950 1_455 S
C483 C480 1.387 . S
C484 C485 1.387 . S
C484 H488 0.950 . S
C484 C493 1.390 . S
C485 C484 1.387 . S
C485 C487 1.387 1_545 S
H486 C493 0.950 . S
C487 C485 1.387 1_565 S
C487 C489 1.389 1_565 S
C487 H491 0.950 . S
H488 C484 0.950 . S
C489 C487 1.389 1_545 S
C489 C490 1.384 . S
C489 H492 0.955 1_545 S
C490 C489 1.384 . S
C490 C493 1.387 . S
H491 C487 0.950 . S
H492 C489 0.955 1_565 S
C493 C484 1.390 . S
C493 H486 0.950 . S
C493 C490 1.387 . S
C494 C495 1.387 . S
C494 H498 0.950 . S
C494 C503 1.390 . S
C495 C494 1.387 . S
C495 C497 1.387 . S
H496 C503 0.950 . S
C497 C495 1.387 . S
C497 C499 1.390 . S
C497 H501 0.950 . S
H498 C494 0.950 . S
C499 C497 1.390 . S
C499 C500 1.387 . S
C499 H502 0.950 . S
C500 C499 1.387 . S
C500 C503 1.387 . S
H501 C497 0.950 . S
H502 C499 0.950 . S
C503 C494 1.390 . S
C503 H496 0.950 . S
C503 C500 1.387 . S
C504 C505 1.387 . S
C504 H508 0.950 . S
C504 C513 1.390 . S
C505 C504 1.387 . S
C505 C507 1.387 1_545 S
H506 C513 0.950 . S
C507 C505 1.387 1_565 S
C507 C509 1.390 . S
C507 H511 0.950 . S
H508 C504 0.950 . S
C509 C507 1.390 . S
C509 C510 1.387 . S
C509 H512 0.950 . S
C510 C509 1.387 . S
C510 C513 1.387 1_565 S
H511 C507 0.950 . S
H512 C509 0.950 . S
C513 C504 1.390 . S
C513 H506 0.950 . S
C513 C510 1.387 1_545 S
C514 C515 1.387 . S
C514 H518 0.950 . S
C514 C523 1.390 . S
C515 C514 1.387 . S
C515 C517 1.387 . S
H516 C523 0.950 . S
C517 C515 1.387 . S
C517 C519 1.390 . S
C517 H521 0.950 . S
H518 C514 0.950 . S
C519 C517 1.390 . S
C519 C520 1.387 . S
C519 H522 0.950 . S
C520 C519 1.387 . S
C520 C523 1.387 . S
H521 C517 0.950 . S
H522 C519 0.950 . S
C523 C514 1.390 . S
C523 H516 0.950 . S
C523 C520 1.387 . S
C524 C525 1.387 . S
C524 H528 0.950 . S
C524 C533 1.390 . S
C525 C524 1.387 . S
C525 C527 1.387 1_455 S
H526 C533 0.950 . S
C527 C525 1.387 1_655 S
C527 C529 1.390 . S
C527 H531 0.950 . S
H528 C524 0.950 . S
C529 C527 1.390 . S
C529 C530 1.387 1_655 S
C529 H532 0.950 . S
C530 C529 1.387 1_455 S
C530 C533 1.387 . S
H531 C527 0.950 . S
H532 C529 0.950 . S
C533 C524 1.390 . S
C533 H526 0.950 . S
C533 C530 1.387 . S
C355 C6 0.912 . S
C360 C331 0.969 . S
C365 C59 2.033 . S
C370 C258 1.978 . S
C375 C86 1.358 . S
C380 C297 1.392 . S
C385 C15 0.648 . S
C390 C336 0.568 . S
C400 C253 2.054 . S
C395 C50 2.159 . S
C410 C292 1.383 . S
C405 C95 1.355 . S
C415 C46 1.297 . S
C420 C180 1.321 . S
C425 C99 3.193 . S
C430 C214 3.129 . S
C435 C10 2.189 . S
C440 C136 2.105 . S
C450 C175 1.389 . S
C445 C55 1.345 . S
C460 C219 3.056 . S
C455 C90 3.119 . S
C465 C19 2.032 . S
C470 C141 1.991 . S
C480 C199 1.748 1_554 S
C475 C18 1.719 . S
C485 C49 1.327 . S
C490 C121 1.370 . S
C495 C98 1.453 . S
C500 C160 1.506 . S
C510 C277 1.487 . S
C505 C58 1.443 . S
C520 C316 1.082 . S
C515 C89 1.083 . S
C525 C9 1.317 . S
C530 C238 1.355 1_455 S
