# Generated by pormake.
# Topology ssc, (4,4)-cn, num edge types: 1
# Building blocks:
#     Node 0, Type 0, BuildingBlock: CEKHIL_clean_sbu_0, # of connection points: 4
#     Node 1, Type 0, BuildingBlock: CEKHIL_clean_sbu_0, # of connection points: 4
#     Node 2, Type 0, BuildingBlock: CEKHIL_clean_sbu_0, # of connection points: 4
#     Node 3, Type 0, BuildingBlock: CEKHIL_clean_sbu_0, # of connection points: 4
#     Node 4, Type 0, BuildingBlock: CEKHIL_clean_sbu_0, # of connection points: 4
#     Node 5, Type 0, BuildingBlock: CEKHIL_clean_sbu_0, # of connection points: 4
#     Node 6, Type 0, BuildingBlock: CEKHIL_clean_sbu_0, # of connection points: 4
#     Node 7, Type 0, BuildingBlock: CEKHIL_clean_sbu_0, # of connection points: 4
#     Node 8, Type 0, BuildingBlock: CEKHIL_clean_sbu_0, # of connection points: 4
#     Node 9, Type 0, BuildingBlock: CEKHIL_clean_sbu_0, # of connection points: 4
#     Node 10, Type 0, BuildingBlock: CEKHIL_clean_sbu_0, # of connection points: 4
#     Node 11, Type 0, BuildingBlock: CEKHIL_clean_sbu_0, # of connection points: 4
#     Node 12, Type 1, BuildingBlock: KUFVIS_clean_linker_0, # of connection points: 4
#     Node 13, Type 1, BuildingBlock: KUFVIS_clean_linker_0, # of connection points: 4
#     Node 14, Type 1, BuildingBlock: KUFVIS_clean_linker_0, # of connection points: 4
#     Node 15, Type 1, BuildingBlock: KUFVIS_clean_linker_0, # of connection points: 4
#     Node 16, Type 1, BuildingBlock: KUFVIS_clean_linker_0, # of connection points: 4
#     Node 17, Type 1, BuildingBlock: KUFVIS_clean_linker_0, # of connection points: 4
#     Node 18, Type 1, BuildingBlock: KUFVIS_clean_linker_0, # of connection points: 4
#     Node 19, Type 1, BuildingBlock: KUFVIS_clean_linker_0, # of connection points: 4
#     Node 20, Type 1, BuildingBlock: KUFVIS_clean_linker_0, # of connection points: 4
#     Node 21, Type 1, BuildingBlock: KUFVIS_clean_linker_0, # of connection points: 4
#     Node 22, Type 1, BuildingBlock: KUFVIS_clean_linker_0, # of connection points: 4
#     Node 23, Type 1, BuildingBlock: KUFVIS_clean_linker_0, # of connection points: 4
#     Edge 24, Type (0, 1), BuildingBlock: CIFDUS_clean_linker_0, # of connection points: 2
#     Edge 25, Type (0, 1), BuildingBlock: CIFDUS_clean_linker_0, # of connection points: 2
#     Edge 26, Type (0, 1), BuildingBlock: CIFDUS_clean_linker_0, # of connection points: 2
#     Edge 27, Type (0, 1), BuildingBlock: CIFDUS_clean_linker_0, # of connection points: 2
#     Edge 28, Type (0, 1), BuildingBlock: CIFDUS_clean_linker_0, # of connection points: 2
#     Edge 29, Type (0, 1), BuildingBlock: CIFDUS_clean_linker_0, # of connection points: 2
#     Edge 30, Type (0, 1), BuildingBlock: CIFDUS_clean_linker_0, # of connection points: 2
#     Edge 31, Type (0, 1), BuildingBlock: CIFDUS_clean_linker_0, # of connection points: 2
#     Edge 32, Type (0, 1), BuildingBlock: CIFDUS_clean_linker_0, # of connection points: 2
#     Edge 33, Type (0, 1), BuildingBlock: CIFDUS_clean_linker_0, # of connection points: 2
#     Edge 34, Type (0, 1), BuildingBlock: CIFDUS_clean_linker_0, # of connection points: 2
#     Edge 35, Type (0, 1), BuildingBlock: CIFDUS_clean_linker_0, # of connection points: 2
#     Edge 36, Type (0, 1), BuildingBlock: CIFDUS_clean_linker_0, # of connection points: 2
#     Edge 37, Type (0, 1), BuildingBlock: CIFDUS_clean_linker_0, # of connection points: 2
#     Edge 38, Type (0, 1), BuildingBlock: CIFDUS_clean_linker_0, # of connection points: 2
#     Edge 39, Type (0, 1), BuildingBlock: CIFDUS_clean_linker_0, # of connection points: 2
#     Edge 40, Type (0, 1), BuildingBlock: CIFDUS_clean_linker_0, # of connection points: 2
#     Edge 41, Type (0, 1), BuildingBlock: CIFDUS_clean_linker_0, # of connection points: 2
#     Edge 42, Type (0, 1), BuildingBlock: CIFDUS_clean_linker_0, # of connection points: 2
#     Edge 43, Type (0, 1), BuildingBlock: CIFDUS_clean_linker_0, # of connection points: 2
#     Edge 44, Type (0, 1), BuildingBlock: CIFDUS_clean_linker_0, # of connection points: 2
#     Edge 45, Type (0, 1), BuildingBlock: CIFDUS_clean_linker_0, # of connection points: 2
#     Edge 46, Type (0, 1), BuildingBlock: CIFDUS_clean_linker_0, # of connection points: 2
#     Edge 47, Type (0, 1), BuildingBlock: CIFDUS_clean_linker_0, # of connection points: 2
#     Edge 48, Type (0, 1), BuildingBlock: CIFDUS_clean_linker_0, # of connection points: 2
#     Edge 49, Type (0, 1), BuildingBlock: CIFDUS_clean_linker_0, # of connection points: 2
#     Edge 50, Type (0, 1), BuildingBlock: CIFDUS_clean_linker_0, # of connection points: 2
#     Edge 51, Type (0, 1), BuildingBlock: CIFDUS_clean_linker_0, # of connection points: 2
#     Edge 52, Type (0, 1), BuildingBlock: CIFDUS_clean_linker_0, # of connection points: 2
#     Edge 53, Type (0, 1), BuildingBlock: CIFDUS_clean_linker_0, # of connection points: 2
#     Edge 54, Type (0, 1), BuildingBlock: CIFDUS_clean_linker_0, # of connection points: 2
#     Edge 55, Type (0, 1), BuildingBlock: CIFDUS_clean_linker_0, # of connection points: 2
#     Edge 56, Type (0, 1), BuildingBlock: CIFDUS_clean_linker_0, # of connection points: 2
#     Edge 57, Type (0, 1), BuildingBlock: CIFDUS_clean_linker_0, # of connection points: 2
#     Edge 58, Type (0, 1), BuildingBlock: CIFDUS_clean_linker_0, # of connection points: 2
#     Edge 59, Type (0, 1), BuildingBlock: CIFDUS_clean_linker_0, # of connection points: 2
#     Edge 60, Type (0, 1), BuildingBlock: CIFDUS_clean_linker_0, # of connection points: 2
#     Edge 61, Type (0, 1), BuildingBlock: CIFDUS_clean_linker_0, # of connection points: 2
#     Edge 62, Type (0, 1), BuildingBlock: CIFDUS_clean_linker_0, # of connection points: 2
#     Edge 63, Type (0, 1), BuildingBlock: CIFDUS_clean_linker_0, # of connection points: 2
#     Edge 64, Type (0, 1), BuildingBlock: CIFDUS_clean_linker_0, # of connection points: 2
#     Edge 65, Type (0, 1), BuildingBlock: CIFDUS_clean_linker_0, # of connection points: 2
#     Edge 66, Type (0, 1), BuildingBlock: CIFDUS_clean_linker_0, # of connection points: 2
#     Edge 67, Type (0, 1), BuildingBlock: CIFDUS_clean_linker_0, # of connection points: 2
#     Edge 68, Type (0, 1), BuildingBlock: CIFDUS_clean_linker_0, # of connection points: 2
#     Edge 69, Type (0, 1), BuildingBlock: CIFDUS_clean_linker_0, # of connection points: 2
#     Edge 70, Type (0, 1), BuildingBlock: CIFDUS_clean_linker_0, # of connection points: 2
#     Edge 71, Type (0, 1), BuildingBlock: CIFDUS_clean_linker_0, # of connection points: 2
# Relax obj value: 0.121
# Max RMSD: 0.312
# Mean RMSD: 0.273
data_MOF--net-ssc--node1-CEKHIL_clean_sbu_0--node2-KUFVIS_clean_linker_0--edge1-CIFDUS_clean_linker_0
_symmetry_space_group_name_H-M    P1
_symmetry_Int_Tables_number       1
_symmetry_cell_setting            triclinic
loop_
_symmetry_equiv_pos_as_xyz
'x, y, z'
_cell_length_a     27.047681
_cell_length_b     27.104013
_cell_length_c     27.085256
_cell_angle_alpha  91.398354
_cell_angle_beta   89.802807
_cell_angle_gamma 93.295965
loop_
_atom_site_label
_atom_site_type_symbol
_atom_site_fract_x
_atom_site_fract_y
_atom_site_fract_z
_atom_type_partial_charge
Co0 Co 0.98981 0.21522 0.13275 0.0
O1 O 0.02266 0.21272 0.07023 0.0
O2 O 0.95248 0.24933 0.08443 0.0
C3 C 0.05737 0.23766 0.178 0.0
O4 O 0.94615 0.22458 0.19314 0.0
Co5 Co 0.01873 0.13771 0.20876 0.0
O6 O 0.96663 0.16846 0.24881 0.0
C7 C 0.96115 0.10673 0.12177 0.0
C8 C 0.98691 0.23728 0.0534 0.0
C9 C 0.94051 0.20328 0.23486 0.0
O10 O 0.95189 0.15186 0.11538 0.0
O11 O 0.99312 0.09337 0.1526 0.0
O12 O 0.03368 0.27039 0.15486 0.0
O13 O 0.04297 0.19211 0.16862 0.0
Co14 Co 0.07321 0.69306 0.40236 0.0
O15 O 0.12262 0.66716 0.44278 0.0
O16 O 0.04739 0.63182 0.43059 0.0
C17 C 0.1241 0.7097 0.33891 0.0
O18 O 0.01375 0.70759 0.35961 0.0
Co19 Co 0.08338 0.80304 0.37174 0.0
O20 O 0.03342 0.77929 0.32188 0.0
C21 C 0.05541 0.77879 0.47376 0.0
C22 C 0.09111 0.63018 0.45017 0.0
C23 C 0.00632 0.73965 0.32651 0.0
O24 O 0.04869 0.73287 0.46057 0.0
O25 O 0.07294 0.81201 0.44468 0.0
O26 O 0.10471 0.66519 0.34434 0.0
O27 O 0.11561 0.74124 0.37395 0.0
Co28 Co 0.57634 0.85229 0.63691 0.0
O29 O 0.62124 0.87803 0.58713 0.0
O30 O 0.54327 0.89792 0.59744 0.0
C31 C 0.62875 0.85949 0.70111 0.0
O32 O 0.51923 0.83772 0.68417 0.0
Co33 Co 0.59248 0.75565 0.69205 0.0
O34 O 0.53601 0.77551 0.73373 0.0
C35 C 0.5618 0.74978 0.58803 0.0
C36 C 0.58441 0.90306 0.57285 0.0
C37 C 0.50919 0.81015 0.72109 0.0
O38 O 0.55382 0.79617 0.59035 0.0
O39 O 0.58077 0.72712 0.62363 0.0
O40 O 0.60678 0.89789 0.68616 0.0
O41 O 0.62224 0.81975 0.67408 0.0
Co42 Co 0.48615 0.29971 0.87766 0.0
O43 O 0.5168 0.28011 0.93813 0.0
O44 O 0.4462 0.24699 0.90816 0.0
C45 C 0.55195 0.29978 0.82629 0.0
O46 O 0.44501 0.30682 0.81562 0.0
Co47 Co 0.51392 0.39982 0.82985 0.0
O48 O 0.48795 0.36276 0.7702 0.0
C49 C 0.45295 0.39943 0.91915 0.0
C50 C 0.48011 0.24724 0.94203 0.0
C51 C 0.45699 0.32577 0.77379 0.0
O52 O 0.44958 0.35181 0.91551 0.0
O53 O 0.4802 0.42627 0.89048 0.0
O54 O 0.5284 0.25889 0.83866 0.0
O55 O 0.54032 0.33862 0.85187 0.0
Co56 Co 0.1617 0.02191 0.29067 0.0
O57 O 0.20088 0.99078 0.24074 0.0
O58 O 0.2036 0.97471 0.32045 0.0
C59 C 0.0893 0.01488 0.25079 0.0
O60 O 0.12501 0.0455 0.35273 0.0
Co61 Co 0.11642 0.12135 0.26862 0.0
O62 O 0.08553 0.11378 0.33462 0.0
C63 C 0.22294 0.11907 0.28054 0.0
C64 C 0.22009 0.96664 0.27597 0.0
C65 C 0.096 0.0802 0.36433 0.0
O66 O 0.21599 0.07548 0.29791 0.0
O67 O 0.18828 0.14354 0.26312 0.0
O68 O 0.10455 0.97779 0.2749 0.0
O69 O 0.12031 0.05267 0.24676 0.0
Co70 Co 0.18504 0.89534 0.59065 0.0
O71 O 0.15921 0.95122 0.62511 0.0
O72 O 0.14627 0.93276 0.5459 0.0
C73 C 0.16618 0.83898 0.64879 0.0
O74 O 0.20391 0.83841 0.54384 0.0
Co75 Co 0.27555 0.84761 0.63579 0.0
O76 O 0.25567 0.79403 0.58739 0.0
C77 C 0.29251 0.94052 0.58433 0.0
C78 C 0.13914 0.96212 0.5837 0.0
C79 C 0.22806 0.79926 0.55002 0.0
O80 O 0.24649 0.93687 0.57176 0.0
O81 O 0.31156 0.91005 0.61309 0.0
O82 O 0.13247 0.85172 0.61825 0.0
O83 O 0.20774 0.86501 0.64702 0.0
Co84 Co 0.39915 0.10085 0.82425 0.0
O85 O 0.36135 0.15012 0.79279 0.0
O86 O 0.34918 0.12472 0.86903 0.0
C87 C 0.47624 0.12616 0.80002 0.0
O88 O 0.43109 0.05359 0.8709 0.0
Co89 Co 0.45696 0.02448 0.76321 0.0
O90 O 0.48948 0.01501 0.82782 0.0
C91 C 0.34894 0.01225 0.7674 0.0
C92 C 0.33506 0.15148 0.83307 0.0
C93 C 0.46935 0.02742 0.86851 0.0
O94 O 0.34934 0.04793 0.79961 0.0
O95 O 0.38803 0.99764 0.74622 0.0
O96 O 0.4551 0.14853 0.83692 0.0
O97 O 0.44794 0.09447 0.77547 0.0
Co98 Co 0.32471 0.13289 0.09868 0.0
O99 O 0.35158 0.07662 0.12856 0.0
O100 O 0.36298 0.09779 0.05045 0.0
C101 C 0.34253 0.18831 0.16061 0.0
O102 O 0.30583 0.18923 0.05506 0.0
Co103 Co 0.2353 0.18431 0.14389 0.0
O104 O 0.25609 0.23791 0.09825 0.0
C105 C 0.21732 0.09004 0.08942 0.0
C106 C 0.37067 0.06728 0.08548 0.0
C107 C 0.28327 0.22957 0.06079 0.0
O108 O 0.26364 0.09078 0.07821 0.0
O109 O 0.19837 0.12305 0.11698 0.0
O110 O 0.37666 0.1769 0.12904 0.0
O111 O 0.30109 0.16229 0.15666 0.0
Co112 Co 0.77606 0.37373 0.00694 0.0
O113 O 0.7345 0.40246 0.05637 0.0
O114 O 0.72522 0.41009 0.97577 0.0
C115 C 0.77707 0.29761 0.0386 0.0
O116 O 0.80802 0.34624 0.94463 0.0
Co117 Co 0.87981 0.3408 0.03396 0.0
O118 O 0.8741 0.30648 0.96871 0.0
C119 C 0.86793 0.44593 0.0203 0.0
C120 C 0.70959 0.41954 0.02026 0.0
C121 C 0.84324 0.31732 0.93595 0.0
O122 O 0.82245 0.43522 0.00816 0.0
O123 O 0.89728 0.41365 0.03412 0.0
O124 O 0.73984 0.31023 0.01249 0.0
O125 O 0.80962 0.33291 0.0501 0.0
Co126 Co 0.88014 0.55357 0.23693 0.0
O127 O 0.8224 0.5773 0.20662 0.0
O128 O 0.8431 0.58969 0.2855 0.0
C129 C 0.93239 0.5761 0.17566 0.0
O130 O 0.93706 0.53792 0.28186 0.0
Co131 Co 0.93676 0.46889 0.19265 0.0
O132 O 0.99037 0.49351 0.23875 0.0
C133 C 0.84139 0.4451 0.24096 0.0
C134 C 0.81251 0.59628 0.24976 0.0
C135 C 0.97937 0.51927 0.2767 0.0
O136 O 0.84158 0.49087 0.25463 0.0
O137 O 0.87531 0.42806 0.21335 0.0
O138 O 0.92007 0.60787 0.2096 0.0
O139 O 0.91044 0.53239 0.17753 0.0
Co140 Co 0.73626 0.61853 0.48782 0.0
O141 O 0.78009 0.59749 0.53788 0.0
O142 O 0.79365 0.58875 0.45772 0.0
C143 C 0.72159 0.69174 0.5224 0.0
O144 O 0.69992 0.64065 0.42592 0.0
Co145 Co 0.6273 0.63044 0.51603 0.0
O146 O 0.62577 0.66479 0.45227 0.0
C147 C 0.66662 0.53343 0.51669 0.0
C148 C 0.8077 0.58099 0.50277 0.0
C149 C 0.65928 0.66257 0.41923 0.0
O150 O 0.70129 0.55114 0.48861 0.0
O151 O 0.6332 0.55983 0.53511 0.0
O152 O 0.76139 0.68656 0.49602 0.0
O153 O 0.69557 0.65165 0.53187 0.0
Co154 Co 0.61973 0.52419 0.80954 0.0
O155 O 0.66895 0.48139 0.78437 0.0
O156 O 0.65459 0.49616 0.86374 0.0
C157 C 0.55574 0.49862 0.75927 0.0
O158 O 0.57218 0.56287 0.85068 0.0
Co159 Co 0.57798 0.60458 0.74414 0.0
O160 O 0.53381 0.61489 0.80207 0.0
C161 C 0.67762 0.62124 0.78433 0.0
C162 C 0.68038 0.47425 0.83015 0.0
C163 C 0.54014 0.59492 0.84354 0.0
O164 O 0.66979 0.58254 0.81053 0.0
O165 O 0.64753 0.63434 0.75146 0.0
O166 O 0.5664 0.47342 0.79777 0.0
O167 O 0.58751 0.53433 0.74903 0.0
H168 H 0.8841 0.4283 0.70808 0.0
H169 H 0.95085 0.30254 0.76661 0.0
H170 H 0.0097 0.3698 0.63391 0.0
H171 H 0.98271 0.24766 0.64368 0.0
H172 H 0.11232 0.18726 0.70343 0.0
H173 H 0.06904 0.32945 0.75583 0.0
C174 C 0.91276 0.40183 0.70609 0.0
C175 C 0.9468 0.40401 0.66715 0.0
C176 C 0.91384 0.36567 0.74183 0.0
C177 C 0.95007 0.33077 0.73907 0.0
C178 C 0.98513 0.33207 0.70037 0.0
C179 C 0.98303 0.36854 0.66386 0.0
C180 C 0.0227 0.29413 0.69836 0.0
C181 C 0.0148 0.25154 0.66763 0.0
C182 C 0.04752 0.21318 0.66944 0.0
C183 C 0.0875 0.21731 0.70203 0.0
C184 C 0.09548 0.25845 0.73373 0.0
C185 C 0.06336 0.29746 0.73134 0.0
H186 H 0.91294 0.66265 0.87099 0.0
H187 H 0.05128 0.72198 0.93039 0.0
H188 H 0.97542 0.80119 0.81948 0.0
H189 H 0.08073 0.79615 0.8 0.0
H190 H 0.16179 0.91103 0.88301 0.0
H191 H 0.04716 0.82288 0.95432 0.0
C192 C 0.94273 0.69131 0.87179 0.0
C193 C 0.93939 0.73219 0.84183 0.0
C194 C 0.98161 0.68795 0.90503 0.0
C195 C 0.02049 0.72456 0.9054 0.0
C196 C 0.01894 0.76531 0.874 0.0
C197 C 0.97806 0.76902 0.84212 0.0
C198 C 0.05858 0.80538 0.87655 0.0
C199 C 0.08706 0.81702 0.83422 0.0
C200 C 0.1242 0.85529 0.83664 0.0
C201 C 0.13244 0.88195 0.88096 0.0
C202 C 0.1051 0.87067 0.92328 0.0
C203 C 0.06828 0.83197 0.92139 0.0
H204 H 0.34418 0.81813 0.10384 0.0
H205 H 0.42757 0.72335 0.19196 0.0
H206 H 0.4777 0.76126 0.04622 0.0
H207 H 0.47684 0.65377 0.05606 0.0
H208 H 0.60996 0.62157 0.13165 0.0
H209 H 0.52584 0.74131 0.18457 0.0
C210 C 0.37329 0.79226 0.10647 0.0
C211 C 0.40993 0.79258 0.07004 0.0
C212 C 0.38187 0.77167 0.15227 0.0
C213 C 0.42062 0.73964 0.15668 0.0
C214 C 0.45262 0.73178 0.1161 0.0
C215 C 0.44857 0.76053 0.07383 0.0
C216 C 0.49537 0.70039 0.12063 0.0
C217 C 0.50301 0.66168 0.08574 0.0
C218 C 0.54398 0.63243 0.09059 0.0
C219 C 0.57748 0.64317 0.12877 0.0
C220 C 0.57125 0.68197 0.16241 0.0
C221 C 0.53013 0.71065 0.15875 0.0
H222 H 0.44011 0.07278 0.3787 0.0
H223 H 0.55679 0.12746 0.47605 0.0
H224 H 0.54514 0.18441 0.329 0.0
H225 H 0.63248 0.1896 0.33732 0.0
H226 H 0.69859 0.30352 0.43162 0.0
H227 H 0.57571 0.21305 0.48496 0.0
C228 C 0.4739 0.09553 0.38534 0.0
C229 C 0.49123 0.1273 0.34853 0.0
C230 C 0.49525 0.09736 0.43241 0.0
C231 C 0.53954 0.12642 0.43999 0.0
C232 C 0.55943 0.15687 0.40197 0.0
C233 C 0.5339 0.15782 0.3567 0.0
C234 C 0.60177 0.19352 0.41166 0.0
C235 C 0.63521 0.20771 0.37339 0.0
C236 C 0.66955 0.24809 0.38054 0.0
C237 C 0.67273 0.27166 0.42703 0.0
C238 C 0.63833 0.26031 0.4645 0.0
C239 C 0.6037 0.22039 0.45697 0.0
H240 H 0.58427 0.88572 0.33277 0.0
H241 H 0.65007 0.90956 0.1899 0.0
H242 H 0.57308 0.02545 0.26487 0.0
H243 H 0.54104 0.01999 0.17074 0.0
H244 H 0.64305 0.11109 0.08706 0.0
H245 H 0.69867 0.00599 0.186 0.0
C246 C 0.59012 0.90854 0.30059 0.0
C247 C 0.57531 0.95699 0.30267 0.0
C248 C 0.61767 0.89095 0.26091 0.0
C249 C 0.62796 0.92225 0.2206 0.0
C250 C 0.60923 0.97026 0.22054 0.0
C251 C 0.58392 0.98755 0.2625 0.0
C252 C 0.61867 0.00493 0.17934 0.0
C253 C 0.57864 0.02905 0.15868 0.0
C254 C 0.58768 0.06731 0.12521 0.0
C255 C 0.63637 0.08024 0.11154 0.0
C256 C 0.67663 0.05924 0.1336 0.0
C257 C 0.66777 0.02096 0.16718 0.0
H258 H 0.16316 0.40272 0.35702 0.0
H259 H 0.23033 0.46436 0.48924 0.0
H260 H 0.26233 0.31695 0.43657 0.0
H261 H 0.2607 0.30387 0.51728 0.0
H262 H 0.35414 0.36067 0.63384 0.0
H263 H 0.31172 0.45907 0.52203 0.0
C264 C 0.18862 0.39943 0.38756 0.0
C265 C 0.21198 0.35546 0.39318 0.0
C266 C 0.19566 0.43882 0.42119 0.0
C267 C 0.22656 0.4344 0.46221 0.0
C268 C 0.25086 0.39013 0.46895 0.0
C269 C 0.24358 0.35095 0.43341 0.0
C270 C 0.28076 0.38303 0.51438 0.0
C271 C 0.28126 0.33525 0.53422 0.0
C272 C 0.30883 0.32734 0.57617 0.0
C273 C 0.33314 0.36749 0.60094 0.0
C274 C 0.33548 0.41489 0.58189 0.0
C275 C 0.30935 0.42273 0.5379 0.0
H276 H 0.84855 0.07935 0.89621 0.0
H277 H 0.83109 0.04418 0.7417 0.0
H278 H 0.89203 0.93915 0.83875 0.0
H279 H 0.94198 0.95949 0.73326 0.0
H280 H 0.86357 0.84541 0.64647 0.0
H281 H 0.78377 0.9343 0.74862 0.0
C282 C 0.85108 0.05298 0.8656 0.0
C283 C 0.87085 0.0072 0.87335 0.0
C284 C 0.83743 0.06683 0.81843 0.0
C285 C 0.84217 0.03392 0.7783 0.0
C286 C 0.86163 0.98762 0.78584 0.0
C287 C 0.87664 0.97467 0.83315 0.0
C288 C 0.86275 0.95079 0.74547 0.0
C289 C 0.90778 0.93906 0.72299 0.0
C290 C 0.90822 0.90063 0.6873 0.0
C291 C 0.86373 0.87462 0.67465 0.0
C292 C 0.81898 0.88684 0.69629 0.0
C293 C 0.81837 0.92494 0.73167 0.0
H294 H 0.36131 0.71127 0.89084 0.0
H295 H 0.27006 0.68394 0.01817 0.0
H296 H 0.22854 0.78904 0.90989 0.0
H297 H 0.25225 0.78961 0.05079 0.0
H298 H 0.09979 0.77719 0.09385 0.0
H299 H 0.14673 0.70356 0.96106 0.0
C300 C 0.32847 0.71864 0.91243 0.0
C301 C 0.29616 0.75257 0.89534 0.0
C302 C 0.3196 0.69387 0.9564 0.0
C303 C 0.27693 0.70264 0.98367 0.0
C304 C 0.24383 0.73694 0.96684 0.0
C305 C 0.25341 0.76202 0.92248 0.0
C306 C 0.20273 0.75051 0.99893 0.0
C307 C 0.21401 0.77863 0.04197 0.0
C308 C 0.17677 0.78856 0.07597 0.0
C309 C 0.12781 0.77223 0.06562 0.0
C310 C 0.11682 0.73976 0.02565 0.0
C311 C 0.15433 0.7297 0.99138 0.0
H312 H 0.63083 0.87663 0.95604 0.0
H313 H 0.69159 0.92801 0.09575 0.0
H314 H 0.76897 0.82503 0.00375 0.0
H315 H 0.75138 0.7989 0.11864 0.0
H316 H 0.88469 0.86712 0.18153 0.0
H317 H 0.80693 0.9431 0.07142 0.0
C318 C 0.6582 0.8744 0.98507 0.0
C319 C 0.69954 0.84727 0.9755 0.0
C320 C 0.65504 0.9044 0.02754 0.0
C321 C 0.69276 0.90396 0.06326 0.0
C322 C 0.7326 0.87285 0.05607 0.0
C323 C 0.7364 0.84548 0.01142 0.0
C324 C 0.77303 0.87217 0.09261 0.0
C325 C 0.77813 0.83011 0.12174 0.0
C326 C 0.81867 0.82849 0.1539 0.0
C327 C 0.85316 0.86858 0.1569 0.0
C328 C 0.84951 0.90949 0.12739 0.0
C329 C 0.8093 0.91173 0.09518 0.0
H330 H 0.3733 0.69285 0.39213 0.0
H331 H 0.30055 0.58679 0.29211 0.0
H332 H 0.45988 0.59191 0.30949 0.0
H333 H 0.37911 0.5878 0.19366 0.0
H334 H 0.40772 0.43476 0.16805 0.0
H335 H 0.38991 0.4893 0.3163 0.0
C336 C 0.37541 0.66333 0.36445 0.0
C337 C 0.42135 0.64557 0.35261 0.0
C338 C 0.33178 0.64215 0.34379 0.0
C339 C 0.33427 0.60353 0.30824 0.0
C340 C 0.38087 0.58575 0.29492 0.0
C341 C 0.42423 0.60638 0.31811 0.0
C342 C 0.38483 0.54373 0.25922 0.0
C343 C 0.38469 0.5514 0.20762 0.0
C344 C 0.3916 0.51153 0.17437 0.0
C345 C 0.40095 0.46543 0.19327 0.0
C346 C 0.39958 0.45676 0.24369 0.0
C347 C 0.39122 0.49588 0.27699 0.0
H348 H 0.885 0.14466 0.44922 0.0
H349 H 0.87643 0.16623 0.60653 0.0
H350 H 0.75956 0.21272 0.51239 0.0
H351 H 0.7774 0.27989 0.58126 0.0
H352 H 0.71348 0.25144 0.72279 0.0
H353 H 0.77176 0.13264 0.63716 0.0
C354 C 0.86434 0.15558 0.48181 0.0
C355 C 0.81969 0.17814 0.47577 0.0
C356 C 0.88563 0.15178 0.52832 0.0
C357 C 0.85984 0.1681 0.5703 0.0
C358 C 0.81332 0.18884 0.56488 0.0
C359 C 0.79403 0.19487 0.51722 0.0
C360 C 0.78561 0.20609 0.60864 0.0
C361 C 0.77054 0.25512 0.61165 0.0
C362 C 0.74379 0.27087 0.65288 0.0
C363 C 0.7351 0.23838 0.69187 0.0
C364 C 0.73817 0.18748 0.68367 0.0
C365 C 0.76718 0.17174 0.64357 0.0
H366 H 0.13637 0.35064 0.90827 0.0
H367 H 0.2241 0.46033 0.82994 0.0
H368 H 0.06917 0.43081 0.79427 0.0
H369 H 0.1263 0.42894 0.71033 0.0
H370 H 0.15143 0.57689 0.65942 0.0
H371 H 0.17429 0.54755 0.81234 0.0
C372 C 0.13973 0.37729 0.87894 0.0
C373 C 0.09786 0.3872 0.85165 0.0
C374 C 0.18493 0.4038 0.87208 0.0
C375 C 0.18911 0.43967 0.83557 0.0
C376 C 0.14756 0.44845 0.80628 0.0
C377 C 0.10175 0.42273 0.81517 0.0
C378 C 0.15122 0.48392 0.76585 0.0
C379 C 0.13776 0.46742 0.71772 0.0
C380 C 0.13912 0.50077 0.67922 0.0
C381 C 0.15207 0.55066 0.6891 0.0
C382 C 0.16435 0.5679 0.73657 0.0
C383 C 0.16494 0.53438 0.77525 0.0
H384 H 0.96492 0.3263 0.01922 0.0
H385 H 0.0155 0.18437 0.97364 0.0
H386 H 0.04149 0.21718 0.89386 0.0
H387 H 0.06864 0.29065 0.84816 0.0
H388 H 0.02287 0.43359 0.89593 0.0
H389 H 0.97294 0.39567 0.96182 0.0
C390 C 0.97958 0.30219 0.9909 0.0
C391 C 0.98866 0.2533 0.00201 0.0
C392 C 0.99549 0.32167 0.9456 0.0
C393 C 0.00858 0.22235 0.96566 0.0
C394 C 0.02346 0.24107 0.92015 0.0
C395 C 0.04545 0.31299 0.87135 0.0
C396 C 0.05003 0.36464 0.86821 0.0
C397 C 0.01976 0.29135 0.91101 0.0
C398 C 0.01995 0.39365 0.89803 0.0
C399 C 0.99241 0.37212 0.93645 0.0
H400 H 0.90709 0.74715 0.33828 0.0
H401 H 0.01976 0.71561 0.23127 0.0
H402 H 0.96229 0.7274 0.16424 0.0
H403 H 0.88623 0.76174 0.13641 0.0
H404 H 0.77943 0.80742 0.24285 0.0
H405 H 0.82514 0.77041 0.30929 0.0
C406 C 0.91789 0.74021 0.30025 0.0
C407 C 0.96717 0.73001 0.28944 0.0
C408 C 0.88475 0.74831 0.26159 0.0
C409 C 0.98166 0.72269 0.24018 0.0
C410 C 0.94872 0.7293 0.20179 0.0
C411 C 0.87164 0.76091 0.17379 0.0
C412 C 0.82897 0.78627 0.18496 0.0
C413 C 0.90085 0.74402 0.21196 0.0
C414 C 0.81122 0.78671 0.23363 0.0
C415 C 0.83819 0.76672 0.2716 0.0
H416 H 0.544 0.78456 0.49678 0.0
H417 H 0.54438 0.6496 0.57817 0.0
H418 H 0.50984 0.60285 0.50695 0.0
H419 H 0.46897 0.60223 0.42566 0.0
H420 H 0.46405 0.73787 0.34688 0.0
H421 H 0.51221 0.78219 0.41199 0.0
C422 C 0.53693 0.74485 0.49882 0.0
C423 C 0.54597 0.72082 0.54308 0.0
C424 C 0.51661 0.71821 0.45786 0.0
C425 C 0.53738 0.66919 0.54475 0.0
C426 C 0.51756 0.64235 0.504 0.0
C427 C 0.48039 0.641 0.42198 0.0
C428 C 0.4641 0.66668 0.38126 0.0
C429 C 0.50583 0.66665 0.46081 0.0
C430 C 0.4773 0.71732 0.37751 0.0
C431 C 0.50406 0.74276 0.4151 0.0
H432 H 0.61972 0.37075 0.79169 0.0
H433 H 0.537 0.23567 0.74921 0.0
H434 H 0.57908 0.23398 0.67013 0.0
H435 H 0.65104 0.25904 0.62202 0.0
H436 H 0.75468 0.37055 0.68134 0.0
H437 H 0.69005 0.40081 0.73595 0.0
C438 C 0.61135 0.34105 0.76505 0.0
C439 C 0.57679 0.30238 0.77731 0.0
C440 C 0.63862 0.33806 0.72054 0.0
C441 C 0.56485 0.26487 0.74176 0.0
C442 C 0.58833 0.26426 0.69597 0.0
C443 C 0.65885 0.29115 0.64613 0.0
C444 C 0.7082 0.31021 0.65017 0.0
C445 C 0.62684 0.29924 0.68597 0.0
C446 C 0.71758 0.35334 0.67914 0.0
C447 C 0.68135 0.36893 0.71237 0.0
H448 H 0.03199 0.5659 0.50386 0.0
H449 H 0.18298 0.59969 0.45992 0.0
H450 H 0.2126 0.5451 0.52188 0.0
H451 H 0.19595 0.50165 0.59821 0.0
H452 H 0.04627 0.47422 0.64774 0.0
H453 H 0.01507 0.50644 0.57043 0.0
C454 C 0.07118 0.56009 0.50709 0.0
C455 C 0.10576 0.58868 0.47961 0.0
C456 C 0.08785 0.52794 0.54262 0.0
C457 C 0.15627 0.58036 0.48325 0.0
C458 C 0.17307 0.5482 0.51776 0.0
C459 C 0.15647 0.50029 0.5907 0.0
C460 C 0.12317 0.4873 0.62859 0.0
C461 C 0.13934 0.52356 0.54911 0.0
C462 C 0.07221 0.4848 0.61889 0.0
C463 C 0.05454 0.50448 0.57549 0.0
H464 H 0.63607 0.78391 0.76424 0.0
H465 H 0.68174 0.93703 0.74325 0.0
H466 H 0.72245 0.94085 0.82381 0.0
H467 H 0.73421 0.90458 0.90408 0.0
H468 H 0.67351 0.75766 0.93182 0.0
H469 H 0.65082 0.74641 0.84444 0.0
C470 C 0.65541 0.81788 0.77717 0.0
C471 C 0.65579 0.86028 0.74821 0.0
C472 C 0.6767 0.82039 0.82447 0.0
C473 C 0.6806 0.90418 0.76533 0.0
C474 C 0.7041 0.90624 0.81116 0.0
C475 C 0.71831 0.86924 0.89022 0.0
C476 C 0.70657 0.83153 0.92367 0.0
C477 C 0.70135 0.86497 0.84146 0.0
C478 C 0.6841 0.78655 0.90627 0.0
C479 C 0.6703 0.7806 0.85659 0.0
H480 H 0.47025 0.49234 0.9611 0.0
H481 H 0.37368 0.3602 0.96936 0.0
H482 H 0.33576 0.39283 0.04397 0.0
H483 H 0.33768 0.45165 0.1123 0.0
H484 H 0.44316 0.57659 0.11334 0.0
H485 H 0.46395 0.55798 0.02626 0.0
C486 C 0.43984 0.47132 0.97833 0.0
C487 C 0.42519 0.42356 0.95967 0.0
C488 C 0.41851 0.4898 0.02219 0.0
C489 C 0.38603 0.39674 0.9829 0.0
C490 C 0.36389 0.4155 0.02535 0.0
C491 C 0.36475 0.47543 0.09318 0.0
C492 C 0.38996 0.51454 0.11955 0.0
C493 C 0.38096 0.46103 0.04614 0.0
C494 C 0.42373 0.54592 0.09406 0.0
C495 C 0.43671 0.53438 0.04495 0.0
H496 H 0.86184 0.14637 0.26214 0.0
H497 H 0.9333 0.29122 0.28445 0.0
H498 H 0.88481 0.30339 0.36007 0.0
H499 H 0.84015 0.26295 0.42905 0.0
H500 H 0.77436 0.11558 0.40849 0.0
H501 H 0.80027 0.1147 0.32203 0.0
C502 C 0.86528 0.18125 0.28277 0.0
C503 C 0.9012 0.21765 0.26872 0.0
C504 C 0.83856 0.1871 0.32668 0.0
C505 C 0.9057 0.26284 0.29502 0.0
C506 C 0.87836 0.26951 0.33839 0.0
C507 C 0.82894 0.23198 0.40466 0.0
C508 C 0.80612 0.18911 0.42483 0.0
C509 C 0.84698 0.23065 0.35602 0.0
C510 C 0.79185 0.14892 0.39343 0.0
C511 C 0.80782 0.14797 0.34439 0.0
H512 H 0.08497 0.15764 0.42746 0.0
H513 H 0.04565 0.00225 0.4071 0.0
H514 H 0.98108 0.00766 0.47044 0.0
H515 H 0.92366 0.06155 0.51497 0.0
H516 H 0.96457 0.21645 0.53602 0.0
H517 H 0.04128 0.20631 0.4901 0.0
C518 C 0.06331 0.12466 0.43814 0.0
C519 C 0.06937 0.07979 0.4122 0.0
C520 C 0.02609 0.12822 0.47423 0.0
C521 C 0.0416 0.03717 0.4266 0.0
C522 C 0.00437 0.0404 0.46251 0.0
C523 C 0.95089 0.09233 0.51211 0.0
C524 C 0.93837 0.13978 0.52851 0.0
C525 C 0.99455 0.08633 0.48455 0.0
C526 C 0.97355 0.17958 0.52401 0.0
C527 C 0.01693 0.17398 0.49674 0.0
H528 H 0.23674 0.77932 0.67972 0.0
H529 H 0.07949 0.79734 0.68358 0.0
H530 H 0.06609 0.71775 0.72381 0.0
H531 H 0.09821 0.63788 0.74621 0.0
H532 H 0.25396 0.61624 0.7316 0.0
H533 H 0.26834 0.70099 0.70415 0.0
C534 C 0.19957 0.76594 0.68946 0.0
C535 C 0.15909 0.79379 0.67806 0.0
C536 C 0.19201 0.71931 0.71064 0.0
C537 C 0.11119 0.7762 0.69151 0.0
C538 C 0.10355 0.73079 0.71463 0.0
C539 C 0.13571 0.65298 0.74018 0.0
C540 C 0.1753 0.62161 0.74265 0.0
C541 C 0.14361 0.70146 0.72328 0.0
C542 C 0.22341 0.64042 0.73207 0.0
C543 C 0.23161 0.68877 0.71601 0.0
H544 H 0.54774 0.06361 0.92322 0.0
H545 H 0.43647 0.9438 0.91243 0.0
H546 H 0.48096 0.89762 0.97271 0.0
H547 H 0.55592 0.88738 0.02048 0.0
H548 H 0.67034 0.00429 0.02686 0.0
H549 H 0.6175 0.05828 0.98207 0.0
C550 C 0.53232 0.02828 0.93587 0.0
C551 C 0.48898 0.00686 0.91374 0.0
C552 C 0.55759 0.00244 0.9716 0.0
C553 C 0.46962 0.96083 0.92934 0.0
C554 C 0.49481 0.93469 0.96414 0.0
C555 C 0.56822 0.92553 0.0141 0.0
C556 C 0.61706 0.94178 0.02658 0.0
C557 C 0.53924 0.95467 0.98484 0.0
C558 C 0.6328 0.99111 0.01801 0.0
C559 C 0.60304 0.02148 0.99114 0.0
H560 H 0.42735 0.24021 0.19103 0.0
H561 H 0.26801 0.23797 0.20218 0.0
H562 H 0.2737 0.31933 0.24129 0.0
H563 H 0.32151 0.39537 0.26268 0.0
H564 H 0.48006 0.40113 0.24809 0.0
H565 H 0.47716 0.31305 0.22505 0.0
C566 C 0.39391 0.2571 0.2033 0.0
C567 C 0.34731 0.23348 0.19246 0.0
C568 C 0.39712 0.30392 0.2274 0.0
C569 C 0.30437 0.25542 0.20918 0.0
C570 C 0.3074 0.3018 0.2325 0.0
C571 C 0.35556 0.37658 0.2572 0.0
C572 C 0.40088 0.40445 0.25752 0.0
C573 C 0.35327 0.32696 0.24072 0.0
C574 C 0.44479 0.3801 0.24904 0.0
C575 C 0.44298 0.33 0.23464 0.0
H576 H 0.06724 0.97656 0.16077 0.0
H577 H 0.00345 0.04539 0.28905 0.0
H578 H 0.92006 0.02865 0.25493 0.0
H579 H 0.8658 0.98303 0.19456 0.0
H580 H 0.92974 0.9108 0.06842 0.0
H581 H 0.01274 0.94087 0.09474 0.0
C582 C 0.03494 0.98866 0.18053 0.0
C583 C 0.04074 0.01208 0.22702 0.0
C584 C 0.98741 0.9781 0.16105 0.0
C585 C 0.99925 0.02746 0.25299 0.0
C586 C 0.95178 0.01773 0.2336 0.0
C587 C 0.89781 0.97628 0.17165 0.0
C588 C 0.89194 0.94578 0.12919 0.0
C589 C 0.94537 0.99188 0.18829 0.0
C590 C 0.93357 0.93536 0.10054 0.0
C591 C 0.98102 0.95149 0.11626 0.0
H592 H 0.22071 0.80378 0.4485 0.0
H593 H 0.23455 0.7025 0.56752 0.0
H594 H 0.25621 0.63778 0.50928 0.0
H595 H 0.28583 0.61449 0.42729 0.0
H596 H 0.28006 0.71578 0.3089 0.0
H597 H 0.23747 0.77454 0.36249 0.0
C598 C 0.22661 0.76699 0.46132 0.0
C599 C 0.22701 0.75836 0.51243 0.0
C600 C 0.23982 0.7295 0.42731 0.0
C601 C 0.23494 0.71048 0.52849 0.0
C602 C 0.24727 0.67326 0.49515 0.0
C603 C 0.27264 0.64823 0.41259 0.0
C604 C 0.28543 0.66098 0.36407 0.0
C605 C 0.25164 0.6828 0.44475 0.0
C606 C 0.26955 0.70532 0.34582 0.0
C607 C 0.24635 0.73918 0.37691 0.0
H608 H 0.52609 0.09367 0.71907 0.0
H609 H 0.54831 0.16888 0.86005 0.0
H610 H 0.63567 0.18666 0.84007 0.0
H611 H 0.70187 0.1903 0.778 0.0
H612 H 0.68029 0.11409 0.63755 0.0
H613 H 0.59731 0.08514 0.66279 0.0
C614 C 0.55018 0.1135 0.74565 0.0
C615 C 0.53022 0.13208 0.79004 0.0
C616 C 0.60068 0.1227 0.73429 0.0
C617 C 0.56224 0.15633 0.82465 0.0
C618 C 0.61235 0.16589 0.81352 0.0
C619 C 0.68009 0.16548 0.75374 0.0
C620 C 0.69798 0.15464 0.70592 0.0
C621 C 0.63159 0.15051 0.76783 0.0
C622 C 0.66834 0.12289 0.67477 0.0
C623 C 0.62024 0.10703 0.68884 0.0
H624 H 0.25447 0.32408 0.06534 0.0
H625 H 0.31628 0.21719 0.9655 0.0
H626 H 0.30421 0.27147 0.89647 0.0
H627 H 0.25731 0.33899 0.86266 0.0
H628 H 0.19647 0.44539 0.96275 0.0
H629 H 0.22719 0.40183 0.03323 0.0
C630 C 0.26558 0.31261 0.02849 0.0
C631 C 0.28454 0.26576 0.02047 0.0
C632 C 0.25774 0.34344 0.9887 0.0
C633 C 0.30047 0.25249 0.97273 0.0
C634 C 0.29316 0.28328 0.93302 0.0
C635 C 0.25307 0.35386 0.89979 0.0
C636 C 0.22439 0.39495 0.90769 0.0
C637 C 0.26938 0.32754 0.94021 0.0
C638 C 0.21885 0.41401 0.95593 0.0
C639 C 0.23538 0.38843 0.99624 0.0
H640 H 0.3496 0.99808 0.01414 0.0
H641 H 0.44586 0.03343 0.13798 0.0
H642 H 0.47979 0.95178 0.13071 0.0
H643 H 0.4706 0.86683 0.0998 0.0
H644 H 0.36034 0.82533 0.98994 0.0
H645 H 0.34444 0.91268 0.97901 0.0
C646 C 0.37885 0.98802 0.03861 0.0
C647 C 0.39591 0.02145 0.07614 0.0
C648 C 0.39537 0.93976 0.03651 0.0
C649 C 0.43267 0.00808 0.10872 0.0
C650 C 0.45191 0.96152 0.10457 0.0
C651 C 0.44491 0.87727 0.07169 0.0
C652 C 0.41736 0.84008 0.04497 0.0
C653 C 0.4322 0.92653 0.06988 0.0
C654 C 0.3828 0.85354 0.0099 0.0
C655 C 0.37287 0.90334 0.00471 0.0
H656 H 0.96216 0.47807 0.99567 0.0
H657 H 0.818 0.52959 0.03147 0.0
H658 H 0.84595 0.61328 0.00896 0.0
H659 H 0.90595 0.66795 0.96667 0.0
H660 H 0.04659 0.6155 0.92074 0.0
H661 H 0.02625 0.53633 0.96069 0.0
C662 C 0.93719 0.5078 -0.00069 0.0
C663 C 0.88779 0.49752 0.01449 0.0
C664 C 0.95288 0.55551 0.98414 0.0
C665 C 0.8559 0.53644 0.0192 0.0
C666 C 0.87186 0.58426 0.00635 0.0
C667 C 0.93259 0.63948 0.96641 0.0
C668 C 0.97741 0.64707 0.94045 0.0
C669 C 0.91947 0.59366 0.98689 0.0
C670 C 0.01192 0.61038 0.9406 0.0
C671 C 0.99996 0.565 0.96289 0.0
H672 H 0.78756 0.68191 0.21198 0.0
H673 H 0.7338 0.56251 0.30315 0.0
H674 H 0.6488 0.5876 0.29406 0.0
H675 H 0.59057 0.63103 0.24315 0.0
H676 H 0.64462 0.75295 0.15527 0.0
H677 H 0.72908 0.74082 0.18152 0.0
C678 C 0.75737 0.6631 0.23172 0.0
C679 C 0.76616 0.62047 0.25774 0.0
C680 C 0.70894 0.67808 0.22669 0.0
C681 C 0.7273 0.59548 0.28287 0.0
C682 C 0.67884 0.6096 0.27739 0.0
C683 C 0.62065 0.65677 0.2323 0.0
C684 C 0.61181 0.69275 0.19747 0.0
C685 C 0.66913 0.64916 0.2471 0.0
C686 C 0.65073 0.72557 0.18277 0.0
C687 C 0.69915 0.71811 0.19715 0.0
H688 H 0.58701 0.46755 0.52529 0.0
H689 H 0.74639 0.48116 0.53417 0.0
H690 H 0.74954 0.39167 0.53883 0.0
H691 H 0.70897 0.31088 0.5198 0.0
H692 H 0.55135 0.29819 0.49536 0.0
H693 H 0.5448 0.38416 0.52141 0.0
C694 C 0.6222 0.45079 0.52929 0.0
C695 C 0.66647 0.48046 0.52779 0.0
C696 C 0.62391 0.39902 0.52958 0.0
C697 C 0.71194 0.45868 0.53366 0.0
C698 C 0.71376 0.40758 0.53668 0.0
C699 C 0.67298 0.32661 0.52184 0.0
C700 C 0.63122 0.29889 0.50349 0.0
C701 C 0.67024 0.37736 0.53166 0.0
C702 C 0.58446 0.31883 0.50829 0.0
C703 C 0.58078 0.36853 0.52214 0.0
H704 H 0.22648 0.8674 0.28982 0.0
H705 H 0.30719 0.99702 0.23654 0.0
H706 H 0.37254 0.94687 0.20472 0.0
H707 H 0.3993 0.86583 0.17983 0.0
H708 H 0.31241 0.73447 0.21901 0.0
H709 H 0.25915 0.78528 0.27134 0.0
C710 C 0.25901 0.88445 0.27222 0.0
C711 C 0.26223 0.93583 0.26541 0.0
C712 C 0.29546 0.8548 0.25158 0.0
C713 C 0.30409 0.95767 0.24213 0.0
C714 C 0.34141 0.92893 0.22386 0.0
C715 C 0.36929 0.84808 0.20086 0.0
C716 C 0.35948 0.79667 0.1955 0.0
C717 C 0.33644 0.87738 0.22666 0.0
C718 C 0.32075 0.77395 0.22274 0.0
C719 C 0.28982 0.80296 0.25177 0.0
H720 H 0.06319 0.99041 0.64024 0.0
H721 H 0.15923 0.03781 0.52137 0.0
H722 H 0.13165 0.12217 0.53108 0.0
H723 H 0.09148 0.18411 0.58437 0.0
H724 H 0.99006 0.1345 0.69803 0.0
H725 H 0.00594 0.04847 0.67756 0.0
C726 C 0.07623 0.01871 0.61495 0.0
C727 C 0.11303 0.00818 0.58017 0.0
C728 C 0.05897 0.06651 0.6197 0.0
C729 C 0.1306 0.04519 0.54818 0.0
C730 C 0.11504 0.09342 0.55395 0.0
C731 C 0.07093 0.15426 0.60273 0.0
C732 C 0.03945 0.16539 0.64243 0.0
C733 C 0.08065 0.10486 0.59093 0.0
C734 C 0.01374 0.12663 0.66679 0.0
C735 C 0.02352 0.07751 0.65566 0.0
H736 H 0.83106 0.34238 0.23775 0.0
H737 H 0.75724 0.4728 0.28543 0.0
H738 H 0.69336 0.4219 0.32533 0.0
H739 H 0.66347 0.34235 0.35562 0.0
H740 H 0.73424 0.21019 0.31156 0.0
H741 H 0.79215 0.25927 0.25879 0.0
C742 C 0.80067 0.35956 0.25632 0.0
C743 C 0.80005 0.41171 0.25951 0.0
C744 C 0.76331 0.32976 0.27979 0.0
C745 C 0.75977 0.43307 0.28321 0.0
C746 C 0.72282 0.40395 0.30598 0.0
C747 C 0.69141 0.32413 0.33415 0.0
C748 C 0.69619 0.27313 0.33903 0.0
C749 C 0.72513 0.35258 0.30589 0.0
C750 C 0.73101 0.24967 0.30952 0.0
C751 C 0.76424 0.27782 0.27978 0.0
H752 H 0.75382 0.65562 0.72518 0.0
H753 H 0.69644 0.66192 0.87376 0.0
H754 H 0.76877 0.71336 0.90054 0.0
H755 H 0.85292 0.74461 0.88531 0.0
H756 H 0.91921 0.72381 0.74229 0.0
H757 H 0.83848 0.69345 0.70846 0.0
C758 C 0.75714 0.66907 0.76313 0.0
C759 C 0.72022 0.65511 0.79766 0.0
C760 C 0.80021 0.69684 0.77885 0.0
C761 C 0.7248 0.67197 0.84685 0.0
C762 C 0.76591 0.70161 0.86206 0.0
C763 C 0.84908 0.73527 0.84623 0.0
C764 C 0.89159 0.73632 0.81628 0.0
C765 C 0.8044 0.71296 0.8288 0.0
C766 C 0.88677 0.7237 0.76588 0.0
C767 C 0.84087 0.70528 0.74693 0.0
H768 H 0.50948 0.91929 0.5113 0.0
H769 H 0.66609 0.95057 0.53325 0.0
H770 H 0.67256 0.98874 0.45232 0.0
H771 H 0.63696 0.99686 0.3703 0.0
H772 H 0.48351 0.95368 0.34457 0.0
H773 H 0.47116 0.93981 0.4329 0.0
C774 C 0.54475 0.93564 0.49881 0.0
C775 C 0.58733 0.93214 0.52777 0.0
C776 C 0.54839 0.95573 0.45167 0.0
C777 C 0.63297 0.9527 0.51119 0.0
C778 C 0.63658 0.97462 0.46511 0.0
C779 C 0.60029 0.98702 0.38471 0.0
C780 C 0.56118 0.97607 0.35156 0.0
C781 C 0.59494 0.97449 0.43433 0.0
C782 C 0.51389 0.9626 0.36981 0.0
C783 C 0.50728 0.9534 0.41999 0.0
H784 H 0.36704 0.28067 0.76024 0.0
H785 H 0.50196 0.32136 0.68398 0.0
H786 H 0.46615 0.29053 0.60605 0.0
H787 H 0.39016 0.27728 0.55905 0.0
H788 H 0.25111 0.26485 0.63511 0.0
H789 H 0.29355 0.24869 0.71188 0.0
C790 C 0.38874 0.28027 0.7269 0.0
C791 C 0.43665 0.30261 0.72787 0.0
C792 C 0.3666 0.26556 0.68177 0.0
C793 C 0.46475 0.30437 0.68412 0.0
C794 C 0.4444 0.28638 0.63955 0.0
C795 C 0.36925 0.26836 0.59228 0.0
C796 C 0.31863 0.27758 0.59333 0.0
C797 C 0.39437 0.26993 0.63754 0.0
C798 C 0.29087 0.26183 0.63445 0.0
C799 C 0.31528 0.25478 0.67893 0.0
H800 H 0.0025 0.04764 0.05436 0.0
H801 H 0.86237 0.08719 0.115 0.0
H802 H 0.81877 0.04377 0.04615 0.0
H803 H 0.82271 0.01368 0.96056 0.0
H804 H 0.96364 0.9818 0.89631 0.0
H805 H 0.00416 0.00084 0.97538 0.0
C806 C 0.96234 0.0452 0.0531 0.0
C807 C 0.93541 0.07011 0.08917 0.0
C808 C 0.93771 0.0221 0.01254 0.0
C809 C 0.88351 0.06786 0.08734 0.0
C810 C 0.85868 0.04345 0.04802 0.0
C811 C 0.8621 0.00915 0.96457 0.0
C812 C 0.89047 0.99773 0.92274 0.0
C813 C 0.88562 0.02301 0.00912 0.0
C814 C 0.94117 0.99096 0.92806 0.0
C815 C 0.96454 0.00263 0.97303 0.0
H816 H 0.12916 0.79942 0.29636 0.0
H817 H 0.17815 0.65113 0.28069 0.0
H818 H 0.21481 0.6707 0.20055 0.0
H819 H 0.21977 0.72438 0.13026 0.0
H820 H 0.15552 0.86605 0.13816 0.0
H821 H 0.13993 0.85626 0.22685 0.0
C822 C 0.14816 0.77164 0.27545 0.0
C823 C 0.15046 0.72374 0.29364 0.0
C824 C 0.16643 0.78227 0.22819 0.0
C825 C 0.17537 0.68799 0.26668 0.0
C826 C 0.19639 0.69918 0.22109 0.0
C827 C 0.20435 0.754 0.15202 0.0
C828 C 0.18902 0.79591 0.12839 0.0
C829 C 0.19052 0.74553 0.20082 0.0
C830 C 0.16817 0.83384 0.1562 0.0
C831 C 0.15813 0.82757 0.2064 0.0
H832 H 0.51541 0.25615 0.03584 0.0
H833 H 0.44446 0.15107 0.93318 0.0
H834 H 0.46213 0.08327 0.98732 0.0
H835 H 0.51551 0.05351 0.05432 0.0
H836 H 0.57838 0.15958 0.16075 0.0
H837 H 0.54597 0.2271 0.11511 0.0
C838 C 0.50315 0.21846 0.02572 0.0
C839 C 0.48045 0.20842 0.97971 0.0
C840 C 0.5129 0.17967 0.05728 0.0
C841 C 0.46327 0.15964 0.96777 0.0
C842 C 0.47373 0.12075 0.99855 0.0
C843 C 0.51998 0.09116 0.06864 0.0
C844 C 0.54984 0.10164 0.11042 0.0
C845 C 0.501 0.13009 0.0421 0.0
C846 C 0.55544 0.15069 0.12866 0.0
C847 C 0.53756 0.18941 0.10215 0.0
H848 H 0.08282 0.20296 0.26805 0.0
H849 H 0.12754 0.30749 0.15661 0.0
H850 H 0.18983 0.34626 0.21178 0.0
H851 H 0.21997 0.36028 0.29546 0.0
H852 H 0.17232 0.26188 0.41062 0.0
H853 H 0.1244 0.20962 0.35044 0.0
C854 C 0.10742 0.23318 0.25565 0.0
C855 C 0.10055 0.25284 0.20872 0.0
C856 C 0.14251 0.25638 0.28835 0.0
C857 C 0.13195 0.29232 0.19289 0.0
C858 C 0.1676 0.31443 0.22435 0.0
C859 C 0.20076 0.32613 0.30685 0.0
C860 C 0.19956 0.31483 0.35703 0.0
C861 C 0.17165 0.29815 0.27272 0.0
C862 C 0.17414 0.27101 0.37192 0.0
C863 C 0.14611 0.24162 0.33761 0.0
H864 H 0.04859 0.87305 0.50919 0.0
H865 H 0.02564 0.72061 0.55102 0.0
H866 H 0.98742 0.74691 0.62835 0.0
H867 H 0.94824 0.81193 0.6768 0.0
H868 H 0.9651 0.96314 0.63118 0.0
H869 H 0.01851 0.93865 0.5628 0.0
C870 C 0.03589 0.84547 0.53541 0.0
C871 C 0.03891 0.7948 0.52362 0.0
C872 C 0.0128 0.86073 0.57919 0.0
C873 C 0.02287 0.75979 0.55857 0.0
C874 C 1.00107 0.77479 0.60288 0.0
C875 C 0.96527 0.83966 0.65289 0.0
C876 C 0.95295 0.88919 0.65876 0.0
C877 C 0.99415 0.82499 0.61262 0.0
C878 C 0.97469 0.92494 0.62764 0.0
C879 C 0.00467 0.91082 0.58823 0.0
H880 H 0.42293 0.75713 0.71209 0.0
H881 H 0.4947 0.87971 0.79275 0.0
H882 H 0.42325 0.88291 0.84869 0.0
H883 H 0.34918 0.83894 0.88393 0.0
H884 H 0.28083 0.71368 0.8049 0.0
H885 H 0.34203 0.72358 0.7387 0.0
C886 C 0.42219 0.78518 0.74133 0.0
C887 C 0.46369 0.81761 0.74917 0.0
C888 C 0.38143 0.78642 0.77339 0.0
C889 C 0.46289 0.85415 0.78667 0.0
C890 C 0.42215 0.85598 0.81852 0.0
C891 C 0.34564 0.81615 0.85048 0.0
C892 C 0.31023 0.77607 0.84862 0.0
C893 C 0.38207 0.82095 0.81345 0.0
C894 C 0.30678 0.74563 0.806 0.0
C895 C 0.34226 0.75067 0.7687 0.0
H896 H 0.45789 0.54803 0.88022 0.0
H897 H 0.55615 0.67779 0.89931 0.0
H898 H 0.49846 0.71341 0.95818 0.0
H899 H 0.41254 0.71647 0.98436 0.0
H900 H 0.30917 0.59335 0.95372 0.0
H901 H 0.37631 0.54464 0.92212 0.0
C902 C 0.46692 0.58345 0.89852 0.0
C903 C 0.51038 0.61087 0.88551 0.0
C904 C 0.4325 0.60455 0.93042 0.0
C905 C 0.52234 0.65667 0.90878 0.0
C906 C 0.4895 0.67686 0.94239 0.0
C907 C 0.40555 0.67781 0.97397 0.0
C908 C 0.35632 0.65867 0.97041 0.0
C909 C 0.44335 0.65235 0.95119 0.0
C910 C 0.34692 0.60884 0.95644 0.0
C911 C 0.38516 0.58154 0.93707 0.0
H912 H 0.78937 0.25655 0.12863 0.0
H913 H 0.77511 0.2214 0.97326 0.0
H914 H 0.7603 0.13408 0.99047 0.0
H915 H 0.72815 0.07391 0.04946 0.0
H916 H 0.73057 0.11019 0.2049 0.0
H917 H 0.7754 0.18914 0.18883 0.0
C918 C 0.78482 0.22935 0.0987 0.0
C919 C 0.78269 0.2452 0.0497 0.0
C920 C 0.77364 0.17915 0.1092 0.0
C921 C 0.77643 0.20994 0.01113 0.0
C922 C 0.76781 0.15998 0.02104 0.0
C923 C 0.74103 0.09793 0.07994 0.0
C924 C 0.72526 0.08676 0.12806 0.0
C925 C 0.76304 0.14477 0.06994 0.0
C926 C 0.74217 0.118 0.16743 0.0
C927 C 0.76679 0.1638 0.15807 0.0
H928 H 0.07634 0.55166 0.27989 0.0
H929 H 0.95759 0.4882 0.36862 0.0
H930 H 0.01668 0.46877 0.43251 0.0
H931 H 0.10298 0.45232 0.45202 0.0
H932 H 0.22174 0.51717 0.36461 0.0
H933 H 0.16205 0.55597 0.31259 0.0
C934 C 0.06349 0.53491 0.31393 0.0
C935 C 0.01314 0.52016 0.31931 0.0
C936 C 0.09766 0.52423 0.35065 0.0
C937 C 0.99639 0.49933 0.3637 0.0
C938 C 0.03015 0.48803 0.40007 0.0
C939 C 0.11573 0.4773 0.42334 0.0
C940 C 0.16647 0.48183 0.4119 0.0
C941 C 0.08107 0.49788 0.3926 0.0
C942 C 0.18281 0.51371 0.37434 0.0
C943 C 0.14859 0.53497 0.34393 0.0
H944 H 0.7055 0.70206 0.61961 0.0
H945 H 0.72411 0.78394 0.48586 0.0
H946 H 0.73946 0.86076 0.53416 0.0
H947 H 0.7715 0.89769 0.61166 0.0
H948 H 0.77021 0.8111 0.74274 0.0
H949 H 0.72264 0.74369 0.6996 0.0
C950 C 0.71104 0.73714 0.60132 0.0
C951 C 0.71446 0.73794 0.54968 0.0
C952 C 0.72387 0.78009 0.62925 0.0
C953 C 0.72196 0.78301 0.5258 0.0
C954 C 0.731 0.82667 0.55338 0.0
C955 C 0.7585 0.86487 0.63114 0.0
C956 C 0.77387 0.85884 0.67985 0.0
C957 C 0.73557 0.8249 0.60485 0.0
C958 C 0.75823 0.81623 0.70516 0.0
C959 C 0.73195 0.77746 0.68024 0.0
H960 H 0.53607 0.512 0.66133 0.0
H961 H 0.46719 0.46849 0.79855 0.0
H962 H 0.38846 0.45038 0.75626 0.0
H963 H 0.34161 0.43827 0.67955 0.0
H964 H 0.41191 0.47097 0.54028 0.0
H965 H 0.48627 0.50479 0.58382 0.0
C966 C 0.50361 0.49902 0.68189 0.0
C967 C 0.5077 0.4907 0.73295 0.0
C968 C 0.45837 0.48758 0.65691 0.0
C969 C 0.46534 0.47407 0.75916 0.0
C970 C 0.42016 0.46415 0.73503 0.0
C971 C 0.37273 0.45412 0.65873 0.0
C972 C 0.37112 0.45184 0.60661 0.0
C973 C 0.41652 0.4697 0.68381 0.0
C974 C 0.41173 0.47267 0.58028 0.0
C975 C 0.45472 0.49105 0.60525 0.0
H976 H 0.76625 0.26323 0.89688 0.0
H977 H 0.92075 0.30292 0.87413 0.0
H978 H 0.92856 0.23018 0.82007 0.0
H979 H 0.89645 0.14617 0.79781 0.0
H980 H 0.74627 0.10009 0.83459 0.0
H981 H 0.73134 0.18355 0.86508 0.0
C982 C 0.80109 0.25673 0.87855 0.0
C983 C 0.84316 0.28751 0.88994 0.0
C984 C 0.80595 0.21298 0.85061 0.0
C985 C 0.88823 0.27897 0.86636 0.0
C986 C 0.89261 0.2374 0.83556 0.0
C987 C 0.85968 0.15546 0.80967 0.0
C988 C 0.82221 0.11768 0.81331 0.0
C989 C 0.85244 0.20267 0.82986 0.0
C990 C 0.77519 0.12909 0.83056 0.0
C991 C 0.76697 0.1766 0.84869 0.0
H992 H 0.92311 0.65541 0.11987 0.0
H993 H 0.01276 0.53109 0.13841 0.0
H994 H 0.07497 0.56707 0.08137 0.0
H995 H 0.1102 0.64148 0.03995 0.0
H996 H 0.02183 0.76768 0.02626 0.0
H997 H 0.95221 0.72332 0.06658 0.0
C998 C 0.95619 0.63616 0.11094 0.0
C999 C 0.96452 0.59173 0.13423 0.0
C1000 C 0.99189 0.65758 0.07908 0.0
C1001 C 0.00619 0.56579 0.12125 0.0
C1002 C 0.04175 0.58649 0.0889 0.0
C1003 C 0.07491 0.65831 0.04383 0.0
C1004 C 0.07093 0.70766 0.03002 0.0
C1005 C 0.03595 0.6334 0.06932 0.0
C1006 C 0.02543 0.72958 0.03616 0.0
C1007 C 0.98599 0.70452 0.05998 0.0
H1008 H 0.72282 0.7296 0.37361 0.0
H1009 H 0.57553 0.66064 0.36506 0.0
H1010 H 0.55218 0.72127 0.30525 0.0
H1011 H 0.56915 0.80126 0.26649 0.0
H1012 H 0.71404 0.87445 0.27912 0.0
H1013 H 0.74259 0.80539 0.32608 0.0
C1014 C 0.68617 0.7269 0.35733 0.0
C1015 C 0.65096 0.69044 0.37366 0.0
C1016 C 0.6723 0.76318 0.32407 0.0
C1017 C 0.60317 0.68838 0.35326 0.0
C1018 C 0.5896 0.72342 0.31956 0.0
C1019 C 0.60773 0.80081 0.27725 0.0
C1020 C 0.63971 0.84252 0.26822 0.0
C1021 C 0.62334 0.76183 0.30582 0.0
C1022 C 0.6891 0.84221 0.28406 0.0
C1023 C 0.70522 0.80297 0.31168 0.0
H1024 H 0.87236 0.59464 0.57781 0.0
H1025 H 0.83117 0.49377 0.45778 0.0
H1026 H 0.87943 0.42996 0.49438 0.0
H1027 H 0.92024 0.39873 0.56919 0.0
H1028 H 0.95942 0.50127 0.68871 0.0
H1029 H 0.92623 0.56859 0.64352 0.0
C1030 C 0.87538 0.55921 0.55882 0.0
C1031 C 0.84817 0.54884 0.51532 0.0
C1032 C 0.90253 0.52271 0.58047 0.0
C1033 C 0.85224 0.50282 0.49105 0.0
C1034 C 0.87937 0.46611 0.51237 0.0
C1035 C 0.92335 0.43622 0.58422 0.0
C1036 C 0.94251 0.44505 0.63218 0.0
C1037 C 0.90295 0.47493 0.55825 0.0
C1038 C 0.94519 0.49367 0.65178 0.0
C1039 C 0.92577 0.53212 0.62614 0.0
H1040 H 0.39422 0.95559 0.58985 0.0
H1041 H 0.26405 0.01494 0.52699 0.0
H1042 H 0.31596 0.07267 0.47978 0.0
H1043 H 0.39712 0.10064 0.44969 0.0
H1044 H 0.52875 0.04313 0.50977 0.0
H1045 H 0.47746 0.99216 0.56648 0.0
C1046 C 0.37717 0.98154 0.56632 0.0
C1047 C 0.32504 0.97991 0.56138 0.0
C1048 C 0.40746 0.0149 0.53862 0.0
C1049 C 0.30385 0.01445 0.5311 0.0
C1050 C 0.33355 0.04769 0.50399 0.0
C1051 C 0.4148 0.07667 0.47492 0.0
C1052 C 0.4666 0.07347 0.47353 0.0
C1053 C 0.38522 0.04712 0.50631 0.0
C1054 C 0.48888 0.04484 0.50879 0.0
C1055 C 0.45951 0.01559 0.54102 0.0
H1056 H 0.31212 0.24264 0.80337 0.0
H1057 H 0.24762 0.1095 0.86494 0.0
H1058 H 0.16456 0.13669 0.84884 0.0
H1059 H 0.11175 0.19108 0.80307 0.0
H1060 H 0.17625 0.32385 0.73916 0.0
H1061 H 0.25752 0.30583 0.77185 0.0
C1062 C 0.27987 0.22 0.81312 0.0
C1063 C 0.2861 0.17373 0.83379 0.0
C1064 C 0.23225 0.2361 0.80359 0.0
C1065 C 0.24392 0.14532 0.84887 0.0
C1066 C 0.19639 0.16075 0.83939 0.0
C1067 C 0.14343 0.21682 0.79769 0.0
C1068 C 0.13833 0.25828 0.768 0.0
C1069 C 0.19024 0.20508 0.81485 0.0
C1070 C 0.17929 0.29169 0.7617 0.0
C1071 C 0.22589 0.28086 0.77972 0.0
H1072 H 0.23203 0.99199 0.07994 0.0
H1073 H 0.12844 0.10138 0.04638 0.0
H1074 H 0.07949 0.04049 0.99654 0.0
H1075 H 0.0718 0.95792 0.95443 0.0
H1076 H 0.17517 0.84961 0.98757 0.0
H1077 H 0.21731 0.9065 0.04751 0.0
C1078 C 0.19804 0.00197 0.06257 0.0
C1079 C 0.184 0.05106 0.0663 0.0
C1080 C 0.16939 0.96631 0.03486 0.0
C1081 C 0.13982 0.0637 0.04406 0.0
C1082 C 0.11172 0.02878 0.0156 0.0
C1083 C 0.10176 0.94628 0.977 0.0
C1084 C 0.11901 0.89888 0.96895 0.0
C1085 C 0.12664 0.98019 0.00987 0.0
C1086 C 0.15991 0.88482 0.99569 0.0
C1087 C 0.18458 0.91789 0.02889 0.0
H1088 H 0.70073 0.37752 0.8166 0.0
H1089 H 0.76345 0.51775 0.87075 0.0
H1090 H 0.84693 0.4883 0.86124 0.0
H1091 H 0.90017 0.43255 0.81502 0.0
H1092 H 0.83598 0.29838 0.74765 0.0
H1093 H 0.75531 0.31504 0.7836 0.0
C1094 C 0.73268 0.40136 0.82643 0.0
C1095 C 0.72632 0.45031 0.84207 0.0
C1096 C 0.78039 0.38532 0.81735 0.0
C1097 C 0.76768 0.48003 0.85793 0.0
C1098 C 0.81539 0.46338 0.85189 0.0
C1099 C 0.86889 0.40596 0.81028 0.0
C1100 C 0.87371 0.36435 0.77896 0.0
C1101 C 0.82212 0.41749 0.82835 0.0
C1102 C 0.83305 0.33037 0.77204 0.0
C1103 C 0.78681 0.34034 0.79196 0.0
H1104 H 0.67505 0.49575 0.96793 0.0
H1105 H 0.64518 0.40666 0.09561 0.0
H1106 H 0.57873 0.45892 0.12075 0.0
H1107 H 0.54039 0.53765 0.11522 0.0
H1108 H 0.57764 0.6341 0.99537 0.0
H1109 H 0.62756 0.5708 0.95678 0.0
C1110 C 0.65316 0.48735 0.0006 0.0
C1111 C 0.66535 0.44786 0.03031 0.0
C1112 C 0.61599 0.51891 0.01598 0.0
C1113 C 0.63699 0.43735 0.07267 0.0
C1114 C 0.59885 0.46709 0.08696 0.0
C1115 C 0.55778 0.54378 0.07953 0.0
C1116 C 0.55492 0.59002 0.05771 0.0
C1117 C 0.58945 0.50903 0.06009 0.0
C1118 C 0.57827 0.59826 0.01205 0.0
C1119 C 0.60779 0.56247 0.99072 0.0
H1120 H 0.32871 0.91301 0.75752 0.0
H1121 H 0.2612 0.05325 0.75523 0.0
H1122 H 0.179 0.01145 0.75915 0.0
H1123 H 0.12943 0.9384 0.78498 0.0
H1124 H 0.19821 0.80057 0.80149 0.0
H1125 H 0.27559 0.83677 0.76699 0.0
C1126 C 0.29585 0.9341 0.75619 0.0
C1127 C 0.30073 0.98602 0.75693 0.0
C1128 C 0.2487 0.90995 0.76123 0.0
C1129 C 0.2581 0.0132 0.75543 0.0
C1130 C 0.21114 0.98933 0.75771 0.0
C1131 C 0.1608 0.91578 0.77871 0.0
C1132 C 0.15845 0.86716 0.79562 0.0
C1133 C 0.20624 0.93809 0.76371 0.0
C1134 C 0.19922 0.83806 0.78832 0.0
C1135 C 0.24378 0.85908 0.76985 0.0
H1136 H 0.30036 0.07979 0.23691 0.0
H1137 H 0.25885 0.20612 0.32325 0.0
H1138 H 0.34646 0.22959 0.3394 0.0
H1139 H 0.43131 0.20188 0.34508 0.0
H1140 H 0.47029 0.06935 0.26696 0.0
H1141 H 0.38802 0.06115 0.22934 0.0
C1142 C 0.31092 0.11264 0.25878 0.0
C1143 C 0.27397 0.14041 0.28022 0.0
C1144 C 0.36089 0.12468 0.26891 0.0
C1145 C 0.28711 0.18405 0.30698 0.0
C1146 C 0.33705 0.19721 0.31632 0.0
C1147 C 0.42243 0.17279 0.31775 0.0
C1148 C 0.45629 0.13616 0.30866 0.0
C1149 C 0.37396 0.1663 0.29961 0.0
C1150 C 0.44468 0.09806 0.27394 0.0
C1151 C 0.39737 0.0929 0.25333 0.0
loop_
_geom_bond_atom_site_label_1
_geom_bond_atom_site_label_2
_geom_bond_distance
_geom_bond_site_symmetry_2
_ccdc_geom_bond_type
Co0 O1 2.216 . S
Co0 O2 2.091 . S
Co0 O4 2.004 1_455 S
Co0 O10 2.021 1_455 S
Co0 O12 2.137 . S
Co0 O13 2.244 . S
O1 Co0 2.216 . S
O1 C8 1.247 . S
O2 Co0 2.091 . S
O2 C8 1.261 . S
C3 O12 1.247 . S
C3 O13 1.272 . S
O4 Co0 2.004 1_655 S
O4 C9 1.259 . S
Co5 O6 2.061 1_455 S
Co5 O11 2.052 1_455 S
Co5 O13 2.135 . S
O6 Co5 2.061 1_655 S
O6 C9 1.235 . S
C7 O10 1.238 . S
C7 O11 1.241 . S
C8 O1 1.247 . S
C8 O2 1.261 . S
C9 O4 1.259 . S
C9 O6 1.235 . S
O10 Co0 2.021 1_655 S
O10 C7 1.238 . S
O11 Co5 2.052 1_655 S
O11 C7 1.241 . S
O12 Co0 2.137 . S
O12 C3 1.247 . S
O13 Co0 2.244 . S
O13 C3 1.272 . S
O13 Co5 2.135 . S
Co14 O15 2.216 . S
Co14 O16 2.091 1_455 S
Co14 O18 2.004 1_455 S
Co14 O24 2.021 1_455 S
Co14 O26 2.137 . S
Co14 O27 2.244 . S
O15 Co14 2.216 . S
O15 C22 1.247 . S
O16 Co14 2.091 1_655 S
O16 C22 1.261 1_655 S
C17 O26 1.247 . S
C17 O27 1.272 . S
O18 Co14 2.004 1_655 S
O18 C23 1.259 . S
Co19 O20 2.061 1_455 S
Co19 O25 2.052 1_455 S
Co19 O27 2.135 . S
O20 Co19 2.061 1_655 S
O20 C23 1.235 . S
C21 O24 1.238 . S
C21 O25 1.241 . S
C22 O15 1.247 . S
C22 O16 1.261 1_455 S
C23 O18 1.259 . S
C23 O20 1.235 . S
O24 Co14 2.021 1_655 S
O24 C21 1.238 . S
O25 Co19 2.052 1_655 S
O25 C21 1.241 . S
O26 Co14 2.137 . S
O26 C17 1.247 . S
O27 Co14 2.244 . S
O27 C17 1.272 . S
O27 Co19 2.135 . S
Co28 O29 2.216 . S
Co28 O30 2.091 . S
Co28 O32 2.004 . S
Co28 O38 2.021 . S
Co28 O40 2.137 . S
Co28 O41 2.244 . S
O29 Co28 2.216 . S
O29 C36 1.247 . S
O30 Co28 2.091 . S
O30 C36 1.261 . S
C31 O40 1.247 . S
C31 O41 1.272 . S
O32 Co28 2.004 . S
O32 C37 1.259 . S
Co33 O34 2.061 . S
Co33 O39 2.052 . S
Co33 O41 2.135 . S
O34 Co33 2.061 . S
O34 C37 1.235 . S
C35 O38 1.238 . S
C35 O39 1.241 . S
C36 O29 1.247 . S
C36 O30 1.261 . S
C37 O32 1.259 . S
C37 O34 1.235 . S
O38 Co28 2.021 . S
O38 C35 1.238 . S
O39 Co33 2.052 . S
O39 C35 1.241 . S
O40 Co28 2.137 . S
O40 C31 1.247 . S
O41 Co28 2.244 . S
O41 C31 1.272 . S
O41 Co33 2.135 . S
Co42 O43 2.216 . S
Co42 O44 2.091 . S
Co42 O46 2.004 . S
Co42 O52 2.021 . S
Co42 O54 2.137 . S
Co42 O55 2.244 . S
O43 Co42 2.216 . S
O43 C50 1.247 . S
O44 Co42 2.091 . S
O44 C50 1.261 . S
C45 O54 1.247 . S
C45 O55 1.272 . S
O46 Co42 2.004 . S
O46 C51 1.259 . S
Co47 O48 2.061 . S
Co47 O53 2.052 . S
Co47 O55 2.135 . S
O48 Co47 2.061 . S
O48 C51 1.235 . S
C49 O52 1.238 . S
C49 O53 1.241 . S
C50 O43 1.247 . S
C50 O44 1.261 . S
C51 O46 1.259 . S
C51 O48 1.235 . S
O52 Co42 2.021 . S
O52 C49 1.238 . S
O53 Co47 2.052 . S
O53 C49 1.241 . S
O54 Co42 2.137 . S
O54 C45 1.247 . S
O55 Co42 2.244 . S
O55 C45 1.272 . S
O55 Co47 2.135 . S
Co56 O57 2.216 . S
Co56 O58 2.091 . S
Co56 O60 2.004 1_565 S
Co56 O66 2.021 1_565 S
Co56 O68 2.137 . S
Co56 O69 2.244 1_565 S
O57 Co56 2.216 . S
O57 C64 1.247 . S
O58 Co56 2.091 . S
O58 C64 1.261 . S
C59 O68 1.247 . S
C59 O69 1.272 1_565 S
O60 Co56 2.004 1_545 S
O60 C65 1.259 . S
Co61 O62 2.061 . S
Co61 O67 2.052 . S
Co61 O69 2.135 . S
O62 Co61 2.061 . S
O62 C65 1.235 . S
C63 O66 1.238 . S
C63 O67 1.241 . S
C64 O57 1.247 . S
C64 O58 1.261 . S
C65 O60 1.259 . S
C65 O62 1.235 . S
O66 Co56 2.021 1_545 S
O66 C63 1.238 . S
O67 Co61 2.052 . S
O67 C63 1.241 . S
O68 Co56 2.137 . S
O68 C59 1.247 . S
O69 Co56 2.244 1_545 S
O69 C59 1.272 1_545 S
O69 Co61 2.135 . S
Co70 O71 2.216 . S
Co70 O72 2.091 . S
Co70 O74 2.004 . S
Co70 O80 2.021 . S
Co70 O82 2.137 . S
Co70 O83 2.244 . S
O71 Co70 2.216 . S
O71 C78 1.247 . S
O72 Co70 2.091 . S
O72 C78 1.261 . S
C73 O82 1.247 . S
C73 O83 1.272 . S
O74 Co70 2.004 . S
O74 C79 1.259 . S
Co75 O76 2.061 . S
Co75 O81 2.052 . S
Co75 O83 2.135 . S
O76 Co75 2.061 . S
O76 C79 1.235 . S
C77 O80 1.238 . S
C77 O81 1.241 . S
C78 O71 1.247 . S
C78 O72 1.261 . S
C79 O74 1.259 . S
C79 O76 1.235 . S
O80 Co70 2.021 . S
O80 C77 1.238 . S
O81 Co75 2.052 . S
O81 C77 1.241 . S
O82 Co70 2.137 . S
O82 C73 1.247 . S
O83 Co70 2.244 . S
O83 C73 1.272 . S
O83 Co75 2.135 . S
Co84 O85 2.216 . S
Co84 O86 2.091 . S
Co84 O88 2.004 . S
Co84 O94 2.020 1_545 S
Co84 O96 2.137 . S
Co84 O97 2.244 . S
O85 Co84 2.216 . S
O85 C92 1.247 . S
O86 Co84 2.091 . S
O86 C92 1.261 . S
C87 O96 1.247 . S
C87 O97 1.272 . S
O88 Co84 2.004 . S
O88 C93 1.259 . S
Co89 O90 2.061 . S
Co89 O95 2.052 . S
Co89 O97 2.135 1_565 S
O90 Co89 2.061 . S
O90 C93 1.235 1_565 S
C91 O94 1.239 . S
C91 O95 1.241 . S
C92 O85 1.247 . S
C92 O86 1.261 . S
C93 O88 1.259 . S
C93 O90 1.235 1_545 S
O94 Co84 2.020 1_565 S
O94 C91 1.239 . S
O95 Co89 2.052 . S
O95 C91 1.241 . S
O96 Co84 2.137 . S
O96 C87 1.247 . S
O97 Co84 2.244 . S
O97 C87 1.272 . S
O97 Co89 2.135 1_545 S
Co98 O99 2.216 . S
Co98 O100 2.091 1_554 S
Co98 O102 2.004 1_554 S
Co98 O108 2.021 1_554 S
Co98 O110 2.137 . S
Co98 O111 2.244 . S
O99 Co98 2.216 . S
O99 C106 1.247 . S
O100 Co98 2.091 1_556 S
O100 C106 1.261 1_556 S
C101 O110 1.247 . S
C101 O111 1.272 . S
O102 Co98 2.004 1_556 S
O102 C107 1.259 . S
Co103 O104 2.063 1_554 S
Co103 O109 2.052 1_554 S
Co103 O111 2.134 . S
O104 Co103 2.063 1_556 S
O104 C107 1.235 . S
C105 O108 1.238 . S
C105 O109 1.241 . S
C106 O99 1.247 . S
C106 O100 1.261 1_554 S
C107 O102 1.259 . S
C107 O104 1.235 . S
O108 Co98 2.021 1_556 S
O108 C105 1.238 . S
O109 Co103 2.052 1_556 S
O109 C105 1.241 . S
O110 Co98 2.137 . S
O110 C101 1.247 . S
O111 Co98 2.244 . S
O111 C101 1.272 . S
O111 Co103 2.134 . S
Co112 O113 2.216 . S
Co112 O114 2.091 . S
Co112 O116 2.004 1_554 S
Co112 O122 2.021 1_554 S
Co112 O124 2.137 . S
Co112 O125 2.244 . S
O113 Co112 2.216 . S
O113 C120 1.247 . S
O114 Co112 2.091 . S
O114 C120 1.261 . S
C115 O124 1.247 . S
C115 O125 1.272 . S
O116 Co112 2.004 1_556 S
O116 C121 1.259 . S
Co117 O118 2.061 1_554 S
Co117 O123 2.052 . S
Co117 O125 2.135 . S
O118 Co117 2.061 1_556 S
O118 C121 1.235 . S
C119 O122 1.238 . S
C119 O123 1.241 1_556 S
C120 O113 1.247 . S
C120 O114 1.261 . S
C121 O116 1.259 . S
C121 O118 1.235 . S
O122 Co112 2.021 1_556 S
O122 C119 1.238 . S
O123 Co117 2.052 . S
O123 C119 1.241 1_554 S
O124 Co112 2.137 . S
O124 C115 1.247 . S
O125 Co112 2.244 . S
O125 C115 1.272 . S
O125 Co117 2.135 . S
Co126 O127 2.216 . S
Co126 O128 2.091 . S
Co126 O130 2.004 . S
Co126 O136 2.021 . S
Co126 O138 2.137 . S
Co126 O139 2.244 . S
O127 Co126 2.216 . S
O127 C134 1.247 . S
O128 Co126 2.091 . S
O128 C134 1.261 . S
C129 O138 1.247 . S
C129 O139 1.272 . S
O130 Co126 2.004 . S
O130 C135 1.259 . S
Co131 O132 2.061 . S
Co131 O137 2.052 . S
Co131 O139 2.135 . S
O132 Co131 2.061 . S
O132 C135 1.235 . S
C133 O136 1.238 . S
C133 O137 1.241 . S
C134 O127 1.247 . S
C134 O128 1.261 . S
C135 O130 1.259 . S
C135 O132 1.235 . S
O136 Co126 2.021 . S
O136 C133 1.238 . S
O137 Co131 2.052 . S
O137 C133 1.241 . S
O138 Co126 2.137 . S
O138 C129 1.247 . S
O139 Co126 2.244 . S
O139 C129 1.272 . S
O139 Co131 2.135 . S
Co140 O141 2.216 . S
Co140 O142 2.091 . S
Co140 O144 2.004 . S
Co140 O150 2.021 . S
Co140 O152 2.137 . S
Co140 O153 2.244 . S
O141 Co140 2.216 . S
O141 C148 1.247 . S
O142 Co140 2.091 . S
O142 C148 1.261 . S
C143 O152 1.247 . S
C143 O153 1.272 . S
O144 Co140 2.004 . S
O144 C149 1.259 . S
Co145 O146 2.061 . S
Co145 O151 2.052 . S
Co145 O153 2.135 . S
O146 Co145 2.061 . S
O146 C149 1.235 . S
C147 O150 1.238 . S
C147 O151 1.241 . S
C148 O141 1.247 . S
C148 O142 1.261 . S
C149 O144 1.259 . S
C149 O146 1.235 . S
O150 Co140 2.021 . S
O150 C147 1.238 . S
O151 Co145 2.052 . S
O151 C147 1.241 . S
O152 Co140 2.137 . S
O152 C143 1.247 . S
O153 Co140 2.244 . S
O153 C143 1.272 . S
O153 Co145 2.135 . S
Co154 O155 2.216 . S
Co154 O156 2.091 . S
Co154 O158 2.004 . S
Co154 O164 2.021 . S
Co154 O166 2.137 . S
Co154 O167 2.244 . S
O155 Co154 2.216 . S
O155 C162 1.247 . S
O156 Co154 2.091 . S
O156 C162 1.261 . S
C157 O166 1.247 . S
C157 O167 1.272 . S
O158 Co154 2.004 . S
O158 C163 1.259 . S
Co159 O160 2.061 . S
Co159 O165 2.052 . S
Co159 O167 2.135 . S
O160 Co159 2.061 . S
O160 C163 1.235 . S
C161 O164 1.238 . S
C161 O165 1.241 . S
C162 O155 1.247 . S
C162 O156 1.261 . S
C163 O158 1.259 . S
C163 O160 1.235 . S
O164 Co154 2.021 . S
O164 C161 1.238 . S
O165 Co159 2.052 . S
O165 C161 1.241 . S
O166 Co154 2.137 . S
O166 C157 1.247 . S
O167 Co154 2.244 . S
O167 C157 1.272 . S
O167 Co159 2.135 . S
H168 C174 0.930 . S
H169 C177 0.931 . S
H170 C179 0.931 . S
H171 C181 0.930 . S
H172 C183 0.930 . S
H173 C185 0.931 . S
C174 H168 0.930 . S
C174 C175 1.380 . S
C174 C176 1.394 . S
C175 C174 1.380 . S
C175 C179 1.382 . S
C176 C174 1.394 . S
C176 C177 1.400 . S
C177 H169 0.931 . S
C177 C176 1.400 . S
C177 C178 1.375 . S
C178 C177 1.375 . S
C178 C179 1.415 . S
C178 C180 1.501 1_655 S
C179 H170 0.931 . S
C179 C175 1.382 . S
C179 C178 1.415 . S
C180 C178 1.501 1_455 S
C180 C181 1.384 . S
C180 C185 1.408 . S
C181 H171 0.930 . S
C181 C180 1.384 . S
C181 C182 1.389 . S
C182 C181 1.389 . S
C182 C183 1.405 . S
C183 H172 0.930 . S
C183 C182 1.405 . S
C183 C184 1.364 . S
C184 C183 1.364 . S
C184 C185 1.400 . S
C185 H173 0.931 . S
C185 C180 1.408 . S
C185 C184 1.400 . S
H186 C192 0.930 . S
H187 C195 0.928 1_455 S
H188 C197 0.931 . S
H189 C199 0.930 . S
H190 C201 0.930 . S
H191 C203 0.931 . S
C192 H186 0.930 . S
C192 C193 1.380 . S
C192 C194 1.394 . S
C193 C192 1.380 . S
C193 C197 1.382 . S
C194 C192 1.394 . S
C194 C195 1.400 . S
C195 H187 0.928 1_655 S
C195 C194 1.400 . S
C195 C196 1.375 . S
C196 C195 1.375 . S
C196 C197 1.415 . S
C196 C198 1.501 1_655 S
C197 H188 0.931 . S
C197 C193 1.382 . S
C197 C196 1.415 . S
C198 C196 1.501 1_455 S
C198 C199 1.384 . S
C198 C203 1.408 . S
C199 H189 0.930 . S
C199 C198 1.384 . S
C199 C200 1.389 . S
C200 C199 1.389 . S
C200 C201 1.405 . S
C201 H190 0.930 . S
C201 C200 1.405 . S
C201 C202 1.364 . S
C202 C201 1.364 . S
C202 C203 1.400 . S
C203 H191 0.931 . S
C203 C198 1.408 . S
C203 C202 1.400 . S
H204 C210 0.930 . S
H205 C213 0.931 . S
H206 C215 0.931 . S
H207 C217 0.930 . S
H208 C219 0.930 . S
H209 C221 0.931 . S
C210 H204 0.930 . S
C210 C211 1.380 . S
C210 C212 1.394 . S
C211 C210 1.380 . S
C211 C215 1.382 . S
C212 C210 1.394 . S
C212 C213 1.400 . S
C213 H205 0.931 . S
C213 C212 1.400 . S
C213 C214 1.375 . S
C214 C213 1.375 . S
C214 C215 1.415 . S
C214 C216 1.501 . S
C215 H206 0.931 . S
C215 C211 1.382 . S
C215 C214 1.415 . S
C216 C214 1.501 . S
C216 C217 1.384 . S
C216 C221 1.408 . S
C217 H207 0.930 . S
C217 C216 1.384 . S
C217 C218 1.389 . S
C218 C217 1.389 . S
C218 C219 1.405 . S
C219 H208 0.930 . S
C219 C218 1.405 . S
C219 C220 1.364 . S
C220 C219 1.364 . S
C220 C221 1.400 . S
C221 H209 0.931 . S
C221 C216 1.408 . S
C221 C220 1.400 . S
H222 C228 0.930 . S
H223 C231 0.931 . S
H224 C233 0.931 . S
H225 C235 0.930 . S
H226 C237 0.930 . S
H227 C239 0.931 . S
C228 H222 0.930 . S
C228 C229 1.380 . S
C228 C230 1.394 . S
C229 C228 1.380 . S
C229 C233 1.382 . S
C230 C228 1.394 . S
C230 C231 1.400 . S
C231 H223 0.931 . S
C231 C230 1.400 . S
C231 C232 1.375 . S
C232 C231 1.375 . S
C232 C233 1.415 . S
C232 C234 1.501 . S
C233 H224 0.931 . S
C233 C229 1.382 . S
C233 C232 1.415 . S
C234 C232 1.501 . S
C234 C235 1.384 . S
C234 C239 1.408 . S
C235 H225 0.930 . S
C235 C234 1.384 . S
C235 C236 1.389 . S
C236 C235 1.389 . S
C236 C237 1.405 . S
C237 H226 0.930 . S
C237 C236 1.405 . S
C237 C238 1.364 . S
C238 C237 1.364 . S
C238 C239 1.400 . S
C239 H227 0.931 . S
C239 C234 1.408 . S
C239 C238 1.400 . S
H240 C246 0.930 . S
H241 C249 0.931 . S
H242 C251 0.931 1_545 S
H243 C253 0.930 . S
H244 C255 0.930 . S
H245 C257 0.931 . S
C246 H240 0.930 . S
C246 C247 1.380 . S
C246 C248 1.394 . S
C247 C246 1.380 . S
C247 C251 1.382 . S
C248 C246 1.394 . S
C248 C249 1.400 . S
C249 H241 0.931 . S
C249 C248 1.400 . S
C249 C250 1.375 1_565 S
C250 C249 1.375 1_545 S
C250 C251 1.415 1_545 S
C250 C252 1.501 . S
C251 H242 0.931 1_565 S
C251 C247 1.382 . S
C251 C250 1.415 1_565 S
C252 C250 1.501 . S
C252 C253 1.384 . S
C252 C257 1.408 . S
C253 H243 0.930 . S
C253 C252 1.384 . S
C253 C254 1.389 . S
C254 C253 1.389 . S
C254 C255 1.405 . S
C255 H244 0.930 . S
C255 C254 1.405 . S
C255 C256 1.364 . S
C256 C255 1.364 . S
C256 C257 1.400 . S
C257 H245 0.931 . S
C257 C252 1.408 . S
C257 C256 1.400 . S
H258 C264 0.930 . S
H259 C267 0.931 . S
H260 C269 0.931 . S
H261 C271 0.930 . S
H262 C273 0.930 . S
H263 C275 0.931 . S
C264 H258 0.930 . S
C264 C265 1.380 . S
C264 C266 1.394 . S
C265 C264 1.380 . S
C265 C269 1.382 . S
C266 C264 1.394 . S
C266 C267 1.400 . S
C267 H259 0.931 . S
C267 C266 1.400 . S
C267 C268 1.375 . S
C268 C267 1.375 . S
C268 C269 1.415 . S
C268 C270 1.501 . S
C269 H260 0.931 . S
C269 C265 1.382 . S
C269 C268 1.415 . S
C270 C268 1.501 . S
C270 C271 1.384 . S
C270 C275 1.408 . S
C271 H261 0.930 . S
C271 C270 1.384 . S
C271 C272 1.389 . S
C272 C271 1.389 . S
C272 C273 1.405 . S
C273 H262 0.930 . S
C273 C272 1.405 . S
C273 C274 1.364 . S
C274 C273 1.364 . S
C274 C275 1.400 . S
C275 H263 0.931 . S
C275 C270 1.408 . S
C275 C274 1.400 . S
H276 C282 0.930 . S
H277 C285 0.931 . S
H278 C287 0.931 . S
H279 C289 0.930 . S
H280 C291 0.930 . S
H281 C293 0.931 . S
C282 H276 0.930 . S
C282 C283 1.380 . S
C282 C284 1.394 . S
C283 C282 1.380 . S
C283 C287 1.382 . S
C284 C282 1.394 . S
C284 C285 1.400 . S
C285 H277 0.931 . S
C285 C284 1.400 . S
C285 C286 1.375 . S
C286 C285 1.375 . S
C286 C287 1.415 . S
C286 C288 1.501 1_545 S
C287 H278 0.931 . S
C287 C283 1.382 . S
C287 C286 1.415 . S
C288 C286 1.501 1_565 S
C288 C289 1.384 . S
C288 C293 1.408 . S
C289 H279 0.930 . S
C289 C288 1.384 . S
C289 C290 1.389 . S
C290 C289 1.389 . S
C290 C291 1.405 . S
C291 H280 0.930 . S
C291 C290 1.405 . S
C291 C292 1.364 . S
C292 C291 1.364 . S
C292 C293 1.400 . S
C293 H281 0.931 . S
C293 C288 1.408 . S
C293 C292 1.400 . S
H294 C300 0.930 . S
H295 C303 0.931 . S
H296 C305 0.931 1_554 S
H297 C307 0.930 . S
H298 C309 0.930 . S
H299 C311 0.931 . S
C300 H294 0.930 . S
C300 C301 1.380 . S
C300 C302 1.394 . S
C301 C300 1.380 . S
C301 C305 1.382 . S
C302 C300 1.394 . S
C302 C303 1.400 1_556 S
C303 H295 0.931 . S
C303 C302 1.400 1_554 S
C303 C304 1.375 . S
C304 C303 1.375 . S
C304 C305 1.415 1_554 S
C304 C306 1.501 . S
C305 H296 0.931 1_556 S
C305 C301 1.382 . S
C305 C304 1.415 1_556 S
C306 C304 1.501 . S
C306 C307 1.384 . S
C306 C311 1.408 . S
C307 H297 0.930 . S
C307 C306 1.384 . S
C307 C308 1.389 . S
C308 C307 1.389 . S
C308 C309 1.405 . S
C309 H298 0.930 . S
C309 C308 1.405 . S
C309 C310 1.364 . S
C310 C309 1.364 . S
C310 C311 1.400 . S
C311 H299 0.931 . S
C311 C306 1.408 . S
C311 C310 1.400 . S
H312 C318 0.930 . S
H313 C321 0.931 . S
H314 C323 0.931 . S
H315 C325 0.930 . S
H316 C327 0.930 . S
H317 C329 0.931 . S
C318 H312 0.930 . S
C318 C319 1.380 . S
C318 C320 1.394 . S
C319 C318 1.380 . S
C319 C323 1.382 . S
C320 C318 1.394 . S
C320 C321 1.400 1_556 S
C321 H313 0.931 . S
C321 C320 1.400 1_554 S
C321 C322 1.375 . S
C322 C321 1.375 . S
C322 C323 1.415 1_554 S
C322 C324 1.501 . S
C323 H314 0.931 . S
C323 C319 1.382 . S
C323 C322 1.415 1_556 S
C324 C322 1.501 . S
C324 C325 1.384 . S
C324 C329 1.408 . S
C325 H315 0.930 . S
C325 C324 1.384 . S
C325 C326 1.389 . S
C326 C325 1.389 . S
C326 C327 1.405 . S
C327 H316 0.930 . S
C327 C326 1.405 . S
C327 C328 1.364 . S
C328 C327 1.364 . S
C328 C329 1.400 . S
C329 H317 0.931 . S
C329 C324 1.408 . S
C329 C328 1.400 . S
H330 C336 0.930 . S
H331 C339 0.931 . S
H332 C341 0.931 . S
H333 C343 0.930 . S
H334 C345 0.930 . S
H335 C347 0.931 . S
C336 H330 0.930 . S
C336 C337 1.380 . S
C336 C338 1.394 . S
C337 C336 1.380 . S
C337 C341 1.382 . S
C338 C336 1.394 . S
C338 C339 1.400 . S
C339 H331 0.931 . S
C339 C338 1.400 . S
C339 C340 1.375 . S
C340 C339 1.375 . S
C340 C341 1.415 . S
C340 C342 1.501 . S
C341 H332 0.931 . S
C341 C337 1.382 . S
C341 C340 1.415 . S
C342 C340 1.501 . S
C342 C343 1.384 . S
C342 C347 1.408 . S
C343 H333 0.930 . S
C343 C342 1.384 . S
C343 C344 1.389 . S
C344 C343 1.389 . S
C344 C345 1.405 . S
C345 H334 0.930 . S
C345 C344 1.405 . S
C345 C346 1.364 . S
C346 C345 1.364 . S
C346 C347 1.400 . S
C347 H335 0.931 . S
C347 C342 1.408 . S
C347 C346 1.400 . S
H348 C354 0.930 . S
H349 C357 0.931 . S
H350 C359 0.931 . S
H351 C361 0.930 . S
H352 C363 0.930 . S
H353 C365 0.931 . S
C354 H348 0.930 . S
C354 C355 1.380 . S
C354 C356 1.394 . S
C355 C354 1.380 . S
C355 C359 1.382 . S
C356 C354 1.394 . S
C356 C357 1.400 . S
C357 H349 0.931 . S
C357 C356 1.400 . S
C357 C358 1.375 . S
C358 C357 1.375 . S
C358 C359 1.415 . S
C358 C360 1.501 . S
C359 H350 0.931 . S
C359 C355 1.382 . S
C359 C358 1.415 . S
C360 C358 1.501 . S
C360 C361 1.384 . S
C360 C365 1.408 . S
C361 H351 0.930 . S
C361 C360 1.384 . S
C361 C362 1.389 . S
C362 C361 1.389 . S
C362 C363 1.405 . S
C363 H352 0.930 . S
C363 C362 1.405 . S
C363 C364 1.364 . S
C364 C363 1.364 . S
C364 C365 1.400 . S
C365 H353 0.931 . S
C365 C360 1.408 . S
C365 C364 1.400 . S
H366 C372 0.930 . S
H367 C375 0.931 . S
H368 C377 0.931 . S
H369 C379 0.930 . S
H370 C381 0.930 . S
H371 C383 0.931 . S
C372 H366 0.930 . S
C372 C373 1.380 . S
C372 C374 1.394 . S
C373 C372 1.380 . S
C373 C377 1.382 . S
C374 C372 1.394 . S
C374 C375 1.400 . S
C375 H367 0.931 . S
C375 C374 1.400 . S
C375 C376 1.375 . S
C376 C375 1.375 . S
C376 C377 1.415 . S
C376 C378 1.501 . S
C377 H368 0.931 . S
C377 C373 1.382 . S
C377 C376 1.415 . S
C378 C376 1.501 . S
C378 C379 1.384 . S
C378 C383 1.408 . S
C379 H369 0.930 . S
C379 C378 1.384 . S
C379 C380 1.389 . S
C380 C379 1.389 . S
C380 C381 1.405 . S
C381 H370 0.930 . S
C381 C380 1.405 . S
C381 C382 1.364 . S
C382 C381 1.364 . S
C382 C383 1.400 . S
C383 H371 0.931 . S
C383 C378 1.408 . S
C383 C382 1.400 . S
H384 C390 0.930 . S
H385 C393 0.930 . S
H386 C394 0.930 . S
H387 C395 0.930 . S
H388 C398 0.930 . S
H389 C399 0.930 . S
C390 H384 0.930 . S
C390 C391 1.355 . S
C390 C392 1.415 1_554 S
C391 C390 1.355 . S
C391 C393 1.419 . S
C392 C390 1.415 1_556 S
C392 C397 1.425 . S
C392 C399 1.409 . S
C393 H385 0.930 . S
C393 C391 1.419 . S
C393 C394 1.362 1_554 S
C394 H386 0.930 . S
C394 C393 1.362 1_556 S
C394 C397 1.409 . S
C395 H387 0.930 . S
C395 C396 1.355 . S
C395 C397 1.415 . S
C396 C395 1.355 . S
C396 C398 1.419 . S
C397 C392 1.425 . S
C397 C394 1.409 . S
C397 C395 1.415 . S
C398 H388 0.930 . S
C398 C396 1.419 . S
C398 C399 1.362 . S
C399 H389 0.930 . S
C399 C392 1.409 . S
C399 C398 1.362 . S
H400 C406 0.930 . S
H401 C409 0.930 . S
H402 C410 0.930 . S
H403 C411 0.930 . S
H404 C414 0.930 . S
H405 C415 0.930 . S
C406 H400 0.930 . S
C406 C407 1.355 . S
C406 C408 1.415 . S
C407 C406 1.355 . S
C407 C409 1.419 . S
C408 C406 1.415 . S
C408 C413 1.425 . S
C408 C415 1.409 . S
C409 H401 0.930 . S
C409 C407 1.419 . S
C409 C410 1.362 . S
C410 H402 0.930 . S
C410 C409 1.362 . S
C410 C413 1.409 . S
C411 H403 0.930 . S
C411 C412 1.355 . S
C411 C413 1.415 . S
C412 C411 1.355 . S
C412 C414 1.419 . S
C413 C408 1.425 . S
C413 C410 1.409 . S
C413 C411 1.415 . S
C414 H404 0.930 . S
C414 C412 1.419 . S
C414 C415 1.362 . S
C415 H405 0.930 . S
C415 C408 1.409 . S
C415 C414 1.362 . S
H416 C422 0.930 . S
H417 C425 0.930 . S
H418 C426 0.930 . S
H419 C427 0.930 . S
H420 C430 0.930 . S
H421 C431 0.930 . S
C422 H416 0.930 . S
C422 C423 1.355 . S
C422 C424 1.415 . S
C423 C422 1.355 . S
C423 C425 1.419 . S
C424 C422 1.415 . S
C424 C429 1.425 . S
C424 C431 1.409 . S
C425 H417 0.930 . S
C425 C423 1.419 . S
C425 C426 1.362 . S
C426 H418 0.930 . S
C426 C425 1.362 . S
C426 C429 1.409 . S
C427 H419 0.930 . S
C427 C428 1.355 . S
C427 C429 1.415 . S
C428 C427 1.355 . S
C428 C430 1.419 . S
C429 C424 1.425 . S
C429 C426 1.409 . S
C429 C427 1.415 . S
C430 H420 0.930 . S
C430 C428 1.419 . S
C430 C431 1.362 . S
C431 H421 0.930 . S
C431 C424 1.409 . S
C431 C430 1.362 . S
H432 C438 0.930 . S
H433 C441 0.930 . S
H434 C442 0.930 . S
H435 C443 0.930 . S
H436 C446 0.930 . S
H437 C447 0.930 . S
C438 H432 0.930 . S
C438 C439 1.355 . S
C438 C440 1.415 . S
C439 C438 1.355 . S
C439 C441 1.419 . S
C440 C438 1.415 . S
C440 C445 1.425 . S
C440 C447 1.409 . S
C441 H433 0.930 . S
C441 C439 1.419 . S
C441 C442 1.362 . S
C442 H434 0.930 . S
C442 C441 1.362 . S
C442 C445 1.409 . S
C443 H435 0.930 . S
C443 C444 1.355 . S
C443 C445 1.415 . S
C444 C443 1.355 . S
C444 C446 1.419 . S
C445 C440 1.425 . S
C445 C442 1.409 . S
C445 C443 1.415 . S
C446 H436 0.930 . S
C446 C444 1.419 . S
C446 C447 1.362 . S
C447 H437 0.930 . S
C447 C440 1.409 . S
C447 C446 1.362 . S
H448 C454 0.930 . S
H449 C457 0.930 . S
H450 C458 0.930 . S
H451 C459 0.930 . S
H452 C462 0.930 . S
H453 C463 0.930 . S
C454 H448 0.930 . S
C454 C455 1.355 . S
C454 C456 1.415 . S
C455 C454 1.355 . S
C455 C457 1.419 . S
C456 C454 1.415 . S
C456 C461 1.425 . S
C456 C463 1.409 . S
C457 H449 0.930 . S
C457 C455 1.419 . S
C457 C458 1.362 . S
C458 H450 0.930 . S
C458 C457 1.362 . S
C458 C461 1.409 . S
C459 H451 0.930 . S
C459 C460 1.355 . S
C459 C461 1.415 . S
C460 C459 1.355 . S
C460 C462 1.419 . S
C461 C456 1.425 . S
C461 C458 1.409 . S
C461 C459 1.415 . S
C462 H452 0.930 . S
C462 C460 1.419 . S
C462 C463 1.362 . S
C463 H453 0.930 . S
C463 C456 1.409 . S
C463 C462 1.362 . S
H464 C470 0.930 . S
H465 C473 0.930 . S
H466 C474 0.930 . S
H467 C475 0.930 . S
H468 C478 0.930 . S
H469 C479 0.930 . S
C470 H464 0.930 . S
C470 C471 1.355 . S
C470 C472 1.415 . S
C471 C470 1.355 . S
C471 C473 1.419 . S
C472 C470 1.415 . S
C472 C477 1.425 . S
C472 C479 1.409 . S
C473 H465 0.930 . S
C473 C471 1.419 . S
C473 C474 1.362 . S
C474 H466 0.930 . S
C474 C473 1.362 . S
C474 C477 1.409 . S
C475 H467 0.930 . S
C475 C476 1.355 . S
C475 C477 1.415 . S
C476 C475 1.355 . S
C476 C478 1.419 . S
C477 C472 1.425 . S
C477 C474 1.409 . S
C477 C475 1.415 . S
C478 H468 0.930 . S
C478 C476 1.419 . S
C478 C479 1.362 . S
C479 H469 0.930 . S
C479 C472 1.409 . S
C479 C478 1.362 . S
H480 C486 0.930 . S
H481 C489 0.930 1_556 S
H482 C490 0.930 . S
H483 C491 0.930 . S
H484 C494 0.930 . S
H485 C495 0.930 . S
C486 H480 0.930 . S
C486 C487 1.355 . S
C486 C488 1.415 . S
C487 C486 1.355 . S
C487 C489 1.419 . S
C488 C486 1.415 . S
C488 C493 1.425 . S
C488 C495 1.409 . S
C489 H481 0.930 1_554 S
C489 C487 1.419 . S
C489 C490 1.362 . S
C490 H482 0.930 . S
C490 C489 1.362 . S
C490 C493 1.409 . S
C491 H483 0.930 . S
C491 C492 1.355 . S
C491 C493 1.415 . S
C492 C491 1.355 . S
C492 C494 1.419 . S
C493 C488 1.425 . S
C493 C490 1.409 . S
C493 C491 1.415 . S
C494 H484 0.930 . S
C494 C492 1.419 . S
C494 C495 1.362 . S
C495 H485 0.930 . S
C495 C488 1.409 . S
C495 C494 1.362 . S
H496 C502 0.930 . S
H497 C505 0.930 . S
H498 C506 0.930 . S
H499 C507 0.930 . S
H500 C510 0.930 . S
H501 C511 0.930 . S
C502 H496 0.930 . S
C502 C503 1.355 . S
C502 C504 1.415 . S
C503 C502 1.355 . S
C503 C505 1.419 . S
C504 C502 1.415 . S
C504 C509 1.425 . S
C504 C511 1.409 . S
C505 H497 0.930 . S
C505 C503 1.419 . S
C505 C506 1.362 . S
C506 H498 0.930 . S
C506 C505 1.362 . S
C506 C509 1.409 . S
C507 H499 0.930 . S
C507 C508 1.355 . S
C507 C509 1.415 . S
C508 C507 1.355 . S
C508 C510 1.419 . S
C509 C504 1.425 . S
C509 C506 1.409 . S
C509 C507 1.415 . S
C510 H500 0.930 . S
C510 C508 1.419 . S
C510 C511 1.362 . S
C511 H501 0.930 . S
C511 C504 1.409 . S
C511 C510 1.362 . S
H512 C518 0.930 . S
H513 C521 0.931 1_455 S
H514 C522 0.930 . S
H515 C523 0.930 . S
H516 C526 0.930 . S
H517 C527 0.930 . S
C518 H512 0.930 . S
C518 C519 1.355 . S
C518 C520 1.415 1_455 S
C519 C518 1.355 . S
C519 C521 1.420 1_455 S
C520 C518 1.415 1_655 S
C520 C525 1.425 . S
C520 C527 1.409 . S
C521 H513 0.931 1_655 S
C521 C519 1.420 1_655 S
C521 C522 1.360 . S
C522 H514 0.930 . S
C522 C521 1.360 . S
C522 C525 1.409 . S
C523 H515 0.930 . S
C523 C524 1.355 . S
C523 C525 1.415 . S
C524 C523 1.355 . S
C524 C526 1.419 . S
C525 C520 1.425 . S
C525 C522 1.409 . S
C525 C523 1.415 . S
C526 H516 0.930 . S
C526 C524 1.419 . S
C526 C527 1.362 . S
C527 H517 0.930 . S
C527 C520 1.409 . S
C527 C526 1.362 . S
H528 C534 0.930 . S
H529 C537 0.930 . S
H530 C538 0.930 . S
H531 C539 0.930 . S
H532 C542 0.930 . S
H533 C543 0.930 . S
C534 H528 0.930 . S
C534 C535 1.355 . S
C534 C536 1.415 . S
C535 C534 1.355 . S
C535 C537 1.419 . S
C536 C534 1.415 . S
C536 C541 1.425 . S
C536 C543 1.409 . S
C537 H529 0.930 . S
C537 C535 1.419 . S
C537 C538 1.362 . S
C538 H530 0.930 . S
C538 C537 1.362 . S
C538 C541 1.409 . S
C539 H531 0.930 . S
C539 C540 1.355 . S
C539 C541 1.415 . S
C540 C539 1.355 . S
C540 C542 1.419 . S
C541 C536 1.425 . S
C541 C538 1.409 . S
C541 C539 1.415 . S
C542 H532 0.930 . S
C542 C540 1.419 . S
C542 C543 1.362 . S
C543 H533 0.930 . S
C543 C536 1.409 . S
C543 C542 1.362 . S
H544 C550 0.930 1_545 S
H545 C553 0.930 . S
H546 C554 0.930 . S
H547 C555 0.930 . S
H548 C558 0.930 . S
H549 C559 0.930 . S
C550 H544 0.930 1_565 S
C550 C551 1.355 . S
C550 C552 1.415 . S
C551 C550 1.355 . S
C551 C553 1.419 . S
C552 C550 1.415 . S
C552 C557 1.425 . S
C552 C559 1.409 . S
C553 H545 0.930 . S
C553 C551 1.419 . S
C553 C554 1.362 . S
C554 H546 0.930 . S
C554 C553 1.362 . S
C554 C557 1.409 . S
C555 H547 0.930 . S
C555 C556 1.355 . S
C555 C557 1.415 . S
C556 C555 1.355 . S
C556 C558 1.419 . S
C557 C552 1.425 . S
C557 C554 1.409 . S
C557 C555 1.415 . S
C558 H548 0.930 . S
C558 C556 1.419 . S
C558 C559 1.362 . S
C559 H549 0.930 . S
C559 C552 1.409 . S
C559 C558 1.362 . S
H560 C566 0.930 . S
H561 C569 0.930 . S
H562 C570 0.930 . S
H563 C571 0.930 . S
H564 C574 0.930 . S
H565 C575 0.930 . S
C566 H560 0.930 . S
C566 C567 1.355 . S
C566 C568 1.415 . S
C567 C566 1.355 . S
C567 C569 1.419 . S
C568 C566 1.415 . S
C568 C573 1.425 . S
C568 C575 1.409 . S
C569 H561 0.930 . S
C569 C567 1.419 . S
C569 C570 1.362 . S
C570 H562 0.930 . S
C570 C569 1.362 . S
C570 C573 1.409 . S
C571 H563 0.930 . S
C571 C572 1.355 . S
C571 C573 1.415 . S
C572 C571 1.355 . S
C572 C574 1.419 . S
C573 C568 1.425 . S
C573 C570 1.409 . S
C573 C571 1.415 . S
C574 H564 0.930 . S
C574 C572 1.419 . S
C574 C575 1.362 . S
C575 H565 0.930 . S
C575 C568 1.409 . S
C575 C574 1.362 . S
H576 C582 0.930 . S
H577 C585 0.930 1_455 S
H578 C586 0.946 . S
H579 C587 0.930 . S
H580 C590 0.930 . S
H581 C591 0.930 . S
C582 H576 0.930 . S
C582 C583 1.355 . S
C582 C584 1.415 1_455 S
C583 C582 1.355 . S
C583 C585 1.419 1_465 S
C584 C582 1.415 1_655 S
C584 C589 1.425 . S
C584 C591 1.409 . S
C585 H577 0.930 1_655 S
C585 C583 1.419 1_645 S
C585 C586 1.364 . S
C586 H578 0.946 . S
C586 C585 1.364 . S
C586 C589 1.392 1_545 S
C587 H579 0.930 . S
C587 C588 1.355 . S
C587 C589 1.415 . S
C588 C587 1.355 . S
C588 C590 1.419 . S
C589 C584 1.425 . S
C589 C586 1.392 1_565 S
C589 C587 1.415 . S
C590 H580 0.930 . S
C590 C588 1.419 . S
C590 C591 1.362 . S
C591 H581 0.930 . S
C591 C584 1.409 . S
C591 C590 1.362 . S
H592 C598 0.930 . S
H593 C601 0.930 . S
H594 C602 0.930 . S
H595 C603 0.930 . S
H596 C606 0.930 . S
H597 C607 0.930 . S
C598 H592 0.930 . S
C598 C599 1.355 . S
C598 C600 1.415 . S
C599 C598 1.355 . S
C599 C601 1.419 . S
C600 C598 1.415 . S
C600 C605 1.425 . S
C600 C607 1.409 . S
C601 H593 0.930 . S
C601 C599 1.419 . S
C601 C602 1.362 . S
C602 H594 0.930 . S
C602 C601 1.362 . S
C602 C605 1.409 . S
C603 H595 0.930 . S
C603 C604 1.355 . S
C603 C605 1.415 . S
C604 C603 1.355 . S
C604 C606 1.419 . S
C605 C600 1.425 . S
C605 C602 1.409 . S
C605 C603 1.415 . S
C606 H596 0.930 . S
C606 C604 1.419 . S
C606 C607 1.362 . S
C607 H597 0.930 . S
C607 C600 1.409 . S
C607 C606 1.362 . S
H608 C614 0.930 . S
H609 C617 0.930 . S
H610 C618 0.930 . S
H611 C619 0.930 . S
H612 C622 0.930 . S
H613 C623 0.930 . S
C614 H608 0.930 . S
C614 C615 1.355 . S
C614 C616 1.415 . S
C615 C614 1.355 . S
C615 C617 1.419 . S
C616 C614 1.415 . S
C616 C621 1.425 . S
C616 C623 1.409 . S
C617 H609 0.930 . S
C617 C615 1.419 . S
C617 C618 1.362 . S
C618 H610 0.930 . S
C618 C617 1.362 . S
C618 C621 1.409 . S
C619 H611 0.930 . S
C619 C620 1.355 . S
C619 C621 1.415 . S
C620 C619 1.355 . S
C620 C622 1.419 . S
C621 C616 1.425 . S
C621 C618 1.409 . S
C621 C619 1.415 . S
C622 H612 0.930 . S
C622 C620 1.419 . S
C622 C623 1.362 . S
C623 H613 0.930 . S
C623 C616 1.409 . S
C623 C622 1.362 . S
H624 C630 0.930 . S
H625 C633 0.930 . S
H626 C634 0.930 . S
H627 C635 0.930 . S
H628 C638 0.930 . S
H629 C639 0.930 . S
C630 H624 0.930 . S
C630 C631 1.355 . S
C630 C632 1.415 . S
C631 C630 1.355 . S
C631 C633 1.419 . S
C632 C630 1.415 . S
C632 C637 1.425 . S
C632 C639 1.409 . S
C633 H625 0.930 . S
C633 C631 1.419 . S
C633 C634 1.362 . S
C634 H626 0.930 . S
C634 C633 1.362 . S
C634 C637 1.409 . S
C635 H627 0.930 . S
C635 C636 1.355 . S
C635 C637 1.415 . S
C636 C635 1.355 . S
C636 C638 1.419 . S
C637 C632 1.425 . S
C637 C634 1.409 . S
C637 C635 1.415 . S
C638 H628 0.930 . S
C638 C636 1.419 . S
C638 C639 1.362 . S
C639 H629 0.930 . S
C639 C632 1.409 . S
C639 C638 1.362 . S
H640 C646 0.930 . S
H641 C649 0.930 . S
H642 C650 0.930 . S
H643 C651 0.930 . S
H644 C654 0.930 . S
H645 C655 0.930 . S
C646 H640 0.930 . S
C646 C647 1.355 1_565 S
C646 C648 1.415 . S
C647 C646 1.355 1_545 S
C647 C649 1.419 . S
C648 C646 1.415 . S
C648 C653 1.425 . S
C648 C655 1.409 . S
C649 H641 0.930 . S
C649 C647 1.419 . S
C649 C650 1.362 . S
C650 H642 0.930 . S
C650 C649 1.362 . S
C650 C653 1.409 1_545 S
C651 H643 0.930 . S
C651 C652 1.355 . S
C651 C653 1.415 . S
C652 C651 1.355 . S
C652 C654 1.419 . S
C653 C648 1.425 . S
C653 C650 1.409 1_565 S
C653 C651 1.415 . S
C654 H644 0.930 . S
C654 C652 1.419 . S
C654 C655 1.362 . S
C655 H645 0.930 . S
C655 C648 1.409 . S
C655 C654 1.362 . S
H656 C662 0.930 . S
H657 C665 0.930 . S
H658 C666 0.930 . S
H659 C667 0.930 . S
H660 C670 0.944 . S
H661 C671 0.930 . S
C662 H656 0.930 . S
C662 C663 1.355 . S
C662 C664 1.415 . S
C663 C662 1.355 . S
C663 C665 1.419 . S
C664 C662 1.415 . S
C664 C669 1.425 . S
C664 C671 1.409 . S
C665 H657 0.930 . S
C665 C663 1.419 . S
C665 C666 1.362 . S
C666 H658 0.930 . S
C666 C665 1.362 . S
C666 C669 1.409 . S
C667 H659 0.930 . S
C667 C668 1.355 . S
C667 C669 1.415 . S
C668 C667 1.355 . S
C668 C670 1.419 . S
C669 C664 1.425 . S
C669 C666 1.409 . S
C669 C667 1.415 . S
C670 H660 0.944 . S
C670 C668 1.419 . S
C670 C671 1.362 . S
C671 H661 0.930 . S
C671 C664 1.409 . S
C671 C670 1.362 . S
H672 C678 0.930 . S
H673 C681 0.930 . S
H674 C682 0.930 . S
H675 C683 0.930 . S
H676 C686 0.930 . S
H677 C687 0.930 . S
C678 H672 0.930 . S
C678 C679 1.355 . S
C678 C680 1.415 . S
C679 C678 1.355 . S
C679 C681 1.419 . S
C680 C678 1.415 . S
C680 C685 1.425 . S
C680 C687 1.409 . S
C681 H673 0.930 . S
C681 C679 1.419 . S
C681 C682 1.362 . S
C682 H674 0.930 . S
C682 C681 1.362 . S
C682 C685 1.409 . S
C683 H675 0.930 . S
C683 C684 1.355 . S
C683 C685 1.415 . S
C684 C683 1.355 . S
C684 C686 1.419 . S
C685 C680 1.425 . S
C685 C682 1.409 . S
C685 C683 1.415 . S
C686 H676 0.930 . S
C686 C684 1.419 . S
C686 C687 1.362 . S
C687 H677 0.930 . S
C687 C680 1.409 . S
C687 C686 1.362 . S
H688 C694 0.930 . S
H689 C697 0.930 . S
H690 C698 0.930 . S
H691 C699 0.930 . S
H692 C702 0.930 . S
H693 C703 0.930 . S
C694 H688 0.930 . S
C694 C695 1.355 . S
C694 C696 1.415 . S
C695 C694 1.355 . S
C695 C697 1.419 . S
C696 C694 1.415 . S
C696 C701 1.425 . S
C696 C703 1.409 . S
C697 H689 0.930 . S
C697 C695 1.419 . S
C697 C698 1.362 . S
C698 H690 0.930 . S
C698 C697 1.362 . S
C698 C701 1.409 . S
C699 H691 0.930 . S
C699 C700 1.355 . S
C699 C701 1.415 . S
C700 C699 1.355 . S
C700 C702 1.419 . S
C701 C696 1.425 . S
C701 C698 1.409 . S
C701 C699 1.415 . S
C702 H692 0.930 . S
C702 C700 1.419 . S
C702 C703 1.362 . S
C703 H693 0.930 . S
C703 C696 1.409 . S
C703 C702 1.362 . S
H704 C710 0.930 . S
H705 C713 0.930 . S
H706 C714 0.930 . S
H707 C715 0.930 . S
H708 C718 0.930 . S
H709 C719 0.930 . S
C710 H704 0.930 . S
C710 C711 1.355 . S
C710 C712 1.415 . S
C711 C710 1.355 . S
C711 C713 1.419 . S
C712 C710 1.415 . S
C712 C717 1.425 . S
C712 C719 1.409 . S
C713 H705 0.930 . S
C713 C711 1.419 . S
C713 C714 1.362 . S
C714 H706 0.930 . S
C714 C713 1.362 . S
C714 C717 1.409 . S
C715 H707 0.930 . S
C715 C716 1.355 . S
C715 C717 1.415 . S
C716 C715 1.355 . S
C716 C718 1.419 . S
C717 C712 1.425 . S
C717 C714 1.409 . S
C717 C715 1.415 . S
C718 H708 0.930 . S
C718 C716 1.419 . S
C718 C719 1.362 . S
C719 H709 0.930 . S
C719 C712 1.409 . S
C719 C718 1.362 . S
H720 C726 0.930 . S
H721 C729 0.930 . S
H722 C730 0.930 . S
H723 C731 0.930 . S
H724 C734 0.930 . S
H725 C735 0.930 . S
C726 H720 0.930 . S
C726 C727 1.355 . S
C726 C728 1.415 . S
C727 C726 1.355 . S
C727 C729 1.419 . S
C728 C726 1.415 . S
C728 C733 1.425 . S
C728 C735 1.409 . S
C729 H721 0.930 . S
C729 C727 1.419 . S
C729 C730 1.362 . S
C730 H722 0.930 . S
C730 C729 1.362 . S
C730 C733 1.409 . S
C731 H723 0.930 . S
C731 C732 1.355 . S
C731 C733 1.415 . S
C732 C731 1.355 . S
C732 C734 1.419 . S
C733 C728 1.425 . S
C733 C730 1.409 . S
C733 C731 1.415 . S
C734 H724 0.930 . S
C734 C732 1.419 . S
C734 C735 1.362 . S
C735 H725 0.930 . S
C735 C728 1.409 . S
C735 C734 1.362 . S
H736 C742 0.930 . S
H737 C745 0.930 . S
H738 C746 0.930 . S
H739 C747 0.930 . S
H740 C750 0.930 . S
H741 C751 0.930 . S
C742 H736 0.930 . S
C742 C743 1.355 . S
C742 C744 1.415 . S
C743 C742 1.355 . S
C743 C745 1.419 . S
C744 C742 1.415 . S
C744 C749 1.425 . S
C744 C751 1.409 . S
C745 H737 0.930 . S
C745 C743 1.419 . S
C745 C746 1.362 . S
C746 H738 0.930 . S
C746 C745 1.362 . S
C746 C749 1.409 . S
C747 H739 0.930 . S
C747 C748 1.355 . S
C747 C749 1.415 . S
C748 C747 1.355 . S
C748 C750 1.419 . S
C749 C744 1.425 . S
C749 C746 1.409 . S
C749 C747 1.415 . S
C750 H740 0.930 . S
C750 C748 1.419 . S
C750 C751 1.362 . S
C751 H741 0.930 . S
C751 C744 1.409 . S
C751 C750 1.362 . S
H752 C758 0.930 . S
H753 C761 0.930 . S
H754 C762 0.930 . S
H755 C763 0.930 . S
H756 C766 0.930 . S
H757 C767 0.930 . S
C758 H752 0.930 . S
C758 C759 1.355 . S
C758 C760 1.415 . S
C759 C758 1.355 . S
C759 C761 1.419 . S
C760 C758 1.415 . S
C760 C765 1.425 . S
C760 C767 1.409 . S
C761 H753 0.930 . S
C761 C759 1.419 . S
C761 C762 1.362 . S
C762 H754 0.930 . S
C762 C761 1.362 . S
C762 C765 1.409 . S
C763 H755 0.930 . S
C763 C764 1.355 . S
C763 C765 1.415 . S
C764 C763 1.355 . S
C764 C766 1.419 . S
C765 C760 1.425 . S
C765 C762 1.409 . S
C765 C763 1.415 . S
C766 H756 0.930 . S
C766 C764 1.419 . S
C766 C767 1.362 . S
C767 H757 0.930 . S
C767 C760 1.409 . S
C767 C766 1.362 . S
H768 C774 0.930 . S
H769 C777 0.930 . S
H770 C778 0.930 . S
H771 C779 0.930 . S
H772 C782 0.930 . S
H773 C783 0.930 . S
C774 H768 0.930 . S
C774 C775 1.355 . S
C774 C776 1.415 . S
C775 C774 1.355 . S
C775 C777 1.419 . S
C776 C774 1.415 . S
C776 C781 1.425 . S
C776 C783 1.409 . S
C777 H769 0.930 . S
C777 C775 1.419 . S
C777 C778 1.362 . S
C778 H770 0.930 . S
C778 C777 1.362 . S
C778 C781 1.409 . S
C779 H771 0.930 . S
C779 C780 1.355 . S
C779 C781 1.415 . S
C780 C779 1.355 . S
C780 C782 1.419 . S
C781 C776 1.425 . S
C781 C778 1.409 . S
C781 C779 1.415 . S
C782 H772 0.930 . S
C782 C780 1.419 . S
C782 C783 1.362 . S
C783 H773 0.930 . S
C783 C776 1.409 . S
C783 C782 1.362 . S
H784 C790 0.930 . S
H785 C793 0.930 . S
H786 C794 0.930 . S
H787 C795 0.930 . S
H788 C798 0.930 . S
H789 C799 0.930 . S
C790 H784 0.930 . S
C790 C791 1.355 . S
C790 C792 1.415 . S
C791 C790 1.355 . S
C791 C793 1.419 . S
C792 C790 1.415 . S
C792 C797 1.425 . S
C792 C799 1.409 . S
C793 H785 0.930 . S
C793 C791 1.419 . S
C793 C794 1.362 . S
C794 H786 0.930 . S
C794 C793 1.362 . S
C794 C797 1.409 . S
C795 H787 0.930 . S
C795 C796 1.355 . S
C795 C797 1.415 . S
C796 C795 1.355 . S
C796 C798 1.419 . S
C797 C792 1.425 . S
C797 C794 1.409 . S
C797 C795 1.415 . S
C798 H788 0.930 . S
C798 C796 1.419 . S
C798 C799 1.362 . S
C799 H789 0.930 . S
C799 C792 1.409 . S
C799 C798 1.362 . S
H800 C806 0.930 . S
H801 C809 0.930 1_455 S
H802 C810 0.930 . S
H803 C811 0.930 . S
H804 C814 0.930 . S
H805 C815 0.930 . S
C806 H800 0.930 . S
C806 C807 1.355 . S
C806 C808 1.415 1_554 S
C807 C806 1.355 . S
C807 C809 1.419 . S
C808 C806 1.415 1_556 S
C808 C813 1.425 . S
C808 C815 1.409 . S
C809 H801 0.930 1_655 S
C809 C807 1.419 . S
C809 C810 1.362 . S
C810 H802 0.930 . S
C810 C809 1.362 . S
C810 C813 1.409 1_554 S
C811 H803 0.930 . S
C811 C812 1.355 . S
C811 C813 1.415 . S
C812 C811 1.355 . S
C812 C814 1.419 . S
C813 C808 1.425 . S
C813 C810 1.409 1_556 S
C813 C811 1.415 . S
C814 H804 0.930 . S
C814 C812 1.419 . S
C814 C815 1.362 . S
C815 H805 0.930 . S
C815 C808 1.409 . S
C815 C814 1.362 . S
H816 C822 0.930 . S
H817 C825 0.930 . S
H818 C826 0.930 . S
H819 C827 0.930 . S
H820 C830 0.930 . S
H821 C831 0.930 . S
C822 H816 0.930 . S
C822 C823 1.355 . S
C822 C824 1.415 . S
C823 C822 1.355 . S
C823 C825 1.419 . S
C824 C822 1.415 . S
C824 C829 1.425 . S
C824 C831 1.409 . S
C825 H817 0.930 . S
C825 C823 1.419 . S
C825 C826 1.362 . S
C826 H818 0.930 . S
C826 C825 1.362 . S
C826 C829 1.409 . S
C827 H819 0.930 . S
C827 C828 1.355 . S
C827 C829 1.415 . S
C828 C827 1.355 . S
C828 C830 1.419 . S
C829 C824 1.425 . S
C829 C826 1.409 . S
C829 C827 1.415 . S
C830 H820 0.930 . S
C830 C828 1.419 . S
C830 C831 1.362 . S
C831 H821 0.930 . S
C831 C824 1.409 . S
C831 C830 1.362 . S
H832 C838 0.930 . S
H833 C841 0.930 1_556 S
H834 C842 0.930 . S
H835 C843 0.930 . S
H836 C846 0.930 . S
H837 C847 0.930 . S
C838 H832 0.930 . S
C838 C839 1.355 . S
C838 C840 1.415 . S
C839 C838 1.355 . S
C839 C841 1.419 . S
C840 C838 1.415 . S
C840 C845 1.425 . S
C840 C847 1.409 . S
C841 H833 0.930 1_554 S
C841 C839 1.419 . S
C841 C842 1.362 . S
C842 H834 0.930 . S
C842 C841 1.362 . S
C842 C845 1.409 . S
C843 H835 0.930 . S
C843 C844 1.355 . S
C843 C845 1.415 . S
C844 C843 1.355 . S
C844 C846 1.419 . S
C845 C840 1.425 . S
C845 C842 1.409 . S
C845 C843 1.415 . S
C846 H836 0.930 . S
C846 C844 1.419 . S
C846 C847 1.362 . S
C847 H837 0.930 . S
C847 C840 1.409 . S
C847 C846 1.362 . S
H848 C854 0.930 . S
H849 C857 0.930 . S
H850 C858 0.930 . S
H851 C859 0.930 . S
H852 C862 0.930 . S
H853 C863 0.930 . S
C854 H848 0.930 . S
C854 C855 1.355 . S
C854 C856 1.415 . S
C855 C854 1.355 . S
C855 C857 1.419 . S
C856 C854 1.415 . S
C856 C861 1.425 . S
C856 C863 1.409 . S
C857 H849 0.930 . S
C857 C855 1.419 . S
C857 C858 1.362 . S
C858 H850 0.930 . S
C858 C857 1.362 . S
C858 C861 1.409 . S
C859 H851 0.930 . S
C859 C860 1.355 . S
C859 C861 1.415 . S
C860 C859 1.355 . S
C860 C862 1.419 . S
C861 C856 1.425 . S
C861 C858 1.409 . S
C861 C859 1.415 . S
C862 H852 0.930 . S
C862 C860 1.419 . S
C862 C863 1.362 . S
C863 H853 0.930 . S
C863 C856 1.409 . S
C863 C862 1.362 . S
H864 C870 0.930 . S
H865 C873 0.930 1_455 S
H866 C874 0.930 1_455 S
H867 C875 0.930 . S
H868 C878 0.930 . S
H869 C879 0.930 . S
C870 H864 0.930 . S
C870 C871 1.355 . S
C870 C872 1.415 . S
C871 C870 1.355 . S
C871 C873 1.419 . S
C872 C870 1.415 . S
C872 C877 1.425 . S
C872 C879 1.409 . S
C873 H865 0.930 1_655 S
C873 C871 1.419 . S
C873 C874 1.362 . S
C874 H866 0.930 1_655 S
C874 C873 1.362 . S
C874 C877 1.409 . S
C875 H867 0.930 . S
C875 C876 1.355 . S
C875 C877 1.415 . S
C876 C875 1.355 . S
C876 C878 1.419 . S
C877 C872 1.425 . S
C877 C874 1.409 . S
C877 C875 1.415 . S
C878 H868 0.930 . S
C878 C876 1.419 . S
C878 C879 1.362 . S
C879 H869 0.930 . S
C879 C872 1.409 . S
C879 C878 1.362 . S
H880 C886 0.930 . S
H881 C889 0.930 . S
H882 C890 0.930 . S
H883 C891 0.930 . S
H884 C894 0.930 . S
H885 C895 0.930 . S
C886 H880 0.930 . S
C886 C887 1.355 . S
C886 C888 1.415 . S
C887 C886 1.355 . S
C887 C889 1.419 . S
C888 C886 1.415 . S
C888 C893 1.425 . S
C888 C895 1.409 . S
C889 H881 0.930 . S
C889 C887 1.419 . S
C889 C890 1.362 . S
C890 H882 0.930 . S
C890 C889 1.362 . S
C890 C893 1.409 . S
C891 H883 0.930 . S
C891 C892 1.355 . S
C891 C893 1.415 . S
C892 C891 1.355 . S
C892 C894 1.419 . S
C893 C888 1.425 . S
C893 C890 1.409 . S
C893 C891 1.415 . S
C894 H884 0.930 . S
C894 C892 1.419 . S
C894 C895 1.362 . S
C895 H885 0.930 . S
C895 C888 1.409 . S
C895 C894 1.362 . S
H896 C902 0.930 . S
H897 C905 0.930 . S
H898 C906 0.930 . S
H899 C907 0.930 . S
H900 C910 0.930 . S
H901 C911 0.930 . S
C902 H896 0.930 . S
C902 C903 1.355 . S
C902 C904 1.415 . S
C903 C902 1.355 . S
C903 C905 1.419 . S
C904 C902 1.415 . S
C904 C909 1.425 . S
C904 C911 1.409 . S
C905 H897 0.930 . S
C905 C903 1.419 . S
C905 C906 1.362 . S
C906 H898 0.930 . S
C906 C905 1.362 . S
C906 C909 1.409 . S
C907 H899 0.930 . S
C907 C908 1.355 . S
C907 C909 1.415 . S
C908 C907 1.355 . S
C908 C910 1.419 . S
C909 C904 1.425 . S
C909 C906 1.409 . S
C909 C907 1.415 . S
C910 H900 0.930 . S
C910 C908 1.419 . S
C910 C911 1.362 . S
C911 H901 0.930 . S
C911 C904 1.409 . S
C911 C910 1.362 . S
H912 C918 0.930 . S
H913 C921 0.930 . S
H914 C922 0.930 . S
H915 C923 0.930 . S
H916 C926 0.930 . S
H917 C927 0.930 . S
C918 H912 0.930 . S
C918 C919 1.355 . S
C918 C920 1.415 . S
C919 C918 1.355 . S
C919 C921 1.419 . S
C920 C918 1.415 . S
C920 C925 1.425 . S
C920 C927 1.409 . S
C921 H913 0.930 . S
C921 C919 1.419 . S
C921 C922 1.362 . S
C922 H914 0.930 . S
C922 C921 1.362 . S
C922 C925 1.409 . S
C923 H915 0.930 . S
C923 C924 1.355 . S
C923 C925 1.415 . S
C924 C923 1.355 . S
C924 C926 1.419 . S
C925 C920 1.425 . S
C925 C922 1.409 . S
C925 C923 1.415 . S
C926 H916 0.930 . S
C926 C924 1.419 . S
C926 C927 1.362 . S
C927 H917 0.930 . S
C927 C920 1.409 . S
C927 C926 1.362 . S
H928 C934 0.930 . S
H929 C937 0.930 . S
H930 C938 0.930 . S
H931 C939 0.930 . S
H932 C942 0.930 . S
H933 C943 0.930 . S
C934 H928 0.930 . S
C934 C935 1.355 1_455 S
C934 C936 1.415 . S
C935 C934 1.355 1_655 S
C935 C937 1.419 . S
C936 C934 1.415 . S
C936 C941 1.425 . S
C936 C943 1.409 . S
C937 H929 0.930 . S
C937 C935 1.419 . S
C937 C938 1.362 1_655 S
C938 H930 0.930 . S
C938 C937 1.362 1_455 S
C938 C941 1.409 . S
C939 H931 0.930 . S
C939 C940 1.355 . S
C939 C941 1.415 . S
C940 C939 1.355 . S
C940 C942 1.419 . S
C941 C936 1.425 . S
C941 C938 1.409 . S
C941 C939 1.415 . S
C942 H932 0.930 . S
C942 C940 1.419 . S
C942 C943 1.362 . S
C943 H933 0.930 . S
C943 C936 1.409 . S
C943 C942 1.362 . S
H944 C950 0.930 . S
H945 C953 0.930 . S
H946 C954 0.930 . S
H947 C955 0.930 . S
H948 C958 0.930 . S
H949 C959 0.930 . S
C950 H944 0.930 . S
C950 C951 1.355 . S
C950 C952 1.415 . S
C951 C950 1.355 . S
C951 C953 1.419 . S
C952 C950 1.415 . S
C952 C957 1.425 . S
C952 C959 1.409 . S
C953 H945 0.930 . S
C953 C951 1.419 . S
C953 C954 1.362 . S
C954 H946 0.930 . S
C954 C953 1.362 . S
C954 C957 1.409 . S
C955 H947 0.930 . S
C955 C956 1.355 . S
C955 C957 1.415 . S
C956 C955 1.355 . S
C956 C958 1.419 . S
C957 C952 1.425 . S
C957 C954 1.409 . S
C957 C955 1.415 . S
C958 H948 0.930 . S
C958 C956 1.419 . S
C958 C959 1.362 . S
C959 H949 0.930 . S
C959 C952 1.409 . S
C959 C958 1.362 . S
H960 C966 0.930 . S
H961 C969 0.930 . S
H962 C970 0.930 . S
H963 C971 0.930 . S
H964 C974 0.930 . S
H965 C975 0.930 . S
C966 H960 0.930 . S
C966 C967 1.355 . S
C966 C968 1.415 . S
C967 C966 1.355 . S
C967 C969 1.419 . S
C968 C966 1.415 . S
C968 C973 1.425 . S
C968 C975 1.409 . S
C969 H961 0.930 . S
C969 C967 1.419 . S
C969 C970 1.362 . S
C970 H962 0.930 . S
C970 C969 1.362 . S
C970 C973 1.409 . S
C971 H963 0.930 . S
C971 C972 1.355 . S
C971 C973 1.415 . S
C972 C971 1.355 . S
C972 C974 1.419 . S
C973 C968 1.425 . S
C973 C970 1.409 . S
C973 C971 1.415 . S
C974 H964 0.930 . S
C974 C972 1.419 . S
C974 C975 1.362 . S
C975 H965 0.930 . S
C975 C968 1.409 . S
C975 C974 1.362 . S
H976 C982 0.930 . S
H977 C985 0.930 . S
H978 C986 0.930 . S
H979 C987 0.930 . S
H980 C990 0.930 . S
H981 C991 0.930 . S
C982 H976 0.930 . S
C982 C983 1.355 . S
C982 C984 1.415 . S
C983 C982 1.355 . S
C983 C985 1.419 . S
C984 C982 1.415 . S
C984 C989 1.425 . S
C984 C991 1.409 . S
C985 H977 0.930 . S
C985 C983 1.419 . S
C985 C986 1.362 . S
C986 H978 0.930 . S
C986 C985 1.362 . S
C986 C989 1.409 . S
C987 H979 0.930 . S
C987 C988 1.355 . S
C987 C989 1.415 . S
C988 C987 1.355 . S
C988 C990 1.419 . S
C989 C984 1.425 . S
C989 C986 1.409 . S
C989 C987 1.415 . S
C990 H980 0.930 . S
C990 C988 1.419 . S
C990 C991 1.362 . S
C991 H981 0.930 . S
C991 C984 1.409 . S
C991 C990 1.362 . S
H992 C998 0.930 1_655 S
H993 C1001 0.930 . S
H994 C1002 0.930 . S
H995 C1003 0.930 . S
H996 C1006 0.930 . S
H997 C1007 0.930 . S
C998 H992 0.930 1_455 S
C998 C999 1.355 1_455 S
C998 C1000 1.415 . S
C999 C998 1.355 1_655 S
C999 C1001 1.419 1_655 S
C1000 C998 1.415 . S
C1000 C1005 1.425 . S
C1000 C1007 1.409 . S
C1001 H993 0.930 . S
C1001 C999 1.419 1_455 S
C1001 C1002 1.362 . S
C1002 H994 0.930 . S
C1002 C1001 1.362 . S
C1002 C1005 1.409 . S
C1003 H995 0.930 . S
C1003 C1004 1.355 . S
C1003 C1005 1.415 . S
C1004 C1003 1.355 . S
C1004 C1006 1.419 . S
C1005 C1000 1.425 . S
C1005 C1002 1.409 . S
C1005 C1003 1.415 . S
C1006 H996 0.930 . S
C1006 C1004 1.419 . S
C1006 C1007 1.362 . S
C1007 H997 0.930 . S
C1007 C1000 1.409 . S
C1007 C1006 1.362 . S
H1008 C1014 0.930 . S
H1009 C1017 0.930 . S
H1010 C1018 0.930 . S
H1011 C1019 0.930 . S
H1012 C1022 0.930 . S
H1013 C1023 0.930 . S
C1014 H1008 0.930 . S
C1014 C1015 1.355 . S
C1014 C1016 1.415 . S
C1015 C1014 1.355 . S
C1015 C1017 1.419 . S
C1016 C1014 1.415 . S
C1016 C1021 1.425 . S
C1016 C1023 1.409 . S
C1017 H1009 0.930 . S
C1017 C1015 1.419 . S
C1017 C1018 1.362 . S
C1018 H1010 0.930 . S
C1018 C1017 1.362 . S
C1018 C1021 1.409 . S
C1019 H1011 0.930 . S
C1019 C1020 1.355 . S
C1019 C1021 1.415 . S
C1020 C1019 1.355 . S
C1020 C1022 1.419 . S
C1021 C1016 1.425 . S
C1021 C1018 1.409 . S
C1021 C1019 1.415 . S
C1022 H1012 0.930 . S
C1022 C1020 1.419 . S
C1022 C1023 1.362 . S
C1023 H1013 0.930 . S
C1023 C1016 1.409 . S
C1023 C1022 1.362 . S
H1024 C1030 0.930 . S
H1025 C1033 0.930 . S
H1026 C1034 0.930 . S
H1027 C1035 0.930 . S
H1028 C1038 0.930 . S
H1029 C1039 0.930 . S
C1030 H1024 0.930 . S
C1030 C1031 1.355 . S
C1030 C1032 1.415 . S
C1031 C1030 1.355 . S
C1031 C1033 1.419 . S
C1032 C1030 1.415 . S
C1032 C1037 1.425 . S
C1032 C1039 1.409 . S
C1033 H1025 0.930 . S
C1033 C1031 1.419 . S
C1033 C1034 1.362 . S
C1034 H1026 0.930 . S
C1034 C1033 1.362 . S
C1034 C1037 1.409 . S
C1035 H1027 0.930 . S
C1035 C1036 1.355 . S
C1035 C1037 1.415 . S
C1036 C1035 1.355 . S
C1036 C1038 1.419 . S
C1037 C1032 1.425 . S
C1037 C1034 1.409 . S
C1037 C1035 1.415 . S
C1038 H1028 0.930 . S
C1038 C1036 1.419 . S
C1038 C1039 1.362 . S
C1039 H1029 0.930 . S
C1039 C1032 1.409 . S
C1039 C1038 1.362 . S
H1040 C1046 0.930 1_565 S
H1041 C1049 0.930 . S
H1042 C1050 0.930 . S
H1043 C1051 0.930 . S
H1044 C1054 0.930 . S
H1045 C1055 0.930 . S
C1046 H1040 0.930 1_545 S
C1046 C1047 1.350 1_545 S
C1046 C1048 1.415 . S
C1047 C1046 1.350 1_565 S
C1047 C1049 1.404 1_565 S
C1048 C1046 1.415 . S
C1048 C1053 1.425 . S
C1048 C1055 1.409 . S
C1049 H1041 0.930 . S
C1049 C1047 1.404 1_545 S
C1049 C1050 1.362 . S
C1050 H1042 0.930 . S
C1050 C1049 1.362 . S
C1050 C1053 1.409 . S
C1051 H1043 0.930 . S
C1051 C1052 1.355 . S
C1051 C1053 1.415 . S
C1052 C1051 1.355 . S
C1052 C1054 1.419 . S
C1053 C1048 1.425 . S
C1053 C1050 1.409 . S
C1053 C1051 1.415 . S
C1054 H1044 0.930 . S
C1054 C1052 1.419 . S
C1054 C1055 1.362 . S
C1055 H1045 0.930 . S
C1055 C1048 1.409 . S
C1055 C1054 1.362 . S
H1056 C1062 0.930 . S
H1057 C1065 0.930 . S
H1058 C1066 0.930 . S
H1059 C1067 0.930 . S
H1060 C1070 0.930 . S
H1061 C1071 0.930 . S
C1062 H1056 0.930 . S
C1062 C1063 1.355 . S
C1062 C1064 1.415 . S
C1063 C1062 1.355 . S
C1063 C1065 1.419 . S
C1064 C1062 1.415 . S
C1064 C1069 1.425 . S
C1064 C1071 1.409 . S
C1065 H1057 0.930 . S
C1065 C1063 1.419 . S
C1065 C1066 1.362 . S
C1066 H1058 0.930 . S
C1066 C1065 1.362 . S
C1066 C1069 1.409 . S
C1067 H1059 0.930 . S
C1067 C1068 1.355 . S
C1067 C1069 1.415 . S
C1068 C1067 1.355 . S
C1068 C1070 1.419 . S
C1069 C1064 1.425 . S
C1069 C1066 1.409 . S
C1069 C1067 1.415 . S
C1070 H1060 0.930 . S
C1070 C1068 1.419 . S
C1070 C1071 1.362 . S
C1071 H1061 0.930 . S
C1071 C1064 1.409 . S
C1071 C1070 1.362 . S
H1072 C1078 0.930 . S
H1073 C1081 0.930 1_554 S
H1074 C1082 0.930 1_554 S
H1075 C1083 0.930 . S
H1076 C1086 0.930 . S
H1077 C1087 0.930 . S
C1078 H1072 0.930 . S
C1078 C1079 1.355 . S
C1078 C1080 1.415 1_545 S
C1079 C1078 1.355 . S
C1079 C1081 1.419 . S
C1080 C1078 1.415 1_565 S
C1080 C1085 1.425 . S
C1080 C1087 1.409 . S
C1081 H1073 0.930 1_556 S
C1081 C1079 1.419 . S
C1081 C1082 1.362 1_545 S
C1082 H1074 0.930 1_556 S
C1082 C1081 1.362 1_565 S
C1082 C1085 1.409 . S
C1083 H1075 0.930 . S
C1083 C1084 1.355 . S
C1083 C1085 1.415 . S
C1084 C1083 1.355 . S
C1084 C1086 1.419 . S
C1085 C1080 1.425 . S
C1085 C1082 1.409 . S
C1085 C1083 1.415 . S
C1086 H1076 0.930 . S
C1086 C1084 1.419 . S
C1086 C1087 1.362 . S
C1087 H1077 0.930 . S
C1087 C1080 1.409 . S
C1087 C1086 1.362 . S
H1088 C1094 0.930 . S
H1089 C1097 0.930 . S
H1090 C1098 0.930 . S
H1091 C1099 0.930 . S
H1092 C1102 0.930 . S
H1093 C1103 0.930 . S
C1094 H1088 0.930 . S
C1094 C1095 1.355 . S
C1094 C1096 1.415 . S
C1095 C1094 1.355 . S
C1095 C1097 1.419 . S
C1096 C1094 1.415 . S
C1096 C1101 1.425 . S
C1096 C1103 1.409 . S
C1097 H1089 0.930 . S
C1097 C1095 1.419 . S
C1097 C1098 1.362 . S
C1098 H1090 0.930 . S
C1098 C1097 1.362 . S
C1098 C1101 1.409 . S
C1099 H1091 0.930 . S
C1099 C1100 1.355 . S
C1099 C1101 1.415 . S
C1100 C1099 1.355 . S
C1100 C1102 1.419 . S
C1101 C1096 1.425 . S
C1101 C1098 1.409 . S
C1101 C1099 1.415 . S
C1102 H1092 0.930 . S
C1102 C1100 1.419 . S
C1102 C1103 1.362 . S
C1103 H1093 0.930 . S
C1103 C1096 1.409 . S
C1103 C1102 1.362 . S
H1104 C1110 0.930 . S
H1105 C1113 0.930 . S
H1106 C1114 0.930 . S
H1107 C1115 0.930 . S
H1108 C1118 0.930 . S
H1109 C1119 0.930 . S
C1110 H1104 0.930 . S
C1110 C1111 1.355 . S
C1110 C1112 1.415 . S
C1111 C1110 1.355 . S
C1111 C1113 1.419 . S
C1112 C1110 1.415 . S
C1112 C1117 1.425 . S
C1112 C1119 1.409 . S
C1113 H1105 0.930 . S
C1113 C1111 1.419 . S
C1113 C1114 1.362 . S
C1114 H1106 0.930 . S
C1114 C1113 1.362 . S
C1114 C1117 1.409 . S
C1115 H1107 0.930 . S
C1115 C1116 1.355 . S
C1115 C1117 1.415 . S
C1116 C1115 1.355 . S
C1116 C1118 1.419 . S
C1117 C1112 1.425 . S
C1117 C1114 1.409 . S
C1117 C1115 1.415 . S
C1118 H1108 0.930 . S
C1118 C1116 1.419 . S
C1118 C1119 1.362 . S
C1119 H1109 0.930 . S
C1119 C1112 1.409 . S
C1119 C1118 1.362 . S
H1120 C1126 0.930 . S
H1121 C1129 0.930 1_545 S
H1122 C1130 0.930 . S
H1123 C1131 0.930 . S
H1124 C1134 0.930 . S
H1125 C1135 0.930 . S
C1126 H1120 0.930 . S
C1126 C1127 1.355 . S
C1126 C1128 1.415 . S
C1127 C1126 1.355 . S
C1127 C1129 1.419 . S
C1128 C1126 1.415 . S
C1128 C1133 1.425 . S
C1128 C1135 1.409 . S
C1129 H1121 0.930 1_565 S
C1129 C1127 1.419 . S
C1129 C1130 1.362 . S
C1130 H1122 0.930 . S
C1130 C1129 1.362 . S
C1130 C1133 1.409 . S
C1131 H1123 0.930 . S
C1131 C1132 1.355 . S
C1131 C1133 1.415 . S
C1132 C1131 1.355 . S
C1132 C1134 1.419 . S
C1133 C1128 1.425 . S
C1133 C1130 1.409 . S
C1133 C1131 1.415 . S
C1134 H1124 0.930 . S
C1134 C1132 1.419 . S
C1134 C1135 1.362 . S
C1135 H1125 0.930 . S
C1135 C1128 1.409 . S
C1135 C1134 1.362 . S
H1136 C1142 0.930 . S
H1137 C1145 0.930 . S
H1138 C1146 0.930 . S
H1139 C1147 0.930 . S
H1140 C1150 0.930 . S
H1141 C1151 0.930 . S
C1142 H1136 0.930 . S
C1142 C1143 1.355 . S
C1142 C1144 1.415 . S
C1143 C1142 1.355 . S
C1143 C1145 1.419 . S
C1144 C1142 1.415 . S
C1144 C1149 1.425 . S
C1144 C1151 1.409 . S
C1145 H1137 0.930 . S
C1145 C1143 1.419 . S
C1145 C1146 1.362 . S
C1146 H1138 0.930 . S
C1146 C1145 1.362 . S
C1146 C1149 1.409 . S
C1147 H1139 0.930 . S
C1147 C1148 1.355 . S
C1147 C1149 1.415 . S
C1148 C1147 1.355 . S
C1148 C1150 1.419 . S
C1149 C1144 1.425 . S
C1149 C1146 1.409 . S
C1149 C1147 1.415 . S
C1150 H1140 0.930 . S
C1150 C1148 1.419 . S
C1150 C1151 1.362 . S
C1151 H1141 0.930 . S
C1151 C1144 1.409 . S
C1151 C1150 1.362 . S
C396 C373 1.301 . S
C391 C8 1.320 . S
C407 C23 1.208 . S
C412 C326 1.137 . S
C423 C35 1.364 . S
C428 C337 1.305 . S
C444 C362 1.074 . S
C439 C45 1.226 . S
C455 C22 1.386 . S
C460 C380 1.344 . S
C476 C319 1.037 . S
C471 C31 1.239 . S
C492 C344 1.300 . S
C487 C49 1.405 1_554 S
C508 C355 1.089 . S
C503 C9 1.179 . S
C519 C65 1.264 . S
C524 C356 1.314 . S
C540 C382 1.174 . S
C535 C73 1.274 . S
C556 C320 1.400 . S
C551 C93 1.364 1_565 S
C572 C346 0.967 . S
C567 C101 1.240 . S
C583 C59 1.330 . S
C588 C328 1.209 . S
C599 C79 1.192 . S
C604 C338 1.115 . S
C615 C87 1.323 . S
C620 C364 1.198 . S
C636 C374 1.204 . S
C631 C107 1.355 . S
C652 C211 1.413 . S
C647 C106 1.442 . S
C668 C194 1.248 . S
C663 C119 1.345 . S
C684 C220 1.134 . S
C679 C134 1.258 . S
C700 C238 1.187 . S
C695 C147 1.330 . S
C711 C64 1.224 . S
C716 C212 1.170 . S
C727 C78 1.354 1_545 S
C732 C182 1.302 . S
C743 C133 1.332 . S
C748 C236 1.068 . S
C759 C161 1.322 . S
C764 C193 1.154 . S
C780 C247 1.329 . S
C775 C36 1.339 . S
C796 C272 1.131 . S
C791 C51 1.209 . S
C807 C7 1.367 . S
C812 C283 1.285 . S
C823 C17 1.275 . S
C828 C308 1.163 . S
C844 C254 1.346 . S
C839 C50 1.384 1_554 S
C860 C265 1.055 . S
C855 C3 1.244 . S
C871 C21 1.403 . S
C876 C290 1.221 . S
C892 C301 1.098 . S
C887 C37 1.176 . S
C903 C163 1.330 . S
C908 C302 1.362 . S
C919 C115 1.223 . S
C924 C256 1.156 . S
C940 C266 1.387 . S
C935 C135 1.380 . S
C951 C143 1.217 . S
C956 C292 1.120 . S
C972 C274 1.235 . S
C967 C157 1.298 . S
C983 C121 1.194 . S
C988 C284 1.191 . S
C1004 C310 1.266 . S
C999 C129 1.293 . S
C1020 C248 1.266 . S
C1015 C149 1.334 . S
C1036 C175 1.343 . S
C1031 C148 1.412 . S
C1052 C230 1.218 . S
C1047 C77 1.368 . S
C1063 C92 1.264 . S
C1068 C184 1.123 . S
C1084 C202 1.204 . S
C1079 C105 1.330 . S
C1100 C176 1.083 . S
C1095 C162 1.235 . S
C1111 C120 1.399 . S
C1116 C218 1.328 . S
C1127 C91 1.324 . S
C1132 C200 1.026 . S
C1143 C63 1.315 . S
C1148 C229 1.109 . S
