# Generated by pormake.
# Topology zzz, (3,6)-cn, num edge types: 1
# Building blocks:
#     Node 0, Type 0, BuildingBlock: BETDAH_clean_linker_0, # of connection points: 3
#     Node 1, Type 0, BuildingBlock: BETDAH_clean_linker_0, # of connection points: 3
#     Node 2, Type 0, BuildingBlock: BETDAH_clean_linker_0, # of connection points: 3
#     Node 3, Type 0, BuildingBlock: BETDAH_clean_linker_0, # of connection points: 3
#     Node 4, Type 0, BuildingBlock: BETDAH_clean_linker_0, # of connection points: 3
#     Node 5, Type 0, BuildingBlock: BETDAH_clean_linker_0, # of connection points: 3
#     Node 6, Type 0, BuildingBlock: BETDAH_clean_linker_0, # of connection points: 3
#     Node 7, Type 0, BuildingBlock: BETDAH_clean_linker_0, # of connection points: 3
#     Node 8, Type 1, BuildingBlock: CUWYAW_clean_sbu_0, # of connection points: 6
#     Node 9, Type 1, BuildingBlock: CUWYAW_clean_sbu_0, # of connection points: 6
#     Node 10, Type 1, BuildingBlock: CUWYAW_clean_sbu_0, # of connection points: 6
#     Node 11, Type 1, BuildingBlock: CUWYAW_clean_sbu_0, # of connection points: 6
#     Edge 12, Type (0, 1), BuildingBlock: XIVTED_clean_linker_0, # of connection points: 2
#     Edge 13, Type (0, 1), BuildingBlock: XIVTED_clean_linker_0, # of connection points: 2
#     Edge 14, Type (0, 1), BuildingBlock: XIVTED_clean_linker_0, # of connection points: 2
#     Edge 15, Type (0, 1), BuildingBlock: XIVTED_clean_linker_0, # of connection points: 2
#     Edge 16, Type (0, 1), BuildingBlock: XIVTED_clean_linker_0, # of connection points: 2
#     Edge 17, Type (0, 1), BuildingBlock: XIVTED_clean_linker_0, # of connection points: 2
#     Edge 18, Type (0, 1), BuildingBlock: XIVTED_clean_linker_0, # of connection points: 2
#     Edge 19, Type (0, 1), BuildingBlock: XIVTED_clean_linker_0, # of connection points: 2
#     Edge 20, Type (0, 1), BuildingBlock: XIVTED_clean_linker_0, # of connection points: 2
#     Edge 21, Type (0, 1), BuildingBlock: XIVTED_clean_linker_0, # of connection points: 2
#     Edge 22, Type (0, 1), BuildingBlock: XIVTED_clean_linker_0, # of connection points: 2
#     Edge 23, Type (0, 1), BuildingBlock: XIVTED_clean_linker_0, # of connection points: 2
#     Edge 24, Type (0, 1), BuildingBlock: XIVTED_clean_linker_0, # of connection points: 2
#     Edge 25, Type (0, 1), BuildingBlock: XIVTED_clean_linker_0, # of connection points: 2
#     Edge 26, Type (0, 1), BuildingBlock: XIVTED_clean_linker_0, # of connection points: 2
#     Edge 27, Type (0, 1), BuildingBlock: XIVTED_clean_linker_0, # of connection points: 2
#     Edge 28, Type (0, 1), BuildingBlock: XIVTED_clean_linker_0, # of connection points: 2
#     Edge 29, Type (0, 1), BuildingBlock: XIVTED_clean_linker_0, # of connection points: 2
#     Edge 30, Type (0, 1), BuildingBlock: XIVTED_clean_linker_0, # of connection points: 2
#     Edge 31, Type (0, 1), BuildingBlock: XIVTED_clean_linker_0, # of connection points: 2
#     Edge 32, Type (0, 1), BuildingBlock: XIVTED_clean_linker_0, # of connection points: 2
#     Edge 33, Type (0, 1), BuildingBlock: XIVTED_clean_linker_0, # of connection points: 2
#     Edge 34, Type (0, 1), BuildingBlock: XIVTED_clean_linker_0, # of connection points: 2
#     Edge 35, Type (0, 1), BuildingBlock: XIVTED_clean_linker_0, # of connection points: 2
# Relax obj value: 0.263
# Max RMSD: 0.164
# Mean RMSD: 0.137
data_MOF--net-zzz--node1-CUWYAW_clean_sbu_0--node2-BETDAH_clean_linker_0--edge1-XIVTED_clean_linker_0
_symmetry_space_group_name_H-M    P1
_symmetry_Int_Tables_number       1
_symmetry_cell_setting            triclinic
loop_
_symmetry_equiv_pos_as_xyz
'x, y, z'
_cell_length_a     52.002134
_cell_length_b     51.977271
_cell_length_c     14.248644
_cell_angle_alpha  90.018068
_cell_angle_beta   89.906186
_cell_angle_gamma 89.934369
loop_
_atom_site_label
_atom_site_type_symbol
_atom_site_fract_x
_atom_site_fract_y
_atom_site_fract_z
_atom_type_partial_charge
H0 H 0.8081 0.55664 0.35994 0.0
H1 H 0.73048 0.54822 0.26398 0.0
H2 H 0.75822 0.50279 0.49729 0.0
C3 C 0.78907 0.54841 0.36881 0.0
C4 C 0.78564 0.52924 0.43628 0.0
C5 C 0.76938 0.55532 0.30662 0.0
C6 C 0.74533 0.5434 0.31424 0.0
C7 C 0.74085 0.52481 0.38458 0.0
C8 C 0.76117 0.51784 0.4458 0.0
N9 N 0.71664 0.51205 0.39216 0.0
C10 C 0.69689 0.5142 0.32599 0.0
H11 H 0.99251 0.80428 0.24314 0.0
H12 H 0.99926 0.72298 0.21187 0.0
H13 H 1.00805 0.75734 0.48639 0.0
C14 C 0.99541 0.78565 0.2757 0.0
C15 C 1.0007 0.78409 0.37234 0.0
C16 C 0.99517 0.7637 0.21862 0.0
C17 C 0.99909 0.73956 0.25795 0.0
C18 C 1.00319 0.73685 0.35488 0.0
C19 C 1.00401 0.75925 0.41219 0.0
N20 N 1.00739 0.7119 0.39425 0.0
C21 C 1.00846 0.68949 0.33943 0.0
H22 H 0.72226 0.04952 0.38148 0.0
H23 H 0.79121 0.03299 0.22612 0.0
H24 H 0.7615 0.97805 0.42586 0.0
C25 C 0.73889 0.03738 0.3687 0.0
C26 C 0.74011 1.01354 0.41371 0.0
C27 C 0.75693 0.04441 0.29993 0.0
C28 C 0.7775 0.02773 0.28006 0.0
C29 C 0.77962 1.0039 0.3268 0.0
C30 C 0.76056 0.99675 0.39249 0.0
N31 N 0.79997 0.98635 0.30646 0.0
C32 C 0.81922 0.99062 0.2398 0.0
H33 H 0.47457 0.72414 0.41548 0.0
H34 H 0.48667 0.7971 0.28123 0.0
H35 H 0.53998 0.76971 0.49124 0.0
C36 C 0.48516 0.74206 0.40999 0.0
C37 C 0.50763 0.74488 0.46239 0.0
C38 C 0.47762 0.76061 0.34404 0.0
C39 C 0.49233 0.78305 0.33338 0.0
C40 C 0.51461 0.78685 0.38807 0.0
C41 C 0.52237 0.76742 0.45161 0.0
N42 N 0.52995 0.80945 0.37852 0.0
C43 C 0.52549 0.82896 0.31294 0.0
H44 H 0.22205 0.5427 0.12555 0.0
H45 H 0.29554 0.53442 0.25926 0.0
H46 H 0.27056 0.47897 0.05236 0.0
C47 C 0.24035 0.53277 0.13169 0.0
C48 C 0.24419 0.5102 0.08054 0.0
C49 C 0.25865 0.54154 0.1963 0.0
C50 C 0.28171 0.52783 0.2079 0.0
C51 C 0.2865 0.50549 0.15427 0.0
C52 C 0.26743 0.4966 0.09139 0.0
N53 N 0.30983 0.49124 0.16363 0.0
C54 C 0.32944 0.49693 0.22742 0.0
H55 H 0.06555 0.22002 0.18439 0.0
H56 H 0.05345 0.29858 0.26366 0.0
H57 H 1.01146 0.26608 0.03054 0.0
C58 C 0.05671 0.23856 0.17075 0.0
C59 C 0.03831 0.24038 0.0993 0.0
C60 C 0.06205 0.25934 0.23053 0.0
C61 C 0.04962 0.28285 0.21587 0.0
C62 C 0.03149 0.28567 0.14331 0.0
C63 C 0.02606 0.26435 0.08431 0.0
N64 N 0.01754 0.30919 0.13264 0.0
C65 C 0.01822 0.32923 0.19848 0.0
H66 H 0.30241 0.97193 0.12275 0.0
H67 H 0.23083 0.98636 0.26418 0.0
H68 H 0.26066 0.0412 0.06404 0.0
C69 C 0.28515 0.98345 0.13153 0.0
C70 C 0.28348 1.00689 0.08406 0.0
C71 C 0.26648 0.97604 0.19738 0.0
C72 C 0.245 0.99191 0.21222 0.0
C73 C 0.24242 1.01526 0.16257 0.0
C74 C 0.26201 0.02283 0.09966 0.0
N75 N 0.22095 0.03188 0.17694 0.0
C76 C 0.20116 0.02718 0.24098 0.0
H77 H 0.54643 0.30354 0.15329 0.0
H78 H 0.53611 0.2266 0.25495 0.0
H79 H 0.48753 0.25608 0.03324 0.0
C80 C 0.53681 0.28506 0.14845 0.0
C81 C 0.51638 0.28228 0.08595 0.0
C82 C 0.54408 0.26507 0.20874 0.0
C83 C 0.53076 0.24167 0.20627 0.0
C84 C 0.51051 0.23802 0.14179 0.0
C85 C 0.50346 0.25847 0.08133 0.0
N86 N 0.49655 0.21442 0.13806 0.0
C87 C 0.4998 0.19415 0.20152 0.0
C88 C 0.9982 0.05463 0.51002 0.0
Eu89 Eu 1.00013 0.02393 0.65108 0.0
C90 C 1.01403 0.078 0.50326 0.0
C91 C 1.00267 0.10163 0.48077 0.0
C92 C 0.01646 0.12447 0.49272 0.0
C93 C 0.0418 0.12401 0.52752 0.0
C94 C 0.05333 0.10028 0.54767 0.0
C95 C 0.03953 0.07755 0.53632 0.0
C96 C 0.96372 1.00968 0.77667 0.0
C97 C 0.01938 0.0618 0.82651 0.0
C98 C 0.02077 0.97216 0.9894 0.0
Eu99 Eu 0.02062 1.00048 0.84222 0.0
C100 C 0.02592 0.94443 0.98634 0.0
C101 C 0.04427 0.93477 0.92238 0.0
C102 C 0.04316 0.90921 0.8925 0.0
C103 C 0.02345 0.89319 0.92495 0.0
C104 C 1.00637 0.9023 0.99402 0.0
C105 C 1.00767 0.9277 0.0248 0.0
C106 C 0.05996 1.00596 0.71552 0.0
C107 C 1.0065 0.96252 0.66179 0.0
O108 O 1.01079 0.03276 0.50674 0.0
O109 O 0.98095 0.05523 0.57708 0.0
O110 O 0.96057 1.00805 0.6861 0.0
O111 O 0.98506 0.02008 0.79521 0.0
O112 O 0.01548 0.05844 0.73508 0.0
O113 O 0.02005 0.04217 0.88592 0.0
O114 O 0.99949 0.97842 0.94574 0.0
O115 O 0.0401 0.98749 0.96928 0.0
O116 O 0.06339 0.99801 0.80093 0.0
O117 O 0.0365 1.01089 0.7063 0.0
O118 O 1.00957 0.96534 0.75376 0.0
O119 O 1.00468 0.98254 0.60436 0.0
H120 H 0.9829 0.10248 0.45711 0.0
H121 H 1.00726 0.14252 0.47477 0.0
H122 H 0.07274 0.09934 0.57495 0.0
H123 H 0.04852 0.05971 0.5575 0.0
H124 H 0.05825 0.9474 0.88997 0.0
H125 H 0.05671 0.9024 0.84022 0.0
H126 H 0.99144 0.88994 0.02199 0.0
H127 H 0.99311 0.93481 0.07278 0.0
C128 C 0.48095 0.98371 0.49932 0.0
Eu129 Eu 0.50224 0.99565 0.65708 0.0
C130 C 0.45871 0.9669 0.48437 0.0
C131 C 0.44651 0.95572 0.56228 0.0
C132 C 0.42374 0.94192 0.55119 0.0
C133 C 0.41271 0.93912 0.46192 0.0
C134 C 0.42569 0.94932 0.38335 0.0
C135 C 0.44854 0.96318 0.39461 0.0
C136 C 0.50717 0.96184 0.80487 0.0
C137 C 0.46075 1.01425 0.81734 0.0
C138 C 0.54302 0.03644 0.00545 0.0
Eu139 Eu 0.52195 0.02455 0.84716 0.0
C140 C 0.56485 0.05372 0.02152 0.0
C141 C 0.5765 0.06591 0.94456 0.0
C142 C 0.59895 0.08019 0.9564 0.0
C143 C 0.61025 0.08239 0.04546 0.0
C144 C 0.59777 0.07117 0.12326 0.0
C145 C 0.57522 0.05688 0.11126 0.0
C146 C 0.51675 0.05854 0.70036 0.0
C147 C 0.56338 1.00603 0.68579 0.0
O148 O 0.47572 1.00511 0.54449 0.0
O149 O 0.50167 0.97215 0.53062 0.0
O150 O 0.50024 0.95526 0.72097 0.0
O151 O 0.51117 0.98569 0.80357 0.0
O152 O 0.46513 1.00742 0.72898 0.0
O153 O 0.47947 0.01916 0.87814 0.0
O154 O 0.54877 0.01536 0.95912 0.0
O155 O 0.52204 0.04763 0.97466 0.0
O156 O 0.52365 0.06498 0.78443 0.0
O157 O 0.51288 0.03465 0.70075 0.0
O158 O 0.55917 1.01307 0.77415 0.0
O159 O 0.54457 1.00097 0.62565 0.0
H160 H 0.45411 0.95846 0.63228 0.0
H161 H 0.4143 0.9342 0.61287 0.0
H162 H 0.41747 0.94788 0.31377 0.0
H163 H 0.4577 0.97175 0.33388 0.0
H164 H 0.56878 0.06359 0.87456 0.0
H165 H 0.60798 0.0887 0.89531 0.0
H166 H 0.60621 0.07213 0.19262 0.0
H167 H 0.56648 0.04753 0.17128 0.0
C168 C 0.53969 0.4836 0.51504 0.0
Eu169 Eu 0.52837 0.50464 0.67406 0.0
C170 C 0.55554 0.46066 0.49924 0.0
C171 C 0.56812 0.44918 0.57568 0.0
C172 C 0.58025 0.4254 0.56556 0.0
C173 C 0.5799 0.4126 0.47881 0.0
C174 C 0.5683 0.4248 0.40119 0.0
C175 C 0.55615 0.44865 0.41147 0.0
C176 C 0.56221 0.50919 0.82187 0.0
C177 C 0.51056 0.46163 0.83106 0.0
C178 C 0.48854 0.54313 0.02787 0.0
Eu179 Eu 0.49967 0.52255 0.86794 0.0
C180 C 0.47218 0.56567 0.04457 0.0
C181 C 0.46888 0.57569 0.13489 0.0
C182 C 0.45548 0.5988 0.14762 0.0
C183 C 0.44536 0.61221 0.06996 0.0
C184 C 0.44777 0.60139 0.98012 0.0
C185 C 0.46105 0.57832 0.9676 0.0
C186 C 0.46551 0.51836 0.72144 0.0
C187 C 0.51735 0.56545 0.70949 0.0
O188 O 0.51806 0.47907 0.55952 0.0
O189 O 0.55198 0.50373 0.54775 0.0
O190 O 0.56903 0.50346 0.73686 0.0
O191 O 0.53826 0.51219 0.82099 0.0
O192 O 0.51722 0.46687 0.74309 0.0
O193 O 0.50554 0.47981 0.89423 0.0
O194 O 0.50996 0.54814 0.98251 0.0
O195 O 0.47655 0.52279 0.99542 0.0
O196 O 0.45912 0.52446 0.80652 0.0
O197 O 0.48944 0.51471 0.72083 0.0
O198 O 0.51059 0.5604 0.79764 0.0
O199 O 0.52252 0.54718 0.64694 0.0
H200 H 0.56764 0.45812 0.64432 0.0
H201 H 0.58913 0.41664 0.6264 0.0
H202 H 0.56729 0.41527 0.3337 0.0
H203 H 0.54633 0.45716 0.35206 0.0
H204 H 0.47742 0.56618 0.19492 0.0
H205 H 0.45429 0.60687 0.21759 0.0
H206 H 0.4401 0.61117 0.91915 0.0
H207 H 0.46344 0.57083 0.89719 0.0
C208 C 0.03953 0.54656 0.52458 0.0
Eu209 Eu 0.02514 0.52497 0.68016 0.0
C210 C 0.06201 0.56267 0.50354 0.0
C211 C 0.07519 0.57508 0.57661 0.0
C212 C 0.09892 0.58675 0.56002 0.0
C213 C 0.10995 0.58615 0.47003 0.0
C214 C 0.09593 0.57505 0.39577 0.0
C215 C 0.07217 0.56332 0.41256 0.0
C216 C 0.02265 0.55312 0.84125 0.0
C217 C 0.06705 0.50051 0.82084 0.0
C218 C 0.9846 0.49128 0.01969 0.0
Eu219 Eu 1.00521 0.49629 0.85607 0.0
C220 C 0.96154 0.50525 0.05348 0.0
C221 C 0.93714 0.49417 0.04164 0.0
C222 C 0.91506 0.50936 0.04595 0.0
C223 C 0.91681 0.53598 0.06239 0.0
C224 C 0.94101 0.54662 0.08288 0.0
C225 C 0.96313 0.53132 0.07934 0.0
C226 C 1.01409 0.46082 0.71704 0.0
C227 C 0.96379 0.51335 0.70014 0.0
O228 O 0.04492 0.5226 0.54561 0.0
O229 O 0.02237 0.55671 0.58099 0.0
O230 O 0.04145 0.55415 0.782 0.0
O231 O 1.00588 0.53738 0.81283 0.0
O232 O 0.06238 0.50796 0.73358 0.0
O233 O 0.04832 0.49718 0.88308 0.0
O234 O 1.00537 0.50515 0.00577 0.0
O235 O 0.98033 0.47505 0.95099 0.0
O236 O 1.00653 0.45497 0.80125 0.0
O237 O 0.0174 0.4848 0.71314 0.0
O238 O 0.96763 0.50827 0.78975 0.0
O239 O 0.98324 0.51758 0.64191 0.0
H240 H 0.06771 0.5748 0.64744 0.0
H241 H 0.10913 0.59531 0.61839 0.0
H242 H 0.10403 0.57393 0.32582 0.0
H243 H 0.06235 0.5537 0.35548 0.0
H244 H 0.93518 0.47403 0.02337 0.0
H245 H 0.89662 0.50027 0.03412 0.0
H246 H 0.94306 0.56696 0.09738 0.0
H247 H 0.9816 0.54031 0.0913 0.0
H248 H 0.15004 0.02748 0.20513 0.0
H249 H 0.11151 1.00678 0.74623 0.0
H250 H 0.20525 0.01856 0.42761 0.0
H251 H 0.05565 1.01187 0.52419 0.0
H252 H 0.14594 1.01155 0.63048 0.0
H253 H 0.11506 0.02231 0.31994 0.0
C254 C 0.15471 0.02433 0.27832 0.0
C255 C 0.18039 0.02338 0.3075 0.0
C256 C 0.12617 1.01177 0.60679 0.0
C257 C 0.14071 0.01759 0.43912 0.0
C258 C 0.10648 1.00906 0.67294 0.0
C259 C 0.08064 1.00939 0.64489 0.0
C260 C 0.12006 1.01469 0.51134 0.0
C261 C 0.07527 1.01216 0.54899 0.0
C262 C 0.1348 0.02141 0.34379 0.0
C263 C 0.1856 0.01936 0.40272 0.0
N264 N 0.09478 1.01475 0.48564 0.0
N265 N 0.16594 0.01665 0.4652 0.0
H266 H 0.49326 0.14274 0.173 0.0
H267 H 0.52313 0.10978 0.71224 0.0
H268 H 0.51213 0.19876 0.38454 0.0
H269 H 0.50384 0.05064 0.51217 0.0
H270 H 0.51918 0.14197 0.59007 0.0
H271 H 0.49709 0.10839 0.29169 0.0
C272 C 0.49828 0.14773 0.24449 0.0
C273 C 0.50246 0.1735 0.2695 0.0
C274 C 0.51574 0.12203 0.57212 0.0
C275 C 0.50678 0.13456 0.40516 0.0
C276 C 0.51798 0.10352 0.64222 0.0
C277 C 0.51372 0.0774 0.62272 0.0
C278 C 0.50918 0.11464 0.48054 0.0
C279 C 0.50716 0.07057 0.53039 0.0
C280 C 0.50043 0.12817 0.31208 0.0
C281 C 0.50883 0.17909 0.36259 0.0
N282 N 0.50509 0.08911 0.46252 0.0
N283 N 0.51078 0.15983 0.42684 0.0
H284 H 0.38063 0.48919 0.20051 0.0
H285 H 0.41442 0.52634 0.7329 0.0
H286 H 0.32511 0.51411 0.40587 0.0
H287 H 0.47307 0.50465 0.53378 0.0
H288 H 0.38208 0.5221 0.61132 0.0
H289 H 0.41507 0.49491 0.31738 0.0
C290 C 0.37578 0.496 0.2702 0.0
C291 C 0.35011 0.50126 0.29404 0.0
C292 C 0.40196 0.51822 0.5935 0.0
C293 C 0.38919 0.50768 0.42787 0.0
C294 C 0.42056 0.52062 0.66324 0.0
C295 C 0.44658 0.51568 0.64389 0.0
C296 C 0.40918 0.51075 0.50257 0.0
C297 C 0.45324 0.50846 0.55198 0.0
C298 C 0.39539 0.49922 0.3368 0.0
C299 C 0.3447 0.50991 0.3849 0.0
N300 N 0.43463 0.50613 0.48464 0.0
N301 N 0.36403 0.51279 0.44841 0.0
H302 H 0.02235 0.38116 0.17566 0.0
H303 H 1.01085 0.40884 0.72943 0.0
H304 H 0.01546 0.32212 0.38601 0.0
H305 H 0.02308 0.46937 0.52762 0.0
H306 H 1.0128 0.3772 0.6032 0.0
H307 H 0.02279 0.41396 0.30073 0.0
C308 C 0.02096 0.37516 0.2483 0.0
C309 C 0.0188 0.34899 0.27096 0.0
C310 C 0.01518 0.39735 0.58602 0.0
C311 C 0.01927 0.38625 0.41421 0.0
C312 C 1.0141 0.41549 0.65835 0.0
C313 C 0.01685 0.44184 0.63929 0.0
C314 C 0.0189 0.40544 0.49289 0.0
C315 C 0.02097 0.44925 0.54558 0.0
C316 C 0.02123 0.39385 0.31962 0.0
C317 C 0.01708 0.34214 0.3658 0.0
N318 N 0.02176 0.43117 0.47583 0.0
N319 N 0.0173 0.36061 0.43373 0.0
H320 H 0.81729 0.98029 0.05366 0.0
H321 H 0.96474 0.02007 0.96506 0.0
H322 H 0.86764 1.0076 0.27151 0.0
H323 H 0.91516 0.99082 0.74764 0.0
H324 H 0.92959 0.01538 0.07821 0.0
H325 H 0.85271 0.98419 0.94004 0.0
C326 C 0.83584 0.98721 0.07721 0.0
C327 C 0.83969 0.99372 0.17149 0.0
C328 C 0.92637 1.0099 0.00587 0.0
C329 C 0.8803 0.99812 0.04274 0.0
C330 C 0.9465 1.01248 0.94124 0.0
C331 C 0.94292 1.00574 0.84674 0.0
C332 C 0.90235 1.00059 0.97598 0.0
C333 C 0.91877 0.99622 0.8198 0.0
C334 C 0.85606 0.98938 0.01259 0.0
C335 C 0.86399 1.00248 0.19907 0.0
N336 N 0.89943 0.99398 0.88393 0.0
N337 N 0.88339 1.00442 0.13504 0.0
H338 H 0.53429 0.88019 0.33449 0.0
H339 H 0.49871 0.91074 0.7979 0.0
H340 H 0.50916 0.82358 0.1341 0.0
H341 H 0.52138 0.97038 0.99106 0.0
H342 H 0.50251 0.87915 0.92258 0.0
H343 H 0.52968 0.91382 0.21361 0.0
C344 C 0.5277 0.87493 0.26501 0.0
C345 C 0.52203 0.8492 0.24375 0.0
C346 C 0.50671 0.89909 0.9384 0.0
C347 C 0.51686 0.88733 0.10542 0.0
C348 C 0.50456 0.91724 0.86689 0.0
C349 C 0.50985 0.94331 0.88374 0.0
C350 C 0.51427 0.90681 0.0286 0.0
C351 C 0.51726 0.95047 0.97485 0.0
C352 C 0.5251 0.89408 0.19613 0.0
C353 C 0.51367 0.84324 0.15309 0.0
N354 N 0.51929 0.9323 0.04398 0.0
N355 N 0.51138 0.86212 0.08738 0.0
H356 H 0.70365 0.51733 0.13873 0.0
H357 H 0.55254 0.51453 0.01304 0.0
H358 H 0.64494 0.51366 0.3517 0.0
H359 H 0.61398 0.5104 0.81012 0.0
H360 H 0.58499 0.51722 0.13922 0.0
H361 H 0.67018 0.51786 0.01795 0.0
C362 C 0.68362 0.51674 0.15981 0.0
C363 C 0.67694 0.51544 0.25478 0.0
C364 C 0.59129 0.51585 0.06692 0.0
C365 C 0.63835 0.51594 0.1172 0.0
C366 C 0.57278 0.51444 0.99504 0.0
C367 C 0.58056 0.5123 0.90094 0.0
C368 C 0.61769 0.51525 0.04416 0.0
C369 C 0.60705 0.51201 0.88158 0.0
C370 C 0.66447 0.517 0.09098 0.0
C371 C 0.65076 0.51468 0.27881 0.0
N372 N 0.62452 0.51345 0.95212 0.0
N373 N 0.63237 0.5149 0.21047 0.0
H374 H 0.96862 0.66298 0.2627 0.0
H375 H 0.06113 0.57782 0.93291 0.0
H376 H 0.05128 0.66702 0.26812 0.0
H377 H 0.97869 0.56992 0.93183 0.0
H378 H 0.05758 0.60947 0.05923 0.0
H379 H 0.97142 0.62804 0.14619 0.0
C380 C 0.98736 0.65629 0.23985 0.0
C381 C 1.00977 0.66769 0.2752 0.0
C382 C 0.0402 0.60076 0.03214 0.0
C383 C 1.0132 0.62802 0.14132 0.0
C384 C 0.04223 0.58264 0.95987 0.0
C385 C 0.02019 0.57102 0.92231 0.0
C386 C 0.01586 0.60772 0.06704 0.0
C387 C 0.9962 0.57814 0.95969 0.0
C388 C 0.98896 0.63642 0.17324 0.0
C389 C 0.03356 0.6586 0.24285 0.0
N390 N 0.99466 0.59609 0.02966 0.0
N391 N 0.03465 0.6394 0.17771 0.0
H392 H 0.04667 0.27143 0.40827 0.0
H393 H 0.09172 0.13357 0.47729 0.0
H394 H 0.10814 0.23435 0.25656 0.0
H395 H 0.02549 0.16943 0.60482 0.0
H396 H 0.11155 0.1758 0.4601 0.0
H397 H 0.05488 0.24337 0.54127 0.0
C398 C 0.06279 0.25825 0.40447 0.0
C399 C 0.07576 0.25404 0.31942 0.0
C400 C 0.09299 0.17442 0.49435 0.0
C401 C 0.08436 0.22118 0.46923 0.0
C402 C 0.08163 0.15028 0.50403 0.0
C403 C 0.05642 0.14822 0.53842 0.0
C404 C 0.07877 0.19656 0.51735 0.0
C405 C 0.04446 0.1704 0.57361 0.0
C406 C 0.06732 0.24197 0.48042 0.0
C407 C 0.09685 0.23721 0.31964 0.0
N408 N 0.05546 0.19375 0.55998 0.0
N409 N 0.09985 0.22054 0.39205 0.0
H410 H 0.26548 0.97644 0.38875 0.0
H411 H 0.39359 0.9068 0.32612 0.0
H412 H 0.2834 0.92747 0.15348 0.0
H413 H 0.3712 0.94874 0.57458 0.0
H414 H 0.34823 0.90055 0.28844 0.0
H415 H 0.29562 0.95216 0.48451 0.0
C416 C 0.27484 0.95978 0.35831 0.0
C417 C 0.27292 0.95468 0.26196 0.0
C418 C 0.35318 0.9105 0.35269 0.0
C419 C 0.30836 0.92764 0.36959 0.0
C420 C 0.37912 0.91419 0.37382 0.0
C421 C 0.38618 0.92903 0.45183 0.0
C422 C 0.33425 0.9223 0.40874 0.0
C423 C 0.36668 0.9375 0.51282 0.0
C424 C 0.29239 0.94604 0.41284 0.0
C425 C 0.2852 0.93261 0.22683 0.0
N426 N 0.34162 0.93462 0.48864 0.0
N427 N 0.30323 0.9205 0.27957 0.0
H428 H 0.53622 0.266 0.39688 0.0
H429 H 0.57279 0.37359 0.606 0.0
H430 H 0.59396 0.2799 0.1863 0.0
H431 H 0.60664 0.38947 0.33544 0.0
H432 H 0.57753 0.32774 0.57642 0.0
H433 H 0.55738 0.29644 0.49984 0.0
C434 C 0.55429 0.27441 0.37458 0.0
C435 C 0.56301 0.27113 0.28239 0.0
C436 C 0.58407 0.34115 0.52352 0.0
C437 C 0.58715 0.30671 0.39831 0.0
C438 C 0.58172 0.36747 0.54099 0.0
C439 C 0.58847 0.38543 0.47145 0.0
C440 C 0.59269 0.33279 0.43508 0.0
C441 C 0.60022 0.37628 0.38937 0.0
C442 C 0.56641 0.29213 0.43331 0.0
C443 C 0.58642 0.28245 0.25658 0.0
N444 N 0.60144 0.35061 0.37265 0.0
N445 N 0.59722 0.30047 0.31298 0.0
H446 H 0.24222 0.5898 0.15053 0.0
H447 H 0.15085 0.57589 0.5846 0.0
H448 H 0.25552 0.5399 0.38682 0.0
H449 H 0.13143 0.61272 0.32269 0.0
H450 H 0.19623 0.57829 0.54246 0.0
H451 H 0.21099 0.61401 0.24368 0.0
C452 C 0.23943 0.58473 0.22361 0.0
C453 C 0.25082 0.56245 0.26052 0.0
C454 C 0.18211 0.58649 0.49531 0.0
C455 C 0.21465 0.58937 0.36605 0.0
C456 C 0.15614 0.58524 0.51947 0.0
C457 C 0.13725 0.59353 0.45584 0.0
C458 C 0.18921 0.59588 0.40665 0.0
C459 C 0.14533 0.60541 0.37251 0.0
C460 C 0.22142 0.59837 0.27647 0.0
C461 C 0.2468 0.55675 0.35549 0.0
N462 N 0.17068 0.60575 0.34943 0.0
N463 N 0.22837 0.56963 0.40432 0.0
H464 H 0.03303 0.75168 0.09507 0.0
H465 H 0.98048 0.87157 0.84995 0.0
H466 H 0.95676 0.78377 0.11092 0.0
H467 H 0.05945 0.85495 0.91784 0.0
H468 H 0.97119 0.8255 0.85026 0.0
H469 H 0.03939 0.77325 0.94422 0.0
C470 C 0.01717 0.76227 0.06434 0.0
C471 C 0.99471 0.76692 0.11612 0.0
C472 C 0.9908 0.83183 0.86129 0.0
C473 C 1.00195 0.79174 0.94596 0.0
C474 C 0.99604 0.85808 0.86177 0.0
C475 C 0.02039 0.86682 0.88909 0.0
C476 C 1.00983 0.81461 0.89188 0.0
C477 C 0.04017 0.84883 0.90011 0.0
C478 C 0.0208 0.77455 0.97835 0.0
C479 C 0.97464 0.78049 0.07373 0.0
N480 N 0.03427 0.82343 0.90466 0.0
N481 N 0.97895 0.793 0.99178 0.0
H482 H 0.75708 0.04518 0.1083 0.0
H483 H 0.62949 0.11347 0.18503 0.0
H484 H 0.74078 0.09304 0.3482 0.0
H485 H 0.65138 0.07488 0.92885 0.0
H486 H 0.67491 0.11987 0.22124 0.0
H487 H 0.72681 0.07027 0.01632 0.0
C488 C 0.74803 0.06174 0.14068 0.0
C489 C 0.7504 0.06624 0.23732 0.0
C490 C 0.66982 0.11066 0.15567 0.0
C491 C 0.71474 0.09419 0.13385 0.0
C492 C 0.64385 0.10686 0.13537 0.0
C493 C 0.63665 0.09285 0.0555 0.0
C494 C 0.68867 0.09977 0.09681 0.0
C495 C 0.656 0.08544 0.9921 0.0
C496 C 0.7304 0.07595 0.08824 0.0
C497 C 0.73854 0.08826 0.27469 0.0
N498 N 0.68112 0.08836 0.01537 0.0
N499 N 0.72035 0.10081 0.22401 0.0
H500 H 0.48081 0.76073 0.15319 0.0
H501 H 0.41292 0.63107 0.20599 0.0
H502 H 0.42916 0.74251 0.38022 0.0
H503 H 0.45579 0.65409 0.96059 0.0
H504 H 0.40628 0.67635 0.24497 0.0
H505 H 0.45877 0.72947 0.05475 0.0
C506 C 0.46399 0.75105 0.18095 0.0
C507 C 0.45743 0.75332 0.27602 0.0
C508 C 0.41655 0.67157 0.18113 0.0
C509 C 0.43294 0.7167 0.16566 0.0
C510 C 0.42046 0.64568 0.15929 0.0
C511 C 0.43556 0.63883 0.08158 0.0
C512 C 0.42841 0.69068 0.12617 0.0
C513 C 0.4443 0.65848 0.02197 0.0
C514 C 0.45156 0.73288 0.12502 0.0
C515 C 0.43532 0.74056 0.30793 0.0
N516 N 0.44118 0.6835 0.04684 0.0
N517 N 0.42444 0.72201 0.25404 0.0
H518 H 0.76615 0.54093 0.12368 0.0
H519 H 0.904 0.57709 0.17496 0.0
H520 H 0.7913 0.60324 0.29983 0.0
H521 H 0.87611 0.53255 0.94056 0.0
H522 H 0.86216 0.59772 0.18717 0.0
H523 H 0.80145 0.54979 0.01655 0.0
C524 C 0.77823 0.5575 0.13708 0.0
C525 C 0.77683 0.57046 0.22316 0.0
C526 C 0.86527 0.58387 0.13152 0.0
C527 C 0.81795 0.57984 0.10415 0.0
C528 C 0.88927 0.572 0.12467 0.0
C529 C 0.89328 0.55221 0.05931 0.0
C530 C 0.84494 0.57541 0.07426 0.0
C531 C 0.87347 0.54676 0.99531 0.0
C532 C 0.79877 0.56234 0.07647 0.0
C533 C 0.79256 0.5921 0.23575 0.0
N534 N 0.84995 0.55775 0.00601 0.0
N535 N 0.81336 0.59537 0.17936 0.0
H536 H 0.03781 0.22876 0.90855 0.0
H537 H 0.02162 0.07746 0.01042 0.0
H538 H 0.02236 0.19589 0.18039 0.0
H539 H 0.02214 0.10779 0.72855 0.0
H540 H 0.0235 0.12124 0.07131 0.0
H541 H 0.03242 0.18562 0.83789 0.0
C542 C 0.03279 0.21263 0.95302 0.0
C543 C 0.03065 0.21598 0.05064 0.0
C544 C 0.02322 0.11843 0.99602 0.0
C545 C 0.02504 0.16654 0.97096 0.0
C546 C 0.02229 0.09328 0.96102 0.0
C547 C 0.0218 0.08866 0.8639 0.0
C548 C 0.02387 0.13949 0.93396 0.0
C549 C 0.02256 0.11026 0.80393 0.0
C550 C 0.02995 0.18797 0.91288 0.0
C551 C 0.02441 0.19426 0.10497 0.0
N552 N 0.02364 0.13465 0.83978 0.0
N553 N 0.02209 0.17064 0.06477 0.0
H554 H 0.31872 0.04406 0.12492 0.0
H555 H 0.41761 0.99631 0.72813 0.0
H556 H 0.30065 0.98593 0.92018 0.0
H557 H 0.4414 0.03643 0.97867 0.0
H558 H 0.37303 0.99876 0.78173 0.0
H559 H 0.36168 0.04862 0.05426 0.0
C560 C 0.32351 0.03295 0.06296 0.0
C561 C 0.30603 1.01492 0.0272 0.0
C562 C 0.38798 1.00713 0.82483 0.0
C563 C 0.35525 0.01944 0.94766 0.0
C564 C 0.41352 1.00577 0.79425 0.0
C565 C 0.43347 0.01608 0.84911 0.0
C566 C 0.38211 0.01911 0.91061 0.0
C567 C 0.42677 0.02804 0.93427 0.0
C568 C 0.34813 0.03525 0.02356 0.0
C569 C 0.31346 1.00035 0.94875 0.0
N570 N 0.4017 0.02924 0.96232 0.0
N571 N 0.33749 1.00284 0.91188 0.0
H572 H 0.52476 0.29314 0.90017 0.0
H573 H 0.51876 0.4187 0.72201 0.0
H574 H 0.49265 0.325 0.15327 0.0
H575 H 0.49838 0.44104 0.00423 0.0
H576 H 0.51626 0.37385 0.768 0.0
H577 H 0.52202 0.33544 0.82629 0.0
C578 C 0.51621 0.30894 0.93883 0.0
C579 C 0.50843 0.30547 0.03215 0.0
C580 C 0.51249 0.3883 0.82072 0.0
C581 C 0.50573 0.35461 0.94937 0.0
C582 C 0.51382 0.41421 0.79405 0.0
C583 C 0.50891 0.43396 0.85928 0.0
C584 C 0.50635 0.3818 0.91402 0.0
C585 C 0.50245 0.42666 0.95132 0.0
C586 C 0.51483 0.33337 0.89701 0.0
C587 C 0.49841 0.32679 0.08049 0.0
N588 N 0.50143 0.4013 0.97572 0.0
N589 N 0.49754 0.35037 0.03897 0.0
H590 H 0.22999 0.52519 0.90453 0.0
H591 H 0.0853 0.47918 0.98463 0.0
H592 H 0.20713 0.47628 0.13345 0.0
H593 H 0.11124 0.51423 0.72684 0.0
H594 H 0.13001 0.47637 0.03702 0.0
H595 H 0.18749 0.51918 0.83288 0.0
C596 C 0.2163 0.5124 0.93778 0.0
C597 C 0.22225 0.50068 0.02372 0.0
C598 C 0.12596 0.48446 0.96859 0.0
C599 C 0.17309 0.4947 0.94491 0.0
C600 C 0.10036 0.48615 0.93865 0.0
C601 C 0.09432 0.49704 0.85113 0.0
C602 C 0.14584 0.49401 0.91132 0.0
C603 C 0.11483 0.50565 0.79478 0.0
C604 C 0.19192 0.50921 0.89759 0.0
C605 C 0.20348 0.48511 0.06595 0.0
N606 N 0.13955 0.50418 0.82614 0.0
N607 N 0.17968 0.48283 0.02683 0.0
H608 H 0.98434 0.79697 0.55359 0.0
H609 H 1.01347 0.94724 0.47879 0.0
H610 H 0.02494 0.82823 0.3153 0.0
H611 H 0.99763 0.9165 0.75393 0.0
H612 H 1.01345 0.90349 0.41572 0.0
H613 H 0.98615 0.83981 0.62874 0.0
C614 C 0.99378 0.81264 0.51726 0.0
C615 C 1.00395 0.80885 0.42659 0.0
C616 C 1.01 0.90624 0.49002 0.0
C617 C 1.00563 0.85812 0.51152 0.0
C618 C 1.00986 0.93134 0.52609 0.0
C619 C 1.00562 0.93578 0.6221 0.0
C620 C 1.00552 0.8851 0.54968 0.0
C621 C 1.00119 0.91411 0.67959 0.0
C622 C 0.99466 0.83716 0.56 0.0
C623 C 0.01601 0.83011 0.38361 0.0
N624 N 1.00112 0.88981 0.6426 0.0
N625 N 0.01621 0.85362 0.42561 0.0
H626 H 0.72462 0.03519 0.57871 0.0
H627 H 0.58156 0.98306 0.52486 0.0
H628 H 0.70393 0.97678 0.3784 0.0
H629 H 0.6073 0.02413 0.77067 0.0
H630 H 0.62612 0.98057 0.47018 0.0
H631 H 0.68228 0.03067 0.65296 0.0
C632 C 0.71139 0.02082 0.55235 0.0
C633 C 0.7179 1.00601 0.4734 0.0
C634 C 0.62205 0.98996 0.53642 0.0
C635 C 0.66894 1.00151 0.55519 0.0
C636 C 0.59654 0.99154 0.56752 0.0
C637 C 0.59051 1.00392 0.65251 0.0
C638 C 0.64181 1.00113 0.58985 0.0
C639 C 0.61091 1.01437 0.70479 0.0
C640 C 0.68714 0.01841 0.59409 0.0
C641 C 0.69982 0.98818 0.44027 0.0
N642 N 0.63554 1.01294 0.67228 0.0
N643 N 0.67605 0.98669 0.48039 0.0
H644 H 0.48812 0.72841 0.62971 0.0
H645 H 0.53916 0.58533 0.549 0.0
H646 H 0.54371 0.7089 0.41722 0.0
H647 H 0.49949 0.60856 0.80155 0.0
H648 H 0.54118 0.63044 0.5004 0.0
H649 H 0.49302 0.68525 0.69746 0.0
C650 C 0.50207 0.71529 0.5995 0.0
C651 C 0.51602 0.72242 0.51923 0.0
C652 C 0.53218 0.6257 0.56676 0.0
C653 C 0.5208 0.67249 0.5932 0.0
C654 C 0.53088 0.59987 0.59442 0.0
C655 C 0.51906 0.59295 0.67955 0.0
C656 C 0.52131 0.64494 0.62385 0.0
C657 C 0.50883 0.61284 0.73541 0.0
C658 C 0.50464 0.69055 0.63738 0.0
C659 C 0.53311 0.70437 0.48054 0.0
N660 N 0.51 0.6378 0.70628 0.0
N661 N 0.53477 0.68017 0.51704 0.0
H662 H 0.7977 0.53204 0.62523 0.0
H663 H 0.9475 0.51227 0.51699 0.0
H664 H 0.82776 0.50735 0.35814 0.0
H665 H 0.91842 0.51531 0.80064 0.0
H666 H 0.90332 0.51217 0.45894 0.0
H667 H 0.8409 0.52631 0.69407 0.0
C668 C 0.81319 0.5247 0.5819 0.0
C669 C 0.80912 0.51998 0.48605 0.0
C670 C 0.90654 0.51277 0.53397 0.0
C671 C 0.85865 0.5143 0.56292 0.0
C672 C 0.93186 0.513 0.5672 0.0
C673 C 0.93685 0.51383 0.66393 0.0
C674 C 0.88581 0.51371 0.59757 0.0
C675 C 0.91559 0.5146 0.72541 0.0
C676 C 0.83789 0.5217 0.62079 0.0
C677 C 0.83003 0.51107 0.43247 0.0
N678 N 0.89106 0.51469 0.69127 0.0
N679 N 0.85381 0.50884 0.47115 0.0
loop_
_geom_bond_atom_site_label_1
_geom_bond_atom_site_label_2
_geom_bond_distance
_geom_bond_site_symmetry_2
_ccdc_geom_bond_type
H0 C3 0.929 . S
H1 C6 0.929 . S
H2 C8 0.930 . S
C3 H0 0.929 . S
C3 C4 1.398 . S
C3 C5 1.396 . S
C4 C3 1.398 . S
C4 C8 1.407 . S
C5 C3 1.396 . S
C5 C6 1.394 . S
C6 H1 0.929 . S
C6 C5 1.394 . S
C6 C7 1.382 . S
C7 C6 1.382 . S
C7 C8 1.392 . S
C7 N9 1.420 . S
C8 H2 0.930 . S
C8 C4 1.407 . S
C8 C7 1.392 . S
N9 C7 1.420 . S
N9 C10 1.244 . S
C10 N9 1.244 . S
H11 C14 0.929 . S
H12 C17 0.929 . S
H13 C19 0.930 . S
C14 H11 0.929 . S
C14 C15 1.395 1_655 S
C14 C16 1.395 1_655 S
C15 C14 1.395 1_455 S
C15 C19 1.413 . S
C16 C14 1.395 1_455 S
C16 C17 1.397 . S
C17 H12 0.929 . S
C17 C16 1.397 . S
C17 C18 1.382 . S
C18 C17 1.382 . S
C18 C19 1.392 . S
C18 N20 1.420 . S
C19 H13 0.930 . S
C19 C15 1.413 . S
C19 C18 1.392 . S
N20 C18 1.420 . S
N20 C21 1.232 1_455 S
C21 N20 1.232 1_655 S
H22 C25 0.929 . S
H23 C28 0.929 . S
H24 C30 0.930 . S
C25 H22 0.929 . S
C25 C26 1.395 1_565 S
C25 C27 1.395 1_565 S
C26 C25 1.395 1_545 S
C26 C30 1.413 . S
C27 C25 1.395 1_545 S
C27 C28 1.397 . S
C28 H23 0.929 . S
C28 C27 1.397 . S
C28 C29 1.382 . S
C29 C28 1.382 . S
C29 C30 1.392 . S
C29 N31 1.420 . S
C30 H24 0.930 . S
C30 C26 1.413 . S
C30 C29 1.392 . S
N31 C29 1.420 . S
N31 C32 1.232 1_545 S
C32 N31 1.232 1_565 S
H33 C36 0.929 . S
H34 C39 0.929 . S
H35 C41 0.930 . S
C36 H33 0.929 . S
C36 C37 1.398 . S
C36 C38 1.396 . S
C37 C36 1.398 . S
C37 C41 1.407 . S
C38 C36 1.396 . S
C38 C39 1.394 . S
C39 H34 0.929 . S
C39 C38 1.394 . S
C39 C40 1.382 . S
C40 C39 1.382 . S
C40 C41 1.392 . S
C40 N42 1.420 . S
C41 H35 0.930 . S
C41 C37 1.407 . S
C41 C40 1.392 . S
N42 C40 1.420 . S
N42 C43 1.244 . S
C43 N42 1.244 . S
H44 C47 0.929 . S
H45 C50 0.929 . S
H46 C52 0.930 . S
C47 H44 0.929 . S
C47 C48 1.398 1_554 S
C47 C49 1.396 . S
C48 C47 1.398 1_556 S
C48 C52 1.407 . S
C49 C47 1.396 . S
C49 C50 1.394 . S
C50 H45 0.929 . S
C50 C49 1.394 . S
C50 C51 1.382 . S
C51 C50 1.382 . S
C51 C52 1.392 1_554 S
C51 N53 1.420 . S
C52 H46 0.930 . S
C52 C48 1.407 . S
C52 C51 1.392 1_556 S
N53 C51 1.420 . S
N53 C54 1.244 . S
C54 N53 1.244 . S
H55 C58 0.929 . S
H56 C61 0.929 . S
H57 C63 0.930 . S
C58 H55 0.929 . S
C58 C59 1.395 1_654 S
C58 C60 1.394 1_655 S
C59 C58 1.395 1_456 S
C59 C63 1.416 . S
C60 C58 1.394 1_455 S
C60 C61 1.398 . S
C61 H56 0.929 . S
C61 C60 1.398 . S
C61 C62 1.382 . S
C62 C61 1.382 . S
C62 C63 1.392 1_554 S
C62 N64 1.420 . S
C63 H57 0.930 . S
C63 C59 1.416 . S
C63 C62 1.392 1_556 S
N64 C62 1.420 . S
N64 C65 1.236 1_455 S
C65 N64 1.236 1_655 S
H66 C69 0.929 . S
H67 C72 0.929 . S
H68 C74 0.930 . S
C69 H66 0.929 . S
C69 C70 1.395 1_564 S
C69 C71 1.394 1_565 S
C70 C69 1.395 1_546 S
C70 C74 1.416 . S
C71 C69 1.394 1_545 S
C71 C72 1.398 . S
C72 H67 0.929 . S
C72 C71 1.398 . S
C72 C73 1.382 . S
C73 C72 1.382 . S
C73 C74 1.392 1_554 S
C73 N75 1.420 . S
C74 H68 0.930 . S
C74 C70 1.416 . S
C74 C73 1.392 1_556 S
N75 C73 1.420 . S
N75 C76 1.236 1_545 S
C76 N75 1.236 1_565 S
H77 C80 0.929 . S
H78 C83 0.929 . S
H79 C85 0.930 . S
C80 H77 0.929 . S
C80 C81 1.398 1_554 S
C80 C82 1.396 . S
C81 C80 1.398 1_556 S
C81 C85 1.407 . S
C82 C80 1.396 . S
C82 C83 1.394 . S
C83 H78 0.929 . S
C83 C82 1.394 . S
C83 C84 1.382 . S
C84 C83 1.382 . S
C84 C85 1.392 1_554 S
C84 N86 1.420 . S
C85 H79 0.930 . S
C85 C81 1.407 . S
C85 C84 1.392 1_556 S
N86 C84 1.420 . S
N86 C87 1.244 . S
C87 N86 1.244 . S
C88 Eu89 2.835 . S
C88 C90 1.500 . S
C88 O108 1.257 . S
C88 O109 1.260 . S
Eu89 C88 2.835 . S
Eu89 O108 2.473 . S
Eu89 O109 2.480 . S
Eu89 O110 2.430 . S
Eu89 O111 2.670 1_545 S
Eu89 O112 2.394 . S
Eu89 O117 2.355 1_655 S
Eu89 O119 2.374 1_545 S
C90 C88 1.500 . S
C90 C91 1.377 . S
C90 C95 1.377 . S
C91 C90 1.377 . S
C91 C92 1.395 . S
C91 H120 0.931 . S
C92 C91 1.395 . S
C92 C93 1.383 . S
C92 H121 0.931 . S
C93 C92 1.383 . S
C93 C94 1.394 . S
C94 C93 1.394 . S
C94 C95 1.378 . S
C94 H122 0.931 1_655 S
C95 C90 1.377 . S
C95 C94 1.378 . S
C95 H123 0.931 1_655 S
C96 O110 1.259 . S
C96 O111 1.270 1_545 S
C97 O112 1.251 1_455 S
C97 O113 1.251 . S
C98 Eu99 2.835 . S
C98 C100 1.500 . S
C98 O114 1.257 . S
C98 O115 1.260 . S
Eu99 C98 2.835 . S
Eu99 O111 2.355 1_455 S
Eu99 O113 2.374 1_565 S
Eu99 O114 2.473 . S
Eu99 O115 2.480 . S
Eu99 O116 2.430 . S
Eu99 O117 2.670 1_565 S
Eu99 O118 2.394 . S
C100 C98 1.500 . S
C100 C101 1.377 . S
C100 C105 1.377 1_556 S
C101 C100 1.377 . S
C101 C102 1.393 1_556 S
C101 H124 0.932 . S
C102 C101 1.393 1_554 S
C102 C103 1.383 . S
C102 H125 0.931 . S
C103 C102 1.383 . S
C103 C104 1.394 . S
C104 C103 1.394 . S
C104 C105 1.378 . S
C104 H126 0.931 1_455 S
C105 C100 1.377 1_554 S
C105 C104 1.378 . S
C105 H127 0.931 1_455 S
C106 O116 1.259 . S
C106 O117 1.270 1_565 S
C107 O118 1.251 1_655 S
C107 O119 1.251 . S
O108 C88 1.257 . S
O108 Eu89 2.473 . S
O109 C88 1.260 . S
O109 Eu89 2.480 . S
O110 Eu89 2.430 . S
O110 C96 1.259 . S
O111 Eu89 2.670 1_565 S
O111 C96 1.270 1_565 S
O111 Eu99 2.355 1_655 S
O112 Eu89 2.394 . S
O112 C97 1.251 1_655 S
O113 C97 1.251 . S
O113 Eu99 2.374 1_545 S
O114 C98 1.257 . S
O114 Eu99 2.473 . S
O115 C98 1.260 . S
O115 Eu99 2.480 . S
O116 Eu99 2.430 . S
O116 C106 1.259 . S
O117 Eu89 2.355 1_455 S
O117 Eu99 2.670 1_545 S
O117 C106 1.270 1_545 S
O118 Eu99 2.394 . S
O118 C107 1.251 1_455 S
O119 Eu89 2.374 1_565 S
O119 C107 1.251 . S
H120 C91 0.931 . S
H121 C92 0.931 . S
H122 C94 0.931 1_455 S
H123 C95 0.931 1_455 S
H124 C101 0.932 . S
H125 C102 0.931 . S
H126 C104 0.931 1_655 S
H127 C105 0.931 1_655 S
C128 Eu129 2.835 . S
C128 C130 1.500 . S
C128 O148 1.257 . S
C128 O149 1.260 . S
Eu129 C128 2.835 . S
Eu129 O148 2.473 . S
Eu129 O149 2.480 . S
Eu129 O150 2.430 . S
Eu129 O151 2.670 . S
Eu129 O152 2.394 . S
Eu129 O157 2.355 1_565 S
Eu129 O159 2.374 . S
C130 C128 1.500 . S
C130 C131 1.377 . S
C130 C135 1.377 . S
C131 C130 1.377 . S
C131 C132 1.395 . S
C131 H160 0.931 . S
C132 C131 1.395 . S
C132 C133 1.383 . S
C132 H161 0.931 . S
C133 C132 1.383 . S
C133 C134 1.394 . S
C134 C133 1.394 . S
C134 C135 1.378 . S
C134 H162 0.931 1_565 S
C135 C130 1.377 . S
C135 C134 1.378 . S
C135 H163 0.931 1_565 S
C136 O150 1.259 . S
C136 O151 1.270 . S
C137 O152 1.251 1_545 S
C137 O153 1.251 . S
C138 Eu139 2.835 . S
C138 C140 1.500 . S
C138 O154 1.257 . S
C138 O155 1.260 . S
Eu139 C138 2.835 . S
Eu139 O151 2.355 1_545 S
Eu139 O153 2.374 . S
Eu139 O154 2.473 . S
Eu139 O155 2.480 . S
Eu139 O156 2.430 . S
Eu139 O157 2.670 . S
Eu139 O158 2.394 . S
C140 C138 1.500 . S
C140 C141 1.376 1_556 S
C140 C145 1.377 1_556 S
C141 C140 1.376 1_554 S
C141 C142 1.396 . S
C141 H164 0.930 1_554 S
C142 C141 1.396 . S
C142 C143 1.383 . S
C142 H165 0.931 . S
C143 C142 1.383 . S
C143 C144 1.394 . S
C144 C143 1.394 . S
C144 C145 1.378 . S
C144 H166 0.931 1_545 S
C145 C140 1.377 1_554 S
C145 C144 1.378 . S
C145 H167 0.931 1_545 S
C146 O156 1.259 . S
C146 O157 1.270 . S
C147 O158 1.251 1_565 S
C147 O159 1.251 . S
O148 C128 1.257 . S
O148 Eu129 2.473 . S
O149 C128 1.260 . S
O149 Eu129 2.480 . S
O150 Eu129 2.430 . S
O150 C136 1.259 . S
O151 Eu129 2.670 . S
O151 C136 1.270 . S
O151 Eu139 2.355 1_565 S
O152 Eu129 2.394 . S
O152 C137 1.251 1_565 S
O153 C137 1.251 . S
O153 Eu139 2.374 . S
O154 C138 1.257 . S
O154 Eu139 2.473 . S
O155 C138 1.260 . S
O155 Eu139 2.480 . S
O156 Eu139 2.430 . S
O156 C146 1.259 . S
O157 Eu129 2.355 1_545 S
O157 Eu139 2.670 . S
O157 C146 1.270 . S
O158 Eu139 2.394 . S
O158 C147 1.251 1_545 S
O159 Eu129 2.374 . S
O159 C147 1.251 . S
H160 C131 0.931 . S
H161 C132 0.931 . S
H162 C134 0.931 1_545 S
H163 C135 0.931 1_545 S
H164 C141 0.930 1_556 S
H165 C142 0.931 . S
H166 C144 0.931 1_565 S
H167 C145 0.931 1_565 S
C168 Eu169 2.835 . S
C168 C170 1.500 . S
C168 O188 1.257 . S
C168 O189 1.260 . S
Eu169 C168 2.835 . S
Eu169 O188 2.473 . S
Eu169 O189 2.480 . S
Eu169 O190 2.430 . S
Eu169 O191 2.670 . S
Eu169 O192 2.394 . S
Eu169 O197 2.355 . S
Eu169 O199 2.374 . S
C170 C168 1.500 . S
C170 C171 1.377 . S
C170 C175 1.377 . S
C171 C170 1.377 . S
C171 C172 1.395 . S
C171 H200 0.931 . S
C172 C171 1.395 . S
C172 C173 1.383 . S
C172 H201 0.931 . S
C173 C172 1.383 . S
C173 C174 1.394 . S
C174 C173 1.394 . S
C174 C175 1.378 . S
C174 H202 0.931 . S
C175 C170 1.377 . S
C175 C174 1.378 . S
C175 H203 0.931 . S
C176 O190 1.259 . S
C176 O191 1.270 . S
C177 O192 1.251 . S
C177 O193 1.251 . S
C178 Eu179 2.835 . S
C178 C180 1.500 . S
C178 O194 1.257 . S
C178 O195 1.260 . S
Eu179 C178 2.835 . S
Eu179 O191 2.355 . S
Eu179 O193 2.374 . S
Eu179 O194 2.473 . S
Eu179 O195 2.480 . S
Eu179 O196 2.430 . S
Eu179 O197 2.670 . S
Eu179 O198 2.394 . S
C180 C178 1.500 . S
C180 C181 1.377 1_556 S
C180 C185 1.377 1_556 S
C181 C180 1.377 1_554 S
C181 C182 1.395 . S
C181 H204 0.931 1_554 S
C182 C181 1.395 . S
C182 C183 1.383 . S
C182 H205 0.931 . S
C183 C182 1.383 . S
C183 C184 1.394 . S
C184 C183 1.394 . S
C184 C185 1.378 . S
C184 H206 0.931 . S
C185 C180 1.377 1_554 S
C185 C184 1.378 . S
C185 H207 0.931 . S
C186 O196 1.259 . S
C186 O197 1.270 . S
C187 O198 1.251 . S
C187 O199 1.251 . S
O188 C168 1.257 . S
O188 Eu169 2.473 . S
O189 C168 1.260 . S
O189 Eu169 2.480 . S
O190 Eu169 2.430 . S
O190 C176 1.259 . S
O191 Eu169 2.670 . S
O191 C176 1.270 . S
O191 Eu179 2.355 . S
O192 Eu169 2.394 . S
O192 C177 1.251 . S
O193 C177 1.251 . S
O193 Eu179 2.374 . S
O194 C178 1.257 . S
O194 Eu179 2.473 . S
O195 C178 1.260 . S
O195 Eu179 2.480 . S
O196 Eu179 2.430 . S
O196 C186 1.259 . S
O197 Eu169 2.355 . S
O197 Eu179 2.670 . S
O197 C186 1.270 . S
O198 Eu179 2.394 . S
O198 C187 1.251 . S
O199 Eu169 2.374 . S
O199 C187 1.251 . S
H200 C171 0.931 . S
H201 C172 0.931 . S
H202 C174 0.931 . S
H203 C175 0.931 . S
H204 C181 0.931 1_556 S
H205 C182 0.931 . S
H206 C184 0.931 . S
H207 C185 0.931 . S
C208 Eu209 2.835 . S
C208 C210 1.500 . S
C208 O228 1.257 . S
C208 O229 1.260 . S
Eu209 C208 2.835 . S
Eu209 O228 2.473 . S
Eu209 O229 2.480 . S
Eu209 O230 2.430 . S
Eu209 O231 2.670 1_455 S
Eu209 O232 2.394 . S
Eu209 O237 2.355 . S
Eu209 O239 2.374 1_455 S
C210 C208 1.500 . S
C210 C211 1.377 . S
C210 C215 1.377 . S
C211 C210 1.377 . S
C211 C212 1.395 . S
C211 H240 0.931 . S
C212 C211 1.395 . S
C212 C213 1.383 . S
C212 H241 0.931 . S
C213 C212 1.383 . S
C213 C214 1.394 . S
C214 C213 1.394 . S
C214 C215 1.378 . S
C214 H242 0.931 . S
C215 C210 1.377 . S
C215 C214 1.378 . S
C215 H243 0.931 . S
C216 O230 1.269 . S
C216 O231 1.262 1_455 S
C217 O232 1.251 . S
C217 O233 1.251 . S
C218 Eu219 2.835 . S
C218 C220 1.500 . S
C218 O234 1.257 . S
C218 O235 1.260 . S
Eu219 C218 2.835 . S
Eu219 O231 2.355 . S
Eu219 O233 2.374 1_655 S
Eu219 O234 2.473 . S
Eu219 O235 2.480 . S
Eu219 O236 2.430 . S
Eu219 O237 2.670 1_655 S
Eu219 O238 2.394 . S
C220 C218 1.500 . S
C220 C221 1.377 1_556 S
C220 C225 1.377 1_556 S
C221 C220 1.377 1_554 S
C221 C222 1.395 . S
C221 H244 0.931 1_554 S
C222 C221 1.395 . S
C222 C223 1.383 . S
C222 H245 0.931 . S
C223 C222 1.383 . S
C223 C224 1.394 . S
C224 C223 1.394 . S
C224 C225 1.378 . S
C224 H246 0.931 . S
C225 C220 1.377 1_554 S
C225 C224 1.378 . S
C225 H247 0.931 . S
C226 O236 1.264 . S
C226 O237 1.266 1_655 S
C227 O238 1.251 . S
C227 O239 1.251 . S
O228 C208 1.257 . S
O228 Eu209 2.473 . S
O229 C208 1.260 . S
O229 Eu209 2.480 . S
O230 Eu209 2.430 . S
O230 C216 1.269 . S
O231 Eu209 2.670 1_655 S
O231 C216 1.262 1_655 S
O231 Eu219 2.355 . S
O232 Eu209 2.394 . S
O232 C217 1.251 . S
O233 C217 1.251 . S
O233 Eu219 2.374 1_455 S
O234 C218 1.257 . S
O234 Eu219 2.473 . S
O235 C218 1.260 . S
O235 Eu219 2.480 . S
O236 Eu219 2.430 . S
O236 C226 1.264 . S
O237 Eu209 2.355 . S
O237 Eu219 2.670 1_455 S
O237 C226 1.266 1_455 S
O238 Eu219 2.394 . S
O238 C227 1.251 . S
O239 Eu209 2.374 1_655 S
O239 C227 1.251 . S
H240 C211 0.931 . S
H241 C212 0.931 . S
H242 C214 0.931 . S
H243 C215 0.931 . S
H244 C221 0.931 1_556 S
H245 C222 0.931 . S
H246 C224 0.931 . S
H247 C225 0.931 . S
H248 C254 0.930 . S
H249 C258 0.930 . S
H250 C263 0.929 . S
H251 C261 0.929 . S
H252 C256 0.929 . S
H253 C262 0.929 . S
C254 H248 0.930 . S
C254 C255 1.375 . S
C254 C262 1.378 . S
C255 C254 1.375 . S
C255 C263 1.425 1_565 S
C256 H252 0.929 . S
C256 C258 1.378 . S
C256 C260 1.379 . S
C257 C260 1.461 1_565 S
C257 C262 1.363 . S
C257 N265 1.414 1_565 S
C258 H249 0.930 . S
C258 C256 1.378 . S
C258 C259 1.390 . S
C259 C258 1.390 . S
C259 C261 1.409 1_545 S
C260 C256 1.379 . S
C260 C257 1.461 1_545 S
C260 N264 1.398 1_545 S
C261 H251 0.929 . S
C261 C259 1.409 1_565 S
C261 N264 1.384 . S
C262 H253 0.929 . S
C262 C254 1.378 . S
C262 C257 1.363 . S
C263 H250 0.929 . S
C263 C255 1.425 1_545 S
C263 N265 1.384 . S
N264 C260 1.398 1_565 S
N264 C261 1.384 . S
N265 C257 1.414 1_545 S
N265 C263 1.384 . S
H266 C272 0.930 . S
H267 C276 0.930 . S
H268 C281 0.929 . S
H269 C279 0.929 . S
H270 C274 0.929 . S
H271 C280 0.929 . S
C272 H266 0.930 . S
C272 C273 1.367 . S
C272 C280 1.378 . S
C273 C272 1.367 . S
C273 C281 1.433 . S
C274 H270 0.929 . S
C274 C276 1.378 . S
C274 C278 1.350 . S
C275 C278 1.463 . S
C275 C280 1.350 . S
C275 N283 1.427 . S
C276 H267 0.930 . S
C276 C274 1.378 . S
C276 C277 1.367 . S
C277 C276 1.367 . S
C277 C279 1.433 . S
C278 C274 1.350 . S
C278 C275 1.463 . S
C278 N282 1.427 . S
C279 H269 0.929 . S
C279 C277 1.433 . S
C279 N282 1.384 . S
C280 H271 0.929 . S
C280 C272 1.378 . S
C280 C275 1.350 . S
C281 H268 0.929 . S
C281 C273 1.433 . S
C281 N283 1.384 . S
N282 C278 1.427 . S
N282 C279 1.384 . S
N283 C275 1.427 . S
N283 C281 1.384 . S
H284 C290 0.930 . S
H285 C294 0.930 . S
H286 C299 0.929 . S
H287 C297 0.929 . S
H288 C292 0.929 . S
H289 C298 0.929 . S
C290 H284 0.930 . S
C290 C291 1.367 . S
C290 C298 1.378 . S
C291 C290 1.367 . S
C291 C299 1.433 . S
C292 H288 0.929 . S
C292 C294 1.378 . S
C292 C296 1.350 . S
C293 C296 1.463 . S
C293 C298 1.350 . S
C293 N301 1.427 . S
C294 H285 0.930 . S
C294 C292 1.378 . S
C294 C295 1.367 . S
C295 C294 1.367 . S
C295 C297 1.433 . S
C296 C292 1.350 . S
C296 C293 1.463 . S
C296 N300 1.427 . S
C297 H287 0.929 . S
C297 C295 1.433 . S
C297 N300 1.384 . S
C298 H289 0.929 . S
C298 C290 1.378 . S
C298 C293 1.350 . S
C299 H286 0.929 . S
C299 C291 1.433 . S
C299 N301 1.384 . S
N300 C296 1.427 . S
N300 C297 1.384 . S
N301 C293 1.427 . S
N301 C299 1.384 . S
H302 C308 0.930 . S
H303 C312 0.930 . S
H304 C317 0.929 . S
H305 C315 0.929 . S
H306 C310 0.929 . S
H307 C316 0.929 . S
C308 H302 0.930 . S
C308 C309 1.365 . S
C308 C316 1.378 . S
C309 C308 1.365 . S
C309 C317 1.435 1_655 S
C310 H306 0.929 . S
C310 C312 1.378 . S
C310 C314 1.350 . S
C311 C314 1.463 . S
C311 C316 1.350 1_455 S
C311 N319 1.427 . S
C312 H303 0.930 . S
C312 C310 1.378 . S
C312 C313 1.367 . S
C313 C312 1.367 . S
C313 C315 1.433 1_455 S
C314 C310 1.350 . S
C314 C311 1.463 . S
C314 N318 1.427 1_455 S
C315 H305 0.929 . S
C315 C313 1.433 1_655 S
C315 N318 1.384 . S
C316 H307 0.929 . S
C316 C308 1.378 . S
C316 C311 1.350 1_655 S
C317 H304 0.929 . S
C317 C309 1.435 1_455 S
C317 N319 1.384 . S
N318 C314 1.427 1_655 S
N318 C315 1.384 . S
N319 C311 1.427 . S
N319 C317 1.384 . S
H320 C326 0.930 . S
H321 C330 0.930 . S
H322 C335 0.929 . S
H323 C333 0.929 . S
H324 C328 0.929 . S
H325 C334 0.929 . S
C326 H320 0.930 . S
C326 C327 1.382 . S
C326 C334 1.378 . S
C327 C326 1.382 . S
C327 C335 1.418 1_565 S
C328 H324 0.929 . S
C328 C330 1.378 1_554 S
C328 C332 1.378 . S
C329 C332 1.461 1_565 S
C329 C334 1.379 . S
C329 N337 1.398 1_565 S
C330 H321 0.930 . S
C330 C328 1.378 1_556 S
C330 C331 1.382 . S
C331 C330 1.382 . S
C331 C333 1.418 1_545 S
C332 C328 1.378 . S
C332 C329 1.461 1_545 S
C332 N336 1.398 1_545 S
C333 H323 0.929 . S
C333 C331 1.418 1_565 S
C333 N336 1.384 1_556 S
C334 H325 0.929 . S
C334 C326 1.378 . S
C334 C329 1.379 . S
C335 H322 0.929 . S
C335 C327 1.418 1_545 S
C335 N337 1.384 . S
N336 C332 1.398 1_565 S
N336 C333 1.384 1_554 S
N337 C329 1.398 1_545 S
N337 C335 1.384 . S
H338 C344 0.930 . S
H339 C348 0.930 . S
H340 C353 0.929 . S
H341 C351 0.929 . S
H342 C346 0.929 . S
H343 C352 0.929 . S
C344 H338 0.930 . S
C344 C345 1.367 . S
C344 C352 1.378 . S
C345 C344 1.367 . S
C345 C353 1.433 . S
C346 H342 0.929 . S
C346 C348 1.378 . S
C346 C350 1.350 1_556 S
C347 C350 1.463 . S
C347 C352 1.350 . S
C347 N355 1.427 . S
C348 H339 0.930 . S
C348 C346 1.378 . S
C348 C349 1.367 . S
C349 C348 1.367 . S
C349 C351 1.433 1_556 S
C350 C346 1.350 1_554 S
C350 C347 1.463 . S
C350 N354 1.427 . S
C351 H341 0.929 . S
C351 C349 1.433 1_554 S
C351 N354 1.384 . S
C352 H343 0.929 . S
C352 C344 1.378 . S
C352 C347 1.350 . S
C353 H340 0.929 . S
C353 C345 1.433 . S
C353 N355 1.384 . S
N354 C350 1.427 . S
N354 C351 1.384 . S
N355 C347 1.427 . S
N355 C353 1.384 . S
H356 C362 0.930 . S
H357 C366 0.930 . S
H358 C371 0.929 . S
H359 C369 0.929 . S
H360 C364 0.929 . S
H361 C370 0.929 . S
C362 H356 0.930 . S
C362 C363 1.367 . S
C362 C370 1.378 . S
C363 C362 1.367 . S
C363 C371 1.433 . S
C364 H360 0.929 . S
C364 C366 1.378 . S
C364 C368 1.350 . S
C365 C368 1.463 . S
C365 C370 1.350 . S
C365 N373 1.427 . S
C366 H357 0.930 . S
C366 C364 1.378 . S
C366 C367 1.367 1_554 S
C367 C366 1.367 1_556 S
C367 C369 1.433 . S
C368 C364 1.350 . S
C368 C365 1.463 . S
C368 N372 1.427 1_554 S
C369 H359 0.929 . S
C369 C367 1.433 . S
C369 N372 1.384 . S
C370 H361 0.929 . S
C370 C362 1.378 . S
C370 C365 1.350 . S
C371 H358 0.929 . S
C371 C363 1.433 . S
C371 N373 1.384 . S
N372 C368 1.427 1_556 S
N372 C369 1.384 . S
N373 C365 1.427 . S
N373 C371 1.384 . S
H374 C380 0.930 . S
H375 C384 0.930 . S
H376 C389 0.929 . S
H377 C387 0.929 . S
H378 C382 0.929 . S
H379 C388 0.929 . S
C380 H374 0.930 . S
C380 C381 1.393 . S
C380 C388 1.378 . S
C381 C380 1.393 . S
C381 C389 1.407 1_655 S
C382 H378 0.929 . S
C382 C384 1.378 1_554 S
C382 C386 1.348 . S
C383 C386 1.463 1_655 S
C383 C388 1.350 . S
C383 N391 1.427 1_655 S
C384 H375 0.930 . S
C384 C382 1.378 1_556 S
C384 C385 1.352 1_455 S
C385 C384 1.352 1_655 S
C385 C387 1.448 . S
C386 C382 1.348 . S
C386 C383 1.463 1_455 S
C386 N390 1.429 1_455 S
C387 H377 0.929 . S
C387 C385 1.448 . S
C387 N390 1.384 1_556 S
C388 H379 0.929 . S
C388 C380 1.378 . S
C388 C383 1.350 . S
C389 H376 0.929 . S
C389 C381 1.407 1_455 S
C389 N391 1.384 . S
N390 C386 1.429 1_655 S
N390 C387 1.384 1_554 S
N391 C383 1.427 1_455 S
N391 C389 1.384 . S
H392 C398 0.930 . S
H393 C402 0.930 . S
H394 C407 0.929 . S
H395 C405 0.929 . S
H396 C400 0.929 . S
H397 C406 0.929 . S
C398 H392 0.930 . S
C398 C399 1.367 1_655 S
C398 C406 1.378 . S
C399 C398 1.367 1_455 S
C399 C407 1.433 . S
C400 H396 0.929 . S
C400 C402 1.378 . S
C400 C404 1.350 . S
C401 C404 1.463 . S
C401 C406 1.350 . S
C401 N409 1.447 . S
C402 H393 0.930 . S
C402 C400 1.378 . S
C402 C403 1.367 . S
C403 C402 1.367 . S
C403 C405 1.433 . S
C404 C400 1.350 . S
C404 C401 1.463 . S
C404 N408 1.427 . S
C405 H395 0.929 . S
C405 C403 1.433 . S
C405 N408 1.384 . S
C406 H397 0.929 . S
C406 C398 1.378 . S
C406 C401 1.350 . S
C407 H394 0.929 . S
C407 C399 1.433 . S
C407 N409 1.372 1_455 S
N408 C404 1.427 . S
N408 C405 1.384 . S
N409 C401 1.447 . S
N409 C407 1.372 1_655 S
H410 C416 0.930 . S
H411 C420 0.930 . S
H412 C425 0.929 . S
H413 C423 0.929 1_545 S
H414 C418 0.929 . S
H415 C424 0.929 . S
C416 H410 0.930 . S
C416 C417 1.367 . S
C416 C424 1.378 . S
C417 C416 1.367 . S
C417 C425 1.433 1_545 S
C418 H414 0.929 . S
C418 C420 1.378 . S
C418 C422 1.350 . S
C419 C422 1.463 . S
C419 C424 1.350 1_565 S
C419 N427 1.427 . S
C420 H411 0.930 . S
C420 C418 1.378 . S
C420 C421 1.367 . S
C421 C420 1.367 . S
C421 C423 1.433 . S
C422 C418 1.350 . S
C422 C419 1.463 . S
C422 N426 1.428 . S
C423 H413 0.929 1_565 S
C423 C421 1.433 . S
C423 N426 1.384 . S
C424 H415 0.929 . S
C424 C416 1.378 . S
C424 C419 1.350 1_545 S
C425 H412 0.929 . S
C425 C417 1.433 1_565 S
C425 N427 1.384 . S
N426 C422 1.428 . S
N426 C423 1.384 . S
N427 C419 1.427 . S
N427 C425 1.384 . S
H428 C434 0.930 . S
H429 C438 0.930 . S
H430 C443 0.929 . S
H431 C441 0.929 . S
H432 C436 0.929 . S
H433 C442 0.929 . S
C434 H428 0.930 . S
C434 C435 1.367 . S
C434 C442 1.378 . S
C435 C434 1.367 . S
C435 C443 1.433 . S
C436 H432 0.929 . S
C436 C438 1.378 . S
C436 C440 1.350 . S
C437 C440 1.463 . S
C437 C442 1.350 . S
C437 N445 1.427 . S
C438 H429 0.930 . S
C438 C436 1.378 . S
C438 C439 1.367 . S
C439 C438 1.367 . S
C439 C441 1.433 . S
C440 C436 1.350 . S
C440 C437 1.463 . S
C440 N444 1.427 . S
C441 H431 0.929 . S
C441 C439 1.433 . S
C441 N444 1.384 . S
C442 H433 0.929 . S
C442 C434 1.378 . S
C442 C437 1.350 . S
C443 H430 0.929 . S
C443 C435 1.433 . S
C443 N445 1.384 . S
N444 C440 1.427 . S
N444 C441 1.384 . S
N445 C437 1.427 . S
N445 C443 1.384 . S
H446 C452 0.930 . S
H447 C456 0.930 . S
H448 C461 0.929 . S
H449 C459 0.929 . S
H450 C454 0.929 . S
H451 C460 0.929 . S
C452 H446 0.930 . S
C452 C453 1.367 . S
C452 C460 1.378 . S
C453 C452 1.367 . S
C453 C461 1.433 . S
C454 H450 0.929 . S
C454 C456 1.378 . S
C454 C458 1.350 . S
C455 C458 1.463 . S
C455 C460 1.350 . S
C455 N463 1.427 . S
C456 H447 0.930 . S
C456 C454 1.378 . S
C456 C457 1.367 . S
C457 C456 1.367 . S
C457 C459 1.433 . S
C458 C454 1.350 . S
C458 C455 1.463 . S
C458 N462 1.427 . S
C459 H449 0.929 . S
C459 C457 1.433 . S
C459 N462 1.384 . S
C460 H451 0.929 . S
C460 C452 1.378 . S
C460 C455 1.350 . S
C461 H448 0.929 . S
C461 C453 1.433 . S
C461 N463 1.384 . S
N462 C458 1.427 . S
N462 C459 1.384 . S
N463 C455 1.427 . S
N463 C461 1.384 . S
H464 C470 0.930 . S
H465 C474 0.930 1_556 S
H466 C479 0.929 . S
H467 C477 0.929 . S
H468 C472 0.929 . S
H469 C478 0.929 . S
C470 H464 0.930 . S
C470 C471 1.367 1_455 S
C470 C478 1.378 . S
C471 C470 1.367 1_655 S
C471 C479 1.433 . S
C472 H468 0.929 . S
C472 C474 1.378 . S
C472 C476 1.350 . S
C473 C476 1.463 . S
C473 C478 1.350 . S
C473 N481 1.426 . S
C474 H465 0.930 1_554 S
C474 C472 1.378 . S
C474 C475 1.367 . S
C475 C474 1.367 . S
C475 C477 1.433 . S
C476 C472 1.350 . S
C476 C473 1.463 . S
C476 N480 1.427 . S
C477 H467 0.929 . S
C477 C475 1.433 . S
C477 N480 1.384 . S
C478 H469 0.929 . S
C478 C470 1.378 . S
C478 C473 1.350 . S
C479 H466 0.929 . S
C479 C471 1.433 . S
C479 N481 1.385 1_655 S
N480 C476 1.427 . S
N480 C477 1.384 . S
N481 C473 1.426 . S
N481 C479 1.385 1_455 S
H482 C488 0.930 . S
H483 C492 0.930 . S
H484 C497 0.929 . S
H485 C495 0.929 . S
H486 C490 0.929 . S
H487 C496 0.929 . S
C488 H482 0.930 . S
C488 C489 1.367 . S
C488 C496 1.378 . S
C489 C488 1.367 . S
C489 C497 1.433 1_565 S
C490 H486 0.929 . S
C490 C492 1.378 . S
C490 C494 1.350 . S
C491 C494 1.463 . S
C491 C496 1.350 1_545 S
C491 N499 1.427 . S
C492 H483 0.930 . S
C492 C490 1.378 . S
C492 C493 1.367 . S
C493 C492 1.367 . S
C493 C495 1.433 . S
C494 C490 1.350 . S
C494 C491 1.463 . S
C494 N498 1.427 . S
C495 H485 0.929 . S
C495 C493 1.433 . S
C495 N498 1.384 . S
C496 H487 0.929 . S
C496 C488 1.378 . S
C496 C491 1.350 1_565 S
C497 H484 0.929 . S
C497 C489 1.433 1_545 S
C497 N499 1.384 . S
N498 C494 1.427 . S
N498 C495 1.384 . S
N499 C491 1.427 . S
N499 C497 1.384 . S
H500 C506 0.930 . S
H501 C510 0.930 . S
H502 C515 0.929 . S
H503 C513 0.929 . S
H504 C508 0.929 . S
H505 C514 0.929 . S
C506 H500 0.930 . S
C506 C507 1.367 . S
C506 C514 1.378 . S
C507 C506 1.367 . S
C507 C515 1.433 . S
C508 H504 0.929 . S
C508 C510 1.378 . S
C508 C512 1.350 . S
C509 C512 1.463 . S
C509 C514 1.350 . S
C509 N517 1.427 . S
C510 H501 0.930 . S
C510 C508 1.378 . S
C510 C511 1.367 . S
C511 C510 1.367 . S
C511 C513 1.433 . S
C512 C508 1.350 . S
C512 C509 1.463 . S
C512 N516 1.427 . S
C513 H503 0.929 . S
C513 C511 1.433 . S
C513 N516 1.384 . S
C514 H505 0.929 . S
C514 C506 1.378 . S
C514 C509 1.350 . S
C515 H502 0.929 . S
C515 C507 1.433 . S
C515 N517 1.384 . S
N516 C512 1.427 . S
N516 C513 1.384 . S
N517 C509 1.427 . S
N517 C515 1.384 . S
H518 C524 0.930 . S
H519 C528 0.930 . S
H520 C533 0.929 . S
H521 C531 0.929 . S
H522 C526 0.929 . S
H523 C532 0.929 . S
C524 H518 0.930 . S
C524 C525 1.367 . S
C524 C532 1.378 . S
C525 C524 1.367 . S
C525 C533 1.433 . S
C526 H522 0.929 . S
C526 C528 1.378 . S
C526 C530 1.350 . S
C527 C530 1.463 . S
C527 C532 1.350 . S
C527 N535 1.427 . S
C528 H519 0.930 . S
C528 C526 1.378 . S
C528 C529 1.367 . S
C529 C528 1.367 . S
C529 C531 1.433 . S
C530 C526 1.350 . S
C530 C527 1.463 . S
C530 N534 1.427 . S
C531 H521 0.929 . S
C531 C529 1.433 . S
C531 N534 1.384 . S
C532 H523 0.929 . S
C532 C524 1.378 . S
C532 C527 1.350 . S
C533 H520 0.929 . S
C533 C525 1.433 . S
C533 N535 1.384 . S
N534 C530 1.427 . S
N534 C531 1.384 . S
N535 C527 1.427 . S
N535 C533 1.384 . S
H536 C542 0.930 . S
H537 C546 0.930 . S
H538 C551 0.929 1_554 S
H539 C549 0.929 . S
H540 C544 0.929 . S
H541 C550 0.929 . S
C542 H536 0.930 . S
C542 C543 1.367 . S
C542 C550 1.378 . S
C543 C542 1.367 . S
C543 C551 1.433 1_455 S
C544 H540 0.929 . S
C544 C546 1.378 . S
C544 C548 1.350 1_655 S
C545 C548 1.463 . S
C545 C550 1.350 . S
C545 N553 1.427 1_455 S
C546 H537 0.930 . S
C546 C544 1.378 . S
C546 C547 1.367 1_655 S
C547 C546 1.367 1_455 S
C547 C549 1.433 . S
C548 C544 1.350 1_455 S
C548 C545 1.463 . S
C548 N552 1.427 . S
C549 H539 0.929 . S
C549 C547 1.433 . S
C549 N552 1.384 . S
C550 H541 0.929 . S
C550 C542 1.378 . S
C550 C545 1.350 . S
C551 H538 0.929 1_556 S
C551 C543 1.433 1_655 S
C551 N553 1.384 . S
N552 C548 1.427 . S
N552 C549 1.384 . S
N553 C545 1.427 1_655 S
N553 C551 1.384 . S
H554 C560 0.930 . S
H555 C564 0.930 . S
H556 C569 0.929 . S
H557 C567 0.929 . S
H558 C562 0.929 . S
H559 C568 0.929 . S
C560 H554 0.930 . S
C560 C561 1.367 . S
C560 C568 1.378 . S
C561 C560 1.367 . S
C561 C569 1.433 1_545 S
C562 H558 0.929 . S
C562 C564 1.378 . S
C562 C566 1.350 1_565 S
C563 C566 1.463 . S
C563 C568 1.350 . S
C563 N571 1.427 1_545 S
C564 H555 0.930 . S
C564 C562 1.378 . S
C564 C565 1.367 1_565 S
C565 C564 1.367 1_545 S
C565 C567 1.433 . S
C566 C562 1.350 1_545 S
C566 C563 1.463 . S
C566 N570 1.427 . S
C567 H557 0.929 . S
C567 C565 1.433 . S
C567 N570 1.384 . S
C568 H559 0.929 . S
C568 C560 1.378 . S
C568 C563 1.350 . S
C569 H556 0.929 . S
C569 C561 1.433 1_565 S
C569 N571 1.384 . S
N570 C566 1.427 . S
N570 C567 1.384 . S
N571 C563 1.427 1_565 S
N571 C569 1.384 . S
H572 C578 0.930 1_554 S
H573 C582 0.930 . S
H574 C587 0.929 . S
H575 C585 0.929 . S
H576 C580 0.929 . S
H577 C586 0.929 . S
C578 H572 0.930 1_556 S
C578 C579 1.367 . S
C578 C586 1.378 . S
C579 C578 1.367 . S
C579 C587 1.433 . S
C580 H576 0.929 . S
C580 C582 1.378 . S
C580 C584 1.350 . S
C581 C584 1.463 . S
C581 C586 1.350 . S
C581 N589 1.427 . S
C582 H573 0.930 . S
C582 C580 1.378 . S
C582 C583 1.367 . S
C583 C582 1.367 . S
C583 C585 1.433 . S
C584 C580 1.350 . S
C584 C581 1.463 . S
C584 N588 1.427 . S
C585 H575 0.929 . S
C585 C583 1.433 . S
C585 N588 1.384 . S
C586 H577 0.929 . S
C586 C578 1.378 . S
C586 C581 1.350 . S
C587 H574 0.929 . S
C587 C579 1.433 . S
C587 N589 1.384 . S
N588 C584 1.427 . S
N588 C585 1.384 . S
N589 C581 1.427 . S
N589 C587 1.384 . S
H590 C596 0.930 . S
H591 C600 0.930 . S
H592 C605 0.929 . S
H593 C603 0.929 . S
H594 C598 0.929 . S
H595 C604 0.929 . S
C596 H590 0.930 . S
C596 C597 1.367 . S
C596 C604 1.378 . S
C597 C596 1.367 . S
C597 C605 1.433 . S
C598 H594 0.929 . S
C598 C600 1.378 . S
C598 C602 1.350 . S
C599 C602 1.463 . S
C599 C604 1.350 . S
C599 N607 1.427 . S
C600 H591 0.930 . S
C600 C598 1.378 . S
C600 C601 1.367 . S
C601 C600 1.367 . S
C601 C603 1.433 . S
C602 C598 1.350 . S
C602 C599 1.463 . S
C602 N606 1.427 . S
C603 H593 0.929 . S
C603 C601 1.433 . S
C603 N606 1.384 . S
C604 H595 0.929 . S
C604 C596 1.378 . S
C604 C599 1.350 . S
C605 H592 0.929 . S
C605 C597 1.433 . S
C605 N607 1.384 . S
N606 C602 1.427 . S
N606 C603 1.384 . S
N607 C599 1.427 . S
N607 C605 1.384 . S
H608 C614 0.930 . S
H609 C618 0.930 . S
H610 C623 0.929 . S
H611 C621 0.929 1_455 S
H612 C616 0.929 . S
H613 C622 0.929 . S
C614 H608 0.930 . S
C614 C615 1.367 1_455 S
C614 C622 1.378 . S
C615 C614 1.367 1_655 S
C615 C623 1.433 . S
C616 H612 0.929 . S
C616 C618 1.378 . S
C616 C620 1.350 . S
C617 C620 1.463 . S
C617 C622 1.350 1_655 S
C617 N625 1.427 . S
C618 H609 0.930 . S
C618 C616 1.378 . S
C618 C619 1.367 . S
C619 C618 1.367 . S
C619 C621 1.433 . S
C620 C616 1.350 . S
C620 C617 1.463 . S
C620 N624 1.426 1_655 S
C621 H611 0.929 1_655 S
C621 C619 1.433 . S
C621 N624 1.383 1_655 S
C622 H613 0.929 . S
C622 C614 1.378 . S
C622 C617 1.350 1_455 S
C623 H610 0.929 . S
C623 C615 1.433 . S
C623 N625 1.384 . S
N624 C620 1.426 1_455 S
N624 C621 1.383 1_455 S
N625 C617 1.427 . S
N625 C623 1.384 . S
H626 C632 0.930 . S
H627 C636 0.930 . S
H628 C641 0.929 . S
H629 C639 0.929 . S
H630 C634 0.929 . S
H631 C640 0.929 . S
C632 H626 0.930 . S
C632 C633 1.367 1_545 S
C632 C640 1.378 . S
C633 C632 1.367 1_565 S
C633 C641 1.433 . S
C634 H630 0.929 . S
C634 C636 1.378 . S
C634 C638 1.350 . S
C635 C638 1.463 . S
C635 C640 1.350 1_565 S
C635 N643 1.427 . S
C636 H627 0.930 . S
C636 C634 1.378 . S
C636 C637 1.367 . S
C637 C636 1.367 . S
C637 C639 1.433 1_565 S
C638 C634 1.350 . S
C638 C635 1.463 . S
C638 N642 1.427 1_565 S
C639 H629 0.929 . S
C639 C637 1.433 1_545 S
C639 N642 1.384 . S
C640 H631 0.929 . S
C640 C632 1.378 . S
C640 C635 1.350 1_545 S
C641 H628 0.929 . S
C641 C633 1.433 . S
C641 N643 1.384 . S
N642 C638 1.427 1_545 S
N642 C639 1.384 . S
N643 C635 1.427 . S
N643 C641 1.384 . S
H644 C650 0.930 . S
H645 C654 0.930 . S
H646 C659 0.929 . S
H647 C657 0.929 . S
H648 C652 0.929 . S
H649 C658 0.929 . S
C650 H644 0.930 . S
C650 C651 1.367 . S
C650 C658 1.378 . S
C651 C650 1.367 . S
C651 C659 1.433 . S
C652 H648 0.929 . S
C652 C654 1.378 . S
C652 C656 1.350 . S
C653 C656 1.463 . S
C653 C658 1.350 . S
C653 N661 1.427 . S
C654 H645 0.930 . S
C654 C652 1.378 . S
C654 C655 1.367 . S
C655 C654 1.367 . S
C655 C657 1.433 . S
C656 C652 1.350 . S
C656 C653 1.463 . S
C656 N660 1.427 . S
C657 H647 0.929 . S
C657 C655 1.433 . S
C657 N660 1.384 . S
C658 H649 0.929 . S
C658 C650 1.378 . S
C658 C653 1.350 . S
C659 H646 0.929 . S
C659 C651 1.433 . S
C659 N661 1.384 . S
N660 C656 1.427 . S
N660 C657 1.384 . S
N661 C653 1.427 . S
N661 C659 1.384 . S
H662 C668 0.930 . S
H663 C672 0.930 . S
H664 C677 0.929 . S
H665 C675 0.929 . S
H666 C670 0.929 . S
H667 C676 0.929 . S
C668 H662 0.930 . S
C668 C669 1.367 . S
C668 C676 1.378 . S
C669 C668 1.367 . S
C669 C677 1.433 . S
C670 H666 0.929 . S
C670 C672 1.378 . S
C670 C674 1.350 . S
C671 C674 1.463 . S
C671 C676 1.350 . S
C671 N679 1.427 . S
C672 H663 0.930 . S
C672 C670 1.378 . S
C672 C673 1.367 . S
C673 C672 1.367 . S
C673 C675 1.433 . S
C674 C670 1.350 . S
C674 C671 1.463 . S
C674 N678 1.427 . S
C675 H665 0.929 . S
C675 C673 1.433 . S
C675 N678 1.384 . S
C676 H667 0.929 . S
C676 C668 1.378 . S
C676 C671 1.350 . S
C677 H664 0.929 . S
C677 C669 1.433 . S
C677 N679 1.384 . S
N678 C674 1.427 . S
N678 C675 1.384 . S
N679 C671 1.427 . S
N679 C677 1.384 . S
C255 C76 1.850 . S
C259 C106 1.984 1_545 S
C277 C146 2.001 . S
C273 C87 1.857 . S
C295 C186 2.005 . S
C291 C54 1.870 . S
C313 C226 1.994 1_455 S
C309 C65 1.860 . S
C331 C96 1.989 . S
C327 C32 1.848 . S
C345 C43 1.863 . S
C349 C136 2.001 . S
C363 C10 1.855 . S
C367 C176 2.008 . S
C381 C21 1.856 . S
C385 C216 1.994 1_655 S
C403 C93 0.470 . S
C399 C60 0.503 . S
C421 C133 0.499 . S
C417 C71 0.515 . S
C439 C173 0.484 . S
C435 C82 0.486 . S
C453 C49 0.479 . S
C457 C213 0.457 . S
C471 C16 0.473 1_655 S
C475 C103 0.463 . S
C493 C143 0.497 . S
C489 C27 0.520 1_565 S
C511 C183 0.489 . S
C507 C38 0.497 . S
C525 C5 0.500 . S
C529 C223 0.469 . S
C543 C59 2.062 . S
C547 C97 2.281 . S
C561 C70 2.026 . S
C565 C137 2.254 . S
C583 C177 2.244 . S
C579 C81 2.001 . S
C601 C217 2.276 . S
C597 C48 2.035 . S
C615 C15 2.064 1_655 S
C619 C107 2.295 . S
C637 C147 2.261 . S
C633 C26 2.027 1_565 S
C655 C187 2.241 . S
C651 C37 2.023 . S
C669 C4 2.052 . S
C673 C227 2.277 . S
