# Generated by pormake.
# Topology nom, (4,4)-cn, num edge types: 1
# Building blocks:
#     Node 0, Type 0, BuildingBlock: GIZVER_clean_linker_0, # of connection points: 4
#     Node 1, Type 0, BuildingBlock: GIZVER_clean_linker_0, # of connection points: 4
#     Node 2, Type 0, BuildingBlock: GIZVER_clean_linker_0, # of connection points: 4
#     Node 3, Type 0, BuildingBlock: GIZVER_clean_linker_0, # of connection points: 4
#     Node 4, Type 0, BuildingBlock: GIZVER_clean_linker_0, # of connection points: 4
#     Node 5, Type 0, BuildingBlock: GIZVER_clean_linker_0, # of connection points: 4
#     Node 6, Type 1, BuildingBlock: QUQFOY_clean_sbu_1, # of connection points: 4
#     Node 7, Type 1, BuildingBlock: QUQFOY_clean_sbu_1, # of connection points: 4
#     Node 8, Type 1, BuildingBlock: QUQFOY_clean_sbu_1, # of connection points: 4
#     Node 9, Type 1, BuildingBlock: QUQFOY_clean_sbu_1, # of connection points: 4
#     Node 10, Type 1, BuildingBlock: QUQFOY_clean_sbu_1, # of connection points: 4
#     Node 11, Type 1, BuildingBlock: QUQFOY_clean_sbu_1, # of connection points: 4
#     Edge 12, Type (0, 1), BuildingBlock: CIFDUS_clean_linker_0, # of connection points: 2
#     Edge 13, Type (0, 1), BuildingBlock: CIFDUS_clean_linker_0, # of connection points: 2
#     Edge 14, Type (0, 1), BuildingBlock: CIFDUS_clean_linker_0, # of connection points: 2
#     Edge 15, Type (0, 1), BuildingBlock: CIFDUS_clean_linker_0, # of connection points: 2
#     Edge 16, Type (0, 1), BuildingBlock: CIFDUS_clean_linker_0, # of connection points: 2
#     Edge 17, Type (0, 1), BuildingBlock: CIFDUS_clean_linker_0, # of connection points: 2
#     Edge 18, Type (0, 1), BuildingBlock: CIFDUS_clean_linker_0, # of connection points: 2
#     Edge 19, Type (0, 1), BuildingBlock: CIFDUS_clean_linker_0, # of connection points: 2
#     Edge 20, Type (0, 1), BuildingBlock: CIFDUS_clean_linker_0, # of connection points: 2
#     Edge 21, Type (0, 1), BuildingBlock: CIFDUS_clean_linker_0, # of connection points: 2
#     Edge 22, Type (0, 1), BuildingBlock: CIFDUS_clean_linker_0, # of connection points: 2
#     Edge 23, Type (0, 1), BuildingBlock: CIFDUS_clean_linker_0, # of connection points: 2
#     Edge 24, Type (0, 1), BuildingBlock: CIFDUS_clean_linker_0, # of connection points: 2
#     Edge 25, Type (0, 1), BuildingBlock: CIFDUS_clean_linker_0, # of connection points: 2
#     Edge 26, Type (0, 1), BuildingBlock: CIFDUS_clean_linker_0, # of connection points: 2
#     Edge 27, Type (0, 1), BuildingBlock: CIFDUS_clean_linker_0, # of connection points: 2
#     Edge 28, Type (0, 1), BuildingBlock: CIFDUS_clean_linker_0, # of connection points: 2
#     Edge 29, Type (0, 1), BuildingBlock: CIFDUS_clean_linker_0, # of connection points: 2
#     Edge 30, Type (0, 1), BuildingBlock: CIFDUS_clean_linker_0, # of connection points: 2
#     Edge 31, Type (0, 1), BuildingBlock: CIFDUS_clean_linker_0, # of connection points: 2
#     Edge 32, Type (0, 1), BuildingBlock: CIFDUS_clean_linker_0, # of connection points: 2
#     Edge 33, Type (0, 1), BuildingBlock: CIFDUS_clean_linker_0, # of connection points: 2
#     Edge 34, Type (0, 1), BuildingBlock: CIFDUS_clean_linker_0, # of connection points: 2
#     Edge 35, Type (0, 1), BuildingBlock: CIFDUS_clean_linker_0, # of connection points: 2
# Relax obj value: 0.004
# Max RMSD: 0.083
# Mean RMSD: 0.077
data_MOF--net-nom--node1-QUQFOY_clean_sbu_1--node2-GIZVER_clean_linker_0--edge1-CIFDUS_clean_linker_0
_symmetry_space_group_name_H-M    P1
_symmetry_Int_Tables_number       1
_symmetry_cell_setting            triclinic
loop_
_symmetry_equiv_pos_as_xyz
'x, y, z'
_cell_length_a     41.652019
_cell_length_b     41.542713
_cell_length_c     41.441055
_cell_angle_alpha  89.761283
_cell_angle_beta   89.982152
_cell_angle_gamma 120.25241
loop_
_atom_site_label
_atom_site_type_symbol
_atom_site_fract_x
_atom_site_fract_y
_atom_site_fract_z
_atom_type_partial_charge
H0 H 0.99872 0.57969 0.32755 0.0
H1 H 1.02782 0.5886 0.22685 0.0
H2 H 0.9228 0.49906 0.26013 0.0
H3 H 0.05118 0.63651 0.30687 0.0
H4 H 0.05696 0.64384 0.26426 0.0
H5 H 0.077 0.60096 0.33501 0.0
H6 H 0.17656 0.61348 0.29262 0.0
H7 H 0.10488 0.63837 0.23653 0.0
C8 C 0.99243 0.56851 0.30331 0.0
C9 C 0.95832 0.53604 0.29706 0.0
C10 C 1.01781 0.58733 0.27801 0.0
C11 C 1.00876 0.57357 0.24644 0.0
C12 C 0.97463 0.54149 0.23989 0.0
C13 C 0.95003 0.52264 0.26539 0.0
C14 C 0.05304 0.62379 0.28387 0.0
C15 C 0.08618 0.61835 0.28509 0.0
C16 C 0.09461 0.60653 0.314 0.0
C17 C 0.12704 0.60445 0.3166 0.0
C18 C 0.15035 0.61285 0.28976 0.0
C19 C 0.143 0.62559 0.26086 0.0
C20 C 0.11043 0.62775 0.25847 0.0
H21 H 0.45231 0.98901 0.49433 0.0
H22 H 0.4731 1.01773 0.39347 0.0
H23 H 0.45693 0.91279 0.42741 0.0
H24 H 0.44772 0.04112 0.47289 0.0
H25 H 0.44847 0.04803 0.43027 0.0
H26 H 0.50653 0.06809 0.50377 0.0
H27 H 0.59888 0.16542 0.46236 0.0
H28 H 0.50528 0.09343 0.40305 0.0
C29 C 0.4572 0.9826 0.47014 0.0
C30 C 0.45539 0.94844 0.4641 0.0
C31 C 0.46404 1.00791 0.44469 0.0
C32 C 0.4688 0.99872 0.41318 0.0
C33 C 0.46666 0.96457 0.40687 0.0
C34 C 0.4606 0.94003 0.43249 0.0
C35 C 0.46334 0.04334 0.4504 0.0
C36 C 0.50227 0.07619 0.45281 0.0
C37 C 0.52043 0.08508 0.48274 0.0
C38 C 0.55547 0.11704 0.48603 0.0
C39 C 0.57287 0.13953 0.45906 0.0
C40 C 0.55496 0.13168 0.42905 0.0
C41 C 0.51974 0.09948 0.42593 0.0
H42 H 0.46625 0.51754 0.55851 0.0
H43 H 0.4938 0.51412 0.65805 0.0
H44 H 0.48416 0.60599 0.6229 0.0
H45 H 0.46155 0.46183 0.57963 0.0
H46 H 0.45621 0.45559 0.62229 0.0
H47 H 0.52583 0.49095 0.55517 0.0
H48 H 0.59773 0.46108 0.60387 0.0
H49 H 0.50304 0.45268 0.65371 0.0
C50 C 0.4746 0.53084 0.58187 0.0
C51 C 0.4757 0.56484 0.58718 0.0
C52 C 0.48181 0.51272 0.60728 0.0
C53 C 0.49032 0.52894 0.638 0.0
C54 C 0.49179 0.5629 0.64347 0.0
C55 C 0.4855 0.58109 0.61787 0.0
C56 C 0.47544 0.47391 0.60303 0.0
C57 C 0.5114 0.47348 0.60475 0.0
C58 C 0.53391 0.48268 0.57717 0.0
C59 C 0.56543 0.47885 0.57721 0.0
C60 C 0.57486 0.46648 0.60511 0.0
C61 C 0.55239 0.45636 0.63285 0.0
C62 C 0.521 0.46079 0.63271 0.0
H63 H 0.99035 0.42503 0.72742 0.0
H64 H 1.02297 0.4578 0.82593 0.0
H65 H 0.91398 0.42984 0.7943 0.0
H66 H 0.04764 0.4318 0.74635 0.0
H67 H 0.05164 0.42791 0.78888 0.0
H68 H 0.07332 0.49478 0.72079 0.0
H69 H 0.1679 0.58257 0.76868 0.0
H70 H 0.09535 0.48103 0.81984 0.0
C71 C 0.98435 0.43163 0.75113 0.0
C72 C 0.94919 0.42727 0.75753 0.0
C73 C 1.01126 0.4431 0.77569 0.0
C74 C 1.00278 0.45014 0.80671 0.0
C75 C 0.96795 0.44607 0.8133 0.0
C76 C 0.94164 0.43516 0.78857 0.0
C77 C 0.0477 0.44461 0.7699 0.0
C78 C 0.07969 0.48422 0.77073 0.0
C79 C 0.08925 0.50622 0.7427 0.0
C80 C 0.12081 0.54191 0.74217 0.0
C81 C 0.14215 0.55605 0.7701 0.0
C82 C 0.13371 0.53422 0.79817 0.0
C83 C 0.10183 0.49847 0.79854 0.0
H84 H 0.67367 0.08583 -0.01576 0.0
H85 H 0.63287 0.05598 0.8872 0.0
H86 H 0.65645 0.16136 0.92572 0.0
H87 H 0.67483 0.0347 -0.04163 0.0
H88 H 0.66874 0.02973 0.91567 0.0
H89 H 0.61456 1.01143 -0.00699 0.0
H90 H 0.52989 0.90289 -0.03757 0.0
H91 H 0.61623 0.97487 0.89631 0.0
C92 C 0.66395 0.09199 -0.0379 0.0
C93 C 0.66487 0.12615 -0.04132 0.0
C94 C 0.65226 0.06651 0.93636 0.0
C95 C 0.6409 0.07512 0.90729 0.0
C96 C 0.6418 0.10914 0.90352 0.0
C97 C 0.65329 0.13407 0.92942 0.0
C98 C 0.65591 0.03224 0.93838 0.0
C99 C 0.61872 0.99753 0.94371 0.0
C100 C 0.60167 0.99081 -0.02586 0.0
C101 C 0.56923 0.9569 -0.0192 0.0
C102 C 0.55349 0.92997 -0.04348 0.0
C103 C 0.57015 0.93591 0.92597 0.0
C104 C 0.60264 0.97013 0.91957 0.0
H105 H 0.65223 0.58605 0.07184 0.0
H106 H 0.61567 0.57563 0.17049 0.0
H107 H 0.62554 0.48766 0.12683 0.0
H108 H 0.65833 0.63988 0.09996 0.0
H109 H 0.65093 0.6375 0.14265 0.0
H110 H 0.59996 0.60736 0.06365 0.0
H111 H 0.51243 0.62543 0.0961 0.0
H112 H 0.59788 0.63938 0.16209 0.0
C113 C 0.64148 0.56951 0.09365 0.0
C114 C 0.63854 0.5343 0.09561 0.0
C115 C 0.63244 0.58423 0.12045 0.0
C116 C 0.62075 0.56362 0.14928 0.0
C117 C 0.61781 0.52858 0.15142 0.0
C118 C 0.62557 0.51368 0.12432 0.0
C119 C 0.63846 0.62317 0.11949 0.0
C120 C 0.60222 0.62214 0.11379 0.0
C121 C 0.58629 0.61354 0.08291 0.0
C122 C 0.55364 0.61426 0.0765 0.0
C123 C 0.5365 0.6228 0.10145 0.0
C124 C 0.55219 0.632 0.1323 0.0
C125 C 0.58511 0.6315 0.13848 0.0
O126 O 0.61955 0.4055 0.39792 0.0
Cd127 Cd 0.63551 0.38963 0.35679 0.0
Cd128 Cd 0.70227 0.45544 0.37317 0.0
O129 O 0.67347 0.45174 0.41457 0.0
O130 O 0.59177 0.33924 0.3488 0.0
O131 O 0.64777 0.34839 0.3589 0.0
C132 C 0.61296 0.32543 0.35358 0.0
C133 C 0.76606 0.47644 0.37556 0.0
C134 C 0.63871 0.43045 0.41852 0.0
C135 C 0.66128 0.45409 0.31202 0.0
O136 O 0.68665 0.47264 0.33247 0.0
O137 O 0.63938 0.41933 0.31585 0.0
O138 O 0.75319 0.49829 0.38114 0.0
O139 O 0.7424 0.44182 0.36992 0.0
O140 O 0.25173 0.60947 0.56386 0.0
Cd141 Cd 0.28384 0.62878 0.52281 0.0
Cd142 Cd 0.27961 0.6916 0.54031 0.0
O143 O 0.25464 0.66105 0.5812 0.0
O144 O 0.2945 0.58803 0.51364 0.0
O145 O 0.33856 0.64548 0.52466 0.0
C146 C 0.32916 0.61139 0.51851 0.0
C147 C 0.32231 0.75554 0.54313 0.0
C148 C 0.24358 0.62661 0.58468 0.0
C149 C 0.24209 0.65116 0.47869 0.0
O150 O 0.24714 0.67562 0.49952 0.0
O151 O 0.2569 0.6311 0.48217 0.0
O152 O 0.28747 0.74224 0.54893 0.0
O153 O 0.33338 0.73217 0.53713 0.0
O154 O 0.66503 0.23542 0.73688 0.0
Cd155 Cd 0.68237 0.26838 0.6961 0.0
Cd156 Cd 0.62087 0.27162 0.70913 0.0
O157 O 0.62001 0.24557 0.75167 0.0
O158 O 0.73547 0.28282 0.69012 0.0
O159 O 0.71735 0.32353 0.7001 0.0
C160 C 0.7441 0.31682 0.69542 0.0
C161 C 0.61579 0.32498 0.7084 0.0
C162 C 0.63972 0.23065 0.75674 0.0
C163 C 0.62114 0.23107 0.64908 0.0
O164 O 0.60222 0.23845 0.66863 0.0
O165 O 0.65537 0.24307 0.65427 0.0
O166 O 0.58739 0.29255 0.71423 0.0
O167 O 0.64762 0.32727 0.70412 0.0
O168 O 0.46765 0.64683 0.90365 0.0
Cd169 Cd 0.45522 0.66682 0.86283 0.0
Cd170 Cd 0.38793 0.60001 0.8709 0.0
O171 O 0.41202 0.59847 0.91354 0.0
O172 O 0.4956 0.71992 0.85981 0.0
O173 O 0.43653 0.70292 0.86692 0.0
C174 C 0.47076 0.72929 0.86414 0.0
C175 C 0.32414 0.5787 0.87109 0.0
C176 C 0.44587 0.6192 0.92123 0.0
C177 C 0.43541 0.60975 0.81194 0.0
O178 O 0.40751 0.58845 0.8294 0.0
O179 O 0.45703 0.64341 0.81993 0.0
O180 O 0.33677 0.55627 0.87431 0.0
O181 O 0.34796 0.61388 0.86855 0.0
O182 O 0.85167 0.41288 -0.01207 0.0
Cd183 Cd 0.81936 0.39199 0.02887 0.0
Cd184 Cd 0.82369 0.46197 0.02405 0.0
O185 O 0.84776 0.46348 -0.01949 0.0
O186 O 0.80684 0.33897 0.03013 0.0
O187 O 0.76438 0.3556 0.02503 0.0
C188 C 0.77245 0.3294 0.02663 0.0
C189 C 0.78297 0.48527 0.02584 0.0
C190 C 0.85882 0.44157 -0.02863 0.0
C191 C 0.85902 0.44632 0.08153 0.0
O192 O 0.85485 0.46989 0.06513 0.0
O193 O 0.84468 0.41279 0.07229 0.0
O194 O 0.81833 0.50696 0.02288 0.0
O195 O 0.77038 0.44981 0.02727 0.0
O196 O 0.48031 0.84334 0.15563 0.0
Cd197 Cd 0.47007 0.81214 0.19721 0.0
Cd198 Cd 0.40192 0.8145 0.19054 0.0
O199 O 0.4258 0.83887 0.14717 0.0
O200 O 0.51524 0.80729 0.20007 0.0
O201 O 0.45879 0.75877 0.19505 0.0
C202 C 0.49414 0.7718 0.19736 0.0
C203 C 0.33772 0.77277 0.19176 0.0
C204 C 0.45908 0.85018 0.13855 0.0
C205 C 0.45148 0.85061 0.24874 0.0
O206 O 0.42396 0.84576 0.23179 0.0
O207 O 0.47154 0.83718 0.24005 0.0
O208 O 0.35122 0.80813 0.18845 0.0
O209 O 0.36085 0.76074 0.19372 0.0
H210 H 0.17039 0.69377 0.23347 0.0
H211 H 0.18515 0.59826 0.23559 0.0
H212 H 0.24645 0.63499 0.21061 0.0
H213 H 0.29958 0.69681 0.19686 0.0
H214 H 0.28451 0.7923 0.19581 0.0
H215 H 0.2196 0.75296 0.21124 0.0
C216 C 0.18637 0.68058 0.22731 0.0
C217 C 0.17344 0.64348 0.23669 0.0
C218 C 0.22198 0.70214 0.2138 0.0
C219 C 0.19471 0.62692 0.22884 0.0
C220 C 0.22988 0.64799 0.21481 0.0
C221 C 0.28193 0.70889 0.19948 0.0
C222 C 0.29715 0.74757 0.19583 0.0
C223 C 0.24451 0.68609 0.20864 0.0
C224 C 0.27372 0.76268 0.19886 0.0
C225 C 0.23651 0.7402 0.20772 0.0
H226 H 0.51801 0.15833 0.39445 0.0
H227 H 0.62704 0.17257 0.40814 0.0
H228 H 0.65522 0.23336 0.3814 0.0
H229 H 0.64922 0.28678 0.3636 0.0
H230 H 0.53979 0.27207 0.35057 0.0
H231 H 0.51154 0.20705 0.36694 0.0
C232 C 0.5478 0.17401 0.39045 0.0
C233 C 0.57043 0.16126 0.4038 0.0
C234 C 0.56387 0.20931 0.37575 0.0
C235 C 0.60906 0.1821 0.39851 0.0
C236 C 0.62522 0.21697 0.38341 0.0
C237 C 0.61921 0.26913 0.36366 0.0
C238 C 0.59672 0.28457 0.35661 0.0
C239 C 0.603 0.23167 0.37348 0.0
C240 C 0.55785 0.26114 0.35634 0.0
C241 C 0.54159 0.22387 0.36577 0.0
H242 H 0.41229 0.52586 0.55261 0.0
H243 H 0.50171 0.63777 0.57025 0.0
H244 H 0.46528 0.66296 0.5463 0.0
H245 H 0.40399 0.65253 0.52939 0.0
H246 H 0.31486 0.54016 0.51228 0.0
H247 H 0.3555 0.51599 0.52632 0.0
C248 C 0.42447 0.55577 0.55009 0.0
C249 C 0.45942 0.57986 0.56374 0.0
C250 C 0.40308 0.57003 0.53693 0.0
C251 C 0.47458 0.6186 0.5604 0.0
C252 C 0.45369 0.63302 0.54687 0.0
C253 C 0.3937 0.62283 0.52808 0.0
C254 C 0.35619 0.59819 0.5205 0.0
C255 C 0.41718 0.60894 0.53655 0.0
C256 C 0.34346 0.55981 0.51848 0.0
C257 C 0.36668 0.54586 0.52657 0.0
H258 H 0.89758 0.44694 0.74314 0.0
H259 H 0.93005 0.36607 0.72037 0.0
H260 H 0.8703 0.3268 0.69422 0.0
H261 H 0.80538 0.31049 0.68671 0.0
H262 H 0.77142 0.38942 0.71293 0.0
H263 H 0.83503 0.43425 0.72889 0.0
C264 C 0.8918 0.42103 0.73188 0.0
C265 C 0.91802 0.4092 0.73416 0.0
C266 C 0.85679 0.39786 0.7181 0.0
C267 C 0.91049 0.37596 0.71891 0.0
C268 C 0.87608 0.35322 0.70431 0.0
C269 C 0.81198 0.33775 0.69537 0.0
C270 C 0.78351 0.34631 0.6992 0.0
C271 C 0.84844 0.36309 0.70515 0.0
C272 C 0.79268 0.38194 0.71006 0.0
C273 C 0.82906 0.40758 0.71927 0.0
H274 H 0.49829 0.8846 0.91142 0.0
H275 H 0.61154 0.91433 0.89075 0.0
H276 H 0.58981 0.85408 0.86527 0.0
H277 H 0.5398 0.78966 0.85716 0.0
H278 H 0.42682 0.7581 0.88124 0.0
H279 H 0.44729 0.82215 0.89724 0.0
C280 C 0.51818 0.87808 0.90088 0.0
C281 C 0.55654 0.90382 0.90346 0.0
C282 C 0.50558 0.84273 0.88746 0.0
C283 C 0.58189 0.89527 0.88904 0.0
C284 C 0.56949 0.86055 0.87481 0.0
C285 C 0.51952 0.79685 0.86544 0.0
C286 C 0.48191 0.76896 0.86854 0.0
C287 C 0.53157 0.83353 0.87519 0.0
C288 C 0.45598 0.77893 0.8789 0.0
C289 C 0.46768 0.81555 0.88813 0.0
H290 H 0.70652 0.57507 0.06829 0.0
H291 H 0.61012 0.46475 0.06965 0.0
H292 H 0.64596 0.43976 0.04429 0.0
H293 H 0.70724 0.44793 0.03058 0.0
H294 H 0.80362 0.55854 0.03042 0.0
H295 H 0.76517 0.58471 0.04602 0.0
C296 C 0.69295 0.54582 0.06188 0.0
C297 C 0.65587 0.52172 0.07117 0.0
C298 C 0.71399 0.53152 0.04819 0.0
C299 C 0.63879 0.48378 0.06298 0.0
C300 C 0.65934 0.46945 0.04873 0.0
C301 C 0.7197 0.47781 0.03343 0.0
C302 C 0.75836 0.5011 0.03001 0.0
C303 C 0.69743 0.49278 0.04271 0.0
C304 C 0.774 0.53984 0.03332 0.0
C305 C 0.75203 0.55492 0.04227 0.0
H306 H 0.39514 0.92314 0.50316 0.0
H307 H 0.48582 0.90553 0.47919 0.0
H308 H 0.45433 0.84493 0.50635 0.0
H309 H 0.39615 0.79274 0.52784 0.0
H310 H 0.30482 0.81011 0.5504 0.0
H311 H 0.34161 0.87502 0.53348 0.0
C312 C 0.40863 0.90667 0.50498 0.0
C313 C 0.44247 0.91851 0.48886 0.0
C314 C 0.38986 0.87138 0.51983 0.0
C315 C 0.45953 0.89673 0.49118 0.0
C316 C 0.44142 0.86198 0.5065 0.0
C317 C 0.3846 0.81094 0.52974 0.0
C318 C 0.3475 0.79631 0.5397 0.0
C319 C 0.40574 0.84825 0.51946 0.0
C320 C 0.33313 0.82043 0.54239 0.0
C321 C 0.35413 0.85763 0.53264 0.0
H322 H 0.61834 0.46857 0.65778 0.0
H323 H 0.49971 0.39463 0.66533 0.0
H324 H 0.50958 0.34969 0.69498 0.0
H325 H 0.55127 0.32627 0.70906 0.0
H326 H 0.66968 0.39718 0.69619 0.0
H327 H 0.66051 0.44801 0.67802 0.0
C328 C 0.59462 0.44284 0.66634 0.0
C329 C 0.55834 0.43482 0.65867 0.0
C330 C 0.60046 0.41607 0.68176 0.0
C331 C 0.52796 0.40182 0.67081 0.0
C332 C 0.53358 0.37573 0.68742 0.0
C333 C 0.57518 0.35306 0.70289 0.0
C334 C 0.61106 0.35769 0.70344 0.0
C335 C 0.56962 0.38176 0.69151 0.0
C336 C 0.64172 0.3927 0.69562 0.0
C337 C 0.63649 0.42178 0.68518 0.0
H338 H 0.15845 0.49222 0.82715 0.0
H339 H 0.17541 0.60356 0.82489 0.0
H340 H 0.23555 0.62729 0.85138 0.0
H341 H 0.28758 0.61769 0.86592 0.0
H342 H 0.26977 0.50591 0.8677 0.0
H343 H 0.20551 0.48111 0.85126 0.0
C344 C 0.17452 0.52143 0.8336 0.0
C345 C 0.16277 0.54617 0.82348 0.0
C346 C 0.20938 0.53499 0.84816 0.0
C347 C 0.18417 0.58402 0.83194 0.0
C348 C 0.21867 0.59765 0.8469 0.0
C349 C 0.26942 0.58786 0.86332 0.0
C350 C 0.28375 0.56383 0.86728 0.0
C351 C 0.23237 0.57366 0.85357 0.0
C352 C 0.25969 0.52517 0.86434 0.0
C353 C 0.22285 0.51088 0.85489 0.0
H354 H 0.6434 0.17494 -0.02128 0.0
H355 H 0.72905 0.14664 -0.00812 0.0
H356 H 0.768 0.20582 0.01895 0.0
H357 H 0.7821 0.26956 0.02988 0.0
H358 H 0.69869 0.3001 0.01255 0.0
H359 H 0.65472 0.23635 -0.00413 0.0
C360 C 0.67036 0.18149 -0.012 0.0
C361 C 0.68348 0.15659 -0.01726 0.0
C362 C 0.6934 0.21638 0.00214 0.0
C363 C 0.71809 0.16509 -0.00439 0.0
C364 C 0.74066 0.19924 0.01072 0.0
C365 C 0.75412 0.26219 0.02294 0.0
C366 C 0.74392 0.28975 0.02189 0.0
C367 C 0.7293 0.22574 0.01269 0.0
C368 C 0.70739 0.27955 0.01326 0.0
C369 C 0.68225 0.2431 0.00366 0.0
H370 H 0.58926 0.69835 0.16264 0.0
H371 H 0.48015 0.60198 0.15189 0.0
H372 H 0.45203 0.63602 0.17517 0.0
H373 H 0.45813 0.69626 0.18974 0.0
H374 H 0.56758 0.79312 0.19859 0.0
H375 H 0.5958 0.75583 0.18528 0.0
C376 C 0.55947 0.68441 0.16657 0.0
C377 C 0.53677 0.64787 0.15542 0.0
C378 C 0.54345 0.70455 0.17893 0.0
C379 C 0.49812 0.63021 0.16024 0.0
C380 C 0.48203 0.64976 0.17325 0.0
C381 C 0.48814 0.70905 0.18931 0.0
C382 C 0.51063 0.74758 0.19451 0.0
C383 C 0.50432 0.68749 0.18123 0.0
C384 C 0.54952 0.76362 0.19424 0.0
C385 C 0.56577 0.74231 0.18662 0.0
H386 H 0.93346 0.57109 0.3361 0.0
H387 H 0.91471 0.46219 0.31173 0.0
H388 H 0.85416 0.43304 0.33856 0.0
H389 H 0.80245 0.43929 0.35999 0.0
H390 H 0.82105 0.54865 0.38298 0.0
H391 H 0.88575 0.57665 0.36625 0.0
C392 C 0.91674 0.54097 0.33776 0.0
C393 C 0.92828 0.51883 0.32162 0.0
C394 C 0.8815 0.52445 0.35242 0.0
C395 C 0.90617 0.4798 0.32373 0.0
C396 C 0.87144 0.46313 0.33886 0.0
C397 C 0.82086 0.46915 0.36202 0.0
C398 C 0.80665 0.49185 0.37206 0.0
C399 C 0.85807 0.48526 0.35186 0.0
C400 C 0.83104 0.53048 0.3749 0.0
C401 C 0.86813 0.54662 0.36526 0.0
H402 H 0.13734 0.64791 0.36772 0.0
H403 H 0.15129 0.55725 0.3354 0.0
H404 H 0.18768 0.56302 0.38376 0.0
H405 H 0.21984 0.59761 0.43258 0.0
H406 H 0.20797 0.69046 0.463 0.0
H407 H 0.1666 0.68024 0.41781 0.0
C408 C 0.14743 0.62872 0.37181 0.0
C409 C 0.14139 0.60191 0.34846 0.0
C410 C 0.16938 0.63319 0.39887 0.0
C411 C 0.1554 0.57782 0.3534 0.0
C412 C 0.17645 0.58138 0.38081 0.0
C413 C 0.20822 0.61562 0.42934 0.0
C414 C 0.21733 0.64498 0.45099 0.0
C415 C 0.18448 0.60968 0.40322 0.0
C416 C 0.2017 0.66782 0.44659 0.0
C417 C 0.17789 0.66192 0.42082 0.0
H418 H 0.5217 0.13084 0.53479 0.0
H419 H 0.62493 0.13774 0.50789 0.0
H420 H 0.65441 0.17315 0.55693 0.0
H421 H 0.6518 0.2061 0.60495 0.0
H422 H 0.54889 0.20144 0.63023 0.0
H423 H 0.5183 0.16135 0.5841 0.0
C424 C 0.55035 0.13926 0.5402 0.0
C425 C 0.57111 0.13145 0.5182 0.0
C426 C 0.56731 0.16063 0.56769 0.0
C427 C 0.60848 0.14326 0.52483 0.0
C428 C 0.62533 0.16372 0.55263 0.0
C429 C 0.62268 0.19633 0.60041 0.0
C430 C 0.60279 0.20706 0.62089 0.0
C431 C 0.60524 0.17335 0.57379 0.0
C432 C 0.56498 0.19386 0.61475 0.0
C433 C 0.54738 0.1708 0.58844 0.0
H434 H 0.44463 0.52318 0.69119 0.0
H435 H 0.53733 0.63188 0.66866 0.0
H436 H 0.52891 0.65595 0.71995 0.0
H437 H 0.49183 0.64694 0.76882 0.0
H438 H 0.39691 0.53851 0.78942 0.0
H439 H 0.40945 0.51346 0.74108 0.0
C440 C 0.46359 0.55187 0.698 0.0
C441 C 0.49183 0.57571 0.67661 0.0
C442 C 0.45768 0.56567 0.72677 0.0
C443 C 0.51565 0.61307 0.68509 0.0
C444 C 0.51062 0.62683 0.71419 0.0
C445 C 0.47393 0.61781 0.7628 0.0
C446 C 0.4433 0.59476 0.78261 0.0
C447 C 0.48112 0.60358 0.73482 0.0
C448 C 0.42051 0.55701 0.7745 0.0
C449 C 0.42772 0.54257 0.74692 0.0
H450 H 0.93299 0.4824 0.83367 0.0
H451 H 0.97659 0.41359 0.86723 0.0
H452 H 0.94774 0.40739 0.91997 0.0
H453 H 0.90527 0.41659 -0.04544 0.0
H454 H 0.86138 0.48524 0.92099 0.0
H455 H 0.89492 0.49616 0.87003 0.0
C456 C 0.93653 0.46649 0.85274 0.0
C457 C 0.95664 0.44833 0.84663 0.0
C458 C 0.91932 0.46248 0.88271 0.0
C459 C 0.96148 0.4281 0.87151 0.0
C460 C 0.94465 0.42419 0.90151 0.0
C461 C 0.90311 0.43399 0.9361 0.0
C462 C 0.88046 0.4496 0.94126 0.0
C463 C 0.92266 0.44039 0.90704 0.0
C464 C 0.87848 0.47272 0.91745 0.0
C465 C 0.89764 0.47899 0.88834 0.0
H466 H 0.4971 0.92329 9e-05 0.0
H467 H 0.60859 0.96645 0.03589 0.0
H468 H 0.58409 0.93869 0.0887 0.0
H469 H 0.53114 0.89676 0.12275 0.0
H470 H 0.41944 0.85271 0.08706 0.0
H471 H 0.44387 0.88589 0.03598 0.0
C472 C 0.51596 0.92701 0.01965 0.0
C473 C 0.55454 0.94668 0.0141 0.0
C474 C 0.50168 0.91026 0.0497 0.0
C475 C 0.57878 0.95174 0.03965 0.0
C476 C 0.56479 0.93549 0.06974 0.0
C477 C 0.51213 0.89449 0.10382 0.0
C478 C 0.47359 0.87184 0.10842 0.0
C479 C 0.52632 0.91376 0.07469 0.0
C480 C 0.44926 0.86978 0.08398 0.0
C481 C 0.46319 0.88874 0.05479 0.0
H482 H 0.6626 0.55988 0.20213 0.0
H483 H 0.56846 0.45716 0.1699 0.0
H484 H 0.57299 0.42477 0.21777 0.0
H485 H 0.60718 0.425 0.26617 0.0
H486 H 0.7036 0.5277 0.29631 0.0
H487 H 0.69494 0.56076 0.25161 0.0
C488 C 0.64245 0.53065 0.20616 0.0
C489 C 0.61492 0.51091 0.18301 0.0
C490 C 0.64621 0.5121 0.23287 0.0
C491 C 0.58956 0.47284 0.1878 0.0
C492 C 0.59241 0.45433 0.2149 0.0
C493 C 0.62632 0.4546 0.26298 0.0
C494 C 0.65618 0.47372 0.28443 0.0
C495 C 0.62128 0.47351 0.23713 0.0
C496 C 0.68053 0.51217 0.28005 0.0
C497 C 0.67553 0.5312 0.25458 0.0
H498 H 0.50224 0.93001 0.38349 0.0
H499 H 0.42833 0.96962 0.35559 0.0
H500 H 0.4181 0.93882 0.30343 0.0
H501 H 0.42581 0.89606 0.26789 0.0
H502 H 0.49862 0.85522 0.29653 0.0
H503 H 0.51308 0.89056 0.34654 0.0
C504 C 0.48418 0.93217 0.36582 0.0
C505 C 0.46593 0.95185 0.37341 0.0
C506 C 0.47767 0.91361 0.33631 0.0
C507 C 0.44301 0.95493 0.3502 0.0
C508 C 0.43679 0.93695 0.32053 0.0
C509 C 0.44485 0.89489 0.28506 0.0
C510 C 0.46072 0.87267 0.27867 0.0
C511 C 0.4532 0.9154 0.31371 0.0
C512 C 0.48582 0.87193 0.30094 0.0
C513 C 0.49418 0.89218 0.32952 0.0
H514 H 0.53411 0.43591 0.52554 0.0
H515 H 0.63901 0.52212 0.5625 0.0
H516 H 0.67141 0.51515 0.51595 0.0
H517 H 0.66982 0.48153 0.46671 0.0
H518 H 0.56452 0.39258 0.43201 0.0
H519 H 0.53234 0.40329 0.47598 0.0
C520 C 0.56396 0.45376 0.52286 0.0
C521 C 0.58425 0.47994 0.54681 0.0
C522 C 0.58231 0.44852 0.4969 0.0
C523 C 0.62299 0.50222 0.54388 0.0
C524 C 0.64143 0.49796 0.51753 0.0
C525 C 0.63985 0.46444 0.46878 0.0
C526 C 0.6197 0.43617 0.44614 0.0
C527 C 0.62142 0.47062 0.49425 0.0
C528 C 0.58082 0.41438 0.44917 0.0
C529 C 0.56231 0.42058 0.47422 0.0
H530 H 0.13891 0.51446 0.6915 0.0
H531 H 0.1409 0.61329 0.7255 0.0
H532 H 0.17909 0.64863 0.67901 0.0
H533 H 0.21548 0.65204 0.63103 0.0
H534 H 0.21572 0.55321 0.59925 0.0
H535 H 0.17338 0.51729 0.64283 0.0
C536 C 0.14688 0.54348 0.68816 0.0
C537 C 0.13675 0.56125 0.71135 0.0
C538 C 0.16991 0.56375 0.66227 0.0
C539 C 0.14808 0.5991 0.70751 0.0
C540 C 0.17016 0.61929 0.6812 0.0
C541 C 0.20635 0.62267 0.63366 0.0
C542 C 0.21901 0.60547 0.61199 0.0
C543 C 0.18198 0.60208 0.65886 0.0
C544 C 0.20665 0.56729 0.61566 0.0
C545 C 0.18226 0.54661 0.64049 0.0
H546 H 0.60429 0.14535 0.88977 0.0
H547 H 0.66923 0.1028 0.84564 0.0
H548 H 0.67251 0.1353 0.79553 0.0
H549 H 0.66298 0.18117 0.76646 0.0
H550 H 0.59991 0.22571 0.81092 0.0
H551 H 0.59046 0.18758 0.85898 0.0
C552 C 0.61874 0.14285 0.86901 0.0
C553 C 0.63669 0.12192 0.87149 0.0
C554 C 0.62158 0.16261 0.84063 0.0
C555 C 0.65485 0.1184 0.8443 0.0
C556 C 0.65718 0.13741 0.81576 0.0
C557 C 0.64712 0.18255 0.78665 0.0
C558 C 0.63271 0.2067 0.78537 0.0
C559 C 0.64172 0.16053 0.81406 0.0
C560 C 0.61159 0.20758 0.81144 0.0
C561 C 0.60611 0.18574 0.83888 0.0
H562 H 0.48219 0.57528 0.05617 0.0
H563 H 0.59419 0.64826 0.02248 0.0
H564 H 0.57053 0.65467 -0.02959 0.0
H565 H 0.51797 0.64512 0.93692 0.0
H566 H 0.40582 0.5736 -0.02876 0.0
H567 H 0.42961 0.56154 0.02088 0.0
C568 C 0.50137 0.59216 0.03722 0.0
C569 C 0.53979 0.61148 0.04318 0.0
C570 C 0.48756 0.59664 0.00778 0.0
C571 C 0.56448 0.63285 0.01837 0.0
C572 C 0.55095 0.63693 -0.01125 0.0
C573 C 0.49873 0.62685 -0.04476 0.0
C574 C 0.46023 0.61077 0.95066 0.0
C575 C 0.51255 0.61994 -0.01637 0.0
C576 C 0.43561 0.58657 -0.02569 0.0
C577 C 0.44916 0.5796 0.00267 0.0
H578 H 0.93899 0.47132 0.21574 0.0
H579 H 0.98063 0.58621 0.18913 0.0
H580 H 0.94962 0.56682 0.13698 0.0
H581 H 0.90597 0.51713 0.10122 0.0
H582 H 0.86283 0.40207 0.12848 0.0
H583 H 0.89862 0.42166 0.17839 0.0
C584 C 0.94155 0.49209 0.19835 0.0
C585 C 0.96188 0.53008 0.20633 0.0
C586 C 0.92281 0.48072 0.16884 0.0
C587 C 0.96547 0.55678 0.18345 0.0
C588 C 0.94735 0.5457 0.15379 0.0
C589 C 0.90439 0.49632 0.11807 0.0
C590 C 0.88138 0.45822 0.11135 0.0
C591 C 0.92512 0.50773 0.14663 0.0
C592 C 0.88014 0.4316 0.13317 0.0
C593 C 0.90064 0.44275 0.16169 0.0
loop_
_geom_bond_atom_site_label_1
_geom_bond_atom_site_label_2
_geom_bond_distance
_geom_bond_site_symmetry_2
_ccdc_geom_bond_type
H0 C8 0.930 . S
H1 C11 0.930 . S
H2 C13 0.930 . S
H3 C14 0.970 . S
H4 C14 0.970 . S
H5 C16 0.930 . S
H6 C18 0.930 . S
H7 C20 0.930 . S
C8 H0 0.930 . S
C8 C9 1.382 . S
C8 C10 1.426 . S
C9 C8 1.382 . S
C9 C13 1.389 . S
C10 C8 1.426 . S
C10 C11 1.375 . S
C10 C14 1.532 1_655 S
C11 H1 0.930 . S
C11 C10 1.375 . S
C11 C12 1.416 . S
C12 C11 1.416 . S
C12 C13 1.371 . S
C13 H2 0.930 . S
C13 C9 1.389 . S
C13 C12 1.371 . S
C14 H3 0.970 . S
C14 H4 0.970 . S
C14 C10 1.532 1_455 S
C14 C15 1.499 . S
C15 C14 1.499 . S
C15 C16 1.370 . S
C15 C20 1.415 . S
C16 H5 0.930 . S
C16 C15 1.370 . S
C16 C17 1.407 . S
C17 C16 1.407 . S
C17 C18 1.365 . S
C18 H6 0.930 . S
C18 C17 1.365 . S
C18 C19 1.393 . S
C19 C18 1.393 . S
C19 C20 1.387 . S
C20 H7 0.930 . S
C20 C15 1.415 . S
C20 C19 1.387 . S
H21 C29 0.930 . S
H22 C32 0.930 . S
H23 C34 0.930 . S
H24 C35 0.970 . S
H25 C35 0.970 . S
H26 C37 0.930 . S
H27 C39 0.930 . S
H28 C41 0.930 . S
C29 H21 0.930 . S
C29 C30 1.382 . S
C29 C31 1.426 . S
C30 C29 1.382 . S
C30 C34 1.389 . S
C31 C29 1.426 . S
C31 C32 1.375 . S
C31 C35 1.532 1_565 S
C32 H22 0.930 . S
C32 C31 1.375 . S
C32 C33 1.416 . S
C33 C32 1.416 . S
C33 C34 1.371 . S
C34 H23 0.930 . S
C34 C30 1.389 . S
C34 C33 1.371 . S
C35 H24 0.970 . S
C35 H25 0.970 . S
C35 C31 1.532 1_545 S
C35 C36 1.499 . S
C36 C35 1.499 . S
C36 C37 1.370 . S
C36 C41 1.415 . S
C37 H26 0.930 . S
C37 C36 1.370 . S
C37 C38 1.407 . S
C38 C37 1.407 . S
C38 C39 1.365 . S
C39 H27 0.930 . S
C39 C38 1.365 . S
C39 C40 1.393 . S
C40 C39 1.393 . S
C40 C41 1.387 . S
C41 H28 0.930 . S
C41 C36 1.415 . S
C41 C40 1.387 . S
H42 C50 0.930 . S
H43 C53 0.930 . S
H44 C55 0.930 . S
H45 C56 0.970 . S
H46 C56 0.970 . S
H47 C58 0.930 . S
H48 C60 0.930 . S
H49 C62 0.930 . S
C50 H42 0.930 . S
C50 C51 1.382 . S
C50 C52 1.426 . S
C51 C50 1.382 . S
C51 C55 1.389 . S
C52 C50 1.426 . S
C52 C53 1.375 . S
C52 C56 1.532 . S
C53 H43 0.930 . S
C53 C52 1.375 . S
C53 C54 1.416 . S
C54 C53 1.416 . S
C54 C55 1.371 . S
C55 H44 0.930 . S
C55 C51 1.389 . S
C55 C54 1.371 . S
C56 H45 0.970 . S
C56 H46 0.970 . S
C56 C52 1.532 . S
C56 C57 1.499 . S
C57 C56 1.499 . S
C57 C58 1.370 . S
C57 C62 1.415 . S
C58 H47 0.930 . S
C58 C57 1.370 . S
C58 C59 1.407 . S
C59 C58 1.407 . S
C59 C60 1.365 . S
C60 H48 0.930 . S
C60 C59 1.365 . S
C60 C61 1.393 . S
C61 C60 1.393 . S
C61 C62 1.387 . S
C62 H49 0.930 . S
C62 C57 1.415 . S
C62 C61 1.387 . S
H63 C71 0.930 . S
H64 C74 0.930 . S
H65 C76 0.930 . S
H66 C77 0.970 . S
H67 C77 0.970 . S
H68 C79 0.930 . S
H69 C81 0.930 . S
H70 C83 0.930 . S
C71 H63 0.930 . S
C71 C72 1.382 . S
C71 C73 1.426 . S
C72 C71 1.382 . S
C72 C76 1.389 . S
C73 C71 1.426 . S
C73 C74 1.375 . S
C73 C77 1.532 1_655 S
C74 H64 0.930 . S
C74 C73 1.375 . S
C74 C75 1.416 . S
C75 C74 1.416 . S
C75 C76 1.371 . S
C76 H65 0.930 . S
C76 C72 1.389 . S
C76 C75 1.371 . S
C77 H66 0.970 . S
C77 H67 0.970 . S
C77 C73 1.532 1_455 S
C77 C78 1.499 . S
C78 C77 1.499 . S
C78 C79 1.370 . S
C78 C83 1.415 . S
C79 H68 0.930 . S
C79 C78 1.370 . S
C79 C80 1.407 . S
C80 C79 1.407 . S
C80 C81 1.365 . S
C81 H69 0.930 . S
C81 C80 1.365 . S
C81 C82 1.393 . S
C82 C81 1.393 . S
C82 C83 1.387 . S
C83 H70 0.930 . S
C83 C78 1.415 . S
C83 C82 1.387 . S
H84 C92 0.930 . S
H85 C95 0.930 . S
H86 C97 0.930 . S
H87 C98 0.970 1_554 S
H88 C98 0.970 . S
H89 C100 0.930 . S
H90 C102 0.930 . S
H91 C104 0.930 . S
C92 H84 0.930 . S
C92 C93 1.382 . S
C92 C94 1.426 1_554 S
C93 C92 1.382 . S
C93 C97 1.389 1_554 S
C94 C92 1.426 1_556 S
C94 C95 1.375 . S
C94 C98 1.532 . S
C95 H85 0.930 . S
C95 C94 1.375 . S
C95 C96 1.416 . S
C96 C95 1.416 . S
C96 C97 1.371 . S
C97 H86 0.930 . S
C97 C93 1.389 1_556 S
C97 C96 1.371 . S
C98 H87 0.970 1_556 S
C98 H88 0.970 . S
C98 C94 1.532 . S
C98 C99 1.499 1_546 S
C99 C98 1.499 1_564 S
C99 C100 1.370 . S
C99 C104 1.415 1_554 S
C100 H89 0.930 . S
C100 C99 1.370 . S
C100 C101 1.407 . S
C101 C100 1.407 . S
C101 C102 1.365 . S
C102 H90 0.930 . S
C102 C101 1.365 . S
C102 C103 1.393 1_554 S
C103 C102 1.393 1_556 S
C103 C104 1.387 . S
C104 H91 0.930 . S
C104 C99 1.415 1_556 S
C104 C103 1.387 . S
H105 C113 0.930 . S
H106 C116 0.930 . S
H107 C118 0.930 . S
H108 C119 0.970 . S
H109 C119 0.970 . S
H110 C121 0.930 . S
H111 C123 0.930 . S
H112 C125 0.930 . S
C113 H105 0.930 . S
C113 C114 1.382 . S
C113 C115 1.426 . S
C114 C113 1.382 . S
C114 C118 1.389 . S
C115 C113 1.426 . S
C115 C116 1.375 . S
C115 C119 1.532 . S
C116 H106 0.930 . S
C116 C115 1.375 . S
C116 C117 1.416 . S
C117 C116 1.416 . S
C117 C118 1.371 . S
C118 H107 0.930 . S
C118 C114 1.389 . S
C118 C117 1.371 . S
C119 H108 0.970 . S
C119 H109 0.970 . S
C119 C115 1.532 . S
C119 C120 1.499 . S
C120 C119 1.499 . S
C120 C121 1.370 . S
C120 C125 1.415 . S
C121 H110 0.930 . S
C121 C120 1.370 . S
C121 C122 1.407 . S
C122 C121 1.407 . S
C122 C123 1.365 . S
C123 H111 0.930 . S
C123 C122 1.365 . S
C123 C124 1.393 . S
C124 C123 1.393 . S
C124 C125 1.387 . S
C125 H112 0.930 . S
C125 C120 1.415 . S
C125 C124 1.387 . S
O126 Cd127 2.223 . S
O126 C134 1.315 . S
Cd127 O126 2.223 . S
Cd127 O130 2.297 . S
Cd127 O131 2.439 . S
Cd127 O137 2.240 . S
Cd128 O129 2.240 . S
Cd128 O136 2.223 . S
Cd128 O138 2.297 . S
Cd128 O139 2.439 . S
O129 Cd128 2.240 . S
O129 C134 1.279 . S
O130 Cd127 2.297 . S
O130 C132 1.247 . S
O131 Cd127 2.439 . S
O131 C132 1.208 . S
C132 O130 1.247 . S
C132 O131 1.208 . S
C133 O138 1.247 . S
C133 O139 1.208 . S
C134 O126 1.315 . S
C134 O129 1.279 . S
C135 O136 1.315 . S
C135 O137 1.279 . S
O136 Cd128 2.223 . S
O136 C135 1.315 . S
O137 Cd127 2.240 . S
O137 C135 1.279 . S
O138 Cd128 2.297 . S
O138 C133 1.247 . S
O139 Cd128 2.439 . S
O139 C133 1.208 . S
O140 Cd141 2.223 . S
O140 C148 1.315 . S
Cd141 O140 2.223 . S
Cd141 O144 2.297 . S
Cd141 O145 2.439 . S
Cd141 O151 2.240 . S
Cd142 O143 2.240 . S
Cd142 O150 2.223 . S
Cd142 O152 2.297 . S
Cd142 O153 2.439 . S
O143 Cd142 2.240 . S
O143 C148 1.279 . S
O144 Cd141 2.297 . S
O144 C146 1.247 . S
O145 Cd141 2.439 . S
O145 C146 1.208 . S
C146 O144 1.247 . S
C146 O145 1.208 . S
C147 O152 1.247 . S
C147 O153 1.208 . S
C148 O140 1.315 . S
C148 O143 1.279 . S
C149 O150 1.315 . S
C149 O151 1.279 . S
O150 Cd142 2.223 . S
O150 C149 1.315 . S
O151 Cd141 2.240 . S
O151 C149 1.279 . S
O152 Cd142 2.297 . S
O152 C147 1.247 . S
O153 Cd142 2.439 . S
O153 C147 1.208 . S
O154 Cd155 2.223 . S
O154 C162 1.315 . S
Cd155 O154 2.223 . S
Cd155 O158 2.297 . S
Cd155 O159 2.439 . S
Cd155 O165 2.240 . S
Cd156 O157 2.240 . S
Cd156 O164 2.223 . S
Cd156 O166 2.297 . S
Cd156 O167 2.439 . S
O157 Cd156 2.240 . S
O157 C162 1.279 . S
O158 Cd155 2.297 . S
O158 C160 1.247 . S
O159 Cd155 2.439 . S
O159 C160 1.208 . S
C160 O158 1.247 . S
C160 O159 1.208 . S
C161 O166 1.247 . S
C161 O167 1.208 . S
C162 O154 1.315 . S
C162 O157 1.279 . S
C163 O164 1.315 . S
C163 O165 1.279 . S
O164 Cd156 2.223 . S
O164 C163 1.315 . S
O165 Cd155 2.240 . S
O165 C163 1.279 . S
O166 Cd156 2.297 . S
O166 C161 1.247 . S
O167 Cd156 2.439 . S
O167 C161 1.208 . S
O168 Cd169 2.223 . S
O168 C176 1.315 . S
Cd169 O168 2.223 . S
Cd169 O172 2.297 . S
Cd169 O173 2.439 . S
Cd169 O179 2.240 . S
Cd170 O171 2.240 . S
Cd170 O178 2.223 . S
Cd170 O180 2.297 . S
Cd170 O181 2.439 . S
O171 Cd170 2.240 . S
O171 C176 1.279 . S
O172 Cd169 2.297 . S
O172 C174 1.247 . S
O173 Cd169 2.439 . S
O173 C174 1.208 . S
C174 O172 1.247 . S
C174 O173 1.208 . S
C175 O180 1.247 . S
C175 O181 1.208 . S
C176 O168 1.315 . S
C176 O171 1.279 . S
C177 O178 1.315 . S
C177 O179 1.279 . S
O178 Cd170 2.223 . S
O178 C177 1.315 . S
O179 Cd169 2.240 . S
O179 C177 1.279 . S
O180 Cd170 2.297 . S
O180 C175 1.247 . S
O181 Cd170 2.439 . S
O181 C175 1.208 . S
O182 Cd183 2.223 . S
O182 C190 1.315 . S
Cd183 O182 2.223 . S
Cd183 O186 2.297 . S
Cd183 O187 2.439 . S
Cd183 O193 2.240 . S
Cd184 O185 2.240 . S
Cd184 O192 2.223 . S
Cd184 O194 2.297 . S
Cd184 O195 2.439 . S
O185 Cd184 2.240 . S
O185 C190 1.279 . S
O186 Cd183 2.297 . S
O186 C188 1.247 . S
O187 Cd183 2.439 . S
O187 C188 1.208 . S
C188 O186 1.247 . S
C188 O187 1.208 . S
C189 O194 1.247 . S
C189 O195 1.208 . S
C190 O182 1.315 . S
C190 O185 1.279 . S
C191 O192 1.315 . S
C191 O193 1.279 . S
O192 Cd184 2.223 . S
O192 C191 1.315 . S
O193 Cd183 2.240 . S
O193 C191 1.279 . S
O194 Cd184 2.297 . S
O194 C189 1.247 . S
O195 Cd184 2.439 . S
O195 C189 1.208 . S
O196 Cd197 2.223 . S
O196 C204 1.315 . S
Cd197 O196 2.223 . S
Cd197 O200 2.297 . S
Cd197 O201 2.439 . S
Cd197 O207 2.240 . S
Cd198 O199 2.240 . S
Cd198 O206 2.223 . S
Cd198 O208 2.297 . S
Cd198 O209 2.439 . S
O199 Cd198 2.240 . S
O199 C204 1.279 . S
O200 Cd197 2.297 . S
O200 C202 1.247 . S
O201 Cd197 2.439 . S
O201 C202 1.208 . S
C202 O200 1.247 . S
C202 O201 1.208 . S
C203 O208 1.247 . S
C203 O209 1.208 . S
C204 O196 1.315 . S
C204 O199 1.279 . S
C205 O206 1.315 . S
C205 O207 1.279 . S
O206 Cd198 2.223 . S
O206 C205 1.315 . S
O207 Cd197 2.240 . S
O207 C205 1.279 . S
O208 Cd198 2.297 . S
O208 C203 1.247 . S
O209 Cd198 2.439 . S
O209 C203 1.208 . S
H210 C216 0.930 . S
H211 C219 0.930 . S
H212 C220 0.930 . S
H213 C221 0.930 . S
H214 C224 0.930 . S
H215 C225 0.930 . S
C216 H210 0.930 . S
C216 C217 1.355 . S
C216 C218 1.415 . S
C217 C216 1.355 . S
C217 C219 1.419 . S
C218 C216 1.415 . S
C218 C223 1.425 . S
C218 C225 1.409 . S
C219 H211 0.930 . S
C219 C217 1.419 . S
C219 C220 1.362 . S
C220 H212 0.930 . S
C220 C219 1.362 . S
C220 C223 1.409 . S
C221 H213 0.930 . S
C221 C222 1.355 . S
C221 C223 1.415 . S
C222 C221 1.355 . S
C222 C224 1.419 . S
C223 C218 1.425 . S
C223 C220 1.409 . S
C223 C221 1.415 . S
C224 H214 0.930 . S
C224 C222 1.419 . S
C224 C225 1.362 . S
C225 H215 0.930 . S
C225 C218 1.409 . S
C225 C224 1.362 . S
H226 C232 0.930 . S
H227 C235 0.930 . S
H228 C236 0.930 . S
H229 C237 0.930 . S
H230 C240 0.930 . S
H231 C241 0.930 . S
C232 H226 0.930 . S
C232 C233 1.355 . S
C232 C234 1.415 . S
C233 C232 1.355 . S
C233 C235 1.419 . S
C234 C232 1.415 . S
C234 C239 1.425 . S
C234 C241 1.409 . S
C235 H227 0.930 . S
C235 C233 1.419 . S
C235 C236 1.362 . S
C236 H228 0.930 . S
C236 C235 1.362 . S
C236 C239 1.409 . S
C237 H229 0.930 . S
C237 C238 1.355 . S
C237 C239 1.415 . S
C238 C237 1.355 . S
C238 C240 1.419 . S
C239 C234 1.425 . S
C239 C236 1.409 . S
C239 C237 1.415 . S
C240 H230 0.930 . S
C240 C238 1.419 . S
C240 C241 1.362 . S
C241 H231 0.930 . S
C241 C234 1.409 . S
C241 C240 1.362 . S
H242 C248 0.930 . S
H243 C251 0.930 . S
H244 C252 0.930 . S
H245 C253 0.930 . S
H246 C256 0.930 . S
H247 C257 0.930 . S
C248 H242 0.930 . S
C248 C249 1.355 . S
C248 C250 1.415 . S
C249 C248 1.355 . S
C249 C251 1.419 . S
C250 C248 1.415 . S
C250 C255 1.425 . S
C250 C257 1.409 . S
C251 H243 0.930 . S
C251 C249 1.419 . S
C251 C252 1.362 . S
C252 H244 0.930 . S
C252 C251 1.362 . S
C252 C255 1.409 . S
C253 H245 0.930 . S
C253 C254 1.355 . S
C253 C255 1.415 . S
C254 C253 1.355 . S
C254 C256 1.419 . S
C255 C250 1.425 . S
C255 C252 1.409 . S
C255 C253 1.415 . S
C256 H246 0.930 . S
C256 C254 1.419 . S
C256 C257 1.362 . S
C257 H247 0.930 . S
C257 C250 1.409 . S
C257 C256 1.362 . S
H258 C264 0.930 . S
H259 C267 0.930 . S
H260 C268 0.930 . S
H261 C269 0.930 . S
H262 C272 0.930 . S
H263 C273 0.930 . S
C264 H258 0.930 . S
C264 C265 1.355 . S
C264 C266 1.415 . S
C265 C264 1.355 . S
C265 C267 1.419 . S
C266 C264 1.415 . S
C266 C271 1.425 . S
C266 C273 1.409 . S
C267 H259 0.930 . S
C267 C265 1.419 . S
C267 C268 1.362 . S
C268 H260 0.930 . S
C268 C267 1.362 . S
C268 C271 1.409 . S
C269 H261 0.930 . S
C269 C270 1.355 . S
C269 C271 1.415 . S
C270 C269 1.355 . S
C270 C272 1.419 . S
C271 C266 1.425 . S
C271 C268 1.409 . S
C271 C269 1.415 . S
C272 H262 0.930 . S
C272 C270 1.419 . S
C272 C273 1.362 . S
C273 H263 0.930 . S
C273 C266 1.409 . S
C273 C272 1.362 . S
H274 C280 0.930 . S
H275 C283 0.930 . S
H276 C284 0.930 . S
H277 C285 0.930 . S
H278 C288 0.930 . S
H279 C289 0.930 . S
C280 H274 0.930 . S
C280 C281 1.355 . S
C280 C282 1.415 . S
C281 C280 1.355 . S
C281 C283 1.419 . S
C282 C280 1.415 . S
C282 C287 1.425 . S
C282 C289 1.409 . S
C283 H275 0.930 . S
C283 C281 1.419 . S
C283 C284 1.362 . S
C284 H276 0.930 . S
C284 C283 1.362 . S
C284 C287 1.409 . S
C285 H277 0.930 . S
C285 C286 1.355 . S
C285 C287 1.415 . S
C286 C285 1.355 . S
C286 C288 1.419 . S
C287 C282 1.425 . S
C287 C284 1.409 . S
C287 C285 1.415 . S
C288 H278 0.930 . S
C288 C286 1.419 . S
C288 C289 1.362 . S
C289 H279 0.930 . S
C289 C282 1.409 . S
C289 C288 1.362 . S
H290 C296 0.930 . S
H291 C299 0.930 . S
H292 C300 0.930 . S
H293 C301 0.930 . S
H294 C304 0.930 . S
H295 C305 0.930 . S
C296 H290 0.930 . S
C296 C297 1.355 . S
C296 C298 1.415 . S
C297 C296 1.355 . S
C297 C299 1.419 . S
C298 C296 1.415 . S
C298 C303 1.425 . S
C298 C305 1.409 . S
C299 H291 0.930 . S
C299 C297 1.419 . S
C299 C300 1.362 . S
C300 H292 0.930 . S
C300 C299 1.362 . S
C300 C303 1.409 . S
C301 H293 0.930 . S
C301 C302 1.355 . S
C301 C303 1.415 . S
C302 C301 1.355 . S
C302 C304 1.419 . S
C303 C298 1.425 . S
C303 C300 1.409 . S
C303 C301 1.415 . S
C304 H294 0.930 . S
C304 C302 1.419 . S
C304 C305 1.362 . S
C305 H295 0.930 . S
C305 C298 1.409 . S
C305 C304 1.362 . S
H306 C312 0.930 . S
H307 C315 0.930 . S
H308 C316 0.930 . S
H309 C317 0.930 . S
H310 C320 0.930 . S
H311 C321 0.930 . S
C312 H306 0.930 . S
C312 C313 1.355 . S
C312 C314 1.415 . S
C313 C312 1.355 . S
C313 C315 1.419 . S
C314 C312 1.415 . S
C314 C319 1.425 . S
C314 C321 1.409 . S
C315 H307 0.930 . S
C315 C313 1.419 . S
C315 C316 1.362 . S
C316 H308 0.930 . S
C316 C315 1.362 . S
C316 C319 1.409 . S
C317 H309 0.930 . S
C317 C318 1.355 . S
C317 C319 1.415 . S
C318 C317 1.355 . S
C318 C320 1.419 . S
C319 C314 1.425 . S
C319 C316 1.409 . S
C319 C317 1.415 . S
C320 H310 0.930 . S
C320 C318 1.419 . S
C320 C321 1.362 . S
C321 H311 0.930 . S
C321 C314 1.409 . S
C321 C320 1.362 . S
H322 C328 0.930 . S
H323 C331 0.930 . S
H324 C332 0.930 . S
H325 C333 0.930 . S
H326 C336 0.930 . S
H327 C337 0.930 . S
C328 H322 0.930 . S
C328 C329 1.355 . S
C328 C330 1.415 . S
C329 C328 1.355 . S
C329 C331 1.419 . S
C330 C328 1.415 . S
C330 C335 1.425 . S
C330 C337 1.409 . S
C331 H323 0.930 . S
C331 C329 1.419 . S
C331 C332 1.362 . S
C332 H324 0.930 . S
C332 C331 1.362 . S
C332 C335 1.409 . S
C333 H325 0.930 . S
C333 C334 1.355 . S
C333 C335 1.415 . S
C334 C333 1.355 . S
C334 C336 1.419 . S
C335 C330 1.425 . S
C335 C332 1.409 . S
C335 C333 1.415 . S
C336 H326 0.930 . S
C336 C334 1.419 . S
C336 C337 1.362 . S
C337 H327 0.930 . S
C337 C330 1.409 . S
C337 C336 1.362 . S
H338 C344 0.930 . S
H339 C347 0.930 . S
H340 C348 0.930 . S
H341 C349 0.930 . S
H342 C352 0.930 . S
H343 C353 0.930 . S
C344 H338 0.930 . S
C344 C345 1.355 . S
C344 C346 1.415 . S
C345 C344 1.355 . S
C345 C347 1.419 . S
C346 C344 1.415 . S
C346 C351 1.425 . S
C346 C353 1.409 . S
C347 H339 0.930 . S
C347 C345 1.419 . S
C347 C348 1.362 . S
C348 H340 0.930 . S
C348 C347 1.362 . S
C348 C351 1.409 . S
C349 H341 0.930 . S
C349 C350 1.355 . S
C349 C351 1.415 . S
C350 C349 1.355 . S
C350 C352 1.419 . S
C351 C346 1.425 . S
C351 C348 1.409 . S
C351 C349 1.415 . S
C352 H342 0.930 . S
C352 C350 1.419 . S
C352 C353 1.362 . S
C353 H343 0.930 . S
C353 C346 1.409 . S
C353 C352 1.362 . S
H354 C360 0.930 . S
H355 C363 0.930 . S
H356 C364 0.930 . S
H357 C365 0.930 . S
H358 C368 0.930 . S
H359 C369 0.930 . S
C360 H354 0.930 . S
C360 C361 1.355 . S
C360 C362 1.415 . S
C361 C360 1.355 . S
C361 C363 1.419 . S
C362 C360 1.415 . S
C362 C367 1.425 . S
C362 C369 1.409 . S
C363 H355 0.930 . S
C363 C361 1.419 . S
C363 C364 1.362 . S
C364 H356 0.930 . S
C364 C363 1.362 . S
C364 C367 1.409 . S
C365 H357 0.930 . S
C365 C366 1.355 . S
C365 C367 1.415 . S
C366 C365 1.355 . S
C366 C368 1.419 . S
C367 C362 1.425 . S
C367 C364 1.409 . S
C367 C365 1.415 . S
C368 H358 0.930 . S
C368 C366 1.419 . S
C368 C369 1.362 . S
C369 H359 0.930 . S
C369 C362 1.409 . S
C369 C368 1.362 . S
H370 C376 0.930 . S
H371 C379 0.930 . S
H372 C380 0.930 . S
H373 C381 0.930 . S
H374 C384 0.930 . S
H375 C385 0.930 . S
C376 H370 0.930 . S
C376 C377 1.355 . S
C376 C378 1.415 . S
C377 C376 1.355 . S
C377 C379 1.419 . S
C378 C376 1.415 . S
C378 C383 1.425 . S
C378 C385 1.409 . S
C379 H371 0.930 . S
C379 C377 1.419 . S
C379 C380 1.362 . S
C380 H372 0.930 . S
C380 C379 1.362 . S
C380 C383 1.409 . S
C381 H373 0.930 . S
C381 C382 1.355 . S
C381 C383 1.415 . S
C382 C381 1.355 . S
C382 C384 1.419 . S
C383 C378 1.425 . S
C383 C380 1.409 . S
C383 C381 1.415 . S
C384 H374 0.930 . S
C384 C382 1.419 . S
C384 C385 1.362 . S
C385 H375 0.930 . S
C385 C378 1.409 . S
C385 C384 1.362 . S
H386 C392 0.930 . S
H387 C395 0.930 . S
H388 C396 0.930 . S
H389 C397 0.930 . S
H390 C400 0.930 . S
H391 C401 0.930 . S
C392 H386 0.930 . S
C392 C393 1.355 . S
C392 C394 1.415 . S
C393 C392 1.355 . S
C393 C395 1.419 . S
C394 C392 1.415 . S
C394 C399 1.425 . S
C394 C401 1.409 . S
C395 H387 0.930 . S
C395 C393 1.419 . S
C395 C396 1.362 . S
C396 H388 0.930 . S
C396 C395 1.362 . S
C396 C399 1.409 . S
C397 H389 0.930 . S
C397 C398 1.355 . S
C397 C399 1.415 . S
C398 C397 1.355 . S
C398 C400 1.419 . S
C399 C394 1.425 . S
C399 C396 1.409 . S
C399 C397 1.415 . S
C400 H390 0.930 . S
C400 C398 1.419 . S
C400 C401 1.362 . S
C401 H391 0.930 . S
C401 C394 1.409 . S
C401 C400 1.362 . S
H402 C408 0.930 . S
H403 C411 0.930 . S
H404 C412 0.930 . S
H405 C413 0.930 . S
H406 C416 0.930 . S
H407 C417 0.930 . S
C408 H402 0.930 . S
C408 C409 1.355 . S
C408 C410 1.415 . S
C409 C408 1.355 . S
C409 C411 1.419 . S
C410 C408 1.415 . S
C410 C415 1.425 . S
C410 C417 1.409 . S
C411 H403 0.930 . S
C411 C409 1.419 . S
C411 C412 1.362 . S
C412 H404 0.930 . S
C412 C411 1.362 . S
C412 C415 1.409 . S
C413 H405 0.930 . S
C413 C414 1.355 . S
C413 C415 1.415 . S
C414 C413 1.355 . S
C414 C416 1.419 . S
C415 C410 1.425 . S
C415 C412 1.409 . S
C415 C413 1.415 . S
C416 H406 0.930 . S
C416 C414 1.419 . S
C416 C417 1.362 . S
C417 H407 0.930 . S
C417 C410 1.409 . S
C417 C416 1.362 . S
H418 C424 0.930 . S
H419 C427 0.930 . S
H420 C428 0.930 . S
H421 C429 0.930 . S
H422 C432 0.930 . S
H423 C433 0.930 . S
C424 H418 0.930 . S
C424 C425 1.355 . S
C424 C426 1.415 . S
C425 C424 1.355 . S
C425 C427 1.419 . S
C426 C424 1.415 . S
C426 C431 1.425 . S
C426 C433 1.409 . S
C427 H419 0.930 . S
C427 C425 1.419 . S
C427 C428 1.362 . S
C428 H420 0.930 . S
C428 C427 1.362 . S
C428 C431 1.409 . S
C429 H421 0.930 . S
C429 C430 1.355 . S
C429 C431 1.415 . S
C430 C429 1.355 . S
C430 C432 1.419 . S
C431 C426 1.425 . S
C431 C428 1.409 . S
C431 C429 1.415 . S
C432 H422 0.930 . S
C432 C430 1.419 . S
C432 C433 1.362 . S
C433 H423 0.930 . S
C433 C426 1.409 . S
C433 C432 1.362 . S
H434 C440 0.930 . S
H435 C443 0.930 . S
H436 C444 0.930 . S
H437 C445 0.930 . S
H438 C448 0.930 . S
H439 C449 0.930 . S
C440 H434 0.930 . S
C440 C441 1.355 . S
C440 C442 1.415 . S
C441 C440 1.355 . S
C441 C443 1.419 . S
C442 C440 1.415 . S
C442 C447 1.425 . S
C442 C449 1.409 . S
C443 H435 0.930 . S
C443 C441 1.419 . S
C443 C444 1.362 . S
C444 H436 0.930 . S
C444 C443 1.362 . S
C444 C447 1.409 . S
C445 H437 0.930 . S
C445 C446 1.355 . S
C445 C447 1.415 . S
C446 C445 1.355 . S
C446 C448 1.419 . S
C447 C442 1.425 . S
C447 C444 1.409 . S
C447 C445 1.415 . S
C448 H438 0.930 . S
C448 C446 1.419 . S
C448 C449 1.362 . S
C449 H439 0.930 . S
C449 C442 1.409 . S
C449 C448 1.362 . S
H450 C456 0.930 . S
H451 C459 0.930 . S
H452 C460 0.930 . S
H453 C461 0.930 . S
H454 C464 0.930 . S
H455 C465 0.930 1_554 S
C456 H450 0.930 . S
C456 C457 1.355 . S
C456 C458 1.415 . S
C457 C456 1.355 . S
C457 C459 1.419 . S
C458 C456 1.415 . S
C458 C463 1.425 . S
C458 C465 1.409 . S
C459 H451 0.930 . S
C459 C457 1.419 . S
C459 C460 1.362 . S
C460 H452 0.930 . S
C460 C459 1.362 . S
C460 C463 1.409 . S
C461 H453 0.930 . S
C461 C462 1.355 1_556 S
C461 C463 1.415 . S
C462 C461 1.355 1_554 S
C462 C464 1.419 . S
C463 C458 1.425 . S
C463 C460 1.409 . S
C463 C461 1.415 . S
C464 H454 0.930 . S
C464 C462 1.419 . S
C464 C465 1.362 1_554 S
C465 H455 0.930 1_556 S
C465 C458 1.409 . S
C465 C464 1.362 1_556 S
H466 C472 0.930 . S
H467 C475 0.930 . S
H468 C476 0.930 . S
H469 C477 0.930 . S
H470 C480 0.930 . S
H471 C481 0.930 . S
C472 H466 0.930 . S
C472 C473 1.355 . S
C472 C474 1.415 . S
C473 C472 1.355 . S
C473 C475 1.419 . S
C474 C472 1.415 . S
C474 C479 1.425 . S
C474 C481 1.409 . S
C475 H467 0.930 . S
C475 C473 1.419 . S
C475 C476 1.362 . S
C476 H468 0.930 . S
C476 C475 1.362 . S
C476 C479 1.409 . S
C477 H469 0.930 . S
C477 C478 1.355 . S
C477 C479 1.415 . S
C478 C477 1.355 . S
C478 C480 1.419 . S
C479 C474 1.425 . S
C479 C476 1.409 . S
C479 C477 1.415 . S
C480 H470 0.930 . S
C480 C478 1.419 . S
C480 C481 1.362 . S
C481 H471 0.930 . S
C481 C474 1.409 . S
C481 C480 1.362 . S
H482 C488 0.930 . S
H483 C491 0.930 . S
H484 C492 0.930 . S
H485 C493 0.930 . S
H486 C496 0.930 . S
H487 C497 0.930 . S
C488 H482 0.930 . S
C488 C489 1.355 . S
C488 C490 1.415 . S
C489 C488 1.355 . S
C489 C491 1.419 . S
C490 C488 1.415 . S
C490 C495 1.425 . S
C490 C497 1.409 . S
C491 H483 0.930 . S
C491 C489 1.419 . S
C491 C492 1.362 . S
C492 H484 0.930 . S
C492 C491 1.362 . S
C492 C495 1.409 . S
C493 H485 0.930 . S
C493 C494 1.355 . S
C493 C495 1.415 . S
C494 C493 1.355 . S
C494 C496 1.419 . S
C495 C490 1.425 . S
C495 C492 1.409 . S
C495 C493 1.415 . S
C496 H486 0.930 . S
C496 C494 1.419 . S
C496 C497 1.362 . S
C497 H487 0.930 . S
C497 C490 1.409 . S
C497 C496 1.362 . S
H498 C504 0.930 . S
H499 C507 0.930 . S
H500 C508 0.930 . S
H501 C509 0.930 . S
H502 C512 0.930 . S
H503 C513 0.930 . S
C504 H498 0.930 . S
C504 C505 1.355 . S
C504 C506 1.415 . S
C505 C504 1.355 . S
C505 C507 1.419 . S
C506 C504 1.415 . S
C506 C511 1.425 . S
C506 C513 1.409 . S
C507 H499 0.930 . S
C507 C505 1.419 . S
C507 C508 1.362 . S
C508 H500 0.930 . S
C508 C507 1.362 . S
C508 C511 1.409 . S
C509 H501 0.930 . S
C509 C510 1.355 . S
C509 C511 1.415 . S
C510 C509 1.355 . S
C510 C512 1.419 . S
C511 C506 1.425 . S
C511 C508 1.409 . S
C511 C509 1.415 . S
C512 H502 0.930 . S
C512 C510 1.419 . S
C512 C513 1.362 . S
C513 H503 0.930 . S
C513 C506 1.409 . S
C513 C512 1.362 . S
H514 C520 0.930 . S
H515 C523 0.930 . S
H516 C524 0.930 . S
H517 C525 0.930 . S
H518 C528 0.930 . S
H519 C529 0.930 . S
C520 H514 0.930 . S
C520 C521 1.355 . S
C520 C522 1.415 . S
C521 C520 1.355 . S
C521 C523 1.419 . S
C522 C520 1.415 . S
C522 C527 1.425 . S
C522 C529 1.409 . S
C523 H515 0.930 . S
C523 C521 1.419 . S
C523 C524 1.362 . S
C524 H516 0.930 . S
C524 C523 1.362 . S
C524 C527 1.409 . S
C525 H517 0.930 . S
C525 C526 1.355 . S
C525 C527 1.415 . S
C526 C525 1.355 . S
C526 C528 1.419 . S
C527 C522 1.425 . S
C527 C524 1.409 . S
C527 C525 1.415 . S
C528 H518 0.930 . S
C528 C526 1.419 . S
C528 C529 1.362 . S
C529 H519 0.930 . S
C529 C522 1.409 . S
C529 C528 1.362 . S
H530 C536 0.930 . S
H531 C539 0.930 . S
H532 C540 0.930 . S
H533 C541 0.930 . S
H534 C544 0.930 . S
H535 C545 0.930 . S
C536 H530 0.930 . S
C536 C537 1.355 . S
C536 C538 1.415 . S
C537 C536 1.355 . S
C537 C539 1.419 . S
C538 C536 1.415 . S
C538 C543 1.425 . S
C538 C545 1.409 . S
C539 H531 0.930 . S
C539 C537 1.419 . S
C539 C540 1.362 . S
C540 H532 0.930 . S
C540 C539 1.362 . S
C540 C543 1.409 . S
C541 H533 0.930 . S
C541 C542 1.355 . S
C541 C543 1.415 . S
C542 C541 1.355 . S
C542 C544 1.419 . S
C543 C538 1.425 . S
C543 C540 1.409 . S
C543 C541 1.415 . S
C544 H534 0.930 . S
C544 C542 1.419 . S
C544 C545 1.362 . S
C545 H535 0.930 . S
C545 C538 1.409 . S
C545 C544 1.362 . S
H546 C552 0.930 . S
H547 C555 0.930 . S
H548 C556 0.930 . S
H549 C557 0.930 . S
H550 C560 0.930 . S
H551 C561 0.930 . S
C552 H546 0.930 . S
C552 C553 1.355 . S
C552 C554 1.415 . S
C553 C552 1.355 . S
C553 C555 1.419 . S
C554 C552 1.415 . S
C554 C559 1.425 . S
C554 C561 1.409 . S
C555 H547 0.930 . S
C555 C553 1.419 . S
C555 C556 1.362 . S
C556 H548 0.930 . S
C556 C555 1.362 . S
C556 C559 1.409 . S
C557 H549 0.930 . S
C557 C558 1.355 . S
C557 C559 1.415 . S
C558 C557 1.355 . S
C558 C560 1.419 . S
C559 C554 1.425 . S
C559 C556 1.409 . S
C559 C557 1.415 . S
C560 H550 0.930 . S
C560 C558 1.419 . S
C560 C561 1.362 . S
C561 H551 0.930 . S
C561 C554 1.409 . S
C561 C560 1.362 . S
H562 C568 0.930 . S
H563 C571 0.930 . S
H564 C572 0.930 1_556 S
H565 C573 0.930 . S
H566 C576 0.930 . S
H567 C577 0.930 . S
C568 H562 0.930 . S
C568 C569 1.355 . S
C568 C570 1.415 . S
C569 C568 1.355 . S
C569 C571 1.419 . S
C570 C568 1.415 . S
C570 C575 1.425 . S
C570 C577 1.409 . S
C571 H563 0.930 . S
C571 C569 1.419 . S
C571 C572 1.362 . S
C572 H564 0.930 1_554 S
C572 C571 1.362 . S
C572 C575 1.409 . S
C573 H565 0.930 . S
C573 C574 1.355 . S
C573 C575 1.415 1_556 S
C574 C573 1.355 . S
C574 C576 1.419 1_556 S
C575 C570 1.425 . S
C575 C572 1.409 . S
C575 C573 1.415 1_554 S
C576 H566 0.930 . S
C576 C574 1.419 1_554 S
C576 C577 1.362 . S
C577 H567 0.930 . S
C577 C570 1.409 . S
C577 C576 1.362 . S
H578 C584 0.930 . S
H579 C587 0.930 . S
H580 C588 0.930 . S
H581 C589 0.930 . S
H582 C592 0.930 . S
H583 C593 0.930 . S
C584 H578 0.930 . S
C584 C585 1.355 . S
C584 C586 1.415 . S
C585 C584 1.355 . S
C585 C587 1.419 . S
C586 C584 1.415 . S
C586 C591 1.425 . S
C586 C593 1.409 . S
C587 H579 0.930 . S
C587 C585 1.419 . S
C587 C588 1.362 . S
C588 H580 0.930 . S
C588 C587 1.362 . S
C588 C591 1.409 . S
C589 H581 0.930 . S
C589 C590 1.355 . S
C589 C591 1.415 . S
C590 C589 1.355 . S
C590 C592 1.419 . S
C591 C586 1.425 . S
C591 C588 1.409 . S
C591 C589 1.415 . S
C592 H582 0.930 . S
C592 C590 1.419 . S
C592 C593 1.362 . S
C593 H583 0.930 . S
C593 C586 1.409 . S
C593 C592 1.362 . S
C222 C203 1.470 . S
C217 C19 1.468 . S
C233 C40 1.450 . S
C238 C132 1.454 . S
C249 C51 1.472 . S
C254 C146 1.490 . S
C265 C72 1.369 . S
C270 C160 1.485 . S
C286 C174 1.483 . S
C281 C103 1.384 . S
C297 C114 1.463 . S
C302 C189 1.474 . S
C313 C30 1.472 . S
C318 C147 1.491 . S
C329 C61 1.383 . S
C334 C161 1.473 . S
C345 C82 1.463 . S
C350 C175 1.463 . S
C366 C188 1.507 . S
C361 C93 1.394 . S
C382 C202 1.471 . S
C377 C124 1.469 . S
C398 C133 1.475 . S
C393 C9 1.463 . S
C409 C17 1.462 . S
C414 C149 1.510 . S
C425 C38 1.505 . S
C430 C163 1.510 . S
C446 C177 1.500 . S
C441 C54 1.489 . S
C457 C75 1.428 . S
C462 C190 1.543 . S
C478 C204 1.537 . S
C473 C101 1.426 . S
C494 C135 1.517 . S
C489 C117 1.506 . S
C510 C205 1.545 . S
C505 C33 1.440 . S
C521 C59 1.446 . S
C526 C134 1.510 . S
C542 C148 1.508 . S
C537 C80 1.499 . S
C553 C96 1.438 . S
C558 C162 1.545 . S
C569 C122 1.500 . S
C574 C176 1.533 . S
C585 C12 1.428 . S
C590 C191 1.531 . S
