# Generated by pormake.
# Topology pto, (3,4)-cn, num edge types: 1
# Building blocks:
#     Node 0, Type 0, BuildingBlock: KAKCAD_clean_linker_0, # of connection points: 3
#     Node 1, Type 0, BuildingBlock: KAKCAD_clean_linker_0, # of connection points: 3
#     Node 2, Type 0, BuildingBlock: KAKCAD_clean_linker_0, # of connection points: 3
#     Node 3, Type 0, BuildingBlock: KAKCAD_clean_linker_0, # of connection points: 3
#     Node 4, Type 0, BuildingBlock: KAKCAD_clean_linker_0, # of connection points: 3
#     Node 5, Type 0, BuildingBlock: KAKCAD_clean_linker_0, # of connection points: 3
#     Node 6, Type 0, BuildingBlock: KAKCAD_clean_linker_0, # of connection points: 3
#     Node 7, Type 0, BuildingBlock: KAKCAD_clean_linker_0, # of connection points: 3
#     Node 8, Type 1, BuildingBlock: KOZSID_clean_sbu_0, # of connection points: 4
#     Node 9, Type 1, BuildingBlock: KOZSID_clean_sbu_0, # of connection points: 4
#     Node 10, Type 1, BuildingBlock: KOZSID_clean_sbu_0, # of connection points: 4
#     Node 11, Type 1, BuildingBlock: KOZSID_clean_sbu_0, # of connection points: 4
#     Node 12, Type 1, BuildingBlock: KOZSID_clean_sbu_0, # of connection points: 4
#     Node 13, Type 1, BuildingBlock: KOZSID_clean_sbu_0, # of connection points: 4
#     Edge 14, Type (0, 1), BuildingBlock: XIVTED_clean_linker_0, # of connection points: 2
#     Edge 15, Type (0, 1), BuildingBlock: XIVTED_clean_linker_0, # of connection points: 2
#     Edge 16, Type (0, 1), BuildingBlock: XIVTED_clean_linker_0, # of connection points: 2
#     Edge 17, Type (0, 1), BuildingBlock: XIVTED_clean_linker_0, # of connection points: 2
#     Edge 18, Type (0, 1), BuildingBlock: XIVTED_clean_linker_0, # of connection points: 2
#     Edge 19, Type (0, 1), BuildingBlock: XIVTED_clean_linker_0, # of connection points: 2
#     Edge 20, Type (0, 1), BuildingBlock: XIVTED_clean_linker_0, # of connection points: 2
#     Edge 21, Type (0, 1), BuildingBlock: XIVTED_clean_linker_0, # of connection points: 2
#     Edge 22, Type (0, 1), BuildingBlock: XIVTED_clean_linker_0, # of connection points: 2
#     Edge 23, Type (0, 1), BuildingBlock: XIVTED_clean_linker_0, # of connection points: 2
#     Edge 24, Type (0, 1), BuildingBlock: XIVTED_clean_linker_0, # of connection points: 2
#     Edge 25, Type (0, 1), BuildingBlock: XIVTED_clean_linker_0, # of connection points: 2
#     Edge 26, Type (0, 1), BuildingBlock: XIVTED_clean_linker_0, # of connection points: 2
#     Edge 27, Type (0, 1), BuildingBlock: XIVTED_clean_linker_0, # of connection points: 2
#     Edge 28, Type (0, 1), BuildingBlock: XIVTED_clean_linker_0, # of connection points: 2
#     Edge 29, Type (0, 1), BuildingBlock: XIVTED_clean_linker_0, # of connection points: 2
#     Edge 30, Type (0, 1), BuildingBlock: XIVTED_clean_linker_0, # of connection points: 2
#     Edge 31, Type (0, 1), BuildingBlock: XIVTED_clean_linker_0, # of connection points: 2
#     Edge 32, Type (0, 1), BuildingBlock: XIVTED_clean_linker_0, # of connection points: 2
#     Edge 33, Type (0, 1), BuildingBlock: XIVTED_clean_linker_0, # of connection points: 2
#     Edge 34, Type (0, 1), BuildingBlock: XIVTED_clean_linker_0, # of connection points: 2
#     Edge 35, Type (0, 1), BuildingBlock: XIVTED_clean_linker_0, # of connection points: 2
#     Edge 36, Type (0, 1), BuildingBlock: XIVTED_clean_linker_0, # of connection points: 2
#     Edge 37, Type (0, 1), BuildingBlock: XIVTED_clean_linker_0, # of connection points: 2
# Relax obj value: 0.000
# Max RMSD: 0.024
# Mean RMSD: 0.010
data_MOF--net-pto--node1-KOZSID_clean_sbu_0--node2-KAKCAD_clean_linker_0--edge1-XIVTED_clean_linker_0
_symmetry_space_group_name_H-M    P1
_symmetry_Int_Tables_number       1
_symmetry_cell_setting            triclinic
loop_
_symmetry_equiv_pos_as_xyz
'x, y, z'
_cell_length_a     47.009004
_cell_length_b     63.641606
_cell_length_c     55.35756
_cell_angle_alpha  88.044725
_cell_angle_beta   88.157194
_cell_angle_gamma 92.953802
loop_
_atom_site_label
_atom_site_type_symbol
_atom_site_fract_x
_atom_site_fract_y
_atom_site_fract_z
_atom_type_partial_charge
C0 C 0.28513 0.18775 0.34996 0.0
C1 C 0.25827 0.18173 0.36058 0.0
C2 C 0.28905 0.20635 0.33585 0.0
C3 C 0.26613 0.21927 0.33191 0.0
C4 C 0.23931 0.21327 0.34271 0.0
C5 C 0.23546 0.19476 0.35696 0.0
C6 C 0.26985 0.23858 0.31601 0.0
C7 C 0.28641 0.23855 0.29446 0.0
C8 C 0.28886 0.25636 0.27871 0.0
C9 C 0.27404 0.27424 0.28447 0.0
C10 C 0.25745 0.27467 0.30606 0.0
C11 C 0.25598 0.25684 0.32188 0.0
C12 C 0.24099 0.29339 0.31179 0.0
C13 C 0.25163 0.31389 0.30503 0.0
C14 C 0.2141 0.29085 0.32374 0.0
C15 C 0.19832 0.30825 0.32876 0.0
C16 C 0.20859 0.32871 0.32147 0.0
C17 C 0.30665 0.25606 0.25608 0.0
C18 C 0.3336 0.24748 0.25631 0.0
C19 C 0.2968 0.26413 0.23411 0.0
C20 C 0.31348 0.26352 0.21281 0.0
C21 C 0.34041 0.25488 0.21305 0.0
C22 C 0.35029 0.24691 0.23505 0.0
C23 C 0.23555 0.33129 0.3096 0.0
H24 H 0.3032 0.17815 0.35273 0.0
H25 H 0.31008 0.21067 0.3281 0.0
H26 H 0.22107 0.22263 0.33971 0.0
H27 H 0.21443 0.19037 0.36467 0.0
H28 H 0.2967 0.2244 0.28949 0.0
H29 H 0.24412 0.25716 0.33895 0.0
H30 H 0.27535 0.28776 0.27201 0.0
H31 H 0.27243 0.31658 0.29617 0.0
H32 H 0.20486 0.27536 0.32892 0.0
H33 H 0.17798 0.30555 0.33838 0.0
H34 H 0.34188 0.2413 0.273 0.0
H35 H 0.27601 0.27067 0.23331 0.0
H36 H 0.24413 0.34671 0.3034 0.0
H37 H 0.3708 0.23994 0.2358 0.0
H38 H 0.30538 0.26998 0.1962 0.0
C39 C 0.30635 0.78559 0.79495 0.0
C40 C 0.32665 0.77041 0.7987 0.0
C41 C 0.28894 0.78477 0.77499 0.0
C42 C 0.29116 0.76861 0.75851 0.0
C43 C 0.31139 0.75345 0.76213 0.0
C44 C 0.32909 0.75442 0.7819 0.0
C45 C 0.27201 0.76739 0.73785 0.0
C46 C 0.26828 0.78529 0.72303 0.0
C47 C 0.24949 0.78445 0.70382 0.0
C48 C 0.23431 0.76539 0.69965 0.0
C49 C 0.23769 0.74733 0.71438 0.0
C50 C 0.25681 0.74844 0.73334 0.0
C51 C 0.22043 0.72758 0.71058 0.0
C52 C 0.19146 0.72828 0.70523 0.0
C53 C 0.23253 0.70788 0.71276 0.0
C54 C 0.21595 0.68932 0.70992 0.0
C55 C 0.18689 0.69004 0.70483 0.0
C56 C 0.2454 0.80351 0.6883 0.0
C57 C 0.24407 0.82339 0.69849 0.0
C58 C 0.24254 0.80196 0.66321 0.0
C59 C 0.23835 0.81983 0.64868 0.0
C60 C 0.23713 0.83973 0.65885 0.0
C61 C 0.24008 0.84129 0.68393 0.0
C62 C 0.17493 0.70976 0.70232 0.0
H63 H 0.30342 0.7979 0.80768 0.0
H64 H 0.27325 0.79651 0.77274 0.0
H65 H 0.31369 0.74095 0.74951 0.0
H66 H 0.34483 0.7427 0.78387 0.0
H67 H 0.28044 0.7998 0.72628 0.0
H68 H 0.25908 0.73479 0.74524 0.0
H69 H 0.21955 0.76465 0.68503 0.0
H70 H 0.18135 0.74316 0.70372 0.0
H71 H 0.25486 0.70681 0.71664 0.0
H72 H 0.22578 0.67439 0.71219 0.0
H73 H 0.24584 0.82513 0.71778 0.0
H74 H 0.24377 0.78694 0.65472 0.0
H75 H 0.15272 0.71091 0.69807 0.0
H76 H 0.23963 0.85638 0.69235 0.0
H77 H 0.23583 0.81799 0.62948 0.0
C78 C 0.69967 0.74609 0.23518 0.0
C79 C 0.69904 0.76511 0.22161 0.0
C80 C 0.71674 0.74463 0.2553 0.0
C81 C 0.73375 0.76211 0.26218 0.0
C82 C 0.73303 0.78114 0.24858 0.0
C83 C 0.71577 0.78265 0.22858 0.0
C84 C 0.75238 0.76045 0.28331 0.0
C85 C 0.76717 0.74214 0.28774 0.0
C86 C 0.78512 0.74056 0.30744 0.0
C87 C 0.78834 0.75758 0.32277 0.0
C88 C 0.77377 0.77601 0.31866 0.0
C89 C 0.75574 0.77726 0.29897 0.0
C90 C 0.7775 0.79399 0.33485 0.0
C91 C 0.77791 0.79056 0.36005 0.0
C92 C 0.78081 0.81472 0.32519 0.0
C93 C 0.7844 0.83165 0.3404 0.0
C94 C 0.78472 0.82823 0.36561 0.0
C95 C 0.80084 0.72125 0.3118 0.0
C96 C 0.78708 0.70124 0.31022 0.0
C97 C 0.82975 0.72271 0.31754 0.0
C98 C 0.84462 0.70456 0.32156 0.0
C99 C 0.83089 0.68451 0.32001 0.0
C100 C 0.80193 0.68306 0.31432 0.0
C101 C 0.78147 0.8075 0.37526 0.0
H102 H 0.68669 0.7324 0.2304 0.0
H103 H 0.71637 0.72984 0.26561 0.0
H104 H 0.74621 0.79482 0.25309 0.0
H105 H 0.71597 0.79743 0.21827 0.0
H106 H 0.76539 0.72928 0.27544 0.0
H107 H 0.74385 0.79123 0.29613 0.0
H108 H 0.80231 0.7565 0.3379 0.0
H109 H 0.77517 0.77479 0.36805 0.0
H110 H 0.78087 0.81785 0.30583 0.0
H111 H 0.78653 0.84745 0.33241 0.0
H112 H 0.76471 0.69964 0.30612 0.0
H113 H 0.84103 0.73792 0.31853 0.0
H114 H 0.78189 0.80432 0.39459 0.0
H115 H 0.79061 0.66788 0.31332 0.0
H116 H 0.86703 0.70625 0.32545 0.0
C117 C 0.80548 0.20995 0.6833 0.0
C118 C 0.78124 0.19796 0.67661 0.0
C119 C 0.80277 0.22699 0.6983 0.0
C120 C 0.77577 0.23231 0.70704 0.0
C121 C 0.75155 0.22025 0.70049 0.0
C122 C 0.75425 0.20329 0.68538 0.0
C123 C 0.77293 0.25042 0.72295 0.0
C124 C 0.78845 0.26951 0.7175 0.0
C125 C 0.78631 0.28668 0.73262 0.0
C126 C 0.76828 0.28456 0.7534 0.0
C127 C 0.75251 0.26558 0.7591 0.0
C128 C 0.75492 0.24861 0.74372 0.0
C129 C 0.73394 0.2633 0.78133 0.0
C130 C 0.74351 0.27092 0.80333 0.0
C131 C 0.70663 0.25327 0.78075 0.0
C132 C 0.68928 0.25091 0.80173 0.0
C133 C 0.69889 0.25845 0.82377 0.0
C134 C 0.80319 0.30669 0.72681 0.0
C135 C 0.83169 0.30637 0.71841 0.0
C136 C 0.79103 0.32621 0.72967 0.0
C137 C 0.80708 0.345 0.72438 0.0
C138 C 0.83565 0.34467 0.71612 0.0
C139 C 0.84771 0.32513 0.7131 0.0
C140 C 0.72619 0.26849 0.82433 0.0
H141 H 0.82654 0.20633 0.67667 0.0
H142 H 0.82184 0.23589 0.70324 0.0
H143 H 0.73046 0.22408 0.70682 0.0
H144 H 0.7352 0.19421 0.68073 0.0
H145 H 0.80183 0.27113 0.70115 0.0
H146 H 0.74341 0.23374 0.74832 0.0
H147 H 0.76661 0.29768 0.76525 0.0
H148 H 0.76456 0.27852 0.80441 0.0
H149 H 0.69859 0.24738 0.76401 0.0
H150 H 0.66845 0.24294 0.80075 0.0
H151 H 0.84179 0.29161 0.71623 0.0
H152 H 0.76903 0.32698 0.73586 0.0
H153 H 0.73409 0.27468 0.84097 0.0
H154 H 0.86955 0.32431 0.7065 0.0
H155 H 0.79723 0.35978 0.72714 0.0
C156 C 0.7695 0.82058 0.65487 0.0
C157 C 0.77053 0.84057 0.66501 0.0
C158 C 0.76456 0.80238 0.66956 0.0
C159 C 0.76067 0.80373 0.69473 0.0
C160 C 0.76162 0.82371 0.70484 0.0
C161 C 0.76636 0.84189 0.69016 0.0
C162 C 0.7564 0.78442 0.71058 0.0
C163 C 0.7722 0.76673 0.70623 0.0
C164 C 0.76962 0.74893 0.72199 0.0
C165 C 0.75116 0.74901 0.74246 0.0
C166 C 0.73502 0.76652 0.74709 0.0
C167 C 0.73747 0.78398 0.73076 0.0
C168 C 0.7164 0.76695 0.76934 0.0
C169 C 0.70126 0.7486 0.77859 0.0
C170 C 0.71401 0.78574 0.78178 0.0
C171 C 0.6968 0.78622 0.80276 0.0
C172 C 0.68199 0.76786 0.81203 0.0
C173 C 0.7872 0.73066 0.71754 0.0
C174 C 0.79058 0.72309 0.69411 0.0
C175 C 0.80132 0.721 0.73659 0.0
C176 C 0.81879 0.70436 0.73226 0.0
C177 C 0.82252 0.69698 0.70877 0.0
C178 C 0.80801 0.70639 0.68978 0.0
C179 C 0.68442 0.74902 0.79983 0.0
H180 H 0.7729 0.81896 0.6356 0.0
H181 H 0.76371 0.78725 0.66116 0.0
H182 H 0.75912 0.82534 0.72419 0.0
H183 H 0.76658 0.85701 0.69857 0.0
H184 H 0.78745 0.76711 0.6911 0.0
H185 H 0.72451 0.79731 0.73371 0.0
H186 H 0.7497 0.73549 0.75494 0.0
H187 H 0.70218 0.73393 0.76934 0.0
H188 H 0.72582 0.80008 0.7756 0.0
H189 H 0.69553 0.80088 0.81203 0.0
H190 H 0.77976 0.73011 0.67911 0.0
H191 H 0.79936 0.7266 0.7548 0.0
H192 H 0.67296 0.73469 0.80655 0.0
H193 H 0.81061 0.70115 0.67147 0.0
H194 H 0.8294 0.69726 0.74733 0.0
C195 C 0.69419 0.24533 0.25285 0.0
C196 C 0.70451 0.25354 0.23014 0.0
C197 C 0.71117 0.24663 0.27308 0.0
C198 C 0.73874 0.25628 0.27103 0.0
C199 C 0.7491 0.2644 0.24834 0.0
C200 C 0.73222 0.263 0.22812 0.0
C201 C 0.75693 0.25771 0.29236 0.0
C202 C 0.75926 0.24018 0.30809 0.0
C203 C 0.77771 0.24113 0.3275 0.0
C204 C 0.79375 0.25989 0.33126 0.0
C205 C 0.79124 0.27776 0.31599 0.0
C206 C 0.77269 0.27649 0.29661 0.0
C207 C 0.80812 0.29767 0.32007 0.0
C208 C 0.81279 0.30438 0.34365 0.0
C209 C 0.81965 0.31019 0.30034 0.0
C210 C 0.83521 0.32901 0.30408 0.0
C211 C 0.8399 0.33562 0.32762 0.0
C212 C 0.78062 0.22233 0.34353 0.0
C213 C 0.75629 0.21091 0.35323 0.0
C214 C 0.80772 0.21551 0.34896 0.0
C215 C 0.81042 0.19745 0.36359 0.0
C216 C 0.78609 0.18605 0.3733 0.0
C217 C 0.759 0.19301 0.3681 0.0
C218 C 0.82867 0.3231 0.34738 0.0
H219 H 0.67281 0.2382 0.25511 0.0
H220 H 0.70257 0.24039 0.2904 0.0
H221 H 0.77047 0.27158 0.24613 0.0
H222 H 0.74107 0.26911 0.21083 0.0
H223 H 0.7475 0.22553 0.30472 0.0
H224 H 0.77013 0.29023 0.28494 0.0
H225 H 0.80826 0.26049 0.34607 0.0
H226 H 0.80385 0.29533 0.35926 0.0
H227 H 0.81702 0.30534 0.28196 0.0
H228 H 0.84402 0.33822 0.28853 0.0
H229 H 0.73517 0.21592 0.34941 0.0
H230 H 0.8268 0.22396 0.34155 0.0
H231 H 0.83179 0.32795 0.36572 0.0
H232 H 0.73989 0.18441 0.37522 0.0
H233 H 0.83155 0.19248 0.36745 0.0
C234 C 0.30896 0.26608 0.80823 0.0
C235 C 0.33592 0.25775 0.80545 0.0
C236 C 0.29157 0.26828 0.78842 0.0
C237 C 0.30069 0.26203 0.76547 0.0
C238 C 0.32769 0.25375 0.76265 0.0
C239 C 0.34521 0.25174 0.78243 0.0
C240 C 0.28165 0.26365 0.74475 0.0
C241 C 0.26701 0.28202 0.74049 0.0
C242 C 0.24734 0.28325 0.72192 0.0
C243 C 0.24286 0.26575 0.70738 0.0
C244 C 0.25796 0.24749 0.71098 0.0
C245 C 0.27728 0.24656 0.72974 0.0
C246 C 0.25353 0.22934 0.69517 0.0
C247 C 0.22594 0.22244 0.6889 0.0
C248 C 0.27698 0.21892 0.68607 0.0
C249 C 0.27298 0.20206 0.67086 0.0
C250 C 0.24542 0.19522 0.66445 0.0
C251 C 0.23115 0.30257 0.71803 0.0
C252 C 0.22305 0.31461 0.7377 0.0
C253 C 0.22327 0.30902 0.69472 0.0
C254 C 0.20711 0.32664 0.69128 0.0
C255 C 0.19895 0.33863 0.71099 0.0
C256 C 0.20757 0.33252 0.73419 0.0
C257 C 0.22192 0.20551 0.67373 0.0
H258 H 0.30137 0.27104 0.82571 0.0
H259 H 0.27076 0.27453 0.79115 0.0
H260 H 0.33528 0.2489 0.74512 0.0
H261 H 0.36584 0.24517 0.77981 0.0
H262 H 0.27132 0.29543 0.75159 0.0
H263 H 0.28825 0.23224 0.73316 0.0
H264 H 0.22756 0.26624 0.69319 0.0
H265 H 0.20743 0.23004 0.69585 0.0
H266 H 0.2985 0.22398 0.69045 0.0
H267 H 0.29149 0.19427 0.66424 0.0
H268 H 0.22824 0.31009 0.756 0.0
H269 H 0.22954 0.30049 0.67899 0.0
H270 H 0.20044 0.20069 0.66898 0.0
H271 H 0.20242 0.34153 0.74982 0.0
H272 H 0.20069 0.33057 0.67315 0.0
C273 C 0.24754 0.82875 0.32891 0.0
C274 C 0.24693 0.82567 0.35419 0.0
C275 C 0.25103 0.81182 0.31387 0.0
C276 C 0.25395 0.79145 0.32379 0.0
C277 C 0.25329 0.78838 0.34907 0.0
C278 C 0.24983 0.8053 0.3641 0.0
C279 C 0.25743 0.77343 0.30783 0.0
C280 C 0.27551 0.77554 0.28712 0.0
C281 C 0.2785 0.75868 0.27162 0.0
C282 C 0.26347 0.73938 0.27748 0.0
C283 C 0.24558 0.73688 0.29834 0.0
C284 C 0.24253 0.75409 0.31325 0.0
C285 C 0.22986 0.7164 0.30452 0.0
C286 C 0.21809 0.70411 0.28631 0.0
C287 C 0.22628 0.70907 0.32876 0.0
C288 C 0.21095 0.69011 0.33466 0.0
C289 C 0.19922 0.67792 0.31644 0.0
C290 C 0.29707 0.76128 0.24927 0.0
C291 C 0.29902 0.78051 0.23579 0.0
C292 C 0.31272 0.7445 0.24101 0.0
C293 C 0.32938 0.74678 0.21964 0.0
C294 C 0.33123 0.76598 0.20632 0.0
C295 C 0.31615 0.78288 0.21467 0.0
C296 C 0.20309 0.68501 0.2922 0.0
H297 H 0.24567 0.84429 0.32072 0.0
H298 H 0.25116 0.81465 0.29446 0.0
H299 H 0.25573 0.7729 0.35725 0.0
H300 H 0.24916 0.80237 0.3835 0.0
H301 H 0.28769 0.79026 0.28334 0.0
H302 H 0.22792 0.75262 0.32884 0.0
H303 H 0.26561 0.72626 0.26574 0.0
H304 H 0.21995 0.70941 0.2675 0.0
H305 H 0.23551 0.7179 0.34322 0.0
H306 H 0.2085 0.68486 0.35347 0.0
H307 H 0.28691 0.79367 0.24125 0.0
H308 H 0.31234 0.72962 0.25111 0.0
H309 H 0.19392 0.67603 0.27783 0.0
H310 H 0.31709 0.79779 0.20455 0.0
H311 H 0.34112 0.73359 0.21365 0.0
C312 C 0.06257 0.53746 0.36321 0.0
C313 C 0.07294 0.54315 0.3854 0.0
C314 C 0.05772 0.53109 0.40263 0.0
C315 C 0.0392 0.51865 0.39004 0.0
N316 N 0.04163 0.52201 0.36579 0.0
Co317 Co 0.02003 0.5064 0.34073 0.0
N318 N 0.99618 0.48982 0.36619 0.0
C319 C 0.99678 0.49205 0.39039 0.0
C320 C 0.97716 0.47913 0.40328 0.0
C321 C 0.96318 0.46791 0.38633 0.0
C322 C 0.97537 0.47453 0.36399 0.0
N323 N 0.99942 0.49004 0.31569 0.0
C324 C 0.97956 0.47382 0.3183 0.0
C325 C 0.97265 0.46573 0.2961 0.0
C326 C 0.98844 0.47735 0.27889 0.0
C327 C 0.00427 0.49165 0.29146 0.0
N328 N 0.04277 0.52378 0.31525 0.0
C329 C 0.04024 0.52294 0.29102 0.0
C330 C 0.0571 0.53776 0.27807 0.0
C331 C 0.07118 0.54888 0.29501 0.0
C332 C 0.0623 0.53996 0.31745 0.0
N333 N 0.04913 0.48486 0.34112 0.0
C334 C 0.08823 0.45286 0.34093 0.0
C335 C 0.08437 0.46519 0.32013 0.0
C336 C 0.06469 0.48086 0.32055 0.0
C337 C 0.0728 0.45703 0.36199 0.0
C338 C 0.05379 0.47319 0.36179 0.0
N339 N 0.99099 0.5279 0.34031 0.0
C340 C 0.95962 0.54983 0.31814 0.0
C341 C 0.95181 0.55994 0.33917 0.0
C342 C 0.96349 0.55338 0.36088 0.0
C343 C 0.98286 0.53746 0.36105 0.0
C344 C 0.97898 0.53396 0.31912 0.0
H345 H 0.99113 0.53328 0.37814 0.0
H346 H 0.98417 0.52702 0.30242 0.0
H347 H 0.06221 0.48928 0.30388 0.0
H348 H 0.04297 0.47578 0.37854 0.0
C349 C 0.01768 0.50505 0.4005 0.0
C350 C 0.07299 0.54743 0.34027 0.0
C351 C 0.96704 0.46537 0.34132 0.0
C352 C 0.02284 0.5074 0.28096 0.0
H353 H 0.08957 0.55497 0.38881 0.0
H354 H 0.05953 0.53165 0.42204 0.0
H355 H 0.97386 0.47768 0.42273 0.0
H356 H 0.94624 0.45596 0.39003 0.0
H357 H 0.95785 0.45269 0.29262 0.0
H358 H 0.98837 0.47559 0.25951 0.0
H359 H 0.05899 0.54017 0.25861 0.0
H360 H 0.08625 0.56209 0.29118 0.0
H361 H 0.09584 0.46232 0.30337 0.0
H362 H 0.07543 0.44789 0.37857 0.0
H363 H 0.95143 0.55447 0.3008 0.0
H364 H 0.95774 0.56046 0.37776 0.0
C365 C 0.05612 0.54585 0.715 0.0
C366 C 0.06739 0.55044 0.7372 0.0
C367 C 0.05122 0.5389 0.75431 0.0
C368 C 0.03124 0.52785 0.74162 0.0
N369 N 0.03384 0.53151 0.71741 0.0
Co370 Co 0.01018 0.51804 0.69217 0.0
N371 N 0.98383 0.50361 0.71743 0.0
C372 C 0.98439 0.50586 0.74163 0.0
C373 C 0.96316 0.49425 0.75432 0.0
C374 C 0.94834 0.48379 0.73722 0.0
C375 C 0.96164 0.48953 0.71505 0.0
N376 N 0.98744 0.50354 0.66697 0.0
C377 C 0.96605 0.48843 0.66953 0.0
C378 C 0.9577 0.48119 0.64733 0.0
C379 C 0.97461 0.492 0.63013 0.0
C380 C 0.99233 0.50504 0.64276 0.0
N381 N 0.03549 0.53361 0.6669 0.0
C382 C 0.03329 0.53287 0.64265 0.0
C383 C 0.05221 0.54646 0.62989 0.0
C384 C 0.06708 0.55681 0.64703 0.0
C385 C 0.05648 0.54874 0.66934 0.0
N386 N 0.03554 0.49401 0.69284 0.0
C387 C 0.07316 0.46084 0.69488 0.0
C388 C 0.07086 0.47312 0.67365 0.0
C389 C 0.05183 0.4893 0.67294 0.0
C390 C 0.05564 0.46517 0.71478 0.0
C391 C 0.03751 0.48176 0.71349 0.0
N392 N 0.98502 0.54207 0.69163 0.0
C393 C 0.95641 0.56652 0.67003 0.0
C394 C 0.951 0.57719 0.6912 0.0
C395 C 0.96249 0.56976 0.71259 0.0
C396 C 0.9792 0.55234 0.71242 0.0
C397 C 0.97346 0.54914 0.67062 0.0
H398 H 0.98729 0.54755 0.72936 0.0
H399 H 0.97721 0.54181 0.65386 0.0
H400 H 0.05088 0.49785 0.65611 0.0
H401 H 0.0254 0.48429 0.72959 0.0
C402 C 0.00749 0.51644 0.75197 0.0
C403 C 0.06621 0.55641 0.69234 0.0
C404 C 0.95401 0.4798 0.69257 0.0
C405 C 0.01348 0.51903 0.63246 0.0
H406 H 0.08494 0.56149 0.7407 0.0
H407 H 0.05301 0.53927 0.77374 0.0
H408 H 0.95974 0.49275 0.77375 0.0
H409 H 0.9305 0.47254 0.74071 0.0
H410 H 0.9414 0.46913 0.64394 0.0
H411 H 0.97427 0.49034 0.61074 0.0
H412 H 0.05463 0.54877 0.61046 0.0
H413 H 0.08358 0.56911 0.64345 0.0
H414 H 0.08394 0.47058 0.65767 0.0
H415 H 0.05568 0.45579 0.73147 0.0
H416 H 0.94801 0.57179 0.65299 0.0
H417 H 0.95843 0.57725 0.72955 0.0
C418 C 0.25172 0.98109 0.54841 0.0
C419 C 0.27702 0.97537 0.55844 0.0
C420 C 0.29848 0.98669 0.54598 0.0
C421 C 0.2851 0.9987 0.52924 0.0
N422 N 0.25633 0.99602 0.53051 0.0
Co423 Co 0.22844 0.0101 0.50949 0.0
N424 N 0.26013 0.02526 0.48962 0.0
C425 C 0.2885 0.02386 0.49238 0.0
C426 C 0.30501 0.03667 0.47659 0.0
C427 C 0.28613 0.0471 0.46308 0.0
C428 C 0.25902 0.03993 0.47138 0.0
N429 N 0.20057 0.02429 0.48855 0.0
C430 C 0.20518 0.03912 0.47051 0.0
C431 C 0.17984 0.04517 0.46085 0.0
C432 C 0.15838 0.03409 0.4736 0.0
C433 C 0.17179 0.02191 0.49015 0.0
N434 N 0.1968 0.99482 0.5293 0.0
C435 C 0.16844 0.99619 0.52656 0.0
C436 C 0.15199 0.98302 0.54204 0.0
C437 C 0.17093 0.97232 0.55523 0.0
C438 C 0.19796 0.97971 0.54707 0.0
N439 N 0.2278 0.03404 0.53155 0.0
C440 C 0.22752 0.06959 0.56048 0.0
C441 C 0.20203 0.05982 0.55332 0.0
C442 C 0.20266 0.0422 0.53895 0.0
C443 C 0.25304 0.06094 0.55346 0.0
C444 C 0.25269 0.04334 0.53919 0.0
N445 N 0.22909 0.9862 0.48744 0.0
C446 C 0.20449 0.95975 0.46433 0.0
C447 C 0.23022 0.95101 0.45801 0.0
C448 C 0.25537 0.96043 0.46628 0.0
C449 C 0.25433 0.97786 0.48079 0.0
C450 C 0.20441 0.9772 0.47896 0.0
H451 H 0.27424 0.98418 0.48655 0.0
H452 H 0.18411 0.98296 0.4834 0.0
H453 H 0.18258 0.03564 0.53381 0.0
H454 H 0.2729 0.03772 0.53442 0.0
C455 C 0.299 0.01153 0.5111 0.0
C456 C 0.22407 0.97103 0.55561 0.0
C457 C 0.23297 0.04847 0.46247 0.0
C458 C 0.15797 0.00884 0.50812 0.0
H459 H 0.2797 0.9638 0.57287 0.0
H460 H 0.32116 0.98581 0.54836 0.0
H461 H 0.32802 0.03872 0.47557 0.0
H462 H 0.2918 0.05906 0.44917 0.0
H463 H 0.17717 0.0567 0.44638 0.0
H464 H 0.13569 0.03513 0.47141 0.0
H465 H 0.12898 0.98089 0.543 0.0
H466 H 0.16539 0.96005 0.56882 0.0
H467 H 0.1817 0.06601 0.55828 0.0
H468 H 0.27334 0.06768 0.55901 0.0
H469 H 0.18441 0.9529 0.45846 0.0
H470 H 0.27591 0.95448 0.46149 0.0
C471 C 0.46886 0.79385 0.04476 0.0
C472 C 0.45964 0.81359 0.05017 0.0
C473 C 0.47622 0.82791 0.03641 0.0
C474 C 0.49433 0.81617 0.02326 0.0
N475 N 0.49023 0.79517 0.02766 0.0
Co476 Co 0.51101 0.77239 0.01163 0.0
N477 N 0.537 0.79356 0.99301 0.0
C478 C 0.53785 0.81472 0.99484 0.0
C479 C 0.5585 0.82512 0.98029 0.0
C480 C 0.57148 0.8097 0.96825 0.0
C481 C 0.5577 0.79072 0.97602 0.0
N482 N 0.53103 0.7496 0.99481 0.0
C483 C 0.55112 0.75099 0.97659 0.0
C484 C 0.55729 0.73123 0.96853 0.0
C485 C 0.54065 0.71689 0.98216 0.0
C486 C 0.52511 0.72861 0.99752 0.0
N487 N 0.48582 0.7512 0.03109 0.0
C488 C 0.48679 0.72999 0.03088 0.0
C489 C 0.46866 0.71951 0.04755 0.0
C490 C 0.45545 0.73492 0.05936 0.0
C491 C 0.46609 0.75403 0.04893 0.0
N492 N 0.48342 0.77272 0.98523 0.0
C493 C 0.44735 0.77241 0.94545 0.0
C494 C 0.45015 0.75427 0.95996 0.0
C495 C 0.46821 0.75474 0.97947 0.0
C496 C 0.4623 0.79088 0.95173 0.0
C497 C 0.47983 0.79073 0.97163 0.0
N498 N 0.53863 0.77204 0.03798 0.0
C499 C 0.56693 0.75273 0.06592 0.0
C500 C 0.57619 0.77131 0.07668 0.0
C501 C 0.56659 0.79029 0.06746 0.0
C502 C 0.54795 0.79029 0.04831 0.0
C503 C 0.54846 0.75346 0.04672 0.0
H504 H 0.54128 0.80526 0.04229 0.0
H505 H 0.54221 0.73874 0.03943 0.0
H506 H 0.46969 0.74027 0.98944 0.0
H507 H 0.49058 0.80533 0.97538 0.0
C508 C 0.51708 0.82442 0.00845 0.0
C509 C 0.4573 0.77443 0.05695 0.0
C510 C 0.56406 0.7706 0.96581 0.0
C511 C 0.50483 0.72036 0.01467 0.0
H512 H 0.44301 0.81728 0.06308 0.0
H513 H 0.47566 0.84489 0.03648 0.0
H514 H 0.56296 0.84195 0.97809 0.0
H515 H 0.58865 0.81218 0.95479 0.0
H516 H 0.5719 0.72746 0.95403 0.0
H517 H 0.53966 0.69994 0.98077 0.0
H518 H 0.46566 0.70267 0.05092 0.0
H519 H 0.44004 0.73225 0.0742 0.0
H520 H 0.4385 0.73966 0.95634 0.0
H521 H 0.46112 0.80538 0.94107 0.0
H522 H 0.57342 0.73756 0.07255 0.0
H523 H 0.57349 0.80517 0.07485 0.0
C524 C 0.82376 0.98531 0.55757 0.0
C525 C 0.84974 0.97908 0.56577 0.0
C526 C 0.87039 0.99073 0.5527 0.0
C527 C 0.85594 0.00324 0.53723 0.0
N528 N 0.82725 0.00059 0.53989 0.0
Co529 Co 0.79811 0.01427 0.51975 0.0
N530 N 0.82856 0.03002 0.49907 0.0
C531 C 0.8571 0.0294 0.50128 0.0
C532 C 0.8726 0.04291 0.48552 0.0
C533 C 0.85282 0.05305 0.47269 0.0
C534 C 0.82626 0.04498 0.4813 0.0
N535 N 0.76894 0.02757 0.49939 0.0
C536 C 0.77241 0.0422 0.48105 0.0
C537 C 0.74652 0.04709 0.47148 0.0
C538 C 0.72587 0.03557 0.48469 0.0
C539 C 0.74027 0.02423 0.50138 0.0
N540 N 0.76763 0.99888 0.54064 0.0
C541 C 0.73908 0.00025 0.53922 0.0
C542 C 0.72362 0.98777 0.55609 0.0
C543 C 0.74343 0.97754 0.56881 0.0
C544 C 0.76991 0.98432 0.55877 0.0
N545 N 0.79764 0.03832 0.54164 0.0
C546 C 0.79675 0.07352 0.57115 0.0
C547 C 0.77156 0.06419 0.56284 0.0
C548 C 0.77249 0.04681 0.54825 0.0
C549 C 0.82242 0.06472 0.56474 0.0
C550 C 0.82238 0.04725 0.5501 0.0
N551 N 0.79853 0.9902 0.49789 0.0
C552 C 0.7733 0.96214 0.47778 0.0
C553 C 0.79886 0.95462 0.46899 0.0
C554 C 0.82429 0.96548 0.47448 0.0
C555 C 0.82364 0.98308 0.48887 0.0
C556 C 0.77362 0.97979 0.492 0.0
H557 H 0.84372 0.9905 0.4927 0.0
H558 H 0.7534 0.98457 0.49817 0.0
H559 H 0.75253 0.04064 0.54243 0.0
H560 H 0.84262 0.04141 0.54569 0.0
C561 C 0.86866 0.01675 0.51915 0.0
C562 C 0.79641 0.97544 0.56603 0.0
C563 C 0.79946 0.05282 0.47309 0.0
C564 C 0.72742 0.01182 0.52041 0.0
H565 H 0.8535 0.96699 0.57932 0.0
H566 H 0.89323 0.9897 0.55379 0.0
H567 H 0.89553 0.04555 0.48405 0.0
H568 H 0.85753 0.06538 0.459 0.0
H569 H 0.74291 0.0583 0.45689 0.0
H570 H 0.70304 0.03596 0.48289 0.0
H571 H 0.70067 0.98575 0.55828 0.0
H572 H 0.73889 0.96591 0.58333 0.0
H573 H 0.75105 0.07016 0.56767 0.0
H574 H 0.84256 0.07148 0.57058 0.0
H575 H 0.753 0.95451 0.47362 0.0
H576 H 0.84466 0.96018 0.46816 0.0
C577 C 0.47475 0.26845 0.0506 0.0
C578 C 0.4651 0.28793 0.05654 0.0
C579 C 0.48178 0.30269 0.04349 0.0
C580 C 0.50046 0.29143 0.03029 0.0
N581 N 0.49652 0.27032 0.03392 0.0
Co582 Co 0.51872 0.24803 0.01835 0.0
N583 N 0.54516 0.26979 0.00118 0.0
C584 C 0.54531 0.29093 0.00328 0.0
C585 C 0.56606 0.30176 0.98921 0.0
C586 C 0.57979 0.28668 0.97719 0.0
C587 C 0.56643 0.26747 0.98457 0.0
N588 N 0.54041 0.22577 0.00212 0.0
C589 C 0.56157 0.22772 0.98484 0.0
C590 C 0.56957 0.20824 0.97727 0.0
C591 C 0.55268 0.19344 0.99006 0.0
C592 C 0.53533 0.20467 0.00455 0.0
N593 N 0.4928 0.22628 0.03618 0.0
C594 C 0.49387 0.20511 0.03532 0.0
C595 C 0.47438 0.19424 0.05058 0.0
C596 C 0.46027 0.20936 0.06221 0.0
C597 C 0.47195 0.22865 0.05322 0.0
N598 N 0.49289 0.24851 0.9907 0.0
C599 C 0.45875 0.2491 0.94986 0.0
C600 C 0.46246 0.23033 0.96287 0.0
C601 C 0.47961 0.23037 0.98302 0.0
C602 C 0.47191 0.26761 0.95786 0.0
C603 C 0.48857 0.26699 0.97823 0.0
N604 N 0.54462 0.24757 0.04596 0.0
C605 C 0.57221 0.22847 0.0747 0.0
C606 C 0.58069 0.24712 0.08567 0.0
C607 C 0.57076 0.26596 0.07641 0.0
C608 C 0.553 0.26583 0.05673 0.0
C609 C 0.5543 0.22905 0.05505 0.0
H610 H 0.54618 0.28074 0.05069 0.0
H611 H 0.54856 0.21431 0.04756 0.0
H612 H 0.48204 0.21551 0.9919 0.0
H613 H 0.49789 0.28167 0.9834 0.0
C614 C 0.52375 0.3002 0.01645 0.0
C615 C 0.46354 0.24874 0.06223 0.0
C616 C 0.57367 0.2476 0.97428 0.0
C617 C 0.51374 0.19592 0.02026 0.0
H618 H 0.44825 0.29113 0.06947 0.0
H619 H 0.48107 0.31963 0.04423 0.0
H620 H 0.57 0.31865 0.98722 0.0
H621 H 0.59713 0.28952 0.96394 0.0
H622 H 0.58558 0.20506 0.96358 0.0
H623 H 0.55265 0.17652 0.9886 0.0
H624 H 0.47118 0.17735 0.05327 0.0
H625 H 0.44364 0.20648 0.07608 0.0
H626 H 0.45272 0.21557 0.95723 0.0
H627 H 0.46921 0.28259 0.94856 0.0
H628 H 0.57957 0.21346 0.08104 0.0
H629 H 0.57628 0.28081 0.08451 0.0
H630 H 0.15018 0.33023 0.32128 0.0
H631 H 0.14404 0.45365 0.32533 0.0
H632 H 0.22645 0.36952 0.33117 0.0
H633 H 0.07534 0.4119 0.35455 0.0
H634 H 0.17426 0.4234 0.32208 0.0
H635 H 0.12169 0.36043 0.32834 0.0
C636 C 0.16105 0.34507 0.32519 0.0
C637 C 0.19095 0.34713 0.32575 0.0
C638 C 0.15264 0.42095 0.32938 0.0
C639 C 0.15818 0.38201 0.33302 0.0
C640 C 0.13544 0.43811 0.33115 0.0
C641 C 0.10729 0.43515 0.34026 0.0
C642 C 0.14129 0.40071 0.33622 0.0
C643 C 0.09704 0.41478 0.34761 0.0
C644 C 0.14467 0.36235 0.32907 0.0
C645 C 0.20358 0.36711 0.33014 0.0
N646 N 0.11394 0.39826 0.34516 0.0
N647 N 0.18714 0.38382 0.33343 0.0
H648 H 0.132 0.68156 0.72181 0.0
H649 H 0.1224 0.56277 0.67837 0.0
H650 H 0.2008 0.65355 0.68308 0.0
H651 H 0.05111 0.59419 0.70837 0.0
H652 H 0.15222 0.59545 0.68087 0.0
H653 H 0.1026 0.64927 0.71797 0.0
C654 C 0.14088 0.66868 0.71232 0.0
C655 C 0.16891 0.67035 0.70265 0.0
C656 C 0.13003 0.59524 0.68682 0.0
C657 C 0.1354 0.63309 0.69853 0.0
C658 C 0.11311 0.57667 0.68534 0.0
C659 C 0.08441 0.57606 0.69302 0.0
C660 C 0.11809 0.61317 0.69625 0.0
C661 C 0.07321 0.59422 0.7022 0.0
C662 C 0.1241 0.65018 0.71026 0.0
C663 C 0.17943 0.65291 0.69104 0.0
N664 N 0.09009 0.61207 0.7036 0.0
N665 N 0.16267 0.635 0.68931 0.0
H666 H 0.82732 0.64784 0.2953 0.0
H667 H 0.95503 0.59649 0.36405 0.0
H668 H 0.87101 0.67718 0.35382 0.0
H669 H 0.90425 0.56376 0.31208 0.0
H670 H 0.9241 0.62601 0.3609 0.0
H671 H 0.85491 0.61675 0.30143 0.0
C672 C 0.84251 0.64769 0.30959 0.0
C673 C 0.84689 0.66522 0.32401 0.0
C674 C 0.91963 0.61233 0.35027 0.0
C675 C 0.87889 0.62974 0.33088 0.0
C676 C 0.93719 0.59538 0.35217 0.0
C677 C 0.93232 0.57759 0.33826 0.0
C678 C 0.89706 0.61157 0.33426 0.0
C679 C 0.90914 0.57727 0.32286 0.0
C680 C 0.85838 0.62996 0.31299 0.0
C681 C 0.86724 0.66421 0.34199 0.0
N682 N 0.89246 0.59404 0.3212 0.0
N683 N 0.88253 0.64681 0.34485 0.0
H684 H 0.81954 0.38133 0.69406 0.0
H685 H 0.97144 0.44197 0.70824 0.0
H686 H 0.89137 0.35346 0.72688 0.0
H687 H 0.89872 0.4719 0.68016 0.0
H688 H 0.94297 0.40866 0.7128 0.0
H689 H 0.84851 0.41412 0.68681 0.0
C690 C 0.84136 0.38212 0.69981 0.0
C691 C 0.85302 0.3646 0.71112 0.0
C692 C 0.93319 0.42244 0.70551 0.0
C693 C 0.88637 0.40199 0.70264 0.0
C694 C 0.94945 0.44135 0.70287 0.0
C695 C 0.93726 0.45944 0.69373 0.0
C696 C 0.9045 0.42169 0.69904 0.0
C697 C 0.90875 0.45812 0.68713 0.0
C698 C 0.85793 0.4008 0.69554 0.0
C699 C 0.88157 0.36644 0.71782 0.0
N700 N 0.89323 0.43951 0.68996 0.0
N701 N 0.89721 0.38479 0.71352 0.0
H702 H 0.27734 0.14306 0.35014 0.0
H703 H 0.21842 0.08751 0.47486 0.0
H704 H 0.22922 0.17502 0.40406 0.0
H705 H 0.25132 0.05331 0.4152 0.0
H706 H 0.22342 0.12009 0.44973 0.0
H707 H 0.26992 0.1103 0.37442 0.0
C708 C 0.26532 0.14319 0.36715 0.0
C709 C 0.25394 0.16178 0.37514 0.0
C710 C 0.22945 0.10547 0.44206 0.0
C711 C 0.2452 0.12436 0.40293 0.0
C712 C 0.22657 0.08697 0.45637 0.0
C713 C 0.23469 0.06795 0.44697 0.0
C714 C 0.24069 0.10487 0.41827 0.0
C715 C 0.24507 0.06782 0.423 0.0
C716 C 0.26091 0.12446 0.38091 0.0
C717 C 0.23817 0.161 0.39715 0.0
N718 N 0.24798 0.08607 0.40947 0.0
N719 N 0.23438 0.14261 0.41033 0.0
H720 H 0.34968 0.80519 0.82078 0.0
H721 H 0.43912 0.7402 0.91414 0.0
H722 H 0.34537 0.73718 0.82588 0.0
H723 H 0.41484 0.80358 0.92683 0.0
H724 H 0.40971 0.73969 0.87868 0.0
H725 H 0.37858 0.80579 0.85665 0.0
C726 C 0.35461 0.79037 0.82945 0.0
C727 C 0.3449 0.77109 0.82019 0.0
C728 C 0.4108 0.75367 0.8893 0.0
C729 C 0.37859 0.77176 0.86099 0.0
C730 C 0.42745 0.75396 0.90968 0.0
C731 C 0.42944 0.77193 0.92374 0.0
C732 C 0.39629 0.77156 0.88261 0.0
C733 C 0.41437 0.78947 0.91647 0.0
C734 C 0.37124 0.79076 0.84987 0.0
C735 C 0.35268 0.75244 0.83199 0.0
N736 N 0.39851 0.78886 0.89637 0.0
N737 N 0.36912 0.75324 0.85171 0.0
H738 H 0.75629 0.83401 0.40864 0.0
H739 H 0.83144 0.94768 0.42825 0.0
H740 H 0.82057 0.86357 0.35941 0.0
H741 H 0.76615 0.91804 0.47645 0.0
H742 H 0.82954 0.9164 0.40374 0.0
H743 H 0.7613 0.86407 0.43464 0.0
C744 C 0.77164 0.84675 0.40339 0.0
C745 C 0.78801 0.84626 0.38179 0.0
C746 C 0.81567 0.91673 0.41971 0.0
C747 C 0.79364 0.88092 0.41136 0.0
C748 C 0.81686 0.93454 0.43377 0.0
C749 C 0.79879 0.93553 0.45434 0.0
C750 C 0.79633 0.89978 0.42629 0.0
C751 C 0.78012 0.91811 0.46051 0.0
C752 C 0.77437 0.86399 0.41818 0.0
C753 C 0.80724 0.8634 0.37573 0.0
N754 N 0.77934 0.90099 0.44653 0.0
N755 N 0.8095 0.88004 0.39042 0.0
H756 H 0.71427 0.24718 0.86959 0.0
H757 H 0.55812 0.25789 0.9288 0.0
H758 H 0.64157 0.26395 0.82878 0.0
H759 H 0.62956 0.23839 0.96918 0.0
H760 H 0.58832 0.25984 0.89175 0.0
H761 H 0.68372 0.24371 0.90621 0.0
C762 C 0.6919 0.25021 0.86835 0.0
C763 C 0.68048 0.25592 0.84608 0.0
C764 C 0.59744 0.25503 0.90865 0.0
C765 C 0.64531 0.25181 0.88792 0.0
C766 C 0.58022 0.25392 0.92969 0.0
C767 C 0.59155 0.24789 0.95177 0.0
C768 C 0.62622 0.25019 0.90983 0.0
C769 C 0.62021 0.24299 0.95231 0.0
C770 C 0.67443 0.2481 0.88924 0.0
C771 C 0.65123 0.25931 0.8455 0.0
N772 N 0.63664 0.24429 0.9316 0.0
N773 N 0.63469 0.25727 0.86611 0.0
H774 H 0.20541 0.87365 0.66902 0.0
H775 H 0.24121 0.93326 0.5412 0.0
H776 H 0.25965 0.84938 0.61321 0.0
H777 H 0.20537 0.96369 0.60258 0.0
H778 H 0.24281 0.90062 0.56584 0.0
H779 H 0.2003 0.90526 0.64357 0.0
C780 C 0.21635 0.87496 0.65148 0.0
C781 C 0.2331 0.8588 0.64333 0.0
C782 C 0.23444 0.91437 0.57392 0.0
C783 C 0.22689 0.89483 0.61395 0.0
C784 C 0.23345 0.93289 0.55987 0.0
C785 C 0.223 0.95094 0.56999 0.0
C786 C 0.22485 0.91396 0.59825 0.0
C787 C 0.21333 0.94993 0.59421 0.0
C788 C 0.21327 0.89298 0.63691 0.0
C789 C 0.24622 0.86125 0.62017 0.0
N790 N 0.21448 0.9317 0.60758 0.0
N791 N 0.24285 0.87891 0.60633 0.0
H792 H 0.66403 0.79646 0.20893 0.0
H793 H 0.62058 0.74569 0.08437 0.0
H794 H 0.69349 0.73717 0.18538 0.0
H795 H 0.57559 0.79575 0.11666 0.0
H796 H 0.65063 0.74431 0.11945 0.0
H797 H 0.63477 0.79856 0.17322 0.0
C798 C 0.66441 0.78393 0.19618 0.0
C799 C 0.68115 0.76659 0.20012 0.0
C800 C 0.63417 0.75559 0.11884 0.0
C801 C 0.64777 0.76887 0.15931 0.0
C802 C 0.61689 0.75634 0.09885 0.0
C803 C 0.59535 0.7708 0.09753 0.0
C804 C 0.63009 0.7695 0.13764 0.0
C805 C 0.5921 0.78452 0.11668 0.0
C806 C 0.64761 0.78508 0.17589 0.0
C807 C 0.68065 0.75069 0.18316 0.0
N808 N 0.60927 0.78352 0.13593 0.0
N809 N 0.6643 0.75225 0.16345 0.0
H810 H 0.74856 0.18763 0.63834 0.0
H811 H 0.82876 0.08278 0.61048 0.0
H812 H 0.82039 0.1675 0.67811 0.0
H813 H 0.76319 0.10723 0.56623 0.0
H814 H 0.82606 0.11349 0.63565 0.0
H815 H 0.75311 0.15775 0.61223 0.0
C816 C 0.76522 0.17686 0.64163 0.0
C817 C 0.78407 0.18002 0.66047 0.0
C818 C 0.81232 0.11214 0.6204 0.0
C819 C 0.78957 0.14584 0.63053 0.0
C820 C 0.81395 0.09466 0.60593 0.0
C821 C 0.79606 0.09234 0.58627 0.0
C822 C 0.79262 0.12739 0.61519 0.0
C823 C 0.77703 0.10814 0.58145 0.0
C824 C 0.76794 0.15987 0.62663 0.0
C825 C 0.80556 0.16575 0.66366 0.0
N826 N 0.77576 0.12493 0.59584 0.0
N827 N 0.80767 0.14923 0.6489 0.0
H828 H 0.3232 0.24475 0.16781 0.0
H829 H 0.48032 0.25919 0.10688 0.0
H830 H 0.39802 0.26316 0.20677 0.0
H831 H 0.40619 0.23992 0.06786 0.0
H832 H 0.45034 0.26086 0.14377 0.0
H833 H 0.35293 0.24325 0.13093 0.0
C834 C 0.34585 0.24861 0.16858 0.0
C835 C 0.35813 0.25409 0.19043 0.0
C836 C 0.44056 0.25621 0.12719 0.0
C837 C 0.39234 0.25219 0.14832 0.0
C838 C 0.45765 0.25526 0.10624 0.0
C839 C 0.44552 0.2493 0.0846 0.0
C840 C 0.41112 0.25124 0.12638 0.0
C841 C 0.41616 0.24445 0.08439 0.0
C842 C 0.36284 0.24762 0.14754 0.0
C843 C 0.38768 0.2586 0.19042 0.0
N844 N 0.39988 0.24552 0.10502 0.0
N845 N 0.40375 0.25756 0.1697 0.0
H846 H 0.81434 0.66314 0.67978 0.0
H847 H 0.96161 0.61387 0.71423 0.0
H848 H 0.87514 0.69187 0.72705 0.0
H849 H 0.90083 0.58324 0.66842 0.0
H850 H 0.93118 0.64361 0.71692 0.0
H851 H 0.84669 0.63477 0.67317 0.0
C852 C 0.83456 0.66355 0.68865 0.0
C853 C 0.84197 0.67982 0.70413 0.0
C854 C 0.92448 0.63044 0.7062 0.0
C855 C 0.87896 0.64741 0.69675 0.0
C856 C 0.94181 0.61341 0.70473 0.0
C857 C 0.93358 0.59595 0.6913 0.0
C858 C 0.89861 0.63006 0.69419 0.0
C859 C 0.90801 0.59642 0.67892 0.0
C860 C 0.85295 0.64731 0.68494 0.0
C861 C 0.86832 0.67946 0.71531 0.0
N862 N 0.89129 0.61315 0.68081 0.0
N863 N 0.88579 0.66351 0.71143 0.0
H864 H 0.8349 0.37407 0.30511 0.0
H865 H 0.9756 0.42599 0.35948 0.0
H866 H 0.88334 0.34214 0.35868 0.0
H867 H 0.9133 0.46239 0.32402 0.0
H868 H 0.94317 0.39459 0.35817 0.0
H869 H 0.86456 0.40625 0.31022 0.0
C870 C 0.85179 0.37388 0.31797 0.0
C871 C 0.85679 0.35544 0.33143 0.0
C872 C 0.93649 0.40946 0.35082 0.0
C873 C 0.89079 0.3921 0.33734 0.0
C874 C 0.95495 0.42729 0.35157 0.0
C875 C 0.94697 0.44659 0.34173 0.0
C876 C 0.91008 0.41098 0.33988 0.0
C877 C 0.92013 0.44766 0.33164 0.0
C878 C 0.86858 0.39225 0.32098 0.0
C879 C 0.8787 0.35607 0.34805 0.0
N880 N 0.90268 0.43002 0.33076 0.0
N881 N 0.89509 0.37407 0.35039 0.0
H882 H 0.19805 0.36646 0.67148 0.0
H883 H 0.1021 0.44762 0.73455 0.0
H884 H 0.15867 0.35336 0.74249 0.0
H885 H 0.09149 0.43493 0.65901 0.0
H886 H 0.13272 0.41804 0.73781 0.0
H887 H 0.16794 0.39644 0.66649 0.0
C888 C 0.18311 0.36969 0.686 0.0
C889 C 0.18114 0.35719 0.70753 0.0
C890 C 0.12365 0.42184 0.72055 0.0
C891 C 0.14755 0.39198 0.70209 0.0
C892 C 0.10594 0.43862 0.71864 0.0
C893 C 0.09354 0.44369 0.69654 0.0
C894 C 0.12973 0.41029 0.70013 0.0
C895 C 0.10058 0.43183 0.67639 0.0
C896 C 0.1661 0.38691 0.68311 0.0
C897 C 0.1617 0.36268 0.72582 0.0
N898 N 0.11829 0.41568 0.67865 0.0
N899 N 0.14589 0.37975 0.72275 0.0
H900 H 0.15649 0.67114 0.3509 0.0
H901 H 0.12805 0.5495 0.32293 0.0
H902 H 0.20377 0.63965 0.29607 0.0
H903 H 0.06501 0.58657 0.35693 0.0
H904 H 0.16087 0.58083 0.31925 0.0
H905 H 0.12737 0.63853 0.35956 0.0
C906 C 0.16089 0.65729 0.34086 0.0
C907 C 0.18242 0.65806 0.32266 0.0
C908 C 0.13993 0.58208 0.32766 0.0
C909 C 0.14936 0.62084 0.33247 0.0
C910 C 0.12135 0.56426 0.3298 0.0
C911 C 0.09391 0.56569 0.34003 0.0
C912 C 0.13104 0.60132 0.33611 0.0
C913 C 0.08605 0.585 0.34886 0.0
C914 C 0.14421 0.63876 0.34571 0.0
C915 C 0.18714 0.63974 0.31005 0.0
N916 N 0.10453 0.60214 0.34664 0.0
N917 N 0.17074 0.62185 0.3152 0.0
H918 H 0.75059 0.84911 0.61981 0.0
H919 H 0.81151 0.96871 0.61281 0.0
H920 H 0.8026 0.87637 0.6748 0.0
H921 H 0.77762 0.93694 0.5517 0.0
H922 H 0.80684 0.93537 0.63662 0.0
H923 H 0.75879 0.88148 0.59509 0.0
C924 C 0.76394 0.86181 0.62663 0.0
C925 C 0.77584 0.85998 0.6495 0.0
C926 C 0.80063 0.93564 0.61795 0.0
C927 C 0.7849 0.89726 0.62141 0.0
C928 C 0.80335 0.95459 0.60444 0.0
C929 C 0.79516 0.95531 0.58036 0.0
C930 C 0.78924 0.91744 0.60732 0.0
C931 C 0.78427 0.93682 0.57026 0.0
C932 C 0.76849 0.88034 0.61253 0.0
C933 C 0.79254 0.87716 0.6575 0.0
N934 N 0.7815 0.91861 0.58382 0.0
N935 N 0.79647 0.8951 0.64353 0.0
H936 H 0.69995 0.28356 0.19399 0.0
H937 H 0.58033 0.21847 0.12402 0.0
H938 H 0.66776 0.2211 0.21721 0.0
H939 H 0.62422 0.27562 0.09523 0.0
H940 H 0.61085 0.21946 0.15896 0.0
H941 H 0.67077 0.2814 0.15849 0.0
C942 C 0.6869 0.26931 0.19156 0.0
C943 C 0.68645 0.25245 0.20862 0.0
C944 C 0.61382 0.23174 0.14495 0.0
C945 C 0.65255 0.25001 0.16806 0.0
C946 C 0.59651 0.23113 0.12492 0.0
C947 C 0.5996 0.24704 0.10667 0.0
C948 C 0.63429 0.24842 0.1468 0.0
C949 C 0.62068 0.26322 0.10903 0.0
C950 C 0.67012 0.26813 0.17131 0.0
C951 C 0.66858 0.23459 0.20471 0.0
N952 N 0.63713 0.26352 0.12874 0.0
N953 N 0.65233 0.23384 0.18485 0.0
H954 H 0.27632 0.18778 0.62323 0.0
H955 H 0.19228 0.07828 0.59904 0.0
H956 H 0.20518 0.16234 0.66818 0.0
H957 H 0.26335 0.1047 0.5547 0.0
H958 H 0.19485 0.10961 0.62353 0.0
H959 H 0.27049 0.15791 0.59709 0.0
C960 C 0.25951 0.17585 0.62764 0.0
C961 C 0.24134 0.17747 0.64802 0.0
C962 C 0.20982 0.10855 0.60839 0.0
C963 C 0.23434 0.14326 0.61801 0.0
C964 C 0.20826 0.09073 0.59434 0.0
C965 C 0.22779 0.08879 0.57493 0.0
C966 C 0.23101 0.12455 0.60293 0.0
C967 C 0.24822 0.10534 0.56978 0.0
C968 C 0.25608 0.15885 0.61263 0.0
C969 C 0.21955 0.16177 0.65257 0.0
N970 N 0.24934 0.12246 0.58372 0.0
N971 N 0.21674 0.14525 0.63774 0.0
H972 H 0.32885 0.74094 0.16742 0.0
H973 H 0.46864 0.79114 0.10051 0.0
H974 H 0.37308 0.79613 0.19382 0.0
H975 H 0.40157 0.75999 0.06172 0.0
H976 H 0.43677 0.79064 0.13663 0.0
H977 H 0.35845 0.7446 0.13007 0.0
C978 C 0.34485 0.7538 0.1653 0.0
C979 C 0.34866 0.76825 0.18361 0.0
C980 C 0.429 0.78405 0.12016 0.0
C981 C 0.38257 0.77242 0.14125 0.0
C982 C 0.4471 0.78433 0.09965 0.0
C983 C 0.43762 0.77542 0.07836 0.0
C984 C 0.40149 0.77445 0.11937 0.0
C985 C 0.40961 0.7668 0.07797 0.0
C986 C 0.36155 0.75596 0.14399 0.0
C987 C 0.36948 0.78474 0.18001 0.0
N988 N 0.3926 0.76625 0.09831 0.0
N989 N 0.38592 0.78628 0.1593 0.0
H990 H 0.75861 0.17522 0.41654 0.0
H991 H 0.81831 0.0602 0.42616 0.0
H992 H 0.81979 0.15314 0.3648 0.0
H993 H 0.77946 0.09006 0.48664 0.0
H994 H 0.81616 0.0931 0.4019 0.0
H995 H 0.76275 0.14291 0.44117 0.0
C996 C 0.77288 0.16353 0.41038 0.0
C997 C 0.78888 0.1668 0.38863 0.0
C998 C 0.80828 0.0925 0.42053 0.0
C999 C 0.79369 0.12987 0.41661 0.0
C1000 C 0.80955 0.07381 0.43429 0.0
C1001 C 0.7993 0.07269 0.45835 0.0
C1002 C 0.79622 0.10999 0.43087 0.0
C1003 C 0.78769 0.09049 0.46812 0.0
C1004 C 0.77535 0.14518 0.42448 0.0
C1005 C 0.80727 0.15127 0.38156 0.0
N1006 N 0.78634 0.10843 0.4543 0.0
N1007 N 0.80904 0.1334 0.39545 0.0
H1008 H 0.32049 0.24168 0.85069 0.0
H1009 H 0.47182 0.26948 0.90638 0.0
H1010 H 0.39287 0.26836 0.80818 0.0
H1011 H 0.40631 0.22959 0.94365 0.0
H1012 H 0.44235 0.27084 0.87082 0.0
H1013 H 0.35073 0.23869 0.88566 0.0
C1014 C 0.34275 0.24694 0.84876 0.0
C1015 C 0.3542 0.25534 0.82656 0.0
C1016 C 0.43446 0.26172 0.88673 0.0
C1017 C 0.38891 0.25194 0.86642 0.0
C1018 C 0.45118 0.26104 0.90706 0.0
C1019 C 0.44141 0.24947 0.92799 0.0
C1020 C 0.40762 0.25092 0.8874 0.0
C1021 C 0.4147 0.23858 0.92781 0.0
C1022 C 0.36003 0.24512 0.86866 0.0
C1023 C 0.38326 0.26166 0.82493 0.0
N1024 N 0.39863 0.23969 0.90788 0.0
N1025 N 0.39958 0.25995 0.84465 0.0
H1026 H 0.27498 0.83405 0.39565 0.0
H1027 H 0.19928 0.9419 0.41809 0.0
H1028 H 0.21145 0.85837 0.34915 0.0
H1029 H 0.26289 0.91701 0.46408 0.0
H1030 H 0.20209 0.91093 0.39329 0.0
H1031 H 0.2696 0.8639 0.42159 0.0
C1032 C 0.25973 0.8456 0.39099 0.0
C1033 C 0.24364 0.84369 0.37019 0.0
C1034 C 0.2154 0.91224 0.40883 0.0
C1035 C 0.2376 0.87811 0.39969 0.0
C1036 C 0.21369 0.92986 0.42306 0.0
C1037 C 0.23101 0.9321 0.4431 0.0
C1038 C 0.23451 0.89674 0.41472 0.0
C1039 C 0.24951 0.91611 0.44855 0.0
C1040 C 0.25679 0.86272 0.40574 0.0
C1041 C 0.22456 0.85934 0.36484 0.0
N1042 N 0.2508 0.89915 0.43443 0.0
N1043 N 0.22208 0.8759 0.37949 0.0
H1044 H 0.64126 0.79539 0.82301 0.0
H1045 H 0.61627 0.75405 0.95986 0.0
H1046 H 0.68268 0.74164 0.8521 0.0
H1047 H 0.55286 0.78681 0.9212 0.0
H1048 H 0.64523 0.7532 0.92217 0.0
H1049 H 0.61264 0.79638 0.86074 0.0
C1050 C 0.64432 0.78384 0.8374 0.0
C1051 C 0.66424 0.76839 0.83452 0.0
C1052 C 0.62495 0.76052 0.92195 0.0
C1053 C 0.63193 0.76954 0.87761 0.0
C1054 C 0.60854 0.76102 0.94336 0.0
C1055 C 0.58216 0.77029 0.94337 0.0
C1056 C 0.61511 0.76979 0.90061 0.0
C1057 C 0.57308 0.77943 0.92175 0.0
C1058 C 0.62795 0.78435 0.85881 0.0
C1059 C 0.66734 0.75369 0.8536 0.0
N1060 N 0.58959 0.77902 0.90119 0.0
N1061 N 0.65147 0.75471 0.87444 0.0
loop_
_geom_bond_atom_site_label_1
_geom_bond_atom_site_label_2
_geom_bond_distance
_geom_bond_site_symmetry_2
_ccdc_geom_bond_type
C0 C1 1.386 . S
C0 C2 1.397 . S
C0 H24 0.931 . S
C1 C0 1.386 . S
C1 C5 1.397 . S
C2 C0 1.397 . S
C2 C3 1.384 . S
C2 H25 0.930 . S
C3 C2 1.384 . S
C3 C4 1.377 . S
C3 C6 1.481 . S
C4 C3 1.377 . S
C4 C5 1.389 . S
C4 H26 0.929 . S
C5 C1 1.397 . S
C5 C4 1.389 . S
C5 H27 0.931 . S
C6 C3 1.481 . S
C6 C7 1.387 . S
C6 C11 1.390 . S
C7 C6 1.387 . S
C7 C8 1.401 . S
C7 H28 0.930 . S
C8 C7 1.401 . S
C8 C9 1.376 . S
C8 C17 1.511 . S
C9 C8 1.376 . S
C9 C10 1.392 . S
C9 H30 0.931 . S
C10 C9 1.392 . S
C10 C11 1.361 . S
C10 C12 1.500 . S
C11 C6 1.390 . S
C11 C10 1.361 . S
C11 H29 0.931 . S
C12 C10 1.500 . S
C12 C13 1.371 . S
C12 C14 1.365 . S
C13 C12 1.371 . S
C13 C23 1.386 . S
C13 H31 0.931 . S
C14 C12 1.365 . S
C14 C15 1.409 . S
C14 H32 0.929 . S
C15 C14 1.409 . S
C15 C16 1.380 . S
C15 H33 0.930 . S
C16 C15 1.380 . S
C16 C23 1.357 . S
C17 C8 1.511 . S
C17 C18 1.341 . S
C17 C19 1.371 . S
C18 C17 1.341 . S
C18 C22 1.394 . S
C18 H34 0.930 . S
C19 C17 1.371 . S
C19 C20 1.392 . S
C19 H35 0.931 . S
C20 C19 1.392 . S
C20 C21 1.331 . S
C20 H38 0.932 . S
C21 C20 1.331 . S
C21 C22 1.336 . S
C22 C18 1.394 . S
C22 C21 1.336 . S
C22 H37 0.929 . S
C23 C13 1.386 . S
C23 C16 1.357 . S
C23 H36 0.928 . S
H24 C0 0.931 . S
H25 C2 0.930 . S
H26 C4 0.929 . S
H27 C5 0.931 . S
H28 C7 0.930 . S
H29 C11 0.931 . S
H30 C9 0.931 . S
H31 C13 0.931 . S
H32 C14 0.929 . S
H33 C15 0.930 . S
H34 C18 0.930 . S
H35 C19 0.931 . S
H36 C23 0.928 . S
H37 C22 0.929 . S
H38 C20 0.932 . S
C39 C40 1.386 . S
C39 C41 1.397 . S
C39 H63 0.931 . S
C40 C39 1.386 . S
C40 C44 1.397 . S
C41 C39 1.397 . S
C41 C42 1.384 . S
C41 H64 0.930 . S
C42 C41 1.384 . S
C42 C43 1.377 . S
C42 C45 1.481 . S
C43 C42 1.377 . S
C43 C44 1.389 . S
C43 H65 0.929 . S
C44 C40 1.397 . S
C44 C43 1.389 . S
C44 H66 0.931 . S
C45 C42 1.481 . S
C45 C46 1.387 . S
C45 C50 1.390 . S
C46 C45 1.387 . S
C46 C47 1.401 . S
C46 H67 0.930 . S
C47 C46 1.401 . S
C47 C48 1.376 . S
C47 C56 1.511 . S
C48 C47 1.376 . S
C48 C49 1.392 . S
C48 H69 0.931 . S
C49 C48 1.392 . S
C49 C50 1.361 . S
C49 C51 1.500 . S
C50 C45 1.390 . S
C50 C49 1.361 . S
C50 H68 0.931 . S
C51 C49 1.500 . S
C51 C52 1.371 . S
C51 C53 1.365 . S
C52 C51 1.371 . S
C52 C62 1.386 . S
C52 H70 0.931 . S
C53 C51 1.365 . S
C53 C54 1.409 . S
C53 H71 0.929 . S
C54 C53 1.409 . S
C54 C55 1.380 . S
C54 H72 0.930 . S
C55 C54 1.380 . S
C55 C62 1.357 . S
C56 C47 1.511 . S
C56 C57 1.341 . S
C56 C58 1.371 . S
C57 C56 1.341 . S
C57 C61 1.394 . S
C57 H73 0.930 . S
C58 C56 1.371 . S
C58 C59 1.392 . S
C58 H74 0.931 . S
C59 C58 1.392 . S
C59 C60 1.331 . S
C59 H77 0.932 . S
C60 C59 1.331 . S
C60 C61 1.336 . S
C61 C57 1.394 . S
C61 C60 1.336 . S
C61 H76 0.929 . S
C62 C52 1.386 . S
C62 C55 1.357 . S
C62 H75 0.928 . S
H63 C39 0.931 . S
H64 C41 0.930 . S
H65 C43 0.929 . S
H66 C44 0.931 . S
H67 C46 0.930 . S
H68 C50 0.931 . S
H69 C48 0.931 . S
H70 C52 0.931 . S
H71 C53 0.929 . S
H72 C54 0.930 . S
H73 C57 0.930 . S
H74 C58 0.931 . S
H75 C62 0.928 . S
H76 C61 0.929 . S
H77 C59 0.932 . S
C78 C79 1.386 . S
C78 C80 1.397 . S
C78 H102 0.931 . S
C79 C78 1.386 . S
C79 C83 1.397 . S
C80 C78 1.397 . S
C80 C81 1.384 . S
C80 H103 0.930 . S
C81 C80 1.384 . S
C81 C82 1.377 . S
C81 C84 1.481 . S
C82 C81 1.377 . S
C82 C83 1.389 . S
C82 H104 0.929 . S
C83 C79 1.397 . S
C83 C82 1.389 . S
C83 H105 0.931 . S
C84 C81 1.481 . S
C84 C85 1.387 . S
C84 C89 1.390 . S
C85 C84 1.387 . S
C85 C86 1.401 . S
C85 H106 0.930 . S
C86 C85 1.401 . S
C86 C87 1.376 . S
C86 C95 1.511 . S
C87 C86 1.376 . S
C87 C88 1.392 . S
C87 H108 0.931 . S
C88 C87 1.392 . S
C88 C89 1.361 . S
C88 C90 1.500 . S
C89 C84 1.390 . S
C89 C88 1.361 . S
C89 H107 0.931 . S
C90 C88 1.500 . S
C90 C91 1.371 . S
C90 C92 1.365 . S
C91 C90 1.371 . S
C91 C101 1.386 . S
C91 H109 0.931 . S
C92 C90 1.365 . S
C92 C93 1.409 . S
C92 H110 0.929 . S
C93 C92 1.409 . S
C93 C94 1.380 . S
C93 H111 0.930 . S
C94 C93 1.380 . S
C94 C101 1.357 . S
C95 C86 1.511 . S
C95 C96 1.341 . S
C95 C97 1.371 . S
C96 C95 1.341 . S
C96 C100 1.394 . S
C96 H112 0.930 . S
C97 C95 1.371 . S
C97 C98 1.392 . S
C97 H113 0.931 . S
C98 C97 1.392 . S
C98 C99 1.331 . S
C98 H116 0.932 . S
C99 C98 1.331 . S
C99 C100 1.336 . S
C100 C96 1.394 . S
C100 C99 1.336 . S
C100 H115 0.929 . S
C101 C91 1.386 . S
C101 C94 1.357 . S
C101 H114 0.928 . S
H102 C78 0.931 . S
H103 C80 0.930 . S
H104 C82 0.929 . S
H105 C83 0.931 . S
H106 C85 0.930 . S
H107 C89 0.931 . S
H108 C87 0.931 . S
H109 C91 0.931 . S
H110 C92 0.929 . S
H111 C93 0.930 . S
H112 C96 0.930 . S
H113 C97 0.931 . S
H114 C101 0.928 . S
H115 C100 0.929 . S
H116 C98 0.932 . S
C117 C118 1.386 . S
C117 C119 1.397 . S
C117 H141 0.931 . S
C118 C117 1.386 . S
C118 C122 1.397 . S
C119 C117 1.397 . S
C119 C120 1.384 . S
C119 H142 0.930 . S
C120 C119 1.384 . S
C120 C121 1.377 . S
C120 C123 1.481 . S
C121 C120 1.377 . S
C121 C122 1.389 . S
C121 H143 0.929 . S
C122 C118 1.397 . S
C122 C121 1.389 . S
C122 H144 0.931 . S
C123 C120 1.481 . S
C123 C124 1.387 . S
C123 C128 1.390 . S
C124 C123 1.387 . S
C124 C125 1.401 . S
C124 H145 0.930 . S
C125 C124 1.401 . S
C125 C126 1.376 . S
C125 C134 1.511 . S
C126 C125 1.376 . S
C126 C127 1.392 . S
C126 H147 0.931 . S
C127 C126 1.392 . S
C127 C128 1.361 . S
C127 C129 1.500 . S
C128 C123 1.390 . S
C128 C127 1.361 . S
C128 H146 0.931 . S
C129 C127 1.500 . S
C129 C130 1.371 . S
C129 C131 1.365 . S
C130 C129 1.371 . S
C130 C140 1.386 . S
C130 H148 0.931 . S
C131 C129 1.365 . S
C131 C132 1.409 . S
C131 H149 0.929 . S
C132 C131 1.409 . S
C132 C133 1.380 . S
C132 H150 0.930 . S
C133 C132 1.380 . S
C133 C140 1.357 . S
C134 C125 1.511 . S
C134 C135 1.341 . S
C134 C136 1.371 . S
C135 C134 1.341 . S
C135 C139 1.394 . S
C135 H151 0.930 . S
C136 C134 1.371 . S
C136 C137 1.392 . S
C136 H152 0.931 . S
C137 C136 1.392 . S
C137 C138 1.331 . S
C137 H155 0.932 . S
C138 C137 1.331 . S
C138 C139 1.336 . S
C139 C135 1.394 . S
C139 C138 1.336 . S
C139 H154 0.929 . S
C140 C130 1.386 . S
C140 C133 1.357 . S
C140 H153 0.928 . S
H141 C117 0.931 . S
H142 C119 0.930 . S
H143 C121 0.929 . S
H144 C122 0.931 . S
H145 C124 0.930 . S
H146 C128 0.931 . S
H147 C126 0.931 . S
H148 C130 0.931 . S
H149 C131 0.929 . S
H150 C132 0.930 . S
H151 C135 0.930 . S
H152 C136 0.931 . S
H153 C140 0.928 . S
H154 C139 0.929 . S
H155 C137 0.932 . S
C156 C157 1.386 . S
C156 C158 1.397 . S
C156 H180 0.931 . S
C157 C156 1.386 . S
C157 C161 1.397 . S
C158 C156 1.397 . S
C158 C159 1.384 . S
C158 H181 0.930 . S
C159 C158 1.384 . S
C159 C160 1.377 . S
C159 C162 1.481 . S
C160 C159 1.377 . S
C160 C161 1.389 . S
C160 H182 0.929 . S
C161 C157 1.397 . S
C161 C160 1.389 . S
C161 H183 0.931 . S
C162 C159 1.481 . S
C162 C163 1.387 . S
C162 C167 1.390 . S
C163 C162 1.387 . S
C163 C164 1.401 . S
C163 H184 0.930 . S
C164 C163 1.401 . S
C164 C165 1.376 . S
C164 C173 1.511 . S
C165 C164 1.376 . S
C165 C166 1.392 . S
C165 H186 0.931 . S
C166 C165 1.392 . S
C166 C167 1.361 . S
C166 C168 1.500 . S
C167 C162 1.390 . S
C167 C166 1.361 . S
C167 H185 0.931 . S
C168 C166 1.500 . S
C168 C169 1.371 . S
C168 C170 1.365 . S
C169 C168 1.371 . S
C169 C179 1.386 . S
C169 H187 0.931 . S
C170 C168 1.365 . S
C170 C171 1.409 . S
C170 H188 0.929 . S
C171 C170 1.409 . S
C171 C172 1.380 . S
C171 H189 0.930 . S
C172 C171 1.380 . S
C172 C179 1.357 . S
C173 C164 1.511 . S
C173 C174 1.341 . S
C173 C175 1.371 . S
C174 C173 1.341 . S
C174 C178 1.394 . S
C174 H190 0.930 . S
C175 C173 1.371 . S
C175 C176 1.392 . S
C175 H191 0.931 . S
C176 C175 1.392 . S
C176 C177 1.331 . S
C176 H194 0.932 . S
C177 C176 1.331 . S
C177 C178 1.336 . S
C178 C174 1.394 . S
C178 C177 1.336 . S
C178 H193 0.929 . S
C179 C169 1.386 . S
C179 C172 1.357 . S
C179 H192 0.928 . S
H180 C156 0.931 . S
H181 C158 0.930 . S
H182 C160 0.929 . S
H183 C161 0.931 . S
H184 C163 0.930 . S
H185 C167 0.931 . S
H186 C165 0.931 . S
H187 C169 0.931 . S
H188 C170 0.929 . S
H189 C171 0.930 . S
H190 C174 0.930 . S
H191 C175 0.931 . S
H192 C179 0.928 . S
H193 C178 0.929 . S
H194 C176 0.932 . S
C195 C196 1.386 . S
C195 C197 1.397 . S
C195 H219 0.931 . S
C196 C195 1.386 . S
C196 C200 1.397 . S
C197 C195 1.397 . S
C197 C198 1.384 . S
C197 H220 0.930 . S
C198 C197 1.384 . S
C198 C199 1.377 . S
C198 C201 1.481 . S
C199 C198 1.377 . S
C199 C200 1.389 . S
C199 H221 0.929 . S
C200 C196 1.397 . S
C200 C199 1.389 . S
C200 H222 0.931 . S
C201 C198 1.481 . S
C201 C202 1.387 . S
C201 C206 1.390 . S
C202 C201 1.387 . S
C202 C203 1.401 . S
C202 H223 0.930 . S
C203 C202 1.401 . S
C203 C204 1.376 . S
C203 C212 1.511 . S
C204 C203 1.376 . S
C204 C205 1.392 . S
C204 H225 0.931 . S
C205 C204 1.392 . S
C205 C206 1.361 . S
C205 C207 1.500 . S
C206 C201 1.390 . S
C206 C205 1.361 . S
C206 H224 0.931 . S
C207 C205 1.500 . S
C207 C208 1.371 . S
C207 C209 1.365 . S
C208 C207 1.371 . S
C208 C218 1.386 . S
C208 H226 0.931 . S
C209 C207 1.365 . S
C209 C210 1.409 . S
C209 H227 0.929 . S
C210 C209 1.409 . S
C210 C211 1.380 . S
C210 H228 0.930 . S
C211 C210 1.380 . S
C211 C218 1.357 . S
C212 C203 1.511 . S
C212 C213 1.341 . S
C212 C214 1.371 . S
C213 C212 1.341 . S
C213 C217 1.394 . S
C213 H229 0.930 . S
C214 C212 1.371 . S
C214 C215 1.392 . S
C214 H230 0.931 . S
C215 C214 1.392 . S
C215 C216 1.331 . S
C215 H233 0.932 . S
C216 C215 1.331 . S
C216 C217 1.336 . S
C217 C213 1.394 . S
C217 C216 1.336 . S
C217 H232 0.929 . S
C218 C208 1.386 . S
C218 C211 1.357 . S
C218 H231 0.928 . S
H219 C195 0.931 . S
H220 C197 0.930 . S
H221 C199 0.929 . S
H222 C200 0.931 . S
H223 C202 0.930 . S
H224 C206 0.931 . S
H225 C204 0.931 . S
H226 C208 0.931 . S
H227 C209 0.929 . S
H228 C210 0.930 . S
H229 C213 0.930 . S
H230 C214 0.931 . S
H231 C218 0.928 . S
H232 C217 0.929 . S
H233 C215 0.932 . S
C234 C235 1.386 . S
C234 C236 1.397 . S
C234 H258 0.931 . S
C235 C234 1.386 . S
C235 C239 1.397 . S
C236 C234 1.397 . S
C236 C237 1.384 . S
C236 H259 0.930 . S
C237 C236 1.384 . S
C237 C238 1.377 . S
C237 C240 1.481 . S
C238 C237 1.377 . S
C238 C239 1.389 . S
C238 H260 0.929 . S
C239 C235 1.397 . S
C239 C238 1.389 . S
C239 H261 0.931 . S
C240 C237 1.481 . S
C240 C241 1.387 . S
C240 C245 1.390 . S
C241 C240 1.387 . S
C241 C242 1.401 . S
C241 H262 0.930 . S
C242 C241 1.401 . S
C242 C243 1.376 . S
C242 C251 1.511 . S
C243 C242 1.376 . S
C243 C244 1.392 . S
C243 H264 0.931 . S
C244 C243 1.392 . S
C244 C245 1.361 . S
C244 C246 1.500 . S
C245 C240 1.390 . S
C245 C244 1.361 . S
C245 H263 0.931 . S
C246 C244 1.500 . S
C246 C247 1.371 . S
C246 C248 1.365 . S
C247 C246 1.371 . S
C247 C257 1.386 . S
C247 H265 0.931 . S
C248 C246 1.365 . S
C248 C249 1.409 . S
C248 H266 0.929 . S
C249 C248 1.409 . S
C249 C250 1.380 . S
C249 H267 0.930 . S
C250 C249 1.380 . S
C250 C257 1.357 . S
C251 C242 1.511 . S
C251 C252 1.341 . S
C251 C253 1.371 . S
C252 C251 1.341 . S
C252 C256 1.394 . S
C252 H268 0.930 . S
C253 C251 1.371 . S
C253 C254 1.392 . S
C253 H269 0.931 . S
C254 C253 1.392 . S
C254 C255 1.331 . S
C254 H272 0.932 . S
C255 C254 1.331 . S
C255 C256 1.336 . S
C256 C252 1.394 . S
C256 C255 1.336 . S
C256 H271 0.929 . S
C257 C247 1.386 . S
C257 C250 1.357 . S
C257 H270 0.928 . S
H258 C234 0.931 . S
H259 C236 0.930 . S
H260 C238 0.929 . S
H261 C239 0.931 . S
H262 C241 0.930 . S
H263 C245 0.931 . S
H264 C243 0.931 . S
H265 C247 0.931 . S
H266 C248 0.929 . S
H267 C249 0.930 . S
H268 C252 0.930 . S
H269 C253 0.931 . S
H270 C257 0.928 . S
H271 C256 0.929 . S
H272 C254 0.932 . S
C273 C274 1.386 . S
C273 C275 1.397 . S
C273 H297 0.931 . S
C274 C273 1.386 . S
C274 C278 1.397 . S
C275 C273 1.397 . S
C275 C276 1.384 . S
C275 H298 0.930 . S
C276 C275 1.384 . S
C276 C277 1.377 . S
C276 C279 1.481 . S
C277 C276 1.377 . S
C277 C278 1.389 . S
C277 H299 0.929 . S
C278 C274 1.397 . S
C278 C277 1.389 . S
C278 H300 0.931 . S
C279 C276 1.481 . S
C279 C280 1.387 . S
C279 C284 1.390 . S
C280 C279 1.387 . S
C280 C281 1.401 . S
C280 H301 0.930 . S
C281 C280 1.401 . S
C281 C282 1.376 . S
C281 C290 1.511 . S
C282 C281 1.376 . S
C282 C283 1.392 . S
C282 H303 0.931 . S
C283 C282 1.392 . S
C283 C284 1.361 . S
C283 C285 1.500 . S
C284 C279 1.390 . S
C284 C283 1.361 . S
C284 H302 0.931 . S
C285 C283 1.500 . S
C285 C286 1.371 . S
C285 C287 1.365 . S
C286 C285 1.371 . S
C286 C296 1.386 . S
C286 H304 0.931 . S
C287 C285 1.365 . S
C287 C288 1.409 . S
C287 H305 0.929 . S
C288 C287 1.409 . S
C288 C289 1.380 . S
C288 H306 0.930 . S
C289 C288 1.380 . S
C289 C296 1.357 . S
C290 C281 1.511 . S
C290 C291 1.341 . S
C290 C292 1.371 . S
C291 C290 1.341 . S
C291 C295 1.394 . S
C291 H307 0.930 . S
C292 C290 1.371 . S
C292 C293 1.392 . S
C292 H308 0.931 . S
C293 C292 1.392 . S
C293 C294 1.331 . S
C293 H311 0.932 . S
C294 C293 1.331 . S
C294 C295 1.336 . S
C295 C291 1.394 . S
C295 C294 1.336 . S
C295 H310 0.929 . S
C296 C286 1.386 . S
C296 C289 1.357 . S
C296 H309 0.928 . S
H297 C273 0.931 . S
H298 C275 0.930 . S
H299 C277 0.929 . S
H300 C278 0.931 . S
H301 C280 0.930 . S
H302 C284 0.931 . S
H303 C282 0.931 . S
H304 C286 0.931 . S
H305 C287 0.929 . S
H306 C288 0.930 . S
H307 C291 0.930 . S
H308 C292 0.931 . S
H309 C296 0.928 . S
H310 C295 0.929 . S
H311 C293 0.932 . S
C312 C313 1.443 . S
C312 N316 1.376 . S
C312 C350 1.389 . S
C313 C312 1.443 . S
C313 C314 1.340 . S
C313 H353 0.951 . S
C314 C313 1.340 . S
C314 C315 1.439 . S
C314 H354 0.950 . S
C315 C314 1.439 . S
C315 N316 1.374 . S
C315 C349 1.395 . S
N316 C312 1.376 . S
N316 C315 1.374 . S
N316 Co317 2.008 . S
Co317 N316 2.008 . S
Co317 N318 1.994 1_455 S
Co317 N323 2.008 . S
Co317 N328 1.995 . S
Co317 N333 2.282 . S
Co317 N339 2.282 1_455 S
N318 Co317 1.994 1_655 S
N318 C319 1.376 1_655 S
N318 C322 1.384 . S
C319 N318 1.376 1_455 S
C319 C320 1.440 1_455 S
C319 C349 1.398 . S
C320 C319 1.440 1_655 S
C320 C321 1.339 . S
C320 H355 0.949 . S
C321 C320 1.339 . S
C321 C322 1.439 . S
C321 H356 0.950 . S
C322 N318 1.384 . S
C322 C321 1.439 . S
C322 C351 1.392 . S
N323 Co317 2.008 . S
N323 C324 1.376 1_455 S
N323 C327 1.374 . S
C324 N323 1.376 1_655 S
C324 C325 1.443 . S
C324 C351 1.389 . S
C325 C324 1.443 . S
C325 C326 1.340 . S
C325 H357 0.951 . S
C326 C325 1.340 . S
C326 C327 1.439 1_655 S
C326 H358 0.950 . S
C327 N323 1.374 . S
C327 C326 1.439 1_455 S
C327 C352 1.395 . S
N328 Co317 1.995 . S
N328 C329 1.376 . S
N328 C332 1.383 . S
C329 N328 1.376 . S
C329 C330 1.446 . S
C329 C352 1.391 . S
C330 C329 1.446 . S
C330 C331 1.339 . S
C330 H359 0.949 . S
C331 C330 1.339 . S
C331 C332 1.439 . S
C331 H360 0.950 . S
C332 N328 1.383 . S
C332 C331 1.439 . S
C332 C350 1.392 . S
N333 Co317 2.282 . S
N333 C336 1.332 . S
N333 C338 1.332 . S
C334 C335 1.386 . S
C334 C337 1.388 . S
C335 C334 1.386 . S
C335 C336 1.382 . S
C335 H361 0.950 . S
C336 N333 1.332 . S
C336 C335 1.382 . S
C336 H347 0.952 . S
C337 C334 1.388 . S
C337 C338 1.382 . S
C337 H362 0.950 . S
C338 N333 1.332 . S
C338 C337 1.382 . S
C338 H348 0.948 . S
N339 Co317 2.282 1_655 S
N339 C343 1.332 . S
N339 C344 1.332 . S
C340 C341 1.388 . S
C340 C344 1.382 . S
C340 H363 0.950 . S
C341 C340 1.388 . S
C341 C342 1.386 . S
C342 C341 1.386 . S
C342 C343 1.382 . S
C342 H364 0.950 . S
C343 N339 1.332 . S
C343 C342 1.382 . S
C343 H345 0.952 . S
C344 N339 1.332 . S
C344 C340 1.382 . S
C344 H346 0.948 . S
H345 C343 0.952 . S
H346 C344 0.948 . S
H347 C336 0.952 . S
H348 C338 0.948 . S
C349 C315 1.395 . S
C349 C319 1.398 . S
C350 C312 1.389 . S
C350 C332 1.392 . S
C351 C322 1.392 . S
C351 C324 1.389 . S
C352 C327 1.395 . S
C352 C329 1.391 . S
H353 C313 0.951 . S
H354 C314 0.950 . S
H355 C320 0.949 . S
H356 C321 0.950 . S
H357 C325 0.951 . S
H358 C326 0.950 . S
H359 C330 0.949 . S
H360 C331 0.950 . S
H361 C335 0.950 . S
H362 C337 0.950 . S
H363 C340 0.950 . S
H364 C342 0.950 . S
C365 C366 1.443 . S
C365 N369 1.376 . S
C365 C403 1.389 . S
C366 C365 1.443 . S
C366 C367 1.340 . S
C366 H406 0.951 . S
C367 C366 1.340 . S
C367 C368 1.439 . S
C367 H407 0.950 . S
C368 C367 1.439 . S
C368 N369 1.374 . S
C368 C402 1.395 . S
N369 C365 1.376 . S
N369 C368 1.374 . S
N369 Co370 2.008 . S
Co370 N369 2.008 . S
Co370 N371 1.995 1_455 S
Co370 N376 2.008 1_455 S
Co370 N381 1.995 . S
Co370 N386 2.282 . S
Co370 N392 2.282 1_455 S
N371 Co370 1.995 1_655 S
N371 C372 1.376 . S
N371 C375 1.383 . S
C372 N371 1.376 . S
C372 C373 1.446 . S
C372 C402 1.391 1_655 S
C373 C372 1.446 . S
C373 C374 1.339 . S
C373 H408 0.949 . S
C374 C373 1.339 . S
C374 C375 1.439 . S
C374 H409 0.950 . S
C375 N371 1.383 . S
C375 C374 1.439 . S
C375 C404 1.392 . S
N376 Co370 2.008 1_655 S
N376 C377 1.376 . S
N376 C380 1.374 . S
C377 N376 1.376 . S
C377 C378 1.443 . S
C377 C404 1.389 . S
C378 C377 1.443 . S
C378 C379 1.340 . S
C378 H410 0.951 . S
C379 C378 1.340 . S
C379 C380 1.439 . S
C379 H411 0.950 . S
C380 N376 1.374 . S
C380 C379 1.439 . S
C380 C405 1.395 1_655 S
N381 Co370 1.995 . S
N381 C382 1.376 . S
N381 C385 1.383 . S
C382 N381 1.376 . S
C382 C383 1.446 . S
C382 C405 1.391 . S
C383 C382 1.446 . S
C383 C384 1.339 . S
C383 H412 0.949 . S
C384 C383 1.339 . S
C384 C385 1.439 . S
C384 H413 0.950 . S
C385 N381 1.383 . S
C385 C384 1.439 . S
C385 C403 1.392 . S
N386 Co370 2.282 . S
N386 C389 1.332 . S
N386 C391 1.332 . S
C387 C388 1.386 . S
C387 C390 1.388 . S
C388 C387 1.386 . S
C388 C389 1.382 . S
C388 H414 0.950 . S
C389 N386 1.332 . S
C389 C388 1.382 . S
C389 H400 0.952 . S
C390 C387 1.388 . S
C390 C391 1.382 . S
C390 H415 0.950 . S
C391 N386 1.332 . S
C391 C390 1.382 . S
C391 H401 0.948 . S
N392 Co370 2.282 1_655 S
N392 C396 1.332 . S
N392 C397 1.332 . S
C393 C394 1.388 . S
C393 C397 1.382 . S
C393 H416 0.950 . S
C394 C393 1.388 . S
C394 C395 1.386 . S
C395 C394 1.386 . S
C395 C396 1.382 . S
C395 H417 0.950 . S
C396 N392 1.332 . S
C396 C395 1.382 . S
C396 H398 0.952 . S
C397 N392 1.332 . S
C397 C393 1.382 . S
C397 H399 0.948 . S
H398 C396 0.952 . S
H399 C397 0.948 . S
H400 C389 0.952 . S
H401 C391 0.948 . S
C402 C368 1.395 . S
C402 C372 1.391 1_455 S
C403 C365 1.389 . S
C403 C385 1.392 . S
C404 C375 1.392 . S
C404 C377 1.389 . S
C405 C380 1.395 1_455 S
C405 C382 1.391 . S
H406 C366 0.951 . S
H407 C367 0.950 . S
H408 C373 0.949 . S
H409 C374 0.950 . S
H410 C378 0.951 . S
H411 C379 0.950 . S
H412 C383 0.949 . S
H413 C384 0.950 . S
H414 C388 0.950 . S
H415 C390 0.950 . S
H416 C393 0.950 . S
H417 C395 0.950 . S
C418 C419 1.443 . S
C418 N422 1.376 . S
C418 C456 1.389 . S
C419 C418 1.443 . S
C419 C420 1.340 . S
C419 H459 0.951 . S
C420 C419 1.340 . S
C420 C421 1.439 . S
C420 H460 0.950 . S
C421 C420 1.439 . S
C421 N422 1.374 . S
C421 C455 1.395 1_565 S
N422 C418 1.376 . S
N422 C421 1.374 . S
N422 Co423 2.008 1_565 S
Co423 N422 2.008 1_545 S
Co423 N424 1.995 . S
Co423 N429 2.008 . S
Co423 N434 1.995 1_545 S
Co423 N439 2.282 . S
Co423 N445 2.282 1_545 S
N424 Co423 1.995 . S
N424 C425 1.376 . S
N424 C428 1.383 . S
C425 N424 1.376 . S
C425 C426 1.446 . S
C425 C455 1.391 . S
C426 C425 1.446 . S
C426 C427 1.339 . S
C426 H461 0.949 . S
C427 C426 1.339 . S
C427 C428 1.439 . S
C427 H462 0.950 . S
C428 N424 1.383 . S
C428 C427 1.439 . S
C428 C457 1.392 . S
N429 Co423 2.008 . S
N429 C430 1.376 . S
N429 C433 1.374 . S
C430 N429 1.376 . S
C430 C431 1.443 . S
C430 C457 1.389 . S
C431 C430 1.443 . S
C431 C432 1.340 . S
C431 H463 0.951 . S
C432 C431 1.340 . S
C432 C433 1.439 . S
C432 H464 0.950 . S
C433 N429 1.374 . S
C433 C432 1.439 . S
C433 C458 1.395 . S
N434 Co423 1.995 1_565 S
N434 C435 1.376 . S
N434 C438 1.383 . S
C435 N434 1.376 . S
C435 C436 1.446 . S
C435 C458 1.391 1_565 S
C436 C435 1.446 . S
C436 C437 1.339 . S
C436 H465 0.949 . S
C437 C436 1.339 . S
C437 C438 1.439 . S
C437 H466 0.950 . S
C438 N434 1.383 . S
C438 C437 1.439 . S
C438 C456 1.392 . S
N439 Co423 2.282 . S
N439 C442 1.332 . S
N439 C444 1.332 . S
C440 C441 1.386 . S
C440 C443 1.388 . S
C441 C440 1.386 . S
C441 C442 1.382 . S
C441 H467 0.950 . S
C442 N439 1.332 . S
C442 C441 1.382 . S
C442 H453 0.952 . S
C443 C440 1.388 . S
C443 C444 1.382 . S
C443 H468 0.950 . S
C444 N439 1.332 . S
C444 C443 1.382 . S
C444 H454 0.948 . S
N445 Co423 2.282 1_565 S
N445 C449 1.332 . S
N445 C450 1.332 . S
C446 C447 1.388 . S
C446 C450 1.382 . S
C446 H469 0.950 . S
C447 C446 1.388 . S
C447 C448 1.386 . S
C448 C447 1.386 . S
C448 C449 1.382 . S
C448 H470 0.950 . S
C449 N445 1.332 . S
C449 C448 1.382 . S
C449 H451 0.952 . S
C450 N445 1.332 . S
C450 C446 1.382 . S
C450 H452 0.948 . S
H451 C449 0.952 . S
H452 C450 0.948 . S
H453 C442 0.952 . S
H454 C444 0.948 . S
C455 C421 1.395 1_545 S
C455 C425 1.391 . S
C456 C418 1.389 . S
C456 C438 1.392 . S
C457 C428 1.392 . S
C457 C430 1.389 . S
C458 C433 1.395 . S
C458 C435 1.391 1_545 S
H459 C419 0.951 . S
H460 C420 0.950 . S
H461 C426 0.949 . S
H462 C427 0.950 . S
H463 C431 0.951 . S
H464 C432 0.950 . S
H465 C436 0.949 . S
H466 C437 0.950 . S
H467 C441 0.950 . S
H468 C443 0.950 . S
H469 C446 0.950 . S
H470 C448 0.950 . S
C471 C472 1.443 . S
C471 N475 1.376 . S
C471 C509 1.389 . S
C472 C471 1.443 . S
C472 C473 1.340 . S
C472 H512 0.951 . S
C473 C472 1.340 . S
C473 C474 1.439 . S
C473 H513 0.950 . S
C474 C473 1.439 . S
C474 N475 1.374 . S
C474 C508 1.395 . S
N475 C471 1.376 . S
N475 C474 1.374 . S
N475 Co476 2.008 . S
Co476 N475 2.008 . S
Co476 N477 1.995 1_554 S
Co476 N482 2.008 1_554 S
Co476 N487 1.995 . S
Co476 N492 2.282 1_554 S
Co476 N498 2.282 . S
N477 Co476 1.995 1_556 S
N477 C478 1.376 . S
N477 C481 1.383 . S
C478 N477 1.376 . S
C478 C479 1.446 . S
C478 C508 1.391 1_556 S
C479 C478 1.446 . S
C479 C480 1.339 . S
C479 H514 0.949 . S
C480 C479 1.339 . S
C480 C481 1.439 . S
C480 H515 0.950 . S
C481 N477 1.383 . S
C481 C480 1.439 . S
C481 C510 1.392 . S
N482 Co476 2.008 1_556 S
N482 C483 1.376 . S
N482 C486 1.374 . S
C483 N482 1.376 . S
C483 C484 1.443 . S
C483 C510 1.389 . S
C484 C483 1.443 . S
C484 C485 1.340 . S
C484 H516 0.951 . S
C485 C484 1.340 . S
C485 C486 1.439 . S
C485 H517 0.950 . S
C486 N482 1.374 . S
C486 C485 1.439 . S
C486 C511 1.395 1_556 S
N487 Co476 1.995 . S
N487 C488 1.376 . S
N487 C491 1.383 . S
C488 N487 1.376 . S
C488 C489 1.446 . S
C488 C511 1.391 . S
C489 C488 1.446 . S
C489 C490 1.339 . S
C489 H518 0.949 . S
C490 C489 1.339 . S
C490 C491 1.439 . S
C490 H519 0.950 . S
C491 N487 1.383 . S
C491 C490 1.439 . S
C491 C509 1.392 . S
N492 Co476 2.282 1_556 S
N492 C495 1.332 . S
N492 C497 1.332 . S
C493 C494 1.386 . S
C493 C496 1.388 . S
C494 C493 1.386 . S
C494 C495 1.382 . S
C494 H520 0.950 . S
C495 N492 1.332 . S
C495 C494 1.382 . S
C495 H506 0.952 . S
C496 C493 1.388 . S
C496 C497 1.382 . S
C496 H521 0.950 . S
C497 N492 1.332 . S
C497 C496 1.382 . S
C497 H507 0.948 . S
N498 Co476 2.282 . S
N498 C502 1.332 . S
N498 C503 1.332 . S
C499 C500 1.388 . S
C499 C503 1.382 . S
C499 H522 0.950 . S
C500 C499 1.388 . S
C500 C501 1.386 . S
C501 C500 1.386 . S
C501 C502 1.382 . S
C501 H523 0.950 . S
C502 N498 1.332 . S
C502 C501 1.382 . S
C502 H504 0.952 . S
C503 N498 1.332 . S
C503 C499 1.382 . S
C503 H505 0.948 . S
H504 C502 0.952 . S
H505 C503 0.948 . S
H506 C495 0.952 . S
H507 C497 0.948 . S
C508 C474 1.395 . S
C508 C478 1.391 1_554 S
C509 C471 1.389 . S
C509 C491 1.392 . S
C510 C481 1.392 . S
C510 C483 1.389 . S
C511 C486 1.395 1_554 S
C511 C488 1.391 . S
H512 C472 0.951 . S
H513 C473 0.950 . S
H514 C479 0.949 . S
H515 C480 0.950 . S
H516 C484 0.951 . S
H517 C485 0.950 . S
H518 C489 0.949 . S
H519 C490 0.950 . S
H520 C494 0.950 . S
H521 C496 0.950 . S
H522 C499 0.950 . S
H523 C501 0.950 . S
C524 C525 1.443 . S
C524 N528 1.395 . S
C524 C562 1.389 . S
C525 C524 1.443 . S
C525 C526 1.340 . S
C525 H565 0.951 . S
C526 C525 1.340 . S
C526 C527 1.405 1_565 S
C526 H566 0.950 . S
C527 C526 1.405 1_545 S
C527 N528 1.375 1_545 S
C527 C561 1.424 . S
N528 C524 1.395 . S
N528 C527 1.375 1_565 S
N528 Co529 1.995 1_565 S
Co529 N528 1.995 1_545 S
Co529 N530 1.995 . S
Co529 N535 2.008 . S
Co529 N540 2.002 . S
Co529 N545 2.282 . S
Co529 N551 2.282 1_545 S
N530 Co529 1.995 . S
N530 C531 1.376 . S
N530 C534 1.383 . S
C531 N530 1.376 . S
C531 C532 1.446 . S
C531 C561 1.391 . S
C532 C531 1.446 . S
C532 C533 1.339 . S
C532 H567 0.949 . S
C533 C532 1.339 . S
C533 C534 1.439 . S
C533 H568 0.950 . S
C534 N530 1.383 . S
C534 C533 1.439 . S
C534 C563 1.392 . S
N535 Co529 2.008 . S
N535 C536 1.376 . S
N535 C539 1.374 . S
C536 N535 1.376 . S
C536 C537 1.443 . S
C536 C563 1.389 . S
C537 C536 1.443 . S
C537 C538 1.340 . S
C537 H569 0.951 . S
C538 C537 1.340 . S
C538 C539 1.439 . S
C538 H570 0.950 . S
C539 N535 1.374 . S
C539 C538 1.439 . S
C539 C564 1.395 . S
N540 Co529 2.002 . S
N540 C541 1.379 . S
N540 C544 1.371 1_545 S
C541 N540 1.379 . S
C541 C542 1.446 1_545 S
C541 C564 1.391 . S
C542 C541 1.446 1_565 S
C542 C543 1.339 . S
C542 H571 0.949 . S
C543 C542 1.339 . S
C543 C544 1.439 . S
C543 H572 0.950 . S
C544 N540 1.371 1_565 S
C544 C543 1.439 . S
C544 C562 1.392 . S
N545 Co529 2.282 . S
N545 C548 1.332 . S
N545 C550 1.332 . S
C546 C547 1.386 . S
C546 C549 1.388 . S
C547 C546 1.386 . S
C547 C548 1.382 . S
C547 H573 0.950 . S
C548 N545 1.332 . S
C548 C547 1.382 . S
C548 H559 0.952 . S
C549 C546 1.388 . S
C549 C550 1.382 . S
C549 H574 0.950 . S
C550 N545 1.332 . S
C550 C549 1.382 . S
C550 H560 0.948 . S
N551 Co529 2.282 1_565 S
N551 C555 1.332 . S
N551 C556 1.332 . S
C552 C553 1.388 . S
C552 C556 1.382 . S
C552 H575 0.950 . S
C553 C552 1.388 . S
C553 C554 1.386 . S
C554 C553 1.386 . S
C554 C555 1.382 . S
C554 H576 0.950 . S
C555 N551 1.332 . S
C555 C554 1.382 . S
C555 H557 0.952 . S
C556 N551 1.332 . S
C556 C552 1.382 . S
C556 H558 0.948 . S
H557 C555 0.952 . S
H558 C556 0.948 . S
H559 C548 0.952 . S
H560 C550 0.948 . S
C561 C527 1.424 . S
C561 C531 1.391 . S
C562 C524 1.389 . S
C562 C544 1.392 . S
C563 C534 1.392 . S
C563 C536 1.389 . S
C564 C539 1.395 . S
C564 C541 1.391 . S
H565 C525 0.951 . S
H566 C526 0.950 . S
H567 C532 0.949 . S
H568 C533 0.950 . S
H569 C537 0.951 . S
H570 C538 0.950 . S
H571 C542 0.949 . S
H572 C543 0.950 . S
H573 C547 0.950 . S
H574 C549 0.950 . S
H575 C552 0.950 . S
H576 C554 0.950 . S
C577 C578 1.443 . S
C577 N581 1.376 . S
C577 C615 1.389 . S
C578 C577 1.443 . S
C578 C579 1.340 . S
C578 H618 0.951 . S
C579 C578 1.340 . S
C579 C580 1.439 . S
C579 H619 0.950 . S
C580 C579 1.439 . S
C580 N581 1.374 . S
C580 C614 1.395 . S
N581 C577 1.376 . S
N581 C580 1.374 . S
N581 Co582 2.008 . S
Co582 N581 2.008 . S
Co582 N583 1.995 . S
Co582 N588 2.010 1_554 S
Co582 N593 1.995 . S
Co582 N598 2.282 1_554 S
Co582 N604 2.282 . S
N583 Co582 1.995 . S
N583 C584 1.376 . S
N583 C587 1.383 1_554 S
C584 N583 1.376 . S
C584 C585 1.446 1_554 S
C584 C614 1.391 . S
C585 C584 1.446 1_556 S
C585 C586 1.339 . S
C585 H620 0.949 . S
C586 C585 1.339 . S
C586 C587 1.439 . S
C586 H621 0.950 . S
C587 N583 1.383 1_556 S
C587 C586 1.439 . S
C587 C616 1.392 . S
N588 Co582 2.010 1_556 S
N588 C589 1.374 . S
N588 C592 1.374 1_556 S
C589 N588 1.374 . S
C589 C590 1.443 . S
C589 C616 1.389 . S
C590 C589 1.443 . S
C590 C591 1.340 . S
C590 H622 0.951 . S
C591 C590 1.340 . S
C591 C592 1.406 1_556 S
C591 H623 0.950 . S
C592 N588 1.374 1_554 S
C592 C591 1.406 1_554 S
C592 C617 1.423 . S
N593 Co582 1.995 . S
N593 C594 1.376 . S
N593 C597 1.383 . S
C594 N593 1.376 . S
C594 C595 1.446 . S
C594 C617 1.391 . S
C595 C594 1.446 . S
C595 C596 1.339 . S
C595 H624 0.949 . S
C596 C595 1.339 . S
C596 C597 1.439 . S
C596 H625 0.950 . S
C597 N593 1.383 . S
C597 C596 1.439 . S
C597 C615 1.392 . S
N598 Co582 2.282 1_556 S
N598 C601 1.332 . S
N598 C603 1.332 . S
C599 C600 1.386 . S
C599 C602 1.388 . S
C600 C599 1.386 . S
C600 C601 1.382 . S
C600 H626 0.950 . S
C601 N598 1.332 . S
C601 C600 1.382 . S
C601 H612 0.952 . S
C602 C599 1.388 . S
C602 C603 1.382 . S
C602 H627 0.950 . S
C603 N598 1.332 . S
C603 C602 1.382 . S
C603 H613 0.948 . S
N604 Co582 2.282 . S
N604 C608 1.332 . S
N604 C609 1.332 . S
C605 C606 1.388 . S
C605 C609 1.382 . S
C605 H628 0.950 . S
C606 C605 1.388 . S
C606 C607 1.386 . S
C607 C606 1.386 . S
C607 C608 1.382 . S
C607 H629 0.950 . S
C608 N604 1.332 . S
C608 C607 1.382 . S
C608 H610 0.952 . S
C609 N604 1.332 . S
C609 C605 1.382 . S
C609 H611 0.948 . S
H610 C608 0.952 . S
H611 C609 0.948 . S
H612 C601 0.952 . S
H613 C603 0.948 . S
C614 C580 1.395 . S
C614 C584 1.391 . S
C615 C577 1.389 . S
C615 C597 1.392 . S
C616 C587 1.392 . S
C616 C589 1.389 . S
C617 C592 1.423 . S
C617 C594 1.391 . S
H618 C578 0.951 . S
H619 C579 0.950 . S
H620 C585 0.949 . S
H621 C586 0.950 . S
H622 C590 0.951 . S
H623 C591 0.950 . S
H624 C595 0.949 . S
H625 C596 0.950 . S
H626 C600 0.950 . S
H627 C602 0.950 . S
H628 C605 0.950 . S
H629 C607 0.950 . S
H630 C636 0.930 . S
H631 C640 0.930 . S
H632 C645 0.929 . S
H633 C643 0.929 . S
H634 C638 0.929 . S
H635 C644 0.929 . S
C636 H630 0.930 . S
C636 C637 1.367 . S
C636 C644 1.378 . S
C637 C636 1.367 . S
C637 C645 1.433 . S
C638 H634 0.929 . S
C638 C640 1.378 . S
C638 C642 1.350 . S
C639 C642 1.463 . S
C639 C644 1.350 . S
C639 N647 1.427 . S
C640 H631 0.930 . S
C640 C638 1.378 . S
C640 C641 1.367 . S
C641 C640 1.367 . S
C641 C643 1.433 . S
C642 C638 1.350 . S
C642 C639 1.463 . S
C642 N646 1.427 . S
C643 H633 0.929 . S
C643 C641 1.433 . S
C643 N646 1.384 . S
C644 H635 0.929 . S
C644 C636 1.378 . S
C644 C639 1.350 . S
C645 H632 0.929 . S
C645 C637 1.433 . S
C645 N647 1.384 . S
N646 C642 1.427 . S
N646 C643 1.384 . S
N647 C639 1.427 . S
N647 C645 1.384 . S
H648 C654 0.930 . S
H649 C658 0.930 . S
H650 C663 0.929 . S
H651 C661 0.929 . S
H652 C656 0.929 . S
H653 C662 0.929 . S
C654 H648 0.930 . S
C654 C655 1.367 . S
C654 C662 1.378 . S
C655 C654 1.367 . S
C655 C663 1.433 . S
C656 H652 0.929 . S
C656 C658 1.378 . S
C656 C660 1.350 . S
C657 C660 1.463 . S
C657 C662 1.350 . S
C657 N665 1.427 . S
C658 H649 0.930 . S
C658 C656 1.378 . S
C658 C659 1.367 . S
C659 C658 1.367 . S
C659 C661 1.433 . S
C660 C656 1.350 . S
C660 C657 1.463 . S
C660 N664 1.427 . S
C661 H651 0.929 . S
C661 C659 1.433 . S
C661 N664 1.384 . S
C662 H653 0.929 . S
C662 C654 1.378 . S
C662 C657 1.350 . S
C663 H650 0.929 . S
C663 C655 1.433 . S
C663 N665 1.384 . S
N664 C660 1.427 . S
N664 C661 1.384 . S
N665 C657 1.427 . S
N665 C663 1.384 . S
H666 C672 0.930 . S
H667 C676 0.930 . S
H668 C681 0.929 . S
H669 C679 0.929 . S
H670 C674 0.929 . S
H671 C680 0.929 . S
C672 H666 0.930 . S
C672 C673 1.367 . S
C672 C680 1.378 . S
C673 C672 1.367 . S
C673 C681 1.433 . S
C674 H670 0.929 . S
C674 C676 1.378 . S
C674 C678 1.350 . S
C675 C678 1.463 . S
C675 C680 1.350 . S
C675 N683 1.427 . S
C676 H667 0.930 . S
C676 C674 1.378 . S
C676 C677 1.367 . S
C677 C676 1.367 . S
C677 C679 1.433 . S
C678 C674 1.350 . S
C678 C675 1.463 . S
C678 N682 1.427 . S
C679 H669 0.929 . S
C679 C677 1.433 . S
C679 N682 1.384 . S
C680 H671 0.929 . S
C680 C672 1.378 . S
C680 C675 1.350 . S
C681 H668 0.929 . S
C681 C673 1.433 . S
C681 N683 1.384 . S
N682 C678 1.427 . S
N682 C679 1.384 . S
N683 C675 1.427 . S
N683 C681 1.384 . S
H684 C690 0.930 . S
H685 C694 0.930 . S
H686 C699 0.929 . S
H687 C697 0.929 . S
H688 C692 0.929 . S
H689 C698 0.929 . S
C690 H684 0.930 . S
C690 C691 1.367 . S
C690 C698 1.378 . S
C691 C690 1.367 . S
C691 C699 1.433 . S
C692 H688 0.929 . S
C692 C694 1.378 . S
C692 C696 1.350 . S
C693 C696 1.463 . S
C693 C698 1.350 . S
C693 N701 1.427 . S
C694 H685 0.930 . S
C694 C692 1.378 . S
C694 C695 1.367 . S
C695 C694 1.367 . S
C695 C697 1.433 . S
C696 C692 1.350 . S
C696 C693 1.463 . S
C696 N700 1.427 . S
C697 H687 0.929 . S
C697 C695 1.433 . S
C697 N700 1.384 . S
C698 H689 0.929 . S
C698 C690 1.378 . S
C698 C693 1.350 . S
C699 H686 0.929 . S
C699 C691 1.433 . S
C699 N701 1.384 . S
N700 C696 1.427 . S
N700 C697 1.384 . S
N701 C693 1.427 . S
N701 C699 1.384 . S
H702 C708 0.930 . S
H703 C712 0.930 . S
H704 C717 0.929 . S
H705 C715 0.929 . S
H706 C710 0.929 . S
H707 C716 0.929 . S
C708 H702 0.930 . S
C708 C709 1.367 . S
C708 C716 1.378 . S
C709 C708 1.367 . S
C709 C717 1.433 . S
C710 H706 0.929 . S
C710 C712 1.378 . S
C710 C714 1.350 . S
C711 C714 1.463 . S
C711 C716 1.350 . S
C711 N719 1.427 . S
C712 H703 0.930 . S
C712 C710 1.378 . S
C712 C713 1.367 . S
C713 C712 1.367 . S
C713 C715 1.433 . S
C714 C710 1.350 . S
C714 C711 1.463 . S
C714 N718 1.427 . S
C715 H705 0.929 . S
C715 C713 1.433 . S
C715 N718 1.384 . S
C716 H707 0.929 . S
C716 C708 1.378 . S
C716 C711 1.350 . S
C717 H704 0.929 . S
C717 C709 1.433 . S
C717 N719 1.384 . S
N718 C714 1.427 . S
N718 C715 1.384 . S
N719 C711 1.427 . S
N719 C717 1.384 . S
H720 C726 0.930 . S
H721 C730 0.930 . S
H722 C735 0.929 . S
H723 C733 0.929 . S
H724 C728 0.929 . S
H725 C734 0.929 . S
C726 H720 0.930 . S
C726 C727 1.367 . S
C726 C734 1.378 . S
C727 C726 1.367 . S
C727 C735 1.433 . S
C728 H724 0.929 . S
C728 C730 1.378 . S
C728 C732 1.350 . S
C729 C732 1.463 . S
C729 C734 1.350 . S
C729 N737 1.427 . S
C730 H721 0.930 . S
C730 C728 1.378 . S
C730 C731 1.367 . S
C731 C730 1.367 . S
C731 C733 1.433 . S
C732 C728 1.350 . S
C732 C729 1.463 . S
C732 N736 1.427 . S
C733 H723 0.929 . S
C733 C731 1.433 . S
C733 N736 1.384 . S
C734 H725 0.929 . S
C734 C726 1.378 . S
C734 C729 1.350 . S
C735 H722 0.929 . S
C735 C727 1.433 . S
C735 N737 1.384 . S
N736 C732 1.427 . S
N736 C733 1.384 . S
N737 C729 1.427 . S
N737 C735 1.384 . S
H738 C744 0.930 . S
H739 C748 0.930 . S
H740 C753 0.929 . S
H741 C751 0.929 . S
H742 C746 0.929 . S
H743 C752 0.929 . S
C744 H738 0.930 . S
C744 C745 1.367 . S
C744 C752 1.378 . S
C745 C744 1.367 . S
C745 C753 1.433 . S
C746 H742 0.929 . S
C746 C748 1.378 . S
C746 C750 1.350 . S
C747 C750 1.463 . S
C747 C752 1.350 . S
C747 N755 1.427 . S
C748 H739 0.930 . S
C748 C746 1.378 . S
C748 C749 1.367 . S
C749 C748 1.367 . S
C749 C751 1.433 . S
C750 C746 1.350 . S
C750 C747 1.463 . S
C750 N754 1.427 . S
C751 H741 0.929 . S
C751 C749 1.433 . S
C751 N754 1.384 . S
C752 H743 0.929 . S
C752 C744 1.378 . S
C752 C747 1.350 . S
C753 H740 0.929 . S
C753 C745 1.433 . S
C753 N755 1.384 . S
N754 C750 1.427 . S
N754 C751 1.384 . S
N755 C747 1.427 . S
N755 C753 1.384 . S
H756 C762 0.930 . S
H757 C766 0.930 . S
H758 C771 0.929 . S
H759 C769 0.929 . S
H760 C764 0.929 . S
H761 C770 0.929 . S
C762 H756 0.930 . S
C762 C763 1.367 . S
C762 C770 1.378 . S
C763 C762 1.367 . S
C763 C771 1.433 . S
C764 H760 0.929 . S
C764 C766 1.378 . S
C764 C768 1.350 . S
C765 C768 1.463 . S
C765 C770 1.350 . S
C765 N773 1.427 . S
C766 H757 0.930 . S
C766 C764 1.378 . S
C766 C767 1.367 . S
C767 C766 1.367 . S
C767 C769 1.433 . S
C768 C764 1.350 . S
C768 C765 1.463 . S
C768 N772 1.427 . S
C769 H759 0.929 . S
C769 C767 1.433 . S
C769 N772 1.384 . S
C770 H761 0.929 . S
C770 C762 1.378 . S
C770 C765 1.350 . S
C771 H758 0.929 . S
C771 C763 1.433 . S
C771 N773 1.384 . S
N772 C768 1.427 . S
N772 C769 1.384 . S
N773 C765 1.427 . S
N773 C771 1.384 . S
H774 C780 0.930 . S
H775 C784 0.930 . S
H776 C789 0.929 . S
H777 C787 0.929 . S
H778 C782 0.929 . S
H779 C788 0.929 . S
C780 H774 0.930 . S
C780 C781 1.367 . S
C780 C788 1.378 . S
C781 C780 1.367 . S
C781 C789 1.433 . S
C782 H778 0.929 . S
C782 C784 1.378 . S
C782 C786 1.350 . S
C783 C786 1.463 . S
C783 C788 1.350 . S
C783 N791 1.427 . S
C784 H775 0.930 . S
C784 C782 1.378 . S
C784 C785 1.367 . S
C785 C784 1.367 . S
C785 C787 1.433 . S
C786 C782 1.350 . S
C786 C783 1.463 . S
C786 N790 1.427 . S
C787 H777 0.929 . S
C787 C785 1.433 . S
C787 N790 1.384 . S
C788 H779 0.929 . S
C788 C780 1.378 . S
C788 C783 1.350 . S
C789 H776 0.929 . S
C789 C781 1.433 . S
C789 N791 1.384 . S
N790 C786 1.427 . S
N790 C787 1.384 . S
N791 C783 1.427 . S
N791 C789 1.384 . S
H792 C798 0.930 . S
H793 C802 0.930 . S
H794 C807 0.929 . S
H795 C805 0.929 . S
H796 C800 0.929 . S
H797 C806 0.929 . S
C798 H792 0.930 . S
C798 C799 1.367 . S
C798 C806 1.378 . S
C799 C798 1.367 . S
C799 C807 1.433 . S
C800 H796 0.929 . S
C800 C802 1.378 . S
C800 C804 1.350 . S
C801 C804 1.463 . S
C801 C806 1.350 . S
C801 N809 1.427 . S
C802 H793 0.930 . S
C802 C800 1.378 . S
C802 C803 1.367 . S
C803 C802 1.367 . S
C803 C805 1.433 . S
C804 C800 1.350 . S
C804 C801 1.463 . S
C804 N808 1.427 . S
C805 H795 0.929 . S
C805 C803 1.433 . S
C805 N808 1.384 . S
C806 H797 0.929 . S
C806 C798 1.378 . S
C806 C801 1.350 . S
C807 H794 0.929 . S
C807 C799 1.433 . S
C807 N809 1.384 . S
N808 C804 1.427 . S
N808 C805 1.384 . S
N809 C801 1.427 . S
N809 C807 1.384 . S
H810 C816 0.930 . S
H811 C820 0.930 . S
H812 C825 0.929 . S
H813 C823 0.929 . S
H814 C818 0.929 . S
H815 C824 0.929 . S
C816 H810 0.930 . S
C816 C817 1.367 . S
C816 C824 1.378 . S
C817 C816 1.367 . S
C817 C825 1.433 . S
C818 H814 0.929 . S
C818 C820 1.378 . S
C818 C822 1.350 . S
C819 C822 1.463 . S
C819 C824 1.350 . S
C819 N827 1.427 . S
C820 H811 0.930 . S
C820 C818 1.378 . S
C820 C821 1.367 . S
C821 C820 1.367 . S
C821 C823 1.433 . S
C822 C818 1.350 . S
C822 C819 1.463 . S
C822 N826 1.427 . S
C823 H813 0.929 . S
C823 C821 1.433 . S
C823 N826 1.384 . S
C824 H815 0.929 . S
C824 C816 1.378 . S
C824 C819 1.350 . S
C825 H812 0.929 . S
C825 C817 1.433 . S
C825 N827 1.384 . S
N826 C822 1.427 . S
N826 C823 1.384 . S
N827 C819 1.427 . S
N827 C825 1.384 . S
H828 C834 0.930 . S
H829 C838 0.930 . S
H830 C843 0.929 . S
H831 C841 0.929 . S
H832 C836 0.929 . S
H833 C842 0.929 . S
C834 H828 0.930 . S
C834 C835 1.367 . S
C834 C842 1.378 . S
C835 C834 1.367 . S
C835 C843 1.433 . S
C836 H832 0.929 . S
C836 C838 1.378 . S
C836 C840 1.350 . S
C837 C840 1.463 . S
C837 C842 1.350 . S
C837 N845 1.427 . S
C838 H829 0.930 . S
C838 C836 1.378 . S
C838 C839 1.367 . S
C839 C838 1.367 . S
C839 C841 1.433 . S
C840 C836 1.350 . S
C840 C837 1.463 . S
C840 N844 1.427 . S
C841 H831 0.929 . S
C841 C839 1.433 . S
C841 N844 1.384 . S
C842 H833 0.929 . S
C842 C834 1.378 . S
C842 C837 1.350 . S
C843 H830 0.929 . S
C843 C835 1.433 . S
C843 N845 1.384 . S
N844 C840 1.427 . S
N844 C841 1.384 . S
N845 C837 1.427 . S
N845 C843 1.384 . S
H846 C852 0.930 . S
H847 C856 0.930 . S
H848 C861 0.929 . S
H849 C859 0.929 . S
H850 C854 0.929 . S
H851 C860 0.929 . S
C852 H846 0.930 . S
C852 C853 1.367 . S
C852 C860 1.378 . S
C853 C852 1.367 . S
C853 C861 1.433 . S
C854 H850 0.929 . S
C854 C856 1.378 . S
C854 C858 1.350 . S
C855 C858 1.463 . S
C855 C860 1.350 . S
C855 N863 1.427 . S
C856 H847 0.930 . S
C856 C854 1.378 . S
C856 C857 1.367 . S
C857 C856 1.367 . S
C857 C859 1.433 . S
C858 C854 1.350 . S
C858 C855 1.463 . S
C858 N862 1.427 . S
C859 H849 0.929 . S
C859 C857 1.433 . S
C859 N862 1.384 . S
C860 H851 0.929 . S
C860 C852 1.378 . S
C860 C855 1.350 . S
C861 H848 0.929 . S
C861 C853 1.433 . S
C861 N863 1.384 . S
N862 C858 1.427 . S
N862 C859 1.384 . S
N863 C855 1.427 . S
N863 C861 1.384 . S
H864 C870 0.930 . S
H865 C874 0.930 . S
H866 C879 0.929 . S
H867 C877 0.929 . S
H868 C872 0.929 . S
H869 C878 0.929 . S
C870 H864 0.930 . S
C870 C871 1.367 . S
C870 C878 1.378 . S
C871 C870 1.367 . S
C871 C879 1.433 . S
C872 H868 0.929 . S
C872 C874 1.378 . S
C872 C876 1.350 . S
C873 C876 1.463 . S
C873 C878 1.350 . S
C873 N881 1.427 . S
C874 H865 0.930 . S
C874 C872 1.378 . S
C874 C875 1.367 . S
C875 C874 1.367 . S
C875 C877 1.433 . S
C876 C872 1.350 . S
C876 C873 1.463 . S
C876 N880 1.427 . S
C877 H867 0.929 . S
C877 C875 1.433 . S
C877 N880 1.384 . S
C878 H869 0.929 . S
C878 C870 1.378 . S
C878 C873 1.350 . S
C879 H866 0.929 . S
C879 C871 1.433 . S
C879 N881 1.384 . S
N880 C876 1.427 . S
N880 C877 1.384 . S
N881 C873 1.427 . S
N881 C879 1.384 . S
H882 C888 0.930 . S
H883 C892 0.930 . S
H884 C897 0.929 . S
H885 C895 0.929 . S
H886 C890 0.929 . S
H887 C896 0.929 . S
C888 H882 0.930 . S
C888 C889 1.367 . S
C888 C896 1.378 . S
C889 C888 1.367 . S
C889 C897 1.433 . S
C890 H886 0.929 . S
C890 C892 1.378 . S
C890 C894 1.350 . S
C891 C894 1.463 . S
C891 C896 1.350 . S
C891 N899 1.427 . S
C892 H883 0.930 . S
C892 C890 1.378 . S
C892 C893 1.367 . S
C893 C892 1.367 . S
C893 C895 1.433 . S
C894 C890 1.350 . S
C894 C891 1.463 . S
C894 N898 1.427 . S
C895 H885 0.929 . S
C895 C893 1.433 . S
C895 N898 1.384 . S
C896 H887 0.929 . S
C896 C888 1.378 . S
C896 C891 1.350 . S
C897 H884 0.929 . S
C897 C889 1.433 . S
C897 N899 1.384 . S
N898 C894 1.427 . S
N898 C895 1.384 . S
N899 C891 1.427 . S
N899 C897 1.384 . S
H900 C906 0.930 . S
H901 C910 0.930 . S
H902 C915 0.929 . S
H903 C913 0.929 . S
H904 C908 0.929 . S
H905 C914 0.929 . S
C906 H900 0.930 . S
C906 C907 1.367 . S
C906 C914 1.378 . S
C907 C906 1.367 . S
C907 C915 1.433 . S
C908 H904 0.929 . S
C908 C910 1.378 . S
C908 C912 1.350 . S
C909 C912 1.463 . S
C909 C914 1.350 . S
C909 N917 1.427 . S
C910 H901 0.930 . S
C910 C908 1.378 . S
C910 C911 1.367 . S
C911 C910 1.367 . S
C911 C913 1.433 . S
C912 C908 1.350 . S
C912 C909 1.463 . S
C912 N916 1.427 . S
C913 H903 0.929 . S
C913 C911 1.433 . S
C913 N916 1.384 . S
C914 H905 0.929 . S
C914 C906 1.378 . S
C914 C909 1.350 . S
C915 H902 0.929 . S
C915 C907 1.433 . S
C915 N917 1.384 . S
N916 C912 1.427 . S
N916 C913 1.384 . S
N917 C909 1.427 . S
N917 C915 1.384 . S
H918 C924 0.930 . S
H919 C928 0.930 . S
H920 C933 0.929 . S
H921 C931 0.929 . S
H922 C926 0.929 . S
H923 C932 0.929 . S
C924 H918 0.930 . S
C924 C925 1.367 . S
C924 C932 1.378 . S
C925 C924 1.367 . S
C925 C933 1.433 . S
C926 H922 0.929 . S
C926 C928 1.378 . S
C926 C930 1.350 . S
C927 C930 1.463 . S
C927 C932 1.350 . S
C927 N935 1.427 . S
C928 H919 0.930 . S
C928 C926 1.378 . S
C928 C929 1.367 . S
C929 C928 1.367 . S
C929 C931 1.433 . S
C930 C926 1.350 . S
C930 C927 1.463 . S
C930 N934 1.427 . S
C931 H921 0.929 . S
C931 C929 1.433 . S
C931 N934 1.384 . S
C932 H923 0.929 . S
C932 C924 1.378 . S
C932 C927 1.350 . S
C933 H920 0.929 . S
C933 C925 1.433 . S
C933 N935 1.384 . S
N934 C930 1.427 . S
N934 C931 1.384 . S
N935 C927 1.427 . S
N935 C933 1.384 . S
H936 C942 0.930 . S
H937 C946 0.930 . S
H938 C951 0.929 . S
H939 C949 0.929 . S
H940 C944 0.929 . S
H941 C950 0.929 . S
C942 H936 0.930 . S
C942 C943 1.367 . S
C942 C950 1.378 . S
C943 C942 1.367 . S
C943 C951 1.433 . S
C944 H940 0.929 . S
C944 C946 1.378 . S
C944 C948 1.350 . S
C945 C948 1.463 . S
C945 C950 1.350 . S
C945 N953 1.427 . S
C946 H937 0.930 . S
C946 C944 1.378 . S
C946 C947 1.367 . S
C947 C946 1.367 . S
C947 C949 1.433 . S
C948 C944 1.350 . S
C948 C945 1.463 . S
C948 N952 1.427 . S
C949 H939 0.929 . S
C949 C947 1.433 . S
C949 N952 1.384 . S
C950 H941 0.929 . S
C950 C942 1.378 . S
C950 C945 1.350 . S
C951 H938 0.929 . S
C951 C943 1.433 . S
C951 N953 1.384 . S
N952 C948 1.427 . S
N952 C949 1.384 . S
N953 C945 1.427 . S
N953 C951 1.384 . S
H954 C960 0.930 . S
H955 C964 0.930 . S
H956 C969 0.929 . S
H957 C967 0.929 . S
H958 C962 0.929 . S
H959 C968 0.929 . S
C960 H954 0.930 . S
C960 C961 1.367 . S
C960 C968 1.378 . S
C961 C960 1.367 . S
C961 C969 1.433 . S
C962 H958 0.929 . S
C962 C964 1.378 . S
C962 C966 1.350 . S
C963 C966 1.463 . S
C963 C968 1.350 . S
C963 N971 1.427 . S
C964 H955 0.930 . S
C964 C962 1.378 . S
C964 C965 1.367 . S
C965 C964 1.367 . S
C965 C967 1.433 . S
C966 C962 1.350 . S
C966 C963 1.463 . S
C966 N970 1.427 . S
C967 H957 0.929 . S
C967 C965 1.433 . S
C967 N970 1.384 . S
C968 H959 0.929 . S
C968 C960 1.378 . S
C968 C963 1.350 . S
C969 H956 0.929 . S
C969 C961 1.433 . S
C969 N971 1.384 . S
N970 C966 1.427 . S
N970 C967 1.384 . S
N971 C963 1.427 . S
N971 C969 1.384 . S
H972 C978 0.930 . S
H973 C982 0.930 . S
H974 C987 0.929 . S
H975 C985 0.929 . S
H976 C980 0.929 . S
H977 C986 0.929 . S
C978 H972 0.930 . S
C978 C979 1.367 . S
C978 C986 1.378 . S
C979 C978 1.367 . S
C979 C987 1.433 . S
C980 H976 0.929 . S
C980 C982 1.378 . S
C980 C984 1.350 . S
C981 C984 1.463 . S
C981 C986 1.350 . S
C981 N989 1.427 . S
C982 H973 0.930 . S
C982 C980 1.378 . S
C982 C983 1.367 . S
C983 C982 1.367 . S
C983 C985 1.433 . S
C984 C980 1.350 . S
C984 C981 1.463 . S
C984 N988 1.427 . S
C985 H975 0.929 . S
C985 C983 1.433 . S
C985 N988 1.384 . S
C986 H977 0.929 . S
C986 C978 1.378 . S
C986 C981 1.350 . S
C987 H974 0.929 . S
C987 C979 1.433 . S
C987 N989 1.384 . S
N988 C984 1.427 . S
N988 C985 1.384 . S
N989 C981 1.427 . S
N989 C987 1.384 . S
H990 C996 0.930 . S
H991 C1000 0.930 . S
H992 C1005 0.929 . S
H993 C1003 0.929 . S
H994 C998 0.929 . S
H995 C1004 0.929 . S
C996 H990 0.930 . S
C996 C997 1.367 . S
C996 C1004 1.378 . S
C997 C996 1.367 . S
C997 C1005 1.433 . S
C998 H994 0.929 . S
C998 C1000 1.378 . S
C998 C1002 1.350 . S
C999 C1002 1.463 . S
C999 C1004 1.350 . S
C999 N1007 1.427 . S
C1000 H991 0.930 . S
C1000 C998 1.378 . S
C1000 C1001 1.367 . S
C1001 C1000 1.367 . S
C1001 C1003 1.433 . S
C1002 C998 1.350 . S
C1002 C999 1.463 . S
C1002 N1006 1.427 . S
C1003 H993 0.929 . S
C1003 C1001 1.433 . S
C1003 N1006 1.384 . S
C1004 H995 0.929 . S
C1004 C996 1.378 . S
C1004 C999 1.350 . S
C1005 H992 0.929 . S
C1005 C997 1.433 . S
C1005 N1007 1.384 . S
N1006 C1002 1.427 . S
N1006 C1003 1.384 . S
N1007 C999 1.427 . S
N1007 C1005 1.384 . S
H1008 C1014 0.930 . S
H1009 C1018 0.930 . S
H1010 C1023 0.929 . S
H1011 C1021 0.929 . S
H1012 C1016 0.929 . S
H1013 C1022 0.929 . S
C1014 H1008 0.930 . S
C1014 C1015 1.367 . S
C1014 C1022 1.378 . S
C1015 C1014 1.367 . S
C1015 C1023 1.433 . S
C1016 H1012 0.929 . S
C1016 C1018 1.378 . S
C1016 C1020 1.350 . S
C1017 C1020 1.463 . S
C1017 C1022 1.350 . S
C1017 N1025 1.427 . S
C1018 H1009 0.930 . S
C1018 C1016 1.378 . S
C1018 C1019 1.367 . S
C1019 C1018 1.367 . S
C1019 C1021 1.433 . S
C1020 C1016 1.350 . S
C1020 C1017 1.463 . S
C1020 N1024 1.427 . S
C1021 H1011 0.929 . S
C1021 C1019 1.433 . S
C1021 N1024 1.384 . S
C1022 H1013 0.929 . S
C1022 C1014 1.378 . S
C1022 C1017 1.350 . S
C1023 H1010 0.929 . S
C1023 C1015 1.433 . S
C1023 N1025 1.384 . S
N1024 C1020 1.427 . S
N1024 C1021 1.384 . S
N1025 C1017 1.427 . S
N1025 C1023 1.384 . S
H1026 C1032 0.930 . S
H1027 C1036 0.930 . S
H1028 C1041 0.929 . S
H1029 C1039 0.929 . S
H1030 C1034 0.929 . S
H1031 C1040 0.929 . S
C1032 H1026 0.930 . S
C1032 C1033 1.367 . S
C1032 C1040 1.378 . S
C1033 C1032 1.367 . S
C1033 C1041 1.433 . S
C1034 H1030 0.929 . S
C1034 C1036 1.378 . S
C1034 C1038 1.350 . S
C1035 C1038 1.463 . S
C1035 C1040 1.350 . S
C1035 N1043 1.427 . S
C1036 H1027 0.930 . S
C1036 C1034 1.378 . S
C1036 C1037 1.367 . S
C1037 C1036 1.367 . S
C1037 C1039 1.433 . S
C1038 C1034 1.350 . S
C1038 C1035 1.463 . S
C1038 N1042 1.427 . S
C1039 H1029 0.929 . S
C1039 C1037 1.433 . S
C1039 N1042 1.384 . S
C1040 H1031 0.929 . S
C1040 C1032 1.378 . S
C1040 C1035 1.350 . S
C1041 H1028 0.929 . S
C1041 C1033 1.433 . S
C1041 N1043 1.384 . S
N1042 C1038 1.427 . S
N1042 C1039 1.384 . S
N1043 C1035 1.427 . S
N1043 C1041 1.384 . S
H1044 C1050 0.930 . S
H1045 C1054 0.930 . S
H1046 C1059 0.929 . S
H1047 C1057 0.929 . S
H1048 C1052 0.929 . S
H1049 C1058 0.929 . S
C1050 H1044 0.930 . S
C1050 C1051 1.367 . S
C1050 C1058 1.378 . S
C1051 C1050 1.367 . S
C1051 C1059 1.433 . S
C1052 H1048 0.929 . S
C1052 C1054 1.378 . S
C1052 C1056 1.350 . S
C1053 C1056 1.463 . S
C1053 C1058 1.350 . S
C1053 N1061 1.427 . S
C1054 H1045 0.930 . S
C1054 C1052 1.378 . S
C1054 C1055 1.367 . S
C1055 C1054 1.367 . S
C1055 C1057 1.433 . S
C1056 C1052 1.350 . S
C1056 C1053 1.463 . S
C1056 N1060 1.427 . S
C1057 H1047 0.929 . S
C1057 C1055 1.433 . S
C1057 N1060 1.384 . S
C1058 H1049 0.929 . S
C1058 C1050 1.378 . S
C1058 C1053 1.350 . S
C1059 H1046 0.929 . S
C1059 C1051 1.433 . S
C1059 N1061 1.384 . S
N1060 C1056 1.427 . S
N1060 C1057 1.384 . S
N1061 C1053 1.427 . S
N1061 C1059 1.384 . S
C641 C334 1.569 . S
C637 C16 1.573 . S
C659 C403 1.538 . S
C655 C55 1.544 . S
C677 C341 1.558 . S
C673 C99 1.563 . S
C695 C404 1.536 . S
C691 C138 1.539 . S
C713 C457 1.572 . S
C709 C1 1.574 . S
C731 C493 1.524 . S
C727 C40 1.522 . S
C745 C94 1.555 . S
C749 C553 1.550 . S
C767 C616 1.521 . S
C763 C133 1.521 . S
C785 C456 1.543 . S
C781 C60 1.546 . S
C799 C79 1.532 . S
C803 C500 1.529 . S
C821 C546 1.539 . S
C817 C118 1.541 . S
C839 C615 1.532 . S
C835 C21 1.534 . S
C853 C177 1.548 . S
C857 C394 1.543 . S
C875 C351 1.555 . S
C871 C211 1.559 . S
C889 C255 1.547 . S
C893 C387 1.541 . S
C907 C289 1.567 . S
C911 C350 1.562 . S
C929 C562 1.544 . S
C925 C157 1.546 . S
C947 C606 1.531 . S
C943 C196 1.530 . S
C965 C440 1.560 . S
C961 C250 1.566 . S
C979 C294 1.523 . S
C983 C509 1.527 . S
C1001 C563 1.545 . S
C997 C216 1.550 . S
C1019 C599 1.528 . S
C1015 C235 1.527 . S
C1037 C447 1.570 . S
C1033 C274 1.573 . S
C1051 C172 1.528 . S
C1055 C510 1.526 . S
