# Generated by pormake.
# Topology apo, (3,6)-cn, num edge types: 1
# Building blocks:
#     Node 0, Type 0, BuildingBlock: INOVEN_clean_linker_0, # of connection points: 3
#     Node 1, Type 0, BuildingBlock: INOVEN_clean_linker_0, # of connection points: 3
#     Node 2, Type 0, BuildingBlock: INOVEN_clean_linker_0, # of connection points: 3
#     Node 3, Type 0, BuildingBlock: INOVEN_clean_linker_0, # of connection points: 3
#     Node 4, Type 0, BuildingBlock: INOVEN_clean_linker_0, # of connection points: 3
#     Node 5, Type 0, BuildingBlock: INOVEN_clean_linker_0, # of connection points: 3
#     Node 6, Type 0, BuildingBlock: INOVEN_clean_linker_0, # of connection points: 3
#     Node 7, Type 0, BuildingBlock: INOVEN_clean_linker_0, # of connection points: 3
#     Node 8, Type 1, BuildingBlock: MIDCAF_clean_sbu_0, # of connection points: 6
#     Node 9, Type 1, BuildingBlock: MIDCAF_clean_sbu_0, # of connection points: 6
#     Node 10, Type 1, BuildingBlock: MIDCAF_clean_sbu_0, # of connection points: 6
#     Node 11, Type 1, BuildingBlock: MIDCAF_clean_sbu_0, # of connection points: 6
#     Edge 12, Type (0, 1), BuildingBlock: EZIPEK_clean_linker_0, # of connection points: 2
#     Edge 13, Type (0, 1), BuildingBlock: EZIPEK_clean_linker_0, # of connection points: 2
#     Edge 14, Type (0, 1), BuildingBlock: EZIPEK_clean_linker_0, # of connection points: 2
#     Edge 15, Type (0, 1), BuildingBlock: EZIPEK_clean_linker_0, # of connection points: 2
#     Edge 16, Type (0, 1), BuildingBlock: EZIPEK_clean_linker_0, # of connection points: 2
#     Edge 17, Type (0, 1), BuildingBlock: EZIPEK_clean_linker_0, # of connection points: 2
#     Edge 18, Type (0, 1), BuildingBlock: EZIPEK_clean_linker_0, # of connection points: 2
#     Edge 19, Type (0, 1), BuildingBlock: EZIPEK_clean_linker_0, # of connection points: 2
#     Edge 20, Type (0, 1), BuildingBlock: EZIPEK_clean_linker_0, # of connection points: 2
#     Edge 21, Type (0, 1), BuildingBlock: EZIPEK_clean_linker_0, # of connection points: 2
#     Edge 22, Type (0, 1), BuildingBlock: EZIPEK_clean_linker_0, # of connection points: 2
#     Edge 23, Type (0, 1), BuildingBlock: EZIPEK_clean_linker_0, # of connection points: 2
#     Edge 24, Type (0, 1), BuildingBlock: EZIPEK_clean_linker_0, # of connection points: 2
#     Edge 25, Type (0, 1), BuildingBlock: EZIPEK_clean_linker_0, # of connection points: 2
#     Edge 26, Type (0, 1), BuildingBlock: EZIPEK_clean_linker_0, # of connection points: 2
#     Edge 27, Type (0, 1), BuildingBlock: EZIPEK_clean_linker_0, # of connection points: 2
#     Edge 28, Type (0, 1), BuildingBlock: EZIPEK_clean_linker_0, # of connection points: 2
#     Edge 29, Type (0, 1), BuildingBlock: EZIPEK_clean_linker_0, # of connection points: 2
#     Edge 30, Type (0, 1), BuildingBlock: EZIPEK_clean_linker_0, # of connection points: 2
#     Edge 31, Type (0, 1), BuildingBlock: EZIPEK_clean_linker_0, # of connection points: 2
#     Edge 32, Type (0, 1), BuildingBlock: EZIPEK_clean_linker_0, # of connection points: 2
#     Edge 33, Type (0, 1), BuildingBlock: EZIPEK_clean_linker_0, # of connection points: 2
#     Edge 34, Type (0, 1), BuildingBlock: EZIPEK_clean_linker_0, # of connection points: 2
#     Edge 35, Type (0, 1), BuildingBlock: EZIPEK_clean_linker_0, # of connection points: 2
# Relax obj value: 0.015
# Max RMSD: 0.064
# Mean RMSD: 0.051
data_MOF--net-apo--node1-MIDCAF_clean_sbu_0--node2-INOVEN_clean_linker_0--edge1-EZIPEK_clean_linker_0
_symmetry_space_group_name_H-M    P1
_symmetry_Int_Tables_number       1
_symmetry_cell_setting            triclinic
loop_
_symmetry_equiv_pos_as_xyz
'x, y, z'
_cell_length_a     27.013442
_cell_length_b     30.282916
_cell_length_c     24.39199
_cell_angle_alpha  89.426241
_cell_angle_beta   90.127573
_cell_angle_gamma 90.469155
loop_
_atom_site_label
_atom_site_type_symbol
_atom_site_fract_x
_atom_site_fract_y
_atom_site_fract_z
_atom_type_partial_charge
H0 H 0.35283 0.25225 0.44195 0.0
H1 H 0.41275 0.38475 0.44733 0.0
H2 H 0.32113 0.34617 0.31276 0.0
N3 N 0.30065 0.26421 0.34959 0.0
N4 N 0.28057 0.27262 0.30452 0.0
C5 C 0.35697 0.28501 0.42421 0.0
C6 C 0.38554 0.31731 0.45142 0.0
C7 C 0.33326 0.29526 0.37426 0.0
C8 C 0.33943 0.3375 0.35092 0.0
C9 C 0.36868 0.36927 0.37656 0.0
C10 C 0.39081 0.35952 0.42715 0.0
H11 H 0.211 0.19932 0.95937 0.0
H12 H 0.10973 0.08957 0.96571 0.0
H13 H 0.21338 0.10139 0.83225 0.0
N14 N 0.25158 0.18108 0.86433 0.0
N15 N 0.27395 0.16932 0.8222 0.0
C16 C 0.19623 0.16937 0.94143 0.0
C17 C 0.15881 0.1456 0.96876 0.0
C18 C 0.21517 0.15448 0.89134 0.0
C19 C 0.19756 0.11418 0.86958 0.0
C20 C 0.15894 0.09059 0.89599 0.0
C21 C 0.13919 0.10746 0.94476 0.0
H22 H 0.83326 0.22743 0.62158 0.0
H23 H 0.92064 0.10949 0.61044 0.0
H24 H 0.84731 0.13972 0.76103 0.0
N25 N 0.80335 0.21426 0.72457 0.0
N26 N 0.7864 0.20265 0.7702 0.0
C27 C 0.84891 0.19819 0.64057 0.0
C28 C 0.87949 0.17035 0.60972 0.0
C29 C 0.83727 0.18756 0.69543 0.0
C30 C 0.85683 0.14902 0.71933 0.0
C31 C 0.88684 0.12103 0.68882 0.0
C32 C 0.89829 0.13182 0.6343 0.0
H33 H 0.68117 0.26432 0.12071 0.0
H34 H 0.58348 0.37569 0.11923 0.0
H35 H 0.67078 0.34752 0.26255 0.0
N36 N 0.7176 0.27664 0.21996 0.0
N37 N 0.73942 0.28848 0.26264 0.0
C38 C 0.66419 0.29164 0.14177 0.0
C39 C 0.62967 0.31819 0.11406 0.0
C40 C 0.67907 0.30175 0.19548 0.0
C41 C 0.65832 0.33833 0.22195 0.0
C42 C 0.6232 0.3646 0.19483 0.0
C43 C 0.60887 0.35422 0.14111 0.0
H44 H 0.69344 0.7113 0.56879 0.0
H45 H 0.58841 0.60432 0.56813 0.0
H46 H 0.69415 0.61471 0.69979 0.0
N47 N 0.73283 0.69384 0.66565 0.0
N48 N 0.75389 0.68225 0.70906 0.0
C49 C 0.67765 0.68215 0.58832 0.0
C50 C 0.6396 0.65868 0.5621 0.0
C51 C 0.69609 0.66761 0.63924 0.0
C52 C 0.67799 0.62768 0.66234 0.0
C53 C 0.63886 0.60446 0.63687 0.0
C54 C 0.61852 0.62177 0.58822 0.0
H55 H 0.81588 0.8647 0.23696 0.0
H56 H 0.89806 0.89612 0.09092 0.0
H57 H 0.8077 0.7788 0.09753 0.0
N58 N 0.76639 0.79797 0.19667 0.0
N59 N 0.74459 0.76606 0.17553 0.0
C60 C 0.8265 0.85711 0.19529 0.0
C61 C 0.85939 0.88497 0.16698 0.0
C62 C 0.80546 0.8205 0.16948 0.0
C63 C 0.82129 0.80875 0.11648 0.0
C64 C 0.85545 0.83569 0.08829 0.0
C65 C 0.87216 0.87486 0.11285 0.0
H66 H 0.18053 0.75485 0.43406 0.0
H67 H 0.07329 0.85737 0.44958 0.0
H68 H 0.17448 0.85934 0.31341 0.0
N69 N 0.2147 0.77918 0.33718 0.0
N70 N 0.23309 0.79369 0.29362 0.0
C71 C 0.16281 0.78415 0.41771 0.0
C72 C 0.1264 0.80528 0.4483 0.0
C73 C 0.17836 0.8022 0.36733 0.0
C74 C 0.15926 0.84318 0.34949 0.0
C75 C 0.12092 0.86348 0.37895 0.0
C76 C 0.10259 0.84216 0.42617 0.0
H77 H 0.37475 0.64039 0.76635 0.0
H78 H 0.41279 0.60113 0.93095 0.0
H79 H 0.31999 0.71365 0.90395 0.0
N80 N 0.31259 0.70257 0.79287 0.0
N81 N 0.28038 0.72859 0.80897 0.0
C82 C 0.37354 0.64603 0.81015 0.0
C83 C 0.39691 0.61635 0.84616 0.0
C84 C 0.34413 0.68004 0.83037 0.0
C85 C 0.34224 0.6873 0.88755 0.0
C86 C 0.36863 0.65973 0.92379 0.0
C87 C 0.3946 0.62377 0.90282 0.0
Zn88 Zn 0.0578 0.13098 0.36767 0.0
Zn89 Zn 0.95407 0.13782 0.19885 0.0
Zn90 Zn 0.00522 0.12708 0.28432 0.0
C91 C 0.04645 0.15568 0.16244 0.0
C92 C 0.94565 0.04914 0.23239 0.0
O93 O 0.96268 0.15925 0.35288 0.0
O94 O 0.0112 0.14842 0.42472 0.0
C95 C 0.11138 0.17648 0.29452 0.0
O96 O 0.05259 0.15327 0.21498 0.0
O97 O 0.00425 0.14876 0.14203 0.0
O98 O 0.9249 0.07783 0.2026 0.0
O99 O 0.98145 0.05985 0.26465 0.0
O100 O 0.10942 0.17283 0.34594 0.0
O101 O 0.07694 0.15978 0.2643 0.0
O102 O 0.01938 0.05672 0.30536 0.0
O103 O 0.07806 0.06881 0.36679 0.0
C104 C 0.0534 0.04221 0.33788 0.0
O105 O 0.93856 0.16763 0.30313 0.0
O106 O 0.91044 0.18588 0.22073 0.0
C107 C 0.97051 0.16115 0.40514 0.0
C108 C 0.90801 0.18899 0.27212 0.0
Zn109 Zn 0.58057 0.33697 0.7022 0.0
Zn110 Zn 0.46063 0.35994 0.85479 0.0
Zn111 Zn 0.52022 0.35197 0.77485 0.0
C112 C 0.4698 0.44333 0.81256 0.0
C113 C 0.41874 0.29723 0.78604 0.0
O114 O 0.58832 0.31719 0.80831 0.0
O115 O 0.63588 0.30828 0.73571 0.0
C116 C 0.57197 0.42975 0.70718 0.0
O117 O 0.50338 0.4235 0.78472 0.0
O118 O 0.44187 0.42187 0.84461 0.0
O119 O 0.41395 0.31366 0.83295 0.0
O120 O 0.45456 0.30984 0.7544 0.0
O121 O 0.59421 0.3998 0.6816 0.0
O122 O 0.54051 0.4191 0.74479 0.0
O123 O 0.48101 0.32147 0.70092 0.0
O124 O 0.54368 0.30018 0.65028 0.0
C125 C 0.49783 0.30584 0.65538 0.0
O126 O 0.55645 0.32583 0.85157 0.0
O127 O 0.50441 0.34559 0.91673 0.0
C128 C 0.62881 0.30345 0.78628 0.0
C129 C 0.54502 0.32892 0.90286 0.0
Zn130 Zn 0.05575 0.827 0.84203 0.0
Zn131 Zn 0.95717 0.86559 0.68688 0.0
Zn132 Zn 0.00405 0.85707 0.77198 0.0
C133 C 0.95224 0.94757 0.73769 0.0
C134 C 0.90574 0.80347 0.74962 0.0
O135 O 0.07661 0.82479 0.7447 0.0
O136 O 0.10253 0.78511 0.81545 0.0
C137 C 0.06787 0.9231 0.83311 0.0
O138 O 0.98573 0.92978 0.76844 0.0
O139 O 0.93457 0.92573 0.69836 0.0
O140 O 0.90852 0.81852 0.70141 0.0
O141 O 0.93649 0.81669 0.78663 0.0
O142 O 0.08615 0.88818 0.85347 0.0
O143 O 0.02978 0.9203 0.80154 0.0
O144 O 0.95737 0.82847 0.84266 0.0
O145 O 0.0139 0.80155 0.89824 0.0
C146 C 0.96966 0.81223 0.89008 0.0
O147 O 0.04306 0.82877 0.69912 0.0
O148 O 0.002 0.85309 0.62651 0.0
C149 C 0.10829 0.79809 0.76683 0.0
C150 C 0.03772 0.83192 0.6466 0.0
Zn151 Zn 0.51904 0.61007 0.17133 0.0
Zn152 Zn 0.43495 0.63159 0.33968 0.0
Zn153 Zn 0.48012 0.61858 0.25659 0.0
C154 C 0.52701 0.65167 0.37107 0.0
C155 C 0.4148 0.54444 0.30675 0.0
O156 O 0.43453 0.64586 0.18545 0.0
O157 O 0.46735 0.61128 0.11523 0.0
C158 C 0.57406 0.67216 0.22522 0.0
O159 O 0.53027 0.65104 0.31827 0.0
O160 O 0.48757 0.63934 0.39426 0.0
O161 O 0.39838 0.57488 0.33637 0.0
O162 O 0.45452 0.55196 0.27887 0.0
O163 O 0.56277 0.66272 0.1765 0.0
O164 O 0.54945 0.65526 0.26539 0.0
O165 O 0.50284 0.54682 0.25625 0.0
O166 O 0.55321 0.55491 0.18658 0.0
C167 C 0.53971 0.53264 0.22791 0.0
O168 O 0.41412 0.6587 0.23544 0.0
O169 O 0.39729 0.68423 0.3178 0.0
C170 C 0.4342 0.63583 0.13403 0.0
C171 C 0.38969 0.68467 0.26683 0.0
C172 C 0.09782 0.94002 0.4088 0.0
C173 C 0.10325 0.90922 0.3656 0.0
C174 C 0.07932 0.96789 0.30103 0.0
C175 C 0.06423 0.99459 0.34531 0.0
N176 N 0.04837 -0.00033 0.44251 0.0
N177 N 0.08812 0.89288 0.26989 0.0
C178 C 0.06957 0.97833 0.39957 0.0
C179 C 0.09065 0.92272 0.31131 0.0
N180 N 0.12231 0.93458 0.45743 0.0
N181 N 0.08661 0.98602 0.25032 0.0
H182 H 0.09171 0.859 0.27642 0.0
H183 H 0.07735 0.90163 0.23024 0.0
H184 H 0.0816 0.01955 0.24215 0.0
H185 H 0.10232 0.96848 0.21824 0.0
H186 H 0.12159 0.95813 0.48834 0.0
H187 H 0.14839 0.90984 0.46383 0.0
H188 H 0.04902 0.98693 0.4824 0.0
H189 H 0.02575 0.02716 0.43708 0.0
C190 C 0.4701 0.56562 0.84315 0.0
C191 C 0.42116 0.57553 0.82577 0.0
C192 C 0.41748 0.50435 0.77898 0.0
C193 C 0.4609 0.49112 0.80678 0.0
N194 N 0.52518 0.50739 0.87242 0.0
N195 N 0.34456 0.54932 0.78457 0.0
C196 C 0.48687 0.52142 0.84027 0.0
C197 C 0.39396 0.54395 0.79467 0.0
N198 N 0.50023 0.59825 0.86283 0.0
N199 N 0.39765 0.47802 0.73933 0.0
H200 H 0.32408 0.57558 0.7994 0.0
H201 H 0.32254 0.52497 0.76669 0.0
H202 H 0.41426 0.44855 0.72764 0.0
H203 H 0.36809 0.48773 0.71459 0.0
H204 H 0.53732 0.59317 0.87269 0.0
H205 H 0.48939 0.63123 0.86385 0.0
H206 H 0.54183 0.52717 0.90205 0.0
H207 H 0.53794 0.47497 0.872 0.0
C208 C 0.60764 0.55262 0.71304 0.0
C209 C 0.62122 0.56013 0.65734 0.0
C210 C 0.58806 0.48714 0.63526 0.0
C211 C 0.58307 0.47654 0.69163 0.0
N212 N 0.60216 0.49724 0.7848 0.0
N213 N 0.63898 0.52618 0.56997 0.0
C214 C 0.59651 0.50874 0.73101 0.0
C215 C 0.61575 0.52492 0.61964 0.0
N216 N 0.60371 0.58698 0.74846 0.0
N217 N 0.56571 0.46165 0.59647 0.0
H218 H 0.664 0.5511 0.55897 0.0
H219 H 0.6382 0.4996 0.5431 0.0
H220 H 0.54156 0.43592 0.60697 0.0
H221 H 0.56612 0.46993 0.55485 0.0
H222 H 0.59038 0.58284 0.78828 0.0
H223 H 0.60844 0.61983 0.73627 0.0
H224 H 0.61655 0.51902 0.81373 0.0
H225 H 0.59749 0.46495 0.79916 0.0
C226 C 0.93475 0.92923 0.192 0.0
C227 C 0.88254 0.92393 0.19404 0.0
C228 C 0.87738 0.99444 0.24152 0.0
C229 C 0.92744 0.0034 0.22808 0.0
N230 N 0.00014 0.98254 0.17755 0.0
N231 N 0.80283 0.95665 0.21303 0.0
C232 C 0.95556 0.97157 0.20022 0.0
C233 C 0.85324 0.95764 0.21744 0.0
N234 N 0.96438 0.89392 0.1824 0.0
N235 N 0.85275 0.02165 0.27623 0.0
H236 H 0.78349 0.9322 0.19198 0.0
H237 H 0.78057 0.98273 0.22515 0.0
H238 H 0.87012 0.04848 0.29498 0.0
H239 H 0.81721 0.01473 0.29066 0.0
H240 H 0.00286 0.89613 0.18233 0.0
H241 H 0.95036 0.86179 0.18112 0.0
H242 H 0.01956 0.9612 0.15228 0.0
H243 H 0.01518 0.01431 0.17962 0.0
C244 C 0.86754 0.04131 0.70641 0.0
C245 C 0.90082 0.07745 0.71202 0.0
C246 C 0.95917 0.02968 0.76139 0.0
C247 C 0.93072 0.99261 0.74561 0.0
N248 N 0.84769 0.96571 0.7322 0.0
N249 N 0.97748 0.10749 0.74688 0.0
C250 C 0.88149 -0.00067 0.72713 0.0
C251 C 0.94624 0.07221 0.7407 0.0
N252 N 0.82375 0.0466 0.67894 0.0
N253 N 0.99415 0.02508 0.80107 0.0
H254 H 0.96852 0.13929 0.73351 0.0
H255 H 0.0133 0.10466 0.76233 0.0
H256 H -0.00257 -0.00433 0.82305 0.0
H257 H 0.013 0.05165 0.81838 0.0
H258 H 0.80088 0.02037 0.66767 0.0
H259 H 0.81156 0.07705 0.66409 0.0
H260 H 0.81008 0.96913 0.72397 0.0
H261 H 0.85665 0.93568 0.75103 0.0
C262 C 0.56902 0.4111 0.25604 0.0
C263 C 0.60854 0.40781 0.21786 0.0
C264 C 0.61617 0.48797 0.21553 0.0
C265 C 0.56855 0.49115 0.23966 0.0
N266 N 0.51824 0.45981 0.31133 0.0
N267 N 0.67405 0.44316 0.16594 0.0
C268 C 0.54997 0.45386 0.26878 0.0
C269 C 0.63393 0.44629 0.19974 0.0
N270 N 0.54958 0.37347 0.27896 0.0
N271 N 0.64551 0.52477 0.21104 0.0
H272 H 0.69028 0.41317 0.15591 0.0
H273 H 0.68971 0.47028 0.14564 0.0
H274 H 0.63489 0.55498 0.22718 0.0
H275 H 0.68225 0.52412 0.19821 0.0
H276 H 0.51992 0.37284 0.306 0.0
H277 H 0.56335 0.3422 0.27043 0.0
H278 H 0.50563 0.43451 0.33697 0.0
H279 H 0.50941 0.49114 0.32527 0.0
C280 C 0.34752 0.44949 0.37382 0.0
C281 C 0.37381 0.41374 0.35116 0.0
C282 C 0.40847 0.4634 0.28054 0.0
C283 C 0.39105 0.49957 0.31097 0.0
N284 N 0.31806 0.52366 0.35858 0.0
N285 N 0.42464 0.38463 0.27875 0.0
C286 C 0.35266 0.4919 0.34958 0.0
C287 C 0.4022 0.41991 0.30248 0.0
N288 N 0.31781 0.44311 0.41855 0.0
N289 N 0.42772 0.47062 0.22949 0.0
H290 H 0.42203 0.35257 0.29449 0.0
H291 H 0.44834 0.38718 0.24532 0.0
H292 H 0.42639 0.5016 0.21046 0.0
H293 H 0.4392 0.44577 0.20342 0.0
H294 H 0.30306 0.46905 0.44082 0.0
H295 H 0.30992 0.412 0.43522 0.0
H296 H 0.28709 0.51878 0.38333 0.0
H297 H 0.31604 0.55225 0.33447 0.0
C298 C 0.13743 0.0108 0.91383 0.0
C299 C 0.14032 0.04666 0.87602 0.0
C300 C 0.10344 -0.00159 0.80605 0.0
C301 C 0.0915 0.96644 0.84718 0.0
N302 N 0.08785 0.94887 0.94406 0.0
N303 N 0.11727 0.07616 0.78703 0.0
C304 C 0.10598 0.97446 0.9022 0.0
C305 C 0.1212 0.04093 0.82208 0.0
N306 N 0.16549 0.01089 0.96048 0.0
N307 N 0.09875 0.98827 0.75186 0.0
H308 H 0.12694 0.10826 0.79796 0.0
H309 H 0.09958 0.07414 0.74912 0.0
H310 H 0.08743 0.95723 0.73836 0.0
H311 H 0.11102 0.00927 0.72053 0.0
H312 H 0.16722 0.98381 0.98715 0.0
H313 H 0.19132 0.03573 0.96889 0.0
H314 H 0.09441 0.95595 0.98521 0.0
H315 H 0.06136 0.92423 0.938 0.0
C316 C 0.10644 0.19201 0.03144 0.0
C317 C 0.14156 0.15798 0.0246 0.0
C318 C 0.12565 0.13088 0.11817 0.0
C319 C 0.08826 0.16326 0.12377 0.0
N320 N 0.0547 0.23275 0.09445 0.0
N321 N 0.19621 0.10502 0.0663 0.0
C322 C 0.08291 0.19675 0.08322 0.0
C323 C 0.15521 0.13095 0.06991 0.0
N324 N 0.09344 0.21799 0.98771 0.0
N325 N 0.13041 0.09799 0.15656 0.0
H326 H 0.21087 0.0875 0.09941 0.0
H327 H 0.21841 0.10458 0.03133 0.0
H328 H 0.11036 0.09691 0.19293 0.0
H329 H 0.15237 0.07029 0.15106 0.0
H330 H 0.06397 0.23993 0.98833 0.0
H331 H 0.11056 0.21589 0.94956 0.0
H332 H 0.0522 0.26022 0.06861 0.0
H333 H 0.03767 0.23674 0.13247 0.0
C334 C 0.465 0.31681 0.50383 0.0
C335 C 0.41367 0.30741 0.50309 0.0
C336 C 0.41945 0.28676 0.60078 0.0
C337 C 0.46775 0.30532 0.60347 0.0
N338 N 0.52987 0.3504 0.55629 0.0
N339 N 0.33985 0.28893 0.55486 0.0
C340 C 0.48887 0.32368 0.5546 0.0
C341 C 0.39006 0.29372 0.55268 0.0
N342 N 0.49118 0.3194 0.45603 0.0
N343 N 0.40265 0.26062 0.64255 0.0
H344 H 0.31692 0.29501 0.52126 0.0
H345 H 0.32095 0.28283 0.59141 0.0
H346 H 0.4258 0.25149 0.67483 0.0
H347 H 0.36889 0.24374 0.64121 0.0
H348 H 0.52962 0.323 0.45524 0.0
H349 H 0.47526 0.31283 0.41791 0.0
H350 H 0.54337 0.36708 0.52174 0.0
H351 H 0.54639 0.36082 0.59252 0.0
C352 C 0.64073 0.33985 1.01527 0.0
C353 C 0.61823 0.31151 0.05486 0.0
C354 C 0.56393 0.28122 0.98358 0.0
C355 C 0.57929 0.31562 0.94754 0.0
N356 N 0.63306 0.37744 0.92731 0.0
N357 N 0.55996 0.25356 0.07733 0.0
C358 C 0.61887 0.34419 0.96232 0.0
C359 C 0.58092 0.28099 0.03892 0.0
N360 N 0.6827 0.36282 0.02874 0.0
N361 N 0.53256 0.24922 0.96456 0.0
H362 H 0.5725 0.25185 0.11777 0.0
H363 H 0.5288 0.23405 0.07002 0.0
H364 H 0.52008 0.24903 0.924 0.0
H365 H 0.52261 0.22111 0.98696 0.0
H366 H 0.70355 0.38106 1.00056 0.0
H367 H 0.69923 0.36039 0.06735 0.0
H368 H 0.65731 0.40281 0.93806 0.0
H369 H 0.6186 0.38088 0.88785 0.0
C370 C 0.92762 0.21031 0.53527 0.0
C371 C 0.89045 0.17921 0.55056 0.0
C372 C 0.89226 0.14735 0.45831 0.0
C373 C 0.93251 0.1758 0.44488 0.0
N374 N 0.97662 0.24327 0.46165 0.0
N375 N 0.82657 0.12838 0.52265 0.0
C376 C 0.94574 0.21061 0.48048 0.0
C377 C 0.86892 0.15135 0.51039 0.0
N378 N 0.94788 0.23743 0.57388 0.0
N379 N 0.87886 0.11453 0.42311 0.0
H380 H 0.80902 0.1309 0.56057 0.0
H381 H 0.80651 0.11022 0.49407 0.0
H382 H 0.89412 0.11166 0.38412 0.0
H383 H 0.85413 0.0892 0.43313 0.0
H384 H 0.97899 0.25719 0.56693 0.0
H385 H 0.93502 0.23854 0.6141 0.0
H386 H 0.98514 0.27163 0.48365 0.0
H387 H 0.98981 0.24366 0.42142 0.0
C388 C 0.85641 0.81608 0.98628 0.0
C389 C 0.88085 0.8209 0.03753 0.0
C390 C 0.95981 0.82488 0.99118 0.0
C391 C 0.9372 0.81464 0.93989 0.0
N392 N 0.86413 0.78714 0.89447 0.0
N393 N 0.95654 0.80967 0.08798 0.0
C394 C 0.88528 0.80645 0.93885 0.0
C395 C 0.93281 0.81799 0.0396 0.0
N396 N 0.80647 0.82144 0.98238 0.0
N397 N 0.0053 0.84477 0.99432 0.0
H398 H 0.93713 0.80179 0.12377 0.0
H399 H 0.99478 0.80535 0.09032 0.0
H400 H 0.02397 0.85737 0.96026 0.0
H401 H 0.02072 0.85475 0.03151 0.0
H402 H 0.78786 0.822 0.94489 0.0
H403 H 0.7845 0.82852 1.01622 0.0
H404 H 0.82685 0.77809 0.89274 0.0
H405 H 0.88595 0.7746 0.86338 0.0
C406 C 0.58814 0.7011 0.49337 0.0
C407 C 0.62424 0.66858 0.50464 0.0
C408 C 0.60751 0.63332 0.41654 0.0
C409 C 0.56915 0.66408 0.40677 0.0
N410 N 0.53293 0.73435 0.42596 0.0
N411 N 0.68034 0.61436 0.46994 0.0
C412 C 0.56327 0.7007 0.44183 0.0
C413 C 0.63828 0.63857 0.46334 0.0
N414 N 0.5756 0.73045 0.53305 0.0
N415 N 0.61169 0.59698 0.38415 0.0
H416 H 0.70333 0.61784 0.50411 0.0
H417 H 0.69478 0.59441 0.43944 0.0
H418 H 0.58935 0.59171 0.34989 0.0
H419 H 0.63507 0.57072 0.3932 0.0
H420 H 0.54566 0.75175 0.52985 0.0
H421 H 0.59418 0.73211 0.57052 0.0
H422 H 0.52947 0.76365 0.44753 0.0
H423 H 0.51471 0.73432 0.38814 0.0
C424 C 0.40206 0.69733 1.00808 0.0
C425 C 0.36885 0.66629 0.98439 0.0
C426 C 0.36105 0.62752 0.07278 0.0
C427 C 0.39887 0.655 0.09406 0.0
N428 N 0.4426 0.72406 0.09086 0.0
N429 N 0.30503 0.61145 0.99706 0.0
C430 C 0.41441 0.6931 0.0647 0.0
C431 C 0.34397 0.63483 1.01815 0.0
N432 N 0.42454 0.72854 0.97563 0.0
N433 N 0.34407 0.5929 0.10393 0.0
H434 H 0.29222 0.61675 0.95713 0.0
H435 H 0.28313 0.58972 1.01995 0.0
H436 H 0.35509 0.58851 0.14468 0.0
H437 H 0.32035 0.56837 0.08952 0.0
H438 H 0.45335 0.74887 0.9888 0.0
H439 H 0.41554 0.73302 0.93438 0.0
H440 H 0.45271 0.75432 0.07347 0.0
H441 H 0.45203 0.72073 0.13223 0.0
C442 C 0.14259 0.8215 0.54614 0.0
C443 C 0.11763 0.79499 0.50711 0.0
C444 C 0.05462 0.77622 0.57533 0.0
C445 C 0.07257 0.81121 0.60822 0.0
N446 N 0.13471 0.8664 0.62735 0.0
N447 N 0.05374 0.74261 0.48515 0.0
C448 C 0.11783 0.83272 0.59531 0.0
C449 C 0.07539 0.77 0.52247 0.0
N450 N 0.18893 0.83736 0.53475 0.0
N451 N 0.01697 0.75 0.5945 0.0
H452 H 0.06984 0.73661 0.44709 0.0
H453 H 0.01969 0.72699 0.49111 0.0
H454 H 0.00174 0.75428 0.63339 0.0
H455 H 0.00396 0.72207 0.57434 0.0
H456 H 0.21079 0.85417 0.56304 0.0
H457 H 0.20728 0.82992 0.49845 0.0
H458 H 0.16442 0.88686 0.61684 0.0
H459 H 0.11701 0.87554 0.66336 0.0
C460 C 0.20172 0.26507 0.25773 0.0
C461 C 0.24371 0.2448 0.28133 0.0
C462 C 0.20174 0.17336 0.28183 0.0
C463 C 0.15682 0.1957 0.27091 0.0
N464 N 0.11364 0.2593 0.23691 0.0
N465 N 0.29099 0.17903 0.29536 0.0
C466 C 0.15694 0.24034 0.25349 0.0
C467 C 0.24617 0.19839 0.28667 0.0
N468 N 0.20477 0.30844 0.24215 0.0
N469 N 0.20069 0.12866 0.29012 0.0
H470 H 0.32388 0.19738 0.29494 0.0
H471 H 0.29634 0.14517 0.29898 0.0
H472 H 0.16842 0.11002 0.28423 0.0
H473 H 0.23101 0.11 0.30223 0.0
H474 H 0.17628 0.32581 0.22329 0.0
H475 H 0.23771 0.32652 0.24562 0.0
H476 H 0.10971 0.29257 0.22709 0.0
H477 H 0.08097 0.24101 0.23279 0.0
C478 C 0.29523 0.24065 0.77841 0.0
C479 C 0.30949 0.19823 0.79723 0.0
C480 C 0.39689 0.21703 0.78191 0.0
C481 C 0.38304 0.26155 0.77199 0.0
N482 N 0.32071 0.31516 0.7514 0.0
N483 N 0.37043 0.14163 0.80424 0.0
C484 C 0.33246 0.27289 0.76625 0.0
C485 C 0.3594 0.18487 0.79399 0.0
N486 N 0.24603 0.2493 0.77173 0.0
N487 N 0.446 0.20651 0.78281 0.0
H488 H 0.34302 0.11821 0.8134 0.0
H489 H 0.40567 0.12832 0.80151 0.0
H490 H 0.47361 0.22933 0.7723 0.0
H491 H 0.45978 0.17564 0.79339 0.0
H492 H 0.23206 0.27883 0.75637 0.0
H493 H 0.21882 0.22522 0.77866 0.0
H494 H 0.28496 0.32759 0.75041 0.0
H495 H 0.34779 0.33821 0.73976 0.0
C496 C 0.75798 0.27458 0.80376 0.0
C497 C 0.75067 0.22862 0.79766 0.0
C498 C 0.66421 0.23547 0.82563 0.0
C499 C 0.66873 0.28152 0.81727 0.0
N500 N 0.7195 0.34655 0.81398 0.0
N501 N 0.7027 0.16334 0.81614 0.0
C502 C 0.71611 0.30156 0.81322 0.0
C503 C 0.70579 0.20835 0.81454 0.0
N504 N 0.80476 0.29169 0.80004 0.0
N505 N 0.61937 0.21824 0.84065 0.0
H506 H 0.73337 0.14359 0.80836 0.0
H507 H 0.67065 0.14556 0.82531 0.0
H508 H 0.58931 0.23857 0.84884 0.0
H509 H 0.61245 0.18487 0.8478 0.0
H510 H 0.81361 0.32487 0.80523 0.0
H511 H 0.83553 0.27146 0.7952 0.0
H512 H 0.75195 0.36447 0.8072 0.0
H513 H 0.68851 0.36595 0.82164 0.0
C514 C 0.82498 0.28454 0.29507 0.0
C515 C 0.77926 0.26319 0.28431 0.0
C516 C 0.81819 0.19092 0.29227 0.0
C517 C 0.86497 0.21241 0.29454 0.0
N518 N 0.91333 0.27704 0.31391 0.0
N519 N 0.72855 0.1982 0.29294 0.0
C520 C 0.86836 0.25856 0.302 0.0
C521 C 0.77465 0.21682 0.28971 0.0
N522 N 0.82683 0.3296 0.29508 0.0
N523 N 0.81604 0.14592 0.28933 0.0
H524 H 0.69661 0.21739 0.29321 0.0
H525 H 0.72198 0.16476 0.30029 0.0
H526 H 0.84754 0.12646 0.29362 0.0
H527 H 0.78382 0.12801 0.28142 0.0
H528 H 0.85927 0.34811 0.29835 0.0
H529 H 0.79494 0.34864 0.29094 0.0
H530 H 0.91894 0.31037 0.32197 0.0
H531 H 0.94492 0.2578 0.31933 0.0
C532 C 0.77729 0.75472 0.74644 0.0
C533 C 0.78962 0.71059 0.73405 0.0
C534 C 0.87628 0.72527 0.75859 0.0
C535 C 0.86548 0.77099 0.76026 0.0
N536 N 0.80626 0.82971 0.76254 0.0
N537 N 0.84747 0.65118 0.73534 0.0
C538 C 0.81585 0.78572 0.75719 0.0
C539 C 0.83806 0.69485 0.74361 0.0
N540 N 0.72859 0.76623 0.74896 0.0
N541 N 0.92331 0.71157 0.76992 0.0
H542 H 0.81944 0.62869 0.72535 0.0
H543 H 0.88247 0.63721 0.73716 0.0
H544 H 0.95141 0.73355 0.78114 0.0
H545 H 0.93399 0.67869 0.77178 0.0
H546 H 0.71627 0.79702 0.76132 0.0
H547 H 0.70009 0.74324 0.74317 0.0
H548 H 0.77199 0.84389 0.75463 0.0
H549 H 0.83361 0.85241 0.77392 0.0
C550 C 0.70757 0.70571 0.22841 0.0
C551 C 0.70275 0.74687 0.20141 0.0
C552 C 0.61336 0.74545 0.2161 0.0
C553 C 0.61728 0.7011 0.2338 0.0
N554 N 0.6666 0.63945 0.26304 0.0
N555 N 0.65295 0.80729 0.16927 0.0
C556 C 0.66415 0.68167 0.24315 0.0
C557 C 0.65622 0.76768 0.19629 0.0
N558 N 0.75384 0.68985 0.23903 0.0
N559 N 0.56829 0.76555 0.21747 0.0
H560 H 0.68393 0.82411 0.15405 0.0
H561 H 0.61964 0.82237 0.15915 0.0
H562 H 0.53673 0.7493 0.23235 0.0
H563 H 0.56291 0.79887 0.20869 0.0
H564 H 0.76083 0.66137 0.26183 0.0
H565 H 0.78581 0.70717 0.22753 0.0
H566 H 0.69899 0.62123 0.26588 0.0
H567 H 0.63518 0.62216 0.27593 0.0
C568 C 0.26005 0.72359 0.2542 0.0
C569 C 0.26946 0.76852 0.26606 0.0
C570 C 0.35717 0.75902 0.24537 0.0
C571 C 0.34927 0.71277 0.24625 0.0
N572 N 0.29417 0.65024 0.24225 0.0
N573 N 0.32295 0.83182 0.26284 0.0
C574 C 0.30069 0.69488 0.24618 0.0
C575 C 0.31675 0.78734 0.25686 0.0
N576 N 0.21219 0.70905 0.25092 0.0
N577 N 0.40377 0.77504 0.23567 0.0
H578 H 0.2931 0.85256 0.27052 0.0
H579 H 0.3569 0.84816 0.26066 0.0
H580 H 0.43319 0.75405 0.22705 0.0
H581 H 0.41285 0.80841 0.23287 0.0
H582 H 0.20191 0.67726 0.23951 0.0
H583 H 0.18242 0.73049 0.25542 0.0
H584 H 0.26038 0.63408 0.24773 0.0
H585 H 0.32354 0.62908 0.23426 0.0
C586 C 0.2067 0.7213 0.74958 0.0
C587 C 0.24499 0.74772 0.77276 0.0
C588 C 0.19668 0.81438 0.75579 0.0
C589 C 0.15594 0.78721 0.74129 0.0
N590 N 0.12663 0.71976 0.70315 0.0
N591 N 0.28337 0.81853 0.78328 0.0
C592 C 0.16322 0.74232 0.72972 0.0
C593 C 0.2424 0.79423 0.76998 0.0
N594 N 0.20975 0.67633 0.75144 0.0
N595 N 0.18961 0.8587 0.76143 0.0
H596 H 0.31669 0.80353 0.79426 0.0
H597 H 0.28559 0.85276 0.77979 0.0
H598 H 0.15609 0.87351 0.75102 0.0
H599 H 0.21591 0.88045 0.77716 0.0
H600 H 0.18074 0.65532 0.74063 0.0
H601 H 0.24067 0.6597 0.76623 0.0
H602 H 0.13004 0.68735 0.68993 0.0
H603 H 0.0943 0.73559 0.69036 0.0
loop_
_geom_bond_atom_site_label_1
_geom_bond_atom_site_label_2
_geom_bond_distance
_geom_bond_site_symmetry_2
_ccdc_geom_bond_type
H0 C5 0.929 . S
H1 C10 0.931 . S
H2 C8 0.930 . S
N3 N4 1.234 . S
N3 C7 1.453 . S
N4 N3 1.234 . S
C5 H0 0.929 . S
C5 C6 1.373 . S
C5 C7 1.368 . S
C6 C5 1.373 . S
C6 C10 1.397 . S
C7 N3 1.453 . S
C7 C5 1.368 . S
C7 C8 1.373 . S
C8 H2 0.930 . S
C8 C7 1.373 . S
C8 C9 1.371 . S
C9 C8 1.371 . S
C9 C10 1.383 . S
C10 H1 0.931 . S
C10 C6 1.397 . S
C10 C9 1.383 . S
H11 C16 0.929 . S
H12 C21 0.931 . S
H13 C19 0.930 . S
N14 N15 1.234 . S
N14 C18 1.453 . S
N15 N14 1.234 . S
C16 H11 0.929 . S
C16 C17 1.373 . S
C16 C18 1.368 . S
C17 C16 1.373 . S
C17 C21 1.397 . S
C18 N14 1.453 . S
C18 C16 1.368 . S
C18 C19 1.373 . S
C19 H13 0.930 . S
C19 C18 1.373 . S
C19 C20 1.371 . S
C20 C19 1.371 . S
C20 C21 1.383 . S
C21 H12 0.931 . S
C21 C17 1.397 . S
C21 C20 1.383 . S
H22 C27 0.929 . S
H23 C32 0.931 . S
H24 C30 0.930 . S
N25 N26 1.234 . S
N25 C29 1.453 . S
N26 N25 1.234 . S
C27 H22 0.929 . S
C27 C28 1.373 . S
C27 C29 1.368 . S
C28 C27 1.373 . S
C28 C32 1.397 . S
C29 N25 1.453 . S
C29 C27 1.368 . S
C29 C30 1.373 . S
C30 H24 0.930 . S
C30 C29 1.373 . S
C30 C31 1.371 . S
C31 C30 1.371 . S
C31 C32 1.383 . S
C32 H23 0.931 . S
C32 C28 1.397 . S
C32 C31 1.383 . S
H33 C38 0.929 . S
H34 C43 0.931 . S
H35 C41 0.930 . S
N36 N37 1.234 . S
N36 C40 1.453 . S
N37 N36 1.234 . S
C38 H33 0.929 . S
C38 C39 1.373 . S
C38 C40 1.368 . S
C39 C38 1.373 . S
C39 C43 1.397 . S
C40 N36 1.453 . S
C40 C38 1.368 . S
C40 C41 1.373 . S
C41 H35 0.930 . S
C41 C40 1.373 . S
C41 C42 1.371 . S
C42 C41 1.371 . S
C42 C43 1.383 . S
C43 H34 0.931 . S
C43 C39 1.397 . S
C43 C42 1.383 . S
H44 C49 0.929 . S
H45 C54 0.931 . S
H46 C52 0.930 . S
N47 N48 1.234 . S
N47 C51 1.453 . S
N48 N47 1.234 . S
C49 H44 0.929 . S
C49 C50 1.373 . S
C49 C51 1.368 . S
C50 C49 1.373 . S
C50 C54 1.397 . S
C51 N47 1.453 . S
C51 C49 1.368 . S
C51 C52 1.373 . S
C52 H46 0.930 . S
C52 C51 1.373 . S
C52 C53 1.371 . S
C53 C52 1.371 . S
C53 C54 1.383 . S
C54 H45 0.931 . S
C54 C50 1.397 . S
C54 C53 1.383 . S
H55 C60 0.929 . S
H56 C65 0.931 . S
H57 C63 0.930 . S
N58 N59 1.234 . S
N58 C62 1.453 . S
N59 N58 1.234 . S
C60 H55 0.929 . S
C60 C61 1.373 . S
C60 C62 1.368 . S
C61 C60 1.373 . S
C61 C65 1.397 . S
C62 N58 1.453 . S
C62 C60 1.368 . S
C62 C63 1.373 . S
C63 H57 0.930 . S
C63 C62 1.373 . S
C63 C64 1.371 . S
C64 C63 1.371 . S
C64 C65 1.383 . S
C65 H56 0.931 . S
C65 C61 1.397 . S
C65 C64 1.383 . S
H66 C71 0.929 . S
H67 C76 0.931 . S
H68 C74 0.930 . S
N69 N70 1.234 . S
N69 C73 1.453 . S
N70 N69 1.234 . S
C71 H66 0.929 . S
C71 C72 1.373 . S
C71 C73 1.368 . S
C72 C71 1.373 . S
C72 C76 1.397 . S
C73 N69 1.453 . S
C73 C71 1.368 . S
C73 C74 1.373 . S
C74 H68 0.930 . S
C74 C73 1.373 . S
C74 C75 1.371 . S
C75 C74 1.371 . S
C75 C76 1.383 . S
C76 H67 0.931 . S
C76 C72 1.397 . S
C76 C75 1.383 . S
H77 C82 0.929 . S
H78 C87 0.931 . S
H79 C85 0.930 . S
N80 N81 1.234 . S
N80 C84 1.453 . S
N81 N80 1.234 . S
C82 H77 0.929 . S
C82 C83 1.373 . S
C82 C84 1.368 . S
C83 C82 1.373 . S
C83 C87 1.397 . S
C84 N80 1.453 . S
C84 C82 1.368 . S
C84 C85 1.373 . S
C85 H79 0.930 . S
C85 C84 1.373 . S
C85 C86 1.371 . S
C86 C85 1.371 . S
C86 C87 1.383 . S
C87 H78 0.931 . S
C87 C83 1.397 . S
C87 C86 1.383 . S
Zn88 O94 1.920 . S
Zn88 O100 1.898 . S
Zn88 O103 1.905 . S
Zn89 O97 1.905 1_655 S
Zn89 O98 1.898 . S
Zn89 O106 1.920 . S
Zn90 O93 2.080 1_455 S
Zn90 O96 2.114 . S
Zn90 O99 2.120 1_455 S
Zn90 O101 2.120 . S
Zn90 O102 2.114 . S
Zn90 O105 2.080 1_455 S
C91 O96 1.166 . S
C91 O97 1.182 . S
C92 O98 1.167 . S
C92 O99 1.299 . S
O93 Zn90 2.080 1_655 S
O93 C107 1.305 . S
O94 Zn88 1.920 . S
O94 C107 1.234 1_455 S
C95 O100 1.167 . S
C95 O101 1.299 . S
O96 Zn90 2.114 . S
O96 C91 1.166 . S
O97 Zn89 1.905 1_455 S
O97 C91 1.182 . S
O98 Zn89 1.898 . S
O98 C92 1.167 . S
O99 Zn90 2.120 1_655 S
O99 C92 1.299 . S
O100 Zn88 1.898 . S
O100 C95 1.167 . S
O101 Zn90 2.120 . S
O101 C95 1.299 . S
O102 Zn90 2.114 . S
O102 C104 1.166 . S
O103 Zn88 1.905 . S
O103 C104 1.182 . S
C104 O102 1.166 . S
C104 O103 1.182 . S
O105 Zn90 2.080 1_655 S
O105 C108 1.305 . S
O106 Zn89 1.920 . S
O106 C108 1.234 . S
C107 O93 1.305 . S
C107 O94 1.234 1_655 S
C108 O105 1.305 . S
C108 O106 1.234 . S
Zn109 O115 1.920 . S
Zn109 O121 1.898 . S
Zn109 O124 1.905 . S
Zn110 O118 1.905 . S
Zn110 O119 1.898 . S
Zn110 O127 1.920 . S
Zn111 O114 2.080 . S
Zn111 O117 2.114 . S
Zn111 O120 2.120 . S
Zn111 O122 2.120 . S
Zn111 O123 2.114 . S
Zn111 O126 2.080 . S
C112 O117 1.166 . S
C112 O118 1.182 . S
C113 O119 1.167 . S
C113 O120 1.299 . S
O114 Zn111 2.080 . S
O114 C128 1.305 . S
O115 Zn109 1.920 . S
O115 C128 1.234 . S
C116 O121 1.167 . S
C116 O122 1.299 . S
O117 Zn111 2.114 . S
O117 C112 1.166 . S
O118 Zn110 1.905 . S
O118 C112 1.182 . S
O119 Zn110 1.898 . S
O119 C113 1.167 . S
O120 Zn111 2.120 . S
O120 C113 1.299 . S
O121 Zn109 1.898 . S
O121 C116 1.167 . S
O122 Zn111 2.120 . S
O122 C116 1.299 . S
O123 Zn111 2.114 . S
O123 C125 1.166 . S
O124 Zn109 1.905 . S
O124 C125 1.182 . S
C125 O123 1.166 . S
C125 O124 1.182 . S
O126 Zn111 2.080 . S
O126 C129 1.305 . S
O127 Zn110 1.920 . S
O127 C129 1.234 . S
C128 O114 1.305 . S
C128 O115 1.234 . S
C129 O126 1.305 . S
C129 O127 1.234 . S
Zn130 O136 1.920 . S
Zn130 O142 1.898 . S
Zn130 O145 1.905 1_455 S
Zn131 O139 1.905 . S
Zn131 O140 1.898 . S
Zn131 O148 1.920 1_655 S
Zn132 O135 2.080 . S
Zn132 O138 2.114 1_455 S
Zn132 O141 2.120 1_455 S
Zn132 O143 2.120 . S
Zn132 O144 2.114 1_455 S
Zn132 O147 2.080 . S
C133 O138 1.166 . S
C133 O139 1.182 . S
C134 O140 1.167 . S
C134 O141 1.299 . S
O135 Zn132 2.080 . S
O135 C149 1.305 . S
O136 Zn130 1.920 . S
O136 C149 1.234 . S
C137 O142 1.167 . S
C137 O143 1.299 . S
O138 Zn132 2.114 1_655 S
O138 C133 1.166 . S
O139 Zn131 1.905 . S
O139 C133 1.182 . S
O140 Zn131 1.898 . S
O140 C134 1.167 . S
O141 Zn132 2.120 1_655 S
O141 C134 1.299 . S
O142 Zn130 1.898 . S
O142 C137 1.167 . S
O143 Zn132 2.120 . S
O143 C137 1.299 . S
O144 Zn132 2.114 1_655 S
O144 C146 1.166 . S
O145 Zn130 1.905 1_655 S
O145 C146 1.182 . S
C146 O144 1.166 . S
C146 O145 1.182 . S
O147 Zn132 2.080 . S
O147 C150 1.305 . S
O148 Zn131 1.920 1_455 S
O148 C150 1.234 . S
C149 O135 1.305 . S
C149 O136 1.234 . S
C150 O147 1.305 . S
C150 O148 1.234 . S
Zn151 O157 1.920 . S
Zn151 O163 1.898 . S
Zn151 O166 1.905 . S
Zn152 O160 1.905 . S
Zn152 O161 1.898 . S
Zn152 O169 1.920 . S
Zn153 O156 2.080 . S
Zn153 O159 2.114 . S
Zn153 O162 2.120 . S
Zn153 O164 2.120 . S
Zn153 O165 2.114 . S
Zn153 O168 2.080 . S
C154 O159 1.166 . S
C154 O160 1.182 . S
C155 O161 1.167 . S
C155 O162 1.299 . S
O156 Zn153 2.080 . S
O156 C170 1.305 . S
O157 Zn151 1.920 . S
O157 C170 1.234 . S
C158 O163 1.167 . S
C158 O164 1.299 . S
O159 Zn153 2.114 . S
O159 C154 1.166 . S
O160 Zn152 1.905 . S
O160 C154 1.182 . S
O161 Zn152 1.898 . S
O161 C155 1.167 . S
O162 Zn153 2.120 . S
O162 C155 1.299 . S
O163 Zn151 1.898 . S
O163 C158 1.167 . S
O164 Zn153 2.120 . S
O164 C158 1.299 . S
O165 Zn153 2.114 . S
O165 C167 1.166 . S
O166 Zn151 1.905 . S
O166 C167 1.182 . S
C167 O165 1.166 . S
C167 O166 1.182 . S
O168 Zn153 2.080 . S
O168 C171 1.305 . S
O169 Zn152 1.920 . S
O169 C171 1.234 . S
C170 O156 1.305 . S
C170 O157 1.234 . S
C171 O168 1.305 . S
C171 O169 1.234 . S
C172 C173 1.363 . S
C172 C178 1.379 . S
C172 N180 1.356 . S
C173 C172 1.363 . S
C173 C179 1.363 . S
C174 C175 1.363 . S
C174 C179 1.379 . S
C174 N181 1.356 . S
C175 C174 1.363 . S
C175 C178 1.363 . S
N176 C178 1.356 1_545 S
N176 H188 0.984 . S
N176 H189 0.985 . S
N177 C179 1.356 . S
N177 H182 0.984 . S
N177 H183 0.985 . S
C178 C172 1.379 . S
C178 C175 1.363 . S
C178 N176 1.356 1_565 S
C179 C173 1.363 . S
C179 C174 1.379 . S
C179 N177 1.356 . S
N180 C172 1.356 . S
N180 H186 0.984 . S
N180 H187 0.984 . S
N181 C174 1.356 . S
N181 H184 0.984 1_565 S
N181 H185 0.985 . S
H182 N177 0.984 . S
H183 N177 0.985 . S
H184 N181 0.984 1_545 S
H185 N181 0.985 . S
H186 N180 0.984 . S
H187 N180 0.984 . S
H188 N176 0.984 . S
H189 N176 0.985 . S
C190 C191 1.363 . S
C190 C196 1.379 . S
C190 N198 1.356 . S
C191 C190 1.363 . S
C191 C197 1.363 . S
C192 C193 1.363 . S
C192 C197 1.379 . S
C192 N199 1.356 . S
C193 C192 1.363 . S
C193 C196 1.363 . S
N194 C196 1.356 . S
N194 H206 0.984 . S
N194 H207 0.985 . S
N195 C197 1.356 . S
N195 H200 0.984 . S
N195 H201 0.985 . S
C196 C190 1.379 . S
C196 C193 1.363 . S
C196 N194 1.356 . S
C197 C191 1.363 . S
C197 C192 1.379 . S
C197 N195 1.356 . S
N198 C190 1.356 . S
N198 H204 0.984 . S
N198 H205 0.984 . S
N199 C192 1.356 . S
N199 H202 0.984 . S
N199 H203 0.985 . S
H200 N195 0.984 . S
H201 N195 0.985 . S
H202 N199 0.984 . S
H203 N199 0.985 . S
H204 N198 0.984 . S
H205 N198 0.984 . S
H206 N194 0.984 . S
H207 N194 0.985 . S
C208 C209 1.363 . S
C208 C214 1.379 . S
C208 N216 1.356 . S
C209 C208 1.363 . S
C209 C215 1.363 . S
C210 C211 1.363 . S
C210 C215 1.379 . S
C210 N217 1.356 . S
C211 C210 1.363 . S
C211 C214 1.363 . S
N212 C214 1.356 . S
N212 H224 0.984 . S
N212 H225 0.985 . S
N213 C215 1.356 . S
N213 H218 0.984 . S
N213 H219 0.985 . S
C214 C208 1.379 . S
C214 C211 1.363 . S
C214 N212 1.356 . S
C215 C209 1.363 . S
C215 C210 1.379 . S
C215 N213 1.356 . S
N216 C208 1.356 . S
N216 H222 0.984 . S
N216 H223 0.984 . S
N217 C210 1.356 . S
N217 H220 0.984 . S
N217 H221 0.985 . S
H218 N213 0.984 . S
H219 N213 0.985 . S
H220 N217 0.984 . S
H221 N217 0.985 . S
H222 N216 0.984 . S
H223 N216 0.984 . S
H224 N212 0.984 . S
H225 N212 0.985 . S
C226 C227 1.363 . S
C226 C232 1.379 . S
C226 N234 1.356 . S
C227 C226 1.363 . S
C227 C233 1.363 . S
C228 C229 1.363 . S
C228 C233 1.379 . S
C228 N235 1.348 1_565 S
C229 C228 1.363 . S
C229 C232 1.363 . S
N230 C232 1.356 . S
N230 H242 0.984 1_655 S
N230 H243 0.984 1_565 S
N231 C233 1.356 . S
N231 H236 0.984 . S
N231 H237 0.985 . S
C232 C226 1.379 . S
C232 C229 1.363 . S
C232 N230 1.356 . S
C233 C227 1.363 . S
C233 C228 1.379 . S
C233 N231 1.356 . S
N234 C226 1.356 . S
N234 H240 0.984 . S
N234 H241 0.984 . S
N235 C228 1.348 1_545 S
N235 H238 0.995 . S
N235 H239 0.983 1_545 S
H236 N231 0.984 . S
H237 N231 0.985 . S
H238 N235 0.995 . S
H239 N235 0.983 1_565 S
H240 N234 0.984 . S
H241 N234 0.984 . S
H242 N230 0.984 1_455 S
H243 N230 0.984 1_545 S
C244 C245 1.363 . S
C244 C250 1.379 . S
C244 N252 1.356 . S
C245 C244 1.363 . S
C245 C251 1.363 . S
C246 C247 1.363 . S
C246 C251 1.379 . S
C246 N253 1.356 . S
C247 C246 1.363 . S
C247 C250 1.363 . S
N248 C250 1.356 1_565 S
N248 H260 0.984 . S
N248 H261 0.985 . S
N249 C251 1.356 . S
N249 H254 0.984 . S
N249 H255 0.985 . S
C250 C244 1.379 . S
C250 C247 1.363 . S
C250 N248 1.356 1_545 S
C251 C245 1.363 . S
C251 C246 1.379 . S
C251 N249 1.356 . S
N252 C244 1.356 . S
N252 H258 0.984 . S
N252 H259 0.984 . S
N253 C246 1.356 . S
N253 H256 0.984 1_545 S
N253 H257 0.985 1_655 S
H254 N249 0.984 . S
H255 N249 0.985 . S
H256 N253 0.984 1_565 S
H257 N253 0.985 1_455 S
H258 N252 0.984 . S
H259 N252 0.984 . S
H260 N248 0.984 . S
H261 N248 0.985 . S
C262 C263 1.363 . S
C262 C268 1.379 . S
C262 N270 1.356 . S
C263 C262 1.363 . S
C263 C269 1.363 . S
C264 C265 1.363 . S
C264 C269 1.379 . S
C264 N271 1.356 . S
C265 C264 1.363 . S
C265 C268 1.363 . S
N266 C268 1.356 . S
N266 H278 0.984 . S
N266 H279 0.985 . S
N267 C269 1.356 . S
N267 H272 0.984 . S
N267 H273 0.985 . S
C268 C262 1.379 . S
C268 C265 1.363 . S
C268 N266 1.356 . S
C269 C263 1.363 . S
C269 C264 1.379 . S
C269 N267 1.356 . S
N270 C262 1.356 . S
N270 H276 0.984 . S
N270 H277 0.984 . S
N271 C264 1.356 . S
N271 H274 0.984 . S
N271 H275 0.985 . S
H272 N267 0.984 . S
H273 N267 0.985 . S
H274 N271 0.984 . S
H275 N271 0.985 . S
H276 N270 0.984 . S
H277 N270 0.984 . S
H278 N266 0.984 . S
H279 N266 0.985 . S
C280 C281 1.363 . S
C280 C286 1.379 . S
C280 N288 1.356 . S
C281 C280 1.363 . S
C281 C287 1.363 . S
C282 C283 1.363 . S
C282 C287 1.379 . S
C282 N289 1.356 . S
C283 C282 1.363 . S
C283 C286 1.363 . S
N284 C286 1.356 . S
N284 H296 0.984 . S
N284 H297 0.985 . S
N285 C287 1.356 . S
N285 H290 0.984 . S
N285 H291 0.985 . S
C286 C280 1.379 . S
C286 C283 1.363 . S
C286 N284 1.356 . S
C287 C281 1.363 . S
C287 C282 1.379 . S
C287 N285 1.356 . S
N288 C280 1.356 . S
N288 H294 0.984 . S
N288 H295 0.984 . S
N289 C282 1.356 . S
N289 H292 0.984 . S
N289 H293 0.985 . S
H290 N285 0.984 . S
H291 N285 0.985 . S
H292 N289 0.984 . S
H293 N289 0.985 . S
H294 N288 0.984 . S
H295 N288 0.984 . S
H296 N284 0.984 . S
H297 N284 0.985 . S
C298 C299 1.363 . S
C298 C304 1.379 . S
C298 N306 1.356 . S
C299 C298 1.363 . S
C299 C305 1.363 . S
C300 C301 1.363 . S
C300 C305 1.379 . S
C300 N307 1.356 . S
C301 C300 1.363 . S
C301 C304 1.363 . S
N302 C304 1.356 1_565 S
N302 H314 0.984 . S
N302 H315 0.985 . S
N303 C305 1.356 . S
N303 H308 0.984 . S
N303 H309 0.985 . S
C304 C298 1.379 . S
C304 C301 1.363 . S
C304 N302 1.356 1_545 S
C305 C299 1.363 . S
C305 C300 1.379 . S
C305 N303 1.356 . S
N306 C298 1.356 . S
N306 H312 0.984 . S
N306 H313 0.984 . S
N307 C300 1.356 . S
N307 H310 0.984 1_545 S
N307 H311 0.985 . S
H308 N303 0.984 . S
H309 N303 0.985 . S
H310 N307 0.984 1_565 S
H311 N307 0.985 . S
H312 N306 0.984 . S
H313 N306 0.984 . S
H314 N302 0.984 . S
H315 N302 0.985 . S
C316 C317 1.363 . S
C316 C322 1.379 . S
C316 N324 1.356 . S
C317 C316 1.363 . S
C317 C323 1.363 . S
C318 C319 1.363 . S
C318 C323 1.379 . S
C318 N325 1.356 . S
C319 C318 1.363 . S
C319 C322 1.363 . S
N320 C322 1.356 . S
N320 H332 0.984 . S
N320 H333 0.985 . S
N321 C323 1.356 1_556 S
N321 H326 0.984 . S
N321 H327 0.985 . S
C322 C316 1.379 . S
C322 C319 1.363 . S
C322 N320 1.356 . S
C323 C317 1.363 . S
C323 C318 1.379 . S
C323 N321 1.356 1_554 S
N324 C316 1.356 . S
N324 H330 0.984 . S
N324 H331 0.984 1_554 S
N325 C318 1.356 . S
N325 H328 0.984 . S
N325 H329 0.985 . S
H326 N321 0.984 . S
H327 N321 0.985 . S
H328 N325 0.984 . S
H329 N325 0.985 . S
H330 N324 0.984 . S
H331 N324 0.984 1_556 S
H332 N320 0.984 . S
H333 N320 0.985 . S
C334 C335 1.363 . S
C334 C340 1.379 . S
C334 N342 1.356 . S
C335 C334 1.363 . S
C335 C341 1.363 . S
C336 C337 1.363 . S
C336 C341 1.379 . S
C336 N343 1.356 . S
C337 C336 1.363 . S
C337 C340 1.363 . S
N338 C340 1.356 . S
N338 H350 0.984 . S
N338 H351 0.985 . S
N339 C341 1.356 . S
N339 H344 0.984 . S
N339 H345 0.985 . S
C340 C334 1.379 . S
C340 C337 1.363 . S
C340 N338 1.356 . S
C341 C335 1.363 . S
C341 C336 1.379 . S
C341 N339 1.356 . S
N342 C334 1.356 . S
N342 H348 0.984 . S
N342 H349 0.984 . S
N343 C336 1.356 . S
N343 H346 0.984 . S
N343 H347 0.985 . S
H344 N339 0.984 . S
H345 N339 0.985 . S
H346 N343 0.984 . S
H347 N343 0.985 . S
H348 N342 0.984 . S
H349 N342 0.984 . S
H350 N338 0.984 . S
H351 N338 0.985 . S
C352 C353 1.363 . S
C352 C358 1.379 . S
C352 N360 1.356 1_556 S
C353 C352 1.363 . S
C353 C359 1.363 . S
C354 C355 1.363 . S
C354 C359 1.379 . S
C354 N361 1.356 . S
C355 C354 1.363 . S
C355 C358 1.363 . S
N356 C358 1.356 . S
N356 H368 0.984 . S
N356 H369 0.985 . S
N357 C359 1.356 . S
N357 H362 0.984 1_556 S
N357 H363 0.985 . S
C358 C352 1.379 . S
C358 C355 1.363 . S
C358 N356 1.356 . S
C359 C353 1.363 . S
C359 C354 1.379 . S
C359 N357 1.356 . S
N360 C352 1.356 1_554 S
N360 H366 0.984 . S
N360 H367 0.984 . S
N361 C354 1.356 . S
N361 H364 0.984 . S
N361 H365 0.985 . S
H362 N357 0.984 1_554 S
H363 N357 0.985 . S
H364 N361 0.984 . S
H365 N361 0.985 . S
H366 N360 0.984 . S
H367 N360 0.984 . S
H368 N356 0.984 . S
H369 N356 0.985 . S
C370 C371 1.363 . S
C370 C376 1.379 . S
C370 N378 1.356 . S
C371 C370 1.363 . S
C371 C377 1.363 . S
C372 C373 1.363 . S
C372 C377 1.379 . S
C372 N379 1.356 . S
C373 C372 1.363 . S
C373 C376 1.363 . S
N374 C376 1.356 . S
N374 H386 0.984 . S
N374 H387 0.985 . S
N375 C377 1.356 . S
N375 H380 0.984 . S
N375 H381 0.985 . S
C376 C370 1.379 . S
C376 C373 1.363 . S
C376 N374 1.356 . S
C377 C371 1.363 . S
C377 C372 1.379 . S
C377 N375 1.356 . S
N378 C370 1.356 . S
N378 H384 0.984 . S
N378 H385 0.984 . S
N379 C372 1.356 . S
N379 H382 0.984 . S
N379 H383 0.985 . S
H380 N375 0.984 . S
H381 N375 0.985 . S
H382 N379 0.984 . S
H383 N379 0.985 . S
H384 N378 0.984 . S
H385 N378 0.984 . S
H386 N374 0.984 . S
H387 N374 0.985 . S
C388 C389 1.364 1_556 S
C388 C394 1.379 . S
C388 N396 1.356 . S
C389 C388 1.364 1_554 S
C389 C395 1.363 1_554 S
C390 C391 1.363 . S
C390 C395 1.379 . S
C390 N397 1.356 . S
C391 C390 1.363 . S
C391 C394 1.363 . S
N392 C394 1.356 . S
N392 H404 0.984 . S
N392 H405 0.985 . S
N393 C395 1.356 1_554 S
N393 H398 0.984 . S
N393 H399 0.985 . S
C394 C388 1.379 . S
C394 C391 1.363 . S
C394 N392 1.356 . S
C395 C389 1.363 1_556 S
C395 C390 1.379 . S
C395 N393 1.356 1_556 S
N396 C388 1.356 . S
N396 H402 0.984 . S
N396 H403 0.984 1_556 S
N397 C390 1.356 . S
N397 H400 0.984 1_655 S
N397 H401 0.985 1_655 S
H398 N393 0.984 . S
H399 N393 0.985 . S
H400 N397 0.984 1_455 S
H401 N397 0.985 1_455 S
H402 N396 0.984 . S
H403 N396 0.984 1_554 S
H404 N392 0.984 . S
H405 N392 0.985 . S
C406 C407 1.363 . S
C406 C412 1.379 . S
C406 N414 1.356 . S
C407 C406 1.363 . S
C407 C413 1.363 . S
C408 C409 1.363 . S
C408 C413 1.379 . S
C408 N415 1.356 . S
C409 C408 1.363 . S
C409 C412 1.363 . S
N410 C412 1.356 . S
N410 H422 0.984 . S
N410 H423 0.985 . S
N411 C413 1.356 . S
N411 H416 0.984 . S
N411 H417 0.985 . S
C412 C406 1.379 . S
C412 C409 1.363 . S
C412 N410 1.356 . S
C413 C407 1.363 . S
C413 C408 1.379 . S
C413 N411 1.356 . S
N414 C406 1.356 . S
N414 H420 0.984 . S
N414 H421 0.984 . S
N415 C408 1.356 . S
N415 H418 0.984 . S
N415 H419 0.985 . S
H416 N411 0.984 . S
H417 N411 0.985 . S
H418 N415 0.984 . S
H419 N415 0.985 . S
H420 N414 0.984 . S
H421 N414 0.984 . S
H422 N410 0.984 . S
H423 N410 0.985 . S
C424 C425 1.363 1_554 S
C424 C430 1.379 . S
C424 N432 1.356 1_554 S
C425 C424 1.363 1_556 S
C425 C431 1.363 1_556 S
C426 C427 1.363 . S
C426 C431 1.379 . S
C426 N433 1.356 . S
C427 C426 1.363 . S
C427 C430 1.363 . S
N428 C430 1.356 . S
N428 H440 0.984 . S
N428 H441 0.985 . S
N429 C431 1.356 1_556 S
N429 H434 0.984 . S
N429 H435 0.985 1_556 S
C430 C424 1.379 . S
C430 C427 1.363 . S
C430 N428 1.356 . S
C431 C425 1.363 1_554 S
C431 C426 1.379 . S
C431 N429 1.356 1_554 S
N432 C424 1.356 1_556 S
N432 H438 0.984 . S
N432 H439 0.984 . S
N433 C426 1.356 . S
N433 H436 0.984 . S
N433 H437 0.985 . S
H434 N429 0.984 . S
H435 N429 0.985 1_554 S
H436 N433 0.984 . S
H437 N433 0.985 . S
H438 N432 0.984 . S
H439 N432 0.984 . S
H440 N428 0.984 . S
H441 N428 0.985 . S
C442 C443 1.363 . S
C442 C448 1.379 . S
C442 N450 1.356 . S
C443 C442 1.363 . S
C443 C449 1.363 . S
C444 C445 1.363 . S
C444 C449 1.379 . S
C444 N451 1.356 . S
C445 C444 1.363 . S
C445 C448 1.363 . S
N446 C448 1.356 . S
N446 H458 0.984 . S
N446 H459 0.985 . S
N447 C449 1.356 . S
N447 H452 0.984 . S
N447 H453 0.985 . S
C448 C442 1.379 . S
C448 C445 1.363 . S
C448 N446 1.356 . S
C449 C443 1.363 . S
C449 C444 1.379 . S
C449 N447 1.356 . S
N450 C442 1.356 . S
N450 H456 0.984 . S
N450 H457 0.984 . S
N451 C444 1.356 . S
N451 H454 0.984 . S
N451 H455 0.985 . S
H452 N447 0.984 . S
H453 N447 0.985 . S
H454 N451 0.984 . S
H455 N451 0.985 . S
H456 N450 0.984 . S
H457 N450 0.984 . S
H458 N446 0.984 . S
H459 N446 0.985 . S
C460 C461 1.363 . S
C460 C466 1.379 . S
C460 N468 1.356 . S
C461 C460 1.363 . S
C461 C467 1.363 . S
C462 C463 1.363 . S
C462 C467 1.379 . S
C462 N469 1.356 . S
C463 C462 1.363 . S
C463 C466 1.363 . S
N464 C466 1.356 . S
N464 H476 0.984 . S
N464 H477 0.985 . S
N465 C467 1.356 . S
N465 H470 0.984 . S
N465 H471 0.985 . S
C466 C460 1.379 . S
C466 C463 1.363 . S
C466 N464 1.356 . S
C467 C461 1.363 . S
C467 C462 1.379 . S
C467 N465 1.356 . S
N468 C460 1.356 . S
N468 H474 0.984 . S
N468 H475 0.984 . S
N469 C462 1.356 . S
N469 H472 0.984 . S
N469 H473 0.985 . S
H470 N465 0.984 . S
H471 N465 0.985 . S
H472 N469 0.984 . S
H473 N469 0.985 . S
H474 N468 0.984 . S
H475 N468 0.984 . S
H476 N464 0.984 . S
H477 N464 0.985 . S
C478 C479 1.363 . S
C478 C484 1.379 . S
C478 N486 1.356 . S
C479 C478 1.363 . S
C479 C485 1.363 . S
C480 C481 1.363 . S
C480 C485 1.379 . S
C480 N487 1.356 . S
C481 C480 1.363 . S
C481 C484 1.363 . S
N482 C484 1.356 . S
N482 H494 0.984 . S
N482 H495 0.985 . S
N483 C485 1.356 . S
N483 H488 0.984 . S
N483 H489 0.985 . S
C484 C478 1.379 . S
C484 C481 1.363 . S
C484 N482 1.356 . S
C485 C479 1.363 . S
C485 C480 1.379 . S
C485 N483 1.356 . S
N486 C478 1.356 . S
N486 H492 0.984 . S
N486 H493 0.984 . S
N487 C480 1.356 . S
N487 H490 0.984 . S
N487 H491 0.985 . S
H488 N483 0.984 . S
H489 N483 0.985 . S
H490 N487 0.984 . S
H491 N487 0.985 . S
H492 N486 0.984 . S
H493 N486 0.984 . S
H494 N482 0.984 . S
H495 N482 0.985 . S
C496 C497 1.363 . S
C496 C502 1.379 . S
C496 N504 1.356 . S
C497 C496 1.363 . S
C497 C503 1.363 . S
C498 C499 1.363 . S
C498 C503 1.379 . S
C498 N505 1.356 . S
C499 C498 1.363 . S
C499 C502 1.363 . S
N500 C502 1.356 . S
N500 H512 0.984 . S
N500 H513 0.985 . S
N501 C503 1.356 . S
N501 H506 0.984 . S
N501 H507 0.985 . S
C502 C496 1.379 . S
C502 C499 1.363 . S
C502 N500 1.356 . S
C503 C497 1.363 . S
C503 C498 1.379 . S
C503 N501 1.356 . S
N504 C496 1.356 . S
N504 H510 0.984 . S
N504 H511 0.984 . S
N505 C498 1.356 . S
N505 H508 0.984 . S
N505 H509 0.985 . S
H506 N501 0.984 . S
H507 N501 0.985 . S
H508 N505 0.984 . S
H509 N505 0.985 . S
H510 N504 0.984 . S
H511 N504 0.984 . S
H512 N500 0.984 . S
H513 N500 0.985 . S
C514 C515 1.363 . S
C514 C520 1.379 . S
C514 N522 1.356 . S
C515 C514 1.363 . S
C515 C521 1.363 . S
C516 C517 1.363 . S
C516 C521 1.379 . S
C516 N523 1.356 . S
C517 C516 1.363 . S
C517 C520 1.363 . S
N518 C520 1.356 . S
N518 H530 0.984 . S
N518 H531 0.985 . S
N519 C521 1.356 . S
N519 H524 0.984 . S
N519 H525 0.985 . S
C520 C514 1.379 . S
C520 C517 1.363 . S
C520 N518 1.356 . S
C521 C515 1.363 . S
C521 C516 1.379 . S
C521 N519 1.356 . S
N522 C514 1.356 . S
N522 H528 0.984 . S
N522 H529 0.984 . S
N523 C516 1.356 . S
N523 H526 0.984 . S
N523 H527 0.985 . S
H524 N519 0.984 . S
H525 N519 0.985 . S
H526 N523 0.984 . S
H527 N523 0.985 . S
H528 N522 0.984 . S
H529 N522 0.984 . S
H530 N518 0.984 . S
H531 N518 0.985 . S
C532 C533 1.363 . S
C532 C538 1.379 . S
C532 N540 1.356 . S
C533 C532 1.363 . S
C533 C539 1.363 . S
C534 C535 1.363 . S
C534 C539 1.379 . S
C534 N541 1.356 . S
C535 C534 1.363 . S
C535 C538 1.363 . S
N536 C538 1.356 . S
N536 H548 0.984 . S
N536 H549 0.985 . S
N537 C539 1.356 . S
N537 H542 0.984 . S
N537 H543 0.985 . S
C538 C532 1.379 . S
C538 C535 1.363 . S
C538 N536 1.356 . S
C539 C533 1.363 . S
C539 C534 1.379 . S
C539 N537 1.356 . S
N540 C532 1.356 . S
N540 H546 0.984 . S
N540 H547 0.984 . S
N541 C534 1.356 . S
N541 H544 0.984 . S
N541 H545 0.985 . S
H542 N537 0.984 . S
H543 N537 0.985 . S
H544 N541 0.984 . S
H545 N541 0.985 . S
H546 N540 0.984 . S
H547 N540 0.984 . S
H548 N536 0.984 . S
H549 N536 0.985 . S
C550 C551 1.363 . S
C550 C556 1.379 . S
C550 N558 1.356 . S
C551 C550 1.363 . S
C551 C557 1.363 . S
C552 C553 1.363 . S
C552 C557 1.379 . S
C552 N559 1.356 . S
C553 C552 1.363 . S
C553 C556 1.363 . S
N554 C556 1.356 . S
N554 H566 0.984 . S
N554 H567 0.985 . S
N555 C557 1.356 . S
N555 H560 0.984 . S
N555 H561 0.985 . S
C556 C550 1.379 . S
C556 C553 1.363 . S
C556 N554 1.356 . S
C557 C551 1.363 . S
C557 C552 1.379 . S
C557 N555 1.356 . S
N558 C550 1.356 . S
N558 H564 0.984 . S
N558 H565 0.984 . S
N559 C552 1.356 . S
N559 H562 0.984 . S
N559 H563 0.985 . S
H560 N555 0.984 . S
H561 N555 0.985 . S
H562 N559 0.984 . S
H563 N559 0.985 . S
H564 N558 0.984 . S
H565 N558 0.984 . S
H566 N554 0.984 . S
H567 N554 0.985 . S
C568 C569 1.363 . S
C568 C574 1.379 . S
C568 N576 1.356 . S
C569 C568 1.363 . S
C569 C575 1.363 . S
C570 C571 1.363 . S
C570 C575 1.379 . S
C570 N577 1.356 . S
C571 C570 1.363 . S
C571 C574 1.363 . S
N572 C574 1.356 . S
N572 H584 0.984 . S
N572 H585 0.985 . S
N573 C575 1.356 . S
N573 H578 0.984 . S
N573 H579 0.985 . S
C574 C568 1.379 . S
C574 C571 1.363 . S
C574 N572 1.356 . S
C575 C569 1.363 . S
C575 C570 1.379 . S
C575 N573 1.356 . S
N576 C568 1.356 . S
N576 H582 0.984 . S
N576 H583 0.984 . S
N577 C570 1.356 . S
N577 H580 0.984 . S
N577 H581 0.985 . S
H578 N573 0.984 . S
H579 N573 0.985 . S
H580 N577 0.984 . S
H581 N577 0.985 . S
H582 N576 0.984 . S
H583 N576 0.984 . S
H584 N572 0.984 . S
H585 N572 0.985 . S
C586 C587 1.363 . S
C586 C592 1.379 . S
C586 N594 1.356 . S
C587 C586 1.363 . S
C587 C593 1.363 . S
C588 C589 1.363 . S
C588 C593 1.379 . S
C588 N595 1.356 . S
C589 C588 1.363 . S
C589 C592 1.363 . S
N590 C592 1.356 . S
N590 H602 0.984 . S
N590 H603 0.985 . S
N591 C593 1.356 . S
N591 H596 0.984 . S
N591 H597 0.985 . S
C592 C586 1.379 . S
C592 C589 1.363 . S
C592 N590 1.356 . S
C593 C587 1.363 . S
C593 C588 1.379 . S
C593 N591 1.356 . S
N594 C586 1.356 . S
N594 H600 0.984 . S
N594 H601 0.984 . S
N595 C588 1.356 . S
N595 H598 0.984 . S
N595 H599 0.985 . S
H596 N591 0.984 . S
H597 N591 0.985 . S
H598 N595 0.984 . S
H599 N595 0.985 . S
H600 N594 0.984 . S
H601 N594 0.984 . S
H602 N590 0.984 . S
H603 N590 0.985 . S
C173 C75 1.447 . S
C175 C104 1.409 1_565 S
C193 C112 1.304 . S
C191 C83 1.386 . S
C211 C116 1.401 . S
C209 C53 1.447 . S
C227 C61 1.387 . S
C229 C92 1.297 1_565 S
C247 C133 1.380 1_545 S
C245 C31 1.424 . S
C265 C167 1.432 . S
C263 C42 1.467 . S
C281 C9 1.425 . S
C283 C155 1.372 . S
C299 C20 1.466 . S
C301 C137 1.421 1_545 S
C319 C91 1.290 . S
C317 C17 1.438 1_554 S
C337 C125 1.317 . S
C335 C6 1.466 . S
C355 C129 1.288 . S
C353 C39 1.438 1_556 S
C373 C107 1.314 . S
C371 C28 1.464 . S
C391 C146 1.388 . S
C389 C64 1.500 . S
C407 C50 1.508 . S
C409 C154 1.366 . S
C427 C170 1.386 . S
C425 C86 1.501 . S
C443 C72 1.506 . S
C445 C150 1.361 . S
C463 C95 1.329 . S
C461 N4 1.478 . S
C481 C113 1.372 . S
C479 N15 1.527 . S
C497 N26 1.475 . S
C499 C128 1.334 . S
C517 C108 1.377 . S
C515 N37 1.526 . S
C535 C134 1.378 . S
C533 N48 1.555 . S
C551 N59 1.513 . S
C553 C158 1.333 . S
C569 N70 1.551 . S
C571 C171 1.382 . S
C587 N81 1.506 . S
C589 C149 1.336 . S
