# Generated by pormake.
# Topology apo, (3,6)-cn, num edge types: 1
# Building blocks:
#     Node 0, Type 0, BuildingBlock: QEWDON_clean_linker_0, # of connection points: 3
#     Node 1, Type 0, BuildingBlock: QEWDON_clean_linker_0, # of connection points: 3
#     Node 2, Type 0, BuildingBlock: QEWDON_clean_linker_0, # of connection points: 3
#     Node 3, Type 0, BuildingBlock: QEWDON_clean_linker_0, # of connection points: 3
#     Node 4, Type 0, BuildingBlock: QEWDON_clean_linker_0, # of connection points: 3
#     Node 5, Type 0, BuildingBlock: QEWDON_clean_linker_0, # of connection points: 3
#     Node 6, Type 0, BuildingBlock: QEWDON_clean_linker_0, # of connection points: 3
#     Node 7, Type 0, BuildingBlock: QEWDON_clean_linker_0, # of connection points: 3
#     Node 8, Type 1, BuildingBlock: KUMBOL_clean_sbu_1, # of connection points: 6
#     Node 9, Type 1, BuildingBlock: KUMBOL_clean_sbu_1, # of connection points: 6
#     Node 10, Type 1, BuildingBlock: KUMBOL_clean_sbu_1, # of connection points: 6
#     Node 11, Type 1, BuildingBlock: KUMBOL_clean_sbu_1, # of connection points: 6
#     Edge 12, Type (0, 1), BuildingBlock: XIVTED_clean_linker_0, # of connection points: 2
#     Edge 13, Type (0, 1), BuildingBlock: XIVTED_clean_linker_0, # of connection points: 2
#     Edge 14, Type (0, 1), BuildingBlock: XIVTED_clean_linker_0, # of connection points: 2
#     Edge 15, Type (0, 1), BuildingBlock: XIVTED_clean_linker_0, # of connection points: 2
#     Edge 16, Type (0, 1), BuildingBlock: XIVTED_clean_linker_0, # of connection points: 2
#     Edge 17, Type (0, 1), BuildingBlock: XIVTED_clean_linker_0, # of connection points: 2
#     Edge 18, Type (0, 1), BuildingBlock: XIVTED_clean_linker_0, # of connection points: 2
#     Edge 19, Type (0, 1), BuildingBlock: XIVTED_clean_linker_0, # of connection points: 2
#     Edge 20, Type (0, 1), BuildingBlock: XIVTED_clean_linker_0, # of connection points: 2
#     Edge 21, Type (0, 1), BuildingBlock: XIVTED_clean_linker_0, # of connection points: 2
#     Edge 22, Type (0, 1), BuildingBlock: XIVTED_clean_linker_0, # of connection points: 2
#     Edge 23, Type (0, 1), BuildingBlock: XIVTED_clean_linker_0, # of connection points: 2
#     Edge 24, Type (0, 1), BuildingBlock: XIVTED_clean_linker_0, # of connection points: 2
#     Edge 25, Type (0, 1), BuildingBlock: XIVTED_clean_linker_0, # of connection points: 2
#     Edge 26, Type (0, 1), BuildingBlock: XIVTED_clean_linker_0, # of connection points: 2
#     Edge 27, Type (0, 1), BuildingBlock: XIVTED_clean_linker_0, # of connection points: 2
#     Edge 28, Type (0, 1), BuildingBlock: XIVTED_clean_linker_0, # of connection points: 2
#     Edge 29, Type (0, 1), BuildingBlock: XIVTED_clean_linker_0, # of connection points: 2
#     Edge 30, Type (0, 1), BuildingBlock: XIVTED_clean_linker_0, # of connection points: 2
#     Edge 31, Type (0, 1), BuildingBlock: XIVTED_clean_linker_0, # of connection points: 2
#     Edge 32, Type (0, 1), BuildingBlock: XIVTED_clean_linker_0, # of connection points: 2
#     Edge 33, Type (0, 1), BuildingBlock: XIVTED_clean_linker_0, # of connection points: 2
#     Edge 34, Type (0, 1), BuildingBlock: XIVTED_clean_linker_0, # of connection points: 2
#     Edge 35, Type (0, 1), BuildingBlock: XIVTED_clean_linker_0, # of connection points: 2
# Relax obj value: 0.074
# Max RMSD: 0.260
# Mean RMSD: 0.207
data_MOF--net-apo--node1-KUMBOL_clean_sbu_1--node2-QEWDON_clean_linker_0--edge1-XIVTED_clean_linker_0
_symmetry_space_group_name_H-M    P1
_symmetry_Int_Tables_number       1
_symmetry_cell_setting            triclinic
loop_
_symmetry_equiv_pos_as_xyz
'x, y, z'
_cell_length_a     30.21375
_cell_length_b     43.454362
_cell_length_c     52.172594
_cell_angle_alpha  90.049459
_cell_angle_beta   89.921627
_cell_angle_gamma 90.310572
loop_
_atom_site_label
_atom_site_type_symbol
_atom_site_fract_x
_atom_site_fract_y
_atom_site_fract_z
_atom_type_partial_charge
H0 H 0.28002 0.40365 0.37657 0.0
C1 C 0.29535 0.40365 0.39535 0.0
C2 C 0.33591 0.41913 0.39912 0.0
C3 C 0.27328 0.38968 0.41604 0.0
H4 H 0.38591 0.43167 0.42665 0.0
C5 C 0.35484 0.41963 0.42376 0.0
C6 C 0.33296 0.40619 0.44484 0.0
C7 C 0.29231 0.39107 0.44061 0.0
C8 C 0.22769 0.3772 0.41296 0.0
H9 H 0.27419 0.38142 0.45666 0.0
C10 C 0.21721 0.35461 0.39439 0.0
C11 C 0.1734 0.34331 0.39213 0.0
C12 C 0.19403 0.38835 0.42904 0.0
H13 H 0.20109 0.40588 0.44326 0.0
C14 C 0.15088 0.37732 0.42683 0.0
H15 H 0.24293 0.34588 0.38189 0.0
C16 C 0.14059 0.35498 0.40861 0.0
H17 H 0.10686 0.34646 0.40769 0.0
H18 H 0.12528 0.38605 0.43937 0.0
H19 H 0.23412 0.10946 0.87708 0.0
C20 C 0.22002 0.11026 0.89618 0.0
C21 C 0.18074 0.0939 0.90169 0.0
C22 C 0.24202 0.12676 0.91557 0.0
H23 H 0.1345 0.08092 0.93135 0.0
C24 C 0.16363 0.09453 0.92682 0.0
C25 C 0.18533 0.11085 0.94648 0.0
C26 C 0.22434 0.12709 0.9405 0.0
C27 C 0.28616 0.14079 0.91106 0.0
H28 H 0.24158 0.13983 0.95534 0.0
C29 C 0.29222 0.16615 0.8945 0.0
C30 C 0.33395 0.18081 0.89291 0.0
C31 C 0.32236 0.12964 0.92506 0.0
H32 H 0.31839 0.11018 0.93785 0.0
C33 C 0.3638 0.14362 0.92295 0.0
H34 H 0.26437 0.17521 0.88389 0.0
C35 C 0.36953 0.16919 0.90718 0.0
H36 H 0.40189 0.18001 0.90614 0.0
H37 H 0.39145 0.13487 0.93387 0.0
H38 H 0.76321 0.11643 0.65332 0.0
C39 C 0.77954 0.12154 0.63529 0.0
C40 C 0.81996 0.10736 0.62913 0.0
C41 C 0.75814 0.14034 0.61738 0.0
H42 H 0.87048 0.10244 0.60008 0.0
C43 C 0.83945 0.11331 0.60504 0.0
C44 C 0.81827 0.13201 0.58683 0.0
C45 C 0.77752 0.14543 0.59327 0.0
C46 C 0.71257 0.15101 0.62221 0.0
H47 H 0.76034 0.15956 0.5794 0.0
C48 C 0.70366 0.17554 0.6391 0.0
C49 C 0.66001 0.18639 0.64192 0.0
C50 C 0.67766 0.13686 0.60888 0.0
H51 H 0.68402 0.11795 0.59585 0.0
C52 C 0.63437 0.14699 0.61219 0.0
H53 H 0.73063 0.18683 0.64912 0.0
C54 C 0.62556 0.17167 0.62846 0.0
H55 H 0.59168 0.17938 0.63048 0.0
H56 H 0.6076 0.13591 0.60188 0.0
H57 H 0.76555 0.40612 0.14721 0.0
C58 C 0.75329 0.40304 0.12785 0.0
C59 C 0.71512 0.41879 0.11973 0.0
C60 C 0.77799 0.38543 0.11047 0.0
H61 H 0.67209 0.42776 0.08741 0.0
C62 C 0.70117 0.41563 0.094 0.0
C63 C 0.72581 0.39812 0.07637 0.0
C64 C 0.76406 0.38306 0.08491 0.0
C65 C 0.82207 0.37352 0.11755 0.0
H66 H 0.78384 0.36994 0.07146 0.0
C67 C 0.82709 0.34769 0.13361 0.0
C68 C 0.86957 0.33536 0.13788 0.0
C69 C 0.85966 0.38743 0.10664 0.0
H70 H 0.85637 0.40728 0.09424 0.0
C71 C 0.90169 0.37574 0.1114 0.0
H72 H 0.79817 0.33656 0.14179 0.0
C73 C 0.90665 0.34976 0.12673 0.0
H74 H 0.9396 0.3408 0.12989 0.0
H75 H 0.93047 0.38661 0.10289 0.0
H76 H 0.67792 0.63456 0.6511 0.0
C77 C 0.67727 0.62737 0.6312 0.0
C78 C 0.66277 0.59746 0.62477 0.0
C79 C 0.6888 0.64848 0.6119 0.0
H80 H 0.6454 0.56678 0.59396 0.0
C81 C 0.6593 0.58907 0.59874 0.0
C82 C 0.67052 0.60993 0.57908 0.0
C83 C 0.68687 0.63913 0.58611 0.0
C84 C 0.69579 0.68167 0.61779 0.0
H85 H 0.69675 0.6554 0.57145 0.0
C86 C 0.7269 0.6922 0.63612 0.0
C87 C 0.73189 0.72412 0.64082 0.0
C88 C 0.67 0.70328 0.60453 0.0
H89 H 0.64551 0.69587 0.59064 0.0
C90 C 0.67504 0.73462 0.60906 0.0
H91 H 0.7469 0.67581 0.64654 0.0
C92 C 0.70572 0.74499 0.62696 0.0
H93 H 0.7093 0.76959 0.6298 0.0
H94 H 0.65509 0.75098 0.59861 0.0
H95 H 0.84776 0.87039 0.16033 0.0
C96 C 0.84706 0.87678 0.14025 0.0
C97 C 0.85844 0.9069 0.13286 0.0
C98 C 0.83673 0.85448 0.12173 0.0
H99 H 0.87108 0.93712 0.10118 0.0
C100 C 0.85966 0.9144 0.10663 0.0
C101 C 0.84946 0.89236 0.08762 0.0
C102 C 0.83732 0.86247 0.09562 0.0
C103 C 0.8333 0.82167 0.12906 0.0
H104 H 0.82934 0.84487 0.08165 0.0
C105 C 0.79482 0.8091 0.14043 0.0
C106 C 0.79253 0.77729 0.14605 0.0
C107 C 0.86954 0.80257 0.12398 0.0
H108 H 0.89935 0.81187 0.1153 0.0
C109 C 0.86781 0.77141 0.13009 0.0
H110 H 0.76657 0.82373 0.14408 0.0
C111 C 0.8297 0.75883 0.14098 0.0
H112 H 0.82936 0.73451 0.14554 0.0
H113 H 0.89607 0.7569 0.12624 0.0
H114 H 0.17577 0.8664 0.36725 0.0
C115 C 0.17306 0.86788 0.38792 0.0
C116 C 0.15964 0.89562 0.39961 0.0
C117 C 0.179 0.84107 0.40259 0.0
H118 H 0.14462 0.91732 0.43594 0.0
C119 C 0.15398 0.89615 0.42644 0.0
C120 C 0.1587 0.86941 0.44127 0.0
C121 C 0.17182 0.84204 0.42921 0.0
C122 C 0.18412 0.81087 0.38973 0.0
H123 H 0.17392 0.82098 0.44027 0.0
C124 C 0.22271 0.80303 0.37595 0.0
C125 C 0.22544 0.77427 0.36344 0.0
C126 C 0.14886 0.78973 0.39103 0.0
H127 H 0.11894 0.79534 0.40147 0.0
C128 C 0.1515 0.76143 0.37856 0.0
H129 H 0.25018 0.81913 0.37492 0.0
C130 C 0.1894 0.75377 0.36478 0.0
H131 H 0.19085 0.73155 0.35537 0.0
H132 H 0.12403 0.74538 0.37958 0.0
H133 H 0.32141 0.64944 0.86756 0.0
C134 C 0.32246 0.64591 0.88811 0.0
C135 C 0.3305 0.61639 0.89826 0.0
C136 C 0.31756 0.67137 0.90435 0.0
H137 H 0.33927 0.5905 0.93335 0.0
C138 C 0.33173 0.61275 0.92515 0.0
C139 C 0.3263 0.63813 0.94161 0.0
C140 C 0.31933 0.66735 0.93094 0.0
C141 C 0.31636 0.70283 0.8938 0.0
H142 H 0.3158 0.68724 0.94333 0.0
C143 C 0.27757 0.71495 0.88294 0.0
C144 C 0.27656 0.74587 0.87474 0.0
C145 C 0.3543 0.72141 0.89584 0.0
H146 H 0.38436 0.7124 0.90423 0.0
C147 C 0.35375 0.75173 0.8872 0.0
H148 H 0.24803 0.70076 0.88176 0.0
C149 C 0.31516 0.76396 0.87683 0.0
H150 H 0.31555 0.78764 0.87032 0.0
H151 H 0.3832 0.76589 0.88876 0.0
C152 C 0.87005 0.09586 0.28012 0.0
C153 C 0.86781 0.04008 0.28292 0.0
C154 C 0.89094 0.06818 0.2855 0.0
C155 C 0.82356 0.04018 0.27472 0.0
C156 C 0.82552 0.09604 0.27207 0.0
C157 C 0.80247 0.06807 0.26932 0.0
N158 N 0.89337 0.12254 0.28258 0.0
C159 C 0.87375 0.15024 0.2782 0.0
C160 C 0.80549 0.12436 0.26698 0.0
C161 C 0.82966 0.15158 0.27021 0.0
Gd162 Gd 0.06758 0.11939 0.24401 0.0
Gd163 Gd 0.96745 0.11774 0.29523 0.0
N164 N 0.93428 0.06876 0.29261 0.0
C165 C 0.88992 0.01271 0.28862 0.0
C166 C 0.95527 0.0423 0.29936 0.0
C167 C 0.93369 0.01387 0.29713 0.0
H168 H 0.9884 0.04296 0.30666 0.0
H169 H 0.95076 0.99289 0.30214 0.0
H170 H 0.04304 0.19335 0.23083 0.0
H171 H 0.89184 0.17137 0.28135 0.0
H172 H 0.07836 0.2443 0.23421 0.0
H173 H 0.87334 0.99064 0.28684 0.0
H174 H 0.80532 0.0188 0.27254 0.0
H175 H 0.14526 0.06805 0.25975 0.0
H176 H 0.77133 0.12548 0.26077 0.0
H177 H 0.81428 0.17361 0.26667 0.0
H178 H 0.22503 0.22263 0.26409 0.0
H179 H 0.76828 0.06777 0.26308 0.0
H180 H 0.26383 0.11729 0.27867 0.0
H181 H 0.22297 0.06807 0.2743 0.0
N182 N 0.14164 0.11671 0.25699 0.0
C183 C 0.16377 0.14397 0.25863 0.0
C184 C 0.16244 0.08965 0.26219 0.0
C185 C 0.22961 0.11742 0.27249 0.0
C186 C 0.20662 0.08959 0.27013 0.0
C187 C 0.20832 0.14507 0.26662 0.0
H188 H 0.2643 0.17489 0.27476 0.0
N189 N 0.09822 0.1692 0.24562 0.0
C190 C 0.14157 0.17096 0.25261 0.0
C191 C 0.14011 0.22629 0.24811 0.0
C192 C 0.16346 0.19963 0.2544 0.0
C193 C 0.07606 0.19495 0.23823 0.0
C194 C 0.09636 0.22389 0.23973 0.0
O195 O 0.95714 0.09412 0.25666 0.0
O196 O 0.02565 0.0763 0.24459 0.0
O197 O 0.06252 0.13168 0.2038 0.0
O198 O 0.10996 0.09758 0.21563 0.0
O199 O 0.03331 0.09565 0.30545 0.0
O200 O 0.06497 0.0765 0.2684 0.0
O201 O 0.07798 0.14239 0.28286 0.0
O202 O 0.00952 0.16076 0.29423 0.0
O203 O 0.97408 0.10549 0.3354 0.0
O204 O 0.92528 0.13886 0.32407 0.0
O205 O 1.00125 0.14065 0.23352 0.0
O206 O 0.9708 0.16034 0.27065 0.0
C207 C 0.98228 0.07464 0.2441 0.0
C208 C 0.05819 0.07542 0.29336 0.0
C209 C 0.07871 0.09237 0.17432 0.0
C210 C 0.07969 0.08232 0.12815 0.0
C211 C 0.03625 0.04977 0.15677 0.0
C212 C 0.05013 0.06721 0.17776 0.0
C213 C 0.05078 0.05725 0.13213 0.0
C214 C 0.09362 0.0998 0.14951 0.0
C215 C 0.09172 0.11162 0.19634 0.0
C216 C 0.20776 0.2008 0.26249 0.0
C217 C 0.23012 0.1736 0.26857 0.0
H218 H 0.15571 0.24875 0.2493 0.0
C219 C 0.05293 0.16251 0.29475 0.0
C220 C 0.97552 0.1604 0.24556 0.0
C221 C 0.95721 0.1446 0.36506 0.0
C222 C 0.95156 0.15756 0.41064 0.0
C223 C 1.00141 0.1863 0.38265 0.0
C224 C 0.98861 0.16813 0.36187 0.0
C225 C 0.98311 0.1811 0.40686 0.0
C226 C 0.93862 0.1394 0.38944 0.0
C227 C 0.94442 0.12507 0.34316 0.0
H228 H 0.01414 0.03038 0.15963 0.0
H229 H 0.03852 0.06114 0.19666 0.0
H230 H 0.03989 0.04313 0.1162 0.0
H231 H 0.11537 0.11946 0.14681 0.0
H232 H 0.0256 0.20449 0.37997 0.0
H233 H 0.00325 0.1724 0.34333 0.0
H234 H 0.99331 0.1958 0.42258 0.0
H235 H 0.91474 0.12094 0.39195 0.0
C236 C 0.61475 0.45051 0.78629 0.0
C237 C 0.59536 0.49946 0.80539 0.0
C238 C 0.58519 0.4684 0.80003 0.0
C239 C 0.63456 0.51253 0.79565 0.0
C240 C 0.65487 0.46315 0.77726 0.0
C241 C 0.66428 0.4944 0.78164 0.0
N242 N 0.60425 0.42054 0.78188 0.0
C243 C 0.63366 0.4013 0.77023 0.0
C244 C 0.68451 0.44388 0.76436 0.0
C245 C 0.67407 0.41274 0.7611 0.0
Gd246 Gd 0.44369 0.39887 0.74059 0.0
Gd247 Gd 0.5355 0.40335 0.79725 0.0
N248 N 0.54772 0.45498 0.80933 0.0
C249 C 0.56656 0.51615 0.82109 0.0
C250 C 0.5219 0.47035 0.82655 0.0
C251 C 0.53012 0.50134 0.83212 0.0
H252 H 0.49545 0.45862 0.83648 0.0
H253 H 0.50879 0.5136 0.84527 0.0
H254 H 0.45815 0.32976 0.71528 0.0
H255 H 0.62559 0.37724 0.76772 0.0
H256 H 0.41871 0.27957 0.71316 0.0
H257 H 0.57315 0.54007 0.82566 0.0
H258 H 0.64272 0.53643 0.79937 0.0
H259 H 0.36622 0.4506 0.75993 0.0
H260 H 0.71575 0.4527 0.75716 0.0
H261 H 0.69707 0.39757 0.75151 0.0
H262 H 0.2841 0.29703 0.76009 0.0
H263 H 0.69476 0.50464 0.77465 0.0
H264 H 0.25357 0.40026 0.78678 0.0
H265 H 0.29287 0.44972 0.78032 0.0
N266 N 0.37155 0.40173 0.75787 0.0
C267 C 0.34911 0.37457 0.7595 0.0
C268 C 0.35081 0.42866 0.76392 0.0
C269 C 0.28651 0.40039 0.77853 0.0
C270 C 0.30862 0.42834 0.77498 0.0
C271 C 0.30614 0.37312 0.77006 0.0
H272 H 0.25063 0.34322 0.77916 0.0
N273 N 0.40873 0.35082 0.73821 0.0
C274 C 0.36787 0.34846 0.74886 0.0
C275 C 0.36327 0.29522 0.73566 0.0
C276 C 0.34435 0.32037 0.74835 0.0
C277 C 0.42647 0.32696 0.72468 0.0
C278 C 0.40423 0.29868 0.72344 0.0
O279 O 0.54984 0.42294 0.75751 0.0
O280 O 0.4833 0.4427 0.74508 0.0
O281 O 0.46224 0.39653 0.70037 0.0
O282 O 0.39766 0.4131 0.71097 0.0
O283 O 0.46651 0.42173 0.80539 0.0
O284 O 0.44286 0.44089 0.76656 0.0
O285 O 0.45344 0.3586 0.76777 0.0
O286 O 0.46798 0.38317 0.80541 0.0
O287 O 0.5579 0.40667 0.83678 0.0
O288 O 0.5662 0.36419 0.81596 0.0
O289 O 0.51093 0.37868 0.73225 0.0
O290 O 0.54189 0.36204 0.77063 0.0
C291 C 0.52668 0.44389 0.7454 0.0
C292 C 0.44372 0.44166 0.7918 0.0
C293 C 0.42887 0.43234 0.67271 0.0
C294 C 0.42276 0.44779 0.62771 0.0
C295 C 0.4426 0.48533 0.66065 0.0
C296 C 0.44007 0.46259 0.67947 0.0
C297 C 0.43377 0.47813 0.63502 0.0
C298 C 0.42069 0.42496 0.64692 0.0
C299 C 0.42527 0.40818 0.6923 0.0
C300 C 0.30248 0.31851 0.75997 0.0
C301 C 0.28347 0.3448 0.77088 0.0
H302 H 0.34618 0.27326 0.73477 0.0
C303 C 0.45089 0.35987 0.79284 0.0
C304 C 0.53687 0.3602 0.74546 0.0
C305 C 0.61856 0.37592 0.84882 0.0
C306 C 0.66588 0.37848 0.88699 0.0
C307 C 0.69661 0.36377 0.84553 0.0
C308 C 0.65521 0.36701 0.83409 0.0
C309 C 0.70198 0.36934 0.8717 0.0
C310 C 0.62406 0.38163 0.87525 0.0
C311 C 0.57428 0.37913 0.83714 0.0
H312 H 0.45102 0.50872 0.66597 0.0
H313 H 0.44653 0.4686 0.69926 0.0
H314 H 0.43486 0.49653 0.62107 0.0
H315 H 0.41301 0.40133 0.64191 0.0
H316 H 0.72468 0.35671 0.83407 0.0
H317 H 0.65189 0.36235 0.81381 0.0
H318 H 0.73441 0.36602 0.88002 0.0
H319 H 0.59582 0.38884 0.88654 0.0
C320 C 0.84803 0.86443 0.77558 0.0
C321 C 0.85545 0.81024 0.78586 0.0
C322 C 0.8734 0.84028 0.78501 0.0
C323 C 0.81253 0.80472 0.77654 0.0
C324 C 0.80484 0.85897 0.76636 0.0
C325 C 0.7873 0.829 0.76685 0.0
N326 N 0.86635 0.89304 0.77439 0.0
C327 C 0.84321 0.91731 0.76482 0.0
C328 C 0.7809 0.88373 0.75638 0.0
C329 C 0.80016 0.91302 0.75566 0.0
Gd330 Gd 0.03574 0.89317 0.7372 0.0
Gd331 Gd 0.9383 0.89799 0.7903 0.0
N332 N 0.91535 0.84615 0.79341 0.0
C333 C 0.8809 0.78668 0.79644 0.0
C334 C 0.93855 0.82373 0.80575 0.0
C335 C 0.92227 0.79358 0.80685 0.0
H336 H 0.96878 0.82893 0.81571 0.0
H337 H 0.94128 0.77581 0.81622 0.0
H338 H 0.02788 0.96926 0.72718 0.0
H339 H 0.85787 0.94003 0.76445 0.0
H340 H 0.07602 0.01523 0.72938 0.0
H341 H 0.86829 0.76332 0.79747 0.0
H342 H 0.79842 0.78175 0.77691 0.0
H343 H 0.10089 0.83267 0.74845 0.0
H344 H 0.74765 0.88045 0.74908 0.0
H345 H 0.78187 0.93229 0.74802 0.0
H346 H 0.2179 0.97539 0.75359 0.0
H347 H 0.75429 0.82434 0.75969 0.0
H348 H 0.23102 0.86639 0.76557 0.0
H349 H 0.17846 0.82284 0.76106 0.0
N350 N 0.10896 0.88118 0.74776 0.0
C351 C 0.13757 0.90536 0.74929 0.0
C352 C 0.1233 0.8518 0.75128 0.0
C353 C 0.19691 0.87082 0.76045 0.0
C354 C 0.16731 0.84618 0.75799 0.0
C355 C 0.18233 0.90085 0.75581 0.0
H356 H 0.24552 0.92331 0.76247 0.0
N357 N 0.07833 0.93845 0.7388 0.0
C358 C 0.12203 0.93479 0.74425 0.0
C359 C 0.1338 0.98963 0.74047 0.0
C360 C 0.15079 0.96038 0.74565 0.0
C361 C 0.06196 0.96671 0.73275 0.0
C362 C 0.08928 0.99276 0.73379 0.0
O363 O 0.92475 0.88016 0.75021 0.0
O364 O 0.98676 0.85347 0.73888 0.0
O365 O 0.0269 0.90567 0.69728 0.0
O366 O 0.07245 0.8695 0.70721 0.0
O367 O 0.00429 0.87659 0.80073 0.0
O368 O 0.02536 0.85281 0.7634 0.0
O369 O 0.05075 0.92017 0.77389 0.0
O370 O 0.98458 0.93869 0.79013 0.0
O371 O 0.93785 0.89261 0.83188 0.0
O372 O 0.8904 0.92231 0.81362 0.0
O373 O 0.97525 0.9217 0.72813 0.0
O374 O 0.94261 0.94062 0.76539 0.0
C375 C 0.94359 0.85691 0.73853 0.0
C376 C 0.02814 0.85611 0.78833 0.0
C377 C 0.03766 0.86647 0.66678 0.0
C378 C 0.0402 0.85425 0.62105 0.0
C379 C 0.98504 0.83017 0.64866 0.0
C380 C 1.00172 0.84627 0.66972 0.0
C381 C 0.00392 0.83424 0.62444 0.0
C382 C 0.0572 0.87019 0.64246 0.0
C383 C 0.05376 0.88466 0.6887 0.0
C384 C 0.19533 0.95599 0.75232 0.0
C385 C 0.21104 0.92632 0.75741 0.0
H386 H 0.15481 0.00989 0.74138 0.0
C387 C 0.02797 0.93943 0.78831 0.0
C388 C 0.95091 0.94203 0.74052 0.0
C389 C 0.91106 0.93478 0.85617 0.0
C390 C 0.90533 0.94698 0.90208 0.0
C391 C 0.92091 0.98734 0.87068 0.0
C392 C 0.91972 0.96584 0.85085 0.0
C393 C 0.91322 0.97818 0.89596 0.0
C394 C 0.90474 0.92538 0.88176 0.0
C395 C 0.90592 0.91218 0.83524 0.0
H396 H 0.95718 0.81467 0.65109 0.0
H397 H 0.98641 0.84317 0.68825 0.0
H398 H 0.99033 0.82159 0.60835 0.0
H399 H 0.08473 0.88604 0.64008 0.0
H400 H 0.92698 0.01136 0.86638 0.0
H401 H 0.92468 0.97358 0.83133 0.0
H402 H 0.91262 0.9959 0.91052 0.0
H403 H 0.89919 0.90119 0.88557 0.0
C404 C 0.654 0.64211 0.26421 0.0
C405 C 0.6567 0.69699 0.27287 0.0
C406 C 0.63411 0.66853 0.27352 0.0
C407 C 0.69863 0.69883 0.26132 0.0
C408 C 0.6971 0.64359 0.25384 0.0
C409 C 0.71872 0.67219 0.25172 0.0
N410 N 0.63253 0.61473 0.26701 0.0
C411 C 0.65451 0.5878 0.26267 0.0
C412 C 0.71793 0.61613 0.2469 0.0
C413 C 0.69689 0.58808 0.25187 0.0
Gd414 Gd 0.4663 0.60775 0.22738 0.0
Gd415 Gd 0.55954 0.61757 0.28303 0.0
N416 N 0.59309 0.66622 0.28398 0.0
C417 C 0.63661 0.72266 0.28413 0.0
C418 C 0.57421 0.69069 0.29615 0.0
C419 C 0.59544 0.71938 0.29613 0.0
H420 H 0.54239 0.68808 0.30541 0.0
H421 H 0.58003 0.73894 0.30531 0.0
H422 H 0.5102 0.55132 0.1907 0.0
H423 H 0.63974 0.56594 0.26768 0.0
H424 H 0.50107 0.49553 0.18452 0.0
H425 H 0.65289 0.74493 0.28404 0.0
H426 H 0.71619 0.72059 0.26019 0.0
H427 H 0.37603 0.63181 0.25772 0.0
H428 H 0.751 0.61627 0.23884 0.0
H429 H 0.71358 0.56665 0.24777 0.0
H430 H 0.36976 0.47079 0.23216 0.0
H431 H 0.75158 0.67381 0.24348 0.0
H432 H 0.29131 0.55414 0.27144 0.0
H433 H 0.30642 0.61002 0.27524 0.0
N434 N 0.39996 0.58871 0.24472 0.0
C435 C 0.39153 0.55824 0.2415 0.0
C436 C 0.36966 0.60743 0.25619 0.0
C437 C 0.32176 0.56362 0.26372 0.0
C438 C 0.33021 0.59517 0.26596 0.0
C439 C 0.35249 0.54474 0.25128 0.0
H440 H 0.31577 0.50211 0.25585 0.0
N441 N 0.45831 0.55485 0.21811 0.0
C442 C 0.42209 0.54067 0.22826 0.0
C443 C 0.44398 0.4924 0.20917 0.0
C444 C 0.41419 0.50899 0.2243 0.0
C445 C 0.48502 0.53934 0.20145 0.0
C446 C 0.47909 0.5078 0.19729 0.0
O447 O 0.54686 0.65618 0.25466 0.0
O448 O 0.53089 0.63131 0.21719 0.0
O449 O 0.44655 0.60195 0.18772 0.0
O450 O 0.42619 0.64249 0.20842 0.0
O451 O 0.49275 0.64009 0.29081 0.0
O452 O 0.45961 0.65081 0.25142 0.0
O453 O 0.45636 0.59073 0.26827 0.0
O454 O 0.5241 0.57219 0.27893 0.0
O455 O 0.53767 0.6146 0.3228 0.0
O456 O 0.60688 0.61041 0.31362 0.0
O457 O 0.53622 0.59262 0.21832 0.0
O458 O 0.56454 0.57551 0.2568 0.0
C459 C 0.55104 0.65352 0.22975 0.0
C460 C 0.46375 0.65499 0.27642 0.0
C461 C 0.3804 0.62485 0.17412 0.0
C462 C 0.3388 0.62215 0.13396 0.0
C463 C 0.3007 0.61789 0.17495 0.0
C464 C 0.34087 0.62119 0.18791 0.0
C465 C 0.29957 0.61829 0.14817 0.0
C466 C 0.37916 0.62538 0.1472 0.0
C467 C 0.42363 0.62709 0.18703 0.0
C468 C 0.37616 0.49515 0.23482 0.0
C469 C 0.34533 0.513 0.24823 0.0
H470 H 0.43912 0.46803 0.20567 0.0
C471 C 0.4809 0.57011 0.27978 0.0
C472 C 0.56303 0.57488 0.23151 0.0
C473 C 0.58163 0.58358 0.34987 0.0
C474 C 0.59873 0.56579 0.39338 0.0
C475 C 0.58732 0.52902 0.35853 0.0
C476 C 0.57987 0.55303 0.34137 0.0
C477 C 0.59711 0.53525 0.38421 0.0
C478 C 0.59036 0.58987 0.37583 0.0
C479 C 0.57714 0.60913 0.33158 0.0
H480 H 0.27029 0.61507 0.18571 0.0
H481 H 0.34095 0.62082 0.20859 0.0
H482 H 0.26792 0.61606 0.1386 0.0
H483 H 0.40984 0.62781 0.13657 0.0
H484 H 0.58634 0.50545 0.3518 0.0
H485 H 0.57355 0.54783 0.32141 0.0
H486 H 0.60433 0.51601 0.39663 0.0
H487 H 0.59077 0.61361 0.38214 0.0
H488 H 0.09371 0.93765 0.40897 0.0
H489 H 0.10492 0.02497 0.27613 0.0
H490 H 0.1957 0.91624 0.35367 0.0
H491 H 0.05522 0.06708 0.34535 0.0
H492 H 0.13316 0.98214 0.30183 0.0
H493 H 0.07337 0.98209 0.38358 0.0
C494 C 0.11251 0.94241 0.39173 0.0
C495 C 0.14728 0.92312 0.38388 0.0
C496 C 0.11647 1.00097 0.31132 0.0
C497 C 0.12239 0.9739 0.35395 0.0
C498 C 0.10048 0.02554 0.29671 0.0
C499 C 0.07794 0.04998 0.30855 0.0
C500 C 0.10898 1.00048 0.33788 0.0
C501 C 0.07236 0.0489 0.33528 0.0
C502 C 0.10044 0.96781 0.37709 0.0
C503 C 0.16861 0.93017 0.36056 0.0
N504 N 0.08736 0.02449 0.34895 0.0
N505 N 0.15569 0.95488 0.34636 0.0
H506 H 0.30904 0.55493 0.9042 0.0
H507 H 0.43027 0.50052 0.77545 0.0
H508 H 0.37683 0.61725 0.85275 0.0
H509 H 0.40473 0.43966 0.83906 0.0
H510 H 0.39785 0.54299 0.79999 0.0
H511 H 0.33201 0.51186 0.87714 0.0
C512 C 0.32863 0.55968 0.88725 0.0
C513 C 0.34106 0.58999 0.88095 0.0
C514 C 0.39906 0.52029 0.8085 0.0
C515 C 0.36669 0.54064 0.84958 0.0
C516 C 0.41726 0.49605 0.79446 0.0
C517 C 0.42039 0.46667 0.80537 0.0
C518 C 0.38329 0.51497 0.83347 0.0
C519 C 0.40325 0.46209 0.83009 0.0
C520 C 0.34154 0.53503 0.87175 0.0
C521 C 0.3657 0.59452 0.85833 0.0
N522 N 0.38549 0.486 0.84335 0.0
N523 N 0.37771 0.57017 0.84355 0.0
H524 H 0.68519 0.53693 0.63085 0.0
H525 H 0.49636 0.50096 0.73293 0.0
H526 H 0.60451 0.60815 0.66406 0.0
H527 H 0.60828 0.44111 0.7224 0.0
H528 H 0.53236 0.53936 0.70547 0.0
H529 H 0.65484 0.50022 0.66207 0.0
C530 C 0.6613 0.54485 0.64485 0.0
C531 C 0.64741 0.57563 0.64491 0.0
C532 C 0.54924 0.51794 0.70935 0.0
C533 C 0.61207 0.53371 0.68041 0.0
C534 C 0.52862 0.49596 0.72491 0.0
C535 C 0.54938 0.46781 0.72994 0.0
C536 C 0.59065 0.51156 0.69836 0.0
C537 C 0.59128 0.46261 0.71916 0.0
C538 C 0.64411 0.52394 0.66268 0.0
C539 C 0.61642 0.58471 0.66349 0.0
N540 N 0.61036 0.48414 0.70367 0.0
N541 N 0.59943 0.56378 0.68029 0.0
H542 H 0.91911 0.90011 0.17137 0.0
H543 H 0.89924 0.07299 0.22317 0.0
H544 H 0.83099 0.96658 0.13787 0.0
H545 H 0.01631 0.01791 0.23313 0.0
H546 H 0.86573 0.03104 0.19822 0.0
H547 H 0.94691 0.94002 0.2006 0.0
C548 C 0.90518 0.923 0.17044 0.0
C549 C 0.87274 0.93009 0.15217 0.0
C550 C 0.89874 0.02817 0.2059 0.0
C551 C 0.90439 0.9758 0.18547 0.0
C552 C 0.91781 0.05203 0.22018 0.0
C553 C 0.96086 0.04907 0.22991 0.0
C554 C 0.92261 1.00098 0.20166 0.0
C555 C 0.9833 0.02132 0.22563 0.0
C556 C 0.92127 0.94579 0.18696 0.0
C557 C 0.85622 0.96023 0.15157 0.0
N558 N 0.96394 0.99836 0.21183 0.0
N559 N 0.87216 0.98197 0.16798 0.0
H560 H 0.82594 0.10871 0.68202 0.0
H561 H 0.94867 0.9461 0.68842 0.0
H562 H 0.85798 0.05242 0.61641 0.0
H563 H 0.90696 0.99444 0.7566 0.0
H564 H 0.91733 0.98649 0.66235 0.0
H565 H 0.85667 0.06882 0.71009 0.0
C566 C 0.83944 0.08805 0.6735 0.0
C567 C 0.83971 0.08415 0.64672 0.0
C568 C 0.91485 0.9884 0.683 0.0
C569 C 0.87499 0.03853 0.67873 0.0
C570 C 0.93291 0.96524 0.69802 0.0
C571 C 0.93061 0.96676 0.72488 0.0
C572 C 0.89421 0.01362 0.69472 0.0
C573 C 0.90943 0.99225 0.73598 0.0
C574 C 0.85704 0.06534 0.68954 0.0
C575 C 0.85787 0.05693 0.63681 0.0
N576 N 0.8921 0.01476 0.72084 0.0
N577 N 0.8747 0.03532 0.65276 0.0
H578 H 0.69602 0.4123 0.17127 0.0
H579 H 0.59363 0.58162 0.1829 0.0
H580 H 0.68416 0.47634 0.10852 0.0
H581 H 0.5946 0.51804 0.2463 0.0
H582 H 0.63139 0.54375 0.15655 0.0
H583 H 0.66249 0.4506 0.19988 0.0
C584 C 0.68632 0.43434 0.16347 0.0
C585 C 0.69268 0.44093 0.13732 0.0
C586 C 0.62367 0.53797 0.17624 0.0
C587 C 0.65449 0.48492 0.17002 0.0
C588 C 0.60222 0.55971 0.19137 0.0
C589 C 0.59076 0.55296 0.21683 0.0
C590 C 0.63391 0.50901 0.18649 0.0
C591 C 0.60296 0.52421 0.22678 0.0
C592 C 0.66713 0.45617 0.17983 0.0
C593 C 0.67923 0.46987 0.12834 0.0
N594 N 0.62363 0.50315 0.21152 0.0
N595 N 0.66095 0.49068 0.14462 0.0
H596 H 0.29496 0.45938 0.36673 0.0
H597 H 0.51684 0.51597 0.29662 0.0
H598 H 0.42335 0.42218 0.38455 0.0
H599 H 0.39759 0.56982 0.3004 0.0
H600 H 0.4814 0.4768 0.3237 0.0
H601 H 0.32989 0.49453 0.33607 0.0
C602 C 0.33043 0.45823 0.36386 0.0
C603 C 0.35628 0.43781 0.37825 0.0
C604 C 0.46293 0.49711 0.31841 0.0
C605 C 0.39657 0.47832 0.3434 0.0
C606 C 0.48316 0.51953 0.30306 0.0
C607 C 0.45992 0.54608 0.29597 0.0
C608 C 0.41899 0.50115 0.32655 0.0
C609 C 0.41633 0.54939 0.3048 0.0
C610 C 0.35039 0.47853 0.34655 0.0
C611 C 0.40223 0.43771 0.374 0.0
N612 N 0.39722 0.52717 0.31951 0.0
N613 N 0.42093 0.45768 0.357 0.0
H614 H 0.09236 0.08968 0.89064 0.0
H615 H 0.11704 0.94298 0.79921 0.0
H616 H 0.21898 0.05298 0.86824 0.0
H617 H 0.99412 0.99118 0.81084 0.0
H618 H 0.15537 0.98281 0.82401 0.0
H619 H 0.05601 0.05363 0.86136 0.0
C620 C 0.11253 0.07414 0.87941 0.0
C621 C 0.15878 0.07431 0.88196 0.0
C622 C 0.12004 0.98474 0.82102 0.0
C623 C 0.11732 0.03269 0.84842 0.0
C624 C 0.09812 0.96205 0.80673 0.0
C625 C 0.05219 0.96366 0.80283 0.0
C626 C 0.09581 0.00907 0.8318 0.0
C627 C 0.02941 0.98869 0.81353 0.0
C628 C 0.09178 0.05359 0.86264 0.0
C629 C 0.18328 0.05381 0.86674 0.0
N630 N 0.05136 0.01024 0.82759 0.0
N631 N 0.16225 0.03364 0.85082 0.0
H632 H 0.09905 0.11097 0.96372 0.0
H633 H 0.16372 0.09773 0.11239 0.0
H634 H 0.23376 0.10708 0.99103 0.0
H635 H 0.03123 0.08384 0.08374 0.0
H636 H 0.1892 0.1071 0.06847 0.0
H637 H 0.07297 0.10618 1.00794 0.0
C638 C 0.1232 0.10909 0.97895 0.0
C639 C 0.16876 0.1094 0.97346 0.0
C640 C 0.15452 0.10208 0.07181 0.0
C641 C 0.13897 0.1043 0.02434 0.0
C642 C 0.13991 0.09694 0.0969 0.0
C643 C 0.0953 0.08981 0.10177 0.0
C644 C 0.12429 0.10033 0.05139 0.0
C645 C 0.06603 0.08881 0.08087 0.0
C646 C 0.10824 0.10649 1.00424 0.0
C647 C 0.19836 0.10744 0.9942 0.0
N648 N 0.08101 0.09397 0.05664 0.0
N649 N 0.18297 0.10493 0.01863 0.0
H650 H 0.32819 0.3656 0.48553 0.0
H651 H 0.45975 0.47279 0.58395 0.0
H652 H 0.37727 0.45605 0.46552 0.0
H653 H 0.36308 0.40527 0.60846 0.0
H654 H 0.4405 0.46166 0.53946 0.0
H655 H 0.35168 0.37454 0.52977 0.0
C656 C 0.34388 0.38732 0.4903 0.0
C657 C 0.35043 0.41012 0.4715 0.0
C658 C 0.42364 0.44926 0.55463 0.0
C659 C 0.37836 0.4201 0.5222 0.0
C660 C 0.43437 0.45573 0.58013 0.0
C661 C 0.41285 0.44019 0.6003 0.0
C662 C 0.39162 0.42674 0.54906 0.0
C663 C 0.38114 0.41764 0.59378 0.0
C664 C 0.35744 0.3923 0.51559 0.0
C665 C 0.37202 0.43748 0.47899 0.0
N666 N 0.37156 0.4116 0.56879 0.0
N667 N 0.38518 0.44166 0.50368 0.0
H668 H 0.64419 0.38787 0.05418 0.0
H669 H 0.73685 0.40595 0.91079 0.0
H670 H 0.78062 0.40692 0.03534 0.0
H671 H 0.6096 0.36485 0.92737 0.0
H672 H 0.74958 0.41226 0.95658 0.0
H673 H 0.62714 0.38515 1.0081 0.0
C674 C 0.67046 0.39163 0.04037 0.0
C675 C 0.71398 0.39732 0.04863 0.0
C676 C 0.71881 0.40188 0.95025 0.0
C677 C 0.69473 0.39444 0.99601 0.0
C678 C 0.71156 0.39811 0.92402 0.0
C679 C 0.67229 0.38441 0.91501 0.0
C680 C 0.68652 0.39213 0.96789 0.0
C681 C 0.64029 0.37564 0.93328 0.0
C682 C 0.66077 0.38994 0.01411 0.0
C683 C 0.74676 0.40196 0.02989 0.0
N684 N 0.64817 0.37953 0.95882 0.0
N685 N 0.73647 0.40044 1.00457 0.0
H686 H 0.77495 0.13101 0.54055 0.0
H687 H 0.99452 0.15826 0.45694 0.0
H688 H 0.9053 0.14151 0.57323 0.0
H689 H 0.86507 0.14485 0.42379 0.0
H690 H 0.96232 0.15215 0.49959 0.0
H691 H 0.80703 0.13647 0.49775 0.0
C692 C 0.81029 0.13473 0.53877 0.0
C693 C 0.8374 0.13593 0.56063 0.0
C694 C 0.9409 0.15047 0.48302 0.0
C695 C 0.87453 0.14177 0.51147 0.0
C696 C 0.95926 0.1541 0.45861 0.0
C697 C 0.93246 0.15226 0.43666 0.0
C698 C 0.89527 0.14501 0.48567 0.0
C699 C 0.8871 0.14623 0.4401 0.0
C700 C 0.82864 0.13761 0.51427 0.0
C701 C 0.88311 0.14017 0.55699 0.0
N702 N 0.86993 0.14297 0.46411 0.0
N703 N 0.90017 0.14298 0.53294 0.0
H704 H 0.83966 0.94879 0.06349 0.0
H705 H 0.85593 0.89738 0.92037 0.0
H706 H 0.87119 0.85375 0.04704 0.0
H707 H 0.93485 0.97442 0.94701 0.0
H708 H 0.8421 0.88312 0.96496 0.0
H709 H 0.85439 0.96136 0.01869 0.0
C710 C 0.84971 0.93047 0.05074 0.0
C711 C 0.85454 0.90005 0.05965 0.0
C712 C 0.86233 0.90316 0.9608 0.0
C713 C 0.86927 0.91446 1.0078 0.0
C714 C 0.87075 0.91129 0.93529 0.0
C715 C 0.89675 0.9374 0.92936 0.0
C716 C 0.87873 0.9217 0.98063 0.0
C717 C 0.91361 0.95469 0.95012 0.0
C718 C 0.85774 0.93777 0.02507 0.0
C719 C 0.8661 0.87741 0.04144 0.0
N720 N 0.90386 0.94676 0.97471 0.0
N721 N 0.87276 0.88504 0.01642 0.0
H722 H 0.67269 0.55317 0.55451 0.0
H723 H 0.64193 0.61662 0.41372 0.0
H724 H 0.6472 0.64943 0.53989 0.0
H725 H 0.58234 0.53011 0.43648 0.0
H726 H 0.65947 0.62694 0.45851 0.0
H727 H 0.65482 0.54196 0.50966 0.0
C728 C 0.66344 0.572 0.5421 0.0
C729 C 0.66186 0.60243 0.5514 0.0
C730 C 0.64259 0.6057 0.45355 0.0
C731 C 0.6428 0.58961 0.49971 0.0
C732 C 0.63208 0.59982 0.42793 0.0
C733 C 0.61012 0.57243 0.42087 0.0
C734 C 0.63222 0.58381 0.47237 0.0
C735 C 0.59992 0.55129 0.44055 0.0
C736 C 0.65346 0.56551 0.51644 0.0
C737 C 0.65036 0.62573 0.53386 0.0
N738 N 0.6113 0.55732 0.46531 0.0
N739 N 0.64167 0.61886 0.50894 0.0
H740 H 0.37205 0.67482 0.97511 0.0
H741 H 0.29067 0.58559 0.10106 0.0
H742 H 0.28963 0.59349 0.97251 0.0
H743 H 0.38426 0.66095 0.10181 0.0
H744 H 0.28858 0.58834 0.0542 0.0
H745 H 0.37589 0.67022 0.02165 0.0
C746 C 0.35459 0.65603 0.98436 0.0
C747 C 0.33014 0.63465 0.96989 0.0
C748 C 0.30967 0.6042 0.06462 0.0
C749 C 0.33466 0.6291 0.02335 0.0
C750 C 0.31068 0.60278 0.09139 0.0
C751 C 0.33766 0.6231 0.10544 0.0
C752 C 0.3356 0.62625 0.05176 0.0
C753 C 0.36335 0.6446 0.09182 0.0
C754 C 0.357 0.65331 1.01096 0.0
C755 C 0.30897 0.61042 0.98291 0.0
N756 N 0.36154 0.64567 0.0658 0.0
N757 N 0.31149 0.6084 1.00891 0.0
H758 H 0.20116 0.84423 0.483 0.0
H759 H 0.99598 0.86766 0.577 0.0
H760 H 0.08345 0.89371 0.46172 0.0
H761 H 0.12731 0.85116 0.60592 0.0
H762 H 0.02658 0.87301 0.5338 0.0
H763 H 0.17415 0.8423 0.52751 0.0
C764 C 0.1698 0.85479 0.48772 0.0
C765 C 0.14465 0.86931 0.46865 0.0
C766 C 0.04881 0.86836 0.54958 0.0
C767 C 0.11338 0.86685 0.51928 0.0
C768 C 0.03132 0.86518 0.57421 0.0
C769 C 0.05915 0.8589 0.59503 0.0
C770 C 0.09447 0.86474 0.54556 0.0
C771 C 0.10478 0.85616 0.59038 0.0
C772 C 0.15452 0.8538 0.51309 0.0
C773 C 0.10423 0.88265 0.47582 0.0
N774 N 0.12102 0.85879 0.56607 0.0
N775 N 0.08975 0.88087 0.50044 0.0
H776 H 0.10117 0.34172 0.36078 0.0
H777 H 0.13833 0.16856 0.3124 0.0
H778 H 0.21668 0.28917 0.3809 0.0
H779 H 0.01589 0.21836 0.30501 0.0
H780 H 0.17194 0.21395 0.3328 0.0
H781 H 0.0745 0.29861 0.33507 0.0
C782 C 0.12112 0.32112 0.35963 0.0
C783 C 0.16095 0.31893 0.37333 0.0
C784 C 0.13774 0.2149 0.32669 0.0
C785 C 0.13042 0.26917 0.34382 0.0
C786 C 0.11855 0.18904 0.31501 0.0
C787 C 0.07413 0.18959 0.30711 0.0
C788 C 0.11234 0.24154 0.33041 0.0
C789 C 0.05008 0.21673 0.31101 0.0
C790 C 0.10583 0.29646 0.34494 0.0
C791 C 0.18581 0.29187 0.37066 0.0
N792 N 0.06945 0.24151 0.32237 0.0
N793 N 0.16993 0.26789 0.35642 0.0
H794 H 0.32673 0.18781 0.84082 0.0
H795 H 0.42063 0.36092 0.84231 0.0
H796 H 0.35953 0.23721 0.90991 0.0
H797 H 0.43144 0.30124 0.77656 0.0
H798 H 0.38527 0.31892 0.86608 0.0
H799 H 0.35076 0.23277 0.81548 0.0
C800 C 0.33813 0.20837 0.8506 0.0
C801 C 0.34124 0.20895 0.87741 0.0
C802 C 0.39502 0.31511 0.84635 0.0
C803 C 0.36887 0.2601 0.8488 0.0
C804 C 0.41534 0.33905 0.83278 0.0
C805 C 0.42864 0.33472 0.80725 0.0
C806 C 0.38774 0.28658 0.83433 0.0
C807 C 0.42079 0.30586 0.79595 0.0
C808 C 0.35217 0.23385 0.8362 0.0
C809 C 0.35672 0.23593 0.88925 0.0
N810 N 0.40083 0.2829 0.80952 0.0
N811 N 0.37003 0.26038 0.87489 0.0
H812 H 0.68212 0.19849 0.69225 0.0
H813 H 0.54285 0.35489 0.69352 0.0
H814 H 0.61405 0.2368 0.62721 0.0
H815 H 0.58744 0.31172 0.76335 0.0
H816 H 0.57854 0.31483 0.66889 0.0
H817 H 0.65735 0.24255 0.71836 0.0
C818 C 0.66247 0.21635 0.68344 0.0
C819 C 0.64972 0.21394 0.65763 0.0
C820 C 0.58072 0.31401 0.68959 0.0
C821 C 0.62148 0.26408 0.68715 0.0
C822 C 0.56025 0.337 0.70378 0.0
C823 C 0.56156 0.3366 0.73069 0.0
C824 C 0.60287 0.29011 0.70219 0.0
C825 C 0.58529 0.31287 0.74266 0.0
C826 C 0.64816 0.24133 0.69833 0.0
C827 C 0.62412 0.23757 0.64711 0.0
N828 N 0.60481 0.2904 0.72833 0.0
N829 N 0.61083 0.2615 0.66188 0.0
H830 H 0.90927 0.28277 0.12213 0.0
H831 H 0.93398 0.213 0.26241 0.0
H832 H 0.84635 0.32368 0.18792 0.0
H833 H 0.96668 0.1631 0.19341 0.0
H834 H 0.90086 0.25344 0.23613 0.0
H835 H 0.92949 0.2384 0.14824 0.0
C836 C 0.89929 0.28215 0.14209 0.0
C837 C 0.87623 0.30686 0.15295 0.0
C838 C 0.91483 0.23346 0.22679 0.0
C839 C 0.89993 0.25636 0.18318 0.0
C840 C 0.93361 0.21025 0.24179 0.0
C841 C 0.95296 0.18441 0.23016 0.0
C842 C 0.91592 0.23104 0.19994 0.0
C843 C 0.95231 0.18257 0.20329 0.0
C844 C 0.91083 0.25684 0.157 0.0
C845 C 0.86399 0.30497 0.17886 0.0
N846 N 0.93442 0.2056 0.18915 0.0
N847 N 0.8765 0.2803 0.19322 0.0
H848 H 0.8209 0.71108 0.64634 0.0
H849 H 0.86189 0.86802 0.71933 0.0
H850 H 0.71646 0.76694 0.67771 0.0
H851 H 0.95985 0.79649 0.72447 0.0
H852 H 0.81118 0.83186 0.6992 0.0
H853 H 0.87511 0.74116 0.67156 0.0
C854 C 0.8093 0.72914 0.65895 0.0
C855 C 0.76418 0.73683 0.65966 0.0
C856 C 0.84367 0.8239 0.70478 0.0
C857 C 0.8257 0.77155 0.68785 0.0
C858 C 0.87271 0.84457 0.71634 0.0
C859 C 0.91484 0.83512 0.72418 0.0
C860 C 0.85696 0.79349 0.70027 0.0
C861 C 0.92748 0.80465 0.7189 0.0
C862 C 0.84021 0.74638 0.67316 0.0
C863 C 0.75097 0.76058 0.6762 0.0
N864 N 0.89865 0.78483 0.70716 0.0
N865 N 0.78153 0.77731 0.68926 0.0
H866 H 0.73884 0.79698 0.18568 0.0
H867 H 0.60059 0.63893 0.18798 0.0
H868 H 0.7536 0.72366 0.13061 0.0
H869 H 0.57285 0.71391 0.23953 0.0
H870 H 0.65572 0.67085 0.16637 0.0
H871 H 0.67671 0.76855 0.20525 0.0
C872 C 0.72867 0.77514 0.17752 0.0
C873 C 0.75179 0.76253 0.15666 0.0
C874 C 0.63759 0.68051 0.18235 0.0
C875 C 0.68116 0.72984 0.17897 0.0
C876 C 0.60594 0.66226 0.19465 0.0
C877 C 0.58256 0.67366 0.21579 0.0
C878 C 0.64598 0.71058 0.19114 0.0
C879 C 0.59087 0.70408 0.2236 0.0
C880 C 0.6934 0.75885 0.18876 0.0
C881 C 0.73733 0.73404 0.14695 0.0
N882 N 0.62212 0.72147 0.21139 0.0
N883 N 0.70328 0.71868 0.15824 0.0
H884 H 0.23146 0.76001 0.31285 0.0
H885 H 0.46024 0.67194 0.32735 0.0
H886 H 0.30915 0.76479 0.3819 0.0
H887 H 0.3982 0.68951 0.25432 0.0
H888 H 0.40662 0.70622 0.34781 0.0
H889 H 0.29335 0.73509 0.29096 0.0
C890 C 0.26203 0.75631 0.32321 0.0
C891 C 0.26544 0.76459 0.34911 0.0
C892 C 0.40505 0.70274 0.32728 0.0
C893 C 0.33608 0.73523 0.32448 0.0
C894 C 0.43561 0.68308 0.31555 0.0
C895 C 0.43361 0.67743 0.28903 0.0
C896 C 0.3719 0.71666 0.31247 0.0
C897 C 0.40099 0.6928 0.27482 0.0
C898 C 0.2973 0.74199 0.31078 0.0
C899 C 0.3055 0.75901 0.36182 0.0
N900 N 0.37126 0.71137 0.28673 0.0
N901 N 0.33911 0.74427 0.34948 0.0
H902 H 0.24093 0.80135 0.88743 0.0
H903 H 0.05638 0.79763 0.77772 0.0
H904 H 0.21884 0.72242 0.83885 0.0
H905 H 0.07197 0.8717 0.83205 0.0
H906 H 0.1137 0.76867 0.80043 0.0
H907 H 0.17713 0.82642 0.86816 0.0
C908 C 0.22252 0.78927 0.8727 0.0
C909 C 0.23548 0.75988 0.86454 0.0
C910 C 0.10437 0.79116 0.80749 0.0
C911 C 0.16213 0.7885 0.84229 0.0
C912 C 0.07182 0.80771 0.79449 0.0
C913 C 0.05998 0.83724 0.80284 0.0
C914 C 0.12513 0.80426 0.82901 0.0
C915 C 0.08027 0.84904 0.82492 0.0
C916 C 0.18595 0.80355 0.86175 0.0
C917 C 0.20992 0.74507 0.84571 0.0
N918 N 0.11211 0.83264 0.83709 0.0
N919 N 0.17468 0.75967 0.83503 0.0
loop_
_geom_bond_atom_site_label_1
_geom_bond_atom_site_label_2
_geom_bond_distance
_geom_bond_site_symmetry_2
_ccdc_geom_bond_type
H0 C1 0.949 . S
C1 H0 0.949 . S
C1 C2 1.395 . S
C1 C3 1.391 . S
C2 C1 1.395 . S
C2 C5 1.390 . S
C3 C1 1.391 . S
C3 C7 1.387 . S
C3 C8 1.491 . S
H4 C5 0.950 . S
C5 C2 1.390 . S
C5 H4 0.950 . S
C5 C6 1.378 . S
C6 C5 1.378 . S
C6 C7 1.409 . S
C7 C3 1.387 . S
C7 C6 1.409 . S
C7 H9 0.951 . S
C8 C3 1.491 . S
C8 C10 1.382 . S
C8 C12 1.404 . S
H9 C7 0.951 . S
C10 C8 1.382 . S
C10 C11 1.390 . S
C10 H15 0.949 . S
C11 C10 1.390 . S
C11 C16 1.399 . S
C12 C8 1.404 . S
C12 H13 0.950 . S
C12 C14 1.375 . S
H13 C12 0.950 . S
C14 C12 1.375 . S
C14 C16 1.382 . S
C14 H18 0.950 . S
H15 C10 0.949 . S
C16 C11 1.399 . S
C16 C14 1.382 . S
C16 H17 0.952 . S
H17 C16 0.952 . S
H18 C14 0.950 . S
H19 C20 0.949 . S
C20 H19 0.949 . S
C20 C21 1.395 . S
C20 C22 1.391 . S
C21 C20 1.395 . S
C21 C24 1.390 . S
C22 C20 1.391 . S
C22 C26 1.387 . S
C22 C27 1.491 . S
H23 C24 0.950 . S
C24 C21 1.390 . S
C24 H23 0.950 . S
C24 C25 1.378 . S
C25 C24 1.378 . S
C25 C26 1.409 . S
C26 C22 1.387 . S
C26 C25 1.409 . S
C26 H28 0.951 . S
C27 C22 1.491 . S
C27 C29 1.382 . S
C27 C31 1.404 . S
H28 C26 0.951 . S
C29 C27 1.382 . S
C29 C30 1.390 . S
C29 H34 0.949 . S
C30 C29 1.390 . S
C30 C35 1.399 . S
C31 C27 1.404 . S
C31 H32 0.950 . S
C31 C33 1.375 . S
H32 C31 0.950 . S
C33 C31 1.375 . S
C33 C35 1.382 . S
C33 H37 0.950 . S
H34 C29 0.949 . S
C35 C30 1.399 . S
C35 C33 1.382 . S
C35 H36 0.952 . S
H36 C35 0.952 . S
H37 C33 0.950 . S
H38 C39 0.949 . S
C39 H38 0.949 . S
C39 C40 1.395 . S
C39 C41 1.391 . S
C40 C39 1.395 . S
C40 C43 1.390 . S
C41 C39 1.391 . S
C41 C45 1.387 . S
C41 C46 1.491 . S
H42 C43 0.950 . S
C43 C40 1.390 . S
C43 H42 0.950 . S
C43 C44 1.378 . S
C44 C43 1.378 . S
C44 C45 1.409 . S
C45 C41 1.387 . S
C45 C44 1.409 . S
C45 H47 0.951 . S
C46 C41 1.491 . S
C46 C48 1.382 . S
C46 C50 1.404 . S
H47 C45 0.951 . S
C48 C46 1.382 . S
C48 C49 1.390 . S
C48 H53 0.949 . S
C49 C48 1.390 . S
C49 C54 1.399 . S
C50 C46 1.404 . S
C50 H51 0.950 . S
C50 C52 1.375 . S
H51 C50 0.950 . S
C52 C50 1.375 . S
C52 C54 1.382 . S
C52 H56 0.950 . S
H53 C48 0.949 . S
C54 C49 1.399 . S
C54 C52 1.382 . S
C54 H55 0.952 . S
H55 C54 0.952 . S
H56 C52 0.950 . S
H57 C58 0.949 . S
C58 H57 0.949 . S
C58 C59 1.395 . S
C58 C60 1.391 . S
C59 C58 1.395 . S
C59 C62 1.390 . S
C60 C58 1.391 . S
C60 C64 1.387 . S
C60 C65 1.491 . S
H61 C62 0.950 . S
C62 C59 1.390 . S
C62 H61 0.950 . S
C62 C63 1.378 . S
C63 C62 1.378 . S
C63 C64 1.409 . S
C64 C60 1.387 . S
C64 C63 1.409 . S
C64 H66 0.951 . S
C65 C60 1.491 . S
C65 C67 1.382 . S
C65 C69 1.404 . S
H66 C64 0.951 . S
C67 C65 1.382 . S
C67 C68 1.390 . S
C67 H72 0.949 . S
C68 C67 1.390 . S
C68 C73 1.399 . S
C69 C65 1.404 . S
C69 H70 0.950 . S
C69 C71 1.375 . S
H70 C69 0.950 . S
C71 C69 1.375 . S
C71 C73 1.382 . S
C71 H75 0.950 . S
H72 C67 0.949 . S
C73 C68 1.399 . S
C73 C71 1.382 . S
C73 H74 0.952 . S
H74 C73 0.952 . S
H75 C71 0.950 . S
H76 C77 0.949 . S
C77 H76 0.949 . S
C77 C78 1.395 . S
C77 C79 1.391 . S
C78 C77 1.395 . S
C78 C81 1.390 . S
C79 C77 1.391 . S
C79 C83 1.387 . S
C79 C84 1.491 . S
H80 C81 0.950 . S
C81 C78 1.390 . S
C81 H80 0.950 . S
C81 C82 1.378 . S
C82 C81 1.378 . S
C82 C83 1.409 . S
C83 C79 1.387 . S
C83 C82 1.409 . S
C83 H85 0.951 . S
C84 C79 1.491 . S
C84 C86 1.382 . S
C84 C88 1.404 . S
H85 C83 0.951 . S
C86 C84 1.382 . S
C86 C87 1.390 . S
C86 H91 0.949 . S
C87 C86 1.390 . S
C87 C92 1.399 . S
C88 C84 1.404 . S
C88 H89 0.950 . S
C88 C90 1.375 . S
H89 C88 0.950 . S
C90 C88 1.375 . S
C90 C92 1.382 . S
C90 H94 0.950 . S
H91 C86 0.949 . S
C92 C87 1.399 . S
C92 C90 1.382 . S
C92 H93 0.952 . S
H93 C92 0.952 . S
H94 C90 0.950 . S
H95 C96 0.949 . S
C96 H95 0.949 . S
C96 C97 1.395 . S
C96 C98 1.391 . S
C97 C96 1.395 . S
C97 C100 1.390 . S
C98 C96 1.391 . S
C98 C102 1.387 . S
C98 C103 1.491 . S
H99 C100 0.950 . S
C100 C97 1.390 . S
C100 H99 0.950 . S
C100 C101 1.378 . S
C101 C100 1.378 . S
C101 C102 1.409 . S
C102 C98 1.387 . S
C102 C101 1.409 . S
C102 H104 0.951 . S
C103 C98 1.491 . S
C103 C105 1.382 . S
C103 C107 1.404 . S
H104 C102 0.951 . S
C105 C103 1.382 . S
C105 C106 1.390 . S
C105 H110 0.949 . S
C106 C105 1.390 . S
C106 C111 1.399 . S
C107 C103 1.404 . S
C107 H108 0.950 . S
C107 C109 1.375 . S
H108 C107 0.950 . S
C109 C107 1.375 . S
C109 C111 1.382 . S
C109 H113 0.950 . S
H110 C105 0.949 . S
C111 C106 1.399 . S
C111 C109 1.382 . S
C111 H112 0.952 . S
H112 C111 0.952 . S
H113 C109 0.950 . S
H114 C115 0.949 . S
C115 H114 0.949 . S
C115 C116 1.395 . S
C115 C117 1.391 . S
C116 C115 1.395 . S
C116 C119 1.390 . S
C117 C115 1.391 . S
C117 C121 1.387 . S
C117 C122 1.491 . S
H118 C119 0.950 . S
C119 C116 1.390 . S
C119 H118 0.950 . S
C119 C120 1.378 . S
C120 C119 1.378 . S
C120 C121 1.409 . S
C121 C117 1.387 . S
C121 C120 1.409 . S
C121 H123 0.951 . S
C122 C117 1.491 . S
C122 C124 1.382 . S
C122 C126 1.404 . S
H123 C121 0.951 . S
C124 C122 1.382 . S
C124 C125 1.390 . S
C124 H129 0.949 . S
C125 C124 1.390 . S
C125 C130 1.399 . S
C126 C122 1.404 . S
C126 H127 0.950 . S
C126 C128 1.375 . S
H127 C126 0.950 . S
C128 C126 1.375 . S
C128 C130 1.382 . S
C128 H132 0.950 . S
H129 C124 0.949 . S
C130 C125 1.399 . S
C130 C128 1.382 . S
C130 H131 0.952 . S
H131 C130 0.952 . S
H132 C128 0.950 . S
H133 C134 0.949 . S
C134 H133 0.949 . S
C134 C135 1.395 . S
C134 C136 1.391 . S
C135 C134 1.395 . S
C135 C138 1.390 . S
C136 C134 1.391 . S
C136 C140 1.387 . S
C136 C141 1.491 . S
H137 C138 0.950 . S
C138 C135 1.390 . S
C138 H137 0.950 . S
C138 C139 1.378 . S
C139 C138 1.378 . S
C139 C140 1.409 . S
C140 C136 1.387 . S
C140 C139 1.409 . S
C140 H142 0.951 . S
C141 C136 1.491 . S
C141 C143 1.382 . S
C141 C145 1.404 . S
H142 C140 0.951 . S
C143 C141 1.382 . S
C143 C144 1.390 . S
C143 H148 0.949 . S
C144 C143 1.390 . S
C144 C149 1.399 . S
C145 C141 1.404 . S
C145 H146 0.950 . S
C145 C147 1.375 . S
H146 C145 0.950 . S
C147 C145 1.375 . S
C147 C149 1.382 . S
C147 H151 0.950 . S
H148 C143 0.949 . S
C149 C144 1.399 . S
C149 C147 1.382 . S
C149 H150 0.952 . S
H150 C149 0.952 . S
H151 C147 0.950 . S
C152 C154 1.422 . S
C152 C156 1.415 . S
C152 N158 1.369 . S
C153 C154 1.421 . S
C153 C155 1.417 . S
C153 C165 1.422 1_545 S
C154 C152 1.422 . S
C154 C153 1.421 . S
C154 N164 1.359 . S
C155 C153 1.417 . S
C155 C157 1.329 . S
C155 H174 0.930 1_545 S
C156 C152 1.415 . S
C156 C157 1.437 . S
C156 C160 1.413 . S
C157 C155 1.329 . S
C157 C156 1.437 . S
C157 H179 0.929 . S
N158 C152 1.369 . S
N158 C159 1.338 . S
N158 Gd163 2.622 . S
C159 N158 1.338 . S
C159 C161 1.378 . S
C159 H171 0.929 . S
C160 C156 1.413 . S
C160 C161 1.348 . S
C160 H176 0.931 . S
C161 C159 1.378 . S
C161 C160 1.348 . S
C161 H177 0.930 . S
Gd162 N182 2.622 . S
Gd162 N189 2.570 . S
Gd162 O196 2.353 1_455 S
Gd162 O197 2.468 . S
Gd162 O198 2.427 . S
Gd162 O200 2.388 . S
Gd162 O201 2.386 . S
Gd162 O205 2.307 1_455 S
Gd162 C215 2.805 . S
Gd163 N158 2.622 . S
Gd163 N164 2.570 . S
Gd163 O195 2.386 . S
Gd163 O199 2.307 1_655 S
Gd163 O202 2.353 1_655 S
Gd163 O203 2.468 . S
Gd163 O204 2.427 . S
Gd163 O206 2.388 . S
Gd163 C227 2.805 . S
N164 C154 1.359 . S
N164 Gd163 2.570 . S
N164 C166 1.343 . S
C165 C153 1.422 1_565 S
C165 C167 1.321 . S
C165 H173 0.931 . S
C166 N164 1.343 . S
C166 C167 1.390 1_545 S
C166 H168 0.931 . S
C167 C165 1.321 . S
C167 C166 1.390 1_565 S
C167 H169 0.930 . S
H168 C166 0.931 . S
H169 C167 0.930 . S
H170 C193 0.931 . S
H171 C159 0.929 . S
H172 C194 0.930 . S
H173 C165 0.931 . S
H174 C155 0.930 1_565 S
H175 C184 0.929 . S
H176 C160 0.931 . S
H177 C161 0.930 . S
H178 C216 0.930 . S
H179 C157 0.929 . S
H180 C185 0.931 . S
H181 C186 0.930 . S
N182 Gd162 2.622 . S
N182 C183 1.369 . S
N182 C184 1.338 . S
C183 N182 1.369 . S
C183 C187 1.415 . S
C183 C190 1.422 . S
C184 H175 0.929 . S
C184 N182 1.338 . S
C184 C186 1.378 . S
C185 H180 0.931 . S
C185 C186 1.348 . S
C185 C187 1.413 . S
C186 H181 0.930 . S
C186 C184 1.378 . S
C186 C185 1.348 . S
C187 C183 1.415 . S
C187 C185 1.413 . S
C187 C217 1.437 . S
H188 C217 0.929 . S
N189 Gd162 2.570 . S
N189 C190 1.359 . S
N189 C193 1.343 . S
C190 C183 1.422 . S
C190 N189 1.359 . S
C190 C192 1.421 . S
C191 C192 1.422 . S
C191 C194 1.321 . S
C191 H218 0.931 . S
C192 C190 1.421 . S
C192 C191 1.422 . S
C192 C216 1.417 . S
C193 H170 0.931 . S
C193 N189 1.343 . S
C193 C194 1.390 . S
C194 H172 0.930 . S
C194 C191 1.321 . S
C194 C193 1.390 . S
O195 Gd163 2.386 . S
O195 C207 1.265 . S
O196 Gd162 2.353 1_655 S
O196 C207 1.242 . S
O197 Gd162 2.468 . S
O197 C215 1.263 . S
O198 Gd162 2.427 . S
O198 C215 1.252 . S
O199 Gd163 2.307 1_455 S
O199 C208 1.261 . S
O200 Gd162 2.388 . S
O200 C208 1.252 . S
O201 Gd162 2.386 . S
O201 C219 1.265 . S
O202 Gd163 2.353 1_455 S
O202 C219 1.242 . S
O203 Gd163 2.468 . S
O203 C227 1.263 . S
O204 Gd163 2.427 . S
O204 C227 1.252 . S
O205 Gd162 2.307 1_655 S
O205 C220 1.261 . S
O206 Gd163 2.388 . S
O206 C220 1.252 . S
C207 O195 1.265 . S
C207 O196 1.242 . S
C208 O199 1.261 . S
C208 O200 1.252 . S
C209 C212 1.394 . S
C209 C214 1.370 . S
C209 C215 1.500 . S
C210 C213 1.383 . S
C210 C214 1.395 . S
C211 C212 1.396 . S
C211 C213 1.365 . S
C211 H228 0.929 . S
C212 C209 1.394 . S
C212 C211 1.396 . S
C212 H229 0.930 . S
C213 C210 1.383 . S
C213 C211 1.365 . S
C213 H230 0.931 . S
C214 C209 1.370 . S
C214 C210 1.395 . S
C214 H231 0.930 . S
C215 Gd162 2.805 . S
C215 O197 1.263 . S
C215 O198 1.252 . S
C215 C209 1.500 . S
C216 H178 0.930 . S
C216 C192 1.417 . S
C216 C217 1.329 . S
C217 C187 1.437 . S
C217 H188 0.929 . S
C217 C216 1.329 . S
H218 C191 0.931 . S
C219 O201 1.265 . S
C219 O202 1.242 . S
C220 O205 1.261 . S
C220 O206 1.252 . S
C221 C224 1.394 . S
C221 C226 1.370 . S
C221 C227 1.500 . S
C222 C225 1.383 . S
C222 C226 1.395 . S
C223 C224 1.396 . S
C223 C225 1.365 . S
C223 H232 0.929 . S
C224 C221 1.394 . S
C224 C223 1.396 . S
C224 H233 0.930 . S
C225 C222 1.383 . S
C225 C223 1.365 . S
C225 H234 0.931 . S
C226 C221 1.370 . S
C226 C222 1.395 . S
C226 H235 0.930 . S
C227 Gd163 2.805 . S
C227 O203 1.263 . S
C227 O204 1.252 . S
C227 C221 1.500 . S
H228 C211 0.929 . S
H229 C212 0.930 . S
H230 C213 0.931 . S
H231 C214 0.930 . S
H232 C223 0.929 . S
H233 C224 0.930 . S
H234 C225 0.931 . S
H235 C226 0.930 . S
C236 C238 1.422 . S
C236 C240 1.415 . S
C236 N242 1.369 . S
C237 C238 1.421 . S
C237 C239 1.417 . S
C237 C249 1.422 . S
C238 C236 1.422 . S
C238 C237 1.421 . S
C238 N248 1.359 . S
C239 C237 1.417 . S
C239 C241 1.329 . S
C239 H258 0.930 . S
C240 C236 1.415 . S
C240 C241 1.437 . S
C240 C244 1.413 . S
C241 C239 1.329 . S
C241 C240 1.437 . S
C241 H263 0.929 . S
N242 C236 1.369 . S
N242 C243 1.338 . S
N242 Gd247 2.622 . S
C243 N242 1.338 . S
C243 C245 1.378 . S
C243 H255 0.929 . S
C244 C240 1.413 . S
C244 C245 1.348 . S
C244 H260 0.931 . S
C245 C243 1.378 . S
C245 C244 1.348 . S
C245 H261 0.930 . S
Gd246 N266 2.622 . S
Gd246 N273 2.570 . S
Gd246 O280 2.353 . S
Gd246 O281 2.468 . S
Gd246 O282 2.427 . S
Gd246 O284 2.388 . S
Gd246 O285 2.386 . S
Gd246 O289 2.307 . S
Gd246 C299 2.805 . S
Gd247 N242 2.622 . S
Gd247 N248 2.570 . S
Gd247 O279 2.386 . S
Gd247 O283 2.307 . S
Gd247 O286 2.353 . S
Gd247 O287 2.468 . S
Gd247 O288 2.427 . S
Gd247 O290 2.388 . S
Gd247 C311 2.805 . S
N248 C238 1.359 . S
N248 Gd247 2.570 . S
N248 C250 1.343 . S
C249 C237 1.422 . S
C249 C251 1.321 . S
C249 H257 0.931 . S
C250 N248 1.343 . S
C250 C251 1.390 . S
C250 H252 0.931 . S
C251 C249 1.321 . S
C251 C250 1.390 . S
C251 H253 0.930 . S
H252 C250 0.931 . S
H253 C251 0.930 . S
H254 C277 0.931 . S
H255 C243 0.929 . S
H256 C278 0.930 . S
H257 C249 0.931 . S
H258 C239 0.930 . S
H259 C268 0.929 . S
H260 C244 0.931 . S
H261 C245 0.930 . S
H262 C300 0.930 . S
H263 C241 0.929 . S
H264 C269 0.931 . S
H265 C270 0.930 . S
N266 Gd246 2.622 . S
N266 C267 1.369 . S
N266 C268 1.338 . S
C267 N266 1.369 . S
C267 C271 1.415 . S
C267 C274 1.422 . S
C268 H259 0.929 . S
C268 N266 1.338 . S
C268 C270 1.378 . S
C269 H264 0.931 . S
C269 C270 1.348 . S
C269 C271 1.413 . S
C270 H265 0.930 . S
C270 C268 1.378 . S
C270 C269 1.348 . S
C271 C267 1.415 . S
C271 C269 1.413 . S
C271 C301 1.437 . S
H272 C301 0.929 . S
N273 Gd246 2.570 . S
N273 C274 1.359 . S
N273 C277 1.343 . S
C274 C267 1.422 . S
C274 N273 1.359 . S
C274 C276 1.421 . S
C275 C276 1.422 . S
C275 C278 1.321 . S
C275 H302 0.931 . S
C276 C274 1.421 . S
C276 C275 1.422 . S
C276 C300 1.417 . S
C277 H254 0.931 . S
C277 N273 1.343 . S
C277 C278 1.390 . S
C278 H256 0.930 . S
C278 C275 1.321 . S
C278 C277 1.390 . S
O279 Gd247 2.386 . S
O279 C291 1.265 . S
O280 Gd246 2.353 . S
O280 C291 1.242 . S
O281 Gd246 2.468 . S
O281 C299 1.263 . S
O282 Gd246 2.427 . S
O282 C299 1.252 . S
O283 Gd247 2.307 . S
O283 C292 1.261 . S
O284 Gd246 2.388 . S
O284 C292 1.252 . S
O285 Gd246 2.386 . S
O285 C303 1.265 . S
O286 Gd247 2.353 . S
O286 C303 1.242 . S
O287 Gd247 2.468 . S
O287 C311 1.263 . S
O288 Gd247 2.427 . S
O288 C311 1.252 . S
O289 Gd246 2.307 . S
O289 C304 1.261 . S
O290 Gd247 2.388 . S
O290 C304 1.252 . S
C291 O279 1.265 . S
C291 O280 1.242 . S
C292 O283 1.261 . S
C292 O284 1.252 . S
C293 C296 1.394 . S
C293 C298 1.370 . S
C293 C299 1.500 . S
C294 C297 1.383 . S
C294 C298 1.395 . S
C295 C296 1.396 . S
C295 C297 1.365 . S
C295 H312 0.929 . S
C296 C293 1.394 . S
C296 C295 1.396 . S
C296 H313 0.930 . S
C297 C294 1.383 . S
C297 C295 1.365 . S
C297 H314 0.931 . S
C298 C293 1.370 . S
C298 C294 1.395 . S
C298 H315 0.930 . S
C299 Gd246 2.805 . S
C299 O281 1.263 . S
C299 O282 1.252 . S
C299 C293 1.500 . S
C300 H262 0.930 . S
C300 C276 1.417 . S
C300 C301 1.329 . S
C301 C271 1.437 . S
C301 H272 0.929 . S
C301 C300 1.329 . S
H302 C275 0.931 . S
C303 O285 1.265 . S
C303 O286 1.242 . S
C304 O289 1.261 . S
C304 O290 1.252 . S
C305 C308 1.394 . S
C305 C310 1.370 . S
C305 C311 1.500 . S
C306 C309 1.383 . S
C306 C310 1.395 . S
C307 C308 1.396 . S
C307 C309 1.365 . S
C307 H316 0.929 . S
C308 C305 1.394 . S
C308 C307 1.396 . S
C308 H317 0.930 . S
C309 C306 1.383 . S
C309 C307 1.365 . S
C309 H318 0.931 . S
C310 C305 1.370 . S
C310 C306 1.395 . S
C310 H319 0.930 . S
C311 Gd247 2.805 . S
C311 O287 1.263 . S
C311 O288 1.252 . S
C311 C305 1.500 . S
H312 C295 0.929 . S
H313 C296 0.930 . S
H314 C297 0.931 . S
H315 C298 0.930 . S
H316 C307 0.929 . S
H317 C308 0.930 . S
H318 C309 0.931 . S
H319 C310 0.930 . S
C320 C322 1.422 . S
C320 C324 1.415 . S
C320 N326 1.369 . S
C321 C322 1.421 . S
C321 C323 1.417 . S
C321 C333 1.422 . S
C322 C320 1.422 . S
C322 C321 1.421 . S
C322 N332 1.359 . S
C323 C321 1.417 . S
C323 C325 1.329 . S
C323 H342 0.930 . S
C324 C320 1.415 . S
C324 C325 1.437 . S
C324 C328 1.413 . S
C325 C323 1.329 . S
C325 C324 1.437 . S
C325 H347 0.929 . S
N326 C320 1.369 . S
N326 C327 1.338 . S
N326 Gd331 2.622 . S
C327 N326 1.338 . S
C327 C329 1.378 . S
C327 H339 0.929 . S
C328 C324 1.413 . S
C328 C329 1.348 . S
C328 H344 0.931 . S
C329 C327 1.378 . S
C329 C328 1.348 . S
C329 H345 0.930 . S
Gd330 N350 2.622 . S
Gd330 N357 2.570 . S
Gd330 O364 2.353 . S
Gd330 O365 2.468 . S
Gd330 O366 2.427 . S
Gd330 O368 2.388 . S
Gd330 O369 2.386 . S
Gd330 O373 2.324 . S
Gd330 C383 2.805 . S
Gd331 N326 2.622 . S
Gd331 N332 2.570 . S
Gd331 O363 2.386 . S
Gd331 O367 2.307 1_655 S
Gd331 O370 2.353 1_655 S
Gd331 O371 2.468 . S
Gd331 O372 2.427 . S
Gd331 O374 2.388 . S
Gd331 C395 2.805 . S
N332 C322 1.359 . S
N332 Gd331 2.570 . S
N332 C334 1.343 . S
C333 C321 1.422 . S
C333 C335 1.321 . S
C333 H341 0.931 . S
C334 N332 1.343 . S
C334 C335 1.390 . S
C334 H336 0.931 . S
C335 C333 1.321 . S
C335 C334 1.390 . S
C335 H337 0.930 . S
H336 C334 0.931 . S
H337 C335 0.930 . S
H338 C361 0.931 . S
H339 C327 0.929 . S
H340 C362 0.930 . S
H341 C333 0.931 . S
H342 C323 0.930 . S
H343 C352 0.929 . S
H344 C328 0.931 . S
H345 C329 0.930 . S
H346 C384 0.930 1_545 S
H347 C325 0.929 . S
H348 C353 0.931 . S
H349 C354 0.930 . S
N350 Gd330 2.622 . S
N350 C351 1.369 . S
N350 C352 1.338 . S
C351 N350 1.369 . S
C351 C355 1.415 . S
C351 C358 1.422 . S
C352 H343 0.929 . S
C352 N350 1.338 . S
C352 C354 1.378 . S
C353 H348 0.931 . S
C353 C354 1.348 . S
C353 C355 1.413 . S
C354 H349 0.930 . S
C354 C352 1.378 . S
C354 C353 1.348 . S
C355 C351 1.415 . S
C355 C353 1.413 . S
C355 C385 1.437 . S
H356 C385 0.929 . S
N357 Gd330 2.570 . S
N357 C358 1.359 . S
N357 C361 1.343 . S
C358 C351 1.422 . S
C358 N357 1.359 . S
C358 C360 1.421 . S
C359 C360 1.422 1_545 S
C359 C362 1.321 . S
C359 H386 0.931 . S
C360 C358 1.421 . S
C360 C359 1.422 1_565 S
C360 C384 1.417 . S
C361 H338 0.931 . S
C361 N357 1.343 . S
C361 C362 1.390 1_565 S
C362 H340 0.930 . S
C362 C359 1.321 . S
C362 C361 1.390 1_545 S
O363 Gd331 2.386 . S
O363 C375 1.265 . S
O364 Gd330 2.353 . S
O364 C375 1.242 1_455 S
O365 Gd330 2.468 . S
O365 C383 1.263 . S
O366 Gd330 2.427 . S
O366 C383 1.252 . S
O367 Gd331 2.307 1_455 S
O367 C376 1.261 . S
O368 Gd330 2.388 . S
O368 C376 1.252 . S
O369 Gd330 2.386 . S
O369 C387 1.265 . S
O370 Gd331 2.353 1_455 S
O370 C387 1.242 . S
O371 Gd331 2.468 . S
O371 C395 1.263 . S
O372 Gd331 2.427 . S
O372 C395 1.252 . S
O373 Gd330 2.324 . S
O373 C388 1.241 1_455 S
O374 Gd331 2.388 . S
O374 C388 1.252 . S
C375 O363 1.265 . S
C375 O364 1.242 1_655 S
C376 O367 1.261 . S
C376 O368 1.252 . S
C377 C380 1.394 . S
C377 C382 1.370 . S
C377 C383 1.500 . S
C378 C381 1.383 . S
C378 C382 1.395 . S
C379 C380 1.396 . S
C379 C381 1.365 . S
C379 H396 0.929 . S
C380 C377 1.394 . S
C380 C379 1.396 . S
C380 H397 0.930 . S
C381 C378 1.383 . S
C381 C379 1.365 . S
C381 H398 0.931 . S
C382 C377 1.370 . S
C382 C378 1.395 . S
C382 H399 0.930 . S
C383 Gd330 2.805 . S
C383 O365 1.263 . S
C383 O366 1.252 . S
C383 C377 1.500 . S
C384 H346 0.930 1_565 S
C384 C360 1.417 . S
C384 C385 1.329 . S
C385 C355 1.437 . S
C385 H356 0.929 . S
C385 C384 1.329 . S
H386 C359 0.931 . S
C387 O369 1.265 . S
C387 O370 1.242 . S
C388 O373 1.241 1_655 S
C388 O374 1.252 . S
C389 C392 1.394 . S
C389 C394 1.370 . S
C389 C395 1.500 . S
C390 C393 1.383 . S
C390 C394 1.395 . S
C391 C392 1.396 . S
C391 C393 1.365 . S
C391 H400 0.929 . S
C392 C389 1.394 . S
C392 C391 1.396 . S
C392 H401 0.930 . S
C393 C390 1.383 . S
C393 C391 1.365 . S
C393 H402 0.931 . S
C394 C389 1.370 . S
C394 C390 1.395 . S
C394 H403 0.930 . S
C395 Gd331 2.805 . S
C395 O371 1.263 . S
C395 O372 1.252 . S
C395 C389 1.500 . S
H396 C379 0.929 . S
H397 C380 0.930 . S
H398 C381 0.931 . S
H399 C382 0.930 . S
H400 C391 0.929 . S
H401 C392 0.930 . S
H402 C393 0.931 . S
H403 C394 0.930 . S
C404 C406 1.422 . S
C404 C408 1.415 . S
C404 N410 1.369 . S
C405 C406 1.421 . S
C405 C407 1.417 . S
C405 C417 1.422 . S
C406 C404 1.422 . S
C406 C405 1.421 . S
C406 N416 1.359 . S
C407 C405 1.417 . S
C407 C409 1.329 . S
C407 H426 0.930 . S
C408 C404 1.415 . S
C408 C409 1.437 . S
C408 C412 1.413 . S
C409 C407 1.329 . S
C409 C408 1.437 . S
C409 H431 0.929 . S
N410 C404 1.369 . S
N410 C411 1.338 . S
N410 Gd415 2.622 . S
C411 N410 1.338 . S
C411 C413 1.378 . S
C411 H423 0.929 . S
C412 C408 1.413 . S
C412 C413 1.348 . S
C412 H428 0.931 . S
C413 C411 1.378 . S
C413 C412 1.348 . S
C413 H429 0.930 . S
Gd414 N434 2.622 . S
Gd414 N441 2.570 . S
Gd414 O448 2.353 . S
Gd414 O449 2.468 . S
Gd414 O450 2.427 . S
Gd414 O452 2.388 . S
Gd414 O453 2.386 . S
Gd414 O457 2.307 . S
Gd414 C467 2.805 . S
Gd415 N410 2.622 . S
Gd415 N416 2.570 . S
Gd415 O447 2.386 . S
Gd415 O451 2.307 . S
Gd415 O454 2.353 . S
Gd415 O455 2.468 . S
Gd415 O456 2.427 . S
Gd415 O458 2.388 . S
Gd415 C479 2.805 . S
N416 C406 1.359 . S
N416 Gd415 2.570 . S
N416 C418 1.343 . S
C417 C405 1.422 . S
C417 C419 1.321 . S
C417 H425 0.931 . S
C418 N416 1.343 . S
C418 C419 1.390 . S
C418 H420 0.931 . S
C419 C417 1.321 . S
C419 C418 1.390 . S
C419 H421 0.930 . S
H420 C418 0.931 . S
H421 C419 0.930 . S
H422 C445 0.931 . S
H423 C411 0.929 . S
H424 C446 0.930 . S
H425 C417 0.931 . S
H426 C407 0.930 . S
H427 C436 0.929 . S
H428 C412 0.931 . S
H429 C413 0.930 . S
H430 C468 0.930 . S
H431 C409 0.929 . S
H432 C437 0.931 . S
H433 C438 0.930 . S
N434 Gd414 2.622 . S
N434 C435 1.369 . S
N434 C436 1.338 . S
C435 N434 1.369 . S
C435 C439 1.415 . S
C435 C442 1.422 . S
C436 H427 0.929 . S
C436 N434 1.338 . S
C436 C438 1.378 . S
C437 H432 0.931 . S
C437 C438 1.348 . S
C437 C439 1.413 . S
C438 H433 0.930 . S
C438 C436 1.378 . S
C438 C437 1.348 . S
C439 C435 1.415 . S
C439 C437 1.413 . S
C439 C469 1.437 . S
H440 C469 0.929 . S
N441 Gd414 2.570 . S
N441 C442 1.359 . S
N441 C445 1.343 . S
C442 C435 1.422 . S
C442 N441 1.359 . S
C442 C444 1.421 . S
C443 C444 1.422 . S
C443 C446 1.321 . S
C443 H470 0.931 . S
C444 C442 1.421 . S
C444 C443 1.422 . S
C444 C468 1.417 . S
C445 H422 0.931 . S
C445 N441 1.343 . S
C445 C446 1.390 . S
C446 H424 0.930 . S
C446 C443 1.321 . S
C446 C445 1.390 . S
O447 Gd415 2.386 . S
O447 C459 1.265 . S
O448 Gd414 2.353 . S
O448 C459 1.242 . S
O449 Gd414 2.468 . S
O449 C467 1.263 . S
O450 Gd414 2.427 . S
O450 C467 1.252 . S
O451 Gd415 2.307 . S
O451 C460 1.261 . S
O452 Gd414 2.388 . S
O452 C460 1.252 . S
O453 Gd414 2.386 . S
O453 C471 1.265 . S
O454 Gd415 2.353 . S
O454 C471 1.242 . S
O455 Gd415 2.468 . S
O455 C479 1.263 . S
O456 Gd415 2.427 . S
O456 C479 1.252 . S
O457 Gd414 2.307 . S
O457 C472 1.261 . S
O458 Gd415 2.388 . S
O458 C472 1.252 . S
C459 O447 1.265 . S
C459 O448 1.242 . S
C460 O451 1.261 . S
C460 O452 1.252 . S
C461 C464 1.394 . S
C461 C466 1.370 . S
C461 C467 1.500 . S
C462 C465 1.383 . S
C462 C466 1.395 . S
C463 C464 1.396 . S
C463 C465 1.365 . S
C463 H480 0.929 . S
C464 C461 1.394 . S
C464 C463 1.396 . S
C464 H481 0.930 . S
C465 C462 1.383 . S
C465 C463 1.365 . S
C465 H482 0.931 . S
C466 C461 1.370 . S
C466 C462 1.395 . S
C466 H483 0.930 . S
C467 Gd414 2.805 . S
C467 O449 1.263 . S
C467 O450 1.252 . S
C467 C461 1.500 . S
C468 H430 0.930 . S
C468 C444 1.417 . S
C468 C469 1.329 . S
C469 C439 1.437 . S
C469 H440 0.929 . S
C469 C468 1.329 . S
H470 C443 0.931 . S
C471 O453 1.265 . S
C471 O454 1.242 . S
C472 O457 1.261 . S
C472 O458 1.252 . S
C473 C476 1.394 . S
C473 C478 1.370 . S
C473 C479 1.500 . S
C474 C477 1.383 . S
C474 C478 1.395 . S
C475 C476 1.396 . S
C475 C477 1.365 . S
C475 H484 0.929 . S
C476 C473 1.394 . S
C476 C475 1.396 . S
C476 H485 0.930 . S
C477 C474 1.383 . S
C477 C475 1.365 . S
C477 H486 0.931 . S
C478 C473 1.370 . S
C478 C474 1.395 . S
C478 H487 0.930 . S
C479 Gd415 2.805 . S
C479 O455 1.263 . S
C479 O456 1.252 . S
C479 C473 1.500 . S
H480 C463 0.929 . S
H481 C464 0.930 . S
H482 C465 0.931 . S
H483 C466 0.930 . S
H484 C475 0.929 . S
H485 C476 0.930 . S
H486 C477 0.931 . S
H487 C478 0.930 . S
H488 C494 0.930 . S
H489 C498 0.930 . S
H490 C503 0.929 . S
H491 C501 0.929 1_545 S
H492 C496 0.929 . S
H493 C502 0.929 . S
C494 H488 0.930 . S
C494 C495 1.367 . S
C494 C502 1.378 . S
C495 C494 1.367 . S
C495 C503 1.433 . S
C496 H492 0.929 . S
C496 C498 1.378 1_565 S
C496 C500 1.350 . S
C497 C500 1.463 . S
C497 C502 1.350 . S
C497 N505 1.427 . S
C498 H489 0.930 . S
C498 C496 1.378 1_545 S
C498 C499 1.367 . S
C499 C498 1.367 . S
C499 C501 1.433 1_545 S
C500 C496 1.350 . S
C500 C497 1.463 . S
C500 N504 1.427 . S
C501 H491 0.929 1_565 S
C501 C499 1.433 1_565 S
C501 N504 1.384 . S
C502 H493 0.929 . S
C502 C494 1.378 . S
C502 C497 1.350 . S
C503 H490 0.929 . S
C503 C495 1.433 . S
C503 N505 1.384 . S
N504 C500 1.427 . S
N504 C501 1.384 . S
N505 C497 1.427 . S
N505 C503 1.384 . S
H506 C512 0.930 . S
H507 C516 0.930 . S
H508 C521 0.929 . S
H509 C519 0.929 . S
H510 C514 0.929 . S
H511 C520 0.929 . S
C512 H506 0.930 . S
C512 C513 1.367 . S
C512 C520 1.378 . S
C513 C512 1.367 . S
C513 C521 1.433 . S
C514 H510 0.929 . S
C514 C516 1.378 . S
C514 C518 1.350 . S
C515 C518 1.463 . S
C515 C520 1.350 . S
C515 N523 1.427 . S
C516 H507 0.930 . S
C516 C514 1.378 . S
C516 C517 1.367 . S
C517 C516 1.367 . S
C517 C519 1.433 . S
C518 C514 1.350 . S
C518 C515 1.463 . S
C518 N522 1.427 . S
C519 H509 0.929 . S
C519 C517 1.433 . S
C519 N522 1.384 . S
C520 H511 0.929 . S
C520 C512 1.378 . S
C520 C515 1.350 . S
C521 H508 0.929 . S
C521 C513 1.433 . S
C521 N523 1.384 . S
N522 C518 1.427 . S
N522 C519 1.384 . S
N523 C515 1.427 . S
N523 C521 1.384 . S
H524 C530 0.930 . S
H525 C534 0.930 . S
H526 C539 0.929 . S
H527 C537 0.929 . S
H528 C532 0.929 . S
H529 C538 0.929 . S
C530 H524 0.930 . S
C530 C531 1.367 . S
C530 C538 1.378 . S
C531 C530 1.367 . S
C531 C539 1.433 . S
C532 H528 0.929 . S
C532 C534 1.378 . S
C532 C536 1.350 . S
C533 C536 1.463 . S
C533 C538 1.350 . S
C533 N541 1.427 . S
C534 H525 0.930 . S
C534 C532 1.378 . S
C534 C535 1.367 . S
C535 C534 1.367 . S
C535 C537 1.433 . S
C536 C532 1.350 . S
C536 C533 1.463 . S
C536 N540 1.427 . S
C537 H527 0.929 . S
C537 C535 1.433 . S
C537 N540 1.384 . S
C538 H529 0.929 . S
C538 C530 1.378 . S
C538 C533 1.350 . S
C539 H526 0.929 . S
C539 C531 1.433 . S
C539 N541 1.384 . S
N540 C536 1.427 . S
N540 C537 1.384 . S
N541 C533 1.427 . S
N541 C539 1.384 . S
H542 C548 0.930 . S
H543 C552 0.930 . S
H544 C557 0.929 . S
H545 C555 0.929 . S
H546 C550 0.929 . S
H547 C556 0.929 . S
C548 H542 0.930 . S
C548 C549 1.367 . S
C548 C556 1.378 . S
C549 C548 1.367 . S
C549 C557 1.433 . S
C550 H546 0.929 . S
C550 C552 1.378 . S
C550 C554 1.350 1_545 S
C551 C554 1.463 . S
C551 C556 1.350 . S
C551 N559 1.427 . S
C552 H543 0.930 . S
C552 C550 1.378 . S
C552 C553 1.367 . S
C553 C552 1.367 . S
C553 C555 1.433 1_545 S
C554 C550 1.350 1_565 S
C554 C551 1.463 . S
C554 N558 1.427 . S
C555 H545 0.929 . S
C555 C553 1.433 1_565 S
C555 N558 1.384 . S
C556 H547 0.929 . S
C556 C548 1.378 . S
C556 C551 1.350 . S
C557 H544 0.929 . S
C557 C549 1.433 . S
C557 N559 1.384 . S
N558 C554 1.427 . S
N558 C555 1.384 . S
N559 C551 1.427 . S
N559 C557 1.384 . S
H560 C566 0.930 . S
H561 C570 0.930 . S
H562 C575 0.929 . S
H563 C573 0.929 . S
H564 C568 0.929 . S
H565 C574 0.929 . S
C566 H560 0.930 . S
C566 C567 1.367 . S
C566 C574 1.378 . S
C567 C566 1.367 . S
C567 C575 1.433 . S
C568 H564 0.929 . S
C568 C570 1.378 . S
C568 C572 1.350 1_565 S
C569 C572 1.463 . S
C569 C574 1.350 . S
C569 N577 1.427 . S
C570 H561 0.930 . S
C570 C568 1.378 . S
C570 C571 1.367 . S
C571 C570 1.367 . S
C571 C573 1.433 1_565 S
C572 C568 1.350 1_545 S
C572 C569 1.463 . S
C572 N576 1.427 . S
C573 H563 0.929 . S
C573 C571 1.433 1_545 S
C573 N576 1.384 . S
C574 H565 0.929 . S
C574 C566 1.378 . S
C574 C569 1.350 . S
C575 H562 0.929 . S
C575 C567 1.433 . S
C575 N577 1.384 . S
N576 C572 1.427 . S
N576 C573 1.384 . S
N577 C569 1.427 . S
N577 C575 1.384 . S
H578 C584 0.930 . S
H579 C588 0.930 . S
H580 C593 0.929 . S
H581 C591 0.929 . S
H582 C586 0.929 . S
H583 C592 0.929 . S
C584 H578 0.930 . S
C584 C585 1.367 . S
C584 C592 1.378 . S
C585 C584 1.367 . S
C585 C593 1.433 . S
C586 H582 0.929 . S
C586 C588 1.378 . S
C586 C590 1.350 . S
C587 C590 1.463 . S
C587 C592 1.350 . S
C587 N595 1.427 . S
C588 H579 0.930 . S
C588 C586 1.378 . S
C588 C589 1.367 . S
C589 C588 1.367 . S
C589 C591 1.433 . S
C590 C586 1.350 . S
C590 C587 1.463 . S
C590 N594 1.427 . S
C591 H581 0.929 . S
C591 C589 1.433 . S
C591 N594 1.384 . S
C592 H583 0.929 . S
C592 C584 1.378 . S
C592 C587 1.350 . S
C593 H580 0.929 . S
C593 C585 1.433 . S
C593 N595 1.384 . S
N594 C590 1.427 . S
N594 C591 1.384 . S
N595 C587 1.427 . S
N595 C593 1.384 . S
H596 C602 0.930 . S
H597 C606 0.930 . S
H598 C611 0.929 . S
H599 C609 0.929 . S
H600 C604 0.929 . S
H601 C610 0.929 . S
C602 H596 0.930 . S
C602 C603 1.367 . S
C602 C610 1.378 . S
C603 C602 1.367 . S
C603 C611 1.433 . S
C604 H600 0.929 . S
C604 C606 1.378 . S
C604 C608 1.350 . S
C605 C608 1.463 . S
C605 C610 1.350 . S
C605 N613 1.427 . S
C606 H597 0.930 . S
C606 C604 1.378 . S
C606 C607 1.367 . S
C607 C606 1.367 . S
C607 C609 1.433 . S
C608 C604 1.350 . S
C608 C605 1.463 . S
C608 N612 1.427 . S
C609 H599 0.929 . S
C609 C607 1.433 . S
C609 N612 1.384 . S
C610 H601 0.929 . S
C610 C602 1.378 . S
C610 C605 1.350 . S
C611 H598 0.929 . S
C611 C603 1.433 . S
C611 N613 1.384 . S
N612 C608 1.427 . S
N612 C609 1.384 . S
N613 C605 1.427 . S
N613 C611 1.384 . S
H614 C620 0.930 . S
H615 C624 0.930 . S
H616 C629 0.929 . S
H617 C627 0.929 . S
H618 C622 0.929 . S
H619 C628 0.929 . S
C620 H614 0.930 . S
C620 C621 1.367 . S
C620 C628 1.378 . S
C621 C620 1.367 . S
C621 C629 1.433 . S
C622 H618 0.929 . S
C622 C624 1.378 . S
C622 C626 1.350 1_565 S
C623 C626 1.463 . S
C623 C628 1.350 . S
C623 N631 1.427 . S
C624 H615 0.930 . S
C624 C622 1.378 . S
C624 C625 1.367 . S
C625 C624 1.367 . S
C625 C627 1.433 1_565 S
C626 C622 1.350 1_545 S
C626 C623 1.463 . S
C626 N630 1.427 . S
C627 H617 0.929 . S
C627 C625 1.433 1_545 S
C627 N630 1.384 . S
C628 H619 0.929 . S
C628 C620 1.378 . S
C628 C623 1.350 . S
C629 H616 0.929 . S
C629 C621 1.433 . S
C629 N631 1.384 . S
N630 C626 1.427 . S
N630 C627 1.384 . S
N631 C623 1.427 . S
N631 C629 1.384 . S
H632 C638 0.930 . S
H633 C642 0.930 . S
H634 C647 0.929 . S
H635 C645 0.929 . S
H636 C640 0.929 . S
H637 C646 0.929 1_554 S
C638 H632 0.930 . S
C638 C639 1.367 . S
C638 C646 1.378 . S
C639 C638 1.367 . S
C639 C647 1.433 . S
C640 H636 0.929 . S
C640 C642 1.378 . S
C640 C644 1.350 . S
C641 C644 1.463 . S
C641 C646 1.350 1_554 S
C641 N649 1.427 . S
C642 H633 0.930 . S
C642 C640 1.378 . S
C642 C643 1.367 . S
C643 C642 1.367 . S
C643 C645 1.433 . S
C644 C640 1.350 . S
C644 C641 1.463 . S
C644 N648 1.427 . S
C645 H635 0.929 . S
C645 C643 1.433 . S
C645 N648 1.384 . S
C646 H637 0.929 1_556 S
C646 C638 1.378 . S
C646 C641 1.350 1_556 S
C647 H634 0.929 . S
C647 C639 1.433 . S
C647 N649 1.384 1_556 S
N648 C644 1.427 . S
N648 C645 1.384 . S
N649 C641 1.427 . S
N649 C647 1.384 1_554 S
H650 C656 0.930 . S
H651 C660 0.930 . S
H652 C665 0.929 . S
H653 C663 0.929 . S
H654 C658 0.929 . S
H655 C664 0.929 . S
C656 H650 0.930 . S
C656 C657 1.367 . S
C656 C664 1.378 . S
C657 C656 1.367 . S
C657 C665 1.433 . S
C658 H654 0.929 . S
C658 C660 1.378 . S
C658 C662 1.350 . S
C659 C662 1.463 . S
C659 C664 1.350 . S
C659 N667 1.427 . S
C660 H651 0.930 . S
C660 C658 1.378 . S
C660 C661 1.367 . S
C661 C660 1.367 . S
C661 C663 1.433 . S
C662 C658 1.350 . S
C662 C659 1.463 . S
C662 N666 1.427 . S
C663 H653 0.929 . S
C663 C661 1.433 . S
C663 N666 1.384 . S
C664 H655 0.929 . S
C664 C656 1.378 . S
C664 C659 1.350 . S
C665 H652 0.929 . S
C665 C657 1.433 . S
C665 N667 1.384 . S
N666 C662 1.427 . S
N666 C663 1.384 . S
N667 C659 1.427 . S
N667 C665 1.384 . S
H668 C674 0.930 . S
H669 C678 0.930 . S
H670 C683 0.929 . S
H671 C681 0.929 . S
H672 C676 0.929 . S
H673 C682 0.928 . S
C674 H668 0.930 . S
C674 C675 1.367 . S
C674 C682 1.378 . S
C675 C674 1.367 . S
C675 C683 1.433 . S
C676 H672 0.929 . S
C676 C678 1.378 . S
C676 C680 1.350 . S
C677 C680 1.463 . S
C677 C682 1.350 1_556 S
C677 N685 1.427 . S
C678 H669 0.930 . S
C678 C676 1.378 . S
C678 C679 1.367 . S
C679 C678 1.367 . S
C679 C681 1.433 . S
C680 C676 1.350 . S
C680 C677 1.463 . S
C680 N684 1.427 . S
C681 H671 0.929 . S
C681 C679 1.433 . S
C681 N684 1.384 . S
C682 H673 0.928 . S
C682 C674 1.378 . S
C682 C677 1.350 1_554 S
C683 H670 0.929 . S
C683 C675 1.433 . S
C683 N685 1.384 1_554 S
N684 C680 1.427 . S
N684 C681 1.384 . S
N685 C677 1.427 . S
N685 C683 1.384 1_556 S
H686 C692 0.930 . S
H687 C696 0.930 . S
H688 C701 0.929 . S
H689 C699 0.929 . S
H690 C694 0.929 . S
H691 C700 0.929 . S
C692 H686 0.930 . S
C692 C693 1.367 . S
C692 C700 1.378 . S
C693 C692 1.367 . S
C693 C701 1.433 . S
C694 H690 0.929 . S
C694 C696 1.378 . S
C694 C698 1.350 . S
C695 C698 1.463 . S
C695 C700 1.350 . S
C695 N703 1.427 . S
C696 H687 0.930 . S
C696 C694 1.378 . S
C696 C697 1.367 . S
C697 C696 1.367 . S
C697 C699 1.433 . S
C698 C694 1.350 . S
C698 C695 1.463 . S
C698 N702 1.427 . S
C699 H689 0.929 . S
C699 C697 1.433 . S
C699 N702 1.384 . S
C700 H691 0.929 . S
C700 C692 1.378 . S
C700 C695 1.350 . S
C701 H688 0.929 . S
C701 C693 1.433 . S
C701 N703 1.384 . S
N702 C698 1.427 . S
N702 C699 1.384 . S
N703 C695 1.427 . S
N703 C701 1.384 . S
H704 C710 0.930 . S
H705 C714 0.930 . S
H706 C719 0.929 . S
H707 C717 0.929 . S
H708 C712 0.929 . S
H709 C718 0.915 1_556 S
C710 H704 0.930 . S
C710 C711 1.367 . S
C710 C718 1.409 . S
C711 C710 1.367 . S
C711 C719 1.433 . S
C712 H708 0.929 . S
C712 C714 1.378 . S
C712 C716 1.350 . S
C713 C716 1.463 . S
C713 C718 1.333 1_556 S
C713 N721 1.427 . S
C714 H705 0.930 . S
C714 C712 1.378 . S
C714 C715 1.367 . S
C715 C714 1.367 . S
C715 C717 1.433 . S
C716 C712 1.350 . S
C716 C713 1.463 . S
C716 N720 1.427 . S
C717 H707 0.929 . S
C717 C715 1.433 . S
C717 N720 1.384 . S
C718 H709 0.915 1_554 S
C718 C710 1.409 . S
C718 C713 1.333 1_554 S
C719 H706 0.929 . S
C719 C711 1.433 . S
C719 N721 1.384 1_554 S
N720 C716 1.427 . S
N720 C717 1.384 . S
N721 C713 1.427 . S
N721 C719 1.384 1_556 S
H722 C728 0.930 . S
H723 C732 0.930 . S
H724 C737 0.929 . S
H725 C735 0.929 . S
H726 C730 0.929 . S
H727 C736 0.929 . S
C728 H722 0.930 . S
C728 C729 1.367 . S
C728 C736 1.378 . S
C729 C728 1.367 . S
C729 C737 1.433 . S
C730 H726 0.929 . S
C730 C732 1.378 . S
C730 C734 1.350 . S
C731 C734 1.463 . S
C731 C736 1.350 . S
C731 N739 1.427 . S
C732 H723 0.930 . S
C732 C730 1.378 . S
C732 C733 1.367 . S
C733 C732 1.367 . S
C733 C735 1.433 . S
C734 C730 1.350 . S
C734 C731 1.463 . S
C734 N738 1.427 . S
C735 H725 0.929 . S
C735 C733 1.433 . S
C735 N738 1.384 . S
C736 H727 0.929 . S
C736 C728 1.378 . S
C736 C731 1.350 . S
C737 H724 0.929 . S
C737 C729 1.433 . S
C737 N739 1.384 . S
N738 C734 1.427 . S
N738 C735 1.384 . S
N739 C731 1.427 . S
N739 C737 1.384 . S
H740 C746 0.930 . S
H741 C750 0.930 . S
H742 C755 0.929 . S
H743 C753 0.929 . S
H744 C748 0.929 . S
H745 C754 0.929 . S
C746 H740 0.930 . S
C746 C747 1.367 . S
C746 C754 1.378 1_556 S
C747 C746 1.367 . S
C747 C755 1.433 . S
C748 H744 0.929 . S
C748 C750 1.378 . S
C748 C752 1.350 . S
C749 C752 1.463 . S
C749 C754 1.350 . S
C749 N757 1.427 1_554 S
C750 H741 0.930 . S
C750 C748 1.378 . S
C750 C751 1.367 . S
C751 C750 1.367 . S
C751 C753 1.433 . S
C752 C748 1.350 . S
C752 C749 1.463 . S
C752 N756 1.427 . S
C753 H743 0.929 . S
C753 C751 1.433 . S
C753 N756 1.384 . S
C754 H745 0.929 . S
C754 C746 1.378 1_554 S
C754 C749 1.350 . S
C755 H742 0.929 . S
C755 C747 1.433 . S
C755 N757 1.384 . S
N756 C752 1.427 . S
N756 C753 1.384 . S
N757 C749 1.427 1_556 S
N757 C755 1.384 . S
H758 C764 0.930 . S
H759 C768 0.930 . S
H760 C773 0.929 . S
H761 C771 0.929 . S
H762 C766 0.929 . S
H763 C772 0.929 . S
C764 H758 0.930 . S
C764 C765 1.367 . S
C764 C772 1.378 . S
C765 C764 1.367 . S
C765 C773 1.433 . S
C766 H762 0.929 . S
C766 C768 1.378 . S
C766 C770 1.350 . S
C767 C770 1.463 . S
C767 C772 1.350 . S
C767 N775 1.427 . S
C768 H759 0.930 . S
C768 C766 1.378 . S
C768 C769 1.367 . S
C769 C768 1.367 . S
C769 C771 1.433 . S
C770 C766 1.350 . S
C770 C767 1.463 . S
C770 N774 1.427 . S
C771 H761 0.929 . S
C771 C769 1.433 . S
C771 N774 1.384 . S
C772 H763 0.929 . S
C772 C764 1.378 . S
C772 C767 1.350 . S
C773 H760 0.929 . S
C773 C765 1.433 . S
C773 N775 1.384 . S
N774 C770 1.427 . S
N774 C771 1.384 . S
N775 C767 1.427 . S
N775 C773 1.384 . S
H776 C782 0.930 . S
H777 C786 0.930 . S
H778 C791 0.929 . S
H779 C789 0.929 . S
H780 C784 0.929 . S
H781 C790 0.929 . S
C782 H776 0.930 . S
C782 C783 1.367 . S
C782 C790 1.378 . S
C783 C782 1.367 . S
C783 C791 1.433 . S
C784 H780 0.929 . S
C784 C786 1.378 . S
C784 C788 1.350 . S
C785 C788 1.463 . S
C785 C790 1.350 . S
C785 N793 1.427 . S
C786 H777 0.930 . S
C786 C784 1.378 . S
C786 C787 1.367 . S
C787 C786 1.367 . S
C787 C789 1.433 . S
C788 C784 1.350 . S
C788 C785 1.463 . S
C788 N792 1.427 . S
C789 H779 0.929 . S
C789 C787 1.433 . S
C789 N792 1.384 . S
C790 H781 0.929 . S
C790 C782 1.378 . S
C790 C785 1.350 . S
C791 H778 0.929 . S
C791 C783 1.433 . S
C791 N793 1.384 . S
N792 C788 1.427 . S
N792 C789 1.384 . S
N793 C785 1.427 . S
N793 C791 1.384 . S
H794 C800 0.930 . S
H795 C804 0.930 . S
H796 C809 0.929 . S
H797 C807 0.929 . S
H798 C802 0.929 . S
H799 C808 0.929 . S
C800 H794 0.930 . S
C800 C801 1.367 . S
C800 C808 1.378 . S
C801 C800 1.367 . S
C801 C809 1.433 . S
C802 H798 0.929 . S
C802 C804 1.378 . S
C802 C806 1.350 . S
C803 C806 1.463 . S
C803 C808 1.350 . S
C803 N811 1.427 . S
C804 H795 0.930 . S
C804 C802 1.378 . S
C804 C805 1.367 . S
C805 C804 1.367 . S
C805 C807 1.433 . S
C806 C802 1.350 . S
C806 C803 1.463 . S
C806 N810 1.427 . S
C807 H797 0.929 . S
C807 C805 1.433 . S
C807 N810 1.384 . S
C808 H799 0.929 . S
C808 C800 1.378 . S
C808 C803 1.350 . S
C809 H796 0.929 . S
C809 C801 1.433 . S
C809 N811 1.384 . S
N810 C806 1.427 . S
N810 C807 1.384 . S
N811 C803 1.427 . S
N811 C809 1.384 . S
H812 C818 0.930 . S
H813 C822 0.930 . S
H814 C827 0.929 . S
H815 C825 0.929 . S
H816 C820 0.929 . S
H817 C826 0.929 . S
C818 H812 0.930 . S
C818 C819 1.367 . S
C818 C826 1.378 . S
C819 C818 1.367 . S
C819 C827 1.433 . S
C820 H816 0.929 . S
C820 C822 1.378 . S
C820 C824 1.350 . S
C821 C824 1.463 . S
C821 C826 1.350 . S
C821 N829 1.427 . S
C822 H813 0.930 . S
C822 C820 1.378 . S
C822 C823 1.367 . S
C823 C822 1.367 . S
C823 C825 1.433 . S
C824 C820 1.350 . S
C824 C821 1.463 . S
C824 N828 1.427 . S
C825 H815 0.929 . S
C825 C823 1.433 . S
C825 N828 1.384 . S
C826 H817 0.929 . S
C826 C818 1.378 . S
C826 C821 1.350 . S
C827 H814 0.929 . S
C827 C819 1.433 . S
C827 N829 1.384 . S
N828 C824 1.427 . S
N828 C825 1.384 . S
N829 C821 1.427 . S
N829 C827 1.384 . S
H830 C836 0.930 . S
H831 C840 0.930 . S
H832 C845 0.929 . S
H833 C843 0.929 . S
H834 C838 0.929 . S
H835 C844 0.929 . S
C836 H830 0.930 . S
C836 C837 1.367 . S
C836 C844 1.378 . S
C837 C836 1.367 . S
C837 C845 1.433 . S
C838 H834 0.929 . S
C838 C840 1.378 . S
C838 C842 1.350 . S
C839 C842 1.463 . S
C839 C844 1.350 . S
C839 N847 1.427 . S
C840 H831 0.930 . S
C840 C838 1.378 . S
C840 C841 1.367 . S
C841 C840 1.367 . S
C841 C843 1.433 . S
C842 C838 1.350 . S
C842 C839 1.463 . S
C842 N846 1.427 . S
C843 H833 0.929 . S
C843 C841 1.433 . S
C843 N846 1.384 . S
C844 H835 0.929 . S
C844 C836 1.378 . S
C844 C839 1.350 . S
C845 H832 0.929 . S
C845 C837 1.433 . S
C845 N847 1.384 . S
N846 C842 1.427 . S
N846 C843 1.384 . S
N847 C839 1.427 . S
N847 C845 1.384 . S
H848 C854 0.930 . S
H849 C858 0.930 . S
H850 C863 0.929 . S
H851 C861 0.929 . S
H852 C856 0.929 . S
H853 C862 0.929 . S
C854 H848 0.930 . S
C854 C855 1.367 . S
C854 C862 1.378 . S
C855 C854 1.367 . S
C855 C863 1.433 . S
C856 H852 0.929 . S
C856 C858 1.378 . S
C856 C860 1.350 . S
C857 C860 1.463 . S
C857 C862 1.350 . S
C857 N865 1.427 . S
C858 H849 0.930 . S
C858 C856 1.378 . S
C858 C859 1.367 . S
C859 C858 1.367 . S
C859 C861 1.433 . S
C860 C856 1.350 . S
C860 C857 1.463 . S
C860 N864 1.427 . S
C861 H851 0.929 . S
C861 C859 1.433 . S
C861 N864 1.384 . S
C862 H853 0.929 . S
C862 C854 1.378 . S
C862 C857 1.350 . S
C863 H850 0.929 . S
C863 C855 1.433 . S
C863 N865 1.384 . S
N864 C860 1.427 . S
N864 C861 1.384 . S
N865 C857 1.427 . S
N865 C863 1.384 . S
H866 C872 0.930 . S
H867 C876 0.930 . S
H868 C881 0.929 . S
H869 C879 0.929 . S
H870 C874 0.929 . S
H871 C880 0.929 . S
C872 H866 0.930 . S
C872 C873 1.367 . S
C872 C880 1.378 . S
C873 C872 1.367 . S
C873 C881 1.433 . S
C874 H870 0.929 . S
C874 C876 1.378 . S
C874 C878 1.350 . S
C875 C878 1.463 . S
C875 C880 1.350 . S
C875 N883 1.427 . S
C876 H867 0.930 . S
C876 C874 1.378 . S
C876 C877 1.367 . S
C877 C876 1.367 . S
C877 C879 1.433 . S
C878 C874 1.350 . S
C878 C875 1.463 . S
C878 N882 1.427 . S
C879 H869 0.929 . S
C879 C877 1.433 . S
C879 N882 1.384 . S
C880 H871 0.929 . S
C880 C872 1.378 . S
C880 C875 1.350 . S
C881 H868 0.929 . S
C881 C873 1.433 . S
C881 N883 1.384 . S
N882 C878 1.427 . S
N882 C879 1.384 . S
N883 C875 1.427 . S
N883 C881 1.384 . S
H884 C890 0.930 . S
H885 C894 0.930 . S
H886 C899 0.929 . S
H887 C897 0.929 . S
H888 C892 0.929 . S
H889 C898 0.929 . S
C890 H884 0.930 . S
C890 C891 1.367 . S
C890 C898 1.378 . S
C891 C890 1.367 . S
C891 C899 1.433 . S
C892 H888 0.929 . S
C892 C894 1.378 . S
C892 C896 1.350 . S
C893 C896 1.463 . S
C893 C898 1.350 . S
C893 N901 1.427 . S
C894 H885 0.930 . S
C894 C892 1.378 . S
C894 C895 1.367 . S
C895 C894 1.367 . S
C895 C897 1.433 . S
C896 C892 1.350 . S
C896 C893 1.463 . S
C896 N900 1.427 . S
C897 H887 0.929 . S
C897 C895 1.433 . S
C897 N900 1.384 . S
C898 H889 0.929 . S
C898 C890 1.378 . S
C898 C893 1.350 . S
C899 H886 0.929 . S
C899 C891 1.433 . S
C899 N901 1.384 . S
N900 C896 1.427 . S
N900 C897 1.384 . S
N901 C893 1.427 . S
N901 C899 1.384 . S
H902 C908 0.930 . S
H903 C912 0.930 . S
H904 C917 0.929 . S
H905 C915 0.929 . S
H906 C910 0.929 . S
H907 C916 0.929 . S
C908 H902 0.930 . S
C908 C909 1.367 . S
C908 C916 1.378 . S
C909 C908 1.367 . S
C909 C917 1.433 . S
C910 H906 0.929 . S
C910 C912 1.378 . S
C910 C914 1.350 . S
C911 C914 1.463 . S
C911 C916 1.350 . S
C911 N919 1.427 . S
C912 H903 0.930 . S
C912 C910 1.378 . S
C912 C913 1.367 . S
C913 C912 1.367 . S
C913 C915 1.433 . S
C914 C910 1.350 . S
C914 C911 1.463 . S
C914 N918 1.427 . S
C915 H905 0.929 . S
C915 C913 1.433 . S
C915 N918 1.384 . S
C916 H907 0.929 . S
C916 C908 1.378 . S
C916 C911 1.350 . S
C917 H904 0.929 . S
C917 C909 1.433 . S
C917 N919 1.384 . S
N918 C914 1.427 . S
N918 C915 1.384 . S
N919 C911 1.427 . S
N919 C917 1.384 . S
C495 C116 1.812 . S
C499 C208 1.806 . S
C517 C292 1.807 . S
C513 C135 1.815 . S
C535 C291 1.818 . S
C531 C78 1.812 . S
C549 C97 1.812 . S
C553 C207 1.812 . S
C571 C388 1.811 . S
C567 C40 1.817 . S
C589 C472 1.809 . S
C585 C59 1.815 . S
C603 C2 1.815 . S
C607 C471 1.814 . S
C621 C21 1.812 . S
C625 C387 1.812 . S
C643 C210 1.557 . S
C639 C25 1.740 . S
C661 C294 1.560 . S
C657 C6 1.741 . S
C679 C306 1.471 . S
C675 C63 1.741 . S
C697 C222 1.483 . S
C693 C44 1.743 . S
C715 C390 1.575 . S
C711 C101 1.738 . S
C729 C82 1.738 . S
C733 C474 1.575 . S
C751 C462 1.482 . S
C747 C139 1.740 . S
C765 C120 1.742 . S
C769 C378 1.484 . S
C787 C219 1.522 . S
C783 C11 1.444 . S
C805 C303 1.523 . S
C801 C30 1.459 . S
C819 C49 1.450 . S
C823 C304 1.493 . S
C841 C220 1.483 . S
C837 C68 1.438 . S
C859 C375 1.522 . S
C855 C87 1.412 . S
C873 C106 1.407 . S
C877 C459 1.523 . S
C891 C125 1.408 . S
C895 C460 1.493 . S
C909 C144 1.394 . S
C913 C376 1.482 . S
