# Generated by pormake.
# Topology eea, (3,6)-cn, num edge types: 1
# Building blocks:
#     Node 0, Type 0, BuildingBlock: ESEHIV_clean_linker_0, # of connection points: 3
#     Node 1, Type 0, BuildingBlock: ESEHIV_clean_linker_0, # of connection points: 3
#     Node 2, Type 0, BuildingBlock: ESEHIV_clean_linker_0, # of connection points: 3
#     Node 3, Type 0, BuildingBlock: ESEHIV_clean_linker_0, # of connection points: 3
#     Node 4, Type 0, BuildingBlock: ESEHIV_clean_linker_0, # of connection points: 3
#     Node 5, Type 0, BuildingBlock: ESEHIV_clean_linker_0, # of connection points: 3
#     Node 6, Type 0, BuildingBlock: ESEHIV_clean_linker_0, # of connection points: 3
#     Node 7, Type 0, BuildingBlock: ESEHIV_clean_linker_0, # of connection points: 3
#     Node 8, Type 0, BuildingBlock: ESEHIV_clean_linker_0, # of connection points: 3
#     Node 9, Type 0, BuildingBlock: ESEHIV_clean_linker_0, # of connection points: 3
#     Node 10, Type 0, BuildingBlock: ESEHIV_clean_linker_0, # of connection points: 3
#     Node 11, Type 0, BuildingBlock: ESEHIV_clean_linker_0, # of connection points: 3
#     Node 12, Type 0, BuildingBlock: ESEHIV_clean_linker_0, # of connection points: 3
#     Node 13, Type 0, BuildingBlock: ESEHIV_clean_linker_0, # of connection points: 3
#     Node 14, Type 0, BuildingBlock: ESEHIV_clean_linker_0, # of connection points: 3
#     Node 15, Type 0, BuildingBlock: ESEHIV_clean_linker_0, # of connection points: 3
#     Node 16, Type 0, BuildingBlock: ESEHIV_clean_linker_0, # of connection points: 3
#     Node 17, Type 0, BuildingBlock: ESEHIV_clean_linker_0, # of connection points: 3
#     Node 18, Type 1, BuildingBlock: KUMBOL_clean_sbu_0, # of connection points: 6
#     Node 19, Type 1, BuildingBlock: KUMBOL_clean_sbu_0, # of connection points: 6
#     Node 20, Type 1, BuildingBlock: KUMBOL_clean_sbu_0, # of connection points: 6
#     Node 21, Type 1, BuildingBlock: KUMBOL_clean_sbu_0, # of connection points: 6
#     Node 22, Type 1, BuildingBlock: KUMBOL_clean_sbu_0, # of connection points: 6
#     Node 23, Type 1, BuildingBlock: KUMBOL_clean_sbu_0, # of connection points: 6
#     Node 24, Type 1, BuildingBlock: KUMBOL_clean_sbu_0, # of connection points: 6
#     Node 25, Type 1, BuildingBlock: KUMBOL_clean_sbu_0, # of connection points: 6
#     Node 26, Type 1, BuildingBlock: KUMBOL_clean_sbu_0, # of connection points: 6
#     Edge 27, Type (0, 1), BuildingBlock: KIFKEQ_clean_linker_1, # of connection points: 2
#     Edge 28, Type (0, 1), BuildingBlock: KIFKEQ_clean_linker_1, # of connection points: 2
#     Edge 29, Type (0, 1), BuildingBlock: KIFKEQ_clean_linker_1, # of connection points: 2
#     Edge 30, Type (0, 1), BuildingBlock: KIFKEQ_clean_linker_1, # of connection points: 2
#     Edge 31, Type (0, 1), BuildingBlock: KIFKEQ_clean_linker_1, # of connection points: 2
#     Edge 32, Type (0, 1), BuildingBlock: KIFKEQ_clean_linker_1, # of connection points: 2
#     Edge 33, Type (0, 1), BuildingBlock: KIFKEQ_clean_linker_1, # of connection points: 2
#     Edge 34, Type (0, 1), BuildingBlock: KIFKEQ_clean_linker_1, # of connection points: 2
#     Edge 35, Type (0, 1), BuildingBlock: KIFKEQ_clean_linker_1, # of connection points: 2
#     Edge 36, Type (0, 1), BuildingBlock: KIFKEQ_clean_linker_1, # of connection points: 2
#     Edge 37, Type (0, 1), BuildingBlock: KIFKEQ_clean_linker_1, # of connection points: 2
#     Edge 38, Type (0, 1), BuildingBlock: KIFKEQ_clean_linker_1, # of connection points: 2
#     Edge 39, Type (0, 1), BuildingBlock: KIFKEQ_clean_linker_1, # of connection points: 2
#     Edge 40, Type (0, 1), BuildingBlock: KIFKEQ_clean_linker_1, # of connection points: 2
#     Edge 41, Type (0, 1), BuildingBlock: KIFKEQ_clean_linker_1, # of connection points: 2
#     Edge 42, Type (0, 1), BuildingBlock: KIFKEQ_clean_linker_1, # of connection points: 2
#     Edge 43, Type (0, 1), BuildingBlock: KIFKEQ_clean_linker_1, # of connection points: 2
#     Edge 44, Type (0, 1), BuildingBlock: KIFKEQ_clean_linker_1, # of connection points: 2
#     Edge 45, Type (0, 1), BuildingBlock: KIFKEQ_clean_linker_1, # of connection points: 2
#     Edge 46, Type (0, 1), BuildingBlock: KIFKEQ_clean_linker_1, # of connection points: 2
#     Edge 47, Type (0, 1), BuildingBlock: KIFKEQ_clean_linker_1, # of connection points: 2
#     Edge 48, Type (0, 1), BuildingBlock: KIFKEQ_clean_linker_1, # of connection points: 2
#     Edge 49, Type (0, 1), BuildingBlock: KIFKEQ_clean_linker_1, # of connection points: 2
#     Edge 50, Type (0, 1), BuildingBlock: KIFKEQ_clean_linker_1, # of connection points: 2
#     Edge 51, Type (0, 1), BuildingBlock: KIFKEQ_clean_linker_1, # of connection points: 2
#     Edge 52, Type (0, 1), BuildingBlock: KIFKEQ_clean_linker_1, # of connection points: 2
#     Edge 53, Type (0, 1), BuildingBlock: KIFKEQ_clean_linker_1, # of connection points: 2
#     Edge 54, Type (0, 1), BuildingBlock: KIFKEQ_clean_linker_1, # of connection points: 2
#     Edge 55, Type (0, 1), BuildingBlock: KIFKEQ_clean_linker_1, # of connection points: 2
#     Edge 56, Type (0, 1), BuildingBlock: KIFKEQ_clean_linker_1, # of connection points: 2
#     Edge 57, Type (0, 1), BuildingBlock: KIFKEQ_clean_linker_1, # of connection points: 2
#     Edge 58, Type (0, 1), BuildingBlock: KIFKEQ_clean_linker_1, # of connection points: 2
#     Edge 59, Type (0, 1), BuildingBlock: KIFKEQ_clean_linker_1, # of connection points: 2
#     Edge 60, Type (0, 1), BuildingBlock: KIFKEQ_clean_linker_1, # of connection points: 2
#     Edge 61, Type (0, 1), BuildingBlock: KIFKEQ_clean_linker_1, # of connection points: 2
#     Edge 62, Type (0, 1), BuildingBlock: KIFKEQ_clean_linker_1, # of connection points: 2
#     Edge 63, Type (0, 1), BuildingBlock: KIFKEQ_clean_linker_1, # of connection points: 2
#     Edge 64, Type (0, 1), BuildingBlock: KIFKEQ_clean_linker_1, # of connection points: 2
#     Edge 65, Type (0, 1), BuildingBlock: KIFKEQ_clean_linker_1, # of connection points: 2
#     Edge 66, Type (0, 1), BuildingBlock: KIFKEQ_clean_linker_1, # of connection points: 2
#     Edge 67, Type (0, 1), BuildingBlock: KIFKEQ_clean_linker_1, # of connection points: 2
#     Edge 68, Type (0, 1), BuildingBlock: KIFKEQ_clean_linker_1, # of connection points: 2
#     Edge 69, Type (0, 1), BuildingBlock: KIFKEQ_clean_linker_1, # of connection points: 2
#     Edge 70, Type (0, 1), BuildingBlock: KIFKEQ_clean_linker_1, # of connection points: 2
#     Edge 71, Type (0, 1), BuildingBlock: KIFKEQ_clean_linker_1, # of connection points: 2
#     Edge 72, Type (0, 1), BuildingBlock: KIFKEQ_clean_linker_1, # of connection points: 2
#     Edge 73, Type (0, 1), BuildingBlock: KIFKEQ_clean_linker_1, # of connection points: 2
#     Edge 74, Type (0, 1), BuildingBlock: KIFKEQ_clean_linker_1, # of connection points: 2
#     Edge 75, Type (0, 1), BuildingBlock: KIFKEQ_clean_linker_1, # of connection points: 2
#     Edge 76, Type (0, 1), BuildingBlock: KIFKEQ_clean_linker_1, # of connection points: 2
#     Edge 77, Type (0, 1), BuildingBlock: KIFKEQ_clean_linker_1, # of connection points: 2
#     Edge 78, Type (0, 1), BuildingBlock: KIFKEQ_clean_linker_1, # of connection points: 2
#     Edge 79, Type (0, 1), BuildingBlock: KIFKEQ_clean_linker_1, # of connection points: 2
#     Edge 80, Type (0, 1), BuildingBlock: KIFKEQ_clean_linker_1, # of connection points: 2
# Relax obj value: 0.008
# Max RMSD: 0.089
# Mean RMSD: 0.072
data_MOF--net-eea--node1-KUMBOL_clean_sbu_0--node2-ESEHIV_clean_linker_0--edge1-KIFKEQ_clean_linker_1
_symmetry_space_group_name_H-M    P1
_symmetry_Int_Tables_number       1
_symmetry_cell_setting            triclinic
loop_
_symmetry_equiv_pos_as_xyz
'x, y, z'
_cell_length_a     48.269225
_cell_length_b     49.699929
_cell_length_c     71.532745
_cell_angle_alpha  89.66865
_cell_angle_beta   89.769231
_cell_angle_gamma 120.01772
loop_
_atom_site_label
_atom_site_type_symbol
_atom_site_fract_x
_atom_site_fract_y
_atom_site_fract_z
_atom_type_partial_charge
H0 H 0.26115 0.16958 0.45345 0.0
H1 H 0.26555 0.08515 0.45084 0.0
H2 H 0.2185 0.10695 0.40753 0.0
C3 C 0.25595 0.14833 0.44642 0.0
C4 C 0.23916 0.14085 0.42947 0.0
C5 C 0.2652 0.12815 0.45452 0.0
C6 C 0.25794 0.10063 0.44512 0.0
C7 C 0.24075 0.09268 0.42837 0.0
C8 C 0.23117 0.11272 0.4207 0.0
H9 H 0.84283 0.08799 0.44973 0.0
H10 H 0.92754 0.17797 0.44723 0.0
H11 H 0.90396 0.11502 0.40124 0.0
C12 C 0.86409 0.105 0.44234 0.0
C13 C 0.87091 0.09787 0.42451 0.0
C14 C 0.88423 0.13386 0.45071 0.0
C15 C 0.91185 0.15574 0.44091 0.0
C16 C 0.91929 0.1493 0.42299 0.0
C17 C 0.89859 0.12023 0.41499 0.0
H18 H 0.84044 0.76182 0.44756 0.0
H19 H 0.93159 0.76529 0.44761 0.0
H20 H 0.89908 0.79009 0.39802 0.0
C21 C 0.86256 0.76687 0.44065 0.0
C22 C 0.86747 0.77722 0.42194 0.0
C23 C 0.88519 0.76187 0.45015 0.0
C24 C 0.91348 0.76825 0.44054 0.0
C25 C 0.91853 0.77811 0.42169 0.0
C26 C 0.89519 0.78215 0.41245 0.0
H27 H 0.08278 0.23863 0.58956 0.0
H28 H 0.174 0.2433 0.5907 0.0
H29 H 0.1149 0.21584 0.64015 0.0
C30 C 0.10088 0.23638 0.59716 0.0
C31 C 0.09524 0.22657 0.61604 0.0
C32 C 0.1294 0.24291 0.58787 0.0
C33 C 0.15204 0.23846 0.59769 0.0
C34 C 0.14698 0.22828 0.61648 0.0
C35 C 0.11847 0.22247 0.62551 0.0
H36 H 0.74673 0.91563 0.58757 0.0
H37 H 0.75157 0.83147 0.5844 0.0
H38 H 0.79455 0.89386 0.6304 0.0
C39 C 0.75451 0.90019 0.59314 0.0
C40 C 0.77187 0.90808 0.60983 0.0
C41 C 0.74732 0.8728 0.58361 0.0
C42 C 0.75676 0.85265 0.59152 0.0
C43 C 0.77375 0.8601 0.6084 0.0
C44 C 0.78171 0.88812 0.61729 0.0
H45 H 0.08304 0.82678 0.58991 0.0
H46 H 0.16809 0.91597 0.58678 0.0
H47 H 0.1082 0.89001 0.636 0.0
C48 C 0.09904 0.84883 0.59639 0.0
C49 C 0.09225 0.85543 0.61441 0.0
C50 C 0.12611 0.87075 0.58635 0.0
C51 C 0.14666 0.89966 0.59438 0.0
C52 C 0.14055 0.90698 0.61235 0.0
C53 C 0.11314 0.88468 0.62217 0.0
H54 H 0.93761 0.50619 0.78338 0.0
H55 H 0.9417 0.42196 0.78222 0.0
H56 H 0.88952 0.43954 0.73989 0.0
C57 C 0.93084 0.48413 0.77688 0.0
C58 C 0.91292 0.47564 0.76031 0.0
C59 C 0.94095 0.46468 0.78491 0.0
C60 C 0.93343 0.43668 0.77613 0.0
C61 C 0.91501 0.42742 0.75978 0.0
C62 C 0.90468 0.44698 0.7521 0.0
H63 H 0.50767 0.41983 0.78283 0.0
H64 H 0.59792 0.50543 0.78393 0.0
H65 H 0.57088 0.4464 0.73558 0.0
C66 C 0.53029 0.43625 0.77633 0.0
C67 C 0.53752 0.42972 0.75853 0.0
C68 C 0.55189 0.46352 0.78573 0.0
C69 C 0.58076 0.48473 0.77666 0.0
C70 C 0.58793 0.47913 0.75842 0.0
C71 C 0.56619 0.45119 0.74964 0.0
H72 H 0.50593 0.09526 0.78051 0.0
H73 H 0.59525 0.09556 0.78178 0.0
H74 H 0.56528 0.1213 0.73138 0.0
C75 C 0.52798 0.09959 0.77382 0.0
C76 C 0.53373 0.11003 0.75513 0.0
C77 C 0.5496 0.09349 0.78356 0.0
C78 C 0.57771 0.09874 0.77422 0.0
C79 C 0.58374 0.10859 0.75534 0.0
C80 C 0.56135 0.11402 0.74592 0.0
H81 H 0.75003 0.57436 0.92458 0.0
H82 H 0.83932 0.5746 0.92527 0.0
H83 H 0.77857 0.54491 0.97409 0.0
C84 C 0.76693 0.56968 0.93176 0.0
C85 C 0.76069 0.55865 0.95038 0.0
C86 C 0.79563 0.57623 0.92272 0.0
C87 C 0.81738 0.57012 0.93222 0.0
C88 C 0.81136 0.55865 0.95068 0.0
C89 C 0.78328 0.55361 0.95982 0.0
H90 H 0.41959 0.25253 0.91866 0.0
H91 H 0.41544 0.16421 0.91977 0.0
H92 H 0.46447 0.2301 0.96336 0.0
C93 C 0.42607 0.23682 0.92529 0.0
C94 C 0.44302 0.24499 0.94221 0.0
C95 C 0.41621 0.20782 0.91715 0.0
C96 C 0.42305 0.18663 0.92606 0.0
C97 C 0.4407 0.19473 0.94267 0.0
C98 C 0.45081 0.22396 0.95055 0.0
H99 H 0.75047 0.16036 0.92198 0.0
H100 H 0.83994 0.24581 0.92211 0.0
H101 H 0.77527 0.22217 0.96886 0.0
C102 C 0.7669 0.18174 0.92896 0.0
C103 C 0.7594 0.1882 0.94686 0.0
C104 C 0.79599 0.20237 0.92011 0.0
C105 C 0.81733 0.23023 0.92893 0.0
C106 C 0.80984 0.23807 0.94634 0.0
C107 C 0.78091 0.2167 0.95526 0.0
H108 H 0.59981 0.83801 0.11903 0.0
H109 H 0.5963 0.75015 0.11935 0.0
H110 H 0.55784 0.77581 0.0728 0.0
C111 C 0.59268 0.81599 0.11236 0.0
C112 C 0.57727 0.80921 0.09495 0.0
C113 C 0.60007 0.79495 0.12096 0.0
C114 C 0.5915 0.76667 0.11223 0.0
C115 C 0.57627 0.75939 0.09477 0.0
C116 C 0.5694 0.78096 0.08627 0.0
H117 H 0.17174 0.75453 0.11457 0.0
H118 H 0.26138 0.84017 0.11626 0.0
H119 H 0.23689 0.78066 0.06811 0.0
C120 C 0.19431 0.77098 0.108 0.0
C121 C 0.20237 0.7642 0.0905 0.0
C122 C 0.21555 0.7983 0.11737 0.0
C123 C 0.24502 0.8192 0.1089 0.0
C124 C 0.25304 0.81349 0.09091 0.0
C125 C 0.23158 0.78553 0.08199 0.0
H126 H 0.17556 0.43257 0.11371 0.0
H127 H 0.26163 0.42638 0.11268 0.0
H128 H 0.23265 0.45579 0.06361 0.0
C129 C 0.19635 0.43483 0.10643 0.0
C130 C 0.20134 0.44456 0.08759 0.0
C131 C 0.21758 0.42764 0.11577 0.0
C132 C 0.24501 0.43195 0.106 0.0
C133 C 0.25077 0.44234 0.08727 0.0
C134 C 0.22843 0.44789 0.07805 0.0
H135 H 0.41731 0.90651 0.25734 0.0
H136 H 0.50661 0.90678 0.25852 0.0
H137 H 0.44711 0.88019 0.30759 0.0
C138 C 0.43482 0.90323 0.26487 0.0
C139 C 0.42873 0.89316 0.28371 0.0
C140 C 0.46295 0.90858 0.25552 0.0
C141 C 0.48454 0.90238 0.26521 0.0
C142 C 0.47873 0.89174 0.28385 0.0
C143 C 0.45108 0.88764 0.29308 0.0
H144 H 0.08375 0.58531 0.2512 0.0
H145 H 0.08676 0.50069 0.25082 0.0
H146 H 0.12337 0.56189 0.29807 0.0
C147 C 0.09054 0.56994 0.25799 0.0
C148 C 0.10504 0.57736 0.27563 0.0
C149 C 0.08358 0.54214 0.24924 0.0
C150 C 0.09147 0.52164 0.25805 0.0
C151 C 0.106 0.52845 0.27575 0.0
C152 C 0.11248 0.55637 0.28441 0.0
H153 H 0.4173 0.49385 0.25687 0.0
H154 H 0.5071 0.57999 0.2569 0.0
H155 H 0.44267 0.55559 0.30375 0.0
C156 C 0.43384 0.51552 0.26356 0.0
C157 C 0.42663 0.52214 0.28146 0.0
C158 C 0.46312 0.53609 0.25472 0.0
C159 C 0.48472 0.56377 0.26374 0.0
C160 C 0.47722 0.57119 0.28123 0.0
C161 C 0.44828 0.55018 0.29007 0.0
Gd162 Gd 0.52107 0.02405 0.0416 0.0
Gd163 Gd 0.49299 0.97843 0.99782 0.0
C164 C 0.39545 0.88985 0.99423 0.0
C165 C 0.41039 0.85031 0.98972 0.0
C166 C 0.45135 0.90471 0.99222 0.0
C167 C 0.42812 0.91278 0.99467 0.0
C168 C 0.44282 0.87348 0.98927 0.0
C169 C 0.38672 0.85849 0.99222 0.0
C170 C 0.37258 0.89925 0.99516 0.0
C171 C 0.38258 0.93088 0.99568 0.0
N172 N 0.43748 0.94332 0.9963 0.0
C173 C 0.4153 0.95274 0.99595 0.0
H174 H 0.42252 0.97704 0.99643 0.0
C175 C 0.50601 0.92141 0.98712 0.0
N176 N 0.48233 0.92771 0.9917 0.0
C177 C 0.4988 0.89079 0.98411 0.0
C178 C 0.46709 0.86665 0.98544 0.0
H179 H 0.5306 0.93995 0.98627 0.0
H180 H 0.36176 0.8405 0.99204 0.0
H181 H 0.59145 0.02529 0.04319 0.0
H182 H 0.34724 0.88237 0.99491 0.0
H183 H 0.36512 0.93847 0.99596 0.0
H184 H 0.40333 0.82614 0.98767 0.0
H185 H 0.48351 0.0628 0.05271 0.0
H186 H 0.66686 0.11991 0.04461 0.0
H187 H 0.64888 0.06378 0.04372 0.0
H188 H 0.61094 0.1764 0.05132 0.0
H189 H 0.5177 0.88583 0.98086 0.0
H190 H 0.46154 0.84295 0.98308 0.0
H191 H 0.65245 0.16188 0.04724 0.0
H192 H 0.49651 0.11701 0.05781 0.0
N193 N 0.57659 0.05907 0.04316 0.0
C194 C 0.64151 0.10307 0.04435 0.0
C195 C 0.63145 0.07142 0.04391 0.0
C196 C 0.61868 0.11253 0.04515 0.0
C197 C 0.586 0.08964 0.04469 0.0
C198 C 0.59872 0.04961 0.04361 0.0
N199 N 0.53179 0.07487 0.04749 0.0
C200 C 0.5628 0.09781 0.047 0.0
C201 C 0.51539 0.11196 0.05471 0.0
C202 C 0.54714 0.13603 0.05343 0.0
C203 C 0.50812 0.08129 0.05188 0.0
C204 C 0.57139 0.12908 0.0498 0.0
H205 H 0.55273 0.15977 0.05567 0.0
O206 O 0.49851 0.01888 0.06887 0.0
O207 O 0.48202 0.9832 0.02737 0.0
O208 O 0.47807 0.015 1.0003 0.0
O209 O 0.51469 0.05368 0.01996 0.0
O210 O 0.46829 0.00744 0.04468 0.0
O211 O 0.53562 0.007 0.06542 0.0
O212 O 0.51547 0.98385 0.9705 0.0
O213 O 0.53201 0.01912 1.01211 0.0
O214 O 0.53591 0.98742 0.03927 0.0
O215 O 0.49977 0.94883 0.01934 0.0
O216 O 0.54582 0.99512 0.9947 0.0
O217 O 0.47844 0.99576 0.97413 0.0
C218 C 0.45802 0.98357 0.03405 0.0
C219 C 0.60384 0.15219 0.04938 0.0
C220 C 0.62747 0.14393 0.04704 0.0
C221 C 0.5162 0.00942 0.07709 0.0
C222 C 0.52966 0.02301 0.09539 0.0
C223 C 0.55558 0.0534 0.09655 0.0
C224 C 0.51744 0.0049 0.1118 0.0
C225 C 0.53158 0.01684 0.12927 0.0
C226 C 0.56946 0.06545 0.11383 0.0
C227 C 0.55774 0.04729 0.13006 0.0
C228 C 0.4932 0.04399 1.00644 0.0
C229 C 0.55606 0.01887 1.00544 0.0
C230 C 0.49779 0.99341 0.96238 0.0
C231 C 0.48423 0.97995 0.94407 0.0
C232 C 0.4583 0.94957 0.94289 0.0
C233 C 0.49633 0.99815 0.92767 0.0
C234 C 0.48206 0.9863 0.91021 0.0
C235 C 0.4443 0.93761 0.92563 0.0
C236 C 0.45589 0.95585 0.90942 0.0
C237 C 0.52106 0.95851 0.03298 0.0
H238 H 0.56528 0.06763 0.08409 0.0
H239 H 0.49756 0.9813 0.11091 0.0
H240 H 0.58953 0.0889 0.11463 0.0
H241 H 0.56897 0.05715 0.14329 0.0
H242 H 0.44869 0.93527 0.95534 0.0
H243 H 0.51623 0.02174 0.92857 0.0
H244 H 0.42421 0.91417 0.92481 0.0
H245 H 0.44457 0.94605 0.8962 0.0
Gd246 Gd 0.98094 0.49208 0.0387 0.0
Gd247 Gd 0.03285 0.5105 0.99679 0.0
C248 C 0.12443 0.50489 0.99835 0.0
C249 C 0.16555 0.55905 0.99432 0.0
C250 C 0.10931 0.54422 0.99441 0.0
C251 C 0.10075 0.51356 0.99739 0.0
C252 C 0.14175 0.56724 0.99234 0.0
C253 C 0.15689 0.52791 0.99735 0.0
C254 C 0.11474 0.47328 0.99958 0.0
C255 C 0.0822 0.45124 0.99897 0.0
N256 N 0.06918 0.49194 0.99796 0.0
C257 C 0.05964 0.46101 0.99787 0.0
H258 H 0.0346 0.44368 0.99752 0.0
C259 C 0.0927 0.58034 0.98688 0.0
N260 N 0.08571 0.55119 0.99234 0.0
C261 C 0.12453 0.60402 0.98468 0.0
C262 C 0.14921 0.59756 0.9877 0.0
H263 H 0.07368 0.58548 0.98471 0.0
H264 H 0.17544 0.52175 0.99829 0.0
H265 H 0.97694 0.55765 0.03789 0.0
H266 H 0.13216 0.46565 1.00042 0.0
H267 H 0.07445 0.4267 0.99945 0.0
H268 H 0.19064 0.57645 0.99299 0.0
H269 H 0.94216 0.41689 0.05088 0.0
H270 H 0.87844 0.53294 0.03626 0.0
H271 H 0.93579 0.57308 0.03646 0.0
H272 H 0.82296 0.42222 0.04409 0.0
H273 H 0.13001 0.62725 0.98076 0.0
H274 H 0.17384 0.61592 0.98596 0.0
H275 H 0.83643 0.47645 0.03883 0.0
H276 H 0.88649 0.37418 0.05529 0.0
N277 N 0.94338 0.50913 0.03795 0.0
C278 C 0.89642 0.526 0.03689 0.0
C279 C 0.92876 0.54872 0.03706 0.0
C280 C 0.88768 0.49463 0.03821 0.0
C281 C 0.91205 0.48686 0.03888 0.0
C282 C 0.95204 0.53984 0.03787 0.0
N283 N 0.92871 0.45026 0.04342 0.0
C284 C 0.90445 0.45641 0.04173 0.0
C285 C 0.8912 0.39716 0.05137 0.0
C286 C 0.86586 0.40275 0.0487 0.0
C287 C 0.92269 0.4214 0.04888 0.0
C288 C 0.87231 0.43278 0.04411 0.0
H289 H 0.84149 0.38396 0.05068 0.0
O290 O 0.98815 0.4776 0.06602 0.0
O291 O 0.02513 0.49585 0.02655 0.0
O292 O 0.99426 0.45925 0.99857 0.0
O293 O 0.95274 0.45595 0.01716 0.0
O294 O 0.99868 0.45823 0.04386 0.0
O295 O 0.98797 0.52091 0.06297 0.0
O296 O 0.03132 0.5272 0.96887 0.0
O297 O 0.98916 0.50732 1.00906 0.0
O298 O 0.0188 0.54351 0.03675 0.0
O299 O 0.06056 0.54687 0.01839 0.0
O300 O 0.01479 0.54407 0.99111 0.0
O301 O 0.02098 0.4798 0.97309 0.0
C302 C 0.02451 0.4725 0.03399 0.0
C303 C 0.84783 0.4401 0.04251 0.0
C304 C 0.8555 0.47098 0.03952 0.0
C305 C 0.98931 0.50122 0.07453 0.0
C306 C 0.97029 0.4939 0.09179 0.0
C307 C 0.93674 0.47795 0.09138 0.0
C308 C 0.98601 0.50143 0.10903 0.0
C309 C 0.96838 0.49231 0.12581 0.0
C310 C 0.91911 0.469 0.10806 0.0
C311 C 0.93482 0.47586 0.12523 0.0
C312 C 0.9639 0.44474 1.00426 0.0
C313 C 0.98939 0.53029 1.00137 0.0
C314 C 0.02529 0.50128 0.96096 0.0
C315 C 0.04453 0.50398 0.94435 0.0
C316 C 0.07536 0.50813 0.94605 0.0
C317 C 0.03147 0.5015 0.92653 0.0
C318 C 0.04882 0.50255 0.91043 0.0
C319 C 0.09281 0.50945 0.93012 0.0
C320 C 0.0796 0.50649 0.91239 0.0
C321 C 0.04921 0.55809 0.03118 0.0
H322 H 0.92422 0.4721 0.07825 0.0
H323 H 0.01195 0.51361 0.1094 0.0
H324 H 0.89323 0.45649 0.10767 0.0
H325 H 0.92084 0.46857 0.13805 0.0
H326 H 0.08581 0.51006 0.95964 0.0
H327 H 0.0075 0.49799 0.92523 0.0
H328 H 0.11656 0.51257 0.93152 0.0
H329 H 0.09349 0.5075 0.9002 0.0
Gd330 Gd 0.49078 0.50989 0.99789 0.0
Gd331 Gd 0.52091 0.49114 0.04076 0.0
C332 C 0.61777 0.4956 0.04241 0.0
C333 C 0.60216 0.44129 0.04686 0.0
C334 C 0.56173 0.45673 0.04524 0.0
C335 C 0.58522 0.48729 0.04255 0.0
C336 C 0.56989 0.43342 0.04785 0.0
C337 C 0.62607 0.47234 0.04411 0.0
C338 C 0.64098 0.5271 0.04119 0.0
C339 C 0.63147 0.5494 0.04095 0.0
N340 N 0.5763 0.50912 0.04123 0.0
C341 C 0.59888 0.53997 0.04127 0.0
H342 H 0.59199 0.55752 0.041 0.0
C343 C 0.50709 0.42083 0.05103 0.0
N344 N 0.5309 0.45007 0.04626 0.0
C345 C 0.51395 0.39687 0.05372 0.0
C346 C 0.54545 0.4031 0.05189 0.0
H347 H 0.48266 0.41582 0.05229 0.0
H348 H 0.65093 0.47823 0.04385 0.0
H349 H 0.42098 0.44222 0.99619 0.0
H350 H 0.66624 0.53447 0.04097 0.0
H351 H 0.64923 0.57387 0.04043 0.0
H352 H 0.60892 0.42367 0.04865 0.0
H353 H 0.52732 0.58609 0.98893 0.0
H354 H 0.34457 0.46224 0.99679 0.0
H355 H 0.36334 0.42417 0.99632 0.0
H356 H 0.3989 0.57345 0.99265 0.0
H357 H 0.49494 0.37362 0.05713 0.0
H358 H 0.55072 0.38452 0.05401 0.0
H359 H 0.35808 0.51809 0.9956 0.0
H360 H 0.51337 0.62751 0.98595 0.0
N361 N 0.43513 0.49025 0.99701 0.0
C362 C 0.37 0.47036 0.9967 0.0
C363 C 0.38051 0.44881 0.99639 0.0
C364 C 0.39246 0.50214 0.99631 0.0
C365 C 0.42527 0.51144 0.9963 0.0
C366 C 0.41333 0.45921 0.99631 0.0
N367 N 0.47929 0.55026 0.99374 0.0
C368 C 0.44811 0.54248 0.99459 0.0
C369 C 0.49478 0.6037 0.98844 0.0
C370 C 0.46286 0.59624 0.99009 0.0
C371 C 0.50259 0.58022 0.99005 0.0
C372 C 0.43899 0.56525 0.99293 0.0
H373 H 0.45685 0.61445 0.98877 0.0
O374 O 0.51211 0.52853 0.97063 0.0
O375 O 0.53056 0.50676 1.01112 0.0
O376 O 0.53629 0.54246 0.03811 0.0
O377 O 0.49682 0.544 0.02024 0.0
O378 O 0.54366 0.54438 0.99376 0.0
O379 O 0.47494 0.48025 0.97357 0.0
O380 O 0.49908 0.47493 0.06822 0.0
O381 O 0.4811 0.49389 0.02734 0.0
O382 O 0.47689 0.45889 0.99966 0.0
O383 O 0.51397 0.45571 0.01908 0.0
O384 O 0.46794 0.45673 0.04496 0.0
O385 O 0.53834 0.52201 0.06455 0.0
C386 C 0.55438 0.53023 1.00399 0.0
C387 C 0.4064 0.55628 0.99373 0.0
C388 C 0.38317 0.52476 0.99543 0.0
C389 C 0.49381 0.50247 0.96208 0.0
C390 C 0.47959 0.50454 0.94441 0.0
C391 C 0.45309 0.50895 0.94427 0.0
C392 C 0.49207 0.5009 0.92743 0.0
C393 C 0.47772 0.50094 0.91035 0.0
C394 C 0.43892 0.50929 0.92735 0.0
C395 C 0.45097 0.50509 0.91049 0.0
C396 C 0.52003 0.55608 0.03265 0.0
C397 C 0.45721 0.47045 0.03438 0.0
C398 C 0.51877 0.50091 0.07638 0.0
C399 C 0.53272 0.49836 0.09407 0.0
C400 C 0.5585 0.49283 0.09408 0.0
C401 C 0.52066 0.5023 0.11114 0.0
C402 C 0.53477 0.50144 0.12817 0.0
C403 C 0.57238 0.49166 0.11092 0.0
C404 C 0.56077 0.49612 0.12786 0.0
C405 C 0.4924 0.44474 1.00561 0.0
H406 H 0.44321 0.51182 0.95721 0.0
H407 H 0.51239 0.49721 0.92756 0.0
H408 H 0.41839 0.51259 0.92731 0.0
H409 H 0.43954 0.50531 0.89753 0.0
H410 H 0.56804 0.48969 0.08109 0.0
H411 H 0.50086 0.50678 0.11114 0.0
H412 H 0.59233 0.48747 0.11085 0.0
H413 H 0.57196 0.49516 0.14075 0.0
Gd414 Gd 0.18813 0.35848 0.37408 0.0
Gd415 Gd 0.16021 0.31274 0.33033 0.0
C416 C 0.0647 0.22217 0.32644 0.0
C417 C 0.08167 0.18416 0.3217 0.0
C418 C 0.12114 0.239 0.32448 0.0
C419 C 0.09704 0.24593 0.32697 0.0
C420 C 0.11377 0.20814 0.32138 0.0
C421 C 0.05716 0.19117 0.32426 0.0
C422 C 0.04095 0.23042 0.3275 0.0
C423 C 0.04976 0.26176 0.32823 0.0
N424 N 0.10521 0.27615 0.32878 0.0
C425 C 0.08219 0.28447 0.32855 0.0
H426 H 0.08865 0.30859 0.32917 0.0
C427 C 0.17625 0.25755 0.31951 0.0
N428 N 0.15182 0.26276 0.32413 0.0
C429 C 0.17017 0.22733 0.31636 0.0
C430 C 0.13883 0.20244 0.31754 0.0
H431 H 0.20055 0.2766 0.31864 0.0
H432 H 0.03247 0.17256 0.324 0.0
H433 H 0.25728 0.35729 0.37656 0.0
H434 H 0.01582 0.21287 0.3272 0.0
H435 H 0.03161 0.26846 0.3286 0.0
H436 H 0.07552 0.16025 0.31953 0.0
H437 H 0.15249 0.39973 0.38323 0.0
H438 H 0.33473 0.45099 0.37731 0.0
H439 H 0.31503 0.39449 0.37717 0.0
H440 H 0.28191 0.51073 0.38162 0.0
H441 H 0.18965 0.22325 0.31306 0.0
H442 H 0.13417 0.17906 0.31506 0.0
H443 H 0.32214 0.49429 0.37879 0.0
H444 H 0.16722 0.45476 0.38687 0.0
N445 N 0.2439 0.39216 0.37589 0.0
C446 C 0.30923 0.43472 0.37706 0.0
C447 C 0.2982 0.40286 0.37703 0.0
C448 C 0.28718 0.44517 0.37737 0.0
C449 C 0.25425 0.423 0.37694 0.0
C450 C 0.26528 0.38178 0.37669 0.0
N451 N 0.20045 0.41003 0.37899 0.0
C452 C 0.23177 0.43224 0.37857 0.0
C453 C 0.18562 0.44876 0.38449 0.0
C454 C 0.21773 0.47204 0.38333 0.0
C455 C 0.17737 0.41765 0.38251 0.0
C456 C 0.24133 0.4639 0.38059 0.0
H457 H 0.22408 0.49612 0.38492 0.0
O458 O 0.16608 0.35552 0.40123 0.0
O459 O 0.14887 0.31805 0.35977 0.0
O460 O 0.1447 0.34897 0.33285 0.0
O461 O 0.18274 0.38782 0.35186 0.0
O462 O 0.13547 0.34257 0.37709 0.0
O463 O 0.20089 0.34049 0.39822 0.0
O464 O 0.18695 0.3254 0.30418 0.0
O465 O 0.19906 0.35341 0.34473 0.0
O466 O 0.20168 0.32082 0.37214 0.0
O467 O 0.16607 0.28256 0.35181 0.0
O468 O 0.21313 0.32934 0.32759 0.0
O469 O 0.14094 0.32272 0.3054 0.0
C470 C 0.12499 0.3187 0.36643 0.0
C471 C 0.27406 0.48625 0.38024 0.0
C472 C 0.29695 0.47689 0.37862 0.0
C473 C 0.18233 0.34462 0.4097 0.0
C474 C 0.19616 0.35805 0.42795 0.0
C475 C 0.2225 0.38819 0.42908 0.0
C476 C 0.18379 0.33997 0.44437 0.0
C477 C 0.19814 0.3517 0.46181 0.0
C478 C 0.23661 0.40005 0.44634 0.0
C479 C 0.2247 0.38194 0.46258 0.0
C480 C 0.16042 0.37802 0.33886 0.0
C481 C 0.22326 0.35315 0.33829 0.0
C482 C 0.16511 0.32763 0.29482 0.0
C483 C 0.15794 0.31342 0.27616 0.0
C484 C 0.14362 0.28112 0.27428 0.0
C485 C 0.16731 0.33247 0.26001 0.0
C486 C 0.16321 0.31932 0.24211 0.0
C487 C 0.13924 0.26799 0.25656 0.0
C488 C 0.1492 0.28693 0.24059 0.0
C489 C 0.18677 0.29194 0.36575 0.0
H490 H 0.23232 0.40237 0.41661 0.0
H491 H 0.16359 0.31654 0.44348 0.0
H492 H 0.257 0.42332 0.44713 0.0
H493 H 0.23611 0.39166 0.4758 0.0
H494 H 0.13625 0.26612 0.2865 0.0
H495 H 0.17858 0.35747 0.26139 0.0
H496 H 0.12834 0.24306 0.25521 0.0
H497 H 0.14574 0.27626 0.22699 0.0
Gd498 Gd 0.64739 0.82609 0.37383 0.0
Gd499 Gd 0.69922 0.84363 0.33199 0.0
C500 C 0.79093 0.83815 0.33295 0.0
C501 C 0.8319 0.89222 0.32837 0.0
C502 C 0.77565 0.87735 0.32893 0.0
C503 C 0.7672 0.84676 0.33209 0.0
C504 C 0.80804 0.90035 0.32654 0.0
C505 C 0.82335 0.86116 0.3316 0.0
C506 C 0.7813 0.80658 0.33444 0.0
C507 C 0.74876 0.78451 0.3342 0.0
N508 N 0.73564 0.82515 0.33302 0.0
C509 C 0.72614 0.79423 0.33319 0.0
H510 H 0.7011 0.77686 0.33311 0.0
C511 C 0.75882 0.91333 0.3215 0.0
N512 N 0.75198 0.88427 0.32705 0.0
C513 C 0.79059 0.93699 0.31899 0.0
C514 C 0.81535 0.93058 0.32178 0.0
H515 H 0.73977 0.91846 0.31949 0.0
H516 H 0.84194 0.85504 0.33244 0.0
H517 H 0.64648 0.89335 0.37296 0.0
H518 H 0.79876 0.79899 0.33521 0.0
H519 H 0.74104 0.75999 0.33489 0.0
H520 H 0.85695 0.90961 0.32679 0.0
H521 H 0.60594 0.75115 0.38597 0.0
H522 H 0.54921 0.87238 0.37053 0.0
H523 H 0.60706 0.91088 0.37118 0.0
H524 H 0.48977 0.76165 0.37821 0.0
H525 H 0.79595 0.96014 0.31498 0.0
H526 H 0.83994 0.94892 0.3198 0.0
H527 H 0.50552 0.81648 0.37287 0.0
H528 H 0.54949 0.70983 0.39011 0.0
N529 N 0.6115 0.84519 0.37276 0.0
C530 C 0.56644 0.8645 0.37131 0.0
C531 C 0.59906 0.88629 0.37173 0.0
C532 C 0.55642 0.83282 0.3726 0.0
C533 C 0.57985 0.82383 0.37348 0.0
C534 C 0.62137 0.8762 0.37274 0.0
N535 N 0.59437 0.78578 0.3784 0.0
C536 C 0.57099 0.79308 0.37646 0.0
C537 C 0.55519 0.73312 0.38618 0.0
C538 C 0.53072 0.73992 0.38328 0.0
C539 C 0.5871 0.75656 0.38388 0.0
C540 C 0.53847 0.77032 0.37865 0.0
H541 H 0.50602 0.72175 0.38511 0.0
O542 O 0.64954 0.80941 0.40164 0.0
O543 O 0.6912 0.82903 0.36177 0.0
O544 O 0.6609 0.79242 0.33413 0.0
O545 O 0.61927 0.7897 0.35231 0.0
O546 O 0.6647 0.79197 0.37943 0.0
O547 O 0.65899 0.85657 0.39761 0.0
O548 O 0.69666 0.85964 0.30405 0.0
O549 O 0.65554 0.84078 0.34412 0.0
O550 O 0.68626 0.87721 0.37199 0.0
O551 O 0.72758 0.88001 0.35344 0.0
O552 O 0.68174 0.87764 0.32636 0.0
O553 O 0.68695 0.81249 0.30851 0.0
C554 C 0.69041 0.80576 0.36943 0.0
C555 C 0.51491 0.77885 0.37678 0.0
C556 C 0.52388 0.81006 0.37374 0.0
C557 C 0.65527 0.83516 0.40964 0.0
C558 C 0.63629 0.83204 0.42643 0.0
C559 C 0.60535 0.82775 0.42511 0.0
C560 C 0.64977 0.83423 0.44407 0.0
C561 C 0.63277 0.8328 0.4604 0.0
C562 C 0.58823 0.82603 0.44129 0.0
C563 C 0.6019 0.82875 0.45887 0.0
C564 C 0.63047 0.77816 0.33963 0.0
C565 C 0.65614 0.86394 0.33645 0.0
C566 C 0.69051 0.83359 0.2963 0.0
C567 C 0.70895 0.836 0.27939 0.0
C568 C 0.7399 0.84026 0.28053 0.0
C569 C 0.6949 0.83301 0.26185 0.0
C570 C 0.71134 0.8336 0.24544 0.0
C571 C 0.75645 0.84113 0.26428 0.0
C572 C 0.74222 0.8376 0.24681 0.0
C573 C 0.71661 0.89146 0.3663 0.0
H574 H 0.59459 0.82604 0.41164 0.0
H575 H 0.67383 0.83789 0.44506 0.0
H576 H 0.5644 0.82282 0.44021 0.0
H577 H 0.58833 0.82755 0.47126 0.0
H578 H 0.75109 0.84259 0.29393 0.0
H579 H 0.67085 0.82942 0.26099 0.0
H580 H 0.78029 0.84431 0.26523 0.0
H581 H 0.75538 0.83821 0.23436 0.0
Gd582 Gd 0.1584 0.84504 0.3307 0.0
Gd583 Gd 0.18631 0.82426 0.37366 0.0
C584 C 0.28165 0.82592 0.37594 0.0
C585 C 0.26453 0.77114 0.37982 0.0
C586 C 0.22518 0.78795 0.37795 0.0
C587 C 0.24935 0.81841 0.37576 0.0
C588 C 0.23247 0.76403 0.38052 0.0
C589 C 0.28908 0.80204 0.37749 0.0
C590 C 0.3055 0.85725 0.37517 0.0
C591 C 0.29682 0.88016 0.37504 0.0
N592 N 0.2413 0.84089 0.37457 0.0
C593 C 0.26442 0.87152 0.37504 0.0
H594 H 0.25806 0.88946 0.37485 0.0
C595 C 0.17015 0.75295 0.38334 0.0
N596 N 0.19454 0.78198 0.37871 0.0
C597 C 0.17616 0.72843 0.38599 0.0
C598 C 0.20741 0.73389 0.3843 0.0
H599 H 0.14593 0.74854 0.38457 0.0
H600 H 0.31375 0.80732 0.37746 0.0
H601 H 0.08772 0.77824 0.32921 0.0
H602 H 0.3306 0.864 0.3752 0.0
H603 H 0.31505 0.90448 0.37486 0.0
H604 H 0.27062 0.75305 0.38156 0.0
H605 H 0.19621 0.92066 0.3201 0.0
H606 H 0.01279 0.80034 0.32937 0.0
H607 H 0.03035 0.76135 0.32931 0.0
H608 H 0.06929 0.91141 0.32354 0.0
H609 H 0.1567 0.70534 0.38926 0.0
H610 H 0.21202 0.71488 0.38639 0.0
H611 H 0.02757 0.85652 0.32744 0.0
H612 H 0.18348 0.96269 0.31579 0.0
N613 N 0.10292 0.82653 0.32979 0.0
C614 C 0.0381 0.80795 0.32934 0.0
C615 C 0.04793 0.78588 0.32925 0.0
C616 C 0.06109 0.83956 0.3287 0.0
C617 C 0.09372 0.84819 0.32878 0.0
C618 C 0.0806 0.79562 0.32919 0.0
N619 N 0.14799 0.88594 0.3257 0.0
C620 C 0.11705 0.87894 0.32661 0.0
C621 C 0.16457 0.93925 0.3189 0.0
C622 C 0.13294 0.93267 0.32065 0.0
C623 C 0.17168 0.9154 0.32128 0.0
C624 C 0.10863 0.90212 0.32428 0.0
H625 H 0.12747 0.95116 0.31877 0.0
O626 O 0.1806 0.863 0.30351 0.0
O627 O 0.19752 0.84112 0.34427 0.0
O628 O 0.20182 0.87571 0.37215 0.0
O629 O 0.16549 0.88004 0.3527 0.0
O630 O 0.21132 0.87936 0.32732 0.0
O631 O 0.14229 0.81529 0.30643 0.0
O632 O 0.16102 0.80892 0.40019 0.0
O633 O 0.14762 0.82887 0.36014 0.0
O634 O 0.14343 0.79375 0.33223 0.0
O635 O 0.17949 0.78916 0.35179 0.0
O636 O 0.13319 0.79033 0.37688 0.0
O637 O 0.20648 0.85175 0.39872 0.0
C638 C 0.22161 0.8649 0.33759 0.0
C639 C 0.07625 0.8939 0.3251 0.0
C640 C 0.05251 0.86266 0.32733 0.0
C641 C 0.16167 0.83718 0.29494 0.0
C642 C 0.14764 0.8399 0.27733 0.0
C643 C 0.12217 0.84588 0.27742 0.0
C644 C 0.15915 0.83537 0.26025 0.0
C645 C 0.14483 0.83612 0.2433 0.0
C646 C 0.10807 0.84695 0.26064 0.0
C647 C 0.11914 0.84191 0.24368 0.0
C648 C 0.18703 0.89056 0.36618 0.0
C649 C 0.12327 0.80524 0.36671 0.0
C650 C 0.18328 0.83196 0.40952 0.0
C651 C 0.19225 0.82367 0.42736 0.0
C652 C 0.20774 0.80622 0.42769 0.0
C653 C 0.18372 0.83199 0.44427 0.0
C654 C 0.18988 0.82231 0.46161 0.0
C655 C 0.21406 0.7966 0.44469 0.0
C656 C 0.20499 0.80428 0.4615 0.0
C657 C 0.15818 0.77886 0.33819 0.0
H658 H 0.11302 0.84942 0.29044 0.0
H659 H 0.17867 0.83048 0.26019 0.0
H660 H 0.08835 0.85149 0.26079 0.0
H661 H 0.1078 0.84277 0.23083 0.0
H662 H 0.21458 0.79971 0.41485 0.0
H663 H 0.1723 0.84599 0.44382 0.0
H664 H 0.22567 0.78277 0.44485 0.0
H665 H 0.20941 0.79556 0.47438 0.0
Gd666 Gd 0.85329 0.68927 0.7079 0.0
Gd667 Gd 0.82716 0.64411 0.66392 0.0
C668 C 0.73 0.55536 0.65935 0.0
C669 C 0.74531 0.51604 0.65505 0.0
C670 C 0.78601 0.57045 0.65797 0.0
C671 C 0.76261 0.57837 0.66013 0.0
C672 C 0.77771 0.53929 0.65498 0.0
C673 C 0.72148 0.52406 0.65726 0.0
C674 C 0.70701 0.56461 0.66006 0.0
C675 C 0.71686 0.59621 0.66071 0.0
N676 N 0.77178 0.60886 0.66185 0.0
C677 C 0.74952 0.61815 0.6613 0.0
H678 H 0.75665 0.64244 0.66187 0.0
C679 C 0.84089 0.58739 0.65358 0.0
N680 N 0.81697 0.59353 0.6578 0.0
C681 C 0.83391 0.55685 0.65055 0.0
C682 C 0.8022 0.53262 0.65149 0.0
H683 H 0.86547 0.60599 0.65301 0.0
H684 H 0.69656 0.506 0.65681 0.0
H685 H 0.9234 0.69018 0.71069 0.0
H686 H 0.68171 0.54767 0.65955 0.0
H687 H 0.69931 0.60369 0.66082 0.0
H688 H 0.73843 0.49192 0.65296 0.0
H689 H 0.81557 0.72817 0.71822 0.0
H690 H 0.99899 0.78467 0.71274 0.0
H691 H 0.98083 0.7285 0.71195 0.0
H692 H 0.94322 0.84151 0.71812 0.0
H693 H 0.85298 0.55201 0.64758 0.0
H694 H 0.79683 0.50898 0.64911 0.0
H695 H 0.98471 0.8268 0.71481 0.0
H696 H 0.82858 0.78242 0.72324 0.0
N697 N 0.90875 0.72411 0.71016 0.0
C698 C 0.97364 0.76791 0.71216 0.0
C699 C 0.96348 0.73623 0.71178 0.0
C700 C 0.9509 0.7775 0.71249 0.0
C701 C 0.91821 0.7547 0.71163 0.0
C702 C 0.93076 0.71452 0.71106 0.0
N703 N 0.86397 0.74012 0.71363 0.0
C704 C 0.89502 0.76298 0.71348 0.0
C705 C 0.84751 0.7773 0.72044 0.0
C706 C 0.87933 0.8013 0.71949 0.0
C707 C 0.84023 0.74661 0.71765 0.0
C708 C 0.90362 0.79426 0.71624 0.0
H709 H 0.88493 0.82505 0.72168 0.0
O710 O 0.82933 0.68378 0.73471 0.0
O711 O 0.81487 0.6485 0.69326 0.0
O712 O 0.81226 0.68074 0.66585 0.0
O713 O 0.8479 0.7192 0.68598 0.0
O714 O 0.80045 0.67282 0.71 0.0
O715 O 0.86697 0.67246 0.73223 0.0
O716 O 0.85102 0.65025 0.63699 0.0
O717 O 0.86553 0.68462 0.67866 0.0
O718 O 0.86792 0.65237 0.70617 0.0
O719 O 0.83294 0.61419 0.68562 0.0
O720 O 0.88011 0.66081 0.66165 0.0
O721 O 0.81299 0.66095 0.63983 0.0
C722 C 0.79059 0.64888 0.69946 0.0
C723 C 0.93611 0.81729 0.71621 0.0
C724 C 0.95972 0.80891 0.71432 0.0
C725 C 0.84691 0.67472 0.74345 0.0
C726 C 0.85959 0.6888 0.76177 0.0
C727 C 0.88435 0.71976 0.76288 0.0
C728 C 0.84782 0.67077 0.77826 0.0
C729 C 0.86132 0.68346 0.79574 0.0
C730 C 0.89753 0.73253 0.78017 0.0
C731 C 0.88631 0.71451 0.79647 0.0
C732 C 0.82717 0.7097 0.67206 0.0
C733 C 0.88988 0.68444 0.67244 0.0
C734 C 0.83321 0.65926 0.62846 0.0
C735 C 0.82073 0.64575 0.61 0.0
C736 C 0.79581 0.61492 0.60853 0.0
C737 C 0.83282 0.66429 0.59372 0.0
C738 C 0.81951 0.65228 0.5761 0.0
C739 C 0.7828 0.60281 0.5911 0.0
C740 C 0.79436 0.62136 0.57501 0.0
C741 C 0.85351 0.62361 0.69962 0.0
H742 H 0.89369 0.73393 0.75037 0.0
H743 H 0.82885 0.64674 0.77744 0.0
H744 H 0.91671 0.75643 0.78092 0.0
H745 H 0.89702 0.72492 0.8097 0.0
H746 H 0.78622 0.60036 0.62088 0.0
H747 H 0.85192 0.68823 0.59483 0.0
H748 H 0.76349 0.57901 0.59006 0.0
H749 H 0.78378 0.61146 0.56165 0.0
Gd750 Gd 0.31389 0.15815 0.70656 0.0
Gd751 Gd 0.36586 0.17718 0.66466 0.0
C752 C 0.45618 0.16928 0.6655 0.0
C753 C 0.49814 0.2232 0.66186 0.0
C754 C 0.44223 0.20952 0.66214 0.0
C755 C 0.43301 0.17863 0.66477 0.0
C756 C 0.47485 0.2321 0.66014 0.0
C757 C 0.48882 0.19182 0.66456 0.0
C758 C 0.44582 0.13751 0.66644 0.0
C759 C 0.41313 0.11599 0.66582 0.0
N760 N 0.40129 0.1575 0.6653 0.0
C761 C 0.39109 0.12644 0.66497 0.0
H762 H 0.36593 0.10949 0.66461 0.0
C763 C 0.42672 0.24665 0.6552 0.0
N764 N 0.41909 0.21718 0.66033 0.0
C765 C 0.45875 0.26992 0.65308 0.0
C766 C 0.48296 0.26272 0.65584 0.0
H767 H 0.40808 0.25236 0.65323 0.0
H768 H 0.50698 0.18513 0.66532 0.0
H769 H 0.31098 0.22428 0.70676 0.0
H770 H 0.46283 0.12935 0.6671 0.0
H771 H 0.40486 0.09134 0.6661 0.0
H772 H 0.52336 0.24025 0.66058 0.0
H773 H 0.27416 0.08257 0.71774 0.0
H774 H 0.21286 0.2009 0.70506 0.0
H775 H 0.2704 0.24048 0.70566 0.0
H776 H 0.15601 0.08994 0.71152 0.0
H777 H 0.46473 0.29338 0.64941 0.0
H778 H 0.50775 0.28075 0.65417 0.0
H779 H 0.17027 0.14454 0.70696 0.0
H780 H 0.21821 0.04022 0.72178 0.0
N781 N 0.27692 0.17591 0.70622 0.0
C782 C 0.23059 0.19362 0.70554 0.0
C783 C 0.26303 0.21603 0.70593 0.0
C784 C 0.22141 0.16211 0.70644 0.0
C785 C 0.24547 0.15391 0.70693 0.0
C786 C 0.28599 0.20672 0.70656 0.0
N787 N 0.26139 0.11663 0.71087 0.0
C788 C 0.23743 0.12326 0.70937 0.0
C789 C 0.22327 0.06343 0.71818 0.0
C790 C 0.19823 0.06954 0.71571 0.0
C791 C 0.25492 0.08747 0.71591 0.0
C792 C 0.20515 0.09985 0.71154 0.0
H793 H 0.17374 0.0509 0.71751 0.0
O794 O 0.32019 0.14236 0.73368 0.0
O795 O 0.35787 0.16173 0.69425 0.0
O796 O 0.32665 0.12615 0.66591 0.0
O797 O 0.28533 0.12308 0.68455 0.0
O798 O 0.33111 0.12373 0.71118 0.0
O799 O 0.32122 0.18634 0.73118 0.0
O800 O 0.36443 0.19499 0.63708 0.0
O801 O 0.32241 0.17443 0.67708 0.0
O802 O 0.35241 0.20943 0.70524 0.0
O803 O 0.39387 0.21284 0.68654 0.0
O804 O 0.34914 0.21191 0.65978 0.0
O805 O 0.3534 0.14725 0.64056 0.0
C806 C 0.35703 0.13809 0.70138 0.0
C807 C 0.18098 0.10764 0.71011 0.0
C808 C 0.18911 0.13873 0.70753 0.0
C809 C 0.32186 0.16598 0.74249 0.0
C810 C 0.30274 0.15854 0.75974 0.0
C811 C 0.26926 0.14292 0.75924 0.0
C812 C 0.31836 0.16586 0.77701 0.0
C813 C 0.30077 0.15688 0.79391 0.0
C814 C 0.25156 0.13415 0.77585 0.0
C815 C 0.26709 0.1408 0.79307 0.0
C816 C 0.29621 0.11201 0.67141 0.0
C817 C 0.3235 0.19812 0.66983 0.0
C818 C 0.35783 0.16921 0.62878 0.0
C819 C 0.3766 0.17211 0.61193 0.0
C820 C 0.40766 0.17672 0.61317 0.0
C821 C 0.36276 0.16925 0.59433 0.0
C822 C 0.37953 0.17032 0.57798 0.0
C823 C 0.42456 0.17808 0.59696 0.0
C824 C 0.41054 0.17469 0.57944 0.0
C825 C 0.38277 0.22392 0.69956 0.0
H826 H 0.25682 0.13721 0.74608 0.0
H827 H 0.34428 0.17857 0.77715 0.0
H828 H 0.22568 0.12178 0.77539 0.0
H829 H 0.25261 0.13284 0.80567 0.0
H830 H 0.41869 0.17894 0.62661 0.0
H831 H 0.3386 0.16535 0.5934 0.0
H832 H 0.44849 0.18153 0.598 0.0
H833 H 0.42395 0.17564 0.56703 0.0
Gd834 Gd 0.82462 0.17606 0.66444 0.0
Gd835 Gd 0.85347 0.15576 0.70716 0.0
C836 C 0.95065 0.16096 0.7091 0.0
C837 C 0.93537 0.10659 0.71274 0.0
C838 C 0.89466 0.12168 0.71124 0.0
C839 C 0.91804 0.15241 0.70904 0.0
C840 C 0.90301 0.09845 0.71357 0.0
C841 C 0.95916 0.13781 0.71048 0.0
C842 C 0.9737 0.19256 0.70841 0.0
C843 C 0.96396 0.21468 0.70847 0.0
N844 N 0.90892 0.17413 0.70801 0.0
C845 C 0.9313 0.20502 0.70856 0.0
H846 H 0.92423 0.22244 0.70851 0.0
C847 C 0.83999 0.08529 0.71653 0.0
N848 N 0.86373 0.11474 0.71213 0.0
C849 C 0.84704 0.0614 0.71892 0.0
C850 C 0.87865 0.06792 0.71719 0.0
H851 H 0.81548 0.08006 0.71771 0.0
H852 H 0.98408 0.14389 0.71035 0.0
H853 H 0.75353 0.10993 0.66355 0.0
H854 H 0.999 0.2001 0.70836 0.0
H855 H 0.98157 0.2392 0.70836 0.0
H856 H 0.94228 0.08905 0.7143 0.0
H857 H 0.86334 0.25168 0.65333 0.0
H858 H 0.67956 0.13343 0.66396 0.0
H859 H 0.69627 0.0938 0.66396 0.0
H860 H 0.73741 0.24442 0.65761 0.0
H861 H 0.82809 0.03797 0.72202 0.0
H862 H 0.88407 0.0494 0.71908 0.0
H863 H 0.69518 0.18981 0.66185 0.0
H864 H 0.85131 0.29413 0.64895 0.0
N865 N 0.76936 0.15833 0.66388 0.0
C866 C 0.70479 0.14068 0.66379 0.0
C867 C 0.71413 0.11825 0.66373 0.0
C868 C 0.72813 0.17218 0.66296 0.0
C869 C 0.76064 0.18034 0.66287 0.0
C870 C 0.74669 0.12753 0.66349 0.0
N871 N 0.81513 0.21759 0.65958 0.0
C872 C 0.7843 0.21099 0.66061 0.0
C873 C 0.83226 0.27088 0.65233 0.0
C874 C 0.80082 0.26479 0.65433 0.0
C875 C 0.83899 0.2468 0.6548 0.0
C876 C 0.77629 0.23444 0.65822 0.0
H877 H 0.79566 0.28347 0.65238 0.0
O878 O 0.84986 0.19172 0.63791 0.0
O879 O 0.86391 0.17193 0.67768 0.0
O880 O 0.8684 0.20701 0.70558 0.0
O881 O 0.83199 0.21147 0.68626 0.0
O882 O 0.87745 0.2106 0.66106 0.0
O883 O 0.80444 0.14885 0.63927 0.0
O884 O 0.83134 0.13803 0.73439 0.0
O885 O 0.81407 0.15945 0.69386 0.0
O886 O 0.80987 0.12478 0.66591 0.0
O887 O 0.84681 0.12102 0.6851 0.0
O888 O 0.8006 0.12128 0.71077 0.0
O889 O 0.87012 0.18555 0.73142 0.0
C890 C 0.88788 0.19591 0.67105 0.0
C891 C 0.74405 0.22668 0.6592 0.0
C892 C 0.72 0.1956 0.6616 0.0
C893 C 0.82764 0.16876 0.62853 0.0
C894 C 0.81874 0.17724 0.61073 0.0
C895 C 0.80242 0.19395 0.61044 0.0
C896 C 0.82847 0.17017 0.5938 0.0
C897 C 0.82271 0.1805 0.57667 0.0
C898 C 0.79646 0.20406 0.59346 0.0
C899 C 0.80678 0.19764 0.57666 0.0
C900 C 0.85368 0.22195 0.69965 0.0
C901 C 0.79008 0.13568 0.70062 0.0
C902 C 0.85061 0.16377 0.74293 0.0
C903 C 0.86453 0.16077 0.7605 0.0
C904 C 0.88994 0.1547 0.76036 0.0
C905 C 0.85287 0.16499 0.77762 0.0
C906 C 0.86697 0.16382 0.79456 0.0
C907 C 0.90382 0.15322 0.77714 0.0
C908 C 0.89259 0.15793 0.79414 0.0
C909 C 0.82505 0.11023 0.67176 0.0
H910 H 0.79463 0.1995 0.6233 0.0
H911 H 0.84124 0.15739 0.59397 0.0
H912 H 0.78402 0.21712 0.59333 0.0
H913 H 0.80205 0.20578 0.56363 0.0
H914 H 0.89919 0.15139 0.74733 0.0
H915 H 0.83339 0.16994 0.77771 0.0
H916 H 0.92348 0.1486 0.77696 0.0
H917 H 0.90376 0.15674 0.80698 0.0
H918 H 0.29206 0.80417 0.06656 0.0
H919 H 0.28199 0.87705 0.09275 0.0
H920 H 0.33881 0.84312 0.04944 0.0
H921 H 0.33013 0.91569 0.07713 0.0
H922 H 0.40213 0.98282 0.03777 0.0
H923 H 0.35123 0.94024 0.04902 0.0
H924 H 0.39279 0.88077 0.05178 0.0
H925 H 0.44304 0.92312 0.03936 0.0
C926 C 0.29975 0.82844 0.06876 0.0
C927 C 0.28293 0.83723 0.08113 0.0
C928 C 0.32696 0.85088 0.05908 0.0
C929 C 0.33841 0.88278 0.0617 0.0
C930 C 0.32183 0.89148 0.07429 0.0
C931 C 0.2944 0.86912 0.08367 0.0
C932 C 0.4 0.96036 0.04039 0.0
C933 C 0.42631 0.95614 0.03761 0.0
C934 C 0.37098 0.936 0.04709 0.0
C935 C 0.36788 0.90708 0.05186 0.0
C936 C 0.39399 0.90252 0.04823 0.0
C937 C 0.42289 0.9268 0.04111 0.0
H938 H 0.17093 0.42081 0.05449 0.0
H939 H 0.17894 0.48265 0.09888 0.0
H940 H 0.12997 0.42896 0.03953 0.0
H941 H 0.1385 0.49127 0.08374 0.0
H942 H 0.08599 0.51946 0.03994 0.0
H943 H 0.13102 0.51439 0.05142 0.0
H944 H 0.07145 0.41455 0.05133 0.0
H945 H 0.02631 0.41966 0.04023 0.0
C946 C 0.16421 0.43643 0.06091 0.0
C947 C 0.178 0.451 0.07789 0.0
C948 C 0.14074 0.441 0.05239 0.0
C949 C 0.13112 0.46077 0.06047 0.0
C950 C 0.14563 0.47609 0.07714 0.0
C951 C 0.16858 0.471 0.08586 0.0
C952 C 0.08271 0.49647 0.04209 0.0
C953 C 0.05285 0.4699 0.03888 0.0
C954 C 0.10838 0.49358 0.04878 0.0
C955 C 0.10474 0.46407 0.05219 0.0
C956 C 0.07503 0.43755 0.04863 0.0
C957 C 0.04922 0.44046 0.04233 0.0
H958 H 0.60812 0.72639 0.09625 0.0
H959 H 0.52507 0.72403 0.07181 0.0
H960 H 0.59359 0.67734 0.0819 0.0
H961 H 0.51314 0.67726 0.05534 0.0
H962 H 0.47955 0.57706 0.0417 0.0
H963 H 0.4926 0.62541 0.05707 0.0
H964 H 0.59304 0.65259 0.05548 0.0
H965 H 0.57917 0.60285 0.04173 0.0
C966 C 0.5868 0.7156 0.08777 0.0
C967 C 0.56781 0.72949 0.08537 0.0
C968 C 0.57883 0.68759 0.07909 0.0
C969 C 0.55223 0.67305 0.0672 0.0
C970 C 0.53348 0.68718 0.06459 0.0
C971 C 0.54083 0.71465 0.07378 0.0
C972 C 0.50437 0.59346 0.04475 0.0
C973 C 0.52835 0.58624 0.04077 0.0
C974 C 0.51201 0.62141 0.05342 0.0
C975 C 0.54401 0.64328 0.05771 0.0
C976 C 0.56804 0.6362 0.05303 0.0
C977 C 0.56021 0.60778 0.04495 0.0
H978 H 0.84759 0.29446 0.92892 0.0
H979 H 0.8235 0.2511 0.98375 0.0
H980 H 0.88561 0.34373 0.94307 0.0
H981 H 0.86018 0.3011 0.9978 0.0
H982 H 0.89959 0.40801 1.01117 0.0
H983 H 0.86286 0.35747 0.9979 0.0
H984 H 0.93937 0.36272 0.96386 0.0
H985 H 0.97678 0.41266 0.97778 0.0
C986 C 0.85042 0.29523 0.94395 0.0
C987 C 0.83242 0.26848 0.95512 0.0
C988 C 0.87209 0.32358 0.95202 0.0
C989 C 0.87576 0.32608 0.97147 0.0
C990 C 0.85756 0.29971 0.98274 0.0
C991 C 0.83637 0.27114 0.97466 0.0
C992 C 0.90889 0.3982 1.00122 0.0
C993 C 0.9414 0.41423 0.99591 0.0
C994 C 0.88774 0.36932 0.99353 0.0
C995 C 0.8984 0.35625 0.97997 0.0
C996 C 0.93064 0.3724 0.97432 0.0
C997 C 0.95201 0.40097 0.98233 0.0
H998 H 0.69913 0.5228 0.93854 0.0
H999 H 0.75477 0.58136 0.98398 0.0
H1000 H 0.64985 0.51411 0.95407 0.0
H1001 H 0.70548 0.57329 0.99929 0.0
H1002 H 0.61084 0.58336 0.99868 0.0
H1003 H 0.66164 0.5889 0.98767 0.0
H1004 H 0.61887 0.48914 0.98716 0.0
H1005 H 0.5683 0.48363 0.99864 0.0
C1006 C 0.70077 0.53377 0.95185 0.0
C1007 C 0.73076 0.55279 0.96004 0.0
C1008 C 0.67261 0.52864 0.96078 0.0
C1009 C 0.67389 0.54298 0.97789 0.0
C1010 C 0.70385 0.56196 0.98612 0.0
C1011 C 0.73197 0.56651 0.97739 0.0
C1012 C 0.61256 0.56267 0.99658 0.0
C1013 C 0.58582 0.53312 0.99978 0.0
C1014 C 0.64157 0.56583 0.99031 0.0
C1015 C 0.64414 0.53945 0.98653 0.0
C1016 C 0.61751 0.50984 0.98995 0.0
C1017 C 0.58867 0.5067 0.99664 0.0
H1018 H 0.3998 0.13403 0.95156 0.0
H1019 H 0.49888 0.20589 0.9549 0.0
H1020 H 0.41201 0.09804 0.96786 0.0
H1021 H 0.5116 0.1697 0.97055 0.0
H1022 H 0.51931 0.10629 0.01347 0.0
H1023 H 0.50582 0.14253 0.99882 0.0
H1024 H 0.43749 0.06885 0.96367 0.0
H1025 H 0.44943 0.03241 0.97907 0.0
C1026 C 0.42428 0.14194 0.95559 0.0
C1027 C 0.44841 0.17265 0.95198 0.0
C1028 C 0.43136 0.12134 0.96489 0.0
C1029 C 0.46285 0.13088 0.97053 0.0
C1030 C 0.487 0.16166 0.96675 0.0
C1031 C 0.4798 0.18236 0.95768 0.0
C1032 C 0.50101 0.09771 1.00286 0.0
C1033 C 0.4852 0.0663 0.99768 0.0
C1034 C 0.49357 0.11861 0.99425 0.0
C1035 C 0.47049 0.10868 0.98004 0.0
C1036 C 0.4549 0.07729 0.9748 0.0
C1037 C 0.462 0.05636 0.98357 0.0
H1038 H 0.7204 0.19799 0.97102 0.0
H1039 H 0.73134 0.12468 0.94621 0.0
H1040 H 0.67429 0.15943 0.98875 0.0
H1041 H 0.68373 0.08632 0.96237 0.0
H1042 H 0.61222 0.02003 1.00208 0.0
H1043 H 0.66293 0.06262 0.99062 0.0
H1044 H 0.62058 0.12136 0.98702 0.0
H1045 H 0.57059 0.07908 0.99972 0.0
C1046 C 0.71305 0.17371 0.96926 0.0
C1047 C 0.72992 0.16468 0.95708 0.0
C1048 C 0.68619 0.15147 0.97928 0.0
C1049 C 0.67511 0.11953 0.97721 0.0
C1050 C 0.69176 0.11059 0.96482 0.0
C1051 C 0.71886 0.13276 0.95512 0.0
C1052 C 0.61416 0.04236 0.99925 0.0
C1053 C 0.5877 0.04639 1.00188 0.0
C1054 C 0.64307 0.06671 0.99242 0.0
C1055 C 0.64587 0.0954 0.98732 0.0
C1056 C 0.61963 0.0998 0.99083 0.0
C1057 C 0.59086 0.07555 0.99811 0.0
H1058 H 0.83388 0.5212 0.93873 0.0
H1059 H 0.84147 0.58136 0.98404 0.0
H1060 H 0.8746 0.51247 0.95333 0.0
H1061 H 0.8829 0.57321 0.99847 0.0
H1062 H 0.92774 0.48344 0.99601 0.0
H1063 H 0.88227 0.48858 0.98551 0.0
H1064 H 0.94184 0.58841 0.98564 0.0
H1065 H 0.98747 0.58324 0.99576 0.0
C1066 C 0.84419 0.53241 0.95187 0.0
C1067 C 0.83461 0.552 0.96024 0.0
C1068 C 0.86732 0.52729 0.96026 0.0
C1069 C 0.88189 0.54218 0.97701 0.0
C1070 C 0.87207 0.56151 0.98553 0.0
C1071 C 0.84836 0.56608 0.97733 0.0
C1072 C 0.93094 0.50645 0.99409 0.0
C1073 C 0.96094 0.53299 0.99702 0.0
C1074 C 0.90501 0.50938 0.98798 0.0
C1075 C 0.90852 0.5389 0.98487 0.0
C1076 C 0.93838 0.56541 0.98815 0.0
C1077 C 0.96446 0.56246 0.99386 0.0
H1078 H 0.46232 0.3019 0.92577 0.0
H1079 H 0.44303 0.25594 0.97974 0.0
H1080 H 0.47416 0.35021 0.94115 0.0
H1081 H 0.45643 0.30464 0.99496 0.0
H1082 H 0.51915 0.40844 1.01289 0.0
H1083 H 0.50767 0.36021 0.99767 0.0
H1084 H 0.44006 0.36722 0.96161 0.0
H1085 H 0.45051 0.41485 0.97718 0.0
C1086 C 0.46054 0.30199 0.94086 0.0
C1087 C 0.45167 0.2749 0.95147 0.0
C1088 C 0.46749 0.3297 0.94964 0.0
C1089 C 0.46623 0.33102 0.9692 0.0
C1090 C 0.45791 0.30423 0.97985 0.0
C1091 C 0.45043 0.27641 0.97109 0.0
C1092 C 0.50143 0.39951 1.00197 0.0
C1093 C 0.4854 0.41535 0.99651 0.0
C1094 C 0.49503 0.37199 0.99319 0.0
C1095 C 0.47303 0.36014 0.9785 0.0
C1096 C 0.4573 0.37606 0.97284 0.0
C1097 C 0.46324 0.40327 0.98184 0.0
H1098 H 0.13945 0.74169 0.08248 0.0
H1099 H 0.21536 0.72022 0.0777 0.0
H1100 H 0.10262 0.69269 0.06753 0.0
H1101 H 0.17838 0.67034 0.06379 0.0
H1102 H 0.11356 0.59478 0.02463 0.0
H1103 H 0.14989 0.64517 0.03761 0.0
H1104 H 0.07289 0.63939 0.07177 0.0
H1105 H 0.03595 0.59011 0.05747 0.0
C1106 C 0.1481 0.72624 0.07832 0.0
C1107 C 0.18018 0.73467 0.08115 0.0
C1108 C 0.12697 0.69801 0.06989 0.0
C1109 C 0.13728 0.67721 0.06443 0.0
C1110 C 0.16953 0.68583 0.06738 0.0
C1111 C 0.19078 0.71435 0.07546 0.0
C1112 C 0.10414 0.60454 0.03455 0.0
C1113 C 0.07157 0.58859 0.0396 0.0
C1114 C 0.12522 0.63334 0.04233 0.0
C1115 C 0.11455 0.64669 0.05582 0.0
C1116 C 0.08202 0.63039 0.06113 0.0
C1117 C 0.06078 0.60185 0.05303 0.0
H1118 H 0.25615 0.4187 0.05379 0.0
H1119 H 0.31232 0.47826 0.09876 0.0
H1120 H 0.30534 0.42646 0.03843 0.0
H1121 H 0.36138 0.4866 0.08322 0.0
H1122 H 0.44306 0.51683 0.03973 0.0
H1123 H 0.39223 0.51113 0.05069 0.0
H1124 H 0.34946 0.41139 0.04956 0.0
H1125 H 0.40057 0.41714 0.03896 0.0
C1126 C 0.27902 0.43366 0.06027 0.0
C1127 C 0.28045 0.44776 0.07751 0.0
C1128 C 0.30708 0.43804 0.05152 0.0
C1129 C 0.33714 0.45723 0.0596 0.0
C1130 C 0.33856 0.47191 0.0766 0.0
C1131 C 0.31052 0.46697 0.08554 0.0
C1132 C 0.42264 0.49373 0.04142 0.0
C1133 C 0.42559 0.4674 0.0382 0.0
C1134 C 0.39363 0.49047 0.04784 0.0
C1135 C 0.36691 0.46081 0.05097 0.0
C1136 C 0.36957 0.4345 0.04711 0.0
C1137 C 0.39877 0.43778 0.04109 0.0
H1138 H 0.5567 0.84592 0.11147 0.0
H1139 H 0.57992 0.82318 0.05749 0.0
H1140 H 0.54327 0.88198 0.09628 0.0
H1141 H 0.56484 0.85805 0.04242 0.0
H1142 H 0.49707 0.89677 0.02491 0.0
H1143 H 0.51114 0.86071 0.03958 0.0
H1144 H 0.57608 0.93334 0.07631 0.0
H1145 H 0.56319 0.96972 0.06134 0.0
C1146 C 0.55912 0.84865 0.09642 0.0
C1147 C 0.56937 0.83149 0.08575 0.0
C1148 C 0.55119 0.86913 0.08774 0.0
C1149 C 0.55285 0.87253 0.06821 0.0
C1150 C 0.56294 0.85544 0.05749 0.0
C1151 C 0.57143 0.83538 0.06617 0.0
C1152 C 0.51473 0.90524 0.03588 0.0
C1153 C 0.52927 0.93631 0.04171 0.0
C1154 C 0.52264 0.88454 0.04432 0.0
C1155 C 0.54464 0.89435 0.05905 0.0
C1156 C 0.55888 0.92521 0.06505 0.0
C1157 C 0.55149 0.94602 0.0564 0.0
H1158 H 0.94592 0.21285 0.42287 0.0
H1159 H 0.95892 0.14006 0.39916 0.0
H1160 H 0.99407 0.25149 0.40725 0.0
H1161 H 1.00541 0.17876 0.38187 0.0
H1162 H 0.10937 0.25828 0.37235 0.0
H1163 H 0.0586 0.21629 0.38435 0.0
H1164 H 0.0177 0.27621 0.37988 0.0
H1165 H 0.06922 0.31852 0.3692 0.0
C1166 C 0.95891 0.20494 0.41427 0.0
C1167 C 0.94836 0.17308 0.41254 0.0
C1168 C 0.98636 0.22727 0.40487 0.0
C1169 C 1.00386 0.21854 0.39302 0.0
C1170 C 0.993 0.18663 0.39099 0.0
C1171 C 0.96585 0.16427 0.40073 0.0
C1172 C 0.08927 0.26214 0.37366 0.0
C1173 C 0.09305 0.29153 0.36985 0.0
C1174 C 0.06002 0.23805 0.38052 0.0
C1175 C 0.03385 0.24277 0.38352 0.0
C1176 C 0.0374 0.27179 0.37847 0.0
C1177 C 0.0668 0.296 0.37208 0.0
H1178 H 0.84401 0.81401 0.43378 0.0
H1179 H 0.83704 0.75356 0.38877 0.0
H1180 H 0.80339 0.82254 0.41883 0.0
H1181 H 0.79573 0.76153 0.37402 0.0
H1182 H 0.69146 0.75251 0.37566 0.0
H1183 H 0.73646 0.74683 0.38644 0.0
H1184 H 0.79708 0.84654 0.38607 0.0
H1185 H 0.75225 0.85218 0.37488 0.0
C1186 C 0.83379 0.8026 0.42067 0.0
C1187 C 0.84357 0.78306 0.41245 0.0
C1188 C 0.81074 0.80763 0.41207 0.0
C1189 C 0.79648 0.79271 0.39528 0.0
C1190 C 0.80634 0.77327 0.38698 0.0
C1191 C 0.82997 0.76879 0.39537 0.0
C1192 C 0.71457 0.77314 0.37759 0.0
C1193 C 0.71856 0.80272 0.37411 0.0
C1194 C 0.74028 0.76991 0.3837 0.0
C1195 C 0.77023 0.79624 0.38705 0.0
C1196 C 0.77424 0.82587 0.38357 0.0
C1197 C 0.74868 0.82909 0.37706 0.0
H1198 H 0.28165 0.07204 0.41915 0.0
H1199 H 0.18257 0.04773 0.41611 0.0
H1200 H 0.26909 0.02381 0.40353 0.0
H1201 H 0.16947 0.99877 0.40123 0.0
H1202 H 0.16047 0.9271 0.35947 0.0
H1203 H 0.17446 0.97658 0.3735 0.0
H1204 H 0.2438 0.96984 0.40833 0.0
H1205 H 0.23136 0.92141 0.39333 0.0
C1206 C 0.25711 0.05614 0.41526 0.0
C1207 C 0.23305 0.06348 0.4188 0.0
C1208 C 0.24983 0.02843 0.40641 0.0
C1209 C 0.21821 0.00722 0.40114 0.0
C1210 C 0.19417 0.01472 0.40474 0.0
C1211 C 0.20157 0.04266 0.41335 0.0
C1212 C 0.17916 0.93643 0.36983 0.0
C1213 C 0.1952 0.92049 0.37497 0.0
C1214 C 0.18684 0.96466 0.37813 0.0
C1215 C 0.21033 0.97737 0.39207 0.0
C1216 C 0.22607 0.96117 0.39738 0.0
C1217 C 0.21872 0.93317 0.38887 0.0
H1218 H 0.5403 0.59413 0.28896 0.0
H1219 H 0.4643 0.61549 0.29346 0.0
H1220 H 0.57711 0.64337 0.30368 0.0
H1221 H 0.50124 0.66561 0.30711 0.0
H1222 H 0.56603 0.74163 0.34615 0.0
H1223 H 0.52967 0.69113 0.33324 0.0
H1224 H 0.60677 0.69656 0.29933 0.0
H1225 H 0.64367 0.74585 0.31355 0.0
C1226 C 0.53164 0.60962 0.29298 0.0
C1227 C 0.49954 0.60108 0.29017 0.0
C1228 C 0.55275 0.63799 0.30129 0.0
C1229 C 0.54238 0.65881 0.30662 0.0
C1230 C 0.51013 0.65011 0.30363 0.0
C1231 C 0.48891 0.62146 0.29568 0.0
C1232 C 0.57544 0.73177 0.33629 0.0
C1233 C 0.60802 0.74763 0.33128 0.0
C1234 C 0.55436 0.7029 0.32855 0.0
C1235 C 0.56506 0.68942 0.31516 0.0
C1236 C 0.5976 0.70564 0.3099 0.0
C1237 C 0.61882 0.73421 0.31795 0.0
H1238 H 0.39968 0.9283 0.27999 0.0
H1239 H 0.39072 0.84851 0.3099 0.0
H1240 H 0.35093 0.92058 0.29468 0.0
H1241 H 0.34283 0.84206 0.3257 0.0
H1242 H 0.23702 0.81912 0.33252 0.0
H1243 H 0.28797 0.82585 0.32112 0.0
H1244 H 0.32867 0.92558 0.32242 0.0
H1245 H 0.2774 0.91852 0.33302 0.0
C1246 C 0.38739 0.90908 0.28974 0.0
C1247 C 0.39926 0.88892 0.29354 0.0
C1248 C 0.35955 0.90496 0.29849 0.0
C1249 C 0.34277 0.88078 0.31158 0.0
C1250 C 0.3548 0.86077 0.3156 0.0
C1251 C 0.3826 0.86474 0.30668 0.0
C1252 C 0.25709 0.84242 0.33066 0.0
C1253 C 0.25338 0.86834 0.33376 0.0
C1254 C 0.28638 0.84636 0.32413 0.0
C1255 C 0.31256 0.87632 0.32051 0.0
C1256 C 0.30897 0.90214 0.32449 0.0
C1257 C 0.27968 0.89817 0.33077 0.0
H1258 H 0.15621 0.54216 0.29949 0.0
H1259 H 0.07474 0.46455 0.27364 0.0
H1260 H 0.16764 0.50658 0.31617 0.0
H1261 H 0.08889 0.42927 0.28826 0.0
H1262 H 0.10172 0.36745 0.32872 0.0
H1263 H 0.08827 0.40403 0.31466 0.0
H1264 H 0.18853 0.475 0.31507 0.0
H1265 H 0.20104 0.43891 0.33074 0.0
C1266 C 0.14068 0.51753 0.29725 0.0
C1267 C 0.11424 0.5065 0.28522 0.0
C1268 C 0.14776 0.49697 0.30658 0.0
C1269 C 0.12935 0.46472 0.30368 0.0
C1270 C 0.10335 0.45375 0.29132 0.0
C1271 C 0.09562 0.47424 0.28249 0.0
C1272 C 0.12072 0.391 0.32588 0.0
C1273 C 0.15237 0.40043 0.33071 0.0
C1274 C 0.11315 0.412 0.31762 0.0
C1275 C 0.13726 0.44269 0.31338 0.0
C1276 C 0.16903 0.45195 0.31835 0.0
C1277 C 0.17638 0.43118 0.3272 0.0
H1278 H 0.42226 0.49739 0.31611 0.0
H1279 H 0.36477 0.49565 0.26959 0.0
H1280 H 0.37382 0.45874 0.33272 0.0
H1281 H 0.31623 0.45756 0.28643 0.0
H1282 H 0.23668 0.41296 0.33237 0.0
H1283 H 0.28683 0.45627 0.32012 0.0
H1284 H 0.33039 0.39881 0.32255 0.0
H1285 H 0.27998 0.35526 0.33432 0.0
C1286 C 0.3992 0.48893 0.30956 0.0
C1287 C 0.39716 0.49936 0.29157 0.0
C1288 C 0.37161 0.46689 0.31903 0.0
C1289 C 0.34141 0.45544 0.31088 0.0
C1290 C 0.33927 0.46633 0.29307 0.0
C1291 C 0.36695 0.48785 0.2834 0.0
C1292 C 0.25719 0.40985 0.33074 0.0
C1293 C 0.25467 0.38093 0.33452 0.0
C1294 C 0.28574 0.43451 0.32358 0.0
C1295 C 0.31233 0.43074 0.32036 0.0
C1296 C 0.31026 0.40231 0.32501 0.0
C1297 C 0.28152 0.37747 0.33174 0.0
H1298 H 0.5092 0.91562 0.31698 0.0
H1299 H 0.50105 0.85374 0.27258 0.0
H1300 H 0.55049 0.9077 0.33179 0.0
H1301 H 0.54169 0.8453 0.28757 0.0
H1302 H 0.59447 0.81716 0.33099 0.0
H1303 H 0.54928 0.8223 0.31996 0.0
H1304 H 0.60919 0.9221 0.31948 0.0
H1305 H 0.65454 0.91691 0.33014 0.0
C1306 C 0.51594 0.90002 0.31055 0.0
C1307 C 0.50204 0.88536 0.29362 0.0
C1308 C 0.53959 0.89559 0.31897 0.0
C1309 C 0.54922 0.87586 0.31082 0.0
C1310 C 0.53455 0.86044 0.29421 0.0
C1311 C 0.51146 0.8654 0.2856 0.0
C1312 C 0.59781 0.84017 0.32882 0.0
C1313 C 0.62783 0.86669 0.33174 0.0
C1314 C 0.57204 0.8431 0.3224 0.0
C1315 C 0.57572 0.87261 0.31895 0.0
C1316 C 0.60559 0.89911 0.32222 0.0
C1317 C 0.63151 0.89615 0.32825 0.0
H1318 H 0.12582 0.63454 0.25934 0.0
H1319 H 0.10083 0.58742 0.31305 0.0
H1320 H 0.13763 0.68288 0.2746 0.0
H1321 H 0.11448 0.6363 0.32822 0.0
H1322 H 0.1829 0.74084 0.3456 0.0
H1323 H 0.16896 0.69156 0.33087 0.0
H1324 H 0.10293 0.70103 0.29475 0.0
H1325 H 0.11564 0.74964 0.30993 0.0
C1326 C 0.12265 0.63434 0.27434 0.0
C1327 C 0.11235 0.60693 0.28492 0.0
C1328 C 0.12962 0.66209 0.28305 0.0
C1329 C 0.12704 0.66317 0.30253 0.0
C1330 C 0.11696 0.63602 0.31317 0.0
C1331 C 0.10937 0.60811 0.30445 0.0
C1332 C 0.16494 0.73221 0.3348 0.0
C1333 C 0.15 0.74903 0.32923 0.0
C1334 C 0.15713 0.70408 0.32631 0.0
C1335 C 0.13486 0.69262 0.31175 0.0
C1336 C 0.12027 0.70953 0.30593 0.0
C1337 C 0.12755 0.73732 0.31468 0.0
H1338 H 0.85485 0.08522 0.38736 0.0
H1339 H 0.83643 0.04059 0.44174 0.0
H1340 H 0.81842 0.03516 0.37332 0.0
H1341 H 0.79844 0.99118 0.42765 0.0
H1342 H 0.70445 0.92305 0.39347 0.0
H1343 H 0.74227 0.97266 0.40762 0.0
H1344 H 0.8179 0.97859 0.37244 0.0
H1345 H 0.7808 0.92831 0.35896 0.0
C1346 C 0.84333 0.06488 0.39635 0.0
C1347 C 0.84877 0.06723 0.41578 0.0
C1348 C 0.82225 0.03628 0.38828 0.0
C1349 C 0.80559 0.00953 0.39946 0.0
C1350 C 0.81079 0.01165 0.41879 0.0
C1351 C 0.83242 0.04007 0.42684 0.0
C1352 C 0.72912 0.93481 0.38872 0.0
C1353 C 0.73936 0.92182 0.37476 0.0
C1354 C 0.75072 0.96318 0.39687 0.0
C1355 C 0.78281 0.97941 0.39097 0.0
C1356 C 0.79313 0.96663 0.37703 0.0
C1357 C 0.77175 0.93792 0.36922 0.0
H1358 H 0.92348 0.75456 0.38818 0.0
H1359 H 0.98052 0.8151 0.43258 0.0
H1360 H 0.97233 0.76266 0.37233 0.0
H1361 H 0.02933 0.82368 0.41656 0.0
H1362 H 0.11035 0.85245 0.37249 0.0
H1363 H 0.0601 0.84751 0.38411 0.0
H1364 H 0.01591 0.74763 0.38274 0.0
H1365 H 0.06631 0.7526 0.37153 0.0
C1366 C 0.94648 0.76985 0.39443 0.0
C1367 C 0.94821 0.78408 0.41166 0.0
C1368 C 0.97437 0.77442 0.38539 0.0
C1369 C 1.0046 0.79388 0.39319 0.0
C1370 C 0.00637 0.80878 0.41015 0.0
C1371 C 0.97846 0.80369 0.41939 0.0
C1372 C 0.08972 0.82949 0.37431 0.0
C1373 C 0.09205 0.80286 0.37088 0.0
C1374 C 0.06106 0.82666 0.38109 0.0
C1375 C 0.03412 0.79718 0.38433 0.0
C1376 C 0.03619 0.77063 0.38023 0.0
C1377 C 0.06499 0.77345 0.37385 0.0
H1378 H 0.18131 0.12845 0.41563 0.0
H1379 H 0.27857 0.20256 0.42283 0.0
H1380 H 0.16817 0.16457 0.40021 0.0
H1381 H 0.26608 0.23847 0.40678 0.0
H1382 H 0.22744 0.30241 0.39478 0.0
H1383 H 0.23873 0.26576 0.41041 0.0
H1384 H 0.17549 0.19372 0.37259 0.0
H1385 H 0.16251 0.23015 0.35765 0.0
C1386 C 0.19989 0.15248 0.41379 0.0
C1387 C 0.23088 0.16282 0.42052 0.0
C1388 C 0.19248 0.17316 0.40484 0.0
C1389 C 0.21603 0.20454 0.4022 0.0
C1390 C 0.2471 0.21469 0.40888 0.0
C1391 C 0.25436 0.19413 0.41805 0.0
C1392 C 0.21582 0.27878 0.38973 0.0
C1393 C 0.19424 0.2694 0.37476 0.0
C1394 C 0.22257 0.25772 0.39865 0.0
C1395 C 0.2083 0.22673 0.39271 0.0
C1396 C 0.18671 0.2173 0.37771 0.0
C1397 C 0.17958 0.23833 0.36893 0.0
H1398 H 0.61684 0.54266 0.76009 0.0
H1399 H 0.62612 0.46958 0.73357 0.0
H1400 H 0.66431 0.58123 0.74376 0.0
H1401 H 0.6722 0.50835 0.7159 0.0
H1402 H 0.77618 0.58862 0.705 0.0
H1403 H 0.72639 0.5463 0.71791 0.0
H1404 H 0.68397 0.605 0.71504 0.0
H1405 H 0.73439 0.64757 0.70319 0.0
C1406 C 0.62894 0.5347 0.75078 0.0
C1407 C 0.61744 0.50279 0.74832 0.0
C1408 C 0.65596 0.55696 0.74103 0.0
C1409 C 0.67209 0.54811 0.72819 0.0
C1410 C 0.66065 0.5162 0.7257 0.0
C1411 C 0.63384 0.49387 0.73571 0.0
C1412 C 0.75593 0.59214 0.70679 0.0
C1413 C 0.75901 0.62129 0.70312 0.0
C1414 C 0.7273 0.56787 0.71421 0.0
C1415 C 0.70114 0.57227 0.71798 0.0
C1416 C 0.70381 0.60094 0.71299 0.0
C1417 C 0.73254 0.62526 0.70595 0.0
H1418 H 0.50372 0.08628 0.72186 0.0
H1419 H 0.51089 0.14769 0.76631 0.0
H1420 H 0.46268 0.09426 0.70677 0.0
H1421 H 0.47048 0.15618 0.75106 0.0
H1422 H 0.41856 0.18483 0.70742 0.0
H1423 H 0.4635 0.17956 0.71877 0.0
H1424 H 0.4038 0.07975 0.71836 0.0
H1425 H 0.3587 0.08506 0.70737 0.0
C1426 C 0.49681 0.10177 0.72825 0.0
C1427 C 0.51039 0.11629 0.74528 0.0
C1428 C 0.4733 0.10624 0.71967 0.0
C1429 C 0.46346 0.12588 0.72774 0.0
C1430 C 0.47778 0.14112 0.74446 0.0
C1431 C 0.50073 0.13612 0.75323 0.0
C1432 C 0.41522 0.16179 0.70946 0.0
C1433 C 0.38531 0.1353 0.70621 0.0
C1434 C 0.44085 0.15879 0.71607 0.0
C1435 C 0.43716 0.12924 0.71938 0.0
C1436 C 0.40743 0.10278 0.71574 0.0
C1437 C 0.38164 0.10581 0.70952 0.0
H1438 H 0.89879 0.37182 0.77692 0.0
H1439 H 0.911 0.41436 0.72231 0.0
H1440 H 0.88451 0.32248 0.7622 0.0
H1441 H 0.8953 0.36453 0.70774 0.0
H1442 H 0.82817 0.25956 0.69303 0.0
H1443 H 0.84365 0.30966 0.70715 0.0
H1444 H 0.91355 0.30218 0.74079 0.0
H1445 H 0.89901 0.25265 0.72633 0.0
C1446 C 0.89868 0.3708 0.76181 0.0
C1447 C 0.90616 0.39721 0.75083 0.0
C1448 C 0.89031 0.34246 0.7534 0.0
C1449 C 0.88876 0.33978 0.73387 0.0
C1450 C 0.89598 0.36596 0.72285 0.0
C1451 C 0.90484 0.39444 0.73123 0.0
C1452 C 0.84722 0.26877 0.70317 0.0
C1453 C 0.86266 0.25222 0.70828 0.0
C1454 C 0.85595 0.2974 0.71131 0.0
C1455 C 0.8798 0.30972 0.72501 0.0
C1456 C 0.89495 0.29307 0.73032 0.0
C1457 C 0.88662 0.26472 0.72198 0.0
H1458 H 0.17572 0.96409 0.595 0.0
H1459 H 0.15727 0.91954 0.64941 0.0
H1460 H 0.2141 0.01344 0.60906 0.0
H1461 H 0.19403 0.96946 0.66339 0.0
H1462 H 0.23182 0.07574 0.67821 0.0
H1463 H 0.19454 0.02594 0.66429 0.0
H1464 H 0.2703 0.03181 0.62925 0.0
H1465 H 0.30829 0.08093 0.64385 0.0
C1466 C 0.17978 0.96462 0.6099 0.0
C1467 C 0.1632 0.93752 0.62099 0.0
C1468 C 0.20164 0.99299 0.61792 0.0
C1469 C 0.20686 0.99509 0.63726 0.0
C1470 C 0.19014 0.96837 0.64844 0.0
C1471 C 0.16885 0.93983 0.64039 0.0
C1472 C 0.24084 0.06622 0.66787 0.0
C1473 C 0.27332 0.08211 0.66254 0.0
C1474 C 0.21936 0.03781 0.6598 0.0
C1475 C 0.22968 0.02513 0.6458 0.0
C1476 C 0.26185 0.04123 0.64004 0.0
C1477 C 0.28355 0.0693 0.64845 0.0
H1478 H 0.05838 0.18206 0.64261 0.0
H1479 H 0.06469 0.26025 0.61211 0.0
H1480 H 0.01033 0.1749 0.65865 0.0
H1481 H 0.01592 0.25187 0.62708 0.0
H1482 H 0.94326 0.24979 0.66609 0.0
H1483 H 0.99452 0.25728 0.65516 0.0
H1484 H 0.9549 0.15768 0.65434 0.0
H1485 H 0.90391 0.15051 0.66602 0.0
C1486 C 0.04962 0.19775 0.6393 0.0
C1487 C 0.06558 0.2217 0.62593 0.0
C1488 C 0.02177 0.1934 0.64836 0.0
C1489 C 0.00906 0.21282 0.64429 0.0
C1490 C 0.0251 0.23672 0.63094 0.0
C1491 C 0.05295 0.24121 0.62202 0.0
C1492 C 0.94576 0.22956 0.66387 0.0
C1493 C 0.91974 0.19963 0.66706 0.0
C1494 C 0.97506 0.23377 0.65741 0.0
C1495 C 0.97893 0.2081 0.65346 0.0
C1496 C 0.95306 0.17807 0.6573 0.0
C1497 C 0.92376 0.17388 0.66401 0.0
H1498 H 0.73452 0.79843 0.61522 0.0
H1499 H 0.83197 0.87258 0.62162 0.0
H1500 H 0.74738 0.76266 0.63114 0.0
H1501 H 0.8455 0.83659 0.63685 0.0
H1502 H 0.85217 0.77179 0.67951 0.0
H1503 H 0.839 0.808 0.66448 0.0
H1504 H 0.77437 0.73512 0.62755 0.0
H1505 H 0.78577 0.69867 0.64335 0.0
C1506 C 0.75886 0.80689 0.61979 0.0
C1507 C 0.78228 0.83817 0.61716 0.0
C1508 C 0.76633 0.78641 0.62887 0.0
C1509 C 0.79756 0.79662 0.63528 0.0
C1510 C 0.82107 0.82796 0.63244 0.0
C1511 C 0.81344 0.84856 0.62359 0.0
C1512 C 0.83473 0.76337 0.66842 0.0
C1513 C 0.81968 0.73213 0.66291 0.0
C1514 C 0.8275 0.78428 0.65958 0.0
C1515 C 0.80547 0.77456 0.64479 0.0
C1516 C 0.79087 0.7434 0.63914 0.0
C1517 C 0.79769 0.72245 0.64815 0.0
H1518 H 0.06647 0.79208 0.61469 0.0
H1519 H 0.05322 0.8644 0.63891 0.0
H1520 H 0.01932 0.7532 0.63101 0.0
H1521 H 0.00766 0.82546 0.65679 0.0
H1522 H 0.90419 0.74453 0.66665 0.0
H1523 H 0.9544 0.78712 0.65454 0.0
H1524 H 0.99736 0.72899 0.65894 0.0
H1525 H 0.94639 0.68603 0.66982 0.0
C1526 C 0.05363 0.79982 0.62355 0.0
C1527 C 0.06378 0.8316 0.62523 0.0
C1528 C 0.02678 0.77738 0.63333 0.0
C1529 C 0.00952 0.78593 0.64549 0.0
C1530 C 0.01997 0.81777 0.64745 0.0
C1531 C 0.04654 0.84025 0.63736 0.0
C1532 C 0.92462 0.74119 0.66536 0.0
C1533 C 0.92155 0.71209 0.66918 0.0
C1534 C 0.95354 0.76564 0.65841 0.0
C1535 C 0.98007 0.76154 0.65532 0.0
C1536 C 0.97732 0.73288 0.66045 0.0
C1537 C 0.94825 0.70831 0.66694 0.0
H1538 H 0.13867 0.18353 0.64255 0.0
H1539 H 0.21233 0.2646 0.61363 0.0
H1540 H 0.17975 0.17684 0.65815 0.0
H1541 H 0.25293 0.25657 0.62793 0.0
H1542 H 0.32413 0.2523 0.66507 0.0
H1543 H 0.28061 0.26022 0.65491 0.0
H1544 H 0.21751 0.16065 0.6531 0.0
H1545 H 0.26099 0.1531 0.66417 0.0
C1546 C 0.16356 0.19998 0.63951 0.0
C1547 C 0.17197 0.22447 0.62662 0.0
C1548 C 0.18719 0.19588 0.64829 0.0
C1549 C 0.2199 0.21604 0.64435 0.0
C1550 C 0.22818 0.24074 0.63166 0.0
C1551 C 0.20468 0.24504 0.6231 0.0
C1552 C 0.30077 0.23218 0.66276 0.0
C1553 C 0.29581 0.20216 0.66565 0.0
C1554 C 0.27581 0.23663 0.65674 0.0
C1555 C 0.24539 0.21111 0.65284 0.0
C1556 C 0.24035 0.18095 0.65611 0.0
C1557 C 0.26529 0.17654 0.66244 0.0
H1558 H 0.83009 0.95326 0.6219 0.0
H1559 H 0.73076 0.92826 0.61944 0.0
H1560 H 0.84308 0.00221 0.63676 0.0
H1561 H 0.74323 0.97648 0.63504 0.0
H1562 H 0.78043 0.07888 0.64482 0.0
H1563 H 0.7681 0.03037 0.62997 0.0
H1564 H 0.83838 0.02465 0.66448 0.0
H1565 H 0.85224 0.07419 0.67834 0.0
C1566 C 0.81101 0.95816 0.6248 0.0
C1567 C 0.77949 0.93717 0.6195 0.0
C1568 C 0.81836 0.98611 0.63339 0.0
C1569 C 0.79422 0.99343 0.63711 0.0
C1570 C 0.76256 0.97201 0.63205 0.0
C1571 C 0.75533 0.9443 0.62321 0.0
C1572 C 0.79331 0.06732 0.64924 0.0
C1573 C 0.81704 0.0803 0.66301 0.0
C1574 C 0.78602 0.03928 0.64082 0.0
C1575 C 0.80204 0.02334 0.64609 0.0
C1576 C 0.82577 0.03636 0.65988 0.0
C1577 C 0.83338 0.06463 0.66809 0.0
H1578 H 0.47451 0.40746 0.75093 0.0
H1579 H 0.55002 0.38555 0.74562 0.0
H1580 H 0.43724 0.35842 0.73614 0.0
H1581 H 0.51264 0.33562 0.73191 0.0
H1582 H 0.44711 0.26022 0.69292 0.0
H1583 H 0.48377 0.31052 0.70586 0.0
H1584 H 0.40735 0.30512 0.74042 0.0
H1585 H 0.37004 0.25594 0.72614 0.0
C1586 C 0.48297 0.39191 0.74668 0.0
C1587 C 0.51505 0.4002 0.74929 0.0
C1588 C 0.4616 0.36365 0.73836 0.0
C1589 C 0.47169 0.34273 0.73281 0.0
C1590 C 0.50395 0.35122 0.73556 0.0
C1591 C 0.52543 0.37976 0.74353 0.0
C1592 C 0.43788 0.27004 0.70292 0.0
C1593 C 0.40537 0.25424 0.70808 0.0
C1594 C 0.45916 0.29879 0.71068 0.0
C1595 C 0.44875 0.31222 0.72426 0.0
C1596 C 0.41628 0.29606 0.7297 0.0
C1597 C 0.39484 0.26757 0.72162 0.0
H1598 H 0.62162 0.15286 0.72891 0.0
H1599 H 0.61283 0.07352 0.75928 0.0
H1600 H 0.66934 0.15899 0.71306 0.0
H1601 H 0.66143 0.08095 0.74454 0.0
H1602 H 0.73436 0.08219 0.70588 0.0
H1603 H 0.68337 0.07541 0.71681 0.0
H1604 H 0.72423 0.17519 0.71745 0.0
H1605 H 0.77489 0.18162 0.70575 0.0
C1606 C 0.62974 0.13666 0.73223 0.0
C1607 C 0.61316 0.1127 0.74551 0.0
C1608 C 0.65745 0.14046 0.72328 0.0
C1609 C 0.66948 0.12048 0.72741 0.0
C1610 C 0.65281 0.09654 0.74065 0.0
C1611 C 0.62505 0.09258 0.74943 0.0
C1612 C 0.73218 0.10261 0.70807 0.0
C1613 C 0.75843 0.13236 0.70478 0.0
C1614 C 0.70304 0.09881 0.71454 0.0
C1615 C 0.69956 0.12473 0.7184 0.0
C1616 C 0.72572 0.1546 0.71454 0.0
C1617 C 0.75485 0.15837 0.70783 0.0
H1618 H 0.91012 0.48644 0.72291 0.0
H1619 H 0.89328 0.51265 0.77753 0.0
H1620 H 0.89397 0.52086 0.70834 0.0
H1621 H 0.87841 0.54799 0.76281 0.0
H1622 H 0.89537 0.63443 0.72809 0.0
H1623 H 0.90823 0.59786 0.74283 0.0
H1624 H 0.84288 0.52555 0.70605 0.0
H1625 H 0.82912 0.56186 0.69152 0.0
C1626 C 0.90271 0.49926 0.73184 0.0
C1627 C 0.90299 0.49666 0.75144 0.0
C1628 C 0.89357 0.51905 0.72345 0.0
C1629 C 0.88499 0.53704 0.73446 0.0
C1630 C 0.88524 0.53456 0.75402 0.0
C1631 C 0.89394 0.51444 0.76242 0.0
C1632 C 0.88359 0.61076 0.7231 0.0
C1633 C 0.86143 0.60124 0.7084 0.0
C1634 C 0.89093 0.5898 0.73164 0.0
C1635 C 0.87658 0.55895 0.72556 0.0
C1636 C 0.8545 0.54933 0.71087 0.0
C1637 C 0.84675 0.57019 0.7025 0.0
H1638 H 0.44832 0.95024 0.23902 0.0
H1639 H 0.49454 0.8967 0.22728 0.0
H1640 H 0.46236 0.97299 0.20773 0.0
H1641 H 0.50988 0.92087 0.19636 0.0
H1642 H 0.56626 0.0059 0.15511 0.0
H1643 H 0.54763 0.97724 0.18471 0.0
H1644 H 0.45146 0.95665 0.17271 0.0
H1645 H 0.4701 0.98502 0.14286 0.0
C1646 C 0.46108 0.94291 0.22979 0.0
C1647 C 0.47029 0.92152 0.23594 0.0
C1648 C 0.46926 0.95616 0.21183 0.0
C1649 C 0.48734 0.94884 0.1996 0.0
C1650 C 0.49623 0.92724 0.20555 0.0
C1651 C 0.48758 0.91355 0.22338 0.0
C1652 C 0.5411 0.99506 0.15874 0.0
C1653 C 0.51964 0.99774 0.14669 0.0
C1654 C 0.53041 0.97852 0.17563 0.0
C1655 C 0.49809 0.96473 0.18106 0.0
C1656 C 0.47653 0.96716 0.16894 0.0
C1657 C 0.48714 0.98321 0.15183 0.0
H1658 H 0.02621 0.49193 0.24098 0.0
H1659 H 0.10447 0.57485 0.21665 0.0
H1660 H 0.99784 0.48006 0.21136 0.0
H1661 H 0.07745 0.56223 0.18655 0.0
H1662 H 0.00865 0.54922 0.14005 0.0
H1663 H 0.03616 0.56117 0.16998 0.0
H1664 H 0.99482 0.46271 0.1813 0.0
H1665 H 0.96577 0.45125 0.15191 0.0
C1666 C 0.03747 0.50731 0.22911 0.0
C1667 C 0.06736 0.53426 0.23098 0.0
C1668 C 0.02139 0.50047 0.21207 0.0
C1669 C 0.03521 0.52013 0.19639 0.0
C1670 C 0.06558 0.54685 0.19832 0.0
C1671 C 0.08128 0.55401 0.21549 0.0
C1672 C 1.00546 0.53029 0.14909 0.0
C1673 C 0.9851 0.49939 0.14387 0.0
C1674 C 0.02143 0.53703 0.16617 0.0
C1675 C 0.01795 0.51295 0.1782 0.0
C1676 C 0.99768 0.48195 0.17271 0.0
C1677 C 0.98116 0.47528 0.15583 0.0
H1678 H 0.51779 0.53622 0.2453 0.0
H1679 H 0.42807 0.51962 0.22252 0.0
H1680 H 0.53375 0.5268 0.21485 0.0
H1681 H 0.44449 0.51164 0.19162 0.0
H1682 H 0.47316 0.47313 0.14149 0.0
H1683 H 0.45461 0.47976 0.17206 0.0
H1684 H 0.55156 0.54953 0.18569 0.0
H1685 H 0.56993 0.54162 0.15561 0.0
C1686 C 0.50157 0.53073 0.23367 0.0
C1687 C 0.47177 0.52877 0.23624 0.0
C1688 C 0.51078 0.52557 0.21612 0.0
C1689 C 0.4907 0.51887 0.20053 0.0
C1690 C 0.46055 0.51639 0.20324 0.0
C1691 C 0.45111 0.52107 0.22093 0.0
C1692 C 0.49037 0.48991 0.15108 0.0
C1693 C 0.52301 0.50666 0.14626 0.0
C1694 C 0.47977 0.49385 0.16859 0.0
C1695 C 0.50155 0.51499 0.18159 0.0
C1696 C 0.5341 0.53236 0.17641 0.0
C1697 C 0.54469 0.52803 0.15907 0.0
H1698 H 0.92474 0.48207 0.81728 0.0
H1699 H 0.99686 0.46592 0.79275 0.0
H1700 H 0.95153 0.49221 0.84736 0.0
H1701 H 0.02469 0.4774 0.82257 0.0
H1702 H 0.04549 0.46356 0.88282 0.0
H1703 H 0.02045 0.45591 0.85234 0.0
H1704 H 0.9959 0.5265 0.865 0.0
H1705 H 0.01983 0.53299 0.89582 0.0
C1706 C 0.9467 0.48126 0.8183 0.0
C1707 C 0.95871 0.47312 0.80276 0.0
C1708 C 0.96219 0.48719 0.83552 0.0
C1709 C 0.99032 0.48555 0.83752 0.0
C1710 C 1.00274 0.47822 0.82174 0.0
C1711 C 0.98695 0.47183 0.8046 0.0
C1712 C 0.03486 0.47751 0.87899 0.0
C1713 C 0.03453 0.49882 0.89165 0.0
C1714 C 0.02063 0.47329 0.86147 0.0
C1715 C 0.00612 0.49062 0.85608 0.0
C1716 C 0.00627 0.5123 0.86873 0.0
C1717 C 0.0201 0.51616 0.88637 0.0
H1718 H 0.5202 0.4216 0.81419 0.0
H1719 H 0.5654 0.51967 0.80089 0.0
H1720 H 0.50316 0.43106 0.84434 0.0
H1721 H 0.54955 0.52907 0.83156 0.0
H1722 H 0.53936 0.53115 0.89716 0.0
H1723 H 0.55932 0.52284 0.86736 0.0
H1724 H 0.46378 0.45058 0.85369 0.0
H1725 H 0.44382 0.45918 0.88325 0.0
C1726 C 0.52651 0.44518 0.81761 0.0
C1727 C 0.54387 0.46979 0.80486 0.0
C1728 C 0.51688 0.45056 0.83497 0.0
C1729 C 0.52488 0.48075 0.84023 0.0
C1730 C 0.54322 0.50557 0.82789 0.0
C1731 C 0.55242 0.50014 0.81034 0.0
C1732 C 0.52271 0.51349 0.88776 0.0
C1733 C 0.49005 0.49585 0.89246 0.0
C1734 C 0.53408 0.50886 0.87072 0.0
C1735 C 0.51309 0.48603 0.85826 0.0
C1736 C 0.48051 0.46819 0.86308 0.0
C1737 C 0.46907 0.47323 0.87992 0.0
H1738 H 0.51799 0.10551 0.81175 0.0
H1739 H 0.56442 0.05209 0.80026 0.0
H1740 H 0.50295 0.08175 0.84278 0.0
H1741 H 0.55068 0.02975 0.83165 0.0
H1742 H 0.54344 0.01816 0.89644 0.0
H1743 H 0.56179 0.04633 0.86652 0.0
H1744 H 0.46551 0.02571 0.85484 0.0
H1745 H 0.44718 0.99727 0.88452 0.0
C1746 C 0.52506 0.08877 0.81572 0.0
C1747 C 0.54234 0.08073 0.8032 0.0
C1748 C 0.51657 0.07531 0.83362 0.0
C1749 C 0.52563 0.05388 0.83968 0.0
C1750 C 0.54367 0.04647 0.82748 0.0
C1751 C 0.55167 0.05948 0.80945 0.0
C1752 C 0.52632 0.01994 0.88753 0.0
C1753 C 0.49387 0.00544 0.89279 0.0
C1754 C 0.53676 0.03588 0.87038 0.0
C1755 C 0.51508 0.03822 0.85831 0.0
C1756 C 0.48283 0.0245 0.86386 0.0
C1757 C 0.47231 0.00808 0.88081 0.0
H1758 H 0.11312 0.28322 0.5712 0.0
H1759 H 0.16136 0.23153 0.55966 0.0
H1760 H 0.12713 0.30621 0.53994 0.0
H1761 H 0.17653 0.25578 0.52877 0.0
H1762 H 0.23254 0.34069 0.48782 0.0
H1763 H 0.21362 0.31181 0.51731 0.0
H1764 H 0.11752 0.2911 0.50495 0.0
H1765 H 0.1365 0.31981 0.47523 0.0
C1766 C 0.12631 0.27635 0.56201 0.0
C1767 C 0.13621 0.25552 0.56822 0.0
C1768 C 0.13446 0.28971 0.54407 0.0
C1769 C 0.15312 0.28299 0.53193 0.0
C1770 C 0.16249 0.26175 0.5379 0.0
C1771 C 0.15392 0.24799 0.55571 0.0
C1772 C 0.20735 0.32982 0.49136 0.0
C1773 C 0.18602 0.33258 0.47923 0.0
C1774 C 0.19647 0.31313 0.50818 0.0
C1775 C 0.16408 0.29919 0.51348 0.0
C1776 C 0.14265 0.30172 0.50129 0.0
C1777 C 0.15345 0.31796 0.48425 0.0
H1778 H 0.75426 0.91354 0.55555 0.0
H1779 H 0.70183 0.8158 0.57018 0.0
H1780 H 0.72489 0.90245 0.52639 0.0
H1781 H 0.67355 0.80476 0.54043 0.0
H1782 H 0.66214 0.8023 0.47441 0.0
H1783 H 0.68921 0.81066 0.50455 0.0
H1784 H 0.66482 0.88089 0.51798 0.0
H1785 H 0.63754 0.87234 0.48799 0.0
C1786 C 0.73636 0.88971 0.55266 0.0
C1787 C 0.73023 0.86562 0.56541 0.0
C1788 C 0.71968 0.8834 0.53589 0.0
C1789 C 0.69687 0.85281 0.53126 0.0
C1790 C 0.69116 0.82855 0.54368 0.0
C1791 C 0.7075 0.8349 0.56066 0.0
C1792 C 0.66248 0.81939 0.48388 0.0
C1793 C 0.6478 0.83669 0.47893 0.0
C1794 C 0.67776 0.82403 0.50111 0.0
C1795 C 0.67912 0.84647 0.5135 0.0
C1796 C 0.66423 0.86358 0.5086 0.0
C1797 C 0.64849 0.85856 0.49154 0.0
H1798 H 0.13336 0.82154 0.57714 0.0
H1799 H 0.13623 0.90307 0.55365 0.0
H1800 H 0.14865 0.81034 0.54665 0.0
H1801 H 0.15068 0.89137 0.523 0.0
H1802 H 0.13761 0.8294 0.46897 0.0
H1803 H 0.12186 0.84186 0.49871 0.0
H1804 H 0.20287 0.84417 0.52543 0.0
H1805 H 0.22012 0.83382 0.49564 0.0
C1806 C 0.13693 0.83682 0.56538 0.0
C1807 C 0.13366 0.86315 0.56768 0.0
C1808 C 0.14579 0.83052 0.54802 0.0
C1809 C 0.15083 0.85003 0.53255 0.0
C1810 C 0.1468 0.87594 0.53473 0.0
C1811 C 0.13867 0.88266 0.55221 0.0
C1812 C 0.15258 0.83319 0.48101 0.0
C1813 C 0.18021 0.83041 0.47971 0.0
C1814 C 0.14332 0.84009 0.49809 0.0
C1815 C 0.16103 0.84371 0.51432 0.0
C1816 C 0.18858 0.84107 0.51313 0.0
C1817 C 0.19828 0.83489 0.49602 0.0
H1818 H 0.65432 0.79362 0.12897 0.0
H1819 H 0.58455 0.81325 0.15336 0.0
H1820 H 0.68236 0.80478 0.15864 0.0
H1821 H 0.6115 0.82296 0.18345 0.0
H1822 H 0.68229 0.86416 0.23113 0.0
H1823 H 0.65663 0.85668 0.20077 0.0
H1824 H 0.67846 0.78412 0.18843 0.0
H1825 H 0.70533 0.79285 0.21837 0.0
C1826 C 0.6449 0.80012 0.14081 0.0
C1827 C 0.61729 0.80252 0.13896 0.0
C1828 C 0.6608 0.80632 0.15787 0.0
C1829 C 0.64914 0.81454 0.17361 0.0
C1830 C 0.62155 0.81718 0.17163 0.0
C1831 C 0.60596 0.81147 0.15444 0.0
C1832 C 0.6816 0.84671 0.22183 0.0
C1833 C 0.69589 0.82918 0.227 0.0
C1834 C 0.66674 0.84225 0.20447 0.0
C1835 C 0.6654 0.81978 0.19202 0.0
C1836 C 0.67958 0.80213 0.19738 0.0
C1837 C 0.69488 0.80697 0.21459 0.0
H1838 H 0.16063 0.79788 0.12655 0.0
H1839 H 0.2499 0.81398 0.14978 0.0
H1840 H 0.14459 0.8078 0.15685 0.0
H1841 H 0.23341 0.82247 0.18051 0.0
H1842 H 0.20614 0.86348 0.22971 0.0
H1843 H 0.2241 0.85554 0.19932 0.0
H1844 H 0.12664 0.78629 0.18629 0.0
H1845 H 0.10886 0.79553 0.21621 0.0
C1846 C 0.17669 0.80329 0.13826 0.0
C1847 C 0.20644 0.80508 0.13586 0.0
C1848 C 0.16744 0.80877 0.15571 0.0
C1849 C 0.18747 0.81565 0.17135 0.0
C1850 C 0.21745 0.81768 0.16883 0.0
C1851 C 0.22691 0.81269 0.15125 0.0
C1852 C 0.18868 0.84655 0.22029 0.0
C1853 C 0.15609 0.8303 0.22523 0.0
C1854 C 0.19894 0.84184 0.20289 0.0
C1855 C 0.17687 0.82039 0.19013 0.0
C1856 C 0.14433 0.80362 0.1954 0.0
C1857 C 0.13407 0.80872 0.21264 0.0
H1858 H 0.15885 0.3899 0.13264 0.0
H1859 H 0.26037 0.43568 0.14385 0.0
H1860 H 0.14765 0.36779 0.16408 0.0
H1861 H 0.24875 0.41169 0.17489 0.0
H1862 H 0.20619 0.32332 0.2159 0.0
H1863 H 0.22077 0.35248 0.18629 0.0
H1864 H 0.15746 0.38763 0.19948 0.0
H1865 H 0.14356 0.35905 0.22941 0.0
C1866 C 0.17887 0.3957 0.14175 0.0
C1867 C 0.21064 0.41479 0.13541 0.0
C1868 C 0.17233 0.38276 0.15981 0.0
C1869 C 0.1973 0.38796 0.17192 0.0
C1870 C 0.22901 0.40709 0.16578 0.0
C1871 C 0.2356 0.42062 0.14787 0.0
C1872 C 0.19575 0.33763 0.21255 0.0
C1873 C 0.17381 0.33901 0.22492 0.0
C1874 C 0.20414 0.35436 0.19566 0.0
C1875 C 0.19021 0.37227 0.19056 0.0
C1876 C 0.16849 0.37393 0.20303 0.0
C1877 C 0.16067 0.35775 0.22016 0.0
H1878 H 0.85116 0.62715 0.91154 0.0
H1879 H 0.75868 0.55849 0.89105 0.0
H1880 H 0.8656 0.65144 0.8808 0.0
H1881 H 0.77352 0.58186 0.85977 0.0
H1882 H 0.80018 0.65009 0.80981 0.0
H1883 H 0.78325 0.62359 0.84015 0.0
H1884 H 0.88079 0.64677 0.85103 0.0
H1885 H 0.89754 0.67446 0.82129 0.0
C1886 C 0.83404 0.61699 0.90033 0.0
C1887 C 0.80387 0.59078 0.90371 0.0
C1888 C 0.84238 0.63081 0.88257 0.0
C1889 C 0.82101 0.61853 0.86748 0.0
C1890 C 0.79061 0.59232 0.87095 0.0
C1891 C 0.78208 0.57878 0.88888 0.0
C1892 C 0.81784 0.64926 0.81872 0.0
C1893 C 0.85021 0.66458 0.81328 0.0
C1894 C 0.80818 0.63397 0.83612 0.0
C1895 C 0.83063 0.63323 0.84839 0.0
C1896 C 0.86282 0.64753 0.84241 0.0
C1897 C 0.87248 0.66323 0.82523 0.0
H1898 H 0.43712 0.23867 0.88406 0.0
H1899 H 0.35677 0.15921 0.91002 0.0
H1900 H 0.40886 0.22553 0.85411 0.0
H1901 H 0.32807 0.1466 0.88015 0.0
H1902 H 0.28226 0.1707 0.82732 0.0
H1903 H 0.30949 0.18147 0.85734 0.0
H1904 H 0.38528 0.17174 0.83222 0.0
H1905 H 0.35735 0.15883 0.80245 0.0
C1906 C 0.41335 0.21851 0.88331 0.0
C1907 C 0.39901 0.19988 0.89921 0.0
C1908 C 0.39732 0.21098 0.86625 0.0
C1909 C 0.3664 0.18514 0.86496 0.0
C1910 C 0.35188 0.16669 0.8809 0.0
C1911 C 0.36825 0.1738 0.89788 0.0
C1912 C 0.30438 0.17019 0.82817 0.0
C1913 C 0.31749 0.16387 0.81228 0.0
C1914 C 0.32001 0.17658 0.84536 0.0
C1915 C 0.3494 0.17748 0.84695 0.0
C1916 C 0.36272 0.17141 0.83122 0.0
C1917 C 0.34678 0.16431 0.81413 0.0
H1918 H 0.85008 0.20101 0.91136 0.0
H1919 H 0.76176 0.18668 0.88767 0.0
H1920 H 0.86604 0.19052 0.88119 0.0
H1921 H 0.77821 0.17766 0.85706 0.0
H1922 H 0.80547 0.13665 0.80785 0.0
H1923 H 0.78722 0.14432 0.83822 0.0
H1924 H 0.88473 0.21254 0.85191 0.0
H1925 H 0.90278 0.2036 0.822 0.0
C1926 C 0.8342 0.1958 0.89958 0.0
C1927 C 0.80478 0.19475 0.90179 0.0
C1928 C 0.84341 0.19002 0.88221 0.0
C1929 C 0.82368 0.1836 0.86647 0.0
C1930 C 0.79394 0.18214 0.86882 0.0
C1931 C 0.7845 0.18742 0.88633 0.0
C1932 C 0.82288 0.15329 0.81741 0.0
C1933 C 0.85555 0.16935 0.81266 0.0
C1934 C 0.81245 0.15783 0.8348 0.0
C1935 C 0.83445 0.17892 0.84773 0.0
C1936 C 0.86708 0.19548 0.84265 0.0
C1937 C 0.8775 0.19054 0.82543 0.0
H1938 H 0.25805 0.08766 0.48281 0.0
H1939 H 0.31065 0.18526 0.46783 0.0
H1940 H 0.28715 0.09905 0.51209 0.0
H1941 H 0.3386 0.1966 0.49769 0.0
H1942 H 0.34973 0.20019 0.56364 0.0
H1943 H 0.32258 0.19113 0.53348 0.0
H1944 H 0.34716 0.12077 0.52081 0.0
H1945 H 0.37454 0.13004 0.55081 0.0
C1946 C 0.27592 0.11152 0.48564 0.0
C1947 C 0.28216 0.13547 0.47277 0.0
C1948 C 0.29244 0.11801 0.5025 0.0
C1949 C 0.31517 0.14865 0.50706 0.0
C1950 C 0.32102 0.17277 0.4945 0.0
C1951 C 0.30486 0.16624 0.47746 0.0
C1952 C 0.34939 0.1829 0.55433 0.0
C1953 C 0.36419 0.1658 0.55949 0.0
C1954 C 0.33406 0.17786 0.5371 0.0
C1955 C 0.33276 0.15522 0.5249 0.0
C1956 C 0.34769 0.13824 0.53003 0.0
C1957 C 0.3635 0.14366 0.5471 0.0
H1958 H 0.92524 0.16848 0.479 0.0
H1959 H 0.82458 0.11593 0.46546 0.0
H1960 H 0.91148 0.18038 0.50957 0.0
H1961 H 0.81124 0.12623 0.49648 0.0
H1962 H 0.80702 0.12378 0.56265 0.0
H1963 H 0.82261 0.11251 0.53223 0.0
H1964 H 0.87878 0.21076 0.52028 0.0
H1965 H 0.86241 0.22199 0.55044 0.0
C1966 C 0.90025 0.15951 0.4824 0.0
C1967 C 0.8761 0.14109 0.46958 0.0
C1968 C 0.89244 0.16616 0.5 0.0
C1969 C 0.86033 0.15399 0.50536 0.0
C1970 C 0.83618 0.13552 0.49273 0.0
C1971 C 0.84394 0.12946 0.47499 0.0
C1972 C 0.8228 0.14289 0.55353 0.0
C1973 C 0.83349 0.17372 0.55879 0.0
C1974 C 0.8316 0.13648 0.53616 0.0
C1975 C 0.85188 0.1608 0.52399 0.0
C1976 C 0.86325 0.19165 0.52948 0.0
C1977 C 0.85382 0.19804 0.54663 0.0
H1978 H 0.90232 0.7219 0.46655 0.0
H1979 H 0.85306 0.77248 0.47863 0.0
H1980 H 0.88913 0.69897 0.49784 0.0
H1981 H 0.8386 0.74813 0.50951 0.0
H1982 H 0.7841 0.66209 0.55025 0.0
H1983 H 0.80225 0.69126 0.52079 0.0
H1984 H 0.89928 0.71493 0.53305 0.0
H1985 H 0.88109 0.68606 0.56278 0.0
C1986 C 0.88907 0.72855 0.47585 0.0
C1987 C 0.87869 0.74909 0.46978 0.0
C1988 C 0.88139 0.71521 0.49381 0.0
C1989 C 0.86267 0.72159 0.50611 0.0
C1990 C 0.85274 0.74246 0.50026 0.0
C1991 C 0.86088 0.75625 0.48245 0.0
C1992 C 0.80934 0.67374 0.54671 0.0
C1993 C 0.83117 0.67177 0.5588 0.0
C1994 C 0.81976 0.69056 0.5299 0.0
C1995 C 0.85219 0.70536 0.52458 0.0
C1996 C 0.87412 0.70364 0.53674 0.0
C1997 C 0.86377 0.68731 0.55378 0.0
loop_
_geom_bond_atom_site_label_1
_geom_bond_atom_site_label_2
_geom_bond_distance
_geom_bond_site_symmetry_2
_ccdc_geom_bond_type
H0 C3 0.931 . S
H1 C6 0.928 . S
H2 C8 0.930 . S
C3 H0 0.931 . S
C3 C4 1.413 . S
C3 C5 1.360 . S
C4 C3 1.413 . S
C4 C8 1.429 . S
C5 C3 1.360 . S
C5 C6 1.372 . S
C6 H1 0.928 . S
C6 C5 1.372 . S
C6 C7 1.404 . S
C7 C6 1.404 . S
C7 C8 1.391 . S
C8 H2 0.930 . S
C8 C4 1.429 . S
C8 C7 1.391 . S
H9 C12 0.931 . S
H10 C15 0.928 . S
H11 C17 0.930 . S
C12 H9 0.931 . S
C12 C13 1.413 . S
C12 C14 1.360 . S
C13 C12 1.413 . S
C13 C17 1.429 . S
C14 C12 1.360 . S
C14 C15 1.372 . S
C15 H10 0.928 . S
C15 C14 1.372 . S
C15 C16 1.404 . S
C16 C15 1.404 . S
C16 C17 1.391 . S
C17 H11 0.930 . S
C17 C13 1.429 . S
C17 C16 1.391 . S
H18 C21 0.931 . S
H19 C24 0.928 . S
H20 C26 0.930 . S
C21 H18 0.931 . S
C21 C22 1.413 . S
C21 C23 1.360 . S
C22 C21 1.413 . S
C22 C26 1.429 . S
C23 C21 1.360 . S
C23 C24 1.372 . S
C24 H19 0.928 . S
C24 C23 1.372 . S
C24 C25 1.404 . S
C25 C24 1.404 . S
C25 C26 1.391 . S
C26 H20 0.930 . S
C26 C22 1.429 . S
C26 C25 1.391 . S
H27 C30 0.931 . S
H28 C33 0.928 . S
H29 C35 0.930 . S
C30 H27 0.931 . S
C30 C31 1.413 . S
C30 C32 1.360 . S
C31 C30 1.413 . S
C31 C35 1.429 . S
C32 C30 1.360 . S
C32 C33 1.372 . S
C33 H28 0.928 . S
C33 C32 1.372 . S
C33 C34 1.404 . S
C34 C33 1.404 . S
C34 C35 1.391 . S
C35 H29 0.930 . S
C35 C31 1.429 . S
C35 C34 1.391 . S
H36 C39 0.931 . S
H37 C42 0.928 . S
H38 C44 0.930 . S
C39 H36 0.931 . S
C39 C40 1.413 . S
C39 C41 1.360 . S
C40 C39 1.413 . S
C40 C44 1.429 . S
C41 C39 1.360 . S
C41 C42 1.372 . S
C42 H37 0.928 . S
C42 C41 1.372 . S
C42 C43 1.404 . S
C43 C42 1.404 . S
C43 C44 1.391 . S
C44 H38 0.930 . S
C44 C40 1.429 . S
C44 C43 1.391 . S
H45 C48 0.931 . S
H46 C51 0.928 . S
H47 C53 0.930 . S
C48 H45 0.931 . S
C48 C49 1.413 . S
C48 C50 1.360 . S
C49 C48 1.413 . S
C49 C53 1.429 . S
C50 C48 1.360 . S
C50 C51 1.372 . S
C51 H46 0.928 . S
C51 C50 1.372 . S
C51 C52 1.404 . S
C52 C51 1.404 . S
C52 C53 1.391 . S
C53 H47 0.930 . S
C53 C49 1.429 . S
C53 C52 1.391 . S
H54 C57 0.931 . S
H55 C60 0.928 . S
H56 C62 0.930 . S
C57 H54 0.931 . S
C57 C58 1.413 . S
C57 C59 1.360 . S
C58 C57 1.413 . S
C58 C62 1.429 . S
C59 C57 1.360 . S
C59 C60 1.372 . S
C60 H55 0.928 . S
C60 C59 1.372 . S
C60 C61 1.404 . S
C61 C60 1.404 . S
C61 C62 1.391 . S
C62 H56 0.930 . S
C62 C58 1.429 . S
C62 C61 1.391 . S
H63 C66 0.931 . S
H64 C69 0.928 . S
H65 C71 0.930 . S
C66 H63 0.931 . S
C66 C67 1.413 . S
C66 C68 1.360 . S
C67 C66 1.413 . S
C67 C71 1.429 . S
C68 C66 1.360 . S
C68 C69 1.372 . S
C69 H64 0.928 . S
C69 C68 1.372 . S
C69 C70 1.404 . S
C70 C69 1.404 . S
C70 C71 1.391 . S
C71 H65 0.930 . S
C71 C67 1.429 . S
C71 C70 1.391 . S
H72 C75 0.931 . S
H73 C78 0.928 . S
H74 C80 0.930 . S
C75 H72 0.931 . S
C75 C76 1.413 . S
C75 C77 1.360 . S
C76 C75 1.413 . S
C76 C80 1.429 . S
C77 C75 1.360 . S
C77 C78 1.372 . S
C78 H73 0.928 . S
C78 C77 1.372 . S
C78 C79 1.404 . S
C79 C78 1.404 . S
C79 C80 1.391 . S
C80 H74 0.930 . S
C80 C76 1.429 . S
C80 C79 1.391 . S
H81 C84 0.931 . S
H82 C87 0.928 . S
H83 C89 0.930 . S
C84 H81 0.931 . S
C84 C85 1.413 . S
C84 C86 1.360 . S
C85 C84 1.413 . S
C85 C89 1.429 . S
C86 C84 1.360 . S
C86 C87 1.372 . S
C87 H82 0.928 . S
C87 C86 1.372 . S
C87 C88 1.404 . S
C88 C87 1.404 . S
C88 C89 1.391 . S
C89 H83 0.930 . S
C89 C85 1.429 . S
C89 C88 1.391 . S
H90 C93 0.931 . S
H91 C96 0.928 . S
H92 C98 0.930 . S
C93 H90 0.931 . S
C93 C94 1.413 . S
C93 C95 1.360 . S
C94 C93 1.413 . S
C94 C98 1.429 . S
C95 C93 1.360 . S
C95 C96 1.372 . S
C96 H91 0.928 . S
C96 C95 1.372 . S
C96 C97 1.404 . S
C97 C96 1.404 . S
C97 C98 1.391 . S
C98 H92 0.930 . S
C98 C94 1.429 . S
C98 C97 1.391 . S
H99 C102 0.931 . S
H100 C105 0.928 . S
H101 C107 0.930 . S
C102 H99 0.931 . S
C102 C103 1.413 . S
C102 C104 1.360 . S
C103 C102 1.413 . S
C103 C107 1.429 . S
C104 C102 1.360 . S
C104 C105 1.372 . S
C105 H100 0.928 . S
C105 C104 1.372 . S
C105 C106 1.404 . S
C106 C105 1.404 . S
C106 C107 1.391 . S
C107 H101 0.930 . S
C107 C103 1.429 . S
C107 C106 1.391 . S
H108 C111 0.931 . S
H109 C114 0.928 . S
H110 C116 0.930 . S
C111 H108 0.931 . S
C111 C112 1.413 . S
C111 C113 1.360 . S
C112 C111 1.413 . S
C112 C116 1.429 . S
C113 C111 1.360 . S
C113 C114 1.372 . S
C114 H109 0.928 . S
C114 C113 1.372 . S
C114 C115 1.404 . S
C115 C114 1.404 . S
C115 C116 1.391 . S
C116 H110 0.930 . S
C116 C112 1.429 . S
C116 C115 1.391 . S
H117 C120 0.931 . S
H118 C123 0.928 . S
H119 C125 0.930 . S
C120 H117 0.931 . S
C120 C121 1.413 . S
C120 C122 1.360 . S
C121 C120 1.413 . S
C121 C125 1.429 . S
C122 C120 1.360 . S
C122 C123 1.372 . S
C123 H118 0.928 . S
C123 C122 1.372 . S
C123 C124 1.404 . S
C124 C123 1.404 . S
C124 C125 1.391 . S
C125 H119 0.930 . S
C125 C121 1.429 . S
C125 C124 1.391 . S
H126 C129 0.931 . S
H127 C132 0.928 . S
H128 C134 0.930 . S
C129 H126 0.931 . S
C129 C130 1.413 . S
C129 C131 1.360 . S
C130 C129 1.413 . S
C130 C134 1.429 . S
C131 C129 1.360 . S
C131 C132 1.372 . S
C132 H127 0.928 . S
C132 C131 1.372 . S
C132 C133 1.404 . S
C133 C132 1.404 . S
C133 C134 1.391 . S
C134 H128 0.930 . S
C134 C130 1.429 . S
C134 C133 1.391 . S
H135 C138 0.931 . S
H136 C141 0.928 . S
H137 C143 0.930 . S
C138 H135 0.931 . S
C138 C139 1.413 . S
C138 C140 1.360 . S
C139 C138 1.413 . S
C139 C143 1.429 . S
C140 C138 1.360 . S
C140 C141 1.372 . S
C141 H136 0.928 . S
C141 C140 1.372 . S
C141 C142 1.404 . S
C142 C141 1.404 . S
C142 C143 1.391 . S
C143 H137 0.930 . S
C143 C139 1.429 . S
C143 C142 1.391 . S
H144 C147 0.931 . S
H145 C150 0.928 . S
H146 C152 0.930 . S
C147 H144 0.931 . S
C147 C148 1.413 . S
C147 C149 1.360 . S
C148 C147 1.413 . S
C148 C152 1.429 . S
C149 C147 1.360 . S
C149 C150 1.372 . S
C150 H145 0.928 . S
C150 C149 1.372 . S
C150 C151 1.404 . S
C151 C150 1.404 . S
C151 C152 1.391 . S
C152 H146 0.930 . S
C152 C148 1.429 . S
C152 C151 1.391 . S
H153 C156 0.931 . S
H154 C159 0.928 . S
H155 C161 0.930 . S
C156 H153 0.931 . S
C156 C157 1.413 . S
C156 C158 1.360 . S
C157 C156 1.413 . S
C157 C161 1.429 . S
C158 C156 1.360 . S
C158 C159 1.372 . S
C159 H154 0.928 . S
C159 C158 1.372 . S
C159 C160 1.404 . S
C160 C159 1.404 . S
C160 C161 1.391 . S
C161 H155 0.930 . S
C161 C157 1.429 . S
C161 C160 1.391 . S
Gd162 N193 2.661 . S
Gd162 N199 2.601 . S
Gd162 O206 2.545 . S
Gd162 O207 2.606 1_545 S
Gd162 O209 2.429 . S
Gd162 O210 2.545 1_545 S
Gd162 O211 2.412 . S
Gd162 O213 2.362 . S
Gd162 O214 2.324 1_545 S
Gd162 C221 2.828 . S
Gd163 N172 2.661 . S
Gd163 N176 2.601 . S
Gd163 O207 2.362 1_556 S
Gd163 O208 2.324 1_565 S
Gd163 O212 2.545 . S
Gd163 O213 2.606 1_566 S
Gd163 O215 2.432 1_556 S
Gd163 O216 2.545 1_565 S
Gd163 O217 2.412 . S
Gd163 C230 2.828 . S
C164 C167 1.417 . S
C164 C169 1.431 . S
C164 C170 1.412 . S
C165 C168 1.437 . S
C165 C169 1.317 . S
C165 H184 0.929 . S
C166 C167 1.426 . S
C166 C168 1.413 . S
C166 N176 1.359 . S
C167 C164 1.417 . S
C167 C166 1.426 . S
C167 N172 1.350 . S
C168 C165 1.437 . S
C168 C166 1.413 . S
C168 C178 1.391 . S
C169 C164 1.431 . S
C169 C165 1.317 . S
C169 H180 0.930 . S
C170 C164 1.412 . S
C170 C171 1.355 . S
C170 H182 0.930 . S
C171 C170 1.355 . S
C171 C173 1.402 . S
C171 H183 0.930 . S
N172 Gd163 2.661 . S
N172 C167 1.350 . S
N172 C173 1.307 . S
C173 C171 1.402 . S
C173 N172 1.307 . S
C173 H174 0.930 . S
H174 C173 0.930 . S
C175 N176 1.334 . S
C175 C177 1.394 . S
C175 H179 0.930 . S
N176 Gd163 2.601 . S
N176 C166 1.359 . S
N176 C175 1.334 . S
C177 C175 1.394 . S
C177 C178 1.359 . S
C177 H189 0.930 . S
C178 C168 1.391 . S
C178 C177 1.359 . S
C178 H190 0.929 . S
H179 C175 0.930 . S
H180 C169 0.930 . S
H181 C198 0.930 . S
H182 C170 0.930 . S
H183 C171 0.930 . S
H184 C165 0.929 . S
H185 C203 0.930 . S
H186 C194 0.930 . S
H187 C195 0.930 . S
H188 C219 0.929 . S
H189 C177 0.930 . S
H190 C178 0.929 . S
H191 C220 0.930 . S
H192 C201 0.930 . S
N193 Gd162 2.661 . S
N193 C197 1.350 . S
N193 C198 1.307 . S
C194 H186 0.930 . S
C194 C195 1.355 . S
C194 C196 1.412 . S
C195 H187 0.930 . S
C195 C194 1.355 . S
C195 C198 1.402 . S
C196 C194 1.412 . S
C196 C197 1.417 . S
C196 C220 1.431 . S
C197 N193 1.350 . S
C197 C196 1.417 . S
C197 C200 1.426 . S
C198 H181 0.930 . S
C198 N193 1.307 . S
C198 C195 1.402 . S
N199 Gd162 2.601 . S
N199 C200 1.359 . S
N199 C203 1.334 . S
C200 C197 1.426 . S
C200 N199 1.359 . S
C200 C204 1.413 . S
C201 H192 0.930 . S
C201 C202 1.359 . S
C201 C203 1.394 . S
C202 C201 1.359 . S
C202 C204 1.391 . S
C202 H205 0.929 . S
C203 H185 0.930 . S
C203 N199 1.334 . S
C203 C201 1.394 . S
C204 C200 1.413 . S
C204 C202 1.391 . S
C204 C219 1.437 . S
H205 C202 0.929 . S
O206 Gd162 2.545 . S
O206 C221 1.258 . S
O207 Gd162 2.606 1_565 S
O207 Gd163 2.362 1_554 S
O207 C218 1.284 . S
O208 Gd163 2.324 1_545 S
O208 C228 1.254 . S
O209 Gd162 2.429 . S
O209 C228 1.268 1_554 S
O210 Gd162 2.545 1_565 S
O210 C218 1.250 . S
O211 Gd162 2.412 . S
O211 C221 1.252 . S
O212 Gd163 2.545 . S
O212 C230 1.258 . S
O213 Gd162 2.362 . S
O213 Gd163 2.606 1_544 S
O213 C229 1.284 1_554 S
O214 Gd162 2.324 1_565 S
O214 C237 1.254 . S
O215 Gd163 2.432 1_554 S
O215 C237 1.263 . S
O216 Gd163 2.545 1_545 S
O216 C229 1.250 . S
O217 Gd163 2.412 . S
O217 C230 1.252 . S
C218 O207 1.284 . S
C218 O210 1.250 . S
C219 H188 0.929 . S
C219 C204 1.437 . S
C219 C220 1.317 . S
C220 H191 0.930 . S
C220 C196 1.431 . S
C220 C219 1.317 . S
C221 Gd162 2.828 . S
C221 O206 1.258 . S
C221 O211 1.252 . S
C221 C222 1.497 . S
C222 C221 1.497 . S
C222 C223 1.395 . S
C222 C224 1.380 1_545 S
C223 C222 1.395 . S
C223 C226 1.398 . S
C223 H238 0.930 . S
C224 C222 1.380 1_565 S
C224 C225 1.391 . S
C224 H239 0.930 . S
C225 C224 1.391 . S
C225 C227 1.387 1_565 S
C226 C223 1.398 . S
C226 C227 1.380 . S
C226 H240 0.930 . S
C227 C225 1.387 1_545 S
C227 C226 1.380 . S
C227 H241 0.930 . S
C228 O208 1.254 . S
C228 O209 1.268 1_556 S
C229 O213 1.284 1_556 S
C229 O216 1.250 . S
C230 Gd163 2.828 . S
C230 O212 1.258 . S
C230 O217 1.252 . S
C230 C231 1.497 . S
C231 C230 1.497 . S
C231 C232 1.395 . S
C231 C233 1.380 1_565 S
C232 C231 1.395 . S
C232 C235 1.398 . S
C232 H242 0.930 . S
C233 C231 1.380 1_545 S
C233 C234 1.391 . S
C233 H243 0.930 . S
C234 C233 1.391 . S
C234 C236 1.387 1_545 S
C235 C232 1.398 . S
C235 C236 1.380 . S
C235 H244 0.930 . S
C236 C234 1.387 1_565 S
C236 C235 1.380 . S
C236 H245 0.930 . S
C237 O214 1.254 . S
C237 O215 1.263 . S
H238 C223 0.930 . S
H239 C224 0.930 . S
H240 C226 0.930 . S
H241 C227 0.930 . S
H242 C232 0.930 . S
H243 C233 0.930 . S
H244 C235 0.930 . S
H245 C236 0.930 . S
Gd246 N277 2.661 . S
Gd246 N283 2.601 . S
Gd246 O290 2.545 . S
Gd246 O291 2.606 1_655 S
Gd246 O293 2.429 . S
Gd246 O294 2.545 1_655 S
Gd246 O295 2.412 . S
Gd246 O297 2.418 . S
Gd246 O298 2.324 1_655 S
Gd246 C305 2.828 . S
Gd247 N256 2.661 . S
Gd247 N260 2.601 . S
Gd247 O291 2.362 1_556 S
Gd247 O292 2.324 1_455 S
Gd247 O296 2.545 . S
Gd247 O297 2.574 1_456 S
Gd247 O299 2.429 1_556 S
Gd247 O300 2.545 1_455 S
Gd247 O301 2.412 . S
Gd247 C314 2.828 . S
C248 C251 1.417 . S
C248 C253 1.431 . S
C248 C254 1.412 . S
C249 C252 1.437 . S
C249 C253 1.317 . S
C249 H268 0.929 . S
C250 C251 1.426 . S
C250 C252 1.413 . S
C250 N260 1.359 . S
C251 C248 1.417 . S
C251 C250 1.426 . S
C251 N256 1.350 . S
C252 C249 1.437 . S
C252 C250 1.413 . S
C252 C262 1.391 . S
C253 C248 1.431 . S
C253 C249 1.317 . S
C253 H264 0.930 . S
C254 C248 1.412 . S
C254 C255 1.355 . S
C254 H266 0.930 . S
C255 C254 1.355 . S
C255 C257 1.402 . S
C255 H267 0.930 . S
N256 Gd247 2.661 . S
N256 C251 1.350 . S
N256 C257 1.307 . S
C257 C255 1.402 . S
C257 N256 1.307 . S
C257 H258 0.930 . S
H258 C257 0.930 . S
C259 N260 1.334 . S
C259 C261 1.394 . S
C259 H263 0.930 . S
N260 Gd247 2.601 . S
N260 C250 1.359 . S
N260 C259 1.334 . S
C261 C259 1.394 . S
C261 C262 1.359 . S
C261 H273 0.930 . S
C262 C252 1.391 . S
C262 C261 1.359 . S
C262 H274 0.929 . S
H263 C259 0.930 . S
H264 C253 0.930 . S
H265 C282 0.930 . S
H266 C254 0.930 . S
H267 C255 0.930 . S
H268 C249 0.929 . S
H269 C287 0.930 . S
H270 C278 0.930 . S
H271 C279 0.930 . S
H272 C303 0.929 . S
H273 C261 0.930 . S
H274 C262 0.929 . S
H275 C304 0.930 . S
H276 C285 0.930 . S
N277 Gd246 2.661 . S
N277 C281 1.350 . S
N277 C282 1.307 . S
C278 H270 0.930 . S
C278 C279 1.355 . S
C278 C280 1.412 . S
C279 H271 0.930 . S
C279 C278 1.355 . S
C279 C282 1.402 . S
C280 C278 1.412 . S
C280 C281 1.417 . S
C280 C304 1.431 . S
C281 N277 1.350 . S
C281 C280 1.417 . S
C281 C284 1.426 . S
C282 H265 0.930 . S
C282 N277 1.307 . S
C282 C279 1.402 . S
N283 Gd246 2.601 . S
N283 C284 1.359 . S
N283 C287 1.334 . S
C284 C281 1.426 . S
C284 N283 1.359 . S
C284 C288 1.413 . S
C285 H276 0.930 . S
C285 C286 1.359 . S
C285 C287 1.394 . S
C286 C285 1.359 . S
C286 C288 1.391 . S
C286 H289 0.929 . S
C287 H269 0.930 . S
C287 N283 1.334 . S
C287 C285 1.394 . S
C288 C284 1.413 . S
C288 C286 1.391 . S
C288 C303 1.437 . S
H289 C286 0.929 . S
O290 Gd246 2.545 . S
O290 C305 1.258 . S
O291 Gd246 2.606 1_455 S
O291 Gd247 2.362 1_554 S
O291 C302 1.284 . S
O292 Gd247 2.324 1_655 S
O292 C312 1.254 . S
O293 Gd246 2.429 . S
O293 C312 1.268 1_554 S
O294 Gd246 2.545 1_455 S
O294 C302 1.250 . S
O295 Gd246 2.412 . S
O295 C305 1.252 . S
O296 Gd247 2.545 . S
O296 C314 1.258 . S
O297 Gd246 2.418 . S
O297 Gd247 2.574 1_654 S
O297 C313 1.239 1_554 S
O298 Gd246 2.324 1_455 S
O298 C321 1.254 . S
O299 Gd247 2.429 1_554 S
O299 C321 1.268 . S
O300 Gd247 2.545 1_655 S
O300 C313 1.250 . S
O301 Gd247 2.412 . S
O301 C314 1.252 . S
C302 O291 1.284 . S
C302 O294 1.250 . S
C303 H272 0.929 . S
C303 C288 1.437 . S
C303 C304 1.317 . S
C304 H275 0.930 . S
C304 C280 1.431 . S
C304 C303 1.317 . S
C305 Gd246 2.828 . S
C305 O290 1.258 . S
C305 O295 1.252 . S
C305 C306 1.497 . S
C306 C305 1.497 . S
C306 C307 1.395 . S
C306 C308 1.380 1_655 S
C307 C306 1.395 . S
C307 C310 1.398 . S
C307 H322 0.930 . S
C308 C306 1.380 1_455 S
C308 C309 1.391 . S
C308 H323 0.930 . S
C309 C308 1.391 . S
C309 C311 1.387 1_455 S
C310 C307 1.398 . S
C310 C311 1.380 . S
C310 H324 0.930 . S
C311 C309 1.387 1_655 S
C311 C310 1.380 . S
C311 H325 0.930 . S
C312 O292 1.254 . S
C312 O293 1.268 1_556 S
C313 O297 1.239 1_556 S
C313 O300 1.250 . S
C314 Gd247 2.828 . S
C314 O296 1.258 . S
C314 O301 1.252 . S
C314 C315 1.497 . S
C315 C314 1.497 . S
C315 C316 1.395 . S
C315 C317 1.380 1_455 S
C316 C315 1.395 . S
C316 C319 1.398 . S
C316 H326 0.930 . S
C317 C315 1.380 1_655 S
C317 C318 1.391 . S
C317 H327 0.930 . S
C318 C317 1.391 . S
C318 C320 1.387 1_655 S
C319 C316 1.398 . S
C319 C320 1.380 . S
C319 H328 0.930 . S
C320 C318 1.387 1_455 S
C320 C319 1.380 . S
C320 H329 0.930 . S
C321 O298 1.254 . S
C321 O299 1.268 . S
H322 C307 0.930 . S
H323 C308 0.930 . S
H324 C310 0.930 . S
H325 C311 0.930 . S
H326 C316 0.930 . S
H327 C317 0.930 . S
H328 C319 0.930 . S
H329 C320 0.930 . S
Gd330 N361 2.661 . S
Gd330 N367 2.601 . S
Gd330 O374 2.545 . S
Gd330 O375 2.593 1_556 S
Gd330 O377 2.432 1_556 S
Gd330 O378 2.545 . S
Gd330 O379 2.412 . S
Gd330 O381 2.362 1_556 S
Gd330 O382 2.324 . S
Gd330 C389 2.828 . S
Gd331 N340 2.661 . S
Gd331 N344 2.601 . S
Gd331 O375 2.385 . S
Gd331 O376 2.324 . S
Gd331 O380 2.545 . S
Gd331 O381 2.606 . S
Gd331 O383 2.429 . S
Gd331 O384 2.545 . S
Gd331 O385 2.412 . S
Gd331 C398 2.828 . S
C332 C335 1.417 . S
C332 C337 1.431 . S
C332 C338 1.412 . S
C333 C336 1.437 . S
C333 C337 1.317 . S
C333 H352 0.929 . S
C334 C335 1.426 . S
C334 C336 1.413 . S
C334 N344 1.359 . S
C335 C332 1.417 . S
C335 C334 1.426 . S
C335 N340 1.350 . S
C336 C333 1.437 . S
C336 C334 1.413 . S
C336 C346 1.391 . S
C337 C332 1.431 . S
C337 C333 1.317 . S
C337 H348 0.930 . S
C338 C332 1.412 . S
C338 C339 1.355 . S
C338 H350 0.930 . S
C339 C338 1.355 . S
C339 C341 1.402 . S
C339 H351 0.930 . S
N340 Gd331 2.661 . S
N340 C335 1.350 . S
N340 C341 1.307 . S
C341 C339 1.402 . S
C341 N340 1.307 . S
C341 H342 0.930 . S
H342 C341 0.930 . S
C343 N344 1.334 . S
C343 C345 1.394 . S
C343 H347 0.930 . S
N344 Gd331 2.601 . S
N344 C334 1.359 . S
N344 C343 1.334 . S
C345 C343 1.394 . S
C345 C346 1.359 . S
C345 H357 0.930 . S
C346 C336 1.391 . S
C346 C345 1.359 . S
C346 H358 0.929 . S
H347 C343 0.930 . S
H348 C337 0.930 . S
H349 C366 0.930 . S
H350 C338 0.930 . S
H351 C339 0.930 . S
H352 C333 0.929 . S
H353 C371 0.930 . S
H354 C362 0.930 . S
H355 C363 0.930 . S
H356 C387 0.929 . S
H357 C345 0.930 . S
H358 C346 0.929 . S
H359 C388 0.930 . S
H360 C369 0.930 . S
N361 Gd330 2.661 . S
N361 C365 1.350 . S
N361 C366 1.307 . S
C362 H354 0.930 . S
C362 C363 1.355 . S
C362 C364 1.412 . S
C363 H355 0.930 . S
C363 C362 1.355 . S
C363 C366 1.402 . S
C364 C362 1.412 . S
C364 C365 1.417 . S
C364 C388 1.431 . S
C365 N361 1.350 . S
C365 C364 1.417 . S
C365 C368 1.426 . S
C366 H349 0.930 . S
C366 N361 1.307 . S
C366 C363 1.402 . S
N367 Gd330 2.601 . S
N367 C368 1.359 . S
N367 C371 1.334 . S
C368 C365 1.426 . S
C368 N367 1.359 . S
C368 C372 1.413 . S
C369 H360 0.930 . S
C369 C370 1.359 . S
C369 C371 1.394 . S
C370 C369 1.359 . S
C370 C372 1.391 . S
C370 H373 0.929 . S
C371 H353 0.930 . S
C371 N367 1.334 . S
C371 C369 1.394 . S
C372 C368 1.413 . S
C372 C370 1.391 . S
C372 C387 1.437 . S
H373 C370 0.929 . S
O374 Gd330 2.545 . S
O374 C389 1.258 . S
O375 Gd330 2.593 1_554 S
O375 Gd331 2.385 . S
O375 C386 1.266 1_554 S
O376 Gd331 2.324 . S
O376 C396 1.254 . S
O377 Gd330 2.432 1_554 S
O377 C396 1.263 . S
O378 Gd330 2.545 . S
O378 C386 1.250 . S
O379 Gd330 2.412 . S
O379 C389 1.252 . S
O380 Gd331 2.545 . S
O380 C398 1.258 . S
O381 Gd330 2.362 1_554 S
O381 Gd331 2.606 . S
O381 C397 1.284 . S
O382 Gd330 2.324 . S
O382 C405 1.254 . S
O383 Gd331 2.429 . S
O383 C405 1.268 1_554 S
O384 Gd331 2.545 . S
O384 C397 1.250 . S
O385 Gd331 2.412 . S
O385 C398 1.252 . S
C386 O375 1.266 1_556 S
C386 O378 1.250 . S
C387 H356 0.929 . S
C387 C372 1.437 . S
C387 C388 1.317 . S
C388 H359 0.930 . S
C388 C364 1.431 . S
C388 C387 1.317 . S
C389 Gd330 2.828 . S
C389 O374 1.258 . S
C389 O379 1.252 . S
C389 C390 1.497 . S
C390 C389 1.497 . S
C390 C391 1.395 . S
C390 C392 1.380 . S
C391 C390 1.395 . S
C391 C394 1.398 . S
C391 H406 0.930 . S
C392 C390 1.380 . S
C392 C393 1.391 . S
C392 H407 0.930 . S
C393 C392 1.391 . S
C393 C395 1.387 . S
C394 C391 1.398 . S
C394 C395 1.380 . S
C394 H408 0.930 . S
C395 C393 1.387 . S
C395 C394 1.380 . S
C395 H409 0.930 . S
C396 O376 1.254 . S
C396 O377 1.263 . S
C397 O381 1.284 . S
C397 O384 1.250 . S
C398 Gd331 2.828 . S
C398 O380 1.258 . S
C398 O385 1.252 . S
C398 C399 1.497 . S
C399 C398 1.497 . S
C399 C400 1.395 . S
C399 C401 1.380 . S
C400 C399 1.395 . S
C400 C403 1.398 . S
C400 H410 0.930 . S
C401 C399 1.380 . S
C401 C402 1.391 . S
C401 H411 0.930 . S
C402 C401 1.391 . S
C402 C404 1.387 . S
C403 C400 1.398 . S
C403 C404 1.380 . S
C403 H412 0.930 . S
C404 C402 1.387 . S
C404 C403 1.380 . S
C404 H413 0.930 . S
C405 O382 1.254 . S
C405 O383 1.268 1_556 S
H406 C391 0.930 . S
H407 C392 0.930 . S
H408 C394 0.930 . S
H409 C395 0.930 . S
H410 C400 0.930 . S
H411 C401 0.930 . S
H412 C403 0.930 . S
H413 C404 0.930 . S
Gd414 N445 2.661 . S
Gd414 N451 2.601 . S
Gd414 O458 2.545 . S
Gd414 O459 2.606 . S
Gd414 O461 2.429 . S
Gd414 O462 2.545 . S
Gd414 O463 2.412 . S
Gd414 O465 2.362 . S
Gd414 O466 2.324 . S
Gd414 C473 2.828 . S
Gd415 N424 2.661 . S
Gd415 N428 2.601 . S
Gd415 O459 2.362 . S
Gd415 O460 2.324 . S
Gd415 O464 2.545 . S
Gd415 O465 2.606 . S
Gd415 O467 2.429 . S
Gd415 O468 2.545 . S
Gd415 O469 2.412 . S
Gd415 C482 2.828 . S
C416 C419 1.417 . S
C416 C421 1.431 . S
C416 C422 1.412 . S
C417 C420 1.437 . S
C417 C421 1.317 . S
C417 H436 0.929 . S
C418 C419 1.426 . S
C418 C420 1.413 . S
C418 N428 1.359 . S
C419 C416 1.417 . S
C419 C418 1.426 . S
C419 N424 1.350 . S
C420 C417 1.437 . S
C420 C418 1.413 . S
C420 C430 1.391 . S
C421 C416 1.431 . S
C421 C417 1.317 . S
C421 H432 0.930 . S
C422 C416 1.412 . S
C422 C423 1.355 . S
C422 H434 0.930 . S
C423 C422 1.355 . S
C423 C425 1.402 . S
C423 H435 0.930 . S
N424 Gd415 2.661 . S
N424 C419 1.350 . S
N424 C425 1.307 . S
C425 C423 1.402 . S
C425 N424 1.307 . S
C425 H426 0.930 . S
H426 C425 0.930 . S
C427 N428 1.334 . S
C427 C429 1.394 . S
C427 H431 0.930 . S
N428 Gd415 2.601 . S
N428 C418 1.359 . S
N428 C427 1.334 . S
C429 C427 1.394 . S
C429 C430 1.359 . S
C429 H441 0.930 . S
C430 C420 1.391 . S
C430 C429 1.359 . S
C430 H442 0.929 . S
H431 C427 0.930 . S
H432 C421 0.930 . S
H433 C450 0.930 . S
H434 C422 0.930 . S
H435 C423 0.930 . S
H436 C417 0.929 . S
H437 C455 0.930 . S
H438 C446 0.930 . S
H439 C447 0.930 . S
H440 C471 0.929 . S
H441 C429 0.930 . S
H442 C430 0.929 . S
H443 C472 0.930 . S
H444 C453 0.930 . S
N445 Gd414 2.661 . S
N445 C449 1.350 . S
N445 C450 1.307 . S
C446 H438 0.930 . S
C446 C447 1.355 . S
C446 C448 1.412 . S
C447 H439 0.930 . S
C447 C446 1.355 . S
C447 C450 1.402 . S
C448 C446 1.412 . S
C448 C449 1.417 . S
C448 C472 1.431 . S
C449 N445 1.350 . S
C449 C448 1.417 . S
C449 C452 1.426 . S
C450 H433 0.930 . S
C450 N445 1.307 . S
C450 C447 1.402 . S
N451 Gd414 2.601 . S
N451 C452 1.359 . S
N451 C455 1.334 . S
C452 C449 1.426 . S
C452 N451 1.359 . S
C452 C456 1.413 . S
C453 H444 0.930 . S
C453 C454 1.359 . S
C453 C455 1.394 . S
C454 C453 1.359 . S
C454 C456 1.391 . S
C454 H457 0.929 . S
C455 H437 0.930 . S
C455 N451 1.334 . S
C455 C453 1.394 . S
C456 C452 1.413 . S
C456 C454 1.391 . S
C456 C471 1.437 . S
H457 C454 0.929 . S
O458 Gd414 2.545 . S
O458 C473 1.258 . S
O459 Gd414 2.606 . S
O459 Gd415 2.362 . S
O459 C470 1.284 . S
O460 Gd415 2.324 . S
O460 C480 1.254 . S
O461 Gd414 2.429 . S
O461 C480 1.268 . S
O462 Gd414 2.545 . S
O462 C470 1.250 . S
O463 Gd414 2.412 . S
O463 C473 1.252 . S
O464 Gd415 2.545 . S
O464 C482 1.258 . S
O465 Gd414 2.362 . S
O465 Gd415 2.606 . S
O465 C481 1.284 . S
O466 Gd414 2.324 . S
O466 C489 1.254 . S
O467 Gd415 2.429 . S
O467 C489 1.268 . S
O468 Gd415 2.545 . S
O468 C481 1.250 . S
O469 Gd415 2.412 . S
O469 C482 1.252 . S
C470 O459 1.284 . S
C470 O462 1.250 . S
C471 H440 0.929 . S
C471 C456 1.437 . S
C471 C472 1.317 . S
C472 H443 0.930 . S
C472 C448 1.431 . S
C472 C471 1.317 . S
C473 Gd414 2.828 . S
C473 O458 1.258 . S
C473 O463 1.252 . S
C473 C474 1.497 . S
C474 C473 1.497 . S
C474 C475 1.395 . S
C474 C476 1.380 . S
C475 C474 1.395 . S
C475 C478 1.398 . S
C475 H490 0.930 . S
C476 C474 1.380 . S
C476 C477 1.391 . S
C476 H491 0.930 . S
C477 C476 1.391 . S
C477 C479 1.387 . S
C478 C475 1.398 . S
C478 C479 1.380 . S
C478 H492 0.930 . S
C479 C477 1.387 . S
C479 C478 1.380 . S
C479 H493 0.930 . S
C480 O460 1.254 . S
C480 O461 1.268 . S
C481 O465 1.284 . S
C481 O468 1.250 . S
C482 Gd415 2.828 . S
C482 O464 1.258 . S
C482 O469 1.252 . S
C482 C483 1.497 . S
C483 C482 1.497 . S
C483 C484 1.395 . S
C483 C485 1.380 . S
C484 C483 1.395 . S
C484 C487 1.398 . S
C484 H494 0.930 . S
C485 C483 1.380 . S
C485 C486 1.391 . S
C485 H495 0.930 . S
C486 C485 1.391 . S
C486 C488 1.387 . S
C487 C484 1.398 . S
C487 C488 1.380 . S
C487 H496 0.930 . S
C488 C486 1.387 . S
C488 C487 1.380 . S
C488 H497 0.930 . S
C489 O466 1.254 . S
C489 O467 1.268 . S
H490 C475 0.930 . S
H491 C476 0.930 . S
H492 C478 0.930 . S
H493 C479 0.930 . S
H494 C484 0.930 . S
H495 C485 0.930 . S
H496 C487 0.930 . S
H497 C488 0.930 . S
Gd498 N529 2.661 . S
Gd498 N535 2.601 . S
Gd498 O542 2.545 . S
Gd498 O543 2.606 . S
Gd498 O545 2.429 . S
Gd498 O546 2.545 . S
Gd498 O547 2.412 . S
Gd498 O549 2.362 . S
Gd498 O550 2.324 . S
Gd498 C557 2.828 . S
Gd499 N508 2.661 . S
Gd499 N512 2.601 . S
Gd499 O543 2.362 . S
Gd499 O544 2.324 . S
Gd499 O548 2.545 . S
Gd499 O549 2.606 . S
Gd499 O551 2.429 . S
Gd499 O552 2.545 . S
Gd499 O553 2.412 . S
Gd499 C566 2.828 . S
C500 C503 1.417 . S
C500 C505 1.431 . S
C500 C506 1.412 . S
C501 C504 1.437 . S
C501 C505 1.317 . S
C501 H520 0.929 . S
C502 C503 1.426 . S
C502 C504 1.413 . S
C502 N512 1.359 . S
C503 C500 1.417 . S
C503 C502 1.426 . S
C503 N508 1.350 . S
C504 C501 1.437 . S
C504 C502 1.413 . S
C504 C514 1.391 . S
C505 C500 1.431 . S
C505 C501 1.317 . S
C505 H516 0.930 . S
C506 C500 1.412 . S
C506 C507 1.355 . S
C506 H518 0.930 . S
C507 C506 1.355 . S
C507 C509 1.402 . S
C507 H519 0.930 . S
N508 Gd499 2.661 . S
N508 C503 1.350 . S
N508 C509 1.307 . S
C509 C507 1.402 . S
C509 N508 1.307 . S
C509 H510 0.930 . S
H510 C509 0.930 . S
C511 N512 1.334 . S
C511 C513 1.394 . S
C511 H515 0.930 . S
N512 Gd499 2.601 . S
N512 C502 1.359 . S
N512 C511 1.334 . S
C513 C511 1.394 . S
C513 C514 1.359 . S
C513 H525 0.930 . S
C514 C504 1.391 . S
C514 C513 1.359 . S
C514 H526 0.929 . S
H515 C511 0.930 . S
H516 C505 0.930 . S
H517 C534 0.930 . S
H518 C506 0.930 . S
H519 C507 0.930 . S
H520 C501 0.929 . S
H521 C539 0.930 . S
H522 C530 0.930 . S
H523 C531 0.930 . S
H524 C555 0.929 . S
H525 C513 0.930 . S
H526 C514 0.929 . S
H527 C556 0.930 . S
H528 C537 0.930 . S
N529 Gd498 2.661 . S
N529 C533 1.350 . S
N529 C534 1.307 . S
C530 H522 0.930 . S
C530 C531 1.355 . S
C530 C532 1.412 . S
C531 H523 0.930 . S
C531 C530 1.355 . S
C531 C534 1.402 . S
C532 C530 1.412 . S
C532 C533 1.417 . S
C532 C556 1.431 . S
C533 N529 1.350 . S
C533 C532 1.417 . S
C533 C536 1.426 . S
C534 H517 0.930 . S
C534 N529 1.307 . S
C534 C531 1.402 . S
N535 Gd498 2.601 . S
N535 C536 1.359 . S
N535 C539 1.334 . S
C536 C533 1.426 . S
C536 N535 1.359 . S
C536 C540 1.413 . S
C537 H528 0.930 . S
C537 C538 1.359 . S
C537 C539 1.394 . S
C538 C537 1.359 . S
C538 C540 1.391 . S
C538 H541 0.929 . S
C539 H521 0.930 . S
C539 N535 1.334 . S
C539 C537 1.394 . S
C540 C536 1.413 . S
C540 C538 1.391 . S
C540 C555 1.437 . S
H541 C538 0.929 . S
O542 Gd498 2.545 . S
O542 C557 1.258 . S
O543 Gd498 2.606 . S
O543 Gd499 2.362 . S
O543 C554 1.284 . S
O544 Gd499 2.324 . S
O544 C564 1.254 . S
O545 Gd498 2.429 . S
O545 C564 1.268 . S
O546 Gd498 2.545 . S
O546 C554 1.250 . S
O547 Gd498 2.412 . S
O547 C557 1.252 . S
O548 Gd499 2.545 . S
O548 C566 1.258 . S
O549 Gd498 2.362 . S
O549 Gd499 2.606 . S
O549 C565 1.284 . S
O550 Gd498 2.324 . S
O550 C573 1.254 . S
O551 Gd499 2.429 . S
O551 C573 1.268 . S
O552 Gd499 2.545 . S
O552 C565 1.250 . S
O553 Gd499 2.412 . S
O553 C566 1.252 . S
C554 O543 1.284 . S
C554 O546 1.250 . S
C555 H524 0.929 . S
C555 C540 1.437 . S
C555 C556 1.317 . S
C556 H527 0.930 . S
C556 C532 1.431 . S
C556 C555 1.317 . S
C557 Gd498 2.828 . S
C557 O542 1.258 . S
C557 O547 1.252 . S
C557 C558 1.497 . S
C558 C557 1.497 . S
C558 C559 1.395 . S
C558 C560 1.380 . S
C559 C558 1.395 . S
C559 C562 1.398 . S
C559 H574 0.930 . S
C560 C558 1.380 . S
C560 C561 1.391 . S
C560 H575 0.930 . S
C561 C560 1.391 . S
C561 C563 1.387 . S
C562 C559 1.398 . S
C562 C563 1.380 . S
C562 H576 0.930 . S
C563 C561 1.387 . S
C563 C562 1.380 . S
C563 H577 0.930 . S
C564 O544 1.254 . S
C564 O545 1.268 . S
C565 O549 1.284 . S
C565 O552 1.250 . S
C566 Gd499 2.828 . S
C566 O548 1.258 . S
C566 O553 1.252 . S
C566 C567 1.497 . S
C567 C566 1.497 . S
C567 C568 1.395 . S
C567 C569 1.380 . S
C568 C567 1.395 . S
C568 C571 1.398 . S
C568 H578 0.930 . S
C569 C567 1.380 . S
C569 C570 1.391 . S
C569 H579 0.930 . S
C570 C569 1.391 . S
C570 C572 1.387 . S
C571 C568 1.398 . S
C571 C572 1.380 . S
C571 H580 0.930 . S
C572 C570 1.387 . S
C572 C571 1.380 . S
C572 H581 0.930 . S
C573 O550 1.254 . S
C573 O551 1.268 . S
H574 C559 0.930 . S
H575 C560 0.930 . S
H576 C562 0.930 . S
H577 C563 0.930 . S
H578 C568 0.930 . S
H579 C569 0.930 . S
H580 C571 0.930 . S
H581 C572 0.930 . S
Gd582 N613 2.661 . S
Gd582 N619 2.601 . S
Gd582 O626 2.545 . S
Gd582 O627 2.606 . S
Gd582 O629 2.429 . S
Gd582 O630 2.545 . S
Gd582 O631 2.412 . S
Gd582 O633 2.362 . S
Gd582 O634 2.324 . S
Gd582 C641 2.828 . S
Gd583 N592 2.661 . S
Gd583 N596 2.601 . S
Gd583 O627 2.362 . S
Gd583 O628 2.324 . S
Gd583 O632 2.545 . S
Gd583 O633 2.606 . S
Gd583 O635 2.429 . S
Gd583 O636 2.545 . S
Gd583 O637 2.412 . S
Gd583 C650 2.828 . S
C584 C587 1.417 . S
C584 C589 1.431 . S
C584 C590 1.412 . S
C585 C588 1.437 . S
C585 C589 1.317 . S
C585 H604 0.929 . S
C586 C587 1.426 . S
C586 C588 1.413 . S
C586 N596 1.359 . S
C587 C584 1.417 . S
C587 C586 1.426 . S
C587 N592 1.350 . S
C588 C585 1.437 . S
C588 C586 1.413 . S
C588 C598 1.391 . S
C589 C584 1.431 . S
C589 C585 1.317 . S
C589 H600 0.930 . S
C590 C584 1.412 . S
C590 C591 1.355 . S
C590 H602 0.930 . S
C591 C590 1.355 . S
C591 C593 1.402 . S
C591 H603 0.930 . S
N592 Gd583 2.661 . S
N592 C587 1.350 . S
N592 C593 1.307 . S
C593 C591 1.402 . S
C593 N592 1.307 . S
C593 H594 0.930 . S
H594 C593 0.930 . S
C595 N596 1.334 . S
C595 C597 1.394 . S
C595 H599 0.930 . S
N596 Gd583 2.601 . S
N596 C586 1.359 . S
N596 C595 1.334 . S
C597 C595 1.394 . S
C597 C598 1.359 . S
C597 H609 0.930 . S
C598 C588 1.391 . S
C598 C597 1.359 . S
C598 H610 0.929 . S
H599 C595 0.930 . S
H600 C589 0.930 . S
H601 C618 0.930 . S
H602 C590 0.930 . S
H603 C591 0.930 . S
H604 C585 0.929 . S
H605 C623 0.930 . S
H606 C614 0.930 . S
H607 C615 0.930 . S
H608 C639 0.929 . S
H609 C597 0.930 . S
H610 C598 0.929 . S
H611 C640 0.930 . S
H612 C621 0.930 . S
N613 Gd582 2.661 . S
N613 C617 1.350 . S
N613 C618 1.307 . S
C614 H606 0.930 . S
C614 C615 1.355 . S
C614 C616 1.412 . S
C615 H607 0.930 . S
C615 C614 1.355 . S
C615 C618 1.402 . S
C616 C614 1.412 . S
C616 C617 1.417 . S
C616 C640 1.431 . S
C617 N613 1.350 . S
C617 C616 1.417 . S
C617 C620 1.426 . S
C618 H601 0.930 . S
C618 N613 1.307 . S
C618 C615 1.402 . S
N619 Gd582 2.601 . S
N619 C620 1.359 . S
N619 C623 1.334 . S
C620 C617 1.426 . S
C620 N619 1.359 . S
C620 C624 1.413 . S
C621 H612 0.930 . S
C621 C622 1.359 . S
C621 C623 1.394 . S
C622 C621 1.359 . S
C622 C624 1.391 . S
C622 H625 0.929 . S
C623 H605 0.930 . S
C623 N619 1.334 . S
C623 C621 1.394 . S
C624 C620 1.413 . S
C624 C622 1.391 . S
C624 C639 1.437 . S
H625 C622 0.929 . S
O626 Gd582 2.545 . S
O626 C641 1.258 . S
O627 Gd582 2.606 . S
O627 Gd583 2.362 . S
O627 C638 1.284 . S
O628 Gd583 2.324 . S
O628 C648 1.254 . S
O629 Gd582 2.429 . S
O629 C648 1.268 . S
O630 Gd582 2.545 . S
O630 C638 1.250 . S
O631 Gd582 2.412 . S
O631 C641 1.252 . S
O632 Gd583 2.545 . S
O632 C650 1.258 . S
O633 Gd582 2.362 . S
O633 Gd583 2.606 . S
O633 C649 1.284 . S
O634 Gd582 2.324 . S
O634 C657 1.254 . S
O635 Gd583 2.429 . S
O635 C657 1.268 . S
O636 Gd583 2.545 . S
O636 C649 1.250 . S
O637 Gd583 2.412 . S
O637 C650 1.252 . S
C638 O627 1.284 . S
C638 O630 1.250 . S
C639 H608 0.929 . S
C639 C624 1.437 . S
C639 C640 1.317 . S
C640 H611 0.930 . S
C640 C616 1.431 . S
C640 C639 1.317 . S
C641 Gd582 2.828 . S
C641 O626 1.258 . S
C641 O631 1.252 . S
C641 C642 1.497 . S
C642 C641 1.497 . S
C642 C643 1.395 . S
C642 C644 1.380 . S
C643 C642 1.395 . S
C643 C646 1.398 . S
C643 H658 0.930 . S
C644 C642 1.380 . S
C644 C645 1.391 . S
C644 H659 0.930 . S
C645 C644 1.391 . S
C645 C647 1.387 . S
C646 C643 1.398 . S
C646 C647 1.380 . S
C646 H660 0.930 . S
C647 C645 1.387 . S
C647 C646 1.380 . S
C647 H661 0.930 . S
C648 O628 1.254 . S
C648 O629 1.268 . S
C649 O633 1.284 . S
C649 O636 1.250 . S
C650 Gd583 2.828 . S
C650 O632 1.258 . S
C650 O637 1.252 . S
C650 C651 1.497 . S
C651 C650 1.497 . S
C651 C652 1.395 . S
C651 C653 1.380 . S
C652 C651 1.395 . S
C652 C655 1.398 . S
C652 H662 0.930 . S
C653 C651 1.380 . S
C653 C654 1.391 . S
C653 H663 0.930 . S
C654 C653 1.391 . S
C654 C656 1.387 . S
C655 C652 1.398 . S
C655 C656 1.380 . S
C655 H664 0.930 . S
C656 C654 1.387 . S
C656 C655 1.380 . S
C656 H665 0.930 . S
C657 O634 1.254 . S
C657 O635 1.268 . S
H658 C643 0.930 . S
H659 C644 0.930 . S
H660 C646 0.930 . S
H661 C647 0.930 . S
H662 C652 0.930 . S
H663 C653 0.930 . S
H664 C655 0.930 . S
H665 C656 0.930 . S
Gd666 N697 2.661 . S
Gd666 N703 2.601 . S
Gd666 O710 2.545 . S
Gd666 O711 2.606 . S
Gd666 O713 2.429 . S
Gd666 O714 2.545 . S
Gd666 O715 2.412 . S
Gd666 O717 2.362 . S
Gd666 O718 2.324 . S
Gd666 C725 2.828 . S
Gd667 N676 2.661 . S
Gd667 N680 2.601 . S
Gd667 O711 2.362 . S
Gd667 O712 2.324 . S
Gd667 O716 2.545 . S
Gd667 O717 2.606 . S
Gd667 O719 2.429 . S
Gd667 O720 2.545 . S
Gd667 O721 2.412 . S
Gd667 C734 2.828 . S
C668 C671 1.417 . S
C668 C673 1.431 . S
C668 C674 1.412 . S
C669 C672 1.437 . S
C669 C673 1.317 . S
C669 H688 0.929 . S
C670 C671 1.426 . S
C670 C672 1.413 . S
C670 N680 1.359 . S
C671 C668 1.417 . S
C671 C670 1.426 . S
C671 N676 1.350 . S
C672 C669 1.437 . S
C672 C670 1.413 . S
C672 C682 1.391 . S
C673 C668 1.431 . S
C673 C669 1.317 . S
C673 H684 0.930 . S
C674 C668 1.412 . S
C674 C675 1.355 . S
C674 H686 0.930 . S
C675 C674 1.355 . S
C675 C677 1.402 . S
C675 H687 0.930 . S
N676 Gd667 2.661 . S
N676 C671 1.350 . S
N676 C677 1.307 . S
C677 C675 1.402 . S
C677 N676 1.307 . S
C677 H678 0.930 . S
H678 C677 0.930 . S
C679 N680 1.334 . S
C679 C681 1.394 . S
C679 H683 0.930 . S
N680 Gd667 2.601 . S
N680 C670 1.359 . S
N680 C679 1.334 . S
C681 C679 1.394 . S
C681 C682 1.359 . S
C681 H693 0.930 . S
C682 C672 1.391 . S
C682 C681 1.359 . S
C682 H694 0.929 . S
H683 C679 0.930 . S
H684 C673 0.930 . S
H685 C702 0.930 . S
H686 C674 0.930 . S
H687 C675 0.930 . S
H688 C669 0.929 . S
H689 C707 0.930 . S
H690 C698 0.930 . S
H691 C699 0.930 . S
H692 C723 0.929 . S
H693 C681 0.930 . S
H694 C682 0.929 . S
H695 C724 0.930 . S
H696 C705 0.930 . S
N697 Gd666 2.661 . S
N697 C701 1.350 . S
N697 C702 1.307 . S
C698 H690 0.930 . S
C698 C699 1.355 . S
C698 C700 1.412 . S
C699 H691 0.930 . S
C699 C698 1.355 . S
C699 C702 1.402 . S
C700 C698 1.412 . S
C700 C701 1.417 . S
C700 C724 1.431 . S
C701 N697 1.350 . S
C701 C700 1.417 . S
C701 C704 1.426 . S
C702 H685 0.930 . S
C702 N697 1.307 . S
C702 C699 1.402 . S
N703 Gd666 2.601 . S
N703 C704 1.359 . S
N703 C707 1.334 . S
C704 C701 1.426 . S
C704 N703 1.359 . S
C704 C708 1.413 . S
C705 H696 0.930 . S
C705 C706 1.359 . S
C705 C707 1.394 . S
C706 C705 1.359 . S
C706 C708 1.391 . S
C706 H709 0.929 . S
C707 H689 0.930 . S
C707 N703 1.334 . S
C707 C705 1.394 . S
C708 C704 1.413 . S
C708 C706 1.391 . S
C708 C723 1.437 . S
H709 C706 0.929 . S
O710 Gd666 2.545 . S
O710 C725 1.258 . S
O711 Gd666 2.606 . S
O711 Gd667 2.362 . S
O711 C722 1.284 . S
O712 Gd667 2.324 . S
O712 C732 1.254 . S
O713 Gd666 2.429 . S
O713 C732 1.268 . S
O714 Gd666 2.545 . S
O714 C722 1.250 . S
O715 Gd666 2.412 . S
O715 C725 1.252 . S
O716 Gd667 2.545 . S
O716 C734 1.258 . S
O717 Gd666 2.362 . S
O717 Gd667 2.606 . S
O717 C733 1.284 . S
O718 Gd666 2.324 . S
O718 C741 1.254 . S
O719 Gd667 2.429 . S
O719 C741 1.268 . S
O720 Gd667 2.545 . S
O720 C733 1.250 . S
O721 Gd667 2.412 . S
O721 C734 1.252 . S
C722 O711 1.284 . S
C722 O714 1.250 . S
C723 H692 0.929 . S
C723 C708 1.437 . S
C723 C724 1.317 . S
C724 H695 0.930 . S
C724 C700 1.431 . S
C724 C723 1.317 . S
C725 Gd666 2.828 . S
C725 O710 1.258 . S
C725 O715 1.252 . S
C725 C726 1.497 . S
C726 C725 1.497 . S
C726 C727 1.395 . S
C726 C728 1.380 . S
C727 C726 1.395 . S
C727 C730 1.398 . S
C727 H742 0.930 . S
C728 C726 1.380 . S
C728 C729 1.391 . S
C728 H743 0.930 . S
C729 C728 1.391 . S
C729 C731 1.387 . S
C730 C727 1.398 . S
C730 C731 1.380 . S
C730 H744 0.930 . S
C731 C729 1.387 . S
C731 C730 1.380 . S
C731 H745 0.930 . S
C732 O712 1.254 . S
C732 O713 1.268 . S
C733 O717 1.284 . S
C733 O720 1.250 . S
C734 Gd667 2.828 . S
C734 O716 1.258 . S
C734 O721 1.252 . S
C734 C735 1.497 . S
C735 C734 1.497 . S
C735 C736 1.395 . S
C735 C737 1.380 . S
C736 C735 1.395 . S
C736 C739 1.398 . S
C736 H746 0.930 . S
C737 C735 1.380 . S
C737 C738 1.391 . S
C737 H747 0.930 . S
C738 C737 1.391 . S
C738 C740 1.387 . S
C739 C736 1.398 . S
C739 C740 1.380 . S
C739 H748 0.930 . S
C740 C738 1.387 . S
C740 C739 1.380 . S
C740 H749 0.930 . S
C741 O718 1.254 . S
C741 O719 1.268 . S
H742 C727 0.930 . S
H743 C728 0.930 . S
H744 C730 0.930 . S
H745 C731 0.930 . S
H746 C736 0.930 . S
H747 C737 0.930 . S
H748 C739 0.930 . S
H749 C740 0.930 . S
Gd750 N781 2.661 . S
Gd750 N787 2.601 . S
Gd750 O794 2.545 . S
Gd750 O795 2.606 . S
Gd750 O797 2.429 . S
Gd750 O798 2.545 . S
Gd750 O799 2.412 . S
Gd750 O801 2.362 . S
Gd750 O802 2.324 . S
Gd750 C809 2.828 . S
Gd751 N760 2.661 . S
Gd751 N764 2.601 . S
Gd751 O795 2.362 . S
Gd751 O796 2.324 . S
Gd751 O800 2.545 . S
Gd751 O801 2.606 . S
Gd751 O803 2.429 . S
Gd751 O804 2.545 . S
Gd751 O805 2.412 . S
Gd751 C818 2.828 . S
C752 C755 1.417 . S
C752 C757 1.431 . S
C752 C758 1.412 . S
C753 C756 1.437 . S
C753 C757 1.317 . S
C753 H772 0.929 . S
C754 C755 1.426 . S
C754 C756 1.413 . S
C754 N764 1.359 . S
C755 C752 1.417 . S
C755 C754 1.426 . S
C755 N760 1.350 . S
C756 C753 1.437 . S
C756 C754 1.413 . S
C756 C766 1.391 . S
C757 C752 1.431 . S
C757 C753 1.317 . S
C757 H768 0.930 . S
C758 C752 1.412 . S
C758 C759 1.355 . S
C758 H770 0.930 . S
C759 C758 1.355 . S
C759 C761 1.402 . S
C759 H771 0.930 . S
N760 Gd751 2.661 . S
N760 C755 1.350 . S
N760 C761 1.307 . S
C761 C759 1.402 . S
C761 N760 1.307 . S
C761 H762 0.930 . S
H762 C761 0.930 . S
C763 N764 1.334 . S
C763 C765 1.394 . S
C763 H767 0.930 . S
N764 Gd751 2.601 . S
N764 C754 1.359 . S
N764 C763 1.334 . S
C765 C763 1.394 . S
C765 C766 1.359 . S
C765 H777 0.930 . S
C766 C756 1.391 . S
C766 C765 1.359 . S
C766 H778 0.929 . S
H767 C763 0.930 . S
H768 C757 0.930 . S
H769 C786 0.930 . S
H770 C758 0.930 . S
H771 C759 0.930 . S
H772 C753 0.929 . S
H773 C791 0.930 . S
H774 C782 0.930 . S
H775 C783 0.930 . S
H776 C807 0.929 . S
H777 C765 0.930 . S
H778 C766 0.929 . S
H779 C808 0.930 . S
H780 C789 0.930 . S
N781 Gd750 2.661 . S
N781 C785 1.350 . S
N781 C786 1.307 . S
C782 H774 0.930 . S
C782 C783 1.355 . S
C782 C784 1.412 . S
C783 H775 0.930 . S
C783 C782 1.355 . S
C783 C786 1.402 . S
C784 C782 1.412 . S
C784 C785 1.417 . S
C784 C808 1.431 . S
C785 N781 1.350 . S
C785 C784 1.417 . S
C785 C788 1.426 . S
C786 H769 0.930 . S
C786 N781 1.307 . S
C786 C783 1.402 . S
N787 Gd750 2.601 . S
N787 C788 1.359 . S
N787 C791 1.334 . S
C788 C785 1.426 . S
C788 N787 1.359 . S
C788 C792 1.413 . S
C789 H780 0.930 . S
C789 C790 1.359 . S
C789 C791 1.394 . S
C790 C789 1.359 . S
C790 C792 1.391 . S
C790 H793 0.929 . S
C791 H773 0.930 . S
C791 N787 1.334 . S
C791 C789 1.394 . S
C792 C788 1.413 . S
C792 C790 1.391 . S
C792 C807 1.437 . S
H793 C790 0.929 . S
O794 Gd750 2.545 . S
O794 C809 1.258 . S
O795 Gd750 2.606 . S
O795 Gd751 2.362 . S
O795 C806 1.284 . S
O796 Gd751 2.324 . S
O796 C816 1.254 . S
O797 Gd750 2.429 . S
O797 C816 1.268 . S
O798 Gd750 2.545 . S
O798 C806 1.250 . S
O799 Gd750 2.412 . S
O799 C809 1.252 . S
O800 Gd751 2.545 . S
O800 C818 1.258 . S
O801 Gd750 2.362 . S
O801 Gd751 2.606 . S
O801 C817 1.284 . S
O802 Gd750 2.324 . S
O802 C825 1.254 . S
O803 Gd751 2.429 . S
O803 C825 1.268 . S
O804 Gd751 2.545 . S
O804 C817 1.250 . S
O805 Gd751 2.412 . S
O805 C818 1.252 . S
C806 O795 1.284 . S
C806 O798 1.250 . S
C807 H776 0.929 . S
C807 C792 1.437 . S
C807 C808 1.317 . S
C808 H779 0.930 . S
C808 C784 1.431 . S
C808 C807 1.317 . S
C809 Gd750 2.828 . S
C809 O794 1.258 . S
C809 O799 1.252 . S
C809 C810 1.497 . S
C810 C809 1.497 . S
C810 C811 1.395 . S
C810 C812 1.380 . S
C811 C810 1.395 . S
C811 C814 1.398 . S
C811 H826 0.930 . S
C812 C810 1.380 . S
C812 C813 1.391 . S
C812 H827 0.930 . S
C813 C812 1.391 . S
C813 C815 1.387 . S
C814 C811 1.398 . S
C814 C815 1.380 . S
C814 H828 0.930 . S
C815 C813 1.387 . S
C815 C814 1.380 . S
C815 H829 0.930 . S
C816 O796 1.254 . S
C816 O797 1.268 . S
C817 O801 1.284 . S
C817 O804 1.250 . S
C818 Gd751 2.828 . S
C818 O800 1.258 . S
C818 O805 1.252 . S
C818 C819 1.497 . S
C819 C818 1.497 . S
C819 C820 1.395 . S
C819 C821 1.380 . S
C820 C819 1.395 . S
C820 C823 1.398 . S
C820 H830 0.930 . S
C821 C819 1.380 . S
C821 C822 1.391 . S
C821 H831 0.930 . S
C822 C821 1.391 . S
C822 C824 1.387 . S
C823 C820 1.398 . S
C823 C824 1.380 . S
C823 H832 0.930 . S
C824 C822 1.387 . S
C824 C823 1.380 . S
C824 H833 0.930 . S
C825 O802 1.254 . S
C825 O803 1.268 . S
H826 C811 0.930 . S
H827 C812 0.930 . S
H828 C814 0.930 . S
H829 C815 0.930 . S
H830 C820 0.930 . S
H831 C821 0.930 . S
H832 C823 0.930 . S
H833 C824 0.930 . S
Gd834 N865 2.661 . S
Gd834 N871 2.601 . S
Gd834 O878 2.545 . S
Gd834 O879 2.606 . S
Gd834 O881 2.429 . S
Gd834 O882 2.545 . S
Gd834 O883 2.412 . S
Gd834 O885 2.362 . S
Gd834 O886 2.324 . S
Gd834 C893 2.828 . S
Gd835 N844 2.661 . S
Gd835 N848 2.601 . S
Gd835 O879 2.362 . S
Gd835 O880 2.324 . S
Gd835 O884 2.545 . S
Gd835 O885 2.606 . S
Gd835 O887 2.429 . S
Gd835 O888 2.545 . S
Gd835 O889 2.412 . S
Gd835 C902 2.828 . S
C836 C839 1.417 . S
C836 C841 1.431 . S
C836 C842 1.412 . S
C837 C840 1.437 . S
C837 C841 1.317 . S
C837 H856 0.929 . S
C838 C839 1.426 . S
C838 C840 1.413 . S
C838 N848 1.359 . S
C839 C836 1.417 . S
C839 C838 1.426 . S
C839 N844 1.350 . S
C840 C837 1.437 . S
C840 C838 1.413 . S
C840 C850 1.391 . S
C841 C836 1.431 . S
C841 C837 1.317 . S
C841 H852 0.930 . S
C842 C836 1.412 . S
C842 C843 1.355 . S
C842 H854 0.930 . S
C843 C842 1.355 . S
C843 C845 1.402 . S
C843 H855 0.930 . S
N844 Gd835 2.661 . S
N844 C839 1.350 . S
N844 C845 1.307 . S
C845 C843 1.402 . S
C845 N844 1.307 . S
C845 H846 0.930 . S
H846 C845 0.930 . S
C847 N848 1.334 . S
C847 C849 1.394 . S
C847 H851 0.930 . S
N848 Gd835 2.601 . S
N848 C838 1.359 . S
N848 C847 1.334 . S
C849 C847 1.394 . S
C849 C850 1.359 . S
C849 H861 0.930 . S
C850 C840 1.391 . S
C850 C849 1.359 . S
C850 H862 0.929 . S
H851 C847 0.930 . S
H852 C841 0.930 . S
H853 C870 0.930 . S
H854 C842 0.930 . S
H855 C843 0.930 . S
H856 C837 0.929 . S
H857 C875 0.930 . S
H858 C866 0.930 . S
H859 C867 0.930 . S
H860 C891 0.929 . S
H861 C849 0.930 . S
H862 C850 0.929 . S
H863 C892 0.930 . S
H864 C873 0.930 . S
N865 Gd834 2.661 . S
N865 C869 1.350 . S
N865 C870 1.307 . S
C866 H858 0.930 . S
C866 C867 1.355 . S
C866 C868 1.412 . S
C867 H859 0.930 . S
C867 C866 1.355 . S
C867 C870 1.402 . S
C868 C866 1.412 . S
C868 C869 1.417 . S
C868 C892 1.431 . S
C869 N865 1.350 . S
C869 C868 1.417 . S
C869 C872 1.426 . S
C870 H853 0.930 . S
C870 N865 1.307 . S
C870 C867 1.402 . S
N871 Gd834 2.601 . S
N871 C872 1.359 . S
N871 C875 1.334 . S
C872 C869 1.426 . S
C872 N871 1.359 . S
C872 C876 1.413 . S
C873 H864 0.930 . S
C873 C874 1.359 . S
C873 C875 1.394 . S
C874 C873 1.359 . S
C874 C876 1.391 . S
C874 H877 0.929 . S
C875 H857 0.930 . S
C875 N871 1.334 . S
C875 C873 1.394 . S
C876 C872 1.413 . S
C876 C874 1.391 . S
C876 C891 1.437 . S
H877 C874 0.929 . S
O878 Gd834 2.545 . S
O878 C893 1.258 . S
O879 Gd834 2.606 . S
O879 Gd835 2.362 . S
O879 C890 1.284 . S
O880 Gd835 2.324 . S
O880 C900 1.254 . S
O881 Gd834 2.429 . S
O881 C900 1.268 . S
O882 Gd834 2.545 . S
O882 C890 1.250 . S
O883 Gd834 2.412 . S
O883 C893 1.252 . S
O884 Gd835 2.545 . S
O884 C902 1.258 . S
O885 Gd834 2.362 . S
O885 Gd835 2.606 . S
O885 C901 1.284 . S
O886 Gd834 2.324 . S
O886 C909 1.254 . S
O887 Gd835 2.429 . S
O887 C909 1.268 . S
O888 Gd835 2.545 . S
O888 C901 1.250 . S
O889 Gd835 2.412 . S
O889 C902 1.252 . S
C890 O879 1.284 . S
C890 O882 1.250 . S
C891 H860 0.929 . S
C891 C876 1.437 . S
C891 C892 1.317 . S
C892 H863 0.930 . S
C892 C868 1.431 . S
C892 C891 1.317 . S
C893 Gd834 2.828 . S
C893 O878 1.258 . S
C893 O883 1.252 . S
C893 C894 1.497 . S
C894 C893 1.497 . S
C894 C895 1.395 . S
C894 C896 1.380 . S
C895 C894 1.395 . S
C895 C898 1.398 . S
C895 H910 0.930 . S
C896 C894 1.380 . S
C896 C897 1.391 . S
C896 H911 0.930 . S
C897 C896 1.391 . S
C897 C899 1.387 . S
C898 C895 1.398 . S
C898 C899 1.380 . S
C898 H912 0.930 . S
C899 C897 1.387 . S
C899 C898 1.380 . S
C899 H913 0.930 . S
C900 O880 1.254 . S
C900 O881 1.268 . S
C901 O885 1.284 . S
C901 O888 1.250 . S
C902 Gd835 2.828 . S
C902 O884 1.258 . S
C902 O889 1.252 . S
C902 C903 1.497 . S
C903 C902 1.497 . S
C903 C904 1.395 . S
C903 C905 1.380 . S
C904 C903 1.395 . S
C904 C907 1.398 . S
C904 H914 0.930 . S
C905 C903 1.380 . S
C905 C906 1.391 . S
C905 H915 0.930 . S
C906 C905 1.391 . S
C906 C908 1.387 . S
C907 C904 1.398 . S
C907 C908 1.380 . S
C907 H916 0.930 . S
C908 C906 1.387 . S
C908 C907 1.380 . S
C908 H917 0.930 . S
C909 O886 1.254 . S
C909 O887 1.268 . S
H910 C895 0.930 . S
H911 C896 0.930 . S
H912 C898 0.930 . S
H913 C899 0.930 . S
H914 C904 0.930 . S
H915 C905 0.930 . S
H916 C907 0.930 . S
H917 C908 0.930 . S
H918 C926 0.950 . S
H919 C931 0.950 . S
H920 C928 0.950 . S
H921 C930 0.950 . S
H922 C932 0.950 . S
H923 C934 0.950 . S
H924 C936 0.950 . S
H925 C937 0.950 . S
C926 H918 0.950 . S
C926 C927 1.386 . S
C926 C928 1.391 . S
C927 C926 1.386 . S
C927 C931 1.393 . S
C928 H920 0.950 . S
C928 C926 1.391 . S
C928 C929 1.400 . S
C929 C928 1.400 . S
C929 C930 1.398 . S
C929 C935 1.491 . S
C930 H921 0.950 . S
C930 C929 1.398 . S
C930 C931 1.391 . S
C931 H919 0.950 . S
C931 C927 1.393 . S
C931 C930 1.391 . S
C932 H922 0.950 . S
C932 C933 1.386 . S
C932 C934 1.391 . S
C933 C932 1.386 . S
C933 C937 1.393 . S
C934 H923 0.950 . S
C934 C932 1.391 . S
C934 C935 1.400 . S
C935 C929 1.491 . S
C935 C934 1.400 . S
C935 C936 1.398 . S
C936 H924 0.950 . S
C936 C935 1.398 . S
C936 C937 1.391 . S
C937 H925 0.950 . S
C937 C933 1.393 . S
C937 C936 1.391 . S
H938 C946 0.950 . S
H939 C951 0.950 . S
H940 C948 0.950 . S
H941 C950 0.950 . S
H942 C952 0.950 . S
H943 C954 0.950 . S
H944 C956 0.950 . S
H945 C957 0.950 . S
C946 H938 0.950 . S
C946 C947 1.386 . S
C946 C948 1.391 . S
C947 C946 1.386 . S
C947 C951 1.393 . S
C948 H940 0.950 . S
C948 C946 1.391 . S
C948 C949 1.400 . S
C949 C948 1.400 . S
C949 C950 1.398 . S
C949 C955 1.491 . S
C950 H941 0.950 . S
C950 C949 1.398 . S
C950 C951 1.391 . S
C951 H939 0.950 . S
C951 C947 1.393 . S
C951 C950 1.391 . S
C952 H942 0.950 . S
C952 C953 1.386 . S
C952 C954 1.391 . S
C953 C952 1.386 . S
C953 C957 1.393 . S
C954 H943 0.950 . S
C954 C952 1.391 . S
C954 C955 1.400 . S
C955 C949 1.491 . S
C955 C954 1.400 . S
C955 C956 1.398 . S
C956 H944 0.950 . S
C956 C955 1.398 . S
C956 C957 1.391 . S
C957 H945 0.950 . S
C957 C953 1.393 . S
C957 C956 1.391 . S
H958 C966 0.950 . S
H959 C971 0.950 . S
H960 C968 0.950 . S
H961 C970 0.950 . S
H962 C972 0.950 . S
H963 C974 0.950 . S
H964 C976 0.950 . S
H965 C977 0.950 . S
C966 H958 0.950 . S
C966 C967 1.386 . S
C966 C968 1.391 . S
C967 C966 1.386 . S
C967 C971 1.393 . S
C968 H960 0.950 . S
C968 C966 1.391 . S
C968 C969 1.400 . S
C969 C968 1.400 . S
C969 C970 1.398 . S
C969 C975 1.491 . S
C970 H961 0.950 . S
C970 C969 1.398 . S
C970 C971 1.391 . S
C971 H959 0.950 . S
C971 C967 1.393 . S
C971 C970 1.391 . S
C972 H962 0.950 . S
C972 C973 1.386 . S
C972 C974 1.391 . S
C973 C972 1.386 . S
C973 C977 1.393 . S
C974 H963 0.950 . S
C974 C972 1.391 . S
C974 C975 1.400 . S
C975 C969 1.491 . S
C975 C974 1.400 . S
C975 C976 1.398 . S
C976 H964 0.950 . S
C976 C975 1.398 . S
C976 C977 1.391 . S
C977 H965 0.950 . S
C977 C973 1.393 . S
C977 C976 1.391 . S
H978 C986 0.950 . S
H979 C991 0.950 . S
H980 C988 0.950 . S
H981 C990 0.950 . S
H982 C992 0.950 1_554 S
H983 C994 0.950 . S
H984 C996 0.950 . S
H985 C997 0.950 . S
C986 H978 0.950 . S
C986 C987 1.386 . S
C986 C988 1.391 . S
C987 C986 1.386 . S
C987 C991 1.393 . S
C988 H980 0.950 . S
C988 C986 1.391 . S
C988 C989 1.400 . S
C989 C988 1.400 . S
C989 C990 1.398 . S
C989 C995 1.491 . S
C990 H981 0.950 . S
C990 C989 1.398 . S
C990 C991 1.391 . S
C991 H979 0.950 . S
C991 C987 1.393 . S
C991 C990 1.391 . S
C992 H982 0.950 1_556 S
C992 C993 1.386 . S
C992 C994 1.391 . S
C993 C992 1.386 . S
C993 C997 1.393 . S
C994 H983 0.950 . S
C994 C992 1.391 . S
C994 C995 1.400 . S
C995 C989 1.491 . S
C995 C994 1.400 . S
C995 C996 1.398 . S
C996 H984 0.950 . S
C996 C995 1.398 . S
C996 C997 1.391 . S
C997 H985 0.950 . S
C997 C993 1.393 . S
C997 C996 1.391 . S
H998 C1006 0.950 . S
H999 C1011 0.950 . S
H1000 C1008 0.950 . S
H1001 C1010 0.950 . S
H1002 C1012 0.950 . S
H1003 C1014 0.950 . S
H1004 C1016 0.950 . S
H1005 C1017 0.950 . S
C1006 H998 0.950 . S
C1006 C1007 1.386 . S
C1006 C1008 1.391 . S
C1007 C1006 1.386 . S
C1007 C1011 1.393 . S
C1008 H1000 0.950 . S
C1008 C1006 1.391 . S
C1008 C1009 1.400 . S
C1009 C1008 1.400 . S
C1009 C1010 1.398 . S
C1009 C1015 1.491 . S
C1010 H1001 0.950 . S
C1010 C1009 1.398 . S
C1010 C1011 1.391 . S
C1011 H999 0.950 . S
C1011 C1007 1.393 . S
C1011 C1010 1.391 . S
C1012 H1002 0.950 . S
C1012 C1013 1.386 . S
C1012 C1014 1.391 . S
C1013 C1012 1.386 . S
C1013 C1017 1.393 . S
C1014 H1003 0.950 . S
C1014 C1012 1.391 . S
C1014 C1015 1.400 . S
C1015 C1009 1.491 . S
C1015 C1014 1.400 . S
C1015 C1016 1.398 . S
C1016 H1004 0.950 . S
C1016 C1015 1.398 . S
C1016 C1017 1.391 . S
C1017 H1005 0.950 . S
C1017 C1013 1.393 . S
C1017 C1016 1.391 . S
H1018 C1026 0.950 . S
H1019 C1031 0.950 . S
H1020 C1028 0.950 . S
H1021 C1030 0.950 . S
H1022 C1032 0.950 1_554 S
H1023 C1034 0.950 . S
H1024 C1036 0.950 . S
H1025 C1037 0.950 . S
C1026 H1018 0.950 . S
C1026 C1027 1.386 . S
C1026 C1028 1.391 . S
C1027 C1026 1.386 . S
C1027 C1031 1.393 . S
C1028 H1020 0.950 . S
C1028 C1026 1.391 . S
C1028 C1029 1.400 . S
C1029 C1028 1.400 . S
C1029 C1030 1.398 . S
C1029 C1035 1.491 . S
C1030 H1021 0.950 . S
C1030 C1029 1.398 . S
C1030 C1031 1.391 . S
C1031 H1019 0.950 . S
C1031 C1027 1.393 . S
C1031 C1030 1.391 . S
C1032 H1022 0.950 1_556 S
C1032 C1033 1.386 . S
C1032 C1034 1.391 . S
C1033 C1032 1.386 . S
C1033 C1037 1.393 . S
C1034 H1023 0.950 . S
C1034 C1032 1.391 . S
C1034 C1035 1.400 . S
C1035 C1029 1.491 . S
C1035 C1034 1.400 . S
C1035 C1036 1.398 . S
C1036 H1024 0.950 . S
C1036 C1035 1.398 . S
C1036 C1037 1.391 . S
C1037 H1025 0.950 . S
C1037 C1033 1.393 . S
C1037 C1036 1.391 . S
H1038 C1046 0.950 . S
H1039 C1051 0.950 . S
H1040 C1048 0.950 . S
H1041 C1050 0.950 . S
H1042 C1052 0.950 . S
H1043 C1054 0.950 . S
H1044 C1056 0.950 . S
H1045 C1057 0.950 . S
C1046 H1038 0.950 . S
C1046 C1047 1.386 . S
C1046 C1048 1.391 . S
C1047 C1046 1.386 . S
C1047 C1051 1.393 . S
C1048 H1040 0.950 . S
C1048 C1046 1.391 . S
C1048 C1049 1.400 . S
C1049 C1048 1.400 . S
C1049 C1050 1.398 . S
C1049 C1055 1.491 . S
C1050 H1041 0.950 . S
C1050 C1049 1.398 . S
C1050 C1051 1.391 . S
C1051 H1039 0.950 . S
C1051 C1047 1.393 . S
C1051 C1050 1.391 . S
C1052 H1042 0.950 . S
C1052 C1053 1.386 . S
C1052 C1054 1.391 . S
C1053 C1052 1.386 . S
C1053 C1057 1.393 . S
C1054 H1043 0.950 . S
C1054 C1052 1.391 . S
C1054 C1055 1.400 . S
C1055 C1049 1.491 . S
C1055 C1054 1.400 . S
C1055 C1056 1.398 . S
C1056 H1044 0.950 . S
C1056 C1055 1.398 . S
C1056 C1057 1.391 . S
C1057 H1045 0.950 . S
C1057 C1053 1.393 . S
C1057 C1056 1.391 . S
H1058 C1066 0.950 . S
H1059 C1071 0.950 . S
H1060 C1068 0.950 . S
H1061 C1070 0.950 . S
H1062 C1072 0.950 1_554 S
H1063 C1074 0.950 . S
H1064 C1076 0.950 . S
H1065 C1077 0.950 . S
C1066 H1058 0.950 . S
C1066 C1067 1.386 . S
C1066 C1068 1.391 . S
C1067 C1066 1.386 . S
C1067 C1071 1.393 . S
C1068 H1060 0.950 . S
C1068 C1066 1.391 . S
C1068 C1069 1.400 . S
C1069 C1068 1.400 . S
C1069 C1070 1.398 . S
C1069 C1075 1.491 . S
C1070 H1061 0.950 . S
C1070 C1069 1.398 . S
C1070 C1071 1.391 . S
C1071 H1059 0.950 . S
C1071 C1067 1.393 . S
C1071 C1070 1.391 . S
C1072 H1062 0.950 1_556 S
C1072 C1073 1.386 . S
C1072 C1074 1.391 . S
C1073 C1072 1.386 . S
C1073 C1077 1.393 . S
C1074 H1063 0.950 . S
C1074 C1072 1.391 . S
C1074 C1075 1.400 . S
C1075 C1069 1.491 . S
C1075 C1074 1.400 . S
C1075 C1076 1.398 . S
C1076 H1064 0.950 . S
C1076 C1075 1.398 . S
C1076 C1077 1.391 . S
C1077 H1065 0.950 . S
C1077 C1073 1.393 . S
C1077 C1076 1.391 . S
H1078 C1086 0.950 . S
H1079 C1091 0.950 . S
H1080 C1088 0.950 . S
H1081 C1090 0.950 . S
H1082 C1092 0.950 1_554 S
H1083 C1094 0.950 . S
H1084 C1096 0.950 . S
H1085 C1097 0.950 . S
C1086 H1078 0.950 . S
C1086 C1087 1.386 . S
C1086 C1088 1.391 . S
C1087 C1086 1.386 . S
C1087 C1091 1.393 . S
C1088 H1080 0.950 . S
C1088 C1086 1.391 . S
C1088 C1089 1.400 . S
C1089 C1088 1.400 . S
C1089 C1090 1.398 . S
C1089 C1095 1.491 . S
C1090 H1081 0.950 . S
C1090 C1089 1.398 . S
C1090 C1091 1.391 . S
C1091 H1079 0.950 . S
C1091 C1087 1.393 . S
C1091 C1090 1.391 . S
C1092 H1082 0.950 1_556 S
C1092 C1093 1.386 . S
C1092 C1094 1.391 . S
C1093 C1092 1.386 . S
C1093 C1097 1.393 . S
C1094 H1083 0.950 . S
C1094 C1092 1.391 . S
C1094 C1095 1.400 . S
C1095 C1089 1.491 . S
C1095 C1094 1.400 . S
C1095 C1096 1.398 . S
C1096 H1084 0.950 . S
C1096 C1095 1.398 . S
C1096 C1097 1.391 . S
C1097 H1085 0.950 . S
C1097 C1093 1.393 . S
C1097 C1096 1.391 . S
H1098 C1106 0.950 . S
H1099 C1111 0.950 . S
H1100 C1108 0.950 . S
H1101 C1110 0.950 . S
H1102 C1112 0.950 . S
H1103 C1114 0.950 . S
H1104 C1116 0.950 . S
H1105 C1117 0.950 . S
C1106 H1098 0.950 . S
C1106 C1107 1.386 . S
C1106 C1108 1.391 . S
C1107 C1106 1.386 . S
C1107 C1111 1.393 . S
C1108 H1100 0.950 . S
C1108 C1106 1.391 . S
C1108 C1109 1.400 . S
C1109 C1108 1.400 . S
C1109 C1110 1.398 . S
C1109 C1115 1.491 . S
C1110 H1101 0.950 . S
C1110 C1109 1.398 . S
C1110 C1111 1.391 . S
C1111 H1099 0.950 . S
C1111 C1107 1.393 . S
C1111 C1110 1.391 . S
C1112 H1102 0.950 . S
C1112 C1113 1.386 . S
C1112 C1114 1.391 . S
C1113 C1112 1.386 . S
C1113 C1117 1.393 . S
C1114 H1103 0.950 . S
C1114 C1112 1.391 . S
C1114 C1115 1.400 . S
C1115 C1109 1.491 . S
C1115 C1114 1.400 . S
C1115 C1116 1.398 . S
C1116 H1104 0.950 . S
C1116 C1115 1.398 . S
C1116 C1117 1.391 . S
C1117 H1105 0.950 . S
C1117 C1113 1.393 . S
C1117 C1116 1.391 . S
H1118 C1126 0.950 . S
H1119 C1131 0.950 . S
H1120 C1128 0.950 . S
H1121 C1130 0.950 . S
H1122 C1132 0.950 . S
H1123 C1134 0.950 . S
H1124 C1136 0.950 . S
H1125 C1137 0.950 . S
C1126 H1118 0.950 . S
C1126 C1127 1.386 . S
C1126 C1128 1.391 . S
C1127 C1126 1.386 . S
C1127 C1131 1.393 . S
C1128 H1120 0.950 . S
C1128 C1126 1.391 . S
C1128 C1129 1.400 . S
C1129 C1128 1.400 . S
C1129 C1130 1.398 . S
C1129 C1135 1.491 . S
C1130 H1121 0.950 . S
C1130 C1129 1.398 . S
C1130 C1131 1.391 . S
C1131 H1119 0.950 . S
C1131 C1127 1.393 . S
C1131 C1130 1.391 . S
C1132 H1122 0.950 . S
C1132 C1133 1.386 . S
C1132 C1134 1.391 . S
C1133 C1132 1.386 . S
C1133 C1137 1.393 . S
C1134 H1123 0.950 . S
C1134 C1132 1.391 . S
C1134 C1135 1.400 . S
C1135 C1129 1.491 . S
C1135 C1134 1.400 . S
C1135 C1136 1.398 . S
C1136 H1124 0.950 . S
C1136 C1135 1.398 . S
C1136 C1137 1.391 . S
C1137 H1125 0.950 . S
C1137 C1133 1.393 . S
C1137 C1136 1.391 . S
H1138 C1146 0.950 . S
H1139 C1151 0.950 . S
H1140 C1148 0.950 . S
H1141 C1150 0.950 . S
H1142 C1152 0.950 . S
H1143 C1154 0.950 . S
H1144 C1156 0.950 . S
H1145 C1157 0.950 . S
C1146 H1138 0.950 . S
C1146 C1147 1.386 . S
C1146 C1148 1.391 . S
C1147 C1146 1.386 . S
C1147 C1151 1.393 . S
C1148 H1140 0.950 . S
C1148 C1146 1.391 . S
C1148 C1149 1.400 . S
C1149 C1148 1.400 . S
C1149 C1150 1.398 . S
C1149 C1155 1.491 . S
C1150 H1141 0.950 . S
C1150 C1149 1.398 . S
C1150 C1151 1.391 . S
C1151 H1139 0.950 . S
C1151 C1147 1.393 . S
C1151 C1150 1.391 . S
C1152 H1142 0.950 . S
C1152 C1153 1.386 . S
C1152 C1154 1.391 . S
C1153 C1152 1.386 . S
C1153 C1157 1.393 . S
C1154 H1143 0.950 . S
C1154 C1152 1.391 . S
C1154 C1155 1.400 . S
C1155 C1149 1.491 . S
C1155 C1154 1.400 . S
C1155 C1156 1.398 . S
C1156 H1144 0.950 . S
C1156 C1155 1.398 . S
C1156 C1157 1.391 . S
C1157 H1145 0.950 . S
C1157 C1153 1.393 . S
C1157 C1156 1.391 . S
H1158 C1166 0.950 . S
H1159 C1171 0.950 . S
H1160 C1168 0.950 . S
H1161 C1170 0.950 . S
H1162 C1172 0.950 . S
H1163 C1174 0.950 . S
H1164 C1176 0.950 . S
H1165 C1177 0.950 . S
C1166 H1158 0.950 . S
C1166 C1167 1.386 . S
C1166 C1168 1.391 . S
C1167 C1166 1.386 . S
C1167 C1171 1.393 . S
C1168 H1160 0.950 . S
C1168 C1166 1.391 . S
C1168 C1169 1.400 . S
C1169 C1168 1.400 . S
C1169 C1170 1.398 . S
C1169 C1175 1.491 1_655 S
C1170 H1161 0.950 . S
C1170 C1169 1.398 . S
C1170 C1171 1.391 . S
C1171 H1159 0.950 . S
C1171 C1167 1.393 . S
C1171 C1170 1.391 . S
C1172 H1162 0.950 . S
C1172 C1173 1.386 . S
C1172 C1174 1.391 . S
C1173 C1172 1.386 . S
C1173 C1177 1.393 . S
C1174 H1163 0.950 . S
C1174 C1172 1.391 . S
C1174 C1175 1.400 . S
C1175 C1169 1.491 1_455 S
C1175 C1174 1.400 . S
C1175 C1176 1.398 . S
C1176 H1164 0.950 . S
C1176 C1175 1.398 . S
C1176 C1177 1.391 . S
C1177 H1165 0.950 . S
C1177 C1173 1.393 . S
C1177 C1176 1.391 . S
H1178 C1186 0.950 . S
H1179 C1191 0.950 . S
H1180 C1188 0.950 . S
H1181 C1190 0.950 . S
H1182 C1192 0.950 . S
H1183 C1194 0.950 . S
H1184 C1196 0.950 . S
H1185 C1197 0.950 . S
C1186 H1178 0.950 . S
C1186 C1187 1.386 . S
C1186 C1188 1.391 . S
C1187 C1186 1.386 . S
C1187 C1191 1.393 . S
C1188 H1180 0.950 . S
C1188 C1186 1.391 . S
C1188 C1189 1.400 . S
C1189 C1188 1.400 . S
C1189 C1190 1.398 . S
C1189 C1195 1.491 . S
C1190 H1181 0.950 . S
C1190 C1189 1.398 . S
C1190 C1191 1.391 . S
C1191 H1179 0.950 . S
C1191 C1187 1.393 . S
C1191 C1190 1.391 . S
C1192 H1182 0.950 . S
C1192 C1193 1.386 . S
C1192 C1194 1.391 . S
C1193 C1192 1.386 . S
C1193 C1197 1.393 . S
C1194 H1183 0.950 . S
C1194 C1192 1.391 . S
C1194 C1195 1.400 . S
C1195 C1189 1.491 . S
C1195 C1194 1.400 . S
C1195 C1196 1.398 . S
C1196 H1184 0.950 . S
C1196 C1195 1.398 . S
C1196 C1197 1.391 . S
C1197 H1185 0.950 . S
C1197 C1193 1.393 . S
C1197 C1196 1.391 . S
H1198 C1206 0.950 . S
H1199 C1211 0.950 . S
H1200 C1208 0.950 . S
H1201 C1210 0.950 . S
H1202 C1212 0.950 . S
H1203 C1214 0.950 . S
H1204 C1216 0.950 . S
H1205 C1217 0.950 . S
C1206 H1198 0.950 . S
C1206 C1207 1.386 . S
C1206 C1208 1.391 . S
C1207 C1206 1.386 . S
C1207 C1211 1.393 . S
C1208 H1200 0.950 . S
C1208 C1206 1.391 . S
C1208 C1209 1.400 . S
C1209 C1208 1.400 . S
C1209 C1210 1.398 . S
C1209 C1215 1.491 1_545 S
C1210 H1201 0.950 . S
C1210 C1209 1.398 . S
C1210 C1211 1.391 . S
C1211 H1199 0.950 . S
C1211 C1207 1.393 . S
C1211 C1210 1.391 . S
C1212 H1202 0.950 . S
C1212 C1213 1.386 . S
C1212 C1214 1.391 . S
C1213 C1212 1.386 . S
C1213 C1217 1.393 . S
C1214 H1203 0.950 . S
C1214 C1212 1.391 . S
C1214 C1215 1.400 . S
C1215 C1209 1.491 1_565 S
C1215 C1214 1.400 . S
C1215 C1216 1.398 . S
C1216 H1204 0.950 . S
C1216 C1215 1.398 . S
C1216 C1217 1.391 . S
C1217 H1205 0.950 . S
C1217 C1213 1.393 . S
C1217 C1216 1.391 . S
H1218 C1226 0.950 . S
H1219 C1231 0.950 . S
H1220 C1228 0.950 . S
H1221 C1230 0.950 . S
H1222 C1232 0.950 . S
H1223 C1234 0.950 . S
H1224 C1236 0.950 . S
H1225 C1237 0.950 . S
C1226 H1218 0.950 . S
C1226 C1227 1.386 . S
C1226 C1228 1.391 . S
C1227 C1226 1.386 . S
C1227 C1231 1.393 . S
C1228 H1220 0.950 . S
C1228 C1226 1.391 . S
C1228 C1229 1.400 . S
C1229 C1228 1.400 . S
C1229 C1230 1.398 . S
C1229 C1235 1.491 . S
C1230 H1221 0.950 . S
C1230 C1229 1.398 . S
C1230 C1231 1.391 . S
C1231 H1219 0.950 . S
C1231 C1227 1.393 . S
C1231 C1230 1.391 . S
C1232 H1222 0.950 . S
C1232 C1233 1.386 . S
C1232 C1234 1.391 . S
C1233 C1232 1.386 . S
C1233 C1237 1.393 . S
C1234 H1223 0.950 . S
C1234 C1232 1.391 . S
C1234 C1235 1.400 . S
C1235 C1229 1.491 . S
C1235 C1234 1.400 . S
C1235 C1236 1.398 . S
C1236 H1224 0.950 . S
C1236 C1235 1.398 . S
C1236 C1237 1.391 . S
C1237 H1225 0.950 . S
C1237 C1233 1.393 . S
C1237 C1236 1.391 . S
H1238 C1246 0.950 . S
H1239 C1251 0.950 . S
H1240 C1248 0.950 . S
H1241 C1250 0.950 . S
H1242 C1252 0.950 . S
H1243 C1254 0.950 . S
H1244 C1256 0.950 . S
H1245 C1257 0.950 . S
C1246 H1238 0.950 . S
C1246 C1247 1.386 . S
C1246 C1248 1.391 . S
C1247 C1246 1.386 . S
C1247 C1251 1.393 . S
C1248 H1240 0.950 . S
C1248 C1246 1.391 . S
C1248 C1249 1.400 . S
C1249 C1248 1.400 . S
C1249 C1250 1.398 . S
C1249 C1255 1.491 . S
C1250 H1241 0.950 . S
C1250 C1249 1.398 . S
C1250 C1251 1.391 . S
C1251 H1239 0.950 . S
C1251 C1247 1.393 . S
C1251 C1250 1.391 . S
C1252 H1242 0.950 . S
C1252 C1253 1.386 . S
C1252 C1254 1.391 . S
C1253 C1252 1.386 . S
C1253 C1257 1.393 . S
C1254 H1243 0.950 . S
C1254 C1252 1.391 . S
C1254 C1255 1.400 . S
C1255 C1249 1.491 . S
C1255 C1254 1.400 . S
C1255 C1256 1.398 . S
C1256 H1244 0.950 . S
C1256 C1255 1.398 . S
C1256 C1257 1.391 . S
C1257 H1245 0.950 . S
C1257 C1253 1.393 . S
C1257 C1256 1.391 . S
H1258 C1266 0.950 . S
H1259 C1271 0.950 . S
H1260 C1268 0.950 . S
H1261 C1270 0.950 . S
H1262 C1272 0.950 . S
H1263 C1274 0.950 . S
H1264 C1276 0.950 . S
H1265 C1277 0.950 . S
C1266 H1258 0.950 . S
C1266 C1267 1.386 . S
C1266 C1268 1.391 . S
C1267 C1266 1.386 . S
C1267 C1271 1.393 . S
C1268 H1260 0.950 . S
C1268 C1266 1.391 . S
C1268 C1269 1.400 . S
C1269 C1268 1.400 . S
C1269 C1270 1.398 . S
C1269 C1275 1.491 . S
C1270 H1261 0.950 . S
C1270 C1269 1.398 . S
C1270 C1271 1.391 . S
C1271 H1259 0.950 . S
C1271 C1267 1.393 . S
C1271 C1270 1.391 . S
C1272 H1262 0.950 . S
C1272 C1273 1.386 . S
C1272 C1274 1.391 . S
C1273 C1272 1.386 . S
C1273 C1277 1.393 . S
C1274 H1263 0.950 . S
C1274 C1272 1.391 . S
C1274 C1275 1.400 . S
C1275 C1269 1.491 . S
C1275 C1274 1.400 . S
C1275 C1276 1.398 . S
C1276 H1264 0.950 . S
C1276 C1275 1.398 . S
C1276 C1277 1.391 . S
C1277 H1265 0.950 . S
C1277 C1273 1.393 . S
C1277 C1276 1.391 . S
H1278 C1286 0.950 . S
H1279 C1291 0.950 . S
H1280 C1288 0.950 . S
H1281 C1290 0.950 . S
H1282 C1292 0.950 . S
H1283 C1294 0.950 . S
H1284 C1296 0.950 . S
H1285 C1297 0.950 . S
C1286 H1278 0.950 . S
C1286 C1287 1.386 . S
C1286 C1288 1.391 . S
C1287 C1286 1.386 . S
C1287 C1291 1.393 . S
C1288 H1280 0.950 . S
C1288 C1286 1.391 . S
C1288 C1289 1.400 . S
C1289 C1288 1.400 . S
C1289 C1290 1.398 . S
C1289 C1295 1.491 . S
C1290 H1281 0.950 . S
C1290 C1289 1.398 . S
C1290 C1291 1.391 . S
C1291 H1279 0.950 . S
C1291 C1287 1.393 . S
C1291 C1290 1.391 . S
C1292 H1282 0.950 . S
C1292 C1293 1.386 . S
C1292 C1294 1.391 . S
C1293 C1292 1.386 . S
C1293 C1297 1.393 . S
C1294 H1283 0.950 . S
C1294 C1292 1.391 . S
C1294 C1295 1.400 . S
C1295 C1289 1.491 . S
C1295 C1294 1.400 . S
C1295 C1296 1.398 . S
C1296 H1284 0.950 . S
C1296 C1295 1.398 . S
C1296 C1297 1.391 . S
C1297 H1285 0.950 . S
C1297 C1293 1.393 . S
C1297 C1296 1.391 . S
H1298 C1306 0.950 . S
H1299 C1311 0.950 . S
H1300 C1308 0.950 . S
H1301 C1310 0.950 . S
H1302 C1312 0.950 . S
H1303 C1314 0.950 . S
H1304 C1316 0.950 . S
H1305 C1317 0.950 . S
C1306 H1298 0.950 . S
C1306 C1307 1.386 . S
C1306 C1308 1.391 . S
C1307 C1306 1.386 . S
C1307 C1311 1.393 . S
C1308 H1300 0.950 . S
C1308 C1306 1.391 . S
C1308 C1309 1.400 . S
C1309 C1308 1.400 . S
C1309 C1310 1.398 . S
C1309 C1315 1.491 . S
C1310 H1301 0.950 . S
C1310 C1309 1.398 . S
C1310 C1311 1.391 . S
C1311 H1299 0.950 . S
C1311 C1307 1.393 . S
C1311 C1310 1.391 . S
C1312 H1302 0.950 . S
C1312 C1313 1.386 . S
C1312 C1314 1.391 . S
C1313 C1312 1.386 . S
C1313 C1317 1.393 . S
C1314 H1303 0.950 . S
C1314 C1312 1.391 . S
C1314 C1315 1.400 . S
C1315 C1309 1.491 . S
C1315 C1314 1.400 . S
C1315 C1316 1.398 . S
C1316 H1304 0.950 . S
C1316 C1315 1.398 . S
C1316 C1317 1.391 . S
C1317 H1305 0.950 . S
C1317 C1313 1.393 . S
C1317 C1316 1.391 . S
H1318 C1326 0.950 . S
H1319 C1331 0.950 . S
H1320 C1328 0.950 . S
H1321 C1330 0.950 . S
H1322 C1332 0.950 . S
H1323 C1334 0.950 . S
H1324 C1336 0.950 . S
H1325 C1337 0.950 . S
C1326 H1318 0.950 . S
C1326 C1327 1.386 . S
C1326 C1328 1.391 . S
C1327 C1326 1.386 . S
C1327 C1331 1.393 . S
C1328 H1320 0.950 . S
C1328 C1326 1.391 . S
C1328 C1329 1.400 . S
C1329 C1328 1.400 . S
C1329 C1330 1.398 . S
C1329 C1335 1.491 . S
C1330 H1321 0.950 . S
C1330 C1329 1.398 . S
C1330 C1331 1.391 . S
C1331 H1319 0.950 . S
C1331 C1327 1.393 . S
C1331 C1330 1.391 . S
C1332 H1322 0.950 . S
C1332 C1333 1.386 . S
C1332 C1334 1.391 . S
C1333 C1332 1.386 . S
C1333 C1337 1.393 . S
C1334 H1323 0.950 . S
C1334 C1332 1.391 . S
C1334 C1335 1.400 . S
C1335 C1329 1.491 . S
C1335 C1334 1.400 . S
C1335 C1336 1.398 . S
C1336 H1324 0.950 . S
C1336 C1335 1.398 . S
C1336 C1337 1.391 . S
C1337 H1325 0.950 . S
C1337 C1333 1.393 . S
C1337 C1336 1.391 . S
H1338 C1346 0.950 . S
H1339 C1351 0.950 . S
H1340 C1348 0.950 . S
H1341 C1350 0.950 1_565 S
H1342 C1352 0.950 . S
H1343 C1354 0.950 . S
H1344 C1356 0.950 . S
H1345 C1357 0.950 . S
C1346 H1338 0.950 . S
C1346 C1347 1.386 . S
C1346 C1348 1.391 . S
C1347 C1346 1.386 . S
C1347 C1351 1.393 . S
C1348 H1340 0.950 . S
C1348 C1346 1.391 . S
C1348 C1349 1.400 . S
C1349 C1348 1.400 . S
C1349 C1350 1.398 . S
C1349 C1355 1.491 1_545 S
C1350 H1341 0.950 1_545 S
C1350 C1349 1.398 . S
C1350 C1351 1.391 . S
C1351 H1339 0.950 . S
C1351 C1347 1.393 . S
C1351 C1350 1.391 . S
C1352 H1342 0.950 . S
C1352 C1353 1.386 . S
C1352 C1354 1.391 . S
C1353 C1352 1.386 . S
C1353 C1357 1.393 . S
C1354 H1343 0.950 . S
C1354 C1352 1.391 . S
C1354 C1355 1.400 . S
C1355 C1349 1.491 1_565 S
C1355 C1354 1.400 . S
C1355 C1356 1.398 . S
C1356 H1344 0.950 . S
C1356 C1355 1.398 . S
C1356 C1357 1.391 . S
C1357 H1345 0.950 . S
C1357 C1353 1.393 . S
C1357 C1356 1.391 . S
H1358 C1366 0.950 . S
H1359 C1371 0.950 . S
H1360 C1368 0.950 . S
H1361 C1370 0.936 1_455 S
H1362 C1372 0.950 . S
H1363 C1374 0.950 . S
H1364 C1376 0.950 . S
H1365 C1377 0.950 . S
C1366 H1358 0.950 . S
C1366 C1367 1.386 . S
C1366 C1368 1.391 . S
C1367 C1366 1.386 . S
C1367 C1371 1.393 . S
C1368 H1360 0.950 . S
C1368 C1366 1.391 . S
C1368 C1369 1.390 1_655 S
C1369 C1368 1.390 1_455 S
C1369 C1370 1.389 1_455 S
C1369 C1375 1.504 . S
C1370 H1361 0.936 1_655 S
C1370 C1369 1.389 1_655 S
C1370 C1371 1.410 . S
C1371 H1359 0.950 . S
C1371 C1367 1.393 . S
C1371 C1370 1.410 . S
C1372 H1362 0.950 . S
C1372 C1373 1.386 . S
C1372 C1374 1.391 . S
C1373 C1372 1.386 . S
C1373 C1377 1.393 . S
C1374 H1363 0.950 . S
C1374 C1372 1.391 . S
C1374 C1375 1.400 . S
C1375 C1369 1.504 . S
C1375 C1374 1.400 . S
C1375 C1376 1.398 . S
C1376 H1364 0.950 . S
C1376 C1375 1.398 . S
C1376 C1377 1.391 . S
C1377 H1365 0.950 . S
C1377 C1373 1.393 . S
C1377 C1376 1.391 . S
H1378 C1386 0.950 . S
H1379 C1391 0.950 . S
H1380 C1388 0.950 . S
H1381 C1390 0.950 . S
H1382 C1392 0.950 . S
H1383 C1394 0.950 . S
H1384 C1396 0.950 . S
H1385 C1397 0.950 . S
C1386 H1378 0.950 . S
C1386 C1387 1.386 . S
C1386 C1388 1.391 . S
C1387 C1386 1.386 . S
C1387 C1391 1.393 . S
C1388 H1380 0.950 . S
C1388 C1386 1.391 . S
C1388 C1389 1.400 . S
C1389 C1388 1.400 . S
C1389 C1390 1.398 . S
C1389 C1395 1.491 . S
C1390 H1381 0.950 . S
C1390 C1389 1.398 . S
C1390 C1391 1.391 . S
C1391 H1379 0.950 . S
C1391 C1387 1.393 . S
C1391 C1390 1.391 . S
C1392 H1382 0.950 . S
C1392 C1393 1.386 . S
C1392 C1394 1.391 . S
C1393 C1392 1.386 . S
C1393 C1397 1.393 . S
C1394 H1383 0.950 . S
C1394 C1392 1.391 . S
C1394 C1395 1.400 . S
C1395 C1389 1.491 . S
C1395 C1394 1.400 . S
C1395 C1396 1.398 . S
C1396 H1384 0.950 . S
C1396 C1395 1.398 . S
C1396 C1397 1.391 . S
C1397 H1385 0.950 . S
C1397 C1393 1.393 . S
C1397 C1396 1.391 . S
H1398 C1406 0.950 . S
H1399 C1411 0.950 . S
H1400 C1408 0.950 . S
H1401 C1410 0.950 . S
H1402 C1412 0.950 . S
H1403 C1414 0.950 . S
H1404 C1416 0.950 . S
H1405 C1417 0.950 . S
C1406 H1398 0.950 . S
C1406 C1407 1.386 . S
C1406 C1408 1.391 . S
C1407 C1406 1.386 . S
C1407 C1411 1.393 . S
C1408 H1400 0.950 . S
C1408 C1406 1.391 . S
C1408 C1409 1.400 . S
C1409 C1408 1.400 . S
C1409 C1410 1.398 . S
C1409 C1415 1.491 . S
C1410 H1401 0.950 . S
C1410 C1409 1.398 . S
C1410 C1411 1.391 . S
C1411 H1399 0.950 . S
C1411 C1407 1.393 . S
C1411 C1410 1.391 . S
C1412 H1402 0.950 . S
C1412 C1413 1.386 . S
C1412 C1414 1.391 . S
C1413 C1412 1.386 . S
C1413 C1417 1.393 . S
C1414 H1403 0.950 . S
C1414 C1412 1.391 . S
C1414 C1415 1.400 . S
C1415 C1409 1.491 . S
C1415 C1414 1.400 . S
C1415 C1416 1.398 . S
C1416 H1404 0.950 . S
C1416 C1415 1.398 . S
C1416 C1417 1.391 . S
C1417 H1405 0.950 . S
C1417 C1413 1.393 . S
C1417 C1416 1.391 . S
H1418 C1426 0.950 . S
H1419 C1431 0.950 . S
H1420 C1428 0.950 . S
H1421 C1430 0.950 . S
H1422 C1432 0.950 . S
H1423 C1434 0.950 . S
H1424 C1436 0.950 . S
H1425 C1437 0.950 . S
C1426 H1418 0.950 . S
C1426 C1427 1.386 . S
C1426 C1428 1.391 . S
C1427 C1426 1.386 . S
C1427 C1431 1.393 . S
C1428 H1420 0.950 . S
C1428 C1426 1.391 . S
C1428 C1429 1.400 . S
C1429 C1428 1.400 . S
C1429 C1430 1.398 . S
C1429 C1435 1.491 . S
C1430 H1421 0.950 . S
C1430 C1429 1.398 . S
C1430 C1431 1.391 . S
C1431 H1419 0.950 . S
C1431 C1427 1.393 . S
C1431 C1430 1.391 . S
C1432 H1422 0.950 . S
C1432 C1433 1.386 . S
C1432 C1434 1.391 . S
C1433 C1432 1.386 . S
C1433 C1437 1.393 . S
C1434 H1423 0.950 . S
C1434 C1432 1.391 . S
C1434 C1435 1.400 . S
C1435 C1429 1.491 . S
C1435 C1434 1.400 . S
C1435 C1436 1.398 . S
C1436 H1424 0.950 . S
C1436 C1435 1.398 . S
C1436 C1437 1.391 . S
C1437 H1425 0.950 . S
C1437 C1433 1.393 . S
C1437 C1436 1.391 . S
H1438 C1446 0.950 . S
H1439 C1451 0.950 . S
H1440 C1448 0.950 . S
H1441 C1450 0.950 . S
H1442 C1452 0.950 . S
H1443 C1454 0.950 . S
H1444 C1456 0.950 . S
H1445 C1457 0.950 . S
C1446 H1438 0.950 . S
C1446 C1447 1.386 . S
C1446 C1448 1.391 . S
C1447 C1446 1.386 . S
C1447 C1451 1.393 . S
C1448 H1440 0.950 . S
C1448 C1446 1.391 . S
C1448 C1449 1.400 . S
C1449 C1448 1.400 . S
C1449 C1450 1.398 . S
C1449 C1455 1.491 . S
C1450 H1441 0.950 . S
C1450 C1449 1.398 . S
C1450 C1451 1.391 . S
C1451 H1439 0.950 . S
C1451 C1447 1.393 . S
C1451 C1450 1.391 . S
C1452 H1442 0.950 . S
C1452 C1453 1.386 . S
C1452 C1454 1.391 . S
C1453 C1452 1.386 . S
C1453 C1457 1.393 . S
C1454 H1443 0.950 . S
C1454 C1452 1.391 . S
C1454 C1455 1.400 . S
C1455 C1449 1.491 . S
C1455 C1454 1.400 . S
C1455 C1456 1.398 . S
C1456 H1444 0.950 . S
C1456 C1455 1.398 . S
C1456 C1457 1.391 . S
C1457 H1445 0.950 . S
C1457 C1453 1.393 . S
C1457 C1456 1.391 . S
H1458 C1466 0.950 . S
H1459 C1471 0.950 . S
H1460 C1468 0.950 1_545 S
H1461 C1470 0.950 . S
H1462 C1472 0.950 . S
H1463 C1474 0.950 . S
H1464 C1476 0.950 . S
H1465 C1477 0.950 . S
C1466 H1458 0.950 . S
C1466 C1467 1.386 . S
C1466 C1468 1.391 . S
C1467 C1466 1.386 . S
C1467 C1471 1.393 . S
C1468 H1460 0.950 1_565 S
C1468 C1466 1.391 . S
C1468 C1469 1.400 . S
C1469 C1468 1.400 . S
C1469 C1470 1.398 . S
C1469 C1475 1.491 1_565 S
C1470 H1461 0.950 . S
C1470 C1469 1.398 . S
C1470 C1471 1.391 . S
C1471 H1459 0.950 . S
C1471 C1467 1.393 . S
C1471 C1470 1.391 . S
C1472 H1462 0.950 . S
C1472 C1473 1.386 . S
C1472 C1474 1.391 . S
C1473 C1472 1.386 . S
C1473 C1477 1.393 . S
C1474 H1463 0.950 . S
C1474 C1472 1.391 . S
C1474 C1475 1.400 . S
C1475 C1469 1.491 1_545 S
C1475 C1474 1.400 . S
C1475 C1476 1.398 . S
C1476 H1464 0.950 . S
C1476 C1475 1.398 . S
C1476 C1477 1.391 . S
C1477 H1465 0.950 . S
C1477 C1473 1.393 . S
C1477 C1476 1.391 . S
H1478 C1486 0.950 . S
H1479 C1491 0.950 . S
H1480 C1488 0.950 . S
H1481 C1490 0.950 . S
H1482 C1492 0.950 . S
H1483 C1494 0.950 . S
H1484 C1496 0.950 . S
H1485 C1497 0.950 . S
C1486 H1478 0.950 . S
C1486 C1487 1.386 . S
C1486 C1488 1.391 . S
C1487 C1486 1.386 . S
C1487 C1491 1.393 . S
C1488 H1480 0.950 . S
C1488 C1486 1.391 . S
C1488 C1489 1.400 . S
C1489 C1488 1.400 . S
C1489 C1490 1.398 . S
C1489 C1495 1.491 1_455 S
C1490 H1481 0.950 . S
C1490 C1489 1.398 . S
C1490 C1491 1.391 . S
C1491 H1479 0.950 . S
C1491 C1487 1.393 . S
C1491 C1490 1.391 . S
C1492 H1482 0.950 . S
C1492 C1493 1.386 . S
C1492 C1494 1.391 . S
C1493 C1492 1.386 . S
C1493 C1497 1.393 . S
C1494 H1483 0.950 . S
C1494 C1492 1.391 . S
C1494 C1495 1.400 . S
C1495 C1489 1.491 1_655 S
C1495 C1494 1.400 . S
C1495 C1496 1.398 . S
C1496 H1484 0.950 . S
C1496 C1495 1.398 . S
C1496 C1497 1.391 . S
C1497 H1485 0.950 . S
C1497 C1493 1.393 . S
C1497 C1496 1.391 . S
H1498 C1506 0.950 . S
H1499 C1511 0.950 . S
H1500 C1508 0.950 . S
H1501 C1510 0.950 . S
H1502 C1512 0.950 . S
H1503 C1514 0.950 . S
H1504 C1516 0.950 . S
H1505 C1517 0.950 . S
C1506 H1498 0.950 . S
C1506 C1507 1.386 . S
C1506 C1508 1.391 . S
C1507 C1506 1.386 . S
C1507 C1511 1.393 . S
C1508 H1500 0.950 . S
C1508 C1506 1.391 . S
C1508 C1509 1.400 . S
C1509 C1508 1.400 . S
C1509 C1510 1.398 . S
C1509 C1515 1.491 . S
C1510 H1501 0.950 . S
C1510 C1509 1.398 . S
C1510 C1511 1.391 . S
C1511 H1499 0.950 . S
C1511 C1507 1.393 . S
C1511 C1510 1.391 . S
C1512 H1502 0.950 . S
C1512 C1513 1.386 . S
C1512 C1514 1.391 . S
C1513 C1512 1.386 . S
C1513 C1517 1.393 . S
C1514 H1503 0.950 . S
C1514 C1512 1.391 . S
C1514 C1515 1.400 . S
C1515 C1509 1.491 . S
C1515 C1514 1.400 . S
C1515 C1516 1.398 . S
C1516 H1504 0.950 . S
C1516 C1515 1.398 . S
C1516 C1517 1.391 . S
C1517 H1505 0.950 . S
C1517 C1513 1.393 . S
C1517 C1516 1.391 . S
H1518 C1526 0.950 . S
H1519 C1531 0.950 . S
H1520 C1528 0.950 . S
H1521 C1530 0.950 . S
H1522 C1532 0.950 . S
H1523 C1534 0.950 . S
H1524 C1536 0.950 . S
H1525 C1537 0.950 . S
C1526 H1518 0.950 . S
C1526 C1527 1.386 . S
C1526 C1528 1.391 . S
C1527 C1526 1.386 . S
C1527 C1531 1.393 . S
C1528 H1520 0.950 . S
C1528 C1526 1.391 . S
C1528 C1529 1.400 . S
C1529 C1528 1.400 . S
C1529 C1530 1.398 . S
C1529 C1535 1.491 1_455 S
C1530 H1521 0.950 . S
C1530 C1529 1.398 . S
C1530 C1531 1.391 . S
C1531 H1519 0.950 . S
C1531 C1527 1.393 . S
C1531 C1530 1.391 . S
C1532 H1522 0.950 . S
C1532 C1533 1.386 . S
C1532 C1534 1.391 . S
C1533 C1532 1.386 . S
C1533 C1537 1.393 . S
C1534 H1523 0.950 . S
C1534 C1532 1.391 . S
C1534 C1535 1.400 . S
C1535 C1529 1.491 1_655 S
C1535 C1534 1.400 . S
C1535 C1536 1.398 . S
C1536 H1524 0.950 . S
C1536 C1535 1.398 . S
C1536 C1537 1.391 . S
C1537 H1525 0.950 . S
C1537 C1533 1.393 . S
C1537 C1536 1.391 . S
H1538 C1546 0.950 . S
H1539 C1551 0.950 . S
H1540 C1548 0.950 . S
H1541 C1550 0.950 . S
H1542 C1552 0.950 . S
H1543 C1554 0.950 . S
H1544 C1556 0.950 . S
H1545 C1557 0.950 . S
C1546 H1538 0.950 . S
C1546 C1547 1.386 . S
C1546 C1548 1.391 . S
C1547 C1546 1.386 . S
C1547 C1551 1.393 . S
C1548 H1540 0.950 . S
C1548 C1546 1.391 . S
C1548 C1549 1.400 . S
C1549 C1548 1.400 . S
C1549 C1550 1.398 . S
C1549 C1555 1.491 . S
C1550 H1541 0.950 . S
C1550 C1549 1.398 . S
C1550 C1551 1.391 . S
C1551 H1539 0.950 . S
C1551 C1547 1.393 . S
C1551 C1550 1.391 . S
C1552 H1542 0.950 . S
C1552 C1553 1.386 . S
C1552 C1554 1.391 . S
C1553 C1552 1.386 . S
C1553 C1557 1.393 . S
C1554 H1543 0.950 . S
C1554 C1552 1.391 . S
C1554 C1555 1.400 . S
C1555 C1549 1.491 . S
C1555 C1554 1.400 . S
C1555 C1556 1.398 . S
C1556 H1544 0.950 . S
C1556 C1555 1.398 . S
C1556 C1557 1.391 . S
C1557 H1545 0.950 . S
C1557 C1553 1.393 . S
C1557 C1556 1.391 . S
H1558 C1566 0.950 . S
H1559 C1571 0.950 . S
H1560 C1568 0.950 . S
H1561 C1570 0.950 . S
H1562 C1572 0.950 . S
H1563 C1574 0.950 . S
H1564 C1576 0.950 . S
H1565 C1577 0.950 . S
C1566 H1558 0.950 . S
C1566 C1567 1.386 . S
C1566 C1568 1.391 . S
C1567 C1566 1.386 . S
C1567 C1571 1.393 . S
C1568 H1560 0.950 . S
C1568 C1566 1.391 . S
C1568 C1569 1.400 . S
C1569 C1568 1.400 . S
C1569 C1570 1.398 . S
C1569 C1575 1.491 1_565 S
C1570 H1561 0.950 . S
C1570 C1569 1.398 . S
C1570 C1571 1.391 . S
C1571 H1559 0.950 . S
C1571 C1567 1.393 . S
C1571 C1570 1.391 . S
C1572 H1562 0.950 . S
C1572 C1573 1.386 . S
C1572 C1574 1.391 . S
C1573 C1572 1.386 . S
C1573 C1577 1.393 . S
C1574 H1563 0.950 . S
C1574 C1572 1.391 . S
C1574 C1575 1.400 . S
C1575 C1569 1.491 1_545 S
C1575 C1574 1.400 . S
C1575 C1576 1.398 . S
C1576 H1564 0.950 . S
C1576 C1575 1.398 . S
C1576 C1577 1.391 . S
C1577 H1565 0.950 . S
C1577 C1573 1.393 . S
C1577 C1576 1.391 . S
H1578 C1586 0.950 . S
H1579 C1591 0.950 . S
H1580 C1588 0.950 . S
H1581 C1590 0.950 . S
H1582 C1592 0.950 . S
H1583 C1594 0.950 . S
H1584 C1596 0.950 . S
H1585 C1597 0.950 . S
C1586 H1578 0.950 . S
C1586 C1587 1.386 . S
C1586 C1588 1.391 . S
C1587 C1586 1.386 . S
C1587 C1591 1.393 . S
C1588 H1580 0.950 . S
C1588 C1586 1.391 . S
C1588 C1589 1.400 . S
C1589 C1588 1.400 . S
C1589 C1590 1.398 . S
C1589 C1595 1.491 . S
C1590 H1581 0.950 . S
C1590 C1589 1.398 . S
C1590 C1591 1.391 . S
C1591 H1579 0.950 . S
C1591 C1587 1.393 . S
C1591 C1590 1.391 . S
C1592 H1582 0.950 . S
C1592 C1593 1.386 . S
C1592 C1594 1.391 . S
C1593 C1592 1.386 . S
C1593 C1597 1.393 . S
C1594 H1583 0.950 . S
C1594 C1592 1.391 . S
C1594 C1595 1.400 . S
C1595 C1589 1.491 . S
C1595 C1594 1.400 . S
C1595 C1596 1.398 . S
C1596 H1584 0.950 . S
C1596 C1595 1.398 . S
C1596 C1597 1.391 . S
C1597 H1585 0.950 . S
C1597 C1593 1.393 . S
C1597 C1596 1.391 . S
H1598 C1606 0.950 . S
H1599 C1611 0.950 . S
H1600 C1608 0.950 . S
H1601 C1610 0.950 . S
H1602 C1612 0.950 . S
H1603 C1614 0.950 . S
H1604 C1616 0.950 . S
H1605 C1617 0.950 . S
C1606 H1598 0.950 . S
C1606 C1607 1.386 . S
C1606 C1608 1.391 . S
C1607 C1606 1.386 . S
C1607 C1611 1.393 . S
C1608 H1600 0.950 . S
C1608 C1606 1.391 . S
C1608 C1609 1.400 . S
C1609 C1608 1.400 . S
C1609 C1610 1.398 . S
C1609 C1615 1.491 . S
C1610 H1601 0.950 . S
C1610 C1609 1.398 . S
C1610 C1611 1.391 . S
C1611 H1599 0.950 . S
C1611 C1607 1.393 . S
C1611 C1610 1.391 . S
C1612 H1602 0.950 . S
C1612 C1613 1.386 . S
C1612 C1614 1.391 . S
C1613 C1612 1.386 . S
C1613 C1617 1.393 . S
C1614 H1603 0.950 . S
C1614 C1612 1.391 . S
C1614 C1615 1.400 . S
C1615 C1609 1.491 . S
C1615 C1614 1.400 . S
C1615 C1616 1.398 . S
C1616 H1604 0.950 . S
C1616 C1615 1.398 . S
C1616 C1617 1.391 . S
C1617 H1605 0.950 . S
C1617 C1613 1.393 . S
C1617 C1616 1.391 . S
H1618 C1626 0.950 . S
H1619 C1631 0.950 . S
H1620 C1628 0.950 . S
H1621 C1630 0.950 . S
H1622 C1632 0.950 . S
H1623 C1634 0.950 . S
H1624 C1636 0.950 . S
H1625 C1637 0.950 . S
C1626 H1618 0.950 . S
C1626 C1627 1.386 . S
C1626 C1628 1.391 . S
C1627 C1626 1.386 . S
C1627 C1631 1.393 . S
C1628 H1620 0.950 . S
C1628 C1626 1.391 . S
C1628 C1629 1.400 . S
C1629 C1628 1.400 . S
C1629 C1630 1.398 . S
C1629 C1635 1.491 . S
C1630 H1621 0.950 . S
C1630 C1629 1.398 . S
C1630 C1631 1.391 . S
C1631 H1619 0.950 . S
C1631 C1627 1.393 . S
C1631 C1630 1.391 . S
C1632 H1622 0.950 . S
C1632 C1633 1.386 . S
C1632 C1634 1.391 . S
C1633 C1632 1.386 . S
C1633 C1637 1.393 . S
C1634 H1623 0.950 . S
C1634 C1632 1.391 . S
C1634 C1635 1.400 . S
C1635 C1629 1.491 . S
C1635 C1634 1.400 . S
C1635 C1636 1.398 . S
C1636 H1624 0.950 . S
C1636 C1635 1.398 . S
C1636 C1637 1.391 . S
C1637 H1625 0.950 . S
C1637 C1633 1.393 . S
C1637 C1636 1.391 . S
H1638 C1646 0.950 . S
H1639 C1651 0.950 . S
H1640 C1648 0.950 . S
H1641 C1650 0.950 . S
H1642 C1652 0.950 . S
H1643 C1654 0.950 . S
H1644 C1656 0.950 . S
H1645 C1657 0.950 . S
C1646 H1638 0.950 . S
C1646 C1647 1.386 . S
C1646 C1648 1.391 . S
C1647 C1646 1.386 . S
C1647 C1651 1.393 . S
C1648 H1640 0.950 . S
C1648 C1646 1.391 . S
C1648 C1649 1.400 . S
C1649 C1648 1.400 . S
C1649 C1650 1.398 . S
C1649 C1655 1.491 . S
C1650 H1641 0.950 . S
C1650 C1649 1.398 . S
C1650 C1651 1.391 . S
C1651 H1639 0.950 . S
C1651 C1647 1.393 . S
C1651 C1650 1.391 . S
C1652 H1642 0.950 . S
C1652 C1653 1.386 . S
C1652 C1654 1.391 . S
C1653 C1652 1.386 . S
C1653 C1657 1.393 . S
C1654 H1643 0.950 . S
C1654 C1652 1.391 . S
C1654 C1655 1.400 . S
C1655 C1649 1.491 . S
C1655 C1654 1.400 . S
C1655 C1656 1.398 . S
C1656 H1644 0.950 . S
C1656 C1655 1.398 . S
C1656 C1657 1.391 . S
C1657 H1645 0.950 . S
C1657 C1653 1.393 . S
C1657 C1656 1.391 . S
H1658 C1666 0.950 . S
H1659 C1671 0.950 . S
H1660 C1668 0.950 . S
H1661 C1670 0.950 . S
H1662 C1672 0.950 . S
H1663 C1674 0.950 . S
H1664 C1676 0.950 . S
H1665 C1677 0.950 1_655 S
C1666 H1658 0.950 . S
C1666 C1667 1.386 . S
C1666 C1668 1.391 . S
C1667 C1666 1.386 . S
C1667 C1671 1.393 . S
C1668 H1660 0.950 . S
C1668 C1666 1.391 . S
C1668 C1669 1.400 . S
C1669 C1668 1.400 . S
C1669 C1670 1.398 . S
C1669 C1675 1.491 . S
C1670 H1661 0.950 . S
C1670 C1669 1.398 . S
C1670 C1671 1.391 . S
C1671 H1659 0.950 . S
C1671 C1667 1.393 . S
C1671 C1670 1.391 . S
C1672 H1662 0.950 . S
C1672 C1673 1.386 . S
C1672 C1674 1.391 . S
C1673 C1672 1.386 . S
C1673 C1677 1.393 . S
C1674 H1663 0.950 . S
C1674 C1672 1.391 . S
C1674 C1675 1.400 . S
C1675 C1669 1.491 . S
C1675 C1674 1.400 . S
C1675 C1676 1.398 . S
C1676 H1664 0.950 . S
C1676 C1675 1.398 . S
C1676 C1677 1.391 . S
C1677 H1665 0.950 1_455 S
C1677 C1673 1.393 . S
C1677 C1676 1.391 . S
H1678 C1686 0.950 . S
H1679 C1691 0.950 . S
H1680 C1688 0.950 . S
H1681 C1690 0.950 . S
H1682 C1692 0.950 . S
H1683 C1694 0.950 . S
H1684 C1696 0.950 . S
H1685 C1697 0.950 . S
C1686 H1678 0.950 . S
C1686 C1687 1.386 . S
C1686 C1688 1.391 . S
C1687 C1686 1.386 . S
C1687 C1691 1.393 . S
C1688 H1680 0.950 . S
C1688 C1686 1.391 . S
C1688 C1689 1.400 . S
C1689 C1688 1.400 . S
C1689 C1690 1.398 . S
C1689 C1695 1.491 . S
C1690 H1681 0.950 . S
C1690 C1689 1.398 . S
C1690 C1691 1.391 . S
C1691 H1679 0.950 . S
C1691 C1687 1.393 . S
C1691 C1690 1.391 . S
C1692 H1682 0.950 . S
C1692 C1693 1.386 . S
C1692 C1694 1.391 . S
C1693 C1692 1.386 . S
C1693 C1697 1.393 . S
C1694 H1683 0.950 . S
C1694 C1692 1.391 . S
C1694 C1695 1.400 . S
C1695 C1689 1.491 . S
C1695 C1694 1.400 . S
C1695 C1696 1.398 . S
C1696 H1684 0.950 . S
C1696 C1695 1.398 . S
C1696 C1697 1.391 . S
C1697 H1685 0.950 . S
C1697 C1693 1.393 . S
C1697 C1696 1.391 . S
H1698 C1706 0.950 . S
H1699 C1711 0.950 . S
H1700 C1708 0.950 . S
H1701 C1710 0.950 . S
H1702 C1712 0.950 . S
H1703 C1714 0.950 . S
H1704 C1716 0.950 . S
H1705 C1717 0.950 . S
C1706 H1698 0.950 . S
C1706 C1707 1.386 . S
C1706 C1708 1.391 . S
C1707 C1706 1.386 . S
C1707 C1711 1.393 . S
C1708 H1700 0.950 . S
C1708 C1706 1.391 . S
C1708 C1709 1.400 . S
C1709 C1708 1.400 . S
C1709 C1710 1.398 . S
C1709 C1715 1.491 . S
C1710 H1701 0.950 . S
C1710 C1709 1.398 . S
C1710 C1711 1.391 . S
C1711 H1699 0.950 . S
C1711 C1707 1.393 . S
C1711 C1710 1.391 . S
C1712 H1702 0.950 . S
C1712 C1713 1.386 . S
C1712 C1714 1.391 . S
C1713 C1712 1.386 . S
C1713 C1717 1.393 . S
C1714 H1703 0.950 . S
C1714 C1712 1.391 . S
C1714 C1715 1.400 . S
C1715 C1709 1.491 . S
C1715 C1714 1.400 . S
C1715 C1716 1.398 . S
C1716 H1704 0.950 . S
C1716 C1715 1.398 . S
C1716 C1717 1.391 . S
C1717 H1705 0.950 . S
C1717 C1713 1.393 . S
C1717 C1716 1.391 . S
H1718 C1726 0.950 . S
H1719 C1731 0.950 . S
H1720 C1728 0.950 . S
H1721 C1730 0.950 . S
H1722 C1732 0.950 . S
H1723 C1734 0.950 . S
H1724 C1736 0.950 . S
H1725 C1737 0.950 . S
C1726 H1718 0.950 . S
C1726 C1727 1.386 . S
C1726 C1728 1.391 . S
C1727 C1726 1.386 . S
C1727 C1731 1.393 . S
C1728 H1720 0.950 . S
C1728 C1726 1.391 . S
C1728 C1729 1.400 . S
C1729 C1728 1.400 . S
C1729 C1730 1.398 . S
C1729 C1735 1.491 . S
C1730 H1721 0.950 . S
C1730 C1729 1.398 . S
C1730 C1731 1.391 . S
C1731 H1719 0.950 . S
C1731 C1727 1.393 . S
C1731 C1730 1.391 . S
C1732 H1722 0.950 . S
C1732 C1733 1.386 . S
C1732 C1734 1.391 . S
C1733 C1732 1.386 . S
C1733 C1737 1.393 . S
C1734 H1723 0.950 . S
C1734 C1732 1.391 . S
C1734 C1735 1.400 . S
C1735 C1729 1.491 . S
C1735 C1734 1.400 . S
C1735 C1736 1.398 . S
C1736 H1724 0.950 . S
C1736 C1735 1.398 . S
C1736 C1737 1.391 . S
C1737 H1725 0.950 . S
C1737 C1733 1.393 . S
C1737 C1736 1.391 . S
H1738 C1746 0.950 . S
H1739 C1751 0.950 . S
H1740 C1748 0.950 . S
H1741 C1750 0.950 . S
H1742 C1752 0.950 . S
H1743 C1754 0.950 . S
H1744 C1756 0.950 . S
H1745 C1757 0.950 . S
C1746 H1738 0.950 . S
C1746 C1747 1.386 . S
C1746 C1748 1.391 . S
C1747 C1746 1.386 . S
C1747 C1751 1.393 . S
C1748 H1740 0.950 . S
C1748 C1746 1.391 . S
C1748 C1749 1.400 . S
C1749 C1748 1.400 . S
C1749 C1750 1.398 . S
C1749 C1755 1.491 . S
C1750 H1741 0.950 . S
C1750 C1749 1.398 . S
C1750 C1751 1.391 . S
C1751 H1739 0.950 . S
C1751 C1747 1.393 . S
C1751 C1750 1.391 . S
C1752 H1742 0.950 . S
C1752 C1753 1.386 . S
C1752 C1754 1.391 . S
C1753 C1752 1.386 . S
C1753 C1757 1.393 . S
C1754 H1743 0.950 . S
C1754 C1752 1.391 . S
C1754 C1755 1.400 . S
C1755 C1749 1.491 . S
C1755 C1754 1.400 . S
C1755 C1756 1.398 . S
C1756 H1744 0.950 . S
C1756 C1755 1.398 . S
C1756 C1757 1.391 . S
C1757 H1745 0.950 . S
C1757 C1753 1.393 . S
C1757 C1756 1.391 . S
H1758 C1766 0.950 . S
H1759 C1771 0.950 . S
H1760 C1768 0.950 . S
H1761 C1770 0.950 . S
H1762 C1772 0.950 . S
H1763 C1774 0.950 . S
H1764 C1776 0.950 . S
H1765 C1777 0.950 . S
C1766 H1758 0.950 . S
C1766 C1767 1.386 . S
C1766 C1768 1.391 . S
C1767 C1766 1.386 . S
C1767 C1771 1.393 . S
C1768 H1760 0.950 . S
C1768 C1766 1.391 . S
C1768 C1769 1.400 . S
C1769 C1768 1.400 . S
C1769 C1770 1.398 . S
C1769 C1775 1.491 . S
C1770 H1761 0.950 . S
C1770 C1769 1.398 . S
C1770 C1771 1.391 . S
C1771 H1759 0.950 . S
C1771 C1767 1.393 . S
C1771 C1770 1.391 . S
C1772 H1762 0.950 . S
C1772 C1773 1.386 . S
C1772 C1774 1.391 . S
C1773 C1772 1.386 . S
C1773 C1777 1.393 . S
C1774 H1763 0.950 . S
C1774 C1772 1.391 . S
C1774 C1775 1.400 . S
C1775 C1769 1.491 . S
C1775 C1774 1.400 . S
C1775 C1776 1.398 . S
C1776 H1764 0.950 . S
C1776 C1775 1.398 . S
C1776 C1777 1.391 . S
C1777 H1765 0.950 . S
C1777 C1773 1.393 . S
C1777 C1776 1.391 . S
H1778 C1786 0.950 . S
H1779 C1791 0.950 . S
H1780 C1788 0.950 . S
H1781 C1790 0.950 . S
H1782 C1792 0.950 . S
H1783 C1794 0.950 . S
H1784 C1796 0.950 . S
H1785 C1797 0.950 . S
C1786 H1778 0.950 . S
C1786 C1787 1.386 . S
C1786 C1788 1.391 . S
C1787 C1786 1.386 . S
C1787 C1791 1.393 . S
C1788 H1780 0.950 . S
C1788 C1786 1.391 . S
C1788 C1789 1.400 . S
C1789 C1788 1.400 . S
C1789 C1790 1.398 . S
C1789 C1795 1.491 . S
C1790 H1781 0.950 . S
C1790 C1789 1.398 . S
C1790 C1791 1.391 . S
C1791 H1779 0.950 . S
C1791 C1787 1.393 . S
C1791 C1790 1.391 . S
C1792 H1782 0.950 . S
C1792 C1793 1.386 . S
C1792 C1794 1.391 . S
C1793 C1792 1.386 . S
C1793 C1797 1.393 . S
C1794 H1783 0.950 . S
C1794 C1792 1.391 . S
C1794 C1795 1.400 . S
C1795 C1789 1.491 . S
C1795 C1794 1.400 . S
C1795 C1796 1.398 . S
C1796 H1784 0.950 . S
C1796 C1795 1.398 . S
C1796 C1797 1.391 . S
C1797 H1785 0.950 . S
C1797 C1793 1.393 . S
C1797 C1796 1.391 . S
H1798 C1806 0.950 . S
H1799 C1811 0.950 . S
H1800 C1808 0.950 . S
H1801 C1810 0.950 . S
H1802 C1812 0.950 . S
H1803 C1814 0.950 . S
H1804 C1816 0.950 . S
H1805 C1817 0.950 . S
C1806 H1798 0.950 . S
C1806 C1807 1.386 . S
C1806 C1808 1.391 . S
C1807 C1806 1.386 . S
C1807 C1811 1.393 . S
C1808 H1800 0.950 . S
C1808 C1806 1.391 . S
C1808 C1809 1.400 . S
C1809 C1808 1.400 . S
C1809 C1810 1.398 . S
C1809 C1815 1.491 . S
C1810 H1801 0.950 . S
C1810 C1809 1.398 . S
C1810 C1811 1.391 . S
C1811 H1799 0.950 . S
C1811 C1807 1.393 . S
C1811 C1810 1.391 . S
C1812 H1802 0.950 . S
C1812 C1813 1.386 . S
C1812 C1814 1.391 . S
C1813 C1812 1.386 . S
C1813 C1817 1.393 . S
C1814 H1803 0.950 . S
C1814 C1812 1.391 . S
C1814 C1815 1.400 . S
C1815 C1809 1.491 . S
C1815 C1814 1.400 . S
C1815 C1816 1.398 . S
C1816 H1804 0.950 . S
C1816 C1815 1.398 . S
C1816 C1817 1.391 . S
C1817 H1805 0.950 . S
C1817 C1813 1.393 . S
C1817 C1816 1.391 . S
H1818 C1826 0.950 . S
H1819 C1831 0.950 . S
H1820 C1828 0.950 . S
H1821 C1830 0.950 . S
H1822 C1832 0.950 . S
H1823 C1834 0.950 . S
H1824 C1836 0.950 . S
H1825 C1837 0.950 . S
C1826 H1818 0.950 . S
C1826 C1827 1.386 . S
C1826 C1828 1.391 . S
C1827 C1826 1.386 . S
C1827 C1831 1.393 . S
C1828 H1820 0.950 . S
C1828 C1826 1.391 . S
C1828 C1829 1.400 . S
C1829 C1828 1.400 . S
C1829 C1830 1.398 . S
C1829 C1835 1.491 . S
C1830 H1821 0.950 . S
C1830 C1829 1.398 . S
C1830 C1831 1.391 . S
C1831 H1819 0.950 . S
C1831 C1827 1.393 . S
C1831 C1830 1.391 . S
C1832 H1822 0.950 . S
C1832 C1833 1.386 . S
C1832 C1834 1.391 . S
C1833 C1832 1.386 . S
C1833 C1837 1.393 . S
C1834 H1823 0.950 . S
C1834 C1832 1.391 . S
C1834 C1835 1.400 . S
C1835 C1829 1.491 . S
C1835 C1834 1.400 . S
C1835 C1836 1.398 . S
C1836 H1824 0.950 . S
C1836 C1835 1.398 . S
C1836 C1837 1.391 . S
C1837 H1825 0.950 . S
C1837 C1833 1.393 . S
C1837 C1836 1.391 . S
H1838 C1846 0.950 . S
H1839 C1851 0.950 . S
H1840 C1848 0.950 . S
H1841 C1850 0.950 . S
H1842 C1852 0.950 . S
H1843 C1854 0.950 . S
H1844 C1856 0.950 . S
H1845 C1857 0.950 . S
C1846 H1838 0.950 . S
C1846 C1847 1.386 . S
C1846 C1848 1.391 . S
C1847 C1846 1.386 . S
C1847 C1851 1.393 . S
C1848 H1840 0.950 . S
C1848 C1846 1.391 . S
C1848 C1849 1.400 . S
C1849 C1848 1.400 . S
C1849 C1850 1.398 . S
C1849 C1855 1.491 . S
C1850 H1841 0.950 . S
C1850 C1849 1.398 . S
C1850 C1851 1.391 . S
C1851 H1839 0.950 . S
C1851 C1847 1.393 . S
C1851 C1850 1.391 . S
C1852 H1842 0.950 . S
C1852 C1853 1.386 . S
C1852 C1854 1.391 . S
C1853 C1852 1.386 . S
C1853 C1857 1.393 . S
C1854 H1843 0.950 . S
C1854 C1852 1.391 . S
C1854 C1855 1.400 . S
C1855 C1849 1.491 . S
C1855 C1854 1.400 . S
C1855 C1856 1.398 . S
C1856 H1844 0.950 . S
C1856 C1855 1.398 . S
C1856 C1857 1.391 . S
C1857 H1845 0.950 . S
C1857 C1853 1.393 . S
C1857 C1856 1.391 . S
H1858 C1866 0.950 . S
H1859 C1871 0.950 . S
H1860 C1868 0.950 . S
H1861 C1870 0.950 . S
H1862 C1872 0.950 . S
H1863 C1874 0.950 . S
H1864 C1876 0.950 . S
H1865 C1877 0.950 . S
C1866 H1858 0.950 . S
C1866 C1867 1.386 . S
C1866 C1868 1.391 . S
C1867 C1866 1.386 . S
C1867 C1871 1.393 . S
C1868 H1860 0.950 . S
C1868 C1866 1.391 . S
C1868 C1869 1.400 . S
C1869 C1868 1.400 . S
C1869 C1870 1.398 . S
C1869 C1875 1.491 . S
C1870 H1861 0.950 . S
C1870 C1869 1.398 . S
C1870 C1871 1.391 . S
C1871 H1859 0.950 . S
C1871 C1867 1.393 . S
C1871 C1870 1.391 . S
C1872 H1862 0.950 . S
C1872 C1873 1.386 . S
C1872 C1874 1.391 . S
C1873 C1872 1.386 . S
C1873 C1877 1.393 . S
C1874 H1863 0.950 . S
C1874 C1872 1.391 . S
C1874 C1875 1.400 . S
C1875 C1869 1.491 . S
C1875 C1874 1.400 . S
C1875 C1876 1.398 . S
C1876 H1864 0.950 . S
C1876 C1875 1.398 . S
C1876 C1877 1.391 . S
C1877 H1865 0.950 . S
C1877 C1873 1.393 . S
C1877 C1876 1.391 . S
H1878 C1886 0.950 . S
H1879 C1891 0.950 . S
H1880 C1888 0.950 . S
H1881 C1890 0.950 . S
H1882 C1892 0.950 . S
H1883 C1894 0.950 . S
H1884 C1896 0.950 . S
H1885 C1897 0.950 . S
C1886 H1878 0.950 . S
C1886 C1887 1.386 . S
C1886 C1888 1.391 . S
C1887 C1886 1.386 . S
C1887 C1891 1.393 . S
C1888 H1880 0.950 . S
C1888 C1886 1.391 . S
C1888 C1889 1.400 . S
C1889 C1888 1.400 . S
C1889 C1890 1.398 . S
C1889 C1895 1.491 . S
C1890 H1881 0.950 . S
C1890 C1889 1.398 . S
C1890 C1891 1.391 . S
C1891 H1879 0.950 . S
C1891 C1887 1.393 . S
C1891 C1890 1.391 . S
C1892 H1882 0.950 . S
C1892 C1893 1.386 . S
C1892 C1894 1.391 . S
C1893 C1892 1.386 . S
C1893 C1897 1.393 . S
C1894 H1883 0.950 . S
C1894 C1892 1.391 . S
C1894 C1895 1.400 . S
C1895 C1889 1.491 . S
C1895 C1894 1.400 . S
C1895 C1896 1.398 . S
C1896 H1884 0.950 . S
C1896 C1895 1.398 . S
C1896 C1897 1.391 . S
C1897 H1885 0.950 . S
C1897 C1893 1.393 . S
C1897 C1896 1.391 . S
H1898 C1906 0.950 . S
H1899 C1911 0.950 . S
H1900 C1908 0.950 . S
H1901 C1910 0.950 . S
H1902 C1912 0.950 . S
H1903 C1914 0.950 . S
H1904 C1916 0.950 . S
H1905 C1917 0.950 . S
C1906 H1898 0.950 . S
C1906 C1907 1.386 . S
C1906 C1908 1.391 . S
C1907 C1906 1.386 . S
C1907 C1911 1.393 . S
C1908 H1900 0.950 . S
C1908 C1906 1.391 . S
C1908 C1909 1.400 . S
C1909 C1908 1.400 . S
C1909 C1910 1.398 . S
C1909 C1915 1.491 . S
C1910 H1901 0.950 . S
C1910 C1909 1.398 . S
C1910 C1911 1.391 . S
C1911 H1899 0.950 . S
C1911 C1907 1.393 . S
C1911 C1910 1.391 . S
C1912 H1902 0.950 . S
C1912 C1913 1.386 . S
C1912 C1914 1.391 . S
C1913 C1912 1.386 . S
C1913 C1917 1.393 . S
C1914 H1903 0.950 . S
C1914 C1912 1.391 . S
C1914 C1915 1.400 . S
C1915 C1909 1.491 . S
C1915 C1914 1.400 . S
C1915 C1916 1.398 . S
C1916 H1904 0.950 . S
C1916 C1915 1.398 . S
C1916 C1917 1.391 . S
C1917 H1905 0.950 . S
C1917 C1913 1.393 . S
C1917 C1916 1.391 . S
H1918 C1926 0.950 . S
H1919 C1931 0.950 . S
H1920 C1928 0.950 . S
H1921 C1930 0.950 . S
H1922 C1932 0.950 . S
H1923 C1934 0.950 . S
H1924 C1936 0.950 . S
H1925 C1937 0.950 . S
C1926 H1918 0.950 . S
C1926 C1927 1.386 . S
C1926 C1928 1.391 . S
C1927 C1926 1.386 . S
C1927 C1931 1.393 . S
C1928 H1920 0.950 . S
C1928 C1926 1.391 . S
C1928 C1929 1.400 . S
C1929 C1928 1.400 . S
C1929 C1930 1.398 . S
C1929 C1935 1.491 . S
C1930 H1921 0.950 . S
C1930 C1929 1.398 . S
C1930 C1931 1.391 . S
C1931 H1919 0.950 . S
C1931 C1927 1.393 . S
C1931 C1930 1.391 . S
C1932 H1922 0.950 . S
C1932 C1933 1.386 . S
C1932 C1934 1.391 . S
C1933 C1932 1.386 . S
C1933 C1937 1.393 . S
C1934 H1923 0.950 . S
C1934 C1932 1.391 . S
C1934 C1935 1.400 . S
C1935 C1929 1.491 . S
C1935 C1934 1.400 . S
C1935 C1936 1.398 . S
C1936 H1924 0.950 . S
C1936 C1935 1.398 . S
C1936 C1937 1.391 . S
C1937 H1925 0.950 . S
C1937 C1933 1.393 . S
C1937 C1936 1.391 . S
H1938 C1946 0.950 . S
H1939 C1951 0.950 . S
H1940 C1948 0.950 . S
H1941 C1950 0.950 . S
H1942 C1952 0.950 . S
H1943 C1954 0.950 . S
H1944 C1956 0.950 . S
H1945 C1957 0.950 . S
C1946 H1938 0.950 . S
C1946 C1947 1.386 . S
C1946 C1948 1.391 . S
C1947 C1946 1.386 . S
C1947 C1951 1.393 . S
C1948 H1940 0.950 . S
C1948 C1946 1.391 . S
C1948 C1949 1.400 . S
C1949 C1948 1.400 . S
C1949 C1950 1.398 . S
C1949 C1955 1.491 . S
C1950 H1941 0.950 . S
C1950 C1949 1.398 . S
C1950 C1951 1.391 . S
C1951 H1939 0.950 . S
C1951 C1947 1.393 . S
C1951 C1950 1.391 . S
C1952 H1942 0.950 . S
C1952 C1953 1.386 . S
C1952 C1954 1.391 . S
C1953 C1952 1.386 . S
C1953 C1957 1.393 . S
C1954 H1943 0.950 . S
C1954 C1952 1.391 . S
C1954 C1955 1.400 . S
C1955 C1949 1.491 . S
C1955 C1954 1.400 . S
C1955 C1956 1.398 . S
C1956 H1944 0.950 . S
C1956 C1955 1.398 . S
C1956 C1957 1.391 . S
C1957 H1945 0.950 . S
C1957 C1953 1.393 . S
C1957 C1956 1.391 . S
H1958 C1966 0.950 . S
H1959 C1971 0.950 . S
H1960 C1968 0.950 . S
H1961 C1970 0.950 . S
H1962 C1972 0.950 . S
H1963 C1974 0.950 . S
H1964 C1976 0.950 . S
H1965 C1977 0.950 . S
C1966 H1958 0.950 . S
C1966 C1967 1.386 . S
C1966 C1968 1.391 . S
C1967 C1966 1.386 . S
C1967 C1971 1.393 . S
C1968 H1960 0.950 . S
C1968 C1966 1.391 . S
C1968 C1969 1.400 . S
C1969 C1968 1.400 . S
C1969 C1970 1.398 . S
C1969 C1975 1.491 . S
C1970 H1961 0.950 . S
C1970 C1969 1.398 . S
C1970 C1971 1.391 . S
C1971 H1959 0.950 . S
C1971 C1967 1.393 . S
C1971 C1970 1.391 . S
C1972 H1962 0.950 . S
C1972 C1973 1.386 . S
C1972 C1974 1.391 . S
C1973 C1972 1.386 . S
C1973 C1977 1.393 . S
C1974 H1963 0.950 . S
C1974 C1972 1.391 . S
C1974 C1975 1.400 . S
C1975 C1969 1.491 . S
C1975 C1974 1.400 . S
C1975 C1976 1.398 . S
C1976 H1964 0.950 . S
C1976 C1975 1.398 . S
C1976 C1977 1.391 . S
C1977 H1965 0.950 . S
C1977 C1973 1.393 . S
C1977 C1976 1.391 . S
H1978 C1986 0.950 . S
H1979 C1991 0.950 . S
H1980 C1988 0.950 . S
H1981 C1990 0.950 . S
H1982 C1992 0.950 . S
H1983 C1994 0.950 . S
H1984 C1996 0.950 . S
H1985 C1997 0.950 . S
C1986 H1978 0.950 . S
C1986 C1987 1.386 . S
C1986 C1988 1.391 . S
C1987 C1986 1.386 . S
C1987 C1991 1.393 . S
C1988 H1980 0.950 . S
C1988 C1986 1.391 . S
C1988 C1989 1.400 . S
C1989 C1988 1.400 . S
C1989 C1990 1.398 . S
C1989 C1995 1.491 . S
C1990 H1981 0.950 . S
C1990 C1989 1.398 . S
C1990 C1991 1.391 . S
C1991 H1979 0.950 . S
C1991 C1987 1.393 . S
C1991 C1990 1.391 . S
C1992 H1982 0.950 . S
C1992 C1993 1.386 . S
C1992 C1994 1.391 . S
C1993 C1992 1.386 . S
C1993 C1997 1.393 . S
C1994 H1983 0.950 . S
C1994 C1992 1.391 . S
C1994 C1995 1.400 . S
C1995 C1989 1.491 . S
C1995 C1994 1.400 . S
C1995 C1996 1.398 . S
C1996 H1984 0.950 . S
C1996 C1995 1.398 . S
C1996 C1997 1.391 . S
C1997 H1985 0.950 . S
C1997 C1993 1.393 . S
C1997 C1996 1.391 . S
C927 C124 1.434 . S
C933 C218 1.345 . S
C947 C130 1.483 . S
C953 C302 1.424 . S
C967 C115 1.458 . S
C973 C396 1.421 . S
C987 C106 1.434 . S
C993 C312 1.391 . S
C1013 C386 1.338 . S
C1007 C85 1.432 . S
C1027 C97 1.395 . S
C1033 C228 1.352 . S
C1053 C229 1.389 . S
C1047 C103 1.454 . S
C1073 C313 1.391 . S
C1067 C88 1.460 . S
C1087 C94 1.463 . S
C1093 C405 1.434 . S
C1107 C121 1.438 . S
C1113 C321 1.411 . S
C1127 C133 1.403 . S
C1133 C397 1.320 . S
C1153 C237 1.399 . S
C1147 C112 1.427 . S
C1173 C470 1.354 . S
C1167 C16 1.427 . S
C1187 C22 1.480 . S
C1193 C554 1.395 . S
C1207 C7 1.457 . S
C1213 C648 1.416 . S
C1227 C160 1.433 . S
C1233 C564 1.391 . S
C1247 C139 1.428 . S
C1253 C638 1.349 . S
C1267 C151 1.403 . S
C1273 C480 1.370 . S
C1287 C157 1.458 . S
C1293 C481 1.376 . S
C1307 C142 1.456 . S
C1313 C565 1.370 . S
C1333 C657 1.436 . S
C1327 C148 1.464 . S
C1347 C13 1.433 . S
C1353 C573 1.393 . S
C1373 C649 1.316 . S
C1367 C25 1.404 . S
C1387 C4 1.419 . S
C1393 C489 1.377 . S
C1413 C722 1.360 . S
C1407 C70 1.427 . S
C1427 C76 1.482 . S
C1433 C806 1.423 . S
C1453 C900 1.415 . S
C1447 C61 1.459 . S
C1473 C816 1.393 . S
C1467 C52 1.435 . S
C1493 C890 1.348 . S
C1487 C31 1.434 . S
C1507 C43 1.395 . S
C1513 C732 1.352 . S
C1527 C49 1.457 . S
C1533 C733 1.364 . S
C1547 C34 1.454 . S
C1553 C817 1.388 . S
C1573 C909 1.412 . S
C1567 C40 1.456 . S
C1587 C67 1.437 . S
C1593 C825 1.407 . S
C1607 C79 1.403 . S
C1613 C901 1.341 . S
C1627 C58 1.419 . S
C1633 C741 1.375 . S
C1647 C140 1.479 . S
C1653 C225 1.372 . S
C1673 C309 1.370 . S
C1667 C149 1.504 . S
C1687 C158 1.502 . S
C1693 C402 1.392 . S
C1707 C59 1.521 . S
C1713 C318 1.364 . S
C1727 C68 1.485 . S
C1733 C393 1.340 . S
C1753 C234 1.380 . S
C1747 C77 1.479 . S
C1767 C32 1.479 . S
C1773 C477 1.362 . S
C1787 C41 1.503 . S
C1793 C561 1.352 . S
C1807 C50 1.503 . S
C1813 C654 1.374 . S
C1827 C113 1.522 . S
C1833 C570 1.398 . S
C1853 C645 1.337 . S
C1847 C122 1.485 . S
C1867 C131 1.479 . S
C1873 C486 1.382 . S
C1887 C86 1.479 . S
C1893 C729 1.347 . S
C1907 C95 1.503 . S
C1913 C813 1.370 . S
C1933 C906 1.391 . S
C1927 C104 1.502 . S
C1947 C5 1.522 . S
C1953 C822 1.402 . S
C1967 C14 1.484 . S
C1973 C897 1.377 . S
C1987 C23 1.479 . S
C1993 C738 1.356 . S
