# Generated by pormake.
# Topology ctn, (3,4)-cn, num edge types: 1
# Building blocks:
#     Node 0, Type 0, BuildingBlock: ESEHIV_clean_linker_0, # of connection points: 3
#     Node 1, Type 0, BuildingBlock: ESEHIV_clean_linker_0, # of connection points: 3
#     Node 2, Type 0, BuildingBlock: ESEHIV_clean_linker_0, # of connection points: 3
#     Node 3, Type 0, BuildingBlock: ESEHIV_clean_linker_0, # of connection points: 3
#     Node 4, Type 0, BuildingBlock: ESEHIV_clean_linker_0, # of connection points: 3
#     Node 5, Type 0, BuildingBlock: ESEHIV_clean_linker_0, # of connection points: 3
#     Node 6, Type 0, BuildingBlock: ESEHIV_clean_linker_0, # of connection points: 3
#     Node 7, Type 0, BuildingBlock: ESEHIV_clean_linker_0, # of connection points: 3
#     Node 8, Type 0, BuildingBlock: ESEHIV_clean_linker_0, # of connection points: 3
#     Node 9, Type 0, BuildingBlock: ESEHIV_clean_linker_0, # of connection points: 3
#     Node 10, Type 0, BuildingBlock: ESEHIV_clean_linker_0, # of connection points: 3
#     Node 11, Type 0, BuildingBlock: ESEHIV_clean_linker_0, # of connection points: 3
#     Node 12, Type 0, BuildingBlock: ESEHIV_clean_linker_0, # of connection points: 3
#     Node 13, Type 0, BuildingBlock: ESEHIV_clean_linker_0, # of connection points: 3
#     Node 14, Type 0, BuildingBlock: ESEHIV_clean_linker_0, # of connection points: 3
#     Node 15, Type 0, BuildingBlock: ESEHIV_clean_linker_0, # of connection points: 3
#     Node 16, Type 1, BuildingBlock: UXUYUI_clean_sbu_0, # of connection points: 4
#     Node 17, Type 1, BuildingBlock: UXUYUI_clean_sbu_0, # of connection points: 4
#     Node 18, Type 1, BuildingBlock: UXUYUI_clean_sbu_0, # of connection points: 4
#     Node 19, Type 1, BuildingBlock: UXUYUI_clean_sbu_0, # of connection points: 4
#     Node 20, Type 1, BuildingBlock: UXUYUI_clean_sbu_0, # of connection points: 4
#     Node 21, Type 1, BuildingBlock: UXUYUI_clean_sbu_0, # of connection points: 4
#     Node 22, Type 1, BuildingBlock: UXUYUI_clean_sbu_0, # of connection points: 4
#     Node 23, Type 1, BuildingBlock: UXUYUI_clean_sbu_0, # of connection points: 4
#     Node 24, Type 1, BuildingBlock: UXUYUI_clean_sbu_0, # of connection points: 4
#     Node 25, Type 1, BuildingBlock: UXUYUI_clean_sbu_0, # of connection points: 4
#     Node 26, Type 1, BuildingBlock: UXUYUI_clean_sbu_0, # of connection points: 4
#     Node 27, Type 1, BuildingBlock: UXUYUI_clean_sbu_0, # of connection points: 4
#     Edge 28, Type (0, 1), BuildingBlock: MIFKUJ_clean_linker_0, # of connection points: 2
#     Edge 29, Type (0, 1), BuildingBlock: MIFKUJ_clean_linker_0, # of connection points: 2
#     Edge 30, Type (0, 1), BuildingBlock: MIFKUJ_clean_linker_0, # of connection points: 2
#     Edge 31, Type (0, 1), BuildingBlock: MIFKUJ_clean_linker_0, # of connection points: 2
#     Edge 32, Type (0, 1), BuildingBlock: MIFKUJ_clean_linker_0, # of connection points: 2
#     Edge 33, Type (0, 1), BuildingBlock: MIFKUJ_clean_linker_0, # of connection points: 2
#     Edge 34, Type (0, 1), BuildingBlock: MIFKUJ_clean_linker_0, # of connection points: 2
#     Edge 35, Type (0, 1), BuildingBlock: MIFKUJ_clean_linker_0, # of connection points: 2
#     Edge 36, Type (0, 1), BuildingBlock: MIFKUJ_clean_linker_0, # of connection points: 2
#     Edge 37, Type (0, 1), BuildingBlock: MIFKUJ_clean_linker_0, # of connection points: 2
#     Edge 38, Type (0, 1), BuildingBlock: MIFKUJ_clean_linker_0, # of connection points: 2
#     Edge 39, Type (0, 1), BuildingBlock: MIFKUJ_clean_linker_0, # of connection points: 2
#     Edge 40, Type (0, 1), BuildingBlock: MIFKUJ_clean_linker_0, # of connection points: 2
#     Edge 41, Type (0, 1), BuildingBlock: MIFKUJ_clean_linker_0, # of connection points: 2
#     Edge 42, Type (0, 1), BuildingBlock: MIFKUJ_clean_linker_0, # of connection points: 2
#     Edge 43, Type (0, 1), BuildingBlock: MIFKUJ_clean_linker_0, # of connection points: 2
#     Edge 44, Type (0, 1), BuildingBlock: MIFKUJ_clean_linker_0, # of connection points: 2
#     Edge 45, Type (0, 1), BuildingBlock: MIFKUJ_clean_linker_0, # of connection points: 2
#     Edge 46, Type (0, 1), BuildingBlock: MIFKUJ_clean_linker_0, # of connection points: 2
#     Edge 47, Type (0, 1), BuildingBlock: MIFKUJ_clean_linker_0, # of connection points: 2
#     Edge 48, Type (0, 1), BuildingBlock: MIFKUJ_clean_linker_0, # of connection points: 2
#     Edge 49, Type (0, 1), BuildingBlock: MIFKUJ_clean_linker_0, # of connection points: 2
#     Edge 50, Type (0, 1), BuildingBlock: MIFKUJ_clean_linker_0, # of connection points: 2
#     Edge 51, Type (0, 1), BuildingBlock: MIFKUJ_clean_linker_0, # of connection points: 2
#     Edge 52, Type (0, 1), BuildingBlock: MIFKUJ_clean_linker_0, # of connection points: 2
#     Edge 53, Type (0, 1), BuildingBlock: MIFKUJ_clean_linker_0, # of connection points: 2
#     Edge 54, Type (0, 1), BuildingBlock: MIFKUJ_clean_linker_0, # of connection points: 2
#     Edge 55, Type (0, 1), BuildingBlock: MIFKUJ_clean_linker_0, # of connection points: 2
#     Edge 56, Type (0, 1), BuildingBlock: MIFKUJ_clean_linker_0, # of connection points: 2
#     Edge 57, Type (0, 1), BuildingBlock: MIFKUJ_clean_linker_0, # of connection points: 2
#     Edge 58, Type (0, 1), BuildingBlock: MIFKUJ_clean_linker_0, # of connection points: 2
#     Edge 59, Type (0, 1), BuildingBlock: MIFKUJ_clean_linker_0, # of connection points: 2
#     Edge 60, Type (0, 1), BuildingBlock: MIFKUJ_clean_linker_0, # of connection points: 2
#     Edge 61, Type (0, 1), BuildingBlock: MIFKUJ_clean_linker_0, # of connection points: 2
#     Edge 62, Type (0, 1), BuildingBlock: MIFKUJ_clean_linker_0, # of connection points: 2
#     Edge 63, Type (0, 1), BuildingBlock: MIFKUJ_clean_linker_0, # of connection points: 2
#     Edge 64, Type (0, 1), BuildingBlock: MIFKUJ_clean_linker_0, # of connection points: 2
#     Edge 65, Type (0, 1), BuildingBlock: MIFKUJ_clean_linker_0, # of connection points: 2
#     Edge 66, Type (0, 1), BuildingBlock: MIFKUJ_clean_linker_0, # of connection points: 2
#     Edge 67, Type (0, 1), BuildingBlock: MIFKUJ_clean_linker_0, # of connection points: 2
#     Edge 68, Type (0, 1), BuildingBlock: MIFKUJ_clean_linker_0, # of connection points: 2
#     Edge 69, Type (0, 1), BuildingBlock: MIFKUJ_clean_linker_0, # of connection points: 2
#     Edge 70, Type (0, 1), BuildingBlock: MIFKUJ_clean_linker_0, # of connection points: 2
#     Edge 71, Type (0, 1), BuildingBlock: MIFKUJ_clean_linker_0, # of connection points: 2
#     Edge 72, Type (0, 1), BuildingBlock: MIFKUJ_clean_linker_0, # of connection points: 2
#     Edge 73, Type (0, 1), BuildingBlock: MIFKUJ_clean_linker_0, # of connection points: 2
#     Edge 74, Type (0, 1), BuildingBlock: MIFKUJ_clean_linker_0, # of connection points: 2
#     Edge 75, Type (0, 1), BuildingBlock: MIFKUJ_clean_linker_0, # of connection points: 2
# Relax obj value: 0.000
# Max RMSD: 0.006
# Mean RMSD: 0.004
data_MOF--net-ctn--node1-UXUYUI_clean_sbu_0--node2-ESEHIV_clean_linker_0--edge1-MIFKUJ_clean_linker_0
_symmetry_space_group_name_H-M    P1
_symmetry_Int_Tables_number       1
_symmetry_cell_setting            triclinic
loop_
_symmetry_equiv_pos_as_xyz
'x, y, z'
_cell_length_a     81.785775
_cell_length_b     81.828966
_cell_length_c     81.695165
_cell_angle_alpha  89.9374
_cell_angle_beta   90.149304
_cell_angle_gamma 90.06784
loop_
_atom_site_label
_atom_site_type_symbol
_atom_site_fract_x
_atom_site_fract_y
_atom_site_fract_z
_atom_type_partial_charge
H0 H 0.018 0.05925 0.04668 0.0
H1 H 0.04773 0.01844 0.0616 0.0
H2 H 0.05965 0.04536 0.01799 0.0
C3 C 0.0285 0.0514 0.04488 0.0
C4 C 0.03865 0.05404 0.03127 0.0
C5 C 0.03149 0.03844 0.05584 0.0
C6 C 0.04494 0.02811 0.05297 0.0
C7 C 0.05515 0.03043 0.03932 0.0
C8 C 0.05187 0.04344 0.02854 0.0
H9 H 0.2964 0.69381 0.2359 0.0
H10 H 0.31057 0.73586 0.20771 0.0
H11 H 0.26739 0.7088 0.19455 0.0
C12 C 0.29407 0.70223 0.22593 0.0
C13 C 0.28058 0.69963 0.21553 0.0
C14 C 0.30493 0.71529 0.22325 0.0
C15 C 0.30221 0.72582 0.20989 0.0
C16 C 0.28878 0.72349 0.19935 0.0
C17 C 0.27802 0.71039 0.20232 0.0
H18 H 0.95922 0.48593 0.05931 0.0
H19 H 0.98796 0.44465 0.04447 0.0
H20 H 0.94462 0.45756 0.01743 0.0
C21 C 0.96112 0.47568 0.05115 0.0
C22 C 0.9503 0.4731 0.03799 0.0
C23 C 0.97471 0.46546 0.0536 0.0
C24 C 0.97746 0.45251 0.04265 0.0
C25 C 0.96673 0.44957 0.02949 0.0
C26 C 0.95319 0.45996 0.02727 0.0
H27 H 0.69587 0.76634 0.20962 0.0
H28 H 0.73699 0.79541 0.19464 0.0
H29 H 0.71018 0.80811 0.23808 0.0
C30 C 0.70397 0.77664 0.2116 0.0
C31 C 0.70139 0.78696 0.2251 0.0
C32 C 0.71685 0.77951 0.20059 0.0
C33 C 0.72718 0.79304 0.20319 0.0
C34 C 0.72495 0.8035 0.21669 0.0
C35 C 0.71204 0.80024 0.22761 0.0
H36 H 0.01904 0.94414 0.45955 0.0
H37 H 0.04668 0.98676 0.44582 0.0
H38 H 0.06049 0.95901 0.48844 0.0
C39 C 0.02907 0.95253 0.46175 0.0
C40 C 0.03944 0.95 0.47527 0.0
C41 C 0.03153 0.9658 0.45108 0.0
C42 C 0.04465 0.97654 0.45402 0.0
C43 C 0.0552 0.97419 0.46744 0.0
C44 C 0.05245 0.9609 0.47803 0.0
H45 H 0.19563 0.73708 0.79607 0.0
H46 H 0.23835 0.70959 0.80984 0.0
H47 H 0.20903 0.69408 0.769 0.0
C48 C 0.20381 0.72687 0.79413 0.0
C49 C 0.20075 0.71599 0.78113 0.0
C50 C 0.21729 0.72466 0.80466 0.0
C51 C 0.22785 0.71138 0.80194 0.0
C52 C 0.22492 0.70026 0.78915 0.0
C53 C 0.21134 0.70265 0.77885 0.0
H54 H 0.94517 0.54637 0.48648 0.0
H55 H 0.98512 0.56294 0.4566 0.0
H56 H 0.95819 0.52004 0.44282 0.0
C57 C 0.95263 0.54509 0.47563 0.0
C58 C 0.9499 0.53185 0.46496 0.0
C59 C 0.96521 0.55648 0.4727 0.0
C60 C 0.97537 0.55429 0.459 0.0
C61 C 0.97312 0.54097 0.44839 0.0
C62 C 0.96029 0.52993 0.45138 0.0
H63 H 0.76775 0.79491 0.81038 0.0
H64 H 0.79527 0.80956 0.76805 0.0
H65 H 0.81088 0.76829 0.79678 0.0
C66 C 0.77816 0.79331 0.80236 0.0
C67 C 0.789 0.78026 0.80512 0.0
C68 C 0.78033 0.80399 0.78903 0.0
C69 C 0.79357 0.80142 0.77836 0.0
C70 C 0.80464 0.7885 0.78093 0.0
C71 C 0.80221 0.77801 0.79438 0.0
H72 H 0.26867 0.29586 0.31115 0.0
H73 H 0.29484 0.30911 0.26749 0.0
H74 H 0.31064 0.26805 0.29641 0.0
C75 C 0.27856 0.29375 0.30261 0.0
C76 C 0.2892 0.2805 0.30518 0.0
C77 C 0.28057 0.30427 0.28912 0.0
C78 C 0.2935 0.30137 0.27817 0.0
C79 C 0.30443 0.28831 0.28061 0.0
C80 C 0.30211 0.27793 0.29415 0.0
H81 H 0.45873 0.98532 0.56021 0.0
H82 H 0.48632 0.94301 0.54574 0.0
H83 H 0.44333 0.95694 0.51867 0.0
C84 C 0.46066 0.97516 0.55194 0.0
C85 C 0.44956 0.97251 0.53904 0.0
C86 C 0.47385 0.96446 0.55462 0.0
C87 C 0.47593 0.95106 0.54405 0.0
C88 C 0.46505 0.94827 0.53098 0.0
C89 C 0.45185 0.95904 0.52863 0.0
H90 H 0.19455 0.26665 0.71021 0.0
H91 H 0.23615 0.29511 0.69517 0.0
H92 H 0.20859 0.30928 0.73763 0.0
C93 C 0.20279 0.27686 0.71214 0.0
C94 C 0.20009 0.28756 0.72531 0.0
C95 C 0.21564 0.2796 0.70106 0.0
C96 C 0.22597 0.29316 0.70341 0.0
C97 C 0.22361 0.30389 0.71664 0.0
C98 C 0.21059 0.30101 0.72747 0.0
H99 H 0.79592 0.19472 0.73555 0.0
H100 H 0.80993 0.2369 0.70744 0.0
H101 H 0.7666 0.20989 0.69457 0.0
C102 C 0.79356 0.20323 0.72565 0.0
C103 C 0.78001 0.20068 0.71534 0.0
C104 C 0.80439 0.21633 0.72298 0.0
C105 C 0.80157 0.22687 0.70965 0.0
C106 C 0.78807 0.22459 0.69916 0.0
C107 C 0.77733 0.21149 0.70221 0.0
H108 H 0.51892 0.55962 0.54647 0.0
H109 H 0.54662 0.51721 0.56062 0.0
H110 H 0.56089 0.54507 0.51836 0.0
C111 C 0.5289 0.55121 0.54427 0.0
C112 C 0.53954 0.55398 0.53104 0.0
C113 C 0.53137 0.53803 0.55505 0.0
C114 C 0.54465 0.52745 0.55242 0.0
C115 C 0.55543 0.53 0.53929 0.0
C116 C 0.5528 0.5433 0.5287 0.0
H117 H 0.51645 0.44472 0.95966 0.0
H118 H 0.54532 0.4859 0.94411 0.0
H119 H 0.55941 0.45849 0.98679 0.0
C120 C 0.52688 0.45273 0.96132 0.0
C121 C 0.53776 0.44987 0.97438 0.0
C122 C 0.5294 0.46577 0.95035 0.0
C123 C 0.54299 0.47609 0.95272 0.0
C124 C 0.55394 0.47354 0.96578 0.0
C125 C 0.55123 0.46036 0.9765 0.0
H126 H 0.69383 0.23459 0.29697 0.0
H127 H 0.73642 0.20689 0.31057 0.0
H128 H 0.70867 0.19364 0.26774 0.0
C129 C 0.70223 0.22463 0.29471 0.0
C130 C 0.69966 0.21441 0.28112 0.0
C131 C 0.71554 0.22212 0.30536 0.0
C132 C 0.72622 0.20898 0.30236 0.0
C133 C 0.72385 0.19854 0.28886 0.0
C134 C 0.71058 0.20148 0.27825 0.0
H135 H 0.44443 0.04705 0.98544 0.0
H136 H 0.4865 0.06169 0.95758 0.0
H137 H 0.45918 0.01903 0.94342 0.0
C138 C 0.4528 0.04492 0.97541 0.0
C139 C 0.45013 0.03169 0.96474 0.0
C140 C 0.46586 0.05582 0.9729 0.0
C141 C 0.47641 0.05333 0.95958 0.0
C142 C 0.47403 0.04014 0.94882 0.0
C143 C 0.46084 0.02942 0.95148 0.0
Li144 Li 0.26858 0.88765 0.99988 0.0
Li145 Li 0.25532 0.8675 0.01729 0.0
Li146 Li 0.25114 0.86726 0.98738 0.0
Li147 Li 0.23782 0.88863 0.00441 0.0
C148 C 0.28817 0.86202 0.99788 0.0
N149 N 0.32165 0.85964 0.99402 0.0
C150 C 0.29809 0.85762 0.01113 0.0
C151 C 0.29529 0.86509 0.98265 0.0
C152 C 0.31499 0.8565 0.00894 0.0
C153 C 0.31223 0.86387 0.98095 0.0
C154 C 0.26054 0.89496 0.03616 0.0
C155 C 0.25491 0.90683 0.06257 0.0
N156 N 0.26954 0.90123 0.06818 0.0
C157 C 0.27548 0.88928 0.04221 0.0
C158 C 0.25012 0.90375 0.04643 0.0
C159 C 0.27983 0.89258 0.05842 0.0
C160 C 0.28635 0.91305 0.98456 0.0
N161 N 0.28733 0.90162 0.99662 0.0
C162 C 0.31437 0.91061 0.0035 0.0
C163 C 0.30098 0.90032 0.0061 0.0
C164 C 0.31373 0.92252 0.9911 0.0
C165 C 0.29944 0.92364 0.98156 0.0
H166 H 0.27532 0.91406 0.97732 0.0
H167 H 0.3016 0.89126 0.01565 0.0
C168 C 0.26447 0.83864 0.03374 0.0
N169 N 0.25727 0.85341 0.03612 0.0
C170 C 0.26662 0.82781 0.04681 0.0
C171 C 0.25344 0.84733 0.06454 0.0
C172 C 0.25149 0.85776 0.05111 0.0
C173 C 0.26119 0.83216 0.06252 0.0
H174 H 0.26868 0.83531 0.02165 0.0
H175 H 0.24535 0.86931 0.05271 0.0
C176 C 0.24651 0.89258 0.9676 0.0
N177 N 0.23806 0.89418 0.93487 0.0
C178 C 0.23044 0.89616 0.963 0.0
C179 C 0.25833 0.89002 0.95555 0.0
C180 C 0.2264 0.89687 0.94639 0.0
C181 C 0.2538 0.89081 0.93907 0.0
C182 C 0.22257 0.85892 0.01517 0.0
C183 C 0.21511 0.84385 0.01217 0.0
C184 C 0.21809 0.868 0.02892 0.0
C185 C 0.20321 0.83812 0.02299 0.0
C186 C 0.20614 0.86185 0.03946 0.0
N187 N 0.19901 0.84716 0.0363 0.0
C188 C 0.25974 0.84291 0.96417 0.0
C189 C 0.23315 0.85385 0.96069 0.0
C190 C 0.25749 0.83256 0.95074 0.0
N191 N 0.2477 0.85336 0.96879 0.0
C192 C 0.23044 0.84384 0.94708 0.0
C193 C 0.2427 0.83298 0.94196 0.0
H194 H 0.27107 0.84249 0.97097 0.0
H195 H 0.22361 0.86196 0.96486 0.0
C196 C 0.22168 0.91809 0.01224 0.0
N197 N 0.21924 0.90259 0.00679 0.0
C198 C 0.20843 0.92861 0.01449 0.0
C199 C 0.19039 0.90717 0.00509 0.0
C200 C 0.204 0.89703 0.00309 0.0
C201 C 0.19247 0.9232 0.01095 0.0
H202 H 0.23396 0.92223 0.01496 0.0
H203 H 0.20241 0.88472 0.99855 0.0
O204 O 0.2716 0.8633 0.9998 0.0
O205 O 0.25599 0.89171 0.02037 0.0
O206 O 0.25063 0.89156 0.98381 0.0
O207 O 0.23434 0.86463 0.00478 0.0
H208 H 0.29286 0.85526 0.02304 0.0
H209 H 0.28781 0.86845 0.97225 0.0
H210 H 0.32281 0.85319 0.0191 0.0
H211 H 0.31789 0.8663 0.96925 0.0
H212 H 0.24697 0.91361 0.07065 0.0
H213 H 0.28343 0.88203 0.03461 0.0
H214 H 0.23841 0.90806 0.04204 0.0
H215 H 0.29132 0.88817 0.06328 0.0
H216 H 0.32518 0.90912 0.01103 0.0
H217 H 0.29826 0.93278 0.97204 0.0
H218 H 0.27272 0.81627 0.04468 0.0
H219 H 0.24875 0.85106 0.07635 0.0
H220 H 0.22114 0.89823 0.97215 0.0
H221 H 0.27085 0.8874 0.95888 0.0
H222 H 0.21398 0.89953 0.94265 0.0
H223 H 0.26281 0.88876 0.92962 0.0
H224 H 0.2185 0.83667 0.00159 0.0
H225 H 0.22385 0.87963 0.03151 0.0
H226 H 0.19731 0.82648 0.02082 0.0
H227 H 0.20257 0.86874 0.05016 0.0
H228 H 0.26729 0.82442 0.94719 0.0
H229 H 0.21876 0.84437 0.94083 0.0
H230 H 0.21067 0.94077 0.01922 0.0
H231 H 0.1784 0.90252 0.00191 0.0
Li232 Li 0.1169 0.50463 0.26749 0.0
Li233 Li 0.1376 0.48659 0.25501 0.0
Li234 Li 0.13775 0.51712 0.24941 0.0
Li235 Li 0.11713 0.49884 0.23692 0.0
C236 C 0.14506 0.50993 0.28599 0.0
N237 N 0.15289 0.51964 0.31744 0.0
C238 C 0.15093 0.49855 0.29734 0.0
C239 C 0.14343 0.5263 0.29057 0.0
C240 C 0.15475 0.50369 0.3132 0.0
C241 C 0.14738 0.53096 0.30654 0.0
C242 C 0.11102 0.46744 0.25912 0.0
C243 C 0.11093 0.43917 0.25082 0.0
N244 N 0.10675 0.43471 0.2663 0.0
C245 C 0.10655 0.4626 0.2749 0.0
C246 C 0.11306 0.45566 0.24693 0.0
C247 C 0.10451 0.44599 0.2783 0.0
C248 C 0.08917 0.51716 0.28381 0.0
N249 N 0.10305 0.50831 0.28609 0.0
C250 C 0.09662 0.50466 0.31444 0.0
C251 C 0.10683 0.50195 0.30102 0.0
C252 C 0.08229 0.51394 0.3125 0.0
C253 C 0.07862 0.52021 0.29689 0.0
H254 H 0.0862 0.52179 0.27176 0.0
H255 H 0.11769 0.4946 0.3025 0.0
C256 C 0.16309 0.46445 0.24739 0.0
N257 N 0.15128 0.46782 0.25857 0.0
C258 C 0.17344 0.45103 0.24955 0.0
C259 C 0.1594 0.44479 0.27476 0.0
C260 C 0.14935 0.45837 0.27213 0.0
C261 C 0.17169 0.44097 0.26339 0.0
H262 H 0.16457 0.47224 0.23681 0.0
H263 H 0.14013 0.46145 0.28104 0.0
C264 C 0.10943 0.53596 0.24706 0.0
N265 N 0.10116 0.56854 0.24378 0.0
C266 C 0.10416 0.54203 0.23195 0.0
C267 C 0.1102 0.54639 0.26057 0.0
C268 C 0.10012 0.55856 0.23051 0.0
C269 C 0.10604 0.56284 0.25865 0.0
C270 C 0.14396 0.49573 0.21779 0.0
C271 C 0.14951 0.50832 0.20764 0.0
C272 C 0.14109 0.48024 0.21119 0.0
C273 C 0.1518 0.50527 0.19098 0.0
C274 C 0.14351 0.47767 0.19447 0.0
N275 N 0.14875 0.49014 0.18479 0.0
C276 C 0.16498 0.5377 0.25555 0.0
C277 C 0.14779 0.54699 0.23413 0.0
C278 C 0.17532 0.55116 0.2535 0.0
N279 N 0.15142 0.53594 0.24604 0.0
C280 C 0.15782 0.5606 0.23161 0.0
C281 C 0.1718 0.56286 0.24139 0.0
H282 H 0.16787 0.52856 0.26467 0.0
H283 H 0.13722 0.54514 0.2264 0.0
C284 C 0.091 0.48443 0.21928 0.0
N285 N 0.10347 0.49536 0.21808 0.0
C286 C 0.0806 0.48163 0.20596 0.0
C287 C 0.09605 0.50138 0.19035 0.0
C288 C 0.10606 0.50389 0.20402 0.0
C289 C 0.08308 0.49014 0.19122 0.0
H290 H 0.08904 0.47793 0.23064 0.0
H291 H 0.1158 0.51279 0.20344 0.0
O292 O 0.14117 0.50509 0.27043 0.0
O293 O 0.11324 0.48364 0.25561 0.0
O294 O 0.11348 0.51981 0.24866 0.0
O295 O 0.14149 0.49854 0.2341 0.0
H296 H 0.15244 0.48588 0.29397 0.0
H297 H 0.13933 0.53534 0.28185 0.0
H298 H 0.1592 0.49499 0.32214 0.0
H299 H 0.14613 0.54358 0.31025 0.0
H300 H 0.11256 0.42991 0.24152 0.0
H301 H 0.10479 0.47155 0.28444 0.0
H302 H 0.11624 0.4592 0.2346 0.0
H303 H 0.10116 0.44206 0.29049 0.0
H304 H 0.09999 0.49963 0.32624 0.0
H305 H 0.06757 0.52716 0.29473 0.0
H306 H 0.18264 0.44849 0.24039 0.0
H307 H 0.15777 0.43757 0.28575 0.0
H308 H 0.10331 0.53412 0.2214 0.0
H309 H 0.11379 0.54183 0.27245 0.0
H310 H 0.09615 0.56345 0.21886 0.0
H311 H 0.10664 0.57105 0.269 0.0
H312 H 0.15196 0.52033 0.21255 0.0
H313 H 0.13703 0.4703 0.2189 0.0
H314 H 0.156 0.51493 0.18298 0.0
H315 H 0.14123 0.46576 0.1892 0.0
H316 H 0.18613 0.55221 0.26111 0.0
H317 H 0.15458 0.56932 0.22216 0.0
H318 H 0.07081 0.47278 0.20714 0.0
H319 H 0.09824 0.50841 0.17934 0.0
Li320 Li 0.73703 0.61591 0.99998 0.0
Li321 Li 0.74986 0.63658 0.01802 0.0
Li322 Li 0.75525 0.63669 0.9874 0.0
Li323 Li 0.76755 0.61601 0.00565 0.0
C324 C 0.71889 0.64458 0.99495 0.0
N325 N 0.6876 0.6535 0.98576 0.0
C326 C 0.7079 0.65047 0.00661 0.0
C327 C 0.71405 0.64352 0.97857 0.0
C328 C 0.69211 0.65483 0.00174 0.0
C329 C 0.69816 0.64801 0.97417 0.0
C330 C 0.74522 0.61003 0.03714 0.0
C331 C 0.75292 0.61041 0.06565 0.0
N332 N 0.73749 0.6058 0.06977 0.0
C333 C 0.72949 0.60514 0.04164 0.0
C334 C 0.75709 0.61254 0.04922 0.0
C335 C 0.7258 0.60311 0.05821 0.0
C336 C 0.72053 0.58787 0.98822 0.0
N337 N 0.71827 0.60214 0.99643 0.0
C338 C 0.6898 0.59616 0.99968 0.0
C339 C 0.7033 0.60634 0.00228 0.0
C340 C 0.69171 0.58141 0.99108 0.0
C341 C 0.70737 0.57732 0.98535 0.0
H342 H 0.73259 0.58466 0.98391 0.0
H343 H 0.70185 0.61743 0.00925 0.0
C344 C 0.75763 0.66245 0.03971 0.0
N345 N 0.74657 0.65038 0.03676 0.0
C346 C 0.75565 0.67296 0.05304 0.0
C347 C 0.73089 0.6585 0.06008 0.0
C348 C 0.7333 0.64833 0.04656 0.0
C349 C 0.74212 0.67107 0.06346 0.0
H350 H 0.76797 0.664 0.03165 0.0
H351 H 0.72447 0.6389 0.0438 0.0
C352 C 0.7562 0.60841 0.9684 0.0
N353 N 0.75727 0.60025 0.9356 0.0
C354 C 0.77078 0.60291 0.96142 0.0
C355 C 0.74211 0.60948 0.95876 0.0
C356 C 0.77109 0.59893 0.9448 0.0
C357 C 0.74291 0.60537 0.94219 0.0
C358 C 0.78711 0.64222 0.0087 0.0
C359 C 0.79742 0.6469 0.99591 0.0
C360 C 0.79364 0.63958 0.0243 0.0
C361 C 0.81417 0.64857 0.99888 0.0
C362 C 0.81045 0.64136 0.02678 0.0
N363 N 0.82029 0.64576 0.01412 0.0
C364 C 0.74951 0.66425 0.96719 0.0
C365 C 0.77017 0.64664 0.95729 0.0
C366 C 0.75163 0.67474 0.95384 0.0
N367 N 0.75862 0.65042 0.9686 0.0
C368 C 0.77276 0.65681 0.94377 0.0
C369 C 0.76341 0.67111 0.94188 0.0
H370 H 0.74061 0.66719 0.97649 0.0
H371 H 0.77765 0.63589 0.9589 0.0
C372 C 0.78571 0.59069 0.02093 0.0
N373 N 0.78631 0.60228 0.00902 0.0
C374 C 0.79903 0.58032 0.02363 0.0
C375 C 0.81336 0.59392 0.00168 0.0
C376 C 0.79975 0.604 0.99939 0.0
C377 C 0.81313 0.58183 0.01393 0.0
H378 H 0.7748 0.58935 0.02825 0.0
H379 H 0.79991 0.61316 0.98987 0.0
O380 O 0.73439 0.64019 0.99953 0.0
O381 O 0.74901 0.61222 0.02098 0.0
O382 O 0.7557 0.61243 0.98465 0.0
O383 O 0.7707 0.64033 0.00598 0.0
H384 H 0.71148 0.65156 0.0193 0.0
H385 H 0.72251 0.63945 0.9693 0.0
H386 H 0.68345 0.65929 0.01066 0.0
H387 H 0.69424 0.64719 0.96154 0.0
H388 H 0.76196 0.6124 0.07513 0.0
H389 H 0.72019 0.60301 0.03246 0.0
H390 H 0.76938 0.6161 0.04595 0.0
H391 H 0.71364 0.59943 0.06187 0.0
H392 H 0.67805 0.59967 0.00464 0.0
H393 H 0.70944 0.56615 0.97857 0.0
H394 H 0.76469 0.6824 0.05523 0.0
H395 H 0.72015 0.65675 0.06761 0.0
H396 H 0.78176 0.60183 0.96873 0.0
H397 H 0.73063 0.61325 0.96403 0.0
H398 H 0.78232 0.59478 0.93922 0.0
H399 H 0.7321 0.60619 0.93458 0.0
H400 H 0.79257 0.64913 0.98379 0.0
H401 H 0.78581 0.6362 0.03438 0.0
H402 H 0.82231 0.65208 0.98906 0.0
H403 H 0.81568 0.63925 0.03878 0.0
H404 H 0.74402 0.68552 0.95288 0.0
H405 H 0.78222 0.65367 0.93509 0.0
H406 H 0.79814 0.57101 0.03302 0.0
H407 H 0.82399 0.59568 0.99401 0.0
Li408 Li 0.86782 0.01713 0.25448 0.0
Li409 Li 0.88913 0.99945 0.2673 0.0
Li410 Li 0.88851 0.0051 0.2381 0.0
Li411 Li 0.86687 0.98721 0.24983 0.0
C412 C 0.90502 0.02905 0.25039 0.0
N413 N 0.93214 0.04423 0.23714 0.0
C414 C 0.92072 0.02459 0.2555 0.0
C415 C 0.90312 0.04133 0.23863 0.0
C416 C 0.93427 0.0324 0.24864 0.0
C417 C 0.91698 0.04882 0.23204 0.0
C418 C 0.85791 1.00056 0.28561 0.0
C419 C 0.84329 0.98883 0.30838 0.0
N420 N 0.84334 0.00364 0.31593 0.0
C421 C 0.8578 0.01567 0.29359 0.0
C422 C 0.85057 0.98703 0.29304 0.0
C423 C 0.85038 0.01697 0.30891 0.0
C424 C 0.83759 0.03262 0.26123 0.0
N425 N 0.85367 0.0355 0.25817 0.0
C426 C 0.84935 0.06435 0.25994 0.0
C427 C 0.8597 0.05097 0.25763 0.0
C428 C 0.83263 0.06181 0.26308 0.0
C429 C 0.82683 0.04562 0.26377 0.0
H430 H 0.83314 0.02017 0.26171 0.0
H431 H 0.87255 0.05295 0.25531 0.0
C432 C 0.91707 0.98692 0.28402 0.0
N433 N 0.90309 0.99568 0.2861 0.0
C434 C 0.9276 0.98401 0.29722 0.0
C435 C 0.90937 0.9994 0.31451 0.0
C436 C 0.89922 0.00204 0.30096 0.0
C437 C 0.92379 0.99026 0.31277 0.0
H438 H 0.92019 0.98231 0.27204 0.0
H439 H 0.8884 0.00938 0.30234 0.0
C440 C 0.85179 0.01348 0.22689 0.0
N441 N 0.82536 0.03084 0.21489 0.0
C442 C 0.83634 0.00621 0.22613 0.0
C443 C 0.85383 0.02953 0.22136 0.0
C444 C 0.82313 0.01519 0.22006 0.0
C445 C 0.84031 0.03813 0.21541 0.0
C446 C 0.89457 0.96806 0.25487 0.0
C447 C 0.9056 0.95801 0.24661 0.0
C448 C 0.88694 0.96237 0.26907 0.0
C449 C 0.90881 0.94237 0.2527 0.0
C450 C 0.89047 0.94667 0.27477 0.0
N451 N 0.90124 0.93708 0.26654 0.0
C452 C 0.91765 1.00076 0.21998 0.0
C453 C 0.89759 0.01667 0.20637 0.0
C454 C 0.92849 0.0028 0.20693 0.0
N455 N 0.90257 0.00774 0.21951 0.0
C456 C 0.9081 0.01917 0.19313 0.0
C457 C 0.92379 0.01221 0.19331 0.0
H458 H 0.92132 0.99376 0.23062 0.0
H459 H 0.88553 0.02198 0.20621 0.0
C460 C 0.83761 0.96895 0.25336 0.0
N461 N 0.8529 0.96861 0.24689 0.0
C462 C 0.827 0.95571 0.25123 0.0
C463 C 0.84817 0.94183 0.23612 0.0
C464 C 0.85827 0.95546 0.23831 0.0
C465 C 0.83221 0.94181 0.24254 0.0
H466 H 0.83356 0.97966 0.25995 0.0
H467 H 0.87042 0.95551 0.23314 0.0
O468 O 0.89162 0.02118 0.25662 0.0
O469 O 0.86479 0.99907 0.27043 0.0
O470 O 0.86482 0.00498 0.23312 0.0
O471 O 0.89129 0.98338 0.24898 0.0
H472 H 0.92244 0.01512 0.26456 0.0
H473 H 0.8911 0.04482 0.23437 0.0
H474 H 0.94649 0.02901 0.25243 0.0
H475 H 0.91569 0.05823 0.22281 0.0
H476 H 0.83757 0.97846 0.31428 0.0
H477 H 0.86359 0.02623 0.28812 0.0
H478 H 0.85049 0.97525 0.28703 0.0
H479 H 0.85027 0.02857 0.31524 0.0
H480 H 0.8544 0.07655 0.25905 0.0
H481 H 0.81414 0.04297 0.26644 0.0
H482 H 0.93854 0.97685 0.29527 0.0
H483 H 0.9061 0.00477 0.32617 0.0
H484 H 0.83455 0.99377 0.23016 0.0
H485 H 0.86563 0.03545 0.22201 0.0
H486 H 0.81109 0.00972 0.21946 0.0
H487 H 0.84168 0.05062 0.21128 0.0
H488 H 0.91159 0.96224 0.23559 0.0
H489 H 0.87843 0.96999 0.27564 0.0
H490 H 0.91731 0.93445 0.24643 0.0
H491 H 0.88466 0.94211 0.28575 0.0
H492 H 0.94052 0.99733 0.2076 0.0
H493 H 0.90392 0.02635 0.18279 0.0
H494 H 0.81475 0.95653 0.25613 0.0
H495 H 0.85294 0.93139 0.22957 0.0
Li496 Li 0.25044 0.13792 0.51799 0.0
Li497 Li 0.23819 0.11691 0.49993 0.0
Li498 Li 0.26798 0.11651 0.50605 0.0
Li499 Li 0.25648 0.13735 0.48806 0.0
C500 C 0.25492 0.10922 0.53661 0.0
N501 N 0.26674 0.09976 0.56687 0.0
C502 C 0.2486 0.09536 0.54433 0.0
C503 C 0.26725 0.11828 0.54426 0.0
C504 C 0.25474 0.09077 0.55963 0.0
C505 C 0.27306 0.1133 0.55956 0.0
C506 C 0.21959 0.14553 0.49645 0.0
C507 C 0.19727 0.15098 0.47788 0.0
N508 N 0.18751 0.15456 0.49085 0.0
C509 C 0.20941 0.14949 0.50957 0.0
C510 C 0.21355 0.14648 0.48046 0.0
C511 C 0.1932 0.15394 0.50649 0.0
C512 C 0.25429 0.1664 0.53718 0.0
N513 N 0.24663 0.15168 0.53652 0.0
C514 C 0.23368 0.1567 0.56225 0.0
C515 C 0.23648 0.14668 0.54869 0.0
C516 C 0.24146 0.17201 0.56336 0.0
C517 C 0.25193 0.17677 0.55056 0.0
H518 H 0.26225 0.17009 0.52731 0.0
H519 H 0.23046 0.13493 0.5478 0.0
C520 C 0.22078 0.08986 0.48685 0.0
N521 N 0.21933 0.10322 0.49663 0.0
C522 C 0.20745 0.07943 0.48435 0.0
C523 C 0.19141 0.09647 0.50229 0.0
C524 C 0.20509 0.1065 0.50453 0.0
C525 C 0.19247 0.08271 0.49207 0.0
H526 H 0.23233 0.08719 0.48107 0.0
H527 H 0.20439 0.11675 0.5128 0.0
C528 C 0.28724 0.14468 0.50102 0.0
N529 N 0.31776 0.15303 0.48919 0.0
C530 C 0.29476 0.13504 0.48912 0.0
C531 C 0.29529 0.15854 0.50696 0.0
C532 C 0.31017 0.13947 0.48327 0.0
C533 C 0.3107 0.16257 0.50081 0.0
C534 C 0.25647 0.10977 0.46847 0.0
C535 C 0.27011 0.1028 0.46093 0.0
C536 C 0.24251 0.11318 0.45919 0.0
C537 C 0.26963 0.09961 0.44414 0.0
C538 C 0.24251 0.10981 0.44244 0.0
N539 N 0.25596 0.10317 0.43531 0.0
C540 C 0.286 0.0873 0.50287 0.0
C541 C 0.29887 0.10713 0.51964 0.0
C542 C 0.2991 0.07656 0.50509 0.0
N543 N 0.28615 0.10227 0.51004 0.0
C544 C 0.31217 0.09674 0.52229 0.0
C545 C 0.31247 0.0812 0.51492 0.0
H546 H 0.27573 0.08375 0.49529 0.0
H547 H 0.29871 0.11911 0.52521 0.0
C548 C 0.25168 0.16548 0.46862 0.0
N549 N 0.26018 0.15123 0.46937 0.0
C550 C 0.25373 0.17616 0.4554 0.0
C551 C 0.27349 0.15749 0.44404 0.0
C552 C 0.27101 0.14715 0.45744 0.0
C553 C 0.26476 0.17224 0.44284 0.0
H554 H 0.24325 0.16857 0.47831 0.0
H555 H 0.27787 0.13593 0.45833 0.0
O556 O 0.24907 0.1138 0.52159 0.0
O557 O 0.23553 0.14124 0.49924 0.0
O558 O 0.27215 0.14056 0.50695 0.0
O559 O 0.25677 0.11314 0.48487 0.0
H560 H 0.23905 0.08821 0.53854 0.0
H561 H 0.27231 0.12903 0.53845 0.0
H562 H 0.24996 0.08006 0.56576 0.0
H563 H 0.28261 0.12019 0.56562 0.0
H564 H 0.19242 0.15171 0.46557 0.0
H565 H 0.21391 0.14898 0.52201 0.0
H566 H 0.22136 0.14394 0.47012 0.0
H567 H 0.18515 0.15689 0.51654 0.0
H568 H 0.22531 0.15258 0.57164 0.0
H569 H 0.2584 0.18832 0.55092 0.0
H570 H 0.20883 0.06898 0.47636 0.0
H571 H 0.18022 0.09926 0.50877 0.0
H572 H 0.28876 0.12425 0.48444 0.0
H573 H 0.2897 0.16611 0.51624 0.0
H574 H 0.3161 0.13211 0.47404 0.0
H575 H 0.31706 0.17328 0.50529 0.0
H576 H 0.28099 0.09998 0.46794 0.0
H577 H 0.23177 0.11825 0.4649 0.0
H578 H 0.28013 0.09431 0.43813 0.0
H579 H 0.23179 0.11243 0.4351 0.0
H580 H 0.29884 0.06484 0.49896 0.0
H581 H 0.32203 0.1008 0.53017 0.0
H582 H 0.24658 0.18729 0.45497 0.0
H583 H 0.28236 0.15405 0.43485 0.0
Li584 Li 0.38783 0.49846 0.76589 0.0
Li585 Li 0.36616 0.51723 0.75386 0.0
Li586 Li 0.36731 0.48649 0.74806 0.0
Li587 Li 0.38738 0.50471 0.73686 0.0
C588 C 0.36209 0.49674 0.78578 0.0
N589 N 0.3601 0.4942 0.81945 0.0
C590 C 0.35807 0.5104 0.79519 0.0
C591 C 0.36491 0.48174 0.79349 0.0
C592 C 0.35716 0.50888 0.8122 0.0
C593 C 0.36391 0.48072 0.81053 0.0
C594 C 0.40156 0.53068 0.74969 0.0
C595 C 0.40914 0.55507 0.73497 0.0
N596 N 0.42517 0.55091 0.73654 0.0
C597 C 0.41809 0.52668 0.75126 0.0
C598 C 0.39701 0.54501 0.74156 0.0
C599 C 0.42985 0.53706 0.74448 0.0
C600 C 0.41223 0.48265 0.78503 0.0
N601 N 0.40159 0.4954 0.78471 0.0
C602 C 0.41077 0.50417 0.81114 0.0
C603 C 0.40087 0.50623 0.7973 0.0
C604 C 0.42173 0.49095 0.81195 0.0
C605 C 0.42241 0.48017 0.79858 0.0
H606 H 0.41297 0.47449 0.77468 0.0
H607 H 0.39258 0.51649 0.79661 0.0
C608 C 0.33677 0.53533 0.75174 0.0
N609 N 0.35231 0.53559 0.75766 0.0
C610 C 0.32636 0.54862 0.75426 0.0
C611 C 0.34799 0.56204 0.76932 0.0
C612 C 0.35805 0.54856 0.76633 0.0
C613 C 0.33188 0.56226 0.76321 0.0
H614 H 0.33251 0.52482 0.74492 0.0
H615 H 0.37042 0.54836 0.77105 0.0
C616 C 0.3923 0.46704 0.744 0.0
N617 N 0.39329 0.43401 0.73702 0.0
C618 C 0.39552 0.46172 0.72807 0.0
C619 C 0.38966 0.45554 0.75638 0.0
C620 C 0.39597 0.44497 0.72479 0.0
C621 C 0.39017 0.43891 0.7526 0.0
C622 C 0.36155 0.50836 0.71653 0.0
C623 C 0.36666 0.4969 0.70496 0.0
C624 C 0.35472 0.52313 0.71129 0.0
C625 C 0.3649 0.50042 0.68831 0.0
C626 C 0.35313 0.52618 0.69453 0.0
N627 N 0.35821 0.51486 0.68349 0.0
C628 C 0.3426 0.46371 0.75675 0.0
C629 C 0.35391 0.45906 0.73054 0.0
C630 C 0.33207 0.45035 0.75487 0.0
N631 N 0.35331 0.46777 0.7447 0.0
C632 C 0.34371 0.44555 0.7282 0.0
C633 C 0.33253 0.44102 0.74043 0.0
H634 H 0.34208 0.47095 0.76778 0.0
H635 H 0.36234 0.46251 0.72103 0.0
C636 C 0.4155 0.50001 0.71725 0.0
N637 N 0.40179 0.50929 0.71863 0.0
C638 C 0.42637 0.5025 0.7043 0.0
C639 C 0.40922 0.52453 0.69472 0.0
C640 C 0.39872 0.52165 0.70789 0.0
C641 C 0.4232 0.51479 0.6927 0.0
H642 H 0.41803 0.49064 0.72624 0.0
H643 H 0.38819 0.52939 0.70958 0.0
O644 O 0.36332 0.49806 0.76913 0.0
O645 O 0.38987 0.52046 0.75582 0.0
O646 O 0.39166 0.48341 0.74745 0.0
O647 O 0.36318 0.50517 0.7329 0.0
H648 H 0.35579 0.52209 0.78945 0.0
H649 H 0.36789 0.47102 0.7864 0.0
H650 H 0.35415 0.51938 0.81964 0.0
H651 H 0.36616 0.46921 0.81665 0.0
H652 H 0.40581 0.56615 0.72855 0.0
H653 H 0.42177 0.51558 0.75748 0.0
H654 H 0.38424 0.54819 0.74014 0.0
H655 H 0.4427 0.53407 0.74549 0.0
H656 H 0.40971 0.51276 0.82115 0.0
H657 H 0.43091 0.47004 0.79843 0.0
H658 H 0.31418 0.54825 0.74906 0.0
H659 H 0.35276 0.57206 0.77655 0.0
H660 H 0.39741 0.47038 0.71826 0.0
H661 H 0.38717 0.45941 0.76876 0.0
H662 H 0.39836 0.44069 0.71251 0.0
H663 H 0.38808 0.42989 0.76207 0.0
H664 H 0.37229 0.48559 0.70877 0.0
H665 H 0.35083 0.53222 0.72005 0.0
H666 H 0.36892 0.49171 0.67923 0.0
H667 H 0.3479 0.53757 0.69031 0.0
H668 H 0.32347 0.44757 0.76454 0.0
H669 H 0.34472 0.43866 0.71694 0.0
H670 H 0.437 0.4947 0.70327 0.0
H671 H 0.4065 0.53442 0.68633 0.0
Li672 Li 0.76749 0.38835 0.49784 0.0
Li673 Li 0.75484 0.36757 0.51591 0.0
Li674 Li 0.75045 0.36723 0.48607 0.0
Li675 Li 0.73778 0.38847 0.50334 0.0
C676 C 0.77762 0.35132 0.4906 0.0
N677 N 0.78868 0.3242 0.47388 0.0
C678 C 0.7752 0.3357 0.49707 0.0
C679 C 0.78575 0.35318 0.47568 0.0
C680 C 0.78088 0.32213 0.48843 0.0
C681 C 0.79121 0.3393 0.4674 0.0
C682 C 0.76051 0.39358 0.5348 0.0
C683 C 0.75431 0.39225 0.56362 0.0
N684 N 0.77008 0.39627 0.56714 0.0
C685 C 0.77663 0.39778 0.5387 0.0
C686 C 0.74922 0.39089 0.54734 0.0
C687 C 0.78123 0.39906 0.55513 0.0
C688 C 0.78431 0.41859 0.49567 0.0
N689 N 0.78625 0.40211 0.49499 0.0
C690 C 0.81498 0.40528 0.49056 0.0
C691 C 0.80122 0.39534 0.49262 0.0
C692 C 0.81335 0.42242 0.49079 0.0
C693 C 0.79766 0.42899 0.49337 0.0
H694 H 0.77232 0.42367 0.49788 0.0
H695 H 0.8025 0.38219 0.49246 0.0
C696 C 0.74615 0.34315 0.53893 0.0
N697 N 0.75802 0.35401 0.53479 0.0
C698 C 0.7482 0.3328 0.5524 0.0
C699 C 0.77469 0.345 0.55716 0.0
C700 C 0.77221 0.35494 0.54345 0.0
C701 C 0.7626 0.33366 0.56183 0.0
H702 H 0.73515 0.34232 0.53161 0.0
H703 H 0.78165 0.3634 0.53968 0.0
C704 C 0.75382 0.40394 0.47269 0.0
N705 N 0.76429 0.43059 0.45475 0.0
C706 C 0.7461 0.41906 0.47448 0.0
C707 C 0.7668 0.40234 0.4617 0.0
C708 C 0.75159 0.43239 0.46531 0.0
C709 C 0.77194 0.41598 0.45278 0.0
C710 C 0.71772 0.36296 0.50541 0.0
C711 C 0.7081 0.35906 0.4918 0.0
C712 C 0.71027 0.36591 0.5205 0.0
C713 C 0.69112 0.35828 0.4935 0.0
C714 C 0.69326 0.36505 0.52169 0.0
N715 N 0.68412 0.36129 0.50828 0.0
C716 C 0.74219 0.33738 0.47066 0.0
C717 C 0.74993 0.35836 0.45225 0.0
C718 C 0.73981 0.3265 0.4577 0.0
N719 N 0.74719 0.35296 0.46774 0.0
C720 C 0.74777 0.34787 0.43891 0.0
C721 C 0.7426 0.33167 0.44152 0.0
H722 H 0.74002 0.33343 0.48311 0.0
H723 H 0.75386 0.3708 0.45022 0.0
C724 C 0.71934 0.41309 0.51909 0.0
N725 N 0.71912 0.40229 0.50645 0.0
C726 C 0.70608 0.4235 0.52173 0.0
C727 C 0.69254 0.4115 0.49833 0.0
C728 C 0.70618 0.40149 0.49598 0.0
C729 C 0.69241 0.42272 0.51133 0.0
H730 H 0.72987 0.41369 0.52708 0.0
H731 H 0.70648 0.39313 0.48575 0.0
O732 O 0.77171 0.36471 0.49862 0.0
O733 O 0.75581 0.3921 0.5188 0.0
O734 O 0.74873 0.39078 0.48168 0.0
O735 O 0.73434 0.36399 0.50395 0.0
H736 H 0.76884 0.33405 0.50856 0.0
H737 H 0.78762 0.36519 0.47046 0.0
H738 H 0.77902 0.30995 0.49324 0.0
H739 H 0.79742 0.34054 0.45579 0.0
H740 H 0.74574 0.39011 0.57344 0.0
H741 H 0.78552 0.3999 0.52915 0.0
H742 H 0.7367 0.38766 0.54452 0.0
H743 H 0.79368 0.40222 0.55833 0.0
H744 H 0.8268 0.39955 0.48902 0.0
H745 H 0.7956 0.44205 0.49343 0.0
H746 H 0.73869 0.32402 0.55517 0.0
H747 H 0.78593 0.3463 0.56406 0.0
H748 H 0.73605 0.42052 0.48293 0.0
H749 H 0.77303 0.39078 0.4603 0.0
H750 H 0.74577 0.44418 0.46661 0.0
H751 H 0.78205 0.41496 0.44434 0.0
H752 H 0.71365 0.35684 0.48001 0.0
H753 H 0.71755 0.36895 0.53114 0.0
H754 H 0.68351 0.35535 0.48306 0.0
H755 H 0.68732 0.36739 0.53326 0.0
H756 H 0.73558 0.31423 0.46033 0.0
H757 H 0.7503 0.35239 0.42672 0.0
H758 H 0.70644 0.43196 0.53192 0.0
H759 H 0.68233 0.41069 0.4899 0.0
Li760 Li 0.6381 0.98679 0.75486 0.0
Li761 Li 0.61747 0.00497 0.76735 0.0
Li762 Li 0.61755 0.99917 0.73678 0.0
Li763 Li 0.6382 0.01737 0.74924 0.0
C764 C 0.61089 0.96784 0.75876 0.0
N765 N 0.6052 0.9352 0.7654 0.0
C766 C 0.60596 0.96296 0.77439 0.0
C767 C 0.61267 0.95614 0.74644 0.0
C768 C 0.6032 0.9464 0.77752 0.0
C769 C 0.60981 0.9397 0.75006 0.0
C770 C 0.64538 0.00929 0.78611 0.0
C771 C 0.64713 0.02906 0.80792 0.0
N772 N 0.65254 0.01716 0.81823 0.0
C773 C 0.65115 0.9973 0.79687 0.0
C774 C 0.64353 0.02533 0.79163 0.0
C775 C 0.65463 0.00151 0.81308 0.0
C776 C 0.66413 0.96512 0.74768 0.0
N777 N 0.6517 0.96795 0.75833 0.0
C778 C 0.65904 0.94422 0.77388 0.0
C779 C 0.64909 0.95788 0.77133 0.0
C780 C 0.67191 0.94091 0.76301 0.0
C781 C 0.67438 0.95161 0.74976 0.0
H782 H 0.6662 0.97345 0.73763 0.0
H783 H 0.63937 0.96051 0.77984 0.0
C784 C 0.5901 0.01796 0.78391 0.0
N785 N 0.60371 0.00866 0.78602 0.0
C786 C 0.57959 0.02097 0.79703 0.0
C787 C 0.59714 0.0046 0.81428 0.0
C788 C 0.60729 0.00188 0.80081 0.0
C789 C 0.58305 0.01427 0.81251 0.0
H790 H 0.58735 0.02302 0.77199 0.0
H791 H 0.61786 0.99411 0.80213 0.0
C792 C 0.64451 0.99531 0.71776 0.0
N793 N 0.64963 0.98838 0.68507 0.0
C794 C 0.64986 0.00756 0.7071 0.0
C795 C 0.64202 0.97948 0.71185 0.0
C796 C 0.65232 0.00382 0.6906 0.0
C797 C 0.6446 0.97624 0.69527 0.0
C798 C 0.61051 0.03641 0.74665 0.0
C799 C 0.60553 0.04244 0.73143 0.0
C800 C 0.61172 0.04704 0.75997 0.0
C801 C 0.60221 0.0591 0.72969 0.0
C802 C 0.60829 0.06362 0.75775 0.0
N803 N 0.60368 0.06926 0.74278 0.0
C804 C 0.59135 0.98477 0.71921 0.0
C805 C 0.60651 0.00407 0.70385 0.0
C806 C 0.58099 0.98189 0.70588 0.0
N807 N 0.60388 0.99563 0.71795 0.0
C808 C 0.59646 0.00157 0.69021 0.0
C809 C 0.58346 0.99034 0.6911 0.0
H810 H 0.58928 0.97843 0.73063 0.0
H811 H 0.61635 0.01285 0.70319 0.0
C812 C 0.66472 0.0387 0.75606 0.0
N813 N 0.65181 0.03622 0.74583 0.0
C814 C 0.67493 0.05226 0.754 0.0
C815 C 0.65862 0.06033 0.73067 0.0
C816 C 0.6487 0.04665 0.73322 0.0
C817 C 0.67195 0.06332 0.74116 0.0
H818 H 0.66721 0.03006 0.76576 0.0
H819 H 0.63862 0.04426 0.725 0.0
O820 O 0.61376 0.984 0.7555 0.0
O821 O 0.64179 0.00535 0.77022 0.0
O822 O 0.64188 0.99878 0.73393 0.0
O823 O 0.61392 0.02014 0.74854 0.0
H824 H 0.60436 0.97185 0.78402 0.0
H825 H 0.61614 0.95971 0.73421 0.0
H826 H 0.59949 0.94245 0.7896 0.0
H827 H 0.61122 0.93051 0.74066 0.0
H828 H 0.64568 0.04142 0.81236 0.0
H829 H 0.65284 0.98487 0.79278 0.0
H830 H 0.63947 0.03484 0.78339 0.0
H831 H 0.65899 0.99232 0.82156 0.0
H832 H 0.65657 0.93628 0.78419 0.0
H833 H 0.68432 0.94974 0.74123 0.0
H834 H 0.56894 0.02858 0.79509 0.0
H835 H 0.60013 0.9989 0.82588 0.0
H836 H 0.65203 0.01982 0.71148 0.0
H837 H 0.6382 0.9698 0.71997 0.0
H838 H 0.65635 0.01321 0.68219 0.0
H839 H 0.64263 0.96405 0.69052 0.0
H840 H 0.60434 0.03438 0.72102 0.0
H841 H 0.61513 0.04253 0.77193 0.0
H842 H 0.59847 0.06394 0.71794 0.0
H843 H 0.60925 0.07198 0.76795 0.0
H844 H 0.57096 0.97334 0.70726 0.0
H845 H 0.59893 0.00828 0.67906 0.0
H846 H 0.68523 0.05388 0.76219 0.0
H847 H 0.6558 0.06855 0.72066 0.0
Li848 Li 0.01714 0.25294 0.86716 0.0
Li849 Li 0.99987 0.266 0.88803 0.0
Li850 Li 0.0043 0.2359 0.88738 0.0
Li851 Li 0.98705 0.24841 0.86659 0.0
C852 C 0.03644 0.25773 0.89306 0.0
N853 N 0.06902 0.26627 0.89583 0.0
C854 C 0.04088 0.27405 0.89548 0.0
C855 C 0.04855 0.24573 0.8923 0.0
C856 C 0.05743 0.27813 0.89679 0.0
C857 C 0.06496 0.2503 0.89365 0.0
C858 C 0.98901 0.28152 0.85909 0.0
C859 C 0.96401 0.29667 0.86275 0.0
N860 N 0.9676 0.30572 0.84925 0.0
C861 C 0.99245 0.29095 0.84526 0.0
C862 C 0.97468 0.28438 0.86792 0.0
C863 C 0.98147 0.30314 0.84048 0.0
C864 C 0.0412 0.24419 0.84361 0.0
N865 N 0.03597 0.25639 0.85359 0.0
C866 C 0.05731 0.27398 0.84398 0.0
C867 C 0.04358 0.27117 0.85377 0.0
C868 C 0.06312 0.26154 0.83364 0.0
C869 C 0.05478 0.2465 0.83353 0.0
H870 H 0.0347 0.23271 0.84328 0.0
H871 H 0.03897 0.28082 0.86152 0.0
C872 C 0.99186 0.28262 0.91727 0.0
N873 N 0.99719 0.28487 0.90169 0.0
C874 C 0.98952 0.29599 0.92763 0.0
C875 C 0.99856 0.31379 0.90584 0.0
C876 C 1.00067 0.30006 0.89589 0.0
C877 C 0.99285 0.3119 0.92197 0.0
H878 H 0.98945 0.2704 0.92166 0.0
H879 H 0.00518 0.30153 0.88354 0.0
C880 C 0.00786 0.21615 0.86113 0.0
N881 N 0.01378 0.18312 0.85737 0.0
C882 C 0.99584 0.20595 0.85445 0.0
C883 C 0.02295 0.20956 0.86569 0.0
C884 C 0.99906 0.18928 0.85269 0.0
C885 C 0.0257 0.19283 0.86376 0.0
C886 C 0.97162 0.23769 0.89657 0.0
C887 C 0.96619 0.22455 0.88708 0.0
C888 C 0.96512 0.24003 0.9122 0.0
C889 C 0.95439 0.21394 0.89339 0.0
C890 C 0.95334 0.22914 0.91809 0.0
N891 N 0.94827 0.21643 0.90864 0.0
C892 C 0.01739 0.21889 0.91452 0.0
C893 C 0.9993 0.20278 0.89863 0.0
C894 C 0.02015 0.20582 0.92521 0.0
N895 N 0.00718 0.21716 0.90147 0.0
C896 C 0.00177 0.18937 0.90894 0.0
C897 C 0.01233 0.19076 0.92245 0.0
H898 H 0.02344 0.23046 0.91663 0.0
H899 H 0.99111 0.20161 0.88833 0.0
C900 C 0.97106 0.24078 0.83691 0.0
N901 N 0.96849 0.24628 0.85238 0.0
C902 C 0.95792 0.23868 0.82614 0.0
C903 C 0.93974 0.24831 0.84729 0.0
C904 C 0.95323 0.25015 0.85768 0.0
C905 C 0.94195 0.24241 0.83128 0.0
H906 H 0.98334 0.23786 0.833 0.0
H907 H 0.95151 0.25463 0.87 0.0
O908 O 0.02031 0.25353 0.89153 0.0
O909 O 0.9996 0.26949 0.86383 0.0
O910 O 0.00489 0.23249 0.86305 0.0
O911 O 0.98321 0.24821 0.89063 0.0
H912 H 0.03168 0.28349 0.89616 0.0
H913 H 0.04532 0.23302 0.89072 0.0
H914 H 0.06105 0.29073 0.89854 0.0
H915 H 0.07446 0.24114 0.89299 0.0
H916 H 0.95288 0.29901 0.86947 0.0
H917 H 0.00349 0.28886 0.83829 0.0
H918 H 0.97182 0.27719 0.87866 0.0
H919 H 0.98397 0.31054 0.82979 0.0
H920 H 0.06335 0.28574 0.84462 0.0
H921 H 0.0585 0.23667 0.8255 0.0
H922 H 0.98496 0.29388 0.93988 0.0
H923 H 1.0016 0.32574 0.90101 0.0
H924 H 0.98412 0.21082 0.85073 0.0
H925 H 0.03242 0.21727 0.87074 0.0
H926 H 0.98984 0.18125 0.84763 0.0
H927 H 0.03729 0.18756 0.86734 0.0
H928 H 0.97114 0.22246 0.87503 0.0
H929 H 0.9691 0.25014 0.91972 0.0
H930 H 0.95015 0.20369 0.88617 0.0
H931 H 0.94823 0.23081 0.93017 0.0
H932 H 0.02848 0.20742 0.93541 0.0
H933 H 0.9953 0.17808 0.90646 0.0
H934 H 0.96025 0.23391 0.81401 0.0
H935 H 0.92773 0.25162 0.85173 0.0
Li936 Li 0.51825 0.75389 0.36708 0.0
Li937 Li 0.50007 0.76667 0.38755 0.0
Li938 Li 0.50573 0.7362 0.38753 0.0
Li939 Li 0.48768 0.74844 0.36662 0.0
C940 C 0.53711 0.75875 0.39369 0.0
N941 N 0.56965 0.76688 0.39792 0.0
C942 C 0.54148 0.77453 0.39855 0.0
C943 C 0.54928 0.74704 0.39121 0.0
C944 C 0.558 0.77842 0.40058 0.0
C945 C 0.56567 0.75141 0.39333 0.0
C946 C 0.49513 0.78471 0.35864 0.0
C947 C 0.47416 0.80508 0.35481 0.0
N948 N 0.48564 0.81578 0.34933 0.0
C949 C 0.50669 0.79585 0.35277 0.0
C950 C 0.4787 0.7893 0.3595 0.0
C951 C 0.50167 0.81152 0.3482 0.0
C952 C 0.54047 0.74592 0.34179 0.0
N953 N 0.53714 0.75721 0.35352 0.0
C954 C 0.56043 0.77304 0.34552 0.0
C955 C 0.54674 0.77066 0.35545 0.0
C956 C 0.5642 0.76157 0.33332 0.0
C957 C 0.55399 0.74785 0.33153 0.0
H958 H 0.53258 0.73542 0.34033 0.0
H959 H 0.54369 0.77965 0.36463 0.0
C960 C 0.48831 0.78292 0.41563 0.0
N961 N 0.49638 0.78535 0.4013 0.0
C962 C 0.48533 0.796 0.4262 0.0
C963 C 0.4993 0.81385 0.40727 0.0
C964 C 0.502 0.80042 0.39706 0.0
C965 C 0.49083 0.81176 0.42208 0.0
H966 H 0.48418 0.77079 0.41887 0.0
H967 H 0.50887 0.802 0.38591 0.0
C968 C 0.50875 0.7166 0.36147 0.0
N969 N 0.51369 0.68335 0.35832 0.0
C970 C 0.49589 0.70643 0.3566 0.0
C971 C 0.52417 0.7099 0.36451 0.0
C972 C 0.49862 0.68964 0.35513 0.0
C973 C 0.52641 0.69306 0.36292 0.0
C974 C 0.46851 0.7475 0.39494 0.0
C975 C 0.46148 0.73297 0.40056 0.0
C976 C 0.45896 0.7616 0.3938 0.0
C977 C 0.44489 0.73271 0.40459 0.0
C978 C 0.44242 0.76085 0.39796 0.0
N979 N 0.43577 0.74653 0.4032 0.0
C980 C 0.52098 0.71807 0.41289 0.0
C981 C 0.49937 0.70401 0.39965 0.0
C982 C 0.52373 0.70474 0.42324 0.0
N983 N 0.50901 0.71747 0.40133 0.0
C984 C 0.50172 0.69038 0.4097 0.0
C985 C 0.51405 0.69061 0.42174 0.0
H986 H 0.52831 0.72899 0.4142 0.0
H987 H 0.48981 0.70386 0.39049 0.0
C988 C 0.46789 0.75396 0.33867 0.0
N989 N 0.46902 0.74506 0.3527 0.0
C990 C 0.45459 0.75188 0.32809 0.0
C991 C 0.44399 0.73122 0.34634 0.0
C992 C 0.45747 0.73374 0.35659 0.0
C993 C 0.44237 0.74038 0.33185 0.0
H994 H 0.47736 0.76267 0.33566 0.0
H995 H 0.45887 0.72641 0.3675 0.0
O996 O 0.52101 0.75476 0.3915 0.0
O997 O 0.49986 0.76933 0.36323 0.0
O998 O 0.50625 0.73304 0.36318 0.0
O999 O 0.48474 0.74795 0.39088 0.0
H1000 H 0.53224 0.78371 0.40066 0.0
H1001 H 0.54612 0.73472 0.38764 0.0
H1002 H 0.56156 0.79062 0.40424 0.0
H1003 H 0.57521 0.74249 0.39135 0.0
H1004 H 0.46148 0.80879 0.35545 0.0
H1005 H 0.51942 0.79247 0.35184 0.0
H1006 H 0.46951 0.78072 0.36355 0.0
H1007 H 0.51052 0.82029 0.34375 0.0
H1008 H 0.5678 0.78392 0.34717 0.0
H1009 H 0.55648 0.73863 0.32237 0.0
H1010 H 0.47866 0.7938 0.43742 0.0
H1011 H 0.50408 0.82568 0.40373 0.0
H1012 H 0.48392 0.71141 0.35407 0.0
H1013 H 0.53429 0.71762 0.36808 0.0
H1014 H 0.48876 0.68161 0.35147 0.0
H1015 H 0.53826 0.6877 0.36534 0.0
H1016 H 0.46871 0.72198 0.4017 0.0
H1017 H 0.46428 0.77305 0.38994 0.0
H1018 H 0.43926 0.72151 0.40884 0.0
H1019 H 0.43488 0.77167 0.39709 0.0
H1020 H 0.53318 0.70562 0.43252 0.0
H1021 H 0.49405 0.67972 0.40795 0.0
H1022 H 0.45384 0.75933 0.31715 0.0
H1023 H 0.43511 0.72195 0.34959 0.0
Li1024 Li 0.00575 0.76674 0.61716 0.0
Li1025 Li 0.98718 0.75445 0.63894 0.0
Li1026 Li 0.01799 0.74882 0.63759 0.0
Li1027 Li 0.99962 0.7377 0.61755 0.0
C1028 C 0.00782 0.7863 0.64369 0.0
N1029 N 0.01076 0.81974 0.64739 0.0
C1030 C 0.99436 0.79559 0.64859 0.0
C1031 C 0.02282 0.79399 0.64089 0.0
C1032 C 0.99609 0.81249 0.65035 0.0
C1033 C 0.02404 0.81092 0.64275 0.0
C1034 C 0.97376 0.75064 0.60321 0.0
C1035 C 0.94936 0.73632 0.59488 0.0
N1036 N 0.95397 0.73787 0.57896 0.0
C1037 C 0.97822 0.7522 0.58678 0.0
C1038 C 0.9592 0.74271 0.60733 0.0
C1039 C 0.96806 0.74561 0.5747 0.0
C1040 C 0.02016 0.78486 0.59133 0.0
N1041 N 0.00871 0.78551 0.60335 0.0
C1042 C 1.00114 0.81258 0.59517 0.0
C1043 C 0.99906 0.7989 0.60524 0.0
C1044 C 0.01301 0.81232 0.58276 0.0
C1045 C 0.02254 0.79817 0.58087 0.0
H1046 H 0.02739 0.77393 0.58976 0.0
H1047 H 0.98966 0.79894 0.6145 0.0
C1048 C 0.96905 0.75168 0.66827 0.0
N1049 N 0.96888 0.75808 0.65291 0.0
C1050 C 0.95576 0.75401 0.67873 0.0
C1051 C 0.94258 0.76994 0.65755 0.0
C1052 C 0.95603 0.76709 0.64741 0.0
C1053 C 0.9423 0.76328 0.67341 0.0
H1054 H 0.97952 0.74469 0.67237 0.0
H1055 H 0.95626 0.7721 0.63515 0.0
C1056 C 0.0373 0.74565 0.61209 0.0
N1057 N 0.07057 0.74013 0.61011 0.0
C1058 C 0.04322 0.72993 0.60897 0.0
C1059 C 0.04832 0.75857 0.61407 0.0
C1060 C 0.06008 0.72739 0.60804 0.0
C1061 C 0.06509 0.75553 0.61308 0.0
C1062 C 0.99642 0.71717 0.6431 0.0
C1063 C 0.00805 0.70587 0.63781 0.0
C1064 C 0.9817 0.71162 0.6498 0.0
C1065 C 0.00476 0.68918 0.63926 0.0
C1066 C 0.97888 0.69482 0.65107 0.0
N1067 N 0.99037 0.68404 0.64581 0.0
C1068 C 0.04062 0.7574 0.66251 0.0
C1069 C 0.04596 0.73167 0.65046 0.0
C1070 C 0.05404 0.75561 0.67301 0.0
N1071 N 0.03687 0.74556 0.65144 0.0
C1072 C 0.05956 0.72944 0.66061 0.0
C1073 C 0.06375 0.74149 0.67211 0.0
H1074 H 0.03312 0.76822 0.6633 0.0
H1075 H 0.04267 0.72225 0.64185 0.0
C1076 C 0.00457 0.71795 0.58954 0.0
N1077 N 0.99507 0.71952 0.60308 0.0
C1078 C 0.00207 0.70504 0.57864 0.0
C1079 C 0.97959 0.69585 0.5954 0.0
C1080 C 0.98251 0.70898 0.60595 0.0
C1081 C 0.98954 0.69364 0.58157 0.0
H1082 H 0.01405 0.72684 0.58712 0.0
H1083 H 0.97469 0.71076 0.61642 0.0
O1084 O 0.00631 0.76976 0.64173 0.0
O1085 O 0.98378 0.75657 0.61522 0.0
O1086 O 0.02082 0.74838 0.61321 0.0
O1087 O 0.99939 0.73358 0.64176 0.0
H1088 H 0.98269 0.78985 0.65091 0.0
H1089 H 0.0334 0.78698 0.6373 0.0
H1090 H 0.98575 0.81984 0.65404 0.0
H1091 H 0.03556 0.81704 0.64053 0.0
H1092 H 0.9381 0.73005 0.59787 0.0
H1093 H 0.98951 0.75826 0.58344 0.0
H1094 H 0.95566 0.74132 0.62001 0.0
H1095 H 0.97139 0.74661 0.56193 0.0
H1096 H 0.99333 0.82311 0.59686 0.0
H1097 H 0.03184 0.79746 0.57149 0.0
H1098 H 0.95609 0.74882 0.69093 0.0
H1099 H 0.9324 0.77708 0.65297 0.0
H1100 H 0.03492 0.71974 0.60754 0.0
H1101 H 0.04397 0.77081 0.61636 0.0
H1102 H 0.06482 0.71528 0.60574 0.0
H1103 H 0.07374 0.76541 0.61465 0.0
H1104 H 0.01933 0.70993 0.6323 0.0
H1105 H 0.97248 0.72017 0.65381 0.0
H1106 H 0.01361 0.6803 0.63509 0.0
H1107 H 0.96754 0.69036 0.65619 0.0
H1108 H 0.05686 0.76525 0.68164 0.0
H1109 H 0.06653 0.71823 0.65967 0.0
H1110 H 0.00976 0.70412 0.56791 0.0
H1111 H 0.96979 0.68741 0.59821 0.0
Li1112 Li 0.50512 0.26711 0.11748 0.0
Li1113 Li 0.48715 0.25488 0.13847 0.0
Li1114 Li 0.51703 0.24883 0.13782 0.0
Li1115 Li 0.49904 0.23733 0.11697 0.0
C1116 C 0.50837 0.28595 0.14545 0.0
N1117 N 0.51335 0.3185 0.15298 0.0
C1118 C 0.49506 0.29613 0.1487 0.0
C1119 C 0.52423 0.29226 0.14635 0.0
C1120 C 0.49782 0.31257 0.15239 0.0
C1121 C 0.5265 0.30876 0.15009 0.0
C1122 C 0.46847 0.25043 0.10981 0.0
C1123 C 0.4456 0.23226 0.11391 0.0
N1124 N 0.43818 0.23869 0.10045 0.0
C1125 C 0.46062 0.25686 0.09602 0.0
C1126 C 0.46092 0.23804 0.11884 0.0
C1127 C 0.44531 0.25076 0.09149 0.0
C1128 C 0.51931 0.28522 0.0914 0.0
N1129 N 0.50831 0.28601 0.10383 0.0
C1130 C 0.50127 0.3134 0.09626 0.0
C1131 C 0.49913 0.29965 0.10622 0.0
C1132 C 0.51277 0.31306 0.08349 0.0
C1133 C 0.52179 0.29864 0.08111 0.0
H1134 H 0.52602 0.27407 0.08928 0.0
H1135 H 0.49002 0.29982 0.11575 0.0
C1136 C 0.468 0.25079 0.16696 0.0
N1137 N 0.46862 0.25857 0.15227 0.0
C1138 C 0.45456 0.25289 0.17728 0.0
C1139 C 0.44277 0.27126 0.15731 0.0
C1140 C 0.45637 0.26867 0.1473 0.0
C1141 C 0.44171 0.26326 0.17251 0.0
H1142 H 0.47798 0.24296 0.17067 0.0
H1143 H 0.45718 0.27472 0.13555 0.0
C1144 C 0.53661 0.24818 0.11051 0.0
N1145 N 0.56985 0.24729 0.10463 0.0
C1146 C 0.54368 0.23436 0.1034 0.0
C1147 C 0.54642 0.26161 0.11444 0.0
C1148 C 0.56052 0.23413 0.10058 0.0
C1149 C 0.56321 0.26091 0.11142 0.0
C1150 C 0.50413 0.2181 0.14528 0.0
C1151 C 0.51583 0.2104 0.13555 0.0
C1152 C 0.49838 0.21025 0.15935 0.0
C1153 C 0.52168 0.19501 0.14008 0.0
C1154 C 0.50453 0.19486 0.16348 0.0
N1155 N 0.51596 0.18762 0.15384 0.0
C1156 C 0.53675 0.25389 0.16577 0.0
C1157 C 0.54747 0.23397 0.14777 0.0
C1158 C 0.54999 0.25184 0.17643 0.0
N1159 N 0.53576 0.24509 0.15169 0.0
C1160 C 0.5609 0.23151 0.15808 0.0
C1161 C 0.56234 0.24052 0.17265 0.0
H1162 H 0.52723 0.26255 0.16873 0.0
H1163 H 0.5464 0.22689 0.13669 0.0
C1164 C 0.50197 0.21941 0.08764 0.0
N1165 N 0.49497 0.21921 0.1027 0.0
C1166 C 0.49972 0.20633 0.07688 0.0
C1167 C 0.48279 0.19318 0.0972 0.0
C1168 C 0.48548 0.20646 0.10762 0.0
C1169 C 0.49002 0.19292 0.08159 0.0
H1170 H 0.50944 0.22972 0.08404 0.0
H1171 H 0.48003 0.20658 0.11966 0.0
O1172 O 0.50588 0.2698 0.14186 0.0
O1173 O 0.48349 0.25625 0.11433 0.0
O1174 O 0.52016 0.24857 0.11354 0.0
O1175 O 0.49821 0.23316 0.14105 0.0
H1176 H 0.48271 0.29143 0.14821 0.0
H1177 H 0.5347 0.28448 0.14435 0.0
H1178 H 0.48762 0.32061 0.15478 0.0
H1179 H 0.53871 0.31381 0.15076 0.0
H1180 H 0.43962 0.22267 0.12078 0.0
H1181 H 0.46633 0.26646 0.08891 0.0
H1182 H 0.46681 0.2329 0.12953 0.0
H1183 H 0.43909 0.25561 0.08084 0.0
H1184 H 0.49403 0.32421 0.09862 0.0
H1185 H 0.53047 0.29759 0.07118 0.0
H1186 H 0.45434 0.24665 0.18898 0.0
H1187 H 0.43308 0.27924 0.1531 0.0
H1188 H 0.53627 0.22387 0.10019 0.0
H1189 H 0.5411 0.27248 0.11965 0.0
H1190 H 0.56616 0.22348 0.09517 0.0
H1191 H 0.57094 0.27121 0.11445 0.0
H1192 H 0.52037 0.21624 0.12461 0.0
H1193 H 0.48926 0.21597 0.16699 0.0
H1194 H 0.53076 0.18895 0.13265 0.0
H1195 H 0.5002 0.18866 0.17434 0.0
H1196 H 0.55062 0.25918 0.18743 0.0
H1197 H 0.56994 0.22244 0.15477 0.0
H1198 H 0.50575 0.20663 0.0651 0.0
H1199 H 0.475 0.18329 0.10132 0.0
H1200 H 0.2278 0.71725 0.83574 0.0
H1201 H 0.23236 0.73588 0.85859 0.0
H1202 H 0.21712 0.77648 0.82851 0.0
H1203 H 0.21341 0.75804 0.80529 0.0
H1204 H 0.24249 0.78518 0.84597 0.0
H1205 H 0.19162 0.75894 0.85797 0.0
H1206 H 0.1728 0.73576 0.86219 0.0
H1207 H 0.20248 0.71861 0.90208 0.0
H1208 H 0.22161 0.74157 0.89795 0.0
H1209 H 0.2292 0.84061 0.91221 0.0
H1210 H 0.2249 0.82244 0.88875 0.0
H1211 H 0.24589 0.78243 0.91599 0.0
H1212 H 0.25008 0.80048 0.93952 0.0
H1213 H 0.21719 0.77387 0.89995 0.0
H1214 H 0.26803 0.80076 0.88739 0.0
H1215 H 0.28607 0.82453 0.88307 0.0
H1216 H 0.25508 0.84125 0.844 0.0
H1217 H 0.23671 0.81769 0.84825 0.0
C1218 C 0.22563 0.73017 0.83387 0.0
C1219 C 0.22018 0.73609 0.81862 0.0
C1220 C 0.22804 0.7408 0.84705 0.0
C1221 C 0.2248 0.75758 0.8454 0.0
C1222 C 0.21961 0.76358 0.83014 0.0
C1223 C 0.21733 0.75297 0.8169 0.0
C1224 C 0.22688 0.76886 0.85957 0.0
C1225 C 0.23675 0.78281 0.8577 0.0
C1226 C 0.21964 0.76569 0.875 0.0
C1227 C 0.20813 0.75189 0.87755 0.0
C1228 C 0.1942 0.75016 0.86757 0.0
C1229 C 0.18347 0.73707 0.86995 0.0
C1230 C 0.18646 0.7257 0.88237 0.0
C1231 C 0.20018 0.72741 0.89245 0.0
C1232 C 0.21097 0.74047 0.89011 0.0
C1233 C 0.23281 0.82792 0.91322 0.0
C1234 C 0.24003 0.82199 0.92771 0.0
C1235 C 0.23045 0.81758 0.89978 0.0
C1236 C 0.23519 0.80111 0.90058 0.0
C1237 C 0.24218 0.79511 0.91509 0.0
C1238 C 0.24468 0.80546 0.92848 0.0
C1239 C 0.2328 0.79009 0.88632 0.0
C1240 C 0.22288 0.77622 0.8882 0.0
C1241 C 0.23985 0.79341 0.87087 0.0
C1242 C 0.25091 0.80755 0.86826 0.0
C1243 C 0.26499 0.80958 0.87797 0.0
C1244 C 0.27529 0.823 0.87552 0.0
C1245 C 0.2717 0.83442 0.8633 0.0
C1246 C 0.25783 0.83241 0.85348 0.0
C1247 C 0.24748 0.81902 0.8559 0.0
H1248 H 0.27969 0.8448 0.86141 0.0
H1249 H 0.17814 0.71557 0.8842 0.0
H1250 H 0.98773 0.51258 0.43871 0.0
H1251 H 0.00631 0.50845 0.41564 0.0
H1252 H 0.00237 0.5595 0.40307 0.0
H1253 H 0.98365 0.56369 0.42609 0.0
H1254 H 0.99968 0.53897 0.37599 0.0
H1255 H 0.03571 0.54665 0.4218 0.0
H1256 H 0.04646 0.54134 0.44952 0.0
H1257 H 0.05708 0.49174 0.43619 0.0
H1258 H 0.04615 0.49669 0.40844 0.0
H1259 H 0.06629 0.54226 0.32044 0.0
H1260 H 0.04774 0.54701 0.34335 0.0
H1261 H 0.05452 0.49725 0.35943 0.0
H1262 H 0.07308 0.49239 0.33652 0.0
H1263 H 0.05574 0.51751 0.38485 0.0
H1264 H 0.01955 0.50925 0.33943 0.0
H1265 H 0.00841 0.51394 0.31175 0.0
H1266 H 0.99763 0.56373 0.32423 0.0
H1267 H 0.00892 0.5594 0.35193 0.0
C1268 C 0.99074 0.5229 0.43097 0.0
C1269 C 0.98425 0.53847 0.43424 0.0
C1270 C 1.00144 0.52055 0.41786 0.0
C1271 C 0.00583 0.53369 0.40771 0.0
C1272 C 0.99918 0.5492 0.41077 0.0
C1273 C 0.98858 0.5516 0.42398 0.0
C1274 C 0.01738 0.53123 0.39393 0.0
C1275 C 0.01202 0.5345 0.37793 0.0
C1276 C 0.03333 0.525 0.39644 0.0
C1277 C 0.03996 0.522 0.41309 0.0
C1278 C 0.04021 0.53457 0.42482 0.0
C1279 C 0.04636 0.53163 0.44053 0.0
C1280 C 0.05241 0.5162 0.44463 0.0
C1281 C 0.05236 0.50368 0.43301 0.0
C1282 C 0.04621 0.50655 0.41728 0.0
C1283 C 0.06373 0.53227 0.32876 0.0
C1284 C 0.07114 0.51692 0.32658 0.0
C1285 C 0.05313 0.53502 0.34188 0.0
C1286 C 0.04956 0.52243 0.35303 0.0
C1287 C 0.05709 0.50716 0.35101 0.0
C1288 C 0.06774 0.50441 0.33792 0.0
C1289 C 0.03805 0.52521 0.36684 0.0
C1290 C 0.04341 0.52199 0.38287 0.0
C1291 C 0.02206 0.5314 0.36434 0.0
C1292 C 0.01524 0.53404 0.3477 0.0
C1293 C 0.01493 0.52124 0.33623 0.0
C1294 C 0.00857 0.52383 0.32055 0.0
C1295 C 0.00236 0.53914 0.31622 0.0
C1296 C 0.00247 0.55188 0.32759 0.0
C1297 C 0.00884 0.54936 0.34329 0.0
H1298 H 0.99743 0.54112 0.30407 0.0
H1299 H 0.05717 0.51395 0.45679 0.0
H1300 H 0.79158 0.74688 0.80549 0.0
H1301 H 0.7874 0.72836 0.82864 0.0
H1302 H 0.77632 0.76945 0.85969 0.0
H1303 H 0.78082 0.78809 0.83666 0.0
H1304 H 0.79689 0.74792 0.8747 0.0
H1305 H 0.746 0.74542 0.84528 0.0
H1306 H 0.72842 0.74142 0.82104 0.0
H1307 H 0.74566 0.69211 0.81637 0.0
H1308 H 0.76353 0.69589 0.84045 0.0
H1309 H 0.76281 0.70466 0.94152 0.0
H1310 H 0.76703 0.72289 0.91825 0.0
H1311 H 0.77498 0.68129 0.88689 0.0
H1312 H 0.77003 0.66292 0.90997 0.0
H1313 H 0.75623 0.70296 0.87184 0.0
H1314 H 0.80703 0.70511 0.90104 0.0
H1315 H 0.82497 0.70888 0.92505 0.0
H1316 H 0.80851 0.75845 0.92988 0.0
H1317 H 0.79029 0.75491 0.90602 0.0
C1318 C 0.78837 0.75199 0.81727 0.0
C1319 C 0.7865 0.76897 0.81921 0.0
C1320 C 0.78585 0.74137 0.83046 0.0
C1321 C 0.78138 0.74749 0.84587 0.0
C1322 C 0.77971 0.76444 0.84791 0.0
C1323 C 0.78216 0.77507 0.8347 0.0
C1324 C 0.7785 0.73623 0.85987 0.0
C1325 C 0.78785 0.73822 0.87417 0.0
C1326 C 0.767 0.72331 0.85902 0.0
C1327 C 0.75622 0.72099 0.84457 0.0
C1328 C 0.74614 0.73376 0.839 0.0
C1329 C 0.73611 0.73153 0.82531 0.0
C1330 C 0.73595 0.71654 0.81714 0.0
C1331 C 0.74581 0.70373 0.82269 0.0
C1332 C 0.75588 0.7059 0.83637 0.0
C1333 C 0.76527 0.69934 0.92965 0.0
C1334 C 0.76609 0.68227 0.92767 0.0
C1335 C 0.76788 0.70982 0.91636 0.0
C1336 C 0.77157 0.7035 0.90083 0.0
C1337 C 0.77223 0.68648 0.89876 0.0
C1338 C 0.76955 0.67598 0.91203 0.0
C1339 C 0.77461 0.71464 0.88672 0.0
C1340 C 0.76529 0.71263 0.8724 0.0
C1341 C 0.7862 0.72751 0.88752 0.0
C1342 C 0.79718 0.72969 0.90184 0.0
C1343 C 0.80714 0.71678 0.9073 0.0
C1344 C 0.81738 0.71888 0.92086 0.0
C1345 C 0.81785 0.73388 0.92901 0.0
C1346 C 0.80812 0.74683 0.92357 0.0
C1347 C 0.79784 0.74478 0.91002 0.0
H1348 H 0.82579 0.73549 0.93951 0.0
H1349 H 0.72817 0.71483 0.80654 0.0
H1350 H 0.99812 0.96394 0.45043 0.0
H1351 H 0.97988 0.96799 0.42701 0.0
H1352 H 0.02153 0.97751 0.39611 0.0
H1353 H 0.03982 0.97361 0.41955 0.0
H1354 H 0.99803 0.9988 0.38981 0.0
H1355 H 1.00078 0.94046 0.39529 0.0
H1356 H 0.99885 0.91416 0.40994 0.0
H1357 H 0.94807 0.92302 0.41972 0.0
H1358 H 0.94976 0.94949 0.40532 0.0
H1359 H 0.95732 0.99107 0.31335 0.0
H1360 H 0.97545 0.98667 0.33678 0.0
H1361 H 0.93362 0.97918 0.36794 0.0
H1362 H 0.9154 0.98309 0.34446 0.0
H1363 H 0.95712 0.95681 0.37407 0.0
H1364 H 0.95446 0.01515 0.36855 0.0
H1365 H 0.9565 0.04151 0.35403 0.0
H1366 H 0.00726 0.03254 0.34427 0.0
H1367 H 0.00547 0.00601 0.35854 0.0
C1368 C 0.0034 0.96678 0.43862 0.0
C1369 C 0.02043 0.96838 0.43684 0.0
C1370 C 0.99296 0.96909 0.42522 0.0
C1371 C 0.99932 0.97283 0.4097 0.0
C1372 C 0.01631 0.97463 0.40794 0.0
C1373 C 0.02675 0.97243 0.42136 0.0
C1374 C 0.98828 0.97497 0.39533 0.0
C1375 C 0.98925 0.98951 0.38624 0.0
C1376 C 0.97653 0.96303 0.39085 0.0
C1377 C 0.97544 0.94703 0.39936 0.0
C1378 C 0.98923 0.93685 0.40066 0.0
C1379 C 0.98817 0.92191 0.4089 0.0
C1380 C 0.97335 0.91694 0.41579 0.0
C1381 C 0.95954 0.92689 0.41439 0.0
C1382 C 0.96054 0.94186 0.40618 0.0
C1383 C 0.95196 0.98832 0.32515 0.0
C1384 C 0.93488 0.98748 0.32701 0.0
C1385 C 0.96235 0.98597 0.33857 0.0
C1386 C 0.95591 0.98278 0.35418 0.0
C1387 C 0.93888 0.98168 0.35604 0.0
C1388 C 0.92847 0.98406 0.34262 0.0
C1389 C 0.96691 0.98062 0.36855 0.0
C1390 C 0.96592 0.96608 0.37764 0.0
C1391 C 0.97867 0.99255 0.37301 0.0
C1392 C 0.97979 0.00852 0.36447 0.0
C1393 C 0.96603 0.01874 0.36319 0.0
C1394 C 0.96714 0.03372 0.35503 0.0
C1395 C 0.98199 0.03868 0.34819 0.0
C1396 C 0.99576 0.02868 0.34955 0.0
C1397 C 0.99471 0.01367 0.35769 0.0
H1398 H 0.98283 0.05028 0.34188 0.0
H1399 H 0.97256 0.90538 0.42218 0.0
H1400 H 0.21487 0.24612 0.70099 0.0
H1401 H 0.2191 0.22774 0.67774 0.0
H1402 H 0.2266 0.26927 0.64608 0.0
H1403 H 0.22216 0.28772 0.66922 0.0
H1404 H 0.20614 0.24628 0.63233 0.0
H1405 H 0.2587 0.24749 0.65886 0.0
H1406 H 0.27775 0.24481 0.68215 0.0
H1407 H 0.26407 0.19445 0.68788 0.0
H1408 H 0.24476 0.1969 0.66476 0.0
H1409 H 0.23896 0.2055 0.56363 0.0
H1410 H 0.23474 0.22339 0.58709 0.0
H1411 H 0.23255 0.1814 0.61898 0.0
H1412 H 0.23765 0.16345 0.59569 0.0
H1413 H 0.24997 0.20441 0.63294 0.0
H1414 H 0.1976 0.20268 0.60673 0.0
H1415 H 0.17802 0.205 0.58384 0.0
H1416 H 0.19045 0.25566 0.57798 0.0
H1417 H 0.21027 0.25359 0.6007 0.0
C1418 C 0.21733 0.25134 0.68905 0.0
C1419 C 0.21823 0.26838 0.68696 0.0
C1420 C 0.21985 0.24082 0.6758 0.0
C1421 C 0.2233 0.24713 0.66019 0.0
C1422 C 0.224 0.26414 0.65802 0.0
C1423 C 0.22158 0.27466 0.67128 0.0
C1424 C 0.22612 0.23601 0.64609 0.0
C1425 C 0.21585 0.23726 0.63236 0.0
C1426 C 0.2385 0.22394 0.64633 0.0
C1427 C 0.25016 0.22243 0.66019 0.0
C1428 C 0.25965 0.23588 0.66518 0.0
C1429 C 0.27052 0.2344 0.67833 0.0
C1430 C 0.27209 0.21948 0.68652 0.0
C1431 C 0.26283 0.206 0.68154 0.0
C1432 C 0.25193 0.20743 0.6684 0.0
C1433 C 0.23778 0.20003 0.57564 0.0
C1434 C 0.23864 0.18297 0.57769 0.0
C1435 C 0.23515 0.2103 0.58905 0.0
C1436 C 0.23305 0.20376 0.60482 0.0
C1437 C 0.23404 0.18676 0.60695 0.0
C1438 C 0.23679 0.17648 0.59355 0.0
C1439 C 0.23 0.21467 0.61909 0.0
C1440 C 0.24022 0.21339 0.63288 0.0
C1441 C 0.21748 0.22664 0.61896 0.0
C1442 C 0.20553 0.22794 0.60532 0.0
C1443 C 0.19625 0.21429 0.60048 0.0
C1444 C 0.18509 0.21556 0.58755 0.0
C1445 C 0.18303 0.23046 0.57943 0.0
C1446 C 0.19208 0.24413 0.58426 0.0
C1447 C 0.20327 0.24291 0.59718 0.0
H1448 H 0.17438 0.23142 0.56942 0.0
H1449 H 0.28051 0.21835 0.6967 0.0
H1450 H 0.53955 0.53088 0.58677 0.0
H1451 H 0.5212 0.5269 0.61002 0.0
H1452 H 0.47958 0.53529 0.57856 0.0
H1453 H 0.49793 0.5395 0.5553 0.0
H1454 H 0.4757 0.55109 0.60631 0.0
H1455 H 0.49064 0.49632 0.59183 0.0
H1456 H 0.50958 0.47372 0.58575 0.0
H1457 H 0.5302 0.47754 0.63399 0.0
H1458 H 0.51153 0.50033 0.64029 0.0
H1459 H 0.41497 0.52109 0.66079 0.0
H1460 H 0.4333 0.5251 0.63754 0.0
H1461 H 0.47501 0.5183 0.66923 0.0
H1462 H 0.45674 0.51426 0.69256 0.0
H1463 H 0.47876 0.50163 0.64135 0.0
H1464 H 0.46358 0.55651 0.65569 0.0
H1465 H 0.44439 0.57894 0.66162 0.0
H1466 H 0.42388 0.57463 0.61338 0.0
H1467 H 0.44281 0.55201 0.60723 0.0
C1468 C 0.52648 0.53173 0.58478 0.0
C1469 C 0.52019 0.53543 0.56917 0.0
C1470 C 0.51599 0.52945 0.59808 0.0
C1471 C 0.49896 0.53057 0.59603 0.0
C1472 C 0.49266 0.53437 0.58047 0.0
C1473 C 0.50316 0.53679 0.56719 0.0
C1474 C 0.48772 0.52798 0.61013 0.0
C1475 C 0.47623 0.54016 0.61383 0.0
C1476 C 0.48861 0.5139 0.6202 0.0
C1477 C 0.49979 0.50013 0.61647 0.0
C1478 C 0.49929 0.49242 0.6011 0.0
C1479 C 0.50997 0.47956 0.59762 0.0
C1480 C 0.52112 0.47422 0.60946 0.0
C1481 C 0.52158 0.4817 0.62482 0.0
C1482 C 0.51094 0.49458 0.62836 0.0
C1483 C 0.42805 0.52061 0.66286 0.0
C1484 C 0.43438 0.51741 0.67856 0.0
C1485 C 0.43852 0.52289 0.64953 0.0
C1486 C 0.45556 0.52219 0.65164 0.0
C1487 C 0.46192 0.51888 0.66728 0.0
C1488 C 0.45145 0.51654 0.6806 0.0
C1489 C 0.46676 0.52474 0.63752 0.0
C1490 C 0.47824 0.51255 0.63383 0.0
C1491 C 0.46582 0.53879 0.62742 0.0
C1492 C 0.45451 0.55246 0.63106 0.0
C1493 C 0.4549 0.56026 0.64639 0.0
C1494 C 0.44408 0.57303 0.64978 0.0
C1495 C 0.4329 0.57818 0.6379 0.0
C1496 C 0.43254 0.57061 0.62258 0.0
C1497 C 0.44332 0.55783 0.61913 0.0
H1498 H 0.42453 0.58806 0.64055 0.0
H1499 H 0.52937 0.46427 0.60674 0.0
H1500 H 0.79315 0.25783 0.69761 0.0
H1501 H 0.78888 0.27599 0.67432 0.0
H1502 H 0.7712 0.23538 0.64563 0.0
H1503 H 0.77653 0.21693 0.66848 0.0
H1504 H 0.78932 0.25289 0.62729 0.0
H1505 H 0.74507 0.26492 0.66319 0.0
H1506 H 0.73176 0.27239 0.68918 0.0
H1507 H 0.75703 0.31842 0.68918 0.0
H1508 H 0.77066 0.31113 0.66329 0.0
H1509 H 0.7396 0.32256 0.58372 0.0
H1510 H 0.74345 0.30362 0.60644 0.0
H1511 H 0.79515 0.30177 0.59631 0.0
H1512 H 0.79125 0.31973 0.57284 0.0
H1513 H 0.75858 0.3047 0.6337 0.0
H1514 H 0.81129 0.26557 0.60686 0.0
H1515 H 0.82113 0.25614 0.57996 0.0
H1516 H 0.77267 0.26076 0.56014 0.0
H1517 H 0.76251 0.27001 0.58697 0.0
C1518 C 0.78858 0.25267 0.68629 0.0
C1519 C 0.78518 0.23584 0.68502 0.0
C1520 C 0.78591 0.26315 0.67302 0.0
C1521 C 0.77945 0.25715 0.65824 0.0
C1522 C 0.77614 0.24036 0.65689 0.0
C1523 C 0.77901 0.22983 0.67008 0.0
C1524 C 0.77627 0.26832 0.64415 0.0
C1525 C 0.78259 0.26421 0.62872 0.0
C1526 C 0.76719 0.28296 0.64583 0.0
C1527 C 0.759 0.28741 0.66138 0.0
C1528 C 0.74788 0.27659 0.6688 0.0
C1529 C 0.74026 0.2808 0.6835 0.0
C1530 C 0.74358 0.29585 0.69085 0.0
C1531 C 0.75449 0.30675 0.68348 0.0
C1532 C 0.76215 0.30259 0.66879 0.0
C1533 C 0.75177 0.31793 0.5861 0.0
C1534 C 0.76507 0.32264 0.57623 0.0
C1535 C 0.75398 0.30722 0.59927 0.0
C1536 C 0.76956 0.30103 0.60303 0.0
C1537 C 0.78294 0.30607 0.59351 0.0
C1538 C 0.78071 0.31658 0.58018 0.0
C1539 C 0.77177 0.28935 0.61688 0.0
C1540 C 0.76531 0.29338 0.63227 0.0
C1541 C 0.78023 0.27436 0.61503 0.0
C1542 C 0.78619 0.26865 0.59889 0.0
C1543 C 0.80273 0.26452 0.59678 0.0
C1544 C 0.80836 0.25921 0.58154 0.0
C1545 C 0.79754 0.25791 0.56834 0.0
C1546 C 0.78105 0.26184 0.57036 0.0
C1547 C 0.77535 0.26713 0.58558 0.0
H1548 H 0.80193 0.25381 0.55655 0.0
H1549 H 0.73767 0.29909 0.70223 0.0
H1550 H 0.4866 0.94167 0.57564 0.0
H1551 H 0.50542 0.94616 0.59851 0.0
H1552 H 0.50569 0.99786 0.58822 0.0
H1553 H 0.48719 0.99341 0.56503 0.0
H1554 H 0.53626 0.98667 0.59442 0.0
H1555 H 0.48359 0.98281 0.61981 0.0
H1556 H 0.4569 0.97023 0.62599 0.0
H1557 H 0.48106 0.9282 0.64616 0.0
H1558 H 0.50792 0.94043 0.63988 0.0
H1559 H 0.57132 0.01314 0.66964 0.0
H1560 H 0.55314 0.00865 0.64629 0.0
H1561 H 0.55218 0.95701 0.65689 0.0
H1562 H 0.57047 0.96138 0.6802 0.0
H1563 H 0.52197 0.96822 0.65047 0.0
H1564 H 0.57464 0.97205 0.62513 0.0
H1565 H 0.60135 0.98459 0.61894 0.0
H1566 H 0.57725 0.02659 0.59865 0.0
H1567 H 0.55038 0.0144 0.60494 0.0
C1568 C 0.49078 0.95398 0.57815 0.0
C1569 C 0.48535 0.96718 0.56852 0.0
C1570 C 0.50142 0.95655 0.59132 0.0
C1571 C 0.50683 0.97238 0.59521 0.0
C1572 C 0.50164 0.98555 0.58549 0.0
C1573 C 0.49095 0.983 0.57232 0.0
C1574 C 0.51792 0.97517 0.6094 0.0
C1575 C 0.53304 0.98284 0.60671 0.0
C1576 C 0.51389 0.96984 0.62539 0.0
C1577 C 0.49776 0.96247 0.62922 0.0
C1578 C 0.48322 0.97083 0.62544 0.0
C1579 C 0.46806 0.96377 0.62898 0.0
C1580 C 0.46729 0.94841 0.63642 0.0
C1581 C 0.48168 0.94009 0.64038 0.0
C1582 C 0.49687 0.94708 0.63684 0.0
C1583 C 0.56741 1.00079 0.6669 0.0
C1584 C 0.57243 0.98762 0.67679 0.0
C1585 C 0.55697 0.99825 0.65355 0.0
C1586 C 0.5514 0.98246 0.64971 0.0
C1587 C 0.55629 0.9693 0.65962 0.0
C1588 C 0.56672 0.97184 0.67298 0.0
C1589 C 0.54034 0.9797 0.63549 0.0
C1590 C 0.5252 0.97205 0.63817 0.0
C1591 C 0.54436 0.98504 0.6195 0.0
C1592 C 0.5605 0.99238 0.61566 0.0
C1593 C 0.57504 0.98402 0.61947 0.0
C1594 C 0.59021 0.99105 0.61592 0.0
C1595 C 0.591 0.0064 0.60844 0.0
C1596 C 0.57661 0.01472 0.60446 0.0
C1597 C 0.56141 0.00775 0.608 0.0
H1598 H 0.60275 0.01182 0.6057 0.0
H1599 H 0.45554 0.94296 0.63916 0.0
H1600 H 0.83566 0.22554 0.71483 0.0
H1601 H 0.85879 0.23029 0.73317 0.0
H1602 H 0.82888 0.21724 0.7746 0.0
H1603 H 0.80545 0.21322 0.75641 0.0
H1604 H 0.84656 0.2432 0.7817 0.0
H1605 H 0.85772 0.19069 0.75842 0.0
H1606 H 0.86168 0.17067 0.73625 0.0
H1607 H 0.902 0.19875 0.71777 0.0
H1608 H 0.89814 0.21907 0.73971 0.0
H1609 H 0.9113 0.23104 0.8389 0.0
H1610 H 0.88804 0.22707 0.8205 0.0
H1611 H 0.91704 0.24393 0.77983 0.0
H1612 H 0.9403 0.24825 0.79819 0.0
H1613 H 0.89996 0.2161 0.77239 0.0
H1614 H 0.88862 0.26849 0.79625 0.0
H1615 H 0.88461 0.28802 0.81886 0.0
H1616 H 0.84444 0.25935 0.83678 0.0
H1617 H 0.84837 0.23952 0.81441 0.0
C1618 C 0.83392 0.22384 0.72786 0.0
C1619 C 0.81865 0.21896 0.73411 0.0
C1620 C 0.84724 0.22638 0.73833 0.0
C1621 C 0.84568 0.2239 0.75527 0.0
C1622 C 0.83043 0.21917 0.76157 0.0
C1623 C 0.81708 0.21671 0.75112 0.0
C1624 C 0.85987 0.2264 0.76645 0.0
C1625 C 0.85816 0.23709 0.77978 0.0
C1626 C 0.87515 0.21871 0.76379 0.0
C1627 C 0.87754 0.20649 0.75062 0.0
C1628 C 0.86735 0.19266 0.74955 0.0
C1629 C 0.86959 0.18125 0.73704 0.0
C1630 C 0.88205 0.18346 0.72558 0.0
C1631 C 0.89234 0.19707 0.72664 0.0
C1632 C 0.89014 0.20853 0.73912 0.0
C1633 C 0.91271 0.23412 0.82609 0.0
C1634 C 0.92772 0.24003 0.82007 0.0
C1635 C 0.89939 0.23178 0.81557 0.0
C1636 C 0.90075 0.23532 0.79881 0.0
C1637 C 0.91572 0.24108 0.79272 0.0
C1638 C 0.92903 0.24348 0.80324 0.0
C1639 C 0.88661 0.23287 0.7876 0.0
C1640 C 0.88834 0.2222 0.77428 0.0
C1641 C 0.87132 0.24049 0.79032 0.0
C1642 C 0.8689 0.25244 0.80375 0.0
C1643 C 0.87902 0.26628 0.80509 0.0
C1644 C 0.87674 0.27742 0.81785 0.0
C1645 C 0.86431 0.2749 0.82927 0.0
C1646 C 0.85409 0.26127 0.82794 0.0
C1647 C 0.85632 0.25009 0.81521 0.0
H1648 H 0.86256 0.28354 0.83914 0.0
H1649 H 0.88377 0.17461 0.71591 0.0
H1650 H 0.46242 0.94784 0.49754 0.0
H1651 H 0.46656 0.92471 0.4791 0.0
H1652 H 0.4775 0.89371 0.52043 0.0
H1653 H 0.47342 0.91682 0.53895 0.0
H1654 H 0.49879 0.88858 0.49635 0.0
H1655 H 0.44034 0.89183 0.50049 0.0
H1656 H 0.41349 0.90545 0.49923 0.0
H1657 H 0.42075 0.91594 0.44825 0.0
H1658 H 0.44777 0.90258 0.44927 0.0
H1659 H 0.49283 0.81234 0.4556 0.0
H1660 H 0.48814 0.83547 0.47387 0.0
H1661 H 0.47812 0.86637 0.43224 0.0
H1662 H 0.48228 0.84314 0.41389 0.0
H1663 H 0.45634 0.87161 0.45632 0.0
H1664 H 0.51474 0.86837 0.45217 0.0
H1665 H 0.54168 0.85493 0.45345 0.0
H1666 H 0.53453 0.84451 0.50446 0.0
H1667 H 0.50742 0.85769 0.50343 0.0
C1668 C 0.46556 0.93606 0.50272 0.0
C1669 C 0.46752 0.93417 0.51973 0.0
C1670 C 0.46793 0.92284 0.49215 0.0
C1671 C 0.47215 0.90739 0.49837 0.0
C1672 C 0.47426 0.9055 0.51533 0.0
C1673 C 0.47196 0.91874 0.5259 0.0
C1674 C 0.47452 0.89324 0.48719 0.0
C1675 C 0.48941 0.88473 0.48776 0.0
C1676 C 0.46245 0.88844 0.47568 0.0
C1677 C 0.44615 0.89634 0.475 0.0
C1678 C 0.43626 0.89714 0.48904 0.0
C1679 C 0.42101 0.9048 0.48836 0.0
C1680 C 0.41543 0.91159 0.47368 0.0
C1681 C 0.42509 0.91069 0.45962 0.0
C1682 C 0.44037 0.90307 0.46024 0.0
C1683 C 0.48947 0.824 0.45031 0.0
C1684 C 0.48797 0.82586 0.43324 0.0
C1685 C 0.48694 0.83727 0.46078 0.0
C1686 C 0.48297 0.85273 0.45443 0.0
C1687 C 0.48124 0.85458 0.43742 0.0
C1688 C 0.48377 0.84131 0.42694 0.0
C1689 C 0.48059 0.86694 0.46552 0.0
C1690 C 0.46571 0.87546 0.46492 0.0
C1691 C 0.49266 0.87176 0.47701 0.0
C1692 C 0.50898 0.86387 0.47768 0.0
C1693 C 0.51885 0.8631 0.46363 0.0
C1694 C 0.53416 0.85555 0.46432 0.0
C1695 C 0.53979 0.84883 0.47902 0.0
C1696 C 0.53014 0.84969 0.49307 0.0
C1697 C 0.51481 0.85721 0.49245 0.0
H1698 H 0.55165 0.843 0.47952 0.0
H1699 H 0.40362 0.91753 0.47318 0.0
H1700 H 0.19053 0.25885 0.73964 0.0
H1701 H 0.16759 0.25438 0.75829 0.0
H1702 H 0.15515 0.30553 0.75519 0.0
H1703 H 0.17825 0.31009 0.73676 0.0
H1704 H 0.15286 0.29587 0.78562 0.0
H1705 H 0.13329 0.2753 0.73429 0.0
H1706 H 0.13395 0.25851 0.70926 0.0
H1707 H 0.13407 0.21479 0.73837 0.0
H1708 H 0.13363 0.23133 0.7636 0.0
H1709 H 0.07181 0.28952 0.81712 0.0
H1710 H 0.09544 0.29381 0.79939 0.0
H1711 H 0.11066 0.24403 0.80749 0.0
H1712 H 0.08733 0.23972 0.82562 0.0
H1713 H 0.11149 0.2528 0.77477 0.0
H1714 H 0.13055 0.27412 0.8262 0.0
H1715 H 0.12927 0.29143 0.85085 0.0
H1716 H 0.12925 0.33452 0.8208 0.0
H1717 H 0.13029 0.31745 0.79595 0.0
C1718 C 0.18284 0.26912 0.74287 0.0
C1719 C 0.18617 0.28481 0.73669 0.0
C1720 C 0.16971 0.26655 0.75352 0.0
C1721 C 0.15945 0.27957 0.758 0.0
C1722 C 0.16287 0.29528 0.75195 0.0
C1723 C 0.17609 0.29788 0.74143 0.0
C1724 C 0.14523 0.27685 0.76904 0.0
C1725 C 0.14371 0.2866 0.7831 0.0
C1726 C 0.1334 0.26454 0.76599 0.0
C1727 C 0.13359 0.25456 0.75084 0.0
C1728 C 0.13358 0.2621 0.73536 0.0
C1729 C 0.13389 0.25263 0.72113 0.0
C1730 C 0.1341 0.23559 0.72222 0.0
C1731 C 0.13394 0.22799 0.73755 0.0
C1732 C 0.13364 0.23741 0.75181 0.0
C1733 C 0.08029 0.27953 0.81536 0.0
C1734 C 0.07761 0.26426 0.82288 0.0
C1735 C 0.09377 0.28199 0.80514 0.0
C1736 C 0.10487 0.26927 0.80218 0.0
C1737 C 0.10222 0.25401 0.80956 0.0
C1738 C 0.0888 0.25155 0.81987 0.0
C1739 C 0.11917 0.27183 0.79127 0.0
C1740 C 0.12067 0.26207 0.77725 0.0
C1741 C 0.13089 0.28421 0.79428 0.0
C1742 C 0.13034 0.2945 0.80921 0.0
C1743 C 0.13014 0.28728 0.82484 0.0
C1744 C 0.12948 0.29705 0.83885 0.0
C1745 C 0.12913 0.31406 0.83739 0.0
C1746 C 0.12949 0.32134 0.82191 0.0
C1747 C 0.13013 0.31163 0.80786 0.0
H1748 H 0.12863 0.32161 0.84825 0.0
H1749 H 0.13434 0.22828 0.7112 0.0
H1750 H 0.56252 0.5744 0.5176 0.0
H1751 H 0.55809 0.59724 0.49884 0.0
H1752 H 0.50607 0.58864 0.50041 0.0
H1753 H 0.51046 0.56535 0.51868 0.0
H1754 H 0.51559 0.59451 0.46982 0.0
H1755 H 0.52387 0.62016 0.52189 0.0
H1756 H 0.53826 0.62602 0.54779 0.0
H1757 H 0.57976 0.64383 0.52104 0.0
H1758 H 0.5657 0.63786 0.49497 0.0
H1759 H 0.4909 0.6708 0.43584 0.0
H1760 H 0.49528 0.64745 0.45399 0.0
H1761 H 0.54742 0.65474 0.45106 0.0
H1762 H 0.54317 0.678 0.43272 0.0
H1763 H 0.53773 0.64958 0.48232 0.0
H1764 H 0.52913 0.62393 0.43018 0.0
H1765 H 0.51445 0.61821 0.40441 0.0
H1766 H 0.47312 0.60058 0.43155 0.0
H1767 H 0.48748 0.60642 0.45749 0.0
C1768 C 0.55014 0.57725 0.51384 0.0
C1769 C 0.53685 0.56803 0.5197 0.0
C1770 C 0.54761 0.59044 0.50324 0.0
C1771 C 0.53172 0.59483 0.49837 0.0
C1772 C 0.51844 0.58555 0.50404 0.0
C1773 C 0.52096 0.57232 0.51462 0.0
C1774 C 0.52897 0.60903 0.4873 0.0
C1775 C 0.52024 0.6066 0.47267 0.0
C1776 C 0.53532 0.62475 0.49082 0.0
C1777 C 0.54379 0.62841 0.50648 0.0
C1778 C 0.53611 0.62521 0.52153 0.0
C1779 C 0.5442 0.62857 0.53625 0.0
C1780 C 0.55993 0.63525 0.53606 0.0
C1781 C 0.56758 0.63863 0.52117 0.0
C1782 C 0.55956 0.63527 0.50641 0.0
C1783 C 0.50332 0.66734 0.43887 0.0
C1784 C 0.51668 0.67629 0.43275 0.0
C1785 C 0.5058 0.65399 0.4493 0.0
C1786 C 0.52169 0.64924 0.45378 0.0
C1787 C 0.53505 0.6582 0.4478 0.0
C1788 C 0.53259 0.67154 0.43735 0.0
C1789 C 0.52438 0.63505 0.46486 0.0
C1790 C 0.53309 0.63749 0.47948 0.0
C1791 C 0.51796 0.61935 0.46137 0.0
C1792 C 0.50932 0.61577 0.44578 0.0
C1793 C 0.51687 0.61896 0.43065 0.0
C1794 C 0.50861 0.61567 0.41602 0.0
C1795 C 0.49285 0.60908 0.41634 0.0
C1796 C 0.48532 0.60571 0.43131 0.0
C1797 C 0.49352 0.609 0.44599 0.0
H1798 H 0.48648 0.60654 0.405 0.0
H1799 H 0.56617 0.63785 0.54747 0.0
H1800 H 0.81747 0.7595 0.76992 0.0
H1801 H 0.84091 0.7555 0.75189 0.0
H1802 H 0.84702 0.80767 0.74783 0.0
H1803 H 0.82393 0.81185 0.76629 0.0
H1804 H 0.84864 0.79138 0.71762 0.0
H1805 H 0.87221 0.78725 0.77156 0.0
H1806 H 0.87445 0.77641 0.79965 0.0
H1807 H 0.88221 0.72813 0.7807 0.0
H1808 H 0.87978 0.73864 0.75248 0.0
H1809 H 0.92659 0.79202 0.67987 0.0
H1810 H 0.90331 0.79645 0.69807 0.0
H1811 H 0.90235 0.74496 0.70954 0.0
H1812 H 0.92598 0.74061 0.69176 0.0
H1813 H 0.89782 0.76104 0.73613 0.0
H1814 H 0.87402 0.76406 0.68261 0.0
H1815 H 0.87093 0.77383 0.65421 0.0
H1816 H 0.86251 0.82259 0.67161 0.0
H1817 H 0.86577 0.81315 0.70012 0.0
C1818 C 0.82389 0.77016 0.76539 0.0
C1819 C 0.81877 0.78601 0.76966 0.0
C1820 C 0.83725 0.76783 0.755 0.0
C1821 C 0.84577 0.78128 0.74859 0.0
C1822 C 0.84059 0.79711 0.7526 0.0
C1823 C 0.82731 0.79947 0.7631 0.0
C1824 C 0.86011 0.77883 0.73775 0.0
C1825 C 0.8595 0.78493 0.72171 0.0
C1826 C 0.87407 0.77002 0.74296 0.0
C1827 C 0.87565 0.76371 0.75991 0.0
C1828 C 0.87426 0.7743 0.77339 0.0
C1829 C 0.87559 0.76822 0.78933 0.0
C1830 C 0.87843 0.75159 0.79196 0.0
C1831 C 0.87999 0.741 0.77865 0.0
C1832 C 0.87865 0.74702 0.76267 0.0
C1833 C 0.92134 0.78165 0.68622 0.0
C1834 C 0.92806 0.76596 0.68435 0.0
C1835 C 0.90799 0.78417 0.69659 0.0
C1836 C 0.90082 0.771 0.70501 0.0
C1837 C 0.90761 0.75533 0.70321 0.0
C1838 C 0.92112 0.75285 0.69304 0.0
C1839 C 0.88641 0.77355 0.71587 0.0
C1840 C 0.88699 0.76748 0.73196 0.0
C1841 C 0.87233 0.78221 0.71062 0.0
C1842 C 0.8703 0.78792 0.69349 0.0
C1843 C 0.87163 0.77689 0.68038 0.0
C1844 C 0.86982 0.78237 0.66426 0.0
C1845 C 0.86656 0.79883 0.66111 0.0
C1846 C 0.86505 0.80984 0.67407 0.0
C1847 C 0.86687 0.80443 0.69021 0.0
H1848 H 0.86517 0.80305 0.64862 0.0
H1849 H 0.87946 0.7469 0.80432 0.0
H1850 H 0.03396 0.91809 0.46705 0.0
H1851 H 0.02933 0.89495 0.48543 0.0
H1852 H 0.03375 0.92701 0.52713 0.0
H1853 H 0.03883 0.95012 0.50874 0.0
H1854 H 0.0492 0.90008 0.53337 0.0
H1855 H 0.99584 0.91233 0.51259 0.0
H1856 H 0.97502 0.91754 0.49134 0.0
H1857 H 0.98233 0.86938 0.47189 0.0
H1858 H 0.00337 0.86396 0.49289 0.0
H1859 H 0.0143 0.8447 0.59114 0.0
H1860 H 0.01849 0.8682 0.57301 0.0
H1861 H 0.02128 0.83586 0.53147 0.0
H1862 H 0.01695 0.81233 0.5495 0.0
H1863 H 0.00174 0.86305 0.52558 0.0
H1864 H 0.05546 0.85137 0.5469 0.0
H1865 H 0.07585 0.84664 0.56867 0.0
H1866 H 0.06686 0.89457 0.58796 0.0
H1867 H 0.04623 0.8995 0.56643 0.0
C1868 C 0.03386 0.9202 0.48014 0.0
C1869 C 0.03668 0.93593 0.48646 0.0
C1870 C 0.03117 0.90697 0.49065 0.0
C1871 C 0.03089 0.90923 0.50771 0.0
C1872 C 0.03388 0.92492 0.51403 0.0
C1873 C 0.03679 0.93812 0.50353 0.0
C1874 C 0.02764 0.89523 0.51894 0.0
C1875 C 0.03868 0.89215 0.53178 0.0
C1876 C 0.01407 0.88464 0.51677 0.0
C1877 C 1.00129 0.8878 0.50423 0.0
C1878 C 0.99309 0.90289 0.50372 0.0
C1879 C 0.98123 0.90587 0.49172 0.0
C1880 C 0.97738 0.89381 0.48024 0.0
C1881 C 0.98534 0.87871 0.48077 0.0
C1882 C 0.99722 0.87567 0.49273 0.0
C1883 C 0.0157 0.84261 0.57813 0.0
C1884 C 0.01536 0.82664 0.57176 0.0
C1885 C 0.01819 0.85604 0.5678 0.0
C1886 C 0.02032 0.85378 0.5509 0.0
C1887 C 0.0197 0.83789 0.54447 0.0
C1888 C 0.01735 0.82445 0.5548 0.0
C1889 C 0.0233 0.86796 0.53991 0.0
C1890 C 0.01222 0.87105 0.52714 0.0
C1891 C 0.03673 0.87865 0.54224 0.0
C1892 C 0.04918 0.87573 0.55515 0.0
C1893 C 0.05773 0.86085 0.55586 0.0
C1894 C 0.06935 0.85814 0.56815 0.0
C1895 C 0.07261 0.87028 0.57972 0.0
C1896 C 0.0643 0.88517 0.57901 0.0
C1897 C 0.05265 0.88793 0.56676 0.0
H1898 H 0.08162 0.86816 0.58922 0.0
H1899 H 0.96821 0.89615 0.47096 0.0
H1900 H 0.19965 0.71204 0.7478 0.0
H1901 H 0.17642 0.71629 0.72945 0.0
H1902 H 0.14667 0.73077 0.77046 0.0
H1903 H 0.16964 0.7258 0.78901 0.0
H1904 H 0.12976 0.71139 0.75101 0.0
H1905 H 0.16291 0.75905 0.74327 0.0
H1906 H 0.18816 0.77443 0.73733 0.0
H1907 H 0.19039 0.75274 0.68956 0.0
H1908 H 0.16526 0.73705 0.69529 0.0
H1909 H 0.06559 0.74805 0.70494 0.0
H1910 H 0.0889 0.7439 0.72331 0.0
H1911 H 0.11734 0.72538 0.68302 0.0
H1912 H 0.09414 0.72975 0.66451 0.0
H1913 H 0.1348 0.74697 0.70205 0.0
H1914 H 0.10134 0.69935 0.71019 0.0
H1915 H 0.07585 0.68447 0.71634 0.0
H1916 H 0.07397 0.70689 0.76379 0.0
H1917 H 0.09934 0.7221 0.75783 0.0
C1918 C 0.18812 0.71595 0.75297 0.0
C1919 C 0.18657 0.71861 0.76991 0.0
C1920 C 0.17488 0.71857 0.74242 0.0
C1921 C 0.15983 0.7241 0.74852 0.0
C1922 C 0.15817 0.72658 0.76544 0.0
C1923 C 0.17138 0.72388 0.77602 0.0
C1924 C 0.14579 0.72717 0.73728 0.0
C1925 C 0.13082 0.71936 0.74044 0.0
C1926 C 0.1472 0.73731 0.72327 0.0
C1927 C 0.16229 0.74676 0.71977 0.0
C1928 C 0.16885 0.75747 0.73154 0.0
C1929 C 0.18313 0.76626 0.72821 0.0
C1930 C 0.1909 0.76453 0.71309 0.0
C1931 C 0.18437 0.75405 0.70127 0.0
C1932 C 0.17011 0.74521 0.70455 0.0
C1933 C 0.07685 0.74323 0.69995 0.0
C1934 C 0.07799 0.7392 0.68326 0.0
C1935 C 0.09012 0.74074 0.7105 0.0
C1936 C 0.10482 0.73418 0.70457 0.0
C1937 C 0.1061 0.73041 0.68787 0.0
C1938 C 0.0928 0.7328 0.67733 0.0
C1939 C 0.11883 0.73121 0.71581 0.0
C1940 C 0.13377 0.73903 0.71264 0.0
C1941 C 0.11737 0.72117 0.72986 0.0
C1942 C 0.10215 0.71199 0.73349 0.0
C1943 C 0.09542 0.70122 0.72188 0.0
C1944 C 0.08101 0.6927 0.72534 0.0
C1945 C 0.07327 0.69477 0.74043 0.0
C1946 C 0.07996 0.70532 0.7521 0.0
C1947 C 0.09437 0.71388 0.74869 0.0
H1948 H 0.06212 0.68816 0.74309 0.0
H1949 H 0.20195 0.77135 0.71054 0.0
H1950 H 0.99423 0.56971 0.48343 0.0
H1951 H 0.99819 0.59306 0.5016 0.0
H1952 H 0.94593 0.59828 0.50626 0.0
H1953 H 0.94186 0.57544 0.48745 0.0
H1954 H 0.95953 0.62724 0.50255 0.0
H1955 H 0.9699 0.58075 0.5369 0.0
H1956 H 0.98306 0.55482 0.54484 0.0
H1957 H 0.03003 0.57832 0.54486 0.0
H1958 H 0.01717 0.60435 0.53671 0.0
H1959 H 0.9604 0.68027 0.57136 0.0
H1960 H 0.95625 0.65694 0.55318 0.0
H1961 H 0.00844 0.65203 0.54758 0.0
H1962 H 0.01272 0.67492 0.5663 0.0
H1963 H 0.99475 0.62289 0.55188 0.0
H1964 H 0.98421 0.66942 0.51747 0.0
H1965 H 0.9709 0.69532 0.50968 0.0
H1966 H 0.92402 0.67166 0.50997 0.0
H1967 H 0.93703 0.64565 0.51798 0.0
C1968 C 0.98356 0.57592 0.48816 0.0
C1969 C 0.96771 0.57062 0.48397 0.0
C1970 C 0.98585 0.58917 0.49873 0.0
C1971 C 0.97237 0.59731 0.50553 0.0
C1972 C 0.95654 0.59217 0.50125 0.0
C1973 C 0.95423 0.57898 0.4906 0.0
C1974 C 0.97474 0.61127 0.51699 0.0
C1975 C 0.96705 0.62621 0.51345 0.0
C1976 C 0.98484 0.61009 0.53106 0.0
C1977 C 0.99258 0.59446 0.53605 0.0
C1978 C 0.98305 0.58036 0.53849 0.0
C1979 C 0.99045 0.56565 0.54304 0.0
C1980 C 0.00737 0.56491 0.54532 0.0
C1981 C 0.01692 0.5789 0.54308 0.0
C1982 C 0.00958 0.59364 0.53851 0.0
C1983 C 0.97102 0.67415 0.5664 0.0
C1984 C 0.98691 0.67954 0.57029 0.0
C1985 C 0.96861 0.6609 0.55585 0.0
C1986 C 0.98203 0.65284 0.54881 0.0
C1987 C 0.99789 0.65809 0.55279 0.0
C1988 C 1.00031 0.67129 0.56338 0.0
C1989 C 0.97956 0.63885 0.53742 0.0
C1990 C 0.98722 0.62391 0.54097 0.0
C1991 C 0.96941 0.64003 0.52339 0.0
C1992 C 0.96158 0.65563 0.51847 0.0
C1993 C 0.97105 0.66977 0.51598 0.0
C1994 C 0.96356 0.68446 0.51151 0.0
C1995 C 0.94662 0.68515 0.50937 0.0
C1996 C 0.93714 0.67112 0.51165 0.0
C1997 C 0.94456 0.65639 0.51614 0.0
H1998 H 0.94085 0.69654 0.50591 0.0
H1999 H 0.01308 0.55351 0.54884 0.0
H2000 H 0.71722 0.83384 0.22907 0.0
H2001 H 0.7354 0.85687 0.23399 0.0
H2002 H 0.77577 0.82949 0.2141 0.0
H2003 H 0.758 0.80584 0.21052 0.0
H2004 H 0.7866 0.84505 0.23842 0.0
H2005 H 0.75444 0.86128 0.1924 0.0
H2006 H 0.72933 0.86656 0.17647 0.0
H2007 H 0.7143 0.90234 0.21176 0.0
H2008 H 0.73922 0.89711 0.22801 0.0
H2009 H 0.83024 0.92124 0.2159 0.0
H2010 H 0.81229 0.89764 0.21214 0.0
H2011 H 0.79014 0.90675 0.259 0.0
H2012 H 0.80866 0.92978 0.26345 0.0
H2013 H 0.77082 0.90087 0.22067 0.0
H2014 H 0.80373 0.8798 0.26798 0.0
H2015 H 0.83059 0.87464 0.2808 0.0
H2016 H 0.8459 0.84809 0.2382 0.0
H2017 H 0.81918 0.85333 0.22506 0.0
C2018 C 0.73002 0.83253 0.22599 0.0
C2019 C 0.73603 0.81784 0.21935 0.0
C2020 C 0.74038 0.8459 0.22855 0.0
C2021 C 0.75695 0.84514 0.2241 0.0
C2022 C 0.76304 0.83049 0.21757 0.0
C2023 C 0.75275 0.81699 0.21531 0.0
C2024 C 0.76798 0.85951 0.22647 0.0
C2025 C 0.78309 0.85719 0.23441 0.0
C2026 C 0.7636 0.87548 0.22126 0.0
C2027 C 0.74862 0.87869 0.2115 0.0
C2028 C 0.74572 0.87019 0.19682 0.0
C2029 C 0.73153 0.87319 0.18772 0.0
C2030 C 0.72021 0.88475 0.19312 0.0
C2031 C 0.72307 0.89337 0.2076 0.0
C2032 C 0.73723 0.89041 0.21676 0.0
C2033 C 0.82181 0.91812 0.2256 0.0
C2034 C 0.82106 0.9275 0.24005 0.0
C2035 C 0.81144 0.90469 0.22333 0.0
C2036 C 0.79999 0.90046 0.23533 0.0
C2037 C 0.79897 0.90984 0.24963 0.0
C2038 C 0.8095 0.92311 0.25206 0.0
C2039 C 0.78901 0.88628 0.23283 0.0
C2040 C 0.77408 0.88867 0.22473 0.0
C2041 C 0.79364 0.87036 0.23756 0.0
C2042 C 0.80959 0.86713 0.24549 0.0
C2043 C 0.8129 0.87302 0.2613 0.0
C2044 C 0.82807 0.87005 0.26863 0.0
C2045 C 0.83997 0.86109 0.2603 0.0
C2046 C 0.83669 0.85505 0.24463 0.0
C2047 C 0.82154 0.85802 0.23724 0.0
H2048 H 0.85171 0.8588 0.26599 0.0
H2049 H 0.70923 0.88705 0.18606 0.0
H2050 H 0.71617 0.16775 0.27779 0.0
H2051 H 0.73461 0.1449 0.27292 0.0
H2052 H 0.77542 0.17412 0.28929 0.0
H2053 H 0.75721 0.1974 0.29318 0.0
H2054 H 0.78437 0.15745 0.26398 0.0
H2055 H 0.75696 0.14379 0.31381 0.0
H2056 H 0.73337 0.13903 0.33195 0.0
H2057 H 0.71655 0.10047 0.30051 0.0
H2058 H 0.73993 0.10514 0.28205 0.0
H2059 H 0.83904 0.09096 0.27857 0.0
H2060 H 0.82065 0.11415 0.28233 0.0
H2061 H 0.78207 0.08781 0.25781 0.0
H2062 H 0.8005 0.06476 0.25343 0.0
H2063 H 0.77218 0.10277 0.28727 0.0
H2064 H 0.80069 0.11688 0.23773 0.0
H2065 H 0.82508 0.12169 0.22071 0.0
H2066 H 0.84083 0.15964 0.25342 0.0
H2067 H 0.81664 0.15489 0.27078 0.0
C2068 C 0.7291 0.16945 0.28014 0.0
C2069 C 0.73514 0.1845 0.28594 0.0
C2070 C 0.73962 0.15624 0.27757 0.0
C2071 C 0.75641 0.15763 0.28103 0.0
C2072 C 0.76252 0.17267 0.28662 0.0
C2073 C 0.75203 0.18595 0.28901 0.0
C2074 C 0.76759 0.14344 0.27872 0.0
C2075 C 0.78178 0.14557 0.26928 0.0
C2076 C 0.76416 0.1278 0.28537 0.0
C2077 C 0.75011 0.12493 0.29646 0.0
C2078 C 0.74816 0.13437 0.3107 0.0
C2079 C 0.73484 0.13168 0.32105 0.0
C2080 C 0.72345 0.11948 0.31736 0.0
C2081 C 0.72537 0.10993 0.30334 0.0
C2082 C 0.73866 0.11258 0.29293 0.0
C2083 C 0.82673 0.09013 0.27374 0.0
C2084 C 0.82134 0.07592 0.26562 0.0
C2085 C 0.8162 0.10339 0.276 0.0
C2086 C 0.80002 0.10273 0.27028 0.0
C2087 C 0.7945 0.08855 0.26237 0.0
C2088 C 0.80506 0.07533 0.25996 0.0
C2089 C 0.78885 0.11684 0.27258 0.0
C2090 C 0.7747 0.11468 0.28201 0.0
C2091 C 0.79242 0.13249 0.26611 0.0
C2092 C 0.80693 0.13541 0.25564 0.0
C2093 C 0.80942 0.12615 0.24137 0.0
C2094 C 0.8232 0.12889 0.23165 0.0
C2095 C 0.83452 0.14093 0.23601 0.0
C2096 C 0.83206 0.1503 0.25007 0.0
C2097 C 0.81831 0.1476 0.25985 0.0
H2098 H 0.84518 0.14303 0.22846 0.0
H2099 H 0.71314 0.11742 0.32539 0.0
H2100 H 0.42979 0.01816 0.94167 0.0
H2101 H 0.40692 0.99945 0.94605 0.0
H2102 H 0.41545 1.00113 0.99815 0.0
H2103 H 0.43877 0.01934 0.99381 0.0
H2104 H 0.40957 0.97061 0.98866 0.0
H2105 H 0.38399 0.02263 0.98008 0.0
H2106 H 0.37817 0.04839 0.9655 0.0
H2107 H 0.36032 0.02139 0.92409 0.0
H2108 H 0.36625 0.99545 0.93834 0.0
H2109 H 0.33349 0.93717 0.01397 0.0
H2110 H 0.35673 0.95534 0.00924 0.0
H2111 H 0.34902 0.95178 0.95713 0.0
H2112 H 0.32586 0.93341 0.96173 0.0
H2113 H 0.35446 0.98311 0.96646 0.0
H2114 H 0.3799 0.93103 0.9754 0.0
H2115 H 0.38555 0.9054 0.99026 0.0
H2116 H 0.4035 0.93275 0.03139 0.0
H2117 H 0.39774 0.95856 0.01686 0.0
C2118 C 0.42693 0.01443 0.95405 0.0
C2119 C 0.43613 0.02031 0.96739 0.0
C2120 C 0.41372 0.00385 0.95655 0.0
C2121 C 0.4093 0.99904 0.97245 0.0
C2122 C 0.41857 0.00472 0.98577 0.0
C2123 C 0.43182 0.01526 0.98328 0.0
C2124 C 0.39507 0.98802 0.97519 0.0
C2125 C 0.39748 0.97347 0.98399 0.0
C2126 C 0.37934 0.99152 0.96879 0.0
C2127 C 0.37572 0.0071 0.96022 0.0
C2128 C 0.37894 0.02219 0.96781 0.0
C2129 C 0.3756 0.03682 0.95962 0.0
C2130 C 0.36892 0.03652 0.94386 0.0
C2131 C 0.36552 0.0216 0.93629 0.0
C2132 C 0.36885 0.00693 0.94442 0.0
C2133 C 0.33683 0.94008 0.00148 0.0
C2134 C 0.32782 0.93373 0.98823 0.0
C2135 C 0.3501 0.95053 0.99881 0.0
C2136 C 0.35473 0.9548 0.98282 0.0
C2137 C 0.34566 0.94866 0.96957 0.0
C2138 C 0.33238 0.9382 0.97223 0.0
C2139 C 0.36897 0.96574 0.97995 0.0
C2140 C 0.36656 0.98027 0.97112 0.0
C2141 C 0.38469 0.96224 0.98636 0.0
C2142 C 0.38824 0.94673 0.9951 0.0
C2143 C 0.38493 0.93158 0.98766 0.0
C2144 C 0.38818 0.91702 0.99602 0.0
C2145 C 0.39484 0.91745 0.01178 0.0
C2146 C 0.39832 0.93244 0.01919 0.0
C2147 C 0.39508 0.94704 0.0109 0.0
H2148 H 0.39735 0.90616 0.01823 0.0
H2149 H 0.36634 0.04787 0.93754 0.0
H2150 H 0.24727 0.30503 0.29344 0.0
H2151 H 0.22877 0.3281 0.28939 0.0
H2152 H 0.26936 0.35813 0.27414 0.0
H2153 H 0.28805 0.33532 0.27887 0.0
H2154 H 0.25027 0.37479 0.29405 0.0
H2155 H 0.2417 0.34172 0.24633 0.0
H2156 H 0.23541 0.31647 0.23111 0.0
H2157 H 0.1881 0.31422 0.25367 0.0
H2158 H 0.19419 0.33935 0.2692 0.0
H2159 H 0.20471 0.43923 0.25796 0.0
H2160 H 0.22282 0.41589 0.26231 0.0
H2161 H 0.18205 0.38728 0.27963 0.0
H2162 H 0.16374 0.41045 0.27485 0.0
H2163 H 0.20096 0.36985 0.25889 0.0
H2164 H 0.20966 0.40329 0.30637 0.0
H2165 H 0.21608 0.4287 0.32125 0.0
H2166 H 0.2634 0.43041 0.29867 0.0
H2167 H 0.25717 0.40511 0.28347 0.0
C2168 C 0.25231 0.31658 0.28938 0.0
C2169 C 0.26919 0.31827 0.28646 0.0
C2170 C 0.24167 0.32973 0.28689 0.0
C2171 C 0.24761 0.34483 0.28123 0.0
C2172 C 0.26446 0.3466 0.27844 0.0
C2173 C 0.27512 0.33348 0.281 0.0
C2174 C 0.23632 0.35882 0.27838 0.0
C2175 C 0.23961 0.37375 0.28618 0.0
C2176 C 0.22218 0.35742 0.26841 0.0
C2177 C 0.21847 0.34233 0.25905 0.0
C2178 C 0.23 0.33577 0.24814 0.0
C2179 C 0.22647 0.32149 0.23944 0.0
C2180 C 0.21138 0.31372 0.24145 0.0
C2181 C 0.19979 0.32024 0.25214 0.0
C2182 C 0.20327 0.33451 0.26088 0.0
C2183 C 0.19954 0.42793 0.26255 0.0
C2184 C 0.18275 0.42674 0.26607 0.0
C2185 C 0.20996 0.41464 0.26519 0.0
C2186 C 0.20384 0.39987 0.27149 0.0
C2187 C 0.18706 0.39856 0.27483 0.0
C2188 C 0.17663 0.41187 0.27221 0.0
C2189 C 0.21495 0.3858 0.27452 0.0
C2190 C 0.21162 0.37086 0.26676 0.0
C2191 C 0.22908 0.38721 0.28448 0.0
C2192 C 0.23288 0.40238 0.29366 0.0
C2193 C 0.22138 0.40915 0.30448 0.0
C2194 C 0.225 0.42352 0.31299 0.0
C2195 C 0.24012 0.43119 0.31088 0.0
C2196 C 0.25168 0.42447 0.30028 0.0
C2197 C 0.24812 0.4101 0.29172 0.0
H2198 H 0.2429 0.44232 0.31748 0.0
H2199 H 0.20867 0.30266 0.23471 0.0
H2200 H 0.05519 0.00763 0.46605 0.0
H2201 H 0.07824 0.02621 0.47044 0.0
H2202 H 0.10985 0.985 0.47957 0.0
H2203 H 0.08679 0.96639 0.47539 0.0
H2204 H 0.11595 0.00816 0.50103 0.0
H2205 H 0.1102 0.00627 0.44266 0.0
H2206 H 0.09566 0.00838 0.41627 0.0
H2207 H 0.0851 0.05886 0.4258 0.0
H2208 H 0.09939 0.05699 0.45237 0.0
H2209 H 0.19206 0.04924 0.49171 0.0
H2210 H 0.16851 0.03119 0.48774 0.0
H2211 H 0.13693 0.07312 0.48325 0.0
H2212 H 0.16049 0.09128 0.48698 0.0
H2213 H 0.13071 0.04998 0.45959 0.0
H2214 H 0.13715 0.05156 0.518 0.0
H2215 H 0.15217 0.04909 0.5441 0.0
H2216 H 0.16208 0.99859 0.53393 0.0
H2217 H 0.14731 1.00083 0.50764 0.0
C2218 C 0.06708 0.00253 0.4689 0.0
C2219 C 0.06917 0.98553 0.47031 0.0
C2220 C 0.08026 0.01317 0.47139 0.0
C2221 C 0.09588 0.00703 0.47511 0.0
C2222 C 0.09794 0.99006 0.47673 0.0
C2223 C 0.08474 0.97942 0.47436 0.0
C2224 C 0.11005 0.01826 0.47738 0.0
C2225 C 0.11929 0.01715 0.49186 0.0
C2226 C 0.11427 0.03026 0.46559 0.0
C2227 C 0.10573 0.03144 0.44958 0.0
C2228 C 0.10467 0.01779 0.43919 0.0
C2229 C 0.09649 0.01894 0.42419 0.0
C2230 C 0.08942 0.03373 0.41938 0.0
C2231 C 0.09056 0.04741 0.42955 0.0
C2232 C 0.09871 0.04631 0.44458 0.0
C2233 C 0.18012 0.05463 0.48976 0.0
C2234 C 0.17815 0.07171 0.48968 0.0
C2235 C 0.16665 0.04429 0.48763 0.0
C2236 C 0.15093 0.0508 0.48534 0.0
C2237 C 0.14894 0.06784 0.48505 0.0
C2238 C 0.16239 0.07819 0.48729 0.0
C2239 C 0.13658 0.03981 0.48319 0.0
C2240 C 0.12733 0.04098 0.46874 0.0
C2241 C 0.13243 0.0278 0.49495 0.0
C2242 C 0.14126 0.02641 0.51078 0.0
C2243 C 0.14265 0.03997 0.52126 0.0
C2244 C 0.15109 0.0386 0.5361 0.0
C2245 C 0.15811 0.0237 0.54065 0.0
C2246 C 0.15666 0.01013 0.53038 0.0
C2247 C 0.14824 0.01144 0.51552 0.0
H2248 H 0.16464 0.02267 0.55214 0.0
H2249 H 0.08309 0.0346 0.40776 0.0
H2250 H 0.76643 0.18017 0.69255 0.0
H2251 H 0.74781 0.15726 0.69722 0.0
H2252 H 0.74947 0.16639 0.74919 0.0
H2253 H 0.76807 0.18938 0.74461 0.0
H2254 H 0.75227 0.13433 0.74289 0.0
H2255 H 0.71625 0.17749 0.72623 0.0
H2256 H 0.70628 0.19961 0.70829 0.0
H2257 H 0.69993 0.1654 0.66896 0.0
H2258 H 0.7101 0.14311 0.6866 0.0
H2259 H 0.685 0.08371 0.76439 0.0
H2260 H 0.70313 0.1071 0.7602 0.0
H2261 H 0.70158 0.09904 0.70804 0.0
H2262 H 0.68344 0.07563 0.71215 0.0
H2263 H 0.69856 0.1308 0.71474 0.0
H2264 H 0.7349 0.08773 0.73119 0.0
H2265 H 0.74502 0.06559 0.74902 0.0
H2266 H 0.75087 0.09957 0.78862 0.0
H2267 H 0.74056 0.12189 0.77109 0.0
C2268 C 0.76271 0.17742 0.70497 0.0
C2269 C 0.76869 0.18668 0.7182 0.0
C2270 C 0.75207 0.16429 0.70762 0.0
C2271 C 0.74707 0.1602 0.72355 0.0
C2272 C 0.75316 0.1693 0.7368 0.0
C2273 C 0.76382 0.18242 0.73416 0.0
C2274 C 0.7356 0.14636 0.72638 0.0
C2275 C 0.74043 0.13367 0.73692 0.0
C2276 C 0.72029 0.14529 0.7183 0.0
C2277 C 0.71408 0.15866 0.7077 0.0
C2278 C 0.71285 0.17471 0.71372 0.0
C2279 C 0.70714 0.18727 0.70361 0.0
C2280 C 0.70251 0.18392 0.68748 0.0
C2281 C 0.70354 0.16799 0.68145 0.0
C2282 C 0.70926 0.15538 0.6915 0.0
C2283 C 0.68861 0.08683 0.75203 0.0
C2284 C 0.6828 0.07773 0.73861 0.0
C2285 C 0.69898 0.10023 0.74965 0.0
C2286 C 0.7039 0.10474 0.73381 0.0
C2287 C 0.69795 0.09582 0.72038 0.0
C2288 C 0.68753 0.08246 0.72274 0.0
C2289 C 0.71524 0.11875 0.73123 0.0
C2290 C 0.71039 0.13146 0.72074 0.0
C2291 C 0.73053 0.11983 0.73934 0.0
C2292 C 0.7368 0.10645 0.74988 0.0
C2293 C 0.73822 0.09046 0.74374 0.0
C2294 C 0.74402 0.07788 0.75378 0.0
C2295 C 0.74854 0.08116 0.76995 0.0
C2296 C 0.74733 0.09704 0.7761 0.0
C2297 C 0.74153 0.10966 0.76611 0.0
H2298 H 0.75303 0.0714 0.77771 0.0
H2299 H 0.6981 0.19367 0.67968 0.0
H2300 H 0.41758 0.96443 0.53344 0.0
H2301 H 0.39443 0.98287 0.52934 0.0
H2302 H 0.42658 0.02439 0.53464 0.0
H2303 H 0.44972 0.00594 0.53911 0.0
H2304 H 0.39965 0.02991 0.55065 0.0
H2305 H 0.41175 0.01119 0.49652 0.0
H2306 H 0.41684 0.99077 0.47496 0.0
H2307 H 0.36864 0.97107 0.48172 0.0
H2308 H 0.36334 0.99124 0.5035 0.0
H2309 H 0.34509 0.08906 0.51704 0.0
H2310 H 0.3682 0.07064 0.52134 0.0
H2311 H 0.33532 0.02943 0.52224 0.0
H2312 H 0.31207 0.04777 0.51837 0.0
H2313 H 0.36254 0.02397 0.50288 0.0
H2314 H 0.35086 0.04331 0.5572 0.0
H2315 H 0.34619 0.06425 0.57836 0.0
H2316 H 0.39435 0.08358 0.57037 0.0
H2317 H 0.39922 0.06289 0.54899 0.0
C2318 C 0.41972 0.97749 0.53362 0.0
C2319 C 0.43549 0.98374 0.53651 0.0
C2320 C 0.40648 0.98804 0.53125 0.0
C2321 C 0.40876 0.00507 0.53141 0.0
C2322 C 0.42448 0.01132 0.53445 0.0
C2323 C 0.4377 1.00077 0.537 0.0
C2324 C 0.39474 0.01635 0.52857 0.0
C2325 C 0.3917 0.02873 0.54007 0.0
C2326 C 0.38411 0.01469 0.51494 0.0
C2327 C 0.3872 0.00263 0.50175 0.0
C2328 C 0.40227 0.00244 0.49349 0.0
C2329 C 0.40519 0.99092 0.48122 0.0
C2330 C 0.39308 0.9796 0.477 0.0
C2331 C 0.37801 0.97983 0.48501 0.0
C2332 C 0.37504 0.99131 0.49731 0.0
C2333 C 0.3427 0.07611 0.51837 0.0
C2334 C 0.32664 0.06996 0.51741 0.0
C2335 C 0.35596 0.06558 0.52074 0.0
C2336 C 0.35348 0.04867 0.52222 0.0
C2337 C 0.33753 0.04244 0.52108 0.0
C2338 C 0.32424 0.05296 0.5188 0.0
C2339 C 0.36753 0.03747 0.52494 0.0
C2340 C 0.37055 0.02512 0.51343 0.0
C2341 C 0.37822 0.03925 0.53847 0.0
C2342 C 0.37534 0.05165 0.55138 0.0
C2343 C 0.36041 0.05211 0.55986 0.0
C2344 C 0.35773 0.06392 0.57191 0.0
C2345 C 0.36995 0.07526 0.57568 0.0
C2346 C 0.38489 0.0748 0.56743 0.0
C2347 C 0.38762 0.06303 0.55535 0.0
H2348 H 0.36786 0.0844 0.58501 0.0
H2349 H 0.39537 0.97069 0.4675 0.0
H2350 H 0.58726 0.5381 0.53328 0.0
H2351 H 0.61028 0.51968 0.52853 0.0
H2352 H 0.5782 0.47813 0.53404 0.0
H2353 H 0.55523 0.49656 0.53926 0.0
H2354 H 0.60546 0.47197 0.54895 0.0
H2355 H 0.59203 0.49203 0.49568 0.0
H2356 H 0.58631 0.51276 0.47452 0.0
H2357 H 0.63462 0.53251 0.48051 0.0
H2358 H 0.64055 0.51203 0.50189 0.0
H2359 H 0.66 0.41448 0.51176 0.0
H2360 H 0.63657 0.43256 0.51652 0.0
H2361 H 0.66925 0.47366 0.52145 0.0
H2362 H 0.69272 0.45564 0.51681 0.0
H2363 H 0.64156 0.47947 0.5008 0.0
H2364 H 0.65425 0.45852 0.55455 0.0
H2365 H 0.65934 0.4368 0.57488 0.0
H2366 H 0.61124 0.4174 0.56649 0.0
H2367 H 0.60596 0.43887 0.54591 0.0
C2368 C 0.58513 0.52503 0.53342 0.0
C2369 C 0.56944 0.51877 0.53656 0.0
C2370 C 0.59828 0.5145 0.53065 0.0
C2371 C 0.59597 0.49747 0.53062 0.0
C2372 C 0.58033 0.4912 0.53398 0.0
C2373 C 0.56721 0.50174 0.53696 0.0
C2374 C 0.60988 0.48623 0.5272 0.0
C2375 C 0.61318 0.4735 0.53828 0.0
C2376 C 0.62018 0.48828 0.5134 0.0
C2377 C 0.61668 0.50059 0.5005 0.0
C2378 C 0.60139 0.50087 0.49257 0.0
C2379 C 0.59812 0.51256 0.48052 0.0
C2380 C 0.61008 0.52397 0.4762 0.0
C2381 C 0.62536 0.52368 0.48389 0.0
C2382 C 0.62869 0.51202 0.49596 0.0
C2383 C 0.66216 0.42739 0.51379 0.0
C2384 C 0.67818 0.43366 0.51396 0.0
C2385 C 0.64879 0.43767 0.51658 0.0
C2386 C 0.65119 0.45443 0.51941 0.0
C2387 C 0.66714 0.46076 0.51931 0.0
C2388 C 0.68053 0.45045 0.51676 0.0
C2389 C 0.63707 0.46535 0.52256 0.0
C2390 C 0.63376 0.47798 0.51142 0.0
C2391 C 0.62664 0.46307 0.53616 0.0
C2392 C 0.62978 0.45019 0.54857 0.0
C2393 C 0.64481 0.44953 0.55693 0.0
C2394 C 0.64772 0.43729 0.56852 0.0
C2395 C 0.63564 0.4257 0.57194 0.0
C2396 C 0.6206 0.42637 0.56381 0.0
C2397 C 0.61764 0.43858 0.55219 0.0
H2398 H 0.63791 0.41623 0.58092 0.0
H2399 H 0.60752 0.53302 0.46687 0.0
H2400 H 0.71179 0.25544 0.30643 0.0
H2401 H 0.71629 0.27368 0.32961 0.0
H2402 H 0.73094 0.23265 0.3594 0.0
H2403 H 0.72562 0.21418 0.3365 0.0
H2404 H 0.7121 0.25199 0.37654 0.0
H2405 H 0.75916 0.26002 0.34274 0.0
H2406 H 0.77413 0.26601 0.31727 0.0
H2407 H 0.75215 0.3136 0.31508 0.0
H2408 H 0.73686 0.3078 0.34044 0.0
H2409 H 0.74963 0.29888 0.4399 0.0
H2410 H 0.74497 0.28024 0.417 0.0
H2411 H 0.72553 0.31996 0.38824 0.0
H2412 H 0.7298 0.33864 0.41119 0.0
H2413 H 0.7472 0.30116 0.37082 0.0
H2414 H 0.70011 0.29258 0.40495 0.0
H2415 H 0.68577 0.2863 0.43072 0.0
H2416 H 0.70888 0.23924 0.43257 0.0
H2417 H 0.72354 0.24534 0.40691 0.0
C2418 C 0.71577 0.25023 0.31796 0.0
C2419 C 0.71837 0.2333 0.31953 0.0
C2420 C 0.71855 0.26073 0.33117 0.0
C2421 C 0.72423 0.25461 0.34622 0.0
C2422 C 0.72665 0.2377 0.3479 0.0
C2423 C 0.72376 0.22716 0.33472 0.0
C2424 C 0.7275 0.26581 0.36022 0.0
C2425 C 0.71998 0.26261 0.37532 0.0
C2426 C 0.73753 0.27987 0.35863 0.0
C2427 C 0.74674 0.28341 0.34341 0.0
C2428 C 0.75742 0.27172 0.33676 0.0
C2429 C 0.76598 0.27509 0.32236 0.0
C2430 C 0.76406 0.29016 0.31454 0.0
C2431 C 0.75361 0.30192 0.32114 0.0
C2432 C 0.745 0.2986 0.33554 0.0
C2433 C 0.74419 0.30365 0.42879 0.0
C2434 C 0.74004 0.3203 0.42746 0.0
C2435 C 0.7416 0.29297 0.41567 0.0
C2436 C 0.73479 0.29868 0.40094 0.0
C2437 C 0.73084 0.3153 0.39948 0.0
C2438 C 0.73336 0.32598 0.41261 0.0
C2439 C 0.73178 0.28733 0.38705 0.0
C2440 C 0.73936 0.29052 0.37199 0.0
C2441 C 0.72191 0.2732 0.38872 0.0
C2442 C 0.71305 0.26948 0.4041 0.0
C2443 C 0.70223 0.28095 0.41092 0.0
C2444 C 0.69403 0.27741 0.42549 0.0
C2445 C 0.69644 0.2624 0.4333 0.0
C2446 C 0.70704 0.25088 0.42652 0.0
C2447 C 0.71529 0.25436 0.41196 0.0
H2448 H 0.69008 0.25969 0.44458 0.0
H2449 H 0.7707 0.29274 0.30339 0.0
H2450 H 0.50747 0.04158 0.94894 0.0
H2451 H 0.52605 0.03727 0.92595 0.0
H2452 H 0.4848 0.02854 0.89408 0.0
H2453 H 0.46618 0.03263 0.91711 0.0
H2454 H 0.50785 0.00688 0.88828 0.0
H2455 H 0.50644 0.06526 0.89383 0.0
H2456 H 0.50877 0.09146 0.90854 0.0
H2457 H 0.55914 0.08134 0.91942 0.0
H2458 H 0.55705 0.05496 0.90496 0.0
H2459 H 0.54953 0.01442 0.81259 0.0
H2460 H 0.53131 0.01903 0.8358 0.0
H2461 H 0.57304 0.02483 0.86767 0.0
H2462 H 0.59137 0.02066 0.84441 0.0
H2463 H 0.55002 0.04794 0.87353 0.0
H2464 H 0.55129 0.98958 0.86772 0.0
H2465 H 0.54878 0.96342 0.85298 0.0
H2466 H 0.49839 0.97374 0.84239 0.0
H2467 H 0.50066 1.00009 0.85688 0.0
C2468 C 0.50236 0.03886 0.937 0.0
C2469 C 0.48535 0.03752 0.93483 0.0
C2470 C 0.51299 0.03641 0.92386 0.0
C2471 C 0.50684 0.0328 0.90819 0.0
C2472 C 0.48986 0.0313 0.90603 0.0
C2473 C 0.47922 0.03363 0.91921 0.0
C2474 C 0.51809 0.03045 0.89408 0.0
C2475 C 0.51691 0.01598 0.88493 0.0
C2476 C 0.5302 0.04213 0.88989 0.0
C2477 C 0.53154 0.05806 0.89844 0.0
C2478 C 0.51798 0.06857 0.89945 0.0
C2479 C 0.51926 0.08346 0.90773 0.0
C2480 C 0.53408 0.08804 0.91495 0.0
C2481 C 0.54767 0.07776 0.91385 0.0
C2482 C 0.54644 0.06285 0.9056 0.0
C2483 C 0.55485 0.01683 0.8245 0.0
C2484 C 0.57193 0.01714 0.82663 0.0
C2485 C 0.54441 0.01932 0.83779 0.0
C2486 C 0.5508 0.0221 0.85352 0.0
C2487 C 0.56783 0.02265 0.85566 0.0
C2488 C 0.57829 0.02013 0.84237 0.0
C2489 C 0.53971 0.02442 0.86773 0.0
C2490 C 0.54094 0.03887 0.8769 0.0
C2491 C 0.52761 0.01276 0.87191 0.0
C2492 C 0.52619 0.99688 0.86325 0.0
C2493 C 0.53971 0.98633 0.86214 0.0
C2494 C 0.53832 0.97146 0.85385 0.0
C2495 C 0.52345 0.96694 0.84672 0.0
C2496 C 0.50991 0.97727 0.8479 0.0
C2497 C 0.51123 0.99217 0.85616 0.0
H2498 H 0.5224 0.95541 0.84031 0.0
H2499 H 0.53505 0.09957 0.92137 0.0
H2500 H 0.28245 0.28868 0.33698 0.0
H2501 H 0.27833 0.27026 0.36024 0.0
H2502 H 0.28663 0.22873 0.3289 0.0
H2503 H 0.29052 0.24708 0.30552 0.0
H2504 H 0.26002 0.22432 0.34883 0.0
H2505 H 0.31604 0.24107 0.35468 0.0
H2506 H 0.33867 0.26088 0.35686 0.0
H2507 H 0.31724 0.28106 0.40029 0.0
H2508 H 0.29434 0.26151 0.39823 0.0
H2509 H 0.26945 0.16413 0.41058 0.0
H2510 H 0.2738 0.18249 0.38742 0.0
H2511 H 0.26936 0.2241 0.41947 0.0
H2512 H 0.26574 0.2058 0.44284 0.0
H2513 H 0.29395 0.22858 0.39908 0.0
H2514 H 0.23796 0.21226 0.39347 0.0
H2515 H 0.21495 0.19287 0.39137 0.0
H2516 H 0.23571 0.17245 0.34773 0.0
H2517 H 0.25898 0.19157 0.34969 0.0
C2518 C 0.28331 0.27562 0.33502 0.0
C2519 C 0.28684 0.26935 0.3194 0.0
C2520 C 0.28107 0.26512 0.34835 0.0
C2521 C 0.2823 0.24811 0.34635 0.0
C2522 C 0.28566 0.2418 0.33074 0.0
C2523 C 0.288 0.25231 0.31742 0.0
C2524 C 0.28001 0.23691 0.36051 0.0
C2525 C 0.26758 0.2251 0.35974 0.0
C2526 C 0.2896 0.2382 0.3749 0.0
C2527 C 0.30339 0.24993 0.3762 0.0
C2528 C 0.31608 0.24982 0.36462 0.0
C2529 C 0.32897 0.26098 0.36585 0.0
C2530 C 0.32938 0.27225 0.37868 0.0
C2531 C 0.3169 0.27234 0.39034 0.0
C2532 C 0.30397 0.26121 0.38916 0.0
C2533 C 0.26956 0.17718 0.41277 0.0
C2534 C 0.2672 0.18345 0.42863 0.0
C2535 C 0.27187 0.18769 0.39945 0.0
C2536 C 0.27168 0.20472 0.40163 0.0
C2537 C 0.26948 0.21102 0.41745 0.0
C2538 C 0.26724 0.20051 0.43079 0.0
C2539 C 0.27394 0.21595 0.38744 0.0
C2540 C 0.28637 0.22779 0.3882 0.0
C2541 C 0.26429 0.21473 0.37306 0.0
C2542 C 0.25029 0.20324 0.37182 0.0
C2543 C 0.23769 0.20355 0.38349 0.0
C2544 C 0.22459 0.19262 0.38232 0.0
C2545 C 0.22389 0.18141 0.36945 0.0
C2546 C 0.23628 0.18113 0.3577 0.0
C2547 C 0.24942 0.19202 0.35883 0.0
H2548 H 0.21374 0.17296 0.36856 0.0
H2549 H 0.33937 0.28088 0.37962 0.0
H2550 H 0.51473 0.44276 0.93072 0.0
H2551 H 0.49612 0.44725 0.90777 0.0
H2552 H 0.50016 0.49937 0.91456 0.0
H2553 H 0.51815 0.49496 0.93809 0.0
H2554 H 0.46951 0.49158 0.90853 0.0
H2555 H 0.52088 0.47899 0.88358 0.0
H2556 H 0.54582 0.46289 0.8785 0.0
H2557 H 0.51659 0.42227 0.86253 0.0
H2558 H 0.49145 0.43806 0.86772 0.0
H2559 H 0.43748 0.51427 0.83038 0.0
H2560 H 0.45523 0.51011 0.85414 0.0
H2561 H 0.44851 0.45799 0.85016 0.0
H2562 H 0.4305 0.46203 0.82659 0.0
H2563 H 0.48056 0.46606 0.85463 0.0
H2564 H 0.42909 0.47929 0.87963 0.0
H2565 H 0.40447 0.49596 0.8844 0.0
H2566 H 0.43447 0.53622 0.89985 0.0
H2567 H 0.4593 0.51985 0.89494 0.0
C2568 C 0.51151 0.45519 0.9275 0.0
C2569 C 0.51801 0.46849 0.93629 0.0
C2570 C 0.501 0.45775 0.91421 0.0
C2571 C 0.49691 0.47367 0.90922 0.0
C2572 C 0.50319 0.48697 0.9181 0.0
C2573 C 0.51362 0.48442 0.93146 0.0
C2574 C 0.48607 0.47644 0.8948 0.0
C2575 C 0.47207 0.48618 0.89669 0.0
C2576 C 0.48918 0.46916 0.87938 0.0
C2577 C 0.50428 0.45966 0.87619 0.0
C2578 C 0.51977 0.46658 0.8791 0.0
C2579 C 0.53394 0.45752 0.87618 0.0
C2580 C 0.53279 0.44155 0.87024 0.0
C2581 C 0.51746 0.43463 0.86715 0.0
C2582 C 0.50325 0.44364 0.87007 0.0
C2583 C 0.43958 0.50192 0.83467 0.0
C2584 C 0.43249 0.48849 0.82653 0.0
C2585 C 0.44979 0.49956 0.84824 0.0
C2586 C 0.45312 0.48374 0.85401 0.0
C2587 C 0.44616 0.47031 0.84589 0.0
C2588 C 0.4359 0.47265 0.83236 0.0
C2589 C 0.46402 0.48115 0.86839 0.0
C2590 C 0.47803 0.47146 0.86648 0.0
C2591 C 0.46097 0.48856 0.88374 0.0
C2592 C 0.44606 0.4984 0.88676 0.0
C2593 C 0.43044 0.49174 0.88392 0.0
C2594 C 0.41645 0.50113 0.88667 0.0
C2595 C 0.41791 0.51715 0.89238 0.0
C2596 C 0.43336 0.52381 0.8954 0.0
C2597 C 0.4474 0.51448 0.89265 0.0
H2598 H 0.40706 0.5244 0.89451 0.0
H2599 H 0.54378 0.43456 0.86799 0.0
H2600 H 0.72519 0.78764 0.16904 0.0
H2601 H 0.72977 0.76927 0.14596 0.0
H2602 H 0.71852 0.72783 0.17662 0.0
H2603 H 0.71466 0.74606 0.19996 0.0
H2604 H 0.74415 0.72121 0.15833 0.0
H2605 H 0.69076 0.74321 0.1483 0.0
H2606 H 0.67015 0.76488 0.14462 0.0
H2607 H 0.69664 0.78359 0.10333 0.0
H2608 H 0.71754 0.76215 0.1069 0.0
H2609 H 0.73213 0.66321 0.09449 0.0
H2610 H 0.7279 0.68167 0.11765 0.0
H2611 H 0.74247 0.72261 0.08774 0.0
H2612 H 0.7464 0.70427 0.06443 0.0
H2613 H 0.71519 0.72943 0.10553 0.0
H2614 H 0.76849 0.70697 0.11574 0.0
H2615 H 0.7887 0.68493 0.11949 0.0
H2616 H 0.76167 0.66663 0.16062 0.0
H2617 H 0.74117 0.68844 0.15697 0.0
C2618 C 0.72386 0.77461 0.17095 0.0
C2619 C 0.7195 0.76836 0.1864 0.0
C2620 C 0.7263 0.76412 0.15766 0.0
C2621 C 0.72426 0.74715 0.15945 0.0
C2622 C 0.72009 0.74087 0.17489 0.0
C2623 C 0.71773 0.75134 0.1882 0.0
C2624 C 0.7266 0.73595 0.14529 0.0
C2625 C 0.73763 0.72289 0.14687 0.0
C2626 C 0.71838 0.73829 0.13018 0.0
C2627 C 0.7058 0.75117 0.12797 0.0
C2628 C 0.69226 0.75202 0.13851 0.0
C2629 C 0.68052 0.76425 0.13643 0.0
C2630 C 0.68211 0.77563 0.12378 0.0
C2631 C 0.69544 0.77478 0.11314 0.0
C2632 C 0.70723 0.76258 0.11518 0.0
C2633 C 0.73433 0.67616 0.09281 0.0
C2634 C 0.73965 0.68225 0.07761 0.0
C2635 C 0.73204 0.68668 0.10609 0.0
C2636 C 0.73502 0.70351 0.10448 0.0
C2637 C 0.74015 0.70966 0.08929 0.0
C2638 C 0.74252 0.69914 0.07602 0.0
C2639 C 0.73271 0.71473 0.1186 0.0
C2640 C 0.72168 0.72777 0.11701 0.0
C2641 C 0.74086 0.71233 0.13372 0.0
C2642 C 0.75321 0.69924 0.13598 0.0
C2643 C 0.76679 0.69817 0.1255 0.0
C2644 C 0.77831 0.68573 0.12762 0.0
C2645 C 0.77645 0.67436 0.14025 0.0
C2646 C 0.76308 0.67543 0.15082 0.0
C2647 C 0.75152 0.68784 0.14874 0.0
H2648 H 0.78538 0.66474 0.14188 0.0
H2649 H 0.673 0.78509 0.12219 0.0
H2650 H 0.02155 0.00917 0.06907 0.0
H2651 H 0.00391 0.00468 0.09266 0.0
H2652 H 0.99813 0.05677 0.09829 0.0
H2653 H 0.01665 0.06139 0.07538 0.0
H2654 H 1.00168 0.04386 0.12693 0.0
H2655 H 0.96781 0.03139 0.08075 0.0
H2656 H 0.96012 0.01783 0.05491 0.0
H2657 H 0.96228 0.97103 0.07864 0.0
H2658 H 0.97019 0.98431 0.10459 0.0
H2659 H 0.93056 0.0408 0.17735 0.0
H2660 H 0.94914 0.04501 0.15424 0.0
H2661 H 0.96127 0.99374 0.15466 0.0
H2662 H 0.94265 0.98944 0.17776 0.0
H2663 H 0.95435 0.00606 0.12321 0.0
H2664 H 0.98781 0.01971 0.16981 0.0
H2665 H 0.99441 0.03424 0.19542 0.0
H2666 H 0.99158 0.08024 0.17023 0.0
H2667 H 0.98472 0.06599 0.14451 0.0
C2668 C 0.01674 0.01971 0.07544 0.0
C2669 C 0.02056 0.03567 0.07021 0.0
C2670 C 0.00643 0.01711 0.08882 0.0
C2671 C 0.99939 0.03037 0.09713 0.0
C2672 C 0.0033 0.04631 0.09206 0.0
C2673 C 0.01377 0.04893 0.0788 0.0
C2674 C 0.98809 0.02765 0.11116 0.0
C2675 C 0.99121 0.03576 0.126 0.0
C2676 C 0.97455 0.01686 0.11015 0.0
C2677 C 0.96975 0.00884 0.09457 0.0
C2678 C 0.96676 0.0182 0.08043 0.0
C2679 C 0.96234 0.01056 0.06577 0.0
C2680 C 0.96075 0.99357 0.06513 0.0
C2681 C 0.96354 0.98419 0.07916 0.0
C2682 C 0.96797 0.99176 0.09385 0.0
C2683 C 0.93714 0.03042 0.17247 0.0
C2684 C 0.93516 0.01479 0.17937 0.0
C2685 C 0.94782 0.03286 0.15934 0.0
C2686 C 0.95665 0.01971 0.1528 0.0
C2687 C 0.95459 0.00406 0.15955 0.0
C2688 C 0.94404 0.00164 0.1728 0.0
C2689 C 0.96798 0.02228 0.13885 0.0
C2690 C 0.96484 0.01414 0.12406 0.0
C2691 C 0.98137 0.0332 0.13984 0.0
C2692 C 0.98559 0.04179 0.15527 0.0
C2693 C 0.98846 0.03293 0.16976 0.0
C2694 C 0.99227 0.04112 0.18429 0.0
C2695 C 0.99337 0.05816 0.18446 0.0
C2696 C 0.9907 0.06705 0.17009 0.0
C2697 C 0.98686 0.05892 0.15553 0.0
H2698 H 0.99633 0.06447 0.19572 0.0
H2699 H 0.95733 0.98768 0.05377 0.0
H2700 H 0.29207 0.75688 0.19853 0.0
H2701 H 0.28746 0.77522 0.17534 0.0
H2702 H 0.27393 0.73408 0.14522 0.0
H2703 H 0.27909 0.71559 0.16819 0.0
H2704 H 0.29357 0.75433 0.12882 0.0
H2705 H 0.24498 0.75998 0.16116 0.0
H2706 H 0.22919 0.76526 0.18627 0.0
H2707 H 0.24925 0.8137 0.189 0.0
H2708 H 0.26534 0.80863 0.16402 0.0
H2709 H 0.25738 0.79887 0.06352 0.0
H2710 H 0.26202 0.78055 0.08673 0.0
H2711 H 0.27532 0.82176 0.11686 0.0
H2712 H 0.27067 0.84016 0.0937 0.0
H2713 H 0.2558 0.8015 0.13329 0.0
H2714 H 0.30441 0.79586 0.10099 0.0
H2715 H 0.32024 0.79061 0.0759 0.0
H2716 H 0.30021 0.74216 0.07312 0.0
H2717 H 0.28408 0.7472 0.09809 0.0
C2718 C 0.28827 0.7517 0.18693 0.0
C2719 C 0.28592 0.73474 0.18526 0.0
C2720 C 0.28547 0.76223 0.17372 0.0
C2721 C 0.28014 0.75607 0.15857 0.0
C2722 C 0.27797 0.73914 0.1568 0.0
C2723 C 0.28079 0.72859 0.16999 0.0
C2724 C 0.27692 0.76724 0.14454 0.0
C2725 C 0.28514 0.76451 0.12973 0.0
C2726 C 0.26621 0.78077 0.14582 0.0
C2727 C 0.25649 0.78387 0.1608 0.0
C2728 C 0.24612 0.77172 0.16718 0.0
C2729 C 0.2371 0.77468 0.18138 0.0
C2730 C 0.23825 0.78979 0.18925 0.0
C2731 C 0.24839 0.80199 0.18291 0.0
C2732 C 0.25745 0.79909 0.16872 0.0
C2733 C 0.26141 0.80403 0.07505 0.0
C2734 C 0.26372 0.82099 0.07672 0.0
C2735 C 0.26405 0.79354 0.08833 0.0
C2736 C 0.26923 0.79974 0.10351 0.0
C2737 C 0.27132 0.81668 0.10528 0.0
C2738 C 0.26861 0.82719 0.09203 0.0
C2739 C 0.27245 0.78858 0.11756 0.0
C2740 C 0.26423 0.79132 0.13237 0.0
C2741 C 0.28317 0.77506 0.11629 0.0
C2742 C 0.29292 0.77197 0.10132 0.0
C2743 C 0.30329 0.78413 0.09496 0.0
C2744 C 0.31233 0.78118 0.08077 0.0
C2745 C 0.3112 0.76607 0.07289 0.0
C2746 C 0.30106 0.75386 0.07922 0.0
C2747 C 0.29198 0.75675 0.0934 0.0
H2748 H 0.31821 0.76382 0.06191 0.0
H2749 H 0.23125 0.79205 0.20024 0.0
H2750 H 0.00819 0.4656 0.05343 0.0
H2751 H 0.0267 0.46991 0.0766 0.0
H2752 H 0.98528 0.47574 0.10868 0.0
H2753 H 0.96674 0.47172 0.08547 0.0
H2754 H 0.00733 0.49782 0.1157 0.0
H2755 H 0.00846 0.43987 0.10743 0.0
H2756 H 0.01182 0.41437 0.09176 0.0
H2757 H 0.06169 0.42709 0.08141 0.0
H2758 H 0.05855 0.4528 0.09684 0.0
H2759 H 0.0497 0.48741 0.19114 0.0
H2760 H 0.0316 0.48328 0.16761 0.0
H2761 H 0.07332 0.483 0.13543 0.0
H2762 H 0.09154 0.48689 0.15897 0.0
H2763 H 0.05144 0.45819 0.12846 0.0
H2764 H 0.04988 0.51621 0.13742 0.0
H2765 H 0.04611 0.5413 0.15366 0.0
H2766 H 0.99637 0.52768 0.16348 0.0
H2767 H 0.99992 0.50238 0.14748 0.0
C2768 C 0.00304 0.46771 0.06544 0.0
C2769 C 0.986 0.46825 0.06763 0.0
C2770 C 0.01363 0.47015 0.0787 0.0
C2771 C 0.00742 0.47291 0.09448 0.0
C2772 C 0.9904 0.47364 0.09664 0.0
C2773 C 0.9798 0.47136 0.08336 0.0
C2774 C 0.01863 0.47511 0.10872 0.0
C2775 C 0.01682 0.48903 0.1186 0.0
C2776 C 0.03127 0.46383 0.11237 0.0
C2777 C 0.03322 0.44834 0.10315 0.0
C2778 C 0.0201 0.43729 0.10171 0.0
C2779 C 0.02197 0.42279 0.09289 0.0
C2780 C 0.03695 0.41913 0.08556 0.0
C2781 C 0.05009 0.42995 0.08708 0.0
C2782 C 0.04828 0.44448 0.09587 0.0
C2783 C 0.05504 0.48634 0.17908 0.0
C2784 C 0.07207 0.48751 0.17693 0.0
C2785 C 0.04467 0.48411 0.16562 0.0
C2786 C 0.0511 0.48298 0.14974 0.0
C2787 C 0.06809 0.48389 0.14757 0.0
C2788 C 0.07847 0.48623 0.16101 0.0
C2789 C 0.04007 0.48085 0.1354 0.0
C2790 C 0.04193 0.46696 0.12552 0.0
C2791 C 0.0274 0.49208 0.13182 0.0
C2792 C 0.02522 0.50732 0.14139 0.0
C2793 C 0.03818 0.5185 0.14316 0.0
C2794 C 0.03607 0.53277 0.1523 0.0
C2795 C 0.02102 0.53606 0.15964 0.0
C2796 C 0.00803 0.52511 0.15781 0.0
C2797 C 0.01007 0.5108 0.14869 0.0
H2798 H 0.01941 0.54712 0.16671 0.0
H2799 H 0.03837 0.4079 0.07873 0.0
H2800 H 0.30548 0.71372 0.25672 0.0
H2801 H 0.32883 0.71796 0.27502 0.0
H2802 H 0.3598 0.72725 0.23338 0.0
H2803 H 0.33655 0.72269 0.21497 0.0
H2804 H 0.37444 0.70696 0.25549 0.0
H2805 H 0.34646 0.7585 0.25658 0.0
H2806 H 0.32277 0.77676 0.26007 0.0
H2807 H 0.31779 0.76103 0.30998 0.0
H2808 H 0.34132 0.74249 0.30671 0.0
H2809 H 0.44214 0.74036 0.29823 0.0
H2810 H 0.41883 0.73635 0.27995 0.0
H2811 H 0.38719 0.72992 0.32163 0.0
H2812 H 0.41033 0.73464 0.34003 0.0
H2813 H 0.37281 0.74872 0.29944 0.0
H2814 H 0.40048 0.69715 0.29859 0.0
H2815 H 0.42394 0.67855 0.29529 0.0
H2816 H 0.42923 0.69383 0.24528 0.0
H2817 H 0.40593 0.71269 0.24835 0.0
C2818 C 0.31728 0.71656 0.25145 0.0
C2819 C 0.31914 0.71791 0.23438 0.0
C2820 C 0.33059 0.71911 0.26193 0.0
C2821 C 0.34603 0.72309 0.25558 0.0
C2822 C 0.34798 0.72425 0.23855 0.0
C2823 C 0.33466 0.72177 0.22806 0.0
C2824 C 0.36017 0.72597 0.26671 0.0
C2825 C 0.37417 0.71624 0.26496 0.0
C2826 C 0.35967 0.7378 0.27933 0.0
C2827 C 0.34556 0.74898 0.28135 0.0
C2828 C 0.34024 0.75883 0.26826 0.0
C2829 C 0.32685 0.76925 0.27021 0.0
C2830 C 0.31875 0.77002 0.28522 0.0
C2831 C 0.32406 0.7604 0.29834 0.0
C2832 C 0.33743 0.74995 0.29645 0.0
C2833 C 0.4302 0.73828 0.30355 0.0
C2834 C 0.42816 0.73781 0.32065 0.0
C2835 C 0.4169 0.73579 0.29305 0.0
C2836 C 0.40126 0.73259 0.29939 0.0
C2837 C 0.39913 0.73229 0.31643 0.0
C2838 C 0.41243 0.73483 0.32695 0.0
C2839 C 0.38712 0.7297 0.28824 0.0
C2840 C 0.37309 0.73943 0.28998 0.0
C2841 C 0.38757 0.71782 0.27565 0.0
C2842 C 0.40156 0.70645 0.27375 0.0
C2843 C 0.40673 0.69664 0.28692 0.0
C2844 C 0.41998 0.68603 0.28509 0.0
C2845 C 0.4281 0.68504 0.27009 0.0
C2846 C 0.42295 0.69462 0.25689 0.0
C2847 C 0.40971 0.70527 0.25867 0.0
H2848 H 0.43836 0.67682 0.2687 0.0
H2849 H 0.30839 0.7781 0.28671 0.0
H2850 H 0.96297 0.44877 0.99608 0.0
H2851 H 0.96739 0.42567 0.97766 0.0
H2852 H 0.98157 0.39562 0.01869 0.0
H2853 H 0.97694 0.41856 0.03723 0.0
H2854 H 0.00238 0.39199 0.99299 0.0
H2855 H 0.94421 0.3914 0.00148 0.0
H2856 H 0.9165 0.40323 0.00188 0.0
H2857 H 0.9195 0.41303 0.95032 0.0
H2858 H 0.94734 0.40146 0.94967 0.0
H2859 H 0.99904 0.31441 0.95494 0.0
H2860 H 0.99456 0.3379 0.97272 0.0
H2861 H 0.9773 0.36593 0.93142 0.0
H2862 H 0.98101 0.34222 0.91366 0.0
H2863 H 0.95824 0.37107 0.95686 0.0
H2864 H 0.01606 0.37159 0.94797 0.0
H2865 H 0.04396 0.36023 0.94728 0.0
H2866 H 0.04198 0.35116 0.99901 0.0
H2867 H 0.01397 0.36226 0.99997 0.0
C2868 C 0.96686 0.43721 1.00123 0.0
C2869 C 0.96955 0.43555 0.01818 0.0
C2870 C 0.96944 0.42402 0.99066 0.0
C2871 C 0.97469 0.40886 0.9968 0.0
C2872 C 0.97756 0.40721 0.01366 0.0
C2873 C 0.97496 0.42037 0.02425 0.0
C2874 C 0.97723 0.39472 0.98566 0.0
C2875 C 0.99268 0.38728 0.98523 0.0
C2876 C 0.9647 0.38885 0.97521 0.0
C2877 C 0.94792 0.39572 0.97556 0.0
C2878 C 0.93901 0.3962 0.99025 0.0
C2879 C 0.92327 0.40283 0.99052 0.0
C2880 C 0.91626 0.40892 0.97614 0.0
C2881 C 0.92496 0.40833 0.96146 0.0
C2882 C 0.94071 0.40173 0.96113 0.0
C2883 C 0.99413 0.32549 0.94963 0.0
C2884 C 0.99042 0.32636 0.93281 0.0
C2885 C 0.99176 0.33901 0.95981 0.0
C2886 C 0.98581 0.3538 0.9534 0.0
C2887 C 0.98198 0.35469 0.93666 0.0
C2888 C 0.98427 0.34115 0.92647 0.0
C2889 C 0.98341 0.36826 0.9642 0.0
C2890 C 0.96798 0.37578 0.96457 0.0
C2891 C 0.99599 0.37426 0.97454 0.0
C2892 C 0.01285 0.36762 0.97401 0.0
C2893 C 0.02152 0.36706 0.95917 0.0
C2894 C 0.03737 0.36068 0.95874 0.0
C2895 C 0.04472 0.35494 0.97309 0.0
C2896 C 0.03626 0.3556 0.98791 0.0
C2897 C 0.02041 0.36194 0.98841 0.0
H2898 H 0.05699 0.35001 0.97272 0.0
H2899 H 0.90407 0.41405 0.97638 0.0
H2900 H 0.70103 0.78953 0.25864 0.0
H2901 H 0.67795 0.7853 0.27709 0.0
H2902 H 0.64724 0.7728 0.23595 0.0
H2903 H 0.67005 0.77776 0.21735 0.0
H2904 H 0.63131 0.79232 0.25584 0.0
H2905 H 0.66282 0.7434 0.26254 0.0
H2906 H 0.68756 0.72712 0.26819 0.0
H2907 H 0.69068 0.74774 0.31641 0.0
H2908 H 0.66607 0.76432 0.31096 0.0
H2909 H 0.56594 0.75646 0.30023 0.0
H2910 H 0.58945 0.76058 0.28226 0.0
H2911 H 0.61834 0.77657 0.32349 0.0
H2912 H 0.59494 0.77214 0.34163 0.0
H2913 H 0.63523 0.7554 0.30389 0.0
H2914 H 0.60329 0.80413 0.29691 0.0
H2915 H 0.5783 0.81994 0.29106 0.0
H2916 H 0.57577 0.799 0.24295 0.0
H2917 H 0.60062 0.78287 0.2486 0.0
C2918 C 0.68934 0.78602 0.25348 0.0
C2919 C 0.68745 0.78396 0.23648 0.0
C2920 C 0.67618 0.78342 0.26409 0.0
C2921 C 0.66087 0.7785 0.25796 0.0
C2922 C 0.65893 0.77652 0.241 0.0
C2923 C 0.67205 0.7792 0.23038 0.0
C2924 C 0.64681 0.77569 0.26918 0.0
C2925 C 0.63212 0.78407 0.26621 0.0
C2926 C 0.64792 0.76521 0.28296 0.0
C2927 C 0.6627 0.75522 0.28628 0.0
C2928 C 0.66885 0.74456 0.2743 0.0
C2929 C 0.68284 0.73526 0.27747 0.0
C2930 C 0.69071 0.73643 0.29263 0.0
C2931 C 0.68458 0.74687 0.30466 0.0
C2932 C 0.67061 0.75621 0.30155 0.0
C2933 C 0.57733 0.76071 0.30552 0.0
C2934 C 0.57854 0.764 0.32238 0.0
C2935 C 0.59072 0.7632 0.29519 0.0
C2936 C 0.60561 0.76904 0.30149 0.0
C2937 C 0.60695 0.7721 0.31835 0.0
C2938 C 0.59354 0.76969 0.32868 0.0
C2939 C 0.61977 0.77198 0.29048 0.0
C2940 C 0.63446 0.76364 0.29351 0.0
C2941 C 0.61864 0.78243 0.2767 0.0
C2942 C 0.60373 0.79217 0.27324 0.0
C2943 C 0.59733 0.80279 0.28513 0.0
C2944 C 0.5832 0.81183 0.28184 0.0
C2945 C 0.57543 0.81044 0.26665 0.0
C2946 C 0.58179 0.80004 0.25471 0.0
C2947 C 0.59591 0.79096 0.25795 0.0
H2948 H 0.56449 0.81745 0.26413 0.0
H2949 H 0.70153 0.72922 0.29506 0.0
H2950 H 0.03863 0.05384 0.99774 0.0
H2951 H 0.03397 0.07687 0.9792 0.0
H2952 H 0.02713 0.10876 0.02065 0.0
H2953 H 0.03152 0.08569 0.03922 0.0
H2954 H 0.00507 0.1153 0.99819 0.0
H2955 H 0.06329 0.10816 0.99805 0.0
H2956 H 0.08906 0.09284 0.99506 0.0
H2957 H 0.07717 0.08236 0.94493 0.0
H2958 H 0.05121 0.09743 0.94769 0.0
H2959 H 0.01403 0.19082 0.95596 0.0
H2960 H 0.01845 0.16749 0.97421 0.0
H2961 H 0.02112 0.13537 0.93249 0.0
H2962 H 0.01702 0.15869 0.91414 0.0
H2963 H 0.04523 0.12896 0.95485 0.0
H2964 H 0.987 0.13654 0.95525 0.0
H2965 H 0.96142 0.15211 0.95851 0.0
H2966 H 0.97379 0.16221 0.0086 0.0
H2967 H 0.99958 0.14689 0.00557 0.0
C2968 C 0.03621 0.06578 0.00289 0.0
C2969 C 0.03552 0.06796 0.01995 0.0
C2970 C 0.03356 0.07895 0.99229 0.0
C2971 C 0.03045 0.09465 0.9985 0.0
C2972 C 0.02952 0.09679 0.01554 0.0
C2973 C 0.03201 0.08359 0.02614 0.0
C2974 C 0.02813 0.10883 0.98729 0.0
C2975 C 0.01398 0.1184 0.98887 0.0
C2976 C 0.03956 0.11274 0.97486 0.0
C2977 C 0.05523 0.10379 0.97312 0.0
C2978 C 0.06612 0.10249 0.98642 0.0
C2979 C 0.08076 0.09387 0.98476 0.0
C2980 C 0.08473 0.08659 0.96983 0.0
C2981 C 0.07407 0.08798 0.9565 0.0
C2982 C 0.0594 0.09658 0.9581 0.0
C2983 C 0.01569 0.17881 0.95066 0.0
C2984 C 0.01512 0.17661 0.93358 0.0
C2985 C 0.01808 0.16547 0.96111 0.0
C2986 C 0.01995 0.14965 0.95472 0.0
C2987 C 0.01965 0.14745 0.93769 0.0
C2988 C 0.01718 0.16077 0.92723 0.0
C2989 C 0.02221 0.1354 0.96581 0.0
C2990 C 0.03635 0.12583 0.96419 0.0
C2991 C 0.01082 0.13155 0.97825 0.0
C2992 C 0.99529 0.14071 0.98013 0.0
C2993 C 0.98433 0.1422 0.96692 0.0
C2994 C 0.96978 0.15096 0.96874 0.0
C2995 C 0.966 0.15818 0.98374 0.0
C2996 C 0.97675 0.15663 0.99698 0.0
C2997 C 0.99132 0.1479 0.99522 0.0
H2998 H 0.95473 0.16496 0.98512 0.0
H2999 H 0.09607 0.07991 0.96857 0.0
H3000 H 0.31668 0.25913 0.26938 0.0
H3001 H 0.33983 0.25482 0.25103 0.0
H3002 H 0.34662 0.30692 0.247 0.0
H3003 H 0.32377 0.31138 0.26568 0.0
H3004 H 0.34805 0.29119 0.21694 0.0
H3005 H 0.37166 0.28542 0.27071 0.0
H3006 H 0.37377 0.27398 0.29857 0.0
H3007 H 0.38048 0.22594 0.27861 0.0
H3008 H 0.37817 0.23707 0.25061 0.0
H3009 H 0.42649 0.29201 0.18019 0.0
H3010 H 0.40302 0.29605 0.19822 0.0
H3011 H 0.4008 0.24412 0.2072 0.0
H3012 H 0.42449 0.24007 0.18943 0.0
H3013 H 0.39665 0.25949 0.23469 0.0
H3014 H 0.37319 0.26442 0.18122 0.0
H3015 H 0.37039 0.27503 0.15309 0.0
H3016 H 0.36255 0.32339 0.17184 0.0
H3017 H 0.36553 0.3131 0.20009 0.0
C3018 C 0.32318 0.26969 0.26475 0.0
C3019 C 0.31833 0.28561 0.2691 0.0
C3020 C 0.33639 0.2672 0.25419 0.0
C3021 C 0.34503 0.28055 0.24772 0.0
C3022 C 0.34009 0.29644 0.2518 0.0
C3023 C 0.32696 0.29896 0.26245 0.0
C3024 C 0.35928 0.27795 0.23677 0.0
C3025 C 0.35878 0.28444 0.22087 0.0
C3026 C 0.37306 0.26875 0.24175 0.0
C3027 C 0.37457 0.26206 0.25857 0.0
C3028 C 0.37345 0.2724 0.27226 0.0
C3029 C 0.37471 0.26598 0.28808 0.0
C3030 C 0.37721 0.24924 0.29036 0.0
C3031 C 0.37852 0.2389 0.27682 0.0
C3032 C 0.37725 0.24526 0.26098 0.0
C3033 C 0.42092 0.28144 0.18592 0.0
C3034 C 0.42732 0.26571 0.18334 0.0
C3035 C 0.40747 0.28376 0.19621 0.0
C3036 C 0.39993 0.27037 0.20392 0.0
C3037 C 0.40638 0.25466 0.20142 0.0
C3038 C 0.41993 0.25236 0.19127 0.0
C3039 C 0.3855 0.27275 0.21477 0.0
C3040 C 0.38594 0.26622 0.23069 0.0
C3041 C 0.37158 0.28178 0.20974 0.0
C3042 C 0.36974 0.28801 0.19277 0.0
C3043 C 0.37099 0.27733 0.17934 0.0
C3044 C 0.36935 0.28329 0.16338 0.0
C3045 C 0.36633 0.29988 0.16068 0.0
C3046 C 0.36491 0.31054 0.17395 0.0
C3047 C 0.36655 0.30465 0.18994 0.0
H3048 H 0.36507 0.30447 0.14831 0.0
H3049 H 0.37818 0.24429 0.30261 0.0
H3050 H 0.50893 0.43961 0.98809 0.0
H3051 H 0.50461 0.41654 0.00668 0.0
H3052 H 0.55618 0.40567 0.00537 0.0
H3053 H 0.56052 0.42847 0.98646 0.0
H3054 H 0.53811 0.37823 0.00234 0.0
H3055 H 0.53946 0.42447 0.0383 0.0
H3056 H 0.5314 0.45166 0.04841 0.0
H3057 H 0.48215 0.43476 0.05519 0.0
H3058 H 0.48987 0.40751 0.0449 0.0
H3059 H 0.54153 0.32469 0.0707 0.0
H3060 H 0.54541 0.34785 0.05222 0.0
H3061 H 0.49363 0.35757 0.05323 0.0
H3062 H 0.48956 0.33424 0.07151 0.0
H3063 H 0.51154 0.38556 0.05637 0.0
H3064 H 0.51028 0.33927 0.02051 0.0
H3065 H 0.51842 0.31207 0.01047 0.0
H3066 H 0.56759 0.32912 0.00355 0.0
H3067 H 0.5598 0.35637 0.01378 0.0
C3068 C 0.51933 0.43224 0.99166 0.0
C3069 C 0.53508 0.43591 0.9858 0.0
C3070 C 0.51687 0.41914 0.00241 0.0
C3071 C 0.5301 0.40946 0.00757 0.0
C3072 C 0.5458 0.41299 0.00161 0.0
C3073 C 0.54828 0.42611 0.9909 0.0
C3074 C 0.52755 0.39557 0.01906 0.0
C3075 C 0.5325 0.37988 0.01425 0.0
C3076 C 0.51989 0.39763 0.03445 0.0
C3077 C 0.51521 0.414 0.04067 0.0
C3078 C 0.52688 0.42659 0.04182 0.0
C3079 C 0.52238 0.442 0.04761 0.0
C3080 C 0.50626 0.44495 0.0524 0.0
C3081 C 0.49462 0.43247 0.05145 0.0
C3082 C 0.49906 0.41703 0.04565 0.0
C3083 C 0.53092 0.33163 0.06689 0.0
C3084 C 0.51521 0.32749 0.07257 0.0
C3085 C 0.53318 0.34492 0.05635 0.0
C3086 C 0.51979 0.35436 0.0512 0.0
C3087 C 0.50414 0.35048 0.05706 0.0
C3088 C 0.50185 0.33715 0.06757 0.0
C3089 C 0.52213 0.36824 0.03966 0.0
C3090 C 0.51714 0.38392 0.04446 0.0
C3091 C 0.52977 0.36618 0.02427 0.0
C3092 C 0.53449 0.34981 0.01807 0.0
C3093 C 0.52286 0.33718 0.01698 0.0
C3094 C 0.52741 0.32176 0.01123 0.0
C3095 C 0.54352 0.31885 0.00642 0.0
C3096 C 0.55512 0.33138 0.00731 0.0
C3097 C 0.55064 0.34682 0.01307 0.0
H3098 H 0.54702 0.30691 0.00197 0.0
H3099 H 0.5028 0.45689 0.05688 0.0
H3100 H 0.69937 0.21399 0.24759 0.0
H3101 H 0.67606 0.21851 0.22928 0.0
H3102 H 0.64475 0.22595 0.271 0.0
H3103 H 0.66794 0.22112 0.28939 0.0
H3104 H 0.6305 0.20616 0.24824 0.0
H3105 H 0.65781 0.25813 0.24882 0.0
H3106 H 0.68127 0.27687 0.24596 0.0
H3107 H 0.68659 0.26286 0.19562 0.0
H3108 H 0.66329 0.24385 0.19825 0.0
H3109 H 0.56248 0.2399 0.20625 0.0
H3110 H 0.58581 0.2358 0.22453 0.0
H3111 H 0.61764 0.23087 0.18282 0.0
H3112 H 0.59448 0.23561 0.16446 0.0
H3113 H 0.63171 0.24937 0.20561 0.0
H3114 H 0.60473 0.19737 0.20478 0.0
H3115 H 0.58151 0.17831 0.20742 0.0
H3116 H 0.57583 0.19186 0.25785 0.0
H3117 H 0.59889 0.21118 0.25545 0.0
C3118 C 0.6875 0.21648 0.25286 0.0
C3119 C 0.68552 0.21723 0.26995 0.0
C3120 C 0.67421 0.21919 0.24238 0.0
C3121 C 0.65868 0.22273 0.24876 0.0
C3122 C 0.65663 0.2233 0.2658 0.0
C3123 C 0.66992 0.22066 0.27629 0.0
C3124 C 0.64456 0.22574 0.23766 0.0
C3125 C 0.63067 0.21575 0.23907 0.0
C3126 C 0.64493 0.23799 0.22541 0.0
C3127 C 0.65891 0.24945 0.22378 0.0
C3128 C 0.66407 0.25895 0.23718 0.0
C3129 C 0.67732 0.26963 0.23559 0.0
C3130 C 0.68544 0.27102 0.22063 0.0
C3131 C 0.6803 0.26175 0.20721 0.0
C3132 C 0.66707 0.25103 0.20874 0.0
C3133 C 0.57447 0.23812 0.20094 0.0
C3134 C 0.57656 0.23804 0.18385 0.0
C3135 C 0.58778 0.2356 0.21143 0.0
C3136 C 0.60347 0.23279 0.20507 0.0
C3137 C 0.60565 0.23293 0.18803 0.0
C3138 C 0.59235 0.23549 0.17753 0.0
C3139 C 0.61761 0.22978 0.21618 0.0
C3140 C 0.63152 0.23977 0.21478 0.0
C3141 C 0.61728 0.21748 0.22839 0.0
C3142 C 0.60344 0.20584 0.22989 0.0
C3143 C 0.59845 0.19638 0.2164 0.0
C3144 C 0.58533 0.18552 0.21786 0.0
C3145 C 0.57717 0.18391 0.23278 0.0
C3146 C 0.58215 0.19314 0.24629 0.0
C3147 C 0.59525 0.20404 0.24489 0.0
H3148 H 0.56702 0.17549 0.23388 0.0
H3149 H 0.6957 0.2793 0.21943 0.0
H3150 H 0.47181 0.08769 0.96475 0.0
H3151 H 0.47591 0.11085 0.9832 0.0
H3152 H 0.47 0.07889 0.02483 0.0
H3153 H 0.4655 0.05575 0.00637 0.0
H3154 H 0.45421 0.10592 0.03016 0.0
H3155 H 0.50832 0.09336 0.01193 0.0
H3156 H 0.52998 0.08803 0.99169 0.0
H3157 H 0.5237 0.13619 0.97174 0.0
H3158 H 0.50184 0.14174 0.99172 0.0
H3159 H 0.488 0.16031 0.08948 0.0
H3160 H 0.48369 0.13721 0.07105 0.0
H3161 H 0.48263 0.17003 0.02975 0.0
H3162 H 0.48646 0.19329 0.0481 0.0
H3163 H 0.50218 0.14265 0.0245 0.0
H3164 H 0.44784 0.15473 0.04344 0.0
H3165 H 0.42664 0.15959 0.06427 0.0
H3166 H 0.43432 0.11146 0.08382 0.0
H3167 H 0.45574 0.10641 0.06323 0.0
C3168 C 0.47148 0.0856 0.97784 0.0
C3169 C 0.46841 0.06989 0.98412 0.0
C3170 C 0.47386 0.09884 0.98839 0.0
C3171 C 0.47354 0.09662 0.00546 0.0
C3172 C 0.47032 0.08095 0.01173 0.0
C3173 C 0.46775 0.06773 1.00118 0.0
C3174 C 0.47638 0.11063 0.01675 0.0
C3175 C 0.46484 0.11378 0.02905 0.0
C3176 C 0.49008 0.12115 0.01516 0.0
C3177 C 0.50333 0.11791 0.00322 0.0
C3178 C 0.51148 0.10278 0.00315 0.0
C3179 C 0.52381 0.09972 0.99173 0.0
C3180 C 0.52818 0.11174 0.9804 0.0
C3181 C 0.52028 0.12688 0.98051 0.0
C3182 C 0.50793 0.12999 0.99189 0.0
C3183 C 0.48663 0.1627 0.07651 0.0
C3184 C 0.48752 0.17875 0.07034 0.0
C3185 C 0.48426 0.14943 0.06598 0.0
C3186 C 0.48275 0.1519 0.04904 0.0
C3187 C 0.48382 0.16784 0.04278 0.0
C3188 C 0.48609 0.18113 0.05332 0.0
C3189 C 0.48003 0.13786 0.03784 0.0
C3190 C 0.49159 0.13473 0.02558 0.0
C3191 C 0.46645 0.12727 0.03956 0.0
C3192 C 0.45351 0.13026 0.05189 0.0
C3193 C 0.4451 0.14523 0.05226 0.0
C3194 C 0.43303 0.14801 0.06401 0.0
C3195 C 0.42917 0.13586 0.07539 0.0
C3196 C 0.43734 0.12088 0.07501 0.0
C3197 C 0.44944 0.11804 0.0633 0.0
H3198 H 0.41981 0.13803 0.08448 0.0
H3199 H 0.53772 0.10935 0.97157 0.0
H3200 H 0.2355 0.32516 0.69363 0.0
H3201 H 0.25406 0.34824 0.69784 0.0
H3202 H 0.25565 0.33771 0.74957 0.0
H3203 H 0.23703 0.31465 0.74545 0.0
H3204 H 0.25258 0.36959 0.74478 0.0
H3205 H 0.28755 0.32764 0.724 0.0
H3206 H 0.29649 0.30632 0.7047 0.0
H3207 H 0.29971 0.342 0.66626 0.0
H3208 H 0.29055 0.36351 0.68529 0.0
H3209 H 0.32248 0.41848 0.76329 0.0
H3210 H 0.30387 0.39541 0.75936 0.0
H3211 H 0.29885 0.40789 0.70831 0.0
H3212 H 0.31711 0.43122 0.71217 0.0
H3213 H 0.30391 0.37495 0.71298 0.0
H3214 H 0.26877 0.41686 0.73425 0.0
H3215 H 0.26013 0.43795 0.75394 0.0
H3216 H 0.25777 0.40186 0.79206 0.0
H3217 H 0.26664 0.38058 0.77263 0.0
C3218 C 0.2399 0.32768 0.70589 0.0
C3219 C 0.23482 0.31802 0.71919 0.0
C3220 C 0.25051 0.34089 0.70828 0.0
C3221 C 0.25644 0.34462 0.72401 0.0
C3222 C 0.25125 0.3351 0.73734 0.0
C3223 C 0.24057 0.32194 0.73496 0.0
C3224 C 0.26797 0.35848 0.72656 0.0
C3225 C 0.26391 0.37062 0.73799 0.0
C3226 C 0.28264 0.36004 0.71749 0.0
C3227 C 0.28821 0.34715 0.70603 0.0
C3228 C 0.29004 0.33092 0.7114 0.0
C3229 C 0.29517 0.3188 0.70052 0.0
C3230 C 0.29862 0.32279 0.68426 0.0
C3231 C 0.297 0.33892 0.67886 0.0
C3232 C 0.29186 0.35108 0.68969 0.0
C3233 C 0.31729 0.41647 0.75125 0.0
C3234 C 0.32132 0.4268 0.73806 0.0
C3235 C 0.30669 0.40321 0.74902 0.0
C3236 C 0.29989 0.39998 0.73356 0.0
C3237 C 0.30401 0.41012 0.72034 0.0
C3238 C 0.31453 0.42342 0.72257 0.0
C3239 C 0.28848 0.38602 0.73116 0.0
C3240 C 0.29258 0.37388 0.71978 0.0
C3241 C 0.27391 0.3844 0.74033 0.0
C3242 C 0.26853 0.39716 0.75202 0.0
C3243 C 0.26654 0.41345 0.74686 0.0
C3244 C 0.26158 0.42543 0.75797 0.0
C3245 C 0.25845 0.42126 0.77425 0.0
C3246 C 0.26023 0.40508 0.77945 0.0
C3247 C 0.26521 0.39305 0.76839 0.0
H3248 H 0.2546 0.43055 0.78283 0.0
H3249 H 0.30259 0.31339 0.67585 0.0
H3250 H 0.25839 0.70015 0.78874 0.0
H3251 H 0.27658 0.67677 0.7845 0.0
H3252 H 0.23474 0.64503 0.77951 0.0
H3253 H 0.21648 0.66835 0.78386 0.0
H3254 H 0.25896 0.63217 0.79987 0.0
H3255 H 0.25472 0.6564 0.74627 0.0
H3256 H 0.2563 0.67889 0.72623 0.0
H3257 H 0.30732 0.68524 0.73707 0.0
H3258 H 0.30598 0.66292 0.75737 0.0
H3259 H 0.29866 0.56226 0.76852 0.0
H3260 H 0.28076 0.58565 0.7727 0.0
H3261 H 0.32226 0.61811 0.76977 0.0
H3262 H 0.34012 0.59486 0.76447 0.0
H3263 H 0.29827 0.63094 0.75374 0.0
H3264 H 0.30323 0.60735 0.80713 0.0
H3265 H 0.30225 0.58553 0.82795 0.0
H3266 H 0.25098 0.57875 0.81873 0.0
H3267 H 0.2517 0.6004 0.7977 0.0
C3268 C 0.25308 0.68817 0.78682 0.0
C3269 C 0.236 0.68609 0.78659 0.0
C3270 C 0.26348 0.67485 0.7843 0.0
C3271 C 0.25701 0.65917 0.78158 0.0
C3272 C 0.23998 0.65702 0.78156 0.0
C3273 C 0.22958 0.67036 0.78393 0.0
C3274 C 0.26801 0.64501 0.77875 0.0
C3275 C 0.26742 0.63178 0.78967 0.0
C3276 C 0.27936 0.64474 0.76571 0.0
C3277 C 0.28021 0.6581 0.75346 0.0
C3278 C 0.26624 0.66268 0.74448 0.0
C3279 C 0.2671 0.67538 0.73306 0.0
C3280 C 0.28189 0.68352 0.73041 0.0
C3281 C 0.29586 0.67894 0.73915 0.0
C3282 C 0.29506 0.66626 0.75061 0.0
C3283 C 0.30401 0.57436 0.76853 0.0
C3284 C 0.32092 0.57657 0.76616 0.0
C3285 C 0.29375 0.58776 0.77118 0.0
C3286 C 0.30015 0.60369 0.77186 0.0
C3287 C 0.31699 0.60596 0.7694 0.0
C3288 C 0.32725 0.59258 0.76655 0.0
C3289 C 0.28928 0.61799 0.77488 0.0
C3290 C 0.28986 0.63127 0.76398 0.0
C3291 C 0.27804 0.61839 0.78806 0.0
C3292 C 0.27756 0.60539 0.80073 0.0
C3293 C 0.29177 0.60113 0.80946 0.0
C3294 C 0.29126 0.5888 0.82131 0.0
C3295 C 0.27657 0.58073 0.82463 0.0
C3296 C 0.26235 0.585 0.81613 0.0
C3297 C 0.2628 0.59731 0.80425 0.0
H3298 H 0.2762 0.57119 0.83381 0.0
H3299 H 0.28253 0.69335 0.72156 0.0
H3300 H 0.91935 0.53834 0.47742 0.0
H3301 H 0.89702 0.51914 0.48238 0.0
H3302 H 0.92632 0.47979 0.46341 0.0
H3303 H 0.94911 0.49866 0.45919 0.0
H3304 H 0.89287 0.48243 0.45032 0.0
H3305 H 0.92239 0.48022 0.50154 0.0
H3306 H 0.93539 0.49221 0.526 0.0
H3307 H 0.88946 0.51303 0.54041 0.0
H3308 H 0.87623 0.50135 0.51588 0.0
H3309 H 0.84049 0.41716 0.47156 0.0
H3310 H 0.8641 0.4349 0.46786 0.0
H3311 H 0.84235 0.47079 0.49971 0.0
H3312 H 0.81934 0.45255 0.50461 0.0
H3313 H 0.87266 0.46986 0.50614 0.0
H3314 H 0.84275 0.47385 0.45593 0.0
H3315 H 0.82871 0.46388 0.43112 0.0
H3316 H 0.87346 0.44241 0.4142 0.0
H3317 H 0.88772 0.45207 0.43903 0.0
C3318 C 0.92124 0.52557 0.47455 0.0
C3319 C 0.93617 0.52013 0.46793 0.0
C3320 C 0.90837 0.51464 0.47729 0.0
C3321 C 0.91004 0.49807 0.47327 0.0
C3322 C 0.92478 0.49256 0.46651 0.0
C3323 C 0.93776 0.50343 0.46402 0.0
C3324 C 0.89635 0.4865 0.47609 0.0
C3325 C 0.88856 0.47946 0.46251 0.0
C3326 C 0.89045 0.48311 0.49198 0.0
C3327 C 0.89836 0.49005 0.50679 0.0
C3328 C 0.91509 0.48747 0.50984 0.0
C3329 C 0.9225 0.49419 0.52374 0.0
C3330 C 0.91327 0.50341 0.53473 0.0
C3331 C 0.8966 0.5059 0.53187 0.0
C3332 C 0.88914 0.49922 0.51799 0.0
C3333 C 0.84078 0.42869 0.47804 0.0
C3334 C 0.82782 0.43335 0.48835 0.0
C3335 C 0.85424 0.43899 0.47567 0.0
C3336 C 0.85492 0.45441 0.4832 0.0
C3337 C 0.84213 0.45903 0.49365 0.0
C3338 C 0.82881 0.44861 0.49627 0.0
C3339 C 0.86898 0.46569 0.48032 0.0
C3340 C 0.87689 0.47273 0.4939 0.0
C3341 C 0.87478 0.46935 0.46438 0.0
C3342 C 0.86626 0.46354 0.44942 0.0
C3343 C 0.84956 0.4669 0.44698 0.0
C3344 C 0.84157 0.46132 0.4329 0.0
C3345 C 0.85018 0.45248 0.42111 0.0
C3346 C 0.8668 0.44924 0.42335 0.0
C3347 C 0.87485 0.45477 0.43742 0.0
H3348 H 0.84397 0.44817 0.41022 0.0
H3349 H 0.91902 0.5086 0.54548 0.0
H3350 H 0.76743 0.81481 0.75993 0.0
H3351 H 0.74895 0.83786 0.75545 0.0
H3352 H 0.74843 0.84745 0.80734 0.0
H3353 H 0.76704 0.82451 0.81191 0.0
H3354 H 0.718 0.84918 0.79448 0.0
H3355 H 0.77093 0.87104 0.78164 0.0
H3356 H 0.7976 0.87191 0.76767 0.0
H3357 H 0.77338 0.87526 0.7211 0.0
H3358 H 0.74654 0.87418 0.73479 0.0
H3359 H 0.68413 0.92906 0.79198 0.0
H3360 H 0.70202 0.90552 0.79615 0.0
H3361 H 0.70253 0.89675 0.74411 0.0
H3362 H 0.68452 0.92022 0.73984 0.0
H3363 H 0.7328 0.89442 0.75681 0.0
H3364 H 0.67987 0.87282 0.7696 0.0
H3365 H 0.65317 0.87189 0.78353 0.0
H3366 H 0.67732 0.86798 0.8301 0.0
H3367 H 0.70418 0.86912 0.81646 0.0
C3368 C 0.76352 0.82191 0.77038 0.0
C3369 C 0.76881 0.81784 0.78628 0.0
C3370 C 0.75291 0.83506 0.7678 0.0
C3371 C 0.74742 0.84451 0.78104 0.0
C3372 C 0.75247 0.84034 0.79694 0.0
C3373 C 0.76308 0.82718 0.79954 0.0
C3374 C 0.73645 0.85875 0.77832 0.0
C3375 C 0.72133 0.85917 0.78641 0.0
C3376 C 0.7406 0.87162 0.76749 0.0
C3377 C 0.75673 0.87236 0.75923 0.0
C3378 C 0.77129 0.87183 0.76841 0.0
C3379 C 0.78644 0.87239 0.76055 0.0
C3380 C 0.78719 0.8736 0.7435 0.0
C3381 C 0.77278 0.8743 0.7343 0.0
C3382 C 0.7576 0.87373 0.7421 0.0
C3383 C 0.68788 0.92202 0.78142 0.0
C3384 C 0.6828 0.92652 0.76557 0.0
C3385 C 0.69815 0.90857 0.78383 0.0
C3386 C 0.7035 0.89924 0.77046 0.0
C3387 C 0.69859 0.90377 0.75461 0.0
C3388 C 0.68832 0.91723 0.75219 0.0
C3389 C 0.71435 0.88486 0.77299 0.0
C3390 C 0.72945 0.88441 0.76487 0.0
C3391 C 0.71017 0.87197 0.78378 0.0
C3392 C 0.69404 0.87122 0.79202 0.0
C3393 C 0.67949 0.87189 0.78282 0.0
C3394 C 0.66433 0.8713 0.79066 0.0
C3395 C 0.66355 0.86992 0.80769 0.0
C3396 C 0.67794 0.86908 0.81691 0.0
C3397 C 0.69314 0.86968 0.80913 0.0
H3398 H 0.6518 0.86946 0.81374 0.0
H3399 H 0.79893 0.87403 0.73743 0.0
H3400 H 0.55473 0.50693 0.96333 0.0
H3401 H 0.57813 0.52512 0.96737 0.0
H3402 H 0.6088 0.48354 0.97787 0.0
H3403 H 0.58543 0.46527 0.97386 0.0
H3404 H 0.61448 0.50745 0.99927 0.0
H3405 H 0.61057 0.50352 0.94082 0.0
H3406 H 0.59684 0.50495 0.91395 0.0
H3407 H 0.58691 0.55592 0.92141 0.0
H3408 H 0.60039 0.55474 0.94844 0.0
H3409 H 0.69102 0.54794 0.99289 0.0
H3410 H 0.66772 0.52976 0.98832 0.0
H3411 H 0.63686 0.57143 0.97884 0.0
H3412 H 0.66023 0.58968 0.9829 0.0
H3413 H 0.63132 0.5475 0.95688 0.0
H3414 H 0.63525 0.55133 0.01538 0.0
H3415 H 0.64902 0.54982 0.04222 0.0
H3416 H 0.659 0.49889 0.03457 0.0
H3417 H 0.64548 0.50016 0.00756 0.0
C3418 C 0.56649 0.50164 0.96635 0.0
C3419 C 0.56821 0.48463 0.96821 0.0
C3420 C 0.57986 0.51206 0.96867 0.0
C3421 C 0.5953 0.5057 0.97274 0.0
C3422 C 0.59703 0.48874 0.97475 0.0
C3423 C 0.58364 0.47832 0.97249 0.0
C3424 C 0.60961 0.51674 0.97506 0.0
C3425 C 0.61829 0.51604 0.9899 0.0
C3426 C 0.6144 0.52824 0.96301 0.0
C3427 C 0.60636 0.529 0.94672 0.0
C3428 C 0.60535 0.51501 0.93679 0.0
C3429 C 0.59763 0.51578 0.92152 0.0
C3430 C 0.59097 0.5305 0.916 0.0
C3431 C 0.59206 0.54451 0.92571 0.0
C3432 C 0.59975 0.5438 0.941 0.0
C3433 C 0.67932 0.55325 0.98968 0.0
C3434 C 0.67751 0.5703 0.9883 0.0
C3435 C 0.66596 0.54284 0.98722 0.0
C3436 C 0.65047 0.54923 0.98342 0.0
C3437 C 0.64867 0.56621 0.98182 0.0
C3438 C 0.66202 0.57665 0.98429 0.0
C3439 C 0.63618 0.53819 0.98107 0.0
C3440 C 0.6275 0.5389 0.96624 0.0
C3441 C 0.63141 0.52668 0.99312 0.0
C3442 C 0.63949 0.52588 0.00938 0.0
C3443 C 0.64049 0.53984 0.01936 0.0
C3444 C 0.64823 0.53902 0.03462 0.0
C3445 C 0.65492 0.52428 0.04008 0.0
C3446 C 0.65384 0.51031 0.03031 0.0
C3447 C 0.64613 0.51107 0.01504 0.0
H3448 H 0.66091 0.52367 0.0519 0.0
H3449 H 0.58499 0.53107 0.90417 0.0
H3450 H 0.26631 0.67956 0.1927 0.0
H3451 H 0.24752 0.6568 0.19741 0.0
H3452 H 0.25053 0.66494 0.24947 0.0
H3453 H 0.26911 0.68793 0.24488 0.0
H3454 H 0.25332 0.63254 0.24174 0.0
H3455 H 0.21717 0.67685 0.22868 0.0
H3456 H 0.20672 0.69979 0.21212 0.0
H3457 H 0.19797 0.66728 0.17181 0.0
H3458 H 0.2086 0.64416 0.18806 0.0
H3459 H 0.18658 0.58194 0.26469 0.0
H3460 H 0.20488 0.6052 0.26047 0.0
H3461 H 0.20016 0.59952 0.20818 0.0
H3462 H 0.18183 0.57625 0.21231 0.0
H3463 H 0.19819 0.63092 0.21629 0.0
H3464 H 0.23458 0.58674 0.22884 0.0
H3465 H 0.24537 0.56365 0.24499 0.0
H3466 H 0.25403 0.59565 0.28573 0.0
H3467 H 0.24307 0.6189 0.26989 0.0
C3468 C 0.26284 0.67666 0.20516 0.0
C3469 C 0.2692 0.68566 0.2184 0.0
C3470 C 0.25213 0.66359 0.20783 0.0
C3471 C 0.2475 0.65925 0.22379 0.0
C3472 C 0.25396 0.66806 0.23705 0.0
C3473 C 0.26463 0.68117 0.2344 0.0
C3474 C 0.23601 0.64546 0.22664 0.0
C3475 C 0.24117 0.63228 0.23637 0.0
C3476 C 0.22031 0.64494 0.2193 0.0
C3477 C 0.21383 0.6588 0.20953 0.0
C3478 C 0.21314 0.67461 0.21624 0.0
C3479 C 0.20717 0.68764 0.20691 0.0
C3480 C 0.20173 0.685 0.19091 0.0
C3481 C 0.20221 0.66931 0.1842 0.0
C3482 C 0.2082 0.65623 0.19347 0.0
C3483 C 0.18953 0.58556 0.25229 0.0
C3484 C 0.18277 0.57718 0.23884 0.0
C3485 C 0.19999 0.59888 0.24989 0.0
C3486 C 0.20408 0.60401 0.234 0.0
C3487 C 0.19719 0.59581 0.22055 0.0
C3488 C 0.18667 0.58253 0.22294 0.0
C3489 C 0.2155 0.61795 0.23138 0.0
C3490 C 0.21032 0.63116 0.22168 0.0
C3491 C 0.23122 0.61847 0.23869 0.0
C3492 C 0.23785 0.60453 0.24824 0.0
C3493 C 0.23866 0.58883 0.24129 0.0
C3494 C 0.24483 0.57572 0.25038 0.0
C3495 C 0.25034 0.57818 0.26639 0.0
C3496 C 0.24973 0.59376 0.27333 0.0
C3497 C 0.24356 0.60691 0.2643 0.0
H3498 H 0.25511 0.56801 0.27341 0.0
H3499 H 0.1971 0.69511 0.18371 0.0
H3500 H 0.9299 0.4861 0.0612 0.0
H3501 H 0.90683 0.50459 0.05701 0.0
H3502 H 0.91484 0.50322 0.00487 0.0
H3503 H 0.93835 0.48522 0.00901 0.0
H3504 H 0.90908 0.5337 0.01457 0.0
H3505 H 0.88349 0.48164 0.0229 0.0
H3506 H 0.87777 0.45576 0.03727 0.0
H3507 H 0.86044 0.48237 0.07903 0.0
H3508 H 0.86627 0.50844 0.06499 0.0
H3509 H 0.83266 0.56778 0.99059 0.0
H3510 H 0.85596 0.54958 0.99473 0.0
H3511 H 0.84911 0.55223 0.04698 0.0
H3512 H 0.82589 0.57061 0.04296 0.0
H3513 H 0.85423 0.52109 0.03715 0.0
H3514 H 0.87986 0.5732 0.02858 0.0
H3515 H 0.88546 0.59898 0.01396 0.0
H3516 H 0.90255 0.57205 0.97231 0.0
H3517 H 0.89684 0.54609 0.98659 0.0
C3518 C 0.92686 0.48983 0.04884 0.0
C3519 C 0.936 0.48413 0.03544 0.0
C3520 C 0.91354 0.50028 0.04645 0.0
C3521 C 0.90894 0.50515 0.0306 0.0
C3522 C 0.9181 0.49959 0.01721 0.0
C3523 C 0.93145 0.48917 0.01959 0.0
C3524 C 0.89469 0.51619 0.02801 0.0
C3525 C 0.89703 0.53082 0.01931 0.0
C3526 C 0.87903 0.51265 0.03449 0.0
C3527 C 0.87546 0.49699 0.04295 0.0
C3528 C 0.87858 0.48198 0.0352 0.0
C3529 C 0.8753 0.46727 0.04328 0.0
C3530 C 0.86879 0.46742 0.05907 0.0
C3531 C 0.8655 0.48228 0.0668 0.0
C3532 C 0.86878 0.49702 0.05878 0.0
C3533 C 0.83621 0.56468 0.00298 0.0
C3534 C 0.8274 0.57075 0.01644 0.0
C3535 C 0.84953 0.55421 0.00533 0.0
C3536 C 0.8544 0.54964 0.02118 0.0
C3537 C 0.84557 0.55555 0.03463 0.0
C3538 C 0.83225 0.56603 0.0323 0.0
C3539 C 0.86862 0.53858 0.02372 0.0
C3540 C 0.86627 0.52396 0.0324 0.0
C3541 C 0.88426 0.5421 0.01719 0.0
C3542 C 0.88777 0.5577 0.0086 0.0
C3543 C 0.88469 0.57277 0.01625 0.0
C3544 C 0.88791 0.58742 0.00804 0.0
C3545 C 0.89431 0.58715 0.9922 0.0
C3546 C 0.89756 0.57224 0.98456 0.0
C3547 C 0.89435 0.55755 0.99272 0.0
H3548 H 0.89679 0.5985 0.98586 0.0
H3549 H 0.86626 0.45602 0.06531 0.0
H3550 H 0.08606 0.03854 0.0291 0.0
H3551 H 0.10906 0.02021 0.02396 0.0
H3552 H 0.0794 0.97889 0.03792 0.0
H3553 H 0.05627 0.99713 0.04293 0.0
H3554 H 0.10959 0.97736 0.05163 0.0
H3555 H 0.08737 0.98662 0.99791 0.0
H3556 H 0.07778 0.00343 0.97473 0.0
H3557 H 0.12545 0.02499 0.97033 0.0
H3558 H 0.13528 0.00848 0.99365 0.0
H3559 H 0.162 0.9151 0.02248 0.0
H3560 H 0.13863 0.9331 0.02676 0.0
H3561 H 0.16713 0.97426 0.01016 0.0
H3562 H 0.19033 0.9562 0.00509 0.0
H3563 H 0.13737 0.97586 0.99774 0.0
H3564 H 0.15968 0.96718 0.05138 0.0
H3565 H 0.16949 0.95098 0.07489 0.0
H3566 H 0.12206 0.92898 0.07983 0.0
H3567 H 0.11202 0.9449 0.05619 0.0
C3568 C 0.08436 0.02553 0.03092 0.0
C3569 C 0.06927 0.01931 0.03637 0.0
C3570 C 0.09755 0.01507 0.02801 0.0
C3571 C 0.09592 0.99814 0.03039 0.0
C3572 C 0.08095 0.99191 0.03602 0.0
C3573 C 0.06775 0.00236 0.03892 0.0
C3574 C 0.10984 0.98695 0.02709 0.0
C3575 C 0.11552 0.97686 0.03978 0.0
C3576 C 0.11786 0.9866 0.01175 0.0
C3577 C 0.11202 0.99642 0.99762 0.0
C3578 C 0.09578 0.99503 0.99207 0.0
C3579 C 0.0903 0.00449 0.9789 0.0
C3580 C 0.10098 0.0153 0.97109 0.0
C3581 C 0.11719 0.01663 0.97641 0.0
C3582 C 0.12272 0.00721 0.98959 0.0
C3583 C 0.16327 0.92794 0.01953 0.0
C3584 C 0.17813 0.93417 0.01348 0.0
C3585 C 0.14992 0.93827 0.02218 0.0
C3586 C 0.15117 0.95511 0.01904 0.0
C3587 C 0.16588 0.96133 0.01276 0.0
C3588 C 0.17921 0.95099 0.01002 0.0
C3589 C 0.13715 0.96624 0.02229 0.0
C3590 C 0.13144 0.97633 0.00959 0.0
C3591 C 0.12915 0.96665 0.03766 0.0
C3592 C 0.13515 0.95711 0.05191 0.0
C3593 C 0.15137 0.95879 0.0574 0.0
C3594 C 0.15697 0.94968 0.07076 0.0
C3595 C 0.14642 0.93893 0.07882 0.0
C3596 C 0.13023 0.9373 0.07356 0.0
C3597 C 0.12457 0.94637 0.06019 0.0
H3598 H 0.15078 0.93188 0.08917 0.0
H3599 H 0.09672 0.02262 0.9609 0.0
loop_
_geom_bond_atom_site_label_1
_geom_bond_atom_site_label_2
_geom_bond_distance
_geom_bond_site_symmetry_2
_ccdc_geom_bond_type
H0 C3 0.931 . S
H1 C6 0.928 . S
H2 C8 0.930 . S
C3 H0 0.931 . S
C3 C4 1.413 . S
C3 C5 1.360 . S
C4 C3 1.413 . S
C4 C8 1.429 . S
C5 C3 1.360 . S
C5 C6 1.372 . S
C6 H1 0.928 . S
C6 C5 1.372 . S
C6 C7 1.404 . S
C7 C6 1.404 . S
C7 C8 1.391 . S
C8 H2 0.930 . S
C8 C4 1.429 . S
C8 C7 1.391 . S
H9 C12 0.931 . S
H10 C15 0.928 . S
H11 C17 0.930 . S
C12 H9 0.931 . S
C12 C13 1.413 . S
C12 C14 1.360 . S
C13 C12 1.413 . S
C13 C17 1.429 . S
C14 C12 1.360 . S
C14 C15 1.372 . S
C15 H10 0.928 . S
C15 C14 1.372 . S
C15 C16 1.404 . S
C16 C15 1.404 . S
C16 C17 1.391 . S
C17 H11 0.930 . S
C17 C13 1.429 . S
C17 C16 1.391 . S
H18 C21 0.931 . S
H19 C24 0.928 . S
H20 C26 0.930 . S
C21 H18 0.931 . S
C21 C22 1.413 . S
C21 C23 1.360 . S
C22 C21 1.413 . S
C22 C26 1.429 . S
C23 C21 1.360 . S
C23 C24 1.372 . S
C24 H19 0.928 . S
C24 C23 1.372 . S
C24 C25 1.404 . S
C25 C24 1.404 . S
C25 C26 1.391 . S
C26 H20 0.930 . S
C26 C22 1.429 . S
C26 C25 1.391 . S
H27 C30 0.931 . S
H28 C33 0.928 . S
H29 C35 0.930 . S
C30 H27 0.931 . S
C30 C31 1.413 . S
C30 C32 1.360 . S
C31 C30 1.413 . S
C31 C35 1.429 . S
C32 C30 1.360 . S
C32 C33 1.372 . S
C33 H28 0.928 . S
C33 C32 1.372 . S
C33 C34 1.404 . S
C34 C33 1.404 . S
C34 C35 1.391 . S
C35 H29 0.930 . S
C35 C31 1.429 . S
C35 C34 1.391 . S
H36 C39 0.931 . S
H37 C42 0.928 . S
H38 C44 0.930 . S
C39 H36 0.931 . S
C39 C40 1.413 . S
C39 C41 1.360 . S
C40 C39 1.413 . S
C40 C44 1.429 . S
C41 C39 1.360 . S
C41 C42 1.372 . S
C42 H37 0.928 . S
C42 C41 1.372 . S
C42 C43 1.404 . S
C43 C42 1.404 . S
C43 C44 1.391 . S
C44 H38 0.930 . S
C44 C40 1.429 . S
C44 C43 1.391 . S
H45 C48 0.931 . S
H46 C51 0.928 . S
H47 C53 0.930 . S
C48 H45 0.931 . S
C48 C49 1.413 . S
C48 C50 1.360 . S
C49 C48 1.413 . S
C49 C53 1.429 . S
C50 C48 1.360 . S
C50 C51 1.372 . S
C51 H46 0.928 . S
C51 C50 1.372 . S
C51 C52 1.404 . S
C52 C51 1.404 . S
C52 C53 1.391 . S
C53 H47 0.930 . S
C53 C49 1.429 . S
C53 C52 1.391 . S
H54 C57 0.931 . S
H55 C60 0.928 . S
H56 C62 0.930 . S
C57 H54 0.931 . S
C57 C58 1.413 . S
C57 C59 1.360 . S
C58 C57 1.413 . S
C58 C62 1.429 . S
C59 C57 1.360 . S
C59 C60 1.372 . S
C60 H55 0.928 . S
C60 C59 1.372 . S
C60 C61 1.404 . S
C61 C60 1.404 . S
C61 C62 1.391 . S
C62 H56 0.930 . S
C62 C58 1.429 . S
C62 C61 1.391 . S
H63 C66 0.931 . S
H64 C69 0.928 . S
H65 C71 0.930 . S
C66 H63 0.931 . S
C66 C67 1.413 . S
C66 C68 1.360 . S
C67 C66 1.413 . S
C67 C71 1.429 . S
C68 C66 1.360 . S
C68 C69 1.372 . S
C69 H64 0.928 . S
C69 C68 1.372 . S
C69 C70 1.404 . S
C70 C69 1.404 . S
C70 C71 1.391 . S
C71 H65 0.930 . S
C71 C67 1.429 . S
C71 C70 1.391 . S
H72 C75 0.931 . S
H73 C78 0.928 . S
H74 C80 0.930 . S
C75 H72 0.931 . S
C75 C76 1.413 . S
C75 C77 1.360 . S
C76 C75 1.413 . S
C76 C80 1.429 . S
C77 C75 1.360 . S
C77 C78 1.372 . S
C78 H73 0.928 . S
C78 C77 1.372 . S
C78 C79 1.404 . S
C79 C78 1.404 . S
C79 C80 1.391 . S
C80 H74 0.930 . S
C80 C76 1.429 . S
C80 C79 1.391 . S
H81 C84 0.931 . S
H82 C87 0.928 . S
H83 C89 0.930 . S
C84 H81 0.931 . S
C84 C85 1.413 . S
C84 C86 1.360 . S
C85 C84 1.413 . S
C85 C89 1.429 . S
C86 C84 1.360 . S
C86 C87 1.372 . S
C87 H82 0.928 . S
C87 C86 1.372 . S
C87 C88 1.404 . S
C88 C87 1.404 . S
C88 C89 1.391 . S
C89 H83 0.930 . S
C89 C85 1.429 . S
C89 C88 1.391 . S
H90 C93 0.931 . S
H91 C96 0.928 . S
H92 C98 0.930 . S
C93 H90 0.931 . S
C93 C94 1.413 . S
C93 C95 1.360 . S
C94 C93 1.413 . S
C94 C98 1.429 . S
C95 C93 1.360 . S
C95 C96 1.372 . S
C96 H91 0.928 . S
C96 C95 1.372 . S
C96 C97 1.404 . S
C97 C96 1.404 . S
C97 C98 1.391 . S
C98 H92 0.930 . S
C98 C94 1.429 . S
C98 C97 1.391 . S
H99 C102 0.931 . S
H100 C105 0.928 . S
H101 C107 0.930 . S
C102 H99 0.931 . S
C102 C103 1.413 . S
C102 C104 1.360 . S
C103 C102 1.413 . S
C103 C107 1.429 . S
C104 C102 1.360 . S
C104 C105 1.372 . S
C105 H100 0.928 . S
C105 C104 1.372 . S
C105 C106 1.404 . S
C106 C105 1.404 . S
C106 C107 1.391 . S
C107 H101 0.930 . S
C107 C103 1.429 . S
C107 C106 1.391 . S
H108 C111 0.931 . S
H109 C114 0.928 . S
H110 C116 0.930 . S
C111 H108 0.931 . S
C111 C112 1.413 . S
C111 C113 1.360 . S
C112 C111 1.413 . S
C112 C116 1.429 . S
C113 C111 1.360 . S
C113 C114 1.372 . S
C114 H109 0.928 . S
C114 C113 1.372 . S
C114 C115 1.404 . S
C115 C114 1.404 . S
C115 C116 1.391 . S
C116 H110 0.930 . S
C116 C112 1.429 . S
C116 C115 1.391 . S
H117 C120 0.931 . S
H118 C123 0.928 . S
H119 C125 0.930 . S
C120 H117 0.931 . S
C120 C121 1.413 . S
C120 C122 1.360 . S
C121 C120 1.413 . S
C121 C125 1.429 . S
C122 C120 1.360 . S
C122 C123 1.372 . S
C123 H118 0.928 . S
C123 C122 1.372 . S
C123 C124 1.404 . S
C124 C123 1.404 . S
C124 C125 1.391 . S
C125 H119 0.930 . S
C125 C121 1.429 . S
C125 C124 1.391 . S
H126 C129 0.931 . S
H127 C132 0.928 . S
H128 C134 0.930 . S
C129 H126 0.931 . S
C129 C130 1.413 . S
C129 C131 1.360 . S
C130 C129 1.413 . S
C130 C134 1.429 . S
C131 C129 1.360 . S
C131 C132 1.372 . S
C132 H127 0.928 . S
C132 C131 1.372 . S
C132 C133 1.404 . S
C133 C132 1.404 . S
C133 C134 1.391 . S
C134 H128 0.930 . S
C134 C130 1.429 . S
C134 C133 1.391 . S
H135 C138 0.931 . S
H136 C141 0.928 . S
H137 C143 0.930 . S
C138 H135 0.931 . S
C138 C139 1.413 . S
C138 C140 1.360 . S
C139 C138 1.413 . S
C139 C143 1.429 . S
C140 C138 1.360 . S
C140 C141 1.372 . S
C141 H136 0.928 . S
C141 C140 1.372 . S
C141 C142 1.404 . S
C142 C141 1.404 . S
C142 C143 1.391 . S
C143 H137 0.930 . S
C143 C139 1.429 . S
C143 C142 1.391 . S
Li144 N161 1.990 . S
Li144 O204 1.956 . S
Li144 O205 1.970 1_556 S
Li144 O206 1.961 . S
Li145 N169 1.990 . S
Li145 O204 1.970 1_554 S
Li145 O205 1.956 . S
Li145 O207 1.961 . S
Li146 N191 1.990 . S
Li146 O204 1.961 . S
Li146 O206 1.956 . S
Li146 O207 1.970 1_556 S
Li147 N197 1.990 . S
Li147 O205 1.961 . S
Li147 O206 1.970 1_554 S
Li147 O207 1.956 . S
C148 C150 1.348 1_556 S
C148 C151 1.356 . S
C148 O204 1.325 . S
N149 C152 1.314 1_556 S
N149 C153 1.279 . S
C150 C148 1.348 1_554 S
C150 C152 1.353 . S
C150 H208 0.929 . S
C151 C148 1.356 . S
C151 C153 1.358 . S
C151 H209 0.930 . S
C152 N149 1.314 1_554 S
C152 C150 1.353 . S
C152 H210 0.930 . S
C153 N149 1.279 . S
C153 C151 1.358 . S
C153 H211 0.930 . S
C154 C157 1.348 . S
C154 C158 1.356 . S
C154 O205 1.325 . S
C155 N156 1.279 . S
C155 C158 1.358 . S
C155 H212 0.930 . S
N156 C155 1.279 . S
N156 C159 1.314 . S
C157 C154 1.348 . S
C157 C159 1.353 . S
C157 H213 0.929 . S
C158 C154 1.356 . S
C158 C155 1.358 . S
C158 H214 0.930 . S
C159 N156 1.314 . S
C159 C157 1.353 . S
C159 H215 0.930 . S
C160 N161 1.314 . S
C160 C165 1.353 . S
C160 H166 0.930 . S
N161 Li144 1.990 . S
N161 C160 1.314 . S
N161 C163 1.279 . S
C162 C163 1.358 . S
C162 C164 1.356 . S
C162 H216 0.930 . S
C163 N161 1.279 . S
C163 C162 1.358 . S
C163 H167 0.930 . S
C164 C162 1.356 . S
C164 C165 1.348 . S
C165 C160 1.353 . S
C165 C164 1.348 . S
C165 H217 0.929 . S
H166 C160 0.930 . S
H167 C163 0.930 . S
C168 N169 1.314 . S
C168 C170 1.353 . S
C168 H174 0.930 . S
N169 Li145 1.990 . S
N169 C168 1.314 . S
N169 C172 1.279 . S
C170 C168 1.353 . S
C170 C173 1.348 . S
C170 H218 0.929 . S
C171 C172 1.358 . S
C171 C173 1.356 . S
C171 H219 0.930 . S
C172 N169 1.279 . S
C172 C171 1.358 . S
C172 H175 0.930 . S
C173 C170 1.348 . S
C173 C171 1.356 . S
H174 C168 0.930 . S
H175 C172 0.930 . S
C176 C178 1.348 . S
C176 C179 1.356 . S
C176 O206 1.325 . S
N177 C180 1.314 . S
N177 C181 1.279 . S
C178 C176 1.348 . S
C178 C180 1.353 . S
C178 H220 0.929 . S
C179 C176 1.356 . S
C179 C181 1.358 . S
C179 H221 0.930 . S
C180 N177 1.314 . S
C180 C178 1.353 . S
C180 H222 0.930 . S
C181 N177 1.279 . S
C181 C179 1.358 . S
C181 H223 0.930 . S
C182 C183 1.348 1_554 S
C182 C184 1.356 . S
C182 O207 1.325 . S
C183 C182 1.348 1_556 S
C183 C185 1.353 . S
C183 H224 0.929 . S
C184 C182 1.356 . S
C184 C186 1.358 . S
C184 H225 0.930 . S
C185 C183 1.353 . S
C185 N187 1.314 1_556 S
C185 H226 0.930 . S
C186 C184 1.358 . S
C186 N187 1.279 . S
C186 H227 0.930 . S
N187 C185 1.314 1_554 S
N187 C186 1.279 . S
C188 C190 1.353 . S
C188 N191 1.314 . S
C188 H194 0.930 . S
C189 N191 1.279 . S
C189 C192 1.358 . S
C189 H195 0.930 . S
C190 C188 1.353 . S
C190 C193 1.348 . S
C190 H228 0.929 . S
N191 Li146 1.990 . S
N191 C188 1.314 . S
N191 C189 1.279 . S
C192 C189 1.358 . S
C192 C193 1.356 . S
C192 H229 0.930 . S
C193 C190 1.348 . S
C193 C192 1.356 . S
H194 C188 0.930 . S
H195 C189 0.930 . S
C196 N197 1.314 . S
C196 C198 1.353 . S
C196 H202 0.930 . S
N197 Li147 1.990 . S
N197 C196 1.314 . S
N197 C200 1.279 . S
C198 C196 1.353 . S
C198 C201 1.348 . S
C198 H230 0.929 . S
C199 C200 1.358 . S
C199 C201 1.356 . S
C199 H231 0.930 . S
C200 N197 1.279 . S
C200 C199 1.358 . S
C200 H203 0.930 . S
C201 C198 1.348 . S
C201 C199 1.356 . S
H202 C196 0.930 . S
H203 C200 0.930 . S
O204 Li144 1.956 . S
O204 Li145 1.970 1_556 S
O204 Li146 1.961 . S
O204 C148 1.325 . S
O205 Li144 1.970 1_554 S
O205 Li145 1.956 . S
O205 Li147 1.961 . S
O205 C154 1.325 . S
O206 Li144 1.961 . S
O206 Li146 1.956 . S
O206 Li147 1.970 1_556 S
O206 C176 1.325 . S
O207 Li145 1.961 . S
O207 Li146 1.970 1_554 S
O207 Li147 1.956 . S
O207 C182 1.325 . S
H208 C150 0.929 . S
H209 C151 0.930 . S
H210 C152 0.930 . S
H211 C153 0.930 . S
H212 C155 0.930 . S
H213 C157 0.929 . S
H214 C158 0.930 . S
H215 C159 0.930 . S
H216 C162 0.930 . S
H217 C165 0.929 . S
H218 C170 0.929 . S
H219 C171 0.930 . S
H220 C178 0.929 . S
H221 C179 0.930 . S
H222 C180 0.930 . S
H223 C181 0.930 . S
H224 C183 0.929 . S
H225 C184 0.930 . S
H226 C185 0.930 . S
H227 C186 0.930 . S
H228 C190 0.929 . S
H229 C192 0.930 . S
H230 C198 0.929 . S
H231 C199 0.930 . S
Li232 N249 1.990 . S
Li232 O292 1.956 . S
Li232 O293 1.970 . S
Li232 O294 1.961 . S
Li233 N257 1.990 . S
Li233 O292 1.970 . S
Li233 O293 1.956 . S
Li233 O295 1.961 . S
Li234 N279 1.990 . S
Li234 O292 1.961 . S
Li234 O294 1.956 . S
Li234 O295 1.970 . S
Li235 N285 1.990 . S
Li235 O293 1.961 . S
Li235 O294 1.970 . S
Li235 O295 1.956 . S
C236 C238 1.348 . S
C236 C239 1.356 . S
C236 O292 1.325 . S
N237 C240 1.314 . S
N237 C241 1.279 . S
C238 C236 1.348 . S
C238 C240 1.353 . S
C238 H296 0.929 . S
C239 C236 1.356 . S
C239 C241 1.358 . S
C239 H297 0.930 . S
C240 N237 1.314 . S
C240 C238 1.353 . S
C240 H298 0.930 . S
C241 N237 1.279 . S
C241 C239 1.358 . S
C241 H299 0.930 . S
C242 C245 1.348 . S
C242 C246 1.356 . S
C242 O293 1.325 . S
C243 N244 1.279 . S
C243 C246 1.358 . S
C243 H300 0.930 . S
N244 C243 1.279 . S
N244 C247 1.314 . S
C245 C242 1.348 . S
C245 C247 1.353 . S
C245 H301 0.929 . S
C246 C242 1.356 . S
C246 C243 1.358 . S
C246 H302 0.930 . S
C247 N244 1.314 . S
C247 C245 1.353 . S
C247 H303 0.930 . S
C248 N249 1.314 . S
C248 C253 1.353 . S
C248 H254 0.930 . S
N249 Li232 1.990 . S
N249 C248 1.314 . S
N249 C251 1.279 . S
C250 C251 1.358 . S
C250 C252 1.356 . S
C250 H304 0.930 . S
C251 N249 1.279 . S
C251 C250 1.358 . S
C251 H255 0.930 . S
C252 C250 1.356 . S
C252 C253 1.348 . S
C253 C248 1.353 . S
C253 C252 1.348 . S
C253 H305 0.929 . S
H254 C248 0.930 . S
H255 C251 0.930 . S
C256 N257 1.314 . S
C256 C258 1.353 . S
C256 H262 0.930 . S
N257 Li233 1.990 . S
N257 C256 1.314 . S
N257 C260 1.279 . S
C258 C256 1.353 . S
C258 C261 1.348 . S
C258 H306 0.929 . S
C259 C260 1.358 . S
C259 C261 1.356 . S
C259 H307 0.930 . S
C260 N257 1.279 . S
C260 C259 1.358 . S
C260 H263 0.930 . S
C261 C258 1.348 . S
C261 C259 1.356 . S
H262 C256 0.930 . S
H263 C260 0.930 . S
C264 C266 1.348 . S
C264 C267 1.356 . S
C264 O294 1.325 . S
N265 C268 1.314 . S
N265 C269 1.279 . S
C266 C264 1.348 . S
C266 C268 1.353 . S
C266 H308 0.929 . S
C267 C264 1.356 . S
C267 C269 1.358 . S
C267 H309 0.930 . S
C268 N265 1.314 . S
C268 C266 1.353 . S
C268 H310 0.930 . S
C269 N265 1.279 . S
C269 C267 1.358 . S
C269 H311 0.930 . S
C270 C271 1.348 . S
C270 C272 1.356 . S
C270 O295 1.325 . S
C271 C270 1.348 . S
C271 C273 1.353 . S
C271 H312 0.929 . S
C272 C270 1.356 . S
C272 C274 1.358 . S
C272 H313 0.930 . S
C273 C271 1.353 . S
C273 N275 1.314 . S
C273 H314 0.930 . S
C274 C272 1.358 . S
C274 N275 1.279 . S
C274 H315 0.930 . S
N275 C273 1.314 . S
N275 C274 1.279 . S
C276 C278 1.353 . S
C276 N279 1.314 . S
C276 H282 0.930 . S
C277 N279 1.279 . S
C277 C280 1.358 . S
C277 H283 0.930 . S
C278 C276 1.353 . S
C278 C281 1.348 . S
C278 H316 0.929 . S
N279 Li234 1.990 . S
N279 C276 1.314 . S
N279 C277 1.279 . S
C280 C277 1.358 . S
C280 C281 1.356 . S
C280 H317 0.930 . S
C281 C278 1.348 . S
C281 C280 1.356 . S
H282 C276 0.930 . S
H283 C277 0.930 . S
C284 N285 1.314 . S
C284 C286 1.353 . S
C284 H290 0.930 . S
N285 Li235 1.990 . S
N285 C284 1.314 . S
N285 C288 1.279 . S
C286 C284 1.353 . S
C286 C289 1.348 . S
C286 H318 0.929 . S
C287 C288 1.358 . S
C287 C289 1.356 . S
C287 H319 0.930 . S
C288 N285 1.279 . S
C288 C287 1.358 . S
C288 H291 0.930 . S
C289 C286 1.348 . S
C289 C287 1.356 . S
H290 C284 0.930 . S
H291 C288 0.930 . S
O292 Li232 1.956 . S
O292 Li233 1.970 . S
O292 Li234 1.961 . S
O292 C236 1.325 . S
O293 Li232 1.970 . S
O293 Li233 1.956 . S
O293 Li235 1.961 . S
O293 C242 1.325 . S
O294 Li232 1.961 . S
O294 Li234 1.956 . S
O294 Li235 1.970 . S
O294 C264 1.325 . S
O295 Li233 1.961 . S
O295 Li234 1.970 . S
O295 Li235 1.956 . S
O295 C270 1.325 . S
H296 C238 0.929 . S
H297 C239 0.930 . S
H298 C240 0.930 . S
H299 C241 0.930 . S
H300 C243 0.930 . S
H301 C245 0.929 . S
H302 C246 0.930 . S
H303 C247 0.930 . S
H304 C250 0.930 . S
H305 C253 0.929 . S
H306 C258 0.929 . S
H307 C259 0.930 . S
H308 C266 0.929 . S
H309 C267 0.930 . S
H310 C268 0.930 . S
H311 C269 0.930 . S
H312 C271 0.929 . S
H313 C272 0.930 . S
H314 C273 0.930 . S
H315 C274 0.930 . S
H316 C278 0.929 . S
H317 C280 0.930 . S
H318 C286 0.929 . S
H319 C287 0.930 . S
Li320 N337 1.999 . S
Li320 O380 1.956 . S
Li320 O381 1.927 1_556 S
Li320 O382 1.993 . S
Li321 N345 1.990 . S
Li321 O380 1.953 1_554 S
Li321 O381 1.956 . S
Li321 O383 1.961 . S
Li322 N367 1.990 . S
Li322 O380 1.974 . S
Li322 O382 1.956 . S
Li322 O383 1.970 1_556 S
Li323 N373 1.990 . S
Li323 O381 1.961 . S
Li323 O382 1.970 1_554 S
Li323 O383 1.956 . S
C324 C326 1.348 1_556 S
C324 C327 1.356 . S
C324 O380 1.328 . S
N325 C328 1.314 1_556 S
N325 C329 1.279 . S
C326 C324 1.348 1_554 S
C326 C328 1.353 . S
C326 H384 0.929 . S
C327 C324 1.356 . S
C327 C329 1.358 . S
C327 H385 0.930 . S
C328 N325 1.314 1_554 S
C328 C326 1.353 . S
C328 H386 0.930 . S
C329 N325 1.279 . S
C329 C327 1.358 . S
C329 H387 0.930 . S
C330 C333 1.348 . S
C330 C334 1.356 . S
C330 O381 1.325 . S
C331 N332 1.279 . S
C331 C334 1.358 . S
C331 H388 0.930 . S
N332 C331 1.279 . S
N332 C335 1.314 . S
C333 C330 1.348 . S
C333 C335 1.353 . S
C333 H389 0.929 . S
C334 C330 1.356 . S
C334 C331 1.358 . S
C334 H390 0.930 . S
C335 N332 1.314 . S
C335 C333 1.353 . S
C335 H391 0.930 . S
C336 N337 1.314 . S
C336 C341 1.353 . S
C336 H342 0.930 . S
N337 Li320 1.999 . S
N337 C336 1.314 . S
N337 C339 1.279 . S
C338 C339 1.358 . S
C338 C340 1.356 . S
C338 H392 0.930 . S
C339 N337 1.279 . S
C339 C338 1.358 . S
C339 H343 0.941 . S
C340 C338 1.356 . S
C340 C341 1.348 . S
C341 C336 1.353 . S
C341 C340 1.348 . S
C341 H393 0.929 . S
H342 C336 0.930 . S
H343 C339 0.941 . S
C344 N345 1.314 . S
C344 C346 1.353 . S
C344 H350 0.930 . S
N345 Li321 1.990 . S
N345 C344 1.314 . S
N345 C348 1.279 . S
C346 C344 1.353 . S
C346 C349 1.348 . S
C346 H394 0.929 . S
C347 C348 1.358 . S
C347 C349 1.356 . S
C347 H395 0.930 . S
C348 N345 1.279 . S
C348 C347 1.358 . S
C348 H351 0.930 . S
C349 C346 1.348 . S
C349 C347 1.356 . S
H350 C344 0.930 . S
H351 C348 0.930 . S
C352 C354 1.348 . S
C352 C355 1.356 . S
C352 O382 1.325 . S
N353 C356 1.314 . S
N353 C357 1.279 . S
C354 C352 1.348 . S
C354 C356 1.353 . S
C354 H396 0.929 . S
C355 C352 1.356 . S
C355 C357 1.358 . S
C355 H397 0.930 . S
C356 N353 1.314 . S
C356 C354 1.353 . S
C356 H398 0.930 . S
C357 N353 1.279 . S
C357 C355 1.358 . S
C357 H399 0.930 . S
C358 C359 1.348 1_554 S
C358 C360 1.356 . S
C358 O383 1.325 . S
C359 C358 1.348 1_556 S
C359 C361 1.353 . S
C359 H400 0.929 . S
C360 C358 1.356 . S
C360 C362 1.358 . S
C360 H401 0.930 . S
C361 C359 1.353 . S
C361 N363 1.314 1_556 S
C361 H402 0.930 . S
C362 C360 1.358 . S
C362 N363 1.279 . S
C362 H403 0.930 . S
N363 C361 1.314 1_554 S
N363 C362 1.279 . S
C364 C366 1.353 . S
C364 N367 1.314 . S
C364 H370 0.930 . S
C365 N367 1.279 . S
C365 C368 1.358 . S
C365 H371 0.930 . S
C366 C364 1.353 . S
C366 C369 1.348 . S
C366 H404 0.929 . S
N367 Li322 1.990 . S
N367 C364 1.314 . S
N367 C365 1.279 . S
C368 C365 1.358 . S
C368 C369 1.356 . S
C368 H405 0.930 . S
C369 C366 1.348 . S
C369 C368 1.356 . S
H370 C364 0.930 . S
H371 C365 0.930 . S
C372 N373 1.314 . S
C372 C374 1.353 . S
C372 H378 0.930 . S
N373 Li323 1.990 . S
N373 C372 1.314 . S
N373 C376 1.279 . S
C374 C372 1.353 . S
C374 C377 1.348 . S
C374 H406 0.929 . S
C375 C376 1.358 . S
C375 C377 1.356 . S
C375 H407 0.930 . S
C376 N373 1.279 . S
C376 C375 1.358 . S
C376 H379 0.930 . S
C377 C374 1.348 . S
C377 C375 1.356 . S
H378 C372 0.930 . S
H379 C376 0.930 . S
O380 Li320 1.956 . S
O380 Li321 1.953 1_556 S
O380 Li322 1.974 . S
O380 C324 1.328 . S
O381 Li320 1.927 1_554 S
O381 Li321 1.956 . S
O381 Li323 1.961 . S
O381 C330 1.325 . S
O382 Li320 1.993 . S
O382 Li322 1.956 . S
O382 Li323 1.970 1_556 S
O382 C352 1.325 . S
O383 Li321 1.961 . S
O383 Li322 1.970 1_554 S
O383 Li323 1.956 . S
O383 C358 1.325 . S
H384 C326 0.929 . S
H385 C327 0.930 . S
H386 C328 0.930 . S
H387 C329 0.930 . S
H388 C331 0.930 . S
H389 C333 0.929 . S
H390 C334 0.930 . S
H391 C335 0.930 . S
H392 C338 0.930 . S
H393 C341 0.929 . S
H394 C346 0.929 . S
H395 C347 0.930 . S
H396 C354 0.929 . S
H397 C355 0.930 . S
H398 C356 0.930 . S
H399 C357 0.930 . S
H400 C359 0.929 . S
H401 C360 0.930 . S
H402 C361 0.930 . S
H403 C362 0.930 . S
H404 C366 0.929 . S
H405 C368 0.930 . S
H406 C374 0.929 . S
H407 C375 0.930 . S
Li408 N425 1.990 . S
Li408 O468 1.956 . S
Li408 O469 1.970 1_545 S
Li408 O470 1.961 . S
Li409 N433 1.990 . S
Li409 O468 1.970 1_565 S
Li409 O469 1.956 . S
Li409 O471 1.961 . S
Li410 N455 1.990 . S
Li410 O468 1.961 . S
Li410 O470 1.956 . S
Li410 O471 1.970 1_545 S
Li411 N461 1.990 . S
Li411 O469 1.961 . S
Li411 O470 1.970 1_565 S
Li411 O471 1.956 . S
C412 C414 1.348 . S
C412 C415 1.356 . S
C412 O468 1.325 . S
N413 C416 1.314 . S
N413 C417 1.279 . S
C414 C412 1.348 . S
C414 C416 1.353 . S
C414 H472 0.929 . S
C415 C412 1.356 . S
C415 C417 1.358 . S
C415 H473 0.930 . S
C416 N413 1.314 . S
C416 C414 1.353 . S
C416 H474 0.930 . S
C417 N413 1.279 . S
C417 C415 1.358 . S
C417 H475 0.930 . S
C418 C421 1.348 1_565 S
C418 C422 1.356 . S
C418 O469 1.325 . S
C419 N420 1.279 . S
C419 C422 1.358 . S
C419 H476 0.930 . S
N420 C419 1.279 . S
N420 C423 1.314 1_565 S
C421 C418 1.348 1_545 S
C421 C423 1.353 . S
C421 H477 0.929 . S
C422 C418 1.356 . S
C422 C419 1.358 . S
C422 H478 0.930 . S
C423 N420 1.314 1_545 S
C423 C421 1.353 . S
C423 H479 0.930 . S
C424 N425 1.314 . S
C424 C429 1.353 . S
C424 H430 0.930 . S
N425 Li408 1.990 . S
N425 C424 1.314 . S
N425 C427 1.279 . S
C426 C427 1.358 . S
C426 C428 1.356 . S
C426 H480 0.930 . S
C427 N425 1.279 . S
C427 C426 1.358 . S
C427 H431 0.930 . S
C428 C426 1.356 . S
C428 C429 1.348 . S
C429 C424 1.353 . S
C429 C428 1.348 . S
C429 H481 0.929 . S
H430 C424 0.930 . S
H431 C427 0.930 . S
C432 N433 1.314 . S
C432 C434 1.353 . S
C432 H438 0.930 . S
N433 Li409 1.990 . S
N433 C432 1.314 . S
N433 C436 1.279 . S
C434 C432 1.353 . S
C434 C437 1.348 . S
C434 H482 0.929 . S
C435 C436 1.358 . S
C435 C437 1.356 . S
C435 H483 0.930 . S
C436 N433 1.279 . S
C436 C435 1.358 . S
C436 H439 0.930 . S
C437 C434 1.348 . S
C437 C435 1.356 . S
H438 C432 0.930 . S
H439 C436 0.930 . S
C440 C442 1.348 1_545 S
C440 C443 1.356 . S
C440 O470 1.325 . S
N441 C444 1.314 1_545 S
N441 C445 1.279 . S
C442 C440 1.348 1_565 S
C442 C444 1.353 . S
C442 H484 0.929 . S
C443 C440 1.356 . S
C443 C445 1.358 . S
C443 H485 0.930 . S
C444 N441 1.314 1_565 S
C444 C442 1.353 . S
C444 H486 0.930 . S
C445 N441 1.279 . S
C445 C443 1.358 . S
C445 H487 0.930 . S
C446 C447 1.348 . S
C446 C448 1.356 . S
C446 O471 1.325 . S
C447 C446 1.348 . S
C447 C449 1.353 . S
C447 H488 0.929 . S
C448 C446 1.356 . S
C448 C450 1.358 . S
C448 H489 0.930 . S
C449 C447 1.353 . S
C449 N451 1.314 . S
C449 H490 0.930 . S
C450 C448 1.358 . S
C450 N451 1.279 . S
C450 H491 0.930 . S
N451 C449 1.314 . S
N451 C450 1.279 . S
C452 C454 1.353 . S
C452 N455 1.314 . S
C452 H458 0.930 . S
C453 N455 1.279 . S
C453 C456 1.358 . S
C453 H459 0.930 . S
C454 C452 1.353 . S
C454 C457 1.348 . S
C454 H492 0.929 . S
N455 Li410 1.990 . S
N455 C452 1.314 . S
N455 C453 1.279 . S
C456 C453 1.358 . S
C456 C457 1.356 . S
C456 H493 0.930 . S
C457 C454 1.348 . S
C457 C456 1.356 . S
H458 C452 0.930 . S
H459 C453 0.930 . S
C460 N461 1.314 . S
C460 C462 1.353 . S
C460 H466 0.930 . S
N461 Li411 1.990 . S
N461 C460 1.314 . S
N461 C464 1.279 . S
C462 C460 1.353 . S
C462 C465 1.348 . S
C462 H494 0.929 . S
C463 C464 1.358 . S
C463 C465 1.356 . S
C463 H495 0.930 . S
C464 N461 1.279 . S
C464 C463 1.358 . S
C464 H467 0.930 . S
C465 C462 1.348 . S
C465 C463 1.356 . S
H466 C460 0.930 . S
H467 C464 0.930 . S
O468 Li408 1.956 . S
O468 Li409 1.970 1_545 S
O468 Li410 1.961 . S
O468 C412 1.325 . S
O469 Li408 1.970 1_565 S
O469 Li409 1.956 . S
O469 Li411 1.961 . S
O469 C418 1.325 . S
O470 Li408 1.961 . S
O470 Li410 1.956 . S
O470 Li411 1.970 1_545 S
O470 C440 1.325 . S
O471 Li409 1.961 . S
O471 Li410 1.970 1_565 S
O471 Li411 1.956 . S
O471 C446 1.325 . S
H472 C414 0.929 . S
H473 C415 0.930 . S
H474 C416 0.930 . S
H475 C417 0.930 . S
H476 C419 0.930 . S
H477 C421 0.929 . S
H478 C422 0.930 . S
H479 C423 0.930 . S
H480 C426 0.930 . S
H481 C429 0.929 . S
H482 C434 0.929 . S
H483 C435 0.930 . S
H484 C442 0.929 . S
H485 C443 0.930 . S
H486 C444 0.930 . S
H487 C445 0.930 . S
H488 C447 0.929 . S
H489 C448 0.930 . S
H490 C449 0.930 . S
H491 C450 0.930 . S
H492 C454 0.929 . S
H493 C456 0.930 . S
H494 C462 0.929 . S
H495 C463 0.930 . S
Li496 N513 1.990 . S
Li496 O556 1.956 . S
Li496 O557 1.970 . S
Li496 O558 1.961 . S
Li497 N521 1.990 . S
Li497 O556 1.970 . S
Li497 O557 1.956 . S
Li497 O559 1.961 . S
Li498 N543 1.990 . S
Li498 O556 1.961 . S
Li498 O558 1.956 . S
Li498 O559 1.970 . S
Li499 N549 1.990 . S
Li499 O557 1.961 . S
Li499 O558 1.970 . S
Li499 O559 1.956 . S
C500 C502 1.348 . S
C500 C503 1.356 . S
C500 O556 1.325 . S
N501 C504 1.314 . S
N501 C505 1.279 . S
C502 C500 1.348 . S
C502 C504 1.353 . S
C502 H560 0.929 . S
C503 C500 1.356 . S
C503 C505 1.358 . S
C503 H561 0.930 . S
C504 N501 1.314 . S
C504 C502 1.353 . S
C504 H562 0.930 . S
C505 N501 1.279 . S
C505 C503 1.358 . S
C505 H563 0.930 . S
C506 C509 1.348 . S
C506 C510 1.356 . S
C506 O557 1.325 . S
C507 N508 1.279 . S
C507 C510 1.358 . S
C507 H564 0.930 . S
N508 C507 1.279 . S
N508 C511 1.314 . S
C509 C506 1.348 . S
C509 C511 1.353 . S
C509 H565 0.929 . S
C510 C506 1.356 . S
C510 C507 1.358 . S
C510 H566 0.930 . S
C511 N508 1.314 . S
C511 C509 1.353 . S
C511 H567 0.930 . S
C512 N513 1.314 . S
C512 C517 1.353 . S
C512 H518 0.930 . S
N513 Li496 1.990 . S
N513 C512 1.314 . S
N513 C515 1.279 . S
C514 C515 1.358 . S
C514 C516 1.356 . S
C514 H568 0.930 . S
C515 N513 1.279 . S
C515 C514 1.358 . S
C515 H519 0.930 . S
C516 C514 1.356 . S
C516 C517 1.348 . S
C517 C512 1.353 . S
C517 C516 1.348 . S
C517 H569 0.929 . S
H518 C512 0.930 . S
H519 C515 0.930 . S
C520 N521 1.314 . S
C520 C522 1.353 . S
C520 H526 0.930 . S
N521 Li497 1.990 . S
N521 C520 1.314 . S
N521 C524 1.279 . S
C522 C520 1.353 . S
C522 C525 1.348 . S
C522 H570 0.929 . S
C523 C524 1.358 . S
C523 C525 1.356 . S
C523 H571 0.930 . S
C524 N521 1.279 . S
C524 C523 1.358 . S
C524 H527 0.930 . S
C525 C522 1.348 . S
C525 C523 1.356 . S
H526 C520 0.930 . S
H527 C524 0.930 . S
C528 C530 1.348 . S
C528 C531 1.356 . S
C528 O558 1.325 . S
N529 C532 1.314 . S
N529 C533 1.279 . S
C530 C528 1.348 . S
C530 C532 1.353 . S
C530 H572 0.929 . S
C531 C528 1.356 . S
C531 C533 1.358 . S
C531 H573 0.930 . S
C532 N529 1.314 . S
C532 C530 1.353 . S
C532 H574 0.930 . S
C533 N529 1.279 . S
C533 C531 1.358 . S
C533 H575 0.930 . S
C534 C535 1.348 . S
C534 C536 1.356 . S
C534 O559 1.325 . S
C535 C534 1.348 . S
C535 C537 1.353 . S
C535 H576 0.929 . S
C536 C534 1.356 . S
C536 C538 1.358 . S
C536 H577 0.930 . S
C537 C535 1.353 . S
C537 N539 1.314 . S
C537 H578 0.930 . S
C538 C536 1.358 . S
C538 N539 1.279 . S
C538 H579 0.930 . S
N539 C537 1.314 . S
N539 C538 1.279 . S
C540 C542 1.353 . S
C540 N543 1.314 . S
C540 H546 0.930 . S
C541 N543 1.279 . S
C541 C544 1.358 . S
C541 H547 0.930 . S
C542 C540 1.353 . S
C542 C545 1.348 . S
C542 H580 0.929 . S
N543 Li498 1.990 . S
N543 C540 1.314 . S
N543 C541 1.279 . S
C544 C541 1.358 . S
C544 C545 1.356 . S
C544 H581 0.930 . S
C545 C542 1.348 . S
C545 C544 1.356 . S
H546 C540 0.930 . S
H547 C541 0.930 . S
C548 N549 1.314 . S
C548 C550 1.353 . S
C548 H554 0.930 . S
N549 Li499 1.990 . S
N549 C548 1.314 . S
N549 C552 1.279 . S
C550 C548 1.353 . S
C550 C553 1.348 . S
C550 H582 0.929 . S
C551 C552 1.358 . S
C551 C553 1.356 . S
C551 H583 0.930 . S
C552 N549 1.279 . S
C552 C551 1.358 . S
C552 H555 0.930 . S
C553 C550 1.348 . S
C553 C551 1.356 . S
H554 C548 0.930 . S
H555 C552 0.930 . S
O556 Li496 1.956 . S
O556 Li497 1.970 . S
O556 Li498 1.961 . S
O556 C500 1.325 . S
O557 Li496 1.970 . S
O557 Li497 1.956 . S
O557 Li499 1.961 . S
O557 C506 1.325 . S
O558 Li496 1.961 . S
O558 Li498 1.956 . S
O558 Li499 1.970 . S
O558 C528 1.325 . S
O559 Li497 1.961 . S
O559 Li498 1.970 . S
O559 Li499 1.956 . S
O559 C534 1.325 . S
H560 C502 0.929 . S
H561 C503 0.930 . S
H562 C504 0.930 . S
H563 C505 0.930 . S
H564 C507 0.930 . S
H565 C509 0.929 . S
H566 C510 0.930 . S
H567 C511 0.930 . S
H568 C514 0.930 . S
H569 C517 0.929 . S
H570 C522 0.929 . S
H571 C523 0.930 . S
H572 C530 0.929 . S
H573 C531 0.930 . S
H574 C532 0.930 . S
H575 C533 0.930 . S
H576 C535 0.929 . S
H577 C536 0.930 . S
H578 C537 0.930 . S
H579 C538 0.930 . S
H580 C542 0.929 . S
H581 C544 0.930 . S
H582 C550 0.929 . S
H583 C551 0.930 . S
Li584 N601 1.990 . S
Li584 O644 1.956 . S
Li584 O645 1.970 . S
Li584 O646 1.961 . S
Li585 N609 1.990 . S
Li585 O644 1.970 . S
Li585 O645 1.956 . S
Li585 O647 1.961 . S
Li586 N631 1.990 . S
Li586 O644 1.961 . S
Li586 O646 1.956 . S
Li586 O647 1.970 . S
Li587 N637 1.990 . S
Li587 O645 1.961 . S
Li587 O646 1.970 . S
Li587 O647 1.956 . S
C588 C590 1.348 . S
C588 C591 1.356 . S
C588 O644 1.325 . S
N589 C592 1.314 . S
N589 C593 1.279 . S
C590 C588 1.348 . S
C590 C592 1.353 . S
C590 H648 0.929 . S
C591 C588 1.356 . S
C591 C593 1.358 . S
C591 H649 0.930 . S
C592 N589 1.314 . S
C592 C590 1.353 . S
C592 H650 0.930 . S
C593 N589 1.279 . S
C593 C591 1.358 . S
C593 H651 0.930 . S
C594 C597 1.348 . S
C594 C598 1.356 . S
C594 O645 1.325 . S
C595 N596 1.279 . S
C595 C598 1.358 . S
C595 H652 0.930 . S
N596 C595 1.279 . S
N596 C599 1.314 . S
C597 C594 1.348 . S
C597 C599 1.353 . S
C597 H653 0.929 . S
C598 C594 1.356 . S
C598 C595 1.358 . S
C598 H654 0.930 . S
C599 N596 1.314 . S
C599 C597 1.353 . S
C599 H655 0.930 . S
C600 N601 1.314 . S
C600 C605 1.353 . S
C600 H606 0.930 . S
N601 Li584 1.990 . S
N601 C600 1.314 . S
N601 C603 1.279 . S
C602 C603 1.358 . S
C602 C604 1.356 . S
C602 H656 0.930 . S
C603 N601 1.279 . S
C603 C602 1.358 . S
C603 H607 0.930 . S
C604 C602 1.356 . S
C604 C605 1.348 . S
C605 C600 1.353 . S
C605 C604 1.348 . S
C605 H657 0.929 . S
H606 C600 0.930 . S
H607 C603 0.930 . S
C608 N609 1.314 . S
C608 C610 1.353 . S
C608 H614 0.930 . S
N609 Li585 1.990 . S
N609 C608 1.314 . S
N609 C612 1.279 . S
C610 C608 1.353 . S
C610 C613 1.348 . S
C610 H658 0.929 . S
C611 C612 1.358 . S
C611 C613 1.356 . S
C611 H659 0.930 . S
C612 N609 1.279 . S
C612 C611 1.358 . S
C612 H615 0.930 . S
C613 C610 1.348 . S
C613 C611 1.356 . S
H614 C608 0.930 . S
H615 C612 0.930 . S
C616 C618 1.348 . S
C616 C619 1.356 . S
C616 O646 1.325 . S
N617 C620 1.314 . S
N617 C621 1.279 . S
C618 C616 1.348 . S
C618 C620 1.353 . S
C618 H660 0.929 . S
C619 C616 1.356 . S
C619 C621 1.358 . S
C619 H661 0.930 . S
C620 N617 1.314 . S
C620 C618 1.353 . S
C620 H662 0.930 . S
C621 N617 1.279 . S
C621 C619 1.358 . S
C621 H663 0.930 . S
C622 C623 1.348 . S
C622 C624 1.356 . S
C622 O647 1.325 . S
C623 C622 1.348 . S
C623 C625 1.353 . S
C623 H664 0.929 . S
C624 C622 1.356 . S
C624 C626 1.358 . S
C624 H665 0.930 . S
C625 C623 1.353 . S
C625 N627 1.314 . S
C625 H666 0.930 . S
C626 C624 1.358 . S
C626 N627 1.279 . S
C626 H667 0.930 . S
N627 C625 1.314 . S
N627 C626 1.279 . S
C628 C630 1.353 . S
C628 N631 1.314 . S
C628 H634 0.930 . S
C629 N631 1.279 . S
C629 C632 1.358 . S
C629 H635 0.930 . S
C630 C628 1.353 . S
C630 C633 1.348 . S
C630 H668 0.929 . S
N631 Li586 1.990 . S
N631 C628 1.314 . S
N631 C629 1.279 . S
C632 C629 1.358 . S
C632 C633 1.356 . S
C632 H669 0.930 . S
C633 C630 1.348 . S
C633 C632 1.356 . S
H634 C628 0.930 . S
H635 C629 0.930 . S
C636 N637 1.314 . S
C636 C638 1.353 . S
C636 H642 0.930 . S
N637 Li587 1.990 . S
N637 C636 1.314 . S
N637 C640 1.279 . S
C638 C636 1.353 . S
C638 C641 1.348 . S
C638 H670 0.929 . S
C639 C640 1.358 . S
C639 C641 1.356 . S
C639 H671 0.930 . S
C640 N637 1.279 . S
C640 C639 1.358 . S
C640 H643 0.930 . S
C641 C638 1.348 . S
C641 C639 1.356 . S
H642 C636 0.930 . S
H643 C640 0.930 . S
O644 Li584 1.956 . S
O644 Li585 1.970 . S
O644 Li586 1.961 . S
O644 C588 1.325 . S
O645 Li584 1.970 . S
O645 Li585 1.956 . S
O645 Li587 1.961 . S
O645 C594 1.325 . S
O646 Li584 1.961 . S
O646 Li586 1.956 . S
O646 Li587 1.970 . S
O646 C616 1.325 . S
O647 Li585 1.961 . S
O647 Li586 1.970 . S
O647 Li587 1.956 . S
O647 C622 1.325 . S
H648 C590 0.929 . S
H649 C591 0.930 . S
H650 C592 0.930 . S
H651 C593 0.930 . S
H652 C595 0.930 . S
H653 C597 0.929 . S
H654 C598 0.930 . S
H655 C599 0.930 . S
H656 C602 0.930 . S
H657 C605 0.929 . S
H658 C610 0.929 . S
H659 C611 0.930 . S
H660 C618 0.929 . S
H661 C619 0.930 . S
H662 C620 0.930 . S
H663 C621 0.930 . S
H664 C623 0.929 . S
H665 C624 0.930 . S
H666 C625 0.930 . S
H667 C626 0.930 . S
H668 C630 0.929 . S
H669 C632 0.930 . S
H670 C638 0.929 . S
H671 C639 0.930 . S
Li672 N689 1.990 . S
Li672 O732 1.956 . S
Li672 O733 1.970 . S
Li672 O734 1.961 . S
Li673 N697 1.990 . S
Li673 O732 1.970 . S
Li673 O733 1.956 . S
Li673 O735 1.961 . S
Li674 N719 1.990 . S
Li674 O732 1.961 . S
Li674 O734 1.956 . S
Li674 O735 1.970 . S
Li675 N725 1.990 . S
Li675 O733 1.961 . S
Li675 O734 1.970 . S
Li675 O735 1.956 . S
C676 C678 1.348 . S
C676 C679 1.356 . S
C676 O732 1.325 . S
N677 C680 1.314 . S
N677 C681 1.279 . S
C678 C676 1.348 . S
C678 C680 1.353 . S
C678 H736 0.929 . S
C679 C676 1.356 . S
C679 C681 1.358 . S
C679 H737 0.930 . S
C680 N677 1.314 . S
C680 C678 1.353 . S
C680 H738 0.930 . S
C681 N677 1.279 . S
C681 C679 1.358 . S
C681 H739 0.930 . S
C682 C685 1.348 . S
C682 C686 1.356 . S
C682 O733 1.325 . S
C683 N684 1.279 . S
C683 C686 1.358 . S
C683 H740 0.930 . S
N684 C683 1.279 . S
N684 C687 1.314 . S
C685 C682 1.348 . S
C685 C687 1.353 . S
C685 H741 0.929 . S
C686 C682 1.356 . S
C686 C683 1.358 . S
C686 H742 0.930 . S
C687 N684 1.314 . S
C687 C685 1.353 . S
C687 H743 0.930 . S
C688 N689 1.314 . S
C688 C693 1.353 . S
C688 H694 0.930 . S
N689 Li672 1.990 . S
N689 C688 1.314 . S
N689 C691 1.279 . S
C690 C691 1.358 . S
C690 C692 1.356 . S
C690 H744 0.930 . S
C691 N689 1.279 . S
C691 C690 1.358 . S
C691 H695 0.930 . S
C692 C690 1.356 . S
C692 C693 1.348 . S
C693 C688 1.353 . S
C693 C692 1.348 . S
C693 H745 0.929 . S
H694 C688 0.930 . S
H695 C691 0.930 . S
C696 N697 1.314 . S
C696 C698 1.353 . S
C696 H702 0.930 . S
N697 Li673 1.990 . S
N697 C696 1.314 . S
N697 C700 1.279 . S
C698 C696 1.353 . S
C698 C701 1.348 . S
C698 H746 0.929 . S
C699 C700 1.358 . S
C699 C701 1.356 . S
C699 H747 0.930 . S
C700 N697 1.279 . S
C700 C699 1.358 . S
C700 H703 0.930 . S
C701 C698 1.348 . S
C701 C699 1.356 . S
H702 C696 0.930 . S
H703 C700 0.930 . S
C704 C706 1.348 . S
C704 C707 1.356 . S
C704 O734 1.325 . S
N705 C708 1.314 . S
N705 C709 1.279 . S
C706 C704 1.348 . S
C706 C708 1.353 . S
C706 H748 0.929 . S
C707 C704 1.356 . S
C707 C709 1.358 . S
C707 H749 0.930 . S
C708 N705 1.314 . S
C708 C706 1.353 . S
C708 H750 0.930 . S
C709 N705 1.279 . S
C709 C707 1.358 . S
C709 H751 0.930 . S
C710 C711 1.348 . S
C710 C712 1.356 . S
C710 O735 1.325 . S
C711 C710 1.348 . S
C711 C713 1.353 . S
C711 H752 0.929 . S
C712 C710 1.356 . S
C712 C714 1.358 . S
C712 H753 0.930 . S
C713 C711 1.353 . S
C713 N715 1.314 . S
C713 H754 0.930 . S
C714 C712 1.358 . S
C714 N715 1.279 . S
C714 H755 0.930 . S
N715 C713 1.314 . S
N715 C714 1.279 . S
C716 C718 1.353 . S
C716 N719 1.314 . S
C716 H722 0.930 . S
C717 N719 1.279 . S
C717 C720 1.358 . S
C717 H723 0.930 . S
C718 C716 1.353 . S
C718 C721 1.348 . S
C718 H756 0.929 . S
N719 Li674 1.990 . S
N719 C716 1.314 . S
N719 C717 1.279 . S
C720 C717 1.358 . S
C720 C721 1.356 . S
C720 H757 0.930 . S
C721 C718 1.348 . S
C721 C720 1.356 . S
H722 C716 0.930 . S
H723 C717 0.930 . S
C724 N725 1.314 . S
C724 C726 1.353 . S
C724 H730 0.930 . S
N725 Li675 1.990 . S
N725 C724 1.314 . S
N725 C728 1.279 . S
C726 C724 1.353 . S
C726 C729 1.348 . S
C726 H758 0.929 . S
C727 C728 1.358 . S
C727 C729 1.356 . S
C727 H759 0.930 . S
C728 N725 1.279 . S
C728 C727 1.358 . S
C728 H731 0.930 . S
C729 C726 1.348 . S
C729 C727 1.356 . S
H730 C724 0.930 . S
H731 C728 0.930 . S
O732 Li672 1.956 . S
O732 Li673 1.970 . S
O732 Li674 1.961 . S
O732 C676 1.325 . S
O733 Li672 1.970 . S
O733 Li673 1.956 . S
O733 Li675 1.961 . S
O733 C682 1.325 . S
O734 Li672 1.961 . S
O734 Li674 1.956 . S
O734 Li675 1.970 . S
O734 C704 1.325 . S
O735 Li673 1.961 . S
O735 Li674 1.970 . S
O735 Li675 1.956 . S
O735 C710 1.325 . S
H736 C678 0.929 . S
H737 C679 0.930 . S
H738 C680 0.930 . S
H739 C681 0.930 . S
H740 C683 0.930 . S
H741 C685 0.929 . S
H742 C686 0.930 . S
H743 C687 0.930 . S
H744 C690 0.930 . S
H745 C693 0.929 . S
H746 C698 0.929 . S
H747 C699 0.930 . S
H748 C706 0.929 . S
H749 C707 0.930 . S
H750 C708 0.930 . S
H751 C709 0.930 . S
H752 C711 0.929 . S
H753 C712 0.930 . S
H754 C713 0.930 . S
H755 C714 0.930 . S
H756 C718 0.929 . S
H757 C720 0.930 . S
H758 C726 0.929 . S
H759 C727 0.930 . S
Li760 N777 1.990 . S
Li760 O820 1.956 . S
Li760 O821 1.970 1_565 S
Li760 O822 1.961 . S
Li761 N785 1.990 . S
Li761 O820 1.970 1_545 S
Li761 O821 1.956 . S
Li761 O823 1.961 . S
Li762 N807 1.990 . S
Li762 O820 1.961 . S
Li762 O822 1.956 . S
Li762 O823 1.970 1_565 S
Li763 N813 1.990 . S
Li763 O821 1.961 . S
Li763 O822 1.970 1_545 S
Li763 O823 1.956 . S
C764 C766 1.348 . S
C764 C767 1.356 . S
C764 O820 1.325 . S
N765 C768 1.314 . S
N765 C769 1.279 . S
C766 C764 1.348 . S
C766 C768 1.353 . S
C766 H824 0.929 . S
C767 C764 1.356 . S
C767 C769 1.358 . S
C767 H825 0.930 . S
C768 N765 1.314 . S
C768 C766 1.353 . S
C768 H826 0.930 . S
C769 N765 1.279 . S
C769 C767 1.358 . S
C769 H827 0.930 . S
C770 C773 1.348 1_545 S
C770 C774 1.356 . S
C770 O821 1.325 . S
C771 N772 1.279 . S
C771 C774 1.358 . S
C771 H828 0.930 . S
N772 C771 1.279 . S
N772 C775 1.314 1_545 S
C773 C770 1.348 1_565 S
C773 C775 1.353 . S
C773 H829 0.929 . S
C774 C770 1.356 . S
C774 C771 1.358 . S
C774 H830 0.930 . S
C775 N772 1.314 1_565 S
C775 C773 1.353 . S
C775 H831 0.930 . S
C776 N777 1.314 . S
C776 C781 1.353 . S
C776 H782 0.930 . S
N777 Li760 1.990 . S
N777 C776 1.314 . S
N777 C779 1.279 . S
C778 C779 1.358 . S
C778 C780 1.356 . S
C778 H832 0.930 . S
C779 N777 1.279 . S
C779 C778 1.358 . S
C779 H783 0.930 . S
C780 C778 1.356 . S
C780 C781 1.348 . S
C781 C776 1.353 . S
C781 C780 1.348 . S
C781 H833 0.929 . S
H782 C776 0.930 . S
H783 C779 0.930 . S
C784 N785 1.314 . S
C784 C786 1.353 . S
C784 H790 0.930 . S
N785 Li761 1.990 . S
N785 C784 1.314 . S
N785 C788 1.279 . S
C786 C784 1.353 . S
C786 C789 1.348 . S
C786 H834 0.929 . S
C787 C788 1.358 . S
C787 C789 1.356 . S
C787 H835 0.930 . S
C788 N785 1.279 . S
C788 C787 1.358 . S
C788 H791 0.930 . S
C789 C786 1.348 . S
C789 C787 1.356 . S
H790 C784 0.930 . S
H791 C788 0.930 . S
C792 C794 1.348 1_565 S
C792 C795 1.356 . S
C792 O822 1.325 . S
N793 C796 1.314 1_565 S
N793 C797 1.279 . S
C794 C792 1.348 1_545 S
C794 C796 1.353 . S
C794 H836 0.929 . S
C795 C792 1.356 . S
C795 C797 1.358 . S
C795 H837 0.930 . S
C796 N793 1.314 1_545 S
C796 C794 1.353 . S
C796 H838 0.930 . S
C797 N793 1.279 . S
C797 C795 1.358 . S
C797 H839 0.930 . S
C798 C799 1.348 . S
C798 C800 1.356 . S
C798 O823 1.325 . S
C799 C798 1.348 . S
C799 C801 1.353 . S
C799 H840 0.929 . S
C800 C798 1.356 . S
C800 C802 1.358 . S
C800 H841 0.930 . S
C801 C799 1.353 . S
C801 N803 1.314 . S
C801 H842 0.930 . S
C802 C800 1.358 . S
C802 N803 1.279 . S
C802 H843 0.930 . S
N803 C801 1.314 . S
N803 C802 1.279 . S
C804 C806 1.353 . S
C804 N807 1.314 . S
C804 H810 0.930 . S
C805 N807 1.279 . S
C805 C808 1.358 . S
C805 H811 0.930 . S
C806 C804 1.353 . S
C806 C809 1.348 . S
C806 H844 0.929 . S
N807 Li762 1.990 . S
N807 C804 1.314 . S
N807 C805 1.279 . S
C808 C805 1.358 . S
C808 C809 1.356 . S
C808 H845 0.930 . S
C809 C806 1.348 . S
C809 C808 1.356 . S
H810 C804 0.930 . S
H811 C805 0.930 . S
C812 N813 1.314 . S
C812 C814 1.353 . S
C812 H818 0.930 . S
N813 Li763 1.990 . S
N813 C812 1.314 . S
N813 C816 1.279 . S
C814 C812 1.353 . S
C814 C817 1.348 . S
C814 H846 0.929 . S
C815 C816 1.358 . S
C815 C817 1.356 . S
C815 H847 0.930 . S
C816 N813 1.279 . S
C816 C815 1.358 . S
C816 H819 0.930 . S
C817 C814 1.348 . S
C817 C815 1.356 . S
H818 C812 0.930 . S
H819 C816 0.930 . S
O820 Li760 1.956 . S
O820 Li761 1.970 1_565 S
O820 Li762 1.961 . S
O820 C764 1.325 . S
O821 Li760 1.970 1_545 S
O821 Li761 1.956 . S
O821 Li763 1.961 . S
O821 C770 1.325 . S
O822 Li760 1.961 . S
O822 Li762 1.956 . S
O822 Li763 1.970 1_565 S
O822 C792 1.325 . S
O823 Li761 1.961 . S
O823 Li762 1.970 1_545 S
O823 Li763 1.956 . S
O823 C798 1.325 . S
H824 C766 0.929 . S
H825 C767 0.930 . S
H826 C768 0.930 . S
H827 C769 0.930 . S
H828 C771 0.930 . S
H829 C773 0.929 . S
H830 C774 0.930 . S
H831 C775 0.930 . S
H832 C778 0.930 . S
H833 C781 0.929 . S
H834 C786 0.929 . S
H835 C787 0.930 . S
H836 C794 0.929 . S
H837 C795 0.930 . S
H838 C796 0.930 . S
H839 C797 0.930 . S
H840 C799 0.929 . S
H841 C800 0.930 . S
H842 C801 0.930 . S
H843 C802 0.930 . S
H844 C806 0.929 . S
H845 C808 0.930 . S
H846 C814 0.929 . S
H847 C815 0.930 . S
Li848 N865 1.990 . S
Li848 O908 1.956 . S
Li848 O909 1.970 1_455 S
Li848 O910 1.961 . S
Li849 N873 1.990 . S
Li849 O908 1.970 1_655 S
Li849 O909 1.956 . S
Li849 O911 1.961 . S
Li850 N895 1.990 . S
Li850 O908 1.961 . S
Li850 O910 1.956 . S
Li850 O911 1.970 1_455 S
Li851 N901 1.990 . S
Li851 O909 1.961 . S
Li851 O910 1.970 1_655 S
Li851 O911 1.956 . S
C852 C854 1.348 . S
C852 C855 1.356 . S
C852 O908 1.325 . S
N853 C856 1.314 . S
N853 C857 1.279 . S
C854 C852 1.348 . S
C854 C856 1.353 . S
C854 H912 0.929 . S
C855 C852 1.356 . S
C855 C857 1.358 . S
C855 H913 0.930 . S
C856 N853 1.314 . S
C856 C854 1.353 . S
C856 H914 0.930 . S
C857 N853 1.279 . S
C857 C855 1.358 . S
C857 H915 0.930 . S
C858 C861 1.348 1_655 S
C858 C862 1.356 . S
C858 O909 1.325 . S
C859 N860 1.279 . S
C859 C862 1.358 . S
C859 H916 0.930 . S
N860 C859 1.279 . S
N860 C863 1.314 1_655 S
C861 C858 1.348 1_455 S
C861 C863 1.353 . S
C861 H917 0.929 . S
C862 C858 1.356 . S
C862 C859 1.358 . S
C862 H918 0.930 . S
C863 N860 1.314 1_455 S
C863 C861 1.353 . S
C863 H919 0.930 . S
C864 N865 1.314 . S
C864 C869 1.353 . S
C864 H870 0.930 . S
N865 Li848 1.990 . S
N865 C864 1.314 . S
N865 C867 1.279 . S
C866 C867 1.358 . S
C866 C868 1.356 . S
C866 H920 0.930 . S
C867 N865 1.279 . S
C867 C866 1.358 . S
C867 H871 0.930 . S
C868 C866 1.356 . S
C868 C869 1.348 . S
C869 C864 1.353 . S
C869 C868 1.348 . S
C869 H921 0.929 . S
H870 C864 0.930 . S
H871 C867 0.930 . S
C872 N873 1.314 . S
C872 C874 1.353 . S
C872 H878 0.930 . S
N873 Li849 1.990 . S
N873 C872 1.314 . S
N873 C876 1.279 . S
C874 C872 1.353 . S
C874 C877 1.348 . S
C874 H922 0.929 . S
C875 C876 1.358 . S
C875 C877 1.356 . S
C875 H923 0.930 . S
C876 N873 1.279 . S
C876 C875 1.358 . S
C876 H879 0.930 . S
C877 C874 1.348 . S
C877 C875 1.356 . S
H878 C872 0.930 . S
H879 C876 0.930 . S
C880 C882 1.348 1_455 S
C880 C883 1.356 . S
C880 O910 1.325 . S
N881 C884 1.314 1_455 S
N881 C885 1.279 . S
C882 C880 1.348 1_655 S
C882 C884 1.353 . S
C882 H924 0.929 . S
C883 C880 1.356 . S
C883 C885 1.358 . S
C883 H925 0.930 . S
C884 N881 1.314 1_655 S
C884 C882 1.353 . S
C884 H926 0.930 . S
C885 N881 1.279 . S
C885 C883 1.358 . S
C885 H927 0.930 . S
C886 C887 1.348 . S
C886 C888 1.356 . S
C886 O911 1.325 . S
C887 C886 1.348 . S
C887 C889 1.353 . S
C887 H928 0.929 . S
C888 C886 1.356 . S
C888 C890 1.358 . S
C888 H929 0.930 . S
C889 C887 1.353 . S
C889 N891 1.314 . S
C889 H930 0.930 . S
C890 C888 1.358 . S
C890 N891 1.279 . S
C890 H931 0.930 . S
N891 C889 1.314 . S
N891 C890 1.279 . S
C892 C894 1.353 . S
C892 N895 1.314 . S
C892 H898 0.930 . S
C893 N895 1.279 . S
C893 C896 1.358 . S
C893 H899 0.930 . S
C894 C892 1.353 . S
C894 C897 1.348 . S
C894 H932 0.929 . S
N895 Li850 1.990 . S
N895 C892 1.314 . S
N895 C893 1.279 . S
C896 C893 1.358 . S
C896 C897 1.356 . S
C896 H933 0.930 . S
C897 C894 1.348 . S
C897 C896 1.356 . S
H898 C892 0.930 . S
H899 C893 0.930 . S
C900 N901 1.314 . S
C900 C902 1.353 . S
C900 H906 0.930 . S
N901 Li851 1.990 . S
N901 C900 1.314 . S
N901 C904 1.279 . S
C902 C900 1.353 . S
C902 C905 1.348 . S
C902 H934 0.929 . S
C903 C904 1.358 . S
C903 C905 1.356 . S
C903 H935 0.930 . S
C904 N901 1.279 . S
C904 C903 1.358 . S
C904 H907 0.930 . S
C905 C902 1.348 . S
C905 C903 1.356 . S
H906 C900 0.930 . S
H907 C904 0.930 . S
O908 Li848 1.956 . S
O908 Li849 1.970 1_455 S
O908 Li850 1.961 . S
O908 C852 1.325 . S
O909 Li848 1.970 1_655 S
O909 Li849 1.956 . S
O909 Li851 1.961 . S
O909 C858 1.325 . S
O910 Li848 1.961 . S
O910 Li850 1.956 . S
O910 Li851 1.970 1_455 S
O910 C880 1.325 . S
O911 Li849 1.961 . S
O911 Li850 1.970 1_655 S
O911 Li851 1.956 . S
O911 C886 1.325 . S
H912 C854 0.929 . S
H913 C855 0.930 . S
H914 C856 0.930 . S
H915 C857 0.930 . S
H916 C859 0.930 . S
H917 C861 0.929 . S
H918 C862 0.930 . S
H919 C863 0.930 . S
H920 C866 0.930 . S
H921 C869 0.929 . S
H922 C874 0.929 . S
H923 C875 0.930 . S
H924 C882 0.929 . S
H925 C883 0.930 . S
H926 C884 0.930 . S
H927 C885 0.930 . S
H928 C887 0.929 . S
H929 C888 0.930 . S
H930 C889 0.930 . S
H931 C890 0.930 . S
H932 C894 0.929 . S
H933 C896 0.930 . S
H934 C902 0.929 . S
H935 C903 0.930 . S
Li936 N953 1.990 . S
Li936 O996 1.956 . S
Li936 O997 1.970 . S
Li936 O998 1.961 . S
Li937 N961 1.990 . S
Li937 O996 1.970 . S
Li937 O997 1.956 . S
Li937 O999 1.961 . S
Li938 N983 1.990 . S
Li938 O996 1.961 . S
Li938 O998 1.956 . S
Li938 O999 1.970 . S
Li939 N989 1.990 . S
Li939 O997 1.961 . S
Li939 O998 1.970 . S
Li939 O999 1.956 . S
C940 C942 1.348 . S
C940 C943 1.356 . S
C940 O996 1.325 . S
N941 C944 1.314 . S
N941 C945 1.279 . S
C942 C940 1.348 . S
C942 C944 1.353 . S
C942 H1000 0.929 . S
C943 C940 1.356 . S
C943 C945 1.358 . S
C943 H1001 0.930 . S
C944 N941 1.314 . S
C944 C942 1.353 . S
C944 H1002 0.930 . S
C945 N941 1.279 . S
C945 C943 1.358 . S
C945 H1003 0.930 . S
C946 C949 1.348 . S
C946 C950 1.356 . S
C946 O997 1.325 . S
C947 N948 1.279 . S
C947 C950 1.358 . S
C947 H1004 0.930 . S
N948 C947 1.279 . S
N948 C951 1.314 . S
C949 C946 1.348 . S
C949 C951 1.353 . S
C949 H1005 0.929 . S
C950 C946 1.356 . S
C950 C947 1.358 . S
C950 H1006 0.930 . S
C951 N948 1.314 . S
C951 C949 1.353 . S
C951 H1007 0.930 . S
C952 N953 1.314 . S
C952 C957 1.353 . S
C952 H958 0.930 . S
N953 Li936 1.990 . S
N953 C952 1.314 . S
N953 C955 1.279 . S
C954 C955 1.358 . S
C954 C956 1.356 . S
C954 H1008 0.930 . S
C955 N953 1.279 . S
C955 C954 1.358 . S
C955 H959 0.930 . S
C956 C954 1.356 . S
C956 C957 1.348 . S
C957 C952 1.353 . S
C957 C956 1.348 . S
C957 H1009 0.929 . S
H958 C952 0.930 . S
H959 C955 0.930 . S
C960 N961 1.314 . S
C960 C962 1.353 . S
C960 H966 0.930 . S
N961 Li937 1.990 . S
N961 C960 1.314 . S
N961 C964 1.279 . S
C962 C960 1.353 . S
C962 C965 1.348 . S
C962 H1010 0.929 . S
C963 C964 1.358 . S
C963 C965 1.356 . S
C963 H1011 0.930 . S
C964 N961 1.279 . S
C964 C963 1.358 . S
C964 H967 0.930 . S
C965 C962 1.348 . S
C965 C963 1.356 . S
H966 C960 0.930 . S
H967 C964 0.930 . S
C968 C970 1.348 . S
C968 C971 1.356 . S
C968 O998 1.325 . S
N969 C972 1.314 . S
N969 C973 1.279 . S
C970 C968 1.348 . S
C970 C972 1.353 . S
C970 H1012 0.929 . S
C971 C968 1.356 . S
C971 C973 1.358 . S
C971 H1013 0.930 . S
C972 N969 1.314 . S
C972 C970 1.353 . S
C972 H1014 0.930 . S
C973 N969 1.279 . S
C973 C971 1.358 . S
C973 H1015 0.930 . S
C974 C975 1.348 . S
C974 C976 1.356 . S
C974 O999 1.325 . S
C975 C974 1.348 . S
C975 C977 1.353 . S
C975 H1016 0.929 . S
C976 C974 1.356 . S
C976 C978 1.358 . S
C976 H1017 0.930 . S
C977 C975 1.353 . S
C977 N979 1.314 . S
C977 H1018 0.930 . S
C978 C976 1.358 . S
C978 N979 1.279 . S
C978 H1019 0.930 . S
N979 C977 1.314 . S
N979 C978 1.279 . S
C980 C982 1.353 . S
C980 N983 1.314 . S
C980 H986 0.930 . S
C981 N983 1.279 . S
C981 C984 1.358 . S
C981 H987 0.930 . S
C982 C980 1.353 . S
C982 C985 1.348 . S
C982 H1020 0.929 . S
N983 Li938 1.990 . S
N983 C980 1.314 . S
N983 C981 1.279 . S
C984 C981 1.358 . S
C984 C985 1.356 . S
C984 H1021 0.930 . S
C985 C982 1.348 . S
C985 C984 1.356 . S
H986 C980 0.930 . S
H987 C981 0.930 . S
C988 N989 1.314 . S
C988 C990 1.353 . S
C988 H994 0.930 . S
N989 Li939 1.990 . S
N989 C988 1.314 . S
N989 C992 1.279 . S
C990 C988 1.353 . S
C990 C993 1.348 . S
C990 H1022 0.929 . S
C991 C992 1.358 . S
C991 C993 1.356 . S
C991 H1023 0.930 . S
C992 N989 1.279 . S
C992 C991 1.358 . S
C992 H995 0.930 . S
C993 C990 1.348 . S
C993 C991 1.356 . S
H994 C988 0.930 . S
H995 C992 0.930 . S
O996 Li936 1.956 . S
O996 Li937 1.970 . S
O996 Li938 1.961 . S
O996 C940 1.325 . S
O997 Li936 1.970 . S
O997 Li937 1.956 . S
O997 Li939 1.961 . S
O997 C946 1.325 . S
O998 Li936 1.961 . S
O998 Li938 1.956 . S
O998 Li939 1.970 . S
O998 C968 1.325 . S
O999 Li937 1.961 . S
O999 Li938 1.970 . S
O999 Li939 1.956 . S
O999 C974 1.325 . S
H1000 C942 0.929 . S
H1001 C943 0.930 . S
H1002 C944 0.930 . S
H1003 C945 0.930 . S
H1004 C947 0.930 . S
H1005 C949 0.929 . S
H1006 C950 0.930 . S
H1007 C951 0.930 . S
H1008 C954 0.930 . S
H1009 C957 0.929 . S
H1010 C962 0.929 . S
H1011 C963 0.930 . S
H1012 C970 0.929 . S
H1013 C971 0.930 . S
H1014 C972 0.930 . S
H1015 C973 0.930 . S
H1016 C975 0.929 . S
H1017 C976 0.930 . S
H1018 C977 0.930 . S
H1019 C978 0.930 . S
H1020 C982 0.929 . S
H1021 C984 0.930 . S
H1022 C990 0.929 . S
H1023 C991 0.930 . S
Li1024 N1041 1.990 . S
Li1024 O1084 1.956 . S
Li1024 O1085 1.970 1_455 S
Li1024 O1086 1.961 . S
Li1025 N1049 1.990 . S
Li1025 O1084 1.970 1_655 S
Li1025 O1085 1.956 . S
Li1025 O1087 1.961 . S
Li1026 N1071 1.990 . S
Li1026 O1084 1.961 . S
Li1026 O1086 1.956 . S
Li1026 O1087 1.970 1_455 S
Li1027 N1077 1.990 . S
Li1027 O1085 1.961 . S
Li1027 O1086 1.970 1_655 S
Li1027 O1087 1.956 . S
C1028 C1030 1.348 1_455 S
C1028 C1031 1.356 . S
C1028 O1084 1.325 . S
N1029 C1032 1.314 1_455 S
N1029 C1033 1.279 . S
C1030 C1028 1.348 1_655 S
C1030 C1032 1.353 . S
C1030 H1088 0.929 . S
C1031 C1028 1.356 . S
C1031 C1033 1.358 . S
C1031 H1089 0.930 . S
C1032 N1029 1.314 1_655 S
C1032 C1030 1.353 . S
C1032 H1090 0.930 . S
C1033 N1029 1.279 . S
C1033 C1031 1.358 . S
C1033 H1091 0.930 . S
C1034 C1037 1.348 . S
C1034 C1038 1.356 . S
C1034 O1085 1.325 . S
C1035 N1036 1.279 . S
C1035 C1038 1.358 . S
C1035 H1092 0.930 . S
N1036 C1035 1.279 . S
N1036 C1039 1.314 . S
C1037 C1034 1.348 . S
C1037 C1039 1.353 . S
C1037 H1093 0.929 . S
C1038 C1034 1.356 . S
C1038 C1035 1.358 . S
C1038 H1094 0.930 . S
C1039 N1036 1.314 . S
C1039 C1037 1.353 . S
C1039 H1095 0.930 . S
C1040 N1041 1.314 . S
C1040 C1045 1.353 . S
C1040 H1046 0.930 . S
N1041 Li1024 1.990 . S
N1041 C1040 1.314 . S
N1041 C1043 1.279 . S
C1042 C1043 1.358 . S
C1042 C1044 1.356 . S
C1042 H1096 0.930 . S
C1043 N1041 1.279 . S
C1043 C1042 1.358 . S
C1043 H1047 0.930 . S
C1044 C1042 1.356 . S
C1044 C1045 1.348 . S
C1045 C1040 1.353 . S
C1045 C1044 1.348 . S
C1045 H1097 0.929 . S
H1046 C1040 0.930 . S
H1047 C1043 0.930 . S
C1048 N1049 1.314 . S
C1048 C1050 1.353 . S
C1048 H1054 0.930 . S
N1049 Li1025 1.990 . S
N1049 C1048 1.314 . S
N1049 C1052 1.279 . S
C1050 C1048 1.353 . S
C1050 C1053 1.348 . S
C1050 H1098 0.929 . S
C1051 C1052 1.358 . S
C1051 C1053 1.356 . S
C1051 H1099 0.930 . S
C1052 N1049 1.279 . S
C1052 C1051 1.358 . S
C1052 H1055 0.930 . S
C1053 C1050 1.348 . S
C1053 C1051 1.356 . S
H1054 C1048 0.930 . S
H1055 C1052 0.930 . S
C1056 C1058 1.348 . S
C1056 C1059 1.356 . S
C1056 O1086 1.325 . S
N1057 C1060 1.314 . S
N1057 C1061 1.279 . S
C1058 C1056 1.348 . S
C1058 C1060 1.353 . S
C1058 H1100 0.929 . S
C1059 C1056 1.356 . S
C1059 C1061 1.358 . S
C1059 H1101 0.930 . S
C1060 N1057 1.314 . S
C1060 C1058 1.353 . S
C1060 H1102 0.930 . S
C1061 N1057 1.279 . S
C1061 C1059 1.358 . S
C1061 H1103 0.930 . S
C1062 C1063 1.348 1_655 S
C1062 C1064 1.356 . S
C1062 O1087 1.325 . S
C1063 C1062 1.348 1_455 S
C1063 C1065 1.353 . S
C1063 H1104 0.929 . S
C1064 C1062 1.356 . S
C1064 C1066 1.358 . S
C1064 H1105 0.930 . S
C1065 C1063 1.353 . S
C1065 N1067 1.314 1_455 S
C1065 H1106 0.930 . S
C1066 C1064 1.358 . S
C1066 N1067 1.279 . S
C1066 H1107 0.930 . S
N1067 C1065 1.314 1_655 S
N1067 C1066 1.279 . S
C1068 C1070 1.353 . S
C1068 N1071 1.314 . S
C1068 H1074 0.930 . S
C1069 N1071 1.279 . S
C1069 C1072 1.358 . S
C1069 H1075 0.930 . S
C1070 C1068 1.353 . S
C1070 C1073 1.348 . S
C1070 H1108 0.929 . S
N1071 Li1026 1.990 . S
N1071 C1068 1.314 . S
N1071 C1069 1.279 . S
C1072 C1069 1.358 . S
C1072 C1073 1.356 . S
C1072 H1109 0.930 . S
C1073 C1070 1.348 . S
C1073 C1072 1.356 . S
H1074 C1068 0.930 . S
H1075 C1069 0.930 . S
C1076 N1077 1.314 . S
C1076 C1078 1.353 . S
C1076 H1082 0.930 . S
N1077 Li1027 1.990 . S
N1077 C1076 1.314 . S
N1077 C1080 1.279 . S
C1078 C1076 1.353 . S
C1078 C1081 1.348 . S
C1078 H1110 0.929 . S
C1079 C1080 1.358 . S
C1079 C1081 1.356 . S
C1079 H1111 0.930 . S
C1080 N1077 1.279 . S
C1080 C1079 1.358 . S
C1080 H1083 0.930 . S
C1081 C1078 1.348 . S
C1081 C1079 1.356 . S
H1082 C1076 0.930 . S
H1083 C1080 0.930 . S
O1084 Li1024 1.956 . S
O1084 Li1025 1.970 1_455 S
O1084 Li1026 1.961 . S
O1084 C1028 1.325 . S
O1085 Li1024 1.970 1_655 S
O1085 Li1025 1.956 . S
O1085 Li1027 1.961 . S
O1085 C1034 1.325 . S
O1086 Li1024 1.961 . S
O1086 Li1026 1.956 . S
O1086 Li1027 1.970 1_455 S
O1086 C1056 1.325 . S
O1087 Li1025 1.961 . S
O1087 Li1026 1.970 1_655 S
O1087 Li1027 1.956 . S
O1087 C1062 1.325 . S
H1088 C1030 0.929 . S
H1089 C1031 0.930 . S
H1090 C1032 0.930 . S
H1091 C1033 0.930 . S
H1092 C1035 0.930 . S
H1093 C1037 0.929 . S
H1094 C1038 0.930 . S
H1095 C1039 0.930 . S
H1096 C1042 0.930 . S
H1097 C1045 0.929 . S
H1098 C1050 0.929 . S
H1099 C1051 0.930 . S
H1100 C1058 0.929 . S
H1101 C1059 0.930 . S
H1102 C1060 0.930 . S
H1103 C1061 0.930 . S
H1104 C1063 0.929 . S
H1105 C1064 0.930 . S
H1106 C1065 0.930 . S
H1107 C1066 0.930 . S
H1108 C1070 0.929 . S
H1109 C1072 0.930 . S
H1110 C1078 0.929 . S
H1111 C1079 0.930 . S
Li1112 N1129 1.990 . S
Li1112 O1172 1.956 . S
Li1112 O1173 1.970 . S
Li1112 O1174 1.961 . S
Li1113 N1137 1.990 . S
Li1113 O1172 1.970 . S
Li1113 O1173 1.956 . S
Li1113 O1175 1.961 . S
Li1114 N1159 1.990 . S
Li1114 O1172 1.961 . S
Li1114 O1174 1.956 . S
Li1114 O1175 1.970 . S
Li1115 N1165 1.990 . S
Li1115 O1173 1.961 . S
Li1115 O1174 1.970 . S
Li1115 O1175 1.956 . S
C1116 C1118 1.348 . S
C1116 C1119 1.356 . S
C1116 O1172 1.325 . S
N1117 C1120 1.314 . S
N1117 C1121 1.279 . S
C1118 C1116 1.348 . S
C1118 C1120 1.353 . S
C1118 H1176 0.929 . S
C1119 C1116 1.356 . S
C1119 C1121 1.358 . S
C1119 H1177 0.930 . S
C1120 N1117 1.314 . S
C1120 C1118 1.353 . S
C1120 H1178 0.930 . S
C1121 N1117 1.279 . S
C1121 C1119 1.358 . S
C1121 H1179 0.930 . S
C1122 C1125 1.348 . S
C1122 C1126 1.356 . S
C1122 O1173 1.325 . S
C1123 N1124 1.279 . S
C1123 C1126 1.358 . S
C1123 H1180 0.930 . S
N1124 C1123 1.279 . S
N1124 C1127 1.314 . S
C1125 C1122 1.348 . S
C1125 C1127 1.353 . S
C1125 H1181 0.929 . S
C1126 C1122 1.356 . S
C1126 C1123 1.358 . S
C1126 H1182 0.930 . S
C1127 N1124 1.314 . S
C1127 C1125 1.353 . S
C1127 H1183 0.930 . S
C1128 N1129 1.314 . S
C1128 C1133 1.353 . S
C1128 H1134 0.930 . S
N1129 Li1112 1.990 . S
N1129 C1128 1.314 . S
N1129 C1131 1.279 . S
C1130 C1131 1.358 . S
C1130 C1132 1.356 . S
C1130 H1184 0.930 . S
C1131 N1129 1.279 . S
C1131 C1130 1.358 . S
C1131 H1135 0.930 . S
C1132 C1130 1.356 . S
C1132 C1133 1.348 . S
C1133 C1128 1.353 . S
C1133 C1132 1.348 . S
C1133 H1185 0.929 . S
H1134 C1128 0.930 . S
H1135 C1131 0.930 . S
C1136 N1137 1.314 . S
C1136 C1138 1.353 . S
C1136 H1142 0.930 . S
N1137 Li1113 1.990 . S
N1137 C1136 1.314 . S
N1137 C1140 1.279 . S
C1138 C1136 1.353 . S
C1138 C1141 1.348 . S
C1138 H1186 0.929 . S
C1139 C1140 1.358 . S
C1139 C1141 1.356 . S
C1139 H1187 0.930 . S
C1140 N1137 1.279 . S
C1140 C1139 1.358 . S
C1140 H1143 0.930 . S
C1141 C1138 1.348 . S
C1141 C1139 1.356 . S
H1142 C1136 0.930 . S
H1143 C1140 0.930 . S
C1144 C1146 1.348 . S
C1144 C1147 1.356 . S
C1144 O1174 1.325 . S
N1145 C1148 1.314 . S
N1145 C1149 1.279 . S
C1146 C1144 1.348 . S
C1146 C1148 1.353 . S
C1146 H1188 0.929 . S
C1147 C1144 1.356 . S
C1147 C1149 1.358 . S
C1147 H1189 0.930 . S
C1148 N1145 1.314 . S
C1148 C1146 1.353 . S
C1148 H1190 0.930 . S
C1149 N1145 1.279 . S
C1149 C1147 1.358 . S
C1149 H1191 0.930 . S
C1150 C1151 1.348 . S
C1150 C1152 1.356 . S
C1150 O1175 1.325 . S
C1151 C1150 1.348 . S
C1151 C1153 1.353 . S
C1151 H1192 0.929 . S
C1152 C1150 1.356 . S
C1152 C1154 1.358 . S
C1152 H1193 0.930 . S
C1153 C1151 1.353 . S
C1153 N1155 1.314 . S
C1153 H1194 0.930 . S
C1154 C1152 1.358 . S
C1154 N1155 1.279 . S
C1154 H1195 0.930 . S
N1155 C1153 1.314 . S
N1155 C1154 1.279 . S
C1156 C1158 1.353 . S
C1156 N1159 1.314 . S
C1156 H1162 0.930 . S
C1157 N1159 1.279 . S
C1157 C1160 1.358 . S
C1157 H1163 0.930 . S
C1158 C1156 1.353 . S
C1158 C1161 1.348 . S
C1158 H1196 0.929 . S
N1159 Li1114 1.990 . S
N1159 C1156 1.314 . S
N1159 C1157 1.279 . S
C1160 C1157 1.358 . S
C1160 C1161 1.356 . S
C1160 H1197 0.930 . S
C1161 C1158 1.348 . S
C1161 C1160 1.356 . S
H1162 C1156 0.930 . S
H1163 C1157 0.930 . S
C1164 N1165 1.314 . S
C1164 C1166 1.353 . S
C1164 H1170 0.930 . S
N1165 Li1115 1.990 . S
N1165 C1164 1.314 . S
N1165 C1168 1.279 . S
C1166 C1164 1.353 . S
C1166 C1169 1.348 . S
C1166 H1198 0.929 . S
C1167 C1168 1.358 . S
C1167 C1169 1.356 . S
C1167 H1199 0.930 . S
C1168 N1165 1.279 . S
C1168 C1167 1.358 . S
C1168 H1171 0.930 . S
C1169 C1166 1.348 . S
C1169 C1167 1.356 . S
H1170 C1164 0.930 . S
H1171 C1168 0.930 . S
O1172 Li1112 1.956 . S
O1172 Li1113 1.970 . S
O1172 Li1114 1.961 . S
O1172 C1116 1.325 . S
O1173 Li1112 1.970 . S
O1173 Li1113 1.956 . S
O1173 Li1115 1.961 . S
O1173 C1122 1.325 . S
O1174 Li1112 1.961 . S
O1174 Li1114 1.956 . S
O1174 Li1115 1.970 . S
O1174 C1144 1.325 . S
O1175 Li1113 1.961 . S
O1175 Li1114 1.970 . S
O1175 Li1115 1.956 . S
O1175 C1150 1.325 . S
H1176 C1118 0.929 . S
H1177 C1119 0.930 . S
H1178 C1120 0.930 . S
H1179 C1121 0.930 . S
H1180 C1123 0.930 . S
H1181 C1125 0.929 . S
H1182 C1126 0.930 . S
H1183 C1127 0.930 . S
H1184 C1130 0.930 . S
H1185 C1133 0.929 . S
H1186 C1138 0.929 . S
H1187 C1139 0.930 . S
H1188 C1146 0.929 . S
H1189 C1147 0.930 . S
H1190 C1148 0.930 . S
H1191 C1149 0.930 . S
H1192 C1151 0.929 . S
H1193 C1152 0.930 . S
H1194 C1153 0.930 . S
H1195 C1154 0.930 . S
H1196 C1158 0.929 . S
H1197 C1160 0.930 . S
H1198 C1166 0.929 . S
H1199 C1167 0.930 . S
H1200 C1218 0.951 . S
H1201 C1220 0.951 . S
H1202 C1222 0.950 . S
H1203 C1223 0.950 . S
H1204 C1225 0.950 . S
H1205 C1228 0.950 . S
H1206 C1229 0.950 . S
H1207 C1231 0.950 . S
H1208 C1232 0.950 . S
H1209 C1233 0.951 . S
H1210 C1235 0.951 . S
H1211 C1237 0.950 . S
H1212 C1238 0.950 . S
H1213 C1240 0.950 . S
H1214 C1243 0.950 . S
H1215 C1244 0.950 . S
H1216 C1246 0.950 . S
H1217 C1247 0.950 . S
C1218 H1200 0.951 . S
C1218 C1219 1.366 . S
C1218 C1220 1.388 . S
C1219 C1218 1.366 . S
C1219 C1223 1.385 . S
C1220 H1201 0.951 . S
C1220 C1218 1.388 . S
C1220 C1221 1.366 . S
C1221 C1220 1.366 . S
C1221 C1222 1.414 . S
C1221 C1224 1.499 . S
C1222 H1202 0.950 . S
C1222 C1221 1.414 . S
C1222 C1223 1.374 . S
C1223 H1203 0.950 . S
C1223 C1219 1.385 . S
C1223 C1222 1.374 . S
C1224 C1221 1.499 . S
C1224 C1225 1.373 . S
C1224 C1226 1.389 . S
C1225 H1204 0.950 . S
C1225 C1224 1.373 . S
C1225 C1241 1.377 . S
C1226 C1224 1.389 . S
C1226 C1227 1.524 . S
C1226 C1240 1.377 . S
C1227 C1226 1.524 . S
C1227 C1228 1.397 . S
C1227 C1232 1.363 . S
C1228 H1205 0.950 . S
C1228 C1227 1.397 . S
C1228 C1229 1.334 . S
C1229 H1206 0.950 . S
C1229 C1228 1.334 . S
C1229 C1230 1.287 . S
C1230 C1229 1.287 . S
C1230 C1231 1.524 . S
C1230 H1249 0.913 . S
C1231 H1207 0.950 . S
C1231 C1230 1.524 . S
C1231 C1232 1.415 . S
C1232 H1208 0.950 . S
C1232 C1227 1.363 . S
C1232 C1231 1.415 . S
C1233 H1209 0.951 . S
C1233 C1234 1.366 . S
C1233 C1235 1.388 . S
C1234 C1233 1.366 . S
C1234 C1238 1.385 . S
C1235 H1210 0.951 . S
C1235 C1233 1.388 . S
C1235 C1236 1.366 . S
C1236 C1235 1.366 . S
C1236 C1237 1.414 . S
C1236 C1239 1.499 . S
C1237 H1211 0.950 . S
C1237 C1236 1.414 . S
C1237 C1238 1.374 . S
C1238 H1212 0.950 . S
C1238 C1234 1.385 . S
C1238 C1237 1.374 . S
C1239 C1236 1.499 . S
C1239 C1240 1.373 . S
C1239 C1241 1.389 . S
C1240 H1213 0.950 . S
C1240 C1226 1.377 . S
C1240 C1239 1.373 . S
C1241 C1225 1.377 . S
C1241 C1239 1.389 . S
C1241 C1242 1.524 . S
C1242 C1241 1.524 . S
C1242 C1243 1.397 . S
C1242 C1247 1.363 . S
C1243 H1214 0.950 . S
C1243 C1242 1.397 . S
C1243 C1244 1.334 . S
C1244 H1215 0.950 . S
C1244 C1243 1.334 . S
C1244 C1245 1.287 . S
C1245 C1244 1.287 . S
C1245 C1246 1.524 . S
C1245 H1248 0.999 . S
C1246 H1216 0.950 . S
C1246 C1245 1.524 . S
C1246 C1247 1.415 . S
C1247 H1217 0.950 . S
C1247 C1242 1.363 . S
C1247 C1246 1.415 . S
H1248 C1245 0.999 . S
H1249 C1230 0.913 . S
H1250 C1268 0.951 . S
H1251 C1270 0.951 . S
H1252 C1272 0.950 . S
H1253 C1273 0.950 . S
H1254 C1275 0.950 . S
H1255 C1278 0.950 . S
H1256 C1279 0.950 . S
H1257 C1281 0.950 . S
H1258 C1282 0.950 . S
H1259 C1283 0.951 . S
H1260 C1285 0.951 . S
H1261 C1287 0.950 . S
H1262 C1288 0.950 . S
H1263 C1290 0.950 . S
H1264 C1293 0.950 . S
H1265 C1294 0.950 . S
H1266 C1296 0.950 . S
H1267 C1297 0.929 1_655 S
C1268 H1250 0.951 . S
C1268 C1269 1.366 1_455 S
C1268 C1270 1.388 . S
C1269 C1268 1.366 1_655 S
C1269 C1273 1.385 . S
C1270 H1251 0.951 . S
C1270 C1268 1.388 . S
C1270 C1271 1.366 . S
C1271 C1270 1.366 . S
C1271 C1272 1.414 1_455 S
C1271 C1274 1.499 . S
C1272 H1252 0.950 . S
C1272 C1271 1.414 1_655 S
C1272 C1273 1.374 . S
C1273 H1253 0.950 . S
C1273 C1269 1.385 . S
C1273 C1272 1.374 . S
C1274 C1271 1.499 . S
C1274 C1275 1.373 . S
C1274 C1276 1.389 . S
C1275 H1254 0.950 . S
C1275 C1274 1.373 . S
C1275 C1291 1.377 . S
C1276 C1274 1.389 . S
C1276 C1277 1.524 . S
C1276 C1290 1.377 . S
C1277 C1276 1.524 . S
C1277 C1278 1.397 . S
C1277 C1282 1.363 . S
C1278 H1255 0.950 . S
C1278 C1277 1.397 . S
C1278 C1279 1.334 . S
C1279 H1256 0.950 . S
C1279 C1278 1.334 . S
C1279 C1280 1.287 . S
C1280 C1279 1.287 . S
C1280 C1281 1.524 . S
C1280 H1299 0.913 . S
C1281 H1257 0.950 . S
C1281 C1280 1.524 . S
C1281 C1282 1.415 . S
C1282 H1258 0.950 . S
C1282 C1277 1.363 . S
C1282 C1281 1.415 . S
C1283 H1259 0.951 . S
C1283 C1284 1.366 . S
C1283 C1285 1.388 . S
C1284 C1283 1.366 . S
C1284 C1288 1.385 . S
C1285 H1260 0.951 . S
C1285 C1283 1.388 . S
C1285 C1286 1.366 . S
C1286 C1285 1.366 . S
C1286 C1287 1.414 . S
C1286 C1289 1.499 . S
C1287 H1261 0.950 . S
C1287 C1286 1.414 . S
C1287 C1288 1.374 . S
C1288 H1262 0.950 . S
C1288 C1284 1.385 . S
C1288 C1287 1.374 . S
C1289 C1286 1.499 . S
C1289 C1290 1.373 . S
C1289 C1291 1.389 . S
C1290 H1263 0.950 . S
C1290 C1276 1.377 . S
C1290 C1289 1.373 . S
C1291 C1275 1.377 . S
C1291 C1289 1.389 . S
C1291 C1292 1.524 . S
C1292 C1291 1.524 . S
C1292 C1293 1.397 . S
C1292 C1297 1.414 . S
C1293 H1264 0.950 . S
C1293 C1292 1.397 . S
C1293 C1294 1.334 . S
C1294 H1265 0.950 . S
C1294 C1293 1.334 . S
C1294 C1295 1.287 . S
C1295 C1294 1.287 . S
C1295 C1296 1.524 1_455 S
C1295 H1298 0.999 1_455 S
C1296 H1266 0.950 . S
C1296 C1295 1.524 1_655 S
C1296 C1297 1.387 1_655 S
C1297 H1267 0.929 1_455 S
C1297 C1292 1.414 . S
C1297 C1296 1.387 1_455 S
H1298 C1295 0.999 1_655 S
H1299 C1280 0.913 . S
H1300 C1318 0.951 . S
H1301 C1320 0.951 . S
H1302 C1322 0.950 . S
H1303 C1323 0.950 . S
H1304 C1325 0.950 . S
H1305 C1328 0.950 . S
H1306 C1329 0.950 . S
H1307 C1331 0.950 . S
H1308 C1332 0.950 . S
H1309 C1333 0.951 . S
H1310 C1335 0.951 . S
H1311 C1337 0.950 . S
H1312 C1338 0.950 . S
H1313 C1340 0.950 . S
H1314 C1343 0.950 . S
H1315 C1344 0.950 . S
H1316 C1346 0.950 . S
H1317 C1347 0.950 . S
C1318 H1300 0.951 . S
C1318 C1319 1.366 . S
C1318 C1320 1.388 . S
C1319 C1318 1.366 . S
C1319 C1323 1.385 . S
C1320 H1301 0.951 . S
C1320 C1318 1.388 . S
C1320 C1321 1.366 . S
C1321 C1320 1.366 . S
C1321 C1322 1.414 . S
C1321 C1324 1.499 . S
C1322 H1302 0.950 . S
C1322 C1321 1.414 . S
C1322 C1323 1.374 . S
C1323 H1303 0.950 . S
C1323 C1319 1.385 . S
C1323 C1322 1.374 . S
C1324 C1321 1.499 . S
C1324 C1325 1.373 . S
C1324 C1326 1.389 . S
C1325 H1304 0.950 . S
C1325 C1324 1.373 . S
C1325 C1341 1.377 . S
C1326 C1324 1.389 . S
C1326 C1327 1.524 . S
C1326 C1340 1.377 . S
C1327 C1326 1.524 . S
C1327 C1328 1.397 . S
C1327 C1332 1.363 . S
C1328 H1305 0.950 . S
C1328 C1327 1.397 . S
C1328 C1329 1.334 . S
C1329 H1306 0.950 . S
C1329 C1328 1.334 . S
C1329 C1330 1.287 . S
C1330 C1329 1.287 . S
C1330 C1331 1.524 . S
C1330 H1349 0.913 . S
C1331 H1307 0.950 . S
C1331 C1330 1.524 . S
C1331 C1332 1.415 . S
C1332 H1308 0.950 . S
C1332 C1327 1.363 . S
C1332 C1331 1.415 . S
C1333 H1309 0.951 . S
C1333 C1334 1.366 . S
C1333 C1335 1.388 . S
C1334 C1333 1.366 . S
C1334 C1338 1.385 . S
C1335 H1310 0.951 . S
C1335 C1333 1.388 . S
C1335 C1336 1.366 . S
C1336 C1335 1.366 . S
C1336 C1337 1.414 . S
C1336 C1339 1.499 . S
C1337 H1311 0.950 . S
C1337 C1336 1.414 . S
C1337 C1338 1.374 . S
C1338 H1312 0.950 . S
C1338 C1334 1.385 . S
C1338 C1337 1.374 . S
C1339 C1336 1.499 . S
C1339 C1340 1.373 . S
C1339 C1341 1.389 . S
C1340 H1313 0.950 . S
C1340 C1326 1.377 . S
C1340 C1339 1.373 . S
C1341 C1325 1.377 . S
C1341 C1339 1.389 . S
C1341 C1342 1.524 . S
C1342 C1341 1.524 . S
C1342 C1343 1.397 . S
C1342 C1347 1.363 . S
C1343 H1314 0.950 . S
C1343 C1342 1.397 . S
C1343 C1344 1.334 . S
C1344 H1315 0.950 . S
C1344 C1343 1.334 . S
C1344 C1345 1.287 . S
C1345 C1344 1.287 . S
C1345 C1346 1.524 . S
C1345 H1348 0.999 . S
C1346 H1316 0.950 . S
C1346 C1345 1.524 . S
C1346 C1347 1.415 . S
C1347 H1317 0.950 . S
C1347 C1342 1.363 . S
C1347 C1346 1.415 . S
H1348 C1345 0.999 . S
H1349 C1330 0.913 . S
H1350 C1368 0.951 . S
H1351 C1370 0.951 . S
H1352 C1372 0.950 . S
H1353 C1373 0.950 . S
H1354 C1375 0.950 . S
H1355 C1378 0.950 . S
H1356 C1379 0.950 . S
H1357 C1381 0.950 . S
H1358 C1382 0.950 . S
H1359 C1383 0.951 . S
H1360 C1385 0.951 . S
H1361 C1387 0.950 . S
H1362 C1388 0.950 . S
H1363 C1390 0.950 . S
H1364 C1393 0.950 . S
H1365 C1394 0.950 . S
H1366 C1396 0.950 . S
H1367 C1397 0.950 1_465 S
C1368 H1350 0.951 . S
C1368 C1369 1.366 1_655 S
C1368 C1370 1.388 . S
C1369 C1368 1.366 1_455 S
C1369 C1373 1.385 . S
C1370 H1351 0.951 . S
C1370 C1368 1.388 . S
C1370 C1371 1.366 . S
C1371 C1370 1.366 . S
C1371 C1372 1.414 1_655 S
C1371 C1374 1.499 . S
C1372 H1352 0.950 . S
C1372 C1371 1.414 1_455 S
C1372 C1373 1.374 . S
C1373 H1353 0.950 . S
C1373 C1369 1.385 . S
C1373 C1372 1.374 . S
C1374 C1371 1.499 . S
C1374 C1375 1.373 . S
C1374 C1376 1.389 . S
C1375 H1354 0.950 . S
C1375 C1374 1.373 . S
C1375 C1391 1.377 . S
C1376 C1374 1.389 . S
C1376 C1377 1.524 . S
C1376 C1390 1.377 . S
C1377 C1376 1.524 . S
C1377 C1378 1.397 . S
C1377 C1382 1.363 . S
C1378 H1355 0.950 . S
C1378 C1377 1.397 . S
C1378 C1379 1.334 . S
C1379 H1356 0.950 . S
C1379 C1378 1.334 . S
C1379 C1380 1.287 . S
C1380 C1379 1.287 . S
C1380 C1381 1.524 . S
C1380 H1399 0.913 . S
C1381 H1357 0.950 . S
C1381 C1380 1.524 . S
C1381 C1382 1.415 . S
C1382 H1358 0.950 . S
C1382 C1377 1.363 . S
C1382 C1381 1.415 . S
C1383 H1359 0.951 . S
C1383 C1384 1.366 . S
C1383 C1385 1.388 . S
C1384 C1383 1.366 . S
C1384 C1388 1.385 . S
C1385 H1360 0.951 . S
C1385 C1383 1.388 . S
C1385 C1386 1.366 . S
C1386 C1385 1.366 . S
C1386 C1387 1.414 . S
C1386 C1389 1.499 . S
C1387 H1361 0.950 . S
C1387 C1386 1.414 . S
C1387 C1388 1.374 . S
C1388 H1362 0.950 . S
C1388 C1384 1.385 . S
C1388 C1387 1.374 . S
C1389 C1386 1.499 . S
C1389 C1390 1.373 . S
C1389 C1391 1.389 . S
C1390 H1363 0.950 . S
C1390 C1376 1.377 . S
C1390 C1389 1.373 . S
C1391 C1375 1.377 . S
C1391 C1389 1.389 . S
C1391 C1392 1.524 1_565 S
C1392 C1391 1.524 1_545 S
C1392 C1393 1.397 . S
C1392 C1397 1.363 . S
C1393 H1364 0.950 . S
C1393 C1392 1.397 . S
C1393 C1394 1.334 . S
C1394 H1365 0.950 . S
C1394 C1393 1.334 . S
C1394 C1395 1.287 . S
C1395 C1394 1.287 . S
C1395 C1396 1.524 1_655 S
C1395 H1398 0.999 . S
C1396 H1366 0.950 . S
C1396 C1395 1.524 1_455 S
C1396 C1397 1.415 1_455 S
C1397 H1367 0.950 1_645 S
C1397 C1392 1.363 . S
C1397 C1396 1.415 1_655 S
H1398 C1395 0.999 . S
H1399 C1380 0.913 . S
H1400 C1418 0.951 . S
H1401 C1420 0.951 . S
H1402 C1422 0.950 . S
H1403 C1423 0.950 . S
H1404 C1425 0.950 . S
H1405 C1428 0.950 . S
H1406 C1429 0.950 . S
H1407 C1431 0.950 . S
H1408 C1432 0.950 . S
H1409 C1433 0.951 . S
H1410 C1435 0.951 . S
H1411 C1437 0.950 . S
H1412 C1438 0.950 . S
H1413 C1440 0.950 . S
H1414 C1443 0.950 . S
H1415 C1444 0.950 . S
H1416 C1446 0.950 . S
H1417 C1447 0.950 . S
C1418 H1400 0.951 . S
C1418 C1419 1.366 . S
C1418 C1420 1.388 . S
C1419 C1418 1.366 . S
C1419 C1423 1.385 . S
C1420 H1401 0.951 . S
C1420 C1418 1.388 . S
C1420 C1421 1.366 . S
C1421 C1420 1.366 . S
C1421 C1422 1.414 . S
C1421 C1424 1.499 . S
C1422 H1402 0.950 . S
C1422 C1421 1.414 . S
C1422 C1423 1.374 . S
C1423 H1403 0.950 . S
C1423 C1419 1.385 . S
C1423 C1422 1.374 . S
C1424 C1421 1.499 . S
C1424 C1425 1.373 . S
C1424 C1426 1.389 . S
C1425 H1404 0.950 . S
C1425 C1424 1.373 . S
C1425 C1441 1.377 . S
C1426 C1424 1.389 . S
C1426 C1427 1.524 . S
C1426 C1440 1.377 . S
C1427 C1426 1.524 . S
C1427 C1428 1.397 . S
C1427 C1432 1.363 . S
C1428 H1405 0.950 . S
C1428 C1427 1.397 . S
C1428 C1429 1.334 . S
C1429 H1406 0.950 . S
C1429 C1428 1.334 . S
C1429 C1430 1.287 . S
C1430 C1429 1.287 . S
C1430 C1431 1.524 . S
C1430 H1449 0.913 . S
C1431 H1407 0.950 . S
C1431 C1430 1.524 . S
C1431 C1432 1.415 . S
C1432 H1408 0.950 . S
C1432 C1427 1.363 . S
C1432 C1431 1.415 . S
C1433 H1409 0.951 . S
C1433 C1434 1.366 . S
C1433 C1435 1.388 . S
C1434 C1433 1.366 . S
C1434 C1438 1.385 . S
C1435 H1410 0.951 . S
C1435 C1433 1.388 . S
C1435 C1436 1.366 . S
C1436 C1435 1.366 . S
C1436 C1437 1.414 . S
C1436 C1439 1.499 . S
C1437 H1411 0.950 . S
C1437 C1436 1.414 . S
C1437 C1438 1.374 . S
C1438 H1412 0.950 . S
C1438 C1434 1.385 . S
C1438 C1437 1.374 . S
C1439 C1436 1.499 . S
C1439 C1440 1.373 . S
C1439 C1441 1.389 . S
C1440 H1413 0.950 . S
C1440 C1426 1.377 . S
C1440 C1439 1.373 . S
C1441 C1425 1.377 . S
C1441 C1439 1.389 . S
C1441 C1442 1.524 . S
C1442 C1441 1.524 . S
C1442 C1443 1.397 . S
C1442 C1447 1.363 . S
C1443 H1414 0.950 . S
C1443 C1442 1.397 . S
C1443 C1444 1.334 . S
C1444 H1415 0.950 . S
C1444 C1443 1.334 . S
C1444 C1445 1.287 . S
C1445 C1444 1.287 . S
C1445 C1446 1.524 . S
C1445 H1448 0.999 . S
C1446 H1416 0.950 . S
C1446 C1445 1.524 . S
C1446 C1447 1.415 . S
C1447 H1417 0.950 . S
C1447 C1442 1.363 . S
C1447 C1446 1.415 . S
H1448 C1445 0.999 . S
H1449 C1430 0.913 . S
H1450 C1468 0.951 . S
H1451 C1470 0.951 . S
H1452 C1472 0.950 . S
H1453 C1473 0.950 . S
H1454 C1475 0.950 . S
H1455 C1478 0.950 . S
H1456 C1479 0.950 . S
H1457 C1481 0.950 . S
H1458 C1482 0.950 . S
H1459 C1483 0.951 . S
H1460 C1485 0.951 . S
H1461 C1487 0.950 . S
H1462 C1488 0.950 . S
H1463 C1490 0.950 . S
H1464 C1493 0.950 . S
H1465 C1494 0.950 . S
H1466 C1496 0.950 . S
H1467 C1497 0.950 . S
C1468 H1450 0.951 . S
C1468 C1469 1.366 . S
C1468 C1470 1.388 . S
C1469 C1468 1.366 . S
C1469 C1473 1.385 . S
C1470 H1451 0.951 . S
C1470 C1468 1.388 . S
C1470 C1471 1.366 . S
C1471 C1470 1.366 . S
C1471 C1472 1.414 . S
C1471 C1474 1.499 . S
C1472 H1452 0.950 . S
C1472 C1471 1.414 . S
C1472 C1473 1.374 . S
C1473 H1453 0.950 . S
C1473 C1469 1.385 . S
C1473 C1472 1.374 . S
C1474 C1471 1.499 . S
C1474 C1475 1.373 . S
C1474 C1476 1.389 . S
C1475 H1454 0.950 . S
C1475 C1474 1.373 . S
C1475 C1491 1.377 . S
C1476 C1474 1.389 . S
C1476 C1477 1.524 . S
C1476 C1490 1.377 . S
C1477 C1476 1.524 . S
C1477 C1478 1.397 . S
C1477 C1482 1.363 . S
C1478 H1455 0.950 . S
C1478 C1477 1.397 . S
C1478 C1479 1.334 . S
C1479 H1456 0.950 . S
C1479 C1478 1.334 . S
C1479 C1480 1.287 . S
C1480 C1479 1.287 . S
C1480 C1481 1.524 . S
C1480 H1499 0.913 . S
C1481 H1457 0.950 . S
C1481 C1480 1.524 . S
C1481 C1482 1.415 . S
C1482 H1458 0.950 . S
C1482 C1477 1.363 . S
C1482 C1481 1.415 . S
C1483 H1459 0.951 . S
C1483 C1484 1.366 . S
C1483 C1485 1.388 . S
C1484 C1483 1.366 . S
C1484 C1488 1.385 . S
C1485 H1460 0.951 . S
C1485 C1483 1.388 . S
C1485 C1486 1.366 . S
C1486 C1485 1.366 . S
C1486 C1487 1.414 . S
C1486 C1489 1.499 . S
C1487 H1461 0.950 . S
C1487 C1486 1.414 . S
C1487 C1488 1.374 . S
C1488 H1462 0.950 . S
C1488 C1484 1.385 . S
C1488 C1487 1.374 . S
C1489 C1486 1.499 . S
C1489 C1490 1.373 . S
C1489 C1491 1.389 . S
C1490 H1463 0.950 . S
C1490 C1476 1.377 . S
C1490 C1489 1.373 . S
C1491 C1475 1.377 . S
C1491 C1489 1.389 . S
C1491 C1492 1.524 . S
C1492 C1491 1.524 . S
C1492 C1493 1.397 . S
C1492 C1497 1.363 . S
C1493 H1464 0.950 . S
C1493 C1492 1.397 . S
C1493 C1494 1.334 . S
C1494 H1465 0.950 . S
C1494 C1493 1.334 . S
C1494 C1495 1.287 . S
C1495 C1494 1.287 . S
C1495 C1496 1.524 . S
C1495 H1498 0.999 . S
C1496 H1466 0.950 . S
C1496 C1495 1.524 . S
C1496 C1497 1.415 . S
C1497 H1467 0.950 . S
C1497 C1492 1.363 . S
C1497 C1496 1.415 . S
H1498 C1495 0.999 . S
H1499 C1480 0.913 . S
H1500 C1518 0.951 . S
H1501 C1520 0.951 . S
H1502 C1522 0.950 . S
H1503 C1523 0.950 . S
H1504 C1525 0.950 . S
H1505 C1528 0.950 . S
H1506 C1529 0.950 . S
H1507 C1531 0.950 . S
H1508 C1532 0.950 . S
H1509 C1533 0.951 . S
H1510 C1535 0.951 . S
H1511 C1537 0.950 . S
H1512 C1538 0.950 . S
H1513 C1540 0.950 . S
H1514 C1543 0.950 . S
H1515 C1544 0.950 . S
H1516 C1546 0.950 . S
H1517 C1547 0.950 . S
C1518 H1500 0.951 . S
C1518 C1519 1.366 . S
C1518 C1520 1.388 . S
C1519 C1518 1.366 . S
C1519 C1523 1.385 . S
C1520 H1501 0.951 . S
C1520 C1518 1.388 . S
C1520 C1521 1.366 . S
C1521 C1520 1.366 . S
C1521 C1522 1.414 . S
C1521 C1524 1.499 . S
C1522 H1502 0.950 . S
C1522 C1521 1.414 . S
C1522 C1523 1.374 . S
C1523 H1503 0.950 . S
C1523 C1519 1.385 . S
C1523 C1522 1.374 . S
C1524 C1521 1.499 . S
C1524 C1525 1.373 . S
C1524 C1526 1.389 . S
C1525 H1504 0.950 . S
C1525 C1524 1.373 . S
C1525 C1541 1.377 . S
C1526 C1524 1.389 . S
C1526 C1527 1.524 . S
C1526 C1540 1.377 . S
C1527 C1526 1.524 . S
C1527 C1528 1.397 . S
C1527 C1532 1.363 . S
C1528 H1505 0.950 . S
C1528 C1527 1.397 . S
C1528 C1529 1.334 . S
C1529 H1506 0.950 . S
C1529 C1528 1.334 . S
C1529 C1530 1.287 . S
C1530 C1529 1.287 . S
C1530 C1531 1.524 . S
C1530 H1549 0.913 . S
C1531 H1507 0.950 . S
C1531 C1530 1.524 . S
C1531 C1532 1.415 . S
C1532 H1508 0.950 . S
C1532 C1527 1.363 . S
C1532 C1531 1.415 . S
C1533 H1509 0.951 . S
C1533 C1534 1.366 . S
C1533 C1535 1.388 . S
C1534 C1533 1.366 . S
C1534 C1538 1.385 . S
C1535 H1510 0.951 . S
C1535 C1533 1.388 . S
C1535 C1536 1.366 . S
C1536 C1535 1.366 . S
C1536 C1537 1.414 . S
C1536 C1539 1.499 . S
C1537 H1511 0.950 . S
C1537 C1536 1.414 . S
C1537 C1538 1.374 . S
C1538 H1512 0.950 . S
C1538 C1534 1.385 . S
C1538 C1537 1.374 . S
C1539 C1536 1.499 . S
C1539 C1540 1.373 . S
C1539 C1541 1.389 . S
C1540 H1513 0.950 . S
C1540 C1526 1.377 . S
C1540 C1539 1.373 . S
C1541 C1525 1.377 . S
C1541 C1539 1.389 . S
C1541 C1542 1.524 . S
C1542 C1541 1.524 . S
C1542 C1543 1.397 . S
C1542 C1547 1.363 . S
C1543 H1514 0.950 . S
C1543 C1542 1.397 . S
C1543 C1544 1.334 . S
C1544 H1515 0.950 . S
C1544 C1543 1.334 . S
C1544 C1545 1.287 . S
C1545 C1544 1.287 . S
C1545 C1546 1.524 . S
C1545 H1548 0.999 . S
C1546 H1516 0.950 . S
C1546 C1545 1.524 . S
C1546 C1547 1.415 . S
C1547 H1517 0.950 . S
C1547 C1542 1.363 . S
C1547 C1546 1.415 . S
H1548 C1545 0.999 . S
H1549 C1530 0.913 . S
H1550 C1568 0.951 . S
H1551 C1570 0.951 . S
H1552 C1572 0.950 . S
H1553 C1573 0.950 . S
H1554 C1575 0.950 . S
H1555 C1578 0.927 1_545 S
H1556 C1579 0.950 . S
H1557 C1581 0.950 . S
H1558 C1582 0.950 . S
H1559 C1583 0.951 1_545 S
H1560 C1585 0.944 1_545 S
H1561 C1587 0.950 . S
H1562 C1588 0.950 . S
H1563 C1590 0.950 . S
H1564 C1593 0.950 . S
H1565 C1594 0.950 . S
H1566 C1596 0.950 . S
H1567 C1597 0.950 . S
C1568 H1550 0.951 . S
C1568 C1569 1.366 . S
C1568 C1570 1.388 . S
C1569 C1568 1.366 . S
C1569 C1573 1.385 . S
C1570 H1551 0.951 . S
C1570 C1568 1.388 . S
C1570 C1571 1.366 . S
C1571 C1570 1.366 . S
C1571 C1572 1.414 . S
C1571 C1574 1.499 . S
C1572 H1552 0.950 . S
C1572 C1571 1.414 . S
C1572 C1573 1.374 . S
C1573 H1553 0.950 . S
C1573 C1569 1.385 . S
C1573 C1572 1.374 . S
C1574 C1571 1.499 . S
C1574 C1575 1.373 . S
C1574 C1576 1.389 . S
C1575 H1554 0.950 . S
C1575 C1574 1.373 . S
C1575 C1591 1.377 . S
C1576 C1574 1.389 . S
C1576 C1577 1.524 . S
C1576 C1590 1.377 . S
C1577 C1576 1.524 . S
C1577 C1578 1.433 . S
C1577 C1582 1.363 . S
C1578 H1555 0.927 1_565 S
C1578 C1577 1.433 . S
C1578 C1579 1.321 1_565 S
C1579 H1556 0.950 . S
C1579 C1578 1.321 1_545 S
C1579 C1580 1.287 1_545 S
C1580 C1579 1.287 1_565 S
C1580 C1581 1.524 . S
C1580 H1599 0.921 . S
C1581 H1557 0.950 . S
C1581 C1580 1.524 . S
C1581 C1582 1.415 . S
C1582 H1558 0.950 . S
C1582 C1577 1.363 . S
C1582 C1581 1.415 . S
C1583 H1559 0.951 1_565 S
C1583 C1584 1.366 . S
C1583 C1585 1.388 . S
C1584 C1583 1.366 . S
C1584 C1588 1.385 . S
C1585 H1560 0.944 1_565 S
C1585 C1583 1.388 . S
C1585 C1586 1.366 . S
C1586 C1585 1.366 . S
C1586 C1587 1.414 . S
C1586 C1589 1.499 . S
C1587 H1561 0.950 . S
C1587 C1586 1.414 . S
C1587 C1588 1.374 . S
C1588 H1562 0.950 . S
C1588 C1584 1.385 . S
C1588 C1587 1.374 . S
C1589 C1586 1.499 . S
C1589 C1590 1.373 . S
C1589 C1591 1.389 . S
C1590 H1563 0.950 . S
C1590 C1576 1.377 . S
C1590 C1589 1.373 . S
C1591 C1575 1.377 . S
C1591 C1589 1.389 . S
C1591 C1592 1.524 . S
C1592 C1591 1.524 . S
C1592 C1593 1.397 . S
C1592 C1597 1.363 . S
C1593 H1564 0.950 . S
C1593 C1592 1.397 . S
C1593 C1594 1.334 . S
C1594 H1565 0.950 . S
C1594 C1593 1.334 . S
C1594 C1595 1.287 . S
C1595 C1594 1.287 . S
C1595 C1596 1.524 . S
C1595 H1598 0.999 . S
C1596 H1566 0.950 . S
C1596 C1595 1.524 . S
C1596 C1597 1.415 . S
C1597 H1567 0.950 . S
C1597 C1592 1.363 . S
C1597 C1596 1.415 . S
H1598 C1595 0.999 . S
H1599 C1580 0.921 . S
H1600 C1618 0.951 . S
H1601 C1620 0.951 . S
H1602 C1622 0.950 . S
H1603 C1623 0.950 . S
H1604 C1625 0.950 . S
H1605 C1628 0.950 . S
H1606 C1629 0.950 . S
H1607 C1631 0.950 . S
H1608 C1632 0.950 . S
H1609 C1633 0.951 . S
H1610 C1635 0.951 . S
H1611 C1637 0.950 . S
H1612 C1638 0.950 . S
H1613 C1640 0.950 . S
H1614 C1643 0.950 . S
H1615 C1644 0.950 . S
H1616 C1646 0.950 . S
H1617 C1647 0.950 . S
C1618 H1600 0.951 . S
C1618 C1619 1.366 . S
C1618 C1620 1.388 . S
C1619 C1618 1.366 . S
C1619 C1623 1.385 . S
C1620 H1601 0.951 . S
C1620 C1618 1.388 . S
C1620 C1621 1.366 . S
C1621 C1620 1.366 . S
C1621 C1622 1.414 . S
C1621 C1624 1.499 . S
C1622 H1602 0.950 . S
C1622 C1621 1.414 . S
C1622 C1623 1.374 . S
C1623 H1603 0.950 . S
C1623 C1619 1.385 . S
C1623 C1622 1.374 . S
C1624 C1621 1.499 . S
C1624 C1625 1.373 . S
C1624 C1626 1.389 . S
C1625 H1604 0.950 . S
C1625 C1624 1.373 . S
C1625 C1641 1.377 . S
C1626 C1624 1.389 . S
C1626 C1627 1.524 . S
C1626 C1640 1.377 . S
C1627 C1626 1.524 . S
C1627 C1628 1.397 . S
C1627 C1632 1.363 . S
C1628 H1605 0.950 . S
C1628 C1627 1.397 . S
C1628 C1629 1.334 . S
C1629 H1606 0.950 . S
C1629 C1628 1.334 . S
C1629 C1630 1.287 . S
C1630 C1629 1.287 . S
C1630 C1631 1.524 . S
C1630 H1649 0.913 . S
C1631 H1607 0.950 . S
C1631 C1630 1.524 . S
C1631 C1632 1.415 . S
C1632 H1608 0.950 . S
C1632 C1627 1.363 . S
C1632 C1631 1.415 . S
C1633 H1609 0.951 . S
C1633 C1634 1.366 . S
C1633 C1635 1.388 . S
C1634 C1633 1.366 . S
C1634 C1638 1.385 . S
C1635 H1610 0.951 . S
C1635 C1633 1.388 . S
C1635 C1636 1.366 . S
C1636 C1635 1.366 . S
C1636 C1637 1.414 . S
C1636 C1639 1.499 . S
C1637 H1611 0.950 . S
C1637 C1636 1.414 . S
C1637 C1638 1.374 . S
C1638 H1612 0.950 . S
C1638 C1634 1.385 . S
C1638 C1637 1.374 . S
C1639 C1636 1.499 . S
C1639 C1640 1.373 . S
C1639 C1641 1.389 . S
C1640 H1613 0.950 . S
C1640 C1626 1.377 . S
C1640 C1639 1.373 . S
C1641 C1625 1.377 . S
C1641 C1639 1.389 . S
C1641 C1642 1.524 . S
C1642 C1641 1.524 . S
C1642 C1643 1.397 . S
C1642 C1647 1.363 . S
C1643 H1614 0.950 . S
C1643 C1642 1.397 . S
C1643 C1644 1.334 . S
C1644 H1615 0.950 . S
C1644 C1643 1.334 . S
C1644 C1645 1.287 . S
C1645 C1644 1.287 . S
C1645 C1646 1.524 . S
C1645 H1648 0.999 . S
C1646 H1616 0.950 . S
C1646 C1645 1.524 . S
C1646 C1647 1.415 . S
C1647 H1617 0.950 . S
C1647 C1642 1.363 . S
C1647 C1646 1.415 . S
H1648 C1645 0.999 . S
H1649 C1630 0.913 . S
H1650 C1668 0.951 . S
H1651 C1670 0.951 . S
H1652 C1672 0.950 . S
H1653 C1673 0.950 . S
H1654 C1675 0.950 . S
H1655 C1678 0.950 . S
H1656 C1679 0.950 . S
H1657 C1681 0.950 . S
H1658 C1682 0.950 . S
H1659 C1683 0.951 . S
H1660 C1685 0.951 . S
H1661 C1687 0.950 . S
H1662 C1688 0.950 . S
H1663 C1690 0.950 . S
H1664 C1693 0.950 . S
H1665 C1694 0.950 . S
H1666 C1696 0.950 . S
H1667 C1697 0.950 . S
C1668 H1650 0.951 . S
C1668 C1669 1.366 . S
C1668 C1670 1.388 . S
C1669 C1668 1.366 . S
C1669 C1673 1.385 . S
C1670 H1651 0.951 . S
C1670 C1668 1.388 . S
C1670 C1671 1.366 . S
C1671 C1670 1.366 . S
C1671 C1672 1.414 . S
C1671 C1674 1.499 . S
C1672 H1652 0.950 . S
C1672 C1671 1.414 . S
C1672 C1673 1.374 . S
C1673 H1653 0.950 . S
C1673 C1669 1.385 . S
C1673 C1672 1.374 . S
C1674 C1671 1.499 . S
C1674 C1675 1.373 . S
C1674 C1676 1.389 . S
C1675 H1654 0.950 . S
C1675 C1674 1.373 . S
C1675 C1691 1.377 . S
C1676 C1674 1.389 . S
C1676 C1677 1.524 . S
C1676 C1690 1.377 . S
C1677 C1676 1.524 . S
C1677 C1678 1.397 . S
C1677 C1682 1.363 . S
C1678 H1655 0.950 . S
C1678 C1677 1.397 . S
C1678 C1679 1.334 . S
C1679 H1656 0.950 . S
C1679 C1678 1.334 . S
C1679 C1680 1.287 . S
C1680 C1679 1.287 . S
C1680 C1681 1.524 . S
C1680 H1699 0.913 . S
C1681 H1657 0.950 . S
C1681 C1680 1.524 . S
C1681 C1682 1.415 . S
C1682 H1658 0.950 . S
C1682 C1677 1.363 . S
C1682 C1681 1.415 . S
C1683 H1659 0.951 . S
C1683 C1684 1.366 . S
C1683 C1685 1.388 . S
C1684 C1683 1.366 . S
C1684 C1688 1.385 . S
C1685 H1660 0.951 . S
C1685 C1683 1.388 . S
C1685 C1686 1.366 . S
C1686 C1685 1.366 . S
C1686 C1687 1.414 . S
C1686 C1689 1.499 . S
C1687 H1661 0.950 . S
C1687 C1686 1.414 . S
C1687 C1688 1.374 . S
C1688 H1662 0.950 . S
C1688 C1684 1.385 . S
C1688 C1687 1.374 . S
C1689 C1686 1.499 . S
C1689 C1690 1.373 . S
C1689 C1691 1.389 . S
C1690 H1663 0.950 . S
C1690 C1676 1.377 . S
C1690 C1689 1.373 . S
C1691 C1675 1.377 . S
C1691 C1689 1.389 . S
C1691 C1692 1.524 . S
C1692 C1691 1.524 . S
C1692 C1693 1.397 . S
C1692 C1697 1.363 . S
C1693 H1664 0.950 . S
C1693 C1692 1.397 . S
C1693 C1694 1.334 . S
C1694 H1665 0.950 . S
C1694 C1693 1.334 . S
C1694 C1695 1.287 . S
C1695 C1694 1.287 . S
C1695 C1696 1.524 . S
C1695 H1698 0.999 . S
C1696 H1666 0.950 . S
C1696 C1695 1.524 . S
C1696 C1697 1.415 . S
C1697 H1667 0.950 . S
C1697 C1692 1.363 . S
C1697 C1696 1.415 . S
H1698 C1695 0.999 . S
H1699 C1680 0.913 . S
H1700 C1718 0.951 . S
H1701 C1720 0.951 . S
H1702 C1722 0.950 . S
H1703 C1723 0.950 . S
H1704 C1725 0.950 . S
H1705 C1728 0.950 . S
H1706 C1729 0.950 . S
H1707 C1731 0.950 . S
H1708 C1732 0.950 . S
H1709 C1733 0.951 . S
H1710 C1735 0.951 . S
H1711 C1737 0.950 . S
H1712 C1738 0.950 . S
H1713 C1740 0.950 . S
H1714 C1743 0.950 . S
H1715 C1744 0.950 . S
H1716 C1746 0.950 . S
H1717 C1747 0.950 . S
C1718 H1700 0.951 . S
C1718 C1719 1.366 . S
C1718 C1720 1.388 . S
C1719 C1718 1.366 . S
C1719 C1723 1.385 . S
C1720 H1701 0.951 . S
C1720 C1718 1.388 . S
C1720 C1721 1.366 . S
C1721 C1720 1.366 . S
C1721 C1722 1.414 . S
C1721 C1724 1.499 . S
C1722 H1702 0.950 . S
C1722 C1721 1.414 . S
C1722 C1723 1.374 . S
C1723 H1703 0.950 . S
C1723 C1719 1.385 . S
C1723 C1722 1.374 . S
C1724 C1721 1.499 . S
C1724 C1725 1.373 . S
C1724 C1726 1.389 . S
C1725 H1704 0.950 . S
C1725 C1724 1.373 . S
C1725 C1741 1.377 . S
C1726 C1724 1.389 . S
C1726 C1727 1.524 . S
C1726 C1740 1.377 . S
C1727 C1726 1.524 . S
C1727 C1728 1.397 . S
C1727 C1732 1.363 . S
C1728 H1705 0.950 . S
C1728 C1727 1.397 . S
C1728 C1729 1.334 . S
C1729 H1706 0.950 . S
C1729 C1728 1.334 . S
C1729 C1730 1.287 . S
C1730 C1729 1.287 . S
C1730 C1731 1.524 . S
C1730 H1749 0.913 . S
C1731 H1707 0.950 . S
C1731 C1730 1.524 . S
C1731 C1732 1.415 . S
C1732 H1708 0.950 . S
C1732 C1727 1.363 . S
C1732 C1731 1.415 . S
C1733 H1709 0.951 . S
C1733 C1734 1.366 . S
C1733 C1735 1.388 . S
C1734 C1733 1.366 . S
C1734 C1738 1.385 . S
C1735 H1710 0.951 . S
C1735 C1733 1.388 . S
C1735 C1736 1.366 . S
C1736 C1735 1.366 . S
C1736 C1737 1.414 . S
C1736 C1739 1.499 . S
C1737 H1711 0.950 . S
C1737 C1736 1.414 . S
C1737 C1738 1.374 . S
C1738 H1712 0.950 . S
C1738 C1734 1.385 . S
C1738 C1737 1.374 . S
C1739 C1736 1.499 . S
C1739 C1740 1.373 . S
C1739 C1741 1.389 . S
C1740 H1713 0.950 . S
C1740 C1726 1.377 . S
C1740 C1739 1.373 . S
C1741 C1725 1.377 . S
C1741 C1739 1.389 . S
C1741 C1742 1.524 . S
C1742 C1741 1.524 . S
C1742 C1743 1.397 . S
C1742 C1747 1.363 . S
C1743 H1714 0.950 . S
C1743 C1742 1.397 . S
C1743 C1744 1.334 . S
C1744 H1715 0.950 . S
C1744 C1743 1.334 . S
C1744 C1745 1.287 . S
C1745 C1744 1.287 . S
C1745 C1746 1.524 . S
C1745 H1748 0.999 . S
C1746 H1716 0.950 . S
C1746 C1745 1.524 . S
C1746 C1747 1.415 . S
C1747 H1717 0.950 . S
C1747 C1742 1.363 . S
C1747 C1746 1.415 . S
H1748 C1745 0.999 . S
H1749 C1730 0.913 . S
H1750 C1768 0.951 . S
H1751 C1770 0.951 . S
H1752 C1772 0.950 . S
H1753 C1773 0.950 . S
H1754 C1775 0.950 . S
H1755 C1778 0.950 . S
H1756 C1779 0.950 . S
H1757 C1781 0.950 . S
H1758 C1782 0.950 . S
H1759 C1783 0.951 . S
H1760 C1785 0.951 . S
H1761 C1787 0.950 . S
H1762 C1788 0.950 . S
H1763 C1790 0.950 . S
H1764 C1793 0.950 . S
H1765 C1794 0.950 . S
H1766 C1796 0.950 . S
H1767 C1797 0.950 . S
C1768 H1750 0.951 . S
C1768 C1769 1.366 . S
C1768 C1770 1.388 . S
C1769 C1768 1.366 . S
C1769 C1773 1.385 . S
C1770 H1751 0.951 . S
C1770 C1768 1.388 . S
C1770 C1771 1.366 . S
C1771 C1770 1.366 . S
C1771 C1772 1.414 . S
C1771 C1774 1.499 . S
C1772 H1752 0.950 . S
C1772 C1771 1.414 . S
C1772 C1773 1.374 . S
C1773 H1753 0.950 . S
C1773 C1769 1.385 . S
C1773 C1772 1.374 . S
C1774 C1771 1.499 . S
C1774 C1775 1.373 . S
C1774 C1776 1.389 . S
C1775 H1754 0.950 . S
C1775 C1774 1.373 . S
C1775 C1791 1.377 . S
C1776 C1774 1.389 . S
C1776 C1777 1.524 . S
C1776 C1790 1.377 . S
C1777 C1776 1.524 . S
C1777 C1778 1.397 . S
C1777 C1782 1.363 . S
C1778 H1755 0.950 . S
C1778 C1777 1.397 . S
C1778 C1779 1.334 . S
C1779 H1756 0.950 . S
C1779 C1778 1.334 . S
C1779 C1780 1.287 . S
C1780 C1779 1.287 . S
C1780 C1781 1.524 . S
C1780 H1799 0.913 . S
C1781 H1757 0.950 . S
C1781 C1780 1.524 . S
C1781 C1782 1.415 . S
C1782 H1758 0.950 . S
C1782 C1777 1.363 . S
C1782 C1781 1.415 . S
C1783 H1759 0.951 . S
C1783 C1784 1.366 . S
C1783 C1785 1.388 . S
C1784 C1783 1.366 . S
C1784 C1788 1.385 . S
C1785 H1760 0.951 . S
C1785 C1783 1.388 . S
C1785 C1786 1.366 . S
C1786 C1785 1.366 . S
C1786 C1787 1.414 . S
C1786 C1789 1.499 . S
C1787 H1761 0.950 . S
C1787 C1786 1.414 . S
C1787 C1788 1.374 . S
C1788 H1762 0.950 . S
C1788 C1784 1.385 . S
C1788 C1787 1.374 . S
C1789 C1786 1.499 . S
C1789 C1790 1.373 . S
C1789 C1791 1.389 . S
C1790 H1763 0.950 . S
C1790 C1776 1.377 . S
C1790 C1789 1.373 . S
C1791 C1775 1.377 . S
C1791 C1789 1.389 . S
C1791 C1792 1.524 . S
C1792 C1791 1.524 . S
C1792 C1793 1.397 . S
C1792 C1797 1.363 . S
C1793 H1764 0.950 . S
C1793 C1792 1.397 . S
C1793 C1794 1.334 . S
C1794 H1765 0.950 . S
C1794 C1793 1.334 . S
C1794 C1795 1.287 . S
C1795 C1794 1.287 . S
C1795 C1796 1.524 . S
C1795 H1798 0.999 . S
C1796 H1766 0.950 . S
C1796 C1795 1.524 . S
C1796 C1797 1.415 . S
C1797 H1767 0.950 . S
C1797 C1792 1.363 . S
C1797 C1796 1.415 . S
H1798 C1795 0.999 . S
H1799 C1780 0.913 . S
H1800 C1818 0.951 . S
H1801 C1820 0.951 . S
H1802 C1822 0.950 . S
H1803 C1823 0.950 . S
H1804 C1825 0.950 . S
H1805 C1828 0.950 . S
H1806 C1829 0.950 . S
H1807 C1831 0.950 . S
H1808 C1832 0.950 . S
H1809 C1833 0.951 . S
H1810 C1835 0.951 . S
H1811 C1837 0.950 . S
H1812 C1838 0.950 . S
H1813 C1840 0.950 . S
H1814 C1843 0.950 . S
H1815 C1844 0.950 . S
H1816 C1846 0.950 . S
H1817 C1847 0.950 . S
C1818 H1800 0.951 . S
C1818 C1819 1.366 . S
C1818 C1820 1.388 . S
C1819 C1818 1.366 . S
C1819 C1823 1.385 . S
C1820 H1801 0.951 . S
C1820 C1818 1.388 . S
C1820 C1821 1.366 . S
C1821 C1820 1.366 . S
C1821 C1822 1.414 . S
C1821 C1824 1.499 . S
C1822 H1802 0.950 . S
C1822 C1821 1.414 . S
C1822 C1823 1.374 . S
C1823 H1803 0.950 . S
C1823 C1819 1.385 . S
C1823 C1822 1.374 . S
C1824 C1821 1.499 . S
C1824 C1825 1.373 . S
C1824 C1826 1.389 . S
C1825 H1804 0.950 . S
C1825 C1824 1.373 . S
C1825 C1841 1.377 . S
C1826 C1824 1.389 . S
C1826 C1827 1.524 . S
C1826 C1840 1.377 . S
C1827 C1826 1.524 . S
C1827 C1828 1.397 . S
C1827 C1832 1.363 . S
C1828 H1805 0.950 . S
C1828 C1827 1.397 . S
C1828 C1829 1.334 . S
C1829 H1806 0.950 . S
C1829 C1828 1.334 . S
C1829 C1830 1.287 . S
C1830 C1829 1.287 . S
C1830 C1831 1.524 . S
C1830 H1849 0.913 . S
C1831 H1807 0.950 . S
C1831 C1830 1.524 . S
C1831 C1832 1.415 . S
C1832 H1808 0.950 . S
C1832 C1827 1.363 . S
C1832 C1831 1.415 . S
C1833 H1809 0.951 . S
C1833 C1834 1.366 . S
C1833 C1835 1.388 . S
C1834 C1833 1.366 . S
C1834 C1838 1.385 . S
C1835 H1810 0.951 . S
C1835 C1833 1.388 . S
C1835 C1836 1.366 . S
C1836 C1835 1.366 . S
C1836 C1837 1.414 . S
C1836 C1839 1.499 . S
C1837 H1811 0.950 . S
C1837 C1836 1.414 . S
C1837 C1838 1.374 . S
C1838 H1812 0.950 . S
C1838 C1834 1.385 . S
C1838 C1837 1.374 . S
C1839 C1836 1.499 . S
C1839 C1840 1.373 . S
C1839 C1841 1.389 . S
C1840 H1813 0.950 . S
C1840 C1826 1.377 . S
C1840 C1839 1.373 . S
C1841 C1825 1.377 . S
C1841 C1839 1.389 . S
C1841 C1842 1.524 . S
C1842 C1841 1.524 . S
C1842 C1843 1.397 . S
C1842 C1847 1.363 . S
C1843 H1814 0.950 . S
C1843 C1842 1.397 . S
C1843 C1844 1.334 . S
C1844 H1815 0.950 . S
C1844 C1843 1.334 . S
C1844 C1845 1.287 . S
C1845 C1844 1.287 . S
C1845 C1846 1.524 . S
C1845 H1848 0.999 . S
C1846 H1816 0.950 . S
C1846 C1845 1.524 . S
C1846 C1847 1.415 . S
C1847 H1817 0.950 . S
C1847 C1842 1.363 . S
C1847 C1846 1.415 . S
H1848 C1845 0.999 . S
H1849 C1830 0.913 . S
H1850 C1868 0.951 . S
H1851 C1870 0.951 . S
H1852 C1872 0.950 . S
H1853 C1873 0.950 . S
H1854 C1875 0.950 . S
H1855 C1878 0.950 . S
H1856 C1879 0.950 . S
H1857 C1881 0.950 . S
H1858 C1882 0.950 . S
H1859 C1883 0.951 . S
H1860 C1885 0.951 . S
H1861 C1887 0.950 . S
H1862 C1888 0.950 . S
H1863 C1890 0.950 1_655 S
H1864 C1893 0.950 . S
H1865 C1894 0.950 . S
H1866 C1896 0.950 . S
H1867 C1897 0.950 . S
C1868 H1850 0.951 . S
C1868 C1869 1.366 . S
C1868 C1870 1.388 . S
C1869 C1868 1.366 . S
C1869 C1873 1.385 . S
C1870 H1851 0.951 . S
C1870 C1868 1.388 . S
C1870 C1871 1.366 . S
C1871 C1870 1.366 . S
C1871 C1872 1.414 . S
C1871 C1874 1.499 . S
C1872 H1852 0.950 . S
C1872 C1871 1.414 . S
C1872 C1873 1.374 . S
C1873 H1853 0.950 . S
C1873 C1869 1.385 . S
C1873 C1872 1.374 . S
C1874 C1871 1.499 . S
C1874 C1875 1.373 . S
C1874 C1876 1.389 . S
C1875 H1854 0.950 . S
C1875 C1874 1.373 . S
C1875 C1891 1.377 . S
C1876 C1874 1.389 . S
C1876 C1877 1.524 1_455 S
C1876 C1890 1.377 . S
C1877 C1876 1.524 1_655 S
C1877 C1878 1.397 . S
C1877 C1882 1.363 . S
C1878 H1855 0.950 . S
C1878 C1877 1.397 . S
C1878 C1879 1.334 . S
C1879 H1856 0.950 . S
C1879 C1878 1.334 . S
C1879 C1880 1.287 . S
C1880 C1879 1.287 . S
C1880 C1881 1.524 . S
C1880 H1899 0.913 . S
C1881 H1857 0.950 . S
C1881 C1880 1.524 . S
C1881 C1882 1.415 . S
C1882 H1858 0.950 . S
C1882 C1877 1.363 . S
C1882 C1881 1.415 . S
C1883 H1859 0.951 . S
C1883 C1884 1.366 . S
C1883 C1885 1.388 . S
C1884 C1883 1.366 . S
C1884 C1888 1.385 . S
C1885 H1860 0.951 . S
C1885 C1883 1.388 . S
C1885 C1886 1.366 . S
C1886 C1885 1.366 . S
C1886 C1887 1.414 . S
C1886 C1889 1.499 . S
C1887 H1861 0.950 . S
C1887 C1886 1.414 . S
C1887 C1888 1.374 . S
C1888 H1862 0.950 . S
C1888 C1884 1.385 . S
C1888 C1887 1.374 . S
C1889 C1886 1.499 . S
C1889 C1890 1.373 . S
C1889 C1891 1.389 . S
C1890 H1863 0.950 1_455 S
C1890 C1876 1.377 . S
C1890 C1889 1.373 . S
C1891 C1875 1.377 . S
C1891 C1889 1.389 . S
C1891 C1892 1.524 . S
C1892 C1891 1.524 . S
C1892 C1893 1.397 . S
C1892 C1897 1.363 . S
C1893 H1864 0.950 . S
C1893 C1892 1.397 . S
C1893 C1894 1.334 . S
C1894 H1865 0.950 . S
C1894 C1893 1.334 . S
C1894 C1895 1.287 . S
C1895 C1894 1.287 . S
C1895 C1896 1.524 . S
C1895 H1898 0.999 . S
C1896 H1866 0.950 . S
C1896 C1895 1.524 . S
C1896 C1897 1.415 . S
C1897 H1867 0.950 . S
C1897 C1892 1.363 . S
C1897 C1896 1.415 . S
H1898 C1895 0.999 . S
H1899 C1880 0.913 . S
H1900 C1918 0.951 . S
H1901 C1920 0.951 . S
H1902 C1922 0.950 . S
H1903 C1923 0.950 . S
H1904 C1925 0.950 . S
H1905 C1928 0.950 . S
H1906 C1929 0.950 . S
H1907 C1931 0.950 . S
H1908 C1932 0.950 . S
H1909 C1933 0.951 . S
H1910 C1935 0.951 . S
H1911 C1937 0.950 . S
H1912 C1938 0.950 . S
H1913 C1940 0.950 . S
H1914 C1943 0.950 . S
H1915 C1944 0.950 . S
H1916 C1946 0.950 . S
H1917 C1947 0.950 . S
C1918 H1900 0.951 . S
C1918 C1919 1.366 . S
C1918 C1920 1.388 . S
C1919 C1918 1.366 . S
C1919 C1923 1.385 . S
C1920 H1901 0.951 . S
C1920 C1918 1.388 . S
C1920 C1921 1.366 . S
C1921 C1920 1.366 . S
C1921 C1922 1.414 . S
C1921 C1924 1.499 . S
C1922 H1902 0.950 . S
C1922 C1921 1.414 . S
C1922 C1923 1.374 . S
C1923 H1903 0.950 . S
C1923 C1919 1.385 . S
C1923 C1922 1.374 . S
C1924 C1921 1.499 . S
C1924 C1925 1.373 . S
C1924 C1926 1.389 . S
C1925 H1904 0.950 . S
C1925 C1924 1.373 . S
C1925 C1941 1.377 . S
C1926 C1924 1.389 . S
C1926 C1927 1.524 . S
C1926 C1940 1.377 . S
C1927 C1926 1.524 . S
C1927 C1928 1.397 . S
C1927 C1932 1.363 . S
C1928 H1905 0.950 . S
C1928 C1927 1.397 . S
C1928 C1929 1.334 . S
C1929 H1906 0.950 . S
C1929 C1928 1.334 . S
C1929 C1930 1.287 . S
C1930 C1929 1.287 . S
C1930 C1931 1.524 . S
C1930 H1949 0.913 . S
C1931 H1907 0.950 . S
C1931 C1930 1.524 . S
C1931 C1932 1.415 . S
C1932 H1908 0.950 . S
C1932 C1927 1.363 . S
C1932 C1931 1.415 . S
C1933 H1909 0.951 . S
C1933 C1934 1.366 . S
C1933 C1935 1.388 . S
C1934 C1933 1.366 . S
C1934 C1938 1.385 . S
C1935 H1910 0.951 . S
C1935 C1933 1.388 . S
C1935 C1936 1.366 . S
C1936 C1935 1.366 . S
C1936 C1937 1.414 . S
C1936 C1939 1.499 . S
C1937 H1911 0.950 . S
C1937 C1936 1.414 . S
C1937 C1938 1.374 . S
C1938 H1912 0.950 . S
C1938 C1934 1.385 . S
C1938 C1937 1.374 . S
C1939 C1936 1.499 . S
C1939 C1940 1.373 . S
C1939 C1941 1.389 . S
C1940 H1913 0.950 . S
C1940 C1926 1.377 . S
C1940 C1939 1.373 . S
C1941 C1925 1.377 . S
C1941 C1939 1.389 . S
C1941 C1942 1.524 . S
C1942 C1941 1.524 . S
C1942 C1943 1.397 . S
C1942 C1947 1.363 . S
C1943 H1914 0.950 . S
C1943 C1942 1.397 . S
C1943 C1944 1.334 . S
C1944 H1915 0.950 . S
C1944 C1943 1.334 . S
C1944 C1945 1.287 . S
C1945 C1944 1.287 . S
C1945 C1946 1.524 . S
C1945 H1948 0.999 . S
C1946 H1916 0.950 . S
C1946 C1945 1.524 . S
C1946 C1947 1.415 . S
C1947 H1917 0.950 . S
C1947 C1942 1.363 . S
C1947 C1946 1.415 . S
H1948 C1945 0.999 . S
H1949 C1930 0.913 . S
H1950 C1968 0.951 . S
H1951 C1970 1.006 . S
H1952 C1972 0.950 . S
H1953 C1973 0.950 . S
H1954 C1975 0.950 . S
H1955 C1978 0.950 1_655 S
H1956 C1979 0.950 . S
H1957 C1981 0.950 . S
H1958 C1982 0.950 . S
H1959 C1983 0.951 . S
H1960 C1985 0.951 . S
H1961 C1987 0.910 1_455 S
H1962 C1988 1.010 . S
H1963 C1990 0.950 1_455 S
H1964 C1993 0.950 . S
H1965 C1994 0.950 . S
H1966 C1996 0.950 . S
H1967 C1997 0.950 . S
C1968 H1950 0.951 . S
C1968 C1969 1.366 . S
C1968 C1970 1.388 . S
C1969 C1968 1.366 . S
C1969 C1973 1.385 . S
C1970 H1951 1.006 . S
C1970 C1968 1.388 . S
C1970 C1971 1.366 . S
C1971 C1970 1.366 . S
C1971 C1972 1.414 . S
C1971 C1974 1.499 . S
C1972 H1952 0.950 . S
C1972 C1971 1.414 . S
C1972 C1973 1.374 . S
C1973 H1953 0.950 . S
C1973 C1969 1.385 . S
C1973 C1972 1.374 . S
C1974 C1971 1.499 . S
C1974 C1975 1.373 . S
C1974 C1976 1.389 . S
C1975 H1954 0.950 . S
C1975 C1974 1.373 . S
C1975 C1991 1.377 . S
C1976 C1974 1.389 . S
C1976 C1977 1.524 1_655 S
C1976 C1990 1.377 . S
C1977 C1976 1.524 1_455 S
C1977 C1978 1.397 . S
C1977 C1982 1.363 . S
C1978 H1955 0.950 1_455 S
C1978 C1977 1.397 . S
C1978 C1979 1.334 . S
C1979 H1956 0.950 . S
C1979 C1978 1.334 . S
C1979 C1980 1.287 . S
C1980 C1979 1.287 . S
C1980 C1981 1.524 . S
C1980 H1999 0.913 . S
C1981 H1957 0.950 . S
C1981 C1980 1.524 . S
C1981 C1982 1.415 . S
C1982 H1958 0.950 . S
C1982 C1977 1.363 . S
C1982 C1981 1.415 . S
C1983 H1959 0.951 . S
C1983 C1984 1.366 . S
C1983 C1985 1.388 . S
C1984 C1983 1.366 . S
C1984 C1988 1.334 1_655 S
C1985 H1960 0.951 . S
C1985 C1983 1.388 . S
C1985 C1986 1.366 . S
C1986 C1985 1.366 . S
C1986 C1987 1.461 . S
C1986 C1989 1.499 . S
C1987 H1961 0.910 1_655 S
C1987 C1986 1.461 . S
C1987 C1988 1.366 1_655 S
C1988 H1962 1.010 . S
C1988 C1984 1.334 1_455 S
C1988 C1987 1.366 1_455 S
C1989 C1986 1.499 . S
C1989 C1990 1.373 . S
C1989 C1991 1.389 . S
C1990 H1963 0.950 1_655 S
C1990 C1976 1.377 . S
C1990 C1989 1.373 . S
C1991 C1975 1.377 . S
C1991 C1989 1.389 . S
C1991 C1992 1.524 . S
C1992 C1991 1.524 . S
C1992 C1993 1.397 . S
C1992 C1997 1.363 . S
C1993 H1964 0.950 . S
C1993 C1992 1.397 . S
C1993 C1994 1.334 . S
C1994 H1965 0.950 . S
C1994 C1993 1.334 . S
C1994 C1995 1.287 . S
C1995 C1994 1.287 . S
C1995 C1996 1.524 . S
C1995 H1998 0.999 . S
C1996 H1966 0.950 . S
C1996 C1995 1.524 . S
C1996 C1997 1.415 . S
C1997 H1967 0.950 . S
C1997 C1992 1.363 . S
C1997 C1996 1.415 . S
H1998 C1995 0.999 . S
H1999 C1980 0.913 . S
H2000 C2018 0.951 . S
H2001 C2020 0.951 . S
H2002 C2022 0.950 . S
H2003 C2023 0.950 . S
H2004 C2025 0.950 . S
H2005 C2028 0.950 . S
H2006 C2029 0.950 . S
H2007 C2031 0.950 . S
H2008 C2032 0.950 . S
H2009 C2033 0.951 . S
H2010 C2035 0.951 . S
H2011 C2037 0.950 . S
H2012 C2038 0.950 . S
H2013 C2040 0.950 . S
H2014 C2043 0.950 . S
H2015 C2044 0.950 . S
H2016 C2046 0.950 . S
H2017 C2047 0.950 . S
C2018 H2000 0.951 . S
C2018 C2019 1.366 . S
C2018 C2020 1.388 . S
C2019 C2018 1.366 . S
C2019 C2023 1.385 . S
C2020 H2001 0.951 . S
C2020 C2018 1.388 . S
C2020 C2021 1.366 . S
C2021 C2020 1.366 . S
C2021 C2022 1.414 . S
C2021 C2024 1.499 . S
C2022 H2002 0.950 . S
C2022 C2021 1.414 . S
C2022 C2023 1.374 . S
C2023 H2003 0.950 . S
C2023 C2019 1.385 . S
C2023 C2022 1.374 . S
C2024 C2021 1.499 . S
C2024 C2025 1.373 . S
C2024 C2026 1.389 . S
C2025 H2004 0.950 . S
C2025 C2024 1.373 . S
C2025 C2041 1.377 . S
C2026 C2024 1.389 . S
C2026 C2027 1.524 . S
C2026 C2040 1.377 . S
C2027 C2026 1.524 . S
C2027 C2028 1.397 . S
C2027 C2032 1.363 . S
C2028 H2005 0.950 . S
C2028 C2027 1.397 . S
C2028 C2029 1.334 . S
C2029 H2006 0.950 . S
C2029 C2028 1.334 . S
C2029 C2030 1.287 . S
C2030 C2029 1.287 . S
C2030 C2031 1.524 . S
C2030 H2049 0.913 . S
C2031 H2007 0.950 . S
C2031 C2030 1.524 . S
C2031 C2032 1.415 . S
C2032 H2008 0.950 . S
C2032 C2027 1.363 . S
C2032 C2031 1.415 . S
C2033 H2009 0.951 . S
C2033 C2034 1.366 . S
C2033 C2035 1.388 . S
C2034 C2033 1.366 . S
C2034 C2038 1.385 . S
C2035 H2010 0.951 . S
C2035 C2033 1.388 . S
C2035 C2036 1.366 . S
C2036 C2035 1.366 . S
C2036 C2037 1.414 . S
C2036 C2039 1.499 . S
C2037 H2011 0.950 . S
C2037 C2036 1.414 . S
C2037 C2038 1.374 . S
C2038 H2012 0.950 . S
C2038 C2034 1.385 . S
C2038 C2037 1.374 . S
C2039 C2036 1.499 . S
C2039 C2040 1.373 . S
C2039 C2041 1.389 . S
C2040 H2013 0.950 . S
C2040 C2026 1.377 . S
C2040 C2039 1.373 . S
C2041 C2025 1.377 . S
C2041 C2039 1.389 . S
C2041 C2042 1.524 . S
C2042 C2041 1.524 . S
C2042 C2043 1.397 . S
C2042 C2047 1.363 . S
C2043 H2014 0.950 . S
C2043 C2042 1.397 . S
C2043 C2044 1.334 . S
C2044 H2015 0.950 . S
C2044 C2043 1.334 . S
C2044 C2045 1.287 . S
C2045 C2044 1.287 . S
C2045 C2046 1.524 . S
C2045 H2048 0.999 . S
C2046 H2016 0.950 . S
C2046 C2045 1.524 . S
C2046 C2047 1.415 . S
C2047 H2017 0.950 . S
C2047 C2042 1.363 . S
C2047 C2046 1.415 . S
H2048 C2045 0.999 . S
H2049 C2030 0.913 . S
H2050 C2068 0.951 . S
H2051 C2070 0.951 . S
H2052 C2072 0.950 . S
H2053 C2073 0.950 . S
H2054 C2075 0.950 . S
H2055 C2078 0.950 . S
H2056 C2079 0.950 . S
H2057 C2081 0.950 . S
H2058 C2082 0.950 . S
H2059 C2083 0.951 . S
H2060 C2085 0.951 . S
H2061 C2087 0.950 . S
H2062 C2088 0.950 . S
H2063 C2090 0.950 . S
H2064 C2093 0.950 . S
H2065 C2094 0.950 . S
H2066 C2096 0.950 . S
H2067 C2097 0.950 . S
C2068 H2050 0.951 . S
C2068 C2069 1.366 . S
C2068 C2070 1.388 . S
C2069 C2068 1.366 . S
C2069 C2073 1.385 . S
C2070 H2051 0.951 . S
C2070 C2068 1.388 . S
C2070 C2071 1.366 . S
C2071 C2070 1.366 . S
C2071 C2072 1.414 . S
C2071 C2074 1.499 . S
C2072 H2052 0.950 . S
C2072 C2071 1.414 . S
C2072 C2073 1.374 . S
C2073 H2053 0.950 . S
C2073 C2069 1.385 . S
C2073 C2072 1.374 . S
C2074 C2071 1.499 . S
C2074 C2075 1.373 . S
C2074 C2076 1.389 . S
C2075 H2054 0.950 . S
C2075 C2074 1.373 . S
C2075 C2091 1.377 . S
C2076 C2074 1.389 . S
C2076 C2077 1.524 . S
C2076 C2090 1.377 . S
C2077 C2076 1.524 . S
C2077 C2078 1.397 . S
C2077 C2082 1.363 . S
C2078 H2055 0.950 . S
C2078 C2077 1.397 . S
C2078 C2079 1.334 . S
C2079 H2056 0.950 . S
C2079 C2078 1.334 . S
C2079 C2080 1.287 . S
C2080 C2079 1.287 . S
C2080 C2081 1.524 . S
C2080 H2099 0.913 . S
C2081 H2057 0.950 . S
C2081 C2080 1.524 . S
C2081 C2082 1.415 . S
C2082 H2058 0.950 . S
C2082 C2077 1.363 . S
C2082 C2081 1.415 . S
C2083 H2059 0.951 . S
C2083 C2084 1.366 . S
C2083 C2085 1.388 . S
C2084 C2083 1.366 . S
C2084 C2088 1.385 . S
C2085 H2060 0.951 . S
C2085 C2083 1.388 . S
C2085 C2086 1.366 . S
C2086 C2085 1.366 . S
C2086 C2087 1.414 . S
C2086 C2089 1.499 . S
C2087 H2061 0.950 . S
C2087 C2086 1.414 . S
C2087 C2088 1.374 . S
C2088 H2062 0.950 . S
C2088 C2084 1.385 . S
C2088 C2087 1.374 . S
C2089 C2086 1.499 . S
C2089 C2090 1.373 . S
C2089 C2091 1.389 . S
C2090 H2063 0.950 . S
C2090 C2076 1.377 . S
C2090 C2089 1.373 . S
C2091 C2075 1.377 . S
C2091 C2089 1.389 . S
C2091 C2092 1.524 . S
C2092 C2091 1.524 . S
C2092 C2093 1.397 . S
C2092 C2097 1.363 . S
C2093 H2064 0.950 . S
C2093 C2092 1.397 . S
C2093 C2094 1.334 . S
C2094 H2065 0.950 . S
C2094 C2093 1.334 . S
C2094 C2095 1.287 . S
C2095 C2094 1.287 . S
C2095 C2096 1.524 . S
C2095 H2098 0.999 . S
C2096 H2066 0.950 . S
C2096 C2095 1.524 . S
C2096 C2097 1.415 . S
C2097 H2067 0.950 . S
C2097 C2092 1.363 . S
C2097 C2096 1.415 . S
H2098 C2095 0.999 . S
H2099 C2080 0.913 . S
H2100 C2118 0.951 . S
H2101 C2120 0.951 . S
H2102 C2122 0.950 1_554 S
H2103 C2123 0.950 . S
H2104 C2125 0.950 . S
H2105 C2128 0.950 . S
H2106 C2129 0.950 . S
H2107 C2131 0.950 . S
H2108 C2132 0.950 1_565 S
H2109 C2133 0.951 . S
H2110 C2135 0.964 . S
H2111 C2137 0.950 . S
H2112 C2138 0.950 . S
H2113 C2140 0.950 . S
H2114 C2143 0.950 . S
H2115 C2144 0.950 . S
H2116 C2146 0.950 . S
H2117 C2147 0.950 . S
C2118 H2100 0.951 . S
C2118 C2119 1.366 . S
C2118 C2120 1.388 1_545 S
C2119 C2118 1.366 . S
C2119 C2123 1.385 . S
C2120 H2101 0.951 . S
C2120 C2118 1.388 1_565 S
C2120 C2121 1.366 . S
C2121 C2120 1.366 . S
C2121 C2122 1.414 . S
C2121 C2124 1.499 . S
C2122 H2102 0.950 1_556 S
C2122 C2121 1.414 . S
C2122 C2123 1.374 1_565 S
C2123 H2103 0.950 . S
C2123 C2119 1.385 . S
C2123 C2122 1.374 1_545 S
C2124 C2121 1.499 . S
C2124 C2125 1.373 . S
C2124 C2126 1.389 . S
C2125 H2104 0.950 . S
C2125 C2124 1.373 . S
C2125 C2141 1.377 . S
C2126 C2124 1.389 . S
C2126 C2127 1.524 1_565 S
C2126 C2140 1.377 . S
C2127 C2126 1.524 1_545 S
C2127 C2128 1.397 . S
C2127 C2132 1.363 . S
C2128 H2105 0.950 . S
C2128 C2127 1.397 . S
C2128 C2129 1.334 . S
C2129 H2106 0.950 . S
C2129 C2128 1.334 . S
C2129 C2130 1.287 . S
C2130 C2129 1.287 . S
C2130 C2131 1.524 . S
C2130 H2149 0.913 . S
C2131 H2107 0.950 . S
C2131 C2130 1.524 . S
C2131 C2132 1.415 . S
C2132 H2108 0.950 1_545 S
C2132 C2127 1.363 . S
C2132 C2131 1.415 . S
C2133 H2109 0.951 . S
C2133 C2134 1.366 1_554 S
C2133 C2135 1.390 . S
C2134 C2133 1.366 1_556 S
C2134 C2138 1.385 . S
C2135 H2110 0.964 . S
C2135 C2133 1.390 . S
C2135 C2136 1.350 1_554 S
C2136 C2135 1.350 1_556 S
C2136 C2137 1.414 . S
C2136 C2139 1.499 . S
C2137 H2111 0.950 . S
C2137 C2136 1.414 . S
C2137 C2138 1.374 . S
C2138 H2112 0.950 . S
C2138 C2134 1.385 . S
C2138 C2137 1.374 . S
C2139 C2136 1.499 . S
C2139 C2140 1.373 . S
C2139 C2141 1.389 . S
C2140 H2113 0.950 . S
C2140 C2126 1.377 . S
C2140 C2139 1.373 . S
C2141 C2125 1.377 . S
C2141 C2139 1.389 . S
C2141 C2142 1.524 . S
C2142 C2141 1.524 . S
C2142 C2143 1.397 . S
C2142 C2147 1.363 1_556 S
C2143 H2114 0.950 . S
C2143 C2142 1.397 . S
C2143 C2144 1.334 . S
C2144 H2115 0.950 . S
C2144 C2143 1.334 . S
C2144 C2145 1.287 1_556 S
C2145 C2144 1.287 1_554 S
C2145 C2146 1.524 . S
C2145 H2148 0.999 . S
C2146 H2116 0.950 . S
C2146 C2145 1.524 . S
C2146 C2147 1.415 . S
C2147 H2117 0.950 . S
C2147 C2142 1.363 1_554 S
C2147 C2146 1.415 . S
H2148 C2145 0.999 . S
H2149 C2130 0.913 . S
H2150 C2168 0.951 . S
H2151 C2170 0.951 . S
H2152 C2172 0.950 . S
H2153 C2173 0.950 . S
H2154 C2175 0.950 . S
H2155 C2178 0.950 . S
H2156 C2179 0.950 . S
H2157 C2181 0.950 . S
H2158 C2182 0.950 . S
H2159 C2183 0.951 . S
H2160 C2185 0.951 . S
H2161 C2187 0.950 . S
H2162 C2188 0.950 . S
H2163 C2190 0.950 . S
H2164 C2193 0.950 . S
H2165 C2194 0.950 . S
H2166 C2196 0.950 . S
H2167 C2197 0.950 . S
C2168 H2150 0.951 . S
C2168 C2169 1.366 . S
C2168 C2170 1.388 . S
C2169 C2168 1.366 . S
C2169 C2173 1.385 . S
C2170 H2151 0.951 . S
C2170 C2168 1.388 . S
C2170 C2171 1.366 . S
C2171 C2170 1.366 . S
C2171 C2172 1.414 . S
C2171 C2174 1.499 . S
C2172 H2152 0.950 . S
C2172 C2171 1.414 . S
C2172 C2173 1.374 . S
C2173 H2153 0.950 . S
C2173 C2169 1.385 . S
C2173 C2172 1.374 . S
C2174 C2171 1.499 . S
C2174 C2175 1.373 . S
C2174 C2176 1.389 . S
C2175 H2154 0.950 . S
C2175 C2174 1.373 . S
C2175 C2191 1.377 . S
C2176 C2174 1.389 . S
C2176 C2177 1.524 . S
C2176 C2190 1.377 . S
C2177 C2176 1.524 . S
C2177 C2178 1.397 . S
C2177 C2182 1.363 . S
C2178 H2155 0.950 . S
C2178 C2177 1.397 . S
C2178 C2179 1.334 . S
C2179 H2156 0.950 . S
C2179 C2178 1.334 . S
C2179 C2180 1.287 . S
C2180 C2179 1.287 . S
C2180 C2181 1.524 . S
C2180 H2199 0.913 . S
C2181 H2157 0.950 . S
C2181 C2180 1.524 . S
C2181 C2182 1.415 . S
C2182 H2158 0.950 . S
C2182 C2177 1.363 . S
C2182 C2181 1.415 . S
C2183 H2159 0.951 . S
C2183 C2184 1.366 . S
C2183 C2185 1.388 . S
C2184 C2183 1.366 . S
C2184 C2188 1.385 . S
C2185 H2160 0.951 . S
C2185 C2183 1.388 . S
C2185 C2186 1.366 . S
C2186 C2185 1.366 . S
C2186 C2187 1.414 . S
C2186 C2189 1.499 . S
C2187 H2161 0.950 . S
C2187 C2186 1.414 . S
C2187 C2188 1.374 . S
C2188 H2162 0.950 . S
C2188 C2184 1.385 . S
C2188 C2187 1.374 . S
C2189 C2186 1.499 . S
C2189 C2190 1.373 . S
C2189 C2191 1.389 . S
C2190 H2163 0.950 . S
C2190 C2176 1.377 . S
C2190 C2189 1.373 . S
C2191 C2175 1.377 . S
C2191 C2189 1.389 . S
C2191 C2192 1.524 . S
C2192 C2191 1.524 . S
C2192 C2193 1.397 . S
C2192 C2197 1.363 . S
C2193 H2164 0.950 . S
C2193 C2192 1.397 . S
C2193 C2194 1.334 . S
C2194 H2165 0.950 . S
C2194 C2193 1.334 . S
C2194 C2195 1.287 . S
C2195 C2194 1.287 . S
C2195 C2196 1.524 . S
C2195 H2198 0.999 . S
C2196 H2166 0.950 . S
C2196 C2195 1.524 . S
C2196 C2197 1.415 . S
C2197 H2167 0.950 . S
C2197 C2192 1.363 . S
C2197 C2196 1.415 . S
H2198 C2195 0.999 . S
H2199 C2180 0.913 . S
H2200 C2218 0.951 . S
H2201 C2220 0.951 . S
H2202 C2222 0.950 . S
H2203 C2223 0.950 . S
H2204 C2225 0.950 . S
H2205 C2228 0.950 . S
H2206 C2229 0.950 . S
H2207 C2231 0.950 . S
H2208 C2232 0.950 . S
H2209 C2233 0.951 . S
H2210 C2235 0.951 . S
H2211 C2237 0.950 . S
H2212 C2238 0.950 . S
H2213 C2240 0.950 . S
H2214 C2243 0.950 . S
H2215 C2244 0.950 . S
H2216 C2246 0.950 1_565 S
H2217 C2247 0.960 . S
C2218 H2200 0.951 . S
C2218 C2219 1.366 1_545 S
C2218 C2220 1.388 . S
C2219 C2218 1.366 1_565 S
C2219 C2223 1.385 . S
C2220 H2201 0.951 . S
C2220 C2218 1.388 . S
C2220 C2221 1.366 . S
C2221 C2220 1.366 . S
C2221 C2222 1.414 1_545 S
C2221 C2224 1.499 . S
C2222 H2202 0.950 . S
C2222 C2221 1.414 1_565 S
C2222 C2223 1.374 . S
C2223 H2203 0.950 . S
C2223 C2219 1.385 . S
C2223 C2222 1.374 . S
C2224 C2221 1.499 . S
C2224 C2225 1.373 . S
C2224 C2226 1.389 . S
C2225 H2204 0.950 . S
C2225 C2224 1.373 . S
C2225 C2241 1.377 . S
C2226 C2224 1.389 . S
C2226 C2227 1.524 . S
C2226 C2240 1.377 . S
C2227 C2226 1.524 . S
C2227 C2228 1.397 . S
C2227 C2232 1.363 . S
C2228 H2205 0.950 . S
C2228 C2227 1.397 . S
C2228 C2229 1.334 . S
C2229 H2206 0.950 . S
C2229 C2228 1.334 . S
C2229 C2230 1.287 . S
C2230 C2229 1.287 . S
C2230 C2231 1.524 . S
C2230 H2249 0.913 . S
C2231 H2207 0.950 . S
C2231 C2230 1.524 . S
C2231 C2232 1.415 . S
C2232 H2208 0.950 . S
C2232 C2227 1.363 . S
C2232 C2231 1.415 . S
C2233 H2209 0.951 . S
C2233 C2234 1.366 . S
C2233 C2235 1.388 . S
C2234 C2233 1.366 . S
C2234 C2238 1.385 . S
C2235 H2210 0.951 . S
C2235 C2233 1.388 . S
C2235 C2236 1.366 . S
C2236 C2235 1.366 . S
C2236 C2237 1.414 . S
C2236 C2239 1.499 . S
C2237 H2211 0.950 . S
C2237 C2236 1.414 . S
C2237 C2238 1.374 . S
C2238 H2212 0.950 . S
C2238 C2234 1.385 . S
C2238 C2237 1.374 . S
C2239 C2236 1.499 . S
C2239 C2240 1.373 . S
C2239 C2241 1.389 . S
C2240 H2213 0.950 . S
C2240 C2226 1.377 . S
C2240 C2239 1.373 . S
C2241 C2225 1.377 . S
C2241 C2239 1.389 . S
C2241 C2242 1.524 . S
C2242 C2241 1.524 . S
C2242 C2243 1.397 . S
C2242 C2247 1.363 . S
C2243 H2214 0.950 . S
C2243 C2242 1.397 . S
C2243 C2244 1.334 . S
C2244 H2215 0.950 . S
C2244 C2243 1.334 . S
C2244 C2245 1.287 . S
C2245 C2244 1.287 . S
C2245 C2246 1.524 . S
C2245 H2248 0.999 . S
C2246 H2216 0.950 1_545 S
C2246 C2245 1.524 . S
C2246 C2247 1.415 . S
C2247 H2217 0.960 . S
C2247 C2242 1.363 . S
C2247 C2246 1.415 . S
H2248 C2245 0.999 . S
H2249 C2230 0.913 . S
H2250 C2268 0.951 . S
H2251 C2270 0.951 . S
H2252 C2272 0.950 . S
H2253 C2273 0.950 . S
H2254 C2275 0.950 . S
H2255 C2278 0.950 . S
H2256 C2279 0.950 . S
H2257 C2281 0.950 . S
H2258 C2282 0.950 . S
H2259 C2283 0.951 . S
H2260 C2285 0.951 . S
H2261 C2287 0.950 . S
H2262 C2288 0.950 . S
H2263 C2290 0.950 . S
H2264 C2293 0.950 . S
H2265 C2294 0.950 . S
H2266 C2296 0.950 . S
H2267 C2297 0.950 . S
C2268 H2250 0.951 . S
C2268 C2269 1.366 . S
C2268 C2270 1.388 . S
C2269 C2268 1.366 . S
C2269 C2273 1.385 . S
C2270 H2251 0.951 . S
C2270 C2268 1.388 . S
C2270 C2271 1.366 . S
C2271 C2270 1.366 . S
C2271 C2272 1.414 . S
C2271 C2274 1.499 . S
C2272 H2252 0.950 . S
C2272 C2271 1.414 . S
C2272 C2273 1.374 . S
C2273 H2253 0.950 . S
C2273 C2269 1.385 . S
C2273 C2272 1.374 . S
C2274 C2271 1.499 . S
C2274 C2275 1.373 . S
C2274 C2276 1.389 . S
C2275 H2254 0.950 . S
C2275 C2274 1.373 . S
C2275 C2291 1.377 . S
C2276 C2274 1.389 . S
C2276 C2277 1.524 . S
C2276 C2290 1.377 . S
C2277 C2276 1.524 . S
C2277 C2278 1.397 . S
C2277 C2282 1.363 . S
C2278 H2255 0.950 . S
C2278 C2277 1.397 . S
C2278 C2279 1.334 . S
C2279 H2256 0.950 . S
C2279 C2278 1.334 . S
C2279 C2280 1.287 . S
C2280 C2279 1.287 . S
C2280 C2281 1.524 . S
C2280 H2299 0.913 . S
C2281 H2257 0.950 . S
C2281 C2280 1.524 . S
C2281 C2282 1.415 . S
C2282 H2258 0.950 . S
C2282 C2277 1.363 . S
C2282 C2281 1.415 . S
C2283 H2259 0.951 . S
C2283 C2284 1.366 . S
C2283 C2285 1.388 . S
C2284 C2283 1.366 . S
C2284 C2288 1.385 . S
C2285 H2260 0.951 . S
C2285 C2283 1.388 . S
C2285 C2286 1.366 . S
C2286 C2285 1.366 . S
C2286 C2287 1.414 . S
C2286 C2289 1.499 . S
C2287 H2261 0.950 . S
C2287 C2286 1.414 . S
C2287 C2288 1.374 . S
C2288 H2262 0.950 . S
C2288 C2284 1.385 . S
C2288 C2287 1.374 . S
C2289 C2286 1.499 . S
C2289 C2290 1.373 . S
C2289 C2291 1.389 . S
C2290 H2263 0.950 . S
C2290 C2276 1.377 . S
C2290 C2289 1.373 . S
C2291 C2275 1.377 . S
C2291 C2289 1.389 . S
C2291 C2292 1.524 . S
C2292 C2291 1.524 . S
C2292 C2293 1.397 . S
C2292 C2297 1.363 . S
C2293 H2264 0.950 . S
C2293 C2292 1.397 . S
C2293 C2294 1.334 . S
C2294 H2265 0.950 . S
C2294 C2293 1.334 . S
C2294 C2295 1.287 . S
C2295 C2294 1.287 . S
C2295 C2296 1.524 . S
C2295 H2298 0.999 . S
C2296 H2266 0.950 . S
C2296 C2295 1.524 . S
C2296 C2297 1.415 . S
C2297 H2267 0.950 . S
C2297 C2292 1.363 . S
C2297 C2296 1.415 . S
H2298 C2295 0.999 . S
H2299 C2280 0.913 . S
H2300 C2318 0.951 . S
H2301 C2320 0.951 . S
H2302 C2322 0.950 . S
H2303 C2323 0.950 . S
H2304 C2325 0.950 . S
H2305 C2328 0.950 1_545 S
H2306 C2329 0.950 . S
H2307 C2331 0.950 . S
H2308 C2332 0.950 . S
H2309 C2333 0.951 . S
H2310 C2335 0.951 . S
H2311 C2337 0.950 . S
H2312 C2338 0.950 . S
H2313 C2340 0.950 . S
H2314 C2343 0.950 . S
H2315 C2344 0.950 . S
H2316 C2346 0.950 . S
H2317 C2347 0.950 . S
C2318 H2300 0.951 . S
C2318 C2319 1.366 . S
C2318 C2320 1.388 . S
C2319 C2318 1.366 . S
C2319 C2323 1.385 1_565 S
C2320 H2301 0.951 . S
C2320 C2318 1.388 . S
C2320 C2321 1.366 1_565 S
C2321 C2320 1.366 1_545 S
C2321 C2322 1.414 . S
C2321 C2324 1.499 . S
C2322 H2302 0.950 . S
C2322 C2321 1.414 . S
C2322 C2323 1.374 . S
C2323 H2303 0.950 . S
C2323 C2319 1.385 1_545 S
C2323 C2322 1.374 . S
C2324 C2321 1.499 . S
C2324 C2325 1.373 . S
C2324 C2326 1.389 . S
C2325 H2304 0.950 . S
C2325 C2324 1.373 . S
C2325 C2341 1.377 . S
C2326 C2324 1.389 . S
C2326 C2327 1.491 1_545 S
C2326 C2340 1.377 . S
C2327 C2326 1.491 1_565 S
C2327 C2328 1.402 . S
C2327 C2332 1.388 . S
C2328 H2305 0.950 1_565 S
C2328 C2327 1.402 . S
C2328 C2329 1.334 . S
C2329 H2306 0.950 . S
C2329 C2328 1.334 . S
C2329 C2330 1.287 . S
C2330 C2329 1.287 . S
C2330 C2331 1.524 . S
C2330 H2349 0.913 . S
C2331 H2307 0.950 . S
C2331 C2330 1.524 . S
C2331 C2332 1.415 . S
C2332 H2308 0.950 . S
C2332 C2327 1.388 . S
C2332 C2331 1.415 . S
C2333 H2309 0.951 . S
C2333 C2334 1.366 . S
C2333 C2335 1.388 . S
C2334 C2333 1.366 . S
C2334 C2338 1.385 . S
C2335 H2310 0.951 . S
C2335 C2333 1.388 . S
C2335 C2336 1.366 . S
C2336 C2335 1.366 . S
C2336 C2337 1.414 . S
C2336 C2339 1.499 . S
C2337 H2311 0.950 . S
C2337 C2336 1.414 . S
C2337 C2338 1.374 . S
C2338 H2312 0.950 . S
C2338 C2334 1.385 . S
C2338 C2337 1.374 . S
C2339 C2336 1.499 . S
C2339 C2340 1.373 . S
C2339 C2341 1.389 . S
C2340 H2313 0.950 . S
C2340 C2326 1.377 . S
C2340 C2339 1.373 . S
C2341 C2325 1.377 . S
C2341 C2339 1.389 . S
C2341 C2342 1.524 . S
C2342 C2341 1.524 . S
C2342 C2343 1.397 . S
C2342 C2347 1.363 . S
C2343 H2314 0.950 . S
C2343 C2342 1.397 . S
C2343 C2344 1.334 . S
C2344 H2315 0.950 . S
C2344 C2343 1.334 . S
C2344 C2345 1.287 . S
C2345 C2344 1.287 . S
C2345 C2346 1.524 . S
C2345 H2348 0.999 . S
C2346 H2316 0.950 . S
C2346 C2345 1.524 . S
C2346 C2347 1.415 . S
C2347 H2317 0.950 . S
C2347 C2342 1.363 . S
C2347 C2346 1.415 . S
H2348 C2345 0.999 . S
H2349 C2330 0.913 . S
H2350 C2368 0.951 . S
H2351 C2370 0.951 . S
H2352 C2372 0.950 . S
H2353 C2373 0.950 . S
H2354 C2375 0.950 . S
H2355 C2378 0.950 . S
H2356 C2379 0.950 . S
H2357 C2381 0.950 . S
H2358 C2382 0.950 . S
H2359 C2383 0.951 . S
H2360 C2385 0.951 . S
H2361 C2387 0.950 . S
H2362 C2388 0.950 . S
H2363 C2390 0.950 . S
H2364 C2393 0.950 . S
H2365 C2394 0.950 . S
H2366 C2396 0.950 . S
H2367 C2397 0.950 . S
C2368 H2350 0.951 . S
C2368 C2369 1.366 . S
C2368 C2370 1.388 . S
C2369 C2368 1.366 . S
C2369 C2373 1.385 . S
C2370 H2351 0.951 . S
C2370 C2368 1.388 . S
C2370 C2371 1.366 . S
C2371 C2370 1.366 . S
C2371 C2372 1.414 . S
C2371 C2374 1.499 . S
C2372 H2352 0.950 . S
C2372 C2371 1.414 . S
C2372 C2373 1.374 . S
C2373 H2353 0.950 . S
C2373 C2369 1.385 . S
C2373 C2372 1.374 . S
C2374 C2371 1.499 . S
C2374 C2375 1.373 . S
C2374 C2376 1.389 . S
C2375 H2354 0.950 . S
C2375 C2374 1.373 . S
C2375 C2391 1.377 . S
C2376 C2374 1.389 . S
C2376 C2377 1.524 . S
C2376 C2390 1.377 . S
C2377 C2376 1.524 . S
C2377 C2378 1.397 . S
C2377 C2382 1.363 . S
C2378 H2355 0.950 . S
C2378 C2377 1.397 . S
C2378 C2379 1.334 . S
C2379 H2356 0.950 . S
C2379 C2378 1.334 . S
C2379 C2380 1.287 . S
C2380 C2379 1.287 . S
C2380 C2381 1.524 . S
C2380 H2399 0.913 . S
C2381 H2357 0.950 . S
C2381 C2380 1.524 . S
C2381 C2382 1.415 . S
C2382 H2358 0.950 . S
C2382 C2377 1.363 . S
C2382 C2381 1.415 . S
C2383 H2359 0.951 . S
C2383 C2384 1.366 . S
C2383 C2385 1.388 . S
C2384 C2383 1.366 . S
C2384 C2388 1.385 . S
C2385 H2360 0.951 . S
C2385 C2383 1.388 . S
C2385 C2386 1.366 . S
C2386 C2385 1.366 . S
C2386 C2387 1.414 . S
C2386 C2389 1.499 . S
C2387 H2361 0.950 . S
C2387 C2386 1.414 . S
C2387 C2388 1.374 . S
C2388 H2362 0.950 . S
C2388 C2384 1.385 . S
C2388 C2387 1.374 . S
C2389 C2386 1.499 . S
C2389 C2390 1.373 . S
C2389 C2391 1.389 . S
C2390 H2363 0.950 . S
C2390 C2376 1.377 . S
C2390 C2389 1.373 . S
C2391 C2375 1.377 . S
C2391 C2389 1.389 . S
C2391 C2392 1.524 . S
C2392 C2391 1.524 . S
C2392 C2393 1.397 . S
C2392 C2397 1.363 . S
C2393 H2364 0.950 . S
C2393 C2392 1.397 . S
C2393 C2394 1.334 . S
C2394 H2365 0.950 . S
C2394 C2393 1.334 . S
C2394 C2395 1.287 . S
C2395 C2394 1.287 . S
C2395 C2396 1.524 . S
C2395 H2398 0.999 . S
C2396 H2366 0.950 . S
C2396 C2395 1.524 . S
C2396 C2397 1.415 . S
C2397 H2367 0.950 . S
C2397 C2392 1.363 . S
C2397 C2396 1.415 . S
H2398 C2395 0.999 . S
H2399 C2380 0.913 . S
H2400 C2418 0.951 . S
H2401 C2420 0.951 . S
H2402 C2422 0.950 . S
H2403 C2423 0.950 . S
H2404 C2425 0.950 . S
H2405 C2428 0.950 . S
H2406 C2429 0.950 . S
H2407 C2431 0.950 . S
H2408 C2432 0.950 . S
H2409 C2433 0.951 . S
H2410 C2435 0.951 . S
H2411 C2437 0.950 . S
H2412 C2438 0.950 . S
H2413 C2440 0.950 . S
H2414 C2443 0.950 . S
H2415 C2444 0.950 . S
H2416 C2446 0.950 . S
H2417 C2447 0.950 . S
C2418 H2400 0.951 . S
C2418 C2419 1.366 . S
C2418 C2420 1.388 . S
C2419 C2418 1.366 . S
C2419 C2423 1.385 . S
C2420 H2401 0.951 . S
C2420 C2418 1.388 . S
C2420 C2421 1.366 . S
C2421 C2420 1.366 . S
C2421 C2422 1.414 . S
C2421 C2424 1.499 . S
C2422 H2402 0.950 . S
C2422 C2421 1.414 . S
C2422 C2423 1.374 . S
C2423 H2403 0.950 . S
C2423 C2419 1.385 . S
C2423 C2422 1.374 . S
C2424 C2421 1.499 . S
C2424 C2425 1.373 . S
C2424 C2426 1.389 . S
C2425 H2404 0.950 . S
C2425 C2424 1.373 . S
C2425 C2441 1.377 . S
C2426 C2424 1.389 . S
C2426 C2427 1.524 . S
C2426 C2440 1.377 . S
C2427 C2426 1.524 . S
C2427 C2428 1.397 . S
C2427 C2432 1.363 . S
C2428 H2405 0.950 . S
C2428 C2427 1.397 . S
C2428 C2429 1.334 . S
C2429 H2406 0.950 . S
C2429 C2428 1.334 . S
C2429 C2430 1.287 . S
C2430 C2429 1.287 . S
C2430 C2431 1.524 . S
C2430 H2449 0.913 . S
C2431 H2407 0.950 . S
C2431 C2430 1.524 . S
C2431 C2432 1.415 . S
C2432 H2408 0.950 . S
C2432 C2427 1.363 . S
C2432 C2431 1.415 . S
C2433 H2409 0.951 . S
C2433 C2434 1.366 . S
C2433 C2435 1.388 . S
C2434 C2433 1.366 . S
C2434 C2438 1.385 . S
C2435 H2410 0.951 . S
C2435 C2433 1.388 . S
C2435 C2436 1.366 . S
C2436 C2435 1.366 . S
C2436 C2437 1.414 . S
C2436 C2439 1.499 . S
C2437 H2411 0.950 . S
C2437 C2436 1.414 . S
C2437 C2438 1.374 . S
C2438 H2412 0.950 . S
C2438 C2434 1.385 . S
C2438 C2437 1.374 . S
C2439 C2436 1.499 . S
C2439 C2440 1.373 . S
C2439 C2441 1.389 . S
C2440 H2413 0.950 . S
C2440 C2426 1.377 . S
C2440 C2439 1.373 . S
C2441 C2425 1.377 . S
C2441 C2439 1.389 . S
C2441 C2442 1.524 . S
C2442 C2441 1.524 . S
C2442 C2443 1.397 . S
C2442 C2447 1.363 . S
C2443 H2414 0.950 . S
C2443 C2442 1.397 . S
C2443 C2444 1.334 . S
C2444 H2415 0.950 . S
C2444 C2443 1.334 . S
C2444 C2445 1.287 . S
C2445 C2444 1.287 . S
C2445 C2446 1.524 . S
C2445 H2448 0.999 . S
C2446 H2416 0.950 . S
C2446 C2445 1.524 . S
C2446 C2447 1.415 . S
C2447 H2417 0.950 . S
C2447 C2442 1.363 . S
C2447 C2446 1.415 . S
H2448 C2445 0.999 . S
H2449 C2430 0.913 . S
H2450 C2468 0.951 . S
H2451 C2470 0.951 . S
H2452 C2472 0.950 . S
H2453 C2473 0.950 . S
H2454 C2475 0.950 1_565 S
H2455 C2478 0.950 . S
H2456 C2479 0.950 . S
H2457 C2481 0.950 . S
H2458 C2482 0.950 . S
H2459 C2483 0.951 . S
H2460 C2485 0.951 . S
H2461 C2487 0.950 . S
H2462 C2488 0.950 . S
H2463 C2490 0.950 . S
H2464 C2493 0.950 . S
H2465 C2494 0.950 . S
H2466 C2496 0.950 . S
H2467 C2497 0.950 . S
C2468 H2450 0.951 . S
C2468 C2469 1.366 . S
C2468 C2470 1.388 . S
C2469 C2468 1.366 . S
C2469 C2473 1.385 . S
C2470 H2451 0.951 . S
C2470 C2468 1.388 . S
C2470 C2471 1.366 . S
C2471 C2470 1.366 . S
C2471 C2472 1.414 . S
C2471 C2474 1.499 . S
C2472 H2452 0.950 . S
C2472 C2471 1.414 . S
C2472 C2473 1.374 . S
C2473 H2453 0.950 . S
C2473 C2469 1.385 . S
C2473 C2472 1.374 . S
C2474 C2471 1.499 . S
C2474 C2475 1.373 . S
C2474 C2476 1.389 . S
C2475 H2454 0.950 1_545 S
C2475 C2474 1.373 . S
C2475 C2491 1.377 . S
C2476 C2474 1.389 . S
C2476 C2477 1.524 . S
C2476 C2490 1.377 . S
C2477 C2476 1.524 . S
C2477 C2478 1.397 . S
C2477 C2482 1.363 . S
C2478 H2455 0.950 . S
C2478 C2477 1.397 . S
C2478 C2479 1.334 . S
C2479 H2456 0.950 . S
C2479 C2478 1.334 . S
C2479 C2480 1.287 . S
C2480 C2479 1.287 . S
C2480 C2481 1.524 . S
C2480 H2499 0.913 . S
C2481 H2457 0.950 . S
C2481 C2480 1.524 . S
C2481 C2482 1.415 . S
C2482 H2458 0.950 . S
C2482 C2477 1.363 . S
C2482 C2481 1.415 . S
C2483 H2459 0.951 . S
C2483 C2484 1.366 . S
C2483 C2485 1.388 . S
C2484 C2483 1.366 . S
C2484 C2488 1.385 . S
C2485 H2460 0.951 . S
C2485 C2483 1.388 . S
C2485 C2486 1.366 . S
C2486 C2485 1.366 . S
C2486 C2487 1.414 . S
C2486 C2489 1.499 . S
C2487 H2461 0.950 . S
C2487 C2486 1.414 . S
C2487 C2488 1.374 . S
C2488 H2462 0.950 . S
C2488 C2484 1.385 . S
C2488 C2487 1.374 . S
C2489 C2486 1.499 . S
C2489 C2490 1.373 . S
C2489 C2491 1.389 . S
C2490 H2463 0.950 . S
C2490 C2476 1.377 . S
C2490 C2489 1.373 . S
C2491 C2475 1.377 . S
C2491 C2489 1.389 . S
C2491 C2492 1.524 1_545 S
C2492 C2491 1.524 1_565 S
C2492 C2493 1.397 . S
C2492 C2497 1.363 . S
C2493 H2464 0.950 . S
C2493 C2492 1.397 . S
C2493 C2494 1.334 . S
C2494 H2465 0.950 . S
C2494 C2493 1.334 . S
C2494 C2495 1.287 . S
C2495 C2494 1.287 . S
C2495 C2496 1.524 . S
C2495 H2498 0.999 . S
C2496 H2466 0.950 . S
C2496 C2495 1.524 . S
C2496 C2497 1.415 . S
C2497 H2467 0.950 . S
C2497 C2492 1.363 . S
C2497 C2496 1.415 . S
H2498 C2495 0.999 . S
H2499 C2480 0.913 . S
H2500 C2518 0.951 . S
H2501 C2520 0.951 . S
H2502 C2522 0.950 . S
H2503 C2523 0.950 . S
H2504 C2525 0.950 . S
H2505 C2528 0.950 . S
H2506 C2529 0.950 . S
H2507 C2531 0.950 . S
H2508 C2532 0.950 . S
H2509 C2533 0.951 . S
H2510 C2535 0.951 . S
H2511 C2537 0.950 . S
H2512 C2538 0.950 . S
H2513 C2540 0.950 . S
H2514 C2543 0.950 . S
H2515 C2544 0.950 . S
H2516 C2546 0.950 . S
H2517 C2547 0.950 . S
C2518 H2500 0.951 . S
C2518 C2519 1.366 . S
C2518 C2520 1.388 . S
C2519 C2518 1.366 . S
C2519 C2523 1.385 . S
C2520 H2501 0.951 . S
C2520 C2518 1.388 . S
C2520 C2521 1.366 . S
C2521 C2520 1.366 . S
C2521 C2522 1.414 . S
C2521 C2524 1.499 . S
C2522 H2502 0.950 . S
C2522 C2521 1.414 . S
C2522 C2523 1.374 . S
C2523 H2503 0.950 . S
C2523 C2519 1.385 . S
C2523 C2522 1.374 . S
C2524 C2521 1.499 . S
C2524 C2525 1.373 . S
C2524 C2526 1.389 . S
C2525 H2504 0.950 . S
C2525 C2524 1.373 . S
C2525 C2541 1.377 . S
C2526 C2524 1.389 . S
C2526 C2527 1.524 . S
C2526 C2540 1.377 . S
C2527 C2526 1.524 . S
C2527 C2528 1.397 . S
C2527 C2532 1.363 . S
C2528 H2505 0.950 . S
C2528 C2527 1.397 . S
C2528 C2529 1.334 . S
C2529 H2506 0.950 . S
C2529 C2528 1.334 . S
C2529 C2530 1.287 . S
C2530 C2529 1.287 . S
C2530 C2531 1.524 . S
C2530 H2549 0.913 . S
C2531 H2507 0.950 . S
C2531 C2530 1.524 . S
C2531 C2532 1.415 . S
C2532 H2508 0.950 . S
C2532 C2527 1.363 . S
C2532 C2531 1.415 . S
C2533 H2509 0.951 . S
C2533 C2534 1.366 . S
C2533 C2535 1.388 . S
C2534 C2533 1.366 . S
C2534 C2538 1.385 . S
C2535 H2510 0.951 . S
C2535 C2533 1.388 . S
C2535 C2536 1.366 . S
C2536 C2535 1.366 . S
C2536 C2537 1.414 . S
C2536 C2539 1.499 . S
C2537 H2511 0.950 . S
C2537 C2536 1.414 . S
C2537 C2538 1.374 . S
C2538 H2512 0.950 . S
C2538 C2534 1.385 . S
C2538 C2537 1.374 . S
C2539 C2536 1.499 . S
C2539 C2540 1.373 . S
C2539 C2541 1.389 . S
C2540 H2513 0.950 . S
C2540 C2526 1.377 . S
C2540 C2539 1.373 . S
C2541 C2525 1.377 . S
C2541 C2539 1.389 . S
C2541 C2542 1.524 . S
C2542 C2541 1.524 . S
C2542 C2543 1.397 . S
C2542 C2547 1.363 . S
C2543 H2514 0.950 . S
C2543 C2542 1.397 . S
C2543 C2544 1.334 . S
C2544 H2515 0.950 . S
C2544 C2543 1.334 . S
C2544 C2545 1.287 . S
C2545 C2544 1.287 . S
C2545 C2546 1.524 . S
C2545 H2548 0.999 . S
C2546 H2516 0.950 . S
C2546 C2545 1.524 . S
C2546 C2547 1.415 . S
C2547 H2517 0.950 . S
C2547 C2542 1.363 . S
C2547 C2546 1.415 . S
H2548 C2545 0.999 . S
H2549 C2530 0.913 . S
H2550 C2568 0.951 . S
H2551 C2570 0.951 . S
H2552 C2572 0.950 . S
H2553 C2573 0.950 . S
H2554 C2575 0.950 . S
H2555 C2578 0.950 . S
H2556 C2579 0.950 . S
H2557 C2581 0.950 . S
H2558 C2582 0.950 . S
H2559 C2583 0.951 . S
H2560 C2585 0.951 . S
H2561 C2587 0.950 . S
H2562 C2588 0.950 . S
H2563 C2590 0.950 . S
H2564 C2593 0.950 . S
H2565 C2594 0.950 . S
H2566 C2596 0.950 . S
H2567 C2597 0.950 . S
C2568 H2550 0.951 . S
C2568 C2569 1.366 . S
C2568 C2570 1.388 . S
C2569 C2568 1.366 . S
C2569 C2573 1.385 . S
C2570 H2551 0.951 . S
C2570 C2568 1.388 . S
C2570 C2571 1.366 . S
C2571 C2570 1.366 . S
C2571 C2572 1.414 . S
C2571 C2574 1.499 . S
C2572 H2552 0.950 . S
C2572 C2571 1.414 . S
C2572 C2573 1.374 . S
C2573 H2553 0.950 . S
C2573 C2569 1.385 . S
C2573 C2572 1.374 . S
C2574 C2571 1.499 . S
C2574 C2575 1.373 . S
C2574 C2576 1.389 . S
C2575 H2554 0.950 . S
C2575 C2574 1.373 . S
C2575 C2591 1.377 . S
C2576 C2574 1.389 . S
C2576 C2577 1.524 . S
C2576 C2590 1.377 . S
C2577 C2576 1.524 . S
C2577 C2578 1.397 . S
C2577 C2582 1.363 . S
C2578 H2555 0.950 . S
C2578 C2577 1.397 . S
C2578 C2579 1.334 . S
C2579 H2556 0.950 . S
C2579 C2578 1.334 . S
C2579 C2580 1.287 . S
C2580 C2579 1.287 . S
C2580 C2581 1.524 . S
C2580 H2599 0.913 . S
C2581 H2557 0.950 . S
C2581 C2580 1.524 . S
C2581 C2582 1.415 . S
C2582 H2558 0.950 . S
C2582 C2577 1.363 . S
C2582 C2581 1.415 . S
C2583 H2559 0.951 . S
C2583 C2584 1.366 . S
C2583 C2585 1.388 . S
C2584 C2583 1.366 . S
C2584 C2588 1.385 . S
C2585 H2560 0.951 . S
C2585 C2583 1.388 . S
C2585 C2586 1.366 . S
C2586 C2585 1.366 . S
C2586 C2587 1.414 . S
C2586 C2589 1.499 . S
C2587 H2561 0.950 . S
C2587 C2586 1.414 . S
C2587 C2588 1.374 . S
C2588 H2562 0.950 . S
C2588 C2584 1.385 . S
C2588 C2587 1.374 . S
C2589 C2586 1.499 . S
C2589 C2590 1.373 . S
C2589 C2591 1.389 . S
C2590 H2563 0.950 . S
C2590 C2576 1.377 . S
C2590 C2589 1.373 . S
C2591 C2575 1.377 . S
C2591 C2589 1.389 . S
C2591 C2592 1.524 . S
C2592 C2591 1.524 . S
C2592 C2593 1.397 . S
C2592 C2597 1.363 . S
C2593 H2564 0.950 . S
C2593 C2592 1.397 . S
C2593 C2594 1.334 . S
C2594 H2565 0.950 . S
C2594 C2593 1.334 . S
C2594 C2595 1.287 . S
C2595 C2594 1.287 . S
C2595 C2596 1.524 . S
C2595 H2598 0.999 . S
C2596 H2566 0.950 . S
C2596 C2595 1.524 . S
C2596 C2597 1.415 . S
C2597 H2567 0.950 . S
C2597 C2592 1.363 . S
C2597 C2596 1.415 . S
H2598 C2595 0.999 . S
H2599 C2580 0.913 . S
H2600 C2618 0.951 . S
H2601 C2620 0.951 . S
H2602 C2622 0.950 . S
H2603 C2623 0.950 . S
H2604 C2625 0.950 . S
H2605 C2628 0.950 . S
H2606 C2629 0.950 . S
H2607 C2631 0.950 . S
H2608 C2632 0.950 . S
H2609 C2633 0.951 . S
H2610 C2635 0.951 . S
H2611 C2637 0.950 . S
H2612 C2638 0.950 . S
H2613 C2640 0.950 . S
H2614 C2643 0.950 . S
H2615 C2644 0.950 . S
H2616 C2646 0.950 . S
H2617 C2647 0.950 . S
C2618 H2600 0.951 . S
C2618 C2619 1.366 . S
C2618 C2620 1.388 . S
C2619 C2618 1.366 . S
C2619 C2623 1.385 . S
C2620 H2601 0.951 . S
C2620 C2618 1.388 . S
C2620 C2621 1.366 . S
C2621 C2620 1.366 . S
C2621 C2622 1.414 . S
C2621 C2624 1.499 . S
C2622 H2602 0.950 . S
C2622 C2621 1.414 . S
C2622 C2623 1.374 . S
C2623 H2603 0.950 . S
C2623 C2619 1.385 . S
C2623 C2622 1.374 . S
C2624 C2621 1.499 . S
C2624 C2625 1.373 . S
C2624 C2626 1.389 . S
C2625 H2604 0.950 . S
C2625 C2624 1.373 . S
C2625 C2641 1.377 . S
C2626 C2624 1.389 . S
C2626 C2627 1.524 . S
C2626 C2640 1.377 . S
C2627 C2626 1.524 . S
C2627 C2628 1.397 . S
C2627 C2632 1.363 . S
C2628 H2605 0.950 . S
C2628 C2627 1.397 . S
C2628 C2629 1.334 . S
C2629 H2606 0.950 . S
C2629 C2628 1.334 . S
C2629 C2630 1.287 . S
C2630 C2629 1.287 . S
C2630 C2631 1.524 . S
C2630 H2649 0.913 . S
C2631 H2607 0.950 . S
C2631 C2630 1.524 . S
C2631 C2632 1.415 . S
C2632 H2608 0.950 . S
C2632 C2627 1.363 . S
C2632 C2631 1.415 . S
C2633 H2609 0.951 . S
C2633 C2634 1.366 . S
C2633 C2635 1.388 . S
C2634 C2633 1.366 . S
C2634 C2638 1.385 . S
C2635 H2610 0.951 . S
C2635 C2633 1.388 . S
C2635 C2636 1.366 . S
C2636 C2635 1.366 . S
C2636 C2637 1.414 . S
C2636 C2639 1.499 . S
C2637 H2611 0.950 . S
C2637 C2636 1.414 . S
C2637 C2638 1.374 . S
C2638 H2612 0.950 . S
C2638 C2634 1.385 . S
C2638 C2637 1.374 . S
C2639 C2636 1.499 . S
C2639 C2640 1.373 . S
C2639 C2641 1.389 . S
C2640 H2613 0.950 . S
C2640 C2626 1.377 . S
C2640 C2639 1.373 . S
C2641 C2625 1.377 . S
C2641 C2639 1.389 . S
C2641 C2642 1.524 . S
C2642 C2641 1.524 . S
C2642 C2643 1.397 . S
C2642 C2647 1.363 . S
C2643 H2614 0.950 . S
C2643 C2642 1.397 . S
C2643 C2644 1.334 . S
C2644 H2615 0.950 . S
C2644 C2643 1.334 . S
C2644 C2645 1.287 . S
C2645 C2644 1.287 . S
C2645 C2646 1.524 . S
C2645 H2648 0.999 . S
C2646 H2616 0.950 . S
C2646 C2645 1.524 . S
C2646 C2647 1.415 . S
C2647 H2617 0.950 . S
C2647 C2642 1.363 . S
C2647 C2646 1.415 . S
H2648 C2645 0.999 . S
H2649 C2630 0.913 . S
H2650 C2668 0.951 . S
H2651 C2670 0.974 . S
H2652 C2672 0.950 . S
H2653 C2673 0.950 . S
H2654 C2675 0.950 . S
H2655 C2678 0.895 1_545 S
H2656 C2679 0.950 . S
H2657 C2681 0.950 . S
H2658 C2682 0.950 . S
H2659 C2683 0.951 . S
H2660 C2685 0.951 . S
H2661 C2687 0.912 1_565 S
H2662 C2688 1.014 . S
H2663 C2690 0.950 1_565 S
H2664 C2693 0.950 . S
H2665 C2694 0.950 . S
H2666 C2696 0.950 . S
H2667 C2697 0.950 . S
C2668 H2650 0.951 . S
C2668 C2669 1.366 . S
C2668 C2670 1.388 . S
C2669 C2668 1.366 . S
C2669 C2673 1.421 . S
C2670 H2651 0.974 . S
C2670 C2668 1.388 . S
C2670 C2671 1.366 1_455 S
C2671 C2670 1.366 1_655 S
C2671 C2672 1.414 . S
C2671 C2674 1.499 . S
C2672 H2652 0.950 . S
C2672 C2671 1.414 . S
C2672 C2673 1.340 1_655 S
C2673 H2653 0.950 . S
C2673 C2669 1.421 . S
C2673 C2672 1.340 1_455 S
C2674 C2671 1.499 . S
C2674 C2675 1.373 . S
C2674 C2676 1.389 . S
C2675 H2654 0.950 . S
C2675 C2674 1.373 . S
C2675 C2691 1.377 . S
C2676 C2674 1.389 . S
C2676 C2677 1.524 1_545 S
C2676 C2690 1.377 . S
C2677 C2676 1.524 1_565 S
C2677 C2678 1.415 . S
C2677 C2682 1.363 . S
C2678 H2655 0.895 1_565 S
C2678 C2677 1.415 . S
C2678 C2679 1.372 . S
C2679 H2656 0.950 . S
C2679 C2678 1.372 . S
C2679 C2680 1.287 . S
C2680 C2679 1.287 . S
C2680 C2681 1.524 . S
C2680 H2699 0.913 . S
C2681 H2657 0.950 . S
C2681 C2680 1.524 . S
C2681 C2682 1.415 . S
C2682 H2658 0.950 . S
C2682 C2677 1.363 . S
C2682 C2681 1.415 . S
C2683 H2659 0.951 . S
C2683 C2684 1.366 . S
C2683 C2685 1.388 . S
C2684 C2683 1.366 . S
C2684 C2688 1.330 1_545 S
C2685 H2660 0.951 . S
C2685 C2683 1.388 . S
C2685 C2686 1.366 . S
C2686 C2685 1.366 . S
C2686 C2687 1.458 . S
C2686 C2689 1.499 . S
C2687 H2661 0.912 1_545 S
C2687 C2686 1.458 . S
C2687 C2688 1.367 1_545 S
C2688 H2662 1.014 . S
C2688 C2684 1.330 1_565 S
C2688 C2687 1.367 1_565 S
C2689 C2686 1.499 . S
C2689 C2690 1.373 . S
C2689 C2691 1.389 . S
C2690 H2663 0.950 1_545 S
C2690 C2676 1.377 . S
C2690 C2689 1.373 . S
C2691 C2675 1.377 . S
C2691 C2689 1.389 . S
C2691 C2692 1.524 . S
C2692 C2691 1.524 . S
C2692 C2693 1.397 . S
C2692 C2697 1.363 . S
C2693 H2664 0.950 . S
C2693 C2692 1.397 . S
C2693 C2694 1.334 . S
C2694 H2665 0.950 . S
C2694 C2693 1.334 . S
C2694 C2695 1.287 . S
C2695 C2694 1.287 . S
C2695 C2696 1.524 . S
C2695 H2698 0.999 . S
C2696 H2666 0.950 . S
C2696 C2695 1.524 . S
C2696 C2697 1.415 . S
C2697 H2667 0.950 . S
C2697 C2692 1.363 . S
C2697 C2696 1.415 . S
H2698 C2695 0.999 . S
H2699 C2680 0.913 . S
H2700 C2718 0.951 . S
H2701 C2720 0.951 . S
H2702 C2722 0.950 . S
H2703 C2723 0.950 . S
H2704 C2725 0.950 . S
H2705 C2728 0.950 . S
H2706 C2729 0.950 . S
H2707 C2731 0.950 . S
H2708 C2732 0.950 . S
H2709 C2733 0.951 . S
H2710 C2735 0.951 . S
H2711 C2737 0.950 . S
H2712 C2738 0.950 . S
H2713 C2740 0.950 . S
H2714 C2743 0.950 . S
H2715 C2744 0.950 . S
H2716 C2746 0.950 . S
H2717 C2747 0.950 . S
C2718 H2700 0.951 . S
C2718 C2719 1.366 . S
C2718 C2720 1.388 . S
C2719 C2718 1.366 . S
C2719 C2723 1.385 . S
C2720 H2701 0.951 . S
C2720 C2718 1.388 . S
C2720 C2721 1.366 . S
C2721 C2720 1.366 . S
C2721 C2722 1.414 . S
C2721 C2724 1.499 . S
C2722 H2702 0.950 . S
C2722 C2721 1.414 . S
C2722 C2723 1.374 . S
C2723 H2703 0.950 . S
C2723 C2719 1.385 . S
C2723 C2722 1.374 . S
C2724 C2721 1.499 . S
C2724 C2725 1.373 . S
C2724 C2726 1.389 . S
C2725 H2704 0.950 . S
C2725 C2724 1.373 . S
C2725 C2741 1.377 . S
C2726 C2724 1.389 . S
C2726 C2727 1.524 . S
C2726 C2740 1.377 . S
C2727 C2726 1.524 . S
C2727 C2728 1.397 . S
C2727 C2732 1.363 . S
C2728 H2705 0.950 . S
C2728 C2727 1.397 . S
C2728 C2729 1.334 . S
C2729 H2706 0.950 . S
C2729 C2728 1.334 . S
C2729 C2730 1.287 . S
C2730 C2729 1.287 . S
C2730 C2731 1.524 . S
C2730 H2749 0.913 . S
C2731 H2707 0.950 . S
C2731 C2730 1.524 . S
C2731 C2732 1.415 . S
C2732 H2708 0.950 . S
C2732 C2727 1.363 . S
C2732 C2731 1.415 . S
C2733 H2709 0.951 . S
C2733 C2734 1.366 . S
C2733 C2735 1.388 . S
C2734 C2733 1.366 . S
C2734 C2738 1.385 . S
C2735 H2710 0.951 . S
C2735 C2733 1.388 . S
C2735 C2736 1.366 . S
C2736 C2735 1.366 . S
C2736 C2737 1.414 . S
C2736 C2739 1.499 . S
C2737 H2711 0.950 . S
C2737 C2736 1.414 . S
C2737 C2738 1.374 . S
C2738 H2712 0.950 . S
C2738 C2734 1.385 . S
C2738 C2737 1.374 . S
C2739 C2736 1.499 . S
C2739 C2740 1.373 . S
C2739 C2741 1.389 . S
C2740 H2713 0.950 . S
C2740 C2726 1.377 . S
C2740 C2739 1.373 . S
C2741 C2725 1.377 . S
C2741 C2739 1.389 . S
C2741 C2742 1.524 . S
C2742 C2741 1.524 . S
C2742 C2743 1.397 . S
C2742 C2747 1.363 . S
C2743 H2714 0.950 . S
C2743 C2742 1.397 . S
C2743 C2744 1.334 . S
C2744 H2715 0.950 . S
C2744 C2743 1.334 . S
C2744 C2745 1.287 . S
C2745 C2744 1.287 . S
C2745 C2746 1.524 . S
C2745 H2748 0.999 . S
C2746 H2716 0.950 . S
C2746 C2745 1.524 . S
C2746 C2747 1.415 . S
C2747 H2717 0.950 . S
C2747 C2742 1.363 . S
C2747 C2746 1.415 . S
H2748 C2745 0.999 . S
H2749 C2730 0.913 . S
H2750 C2768 0.951 . S
H2751 C2770 0.951 . S
H2752 C2772 0.950 . S
H2753 C2773 0.950 . S
H2754 C2775 0.950 . S
H2755 C2778 0.950 . S
H2756 C2779 0.950 1_655 S
H2757 C2781 0.950 . S
H2758 C2782 0.950 . S
H2759 C2783 0.951 . S
H2760 C2785 0.951 . S
H2761 C2787 0.950 . S
H2762 C2788 0.950 . S
H2763 C2790 0.950 . S
H2764 C2793 0.950 . S
H2765 C2794 0.950 . S
H2766 C2796 0.950 . S
H2767 C2797 0.950 . S
C2768 H2750 0.951 . S
C2768 C2769 1.366 1_455 S
C2768 C2770 1.388 . S
C2769 C2768 1.366 1_655 S
C2769 C2773 1.385 . S
C2770 H2751 0.951 . S
C2770 C2768 1.388 . S
C2770 C2771 1.366 . S
C2771 C2770 1.366 . S
C2771 C2772 1.414 1_455 S
C2771 C2774 1.499 . S
C2772 H2752 0.950 . S
C2772 C2771 1.414 1_655 S
C2772 C2773 1.374 . S
C2773 H2753 0.950 . S
C2773 C2769 1.385 . S
C2773 C2772 1.374 . S
C2774 C2771 1.499 . S
C2774 C2775 1.373 . S
C2774 C2776 1.389 . S
C2775 H2754 0.950 . S
C2775 C2774 1.373 . S
C2775 C2791 1.377 . S
C2776 C2774 1.389 . S
C2776 C2777 1.524 . S
C2776 C2790 1.377 . S
C2777 C2776 1.524 . S
C2777 C2778 1.397 . S
C2777 C2782 1.363 . S
C2778 H2755 0.950 . S
C2778 C2777 1.397 . S
C2778 C2779 1.334 . S
C2779 H2756 0.950 1_455 S
C2779 C2778 1.334 . S
C2779 C2780 1.287 . S
C2780 C2779 1.287 . S
C2780 C2781 1.524 . S
C2780 H2799 0.913 . S
C2781 H2757 0.950 . S
C2781 C2780 1.524 . S
C2781 C2782 1.415 . S
C2782 H2758 0.950 . S
C2782 C2777 1.363 . S
C2782 C2781 1.415 . S
C2783 H2759 0.951 . S
C2783 C2784 1.366 . S
C2783 C2785 1.388 . S
C2784 C2783 1.366 . S
C2784 C2788 1.385 . S
C2785 H2760 0.951 . S
C2785 C2783 1.388 . S
C2785 C2786 1.366 . S
C2786 C2785 1.366 . S
C2786 C2787 1.414 . S
C2786 C2789 1.499 . S
C2787 H2761 0.950 . S
C2787 C2786 1.414 . S
C2787 C2788 1.374 . S
C2788 H2762 0.950 . S
C2788 C2784 1.385 . S
C2788 C2787 1.374 . S
C2789 C2786 1.499 . S
C2789 C2790 1.373 . S
C2789 C2791 1.389 . S
C2790 H2763 0.950 . S
C2790 C2776 1.377 . S
C2790 C2789 1.373 . S
C2791 C2775 1.377 . S
C2791 C2789 1.389 . S
C2791 C2792 1.524 . S
C2792 C2791 1.524 . S
C2792 C2793 1.397 . S
C2792 C2797 1.363 . S
C2793 H2764 0.950 . S
C2793 C2792 1.397 . S
C2793 C2794 1.334 . S
C2794 H2765 0.950 . S
C2794 C2793 1.334 . S
C2794 C2795 1.287 . S
C2795 C2794 1.287 . S
C2795 C2796 1.524 . S
C2795 H2798 0.999 . S
C2796 H2766 0.950 . S
C2796 C2795 1.524 . S
C2796 C2797 1.415 . S
C2797 H2767 0.950 . S
C2797 C2792 1.363 . S
C2797 C2796 1.415 . S
H2798 C2795 0.999 . S
H2799 C2780 0.913 . S
H2800 C2818 0.951 . S
H2801 C2820 0.951 . S
H2802 C2822 0.950 . S
H2803 C2823 0.950 . S
H2804 C2825 0.950 . S
H2805 C2828 0.950 . S
H2806 C2829 0.950 . S
H2807 C2831 0.950 . S
H2808 C2832 0.950 . S
H2809 C2833 0.951 . S
H2810 C2835 0.951 . S
H2811 C2837 0.950 . S
H2812 C2838 0.950 . S
H2813 C2840 0.950 . S
H2814 C2843 0.950 . S
H2815 C2844 0.950 . S
H2816 C2846 0.950 . S
H2817 C2847 0.950 . S
C2818 H2800 0.951 . S
C2818 C2819 1.366 . S
C2818 C2820 1.388 . S
C2819 C2818 1.366 . S
C2819 C2823 1.385 . S
C2820 H2801 0.951 . S
C2820 C2818 1.388 . S
C2820 C2821 1.366 . S
C2821 C2820 1.366 . S
C2821 C2822 1.414 . S
C2821 C2824 1.499 . S
C2822 H2802 0.950 . S
C2822 C2821 1.414 . S
C2822 C2823 1.374 . S
C2823 H2803 0.950 . S
C2823 C2819 1.385 . S
C2823 C2822 1.374 . S
C2824 C2821 1.499 . S
C2824 C2825 1.373 . S
C2824 C2826 1.389 . S
C2825 H2804 0.950 . S
C2825 C2824 1.373 . S
C2825 C2841 1.377 . S
C2826 C2824 1.389 . S
C2826 C2827 1.524 . S
C2826 C2840 1.377 . S
C2827 C2826 1.524 . S
C2827 C2828 1.397 . S
C2827 C2832 1.363 . S
C2828 H2805 0.950 . S
C2828 C2827 1.397 . S
C2828 C2829 1.334 . S
C2829 H2806 0.950 . S
C2829 C2828 1.334 . S
C2829 C2830 1.287 . S
C2830 C2829 1.287 . S
C2830 C2831 1.524 . S
C2830 H2849 0.913 . S
C2831 H2807 0.950 . S
C2831 C2830 1.524 . S
C2831 C2832 1.415 . S
C2832 H2808 0.950 . S
C2832 C2827 1.363 . S
C2832 C2831 1.415 . S
C2833 H2809 0.951 . S
C2833 C2834 1.366 . S
C2833 C2835 1.388 . S
C2834 C2833 1.366 . S
C2834 C2838 1.385 . S
C2835 H2810 0.951 . S
C2835 C2833 1.388 . S
C2835 C2836 1.366 . S
C2836 C2835 1.366 . S
C2836 C2837 1.414 . S
C2836 C2839 1.499 . S
C2837 H2811 0.950 . S
C2837 C2836 1.414 . S
C2837 C2838 1.374 . S
C2838 H2812 0.950 . S
C2838 C2834 1.385 . S
C2838 C2837 1.374 . S
C2839 C2836 1.499 . S
C2839 C2840 1.373 . S
C2839 C2841 1.389 . S
C2840 H2813 0.950 . S
C2840 C2826 1.377 . S
C2840 C2839 1.373 . S
C2841 C2825 1.377 . S
C2841 C2839 1.389 . S
C2841 C2842 1.524 . S
C2842 C2841 1.524 . S
C2842 C2843 1.397 . S
C2842 C2847 1.363 . S
C2843 H2814 0.950 . S
C2843 C2842 1.397 . S
C2843 C2844 1.334 . S
C2844 H2815 0.950 . S
C2844 C2843 1.334 . S
C2844 C2845 1.287 . S
C2845 C2844 1.287 . S
C2845 C2846 1.524 . S
C2845 H2848 0.999 . S
C2846 H2816 0.950 . S
C2846 C2845 1.524 . S
C2846 C2847 1.415 . S
C2847 H2817 0.950 . S
C2847 C2842 1.363 . S
C2847 C2846 1.415 . S
H2848 C2845 0.999 . S
H2849 C2830 0.913 . S
H2850 C2868 0.951 . S
H2851 C2870 0.951 . S
H2852 C2872 0.950 . S
H2853 C2873 0.950 . S
H2854 C2875 0.988 . S
H2855 C2878 0.950 . S
H2856 C2879 0.950 . S
H2857 C2881 0.950 . S
H2858 C2882 0.950 . S
H2859 C2883 0.951 . S
H2860 C2885 0.951 . S
H2861 C2887 0.950 . S
H2862 C2888 0.950 . S
H2863 C2890 0.950 . S
H2864 C2893 0.950 . S
H2865 C2894 0.950 . S
H2866 C2896 0.950 1_554 S
H2867 C2897 0.950 1_554 S
C2868 H2850 0.951 . S
C2868 C2869 1.366 1_556 S
C2868 C2870 1.388 . S
C2869 C2868 1.366 1_554 S
C2869 C2873 1.385 . S
C2870 H2851 0.951 . S
C2870 C2868 1.388 . S
C2870 C2871 1.366 . S
C2871 C2870 1.366 . S
C2871 C2872 1.414 1_556 S
C2871 C2874 1.499 . S
C2872 H2852 0.950 . S
C2872 C2871 1.414 1_554 S
C2872 C2873 1.374 . S
C2873 H2853 0.950 . S
C2873 C2869 1.385 . S
C2873 C2872 1.374 . S
C2874 C2871 1.499 . S
C2874 C2875 1.373 . S
C2874 C2876 1.389 . S
C2875 H2854 0.988 . S
C2875 C2874 1.373 . S
C2875 C2891 1.377 . S
C2876 C2874 1.389 . S
C2876 C2877 1.524 . S
C2876 C2890 1.377 . S
C2877 C2876 1.524 . S
C2877 C2878 1.397 . S
C2877 C2882 1.363 . S
C2878 H2855 0.950 . S
C2878 C2877 1.397 . S
C2878 C2879 1.334 . S
C2879 H2856 0.950 . S
C2879 C2878 1.334 . S
C2879 C2880 1.287 . S
C2880 C2879 1.287 . S
C2880 C2881 1.524 . S
C2880 H2899 0.913 . S
C2881 H2857 0.950 . S
C2881 C2880 1.524 . S
C2881 C2882 1.415 . S
C2882 H2858 0.950 . S
C2882 C2877 1.363 . S
C2882 C2881 1.415 . S
C2883 H2859 0.951 . S
C2883 C2884 1.366 . S
C2883 C2885 1.388 . S
C2884 C2883 1.366 . S
C2884 C2888 1.385 . S
C2885 H2860 0.951 . S
C2885 C2883 1.388 . S
C2885 C2886 1.366 . S
C2886 C2885 1.366 . S
C2886 C2887 1.414 . S
C2886 C2889 1.499 . S
C2887 H2861 0.950 . S
C2887 C2886 1.414 . S
C2887 C2888 1.374 . S
C2888 H2862 0.950 . S
C2888 C2884 1.385 . S
C2888 C2887 1.374 . S
C2889 C2886 1.499 . S
C2889 C2890 1.373 . S
C2889 C2891 1.389 . S
C2890 H2863 0.950 . S
C2890 C2876 1.377 . S
C2890 C2889 1.373 . S
C2891 C2875 1.377 . S
C2891 C2889 1.389 . S
C2891 C2892 1.524 1_655 S
C2892 C2891 1.524 1_455 S
C2892 C2893 1.397 . S
C2892 C2897 1.363 . S
C2893 H2864 0.950 . S
C2893 C2892 1.397 . S
C2893 C2894 1.334 . S
C2894 H2865 0.950 . S
C2894 C2893 1.334 . S
C2894 C2895 1.287 . S
C2895 C2894 1.287 . S
C2895 C2896 1.524 . S
C2895 H2898 0.999 . S
C2896 H2866 0.950 1_556 S
C2896 C2895 1.524 . S
C2896 C2897 1.415 . S
C2897 H2867 0.950 1_556 S
C2897 C2892 1.363 . S
C2897 C2896 1.415 . S
H2898 C2895 0.999 . S
H2899 C2880 0.913 . S
H2900 C2918 0.951 . S
H2901 C2920 0.951 . S
H2902 C2922 0.950 . S
H2903 C2923 0.950 . S
H2904 C2925 0.950 . S
H2905 C2928 0.950 . S
H2906 C2929 0.950 . S
H2907 C2931 0.950 . S
H2908 C2932 0.950 . S
H2909 C2933 0.951 . S
H2910 C2935 0.951 . S
H2911 C2937 0.950 . S
H2912 C2938 0.950 . S
H2913 C2940 0.950 . S
H2914 C2943 0.950 . S
H2915 C2944 0.950 . S
H2916 C2946 0.950 . S
H2917 C2947 0.950 . S
C2918 H2900 0.951 . S
C2918 C2919 1.366 . S
C2918 C2920 1.388 . S
C2919 C2918 1.366 . S
C2919 C2923 1.385 . S
C2920 H2901 0.951 . S
C2920 C2918 1.388 . S
C2920 C2921 1.366 . S
C2921 C2920 1.366 . S
C2921 C2922 1.414 . S
C2921 C2924 1.499 . S
C2922 H2902 0.950 . S
C2922 C2921 1.414 . S
C2922 C2923 1.374 . S
C2923 H2903 0.950 . S
C2923 C2919 1.385 . S
C2923 C2922 1.374 . S
C2924 C2921 1.499 . S
C2924 C2925 1.373 . S
C2924 C2926 1.389 . S
C2925 H2904 0.950 . S
C2925 C2924 1.373 . S
C2925 C2941 1.377 . S
C2926 C2924 1.389 . S
C2926 C2927 1.524 . S
C2926 C2940 1.377 . S
C2927 C2926 1.524 . S
C2927 C2928 1.397 . S
C2927 C2932 1.363 . S
C2928 H2905 0.950 . S
C2928 C2927 1.397 . S
C2928 C2929 1.334 . S
C2929 H2906 0.950 . S
C2929 C2928 1.334 . S
C2929 C2930 1.287 . S
C2930 C2929 1.287 . S
C2930 C2931 1.524 . S
C2930 H2949 0.913 . S
C2931 H2907 0.950 . S
C2931 C2930 1.524 . S
C2931 C2932 1.415 . S
C2932 H2908 0.950 . S
C2932 C2927 1.363 . S
C2932 C2931 1.415 . S
C2933 H2909 0.951 . S
C2933 C2934 1.366 . S
C2933 C2935 1.388 . S
C2934 C2933 1.366 . S
C2934 C2938 1.385 . S
C2935 H2910 0.951 . S
C2935 C2933 1.388 . S
C2935 C2936 1.366 . S
C2936 C2935 1.366 . S
C2936 C2937 1.414 . S
C2936 C2939 1.499 . S
C2937 H2911 0.950 . S
C2937 C2936 1.414 . S
C2937 C2938 1.374 . S
C2938 H2912 0.950 . S
C2938 C2934 1.385 . S
C2938 C2937 1.374 . S
C2939 C2936 1.499 . S
C2939 C2940 1.373 . S
C2939 C2941 1.389 . S
C2940 H2913 0.950 . S
C2940 C2926 1.377 . S
C2940 C2939 1.373 . S
C2941 C2925 1.377 . S
C2941 C2939 1.389 . S
C2941 C2942 1.524 . S
C2942 C2941 1.524 . S
C2942 C2943 1.397 . S
C2942 C2947 1.363 . S
C2943 H2914 0.950 . S
C2943 C2942 1.397 . S
C2943 C2944 1.334 . S
C2944 H2915 0.950 . S
C2944 C2943 1.334 . S
C2944 C2945 1.287 . S
C2945 C2944 1.287 . S
C2945 C2946 1.524 . S
C2945 H2948 0.999 . S
C2946 H2916 0.950 . S
C2946 C2945 1.524 . S
C2946 C2947 1.415 . S
C2947 H2917 0.950 . S
C2947 C2942 1.363 . S
C2947 C2946 1.415 . S
H2948 C2945 0.999 . S
H2949 C2930 0.913 . S
H2950 C2968 0.951 . S
H2951 C2970 0.951 . S
H2952 C2972 0.950 . S
H2953 C2973 0.950 . S
H2954 C2975 0.950 . S
H2955 C2978 0.950 . S
H2956 C2979 0.950 . S
H2957 C2981 0.950 . S
H2958 C2982 0.950 . S
H2959 C2983 0.951 . S
H2960 C2985 0.951 . S
H2961 C2987 0.950 . S
H2962 C2988 0.950 . S
H2963 C2990 0.950 . S
H2964 C2993 0.950 . S
H2965 C2994 0.950 . S
H2966 C2996 0.950 . S
H2967 C2997 0.950 1_454 S
C2968 H2950 0.951 . S
C2968 C2969 1.366 1_556 S
C2968 C2970 1.388 . S
C2969 C2968 1.366 1_554 S
C2969 C2973 1.385 . S
C2970 H2951 0.951 . S
C2970 C2968 1.388 . S
C2970 C2971 1.366 . S
C2971 C2970 1.366 . S
C2971 C2972 1.414 1_556 S
C2971 C2974 1.499 . S
C2972 H2952 0.950 . S
C2972 C2971 1.414 1_554 S
C2972 C2973 1.374 . S
C2973 H2953 0.950 . S
C2973 C2969 1.385 . S
C2973 C2972 1.374 . S
C2974 C2971 1.499 . S
C2974 C2975 1.373 . S
C2974 C2976 1.389 . S
C2975 H2954 0.950 . S
C2975 C2974 1.373 . S
C2975 C2991 1.377 . S
C2976 C2974 1.389 . S
C2976 C2977 1.524 . S
C2976 C2990 1.377 . S
C2977 C2976 1.524 . S
C2977 C2978 1.397 . S
C2977 C2982 1.363 . S
C2978 H2955 0.950 . S
C2978 C2977 1.397 . S
C2978 C2979 1.334 . S
C2979 H2956 0.950 . S
C2979 C2978 1.334 . S
C2979 C2980 1.287 . S
C2980 C2979 1.287 . S
C2980 C2981 1.524 . S
C2980 H2999 0.913 . S
C2981 H2957 0.950 . S
C2981 C2980 1.524 . S
C2981 C2982 1.415 . S
C2982 H2958 0.950 . S
C2982 C2977 1.363 . S
C2982 C2981 1.415 . S
C2983 H2959 0.951 . S
C2983 C2984 1.366 . S
C2983 C2985 1.388 . S
C2984 C2983 1.366 . S
C2984 C2988 1.385 . S
C2985 H2960 0.951 . S
C2985 C2983 1.388 . S
C2985 C2986 1.366 . S
C2986 C2985 1.366 . S
C2986 C2987 1.414 . S
C2986 C2989 1.499 . S
C2987 H2961 0.950 . S
C2987 C2986 1.414 . S
C2987 C2988 1.374 . S
C2988 H2962 0.950 . S
C2988 C2984 1.385 . S
C2988 C2987 1.374 . S
C2989 C2986 1.499 . S
C2989 C2990 1.373 . S
C2989 C2991 1.389 . S
C2990 H2963 0.950 . S
C2990 C2976 1.377 . S
C2990 C2989 1.373 . S
C2991 C2975 1.377 . S
C2991 C2989 1.389 . S
C2991 C2992 1.524 1_455 S
C2992 C2991 1.524 1_655 S
C2992 C2993 1.397 . S
C2992 C2997 1.363 . S
C2993 H2964 0.950 . S
C2993 C2992 1.397 . S
C2993 C2994 1.334 . S
C2994 H2965 0.950 . S
C2994 C2993 1.334 . S
C2994 C2995 1.287 . S
C2995 C2994 1.287 . S
C2995 C2996 1.524 1_556 S
C2995 H2998 0.999 . S
C2996 H2966 0.950 . S
C2996 C2995 1.524 1_554 S
C2996 C2997 1.415 1_554 S
C2997 H2967 0.950 1_656 S
C2997 C2992 1.363 . S
C2997 C2996 1.415 1_556 S
H2998 C2995 0.999 . S
H2999 C2980 0.913 . S
H3000 C3018 0.951 . S
H3001 C3020 0.951 . S
H3002 C3022 0.950 . S
H3003 C3023 0.950 . S
H3004 C3025 0.950 . S
H3005 C3028 0.950 . S
H3006 C3029 0.950 . S
H3007 C3031 0.950 . S
H3008 C3032 0.950 . S
H3009 C3033 0.951 . S
H3010 C3035 0.951 . S
H3011 C3037 0.950 . S
H3012 C3038 0.950 . S
H3013 C3040 0.950 . S
H3014 C3043 0.950 . S
H3015 C3044 0.950 . S
H3016 C3046 0.950 . S
H3017 C3047 0.950 . S
C3018 H3000 0.951 . S
C3018 C3019 1.366 . S
C3018 C3020 1.388 . S
C3019 C3018 1.366 . S
C3019 C3023 1.385 . S
C3020 H3001 0.951 . S
C3020 C3018 1.388 . S
C3020 C3021 1.366 . S
C3021 C3020 1.366 . S
C3021 C3022 1.414 . S
C3021 C3024 1.499 . S
C3022 H3002 0.950 . S
C3022 C3021 1.414 . S
C3022 C3023 1.374 . S
C3023 H3003 0.950 . S
C3023 C3019 1.385 . S
C3023 C3022 1.374 . S
C3024 C3021 1.499 . S
C3024 C3025 1.373 . S
C3024 C3026 1.389 . S
C3025 H3004 0.950 . S
C3025 C3024 1.373 . S
C3025 C3041 1.377 . S
C3026 C3024 1.389 . S
C3026 C3027 1.524 . S
C3026 C3040 1.377 . S
C3027 C3026 1.524 . S
C3027 C3028 1.397 . S
C3027 C3032 1.363 . S
C3028 H3005 0.950 . S
C3028 C3027 1.397 . S
C3028 C3029 1.334 . S
C3029 H3006 0.950 . S
C3029 C3028 1.334 . S
C3029 C3030 1.287 . S
C3030 C3029 1.287 . S
C3030 C3031 1.524 . S
C3030 H3049 0.913 . S
C3031 H3007 0.950 . S
C3031 C3030 1.524 . S
C3031 C3032 1.415 . S
C3032 H3008 0.950 . S
C3032 C3027 1.363 . S
C3032 C3031 1.415 . S
C3033 H3009 0.951 . S
C3033 C3034 1.366 . S
C3033 C3035 1.388 . S
C3034 C3033 1.366 . S
C3034 C3038 1.385 . S
C3035 H3010 0.951 . S
C3035 C3033 1.388 . S
C3035 C3036 1.366 . S
C3036 C3035 1.366 . S
C3036 C3037 1.414 . S
C3036 C3039 1.499 . S
C3037 H3011 0.950 . S
C3037 C3036 1.414 . S
C3037 C3038 1.374 . S
C3038 H3012 0.950 . S
C3038 C3034 1.385 . S
C3038 C3037 1.374 . S
C3039 C3036 1.499 . S
C3039 C3040 1.373 . S
C3039 C3041 1.389 . S
C3040 H3013 0.950 . S
C3040 C3026 1.377 . S
C3040 C3039 1.373 . S
C3041 C3025 1.377 . S
C3041 C3039 1.389 . S
C3041 C3042 1.524 . S
C3042 C3041 1.524 . S
C3042 C3043 1.397 . S
C3042 C3047 1.363 . S
C3043 H3014 0.950 . S
C3043 C3042 1.397 . S
C3043 C3044 1.334 . S
C3044 H3015 0.950 . S
C3044 C3043 1.334 . S
C3044 C3045 1.287 . S
C3045 C3044 1.287 . S
C3045 C3046 1.524 . S
C3045 H3048 0.999 . S
C3046 H3016 0.950 . S
C3046 C3045 1.524 . S
C3046 C3047 1.415 . S
C3047 H3017 0.950 . S
C3047 C3042 1.363 . S
C3047 C3046 1.415 . S
H3048 C3045 0.999 . S
H3049 C3030 0.913 . S
H3050 C3068 0.951 . S
H3051 C3070 0.951 . S
H3052 C3072 0.950 . S
H3053 C3073 0.950 . S
H3054 C3075 0.950 . S
H3055 C3078 0.950 . S
H3056 C3079 0.950 . S
H3057 C3081 0.950 . S
H3058 C3082 0.950 . S
H3059 C3083 0.951 . S
H3060 C3085 0.951 . S
H3061 C3087 0.950 . S
H3062 C3088 0.950 . S
H3063 C3090 0.950 . S
H3064 C3093 0.950 . S
H3065 C3094 0.950 . S
H3066 C3096 0.950 . S
H3067 C3097 0.952 1_556 S
C3068 H3050 0.951 . S
C3068 C3069 1.366 1_554 S
C3068 C3070 1.388 . S
C3069 C3068 1.366 1_556 S
C3069 C3073 1.385 . S
C3070 H3051 0.951 . S
C3070 C3068 1.388 . S
C3070 C3071 1.366 . S
C3071 C3070 1.366 . S
C3071 C3072 1.414 1_554 S
C3071 C3074 1.499 . S
C3072 H3052 0.950 . S
C3072 C3071 1.414 1_556 S
C3072 C3073 1.374 . S
C3073 H3053 0.950 . S
C3073 C3069 1.385 . S
C3073 C3072 1.374 . S
C3074 C3071 1.499 . S
C3074 C3075 1.373 . S
C3074 C3076 1.389 . S
C3075 H3054 0.950 . S
C3075 C3074 1.373 . S
C3075 C3091 1.377 . S
C3076 C3074 1.389 . S
C3076 C3077 1.524 . S
C3076 C3090 1.377 . S
C3077 C3076 1.524 . S
C3077 C3078 1.397 . S
C3077 C3082 1.363 . S
C3078 H3055 0.950 . S
C3078 C3077 1.397 . S
C3078 C3079 1.334 . S
C3079 H3056 0.950 . S
C3079 C3078 1.334 . S
C3079 C3080 1.287 . S
C3080 C3079 1.287 . S
C3080 C3081 1.524 . S
C3080 H3099 0.913 . S
C3081 H3057 0.950 . S
C3081 C3080 1.524 . S
C3081 C3082 1.415 . S
C3082 H3058 0.950 . S
C3082 C3077 1.363 . S
C3082 C3081 1.415 . S
C3083 H3059 0.951 . S
C3083 C3084 1.366 . S
C3083 C3085 1.388 . S
C3084 C3083 1.366 . S
C3084 C3088 1.385 . S
C3085 H3060 0.951 . S
C3085 C3083 1.388 . S
C3085 C3086 1.366 . S
C3086 C3085 1.366 . S
C3086 C3087 1.414 . S
C3086 C3089 1.499 . S
C3087 H3061 0.950 . S
C3087 C3086 1.414 . S
C3087 C3088 1.374 . S
C3088 H3062 0.950 . S
C3088 C3084 1.385 . S
C3088 C3087 1.374 . S
C3089 C3086 1.499 . S
C3089 C3090 1.373 . S
C3089 C3091 1.389 . S
C3090 H3063 0.950 . S
C3090 C3076 1.377 . S
C3090 C3089 1.373 . S
C3091 C3075 1.377 . S
C3091 C3089 1.389 . S
C3091 C3092 1.524 . S
C3092 C3091 1.524 . S
C3092 C3093 1.397 . S
C3092 C3097 1.358 . S
C3093 H3064 0.950 . S
C3093 C3092 1.397 . S
C3093 C3094 1.334 . S
C3094 H3065 0.950 . S
C3094 C3093 1.334 . S
C3094 C3095 1.274 1_554 S
C3095 C3094 1.274 1_556 S
C3095 C3096 1.530 . S
C3095 H3098 1.006 . S
C3096 H3066 0.950 . S
C3096 C3095 1.530 . S
C3096 C3097 1.417 1_556 S
C3097 H3067 0.952 1_554 S
C3097 C3092 1.358 . S
C3097 C3096 1.417 1_554 S
H3098 C3095 1.006 . S
H3099 C3080 0.913 . S
H3100 C3118 0.951 . S
H3101 C3120 0.951 . S
H3102 C3122 0.950 . S
H3103 C3123 0.950 . S
H3104 C3125 0.950 . S
H3105 C3128 0.950 . S
H3106 C3129 0.950 . S
H3107 C3131 0.950 . S
H3108 C3132 0.950 . S
H3109 C3133 0.951 . S
H3110 C3135 0.951 . S
H3111 C3137 0.950 . S
H3112 C3138 0.950 . S
H3113 C3140 0.950 . S
H3114 C3143 0.950 . S
H3115 C3144 0.950 . S
H3116 C3146 0.950 . S
H3117 C3147 0.950 . S
C3118 H3100 0.951 . S
C3118 C3119 1.366 . S
C3118 C3120 1.388 . S
C3119 C3118 1.366 . S
C3119 C3123 1.385 . S
C3120 H3101 0.951 . S
C3120 C3118 1.388 . S
C3120 C3121 1.366 . S
C3121 C3120 1.366 . S
C3121 C3122 1.414 . S
C3121 C3124 1.499 . S
C3122 H3102 0.950 . S
C3122 C3121 1.414 . S
C3122 C3123 1.374 . S
C3123 H3103 0.950 . S
C3123 C3119 1.385 . S
C3123 C3122 1.374 . S
C3124 C3121 1.499 . S
C3124 C3125 1.373 . S
C3124 C3126 1.389 . S
C3125 H3104 0.950 . S
C3125 C3124 1.373 . S
C3125 C3141 1.377 . S
C3126 C3124 1.389 . S
C3126 C3127 1.524 . S
C3126 C3140 1.377 . S
C3127 C3126 1.524 . S
C3127 C3128 1.397 . S
C3127 C3132 1.363 . S
C3128 H3105 0.950 . S
C3128 C3127 1.397 . S
C3128 C3129 1.334 . S
C3129 H3106 0.950 . S
C3129 C3128 1.334 . S
C3129 C3130 1.287 . S
C3130 C3129 1.287 . S
C3130 C3131 1.524 . S
C3130 H3149 0.913 . S
C3131 H3107 0.950 . S
C3131 C3130 1.524 . S
C3131 C3132 1.415 . S
C3132 H3108 0.950 . S
C3132 C3127 1.363 . S
C3132 C3131 1.415 . S
C3133 H3109 0.951 . S
C3133 C3134 1.366 . S
C3133 C3135 1.388 . S
C3134 C3133 1.366 . S
C3134 C3138 1.385 . S
C3135 H3110 0.951 . S
C3135 C3133 1.388 . S
C3135 C3136 1.366 . S
C3136 C3135 1.366 . S
C3136 C3137 1.414 . S
C3136 C3139 1.499 . S
C3137 H3111 0.950 . S
C3137 C3136 1.414 . S
C3137 C3138 1.374 . S
C3138 H3112 0.950 . S
C3138 C3134 1.385 . S
C3138 C3137 1.374 . S
C3139 C3136 1.499 . S
C3139 C3140 1.373 . S
C3139 C3141 1.389 . S
C3140 H3113 0.950 . S
C3140 C3126 1.377 . S
C3140 C3139 1.373 . S
C3141 C3125 1.377 . S
C3141 C3139 1.389 . S
C3141 C3142 1.524 . S
C3142 C3141 1.524 . S
C3142 C3143 1.397 . S
C3142 C3147 1.363 . S
C3143 H3114 0.950 . S
C3143 C3142 1.397 . S
C3143 C3144 1.334 . S
C3144 H3115 0.950 . S
C3144 C3143 1.334 . S
C3144 C3145 1.287 . S
C3145 C3144 1.287 . S
C3145 C3146 1.524 . S
C3145 H3148 0.999 . S
C3146 H3116 0.950 . S
C3146 C3145 1.524 . S
C3146 C3147 1.415 . S
C3147 H3117 0.950 . S
C3147 C3142 1.363 . S
C3147 C3146 1.415 . S
H3148 C3145 0.999 . S
H3149 C3130 0.913 . S
H3150 C3168 0.951 . S
H3151 C3170 0.951 . S
H3152 C3172 0.950 . S
H3153 C3173 0.950 . S
H3154 C3175 0.950 . S
H3155 C3178 0.950 1_554 S
H3156 C3179 0.950 . S
H3157 C3181 0.950 . S
H3158 C3182 0.950 . S
H3159 C3183 0.951 . S
H3160 C3185 0.951 . S
H3161 C3187 0.950 . S
H3162 C3188 0.950 . S
H3163 C3190 0.950 . S
H3164 C3193 0.950 . S
H3165 C3194 0.950 . S
H3166 C3196 0.950 . S
H3167 C3197 0.950 . S
C3168 H3150 0.951 . S
C3168 C3169 1.366 . S
C3168 C3170 1.388 . S
C3169 C3168 1.366 . S
C3169 C3173 1.385 1_556 S
C3170 H3151 0.951 . S
C3170 C3168 1.388 . S
C3170 C3171 1.366 1_556 S
C3171 C3170 1.366 1_554 S
C3171 C3172 1.414 . S
C3171 C3174 1.499 . S
C3172 H3152 0.950 . S
C3172 C3171 1.414 . S
C3172 C3173 1.374 . S
C3173 H3153 0.950 . S
C3173 C3169 1.385 1_554 S
C3173 C3172 1.374 . S
C3174 C3171 1.499 . S
C3174 C3175 1.373 . S
C3174 C3176 1.389 . S
C3175 H3154 0.950 . S
C3175 C3174 1.373 . S
C3175 C3191 1.377 . S
C3176 C3174 1.389 . S
C3176 C3177 1.506 1_554 S
C3176 C3190 1.377 . S
C3177 C3176 1.506 1_556 S
C3177 C3178 1.399 . S
C3177 C3182 1.377 . S
C3178 H3155 0.950 1_556 S
C3178 C3177 1.399 . S
C3178 C3179 1.334 . S
C3179 H3156 0.950 . S
C3179 C3178 1.334 . S
C3179 C3180 1.287 . S
C3180 C3179 1.287 . S
C3180 C3181 1.524 . S
C3180 H3199 0.913 . S
C3181 H3157 0.950 . S
C3181 C3180 1.524 . S
C3181 C3182 1.415 . S
C3182 H3158 0.950 . S
C3182 C3177 1.377 . S
C3182 C3181 1.415 . S
C3183 H3159 0.951 . S
C3183 C3184 1.366 . S
C3183 C3185 1.388 . S
C3184 C3183 1.366 . S
C3184 C3188 1.385 . S
C3185 H3160 0.951 . S
C3185 C3183 1.388 . S
C3185 C3186 1.366 . S
C3186 C3185 1.366 . S
C3186 C3187 1.414 . S
C3186 C3189 1.499 . S
C3187 H3161 0.950 . S
C3187 C3186 1.414 . S
C3187 C3188 1.374 . S
C3188 H3162 0.950 . S
C3188 C3184 1.385 . S
C3188 C3187 1.374 . S
C3189 C3186 1.499 . S
C3189 C3190 1.373 . S
C3189 C3191 1.389 . S
C3190 H3163 0.950 . S
C3190 C3176 1.377 . S
C3190 C3189 1.373 . S
C3191 C3175 1.377 . S
C3191 C3189 1.389 . S
C3191 C3192 1.524 . S
C3192 C3191 1.524 . S
C3192 C3193 1.397 . S
C3192 C3197 1.363 . S
C3193 H3164 0.950 . S
C3193 C3192 1.397 . S
C3193 C3194 1.334 . S
C3194 H3165 0.950 . S
C3194 C3193 1.334 . S
C3194 C3195 1.287 . S
C3195 C3194 1.287 . S
C3195 C3196 1.524 . S
C3195 H3198 0.999 . S
C3196 H3166 0.950 . S
C3196 C3195 1.524 . S
C3196 C3197 1.415 . S
C3197 H3167 0.950 . S
C3197 C3192 1.363 . S
C3197 C3196 1.415 . S
H3198 C3195 0.999 . S
H3199 C3180 0.913 . S
H3200 C3218 0.951 . S
H3201 C3220 0.951 . S
H3202 C3222 0.950 . S
H3203 C3223 0.950 . S
H3204 C3225 0.950 . S
H3205 C3228 0.950 . S
H3206 C3229 0.950 . S
H3207 C3231 0.950 . S
H3208 C3232 0.950 . S
H3209 C3233 0.951 . S
H3210 C3235 0.951 . S
H3211 C3237 0.950 . S
H3212 C3238 0.950 . S
H3213 C3240 0.950 . S
H3214 C3243 0.950 . S
H3215 C3244 0.950 . S
H3216 C3246 0.950 . S
H3217 C3247 0.950 . S
C3218 H3200 0.951 . S
C3218 C3219 1.366 . S
C3218 C3220 1.388 . S
C3219 C3218 1.366 . S
C3219 C3223 1.385 . S
C3220 H3201 0.951 . S
C3220 C3218 1.388 . S
C3220 C3221 1.366 . S
C3221 C3220 1.366 . S
C3221 C3222 1.414 . S
C3221 C3224 1.499 . S
C3222 H3202 0.950 . S
C3222 C3221 1.414 . S
C3222 C3223 1.374 . S
C3223 H3203 0.950 . S
C3223 C3219 1.385 . S
C3223 C3222 1.374 . S
C3224 C3221 1.499 . S
C3224 C3225 1.373 . S
C3224 C3226 1.389 . S
C3225 H3204 0.950 . S
C3225 C3224 1.373 . S
C3225 C3241 1.377 . S
C3226 C3224 1.389 . S
C3226 C3227 1.524 . S
C3226 C3240 1.377 . S
C3227 C3226 1.524 . S
C3227 C3228 1.397 . S
C3227 C3232 1.363 . S
C3228 H3205 0.950 . S
C3228 C3227 1.397 . S
C3228 C3229 1.334 . S
C3229 H3206 0.950 . S
C3229 C3228 1.334 . S
C3229 C3230 1.287 . S
C3230 C3229 1.287 . S
C3230 C3231 1.524 . S
C3230 H3249 0.913 . S
C3231 H3207 0.950 . S
C3231 C3230 1.524 . S
C3231 C3232 1.415 . S
C3232 H3208 0.950 . S
C3232 C3227 1.363 . S
C3232 C3231 1.415 . S
C3233 H3209 0.951 . S
C3233 C3234 1.366 . S
C3233 C3235 1.388 . S
C3234 C3233 1.366 . S
C3234 C3238 1.385 . S
C3235 H3210 0.951 . S
C3235 C3233 1.388 . S
C3235 C3236 1.366 . S
C3236 C3235 1.366 . S
C3236 C3237 1.414 . S
C3236 C3239 1.499 . S
C3237 H3211 0.950 . S
C3237 C3236 1.414 . S
C3237 C3238 1.374 . S
C3238 H3212 0.950 . S
C3238 C3234 1.385 . S
C3238 C3237 1.374 . S
C3239 C3236 1.499 . S
C3239 C3240 1.373 . S
C3239 C3241 1.389 . S
C3240 H3213 0.950 . S
C3240 C3226 1.377 . S
C3240 C3239 1.373 . S
C3241 C3225 1.377 . S
C3241 C3239 1.389 . S
C3241 C3242 1.524 . S
C3242 C3241 1.524 . S
C3242 C3243 1.397 . S
C3242 C3247 1.363 . S
C3243 H3214 0.950 . S
C3243 C3242 1.397 . S
C3243 C3244 1.334 . S
C3244 H3215 0.950 . S
C3244 C3243 1.334 . S
C3244 C3245 1.287 . S
C3245 C3244 1.287 . S
C3245 C3246 1.524 . S
C3245 H3248 0.999 . S
C3246 H3216 0.950 . S
C3246 C3245 1.524 . S
C3246 C3247 1.415 . S
C3247 H3217 0.950 . S
C3247 C3242 1.363 . S
C3247 C3246 1.415 . S
H3248 C3245 0.999 . S
H3249 C3230 0.913 . S
H3250 C3268 0.951 . S
H3251 C3270 0.951 . S
H3252 C3272 0.950 . S
H3253 C3273 0.950 . S
H3254 C3275 0.950 . S
H3255 C3278 0.950 . S
H3256 C3279 0.950 . S
H3257 C3281 0.950 . S
H3258 C3282 0.950 . S
H3259 C3283 0.951 . S
H3260 C3285 0.951 . S
H3261 C3287 0.950 . S
H3262 C3288 0.950 . S
H3263 C3290 0.950 . S
H3264 C3293 0.950 . S
H3265 C3294 0.950 . S
H3266 C3296 0.950 . S
H3267 C3297 0.950 . S
C3268 H3250 0.951 . S
C3268 C3269 1.366 . S
C3268 C3270 1.388 . S
C3269 C3268 1.366 . S
C3269 C3273 1.385 . S
C3270 H3251 0.951 . S
C3270 C3268 1.388 . S
C3270 C3271 1.366 . S
C3271 C3270 1.366 . S
C3271 C3272 1.414 . S
C3271 C3274 1.499 . S
C3272 H3252 0.950 . S
C3272 C3271 1.414 . S
C3272 C3273 1.374 . S
C3273 H3253 0.950 . S
C3273 C3269 1.385 . S
C3273 C3272 1.374 . S
C3274 C3271 1.499 . S
C3274 C3275 1.373 . S
C3274 C3276 1.389 . S
C3275 H3254 0.950 . S
C3275 C3274 1.373 . S
C3275 C3291 1.377 . S
C3276 C3274 1.389 . S
C3276 C3277 1.524 . S
C3276 C3290 1.377 . S
C3277 C3276 1.524 . S
C3277 C3278 1.397 . S
C3277 C3282 1.363 . S
C3278 H3255 0.950 . S
C3278 C3277 1.397 . S
C3278 C3279 1.334 . S
C3279 H3256 0.950 . S
C3279 C3278 1.334 . S
C3279 C3280 1.287 . S
C3280 C3279 1.287 . S
C3280 C3281 1.524 . S
C3280 H3299 0.913 . S
C3281 H3257 0.950 . S
C3281 C3280 1.524 . S
C3281 C3282 1.415 . S
C3282 H3258 0.950 . S
C3282 C3277 1.363 . S
C3282 C3281 1.415 . S
C3283 H3259 0.951 . S
C3283 C3284 1.366 . S
C3283 C3285 1.388 . S
C3284 C3283 1.366 . S
C3284 C3288 1.385 . S
C3285 H3260 0.951 . S
C3285 C3283 1.388 . S
C3285 C3286 1.366 . S
C3286 C3285 1.366 . S
C3286 C3287 1.414 . S
C3286 C3289 1.499 . S
C3287 H3261 0.950 . S
C3287 C3286 1.414 . S
C3287 C3288 1.374 . S
C3288 H3262 0.950 . S
C3288 C3284 1.385 . S
C3288 C3287 1.374 . S
C3289 C3286 1.499 . S
C3289 C3290 1.373 . S
C3289 C3291 1.389 . S
C3290 H3263 0.950 . S
C3290 C3276 1.377 . S
C3290 C3289 1.373 . S
C3291 C3275 1.377 . S
C3291 C3289 1.389 . S
C3291 C3292 1.524 . S
C3292 C3291 1.524 . S
C3292 C3293 1.397 . S
C3292 C3297 1.363 . S
C3293 H3264 0.950 . S
C3293 C3292 1.397 . S
C3293 C3294 1.334 . S
C3294 H3265 0.950 . S
C3294 C3293 1.334 . S
C3294 C3295 1.287 . S
C3295 C3294 1.287 . S
C3295 C3296 1.524 . S
C3295 H3298 0.999 . S
C3296 H3266 0.950 . S
C3296 C3295 1.524 . S
C3296 C3297 1.415 . S
C3297 H3267 0.950 . S
C3297 C3292 1.363 . S
C3297 C3296 1.415 . S
H3298 C3295 0.999 . S
H3299 C3280 0.913 . S
H3300 C3318 0.951 . S
H3301 C3320 0.951 . S
H3302 C3322 0.950 . S
H3303 C3323 0.950 . S
H3304 C3325 0.950 . S
H3305 C3328 0.950 . S
H3306 C3329 0.950 . S
H3307 C3331 0.950 . S
H3308 C3332 0.950 . S
H3309 C3333 0.951 . S
H3310 C3335 0.951 . S
H3311 C3337 0.950 . S
H3312 C3338 0.950 . S
H3313 C3340 0.950 . S
H3314 C3343 0.950 . S
H3315 C3344 0.950 . S
H3316 C3346 0.950 . S
H3317 C3347 0.950 . S
C3318 H3300 0.951 . S
C3318 C3319 1.366 . S
C3318 C3320 1.388 . S
C3319 C3318 1.366 . S
C3319 C3323 1.385 . S
C3320 H3301 0.951 . S
C3320 C3318 1.388 . S
C3320 C3321 1.366 . S
C3321 C3320 1.366 . S
C3321 C3322 1.414 . S
C3321 C3324 1.499 . S
C3322 H3302 0.950 . S
C3322 C3321 1.414 . S
C3322 C3323 1.374 . S
C3323 H3303 0.950 . S
C3323 C3319 1.385 . S
C3323 C3322 1.374 . S
C3324 C3321 1.499 . S
C3324 C3325 1.373 . S
C3324 C3326 1.389 . S
C3325 H3304 0.950 . S
C3325 C3324 1.373 . S
C3325 C3341 1.377 . S
C3326 C3324 1.389 . S
C3326 C3327 1.524 . S
C3326 C3340 1.377 . S
C3327 C3326 1.524 . S
C3327 C3328 1.397 . S
C3327 C3332 1.363 . S
C3328 H3305 0.950 . S
C3328 C3327 1.397 . S
C3328 C3329 1.334 . S
C3329 H3306 0.950 . S
C3329 C3328 1.334 . S
C3329 C3330 1.287 . S
C3330 C3329 1.287 . S
C3330 C3331 1.524 . S
C3330 H3349 0.913 . S
C3331 H3307 0.950 . S
C3331 C3330 1.524 . S
C3331 C3332 1.415 . S
C3332 H3308 0.950 . S
C3332 C3327 1.363 . S
C3332 C3331 1.415 . S
C3333 H3309 0.951 . S
C3333 C3334 1.366 . S
C3333 C3335 1.388 . S
C3334 C3333 1.366 . S
C3334 C3338 1.385 . S
C3335 H3310 0.951 . S
C3335 C3333 1.388 . S
C3335 C3336 1.366 . S
C3336 C3335 1.366 . S
C3336 C3337 1.414 . S
C3336 C3339 1.499 . S
C3337 H3311 0.950 . S
C3337 C3336 1.414 . S
C3337 C3338 1.374 . S
C3338 H3312 0.950 . S
C3338 C3334 1.385 . S
C3338 C3337 1.374 . S
C3339 C3336 1.499 . S
C3339 C3340 1.373 . S
C3339 C3341 1.389 . S
C3340 H3313 0.950 . S
C3340 C3326 1.377 . S
C3340 C3339 1.373 . S
C3341 C3325 1.377 . S
C3341 C3339 1.389 . S
C3341 C3342 1.524 . S
C3342 C3341 1.524 . S
C3342 C3343 1.397 . S
C3342 C3347 1.363 . S
C3343 H3314 0.950 . S
C3343 C3342 1.397 . S
C3343 C3344 1.334 . S
C3344 H3315 0.950 . S
C3344 C3343 1.334 . S
C3344 C3345 1.287 . S
C3345 C3344 1.287 . S
C3345 C3346 1.524 . S
C3345 H3348 0.999 . S
C3346 H3316 0.950 . S
C3346 C3345 1.524 . S
C3346 C3347 1.415 . S
C3347 H3317 0.950 . S
C3347 C3342 1.363 . S
C3347 C3346 1.415 . S
H3348 C3345 0.999 . S
H3349 C3330 0.913 . S
H3350 C3368 0.951 . S
H3351 C3370 0.951 . S
H3352 C3372 0.950 . S
H3353 C3373 0.950 . S
H3354 C3375 0.950 . S
H3355 C3378 0.950 . S
H3356 C3379 0.950 . S
H3357 C3381 0.950 . S
H3358 C3382 0.950 . S
H3359 C3383 0.951 . S
H3360 C3385 0.951 . S
H3361 C3387 0.950 . S
H3362 C3388 0.950 . S
H3363 C3390 0.950 . S
H3364 C3393 0.950 . S
H3365 C3394 0.950 . S
H3366 C3396 0.950 . S
H3367 C3397 0.950 . S
C3368 H3350 0.951 . S
C3368 C3369 1.366 . S
C3368 C3370 1.388 . S
C3369 C3368 1.366 . S
C3369 C3373 1.385 . S
C3370 H3351 0.951 . S
C3370 C3368 1.388 . S
C3370 C3371 1.366 . S
C3371 C3370 1.366 . S
C3371 C3372 1.414 . S
C3371 C3374 1.499 . S
C3372 H3352 0.950 . S
C3372 C3371 1.414 . S
C3372 C3373 1.374 . S
C3373 H3353 0.950 . S
C3373 C3369 1.385 . S
C3373 C3372 1.374 . S
C3374 C3371 1.499 . S
C3374 C3375 1.373 . S
C3374 C3376 1.389 . S
C3375 H3354 0.950 . S
C3375 C3374 1.373 . S
C3375 C3391 1.377 . S
C3376 C3374 1.389 . S
C3376 C3377 1.524 . S
C3376 C3390 1.377 . S
C3377 C3376 1.524 . S
C3377 C3378 1.397 . S
C3377 C3382 1.363 . S
C3378 H3355 0.950 . S
C3378 C3377 1.397 . S
C3378 C3379 1.334 . S
C3379 H3356 0.950 . S
C3379 C3378 1.334 . S
C3379 C3380 1.287 . S
C3380 C3379 1.287 . S
C3380 C3381 1.524 . S
C3380 H3399 0.913 . S
C3381 H3357 0.950 . S
C3381 C3380 1.524 . S
C3381 C3382 1.415 . S
C3382 H3358 0.950 . S
C3382 C3377 1.363 . S
C3382 C3381 1.415 . S
C3383 H3359 0.951 . S
C3383 C3384 1.366 . S
C3383 C3385 1.388 . S
C3384 C3383 1.366 . S
C3384 C3388 1.385 . S
C3385 H3360 0.951 . S
C3385 C3383 1.388 . S
C3385 C3386 1.366 . S
C3386 C3385 1.366 . S
C3386 C3387 1.414 . S
C3386 C3389 1.499 . S
C3387 H3361 0.950 . S
C3387 C3386 1.414 . S
C3387 C3388 1.374 . S
C3388 H3362 0.950 . S
C3388 C3384 1.385 . S
C3388 C3387 1.374 . S
C3389 C3386 1.499 . S
C3389 C3390 1.373 . S
C3389 C3391 1.389 . S
C3390 H3363 0.950 . S
C3390 C3376 1.377 . S
C3390 C3389 1.373 . S
C3391 C3375 1.377 . S
C3391 C3389 1.389 . S
C3391 C3392 1.524 . S
C3392 C3391 1.524 . S
C3392 C3393 1.397 . S
C3392 C3397 1.363 . S
C3393 H3364 0.950 . S
C3393 C3392 1.397 . S
C3393 C3394 1.334 . S
C3394 H3365 0.950 . S
C3394 C3393 1.334 . S
C3394 C3395 1.287 . S
C3395 C3394 1.287 . S
C3395 C3396 1.524 . S
C3395 H3398 0.999 . S
C3396 H3366 0.950 . S
C3396 C3395 1.524 . S
C3396 C3397 1.415 . S
C3397 H3367 0.950 . S
C3397 C3392 1.363 . S
C3397 C3396 1.415 . S
H3398 C3395 0.999 . S
H3399 C3380 0.913 . S
H3400 C3418 0.951 . S
H3401 C3420 0.951 . S
H3402 C3422 0.950 . S
H3403 C3423 0.950 . S
H3404 C3425 0.945 1_554 S
H3405 C3428 0.950 . S
H3406 C3429 0.950 . S
H3407 C3431 0.950 . S
H3408 C3432 0.950 . S
H3409 C3433 0.951 . S
H3410 C3435 0.951 . S
H3411 C3437 0.950 . S
H3412 C3438 0.950 . S
H3413 C3440 0.950 . S
H3414 C3443 0.950 . S
H3415 C3444 0.950 . S
H3416 C3446 0.950 . S
H3417 C3447 0.950 . S
C3418 H3400 0.951 . S
C3418 C3419 1.366 . S
C3418 C3420 1.388 . S
C3419 C3418 1.366 . S
C3419 C3423 1.385 . S
C3420 H3401 0.951 . S
C3420 C3418 1.388 . S
C3420 C3421 1.366 . S
C3421 C3420 1.366 . S
C3421 C3422 1.414 . S
C3421 C3424 1.499 . S
C3422 H3402 0.950 . S
C3422 C3421 1.414 . S
C3422 C3423 1.374 . S
C3423 H3403 0.950 . S
C3423 C3419 1.385 . S
C3423 C3422 1.374 . S
C3424 C3421 1.499 . S
C3424 C3425 1.373 . S
C3424 C3426 1.389 . S
C3425 H3404 0.945 1_556 S
C3425 C3424 1.373 . S
C3425 C3441 1.377 . S
C3426 C3424 1.389 . S
C3426 C3427 1.524 . S
C3426 C3440 1.377 . S
C3427 C3426 1.524 . S
C3427 C3428 1.397 . S
C3427 C3432 1.363 . S
C3428 H3405 0.950 . S
C3428 C3427 1.397 . S
C3428 C3429 1.334 . S
C3429 H3406 0.950 . S
C3429 C3428 1.334 . S
C3429 C3430 1.287 . S
C3430 C3429 1.287 . S
C3430 C3431 1.524 . S
C3430 H3449 0.913 . S
C3431 H3407 0.950 . S
C3431 C3430 1.524 . S
C3431 C3432 1.415 . S
C3432 H3408 0.950 . S
C3432 C3427 1.363 . S
C3432 C3431 1.415 . S
C3433 H3409 0.951 . S
C3433 C3434 1.366 . S
C3433 C3435 1.388 . S
C3434 C3433 1.366 . S
C3434 C3438 1.385 . S
C3435 H3410 0.951 . S
C3435 C3433 1.388 . S
C3435 C3436 1.366 . S
C3436 C3435 1.366 . S
C3436 C3437 1.414 . S
C3436 C3439 1.499 . S
C3437 H3411 0.950 . S
C3437 C3436 1.414 . S
C3437 C3438 1.374 . S
C3438 H3412 0.950 . S
C3438 C3434 1.385 . S
C3438 C3437 1.374 . S
C3439 C3436 1.499 . S
C3439 C3440 1.373 . S
C3439 C3441 1.389 . S
C3440 H3413 0.950 . S
C3440 C3426 1.377 . S
C3440 C3439 1.373 . S
C3441 C3425 1.377 . S
C3441 C3439 1.389 . S
C3441 C3442 1.524 1_556 S
C3442 C3441 1.524 1_554 S
C3442 C3443 1.397 . S
C3442 C3447 1.363 . S
C3443 H3414 0.950 . S
C3443 C3442 1.397 . S
C3443 C3444 1.334 . S
C3444 H3415 0.950 . S
C3444 C3443 1.334 . S
C3444 C3445 1.287 . S
C3445 C3444 1.287 . S
C3445 C3446 1.524 . S
C3445 H3448 0.999 . S
C3446 H3416 0.950 . S
C3446 C3445 1.524 . S
C3446 C3447 1.415 . S
C3447 H3417 0.950 . S
C3447 C3442 1.363 . S
C3447 C3446 1.415 . S
H3448 C3445 0.999 . S
H3449 C3430 0.913 . S
H3450 C3468 0.951 . S
H3451 C3470 0.951 . S
H3452 C3472 0.950 . S
H3453 C3473 0.950 . S
H3454 C3475 0.950 . S
H3455 C3478 0.950 . S
H3456 C3479 0.950 . S
H3457 C3481 0.950 . S
H3458 C3482 0.950 . S
H3459 C3483 0.951 . S
H3460 C3485 0.951 . S
H3461 C3487 0.950 . S
H3462 C3488 0.950 . S
H3463 C3490 0.950 . S
H3464 C3493 0.950 . S
H3465 C3494 0.950 . S
H3466 C3496 0.950 . S
H3467 C3497 0.950 . S
C3468 H3450 0.951 . S
C3468 C3469 1.366 . S
C3468 C3470 1.388 . S
C3469 C3468 1.366 . S
C3469 C3473 1.385 . S
C3470 H3451 0.951 . S
C3470 C3468 1.388 . S
C3470 C3471 1.366 . S
C3471 C3470 1.366 . S
C3471 C3472 1.414 . S
C3471 C3474 1.499 . S
C3472 H3452 0.950 . S
C3472 C3471 1.414 . S
C3472 C3473 1.374 . S
C3473 H3453 0.950 . S
C3473 C3469 1.385 . S
C3473 C3472 1.374 . S
C3474 C3471 1.499 . S
C3474 C3475 1.373 . S
C3474 C3476 1.389 . S
C3475 H3454 0.950 . S
C3475 C3474 1.373 . S
C3475 C3491 1.377 . S
C3476 C3474 1.389 . S
C3476 C3477 1.524 . S
C3476 C3490 1.377 . S
C3477 C3476 1.524 . S
C3477 C3478 1.397 . S
C3477 C3482 1.363 . S
C3478 H3455 0.950 . S
C3478 C3477 1.397 . S
C3478 C3479 1.334 . S
C3479 H3456 0.950 . S
C3479 C3478 1.334 . S
C3479 C3480 1.287 . S
C3480 C3479 1.287 . S
C3480 C3481 1.524 . S
C3480 H3499 0.913 . S
C3481 H3457 0.950 . S
C3481 C3480 1.524 . S
C3481 C3482 1.415 . S
C3482 H3458 0.950 . S
C3482 C3477 1.363 . S
C3482 C3481 1.415 . S
C3483 H3459 0.951 . S
C3483 C3484 1.366 . S
C3483 C3485 1.388 . S
C3484 C3483 1.366 . S
C3484 C3488 1.385 . S
C3485 H3460 0.951 . S
C3485 C3483 1.388 . S
C3485 C3486 1.366 . S
C3486 C3485 1.366 . S
C3486 C3487 1.414 . S
C3486 C3489 1.499 . S
C3487 H3461 0.950 . S
C3487 C3486 1.414 . S
C3487 C3488 1.374 . S
C3488 H3462 0.950 . S
C3488 C3484 1.385 . S
C3488 C3487 1.374 . S
C3489 C3486 1.499 . S
C3489 C3490 1.373 . S
C3489 C3491 1.389 . S
C3490 H3463 0.950 . S
C3490 C3476 1.377 . S
C3490 C3489 1.373 . S
C3491 C3475 1.377 . S
C3491 C3489 1.389 . S
C3491 C3492 1.524 . S
C3492 C3491 1.524 . S
C3492 C3493 1.397 . S
C3492 C3497 1.363 . S
C3493 H3464 0.950 . S
C3493 C3492 1.397 . S
C3493 C3494 1.334 . S
C3494 H3465 0.950 . S
C3494 C3493 1.334 . S
C3494 C3495 1.287 . S
C3495 C3494 1.287 . S
C3495 C3496 1.524 . S
C3495 H3498 0.999 . S
C3496 H3466 0.950 . S
C3496 C3495 1.524 . S
C3496 C3497 1.415 . S
C3497 H3467 0.950 . S
C3497 C3492 1.363 . S
C3497 C3496 1.415 . S
H3498 C3495 0.999 . S
H3499 C3480 0.913 . S
H3500 C3518 0.951 . S
H3501 C3520 0.951 . S
H3502 C3522 0.951 1_556 S
H3503 C3523 0.950 . S
H3504 C3525 0.950 . S
H3505 C3528 0.950 . S
H3506 C3529 0.950 . S
H3507 C3531 0.950 . S
H3508 C3532 0.950 . S
H3509 C3533 0.947 . S
H3510 C3535 0.951 1_556 S
H3511 C3537 0.950 . S
H3512 C3538 0.950 . S
H3513 C3540 0.950 . S
H3514 C3543 0.950 . S
H3515 C3544 0.950 . S
H3516 C3546 0.950 . S
H3517 C3547 0.950 . S
C3518 H3500 0.951 . S
C3518 C3519 1.366 . S
C3518 C3520 1.388 . S
C3519 C3518 1.366 . S
C3519 C3523 1.385 . S
C3520 H3501 0.951 . S
C3520 C3518 1.388 . S
C3520 C3521 1.366 . S
C3521 C3520 1.366 . S
C3521 C3522 1.414 . S
C3521 C3524 1.499 . S
C3522 H3502 0.951 1_554 S
C3522 C3521 1.414 . S
C3522 C3523 1.374 . S
C3523 H3503 0.950 . S
C3523 C3519 1.385 . S
C3523 C3522 1.374 . S
C3524 C3521 1.499 . S
C3524 C3525 1.373 . S
C3524 C3526 1.389 . S
C3525 H3504 0.950 . S
C3525 C3524 1.373 . S
C3525 C3541 1.377 . S
C3526 C3524 1.389 . S
C3526 C3527 1.524 . S
C3526 C3540 1.377 . S
C3527 C3526 1.524 . S
C3527 C3528 1.397 . S
C3527 C3532 1.363 . S
C3528 H3505 0.950 . S
C3528 C3527 1.397 . S
C3528 C3529 1.334 . S
C3529 H3506 0.950 . S
C3529 C3528 1.334 . S
C3529 C3530 1.287 . S
C3530 C3529 1.287 . S
C3530 C3531 1.524 . S
C3530 H3549 0.913 . S
C3531 H3507 0.950 . S
C3531 C3530 1.524 . S
C3531 C3532 1.415 . S
C3532 H3508 0.950 . S
C3532 C3527 1.363 . S
C3532 C3531 1.415 . S
C3533 H3509 0.947 . S
C3533 C3534 1.369 1_556 S
C3533 C3535 1.388 1_556 S
C3534 C3533 1.369 1_554 S
C3534 C3538 1.385 . S
C3535 H3510 0.951 1_554 S
C3535 C3533 1.388 1_554 S
C3535 C3536 1.366 . S
C3536 C3535 1.366 . S
C3536 C3537 1.414 . S
C3536 C3539 1.499 . S
C3537 H3511 0.950 . S
C3537 C3536 1.414 . S
C3537 C3538 1.374 . S
C3538 H3512 0.950 . S
C3538 C3534 1.385 . S
C3538 C3537 1.374 . S
C3539 C3536 1.499 . S
C3539 C3540 1.373 . S
C3539 C3541 1.389 . S
C3540 H3513 0.950 . S
C3540 C3526 1.377 . S
C3540 C3539 1.373 . S
C3541 C3525 1.377 . S
C3541 C3539 1.389 . S
C3541 C3542 1.524 . S
C3542 C3541 1.524 . S
C3542 C3543 1.397 . S
C3542 C3547 1.363 1_554 S
C3543 H3514 0.950 . S
C3543 C3542 1.397 . S
C3543 C3544 1.334 . S
C3544 H3515 0.950 . S
C3544 C3543 1.334 . S
C3544 C3545 1.287 1_554 S
C3545 C3544 1.287 1_556 S
C3545 C3546 1.524 . S
C3545 H3548 0.999 . S
C3546 H3516 0.950 . S
C3546 C3545 1.524 . S
C3546 C3547 1.415 . S
C3547 H3517 0.950 . S
C3547 C3542 1.363 1_556 S
C3547 C3546 1.415 . S
H3548 C3545 0.999 . S
H3549 C3530 0.913 . S
H3550 C3568 0.951 . S
H3551 C3570 0.951 . S
H3552 C3572 0.950 . S
H3553 C3573 0.950 . S
H3554 C3575 0.950 . S
H3555 C3578 0.950 . S
H3556 C3579 0.950 . S
H3557 C3581 0.950 . S
H3558 C3582 0.950 . S
H3559 C3583 0.951 . S
H3560 C3585 0.951 . S
H3561 C3587 0.950 . S
H3562 C3588 0.950 . S
H3563 C3590 0.950 1_556 S
H3564 C3593 0.950 . S
H3565 C3594 0.950 . S
H3566 C3596 0.950 . S
H3567 C3597 0.950 . S
C3568 H3550 0.951 . S
C3568 C3569 1.366 . S
C3568 C3570 1.388 . S
C3569 C3568 1.366 . S
C3569 C3573 1.385 1_545 S
C3570 H3551 0.951 . S
C3570 C3568 1.388 . S
C3570 C3571 1.366 1_545 S
C3571 C3570 1.366 1_565 S
C3571 C3572 1.414 . S
C3571 C3574 1.499 . S
C3572 H3552 0.950 . S
C3572 C3571 1.414 . S
C3572 C3573 1.374 . S
C3573 H3553 0.950 . S
C3573 C3569 1.385 1_565 S
C3573 C3572 1.374 . S
C3574 C3571 1.499 . S
C3574 C3575 1.373 . S
C3574 C3576 1.389 . S
C3575 H3554 0.950 . S
C3575 C3574 1.373 . S
C3575 C3591 1.377 . S
C3576 C3574 1.389 . S
C3576 C3577 1.524 1_554 S
C3576 C3590 1.377 . S
C3577 C3576 1.524 1_556 S
C3577 C3578 1.397 . S
C3577 C3582 1.363 1_565 S
C3578 H3555 0.950 . S
C3578 C3577 1.397 . S
C3578 C3579 1.334 . S
C3579 H3556 0.950 . S
C3579 C3578 1.334 . S
C3579 C3580 1.287 1_565 S
C3580 C3579 1.287 1_545 S
C3580 C3581 1.524 . S
C3580 H3599 0.913 . S
C3581 H3557 0.950 . S
C3581 C3580 1.524 . S
C3581 C3582 1.415 . S
C3582 H3558 0.950 . S
C3582 C3577 1.363 1_545 S
C3582 C3581 1.415 . S
C3583 H3559 0.951 . S
C3583 C3584 1.366 . S
C3583 C3585 1.388 . S
C3584 C3583 1.366 . S
C3584 C3588 1.385 . S
C3585 H3560 0.951 . S
C3585 C3583 1.388 . S
C3585 C3586 1.366 . S
C3586 C3585 1.366 . S
C3586 C3587 1.414 . S
C3586 C3589 1.499 . S
C3587 H3561 0.950 . S
C3587 C3586 1.414 . S
C3587 C3588 1.374 . S
C3588 H3562 0.950 . S
C3588 C3584 1.385 . S
C3588 C3587 1.374 . S
C3589 C3586 1.499 . S
C3589 C3590 1.373 . S
C3589 C3591 1.389 . S
C3590 H3563 0.950 1_554 S
C3590 C3576 1.377 . S
C3590 C3589 1.373 . S
C3591 C3575 1.377 . S
C3591 C3589 1.389 . S
C3591 C3592 1.524 . S
C3592 C3591 1.524 . S
C3592 C3593 1.397 . S
C3592 C3597 1.363 . S
C3593 H3564 0.950 . S
C3593 C3592 1.397 . S
C3593 C3594 1.334 . S
C3594 H3565 0.950 . S
C3594 C3593 1.334 . S
C3594 C3595 1.287 . S
C3595 C3594 1.287 . S
C3595 C3596 1.524 . S
C3595 H3598 0.999 . S
C3596 H3566 0.950 . S
C3596 C3595 1.524 . S
C3596 C3597 1.415 . S
C3597 H3567 0.950 . S
C3597 C3592 1.363 . S
C3597 C3596 1.415 . S
H3598 C3595 0.999 . S
H3599 C3580 0.913 . S
C1234 C193 1.512 . S
C1219 C50 1.516 . S
C1284 C252 1.499 . S
C1269 C61 1.498 . S
C1319 C67 1.511 . S
C1334 C369 1.511 . S
C1384 C437 1.509 . S
C1369 C41 1.507 . S
C1434 C516 1.499 . S
C1419 C95 1.499 . S
C1484 C641 1.523 . S
C1469 C113 1.521 . S
C1519 C106 1.487 . S
C1534 C701 1.487 . S
C1584 C809 1.522 . S
C1569 C86 1.521 . S
C1619 C104 1.495 . S
C1634 C905 1.495 . S
C1684 C965 1.519 . S
C1669 C88 1.519 . S
C1719 C94 1.523 . S
C1734 C868 1.523 . S
C1784 C985 1.504 . S
C1769 C112 1.503 . S
C1819 C70 1.495 . S
C1834 C1053 1.495 . S
C1869 C40 1.516 . S
C1884 C1044 1.517 . S
C1919 C49 1.510 . S
C1934 C1073 1.511 . S
C1969 C59 1.518 . S
C1984 C1081 1.520 . S
C2019 C34 1.493 . S
C2034 C465 1.493 . S
C2069 C133 1.499 . S
C2084 C428 1.499 . S
C2134 C164 1.518 . S
C2119 C139 1.518 . S
C2184 C261 1.512 . S
C2169 C77 1.512 . S
C2219 C43 1.498 . S
C2234 C525 1.500 . S
C2284 C817 1.505 . S
C2269 C103 1.505 . S
C2334 C545 1.533 . S
C2319 C85 1.533 . S
C2384 C729 1.496 . S
C2369 C115 1.495 . S
C2434 C721 1.512 . S
C2419 C131 1.512 . S
C2469 C142 1.498 . S
C2484 C789 1.500 . S
C2519 C76 1.511 . S
C2534 C553 1.511 . S
C2584 C604 1.508 . S
C2569 C122 1.507 . S
C2619 C32 1.499 . S
C2634 C349 1.499 . S
C2684 C457 1.523 . S
C2669 C5 1.521 . S
C2734 C173 1.487 . S
C2719 C16 1.483 . S
C2784 C289 1.521 . S
C2769 C23 1.521 . S
C2819 C14 1.495 . S
C2834 C993 1.495 . S
C2869 C25 1.519 . S
C2884 C877 1.519 . S
C2919 C31 1.523 . S
C2934 C956 1.523 . S
C2969 C4 1.503 . S
C2984 C897 1.504 . S
C3034 C1141 1.495 . S
C3019 C79 1.495 . S
C3084 C1132 1.517 . S
C3069 C121 1.516 . S
C3134 C1161 1.511 . S
C3119 C130 1.510 . S
C3169 C140 1.518 . S
C3184 C1169 1.520 . S
C3219 C97 1.493 . S
C3234 C633 1.493 . S
C3284 C613 1.499 . S
C3269 C52 1.499 . S
C3334 C692 1.518 . S
C3319 C58 1.517 . S
C3384 C780 1.512 . S
C3369 C68 1.512 . S
C3419 C124 1.498 . S
C3434 C340 1.499 . S
C3484 C281 1.505 . S
C3469 C13 1.505 . S
C3519 C22 1.533 . S
C3534 C377 1.533 . S
C3584 C201 1.496 . S
C3569 C7 1.494 . S
