# Generated by pormake.
# Topology ptr, (4,4)-cn, num edge types: 1
# Building blocks:
#     Node 0, Type 0, BuildingBlock: QUQFOY_clean_sbu_1, # of connection points: 4
#     Node 1, Type 0, BuildingBlock: QUQFOY_clean_sbu_1, # of connection points: 4
#     Node 2, Type 0, BuildingBlock: QUQFOY_clean_sbu_1, # of connection points: 4
#     Node 3, Type 0, BuildingBlock: QUQFOY_clean_sbu_1, # of connection points: 4
#     Node 4, Type 0, BuildingBlock: QUQFOY_clean_sbu_1, # of connection points: 4
#     Node 5, Type 0, BuildingBlock: QUQFOY_clean_sbu_1, # of connection points: 4
#     Node 6, Type 0, BuildingBlock: QUQFOY_clean_sbu_1, # of connection points: 4
#     Node 7, Type 0, BuildingBlock: QUQFOY_clean_sbu_1, # of connection points: 4
#     Node 8, Type 0, BuildingBlock: QUQFOY_clean_sbu_1, # of connection points: 4
#     Node 9, Type 0, BuildingBlock: QUQFOY_clean_sbu_1, # of connection points: 4
#     Node 10, Type 0, BuildingBlock: QUQFOY_clean_sbu_1, # of connection points: 4
#     Node 11, Type 0, BuildingBlock: QUQFOY_clean_sbu_1, # of connection points: 4
#     Node 12, Type 0, BuildingBlock: QUQFOY_clean_sbu_1, # of connection points: 4
#     Node 13, Type 0, BuildingBlock: QUQFOY_clean_sbu_1, # of connection points: 4
#     Node 14, Type 0, BuildingBlock: QUQFOY_clean_sbu_1, # of connection points: 4
#     Node 15, Type 0, BuildingBlock: QUQFOY_clean_sbu_1, # of connection points: 4
#     Node 16, Type 0, BuildingBlock: QUQFOY_clean_sbu_1, # of connection points: 4
#     Node 17, Type 0, BuildingBlock: QUQFOY_clean_sbu_1, # of connection points: 4
#     Node 18, Type 1, BuildingBlock: MUDLON_clean_linker_0, # of connection points: 4
#     Node 19, Type 1, BuildingBlock: MUDLON_clean_linker_0, # of connection points: 4
#     Node 20, Type 1, BuildingBlock: MUDLON_clean_linker_0, # of connection points: 4
#     Node 21, Type 1, BuildingBlock: MUDLON_clean_linker_0, # of connection points: 4
#     Node 22, Type 1, BuildingBlock: MUDLON_clean_linker_0, # of connection points: 4
#     Node 23, Type 1, BuildingBlock: MUDLON_clean_linker_0, # of connection points: 4
#     Node 24, Type 1, BuildingBlock: MUDLON_clean_linker_0, # of connection points: 4
#     Node 25, Type 1, BuildingBlock: MUDLON_clean_linker_0, # of connection points: 4
#     Node 26, Type 1, BuildingBlock: MUDLON_clean_linker_0, # of connection points: 4
#     Node 27, Type 1, BuildingBlock: MUDLON_clean_linker_0, # of connection points: 4
#     Node 28, Type 1, BuildingBlock: MUDLON_clean_linker_0, # of connection points: 4
#     Node 29, Type 1, BuildingBlock: MUDLON_clean_linker_0, # of connection points: 4
#     Node 30, Type 1, BuildingBlock: MUDLON_clean_linker_0, # of connection points: 4
#     Node 31, Type 1, BuildingBlock: MUDLON_clean_linker_0, # of connection points: 4
#     Node 32, Type 1, BuildingBlock: MUDLON_clean_linker_0, # of connection points: 4
#     Node 33, Type 1, BuildingBlock: MUDLON_clean_linker_0, # of connection points: 4
#     Node 34, Type 1, BuildingBlock: MUDLON_clean_linker_0, # of connection points: 4
#     Node 35, Type 1, BuildingBlock: MUDLON_clean_linker_0, # of connection points: 4
#     Edge 36, Type (0, 1), BuildingBlock: EZIPEK_clean_linker_0, # of connection points: 2
#     Edge 37, Type (0, 1), BuildingBlock: EZIPEK_clean_linker_0, # of connection points: 2
#     Edge 38, Type (0, 1), BuildingBlock: EZIPEK_clean_linker_0, # of connection points: 2
#     Edge 39, Type (0, 1), BuildingBlock: EZIPEK_clean_linker_0, # of connection points: 2
#     Edge 40, Type (0, 1), BuildingBlock: EZIPEK_clean_linker_0, # of connection points: 2
#     Edge 41, Type (0, 1), BuildingBlock: EZIPEK_clean_linker_0, # of connection points: 2
#     Edge 42, Type (0, 1), BuildingBlock: EZIPEK_clean_linker_0, # of connection points: 2
#     Edge 43, Type (0, 1), BuildingBlock: EZIPEK_clean_linker_0, # of connection points: 2
#     Edge 44, Type (0, 1), BuildingBlock: EZIPEK_clean_linker_0, # of connection points: 2
#     Edge 45, Type (0, 1), BuildingBlock: EZIPEK_clean_linker_0, # of connection points: 2
#     Edge 46, Type (0, 1), BuildingBlock: EZIPEK_clean_linker_0, # of connection points: 2
#     Edge 47, Type (0, 1), BuildingBlock: EZIPEK_clean_linker_0, # of connection points: 2
#     Edge 48, Type (0, 1), BuildingBlock: EZIPEK_clean_linker_0, # of connection points: 2
#     Edge 49, Type (0, 1), BuildingBlock: EZIPEK_clean_linker_0, # of connection points: 2
#     Edge 50, Type (0, 1), BuildingBlock: EZIPEK_clean_linker_0, # of connection points: 2
#     Edge 51, Type (0, 1), BuildingBlock: EZIPEK_clean_linker_0, # of connection points: 2
#     Edge 52, Type (0, 1), BuildingBlock: EZIPEK_clean_linker_0, # of connection points: 2
#     Edge 53, Type (0, 1), BuildingBlock: EZIPEK_clean_linker_0, # of connection points: 2
#     Edge 54, Type (0, 1), BuildingBlock: EZIPEK_clean_linker_0, # of connection points: 2
#     Edge 55, Type (0, 1), BuildingBlock: EZIPEK_clean_linker_0, # of connection points: 2
#     Edge 56, Type (0, 1), BuildingBlock: EZIPEK_clean_linker_0, # of connection points: 2
#     Edge 57, Type (0, 1), BuildingBlock: EZIPEK_clean_linker_0, # of connection points: 2
#     Edge 58, Type (0, 1), BuildingBlock: EZIPEK_clean_linker_0, # of connection points: 2
#     Edge 59, Type (0, 1), BuildingBlock: EZIPEK_clean_linker_0, # of connection points: 2
#     Edge 60, Type (0, 1), BuildingBlock: EZIPEK_clean_linker_0, # of connection points: 2
#     Edge 61, Type (0, 1), BuildingBlock: EZIPEK_clean_linker_0, # of connection points: 2
#     Edge 62, Type (0, 1), BuildingBlock: EZIPEK_clean_linker_0, # of connection points: 2
#     Edge 63, Type (0, 1), BuildingBlock: EZIPEK_clean_linker_0, # of connection points: 2
#     Edge 64, Type (0, 1), BuildingBlock: EZIPEK_clean_linker_0, # of connection points: 2
#     Edge 65, Type (0, 1), BuildingBlock: EZIPEK_clean_linker_0, # of connection points: 2
#     Edge 66, Type (0, 1), BuildingBlock: EZIPEK_clean_linker_0, # of connection points: 2
#     Edge 67, Type (0, 1), BuildingBlock: EZIPEK_clean_linker_0, # of connection points: 2
#     Edge 68, Type (0, 1), BuildingBlock: EZIPEK_clean_linker_0, # of connection points: 2
#     Edge 69, Type (0, 1), BuildingBlock: EZIPEK_clean_linker_0, # of connection points: 2
#     Edge 70, Type (0, 1), BuildingBlock: EZIPEK_clean_linker_0, # of connection points: 2
#     Edge 71, Type (0, 1), BuildingBlock: EZIPEK_clean_linker_0, # of connection points: 2
#     Edge 72, Type (0, 1), BuildingBlock: EZIPEK_clean_linker_0, # of connection points: 2
#     Edge 73, Type (0, 1), BuildingBlock: EZIPEK_clean_linker_0, # of connection points: 2
#     Edge 74, Type (0, 1), BuildingBlock: EZIPEK_clean_linker_0, # of connection points: 2
#     Edge 75, Type (0, 1), BuildingBlock: EZIPEK_clean_linker_0, # of connection points: 2
#     Edge 76, Type (0, 1), BuildingBlock: EZIPEK_clean_linker_0, # of connection points: 2
#     Edge 77, Type (0, 1), BuildingBlock: EZIPEK_clean_linker_0, # of connection points: 2
#     Edge 78, Type (0, 1), BuildingBlock: EZIPEK_clean_linker_0, # of connection points: 2
#     Edge 79, Type (0, 1), BuildingBlock: EZIPEK_clean_linker_0, # of connection points: 2
#     Edge 80, Type (0, 1), BuildingBlock: EZIPEK_clean_linker_0, # of connection points: 2
#     Edge 81, Type (0, 1), BuildingBlock: EZIPEK_clean_linker_0, # of connection points: 2
#     Edge 82, Type (0, 1), BuildingBlock: EZIPEK_clean_linker_0, # of connection points: 2
#     Edge 83, Type (0, 1), BuildingBlock: EZIPEK_clean_linker_0, # of connection points: 2
#     Edge 84, Type (0, 1), BuildingBlock: EZIPEK_clean_linker_0, # of connection points: 2
#     Edge 85, Type (0, 1), BuildingBlock: EZIPEK_clean_linker_0, # of connection points: 2
#     Edge 86, Type (0, 1), BuildingBlock: EZIPEK_clean_linker_0, # of connection points: 2
#     Edge 87, Type (0, 1), BuildingBlock: EZIPEK_clean_linker_0, # of connection points: 2
#     Edge 88, Type (0, 1), BuildingBlock: EZIPEK_clean_linker_0, # of connection points: 2
#     Edge 89, Type (0, 1), BuildingBlock: EZIPEK_clean_linker_0, # of connection points: 2
#     Edge 90, Type (0, 1), BuildingBlock: EZIPEK_clean_linker_0, # of connection points: 2
#     Edge 91, Type (0, 1), BuildingBlock: EZIPEK_clean_linker_0, # of connection points: 2
#     Edge 92, Type (0, 1), BuildingBlock: EZIPEK_clean_linker_0, # of connection points: 2
#     Edge 93, Type (0, 1), BuildingBlock: EZIPEK_clean_linker_0, # of connection points: 2
#     Edge 94, Type (0, 1), BuildingBlock: EZIPEK_clean_linker_0, # of connection points: 2
#     Edge 95, Type (0, 1), BuildingBlock: EZIPEK_clean_linker_0, # of connection points: 2
#     Edge 96, Type (0, 1), BuildingBlock: EZIPEK_clean_linker_0, # of connection points: 2
#     Edge 97, Type (0, 1), BuildingBlock: EZIPEK_clean_linker_0, # of connection points: 2
#     Edge 98, Type (0, 1), BuildingBlock: EZIPEK_clean_linker_0, # of connection points: 2
#     Edge 99, Type (0, 1), BuildingBlock: EZIPEK_clean_linker_0, # of connection points: 2
#     Edge 100, Type (0, 1), BuildingBlock: EZIPEK_clean_linker_0, # of connection points: 2
#     Edge 101, Type (0, 1), BuildingBlock: EZIPEK_clean_linker_0, # of connection points: 2
#     Edge 102, Type (0, 1), BuildingBlock: EZIPEK_clean_linker_0, # of connection points: 2
#     Edge 103, Type (0, 1), BuildingBlock: EZIPEK_clean_linker_0, # of connection points: 2
#     Edge 104, Type (0, 1), BuildingBlock: EZIPEK_clean_linker_0, # of connection points: 2
#     Edge 105, Type (0, 1), BuildingBlock: EZIPEK_clean_linker_0, # of connection points: 2
#     Edge 106, Type (0, 1), BuildingBlock: EZIPEK_clean_linker_0, # of connection points: 2
#     Edge 107, Type (0, 1), BuildingBlock: EZIPEK_clean_linker_0, # of connection points: 2
# Relax obj value: 0.011
# Max RMSD: 0.038
# Mean RMSD: 0.035
data_MOF--net-ptr--node1-QUQFOY_clean_sbu_1--node2-MUDLON_clean_linker_0--edge1-EZIPEK_clean_linker_0
_symmetry_space_group_name_H-M    P1
_symmetry_Int_Tables_number       1
_symmetry_cell_setting            triclinic
loop_
_symmetry_equiv_pos_as_xyz
'x, y, z'
_cell_length_a     86.589252
_cell_length_b     86.626497
_cell_length_c     51.536819
_cell_angle_alpha  89.984193
_cell_angle_beta   90.007601
_cell_angle_gamma 119.96874
loop_
_atom_site_label
_atom_site_type_symbol
_atom_site_fract_x
_atom_site_fract_y
_atom_site_fract_z
_atom_type_partial_charge
O0 O 0.01969 0.396 0.05388 0.0
Cd1 Cd 0.02798 0.38635 0.02355 0.0
Cd2 Cd 0.99225 0.36616 0.01636 0.0
O3 O 0.99114 0.3753 0.05318 0.0
O4 O 0.05233 0.39093 0.03306 0.0
O5 O 0.02863 0.36386 0.0303 0.0
C6 C 0.04529 0.37393 0.036 0.0
C7 C 0.9761 0.33625 0.00405 0.0
C8 C 1.0042 0.38875 0.06383 0.0
C9 C 0.01389 0.39409 0.976 0.0
O10 O 0.99864 0.38374 0.9857 0.0
O11 O 0.02798 0.39605 0.98677 0.0
O12 O 0.96838 0.3456 0.00684 0.0
O13 O 0.9928 0.34351 0.00993 0.0
O14 O 0.62826 0.62765 0.06125 0.0
Cd15 Cd 0.63616 0.64518 0.03025 0.0
Cd16 Cd 0.65502 0.62794 0.01959 0.0
O17 O 0.6467 0.61714 0.05626 0.0
O18 O 0.62966 0.66345 0.0407 0.0
O19 O 0.65757 0.66962 0.03535 0.0
C20 C 0.64647 0.67481 0.04184 0.0
C21 C 0.6844 0.64091 0.0051 0.0
C22 C 0.63461 0.61803 0.06906 0.0
C23 C 0.6261 0.62298 0.98223 0.0
O24 O 0.63644 0.61758 0.99025 0.0
O25 O 0.6248 0.63513 0.99422 0.0
O26 O 0.67464 0.62387 0.00753 0.0
O27 O 0.67787 0.65077 0.01232 0.0
O28 O 0.39294 0.01144 0.97862 0.0
Cd29 Cd 0.38544 0.02147 0.00948 0.0
Cd30 Cd 0.36619 0.98572 0.02128 0.0
O31 O 0.37489 0.98259 0.98517 0.0
O32 O 0.39004 0.04541 0.99767 0.0
O33 O 0.36299 0.02275 0.00566 0.0
C34 C 0.37299 0.0389 0.99752 0.0
C35 C 0.33656 0.96991 0.0348 0.0
C36 C 0.38669 0.99533 0.97166 0.0
C37 C 0.39527 0.01019 0.05851 0.0
O38 O 0.38415 0.99439 0.05155 0.0
O39 O 0.39743 0.02352 0.04524 0.0
O40 O 0.34617 0.96238 0.03365 0.0
O41 O 0.34338 0.98611 0.02657 0.0
O42 O 0.99948 0.62317 0.98232 0.0
Cd43 Cd 0.99042 0.63174 0.01322 0.0
Cd44 Cd 0.02631 0.65073 0.02336 0.0
O45 O 0.02842 0.64187 0.98683 0.0
O46 O 0.96649 0.62793 0.00274 0.0
O47 O 0.99017 0.65467 0.00862 0.0
C48 C 0.97368 0.64504 1.00173 0.0
C49 C 0.0437 0.68029 0.0368 0.0
C50 C 0.01542 0.62957 0.97431 0.0
C51 C 1.0024 0.62209 0.06156 0.0
O52 O 0.0181 0.63266 0.05356 0.0
O53 O 0.98887 0.62039 0.04932 0.0
O54 O 0.0504 0.66999 0.03463 0.0
O55 O 0.02736 0.67421 0.02965 0.0
O56 O 0.39864 0.38445 0.98618 0.0
Cd57 Cd 0.39023 0.36656 0.01661 0.0
Cd58 Cd 0.37216 0.3847 0.02886 0.0
O59 O 0.38173 0.39654 0.99301 0.0
O60 O 0.39532 0.34761 0.00461 0.0
O61 O 0.36797 0.34281 0.01115 0.0
C62 C 0.37833 0.33702 0.00328 0.0
C63 C 0.34256 0.37393 0.04101 0.0
C64 C 0.39316 0.39499 0.97944 0.0
C65 C 0.40025 0.38706 0.06643 0.0
O66 O 0.38974 0.3926 0.05968 0.0
O67 O 0.40191 0.37576 0.05272 0.0
O68 O 0.35376 0.39078 0.04007 0.0
O69 O 0.34786 0.36304 0.03382 0.0
O70 O 0.61871 0.9945 0.05202 0.0
Cd71 Cd 0.62837 0.9857 0.0224 0.0
Cd72 Cd 0.64783 0.02198 0.012 0.0
O73 O 0.6381 0.02333 0.04832 0.0
O74 O 0.62397 0.96165 0.03322 0.0
O75 O 0.651 0.98531 0.02946 0.0
C76 C 0.641 0.96875 0.03579 0.0
C77 C 0.67745 0.04139 1.00017 0.0
C78 C 0.62534 0.01038 0.06027 0.0
C79 C 0.62014 0.9976 0.97273 0.0
O80 O 0.63049 0.01338 0.9807 0.0
O81 O 0.61812 0.98419 0.9856 0.0
O82 O 0.66616 0.04689 0.00229 0.0
O83 O 0.67224 0.025 0.00595 0.0
O84 O 0.68988 0.73148 0.38474 0.0
Cd85 Cd 0.69525 0.71906 0.35487 0.0
Cd86 Cd 0.6594 0.70033 0.35143 0.0
O87 O 0.66165 0.71045 0.38872 0.0
O88 O 0.72029 0.7241 0.35957 0.0
O89 O 0.69671 0.69754 0.3659 0.0
C90 C 0.71381 0.70784 0.36723 0.0
C91 C 0.64072 0.67034 0.34003 0.0
C92 C 0.67523 0.72451 0.39708 0.0
C93 C 0.67892 0.72591 0.30866 0.0
O94 O 0.66418 0.71749 0.32069 0.0
O95 O 0.69294 0.72654 0.31754 0.0
O96 O 0.63432 0.68021 0.34758 0.0
O97 O 0.65783 0.67718 0.34096 0.0
O98 O 0.29009 0.96805 0.38876 0.0
Cd99 Cd 0.29893 0.98606 0.35841 0.0
Cd100 Cd 0.31624 0.9674 0.34568 0.0
O101 O 0.30649 0.95543 0.38147 0.0
O102 O 0.29547 0.00616 0.37008 0.0
O103 O 0.32207 0.00897 0.36356 0.0
C104 C 0.31259 0.01588 0.37108 0.0
C105 C 0.34573 0.97797 0.3328 0.0
C106 C 0.29523 0.95717 0.39521 0.0
C107 C 0.28825 0.96567 0.30856 0.0
O108 O 0.29853 0.95982 0.3151 0.0
O109 O 0.28699 0.97717 0.32238 0.0
O110 O 0.33439 0.96114 0.33368 0.0
O111 O 0.34068 0.98891 0.34078 0.0
O112 O 0.06244 0.34939 0.31553 0.0
Cd113 Cd 0.05397 0.35814 0.34682 0.0
Cd114 Cd 0.03505 0.32213 0.35642 0.0
O115 O 0.04437 0.32034 0.32007 0.0
O116 O 0.05822 0.38225 0.33655 0.0
O117 O 0.03126 0.35889 0.34244 0.0
C118 C 0.04114 0.37532 0.33548 0.0
C119 C 0.00523 0.30557 0.36886 0.0
C120 C 0.0564 0.33352 0.3075 0.0
C121 C 0.0634 0.34566 0.39511 0.0
O122 O 0.05267 0.33 0.3871 0.0
O123 O 0.06537 0.35927 0.3828 0.0
O124 O 0.01494 0.2982 0.36671 0.0
O125 O 0.0121 0.32213 0.36237 0.0
O126 O 0.6684 0.95542 0.31261 0.0
Cd127 Cd 0.65911 0.96372 0.34352 0.0
Cd128 Cd 0.69521 0.98211 0.35438 0.0
O129 O 0.69744 0.9731 0.31811 0.0
O130 O 0.63484 0.95848 0.33236 0.0
O131 O 0.65736 0.98588 0.3386 0.0
C132 C 0.64107 0.97545 0.33145 0.0
C133 C 0.71308 0.01157 0.36781 0.0
C134 C 0.68437 0.96131 0.30511 0.0
C135 C 0.67061 0.95366 0.39221 0.0
O136 O 0.68644 0.96401 0.38448 0.0
O137 O 0.65729 0.95213 0.37957 0.0
O138 O 0.71944 1.00099 0.36572 0.0
O139 O 0.69677 0.00581 0.36077 0.0
O140 O 0.06164 0.71709 0.32087 0.0
Cd141 Cd 0.0524 0.69932 0.35136 0.0
Cd142 Cd 0.03504 0.71821 0.36186 0.0
O143 O 0.04507 0.72974 0.32592 0.0
O144 O 0.05805 0.6806 0.34025 0.0
O145 O 0.03044 0.67547 0.34497 0.0
C146 C 0.04115 0.6699 0.33791 0.0
C147 C 0.005 0.70555 0.3729 0.0
C148 C 0.05661 0.72782 0.31325 0.0
C149 C 0.06241 0.7205 0.40057 0.0
O150 O 0.05242 0.72648 0.393 0.0
O151 O 0.06361 0.70862 0.38763 0.0
O152 O 0.01525 0.72261 0.37194 0.0
O153 O 0.01156 0.69559 0.36632 0.0
O154 O 0.2875 0.3296 0.38519 0.0
Cd155 Cd 0.29922 0.32323 0.35524 0.0
Cd156 Cd 0.31822 0.35904 0.351 0.0
O157 O 0.30872 0.35785 0.38832 0.0
O158 O 0.29383 0.29806 0.36033 0.0
O159 O 0.32051 0.32139 0.36643 0.0
C160 C 0.3101 0.30433 0.36783 0.0
C161 C 0.34799 0.37616 0.33846 0.0
C162 C 0.29467 0.34445 0.3971 0.0
C163 C 0.29207 0.33903 0.30897 0.0
O164 O 0.30047 0.35372 0.32105 0.0
O165 O 0.29164 0.32508 0.31765 0.0
O166 O 0.3386 0.38353 0.3438 0.0
O167 O 0.34087 0.35916 0.34187 0.0
O168 O 0.35301 0.0604 0.72129 0.0
Cd169 Cd 0.36232 0.05213 0.69047 0.0
Cd170 Cd 0.32629 0.03405 0.67847 0.0
O171 O 0.32401 0.04325 0.71467 0.0
O172 O 0.38641 0.05662 0.70147 0.0
O173 O 0.36323 0.02956 0.69553 0.0
C174 C 0.37961 0.03957 0.70269 0.0
C175 C 0.30928 0.00424 0.66596 0.0
C176 C 0.33697 0.05472 0.7282 0.0
C177 C 0.3514 0.06256 0.64123 0.0
O178 O 0.33539 0.052 0.64807 0.0
O179 O 0.36442 0.06398 0.65457 0.0
O180 O 0.30231 0.01435 0.66738 0.0
O181 O 0.32571 0.01076 0.67295 0.0
O182 O 0.95601 0.2979 0.72179 0.0
Cd183 Cd 0.96521 0.31596 0.69163 0.0
Cd184 Cd 0.98401 0.29863 0.68114 0.0
O185 O 0.97463 0.28754 0.71756 0.0
O186 O 0.9601 0.33504 0.70279 0.0
O187 O 0.98748 0.33965 0.69735 0.0
C188 C 0.97709 0.34558 0.70449 0.0
C189 C 0.01362 0.30964 0.6685 0.0
C190 C 0.96227 0.28827 0.72985 0.0
C191 C 0.95586 0.29506 0.64259 0.0
O192 O 0.96627 0.28963 0.65035 0.0
O193 O 0.95417 0.3067 0.65535 0.0
O194 O 1.00273 0.29277 0.67068 0.0
O195 O 0.00806 0.32045 0.67502 0.0
O196 O 0.72858 0.68033 0.64693 0.0
Cd197 Cd 0.72146 0.69109 0.67733 0.0
Cd198 Cd 0.70368 0.65543 0.69226 0.0
O199 O 0.71202 0.65167 0.65633 0.0
O200 O 0.72658 0.71491 0.66422 0.0
O201 O 0.69932 0.69305 0.67337 0.0
C202 C 0.70965 0.70898 0.66473 0.0
C203 C 0.67443 0.63761 0.70646 0.0
C204 C 0.72293 0.66406 0.64146 0.0
C205 C 0.73288 0.68212 0.72731 0.0
O206 O 0.72213 0.6659 0.7219 0.0
O207 O 0.73424 0.69461 0.71276 0.0
O208 O 0.68533 0.63157 0.70549 0.0
O209 O 0.67979 0.65357 0.69812 0.0
O210 O 0.34047 0.29231 0.64696 0.0
Cd211 Cd 0.33015 0.29917 0.67831 0.0
Cd212 Cd 0.36588 0.31601 0.69178 0.0
O213 O 0.36913 0.30641 0.65668 0.0
O214 O 0.30586 0.29328 0.66615 0.0
O215 O 0.3273 0.32082 0.6747 0.0
C216 C 0.31133 0.3101 0.66654 0.0
C217 C 0.38208 0.34576 0.70424 0.0
C218 C 0.35642 0.29648 0.64148 0.0
C219 C 0.3399 0.28757 0.72784 0.0
O220 O 0.35606 0.29827 0.72205 0.0
O221 O 0.32723 0.28618 0.71362 0.0
O222 O 0.38933 0.33588 0.70392 0.0
O223 O 0.36589 0.33906 0.69597 0.0
O224 O 0.73053 0.05218 0.65406 0.0
Cd225 Cd 0.71876 0.03417 0.68391 0.0
Cd226 Cd 0.70077 0.0525 0.68862 0.0
O227 O 0.7108 0.0612 0.65157 0.0
O228 O 0.72391 0.01473 0.67524 0.0
O229 O 0.69663 0.01098 0.67535 0.0
C230 C 0.70713 0.00473 0.67053 0.0
C231 C 0.67129 0.04424 0.69948 0.0
C232 C 0.72427 0.06081 0.64255 0.0
C233 C 0.72705 0.05674 0.73057 0.0
O234 O 0.71845 0.06317 0.7193 0.0
O235 O 0.72753 0.04342 0.72112 0.0
O236 O 0.68306 0.06054 0.69448 0.0
O237 O 0.67599 0.03231 0.69707 0.0
O238 O 0.95781 0.67021 0.72409 0.0
Cd239 Cd 0.96448 0.66005 0.69274 0.0
Cd240 Cd 0.98261 0.69567 0.67872 0.0
O241 O 0.97192 0.69869 0.71329 0.0
O242 O 0.95971 0.63599 0.70424 0.0
O243 O 0.9868 0.65838 0.69569 0.0
C244 C 0.9767 0.64227 0.70386 0.0
C245 C 0.0126 0.71338 0.66755 0.0
C246 C 0.96196 0.68622 0.72886 0.0
C247 C 0.95356 0.66969 0.64262 0.0
O248 O 0.96577 0.68558 0.64725 0.0
O249 O 0.95073 0.6572 0.65834 0.0
O250 O 1.00194 0.71972 0.6672 0.0
O251 O 0.00653 0.69724 0.67565 0.0
H252 H 0.26684 0.3817 0.17906 0.0
N253 N 0.24126 0.35943 0.14733 0.0
H254 H 0.27759 0.37425 0.21865 0.0
H255 H 0.22661 0.32651 0.16998 0.0
H256 H 0.23731 0.31904 0.20975 0.0
H257 H 0.24135 0.33033 0.12672 0.0
H258 H 0.26379 0.33125 0.09669 0.0
H259 H 0.26463 0.38725 0.11983 0.0
H260 H 0.28722 0.38821 0.08997 0.0
H261 H 0.2277 0.37947 0.16213 0.0
H262 H 0.21349 0.32947 0.12541 0.0
H263 H 0.19679 0.37273 0.15929 0.0
H264 H 0.18266 0.32285 0.12139 0.0
H265 H 0.0825 0.30452 0.15761 0.0
H266 H 0.06799 0.30366 0.19908 0.0
H267 H 0.11374 0.35358 0.22115 0.0
H268 H 0.12817 0.35456 0.1797 0.0
H269 H 0.09604 0.31497 0.09632 0.0
H270 H 0.08014 0.32513 0.06758 0.0
H271 H 0.09986 0.37322 0.11268 0.0
H272 H 0.11578 0.36323 0.14114 0.0
H273 H 0.14331 0.36346 0.13208 0.0
H274 H 0.17416 0.37018 0.13147 0.0
H275 H 0.15666 0.31467 0.14594 0.0
N276 N 0.11351 0.33048 0.13985 0.0
H277 H 0.12569 0.30798 0.14532 0.0
C278 C 0.24589 0.35474 0.17177 0.0
C279 C 0.26019 0.36805 0.18586 0.0
C280 C 0.26635 0.3638 0.20826 0.0
C281 C 0.25826 0.34612 0.21696 0.0
C282 C 0.24369 0.33276 0.20323 0.0
C283 C 0.23757 0.33702 0.18068 0.0
C284 C 0.25125 0.35879 0.12539 0.0
C285 C 0.25084 0.34292 0.11806 0.0
C286 C 0.26371 0.34344 0.10104 0.0
C287 C 0.27721 0.35982 0.09131 0.0
C288 C 0.27689 0.37546 0.09726 0.0
C289 C 0.26399 0.37491 0.11415 0.0
C290 C 0.22299 0.35512 0.14384 0.0
C291 C 0.2179 0.36713 0.15309 0.0
C292 C 0.20021 0.36328 0.15126 0.0
C293 C 0.18709 0.34726 0.13995 0.0
C294 C 0.19228 0.33523 0.1305 0.0
C295 C 0.21001 0.33907 0.13255 0.0
C296 C 0.10644 0.32946 0.16559 0.0
C297 C 0.08952 0.3151 0.1716 0.0
C298 C 0.08125 0.31464 0.19512 0.0
C299 C 0.08985 0.32853 0.21309 0.0
C300 C 0.10698 0.3427 0.20752 0.0
C301 C 0.11521 0.34321 0.18391 0.0
C302 C 0.10714 0.33827 0.12084 0.0
C303 C 0.09733 0.32792 0.09954 0.0
C304 C 0.08825 0.33367 0.08324 0.0
C305 C 0.08884 0.3499 0.0881 0.0
C306 C 0.09932 0.36069 0.10861 0.0
C307 C 0.10844 0.35498 0.12482 0.0
C308 C 0.13203 0.33507 0.13849 0.0
C309 C 0.14601 0.35266 0.13477 0.0
C310 C 0.16378 0.35653 0.1347 0.0
C311 C 0.16807 0.343 0.1387 0.0
C312 C 0.154 0.32543 0.14232 0.0
C313 C 0.13625 0.32157 0.14215 0.0
H314 H 0.71122 0.77898 0.1606 0.0
N315 N 0.68866 0.78783 0.13973 0.0
H316 H 0.70835 0.76412 0.20245 0.0
H317 H 0.66283 0.77999 0.17621 0.0
H318 H 0.66008 0.76534 0.21833 0.0
H319 H 0.65383 0.76168 0.13437 0.0
H320 H 0.64299 0.73514 0.10694 0.0
H321 H 0.70631 0.78289 0.10143 0.0
H322 H 0.69549 0.75622 0.07404 0.0
H323 H 0.71413 0.82026 0.15248 0.0
H324 H 0.66031 0.79166 0.12348 0.0
H325 H 0.71328 0.8479 0.15168 0.0
H326 H 0.65964 0.81946 0.121 0.0
H327 H 0.71475 0.93415 0.15679 0.0
H328 H 0.7156 0.94898 0.19798 0.0
H329 H 0.66445 0.90448 0.21882 0.0
H330 H 0.66349 0.88981 0.17776 0.0
H331 H 0.6535 0.89586 0.13605 0.0
H332 H 0.64201 0.91089 0.10822 0.0
H333 H 0.69297 0.93937 0.06992 0.0
H334 H 0.70457 0.92456 0.09815 0.0
H335 H 0.71483 0.89808 0.12736 0.0
H336 H 0.71437 0.86974 0.12518 0.0
H337 H 0.65812 0.84202 0.14376 0.0
N338 N 0.6882 0.90369 0.1386 0.0
H339 H 0.6586 0.87048 0.14386 0.0
C340 C 0.68737 0.78071 0.16544 0.0
C341 C 0.70015 0.77622 0.17326 0.0
C342 C 0.69847 0.76772 0.19697 0.0
C343 C 0.68401 0.76365 0.21335 0.0
C344 C 0.67134 0.76842 0.20588 0.0
C345 C 0.67294 0.77681 0.18198 0.0
C346 C 0.68091 0.7744 0.11975 0.0
C347 C 0.66287 0.76095 0.12058 0.0
C348 C 0.6567 0.74574 0.10505 0.0
C349 C 0.66845 0.7437 0.08847 0.0
C350 C 0.68618 0.75759 0.08652 0.0
C351 C 0.69232 0.77282 0.10201 0.0
C352 C 0.68747 0.80387 0.13778 0.0
C353 C 0.70221 0.82002 0.14553 0.0
C354 C 0.70171 0.83589 0.14481 0.0
C355 C 0.68647 0.83617 0.13587 0.0
C356 C 0.67159 0.81988 0.12819 0.0
C357 C 0.67201 0.80388 0.12934 0.0
C358 C 0.68921 0.91082 0.16423 0.0
C359 C 0.70389 0.92747 0.17048 0.0
C360 C 0.70435 0.93592 0.19383 0.0
C361 C 0.69009 0.92777 0.21135 0.0
C362 C 0.6756 0.91089 0.20554 0.0
C363 C 0.67511 0.90249 0.18211 0.0
C364 C 0.67995 0.90914 0.11915 0.0
C365 C 0.66208 0.90497 0.12127 0.0
C366 C 0.65553 0.91357 0.10544 0.0
C367 C 0.66669 0.92627 0.08712 0.0
C368 C 0.68417 0.92957 0.08388 0.0
C369 C 0.69074 0.92109 0.09986 0.0
C370 C 0.68691 0.88648 0.13626 0.0
C371 C 0.70239 0.88584 0.13073 0.0
C372 C 0.7021 0.86957 0.1298 0.0
C373 C 0.68628 0.8534 0.13488 0.0
C374 C 0.67057 0.85407 0.13967 0.0
C375 C 0.67085 0.87042 0.14011 0.0
H376 H 0.09468 0.78159 0.16212 0.0
N377 N 0.12494 0.78045 0.15045 0.0
H378 H 0.07692 0.77038 0.20195 0.0
H379 H 0.13337 0.7691 0.19326 0.0
H380 H 0.11567 0.75808 0.23333 0.0
H381 H 0.10319 0.78509 0.11676 0.0
H382 H 0.08265 0.76281 0.08524 0.0
H383 H 0.12414 0.7507 0.13602 0.0
H384 H 0.10399 0.72867 0.10429 0.0
H385 H 0.15666 0.79146 0.12897 0.0
H386 H 0.12354 0.81085 0.16076 0.0
H387 H 0.18108 0.82201 0.12379 0.0
H388 H 0.14816 0.84132 0.15757 0.0
H389 H 0.22908 0.93659 0.16081 0.0
H390 H 0.24309 0.9522 0.20154 0.0
H391 H 0.25244 0.90948 0.22296 0.0
H392 H 0.23878 0.89406 0.18242 0.0
H393 H 0.22971 0.927 0.10262 0.0
H394 H 0.25541 0.94202 0.07311 0.0
H395 H 0.28012 0.91542 0.11072 0.0
H396 H 0.25477 0.90079 0.14045 0.0
H397 H 0.22771 0.8755 0.14721 0.0
H398 H 0.20256 0.84539 0.14733 0.0
H399 H 0.16694 0.86597 0.13311 0.0
N400 N 0.2264 0.90654 0.14307 0.0
H401 H 0.19233 0.89631 0.13502 0.0
C402 C 0.11537 0.77611 0.17473 0.0
C403 C 0.0995 0.77669 0.17762 0.0
C404 C 0.08937 0.77033 0.20033 0.0
C405 C 0.09502 0.76341 0.22046 0.0
C406 C 0.11116 0.76343 0.21798 0.0
C407 C 0.12124 0.76972 0.19525 0.0
C408 C 0.1151 0.76942 0.12876 0.0
C409 C 0.10363 0.77295 0.11379 0.0
C410 C 0.09197 0.7603 0.09584 0.0
C411 C 0.09185 0.74412 0.09252 0.0
C412 C 0.10397 0.74109 0.10651 0.0
C413 C 0.11545 0.75362 0.1245 0.0
C414 C 0.13834 0.79875 0.14552 0.0
C415 C 0.15468 0.80235 0.13482 0.0
C416 C 0.16872 0.81988 0.13223 0.0
C417 C 0.1669 0.83435 0.14073 0.0
C418 C 0.15019 0.8307 0.15058 0.0
C419 C 0.13602 0.81313 0.15266 0.0
C420 C 0.23264 0.91407 0.16853 0.0
C421 C 0.23386 0.93045 0.17452 0.0
C422 C 0.24187 0.93935 0.19762 0.0
C423 C 0.24872 0.93192 0.21519 0.0
C424 C 0.24712 0.91533 0.20965 0.0
C425 C 0.23923 0.9065 0.18647 0.0
C426 C 0.24014 0.91261 0.12353 0.0
C427 C 0.24047 0.92407 0.10403 0.0
C428 C 0.25509 0.93264 0.0873 0.0
C429 C 0.26958 0.92974 0.08972 0.0
C430 C 0.26896 0.91766 0.10842 0.0
C431 C 0.2544 0.90922 0.12531 0.0
C432 C 0.21193 0.88833 0.14157 0.0
C433 C 0.21454 0.87366 0.1444 0.0
C434 C 0.20001 0.85626 0.14405 0.0
C435 C 0.18249 0.853 0.14025 0.0
C436 C 0.18006 0.86778 0.13666 0.0
C437 C 0.19459 0.88518 0.1375 0.0
H438 H 0.32216 0.22524 0.87289 0.0
N439 N 0.35581 0.23532 0.88969 0.0
H440 H 0.31441 0.23591 0.83333 0.0
H441 H 0.37776 0.25549 0.85239 0.0
H442 H 0.37005 0.26584 0.81263 0.0
H443 H 0.32875 0.23554 0.91683 0.0
H444 H 0.33209 0.25831 0.94825 0.0
H445 H 0.38589 0.26025 0.91114 0.0
H446 H 0.38925 0.28307 0.94259 0.0
H447 H 0.37729 0.22289 0.87739 0.0
H448 H 0.32562 0.20703 0.90959 0.0
H449 H 0.3713 0.19225 0.88042 0.0
H450 H 0.31968 0.17641 0.91391 0.0
H451 H 0.30449 0.0784 0.87687 0.0
H452 H 0.30469 0.06478 0.83505 0.0
H453 H 0.35569 0.11047 0.81689 0.0
H454 H 0.35556 0.12402 0.85871 0.0
H455 H 0.31283 0.08834 0.93719 0.0
H456 H 0.32256 0.07176 0.96519 0.0
H457 H 0.37354 0.09682 0.92665 0.0
H458 H 0.36378 0.11307 0.89848 0.0
H459 H 0.36244 0.13899 0.90716 0.0
H460 H 0.36828 0.16948 0.90813 0.0
H461 H 0.31306 0.15088 0.88939 0.0
N462 N 0.33016 0.10877 0.89672 0.0
H463 H 0.30718 0.1202 0.88969 0.0
C464 C 0.35058 0.23969 0.86552 0.0
C465 C 0.33265 0.234 0.85977 0.0
C466 C 0.32823 0.24003 0.83724 0.0
C467 C 0.34169 0.25163 0.82015 0.0
C468 C 0.35951 0.25685 0.82557 0.0
C469 C 0.3639 0.25095 0.84812 0.0
C470 C 0.35714 0.24617 0.9117 0.0
C471 C 0.34199 0.24551 0.92285 0.0
C472 C 0.34388 0.25853 0.94074 0.0
C473 C 0.36092 0.27238 0.94763 0.0
C474 C 0.37601 0.27246 0.93757 0.0
C475 C 0.37411 0.25945 0.91975 0.0
C476 C 0.35203 0.21728 0.89343 0.0
C477 C 0.36474 0.21277 0.88553 0.0
C478 C 0.3613 0.19523 0.88747 0.0
C479 C 0.34501 0.1817 0.89757 0.0
C480 C 0.3323 0.18634 0.90575 0.0
C481 C 0.33573 0.20393 0.90355 0.0
C482 C 0.32989 0.10223 0.87086 0.0
C483 C 0.31556 0.08559 0.86367 0.0
C484 C 0.31569 0.07783 0.83994 0.0
C485 C 0.33019 0.08667 0.82298 0.0
C486 C 0.34436 0.10353 0.82975 0.0
C487 C 0.34426 0.11126 0.85356 0.0
C488 C 0.33756 0.10212 0.91595 0.0
C489 C 0.32627 0.09065 0.93532 0.0
C490 C 0.33179 0.08117 0.95118 0.0
C491 C 0.34877 0.08314 0.94799 0.0
C492 C 0.36044 0.09527 0.92954 0.0
C493 C 0.35487 0.10462 0.91354 0.0
C494 C 0.33422 0.1271 0.89858 0.0
C495 C 0.35149 0.14132 0.9036 0.0
C496 C 0.35487 0.15892 0.90389 0.0
C497 C 0.34118 0.16282 0.89877 0.0
C498 C 0.32392 0.14851 0.8939 0.0
C499 C 0.32053 0.13093 0.89389 0.0
H500 H 0.7517 0.12376 0.86009 0.0
N501 N 0.77769 0.12803 0.89179 0.0
H502 H 0.74119 0.10524 0.82081 0.0
H503 H 0.79241 0.10954 0.87028 0.0
H504 H 0.78196 0.09101 0.83072 0.0
H505 H 0.77905 0.10036 0.91511 0.0
H506 H 0.75687 0.07901 0.9457 0.0
H507 H 0.75302 0.13168 0.91712 0.0
H508 H 0.73059 0.11012 0.94718 0.0
H509 H 0.79339 0.15782 0.86416 0.0
H510 H 0.80376 0.13003 0.92497 0.0
H511 H 0.82422 0.18185 0.86599 0.0
H512 H 0.83431 0.15453 0.92825 0.0
H513 H 0.90373 0.25406 0.87216 0.0
H514 H 0.91788 0.26771 0.83078 0.0
H515 H 0.93695 0.23051 0.82338 0.0
H516 H 0.92286 0.21685 0.86514 0.0
H517 H 0.93473 0.23409 0.92343 0.0
H518 H 0.9519 0.25916 0.95315 0.0
H519 H 0.91155 0.27424 0.94715 0.0
H520 H 0.8944 0.24927 0.91776 0.0
H521 H 0.87597 0.23003 0.88687 0.0
H522 H 0.84509 0.20628 0.8883 0.0
H523 H 0.86226 0.16882 0.90927 0.0
N524 N 0.90556 0.22707 0.89721 0.0
H525 H 0.89315 0.19316 0.90974 0.0
C526 C 0.77284 0.11808 0.86789 0.0
C527 C 0.75845 0.11677 0.85364 0.0
C528 C 0.75244 0.10619 0.83141 0.0
C529 C 0.76078 0.09677 0.82302 0.0
C530 C 0.77537 0.0982 0.83701 0.0
C531 C 0.78134 0.10876 0.85942 0.0
C532 C 0.76779 0.11778 0.91407 0.0
C533 C 0.76897 0.10299 0.92283 0.0
C534 C 0.75628 0.09077 0.94016 0.0
C535 C 0.74205 0.09296 0.94852 0.0
C536 C 0.74148 0.10823 0.94097 0.0
C537 C 0.7543 0.12055 0.92398 0.0
C538 C 0.79607 0.14207 0.89436 0.0
C539 C 0.8023 0.15702 0.87816 0.0
C540 C 0.81997 0.17089 0.87947 0.0
C541 C 0.83196 0.17042 0.89748 0.0
C542 C 0.82567 0.15539 0.91385 0.0
C543 C 0.808 0.14131 0.91215 0.0
C544 C 0.91223 0.23435 0.87179 0.0
C545 C 0.91074 0.24865 0.86164 0.0
C546 C 0.91887 0.2565 0.83806 0.0
C547 C 0.92849 0.25014 0.82418 0.0
C548 C 0.92958 0.23559 0.83388 0.0
C549 C 0.92153 0.22779 0.85755 0.0
C550 C 0.91327 0.23967 0.91828 0.0
C551 C 0.92934 0.24248 0.92913 0.0
C552 C 0.93913 0.25677 0.946 0.0
C553 C 0.93299 0.26854 0.95225 0.0
C554 C 0.91645 0.26524 0.9426 0.0
C555 C 0.90665 0.25092 0.92576 0.0
C556 C 0.88698 0.21348 0.89875 0.0
C557 C 0.87314 0.21685 0.89246 0.0
C558 C 0.85535 0.20304 0.89282 0.0
C559 C 0.85093 0.18539 0.89874 0.0
C560 C 0.8649 0.18216 0.90508 0.0
C561 C 0.88265 0.19606 0.90521 0.0
H562 H 0.80131 0.72117 0.86557 0.0
N563 N 0.79509 0.69401 0.89643 0.0
H564 H 0.78729 0.7198 0.82338 0.0
H565 H 0.77275 0.66379 0.86935 0.0
H566 H 0.75914 0.66241 0.827 0.0
H567 H 0.77908 0.71009 0.91806 0.0
H568 H 0.75289 0.69682 0.94665 0.0
H569 H 0.77983 0.66071 0.91829 0.0
H570 H 0.75387 0.64755 0.94758 0.0
H571 H 0.82354 0.71536 0.92461 0.0
H572 H 0.80217 0.6688 0.87586 0.0
H573 H 0.85141 0.71493 0.92876 0.0
H574 H 0.83025 0.66886 0.87844 0.0
H575 H 0.94432 0.70004 0.88921 0.0
H576 H 0.95559 0.69817 0.84678 0.0
H577 H 0.90848 0.69332 0.81067 0.0
H578 H 0.8963 0.69368 0.85306 0.0
H579 H 0.90516 0.66214 0.90012 0.0
H580 H 0.91868 0.64939 0.92853 0.0
H581 H 0.94274 0.69743 0.97432 0.0
H582 H 0.92935 0.71029 0.94567 0.0
H583 H 0.90567 0.72332 0.90475 0.0
H584 H 0.87677 0.72181 0.90498 0.0
H585 H 0.85053 0.66426 0.90236 0.0
N586 N 0.91237 0.69669 0.90106 0.0
H587 H 0.8796 0.66611 0.9006 0.0
C588 C 0.7883 0.69265 0.87044 0.0
C589 C 0.79235 0.70832 0.85703 0.0
C590 C 0.78434 0.70753 0.83311 0.0
C591 C 0.77226 0.691 0.82212 0.0
C592 C 0.76853 0.67528 0.83513 0.0
C593 C 0.77638 0.67607 0.85921 0.0
C594 C 0.7815 0.68649 0.91621 0.0
C595 C 0.77386 0.69654 0.92484 0.0
C596 C 0.75894 0.68898 0.94105 0.0
C597 C 0.75148 0.67124 0.94922 0.0
C598 C 0.75952 0.66131 0.94157 0.0
C599 C 0.77434 0.66882 0.92494 0.0
C600 C 0.81081 0.69237 0.89965 0.0
C601 C 0.82489 0.70506 0.91475 0.0
C602 C 0.84091 0.70488 0.91684 0.0
C603 C 0.84338 0.69205 0.90355 0.0
C604 C 0.82895 0.6789 0.88913 0.0
C605 C 0.81281 0.67896 0.88738 0.0
C606 C 0.91891 0.69606 0.87517 0.0
C607 C 0.93607 0.69812 0.87238 0.0
C608 C 0.94268 0.69728 0.84805 0.0
C609 C 0.9328 0.69536 0.82552 0.0
C610 C 0.91622 0.6945 0.82784 0.0
C611 C 0.90924 0.69465 0.85232 0.0
C612 C 0.91628 0.68724 0.92081 0.0
C613 C 0.91275 0.66967 0.91684 0.0
C614 C 0.92056 0.66244 0.93293 0.0
C615 C 0.93176 0.67252 0.9534 0.0
C616 C 0.93409 0.68945 0.95866 0.0
C617 C 0.92642 0.69675 0.94243 0.0
C618 C 0.89488 0.69492 0.90303 0.0
C619 C 0.89365 0.7104 0.90443 0.0
C620 C 0.87704 0.70945 0.90475 0.0
C621 C 0.86111 0.69288 0.90393 0.0
C622 C 0.8624 0.67728 0.90275 0.0
C623 C 0.87908 0.67828 0.90209 0.0
H624 H 0.74342 0.63237 0.48894 0.0
N625 N 0.77552 0.6572 0.47248 0.0
H626 H 0.72944 0.63137 0.53099 0.0
H627 H 0.7922 0.67801 0.51515 0.0
H628 H 0.77836 0.67682 0.5569 0.0
H629 H 0.76712 0.68326 0.48471 0.0
H630 H 0.75339 0.69505 0.45601 0.0
H631 H 0.77334 0.65471 0.42053 0.0
H632 H 0.76096 0.66815 0.39109 0.0
H633 H 0.78094 0.63061 0.45988 0.0
H634 H 0.80876 0.68669 0.47699 0.0
H635 H 0.80917 0.631 0.45652 0.0
H636 H 0.83716 0.68706 0.47647 0.0
H637 H 0.91729 0.64937 0.4836 0.0
H638 H 0.9314 0.6523 0.52566 0.0
H639 H 0.89507 0.66667 0.56054 0.0
H640 H 0.88219 0.66575 0.51811 0.0
H641 H 0.91867 0.69123 0.47099 0.0
H642 H 0.94527 0.70329 0.4432 0.0
H643 H 0.92151 0.65433 0.39953 0.0
H644 H 0.89499 0.64217 0.42761 0.0
H645 H 0.85872 0.63029 0.48036 0.0
H646 H 0.83104 0.63105 0.48006 0.0
H647 H 0.86008 0.68631 0.456 0.0
N648 N 0.89152 0.65671 0.47123 0.0
H649 H 0.88784 0.68569 0.45872 0.0
C650 C 0.7689 0.65508 0.4988 0.0
C651 C 0.75126 0.6418 0.50395 0.0
C652 C 0.74329 0.64128 0.52781 0.0
C653 C 0.75291 0.65404 0.54693 0.0
C654 C 0.77079 0.66681 0.54238 0.0
C655 C 0.77874 0.66738 0.5185 0.0
C656 C 0.77111 0.66763 0.45506 0.0
C657 C 0.76598 0.67973 0.46441 0.0
C658 C 0.75808 0.68659 0.44791 0.0
C659 C 0.75577 0.68225 0.42141 0.0
C660 C 0.76228 0.67144 0.41155 0.0
C661 C 0.76953 0.66394 0.4283 0.0
C662 C 0.79269 0.65845 0.46928 0.0
C663 C 0.79323 0.643 0.46322 0.0
C664 C 0.80948 0.64325 0.4617 0.0
C665 C 0.82573 0.65896 0.46694 0.0
C666 C 0.82513 0.67466 0.4722 0.0
C667 C 0.80881 0.67446 0.47294 0.0
C668 C 0.89885 0.65769 0.49703 0.0
C669 C 0.91247 0.65344 0.50014 0.0
C670 C 0.92046 0.65496 0.52424 0.0
C671 C 0.91438 0.65977 0.54634 0.0
C672 C 0.90012 0.6631 0.54373 0.0
C673 C 0.89271 0.66249 0.51931 0.0
C674 C 0.90485 0.66574 0.45133 0.0
C675 C 0.9189 0.68334 0.45485 0.0
C676 C 0.93409 0.69018 0.43911 0.0
C677 C 0.93534 0.67964 0.41946 0.0
C678 C 0.92073 0.66266 0.41456 0.0
C679 C 0.90561 0.65577 0.43044 0.0
C680 C 0.87536 0.65774 0.4692 0.0
C681 C 0.85905 0.64253 0.47494 0.0
C682 C 0.84315 0.64301 0.47448 0.0
C683 C 0.84298 0.65869 0.46756 0.0
C684 C 0.85946 0.67399 0.4617 0.0
C685 C 0.87547 0.67361 0.46289 0.0
H686 H 0.38524 0.11927 0.49383 0.0
N687 N 0.36168 0.12755 0.47519 0.0
H688 H 0.38373 0.10431 0.53513 0.0
H689 H 0.33707 0.11963 0.51366 0.0
H690 H 0.3356 0.10474 0.55507 0.0
H691 H 0.32713 0.10021 0.4733 0.0
H692 H 0.31561 0.07417 0.44462 0.0
H693 H 0.37748 0.12408 0.43307 0.0
H694 H 0.36579 0.09811 0.40395 0.0
H695 H 0.38815 0.16031 0.48363 0.0
H696 H 0.33237 0.13095 0.46405 0.0
H697 H 0.38758 0.18812 0.48197 0.0
H698 H 0.3318 0.15885 0.46081 0.0
H699 H 0.37039 0.2777 0.48062 0.0
H700 H 0.36979 0.29026 0.52273 0.0
H701 H 0.36322 0.24301 0.56063 0.0
H702 H 0.36234 0.22971 0.5188 0.0
H703 H 0.33202 0.24416 0.48018 0.0
H704 H 0.31896 0.25762 0.45266 0.0
H705 H 0.35417 0.2621 0.39021 0.0
H706 H 0.36889 0.25083 0.41913 0.0
H707 H 0.38806 0.23705 0.45416 0.0
H708 H 0.38671 0.20824 0.45347 0.0
H709 H 0.33278 0.18317 0.48309 0.0
N710 N 0.36324 0.24431 0.47002 0.0
H711 H 0.3341 0.21216 0.48218 0.0
C712 C 0.36138 0.12065 0.50078 0.0
C713 C 0.37454 0.1164 0.50732 0.0
C714 C 0.37366 0.10786 0.53075 0.0
C715 C 0.35957 0.10348 0.54806 0.0
C716 C 0.3466 0.10812 0.54194 0.0
C717 C 0.34746 0.11662 0.5184 0.0
C718 C 0.35326 0.11411 0.45535 0.0
C719 C 0.33554 0.10011 0.45785 0.0
C720 C 0.32896 0.08524 0.44153 0.0
C721 C 0.3399 0.08422 0.4223 0.0
C722 C 0.35716 0.0987 0.41864 0.0
C723 C 0.36378 0.1135 0.43513 0.0
C724 C 0.36047 0.14357 0.47362 0.0
C725 C 0.37581 0.15993 0.47863 0.0
C726 C 0.37545 0.17586 0.47741 0.0
C727 C 0.35971 0.17594 0.47075 0.0
C728 C 0.34417 0.15942 0.46609 0.0
C729 C 0.34451 0.14338 0.4677 0.0
C730 C 0.3652 0.25218 0.49577 0.0
C731 C 0.36854 0.26983 0.49788 0.0
C732 C 0.36837 0.27712 0.52197 0.0
C733 C 0.36603 0.26742 0.54486 0.0
C734 C 0.3646 0.25056 0.54317 0.0
C735 C 0.36398 0.24292 0.51898 0.0
C736 C 0.35201 0.24719 0.45207 0.0
C737 C 0.33695 0.24799 0.46056 0.0
C738 C 0.32944 0.25564 0.44477 0.0
C739 C 0.3359 0.26143 0.41948 0.0
C740 C 0.34928 0.25827 0.40985 0.0
C741 C 0.35755 0.25165 0.42622 0.0
C742 C 0.36132 0.22677 0.46845 0.0
C743 C 0.37591 0.22527 0.46023 0.0
C744 C 0.37513 0.20877 0.46016 0.0
C745 C 0.35975 0.19325 0.46878 0.0
C746 C 0.34483 0.1947 0.47619 0.0
C747 C 0.34555 0.21127 0.4758 0.0
H748 H 0.79204 0.08546 0.51315 0.0
N749 N 0.79567 0.11101 0.48106 0.0
H750 H 0.77368 0.07496 0.55262 0.0
H751 H 0.77699 0.12557 0.50276 0.0
H752 H 0.75869 0.11513 0.54241 0.0
H753 H 0.76663 0.11069 0.45936 0.0
H754 H 0.74612 0.08873 0.42788 0.0
H755 H 0.80103 0.08817 0.45369 0.0
H756 H 0.78044 0.0661 0.42234 0.0
H757 H 0.82915 0.12437 0.49638 0.0
H758 H 0.79369 0.13891 0.45923 0.0
H759 H 0.85338 0.15525 0.49394 0.0
H760 H 0.81798 0.16974 0.45568 0.0
H761 H 0.90005 0.26952 0.49352 0.0
H762 H 0.91406 0.28374 0.53496 0.0
H763 H 0.9182 0.23773 0.55564 0.0
H764 H 0.90441 0.2236 0.51421 0.0
H765 H 0.89603 0.25594 0.43171 0.0
H766 H 0.92164 0.27168 0.40217 0.0
H767 H 0.9507 0.25215 0.4461 0.0
H768 H 0.92522 0.23636 0.47533 0.0
H769 H 0.89778 0.20874 0.467 0.0
H770 H 0.8736 0.17793 0.46611 0.0
H771 H 0.83568 0.19555 0.48087 0.0
N772 N 0.89468 0.23855 0.47508 0.0
H773 H 0.86002 0.22648 0.48061 0.0
C774 C 0.78599 0.10633 0.5052 0.0
C775 C 0.78495 0.09211 0.51961 0.0
C776 C 0.77446 0.0861 0.54195 0.0
C777 C 0.76485 0.09427 0.55029 0.0
C778 C 0.76604 0.1087 0.53619 0.0
C779 C 0.77651 0.11467 0.51369 0.0
C780 C 0.78547 0.10111 0.45877 0.0
C781 C 0.7701 0.10144 0.45074 0.0
C782 C 0.75834 0.08887 0.43287 0.0
C783 C 0.76174 0.07575 0.42295 0.0
C784 C 0.77761 0.07613 0.42975 0.0
C785 C 0.78937 0.08873 0.44751 0.0
C786 C 0.80968 0.12926 0.47786 0.0
C787 C 0.8267 0.13424 0.48734 0.0
C788 C 0.84057 0.15191 0.48575 0.0
C789 C 0.83777 0.16512 0.47446 0.0
C790 C 0.82064 0.16004 0.46477 0.0
C791 C 0.80671 0.14232 0.46657 0.0
C792 C 0.90101 0.24547 0.5008 0.0
C793 C 0.9037 0.26239 0.50719 0.0
C794 C 0.91171 0.27049 0.5307 0.0
C795 C 0.9171 0.26174 0.54827 0.0
C796 C 0.91403 0.24462 0.54232 0.0
C797 C 0.9061 0.23655 0.51871 0.0
C798 C 0.90862 0.24496 0.45571 0.0
C799 C 0.90774 0.25467 0.43452 0.0
C800 C 0.92232 0.26366 0.41777 0.0
C801 C 0.93802 0.26307 0.42206 0.0
C802 C 0.93865 0.25269 0.44247 0.0
C803 C 0.92407 0.24366 0.45913 0.0
C804 C 0.88073 0.22007 0.47363 0.0
C805 C 0.8843 0.20608 0.46972 0.0
C806 C 0.87037 0.18834 0.46947 0.0
C807 C 0.85256 0.1841 0.47346 0.0
C808 C 0.8491 0.19819 0.47727 0.0
C809 C 0.86302 0.21591 0.47731 0.0
H810 H 0.04553 0.59679 0.18823 0.0
N811 N 0.02441 0.57167 0.22145 0.0
H812 H 0.03673 0.60698 0.14938 0.0
H813 H 0.99067 0.5571 0.20179 0.0
H814 H 0.98176 0.56739 0.16287 0.0
H815 H 0.99597 0.57136 0.2451 0.0
H816 H 0.99765 0.59312 0.27721 0.0
H817 H 0.05313 0.59517 0.24741 0.0
H818 H 0.05484 0.61697 0.2795 0.0
H819 H 0.03976 0.55664 0.19512 0.0
H820 H 1.00012 0.54541 0.25387 0.0
H821 H 0.03415 0.52622 0.19818 0.0
H822 H 0.99527 0.51531 0.25852 0.0
H823 H 0.02961 0.44887 0.20503 0.0
H824 H 0.02899 0.43464 0.16367 0.0
H825 H 0.97209 0.4126 0.15921 0.0
H826 H 0.97266 0.42674 0.20097 0.0
H827 H 0.97926 0.41693 0.25914 0.0
H828 H 0.98796 0.40008 0.28825 0.0
H829 H 0.04316 0.44031 0.27919 0.0
H830 H 0.03454 0.45716 0.25044 0.0
H831 H 0.03273 0.47594 0.22178 0.0
H832 H 0.03847 0.50637 0.22192 0.0
H833 H 0.9831 0.48719 0.24067 0.0
N834 N 1.00069 0.44563 0.23153 0.0
H835 H 0.97795 0.4568 0.24253 0.0
C836 C 0.0188 0.57621 0.19773 0.0
C837 C 0.03162 0.59018 0.1826 0.0
C838 C 0.02661 0.596 0.16059 0.0
C839 C 0.00862 0.58793 0.15332 0.0
C840 C 0.99571 0.57374 0.1682 0.0
C841 C 1.00077 0.56788 0.1903 0.0
C842 C 0.02449 0.58164 0.24393 0.0
C843 C 0.00882 0.58091 0.25304 0.0
C844 C 0.00976 0.59333 0.27132 0.0
C845 C 0.02638 0.60667 0.2806 0.0
C846 C 0.0419 0.60674 0.27262 0.0
C847 C 0.04094 0.59431 0.25443 0.0
C848 C 0.02054 0.55347 0.22429 0.0
C849 C 0.02997 0.54762 0.20893 0.0
C850 C 0.02686 0.53021 0.21098 0.0
C851 C 0.01438 0.51813 0.22889 0.0
C852 C 0.00484 0.52403 0.24427 0.0
C853 C 0.00773 0.54142 0.24181 0.0
C854 C 1.0011 0.43885 0.20614 0.0
C855 C 0.01701 0.44116 0.19517 0.0
C856 C 0.01667 0.433 0.1716 0.0
C857 C 1.00049 0.42253 0.15856 0.0
C858 C 0.98469 0.42061 0.16908 0.0
C859 C 0.98501 0.42869 0.19274 0.0
C860 C 0.00613 0.43832 0.25251 0.0
C861 C 0.99318 0.4224 0.26409 0.0
C862 C 0.99814 0.41278 0.28059 0.0
C863 C 0.0162 0.41895 0.28576 0.0
C864 C 0.02915 0.43538 0.27548 0.0
C865 C 0.02417 0.44502 0.259 0.0
C866 C 0.00493 0.46399 0.23279 0.0
C867 C 0.02194 0.47825 0.22672 0.0
C868 C 0.02511 0.49577 0.22627 0.0
C869 C 0.01125 0.49949 0.23112 0.0
C870 C 0.99426 0.48511 0.2373 0.0
C871 C 0.99122 0.46764 0.23825 0.0
H872 H 0.61062 0.56591 0.22101 0.0
N873 N 0.57799 0.55758 0.23633 0.0
H874 H 0.62507 0.57941 0.17946 0.0
H875 H 0.56165 0.56178 0.19358 0.0
H876 H 0.57604 0.57509 0.152 0.0
H877 H 0.58417 0.59144 0.22526 0.0
H878 H 0.59832 0.61706 0.25372 0.0
H879 H 0.58218 0.55734 0.28789 0.0
H880 H 0.59477 0.58314 0.31742 0.0
H881 H 0.57036 0.52399 0.23278 0.0
H882 H 0.54582 0.55624 0.24281 0.0
H883 H 0.54121 0.49711 0.23333 0.0
H884 H 0.51639 0.52926 0.24501 0.0
H885 H 0.46192 0.41813 0.21208 0.0
H886 H 0.44867 0.40321 0.1706 0.0
H887 H 0.42951 0.4399 0.15752 0.0
H888 H 0.44229 0.45445 0.19903 0.0
H889 H 0.43454 0.45445 0.24375 0.0
H890 H 0.40811 0.4384 0.27172 0.0
H891 H 0.42725 0.40356 0.29724 0.0
H892 H 0.4534 0.41933 0.26877 0.0
H893 H 0.48949 0.4499 0.25563 0.0
H894 H 0.51774 0.47782 0.25898 0.0
H895 H 0.49369 0.50549 0.22189 0.0
N896 N 0.45931 0.44452 0.23424 0.0
H897 H 0.4652 0.47764 0.22053 0.0
C898 C 0.58506 0.56268 0.21035 0.0
C899 C 0.60289 0.56748 0.20579 0.0
C900 C 0.61112 0.57522 0.18222 0.0
C901 C 0.60159 0.57822 0.16278 0.0
C902 C 0.58354 0.57277 0.16679 0.0
C903 C 0.57532 0.56508 0.19042 0.0
C904 C 0.58247 0.57225 0.25411 0.0
C905 C 0.58638 0.58924 0.24522 0.0
C906 C 0.59447 0.60403 0.26161 0.0
C907 C 0.59804 0.60219 0.28768 0.0
C908 C 0.59255 0.585 0.29727 0.0
C909 C 0.58518 0.57025 0.2805 0.0
C910 C 0.56035 0.54208 0.23808 0.0
C911 C 0.55861 0.5252 0.23557 0.0
C912 C 0.54185 0.5098 0.23614 0.0
C913 C 0.52622 0.51079 0.23962 0.0
C914 C 0.52799 0.52784 0.24211 0.0
C915 C 0.54486 0.54333 0.24114 0.0
C916 C 0.45338 0.43757 0.2085 0.0
C917 C 0.45514 0.42313 0.20001 0.0
C918 C 0.44756 0.41462 0.17649 0.0
C919 C 0.43821 0.42054 0.16102 0.0
C920 C 0.43682 0.43526 0.16913 0.0
C921 C 0.44423 0.44364 0.19277 0.0
C922 C 0.44586 0.43798 0.25416 0.0
C923 C 0.43322 0.4436 0.25572 0.0
C924 C 0.41818 0.43446 0.27166 0.0
C925 C 0.41574 0.41977 0.28645 0.0
C926 C 0.42894 0.41489 0.28606 0.0
C927 C 0.44384 0.4239 0.26994 0.0
C928 C 0.47532 0.46155 0.2374 0.0
C929 C 0.49032 0.46206 0.24851 0.0
C930 C 0.50654 0.47807 0.2501 0.0
C931 C 0.50832 0.49405 0.24014 0.0
C932 C 0.49299 0.49359 0.22985 0.0
C933 C 0.47663 0.47754 0.22872 0.0
H934 H 0.57109 0.98973 0.20586 0.0
N935 N 0.5724 0.01887 0.2291 0.0
H936 H 0.58415 0.98922 0.16397 0.0
H937 H 0.58752 0.04517 0.19446 0.0
H938 H 0.60045 0.04455 0.15212 0.0
H939 H 0.60405 0.03871 0.25103 0.0
H940 H 0.62017 0.02854 0.27905 0.0
H941 H 0.55807 0.98589 0.25223 0.0
H942 H 0.57413 0.97581 0.28048 0.0
H943 H 0.54262 0.98864 0.21168 0.0
H944 H 0.56028 0.03843 0.25142 0.0
H945 H 0.51211 0.98287 0.21235 0.0
H946 H 0.5295 0.03244 0.25326 0.0
H947 H 0.44916 0.02551 0.20973 0.0
H948 H 0.43873 0.03265 0.16962 0.0
H949 H 0.4237 0.98066 0.13921 0.0
H950 H 0.43399 0.97344 0.17952 0.0
H951 H 0.45092 0.01999 0.25537 0.0
H952 H 0.42856 0.01882 0.28617 0.0
H953 H 0.39374 0.96348 0.26728 0.0
H954 H 0.41591 0.96477 0.23629 0.0
H955 H 0.45636 0.96985 0.23274 0.0
H956 H 0.4868 0.97537 0.2378 0.0
H957 H 0.50698 0.03172 0.22638 0.0
N958 N 0.44607 0.99332 0.22205 0.0
H959 H 0.47643 0.02603 0.22259 0.0
C960 C 0.57837 0.01759 0.2034 0.0
C961 C 0.5773 1.00174 0.19429 0.0
C962 C 0.58478 1.00143 0.1704 0.0
C963 C 0.59331 0.01686 0.15512 0.0
C964 C 0.59393 0.03253 0.16373 0.0
C965 C 0.58653 0.03287 0.18773 0.0
C966 C 0.57985 0.01318 0.24957 0.0
C967 C 0.59725 0.0251 0.25799 0.0
C968 C 0.60644 0.0193 0.27388 0.0
C969 C 0.59832 1.00146 0.2818 0.0
C970 C 0.58055 0.98968 0.27468 0.0
C971 C 0.57139 0.99546 0.25859 0.0
C972 C 0.55388 0.01413 0.23133 0.0
C973 C 0.53994 0.99826 0.22087 0.0
C974 C 0.52235 0.99491 0.22147 0.0
C975 C 0.51819 0.00721 0.23278 0.0
C976 C 0.53214 0.02279 0.24395 0.0
C977 C 0.54974 0.02618 0.24316 0.0
C978 C 0.44232 0.99886 0.1976 0.0
C979 C 0.44391 0.01574 0.19435 0.0
C980 C 0.43796 0.01983 0.17149 0.0
C981 C 0.43045 0.00716 0.15156 0.0
C982 C 0.42952 0.99061 0.15438 0.0
C983 C 0.43539 0.9865 0.17726 0.0
C984 C 0.43498 0.99242 0.24351 0.0
C985 C 0.43863 0.00754 0.25823 0.0
C986 C 0.42591 0.00688 0.27577 0.0
C987 C 0.40951 0.99106 0.2789 0.0
C988 C 0.40633 0.97577 0.2652 0.0
C989 C 0.41895 0.97647 0.24763 0.0
C990 C 0.46411 0.99744 0.2271 0.0
C991 C 0.46739 0.9834 0.2317 0.0
C992 C 0.48484 0.9866 0.23431 0.0
C993 C 0.4995 0.00399 0.23215 0.0
C994 C 0.4961 0.01816 0.22839 0.0
C995 C 0.47859 0.01494 0.22602 0.0
H996 H 0.41312 0.96498 0.82226 0.0
N997 N 0.444 0.99142 0.80498 0.0
H998 H 0.39805 0.96378 0.86338 0.0
H999 H 0.45786 0.0155 0.84497 0.0
H1000 H 0.44296 0.01417 0.88594 0.0
H1001 H 0.45129 0.02598 0.80388 0.0
H1002 H 0.43657 0.03775 0.77594 0.0
H1003 H 0.42423 0.97584 0.76327 0.0
H1004 H 0.40976 0.98775 0.73491 0.0
H1005 H 0.45008 0.9651 0.7937 0.0
H1006 H 0.47702 0.02122 0.8107 0.0
H1007 H 0.47863 0.966 0.79139 0.0
H1008 H 0.50565 0.02212 0.81071 0.0
H1009 H 0.5708 0.96996 0.81937 0.0
H1010 H 0.58448 0.97004 0.86127 0.0
H1011 H 0.58076 0.01571 0.8854 0.0
H1012 H 0.56709 0.01563 0.84348 0.0
H1013 H 0.58716 0.02787 0.80486 0.0
H1014 H 0.61201 0.04277 0.7765 0.0
H1015 H 0.59184 0.99485 0.73006 0.0
H1016 H 0.56707 0.98006 0.75963 0.0
H1017 H 0.52885 0.96683 0.81575 0.0
H1018 H 0.5009 0.96713 0.81641 0.0
H1019 H 0.5284 0.02144 0.78822 0.0
N1020 N 0.56105 0.99293 0.80288 0.0
H1021 H 0.55645 0.02138 0.78953 0.0
C1022 C 0.43667 0.99017 0.83055 0.0
C1023 C 0.41983 0.97559 0.8363 0.0
C1024 C 0.41125 0.97493 0.85962 0.0
C1025 C 0.41946 0.98887 0.87762 0.0
C1026 C 0.4365 0.00325 0.8723 0.0
C1027 C 0.44503 0.00395 0.8489 0.0
C1028 C 0.43877 0.99996 0.78567 0.0
C1029 C 0.44262 0.01768 0.7885 0.0
C1030 C 0.43421 0.0244 0.77259 0.0
C1031 C 0.42205 0.01358 0.75347 0.0
C1032 C 0.41915 0.99631 0.74951 0.0
C1033 C 0.42742 0.98955 0.76557 0.0
C1034 C 0.46132 0.99293 0.80287 0.0
C1035 C 0.46222 0.9776 0.79723 0.0
C1036 C 0.47862 0.97815 0.79625 0.0
C1037 C 0.49467 0.99406 0.80143 0.0
C1038 C 0.49373 0.00959 0.80648 0.0
C1039 C 0.47726 0.00908 0.8069 0.0
C1040 C 0.56789 0.9927 0.82835 0.0
C1041 C 0.57277 0.97985 0.83382 0.0
C1042 C 0.58056 0.97991 0.8576 0.0
C1043 C 0.58359 0.99287 0.87634 0.0
C1044 C 0.57846 0.00559 0.87115 0.0
C1045 C 0.57068 0.00554 0.8473 0.0
C1046 C 0.57471 0.00298 0.78382 0.0
C1047 C 0.58766 0.02085 0.78782 0.0
C1048 C 0.60193 0.02966 0.77058 0.0
C1049 C 0.60341 0.02128 0.74778 0.0
C1050 C 0.59065 1.00294 0.74498 0.0
C1051 C 0.57643 0.99411 0.76236 0.0
C1052 C 0.54481 0.99389 0.80233 0.0
C1053 C 0.52882 0.97881 0.80976 0.0
C1054 C 0.51277 0.97898 0.80984 0.0
C1055 C 0.51211 0.99423 0.80195 0.0
C1056 C 0.52823 0.00946 0.79467 0.0
C1057 C 0.54441 0.00938 0.79512 0.0
H1058 H 0.99182 0.56037 0.84424 0.0
N1059 N 0.01799 0.57215 0.80689 0.0
H1060 H 0.99333 0.57521 0.88523 0.0
H1061 H 0.04627 0.60014 0.82757 0.0
H1062 H 0.04781 0.61494 0.86911 0.0
H1063 H 0.98434 0.56766 0.80364 0.0
H1064 H 0.97517 0.58426 0.77516 0.0
H1065 H 0.03586 0.5924 0.76657 0.0
H1066 H 0.02647 0.60879 0.73756 0.0
H1067 H 0.98563 0.54119 0.81018 0.0
H1068 H 0.04181 0.56201 0.79823 0.0
H1069 H 0.98073 0.51101 0.81051 0.0
H1070 H 0.03697 0.53174 0.79636 0.0
H1071 H 0.97396 0.43227 0.85633 0.0
H1072 H 0.98087 0.4209 0.89584 0.0
H1073 H 0.03398 0.439 0.86722 0.0
H1074 H 0.02702 0.45013 0.82769 0.0
H1075 H 0.02143 0.45108 0.78209 0.0
H1076 H 0.02008 0.42863 0.75123 0.0
H1077 H 0.96433 0.3947 0.76876 0.0
H1078 H 0.96582 0.4169 0.79983 0.0
H1079 H 0.97333 0.45688 0.79381 0.0
H1080 H 0.9789 0.48723 0.78818 0.0
H1081 H 0.03148 0.50756 0.82124 0.0
N1082 N 0.99467 0.44649 0.81494 0.0
H1083 H 0.02621 0.47738 0.82486 0.0
C1084 C 0.01901 0.57914 0.83268 0.0
C1085 C 1.0042 0.57208 0.84944 0.0
C1086 C 0.00502 0.58057 0.87291 0.0
C1087 C 0.02065 0.59616 0.88009 0.0
C1088 C 0.03565 0.60289 0.86387 0.0
C1089 C 0.03478 0.59445 0.84031 0.0
C1090 C 0.01091 0.57885 0.78733 0.0
C1091 C 0.99354 0.57627 0.789 0.0
C1092 C 0.98828 0.58576 0.77274 0.0
C1093 C 1.00018 0.5978 0.75439 0.0
C1094 C 0.0171 0.59953 0.75158 0.0
C1095 C 0.02242 0.59017 0.76803 0.0
C1096 C 0.01422 0.55397 0.80473 0.0
C1097 C 0.99695 0.5393 0.80745 0.0
C1098 C 0.99413 0.52189 0.80721 0.0
C1099 C 0.00845 0.51868 0.80363 0.0
C1100 C 0.02561 0.53349 0.79987 0.0
C1101 C 0.02843 0.55086 0.80063 0.0
C1102 C 0.99995 0.44217 0.83919 0.0
C1103 C 0.98718 0.43407 0.85883 0.0
C1104 C 0.99109 0.42755 0.88121 0.0
C1105 C 0.00791 0.42912 0.88433 0.0
C1106 C 0.02095 0.43773 0.86513 0.0
C1107 C 0.01697 0.44412 0.84263 0.0
C1108 C 0.99369 0.43553 0.79328 0.0
C1109 C 0.00888 0.43895 0.7789 0.0
C1110 C 0.0081 0.4262 0.76133 0.0
C1111 C 0.9921 0.41002 0.75783 0.0
C1112 C 0.97676 0.40712 0.77114 0.0
C1113 C 0.97758 0.41976 0.78874 0.0
C1114 C 0.99917 0.4647 0.81001 0.0
C1115 C 0.98615 0.46796 0.79943 0.0
C1116 C 0.98932 0.48538 0.79655 0.0
C1117 C 0.00558 0.50009 0.80463 0.0
C1118 C 0.01885 0.49676 0.81449 0.0
C1119 C 0.01578 0.47932 0.81685 0.0
H1120 H 0.41662 0.45052 0.83001 0.0
N1121 N 0.44758 0.45606 0.81116 0.0
H1122 H 0.40274 0.43666 0.87171 0.0
H1123 H 0.46288 0.44655 0.85008 0.0
H1124 H 0.44909 0.43292 0.89172 0.0
H1125 H 0.43049 0.45481 0.76752 0.0
H1126 H 0.41502 0.42933 0.7377 0.0
H1127 H 0.44961 0.42543 0.81167 0.0
H1128 H 0.43406 0.40007 0.78221 0.0
H1129 H 0.47731 0.4529 0.80238 0.0
H1130 H 0.45977 0.49067 0.81738 0.0
H1131 H 0.50816 0.47697 0.80196 0.0
H1132 H 0.49076 0.51487 0.81813 0.0
H1133 H 0.6006 0.55756 0.85159 0.0
H1134 H 0.61088 0.57534 0.89158 0.0
H1135 H 0.5707 0.59041 0.8821 0.0
H1136 H 0.56049 0.57269 0.84192 0.0
H1137 H 0.57573 0.58379 0.79894 0.0
H1138 H 0.59762 0.60456 0.76762 0.0
H1139 H 0.62016 0.57023 0.76056 0.0
H1140 H 0.59811 0.54935 0.79171 0.0
H1141 H 0.56158 0.52069 0.83382 0.0
H1142 H 0.53066 0.49663 0.83057 0.0
H1143 H 0.51676 0.53279 0.79335 0.0
N1144 N 0.57523 0.55439 0.81953 0.0
H1145 H 0.5476 0.55688 0.79773 0.0
C1146 C 0.4408 0.44973 0.83694 0.0
C1147 C 0.42389 0.44698 0.84358 0.0
C1148 C 0.41599 0.43907 0.86724 0.0
C1149 C 0.42495 0.43385 0.8847 0.0
C1150 C 0.44206 0.43698 0.87849 0.0
C1151 C 0.44992 0.4448 0.85476 0.0
C1152 C 0.44119 0.44211 0.79183 0.0
C1153 C 0.43168 0.44307 0.77043 0.0
C1154 C 0.42286 0.42857 0.75352 0.0
C1155 C 0.42339 0.41285 0.75789 0.0
C1156 C 0.43354 0.41212 0.77856 0.0
C1157 C 0.44243 0.42663 0.79535 0.0
C1158 C 0.46607 0.46997 0.80967 0.0
C1159 C 0.48002 0.46637 0.80547 0.0
C1160 C 0.49779 0.48022 0.8055 0.0
C1161 C 0.50209 0.49798 0.81007 0.0
C1162 C 0.48806 0.50149 0.81409 0.0
C1163 C 0.47031 0.48765 0.81384 0.0
C1164 C 0.57976 0.5637 0.84396 0.0
C1165 C 0.5939 0.56454 0.85832 0.0
C1166 C 0.59977 0.57469 0.88097 0.0
C1167 C 0.59155 0.58416 0.88966 0.0
C1168 C 0.57717 0.58315 0.87562 0.0
C1169 C 0.57133 0.57302 0.8528 0.0
C1170 C 0.58524 0.56491 0.79754 0.0
C1171 C 0.58495 0.58039 0.79003 0.0
C1172 C 0.59749 0.5923 0.77226 0.0
C1173 C 0.61055 0.58895 0.76195 0.0
C1174 C 0.61017 0.57301 0.76829 0.0
C1175 C 0.59759 0.5611 0.78593 0.0
C1176 C 0.55697 0.54051 0.8159 0.0
C1177 C 0.55183 0.52335 0.82485 0.0
C1178 C 0.53414 0.50958 0.82278 0.0
C1179 C 0.52109 0.51264 0.81154 0.0
C1180 C 0.52633 0.52993 0.80238 0.0
C1181 C 0.54406 0.54375 0.80466 0.0
H1182 H 0.65745 0.89138 0.5362 0.0
N1183 N 0.6912 0.90594 0.55573 0.0
H1184 H 0.64868 0.90073 0.49618 0.0
H1185 H 0.71247 0.93009 0.52145 0.0
H1186 H 0.70382 0.93923 0.48138 0.0
H1187 H 0.66258 0.90555 0.5789 0.0
H1188 H 0.664 0.92756 0.61035 0.0
H1189 H 0.71978 0.92981 0.58158 0.0
H1190 H 0.72121 0.95177 0.61315 0.0
H1191 H 0.70745 0.89149 0.53029 0.0
H1192 H 0.66701 0.87954 0.58797 0.0
H1193 H 0.70228 0.86124 0.53341 0.0
H1194 H 0.66258 0.84958 0.59278 0.0
H1195 H 0.69879 0.78343 0.5414 0.0
H1196 H 0.70005 0.7702 0.49994 0.0
H1197 H 0.64404 0.7508 0.4881 0.0
H1198 H 0.6427 0.7639 0.52988 0.0
H1199 H 0.64786 0.74874 0.58543 0.0
H1200 H 0.6569 0.73153 0.61311 0.0
H1201 H 0.7102 0.77652 0.61692 0.0
H1202 H 0.70132 0.79364 0.58917 0.0
H1203 H 0.7009 0.81091 0.55579 0.0
H1204 H 0.70648 0.8413 0.5568 0.0
H1205 H 0.65091 0.82159 0.57487 0.0
N1206 N 0.66884 0.78039 0.5643 0.0
H1207 H 0.64593 0.79125 0.57593 0.0
C1208 C 0.68564 0.91012 0.53167 0.0
C1209 C 0.66761 0.90179 0.52428 0.0
C1210 C 0.66262 0.9071 0.50154 0.0
C1211 C 0.67564 0.92067 0.48594 0.0
C1212 C 0.69362 0.92874 0.49318 0.0
C1213 C 0.69855 0.92352 0.51589 0.0
C1214 C 0.69114 0.91606 0.57792 0.0
C1215 C 0.67538 0.91527 0.58678 0.0
C1216 C 0.67618 0.92781 0.6047 0.0
C1217 C 0.69272 0.94129 0.61397 0.0
C1218 C 0.70833 0.94143 0.60629 0.0
C1219 C 0.70752 0.92891 0.5884 0.0
C1220 C 0.68779 0.88792 0.55893 0.0
C1221 C 0.6976 0.88235 0.54393 0.0
C1222 C 0.69474 0.86503 0.54602 0.0
C1223 C 0.68213 0.85276 0.56364 0.0
C1224 C 0.67226 0.85842 0.57875 0.0
C1225 C 0.67491 0.87573 0.57622 0.0
C1226 C 0.67057 0.77463 0.53874 0.0
C1227 C 0.68682 0.77658 0.52981 0.0
C1228 C 0.68755 0.76899 0.50621 0.0
C1229 C 0.67212 0.7595 0.49113 0.0
C1230 C 0.65606 0.75808 0.49955 0.0
C1231 C 0.65531 0.76558 0.52322 0.0
C1232 C 0.67377 0.77252 0.58516 0.0
C1233 C 0.66135 0.7551 0.59291 0.0
C1234 C 0.6665 0.74527 0.60859 0.0
C1235 C 0.68421 0.75278 0.617 0.0
C1236 C 0.69644 0.77056 0.61071 0.0
C1237 C 0.69131 0.78036 0.59483 0.0
C1238 C 0.67302 0.79871 0.56642 0.0
C1239 C 0.69004 0.81311 0.56078 0.0
C1240 C 0.69311 0.8306 0.56084 0.0
C1241 C 0.67914 0.83416 0.56568 0.0
C1242 C 0.66215 0.81964 0.57151 0.0
C1243 C 0.65921 0.8022 0.57201 0.0
H1244 H 0.27424 0.90064 0.54239 0.0
N1245 N 0.24286 0.89272 0.56245 0.0
H1246 H 0.28702 0.91547 0.50077 0.0
H1247 H 0.2258 0.90115 0.52518 0.0
H1248 H 0.23854 0.91591 0.48344 0.0
H1249 H 0.23636 0.92052 0.56554 0.0
H1250 H 0.25187 0.94651 0.5941 0.0
H1251 H 0.26275 0.89575 0.60364 0.0
H1252 H 0.27802 0.92167 0.63266 0.0
H1253 H 0.23493 0.86 0.54956 0.0
H1254 H 0.21111 0.88997 0.57834 0.0
H1255 H 0.20608 0.8328 0.55083 0.0
H1256 H 0.18226 0.8626 0.58141 0.0
H1257 H 0.12006 0.74737 0.54884 0.0
H1258 H 0.10567 0.73239 0.50793 0.0
H1259 H 0.10072 0.77773 0.48598 0.0
H1260 H 0.11482 0.79256 0.52677 0.0
H1261 H 0.09821 0.78622 0.56833 0.0
H1262 H 0.07174 0.77133 0.59628 0.0
H1263 H 0.09487 0.74403 0.63626 0.0
H1264 H 0.12117 0.7586 0.60783 0.0
H1265 H 0.15726 0.78352 0.57681 0.0
H1266 H 0.18546 0.81156 0.578 0.0
H1267 H 0.1576 0.84002 0.55977 0.0
N1268 N 0.12514 0.77846 0.56629 0.0
H1269 H 0.1293 0.81187 0.56075 0.0
C1270 C 0.2491 0.89971 0.53677 0.0
C1271 C 0.26629 0.90369 0.52942 0.0
C1272 C 0.27356 0.91215 0.5058 0.0
C1273 C 0.26369 0.91673 0.48913 0.0
C1274 C 0.24629 0.91239 0.49608 0.0
C1275 C 0.23904 0.90397 0.51981 0.0
C1276 C 0.24846 0.90617 0.58242 0.0
C1277 C 0.24507 0.92042 0.5805 0.0
C1278 C 0.25392 0.93527 0.59677 0.0
C1279 C 0.26613 0.93601 0.61535 0.0
C1280 C 0.2686 0.9213 0.61847 0.0
C1281 C 0.25987 0.90652 0.60204 0.0
C1282 C 0.22537 0.87701 0.56414 0.0
C1283 C 0.22346 0.86064 0.55653 0.0
C1284 C 0.20689 0.84503 0.55755 0.0
C1285 C 0.19167 0.84524 0.5667 0.0
C1286 C 0.19355 0.86179 0.5741 0.0
C1287 C 0.21017 0.87753 0.5726 0.0
C1288 C 0.11873 0.77113 0.54083 0.0
C1289 C 0.11616 0.75419 0.53497 0.0
C1290 C 0.10793 0.74565 0.51178 0.0
C1291 C 0.1022 0.75401 0.49402 0.0
C1292 C 0.10516 0.77115 0.49944 0.0
C1293 C 0.11329 0.77964 0.52272 0.0
C1294 C 0.11164 0.77342 0.58597 0.0
C1295 C 0.09783 0.77741 0.58351 0.0
C1296 C 0.08272 0.76891 0.59942 0.0
C1297 C 0.08135 0.75653 0.61821 0.0
C1298 C 0.09572 0.75357 0.62193 0.0
C1299 C 0.11071 0.76191 0.60583 0.0
C1300 C 0.14125 0.79552 0.56819 0.0
C1301 C 0.15728 0.79586 0.57332 0.0
C1302 C 0.17344 0.81196 0.57365 0.0
C1303 C 0.17407 0.82823 0.56834 0.0
C1304 C 0.1578 0.82789 0.56399 0.0
C1305 C 0.14154 0.81171 0.56418 0.0
H1306 H 0.238 0.32086 0.54246 0.0
N1307 N 0.23943 0.3501 0.56555 0.0
H1308 H 0.25126 0.3203 0.50078 0.0
H1309 H 0.25475 0.37636 0.53094 0.0
H1310 H 0.26791 0.37569 0.48883 0.0
H1311 H 0.27072 0.37086 0.58789 0.0
H1312 H 0.28757 0.36152 0.61584 0.0
H1313 H 0.22609 0.31722 0.58859 0.0
H1314 H 0.24292 0.30793 0.61666 0.0
H1315 H 0.20966 0.3195 0.5491 0.0
H1316 H 0.22731 0.36989 0.58704 0.0
H1317 H 0.17914 0.31375 0.54933 0.0
H1318 H 0.19654 0.36393 0.58848 0.0
H1319 H 0.11565 0.35701 0.54687 0.0
H1320 H 0.10551 0.36529 0.50743 0.0
H1321 H 0.09285 0.31511 0.47247 0.0
H1322 H 0.10285 0.30677 0.51204 0.0
H1323 H 0.11965 0.34999 0.59343 0.0
H1324 H 0.09771 0.34893 0.62499 0.0
H1325 H 0.05932 0.29646 0.59778 0.0
H1326 H 0.08123 0.29748 0.56656 0.0
H1327 H 0.12335 0.30131 0.56825 0.0
H1328 H 0.15368 0.30671 0.57406 0.0
H1329 H 0.17423 0.36298 0.56106 0.0
N1330 N 0.11326 0.3248 0.55637 0.0
H1331 H 0.14379 0.35743 0.55654 0.0
C1332 C 0.24541 0.34875 0.5399 0.0
C1333 C 0.2443 0.33286 0.53089 0.0
C1334 C 0.25189 0.33252 0.50711 0.0
C1335 C 0.26059 0.34796 0.49189 0.0
C1336 C 0.26124 0.36366 0.50039 0.0
C1337 C 0.25371 0.36403 0.52427 0.0
C1338 C 0.24716 0.34484 0.58617 0.0
C1339 C 0.26436 0.35723 0.59475 0.0
C1340 C 0.27397 0.35191 0.6106 0.0
C1341 C 0.26647 0.33406 0.61828 0.0
C1342 C 0.24886 0.32179 0.61105 0.0
C1343 C 0.23925 0.32712 0.59506 0.0
C1344 C 0.22091 0.34529 0.56788 0.0
C1345 C 0.20697 0.32926 0.55784 0.0
C1346 C 0.18938 0.32592 0.55818 0.0
C1347 C 0.18522 0.33841 0.56881 0.0
C1348 C 0.19917 0.35413 0.57966 0.0
C1349 C 0.21677 0.35751 0.57912 0.0
C1350 C 0.10997 0.3312 0.53234 0.0
C1351 C 0.11103 0.34793 0.53059 0.0
C1352 C 0.10523 0.35265 0.50814 0.0
C1353 C 0.09841 0.34077 0.48715 0.0
C1354 C 0.09811 0.32445 0.48847 0.0
C1355 C 0.10383 0.31972 0.51092 0.0
C1356 C 0.10203 0.32371 0.57776 0.0
C1357 C 0.10667 0.33811 0.5947 0.0
C1358 C 0.09417 0.33753 0.61261 0.0
C1359 C 0.0769 0.32263 0.61356 0.0
C1360 C 0.07257 0.30804 0.59733 0.0
C1361 C 0.08505 0.30859 0.57965 0.0
C1362 C 0.13127 0.32887 0.56174 0.0
C1363 C 0.13443 0.31483 0.56702 0.0
C1364 C 0.15183 0.31795 0.57006 0.0
C1365 C 0.16657 0.33528 0.5677 0.0
C1366 C 0.1633 0.34947 0.56326 0.0
C1367 C 0.14584 0.34632 0.56046 0.0
C1368 C 0.99971 0.38793 0.11205 0.0
C1369 C 1.00149 0.39649 0.08785 0.0
C1370 C 1.00255 0.42211 0.10994 0.0
C1371 C 1.00012 0.41328 0.13407 0.0
N1372 N 0.99364 0.38688 0.15822 0.0
N1373 N 1.00154 0.42003 0.06291 0.0
C1374 C 0.99782 0.39587 0.13513 0.0
C1375 C 1.00202 0.41311 0.08656 0.0
N1376 N 1.00061 0.37262 0.11304 0.0
N1377 N 0.00584 0.43928 0.10948 0.0
H1378 H 1.00117 0.41379 0.04542 0.0
H1379 H 1.00005 0.43114 0.06052 0.0
H1380 H 0.00571 0.44607 0.12613 0.0
H1381 H 0.0098 0.44723 0.09294 0.0
H1382 H 1.00155 0.36683 0.13022 0.0
H1383 H 1.00161 0.36623 0.0965 0.0
H1384 H 0.98987 0.37348 0.1599 0.0
H1385 H 0.99269 0.39247 0.17564 0.0
C1386 C 0.63002 0.61683 0.11716 0.0
C1387 C 0.6275 0.60764 0.09336 0.0
C1388 C 0.60994 0.579 0.11583 0.0
C1389 C 0.61088 0.58829 0.13897 0.0
N1390 N 0.62001 0.616 0.16135 0.0
N1391 N 0.61335 0.58018 0.06902 0.0
C1392 C 0.62047 0.60721 0.13957 0.0
C1393 C 0.61711 0.58875 0.09242 0.0
N1394 N 0.642 0.63469 0.11847 0.0
N1395 N 0.60242 0.56088 0.11635 0.0
H1396 H 0.61836 0.58681 0.05146 0.0
H1397 H 0.60419 0.56668 0.06671 0.0
H1398 H 0.59672 0.55331 0.13304 0.0
H1399 H 0.60303 0.55346 0.1009 0.0
H1400 H 0.64581 0.64187 0.13574 0.0
H1401 H 0.64943 0.64207 0.10251 0.0
H1402 H 0.62496 0.62969 0.16203 0.0
H1403 H 0.61347 0.60946 0.17835 0.0
C1404 C 0.42346 0.01684 0.08178 0.0
C1405 C 0.40541 0.01272 0.08282 0.0
C1406 C 0.40425 0.0064 0.1294 0.0
C1407 C 0.42232 0.01058 0.12843 0.0
N1408 N 0.45024 0.0231 0.10551 0.0
N1409 N 0.37984 0.00751 0.10796 0.0
C1410 C 0.4323 0.01692 0.10515 0.0
C1411 C 0.3962 0.00875 0.10681 0.0
N1412 N 0.43184 0.01981 0.05831 0.0
N1413 N 0.39459 0.99955 0.15166 0.0
H1414 H 0.3737 0.00932 0.09174 0.0
H1415 H 0.37306 0.00632 0.12519 0.0
H1416 H 0.40014 0.99814 0.16884 0.0
H1417 H 0.38085 0.99422 0.15277 0.0
H1418 H 0.44422 0.02078 0.05577 0.0
H1419 H 0.42592 0.0203 0.04092 0.0
H1420 H 0.45866 0.02953 0.08991 0.0
H1421 H 0.457 0.02305 0.12224 0.0
C1422 C 0.38963 0.99708 0.9233 0.0
C1423 C 0.39341 0.99165 0.94731 0.0
C1424 C 0.41195 0.98172 0.92485 0.0
C1425 C 0.40979 0.98901 0.90139 0.0
N1426 N 0.3978 0.00486 0.87817 0.0
N1427 N 0.40935 0.98031 0.97181 0.0
C1428 C 0.39889 0.99697 0.90056 0.0
C1429 C 0.40475 0.98419 0.94832 0.0
N1430 N 0.3768 1.00188 0.92219 0.0
N1431 N 0.42075 0.97229 0.9246 0.0
H1432 H 0.40421 0.98175 0.98936 0.0
H1433 H 0.41916 0.97684 0.97415 0.0
H1434 H 0.42655 0.97062 0.90788 0.0
H1435 H 0.42116 0.965 0.94037 0.0
H1436 H 0.37209 0.00427 0.90496 0.0
H1437 H 0.36967 1.00193 0.93847 0.0
H1438 H 0.39187 0.01273 0.87706 0.0
H1439 H 0.40388 0.00453 0.86086 0.0
C1440 C 0.02012 0.42214 0.95288 0.0
C1441 C 0.01491 0.4038 0.95174 0.0
C1442 C 0.00803 0.40304 0.90534 0.0
C1443 C 0.01146 0.42083 0.90716 0.0
N1444 N 0.0201 0.44738 0.9322 0.0
N1445 N 1.00365 0.37644 0.92766 0.0
C1446 C 0.01749 0.43047 0.93077 0.0
C1447 C 0.0089 0.39418 0.9281 0.0
N1448 N 0.02752 0.43155 0.97516 0.0
N1449 N 1.00414 0.39471 0.88172 0.0
H1450 H 0.00532 0.36988 0.94343 0.0
H1451 H 0.997 0.36799 0.91219 0.0
H1452 H 1.00284 0.40056 0.86479 0.0
H1453 H 1.00334 0.38249 0.87836 0.0
H1454 H 0.03328 0.44531 0.97664 0.0
H1455 H 0.02902 0.42574 0.99198 0.0
H1456 H 0.0225 0.45452 0.94938 0.0
H1457 H 0.01896 0.45409 0.91615 0.0
C1458 C 0.59945 0.59801 0.9608 0.0
C1459 C 0.61539 0.61468 0.95864 0.0
C1460 C 0.61297 0.61301 0.91119 0.0
C1461 C 0.59843 0.59535 0.91335 0.0
N1462 N 0.57792 0.57051 0.93967 0.0
N1463 N 0.638 0.63804 0.93241 0.0
C1464 C 0.59155 0.58776 0.93804 0.0
C1465 C 0.62223 0.6223 0.93399 0.0
N1466 N 0.59187 0.59211 0.98467 0.0
N1467 N 0.61782 0.62088 0.8873 0.0
H1468 H 0.64479 0.64548 0.94872 0.0
H1469 H 0.6449 0.6433 0.91515 0.0
H1470 H 0.61148 0.61432 0.87021 0.0
H1471 H 0.62713 0.63428 0.88449 0.0
H1472 H 0.5794 0.5809 0.98752 0.0
H1473 H 0.59745 0.5993 1.00168 0.0
H1474 H 0.57365 0.56342 0.95698 0.0
H1475 H 0.5714 0.56286 0.92339 0.0
C1476 C 0.02537 0.61054 0.95109 0.0
C1477 C 0.01865 0.6225 0.94993 0.0
C1478 C 0.01582 0.6191 0.90254 0.0
C1479 C 0.02091 0.60589 0.90402 0.0
N1480 N 0.02959 0.58805 0.92921 0.0
N1481 N 0.00684 0.63791 0.92528 0.0
C1482 C 0.02556 0.60143 0.92817 0.0
C1483 C 0.01376 0.62676 0.92581 0.0
N1484 N 0.03155 0.60792 0.97415 0.0
N1485 N 0.01323 0.62451 0.87879 0.0
H1486 H 0.00631 0.6447 0.94163 0.0
H1487 H 1.00089 0.63988 0.90905 0.0
H1488 H 0.01411 0.61885 0.86138 0.0
H1489 H 0.01138 0.63537 0.876 0.0
H1490 H 0.03834 0.6009 0.97597 0.0
H1491 H 0.03094 0.61378 0.99151 0.0
H1492 H 0.03111 0.58263 0.94638 0.0
H1493 H 0.03046 0.58155 0.91271 0.0
C1494 C 0.41164 0.42402 0.95593 0.0
C1495 C 0.40007 0.40528 0.95505 0.0
C1496 C 0.40507 0.40528 0.90818 0.0
C1497 C 0.41598 0.42411 0.90884 0.0
N1498 N 0.42749 0.45184 0.93204 0.0
N1499 N 0.38297 0.37848 0.93008 0.0
C1500 C 0.41858 0.43362 0.93235 0.0
C1501 C 0.39598 0.39602 0.93107 0.0
N1502 N 0.41667 0.43251 0.97937 0.0
N1503 N 0.40375 0.39621 0.88581 0.0
H1504 H 0.37589 0.37136 0.94643 0.0
H1505 H 0.37803 0.37139 0.91288 0.0
H1506 H 0.40976 0.40253 0.86842 0.0
H1507 H 0.39776 0.38239 0.88482 0.0
H1508 H 0.42663 0.44575 0.98154 0.0
H1509 H 0.41179 0.42597 0.99703 0.0
H1510 H 0.42818 0.45959 0.94791 0.0
H1511 H 0.43312 0.45927 0.91523 0.0
C1512 C 0.62019 1.00033 0.92436 0.0
C1513 C 0.61045 0.99505 0.94794 0.0
C1514 C 0.58274 0.98645 0.92412 0.0
C1515 C 0.59279 0.99349 0.90103 0.0
N1516 N 0.62129 0.00929 0.87952 0.0
N1517 N 0.58288 0.98503 0.97116 0.0
C1518 C 0.61159 1.00101 0.90124 0.0
C1519 C 0.5918 0.98853 0.94807 0.0
N1520 N 0.63752 0.00411 0.92397 0.0
N1521 N 0.56453 0.97743 0.92303 0.0
H1522 H 0.589 0.9862 0.98905 0.0
H1523 H 0.56974 0.98222 0.97278 0.0
H1524 H 0.55747 0.97588 0.90591 0.0
H1525 H 0.55641 0.9703 0.93858 0.0
H1526 H 0.64487 0.00636 0.907 0.0
H1527 H 0.64406 0.0033 0.94047 0.0
H1528 H 0.63515 0.01676 0.87929 0.0
H1529 H 0.61547 0.00993 0.86212 0.0
C1530 C 0.60053 0.01163 0.08334 0.0
C1531 C 0.61784 0.01366 0.0841 0.0
C1532 C 0.61998 0.02044 0.13064 0.0
C1533 C 0.60201 0.01662 0.13037 0.0
N1534 N 0.5745 0.00719 0.10736 0.0
N1535 N 0.6435 0.01814 0.10851 0.0
C1536 C 0.5921 0.01189 0.10692 0.0
C1537 C 0.6275 0.01772 0.10773 0.0
N1538 N 0.59238 0.00992 0.05993 0.0
N1539 N 0.62989 0.02685 0.15278 0.0
H1540 H 0.64954 0.01645 0.09208 0.0
H1541 H 0.65025 0.01892 0.12561 0.0
H1542 H 0.6247 0.02854 0.17011 0.0
H1543 H 0.64358 0.03174 0.15356 0.0
H1544 H 0.58058 0.01022 0.05769 0.0
H1545 H 0.59817 0.00967 0.0423 0.0
H1546 H 0.56594 1.00159 0.09162 0.0
H1547 H 0.56806 0.00782 0.1241 0.0
C1548 C 0.99774 0.59434 0.0837 0.0
C1549 C 1.00023 0.61178 0.08558 0.0
C1550 C 1.00344 0.61121 0.13282 0.0
C1551 C 1.00356 0.59495 0.13044 0.0
N1552 N 1.00156 0.57113 0.10387 0.0
N1553 N 0.00581 0.63726 0.11132 0.0
C1554 C 1.00064 0.58638 0.10599 0.0
C1555 C 1.00301 0.62028 0.11004 0.0
N1556 N 0.99269 0.58548 0.06055 0.0
N1557 N 1.00352 0.61781 0.15695 0.0
H1558 H 1.00466 0.64391 0.0952 0.0
H1559 H 0.01012 0.6451 0.12796 0.0
H1560 H 1.00384 0.61146 0.17398 0.0
H1561 H 1.00177 0.62869 0.16025 0.0
H1562 H 0.98896 0.57213 0.05834 0.0
H1563 H 0.99081 0.59112 0.0438 0.0
H1564 H 1.00168 0.56532 0.08625 0.0
H1565 H 1.0033 0.56474 0.11983 0.0
C1566 C 0.40155 0.3887 0.11493 0.0
C1567 C 0.41058 0.39405 0.09078 0.0
C1568 C 0.43842 0.41471 0.11319 0.0
C1569 C 0.42894 0.41073 0.13699 0.0
N1570 N 0.40143 0.39473 0.16092 0.0
N1571 N 0.43707 0.41295 0.06613 0.0
C1572 C 0.41048 0.39787 0.13798 0.0
C1573 C 0.42894 0.40714 0.0897 0.0
N1574 N 0.38454 0.37452 0.11578 0.0
N1575 N 0.45652 0.42566 0.11312 0.0
H1576 H 0.43067 0.40749 0.04857 0.0
H1577 H 0.44978 0.4239 0.06374 0.0
H1578 H 0.46379 0.43194 0.12978 0.0
H1579 H 0.46454 0.42759 0.09701 0.0
H1580 H 0.37771 0.36873 0.13289 0.0
H1581 H 0.37767 0.36751 0.09924 0.0
H1582 H 0.38762 0.38721 0.16246 0.0
H1583 H 0.40766 0.40048 0.17846 0.0
C1584 C 0.67535 0.75024 0.41957 0.0
C1585 C 0.67391 0.7332 0.42111 0.0
C1586 C 0.66973 0.73279 0.46825 0.0
C1587 C 0.67263 0.75042 0.46694 0.0
N1588 N 0.68033 0.77691 0.44223 0.0
N1589 N 0.67227 0.7092 0.44687 0.0
C1590 C 0.67605 0.75944 0.44282 0.0
C1591 C 0.6717 0.72467 0.44544 0.0
N1592 N 0.67535 0.75732 0.39584 0.0
N1593 N 0.6648 0.72371 0.49126 0.0
H1594 H 0.67367 0.70284 0.4306 0.0
H1595 H 0.67278 0.70335 0.46427 0.0
H1596 H 0.66375 0.72939 0.50854 0.0
H1597 H 0.6605 0.71018 0.49294 0.0
H1598 H 0.67443 0.76876 0.39336 0.0
H1599 H 0.67476 0.75095 0.37839 0.0
H1600 H 0.68497 0.78487 0.42573 0.0
H1601 H 0.68046 0.78391 0.45878 0.0
C1602 C 0.27624 0.92785 0.41778 0.0
C1603 C 0.28797 0.94655 0.41928 0.0
C1604 C 0.28284 0.94577 0.46623 0.0
C1605 C 0.272 0.92694 0.46499 0.0
N1606 N 0.26041 0.89963 0.44069 0.0
N1607 N 0.30506 0.97289 0.44517 0.0
C1608 C 0.26932 0.91784 0.44106 0.0
C1609 C 0.29199 0.9554 0.4436 0.0
N1610 N 0.27109 0.91978 0.39406 0.0
N1611 N 0.28404 0.95447 0.48893 0.0
H1612 H 0.31223 0.98026 0.42904 0.0
H1613 H 0.30996 0.97966 0.46261 0.0
H1614 H 0.27784 0.94787 0.50607 0.0
H1615 H 0.29002 0.96827 0.49038 0.0
H1616 H 0.26105 0.90661 0.39154 0.0
H1617 H 0.27593 0.92662 0.3766 0.0
H1618 H 0.2597 0.89217 0.42443 0.0
H1619 H 0.25478 0.8919 0.45725 0.0
C1620 C 0.09158 0.35214 0.41826 0.0
C1621 C 0.07343 0.34768 0.41938 0.0
C1622 C 0.0721 0.34013 0.46551 0.0
C1623 C 0.09029 0.34467 0.46447 0.0
N1624 N 0.11837 0.35829 0.44188 0.0
N1625 N 0.04758 0.34138 0.44468 0.0
C1626 C 0.10037 0.35178 0.44145 0.0
C1627 C 0.06407 0.34292 0.44327 0.0
N1628 N 0.10012 0.35588 0.39485 0.0
N1629 N 0.06233 0.33247 0.48743 0.0
H1630 H 0.04147 0.34353 0.42873 0.0
H1631 H 0.04067 0.3396 0.46196 0.0
H1632 H 0.06782 0.33064 0.50436 0.0
H1633 H 0.04855 0.32688 0.48841 0.0
H1634 H 0.11262 0.35716 0.39214 0.0
H1635 H 0.09425 0.3567 0.37762 0.0
H1636 H 0.12683 0.36525 0.42655 0.0
H1637 H 0.12511 0.35798 0.45849 0.0
C1638 C 0.06005 0.3364 0.25925 0.0
C1639 C 0.06364 0.33061 0.28307 0.0
C1640 C 0.08258 0.32128 0.26036 0.0
C1641 C 0.08046 0.3288 0.2371 0.0
N1642 N 0.06863 0.345 0.21444 0.0
N1643 N 0.07965 0.31921 0.30726 0.0
C1644 C 0.06955 0.33674 0.23654 0.0
C1645 C 0.07516 0.32335 0.28388 0.0
N1646 N 0.04711 0.34105 0.25824 0.0
N1647 N 0.09151 0.31198 0.25985 0.0
H1648 H 0.07433 0.32034 0.32485 0.0
H1649 H 0.08955 0.31584 0.30952 0.0
H1650 H 0.0975 0.31063 0.24311 0.0
H1651 H 0.09188 0.30452 0.27541 0.0
H1652 H 0.04253 0.3437 0.24107 0.0
H1653 H 0.03975 0.3407 0.27447 0.0
H1654 H 0.06265 0.35285 0.21362 0.0
H1655 H 0.07494 0.34506 0.19717 0.0
C1656 C 0.67146 0.7258 0.26156 0.0
C1657 C 0.67987 0.73555 0.2844 0.0
C1658 C 0.6912 0.76372 0.26061 0.0
C1659 C 0.68204 0.75402 0.23811 0.0
N1660 N 0.66165 0.72616 0.21752 0.0
N1661 N 0.69518 0.76355 0.30721 0.0
C1662 C 0.67158 0.73514 0.23873 0.0
C1663 C 0.68908 0.75446 0.28435 0.0
N1664 N 0.66398 0.70766 0.26146 0.0
N1665 N 0.70219 0.78178 0.25913 0.0
H1666 H 0.69387 0.75724 0.32498 0.0
H1667 H 0.70024 0.77721 0.30904 0.0
H1668 H 0.70345 0.78913 0.24242 0.0
H1669 H 0.71091 0.78938 0.27385 0.0
H1670 H 0.65936 0.69988 0.2448 0.0
H1671 H 0.66355 0.70038 0.27784 0.0
H1672 H 0.6522 0.71265 0.21758 0.0
H1673 H 0.66193 0.73247 0.20014 0.0
C1674 C 0.25898 0.94707 0.28567 0.0
C1675 C 0.27769 0.95879 0.28436 0.0
C1676 C 0.27732 0.95331 0.23757 0.0
C1677 C 0.25854 0.94195 0.23874 0.0
N1678 N 0.23097 0.93035 0.26243 0.0
N1679 N 0.30421 0.97587 0.25884 0.0
C1680 C 0.2492 0.93961 0.26236 0.0
C1681 C 0.28672 0.96274 0.2602 0.0
N1682 N 0.2507 0.94235 0.3093 0.0
N1683 N 0.2862 0.95469 0.21497 0.0
H1684 H 0.31144 0.98312 0.27503 0.0
H1685 H 0.31117 0.9807 0.24151 0.0
H1686 H 0.27973 0.94856 0.19773 0.0
H1687 H 0.30003 0.96098 0.21357 0.0
H1688 H 0.23754 0.93228 0.31186 0.0
H1689 H 0.25734 0.94765 0.32676 0.0
H1690 H 0.22329 0.92975 0.27833 0.0
H1691 H 0.22343 0.9243 0.24585 0.0
C1692 C 0.69427 0.94213 0.28217 0.0
C1693 C 0.68754 0.95408 0.28089 0.0
C1694 C 0.68245 0.94873 0.23409 0.0
C1695 C 0.68983 0.93733 0.23517 0.0
N1696 N 0.70544 0.92533 0.25887 0.0
N1697 N 0.67839 0.97144 0.25545 0.0
C1698 C 0.6966 0.93472 0.25882 0.0
C1699 C 0.68254 0.95815 0.25676 0.0
N1700 N 0.69764 0.93723 0.30579 0.0
N1701 N 0.67493 0.95017 0.21154 0.0
H1702 H 0.67856 0.97873 0.27166 0.0
H1703 H 0.67633 0.97633 0.23814 0.0
H1704 H 0.6751 0.94394 0.19431 0.0
H1705 H 0.66747 0.95654 0.21022 0.0
H1706 H 0.70056 0.92704 0.3083 0.0
H1707 H 0.69631 0.94252 0.32327 0.0
H1708 H 0.71239 0.92455 0.27483 0.0
H1709 H 0.70698 0.91936 0.24225 0.0
C1710 C 0.07764 0.75613 0.28987 0.0
C1711 C 0.06432 0.73786 0.2889 0.0
C1712 C 0.0703 0.73666 0.24265 0.0
C1713 C 0.08351 0.75498 0.24351 0.0
N1714 N 0.0975 0.78309 0.26602 0.0
N1715 N 0.04516 0.71173 0.26386 0.0
C1716 C 0.08643 0.76503 0.26656 0.0
C1717 C 0.05978 0.72844 0.26506 0.0
N1718 N 0.08249 0.76472 0.31325 0.0
N1719 N 0.06826 0.72697 0.22067 0.0
H1720 H 0.03711 0.70547 0.27993 0.0
H1721 H 0.04005 0.70471 0.24665 0.0
H1722 H 0.07532 0.7326 0.20359 0.0
H1723 H 0.06042 0.71315 0.21974 0.0
H1724 H 0.09351 0.77736 0.31579 0.0
H1725 H 0.07608 0.75875 0.3306 0.0
H1726 H 0.09886 0.79148 0.28138 0.0
H1727 H 0.10435 0.78992 0.24936 0.0
C1728 C 0.28902 0.338 0.26043 0.0
C1729 C 0.28204 0.33821 0.28525 0.0
C1730 C 0.25854 0.34219 0.26522 0.0
C1731 C 0.26539 0.34179 0.24038 0.0
N1732 N 0.28485 0.33611 0.21368 0.0
N1733 N 0.25834 0.33677 0.31149 0.0
C1734 C 0.2799 0.33863 0.2378 0.0
C1735 C 0.2662 0.33915 0.28769 0.0
N1736 N 0.30478 0.33801 0.25857 0.0
N1737 N 0.2451 0.34608 0.26734 0.0
H1738 H 0.26362 0.3345 0.32831 0.0
H1739 H 0.24587 0.33553 0.31435 0.0
H1740 H 0.23874 0.34775 0.25128 0.0
H1741 H 0.24093 0.34871 0.28489 0.0
H1742 H 0.31175 0.34003 0.2413 0.0
H1743 H 0.31152 0.33704 0.27471 0.0
H1744 H 0.29411 0.33199 0.21049 0.0
H1745 H 0.27866 0.33681 0.1967 0.0
C1746 C 0.26921 0.34459 0.42007 0.0
C1747 C 0.28631 0.34613 0.42125 0.0
C1748 C 0.28733 0.35098 0.46829 0.0
C1749 C 0.26958 0.34779 0.46741 0.0
N1750 N 0.24272 0.33959 0.44333 0.0
N1751 N 0.31079 0.34839 0.44653 0.0
C1752 C 0.26026 0.34406 0.44351 0.0
C1753 C 0.29521 0.34878 0.44537 0.0
N1754 N 0.26182 0.3443 0.39649 0.0
N1755 N 0.29674 0.35637 0.49099 0.0
H1756 H 0.31697 0.34682 0.43019 0.0
H1757 H 0.3169 0.3482 0.46384 0.0
H1758 H 0.29127 0.35768 0.50832 0.0
H1759 H 0.31033 0.36084 0.4923 0.0
H1760 H 0.25029 0.3451 0.39423 0.0
H1761 H 0.26803 0.3448 0.37891 0.0
H1762 H 0.23457 0.33471 0.42704 0.0
H1763 H 0.23589 0.33957 0.46001 0.0
C1764 C 0.66546 0.94905 0.44012 0.0
C1765 C 0.66803 0.94292 0.41588 0.0
C1766 C 0.6708 0.91923 0.4378 0.0
C1767 C 0.67071 0.9269 0.46207 0.0
N1768 N 0.66811 0.94898 0.48707 0.0
N1769 N 0.67312 0.92239 0.39089 0.0
C1770 C 0.66783 0.94164 0.46346 0.0
C1771 C 0.67049 0.92791 0.4145 0.0
N1772 N 0.66085 0.96202 0.44071 0.0
N1773 N 0.67113 0.90361 0.43715 0.0
H1774 H 0.67199 0.92781 0.37339 0.0
H1775 H 0.67716 0.913 0.38852 0.0
H1776 H 0.67163 0.89711 0.45389 0.0
H1777 H 0.66953 0.89634 0.42031 0.0
H1778 H 0.65717 0.96604 0.45749 0.0
H1779 H 0.6594 0.96792 0.42394 0.0
H1780 H 0.66823 0.96096 0.48946 0.0
H1781 H 0.6691 0.94347 0.50456 0.0
C1782 C 0.09164 0.73916 0.42344 0.0
C1783 C 0.07288 0.72775 0.42475 0.0
C1784 C 0.07335 0.73362 0.47142 0.0
C1785 C 0.09219 0.74444 0.47032 0.0
N1786 N 0.1197 0.7553 0.44671 0.0
N1787 N 0.04622 0.71138 0.45028 0.0
C1788 C 0.10147 0.7465 0.44674 0.0
C1789 C 0.06383 0.72419 0.44887 0.0
N1790 N 0.09995 0.74366 0.39982 0.0
N1791 N 0.06452 0.73272 0.49388 0.0
H1792 H 0.03893 0.70411 0.43417 0.0
H1793 H 0.03923 0.70681 0.46763 0.0
H1794 H 0.07105 0.73894 0.51105 0.0
H1795 H 0.05072 0.72682 0.49516 0.0
H1796 H 0.1132 0.7535 0.39727 0.0
H1797 H 0.09326 0.73846 0.38236 0.0
H1798 H 0.12729 0.75561 0.43085 0.0
H1799 H 0.1273 0.76122 0.46328 0.0
C1800 C 0.32738 0.07404 0.7515 0.0
C1801 C 0.33359 0.06167 0.75255 0.0
C1802 C 0.33795 0.06603 0.79959 0.0
C1803 C 0.33098 0.07778 0.79875 0.0
N1804 N 0.31641 0.0909 0.7751 0.0
N1805 N 0.34154 0.04323 0.77765 0.0
C1806 C 0.32486 0.08114 0.77503 0.0
C1807 C 0.33794 0.0569 0.77665 0.0
N1808 N 0.32462 0.07957 0.72798 0.0
N1809 N 0.345 0.06396 0.82221 0.0
H1810 H 0.34138 0.03611 0.76123 0.0
H1811 H 0.34308 0.03785 0.79486 0.0
H1812 H 0.34484 0.07005 0.83958 0.0
H1813 H 0.35213 0.05724 0.82343 0.0
H1814 H 0.3221 0.09005 0.72573 0.0
H1815 H 0.32606 0.07447 0.71038 0.0
H1816 H 0.3099 0.09223 0.759 0.0
H1817 H 0.31473 0.09664 0.79187 0.0
C1818 C 0.93781 0.26164 0.75226 0.0
C1819 C 0.95459 0.27753 0.75366 0.0
C1820 C 0.95534 0.27393 0.80081 0.0
C1821 C 0.93777 0.25908 0.79971 0.0
N1822 N 0.91153 0.23939 0.77513 0.0
N1823 N 0.97887 0.2999 0.77893 0.0
C1824 C 0.92882 0.25303 0.7756 0.0
C1825 C 0.96332 0.28392 0.77784 0.0
N1826 N 0.93067 0.25462 0.72854 0.0
N1827 N 0.96445 0.27833 0.8238 0.0
H1828 H 0.98531 0.30733 0.76244 0.0
H1829 H 0.98485 0.3064 0.79617 0.0
H1830 H 0.95888 0.2716 0.84111 0.0
H1831 H 0.97792 0.28776 0.82546 0.0
H1832 H 0.91939 0.24216 0.72599 0.0
H1833 H 0.93686 0.26067 0.7111 0.0
H1834 H 0.90352 0.23565 0.75866 0.0
H1835 H 0.90472 0.23243 0.79174 0.0
C1836 C 0.76115 0.68866 0.75001 0.0
C1837 C 0.74373 0.68631 0.75124 0.0
C1838 C 0.74514 0.6874 0.79883 0.0
C1839 C 0.76272 0.69011 0.79762 0.0
N1840 N 0.78859 0.69589 0.77261 0.0
N1841 N 0.72001 0.68612 0.77582 0.0
C1842 C 0.77109 0.69158 0.77333 0.0
C1843 C 0.73598 0.68648 0.7754 0.0
N1844 N 0.76789 0.68743 0.72658 0.0
N1845 N 0.73708 0.68534 0.82242 0.0
H1846 H 0.7129 0.68527 0.75902 0.0
H1847 H 0.71434 0.68798 0.79247 0.0
H1848 H 0.74366 0.68687 0.84001 0.0
H1849 H 0.72363 0.68119 0.82475 0.0
H1850 H 0.77958 0.68692 0.72446 0.0
H1851 H 0.76121 0.68587 0.70907 0.0
H1852 H 0.79612 0.69911 0.75569 0.0
H1853 H 0.79604 0.69737 0.78928 0.0
C1854 C 0.72504 0.66471 0.59299 0.0
C1855 C 0.72911 0.6597 0.61713 0.0
C1856 C 0.74622 0.64814 0.59457 0.0
C1857 C 0.74391 0.65509 0.5709 0.0
N1858 N 0.73289 0.67182 0.54768 0.0
N1859 N 0.74516 0.64846 0.6416 0.0
C1860 C 0.73373 0.66382 0.5701 0.0
C1861 C 0.74 0.65174 0.61813 0.0
N1862 N 0.71244 0.66981 0.59186 0.0
N1863 N 0.75416 0.6379 0.59444 0.0
H1864 H 0.74093 0.65091 0.65928 0.0
H1865 H 0.75471 0.64458 0.64367 0.0
H1866 H 0.75907 0.63524 0.57756 0.0
H1867 H 0.75459 0.63087 0.61055 0.0
H1868 H 0.70755 0.67191 0.57455 0.0
H1869 H 0.70558 0.6703 0.60819 0.0
H1870 H 0.72748 0.68018 0.54668 0.0
H1871 H 0.7388 0.67124 0.53036 0.0
C1872 C 0.34933 0.06451 0.59295 0.0
C1873 C 0.35468 0.0733 0.61728 0.0
C1874 C 0.36488 0.10214 0.59583 0.0
C1875 C 0.35794 0.09314 0.57197 0.0
N1876 N 0.34167 0.0657 0.548 0.0
N1877 N 0.36545 0.10009 0.64275 0.0
C1878 C 0.34964 0.07429 0.57058 0.0
C1879 C 0.36201 0.09204 0.61896 0.0
N1880 N 0.34455 0.04693 0.59112 0.0
N1881 N 0.37448 0.12034 0.59626 0.0
H1882 H 0.36362 0.09319 0.66011 0.0
H1883 H 0.36885 0.11332 0.64549 0.0
H1884 H 0.37645 0.12815 0.57982 0.0
H1885 H 0.38159 0.1277 0.61239 0.0
H1886 H 0.34226 0.04016 0.57358 0.0
H1887 H 0.34445 0.03945 0.60705 0.0
H1888 H 0.33365 0.05193 0.54653 0.0
H1889 H 0.34194 0.0724 0.53104 0.0
C1890 C 0.95498 0.29118 0.59435 0.0
C1891 C 0.94567 0.28758 0.61825 0.0
C1892 C 0.91733 0.26872 0.5957 0.0
C1893 C 0.92687 0.27092 0.57232 0.0
N1894 N 0.9548 0.28267 0.54945 0.0
N1895 N 0.91839 0.27138 0.64264 0.0
C1896 C 0.94572 0.28174 0.57165 0.0
C1897 C 0.92691 0.27603 0.61919 0.0
N1898 N 0.97257 0.30407 0.59324 0.0
N1899 N 0.89911 0.25983 0.59535 0.0
H1900 H 0.9249 0.27652 0.66023 0.0
H1901 H 0.90514 0.26147 0.64492 0.0
H1902 H 0.89168 0.25388 0.57865 0.0
H1903 H 0.89135 0.25944 0.61104 0.0
H1904 H 0.97972 0.30866 0.57601 0.0
H1905 H 0.9797 0.31136 0.60944 0.0
H1906 H 0.96862 0.28859 0.54852 0.0
H1907 H 0.94847 0.27642 0.53219 0.0
C1908 C 0.34802 0.27084 0.61094 0.0
C1909 C 0.35986 0.28893 0.61758 0.0
C1910 C 0.37781 0.29157 0.57918 0.0
C1911 C 0.36425 0.27461 0.57038 0.0
N1912 N 0.33411 0.25008 0.57573 0.0
N1913 N 0.38431 0.31764 0.6044 0.0
C1914 C 0.34867 0.26477 0.58564 0.0
C1915 C 0.37438 0.29965 0.60078 0.0
N1916 N 0.33659 0.25917 0.62899 0.0
N1917 N 0.39412 0.29979 0.56741 0.0
H1918 H 0.38168 0.32438 0.61892 0.0
H1919 H 0.39392 0.32612 0.59117 0.0
H1920 H 0.39736 0.294 0.55217 0.0
H1921 H 0.40494 0.31141 0.57461 0.0
H1922 H 0.32879 0.24554 0.62547 0.0
H1923 H 0.33654 0.26265 0.64835 0.0
H1924 H 0.32194 0.24352 0.58548 0.0
H1925 H 0.33349 0.24568 0.55674 0.0
C1926 C 0.72605 0.06385 0.59403 0.0
C1927 C 0.7333 0.07091 0.61878 0.0
C1928 C 0.76069 0.09433 0.59853 0.0
C1929 C 0.7534 0.08736 0.57375 0.0
N1930 N 0.7282 0.06783 0.54724 0.0
N1931 N 0.75561 0.09465 0.64484 0.0
C1932 C 0.73572 0.07286 0.57131 0.0
C1933 C 0.75005 0.08674 0.62108 0.0
N1934 N 0.71031 0.04808 0.59231 0.0
N1935 N 0.778 0.1078 0.60051 0.0
H1936 H 0.7481 0.08939 0.66171 0.0
H1937 H 0.76684 0.10711 0.64763 0.0
H1938 H 0.78596 0.11411 0.58438 0.0
H1939 H 0.78484 0.11208 0.61802 0.0
H1940 H 0.70531 0.04105 0.57508 0.0
H1941 H 0.70264 0.0414 0.6085 0.0
H1942 H 0.71481 0.05859 0.54415 0.0
H1943 H 0.73504 0.07395 0.53021 0.0
C1944 C 0.93701 0.65081 0.60334 0.0
C1945 C 0.94222 0.66614 0.61904 0.0
C1946 C 0.93041 0.6779 0.58607 0.0
C1947 C 0.92329 0.66169 0.57198 0.0
N1948 N 0.91567 0.63077 0.57189 0.0
N1949 N 0.93795 0.69113 0.62865 0.0
C1950 C 0.92528 0.6475 0.58208 0.0
C1951 C 0.93712 0.67875 0.61144 0.0
N1952 N 0.94394 0.6399 0.60755 0.0
N1953 N 0.93163 0.6928 0.575 0.0
H1954 H 0.94134 0.69134 0.64812 0.0
H1955 H 0.93303 0.69965 0.62436 0.0
H1956 H 0.928 0.69322 0.55585 0.0
H1957 H 0.93819 0.70525 0.58397 0.0
H1958 H 0.94167 0.62953 0.59502 0.0
H1959 H 0.95352 0.64236 0.62164 0.0
H1960 H 0.91555 0.61971 0.5801 0.0
H1961 H 0.90632 0.62763 0.55713 0.0
C1962 C 0.9649 0.70435 0.76926 0.0
C1963 C 0.95425 0.6899 0.75237 0.0
C1964 C 0.92988 0.67856 0.78404 0.0
C1965 C 0.93979 0.69391 0.79966 0.0
N1966 N 0.96494 0.72376 0.8031 0.0
N1967 N 0.92454 0.66678 0.7405 0.0
C1968 C 0.95675 0.70757 0.79099 0.0
C1969 C 0.93609 0.67808 0.75877 0.0
N1970 N 0.9829 0.71441 0.76565 0.0
N1971 N 0.91501 0.66402 0.7936 0.0
H1972 H 0.9282 0.66683 0.7212 0.0
H1973 H 0.91087 0.65899 0.74377 0.0
H1974 H 0.91042 0.66332 0.8125 0.0
H1975 H 0.90839 0.65195 0.78364 0.0
H1976 H 0.99135 0.72393 0.779 0.0
H1977 H 0.98967 0.71201 0.75093 0.0
H1978 H 0.97655 0.73466 0.79604 0.0
H1979 H 0.95911 0.72682 0.81849 0.0
C1980 C 0.33407 0.25933 0.74982 0.0
C1981 C 0.33617 0.27662 0.75157 0.0
C1982 C 0.33906 0.27632 0.79888 0.0
C1983 C 0.3375 0.25923 0.79709 0.0
N1984 N 0.32988 0.23282 0.7723 0.0
N1985 N 0.33677 0.30007 0.77729 0.0
C1986 C 0.33373 0.25016 0.77296 0.0
C1987 C 0.33737 0.2846 0.77604 0.0
N1988 N 0.33326 0.25208 0.72593 0.0
N1989 N 0.34283 0.28485 0.82232 0.0
H1990 H 0.33555 0.30638 0.7608 0.0
H1991 H 0.33602 0.30591 0.79452 0.0
H1992 H 0.34334 0.27885 0.83961 0.0
H1993 H 0.34627 0.29812 0.82463 0.0
H1994 H 0.33388 0.24052 0.72299 0.0
H1995 H 0.33279 0.25815 0.70869 0.0
H1996 H 0.32537 0.22482 0.75583 0.0
H1997 H 0.32991 0.22591 0.78886 0.0
C1998 C 0.75297 0.08252 0.75204 0.0
C1999 C 0.73728 0.06564 0.75431 0.0
C2000 C 0.73973 0.06762 0.80178 0.0
C2001 C 0.75398 0.08542 0.79945 0.0
N2002 N 0.77394 0.11038 0.77285 0.0
N2003 N 0.71499 0.04216 0.78079 0.0
C2004 C 0.76066 0.09298 0.77469 0.0
C2005 C 0.73057 0.05807 0.77906 0.0
N2006 N 0.76064 0.08836 0.7282 0.0
N2007 N 0.73503 0.05987 0.82577 0.0
H2008 H 0.70818 0.03464 0.76456 0.0
H2009 H 0.7082 0.03687 0.79811 0.0
H2010 H 0.74127 0.06663 0.8428 0.0
H2011 H 0.72597 0.04643 0.82874 0.0
H2012 H 0.773 0.09972 0.72537 0.0
H2013 H 0.75532 0.08099 0.71125 0.0
H2014 H 0.77795 0.1174 0.75545 0.0
H2015 H 0.78037 0.11822 0.78902 0.0
C2016 C 0.0505 0.358 0.0727 0.0
C2017 C 0.05573 0.36644 0.04807 0.0
C2018 C 0.0829 0.36416 0.04956 0.0
C2019 C 0.07713 0.35485 0.07344 0.0
N2020 N 0.05396 0.33982 0.10537 0.0
N2021 N 0.07516 0.37492 0.01092 0.0
C2022 C 0.06043 0.35078 0.08422 0.0
C2023 C 0.07146 0.36878 0.03587 0.0
N2024 N 0.03669 0.35782 0.08587 0.0
N2025 N 0.09951 0.369 0.04034 0.0
H2026 H 0.06697 0.37826 1.00034 0.0
H2027 H 0.08542 0.37529 0.99995 0.0
H2028 H 0.108 0.36541 0.04951 0.0
H2029 H 0.10537 0.37752 0.02462 0.0
H2030 H 0.03362 0.35376 0.10512 0.0
H2031 H 0.02919 0.36321 0.07849 0.0
H2032 H 0.04102 0.33472 0.11231 0.0
H2033 H 0.06099 0.33455 0.11472 0.0
C2034 C 0.6533 0.69445 0.08074 0.0
C2035 C 0.65275 0.69268 0.0533 0.0
C2036 C 0.66126 0.7242 0.04844 0.0
C2037 C 0.66279 0.72617 0.0758 0.0
N2038 N 0.66341 0.71499 0.11755 0.0
N2039 N 0.65821 0.70593 0.01079 0.0
C2040 C 0.65958 0.71163 0.09181 0.0
C2041 C 0.65737 0.70761 0.03705 0.0
N2042 N 0.64748 0.67968 0.09608 0.0
N2043 N 0.66285 0.73796 0.03352 0.0
H2044 H 0.65503 0.69388 1.00191 0.0
H2045 H 0.66319 0.71663 0.99796 0.0
H2046 H 0.66555 0.75016 0.0414 0.0
H2047 H 0.66019 0.73694 0.01371 0.0
H2048 H 0.64535 0.67958 0.11595 0.0
H2049 H 0.64356 0.66704 0.08868 0.0
H2050 H 0.66293 0.70579 0.13103 0.0
H2051 H 0.66293 0.70579 0.13103 0.0
C2052 C 0.31633 0.96682 0.07177 0.0
C2053 C 0.31875 0.96056 0.04743 0.0
C2054 C 0.28808 0.9352 0.04939 0.0
C2055 C 0.2862 0.9407 0.07456 0.0
N2056 N 0.29838 0.96097 0.11067 0.0
N2057 N 0.30759 0.93874 0.01316 0.0
C2058 C 0.30025 0.95639 0.08592 0.0
C2059 C 0.30476 0.94474 0.03624 0.0
N2060 N 0.32949 0.98269 0.08148 0.0
N2061 N 0.27377 0.92101 0.03798 0.0
H2062 H 0.31914 0.94599 0.00218 0.0
H2063 H 0.2989 0.92631 0.00526 0.0
H2064 H 0.26157 0.91347 0.04739 0.0
H2065 H 0.27348 0.91725 0.01874 0.0
H2066 H 0.32785 0.98916 0.09733 0.0
H2067 H 0.34201 0.99009 0.07295 0.0
H2068 H 0.30872 0.97083 0.12154 0.0
H2069 H 0.28653 0.95423 0.12119 0.0
C2070 C 0.35575 0.04381 0.96246 0.0
C2071 C 0.36522 0.04935 0.98633 0.0
C2072 C 0.36184 0.07593 0.98672 0.0
C2073 C 0.3537 0.07113 0.9619 0.0
N2074 N 0.34364 0.05131 0.9251 0.0
N2075 N 0.37798 0.07072 0.02104 0.0
C2076 C 0.35072 0.0552 0.94959 0.0
C2077 C 0.36843 0.06542 0.99845 0.0
N2078 N 0.35164 0.02769 0.95197 0.0
N2079 N 0.36298 0.09041 0.99918 0.0
H2080 H 0.38192 0.0628 0.03107 0.0
H2081 H 0.38267 0.08319 0.02943 0.0
H2082 H 0.35869 0.09859 0.99082 0.0
H2083 H 0.36708 0.09376 0.01833 0.0
H2084 H 0.34291 0.0218 0.93651 0.0
H2085 H 0.35617 0.01951 0.95954 0.0
H2086 H 0.34318 0.04125 0.91352 0.0
H2087 H 0.33902 0.05882 0.9155 0.0
C2088 C 0.97053 0.31578 0.96637 0.0
C2089 C 0.96626 0.31824 0.99212 0.0
C2090 C 0.94159 0.2872 0.99294 0.0
C2091 C 0.94476 0.28542 0.9664 0.0
N2092 N 0.96057 0.29859 0.92661 0.0
N2093 N 0.9473 0.30691 0.02973 0.0
C2094 C 0.95887 0.29982 0.95283 0.0
C2095 C 0.95165 0.3041 0.00537 0.0
N2096 N 0.98568 0.32874 0.95473 0.0
N2097 N 0.92924 0.27261 0.00638 0.0
H2098 H 0.95504 0.31869 0.04002 0.0
H2099 H 0.93563 0.29798 0.03931 0.0
H2100 H 0.92159 0.26014 0.99775 0.0
H2101 H 0.92746 0.27245 0.02636 0.0
H2102 H 0.99064 0.32688 0.93732 0.0
H2103 H 0.99417 0.341 0.96329 0.0
H2104 H 0.96912 0.30933 0.915 0.0
H2105 H 0.95238 0.28716 0.91588 0.0
C2106 C 0.71799 0.65821 0.005 0.0
C2107 C 0.70171 0.64867 0.99123 0.0
C2108 C 0.7181 0.65229 0.95066 0.0
C2109 C 0.73442 0.6628 0.96408 0.0
N2110 N 0.75021 0.67725 0.00327 0.0
N2111 N 0.68589 0.6388 0.95062 0.0
C2112 C 0.73445 0.66619 0.99108 0.0
C2113 C 0.70166 0.64621 0.96398 0.0
N2114 N 0.7177 0.65914 0.03147 0.0
N2115 N 0.71831 0.64805 0.92514 0.0
H2116 H 0.67355 0.6342 0.95958 0.0
H2117 H 0.68502 0.63848 0.93047 0.0
H2118 H 0.72995 0.6531 0.91416 0.0
H2119 H 0.70709 0.63861 0.91516 0.0
H2120 H 0.72903 0.66425 0.04308 0.0
H2121 H 0.70588 0.65368 0.04211 0.0
H2122 H 0.75111 0.682 0.02208 0.0
H2123 H 0.76255 0.68253 0.99404 0.0
C2124 C 0.96954 0.66321 0.96728 0.0
C2125 C 0.9636 0.65327 0.99071 0.0
C2126 C 0.93641 0.65559 0.98955 0.0
C2127 C 0.94287 0.66633 0.96697 0.0
N2128 N 0.96678 0.68292 0.93663 0.0
N2129 N 0.94301 0.64245 0.02656 0.0
C2130 C 0.95984 0.67097 0.95662 0.0
C2131 C 0.94745 0.65013 0.00252 0.0
N2132 N 0.98386 0.66435 0.9543 0.0
N2133 N 0.91958 0.65032 0.99824 0.0
H2134 H 0.95091 0.63852 0.03668 0.0
H2135 H 0.93238 0.64134 0.03745 0.0
H2136 H 0.91142 0.65456 0.98968 0.0
H2137 H 0.91325 0.64088 0.01279 0.0
H2138 H 0.98746 0.66944 0.93559 0.0
H2139 H 0.99134 0.65883 0.96122 0.0
H2140 H 0.97993 0.68851 0.93037 0.0
H2141 H 0.95985 0.68837 0.92749 0.0
C2142 C 0.37361 0.30588 0.00295 0.0
C2143 C 0.37118 0.31925 0.99085 0.0
C2144 C 0.36107 0.30141 0.95093 0.0
C2145 C 0.36312 0.28786 0.9632 0.0
N2146 N 0.36816 0.27548 1.00192 0.0
N2147 N 0.35962 0.32853 0.95517 0.0
C2148 C 0.36842 0.28958 0.98958 0.0
C2149 C 0.36382 0.31654 0.9655 0.0
N2150 N 0.38117 0.30893 0.02706 0.0
N2151 N 0.35749 0.30032 0.92491 0.0
H2152 H 0.36222 0.34024 0.96454 0.0
H2153 H 0.35233 0.32629 0.93815 0.0
H2154 H 0.35524 0.28945 0.91351 0.0
H2155 H 0.35805 0.31073 0.91407 0.0
H2156 H 0.38532 0.30078 0.03578 0.0
H2157 H 0.38408 0.3202 0.038 0.0
H2158 H 0.3702 0.27511 0.02175 0.0
H2159 H 0.36449 0.26344 0.99258 0.0
C2160 C 0.70934 0.06611 0.00273 0.0
C2161 C 0.69501 0.05302 0.98783 0.0
C2162 C 0.71293 0.06416 0.94811 0.0
C2163 C 0.72657 0.07842 0.96258 0.0
N2164 N 0.73796 0.09362 0.00322 0.0
N2165 N 0.68228 0.03997 0.9464 0.0
C2166 C 0.72488 0.07951 0.98985 0.0
C2167 C 0.69665 0.05202 0.96056 0.0
N2168 N 0.7081 0.06551 0.0292 0.0
N2169 N 0.71554 0.06227 0.92238 0.0
H2170 H 0.67032 0.0305 0.95486 0.0
H2171 H 0.68169 0.03996 0.92623 0.0
H2172 H 0.72679 0.0714 0.91209 0.0
H2173 H 0.70713 0.05106 0.91148 0.0
H2174 H 0.71857 0.07359 0.04153 0.0
H2175 H 0.69683 0.05589 0.039 0.0
H2176 H 0.73683 0.09642 0.02253 0.0
H2177 H 0.74982 0.10316 0.99456 0.0
C2178 C 0.64695 0.94313 0.03545 0.0
C2179 C 0.64862 0.95849 0.04799 0.0
C2180 C 0.66376 0.95364 0.08475 0.0
C2181 C 0.66068 0.93744 0.07327 0.0
N2182 N 0.64797 0.91567 0.0391 0.0
N2183 N 0.65603 0.97693 0.08625 0.0
C2184 C 0.65189 0.93188 0.04897 0.0
C2185 C 0.65645 0.96345 0.07302 0.0
N2186 N 0.64117 0.93966 0.01031 0.0
N2187 N 0.67385 0.95976 0.10679 0.0
H2188 H 0.65074 0.98443 0.07854 0.0
H2189 H 0.65955 0.97978 0.1057 0.0
H2190 H 0.67886 0.95267 0.11661 0.0
H2191 H 0.67841 0.97246 0.11433 0.0
H2192 H 0.64131 0.92975 0.99907 0.0
H2193 H 0.63755 0.94769 0.99987 0.0
H2194 H 0.63987 0.90988 0.02297 0.0
H2195 H 0.65188 0.90738 0.04812 0.0
C2196 C 0.07026 0.71129 0.03686 0.0
C2197 C 0.05433 0.69814 0.049 0.0
C2198 C 0.06189 0.71651 0.08841 0.0
C2199 C 0.07798 0.72945 0.07646 0.0
N2200 N 0.09616 0.74115 0.0383 0.0
N2201 N 0.03335 0.68926 0.08447 0.0
C2202 C 0.08171 0.72746 0.05028 0.0
C2203 C 0.04956 0.70118 0.0741 0.0
N2204 N 0.07454 0.70809 0.01269 0.0
N2205 N 0.05886 0.71848 0.11394 0.0
H2206 H 0.02441 0.67728 0.07558 0.0
H2207 H 0.02815 0.69164 0.1012 0.0
H2208 H 0.06716 0.72984 0.12473 0.0
H2209 H 0.04869 0.70858 0.12501 0.0
H2210 H 0.08683 0.71598 0.0038 0.0
H2211 H 0.06589 0.69699 1.00166 0.0
H2212 H 0.09894 0.74141 0.01863 0.0
H2213 H 0.10481 0.75303 0.04779 0.0
C2214 C 0.32155 0.36168 0.07856 0.0
C2215 C 0.32462 0.36748 0.05235 0.0
C2216 C 0.29494 0.36461 0.05034 0.0
C2217 C 0.29287 0.36103 0.07738 0.0
N2218 N 0.30499 0.35817 0.11812 0.0
N2219 N 0.31493 0.37531 0.01323 0.0
C2220 C 0.30629 0.35989 0.0917 0.0
C2221 C 0.31145 0.3691 0.03817 0.0
N2222 N 0.33334 0.35806 0.091 0.0
N2223 N 0.28097 0.36339 0.03631 0.0
H2224 H 0.32647 0.37781 0.00335 0.0
H2225 H 0.30687 0.37883 0.00276 0.0
H2226 H 0.26876 0.36014 0.04473 0.0
H2227 H 0.28092 0.36417 0.01616 0.0
H2228 H 0.33087 0.35189 0.10906 0.0
H2229 H 0.34504 0.35988 0.08243 0.0
H2230 H 0.3153 0.35945 0.12998 0.0
H2231 H 0.29412 0.35687 0.12863 0.0
C2232 C 0.72178 0.68375 0.37505 0.0
C2233 C 0.72554 0.70155 0.37892 0.0
C2234 C 0.75197 0.70733 0.40408 0.0
C2235 C 0.74618 0.68886 0.40456 0.0
N2236 N 0.72288 0.65887 0.39424 0.0
N2237 N 0.74212 0.72882 0.40389 0.0
C2238 C 0.73037 0.67685 0.39097 0.0
C2239 C 0.74015 0.71305 0.39513 0.0
N2240 N 0.71046 0.67354 0.35577 0.0
N2241 N 0.76876 0.71946 0.41215 0.0
H2242 H 0.73279 0.73285 0.40065 0.0
H2243 H 0.75181 0.73676 0.41743 0.0
H2244 H 0.778 0.71577 0.41804 0.0
H2245 H 0.77403 0.73317 0.41015 0.0
H2246 H 0.70848 0.66098 0.35097 0.0
H2247 H 0.70481 0.67842 0.34259 0.0
H2248 H 0.71045 0.64976 0.38661 0.0
H2249 H 0.72804 0.65313 0.40675 0.0
C2250 C 0.33024 0.03723 0.40674 0.0
C2251 C 0.32098 0.03397 0.38279 0.0
C2252 C 0.32392 0.0637 0.38472 0.0
C2253 C 0.33392 0.06723 0.40796 0.0
N2254 N 0.34918 0.05873 0.43904 0.0
N2255 N 0.31146 0.04484 0.34671 0.0
C2256 C 0.33792 0.05442 0.41826 0.0
C2257 C 0.3185 0.04743 0.37113 0.0
N2258 N 0.33078 0.02359 0.41931 0.0
N2259 N 0.3193 0.07574 0.37597 0.0
H2260 H 0.30752 0.03315 0.33621 0.0
H2261 H 0.31087 0.0547 0.33597 0.0
H2262 H 0.32359 0.08802 0.38495 0.0
H2263 H 0.31036 0.07318 0.36087 0.0
H2264 H 0.33534 0.02451 0.43825 0.0
H2265 H 0.32533 0.01078 0.4117 0.0
H2266 H 0.35435 0.05083 0.44546 0.0
H2267 H 0.35448 0.07087 0.4488 0.0
C2268 C 0.97382 0.27969 0.36924 0.0
C2269 C 0.98726 0.29561 0.38091 0.0
C2270 C 0.96705 0.29156 0.41699 0.0
C2271 C 0.95444 0.27465 0.40687 0.0
N2272 N 0.94602 0.25174 0.37457 0.0
N2273 N 0.99777 0.31542 0.41787 0.0
C2274 C 0.95784 0.26849 0.38323 0.0
C2275 C 0.98413 0.30132 0.4052 0.0
N2276 N 0.97615 0.27557 0.34448 0.0
N2277 N 0.96265 0.29836 0.43783 0.0
H2278 H 0.01058 0.32286 0.41023 0.0
H2279 H 0.99689 0.31884 0.43695 0.0
H2280 H 0.95044 0.29145 0.44742 0.0
H2281 H 0.97046 0.31143 0.44427 0.0
H2282 H 0.96622 0.26511 0.33384 0.0
H2283 H 0.98761 0.28359 0.33367 0.0
H2284 H 0.94861 0.24562 0.35912 0.0
H2285 H 0.93398 0.24344 0.38393 0.0
C2286 C 0.03443 0.40047 0.33735 0.0
C2287 C 0.03326 0.38558 0.324 0.0
C2288 C 0.02143 0.39293 0.28554 0.0
C2289 C 0.02168 0.40724 0.29933 0.0
N2290 N 0.02586 0.42326 0.33927 0.0
N2291 N 0.02323 0.36592 0.28691 0.0
C2292 C 0.02747 0.41063 0.32554 0.0
C2293 C 0.02589 0.38123 0.29862 0.0
N2294 N 0.04239 0.40501 0.36119 0.0
N2295 N 0.01777 0.39105 0.25951 0.0
H2296 H 0.02715 0.35742 0.2951 0.0
H2297 H 0.01595 0.36088 0.26987 0.0
H2298 H 0.01442 0.39929 0.24911 0.0
H2299 H 0.01948 0.38229 0.24764 0.0
H2300 H 0.04559 0.41683 0.37071 0.0
H2301 H 0.04668 0.39729 0.37101 0.0
H2302 H 0.0281 0.42522 0.35915 0.0
H2303 H 0.02097 0.43099 0.33109 0.0
C2304 C 0.63301 0.63832 0.33231 0.0
C2305 C 0.62885 0.65215 0.32894 0.0
C2306 C 0.60177 0.63092 0.30556 0.0
C2307 C 0.60788 0.61851 0.30427 0.0
N2308 N 0.63202 0.6126 0.31244 0.0
N2309 N 0.61118 0.66214 0.30513 0.0
C2310 C 0.62423 0.62273 0.31665 0.0
C2311 C 0.61367 0.64862 0.31375 0.0
N2312 N 0.64489 0.63971 0.35088 0.0
N2313 N 0.58462 0.62588 0.29896 0.0
H2314 H 0.62053 0.67557 0.30753 0.0
H2315 H 0.60096 0.66001 0.29236 0.0
H2316 H 0.57533 0.61283 0.29376 0.0
H2317 H 0.57924 0.63419 0.30156 0.0
H2318 H 0.64722 0.6293 0.35526 0.0
H2319 H 0.65065 0.65026 0.364 0.0
H2320 H 0.64474 0.61625 0.31923 0.0
H2321 H 0.62677 0.60172 0.29991 0.0
C2322 C 0.37583 0.9802 0.33333 0.0
C2323 C 0.36363 0.98434 0.32115 0.0
C2324 C 0.38274 0.99498 0.28244 0.0
C2325 C 0.39484 0.99066 0.29453 0.0
N2326 N 0.40498 0.9824 0.3327 0.0
N2327 N 0.35666 0.99838 0.28613 0.0
C2328 C 0.39203 0.9843 0.32044 0.0
C2329 C 0.36757 0.99275 0.29643 0.0
N2330 N 0.37172 0.972 0.35704 0.0
N2331 N 0.38531 1.00035 0.25705 0.0
H2332 H 0.34483 0.99605 0.29484 0.0
H2333 H 0.35982 0.00642 0.26974 0.0
H2334 H 0.39655 1.00274 0.24643 0.0
H2335 H 0.37592 1.00149 0.24589 0.0
H2336 H 0.37883 0.96665 0.36576 0.0
H2337 H 0.3606 0.96991 0.36773 0.0
H2338 H 0.40467 0.97937 0.35229 0.0
H2339 H 0.41687 0.98517 0.32361 0.0
C2340 C 0.62936 0.98261 0.29168 0.0
C2341 C 0.63046 0.98263 0.31917 0.0
C2342 C 0.61126 0.99595 0.32232 0.0
C2343 C 0.60914 0.99474 0.29493 0.0
N2344 N 0.61452 0.98534 0.25348 0.0
N2345 N 0.62144 0.98757 0.36104 0.0
C2346 C 0.61773 0.98761 0.2796 0.0
C2347 C 0.62117 0.98888 0.33463 0.0
N2348 N 0.63992 0.97836 0.2771 0.0
N2349 N 0.60402 0.00413 0.33645 0.0
H2350 H 0.62889 0.98284 0.37056 0.0
H2351 H 0.6135 0.99008 0.37351 0.0
H2352 H 0.59618 0.00886 0.32814 0.0
H2353 H 0.60657 0.00722 0.35605 0.0
H2354 H 0.64139 0.98006 0.25708 0.0
H2355 H 0.64841 0.97436 0.2852 0.0
H2356 H 0.61854 0.97824 0.24171 0.0
H2357 H 0.60675 0.98954 0.24364 0.0
C2358 C 0.02862 0.65048 0.2987 0.0
C2359 C 0.03455 0.65244 0.32483 0.0
C2360 C 0.03167 0.62274 0.32328 0.0
C2361 C 0.02785 0.62177 0.29636 0.0
N2362 N 0.02459 0.63543 0.2575 0.0
N2363 N 0.04251 0.6411 0.36205 0.0
C2364 C 0.02662 0.63574 0.28386 0.0
C2365 C 0.03623 0.6387 0.33718 0.0
N2366 N 0.02509 0.66282 0.28793 0.0
N2367 N 0.0306 0.60825 0.33557 0.0
H2368 H 0.04497 0.65214 0.37322 0.0
H2369 H 0.04609 0.63264 0.37123 0.0
H2370 H 0.02735 0.59644 0.32586 0.0
H2371 H 0.03154 0.60735 0.35559 0.0
H2372 H 0.01876 0.66109 0.2701 0.0
H2373 H 0.0272 0.67428 0.29758 0.0
H2374 H 0.02583 0.64619 0.24678 0.0
H2375 H 0.02301 0.62491 0.24582 0.0
C2376 C 0.3677 0.38351 0.29935 0.0
C2377 C 0.36571 0.38671 0.32585 0.0
C2378 C 0.39625 0.41231 0.32622 0.0
C2379 C 0.39858 0.40838 0.30026 0.0
N2380 N 0.38763 0.38885 0.26313 0.0
N2381 N 0.37852 0.40242 0.3657 0.0
C2382 C 0.38463 0.39352 0.28717 0.0
C2383 C 0.38012 0.40067 0.33962 0.0
N2384 N 0.35316 0.37158 0.28537 0.0
N2385 N 0.40936 0.42737 0.33785 0.0
H2386 H 0.36692 0.39409 0.37602 0.0
H2387 H 0.38903 0.41112 0.37753 0.0
H2388 H 0.42151 0.43584 0.32887 0.0
H2389 H 0.40782 0.43213 0.35563 0.0
H2390 H 0.35324 0.37019 0.26532 0.0
H2391 H 0.34048 0.36401 0.2934 0.0
H2392 H 0.37881 0.37694 0.25395 0.0
H2393 H 0.39954 0.39627 0.25297 0.0
C2394 C 0.33463 0.29714 0.37684 0.0
C2395 C 0.31642 0.29242 0.37899 0.0
C2396 C 0.3107 0.26497 0.40123 0.0
C2397 C 0.32927 0.27161 0.4039 0.0
N2398 N 0.35903 0.2971 0.39927 0.0
N2399 N 0.28817 0.27345 0.40083 0.0
C2400 C 0.34134 0.28856 0.39306 0.0
C2401 C 0.30463 0.27671 0.39314 0.0
N2402 N 0.34548 0.30932 0.35887 0.0
N2403 N 0.2988 0.24748 0.4062 0.0
H2404 H 0.28377 0.28256 0.39868 0.0
H2405 H 0.27992 0.26274 0.41277 0.0
H2406 H 0.30279 0.23829 0.41102 0.0
H2407 H 0.28519 0.24184 0.40257 0.0
H2408 H 0.35853 0.31212 0.35565 0.0
H2409 H 0.34082 0.31475 0.34498 0.0
H2410 H 0.36787 0.31011 0.39331 0.0
H2411 H 0.36443 0.29219 0.4128 0.0
C2412 C 0.72031 0.03136 0.40663 0.0
C2413 C 0.72388 0.02921 0.38039 0.0
C2414 C 0.75025 0.05923 0.38074 0.0
C2415 C 0.74791 0.0604 0.40777 0.0
N2416 N 0.73192 0.04689 0.44735 0.0
N2417 N 0.74239 0.04047 0.34237 0.0
C2418 C 0.73313 0.04638 0.42092 0.0
C2419 C 0.73887 0.04302 0.36737 0.0
N2420 N 0.70475 0.01892 0.41803 0.0
N2421 N 0.76318 0.07374 0.36785 0.0
H2422 H 0.73379 0.0292 0.33161 0.0
H2423 H 0.75416 0.04902 0.33268 0.0
H2424 H 0.77169 0.08574 0.37716 0.0
H2425 H 0.76459 0.07445 0.34776 0.0
H2426 H 0.70041 0.02073 0.43601 0.0
H2427 H 0.69539 0.00728 0.40875 0.0
H2428 H 0.72276 0.03615 0.45844 0.0
H2429 H 0.74096 0.05759 0.45866 0.0
C2430 C 0.97382 0.70067 0.37077 0.0
C2431 C 0.98666 0.69774 0.38357 0.0
C2432 C 0.96498 0.68106 0.41791 0.0
C2433 C 0.95275 0.68545 0.40643 0.0
N2434 N 0.94577 0.70066 0.3734 0.0
N2435 N 0.99555 0.68759 0.42133 0.0
C2436 C 0.95723 0.69559 0.38321 0.0
C2437 C 0.98249 0.68846 0.40758 0.0
N2438 N 0.9773 0.70781 0.34636 0.0
N2439 N 0.95979 0.66967 0.43863 0.0
H2440 H 0.00859 0.69288 0.41466 0.0
H2441 H 0.99394 0.68296 0.44034 0.0
H2442 H 0.94734 0.66449 0.44748 0.0
H2443 H 0.96727 0.66424 0.44585 0.0
H2444 H 0.96791 0.7087 0.33482 0.0
H2445 H 0.98924 0.71152 0.33668 0.0
H2446 H 0.94899 0.70969 0.35823 0.0
H2447 H 0.93331 0.69668 0.38159 0.0
C2448 C 0.40578 0.03441 0.70259 0.0
C2449 C 0.3899 0.03184 0.71457 0.0
C2450 C 0.39423 0.01567 0.7504 0.0
C2451 C 0.4109 0.01961 0.7396 0.0
N2452 N 0.43355 0.03401 0.70692 0.0
N2453 N 0.37035 0.02254 0.75178 0.0
C2454 C 0.41696 0.02934 0.71607 0.0
C2455 C 0.3844 0.02302 0.7389 0.0
N2456 N 0.40984 0.04118 0.67799 0.0
N2457 N 0.38771 0.00474 0.77158 0.0
H2458 H 0.36279 0.0278 0.7442 0.0
H2459 H 0.36705 0.0183 0.77091 0.0
H2460 H 0.3948 0.99969 0.78132 0.0
H2461 H 0.37474 0.99958 0.77841 0.0
H2462 H 0.42023 0.04179 0.66704 0.0
H2463 H 0.40188 0.04491 0.6676 0.0
H2464 H 0.43964 0.04275 0.6915 0.0
H2465 H 0.4418 0.03003 0.71587 0.0
C2466 C 0.99213 0.36716 0.74107 0.0
C2467 C 0.98417 0.36361 0.71604 0.0
C2468 C 0.98568 0.39275 0.71618 0.0
C2469 C 0.9915 0.39521 0.74235 0.0
N2470 N 0.99991 0.38497 0.78038 0.0
N2471 N 0.97345 0.37271 0.67929 0.0
C2472 C 0.99491 0.3826 0.75484 0.0
C2473 C 0.9811 0.37641 0.70338 0.0
N2474 N 0.99677 0.35562 0.75187 0.0
N2475 N 0.98473 0.40615 0.70363 0.0
H2476 H 0.97107 0.36147 0.66869 0.0
H2477 H 0.96884 0.38033 0.67009 0.0
H2478 H 0.98788 0.41816 0.71266 0.0
H2479 H 0.98212 0.40605 0.68391 0.0
H2480 H 1.00448 0.3584 0.76856 0.0
H2481 H 0.99394 0.34358 0.74335 0.0
H2482 H 1.00037 0.3753 0.7918 0.0
H2483 H 1.00275 0.3964 0.79084 0.0
C2484 C 0.64301 0.61183 0.70615 0.0
C2485 C 0.65681 0.62686 0.71907 0.0
C2486 C 0.63981 0.61767 0.7597 0.0
C2487 C 0.62578 0.60282 0.74668 0.0
N2488 N 0.61231 0.58749 0.70683 0.0
N2489 N 0.66709 0.6462 0.75643 0.0
C2490 C 0.62686 0.60045 0.71963 0.0
C2491 C 0.65472 0.63051 0.74526 0.0
N2492 N 0.64555 0.60824 0.68119 0.0
N2493 N 0.63941 0.61894 0.78613 0.0
H2494 H 0.67856 0.65564 0.74686 0.0
H2495 H 0.66534 0.65054 0.77444 0.0
H2496 H 0.62881 0.60985 0.79756 0.0
H2497 H 0.65017 0.6282 0.79709 0.0
H2498 H 0.63699 0.59643 0.67159 0.0
H2499 H 0.65681 0.6168 0.67038 0.0
H2500 H 0.61156 0.58606 0.68675 0.0
H2501 H 0.60033 0.57899 0.71623 0.0
C2502 C 0.70213 0.72084 0.62546 0.0
C2503 C 0.70228 0.71955 0.6529 0.0
C2504 C 0.68913 0.73887 0.65692 0.0
C2505 C 0.69038 0.74133 0.62959 0.0
N2506 N 0.69954 0.73619 0.58778 0.0
N2507 N 0.69752 0.72826 0.69515 0.0
C2508 C 0.69729 0.73273 0.61384 0.0
C2509 C 0.69612 0.72875 0.66877 0.0
N2510 N 0.70603 0.7102 0.61047 0.0
N2511 N 0.68102 0.74602 0.67141 0.0
H2512 H 0.70222 0.72069 0.70437 0.0
H2513 H 0.69512 0.73615 0.70788 0.0
H2514 H 0.67631 0.75396 0.66342 0.0
H2515 H 0.67793 0.74324 0.69098 0.0
H2516 H 0.70423 0.70892 0.59046 0.0
H2517 H 0.70976 0.70141 0.61824 0.0
H2518 H 0.70652 0.73215 0.57575 0.0
H2519 H 0.69544 0.74416 0.57826 0.0
C2520 C 0.28316 0.97295 0.66649 0.0
C2521 C 0.29901 0.98616 0.65435 0.0
C2522 C 0.29441 0.96548 0.61866 0.0
C2523 C 0.27769 0.95295 0.62951 0.0
N2524 N 0.25523 0.94496 0.66243 0.0
N2525 N 0.31855 0.99609 0.6171 0.0
C2526 C 0.27182 0.95673 0.65312 0.0
C2527 C 0.30443 0.98267 0.63007 0.0
N2528 N 0.27926 0.97574 0.69115 0.0
N2529 N 0.30078 0.96092 0.59747 0.0
H2530 H 0.32626 0.00889 0.62462 0.0
H2531 H 0.32179 0.99504 0.59798 0.0
H2532 H 0.29356 0.94879 0.58779 0.0
H2533 H 0.31376 0.96857 0.59058 0.0
H2534 H 0.26889 0.96604 0.7022 0.0
H2535 H 0.28736 0.9874 0.70149 0.0
H2536 H 0.24926 0.94773 0.67787 0.0
H2537 H 0.24689 0.93271 0.65362 0.0
C2538 C 0.03549 0.32457 0.6321 0.0
C2539 C 0.03151 0.31611 0.65678 0.0
C2540 C 0.05872 0.31394 0.65469 0.0
C2541 C 0.0627 0.32246 0.63011 0.0
N2542 N 0.05727 0.33937 0.5979 0.0
N2543 N 0.04095 0.30627 0.69409 0.0
C2544 C 0.0519 0.329 0.61973 0.0
C2545 C 0.04367 0.3119 0.66886 0.0
N2546 N 0.02308 0.32725 0.61959 0.0
N2547 N 0.06903 0.30733 0.66406 0.0
H2548 H 0.03016 0.30487 0.70498 0.0
H2549 H 0.05009 0.3045 0.70494 0.0
H2550 H 0.08058 0.30934 0.65473 0.0
H2551 H 0.0657 0.29912 0.68028 0.0
H2552 H 0.02422 0.3312 0.60027 0.0
H2553 H 0.0109 0.32425 0.62778 0.0
H2554 H 0.05105 0.34618 0.59097 0.0
H2555 H 0.06891 0.34242 0.58785 0.0
C2556 C 0.29998 0.31817 0.62726 0.0
C2557 C 0.3003 0.31694 0.6547 0.0
C2558 C 0.27921 0.32801 0.65855 0.0
C2559 C 0.27786 0.32791 0.63108 0.0
N2560 N 0.2852 0.32102 0.58909 0.0
N2561 N 0.28929 0.31895 0.69669 0.0
C2562 C 0.28777 0.32246 0.61538 0.0
C2563 C 0.28969 0.32144 0.67045 0.0
N2564 N 0.31178 0.31575 0.61259 0.0
N2565 N 0.27072 0.33469 0.67317 0.0
H2566 H 0.29716 0.31462 0.70596 0.0
H2567 H 0.28047 0.32012 0.70913 0.0
H2568 H 0.26254 0.33908 0.66508 0.0
H2569 H 0.27259 0.33694 0.69305 0.0
H2570 H 0.31369 0.31844 0.5928 0.0
H2571 H 0.3208 0.3124 0.62052 0.0
H2572 H 0.29032 0.3151 0.57688 0.0
H2573 H 0.27685 0.3246 0.57948 0.0
C2574 C 0.69595 0.98576 0.6306 0.0
C2575 C 0.70065 0.98732 0.6573 0.0
C2576 C 0.69672 0.95717 0.65655 0.0
C2577 C 0.69404 0.95649 0.62933 0.0
N2578 N 0.69263 0.97055 0.58969 0.0
N2579 N 0.70619 0.97511 0.69583 0.0
C2580 C 0.69384 0.97081 0.61619 0.0
C2581 C 0.70115 0.97314 0.67035 0.0
N2582 N 0.69373 0.9987 0.61888 0.0
N2583 N 0.69473 0.9424 0.66919 0.0
H2584 H 0.70844 0.98614 0.70687 0.0
H2585 H 0.70891 0.96629 0.70578 0.0
H2586 H 0.69161 0.9306 0.65954 0.0
H2587 H 0.69481 0.94129 0.68928 0.0
H2588 H 0.68822 0.99735 0.6005 0.0
H2589 H 0.69623 0.01042 0.62811 0.0
H2590 H 0.69469 0.98146 0.5786 0.0
H2591 H 0.69079 0.95978 0.57838 0.0
C2592 C 0.0437 0.73982 0.66823 0.0
C2593 C 0.03073 0.72379 0.65618 0.0
C2594 C 0.05172 0.72839 0.62096 0.0
C2595 C 0.06411 0.74516 0.6318 0.0
N2596 N 0.07168 0.76778 0.66432 0.0
N2597 N 0.02121 0.70402 0.61925 0.0
C2598 C 0.06005 0.75114 0.65509 0.0
C2599 C 0.03447 0.71831 0.63216 0.0
N2600 N 0.04054 0.74389 0.69256 0.0
N2601 N 0.05649 0.72202 0.59997 0.0
H2602 H 0.00836 0.69623 0.62664 0.0
H2603 H 0.02241 0.70066 0.60027 0.0
H2604 H 0.06862 0.72931 0.59032 0.0
H2605 H 0.04898 0.709 0.59318 0.0
H2606 H 0.05004 0.75441 0.70362 0.0
H2607 H 0.02874 0.73584 0.70266 0.0
H2608 H 0.06876 0.77381 0.67952 0.0
H2609 H 0.084 0.77612 0.65566 0.0
C2610 C 0.99377 0.63726 0.73903 0.0
C2611 C 0.98435 0.63176 0.71514 0.0
C2612 C 0.98546 0.60395 0.71665 0.0
C2613 C 0.99548 0.6098 0.73998 0.0
N2614 N 0.01176 0.63309 0.77128 0.0
N2615 N 0.97368 0.61153 0.67893 0.0
C2616 C 1.0005 0.62684 0.75043 0.0
C2617 C 0.98089 0.61555 0.70329 0.0
N2618 N 0.99534 0.65187 0.75168 0.0
N2619 N 0.97999 0.58716 0.70763 0.0
H2620 H 0.9703 0.61981 0.66867 0.0
H2621 H 0.97236 0.60083 0.66802 0.0
H2622 H 0.9837 0.57863 0.71636 0.0
H2623 H 0.97098 0.58125 0.69246 0.0
H2624 H 1.00005 0.65529 0.77059 0.0
H2625 H 0.99062 0.65991 0.74416 0.0
H2626 H 0.01767 0.6462 0.77783 0.0
H2627 H 0.01633 0.62559 0.78101 0.0
C2628 C 0.38522 0.36704 0.73963 0.0
C2629 C 0.39169 0.36376 0.71615 0.0
C2630 C 0.41892 0.39301 0.71949 0.0
C2631 C 0.41209 0.39654 0.74236 0.0
N2632 N 0.38747 0.38864 0.77153 0.0
N2633 N 0.41294 0.37455 0.68114 0.0
C2634 C 0.39479 0.3841 0.75151 0.0
C2635 C 0.40806 0.37704 0.70531 0.0
N2636 N 0.37055 0.35354 0.75152 0.0
N2637 N 0.43596 0.4047 0.71177 0.0
H2638 H 0.40519 0.36308 0.67021 0.0
H2639 H 0.42381 0.38436 0.67097 0.0
H2640 H 0.44403 0.41677 0.72122 0.0
H2641 H 0.44251 0.40202 0.69705 0.0
H2642 H 0.36648 0.3545 0.77017 0.0
H2643 H 0.36319 0.34076 0.74377 0.0
H2644 H 0.37419 0.381 0.77714 0.0
H2645 H 0.39425 0.40081 0.78125 0.0
C2646 C 0.65151 0.05015 0.72869 0.0
C2647 C 0.65319 0.03971 0.70878 0.0
C2648 C 0.62042 0.0223 0.70602 0.0
C2649 C 0.61928 0.03054 0.72922 0.0
N2650 N 0.63238 0.06103 0.74317 0.0
N2651 N 0.63881 0.01678 0.67616 0.0
C2652 C 0.63439 0.04712 0.73536 0.0
C2653 C 0.63749 0.02607 0.69663 0.0
N2654 N 0.66601 0.06251 0.74218 0.0
N2655 N 0.60553 0.01317 0.69107 0.0
H2656 H 0.65085 0.0202 0.66708 0.0
H2657 H 0.62797 0.00525 0.66881 0.0
H2658 H 0.59359 0.01272 0.69584 0.0
H2659 H 0.60554 0.00814 0.67273 0.0
H2660 H 0.66478 0.06937 0.75797 0.0
H2661 H 0.67882 0.06451 0.73957 0.0
H2662 H 0.64317 0.07385 0.74585 0.0
H2663 H 0.61991 0.06018 0.74287 0.0
loop_
_geom_bond_atom_site_label_1
_geom_bond_atom_site_label_2
_geom_bond_distance
_geom_bond_site_symmetry_2
_ccdc_geom_bond_type
O0 Cd1 2.223 . S
O0 C8 1.315 . S
Cd1 O0 2.223 . S
Cd1 O4 2.297 . S
Cd1 O5 2.439 . S
Cd1 O11 2.240 1_554 S
Cd2 O3 2.240 1_655 S
Cd2 O10 2.223 1_554 S
Cd2 O12 2.297 1_554 S
Cd2 O13 2.443 . S
O3 Cd2 2.240 1_455 S
O3 C8 1.279 . S
O4 Cd1 2.297 . S
O4 C6 1.247 . S
O5 Cd1 2.439 . S
O5 C6 1.208 . S
C6 O4 1.247 . S
C6 O5 1.208 . S
C7 O12 1.247 . S
C7 O13 1.203 1_556 S
C8 O0 1.315 . S
C8 O3 1.279 . S
C9 O10 1.295 1_455 S
C9 O11 1.300 . S
O10 Cd2 2.223 1_556 S
O10 C9 1.295 1_655 S
O11 Cd1 2.240 1_556 S
O11 C9 1.300 . S
O12 Cd2 2.297 1_556 S
O12 C7 1.247 . S
O13 Cd2 2.443 . S
O13 C7 1.203 1_554 S
O14 Cd15 2.223 . S
O14 C22 1.315 . S
Cd15 O14 2.223 . S
Cd15 O18 2.297 . S
Cd15 O19 2.439 . S
Cd15 O25 2.240 1_554 S
Cd16 O17 2.240 . S
Cd16 O24 2.223 1_554 S
Cd16 O26 2.297 1_554 S
Cd16 O27 2.443 . S
O17 Cd16 2.240 . S
O17 C22 1.279 . S
O18 Cd15 2.297 . S
O18 C20 1.247 . S
O19 Cd15 2.439 . S
O19 C20 1.208 . S
C20 O18 1.247 . S
C20 O19 1.208 . S
C21 O26 1.247 . S
C21 O27 1.203 1_556 S
C22 O14 1.315 . S
C22 O17 1.279 . S
C23 O24 1.315 . S
C23 O25 1.279 . S
O24 Cd16 2.223 1_556 S
O24 C23 1.315 . S
O25 Cd15 2.240 1_556 S
O25 C23 1.279 . S
O26 Cd16 2.297 1_556 S
O26 C21 1.247 . S
O27 Cd16 2.443 . S
O27 C21 1.203 1_554 S
O28 Cd29 2.223 1_556 S
O28 C36 1.315 . S
Cd29 O28 2.223 1_554 S
Cd29 O32 2.297 1_554 S
Cd29 O33 2.443 . S
Cd29 O39 2.240 . S
Cd30 O31 2.240 1_564 S
Cd30 O38 2.223 . S
Cd30 O40 2.297 . S
Cd30 O41 2.439 . S
O31 Cd30 2.240 1_546 S
O31 C36 1.279 . S
O32 Cd29 2.297 1_556 S
O32 C34 1.247 . S
O33 Cd29 2.443 . S
O33 C34 1.204 1_554 S
C34 O32 1.247 . S
C34 O33 1.204 1_556 S
C35 O40 1.247 . S
C35 O41 1.208 . S
C36 O28 1.315 . S
C36 O31 1.279 . S
C37 O38 1.301 1_545 S
C37 O39 1.293 . S
O38 Cd30 2.223 . S
O38 C37 1.301 1_565 S
O39 Cd29 2.240 . S
O39 C37 1.293 . S
O40 Cd30 2.297 . S
O40 C35 1.247 . S
O41 Cd30 2.439 . S
O41 C35 1.208 . S
O42 Cd43 2.223 1_556 S
O42 C50 1.297 1_655 S
Cd43 O42 2.223 1_554 S
Cd43 O46 2.297 1_554 S
Cd43 O47 2.443 . S
Cd43 O53 2.240 1_655 S
Cd44 O45 2.240 1_554 S
Cd44 O52 2.223 . S
Cd44 O54 2.297 . S
Cd44 O55 2.439 . S
O45 Cd44 2.240 1_556 S
O45 C50 1.280 . S
O46 Cd43 2.297 1_556 S
O46 C48 1.247 . S
O47 Cd43 2.443 . S
O47 C48 1.204 1_554 S
C48 O46 1.247 . S
C48 O47 1.204 1_556 S
C49 O54 1.247 . S
C49 O55 1.208 . S
C50 O42 1.297 1_455 S
C50 O45 1.280 . S
C51 O52 1.315 . S
C51 O53 1.279 . S
O52 Cd44 2.223 . S
O52 C51 1.315 . S
O53 Cd43 2.240 1_455 S
O53 C51 1.279 . S
O54 Cd44 2.297 . S
O54 C49 1.247 . S
O55 Cd44 2.439 . S
O55 C49 1.208 . S
O56 Cd57 2.223 1_556 S
O56 C64 1.315 . S
Cd57 O56 2.223 1_554 S
Cd57 O60 2.297 1_554 S
Cd57 O61 2.443 . S
Cd57 O67 2.240 . S
Cd58 O59 2.240 1_554 S
Cd58 O66 2.223 . S
Cd58 O68 2.297 . S
Cd58 O69 2.439 . S
O59 Cd58 2.240 1_556 S
O59 C64 1.279 . S
O60 Cd57 2.297 1_556 S
O60 C62 1.247 . S
O61 Cd57 2.443 . S
O61 C62 1.204 1_554 S
C62 O60 1.247 . S
C62 O61 1.204 1_556 S
C63 O68 1.247 . S
C63 O69 1.208 . S
C64 O56 1.315 . S
C64 O59 1.279 . S
C65 O66 1.315 . S
C65 O67 1.279 . S
O66 Cd58 2.223 . S
O66 C65 1.315 . S
O67 Cd57 2.240 . S
O67 C65 1.279 . S
O68 Cd58 2.297 . S
O68 C63 1.247 . S
O69 Cd58 2.439 . S
O69 C63 1.208 . S
O70 Cd71 2.223 . S
O70 C78 1.302 1_565 S
Cd71 O70 2.223 . S
Cd71 O74 2.297 . S
Cd71 O75 2.439 . S
Cd71 O81 2.240 1_564 S
Cd72 O73 2.240 . S
Cd72 O80 2.223 1_554 S
Cd72 O82 2.297 1_554 S
Cd72 O83 2.443 . S
O73 Cd72 2.240 . S
O73 C78 1.280 . S
O74 Cd71 2.297 . S
O74 C76 1.247 . S
O75 Cd71 2.439 . S
O75 C76 1.208 . S
C76 O74 1.247 . S
C76 O75 1.208 . S
C77 O82 1.247 . S
C77 O83 1.203 1_556 S
C78 O70 1.302 1_545 S
C78 O73 1.280 . S
C79 O80 1.315 . S
C79 O81 1.279 . S
O80 Cd72 2.223 1_556 S
O80 C79 1.315 . S
O81 Cd71 2.240 1_546 S
O81 C79 1.279 . S
O82 Cd72 2.297 1_556 S
O82 C77 1.247 . S
O83 Cd72 2.443 . S
O83 C77 1.203 1_554 S
O84 Cd85 2.223 . S
O84 C92 1.315 . S
Cd85 O84 2.223 . S
Cd85 O88 2.297 . S
Cd85 O89 2.439 . S
Cd85 O95 2.240 . S
Cd86 O87 2.240 . S
Cd86 O94 2.223 . S
Cd86 O96 2.297 . S
Cd86 O97 2.439 . S
O87 Cd86 2.240 . S
O87 C92 1.279 . S
O88 Cd85 2.297 . S
O88 C90 1.247 . S
O89 Cd85 2.439 . S
O89 C90 1.208 . S
C90 O88 1.247 . S
C90 O89 1.208 . S
C91 O96 1.247 . S
C91 O97 1.208 . S
C92 O84 1.315 . S
C92 O87 1.279 . S
C93 O94 1.315 . S
C93 O95 1.279 . S
O94 Cd86 2.223 . S
O94 C93 1.315 . S
O95 Cd85 2.240 . S
O95 C93 1.279 . S
O96 Cd86 2.297 . S
O96 C91 1.247 . S
O97 Cd86 2.439 . S
O97 C91 1.208 . S
O98 Cd99 2.223 . S
O98 C106 1.315 . S
Cd99 O98 2.223 . S
Cd99 O102 2.297 1_565 S
Cd99 O103 2.439 1_565 S
Cd99 O109 2.240 . S
Cd100 O101 2.240 . S
Cd100 O108 2.223 . S
Cd100 O110 2.297 . S
Cd100 O111 2.439 . S
O101 Cd100 2.240 . S
O101 C106 1.279 . S
O102 Cd99 2.297 1_545 S
O102 C104 1.247 . S
O103 Cd99 2.439 1_545 S
O103 C104 1.208 . S
C104 O102 1.247 . S
C104 O103 1.208 . S
C105 O110 1.247 . S
C105 O111 1.208 . S
C106 O98 1.315 . S
C106 O101 1.279 . S
C107 O108 1.315 . S
C107 O109 1.279 . S
O108 Cd100 2.223 . S
O108 C107 1.315 . S
O109 Cd99 2.240 . S
O109 C107 1.279 . S
O110 Cd100 2.297 . S
O110 C105 1.247 . S
O111 Cd100 2.439 . S
O111 C105 1.208 . S
O112 Cd113 2.223 . S
O112 C120 1.315 . S
Cd113 O112 2.223 . S
Cd113 O116 2.297 . S
Cd113 O117 2.439 . S
Cd113 O123 2.240 . S
Cd114 O115 2.240 . S
Cd114 O122 2.223 . S
Cd114 O124 2.297 . S
Cd114 O125 2.394 1_455 S
O115 Cd114 2.240 . S
O115 C120 1.279 . S
O116 Cd113 2.297 . S
O116 C118 1.247 . S
O117 Cd113 2.439 . S
O117 C118 1.208 . S
C118 O116 1.247 . S
C118 O117 1.208 . S
C119 O124 1.247 1_655 S
C119 O125 1.204 . S
C120 O112 1.315 . S
C120 O115 1.279 . S
C121 O122 1.315 . S
C121 O123 1.279 . S
O122 Cd114 2.223 . S
O122 C121 1.315 . S
O123 Cd113 2.240 . S
O123 C121 1.279 . S
O124 Cd114 2.297 . S
O124 C119 1.247 1_455 S
O125 Cd114 2.394 1_655 S
O125 C119 1.204 . S
O126 Cd127 2.223 . S
O126 C134 1.315 . S
Cd127 O126 2.223 . S
Cd127 O130 2.297 . S
Cd127 O131 2.439 . S
Cd127 O137 2.240 . S
Cd128 O129 2.240 . S
Cd128 O136 2.223 . S
Cd128 O138 2.297 1_565 S
Cd128 O139 2.439 1_565 S
O129 Cd128 2.240 . S
O129 C134 1.279 . S
O130 Cd127 2.297 . S
O130 C132 1.247 . S
O131 Cd127 2.439 . S
O131 C132 1.208 . S
C132 O130 1.247 . S
C132 O131 1.208 . S
C133 O138 1.247 . S
C133 O139 1.208 . S
C134 O126 1.315 . S
C134 O129 1.279 . S
C135 O136 1.315 . S
C135 O137 1.279 . S
O136 Cd128 2.223 . S
O136 C135 1.315 . S
O137 Cd127 2.240 . S
O137 C135 1.279 . S
O138 Cd128 2.297 1_545 S
O138 C133 1.247 . S
O139 Cd128 2.439 1_545 S
O139 C133 1.208 . S
O140 Cd141 2.223 . S
O140 C148 1.315 . S
Cd141 O140 2.223 . S
Cd141 O144 2.297 . S
Cd141 O145 2.439 . S
Cd141 O151 2.240 . S
Cd142 O143 2.240 . S
Cd142 O150 2.223 . S
Cd142 O152 2.297 . S
Cd142 O153 2.424 1_455 S
O143 Cd142 2.240 . S
O143 C148 1.279 . S
O144 Cd141 2.297 . S
O144 C146 1.247 . S
O145 Cd141 2.439 . S
O145 C146 1.208 . S
C146 O144 1.247 . S
C146 O145 1.208 . S
C147 O152 1.247 1_655 S
C147 O153 1.242 . S
C148 O140 1.315 . S
C148 O143 1.279 . S
C149 O150 1.315 . S
C149 O151 1.279 . S
O150 Cd142 2.223 . S
O150 C149 1.315 . S
O151 Cd141 2.240 . S
O151 C149 1.279 . S
O152 Cd142 2.297 . S
O152 C147 1.247 1_455 S
O153 Cd142 2.424 1_655 S
O153 C147 1.242 . S
O154 Cd155 2.223 . S
O154 C162 1.315 . S
Cd155 O154 2.223 . S
Cd155 O158 2.297 . S
Cd155 O159 2.439 . S
Cd155 O165 2.240 . S
Cd156 O157 2.240 . S
Cd156 O164 2.223 . S
Cd156 O166 2.297 . S
Cd156 O167 2.439 . S
O157 Cd156 2.240 . S
O157 C162 1.279 . S
O158 Cd155 2.297 . S
O158 C160 1.247 . S
O159 Cd155 2.439 . S
O159 C160 1.208 . S
C160 O158 1.247 . S
C160 O159 1.208 . S
C161 O166 1.247 . S
C161 O167 1.208 . S
C162 O154 1.315 . S
C162 O157 1.279 . S
C163 O164 1.315 . S
C163 O165 1.279 . S
O164 Cd156 2.223 . S
O164 C163 1.315 . S
O165 Cd155 2.240 . S
O165 C163 1.279 . S
O166 Cd156 2.297 . S
O166 C161 1.247 . S
O167 Cd156 2.439 . S
O167 C161 1.208 . S
O168 Cd169 2.223 . S
O168 C176 1.315 . S
Cd169 O168 2.223 . S
Cd169 O172 2.297 . S
Cd169 O173 2.439 . S
Cd169 O179 2.240 . S
Cd170 O171 2.240 . S
Cd170 O178 2.223 . S
Cd170 O180 2.297 . S
Cd170 O181 2.385 1_545 S
O171 Cd170 2.240 . S
O171 C176 1.279 . S
O172 Cd169 2.297 . S
O172 C174 1.247 . S
O173 Cd169 2.439 . S
O173 C174 1.208 . S
C174 O172 1.247 . S
C174 O173 1.208 . S
C175 O180 1.247 1_565 S
C175 O181 1.203 . S
C176 O168 1.315 . S
C176 O171 1.279 . S
C177 O178 1.315 . S
C177 O179 1.279 . S
O178 Cd170 2.223 . S
O178 C177 1.315 . S
O179 Cd169 2.240 . S
O179 C177 1.279 . S
O180 Cd170 2.297 . S
O180 C175 1.247 1_545 S
O181 Cd170 2.385 1_565 S
O181 C175 1.203 . S
O182 Cd183 2.223 . S
O182 C190 1.315 . S
Cd183 O182 2.223 . S
Cd183 O186 2.297 . S
Cd183 O187 2.439 . S
Cd183 O193 2.240 . S
Cd184 O185 2.240 . S
Cd184 O192 2.223 . S
Cd184 O194 2.297 1_655 S
Cd184 O195 2.439 1_655 S
O185 Cd184 2.240 . S
O185 C190 1.279 . S
O186 Cd183 2.297 . S
O186 C188 1.247 . S
O187 Cd183 2.439 . S
O187 C188 1.208 . S
C188 O186 1.247 . S
C188 O187 1.208 . S
C189 O194 1.247 . S
C189 O195 1.208 . S
C190 O182 1.315 . S
C190 O185 1.279 . S
C191 O192 1.315 . S
C191 O193 1.279 . S
O192 Cd184 2.223 . S
O192 C191 1.315 . S
O193 Cd183 2.240 . S
O193 C191 1.279 . S
O194 Cd184 2.297 1_455 S
O194 C189 1.247 . S
O195 Cd184 2.439 1_455 S
O195 C189 1.208 . S
O196 Cd197 2.223 . S
O196 C204 1.315 . S
Cd197 O196 2.223 . S
Cd197 O200 2.297 . S
Cd197 O201 2.439 . S
Cd197 O207 2.240 . S
Cd198 O199 2.240 . S
Cd198 O206 2.223 . S
Cd198 O208 2.297 . S
Cd198 O209 2.439 . S
O199 Cd198 2.240 . S
O199 C204 1.279 . S
O200 Cd197 2.297 . S
O200 C202 1.247 . S
O201 Cd197 2.439 . S
O201 C202 1.208 . S
C202 O200 1.247 . S
C202 O201 1.208 . S
C203 O208 1.247 . S
C203 O209 1.208 . S
C204 O196 1.315 . S
C204 O199 1.279 . S
C205 O206 1.315 . S
C205 O207 1.279 . S
O206 Cd198 2.223 . S
O206 C205 1.315 . S
O207 Cd197 2.240 . S
O207 C205 1.279 . S
O208 Cd198 2.297 . S
O208 C203 1.247 . S
O209 Cd198 2.439 . S
O209 C203 1.208 . S
O210 Cd211 2.223 . S
O210 C218 1.315 . S
Cd211 O210 2.223 . S
Cd211 O214 2.297 . S
Cd211 O215 2.439 . S
Cd211 O221 2.240 . S
Cd212 O213 2.240 . S
Cd212 O220 2.223 . S
Cd212 O222 2.297 . S
Cd212 O223 2.439 . S
O213 Cd212 2.240 . S
O213 C218 1.279 . S
O214 Cd211 2.297 . S
O214 C216 1.247 . S
O215 Cd211 2.439 . S
O215 C216 1.208 . S
C216 O214 1.247 . S
C216 O215 1.208 . S
C217 O222 1.247 . S
C217 O223 1.208 . S
C218 O210 1.315 . S
C218 O213 1.279 . S
C219 O220 1.315 . S
C219 O221 1.279 . S
O220 Cd212 2.223 . S
O220 C219 1.315 . S
O221 Cd211 2.240 . S
O221 C219 1.279 . S
O222 Cd212 2.297 . S
O222 C217 1.247 . S
O223 Cd212 2.439 . S
O223 C217 1.208 . S
O224 Cd225 2.223 . S
O224 C232 1.315 . S
Cd225 O224 2.223 . S
Cd225 O228 2.297 . S
Cd225 O229 2.422 1_545 S
Cd225 O235 2.240 . S
Cd226 O227 2.240 . S
Cd226 O234 2.223 . S
Cd226 O236 2.297 . S
Cd226 O237 2.439 . S
O227 Cd226 2.240 . S
O227 C232 1.279 . S
O228 Cd225 2.297 . S
O228 C230 1.247 1_545 S
O229 Cd225 2.422 1_565 S
O229 C230 1.248 . S
C230 O228 1.247 1_565 S
C230 O229 1.248 . S
C231 O236 1.247 . S
C231 O237 1.208 . S
C232 O224 1.315 . S
C232 O227 1.279 . S
C233 O234 1.315 . S
C233 O235 1.279 . S
O234 Cd226 2.223 . S
O234 C233 1.315 . S
O235 Cd225 2.240 . S
O235 C233 1.279 . S
O236 Cd226 2.297 . S
O236 C231 1.247 . S
O237 Cd226 2.439 . S
O237 C231 1.208 . S
O238 Cd239 2.223 . S
O238 C246 1.315 . S
Cd239 O238 2.223 . S
Cd239 O242 2.297 . S
Cd239 O243 2.439 . S
Cd239 O249 2.240 . S
Cd240 O241 2.240 . S
Cd240 O248 2.223 . S
Cd240 O250 2.297 1_655 S
Cd240 O251 2.439 1_655 S
O241 Cd240 2.240 . S
O241 C246 1.279 . S
O242 Cd239 2.297 . S
O242 C244 1.247 . S
O243 Cd239 2.439 . S
O243 C244 1.208 . S
C244 O242 1.247 . S
C244 O243 1.208 . S
C245 O250 1.247 . S
C245 O251 1.208 . S
C246 O238 1.315 . S
C246 O241 1.279 . S
C247 O248 1.315 . S
C247 O249 1.279 . S
O248 Cd240 2.223 . S
O248 C247 1.315 . S
O249 Cd239 2.240 . S
O249 C247 1.279 . S
O250 Cd240 2.297 1_455 S
O250 C245 1.247 . S
O251 Cd240 2.439 1_455 S
O251 C245 1.208 . S
H252 C279 0.929 . S
N253 C278 1.433 . S
N253 C284 1.435 . S
N253 C290 1.423 . S
H254 C280 0.930 . S
H255 C283 0.931 . S
H256 C282 0.929 . S
H257 C285 0.930 . S
H258 C286 0.932 . S
H259 C289 0.929 . S
H260 C288 0.931 . S
H261 C291 0.929 . S
H262 C295 0.932 . S
H263 C292 0.931 . S
H264 C294 0.929 . S
H265 C297 0.929 . S
H266 C298 0.930 . S
H267 C300 0.929 . S
H268 C301 0.931 . S
H269 C303 0.930 . S
H270 C304 0.932 . S
H271 C306 0.931 . S
H272 C307 0.929 . S
H273 C309 0.929 . S
H274 C310 0.931 . S
H275 C312 0.929 . S
N276 C296 1.433 . S
N276 C302 1.435 . S
N276 C308 1.423 . S
H277 C313 0.932 . S
C278 N253 1.433 . S
C278 C279 1.363 . S
C278 C283 1.370 . S
C279 H252 0.929 . S
C279 C278 1.363 . S
C279 C280 1.385 . S
C280 H254 0.930 . S
C280 C279 1.385 . S
C280 C281 1.357 . S
C281 C280 1.357 . S
C281 C282 1.406 . S
C282 H256 0.929 . S
C282 C281 1.406 . S
C282 C283 1.391 . S
C283 H255 0.931 . S
C283 C278 1.370 . S
C283 C282 1.391 . S
C284 N253 1.435 . S
C284 C285 1.358 . S
C284 C289 1.371 . S
C285 H257 0.930 . S
C285 C284 1.358 . S
C285 C286 1.405 . S
C286 H258 0.932 . S
C286 C285 1.405 . S
C286 C287 1.383 . S
C287 C286 1.383 . S
C287 C288 1.393 . S
C288 H260 0.931 . S
C288 C287 1.393 . S
C288 C289 1.382 . S
C289 H259 0.929 . S
C289 C284 1.371 . S
C289 C288 1.382 . S
C290 N253 1.423 . S
C290 C291 1.362 . S
C290 C295 1.388 . S
C291 H261 0.929 . S
C291 C290 1.362 . S
C291 C292 1.376 . S
C292 H263 0.931 . S
C292 C291 1.376 . S
C292 C293 1.396 . S
C293 C292 1.396 . S
C293 C294 1.348 . S
C293 C311 1.472 . S
C294 H264 0.929 . S
C294 C293 1.348 . S
C294 C295 1.443 . S
C295 H262 0.932 . S
C295 C290 1.388 . S
C295 C294 1.443 . S
C296 N276 1.433 . S
C296 C297 1.363 . S
C296 C301 1.370 . S
C297 H265 0.929 . S
C297 C296 1.363 . S
C297 C298 1.385 . S
C298 H266 0.930 . S
C298 C297 1.385 . S
C298 C299 1.357 . S
C299 C298 1.357 . S
C299 C300 1.406 . S
C300 H267 0.929 . S
C300 C299 1.406 . S
C300 C301 1.391 . S
C301 H268 0.931 . S
C301 C296 1.370 . S
C301 C300 1.391 . S
C302 N276 1.435 . S
C302 C303 1.358 . S
C302 C307 1.371 . S
C303 H269 0.930 . S
C303 C302 1.358 . S
C303 C304 1.405 . S
C304 H270 0.932 . S
C304 C303 1.405 . S
C304 C305 1.383 . S
C305 C304 1.383 . S
C305 C306 1.393 . S
C306 H271 0.931 . S
C306 C305 1.393 . S
C306 C307 1.382 . S
C307 H272 0.929 . S
C307 C302 1.371 . S
C307 C306 1.382 . S
C308 N276 1.423 . S
C308 C309 1.362 . S
C308 C313 1.388 . S
C309 H273 0.929 . S
C309 C308 1.362 . S
C309 C310 1.376 . S
C310 H274 0.931 . S
C310 C309 1.376 . S
C310 C311 1.396 . S
C311 C293 1.472 . S
C311 C310 1.396 . S
C311 C312 1.348 . S
C312 H275 0.929 . S
C312 C311 1.348 . S
C312 C313 1.443 . S
C313 H277 0.932 . S
C313 C308 1.388 . S
C313 C312 1.443 . S
H314 C341 0.929 . S
N315 C340 1.433 . S
N315 C346 1.435 . S
N315 C352 1.423 . S
H316 C342 0.930 . S
H317 C345 0.931 . S
H318 C344 0.929 . S
H319 C347 0.930 . S
H320 C348 0.932 . S
H321 C351 0.929 . S
H322 C350 0.931 . S
H323 C353 0.929 . S
H324 C357 0.932 . S
H325 C354 0.931 . S
H326 C356 0.929 . S
H327 C359 0.929 . S
H328 C360 0.930 . S
H329 C362 0.929 . S
H330 C363 0.931 . S
H331 C365 0.930 . S
H332 C366 0.932 . S
H333 C368 0.931 . S
H334 C369 0.929 . S
H335 C371 0.929 . S
H336 C372 0.931 . S
H337 C374 0.929 . S
N338 C358 1.433 . S
N338 C364 1.435 . S
N338 C370 1.423 . S
H339 C375 0.932 . S
C340 N315 1.433 . S
C340 C341 1.363 . S
C340 C345 1.370 . S
C341 H314 0.929 . S
C341 C340 1.363 . S
C341 C342 1.385 . S
C342 H316 0.930 . S
C342 C341 1.385 . S
C342 C343 1.357 . S
C343 C342 1.357 . S
C343 C344 1.406 . S
C344 H318 0.929 . S
C344 C343 1.406 . S
C344 C345 1.391 . S
C345 H317 0.931 . S
C345 C340 1.370 . S
C345 C344 1.391 . S
C346 N315 1.435 . S
C346 C347 1.358 . S
C346 C351 1.371 . S
C347 H319 0.930 . S
C347 C346 1.358 . S
C347 C348 1.405 . S
C348 H320 0.932 . S
C348 C347 1.405 . S
C348 C349 1.383 . S
C349 C348 1.383 . S
C349 C350 1.393 . S
C350 H322 0.931 . S
C350 C349 1.393 . S
C350 C351 1.382 . S
C351 H321 0.929 . S
C351 C346 1.371 . S
C351 C350 1.382 . S
C352 N315 1.423 . S
C352 C353 1.362 . S
C352 C357 1.388 . S
C353 H323 0.929 . S
C353 C352 1.362 . S
C353 C354 1.376 . S
C354 H325 0.931 . S
C354 C353 1.376 . S
C354 C355 1.396 . S
C355 C354 1.396 . S
C355 C356 1.348 . S
C355 C373 1.472 . S
C356 H326 0.929 . S
C356 C355 1.348 . S
C356 C357 1.443 . S
C357 H324 0.932 . S
C357 C352 1.388 . S
C357 C356 1.443 . S
C358 N338 1.433 . S
C358 C359 1.363 . S
C358 C363 1.370 . S
C359 H327 0.929 . S
C359 C358 1.363 . S
C359 C360 1.385 . S
C360 H328 0.930 . S
C360 C359 1.385 . S
C360 C361 1.357 . S
C361 C360 1.357 . S
C361 C362 1.406 . S
C362 H329 0.929 . S
C362 C361 1.406 . S
C362 C363 1.391 . S
C363 H330 0.931 . S
C363 C358 1.370 . S
C363 C362 1.391 . S
C364 N338 1.435 . S
C364 C365 1.358 . S
C364 C369 1.371 . S
C365 H331 0.930 . S
C365 C364 1.358 . S
C365 C366 1.405 . S
C366 H332 0.932 . S
C366 C365 1.405 . S
C366 C367 1.383 . S
C367 C366 1.383 . S
C367 C368 1.393 . S
C368 H333 0.931 . S
C368 C367 1.393 . S
C368 C369 1.382 . S
C369 H334 0.929 . S
C369 C364 1.371 . S
C369 C368 1.382 . S
C370 N338 1.423 . S
C370 C371 1.362 . S
C370 C375 1.388 . S
C371 H335 0.929 . S
C371 C370 1.362 . S
C371 C372 1.376 . S
C372 H336 0.931 . S
C372 C371 1.376 . S
C372 C373 1.396 . S
C373 C355 1.472 . S
C373 C372 1.396 . S
C373 C374 1.348 . S
C374 H337 0.929 . S
C374 C373 1.348 . S
C374 C375 1.443 . S
C375 H339 0.932 . S
C375 C370 1.388 . S
C375 C374 1.443 . S
H376 C403 0.929 . S
N377 C402 1.433 . S
N377 C408 1.435 . S
N377 C414 1.423 . S
H378 C404 0.930 . S
H379 C407 0.931 . S
H380 C406 0.929 . S
H381 C409 0.930 . S
H382 C410 0.932 . S
H383 C413 0.929 . S
H384 C412 0.931 . S
H385 C415 0.929 . S
H386 C419 0.932 . S
H387 C416 0.931 . S
H388 C418 0.929 . S
H389 C421 0.929 . S
H390 C422 0.930 . S
H391 C424 0.929 . S
H392 C425 0.931 . S
H393 C427 0.930 . S
H394 C428 0.932 . S
H395 C430 0.931 . S
H396 C431 0.929 . S
H397 C433 0.929 . S
H398 C434 0.931 . S
H399 C436 0.929 . S
N400 C420 1.433 . S
N400 C426 1.435 . S
N400 C432 1.423 . S
H401 C437 0.932 . S
C402 N377 1.433 . S
C402 C403 1.363 . S
C402 C407 1.370 . S
C403 H376 0.929 . S
C403 C402 1.363 . S
C403 C404 1.385 . S
C404 H378 0.930 . S
C404 C403 1.385 . S
C404 C405 1.357 . S
C405 C404 1.357 . S
C405 C406 1.406 . S
C406 H380 0.929 . S
C406 C405 1.406 . S
C406 C407 1.391 . S
C407 H379 0.931 . S
C407 C402 1.370 . S
C407 C406 1.391 . S
C408 N377 1.435 . S
C408 C409 1.358 . S
C408 C413 1.371 . S
C409 H381 0.930 . S
C409 C408 1.358 . S
C409 C410 1.405 . S
C410 H382 0.932 . S
C410 C409 1.405 . S
C410 C411 1.383 . S
C411 C410 1.383 . S
C411 C412 1.393 . S
C412 H384 0.931 . S
C412 C411 1.393 . S
C412 C413 1.382 . S
C413 H383 0.929 . S
C413 C408 1.371 . S
C413 C412 1.382 . S
C414 N377 1.423 . S
C414 C415 1.362 . S
C414 C419 1.388 . S
C415 H385 0.929 . S
C415 C414 1.362 . S
C415 C416 1.376 . S
C416 H387 0.931 . S
C416 C415 1.376 . S
C416 C417 1.396 . S
C417 C416 1.396 . S
C417 C418 1.348 . S
C417 C435 1.472 . S
C418 H388 0.929 . S
C418 C417 1.348 . S
C418 C419 1.443 . S
C419 H386 0.932 . S
C419 C414 1.388 . S
C419 C418 1.443 . S
C420 N400 1.433 . S
C420 C421 1.363 . S
C420 C425 1.370 . S
C421 H389 0.929 . S
C421 C420 1.363 . S
C421 C422 1.385 . S
C422 H390 0.930 . S
C422 C421 1.385 . S
C422 C423 1.357 . S
C423 C422 1.357 . S
C423 C424 1.406 . S
C424 H391 0.929 . S
C424 C423 1.406 . S
C424 C425 1.391 . S
C425 H392 0.931 . S
C425 C420 1.370 . S
C425 C424 1.391 . S
C426 N400 1.435 . S
C426 C427 1.358 . S
C426 C431 1.371 . S
C427 H393 0.930 . S
C427 C426 1.358 . S
C427 C428 1.405 . S
C428 H394 0.932 . S
C428 C427 1.405 . S
C428 C429 1.383 . S
C429 C428 1.383 . S
C429 C430 1.393 . S
C430 H395 0.931 . S
C430 C429 1.393 . S
C430 C431 1.382 . S
C431 H396 0.929 . S
C431 C426 1.371 . S
C431 C430 1.382 . S
C432 N400 1.423 . S
C432 C433 1.362 . S
C432 C437 1.388 . S
C433 H397 0.929 . S
C433 C432 1.362 . S
C433 C434 1.376 . S
C434 H398 0.931 . S
C434 C433 1.376 . S
C434 C435 1.396 . S
C435 C417 1.472 . S
C435 C434 1.396 . S
C435 C436 1.348 . S
C436 H399 0.929 . S
C436 C435 1.348 . S
C436 C437 1.443 . S
C437 H401 0.932 . S
C437 C432 1.388 . S
C437 C436 1.443 . S
H438 C465 0.929 . S
N439 C464 1.433 . S
N439 C470 1.435 . S
N439 C476 1.423 . S
H440 C466 0.930 . S
H441 C469 0.931 . S
H442 C468 0.929 . S
H443 C471 0.930 . S
H444 C472 0.932 . S
H445 C475 0.929 . S
H446 C474 0.931 . S
H447 C477 0.929 . S
H448 C481 0.932 . S
H449 C478 0.931 . S
H450 C480 0.929 . S
H451 C483 0.929 . S
H452 C484 0.930 . S
H453 C486 0.929 . S
H454 C487 0.931 . S
H455 C489 0.930 . S
H456 C490 0.932 . S
H457 C492 0.931 . S
H458 C493 0.929 . S
H459 C495 0.929 . S
H460 C496 0.931 . S
H461 C498 0.929 . S
N462 C482 1.433 . S
N462 C488 1.435 . S
N462 C494 1.423 . S
H463 C499 0.932 . S
C464 N439 1.433 . S
C464 C465 1.363 . S
C464 C469 1.370 . S
C465 H438 0.929 . S
C465 C464 1.363 . S
C465 C466 1.385 . S
C466 H440 0.930 . S
C466 C465 1.385 . S
C466 C467 1.357 . S
C467 C466 1.357 . S
C467 C468 1.406 . S
C468 H442 0.929 . S
C468 C467 1.406 . S
C468 C469 1.391 . S
C469 H441 0.931 . S
C469 C464 1.370 . S
C469 C468 1.391 . S
C470 N439 1.435 . S
C470 C471 1.358 . S
C470 C475 1.371 . S
C471 H443 0.930 . S
C471 C470 1.358 . S
C471 C472 1.405 . S
C472 H444 0.932 . S
C472 C471 1.405 . S
C472 C473 1.383 . S
C473 C472 1.383 . S
C473 C474 1.393 . S
C474 H446 0.931 . S
C474 C473 1.393 . S
C474 C475 1.382 . S
C475 H445 0.929 . S
C475 C470 1.371 . S
C475 C474 1.382 . S
C476 N439 1.423 . S
C476 C477 1.362 . S
C476 C481 1.388 . S
C477 H447 0.929 . S
C477 C476 1.362 . S
C477 C478 1.376 . S
C478 H449 0.931 . S
C478 C477 1.376 . S
C478 C479 1.396 . S
C479 C478 1.396 . S
C479 C480 1.348 . S
C479 C497 1.472 . S
C480 H450 0.929 . S
C480 C479 1.348 . S
C480 C481 1.443 . S
C481 H448 0.932 . S
C481 C476 1.388 . S
C481 C480 1.443 . S
C482 N462 1.433 . S
C482 C483 1.363 . S
C482 C487 1.370 . S
C483 H451 0.929 . S
C483 C482 1.363 . S
C483 C484 1.385 . S
C484 H452 0.930 . S
C484 C483 1.385 . S
C484 C485 1.357 . S
C485 C484 1.357 . S
C485 C486 1.406 . S
C486 H453 0.929 . S
C486 C485 1.406 . S
C486 C487 1.391 . S
C487 H454 0.931 . S
C487 C482 1.370 . S
C487 C486 1.391 . S
C488 N462 1.435 . S
C488 C489 1.358 . S
C488 C493 1.371 . S
C489 H455 0.930 . S
C489 C488 1.358 . S
C489 C490 1.405 . S
C490 H456 0.932 . S
C490 C489 1.405 . S
C490 C491 1.383 . S
C491 C490 1.383 . S
C491 C492 1.393 . S
C492 H457 0.931 . S
C492 C491 1.393 . S
C492 C493 1.382 . S
C493 H458 0.929 . S
C493 C488 1.371 . S
C493 C492 1.382 . S
C494 N462 1.423 . S
C494 C495 1.362 . S
C494 C499 1.388 . S
C495 H459 0.929 . S
C495 C494 1.362 . S
C495 C496 1.376 . S
C496 H460 0.931 . S
C496 C495 1.376 . S
C496 C497 1.396 . S
C497 C479 1.472 . S
C497 C496 1.396 . S
C497 C498 1.348 . S
C498 H461 0.929 . S
C498 C497 1.348 . S
C498 C499 1.443 . S
C499 H463 0.932 . S
C499 C494 1.388 . S
C499 C498 1.443 . S
H500 C527 0.929 . S
N501 C526 1.433 . S
N501 C532 1.435 . S
N501 C538 1.423 . S
H502 C528 0.930 . S
H503 C531 0.931 . S
H504 C530 0.929 . S
H505 C533 0.930 . S
H506 C534 0.932 . S
H507 C537 0.929 . S
H508 C536 0.931 . S
H509 C539 0.929 . S
H510 C543 0.932 . S
H511 C540 0.931 . S
H512 C542 0.929 . S
H513 C545 0.929 . S
H514 C546 0.930 . S
H515 C548 0.929 . S
H516 C549 0.931 . S
H517 C551 0.930 . S
H518 C552 0.932 . S
H519 C554 0.931 . S
H520 C555 0.929 . S
H521 C557 0.929 . S
H522 C558 0.931 . S
H523 C560 0.929 . S
N524 C544 1.433 . S
N524 C550 1.435 . S
N524 C556 1.423 . S
H525 C561 0.932 . S
C526 N501 1.433 . S
C526 C527 1.363 . S
C526 C531 1.370 . S
C527 H500 0.929 . S
C527 C526 1.363 . S
C527 C528 1.385 . S
C528 H502 0.930 . S
C528 C527 1.385 . S
C528 C529 1.357 . S
C529 C528 1.357 . S
C529 C530 1.406 . S
C530 H504 0.929 . S
C530 C529 1.406 . S
C530 C531 1.391 . S
C531 H503 0.931 . S
C531 C526 1.370 . S
C531 C530 1.391 . S
C532 N501 1.435 . S
C532 C533 1.358 . S
C532 C537 1.371 . S
C533 H505 0.930 . S
C533 C532 1.358 . S
C533 C534 1.405 . S
C534 H506 0.932 . S
C534 C533 1.405 . S
C534 C535 1.383 . S
C535 C534 1.383 . S
C535 C536 1.393 . S
C536 H508 0.931 . S
C536 C535 1.393 . S
C536 C537 1.382 . S
C537 H507 0.929 . S
C537 C532 1.371 . S
C537 C536 1.382 . S
C538 N501 1.423 . S
C538 C539 1.362 . S
C538 C543 1.388 . S
C539 H509 0.929 . S
C539 C538 1.362 . S
C539 C540 1.376 . S
C540 H511 0.931 . S
C540 C539 1.376 . S
C540 C541 1.396 . S
C541 C540 1.396 . S
C541 C542 1.348 . S
C541 C559 1.472 . S
C542 H512 0.929 . S
C542 C541 1.348 . S
C542 C543 1.443 . S
C543 H510 0.932 . S
C543 C538 1.388 . S
C543 C542 1.443 . S
C544 N524 1.433 . S
C544 C545 1.363 . S
C544 C549 1.370 . S
C545 H513 0.929 . S
C545 C544 1.363 . S
C545 C546 1.385 . S
C546 H514 0.930 . S
C546 C545 1.385 . S
C546 C547 1.357 . S
C547 C546 1.357 . S
C547 C548 1.406 . S
C548 H515 0.929 . S
C548 C547 1.406 . S
C548 C549 1.391 . S
C549 H516 0.931 . S
C549 C544 1.370 . S
C549 C548 1.391 . S
C550 N524 1.435 . S
C550 C551 1.358 . S
C550 C555 1.371 . S
C551 H517 0.930 . S
C551 C550 1.358 . S
C551 C552 1.405 . S
C552 H518 0.932 . S
C552 C551 1.405 . S
C552 C553 1.383 . S
C553 C552 1.383 . S
C553 C554 1.393 . S
C554 H519 0.931 . S
C554 C553 1.393 . S
C554 C555 1.382 . S
C555 H520 0.929 . S
C555 C550 1.371 . S
C555 C554 1.382 . S
C556 N524 1.423 . S
C556 C557 1.362 . S
C556 C561 1.388 . S
C557 H521 0.929 . S
C557 C556 1.362 . S
C557 C558 1.376 . S
C558 H522 0.931 . S
C558 C557 1.376 . S
C558 C559 1.396 . S
C559 C541 1.472 . S
C559 C558 1.396 . S
C559 C560 1.348 . S
C560 H523 0.929 . S
C560 C559 1.348 . S
C560 C561 1.443 . S
C561 H525 0.932 . S
C561 C556 1.388 . S
C561 C560 1.443 . S
H562 C589 0.929 . S
N563 C588 1.433 . S
N563 C594 1.435 . S
N563 C600 1.423 . S
H564 C590 0.930 . S
H565 C593 0.931 . S
H566 C592 0.929 . S
H567 C595 0.930 . S
H568 C596 0.932 . S
H569 C599 0.929 . S
H570 C598 0.931 . S
H571 C601 0.929 . S
H572 C605 0.932 . S
H573 C602 0.931 . S
H574 C604 0.929 . S
H575 C607 0.929 . S
H576 C608 0.930 . S
H577 C610 0.929 . S
H578 C611 0.931 . S
H579 C613 0.930 . S
H580 C614 0.932 . S
H581 C616 0.931 . S
H582 C617 0.929 . S
H583 C619 0.929 . S
H584 C620 0.931 . S
H585 C622 0.929 . S
N586 C606 1.433 . S
N586 C612 1.435 . S
N586 C618 1.423 . S
H587 C623 0.932 . S
C588 N563 1.433 . S
C588 C589 1.363 . S
C588 C593 1.370 . S
C589 H562 0.929 . S
C589 C588 1.363 . S
C589 C590 1.385 . S
C590 H564 0.930 . S
C590 C589 1.385 . S
C590 C591 1.357 . S
C591 C590 1.357 . S
C591 C592 1.406 . S
C592 H566 0.929 . S
C592 C591 1.406 . S
C592 C593 1.391 . S
C593 H565 0.931 . S
C593 C588 1.370 . S
C593 C592 1.391 . S
C594 N563 1.435 . S
C594 C595 1.358 . S
C594 C599 1.371 . S
C595 H567 0.930 . S
C595 C594 1.358 . S
C595 C596 1.405 . S
C596 H568 0.932 . S
C596 C595 1.405 . S
C596 C597 1.383 . S
C597 C596 1.383 . S
C597 C598 1.393 . S
C598 H570 0.931 . S
C598 C597 1.393 . S
C598 C599 1.382 . S
C599 H569 0.929 . S
C599 C594 1.371 . S
C599 C598 1.382 . S
C600 N563 1.423 . S
C600 C601 1.362 . S
C600 C605 1.388 . S
C601 H571 0.929 . S
C601 C600 1.362 . S
C601 C602 1.376 . S
C602 H573 0.931 . S
C602 C601 1.376 . S
C602 C603 1.396 . S
C603 C602 1.396 . S
C603 C604 1.348 . S
C603 C621 1.472 . S
C604 H574 0.929 . S
C604 C603 1.348 . S
C604 C605 1.443 . S
C605 H572 0.932 . S
C605 C600 1.388 . S
C605 C604 1.443 . S
C606 N586 1.433 . S
C606 C607 1.363 . S
C606 C611 1.370 . S
C607 H575 0.929 . S
C607 C606 1.363 . S
C607 C608 1.385 . S
C608 H576 0.930 . S
C608 C607 1.385 . S
C608 C609 1.357 . S
C609 C608 1.357 . S
C609 C610 1.406 . S
C610 H577 0.929 . S
C610 C609 1.406 . S
C610 C611 1.391 . S
C611 H578 0.931 . S
C611 C606 1.370 . S
C611 C610 1.391 . S
C612 N586 1.435 . S
C612 C613 1.358 . S
C612 C617 1.371 . S
C613 H579 0.930 . S
C613 C612 1.358 . S
C613 C614 1.405 . S
C614 H580 0.932 . S
C614 C613 1.405 . S
C614 C615 1.383 . S
C615 C614 1.383 . S
C615 C616 1.393 . S
C616 H581 0.931 . S
C616 C615 1.393 . S
C616 C617 1.382 . S
C617 H582 0.929 . S
C617 C612 1.371 . S
C617 C616 1.382 . S
C618 N586 1.423 . S
C618 C619 1.362 . S
C618 C623 1.388 . S
C619 H583 0.929 . S
C619 C618 1.362 . S
C619 C620 1.376 . S
C620 H584 0.931 . S
C620 C619 1.376 . S
C620 C621 1.396 . S
C621 C603 1.472 . S
C621 C620 1.396 . S
C621 C622 1.348 . S
C622 H585 0.929 . S
C622 C621 1.348 . S
C622 C623 1.443 . S
C623 H587 0.932 . S
C623 C618 1.388 . S
C623 C622 1.443 . S
H624 C651 0.929 . S
N625 C650 1.433 . S
N625 C656 1.435 . S
N625 C662 1.423 . S
H626 C652 0.930 . S
H627 C655 0.931 . S
H628 C654 0.929 . S
H629 C657 0.930 . S
H630 C658 0.932 . S
H631 C661 0.929 . S
H632 C660 0.931 . S
H633 C663 0.929 . S
H634 C667 0.932 . S
H635 C664 0.931 . S
H636 C666 0.929 . S
H637 C669 0.929 . S
H638 C670 0.930 . S
H639 C672 0.929 . S
H640 C673 0.931 . S
H641 C675 0.930 . S
H642 C676 0.932 . S
H643 C678 0.931 . S
H644 C679 0.929 . S
H645 C681 0.929 . S
H646 C682 0.931 . S
H647 C684 0.929 . S
N648 C668 1.433 . S
N648 C674 1.435 . S
N648 C680 1.423 . S
H649 C685 0.932 . S
C650 N625 1.433 . S
C650 C651 1.363 . S
C650 C655 1.370 . S
C651 H624 0.929 . S
C651 C650 1.363 . S
C651 C652 1.385 . S
C652 H626 0.930 . S
C652 C651 1.385 . S
C652 C653 1.357 . S
C653 C652 1.357 . S
C653 C654 1.406 . S
C654 H628 0.929 . S
C654 C653 1.406 . S
C654 C655 1.391 . S
C655 H627 0.931 . S
C655 C650 1.370 . S
C655 C654 1.391 . S
C656 N625 1.435 . S
C656 C657 1.358 . S
C656 C661 1.371 . S
C657 H629 0.930 . S
C657 C656 1.358 . S
C657 C658 1.405 . S
C658 H630 0.932 . S
C658 C657 1.405 . S
C658 C659 1.383 . S
C659 C658 1.383 . S
C659 C660 1.393 . S
C660 H632 0.931 . S
C660 C659 1.393 . S
C660 C661 1.382 . S
C661 H631 0.929 . S
C661 C656 1.371 . S
C661 C660 1.382 . S
C662 N625 1.423 . S
C662 C663 1.362 . S
C662 C667 1.388 . S
C663 H633 0.929 . S
C663 C662 1.362 . S
C663 C664 1.376 . S
C664 H635 0.931 . S
C664 C663 1.376 . S
C664 C665 1.396 . S
C665 C664 1.396 . S
C665 C666 1.348 . S
C665 C683 1.472 . S
C666 H636 0.929 . S
C666 C665 1.348 . S
C666 C667 1.443 . S
C667 H634 0.932 . S
C667 C662 1.388 . S
C667 C666 1.443 . S
C668 N648 1.433 . S
C668 C669 1.363 . S
C668 C673 1.370 . S
C669 H637 0.929 . S
C669 C668 1.363 . S
C669 C670 1.385 . S
C670 H638 0.930 . S
C670 C669 1.385 . S
C670 C671 1.357 . S
C671 C670 1.357 . S
C671 C672 1.406 . S
C672 H639 0.929 . S
C672 C671 1.406 . S
C672 C673 1.391 . S
C673 H640 0.931 . S
C673 C668 1.370 . S
C673 C672 1.391 . S
C674 N648 1.435 . S
C674 C675 1.358 . S
C674 C679 1.371 . S
C675 H641 0.930 . S
C675 C674 1.358 . S
C675 C676 1.405 . S
C676 H642 0.932 . S
C676 C675 1.405 . S
C676 C677 1.383 . S
C677 C676 1.383 . S
C677 C678 1.393 . S
C678 H643 0.931 . S
C678 C677 1.393 . S
C678 C679 1.382 . S
C679 H644 0.929 . S
C679 C674 1.371 . S
C679 C678 1.382 . S
C680 N648 1.423 . S
C680 C681 1.362 . S
C680 C685 1.388 . S
C681 H645 0.929 . S
C681 C680 1.362 . S
C681 C682 1.376 . S
C682 H646 0.931 . S
C682 C681 1.376 . S
C682 C683 1.396 . S
C683 C665 1.472 . S
C683 C682 1.396 . S
C683 C684 1.348 . S
C684 H647 0.929 . S
C684 C683 1.348 . S
C684 C685 1.443 . S
C685 H649 0.932 . S
C685 C680 1.388 . S
C685 C684 1.443 . S
H686 C713 0.929 . S
N687 C712 1.433 . S
N687 C718 1.435 . S
N687 C724 1.423 . S
H688 C714 0.930 . S
H689 C717 0.931 . S
H690 C716 0.929 . S
H691 C719 0.930 . S
H692 C720 0.932 . S
H693 C723 0.929 . S
H694 C722 0.931 . S
H695 C725 0.929 . S
H696 C729 0.932 . S
H697 C726 0.931 . S
H698 C728 0.929 . S
H699 C731 0.929 . S
H700 C732 0.930 . S
H701 C734 0.929 . S
H702 C735 0.931 . S
H703 C737 0.930 . S
H704 C738 0.932 . S
H705 C740 0.931 . S
H706 C741 0.929 . S
H707 C743 0.929 . S
H708 C744 0.931 . S
H709 C746 0.929 . S
N710 C730 1.433 . S
N710 C736 1.435 . S
N710 C742 1.423 . S
H711 C747 0.932 . S
C712 N687 1.433 . S
C712 C713 1.363 . S
C712 C717 1.370 . S
C713 H686 0.929 . S
C713 C712 1.363 . S
C713 C714 1.385 . S
C714 H688 0.930 . S
C714 C713 1.385 . S
C714 C715 1.357 . S
C715 C714 1.357 . S
C715 C716 1.406 . S
C716 H690 0.929 . S
C716 C715 1.406 . S
C716 C717 1.391 . S
C717 H689 0.931 . S
C717 C712 1.370 . S
C717 C716 1.391 . S
C718 N687 1.435 . S
C718 C719 1.358 . S
C718 C723 1.371 . S
C719 H691 0.930 . S
C719 C718 1.358 . S
C719 C720 1.405 . S
C720 H692 0.932 . S
C720 C719 1.405 . S
C720 C721 1.383 . S
C721 C720 1.383 . S
C721 C722 1.393 . S
C722 H694 0.931 . S
C722 C721 1.393 . S
C722 C723 1.382 . S
C723 H693 0.929 . S
C723 C718 1.371 . S
C723 C722 1.382 . S
C724 N687 1.423 . S
C724 C725 1.362 . S
C724 C729 1.388 . S
C725 H695 0.929 . S
C725 C724 1.362 . S
C725 C726 1.376 . S
C726 H697 0.931 . S
C726 C725 1.376 . S
C726 C727 1.396 . S
C727 C726 1.396 . S
C727 C728 1.348 . S
C727 C745 1.472 . S
C728 H698 0.929 . S
C728 C727 1.348 . S
C728 C729 1.443 . S
C729 H696 0.932 . S
C729 C724 1.388 . S
C729 C728 1.443 . S
C730 N710 1.433 . S
C730 C731 1.363 . S
C730 C735 1.370 . S
C731 H699 0.929 . S
C731 C730 1.363 . S
C731 C732 1.385 . S
C732 H700 0.930 . S
C732 C731 1.385 . S
C732 C733 1.357 . S
C733 C732 1.357 . S
C733 C734 1.406 . S
C734 H701 0.929 . S
C734 C733 1.406 . S
C734 C735 1.391 . S
C735 H702 0.931 . S
C735 C730 1.370 . S
C735 C734 1.391 . S
C736 N710 1.435 . S
C736 C737 1.358 . S
C736 C741 1.371 . S
C737 H703 0.930 . S
C737 C736 1.358 . S
C737 C738 1.405 . S
C738 H704 0.932 . S
C738 C737 1.405 . S
C738 C739 1.383 . S
C739 C738 1.383 . S
C739 C740 1.393 . S
C740 H705 0.931 . S
C740 C739 1.393 . S
C740 C741 1.382 . S
C741 H706 0.929 . S
C741 C736 1.371 . S
C741 C740 1.382 . S
C742 N710 1.423 . S
C742 C743 1.362 . S
C742 C747 1.388 . S
C743 H707 0.929 . S
C743 C742 1.362 . S
C743 C744 1.376 . S
C744 H708 0.931 . S
C744 C743 1.376 . S
C744 C745 1.396 . S
C745 C727 1.472 . S
C745 C744 1.396 . S
C745 C746 1.348 . S
C746 H709 0.929 . S
C746 C745 1.348 . S
C746 C747 1.443 . S
C747 H711 0.932 . S
C747 C742 1.388 . S
C747 C746 1.443 . S
H748 C775 0.929 . S
N749 C774 1.433 . S
N749 C780 1.435 . S
N749 C786 1.423 . S
H750 C776 0.930 . S
H751 C779 0.931 . S
H752 C778 0.929 . S
H753 C781 0.930 . S
H754 C782 0.932 . S
H755 C785 0.929 . S
H756 C784 0.931 . S
H757 C787 0.929 . S
H758 C791 0.932 . S
H759 C788 0.931 . S
H760 C790 0.929 . S
H761 C793 0.929 . S
H762 C794 0.930 . S
H763 C796 0.929 . S
H764 C797 0.931 . S
H765 C799 0.930 . S
H766 C800 0.932 . S
H767 C802 0.931 . S
H768 C803 0.929 . S
H769 C805 0.929 . S
H770 C806 0.931 . S
H771 C808 0.929 . S
N772 C792 1.433 . S
N772 C798 1.435 . S
N772 C804 1.423 . S
H773 C809 0.932 . S
C774 N749 1.433 . S
C774 C775 1.363 . S
C774 C779 1.370 . S
C775 H748 0.929 . S
C775 C774 1.363 . S
C775 C776 1.385 . S
C776 H750 0.930 . S
C776 C775 1.385 . S
C776 C777 1.357 . S
C777 C776 1.357 . S
C777 C778 1.406 . S
C778 H752 0.929 . S
C778 C777 1.406 . S
C778 C779 1.391 . S
C779 H751 0.931 . S
C779 C774 1.370 . S
C779 C778 1.391 . S
C780 N749 1.435 . S
C780 C781 1.358 . S
C780 C785 1.371 . S
C781 H753 0.930 . S
C781 C780 1.358 . S
C781 C782 1.405 . S
C782 H754 0.932 . S
C782 C781 1.405 . S
C782 C783 1.383 . S
C783 C782 1.383 . S
C783 C784 1.393 . S
C784 H756 0.931 . S
C784 C783 1.393 . S
C784 C785 1.382 . S
C785 H755 0.929 . S
C785 C780 1.371 . S
C785 C784 1.382 . S
C786 N749 1.423 . S
C786 C787 1.362 . S
C786 C791 1.388 . S
C787 H757 0.929 . S
C787 C786 1.362 . S
C787 C788 1.376 . S
C788 H759 0.931 . S
C788 C787 1.376 . S
C788 C789 1.396 . S
C789 C788 1.396 . S
C789 C790 1.348 . S
C789 C807 1.472 . S
C790 H760 0.929 . S
C790 C789 1.348 . S
C790 C791 1.443 . S
C791 H758 0.932 . S
C791 C786 1.388 . S
C791 C790 1.443 . S
C792 N772 1.433 . S
C792 C793 1.363 . S
C792 C797 1.370 . S
C793 H761 0.929 . S
C793 C792 1.363 . S
C793 C794 1.385 . S
C794 H762 0.930 . S
C794 C793 1.385 . S
C794 C795 1.357 . S
C795 C794 1.357 . S
C795 C796 1.406 . S
C796 H763 0.929 . S
C796 C795 1.406 . S
C796 C797 1.391 . S
C797 H764 0.931 . S
C797 C792 1.370 . S
C797 C796 1.391 . S
C798 N772 1.435 . S
C798 C799 1.358 . S
C798 C803 1.371 . S
C799 H765 0.930 . S
C799 C798 1.358 . S
C799 C800 1.405 . S
C800 H766 0.932 . S
C800 C799 1.405 . S
C800 C801 1.383 . S
C801 C800 1.383 . S
C801 C802 1.393 . S
C802 H767 0.931 . S
C802 C801 1.393 . S
C802 C803 1.382 . S
C803 H768 0.929 . S
C803 C798 1.371 . S
C803 C802 1.382 . S
C804 N772 1.423 . S
C804 C805 1.362 . S
C804 C809 1.388 . S
C805 H769 0.929 . S
C805 C804 1.362 . S
C805 C806 1.376 . S
C806 H770 0.931 . S
C806 C805 1.376 . S
C806 C807 1.396 . S
C807 C789 1.472 . S
C807 C806 1.396 . S
C807 C808 1.348 . S
C808 H771 0.929 . S
C808 C807 1.348 . S
C808 C809 1.443 . S
C809 H773 0.932 . S
C809 C804 1.388 . S
C809 C808 1.443 . S
H810 C837 0.929 . S
N811 C836 1.433 . S
N811 C842 1.435 . S
N811 C848 1.423 . S
H812 C838 0.930 . S
H813 C841 0.941 1_655 S
H814 C840 0.941 . S
H815 C843 0.930 1_655 S
H816 C844 0.932 1_655 S
H817 C847 0.929 . S
H818 C846 0.931 . S
H819 C849 0.929 . S
H820 C853 0.932 . S
H821 C850 0.931 . S
H822 C852 0.929 . S
H823 C855 0.929 . S
H824 C856 0.930 . S
H825 C858 0.962 . S
H826 C859 0.879 1_655 S
H827 C861 0.930 1_655 S
H828 C862 0.932 1_655 S
H829 C864 0.931 . S
H830 C865 0.929 . S
H831 C867 0.929 . S
H832 C868 0.931 . S
H833 C870 0.929 . S
N834 C854 1.433 . S
N834 C860 1.435 . S
N834 C866 1.423 . S
H835 C871 0.932 . S
C836 N811 1.433 . S
C836 C837 1.363 . S
C836 C841 1.370 . S
C837 H810 0.929 . S
C837 C836 1.363 . S
C837 C838 1.385 . S
C838 H812 0.930 . S
C838 C837 1.385 . S
C838 C839 1.357 . S
C839 C838 1.357 . S
C839 C840 1.411 1_455 S
C840 H814 0.941 . S
C840 C839 1.411 1_655 S
C840 C841 1.377 1_655 S
C841 H813 0.941 1_455 S
C841 C836 1.370 . S
C841 C840 1.377 1_455 S
C842 N811 1.435 . S
C842 C843 1.358 . S
C842 C847 1.371 . S
C843 H815 0.930 1_455 S
C843 C842 1.358 . S
C843 C844 1.405 . S
C844 H816 0.932 1_455 S
C844 C843 1.405 . S
C844 C845 1.383 . S
C845 C844 1.383 . S
C845 C846 1.393 . S
C846 H818 0.931 . S
C846 C845 1.393 . S
C846 C847 1.382 . S
C847 H817 0.929 . S
C847 C842 1.371 . S
C847 C846 1.382 . S
C848 N811 1.423 . S
C848 C849 1.362 . S
C848 C853 1.388 . S
C849 H819 0.929 . S
C849 C848 1.362 . S
C849 C850 1.376 . S
C850 H821 0.931 . S
C850 C849 1.376 . S
C850 C851 1.396 . S
C851 C850 1.396 . S
C851 C852 1.348 . S
C851 C869 1.472 . S
C852 H822 0.929 . S
C852 C851 1.348 . S
C852 C853 1.443 . S
C853 H820 0.932 . S
C853 C848 1.388 . S
C853 C852 1.443 . S
C854 N834 1.433 . S
C854 C855 1.363 . S
C854 C859 1.370 . S
C855 H823 0.929 . S
C855 C854 1.363 . S
C855 C856 1.385 . S
C856 H824 0.930 . S
C856 C855 1.385 . S
C856 C857 1.357 . S
C857 C856 1.357 . S
C857 C858 1.376 1_455 S
C858 H825 0.962 . S
C858 C857 1.376 1_655 S
C858 C859 1.391 1_655 S
C859 H826 0.879 1_455 S
C859 C854 1.370 . S
C859 C858 1.391 1_455 S
C860 N834 1.435 . S
C860 C861 1.358 . S
C860 C865 1.371 . S
C861 H827 0.930 1_455 S
C861 C860 1.358 . S
C861 C862 1.405 . S
C862 H828 0.932 1_455 S
C862 C861 1.405 . S
C862 C863 1.383 . S
C863 C862 1.383 . S
C863 C864 1.393 . S
C864 H829 0.931 . S
C864 C863 1.393 . S
C864 C865 1.382 . S
C865 H830 0.929 . S
C865 C860 1.371 . S
C865 C864 1.382 . S
C866 N834 1.423 . S
C866 C867 1.362 . S
C866 C871 1.388 . S
C867 H831 0.929 . S
C867 C866 1.362 . S
C867 C868 1.376 . S
C868 H832 0.931 . S
C868 C867 1.376 . S
C868 C869 1.396 . S
C869 C851 1.472 . S
C869 C868 1.396 . S
C869 C870 1.348 . S
C870 H833 0.929 . S
C870 C869 1.348 . S
C870 C871 1.443 . S
C871 H835 0.932 . S
C871 C866 1.388 . S
C871 C870 1.443 . S
H872 C899 0.929 . S
N873 C898 1.433 . S
N873 C904 1.435 . S
N873 C910 1.423 . S
H874 C900 0.930 . S
H875 C903 0.931 . S
H876 C902 0.929 . S
H877 C905 0.930 . S
H878 C906 0.932 . S
H879 C909 0.929 . S
H880 C908 0.931 . S
H881 C911 0.929 . S
H882 C915 0.932 . S
H883 C912 0.931 . S
H884 C914 0.929 . S
H885 C917 0.929 . S
H886 C918 0.930 . S
H887 C920 0.929 . S
H888 C921 0.931 . S
H889 C923 0.930 . S
H890 C924 0.932 . S
H891 C926 0.931 . S
H892 C927 0.929 . S
H893 C929 0.929 . S
H894 C930 0.931 . S
H895 C932 0.929 . S
N896 C916 1.433 . S
N896 C922 1.435 . S
N896 C928 1.423 . S
H897 C933 0.932 . S
C898 N873 1.433 . S
C898 C899 1.363 . S
C898 C903 1.370 . S
C899 H872 0.929 . S
C899 C898 1.363 . S
C899 C900 1.385 . S
C900 H874 0.930 . S
C900 C899 1.385 . S
C900 C901 1.357 . S
C901 C900 1.357 . S
C901 C902 1.406 . S
C902 H876 0.929 . S
C902 C901 1.406 . S
C902 C903 1.391 . S
C903 H875 0.931 . S
C903 C898 1.370 . S
C903 C902 1.391 . S
C904 N873 1.435 . S
C904 C905 1.358 . S
C904 C909 1.371 . S
C905 H877 0.930 . S
C905 C904 1.358 . S
C905 C906 1.405 . S
C906 H878 0.932 . S
C906 C905 1.405 . S
C906 C907 1.383 . S
C907 C906 1.383 . S
C907 C908 1.393 . S
C908 H880 0.931 . S
C908 C907 1.393 . S
C908 C909 1.382 . S
C909 H879 0.929 . S
C909 C904 1.371 . S
C909 C908 1.382 . S
C910 N873 1.423 . S
C910 C911 1.362 . S
C910 C915 1.388 . S
C911 H881 0.929 . S
C911 C910 1.362 . S
C911 C912 1.376 . S
C912 H883 0.931 . S
C912 C911 1.376 . S
C912 C913 1.396 . S
C913 C912 1.396 . S
C913 C914 1.348 . S
C913 C931 1.472 . S
C914 H884 0.929 . S
C914 C913 1.348 . S
C914 C915 1.443 . S
C915 H882 0.932 . S
C915 C910 1.388 . S
C915 C914 1.443 . S
C916 N896 1.433 . S
C916 C917 1.363 . S
C916 C921 1.370 . S
C917 H885 0.929 . S
C917 C916 1.363 . S
C917 C918 1.385 . S
C918 H886 0.930 . S
C918 C917 1.385 . S
C918 C919 1.357 . S
C919 C918 1.357 . S
C919 C920 1.406 . S
C920 H887 0.929 . S
C920 C919 1.406 . S
C920 C921 1.391 . S
C921 H888 0.931 . S
C921 C916 1.370 . S
C921 C920 1.391 . S
C922 N896 1.435 . S
C922 C923 1.358 . S
C922 C927 1.371 . S
C923 H889 0.930 . S
C923 C922 1.358 . S
C923 C924 1.405 . S
C924 H890 0.932 . S
C924 C923 1.405 . S
C924 C925 1.383 . S
C925 C924 1.383 . S
C925 C926 1.393 . S
C926 H891 0.931 . S
C926 C925 1.393 . S
C926 C927 1.382 . S
C927 H892 0.929 . S
C927 C922 1.371 . S
C927 C926 1.382 . S
C928 N896 1.423 . S
C928 C929 1.362 . S
C928 C933 1.388 . S
C929 H893 0.929 . S
C929 C928 1.362 . S
C929 C930 1.376 . S
C930 H894 0.931 . S
C930 C929 1.376 . S
C930 C931 1.396 . S
C931 C913 1.472 . S
C931 C930 1.396 . S
C931 C932 1.348 . S
C932 H895 0.929 . S
C932 C931 1.348 . S
C932 C933 1.443 . S
C933 H897 0.932 . S
C933 C928 1.388 . S
C933 C932 1.443 . S
H934 C961 0.929 . S
N935 C960 1.433 . S
N935 C966 1.435 . S
N935 C972 1.423 . S
H936 C962 0.930 . S
H937 C965 0.931 . S
H938 C964 0.929 . S
H939 C967 0.930 . S
H940 C968 0.932 . S
H941 C971 0.929 . S
H942 C970 0.931 . S
H943 C973 0.929 . S
H944 C977 0.932 1_545 S
H945 C974 0.931 . S
H946 C976 0.929 . S
H947 C979 0.929 . S
H948 C980 0.930 . S
H949 C982 0.929 . S
H950 C983 0.931 . S
H951 C985 0.930 . S
H952 C986 0.932 . S
H953 C988 0.931 . S
H954 C989 0.929 . S
H955 C991 0.929 . S
H956 C992 0.931 . S
H957 C994 0.929 . S
N958 C978 1.433 . S
N958 C984 1.435 . S
N958 C990 1.423 . S
H959 C995 0.932 1_545 S
C960 N935 1.433 . S
C960 C961 1.363 . S
C960 C965 1.370 1_565 S
C961 H934 0.929 . S
C961 C960 1.363 . S
C961 C962 1.385 . S
C962 H936 0.930 . S
C962 C961 1.385 . S
C962 C963 1.357 1_565 S
C963 C962 1.357 1_545 S
C963 C964 1.406 . S
C964 H938 0.929 . S
C964 C963 1.406 . S
C964 C965 1.391 . S
C965 H937 0.931 . S
C965 C960 1.370 1_545 S
C965 C964 1.391 . S
C966 N935 1.435 . S
C966 C967 1.358 1_565 S
C966 C971 1.371 . S
C967 H939 0.930 . S
C967 C966 1.358 1_545 S
C967 C968 1.405 . S
C968 H940 0.932 . S
C968 C967 1.405 . S
C968 C969 1.383 1_545 S
C969 C968 1.383 1_565 S
C969 C970 1.393 . S
C970 H942 0.931 . S
C970 C969 1.393 . S
C970 C971 1.382 . S
C971 H941 0.929 . S
C971 C966 1.371 . S
C971 C970 1.382 . S
C972 N935 1.423 . S
C972 C973 1.362 . S
C972 C977 1.388 . S
C973 H943 0.929 . S
C973 C972 1.362 . S
C973 C974 1.376 . S
C974 H945 0.931 . S
C974 C973 1.376 . S
C974 C975 1.396 . S
C975 C974 1.396 . S
C975 C976 1.348 . S
C975 C993 1.472 . S
C976 H946 0.929 . S
C976 C975 1.348 . S
C976 C977 1.443 . S
C977 H944 0.932 1_565 S
C977 C972 1.388 . S
C977 C976 1.443 . S
C978 N958 1.433 . S
C978 C979 1.363 . S
C978 C983 1.370 1_565 S
C979 H947 0.929 . S
C979 C978 1.363 . S
C979 C980 1.385 . S
C980 H948 0.930 . S
C980 C979 1.385 . S
C980 C981 1.357 1_565 S
C981 C980 1.357 1_545 S
C981 C982 1.406 . S
C982 H949 0.929 . S
C982 C981 1.406 . S
C982 C983 1.391 . S
C983 H950 0.931 . S
C983 C978 1.370 1_545 S
C983 C982 1.391 . S
C984 N958 1.435 . S
C984 C985 1.358 1_565 S
C984 C989 1.371 . S
C985 H951 0.930 . S
C985 C984 1.358 1_545 S
C985 C986 1.405 . S
C986 H952 0.932 . S
C986 C985 1.405 . S
C986 C987 1.383 1_545 S
C987 C986 1.383 1_565 S
C987 C988 1.393 . S
C988 H953 0.931 . S
C988 C987 1.393 . S
C988 C989 1.382 . S
C989 H954 0.929 . S
C989 C984 1.371 . S
C989 C988 1.382 . S
C990 N958 1.423 . S
C990 C991 1.362 . S
C990 C995 1.388 . S
C991 H955 0.929 . S
C991 C990 1.362 . S
C991 C992 1.376 . S
C992 H956 0.931 . S
C992 C991 1.376 . S
C992 C993 1.396 . S
C993 C975 1.472 . S
C993 C992 1.396 . S
C993 C994 1.348 . S
C994 H957 0.929 . S
C994 C993 1.348 . S
C994 C995 1.443 . S
C995 H959 0.932 1_565 S
C995 C990 1.388 . S
C995 C994 1.443 . S
H996 C1023 0.929 . S
N997 C1022 1.433 . S
N997 C1028 1.435 . S
N997 C1034 1.436 . S
H998 C1024 0.930 . S
H999 C1027 0.931 . S
H1000 C1026 0.929 . S
H1001 C1029 0.930 . S
H1002 C1030 0.932 . S
H1003 C1033 0.929 . S
H1004 C1032 0.931 1_565 S
H1005 C1035 0.929 . S
H1006 C1039 0.932 . S
H1007 C1036 0.931 . S
H1008 C1038 0.929 . S
H1009 C1041 0.929 . S
H1010 C1042 0.930 . S
H1011 C1044 0.929 . S
H1012 C1045 0.931 . S
H1013 C1047 0.930 . S
H1014 C1048 0.932 . S
H1015 C1050 0.931 1_565 S
H1016 C1051 0.929 . S
H1017 C1053 0.929 . S
H1018 C1054 0.931 . S
H1019 C1056 0.929 . S
N1020 C1040 1.433 . S
N1020 C1046 1.435 . S
N1020 C1052 1.415 . S
H1021 C1057 0.932 . S
C1022 N997 1.433 . S
C1022 C1023 1.363 1_545 S
C1022 C1027 1.370 . S
C1023 H996 0.929 . S
C1023 C1022 1.363 1_565 S
C1023 C1024 1.385 . S
C1024 H998 0.930 . S
C1024 C1023 1.385 . S
C1024 C1025 1.357 1_565 S
C1025 C1024 1.357 1_545 S
C1025 C1026 1.406 . S
C1026 H1000 0.929 . S
C1026 C1025 1.406 . S
C1026 C1027 1.391 . S
C1027 H999 0.931 . S
C1027 C1022 1.370 . S
C1027 C1026 1.391 . S
C1028 N997 1.435 . S
C1028 C1029 1.358 . S
C1028 C1033 1.371 1_545 S
C1029 H1001 0.930 . S
C1029 C1028 1.358 . S
C1029 C1030 1.405 . S
C1030 H1002 0.932 . S
C1030 C1029 1.405 . S
C1030 C1031 1.383 . S
C1031 C1030 1.383 . S
C1031 C1032 1.393 . S
C1032 H1004 0.931 1_545 S
C1032 C1031 1.393 . S
C1032 C1033 1.382 1_545 S
C1033 H1003 0.929 . S
C1033 C1028 1.371 1_565 S
C1033 C1032 1.382 1_565 S
C1034 N997 1.436 . S
C1034 C1035 1.345 1_545 S
C1034 C1039 1.394 . S
C1035 H1005 0.929 . S
C1035 C1034 1.345 1_565 S
C1035 C1036 1.376 . S
C1036 H1007 0.931 . S
C1036 C1035 1.376 . S
C1036 C1037 1.396 . S
C1037 C1036 1.396 . S
C1037 C1038 1.348 1_565 S
C1037 C1055 1.472 . S
C1038 H1008 0.929 . S
C1038 C1037 1.348 1_545 S
C1038 C1039 1.443 . S
C1039 H1006 0.932 . S
C1039 C1034 1.394 . S
C1039 C1038 1.443 . S
C1040 N1020 1.433 . S
C1040 C1041 1.363 1_545 S
C1040 C1045 1.370 . S
C1041 H1009 0.929 . S
C1041 C1040 1.363 1_565 S
C1041 C1042 1.385 . S
C1042 H1010 0.930 . S
C1042 C1041 1.385 . S
C1042 C1043 1.357 1_565 S
C1043 C1042 1.357 1_545 S
C1043 C1044 1.406 . S
C1044 H1011 0.929 . S
C1044 C1043 1.406 . S
C1044 C1045 1.391 . S
C1045 H1012 0.931 . S
C1045 C1040 1.370 . S
C1045 C1044 1.391 . S
C1046 N1020 1.435 . S
C1046 C1047 1.358 . S
C1046 C1051 1.371 1_545 S
C1047 H1013 0.930 . S
C1047 C1046 1.358 . S
C1047 C1048 1.405 . S
C1048 H1014 0.932 . S
C1048 C1047 1.405 . S
C1048 C1049 1.383 . S
C1049 C1048 1.383 . S
C1049 C1050 1.393 . S
C1050 H1015 0.931 1_545 S
C1050 C1049 1.393 . S
C1050 C1051 1.382 1_545 S
C1051 H1016 0.929 . S
C1051 C1046 1.371 1_565 S
C1051 C1050 1.382 1_565 S
C1052 N1020 1.415 . S
C1052 C1053 1.356 1_545 S
C1052 C1057 1.405 . S
C1053 H1017 0.929 . S
C1053 C1052 1.356 1_565 S
C1053 C1054 1.376 . S
C1054 H1018 0.931 . S
C1054 C1053 1.376 . S
C1054 C1055 1.396 . S
C1055 C1037 1.472 . S
C1055 C1054 1.396 . S
C1055 C1056 1.348 1_565 S
C1056 H1019 0.929 . S
C1056 C1055 1.348 1_545 S
C1056 C1057 1.443 . S
C1057 H1021 0.932 . S
C1057 C1052 1.405 . S
C1057 C1056 1.443 . S
H1058 C1085 0.929 . S
N1059 C1084 1.433 . S
N1059 C1090 1.435 . S
N1059 C1096 1.423 . S
H1060 C1086 0.930 . S
H1061 C1089 0.931 . S
H1062 C1088 0.929 . S
H1063 C1091 0.930 . S
H1064 C1092 0.932 . S
H1065 C1095 0.929 . S
H1066 C1094 0.931 . S
H1067 C1097 0.929 . S
H1068 C1101 0.932 1_455 S
H1069 C1098 0.931 . S
H1070 C1100 0.929 . S
H1071 C1103 0.929 . S
H1072 C1104 0.930 . S
H1073 C1106 0.929 . S
H1074 C1107 0.931 . S
H1075 C1109 0.930 . S
H1076 C1110 0.932 . S
H1077 C1112 0.931 . S
H1078 C1113 0.929 . S
H1079 C1115 0.929 . S
H1080 C1116 0.931 . S
H1081 C1118 0.929 . S
N1082 C1102 1.433 . S
N1082 C1108 1.435 . S
N1082 C1114 1.423 . S
H1083 C1119 0.932 1_455 S
C1084 N1059 1.433 . S
C1084 C1085 1.363 . S
C1084 C1089 1.370 1_655 S
C1085 H1058 0.929 . S
C1085 C1084 1.363 . S
C1085 C1086 1.385 . S
C1086 H1060 0.930 . S
C1086 C1085 1.385 . S
C1086 C1087 1.357 1_655 S
C1087 C1086 1.357 1_455 S
C1087 C1088 1.406 . S
C1088 H1062 0.929 . S
C1088 C1087 1.406 . S
C1088 C1089 1.391 . S
C1089 H1061 0.931 . S
C1089 C1084 1.370 1_455 S
C1089 C1088 1.391 . S
C1090 N1059 1.435 . S
C1090 C1091 1.358 1_655 S
C1090 C1095 1.371 . S
C1091 H1063 0.930 . S
C1091 C1090 1.358 1_455 S
C1091 C1092 1.405 . S
C1092 H1064 0.932 . S
C1092 C1091 1.405 . S
C1092 C1093 1.383 1_455 S
C1093 C1092 1.383 1_655 S
C1093 C1094 1.393 . S
C1094 H1066 0.931 . S
C1094 C1093 1.393 . S
C1094 C1095 1.382 . S
C1095 H1065 0.929 . S
C1095 C1090 1.371 . S
C1095 C1094 1.382 . S
C1096 N1059 1.423 . S
C1096 C1097 1.362 . S
C1096 C1101 1.388 . S
C1097 H1067 0.929 . S
C1097 C1096 1.362 . S
C1097 C1098 1.376 . S
C1098 H1069 0.931 . S
C1098 C1097 1.376 . S
C1098 C1099 1.396 . S
C1099 C1098 1.396 . S
C1099 C1100 1.348 . S
C1099 C1117 1.472 . S
C1100 H1070 0.929 . S
C1100 C1099 1.348 . S
C1100 C1101 1.443 . S
C1101 H1068 0.932 1_655 S
C1101 C1096 1.388 . S
C1101 C1100 1.443 . S
C1102 N1082 1.433 . S
C1102 C1103 1.363 . S
C1102 C1107 1.370 1_655 S
C1103 H1071 0.929 . S
C1103 C1102 1.363 . S
C1103 C1104 1.385 . S
C1104 H1072 0.930 . S
C1104 C1103 1.385 . S
C1104 C1105 1.357 1_655 S
C1105 C1104 1.357 1_455 S
C1105 C1106 1.406 . S
C1106 H1073 0.929 . S
C1106 C1105 1.406 . S
C1106 C1107 1.391 . S
C1107 H1074 0.931 . S
C1107 C1102 1.370 1_455 S
C1107 C1106 1.391 . S
C1108 N1082 1.435 . S
C1108 C1109 1.358 1_655 S
C1108 C1113 1.371 . S
C1109 H1075 0.930 . S
C1109 C1108 1.358 1_455 S
C1109 C1110 1.405 . S
C1110 H1076 0.932 . S
C1110 C1109 1.405 . S
C1110 C1111 1.383 1_455 S
C1111 C1110 1.383 1_655 S
C1111 C1112 1.393 . S
C1112 H1077 0.931 . S
C1112 C1111 1.393 . S
C1112 C1113 1.382 . S
C1113 H1078 0.929 . S
C1113 C1108 1.371 . S
C1113 C1112 1.382 . S
C1114 N1082 1.423 . S
C1114 C1115 1.362 . S
C1114 C1119 1.388 . S
C1115 H1079 0.929 . S
C1115 C1114 1.362 . S
C1115 C1116 1.376 . S
C1116 H1080 0.931 . S
C1116 C1115 1.376 . S
C1116 C1117 1.396 . S
C1117 C1099 1.472 . S
C1117 C1116 1.396 . S
C1117 C1118 1.348 . S
C1118 H1081 0.929 . S
C1118 C1117 1.348 . S
C1118 C1119 1.443 . S
C1119 H1083 0.932 1_655 S
C1119 C1114 1.388 . S
C1119 C1118 1.443 . S
H1120 C1147 0.929 . S
N1121 C1146 1.433 . S
N1121 C1152 1.435 . S
N1121 C1158 1.423 . S
H1122 C1148 0.930 . S
H1123 C1151 0.931 . S
H1124 C1150 0.929 . S
H1125 C1153 0.930 . S
H1126 C1154 0.932 . S
H1127 C1157 0.929 . S
H1128 C1156 0.931 . S
H1129 C1159 0.929 . S
H1130 C1163 0.932 . S
H1131 C1160 0.931 . S
H1132 C1162 0.929 . S
H1133 C1165 0.929 . S
H1134 C1166 0.930 . S
H1135 C1168 0.929 . S
H1136 C1169 0.931 . S
H1137 C1171 0.930 . S
H1138 C1172 0.932 . S
H1139 C1174 0.931 . S
H1140 C1175 0.929 . S
H1141 C1177 0.929 . S
H1142 C1178 0.931 . S
H1143 C1180 0.929 . S
N1144 C1164 1.433 . S
N1144 C1170 1.435 . S
N1144 C1176 1.423 . S
H1145 C1181 0.932 . S
C1146 N1121 1.433 . S
C1146 C1147 1.363 . S
C1146 C1151 1.370 . S
C1147 H1120 0.929 . S
C1147 C1146 1.363 . S
C1147 C1148 1.385 . S
C1148 H1122 0.930 . S
C1148 C1147 1.385 . S
C1148 C1149 1.357 . S
C1149 C1148 1.357 . S
C1149 C1150 1.406 . S
C1150 H1124 0.929 . S
C1150 C1149 1.406 . S
C1150 C1151 1.391 . S
C1151 H1123 0.931 . S
C1151 C1146 1.370 . S
C1151 C1150 1.391 . S
C1152 N1121 1.435 . S
C1152 C1153 1.358 . S
C1152 C1157 1.371 . S
C1153 H1125 0.930 . S
C1153 C1152 1.358 . S
C1153 C1154 1.405 . S
C1154 H1126 0.932 . S
C1154 C1153 1.405 . S
C1154 C1155 1.383 . S
C1155 C1154 1.383 . S
C1155 C1156 1.393 . S
C1156 H1128 0.931 . S
C1156 C1155 1.393 . S
C1156 C1157 1.382 . S
C1157 H1127 0.929 . S
C1157 C1152 1.371 . S
C1157 C1156 1.382 . S
C1158 N1121 1.423 . S
C1158 C1159 1.362 . S
C1158 C1163 1.388 . S
C1159 H1129 0.929 . S
C1159 C1158 1.362 . S
C1159 C1160 1.376 . S
C1160 H1131 0.931 . S
C1160 C1159 1.376 . S
C1160 C1161 1.396 . S
C1161 C1160 1.396 . S
C1161 C1162 1.348 . S
C1161 C1179 1.472 . S
C1162 H1132 0.929 . S
C1162 C1161 1.348 . S
C1162 C1163 1.443 . S
C1163 H1130 0.932 . S
C1163 C1158 1.388 . S
C1163 C1162 1.443 . S
C1164 N1144 1.433 . S
C1164 C1165 1.363 . S
C1164 C1169 1.370 . S
C1165 H1133 0.929 . S
C1165 C1164 1.363 . S
C1165 C1166 1.385 . S
C1166 H1134 0.930 . S
C1166 C1165 1.385 . S
C1166 C1167 1.357 . S
C1167 C1166 1.357 . S
C1167 C1168 1.406 . S
C1168 H1135 0.929 . S
C1168 C1167 1.406 . S
C1168 C1169 1.391 . S
C1169 H1136 0.931 . S
C1169 C1164 1.370 . S
C1169 C1168 1.391 . S
C1170 N1144 1.435 . S
C1170 C1171 1.358 . S
C1170 C1175 1.371 . S
C1171 H1137 0.930 . S
C1171 C1170 1.358 . S
C1171 C1172 1.405 . S
C1172 H1138 0.932 . S
C1172 C1171 1.405 . S
C1172 C1173 1.383 . S
C1173 C1172 1.383 . S
C1173 C1174 1.393 . S
C1174 H1139 0.931 . S
C1174 C1173 1.393 . S
C1174 C1175 1.382 . S
C1175 H1140 0.929 . S
C1175 C1170 1.371 . S
C1175 C1174 1.382 . S
C1176 N1144 1.423 . S
C1176 C1177 1.362 . S
C1176 C1181 1.388 . S
C1177 H1141 0.929 . S
C1177 C1176 1.362 . S
C1177 C1178 1.376 . S
C1178 H1142 0.931 . S
C1178 C1177 1.376 . S
C1178 C1179 1.396 . S
C1179 C1161 1.472 . S
C1179 C1178 1.396 . S
C1179 C1180 1.348 . S
C1180 H1143 0.929 . S
C1180 C1179 1.348 . S
C1180 C1181 1.443 . S
C1181 H1145 0.932 . S
C1181 C1176 1.388 . S
C1181 C1180 1.443 . S
H1182 C1209 0.929 . S
N1183 C1208 1.433 . S
N1183 C1214 1.435 . S
N1183 C1220 1.423 . S
H1184 C1210 0.930 . S
H1185 C1213 0.931 . S
H1186 C1212 0.929 . S
H1187 C1215 0.930 . S
H1188 C1216 0.932 . S
H1189 C1219 0.929 . S
H1190 C1218 0.931 . S
H1191 C1221 0.929 . S
H1192 C1225 0.932 . S
H1193 C1222 0.931 . S
H1194 C1224 0.929 . S
H1195 C1227 0.929 . S
H1196 C1228 0.930 . S
H1197 C1230 0.929 . S
H1198 C1231 0.931 . S
H1199 C1233 0.930 . S
H1200 C1234 0.932 . S
H1201 C1236 0.931 . S
H1202 C1237 0.929 . S
H1203 C1239 0.929 . S
H1204 C1240 0.931 . S
H1205 C1242 0.929 . S
N1206 C1226 1.433 . S
N1206 C1232 1.435 . S
N1206 C1238 1.423 . S
H1207 C1243 0.932 . S
C1208 N1183 1.433 . S
C1208 C1209 1.363 . S
C1208 C1213 1.370 . S
C1209 H1182 0.929 . S
C1209 C1208 1.363 . S
C1209 C1210 1.385 . S
C1210 H1184 0.930 . S
C1210 C1209 1.385 . S
C1210 C1211 1.357 . S
C1211 C1210 1.357 . S
C1211 C1212 1.406 . S
C1212 H1186 0.929 . S
C1212 C1211 1.406 . S
C1212 C1213 1.391 . S
C1213 H1185 0.931 . S
C1213 C1208 1.370 . S
C1213 C1212 1.391 . S
C1214 N1183 1.435 . S
C1214 C1215 1.358 . S
C1214 C1219 1.371 . S
C1215 H1187 0.930 . S
C1215 C1214 1.358 . S
C1215 C1216 1.405 . S
C1216 H1188 0.932 . S
C1216 C1215 1.405 . S
C1216 C1217 1.383 . S
C1217 C1216 1.383 . S
C1217 C1218 1.393 . S
C1218 H1190 0.931 . S
C1218 C1217 1.393 . S
C1218 C1219 1.382 . S
C1219 H1189 0.929 . S
C1219 C1214 1.371 . S
C1219 C1218 1.382 . S
C1220 N1183 1.423 . S
C1220 C1221 1.362 . S
C1220 C1225 1.388 . S
C1221 H1191 0.929 . S
C1221 C1220 1.362 . S
C1221 C1222 1.376 . S
C1222 H1193 0.931 . S
C1222 C1221 1.376 . S
C1222 C1223 1.396 . S
C1223 C1222 1.396 . S
C1223 C1224 1.348 . S
C1223 C1241 1.472 . S
C1224 H1194 0.929 . S
C1224 C1223 1.348 . S
C1224 C1225 1.443 . S
C1225 H1192 0.932 . S
C1225 C1220 1.388 . S
C1225 C1224 1.443 . S
C1226 N1206 1.433 . S
C1226 C1227 1.363 . S
C1226 C1231 1.370 . S
C1227 H1195 0.929 . S
C1227 C1226 1.363 . S
C1227 C1228 1.385 . S
C1228 H1196 0.930 . S
C1228 C1227 1.385 . S
C1228 C1229 1.357 . S
C1229 C1228 1.357 . S
C1229 C1230 1.406 . S
C1230 H1197 0.929 . S
C1230 C1229 1.406 . S
C1230 C1231 1.391 . S
C1231 H1198 0.931 . S
C1231 C1226 1.370 . S
C1231 C1230 1.391 . S
C1232 N1206 1.435 . S
C1232 C1233 1.358 . S
C1232 C1237 1.371 . S
C1233 H1199 0.930 . S
C1233 C1232 1.358 . S
C1233 C1234 1.405 . S
C1234 H1200 0.932 . S
C1234 C1233 1.405 . S
C1234 C1235 1.383 . S
C1235 C1234 1.383 . S
C1235 C1236 1.393 . S
C1236 H1201 0.931 . S
C1236 C1235 1.393 . S
C1236 C1237 1.382 . S
C1237 H1202 0.929 . S
C1237 C1232 1.371 . S
C1237 C1236 1.382 . S
C1238 N1206 1.423 . S
C1238 C1239 1.362 . S
C1238 C1243 1.388 . S
C1239 H1203 0.929 . S
C1239 C1238 1.362 . S
C1239 C1240 1.376 . S
C1240 H1204 0.931 . S
C1240 C1239 1.376 . S
C1240 C1241 1.396 . S
C1241 C1223 1.472 . S
C1241 C1240 1.396 . S
C1241 C1242 1.348 . S
C1242 H1205 0.929 . S
C1242 C1241 1.348 . S
C1242 C1243 1.443 . S
C1243 H1207 0.932 . S
C1243 C1238 1.388 . S
C1243 C1242 1.443 . S
H1244 C1271 0.929 . S
N1245 C1270 1.433 . S
N1245 C1276 1.435 . S
N1245 C1282 1.423 . S
H1246 C1272 0.930 . S
H1247 C1275 0.931 . S
H1248 C1274 0.929 . S
H1249 C1277 0.930 . S
H1250 C1278 0.932 . S
H1251 C1281 0.929 . S
H1252 C1280 0.931 . S
H1253 C1283 0.929 . S
H1254 C1287 0.932 . S
H1255 C1284 0.931 . S
H1256 C1286 0.929 . S
H1257 C1289 0.929 . S
H1258 C1290 0.930 . S
H1259 C1292 0.929 . S
H1260 C1293 0.931 . S
H1261 C1295 0.930 . S
H1262 C1296 0.932 . S
H1263 C1298 0.931 . S
H1264 C1299 0.929 . S
H1265 C1301 0.929 . S
H1266 C1302 0.931 . S
H1267 C1304 0.929 . S
N1268 C1288 1.433 . S
N1268 C1294 1.435 . S
N1268 C1300 1.423 . S
H1269 C1305 0.932 . S
C1270 N1245 1.433 . S
C1270 C1271 1.363 . S
C1270 C1275 1.370 . S
C1271 H1244 0.929 . S
C1271 C1270 1.363 . S
C1271 C1272 1.385 . S
C1272 H1246 0.930 . S
C1272 C1271 1.385 . S
C1272 C1273 1.357 . S
C1273 C1272 1.357 . S
C1273 C1274 1.406 . S
C1274 H1248 0.929 . S
C1274 C1273 1.406 . S
C1274 C1275 1.391 . S
C1275 H1247 0.931 . S
C1275 C1270 1.370 . S
C1275 C1274 1.391 . S
C1276 N1245 1.435 . S
C1276 C1277 1.358 . S
C1276 C1281 1.371 . S
C1277 H1249 0.930 . S
C1277 C1276 1.358 . S
C1277 C1278 1.405 . S
C1278 H1250 0.932 . S
C1278 C1277 1.405 . S
C1278 C1279 1.383 . S
C1279 C1278 1.383 . S
C1279 C1280 1.393 . S
C1280 H1252 0.931 . S
C1280 C1279 1.393 . S
C1280 C1281 1.382 . S
C1281 H1251 0.929 . S
C1281 C1276 1.371 . S
C1281 C1280 1.382 . S
C1282 N1245 1.423 . S
C1282 C1283 1.362 . S
C1282 C1287 1.388 . S
C1283 H1253 0.929 . S
C1283 C1282 1.362 . S
C1283 C1284 1.376 . S
C1284 H1255 0.931 . S
C1284 C1283 1.376 . S
C1284 C1285 1.396 . S
C1285 C1284 1.396 . S
C1285 C1286 1.348 . S
C1285 C1303 1.472 . S
C1286 H1256 0.929 . S
C1286 C1285 1.348 . S
C1286 C1287 1.443 . S
C1287 H1254 0.932 . S
C1287 C1282 1.388 . S
C1287 C1286 1.443 . S
C1288 N1268 1.433 . S
C1288 C1289 1.363 . S
C1288 C1293 1.370 . S
C1289 H1257 0.929 . S
C1289 C1288 1.363 . S
C1289 C1290 1.385 . S
C1290 H1258 0.930 . S
C1290 C1289 1.385 . S
C1290 C1291 1.357 . S
C1291 C1290 1.357 . S
C1291 C1292 1.406 . S
C1292 H1259 0.929 . S
C1292 C1291 1.406 . S
C1292 C1293 1.391 . S
C1293 H1260 0.931 . S
C1293 C1288 1.370 . S
C1293 C1292 1.391 . S
C1294 N1268 1.435 . S
C1294 C1295 1.358 . S
C1294 C1299 1.371 . S
C1295 H1261 0.930 . S
C1295 C1294 1.358 . S
C1295 C1296 1.405 . S
C1296 H1262 0.932 . S
C1296 C1295 1.405 . S
C1296 C1297 1.383 . S
C1297 C1296 1.383 . S
C1297 C1298 1.393 . S
C1298 H1263 0.931 . S
C1298 C1297 1.393 . S
C1298 C1299 1.382 . S
C1299 H1264 0.929 . S
C1299 C1294 1.371 . S
C1299 C1298 1.382 . S
C1300 N1268 1.423 . S
C1300 C1301 1.362 . S
C1300 C1305 1.388 . S
C1301 H1265 0.929 . S
C1301 C1300 1.362 . S
C1301 C1302 1.376 . S
C1302 H1266 0.931 . S
C1302 C1301 1.376 . S
C1302 C1303 1.396 . S
C1303 C1285 1.472 . S
C1303 C1302 1.396 . S
C1303 C1304 1.348 . S
C1304 H1267 0.929 . S
C1304 C1303 1.348 . S
C1304 C1305 1.443 . S
C1305 H1269 0.932 . S
C1305 C1300 1.388 . S
C1305 C1304 1.443 . S
H1306 C1333 0.929 . S
N1307 C1332 1.433 . S
N1307 C1338 1.435 . S
N1307 C1344 1.423 . S
H1308 C1334 0.930 . S
H1309 C1337 0.931 . S
H1310 C1336 0.929 . S
H1311 C1339 0.930 . S
H1312 C1340 0.932 . S
H1313 C1343 0.929 . S
H1314 C1342 0.931 . S
H1315 C1345 0.929 . S
H1316 C1349 0.932 . S
H1317 C1346 0.931 . S
H1318 C1348 0.929 . S
H1319 C1351 0.929 . S
H1320 C1352 0.930 . S
H1321 C1354 0.929 . S
H1322 C1355 0.931 . S
H1323 C1357 0.930 . S
H1324 C1358 0.932 . S
H1325 C1360 0.931 . S
H1326 C1361 0.929 . S
H1327 C1363 0.929 . S
H1328 C1364 0.931 . S
H1329 C1366 0.929 . S
N1330 C1350 1.433 . S
N1330 C1356 1.435 . S
N1330 C1362 1.423 . S
H1331 C1367 0.932 . S
C1332 N1307 1.433 . S
C1332 C1333 1.363 . S
C1332 C1337 1.370 . S
C1333 H1306 0.929 . S
C1333 C1332 1.363 . S
C1333 C1334 1.385 . S
C1334 H1308 0.930 . S
C1334 C1333 1.385 . S
C1334 C1335 1.357 . S
C1335 C1334 1.357 . S
C1335 C1336 1.406 . S
C1336 H1310 0.929 . S
C1336 C1335 1.406 . S
C1336 C1337 1.391 . S
C1337 H1309 0.931 . S
C1337 C1332 1.370 . S
C1337 C1336 1.391 . S
C1338 N1307 1.435 . S
C1338 C1339 1.358 . S
C1338 C1343 1.371 . S
C1339 H1311 0.930 . S
C1339 C1338 1.358 . S
C1339 C1340 1.405 . S
C1340 H1312 0.932 . S
C1340 C1339 1.405 . S
C1340 C1341 1.383 . S
C1341 C1340 1.383 . S
C1341 C1342 1.393 . S
C1342 H1314 0.931 . S
C1342 C1341 1.393 . S
C1342 C1343 1.382 . S
C1343 H1313 0.929 . S
C1343 C1338 1.371 . S
C1343 C1342 1.382 . S
C1344 N1307 1.423 . S
C1344 C1345 1.362 . S
C1344 C1349 1.388 . S
C1345 H1315 0.929 . S
C1345 C1344 1.362 . S
C1345 C1346 1.376 . S
C1346 H1317 0.931 . S
C1346 C1345 1.376 . S
C1346 C1347 1.396 . S
C1347 C1346 1.396 . S
C1347 C1348 1.348 . S
C1347 C1365 1.472 . S
C1348 H1318 0.929 . S
C1348 C1347 1.348 . S
C1348 C1349 1.443 . S
C1349 H1316 0.932 . S
C1349 C1344 1.388 . S
C1349 C1348 1.443 . S
C1350 N1330 1.433 . S
C1350 C1351 1.363 . S
C1350 C1355 1.370 . S
C1351 H1319 0.929 . S
C1351 C1350 1.363 . S
C1351 C1352 1.385 . S
C1352 H1320 0.930 . S
C1352 C1351 1.385 . S
C1352 C1353 1.357 . S
C1353 C1352 1.357 . S
C1353 C1354 1.406 . S
C1354 H1321 0.929 . S
C1354 C1353 1.406 . S
C1354 C1355 1.391 . S
C1355 H1322 0.931 . S
C1355 C1350 1.370 . S
C1355 C1354 1.391 . S
C1356 N1330 1.435 . S
C1356 C1357 1.358 . S
C1356 C1361 1.371 . S
C1357 H1323 0.930 . S
C1357 C1356 1.358 . S
C1357 C1358 1.405 . S
C1358 H1324 0.932 . S
C1358 C1357 1.405 . S
C1358 C1359 1.383 . S
C1359 C1358 1.383 . S
C1359 C1360 1.393 . S
C1360 H1325 0.931 . S
C1360 C1359 1.393 . S
C1360 C1361 1.382 . S
C1361 H1326 0.929 . S
C1361 C1356 1.371 . S
C1361 C1360 1.382 . S
C1362 N1330 1.423 . S
C1362 C1363 1.362 . S
C1362 C1367 1.388 . S
C1363 H1327 0.929 . S
C1363 C1362 1.362 . S
C1363 C1364 1.376 . S
C1364 H1328 0.931 . S
C1364 C1363 1.376 . S
C1364 C1365 1.396 . S
C1365 C1347 1.472 . S
C1365 C1364 1.396 . S
C1365 C1366 1.348 . S
C1366 H1329 0.929 . S
C1366 C1365 1.348 . S
C1366 C1367 1.443 . S
C1367 H1331 0.932 . S
C1367 C1362 1.388 . S
C1367 C1366 1.443 . S
C1368 C1369 1.355 1_655 S
C1368 C1374 1.394 . S
C1368 N1376 1.347 . S
C1369 C1368 1.355 1_455 S
C1369 C1375 1.363 . S
C1370 C1371 1.363 . S
C1370 C1375 1.379 . S
C1370 N1377 1.356 . S
C1371 C1370 1.363 . S
C1371 C1374 1.363 1_455 S
N1372 C1374 1.356 . S
N1372 H1384 0.984 . S
N1372 H1385 0.985 . S
N1373 C1375 1.356 . S
N1373 H1378 0.984 . S
N1373 H1379 0.985 . S
C1374 C1368 1.394 . S
C1374 C1371 1.363 1_655 S
C1374 N1372 1.356 . S
C1375 C1369 1.363 . S
C1375 C1370 1.379 . S
C1375 N1373 1.356 . S
N1376 C1368 1.347 . S
N1376 H1382 0.984 . S
N1376 H1383 0.984 . S
N1377 C1370 1.356 . S
N1377 H1380 0.984 . S
N1377 H1381 0.985 . S
H1378 N1373 0.984 . S
H1379 N1373 0.985 . S
H1380 N1377 0.984 . S
H1381 N1377 0.985 . S
H1382 N1376 0.984 . S
H1383 N1376 0.984 . S
H1384 N1372 0.984 . S
H1385 N1372 0.985 . S
C1386 C1387 1.363 . S
C1386 C1392 1.379 . S
C1386 N1394 1.356 . S
C1387 C1386 1.363 . S
C1387 C1393 1.363 . S
C1388 C1389 1.363 . S
C1388 C1393 1.379 . S
C1388 N1395 1.356 . S
C1389 C1388 1.363 . S
C1389 C1392 1.363 . S
N1390 C1392 1.356 . S
N1390 H1402 0.984 . S
N1390 H1403 0.985 . S
N1391 C1393 1.356 . S
N1391 H1396 0.984 . S
N1391 H1397 0.985 . S
C1392 C1386 1.379 . S
C1392 C1389 1.363 . S
C1392 N1390 1.356 . S
C1393 C1387 1.363 . S
C1393 C1388 1.379 . S
C1393 N1391 1.356 . S
N1394 C1386 1.356 . S
N1394 H1400 0.984 . S
N1394 H1401 0.984 . S
N1395 C1388 1.356 . S
N1395 H1398 0.984 . S
N1395 H1399 0.985 . S
H1396 N1391 0.984 . S
H1397 N1391 0.985 . S
H1398 N1395 0.984 . S
H1399 N1395 0.985 . S
H1400 N1394 0.984 . S
H1401 N1394 0.984 . S
H1402 N1390 0.984 . S
H1403 N1390 0.985 . S
C1404 C1405 1.363 . S
C1404 C1410 1.379 . S
C1404 N1412 1.356 . S
C1405 C1404 1.363 . S
C1405 C1411 1.363 1_545 S
C1406 C1407 1.363 1_565 S
C1406 C1411 1.379 . S
C1406 N1413 1.356 . S
C1407 C1406 1.363 1_545 S
C1407 C1410 1.363 . S
N1408 C1410 1.356 . S
N1408 H1420 0.984 . S
N1408 H1421 0.985 . S
N1409 C1411 1.356 . S
N1409 H1414 0.984 . S
N1409 H1415 0.985 . S
C1410 C1404 1.379 . S
C1410 C1407 1.363 . S
C1410 N1408 1.356 . S
C1411 C1405 1.363 1_565 S
C1411 C1406 1.379 . S
C1411 N1409 1.356 . S
N1412 C1404 1.356 . S
N1412 H1418 0.984 . S
N1412 H1419 0.984 . S
N1413 C1406 1.356 . S
N1413 H1416 0.984 . S
N1413 H1417 0.985 . S
H1414 N1409 0.984 . S
H1415 N1409 0.985 . S
H1416 N1413 0.984 . S
H1417 N1413 0.985 . S
H1418 N1412 0.984 . S
H1419 N1412 0.984 . S
H1420 N1408 0.984 . S
H1421 N1408 0.985 . S
C1422 C1423 1.363 . S
C1422 C1428 1.379 . S
C1422 N1430 1.356 . S
C1423 C1422 1.363 . S
C1423 C1429 1.363 1_545 S
C1424 C1425 1.363 1_565 S
C1424 C1429 1.379 . S
C1424 N1431 1.356 . S
C1425 C1424 1.363 1_545 S
C1425 C1428 1.363 . S
N1426 C1428 1.356 . S
N1426 H1438 0.984 . S
N1426 H1439 0.985 . S
N1427 C1429 1.356 . S
N1427 H1432 0.984 . S
N1427 H1433 0.985 . S
C1428 C1422 1.379 . S
C1428 C1425 1.363 . S
C1428 N1426 1.356 . S
C1429 C1423 1.363 1_565 S
C1429 C1424 1.379 . S
C1429 N1427 1.356 . S
N1430 C1422 1.356 . S
N1430 H1436 0.984 . S
N1430 H1437 0.984 . S
N1431 C1424 1.356 . S
N1431 H1434 0.984 . S
N1431 H1435 0.985 . S
H1432 N1427 0.984 . S
H1433 N1427 0.985 . S
H1434 N1431 0.984 . S
H1435 N1431 0.985 . S
H1436 N1430 0.984 . S
H1437 N1430 0.984 . S
H1438 N1426 0.984 . S
H1439 N1426 0.985 . S
C1440 C1441 1.363 1_655 S
C1440 C1446 1.379 . S
C1440 N1448 1.356 . S
C1441 C1440 1.363 1_455 S
C1441 C1447 1.363 . S
C1442 C1443 1.363 . S
C1442 C1447 1.379 . S
C1442 N1449 1.356 . S
C1443 C1442 1.363 . S
C1443 C1446 1.363 1_455 S
N1444 C1446 1.356 . S
N1444 H1456 0.984 . S
N1444 H1457 0.985 . S
N1445 C1447 1.356 . S
N1445 H1450 0.984 . S
N1445 H1451 0.985 . S
C1446 C1440 1.379 . S
C1446 C1443 1.363 1_655 S
C1446 N1444 1.356 . S
C1447 C1441 1.363 . S
C1447 C1442 1.379 . S
C1447 N1445 1.356 . S
N1448 C1440 1.356 . S
N1448 H1454 0.984 . S
N1448 H1455 0.984 . S
N1449 C1442 1.356 . S
N1449 H1452 0.984 . S
N1449 H1453 0.985 . S
H1450 N1445 0.984 . S
H1451 N1445 0.985 . S
H1452 N1449 0.984 . S
H1453 N1449 0.985 . S
H1454 N1448 0.984 . S
H1455 N1448 0.984 . S
H1456 N1444 0.984 . S
H1457 N1444 0.985 . S
C1458 C1459 1.363 . S
C1458 C1464 1.379 . S
C1458 N1466 1.356 . S
C1459 C1458 1.363 . S
C1459 C1465 1.363 . S
C1460 C1461 1.363 . S
C1460 C1465 1.379 . S
C1460 N1467 1.356 . S
C1461 C1460 1.363 . S
C1461 C1464 1.363 . S
N1462 C1464 1.356 . S
N1462 H1474 0.984 . S
N1462 H1475 0.985 . S
N1463 C1465 1.356 . S
N1463 H1468 0.984 . S
N1463 H1469 0.985 . S
C1464 C1458 1.379 . S
C1464 C1461 1.363 . S
C1464 N1462 1.356 . S
C1465 C1459 1.363 . S
C1465 C1460 1.379 . S
C1465 N1463 1.356 . S
N1466 C1458 1.356 . S
N1466 H1472 0.984 . S
N1466 H1473 0.984 . S
N1467 C1460 1.356 . S
N1467 H1470 0.984 . S
N1467 H1471 0.985 . S
H1468 N1463 0.984 . S
H1469 N1463 0.985 . S
H1470 N1467 0.984 . S
H1471 N1467 0.985 . S
H1472 N1466 0.984 . S
H1473 N1466 0.984 . S
H1474 N1462 0.984 . S
H1475 N1462 0.985 . S
C1476 C1477 1.363 . S
C1476 C1482 1.379 . S
C1476 N1484 1.356 . S
C1477 C1476 1.363 . S
C1477 C1483 1.363 1_455 S
C1478 C1479 1.363 1_655 S
C1478 C1483 1.379 . S
C1478 N1485 1.356 . S
C1479 C1478 1.363 1_455 S
C1479 C1482 1.363 . S
N1480 C1482 1.356 . S
N1480 H1492 0.984 . S
N1480 H1493 0.985 . S
N1481 C1483 1.356 . S
N1481 H1486 0.984 . S
N1481 H1487 0.985 . S
C1482 C1476 1.379 . S
C1482 C1479 1.363 . S
C1482 N1480 1.356 . S
C1483 C1477 1.363 1_655 S
C1483 C1478 1.379 . S
C1483 N1481 1.356 . S
N1484 C1476 1.356 . S
N1484 H1490 0.984 1_556 S
N1484 H1491 0.984 1_556 S
N1485 C1478 1.356 . S
N1485 H1488 0.984 . S
N1485 H1489 0.985 . S
H1486 N1481 0.984 . S
H1487 N1481 0.985 . S
H1488 N1485 0.984 . S
H1489 N1485 0.985 . S
H1490 N1484 0.984 1_554 S
H1491 N1484 0.984 1_554 S
H1492 N1480 0.984 . S
H1493 N1480 0.985 . S
C1494 C1495 1.363 . S
C1494 C1500 1.379 . S
C1494 N1502 1.356 . S
C1495 C1494 1.363 . S
C1495 C1501 1.363 . S
C1496 C1497 1.363 . S
C1496 C1501 1.379 . S
C1496 N1503 1.356 . S
C1497 C1496 1.363 . S
C1497 C1500 1.363 . S
N1498 C1500 1.356 . S
N1498 H1510 0.984 . S
N1498 H1511 0.985 . S
N1499 C1501 1.356 . S
N1499 H1504 0.984 . S
N1499 H1505 0.985 . S
C1500 C1494 1.379 . S
C1500 C1497 1.363 . S
C1500 N1498 1.356 . S
C1501 C1495 1.363 . S
C1501 C1496 1.379 . S
C1501 N1499 1.356 . S
N1502 C1494 1.356 . S
N1502 H1508 0.984 . S
N1502 H1509 0.984 . S
N1503 C1496 1.356 . S
N1503 H1506 0.984 . S
N1503 H1507 0.985 . S
H1504 N1499 0.984 . S
H1505 N1499 0.985 . S
H1506 N1503 0.984 . S
H1507 N1503 0.985 . S
H1508 N1502 0.984 . S
H1509 N1502 0.984 . S
H1510 N1498 0.984 . S
H1511 N1498 0.985 . S
C1512 C1513 1.363 . S
C1512 C1518 1.379 . S
C1512 N1520 1.356 . S
C1513 C1512 1.363 . S
C1513 C1519 1.363 1_545 S
C1514 C1515 1.363 1_565 S
C1514 C1519 1.379 . S
C1514 N1521 1.356 . S
C1515 C1514 1.363 1_545 S
C1515 C1518 1.363 . S
N1516 C1518 1.356 . S
N1516 H1528 0.984 . S
N1516 H1529 0.985 . S
N1517 C1519 1.356 . S
N1517 H1522 0.984 1_556 S
N1517 H1523 0.985 1_556 S
C1518 C1512 1.379 . S
C1518 C1515 1.363 . S
C1518 N1516 1.356 . S
C1519 C1513 1.363 1_565 S
C1519 C1514 1.379 . S
C1519 N1517 1.356 . S
N1520 C1512 1.356 . S
N1520 H1526 0.984 . S
N1520 H1527 0.984 . S
N1521 C1514 1.356 . S
N1521 H1524 0.984 . S
N1521 H1525 0.985 . S
H1522 N1517 0.984 1_554 S
H1523 N1517 0.985 1_554 S
H1524 N1521 0.984 . S
H1525 N1521 0.985 . S
H1526 N1520 0.984 . S
H1527 N1520 0.984 . S
H1528 N1516 0.984 . S
H1529 N1516 0.985 . S
C1530 C1531 1.363 1_565 S
C1530 C1536 1.379 . S
C1530 N1538 1.356 . S
C1531 C1530 1.363 1_545 S
C1531 C1537 1.363 . S
C1532 C1533 1.363 . S
C1532 C1537 1.379 . S
C1532 N1539 1.356 . S
C1533 C1532 1.363 . S
C1533 C1536 1.363 1_545 S
N1534 C1536 1.356 . S
N1534 H1546 0.984 . S
N1534 H1547 0.985 . S
N1535 C1537 1.356 . S
N1535 H1540 0.984 . S
N1535 H1541 0.985 . S
C1536 C1530 1.379 . S
C1536 C1533 1.363 1_565 S
C1536 N1534 1.356 . S
C1537 C1531 1.363 . S
C1537 C1532 1.379 . S
C1537 N1535 1.356 . S
N1538 C1530 1.356 . S
N1538 H1544 0.984 . S
N1538 H1545 0.984 . S
N1539 C1532 1.356 . S
N1539 H1542 0.984 . S
N1539 H1543 0.985 . S
H1540 N1535 0.984 . S
H1541 N1535 0.985 . S
H1542 N1539 0.984 . S
H1543 N1539 0.985 . S
H1544 N1538 0.984 . S
H1545 N1538 0.984 . S
H1546 N1534 0.984 . S
H1547 N1534 0.985 . S
C1548 C1549 1.364 1_655 S
C1548 C1554 1.378 . S
C1548 N1556 1.357 . S
C1549 C1548 1.364 1_455 S
C1549 C1555 1.363 . S
C1550 C1551 1.363 . S
C1550 C1555 1.379 . S
C1550 N1557 1.356 . S
C1551 C1550 1.363 . S
C1551 C1554 1.363 1_455 S
N1552 C1554 1.356 . S
N1552 H1564 0.984 . S
N1552 H1565 0.985 . S
N1553 C1555 1.356 . S
N1553 H1558 0.984 . S
N1553 H1559 0.985 . S
C1554 C1548 1.378 . S
C1554 C1551 1.363 1_655 S
C1554 N1552 1.356 . S
C1555 C1549 1.363 . S
C1555 C1550 1.379 . S
C1555 N1553 1.356 . S
N1556 C1548 1.357 . S
N1556 H1562 0.984 . S
N1556 H1563 0.984 . S
N1557 C1550 1.356 . S
N1557 H1560 0.984 . S
N1557 H1561 0.985 . S
H1558 N1553 0.984 . S
H1559 N1553 0.985 . S
H1560 N1557 0.984 . S
H1561 N1557 0.985 . S
H1562 N1556 0.984 . S
H1563 N1556 0.984 . S
H1564 N1552 0.984 . S
H1565 N1552 0.985 . S
C1566 C1567 1.363 . S
C1566 C1572 1.379 . S
C1566 N1574 1.356 . S
C1567 C1566 1.363 . S
C1567 C1573 1.363 . S
C1568 C1569 1.363 . S
C1568 C1573 1.379 . S
C1568 N1575 1.356 . S
C1569 C1568 1.363 . S
C1569 C1572 1.363 . S
N1570 C1572 1.356 . S
N1570 H1582 0.984 . S
N1570 H1583 0.985 . S
N1571 C1573 1.356 . S
N1571 H1576 0.984 . S
N1571 H1577 0.985 . S
C1572 C1566 1.379 . S
C1572 C1569 1.363 . S
C1572 N1570 1.356 . S
C1573 C1567 1.363 . S
C1573 C1568 1.379 . S
C1573 N1571 1.356 . S
N1574 C1566 1.356 . S
N1574 H1580 0.984 . S
N1574 H1581 0.984 . S
N1575 C1568 1.356 . S
N1575 H1578 0.984 . S
N1575 H1579 0.985 . S
H1576 N1571 0.984 . S
H1577 N1571 0.985 . S
H1578 N1575 0.984 . S
H1579 N1575 0.985 . S
H1580 N1574 0.984 . S
H1581 N1574 0.984 . S
H1582 N1570 0.984 . S
H1583 N1570 0.985 . S
C1584 C1585 1.363 . S
C1584 C1590 1.379 . S
C1584 N1592 1.356 . S
C1585 C1584 1.363 . S
C1585 C1591 1.363 . S
C1586 C1587 1.363 . S
C1586 C1591 1.379 . S
C1586 N1593 1.356 . S
C1587 C1586 1.363 . S
C1587 C1590 1.363 . S
N1588 C1590 1.356 . S
N1588 H1600 0.984 . S
N1588 H1601 0.985 . S
N1589 C1591 1.356 . S
N1589 H1594 0.984 . S
N1589 H1595 0.985 . S
C1590 C1584 1.379 . S
C1590 C1587 1.363 . S
C1590 N1588 1.356 . S
C1591 C1585 1.363 . S
C1591 C1586 1.379 . S
C1591 N1589 1.356 . S
N1592 C1584 1.356 . S
N1592 H1598 0.984 . S
N1592 H1599 0.984 . S
N1593 C1586 1.356 . S
N1593 H1596 0.984 . S
N1593 H1597 0.985 . S
H1594 N1589 0.984 . S
H1595 N1589 0.985 . S
H1596 N1593 0.984 . S
H1597 N1593 0.985 . S
H1598 N1592 0.984 . S
H1599 N1592 0.984 . S
H1600 N1588 0.984 . S
H1601 N1588 0.985 . S
C1602 C1603 1.363 . S
C1602 C1608 1.379 . S
C1602 N1610 1.356 . S
C1603 C1602 1.363 . S
C1603 C1609 1.363 . S
C1604 C1605 1.363 . S
C1604 C1609 1.379 . S
C1604 N1611 1.356 . S
C1605 C1604 1.363 . S
C1605 C1608 1.363 . S
N1606 C1608 1.356 . S
N1606 H1618 0.984 . S
N1606 H1619 0.985 . S
N1607 C1609 1.356 . S
N1607 H1612 0.984 . S
N1607 H1613 0.985 . S
C1608 C1602 1.379 . S
C1608 C1605 1.363 . S
C1608 N1606 1.356 . S
C1609 C1603 1.363 . S
C1609 C1604 1.379 . S
C1609 N1607 1.356 . S
N1610 C1602 1.356 . S
N1610 H1616 0.984 . S
N1610 H1617 0.984 . S
N1611 C1604 1.356 . S
N1611 H1614 0.984 . S
N1611 H1615 0.985 . S
H1612 N1607 0.984 . S
H1613 N1607 0.985 . S
H1614 N1611 0.984 . S
H1615 N1611 0.985 . S
H1616 N1610 0.984 . S
H1617 N1610 0.984 . S
H1618 N1606 0.984 . S
H1619 N1606 0.985 . S
C1620 C1621 1.363 . S
C1620 C1626 1.379 . S
C1620 N1628 1.356 . S
C1621 C1620 1.363 . S
C1621 C1627 1.363 . S
C1622 C1623 1.363 . S
C1622 C1627 1.379 . S
C1622 N1629 1.356 . S
C1623 C1622 1.363 . S
C1623 C1626 1.363 . S
N1624 C1626 1.356 . S
N1624 H1636 0.984 . S
N1624 H1637 0.985 . S
N1625 C1627 1.356 . S
N1625 H1630 0.984 . S
N1625 H1631 0.985 . S
C1626 C1620 1.379 . S
C1626 C1623 1.363 . S
C1626 N1624 1.356 . S
C1627 C1621 1.363 . S
C1627 C1622 1.379 . S
C1627 N1625 1.356 . S
N1628 C1620 1.356 . S
N1628 H1634 0.984 . S
N1628 H1635 0.984 . S
N1629 C1622 1.356 . S
N1629 H1632 0.984 . S
N1629 H1633 0.985 . S
H1630 N1625 0.984 . S
H1631 N1625 0.985 . S
H1632 N1629 0.984 . S
H1633 N1629 0.985 . S
H1634 N1628 0.984 . S
H1635 N1628 0.984 . S
H1636 N1624 0.984 . S
H1637 N1624 0.985 . S
C1638 C1639 1.363 . S
C1638 C1644 1.379 . S
C1638 N1646 1.356 . S
C1639 C1638 1.363 . S
C1639 C1645 1.363 . S
C1640 C1641 1.363 . S
C1640 C1645 1.379 . S
C1640 N1647 1.356 . S
C1641 C1640 1.363 . S
C1641 C1644 1.363 . S
N1642 C1644 1.356 . S
N1642 H1654 0.984 . S
N1642 H1655 0.985 . S
N1643 C1645 1.356 . S
N1643 H1648 0.984 . S
N1643 H1649 0.985 . S
C1644 C1638 1.379 . S
C1644 C1641 1.363 . S
C1644 N1642 1.356 . S
C1645 C1639 1.363 . S
C1645 C1640 1.379 . S
C1645 N1643 1.356 . S
N1646 C1638 1.356 . S
N1646 H1652 0.984 . S
N1646 H1653 0.984 . S
N1647 C1640 1.356 . S
N1647 H1650 0.984 . S
N1647 H1651 0.985 . S
H1648 N1643 0.984 . S
H1649 N1643 0.985 . S
H1650 N1647 0.984 . S
H1651 N1647 0.985 . S
H1652 N1646 0.984 . S
H1653 N1646 0.984 . S
H1654 N1642 0.984 . S
H1655 N1642 0.985 . S
C1656 C1657 1.363 . S
C1656 C1662 1.379 . S
C1656 N1664 1.356 . S
C1657 C1656 1.363 . S
C1657 C1663 1.363 . S
C1658 C1659 1.363 . S
C1658 C1663 1.379 . S
C1658 N1665 1.356 . S
C1659 C1658 1.363 . S
C1659 C1662 1.363 . S
N1660 C1662 1.356 . S
N1660 H1672 0.984 . S
N1660 H1673 0.985 . S
N1661 C1663 1.356 . S
N1661 H1666 0.984 . S
N1661 H1667 0.985 . S
C1662 C1656 1.379 . S
C1662 C1659 1.363 . S
C1662 N1660 1.356 . S
C1663 C1657 1.363 . S
C1663 C1658 1.379 . S
C1663 N1661 1.356 . S
N1664 C1656 1.356 . S
N1664 H1670 0.984 . S
N1664 H1671 0.984 . S
N1665 C1658 1.356 . S
N1665 H1668 0.984 . S
N1665 H1669 0.985 . S
H1666 N1661 0.984 . S
H1667 N1661 0.985 . S
H1668 N1665 0.984 . S
H1669 N1665 0.985 . S
H1670 N1664 0.984 . S
H1671 N1664 0.984 . S
H1672 N1660 0.984 . S
H1673 N1660 0.985 . S
C1674 C1675 1.363 . S
C1674 C1680 1.379 . S
C1674 N1682 1.356 . S
C1675 C1674 1.363 . S
C1675 C1681 1.363 . S
C1676 C1677 1.363 . S
C1676 C1681 1.379 . S
C1676 N1683 1.356 . S
C1677 C1676 1.363 . S
C1677 C1680 1.363 . S
N1678 C1680 1.356 . S
N1678 H1690 0.984 . S
N1678 H1691 0.985 . S
N1679 C1681 1.356 . S
N1679 H1684 0.984 . S
N1679 H1685 0.985 . S
C1680 C1674 1.379 . S
C1680 C1677 1.363 . S
C1680 N1678 1.356 . S
C1681 C1675 1.363 . S
C1681 C1676 1.379 . S
C1681 N1679 1.356 . S
N1682 C1674 1.356 . S
N1682 H1688 0.984 . S
N1682 H1689 0.984 . S
N1683 C1676 1.356 . S
N1683 H1686 0.984 . S
N1683 H1687 0.985 . S
H1684 N1679 0.984 . S
H1685 N1679 0.985 . S
H1686 N1683 0.984 . S
H1687 N1683 0.985 . S
H1688 N1682 0.984 . S
H1689 N1682 0.984 . S
H1690 N1678 0.984 . S
H1691 N1678 0.985 . S
C1692 C1693 1.363 . S
C1692 C1698 1.379 . S
C1692 N1700 1.356 . S
C1693 C1692 1.363 . S
C1693 C1699 1.363 . S
C1694 C1695 1.363 . S
C1694 C1699 1.379 . S
C1694 N1701 1.356 . S
C1695 C1694 1.363 . S
C1695 C1698 1.363 . S
N1696 C1698 1.356 . S
N1696 H1708 0.984 . S
N1696 H1709 0.985 . S
N1697 C1699 1.356 . S
N1697 H1702 0.984 . S
N1697 H1703 0.985 . S
C1698 C1692 1.379 . S
C1698 C1695 1.363 . S
C1698 N1696 1.356 . S
C1699 C1693 1.363 . S
C1699 C1694 1.379 . S
C1699 N1697 1.356 . S
N1700 C1692 1.356 . S
N1700 H1706 0.984 . S
N1700 H1707 0.984 . S
N1701 C1694 1.356 . S
N1701 H1704 0.984 . S
N1701 H1705 0.985 . S
H1702 N1697 0.984 . S
H1703 N1697 0.985 . S
H1704 N1701 0.984 . S
H1705 N1701 0.985 . S
H1706 N1700 0.984 . S
H1707 N1700 0.984 . S
H1708 N1696 0.984 . S
H1709 N1696 0.985 . S
C1710 C1711 1.363 . S
C1710 C1716 1.379 . S
C1710 N1718 1.356 . S
C1711 C1710 1.363 . S
C1711 C1717 1.363 . S
C1712 C1713 1.363 . S
C1712 C1717 1.379 . S
C1712 N1719 1.356 . S
C1713 C1712 1.363 . S
C1713 C1716 1.363 . S
N1714 C1716 1.356 . S
N1714 H1726 0.984 . S
N1714 H1727 0.985 . S
N1715 C1717 1.356 . S
N1715 H1720 0.984 . S
N1715 H1721 0.985 . S
C1716 C1710 1.379 . S
C1716 C1713 1.363 . S
C1716 N1714 1.356 . S
C1717 C1711 1.363 . S
C1717 C1712 1.379 . S
C1717 N1715 1.356 . S
N1718 C1710 1.356 . S
N1718 H1724 0.984 . S
N1718 H1725 0.984 . S
N1719 C1712 1.356 . S
N1719 H1722 0.984 . S
N1719 H1723 0.985 . S
H1720 N1715 0.984 . S
H1721 N1715 0.985 . S
H1722 N1719 0.984 . S
H1723 N1719 0.985 . S
H1724 N1718 0.984 . S
H1725 N1718 0.984 . S
H1726 N1714 0.984 . S
H1727 N1714 0.985 . S
C1728 C1729 1.363 . S
C1728 C1734 1.379 . S
C1728 N1736 1.356 . S
C1729 C1728 1.363 . S
C1729 C1735 1.363 . S
C1730 C1731 1.363 . S
C1730 C1735 1.379 . S
C1730 N1737 1.356 . S
C1731 C1730 1.363 . S
C1731 C1734 1.363 . S
N1732 C1734 1.356 . S
N1732 H1744 0.984 . S
N1732 H1745 0.985 . S
N1733 C1735 1.356 . S
N1733 H1738 0.984 . S
N1733 H1739 0.985 . S
C1734 C1728 1.379 . S
C1734 C1731 1.363 . S
C1734 N1732 1.356 . S
C1735 C1729 1.363 . S
C1735 C1730 1.379 . S
C1735 N1733 1.356 . S
N1736 C1728 1.356 . S
N1736 H1742 0.984 . S
N1736 H1743 0.984 . S
N1737 C1730 1.356 . S
N1737 H1740 0.984 . S
N1737 H1741 0.985 . S
H1738 N1733 0.984 . S
H1739 N1733 0.985 . S
H1740 N1737 0.984 . S
H1741 N1737 0.985 . S
H1742 N1736 0.984 . S
H1743 N1736 0.984 . S
H1744 N1732 0.984 . S
H1745 N1732 0.985 . S
C1746 C1747 1.363 . S
C1746 C1752 1.379 . S
C1746 N1754 1.356 . S
C1747 C1746 1.363 . S
C1747 C1753 1.363 . S
C1748 C1749 1.363 . S
C1748 C1753 1.379 . S
C1748 N1755 1.356 . S
C1749 C1748 1.363 . S
C1749 C1752 1.363 . S
N1750 C1752 1.356 . S
N1750 H1762 0.984 . S
N1750 H1763 0.985 . S
N1751 C1753 1.356 . S
N1751 H1756 0.984 . S
N1751 H1757 0.985 . S
C1752 C1746 1.379 . S
C1752 C1749 1.363 . S
C1752 N1750 1.356 . S
C1753 C1747 1.363 . S
C1753 C1748 1.379 . S
C1753 N1751 1.356 . S
N1754 C1746 1.356 . S
N1754 H1760 0.984 . S
N1754 H1761 0.984 . S
N1755 C1748 1.356 . S
N1755 H1758 0.984 . S
N1755 H1759 0.985 . S
H1756 N1751 0.984 . S
H1757 N1751 0.985 . S
H1758 N1755 0.984 . S
H1759 N1755 0.985 . S
H1760 N1754 0.984 . S
H1761 N1754 0.984 . S
H1762 N1750 0.984 . S
H1763 N1750 0.985 . S
C1764 C1765 1.363 . S
C1764 C1770 1.379 . S
C1764 N1772 1.356 . S
C1765 C1764 1.363 . S
C1765 C1771 1.363 . S
C1766 C1767 1.363 . S
C1766 C1771 1.379 . S
C1766 N1773 1.356 . S
C1767 C1766 1.363 . S
C1767 C1770 1.363 . S
N1768 C1770 1.356 . S
N1768 H1780 0.984 . S
N1768 H1781 0.985 . S
N1769 C1771 1.356 . S
N1769 H1774 0.984 . S
N1769 H1775 0.985 . S
C1770 C1764 1.379 . S
C1770 C1767 1.363 . S
C1770 N1768 1.356 . S
C1771 C1765 1.363 . S
C1771 C1766 1.379 . S
C1771 N1769 1.356 . S
N1772 C1764 1.356 . S
N1772 H1778 0.984 . S
N1772 H1779 0.984 . S
N1773 C1766 1.356 . S
N1773 H1776 0.984 . S
N1773 H1777 0.985 . S
H1774 N1769 0.984 . S
H1775 N1769 0.985 . S
H1776 N1773 0.984 . S
H1777 N1773 0.985 . S
H1778 N1772 0.984 . S
H1779 N1772 0.984 . S
H1780 N1768 0.984 . S
H1781 N1768 0.985 . S
C1782 C1783 1.363 . S
C1782 C1788 1.379 . S
C1782 N1790 1.356 . S
C1783 C1782 1.363 . S
C1783 C1789 1.363 . S
C1784 C1785 1.363 . S
C1784 C1789 1.379 . S
C1784 N1791 1.356 . S
C1785 C1784 1.363 . S
C1785 C1788 1.363 . S
N1786 C1788 1.356 . S
N1786 H1798 0.984 . S
N1786 H1799 0.985 . S
N1787 C1789 1.356 . S
N1787 H1792 0.984 . S
N1787 H1793 0.985 . S
C1788 C1782 1.379 . S
C1788 C1785 1.363 . S
C1788 N1786 1.356 . S
C1789 C1783 1.363 . S
C1789 C1784 1.379 . S
C1789 N1787 1.356 . S
N1790 C1782 1.356 . S
N1790 H1796 0.984 . S
N1790 H1797 0.984 . S
N1791 C1784 1.356 . S
N1791 H1794 0.984 . S
N1791 H1795 0.985 . S
H1792 N1787 0.984 . S
H1793 N1787 0.985 . S
H1794 N1791 0.984 . S
H1795 N1791 0.985 . S
H1796 N1790 0.984 . S
H1797 N1790 0.984 . S
H1798 N1786 0.984 . S
H1799 N1786 0.985 . S
C1800 C1801 1.363 . S
C1800 C1806 1.379 . S
C1800 N1808 1.356 . S
C1801 C1800 1.363 . S
C1801 C1807 1.363 . S
C1802 C1803 1.363 . S
C1802 C1807 1.379 . S
C1802 N1809 1.356 . S
C1803 C1802 1.363 . S
C1803 C1806 1.363 . S
N1804 C1806 1.356 . S
N1804 H1816 0.984 . S
N1804 H1817 0.985 . S
N1805 C1807 1.356 . S
N1805 H1810 0.984 . S
N1805 H1811 0.985 . S
C1806 C1800 1.379 . S
C1806 C1803 1.363 . S
C1806 N1804 1.356 . S
C1807 C1801 1.363 . S
C1807 C1802 1.379 . S
C1807 N1805 1.356 . S
N1808 C1800 1.356 . S
N1808 H1814 0.984 . S
N1808 H1815 0.984 . S
N1809 C1802 1.356 . S
N1809 H1812 0.984 . S
N1809 H1813 0.985 . S
H1810 N1805 0.984 . S
H1811 N1805 0.985 . S
H1812 N1809 0.984 . S
H1813 N1809 0.985 . S
H1814 N1808 0.984 . S
H1815 N1808 0.984 . S
H1816 N1804 0.984 . S
H1817 N1804 0.985 . S
C1818 C1819 1.363 . S
C1818 C1824 1.379 . S
C1818 N1826 1.356 . S
C1819 C1818 1.363 . S
C1819 C1825 1.363 . S
C1820 C1821 1.363 . S
C1820 C1825 1.379 . S
C1820 N1827 1.356 . S
C1821 C1820 1.363 . S
C1821 C1824 1.363 . S
N1822 C1824 1.356 . S
N1822 H1834 0.984 . S
N1822 H1835 0.985 . S
N1823 C1825 1.356 . S
N1823 H1828 0.984 . S
N1823 H1829 0.985 . S
C1824 C1818 1.379 . S
C1824 C1821 1.363 . S
C1824 N1822 1.356 . S
C1825 C1819 1.363 . S
C1825 C1820 1.379 . S
C1825 N1823 1.356 . S
N1826 C1818 1.356 . S
N1826 H1832 0.984 . S
N1826 H1833 0.984 . S
N1827 C1820 1.356 . S
N1827 H1830 0.984 . S
N1827 H1831 0.985 . S
H1828 N1823 0.984 . S
H1829 N1823 0.985 . S
H1830 N1827 0.984 . S
H1831 N1827 0.985 . S
H1832 N1826 0.984 . S
H1833 N1826 0.984 . S
H1834 N1822 0.984 . S
H1835 N1822 0.985 . S
C1836 C1837 1.363 . S
C1836 C1842 1.379 . S
C1836 N1844 1.356 . S
C1837 C1836 1.363 . S
C1837 C1843 1.363 . S
C1838 C1839 1.363 . S
C1838 C1843 1.379 . S
C1838 N1845 1.356 . S
C1839 C1838 1.363 . S
C1839 C1842 1.363 . S
N1840 C1842 1.356 . S
N1840 H1852 0.984 . S
N1840 H1853 0.985 . S
N1841 C1843 1.356 . S
N1841 H1846 0.984 . S
N1841 H1847 0.985 . S
C1842 C1836 1.379 . S
C1842 C1839 1.363 . S
C1842 N1840 1.356 . S
C1843 C1837 1.363 . S
C1843 C1838 1.379 . S
C1843 N1841 1.356 . S
N1844 C1836 1.356 . S
N1844 H1850 0.984 . S
N1844 H1851 0.984 . S
N1845 C1838 1.356 . S
N1845 H1848 0.984 . S
N1845 H1849 0.985 . S
H1846 N1841 0.984 . S
H1847 N1841 0.985 . S
H1848 N1845 0.984 . S
H1849 N1845 0.985 . S
H1850 N1844 0.984 . S
H1851 N1844 0.984 . S
H1852 N1840 0.984 . S
H1853 N1840 0.985 . S
C1854 C1855 1.363 . S
C1854 C1860 1.379 . S
C1854 N1862 1.356 . S
C1855 C1854 1.363 . S
C1855 C1861 1.363 . S
C1856 C1857 1.363 . S
C1856 C1861 1.379 . S
C1856 N1863 1.356 . S
C1857 C1856 1.363 . S
C1857 C1860 1.363 . S
N1858 C1860 1.356 . S
N1858 H1870 0.984 . S
N1858 H1871 0.985 . S
N1859 C1861 1.356 . S
N1859 H1864 0.984 . S
N1859 H1865 0.985 . S
C1860 C1854 1.379 . S
C1860 C1857 1.363 . S
C1860 N1858 1.356 . S
C1861 C1855 1.363 . S
C1861 C1856 1.379 . S
C1861 N1859 1.356 . S
N1862 C1854 1.356 . S
N1862 H1868 0.984 . S
N1862 H1869 0.984 . S
N1863 C1856 1.356 . S
N1863 H1866 0.984 . S
N1863 H1867 0.985 . S
H1864 N1859 0.984 . S
H1865 N1859 0.985 . S
H1866 N1863 0.984 . S
H1867 N1863 0.985 . S
H1868 N1862 0.984 . S
H1869 N1862 0.984 . S
H1870 N1858 0.984 . S
H1871 N1858 0.985 . S
C1872 C1873 1.363 . S
C1872 C1878 1.379 . S
C1872 N1880 1.356 . S
C1873 C1872 1.363 . S
C1873 C1879 1.363 . S
C1874 C1875 1.363 . S
C1874 C1879 1.379 . S
C1874 N1881 1.356 . S
C1875 C1874 1.363 . S
C1875 C1878 1.363 . S
N1876 C1878 1.356 . S
N1876 H1888 0.984 . S
N1876 H1889 0.985 . S
N1877 C1879 1.356 . S
N1877 H1882 0.984 . S
N1877 H1883 0.985 . S
C1878 C1872 1.379 . S
C1878 C1875 1.363 . S
C1878 N1876 1.356 . S
C1879 C1873 1.363 . S
C1879 C1874 1.379 . S
C1879 N1877 1.356 . S
N1880 C1872 1.356 . S
N1880 H1886 0.984 . S
N1880 H1887 0.984 . S
N1881 C1874 1.356 . S
N1881 H1884 0.984 . S
N1881 H1885 0.985 . S
H1882 N1877 0.984 . S
H1883 N1877 0.985 . S
H1884 N1881 0.984 . S
H1885 N1881 0.985 . S
H1886 N1880 0.984 . S
H1887 N1880 0.984 . S
H1888 N1876 0.984 . S
H1889 N1876 0.985 . S
C1890 C1891 1.363 . S
C1890 C1896 1.379 . S
C1890 N1898 1.356 . S
C1891 C1890 1.363 . S
C1891 C1897 1.363 . S
C1892 C1893 1.363 . S
C1892 C1897 1.379 . S
C1892 N1899 1.356 . S
C1893 C1892 1.363 . S
C1893 C1896 1.363 . S
N1894 C1896 1.356 . S
N1894 H1906 0.984 . S
N1894 H1907 0.985 . S
N1895 C1897 1.356 . S
N1895 H1900 0.984 . S
N1895 H1901 0.985 . S
C1896 C1890 1.379 . S
C1896 C1893 1.363 . S
C1896 N1894 1.356 . S
C1897 C1891 1.363 . S
C1897 C1892 1.379 . S
C1897 N1895 1.356 . S
N1898 C1890 1.356 . S
N1898 H1904 0.984 . S
N1898 H1905 0.984 . S
N1899 C1892 1.356 . S
N1899 H1902 0.984 . S
N1899 H1903 0.985 . S
H1900 N1895 0.984 . S
H1901 N1895 0.985 . S
H1902 N1899 0.984 . S
H1903 N1899 0.985 . S
H1904 N1898 0.984 . S
H1905 N1898 0.984 . S
H1906 N1894 0.984 . S
H1907 N1894 0.985 . S
C1908 C1909 1.363 . S
C1908 C1914 1.379 . S
C1908 N1916 1.356 . S
C1909 C1908 1.363 . S
C1909 C1915 1.363 . S
C1910 C1911 1.363 . S
C1910 C1915 1.379 . S
C1910 N1917 1.356 . S
C1911 C1910 1.363 . S
C1911 C1914 1.363 . S
N1912 C1914 1.356 . S
N1912 H1924 0.984 . S
N1912 H1925 0.985 . S
N1913 C1915 1.356 . S
N1913 H1918 0.984 . S
N1913 H1919 0.985 . S
C1914 C1908 1.379 . S
C1914 C1911 1.363 . S
C1914 N1912 1.356 . S
C1915 C1909 1.363 . S
C1915 C1910 1.379 . S
C1915 N1913 1.356 . S
N1916 C1908 1.356 . S
N1916 H1922 0.984 . S
N1916 H1923 0.984 . S
N1917 C1910 1.356 . S
N1917 H1920 0.984 . S
N1917 H1921 0.985 . S
H1918 N1913 0.984 . S
H1919 N1913 0.985 . S
H1920 N1917 0.984 . S
H1921 N1917 0.985 . S
H1922 N1916 0.984 . S
H1923 N1916 0.984 . S
H1924 N1912 0.984 . S
H1925 N1912 0.985 . S
C1926 C1927 1.363 . S
C1926 C1932 1.379 . S
C1926 N1934 1.356 . S
C1927 C1926 1.363 . S
C1927 C1933 1.363 . S
C1928 C1929 1.363 . S
C1928 C1933 1.379 . S
C1928 N1935 1.356 . S
C1929 C1928 1.363 . S
C1929 C1932 1.363 . S
N1930 C1932 1.356 . S
N1930 H1942 0.984 . S
N1930 H1943 0.985 . S
N1931 C1933 1.356 . S
N1931 H1936 0.984 . S
N1931 H1937 0.985 . S
C1932 C1926 1.379 . S
C1932 C1929 1.363 . S
C1932 N1930 1.356 . S
C1933 C1927 1.363 . S
C1933 C1928 1.379 . S
C1933 N1931 1.356 . S
N1934 C1926 1.356 . S
N1934 H1940 0.984 . S
N1934 H1941 0.984 . S
N1935 C1928 1.356 . S
N1935 H1938 0.984 . S
N1935 H1939 0.985 . S
H1936 N1931 0.984 . S
H1937 N1931 0.985 . S
H1938 N1935 0.984 . S
H1939 N1935 0.985 . S
H1940 N1934 0.984 . S
H1941 N1934 0.984 . S
H1942 N1930 0.984 . S
H1943 N1930 0.985 . S
C1944 C1945 1.363 . S
C1944 C1950 1.379 . S
C1944 N1952 1.356 . S
C1945 C1944 1.363 . S
C1945 C1951 1.363 . S
C1946 C1947 1.363 . S
C1946 C1951 1.379 . S
C1946 N1953 1.356 . S
C1947 C1946 1.363 . S
C1947 C1950 1.363 . S
N1948 C1950 1.356 . S
N1948 H1960 0.984 . S
N1948 H1961 0.985 . S
N1949 C1951 1.356 . S
N1949 H1954 0.984 . S
N1949 H1955 0.985 . S
C1950 C1944 1.379 . S
C1950 C1947 1.363 . S
C1950 N1948 1.356 . S
C1951 C1945 1.363 . S
C1951 C1946 1.379 . S
C1951 N1949 1.356 . S
N1952 C1944 1.356 . S
N1952 H1958 0.984 . S
N1952 H1959 0.984 . S
N1953 C1946 1.356 . S
N1953 H1956 0.984 . S
N1953 H1957 0.985 . S
H1954 N1949 0.984 . S
H1955 N1949 0.985 . S
H1956 N1953 0.984 . S
H1957 N1953 0.985 . S
H1958 N1952 0.984 . S
H1959 N1952 0.984 . S
H1960 N1948 0.984 . S
H1961 N1948 0.985 . S
C1962 C1963 1.363 . S
C1962 C1968 1.379 . S
C1962 N1970 1.356 . S
C1963 C1962 1.363 . S
C1963 C1969 1.363 . S
C1964 C1965 1.363 . S
C1964 C1969 1.379 . S
C1964 N1971 1.356 . S
C1965 C1964 1.363 . S
C1965 C1968 1.363 . S
N1966 C1968 1.356 . S
N1966 H1978 0.984 . S
N1966 H1979 0.985 . S
N1967 C1969 1.356 . S
N1967 H1972 0.984 . S
N1967 H1973 0.985 . S
C1968 C1962 1.379 . S
C1968 C1965 1.363 . S
C1968 N1966 1.356 . S
C1969 C1963 1.363 . S
C1969 C1964 1.379 . S
C1969 N1967 1.356 . S
N1970 C1962 1.356 . S
N1970 H1976 0.984 . S
N1970 H1977 0.984 . S
N1971 C1964 1.356 . S
N1971 H1974 0.984 . S
N1971 H1975 0.985 . S
H1972 N1967 0.984 . S
H1973 N1967 0.985 . S
H1974 N1971 0.984 . S
H1975 N1971 0.985 . S
H1976 N1970 0.984 . S
H1977 N1970 0.984 . S
H1978 N1966 0.984 . S
H1979 N1966 0.985 . S
C1980 C1981 1.363 . S
C1980 C1986 1.379 . S
C1980 N1988 1.356 . S
C1981 C1980 1.363 . S
C1981 C1987 1.363 . S
C1982 C1983 1.363 . S
C1982 C1987 1.379 . S
C1982 N1989 1.356 . S
C1983 C1982 1.363 . S
C1983 C1986 1.363 . S
N1984 C1986 1.356 . S
N1984 H1996 0.984 . S
N1984 H1997 0.985 . S
N1985 C1987 1.356 . S
N1985 H1990 0.984 . S
N1985 H1991 0.985 . S
C1986 C1980 1.379 . S
C1986 C1983 1.363 . S
C1986 N1984 1.356 . S
C1987 C1981 1.363 . S
C1987 C1982 1.379 . S
C1987 N1985 1.356 . S
N1988 C1980 1.356 . S
N1988 H1994 0.984 . S
N1988 H1995 0.984 . S
N1989 C1982 1.356 . S
N1989 H1992 0.984 . S
N1989 H1993 0.985 . S
H1990 N1985 0.984 . S
H1991 N1985 0.985 . S
H1992 N1989 0.984 . S
H1993 N1989 0.985 . S
H1994 N1988 0.984 . S
H1995 N1988 0.984 . S
H1996 N1984 0.984 . S
H1997 N1984 0.985 . S
C1998 C1999 1.363 . S
C1998 C2004 1.379 . S
C1998 N2006 1.356 . S
C1999 C1998 1.363 . S
C1999 C2005 1.363 . S
C2000 C2001 1.363 . S
C2000 C2005 1.379 . S
C2000 N2007 1.356 . S
C2001 C2000 1.363 . S
C2001 C2004 1.363 . S
N2002 C2004 1.356 . S
N2002 H2014 0.984 . S
N2002 H2015 0.985 . S
N2003 C2005 1.356 . S
N2003 H2008 0.984 . S
N2003 H2009 0.985 . S
C2004 C1998 1.379 . S
C2004 C2001 1.363 . S
C2004 N2002 1.356 . S
C2005 C1999 1.363 . S
C2005 C2000 1.379 . S
C2005 N2003 1.356 . S
N2006 C1998 1.356 . S
N2006 H2012 0.984 . S
N2006 H2013 0.984 . S
N2007 C2000 1.356 . S
N2007 H2010 0.984 . S
N2007 H2011 0.985 . S
H2008 N2003 0.984 . S
H2009 N2003 0.985 . S
H2010 N2007 0.984 . S
H2011 N2007 0.985 . S
H2012 N2006 0.984 . S
H2013 N2006 0.984 . S
H2014 N2002 0.984 . S
H2015 N2002 0.985 . S
C2016 C2017 1.363 . S
C2016 C2022 1.379 . S
C2016 N2024 1.356 . S
C2017 C2016 1.363 . S
C2017 C2023 1.363 . S
C2018 C2019 1.363 . S
C2018 C2023 1.379 . S
C2018 N2025 1.356 . S
C2019 C2018 1.363 . S
C2019 C2022 1.363 . S
N2020 C2022 1.356 . S
N2020 H2032 0.984 . S
N2020 H2033 0.985 . S
N2021 C2023 1.356 . S
N2021 H2026 0.984 . S
N2021 H2027 0.985 . S
C2022 C2016 1.379 . S
C2022 C2019 1.363 . S
C2022 N2020 1.356 . S
C2023 C2017 1.363 . S
C2023 C2018 1.379 . S
C2023 N2021 1.356 . S
N2024 C2016 1.356 . S
N2024 H2030 0.984 . S
N2024 H2031 0.984 . S
N2025 C2018 1.356 . S
N2025 H2028 0.984 . S
N2025 H2029 0.985 . S
H2026 N2021 0.984 . S
H2027 N2021 0.985 . S
H2028 N2025 0.984 . S
H2029 N2025 0.985 . S
H2030 N2024 0.984 . S
H2031 N2024 0.984 . S
H2032 N2020 0.984 . S
H2033 N2020 0.985 . S
C2034 C2035 1.363 . S
C2034 C2040 1.379 . S
C2034 N2042 1.356 . S
C2035 C2034 1.363 . S
C2035 C2041 1.363 . S
C2036 C2037 1.363 . S
C2036 C2041 1.379 . S
C2036 N2043 1.356 . S
C2037 C2036 1.363 . S
C2037 C2040 1.363 . S
N2038 C2040 1.356 . S
N2038 H2050 0.984 . S
N2038 H2051 0.985 . S
N2039 C2041 1.356 . S
N2039 H2044 0.984 . S
N2039 H2045 0.985 . S
C2040 C2034 1.379 . S
C2040 C2037 1.363 . S
C2040 N2038 1.356 . S
C2041 C2035 1.363 . S
C2041 C2036 1.379 . S
C2041 N2039 1.356 . S
N2042 C2034 1.356 . S
N2042 H2048 0.984 . S
N2042 H2049 0.984 . S
N2043 C2036 1.356 . S
N2043 H2046 0.984 . S
N2043 H2047 0.985 . S
H2044 N2039 0.984 . S
H2045 N2039 0.985 . S
H2046 N2043 0.984 . S
H2047 N2043 0.985 . S
H2048 N2042 0.984 . S
H2049 N2042 0.984 . S
H2050 N2038 0.984 . S
H2051 N2038 0.985 . S
C2052 C2053 1.363 . S
C2052 C2058 1.379 . S
C2052 N2060 1.356 . S
C2053 C2052 1.363 . S
C2053 C2059 1.363 . S
C2054 C2055 1.363 . S
C2054 C2059 1.379 . S
C2054 N2061 1.356 . S
C2055 C2054 1.363 . S
C2055 C2058 1.363 . S
N2056 C2058 1.356 . S
N2056 H2068 0.984 . S
N2056 H2069 0.985 . S
N2057 C2059 1.356 . S
N2057 H2062 0.984 . S
N2057 H2063 0.985 . S
C2058 C2052 1.379 . S
C2058 C2055 1.363 . S
C2058 N2056 1.356 . S
C2059 C2053 1.363 . S
C2059 C2054 1.379 . S
C2059 N2057 1.356 . S
N2060 C2052 1.356 . S
N2060 H2066 0.984 . S
N2060 H2067 0.984 . S
N2061 C2054 1.356 . S
N2061 H2064 0.984 . S
N2061 H2065 0.985 . S
H2062 N2057 0.984 . S
H2063 N2057 0.985 . S
H2064 N2061 0.984 . S
H2065 N2061 0.985 . S
H2066 N2060 0.984 . S
H2067 N2060 0.984 . S
H2068 N2056 0.984 . S
H2069 N2056 0.985 . S
C2070 C2071 1.363 . S
C2070 C2076 1.379 . S
C2070 N2078 1.356 . S
C2071 C2070 1.363 . S
C2071 C2077 1.363 . S
C2072 C2073 1.363 . S
C2072 C2077 1.379 . S
C2072 N2079 1.356 . S
C2073 C2072 1.363 . S
C2073 C2076 1.363 . S
N2074 C2076 1.356 . S
N2074 H2086 0.984 . S
N2074 H2087 0.985 . S
N2075 C2077 1.356 1_554 S
N2075 H2080 0.984 . S
N2075 H2081 0.985 . S
C2076 C2070 1.379 . S
C2076 C2073 1.363 . S
C2076 N2074 1.356 . S
C2077 C2071 1.363 . S
C2077 C2072 1.379 . S
C2077 N2075 1.356 1_556 S
N2078 C2070 1.356 . S
N2078 H2084 0.984 . S
N2078 H2085 0.984 . S
N2079 C2072 1.356 . S
N2079 H2082 0.984 . S
N2079 H2083 0.985 . S
H2080 N2075 0.984 . S
H2081 N2075 0.985 . S
H2082 N2079 0.984 . S
H2083 N2079 0.985 . S
H2084 N2078 0.984 . S
H2085 N2078 0.984 . S
H2086 N2074 0.984 . S
H2087 N2074 0.985 . S
C2088 C2089 1.363 . S
C2088 C2094 1.379 . S
C2088 N2096 1.356 . S
C2089 C2088 1.363 . S
C2089 C2095 1.363 . S
C2090 C2091 1.363 . S
C2090 C2095 1.379 . S
C2090 N2097 1.356 . S
C2091 C2090 1.363 . S
C2091 C2094 1.363 . S
N2092 C2094 1.356 . S
N2092 H2104 0.984 . S
N2092 H2105 0.985 . S
N2093 C2095 1.356 . S
N2093 H2098 0.984 . S
N2093 H2099 0.985 . S
C2094 C2088 1.379 . S
C2094 C2091 1.363 . S
C2094 N2092 1.356 . S
C2095 C2089 1.363 . S
C2095 C2090 1.379 . S
C2095 N2093 1.356 . S
N2096 C2088 1.356 . S
N2096 H2102 0.984 . S
N2096 H2103 0.984 . S
N2097 C2090 1.356 . S
N2097 H2100 0.984 . S
N2097 H2101 0.985 . S
H2098 N2093 0.984 . S
H2099 N2093 0.985 . S
H2100 N2097 0.984 . S
H2101 N2097 0.985 . S
H2102 N2096 0.984 . S
H2103 N2096 0.984 . S
H2104 N2092 0.984 . S
H2105 N2092 0.985 . S
C2106 C2107 1.363 . S
C2106 C2112 1.379 . S
C2106 N2114 1.356 . S
C2107 C2106 1.363 . S
C2107 C2113 1.363 . S
C2108 C2109 1.363 . S
C2108 C2113 1.379 . S
C2108 N2115 1.356 . S
C2109 C2108 1.363 . S
C2109 C2112 1.363 . S
N2110 C2112 1.356 . S
N2110 H2122 0.984 . S
N2110 H2123 0.985 . S
N2111 C2113 1.356 . S
N2111 H2116 0.984 . S
N2111 H2117 0.985 . S
C2112 C2106 1.379 . S
C2112 C2109 1.363 . S
C2112 N2110 1.356 . S
C2113 C2107 1.363 . S
C2113 C2108 1.379 . S
C2113 N2111 1.356 . S
N2114 C2106 1.356 . S
N2114 H2120 0.984 . S
N2114 H2121 0.984 . S
N2115 C2108 1.356 . S
N2115 H2118 0.984 . S
N2115 H2119 0.985 . S
H2116 N2111 0.984 . S
H2117 N2111 0.985 . S
H2118 N2115 0.984 . S
H2119 N2115 0.985 . S
H2120 N2114 0.984 . S
H2121 N2114 0.984 . S
H2122 N2110 0.984 . S
H2123 N2110 0.985 . S
C2124 C2125 1.363 . S
C2124 C2130 1.379 . S
C2124 N2132 1.356 . S
C2125 C2124 1.363 . S
C2125 C2131 1.363 . S
C2126 C2127 1.363 . S
C2126 C2131 1.379 . S
C2126 N2133 1.356 . S
C2127 C2126 1.363 . S
C2127 C2130 1.363 . S
N2128 C2130 1.356 . S
N2128 H2140 0.984 . S
N2128 H2141 0.985 . S
N2129 C2131 1.356 1_554 S
N2129 H2134 0.984 . S
N2129 H2135 0.985 . S
C2130 C2124 1.379 . S
C2130 C2127 1.363 . S
C2130 N2128 1.356 . S
C2131 C2125 1.363 . S
C2131 C2126 1.379 . S
C2131 N2129 1.356 1_556 S
N2132 C2124 1.356 . S
N2132 H2138 0.984 . S
N2132 H2139 0.984 . S
N2133 C2126 1.356 . S
N2133 H2136 0.984 . S
N2133 H2137 0.985 1_556 S
H2134 N2129 0.984 . S
H2135 N2129 0.985 . S
H2136 N2133 0.984 . S
H2137 N2133 0.985 1_554 S
H2138 N2132 0.984 . S
H2139 N2132 0.984 . S
H2140 N2128 0.984 . S
H2141 N2128 0.985 . S
C2142 C2143 1.363 . S
C2142 C2148 1.379 . S
C2142 N2150 1.356 1_556 S
C2143 C2142 1.363 . S
C2143 C2149 1.363 . S
C2144 C2145 1.363 . S
C2144 C2149 1.379 . S
C2144 N2151 1.356 . S
C2145 C2144 1.363 . S
C2145 C2148 1.363 . S
N2146 C2148 1.356 . S
N2146 H2158 0.984 1_556 S
N2146 H2159 0.985 . S
N2147 C2149 1.356 . S
N2147 H2152 0.984 . S
N2147 H2153 0.985 . S
C2148 C2142 1.379 . S
C2148 C2145 1.363 . S
C2148 N2146 1.356 . S
C2149 C2143 1.363 . S
C2149 C2144 1.379 . S
C2149 N2147 1.356 . S
N2150 C2142 1.356 1_554 S
N2150 H2156 0.984 . S
N2150 H2157 0.984 . S
N2151 C2144 1.356 . S
N2151 H2154 0.984 . S
N2151 H2155 0.985 . S
H2152 N2147 0.984 . S
H2153 N2147 0.985 . S
H2154 N2151 0.984 . S
H2155 N2151 0.985 . S
H2156 N2150 0.984 . S
H2157 N2150 0.984 . S
H2158 N2146 0.984 1_554 S
H2159 N2146 0.985 . S
C2160 C2161 1.363 . S
C2160 C2166 1.379 . S
C2160 N2168 1.356 1_556 S
C2161 C2160 1.363 . S
C2161 C2167 1.363 . S
C2162 C2163 1.363 . S
C2162 C2167 1.379 . S
C2162 N2169 1.356 . S
C2163 C2162 1.363 . S
C2163 C2166 1.363 . S
N2164 C2166 1.356 . S
N2164 H2176 0.984 . S
N2164 H2177 0.985 . S
N2165 C2167 1.356 . S
N2165 H2170 0.984 . S
N2165 H2171 0.985 . S
C2166 C2160 1.379 . S
C2166 C2163 1.363 . S
C2166 N2164 1.356 . S
C2167 C2161 1.363 . S
C2167 C2162 1.379 . S
C2167 N2165 1.356 . S
N2168 C2160 1.356 1_554 S
N2168 H2174 0.984 . S
N2168 H2175 0.984 . S
N2169 C2162 1.356 . S
N2169 H2172 0.984 . S
N2169 H2173 0.985 . S
H2170 N2165 0.984 . S
H2171 N2165 0.985 . S
H2172 N2169 0.984 . S
H2173 N2169 0.985 . S
H2174 N2168 0.984 . S
H2175 N2168 0.984 . S
H2176 N2164 0.984 . S
H2177 N2164 0.985 . S
C2178 C2179 1.363 . S
C2178 C2184 1.379 . S
C2178 N2186 1.356 . S
C2179 C2178 1.363 . S
C2179 C2185 1.363 . S
C2180 C2181 1.363 . S
C2180 C2185 1.379 . S
C2180 N2187 1.356 . S
C2181 C2180 1.363 . S
C2181 C2184 1.363 . S
N2182 C2184 1.356 . S
N2182 H2194 0.984 . S
N2182 H2195 0.985 . S
N2183 C2185 1.356 . S
N2183 H2188 0.984 . S
N2183 H2189 0.985 . S
C2184 C2178 1.379 . S
C2184 C2181 1.363 . S
C2184 N2182 1.356 . S
C2185 C2179 1.363 . S
C2185 C2180 1.379 . S
C2185 N2183 1.356 . S
N2186 C2178 1.356 . S
N2186 H2192 0.984 . S
N2186 H2193 0.984 . S
N2187 C2180 1.356 . S
N2187 H2190 0.984 . S
N2187 H2191 0.985 . S
H2188 N2183 0.984 . S
H2189 N2183 0.985 . S
H2190 N2187 0.984 . S
H2191 N2187 0.985 . S
H2192 N2186 0.984 . S
H2193 N2186 0.984 . S
H2194 N2182 0.984 . S
H2195 N2182 0.985 . S
C2196 C2197 1.363 . S
C2196 C2202 1.379 . S
C2196 N2204 1.356 . S
C2197 C2196 1.363 . S
C2197 C2203 1.363 . S
C2198 C2199 1.363 . S
C2198 C2203 1.379 . S
C2198 N2205 1.356 . S
C2199 C2198 1.363 . S
C2199 C2202 1.363 . S
N2200 C2202 1.356 . S
N2200 H2212 0.984 . S
N2200 H2213 0.985 . S
N2201 C2203 1.356 . S
N2201 H2206 0.984 . S
N2201 H2207 0.985 . S
C2202 C2196 1.379 . S
C2202 C2199 1.363 . S
C2202 N2200 1.356 . S
C2203 C2197 1.363 . S
C2203 C2198 1.379 . S
C2203 N2201 1.356 . S
N2204 C2196 1.356 . S
N2204 H2210 0.984 . S
N2204 H2211 0.984 . S
N2205 C2198 1.356 . S
N2205 H2208 0.984 . S
N2205 H2209 0.985 . S
H2206 N2201 0.984 . S
H2207 N2201 0.985 . S
H2208 N2205 0.984 . S
H2209 N2205 0.985 . S
H2210 N2204 0.984 . S
H2211 N2204 0.984 . S
H2212 N2200 0.984 . S
H2213 N2200 0.985 . S
C2214 C2215 1.363 . S
C2214 C2220 1.379 . S
C2214 N2222 1.356 . S
C2215 C2214 1.363 . S
C2215 C2221 1.363 . S
C2216 C2217 1.363 . S
C2216 C2221 1.379 . S
C2216 N2223 1.356 . S
C2217 C2216 1.363 . S
C2217 C2220 1.363 . S
N2218 C2220 1.356 . S
N2218 H2230 0.984 . S
N2218 H2231 0.985 . S
N2219 C2221 1.356 . S
N2219 H2224 0.984 . S
N2219 H2225 0.985 . S
C2220 C2214 1.379 . S
C2220 C2217 1.363 . S
C2220 N2218 1.356 . S
C2221 C2215 1.363 . S
C2221 C2216 1.379 . S
C2221 N2219 1.356 . S
N2222 C2214 1.356 . S
N2222 H2228 0.984 . S
N2222 H2229 0.984 . S
N2223 C2216 1.356 . S
N2223 H2226 0.984 . S
N2223 H2227 0.985 . S
H2224 N2219 0.984 . S
H2225 N2219 0.985 . S
H2226 N2223 0.984 . S
H2227 N2223 0.985 . S
H2228 N2222 0.984 . S
H2229 N2222 0.984 . S
H2230 N2218 0.984 . S
H2231 N2218 0.985 . S
C2232 C2233 1.363 . S
C2232 C2238 1.379 . S
C2232 N2240 1.356 . S
C2233 C2232 1.363 . S
C2233 C2239 1.363 . S
C2234 C2235 1.363 . S
C2234 C2239 1.379 . S
C2234 N2241 1.356 . S
C2235 C2234 1.363 . S
C2235 C2238 1.363 . S
N2236 C2238 1.356 . S
N2236 H2248 0.984 . S
N2236 H2249 0.985 . S
N2237 C2239 1.356 . S
N2237 H2242 0.984 . S
N2237 H2243 0.985 . S
C2238 C2232 1.379 . S
C2238 C2235 1.363 . S
C2238 N2236 1.356 . S
C2239 C2233 1.363 . S
C2239 C2234 1.379 . S
C2239 N2237 1.356 . S
N2240 C2232 1.356 . S
N2240 H2246 0.984 . S
N2240 H2247 0.984 . S
N2241 C2234 1.356 . S
N2241 H2244 0.984 . S
N2241 H2245 0.985 . S
H2242 N2237 0.984 . S
H2243 N2237 0.985 . S
H2244 N2241 0.984 . S
H2245 N2241 0.985 . S
H2246 N2240 0.984 . S
H2247 N2240 0.984 . S
H2248 N2236 0.984 . S
H2249 N2236 0.985 . S
C2250 C2251 1.363 . S
C2250 C2256 1.379 . S
C2250 N2258 1.356 . S
C2251 C2250 1.363 . S
C2251 C2257 1.363 . S
C2252 C2253 1.363 . S
C2252 C2257 1.379 . S
C2252 N2259 1.356 . S
C2253 C2252 1.363 . S
C2253 C2256 1.363 . S
N2254 C2256 1.356 . S
N2254 H2266 0.984 . S
N2254 H2267 0.985 . S
N2255 C2257 1.356 . S
N2255 H2260 0.984 . S
N2255 H2261 0.985 . S
C2256 C2250 1.379 . S
C2256 C2253 1.363 . S
C2256 N2254 1.356 . S
C2257 C2251 1.363 . S
C2257 C2252 1.379 . S
C2257 N2255 1.356 . S
N2258 C2250 1.356 . S
N2258 H2264 0.984 . S
N2258 H2265 0.984 . S
N2259 C2252 1.356 . S
N2259 H2262 0.984 . S
N2259 H2263 0.985 . S
H2260 N2255 0.984 . S
H2261 N2255 0.985 . S
H2262 N2259 0.984 . S
H2263 N2259 0.985 . S
H2264 N2258 0.984 . S
H2265 N2258 0.984 . S
H2266 N2254 0.984 . S
H2267 N2254 0.985 . S
C2268 C2269 1.363 . S
C2268 C2274 1.379 . S
C2268 N2276 1.356 . S
C2269 C2268 1.363 . S
C2269 C2275 1.363 . S
C2270 C2271 1.363 . S
C2270 C2275 1.379 . S
C2270 N2277 1.356 . S
C2271 C2270 1.363 . S
C2271 C2274 1.363 . S
N2272 C2274 1.356 . S
N2272 H2284 0.984 . S
N2272 H2285 0.985 . S
N2273 C2275 1.356 . S
N2273 H2278 0.984 1_655 S
N2273 H2279 0.985 . S
C2274 C2268 1.379 . S
C2274 C2271 1.363 . S
C2274 N2272 1.356 . S
C2275 C2269 1.363 . S
C2275 C2270 1.379 . S
C2275 N2273 1.356 . S
N2276 C2268 1.356 . S
N2276 H2282 0.984 . S
N2276 H2283 0.984 . S
N2277 C2270 1.356 . S
N2277 H2280 0.984 . S
N2277 H2281 0.985 . S
H2278 N2273 0.984 1_455 S
H2279 N2273 0.985 . S
H2280 N2277 0.984 . S
H2281 N2277 0.985 . S
H2282 N2276 0.984 . S
H2283 N2276 0.984 . S
H2284 N2272 0.984 . S
H2285 N2272 0.985 . S
C2286 C2287 1.363 . S
C2286 C2292 1.379 . S
C2286 N2294 1.356 . S
C2287 C2286 1.363 . S
C2287 C2293 1.363 . S
C2288 C2289 1.363 . S
C2288 C2293 1.379 . S
C2288 N2295 1.356 . S
C2289 C2288 1.363 . S
C2289 C2292 1.363 . S
N2290 C2292 1.356 . S
N2290 H2302 0.984 1_455 S
N2290 H2303 0.985 . S
N2291 C2293 1.356 . S
N2291 H2296 0.984 . S
N2291 H2297 0.985 . S
C2292 C2286 1.379 . S
C2292 C2289 1.363 . S
C2292 N2290 1.356 . S
C2293 C2287 1.363 . S
C2293 C2288 1.379 . S
C2293 N2291 1.356 . S
N2294 C2286 1.356 . S
N2294 H2300 0.984 . S
N2294 H2301 0.984 . S
N2295 C2288 1.356 . S
N2295 H2298 0.984 . S
N2295 H2299 0.985 . S
H2296 N2291 0.984 . S
H2297 N2291 0.985 . S
H2298 N2295 0.984 . S
H2299 N2295 0.985 . S
H2300 N2294 0.984 . S
H2301 N2294 0.984 . S
H2302 N2290 0.984 1_655 S
H2303 N2290 0.985 . S
C2304 C2305 1.363 . S
C2304 C2310 1.379 . S
C2304 N2312 1.356 . S
C2305 C2304 1.363 . S
C2305 C2311 1.363 . S
C2306 C2307 1.363 . S
C2306 C2311 1.379 . S
C2306 N2313 1.356 . S
C2307 C2306 1.363 . S
C2307 C2310 1.363 . S
N2308 C2310 1.356 . S
N2308 H2320 0.984 . S
N2308 H2321 0.985 . S
N2309 C2311 1.356 . S
N2309 H2314 0.984 . S
N2309 H2315 0.985 . S
C2310 C2304 1.379 . S
C2310 C2307 1.363 . S
C2310 N2308 1.356 . S
C2311 C2305 1.363 . S
C2311 C2306 1.379 . S
C2311 N2309 1.356 . S
N2312 C2304 1.356 . S
N2312 H2318 0.984 . S
N2312 H2319 0.984 . S
N2313 C2306 1.356 . S
N2313 H2316 0.984 . S
N2313 H2317 0.985 . S
H2314 N2309 0.984 . S
H2315 N2309 0.985 . S
H2316 N2313 0.984 . S
H2317 N2313 0.985 . S
H2318 N2312 0.984 . S
H2319 N2312 0.984 . S
H2320 N2308 0.984 . S
H2321 N2308 0.985 . S
C2322 C2323 1.363 . S
C2322 C2328 1.379 . S
C2322 N2330 1.356 . S
C2323 C2322 1.363 . S
C2323 C2329 1.363 . S
C2324 C2325 1.363 . S
C2324 C2329 1.379 . S
C2324 N2331 1.356 . S
C2325 C2324 1.363 . S
C2325 C2328 1.363 . S
N2326 C2328 1.356 . S
N2326 H2338 0.984 . S
N2326 H2339 0.985 . S
N2327 C2329 1.356 . S
N2327 H2332 0.984 . S
N2327 H2333 0.985 . S
C2328 C2322 1.379 . S
C2328 C2325 1.363 . S
C2328 N2326 1.356 . S
C2329 C2323 1.363 . S
C2329 C2324 1.379 . S
C2329 N2327 1.356 . S
N2330 C2322 1.356 . S
N2330 H2336 0.984 . S
N2330 H2337 0.984 . S
N2331 C2324 1.356 . S
N2331 H2334 0.984 . S
N2331 H2335 0.985 . S
H2332 N2327 0.984 . S
H2333 N2327 0.985 . S
H2334 N2331 0.984 . S
H2335 N2331 0.985 . S
H2336 N2330 0.984 . S
H2337 N2330 0.984 . S
H2338 N2326 0.984 . S
H2339 N2326 0.985 . S
C2340 C2341 1.363 . S
C2340 C2346 1.379 . S
C2340 N2348 1.356 . S
C2341 C2340 1.363 . S
C2341 C2347 1.363 . S
C2342 C2343 1.363 . S
C2342 C2347 1.379 . S
C2342 N2349 1.356 1_565 S
C2343 C2342 1.363 . S
C2343 C2346 1.363 . S
N2344 C2346 1.356 . S
N2344 H2356 0.984 . S
N2344 H2357 0.985 . S
N2345 C2347 1.355 . S
N2345 H2350 1.010 . S
N2345 H2351 0.962 1_565 S
C2346 C2340 1.379 . S
C2346 C2343 1.363 . S
C2346 N2344 1.356 . S
C2347 C2341 1.363 . S
C2347 C2342 1.379 . S
C2347 N2345 1.355 . S
N2348 C2340 1.356 . S
N2348 H2354 0.984 . S
N2348 H2355 0.984 . S
N2349 C2342 1.356 1_545 S
N2349 H2352 0.984 . S
N2349 H2353 0.985 . S
H2350 N2345 1.010 . S
H2351 N2345 0.962 1_545 S
H2352 N2349 0.984 . S
H2353 N2349 0.985 . S
H2354 N2348 0.984 . S
H2355 N2348 0.984 . S
H2356 N2344 0.984 . S
H2357 N2344 0.985 . S
C2358 C2359 1.363 . S
C2358 C2364 1.379 . S
C2358 N2366 1.356 . S
C2359 C2358 1.363 . S
C2359 C2365 1.363 . S
C2360 C2361 1.363 . S
C2360 C2365 1.379 . S
C2360 N2367 1.356 . S
C2361 C2360 1.363 . S
C2361 C2364 1.363 . S
N2362 C2364 1.356 . S
N2362 H2374 0.984 1_455 S
N2362 H2375 0.985 . S
N2363 C2365 1.356 . S
N2363 H2368 0.984 . S
N2363 H2369 0.985 . S
C2364 C2358 1.379 . S
C2364 C2361 1.363 . S
C2364 N2362 1.356 . S
C2365 C2359 1.363 . S
C2365 C2360 1.379 . S
C2365 N2363 1.356 . S
N2366 C2358 1.356 . S
N2366 H2372 0.984 . S
N2366 H2373 0.984 . S
N2367 C2360 1.356 . S
N2367 H2370 0.984 . S
N2367 H2371 0.985 . S
H2368 N2363 0.984 . S
H2369 N2363 0.985 . S
H2370 N2367 0.984 . S
H2371 N2367 0.985 . S
H2372 N2366 0.984 . S
H2373 N2366 0.984 . S
H2374 N2362 0.984 1_655 S
H2375 N2362 0.985 . S
C2376 C2377 1.363 . S
C2376 C2382 1.379 . S
C2376 N2384 1.356 . S
C2377 C2376 1.363 . S
C2377 C2383 1.363 . S
C2378 C2379 1.363 . S
C2378 C2383 1.379 . S
C2378 N2385 1.356 . S
C2379 C2378 1.363 . S
C2379 C2382 1.363 . S
N2380 C2382 1.356 . S
N2380 H2392 0.984 . S
N2380 H2393 0.985 . S
N2381 C2383 1.356 . S
N2381 H2386 0.984 . S
N2381 H2387 0.985 . S
C2382 C2376 1.379 . S
C2382 C2379 1.363 . S
C2382 N2380 1.356 . S
C2383 C2377 1.363 . S
C2383 C2378 1.379 . S
C2383 N2381 1.356 . S
N2384 C2376 1.356 . S
N2384 H2390 0.984 . S
N2384 H2391 0.984 . S
N2385 C2378 1.356 . S
N2385 H2388 0.984 . S
N2385 H2389 0.985 . S
H2386 N2381 0.984 . S
H2387 N2381 0.985 . S
H2388 N2385 0.984 . S
H2389 N2385 0.985 . S
H2390 N2384 0.984 . S
H2391 N2384 0.984 . S
H2392 N2380 0.984 . S
H2393 N2380 0.985 . S
C2394 C2395 1.363 . S
C2394 C2400 1.379 . S
C2394 N2402 1.356 . S
C2395 C2394 1.363 . S
C2395 C2401 1.363 . S
C2396 C2397 1.363 . S
C2396 C2401 1.379 . S
C2396 N2403 1.356 . S
C2397 C2396 1.363 . S
C2397 C2400 1.363 . S
N2398 C2400 1.356 . S
N2398 H2410 0.984 . S
N2398 H2411 0.985 . S
N2399 C2401 1.356 . S
N2399 H2404 0.984 . S
N2399 H2405 0.985 . S
C2400 C2394 1.379 . S
C2400 C2397 1.363 . S
C2400 N2398 1.356 . S
C2401 C2395 1.363 . S
C2401 C2396 1.379 . S
C2401 N2399 1.356 . S
N2402 C2394 1.356 . S
N2402 H2408 0.984 . S
N2402 H2409 0.984 . S
N2403 C2396 1.356 . S
N2403 H2406 0.984 . S
N2403 H2407 0.985 . S
H2404 N2399 0.984 . S
H2405 N2399 0.985 . S
H2406 N2403 0.984 . S
H2407 N2403 0.985 . S
H2408 N2402 0.984 . S
H2409 N2402 0.984 . S
H2410 N2398 0.984 . S
H2411 N2398 0.985 . S
C2412 C2413 1.363 . S
C2412 C2418 1.379 . S
C2412 N2420 1.356 . S
C2413 C2412 1.363 . S
C2413 C2419 1.363 . S
C2414 C2415 1.363 . S
C2414 C2419 1.379 . S
C2414 N2421 1.356 . S
C2415 C2414 1.363 . S
C2415 C2418 1.363 . S
N2416 C2418 1.356 . S
N2416 H2428 0.984 . S
N2416 H2429 0.985 . S
N2417 C2419 1.356 . S
N2417 H2422 0.984 . S
N2417 H2423 0.985 . S
C2418 C2412 1.379 . S
C2418 C2415 1.363 . S
C2418 N2416 1.356 . S
C2419 C2413 1.363 . S
C2419 C2414 1.379 . S
C2419 N2417 1.356 . S
N2420 C2412 1.356 . S
N2420 H2426 0.984 . S
N2420 H2427 0.984 . S
N2421 C2414 1.356 . S
N2421 H2424 0.984 . S
N2421 H2425 0.985 . S
H2422 N2417 0.984 . S
H2423 N2417 0.985 . S
H2424 N2421 0.984 . S
H2425 N2421 0.985 . S
H2426 N2420 0.984 . S
H2427 N2420 0.984 . S
H2428 N2416 0.984 . S
H2429 N2416 0.985 . S
C2430 C2431 1.363 . S
C2430 C2436 1.379 . S
C2430 N2438 1.356 . S
C2431 C2430 1.363 . S
C2431 C2437 1.363 . S
C2432 C2433 1.363 . S
C2432 C2437 1.379 . S
C2432 N2439 1.356 . S
C2433 C2432 1.363 . S
C2433 C2436 1.363 . S
N2434 C2436 1.356 . S
N2434 H2446 0.984 . S
N2434 H2447 0.985 . S
N2435 C2437 1.356 . S
N2435 H2440 0.960 1_655 S
N2435 H2441 0.985 . S
C2436 C2430 1.379 . S
C2436 C2433 1.363 . S
C2436 N2434 1.356 . S
C2437 C2431 1.363 . S
C2437 C2432 1.379 . S
C2437 N2435 1.356 . S
N2438 C2430 1.356 . S
N2438 H2444 0.984 . S
N2438 H2445 0.984 . S
N2439 C2432 1.356 . S
N2439 H2442 0.984 . S
N2439 H2443 0.985 . S
H2440 N2435 0.960 1_455 S
H2441 N2435 0.985 . S
H2442 N2439 0.984 . S
H2443 N2439 0.985 . S
H2444 N2438 0.984 . S
H2445 N2438 0.984 . S
H2446 N2434 0.984 . S
H2447 N2434 0.985 . S
C2448 C2449 1.363 . S
C2448 C2454 1.379 . S
C2448 N2456 1.356 . S
C2449 C2448 1.363 . S
C2449 C2455 1.363 . S
C2450 C2451 1.363 . S
C2450 C2455 1.379 . S
C2450 N2457 1.356 1_545 S
C2451 C2450 1.363 . S
C2451 C2454 1.363 . S
N2452 C2454 1.356 . S
N2452 H2464 0.984 . S
N2452 H2465 0.985 . S
N2453 C2455 1.356 1_565 S
N2453 H2458 0.984 1_565 S
N2453 H2459 0.985 . S
C2454 C2448 1.379 . S
C2454 C2451 1.363 . S
C2454 N2452 1.356 . S
C2455 C2449 1.363 . S
C2455 C2450 1.379 . S
C2455 N2453 1.356 1_545 S
N2456 C2448 1.356 . S
N2456 H2462 0.984 . S
N2456 H2463 0.984 . S
N2457 C2450 1.356 1_565 S
N2457 H2460 0.984 . S
N2457 H2461 0.985 . S
H2458 N2453 0.984 1_545 S
H2459 N2453 0.985 . S
H2460 N2457 0.984 . S
H2461 N2457 0.985 . S
H2462 N2456 0.984 . S
H2463 N2456 0.984 . S
H2464 N2452 0.984 . S
H2465 N2452 0.985 . S
C2466 C2467 1.363 . S
C2466 C2472 1.379 . S
C2466 N2474 1.356 . S
C2467 C2466 1.363 . S
C2467 C2473 1.363 . S
C2468 C2469 1.363 . S
C2468 C2473 1.379 . S
C2468 N2475 1.356 1_655 S
C2469 C2468 1.363 . S
C2469 C2472 1.363 . S
N2470 C2472 1.356 . S
N2470 H2482 0.984 . S
N2470 H2483 0.985 . S
N2471 C2473 1.358 . S
N2471 H2476 0.983 . S
N2471 H2477 0.984 1_655 S
C2472 C2466 1.379 . S
C2472 C2469 1.363 . S
C2472 N2470 1.356 . S
C2473 C2467 1.363 . S
C2473 C2468 1.379 . S
C2473 N2471 1.358 . S
N2474 C2466 1.356 . S
N2474 H2480 0.984 . S
N2474 H2481 0.984 . S
N2475 C2468 1.356 1_455 S
N2475 H2478 0.984 . S
N2475 H2479 0.985 . S
H2476 N2471 0.983 . S
H2477 N2471 0.984 1_455 S
H2478 N2475 0.984 . S
H2479 N2475 0.985 . S
H2480 N2474 0.984 . S
H2481 N2474 0.984 . S
H2482 N2470 0.984 . S
H2483 N2470 0.985 . S
C2484 C2485 1.363 . S
C2484 C2490 1.379 . S
C2484 N2492 1.356 . S
C2485 C2484 1.363 . S
C2485 C2491 1.363 . S
C2486 C2487 1.363 . S
C2486 C2491 1.379 . S
C2486 N2493 1.356 . S
C2487 C2486 1.363 . S
C2487 C2490 1.363 . S
N2488 C2490 1.356 . S
N2488 H2500 0.984 . S
N2488 H2501 0.985 . S
N2489 C2491 1.356 . S
N2489 H2494 0.984 . S
N2489 H2495 0.985 . S
C2490 C2484 1.379 . S
C2490 C2487 1.363 . S
C2490 N2488 1.356 . S
C2491 C2485 1.363 . S
C2491 C2486 1.379 . S
C2491 N2489 1.356 . S
N2492 C2484 1.356 . S
N2492 H2498 0.984 . S
N2492 H2499 0.984 . S
N2493 C2486 1.356 . S
N2493 H2496 0.984 . S
N2493 H2497 0.985 . S
H2494 N2489 0.984 . S
H2495 N2489 0.985 . S
H2496 N2493 0.984 . S
H2497 N2493 0.985 . S
H2498 N2492 0.984 . S
H2499 N2492 0.984 . S
H2500 N2488 0.984 . S
H2501 N2488 0.985 . S
C2502 C2503 1.363 . S
C2502 C2508 1.379 . S
C2502 N2510 1.356 . S
C2503 C2502 1.363 . S
C2503 C2509 1.363 . S
C2504 C2505 1.363 . S
C2504 C2509 1.379 . S
C2504 N2511 1.356 . S
C2505 C2504 1.363 . S
C2505 C2508 1.363 . S
N2506 C2508 1.356 . S
N2506 H2518 0.984 . S
N2506 H2519 0.985 . S
N2507 C2509 1.356 . S
N2507 H2512 0.984 . S
N2507 H2513 0.985 . S
C2508 C2502 1.379 . S
C2508 C2505 1.363 . S
C2508 N2506 1.356 . S
C2509 C2503 1.363 . S
C2509 C2504 1.379 . S
C2509 N2507 1.356 . S
N2510 C2502 1.356 . S
N2510 H2516 0.984 . S
N2510 H2517 0.984 . S
N2511 C2504 1.356 . S
N2511 H2514 0.984 . S
N2511 H2515 0.985 . S
H2512 N2507 0.984 . S
H2513 N2507 0.985 . S
H2514 N2511 0.984 . S
H2515 N2511 0.985 . S
H2516 N2510 0.984 . S
H2517 N2510 0.984 . S
H2518 N2506 0.984 . S
H2519 N2506 0.985 . S
C2520 C2521 1.363 . S
C2520 C2526 1.379 . S
C2520 N2528 1.356 . S
C2521 C2520 1.363 . S
C2521 C2527 1.363 . S
C2522 C2523 1.363 . S
C2522 C2527 1.379 . S
C2522 N2529 1.356 . S
C2523 C2522 1.363 . S
C2523 C2526 1.363 . S
N2524 C2526 1.356 . S
N2524 H2536 0.984 . S
N2524 H2537 0.985 . S
N2525 C2527 1.356 . S
N2525 H2530 0.984 1_565 S
N2525 H2531 0.985 . S
C2526 C2520 1.379 . S
C2526 C2523 1.363 . S
C2526 N2524 1.356 . S
C2527 C2521 1.363 . S
C2527 C2522 1.379 . S
C2527 N2525 1.356 . S
N2528 C2520 1.356 . S
N2528 H2534 0.984 . S
N2528 H2535 0.984 . S
N2529 C2522 1.356 . S
N2529 H2532 0.984 . S
N2529 H2533 0.985 . S
H2530 N2525 0.984 1_545 S
H2531 N2525 0.985 . S
H2532 N2529 0.984 . S
H2533 N2529 0.985 . S
H2534 N2528 0.984 . S
H2535 N2528 0.984 . S
H2536 N2524 0.984 . S
H2537 N2524 0.985 . S
C2538 C2539 1.363 . S
C2538 C2544 1.379 . S
C2538 N2546 1.356 . S
C2539 C2538 1.363 . S
C2539 C2545 1.363 . S
C2540 C2541 1.363 . S
C2540 C2545 1.379 . S
C2540 N2547 1.356 . S
C2541 C2540 1.363 . S
C2541 C2544 1.363 . S
N2542 C2544 1.356 . S
N2542 H2554 0.984 . S
N2542 H2555 0.985 . S
N2543 C2545 1.356 . S
N2543 H2548 0.984 . S
N2543 H2549 0.985 . S
C2544 C2538 1.379 . S
C2544 C2541 1.363 . S
C2544 N2542 1.356 . S
C2545 C2539 1.363 . S
C2545 C2540 1.379 . S
C2545 N2543 1.356 . S
N2546 C2538 1.356 . S
N2546 H2552 0.984 . S
N2546 H2553 0.984 . S
N2547 C2540 1.356 . S
N2547 H2550 0.984 . S
N2547 H2551 0.985 . S
H2548 N2543 0.984 . S
H2549 N2543 0.985 . S
H2550 N2547 0.984 . S
H2551 N2547 0.985 . S
H2552 N2546 0.984 . S
H2553 N2546 0.984 . S
H2554 N2542 0.984 . S
H2555 N2542 0.985 . S
C2556 C2557 1.363 . S
C2556 C2562 1.379 . S
C2556 N2564 1.356 . S
C2557 C2556 1.363 . S
C2557 C2563 1.363 . S
C2558 C2559 1.363 . S
C2558 C2563 1.379 . S
C2558 N2565 1.356 . S
C2559 C2558 1.363 . S
C2559 C2562 1.363 . S
N2560 C2562 1.356 . S
N2560 H2572 0.984 . S
N2560 H2573 0.985 . S
N2561 C2563 1.356 . S
N2561 H2566 0.984 . S
N2561 H2567 0.985 . S
C2562 C2556 1.379 . S
C2562 C2559 1.363 . S
C2562 N2560 1.356 . S
C2563 C2557 1.363 . S
C2563 C2558 1.379 . S
C2563 N2561 1.356 . S
N2564 C2556 1.356 . S
N2564 H2570 0.984 . S
N2564 H2571 0.984 . S
N2565 C2558 1.356 . S
N2565 H2568 0.984 . S
N2565 H2569 0.985 . S
H2566 N2561 0.984 . S
H2567 N2561 0.985 . S
H2568 N2565 0.984 . S
H2569 N2565 0.985 . S
H2570 N2564 0.984 . S
H2571 N2564 0.984 . S
H2572 N2560 0.984 . S
H2573 N2560 0.985 . S
C2574 C2575 1.363 . S
C2574 C2580 1.379 . S
C2574 N2582 1.356 . S
C2575 C2574 1.363 . S
C2575 C2581 1.363 . S
C2576 C2577 1.363 . S
C2576 C2581 1.379 . S
C2576 N2583 1.356 . S
C2577 C2576 1.363 . S
C2577 C2580 1.363 . S
N2578 C2580 1.356 . S
N2578 H2590 0.984 . S
N2578 H2591 0.985 . S
N2579 C2581 1.356 . S
N2579 H2584 0.984 . S
N2579 H2585 0.985 . S
C2580 C2574 1.379 . S
C2580 C2577 1.363 . S
C2580 N2578 1.356 . S
C2581 C2575 1.363 . S
C2581 C2576 1.379 . S
C2581 N2579 1.356 . S
N2582 C2574 1.356 . S
N2582 H2588 0.984 . S
N2582 H2589 0.984 . S
N2583 C2576 1.356 . S
N2583 H2586 0.984 . S
N2583 H2587 0.985 . S
H2584 N2579 0.984 . S
H2585 N2579 0.985 . S
H2586 N2583 0.984 . S
H2587 N2583 0.985 . S
H2588 N2582 0.984 . S
H2589 N2582 0.984 . S
H2590 N2578 0.984 . S
H2591 N2578 0.985 . S
C2592 C2593 1.363 . S
C2592 C2598 1.379 . S
C2592 N2600 1.356 . S
C2593 C2592 1.363 . S
C2593 C2599 1.363 . S
C2594 C2595 1.363 . S
C2594 C2599 1.379 . S
C2594 N2601 1.356 . S
C2595 C2594 1.363 . S
C2595 C2598 1.363 . S
N2596 C2598 1.356 . S
N2596 H2608 0.984 . S
N2596 H2609 0.985 . S
N2597 C2599 1.356 . S
N2597 H2602 0.984 . S
N2597 H2603 0.985 . S
C2598 C2592 1.379 . S
C2598 C2595 1.363 . S
C2598 N2596 1.356 . S
C2599 C2593 1.363 . S
C2599 C2594 1.379 . S
C2599 N2597 1.356 . S
N2600 C2592 1.356 . S
N2600 H2606 0.984 . S
N2600 H2607 0.984 . S
N2601 C2594 1.356 . S
N2601 H2604 0.984 . S
N2601 H2605 0.985 . S
H2602 N2597 0.984 . S
H2603 N2597 0.985 . S
H2604 N2601 0.984 . S
H2605 N2601 0.985 . S
H2606 N2600 0.984 . S
H2607 N2600 0.984 . S
H2608 N2596 0.984 . S
H2609 N2596 0.985 . S
C2610 C2611 1.363 1_455 S
C2610 C2616 1.379 . S
C2610 N2618 1.356 . S
C2611 C2610 1.363 1_655 S
C2611 C2617 1.363 . S
C2612 C2613 1.363 . S
C2612 C2617 1.379 . S
C2612 N2619 1.356 . S
C2613 C2612 1.363 . S
C2613 C2616 1.363 1_655 S
N2614 C2616 1.356 . S
N2614 H2626 0.984 . S
N2614 H2627 0.985 . S
N2615 C2617 1.356 . S
N2615 H2620 0.984 . S
N2615 H2621 0.985 . S
C2616 C2610 1.379 . S
C2616 C2613 1.363 1_455 S
C2616 N2614 1.356 . S
C2617 C2611 1.363 . S
C2617 C2612 1.379 . S
C2617 N2615 1.356 . S
N2618 C2610 1.356 . S
N2618 H2624 0.984 . S
N2618 H2625 0.984 . S
N2619 C2612 1.356 . S
N2619 H2622 0.984 . S
N2619 H2623 0.985 . S
H2620 N2615 0.984 . S
H2621 N2615 0.985 . S
H2622 N2619 0.984 . S
H2623 N2619 0.985 . S
H2624 N2618 0.984 . S
H2625 N2618 0.984 . S
H2626 N2614 0.984 . S
H2627 N2614 0.985 . S
C2628 C2629 1.363 . S
C2628 C2634 1.379 . S
C2628 N2636 1.356 . S
C2629 C2628 1.363 . S
C2629 C2635 1.363 . S
C2630 C2631 1.363 . S
C2630 C2635 1.379 . S
C2630 N2637 1.356 . S
C2631 C2630 1.363 . S
C2631 C2634 1.363 . S
N2632 C2634 1.356 . S
N2632 H2644 0.984 . S
N2632 H2645 0.985 . S
N2633 C2635 1.356 . S
N2633 H2638 0.984 . S
N2633 H2639 0.985 . S
C2634 C2628 1.379 . S
C2634 C2631 1.363 . S
C2634 N2632 1.356 . S
C2635 C2629 1.363 . S
C2635 C2630 1.379 . S
C2635 N2633 1.356 . S
N2636 C2628 1.356 . S
N2636 H2642 0.984 . S
N2636 H2643 0.984 . S
N2637 C2630 1.356 . S
N2637 H2640 0.984 . S
N2637 H2641 0.985 . S
H2638 N2633 0.984 . S
H2639 N2633 0.985 . S
H2640 N2637 0.984 . S
H2641 N2637 0.985 . S
H2642 N2636 0.984 . S
H2643 N2636 0.984 . S
H2644 N2632 0.984 . S
H2645 N2632 0.985 . S
C2646 C2647 1.363 . S
C2646 C2652 1.379 . S
C2646 N2654 1.356 . S
C2647 C2646 1.363 . S
C2647 C2653 1.363 . S
C2648 C2649 1.363 . S
C2648 C2653 1.379 . S
C2648 N2655 1.356 . S
C2649 C2648 1.363 . S
C2649 C2652 1.363 . S
N2650 C2652 1.356 . S
N2650 H2662 0.984 . S
N2650 H2663 0.985 . S
N2651 C2653 1.356 . S
N2651 H2656 0.984 . S
N2651 H2657 0.985 1_545 S
C2652 C2646 1.379 . S
C2652 C2649 1.363 . S
C2652 N2650 1.356 . S
C2653 C2647 1.363 . S
C2653 C2648 1.379 . S
C2653 N2651 1.356 . S
N2654 C2646 1.356 . S
N2654 H2660 0.984 . S
N2654 H2661 0.984 . S
N2655 C2648 1.356 . S
N2655 H2658 0.953 . S
N2655 H2659 0.987 1_545 S
H2656 N2651 0.984 . S
H2657 N2651 0.985 1_565 S
H2658 N2655 0.953 . S
H2659 N2655 0.987 1_565 S
H2660 N2654 0.984 . S
H2661 N2654 0.984 . S
H2662 N2650 0.984 . S
H2663 N2650 0.985 . S
C1369 C8 1.565 . S
C1371 C857 1.512 . S
C1387 C22 1.565 . S
C1389 C901 1.531 . S
C1407 C981 1.512 . S
C1405 C37 1.564 . S
C1423 C36 1.565 . S
C1425 C1025 1.531 . S
C1441 C9 1.560 . S
C1443 C1105 1.515 . S
C1459 C23 1.565 . S
C1461 C1167 1.513 . S
C1477 C50 1.578 . S
C1479 C1087 1.511 . S
C1497 C1149 1.513 . S
C1495 C64 1.565 . S
C1515 C1043 1.531 . S
C1513 C79 1.565 . S
C1531 C78 1.575 . S
C1533 C963 1.511 . S
C1551 C839 1.512 . S
C1549 C51 1.565 . S
C1567 C65 1.565 . S
C1569 C919 1.531 . S
C1585 C92 1.565 . S
C1587 C1229 1.512 . S
C1603 C106 1.566 . S
C1605 C1273 1.531 . S
C1623 C1353 1.512 . S
C1621 C121 1.565 . S
C1639 C120 1.565 . S
C1641 C299 1.512 . S
C1657 C93 1.565 . S
C1659 C343 1.531 . S
C1675 C107 1.565 . S
C1677 C423 1.513 . S
C1693 C134 1.564 . S
C1695 C361 1.530 . S
C1711 C148 1.565 . S
C1713 C405 1.513 . S
C1731 C281 1.512 . S
C1729 C163 1.565 . S
C1749 C1335 1.513 . S
C1747 C162 1.565 . S
C1767 C1211 1.512 . S
C1765 C135 1.565 . S
C1785 C1291 1.531 . S
C1783 C149 1.565 . S
C1801 C176 1.565 . S
C1803 C485 1.512 . S
C1819 C190 1.565 . S
C1821 C547 1.513 . S
C1837 C205 1.565 . S
C1839 C591 1.531 . S
C1855 C204 1.565 . S
C1857 C653 1.531 . S
C1875 C715 1.531 . S
C1873 C177 1.565 . S
C1893 C795 1.513 . S
C1891 C191 1.565 . S
C1911 C733 1.531 . S
C1909 C218 1.565 . S
C1929 C777 1.513 . S
C1927 C232 1.565 . S
C1945 C247 1.565 . S
C1947 C671 1.531 . S
C1965 C609 1.531 . S
C1963 C246 1.565 . S
C1981 C219 1.565 . S
C1983 C467 1.513 . S
C2001 C529 1.513 . S
C1999 C233 1.565 . S
C2019 C305 1.458 . S
C2017 C6 1.487 . S
C2035 C20 1.487 . S
C2037 C349 1.464 . S
C2055 C429 1.458 . S
C2053 C35 1.487 . S
C2073 C491 1.458 . S
C2071 C34 1.487 . S
C2091 C553 1.458 . S
C2089 C7 1.488 . S
C2109 C597 1.465 . S
C2107 C21 1.487 . S
C2125 C48 1.487 . S
C2127 C615 1.464 . S
C2143 C62 1.488 . S
C2145 C473 1.458 . S
C2161 C77 1.488 . S
C2163 C535 1.458 . S
C2179 C76 1.487 . S
C2181 C367 1.464 . S
C2199 C411 1.458 . S
C2197 C49 1.488 . S
C2215 C63 1.487 . S
C2217 C287 1.458 . S
C2235 C659 1.464 . S
C2233 C90 1.487 . S
C2251 C104 1.487 . S
C2253 C721 1.465 . S
C2269 C119 1.488 . S
C2271 C801 1.458 . S
C2289 C863 1.458 . S
C2287 C118 1.487 . S
C2305 C91 1.488 . S
C2307 C907 1.465 . S
C2323 C105 1.487 . S
C2325 C987 1.461 . S
C2341 C132 1.487 . S
C2343 C969 1.454 . S
C2359 C146 1.487 . S
C2361 C845 1.458 . S
C2379 C925 1.465 . S
C2377 C161 1.488 . S
C2395 C160 1.487 . S
C2397 C739 1.464 . S
C2413 C133 1.487 . S
C2415 C783 1.458 . S
C2433 C677 1.465 . S
C2431 C147 1.488 . S
C2451 C1031 1.464 . S
C2449 C174 1.487 . S
C2467 C188 1.487 . S
C2469 C1111 1.461 . S
C2485 C203 1.488 . S
C2487 C1173 1.458 . S
C2505 C1235 1.458 . S
C2503 C202 1.487 . S
C2523 C1279 1.465 . S
C2521 C175 1.488 . S
C2539 C189 1.488 . S
C2541 C1359 1.458 . S
C2557 C216 1.487 . S
C2559 C1341 1.458 . S
C2575 C230 1.487 . S
C2577 C1217 1.458 . S
C2595 C1297 1.465 . S
C2593 C245 1.488 . S
C2613 C1093 1.458 . S
C2611 C244 1.481 . S
C2631 C1155 1.459 . S
C2629 C217 1.488 . S
C2647 C231 1.487 . S
C2649 C1049 1.465 . S
