# Generated by pormake.
# Topology rtl, (3,6)-cn, num edge types: 1
# Building blocks:
#     Node 0, Type 0, BuildingBlock: BETDIP_clean_linker_0, # of connection points: 3
#     Node 1, Type 0, BuildingBlock: BETDIP_clean_linker_0, # of connection points: 3
#     Node 2, Type 0, BuildingBlock: BETDIP_clean_linker_0, # of connection points: 3
#     Node 3, Type 0, BuildingBlock: BETDIP_clean_linker_0, # of connection points: 3
#     Node 4, Type 1, BuildingBlock: FUNLAD_clean_sbu_0, # of connection points: 6
#     Node 5, Type 1, BuildingBlock: FUNLAD_clean_sbu_0, # of connection points: 6
#     Edge 6, Type (0, 1), BuildingBlock: FUNLAD_clean_linker_0, # of connection points: 2
#     Edge 7, Type (0, 1), BuildingBlock: FUNLAD_clean_linker_0, # of connection points: 2
#     Edge 8, Type (0, 1), BuildingBlock: FUNLAD_clean_linker_0, # of connection points: 2
#     Edge 9, Type (0, 1), BuildingBlock: FUNLAD_clean_linker_0, # of connection points: 2
#     Edge 10, Type (0, 1), BuildingBlock: FUNLAD_clean_linker_0, # of connection points: 2
#     Edge 11, Type (0, 1), BuildingBlock: FUNLAD_clean_linker_0, # of connection points: 2
#     Edge 12, Type (0, 1), BuildingBlock: FUNLAD_clean_linker_0, # of connection points: 2
#     Edge 13, Type (0, 1), BuildingBlock: FUNLAD_clean_linker_0, # of connection points: 2
#     Edge 14, Type (0, 1), BuildingBlock: FUNLAD_clean_linker_0, # of connection points: 2
#     Edge 15, Type (0, 1), BuildingBlock: FUNLAD_clean_linker_0, # of connection points: 2
#     Edge 16, Type (0, 1), BuildingBlock: FUNLAD_clean_linker_0, # of connection points: 2
#     Edge 17, Type (0, 1), BuildingBlock: FUNLAD_clean_linker_0, # of connection points: 2
# Relax obj value: 0.002
# Max RMSD: 0.046
# Mean RMSD: 0.032
data_MOF--net-rtl--node1-FUNLAD_clean_sbu_0--node2-BETDIP_clean_linker_0--edge1-FUNLAD_clean_linker_0
_symmetry_space_group_name_H-M    P1
_symmetry_Int_Tables_number       1
_symmetry_cell_setting            triclinic
loop_
_symmetry_equiv_pos_as_xyz
'x, y, z'
_cell_length_a     46.513209
_cell_length_b     46.458835
_cell_length_c     24.640467
_cell_angle_alpha  90.844176
_cell_angle_beta   92.058266
_cell_angle_gamma 89.960235
loop_
_atom_site_label
_atom_site_type_symbol
_atom_site_fract_x
_atom_site_fract_y
_atom_site_fract_z
_atom_type_partial_charge
H0 H 0.18718 0.81784 0.92405 0.0
H1 H 0.18632 0.819 0.09896 0.0
H2 H 0.13122 0.87581 0.00767 0.0
H3 H 0.22809 0.79751 0.09453 0.0
C4 C 0.22877 0.78575 0.05624 0.0
C5 C 0.17889 0.82644 0.96152 0.0
C6 C 0.15788 0.84816 0.95987 0.0
C7 C 0.18994 0.81622 0.01136 0.0
C8 C 0.17907 0.82734 0.06012 0.0
C9 C 0.15778 0.84878 0.05894 0.0
C10 C 0.14751 0.85911 0.00874 0.0
N11 N 0.21146 0.79444 0.01062 0.0
H12 H 0.69715 0.68081 0.614 0.0
H13 H 0.69582 0.68152 0.4391 0.0
H14 H 0.6357 0.62923 0.5217 0.0
H15 H 0.7129 0.72621 0.45363 0.0
C16 C 0.72732 0.72461 0.48911 0.0
C17 C 0.6881 0.67331 0.57518 0.0
C18 C 0.66493 0.65396 0.57338 0.0
C19 C 0.69886 0.68407 0.52705 0.0
C20 C 0.6872 0.67412 0.47661 0.0
C21 C 0.6642 0.65451 0.47433 0.0
C22 C 0.65315 0.64472 0.52296 0.0
N23 N 0.72129 0.70488 0.53078 0.0
H24 H 0.8111 0.18534 0.90618 0.0
H25 H 0.81461 0.18274 0.08101 0.0
H26 H 0.8609 0.12021 0.9882 0.0
H27 H 0.77165 0.20446 0.07226 0.0
C28 C 0.77285 0.21811 0.03704 0.0
C29 C 0.81878 0.17545 0.94355 0.0
C30 C 0.83701 0.15146 0.94158 0.0
C31 C 0.80962 0.18623 0.99349 0.0
C32 C 0.82013 0.17368 0.04206 0.0
C33 C 0.83901 0.15005 0.04051 0.0
C34 C 0.84679 0.13876 0.98999 0.0
N35 N 0.79039 0.21004 0.99326 0.0
H36 H 0.31757 0.32662 0.40898 0.0
H37 H 0.33207 0.30915 0.57905 0.0
H38 H 0.38104 0.37468 0.50352 0.0
H39 H 0.31391 0.26586 0.55491 0.0
C40 C 0.29751 0.27019 0.52362 0.0
C41 C 0.32908 0.33095 0.44726 0.0
C42 C 0.35 0.35271 0.45089 0.0
C43 C 0.32269 0.31478 0.4929 0.0
C44 C 0.33721 0.32081 0.54299 0.0
C45 C 0.35853 0.3422 0.54679 0.0
C46 C 0.36471 0.35801 0.50064 0.0
N47 N 0.30103 0.29327 0.48721 0.0
C48 C 0.0312 0.97428 0.4267 0.0
N49 N 0.05309 0.05306 0.50371 0.0
C50 C 0.0808 0.04361 0.50623 0.0
C51 C 0.10351 0.06321 0.50981 0.0
C52 C 0.09773 0.09288 0.51064 0.0
C53 C 0.06895 0.10207 0.50678 0.0
C54 C 0.04684 0.08168 0.50348 0.0
Zn55 Zn 0.02077 0.02324 0.50324 0.0
C56 C 0.9739 0.03616 0.42324 0.0
N57 N 0.95434 0.95987 0.50467 0.0
C58 C 0.96131 0.93143 0.5062 0.0
C59 C 0.92641 0.96862 0.50275 0.0
C60 C 0.90417 0.94843 0.50191 0.0
C61 C 0.91072 0.91892 0.50319 0.0
C62 C 0.93975 0.91051 0.50558 0.0
Zn63 Zn 0.98639 0.98996 0.50458 0.0
O64 O 0.04203 0.99805 0.44362 0.0
C65 C 0.03397 0.97746 0.58417 0.0
O66 O 0.00756 0.9659 0.44527 0.0
H67 H 0.92134 0.99134 0.50176 0.0
H68 H 0.08532 0.02078 0.50618 0.0
H69 H 0.98365 0.92492 0.50752 0.0
O70 O 0.04311 0.00081 0.56502 0.0
O71 O 0.00992 0.9674 0.56663 0.0
H72 H 0.02467 0.08873 0.50162 0.0
O73 O 0.96555 0.01433 0.56397 0.0
O74 O 0.99873 0.04783 0.56274 0.0
O75 O 0.9636 0.01317 0.44222 0.0
O76 O 0.99815 0.04529 0.44147 0.0
C77 C 0.97536 0.03843 0.58108 0.0
H78 H 0.12539 0.0552 0.51192 0.0
H79 H 0.06355 0.12474 0.50776 0.0
H80 H 0.88209 0.95587 0.50073 0.0
H81 H 0.94576 0.88799 0.50597 0.0
C82 C 0.47257 0.47186 0.93176 0.0
N83 N 0.55134 0.45817 0.01596 0.0
C84 C 0.54338 0.43012 0.01997 0.0
C85 C 0.56415 0.40862 0.02595 0.0
C86 C 0.59344 0.41596 0.02752 0.0
C87 C 0.6011 0.445 0.02224 0.0
C88 C 0.57958 0.46589 0.01669 0.0
Zn89 Zn 0.51977 0.48881 0.01115 0.0
C90 C 0.53048 0.5331 0.92911 0.0
N91 N 0.45261 0.55151 0.00303 0.0
C92 C 0.42456 0.54334 0.00451 0.0
C93 C 0.46002 0.57972 -0.00059 0.0
C94 C 0.43885 0.60102 -0.00267 0.0
C95 C 0.40974 0.59324 -0.00065 0.0
C96 C 0.40269 0.56396 0.00289 0.0
Zn97 Zn 0.48434 0.52107 0.00724 0.0
O98 O 0.49702 0.46387 0.9508 0.0
C99 C 0.47326 0.47669 0.08865 0.0
O100 O 0.46198 0.49554 0.9481 0.0
H101 H 0.48245 0.58577 -0.00145 0.0
H102 H 0.52084 0.4244 0.01902 0.0
H103 H 0.41912 0.52079 0.00716 0.0
O104 O 0.4972 0.46749 0.07219 0.0
O105 O 0.46268 0.49963 0.06884 0.0
H106 H 0.58543 0.48832 0.01365 0.0
O107 O 0.5072 0.54616 0.06681 0.0
O108 O 0.54184 0.51412 0.07152 0.0
O109 O 0.50633 0.54188 0.94532 0.0
O110 O 0.5418 0.51072 0.94995 0.0
C111 C 0.53127 0.53794 0.08718 0.0
H112 H 0.55733 0.38644 0.02913 0.0
H113 H 0.62345 0.45157 0.02367 0.0
H114 H 0.44523 0.62338 -0.00474 0.0
H115 H 0.38049 0.55703 0.00397 0.0
C116 C 0.27116 0.22639 0.55079 0.0
C117 C 0.27275 0.25035 0.51711 0.0
C118 C 0.24796 0.20733 0.54539 0.0
C119 C 0.22562 0.21208 0.50637 0.0
C120 C 0.22747 0.23595 0.47233 0.0
C121 C 0.25073 0.25497 0.4777 0.0
C122 C 0.20058 0.19228 0.49868 0.0
C123 C 0.19201 0.17403 0.53696 0.0
C124 C 0.16749 0.15373 0.52881 0.0
C125 C 0.16711 0.12885 0.56036 0.0
C126 C 0.14456 0.10912 0.55428 0.0
C127 C 0.12163 0.11398 0.51685 0.0
H128 H 0.14334 0.17818 0.46783 0.0
C129 C 0.12166 0.13915 0.48589 0.0
C130 C 0.14434 0.15885 0.49176 0.0
H131 H 0.10428 0.1435 0.45673 0.0
H132 H 0.28803 0.22224 0.58115 0.0
H133 H 0.24808 0.18874 0.57125 0.0
H134 H 0.21077 0.24003 0.44162 0.0
H135 H 0.25137 0.27324 0.451 0.0
H136 H 0.18883 0.19303 0.45987 0.0
H137 H 0.20368 0.1732 0.5758 0.0
H138 H 0.18446 0.12452 0.58964 0.0
H139 H 0.14491 0.09019 0.57946 0.0
C140 C 0.25288 0.74677 0.00249 0.0
C141 C 0.24906 0.76139 0.05204 0.0
C142 C 0.27231 0.72386 -0.00055 0.0
C143 C 0.28831 0.71517 0.04597 0.0
C144 C 0.28407 0.72955 0.09555 0.0
C145 C 0.2648 0.75255 0.09849 0.0
C146 C 0.30898 0.6908 0.04477 0.0
C147 C 0.32304 0.68283 9e-05 0.0
C148 C 0.34465 0.65927 2e-05 0.0
C149 C 0.36703 0.66033 0.96338 0.0
C150 C 0.38809 0.63887 0.96297 0.0
C151 C 0.38696 0.61563 -0.00129 0.0
H152 H 0.32577 0.63368 0.06275 0.0
C153 C 0.36413 0.61414 0.03439 0.0
C154 C 0.34318 0.63571 0.03507 0.0
H155 H 0.3627 0.59652 0.06247 0.0
H156 H 0.24087 0.75296 0.96604 0.0
H157 H 0.27434 0.71277 0.96085 0.0
H158 H 0.29592 0.72315 0.13208 0.0
H159 H 0.26213 0.76339 0.13722 0.0
H160 H 0.31408 0.68031 0.08302 0.0
H161 H 0.32015 0.69514 0.96317 0.0
H162 H 0.36847 0.67806 0.9355 0.0
H163 H 0.40519 0.64038 0.93444 0.0
C164 C 0.7549 0.76614 0.45545 0.0
C165 C 0.75133 0.74537 0.49538 0.0
C166 C 0.77719 0.78624 0.46065 0.0
C167 C 0.79633 0.78605 0.50623 0.0
C168 C 0.79305 0.76484 0.5456 0.0
C169 C 0.77067 0.74477 0.54045 0.0
C170 C 0.82042 0.80697 0.51302 0.0
C171 C 0.81948 0.83356 0.49172 0.0
C172 C 0.84333 0.85498 0.49646 0.0
C173 C 0.84143 0.87959 0.46403 0.0
C174 C 0.86317 0.90033 0.46635 0.0
C175 C 0.88742 0.89703 0.50134 0.0
H176 H 0.86977 0.83377 0.55891 0.0
C177 C 0.8893 0.87261 0.53426 0.0
C178 C 0.8675 0.85186 0.53207 0.0
H179 H 0.90748 0.8697 0.56235 0.0
H180 H 0.74044 0.76681 0.42002 0.0
H181 H 0.77957 0.80149 0.42836 0.0
H182 H 0.80769 0.76398 0.58075 0.0
H183 H 0.76858 0.72886 0.57174 0.0
H184 H 0.83904 0.80007 0.5371 0.0
H185 H 0.80021 0.84019 0.46907 0.0
H186 H 0.82312 0.8827 0.43629 0.0
H187 H 0.86119 0.91874 0.44002 0.0
C188 C 0.7339 0.24869 0.07382 0.0
C189 C 0.75353 0.24335 0.033 0.0
C190 C 0.71496 0.27201 0.07027 0.0
C191 C 0.71546 0.29077 0.02582 0.0
C192 C 0.73528 0.28534 0.98513 0.0
C193 C 0.75413 0.26193 0.98864 0.0
C194 C 0.69524 0.31551 0.01899 0.0
C195 C 0.67847 0.32586 0.05832 0.0
C196 C 0.65733 0.34952 0.04966 0.0
C197 C 0.633 0.35045 0.08168 0.0
C198 C 0.61233 0.37199 0.07447 0.0
C199 C 0.61574 0.39339 0.03551 0.0
H200 H 0.67995 0.37178 0.98695 0.0
C201 C 0.64045 0.39296 0.00434 0.0
C202 C 0.66106 0.37123 0.01126 0.0
H203 H 0.64368 0.4092 0.97406 0.0
H204 H 0.73292 0.23454 0.10828 0.0
H205 H 0.69976 0.27464 0.10208 0.0
H206 H 0.73615 0.29923 0.95028 0.0
H207 H 0.76906 0.2584 0.95647 0.0
H208 H 0.6939 0.32525 0.97919 0.0
H209 H 0.6791 0.31619 0.09807 0.0
H210 H 0.62975 0.33421 0.11199 0.0
H211 H 0.59375 0.37204 0.09977 0.0
C212 C 0.11637 0.86551 0.11316 0.0
C213 C 0.14607 0.86076 0.10974 0.0
C214 C 0.10531 0.87926 0.15855 0.0
C215 C 0.12371 0.8883 0.20212 0.0
C216 C 0.15337 0.88303 0.19916 0.0
C217 C 0.16445 0.86924 0.15356 0.0
C218 C 0.11282 0.90489 0.2492 0.0
C219 C 0.08531 0.90343 0.26435 0.0
C220 C 0.07304 0.92155 0.308 0.0
C221 C 0.04707 0.91284 0.32991 0.0
C222 C 0.03368 0.92989 0.36862 0.0
C223 C 0.04585 0.95625 0.38615 0.0
H224 H 0.1049 0.95587 0.3087 0.0
C225 C 0.07191 0.96504 0.36447 0.0
C226 C 0.08535 0.94792 0.32563 0.0
H227 H 0.08177 0.98529 0.37701 0.0
H228 H 0.10164 0.85905 0.08015 0.0
H229 H 0.08246 0.8836 0.15817 0.0
H230 H 0.16805 0.88999 0.23188 0.0
H231 H 0.18748 0.86612 0.15177 0.0
H232 H 0.1281 0.91836 0.27216 0.0
H233 H 0.07091 0.88785 0.2445 0.0
H234 H 0.03696 0.89278 0.3168 0.0
H235 H 0.01363 0.92242 0.38449 0.0
C236 C 0.6225 0.64542 0.62984 0.0
C237 C 0.65229 0.64348 0.62364 0.0
C238 C 0.60976 0.63314 0.67435 0.0
C239 C 0.62654 0.61803 0.71328 0.0
C240 C 0.65656 0.61729 0.70821 0.0
C241 C 0.66936 0.62995 0.66385 0.0
C242 C 0.6136 0.6026 0.75911 0.0
C243 C 0.58549 0.5956 0.76011 0.0
C244 C 0.57251 0.57983 0.80505 0.0
C245 C 0.54342 0.58469 0.81527 0.0
C246 C 0.52993 0.56967 0.85583 0.0
C247 C 0.5451 0.54898 0.88645 0.0
H248 H 0.61007 0.55432 0.82792 0.0
C249 C 0.57418 0.54381 0.87592 0.0
C250 C 0.58782 0.55917 0.83571 0.0
H251 H 0.58641 0.52794 0.8988 0.0
H252 H 0.60897 0.65627 0.59981 0.0
H253 H 0.58679 0.63563 0.6775 0.0
H254 H 0.67011 0.6062 0.73787 0.0
H255 H 0.69242 0.62824 0.6599 0.0
H256 H 0.62795 0.59625 0.79258 0.0
H257 H 0.57081 0.60181 0.72721 0.0
H258 H 0.53108 0.60028 0.79188 0.0
H259 H 0.50747 0.57408 0.86273 0.0
C260 C 0.88077 0.13013 0.09457 0.0
C261 C 0.85147 0.13749 0.09118 0.0
C262 C 0.89261 0.11721 0.14091 0.0
C263 C 0.87549 0.11159 0.18549 0.0
C264 C 0.84618 0.11897 0.18221 0.0
C265 C 0.8343 0.13199 0.13565 0.0
C266 C 0.88743 0.0969 0.23457 0.0
C267 C 0.91543 0.09866 0.25029 0.0
C268 C 0.92879 0.08289 0.29677 0.0
C269 C 0.95552 0.09247 0.3182 0.0
C270 C 0.96993 0.07745 0.35954 0.0
C271 C 0.95804 0.05226 0.38028 0.0
H272 H 0.89652 0.04921 0.30145 0.0
C273 C 0.93118 0.04266 0.3592 0.0
C274 C 0.9167 0.05777 0.31775 0.0
H275 H 0.9215 0.02327 0.37421 0.0
H276 H 0.89463 0.13428 0.06115 0.0
H277 H 0.91505 0.11105 0.14092 0.0
H278 H 0.83244 0.1146 0.2157 0.0
H279 H 0.81157 0.13715 0.13397 0.0
H280 H 0.87256 0.08503 0.25877 0.0
H281 H 0.92944 0.1129 0.22875 0.0
H282 H 0.96545 0.1116 0.30261 0.0
H283 H 0.99056 0.08549 0.37484 0.0
C284 C 0.35926 0.3542 0.64639 0.0
C285 C 0.37423 0.3488 0.59882 0.0
C286 C 0.37394 0.36411 0.69358 0.0
C287 C 0.40388 0.3687 0.69387 0.0
C288 C 0.41896 0.3615 0.6473 0.0
C289 C 0.40428 0.35186 0.60013 0.0
C290 C 0.41998 0.38202 0.7409 0.0
C291 C 0.40808 0.40153 0.77431 0.0
C292 C 0.42491 0.41859 0.81589 0.0
C293 C 0.41391 0.44522 0.833 0.0
C294 C 0.42942 0.46255 0.87041 0.0
C295 C 0.45627 0.45352 0.89189 0.0
H296 H 0.46036 0.38845 0.82762 0.0
C297 C 0.46706 0.42658 0.87574 0.0
C298 C 0.45152 0.40922 0.83831 0.0
H299 H 0.48749 0.4188 0.89217 0.0
H300 H 0.33608 0.35189 0.64647 0.0
H301 H 0.36174 0.36853 0.72935 0.0
H302 H 0.44205 0.36446 0.64667 0.0
H303 H 0.41638 0.3474 0.56418 0.0
H304 H 0.44298 0.37808 0.74392 0.0
H305 H 0.38561 0.40732 0.76768 0.0
H306 H 0.3934 0.4529 0.81674 0.0
H307 H 0.42035 0.48308 0.88232 0.0
C308 C 0.62164 0.64123 0.41402 0.0
C309 C 0.65161 0.6439 0.42154 0.0
C310 C 0.60965 0.62908 0.36629 0.0
C311 C 0.62739 0.61957 0.3245 0.0
C312 C 0.65733 0.62277 0.33162 0.0
C313 C 0.66934 0.63494 0.37951 0.0
C314 C 0.61556 0.60434 0.27507 0.0
C315 C 0.58798 0.60678 0.25698 0.0
C316 C 0.57503 0.58945 0.21116 0.0
C317 C 0.54912 0.5989 0.18642 0.0
C318 C 0.53511 0.58238 0.14574 0.0
C319 C 0.54662 0.55585 0.12905 0.0
H320 H 0.60611 0.55437 0.21317 0.0
C321 C 0.57267 0.54642 0.15342 0.0
C322 C 0.58668 0.56295 0.19418 0.0
H323 H 0.58204 0.52601 0.14167 0.0
H324 H 0.6074 0.64814 0.44551 0.0
H325 H 0.58657 0.62634 0.36344 0.0
H326 H 0.67153 0.6154 0.30039 0.0
H327 H 0.69253 0.63642 0.38436 0.0
H328 H 0.63029 0.59082 0.25293 0.0
H329 H 0.57406 0.62239 0.27608 0.0
H330 H 0.53951 0.61907 0.19896 0.0
H331 H 0.51508 0.5903 0.12779 0.0
C332 C 0.86282 0.15602 0.85483 0.0
C333 C 0.84639 0.13943 0.88937 0.0
C334 C 0.87488 0.14333 0.80904 0.0
C335 C 0.87032 0.11394 0.79697 0.0
C336 C 0.85256 0.0979 0.83002 0.0
C337 C 0.841 0.11041 0.87621 0.0
C338 C 0.88417 0.09901 0.7512 0.0
C339 C 0.91103 0.10519 0.73611 0.0
C340 C 0.92686 0.08781 0.69556 0.0
C341 C 0.95143 0.0996 0.67281 0.0
C342 C 0.96741 0.08362 0.63588 0.0
C343 C 0.95916 0.05541 0.62105 0.0
H344 H 0.90096 0.04882 0.69904 0.0
C345 C 0.93479 0.0435 0.64421 0.0
C346 C 0.91895 0.05937 0.68122 0.0
H347 H 0.92799 0.02172 0.63411 0.0
H348 H 0.86721 0.17845 0.8644 0.0
H349 H 0.88787 0.15646 0.7835 0.0
H350 H 0.84853 0.0753 0.82128 0.0
H351 H 0.82829 0.09729 0.90231 0.0
H352 H 0.87248 0.08103 0.73259 0.0
H353 H 0.92241 0.12324 0.75541 0.0
H354 H 0.95828 0.12129 0.68356 0.0
H355 H 0.9861 0.09341 0.61876 0.0
C356 C 0.36355 0.35621 0.35367 0.0
C357 C 0.35715 0.36984 0.40301 0.0
C358 C 0.37364 0.37226 0.3107 0.0
C359 C 0.37739 0.40225 0.31641 0.0
C360 C 0.36936 0.41597 0.36462 0.0
C361 C 0.35955 0.39992 0.40766 0.0
C362 C 0.39028 0.41979 0.27371 0.0
C363 C 0.41042 0.40935 0.24076 0.0
C364 C 0.42602 0.42735 0.20208 0.0
C365 C 0.45309 0.41808 0.18541 0.0
C366 C 0.46862 0.43431 0.14929 0.0
C367 C 0.4573 0.46015 0.12864 0.0
H368 H 0.39342 0.46062 0.19159 0.0
C369 C 0.4301 0.46938 0.14493 0.0
C370 C 0.41456 0.45312 0.18111 0.0
H371 H 0.42061 0.489 0.12922 0.0
H372 H 0.36178 0.33305 0.34902 0.0
H373 H 0.37875 0.3611 0.27339 0.0
H374 H 0.37166 0.43907 0.36977 0.0
H375 H 0.35434 0.41099 0.44506 0.0
H376 H 0.38509 0.44258 0.27339 0.0
H377 H 0.41745 0.38717 0.24511 0.0
H378 H 0.46237 0.39824 0.20064 0.0
H379 H 0.48943 0.42647 0.13729 0.0
C380 C 0.14268 0.88954 0.90202 0.0
C381 C 0.14642 0.85973 0.90767 0.0
C382 C 0.12902 0.90065 0.85563 0.0
C383 C 0.11906 0.8822 0.81319 0.0
C384 C 0.12343 0.85241 0.81826 0.0
C385 C 0.13715 0.84126 0.86492 0.0
C386 C 0.10236 0.8933 0.76529 0.0
C387 C 0.10469 0.92063 0.74839 0.0
C388 C 0.08645 0.93353 0.70435 0.0
C389 C 0.09568 0.95933 0.68179 0.0
C390 C 0.07864 0.97342 0.64281 0.0
C391 C 0.05175 0.96215 0.62554 0.0
H392 H 0.05123 0.90268 0.70438 0.0
C393 C 0.04242 0.93625 0.64784 0.0
C394 C 0.05955 0.92209 0.68702 0.0
H395 H 0.02178 0.92705 0.63543 0.0
H396 H 0.14976 0.90433 0.93419 0.0
H397 H 0.12541 0.92363 0.85443 0.0
H398 H 0.11577 0.83768 0.78643 0.0
H399 H 0.13951 0.81815 0.86843 0.0
H400 H 0.08801 0.87841 0.74346 0.0
H401 H 0.12109 0.93448 0.76726 0.0
H402 H 0.11615 0.96878 0.69461 0.0
H403 H 0.08657 0.9933 0.62643 0.0
loop_
_geom_bond_atom_site_label_1
_geom_bond_atom_site_label_2
_geom_bond_distance
_geom_bond_site_symmetry_2
_ccdc_geom_bond_type
H0 C5 0.930 . S
H1 C8 0.930 . S
H2 C10 0.930 . S
H3 C4 1.016 . S
C4 H3 1.016 . S
C4 N11 1.286 1_554 S
C5 H0 0.930 . S
C5 C6 1.397 . S
C5 C7 1.361 1_556 S
C6 C5 1.397 . S
C6 C10 1.390 1_556 S
C7 C5 1.361 1_554 S
C7 C8 1.393 . S
C7 N11 1.413 1_554 S
C8 H1 0.930 . S
C8 C7 1.393 . S
C8 C9 1.399 . S
C9 C8 1.399 . S
C9 C10 1.381 . S
C10 H2 0.930 . S
C10 C6 1.390 1_554 S
C10 C9 1.381 . S
N11 C4 1.286 1_556 S
N11 C7 1.413 1_556 S
H12 C17 0.930 . S
H13 C20 0.930 . S
H14 C22 0.930 . S
H15 C16 1.016 . S
C16 H15 1.016 . S
C16 N23 1.286 . S
C17 H12 0.930 . S
C17 C18 1.397 . S
C17 C19 1.361 . S
C18 C17 1.397 . S
C18 C22 1.390 . S
C19 C17 1.361 . S
C19 C20 1.393 . S
C19 N23 1.413 . S
C20 H13 0.930 . S
C20 C19 1.393 . S
C20 C21 1.399 . S
C21 C20 1.399 . S
C21 C22 1.381 . S
C22 H14 0.930 . S
C22 C18 1.390 . S
C22 C21 1.381 . S
N23 C16 1.286 . S
N23 C19 1.413 . S
H24 C29 0.930 . S
H25 C32 0.930 . S
H26 C34 0.930 1_554 S
H27 C28 1.016 . S
C28 H27 1.016 . S
C28 N35 1.286 1_554 S
C29 H24 0.930 . S
C29 C30 1.397 . S
C29 C31 1.361 . S
C30 C29 1.397 . S
C30 C34 1.403 . S
C31 C29 1.361 . S
C31 C32 1.393 1_556 S
C31 N35 1.413 . S
C32 H25 0.930 . S
C32 C31 1.393 1_554 S
C32 C33 1.399 . S
C33 C32 1.399 . S
C33 C34 1.369 1_554 S
C34 H26 0.930 1_556 S
C34 C30 1.403 . S
C34 C33 1.369 1_556 S
N35 C28 1.286 1_556 S
N35 C31 1.413 . S
H36 C41 0.930 . S
H37 C44 0.930 . S
H38 C46 0.930 . S
H39 C40 1.016 . S
C40 H39 1.016 . S
C40 N47 1.286 . S
C41 H36 0.930 . S
C41 C42 1.397 . S
C41 C43 1.361 . S
C42 C41 1.397 . S
C42 C46 1.390 . S
C43 C41 1.361 . S
C43 C44 1.393 . S
C43 N47 1.413 . S
C44 H37 0.930 . S
C44 C43 1.393 . S
C44 C45 1.399 . S
C45 C44 1.399 . S
C45 C46 1.381 . S
C46 H38 0.930 . S
C46 C42 1.390 . S
C46 C45 1.381 . S
N47 C40 1.286 . S
N47 C43 1.413 . S
C48 O64 1.226 1_565 S
C48 O66 1.254 . S
N49 C50 1.333 . S
N49 C54 1.307 . S
N49 Zn55 2.020 . S
C50 N49 1.333 . S
C50 C51 1.379 . S
C50 H68 0.952 . S
C51 C50 1.379 . S
C51 C52 1.390 . S
C51 H78 0.949 . S
C52 C51 1.390 . S
C52 C53 1.357 . S
C53 C52 1.357 . S
C53 C54 1.370 . S
C53 H79 0.950 . S
C54 N49 1.307 . S
C54 C53 1.370 . S
C54 H72 0.948 . S
Zn55 N49 2.020 . S
Zn55 O64 2.056 . S
Zn55 O70 2.034 1_545 S
Zn55 O74 2.025 1_455 S
Zn55 O76 2.024 1_455 S
C56 O75 1.246 . S
C56 O76 1.249 . S
N57 C58 1.307 . S
N57 C59 1.333 . S
N57 Zn63 2.020 . S
C58 N57 1.307 . S
C58 C62 1.370 . S
C58 H69 0.948 . S
C59 N57 1.333 . S
C59 C60 1.379 . S
C59 H67 0.952 . S
C60 C59 1.379 . S
C60 C61 1.390 . S
C60 H80 0.949 . S
C61 C60 1.390 . S
C61 C62 1.357 . S
C62 C58 1.370 . S
C62 C61 1.357 . S
C62 H81 0.950 . S
Zn63 N57 2.020 . S
Zn63 O66 2.025 1_655 S
Zn63 O71 2.024 1_655 S
Zn63 O73 2.039 1_565 S
Zn63 O75 2.034 1_565 S
O64 C48 1.226 1_545 S
O64 Zn55 2.056 . S
C65 O70 1.246 . S
C65 O71 1.249 . S
O66 C48 1.254 . S
O66 Zn63 2.025 1_455 S
H67 C59 0.952 . S
H68 C50 0.952 . S
H69 C58 0.948 . S
O70 Zn55 2.034 1_565 S
O70 C65 1.246 . S
O71 Zn63 2.024 1_455 S
O71 C65 1.249 . S
H72 C54 0.948 . S
O73 Zn63 2.039 1_545 S
O73 C77 1.251 . S
O74 Zn55 2.025 1_655 S
O74 C77 1.254 . S
O75 C56 1.246 . S
O75 Zn63 2.034 1_545 S
O76 Zn55 2.024 1_655 S
O76 C56 1.249 . S
C77 O73 1.251 . S
C77 O74 1.254 . S
H78 C51 0.949 . S
H79 C53 0.950 . S
H80 C60 0.949 . S
H81 C62 0.950 . S
C82 O98 1.251 . S
C82 O100 1.254 . S
N83 C84 1.333 . S
N83 C88 1.307 . S
N83 Zn89 2.020 . S
C84 N83 1.333 . S
C84 C85 1.380 . S
C84 H102 0.952 1_554 S
C85 C84 1.380 . S
C85 C86 1.391 . S
C85 H112 0.948 1_554 S
C86 C85 1.391 . S
C86 C87 1.357 . S
C87 C86 1.357 . S
C87 C88 1.370 . S
C87 H113 0.950 . S
C88 N83 1.307 . S
C88 C87 1.370 . S
C88 H106 0.948 . S
Zn89 N83 2.020 . S
Zn89 O98 2.039 1_554 S
Zn89 O104 2.034 . S
Zn89 O108 2.025 . S
Zn89 O110 2.024 1_554 S
C90 O109 1.246 . S
C90 O110 1.249 . S
N91 C92 1.307 . S
N91 C93 1.333 . S
N91 Zn97 2.020 . S
C92 N91 1.307 . S
C92 C96 1.370 . S
C92 H103 0.948 1_554 S
C93 N91 1.333 . S
C93 C94 1.379 . S
C93 H101 0.952 . S
C94 C93 1.379 . S
C94 C95 1.390 . S
C94 H114 0.949 . S
C95 C94 1.390 . S
C95 C96 1.357 . S
C96 C92 1.370 . S
C96 C95 1.357 . S
C96 H115 0.950 1_554 S
Zn97 N91 2.020 . S
Zn97 O100 2.025 1_554 S
Zn97 O105 2.024 . S
Zn97 O107 2.039 . S
Zn97 O109 2.034 1_554 S
O98 C82 1.251 . S
O98 Zn89 2.039 1_556 S
C99 O104 1.246 . S
C99 O105 1.249 . S
O100 C82 1.254 . S
O100 Zn97 2.025 1_556 S
H101 C93 0.952 . S
H102 C84 0.952 1_556 S
H103 C92 0.948 1_556 S
O104 Zn89 2.034 . S
O104 C99 1.246 . S
O105 Zn97 2.024 . S
O105 C99 1.249 . S
H106 C88 0.948 . S
O107 Zn97 2.039 . S
O107 C111 1.251 . S
O108 Zn89 2.025 . S
O108 C111 1.254 . S
O109 C90 1.246 . S
O109 Zn97 2.034 1_556 S
O110 Zn89 2.024 1_556 S
O110 C90 1.249 . S
C111 O107 1.251 . S
C111 O108 1.254 . S
H112 C85 0.948 1_556 S
H113 C87 0.950 . S
H114 C94 0.949 . S
H115 C96 0.950 1_556 S
C116 C117 1.386 . S
C116 C118 1.383 . S
C116 H132 0.951 . S
C117 C116 1.386 . S
C117 C121 1.383 . S
C118 C116 1.383 . S
C118 C119 1.402 . S
C118 H133 0.951 . S
C119 C118 1.402 . S
C119 C120 1.375 . S
C119 C122 1.481 . S
C120 C119 1.375 . S
C120 C121 1.367 . S
C120 H134 0.951 . S
C121 C117 1.383 . S
C121 C120 1.367 . S
C121 H135 0.950 . S
C122 C119 1.481 . S
C122 C123 1.297 . S
C122 H136 0.950 . S
C123 C122 1.297 . S
C123 C124 1.479 . S
C123 H137 0.950 . S
C124 C123 1.479 . S
C124 C125 1.375 . S
C124 C130 1.404 . S
C125 C124 1.375 . S
C125 C126 1.369 . S
C125 H138 0.950 . S
C126 C125 1.369 . S
C126 C127 1.392 . S
C126 H139 0.951 . S
C127 C126 1.392 . S
C127 C129 1.384 . S
H128 C130 0.949 . S
C129 C127 1.384 . S
C129 C130 1.385 . S
C129 H131 0.950 . S
C130 C124 1.404 . S
C130 H128 0.949 . S
C130 C129 1.385 . S
H131 C129 0.950 . S
H132 C116 0.951 . S
H133 C118 0.951 . S
H134 C120 0.951 . S
H135 C121 0.950 . S
H136 C122 0.950 . S
H137 C123 0.950 . S
H138 C125 0.950 . S
H139 C126 0.951 . S
C140 C141 1.386 1_556 S
C140 C142 1.383 . S
C140 H156 0.951 . S
C141 C140 1.386 1_554 S
C141 C145 1.383 . S
C142 C140 1.383 . S
C142 C143 1.402 1_556 S
C142 H157 0.951 . S
C143 C142 1.402 1_554 S
C143 C144 1.375 . S
C143 C146 1.481 . S
C144 C143 1.375 . S
C144 C145 1.367 . S
C144 H158 0.951 . S
C145 C141 1.383 . S
C145 C144 1.367 . S
C145 H159 0.950 . S
C146 C143 1.481 . S
C146 C147 1.297 . S
C146 H160 0.950 . S
C147 C146 1.297 . S
C147 C148 1.479 . S
C147 H161 0.950 1_554 S
C148 C147 1.479 . S
C148 C149 1.375 1_554 S
C148 C154 1.404 . S
C149 C148 1.375 1_556 S
C149 C150 1.369 . S
C149 H162 0.950 . S
C150 C149 1.369 . S
C150 C151 1.392 1_556 S
C150 H163 0.951 . S
C151 C150 1.392 1_554 S
C151 C153 1.384 . S
H152 C154 0.949 . S
C153 C151 1.384 . S
C153 C154 1.385 . S
C153 H155 0.950 . S
C154 C148 1.404 . S
C154 H152 0.949 . S
C154 C153 1.385 . S
H155 C153 0.950 . S
H156 C140 0.951 . S
H157 C142 0.951 . S
H158 C144 0.951 . S
H159 C145 0.950 . S
H160 C146 0.950 . S
H161 C147 0.950 1_556 S
H162 C149 0.950 . S
H163 C150 0.951 . S
C164 C165 1.386 . S
C164 C166 1.383 . S
C164 H180 0.951 . S
C165 C164 1.386 . S
C165 C169 1.383 . S
C166 C164 1.383 . S
C166 C167 1.402 . S
C166 H181 0.951 . S
C167 C166 1.402 . S
C167 C168 1.375 . S
C167 C170 1.481 . S
C168 C167 1.375 . S
C168 C169 1.367 . S
C168 H182 0.951 . S
C169 C165 1.383 . S
C169 C168 1.367 . S
C169 H183 0.950 . S
C170 C167 1.481 . S
C170 C171 1.297 . S
C170 H184 0.950 . S
C171 C170 1.297 . S
C171 C172 1.479 . S
C171 H185 0.950 . S
C172 C171 1.479 . S
C172 C173 1.375 . S
C172 C178 1.404 . S
C173 C172 1.375 . S
C173 C174 1.369 . S
C173 H186 0.950 . S
C174 C173 1.369 . S
C174 C175 1.392 . S
C174 H187 0.951 . S
C175 C174 1.392 . S
C175 C177 1.384 . S
H176 C178 0.949 . S
C177 C175 1.384 . S
C177 C178 1.385 . S
C177 H179 0.950 . S
C178 C172 1.404 . S
C178 H176 0.949 . S
C178 C177 1.385 . S
H179 C177 0.950 . S
H180 C164 0.951 . S
H181 C166 0.951 . S
H182 C168 0.951 . S
H183 C169 0.950 . S
H184 C170 0.950 . S
H185 C171 0.950 . S
H186 C173 0.950 . S
H187 C174 0.951 . S
C188 C189 1.386 . S
C188 C190 1.383 . S
C188 H204 0.951 . S
C189 C188 1.386 . S
C189 C193 1.383 . S
C190 C188 1.383 . S
C190 C191 1.402 . S
C190 H205 0.951 . S
C191 C190 1.402 . S
C191 C192 1.375 . S
C191 C194 1.481 . S
C192 C191 1.375 . S
C192 C193 1.367 . S
C192 H206 0.951 . S
C193 C189 1.383 . S
C193 C192 1.367 . S
C193 H207 0.950 . S
C194 C191 1.481 . S
C194 C195 1.297 . S
C194 H208 0.950 . S
C195 C194 1.297 . S
C195 C196 1.479 . S
C195 H209 0.950 . S
C196 C195 1.479 . S
C196 C197 1.375 . S
C196 C202 1.404 . S
C197 C196 1.375 . S
C197 C198 1.369 . S
C197 H210 0.950 . S
C198 C197 1.369 . S
C198 C199 1.392 . S
C198 H211 0.951 . S
C199 C198 1.392 . S
C199 C201 1.384 . S
H200 C202 0.949 . S
C201 C199 1.384 . S
C201 C202 1.385 . S
C201 H203 0.950 . S
C202 C196 1.404 . S
C202 H200 0.949 . S
C202 C201 1.385 . S
H203 C201 0.950 . S
H204 C188 0.951 . S
H205 C190 0.951 . S
H206 C192 0.951 . S
H207 C193 0.950 . S
H208 C194 0.950 . S
H209 C195 0.950 . S
H210 C197 0.950 . S
H211 C198 0.951 . S
C212 C213 1.386 . S
C212 C214 1.383 . S
C212 H228 0.951 . S
C213 C212 1.386 . S
C213 C217 1.383 . S
C214 C212 1.383 . S
C214 C215 1.402 . S
C214 H229 0.951 . S
C215 C214 1.402 . S
C215 C216 1.375 . S
C215 C218 1.481 . S
C216 C215 1.375 . S
C216 C217 1.367 . S
C216 H230 0.951 . S
C217 C213 1.383 . S
C217 C216 1.367 . S
C217 H231 0.950 . S
C218 C215 1.481 . S
C218 C219 1.297 . S
C218 H232 0.950 . S
C219 C218 1.297 . S
C219 C220 1.479 . S
C219 H233 0.950 . S
C220 C219 1.479 . S
C220 C221 1.375 . S
C220 C226 1.404 . S
C221 C220 1.375 . S
C221 C222 1.369 . S
C221 H234 0.950 . S
C222 C221 1.369 . S
C222 C223 1.392 . S
C222 H235 0.951 . S
C223 C222 1.392 . S
C223 C225 1.384 . S
H224 C226 0.949 . S
C225 C223 1.384 . S
C225 C226 1.385 . S
C225 H227 0.950 . S
C226 C220 1.404 . S
C226 H224 0.949 . S
C226 C225 1.385 . S
H227 C225 0.950 . S
H228 C212 0.951 . S
H229 C214 0.951 . S
H230 C216 0.951 . S
H231 C217 0.950 . S
H232 C218 0.950 . S
H233 C219 0.950 . S
H234 C221 0.950 . S
H235 C222 0.951 . S
C236 C237 1.386 . S
C236 C238 1.383 . S
C236 H252 0.951 . S
C237 C236 1.386 . S
C237 C241 1.383 . S
C238 C236 1.383 . S
C238 C239 1.402 . S
C238 H253 0.951 . S
C239 C238 1.402 . S
C239 C240 1.375 . S
C239 C242 1.481 . S
C240 C239 1.375 . S
C240 C241 1.367 . S
C240 H254 0.951 . S
C241 C237 1.383 . S
C241 C240 1.367 . S
C241 H255 0.950 . S
C242 C239 1.481 . S
C242 C243 1.297 . S
C242 H256 0.950 . S
C243 C242 1.297 . S
C243 C244 1.479 . S
C243 H257 0.950 . S
C244 C243 1.479 . S
C244 C245 1.375 . S
C244 C250 1.404 . S
C245 C244 1.375 . S
C245 C246 1.369 . S
C245 H258 0.950 . S
C246 C245 1.369 . S
C246 C247 1.392 . S
C246 H259 0.951 . S
C247 C246 1.392 . S
C247 C249 1.384 . S
H248 C250 0.949 . S
C249 C247 1.384 . S
C249 C250 1.385 . S
C249 H251 0.950 . S
C250 C244 1.404 . S
C250 H248 0.949 . S
C250 C249 1.385 . S
H251 C249 0.950 . S
H252 C236 0.951 . S
H253 C238 0.951 . S
H254 C240 0.951 . S
H255 C241 0.950 . S
H256 C242 0.950 . S
H257 C243 0.950 . S
H258 C245 0.950 . S
H259 C246 0.951 . S
C260 C261 1.386 . S
C260 C262 1.383 . S
C260 H276 0.951 . S
C261 C260 1.386 . S
C261 C265 1.383 . S
C262 C260 1.383 . S
C262 C263 1.402 . S
C262 H277 0.951 . S
C263 C262 1.402 . S
C263 C264 1.375 . S
C263 C266 1.481 . S
C264 C263 1.375 . S
C264 C265 1.367 . S
C264 H278 0.951 . S
C265 C261 1.383 . S
C265 C264 1.367 . S
C265 H279 0.950 . S
C266 C263 1.481 . S
C266 C267 1.297 . S
C266 H280 0.950 . S
C267 C266 1.297 . S
C267 C268 1.479 . S
C267 H281 0.950 . S
C268 C267 1.479 . S
C268 C269 1.375 . S
C268 C274 1.404 . S
C269 C268 1.375 . S
C269 C270 1.369 . S
C269 H282 0.950 . S
C270 C269 1.369 . S
C270 C271 1.392 . S
C270 H283 0.951 . S
C271 C270 1.392 . S
C271 C273 1.384 . S
H272 C274 0.949 . S
C273 C271 1.384 . S
C273 C274 1.385 . S
C273 H275 0.950 . S
C274 C268 1.404 . S
C274 H272 0.949 . S
C274 C273 1.385 . S
H275 C273 0.950 . S
H276 C260 0.951 . S
H277 C262 0.951 . S
H278 C264 0.951 . S
H279 C265 0.950 . S
H280 C266 0.950 . S
H281 C267 0.950 . S
H282 C269 0.950 . S
H283 C270 0.951 . S
C284 C285 1.386 . S
C284 C286 1.383 . S
C284 H300 0.951 . S
C285 C284 1.386 . S
C285 C289 1.383 . S
C286 C284 1.383 . S
C286 C287 1.402 . S
C286 H301 0.951 . S
C287 C286 1.402 . S
C287 C288 1.375 . S
C287 C290 1.481 . S
C288 C287 1.375 . S
C288 C289 1.367 . S
C288 H302 0.951 . S
C289 C285 1.383 . S
C289 C288 1.367 . S
C289 H303 0.950 . S
C290 C287 1.481 . S
C290 C291 1.297 . S
C290 H304 0.950 . S
C291 C290 1.297 . S
C291 C292 1.479 . S
C291 H305 0.950 . S
C292 C291 1.479 . S
C292 C293 1.375 . S
C292 C298 1.404 . S
C293 C292 1.375 . S
C293 C294 1.369 . S
C293 H306 0.950 . S
C294 C293 1.369 . S
C294 C295 1.392 . S
C294 H307 0.951 . S
C295 C294 1.392 . S
C295 C297 1.384 . S
H296 C298 0.949 . S
C297 C295 1.384 . S
C297 C298 1.385 . S
C297 H299 0.950 . S
C298 C292 1.404 . S
C298 H296 0.949 . S
C298 C297 1.385 . S
H299 C297 0.950 . S
H300 C284 0.951 . S
H301 C286 0.951 . S
H302 C288 0.951 . S
H303 C289 0.950 . S
H304 C290 0.950 . S
H305 C291 0.950 . S
H306 C293 0.950 . S
H307 C294 0.951 . S
C308 C309 1.386 . S
C308 C310 1.383 . S
C308 H324 0.951 . S
C309 C308 1.386 . S
C309 C313 1.383 . S
C310 C308 1.383 . S
C310 C311 1.402 . S
C310 H325 0.951 . S
C311 C310 1.402 . S
C311 C312 1.375 . S
C311 C314 1.481 . S
C312 C311 1.375 . S
C312 C313 1.367 . S
C312 H326 0.951 . S
C313 C309 1.383 . S
C313 C312 1.367 . S
C313 H327 0.950 . S
C314 C311 1.481 . S
C314 C315 1.297 . S
C314 H328 0.950 . S
C315 C314 1.297 . S
C315 C316 1.479 . S
C315 H329 0.950 . S
C316 C315 1.479 . S
C316 C317 1.375 . S
C316 C322 1.404 . S
C317 C316 1.375 . S
C317 C318 1.369 . S
C317 H330 0.950 . S
C318 C317 1.369 . S
C318 C319 1.392 . S
C318 H331 0.951 . S
C319 C318 1.392 . S
C319 C321 1.384 . S
H320 C322 0.949 . S
C321 C319 1.384 . S
C321 C322 1.385 . S
C321 H323 0.950 . S
C322 C316 1.404 . S
C322 H320 0.949 . S
C322 C321 1.385 . S
H323 C321 0.950 . S
H324 C308 0.951 . S
H325 C310 0.951 . S
H326 C312 0.951 . S
H327 C313 0.950 . S
H328 C314 0.950 . S
H329 C315 0.950 . S
H330 C317 0.950 . S
H331 C318 0.951 . S
C332 C333 1.386 . S
C332 C334 1.383 . S
C332 H348 0.951 . S
C333 C332 1.386 . S
C333 C337 1.383 . S
C334 C332 1.383 . S
C334 C335 1.402 . S
C334 H349 0.951 . S
C335 C334 1.402 . S
C335 C336 1.375 . S
C335 C338 1.481 . S
C336 C335 1.375 . S
C336 C337 1.367 . S
C336 H350 0.951 . S
C337 C333 1.383 . S
C337 C336 1.367 . S
C337 H351 0.950 . S
C338 C335 1.481 . S
C338 C339 1.297 . S
C338 H352 0.950 . S
C339 C338 1.297 . S
C339 C340 1.479 . S
C339 H353 0.950 . S
C340 C339 1.479 . S
C340 C341 1.375 . S
C340 C346 1.404 . S
C341 C340 1.375 . S
C341 C342 1.369 . S
C341 H354 0.950 . S
C342 C341 1.369 . S
C342 C343 1.392 . S
C342 H355 0.951 . S
C343 C342 1.392 . S
C343 C345 1.384 . S
H344 C346 0.949 . S
C345 C343 1.384 . S
C345 C346 1.385 . S
C345 H347 0.950 . S
C346 C340 1.404 . S
C346 H344 0.949 . S
C346 C345 1.385 . S
H347 C345 0.950 . S
H348 C332 0.951 . S
H349 C334 0.951 . S
H350 C336 0.951 . S
H351 C337 0.950 . S
H352 C338 0.950 . S
H353 C339 0.950 . S
H354 C341 0.950 . S
H355 C342 0.951 . S
C356 C357 1.386 . S
C356 C358 1.383 . S
C356 H372 0.951 . S
C357 C356 1.386 . S
C357 C361 1.383 . S
C358 C356 1.383 . S
C358 C359 1.402 . S
C358 H373 0.951 . S
C359 C358 1.402 . S
C359 C360 1.375 . S
C359 C362 1.481 . S
C360 C359 1.375 . S
C360 C361 1.367 . S
C360 H374 0.951 . S
C361 C357 1.383 . S
C361 C360 1.367 . S
C361 H375 0.950 . S
C362 C359 1.481 . S
C362 C363 1.297 . S
C362 H376 0.950 . S
C363 C362 1.297 . S
C363 C364 1.479 . S
C363 H377 0.950 . S
C364 C363 1.479 . S
C364 C365 1.375 . S
C364 C370 1.404 . S
C365 C364 1.375 . S
C365 C366 1.369 . S
C365 H378 0.950 . S
C366 C365 1.369 . S
C366 C367 1.392 . S
C366 H379 0.951 . S
C367 C366 1.392 . S
C367 C369 1.384 . S
H368 C370 0.949 . S
C369 C367 1.384 . S
C369 C370 1.385 . S
C369 H371 0.950 . S
C370 C364 1.404 . S
C370 H368 0.949 . S
C370 C369 1.385 . S
H371 C369 0.950 . S
H372 C356 0.951 . S
H373 C358 0.951 . S
H374 C360 0.951 . S
H375 C361 0.950 . S
H376 C362 0.950 . S
H377 C363 0.950 . S
H378 C365 0.950 . S
H379 C366 0.951 . S
C380 C381 1.386 . S
C380 C382 1.383 . S
C380 H396 0.951 . S
C381 C380 1.386 . S
C381 C385 1.383 . S
C382 C380 1.383 . S
C382 C383 1.402 . S
C382 H397 0.951 . S
C383 C382 1.402 . S
C383 C384 1.375 . S
C383 C386 1.481 . S
C384 C383 1.375 . S
C384 C385 1.367 . S
C384 H398 0.951 . S
C385 C381 1.383 . S
C385 C384 1.367 . S
C385 H399 0.950 . S
C386 C383 1.481 . S
C386 C387 1.297 . S
C386 H400 0.950 . S
C387 C386 1.297 . S
C387 C388 1.479 . S
C387 H401 0.950 . S
C388 C387 1.479 . S
C388 C389 1.375 . S
C388 C394 1.404 . S
C389 C388 1.375 . S
C389 C390 1.369 . S
C389 H402 0.950 . S
C390 C389 1.369 . S
C390 C391 1.392 . S
C390 H403 0.970 . S
C391 C390 1.392 . S
C391 C393 1.384 . S
H392 C394 0.949 . S
C393 C391 1.384 . S
C393 C394 1.385 . S
C393 H395 0.950 . S
C394 C388 1.404 . S
C394 H392 0.949 . S
C394 C393 1.385 . S
H395 C393 0.950 . S
H396 C380 0.951 . S
H397 C382 0.951 . S
H398 C384 0.951 . S
H399 C385 0.950 . S
H400 C386 0.950 . S
H401 C387 0.950 . S
H402 C389 0.950 . S
H403 C390 0.970 . S
C127 C52 1.488 . S
C117 C40 1.502 . S
C141 C4 1.498 . S
C151 C95 1.508 . S
C165 C16 1.510 . S
C175 C61 1.508 . S
C189 C28 1.497 . S
C199 C86 1.494 . S
C223 C48 1.542 . S
C213 C9 1.548 . S
C247 C90 1.535 . S
C237 C18 1.541 . S
C261 C33 1.552 . S
C271 C56 1.533 . S
C285 C45 1.523 . S
C295 C82 1.529 . S
C319 C111 1.466 . S
C309 C21 1.474 . S
C343 C77 1.459 . S
C333 C30 1.451 . S
C367 C99 1.464 . S
C357 C42 1.463 . S
C381 C6 1.462 . S
C391 C65 1.447 . S
