# Generated by pormake.
# Topology pyr, (3,6)-cn, num edge types: 1
# Building blocks:
#     Node 0, Type 0, BuildingBlock: PAMTOO_clean_linker_0, # of connection points: 3
#     Node 1, Type 0, BuildingBlock: PAMTOO_clean_linker_0, # of connection points: 3
#     Node 2, Type 0, BuildingBlock: PAMTOO_clean_linker_0, # of connection points: 3
#     Node 3, Type 0, BuildingBlock: PAMTOO_clean_linker_0, # of connection points: 3
#     Node 4, Type 0, BuildingBlock: PAMTOO_clean_linker_0, # of connection points: 3
#     Node 5, Type 0, BuildingBlock: PAMTOO_clean_linker_0, # of connection points: 3
#     Node 6, Type 0, BuildingBlock: PAMTOO_clean_linker_0, # of connection points: 3
#     Node 7, Type 0, BuildingBlock: PAMTOO_clean_linker_0, # of connection points: 3
#     Node 8, Type 1, BuildingBlock: JUFBIX_clean_sbu_0, # of connection points: 6
#     Node 9, Type 1, BuildingBlock: JUFBIX_clean_sbu_0, # of connection points: 6
#     Node 10, Type 1, BuildingBlock: JUFBIX_clean_sbu_0, # of connection points: 6
#     Node 11, Type 1, BuildingBlock: JUFBIX_clean_sbu_0, # of connection points: 6
#     Edge 12, Type (0, 1), BuildingBlock: XIVTED_clean_linker_0, # of connection points: 2
#     Edge 13, Type (0, 1), BuildingBlock: XIVTED_clean_linker_0, # of connection points: 2
#     Edge 14, Type (0, 1), BuildingBlock: XIVTED_clean_linker_0, # of connection points: 2
#     Edge 15, Type (0, 1), BuildingBlock: XIVTED_clean_linker_0, # of connection points: 2
#     Edge 16, Type (0, 1), BuildingBlock: XIVTED_clean_linker_0, # of connection points: 2
#     Edge 17, Type (0, 1), BuildingBlock: XIVTED_clean_linker_0, # of connection points: 2
#     Edge 18, Type (0, 1), BuildingBlock: XIVTED_clean_linker_0, # of connection points: 2
#     Edge 19, Type (0, 1), BuildingBlock: XIVTED_clean_linker_0, # of connection points: 2
#     Edge 20, Type (0, 1), BuildingBlock: XIVTED_clean_linker_0, # of connection points: 2
#     Edge 21, Type (0, 1), BuildingBlock: XIVTED_clean_linker_0, # of connection points: 2
#     Edge 22, Type (0, 1), BuildingBlock: XIVTED_clean_linker_0, # of connection points: 2
#     Edge 23, Type (0, 1), BuildingBlock: XIVTED_clean_linker_0, # of connection points: 2
#     Edge 24, Type (0, 1), BuildingBlock: XIVTED_clean_linker_0, # of connection points: 2
#     Edge 25, Type (0, 1), BuildingBlock: XIVTED_clean_linker_0, # of connection points: 2
#     Edge 26, Type (0, 1), BuildingBlock: XIVTED_clean_linker_0, # of connection points: 2
#     Edge 27, Type (0, 1), BuildingBlock: XIVTED_clean_linker_0, # of connection points: 2
#     Edge 28, Type (0, 1), BuildingBlock: XIVTED_clean_linker_0, # of connection points: 2
#     Edge 29, Type (0, 1), BuildingBlock: XIVTED_clean_linker_0, # of connection points: 2
#     Edge 30, Type (0, 1), BuildingBlock: XIVTED_clean_linker_0, # of connection points: 2
#     Edge 31, Type (0, 1), BuildingBlock: XIVTED_clean_linker_0, # of connection points: 2
#     Edge 32, Type (0, 1), BuildingBlock: XIVTED_clean_linker_0, # of connection points: 2
#     Edge 33, Type (0, 1), BuildingBlock: XIVTED_clean_linker_0, # of connection points: 2
#     Edge 34, Type (0, 1), BuildingBlock: XIVTED_clean_linker_0, # of connection points: 2
#     Edge 35, Type (0, 1), BuildingBlock: XIVTED_clean_linker_0, # of connection points: 2
# Relax obj value: 0.124
# Max RMSD: 0.202
# Mean RMSD: 0.138
data_MOF--net-pyr--node1-JUFBIX_clean_sbu_0--node2-PAMTOO_clean_linker_0--edge1-XIVTED_clean_linker_0
_symmetry_space_group_name_H-M    P1
_symmetry_Int_Tables_number       1
_symmetry_cell_setting            triclinic
loop_
_symmetry_equiv_pos_as_xyz
'x, y, z'
_cell_length_a     36.612224
_cell_length_b     35.73567
_cell_length_c     37.310988
_cell_angle_alpha  83.552168
_cell_angle_beta   88.859622
_cell_angle_gamma 94.576975
loop_
_atom_site_label
_atom_site_type_symbol
_atom_site_fract_x
_atom_site_fract_y
_atom_site_fract_z
_atom_type_partial_charge
H0 H 0.15368 0.19348 0.23343 0.0
H1 H 0.23652 0.1142 0.24582 0.0
H2 H 0.24029 0.19662 0.1528 0.0
H3 H 0.25082 0.11539 0.14231 0.0
C4 C 0.27092 0.11032 0.16398 0.0
O5 O 0.27228 0.13987 0.18511 0.0
H6 H 0.26117 0.08365 0.1809 0.0
C7 C 0.17816 0.18246 0.22348 0.0
C8 C 0.19485 0.19919 0.19043 0.0
C9 C 0.19282 0.1519 0.24409 0.0
C10 C 0.22476 0.13781 0.2308 0.0
C11 C 0.24143 0.15359 0.19764 0.0
C12 C 0.22654 0.1842 0.17778 0.0
H13 H 0.42918 0.98066 0.6554 0.0
H14 H 0.4182 0.8969 0.58156 0.0
H15 H 0.51807 0.91197 0.63801 0.0
H16 H 0.52444 0.88856 0.55932 0.0
C17 C 0.49787 0.87091 0.56142 0.0
O18 O 0.48169 0.87134 0.59492 0.0
H19 H 0.47973 0.88242 0.54002 0.0
C20 C 0.44136 0.95978 0.64108 0.0
C21 C 0.47673 0.94948 0.64949 0.0
C22 C 0.42012 0.94126 0.61648 0.0
C23 C 0.43482 0.91276 0.5993 0.0
C24 C 0.47013 0.90256 0.60705 0.0
C25 C 0.49125 0.92118 0.63156 0.0
H26 H 0.76637 0.30474 0.93069 0.0
H27 H 0.67666 0.33144 0.86148 0.0
H28 H 0.76921 0.41204 0.86529 0.0
H29 H 0.702 0.44787 0.85604 0.0
C30 C 0.68476 0.42537 0.84451 0.0
O31 O 0.70641 0.39788 0.8353 0.0
H32 H 0.66363 0.41303 0.86533 0.0
C33 C 0.75367 0.3239 0.91103 0.0
C34 C 0.77172 0.35954 0.89975 0.0
C35 C 0.71908 0.31334 0.89771 0.0
C36 C 0.70336 0.33865 0.87199 0.0
C37 C 0.72154 0.37399 0.86029 0.0
C38 C 0.75552 0.38447 0.87427 0.0
H39 H 0.95318 0.68742 0.51999 0.0
H40 H 0.93907 0.60367 0.44565 0.0
H41 H 0.03001 0.68711 0.43125 0.0
H42 H 0.99695 0.67699 0.36596 0.0
C43 C 0.98151 0.64891 0.37287 0.0
O44 O 0.99478 0.63121 0.40417 0.0
H45 H 0.95208 0.65387 0.3767 0.0
C46 C 0.96318 0.67404 0.49747 0.0
C47 C 0.99449 0.69064 0.47754 0.0
C48 C 0.94277 0.64245 0.48639 0.0
C49 C 0.95523 0.6266 0.45602 0.0
C50 C 0.9866 0.64272 0.4364 0.0
C51 C 1.00658 0.67408 0.44757 0.0
H52 H 0.83651 0.91284 0.84147 0.0
H53 H 0.83777 0.82497 0.93073 0.0
H54 H 0.91974 0.83363 0.84621 0.0
H55 H 0.88625 0.75752 0.87144 0.0
C56 C 0.88628 0.75945 0.90102 0.0
O57 O 0.89624 0.79622 0.90739 0.0
H58 H 0.8579 0.75107 0.91181 0.0
C59 C 0.84835 0.88832 0.85477 0.0
C60 C 0.88007 0.87564 0.83943 0.0
C61 C 0.8328 0.87059 0.88798 0.0
C62 C 0.84929 0.83941 0.90546 0.0
C63 C 0.88047 0.82615 0.89028 0.0
C64 C 0.89575 0.84436 0.85758 0.0
H65 H 0.68451 0.11827 0.37047 0.0
H66 H 0.58835 0.17983 0.37368 0.0
H67 H 0.67442 0.19775 0.44797 0.0
H68 H 0.60108 0.18909 0.47793 0.0
C69 C 0.5881 0.20869 0.45759 0.0
O70 O 0.61023 0.21718 0.42695 0.0
H71 H 0.56145 0.19473 0.45034 0.0
C72 C 0.66901 0.13863 0.38237 0.0
C73 C 0.68369 0.15703 0.41075 0.0
C74 C 0.63464 0.14655 0.36894 0.0
C75 C 0.61475 0.1731 0.38411 0.0
C76 C 0.62904 0.19115 0.4128 0.0
C77 C 0.66345 0.18323 0.42604 0.0
H78 H 0.3444 0.69826 0.12394 0.0
H79 H 0.3316 0.60729 0.21049 0.0
H80 H 0.42554 0.68688 0.20603 0.0
H81 H 0.43512 0.60313 0.22134 0.0
C82 C 0.41232 0.59667 0.24187 0.0
O83 O 0.39161 0.62721 0.2422 0.0
H84 H 0.39489 0.57191 0.23448 0.0
C85 C 0.35465 0.68329 0.14804 0.0
C86 C 0.38759 0.69707 0.16272 0.0
C87 C 0.33411 0.65093 0.16504 0.0
C88 C 0.34674 0.63245 0.19709 0.0
C89 C 0.37961 0.64548 0.21156 0.0
C90 C 0.39995 0.67754 0.19449 0.0
H91 H 0.06269 0.34621 0.6795 0.0
H92 H 0.12718 0.44767 0.63459 0.0
H93 H 0.08337 0.36925 0.56489 0.0
H94 H 0.14494 0.43292 0.51826 0.0
C95 C 0.15012 0.42382 0.54705 0.0
O96 O 0.12135 0.43363 0.5677 0.0
H97 H 0.15114 0.39258 0.54913 0.0
C98 C 0.07525 0.36424 0.65654 0.0
C99 C 0.07142 0.35288 0.6218 0.0
C100 C 0.09484 0.39868 0.66173 0.0
C101 C 0.111 0.42158 0.63145 0.0
C102 C 0.10629 0.41112 0.59671 0.0
C103 C 0.08585 0.37734 0.59192 0.0
Co104 Co 1.00785 0.02508 0.53167 0.0
C105 C 0.0405 0.95675 0.52805 0.0
Co106 Co 0.06147 0.02123 0.55696 0.0
C107 C 0.94261 0.05267 0.49797 0.0
C108 C 0.9384 0.99282 0.513 0.0
N109 N 0.96212 0.02396 0.51127 0.0
N110 N 0.90764 0.04053 0.49205 0.0
C111 C 0.90494 1.00293 0.50131 0.0
H112 H 0.95296 0.08212 0.49515 0.0
H113 H 0.9443 0.96479 0.52426 0.0
C114 C 0.02915 0.08936 0.56149 0.0
N115 N 0.10589 0.02163 0.57935 0.0
C116 C 0.13728 0.007 0.57054 0.0
C117 C 0.11241 0.0357 0.61089 0.0
N118 N 0.16293 0.01117 0.59563 0.0
C119 C 0.14737 0.0294 0.6209 0.0
C120 C 0.06624 0.05046 0.48369 0.0
O121 O 1.00292 0.07483 0.54449 0.0
O122 O 0.05672 0.07077 0.56851 0.0
O123 O 0.08502 0.0414 0.51134 0.0
O124 O 0.03133 0.04607 0.48664 0.0
O125 O 0.06599 0.97142 0.54579 0.0
H126 H 0.09266 0.04901 0.62609 0.0
H127 H 0.14077 0.99248 0.54691 0.0
O128 O 1.01351 0.9756 0.51899 0.0
O129 O 0.98451 1.00391 0.57698 0.0
O130 O 0.0378 1.00105 0.60192 0.0
C131 C 1.00313 0.99543 0.60467 0.0
H132 H 0.88008 0.9844 0.50112 0.0
H133 H 0.16024 0.03745 0.64507 0.0
Co134 Co 0.54178 0.99958 0.9997 0.0
C135 C 0.52728 0.93735 0.05186 0.0
Co136 Co 0.57141 1.00352 0.05015 0.0
C137 C 0.53048 0.99778 0.92407 0.0
C138 C 0.47957 0.99164 0.95424 0.0
N139 N 0.51622 0.99567 0.95793 0.0
N140 N 0.50424 0.99547 0.89947 0.0
C141 C 0.47211 0.99173 0.91821 0.0
H142 H 0.55955 1.0016 0.91742 0.0
H143 H 0.45954 0.98887 0.97628 0.0
C144 C 0.5859 0.06586 0.99837 0.0
N145 N 0.59799 0.00882 0.09133 0.0
C146 C 0.58586 0.01514 0.12438 0.0
C147 C 0.6348 0.01549 0.09191 0.0
N148 N 0.61358 0.02617 0.14503 0.0
C149 C 0.6444 0.02641 0.12478 0.0
C150 C 0.61006 0.97015 0.99795 0.0
O151 O 0.56359 0.04775 0.97968 0.0
O152 O 0.5928 0.05148 0.02992 0.0
O153 O 0.61114 0.97962 0.02978 0.0
O154 O 0.58163 0.97594 0.97984 0.0
O155 O 0.54981 0.95572 0.07025 0.0
H156 H 0.65331 0.01565 0.06893 0.0
H157 H 0.55721 0.01512 0.13209 0.0
O158 O 0.5201 0.95128 0.02008 0.0
O159 O 0.50207 0.02332 0.01984 0.0
O160 O 0.53123 0.02718 0.07001 0.0
C161 C 0.50289 0.03286 0.05166 0.0
H162 H 0.44527 0.98858 0.90672 0.0
H163 H 0.67154 0.03643 0.13234 0.0
Co164 Co 0.57273 0.53883 0.53766 0.0
C165 C 0.51636 0.53943 0.48767 0.0
Co166 Co 0.51736 0.51976 0.56081 0.0
C167 C 0.65202 0.55468 0.52745 0.0
C168 C 0.62101 0.58766 0.48946 0.0
N169 N 0.61742 0.55915 0.51662 0.0
N170 N 0.67666 0.57975 0.50843 0.0
C171 C 0.65726 0.60033 0.48443 0.0
H172 H 0.65876 0.53531 0.55033 0.0
H173 H 0.59851 0.60013 0.47559 0.0
C174 C 0.57383 0.51882 0.6107 0.0
N175 N 0.47254 0.50021 0.58198 0.0
C176 C 0.4383 0.50906 0.57355 0.0
C177 C 0.46769 0.47138 0.60866 0.0
N178 N 0.41229 0.48679 0.59392 0.0
C179 C 0.43087 0.46314 0.61608 0.0
C180 C 0.55799 0.46305 0.53747 0.0
O181 O 0.59425 0.53124 0.58337 0.0
O182 O 0.53958 0.51252 0.60669 0.0
O183 O 0.52784 0.47022 0.55174 0.0
O184 O 0.58275 0.48975 0.52884 0.0
O185 O 0.49572 0.52708 0.5149 0.0
H186 H 0.48953 0.45644 0.62119 0.0
H187 H 0.43266 0.53103 0.55248 0.0
O188 O 0.55049 0.54599 0.49199 0.0
O189 O 0.56254 0.5877 0.54661 0.0
O190 O 0.50734 0.56968 0.56918 0.0
C191 C 0.53255 0.59584 0.56015 0.0
H192 H 0.6684 0.62391 0.46555 0.0
H193 H 0.41879 0.44031 0.63522 0.0
Co194 Co 0.07266 0.48674 1.01106 0.0
C195 C 1.00245 0.45159 1.0127 0.0
Co196 Co 0.04244 0.48875 0.06258 0.0
C197 C 0.09228 0.46636 0.93985 0.0
C198 C 0.12266 0.51643 0.95291 0.0
N199 N 0.09779 0.48837 0.96682 0.0
N200 N 0.11235 0.47996 0.9097 0.0
C201 C 0.13168 0.5113 0.91803 0.0
H202 H 0.07235 0.44213 0.94151 0.0
H203 H 0.13236 0.54033 0.9665 0.0
C204 C 0.11218 0.52471 0.06117 0.0
N205 N 0.01758 0.48784 0.10626 0.0
C206 C 0.01926 0.51491 0.12873 0.0
C207 C 0.99614 0.45886 0.12389 0.0
N208 N 1.00007 0.50391 0.1599 0.0
C209 C 0.98526 0.46868 0.15685 0.0
C210 C 0.08427 0.42604 0.06137 0.0
O211 O 0.11332 0.51463 0.02963 0.0
O212 O 0.08331 0.51603 0.08065 0.0
O213 O 0.0623 0.44277 0.07967 0.0
O214 O 0.09303 0.44009 0.02908 0.0
O215 O 1.00162 0.46181 0.0442 0.0
H216 H 0.98979 0.4319 0.1139 0.0
H217 H 0.03477 0.542 0.12244 0.0
O218 O 0.03159 0.45894 0.99327 0.0
O219 O 0.05187 0.53333 0.99371 0.0
O220 O 0.02273 0.53475 0.04535 0.0
C221 C 0.03036 0.54948 1.01319 0.0
H222 H 0.1502 0.52993 0.89984 0.0
H223 H 0.96896 0.4507 0.17748 0.0
H224 H 0.22526 0.12695 0.30771 0.0
H225 H 0.03456 0.07311 0.41949 0.0
H226 H 0.11899 0.1387 0.26175 0.0
H227 H 0.14029 0.06172 0.46672 0.0
H228 H 0.06522 0.09662 0.36156 0.0
H229 H 0.19504 0.10189 0.36562 0.0
C230 C 0.19559 0.12405 0.3096 0.0
C231 C 0.1748 0.13523 0.27952 0.0
C232 C 0.08178 0.08901 0.38456 0.0
C233 C 0.13983 0.10676 0.34631 0.0
C234 C 0.06424 0.07557 0.41777 0.0
C235 C 0.08476 0.06537 0.44828 0.0
C236 C 0.12029 0.09238 0.38149 0.0
C237 C 0.12322 0.06924 0.44409 0.0
C238 C 0.17832 0.10993 0.34286 0.0
C239 C 0.13636 0.13114 0.28411 0.0
N240 N 0.13966 0.08237 0.41145 0.0
N241 N 0.12025 0.11734 0.31668 0.0
H242 H 0.47861 0.02103 0.67053 0.0
H243 H 0.55459 0.95966 0.86546 0.0
H244 H 0.51596 0.91058 0.70127 0.0
H245 H 0.46562 0.03077 0.84694 0.0
H246 H 0.55906 0.95481 0.80028 0.0
H247 H 0.49357 0.03831 0.73044 0.0
C248 C 0.49059 1.00064 0.68952 0.0
C249 C 0.49503 0.96388 0.68107 0.0
C250 C 0.539 0.97193 0.81054 0.0
C251 C 0.51295 0.98393 0.74913 0.0
C252 C 0.53649 0.97475 0.8475 0.0
C253 C 0.50942 0.99528 0.8613 0.0
C254 C 0.5148 0.99051 0.78737 0.0
C255 C 0.48644 0.01424 0.83718 0.0
C256 C 0.49916 0.01061 0.72361 0.0
C257 C 0.51186 0.93916 0.70642 0.0
N258 N 0.48959 0.01137 0.8013 0.0
N259 N 0.51976 0.94947 0.73954 0.0
H260 H 0.61293 0.41456 0.8252 0.0
H261 H 0.64543 0.53092 0.62962 0.0
H262 H 0.71651 0.4733 0.78818 0.0
H263 H 0.53893 0.4849 0.6729 0.0
H264 H 0.67199 0.51078 0.68752 0.0
H265 H 0.58524 0.44032 0.7695 0.0
C266 C 0.6297 0.43319 0.80538 0.0
C267 C 0.66688 0.44226 0.81127 0.0
C268 C 0.64278 0.50532 0.68442 0.0
C269 C 0.6357 0.47139 0.74736 0.0
C270 C 0.62758 0.51683 0.65136 0.0
C271 C 0.5899 0.50948 0.64634 0.0
C272 C 0.6202 0.48608 0.71261 0.0
C273 C 0.56812 0.49114 0.67551 0.0
C274 C 0.61396 0.44787 0.77361 0.0
C275 C 0.68764 0.46602 0.78462 0.0
N276 N 0.58362 0.47986 0.70728 0.0
N277 N 0.6718 0.47972 0.75374 0.0
H278 H 0.93488 0.58995 0.3565 0.0
H279 H 0.0498 0.5581 0.17917 0.0
H280 H 0.03684 0.65339 0.32159 0.0
H281 H 0.94626 0.49619 0.21202 0.0
H282 H 0.04625 0.59203 0.23204 0.0
H283 H 0.93972 0.55314 0.30518 0.0
C284 C 0.95829 0.59598 0.33793 0.0
C285 C 0.98517 0.62502 0.34264 0.0
C286 C 0.02429 0.57102 0.22772 0.0
C287 C 0.99111 0.58323 0.28426 0.0
C288 C 0.02614 0.55181 0.19731 0.0
C289 C 0.99815 0.52435 0.19095 0.0
C290 C 0.99422 0.56279 0.25204 0.0
C291 C 0.96859 0.51688 0.21597 0.0
C292 C 0.96107 0.57508 0.30871 0.0
C293 C 1.01532 0.63152 0.31841 0.0
N294 N 0.96736 0.53605 0.24537 0.0
N295 N 0.01737 0.61094 0.29009 0.0
H296 H 0.33557 0.09655 0.19823 0.0
H297 H 0.44011 0.05281 0.01813 0.0
H298 H 0.29057 0.11091 0.09224 0.0
H299 H 0.49134 0.04887 0.12148 0.0
H300 H 0.3859 0.0756 0.04496 0.0
H301 H 0.39352 0.08103 0.17108 0.0
C302 C 0.33813 0.09702 0.16921 0.0
C303 C 0.30829 0.10539 0.14747 0.0
C304 C 0.40902 0.06998 0.06182 0.0
C305 C 0.37423 0.08689 0.11617 0.0
C306 C 0.4401 0.0569 0.04646 0.0
C307 C 0.47051 0.04878 0.06749 0.0
C308 C 0.40792 0.07484 0.0987 0.0
C309 C 0.46865 0.05474 0.10412 0.0
C310 C 0.37112 0.08798 0.15371 0.0
C311 C 0.31289 0.10495 0.11004 0.0
N312 N 0.43789 0.06716 0.11857 0.0
N313 N 0.34501 0.0957 0.09568 0.0
H314 H 0.36972 0.94505 0.66998 0.0
H315 H 0.20788 1.00175 0.53894 0.0
H316 H 0.38188 0.95315 0.55405 0.0
H317 H 0.19955 0.98866 0.65524 0.0
H318 H 0.27036 0.98133 0.5426 0.0
H319 H 0.30613 0.95889 0.66398 0.0
C320 C 0.35896 0.95003 0.64317 0.0
C321 C 0.38117 0.94863 0.61243 0.0
C322 C 0.25471 0.98284 0.56725 0.0
C323 C 0.30802 0.96412 0.60524 0.0
C324 C 0.21909 0.99432 0.56517 0.0
C325 C 0.19875 0.99739 0.59685 0.0
C326 C 0.26979 0.97429 0.60125 0.0
C327 C 0.21453 0.98758 0.63016 0.0
C328 C 0.32253 0.95769 0.63973 0.0
C329 C 0.36557 0.9542 0.57838 0.0
N330 N 0.24907 0.97664 0.63145 0.0
N331 N 0.32989 0.96202 0.57564 0.0
H332 H 0.83631 0.32598 0.89941 0.0
H333 H 0.93211 0.45387 0.0369 0.0
H334 H 0.7858 0.41973 0.93718 0.0
H335 H 0.99609 0.41084 0.95457 0.0
H336 H 0.87612 0.43011 1.00946 0.0
H337 H 0.89371 0.34636 0.92769 0.0
C338 C 0.83742 0.3508 0.91369 0.0
C339 C 0.80661 0.37144 0.91595 0.0
C340 C 0.90245 0.42573 0.99756 0.0
C341 C 0.87125 0.39416 0.94871 0.0
C342 C 0.9344 0.43902 1.0133 0.0
C343 C 0.9688 0.43439 0.99791 0.0
C344 C 0.90485 0.40702 0.96662 0.0
C345 C 0.97009 0.41511 0.96716 0.0
C346 C 0.87002 0.3624 0.92965 0.0
C347 C 0.80916 0.40334 0.93469 0.0
N348 N 0.93849 0.40194 0.95255 0.0
N349 N 0.84086 0.41357 0.95066 0.0
H350 H 0.90924 0.57025 0.50068 0.0
H351 H 0.71268 0.64793 0.51042 0.0
H352 H 0.89049 0.68725 0.50621 0.0
H353 H 0.72729 0.52885 0.52185 0.0
H354 H 0.77852 0.66162 0.51519 0.0
H355 H 0.84398 0.5529 0.51485 0.0
C356 C 0.89158 0.5922 0.50549 0.0
C357 C 0.90542 0.63032 0.50194 0.0
C358 C 0.76753 0.6324 0.51703 0.0
C359 C 0.83084 0.6107 0.51797 0.0
C360 C 0.72996 0.62466 0.51411 0.0
C361 C 0.71486 0.58729 0.51518 0.0
C362 C 0.79042 0.60255 0.5204 0.0
C363 C 0.73816 0.55803 0.52075 0.0
C364 C 0.85438 0.58226 0.51365 0.0
C365 C 0.88136 0.65749 0.50891 0.0
N366 N 0.77502 0.56628 0.52255 0.0
N367 N 0.84527 0.64719 0.51609 0.0
H368 H 0.19183 0.21742 0.1163 0.0
H369 H 0.07647 0.39622 0.13188 0.0
H370 H 0.16283 0.25812 0.21691 0.0
H371 H 0.12876 0.3774 0.0315 0.0
H372 H 0.1036 0.34169 0.16193 0.0
H373 H 0.16584 0.27216 0.08368 0.0
C374 C 0.18024 0.2378 0.13165 0.0
C375 C 0.17945 0.23262 0.16968 0.0
C376 C 0.10925 0.34935 0.13333 0.0
C377 C 0.14898 0.29523 0.13219 0.0
C378 C 0.09358 0.38055 0.11599 0.0
C379 C 0.10026 0.39168 0.07893 0.0
C380 C 0.13175 0.32846 0.11369 0.0
C381 C 0.12284 0.36999 0.06007 0.0
C382 C 0.16522 0.269 0.1129 0.0
C383 C 0.16347 0.26003 0.18776 0.0
N384 N 0.1377 0.33937 0.07762 0.0
N385 N 0.14885 0.28982 0.16894 0.0
H386 H 0.67768 0.26407 0.86009 0.0
H387 H 0.63096 0.1133 0.03349 0.0
H388 H 0.71408 0.27904 0.9673 0.0
H389 H 0.58338 0.10266 0.92978 0.0
H390 H 0.66284 0.17337 1.00883 0.0
H391 H 0.64404 0.20433 0.88425 0.0
C392 C 0.67853 0.25491 0.88871 0.0
C393 C 0.69891 0.27663 0.91165 0.0
C394 C 0.64537 0.15801 0.99143 0.0
C395 C 0.66071 0.2081 0.9394 0.0
C396 C 0.62713 0.12363 1.0055 0.0
C397 C 0.60443 0.10287 0.98366 0.0
C398 C 0.64111 0.17182 0.95514 0.0
C399 C 0.60056 0.11776 0.9476 0.0
C400 C 0.65942 0.22072 0.90245 0.0
C401 C 0.69933 0.26302 0.94843 0.0
N402 N 0.61881 0.1513 0.93442 0.0
N403 N 0.68058 0.22969 0.9611 0.0
H404 H 1.00784 0.75193 0.42768 0.0
H405 H 0.07275 0.8979 0.56477 0.0
H406 H 1.01514 0.71649 0.54156 0.0
H407 H 1.00902 0.92693 0.47116 0.0
H408 H 0.06788 0.83165 0.55179 0.0
H409 H 0.0256 0.81688 0.43859 0.0
C410 C 1.01401 0.7577 0.4549 0.0
C411 C 1.01009 0.72881 0.4838 0.0
C412 C 0.05533 0.85273 0.53402 0.0
C413 C 0.03005 0.80311 0.4964 0.0
C414 C 0.05824 0.8904 0.54124 0.0
C415 C 0.04108 0.91772 0.51905 0.0
C416 C 0.03595 0.84277 0.50396 0.0
C417 C 0.0224 0.90664 0.48905 0.0
C418 C 0.0238 0.79479 0.46111 0.0
C419 C 0.01773 0.73805 0.51862 0.0
N420 N 0.02042 0.87002 0.48232 0.0
N421 N 0.02732 0.77455 0.52403 0.0
H422 H 0.44604 0.81512 0.54878 0.0
H423 H 0.58541 0.65374 0.55896 0.0
H424 H 0.56149 0.83515 0.56679 0.0
H425 H 0.46797 0.62914 0.56713 0.0
H426 H 0.57715 0.72075 0.55767 0.0
H427 H 0.45358 0.74735 0.5499 0.0
C428 C 0.47308 0.80517 0.55227 0.0
C429 C 0.50335 0.83057 0.55698 0.0
C430 C 0.55315 0.70076 0.55998 0.0
C431 C 0.51207 0.75349 0.55914 0.0
C432 C 0.55782 0.66245 0.56075 0.0
C433 C 0.52728 0.63585 0.56314 0.0
C434 C 0.51766 0.71275 0.5612 0.0
C435 C 0.49223 0.64875 0.56546 0.0
C436 C 0.47731 0.76661 0.5533 0.0
C437 C 0.53765 0.81646 0.56239 0.0
N438 N 0.48832 0.68643 0.56415 0.0
N439 N 0.54111 0.77883 0.56324 0.0
H440 H 0.84624 0.90377 0.77778 0.0
H441 H 0.03534 0.97311 0.66842 0.0
H442 H 0.95332 0.89206 0.82188 0.0
H443 H 0.92928 0.97994 0.62079 0.0
H444 H 1.00528 0.94535 0.72533 0.0
H445 H 0.87551 0.93396 0.72097 0.0
C446 C 0.87587 0.90773 0.77567 0.0
C447 C 0.89725 0.89508 0.8048 0.0
C448 C 0.98851 0.95292 0.70249 0.0
C449 C 0.93105 0.9295 0.73952 0.0
C450 C 1.0057 0.96884 0.66988 0.0
C451 C 0.98489 0.97891 0.6396 0.0
C452 C 0.95007 0.94695 0.70513 0.0
C453 C 0.94651 0.97263 0.64334 0.0
C454 C 0.89258 0.92479 0.7431 0.0
C455 C 0.9356 0.9007 0.80013 0.0
N456 N 0.93038 0.95707 0.67543 0.0
N457 N 0.95116 0.9174 0.76828 0.0
H458 H 0.62199 0.07122 0.36375 0.0
H459 H 0.63821 0.09716 0.1536 0.0
H460 H 0.61805 0.18081 0.30322 0.0
H461 H 0.58119 0.99634 0.20864 0.0
H462 H 0.63477 0.12762 0.20909 0.0
H463 H 0.60937 0.04159 0.30851 0.0
C464 C 0.61776 0.08889 0.33888 0.0
C465 C 0.62103 0.12836 0.33773 0.0
C466 C 0.62267 0.09897 0.209 0.0
C467 C 0.60763 0.09502 0.27481 0.0
C468 C 0.62494 0.0816 0.17757 0.0
C469 C 0.61028 0.04429 0.17709 0.0
C470 C 0.60639 0.07848 0.24032 0.0
C471 C 0.59289 0.02515 0.2084 0.0
C472 C 0.61053 0.07207 0.30752 0.0
C473 C 0.61553 0.15025 0.30504 0.0
N474 N 0.59193 0.04228 0.23915 0.0
N475 N 0.60977 0.13328 0.27462 0.0
H476 H 0.37634 0.55971 0.3023 0.0
H477 H 0.55295 0.5696 0.42529 0.0
H478 H 0.48184 0.61354 0.26492 0.0
H479 H 0.44507 0.52684 0.46731 0.0
H480 H 0.52762 0.58327 0.36582 0.0
H481 H 0.40106 0.54512 0.36252 0.0
C482 C 0.40477 0.56824 0.30688 0.0
C483 C 0.42732 0.58727 0.27869 0.0
C484 C 0.50943 0.57089 0.388 0.0
C485 C 0.4557 0.57108 0.34719 0.0
C486 C 0.52391 0.56298 0.42202 0.0
C487 C 0.5011 0.54702 0.45139 0.0
C488 C 0.47184 0.56272 0.38311 0.0
C489 C 0.46366 0.53914 0.44544 0.0
C490 C 0.41884 0.56004 0.34114 0.0
C491 C 0.46377 0.59835 0.2859 0.0
N492 N 0.45019 0.54705 0.41195 0.0
N493 N 0.47688 0.58995 0.3194 0.0
H494 H 0.09388 0.47028 0.68162 0.0
H495 H 0.09849 0.40781 0.89396 0.0
H496 H 0.10316 0.35467 0.72629 0.0
H497 H 0.12051 0.52279 0.84497 0.0
H498 H 0.09444 0.38708 0.83342 0.0
H499 H 0.09867 0.48953 0.74207 0.0
C500 C 0.09724 0.44891 0.70402 0.0
C501 C 0.0982 0.41074 0.69861 0.0
C502 C 0.10032 0.41682 0.83603 0.0
C503 C 0.1029 0.43265 0.76832 0.0
C504 C 0.10243 0.42863 0.87051 0.0
C505 C 0.11012 0.46702 0.87451 0.0
C506 C 0.10539 0.44369 0.80543 0.0
C507 C 0.11517 0.49287 0.84322 0.0
C508 C 0.09974 0.45995 0.73864 0.0
C509 C 0.10172 0.38434 0.72905 0.0
N510 N 0.11257 0.48076 0.81009 0.0
N511 N 0.10383 0.39577 0.76258 0.0
H512 H 0.81896 0.8785 0.95944 0.0
H513 H 0.61948 0.95322 0.92842 0.0
H514 H 0.77103 0.8954 0.85476 0.0
H515 H 0.67388 0.95049 0.0301 0.0
H516 H 0.67309 0.92882 0.90169 0.0
H517 H 0.76471 0.90141 0.98629 0.0
C518 C 0.79697 0.8868 0.94206 0.0
C519 C 0.79975 0.88486 0.90467 0.0
C520 C 0.67331 0.93349 0.92986 0.0
C521 C 0.73723 0.9115 0.93545 0.0
C522 C 0.64259 0.94734 0.94523 0.0
C523 C 0.64199 0.95396 0.98168 0.0
C524 C 0.70379 0.92593 0.95103 0.0
C525 C 0.67297 0.94587 1.00194 0.0
C526 C 0.76601 0.90013 0.95744 0.0
C527 C 0.77042 0.89669 0.88361 0.0
N528 N 0.70246 0.9323 0.9864 0.0
N529 N 0.74046 0.90934 0.89926 0.0
H530 H 0.74794 0.15769 0.3723 0.0
H531 H 0.84127 0.03322 0.52535 0.0
H532 H 0.7011 0.13535 0.48027 0.0
H533 H 0.90613 0.09897 0.43944 0.0
H534 H 0.78867 0.06858 0.50799 0.0
H535 H 0.8058 0.13526 0.39464 0.0
C536 C 0.75008 0.14842 0.40079 0.0
C537 C 0.71984 0.14804 0.42454 0.0
C538 C 0.81447 0.07562 0.49314 0.0
C539 C 0.78536 0.12205 0.45004 0.0
C540 C 0.8443 0.05529 0.50285 0.0
C541 C 0.8777 0.06313 0.48347 0.0
C542 C 0.81788 0.10342 0.46332 0.0
C543 C 0.88065 0.09226 0.45488 0.0
C544 C 0.78304 0.13584 0.41351 0.0
C545 C 0.72389 0.13607 0.46119 0.0
N546 N 0.85083 0.11106 0.44519 0.0
N547 N 0.75592 0.12294 0.47277 0.0
H548 H 0.26883 0.62546 0.19998 0.0
H549 H 0.17703 0.55103 0.02562 0.0
H550 H 0.3214 0.64187 0.09423 0.0
H551 H 0.12028 0.54664 0.12876 0.0
H552 H 0.23007 0.58455 0.05001 0.0
H553 H 0.21404 0.59682 0.1742 0.0
C554 C 0.26881 0.62306 0.1713 0.0
C555 C 0.29981 0.63589 0.14925 0.0
C556 C 0.20596 0.57638 0.06726 0.0
C557 C 0.2371 0.60313 0.11948 0.0
C558 C 0.17568 0.55716 0.05337 0.0
C559 C 0.14419 0.54585 0.07522 0.0
C560 C 0.20488 0.58418 0.10332 0.0
C561 C 0.14399 0.55471 0.11095 0.0
C562 C 0.23746 0.60685 0.15655 0.0
C563 C 0.29803 0.63259 0.11217 0.0
N564 N 0.17391 0.57318 0.1239 0.0
N565 N 0.26731 0.61629 0.09849 0.0
H566 H 0.19517 0.48034 0.50886 0.0
H567 H 0.36026 0.45874 0.64499 0.0
H568 H 0.18768 0.4065 0.60879 0.0
H569 H 0.374 0.51132 0.53508 0.0
H570 H 0.2944 0.44947 0.63661 0.0
H571 H 0.25788 0.50221 0.52282 0.0
C572 C 0.20659 0.46923 0.53403 0.0
C573 C 0.18643 0.4415 0.55769 0.0
C574 C 0.31181 0.46329 0.61441 0.0
C575 C 0.25801 0.46614 0.57375 0.0
C576 C 0.34951 0.46845 0.6191 0.0
C577 C 0.37299 0.48528 0.59052 0.0
C578 C 0.29728 0.47513 0.58092 0.0
C579 C 0.35715 0.49825 0.55792 0.0
C580 C 0.24237 0.48157 0.54192 0.0
C581 C 0.20239 0.42797 0.58993 0.0
N582 N 0.32034 0.4926 0.55392 0.0
N583 N 0.23736 0.44023 0.59691 0.0
H584 H 0.94562 0.73041 0.87071 0.0
H585 H 0.98211 0.58962 0.04736 0.0
H586 H 0.88572 0.72737 0.97165 0.0
H587 H 0.03799 0.58772 0.94472 0.0
H588 H 0.95036 0.64345 0.02147 0.0
H589 H 0.98357 0.68214 0.89862 0.0
C590 C 0.94068 0.71972 0.89886 0.0
C591 C 0.91217 0.73246 0.9188 0.0
C592 C 0.96969 0.63143 1.00461 0.0
C593 C 0.95548 0.67721 0.95103 0.0
C594 C 0.98793 0.60063 0.01941 0.0
C595 C 1.01276 0.58386 0.99821 0.0
C596 C 0.97617 0.64581 0.96821 0.0
C597 C 0.01907 0.59958 0.96214 0.0
C598 C 0.96227 0.69211 0.91478 0.0
C599 C 0.90718 0.718 0.95527 0.0
N600 N 1.00082 0.62949 0.94828 0.0
N601 N 0.92838 0.69099 0.97012 0.0
H602 H 0.39904 0.72079 0.09018 0.0
H603 H 0.52904 0.90439 0.12158 0.0
H604 H 0.4247 0.75322 0.19548 0.0
H605 H 0.4826 0.88718 0.01865 0.0
H606 H 0.4959 0.84547 0.14812 0.0
H607 H 0.4337 0.77855 0.06263 0.0
C608 C 0.41175 0.74006 0.10756 0.0
C609 C 0.40884 0.73194 0.14531 0.0
C610 C 0.49299 0.85454 0.11971 0.0
C611 C 0.44917 0.79788 0.1138 0.0
C612 C 0.51203 0.88813 0.10448 0.0
C613 C 0.50856 0.90082 0.06781 0.0
C614 C 0.47047 0.83323 0.09812 0.0
C615 C 0.48602 0.87855 0.04705 0.0
C616 C 0.43172 0.77295 0.09176 0.0
C617 C 0.42659 0.75779 0.16631 0.0
N618 N 0.46785 0.84583 0.06249 0.0
N619 N 0.44598 0.78947 0.15029 0.0
H620 H 0.02629 0.32986 0.56856 0.0
H621 H 0.06584 0.11513 0.61719 0.0
H622 H 0.08214 0.28713 0.66352 0.0
H623 H 0.99068 0.14919 0.53444 0.0
H624 H 0.06904 0.17827 0.63562 0.0
H625 H 1.00963 0.26464 0.55665 0.0
C626 C 0.03469 0.30682 0.58712 0.0
C627 C 0.05594 0.31406 0.61694 0.0
C628 C 0.05156 0.17208 0.6136 0.0
C629 C 0.03701 0.23955 0.60344 0.0
C630 C 0.04986 0.13598 0.60293 0.0
C631 C 0.02828 0.12705 0.57397 0.0
C632 C 0.03202 0.19993 0.59485 0.0
C633 C 1.00775 0.15505 0.55683 0.0
C634 C 0.02502 0.26963 0.58038 0.0
C635 C 0.06555 0.28309 0.64036 0.0
N636 N 1.01052 0.19053 0.56722 0.0
N637 N 0.05639 0.24733 0.63287 0.0
H638 H 0.52357 0.23878 0.4736 0.0
H639 H 0.62154 0.43531 0.51625 0.0
H640 H 0.64089 0.25957 0.47821 0.0
H641 H 0.50691 0.40253 0.54085 0.0
H642 H 0.6291 0.37179 0.5004 0.0
H643 H 0.51647 0.29943 0.49671 0.0
C644 C 0.54778 0.25612 0.47968 0.0
C645 C 0.58286 0.24459 0.47371 0.0
C646 C 0.60236 0.37844 0.50952 0.0
C647 C 0.57509 0.31377 0.49984 0.0
C648 C 0.598 0.41471 0.51847 0.0
C649 C 0.56351 0.42426 0.52973 0.0
C650 C 0.57192 0.35168 0.51142 0.0
C651 C 0.534 0.39639 0.53226 0.0
C652 C 0.54377 0.29062 0.49289 0.0
C653 C 0.61341 0.26782 0.4822 0.0
N654 N 0.53881 0.36145 0.52287 0.0
N655 N 0.60885 0.30153 0.49452 0.0
loop_
_geom_bond_atom_site_label_1
_geom_bond_atom_site_label_2
_geom_bond_distance
_geom_bond_site_symmetry_2
_ccdc_geom_bond_type
H0 C7 0.929 . S
H1 C10 0.930 . S
H2 C12 0.929 . S
H3 C4 0.969 . S
C4 H3 0.969 . S
C4 O5 1.550 . S
C4 H6 0.973 . S
O5 C4 1.550 . S
O5 C11 1.412 . S
H6 C4 0.973 . S
C7 H0 0.929 . S
C7 C8 1.400 . S
C7 C9 1.364 . S
C8 C7 1.400 . S
C8 C12 1.377 . S
C9 C7 1.364 . S
C9 C10 1.374 . S
C10 H1 0.930 . S
C10 C9 1.374 . S
C10 C11 1.383 . S
C11 O5 1.412 . S
C11 C10 1.383 . S
C11 C12 1.394 . S
C12 H2 0.929 . S
C12 C8 1.377 . S
C12 C11 1.394 . S
H13 C20 0.929 . S
H14 C23 0.930 . S
H15 C25 0.929 . S
H16 C17 0.969 . S
C17 H16 0.969 . S
C17 O18 1.550 . S
C17 H19 0.973 . S
O18 C17 1.550 . S
O18 C24 1.412 . S
H19 C17 0.973 . S
C20 H13 0.929 . S
C20 C21 1.400 . S
C20 C22 1.364 . S
C21 C20 1.400 . S
C21 C25 1.377 . S
C22 C20 1.364 . S
C22 C23 1.374 . S
C23 H14 0.930 . S
C23 C22 1.374 . S
C23 C24 1.383 . S
C24 O18 1.412 . S
C24 C23 1.383 . S
C24 C25 1.394 . S
C25 H15 0.929 . S
C25 C21 1.377 . S
C25 C24 1.394 . S
H26 C33 0.929 . S
H27 C36 0.930 . S
H28 C38 0.929 . S
H29 C30 0.969 . S
C30 H29 0.969 . S
C30 O31 1.550 . S
C30 H32 0.973 . S
O31 C30 1.550 . S
O31 C37 1.412 . S
H32 C30 0.973 . S
C33 H26 0.929 . S
C33 C34 1.400 . S
C33 C35 1.364 . S
C34 C33 1.400 . S
C34 C38 1.377 . S
C35 C33 1.364 . S
C35 C36 1.374 . S
C36 H27 0.930 . S
C36 C35 1.374 . S
C36 C37 1.383 . S
C37 O31 1.412 . S
C37 C36 1.383 . S
C37 C38 1.394 . S
C38 H28 0.929 . S
C38 C34 1.377 . S
C38 C37 1.394 . S
H39 C46 0.929 . S
H40 C49 0.930 . S
H41 C51 0.929 . S
H42 C43 0.969 . S
C43 H42 0.969 . S
C43 O44 1.550 . S
C43 H45 0.973 . S
O44 C43 1.550 . S
O44 C50 1.412 . S
H45 C43 0.973 . S
C46 H39 0.929 . S
C46 C47 1.400 . S
C46 C48 1.364 . S
C47 C46 1.400 . S
C47 C51 1.377 . S
C48 C46 1.364 . S
C48 C49 1.374 . S
C49 H40 0.930 . S
C49 C48 1.374 . S
C49 C50 1.383 . S
C50 O44 1.412 . S
C50 C49 1.383 . S
C50 C51 1.394 . S
C51 H41 0.929 . S
C51 C47 1.377 . S
C51 C50 1.394 . S
H52 C59 0.929 . S
H53 C62 0.930 . S
H54 C64 0.929 . S
H55 C56 0.969 . S
C56 H55 0.969 . S
C56 O57 1.550 . S
C56 H58 0.973 . S
O57 C56 1.550 . S
O57 C63 1.412 . S
H58 C56 0.973 . S
C59 H52 0.929 . S
C59 C60 1.400 . S
C59 C61 1.364 . S
C60 C59 1.400 . S
C60 C64 1.377 . S
C61 C59 1.364 . S
C61 C62 1.374 . S
C62 H53 0.930 . S
C62 C61 1.374 . S
C62 C63 1.383 . S
C63 O57 1.412 . S
C63 C62 1.383 . S
C63 C64 1.394 . S
C64 H54 0.929 . S
C64 C60 1.377 . S
C64 C63 1.394 . S
H65 C72 0.929 . S
H66 C75 0.930 . S
H67 C77 0.929 . S
H68 C69 0.969 . S
C69 H68 0.969 . S
C69 O70 1.550 . S
C69 H71 0.973 . S
O70 C69 1.550 . S
O70 C76 1.412 . S
H71 C69 0.973 . S
C72 H65 0.929 . S
C72 C73 1.400 . S
C72 C74 1.364 . S
C73 C72 1.400 . S
C73 C77 1.377 . S
C74 C72 1.364 . S
C74 C75 1.374 . S
C75 H66 0.930 . S
C75 C74 1.374 . S
C75 C76 1.383 . S
C76 O70 1.412 . S
C76 C75 1.383 . S
C76 C77 1.394 . S
C77 H67 0.929 . S
C77 C73 1.377 . S
C77 C76 1.394 . S
H78 C85 0.929 . S
H79 C88 0.930 . S
H80 C90 0.929 . S
H81 C82 0.969 . S
C82 H81 0.969 . S
C82 O83 1.550 . S
C82 H84 0.973 . S
O83 C82 1.550 . S
O83 C89 1.412 . S
H84 C82 0.973 . S
C85 H78 0.929 . S
C85 C86 1.400 . S
C85 C87 1.364 . S
C86 C85 1.400 . S
C86 C90 1.377 . S
C87 C85 1.364 . S
C87 C88 1.374 . S
C88 H79 0.930 . S
C88 C87 1.374 . S
C88 C89 1.383 . S
C89 O83 1.412 . S
C89 C88 1.383 . S
C89 C90 1.394 . S
C90 H80 0.929 . S
C90 C86 1.377 . S
C90 C89 1.394 . S
H91 C98 0.929 . S
H92 C101 0.930 . S
H93 C103 0.929 . S
H94 C95 0.969 . S
C95 H94 0.969 . S
C95 O96 1.550 . S
C95 H97 0.973 . S
O96 C95 1.550 . S
O96 C102 1.412 . S
H97 C95 0.973 . S
C98 H91 0.929 . S
C98 C99 1.400 . S
C98 C100 1.364 . S
C99 C98 1.400 . S
C99 C103 1.377 . S
C100 C98 1.364 . S
C100 C101 1.374 . S
C101 H92 0.930 . S
C101 C100 1.374 . S
C101 C102 1.383 . S
C102 O96 1.412 . S
C102 C101 1.383 . S
C102 C103 1.394 . S
C103 H93 0.929 . S
C103 C99 1.377 . S
C103 C102 1.394 . S
Co104 N109 2.057 . S
Co104 O121 2.021 . S
Co104 O124 2.075 . S
Co104 O128 2.117 1_545 S
Co104 O129 2.020 . S
C105 O125 1.259 1_655 S
C105 O128 1.258 . S
Co106 N115 2.052 1_545 S
Co106 O122 2.117 . S
Co106 O123 2.020 . S
Co106 O125 2.021 1_545 S
Co106 O130 2.062 1_545 S
C107 N109 1.316 . S
C107 N110 1.347 . S
C107 H112 0.931 . S
C108 N109 1.375 . S
C108 C111 1.350 . S
C108 H113 0.930 1_545 S
N109 Co104 2.057 . S
N109 C107 1.316 . S
N109 C108 1.375 . S
N110 C107 1.347 . S
N110 C111 1.373 . S
C111 C108 1.350 . S
C111 N110 1.373 . S
C111 H132 0.931 . S
H112 C107 0.931 . S
H113 C108 0.930 1_565 S
C114 O121 1.259 1_455 S
C114 O122 1.258 . S
N115 Co106 2.052 1_565 S
N115 C116 1.345 . S
N115 C117 1.353 1_565 S
C116 N115 1.345 . S
C116 N118 1.347 . S
C116 H127 0.931 . S
C117 N115 1.353 1_545 S
C117 C119 1.350 . S
C117 H126 0.930 . S
N118 C116 1.347 . S
N118 C119 1.373 1_565 S
C119 C117 1.350 . S
C119 N118 1.373 1_545 S
C119 H133 0.931 . S
C120 O123 1.256 . S
C120 O124 1.224 1_455 S
O121 Co104 2.021 . S
O121 C114 1.259 1_655 S
O122 Co106 2.117 . S
O122 C114 1.258 . S
O123 Co106 2.020 . S
O123 C120 1.256 . S
O124 Co104 2.075 . S
O124 C120 1.224 1_655 S
O125 C105 1.259 1_455 S
O125 Co106 2.021 1_565 S
H126 C117 0.930 . S
H127 C116 0.931 . S
O128 Co104 2.117 1_565 S
O128 C105 1.258 . S
O129 Co104 2.020 . S
O129 C131 1.256 1_545 S
O130 Co106 2.062 1_565 S
O130 C131 1.255 1_455 S
C131 O129 1.256 1_565 S
C131 O130 1.255 1_655 S
H132 C111 0.931 . S
H133 C119 0.931 . S
Co134 N139 2.057 1_545 S
Co134 O151 2.021 . S
Co134 O154 2.062 1_545 S
Co134 O158 2.117 1_546 S
Co134 O159 2.020 . S
C135 O155 1.259 . S
C135 O158 1.258 . S
Co136 N145 2.057 . S
Co136 O152 2.117 . S
Co136 O153 2.020 . S
Co136 O155 2.021 1_545 S
Co136 O160 2.062 . S
C137 N139 1.316 . S
C137 N140 1.347 . S
C137 H142 0.931 1_565 S
C138 N139 1.375 . S
C138 C141 1.350 . S
C138 H143 0.930 . S
N139 Co134 2.057 1_565 S
N139 C137 1.316 . S
N139 C138 1.375 . S
N140 C137 1.347 . S
N140 C141 1.373 . S
C141 C138 1.350 . S
C141 N140 1.373 . S
C141 H162 0.931 . S
H142 C137 0.931 1_545 S
H143 C138 0.930 . S
C144 O151 1.259 . S
C144 O152 1.258 1_556 S
N145 Co136 2.057 . S
N145 C146 1.316 . S
N145 C147 1.375 . S
C146 N145 1.316 . S
C146 N148 1.347 . S
C146 H157 0.931 . S
C147 N145 1.375 . S
C147 C149 1.350 . S
C147 H156 0.930 . S
N148 C146 1.347 . S
N148 C149 1.373 . S
C149 C147 1.350 . S
C149 N148 1.373 . S
C149 H163 0.931 . S
C150 O153 1.256 1_566 S
C150 O154 1.255 . S
O151 Co134 2.021 . S
O151 C144 1.259 . S
O152 Co136 2.117 . S
O152 C144 1.258 1_554 S
O153 Co136 2.020 . S
O153 C150 1.256 1_544 S
O154 Co134 2.062 1_565 S
O154 C150 1.255 . S
O155 C135 1.259 . S
O155 Co136 2.021 1_565 S
H156 C147 0.930 . S
H157 C146 0.931 . S
O158 Co134 2.117 1_564 S
O158 C135 1.258 . S
O159 Co134 2.020 . S
O159 C161 1.256 1_556 S
O160 Co136 2.062 . S
O160 C161 1.255 . S
C161 O159 1.256 1_554 S
C161 O160 1.255 . S
H162 C141 0.931 . S
H163 C149 0.931 . S
Co164 N169 2.057 . S
Co164 O181 2.021 . S
Co164 O184 2.062 . S
Co164 O188 2.117 . S
Co164 O189 2.020 . S
C165 O185 1.259 . S
C165 O188 1.258 . S
Co166 N175 2.057 . S
Co166 O182 2.117 . S
Co166 O183 2.020 . S
Co166 O185 2.021 . S
Co166 O190 2.062 . S
C167 N169 1.316 . S
C167 N170 1.347 . S
C167 H172 0.931 . S
C168 N169 1.375 . S
C168 C171 1.350 . S
C168 H173 0.930 . S
N169 Co164 2.057 . S
N169 C167 1.316 . S
N169 C168 1.375 . S
N170 C167 1.347 . S
N170 C171 1.373 . S
C171 C168 1.350 . S
C171 N170 1.373 . S
C171 H192 0.931 . S
H172 C167 0.931 . S
H173 C168 0.930 . S
C174 O181 1.259 . S
C174 O182 1.258 . S
N175 Co166 2.057 . S
N175 C176 1.316 . S
N175 C177 1.375 . S
C176 N175 1.316 . S
C176 N178 1.347 . S
C176 H187 0.931 . S
C177 N175 1.375 . S
C177 C179 1.350 . S
C177 H186 0.930 . S
N178 C176 1.347 . S
N178 C179 1.373 . S
C179 C177 1.350 . S
C179 N178 1.373 . S
C179 H193 0.931 . S
C180 O183 1.256 . S
C180 O184 1.255 . S
O181 Co164 2.021 . S
O181 C174 1.259 . S
O182 Co166 2.117 . S
O182 C174 1.258 . S
O183 Co166 2.020 . S
O183 C180 1.256 . S
O184 Co164 2.062 . S
O184 C180 1.255 . S
O185 C165 1.259 . S
O185 Co166 2.021 . S
H186 C177 0.930 . S
H187 C176 0.931 . S
O188 Co164 2.117 . S
O188 C165 1.258 . S
O189 Co164 2.020 . S
O189 C191 1.256 . S
O190 Co166 2.062 . S
O190 C191 1.255 . S
C191 O189 1.256 . S
C191 O190 1.255 . S
H192 C171 0.931 . S
H193 C179 0.931 . S
Co194 N199 2.057 . S
Co194 O211 2.021 1_556 S
Co194 O214 2.062 1_556 S
Co194 O218 2.117 1_455 S
Co194 O219 2.020 . S
C195 O215 1.259 . S
C195 O218 1.258 1_554 S
Co196 N205 2.057 . S
Co196 O212 2.117 . S
Co196 O213 2.020 . S
Co196 O215 2.021 1_455 S
Co196 O220 2.062 . S
C197 N199 1.316 . S
C197 N200 1.347 . S
C197 H202 0.931 . S
C198 N199 1.375 . S
C198 C201 1.350 . S
C198 H203 0.930 1_455 S
N199 Co194 2.057 . S
N199 C197 1.316 . S
N199 C198 1.375 . S
N200 C197 1.347 . S
N200 C201 1.373 . S
C201 C198 1.350 . S
C201 N200 1.373 . S
C201 H222 0.931 . S
H202 C197 0.931 . S
H203 C198 0.930 1_655 S
C204 O211 1.259 . S
C204 O212 1.258 . S
N205 Co196 2.057 . S
N205 C206 1.316 1_455 S
N205 C207 1.375 . S
C206 N205 1.316 1_655 S
C206 N208 1.347 . S
C206 H217 0.931 . S
C207 N205 1.375 . S
C207 C209 1.350 . S
C207 H216 0.930 . S
N208 C206 1.347 . S
N208 C209 1.373 1_655 S
C209 C207 1.350 . S
C209 N208 1.373 1_455 S
C209 H223 0.931 . S
C210 O213 1.256 . S
C210 O214 1.255 . S
O211 Co194 2.021 1_554 S
O211 C204 1.259 . S
O212 Co196 2.117 . S
O212 C204 1.258 . S
O213 Co196 2.020 . S
O213 C210 1.256 . S
O214 Co194 2.062 1_554 S
O214 C210 1.255 . S
O215 C195 1.259 . S
O215 Co196 2.021 1_655 S
H216 C207 0.930 . S
H217 C206 0.931 . S
O218 Co194 2.117 1_655 S
O218 C195 1.258 1_556 S
O219 Co194 2.020 . S
O219 C221 1.256 1_556 S
O220 Co196 2.062 . S
O220 C221 1.255 . S
C221 O219 1.256 1_554 S
C221 O220 1.255 . S
H222 C201 0.931 . S
H223 C209 0.931 . S
H224 C230 0.930 . S
H225 C234 0.930 . S
H226 C239 0.929 . S
H227 C237 0.929 . S
H228 C232 0.929 . S
H229 C238 0.929 . S
C230 H224 0.930 . S
C230 C231 1.367 . S
C230 C238 1.378 . S
C231 C230 1.367 . S
C231 C239 1.433 . S
C232 H228 0.929 . S
C232 C234 1.378 . S
C232 C236 1.350 . S
C233 C236 1.463 . S
C233 C238 1.350 . S
C233 N241 1.427 . S
C234 H225 0.930 . S
C234 C232 1.378 . S
C234 C235 1.367 . S
C235 C234 1.367 . S
C235 C237 1.433 . S
C236 C232 1.350 . S
C236 C233 1.463 . S
C236 N240 1.427 . S
C237 H227 0.929 . S
C237 C235 1.433 . S
C237 N240 1.384 . S
C238 H229 0.929 . S
C238 C230 1.378 . S
C238 C233 1.350 . S
C239 H226 0.929 . S
C239 C231 1.433 . S
C239 N241 1.384 . S
N240 C236 1.427 . S
N240 C237 1.384 . S
N241 C233 1.427 . S
N241 C239 1.384 . S
H242 C248 0.930 . S
H243 C252 0.930 . S
H244 C257 0.929 . S
H245 C255 0.929 1_545 S
H246 C250 0.929 . S
H247 C256 0.929 . S
C248 H242 0.930 . S
C248 C249 1.367 . S
C248 C256 1.378 . S
C249 C248 1.367 . S
C249 C257 1.433 . S
C250 H246 0.929 . S
C250 C252 1.378 . S
C250 C254 1.350 . S
C251 C254 1.463 . S
C251 C256 1.350 . S
C251 N259 1.427 . S
C252 H243 0.930 . S
C252 C250 1.378 . S
C252 C253 1.367 . S
C253 C252 1.367 . S
C253 C255 1.433 . S
C254 C250 1.350 . S
C254 C251 1.463 . S
C254 N258 1.427 . S
C255 H245 0.929 1_565 S
C255 C253 1.433 . S
C255 N258 1.384 . S
C256 H247 0.929 . S
C256 C248 1.378 . S
C256 C251 1.350 . S
C257 H244 0.929 . S
C257 C249 1.433 . S
C257 N259 1.384 . S
N258 C254 1.427 . S
N258 C255 1.384 . S
N259 C251 1.427 . S
N259 C257 1.384 . S
H260 C266 0.930 . S
H261 C270 0.930 . S
H262 C275 0.929 . S
H263 C273 0.929 . S
H264 C268 0.929 . S
H265 C274 0.929 . S
C266 H260 0.930 . S
C266 C267 1.367 . S
C266 C274 1.378 . S
C267 C266 1.367 . S
C267 C275 1.433 . S
C268 H264 0.929 . S
C268 C270 1.378 . S
C268 C272 1.350 . S
C269 C272 1.463 . S
C269 C274 1.350 . S
C269 N277 1.427 . S
C270 H261 0.930 . S
C270 C268 1.378 . S
C270 C271 1.367 . S
C271 C270 1.367 . S
C271 C273 1.433 . S
C272 C268 1.350 . S
C272 C269 1.463 . S
C272 N276 1.427 . S
C273 H263 0.929 . S
C273 C271 1.433 . S
C273 N276 1.384 . S
C274 H265 0.929 . S
C274 C266 1.378 . S
C274 C269 1.350 . S
C275 H262 0.929 . S
C275 C267 1.433 . S
C275 N277 1.384 . S
N276 C272 1.427 . S
N276 C273 1.384 . S
N277 C269 1.427 . S
N277 C275 1.384 . S
H278 C284 0.930 . S
H279 C288 0.930 1_455 S
H280 C293 0.929 . S
H281 C291 0.929 . S
H282 C286 0.929 1_455 S
H283 C292 0.929 . S
C284 H278 0.930 . S
C284 C285 1.367 . S
C284 C292 1.378 . S
C285 C284 1.367 . S
C285 C293 1.433 . S
C286 H282 0.929 1_655 S
C286 C288 1.378 . S
C286 C290 1.350 . S
C287 C290 1.463 . S
C287 C292 1.350 . S
C287 N295 1.427 . S
C288 H279 0.930 1_655 S
C288 C286 1.378 . S
C288 C289 1.367 . S
C289 C288 1.367 . S
C289 C291 1.433 . S
C290 C286 1.350 . S
C290 C287 1.463 . S
C290 N294 1.427 . S
C291 H281 0.929 . S
C291 C289 1.433 . S
C291 N294 1.384 . S
C292 H283 0.929 . S
C292 C284 1.378 . S
C292 C287 1.350 . S
C293 H280 0.929 . S
C293 C285 1.433 . S
C293 N295 1.384 . S
N294 C290 1.427 . S
N294 C291 1.384 . S
N295 C287 1.427 . S
N295 C293 1.384 . S
H296 C302 0.930 . S
H297 C306 0.930 1_565 S
H298 C311 0.929 . S
H299 C309 0.929 . S
H300 C304 0.929 1_565 S
H301 C310 0.929 . S
C302 H296 0.930 . S
C302 C303 1.367 . S
C302 C310 1.378 . S
C303 C302 1.367 . S
C303 C311 1.433 . S
C304 H300 0.929 1_545 S
C304 C306 1.378 . S
C304 C308 1.350 . S
C305 C308 1.463 . S
C305 C310 1.350 . S
C305 N313 1.427 . S
C306 H297 0.930 1_545 S
C306 C304 1.378 . S
C306 C307 1.367 . S
C307 C306 1.367 . S
C307 C309 1.433 . S
C308 C304 1.350 . S
C308 C305 1.463 . S
C308 N312 1.427 . S
C309 H299 0.929 . S
C309 C307 1.433 . S
C309 N312 1.384 . S
C310 H301 0.929 . S
C310 C302 1.378 . S
C310 C305 1.350 . S
C311 H298 0.929 . S
C311 C303 1.433 . S
C311 N313 1.384 . S
N312 C308 1.427 . S
N312 C309 1.384 . S
N313 C305 1.427 . S
N313 C311 1.384 . S
H314 C320 0.930 . S
H315 C324 0.930 . S
H316 C329 0.929 . S
H317 C327 0.929 . S
H318 C322 0.929 . S
H319 C328 0.929 . S
C320 H314 0.930 . S
C320 C321 1.367 . S
C320 C328 1.378 . S
C321 C320 1.367 . S
C321 C329 1.433 . S
C322 H318 0.929 . S
C322 C324 1.378 . S
C322 C326 1.350 . S
C323 C326 1.463 . S
C323 C328 1.350 . S
C323 N331 1.427 . S
C324 H315 0.930 . S
C324 C322 1.378 . S
C324 C325 1.367 . S
C325 C324 1.367 . S
C325 C327 1.433 . S
C326 C322 1.350 . S
C326 C323 1.463 . S
C326 N330 1.427 . S
C327 H317 0.929 . S
C327 C325 1.433 . S
C327 N330 1.384 . S
C328 H319 0.929 . S
C328 C320 1.378 . S
C328 C323 1.350 . S
C329 H316 0.929 . S
C329 C321 1.433 . S
C329 N331 1.384 . S
N330 C326 1.427 . S
N330 C327 1.384 . S
N331 C323 1.427 . S
N331 C329 1.384 . S
H332 C338 0.930 . S
H333 C342 0.930 . S
H334 C347 0.929 . S
H335 C345 0.929 . S
H336 C340 0.929 . S
H337 C346 0.929 . S
C338 H332 0.930 . S
C338 C339 1.367 . S
C338 C346 1.378 . S
C339 C338 1.367 . S
C339 C347 1.433 . S
C340 H336 0.929 . S
C340 C342 1.378 . S
C340 C344 1.350 . S
C341 C344 1.463 . S
C341 C346 1.350 . S
C341 N349 1.427 . S
C342 H333 0.930 . S
C342 C340 1.378 . S
C342 C343 1.367 . S
C343 C342 1.367 . S
C343 C345 1.433 . S
C344 C340 1.350 . S
C344 C341 1.463 . S
C344 N348 1.427 . S
C345 H335 0.929 . S
C345 C343 1.433 . S
C345 N348 1.384 . S
C346 H337 0.929 . S
C346 C338 1.378 . S
C346 C341 1.350 . S
C347 H334 0.929 . S
C347 C339 1.433 . S
C347 N349 1.384 . S
N348 C344 1.427 . S
N348 C345 1.384 . S
N349 C341 1.427 . S
N349 C347 1.384 . S
H350 C356 0.930 . S
H351 C360 0.930 . S
H352 C365 0.929 . S
H353 C363 0.929 . S
H354 C358 0.929 . S
H355 C364 0.929 . S
C356 H350 0.930 . S
C356 C357 1.367 . S
C356 C364 1.378 . S
C357 C356 1.367 . S
C357 C365 1.433 . S
C358 H354 0.929 . S
C358 C360 1.378 . S
C358 C362 1.350 . S
C359 C362 1.463 . S
C359 C364 1.350 . S
C359 N367 1.427 . S
C360 H351 0.930 . S
C360 C358 1.378 . S
C360 C361 1.367 . S
C361 C360 1.367 . S
C361 C363 1.433 . S
C362 C358 1.350 . S
C362 C359 1.463 . S
C362 N366 1.427 . S
C363 H353 0.929 . S
C363 C361 1.433 . S
C363 N366 1.384 . S
C364 H355 0.929 . S
C364 C356 1.378 . S
C364 C359 1.350 . S
C365 H352 0.929 . S
C365 C357 1.433 . S
C365 N367 1.384 . S
N366 C362 1.427 . S
N366 C363 1.384 . S
N367 C359 1.427 . S
N367 C365 1.384 . S
H368 C374 0.930 . S
H369 C378 0.930 . S
H370 C383 0.929 . S
H371 C381 0.929 . S
H372 C376 0.929 . S
H373 C382 0.929 . S
C374 H368 0.930 . S
C374 C375 1.367 . S
C374 C382 1.378 . S
C375 C374 1.367 . S
C375 C383 1.433 . S
C376 H372 0.929 . S
C376 C378 1.378 . S
C376 C380 1.350 . S
C377 C380 1.463 . S
C377 C382 1.350 . S
C377 N385 1.427 . S
C378 H369 0.930 . S
C378 C376 1.378 . S
C378 C379 1.367 . S
C379 C378 1.367 . S
C379 C381 1.433 . S
C380 C376 1.350 . S
C380 C377 1.463 . S
C380 N384 1.427 . S
C381 H371 0.929 . S
C381 C379 1.433 . S
C381 N384 1.384 . S
C382 H373 0.929 . S
C382 C374 1.378 . S
C382 C377 1.350 . S
C383 H370 0.929 . S
C383 C375 1.433 . S
C383 N385 1.384 . S
N384 C380 1.427 . S
N384 C381 1.384 . S
N385 C377 1.427 . S
N385 C383 1.384 . S
H386 C392 0.930 . S
H387 C396 0.930 1_554 S
H388 C401 0.929 . S
H389 C399 0.929 . S
H390 C394 0.929 1_554 S
H391 C400 0.929 . S
C392 H386 0.930 . S
C392 C393 1.367 . S
C392 C400 1.378 . S
C393 C392 1.367 . S
C393 C401 1.433 . S
C394 H390 0.929 1_556 S
C394 C396 1.378 . S
C394 C398 1.350 . S
C395 C398 1.463 . S
C395 C400 1.350 . S
C395 N403 1.427 . S
C396 H387 0.930 1_556 S
C396 C394 1.378 . S
C396 C397 1.367 . S
C397 C396 1.367 . S
C397 C399 1.433 . S
C398 C394 1.350 . S
C398 C395 1.463 . S
C398 N402 1.427 . S
C399 H389 0.929 . S
C399 C397 1.433 . S
C399 N402 1.384 . S
C400 H391 0.929 . S
C400 C392 1.378 . S
C400 C395 1.350 . S
C401 H388 0.929 . S
C401 C393 1.433 . S
C401 N403 1.384 . S
N402 C398 1.427 . S
N402 C399 1.384 . S
N403 C395 1.427 . S
N403 C401 1.384 . S
H404 C410 0.930 . S
H405 C414 0.930 . S
H406 C419 0.929 . S
H407 C417 0.929 . S
H408 C412 0.929 . S
H409 C418 0.929 . S
C410 H404 0.930 . S
C410 C411 1.367 . S
C410 C418 1.378 . S
C411 C410 1.367 . S
C411 C419 1.433 . S
C412 H408 0.929 . S
C412 C414 1.378 . S
C412 C416 1.350 . S
C413 C416 1.463 . S
C413 C418 1.350 . S
C413 N421 1.427 . S
C414 H405 0.930 . S
C414 C412 1.378 . S
C414 C415 1.367 . S
C415 C414 1.367 . S
C415 C417 1.433 . S
C416 C412 1.350 . S
C416 C413 1.463 . S
C416 N420 1.427 . S
C417 H407 0.929 . S
C417 C415 1.433 . S
C417 N420 1.384 . S
C418 H409 0.929 . S
C418 C410 1.378 . S
C418 C413 1.350 . S
C419 H406 0.929 . S
C419 C411 1.433 . S
C419 N421 1.384 . S
N420 C416 1.427 . S
N420 C417 1.384 . S
N421 C413 1.427 . S
N421 C419 1.384 . S
H422 C428 0.930 . S
H423 C432 0.930 . S
H424 C437 0.929 . S
H425 C435 0.929 . S
H426 C430 0.929 . S
H427 C436 0.929 . S
C428 H422 0.930 . S
C428 C429 1.367 . S
C428 C436 1.378 . S
C429 C428 1.367 . S
C429 C437 1.433 . S
C430 H426 0.929 . S
C430 C432 1.378 . S
C430 C434 1.350 . S
C431 C434 1.463 . S
C431 C436 1.350 . S
C431 N439 1.427 . S
C432 H423 0.930 . S
C432 C430 1.378 . S
C432 C433 1.367 . S
C433 C432 1.367 . S
C433 C435 1.433 . S
C434 C430 1.350 . S
C434 C431 1.463 . S
C434 N438 1.427 . S
C435 H425 0.929 . S
C435 C433 1.433 . S
C435 N438 1.384 . S
C436 H427 0.929 . S
C436 C428 1.378 . S
C436 C431 1.350 . S
C437 H424 0.929 . S
C437 C429 1.433 . S
C437 N439 1.384 . S
N438 C434 1.427 . S
N438 C435 1.384 . S
N439 C431 1.427 . S
N439 C437 1.384 . S
H440 C446 0.930 . S
H441 C450 0.943 1_545 S
H442 C455 0.929 . S
H443 C453 0.929 . S
H444 C448 0.929 1_455 S
H445 C454 0.929 . S
C446 H440 0.930 . S
C446 C447 1.367 . S
C446 C454 1.378 . S
C447 C446 1.367 . S
C447 C455 1.433 . S
C448 H444 0.929 1_655 S
C448 C450 1.372 1_655 S
C448 C452 1.350 . S
C449 C452 1.463 . S
C449 C454 1.350 . S
C449 N457 1.427 . S
C450 H441 0.943 1_565 S
C450 C448 1.372 1_455 S
C450 C451 1.359 1_455 S
C451 C450 1.359 1_655 S
C451 C453 1.433 . S
C452 C448 1.350 . S
C452 C449 1.463 . S
C452 N456 1.427 . S
C453 H443 0.929 . S
C453 C451 1.433 . S
C453 N456 1.384 . S
C454 H445 0.929 . S
C454 C446 1.378 . S
C454 C449 1.350 . S
C455 H442 0.929 . S
C455 C447 1.433 . S
C455 N457 1.384 . S
N456 C452 1.427 . S
N456 C453 1.384 . S
N457 C449 1.427 . S
N457 C455 1.384 . S
H458 C464 0.930 . S
H459 C468 0.930 . S
H460 C473 0.929 . S
H461 C471 0.929 . S
H462 C466 0.929 . S
H463 C472 0.929 . S
C464 H458 0.930 . S
C464 C465 1.367 . S
C464 C472 1.378 . S
C465 C464 1.367 . S
C465 C473 1.433 . S
C466 H462 0.929 . S
C466 C468 1.378 . S
C466 C470 1.350 . S
C467 C470 1.463 . S
C467 C472 1.350 . S
C467 N475 1.427 . S
C468 H459 0.930 . S
C468 C466 1.378 . S
C468 C469 1.367 . S
C469 C468 1.367 . S
C469 C471 1.433 . S
C470 C466 1.350 . S
C470 C467 1.463 . S
C470 N474 1.427 . S
C471 H461 0.929 . S
C471 C469 1.433 . S
C471 N474 1.384 . S
C472 H463 0.929 . S
C472 C464 1.378 . S
C472 C467 1.350 . S
C473 H460 0.929 . S
C473 C465 1.433 . S
C473 N475 1.384 . S
N474 C470 1.427 . S
N474 C471 1.384 . S
N475 C467 1.427 . S
N475 C473 1.384 . S
H476 C482 0.930 . S
H477 C486 0.930 . S
H478 C491 0.929 . S
H479 C489 0.929 . S
H480 C484 0.929 . S
H481 C490 0.929 . S
C482 H476 0.930 . S
C482 C483 1.367 . S
C482 C490 1.378 . S
C483 C482 1.367 . S
C483 C491 1.433 . S
C484 H480 0.929 . S
C484 C486 1.378 . S
C484 C488 1.350 . S
C485 C488 1.463 . S
C485 C490 1.350 . S
C485 N493 1.427 . S
C486 H477 0.930 . S
C486 C484 1.378 . S
C486 C487 1.367 . S
C487 C486 1.367 . S
C487 C489 1.433 . S
C488 C484 1.350 . S
C488 C485 1.463 . S
C488 N492 1.427 . S
C489 H479 0.929 . S
C489 C487 1.433 . S
C489 N492 1.384 . S
C490 H481 0.929 . S
C490 C482 1.378 . S
C490 C485 1.350 . S
C491 H478 0.929 . S
C491 C483 1.433 . S
C491 N493 1.384 . S
N492 C488 1.427 . S
N492 C489 1.384 . S
N493 C485 1.427 . S
N493 C491 1.384 . S
H494 C500 0.930 . S
H495 C504 0.930 . S
H496 C509 0.929 . S
H497 C507 0.929 . S
H498 C502 0.929 . S
H499 C508 0.929 . S
C500 H494 0.930 . S
C500 C501 1.367 . S
C500 C508 1.378 . S
C501 C500 1.367 . S
C501 C509 1.433 . S
C502 H498 0.929 . S
C502 C504 1.378 . S
C502 C506 1.350 . S
C503 C506 1.463 . S
C503 C508 1.350 . S
C503 N511 1.427 . S
C504 H495 0.930 . S
C504 C502 1.378 . S
C504 C505 1.367 . S
C505 C504 1.367 . S
C505 C507 1.433 . S
C506 C502 1.350 . S
C506 C503 1.463 . S
C506 N510 1.427 . S
C507 H497 0.929 . S
C507 C505 1.433 . S
C507 N510 1.384 . S
C508 H499 0.929 . S
C508 C500 1.378 . S
C508 C503 1.350 . S
C509 H496 0.929 . S
C509 C501 1.433 . S
C509 N511 1.384 . S
N510 C506 1.427 . S
N510 C507 1.384 . S
N511 C503 1.427 . S
N511 C509 1.384 . S
H512 C518 0.930 . S
H513 C522 0.930 . S
H514 C527 0.929 . S
H515 C525 0.929 . S
H516 C520 0.929 . S
H517 C526 0.957 . S
C518 H512 0.930 . S
C518 C519 1.367 . S
C518 C526 1.378 . S
C519 C518 1.367 . S
C519 C527 1.433 . S
C520 H516 0.929 . S
C520 C522 1.378 . S
C520 C524 1.350 . S
C521 C524 1.463 . S
C521 C526 1.350 . S
C521 N529 1.427 . S
C522 H513 0.930 . S
C522 C520 1.378 . S
C522 C523 1.367 . S
C523 C522 1.367 . S
C523 C525 1.433 1_556 S
C524 C520 1.350 . S
C524 C521 1.463 . S
C524 N528 1.427 . S
C525 H515 0.929 . S
C525 C523 1.433 1_554 S
C525 N528 1.384 1_554 S
C526 H517 0.957 . S
C526 C518 1.378 . S
C526 C521 1.350 . S
C527 H514 0.929 . S
C527 C519 1.433 . S
C527 N529 1.384 . S
N528 C524 1.427 . S
N528 C525 1.384 1_556 S
N529 C521 1.427 . S
N529 C527 1.384 . S
H530 C536 0.930 . S
H531 C540 0.930 . S
H532 C545 0.929 . S
H533 C543 0.929 . S
H534 C538 0.929 . S
H535 C544 0.929 . S
C536 H530 0.930 . S
C536 C537 1.367 . S
C536 C544 1.378 . S
C537 C536 1.367 . S
C537 C545 1.433 . S
C538 H534 0.929 . S
C538 C540 1.378 . S
C538 C542 1.350 . S
C539 C542 1.463 . S
C539 C544 1.350 . S
C539 N547 1.427 . S
C540 H531 0.930 . S
C540 C538 1.378 . S
C540 C541 1.367 . S
C541 C540 1.367 . S
C541 C543 1.433 . S
C542 C538 1.350 . S
C542 C539 1.463 . S
C542 N546 1.427 . S
C543 H533 0.929 . S
C543 C541 1.433 . S
C543 N546 1.384 . S
C544 H535 0.929 . S
C544 C536 1.378 . S
C544 C539 1.350 . S
C545 H532 0.929 . S
C545 C537 1.433 . S
C545 N547 1.384 . S
N546 C542 1.427 . S
N546 C543 1.384 . S
N547 C539 1.427 . S
N547 C545 1.384 . S
H548 C554 0.930 . S
H549 C558 0.930 . S
H550 C563 0.929 . S
H551 C561 0.929 . S
H552 C556 0.929 . S
H553 C562 0.929 . S
C554 H548 0.930 . S
C554 C555 1.367 . S
C554 C562 1.378 . S
C555 C554 1.367 . S
C555 C563 1.433 . S
C556 H552 0.929 . S
C556 C558 1.378 . S
C556 C560 1.350 . S
C557 C560 1.463 . S
C557 C562 1.350 . S
C557 N565 1.427 . S
C558 H549 0.930 . S
C558 C556 1.378 . S
C558 C559 1.367 . S
C559 C558 1.367 . S
C559 C561 1.433 . S
C560 C556 1.350 . S
C560 C557 1.463 . S
C560 N564 1.427 . S
C561 H551 0.929 . S
C561 C559 1.433 . S
C561 N564 1.384 . S
C562 H553 0.929 . S
C562 C554 1.378 . S
C562 C557 1.350 . S
C563 H550 0.929 . S
C563 C555 1.433 . S
C563 N565 1.384 . S
N564 C560 1.427 . S
N564 C561 1.384 . S
N565 C557 1.427 . S
N565 C563 1.384 . S
H566 C572 0.930 . S
H567 C576 0.930 . S
H568 C581 0.929 . S
H569 C579 0.929 . S
H570 C574 0.929 . S
H571 C580 0.929 . S
C572 H566 0.930 . S
C572 C573 1.367 . S
C572 C580 1.378 . S
C573 C572 1.367 . S
C573 C581 1.433 . S
C574 H570 0.929 . S
C574 C576 1.378 . S
C574 C578 1.350 . S
C575 C578 1.463 . S
C575 C580 1.350 . S
C575 N583 1.427 . S
C576 H567 0.930 . S
C576 C574 1.378 . S
C576 C577 1.367 . S
C577 C576 1.367 . S
C577 C579 1.433 . S
C578 C574 1.350 . S
C578 C575 1.463 . S
C578 N582 1.427 . S
C579 H569 0.929 . S
C579 C577 1.433 . S
C579 N582 1.384 . S
C580 H571 0.929 . S
C580 C572 1.378 . S
C580 C575 1.350 . S
C581 H568 0.929 . S
C581 C573 1.433 . S
C581 N583 1.384 . S
N582 C578 1.427 . S
N582 C579 1.384 . S
N583 C575 1.427 . S
N583 C581 1.384 . S
H584 C590 0.930 . S
H585 C594 0.930 . S
H586 C599 0.929 1_554 S
H587 C597 0.929 . S
H588 C592 0.929 . S
H589 C598 0.929 . S
C590 H584 0.930 . S
C590 C591 1.367 . S
C590 C598 1.378 . S
C591 C590 1.367 . S
C591 C599 1.433 . S
C592 H588 0.929 . S
C592 C594 1.378 . S
C592 C596 1.350 1_454 S
C593 C596 1.463 . S
C593 C598 1.350 . S
C593 N601 1.427 . S
C594 H585 0.930 . S
C594 C592 1.378 . S
C594 C595 1.367 1_554 S
C595 C594 1.367 1_556 S
C595 C597 1.433 1_455 S
C596 C592 1.350 1_656 S
C596 C593 1.463 . S
C596 N600 1.427 . S
C597 H587 0.929 . S
C597 C595 1.433 1_655 S
C597 N600 1.384 . S
C598 H589 0.929 . S
C598 C590 1.378 . S
C598 C593 1.350 . S
C599 H586 0.929 1_556 S
C599 C591 1.433 . S
C599 N601 1.384 . S
N600 C596 1.427 . S
N600 C597 1.384 . S
N601 C593 1.427 . S
N601 C599 1.384 . S
H602 C608 0.930 . S
H603 C612 0.930 . S
H604 C617 0.929 . S
H605 C615 0.929 . S
H606 C610 0.929 . S
H607 C616 0.929 . S
C608 H602 0.930 . S
C608 C609 1.367 . S
C608 C616 1.378 . S
C609 C608 1.367 . S
C609 C617 1.433 . S
C610 H606 0.929 . S
C610 C612 1.378 . S
C610 C614 1.350 . S
C611 C614 1.463 . S
C611 C616 1.350 . S
C611 N619 1.427 . S
C612 H603 0.930 . S
C612 C610 1.378 . S
C612 C613 1.367 . S
C613 C612 1.367 . S
C613 C615 1.433 . S
C614 C610 1.350 . S
C614 C611 1.463 . S
C614 N618 1.427 . S
C615 H605 0.929 . S
C615 C613 1.433 . S
C615 N618 1.384 . S
C616 H607 0.929 . S
C616 C608 1.378 . S
C616 C611 1.350 . S
C617 H604 0.929 . S
C617 C609 1.433 . S
C617 N619 1.384 . S
N618 C614 1.427 . S
N618 C615 1.384 . S
N619 C611 1.427 . S
N619 C617 1.384 . S
H620 C626 0.930 . S
H621 C630 0.930 . S
H622 C635 0.929 . S
H623 C633 0.929 1_655 S
H624 C628 0.929 . S
H625 C634 0.929 . S
C626 H620 0.930 . S
C626 C627 1.367 . S
C626 C634 1.378 . S
C627 C626 1.367 . S
C627 C635 1.433 . S
C628 H624 0.929 . S
C628 C630 1.378 . S
C628 C632 1.350 . S
C629 C632 1.463 . S
C629 C634 1.350 . S
C629 N637 1.427 . S
C630 H621 0.930 . S
C630 C628 1.378 . S
C630 C631 1.367 . S
C631 C630 1.367 . S
C631 C633 1.433 . S
C632 C628 1.350 . S
C632 C629 1.463 . S
C632 N636 1.427 . S
C633 H623 0.929 1_455 S
C633 C631 1.433 . S
C633 N636 1.384 . S
C634 H625 0.929 . S
C634 C626 1.378 . S
C634 C629 1.350 . S
C635 H622 0.929 . S
C635 C627 1.433 . S
C635 N637 1.384 . S
N636 C632 1.427 . S
N636 C633 1.384 . S
N637 C629 1.427 . S
N637 C635 1.384 . S
H638 C644 0.930 . S
H639 C648 0.930 . S
H640 C653 0.929 . S
H641 C651 0.929 . S
H642 C646 0.929 . S
H643 C652 0.929 . S
C644 H638 0.930 . S
C644 C645 1.367 . S
C644 C652 1.378 . S
C645 C644 1.367 . S
C645 C653 1.433 . S
C646 H642 0.929 . S
C646 C648 1.378 . S
C646 C650 1.350 . S
C647 C650 1.463 . S
C647 C652 1.350 . S
C647 N655 1.427 . S
C648 H639 0.930 . S
C648 C646 1.378 . S
C648 C649 1.367 . S
C649 C648 1.367 . S
C649 C651 1.433 . S
C650 C646 1.350 . S
C650 C647 1.463 . S
C650 N654 1.427 . S
C651 H641 0.929 . S
C651 C649 1.433 . S
C651 N654 1.384 . S
C652 H643 0.929 . S
C652 C644 1.378 . S
C652 C647 1.350 . S
C653 H640 0.929 . S
C653 C645 1.433 . S
C653 N655 1.384 . S
N654 C650 1.427 . S
N654 C651 1.384 . S
N655 C647 1.427 . S
N655 C653 1.384 . S
C231 C9 2.521 . S
C235 C120 2.538 . S
C249 C21 1.079 . S
C253 N140 1.059 . S
C271 C174 1.677 . S
C267 C30 1.644 . S
C285 C43 1.013 . S
C289 N208 1.052 . S
C307 C161 2.226 . S
C303 C4 2.207 . S
C325 N118 1.555 . S
C321 C22 1.591 . S
C343 C195 1.653 1_556 S
C339 C34 1.648 . S
C361 N170 0.883 . S
C357 C48 0.895 . S
C375 C8 1.855 . S
C379 C210 1.861 . S
C397 C144 1.758 . S
C393 C35 1.744 . S
C411 C47 1.461 . S
C415 C105 1.475 . S
C429 C17 1.198 . S
C433 C191 1.208 . S
C451 C131 2.166 . S
C447 C60 2.142 . S
C465 C74 1.344 . S
C469 N148 1.324 . S
C483 C82 1.460 . S
C487 C165 1.469 . S
C501 C100 1.529 . S
C505 N200 1.466 . S
C519 C61 2.599 . S
C523 C150 2.617 . S
C541 N110 1.167 . S
C537 C73 1.193 . S
C559 C204 2.034 . S
C555 C87 2.029 . S
C577 N178 0.682 . S
C573 C95 0.705 . S
C591 C56 1.811 . S
C595 C221 1.892 1_556 S
C613 C135 1.771 . S
C609 C86 1.754 . S
C631 C114 1.422 . S
C627 C99 1.403 . S
C645 C69 1.310 . S
C649 C180 1.330 . S
