# Generated by pormake.
# Topology pto, (3,4)-cn, num edge types: 1
# Building blocks:
#     Node 0, Type 0, BuildingBlock: WUSLED_clean_sbu_0, # of connection points: 3
#     Node 1, Type 0, BuildingBlock: WUSLED_clean_sbu_0, # of connection points: 3
#     Node 2, Type 0, BuildingBlock: WUSLED_clean_sbu_0, # of connection points: 3
#     Node 3, Type 0, BuildingBlock: WUSLED_clean_sbu_0, # of connection points: 3
#     Node 4, Type 0, BuildingBlock: WUSLED_clean_sbu_0, # of connection points: 3
#     Node 5, Type 0, BuildingBlock: WUSLED_clean_sbu_0, # of connection points: 3
#     Node 6, Type 0, BuildingBlock: WUSLED_clean_sbu_0, # of connection points: 3
#     Node 7, Type 0, BuildingBlock: WUSLED_clean_sbu_0, # of connection points: 3
#     Node 8, Type 1, BuildingBlock: MIFKUJ_clean_linker_1, # of connection points: 4
#     Node 9, Type 1, BuildingBlock: MIFKUJ_clean_linker_1, # of connection points: 4
#     Node 10, Type 1, BuildingBlock: MIFKUJ_clean_linker_1, # of connection points: 4
#     Node 11, Type 1, BuildingBlock: MIFKUJ_clean_linker_1, # of connection points: 4
#     Node 12, Type 1, BuildingBlock: MIFKUJ_clean_linker_1, # of connection points: 4
#     Node 13, Type 1, BuildingBlock: MIFKUJ_clean_linker_1, # of connection points: 4
#     Edge 14, Type (0, 1), BuildingBlock: UVAHIK_clean_linker_0, # of connection points: 2
#     Edge 15, Type (0, 1), BuildingBlock: UVAHIK_clean_linker_0, # of connection points: 2
#     Edge 16, Type (0, 1), BuildingBlock: UVAHIK_clean_linker_0, # of connection points: 2
#     Edge 17, Type (0, 1), BuildingBlock: UVAHIK_clean_linker_0, # of connection points: 2
#     Edge 18, Type (0, 1), BuildingBlock: UVAHIK_clean_linker_0, # of connection points: 2
#     Edge 19, Type (0, 1), BuildingBlock: UVAHIK_clean_linker_0, # of connection points: 2
#     Edge 20, Type (0, 1), BuildingBlock: UVAHIK_clean_linker_0, # of connection points: 2
#     Edge 21, Type (0, 1), BuildingBlock: UVAHIK_clean_linker_0, # of connection points: 2
#     Edge 22, Type (0, 1), BuildingBlock: UVAHIK_clean_linker_0, # of connection points: 2
#     Edge 23, Type (0, 1), BuildingBlock: UVAHIK_clean_linker_0, # of connection points: 2
#     Edge 24, Type (0, 1), BuildingBlock: UVAHIK_clean_linker_0, # of connection points: 2
#     Edge 25, Type (0, 1), BuildingBlock: UVAHIK_clean_linker_0, # of connection points: 2
#     Edge 26, Type (0, 1), BuildingBlock: UVAHIK_clean_linker_0, # of connection points: 2
#     Edge 27, Type (0, 1), BuildingBlock: UVAHIK_clean_linker_0, # of connection points: 2
#     Edge 28, Type (0, 1), BuildingBlock: UVAHIK_clean_linker_0, # of connection points: 2
#     Edge 29, Type (0, 1), BuildingBlock: UVAHIK_clean_linker_0, # of connection points: 2
#     Edge 30, Type (0, 1), BuildingBlock: UVAHIK_clean_linker_0, # of connection points: 2
#     Edge 31, Type (0, 1), BuildingBlock: UVAHIK_clean_linker_0, # of connection points: 2
#     Edge 32, Type (0, 1), BuildingBlock: UVAHIK_clean_linker_0, # of connection points: 2
#     Edge 33, Type (0, 1), BuildingBlock: UVAHIK_clean_linker_0, # of connection points: 2
#     Edge 34, Type (0, 1), BuildingBlock: UVAHIK_clean_linker_0, # of connection points: 2
#     Edge 35, Type (0, 1), BuildingBlock: UVAHIK_clean_linker_0, # of connection points: 2
#     Edge 36, Type (0, 1), BuildingBlock: UVAHIK_clean_linker_0, # of connection points: 2
#     Edge 37, Type (0, 1), BuildingBlock: UVAHIK_clean_linker_0, # of connection points: 2
# Relax obj value: 0.001
# Max RMSD: 0.013
# Mean RMSD: 0.005
data_MOF--net-pto--node1-WUSLED_clean_sbu_0--node2-MIFKUJ_clean_linker_1--edge1-UVAHIK_clean_linker_0
_symmetry_space_group_name_H-M    P1
_symmetry_Int_Tables_number       1
_symmetry_cell_setting            triclinic
loop_
_symmetry_equiv_pos_as_xyz
'x, y, z'
_cell_length_a     59.241948
_cell_length_b     87.711673
_cell_length_c     73.704609
_cell_angle_alpha  89.563423
_cell_angle_beta   90.6995
_cell_angle_gamma 90.598004
loop_
_atom_site_label
_atom_site_type_symbol
_atom_site_fract_x
_atom_site_fract_y
_atom_site_fract_z
_atom_type_partial_charge
C0 C 0.2357 0.23313 0.34049 0.0
C1 C 0.25229 0.22227 0.33698 0.0
C2 C 0.23746 0.2058 0.36094 0.0
C3 C 0.25318 0.20873 0.34713 0.0
C4 C 0.22079 0.21673 0.36428 0.0
C5 C 0.21996 0.23026 0.35415 0.0
U6 U 0.25426 0.25808 0.30073 0.0
O7 O 0.23448 0.27293 0.28255 0.0
O8 O 0.26167 0.28271 0.29944 0.0
C9 C 0.24481 0.2854 0.28815 0.0
C10 C 0.23459 0.24743 0.33 0.0
C11 C 0.23006 0.29806 0.29302 0.0
C12 C 0.19905 0.30843 0.31018 0.0
C13 C 0.2133 0.29629 0.30618 0.0
C14 C 0.21845 0.32424 0.28809 0.0
C15 C 0.20134 0.32252 0.30106 0.0
C16 C 0.23263 0.31212 0.28411 0.0
C17 C 0.29729 0.24315 0.26735 0.0
C18 C 0.30802 0.25753 0.24044 0.0
C19 C 0.32551 0.23324 0.24709 0.0
C20 C 0.3126 0.23179 0.26277 0.0
C21 C 0.32331 0.24609 0.23567 0.0
C22 C 0.29511 0.25607 0.25615 0.0
C23 C 0.28354 0.24127 0.28369 0.0
O24 O 0.25298 0.25594 0.33044 0.0
O25 O 0.22565 0.24625 0.31366 0.0
O26 O 0.26164 0.24036 0.28078 0.0
O27 O 0.28909 0.25018 0.29733 0.0
H28 H 0.26459 0.22431 0.32645 0.0
H29 H 0.26638 0.20066 0.34432 0.0
H30 H 0.2082 0.21476 0.37458 0.0
H31 H 0.20696 0.23849 0.35696 0.0
H32 H 0.18595 0.30668 0.32013 0.0
H33 H 0.21111 0.28549 0.31321 0.0
H34 H 0.22097 0.33499 0.28105 0.0
H35 H 0.24557 0.3137 0.27399 0.0
H36 H 0.30572 0.26749 0.23186 0.0
H37 H 0.33736 0.22434 0.24399 0.0
H38 H 0.31454 0.22177 0.27132 0.0
H39 H 0.28331 0.26494 0.2595 0.0
C40 C 0.23424 0.7881 0.67505 0.0
C41 C 0.24804 0.80021 0.68096 0.0
C42 C 0.23559 0.81575 0.65522 0.0
C43 C 0.24872 0.81393 0.67113 0.0
C44 C 0.22181 0.80351 0.64939 0.0
C45 C 0.22116 0.78982 0.65923 0.0
U46 U 0.25314 0.76292 0.71464 0.0
O47 O 0.23365 0.74733 0.73205 0.0
O48 O 0.26098 0.73842 0.71544 0.0
C49 C 0.2442 0.73519 0.72637 0.0
C50 C 0.23338 0.77361 0.68519 0.0
C51 C 0.22966 0.72225 0.72106 0.0
C52 C 0.19765 0.71162 0.70431 0.0
C53 C 0.21196 0.72398 0.7084 0.0
C54 C 0.21897 0.69568 0.72517 0.0
C55 C 0.20084 0.69736 0.71282 0.0
C56 C 0.23319 0.70801 0.72925 0.0
C57 C 0.2957 0.77812 0.74955 0.0
C58 C 0.31862 0.76262 0.76999 0.0
C59 C 0.31187 0.7891 0.77702 0.0
C60 C 0.29894 0.79059 0.76112 0.0
C61 C 0.32193 0.77512 0.7816 0.0
C62 C 0.30552 0.76408 0.75416 0.0
C63 C 0.2819 0.77999 0.73292 0.0
O64 O 0.25196 0.76557 0.68495 0.0
O65 O 0.22436 0.77429 0.70136 0.0
O66 O 0.25998 0.78039 0.73536 0.0
O67 O 0.28766 0.77169 0.71896 0.0
H68 H 0.25823 0.79906 0.69319 0.0
H69 H 0.25932 0.82316 0.67611 0.0
H70 H 0.21174 0.80443 0.63708 0.0
H71 H 0.21048 0.78055 0.65444 0.0
H72 H 0.18377 0.71334 0.69484 0.0
H73 H 0.20901 0.73492 0.70193 0.0
H74 H 0.22217 0.68481 0.73172 0.0
H75 H 0.24686 0.70646 0.73898 0.0
H76 H 0.32594 0.75166 0.77327 0.0
H77 H 0.31427 0.79898 0.78559 0.0
H78 H 0.29147 0.80151 0.75782 0.0
H79 H 0.30304 0.75423 0.74554 0.0
C80 C 0.73107 0.77898 0.26937 0.0
C81 C 0.73346 0.76622 0.25823 0.0
C82 C 0.70456 0.77599 0.2375 0.0
C83 C 0.72031 0.76473 0.24242 0.0
C84 C 0.70218 0.7887 0.24885 0.0
C85 C 0.71533 0.79017 0.26463 0.0
U86 U 0.77491 0.764 0.30305 0.0
O87 O 0.80343 0.77574 0.31646 0.0
O88 O 0.77642 0.76557 0.33285 0.0
C89 C 0.79467 0.77421 0.33269 0.0
C90 C 0.74496 0.7808 0.28589 0.0
C91 C 0.79344 0.78831 0.3433 0.0
C92 C 0.78217 0.81473 0.3463 0.0
C93 C 0.78296 0.80134 0.33612 0.0
C94 C 0.80203 0.8021 0.37101 0.0
C95 C 0.79172 0.81527 0.36387 0.0
C96 C 0.80289 0.78876 0.3608 0.0
C97 C 0.80013 0.72456 0.29504 0.0
C98 C 0.8283 0.71305 0.31494 0.0
C99 C 0.81584 0.69995 0.28771 0.0
C100 C 0.80125 0.71193 0.28359 0.0
C101 C 0.82963 0.70038 0.30338 0.0
C102 C 0.81368 0.72506 0.31077 0.0
C103 C 0.78491 0.7371 0.29017 0.0
O104 O 0.73984 0.77157 0.29939 0.0
O105 O 0.7668 0.78206 0.28324 0.0
O106 O 0.79484 0.7498 0.28486 0.0
O107 O 0.76815 0.73934 0.30134 0.0
H108 H 0.74558 0.75747 0.26171 0.0
H109 H 0.72276 0.75489 0.23391 0.0
H110 H 0.68999 0.79746 0.24564 0.0
H111 H 0.71322 0.80006 0.27314 0.0
H112 H 0.77387 0.8246 0.3405 0.0
H113 H 0.77543 0.80116 0.32265 0.0
H114 H 0.80977 0.80218 0.3844 0.0
H115 H 0.81105 0.77879 0.36653 0.0
H116 H 0.83883 0.71379 0.32702 0.0
H117 H 0.81616 0.69028 0.27868 0.0
H118 H 0.79084 0.71135 0.27142 0.0
H119 H 0.81304 0.73478 0.31974 0.0
C120 C 0.76065 0.21356 0.69944 0.0
C121 C 0.77826 0.21497 0.68696 0.0
C122 C 0.76874 0.18998 0.67458 0.0
C123 C 0.78228 0.20327 0.67462 0.0
C124 C 0.75095 0.18877 0.68701 0.0
C125 C 0.74698 0.20045 0.69933 0.0
U126 U 0.77149 0.25336 0.71862 0.0
O127 O 0.74785 0.26981 0.72993 0.0
O128 O 0.77519 0.26066 0.74703 0.0
C129 C 0.75681 0.26891 0.74631 0.0
C130 C 0.75649 0.22553 0.71281 0.0
C131 C 0.74086 0.26641 0.7612 0.0
C132 C 0.70849 0.25333 0.77432 0.0
C133 C 0.72375 0.25525 0.7601 0.0
C134 C 0.7276 0.27348 0.79098 0.0
C135 C 0.71015 0.26249 0.78991 0.0
C136 C 0.74275 0.27542 0.77675 0.0
C137 C 0.81313 0.28061 0.69614 0.0
C138 C 0.82103 0.30567 0.70869 0.0
C139 C 0.83928 0.29787 0.68106 0.0
C140 C 0.82795 0.28382 0.68192 0.0
C141 C 0.83599 0.30897 0.69445 0.0
C142 C 0.80969 0.29161 0.70951 0.0
C143 C 0.80138 0.26579 0.6969 0.0
O144 O 0.77351 0.2287 0.7238 0.0
O145 O 0.74628 0.23774 0.70651 0.0
O146 O 0.77952 0.26621 0.69373 0.0
O147 O 0.80685 0.25705 0.7108 0.0
H148 H 0.789 0.22505 0.68688 0.0
H149 H 0.79625 0.20452 0.66536 0.0
H150 H 0.73995 0.17883 0.68715 0.0
H151 H 0.73324 0.19922 0.70882 0.0
H152 H 0.69517 0.24485 0.77296 0.0
H153 H 0.72209 0.24814 0.7482 0.0
H154 H 0.72967 0.28053 0.8029 0.0
H155 H 0.75597 0.28401 0.77788 0.0
H156 H 0.8179 0.31401 0.71909 0.0
H157 H 0.85089 0.29995 0.67006 0.0
H158 H 0.83082 0.27543 0.67151 0.0
H159 H 0.79821 0.28932 0.72057 0.0
C160 C 0.79383 0.7203 0.72569 0.0
C161 C 0.80841 0.72142 0.71086 0.0
C162 C 0.82036 0.69519 0.71595 0.0
C163 C 0.82161 0.70896 0.70605 0.0
C164 C 0.80574 0.69423 0.73084 0.0
C165 C 0.79261 0.70667 0.73564 0.0
U166 U 0.77166 0.76081 0.71883 0.0
O167 O 0.73716 0.76941 0.7219 0.0
O168 O 0.76467 0.77839 0.73905 0.0
C169 C 0.7428 0.77797 0.73583 0.0
C170 C 0.77969 0.73315 0.73096 0.0
C171 C 0.72859 0.77606 0.7519 0.0
C172 C 0.71687 0.76149 0.7784 0.0
C173 C 0.73047 0.76312 0.76309 0.0
C174 C 0.69929 0.78569 0.77136 0.0
C175 C 0.7011 0.77276 0.78271 0.0
C176 C 0.71293 0.78731 0.7561 0.0
C177 C 0.79182 0.78567 0.67947 0.0
C178 C 0.7753 0.81033 0.67268 0.0
C179 C 0.80778 0.80188 0.65597 0.0
C180 C 0.80796 0.78832 0.66606 0.0
C181 C 0.7914 0.81304 0.65909 0.0
C182 C 0.77553 0.79676 0.68279 0.0
C183 C 0.79218 0.7713 0.68987 0.0
O184 O 0.79061 0.7453 0.73683 0.0
O185 O 0.76299 0.73638 0.71973 0.0
O186 O 0.77346 0.76314 0.68916 0.0
O187 O 0.80091 0.77222 0.70631 0.0
H188 H 0.80949 0.73188 0.70301 0.0
H189 H 0.83254 0.71003 0.69442 0.0
H190 H 0.80462 0.6839 0.73895 0.0
H191 H 0.78149 0.70564 0.74716 0.0
H192 H 0.71851 0.75133 0.78673 0.0
H193 H 0.74244 0.75428 0.75998 0.0
H194 H 0.68755 0.79467 0.77441 0.0
H195 H 0.7113 0.79738 0.74761 0.0
H196 H 0.76229 0.81858 0.67532 0.0
H197 H 0.82065 0.80368 0.64584 0.0
H198 H 0.82074 0.7799 0.6634 0.0
H199 H 0.76294 0.79489 0.69314 0.0
C200 C 0.73003 0.23852 0.2686 0.0
C201 C 0.72042 0.25262 0.264 0.0
C202 C 0.7026 0.24144 0.23714 0.0
C203 C 0.70676 0.25404 0.24847 0.0
C204 C 0.71259 0.2274 0.24172 0.0
C205 C 0.72611 0.22596 0.25732 0.0
U206 U 0.7726 0.25419 0.30313 0.0
O207 O 0.77418 0.25156 0.33282 0.0
O208 O 0.80191 0.24328 0.3162 0.0
C209 C 0.79306 0.24384 0.33245 0.0
C210 C 0.74424 0.2367 0.28501 0.0
C211 C 0.79286 0.22938 0.34265 0.0
C212 C 0.77927 0.20337 0.34685 0.0
C213 C 0.77938 0.21703 0.33692 0.0
C214 C 0.80611 0.21428 0.36829 0.0
C215 C 0.79265 0.20182 0.36267 0.0
C216 C 0.8062 0.22792 0.35836 0.0
C217 C 0.79421 0.29527 0.29708 0.0
C218 C 0.82305 0.30689 0.31639 0.0
C219 C 0.80529 0.32169 0.29238 0.0
C220 C 0.79206 0.30905 0.28757 0.0
C221 C 0.82095 0.32079 0.30685 0.0
C222 C 0.80974 0.29423 0.31156 0.0
C223 C 0.78026 0.28213 0.29154 0.0
O224 O 0.76612 0.23675 0.2823 0.0
O225 O 0.7384 0.24477 0.29915 0.0
O226 O 0.76362 0.27848 0.30242 0.0
O227 O 0.79138 0.27025 0.28578 0.0
H228 H 0.72335 0.2625 0.27246 0.0
H229 H 0.69918 0.26498 0.24552 0.0
H230 H 0.71015 0.21752 0.23317 0.0
H231 H 0.73354 0.21503 0.26056 0.0
H232 H 0.76891 0.19396 0.34202 0.0
H233 H 0.76899 0.21798 0.32477 0.0
H234 H 0.81636 0.21357 0.38054 0.0
H235 H 0.81663 0.23737 0.363 0.0
H236 H 0.8348 0.30586 0.3277 0.0
H237 H 0.80349 0.33212 0.28455 0.0
H238 H 0.78022 0.31002 0.27631 0.0
H239 H 0.81156 0.28364 0.31908 0.0
C240 C 0.23636 0.23167 0.67341 0.0
C241 C 0.24695 0.21887 0.68107 0.0
C242 C 0.23874 0.20428 0.65371 0.0
C243 C 0.24807 0.20527 0.67133 0.0
C244 C 0.22824 0.21719 0.64611 0.0
C245 C 0.22705 0.23075 0.65589 0.0
U246 U 0.25437 0.2569 0.71297 0.0
O247 O 0.26208 0.28151 0.71361 0.0
O248 O 0.23456 0.27206 0.73006 0.0
C249 C 0.24501 0.28442 0.72421 0.0
C250 C 0.23511 0.24605 0.68344 0.0
C251 C 0.23047 0.29708 0.71834 0.0
C252 C 0.19661 0.30677 0.70347 0.0
C253 C 0.21043 0.29452 0.7084 0.0
C254 C 0.22297 0.32425 0.71799 0.0
C255 C 0.2027 0.32177 0.70826 0.0
C256 C 0.23667 0.31201 0.723 0.0
C257 C 0.29727 0.24219 0.74774 0.0
C258 C 0.30838 0.25687 0.77428 0.0
C259 C 0.32638 0.23277 0.76826 0.0
C260 C 0.313 0.23105 0.75264 0.0
C261 C 0.32425 0.24571 0.77927 0.0
C262 C 0.29503 0.25514 0.75861 0.0
C263 C 0.28343 0.24018 0.73124 0.0
O264 O 0.2259 0.24507 0.69955 0.0
O265 O 0.25355 0.25451 0.68326 0.0
O266 O 0.28908 0.24889 0.7174 0.0
O267 O 0.26151 0.23943 0.73375 0.0
H268 H 0.25438 0.21942 0.69456 0.0
H269 H 0.2565 0.1956 0.67749 0.0
H270 H 0.22065 0.21676 0.63268 0.0
H271 H 0.21882 0.24053 0.64977 0.0
H272 H 0.18123 0.30451 0.69581 0.0
H273 H 0.20542 0.28307 0.70455 0.0
H274 H 0.22801 0.33563 0.72209 0.0
H275 H 0.25207 0.31421 0.73068 0.0
H276 H 0.30649 0.26704 0.78235 0.0
H277 H 0.33819 0.22387 0.77184 0.0
H278 H 0.3149 0.22097 0.74441 0.0
H279 H 0.283 0.2639 0.75495 0.0
C280 C 0.21283 0.73625 0.3229 0.0
C281 C 0.20287 0.73003 0.30718 0.0
C282 C 0.18987 0.70782 0.32439 0.0
C283 C 0.19142 0.71601 0.30794 0.0
C284 C 0.2001 0.71404 0.34005 0.0
C285 C 0.21138 0.72812 0.33931 0.0
U286 U 0.25499 0.764 0.30144 0.0
O287 O 0.25319 0.78873 0.29671 0.0
O288 O 0.28008 0.77938 0.31412 0.0
C289 C 0.27016 0.7917 0.30783 0.0
C290 C 0.22481 0.75111 0.32249 0.0
C291 C 0.26623 0.80371 0.32119 0.0
C292 C 0.24467 0.81446 0.34577 0.0
C293 C 0.24835 0.80267 0.33347 0.0
C294 C 0.27688 0.82829 0.33376 0.0
C295 C 0.25881 0.82747 0.34597 0.0
C296 C 0.28051 0.81653 0.32149 0.0
C297 C 0.28664 0.75142 0.25898 0.0
C298 C 0.30285 0.76718 0.23504 0.0
C299 C 0.31614 0.74144 0.23992 0.0
C300 C 0.30103 0.73957 0.2542 0.0
C301 C 0.31709 0.75521 0.23001 0.0
C302 C 0.28782 0.76533 0.24942 0.0
C303 C 0.27035 0.74884 0.27369 0.0
O304 O 0.24661 0.75065 0.32595 0.0
O305 O 0.21956 0.76035 0.30898 0.0
O306 O 0.25178 0.75693 0.27297 0.0
O307 O 0.27905 0.74771 0.29013 0.0
H308 H 0.2038 0.73601 0.29429 0.0
H309 H 0.18351 0.71172 0.29566 0.0
H310 H 0.19962 0.70797 0.35289 0.0
H311 H 0.21906 0.73266 0.35157 0.0
H312 H 0.23051 0.81352 0.35488 0.0
H313 H 0.23716 0.79282 0.33342 0.0
H314 H 0.28834 0.83799 0.33374 0.0
H315 H 0.29447 0.81747 0.31216 0.0
H316 H 0.30295 0.77789 0.22762 0.0
H317 H 0.32714 0.73208 0.2367 0.0
H318 H 0.3005 0.72879 0.26147 0.0
H319 H 0.27695 0.77469 0.25291 0.0
H320 H 0.96777 0.48873 0.30785 0.0
H321 H 0.94463 0.46555 0.30688 0.0
H322 H 0.9794 0.44848 0.3546 0.0
H323 H 1.00243 0.47181 0.35562 0.0
H324 H 0.97142 0.51051 0.33133 0.0
H325 H 0.02142 0.47455 0.30654 0.0
H326 H 0.04258 0.45097 0.30404 0.0
H327 H 0.07952 0.46207 0.35321 0.0
H328 H 0.05753 0.48538 0.35603 0.0
H329 H 0.05579 0.53445 0.35861 0.0
H330 H 0.07815 0.55812 0.3576 0.0
H331 H 0.04851 0.56909 0.30533 0.0
H332 H 0.02644 0.54536 0.30633 0.0
H333 H 0.05511 0.50982 0.33427 0.0
H334 H 1.00327 0.54779 0.3564 0.0
H335 H 0.98288 0.5719 0.35445 0.0
H336 H 0.95043 0.55689 0.30479 0.0
H337 H 0.97131 0.53304 0.30655 0.0
C338 C 0.98696 0.48201 0.33173 0.0
C339 C 0.97035 0.48005 0.31817 0.0
C340 C 0.95711 0.46679 0.31765 0.0
C341 C 0.96016 0.45518 0.33069 0.0
C342 C 0.97682 0.45713 0.34425 0.0
C343 C 0.98999 0.47047 0.34484 0.0
C344 C 1.00084 0.49625 0.3322 0.0
C345 C 0.98973 0.51032 0.33182 0.0
C346 C 0.02475 0.49605 0.33304 0.0
C347 C 0.03764 0.48166 0.33161 0.0
C348 C 0.03385 0.47181 0.31693 0.0
C349 C 0.04618 0.4584 0.3154 0.0
C350 C 0.06281 0.4546 0.32841 0.0
C351 C 0.06664 0.46452 0.34308 0.0
C352 C 0.05422 0.47792 0.34464 0.0
C353 C 0.03934 0.53822 0.33262 0.0
C354 C 0.05418 0.54195 0.34693 0.0
C355 C 0.06681 0.55551 0.34639 0.0
C356 C 0.06505 0.56548 0.3314 0.0
C357 C 0.05038 0.56159 0.31699 0.0
C358 C 0.03764 0.54809 0.3176 0.0
C359 C 0.02564 0.52397 0.33333 0.0
C360 C 0.03679 0.50992 0.33397 0.0
C361 C 1.00178 0.52418 0.33228 0.0
C362 C 0.989 0.53866 0.33152 0.0
C363 C 0.99186 0.54974 0.34504 0.0
C364 C 0.98005 0.56346 0.34399 0.0
C365 C 0.9651 0.56635 0.32942 0.0
C366 C 0.96207 0.55513 0.31604 0.0
C367 C 0.97384 0.54143 0.31711 0.0
H368 H 0.05211 0.53339 0.65978 0.0
H369 H 0.07438 0.55696 0.66224 0.0
H370 H 0.04073 0.56742 0.71228 0.0
H371 H 0.01925 0.5436 0.7101 0.0
H372 H 0.05097 0.50887 0.68179 0.0
H373 H 0.99724 0.54644 0.66137 0.0
H374 H 0.97448 0.56952 0.66318 0.0
H375 H 0.94264 0.55164 0.71141 0.0
H376 H 0.96547 0.52871 0.70961 0.0
H377 H 0.96733 0.48445 0.70921 0.0
H378 H 0.94598 0.46049 0.71022 0.0
H379 H 0.97778 0.4463 0.66075 0.0
H380 H 0.99851 0.47054 0.65949 0.0
H381 H 0.96743 0.50723 0.68539 0.0
H382 H 0.02156 0.47178 0.70854 0.0
H383 H 0.04431 0.44871 0.70937 0.0
H384 H 0.07548 0.46231 0.65899 0.0
H385 H 0.05264 0.48541 0.65826 0.0
C386 C 0.03383 0.53679 0.68465 0.0
C387 C 0.04957 0.54076 0.67129 0.0
C388 C 0.06215 0.55431 0.67264 0.0
C389 C 0.05933 0.56412 0.68745 0.0
C390 C 0.04353 0.56007 0.7008 0.0
C391 C 0.03103 0.54653 0.69946 0.0
C392 C 0.02077 0.52226 0.68339 0.0
C393 C 0.03267 0.50853 0.68223 0.0
C394 C 0.99692 0.52179 0.68451 0.0
C395 C 0.98319 0.53586 0.68543 0.0
C396 C 0.98549 0.54756 0.67242 0.0
C397 C 0.97248 0.56074 0.67347 0.0
C398 C 0.95672 0.5624 0.68742 0.0
C399 C 0.95439 0.55063 0.70035 0.0
C400 C 0.96747 0.53752 0.69936 0.0
C401 C 0.98467 0.47926 0.68436 0.0
C402 C 0.96961 0.47621 0.69852 0.0
C403 C 0.95757 0.46244 0.69917 0.0
C404 C 0.96025 0.45142 0.68562 0.0
C405 C 0.97517 0.45458 0.67133 0.0
C406 C 0.9872 0.46838 0.67068 0.0
C407 C 0.99762 0.49387 0.68396 0.0
C408 C 0.98572 0.5076 0.68476 0.0
C409 C 0.02146 0.49433 0.68278 0.0
C410 C 0.03519 0.48025 0.68322 0.0
C411 C 0.03311 0.46971 0.69756 0.0
C412 C 0.04611 0.45651 0.69801 0.0
C413 C 0.06166 0.45362 0.68421 0.0
C414 C 0.06382 0.46425 0.66992 0.0
C415 C 0.05075 0.47744 0.66946 0.0
H416 H 0.20904 0.98698 0.54187 0.0
H417 H 0.20895 0.96347 0.55988 0.0
H418 H 0.27093 0.94993 0.53451 0.0
H419 H 0.27132 0.97372 0.517 0.0
H420 H 0.23839 0.01021 0.54136 0.0
H421 H 0.21114 0.97316 0.49816 0.0
H422 H 0.21134 0.95019 0.47953 0.0
H423 H 0.27314 0.9657 0.45456 0.0
H424 H 0.2729 0.98859 0.47324 0.0
H425 H 0.27229 0.03422 0.47321 0.0
H426 H 0.27223 0.05787 0.45543 0.0
H427 H 0.21061 0.07129 0.4814 0.0
H428 H 0.21072 0.0476 0.4991 0.0
H429 H 0.2435 0.01103 0.47425 0.0
H430 H 0.27152 0.04761 0.51703 0.0
H431 H 0.27185 0.07097 0.53493 0.0
H432 H 0.21001 0.0565 0.56067 0.0
H433 H 0.20974 0.03318 0.54269 0.0
C434 C 0.24006 0.98207 0.52795 0.0
C435 C 0.22264 0.97896 0.54022 0.0
C436 C 0.22252 0.96545 0.5504 0.0
C437 C 0.23988 0.95476 0.54859 0.0
C438 C 0.2574 0.95796 0.53636 0.0
C439 C 0.25752 0.97149 0.52619 0.0
C440 C 0.24013 0.99653 0.51728 0.0
C441 C 0.23919 0.01039 0.52666 0.0
C442 C 0.24184 0.99676 0.49813 0.0
C443 C 0.24211 0.98257 0.48722 0.0
C444 C 0.22488 0.97153 0.48884 0.0
C445 C 0.22501 0.95839 0.47818 0.0
C446 C 0.24223 0.95613 0.46553 0.0
C447 C 0.25947 0.96719 0.46399 0.0
C448 C 0.25939 0.98027 0.4747 0.0
C449 C 0.24165 0.03918 0.48765 0.0
C450 C 0.25873 0.04224 0.47504 0.0
C451 C 0.25864 0.05575 0.46485 0.0
C452 C 0.24144 0.06649 0.46702 0.0
C453 C 0.2243 0.06338 0.4796 0.0
C454 C 0.22434 0.04983 0.48973 0.0
C455 C 0.24174 0.02472 0.49832 0.0
C456 C 0.24271 0.01086 0.48895 0.0
C457 C 0.2402 0.02448 0.51749 0.0
C458 C 0.24046 0.0387 0.52835 0.0
C459 C 0.25791 0.04954 0.5264 0.0
C460 C 0.25807 0.06289 0.53663 0.0
C461 C 0.24092 0.06562 0.5492 0.0
C462 C 0.2236 0.05468 0.55126 0.0
C463 C 0.22339 0.04135 0.54096 0.0
H464 H 0.47295 0.7896 0.98123 0.0
H465 H 0.45008 0.79023 0.95344 0.0
H466 H 0.47663 0.74647 0.93823 0.0
H467 H 0.49981 0.74611 0.9659 0.0
H468 H 0.4722 0.76913 0.0092 0.0
H469 H 0.52576 0.78722 0.96538 0.0
H470 H 0.54782 0.78707 0.93759 0.0
H471 H 0.57726 0.74417 0.95399 0.0
H472 H 0.5552 0.74443 0.98182 0.0
H473 H 0.5569 0.74512 0.03746 0.0
H474 H 0.58012 0.74573 0.06513 0.0
H475 H 0.54858 0.78782 0.08057 0.0
H476 H 0.52598 0.7874 0.05263 0.0
H477 H 0.55555 0.76431 0.00935 0.0
H478 H 0.50238 0.74569 0.05262 0.0
H479 H 0.48009 0.74505 0.08032 0.0
H480 H 0.44929 0.7877 0.06472 0.0
H481 H 0.47205 0.78845 0.03722 0.0
C482 C 0.48819 0.76787 0.97558 0.0
C483 C 0.47384 0.78015 0.97188 0.0
C484 C 0.46069 0.78045 0.95602 0.0
C485 C 0.46142 0.76837 0.94357 0.0
C486 C 0.47587 0.75607 0.94734 0.0
C487 C 0.4891 0.75582 0.96319 0.0
C488 C 0.50178 0.76752 0.99265 0.0
C489 C 0.49046 0.76829 0.00924 0.0
C490 C 0.52553 0.76594 0.99267 0.0
C491 C 0.53864 0.76575 0.97562 0.0
C492 C 0.53678 0.77769 0.9629 0.0
C493 C 0.5494 0.77759 0.947 0.0
C494 C 0.56429 0.76559 0.94353 0.0
C495 C 0.56616 0.75367 0.95633 0.0
C496 C 0.55351 0.75378 0.97222 0.0
C497 C 0.53956 0.76614 0.04302 0.0
C498 C 0.55501 0.75448 0.04681 0.0
C499 C 0.56814 0.75478 0.06271 0.0
C500 C 0.56619 0.76681 0.07509 0.0
C501 C 0.55067 0.77847 0.07125 0.0
C502 C 0.53755 0.77816 0.05536 0.0
C503 C 0.52598 0.76598 0.02593 0.0
C504 C 0.53729 0.76512 0.00932 0.0
C505 C 0.50219 0.76739 0.02588 0.0
C506 C 0.48903 0.76718 0.04291 0.0
C507 C 0.49102 0.75499 0.05526 0.0
C508 C 0.47811 0.75457 0.07101 0.0
C509 C 0.46289 0.76632 0.07471 0.0
C510 C 0.46104 0.77857 0.06237 0.0
C511 C 0.4739 0.77895 0.04658 0.0
H512 H 0.76149 0.98444 0.54616 0.0
H513 H 0.76125 0.96084 0.56402 0.0
H514 H 0.82301 0.94717 0.53846 0.0
H515 H 0.8232 0.97082 0.52067 0.0
H516 H 0.79037 0.00748 0.54533 0.0
H517 H 0.76255 0.97101 0.50245 0.0
H518 H 0.76216 0.94767 0.48454 0.0
H519 H 0.8242 0.96199 0.45898 0.0
H520 H 0.82452 0.98531 0.47698 0.0
H521 H 0.82475 0.03183 0.47775 0.0
H522 H 0.82427 0.05525 0.45959 0.0
H523 H 0.76201 0.06824 0.48494 0.0
H524 H 0.76219 0.04452 0.50257 0.0
H525 H 0.79582 0.00834 0.47825 0.0
H526 H 0.82212 0.04575 0.52151 0.0
H527 H 0.82134 0.06865 0.54028 0.0
H528 H 0.75992 0.05232 0.56516 0.0
H529 H 0.76071 0.02954 0.54633 0.0
C530 C 0.79224 0.97937 0.53194 0.0
C531 C 0.77502 0.97638 0.54444 0.0
C532 C 0.77493 0.9629 0.55467 0.0
C533 C 0.7921 0.95211 0.55265 0.0
C534 C 0.80936 0.95513 0.54015 0.0
C535 C 0.80949 0.96866 0.52997 0.0
C536 C 0.79232 0.99382 0.52126 0.0
C537 C 0.79126 0.00767 0.53064 0.0
C538 C 0.79397 0.99406 0.50211 0.0
C539 C 0.79371 0.97985 0.49124 0.0
C540 C 0.77619 0.96906 0.49313 0.0
C541 C 0.776 0.95571 0.48288 0.0
C542 C 0.79319 0.95294 0.47036 0.0
C543 C 0.81058 0.96384 0.46836 0.0
C544 C 0.81082 0.97716 0.47868 0.0
C545 C 0.79364 0.03647 0.49166 0.0
C546 C 0.81098 0.03971 0.47936 0.0
C547 C 0.81077 0.05318 0.4691 0.0
C548 C 0.79314 0.06367 0.47084 0.0
C549 C 0.77573 0.06035 0.48312 0.0
C550 C 0.77593 0.04687 0.49337 0.0
C551 C 0.79382 0.02202 0.50233 0.0
C552 C 0.79496 0.00816 0.49295 0.0
C553 C 0.79202 0.02177 0.52148 0.0
C554 C 0.79138 0.03595 0.5324 0.0
C555 C 0.80833 0.04719 0.53084 0.0
C556 C 0.80787 0.06028 0.54158 0.0
C557 C 0.7906 0.06228 0.55425 0.0
C558 C 0.77363 0.05103 0.55571 0.0
C559 C 0.77402 0.03801 0.54492 0.0
H560 H 0.4693 0.27511 0.98098 0.0
H561 H 0.44701 0.27515 0.95282 0.0
H562 H 0.47668 0.23229 0.93793 0.0
H563 H 0.49897 0.23237 0.96604 0.0
H564 H 0.46966 0.25567 0.00907 0.0
H565 H 0.52302 0.27309 0.96512 0.0
H566 H 0.5455 0.27287 0.93753 0.0
H567 H 0.57656 0.2309 0.95532 0.0
H568 H 0.5539 0.23111 0.98283 0.0
H569 H 0.55159 0.2299 0.03785 0.0
H570 H 0.57403 0.22914 0.06594 0.0
H571 H 0.54717 0.27274 0.08122 0.0
H572 H 0.52499 0.27353 0.05297 0.0
H573 H 0.55295 0.25038 0.0099 0.0
H574 H 0.4988 0.23229 0.05293 0.0
H575 H 0.47651 0.23222 0.08061 0.0
H576 H 0.44676 0.27504 0.06428 0.0
H577 H 0.46967 0.27527 0.03689 0.0
C578 C 0.48599 0.25383 0.97555 0.0
C579 C 0.47098 0.26572 0.97165 0.0
C580 C 0.4582 0.2657 0.95557 0.0
C581 C 0.4601 0.25374 0.94308 0.0
C582 C 0.47508 0.2418 0.94708 0.0
C583 C 0.48782 0.24182 0.96317 0.0
C584 C 0.49941 0.25383 0.99272 0.0
C585 C 0.48792 0.25476 0.00923 0.0
C586 C 0.52319 0.25225 0.99294 0.0
C587 C 0.53657 0.25203 0.976 0.0
C588 C 0.53444 0.26373 0.96298 0.0
C589 C 0.54731 0.26359 0.9472 0.0
C590 C 0.56279 0.25185 0.94422 0.0
C591 C 0.56496 0.24019 0.9573 0.0
C592 C 0.55198 0.24028 0.97302 0.0
C593 C 0.53651 0.25172 0.04337 0.0
C594 C 0.55055 0.23929 0.04725 0.0
C595 C 0.56324 0.23883 0.06336 0.0
C596 C 0.56232 0.25086 0.07582 0.0
C597 C 0.54835 0.26335 0.07184 0.0
C598 C 0.53554 0.26376 0.05577 0.0
C599 C 0.52318 0.25217 0.02618 0.0
C600 C 0.5347 0.25133 0.00969 0.0
C601 C 0.49944 0.25383 0.02597 0.0
C602 C 0.48611 0.25387 0.04292 0.0
C603 C 0.4877 0.24176 0.05542 0.0
C604 C 0.47475 0.24166 0.07116 0.0
C605 C 0.45982 0.25362 0.07467 0.0
C606 C 0.45829 0.26575 0.06212 0.0
C607 C 0.47125 0.26584 0.04638 0.0
C608 C 0.1792 0.33868 0.32255 0.0
C609 C 0.18582 0.33536 0.30476 0.0
C610 C 0.16496 0.35096 0.32591 0.0
C611 C 0.12409 0.37681 0.3031 0.0
H612 H 0.13701 0.40341 0.34378 0.0
C613 C 0.08369 0.43594 0.30928 0.0
C614 C 0.07634 0.4405 0.32646 0.0
C615 C 0.09627 0.42268 0.30734 0.0
C616 C 0.13301 0.39599 0.33249 0.0
H617 H 0.18216 0.34217 0.27652 0.0
H618 H 0.15786 0.3637 0.2824 0.0
H619 H 0.16017 0.38094 0.33916 0.0
H620 H 0.07642 0.43454 0.35508 0.0
H621 H 0.09856 0.41142 0.35168 0.0
H622 H 0.09714 0.39194 0.29628 0.0
C623 C 0.16346 0.35675 0.29377 0.0
C624 C 0.14627 0.38309 0.32985 0.0
C625 C 0.17766 0.34451 0.29042 0.0
C626 C 0.08204 0.43148 0.34168 0.0
C627 C 0.09471 0.41822 0.33974 0.0
C628 C 0.1109 0.3897 0.30571 0.0
C629 C 0.15695 0.36017 0.31155 0.0
C630 C 0.14213 0.37343 0.315 0.0
C631 C 0.1019 0.41364 0.32252 0.0
C632 C 0.11533 0.39954 0.32031 0.0
H633 H 0.1853 0.33193 0.33392 0.0
H634 H 0.16012 0.35319 0.33975 0.0
H635 H 0.12013 0.36945 0.29173 0.0
H636 H 0.08002 0.44275 0.29731 0.0
H637 H 0.1019 0.41964 0.29393 0.0
C638 C 0.17699 0.68127 0.69165 0.0
C639 C 0.18508 0.68435 0.70928 0.0
C640 C 0.16242 0.66887 0.68846 0.0
C641 C 0.12313 0.64232 0.71197 0.0
H642 H 0.13262 0.61629 0.67053 0.0
C643 C 0.08168 0.58288 0.70619 0.0
C644 C 0.07307 0.57837 0.68918 0.0
C645 C 0.09451 0.59626 0.70792 0.0
C646 C 0.12956 0.62355 0.68204 0.0
H647 H 0.18371 0.67701 0.73742 0.0
H648 H 0.1588 0.65531 0.73183 0.0
H649 H 0.15634 0.63895 0.67478 0.0
H650 H 0.07114 0.58451 0.66064 0.0
H651 H 0.09368 0.60785 0.66367 0.0
H652 H 0.09656 0.62686 0.71935 0.0
C653 C 0.16352 0.6625 0.72046 0.0
C654 C 0.14315 0.63655 0.68447 0.0
C655 C 0.17807 0.67485 0.72364 0.0
C656 C 0.07774 0.58754 0.67391 0.0
C657 C 0.09064 0.60093 0.67564 0.0
C658 C 0.1096 0.62934 0.70955 0.0
C659 C 0.15552 0.65933 0.70284 0.0
C660 C 0.14027 0.646 0.69959 0.0
C661 C 0.09911 0.60547 0.69269 0.0
C662 C 0.11282 0.61969 0.69468 0.0
H663 H 0.18217 0.6883 0.68027 0.0
H664 H 0.15642 0.66682 0.67475 0.0
H665 H 0.12014 0.64951 0.72356 0.0
H666 H 0.07881 0.57595 0.71818 0.0
H667 H 0.10113 0.59926 0.7212 0.0
C668 C 0.85767 0.68094 0.2935 0.0
C669 C 0.84537 0.68766 0.30749 0.0
C670 C 0.87188 0.66865 0.29712 0.0
C671 C 0.88153 0.63746 0.33004 0.0
H672 H 0.93861 0.63413 0.30523 0.0
C673 C 0.94304 0.58752 0.34347 0.0
C674 C 0.95273 0.581 0.32807 0.0
C675 C 0.93098 0.60112 0.34203 0.0
C676 C 0.92264 0.63483 0.31217 0.0
H677 H 0.83858 0.68677 0.33632 0.0
H678 H 0.86369 0.6654 0.3427 0.0
H679 H 0.91587 0.65691 0.30093 0.0
H680 H 0.95778 0.58389 0.29915 0.0
H681 H 0.9365 0.60743 0.29658 0.0
H682 H 0.88822 0.61529 0.34112 0.0
C683 C 0.86213 0.66958 0.32888 0.0
C684 C 0.9096 0.64789 0.30971 0.0
C685 C 0.84792 0.68192 0.32526 0.0
C686 C 0.95031 0.58851 0.31124 0.0
C687 C 0.93833 0.60211 0.30981 0.0
C688 C 0.8946 0.62439 0.33252 0.0
C689 C 0.8742 0.66275 0.31483 0.0
C690 C 0.88875 0.64929 0.31842 0.0
C691 C 0.92843 0.60856 0.32516 0.0
C692 C 0.91518 0.62283 0.32342 0.0
H693 H 0.85633 0.68519 0.2797 0.0
H694 H 0.88072 0.66358 0.28593 0.0
H695 H 0.86544 0.63807 0.33679 0.0
H696 H 0.94445 0.58197 0.35661 0.0
H697 H 0.92373 0.60586 0.35414 0.0
C698 C 0.85746 0.33043 0.70943 0.0
C699 C 0.84824 0.32386 0.69361 0.0
C700 C 0.86933 0.34428 0.70859 0.0
C701 C 0.87769 0.37858 0.6798 0.0
H702 H 0.93291 0.38329 0.70808 0.0
C703 C 0.93797 0.43031 0.67065 0.0
C704 C 0.94752 0.43671 0.68644 0.0
C705 C 0.9258 0.41657 0.6715 0.0
C706 C 0.91739 0.38224 0.70025 0.0
H707 H 0.84392 0.32689 0.66455 0.0
H708 H 0.86492 0.35091 0.66304 0.0
H709 H 0.91158 0.35942 0.70971 0.0
H710 H 0.95203 0.43353 0.71547 0.0
H711 H 0.93048 0.40975 0.71699 0.0
H712 H 0.8835 0.40141 0.67034 0.0
C713 C 0.86284 0.34541 0.67612 0.0
C714 C 0.90515 0.36854 0.70119 0.0
C715 C 0.85102 0.33154 0.67696 0.0
C716 C 0.94469 0.42901 0.70308 0.0
C717 C 0.93255 0.41527 0.70392 0.0
C718 C 0.88992 0.39229 0.67886 0.0
C719 C 0.87222 0.35192 0.69192 0.0
C720 C 0.88515 0.36654 0.69098 0.0
C721 C 0.92293 0.40889 0.68814 0.0
C722 C 0.90993 0.39429 0.68908 0.0
H723 H 0.85581 0.32475 0.72245 0.0
H724 H 0.87611 0.34905 0.72104 0.0
H725 H 0.86218 0.37751 0.67195 0.0
H726 H 0.93964 0.43601 0.65765 0.0
H727 H 0.91882 0.41189 0.65906 0.0
C728 C 0.23418 0.19157 0.39059 0.0
C729 C 0.23839 0.19143 0.37185 0.0
C730 C 0.23472 0.17808 0.40081 0.0
C731 C 0.2567 0.1388 0.40078 0.0
H732 H 0.21049 0.13143 0.43671 0.0
C733 C 0.24661 0.08068 0.43756 0.0
C734 C 0.24129 0.08084 0.4561 0.0
C735 C 0.24638 0.09415 0.42727 0.0
C736 C 0.22369 0.13338 0.4269 0.0
H737 H 0.24634 0.17688 0.34918 0.0
H738 H 0.24742 0.15336 0.36705 0.0
H739 H 0.20999 0.15491 0.41884 0.0
H740 H 0.23192 0.09534 0.47841 0.0
H741 H 0.23164 0.11884 0.46051 0.0
H742 H 0.27046 0.1173 0.4089 0.0
C743 C 0.24394 0.16396 0.37387 0.0
C744 C 0.22339 0.14685 0.41663 0.0
C745 C 0.24334 0.17746 0.36362 0.0
C746 C 0.23578 0.09479 0.4641 0.0
C747 C 0.2356 0.10826 0.45383 0.0
C748 C 0.25704 0.12534 0.41109 0.0
C749 C 0.23955 0.1641 0.39257 0.0
C750 C 0.23989 0.14974 0.40346 0.0
C751 C 0.24087 0.10811 0.43526 0.0
C752 C 0.24054 0.12245 0.42429 0.0
H753 H 0.23072 0.20215 0.39745 0.0
H754 H 0.23164 0.17864 0.41524 0.0
H755 H 0.26984 0.14076 0.39092 0.0
H756 H 0.2506 0.0701 0.4309 0.0
H757 H 0.25016 0.09355 0.41295 0.0
C758 C 0.35675 0.76616 0.79813 0.0
C759 C 0.3359 0.77365 0.7984 0.0
C760 C 0.37021 0.76521 0.81382 0.0
C761 C 0.37887 0.78341 0.85874 0.0
H762 H 0.4135 0.7471 0.86945 0.0
C763 C 0.42484 0.7742 0.92738 0.0
C764 C 0.44698 0.76856 0.92687 0.0
C765 C 0.41133 0.77456 0.91171 0.0
C766 C 0.40408 0.75737 0.86655 0.0
H767 H 0.31248 0.78557 0.81548 0.0
H768 H 0.3357 0.7837 0.84292 0.0
H769 H 0.38958 0.74802 0.84228 0.0
H770 H 0.4722 0.75893 0.90932 0.0
H771 H 0.44845 0.75939 0.88202 0.0
H772 H 0.39319 0.79267 0.88314 0.0
C773 C 0.342 0.7789 0.83049 0.0
C774 C 0.39039 0.75792 0.85096 0.0
C775 C 0.32863 0.77994 0.81478 0.0
C776 C 0.45515 0.76315 0.91029 0.0
C777 C 0.44156 0.76343 0.89463 0.0
C778 C 0.39243 0.78282 0.87438 0.0
C779 C 0.36306 0.77163 0.8302 0.0
C780 C 0.3776 0.77096 0.84684 0.0
C781 C 0.41953 0.76921 0.89515 0.0
C782 C 0.40519 0.76979 0.87847 0.0
H783 H 0.36292 0.76135 0.78567 0.0
H784 H 0.38645 0.75973 0.813 0.0
H785 H 0.36964 0.79376 0.85586 0.0
H786 H 0.4178 0.77817 0.93996 0.0
H787 H 0.39431 0.77886 0.91262 0.0
C788 C 0.79555 0.84375 0.36651 0.0
C789 C 0.79111 0.82952 0.37469 0.0
C790 C 0.79548 0.8571 0.37678 0.0
C791 C 0.80036 0.87075 0.42415 0.0
H792 H 0.77538 0.90797 0.40394 0.0
C793 C 0.78716 0.92465 0.46729 0.0
C794 C 0.79289 0.93878 0.45936 0.0
C795 C 0.78684 0.91135 0.45695 0.0
C796 C 0.78263 0.89771 0.40971 0.0
H797 H 0.78253 0.81821 0.39998 0.0
H798 H 0.78222 0.84148 0.41785 0.0
H799 H 0.77474 0.88475 0.38593 0.0
H800 H 0.80255 0.95 0.43427 0.0
H801 H 0.80227 0.92676 0.41628 0.0
H802 H 0.80815 0.88371 0.44796 0.0
C803 C 0.78623 0.84232 0.40357 0.0
C804 C 0.78228 0.88439 0.39938 0.0
C805 C 0.78638 0.82897 0.39333 0.0
C806 C 0.79827 0.93928 0.44084 0.0
C807 C 0.79787 0.92599 0.43048 0.0
C808 C 0.80065 0.88406 0.4345 0.0
C809 C 0.79089 0.85655 0.39546 0.0
C810 C 0.79115 0.87074 0.40647 0.0
C811 C 0.79217 0.91186 0.43841 0.0
C812 C 0.7918 0.8977 0.4274 0.0
H813 H 0.79956 0.84455 0.35224 0.0
H814 H 0.79947 0.86783 0.37012 0.0
H815 H 0.80769 0.86053 0.42994 0.0
H816 H 0.78313 0.92385 0.48157 0.0
H817 H 0.78218 0.90068 0.46345 0.0
C818 C 0.68574 0.27362 0.81403 0.0
C819 C 0.69372 0.26073 0.80496 0.0
C820 C 0.6707 0.27204 0.8284 0.0
C821 C 0.65021 0.24411 0.86247 0.0
H822 H 0.60289 0.27376 0.86869 0.0
C823 C 0.60003 0.24844 0.9289 0.0
C824 C 0.57696 0.25194 0.92769 0.0
C825 C 0.61351 0.24886 0.91346 0.0
C826 C 0.61584 0.26527 0.86707 0.0
H827 H 0.69198 0.23604 0.80394 0.0
H828 H 0.66528 0.2333 0.82872 0.0
H829 H 0.62714 0.27551 0.84232 0.0
H830 H 0.54984 0.25828 0.90922 0.0
H831 H 0.57328 0.25888 0.88222 0.0
H832 H 0.63862 0.2337 0.88705 0.0
C833 C 0.67094 0.24464 0.82487 0.0
C834 C 0.62996 0.26639 0.85205 0.0
C835 C 0.68604 0.24622 0.8105 0.0
C836 C 0.56763 0.25573 0.91064 0.0
C837 C 0.58109 0.25609 0.89517 0.0
C838 C 0.63604 0.24295 0.87747 0.0
C839 C 0.66313 0.25753 0.83405 0.0
C840 C 0.64747 0.25591 0.84963 0.0
C841 C 0.60424 0.25274 0.8964 0.0
C842 C 0.61878 0.25359 0.88005 0.0
H843 H 0.69102 0.28498 0.80998 0.0
H844 H 0.66529 0.28222 0.83526 0.0
H845 H 0.66363 0.23591 0.86115 0.0
H846 H 0.60781 0.2457 0.94187 0.0
H847 H 0.63133 0.24648 0.91499 0.0
C848 C 0.25675 0.83818 0.64197 0.0
C849 C 0.23624 0.83031 0.64468 0.0
C850 C 0.25737 0.85168 0.63174 0.0
C851 C 0.22511 0.87304 0.59678 0.0
H852 H 0.26254 0.90721 0.61216 0.0
C853 C 0.21948 0.93228 0.56237 0.0
C854 C 0.23975 0.94039 0.55949 0.0
C855 C 0.21928 0.91887 0.57274 0.0
C856 C 0.2522 0.89771 0.60755 0.0
H857 H 0.20021 0.83075 0.63915 0.0
H858 H 0.20129 0.85426 0.62133 0.0
H859 H 0.26178 0.88389 0.6304 0.0
H860 H 0.2757 0.94074 0.56544 0.0
H861 H 0.27542 0.91718 0.58322 0.0
H862 H 0.21555 0.88683 0.57393 0.0
C863 C 0.21697 0.84984 0.62684 0.0
C864 C 0.25176 0.88434 0.61802 0.0
C865 C 0.21635 0.83636 0.63706 0.0
C866 C 0.25982 0.93471 0.56722 0.0
C867 C 0.25962 0.92129 0.5776 0.0
C868 C 0.22557 0.8864 0.58631 0.0
C869 C 0.2375 0.85764 0.62397 0.0
C870 C 0.23815 0.87185 0.61279 0.0
C871 C 0.23935 0.9132 0.5805 0.0
C872 C 0.23908 0.89892 0.59158 0.0
H873 H 0.27243 0.83374 0.64743 0.0
H874 H 0.2735 0.85729 0.62961 0.0
H875 H 0.21475 0.86356 0.59218 0.0
H876 H 0.20374 0.93623 0.55647 0.0
H877 H 0.20332 0.91303 0.57485 0.0
C878 C 0.68151 0.76042 0.21532 0.0
C879 C 0.69075 0.77457 0.22057 0.0
C880 C 0.66839 0.75916 0.19947 0.0
C881 C 0.65616 0.77883 0.15584 0.0
H882 H 0.60161 0.75401 0.15604 0.0
C883 C 0.59035 0.78119 0.09755 0.0
C884 C 0.58055 0.76735 0.09179 0.0
C885 C 0.60402 0.78172 0.11313 0.0
C886 C 0.61693 0.76085 0.15569 0.0
H887 H 0.69372 0.79846 0.21303 0.0
H888 H 0.67051 0.79634 0.18565 0.0
H889 H 0.62514 0.75552 0.18337 0.0
H890 H 0.57727 0.74324 0.09806 0.0
H891 H 0.6014 0.74412 0.12513 0.0
H892 H 0.64791 0.78422 0.12819 0.0
C893 C 0.67356 0.78616 0.19369 0.0
C894 C 0.63043 0.76171 0.17136 0.0
C895 C 0.68665 0.78742 0.20952 0.0
C896 C 0.58472 0.75406 0.10203 0.0
C897 C 0.59836 0.75459 0.11765 0.0
C898 C 0.64266 0.77798 0.14018 0.0
C899 C 0.66424 0.77203 0.18847 0.0
C900 C 0.65016 0.77078 0.17166 0.0
C901 C 0.60822 0.76843 0.12337 0.0
C902 C 0.62282 0.76904 0.13994 0.0
H903 H 0.68416 0.75032 0.22359 0.0
H904 H 0.66166 0.74808 0.19577 0.0
H905 H 0.67144 0.78571 0.15548 0.0
H906 H 0.5877 0.79161 0.08989 0.0
H907 H 0.61113 0.79259 0.11726 0.0
C908 C 0.7714 0.16205 0.66762 0.0
C909 C 0.77321 0.17732 0.66179 0.0
C910 C 0.77512 0.15011 0.65562 0.0
C911 C 0.77576 0.14105 0.60673 0.0
H912 H 0.8059 0.10448 0.62365 0.0
C913 C 0.79526 0.09051 0.55923 0.0
C914 C 0.79044 0.07588 0.56618 0.0
C915 C 0.79468 0.10329 0.57049 0.0
C916 C 0.79732 0.11458 0.61875 0.0
H917 H 0.78048 0.19194 0.63868 0.0
H918 H 0.78741 0.17108 0.6178 0.0
H919 H 0.80237 0.12608 0.64398 0.0
H920 H 0.78178 0.06316 0.5905 0.0
H921 H 0.78054 0.08539 0.61006 0.0
H922 H 0.77062 0.12946 0.58151 0.0
C923 C 0.78283 0.16836 0.63164 0.0
C924 C 0.79527 0.12696 0.63041 0.0
C925 C 0.77911 0.18033 0.64367 0.0
C926 C 0.78532 0.07429 0.58467 0.0
C927 C 0.78486 0.08702 0.59593 0.0
C928 C 0.77787 0.12867 0.59504 0.0
C929 C 0.78081 0.1531 0.63746 0.0
C930 C 0.7842 0.14029 0.62464 0.0
C931 C 0.78946 0.10168 0.58898 0.0
C932 C 0.78842 0.11521 0.60099 0.0
H933 H 0.7672 0.1593 0.68153 0.0
H934 H 0.77314 0.13852 0.66053 0.0
H935 H 0.7669 0.15106 0.6019 0.0
H936 H 0.79913 0.09213 0.54501 0.0
H937 H 0.79847 0.11441 0.56475 0.0
C938 C 0.34641 0.26149 0.21351 0.0
C939 C 0.33678 0.24744 0.21879 0.0
C940 C 0.35928 0.26265 0.19775 0.0
C941 C 0.37015 0.24307 0.15437 0.0
H942 H 0.42568 0.26688 0.15497 0.0
C943 C 0.43525 0.23966 0.097 0.0
C944 C 0.4456 0.25331 0.09119 0.0
C945 C 0.4217 0.23935 0.11239 0.0
C946 C 0.41008 0.26033 0.1545 0.0
H947 H 0.33283 0.22366 0.21138 0.0
H948 H 0.35559 0.22562 0.18417 0.0
H949 H 0.40241 0.26568 0.18203 0.0
H950 H 0.45 0.27733 0.0972 0.0
H951 H 0.42608 0.27684 0.12394 0.0
H952 H 0.37788 0.23765 0.12689 0.0
C953 C 0.35304 0.23579 0.19211 0.0
C954 C 0.39673 0.25965 0.17002 0.0
C955 C 0.34021 0.23462 0.20786 0.0
C956 C 0.44211 0.26665 0.1012 0.0
C957 C 0.42859 0.26634 0.11664 0.0
C958 C 0.38351 0.24374 0.13888 0.0
C959 C 0.36278 0.24981 0.18686 0.0
C960 C 0.37666 0.25093 0.17019 0.0
C961 C 0.41818 0.25269 0.1224 0.0
C962 C 0.40371 0.25231 0.13878 0.0
H963 H 0.34427 0.27156 0.22169 0.0
H964 H 0.36634 0.27366 0.19401 0.0
H965 H 0.35461 0.23648 0.15391 0.0
H966 H 0.43737 0.22921 0.0895 0.0
H967 H 0.41416 0.2286 0.11656 0.0
C968 C 0.85692 0.6837 0.70594 0.0
C969 C 0.83422 0.68183 0.71095 0.0
C970 C 0.87019 0.671 0.7022 0.0
C971 C 0.87334 0.62978 0.71194 0.0
H972 H 0.91592 0.62936 0.67241 0.0
C973 C 0.91961 0.57503 0.69277 0.0
C974 C 0.94262 0.57628 0.68854 0.0
C975 C 0.90647 0.58805 0.69456 0.0
C976 C 0.90428 0.62936 0.68363 0.0
H977 H 0.80739 0.66519 0.71508 0.0
H978 H 0.83047 0.64312 0.70861 0.0
H979 H 0.89283 0.65189 0.67714 0.0
H980 H 0.96983 0.59223 0.68268 0.0
H981 H 0.94689 0.61501 0.68594 0.0
H982 H 0.88481 0.60738 0.71857 0.0
C983 C 0.83818 0.65436 0.70794 0.0
C984 C 0.89104 0.64226 0.68632 0.0
C985 C 0.82495 0.66702 0.71165 0.0
C986 C 0.95209 0.59088 0.68579 0.0
C987 C 0.93893 0.60393 0.68764 0.0
C988 C 0.88657 0.61692 0.70928 0.0
C989 C 0.86103 0.65617 0.7034 0.0
C990 C 0.87533 0.64258 0.70047 0.0
C991 C 0.916 0.60267 0.69224 0.0
C992 C 0.90213 0.6165 0.69504 0.0
H993 H 0.86465 0.69493 0.70543 0.0
H994 H 0.88778 0.67279 0.69889 0.0
H995 H 0.86175 0.62976 0.72319 0.0
H996 H 0.9117 0.56395 0.69462 0.0
H997 H 0.88876 0.58663 0.69772 0.0
C998 C 0.85822 0.33274 0.31595 0.0
C999 C 0.83514 0.3343 0.31169 0.0
C1000 C 0.87178 0.3456 0.31933 0.0
C1001 C 0.87427 0.38682 0.30944 0.0
H1002 H 0.92005 0.38789 0.34747 0.0
C1003 C 0.92258 0.44216 0.3265 0.0
C1004 C 0.94587 0.44115 0.33009 0.0
C1005 C 0.90918 0.429 0.32525 0.0
C1006 C 0.9075 0.38771 0.33667 0.0
H1007 H 0.80803 0.35058 0.30858 0.0
H1008 H 0.83164 0.37295 0.31442 0.0
H1009 H 0.89646 0.36508 0.34366 0.0
H1010 H 0.97332 0.42552 0.33536 0.0
H1011 H 0.94994 0.40249 0.33301 0.0
H1012 H 0.88535 0.4093 0.30226 0.0
C1013 C 0.83936 0.36181 0.31478 0.0
C1014 C 0.89397 0.37465 0.3345 0.0
C1015 C 0.82583 0.34898 0.31143 0.0
C1016 C 0.95538 0.42668 0.33274 0.0
C1017 C 0.94197 0.41348 0.33141 0.0
C1018 C 0.8878 0.39982 0.31156 0.0
C1019 C 0.86256 0.3603 0.31851 0.0
C1020 C 0.87712 0.37409 0.32091 0.0
C1021 C 0.91873 0.41448 0.32747 0.0
C1022 C 0.90452 0.40049 0.32525 0.0
H1023 H 0.86598 0.32161 0.31609 0.0
H1024 H 0.88963 0.34406 0.32202 0.0
H1025 H 0.86177 0.38665 0.2986 0.0
H1026 H 0.91465 0.45315 0.32473 0.0
H1027 H 0.89127 0.43023 0.32259 0.0
C1028 C 0.16436 0.33371 0.7058 0.0
C1029 C 0.18785 0.33482 0.70351 0.0
C1030 C 0.15058 0.3463 0.70238 0.0
C1031 C 0.15319 0.3884 0.69935 0.0
H1032 H 0.09359 0.38403 0.67755 0.0
C1033 C 0.09887 0.44054 0.68055 0.0
C1034 C 0.07585 0.43972 0.68493 0.0
C1035 C 0.11239 0.4276 0.6818 0.0
C1036 C 0.11013 0.38541 0.68379 0.0
H1037 H 0.21514 0.34982 0.69508 0.0
H1038 H 0.19113 0.37171 0.68895 0.0
H1039 H 0.11744 0.36166 0.68131 0.0
H1040 H 0.0489 0.42453 0.69362 0.0
H1041 H 0.07258 0.40199 0.69606 0.0
H1042 H 0.14587 0.41211 0.7019 0.0
C1043 C 0.18338 0.36123 0.6938 0.0
C1044 C 0.1238 0.37259 0.68596 0.0
C1045 C 0.19716 0.34868 0.69728 0.0
C1046 C 0.06662 0.42559 0.69034 0.0
C1047 C 0.08014 0.41263 0.69154 0.0
C1048 C 0.13955 0.4012 0.69715 0.0
C1049 C 0.15995 0.36027 0.69653 0.0
C1050 C 0.14549 0.37392 0.6938 0.0
C1051 C 0.10323 0.41351 0.68742 0.0
C1052 C 0.11784 0.39987 0.68939 0.0
H1053 H 0.15669 0.32325 0.71078 0.0
H1054 H 0.13265 0.34519 0.70483 0.0
H1055 H 0.16961 0.38981 0.70576 0.0
H1056 H 0.10657 0.45127 0.67649 0.0
H1057 H 0.13006 0.42864 0.67834 0.0
C1058 C 0.17848 0.68257 0.31076 0.0
C1059 C 0.17753 0.69292 0.32523 0.0
C1060 C 0.16663 0.6687 0.31145 0.0
C1061 C 0.14126 0.64102 0.34318 0.0
H1062 H 0.10635 0.62796 0.30116 0.0
C1063 C 0.0801 0.58931 0.34612 0.0
C1064 C 0.07842 0.5799 0.3308 0.0
C1065 C 0.09241 0.60299 0.34546 0.0
C1066 C 0.11626 0.6313 0.31294 0.0
H1067 H 0.16306 0.69672 0.35172 0.0
H1068 H 0.14282 0.67241 0.35302 0.0
H1069 H 0.12766 0.65186 0.29994 0.0
H1070 H 0.08875 0.57732 0.3029 0.0
H1071 H 0.11055 0.60103 0.3018 0.0
H1072 H 0.13018 0.62041 0.35614 0.0
C1073 C 0.15287 0.67502 0.3412 0.0
C1074 C 0.12843 0.64503 0.31224 0.0
C1075 C 0.16455 0.68895 0.34046 0.0
C1076 C 0.08947 0.58443 0.31485 0.0
C1077 C 0.10192 0.59805 0.31422 0.0
C1078 C 0.12924 0.62723 0.34384 0.0
C1079 C 0.15371 0.66477 0.32668 0.0
C1080 C 0.14101 0.65008 0.32737 0.0
C1081 C 0.10349 0.60756 0.3295 0.0
C1082 C 0.11651 0.62219 0.32875 0.0
H1083 H 0.1886 0.68507 0.29896 0.0
H1084 H 0.16785 0.66094 0.30014 0.0
H1085 H 0.15104 0.64451 0.35498 0.0
H1086 H 0.07152 0.58622 0.35853 0.0
H1087 H 0.09289 0.61012 0.35739 0.0
C1088 C 0.79556 0.82719 0.62948 0.0
C1089 C 0.7911 0.82741 0.64818 0.0
C1090 C 0.79549 0.84067 0.61924 0.0
C1091 C 0.80028 0.88262 0.62362 0.0
H1092 H 0.77472 0.88265 0.57492 0.0
C1093 C 0.7866 0.93808 0.58216 0.0
C1094 C 0.79205 0.93781 0.56365 0.0
C1095 C 0.78648 0.92465 0.5925 0.0
C1096 C 0.78214 0.8828 0.58843 0.0
H1097 H 0.78317 0.84208 0.67074 0.0
H1098 H 0.78253 0.86553 0.65279 0.0
H1099 H 0.77423 0.85922 0.59293 0.0
H1100 H 0.80146 0.92317 0.54147 0.0
H1101 H 0.8015 0.89975 0.55957 0.0
H1102 H 0.80808 0.90623 0.61911 0.0
C1103 C 0.78637 0.85494 0.64609 0.0
C1104 C 0.78187 0.86936 0.59876 0.0
C1105 C 0.78646 0.84146 0.65635 0.0
C1106 C 0.79738 0.92379 0.55573 0.0
C1107 C 0.79717 0.91035 0.56606 0.0
C1108 C 0.80049 0.89607 0.6133 0.0
C1109 C 0.79091 0.85473 0.6274 0.0
C1110 C 0.79098 0.86909 0.61648 0.0
C1111 C 0.79172 0.91062 0.58457 0.0
C1112 C 0.79145 0.89632 0.59557 0.0
H1113 H 0.79893 0.81657 0.62269 0.0
H1114 H 0.7993 0.84009 0.60493 0.0
H1115 H 0.80776 0.88278 0.63709 0.0
H1116 H 0.78264 0.94871 0.58872 0.0
H1117 H 0.78201 0.92524 0.60668 0.0
C1118 C 0.68829 0.25617 0.20991 0.0
C1119 C 0.68782 0.24287 0.22071 0.0
C1120 C 0.67436 0.25748 0.19452 0.0
C1121 C 0.62286 0.24069 0.1729 0.0
H1122 H 0.64589 0.26039 0.12953 0.0
C1123 C 0.57737 0.23696 0.10323 0.0
C1124 C 0.57606 0.25042 0.09282 0.0
C1125 C 0.59055 0.23645 0.11908 0.0
C1126 C 0.63914 0.25499 0.1416 0.0
H1127 H 0.67198 0.22059 0.22376 0.0
H1128 H 0.64838 0.22265 0.19667 0.0
H1129 H 0.66985 0.25864 0.15659 0.0
H1130 H 0.58767 0.27389 0.09083 0.0
H1131 H 0.61069 0.27301 0.11856 0.0
H1132 H 0.59229 0.23682 0.15774 0.0
C1133 C 0.65924 0.2322 0.20024 0.0
C1134 C 0.65285 0.25402 0.15714 0.0
C1135 C 0.67306 0.23092 0.21568 0.0
C1136 C 0.5882 0.26338 0.09864 0.0
C1137 C 0.60154 0.26284 0.11442 0.0
C1138 C 0.60922 0.24158 0.15732 0.0
C1139 C 0.65967 0.2455 0.18947 0.0
C1140 C 0.64493 0.24681 0.17299 0.0
C1141 C 0.60287 0.24936 0.12481 0.0
C1142 C 0.61722 0.2487 0.14148 0.0
H1143 H 0.69961 0.26554 0.21322 0.0
H1144 H 0.67498 0.26797 0.18669 0.0
H1145 H 0.616 0.23533 0.18494 0.0
H1146 H 0.56806 0.22682 0.09918 0.0
H1147 H 0.59138 0.22586 0.12671 0.0
C1148 C 0.23569 0.17571 0.65181 0.0
C1149 C 0.23987 0.18984 0.6433 0.0
C1150 C 0.2363 0.16217 0.64191 0.0
C1151 C 0.25831 0.14564 0.59973 0.0
H1152 H 0.2115 0.11508 0.60713 0.0
C1153 C 0.24678 0.09393 0.55223 0.0
C1154 C 0.24116 0.07979 0.56018 0.0
C1155 C 0.24695 0.10725 0.56255 0.0
C1156 C 0.22487 0.1234 0.60505 0.0
H1157 H 0.24845 0.20078 0.61778 0.0
H1158 H 0.24926 0.1772 0.60048 0.0
H1159 H 0.21146 0.1384 0.62491 0.0
H1160 H 0.23168 0.06856 0.58531 0.0
H1161 H 0.23208 0.09176 0.60332 0.0
H1162 H 0.27176 0.13064 0.5799 0.0
C1163 C 0.24561 0.17657 0.61483 0.0
C1164 C 0.22483 0.13678 0.61525 0.0
C1165 C 0.24491 0.1901 0.6247 0.0
C1166 C 0.23576 0.07929 0.5787 0.0
C1167 C 0.23597 0.0926 0.58903 0.0
C1168 C 0.25838 0.13224 0.58956 0.0
C1169 C 0.24121 0.16245 0.62329 0.0
C1170 C 0.24151 0.14808 0.61267 0.0
C1171 C 0.24154 0.10676 0.58108 0.0
C1172 C 0.24162 0.12096 0.59205 0.0
H1173 H 0.23158 0.17511 0.66608 0.0
H1174 H 0.23305 0.15147 0.64888 0.0
H1175 H 0.27159 0.15402 0.5976 0.0
H1176 H 0.25071 0.09474 0.53794 0.0
H1177 H 0.25095 0.11798 0.55591 0.0
C1178 C 0.33601 0.74461 0.20254 0.0
C1179 C 0.33258 0.75691 0.21431 0.0
C1180 C 0.35066 0.74606 0.18791 0.0
C1181 C 0.37758 0.77428 0.15772 0.0
H1182 H 0.41846 0.74124 0.14765 0.0
C1183 C 0.44511 0.77869 0.10164 0.0
C1184 C 0.44864 0.76561 0.09118 0.0
C1185 C 0.43155 0.77799 0.11705 0.0
C1186 C 0.40698 0.7505 0.15013 0.0
H1187 H 0.34204 0.78041 0.21981 0.0
H1188 H 0.3674 0.78297 0.19406 0.0
H1189 H 0.39361 0.7394 0.17368 0.0
H1190 H 0.44029 0.7416 0.08851 0.0
H1191 H 0.41652 0.74038 0.1152 0.0
H1192 H 0.39071 0.78529 0.13401 0.0
C1193 C 0.35861 0.77223 0.19618 0.0
C1194 C 0.39277 0.74946 0.16508 0.0
C1195 C 0.34403 0.77076 0.21091 0.0
C1196 C 0.43824 0.75183 0.09645 0.0
C1197 C 0.42462 0.75113 0.11178 0.0
C1198 C 0.39175 0.7753 0.14269 0.0
C1199 C 0.36217 0.75987 0.18457 0.0
C1200 C 0.37779 0.76128 0.16899 0.0
C1201 C 0.42111 0.76419 0.12231 0.0
C1202 C 0.40652 0.76337 0.13863 0.0
H1203 H 0.32713 0.73388 0.20447 0.0
H1204 H 0.35272 0.73641 0.17902 0.0
H1205 H 0.36607 0.78351 0.16026 0.0
H1206 H 0.4531 0.78945 0.09806 0.0
H1207 H 0.42949 0.78822 0.12497 0.0
C1208 C 0.81272 0.18159 0.38085 0.0
C1209 C 0.79256 0.18733 0.37333 0.0
C1210 C 0.81261 0.16818 0.39122 0.0
C1211 C 0.77896 0.13331 0.40063 0.0
H1212 H 0.81557 0.13166 0.44457 0.0
C1213 C 0.77259 0.08332 0.45206 0.0
C1214 C 0.79286 0.07795 0.45979 0.0
C1215 C 0.77238 0.09665 0.44152 0.0
C1216 C 0.80545 0.13186 0.43223 0.0
H1217 H 0.75645 0.1834 0.3709 0.0
H1218 H 0.75627 0.15997 0.38896 0.0
H1219 H 0.81557 0.15479 0.42603 0.0
H1220 H 0.82876 0.08256 0.46264 0.0
H1221 H 0.82848 0.10561 0.44398 0.0
H1222 H 0.76889 0.11036 0.40681 0.0
C1223 C 0.77222 0.16578 0.38665 0.0
C1224 C 0.80545 0.14513 0.4216 0.0
C1225 C 0.77232 0.17921 0.37628 0.0
C1226 C 0.81289 0.08628 0.45675 0.0
C1227 C 0.81268 0.0996 0.44621 0.0
C1228 C 0.77899 0.12002 0.41126 0.0
C1229 C 0.79235 0.16014 0.39432 0.0
C1230 C 0.79224 0.14601 0.40565 0.0
C1231 C 0.79243 0.10495 0.43844 0.0
C1232 C 0.79226 0.11912 0.42718 0.0
H1233 H 0.82867 0.1874 0.37858 0.0
H1234 H 0.82848 0.16402 0.39665 0.0
H1235 H 0.76883 0.13353 0.3883 0.0
H1236 H 0.75689 0.07712 0.45396 0.0
H1237 H 0.75645 0.10052 0.4359 0.0
C1238 C 0.36143 0.24349 0.79582 0.0
C1239 C 0.3385 0.24746 0.79591 0.0
C1240 C 0.37471 0.2447 0.81155 0.0
C1241 C 0.37746 0.26309 0.85663 0.0
H1242 H 0.41946 0.23065 0.8679 0.0
C1243 C 0.4236 0.25805 0.92608 0.0
C1244 C 0.44636 0.25362 0.92603 0.0
C1245 C 0.4106 0.25769 0.91012 0.0
C1246 C 0.40802 0.2399 0.86485 0.0
H1247 H 0.31158 0.25585 0.8127 0.0
H1248 H 0.33474 0.25794 0.84019 0.0
H1249 H 0.39653 0.22938 0.84029 0.0
H1250 H 0.47339 0.24571 0.90903 0.0
H1251 H 0.45072 0.24508 0.88121 0.0
H1252 H 0.38891 0.27356 0.88129 0.0
C1253 C 0.34253 0.25407 0.82785 0.0
C1254 C 0.39486 0.23917 0.84901 0.0
C1255 C 0.32925 0.25287 0.81209 0.0
C1256 C 0.45582 0.24895 0.90961 0.0
C1257 C 0.44282 0.24859 0.89366 0.0
C1258 C 0.39062 0.26381 0.87251 0.0
C1259 C 0.3654 0.24991 0.82781 0.0
C1260 C 0.37943 0.25076 0.84468 0.0
C1261 C 0.42002 0.2529 0.89372 0.0
C1262 C 0.40607 0.25222 0.8768 0.0
H1263 H 0.3692 0.23954 0.78351 0.0
H1264 H 0.39236 0.24167 0.81094 0.0
H1265 H 0.36597 0.27231 0.8536 0.0
H1266 H 0.41568 0.2615 0.93854 0.0
H1267 H 0.39301 0.26088 0.91071 0.0
C1268 C 0.25733 0.85546 0.3528 0.0
C1269 C 0.25474 0.84025 0.35867 0.0
C1270 C 0.25413 0.86751 0.36474 0.0
C1271 C 0.25378 0.87675 0.41356 0.0
H1272 H 0.22557 0.91395 0.39641 0.0
C1273 C 0.23668 0.92793 0.46075 0.0
C1274 C 0.24204 0.94245 0.45371 0.0
C1275 C 0.23678 0.91509 0.44957 0.0
C1276 C 0.23363 0.90368 0.40137 0.0
H1277 H 0.24655 0.82585 0.38177 0.0
H1278 H 0.24054 0.84694 0.40257 0.0
H1279 H 0.22801 0.89218 0.3762 0.0
H1280 H 0.25126 0.95489 0.42931 0.0
H1281 H 0.25169 0.93254 0.40992 0.0
H1282 H 0.2595 0.88833 0.43872 0.0
C1283 C 0.24534 0.84951 0.38874 0.0
C1284 C 0.23505 0.89119 0.38978 0.0
C1285 C 0.24854 0.83742 0.37676 0.0
C1286 C 0.2473 0.94385 0.43522 0.0
C1287 C 0.24729 0.93106 0.42405 0.0
C1288 C 0.25231 0.88924 0.42518 0.0
C1289 C 0.24817 0.86471 0.38289 0.0
C1290 C 0.24541 0.87764 0.39564 0.0
C1291 C 0.24207 0.91652 0.43108 0.0
C1292 C 0.24248 0.90292 0.41914 0.0
H1293 H 0.26179 0.85807 0.33891 0.0
H1294 H 0.25672 0.87905 0.3598 0.0
H1295 H 0.2621 0.86655 0.41846 0.0
H1296 H 0.23271 0.92645 0.47496 0.0
H1297 H 0.23252 0.90407 0.45538 0.0
C1298 C 0.6957 0.76572 0.81554 0.0
C1299 C 0.68666 0.77114 0.79902 0.0
C1300 C 0.68224 0.7646 0.83098 0.0
C1301 C 0.62984 0.77972 0.8505 0.0
H1302 H 0.63534 0.74537 0.88362 0.0
C1303 C 0.56862 0.7703 0.91003 0.0
C1304 C 0.57803 0.76562 0.92675 0.0
C1305 C 0.58164 0.77058 0.89433 0.0
C1306 C 0.63376 0.75511 0.8746 0.0
H1307 H 0.65619 0.77921 0.78565 0.0
H1308 H 0.63274 0.77723 0.81252 0.0
H1309 H 0.65845 0.74649 0.85645 0.0
H1310 H 0.60864 0.75768 0.94004 0.0
H1311 H 0.63133 0.75815 0.91266 0.0
H1312 H 0.6052 0.78836 0.86864 0.0
C1313 C 0.65034 0.77411 0.81366 0.0
C1314 C 0.64701 0.75576 0.85902 0.0
C1315 C 0.66379 0.77524 0.79824 0.0
C1316 C 0.60075 0.76113 0.92734 0.0
C1317 C 0.61377 0.7614 0.91164 0.0
C1318 C 0.61658 0.77907 0.86605 0.0
C1319 C 0.65942 0.76887 0.83025 0.0
C1320 C 0.64522 0.76808 0.84678 0.0
C1321 C 0.6044 0.76618 0.89495 0.0
C1322 C 0.61839 0.76677 0.87831 0.0
H1323 H 0.71332 0.76265 0.81667 0.0
H1324 H 0.68988 0.76071 0.84359 0.0
H1325 H 0.6283 0.78951 0.84154 0.0
H1326 H 0.55108 0.7736 0.90903 0.0
H1327 H 0.57379 0.77409 0.88165 0.0
loop_
_geom_bond_atom_site_label_1
_geom_bond_atom_site_label_2
_geom_bond_distance
_geom_bond_site_symmetry_2
_ccdc_geom_bond_type
C0 C1 1.264 . S
C0 C5 1.479 . S
C0 C10 1.465 . S
C1 C0 1.264 . S
C1 C3 1.339 . S
C1 H28 0.931 . S
C2 C3 1.395 . S
C2 C4 1.320 . S
C3 C1 1.339 . S
C3 C2 1.395 . S
C3 H29 0.929 . S
C4 C2 1.320 . S
C4 C5 1.405 . S
C4 H30 0.930 . S
C5 C0 1.479 . S
C5 C4 1.405 . S
C5 H31 0.931 . S
U6 O7 2.454 . S
U6 O8 2.458 . S
U6 C9 2.984 . S
U6 C10 2.847 . S
U6 C23 2.882 . S
U6 O24 2.441 . S
U6 O25 2.420 . S
U6 O26 2.455 . S
U6 O27 2.449 . S
O7 U6 2.454 . S
O7 C9 1.353 . S
O8 U6 2.458 . S
O8 C9 1.286 . S
C9 U6 2.984 . S
C9 O7 1.353 . S
C9 O8 1.286 . S
C9 C11 1.363 . S
C10 C0 1.465 . S
C10 U6 2.847 . S
C10 O24 1.249 . S
C10 O25 1.202 . S
C11 C9 1.363 . S
C11 C13 1.408 . S
C11 C16 1.342 . S
C12 C13 1.310 . S
C12 C15 1.461 . S
C12 H32 0.932 . S
C13 C11 1.408 . S
C13 C12 1.310 . S
C13 H33 0.930 . S
C14 C15 1.474 . S
C14 C16 1.285 . S
C14 H34 0.929 . S
C15 C12 1.461 . S
C15 C14 1.474 . S
C16 C11 1.342 . S
C16 C14 1.285 . S
C16 H35 0.930 . S
C17 C20 1.424 . S
C17 C22 1.245 . S
C17 C23 1.428 . S
C18 C21 1.260 . S
C18 C22 1.477 . S
C18 H36 0.932 . S
C19 C20 1.384 . S
C19 C21 1.479 . S
C19 H37 0.929 . S
C20 C17 1.424 . S
C20 C19 1.384 . S
C20 H38 0.928 . S
C21 C18 1.260 . S
C21 C19 1.479 . S
C22 C17 1.245 . S
C22 C18 1.477 . S
C22 H39 0.932 . S
C23 U6 2.882 . S
C23 C17 1.428 . S
C23 O26 1.301 . S
C23 O27 1.282 . S
O24 U6 2.441 . S
O24 C10 1.249 . S
O25 U6 2.420 . S
O25 C10 1.202 . S
O26 U6 2.455 . S
O26 C23 1.301 . S
O27 U6 2.449 . S
O27 C23 1.282 . S
H28 C1 0.931 . S
H29 C3 0.929 . S
H30 C4 0.930 . S
H31 C5 0.931 . S
H32 C12 0.932 . S
H33 C13 0.930 . S
H34 C14 0.929 . S
H35 C16 0.930 . S
H36 C18 0.932 . S
H37 C19 0.929 . S
H38 C20 0.928 . S
H39 C22 0.932 . S
C40 C41 1.264 . S
C40 C45 1.479 . S
C40 C50 1.465 . S
C41 C40 1.264 . S
C41 C43 1.339 . S
C41 H68 0.931 . S
C42 C43 1.395 . S
C42 C44 1.320 . S
C43 C41 1.339 . S
C43 C42 1.395 . S
C43 H69 0.929 . S
C44 C42 1.320 . S
C44 C45 1.405 . S
C44 H70 0.930 . S
C45 C40 1.479 . S
C45 C44 1.405 . S
C45 H71 0.931 . S
U46 O47 2.454 . S
U46 O48 2.458 . S
U46 C49 2.984 . S
U46 C50 2.847 . S
U46 C63 2.882 . S
U46 O64 2.441 . S
U46 O65 2.420 . S
U46 O66 2.455 . S
U46 O67 2.449 . S
O47 U46 2.454 . S
O47 C49 1.353 . S
O48 U46 2.458 . S
O48 C49 1.286 . S
C49 U46 2.984 . S
C49 O47 1.353 . S
C49 O48 1.286 . S
C49 C51 1.363 . S
C50 C40 1.465 . S
C50 U46 2.847 . S
C50 O64 1.249 . S
C50 O65 1.202 . S
C51 C49 1.363 . S
C51 C53 1.408 . S
C51 C56 1.342 . S
C52 C53 1.310 . S
C52 C55 1.461 . S
C52 H72 0.932 . S
C53 C51 1.408 . S
C53 C52 1.310 . S
C53 H73 0.930 . S
C54 C55 1.474 . S
C54 C56 1.285 . S
C54 H74 0.929 . S
C55 C52 1.461 . S
C55 C54 1.474 . S
C56 C51 1.342 . S
C56 C54 1.285 . S
C56 H75 0.930 . S
C57 C60 1.424 . S
C57 C62 1.245 . S
C57 C63 1.428 . S
C58 C61 1.260 . S
C58 C62 1.477 . S
C58 H76 0.932 . S
C59 C60 1.384 . S
C59 C61 1.479 . S
C59 H77 0.929 . S
C60 C57 1.424 . S
C60 C59 1.384 . S
C60 H78 0.928 . S
C61 C58 1.260 . S
C61 C59 1.479 . S
C62 C57 1.245 . S
C62 C58 1.477 . S
C62 H79 0.932 . S
C63 U46 2.882 . S
C63 C57 1.428 . S
C63 O66 1.301 . S
C63 O67 1.282 . S
O64 U46 2.441 . S
O64 C50 1.249 . S
O65 U46 2.420 . S
O65 C50 1.202 . S
O66 U46 2.455 . S
O66 C63 1.301 . S
O67 U46 2.449 . S
O67 C63 1.282 . S
H68 C41 0.931 . S
H69 C43 0.929 . S
H70 C44 0.930 . S
H71 C45 0.931 . S
H72 C52 0.932 . S
H73 C53 0.930 . S
H74 C54 0.929 . S
H75 C56 0.930 . S
H76 C58 0.932 . S
H77 C59 0.929 . S
H78 C60 0.928 . S
H79 C62 0.932 . S
C80 C81 1.264 . S
C80 C85 1.479 . S
C80 C90 1.465 . S
C81 C80 1.264 . S
C81 C83 1.339 . S
C81 H108 0.931 . S
C82 C83 1.395 . S
C82 C84 1.320 . S
C83 C81 1.339 . S
C83 C82 1.395 . S
C83 H109 0.929 . S
C84 C82 1.320 . S
C84 C85 1.405 . S
C84 H110 0.930 . S
C85 C80 1.479 . S
C85 C84 1.405 . S
C85 H111 0.931 . S
U86 O87 2.454 . S
U86 O88 2.458 . S
U86 C89 2.984 . S
U86 C90 2.847 . S
U86 C103 2.882 . S
U86 O104 2.441 . S
U86 O105 2.420 . S
U86 O106 2.455 . S
U86 O107 2.449 . S
O87 U86 2.454 . S
O87 C89 1.353 . S
O88 U86 2.458 . S
O88 C89 1.286 . S
C89 U86 2.984 . S
C89 O87 1.353 . S
C89 O88 1.286 . S
C89 C91 1.363 . S
C90 C80 1.465 . S
C90 U86 2.847 . S
C90 O104 1.249 . S
C90 O105 1.202 . S
C91 C89 1.363 . S
C91 C93 1.408 . S
C91 C96 1.342 . S
C92 C93 1.310 . S
C92 C95 1.461 . S
C92 H112 0.932 . S
C93 C91 1.408 . S
C93 C92 1.310 . S
C93 H113 0.930 . S
C94 C95 1.474 . S
C94 C96 1.285 . S
C94 H114 0.929 . S
C95 C92 1.461 . S
C95 C94 1.474 . S
C96 C91 1.342 . S
C96 C94 1.285 . S
C96 H115 0.930 . S
C97 C100 1.424 . S
C97 C102 1.245 . S
C97 C103 1.428 . S
C98 C101 1.260 . S
C98 C102 1.477 . S
C98 H116 0.932 . S
C99 C100 1.384 . S
C99 C101 1.479 . S
C99 H117 0.929 . S
C100 C97 1.424 . S
C100 C99 1.384 . S
C100 H118 0.928 . S
C101 C98 1.260 . S
C101 C99 1.479 . S
C102 C97 1.245 . S
C102 C98 1.477 . S
C102 H119 0.932 . S
C103 U86 2.882 . S
C103 C97 1.428 . S
C103 O106 1.301 . S
C103 O107 1.282 . S
O104 U86 2.441 . S
O104 C90 1.249 . S
O105 U86 2.420 . S
O105 C90 1.202 . S
O106 U86 2.455 . S
O106 C103 1.301 . S
O107 U86 2.449 . S
O107 C103 1.282 . S
H108 C81 0.931 . S
H109 C83 0.929 . S
H110 C84 0.930 . S
H111 C85 0.931 . S
H112 C92 0.932 . S
H113 C93 0.930 . S
H114 C94 0.929 . S
H115 C96 0.930 . S
H116 C98 0.932 . S
H117 C99 0.929 . S
H118 C100 0.928 . S
H119 C102 0.932 . S
C120 C121 1.264 . S
C120 C125 1.479 . S
C120 C130 1.465 . S
C121 C120 1.264 . S
C121 C123 1.339 . S
C121 H148 0.931 . S
C122 C123 1.395 . S
C122 C124 1.320 . S
C123 C121 1.339 . S
C123 C122 1.395 . S
C123 H149 0.929 . S
C124 C122 1.320 . S
C124 C125 1.405 . S
C124 H150 0.930 . S
C125 C120 1.479 . S
C125 C124 1.405 . S
C125 H151 0.931 . S
U126 O127 2.454 . S
U126 O128 2.458 . S
U126 C129 2.984 . S
U126 C130 2.847 . S
U126 C143 2.882 . S
U126 O144 2.441 . S
U126 O145 2.420 . S
U126 O146 2.455 . S
U126 O147 2.449 . S
O127 U126 2.454 . S
O127 C129 1.353 . S
O128 U126 2.458 . S
O128 C129 1.286 . S
C129 U126 2.984 . S
C129 O127 1.353 . S
C129 O128 1.286 . S
C129 C131 1.363 . S
C130 C120 1.465 . S
C130 U126 2.847 . S
C130 O144 1.249 . S
C130 O145 1.202 . S
C131 C129 1.363 . S
C131 C133 1.408 . S
C131 C136 1.342 . S
C132 C133 1.310 . S
C132 C135 1.461 . S
C132 H152 0.932 . S
C133 C131 1.408 . S
C133 C132 1.310 . S
C133 H153 0.930 . S
C134 C135 1.474 . S
C134 C136 1.285 . S
C134 H154 0.929 . S
C135 C132 1.461 . S
C135 C134 1.474 . S
C136 C131 1.342 . S
C136 C134 1.285 . S
C136 H155 0.930 . S
C137 C140 1.424 . S
C137 C142 1.245 . S
C137 C143 1.428 . S
C138 C141 1.260 . S
C138 C142 1.477 . S
C138 H156 0.932 . S
C139 C140 1.384 . S
C139 C141 1.479 . S
C139 H157 0.929 . S
C140 C137 1.424 . S
C140 C139 1.384 . S
C140 H158 0.928 . S
C141 C138 1.260 . S
C141 C139 1.479 . S
C142 C137 1.245 . S
C142 C138 1.477 . S
C142 H159 0.932 . S
C143 U126 2.882 . S
C143 C137 1.428 . S
C143 O146 1.301 . S
C143 O147 1.282 . S
O144 U126 2.441 . S
O144 C130 1.249 . S
O145 U126 2.420 . S
O145 C130 1.202 . S
O146 U126 2.455 . S
O146 C143 1.301 . S
O147 U126 2.449 . S
O147 C143 1.282 . S
H148 C121 0.931 . S
H149 C123 0.929 . S
H150 C124 0.930 . S
H151 C125 0.931 . S
H152 C132 0.932 . S
H153 C133 0.930 . S
H154 C134 0.929 . S
H155 C136 0.930 . S
H156 C138 0.932 . S
H157 C139 0.929 . S
H158 C140 0.928 . S
H159 C142 0.932 . S
C160 C161 1.264 . S
C160 C165 1.479 . S
C160 C170 1.465 . S
C161 C160 1.264 . S
C161 C163 1.339 . S
C161 H188 0.931 . S
C162 C163 1.395 . S
C162 C164 1.320 . S
C163 C161 1.339 . S
C163 C162 1.395 . S
C163 H189 0.929 . S
C164 C162 1.320 . S
C164 C165 1.405 . S
C164 H190 0.930 . S
C165 C160 1.479 . S
C165 C164 1.405 . S
C165 H191 0.931 . S
U166 O167 2.454 . S
U166 O168 2.458 . S
U166 C169 2.984 . S
U166 C170 2.847 . S
U166 C183 2.882 . S
U166 O184 2.441 . S
U166 O185 2.420 . S
U166 O186 2.455 . S
U166 O187 2.449 . S
O167 U166 2.454 . S
O167 C169 1.353 . S
O168 U166 2.458 . S
O168 C169 1.286 . S
C169 U166 2.984 . S
C169 O167 1.353 . S
C169 O168 1.286 . S
C169 C171 1.363 . S
C170 C160 1.465 . S
C170 U166 2.847 . S
C170 O184 1.249 . S
C170 O185 1.202 . S
C171 C169 1.363 . S
C171 C173 1.408 . S
C171 C176 1.342 . S
C172 C173 1.310 . S
C172 C175 1.461 . S
C172 H192 0.932 . S
C173 C171 1.408 . S
C173 C172 1.310 . S
C173 H193 0.930 . S
C174 C175 1.474 . S
C174 C176 1.285 . S
C174 H194 0.929 . S
C175 C172 1.461 . S
C175 C174 1.474 . S
C176 C171 1.342 . S
C176 C174 1.285 . S
C176 H195 0.930 . S
C177 C180 1.424 . S
C177 C182 1.245 . S
C177 C183 1.428 . S
C178 C181 1.260 . S
C178 C182 1.477 . S
C178 H196 0.932 . S
C179 C180 1.384 . S
C179 C181 1.479 . S
C179 H197 0.929 . S
C180 C177 1.424 . S
C180 C179 1.384 . S
C180 H198 0.928 . S
C181 C178 1.260 . S
C181 C179 1.479 . S
C182 C177 1.245 . S
C182 C178 1.477 . S
C182 H199 0.932 . S
C183 U166 2.882 . S
C183 C177 1.428 . S
C183 O186 1.301 . S
C183 O187 1.282 . S
O184 U166 2.441 . S
O184 C170 1.249 . S
O185 U166 2.420 . S
O185 C170 1.202 . S
O186 U166 2.455 . S
O186 C183 1.301 . S
O187 U166 2.449 . S
O187 C183 1.282 . S
H188 C161 0.931 . S
H189 C163 0.929 . S
H190 C164 0.930 . S
H191 C165 0.931 . S
H192 C172 0.932 . S
H193 C173 0.930 . S
H194 C174 0.929 . S
H195 C176 0.930 . S
H196 C178 0.932 . S
H197 C179 0.929 . S
H198 C180 0.928 . S
H199 C182 0.932 . S
C200 C201 1.264 . S
C200 C205 1.479 . S
C200 C210 1.465 . S
C201 C200 1.264 . S
C201 C203 1.339 . S
C201 H228 0.931 . S
C202 C203 1.395 . S
C202 C204 1.320 . S
C203 C201 1.339 . S
C203 C202 1.395 . S
C203 H229 0.929 . S
C204 C202 1.320 . S
C204 C205 1.405 . S
C204 H230 0.930 . S
C205 C200 1.479 . S
C205 C204 1.405 . S
C205 H231 0.931 . S
U206 O207 2.454 . S
U206 O208 2.458 . S
U206 C209 2.984 . S
U206 C210 2.847 . S
U206 C223 2.882 . S
U206 O224 2.441 . S
U206 O225 2.420 . S
U206 O226 2.455 . S
U206 O227 2.449 . S
O207 U206 2.454 . S
O207 C209 1.353 . S
O208 U206 2.458 . S
O208 C209 1.286 . S
C209 U206 2.984 . S
C209 O207 1.353 . S
C209 O208 1.286 . S
C209 C211 1.363 . S
C210 C200 1.465 . S
C210 U206 2.847 . S
C210 O224 1.249 . S
C210 O225 1.202 . S
C211 C209 1.363 . S
C211 C213 1.408 . S
C211 C216 1.342 . S
C212 C213 1.310 . S
C212 C215 1.461 . S
C212 H232 0.932 . S
C213 C211 1.408 . S
C213 C212 1.310 . S
C213 H233 0.930 . S
C214 C215 1.474 . S
C214 C216 1.285 . S
C214 H234 0.929 . S
C215 C212 1.461 . S
C215 C214 1.474 . S
C216 C211 1.342 . S
C216 C214 1.285 . S
C216 H235 0.930 . S
C217 C220 1.424 . S
C217 C222 1.245 . S
C217 C223 1.428 . S
C218 C221 1.260 . S
C218 C222 1.477 . S
C218 H236 0.932 . S
C219 C220 1.384 . S
C219 C221 1.479 . S
C219 H237 0.929 . S
C220 C217 1.424 . S
C220 C219 1.384 . S
C220 H238 0.928 . S
C221 C218 1.260 . S
C221 C219 1.479 . S
C222 C217 1.245 . S
C222 C218 1.477 . S
C222 H239 0.932 . S
C223 U206 2.882 . S
C223 C217 1.428 . S
C223 O226 1.301 . S
C223 O227 1.282 . S
O224 U206 2.441 . S
O224 C210 1.249 . S
O225 U206 2.420 . S
O225 C210 1.202 . S
O226 U206 2.455 . S
O226 C223 1.301 . S
O227 U206 2.449 . S
O227 C223 1.282 . S
H228 C201 0.931 . S
H229 C203 0.929 . S
H230 C204 0.930 . S
H231 C205 0.931 . S
H232 C212 0.932 . S
H233 C213 0.930 . S
H234 C214 0.929 . S
H235 C216 0.930 . S
H236 C218 0.932 . S
H237 C219 0.929 . S
H238 C220 0.928 . S
H239 C222 0.932 . S
C240 C241 1.264 . S
C240 C245 1.479 . S
C240 C250 1.465 . S
C241 C240 1.264 . S
C241 C243 1.339 . S
C241 H268 0.931 . S
C242 C243 1.395 . S
C242 C244 1.320 . S
C243 C241 1.339 . S
C243 C242 1.395 . S
C243 H269 0.929 . S
C244 C242 1.320 . S
C244 C245 1.405 . S
C244 H270 0.930 . S
C245 C240 1.479 . S
C245 C244 1.405 . S
C245 H271 0.931 . S
U246 O247 2.454 . S
U246 O248 2.458 . S
U246 C249 2.984 . S
U246 C250 2.847 . S
U246 C263 2.882 . S
U246 O264 2.441 . S
U246 O265 2.420 . S
U246 O266 2.455 . S
U246 O267 2.449 . S
O247 U246 2.454 . S
O247 C249 1.353 . S
O248 U246 2.458 . S
O248 C249 1.286 . S
C249 U246 2.984 . S
C249 O247 1.353 . S
C249 O248 1.286 . S
C249 C251 1.363 . S
C250 C240 1.465 . S
C250 U246 2.847 . S
C250 O264 1.249 . S
C250 O265 1.202 . S
C251 C249 1.363 . S
C251 C253 1.408 . S
C251 C256 1.342 . S
C252 C253 1.310 . S
C252 C255 1.461 . S
C252 H272 0.932 . S
C253 C251 1.408 . S
C253 C252 1.310 . S
C253 H273 0.930 . S
C254 C255 1.474 . S
C254 C256 1.285 . S
C254 H274 0.929 . S
C255 C252 1.461 . S
C255 C254 1.474 . S
C256 C251 1.342 . S
C256 C254 1.285 . S
C256 H275 0.930 . S
C257 C260 1.424 . S
C257 C262 1.245 . S
C257 C263 1.428 . S
C258 C261 1.260 . S
C258 C262 1.477 . S
C258 H276 0.932 . S
C259 C260 1.384 . S
C259 C261 1.479 . S
C259 H277 0.929 . S
C260 C257 1.424 . S
C260 C259 1.384 . S
C260 H278 0.928 . S
C261 C258 1.260 . S
C261 C259 1.479 . S
C262 C257 1.245 . S
C262 C258 1.477 . S
C262 H279 0.932 . S
C263 U246 2.882 . S
C263 C257 1.428 . S
C263 O266 1.301 . S
C263 O267 1.282 . S
O264 U246 2.441 . S
O264 C250 1.249 . S
O265 U246 2.420 . S
O265 C250 1.202 . S
O266 U246 2.455 . S
O266 C263 1.301 . S
O267 U246 2.449 . S
O267 C263 1.282 . S
H268 C241 0.931 . S
H269 C243 0.929 . S
H270 C244 0.930 . S
H271 C245 0.931 . S
H272 C252 0.932 . S
H273 C253 0.930 . S
H274 C254 0.929 . S
H275 C256 0.930 . S
H276 C258 0.932 . S
H277 C259 0.929 . S
H278 C260 0.928 . S
H279 C262 0.932 . S
C280 C281 1.264 . S
C280 C285 1.479 . S
C280 C290 1.465 . S
C281 C280 1.264 . S
C281 C283 1.339 . S
C281 H308 0.931 . S
C282 C283 1.395 . S
C282 C284 1.320 . S
C283 C281 1.339 . S
C283 C282 1.395 . S
C283 H309 0.929 . S
C284 C282 1.320 . S
C284 C285 1.405 . S
C284 H310 0.930 . S
C285 C280 1.479 . S
C285 C284 1.405 . S
C285 H311 0.931 . S
U286 O287 2.454 . S
U286 O288 2.458 . S
U286 C289 2.984 . S
U286 C290 2.847 . S
U286 C303 2.882 . S
U286 O304 2.441 . S
U286 O305 2.420 . S
U286 O306 2.455 . S
U286 O307 2.449 . S
O287 U286 2.454 . S
O287 C289 1.353 . S
O288 U286 2.458 . S
O288 C289 1.286 . S
C289 U286 2.984 . S
C289 O287 1.353 . S
C289 O288 1.286 . S
C289 C291 1.363 . S
C290 C280 1.465 . S
C290 U286 2.847 . S
C290 O304 1.249 . S
C290 O305 1.202 . S
C291 C289 1.363 . S
C291 C293 1.408 . S
C291 C296 1.342 . S
C292 C293 1.310 . S
C292 C295 1.461 . S
C292 H312 0.932 . S
C293 C291 1.408 . S
C293 C292 1.310 . S
C293 H313 0.930 . S
C294 C295 1.474 . S
C294 C296 1.285 . S
C294 H314 0.929 . S
C295 C292 1.461 . S
C295 C294 1.474 . S
C296 C291 1.342 . S
C296 C294 1.285 . S
C296 H315 0.930 . S
C297 C300 1.424 . S
C297 C302 1.245 . S
C297 C303 1.428 . S
C298 C301 1.260 . S
C298 C302 1.477 . S
C298 H316 0.932 . S
C299 C300 1.384 . S
C299 C301 1.479 . S
C299 H317 0.929 . S
C300 C297 1.424 . S
C300 C299 1.384 . S
C300 H318 0.928 . S
C301 C298 1.260 . S
C301 C299 1.479 . S
C302 C297 1.245 . S
C302 C298 1.477 . S
C302 H319 0.932 . S
C303 U286 2.882 . S
C303 C297 1.428 . S
C303 O306 1.301 . S
C303 O307 1.282 . S
O304 U286 2.441 . S
O304 C290 1.249 . S
O305 U286 2.420 . S
O305 C290 1.202 . S
O306 U286 2.455 . S
O306 C303 1.301 . S
O307 U286 2.449 . S
O307 C303 1.282 . S
H308 C281 0.931 . S
H309 C283 0.929 . S
H310 C284 0.930 . S
H311 C285 0.931 . S
H312 C292 0.932 . S
H313 C293 0.930 . S
H314 C294 0.929 . S
H315 C296 0.930 . S
H316 C298 0.932 . S
H317 C299 0.929 . S
H318 C300 0.928 . S
H319 C302 0.932 . S
H320 C339 0.949 . S
H321 C340 0.950 . S
H322 C342 0.950 . S
H323 C343 0.950 . S
H324 C345 0.950 . S
H325 C348 0.950 . S
H326 C349 0.950 . S
H327 C351 0.951 . S
H328 C352 0.949 . S
H329 C354 0.949 . S
H330 C355 0.950 . S
H331 C357 0.950 . S
H332 C358 0.950 . S
H333 C360 0.950 . S
H334 C363 0.950 . S
H335 C364 0.950 . S
H336 C366 0.951 . S
H337 C367 0.949 . S
C338 C339 1.376 . S
C338 C343 1.386 . S
C338 C344 1.483 . S
C339 H320 0.949 . S
C339 C338 1.376 . S
C339 C340 1.397 . S
C340 H321 0.950 . S
C340 C339 1.397 . S
C340 C341 1.391 . S
C341 C340 1.391 . S
C341 C342 1.405 . S
C342 H322 0.950 . S
C342 C341 1.405 . S
C342 C343 1.367 . S
C343 H323 0.950 . S
C343 C338 1.386 . S
C343 C342 1.367 . S
C344 C338 1.483 . S
C344 C345 1.382 . S
C344 C346 1.403 1_655 S
C345 H324 0.950 . S
C345 C344 1.382 . S
C345 C361 1.411 . S
C346 C344 1.403 1_455 S
C346 C347 1.489 . S
C346 C360 1.411 . S
C347 C346 1.489 . S
C347 C348 1.383 . S
C347 C352 1.382 . S
C348 H325 0.950 . S
C348 C347 1.383 . S
C348 C349 1.395 . S
C349 H326 0.950 . S
C349 C348 1.395 . S
C349 C350 1.288 . S
C350 C349 1.288 . S
C350 C351 1.392 . S
C351 H327 0.951 . S
C351 C350 1.392 . S
C351 C352 1.392 . S
C352 H328 0.949 . S
C352 C347 1.382 . S
C352 C351 1.392 . S
C353 C354 1.376 . S
C353 C358 1.386 . S
C353 C359 1.483 . S
C354 H329 0.949 . S
C354 C353 1.376 . S
C354 C355 1.397 . S
C355 H330 0.950 . S
C355 C354 1.397 . S
C355 C356 1.391 . S
C356 C355 1.391 . S
C356 C357 1.405 . S
C357 H331 0.950 . S
C357 C356 1.405 . S
C357 C358 1.367 . S
C358 H332 0.950 . S
C358 C353 1.386 . S
C358 C357 1.367 . S
C359 C353 1.483 . S
C359 C360 1.382 . S
C359 C361 1.403 1_455 S
C360 H333 0.950 . S
C360 C346 1.411 . S
C360 C359 1.382 . S
C361 C345 1.411 . S
C361 C359 1.403 1_655 S
C361 C362 1.489 . S
C362 C361 1.489 . S
C362 C363 1.383 . S
C362 C367 1.382 . S
C363 H334 0.950 . S
C363 C362 1.383 . S
C363 C364 1.395 . S
C364 H335 0.950 . S
C364 C363 1.395 . S
C364 C365 1.288 . S
C365 C364 1.288 . S
C365 C366 1.392 . S
C366 H336 0.951 . S
C366 C365 1.392 . S
C366 C367 1.392 . S
C367 H337 0.949 . S
C367 C362 1.382 . S
C367 C366 1.392 . S
H368 C387 0.949 . S
H369 C388 0.950 . S
H370 C390 0.950 . S
H371 C391 0.950 . S
H372 C393 0.950 . S
H373 C396 0.950 . S
H374 C397 0.950 . S
H375 C399 0.951 . S
H376 C400 0.949 . S
H377 C402 0.949 . S
H378 C403 0.950 . S
H379 C405 0.950 . S
H380 C406 0.950 . S
H381 C408 0.950 . S
H382 C411 0.950 . S
H383 C412 0.950 . S
H384 C414 0.951 . S
H385 C415 0.949 . S
C386 C387 1.376 . S
C386 C391 1.386 . S
C386 C392 1.483 . S
C387 H368 0.949 . S
C387 C386 1.376 . S
C387 C388 1.397 . S
C388 H369 0.950 . S
C388 C387 1.397 . S
C388 C389 1.391 . S
C389 C388 1.391 . S
C389 C390 1.405 . S
C390 H370 0.950 . S
C390 C389 1.405 . S
C390 C391 1.367 . S
C391 H371 0.950 . S
C391 C386 1.386 . S
C391 C390 1.367 . S
C392 C386 1.483 . S
C392 C393 1.382 . S
C392 C394 1.403 1_455 S
C393 H372 0.950 . S
C393 C392 1.382 . S
C393 C409 1.411 . S
C394 C392 1.403 1_655 S
C394 C395 1.489 . S
C394 C408 1.411 . S
C395 C394 1.489 . S
C395 C396 1.383 . S
C395 C400 1.382 . S
C396 H373 0.950 . S
C396 C395 1.383 . S
C396 C397 1.395 . S
C397 H374 0.950 . S
C397 C396 1.395 . S
C397 C398 1.288 . S
C398 C397 1.288 . S
C398 C399 1.392 . S
C399 H375 0.951 . S
C399 C398 1.392 . S
C399 C400 1.392 . S
C400 H376 0.949 . S
C400 C395 1.382 . S
C400 C399 1.392 . S
C401 C402 1.376 . S
C401 C406 1.386 . S
C401 C407 1.483 . S
C402 H377 0.949 . S
C402 C401 1.376 . S
C402 C403 1.397 . S
C403 H378 0.950 . S
C403 C402 1.397 . S
C403 C404 1.391 . S
C404 C403 1.391 . S
C404 C405 1.405 . S
C405 H379 0.950 . S
C405 C404 1.405 . S
C405 C406 1.367 . S
C406 H380 0.950 . S
C406 C401 1.386 . S
C406 C405 1.367 . S
C407 C401 1.483 . S
C407 C408 1.382 . S
C407 C409 1.403 1_655 S
C408 H381 0.950 . S
C408 C394 1.411 . S
C408 C407 1.382 . S
C409 C393 1.411 . S
C409 C407 1.403 1_455 S
C409 C410 1.489 . S
C410 C409 1.489 . S
C410 C411 1.383 . S
C410 C415 1.382 . S
C411 H382 0.950 . S
C411 C410 1.383 . S
C411 C412 1.395 . S
C412 H383 0.950 . S
C412 C411 1.395 . S
C412 C413 1.288 . S
C413 C412 1.288 . S
C413 C414 1.392 . S
C414 H384 0.951 . S
C414 C413 1.392 . S
C414 C415 1.392 . S
C415 H385 0.949 . S
C415 C410 1.382 . S
C415 C414 1.392 . S
H416 C435 0.949 . S
H417 C436 0.950 . S
H418 C438 0.950 . S
H419 C439 0.950 . S
H420 C441 0.950 . S
H421 C444 0.950 . S
H422 C445 0.950 . S
H423 C447 0.951 . S
H424 C448 0.949 . S
H425 C450 0.949 . S
H426 C451 0.950 . S
H427 C453 0.950 . S
H428 C454 0.950 . S
H429 C456 0.950 . S
H430 C459 0.950 . S
H431 C460 0.950 . S
H432 C462 0.951 . S
H433 C463 0.949 . S
C434 C435 1.376 . S
C434 C439 1.386 . S
C434 C440 1.483 . S
C435 H416 0.949 . S
C435 C434 1.376 . S
C435 C436 1.397 . S
C436 H417 0.950 . S
C436 C435 1.397 . S
C436 C437 1.391 . S
C437 C436 1.391 . S
C437 C438 1.405 . S
C438 H418 0.950 . S
C438 C437 1.405 . S
C438 C439 1.367 . S
C439 H419 0.950 . S
C439 C434 1.386 . S
C439 C438 1.367 . S
C440 C434 1.483 . S
C440 C441 1.382 1_565 S
C440 C442 1.403 . S
C441 H420 0.950 . S
C441 C440 1.382 1_545 S
C441 C457 1.411 . S
C442 C440 1.403 . S
C442 C443 1.489 . S
C442 C456 1.411 1_565 S
C443 C442 1.489 . S
C443 C444 1.383 . S
C443 C448 1.382 . S
C444 H421 0.950 . S
C444 C443 1.383 . S
C444 C445 1.395 . S
C445 H422 0.950 . S
C445 C444 1.395 . S
C445 C446 1.288 . S
C446 C445 1.288 . S
C446 C447 1.392 . S
C447 H423 0.951 . S
C447 C446 1.392 . S
C447 C448 1.392 . S
C448 H424 0.949 . S
C448 C443 1.382 . S
C448 C447 1.392 . S
C449 C450 1.376 . S
C449 C454 1.386 . S
C449 C455 1.483 . S
C450 H425 0.949 . S
C450 C449 1.376 . S
C450 C451 1.397 . S
C451 H426 0.950 . S
C451 C450 1.397 . S
C451 C452 1.391 . S
C452 C451 1.391 . S
C452 C453 1.405 . S
C453 H427 0.950 . S
C453 C452 1.405 . S
C453 C454 1.367 . S
C454 H428 0.950 . S
C454 C449 1.386 . S
C454 C453 1.367 . S
C455 C449 1.483 . S
C455 C456 1.382 . S
C455 C457 1.403 . S
C456 H429 0.950 . S
C456 C442 1.411 1_545 S
C456 C455 1.382 . S
C457 C441 1.411 . S
C457 C455 1.403 . S
C457 C458 1.489 . S
C458 C457 1.489 . S
C458 C459 1.383 . S
C458 C463 1.382 . S
C459 H430 0.950 . S
C459 C458 1.383 . S
C459 C460 1.395 . S
C460 H431 0.950 . S
C460 C459 1.395 . S
C460 C461 1.288 . S
C461 C460 1.288 . S
C461 C462 1.392 . S
C462 H432 0.951 . S
C462 C461 1.392 . S
C462 C463 1.392 . S
C463 H433 0.949 . S
C463 C458 1.382 . S
C463 C462 1.392 . S
H464 C483 0.949 . S
H465 C484 0.950 . S
H466 C486 0.950 . S
H467 C487 0.950 . S
H468 C489 0.950 . S
H469 C492 0.950 . S
H470 C493 0.950 . S
H471 C495 0.951 . S
H472 C496 0.949 . S
H473 C498 0.949 . S
H474 C499 0.950 . S
H475 C501 0.950 . S
H476 C502 0.950 . S
H477 C504 0.950 . S
H478 C507 0.950 . S
H479 C508 0.950 . S
H480 C510 0.951 . S
H481 C511 0.949 . S
C482 C483 1.376 . S
C482 C487 1.386 . S
C482 C488 1.483 . S
C483 H464 0.949 . S
C483 C482 1.376 . S
C483 C484 1.397 . S
C484 H465 0.950 . S
C484 C483 1.397 . S
C484 C485 1.391 . S
C485 C484 1.391 . S
C485 C486 1.405 . S
C486 H466 0.950 . S
C486 C485 1.405 . S
C486 C487 1.367 . S
C487 H467 0.950 . S
C487 C482 1.386 . S
C487 C486 1.367 . S
C488 C482 1.483 . S
C488 C489 1.382 1_556 S
C488 C490 1.403 . S
C489 H468 0.950 . S
C489 C488 1.382 1_554 S
C489 C505 1.411 . S
C490 C488 1.403 . S
C490 C491 1.489 . S
C490 C504 1.411 1_556 S
C491 C490 1.489 . S
C491 C492 1.383 . S
C491 C496 1.382 . S
C492 H469 0.950 . S
C492 C491 1.383 . S
C492 C493 1.395 . S
C493 H470 0.950 . S
C493 C492 1.395 . S
C493 C494 1.288 . S
C494 C493 1.288 . S
C494 C495 1.392 . S
C495 H471 0.951 . S
C495 C494 1.392 . S
C495 C496 1.392 . S
C496 H472 0.949 . S
C496 C491 1.382 . S
C496 C495 1.392 . S
C497 C498 1.376 . S
C497 C502 1.386 . S
C497 C503 1.483 . S
C498 H473 0.949 . S
C498 C497 1.376 . S
C498 C499 1.397 . S
C499 H474 0.950 . S
C499 C498 1.397 . S
C499 C500 1.391 . S
C500 C499 1.391 . S
C500 C501 1.405 . S
C501 H475 0.950 . S
C501 C500 1.405 . S
C501 C502 1.367 . S
C502 H476 0.950 . S
C502 C497 1.386 . S
C502 C501 1.367 . S
C503 C497 1.483 . S
C503 C504 1.382 . S
C503 C505 1.403 . S
C504 H477 0.950 . S
C504 C490 1.411 1_554 S
C504 C503 1.382 . S
C505 C489 1.411 . S
C505 C503 1.403 . S
C505 C506 1.489 . S
C506 C505 1.489 . S
C506 C507 1.383 . S
C506 C511 1.382 . S
C507 H478 0.950 . S
C507 C506 1.383 . S
C507 C508 1.395 . S
C508 H479 0.950 . S
C508 C507 1.395 . S
C508 C509 1.288 . S
C509 C508 1.288 . S
C509 C510 1.392 . S
C510 H480 0.951 . S
C510 C509 1.392 . S
C510 C511 1.392 . S
C511 H481 0.949 . S
C511 C506 1.382 . S
C511 C510 1.392 . S
H512 C531 0.949 . S
H513 C532 0.950 . S
H514 C534 0.950 . S
H515 C535 0.950 . S
H516 C537 0.950 . S
H517 C540 0.950 . S
H518 C541 0.950 . S
H519 C543 0.951 . S
H520 C544 0.949 . S
H521 C546 0.949 . S
H522 C547 0.950 . S
H523 C549 0.950 . S
H524 C550 0.950 . S
H525 C552 0.950 . S
H526 C555 0.950 . S
H527 C556 0.950 . S
H528 C558 0.951 . S
H529 C559 0.949 . S
C530 C531 1.376 . S
C530 C535 1.386 . S
C530 C536 1.483 . S
C531 H512 0.949 . S
C531 C530 1.376 . S
C531 C532 1.397 . S
C532 H513 0.950 . S
C532 C531 1.397 . S
C532 C533 1.391 . S
C533 C532 1.391 . S
C533 C534 1.405 . S
C534 H514 0.950 . S
C534 C533 1.405 . S
C534 C535 1.367 . S
C535 H515 0.950 . S
C535 C530 1.386 . S
C535 C534 1.367 . S
C536 C530 1.483 . S
C536 C537 1.335 1_565 S
C536 C538 1.403 . S
C537 H516 0.950 . S
C537 C536 1.335 1_545 S
C537 C553 1.459 . S
C538 C536 1.403 . S
C538 C539 1.489 . S
C538 C552 1.411 1_565 S
C539 C538 1.489 . S
C539 C540 1.383 . S
C539 C544 1.382 . S
C540 H517 0.950 . S
C540 C539 1.383 . S
C540 C541 1.395 . S
C541 H518 0.950 . S
C541 C540 1.395 . S
C541 C542 1.288 . S
C542 C541 1.288 . S
C542 C543 1.392 . S
C543 H519 0.951 . S
C543 C542 1.392 . S
C543 C544 1.392 . S
C544 H520 0.949 . S
C544 C539 1.382 . S
C544 C543 1.392 . S
C545 C546 1.376 . S
C545 C550 1.386 . S
C545 C551 1.483 . S
C546 H521 0.949 . S
C546 C545 1.376 . S
C546 C547 1.397 . S
C547 H522 0.950 . S
C547 C546 1.397 . S
C547 C548 1.391 . S
C548 C547 1.391 . S
C548 C549 1.405 . S
C549 H523 0.950 . S
C549 C548 1.405 . S
C549 C550 1.367 . S
C550 H524 0.950 . S
C550 C545 1.386 . S
C550 C549 1.367 . S
C551 C545 1.483 . S
C551 C552 1.382 . S
C551 C553 1.403 . S
C552 H525 0.950 . S
C552 C538 1.411 1_545 S
C552 C551 1.382 . S
C553 C537 1.459 . S
C553 C551 1.403 . S
C553 C554 1.489 . S
C554 C553 1.489 . S
C554 C555 1.383 . S
C554 C559 1.382 . S
C555 H526 0.950 . S
C555 C554 1.383 . S
C555 C556 1.395 . S
C556 H527 0.950 . S
C556 C555 1.395 . S
C556 C557 1.288 . S
C557 C556 1.288 . S
C557 C558 1.392 . S
C558 H528 0.951 . S
C558 C557 1.392 . S
C558 C559 1.392 . S
C559 H529 0.949 . S
C559 C554 1.382 . S
C559 C558 1.392 . S
H560 C579 0.949 . S
H561 C580 0.950 . S
H562 C582 0.950 . S
H563 C583 0.950 . S
H564 C585 0.950 . S
H565 C588 0.950 . S
H566 C589 0.950 . S
H567 C591 0.951 . S
H568 C592 0.949 . S
H569 C594 0.949 . S
H570 C595 0.950 . S
H571 C597 0.950 . S
H572 C598 0.950 . S
H573 C600 0.950 . S
H574 C603 0.950 . S
H575 C604 0.950 . S
H576 C606 0.951 . S
H577 C607 0.949 . S
C578 C579 1.376 . S
C578 C583 1.386 . S
C578 C584 1.483 . S
C579 H560 0.949 . S
C579 C578 1.376 . S
C579 C580 1.397 . S
C580 H561 0.950 . S
C580 C579 1.397 . S
C580 C581 1.391 . S
C581 C580 1.391 . S
C581 C582 1.405 . S
C582 H562 0.950 . S
C582 C581 1.405 . S
C582 C583 1.367 . S
C583 H563 0.950 . S
C583 C578 1.386 . S
C583 C582 1.367 . S
C584 C578 1.483 . S
C584 C585 1.382 1_556 S
C584 C586 1.403 . S
C585 H564 0.950 . S
C585 C584 1.382 1_554 S
C585 C601 1.411 . S
C586 C584 1.403 . S
C586 C587 1.489 . S
C586 C600 1.411 1_556 S
C587 C586 1.489 . S
C587 C588 1.383 . S
C587 C592 1.382 . S
C588 H565 0.950 . S
C588 C587 1.383 . S
C588 C589 1.395 . S
C589 H566 0.950 . S
C589 C588 1.395 . S
C589 C590 1.288 . S
C590 C589 1.288 . S
C590 C591 1.392 . S
C591 H567 0.951 . S
C591 C590 1.392 . S
C591 C592 1.392 . S
C592 H568 0.949 . S
C592 C587 1.382 . S
C592 C591 1.392 . S
C593 C594 1.376 . S
C593 C598 1.386 . S
C593 C599 1.483 . S
C594 H569 0.949 . S
C594 C593 1.376 . S
C594 C595 1.397 . S
C595 H570 0.950 . S
C595 C594 1.397 . S
C595 C596 1.391 . S
C596 C595 1.391 . S
C596 C597 1.405 . S
C597 H571 0.950 . S
C597 C596 1.405 . S
C597 C598 1.367 . S
C598 H572 0.950 . S
C598 C593 1.386 . S
C598 C597 1.367 . S
C599 C593 1.483 . S
C599 C600 1.382 . S
C599 C601 1.403 . S
C600 H573 0.950 . S
C600 C586 1.411 1_554 S
C600 C599 1.382 . S
C601 C585 1.411 . S
C601 C599 1.403 . S
C601 C602 1.489 . S
C602 C601 1.489 . S
C602 C603 1.383 . S
C602 C607 1.382 . S
C603 H574 0.950 . S
C603 C602 1.383 . S
C603 C604 1.395 . S
C604 H575 0.950 . S
C604 C603 1.395 . S
C604 C605 1.288 . S
C605 C604 1.288 . S
C605 C606 1.392 . S
C606 H576 0.951 . S
C606 C605 1.392 . S
C606 C607 1.392 . S
C607 H577 0.949 . S
C607 C602 1.382 . S
C607 C606 1.392 . S
C608 C609 1.349 . S
C608 C610 1.327 . S
C608 H633 0.950 . S
C609 C608 1.349 . S
C609 C625 1.349 . S
C610 C608 1.327 . S
C610 C629 1.429 . S
C610 H634 0.950 . S
C611 C628 1.574 . S
C611 C630 1.368 . S
C611 H635 0.949 . S
H612 C616 0.949 . S
C613 C614 1.349 . S
C613 C615 1.327 . S
C613 H636 0.950 . S
C614 C613 1.349 . S
C614 C626 1.349 . S
C615 C613 1.327 . S
C615 C631 1.429 . S
C615 H637 0.950 . S
C616 H612 0.949 . S
C616 C624 1.574 . S
C616 C632 1.368 . S
H617 C625 0.950 . S
H618 C623 0.950 . S
H619 C624 0.949 . S
H620 C626 0.950 . S
H621 C627 0.950 . S
H622 C628 0.949 . S
C623 H618 0.950 . S
C623 C625 1.327 . S
C623 C629 1.429 . S
C624 C616 1.574 . S
C624 H619 0.949 . S
C624 C630 1.368 . S
C625 C609 1.349 . S
C625 H617 0.950 . S
C625 C623 1.327 . S
C626 C614 1.349 . S
C626 H620 0.950 . S
C626 C627 1.327 . S
C627 H621 0.950 . S
C627 C626 1.327 . S
C627 C631 1.429 . S
C628 C611 1.574 . S
C628 H622 0.949 . S
C628 C632 1.368 . S
C629 C610 1.429 . S
C629 C623 1.429 . S
C629 C630 1.523 . S
C630 C611 1.368 . S
C630 C624 1.368 . S
C630 C629 1.523 . S
C631 C615 1.429 . S
C631 C627 1.429 . S
C631 C632 1.523 . S
C632 C616 1.368 . S
C632 C628 1.368 . S
C632 C631 1.523 . S
H633 C608 0.950 . S
H634 C610 0.950 . S
H635 C611 0.949 . S
H636 C613 0.950 . S
H637 C615 0.950 . S
C638 C639 1.349 . S
C638 C640 1.327 . S
C638 H663 0.950 . S
C639 C638 1.349 . S
C639 C655 1.349 . S
C640 C638 1.327 . S
C640 C659 1.429 . S
C640 H664 0.950 . S
C641 C658 1.574 . S
C641 C660 1.368 . S
C641 H665 0.949 . S
H642 C646 0.949 . S
C643 C644 1.349 . S
C643 C645 1.327 . S
C643 H666 0.950 . S
C644 C643 1.349 . S
C644 C656 1.349 . S
C645 C643 1.327 . S
C645 C661 1.429 . S
C645 H667 0.950 . S
C646 H642 0.949 . S
C646 C654 1.574 . S
C646 C662 1.368 . S
H647 C655 0.950 . S
H648 C653 0.950 . S
H649 C654 0.949 . S
H650 C656 0.950 . S
H651 C657 0.950 . S
H652 C658 0.949 . S
C653 H648 0.950 . S
C653 C655 1.327 . S
C653 C659 1.429 . S
C654 C646 1.574 . S
C654 H649 0.949 . S
C654 C660 1.368 . S
C655 C639 1.349 . S
C655 H647 0.950 . S
C655 C653 1.327 . S
C656 C644 1.349 . S
C656 H650 0.950 . S
C656 C657 1.327 . S
C657 H651 0.950 . S
C657 C656 1.327 . S
C657 C661 1.429 . S
C658 C641 1.574 . S
C658 H652 0.949 . S
C658 C662 1.368 . S
C659 C640 1.429 . S
C659 C653 1.429 . S
C659 C660 1.523 . S
C660 C641 1.368 . S
C660 C654 1.368 . S
C660 C659 1.523 . S
C661 C645 1.429 . S
C661 C657 1.429 . S
C661 C662 1.523 . S
C662 C646 1.368 . S
C662 C658 1.368 . S
C662 C661 1.523 . S
H663 C638 0.950 . S
H664 C640 0.950 . S
H665 C641 0.949 . S
H666 C643 0.950 . S
H667 C645 0.950 . S
C668 C669 1.349 . S
C668 C670 1.327 . S
C668 H693 0.950 . S
C669 C668 1.349 . S
C669 C685 1.349 . S
C670 C668 1.327 . S
C670 C689 1.429 . S
C670 H694 0.950 . S
C671 C688 1.574 . S
C671 C690 1.368 . S
C671 H695 0.949 . S
H672 C676 0.949 . S
C673 C674 1.349 . S
C673 C675 1.327 . S
C673 H696 0.950 . S
C674 C673 1.349 . S
C674 C686 1.349 . S
C675 C673 1.327 . S
C675 C691 1.429 . S
C675 H697 0.950 . S
C676 H672 0.949 . S
C676 C684 1.574 . S
C676 C692 1.368 . S
H677 C685 0.950 . S
H678 C683 0.950 . S
H679 C684 0.949 . S
H680 C686 0.950 . S
H681 C687 0.950 . S
H682 C688 0.949 . S
C683 H678 0.950 . S
C683 C685 1.327 . S
C683 C689 1.429 . S
C684 C676 1.574 . S
C684 H679 0.949 . S
C684 C690 1.368 . S
C685 C669 1.349 . S
C685 H677 0.950 . S
C685 C683 1.327 . S
C686 C674 1.349 . S
C686 H680 0.950 . S
C686 C687 1.327 . S
C687 H681 0.950 . S
C687 C686 1.327 . S
C687 C691 1.429 . S
C688 C671 1.574 . S
C688 H682 0.949 . S
C688 C692 1.368 . S
C689 C670 1.429 . S
C689 C683 1.429 . S
C689 C690 1.523 . S
C690 C671 1.368 . S
C690 C684 1.368 . S
C690 C689 1.523 . S
C691 C675 1.429 . S
C691 C687 1.429 . S
C691 C692 1.523 . S
C692 C676 1.368 . S
C692 C688 1.368 . S
C692 C691 1.523 . S
H693 C668 0.950 . S
H694 C670 0.950 . S
H695 C671 0.949 . S
H696 C673 0.950 . S
H697 C675 0.950 . S
C698 C699 1.349 . S
C698 C700 1.327 . S
C698 H723 0.950 . S
C699 C698 1.349 . S
C699 C715 1.349 . S
C700 C698 1.327 . S
C700 C719 1.429 . S
C700 H724 0.950 . S
C701 C718 1.574 . S
C701 C720 1.368 . S
C701 H725 0.949 . S
H702 C706 0.949 . S
C703 C704 1.349 . S
C703 C705 1.327 . S
C703 H726 0.950 . S
C704 C703 1.349 . S
C704 C716 1.349 . S
C705 C703 1.327 . S
C705 C721 1.429 . S
C705 H727 0.950 . S
C706 H702 0.949 . S
C706 C714 1.574 . S
C706 C722 1.368 . S
H707 C715 0.950 . S
H708 C713 0.950 . S
H709 C714 0.949 . S
H710 C716 0.950 . S
H711 C717 0.950 . S
H712 C718 0.949 . S
C713 H708 0.950 . S
C713 C715 1.327 . S
C713 C719 1.429 . S
C714 C706 1.574 . S
C714 H709 0.949 . S
C714 C720 1.368 . S
C715 C699 1.349 . S
C715 H707 0.950 . S
C715 C713 1.327 . S
C716 C704 1.349 . S
C716 H710 0.950 . S
C716 C717 1.327 . S
C717 H711 0.950 . S
C717 C716 1.327 . S
C717 C721 1.429 . S
C718 C701 1.574 . S
C718 H712 0.949 . S
C718 C722 1.368 . S
C719 C700 1.429 . S
C719 C713 1.429 . S
C719 C720 1.523 . S
C720 C701 1.368 . S
C720 C714 1.368 . S
C720 C719 1.523 . S
C721 C705 1.429 . S
C721 C717 1.429 . S
C721 C722 1.523 . S
C722 C706 1.368 . S
C722 C718 1.368 . S
C722 C721 1.523 . S
H723 C698 0.950 . S
H724 C700 0.950 . S
H725 C701 0.949 . S
H726 C703 0.950 . S
H727 C705 0.950 . S
C728 C729 1.349 . S
C728 C730 1.327 . S
C728 H753 0.950 . S
C729 C728 1.349 . S
C729 C745 1.349 . S
C730 C728 1.327 . S
C730 C749 1.429 . S
C730 H754 0.950 . S
C731 C748 1.574 . S
C731 C750 1.368 . S
C731 H755 0.949 . S
H732 C736 0.949 . S
C733 C734 1.349 . S
C733 C735 1.327 . S
C733 H756 0.950 . S
C734 C733 1.349 . S
C734 C746 1.349 . S
C735 C733 1.327 . S
C735 C751 1.429 . S
C735 H757 0.950 . S
C736 H732 0.949 . S
C736 C744 1.574 . S
C736 C752 1.368 . S
H737 C745 0.950 . S
H738 C743 0.950 . S
H739 C744 0.949 . S
H740 C746 0.950 . S
H741 C747 0.950 . S
H742 C748 0.949 . S
C743 H738 0.950 . S
C743 C745 1.327 . S
C743 C749 1.429 . S
C744 C736 1.574 . S
C744 H739 0.949 . S
C744 C750 1.368 . S
C745 C729 1.349 . S
C745 H737 0.950 . S
C745 C743 1.327 . S
C746 C734 1.349 . S
C746 H740 0.950 . S
C746 C747 1.327 . S
C747 H741 0.950 . S
C747 C746 1.327 . S
C747 C751 1.429 . S
C748 C731 1.574 . S
C748 H742 0.949 . S
C748 C752 1.368 . S
C749 C730 1.429 . S
C749 C743 1.429 . S
C749 C750 1.523 . S
C750 C731 1.368 . S
C750 C744 1.368 . S
C750 C749 1.523 . S
C751 C735 1.429 . S
C751 C747 1.429 . S
C751 C752 1.523 . S
C752 C736 1.368 . S
C752 C748 1.368 . S
C752 C751 1.523 . S
H753 C728 0.950 . S
H754 C730 0.950 . S
H755 C731 0.949 . S
H756 C733 0.950 . S
H757 C735 0.950 . S
C758 C759 1.349 . S
C758 C760 1.327 . S
C758 H783 0.950 . S
C759 C758 1.349 . S
C759 C775 1.349 . S
C760 C758 1.327 . S
C760 C779 1.429 . S
C760 H784 0.950 . S
C761 C778 1.574 . S
C761 C780 1.368 . S
C761 H785 0.949 . S
H762 C766 0.949 . S
C763 C764 1.349 . S
C763 C765 1.327 . S
C763 H786 0.950 . S
C764 C763 1.349 . S
C764 C776 1.349 . S
C765 C763 1.327 . S
C765 C781 1.429 . S
C765 H787 0.950 . S
C766 H762 0.949 . S
C766 C774 1.574 . S
C766 C782 1.368 . S
H767 C775 0.950 . S
H768 C773 0.950 . S
H769 C774 0.949 . S
H770 C776 0.950 . S
H771 C777 0.950 . S
H772 C778 0.949 . S
C773 H768 0.950 . S
C773 C775 1.327 . S
C773 C779 1.429 . S
C774 C766 1.574 . S
C774 H769 0.949 . S
C774 C780 1.368 . S
C775 C759 1.349 . S
C775 H767 0.950 . S
C775 C773 1.327 . S
C776 C764 1.349 . S
C776 H770 0.950 . S
C776 C777 1.327 . S
C777 H771 0.950 . S
C777 C776 1.327 . S
C777 C781 1.429 . S
C778 C761 1.574 . S
C778 H772 0.949 . S
C778 C782 1.368 . S
C779 C760 1.429 . S
C779 C773 1.429 . S
C779 C780 1.523 . S
C780 C761 1.368 . S
C780 C774 1.368 . S
C780 C779 1.523 . S
C781 C765 1.429 . S
C781 C777 1.429 . S
C781 C782 1.523 . S
C782 C766 1.368 . S
C782 C778 1.368 . S
C782 C781 1.523 . S
H783 C758 0.950 . S
H784 C760 0.950 . S
H785 C761 0.949 . S
H786 C763 0.950 . S
H787 C765 0.950 . S
C788 C789 1.349 . S
C788 C790 1.327 . S
C788 H813 0.950 . S
C789 C788 1.349 . S
C789 C805 1.349 . S
C790 C788 1.327 . S
C790 C809 1.429 . S
C790 H814 0.950 . S
C791 C808 1.574 . S
C791 C810 1.368 . S
C791 H815 0.949 . S
H792 C796 0.949 . S
C793 C794 1.349 . S
C793 C795 1.327 . S
C793 H816 0.950 . S
C794 C793 1.349 . S
C794 C806 1.349 . S
C795 C793 1.327 . S
C795 C811 1.429 . S
C795 H817 0.950 . S
C796 H792 0.949 . S
C796 C804 1.574 . S
C796 C812 1.368 . S
H797 C805 0.950 . S
H798 C803 0.950 . S
H799 C804 0.949 . S
H800 C806 0.950 . S
H801 C807 0.950 . S
H802 C808 0.949 . S
C803 H798 0.950 . S
C803 C805 1.327 . S
C803 C809 1.429 . S
C804 C796 1.574 . S
C804 H799 0.949 . S
C804 C810 1.368 . S
C805 C789 1.349 . S
C805 H797 0.950 . S
C805 C803 1.327 . S
C806 C794 1.349 . S
C806 H800 0.950 . S
C806 C807 1.327 . S
C807 H801 0.950 . S
C807 C806 1.327 . S
C807 C811 1.429 . S
C808 C791 1.574 . S
C808 H802 0.949 . S
C808 C812 1.368 . S
C809 C790 1.429 . S
C809 C803 1.429 . S
C809 C810 1.523 . S
C810 C791 1.368 . S
C810 C804 1.368 . S
C810 C809 1.523 . S
C811 C795 1.429 . S
C811 C807 1.429 . S
C811 C812 1.523 . S
C812 C796 1.368 . S
C812 C808 1.368 . S
C812 C811 1.523 . S
H813 C788 0.950 . S
H814 C790 0.950 . S
H815 C791 0.949 . S
H816 C793 0.950 . S
H817 C795 0.950 . S
C818 C819 1.349 . S
C818 C820 1.327 . S
C818 H843 0.950 . S
C819 C818 1.349 . S
C819 C835 1.349 . S
C820 C818 1.327 . S
C820 C839 1.429 . S
C820 H844 0.950 . S
C821 C838 1.574 . S
C821 C840 1.368 . S
C821 H845 0.949 . S
H822 C826 0.949 . S
C823 C824 1.349 . S
C823 C825 1.327 . S
C823 H846 0.950 . S
C824 C823 1.349 . S
C824 C836 1.349 . S
C825 C823 1.327 . S
C825 C841 1.429 . S
C825 H847 0.950 . S
C826 H822 0.949 . S
C826 C834 1.574 . S
C826 C842 1.368 . S
H827 C835 0.950 . S
H828 C833 0.950 . S
H829 C834 0.949 . S
H830 C836 0.950 . S
H831 C837 0.950 . S
H832 C838 0.949 . S
C833 H828 0.950 . S
C833 C835 1.327 . S
C833 C839 1.429 . S
C834 C826 1.574 . S
C834 H829 0.949 . S
C834 C840 1.368 . S
C835 C819 1.349 . S
C835 H827 0.950 . S
C835 C833 1.327 . S
C836 C824 1.349 . S
C836 H830 0.950 . S
C836 C837 1.327 . S
C837 H831 0.950 . S
C837 C836 1.327 . S
C837 C841 1.429 . S
C838 C821 1.574 . S
C838 H832 0.949 . S
C838 C842 1.368 . S
C839 C820 1.429 . S
C839 C833 1.429 . S
C839 C840 1.523 . S
C840 C821 1.368 . S
C840 C834 1.368 . S
C840 C839 1.523 . S
C841 C825 1.429 . S
C841 C837 1.429 . S
C841 C842 1.523 . S
C842 C826 1.368 . S
C842 C838 1.368 . S
C842 C841 1.523 . S
H843 C818 0.950 . S
H844 C820 0.950 . S
H845 C821 0.949 . S
H846 C823 0.950 . S
H847 C825 0.950 . S
C848 C849 1.349 . S
C848 C850 1.327 . S
C848 H873 0.950 . S
C849 C848 1.349 . S
C849 C865 1.349 . S
C850 C848 1.327 . S
C850 C869 1.429 . S
C850 H874 0.950 . S
C851 C868 1.574 . S
C851 C870 1.368 . S
C851 H875 0.949 . S
H852 C856 0.949 . S
C853 C854 1.349 . S
C853 C855 1.327 . S
C853 H876 0.950 . S
C854 C853 1.349 . S
C854 C866 1.349 . S
C855 C853 1.327 . S
C855 C871 1.429 . S
C855 H877 0.950 . S
C856 H852 0.949 . S
C856 C864 1.574 . S
C856 C872 1.368 . S
H857 C865 0.950 . S
H858 C863 0.950 . S
H859 C864 0.949 . S
H860 C866 0.950 . S
H861 C867 0.950 . S
H862 C868 0.949 . S
C863 H858 0.950 . S
C863 C865 1.327 . S
C863 C869 1.429 . S
C864 C856 1.574 . S
C864 H859 0.949 . S
C864 C870 1.368 . S
C865 C849 1.349 . S
C865 H857 0.950 . S
C865 C863 1.327 . S
C866 C854 1.349 . S
C866 H860 0.950 . S
C866 C867 1.327 . S
C867 H861 0.950 . S
C867 C866 1.327 . S
C867 C871 1.429 . S
C868 C851 1.574 . S
C868 H862 0.949 . S
C868 C872 1.368 . S
C869 C850 1.429 . S
C869 C863 1.429 . S
C869 C870 1.523 . S
C870 C851 1.368 . S
C870 C864 1.368 . S
C870 C869 1.523 . S
C871 C855 1.429 . S
C871 C867 1.429 . S
C871 C872 1.523 . S
C872 C856 1.368 . S
C872 C868 1.368 . S
C872 C871 1.523 . S
H873 C848 0.950 . S
H874 C850 0.950 . S
H875 C851 0.949 . S
H876 C853 0.950 . S
H877 C855 0.950 . S
C878 C879 1.349 . S
C878 C880 1.327 . S
C878 H903 0.950 . S
C879 C878 1.349 . S
C879 C895 1.349 . S
C880 C878 1.327 . S
C880 C899 1.429 . S
C880 H904 0.950 . S
C881 C898 1.574 . S
C881 C900 1.368 . S
C881 H905 0.949 . S
H882 C886 0.949 . S
C883 C884 1.349 . S
C883 C885 1.327 . S
C883 H906 0.950 . S
C884 C883 1.349 . S
C884 C896 1.349 . S
C885 C883 1.327 . S
C885 C901 1.429 . S
C885 H907 0.950 . S
C886 H882 0.949 . S
C886 C894 1.574 . S
C886 C902 1.368 . S
H887 C895 0.950 . S
H888 C893 0.950 . S
H889 C894 0.949 . S
H890 C896 0.950 . S
H891 C897 0.950 . S
H892 C898 0.949 . S
C893 H888 0.950 . S
C893 C895 1.327 . S
C893 C899 1.429 . S
C894 C886 1.574 . S
C894 H889 0.949 . S
C894 C900 1.368 . S
C895 C879 1.349 . S
C895 H887 0.950 . S
C895 C893 1.327 . S
C896 C884 1.349 . S
C896 H890 0.950 . S
C896 C897 1.327 . S
C897 H891 0.950 . S
C897 C896 1.327 . S
C897 C901 1.429 . S
C898 C881 1.574 . S
C898 H892 0.949 . S
C898 C902 1.368 . S
C899 C880 1.429 . S
C899 C893 1.429 . S
C899 C900 1.523 . S
C900 C881 1.368 . S
C900 C894 1.368 . S
C900 C899 1.523 . S
C901 C885 1.429 . S
C901 C897 1.429 . S
C901 C902 1.523 . S
C902 C886 1.368 . S
C902 C898 1.368 . S
C902 C901 1.523 . S
H903 C878 0.950 . S
H904 C880 0.950 . S
H905 C881 0.949 . S
H906 C883 0.950 . S
H907 C885 0.950 . S
C908 C909 1.349 . S
C908 C910 1.327 . S
C908 H933 0.950 . S
C909 C908 1.349 . S
C909 C925 1.349 . S
C910 C908 1.327 . S
C910 C929 1.429 . S
C910 H934 0.950 . S
C911 C928 1.574 . S
C911 C930 1.368 . S
C911 H935 0.949 . S
H912 C916 0.949 . S
C913 C914 1.349 . S
C913 C915 1.327 . S
C913 H936 0.950 . S
C914 C913 1.349 . S
C914 C926 1.349 . S
C915 C913 1.327 . S
C915 C931 1.429 . S
C915 H937 0.950 . S
C916 H912 0.949 . S
C916 C924 1.574 . S
C916 C932 1.368 . S
H917 C925 0.950 . S
H918 C923 0.950 . S
H919 C924 0.949 . S
H920 C926 0.950 . S
H921 C927 0.950 . S
H922 C928 0.949 . S
C923 H918 0.950 . S
C923 C925 1.327 . S
C923 C929 1.429 . S
C924 C916 1.574 . S
C924 H919 0.949 . S
C924 C930 1.368 . S
C925 C909 1.349 . S
C925 H917 0.950 . S
C925 C923 1.327 . S
C926 C914 1.349 . S
C926 H920 0.950 . S
C926 C927 1.327 . S
C927 H921 0.950 . S
C927 C926 1.327 . S
C927 C931 1.429 . S
C928 C911 1.574 . S
C928 H922 0.949 . S
C928 C932 1.368 . S
C929 C910 1.429 . S
C929 C923 1.429 . S
C929 C930 1.523 . S
C930 C911 1.368 . S
C930 C924 1.368 . S
C930 C929 1.523 . S
C931 C915 1.429 . S
C931 C927 1.429 . S
C931 C932 1.523 . S
C932 C916 1.368 . S
C932 C928 1.368 . S
C932 C931 1.523 . S
H933 C908 0.950 . S
H934 C910 0.950 . S
H935 C911 0.949 . S
H936 C913 0.950 . S
H937 C915 0.950 . S
C938 C939 1.349 . S
C938 C940 1.327 . S
C938 H963 0.950 . S
C939 C938 1.349 . S
C939 C955 1.349 . S
C940 C938 1.327 . S
C940 C959 1.429 . S
C940 H964 0.950 . S
C941 C958 1.574 . S
C941 C960 1.368 . S
C941 H965 0.949 . S
H942 C946 0.949 . S
C943 C944 1.349 . S
C943 C945 1.327 . S
C943 H966 0.950 . S
C944 C943 1.349 . S
C944 C956 1.349 . S
C945 C943 1.327 . S
C945 C961 1.429 . S
C945 H967 0.950 . S
C946 H942 0.949 . S
C946 C954 1.574 . S
C946 C962 1.368 . S
H947 C955 0.950 . S
H948 C953 0.950 . S
H949 C954 0.949 . S
H950 C956 0.950 . S
H951 C957 0.950 . S
H952 C958 0.949 . S
C953 H948 0.950 . S
C953 C955 1.327 . S
C953 C959 1.429 . S
C954 C946 1.574 . S
C954 H949 0.949 . S
C954 C960 1.368 . S
C955 C939 1.349 . S
C955 H947 0.950 . S
C955 C953 1.327 . S
C956 C944 1.349 . S
C956 H950 0.950 . S
C956 C957 1.327 . S
C957 H951 0.950 . S
C957 C956 1.327 . S
C957 C961 1.429 . S
C958 C941 1.574 . S
C958 H952 0.949 . S
C958 C962 1.368 . S
C959 C940 1.429 . S
C959 C953 1.429 . S
C959 C960 1.523 . S
C960 C941 1.368 . S
C960 C954 1.368 . S
C960 C959 1.523 . S
C961 C945 1.429 . S
C961 C957 1.429 . S
C961 C962 1.523 . S
C962 C946 1.368 . S
C962 C958 1.368 . S
C962 C961 1.523 . S
H963 C938 0.950 . S
H964 C940 0.950 . S
H965 C941 0.949 . S
H966 C943 0.950 . S
H967 C945 0.950 . S
C968 C969 1.349 . S
C968 C970 1.327 . S
C968 H993 0.950 . S
C969 C968 1.349 . S
C969 C985 1.349 . S
C970 C968 1.327 . S
C970 C989 1.429 . S
C970 H994 0.950 . S
C971 C988 1.574 . S
C971 C990 1.368 . S
C971 H995 0.949 . S
H972 C976 0.949 . S
C973 C974 1.349 . S
C973 C975 1.327 . S
C973 H996 0.950 . S
C974 C973 1.349 . S
C974 C986 1.349 . S
C975 C973 1.327 . S
C975 C991 1.429 . S
C975 H997 0.950 . S
C976 H972 0.949 . S
C976 C984 1.574 . S
C976 C992 1.368 . S
H977 C985 0.950 . S
H978 C983 0.950 . S
H979 C984 0.949 . S
H980 C986 0.950 . S
H981 C987 0.950 . S
H982 C988 0.949 . S
C983 H978 0.950 . S
C983 C985 1.327 . S
C983 C989 1.429 . S
C984 C976 1.574 . S
C984 H979 0.949 . S
C984 C990 1.368 . S
C985 C969 1.349 . S
C985 H977 0.950 . S
C985 C983 1.327 . S
C986 C974 1.349 . S
C986 H980 0.950 . S
C986 C987 1.327 . S
C987 H981 0.950 . S
C987 C986 1.327 . S
C987 C991 1.429 . S
C988 C971 1.574 . S
C988 H982 0.949 . S
C988 C992 1.368 . S
C989 C970 1.429 . S
C989 C983 1.429 . S
C989 C990 1.523 . S
C990 C971 1.368 . S
C990 C984 1.368 . S
C990 C989 1.523 . S
C991 C975 1.429 . S
C991 C987 1.429 . S
C991 C992 1.523 . S
C992 C976 1.368 . S
C992 C988 1.368 . S
C992 C991 1.523 . S
H993 C968 0.950 . S
H994 C970 0.950 . S
H995 C971 0.949 . S
H996 C973 0.950 . S
H997 C975 0.950 . S
C998 C999 1.349 . S
C998 C1000 1.327 . S
C998 H1023 0.950 . S
C999 C998 1.349 . S
C999 C1015 1.349 . S
C1000 C998 1.327 . S
C1000 C1019 1.429 . S
C1000 H1024 0.950 . S
C1001 C1018 1.574 . S
C1001 C1020 1.368 . S
C1001 H1025 0.949 . S
H1002 C1006 0.949 . S
C1003 C1004 1.349 . S
C1003 C1005 1.327 . S
C1003 H1026 0.950 . S
C1004 C1003 1.349 . S
C1004 C1016 1.349 . S
C1005 C1003 1.327 . S
C1005 C1021 1.429 . S
C1005 H1027 0.950 . S
C1006 H1002 0.949 . S
C1006 C1014 1.574 . S
C1006 C1022 1.368 . S
H1007 C1015 0.950 . S
H1008 C1013 0.950 . S
H1009 C1014 0.949 . S
H1010 C1016 0.950 . S
H1011 C1017 0.950 . S
H1012 C1018 0.949 . S
C1013 H1008 0.950 . S
C1013 C1015 1.327 . S
C1013 C1019 1.429 . S
C1014 C1006 1.574 . S
C1014 H1009 0.949 . S
C1014 C1020 1.368 . S
C1015 C999 1.349 . S
C1015 H1007 0.950 . S
C1015 C1013 1.327 . S
C1016 C1004 1.349 . S
C1016 H1010 0.950 . S
C1016 C1017 1.327 . S
C1017 H1011 0.950 . S
C1017 C1016 1.327 . S
C1017 C1021 1.429 . S
C1018 C1001 1.574 . S
C1018 H1012 0.949 . S
C1018 C1022 1.368 . S
C1019 C1000 1.429 . S
C1019 C1013 1.429 . S
C1019 C1020 1.523 . S
C1020 C1001 1.368 . S
C1020 C1014 1.368 . S
C1020 C1019 1.523 . S
C1021 C1005 1.429 . S
C1021 C1017 1.429 . S
C1021 C1022 1.523 . S
C1022 C1006 1.368 . S
C1022 C1018 1.368 . S
C1022 C1021 1.523 . S
H1023 C998 0.950 . S
H1024 C1000 0.950 . S
H1025 C1001 0.949 . S
H1026 C1003 0.950 . S
H1027 C1005 0.950 . S
C1028 C1029 1.349 . S
C1028 C1030 1.327 . S
C1028 H1053 0.950 . S
C1029 C1028 1.349 . S
C1029 C1045 1.349 . S
C1030 C1028 1.327 . S
C1030 C1049 1.429 . S
C1030 H1054 0.950 . S
C1031 C1048 1.574 . S
C1031 C1050 1.368 . S
C1031 H1055 0.949 . S
H1032 C1036 0.949 . S
C1033 C1034 1.349 . S
C1033 C1035 1.327 . S
C1033 H1056 0.950 . S
C1034 C1033 1.349 . S
C1034 C1046 1.349 . S
C1035 C1033 1.327 . S
C1035 C1051 1.429 . S
C1035 H1057 0.950 . S
C1036 H1032 0.949 . S
C1036 C1044 1.574 . S
C1036 C1052 1.368 . S
H1037 C1045 0.950 . S
H1038 C1043 0.950 . S
H1039 C1044 0.949 . S
H1040 C1046 0.950 . S
H1041 C1047 0.950 . S
H1042 C1048 0.949 . S
C1043 H1038 0.950 . S
C1043 C1045 1.327 . S
C1043 C1049 1.429 . S
C1044 C1036 1.574 . S
C1044 H1039 0.949 . S
C1044 C1050 1.368 . S
C1045 C1029 1.349 . S
C1045 H1037 0.950 . S
C1045 C1043 1.327 . S
C1046 C1034 1.349 . S
C1046 H1040 0.950 . S
C1046 C1047 1.327 . S
C1047 H1041 0.950 . S
C1047 C1046 1.327 . S
C1047 C1051 1.429 . S
C1048 C1031 1.574 . S
C1048 H1042 0.949 . S
C1048 C1052 1.368 . S
C1049 C1030 1.429 . S
C1049 C1043 1.429 . S
C1049 C1050 1.523 . S
C1050 C1031 1.368 . S
C1050 C1044 1.368 . S
C1050 C1049 1.523 . S
C1051 C1035 1.429 . S
C1051 C1047 1.429 . S
C1051 C1052 1.523 . S
C1052 C1036 1.368 . S
C1052 C1048 1.368 . S
C1052 C1051 1.523 . S
H1053 C1028 0.950 . S
H1054 C1030 0.950 . S
H1055 C1031 0.949 . S
H1056 C1033 0.950 . S
H1057 C1035 0.950 . S
C1058 C1059 1.349 . S
C1058 C1060 1.327 . S
C1058 H1083 0.950 . S
C1059 C1058 1.349 . S
C1059 C1075 1.349 . S
C1060 C1058 1.327 . S
C1060 C1079 1.429 . S
C1060 H1084 0.950 . S
C1061 C1078 1.574 . S
C1061 C1080 1.368 . S
C1061 H1085 0.949 . S
H1062 C1066 0.949 . S
C1063 C1064 1.349 . S
C1063 C1065 1.327 . S
C1063 H1086 0.950 . S
C1064 C1063 1.349 . S
C1064 C1076 1.349 . S
C1065 C1063 1.327 . S
C1065 C1081 1.429 . S
C1065 H1087 0.950 . S
C1066 H1062 0.949 . S
C1066 C1074 1.574 . S
C1066 C1082 1.368 . S
H1067 C1075 0.950 . S
H1068 C1073 0.950 . S
H1069 C1074 0.949 . S
H1070 C1076 0.950 . S
H1071 C1077 0.950 . S
H1072 C1078 0.949 . S
C1073 H1068 0.950 . S
C1073 C1075 1.327 . S
C1073 C1079 1.429 . S
C1074 C1066 1.574 . S
C1074 H1069 0.949 . S
C1074 C1080 1.368 . S
C1075 C1059 1.349 . S
C1075 H1067 0.950 . S
C1075 C1073 1.327 . S
C1076 C1064 1.349 . S
C1076 H1070 0.950 . S
C1076 C1077 1.327 . S
C1077 H1071 0.950 . S
C1077 C1076 1.327 . S
C1077 C1081 1.429 . S
C1078 C1061 1.574 . S
C1078 H1072 0.949 . S
C1078 C1082 1.368 . S
C1079 C1060 1.429 . S
C1079 C1073 1.429 . S
C1079 C1080 1.523 . S
C1080 C1061 1.368 . S
C1080 C1074 1.368 . S
C1080 C1079 1.523 . S
C1081 C1065 1.429 . S
C1081 C1077 1.429 . S
C1081 C1082 1.523 . S
C1082 C1066 1.368 . S
C1082 C1078 1.368 . S
C1082 C1081 1.523 . S
H1083 C1058 0.950 . S
H1084 C1060 0.950 . S
H1085 C1061 0.949 . S
H1086 C1063 0.950 . S
H1087 C1065 0.950 . S
C1088 C1089 1.349 . S
C1088 C1090 1.327 . S
C1088 H1113 0.950 . S
C1089 C1088 1.349 . S
C1089 C1105 1.349 . S
C1090 C1088 1.327 . S
C1090 C1109 1.429 . S
C1090 H1114 0.950 . S
C1091 C1108 1.574 . S
C1091 C1110 1.368 . S
C1091 H1115 0.949 . S
H1092 C1096 0.949 . S
C1093 C1094 1.349 . S
C1093 C1095 1.327 . S
C1093 H1116 0.950 . S
C1094 C1093 1.349 . S
C1094 C1106 1.349 . S
C1095 C1093 1.327 . S
C1095 C1111 1.429 . S
C1095 H1117 0.950 . S
C1096 H1092 0.949 . S
C1096 C1104 1.574 . S
C1096 C1112 1.368 . S
H1097 C1105 0.950 . S
H1098 C1103 0.950 . S
H1099 C1104 0.949 . S
H1100 C1106 0.950 . S
H1101 C1107 0.950 . S
H1102 C1108 0.949 . S
C1103 H1098 0.950 . S
C1103 C1105 1.327 . S
C1103 C1109 1.429 . S
C1104 C1096 1.574 . S
C1104 H1099 0.949 . S
C1104 C1110 1.368 . S
C1105 C1089 1.349 . S
C1105 H1097 0.950 . S
C1105 C1103 1.327 . S
C1106 C1094 1.349 . S
C1106 H1100 0.950 . S
C1106 C1107 1.327 . S
C1107 H1101 0.950 . S
C1107 C1106 1.327 . S
C1107 C1111 1.429 . S
C1108 C1091 1.574 . S
C1108 H1102 0.949 . S
C1108 C1112 1.368 . S
C1109 C1090 1.429 . S
C1109 C1103 1.429 . S
C1109 C1110 1.523 . S
C1110 C1091 1.368 . S
C1110 C1104 1.368 . S
C1110 C1109 1.523 . S
C1111 C1095 1.429 . S
C1111 C1107 1.429 . S
C1111 C1112 1.523 . S
C1112 C1096 1.368 . S
C1112 C1108 1.368 . S
C1112 C1111 1.523 . S
H1113 C1088 0.950 . S
H1114 C1090 0.950 . S
H1115 C1091 0.949 . S
H1116 C1093 0.950 . S
H1117 C1095 0.950 . S
C1118 C1119 1.349 . S
C1118 C1120 1.327 . S
C1118 H1143 0.950 . S
C1119 C1118 1.349 . S
C1119 C1135 1.349 . S
C1120 C1118 1.327 . S
C1120 C1139 1.429 . S
C1120 H1144 0.950 . S
C1121 C1138 1.574 . S
C1121 C1140 1.368 . S
C1121 H1145 0.949 . S
H1122 C1126 0.949 . S
C1123 C1124 1.349 . S
C1123 C1125 1.327 . S
C1123 H1146 0.950 . S
C1124 C1123 1.349 . S
C1124 C1136 1.349 . S
C1125 C1123 1.327 . S
C1125 C1141 1.429 . S
C1125 H1147 0.950 . S
C1126 H1122 0.949 . S
C1126 C1134 1.574 . S
C1126 C1142 1.368 . S
H1127 C1135 0.950 . S
H1128 C1133 0.950 . S
H1129 C1134 0.949 . S
H1130 C1136 0.950 . S
H1131 C1137 0.950 . S
H1132 C1138 0.949 . S
C1133 H1128 0.950 . S
C1133 C1135 1.327 . S
C1133 C1139 1.429 . S
C1134 C1126 1.574 . S
C1134 H1129 0.949 . S
C1134 C1140 1.368 . S
C1135 C1119 1.349 . S
C1135 H1127 0.950 . S
C1135 C1133 1.327 . S
C1136 C1124 1.349 . S
C1136 H1130 0.950 . S
C1136 C1137 1.327 . S
C1137 H1131 0.950 . S
C1137 C1136 1.327 . S
C1137 C1141 1.429 . S
C1138 C1121 1.574 . S
C1138 H1132 0.949 . S
C1138 C1142 1.368 . S
C1139 C1120 1.429 . S
C1139 C1133 1.429 . S
C1139 C1140 1.523 . S
C1140 C1121 1.368 . S
C1140 C1134 1.368 . S
C1140 C1139 1.523 . S
C1141 C1125 1.429 . S
C1141 C1137 1.429 . S
C1141 C1142 1.523 . S
C1142 C1126 1.368 . S
C1142 C1138 1.368 . S
C1142 C1141 1.523 . S
H1143 C1118 0.950 . S
H1144 C1120 0.950 . S
H1145 C1121 0.949 . S
H1146 C1123 0.950 . S
H1147 C1125 0.950 . S
C1148 C1149 1.349 . S
C1148 C1150 1.327 . S
C1148 H1173 0.950 . S
C1149 C1148 1.349 . S
C1149 C1165 1.349 . S
C1150 C1148 1.327 . S
C1150 C1169 1.429 . S
C1150 H1174 0.950 . S
C1151 C1168 1.574 . S
C1151 C1170 1.368 . S
C1151 H1175 0.949 . S
H1152 C1156 0.949 . S
C1153 C1154 1.349 . S
C1153 C1155 1.327 . S
C1153 H1176 0.950 . S
C1154 C1153 1.349 . S
C1154 C1166 1.349 . S
C1155 C1153 1.327 . S
C1155 C1171 1.429 . S
C1155 H1177 0.950 . S
C1156 H1152 0.949 . S
C1156 C1164 1.574 . S
C1156 C1172 1.368 . S
H1157 C1165 0.950 . S
H1158 C1163 0.950 . S
H1159 C1164 0.949 . S
H1160 C1166 0.950 . S
H1161 C1167 0.950 . S
H1162 C1168 0.949 . S
C1163 H1158 0.950 . S
C1163 C1165 1.327 . S
C1163 C1169 1.429 . S
C1164 C1156 1.574 . S
C1164 H1159 0.949 . S
C1164 C1170 1.368 . S
C1165 C1149 1.349 . S
C1165 H1157 0.950 . S
C1165 C1163 1.327 . S
C1166 C1154 1.349 . S
C1166 H1160 0.950 . S
C1166 C1167 1.327 . S
C1167 H1161 0.950 . S
C1167 C1166 1.327 . S
C1167 C1171 1.429 . S
C1168 C1151 1.574 . S
C1168 H1162 0.949 . S
C1168 C1172 1.368 . S
C1169 C1150 1.429 . S
C1169 C1163 1.429 . S
C1169 C1170 1.523 . S
C1170 C1151 1.368 . S
C1170 C1164 1.368 . S
C1170 C1169 1.523 . S
C1171 C1155 1.429 . S
C1171 C1167 1.429 . S
C1171 C1172 1.523 . S
C1172 C1156 1.368 . S
C1172 C1168 1.368 . S
C1172 C1171 1.523 . S
H1173 C1148 0.950 . S
H1174 C1150 0.950 . S
H1175 C1151 0.949 . S
H1176 C1153 0.950 . S
H1177 C1155 0.950 . S
C1178 C1179 1.349 . S
C1178 C1180 1.327 . S
C1178 H1203 0.950 . S
C1179 C1178 1.349 . S
C1179 C1195 1.349 . S
C1180 C1178 1.327 . S
C1180 C1199 1.429 . S
C1180 H1204 0.950 . S
C1181 C1198 1.574 . S
C1181 C1200 1.368 . S
C1181 H1205 0.949 . S
H1182 C1186 0.949 . S
C1183 C1184 1.349 . S
C1183 C1185 1.327 . S
C1183 H1206 0.950 . S
C1184 C1183 1.349 . S
C1184 C1196 1.349 . S
C1185 C1183 1.327 . S
C1185 C1201 1.429 . S
C1185 H1207 0.950 . S
C1186 H1182 0.949 . S
C1186 C1194 1.574 . S
C1186 C1202 1.368 . S
H1187 C1195 0.950 . S
H1188 C1193 0.950 . S
H1189 C1194 0.949 . S
H1190 C1196 0.950 . S
H1191 C1197 0.950 . S
H1192 C1198 0.949 . S
C1193 H1188 0.950 . S
C1193 C1195 1.327 . S
C1193 C1199 1.429 . S
C1194 C1186 1.574 . S
C1194 H1189 0.949 . S
C1194 C1200 1.368 . S
C1195 C1179 1.349 . S
C1195 H1187 0.950 . S
C1195 C1193 1.327 . S
C1196 C1184 1.349 . S
C1196 H1190 0.950 . S
C1196 C1197 1.327 . S
C1197 H1191 0.950 . S
C1197 C1196 1.327 . S
C1197 C1201 1.429 . S
C1198 C1181 1.574 . S
C1198 H1192 0.949 . S
C1198 C1202 1.368 . S
C1199 C1180 1.429 . S
C1199 C1193 1.429 . S
C1199 C1200 1.523 . S
C1200 C1181 1.368 . S
C1200 C1194 1.368 . S
C1200 C1199 1.523 . S
C1201 C1185 1.429 . S
C1201 C1197 1.429 . S
C1201 C1202 1.523 . S
C1202 C1186 1.368 . S
C1202 C1198 1.368 . S
C1202 C1201 1.523 . S
H1203 C1178 0.950 . S
H1204 C1180 0.950 . S
H1205 C1181 0.949 . S
H1206 C1183 0.950 . S
H1207 C1185 0.950 . S
C1208 C1209 1.349 . S
C1208 C1210 1.327 . S
C1208 H1233 0.950 . S
C1209 C1208 1.349 . S
C1209 C1225 1.349 . S
C1210 C1208 1.327 . S
C1210 C1229 1.429 . S
C1210 H1234 0.950 . S
C1211 C1228 1.574 . S
C1211 C1230 1.368 . S
C1211 H1235 0.949 . S
H1212 C1216 0.949 . S
C1213 C1214 1.349 . S
C1213 C1215 1.327 . S
C1213 H1236 0.950 . S
C1214 C1213 1.349 . S
C1214 C1226 1.349 . S
C1215 C1213 1.327 . S
C1215 C1231 1.429 . S
C1215 H1237 0.950 . S
C1216 H1212 0.949 . S
C1216 C1224 1.574 . S
C1216 C1232 1.368 . S
H1217 C1225 0.950 . S
H1218 C1223 0.950 . S
H1219 C1224 0.949 . S
H1220 C1226 0.950 . S
H1221 C1227 0.950 . S
H1222 C1228 0.949 . S
C1223 H1218 0.950 . S
C1223 C1225 1.327 . S
C1223 C1229 1.429 . S
C1224 C1216 1.574 . S
C1224 H1219 0.949 . S
C1224 C1230 1.368 . S
C1225 C1209 1.349 . S
C1225 H1217 0.950 . S
C1225 C1223 1.327 . S
C1226 C1214 1.349 . S
C1226 H1220 0.950 . S
C1226 C1227 1.327 . S
C1227 H1221 0.950 . S
C1227 C1226 1.327 . S
C1227 C1231 1.429 . S
C1228 C1211 1.574 . S
C1228 H1222 0.949 . S
C1228 C1232 1.368 . S
C1229 C1210 1.429 . S
C1229 C1223 1.429 . S
C1229 C1230 1.523 . S
C1230 C1211 1.368 . S
C1230 C1224 1.368 . S
C1230 C1229 1.523 . S
C1231 C1215 1.429 . S
C1231 C1227 1.429 . S
C1231 C1232 1.523 . S
C1232 C1216 1.368 . S
C1232 C1228 1.368 . S
C1232 C1231 1.523 . S
H1233 C1208 0.950 . S
H1234 C1210 0.950 . S
H1235 C1211 0.949 . S
H1236 C1213 0.950 . S
H1237 C1215 0.950 . S
C1238 C1239 1.349 . S
C1238 C1240 1.327 . S
C1238 H1263 0.950 . S
C1239 C1238 1.349 . S
C1239 C1255 1.349 . S
C1240 C1238 1.327 . S
C1240 C1259 1.429 . S
C1240 H1264 0.950 . S
C1241 C1258 1.574 . S
C1241 C1260 1.368 . S
C1241 H1265 0.949 . S
H1242 C1246 0.949 . S
C1243 C1244 1.349 . S
C1243 C1245 1.327 . S
C1243 H1266 0.950 . S
C1244 C1243 1.349 . S
C1244 C1256 1.349 . S
C1245 C1243 1.327 . S
C1245 C1261 1.429 . S
C1245 H1267 0.950 . S
C1246 H1242 0.949 . S
C1246 C1254 1.574 . S
C1246 C1262 1.368 . S
H1247 C1255 0.950 . S
H1248 C1253 0.950 . S
H1249 C1254 0.949 . S
H1250 C1256 0.950 . S
H1251 C1257 0.950 . S
H1252 C1258 0.949 . S
C1253 H1248 0.950 . S
C1253 C1255 1.327 . S
C1253 C1259 1.429 . S
C1254 C1246 1.574 . S
C1254 H1249 0.949 . S
C1254 C1260 1.368 . S
C1255 C1239 1.349 . S
C1255 H1247 0.950 . S
C1255 C1253 1.327 . S
C1256 C1244 1.349 . S
C1256 H1250 0.950 . S
C1256 C1257 1.327 . S
C1257 H1251 0.950 . S
C1257 C1256 1.327 . S
C1257 C1261 1.429 . S
C1258 C1241 1.574 . S
C1258 H1252 0.949 . S
C1258 C1262 1.368 . S
C1259 C1240 1.429 . S
C1259 C1253 1.429 . S
C1259 C1260 1.523 . S
C1260 C1241 1.368 . S
C1260 C1254 1.368 . S
C1260 C1259 1.523 . S
C1261 C1245 1.429 . S
C1261 C1257 1.429 . S
C1261 C1262 1.523 . S
C1262 C1246 1.368 . S
C1262 C1258 1.368 . S
C1262 C1261 1.523 . S
H1263 C1238 0.950 . S
H1264 C1240 0.950 . S
H1265 C1241 0.949 . S
H1266 C1243 0.950 . S
H1267 C1245 0.950 . S
C1268 C1269 1.349 . S
C1268 C1270 1.327 . S
C1268 H1293 0.950 . S
C1269 C1268 1.349 . S
C1269 C1285 1.349 . S
C1270 C1268 1.327 . S
C1270 C1289 1.429 . S
C1270 H1294 0.950 . S
C1271 C1288 1.574 . S
C1271 C1290 1.368 . S
C1271 H1295 0.949 . S
H1272 C1276 0.949 . S
C1273 C1274 1.349 . S
C1273 C1275 1.327 . S
C1273 H1296 0.950 . S
C1274 C1273 1.349 . S
C1274 C1286 1.349 . S
C1275 C1273 1.327 . S
C1275 C1291 1.429 . S
C1275 H1297 0.950 . S
C1276 H1272 0.949 . S
C1276 C1284 1.574 . S
C1276 C1292 1.368 . S
H1277 C1285 0.950 . S
H1278 C1283 0.950 . S
H1279 C1284 0.949 . S
H1280 C1286 0.950 . S
H1281 C1287 0.950 . S
H1282 C1288 0.949 . S
C1283 H1278 0.950 . S
C1283 C1285 1.327 . S
C1283 C1289 1.429 . S
C1284 C1276 1.574 . S
C1284 H1279 0.949 . S
C1284 C1290 1.368 . S
C1285 C1269 1.349 . S
C1285 H1277 0.950 . S
C1285 C1283 1.327 . S
C1286 C1274 1.349 . S
C1286 H1280 0.950 . S
C1286 C1287 1.327 . S
C1287 H1281 0.950 . S
C1287 C1286 1.327 . S
C1287 C1291 1.429 . S
C1288 C1271 1.574 . S
C1288 H1282 0.949 . S
C1288 C1292 1.368 . S
C1289 C1270 1.429 . S
C1289 C1283 1.429 . S
C1289 C1290 1.523 . S
C1290 C1271 1.368 . S
C1290 C1284 1.368 . S
C1290 C1289 1.523 . S
C1291 C1275 1.429 . S
C1291 C1287 1.429 . S
C1291 C1292 1.523 . S
C1292 C1276 1.368 . S
C1292 C1288 1.368 . S
C1292 C1291 1.523 . S
H1293 C1268 0.950 . S
H1294 C1270 0.950 . S
H1295 C1271 0.949 . S
H1296 C1273 0.950 . S
H1297 C1275 0.950 . S
C1298 C1299 1.349 . S
C1298 C1300 1.327 . S
C1298 H1323 0.950 . S
C1299 C1298 1.349 . S
C1299 C1315 1.349 . S
C1300 C1298 1.327 . S
C1300 C1319 1.429 . S
C1300 H1324 0.950 . S
C1301 C1318 1.574 . S
C1301 C1320 1.368 . S
C1301 H1325 0.949 . S
H1302 C1306 0.949 . S
C1303 C1304 1.349 . S
C1303 C1305 1.327 . S
C1303 H1326 0.950 . S
C1304 C1303 1.349 . S
C1304 C1316 1.349 . S
C1305 C1303 1.327 . S
C1305 C1321 1.429 . S
C1305 H1327 0.950 . S
C1306 H1302 0.949 . S
C1306 C1314 1.574 . S
C1306 C1322 1.368 . S
H1307 C1315 0.950 . S
H1308 C1313 0.950 . S
H1309 C1314 0.949 . S
H1310 C1316 0.950 . S
H1311 C1317 0.950 . S
H1312 C1318 0.949 . S
C1313 H1308 0.950 . S
C1313 C1315 1.327 . S
C1313 C1319 1.429 . S
C1314 C1306 1.574 . S
C1314 H1309 0.949 . S
C1314 C1320 1.368 . S
C1315 C1299 1.349 . S
C1315 H1307 0.950 . S
C1315 C1313 1.327 . S
C1316 C1304 1.349 . S
C1316 H1310 0.950 . S
C1316 C1317 1.327 . S
C1317 H1311 0.950 . S
C1317 C1316 1.327 . S
C1317 C1321 1.429 . S
C1318 C1301 1.574 . S
C1318 H1312 0.949 . S
C1318 C1322 1.368 . S
C1319 C1300 1.429 . S
C1319 C1313 1.429 . S
C1319 C1320 1.523 . S
C1320 C1301 1.368 . S
C1320 C1314 1.368 . S
C1320 C1319 1.523 . S
C1321 C1305 1.429 . S
C1321 C1317 1.429 . S
C1321 C1322 1.523 . S
C1322 C1306 1.368 . S
C1322 C1318 1.368 . S
C1322 C1321 1.523 . S
H1323 C1298 0.950 . S
H1324 C1300 0.950 . S
H1325 C1301 0.949 . S
H1326 C1303 0.950 . S
H1327 C1305 0.950 . S
C614 C350 1.582 . S
C609 C15 1.581 . S
C644 C389 1.599 . S
C639 C55 1.603 . S
C674 C365 1.608 . S
C669 C101 1.611 . S
C704 C404 1.646 . S
C699 C141 1.653 . S
C734 C452 1.547 . S
C729 C2 1.530 . S
C764 C485 1.538 . S
C759 C61 1.517 . S
C789 C95 1.672 . S
C794 C542 1.677 . S
C824 C590 1.537 . S
C819 C135 1.536 . S
C854 C437 1.548 . S
C849 C42 1.523 . S
C879 C82 1.528 . S
C884 C500 1.550 . S
C914 C557 1.639 . S
C909 C122 1.674 . S
C944 C605 1.535 . S
C939 C21 1.524 . S
C969 C162 1.649 . S
C974 C398 1.628 . S
C1004 C341 1.615 . S
C999 C221 1.621 . S
C1029 C255 1.604 . S
C1034 C413 1.603 . S
C1059 C282 1.560 . S
C1064 C356 1.578 . S
C1094 C533 1.666 . S
C1089 C181 1.688 . S
C1124 C596 1.549 . S
C1119 C202 1.544 . S
C1154 C461 1.557 . S
C1149 C242 1.550 . S
C1179 C301 1.525 . S
C1184 C509 1.546 . S
C1214 C548 1.668 . S
C1209 C215 1.675 . S
C1244 C581 1.537 . S
C1239 C261 1.540 . S
C1274 C446 1.534 . S
C1269 C295 1.552 . S
C1299 C175 1.541 . S
C1304 C494 1.529 . S
