# Generated by pormake.
# Topology anh, (6,3)-cn, num edge types: 1
# Building blocks:
#     Node 0, Type 0, BuildingBlock: VOLQOD_clean_sbu_1, # of connection points: 6
#     Node 1, Type 0, BuildingBlock: VOLQOD_clean_sbu_1, # of connection points: 6
#     Node 2, Type 0, BuildingBlock: VOLQOD_clean_sbu_1, # of connection points: 6
#     Node 3, Type 1, BuildingBlock: BETDIP_clean_linker_0, # of connection points: 3
#     Node 4, Type 1, BuildingBlock: BETDIP_clean_linker_0, # of connection points: 3
#     Node 5, Type 1, BuildingBlock: BETDIP_clean_linker_0, # of connection points: 3
#     Node 6, Type 1, BuildingBlock: BETDIP_clean_linker_0, # of connection points: 3
#     Node 7, Type 1, BuildingBlock: BETDIP_clean_linker_0, # of connection points: 3
#     Node 8, Type 1, BuildingBlock: BETDIP_clean_linker_0, # of connection points: 3
#     Edge 9, Type (0, 1), BuildingBlock: UVAHIK_clean_linker_0, # of connection points: 2
#     Edge 10, Type (0, 1), BuildingBlock: UVAHIK_clean_linker_0, # of connection points: 2
#     Edge 11, Type (0, 1), BuildingBlock: UVAHIK_clean_linker_0, # of connection points: 2
#     Edge 12, Type (0, 1), BuildingBlock: UVAHIK_clean_linker_0, # of connection points: 2
#     Edge 13, Type (0, 1), BuildingBlock: UVAHIK_clean_linker_0, # of connection points: 2
#     Edge 14, Type (0, 1), BuildingBlock: UVAHIK_clean_linker_0, # of connection points: 2
#     Edge 15, Type (0, 1), BuildingBlock: UVAHIK_clean_linker_0, # of connection points: 2
#     Edge 16, Type (0, 1), BuildingBlock: UVAHIK_clean_linker_0, # of connection points: 2
#     Edge 17, Type (0, 1), BuildingBlock: UVAHIK_clean_linker_0, # of connection points: 2
#     Edge 18, Type (0, 1), BuildingBlock: UVAHIK_clean_linker_0, # of connection points: 2
#     Edge 19, Type (0, 1), BuildingBlock: UVAHIK_clean_linker_0, # of connection points: 2
#     Edge 20, Type (0, 1), BuildingBlock: UVAHIK_clean_linker_0, # of connection points: 2
#     Edge 21, Type (0, 1), BuildingBlock: UVAHIK_clean_linker_0, # of connection points: 2
#     Edge 22, Type (0, 1), BuildingBlock: UVAHIK_clean_linker_0, # of connection points: 2
#     Edge 23, Type (0, 1), BuildingBlock: UVAHIK_clean_linker_0, # of connection points: 2
#     Edge 24, Type (0, 1), BuildingBlock: UVAHIK_clean_linker_0, # of connection points: 2
#     Edge 25, Type (0, 1), BuildingBlock: UVAHIK_clean_linker_0, # of connection points: 2
#     Edge 26, Type (0, 1), BuildingBlock: UVAHIK_clean_linker_0, # of connection points: 2
# Relax obj value: 0.169
# Max RMSD: 0.216
# Mean RMSD: 0.154
data_MOF--net-anh--node1-VOLQOD_clean_sbu_1--node2-BETDIP_clean_linker_0--edge1-UVAHIK_clean_linker_0
_symmetry_space_group_name_H-M    P1
_symmetry_Int_Tables_number       1
_symmetry_cell_setting            triclinic
loop_
_symmetry_equiv_pos_as_xyz
'x, y, z'
_cell_length_a     37.73786
_cell_length_b     37.572718
_cell_length_c     73.083217
_cell_angle_alpha  93.806092
_cell_angle_beta   89.811402
_cell_angle_gamma 120.19145
loop_
_atom_site_label
_atom_site_type_symbol
_atom_site_fract_x
_atom_site_fract_y
_atom_site_fract_z
_atom_type_partial_charge
O0 O 0.04885 0.61638 0.18302 0.0
Zn1 Zn 0.05367 0.62712 0.15616 0.0
O2 O 0.06062 0.58511 0.14165 0.0
Zn3 Zn 0.01544 0.55457 0.1237 0.0
Zn4 Zn 0.06174 0.54637 0.15782 0.0
Zn5 Zn 0.11159 0.61149 0.12863 0.0
O6 O 0.03482 0.55791 0.09781 0.0
O7 O 0.1014 0.60345 0.10123 0.0
O8 O 0.00204 0.62658 0.14803 0.0
O9 O 0.97869 0.57838 0.12481 0.0
O10 O 0.97929 0.49527 0.12957 0.0
O11 O 0.01245 0.48989 0.15325 0.0
O12 O 0.11257 0.54238 0.15502 0.0
O13 O 0.10321 0.68403 0.15444 0.0
O14 O 0.14761 0.58843 0.1349 0.0
O15 O 0.14331 0.67217 0.13578 0.0
C16 C 0.05248 0.59052 0.19209 0.0
C17 C 0.06969 0.58022 0.091 0.0
C18 C 0.98202 0.47421 0.14187 0.0
C19 C 0.97581 0.60548 0.13505 0.0
C20 C 0.14417 0.56136 0.1455 0.0
C21 C 0.13658 0.69682 0.14597 0.0
O22 O 0.05889 0.5632 0.18414 0.0
O23 O 0.47557 0.05209 0.45977 0.0
Zn24 Zn 0.4596 0.04673 0.48624 0.0
O25 O 0.4994 0.04124 0.50103 0.0
Zn26 Zn 0.52833 0.08939 0.51814 0.0
Zn27 Zn 0.5387 0.03593 0.48521 0.0
Zn28 Zn 0.47108 0.99327 0.51506 0.0
O29 O 0.52979 0.07415 0.54384 0.0
O30 O 0.48193 0.00783 0.54223 0.0
O31 O 0.45459 0.09583 0.49561 0.0
O32 O 0.50007 0.12235 0.51898 0.0
O33 O 0.58554 0.12615 0.51015 0.0
O34 O 0.59437 0.08769 0.48829 0.0
O35 O 0.54315 0.98564 0.49012 0.0
O36 O 0.40338 0.9961 0.48719 0.0
O37 O 0.49167 0.9546 0.50891 0.0
O38 O 0.41073 0.96193 0.50911 0.0
C39 C 0.49904 0.04274 0.45069 0.0
C40 C 0.50783 0.04074 0.55151 0.0
C41 C 0.60786 0.12133 0.4983 0.0
C42 C 0.4722 0.12228 0.50919 0.0
C43 C 0.52045 0.9553 0.49955 0.0
C44 C 0.38841 0.96579 0.4973 0.0
O45 O 0.5222 0.03235 0.4586 0.0
O46 O 0.47347 0.47477 0.80863 0.0
Zn47 Zn 0.46613 0.46348 0.83555 0.0
O48 O 0.51592 0.503 0.8504 0.0
Zn49 Zn 0.50323 0.5333 0.86933 0.0
Zn50 Zn 0.55658 0.54222 0.83458 0.0
Zn51 Zn 0.53886 0.47426 0.86262 0.0
O52 O 0.51758 0.52659 0.89479 0.0
O53 O 0.53997 0.48247 0.89021 0.0
O54 O 0.41724 0.46867 0.84365 0.0
O55 O 0.44358 0.51364 0.86802 0.0
O56 O 0.53078 0.59368 0.86531 0.0
O57 O 0.56774 0.59985 0.84084 0.0
O58 O 0.60946 0.54217 0.83616 0.0
O59 O 0.45411 0.40471 0.83744 0.0
O60 O 0.59654 0.49317 0.85488 0.0
O61 O 0.50503 0.41388 0.85603 0.0
C62 C 0.50337 0.5015 0.79994 0.0
C63 C 0.53114 0.50469 0.90098 0.0
C64 C 0.55516 0.61562 0.85334 0.0
C65 C 0.41339 0.48954 0.8572 0.0
C66 C 0.62065 0.52058 0.84449 0.0
C67 C 0.47275 0.39035 0.84621 0.0
O68 O 0.53671 0.52832 0.80829 0.0
H69 H 0.52179 0.08475 0.20297 0.0
H70 H 0.58415 0.13758 0.25547 0.0
H71 H 0.46703 0.02613 0.25227 0.0
H72 H 0.62031 0.19473 0.24021 0.0
C73 C 0.62249 0.18324 0.22647 0.0
C74 C 0.52246 0.08418 0.21778 0.0
C75 C 0.49004 0.05182 0.22636 0.0
C76 C 0.55641 0.11542 0.22805 0.0
C77 C 0.55779 0.11441 0.24727 0.0
C78 C 0.52566 0.08202 0.25597 0.0
C79 C 0.49203 0.05085 0.24547 0.0
N80 N 0.58951 0.14565 0.21843 0.0
H81 H 0.48231 0.51332 0.5509 0.0
H82 H 0.50523 0.58254 0.60306 0.0
H83 H 0.45255 0.45097 0.60076 0.0
H84 H 0.54467 0.63688 0.58777 0.0
C85 C 0.5351 0.62971 0.57338 0.0
C86 C 0.48119 0.51413 0.56574 0.0
C87 C 0.46496 0.47737 0.57459 0.0
C88 C 0.49645 0.55223 0.57579 0.0
C89 C 0.49468 0.55355 0.59506 0.0
C90 C 0.47838 0.51696 0.60418 0.0
C91 C 0.46356 0.47907 0.5938 0.0
N92 N 0.51256 0.58814 0.56586 0.0
H93 H 0.0662 0.64727 0.84622 0.0
H94 H 0.13911 0.65716 0.89343 0.0
H95 H 0.00883 0.60385 0.89734 0.0
H96 H 0.19225 0.71526 0.87603 0.0
C97 C 0.18233 0.69117 0.86493 0.0
C98 C 0.06832 0.6428 0.86059 0.0
C99 C 0.03272 0.6235 0.87076 0.0
C100 C 0.10678 0.65568 0.8687 0.0
C101 C 0.10966 0.64871 0.88721 0.0
C102 C 0.07434 0.62942 0.8976 0.0
C103 C 0.0361 0.6174 0.88927 0.0
N104 N 0.14172 0.67334 0.85765 0.0
H105 H 0.00355 0.57894 0.44051 0.0
H106 H 0.95129 0.51942 0.38725 0.0
H107 H 0.05658 0.64169 0.3919 0.0
H108 H 0.89377 0.48473 0.40372 0.0
C109 C 0.90581 0.47963 0.41613 0.0
C110 C 0.00332 0.5798 0.42571 0.0
C111 C 0.03341 0.61456 0.41748 0.0
C112 C 0.97329 0.54561 0.41498 0.0
C113 C 0.97366 0.54606 0.39574 0.0
C114 C 0.00347 0.58082 0.38732 0.0
C115 C 0.03314 0.61496 0.3983 0.0
N116 N 0.94439 0.51063 0.42396 0.0
H117 H 0.51097 0.02486 0.79992 0.0
H118 H 0.53514 0.97845 0.74889 0.0
H119 H 0.51204 0.07948 0.7499 0.0
H120 H 0.50439 0.91825 0.76417 0.0
C121 C 0.51993 0.93016 0.77754 0.0
C122 C 0.51438 0.02597 0.7852 0.0
C123 C 0.51063 0.05557 0.77603 0.0
C124 C 0.5226 -0.0023 0.77551 0.0
C125 C 0.52754 -0.00064 0.75644 0.0
C126 C 0.5241 0.02903 0.74711 0.0
C127 C 0.51571 0.05707 0.75704 0.0
N128 N 0.52696 0.96882 0.78539 0.0
H129 H 0.47089 0.44355 0.14621 0.0
H130 H 0.53848 0.43716 0.0998 0.0
H131 H 0.45531 0.48259 0.09433 0.0
H132 H 0.54249 0.38461 0.11926 0.0
C133 C 0.55337 0.41078 0.12938 0.0
C134 C 0.47799 0.4479 0.13187 0.0
C135 C 0.46011 0.46485 0.12122 0.0
C136 C 0.506 0.43754 0.12427 0.0
C137 C 0.51614 0.44413 0.10573 0.0
C138 C 0.49836 0.4609 0.09489 0.0
C139 C 0.47015 0.47081 0.10274 0.0
N140 N 0.52487 0.42237 0.1358 0.0
C141 C 0.17265 0.51859 0.15644 0.0
C142 C 0.17771 0.55202 0.14686 0.0
C143 C 0.20423 0.50955 0.15747 0.0
C144 C 0.31566 0.55483 0.1526 0.0
H145 H 0.28899 0.44218 0.13942 0.0
C146 C 0.43393 0.51405 0.12511 0.0
C147 C 0.43102 0.47669 0.12919 0.0
C148 C 0.40455 0.52383 0.13109 0.0
C149 C 0.29693 0.47361 0.14353 0.0
H150 H 0.22019 0.60258 0.13113 0.0
H151 H 0.27512 0.58671 0.13294 0.0
H152 H 0.23403 0.45809 0.14265 0.0
H153 H 0.39605 0.42101 0.14339 0.0
H154 H 0.34474 0.4384 0.15413 0.0
H155 H 0.37857 0.57057 0.15313 0.0
C156 C 0.24684 0.56769 0.13974 0.0
C157 C 0.26543 0.48273 0.14533 0.0
C158 C 0.21521 0.57654 0.13857 0.0
C159 C 0.39907 0.45006 0.14007 0.0
C160 C 0.36955 0.45985 0.14608 0.0
C161 C 0.34714 0.5457 0.1509 0.0
C162 C 0.2416 0.534 0.14911 0.0
C163 C 0.27457 0.52359 0.14941 0.0
C164 C 0.3716 0.49653 0.14136 0.0
C165 C 0.33818 0.50518 0.14586 0.0
H166 H 0.14416 0.49912 0.163 0.0
H167 H 0.19948 0.48352 0.16486 0.0
H168 H 0.3235 0.58649 0.15609 0.0
H169 H 0.45859 0.53546 0.11697 0.0
H170 H 0.40685 0.5521 0.12704 0.0
C171 C 0.66014 0.19644 0.50322 0.0
C172 C 0.64793 0.1574 0.49436 0.0
C173 C 0.69342 0.2319 0.49708 0.0
C174 C 0.78379 0.27232 0.46815 0.0
H175 H 0.7533 0.35353 0.45771 0.0
C176 C 0.83807 0.41733 0.42036 0.0
C177 C 0.87946 0.4425 0.4259 0.0
C178 C 0.81239 0.38275 0.42977 0.0
C179 C 0.76222 0.33112 0.46055 0.0
H180 H 0.6634 0.12478 0.47313 0.0
H181 H 0.72176 0.18687 0.46251 0.0
H182 H 0.70598 0.2931 0.47356 0.0
H183 H 0.92697 0.45074 0.44525 0.0
H184 H 0.88203 0.38983 0.46158 0.0
H185 H 0.84 0.31046 0.45489 0.0
C186 C 0.70533 0.1899 0.47413 0.0
C187 C 0.73538 0.29679 0.46979 0.0
C188 C 0.67181 0.15436 0.48019 0.0
C189 C 0.89506 0.43201 0.44076 0.0
C190 C 0.86947 0.39707 0.45003 0.0
C191 C 0.81097 0.30707 0.45909 0.0
C192 C 0.71542 0.22907 0.48208 0.0
C193 C 0.7457 0.26686 0.47354 0.0
C194 C 0.82781 0.37241 0.44474 0.0
C195 C 0.80012 0.33646 0.455 0.0
H196 H 0.64273 0.19997 0.51429 0.0
H197 H 0.70101 0.26173 0.50363 0.0
H198 H 0.79245 0.24968 0.47089 0.0
H199 H 0.82544 0.42473 0.40888 0.0
H200 H 0.78045 0.36395 0.4253 0.0
C201 C 0.54174 0.67295 0.86261 0.0
C202 C 0.56412 0.65853 0.85227 0.0
C203 C 0.54314 0.70947 0.85868 0.0
C204 C 0.59553 0.80292 0.8329 0.0
H205 H 0.4849 0.77894 0.82161 0.0
C206 C 0.51057 0.86133 0.78269 0.0
C207 C 0.52846 0.90337 0.78833 0.0
C208 C 0.51747 0.83526 0.79295 0.0
C209 C 0.51593 0.78613 0.82482 0.0
H210 H 0.60875 0.67336 0.83102 0.0
H211 H 0.61123 0.73721 0.82426 0.0
H212 H 0.49525 0.72897 0.8369 0.0
H213 H 0.5686 0.95166 0.80878 0.0
H214 H 0.58137 0.90596 0.82657 0.0
H215 H 0.61599 0.85984 0.82033 0.0
C216 C 0.59246 0.72011 0.83531 0.0
C217 C 0.52188 0.7578 0.83372 0.0
C218 C 0.59084 0.68339 0.83912 0.0
C219 C 0.55415 0.91923 0.80421 0.0
C220 C 0.56163 0.89323 0.81433 0.0
C221 C 0.58953 0.83163 0.8242 0.0
C222 C 0.56723 0.73247 0.84449 0.0
C223 C 0.56171 0.7655 0.83752 0.0
C224 C 0.54296 0.85097 0.80887 0.0
C225 C 0.54965 0.82294 0.81971 0.0
H226 H 0.52109 0.65475 0.87293 0.0
H227 H 0.52379 0.71867 0.86611 0.0
H228 H 0.62652 0.80953 0.83568 0.0
H229 H 0.49081 0.84852 0.77045 0.0
H230 H 0.50311 0.80282 0.78838 0.0
C231 C 0.91245 0.58891 0.11735 0.0
C232 C 0.93812 0.60791 0.13308 0.0
C233 C 0.87259 0.58201 0.11694 0.0
C234 C 0.79209 0.56209 0.1494 0.0
H235 H 0.72907 0.54457 0.10452 0.0
C236 C 0.61383 0.47394 0.14451 0.0
C237 C 0.59766 0.44125 0.13078 0.0
C238 C 0.65566 0.5034 0.14528 0.0
C239 C 0.74635 0.5496 0.11718 0.0
H240 H 0.94353 0.63839 0.16004 0.0
H241 H 0.87375 0.62689 0.15922 0.0
H242 H 0.80381 0.58584 0.1047 0.0
H243 H 0.61193 0.41362 0.10709 0.0
H244 H 0.68503 0.46541 0.10827 0.0
H245 H 0.7344 0.52505 0.16172 0.0
C246 C 0.88428 0.61649 0.14735 0.0
C247 C 0.78909 0.57314 0.11731 0.0
C248 C 0.92437 0.6234 0.14776 0.0
C249 C 0.6238 0.4385 0.11783 0.0
C250 C 0.66541 0.46829 0.1184 0.0
C251 C 0.74929 0.53901 0.14933 0.0
C252 C 0.85739 0.59411 0.13224 0.0
C253 C 0.81256 0.57814 0.1332 0.0
C254 C 0.68171 0.50098 0.13213 0.0
C255 C 0.72619 0.53122 0.13303 0.0
H256 H 0.92226 0.57699 0.10571 0.0
H257 H 0.85286 0.56442 0.10511 0.0
H258 H 0.80905 0.56485 0.16185 0.0
H259 H 0.59421 0.47667 0.15468 0.0
H260 H 0.66759 0.52826 0.15602 0.0
C261 C 0.32033 0.93402 0.48038 0.0
C262 C 0.34522 0.93237 0.49419 0.0
C263 C 0.28168 0.89987 0.47572 0.0
C264 C 0.23065 0.78821 0.47484 0.0
H265 H 0.13397 0.79163 0.45983 0.0
C266 C 0.05653 0.66818 0.44394 0.0
C267 C 0.06612 0.64991 0.42879 0.0
C268 C 0.08772 0.70215 0.45432 0.0
C269 C 0.1606 0.79019 0.46418 0.0
H270 H 0.34769 0.89455 0.51482 0.0
H271 H 0.28039 0.83511 0.50661 0.0
H272 H 0.19272 0.85365 0.47471 0.0
H273 H 0.1155 0.65192 0.41283 0.0
H274 H 0.16997 0.71092 0.43105 0.0
H275 H 0.19921 0.72528 0.46383 0.0
C276 C 0.29104 0.86264 0.49927 0.0
C277 C 0.19422 0.82564 0.47256 0.0
C278 C 0.32956 0.89678 0.50398 0.0
C279 C 0.10733 0.66569 0.42436 0.0
C280 C 0.13844 0.69917 0.43486 0.0
C281 C 0.19731 0.75301 0.46631 0.0
C282 C 0.26726 0.86341 0.48473 0.0
C283 C 0.22979 0.82511 0.47772 0.0
C284 C 0.12895 0.7178 0.44989 0.0
C285 C 0.1623 0.75388 0.46061 0.0
H286 H 0.33134 0.96102 0.47263 0.0
H287 H 0.26409 0.90124 0.46438 0.0
H288 H 0.2578 0.78698 0.47847 0.0
H289 H 0.02491 0.65659 0.44755 0.0
H290 H 0.0797 0.71596 0.46589 0.0
C291 C 0.43869 0.32236 0.82756 0.0
C292 C 0.45984 0.34612 0.8437 0.0
C293 C 0.43519 0.2838 0.82339 0.0
C294 C 0.49694 0.23716 0.83133 0.0
H295 H 0.40924 0.13971 0.80477 0.0
C296 C 0.46766 0.07095 0.79767 0.0
C297 C 0.50132 0.08502 0.78618 0.0
C298 C 0.45808 0.09894 0.80665 0.0
C299 C 0.43377 0.16659 0.81236 0.0
H300 H 0.48954 0.34626 0.8691 0.0
H301 H 0.48299 0.279 0.86191 0.0
H302 H 0.39625 0.19381 0.81791 0.0
H303 H 0.55172 0.13895 0.77525 0.0
H304 H 0.5355 0.18795 0.79121 0.0
H305 H 0.53483 0.21088 0.82529 0.0
C306 C 0.47008 0.2905 0.85227 0.0
C307 C 0.42643 0.19752 0.81976 0.0
C308 C 0.47377 0.32897 0.85638 0.0
C309 C 0.52556 0.12742 0.784 0.0
C310 C 0.51641 0.15537 0.79318 0.0
C311 C 0.50435 0.20662 0.82378 0.0
C312 C 0.45262 0.26849 0.83535 0.0
C313 C 0.45814 0.23332 0.82914 0.0
C314 C 0.48252 0.14137 0.80451 0.0
C315 C 0.47308 0.17142 0.81398 0.0
H316 H 0.42757 0.33478 0.81755 0.0
H317 H 0.42161 0.26749 0.81023 0.0
H318 H 0.52218 0.26466 0.83824 0.0
H319 H 0.44838 0.0383 0.79942 0.0
H320 H 0.43188 0.08753 0.81538 0.0
C321 C 0.496 0.8824 0.50569 0.0
C322 C 0.52786 0.92042 0.50048 0.0
C323 C 0.50325 0.85045 0.50883 0.0
C324 C 0.5842 0.83338 0.52449 0.0
H325 H 0.50049 0.71875 0.51367 0.0
C326 C 0.53646 0.65639 0.54267 0.0
C327 C 0.54445 0.66384 0.56172 0.0
C328 C 0.54239 0.6883 0.53199 0.0
C329 C 0.52469 0.75048 0.51656 0.0
H330 H 0.59201 0.95429 0.49377 0.0
H331 H 0.60491 0.89803 0.49949 0.0
H332 H 0.49567 0.77251 0.4991 0.0
H333 H 0.56649 0.71053 0.58443 0.0
H334 H 0.5758 0.76616 0.56591 0.0
H335 H 0.61279 0.81132 0.54225 0.0
C336 C 0.5743 0.89323 0.50111 0.0
C337 C 0.52167 0.78133 0.50832 0.0
C338 C 0.56688 0.92526 0.49774 0.0
C339 C 0.56002 0.70404 0.56977 0.0
C340 C 0.56567 0.73594 0.55912 0.0
C341 C 0.58728 0.80245 0.53273 0.0
C342 C 0.54262 0.85573 0.50696 0.0
C343 C 0.55056 0.82316 0.51269 0.0
C344 C 0.55612 0.72825 0.54014 0.0
C345 C 0.55681 0.76072 0.52931 0.0
H346 H 0.46552 0.87761 0.50781 0.0
H347 H 0.47831 0.82221 0.51356 0.0
H348 H 0.60686 0.86537 0.52818 0.0
H349 H 0.52496 0.62579 0.536 0.0
H350 H 0.53544 0.68147 0.51737 0.0
C351 C 0.6911 0.56078 0.83228 0.0
C352 C 0.66276 0.52807 0.84227 0.0
C353 C 0.73145 0.56919 0.83096 0.0
C354 C 0.7986 0.52537 0.83698 0.0
H355 H 0.88243 0.63909 0.8498 0.0
C356 C 0.95799 0.57169 0.86614 0.0
C357 C 0.99186 0.60975 0.86224 0.0
C358 C 0.91877 0.56022 0.85959 0.0
C359 C 0.8596 0.60735 0.84578 0.0
H360 H 0.65425 0.47766 0.85814 0.0
H361 H 0.72477 0.49258 0.8559 0.0
H362 H 0.81135 0.62149 0.84584 0.0
H363 H 0.0115 0.66481 0.84771 0.0
H364 H 0.9429 0.64436 0.83591 0.0
H365 H 0.84679 0.5111 0.83734 0.0
C366 C 0.71564 0.5115 0.849 0.0
C367 C 0.81882 0.59726 0.84355 0.0
C368 C 0.67533 0.5032 0.85041 0.0
C369 C 0.98598 0.63525 0.85091 0.0
C370 C 0.94667 0.62371 0.8443 0.0
C371 C 0.83944 0.53549 0.83911 0.0
C372 C 0.74423 0.54494 0.83948 0.0
C373 C 0.78781 0.55604 0.83957 0.0
C374 C 0.91253 0.58647 0.8489 0.0
C375 C 0.87024 0.57645 0.844 0.0
H376 H 0.68238 0.58042 0.82575 0.0
H377 H 0.75279 0.59493 0.8234 0.0
H378 H 0.77533 0.49343 0.83363 0.0
H379 H 0.96169 0.55106 0.87458 0.0
H380 H 0.89314 0.53152 0.86356 0.0
C381 C 0.16795 0.76594 0.16373 0.0
C382 C 0.17012 0.74016 0.14947 0.0
C383 C 0.20236 0.80426 0.16898 0.0
C384 C 0.31382 0.85261 0.16944 0.0
H385 H 0.31262 0.95132 0.18763 0.0
C386 C 0.43484 0.02815 0.20182 0.0
C387 C 0.45437 0.01863 0.21542 0.0
C388 C 0.40054 -0.00331 0.19185 0.0
C389 C 0.31348 0.92411 0.18241 0.0
H390 H 0.20911 0.73596 0.12853 0.0
H391 H 0.2688 0.80279 0.13761 0.0
H392 H 0.25079 0.89319 0.17257 0.0
H393 H 0.45396 0.96888 0.22901 0.0
H394 H 0.39415 0.91402 0.21165 0.0
H395 H 0.37614 0.88306 0.17949 0.0
C396 C 0.2408 0.793 0.14498 0.0
C397 C 0.27806 0.89078 0.17393 0.0
C398 C 0.20651 0.75476 0.13975 0.0
C399 C 0.4393 0.97712 0.21871 0.0
C400 C 0.40532 0.94573 0.20866 0.0
C401 C 0.34903 0.88572 0.17799 0.0
C402 C 0.23953 0.81752 0.16005 0.0
C403 C 0.27776 0.85451 0.16755 0.0
C404 C 0.38552 0.95517 0.19517 0.0
C405 C 0.34906 0.92155 0.18481 0.0
H406 H 0.14038 0.75569 0.17147 0.0
H407 H 0.20048 0.82238 0.1807 0.0
H408 H 0.31447 0.82492 0.16489 0.0
H409 H 0.4457 0.05995 0.1991 0.0
H410 H 0.38597 0.00479 0.18147 0.0
C411 C 0.4737 0.17722 0.53085 0.0
C412 C 0.46008 0.15346 0.514 0.0
C413 C 0.46314 0.20713 0.53554 0.0
C414 C 0.43651 0.27702 0.51571 0.0
H415 H 0.41223 0.29357 0.56612 0.0
C416 C 0.47662 0.43502 0.55002 0.0
C417 C 0.45203 0.43749 0.56395 0.0
C418 C 0.46724 0.39685 0.54144 0.0
C419 C 0.41813 0.28907 0.55189 0.0
H420 H 0.42431 0.14228 0.48889 0.0
H421 H 0.40619 0.19534 0.49709 0.0
H422 H 0.41396 0.23137 0.55624 0.0
H423 H 0.39677 0.40225 0.57892 0.0
H424 H 0.38034 0.33541 0.5639 0.0
H425 H 0.44177 0.33536 0.51151 0.0
C426 C 0.425 0.19047 0.50663 0.0
C427 C 0.41956 0.25362 0.54629 0.0
C428 C 0.43529 0.16011 0.50198 0.0
C429 C 0.41667 0.40119 0.56845 0.0
C430 C 0.40724 0.36298 0.55984 0.0
C431 C 0.43516 0.31262 0.52132 0.0
C432 C 0.43886 0.21424 0.52347 0.0
C433 C 0.43015 0.24792 0.52834 0.0
C434 C 0.43304 0.36029 0.54658 0.0
C435 C 0.42726 0.31962 0.53963 0.0
H436 H 0.49273 0.17288 0.54047 0.0
H437 H 0.47488 0.22545 0.54848 0.0
H438 H 0.4448 0.27345 0.50179 0.0
H439 H 0.50433 0.46236 0.54638 0.0
H440 H 0.48813 0.39586 0.53149 0.0
C441 C 0.35035 0.48518 0.84356 0.0
C442 C 0.37559 0.4918 0.85903 0.0
C443 C 0.3224 0.49938 0.84419 0.0
C444 C 0.32152 0.58716 0.86541 0.0
H445 H 0.2072 0.53669 0.84989 0.0
C446 C 0.23424 0.67468 0.87589 0.0
C447 C 0.20417 0.66793 0.86275 0.0
C448 C 0.25275 0.65053 0.87494 0.0
C449 C 0.23933 0.55139 0.854 0.0
H450 H 0.38768 0.51345 0.88784 0.0
H451 H 0.33914 0.53814 0.88885 0.0
H452 H 0.24013 0.49463 0.84953 0.0
H453 H 0.17049 0.63165 0.83797 0.0
H454 H 0.20401 0.59043 0.83583 0.0
H455 H 0.32182 0.64402 0.8693 0.0
C456 C 0.34144 0.52273 0.87621 0.0
C457 C 0.25795 0.5272 0.8539 0.0
C458 C 0.36913 0.50852 0.87562 0.0
C459 C 0.19355 0.63732 0.84833 0.0
C460 C 0.21248 0.61348 0.84722 0.0
C461 C 0.30324 0.61137 0.86524 0.0
C462 C 0.31949 0.52024 0.86028 0.0
C463 C 0.29901 0.54486 0.85991 0.0
C464 C 0.24208 0.61955 0.86061 0.0
C465 C 0.26176 0.59376 0.8598 0.0
H466 H 0.35466 0.47238 0.83059 0.0
H467 H 0.30562 0.4971 0.83175 0.0
H468 H 0.35357 0.60165 0.8697 0.0
H469 H 0.24257 0.69783 0.88724 0.0
H470 H 0.27481 0.65563 0.8857 0.0
C471 C 0.90708 0.42222 0.13836 0.0
C472 C 0.94645 0.43325 0.14502 0.0
C473 C 0.87233 0.38843 0.1448 0.0
C474 C 0.80168 0.30929 0.15774 0.0
H475 H 0.8094 0.30388 0.21028 0.0
C476 C 0.66484 0.19336 0.19863 0.0
C477 C 0.65934 0.20822 0.21593 0.0
C478 C 0.70022 0.21708 0.18898 0.0
C479 C 0.80661 0.30512 0.19562 0.0
H480 H 0.98048 0.41502 0.1622 0.0
H481 H 0.92002 0.3553 0.17294 0.0
H482 H 0.87012 0.34982 0.1942 0.0
H483 H 0.6861 0.25935 0.23667 0.0
H484 H 0.74748 0.3013 0.21971 0.0
H485 H 0.73755 0.26603 0.15943 0.0
C486 C 0.91583 0.37361 0.16327 0.0
C487 C 0.84166 0.33098 0.18631 0.0
C488 C 0.95052 0.40765 0.15699 0.0
C489 C 0.6897 0.2472 0.22337 0.0
C490 C 0.72497 0.27102 0.2137 0.0
C491 C 0.76649 0.28353 0.1671 0.0
C492 C 0.87627 0.36468 0.15789 0.0
C493 C 0.8396 0.33382 0.16728 0.0
C494 C 0.73076 0.25619 0.19641 0.0
C495 C 0.76844 0.28162 0.18621 0.0
H496 H 0.90284 0.44134 0.12916 0.0
H497 H 0.84241 0.38267 0.14041 0.0
H498 H 0.79903 0.31039 0.14307 0.0
H499 H 0.64206 0.16325 0.19257 0.0
H500 H 0.70389 0.20451 0.17582 0.0
C501 C 0.10798 0.6121 0.06298 0.0
C502 C 0.07294 0.58086 0.07081 0.0
C503 C 0.10973 0.61472 0.04398 0.0
C504 C 0.04147 0.58192 0.00254 0.0
H505 H 0.14304 0.62018 0.97687 0.0
C506 C 0.0468 0.58444 0.92396 0.0
C507 C 0.07698 0.62143 0.91707 0.0
C508 C 0.04777 0.57767 0.94245 0.0
C509 C 0.11453 0.60966 0.9839 0.0
H510 H 0.013 0.52678 0.06475 0.0
H511 H 0.01653 0.53063 0.03162 0.0
H512 H 0.14189 0.61035 0.00962 0.0
H513 H 0.13243 0.67989 0.92422 0.0
H514 H 0.13441 0.66766 0.95652 0.0
H515 H 0.0141 0.58095 0.97678 0.0
C516 C 0.04221 0.55386 0.04017 0.0
C517 C 0.11384 0.60411 0.00266 0.0
C518 C 0.04029 0.55147 0.05918 0.0
C519 C 0.10892 0.65092 0.92902 0.0
C520 C 0.11005 0.64397 0.94752 0.0
C521 C 0.04209 0.5871 0.98378 0.0
C522 C 0.07665 0.58594 0.03235 0.0
C523 C 0.07732 0.59036 0.01224 0.0
C524 C 0.07914 0.60752 0.95446 0.0
C525 C 0.07864 0.60119 0.97429 0.0
H526 H 0.13363 0.63535 0.07155 0.0
H527 H 0.13653 0.64015 0.0385 0.0
H528 H 0.013 0.57217 0.00949 0.0
H529 H 0.0223 0.56064 0.91506 0.0
H530 H 0.02391 0.549 0.94736 0.0
C531 C 0.51438 0.02321 0.41949 0.0
C532 C 0.50077 0.04564 0.43061 0.0
C533 C 0.51726 0.02703 0.40057 0.0
C534 C 0.53527 0.09822 0.36607 0.0
H535 H 0.47908 0.0016 0.33184 0.0
C536 C 0.52891 0.11177 0.28795 0.0
C537 C 0.52706 0.08003 0.27604 0.0
C538 C 0.5268 0.10815 0.3069 0.0
C539 C 0.49571 0.02891 0.34114 0.0
H540 H 0.47977 0.08984 0.43066 0.0
H541 H 0.48593 0.09727 0.3976 0.0
H542 H 0.47334 0.99372 0.36471 0.0
H543 H 0.52331 0.02054 0.27434 0.0
H544 H 0.5219 0.01496 0.3074 0.0
H545 H 0.55901 0.13347 0.34273 0.0
C546 C 0.49387 0.07645 0.40357 0.0
C547 C 0.49207 0.0243 0.35998 0.0
C548 C 0.49013 0.07198 0.42243 0.0
C549 C 0.52445 0.04524 0.28334 0.0
C550 C 0.52322 0.04195 0.30227 0.0
C551 C 0.53963 0.10281 0.34723 0.0
C552 C 0.50745 0.05401 0.3925 0.0
C553 C 0.51162 0.05892 0.37258 0.0
C554 C 0.52361 0.073 0.31433 0.0
C555 C 0.51975 0.06822 0.33447 0.0
H556 H 0.52271 0.00263 0.4254 0.0
H557 H 0.52791 0.00951 0.39227 0.0
H558 H 0.55095 0.12533 0.37559 0.0
H559 H 0.53057 0.13872 0.28255 0.0
H560 H 0.52654 0.13243 0.31563 0.0
C561 C 0.46309 0.47364 0.76991 0.0
C562 C 0.49941 0.50224 0.7798 0.0
C563 C 0.45957 0.47518 0.75095 0.0
C564 C 0.52243 0.51552 0.71027 0.0
H565 H 0.42201 0.50048 0.68825 0.0
C566 C 0.51323 0.54763 0.63506 0.0
C567 C 0.47843 0.51809 0.62454 0.0
C568 C 0.51462 0.54651 0.65411 0.0
C569 C 0.45013 0.50441 0.69418 0.0
H570 H 0.56048 0.55499 0.77742 0.0
H571 H 0.55416 0.55784 0.74458 0.0
H572 H 0.42656 0.49563 0.72124 0.0
H573 H 0.41715 0.46528 0.62585 0.0
H574 H 0.41976 0.46303 0.65908 0.0
H575 H 0.54605 0.52431 0.68329 0.0
C576 C 0.52858 0.53383 0.75139 0.0
C577 C 0.45271 0.50153 0.71307 0.0
C578 C 0.5321 0.53231 0.77028 0.0
C579 C 0.44457 0.48821 0.63356 0.0
C580 C 0.44592 0.48715 0.65261 0.0
C581 C 0.51987 0.51845 0.69143 0.0
C582 C 0.49233 0.5053 0.74148 0.0
C583 C 0.48897 0.50722 0.72134 0.0
C584 C 0.48121 0.51589 0.66307 0.0
C585 C 0.48377 0.51309 0.68317 0.0
H586 H 0.43731 0.45005 0.7768 0.0
H587 H 0.43138 0.45249 0.74368 0.0
H588 H 0.55055 0.51932 0.71614 0.0
H589 H 0.53993 0.57085 0.62852 0.0
H590 H 0.54204 0.56945 0.66181 0.0
C591 C 0.53849 0.07666 0.58235 0.0
C592 C 0.51267 0.04006 0.57155 0.0
C593 C 0.54289 0.07602 0.60127 0.0
C594 C 0.53004 0.00704 0.63741 0.0
H595 H 0.52431 0.09025 0.66953 0.0
C596 C 0.50811 0.99399 0.71539 0.0
C597 C 0.52832 0.03042 0.72698 0.0
C598 C 0.50957 0.99564 0.69635 0.0
C599 C 0.52665 0.06717 0.66077 0.0
H600 H 0.47149 0.97398 0.57218 0.0
H601 H 0.47912 0.97299 0.60521 0.0
H602 H 0.52036 0.0924 0.63641 0.0
H603 H 0.56752 0.09692 0.72778 0.0
H604 H 0.5705 0.09983 0.69454 0.0
H605 H 0.5362 0.98172 0.66178 0.0
C606 C 0.49618 0.00211 0.59899 0.0
C607 C 0.5243 0.06838 0.64179 0.0
C608 C 0.4916 0.00276 0.58008 0.0
C609 C 0.5511 0.06841 0.71916 0.0
C610 C 0.55272 0.07006 0.70014 0.0
C611 C 0.53256 0.00592 0.65641 0.0
C612 C 0.52175 0.03875 0.60978 0.0
C613 C 0.52569 0.03817 0.62991 0.0
C614 C 0.53143 0.03377 0.68851 0.0
C615 C 0.53062 0.03582 0.66831 0.0
H616 H 0.55524 0.10592 0.57622 0.0
H617 H 0.56312 0.10468 0.60922 0.0
H618 H 0.53176 0.98368 0.62858 0.0
H619 H 0.48999 0.96432 0.72105 0.0
H620 H 0.49241 0.96716 0.68779 0.0
C621 C 0.53184 0.5328 0.93308 0.0
C622 C 0.5349 0.50375 0.92107 0.0
C623 C 0.53256 0.53037 0.95203 0.0
C624 C 0.55755 0.48171 0.98875 0.0
H625 H 0.48097 0.50315 0.01593 0.0
C626 C 0.51254 0.43905 0.06371 0.0
C627 C 0.50904 0.46835 0.07538 0.0
C628 C 0.51962 0.44499 0.04505 0.0
C629 C 0.50284 0.49751 0.00857 0.0
H630 H 0.54211 0.44987 0.91961 0.0
H631 H 0.54236 0.44503 0.95269 0.0
H632 H 0.48596 0.5105 0.98309 0.0
H633 H 0.51271 0.528 0.07683 0.0
H634 H 0.52449 0.53801 0.04431 0.0
H635 H 0.57354 0.46774 0.01438 0.0
C636 C 0.54013 0.47016 0.94747 0.0
C637 C 0.50583 0.50184 0.98974 0.0
C638 C 0.53978 0.47282 0.92848 0.0
C639 C 0.51425 0.50435 0.06813 0.0
C640 C 0.52109 0.51016 0.04952 0.0
C641 C 0.55432 0.47706 0.00763 0.0
C642 C 0.53592 0.49857 0.95947 0.0
C643 C 0.53333 0.49419 0.97958 0.0
C644 C 0.52316 0.48025 0.03773 0.0
C645 C 0.52704 0.48511 0.01773 0.0
H646 H 0.5285 0.5573 0.92784 0.0
H647 H 0.53019 0.55334 0.96087 0.0
H648 H 0.57936 0.47598 0.9814 0.0
H649 H 0.5084 0.41086 0.06885 0.0
H650 H 0.52083 0.4213 0.03625 0.0
C651 C 0.04483 0.5587 0.22193 0.0
C652 C 0.04769 0.59106 0.21221 0.0
C653 C 0.03866 0.5581 0.24077 0.0
C654 C 0.0514 0.62427 0.28224 0.0
H655 H 0.97007 0.52186 0.30161 0.0
C656 C 0.01035 0.61598 0.35849 0.0
C657 C 0.00467 0.5812 0.36707 0.0
C658 C 0.01355 0.61722 0.33947 0.0
C659 C -0.00679 0.55059 0.29647 0.0
H660 H 0.04694 0.64856 0.21476 0.0
H661 H 0.03645 0.64759 0.24778 0.0
H662 H 0.98061 0.52447 0.26869 0.0
H663 H -0.00212 0.52047 0.36253 0.0
H664 H 0.00405 0.52276 0.32936 0.0
H665 H 0.06468 0.65025 0.31 0.0
C666 C 0.039 0.62272 0.24074 0.0
C667 C -0.00083 0.55207 0.27761 0.0
C668 C 0.04484 0.62317 0.22183 0.0
C669 C 0.0017 0.54745 0.35625 0.0
C670 C 0.00518 0.54878 0.33724 0.0
C671 C 0.04566 0.62272 0.30113 0.0
C672 C 0.03551 0.58999 0.25035 0.0
C673 C 0.02847 0.58886 0.27032 0.0
C674 C 0.01142 0.58381 0.32863 0.0
C675 C 0.01662 0.5858 0.30848 0.0
H676 H 0.04687 0.53345 0.21498 0.0
H677 H 0.03662 0.53276 0.24788 0.0
H678 H 0.0745 0.65291 0.27701 0.0
H679 H 0.01225 0.64223 0.36651 0.0
H680 H 0.01758 0.64435 0.33327 0.0
loop_
_geom_bond_atom_site_label_1
_geom_bond_atom_site_label_2
_geom_bond_distance
_geom_bond_site_symmetry_2
_ccdc_geom_bond_type
O0 Zn1 1.953 . S
O0 C16 1.225 . S
Zn1 O0 1.953 . S
Zn1 O2 1.949 . S
Zn1 O8 1.919 . S
Zn1 O13 1.924 . S
O2 Zn1 1.949 . S
O2 Zn3 1.923 . S
O2 Zn4 1.950 . S
O2 Zn5 1.945 . S
Zn3 O2 1.923 . S
Zn3 O6 1.933 . S
Zn3 O9 1.941 1_455 S
Zn3 O10 1.965 1_455 S
Zn4 O2 1.950 . S
Zn4 O11 1.938 . S
Zn4 O12 1.906 . S
Zn4 O22 1.953 . S
Zn5 O2 1.945 . S
Zn5 O7 1.932 . S
Zn5 O14 1.977 . S
Zn5 O15 1.910 . S
O6 Zn3 1.933 . S
O6 C17 1.226 . S
O7 Zn5 1.932 . S
O7 C17 1.307 . S
O8 Zn1 1.919 . S
O8 C19 1.253 1_455 S
O9 Zn3 1.941 1_655 S
O9 C19 1.283 . S
O10 Zn3 1.965 1_655 S
O10 C18 1.303 . S
O11 Zn4 1.938 . S
O11 C18 1.247 1_455 S
O12 Zn4 1.906 . S
O12 C20 1.304 . S
O13 Zn1 1.924 . S
O13 C21 1.311 . S
O14 Zn5 1.977 . S
O14 C20 1.272 . S
O15 Zn5 1.910 . S
O15 C21 1.231 . S
C16 O0 1.225 . S
C16 O22 1.298 . S
C17 O6 1.226 . S
C17 O7 1.307 . S
C18 O10 1.303 . S
C18 O11 1.247 1_655 S
C19 O8 1.253 1_655 S
C19 O9 1.283 . S
C20 O12 1.304 . S
C20 O14 1.272 . S
C21 O13 1.311 . S
C21 O15 1.231 . S
O22 Zn4 1.953 . S
O22 C16 1.298 . S
O23 Zn24 1.953 . S
O23 C39 1.225 . S
Zn24 O23 1.953 . S
Zn24 O25 1.949 . S
Zn24 O31 1.919 . S
Zn24 O36 1.924 . S
O25 Zn24 1.949 . S
O25 Zn26 1.923 . S
O25 Zn27 1.950 . S
O25 Zn28 1.963 . S
Zn26 O25 1.923 . S
Zn26 O29 1.933 . S
Zn26 O32 1.941 . S
Zn26 O33 1.965 . S
Zn27 O25 1.950 . S
Zn27 O34 1.938 . S
Zn27 O35 1.906 1_545 S
Zn27 O45 1.953 . S
Zn28 O25 1.963 . S
Zn28 O30 1.936 . S
Zn28 O37 1.950 1_545 S
Zn28 O38 1.908 1_545 S
O29 Zn26 1.933 . S
O29 C40 1.226 . S
O30 Zn28 1.936 . S
O30 C40 1.307 . S
O31 Zn24 1.919 . S
O31 C42 1.253 . S
O32 Zn26 1.941 . S
O32 C42 1.283 . S
O33 Zn26 1.965 . S
O33 C41 1.303 . S
O34 Zn27 1.938 . S
O34 C41 1.247 . S
O35 Zn27 1.906 1_565 S
O35 C43 1.304 . S
O36 Zn24 1.924 . S
O36 C44 1.311 1_545 S
O37 Zn28 1.950 1_565 S
O37 C43 1.272 . S
O38 Zn28 1.908 1_565 S
O38 C44 1.231 . S
C39 O23 1.225 . S
C39 O45 1.298 . S
C40 O29 1.226 . S
C40 O30 1.307 . S
C41 O33 1.303 . S
C41 O34 1.247 . S
C42 O31 1.253 . S
C42 O32 1.283 . S
C43 O35 1.304 . S
C43 O37 1.272 . S
C44 O36 1.311 1_565 S
C44 O38 1.231 . S
O45 Zn27 1.953 . S
O45 C39 1.298 . S
O46 Zn47 1.953 . S
O46 C62 1.225 . S
Zn47 O46 1.953 . S
Zn47 O48 1.949 . S
Zn47 O54 1.919 . S
Zn47 O59 1.924 . S
O48 Zn47 1.949 . S
O48 Zn49 1.923 . S
O48 Zn50 1.950 . S
O48 Zn51 1.945 . S
Zn49 O48 1.923 . S
Zn49 O52 1.933 . S
Zn49 O55 1.941 . S
Zn49 O56 1.965 . S
Zn50 O48 1.950 . S
Zn50 O57 1.938 . S
Zn50 O58 1.906 . S
Zn50 O68 1.953 . S
Zn51 O48 1.945 . S
Zn51 O53 1.932 . S
Zn51 O60 1.977 . S
Zn51 O61 1.910 . S
O52 Zn49 1.933 . S
O52 C63 1.226 . S
O53 Zn51 1.932 . S
O53 C63 1.307 . S
O54 Zn47 1.919 . S
O54 C65 1.253 . S
O55 Zn49 1.941 . S
O55 C65 1.283 . S
O56 Zn49 1.965 . S
O56 C64 1.303 . S
O57 Zn50 1.938 . S
O57 C64 1.247 . S
O58 Zn50 1.906 . S
O58 C66 1.304 . S
O59 Zn47 1.924 . S
O59 C67 1.311 . S
O60 Zn51 1.977 . S
O60 C66 1.272 . S
O61 Zn51 1.910 . S
O61 C67 1.231 . S
C62 O46 1.225 . S
C62 O68 1.298 . S
C63 O52 1.226 . S
C63 O53 1.307 . S
C64 O56 1.303 . S
C64 O57 1.247 . S
C65 O54 1.253 . S
C65 O55 1.283 . S
C66 O58 1.304 . S
C66 O60 1.272 . S
C67 O59 1.311 . S
C67 O61 1.231 . S
O68 Zn50 1.953 . S
O68 C62 1.298 . S
H69 C74 0.930 . S
H70 C77 0.930 . S
H71 C79 0.930 . S
H72 C73 1.016 . S
C73 H72 1.016 . S
C73 N80 1.286 . S
C74 H69 0.930 . S
C74 C75 1.397 . S
C74 C76 1.361 . S
C75 C74 1.397 . S
C75 C79 1.390 . S
C76 C74 1.361 . S
C76 C77 1.393 . S
C76 N80 1.413 . S
C77 H70 0.930 . S
C77 C76 1.393 . S
C77 C78 1.399 . S
C78 C77 1.399 . S
C78 C79 1.381 . S
C79 H71 0.930 . S
C79 C75 1.390 . S
C79 C78 1.381 . S
N80 C73 1.286 . S
N80 C76 1.413 . S
H81 C86 0.930 . S
H82 C89 0.930 . S
H83 C91 0.930 . S
H84 C85 1.016 . S
C85 H84 1.016 . S
C85 N92 1.286 . S
C86 H81 0.930 . S
C86 C87 1.397 . S
C86 C88 1.361 . S
C87 C86 1.397 . S
C87 C91 1.390 . S
C88 C86 1.361 . S
C88 C89 1.393 . S
C88 N92 1.413 . S
C89 H82 0.930 . S
C89 C88 1.393 . S
C89 C90 1.399 . S
C90 C89 1.399 . S
C90 C91 1.381 . S
C91 H83 0.930 . S
C91 C87 1.390 . S
C91 C90 1.381 . S
N92 C85 1.286 . S
N92 C88 1.413 . S
H93 C98 0.930 . S
H94 C101 0.930 . S
H95 C103 0.930 1_655 S
H96 C97 1.016 . S
C97 H96 1.016 . S
C97 N104 1.286 . S
C98 H93 0.930 . S
C98 C99 1.397 1_455 S
C98 C100 1.361 . S
C99 C98 1.397 1_655 S
C99 C103 1.390 1_655 S
C100 C98 1.361 . S
C100 C101 1.393 . S
C100 N104 1.413 . S
C101 H94 0.930 . S
C101 C100 1.393 . S
C101 C102 1.399 . S
C102 C101 1.399 . S
C102 C103 1.381 . S
C103 H95 0.930 1_455 S
C103 C99 1.390 1_455 S
C103 C102 1.381 . S
N104 C97 1.286 . S
N104 C100 1.413 . S
H105 C110 0.930 . S
H106 C113 0.938 . S
H107 C115 0.930 . S
H108 C109 1.016 . S
C109 H108 1.016 . S
C109 N116 1.286 . S
C110 H105 0.930 . S
C110 C111 1.397 . S
C110 C112 1.361 . S
C111 C110 1.397 . S
C111 C115 1.390 . S
C112 C110 1.361 . S
C112 C113 1.392 1_455 S
C112 N116 1.413 1_455 S
C113 H106 0.938 . S
C113 C112 1.392 1_655 S
C113 C114 1.393 1_655 S
C114 C113 1.393 1_455 S
C114 C115 1.381 . S
C115 H107 0.930 . S
C115 C111 1.390 . S
C115 C114 1.381 . S
N116 C109 1.286 . S
N116 C112 1.413 1_655 S
H117 C122 0.930 . S
H118 C125 0.930 1_565 S
H119 C127 0.930 . S
H120 C121 1.016 . S
C121 H120 1.016 . S
C121 N128 1.286 . S
C122 H117 0.930 . S
C122 C123 1.397 . S
C122 C124 1.361 . S
C123 C122 1.397 . S
C123 C127 1.390 . S
C124 C122 1.361 . S
C124 C125 1.393 . S
C124 N128 1.413 1_545 S
C125 H118 0.930 1_545 S
C125 C124 1.393 . S
C125 C126 1.399 . S
C126 C125 1.399 . S
C126 C127 1.381 . S
C127 H119 0.930 . S
C127 C123 1.390 . S
C127 C126 1.381 . S
N128 C121 1.286 . S
N128 C124 1.413 1_565 S
H129 C134 0.930 . S
H130 C137 0.930 . S
H131 C139 0.930 . S
H132 C133 1.016 . S
C133 H132 1.016 . S
C133 N140 1.286 . S
C134 H129 0.930 . S
C134 C135 1.397 . S
C134 C136 1.361 . S
C135 C134 1.397 . S
C135 C139 1.390 . S
C136 C134 1.361 . S
C136 C137 1.393 . S
C136 N140 1.413 . S
C137 H130 0.930 . S
C137 C136 1.393 . S
C137 C138 1.399 . S
C138 C137 1.399 . S
C138 C139 1.381 . S
C139 H131 0.930 . S
C139 C135 1.390 . S
C139 C138 1.381 . S
N140 C133 1.286 . S
N140 C136 1.413 . S
C141 C142 1.349 . S
C141 C143 1.327 . S
C141 H166 0.950 . S
C142 C141 1.349 . S
C142 C158 1.349 . S
C143 C141 1.327 . S
C143 C162 1.429 . S
C143 H167 0.950 . S
C144 C161 1.574 . S
C144 C163 1.368 . S
C144 H168 0.949 . S
H145 C149 0.949 . S
C146 C147 1.349 . S
C146 C148 1.327 . S
C146 H169 0.950 . S
C147 C146 1.349 . S
C147 C159 1.349 . S
C148 C146 1.327 . S
C148 C164 1.429 . S
C148 H170 0.950 . S
C149 H145 0.949 . S
C149 C157 1.574 . S
C149 C165 1.368 . S
H150 C158 0.950 . S
H151 C156 0.950 . S
H152 C157 0.949 . S
H153 C159 0.950 . S
H154 C160 0.950 . S
H155 C161 0.949 . S
C156 H151 0.950 . S
C156 C158 1.327 . S
C156 C162 1.429 . S
C157 C149 1.574 . S
C157 H152 0.949 . S
C157 C163 1.368 . S
C158 C142 1.349 . S
C158 H150 0.950 . S
C158 C156 1.327 . S
C159 C147 1.349 . S
C159 H153 0.950 . S
C159 C160 1.327 . S
C160 H154 0.950 . S
C160 C159 1.327 . S
C160 C164 1.429 . S
C161 C144 1.574 . S
C161 H155 0.949 . S
C161 C165 1.368 . S
C162 C143 1.429 . S
C162 C156 1.429 . S
C162 C163 1.523 . S
C163 C144 1.368 . S
C163 C157 1.368 . S
C163 C162 1.523 . S
C164 C148 1.429 . S
C164 C160 1.429 . S
C164 C165 1.523 . S
C165 C149 1.368 . S
C165 C161 1.368 . S
C165 C164 1.523 . S
H166 C141 0.950 . S
H167 C143 0.950 . S
H168 C144 0.949 . S
H169 C146 0.950 . S
H170 C148 0.950 . S
C171 C172 1.349 . S
C171 C173 1.327 . S
C171 H196 0.950 . S
C172 C171 1.349 . S
C172 C188 1.349 . S
C173 C171 1.327 . S
C173 C192 1.429 . S
C173 H197 0.950 . S
C174 C191 1.574 . S
C174 C193 1.368 . S
C174 H198 0.949 . S
H175 C179 0.949 . S
C176 C177 1.349 . S
C176 C178 1.327 . S
C176 H199 0.950 . S
C177 C176 1.349 . S
C177 C189 1.349 . S
C178 C176 1.327 . S
C178 C194 1.429 . S
C178 H200 0.950 . S
C179 H175 0.949 . S
C179 C187 1.574 . S
C179 C195 1.368 . S
H180 C188 0.950 . S
H181 C186 0.950 . S
H182 C187 0.949 . S
H183 C189 0.950 . S
H184 C190 0.950 . S
H185 C191 0.949 . S
C186 H181 0.950 . S
C186 C188 1.327 . S
C186 C192 1.429 . S
C187 C179 1.574 . S
C187 H182 0.949 . S
C187 C193 1.368 . S
C188 C172 1.349 . S
C188 H180 0.950 . S
C188 C186 1.327 . S
C189 C177 1.349 . S
C189 H183 0.950 . S
C189 C190 1.327 . S
C190 H184 0.950 . S
C190 C189 1.327 . S
C190 C194 1.429 . S
C191 C174 1.574 . S
C191 H185 0.949 . S
C191 C195 1.368 . S
C192 C173 1.429 . S
C192 C186 1.429 . S
C192 C193 1.523 . S
C193 C174 1.368 . S
C193 C187 1.368 . S
C193 C192 1.523 . S
C194 C178 1.429 . S
C194 C190 1.429 . S
C194 C195 1.523 . S
C195 C179 1.368 . S
C195 C191 1.368 . S
C195 C194 1.523 . S
H196 C171 0.950 . S
H197 C173 0.950 . S
H198 C174 0.949 . S
H199 C176 0.950 . S
H200 C178 0.950 . S
C201 C202 1.349 . S
C201 C203 1.327 . S
C201 H226 0.950 . S
C202 C201 1.349 . S
C202 C218 1.349 . S
C203 C201 1.327 . S
C203 C222 1.429 . S
C203 H227 0.950 . S
C204 C221 1.574 . S
C204 C223 1.368 . S
C204 H228 0.949 . S
H205 C209 0.949 . S
C206 C207 1.349 . S
C206 C208 1.327 . S
C206 H229 0.950 . S
C207 C206 1.349 . S
C207 C219 1.349 . S
C208 C206 1.327 . S
C208 C224 1.429 . S
C208 H230 0.950 . S
C209 H205 0.949 . S
C209 C217 1.574 . S
C209 C225 1.368 . S
H210 C218 0.950 . S
H211 C216 0.950 . S
H212 C217 0.949 . S
H213 C219 0.950 . S
H214 C220 0.950 . S
H215 C221 0.949 . S
C216 H211 0.950 . S
C216 C218 1.327 . S
C216 C222 1.429 . S
C217 C209 1.574 . S
C217 H212 0.949 . S
C217 C223 1.368 . S
C218 C202 1.349 . S
C218 H210 0.950 . S
C218 C216 1.327 . S
C219 C207 1.349 . S
C219 H213 0.950 . S
C219 C220 1.327 . S
C220 H214 0.950 . S
C220 C219 1.327 . S
C220 C224 1.429 . S
C221 C204 1.574 . S
C221 H215 0.949 . S
C221 C225 1.368 . S
C222 C203 1.429 . S
C222 C216 1.429 . S
C222 C223 1.523 . S
C223 C204 1.368 . S
C223 C217 1.368 . S
C223 C222 1.523 . S
C224 C208 1.429 . S
C224 C220 1.429 . S
C224 C225 1.523 . S
C225 C209 1.368 . S
C225 C221 1.368 . S
C225 C224 1.523 . S
H226 C201 0.950 . S
H227 C203 0.950 . S
H228 C204 0.949 . S
H229 C206 0.950 . S
H230 C208 0.950 . S
C231 C232 1.349 . S
C231 C233 1.327 . S
C231 H256 0.950 . S
C232 C231 1.349 . S
C232 C248 1.349 . S
C233 C231 1.327 . S
C233 C252 1.429 . S
C233 H257 0.950 . S
C234 C251 1.574 . S
C234 C253 1.368 . S
C234 H258 0.949 . S
H235 C239 0.949 . S
C236 C237 1.349 . S
C236 C238 1.327 . S
C236 H259 0.950 . S
C237 C236 1.349 . S
C237 C249 1.349 . S
C238 C236 1.327 . S
C238 C254 1.429 . S
C238 H260 0.950 . S
C239 H235 0.949 . S
C239 C247 1.574 . S
C239 C255 1.368 . S
H240 C248 0.950 . S
H241 C246 0.950 . S
H242 C247 0.949 . S
H243 C249 0.950 . S
H244 C250 0.950 . S
H245 C251 0.949 . S
C246 H241 0.950 . S
C246 C248 1.327 . S
C246 C252 1.429 . S
C247 C239 1.574 . S
C247 H242 0.949 . S
C247 C253 1.368 . S
C248 C232 1.349 . S
C248 H240 0.950 . S
C248 C246 1.327 . S
C249 C237 1.349 . S
C249 H243 0.950 . S
C249 C250 1.327 . S
C250 H244 0.950 . S
C250 C249 1.327 . S
C250 C254 1.429 . S
C251 C234 1.574 . S
C251 H245 0.949 . S
C251 C255 1.368 . S
C252 C233 1.429 . S
C252 C246 1.429 . S
C252 C253 1.523 . S
C253 C234 1.368 . S
C253 C247 1.368 . S
C253 C252 1.523 . S
C254 C238 1.429 . S
C254 C250 1.429 . S
C254 C255 1.523 . S
C255 C239 1.368 . S
C255 C251 1.368 . S
C255 C254 1.523 . S
H256 C231 0.950 . S
H257 C233 0.950 . S
H258 C234 0.949 . S
H259 C236 0.950 . S
H260 C238 0.950 . S
C261 C262 1.349 . S
C261 C263 1.327 . S
C261 H286 0.950 . S
C262 C261 1.349 . S
C262 C278 1.349 . S
C263 C261 1.327 . S
C263 C282 1.429 . S
C263 H287 0.950 . S
C264 C281 1.574 . S
C264 C283 1.368 . S
C264 H288 0.949 . S
H265 C269 0.949 . S
C266 C267 1.349 . S
C266 C268 1.327 . S
C266 H289 0.950 . S
C267 C266 1.349 . S
C267 C279 1.349 . S
C268 C266 1.327 . S
C268 C284 1.429 . S
C268 H290 0.950 . S
C269 H265 0.949 . S
C269 C277 1.574 . S
C269 C285 1.368 . S
H270 C278 0.950 . S
H271 C276 0.950 . S
H272 C277 0.949 . S
H273 C279 0.950 . S
H274 C280 0.950 . S
H275 C281 0.949 . S
C276 H271 0.950 . S
C276 C278 1.327 . S
C276 C282 1.429 . S
C277 C269 1.574 . S
C277 H272 0.949 . S
C277 C283 1.368 . S
C278 C262 1.349 . S
C278 H270 0.950 . S
C278 C276 1.327 . S
C279 C267 1.349 . S
C279 H273 0.950 . S
C279 C280 1.327 . S
C280 H274 0.950 . S
C280 C279 1.327 . S
C280 C284 1.429 . S
C281 C264 1.574 . S
C281 H275 0.949 . S
C281 C285 1.368 . S
C282 C263 1.429 . S
C282 C276 1.429 . S
C282 C283 1.523 . S
C283 C264 1.368 . S
C283 C277 1.368 . S
C283 C282 1.523 . S
C284 C268 1.429 . S
C284 C280 1.429 . S
C284 C285 1.523 . S
C285 C269 1.368 . S
C285 C281 1.368 . S
C285 C284 1.523 . S
H286 C261 0.950 . S
H287 C263 0.950 . S
H288 C264 0.949 . S
H289 C266 0.950 . S
H290 C268 0.950 . S
C291 C292 1.349 . S
C291 C293 1.327 . S
C291 H316 0.950 . S
C292 C291 1.349 . S
C292 C308 1.349 . S
C293 C291 1.327 . S
C293 C312 1.429 . S
C293 H317 0.950 . S
C294 C311 1.574 . S
C294 C313 1.368 . S
C294 H318 0.949 . S
H295 C299 0.949 . S
C296 C297 1.349 . S
C296 C298 1.327 . S
C296 H319 0.950 . S
C297 C296 1.349 . S
C297 C309 1.349 . S
C298 C296 1.327 . S
C298 C314 1.429 . S
C298 H320 0.950 . S
C299 H295 0.949 . S
C299 C307 1.574 . S
C299 C315 1.368 . S
H300 C308 0.950 . S
H301 C306 0.950 . S
H302 C307 0.949 . S
H303 C309 0.950 . S
H304 C310 0.950 . S
H305 C311 0.949 . S
C306 H301 0.950 . S
C306 C308 1.327 . S
C306 C312 1.429 . S
C307 C299 1.574 . S
C307 H302 0.949 . S
C307 C313 1.368 . S
C308 C292 1.349 . S
C308 H300 0.950 . S
C308 C306 1.327 . S
C309 C297 1.349 . S
C309 H303 0.950 . S
C309 C310 1.327 . S
C310 H304 0.950 . S
C310 C309 1.327 . S
C310 C314 1.429 . S
C311 C294 1.574 . S
C311 H305 0.949 . S
C311 C315 1.368 . S
C312 C293 1.429 . S
C312 C306 1.429 . S
C312 C313 1.523 . S
C313 C294 1.368 . S
C313 C307 1.368 . S
C313 C312 1.523 . S
C314 C298 1.429 . S
C314 C310 1.429 . S
C314 C315 1.523 . S
C315 C299 1.368 . S
C315 C311 1.368 . S
C315 C314 1.523 . S
H316 C291 0.950 . S
H317 C293 0.950 . S
H318 C294 0.949 . S
H319 C296 0.950 . S
H320 C298 0.950 . S
C321 C322 1.349 . S
C321 C323 1.327 . S
C321 H346 0.950 . S
C322 C321 1.349 . S
C322 C338 1.349 . S
C323 C321 1.327 . S
C323 C342 1.429 . S
C323 H347 0.950 . S
C324 C341 1.574 . S
C324 C343 1.368 . S
C324 H348 0.949 . S
H325 C329 0.949 . S
C326 C327 1.349 . S
C326 C328 1.327 . S
C326 H349 0.950 . S
C327 C326 1.349 . S
C327 C339 1.349 . S
C328 C326 1.327 . S
C328 C344 1.429 . S
C328 H350 0.950 . S
C329 H325 0.949 . S
C329 C337 1.574 . S
C329 C345 1.368 . S
H330 C338 0.950 . S
H331 C336 0.950 . S
H332 C337 0.949 . S
H333 C339 0.950 . S
H334 C340 0.950 . S
H335 C341 0.949 . S
C336 H331 0.950 . S
C336 C338 1.327 . S
C336 C342 1.429 . S
C337 C329 1.574 . S
C337 H332 0.949 . S
C337 C343 1.368 . S
C338 C322 1.349 . S
C338 H330 0.950 . S
C338 C336 1.327 . S
C339 C327 1.349 . S
C339 H333 0.950 . S
C339 C340 1.327 . S
C340 H334 0.950 . S
C340 C339 1.327 . S
C340 C344 1.429 . S
C341 C324 1.574 . S
C341 H335 0.949 . S
C341 C345 1.368 . S
C342 C323 1.429 . S
C342 C336 1.429 . S
C342 C343 1.523 . S
C343 C324 1.368 . S
C343 C337 1.368 . S
C343 C342 1.523 . S
C344 C328 1.429 . S
C344 C340 1.429 . S
C344 C345 1.523 . S
C345 C329 1.368 . S
C345 C341 1.368 . S
C345 C344 1.523 . S
H346 C321 0.950 . S
H347 C323 0.950 . S
H348 C324 0.949 . S
H349 C326 0.950 . S
H350 C328 0.950 . S
C351 C352 1.349 . S
C351 C353 1.327 . S
C351 H376 0.950 . S
C352 C351 1.349 . S
C352 C368 1.349 . S
C353 C351 1.327 . S
C353 C372 1.429 . S
C353 H377 0.950 . S
C354 C371 1.574 . S
C354 C373 1.368 . S
C354 H378 0.949 . S
H355 C359 0.949 . S
C356 C357 1.349 . S
C356 C358 1.327 . S
C356 H379 0.950 . S
C357 C356 1.349 . S
C357 C369 1.349 . S
C358 C356 1.327 . S
C358 C374 1.429 . S
C358 H380 0.950 . S
C359 H355 0.949 . S
C359 C367 1.574 . S
C359 C375 1.368 . S
H360 C368 0.950 . S
H361 C366 0.950 . S
H362 C367 0.949 . S
H363 C369 0.950 . S
H364 C370 0.950 . S
H365 C371 0.949 . S
C366 H361 0.950 . S
C366 C368 1.327 . S
C366 C372 1.429 . S
C367 C359 1.574 . S
C367 H362 0.949 . S
C367 C373 1.368 . S
C368 C352 1.349 . S
C368 H360 0.950 . S
C368 C366 1.327 . S
C369 C357 1.349 . S
C369 H363 0.950 . S
C369 C370 1.327 . S
C370 H364 0.950 . S
C370 C369 1.327 . S
C370 C374 1.429 . S
C371 C354 1.574 . S
C371 H365 0.949 . S
C371 C375 1.368 . S
C372 C353 1.429 . S
C372 C366 1.429 . S
C372 C373 1.523 . S
C373 C354 1.368 . S
C373 C367 1.368 . S
C373 C372 1.523 . S
C374 C358 1.429 . S
C374 C370 1.429 . S
C374 C375 1.523 . S
C375 C359 1.368 . S
C375 C371 1.368 . S
C375 C374 1.523 . S
H376 C351 0.950 . S
H377 C353 0.950 . S
H378 C354 0.949 . S
H379 C356 0.950 . S
H380 C358 0.950 . S
C381 C382 1.349 . S
C381 C383 1.327 . S
C381 H406 0.950 . S
C382 C381 1.349 . S
C382 C398 1.349 . S
C383 C381 1.327 . S
C383 C402 1.429 . S
C383 H407 0.950 . S
C384 C401 1.574 . S
C384 C403 1.368 . S
C384 H408 0.949 . S
H385 C389 0.949 . S
C386 C387 1.349 . S
C386 C388 1.327 . S
C386 H409 0.950 1_565 S
C387 C386 1.349 . S
C387 C399 1.349 . S
C388 C386 1.327 . S
C388 C404 1.429 . S
C388 H410 0.950 . S
C389 H385 0.949 . S
C389 C397 1.574 . S
C389 C405 1.368 . S
H390 C398 0.950 . S
H391 C396 0.950 . S
H392 C397 0.949 . S
H393 C399 0.950 . S
H394 C400 0.950 . S
H395 C401 0.949 . S
C396 H391 0.950 . S
C396 C398 1.327 . S
C396 C402 1.429 . S
C397 C389 1.574 . S
C397 H392 0.949 . S
C397 C403 1.368 . S
C398 C382 1.349 . S
C398 H390 0.950 . S
C398 C396 1.327 . S
C399 C387 1.349 . S
C399 H393 0.950 . S
C399 C400 1.327 . S
C400 H394 0.950 . S
C400 C399 1.327 . S
C400 C404 1.429 . S
C401 C384 1.574 . S
C401 H395 0.949 . S
C401 C405 1.368 . S
C402 C383 1.429 . S
C402 C396 1.429 . S
C402 C403 1.523 . S
C403 C384 1.368 . S
C403 C397 1.368 . S
C403 C402 1.523 . S
C404 C388 1.429 . S
C404 C400 1.429 . S
C404 C405 1.523 . S
C405 C389 1.368 . S
C405 C401 1.368 . S
C405 C404 1.523 . S
H406 C381 0.950 . S
H407 C383 0.950 . S
H408 C384 0.949 . S
H409 C386 0.950 1_545 S
H410 C388 0.950 . S
C411 C412 1.349 . S
C411 C413 1.327 . S
C411 H436 0.950 . S
C412 C411 1.349 . S
C412 C428 1.349 . S
C413 C411 1.327 . S
C413 C432 1.429 . S
C413 H437 0.950 . S
C414 C431 1.574 . S
C414 C433 1.368 . S
C414 H438 0.949 . S
H415 C419 0.949 . S
C416 C417 1.349 . S
C416 C418 1.327 . S
C416 H439 0.950 . S
C417 C416 1.349 . S
C417 C429 1.349 . S
C418 C416 1.327 . S
C418 C434 1.429 . S
C418 H440 0.950 . S
C419 H415 0.949 . S
C419 C427 1.574 . S
C419 C435 1.368 . S
H420 C428 0.950 . S
H421 C426 0.950 . S
H422 C427 0.949 . S
H423 C429 0.950 . S
H424 C430 0.950 . S
H425 C431 0.949 . S
C426 H421 0.950 . S
C426 C428 1.327 . S
C426 C432 1.429 . S
C427 C419 1.574 . S
C427 H422 0.949 . S
C427 C433 1.368 . S
C428 C412 1.349 . S
C428 H420 0.950 . S
C428 C426 1.327 . S
C429 C417 1.349 . S
C429 H423 0.950 . S
C429 C430 1.327 . S
C430 H424 0.950 . S
C430 C429 1.327 . S
C430 C434 1.429 . S
C431 C414 1.574 . S
C431 H425 0.949 . S
C431 C435 1.368 . S
C432 C413 1.429 . S
C432 C426 1.429 . S
C432 C433 1.523 . S
C433 C414 1.368 . S
C433 C427 1.368 . S
C433 C432 1.523 . S
C434 C418 1.429 . S
C434 C430 1.429 . S
C434 C435 1.523 . S
C435 C419 1.368 . S
C435 C431 1.368 . S
C435 C434 1.523 . S
H436 C411 0.950 . S
H437 C413 0.950 . S
H438 C414 0.949 . S
H439 C416 0.950 . S
H440 C418 0.950 . S
C441 C442 1.349 . S
C441 C443 1.327 . S
C441 H466 0.950 . S
C442 C441 1.349 . S
C442 C458 1.349 . S
C443 C441 1.327 . S
C443 C462 1.429 . S
C443 H467 0.950 . S
C444 C461 1.574 . S
C444 C463 1.368 . S
C444 H468 0.949 . S
H445 C449 0.949 . S
C446 C447 1.349 . S
C446 C448 1.327 . S
C446 H469 0.950 . S
C447 C446 1.349 . S
C447 C459 1.349 . S
C448 C446 1.327 . S
C448 C464 1.429 . S
C448 H470 0.950 . S
C449 H445 0.949 . S
C449 C457 1.574 . S
C449 C465 1.368 . S
H450 C458 0.950 . S
H451 C456 0.950 . S
H452 C457 0.949 . S
H453 C459 0.950 . S
H454 C460 0.950 . S
H455 C461 0.949 . S
C456 H451 0.950 . S
C456 C458 1.327 . S
C456 C462 1.429 . S
C457 C449 1.574 . S
C457 H452 0.949 . S
C457 C463 1.368 . S
C458 C442 1.349 . S
C458 H450 0.950 . S
C458 C456 1.327 . S
C459 C447 1.349 . S
C459 H453 0.950 . S
C459 C460 1.327 . S
C460 H454 0.950 . S
C460 C459 1.327 . S
C460 C464 1.429 . S
C461 C444 1.574 . S
C461 H455 0.949 . S
C461 C465 1.368 . S
C462 C443 1.429 . S
C462 C456 1.429 . S
C462 C463 1.523 . S
C463 C444 1.368 . S
C463 C457 1.368 . S
C463 C462 1.523 . S
C464 C448 1.429 . S
C464 C460 1.429 . S
C464 C465 1.523 . S
C465 C449 1.368 . S
C465 C461 1.368 . S
C465 C464 1.523 . S
H466 C441 0.950 . S
H467 C443 0.950 . S
H468 C444 0.949 . S
H469 C446 0.950 . S
H470 C448 0.950 . S
C471 C472 1.349 . S
C471 C473 1.327 . S
C471 H496 0.950 . S
C472 C471 1.349 . S
C472 C488 1.349 . S
C473 C471 1.327 . S
C473 C492 1.429 . S
C473 H497 0.950 . S
C474 C491 1.574 . S
C474 C493 1.368 . S
C474 H498 0.949 . S
H475 C479 0.949 . S
C476 C477 1.349 . S
C476 C478 1.327 . S
C476 H499 0.950 . S
C477 C476 1.349 . S
C477 C489 1.349 . S
C478 C476 1.327 . S
C478 C494 1.429 . S
C478 H500 0.950 . S
C479 H475 0.949 . S
C479 C487 1.574 . S
C479 C495 1.368 . S
H480 C488 0.950 . S
H481 C486 0.950 . S
H482 C487 0.949 . S
H483 C489 0.950 . S
H484 C490 0.950 . S
H485 C491 0.949 . S
C486 H481 0.950 . S
C486 C488 1.327 . S
C486 C492 1.429 . S
C487 C479 1.574 . S
C487 H482 0.949 . S
C487 C493 1.368 . S
C488 C472 1.349 . S
C488 H480 0.950 . S
C488 C486 1.327 . S
C489 C477 1.349 . S
C489 H483 0.950 . S
C489 C490 1.327 . S
C490 H484 0.950 . S
C490 C489 1.327 . S
C490 C494 1.429 . S
C491 C474 1.574 . S
C491 H485 0.949 . S
C491 C495 1.368 . S
C492 C473 1.429 . S
C492 C486 1.429 . S
C492 C493 1.523 . S
C493 C474 1.368 . S
C493 C487 1.368 . S
C493 C492 1.523 . S
C494 C478 1.429 . S
C494 C490 1.429 . S
C494 C495 1.523 . S
C495 C479 1.368 . S
C495 C491 1.368 . S
C495 C494 1.523 . S
H496 C471 0.950 . S
H497 C473 0.950 . S
H498 C474 0.949 . S
H499 C476 0.950 . S
H500 C478 0.950 . S
C501 C502 1.349 . S
C501 C503 1.327 . S
C501 H526 0.950 . S
C502 C501 1.349 . S
C502 C518 1.349 . S
C503 C501 1.327 . S
C503 C522 1.429 . S
C503 H527 0.950 . S
C504 C521 1.574 . S
C504 C523 1.368 . S
C504 H528 0.949 1_455 S
H505 C509 0.949 . S
C506 C507 1.349 . S
C506 C508 1.327 . S
C506 H529 0.950 1_455 S
C507 C506 1.349 . S
C507 C519 1.349 . S
C508 C506 1.327 . S
C508 C524 1.429 . S
C508 H530 0.950 1_455 S
C509 H505 0.949 . S
C509 C517 1.574 . S
C509 C525 1.368 . S
H510 C518 0.950 . S
H511 C516 0.950 1_655 S
H512 C517 0.949 . S
H513 C519 0.950 . S
H514 C520 0.950 . S
H515 C521 0.949 1_655 S
C516 H511 0.950 1_455 S
C516 C518 1.327 . S
C516 C522 1.429 . S
C517 C509 1.574 . S
C517 H512 0.949 . S
C517 C523 1.368 . S
C518 C502 1.349 . S
C518 H510 0.950 . S
C518 C516 1.327 . S
C519 C507 1.349 . S
C519 H513 0.950 . S
C519 C520 1.327 . S
C520 H514 0.950 . S
C520 C519 1.327 . S
C520 C524 1.429 . S
C521 C504 1.574 . S
C521 H515 0.949 1_455 S
C521 C525 1.368 . S
C522 C503 1.429 . S
C522 C516 1.429 . S
C522 C523 1.523 . S
C523 C504 1.368 . S
C523 C517 1.368 . S
C523 C522 1.523 . S
C524 C508 1.429 . S
C524 C520 1.429 . S
C524 C525 1.523 1_556 S
C525 C509 1.368 . S
C525 C521 1.368 . S
C525 C524 1.523 1_554 S
H526 C501 0.950 . S
H527 C503 0.950 . S
H528 C504 0.949 1_655 S
H529 C506 0.950 1_655 S
H530 C508 0.950 1_655 S
C531 C532 1.349 . S
C531 C533 1.327 . S
C531 H556 0.950 1_545 S
C532 C531 1.349 . S
C532 C548 1.349 . S
C533 C531 1.327 . S
C533 C552 1.429 . S
C533 H557 0.950 1_545 S
C534 C551 1.574 . S
C534 C553 1.368 . S
C534 H558 0.949 . S
H535 C539 0.956 . S
C536 C537 1.349 . S
C536 C538 1.327 . S
C536 H559 0.950 . S
C537 C536 1.349 . S
C537 C549 1.349 . S
C538 C536 1.327 . S
C538 C554 1.429 . S
C538 H560 0.950 . S
C539 H535 0.956 . S
C539 C547 1.574 . S
C539 C555 1.368 . S
H540 C548 0.950 . S
H541 C546 0.950 . S
H542 C547 0.949 1_565 S
H543 C549 0.950 . S
H544 C550 0.950 . S
H545 C551 0.949 . S
C546 H541 0.950 . S
C546 C548 1.327 . S
C546 C552 1.429 . S
C547 C539 1.574 . S
C547 H542 0.949 1_545 S
C547 C553 1.368 . S
C548 C532 1.349 . S
C548 H540 0.950 . S
C548 C546 1.327 . S
C549 C537 1.349 . S
C549 H543 0.950 . S
C549 C550 1.327 . S
C550 H544 0.950 . S
C550 C549 1.327 . S
C550 C554 1.429 . S
C551 C534 1.574 . S
C551 H545 0.949 . S
C551 C555 1.368 . S
C552 C533 1.429 . S
C552 C546 1.429 . S
C552 C553 1.523 . S
C553 C534 1.368 . S
C553 C547 1.368 . S
C553 C552 1.523 . S
C554 C538 1.429 . S
C554 C550 1.429 . S
C554 C555 1.523 . S
C555 C539 1.368 . S
C555 C551 1.368 . S
C555 C554 1.523 . S
H556 C531 0.950 1_565 S
H557 C533 0.950 1_565 S
H558 C534 0.949 . S
H559 C536 0.950 . S
H560 C538 0.950 . S
C561 C562 1.349 . S
C561 C563 1.327 . S
C561 H586 0.950 . S
C562 C561 1.349 . S
C562 C578 1.349 . S
C563 C561 1.327 . S
C563 C582 1.429 . S
C563 H587 0.950 . S
C564 C581 1.574 . S
C564 C583 1.368 . S
C564 H588 0.949 . S
H565 C569 0.949 . S
C566 C567 1.349 . S
C566 C568 1.327 . S
C566 H589 0.950 . S
C567 C566 1.349 . S
C567 C579 1.349 . S
C568 C566 1.327 . S
C568 C584 1.429 . S
C568 H590 0.950 . S
C569 H565 0.949 . S
C569 C577 1.574 . S
C569 C585 1.368 . S
H570 C578 0.950 . S
H571 C576 0.950 . S
H572 C577 0.949 . S
H573 C579 0.950 . S
H574 C580 0.950 . S
H575 C581 0.949 . S
C576 H571 0.950 . S
C576 C578 1.327 . S
C576 C582 1.429 . S
C577 C569 1.574 . S
C577 H572 0.949 . S
C577 C583 1.368 . S
C578 C562 1.349 . S
C578 H570 0.950 . S
C578 C576 1.327 . S
C579 C567 1.349 . S
C579 H573 0.950 . S
C579 C580 1.327 . S
C580 H574 0.950 . S
C580 C579 1.327 . S
C580 C584 1.429 . S
C581 C564 1.574 . S
C581 H575 0.949 . S
C581 C585 1.368 . S
C582 C563 1.429 . S
C582 C576 1.429 . S
C582 C583 1.523 . S
C583 C564 1.368 . S
C583 C577 1.368 . S
C583 C582 1.523 . S
C584 C568 1.429 . S
C584 C580 1.429 . S
C584 C585 1.523 . S
C585 C569 1.368 . S
C585 C581 1.368 . S
C585 C584 1.523 . S
H586 C561 0.950 . S
H587 C563 0.950 . S
H588 C564 0.949 . S
H589 C566 0.950 . S
H590 C568 0.950 . S
C591 C592 1.349 . S
C591 C593 1.327 . S
C591 H616 0.950 . S
C592 C591 1.349 . S
C592 C608 1.349 . S
C593 C591 1.327 . S
C593 C612 1.429 . S
C593 H617 0.950 . S
C594 C611 1.574 . S
C594 C613 1.368 . S
C594 H618 0.949 1_545 S
H595 C599 0.949 . S
C596 C597 1.349 . S
C596 C598 1.327 . S
C596 H619 0.950 1_545 S
C597 C596 1.349 . S
C597 C609 1.349 . S
C598 C596 1.327 . S
C598 C614 1.429 . S
C598 H620 0.950 1_545 S
C599 H595 0.949 . S
C599 C607 1.574 . S
C599 C615 1.368 . S
H600 C608 0.950 1_565 S
H601 C606 0.950 1_565 S
H602 C607 0.949 . S
H603 C609 0.950 . S
H604 C610 0.950 . S
H605 C611 0.949 1_565 S
C606 H601 0.950 1_545 S
C606 C608 1.327 . S
C606 C612 1.429 . S
C607 C599 1.574 . S
C607 H602 0.949 . S
C607 C613 1.368 . S
C608 C592 1.349 . S
C608 H600 0.950 1_545 S
C608 C606 1.327 . S
C609 C597 1.349 . S
C609 H603 0.950 . S
C609 C610 1.327 . S
C610 H604 0.950 . S
C610 C609 1.327 . S
C610 C614 1.429 . S
C611 C594 1.574 . S
C611 H605 0.949 1_545 S
C611 C615 1.368 . S
C612 C593 1.429 . S
C612 C606 1.429 . S
C612 C613 1.523 . S
C613 C594 1.368 . S
C613 C607 1.368 . S
C613 C612 1.523 . S
C614 C598 1.429 . S
C614 C610 1.429 . S
C614 C615 1.523 . S
C615 C599 1.368 . S
C615 C611 1.368 . S
C615 C614 1.523 . S
H616 C591 0.950 . S
H617 C593 0.950 . S
H618 C594 0.949 1_565 S
H619 C596 0.950 1_565 S
H620 C598 0.950 1_565 S
C621 C622 1.349 . S
C621 C623 1.327 . S
C621 H646 0.950 . S
C622 C621 1.349 . S
C622 C638 1.349 . S
C623 C621 1.327 . S
C623 C642 1.429 . S
C623 H647 0.950 . S
C624 C641 1.574 . S
C624 C643 1.368 . S
C624 H648 0.949 . S
H625 C629 0.949 . S
C626 C627 1.349 . S
C626 C628 1.327 . S
C626 H649 0.950 . S
C627 C626 1.349 . S
C627 C639 1.349 . S
C628 C626 1.327 . S
C628 C644 1.429 . S
C628 H650 0.950 . S
C629 H625 0.949 . S
C629 C637 1.574 . S
C629 C645 1.368 . S
H630 C638 0.950 . S
H631 C636 0.950 . S
H632 C637 0.949 . S
H633 C639 0.950 . S
H634 C640 0.950 . S
H635 C641 0.949 . S
C636 H631 0.950 . S
C636 C638 1.327 . S
C636 C642 1.429 . S
C637 C629 1.574 . S
C637 H632 0.949 . S
C637 C643 1.368 . S
C638 C622 1.349 . S
C638 H630 0.950 . S
C638 C636 1.327 . S
C639 C627 1.349 . S
C639 H633 0.950 . S
C639 C640 1.327 . S
C640 H634 0.950 . S
C640 C639 1.327 . S
C640 C644 1.429 . S
C641 C624 1.574 . S
C641 H635 0.949 . S
C641 C645 1.368 . S
C642 C623 1.429 . S
C642 C636 1.429 . S
C642 C643 1.523 . S
C643 C624 1.368 . S
C643 C637 1.368 . S
C643 C642 1.523 . S
C644 C628 1.429 . S
C644 C640 1.429 . S
C644 C645 1.523 1_554 S
C645 C629 1.368 . S
C645 C641 1.368 . S
C645 C644 1.523 1_556 S
H646 C621 0.950 . S
H647 C623 0.950 . S
H648 C624 0.949 . S
H649 C626 0.950 . S
H650 C628 0.950 . S
C651 C652 1.349 . S
C651 C653 1.327 . S
C651 H676 0.950 . S
C652 C651 1.349 . S
C652 C668 1.349 . S
C653 C651 1.327 . S
C653 C672 1.429 . S
C653 H677 0.950 . S
C654 C671 1.574 . S
C654 C673 1.368 . S
C654 H678 0.949 . S
H655 C659 0.949 . S
C656 C657 1.349 . S
C656 C658 1.327 . S
C656 H679 0.950 . S
C657 C656 1.349 . S
C657 C669 1.349 . S
C658 C656 1.327 . S
C658 C674 1.429 . S
C658 H680 0.950 . S
C659 H655 0.949 . S
C659 C667 1.574 . S
C659 C675 1.368 . S
H660 C668 0.950 . S
H661 C666 0.950 . S
H662 C667 0.949 . S
H663 C669 0.950 . S
H664 C670 0.950 . S
H665 C671 0.949 . S
C666 H661 0.950 . S
C666 C668 1.327 . S
C666 C672 1.429 . S
C667 C659 1.574 . S
C667 H662 0.949 . S
C667 C673 1.368 . S
C668 C652 1.349 . S
C668 H660 0.950 . S
C668 C666 1.327 . S
C669 C657 1.349 . S
C669 H663 0.950 . S
C669 C670 1.327 . S
C670 H664 0.950 . S
C670 C669 1.327 . S
C670 C674 1.429 . S
C671 C654 1.574 . S
C671 H665 0.949 . S
C671 C675 1.368 . S
C672 C653 1.429 . S
C672 C666 1.429 . S
C672 C673 1.523 . S
C673 C654 1.368 . S
C673 C667 1.368 . S
C673 C672 1.523 . S
C674 C658 1.429 . S
C674 C670 1.429 . S
C674 C675 1.523 . S
C675 C659 1.368 . S
C675 C671 1.368 . S
C675 C674 1.523 . S
H676 C651 0.950 . S
H677 C653 0.950 . S
H678 C654 0.949 . S
H679 C656 0.950 . S
H680 C658 0.950 . S
C142 C20 1.483 . S
C147 C135 1.515 . S
C172 C41 1.238 . S
C177 C109 1.219 . S
C202 C64 1.246 . S
C207 C121 1.226 . S
C232 C19 0.900 . S
C237 C133 0.911 . S
C267 C111 1.181 . S
C262 C44 1.174 . S
C297 C123 1.148 . S
C292 C67 1.143 . S
C322 C43 1.201 . S
C327 C85 1.206 . S
C352 C66 1.483 . S
C357 C99 1.515 . S
C382 C21 1.157 . S
C387 C75 1.162 1_565 S
C417 C87 1.201 . S
C412 C42 1.156 . S
C447 C97 0.911 . S
C442 C65 0.901 . S
C472 C18 1.237 . S
C477 C73 1.218 . S
C507 C102 1.518 . S
C502 C17 1.518 . S
C532 C39 1.535 . S
C537 C78 1.531 . S
C562 C62 1.536 . S
C567 C90 1.531 . S
C597 C126 1.516 . S
C592 C40 1.513 . S
C627 C138 1.518 . S
C622 C63 1.518 . S
C652 C16 1.514 . S
C657 C114 1.510 . S
