# Generated by pormake.
# Topology cml, (3,6)-cn, num edge types: 1
# Building blocks:
#     Node 0, Type 0, BuildingBlock: ESEHIV_clean_linker_0, # of connection points: 3
#     Node 1, Type 0, BuildingBlock: ESEHIV_clean_linker_0, # of connection points: 3
#     Node 2, Type 0, BuildingBlock: ESEHIV_clean_linker_0, # of connection points: 3
#     Node 3, Type 0, BuildingBlock: ESEHIV_clean_linker_0, # of connection points: 3
#     Node 4, Type 0, BuildingBlock: ESEHIV_clean_linker_0, # of connection points: 3
#     Node 5, Type 0, BuildingBlock: ESEHIV_clean_linker_0, # of connection points: 3
#     Node 6, Type 0, BuildingBlock: ESEHIV_clean_linker_0, # of connection points: 3
#     Node 7, Type 0, BuildingBlock: ESEHIV_clean_linker_0, # of connection points: 3
#     Node 8, Type 1, BuildingBlock: OJICUG_clean_sbu_0, # of connection points: 6
#     Node 9, Type 1, BuildingBlock: OJICUG_clean_sbu_0, # of connection points: 6
#     Node 10, Type 1, BuildingBlock: OJICUG_clean_sbu_0, # of connection points: 6
#     Node 11, Type 1, BuildingBlock: OJICUG_clean_sbu_0, # of connection points: 6
#     Edge 12, Type (0, 1), BuildingBlock: ZUJKAS_clean_linker_0, # of connection points: 2
#     Edge 13, Type (0, 1), BuildingBlock: ZUJKAS_clean_linker_0, # of connection points: 2
#     Edge 14, Type (0, 1), BuildingBlock: ZUJKAS_clean_linker_0, # of connection points: 2
#     Edge 15, Type (0, 1), BuildingBlock: ZUJKAS_clean_linker_0, # of connection points: 2
#     Edge 16, Type (0, 1), BuildingBlock: ZUJKAS_clean_linker_0, # of connection points: 2
#     Edge 17, Type (0, 1), BuildingBlock: ZUJKAS_clean_linker_0, # of connection points: 2
#     Edge 18, Type (0, 1), BuildingBlock: ZUJKAS_clean_linker_0, # of connection points: 2
#     Edge 19, Type (0, 1), BuildingBlock: ZUJKAS_clean_linker_0, # of connection points: 2
#     Edge 20, Type (0, 1), BuildingBlock: ZUJKAS_clean_linker_0, # of connection points: 2
#     Edge 21, Type (0, 1), BuildingBlock: ZUJKAS_clean_linker_0, # of connection points: 2
#     Edge 22, Type (0, 1), BuildingBlock: ZUJKAS_clean_linker_0, # of connection points: 2
#     Edge 23, Type (0, 1), BuildingBlock: ZUJKAS_clean_linker_0, # of connection points: 2
#     Edge 24, Type (0, 1), BuildingBlock: ZUJKAS_clean_linker_0, # of connection points: 2
#     Edge 25, Type (0, 1), BuildingBlock: ZUJKAS_clean_linker_0, # of connection points: 2
#     Edge 26, Type (0, 1), BuildingBlock: ZUJKAS_clean_linker_0, # of connection points: 2
#     Edge 27, Type (0, 1), BuildingBlock: ZUJKAS_clean_linker_0, # of connection points: 2
#     Edge 28, Type (0, 1), BuildingBlock: ZUJKAS_clean_linker_0, # of connection points: 2
#     Edge 29, Type (0, 1), BuildingBlock: ZUJKAS_clean_linker_0, # of connection points: 2
#     Edge 30, Type (0, 1), BuildingBlock: ZUJKAS_clean_linker_0, # of connection points: 2
#     Edge 31, Type (0, 1), BuildingBlock: ZUJKAS_clean_linker_0, # of connection points: 2
#     Edge 32, Type (0, 1), BuildingBlock: ZUJKAS_clean_linker_0, # of connection points: 2
#     Edge 33, Type (0, 1), BuildingBlock: ZUJKAS_clean_linker_0, # of connection points: 2
#     Edge 34, Type (0, 1), BuildingBlock: ZUJKAS_clean_linker_0, # of connection points: 2
#     Edge 35, Type (0, 1), BuildingBlock: ZUJKAS_clean_linker_0, # of connection points: 2
# Relax obj value: 0.072
# Max RMSD: 0.084
# Mean RMSD: 0.079
data_MOF--net-cml--node1-OJICUG_clean_sbu_0--node2-ESEHIV_clean_linker_0--edge1-ZUJKAS_clean_linker_0
_symmetry_space_group_name_H-M    P1
_symmetry_Int_Tables_number       1
_symmetry_cell_setting            triclinic
loop_
_symmetry_equiv_pos_as_xyz
'x, y, z'
_cell_length_a     48.102256
_cell_length_b     48.586299
_cell_length_c     45.760619
_cell_angle_alpha  90.069755
_cell_angle_beta   89.99446
_cell_angle_gamma 90.016035
loop_
_atom_site_label
_atom_site_type_symbol
_atom_site_fract_x
_atom_site_fract_y
_atom_site_fract_z
_atom_type_partial_charge
H0 H 0.31221 0.42337 0.03122 0.0
H1 H 0.25817 0.41816 0.95663 0.0
H2 H 0.25278 0.35762 0.02495 0.0
C3 C 0.2957 0.41308 0.01936 0.0
C4 C 0.28371 0.38921 0.03115 0.0
C5 C 0.2868 0.42365 0.99241 0.0
C6 C 0.26498 0.41044 0.97765 0.0
C7 C 0.25237 0.38681 0.98935 0.0
C8 C 0.26171 0.3764 0.01628 0.0
H9 H 0.69015 0.56928 0.53195 0.0
H10 H 0.73973 0.57401 0.45393 0.0
H11 H 0.75239 0.63219 0.52352 0.0
C12 C 0.70677 0.57878 0.51957 0.0
C13 C 0.72037 0.60199 0.53101 0.0
C14 C 0.71358 0.56844 0.49179 0.0
C15 C 0.73494 0.58114 0.47581 0.0
C16 C 0.749 0.60414 0.48706 0.0
C17 C 0.74162 0.61443 0.5147 0.0
H18 H 0.68292 0.43031 0.02865 0.0
H19 H 0.7402 0.36253 0.03433 0.0
H20 H 0.74782 0.42173 0.96493 0.0
C21 C 0.701 0.41943 0.02052 0.0
C22 C 0.71444 0.42898 0.99528 0.0
C23 C 0.71001 0.39541 0.03474 0.0
C24 C 0.73328 0.38126 0.02376 0.0
C25 C 0.74715 0.39073 -0.00136 0.0
C26 C 0.73764 0.41466 0.98467 0.0
H27 H 0.29948 0.55949 0.53498 0.0
H28 H 0.23897 0.56336 0.4661 0.0
H29 H 0.24929 0.63198 0.52466 0.0
C30 C 0.28299 0.57042 0.52379 0.0
C31 C 0.27541 0.5969 0.53324 0.0
C32 C 0.27024 0.55838 0.49932 0.0
C33 C 0.24914 0.57278 0.48473 0.0
C34 C 0.24126 0.59927 0.49381 0.0
C35 C 0.25443 0.61112 0.5182 0.0
H36 H 0.79718 0.93031 0.04176 0.0
H37 H 0.74285 0.92808 0.96737 0.0
H38 H 0.7393 0.8635 0.03148 0.0
C39 C 0.78011 0.92078 0.03005 0.0
C40 C 0.76876 0.89597 0.04034 0.0
C41 C 0.77107 0.93236 0.00364 0.0
C42 C 0.75008 0.91912 0.98767 0.0
C43 C 0.73855 0.89427 0.99751 0.0
C44 C 0.74782 0.88291 0.024 0.0
H45 H 0.18779 0.06145 0.54105 0.0
H46 H 0.24388 0.06764 0.46831 0.0
H47 H 0.25061 0.12439 0.54015 0.0
C48 C 0.20544 0.07118 0.53058 0.0
C49 C 0.21803 0.0941 0.54385 0.0
C50 C 0.21469 0.06136 0.5034 0.0
C51 C 0.2373 0.07436 0.48982 0.0
C52 C 0.25037 0.09711 0.50285 0.0
C53 C 0.24062 0.10686 0.52991 0.0
H54 H 0.19681 0.92629 0.03996 0.0
H55 H 0.25931 0.86343 0.03225 0.0
H56 H 0.25086 0.92511 0.96536 0.0
C57 C 0.21427 0.91731 0.0284 0.0
C58 C 0.22256 0.92864 0.00162 0.0
C59 C 0.22749 0.89389 0.03976 0.0
C60 C 0.24944 0.8819 0.024 0.0
C61 C 0.25798 0.89302 0.99709 0.0
C62 C 0.24466 0.91663 0.98626 0.0
H63 H 0.80927 0.06779 0.53108 0.0
H64 H 0.75549 0.07895 0.45715 0.0
H65 H 0.75108 0.13499 0.52986 0.0
C66 C 0.79236 0.07868 0.52054 0.0
C67 C 0.78066 0.10185 0.53425 0.0
C68 C 0.78366 0.07049 0.49259 0.0
C69 C 0.76269 0.08548 0.47851 0.0
C70 C 0.7509 0.10882 0.49168 0.0
C71 C 0.75988 0.11683 0.51967 0.0
Sc72 Sc -0.00114 0.78479 0.29905 0.0
Sc73 Sc -0.00078 0.85731 0.30432 0.0
Sc74 Sc 0.99668 0.81736 0.36811 0.0
O75 O -0.00176 0.81977 0.32381 0.0
C76 C 0.95603 0.7685 0.34945 0.0
C77 C 0.95787 0.82375 0.26288 0.0
C78 C 0.95613 0.86788 0.3563 0.0
C79 C 0.04171 0.82314 0.26474 0.0
C80 C 0.03877 0.76882 0.35214 0.0
C81 C 0.03929 0.86697 0.35875 0.0
O82 O 0.9661 0.76552 0.32395 0.0
O83 O 0.96746 0.84594 0.27363 0.0
O84 O 0.96447 0.84781 0.37174 0.0
O85 O 0.03191 0.79964 0.2713 0.0
O86 O 0.02856 0.7866 0.36946 0.0
O87 O 0.03114 0.87254 0.33302 0.0
O88 O 0.03035 0.76572 0.32596 0.0
O89 O 0.0318 0.84543 0.27484 0.0
O90 O 0.02853 0.84797 0.37411 0.0
O91 O 0.96727 0.8001 0.26963 0.0
O92 O 0.9649 0.78644 0.36739 0.0
O93 O 0.96685 0.87386 0.33172 0.0
Sc94 Sc 0.99545 0.20525 0.81091 0.0
Sc95 Sc 0.99525 0.1329 0.81947 0.0
Sc96 Sc -0.00083 0.1755 0.88122 0.0
O97 O 0.99658 0.17127 0.83715 0.0
C98 C 0.03991 0.22289 0.85939 0.0
C99 C 0.0359 0.1647 0.7758 0.0
C100 C 0.03922 0.12431 0.87086 0.0
C101 C 0.95247 0.16533 0.77863 0.0
C102 C 0.95687 0.22361 0.86422 0.0
C103 C 0.95589 0.12605 0.875 0.0
O104 O 0.02873 0.22555 0.83436 0.0
O105 O 0.02654 0.14296 0.78773 0.0
O106 O 0.03117 0.14499 0.88555 0.0
O107 O 0.96213 0.18917 0.78405 0.0
O108 O 0.96775 0.20669 0.88199 0.0
O109 O 0.96379 0.11908 0.84953 0.0
O110 O 0.96437 0.22549 0.83761 0.0
O111 O 0.96242 0.14358 0.7899 0.0
O112 O 0.96692 0.14575 0.88915 0.0
O113 O 0.02659 0.18862 0.78168 0.0
O114 O 0.03154 0.20555 0.87816 0.0
O115 O 0.02801 0.11724 0.84687 0.0
Sc116 Sc 0.49258 0.28312 0.30847 0.0
Sc117 Sc 0.48634 0.35523 0.31532 0.0
Sc118 Sc 0.49377 0.31465 0.37803 0.0
O119 O 0.49089 0.31761 0.3339 0.0
C120 C 0.45617 0.26233 0.36205 0.0
C121 C 0.44521 0.31883 0.27711 0.0
C122 C 0.44731 0.36046 0.37179 0.0
C123 C 0.5282 0.32539 0.27089 0.0
C124 C 0.53856 0.27076 0.35742 0.0
C125 C 0.52995 0.36855 0.3653 0.0
O126 O 0.46262 0.26153 0.3351 0.0
O127 O 0.45223 0.34138 0.28907 0.0
O128 O 0.45813 0.34033 0.38531 0.0
O129 O 0.52284 0.30102 0.27933 0.0
O130 O 0.52956 0.28867 0.37529 0.0
O131 O 0.52009 0.37275 0.33994 0.0
O132 O 0.52681 0.26571 0.33306 0.0
O133 O 0.51586 0.34642 0.28117 0.0
O134 O 0.52155 0.34922 0.38176 0.0
O135 O 0.45852 0.29644 0.28077 0.0
O136 O 0.46649 0.27974 0.37973 0.0
O137 O 0.45613 0.36871 0.34711 0.0
Sc138 Sc 0.49911 0.70976 0.79796 0.0
Sc139 Sc 0.49951 0.63716 0.80238 0.0
Sc140 Sc 0.50046 0.67655 0.86665 0.0
O141 O 0.49967 0.67454 0.82231 0.0
C142 C 0.54138 0.72553 0.84905 0.0
C143 C 0.54088 0.67143 0.76183 0.0
C144 C 0.54195 0.62674 0.85487 0.0
C145 C 0.45724 0.67119 0.76247 0.0
C146 C 0.4584 0.72505 0.85064 0.0
C147 C 0.45865 0.62656 0.85598 0.0
O148 O 0.53159 0.72889 0.82348 0.0
O149 O 0.53155 0.64909 0.77237 0.0
O150 O 0.53293 0.64642 0.87049 0.0
O151 O 0.46636 0.69482 0.7697 0.0
O152 O 0.46822 0.70698 0.86782 0.0
O153 O 0.46734 0.62127 0.83036 0.0
O154 O 0.46741 0.72862 0.82477 0.0
O155 O 0.46743 0.64897 0.7724 0.0
O156 O 0.46884 0.64561 0.87174 0.0
O157 O 0.53105 0.69491 0.76861 0.0
O158 O 0.53216 0.70754 0.86667 0.0
O159 O 0.53173 0.62083 0.83004 0.0
H160 H 0.25224 0.3747 0.93108 0.0
H161 H 0.21636 0.35042 0.90331 0.0
H162 H 0.16786 0.34073 0.9819 0.0
H163 H 0.2034 0.36561 0.00976 0.0
H164 H 0.19798 0.2966 0.91311 0.0
H165 H 0.11158 0.3717 0.92239 0.0
H166 H 0.14734 0.38072 0.92976 0.0
H167 H 0.12715 0.3628 0.95678 0.0
C168 C 0.23372 0.3678 0.94237 0.0
C169 C 0.23049 0.37223 0.97257 0.0
C170 C 0.21334 0.35383 0.9265 0.0
C171 C 0.18933 0.3442 0.94049 0.0
C172 C 0.18604 0.3485 0.97063 0.0
H173 H 0.07579 0.21592 0.90482 0.0
H174 H 0.11325 0.24636 0.92022 0.0
C175 C 0.20645 0.36242 0.98655 0.0
C176 C 0.16841 0.32832 0.92389 0.0
H177 H 0.09954 0.32639 0.90616 0.0
C178 C 0.17653 0.30325 0.91127 0.0
C179 C 0.14058 0.33729 0.92116 0.0
C180 C 0.13113 0.36473 0.93298 0.0
C181 C 0.15718 0.28624 0.89717 0.0
C182 C 0.12904 0.29447 0.89596 0.0
C183 C 0.12115 0.32013 0.90732 0.0
C184 C 0.10714 0.27569 0.88531 0.0
C185 C 0.16687 0.25937 0.88412 0.0
C186 C 0.09115 0.28232 0.86066 0.0
C187 C 0.0696 0.26488 0.85168 0.0
C188 C 0.06353 0.24083 0.86755 0.0
C189 C 0.0798 0.23431 0.89213 0.0
C190 C 0.10136 0.25158 0.9009 0.0
H191 H 0.18959 0.25955 0.87976 0.0
H192 H 0.16247 0.24244 0.89971 0.0
H193 H 0.15572 0.25486 0.86341 0.0
H194 H 0.09526 0.301 0.84851 0.0
H195 H 0.05739 0.27053 0.83273 0.0
H196 H 0.7549 0.65936 0.47838 0.0
H197 H 0.79005 0.68281 0.44896 0.0
H198 H 0.82597 0.60454 0.42542 0.0
H199 H 0.79113 0.58087 0.4554 0.0
H200 H 0.86467 0.6439 0.44488 0.0
H201 H 0.79572 0.68671 0.35924 0.0
H202 H 0.784 0.69403 0.39568 0.0
H203 H 0.7852 0.65897 0.38308 0.0
C204 C 0.77037 0.64714 0.46707 0.0
C205 C 0.77034 0.61829 0.46923 0.0
C206 C 0.79017 0.66054 0.44997 0.0
C207 C 0.81022 0.64534 0.43463 0.0
C208 C 0.81043 0.61656 0.43686 0.0
H209 H 0.92965 0.72779 0.31814 0.0
H210 H 0.89477 0.69513 0.33618 0.0
C211 C 0.79053 0.60311 0.4539 0.0
C212 C 0.83187 0.6598 0.41767 0.0
H213 H 0.84097 0.7073 0.36363 0.0
C214 C 0.85958 0.65744 0.42681 0.0
C215 C 0.82517 0.67711 0.39387 0.0
C216 C 0.79593 0.67919 0.38216 0.0
C217 C 0.88061 0.67319 0.41381 0.0
C218 C 0.87357 0.69189 0.39137 0.0
C219 C 0.84616 0.69311 0.38108 0.0
C220 C 0.89402 0.71181 0.38 0.0
C221 C 0.91008 0.67018 0.42461 0.0
C222 C 0.90448 0.73227 0.39856 0.0
C223 C 0.92418 0.75097 0.3884 0.0
C224 C 0.93384 0.74958 0.35941 0.0
C225 C 0.92277 0.72938 0.34062 0.0
C226 C 0.90289 0.7107 0.35084 0.0
H227 H 0.91327 0.65025 0.436 0.0
H228 H 0.92512 0.67169 0.40626 0.0
H229 H 0.91469 0.68698 0.44033 0.0
H230 H 0.89746 0.7337 0.42101 0.0
H231 H 0.93208 0.76628 0.40349 0.0
H232 H 0.79608 0.41051 0.97661 0.0
H233 H 0.83224 0.38466 0.9508 0.0
H234 H 0.7871 0.30927 0.96578 0.0
H235 H 0.75045 0.33504 0.99079 0.0
H236 H 0.86571 0.34189 0.96979 0.0
H237 H 0.79926 0.30894 0.87712 0.0
H238 H 0.78913 0.33579 0.90227 0.0
H239 H 0.78512 0.30021 0.91222 0.0
C240 C 0.79383 0.38843 0.9743 0.0
C241 C 0.77034 0.37482 0.98556 0.0
C242 C 0.81451 0.37371 0.95965 0.0
C243 C 0.81201 0.34518 0.95587 0.0
C244 C 0.78909 0.33139 0.96793 0.0
H245 H 0.93348 0.22293 0.91852 0.0
H246 H 0.89915 0.2544 0.9386 0.0
C247 C 0.76838 0.34608 0.98257 0.0
C248 C 0.83356 0.32973 0.93967 0.0
H249 H 0.84323 0.28642 0.88174 0.0
C250 C 0.86087 0.32995 0.95039 0.0
C251 C 0.82727 0.31464 0.91404 0.0
C252 C 0.79867 0.31505 0.90052 0.0
C253 C 0.88185 0.3145 0.93686 0.0
C254 C 0.87517 0.29811 0.91227 0.0
C255 C 0.84817 0.29881 0.90078 0.0
C256 C 0.89556 0.27888 0.89935 0.0
C257 C 0.91095 0.31571 0.94911 0.0
C258 C 0.90421 0.28167 0.8702 0.0
C259 C 0.92387 0.26352 0.85845 0.0
C260 C 0.93503 0.24224 0.87568 0.0
C261 C 0.92564 0.23921 0.90464 0.0
C262 C 0.90608 0.25728 0.91628 0.0
H263 H 0.91439 0.3348 0.96202 0.0
H264 H 0.91425 0.29789 0.96385 0.0
H265 H 0.92671 0.31473 0.9314 0.0
H266 H 0.89605 0.29812 0.85673 0.0
H267 H 0.93056 0.26639 0.83606 0.0
H268 H 0.23554 0.60212 0.43434 0.0
H269 H 0.20218 0.62961 0.40651 0.0
H270 H 0.16725 0.66059 0.48681 0.0
H271 H 0.19995 0.63257 0.51495 0.0
H272 H 0.13904 0.63014 0.4135 0.0
H273 H 0.19287 0.72942 0.43528 0.0
H274 H 0.21024 0.69655 0.43796 0.0
H275 H 0.18703 0.70752 0.46638 0.0
C276 C 0.22047 0.61441 0.44613 0.0
C277 C 0.22041 0.61517 0.4769 0.0
C278 C 0.20158 0.6302 0.43018 0.0
C279 C 0.18257 0.6472 0.4447 0.0
C280 C 0.18208 0.64775 0.47532 0.0
H281 H 0.05775 0.76556 0.40818 0.0
H282 H 0.09339 0.73519 0.42757 0.0
C283 C 0.20082 0.63184 0.49131 0.0
C284 C 0.16336 0.66475 0.42791 0.0
H285 H 0.1486 0.73183 0.41284 0.0
C286 C 0.14116 0.65236 0.41304 0.0
C287 C 0.16646 0.69363 0.42742 0.0
C288 C 0.19053 0.70769 0.4424 0.0
C289 C 0.12109 0.66835 0.39864 0.0
C290 C 0.12383 0.69735 0.3987 0.0
C291 C 0.14658 0.70959 0.41286 0.0
C292 C 0.10231 0.71557 0.38616 0.0
C293 C 0.09655 0.65417 0.38463 0.0
C294 C 0.09569 0.71478 0.3563 0.0
C295 C 0.07507 0.7321 0.34505 0.0
C296 C 0.061 0.75066 0.36348 0.0
C297 C 0.06811 0.75159 0.39329 0.0
C298 C 0.08852 0.73423 0.40447 0.0
H299 H 0.09449 0.63248 0.39198 0.0
H300 H 0.07694 0.66523 0.38971 0.0
H301 H 0.0993 0.65411 0.36056 0.0
H302 H 0.10652 0.70088 0.3417 0.0
H303 H 0.07025 0.73099 0.32196 0.0
H304 H 0.74106 0.88521 0.93877 0.0
H305 H 0.70797 0.8598 0.90839 0.0
H306 H 0.65745 0.84356 0.9843 0.0
H307 H 0.69023 0.86941 0.01482 0.0
H308 H 0.69288 0.80383 0.91606 0.0
H309 H 0.60184 0.87376 0.92284 0.0
H310 H 0.63672 0.8847 0.93179 0.0
H311 H 0.61684 0.86494 0.95756 0.0
C312 C 0.72266 0.87661 0.94891 0.0
C313 C 0.71809 0.87942 0.97914 0.0
C314 C 0.7039 0.86201 0.93157 0.0
C315 C 0.68016 0.85018 0.94408 0.0
C316 C 0.67546 0.85297 0.9742 0.0
H317 H 0.57487 0.71785 0.89637 0.0
H318 H 0.61014 0.74902 0.91557 0.0
C319 C 0.69429 0.86749 0.99162 0.0
C320 C 0.66107 0.83363 0.92591 0.0
H321 H 0.59352 0.82872 0.90382 0.0
C322 C 0.67123 0.80939 0.91309 0.0
C323 C 0.63298 0.84121 0.9218 0.0
C324 C 0.62143 0.8677 0.93398 0.0
C325 C 0.65364 0.79184 0.89728 0.0
C326 C 0.62524 0.7987 0.89448 0.0
C327 C 0.61533 0.82352 0.90619 0.0
C328 C 0.60505 0.77938 0.88147 0.0
C329 C 0.66546 0.76591 0.88405 0.0
C330 C 0.59045 0.7863 0.85599 0.0
C331 C 0.57022 0.76846 0.84484 0.0
C332 C 0.56405 0.74368 0.85934 0.0
C333 C 0.57902 0.7368 0.88471 0.0
C334 C 0.59932 0.75449 0.89564 0.0
H335 H 0.68839 0.76721 0.88149 0.0
H336 H 0.66075 0.74825 0.89859 0.0
H337 H 0.65599 0.76169 0.86237 0.0
H338 H 0.59456 0.80557 0.84491 0.0
H339 H 0.55898 0.77441 0.82534 0.0
H340 H 0.25765 0.15259 0.49669 0.0
H341 H 0.29388 0.17633 0.46902 0.0
H342 H 0.32998 0.09826 0.44505 0.0
H343 H 0.29424 0.07431 0.47345 0.0
H344 H 0.36894 0.13685 0.46345 0.0
H345 H 0.29871 0.18089 0.37971 0.0
H346 H 0.28797 0.18857 0.4164 0.0
H347 H 0.2882 0.15345 0.4039 0.0
C348 C 0.27348 0.14047 0.48583 0.0
C349 C 0.27307 0.11157 0.4872 0.0
C350 C 0.29392 0.15405 0.4697 0.0
C351 C 0.3142 0.139 0.45451 0.0
C352 C 0.31428 0.1102 0.45636 0.0
H353 H 0.4273 0.22225 0.33223 0.0
H354 H 0.39407 0.18908 0.35251 0.0
C355 C 0.29383 0.09658 0.4725 0.0
C356 C 0.33571 0.15349 0.43733 0.0
H357 H 0.34436 0.2005 0.38274 0.0
C358 C 0.36363 0.15051 0.44557 0.0
C359 C 0.32876 0.17085 0.41364 0.0
C360 C 0.29931 0.17345 0.40265 0.0
C361 C 0.38468 0.16561 0.43171 0.0
C362 C 0.37747 0.18439 0.40938 0.0
C363 C 0.34976 0.18628 0.40009 0.0
C364 C 0.39802 0.20374 0.39698 0.0
C365 C 0.4144 0.16158 0.44134 0.0
C366 C 0.41079 0.22314 0.41522 0.0
C367 C 0.42962 0.24207 0.4038 0.0
C368 C 0.436 0.24212 0.37378 0.0
C369 C 0.42295 0.22274 0.35544 0.0
C370 C 0.404 0.20377 0.36696 0.0
H371 H 0.41743 0.14114 0.45172 0.0
H372 H 0.42896 0.16349 0.42262 0.0
H373 H 0.41981 0.17758 0.45771 0.0
H374 H 0.40595 0.22385 0.43833 0.0
H375 H 0.4391 0.25672 0.41861 0.0
H376 H 0.25624 0.88204 0.93862 0.0
H377 H 0.29007 0.85624 0.9096 0.0
H378 H 0.34112 0.84518 0.98614 0.0
H379 H 0.30762 0.87154 0.0153 0.0
H380 H 0.37035 0.86081 0.93241 0.0
H381 H 0.29925 0.77122 0.91925 0.0
H382 H 0.28536 0.80427 0.90931 0.0
H383 H 0.29391 0.79736 0.94677 0.0
C384 C 0.27489 0.87452 0.94919 0.0
C385 C 0.27929 0.87877 0.97926 0.0
C386 C 0.29404 0.8596 0.93264 0.0
C387 C 0.31784 0.84863 0.94586 0.0
C388 C 0.32275 0.85346 0.97564 0.0
H389 H 0.42893 0.71915 0.9012 0.0
H390 H 0.39431 0.75035 0.92153 0.0
C391 C 0.30356 0.86833 0.99226 0.0
C392 C 0.33717 0.83128 0.9289 0.0
H393 H 0.34274 0.76861 0.89569 0.0
C394 C 0.36435 0.84073 0.92417 0.0
C395 C 0.32916 0.80506 0.91845 0.0
C396 C 0.30041 0.79366 0.92381 0.0
C397 C 0.38391 0.82444 0.90939 0.0
C398 C 0.37589 0.7982 0.899 0.0
C399 C 0.34864 0.78888 0.90349 0.0
C400 C 0.39611 0.77915 0.88559 0.0
C401 C 0.41324 0.83494 0.90583 0.0
C402 C 0.40817 0.78485 0.85836 0.0
C403 C 0.42801 0.76698 0.84654 0.0
C404 C 0.4361 0.7432 0.86188 0.0
C405 C 0.42338 0.73735 0.88886 0.0
C406 C 0.40353 0.75511 0.90053 0.0
H407 H 0.41716 0.85369 0.91914 0.0
H408 H 0.42846 0.81884 0.9122 0.0
H409 H 0.41695 0.84009 0.88254 0.0
H410 H 0.40236 0.80319 0.84638 0.0
H411 H 0.43735 0.77207 0.8257 0.0
H412 H 0.70223 0.13056 0.51249 0.0
H413 H 0.66759 0.15717 0.48523 0.0
H414 H 0.71753 0.15036 0.40728 0.0
H415 H 0.75251 0.12439 0.43447 0.0
H416 H 0.69811 0.20372 0.41836 0.0
H417 H 0.6131 0.1266 0.42356 0.0
H418 H 0.62782 0.13526 0.45846 0.0
H419 H 0.64887 0.11816 0.43154 0.0
C420 C 0.70586 0.13488 0.48959 0.0
C421 C 0.72996 0.12523 0.47556 0.0
C422 C 0.68596 0.1498 0.47399 0.0
C423 C 0.68984 0.15526 0.44415 0.0
C424 C 0.71407 0.14609 0.43023 0.0
H425 H 0.55875 0.22326 0.33261 0.0
H426 H 0.59751 0.19497 0.35017 0.0
C427 C 0.73392 0.13115 0.44576 0.0
C428 C 0.66897 0.1712 0.4276 0.0
H429 H 0.60082 0.17147 0.40694 0.0
C430 C 0.67689 0.1966 0.41563 0.0
C431 C 0.64148 0.16158 0.42366 0.0
C432 C 0.6323 0.13379 0.43472 0.0
C433 C 0.65768 0.21318 0.40079 0.0
C434 C 0.62985 0.20419 0.39819 0.0
C435 C 0.62219 0.17833 0.40914 0.0
C436 C 0.60792 0.22212 0.38605 0.0
C437 C 0.66728 0.24025 0.38819 0.0
C438 C 0.60109 0.24667 0.40042 0.0
C439 C 0.57903 0.26276 0.39058 0.0
C440 C 0.56325 0.25457 0.36617 0.0
C441 C 0.57053 0.2302 0.35139 0.0
C442 C 0.59259 0.214 0.36141 0.0
H443 H 0.69012 0.24046 0.38457 0.0
H444 H 0.65668 0.24465 0.36715 0.0
H445 H 0.66217 0.25705 0.40374 0.0
H446 H 0.61237 0.25304 0.41977 0.0
H447 H 0.57408 0.28142 0.40247 0.0
H448 H 0.34263 0.43401 0.99261 0.0
H449 H 0.36726 0.47171 0.96913 0.0
H450 H 0.28972 0.50334 0.93582 0.0
H451 H 0.26456 0.4665 0.96087 0.0
H452 H 0.37019 0.48177 0.91197 0.0
H453 H 0.32479 0.57231 0.96869 0.0
H454 H 0.32007 0.53757 0.9817 0.0
H455 H 0.29961 0.55021 0.95169 0.0
C456 C 0.33064 0.44935 0.98098 0.0
C457 C 0.30154 0.4473 0.97886 0.0
C458 C 0.34482 0.47076 0.96729 0.0
C459 C 0.33032 0.4905 0.95098 0.0
C460 C 0.30128 0.48864 0.94878 0.0
H461 H 0.42292 0.59232 0.82686 0.0
H462 H 0.38879 0.56087 0.84812 0.0
C463 C 0.28698 0.46734 0.96278 0.0
C464 C 0.34603 0.51204 0.93516 0.0
H465 H 0.35514 0.58147 0.92908 0.0
C466 C 0.36687 0.50358 0.91567 0.0
C467 C 0.34174 0.54045 0.94019 0.0
C468 C 0.32052 0.55075 0.9619 0.0
C469 C 0.38397 0.52269 0.90147 0.0
C470 C 0.37946 0.55114 0.90616 0.0
C471 C 0.35833 0.55965 0.92532 0.0
C472 C 0.39773 0.57222 0.89291 0.0
C473 C 0.40739 0.51214 0.88256 0.0
C474 C 0.41302 0.59 0.91096 0.0
C475 C 0.4322 0.6083 0.89887 0.0
C476 C 0.43656 0.609 0.86849 0.0
C477 C 0.42037 0.59195 0.85037 0.0
C478 C 0.40093 0.5739 0.86248 0.0
H479 H 0.41233 0.49025 0.8873 0.0
H480 H 0.40122 0.51355 0.85925 0.0
H481 H 0.42655 0.52454 0.88574 0.0
H482 H 0.41077 0.5891 0.9345 0.0
H483 H 0.44426 0.6212 0.91345 0.0
H484 H 0.65741 0.56047 0.49526 0.0
H485 H 0.62988 0.52415 0.47279 0.0
H486 H 0.70392 0.4901 0.43374 0.0
H487 H 0.73202 0.5255 0.45774 0.0
H488 H 0.62266 0.51434 0.416 0.0
H489 H 0.66894 0.42226 0.46873 0.0
H490 H 0.6757 0.45677 0.48146 0.0
H491 H 0.69365 0.44354 0.44996 0.0
C492 C 0.66803 0.54487 0.48256 0.0
C493 C 0.69702 0.54576 0.47861 0.0
C494 C 0.65218 0.52428 0.46943 0.0
C495 C 0.66487 0.50422 0.45187 0.0
C496 C 0.69376 0.50503 0.4477 0.0
H497 H 0.56251 0.40425 0.3341 0.0
H498 H 0.59739 0.43621 0.35316 0.0
C499 C 0.70974 0.5255 0.46113 0.0
C500 C 0.64744 0.48327 0.43712 0.0
H501 H 0.63594 0.41417 0.43128 0.0
C502 C 0.62557 0.49242 0.4193 0.0
C503 C 0.6512 0.45472 0.44165 0.0
C504 C 0.67347 0.44368 0.46169 0.0
C505 C 0.60701 0.47386 0.40629 0.0
C506 C 0.61099 0.44528 0.41045 0.0
C507 C 0.63311 0.43609 0.42792 0.0
C508 C 0.59138 0.42469 0.39841 0.0
C509 C 0.58271 0.48514 0.38919 0.0
C510 C 0.5773 0.40684 0.41739 0.0
C511 C 0.55772 0.38827 0.40655 0.0
C512 C 0.55171 0.38731 0.37649 0.0
C513 C 0.56636 0.40476 0.35741 0.0
C514 C 0.58622 0.42311 0.36827 0.0
H515 H 0.57865 0.5071 0.39452 0.0
H516 H 0.58736 0.48379 0.36548 0.0
H517 H 0.5635 0.47317 0.39357 0.0
H518 H 0.58104 0.40767 0.44073 0.0
H519 H 0.54684 0.37511 0.42185 0.0
H520 H 0.69492 0.47796 0.01679 0.0
H521 H 0.67054 0.51412 0.98967 0.0
H522 H 0.68344 0.46941 0.90937 0.0
H523 H 0.70709 0.43287 0.93628 0.0
H524 H 0.6868 0.54729 0.93883 0.0
H525 H 0.59762 0.47694 0.91807 0.0
H526 H 0.62378 0.46984 0.94531 0.0
H527 H 0.63117 0.46419 0.90731 0.0
C528 C 0.69265 0.47592 0.99334 0.0
C529 C 0.70272 0.45248 0.9787 0.0
C530 C 0.67893 0.49664 0.97789 0.0
C531 C 0.67496 0.49417 0.94765 0.0
C532 C 0.6861 0.47148 0.93278 0.0
H533 H 0.56836 0.58372 0.82783 0.0
H534 H 0.60358 0.55324 0.84854 0.0
C535 C 0.69981 0.45076 0.94817 0.0
C536 C 0.65757 0.51435 0.93197 0.0
H537 H 0.59536 0.52105 0.89699 0.0
C538 C 0.66683 0.54163 0.92959 0.0
C539 C 0.63157 0.50676 0.92003 0.0
C540 C 0.62023 0.47791 0.92293 0.0
C541 C 0.65073 0.5616 0.91529 0.0
C542 C 0.62457 0.55406 0.90364 0.0
C543 C 0.6155 0.5267 0.90582 0.0
C544 C 0.60555 0.57431 0.89017 0.0
C545 C 0.66196 0.59047 0.9125 0.0
C546 C 0.59509 0.5963 0.90671 0.0
C547 C 0.57497 0.61378 0.89497 0.0
C548 C 0.5647 0.60941 0.86654 0.0
C549 C 0.57569 0.58765 0.84982 0.0
C550 C 0.59587 0.57023 0.86158 0.0
H551 H 0.68496 0.59093 0.91467 0.0
H552 H 0.65613 0.59971 0.89118 0.0
H553 H 0.65309 0.60344 0.93016 0.0
H554 H 0.60182 0.59942 0.92906 0.0
H555 H 0.56696 0.63027 0.90851 0.0
H556 H 0.28117 0.54579 0.44247 0.0
H557 H 0.30402 0.50476 0.42345 0.0
H558 H 0.30697 0.4704 0.51028 0.0
H559 H 0.284 0.51162 0.52957 0.0
H560 H 0.35743 0.47141 0.48403 0.0
H561 H 0.28075 0.42611 0.40792 0.0
H562 H 0.28599 0.46208 0.40111 0.0
H563 H 0.27125 0.45116 0.43536 0.0
C564 C 0.28592 0.52918 0.45742 0.0
C565 C 0.28078 0.53192 0.48753 0.0
C566 C 0.29893 0.50567 0.44649 0.0
C567 C 0.30681 0.48434 0.46537 0.0
C568 C 0.30087 0.48657 0.49532 0.0
H569 H 0.42356 0.3506 0.42525 0.0
H570 H 0.38712 0.37729 0.44942 0.0
C571 C 0.2879 0.51015 0.50631 0.0
C572 C 0.32421 0.46149 0.45427 0.0
H573 H 0.32881 0.41376 0.39967 0.0
C574 C 0.35099 0.45839 0.46599 0.0
C575 C 0.31575 0.44461 0.43068 0.0
C576 C 0.28675 0.44596 0.41824 0.0
C577 C 0.37008 0.43991 0.45373 0.0
C578 C 0.36201 0.4239 0.42935 0.0
C579 C 0.33491 0.4262 0.41831 0.0
C580 C 0.38212 0.40614 0.41387 0.0
C581 C 0.39919 0.43866 0.466 0.0
C582 C 0.39069 0.41312 0.38556 0.0
C583 C 0.41148 0.39796 0.37163 0.0
C584 C 0.42401 0.37545 0.38577 0.0
C585 C 0.41457 0.36793 0.41378 0.0
C586 C 0.39378 0.38316 0.42769 0.0
H587 H 0.40345 0.45579 0.48147 0.0
H588 H 0.402 0.41896 0.47788 0.0
H589 H 0.4148 0.4394 0.44813 0.0
H590 H 0.38184 0.43081 0.37456 0.0
H591 H 0.41806 0.40423 0.35 0.0
H592 H 0.78829 0.94045 0.94755 0.0
H593 H 0.81518 0.97901 0.92835 0.0
H594 H 0.81325 0.01816 0.01297 0.0
H595 H 0.78622 0.9795 0.03245 0.0
H596 H 0.80466 0.03613 0.92619 0.0
H597 H 0.8966 0.01081 0.99499 0.0
H598 H 0.86784 0.98736 0.99036 0.0
H599 H 0.8646 0.01647 0.01435 0.0
C600 C 0.79315 0.95748 0.96198 0.0
C601 C 0.78524 0.95692 0.99155 0.0
C602 C 0.80859 0.97943 0.95099 0.0
C603 C 0.81649 0.00118 0.96935 0.0
C604 C 0.80776 0.00127 -0.00139 0.0
H605 H 0.93466 0.13264 0.93015 0.0
H606 H 0.89837 0.10536 0.95375 0.0
C607 C 0.79235 0.97923 0.00968 0.0
C608 C 0.83491 0.02301 0.95794 0.0
H609 H 0.90082 0.04849 0.96315 0.0
C610 C 0.82561 0.03902 0.93439 0.0
C611 C 0.86222 0.02665 0.96874 0.0
C612 C 0.8736 0.00932 0.99334 0.0
C613 C 0.8431 0.05838 0.92103 0.0
C614 C 0.87065 0.06143 0.93128 0.0
C615 C 0.87965 0.04605 0.95541 0.0
C616 C 0.89107 0.07919 0.91627 0.0
C617 C 0.83202 0.07531 0.89599 0.0
C618 C 0.89901 0.07336 0.88743 0.0
C619 C 0.91978 0.08881 0.87387 0.0
C620 C 0.93312 0.11031 0.88899 0.0
C621 C 0.92485 0.11625 0.91783 0.0
C622 C 0.9041 0.10073 0.93137 0.0
H623 H 0.80895 0.07634 0.89632 0.0
H624 H 0.84046 0.09658 0.8966 0.0
H625 H 0.83841 0.06567 0.87504 0.0
H626 H 0.88959 0.05642 0.87563 0.0
H627 H 0.92561 0.08362 0.85167 0.0
H628 H 0.23645 0.01864 0.47143 0.0
H629 H 0.21092 0.98379 0.44352 0.0
H630 H 0.13334 0.01776 0.47407 0.0
H631 H 0.15846 0.05339 0.50065 0.0
H632 H 0.1745 0.94383 0.46029 0.0
H633 H 0.12228 0.01761 0.3865 0.0
H634 H 0.15085 0.02743 0.40984 0.0
H635 H 0.11605 0.02557 0.42421 0.0
C636 C 0.21394 0.01882 0.47198 0.0
C637 C 0.19951 0.03891 0.48816 0.0
C638 C 0.19942 -0.0012 0.45618 0.0
C639 C 0.17026 -0.00143 0.45627 0.0
C640 C 0.15584 0.01798 0.47316 0.0
H641 H 0.0536 0.87119 0.41637 0.0
H642 H 0.08842 0.90143 0.43804 0.0
C643 C 0.17028 0.03809 0.48874 0.0
C644 C 0.15471 0.97804 0.43882 0.0
H645 H 0.10294 0.97219 0.38833 0.0
C646 C 0.15907 0.94996 0.44429 0.0
C647 C 0.13507 0.98609 0.41747 0.0
C648 C 0.13099 0.01581 0.40891 0.0
C649 C 0.14334 0.92972 0.42993 0.0
C650 C 0.12228 0.93789 0.41016 0.0
C651 C 0.11884 0.96593 0.40376 0.0
C652 C 0.10272 0.91799 0.39677 0.0
C653 C 0.14952 0.89983 0.43605 0.0
C654 C 0.09872 0.91764 0.36638 0.0
C655 C 0.0784 0.90076 0.35395 0.0
C656 C 0.06176 0.88382 0.37169 0.0
C657 C 0.06621 0.8838 0.40206 0.0
C658 C 0.0863 0.90093 0.41449 0.0
H659 H 0.17144 0.89695 0.44308 0.0
H660 H 0.13595 0.89258 0.45407 0.0
H661 H 0.14564 0.88679 0.41653 0.0
H662 H 0.11106 0.93076 0.35231 0.0
H663 H 0.0756 0.90115 0.33046 0.0
H664 H 0.16644 0.93277 0.99667 0.0
H665 H 0.13971 0.96969 0.97398 0.0
H666 H 0.21566 0.01325 0.95451 0.0
H667 H 0.24266 0.97595 0.9769 0.0
H668 H 0.1364 0.02371 0.98816 0.0
H669 H 0.17745 0.01109 0.87539 0.0
H670 H 0.18337 0.98597 0.90372 0.0
H671 H 0.2034 0.01719 0.90287 0.0
C672 C 0.17744 0.95031 0.98774 0.0
C673 C 0.2066 0.95158 0.98858 0.0
C674 C 0.16217 0.97132 0.97469 0.0
C675 C 0.17572 0.99403 0.96226 0.0
C676 C 0.20484 0.99561 0.96343 0.0
H677 H 0.07631 0.13803 0.91378 0.0
H678 H 0.11216 0.10878 0.93536 0.0
C679 C 0.22021 0.97441 0.9763 0.0
C680 C 0.15899 0.01598 0.94838 0.0
H681 H 0.1455 0.04725 0.88315 0.0
C682 C 0.13847 0.029 0.96524 0.0
C683 C 0.16162 0.02258 0.91841 0.0
C684 C 0.18247 0.00835 0.89891 0.0
C685 C 0.12004 0.04801 0.95283 0.0
C686 C 0.12277 0.05476 0.92289 0.0
C687 C 0.14365 0.04216 0.90614 0.0
C688 C 0.10295 0.07346 0.90817 0.0
C689 C 0.09711 0.05973 0.97163 0.0
C690 C 0.0868 0.0637 0.88482 0.0
C691 C 0.06657 0.08047 0.87214 0.0
C692 C 0.06205 0.10728 0.88273 0.0
C693 C 0.07897 0.11733 0.90544 0.0
C694 C 0.09941 0.10063 0.91787 0.0
H695 H 0.09376 0.04734 0.99172 0.0
H696 H 0.10279 0.08092 0.97845 0.0
H697 H 0.07721 0.06073 0.95938 0.0
H698 H 0.08931 0.04281 0.87693 0.0
H699 H 0.05396 0.07213 0.85464 0.0
H700 H 0.7993 0.02055 0.5151 0.0
H701 H 0.82553 0.98406 0.49034 0.0
H702 H 0.82544 0.03161 0.41084 0.0
H703 H 0.80004 0.06842 0.43551 0.0
H704 H 0.81307 0.95336 0.43758 0.0
H705 H 0.90857 0.01716 0.42818 0.0
H706 H 0.88031 0.02594 0.45242 0.0
H707 H 0.87761 0.03287 0.41396 0.0
C708 C 0.80494 0.02323 0.49236 0.0
C709 C 0.79773 0.04742 0.4773 0.0
C710 C 0.81972 0.00232 0.47823 0.0
C711 C 0.82765 0.00538 0.44893 0.0
C712 C 0.81976 0.02907 0.43359 0.0
H713 H 0.93298 0.91343 0.33077 0.0
H714 H 0.89931 0.94519 0.35221 0.0
C715 C 0.80502 0.04995 0.44766 0.0
C716 C 0.84503 0.98426 0.43457 0.0
H717 H 0.90881 0.97424 0.40381 0.0
C718 C 0.83403 0.95782 0.43023 0.0
C719 C 0.87234 0.99026 0.4251 0.0
C720 C 0.88558 0.01801 0.43033 0.0
C721 C 0.84955 0.93726 0.4161 0.0
C722 C 0.87684 0.94332 0.40656 0.0
C723 C 0.88779 0.96975 0.41098 0.0
C724 C 0.89484 0.92247 0.39256 0.0
C725 C 0.8365 0.90943 0.41105 0.0
C726 C 0.90329 0.89909 0.40811 0.0
C727 C 0.92255 0.88086 0.39597 0.0
C728 C 0.93389 0.88583 0.3681 0.0
C729 C 0.92477 0.90896 0.35229 0.0
C730 C 0.90551 0.92715 0.36448 0.0
H731 H 0.81346 0.91033 0.41258 0.0
H732 H 0.84232 0.9011 0.38928 0.0
H733 H 0.84407 0.89488 0.42794 0.0
H734 H 0.89571 0.8954 0.43005 0.0
H735 H 0.9291 0.8633 0.40879 0.0
H736 H 0.25594 0.36983 0.07942 0.0
H737 H 0.2766 0.35322 0.12534 0.0
H738 H 0.35857 0.3643 0.08906 0.0
H739 H 0.33825 0.38078 0.04347 0.0
H740 H 0.31696 0.30907 0.13774 0.0
H741 H 0.35627 0.41361 0.16341 0.0
H742 H 0.32967 0.40741 0.13636 0.0
H743 H 0.36567 0.40187 0.12752 0.0
C744 C 0.27834 0.3684 0.08123 0.0
C745 C 0.29553 0.37707 0.05813 0.0
C746 C 0.29008 0.35894 0.10738 0.0
C747 C 0.31907 0.35802 0.11065 0.0
C748 C 0.33615 0.36537 0.0871 0.0
H749 H 0.43637 0.2869 0.22866 0.0
H750 H 0.40095 0.29394 0.191 0.0
C751 C 0.32452 0.37487 0.06114 0.0
C752 C 0.33194 0.35082 0.13896 0.0
H753 H 0.37603 0.37657 0.19039 0.0
C754 C 0.32959 0.32384 0.14958 0.0
C755 C 0.34794 0.3703 0.15455 0.0
C756 C 0.34987 0.4 0.14508 0.0
C757 C 0.34403 0.31549 0.1748 0.0
C758 C 0.36154 0.33456 0.18927 0.0
C759 C 0.36278 0.36184 0.17925 0.0
C760 C 0.37984 0.32684 0.21406 0.0
C761 C 0.3404 0.2864 0.18559 0.0
C762 C 0.37976 0.34285 0.23961 0.0
C763 C 0.40033 0.33931 0.26074 0.0
C764 C 0.42127 0.31945 0.25691 0.0
C765 C 0.42037 0.30222 0.23226 0.0
C766 C 0.39999 0.3061 0.21082 0.0
H767 H 0.31999 0.27781 0.17879 0.0
H768 H 0.35688 0.27323 0.17596 0.0
H769 H 0.34201 0.28529 0.20976 0.0
H770 H 0.36444 0.35896 0.24261 0.0
H771 H 0.40036 0.35272 0.27967 0.0
H772 H 0.71136 0.6564 0.54282 0.0
H773 H 0.68915 0.67612 0.58613 0.0
H774 H 0.68355 0.59524 0.62445 0.0
H775 H 0.70658 0.57553 0.58172 0.0
H776 H 0.63657 0.66282 0.60206 0.0
H777 H 0.70779 0.64102 0.69391 0.0
H778 H 0.71885 0.63953 0.6562 0.0
H779 H 0.70099 0.61081 0.67252 0.0
C780 C 0.70622 0.64294 0.56088 0.0
C781 C 0.71063 0.61438 0.55884 0.0
C782 C 0.6934 0.65423 0.58553 0.0
C783 C 0.68497 0.63721 0.60864 0.0
C784 C 0.69041 0.60886 0.60717 0.0
H785 H 0.56897 0.62538 0.74455 0.0
H786 H 0.60606 0.6219 0.70856 0.0
C787 C 0.70324 0.59757 0.58257 0.0
C788 C 0.6674 0.64829 0.63247 0.0
H789 H 0.65947 0.64819 0.70657 0.0
C790 C 0.64181 0.66023 0.62494 0.0
C791 C 0.67433 0.64487 0.66227 0.0
C792 C 0.70213 0.63361 0.67171 0.0
C793 C 0.62218 0.66718 0.64637 0.0
C794 C 0.62854 0.66239 0.67608 0.0
C795 C 0.65466 0.65174 0.68372 0.0
C796 C 0.60727 0.6655 0.69917 0.0
C797 C 0.59417 0.67801 0.63696 0.0
C798 C 0.59591 0.69129 0.70608 0.0
C799 C 0.57449 0.69341 0.72667 0.0
C800 C 0.56416 0.66973 0.74067 0.0
C801 C 0.57619 0.64405 0.7341 0.0
C802 C 0.59753 0.642 0.71362 0.0
H803 H 0.59106 0.67642 0.61296 0.0
H804 H 0.5772 0.66659 0.64807 0.0
H805 H 0.5924 0.70001 0.64324 0.0
H806 H 0.60343 0.70971 0.69537 0.0
H807 H 0.56585 0.71352 0.73134 0.0
H808 H 0.65366 0.39237 0.0408 0.0
H809 H 0.62722 0.37664 0.08303 0.0
H810 H 0.7035 0.35642 0.12764 0.0
H811 H 0.73031 0.37332 0.08574 0.0
H812 H 0.62507 0.32615 0.10936 0.0
H813 H 0.66401 0.40578 0.1866 0.0
H814 H 0.6696 0.40793 0.14768 0.0
H815 H 0.69032 0.38506 0.16949 0.0
C816 C 0.66489 0.38494 0.05972 0.0
C817 C 0.69413 0.38454 0.06009 0.0
C818 C 0.64972 0.37569 0.08374 0.0
C819 C 0.66339 0.36574 0.10864 0.0
C820 C 0.69255 0.36451 0.10885 0.0
H821 H 0.56428 0.28739 0.24756 0.0
H822 H 0.59933 0.29495 0.20961 0.0
C823 C 0.70782 0.37391 0.08479 0.0
C824 C 0.64675 0.35702 0.13428 0.0
H825 H 0.63197 0.37359 0.20511 0.0
C826 C 0.6267 0.33633 0.1304 0.0
C827 C 0.64881 0.37056 0.16158 0.0
C828 C 0.66916 0.39373 0.16667 0.0
C829 C 0.60814 0.32927 0.15284 0.0
C830 C 0.61012 0.34289 0.18011 0.0
C831 C 0.63064 0.36308 0.18423 0.0
C832 C 0.58971 0.33812 0.20385 0.0
C833 C 0.58579 0.30824 0.1467 0.0
C834 C 0.57323 0.36003 0.21376 0.0
C835 C 0.55341 0.35588 0.23558 0.0
C836 C 0.54961 0.32966 0.24799 0.0
C837 C 0.56644 0.30778 0.23829 0.0
C838 C 0.58643 0.31202 0.21652 0.0
H839 H 0.58327 0.30437 0.12291 0.0
H840 H 0.59147 0.28848 0.15725 0.0
H841 H 0.56549 0.31501 0.15574 0.0
H842 H 0.57544 0.38035 0.2043 0.0
H843 H 0.5409 0.37323 0.24248 0.0
H844 H 0.25388 0.6278 0.57808 0.0
H845 H 0.27933 0.6497 0.61832 0.0
H846 H 0.35629 0.6173 0.58427 0.0
H847 H 0.33131 0.5964 0.5436 0.0
H848 H 0.31027 0.62527 0.66042 0.0
H849 H 0.37648 0.69701 0.59801 0.0
H850 H 0.34652 0.68032 0.58212 0.0
H851 H 0.37942 0.66267 0.58398 0.0
C852 C 0.27628 0.62572 0.57897 0.0
C853 C 0.29057 0.6103 0.5577 0.0
C854 C 0.29075 0.63816 0.60199 0.0
C855 C 0.31975 0.63557 0.60396 0.0
C856 C 0.334 0.62015 0.5828 0.0
H857 H 0.43283 0.62433 0.7418 0.0
H858 H 0.39597 0.62026 0.7058 0.0
C859 C 0.31962 0.60781 0.55981 0.0
C860 C 0.33519 0.6473 0.62907 0.0
H861 H 0.39361 0.68386 0.64586 0.0
C862 C 0.32816 0.63854 0.65732 0.0
C863 C 0.35813 0.66514 0.62514 0.0
C864 C 0.36538 0.67707 0.59568 0.0
C865 C 0.34474 0.64545 0.68145 0.0
C866 C 0.36924 0.66102 0.67704 0.0
C867 C 0.37507 0.67154 0.64916 0.0
C868 C 0.3905 0.66415 0.70022 0.0
C869 C 0.33618 0.63545 0.71133 0.0
C870 C 0.40025 0.69024 0.70856 0.0
C871 C 0.42172 0.69271 0.72907 0.0
C872 C 0.43392 0.66908 0.74138 0.0
C873 C 0.42392 0.64302 0.73295 0.0
C874 C 0.4026 0.64062 0.71252 0.0
H875 H 0.31325 0.63298 0.71279 0.0
H876 H 0.34569 0.615 0.71539 0.0
H877 H 0.3431 0.64981 0.72876 0.0
H878 H 0.39136 0.70866 0.69906 0.0
H879 H 0.42891 0.71309 0.73501 0.0
H880 H 0.78223 0.84173 0.04808 0.0
H881 H 0.80729 0.82132 0.08922 0.0
H882 H 0.80883 0.90026 0.13244 0.0
H883 H 0.78293 0.92054 0.09198 0.0
H884 H 0.85924 0.83654 0.10479 0.0
H885 H 0.78929 0.8499 0.19951 0.0
H886 H 0.77723 0.85279 0.16226 0.0
H887 H 0.7939 0.88153 0.17996 0.0
C888 C 0.78712 0.85454 0.06677 0.0
C889 C 0.78063 0.88277 0.06678 0.0
C890 C 0.8016 0.84287 0.09017 0.0
C891 C 0.80965 0.85917 0.11406 0.0
C892 C 0.80231 0.88713 0.11457 0.0
H893 H 0.92909 0.86991 0.24729 0.0
H894 H 0.89151 0.87382 0.21189 0.0
C895 C 0.78781 0.89878 0.09125 0.0
C896 C 0.82845 0.84798 0.13676 0.0
H897 H 0.83827 0.84498 0.21055 0.0
C898 C 0.85444 0.83778 0.12792 0.0
C899 C 0.82212 0.8496 0.16689 0.0
C900 C 0.79399 0.85878 0.1777 0.0
C901 C 0.87493 0.8308 0.14843 0.0
C902 C 0.86909 0.83386 0.17852 0.0
C903 C 0.84267 0.84279 0.18741 0.0
C904 C 0.891 0.83054 0.20088 0.0
C905 C 0.90317 0.82172 0.13778 0.0
C906 C 0.90297 0.80477 0.20659 0.0
C907 C 0.92461 0.8024 0.22688 0.0
C908 C 0.93461 0.82579 0.24172 0.0
C909 C 0.92213 0.85146 0.23617 0.0
C910 C 0.90052 0.85376 0.21603 0.0
H911 H 0.9055 0.82415 0.11377 0.0
H912 H 0.9198 0.83372 0.14881 0.0
H913 H 0.9063 0.7997 0.14326 0.0
H914 H 0.89566 0.78657 0.19526 0.0
H915 H 0.93363 0.7823 0.23071 0.0
H916 H 0.2002 0.06615 0.59222 0.0
H917 H 0.17453 0.08471 0.63394 0.0
H918 H 0.18367 0.16675 0.59938 0.0
H919 H 0.20856 0.14825 0.55704 0.0
H920 H 0.18719 0.12501 0.67673 0.0
H921 H 0.09904 0.15643 0.60531 0.0
H922 H 0.12636 0.13388 0.59278 0.0
H923 H 0.13251 0.17023 0.59584 0.0
C924 C 0.19682 0.08815 0.59355 0.0
C925 C 0.20609 0.10569 0.57115 0.0
C926 C 0.18233 0.09874 0.61748 0.0
C927 C 0.1768 0.12702 0.61943 0.0
C928 C 0.18734 0.1448 0.59799 0.0
H929 H 0.05912 0.20472 0.74103 0.0
H930 H 0.09605 0.19899 0.70462 0.0
C931 C 0.20181 0.13422 0.57398 0.0
C932 C 0.15859 0.13744 0.64305 0.0
H933 H 0.09402 0.16407 0.6557 0.0
C934 C 0.16693 0.13381 0.67217 0.0
C935 C 0.13219 0.14895 0.63697 0.0
C936 C 0.12178 0.15247 0.60608 0.0
C937 C 0.14929 0.14086 0.69543 0.0
C938 C 0.12251 0.1514 0.68932 0.0
C939 C 0.1146 0.15603 0.66025 0.0
C940 C 0.10148 0.15544 0.71254 0.0
C941 C 0.15935 0.1367 0.72634 0.0
C942 C 0.09216 0.13279 0.72876 0.0
C943 C 0.07106 0.13591 0.7494 0.0
C944 C 0.05869 0.16178 0.75419 0.0
C945 C 0.06819 0.18452 0.73796 0.0
C946 C 0.0893 0.18132 0.71718 0.0
H947 H 0.18242 0.13676 0.72752 0.0
H948 H 0.15117 0.15293 0.74112 0.0
H949 H 0.15195 0.11645 0.73438 0.0
H950 H 0.10083 0.11251 0.72503 0.0
H951 H 0.06433 0.11792 0.76143 0.0
H952 H 0.21838 0.83909 0.05011 0.0
H953 H 0.19418 0.81868 0.09186 0.0
H954 H 0.18644 0.89896 0.13135 0.0
H955 H 0.21155 0.91936 0.09032 0.0
H956 H 0.1979 0.85701 0.17179 0.0
H957 H 0.11001 0.82958 0.09801 0.0
H958 H 0.14334 0.81551 0.08847 0.0
H959 H 0.13785 0.85204 0.08671 0.0
C960 C 0.21218 0.8523 0.06804 0.0
C961 C 0.21656 0.88091 0.06677 0.0
C962 C 0.19809 0.84063 0.09172 0.0
C963 C 0.18801 0.85741 0.11433 0.0
C964 C 0.19388 0.88568 0.11398 0.0
H965 H 0.07301 0.86847 0.25207 0.0
H966 H 0.11128 0.8721 0.21747 0.0
C967 C 0.20804 0.89733 0.09044 0.0
C968 C 0.1695 0.84621 0.13725 0.0
H969 H 0.10398 0.82117 0.148 0.0
C970 C 0.1775 0.84883 0.16661 0.0
C971 C 0.1429 0.83552 0.13038 0.0
C972 C 0.1328 0.83312 0.09923 0.0
C973 C 0.15925 0.84182 0.18934 0.0
C974 C 0.13225 0.83232 0.18245 0.0
C975 C 0.12474 0.82842 0.15313 0.0
C976 C 0.1105 0.82913 0.20503 0.0
C977 C 0.1688 0.84516 0.22054 0.0
C978 C 0.09703 0.80381 0.20914 0.0
C979 C 0.07493 0.80163 0.2289 0.0
C980 C 0.06571 0.82488 0.24453 0.0
C981 C 0.07946 0.85014 0.24039 0.0
C982 C 0.10157 0.85223 0.22082 0.0
H983 H 0.19183 0.84423 0.22222 0.0
H984 H 0.16201 0.86556 0.22881 0.0
H985 H 0.15969 0.82905 0.23482 0.0
H986 H 0.10346 0.78583 0.19686 0.0
H987 H 0.06479 0.78188 0.23151 0.0
H988 H 0.79244 0.07043 0.58208 0.0
H989 H 0.81637 0.08479 0.62673 0.0
H990 H 0.81834 0.1685 0.59557 0.0
H991 H 0.79445 0.15427 0.55079 0.0
H992 H 0.86935 0.10821 0.62511 0.0
H993 H 0.79458 0.1774 0.68156 0.0
H994 H 0.78401 0.15327 0.65361 0.0
H995 H 0.80066 0.185 0.64366 0.0
C996 C 0.79766 0.09196 0.58492 0.0
C997 C 0.79169 0.1112 0.56288 0.0
C998 C 0.8112 0.10015 0.61046 0.0
C999 C 0.81892 0.12773 0.61455 0.0
C1000 C 0.81206 0.14722 0.59312 0.0
H1001 H 0.93199 0.20385 0.74022 0.0
H1002 H 0.898 0.19623 0.70106 0.0
C1003 C 0.79844 0.13904 0.56753 0.0
C1004 C 0.83678 0.13536 0.63964 0.0
H1005 H 0.84035 0.17535 0.70101 0.0
C1006 C 0.86295 0.1228 0.64177 0.0
C1007 C 0.82848 0.15466 0.6611 0.0
C1008 C 0.80032 0.16825 0.66013 0.0
C1009 C 0.88109 0.12896 0.66479 0.0
C1010 C 0.87265 0.14786 0.68657 0.0
C1011 C 0.84666 0.16082 0.68428 0.0
C1012 C 0.89049 0.15362 0.71218 0.0
C1013 C 0.90932 0.11539 0.66545 0.0
C1014 C 0.89671 0.13245 0.73188 0.0
C1015 C 0.91611 0.13664 0.75408 0.0
C1016 C 0.92958 0.1622 0.75718 0.0
C1017 C 0.92211 0.1839 0.73838 0.0
C1018 C 0.90269 0.17961 0.71603 0.0
H1019 H 0.91523 0.10701 0.64371 0.0
H1020 H 0.92559 0.13013 0.67264 0.0
H1021 H 0.90889 0.09804 0.6812 0.0
H1022 H 0.88713 0.11238 0.72953 0.0
H1023 H 0.92101 0.11957 0.76839 0.0
loop_
_geom_bond_atom_site_label_1
_geom_bond_atom_site_label_2
_geom_bond_distance
_geom_bond_site_symmetry_2
_ccdc_geom_bond_type
H0 C3 0.931 . S
H1 C6 0.928 . S
H2 C8 0.930 . S
C3 H0 0.931 . S
C3 C4 1.413 . S
C3 C5 1.360 1_554 S
C4 C3 1.413 . S
C4 C8 1.429 . S
C5 C3 1.360 1_556 S
C5 C6 1.372 . S
C6 H1 0.928 . S
C6 C5 1.372 . S
C6 C7 1.419 . S
C7 C6 1.419 . S
C7 C8 1.364 1_556 S
C8 H2 0.930 . S
C8 C4 1.429 . S
C8 C7 1.364 1_554 S
H9 C12 0.931 . S
H10 C15 0.928 . S
H11 C17 0.930 . S
C12 H9 0.931 . S
C12 C13 1.413 . S
C12 C14 1.360 . S
C13 C12 1.413 . S
C13 C17 1.429 . S
C14 C12 1.360 . S
C14 C15 1.372 . S
C15 H10 0.928 . S
C15 C14 1.372 . S
C15 C16 1.404 . S
C16 C15 1.404 . S
C16 C17 1.391 . S
C17 H11 0.930 . S
C17 C13 1.429 . S
C17 C16 1.391 . S
H18 C21 0.931 . S
H19 C24 0.928 . S
H20 C26 0.930 . S
C21 H18 0.931 . S
C21 C22 1.413 1_554 S
C21 C23 1.360 . S
C22 C21 1.413 1_556 S
C22 C26 1.429 . S
C23 C21 1.360 . S
C23 C24 1.372 . S
C24 H19 0.928 . S
C24 C23 1.372 . S
C24 C25 1.389 1_554 S
C25 C24 1.389 1_556 S
C25 C26 1.399 . S
C26 H20 0.930 . S
C26 C22 1.429 . S
C26 C25 1.399 . S
H27 C30 0.931 . S
H28 C33 0.928 . S
H29 C35 0.930 . S
C30 H27 0.931 . S
C30 C31 1.413 . S
C30 C32 1.360 . S
C31 C30 1.413 . S
C31 C35 1.429 . S
C32 C30 1.360 . S
C32 C33 1.372 . S
C33 H28 0.928 . S
C33 C32 1.372 . S
C33 C34 1.404 . S
C34 C33 1.404 . S
C34 C35 1.391 . S
C35 H29 0.930 . S
C35 C31 1.429 . S
C35 C34 1.391 . S
H36 C39 0.931 . S
H37 C42 0.928 . S
H38 C44 0.930 . S
C39 H36 0.931 . S
C39 C40 1.413 . S
C39 C41 1.360 1_554 S
C40 C39 1.413 . S
C40 C44 1.429 . S
C41 C39 1.360 1_556 S
C41 C42 1.372 . S
C42 H37 0.928 . S
C42 C41 1.372 . S
C42 C43 1.419 . S
C43 C42 1.419 . S
C43 C44 1.364 1_556 S
C44 H38 0.930 . S
C44 C40 1.429 . S
C44 C43 1.364 1_554 S
H45 C48 0.931 . S
H46 C51 0.928 . S
H47 C53 0.930 . S
C48 H45 0.931 . S
C48 C49 1.413 . S
C48 C50 1.360 . S
C49 C48 1.413 . S
C49 C53 1.429 . S
C50 C48 1.360 . S
C50 C51 1.372 . S
C51 H46 0.928 . S
C51 C50 1.372 . S
C51 C52 1.404 . S
C52 C51 1.404 . S
C52 C53 1.391 . S
C53 H47 0.930 . S
C53 C49 1.429 . S
C53 C52 1.391 . S
H54 C57 0.931 . S
H55 C60 0.928 . S
H56 C62 0.930 . S
C57 H54 0.931 . S
C57 C58 1.413 1_554 S
C57 C59 1.360 . S
C58 C57 1.413 1_556 S
C58 C62 1.429 . S
C59 C57 1.360 . S
C59 C60 1.372 . S
C60 H55 0.928 . S
C60 C59 1.372 . S
C60 C61 1.390 1_554 S
C61 C60 1.390 1_556 S
C61 C62 1.399 . S
C62 H56 0.930 . S
C62 C58 1.429 . S
C62 C61 1.399 . S
H63 C66 0.931 . S
H64 C69 0.928 . S
H65 C71 0.930 . S
C66 H63 0.931 . S
C66 C67 1.413 . S
C66 C68 1.360 . S
C67 C66 1.413 . S
C67 C71 1.429 . S
C68 C66 1.360 . S
C68 C69 1.372 . S
C69 H64 0.928 . S
C69 C68 1.372 . S
C69 C70 1.404 . S
C70 C69 1.404 . S
C70 C71 1.391 . S
C71 H65 0.930 . S
C71 C67 1.429 . S
C71 C70 1.391 . S
Sc72 O75 2.025 . S
Sc72 O82 2.091 1_455 S
Sc72 O85 2.119 . S
Sc72 O88 2.119 . S
Sc72 O91 2.090 1_455 S
Sc73 O75 2.025 . S
Sc73 O83 2.090 1_455 S
Sc73 O87 2.120 . S
Sc73 O89 2.120 . S
Sc73 O93 2.090 1_455 S
Sc74 O75 2.025 . S
Sc74 O84 2.091 1_455 S
Sc74 O86 2.119 . S
Sc74 O90 2.119 . S
Sc74 O92 2.091 1_455 S
O75 Sc72 2.025 . S
O75 Sc73 2.025 . S
O75 Sc74 2.025 . S
C76 O82 1.268 . S
C76 O92 1.268 . S
C77 O83 1.268 . S
C77 O91 1.268 . S
C78 O84 1.268 . S
C78 O93 1.268 . S
C79 O85 1.268 . S
C79 O89 1.268 . S
C80 O86 1.268 . S
C80 O88 1.268 . S
C81 O87 1.268 . S
C81 O90 1.268 . S
O82 Sc72 2.091 1_655 S
O82 C76 1.268 . S
O83 Sc73 2.090 1_655 S
O83 C77 1.268 . S
O84 Sc74 2.091 1_655 S
O84 C78 1.268 . S
O85 Sc72 2.119 . S
O85 C79 1.268 . S
O86 Sc74 2.119 . S
O86 C80 1.268 . S
O87 Sc73 2.120 . S
O87 C81 1.268 . S
O88 Sc72 2.119 . S
O88 C80 1.268 . S
O89 Sc73 2.120 . S
O89 C79 1.268 . S
O90 Sc74 2.119 . S
O90 C81 1.268 . S
O91 Sc72 2.090 1_655 S
O91 C77 1.268 . S
O92 Sc74 2.091 1_655 S
O92 C76 1.268 . S
O93 Sc73 2.090 1_655 S
O93 C78 1.268 . S
Sc94 O97 2.025 . S
Sc94 O104 2.113 . S
Sc94 O107 2.097 1_455 S
Sc94 O110 2.097 1_455 S
Sc94 O113 2.113 . S
Sc95 O97 2.025 . S
Sc95 O105 2.112 . S
Sc95 O109 2.097 1_455 S
Sc95 O111 2.097 1_455 S
Sc95 O115 2.112 . S
Sc96 O97 2.025 . S
Sc96 O106 2.112 . S
Sc96 O108 2.098 1_455 S
Sc96 O112 2.098 1_455 S
Sc96 O114 2.112 . S
O97 Sc94 2.025 . S
O97 Sc95 2.025 . S
O97 Sc96 2.025 . S
C98 O104 1.268 . S
C98 O114 1.268 . S
C99 O105 1.268 . S
C99 O113 1.268 . S
C100 O106 1.268 . S
C100 O115 1.268 . S
C101 O107 1.268 . S
C101 O111 1.268 . S
C102 O108 1.268 . S
C102 O110 1.268 . S
C103 O109 1.268 . S
C103 O112 1.268 . S
O104 Sc94 2.113 . S
O104 C98 1.268 . S
O105 Sc95 2.112 . S
O105 C99 1.268 . S
O106 Sc96 2.112 . S
O106 C100 1.268 . S
O107 Sc94 2.097 1_655 S
O107 C101 1.268 . S
O108 Sc96 2.098 1_655 S
O108 C102 1.268 . S
O109 Sc95 2.097 1_655 S
O109 C103 1.268 . S
O110 Sc94 2.097 1_655 S
O110 C102 1.268 . S
O111 Sc95 2.097 1_655 S
O111 C101 1.268 . S
O112 Sc96 2.098 1_655 S
O112 C103 1.268 . S
O113 Sc94 2.113 . S
O113 C99 1.268 . S
O114 Sc96 2.112 . S
O114 C98 1.268 . S
O115 Sc95 2.112 . S
O115 C100 1.268 . S
Sc116 O119 2.025 . S
Sc116 O126 2.105 . S
Sc116 O129 2.105 . S
Sc116 O132 2.105 . S
Sc116 O135 2.105 . S
Sc117 O119 2.025 . S
Sc117 O127 2.105 . S
Sc117 O131 2.105 . S
Sc117 O133 2.105 . S
Sc117 O137 2.105 . S
Sc118 O119 2.025 . S
Sc118 O128 2.105 . S
Sc118 O130 2.105 . S
Sc118 O134 2.105 . S
Sc118 O136 2.105 . S
O119 Sc116 2.025 . S
O119 Sc117 2.025 . S
O119 Sc118 2.025 . S
C120 O126 1.268 . S
C120 O136 1.268 . S
C121 O127 1.268 . S
C121 O135 1.268 . S
C122 O128 1.268 . S
C122 O137 1.268 . S
C123 O129 1.268 . S
C123 O133 1.268 . S
C124 O130 1.268 . S
C124 O132 1.268 . S
C125 O131 1.268 . S
C125 O134 1.268 . S
O126 Sc116 2.105 . S
O126 C120 1.268 . S
O127 Sc117 2.105 . S
O127 C121 1.268 . S
O128 Sc118 2.105 . S
O128 C122 1.268 . S
O129 Sc116 2.105 . S
O129 C123 1.268 . S
O130 Sc118 2.105 . S
O130 C124 1.268 . S
O131 Sc117 2.105 . S
O131 C125 1.268 . S
O132 Sc116 2.105 . S
O132 C124 1.268 . S
O133 Sc117 2.105 . S
O133 C123 1.268 . S
O134 Sc118 2.105 . S
O134 C125 1.268 . S
O135 Sc116 2.105 . S
O135 C121 1.268 . S
O136 Sc118 2.105 . S
O136 C120 1.268 . S
O137 Sc117 2.105 . S
O137 C122 1.268 . S
Sc138 O141 2.025 . S
Sc138 O148 2.105 . S
Sc138 O151 2.105 . S
Sc138 O154 2.105 . S
Sc138 O157 2.105 . S
Sc139 O141 2.025 . S
Sc139 O149 2.105 . S
Sc139 O153 2.105 . S
Sc139 O155 2.105 . S
Sc139 O159 2.105 . S
Sc140 O141 2.025 . S
Sc140 O150 2.105 . S
Sc140 O152 2.105 . S
Sc140 O156 2.105 . S
Sc140 O158 2.105 . S
O141 Sc138 2.025 . S
O141 Sc139 2.025 . S
O141 Sc140 2.025 . S
C142 O148 1.268 . S
C142 O158 1.268 . S
C143 O149 1.268 . S
C143 O157 1.268 . S
C144 O150 1.268 . S
C144 O159 1.268 . S
C145 O151 1.268 . S
C145 O155 1.268 . S
C146 O152 1.268 . S
C146 O154 1.268 . S
C147 O153 1.268 . S
C147 O156 1.268 . S
O148 Sc138 2.105 . S
O148 C142 1.268 . S
O149 Sc139 2.105 . S
O149 C143 1.268 . S
O150 Sc140 2.105 . S
O150 C144 1.268 . S
O151 Sc138 2.105 . S
O151 C145 1.268 . S
O152 Sc140 2.105 . S
O152 C146 1.268 . S
O153 Sc139 2.105 . S
O153 C147 1.268 . S
O154 Sc138 2.105 . S
O154 C146 1.268 . S
O155 Sc139 2.105 . S
O155 C145 1.268 . S
O156 Sc140 2.105 . S
O156 C147 1.268 . S
O157 Sc138 2.105 . S
O157 C143 1.268 . S
O158 Sc140 2.105 . S
O158 C142 1.268 . S
O159 Sc139 2.105 . S
O159 C144 1.268 . S
H160 C168 0.929 . S
H161 C170 0.930 . S
H162 C172 0.930 . S
H163 C175 0.917 1_554 S
H164 C178 0.930 . S
H165 C180 0.960 . S
H166 C180 0.960 . S
H167 C180 0.960 . S
C168 H160 0.929 . S
C168 C169 1.377 . S
C168 C170 1.384 . S
C169 C168 1.377 . S
C169 C175 1.396 . S
C170 H161 0.930 . S
C170 C168 1.384 . S
C170 C171 1.372 . S
C171 C170 1.372 . S
C171 C172 1.400 . S
C171 C176 1.490 . S
C172 H162 0.930 . S
C172 C171 1.400 . S
C172 C175 1.392 . S
H173 C189 0.930 . S
H174 C190 0.931 . S
C175 H163 0.917 1_556 S
C175 C169 1.396 . S
C175 C172 1.392 . S
C176 C171 1.490 . S
C176 C178 1.395 . S
C176 C179 1.403 . S
H177 C183 0.930 . S
C178 H164 0.930 . S
C178 C176 1.395 . S
C178 C181 1.403 . S
C179 C176 1.403 . S
C179 C180 1.524 . S
C179 C183 1.400 . S
C180 H165 0.960 . S
C180 H166 0.960 . S
C180 H167 0.960 . S
C180 C179 1.524 . S
C181 C178 1.403 . S
C181 C182 1.392 . S
C181 C185 1.495 . S
C182 C181 1.392 . S
C182 C183 1.385 . S
C182 C184 1.478 . S
C183 H177 0.930 . S
C183 C179 1.400 . S
C183 C182 1.385 . S
C184 C182 1.478 . S
C184 C186 1.381 . S
C184 C190 1.383 . S
C185 C181 1.495 . S
C185 H191 0.959 . S
C185 H192 0.961 . S
C185 H193 0.960 . S
C186 C184 1.381 . S
C186 C187 1.394 . S
C186 H194 0.930 . S
C187 C186 1.394 . S
C187 C188 1.383 . S
C187 H195 0.929 . S
C188 C187 1.383 . S
C188 C189 1.377 . S
C189 H173 0.930 . S
C189 C188 1.377 . S
C189 C190 1.379 . S
C190 H174 0.931 . S
C190 C184 1.383 . S
C190 C189 1.379 . S
H191 C185 0.959 . S
H192 C185 0.961 . S
H193 C185 0.960 . S
H194 C186 0.930 . S
H195 C187 0.929 . S
H196 C204 0.929 . S
H197 C206 0.930 . S
H198 C208 0.930 . S
H199 C211 0.929 . S
H200 C214 0.930 . S
H201 C216 0.960 . S
H202 C216 0.960 . S
H203 C216 0.960 . S
C204 H196 0.929 . S
C204 C205 1.377 . S
C204 C206 1.384 . S
C205 C204 1.377 . S
C205 C211 1.390 . S
C206 H197 0.930 . S
C206 C204 1.384 . S
C206 C207 1.372 . S
C207 C206 1.372 . S
C207 C208 1.400 . S
C207 C212 1.490 . S
C208 H198 0.930 . S
C208 C207 1.400 . S
C208 C211 1.386 . S
H209 C225 0.930 . S
H210 C226 0.931 . S
C211 H199 0.929 . S
C211 C205 1.390 . S
C211 C208 1.386 . S
C212 C207 1.490 . S
C212 C214 1.395 . S
C212 C215 1.403 . S
H213 C219 0.930 . S
C214 H200 0.930 . S
C214 C212 1.395 . S
C214 C217 1.403 . S
C215 C212 1.403 . S
C215 C216 1.524 . S
C215 C219 1.400 . S
C216 H201 0.960 . S
C216 H202 0.960 . S
C216 H203 0.960 . S
C216 C215 1.524 . S
C217 C214 1.403 . S
C217 C218 1.392 . S
C217 C221 1.495 . S
C218 C217 1.392 . S
C218 C219 1.385 . S
C218 C220 1.478 . S
C219 H213 0.930 . S
C219 C215 1.400 . S
C219 C218 1.385 . S
C220 C218 1.478 . S
C220 C222 1.381 . S
C220 C226 1.383 . S
C221 C217 1.495 . S
C221 H227 0.959 . S
C221 H228 0.961 . S
C221 H229 0.960 . S
C222 C220 1.381 . S
C222 C223 1.394 . S
C222 H230 0.930 . S
C223 C222 1.394 . S
C223 C224 1.383 . S
C223 H231 0.929 . S
C224 C223 1.383 . S
C224 C225 1.377 . S
C225 H209 0.930 . S
C225 C224 1.377 . S
C225 C226 1.379 . S
C226 H210 0.931 . S
C226 C220 1.383 . S
C226 C225 1.379 . S
H227 C221 0.959 . S
H228 C221 0.961 . S
H229 C221 0.960 . S
H230 C222 0.930 . S
H231 C223 0.929 . S
H232 C240 0.914 1_554 S
H233 C242 0.930 . S
H234 C244 0.930 . S
H235 C247 0.929 . S
H236 C250 0.930 . S
H237 C252 0.960 . S
H238 C252 0.960 . S
H239 C252 0.960 . S
C240 H232 0.914 1_556 S
C240 C241 1.377 . S
C240 C242 1.384 . S
C241 C240 1.377 . S
C241 C247 1.390 . S
C242 H233 0.930 . S
C242 C240 1.384 . S
C242 C243 1.372 . S
C243 C242 1.372 . S
C243 C244 1.400 . S
C243 C248 1.490 . S
C244 H234 0.930 . S
C244 C243 1.400 . S
C244 C247 1.386 . S
H245 C261 0.930 . S
H246 C262 0.931 . S
C247 H235 0.929 . S
C247 C241 1.390 . S
C247 C244 1.386 . S
C248 C243 1.490 . S
C248 C250 1.395 . S
C248 C251 1.403 . S
H249 C255 0.930 . S
C250 H236 0.930 . S
C250 C248 1.395 . S
C250 C253 1.403 . S
C251 C248 1.403 . S
C251 C252 1.524 . S
C251 C255 1.400 . S
C252 H237 0.960 . S
C252 H238 0.960 . S
C252 H239 0.960 . S
C252 C251 1.524 . S
C253 C250 1.403 . S
C253 C254 1.392 . S
C253 C257 1.495 . S
C254 C253 1.392 . S
C254 C255 1.385 . S
C254 C256 1.478 . S
C255 H249 0.930 . S
C255 C251 1.400 . S
C255 C254 1.385 . S
C256 C254 1.478 . S
C256 C258 1.381 . S
C256 C262 1.383 . S
C257 C253 1.495 . S
C257 H263 0.959 . S
C257 H264 0.961 . S
C257 H265 0.960 . S
C258 C256 1.381 . S
C258 C259 1.394 . S
C258 H266 0.930 . S
C259 C258 1.394 . S
C259 C260 1.383 . S
C259 H267 0.929 . S
C260 C259 1.383 . S
C260 C261 1.377 . S
C261 H245 0.930 . S
C261 C260 1.377 . S
C261 C262 1.379 . S
C262 H246 0.931 . S
C262 C256 1.383 . S
C262 C261 1.379 . S
H263 C257 0.959 . S
H264 C257 0.961 . S
H265 C257 0.960 . S
H266 C258 0.930 . S
H267 C259 0.929 . S
H268 C276 0.929 . S
H269 C278 0.930 . S
H270 C280 0.930 . S
H271 C283 0.929 . S
H272 C286 0.930 . S
H273 C288 0.960 . S
H274 C288 0.960 . S
H275 C288 0.960 . S
C276 H268 0.929 . S
C276 C277 1.377 . S
C276 C278 1.384 . S
C277 C276 1.377 . S
C277 C283 1.390 . S
C278 H269 0.930 . S
C278 C276 1.384 . S
C278 C279 1.372 . S
C279 C278 1.372 . S
C279 C280 1.400 . S
C279 C284 1.490 . S
C280 H270 0.930 . S
C280 C279 1.400 . S
C280 C283 1.386 . S
H281 C297 0.930 . S
H282 C298 0.931 . S
C283 H271 0.929 . S
C283 C277 1.390 . S
C283 C280 1.386 . S
C284 C279 1.490 . S
C284 C286 1.395 . S
C284 C287 1.403 . S
H285 C291 0.930 . S
C286 H272 0.930 . S
C286 C284 1.395 . S
C286 C289 1.403 . S
C287 C284 1.403 . S
C287 C288 1.524 . S
C287 C291 1.400 . S
C288 H273 0.960 . S
C288 H274 0.960 . S
C288 H275 0.960 . S
C288 C287 1.524 . S
C289 C286 1.403 . S
C289 C290 1.392 . S
C289 C293 1.495 . S
C290 C289 1.392 . S
C290 C291 1.385 . S
C290 C292 1.478 . S
C291 H285 0.930 . S
C291 C287 1.400 . S
C291 C290 1.385 . S
C292 C290 1.478 . S
C292 C294 1.381 . S
C292 C298 1.383 . S
C293 C289 1.495 . S
C293 H299 0.959 . S
C293 H300 0.961 . S
C293 H301 0.960 . S
C294 C292 1.381 . S
C294 C295 1.394 . S
C294 H302 0.930 . S
C295 C294 1.394 . S
C295 C296 1.383 . S
C295 H303 0.929 . S
C296 C295 1.383 . S
C296 C297 1.377 . S
C297 H281 0.930 . S
C297 C296 1.377 . S
C297 C298 1.379 . S
C298 H282 0.931 . S
C298 C292 1.383 . S
C298 C297 1.379 . S
H299 C293 0.959 . S
H300 C293 0.961 . S
H301 C293 0.960 . S
H302 C294 0.930 . S
H303 C295 0.929 . S
H304 C312 0.929 . S
H305 C314 0.930 . S
H306 C316 0.930 . S
H307 C319 0.929 1_554 S
H308 C322 0.930 . S
H309 C324 0.960 . S
H310 C324 0.960 . S
H311 C324 0.960 . S
C312 H304 0.929 . S
C312 C313 1.377 . S
C312 C314 1.384 . S
C313 C312 1.377 . S
C313 C319 1.390 . S
C314 H305 0.930 . S
C314 C312 1.384 . S
C314 C315 1.372 . S
C315 C314 1.372 . S
C315 C316 1.400 . S
C315 C320 1.490 . S
C316 H306 0.930 . S
C316 C315 1.400 . S
C316 C319 1.386 . S
H317 C333 0.930 . S
H318 C334 0.931 . S
C319 H307 0.929 1_556 S
C319 C313 1.390 . S
C319 C316 1.386 . S
C320 C315 1.490 . S
C320 C322 1.395 . S
C320 C323 1.403 . S
H321 C327 0.930 . S
C322 H308 0.930 . S
C322 C320 1.395 . S
C322 C325 1.403 . S
C323 C320 1.403 . S
C323 C324 1.524 . S
C323 C327 1.400 . S
C324 H309 0.960 . S
C324 H310 0.960 . S
C324 H311 0.960 . S
C324 C323 1.524 . S
C325 C322 1.403 . S
C325 C326 1.392 . S
C325 C329 1.495 . S
C326 C325 1.392 . S
C326 C327 1.385 . S
C326 C328 1.478 . S
C327 H321 0.930 . S
C327 C323 1.400 . S
C327 C326 1.385 . S
C328 C326 1.478 . S
C328 C330 1.381 . S
C328 C334 1.383 . S
C329 C325 1.495 . S
C329 H335 0.959 . S
C329 H336 0.961 . S
C329 H337 0.960 . S
C330 C328 1.381 . S
C330 C331 1.394 . S
C330 H338 0.930 . S
C331 C330 1.394 . S
C331 C332 1.383 . S
C331 H339 0.929 . S
C332 C331 1.383 . S
C332 C333 1.377 . S
C333 H317 0.930 . S
C333 C332 1.377 . S
C333 C334 1.379 . S
C334 H318 0.931 . S
C334 C328 1.383 . S
C334 C333 1.379 . S
H335 C329 0.959 . S
H336 C329 0.961 . S
H337 C329 0.960 . S
H338 C330 0.930 . S
H339 C331 0.929 . S
H340 C348 0.929 . S
H341 C350 0.930 . S
H342 C352 0.930 . S
H343 C355 0.929 . S
H344 C358 0.930 . S
H345 C360 0.960 . S
H346 C360 0.960 . S
H347 C360 0.960 . S
C348 H340 0.929 . S
C348 C349 1.377 . S
C348 C350 1.384 . S
C349 C348 1.377 . S
C349 C355 1.390 . S
C350 H341 0.930 . S
C350 C348 1.384 . S
C350 C351 1.372 . S
C351 C350 1.372 . S
C351 C352 1.400 . S
C351 C356 1.490 . S
C352 H342 0.930 . S
C352 C351 1.400 . S
C352 C355 1.386 . S
H353 C369 0.930 . S
H354 C370 0.931 . S
C355 H343 0.929 . S
C355 C349 1.390 . S
C355 C352 1.386 . S
C356 C351 1.490 . S
C356 C358 1.395 . S
C356 C359 1.403 . S
H357 C363 0.930 . S
C358 H344 0.930 . S
C358 C356 1.395 . S
C358 C361 1.403 . S
C359 C356 1.403 . S
C359 C360 1.524 . S
C359 C363 1.400 . S
C360 H345 0.960 . S
C360 H346 0.960 . S
C360 H347 0.960 . S
C360 C359 1.524 . S
C361 C358 1.403 . S
C361 C362 1.392 . S
C361 C365 1.495 . S
C362 C361 1.392 . S
C362 C363 1.385 . S
C362 C364 1.478 . S
C363 H357 0.930 . S
C363 C359 1.400 . S
C363 C362 1.385 . S
C364 C362 1.478 . S
C364 C366 1.381 . S
C364 C370 1.383 . S
C365 C361 1.495 . S
C365 H371 0.959 . S
C365 H372 0.961 . S
C365 H373 0.960 . S
C366 C364 1.381 . S
C366 C367 1.394 . S
C366 H374 0.930 . S
C367 C366 1.394 . S
C367 C368 1.383 . S
C367 H375 0.929 . S
C368 C367 1.383 . S
C368 C369 1.377 . S
C369 H353 0.930 . S
C369 C368 1.377 . S
C369 C370 1.379 . S
C370 H354 0.931 . S
C370 C364 1.383 . S
C370 C369 1.379 . S
H371 C365 0.959 . S
H372 C365 0.961 . S
H373 C365 0.960 . S
H374 C366 0.930 . S
H375 C367 0.929 . S
H376 C384 0.929 . S
H377 C386 0.930 . S
H378 C388 0.930 . S
H379 C391 0.929 1_554 S
H380 C394 0.930 . S
H381 C396 0.960 . S
H382 C396 0.960 . S
H383 C396 0.960 . S
C384 H376 0.929 . S
C384 C385 1.377 . S
C384 C386 1.384 . S
C385 C384 1.377 . S
C385 C391 1.390 . S
C386 H377 0.930 . S
C386 C384 1.384 . S
C386 C387 1.372 . S
C387 C386 1.372 . S
C387 C388 1.400 . S
C387 C392 1.490 . S
C388 H378 0.930 . S
C388 C387 1.400 . S
C388 C391 1.386 . S
H389 C405 0.930 . S
H390 C406 0.931 . S
C391 H379 0.929 1_556 S
C391 C385 1.390 . S
C391 C388 1.386 . S
C392 C387 1.490 . S
C392 C394 1.395 . S
C392 C395 1.403 . S
H393 C399 0.930 . S
C394 H380 0.930 . S
C394 C392 1.395 . S
C394 C397 1.403 . S
C395 C392 1.403 . S
C395 C396 1.524 . S
C395 C399 1.400 . S
C396 H381 0.960 . S
C396 H382 0.960 . S
C396 H383 0.960 . S
C396 C395 1.524 . S
C397 C394 1.403 . S
C397 C398 1.392 . S
C397 C401 1.495 . S
C398 C397 1.392 . S
C398 C399 1.385 . S
C398 C400 1.478 . S
C399 H393 0.930 . S
C399 C395 1.400 . S
C399 C398 1.385 . S
C400 C398 1.478 . S
C400 C402 1.381 . S
C400 C406 1.383 . S
C401 C397 1.495 . S
C401 H407 0.959 . S
C401 H408 0.961 . S
C401 H409 0.960 . S
C402 C400 1.381 . S
C402 C403 1.394 . S
C402 H410 0.930 . S
C403 C402 1.394 . S
C403 C404 1.383 . S
C403 H411 0.929 . S
C404 C403 1.383 . S
C404 C405 1.377 . S
C405 H389 0.930 . S
C405 C404 1.377 . S
C405 C406 1.379 . S
C406 H390 0.931 . S
C406 C400 1.383 . S
C406 C405 1.379 . S
H407 C401 0.959 . S
H408 C401 0.961 . S
H409 C401 0.960 . S
H410 C402 0.930 . S
H411 C403 0.929 . S
H412 C420 0.929 . S
H413 C422 0.930 . S
H414 C424 0.930 . S
H415 C427 0.929 . S
H416 C430 0.930 . S
H417 C432 0.960 . S
H418 C432 0.960 . S
H419 C432 0.960 . S
C420 H412 0.929 . S
C420 C421 1.377 . S
C420 C422 1.384 . S
C421 C420 1.377 . S
C421 C427 1.390 . S
C422 H413 0.930 . S
C422 C420 1.384 . S
C422 C423 1.372 . S
C423 C422 1.372 . S
C423 C424 1.400 . S
C423 C428 1.490 . S
C424 H414 0.930 . S
C424 C423 1.400 . S
C424 C427 1.386 . S
H425 C441 0.930 . S
H426 C442 0.931 . S
C427 H415 0.929 . S
C427 C421 1.390 . S
C427 C424 1.386 . S
C428 C423 1.490 . S
C428 C430 1.395 . S
C428 C431 1.403 . S
H429 C435 0.930 . S
C430 H416 0.930 . S
C430 C428 1.395 . S
C430 C433 1.403 . S
C431 C428 1.403 . S
C431 C432 1.524 . S
C431 C435 1.400 . S
C432 H417 0.960 . S
C432 H418 0.960 . S
C432 H419 0.960 . S
C432 C431 1.524 . S
C433 C430 1.403 . S
C433 C434 1.392 . S
C433 C437 1.495 . S
C434 C433 1.392 . S
C434 C435 1.385 . S
C434 C436 1.478 . S
C435 H429 0.930 . S
C435 C431 1.400 . S
C435 C434 1.385 . S
C436 C434 1.478 . S
C436 C438 1.381 . S
C436 C442 1.383 . S
C437 C433 1.495 . S
C437 H443 0.959 . S
C437 H444 0.961 . S
C437 H445 0.960 . S
C438 C436 1.381 . S
C438 C439 1.394 . S
C438 H446 0.930 . S
C439 C438 1.394 . S
C439 C440 1.383 . S
C439 H447 0.929 . S
C440 C439 1.383 . S
C440 C441 1.377 . S
C441 H425 0.930 . S
C441 C440 1.377 . S
C441 C442 1.379 . S
C442 H426 0.931 . S
C442 C436 1.383 . S
C442 C441 1.379 . S
H443 C437 0.959 . S
H444 C437 0.961 . S
H445 C437 0.960 . S
H446 C438 0.930 . S
H447 C439 0.929 . S
H448 C456 0.929 1_554 S
H449 C458 0.930 . S
H450 C460 0.930 . S
H451 C463 0.929 . S
H452 C466 0.930 . S
H453 C468 0.960 . S
H454 C468 0.960 . S
H455 C468 0.960 . S
C456 H448 0.929 1_556 S
C456 C457 1.377 . S
C456 C458 1.384 . S
C457 C456 1.377 . S
C457 C463 1.390 . S
C458 H449 0.930 . S
C458 C456 1.384 . S
C458 C459 1.372 . S
C459 C458 1.372 . S
C459 C460 1.400 . S
C459 C464 1.490 . S
C460 H450 0.930 . S
C460 C459 1.400 . S
C460 C463 1.386 . S
H461 C477 0.930 . S
H462 C478 0.931 . S
C463 H451 0.929 . S
C463 C457 1.390 . S
C463 C460 1.386 . S
C464 C459 1.490 . S
C464 C466 1.395 . S
C464 C467 1.403 . S
H465 C471 0.930 . S
C466 H452 0.930 . S
C466 C464 1.395 . S
C466 C469 1.403 . S
C467 C464 1.403 . S
C467 C468 1.524 . S
C467 C471 1.400 . S
C468 H453 0.960 . S
C468 H454 0.960 . S
C468 H455 0.960 . S
C468 C467 1.524 . S
C469 C466 1.403 . S
C469 C470 1.392 . S
C469 C473 1.495 . S
C470 C469 1.392 . S
C470 C471 1.385 . S
C470 C472 1.478 . S
C471 H465 0.930 . S
C471 C467 1.400 . S
C471 C470 1.385 . S
C472 C470 1.478 . S
C472 C474 1.381 . S
C472 C478 1.383 . S
C473 C469 1.495 . S
C473 H479 0.959 . S
C473 H480 0.961 . S
C473 H481 0.960 . S
C474 C472 1.381 . S
C474 C475 1.394 . S
C474 H482 0.930 . S
C475 C474 1.394 . S
C475 C476 1.383 . S
C475 H483 0.929 . S
C476 C475 1.383 . S
C476 C477 1.377 . S
C477 H461 0.930 . S
C477 C476 1.377 . S
C477 C478 1.379 . S
C478 H462 0.931 . S
C478 C472 1.383 . S
C478 C477 1.379 . S
H479 C473 0.959 . S
H480 C473 0.961 . S
H481 C473 0.960 . S
H482 C474 0.930 . S
H483 C475 0.929 . S
H484 C492 0.929 . S
H485 C494 0.930 . S
H486 C496 0.930 . S
H487 C499 0.929 . S
H488 C502 0.930 . S
H489 C504 0.960 . S
H490 C504 0.960 . S
H491 C504 0.960 . S
C492 H484 0.929 . S
C492 C493 1.377 . S
C492 C494 1.384 . S
C493 C492 1.377 . S
C493 C499 1.390 . S
C494 H485 0.930 . S
C494 C492 1.384 . S
C494 C495 1.372 . S
C495 C494 1.372 . S
C495 C496 1.400 . S
C495 C500 1.490 . S
C496 H486 0.930 . S
C496 C495 1.400 . S
C496 C499 1.386 . S
H497 C513 0.930 . S
H498 C514 0.931 . S
C499 H487 0.929 . S
C499 C493 1.390 . S
C499 C496 1.386 . S
C500 C495 1.490 . S
C500 C502 1.395 . S
C500 C503 1.403 . S
H501 C507 0.930 . S
C502 H488 0.930 . S
C502 C500 1.395 . S
C502 C505 1.403 . S
C503 C500 1.403 . S
C503 C504 1.524 . S
C503 C507 1.400 . S
C504 H489 0.960 . S
C504 H490 0.960 . S
C504 H491 0.960 . S
C504 C503 1.524 . S
C505 C502 1.403 . S
C505 C506 1.392 . S
C505 C509 1.495 . S
C506 C505 1.392 . S
C506 C507 1.385 . S
C506 C508 1.478 . S
C507 H501 0.930 . S
C507 C503 1.400 . S
C507 C506 1.385 . S
C508 C506 1.478 . S
C508 C510 1.381 . S
C508 C514 1.383 . S
C509 C505 1.495 . S
C509 H515 0.959 . S
C509 H516 0.961 . S
C509 H517 0.960 . S
C510 C508 1.381 . S
C510 C511 1.394 . S
C510 H518 0.930 . S
C511 C510 1.394 . S
C511 C512 1.383 . S
C511 H519 0.929 . S
C512 C511 1.383 . S
C512 C513 1.377 . S
C513 H497 0.930 . S
C513 C512 1.377 . S
C513 C514 1.379 . S
C514 H498 0.931 . S
C514 C508 1.383 . S
C514 C513 1.379 . S
H515 C509 0.959 . S
H516 C509 0.961 . S
H517 C509 0.960 . S
H518 C510 0.930 . S
H519 C511 0.929 . S
H520 C528 0.929 . S
H521 C530 0.930 . S
H522 C532 0.930 . S
H523 C535 0.929 . S
H524 C538 0.930 . S
H525 C540 0.960 . S
H526 C540 0.960 . S
H527 C540 0.960 . S
C528 H520 0.929 . S
C528 C529 1.377 . S
C528 C530 1.384 . S
C529 C528 1.377 . S
C529 C535 1.390 . S
C530 H521 0.930 . S
C530 C528 1.384 . S
C530 C531 1.372 . S
C531 C530 1.372 . S
C531 C532 1.400 . S
C531 C536 1.490 . S
C532 H522 0.930 . S
C532 C531 1.400 . S
C532 C535 1.386 . S
H533 C549 0.930 . S
H534 C550 0.931 . S
C535 H523 0.929 . S
C535 C529 1.390 . S
C535 C532 1.386 . S
C536 C531 1.490 . S
C536 C538 1.395 . S
C536 C539 1.403 . S
H537 C543 0.930 . S
C538 H524 0.930 . S
C538 C536 1.395 . S
C538 C541 1.403 . S
C539 C536 1.403 . S
C539 C540 1.524 . S
C539 C543 1.400 . S
C540 H525 0.960 . S
C540 H526 0.960 . S
C540 H527 0.960 . S
C540 C539 1.524 . S
C541 C538 1.403 . S
C541 C542 1.392 . S
C541 C545 1.495 . S
C542 C541 1.392 . S
C542 C543 1.385 . S
C542 C544 1.478 . S
C543 H537 0.930 . S
C543 C539 1.400 . S
C543 C542 1.385 . S
C544 C542 1.478 . S
C544 C546 1.381 . S
C544 C550 1.383 . S
C545 C541 1.495 . S
C545 H551 0.959 . S
C545 H552 0.961 . S
C545 H553 0.960 . S
C546 C544 1.381 . S
C546 C547 1.394 . S
C546 H554 0.930 . S
C547 C546 1.394 . S
C547 C548 1.383 . S
C547 H555 0.929 . S
C548 C547 1.383 . S
C548 C549 1.377 . S
C549 H533 0.930 . S
C549 C548 1.377 . S
C549 C550 1.379 . S
C550 H534 0.931 . S
C550 C544 1.383 . S
C550 C549 1.379 . S
H551 C545 0.959 . S
H552 C545 0.961 . S
H553 C545 0.960 . S
H554 C546 0.930 . S
H555 C547 0.929 . S
H556 C564 0.929 . S
H557 C566 0.930 . S
H558 C568 0.930 . S
H559 C571 0.929 . S
H560 C574 0.930 . S
H561 C576 0.960 . S
H562 C576 0.960 . S
H563 C576 0.960 . S
C564 H556 0.929 . S
C564 C565 1.377 . S
C564 C566 1.384 . S
C565 C564 1.377 . S
C565 C571 1.390 . S
C566 H557 0.930 . S
C566 C564 1.384 . S
C566 C567 1.372 . S
C567 C566 1.372 . S
C567 C568 1.400 . S
C567 C572 1.490 . S
C568 H558 0.930 . S
C568 C567 1.400 . S
C568 C571 1.386 . S
H569 C585 0.930 . S
H570 C586 0.931 . S
C571 H559 0.929 . S
C571 C565 1.390 . S
C571 C568 1.386 . S
C572 C567 1.490 . S
C572 C574 1.395 . S
C572 C575 1.403 . S
H573 C579 0.930 . S
C574 H560 0.930 . S
C574 C572 1.395 . S
C574 C577 1.403 . S
C575 C572 1.403 . S
C575 C576 1.524 . S
C575 C579 1.400 . S
C576 H561 0.960 . S
C576 H562 0.960 . S
C576 H563 0.960 . S
C576 C575 1.524 . S
C577 C574 1.403 . S
C577 C578 1.392 . S
C577 C581 1.495 . S
C578 C577 1.392 . S
C578 C579 1.385 . S
C578 C580 1.478 . S
C579 H573 0.930 . S
C579 C575 1.400 . S
C579 C578 1.385 . S
C580 C578 1.478 . S
C580 C582 1.381 . S
C580 C586 1.383 . S
C581 C577 1.495 . S
C581 H587 0.959 . S
C581 H588 0.961 . S
C581 H589 0.960 . S
C582 C580 1.381 . S
C582 C583 1.394 . S
C582 H590 0.930 . S
C583 C582 1.394 . S
C583 C584 1.383 . S
C583 H591 0.929 . S
C584 C583 1.383 . S
C584 C585 1.377 . S
C585 H569 0.930 . S
C585 C584 1.377 . S
C585 C586 1.379 . S
C586 H570 0.931 . S
C586 C580 1.383 . S
C586 C585 1.379 . S
H587 C581 0.959 . S
H588 C581 0.961 . S
H589 C581 0.960 . S
H590 C582 0.930 . S
H591 C583 0.929 . S
H592 C600 0.929 . S
H593 C602 0.930 . S
H594 C604 0.930 . S
H595 C607 0.929 1_554 S
H596 C610 0.930 . S
H597 C612 0.960 . S
H598 C612 0.960 . S
H599 C612 0.960 . S
C600 H592 0.929 . S
C600 C601 1.377 . S
C600 C602 1.384 . S
C601 C600 1.377 . S
C601 C607 1.390 . S
C602 H593 0.930 . S
C602 C600 1.384 . S
C602 C603 1.372 . S
C603 C602 1.372 . S
C603 C604 1.400 . S
C603 C608 1.490 1_565 S
C604 H594 0.930 . S
C604 C603 1.400 . S
C604 C607 1.386 . S
H605 C621 0.930 . S
H606 C622 0.931 . S
C607 H595 0.929 1_556 S
C607 C601 1.390 . S
C607 C604 1.386 . S
C608 C603 1.490 1_545 S
C608 C610 1.395 . S
C608 C611 1.403 . S
H609 C615 0.930 . S
C610 H596 0.930 . S
C610 C608 1.395 . S
C610 C613 1.403 . S
C611 C608 1.403 . S
C611 C612 1.524 1_545 S
C611 C615 1.400 . S
C612 H597 0.960 . S
C612 H598 0.960 . S
C612 H599 0.960 . S
C612 C611 1.524 1_565 S
C613 C610 1.403 . S
C613 C614 1.392 . S
C613 C617 1.495 . S
C614 C613 1.392 . S
C614 C615 1.385 . S
C614 C616 1.478 . S
C615 H609 0.930 . S
C615 C611 1.400 . S
C615 C614 1.385 . S
C616 C614 1.478 . S
C616 C618 1.381 . S
C616 C622 1.383 . S
C617 C613 1.495 . S
C617 H623 0.959 . S
C617 H624 0.961 . S
C617 H625 0.960 . S
C618 C616 1.381 . S
C618 C619 1.394 . S
C618 H626 0.930 . S
C619 C618 1.394 . S
C619 C620 1.383 . S
C619 H627 0.929 . S
C620 C619 1.383 . S
C620 C621 1.377 . S
C621 H605 0.930 . S
C621 C620 1.377 . S
C621 C622 1.379 . S
C622 H606 0.931 . S
C622 C616 1.383 . S
C622 C621 1.379 . S
H623 C617 0.959 . S
H624 C617 0.961 . S
H625 C617 0.960 . S
H626 C618 0.930 . S
H627 C619 0.929 . S
H628 C636 0.929 . S
H629 C638 0.930 . S
H630 C640 0.930 . S
H631 C643 0.929 . S
H632 C646 0.930 . S
H633 C648 0.960 . S
H634 C648 0.960 . S
H635 C648 0.960 . S
C636 H628 0.929 . S
C636 C637 1.377 . S
C636 C638 1.384 . S
C637 C636 1.377 . S
C637 C643 1.390 . S
C638 H629 0.930 . S
C638 C636 1.384 . S
C638 C639 1.372 . S
C639 C638 1.372 . S
C639 C640 1.400 . S
C639 C644 1.490 1_545 S
C640 H630 0.930 . S
C640 C639 1.400 . S
C640 C643 1.386 . S
H641 C657 0.930 . S
H642 C658 0.931 . S
C643 H631 0.929 . S
C643 C637 1.390 . S
C643 C640 1.386 . S
C644 C639 1.490 1_565 S
C644 C646 1.395 . S
C644 C647 1.403 . S
H645 C651 0.930 . S
C646 H632 0.930 . S
C646 C644 1.395 . S
C646 C649 1.403 . S
C647 C644 1.403 . S
C647 C648 1.524 1_565 S
C647 C651 1.400 . S
C648 H633 0.960 . S
C648 H634 0.960 . S
C648 H635 0.960 . S
C648 C647 1.524 1_545 S
C649 C646 1.403 . S
C649 C650 1.392 . S
C649 C653 1.495 . S
C650 C649 1.392 . S
C650 C651 1.385 . S
C650 C652 1.478 . S
C651 H645 0.930 . S
C651 C647 1.400 . S
C651 C650 1.385 . S
C652 C650 1.478 . S
C652 C654 1.381 . S
C652 C658 1.383 . S
C653 C649 1.495 . S
C653 H659 0.959 . S
C653 H660 0.961 . S
C653 H661 0.960 . S
C654 C652 1.381 . S
C654 C655 1.394 . S
C654 H662 0.930 . S
C655 C654 1.394 . S
C655 C656 1.383 . S
C655 H663 0.929 . S
C656 C655 1.383 . S
C656 C657 1.377 . S
C657 H641 0.930 . S
C657 C656 1.377 . S
C657 C658 1.379 . S
C658 H642 0.931 . S
C658 C652 1.383 . S
C658 C657 1.379 . S
H659 C653 0.959 . S
H660 C653 0.961 . S
H661 C653 0.960 . S
H662 C654 0.930 . S
H663 C655 0.929 . S
H664 C672 0.929 . S
H665 C674 0.930 . S
H666 C676 0.930 1_545 S
H667 C679 0.929 . S
H668 C682 0.930 . S
H669 C684 0.956 1_545 S
H670 C684 0.960 . S
H671 C684 0.960 . S
C672 H664 0.929 . S
C672 C673 1.377 . S
C672 C674 1.384 . S
C673 C672 1.377 . S
C673 C679 1.390 . S
C674 H665 0.930 . S
C674 C672 1.384 . S
C674 C675 1.372 . S
C675 C674 1.372 . S
C675 C676 1.400 . S
C675 C680 1.490 1_565 S
C676 H666 0.930 1_565 S
C676 C675 1.400 . S
C676 C679 1.386 . S
H677 C693 0.930 . S
H678 C694 0.931 . S
C679 H667 0.929 . S
C679 C673 1.390 . S
C679 C676 1.386 . S
C680 C675 1.490 1_545 S
C680 C682 1.395 . S
C680 C683 1.403 . S
H681 C687 0.930 . S
C682 H668 0.930 . S
C682 C680 1.395 . S
C682 C685 1.403 . S
C683 C680 1.403 . S
C683 C684 1.524 1_545 S
C683 C687 1.400 . S
C684 H669 0.956 1_565 S
C684 H670 0.960 . S
C684 H671 0.960 . S
C684 C683 1.524 1_565 S
C685 C682 1.403 . S
C685 C686 1.392 . S
C685 C689 1.495 . S
C686 C685 1.392 . S
C686 C687 1.385 . S
C686 C688 1.478 . S
C687 H681 0.930 . S
C687 C683 1.400 . S
C687 C686 1.385 . S
C688 C686 1.478 . S
C688 C690 1.381 . S
C688 C694 1.383 . S
C689 C685 1.495 . S
C689 H695 0.959 . S
C689 H696 0.961 . S
C689 H697 0.960 . S
C690 C688 1.381 . S
C690 C691 1.394 . S
C690 H698 0.930 . S
C691 C690 1.394 . S
C691 C692 1.383 . S
C691 H699 0.929 . S
C692 C691 1.383 . S
C692 C693 1.377 . S
C693 H677 0.930 . S
C693 C692 1.377 . S
C693 C694 1.379 . S
C694 H678 0.931 . S
C694 C688 1.383 . S
C694 C693 1.379 . S
H695 C689 0.959 . S
H696 C689 0.961 . S
H697 C689 0.960 . S
H698 C690 0.930 . S
H699 C691 0.929 . S
H700 C708 0.929 . S
H701 C710 0.930 1_565 S
H702 C712 0.930 . S
H703 C715 0.929 . S
H704 C718 0.930 . S
H705 C720 0.960 . S
H706 C720 0.960 . S
H707 C720 0.960 . S
C708 H700 0.929 . S
C708 C709 1.377 . S
C708 C710 1.384 . S
C709 C708 1.377 . S
C709 C715 1.390 . S
C710 H701 0.930 1_545 S
C710 C708 1.384 . S
C710 C711 1.372 . S
C711 C710 1.372 . S
C711 C712 1.400 . S
C711 C716 1.490 1_545 S
C712 H702 0.930 . S
C712 C711 1.400 . S
C712 C715 1.386 . S
H713 C729 0.930 . S
H714 C730 0.931 . S
C715 H703 0.929 . S
C715 C709 1.390 . S
C715 C712 1.386 . S
C716 C711 1.490 1_565 S
C716 C718 1.395 . S
C716 C719 1.403 . S
H717 C723 0.930 . S
C718 H704 0.930 . S
C718 C716 1.395 . S
C718 C721 1.403 . S
C719 C716 1.403 . S
C719 C720 1.524 1_565 S
C719 C723 1.400 . S
C720 H705 0.960 . S
C720 H706 0.960 . S
C720 H707 0.960 . S
C720 C719 1.524 1_545 S
C721 C718 1.403 . S
C721 C722 1.392 . S
C721 C725 1.495 . S
C722 C721 1.392 . S
C722 C723 1.385 . S
C722 C724 1.478 . S
C723 H717 0.930 . S
C723 C719 1.400 . S
C723 C722 1.385 . S
C724 C722 1.478 . S
C724 C726 1.381 . S
C724 C730 1.383 . S
C725 C721 1.495 . S
C725 H731 0.959 . S
C725 H732 0.961 . S
C725 H733 0.960 . S
C726 C724 1.381 . S
C726 C727 1.394 . S
C726 H734 0.930 . S
C727 C726 1.394 . S
C727 C728 1.383 . S
C727 H735 0.929 . S
C728 C727 1.383 . S
C728 C729 1.377 . S
C729 H713 0.930 . S
C729 C728 1.377 . S
C729 C730 1.379 . S
C730 H714 0.931 . S
C730 C724 1.383 . S
C730 C729 1.379 . S
H731 C725 0.959 . S
H732 C725 0.961 . S
H733 C725 0.960 . S
H734 C726 0.930 . S
H735 C727 0.929 . S
H736 C744 0.929 . S
H737 C746 0.930 . S
H738 C748 0.930 . S
H739 C751 0.929 . S
H740 C754 0.930 . S
H741 C756 0.960 . S
H742 C756 0.960 . S
H743 C756 0.960 . S
C744 H736 0.929 . S
C744 C745 1.377 . S
C744 C746 1.384 . S
C745 C744 1.377 . S
C745 C751 1.390 . S
C746 H737 0.930 . S
C746 C744 1.384 . S
C746 C747 1.372 . S
C747 C746 1.372 . S
C747 C748 1.400 . S
C747 C752 1.490 . S
C748 H738 0.930 . S
C748 C747 1.400 . S
C748 C751 1.386 . S
H749 C765 0.930 . S
H750 C766 0.931 . S
C751 H739 0.929 . S
C751 C745 1.390 . S
C751 C748 1.386 . S
C752 C747 1.490 . S
C752 C754 1.395 . S
C752 C755 1.403 . S
H753 C759 0.930 . S
C754 H740 0.930 . S
C754 C752 1.395 . S
C754 C757 1.403 . S
C755 C752 1.403 . S
C755 C756 1.524 . S
C755 C759 1.400 . S
C756 H741 0.960 . S
C756 H742 0.960 . S
C756 H743 0.960 . S
C756 C755 1.524 . S
C757 C754 1.403 . S
C757 C758 1.392 . S
C757 C761 1.495 . S
C758 C757 1.392 . S
C758 C759 1.385 . S
C758 C760 1.478 . S
C759 H753 0.930 . S
C759 C755 1.400 . S
C759 C758 1.385 . S
C760 C758 1.478 . S
C760 C762 1.381 . S
C760 C766 1.383 . S
C761 C757 1.495 . S
C761 H767 0.959 . S
C761 H768 0.961 . S
C761 H769 0.960 . S
C762 C760 1.381 . S
C762 C763 1.394 . S
C762 H770 0.930 . S
C763 C762 1.394 . S
C763 C764 1.383 . S
C763 H771 0.929 . S
C764 C763 1.383 . S
C764 C765 1.377 . S
C765 H749 0.930 . S
C765 C764 1.377 . S
C765 C766 1.379 . S
C766 H750 0.931 . S
C766 C760 1.383 . S
C766 C765 1.379 . S
H767 C761 0.959 . S
H768 C761 0.961 . S
H769 C761 0.960 . S
H770 C762 0.930 . S
H771 C763 0.929 . S
H772 C780 0.929 . S
H773 C782 0.930 . S
H774 C784 0.930 . S
H775 C787 0.929 . S
H776 C790 0.930 . S
H777 C792 0.960 . S
H778 C792 0.960 . S
H779 C792 0.960 . S
C780 H772 0.929 . S
C780 C781 1.377 . S
C780 C782 1.384 . S
C781 C780 1.377 . S
C781 C787 1.390 . S
C782 H773 0.930 . S
C782 C780 1.384 . S
C782 C783 1.372 . S
C783 C782 1.372 . S
C783 C784 1.400 . S
C783 C788 1.490 . S
C784 H774 0.930 . S
C784 C783 1.400 . S
C784 C787 1.386 . S
H785 C801 0.930 . S
H786 C802 0.931 . S
C787 H775 0.929 . S
C787 C781 1.390 . S
C787 C784 1.386 . S
C788 C783 1.490 . S
C788 C790 1.395 . S
C788 C791 1.403 . S
H789 C795 0.930 . S
C790 H776 0.930 . S
C790 C788 1.395 . S
C790 C793 1.403 . S
C791 C788 1.403 . S
C791 C792 1.524 . S
C791 C795 1.400 . S
C792 H777 0.960 . S
C792 H778 0.960 . S
C792 H779 0.960 . S
C792 C791 1.524 . S
C793 C790 1.403 . S
C793 C794 1.392 . S
C793 C797 1.495 . S
C794 C793 1.392 . S
C794 C795 1.385 . S
C794 C796 1.478 . S
C795 H789 0.930 . S
C795 C791 1.400 . S
C795 C794 1.385 . S
C796 C794 1.478 . S
C796 C798 1.381 . S
C796 C802 1.383 . S
C797 C793 1.495 . S
C797 H803 0.959 . S
C797 H804 0.961 . S
C797 H805 0.960 . S
C798 C796 1.381 . S
C798 C799 1.394 . S
C798 H806 0.930 . S
C799 C798 1.394 . S
C799 C800 1.383 . S
C799 H807 0.929 . S
C800 C799 1.383 . S
C800 C801 1.377 . S
C801 H785 0.930 . S
C801 C800 1.377 . S
C801 C802 1.379 . S
C802 H786 0.931 . S
C802 C796 1.383 . S
C802 C801 1.379 . S
H803 C797 0.959 . S
H804 C797 0.961 . S
H805 C797 0.960 . S
H806 C798 0.930 . S
H807 C799 0.929 . S
H808 C816 0.929 . S
H809 C818 0.930 . S
H810 C820 0.930 . S
H811 C823 0.929 . S
H812 C826 0.930 . S
H813 C828 0.960 . S
H814 C828 0.960 . S
H815 C828 0.960 . S
C816 H808 0.929 . S
C816 C817 1.377 . S
C816 C818 1.384 . S
C817 C816 1.377 . S
C817 C823 1.390 . S
C818 H809 0.930 . S
C818 C816 1.384 . S
C818 C819 1.372 . S
C819 C818 1.372 . S
C819 C820 1.400 . S
C819 C824 1.490 . S
C820 H810 0.930 . S
C820 C819 1.400 . S
C820 C823 1.386 . S
H821 C837 0.930 . S
H822 C838 0.931 . S
C823 H811 0.929 . S
C823 C817 1.390 . S
C823 C820 1.386 . S
C824 C819 1.490 . S
C824 C826 1.395 . S
C824 C827 1.403 . S
H825 C831 0.930 . S
C826 H812 0.930 . S
C826 C824 1.395 . S
C826 C829 1.403 . S
C827 C824 1.403 . S
C827 C828 1.524 . S
C827 C831 1.400 . S
C828 H813 0.960 . S
C828 H814 0.960 . S
C828 H815 0.960 . S
C828 C827 1.524 . S
C829 C826 1.403 . S
C829 C830 1.392 . S
C829 C833 1.495 . S
C830 C829 1.392 . S
C830 C831 1.385 . S
C830 C832 1.478 . S
C831 H825 0.930 . S
C831 C827 1.400 . S
C831 C830 1.385 . S
C832 C830 1.478 . S
C832 C834 1.381 . S
C832 C838 1.383 . S
C833 C829 1.495 . S
C833 H839 0.959 . S
C833 H840 0.961 . S
C833 H841 0.960 . S
C834 C832 1.381 . S
C834 C835 1.394 . S
C834 H842 0.930 . S
C835 C834 1.394 . S
C835 C836 1.383 . S
C835 H843 0.929 . S
C836 C835 1.383 . S
C836 C837 1.377 . S
C837 H821 0.930 . S
C837 C836 1.377 . S
C837 C838 1.379 . S
C838 H822 0.931 . S
C838 C832 1.383 . S
C838 C837 1.379 . S
H839 C833 0.959 . S
H840 C833 0.961 . S
H841 C833 0.960 . S
H842 C834 0.930 . S
H843 C835 0.929 . S
H844 C852 0.929 . S
H845 C854 0.930 . S
H846 C856 0.930 . S
H847 C859 0.929 . S
H848 C862 0.930 . S
H849 C864 0.960 . S
H850 C864 0.960 . S
H851 C864 0.960 . S
C852 H844 0.929 . S
C852 C853 1.377 . S
C852 C854 1.384 . S
C853 C852 1.377 . S
C853 C859 1.390 . S
C854 H845 0.930 . S
C854 C852 1.384 . S
C854 C855 1.372 . S
C855 C854 1.372 . S
C855 C856 1.400 . S
C855 C860 1.490 . S
C856 H846 0.930 . S
C856 C855 1.400 . S
C856 C859 1.386 . S
H857 C873 0.930 . S
H858 C874 0.931 . S
C859 H847 0.929 . S
C859 C853 1.390 . S
C859 C856 1.386 . S
C860 C855 1.490 . S
C860 C862 1.395 . S
C860 C863 1.403 . S
H861 C867 0.930 . S
C862 H848 0.930 . S
C862 C860 1.395 . S
C862 C865 1.403 . S
C863 C860 1.403 . S
C863 C864 1.524 . S
C863 C867 1.400 . S
C864 H849 0.960 . S
C864 H850 0.960 . S
C864 H851 0.960 . S
C864 C863 1.524 . S
C865 C862 1.403 . S
C865 C866 1.392 . S
C865 C869 1.495 . S
C866 C865 1.392 . S
C866 C867 1.385 . S
C866 C868 1.478 . S
C867 H861 0.930 . S
C867 C863 1.400 . S
C867 C866 1.385 . S
C868 C866 1.478 . S
C868 C870 1.381 . S
C868 C874 1.383 . S
C869 C865 1.495 . S
C869 H875 0.959 . S
C869 H876 0.961 . S
C869 H877 0.960 . S
C870 C868 1.381 . S
C870 C871 1.394 . S
C870 H878 0.930 . S
C871 C870 1.394 . S
C871 C872 1.383 . S
C871 H879 0.929 . S
C872 C871 1.383 . S
C872 C873 1.377 . S
C873 H857 0.930 . S
C873 C872 1.377 . S
C873 C874 1.379 . S
C874 H858 0.931 . S
C874 C868 1.383 . S
C874 C873 1.379 . S
H875 C869 0.959 . S
H876 C869 0.961 . S
H877 C869 0.960 . S
H878 C870 0.930 . S
H879 C871 0.929 . S
H880 C888 0.929 . S
H881 C890 0.930 . S
H882 C892 0.930 . S
H883 C895 0.929 . S
H884 C898 0.930 . S
H885 C900 0.960 . S
H886 C900 0.960 . S
H887 C900 0.960 . S
C888 H880 0.929 . S
C888 C889 1.377 . S
C888 C890 1.384 . S
C889 C888 1.377 . S
C889 C895 1.390 . S
C890 H881 0.930 . S
C890 C888 1.384 . S
C890 C891 1.372 . S
C891 C890 1.372 . S
C891 C892 1.400 . S
C891 C896 1.490 . S
C892 H882 0.930 . S
C892 C891 1.400 . S
C892 C895 1.386 . S
H893 C909 0.930 . S
H894 C910 0.931 . S
C895 H883 0.929 . S
C895 C889 1.390 . S
C895 C892 1.386 . S
C896 C891 1.490 . S
C896 C898 1.395 . S
C896 C899 1.403 . S
H897 C903 0.930 . S
C898 H884 0.930 . S
C898 C896 1.395 . S
C898 C901 1.403 . S
C899 C896 1.403 . S
C899 C900 1.524 . S
C899 C903 1.400 . S
C900 H885 0.960 . S
C900 H886 0.960 . S
C900 H887 0.960 . S
C900 C899 1.524 . S
C901 C898 1.403 . S
C901 C902 1.392 . S
C901 C905 1.495 . S
C902 C901 1.392 . S
C902 C903 1.385 . S
C902 C904 1.478 . S
C903 H897 0.930 . S
C903 C899 1.400 . S
C903 C902 1.385 . S
C904 C902 1.478 . S
C904 C906 1.381 . S
C904 C910 1.383 . S
C905 C901 1.495 . S
C905 H911 0.959 . S
C905 H912 0.961 . S
C905 H913 0.960 . S
C906 C904 1.381 . S
C906 C907 1.394 . S
C906 H914 0.930 . S
C907 C906 1.394 . S
C907 C908 1.383 . S
C907 H915 0.929 . S
C908 C907 1.383 . S
C908 C909 1.377 . S
C909 H893 0.930 . S
C909 C908 1.377 . S
C909 C910 1.379 . S
C910 H894 0.931 . S
C910 C904 1.383 . S
C910 C909 1.379 . S
H911 C905 0.959 . S
H912 C905 0.961 . S
H913 C905 0.960 . S
H914 C906 0.930 . S
H915 C907 0.929 . S
H916 C924 0.929 . S
H917 C926 0.930 . S
H918 C928 0.930 . S
H919 C931 0.929 . S
H920 C934 0.930 . S
H921 C936 0.960 . S
H922 C936 0.960 . S
H923 C936 0.960 . S
C924 H916 0.929 . S
C924 C925 1.377 . S
C924 C926 1.384 . S
C925 C924 1.377 . S
C925 C931 1.390 . S
C926 H917 0.930 . S
C926 C924 1.384 . S
C926 C927 1.372 . S
C927 C926 1.372 . S
C927 C928 1.400 . S
C927 C932 1.490 . S
C928 H918 0.930 . S
C928 C927 1.400 . S
C928 C931 1.386 . S
H929 C945 0.930 . S
H930 C946 0.931 . S
C931 H919 0.929 . S
C931 C925 1.390 . S
C931 C928 1.386 . S
C932 C927 1.490 . S
C932 C934 1.395 . S
C932 C935 1.403 . S
H933 C939 0.930 . S
C934 H920 0.930 . S
C934 C932 1.395 . S
C934 C937 1.403 . S
C935 C932 1.403 . S
C935 C936 1.524 . S
C935 C939 1.400 . S
C936 H921 0.960 . S
C936 H922 0.960 . S
C936 H923 0.960 . S
C936 C935 1.524 . S
C937 C934 1.403 . S
C937 C938 1.392 . S
C937 C941 1.495 . S
C938 C937 1.392 . S
C938 C939 1.385 . S
C938 C940 1.478 . S
C939 H933 0.930 . S
C939 C935 1.400 . S
C939 C938 1.385 . S
C940 C938 1.478 . S
C940 C942 1.381 . S
C940 C946 1.383 . S
C941 C937 1.495 . S
C941 H947 0.959 . S
C941 H948 0.961 . S
C941 H949 0.960 . S
C942 C940 1.381 . S
C942 C943 1.394 . S
C942 H950 0.930 . S
C943 C942 1.394 . S
C943 C944 1.383 . S
C943 H951 0.929 . S
C944 C943 1.383 . S
C944 C945 1.377 . S
C945 H929 0.930 . S
C945 C944 1.377 . S
C945 C946 1.379 . S
C946 H930 0.931 . S
C946 C940 1.383 . S
C946 C945 1.379 . S
H947 C941 0.959 . S
H948 C941 0.961 . S
H949 C941 0.960 . S
H950 C942 0.930 . S
H951 C943 0.929 . S
H952 C960 0.929 . S
H953 C962 0.930 . S
H954 C964 0.930 . S
H955 C967 0.929 . S
H956 C970 0.930 . S
H957 C972 0.960 . S
H958 C972 0.960 . S
H959 C972 0.960 . S
C960 H952 0.929 . S
C960 C961 1.377 . S
C960 C962 1.384 . S
C961 C960 1.377 . S
C961 C967 1.390 . S
C962 H953 0.930 . S
C962 C960 1.384 . S
C962 C963 1.372 . S
C963 C962 1.372 . S
C963 C964 1.400 . S
C963 C968 1.490 . S
C964 H954 0.930 . S
C964 C963 1.400 . S
C964 C967 1.386 . S
H965 C981 0.930 . S
H966 C982 0.931 . S
C967 H955 0.929 . S
C967 C961 1.390 . S
C967 C964 1.386 . S
C968 C963 1.490 . S
C968 C970 1.395 . S
C968 C971 1.403 . S
H969 C975 0.930 . S
C970 H956 0.930 . S
C970 C968 1.395 . S
C970 C973 1.403 . S
C971 C968 1.403 . S
C971 C972 1.524 . S
C971 C975 1.400 . S
C972 H957 0.960 . S
C972 H958 0.960 . S
C972 H959 0.960 . S
C972 C971 1.524 . S
C973 C970 1.403 . S
C973 C974 1.392 . S
C973 C977 1.495 . S
C974 C973 1.392 . S
C974 C975 1.385 . S
C974 C976 1.478 . S
C975 H969 0.930 . S
C975 C971 1.400 . S
C975 C974 1.385 . S
C976 C974 1.478 . S
C976 C978 1.381 . S
C976 C982 1.383 . S
C977 C973 1.495 . S
C977 H983 0.959 . S
C977 H984 0.961 . S
C977 H985 0.960 . S
C978 C976 1.381 . S
C978 C979 1.394 . S
C978 H986 0.930 . S
C979 C978 1.394 . S
C979 C980 1.383 . S
C979 H987 0.929 . S
C980 C979 1.383 . S
C980 C981 1.377 . S
C981 H965 0.930 . S
C981 C980 1.377 . S
C981 C982 1.379 . S
C982 H966 0.931 . S
C982 C976 1.383 . S
C982 C981 1.379 . S
H983 C977 0.959 . S
H984 C977 0.961 . S
H985 C977 0.960 . S
H986 C978 0.930 . S
H987 C979 0.929 . S
H988 C996 0.929 . S
H989 C998 0.930 . S
H990 C1000 0.930 . S
H991 C1003 0.929 . S
H992 C1006 0.930 . S
H993 C1008 0.960 . S
H994 C1008 0.960 . S
H995 C1008 0.960 . S
C996 H988 0.929 . S
C996 C997 1.377 . S
C996 C998 1.384 . S
C997 C996 1.377 . S
C997 C1003 1.390 . S
C998 H989 0.930 . S
C998 C996 1.384 . S
C998 C999 1.372 . S
C999 C998 1.372 . S
C999 C1000 1.400 . S
C999 C1004 1.490 . S
C1000 H990 0.930 . S
C1000 C999 1.400 . S
C1000 C1003 1.386 . S
H1001 C1017 0.930 . S
H1002 C1018 0.931 . S
C1003 H991 0.929 . S
C1003 C997 1.390 . S
C1003 C1000 1.386 . S
C1004 C999 1.490 . S
C1004 C1006 1.395 . S
C1004 C1007 1.403 . S
H1005 C1011 0.930 . S
C1006 H992 0.930 . S
C1006 C1004 1.395 . S
C1006 C1009 1.403 . S
C1007 C1004 1.403 . S
C1007 C1008 1.524 . S
C1007 C1011 1.400 . S
C1008 H993 0.960 . S
C1008 H994 0.960 . S
C1008 H995 0.960 . S
C1008 C1007 1.524 . S
C1009 C1006 1.403 . S
C1009 C1010 1.392 . S
C1009 C1013 1.495 . S
C1010 C1009 1.392 . S
C1010 C1011 1.385 . S
C1010 C1012 1.478 . S
C1011 H1005 0.930 . S
C1011 C1007 1.400 . S
C1011 C1010 1.385 . S
C1012 C1010 1.478 . S
C1012 C1014 1.381 . S
C1012 C1018 1.383 . S
C1013 C1009 1.495 . S
C1013 H1019 0.959 . S
C1013 H1020 0.961 . S
C1013 H1021 0.960 . S
C1014 C1012 1.381 . S
C1014 C1015 1.394 . S
C1014 H1022 0.930 . S
C1015 C1014 1.394 . S
C1015 C1016 1.383 . S
C1015 H1023 0.929 . S
C1016 C1015 1.383 . S
C1016 C1017 1.377 . S
C1017 H1001 0.930 . S
C1017 C1016 1.377 . S
C1017 C1018 1.379 . S
C1018 H1002 0.931 . S
C1018 C1012 1.383 . S
C1018 C1017 1.379 . S
H1019 C1013 0.959 . S
H1020 C1013 0.961 . S
H1021 C1013 0.960 . S
H1022 C1014 0.930 . S
H1023 C1015 0.929 . S
C169 C7 1.514 . S
C188 C98 1.492 . S
C224 C76 1.459 . S
C205 C16 1.499 . S
C260 C102 1.462 . S
C241 C25 1.507 . S
C296 C80 1.487 . S
C277 C34 1.499 . S
C332 C142 1.495 . S
C313 C43 1.515 . S
C368 C120 1.457 . S
C349 C52 1.500 . S
C385 C61 1.505 . S
C404 C146 1.482 . S
C440 C124 1.491 . S
C421 C70 1.503 . S
C457 C5 1.465 . S
C476 C147 1.427 . S
C512 C125 1.426 . S
C493 C14 1.466 . S
C529 C22 1.462 . S
C548 C144 1.460 . S
C565 C32 1.465 . S
C584 C122 1.429 . S
C620 C103 1.464 . S
C601 C41 1.465 . S
C637 C50 1.468 . S
C656 C81 1.459 . S
C692 C100 1.436 . S
C673 C58 1.461 . S
C728 C78 1.465 . S
C709 C68 1.464 . S
C764 C121 1.427 . S
C745 C4 1.438 . S
C800 C143 1.392 . S
C781 C13 1.438 . S
C817 C23 1.438 . S
C836 C123 1.397 . S
C872 C145 1.423 . S
C853 C31 1.436 . S
C908 C77 1.391 . S
C889 C40 1.436 . S
C925 C49 1.436 . S
C944 C99 1.431 . S
C961 C59 1.437 . S
C980 C79 1.432 . S
C997 C67 1.438 . S
C1016 C101 1.396 . S
