# Generated by pormake.
# Topology zzz, (3,6)-cn, num edge types: 1
# Building blocks:
#     Node 0, Type 0, BuildingBlock: KAKCAD_clean_linker_0, # of connection points: 3
#     Node 1, Type 0, BuildingBlock: KAKCAD_clean_linker_0, # of connection points: 3
#     Node 2, Type 0, BuildingBlock: KAKCAD_clean_linker_0, # of connection points: 3
#     Node 3, Type 0, BuildingBlock: KAKCAD_clean_linker_0, # of connection points: 3
#     Node 4, Type 0, BuildingBlock: KAKCAD_clean_linker_0, # of connection points: 3
#     Node 5, Type 0, BuildingBlock: KAKCAD_clean_linker_0, # of connection points: 3
#     Node 6, Type 0, BuildingBlock: KAKCAD_clean_linker_0, # of connection points: 3
#     Node 7, Type 0, BuildingBlock: KAKCAD_clean_linker_0, # of connection points: 3
#     Node 8, Type 1, BuildingBlock: BETDEL_clean_sbu_0, # of connection points: 6
#     Node 9, Type 1, BuildingBlock: BETDEL_clean_sbu_0, # of connection points: 6
#     Node 10, Type 1, BuildingBlock: BETDEL_clean_sbu_0, # of connection points: 6
#     Node 11, Type 1, BuildingBlock: BETDEL_clean_sbu_0, # of connection points: 6
#     Edge 12, Type (0, 1), BuildingBlock: CIFDUS_clean_linker_0, # of connection points: 2
#     Edge 13, Type (0, 1), BuildingBlock: CIFDUS_clean_linker_0, # of connection points: 2
#     Edge 14, Type (0, 1), BuildingBlock: CIFDUS_clean_linker_0, # of connection points: 2
#     Edge 15, Type (0, 1), BuildingBlock: CIFDUS_clean_linker_0, # of connection points: 2
#     Edge 16, Type (0, 1), BuildingBlock: CIFDUS_clean_linker_0, # of connection points: 2
#     Edge 17, Type (0, 1), BuildingBlock: CIFDUS_clean_linker_0, # of connection points: 2
#     Edge 18, Type (0, 1), BuildingBlock: CIFDUS_clean_linker_0, # of connection points: 2
#     Edge 19, Type (0, 1), BuildingBlock: CIFDUS_clean_linker_0, # of connection points: 2
#     Edge 20, Type (0, 1), BuildingBlock: CIFDUS_clean_linker_0, # of connection points: 2
#     Edge 21, Type (0, 1), BuildingBlock: CIFDUS_clean_linker_0, # of connection points: 2
#     Edge 22, Type (0, 1), BuildingBlock: CIFDUS_clean_linker_0, # of connection points: 2
#     Edge 23, Type (0, 1), BuildingBlock: CIFDUS_clean_linker_0, # of connection points: 2
#     Edge 24, Type (0, 1), BuildingBlock: CIFDUS_clean_linker_0, # of connection points: 2
#     Edge 25, Type (0, 1), BuildingBlock: CIFDUS_clean_linker_0, # of connection points: 2
#     Edge 26, Type (0, 1), BuildingBlock: CIFDUS_clean_linker_0, # of connection points: 2
#     Edge 27, Type (0, 1), BuildingBlock: CIFDUS_clean_linker_0, # of connection points: 2
#     Edge 28, Type (0, 1), BuildingBlock: CIFDUS_clean_linker_0, # of connection points: 2
#     Edge 29, Type (0, 1), BuildingBlock: CIFDUS_clean_linker_0, # of connection points: 2
#     Edge 30, Type (0, 1), BuildingBlock: CIFDUS_clean_linker_0, # of connection points: 2
#     Edge 31, Type (0, 1), BuildingBlock: CIFDUS_clean_linker_0, # of connection points: 2
#     Edge 32, Type (0, 1), BuildingBlock: CIFDUS_clean_linker_0, # of connection points: 2
#     Edge 33, Type (0, 1), BuildingBlock: CIFDUS_clean_linker_0, # of connection points: 2
#     Edge 34, Type (0, 1), BuildingBlock: CIFDUS_clean_linker_0, # of connection points: 2
#     Edge 35, Type (0, 1), BuildingBlock: CIFDUS_clean_linker_0, # of connection points: 2
# Relax obj value: 0.338
# Max RMSD: 0.228
# Mean RMSD: 0.210
data_MOF--net-zzz--node1-BETDEL_clean_sbu_0--node2-KAKCAD_clean_linker_0--edge1-CIFDUS_clean_linker_0
_symmetry_space_group_name_H-M    P1
_symmetry_Int_Tables_number       1
_symmetry_cell_setting            triclinic
loop_
_symmetry_equiv_pos_as_xyz
'x, y, z'
_cell_length_a     50.883201
_cell_length_b     50.406703
_cell_length_c     17.835252
_cell_angle_alpha  90.717312
_cell_angle_beta   89.591466
_cell_angle_gamma 95.379391
loop_
_atom_site_label
_atom_site_type_symbol
_atom_site_fract_x
_atom_site_fract_y
_atom_site_fract_z
_atom_type_partial_charge
C0 C 0.79937 0.43914 0.8654 0.0
C1 C 0.82391 0.43386 0.89441 0.0
C2 C 0.77824 0.44237 0.91363 0.0
C3 C 0.78104 0.43935 0.9915 0.0
C4 C 0.80351 0.42787 0.0171 0.0
C5 C 0.82509 0.42573 0.96924 0.0
C6 C 0.76479 0.45435 0.04446 0.0
C7 C 0.73954 0.46083 0.0246 0.0
C8 C 0.72794 0.48192 0.06041 0.0
C9 C 0.74112 0.49553 0.12108 0.0
C10 C 0.76538 0.48755 0.14572 0.0
C11 C 0.77693 0.46725 0.10714 0.0
C12 C 0.78111 0.5012 0.20674 0.0
C13 C 0.80001 0.52235 0.18908 0.0
C14 C 0.78321 0.48797 0.27487 0.0
C15 C 0.80477 0.49449 0.32208 0.0
C16 C 0.8249 0.51425 0.30178 0.0
C17 C 0.70395 0.49121 0.02588 0.0
C18 C 0.70426 0.51739 0.99945 0.0
C19 C 0.68279 0.4726 0.0059 0.0
C20 C 0.66339 0.4794 0.95644 0.0
C21 C 0.66462 0.50505 0.92553 0.0
C22 C 0.68483 0.52423 0.94963 0.0
C23 C 0.82167 0.52885 0.23618 0.0
H24 H 0.79747 0.44411 0.80688 0.0
H25 H 0.76118 0.45041 0.89011 0.0
H26 H 0.80574 0.42351 0.07587 0.0
H27 H 0.84345 0.42069 0.99316 0.0
H28 H 0.72968 0.45089 0.97697 0.0
H29 H 0.79664 0.46321 0.12326 0.0
H30 H 0.73278 0.5122 0.14816 0.0
H31 H 0.79919 0.53235 0.13585 0.0
H32 H 0.76933 0.47106 0.28853 0.0
H33 H 0.80663 0.48261 0.37158 0.0
H34 H 0.72049 0.53207 0.01319 0.0
H35 H 0.68212 0.45224 0.02516 0.0
H36 H 0.83655 0.54444 0.21931 0.0
H37 H 0.68617 0.54428 0.92792 0.0
H38 H 0.64835 0.46399 0.93895 0.0
C39 C 0.9964 0.80324 0.89564 0.0
C40 C 0.01199 0.82627 0.91963 0.0
C41 C 0.99485 0.78011 0.93833 0.0
C42 C 0.00897 0.77961 0.00551 0.0
C43 C 0.02643 0.80177 0.02567 0.0
C44 C 0.02785 0.82493 0.98337 0.0
C45 C 1.00221 0.75822 0.06032 0.0
C46 C 0.99861 0.73136 0.03863 0.0
C47 C 0.98968 0.71171 0.09054 0.0
C48 C 0.98393 0.71914 0.16512 0.0
C49 C 0.98744 0.74623 0.18668 0.0
C50 C 0.99677 0.76532 0.13433 0.0
C51 C 0.9803 0.75668 0.26109 0.0
C52 C 0.95653 0.76865 0.26734 0.0
C53 C 1.00069 0.76434 0.31174 0.0
C54 C 0.99852 0.78571 0.36172 0.0
C55 C 0.976 0.79991 0.36122 0.0
C56 C 0.98601 0.68382 0.06319 0.0
C57 C 0.96426 0.67568 0.0178 0.0
C58 C 1.00695 0.66768 0.06699 0.0
C59 C 1.00693 0.6446 0.02229 0.0
C60 C 0.98601 0.63739 0.97254 0.0
C61 C 0.96417 0.65261 0.97327 0.0
C62 C 0.95442 0.79016 0.31674 0.0
H63 H 0.98444 0.80348 0.8457 0.0
H64 H 0.98121 0.76333 0.92148 0.0
H65 H 0.03781 0.80175 0.07679 0.0
H66 H 0.04007 0.84227 1.00348 0.0
H67 H 1.00259 0.7257 0.98108 0.0
H68 H 0.9986 0.78621 0.15094 0.0
H69 H 0.97648 0.70422 0.20508 0.0
H70 H 0.94075 0.76352 0.22775 0.0
H71 H 0.01946 0.75592 0.30664 0.0
H72 H 0.01552 0.79274 0.39509 0.0
H73 H 0.9481 0.68809 0.01314 0.0
H74 H 0.02419 0.67395 0.10036 0.0
H75 H 0.93668 0.80047 0.31586 0.0
H76 H 0.94756 0.64743 0.93661 0.0
H77 H 0.02417 0.63355 0.02279 0.0
C78 C 0.72006 0.08679 0.84184 0.0
C79 C 0.7045 0.10514 0.87667 0.0
C80 C 0.73949 0.07546 0.88202 0.0
C81 C 0.74361 0.08209 0.95789 0.0
C82 C 0.73047 0.10279 0.98997 0.0
C83 C 0.7112 0.11439 0.94946 0.0
C84 C 0.75677 0.06368 0.00597 0.0
C85 C 0.78053 0.054 0.98401 0.0
C86 C 0.79025 0.03268 0.02167 0.0
C87 C 0.77557 0.02066 0.08216 0.0
C88 C 0.75197 0.03102 0.10645 0.0
C89 C 0.74305 0.05253 0.06794 0.0
C90 C 0.73457 0.01913 0.16744 0.0
C91 C 0.72359 0.99255 0.16274 0.0
C92 C 0.72426 0.03606 0.22126 0.0
C93 C 0.70206 0.02747 0.26431 0.0
C94 C 0.68955 1.00151 0.25553 0.0
C95 C 0.81534 0.02328 0.99331 0.0
C96 C 0.8151 1.00014 0.94858 0.0
C97 C 0.83858 0.04062 0.99664 0.0
C98 C 0.86074 0.03565 0.95353 0.0
C99 C 0.86015 0.01333 0.90512 0.0
C100 C 0.83726 0.99521 0.90484 0.0
C101 C 0.70139 0.98381 0.20645 0.0
H102 H 0.71552 0.07898 0.78613 0.0
H103 H 0.74926 0.05949 0.85593 0.0
H104 H 0.73363 0.10852 0.04819 0.0
H105 H 0.70013 0.12903 0.97727 0.0
H106 H 0.7911 0.06251 0.93562 0.0
H107 H 0.72414 0.05945 0.08315 0.0
H108 H 0.78255 1.00377 0.11032 0.0
H109 H 0.73093 0.97906 0.1215 0.0
H110 H 0.73226 0.0567 0.2261 0.0
H111 H 0.69373 0.04191 0.30063 0.0
H112 H 0.79724 0.98674 0.94381 0.0
H113 H 0.83907 0.0589 0.02944 0.0
H114 H 0.69286 0.96345 0.19929 0.0
H115 H 0.83616 0.97767 0.86894 0.0
H116 H 0.87777 0.05025 0.95481 0.0
C117 C 0.5408 0.7212 0.35547 0.0
C118 C 0.56332 0.70983 0.38051 0.0
C119 C 0.54342 0.74303 0.30713 0.0
C120 C 0.56854 0.75376 0.28338 0.0
C121 C 0.59089 0.74498 0.31771 0.0
C122 C 0.58832 0.72307 0.36547 0.0
C123 C 0.57145 0.76294 0.20513 0.0
C124 C 0.56838 0.78905 0.18167 0.0
C125 C 0.57013 0.79514 0.10439 0.0
C126 C 0.57377 0.77468 0.05177 0.0
C127 C 0.57618 0.74864 0.07523 0.0
C128 C 0.57552 0.74321 0.15172 0.0
C129 C 0.57571 0.72593 0.02177 0.0
C130 C 0.55564 0.72224 0.96805 0.0
C131 C 0.5918 0.70527 0.03428 0.0
C132 C 0.58619 0.68046 0.99968 0.0
C133 C 0.56457 0.67594 0.9511 0.0
C134 C 0.56649 0.82209 0.07573 0.0
C135 C 0.54355 0.83443 0.09297 0.0
C136 C 0.58412 0.8337 0.02174 0.0
C137 C 0.57812 0.8561 0.98218 0.0
C138 C 0.55423 0.86734 0.99528 0.0
C139 C 0.53741 0.85678 0.05289 0.0
C140 C 0.55016 0.69745 0.93284 0.0
H141 H 0.52128 0.71145 0.36613 0.0
H142 H 0.5259 0.74905 0.28041 0.0
H143 H 0.61048 0.75261 0.29948 0.0
H144 H 0.60601 0.71496 0.38487 0.0
H145 H 0.56473 0.80432 0.22269 0.0
H146 H 0.57652 0.72288 0.17016 0.0
H147 H 0.57386 0.77883 0.99225 0.0
H148 H 0.54288 0.7378 0.95746 0.0
H149 H 0.60756 0.70773 0.07502 0.0
H150 H 0.59776 0.66442 0.01501 0.0
H151 H 0.52955 0.82581 0.13397 0.0
H152 H 0.602 0.8246 0.00749 0.0
H153 H 0.53385 0.6948 0.89392 0.0
H154 H 0.519 0.86518 0.06499 0.0
H155 H 0.59145 0.86355 0.93803 0.0
C156 C 0.20734 0.60241 0.12731 0.0
C157 C 0.20479 0.59578 0.20335 0.0
C158 C 0.22808 0.59381 0.08455 0.0
C159 C 0.24625 0.57799 0.11689 0.0
C160 C 0.24529 0.57401 0.1948 0.0
C161 C 0.22478 0.58296 0.23772 0.0
C162 C 0.26262 0.56169 0.06873 0.0
C163 C 0.28771 0.55575 0.09128 0.0
C164 C 0.30104 0.53643 0.0528 0.0
C165 C 0.28906 0.52309 0.98983 0.0
C166 C 0.26432 0.52984 0.96503 0.0
C167 C 0.25142 0.54896 0.00476 0.0
C168 C 0.25016 0.5169 0.90013 0.0
C169 C 0.24771 0.53179 0.835 0.0
C170 C 0.23287 0.49389 0.91113 0.0
C171 C 0.21231 0.48696 0.86052 0.0
C172 C 0.20854 0.50305 0.79815 0.0
C173 C 0.32665 0.52977 0.08334 0.0
C174 C 0.34684 0.55024 0.09633 0.0
C175 C 0.32937 0.50431 0.1117 0.0
C176 C 0.35114 0.49989 0.15627 0.0
C177 C 0.3707 0.5208 0.17263 0.0
C178 C 0.36865 0.5458 0.14007 0.0
C179 C 0.22723 0.5249 0.78442 0.0
H180 H 0.19226 0.61254 0.09986 0.0
H181 H 0.22871 0.59783 0.02502 0.0
H182 H 0.25883 0.56184 0.22166 0.0
H183 H 0.22316 0.57747 0.29623 0.0
H184 H 0.29653 0.56544 0.14087 0.0
H185 H 0.23174 0.55281 0.98754 0.0
H186 H 0.29891 0.50787 0.96038 0.0
H187 H 0.26033 0.55005 0.82646 0.0
H188 H 0.23396 0.48248 0.96192 0.0
H189 H 0.19858 0.46977 0.87233 0.0
H190 H 0.34508 0.57011 0.07562 0.0
H191 H 0.3139 0.4883 0.10328 0.0
H192 H 0.22491 0.53798 0.7377 0.0
H193 H 0.38313 0.56243 0.15194 0.0
H194 H 0.35225 0.48034 0.17986 0.0
C195 C 0.0585 0.2046 0.20077 0.0
C196 C 0.07194 0.18305 0.17537 0.0
C197 C 0.06263 0.22928 0.16605 0.0
C198 C 0.08038 0.23287 0.10551 0.0
C199 C 0.09633 0.21239 0.08702 0.0
C200 C 0.09203 0.1876 0.12132 0.0
C201 C 0.07708 0.25434 0.05131 0.0
C202 C 0.07175 0.27982 0.07549 0.0
C203 C 0.06096 0.29746 0.02627 0.0
C204 C 0.05553 0.28933 0.95138 0.0
C205 C 0.06169 0.26398 0.92626 0.0
C206 C 0.07311 0.2472 0.97601 0.0
C207 C 0.05169 0.25122 0.85548 0.0
C208 C 0.02511 0.24087 0.85333 0.0
C209 C 0.06976 0.24038 0.8065 0.0
C210 C 0.06215 0.21748 0.76374 0.0
C211 C 0.03633 0.20498 0.76944 0.0
C212 C 0.05255 0.32265 0.05815 0.0
C213 C 0.03497 0.3214 0.11922 0.0
C214 C 0.06453 0.34758 0.03602 0.0
C215 C 0.05996 0.37074 0.07702 0.0
C216 C 0.04318 0.3693 0.14043 0.0
C217 C 0.03036 0.34434 0.15979 0.0
C218 C 0.01751 0.21787 0.81095 0.0
H219 H 0.04349 0.20189 0.24407 0.0
H220 H 0.05001 0.24461 0.18182 0.0
H221 H 0.11043 0.21475 0.04123 0.0
H222 H 0.10292 0.17148 0.101 0.0
H223 H 0.0746 0.2854 0.13401 0.0
H224 H 0.07588 0.22702 0.95777 0.0
H225 H 0.04553 0.30195 0.91446 0.0
H226 H 0.01087 0.24853 0.89143 0.0
H227 H 0.09048 0.24766 0.80822 0.0
H228 H 0.07716 0.20813 0.73237 0.0
H229 H 0.02564 0.30237 0.13769 0.0
H230 H 0.07837 0.34897 0.9895 0.0
H231 H 0.99733 0.20902 0.81534 0.0
H232 H 0.01771 0.34219 0.20883 0.0
H233 H 0.07 0.38964 0.06015 0.0
C234 C 0.302 0.92168 0.28154 0.0
C235 C 0.32961 0.9262 0.27991 0.0
C236 C 0.287 0.93114 0.22374 0.0
C237 C 0.29937 0.94613 0.16479 0.0
C238 C 0.32716 0.94956 0.16258 0.0
C239 C 0.34201 0.93943 0.21874 0.0
C240 C 0.28385 0.96056 0.11025 0.0
C241 C 0.26014 0.97068 0.132 0.0
C242 C 0.24758 0.98778 0.08537 0.0
C243 C 0.25956 0.99587 0.01658 0.0
C244 C 0.28299 0.98519 0.99309 0.0
C245 C 0.29423 0.96695 0.03891 0.0
C246 C 0.29816 0.99389 0.92486 0.0
C247 C 0.30104 0.97545 0.8664 0.0
C248 C 0.31576 0.01707 0.9282 0.0
C249 C 0.33705 0.02069 0.87768 0.0
C250 C 0.34124 1.00116 0.82269 0.0
C251 C 0.22238 0.99712 0.1129 0.0
C252 C 0.20026 0.9785 0.1213 0.0
C253 C 0.22196 0.0224 0.14659 0.0
C254 C 0.20042 0.02836 0.19143 0.0
C255 C 0.17885 0.00915 0.20349 0.0
C256 C 0.17872 0.98446 0.16561 0.0
C257 C 0.32217 0.97913 0.81558 0.0
H258 H 0.29205 0.91163 0.32858 0.0
H259 H 0.26573 0.92746 0.22685 0.0
H260 H 0.33772 0.96153 0.12017 0.0
H261 H 0.36328 0.94374 0.2171 0.0
H262 H 0.25175 0.96631 0.18696 0.0
H263 H 0.31203 0.95868 0.01967 0.0
H264 H 0.25069 0.01001 0.98172 0.0
H265 H 0.28806 0.95716 0.86345 0.0
H266 H 0.31443 0.03122 0.97398 0.0
H267 H 0.35131 0.03781 0.8856 0.0
H268 H 0.20038 0.95866 0.09724 0.0
H269 H 0.239 0.03689 0.14225 0.0
H270 H 0.32432 0.96394 0.77309 0.0
H271 H 0.16273 0.96902 0.17404 0.0
H272 H 0.2011 0.04768 0.21896 0.0
C273 C 0.43744 0.29162 0.7749 0.0
C274 C 0.46157 0.30616 0.75738 0.0
C275 C 0.43678 0.26947 0.82153 0.0
C276 C 0.46021 0.26181 0.85248 0.0
C277 C 0.48447 0.27391 0.82614 0.0
C278 C 0.48516 0.29595 0.77875 0.0
C279 C 0.45896 0.25225 0.93052 0.0
C280 C 0.46429 0.22656 0.95251 0.0
C281 C 0.46378 0.22014 0.02957 0.0
C282 C 0.45911 0.23989 0.0834 0.0
C283 C 0.45451 0.26557 0.06136 0.0
C284 C 0.45402 0.27129 0.98513 0.0
C285 C 0.45363 0.28782 0.11584 0.0
C286 C 0.47386 0.29278 0.16866 0.0
C287 C 0.43579 0.30707 0.10525 0.0
C288 C 0.43976 0.3319 0.14069 0.0
C289 C 0.46146 0.33783 0.18829 0.0
C290 C 0.46938 0.19356 0.05673 0.0
C291 C 0.45204 0.18018 0.10837 0.0
C292 C 0.49369 0.18355 0.04123 0.0
C293 C 0.50126 0.16161 0.08068 0.0
C294 C 0.48452 0.14918 0.13575 0.0
C295 C 0.45946 0.1582 0.14719 0.0
C296 C 0.4777 0.31757 0.20477 0.0
H297 H 0.41897 0.29885 0.75834 0.0
H298 H 0.41782 0.26075 0.8418 0.0
H299 H 0.50277 0.26874 0.85023 0.0
H300 H 0.50406 0.30673 0.76604 0.0
H301 H 0.46862 0.21183 0.91058 0.0
H302 H 0.4513 0.29142 0.96772 0.0
H303 H 0.45982 0.23547 0.14267 0.0
H304 H 0.48794 0.27832 0.1778 0.0
H305 H 0.41986 0.3036 0.0653 0.0
H306 H 0.42682 0.34695 0.12671 0.0
H307 H 0.4332 0.18759 0.12145 0.0
H308 H 0.50749 0.19366 1.00215 0.0
H309 H 0.49413 0.32127 0.24294 0.0
H310 H 0.44615 0.14932 0.18952 0.0
H311 H 0.52058 0.15496 0.06997 0.0
Dy312 Dy 0.01844 0.99649 0.59449 0.0
C313 C 1.00162 0.04734 0.32432 0.0
C314 C 0.02221 0.96644 0.71898 0.0
Dy315 Dy 0.99792 0.01807 0.45193 0.0
O316 O 0.04207 0.97947 0.6854 0.0
O317 O 1.00039 0.97083 0.68619 0.0
O318 O 0.06024 0.00866 0.55579 0.0
O319 O 0.03107 0.99594 0.47793 0.0
C320 C 0.05474 1.00534 0.48504 0.0
C321 C 0.96072 1.00798 0.55731 0.0
O322 O 0.99081 0.97524 0.41836 0.0
O323 O 0.99986 0.95925 0.53607 0.0
O324 O 0.98143 0.04574 0.36983 0.0
O325 O 0.01861 0.0316 0.34662 0.0
O326 O 0.95603 1.00608 0.48548 0.0
O327 O 0.98426 0.01765 0.56856 0.0
O328 O 0.01972 0.03922 0.63135 0.0
O329 O 0.01833 0.05438 0.50977 0.0
C330 C 0.99156 0.95532 0.46594 0.0
C331 C 0.02227 0.05886 0.58237 0.0
Dy332 Dy 0.50062 0.98368 0.53334 0.0
C333 C 0.57666 0.0695 0.64831 0.0
C334 C 0.45697 0.95017 0.50274 0.0
Dy335 Dy 0.53637 0.03404 0.6014 0.0
O336 O 0.48104 0.94344 0.49971 0.0
O337 O 0.45692 0.97514 0.52165 0.0
O338 O 0.53232 0.9697 0.45373 0.0
O339 O 0.53993 1.00206 0.5239 0.0
C340 C 0.5504 0.98818 0.47537 0.0
C341 C 0.48432 0.03138 0.63233 0.0
O342 O 0.52684 0.0488 0.48774 0.0
O343 O 0.49196 0.01703 0.45744 0.0
O344 O 0.57376 0.06021 0.58033 0.0
O345 O 0.55744 0.05943 0.6908 0.0
O346 O 0.49939 0.05367 0.62805 0.0
O347 O 0.49834 0.01205 0.62665 0.0
O348 O 0.51321 0.96717 0.64171 0.0
O349 O 0.5473 0.99995 0.6725 0.0
C350 C 0.50658 0.03984 0.44489 0.0
C351 C 0.5337 0.97637 0.68348 0.0
Dy352 Dy 0.49558 0.51638 0.64516 0.0
C353 C 0.51958 0.47613 0.35768 0.0
C354 C 0.49775 0.54104 0.78189 0.0
Dy355 Dy 0.52027 0.50108 0.49395 0.0
O356 O 0.47739 0.53964 0.73765 0.0
O357 O 0.51571 0.52738 0.75297 0.0
O358 O 0.45476 0.50492 0.60286 0.0
O359 O 0.48512 0.51973 0.52837 0.0
C360 C 0.46152 0.50933 0.53294 0.0
C361 C 0.55342 0.50635 0.60997 0.0
O362 O 0.52651 0.54493 0.47752 0.0
O363 O 0.51355 0.55574 0.59886 0.0
O364 O 0.53981 0.47858 0.40242 0.0
O365 O 0.50082 0.48888 0.38591 0.0
O366 O 0.56122 0.51144 0.54126 0.0
O367 O 0.52965 0.49683 0.61016 0.0
O368 O 0.48966 0.47227 0.661 0.0
O369 O 0.502 0.46173 0.53886 0.0
C370 C 0.52333 0.56261 0.53172 0.0
C371 C 0.49259 0.45466 0.60622 0.0
Dy372 Dy 1.00028 0.49058 0.60877 0.0
C373 C 0.0687 0.55034 0.39303 0.0
C374 C 0.96575 0.47569 0.72015 0.0
Dy375 Dy 0.03316 0.52654 0.49131 0.0
O376 O 0.98524 0.46224 0.69927 0.0
O377 O 0.96606 0.4976 0.68233 0.0
O378 O 0.99673 0.45204 0.54115 0.0
O379 O 0.01809 0.4856 0.50059 0.0
C380 C 0.01067 0.46175 0.48487 0.0
C381 C 0.00938 0.55215 0.60192 0.0
O382 O 0.99414 0.52099 0.43311 0.0
O383 O 0.96931 0.5073 0.53827 0.0
O384 O 0.06665 0.55684 0.46329 0.0
O385 O 0.05126 0.53065 0.37603 0.0
O386 O 0.0128 0.56128 0.53438 0.0
O387 O 0.02032 0.53084 0.60811 0.0
O388 O 0.04036 0.49181 0.6602 0.0
O389 O 0.06467 0.50821 0.55646 0.0
C390 C 0.9711 0.51551 0.46776 0.0
C391 C 0.06319 0.49787 0.62487 0.0
H392 H 0.12558 0.99477 0.19498 0.0
H393 H 0.18497 0.0331 0.34184 0.0
H394 H 0.1519 0.03642 0.44047 0.0
H395 H 0.10642 0.0259 0.48854 0.0
H396 H 0.04741 0.98684 0.34201 0.0
H397 H 0.07986 0.98621 0.24071 0.0
C398 C 0.13132 1.00391 0.24848 0.0
C399 C 0.15788 0.01361 0.26053 0.0
C400 C 0.11221 1.00545 0.30562 0.0
C401 C 0.16472 0.02575 0.33014 0.0
C402 C 0.14581 0.02744 0.38708 0.0
C403 C 0.10068 0.01737 0.4343 0.0
C404 C 0.07451 1.00638 0.42307 0.0
C405 C 0.11956 0.01699 0.37597 0.0
C406 C 0.06737 0.99552 0.35227 0.0
C407 C 0.08596 0.99508 0.29422 0.0
H408 H 0.45736 0.1032 0.18475 0.0
H409 H 0.53269 0.14978 0.20256 0.0
H410 H 0.54656 0.1196 0.29739 0.0
H411 H 0.53629 0.0817 0.38144 0.0
H412 H 0.46086 0.03515 0.36411 0.0
H413 H 0.44807 0.06366 0.26368 0.0
C414 C 0.47686 0.10667 0.20914 0.0
C415 C 0.4939 0.12881 0.18651 0.0
C416 C 0.48464 0.08938 0.26443 0.0
C417 C 0.51925 0.13276 0.21805 0.0
C418 C 0.52713 0.11564 0.27293 0.0
C419 C 0.51707 0.07772 0.35564 0.0
C420 C 0.49951 0.0564 0.38102 0.0
C421 C 0.50982 0.09416 0.29753 0.0
C422 C 0.47481 0.0514 0.34603 0.0
C423 C 0.46743 0.06774 0.28853 0.0
H424 H 0.36602 0.49559 0.30712 0.0
H425 H 0.42305 0.53929 0.16415 0.0
H426 H 0.45647 0.53887 0.2618 0.0
H427 H 0.46868 0.52871 0.39122 0.0
H428 H 0.41163 0.48488 0.53365 0.0
H429 H 0.37913 0.48271 0.43299 0.0
C430 C 0.3859 0.50455 0.29663 0.0
C431 C 0.39192 0.51754 0.22829 0.0
C432 C 0.40499 0.50446 0.35338 0.0
C433 C 0.41774 0.52941 0.21643 0.0
C434 C 0.4369 0.52917 0.27228 0.0
C435 C 0.44927 0.51834 0.39979 0.0
C436 C 0.44259 0.50694 0.46984 0.0
C437 C 0.43062 0.5172 0.34154 0.0
C438 C 0.41723 0.4939 0.48037 0.0
C439 C 0.39863 0.49261 0.42277 0.0
H440 H 0.99864 0.38296 0.21055 0.0
H441 H 0.08137 0.40879 0.18371 0.0
H442 H 0.07796 0.44278 0.28159 0.0
H443 H 0.05255 0.46126 0.387 0.0
H444 H 0.9712 0.43119 0.41966 0.0
H445 H 0.97299 0.40283 0.30843 0.0
C446 C 0.01597 0.39603 0.22584 0.0
C447 C 0.04029 0.39293 0.19033 0.0
C448 C 0.01414 0.41472 0.28419 0.0
C449 C 0.06232 0.41068 0.20964 0.0
C450 C 0.06046 0.43 0.26631 0.0
C451 C 0.03519 0.44883 0.36859 0.0
C452 C 0.0118 0.44817 0.41133 0.0
C453 C 0.03665 0.43166 0.30571 0.0
C454 C 0.98945 0.43184 0.38774 0.0
C455 C 0.99046 0.4156 0.3242 0.0
H456 H 0.8573 0.99778 0.75769 0.0
H457 H 0.91346 0.0228 0.93054 0.0
H458 H 0.94958 0.02267 0.83946 0.0
H459 H 0.96518 0.01754 0.70864 0.0
H460 H 0.90871 0.99233 0.53684 0.0
H461 H 0.87303 0.99012 0.6294 0.0
C462 C 0.87746 1.00271 0.77597 0.0
C463 C 0.88248 0.01038 0.85122 0.0
C464 C 0.8982 1.00273 0.72309 0.0
C465 C 0.90884 0.01713 0.87301 0.0
C466 C 0.92958 0.01701 0.82089 0.0
C467 C 0.94508 0.01141 0.69166 0.0
C468 C 0.93964 1.0053 0.61567 0.0
C469 C 0.92449 0.01025 0.74543 0.0
C470 C 0.91348 0.99729 0.59473 0.0
C471 C 0.89301 0.99601 0.64772 0.0
H472 H 0.58367 0.91104 0.93885 0.0
H473 H 0.50566 0.8693 0.93345 0.0
H474 H 0.49239 0.8996 0.83836 0.0
H475 H 0.50343 0.93633 0.7517 0.0
H476 H 0.58112 0.97874 0.75659 0.0
H477 H 0.59402 0.94974 0.85631 0.0
C478 C 0.56374 0.90868 0.91708 0.0
C479 C 0.54571 0.88787 0.94351 0.0
C480 C 0.55623 0.92613 0.8617 0.0
C481 C 0.51986 0.8853 0.91517 0.0
C482 C 0.5123 0.90249 0.86013 0.0
C483 C 0.52322 0.93926 0.77444 0.0
C484 C 0.54137 0.95952 0.74597 0.0
C485 C 0.53041 0.9227 0.83219 0.0
C486 C 0.56676 0.96328 0.77722 0.0
C487 C 0.57416 0.94666 0.83424 0.0
H488 H 0.61202 0.48892 0.91363 0.0
H489 H 0.67596 0.53374 0.7976 0.0
H490 H 0.6472 0.53916 0.69089 0.0
H491 H 0.60431 0.52872 0.62659 0.0
H492 H 0.54147 0.48214 0.74225 0.0
H493 H 0.56933 0.47963 0.85182 0.0
C494 C 0.61973 0.49987 0.86505 0.0
C495 C 0.64623 0.51079 0.86399 0.0
C496 C 0.60325 0.50244 0.80311 0.0
C497 C 0.6556 0.52536 0.80079 0.0
C498 C 0.63921 0.52826 0.7392 0.0
C499 C 0.59677 0.51812 0.67594 0.0
C500 C 0.57079 0.50577 0.67625 0.0
C501 C 0.61309 0.51651 0.73913 0.0
C502 C 0.56128 0.49208 0.74062 0.0
C503 C 0.57724 0.49054 0.80342 0.0
H504 H 0.97285 0.63901 0.8255 0.0
H505 H 1.00542 0.58852 0.98742 0.0
H506 H 0.01378 0.55642 0.88782 0.0
H507 H 0.01458 0.54426 0.75261 0.0
H508 H 0.98286 0.59597 0.59237 0.0
H509 H 0.97087 0.62564 0.69351 0.0
C510 C 0.98121 0.62071 0.83957 0.0
C511 C 0.98844 0.61625 0.91412 0.0
C512 C 0.98623 0.60255 0.78201 0.0
C513 C 0.99985 0.59263 0.93054 0.0
C514 C 1.0046 0.57422 0.87357 0.0
C515 C 1.00475 0.56186 0.74015 0.0
C516 C 0.99978 0.56804 0.66507 0.0
C517 C 0.99832 0.5792 0.79879 0.0
C518 C 0.98706 0.5909 0.64963 0.0
C519 C 0.98023 0.6079 0.70744 0.0
H520 H 0.0214 0.16147 0.19052 0.0
H521 H 0.10211 0.14258 0.20915 0.0
H522 H 0.08675 0.09693 0.24356 0.0
H523 H 0.05068 0.06374 0.27744 0.0
H524 H 0.97014 0.08378 0.27107 0.0
H525 H 0.98513 0.12769 0.22081 0.0
C526 C 0.03566 0.14748 0.20306 0.0
C527 C 0.06289 0.15554 0.19847 0.0
C528 C 0.0267 0.12147 0.22377 0.0
C529 C 0.08108 0.13691 0.21246 0.0
C530 C 0.0723 0.11083 0.23204 0.0
C531 C 0.03632 0.07748 0.26343 0.0
C532 C 0.00933 0.07062 0.27754 0.0
C533 C 0.04519 0.10302 0.23861 0.0
C534 C 0.99098 0.08866 0.26003 0.0
C535 C 0.99959 0.11381 0.23222 0.0
H536 H 0.37251 0.89831 0.28582 0.0
H537 H 0.3235 0.94564 0.42043 0.0
H538 H 0.3586 0.95348 0.51303 0.0
H539 H 0.40621 0.95564 0.53808 0.0
H540 H 0.45566 0.90912 0.40218 0.0
H541 H 0.4174 0.89177 0.32819 0.0
C542 C 0.36924 0.90939 0.33706 0.0
C543 C 0.34577 0.92173 0.34612 0.0
C544 C 0.38979 0.91446 0.38873 0.0
C545 C 0.34147 0.93596 0.41256 0.0
C546 C 0.36166 0.94075 0.46494 0.0
C547 C 0.40837 0.94106 0.49367 0.0
C548 C 0.43359 0.93407 0.47404 0.0
C549 C 0.3864 0.93148 0.45102 0.0
C550 C 0.43634 0.91489 0.41757 0.0
C551 C 0.41452 0.90512 0.37502 0.0
H552 H 0.51041 0.36438 0.19986 0.0
H553 H 0.42774 0.37384 0.23622 0.0
H554 H 0.43884 0.41987 0.27651 0.0
H555 H 0.47182 0.45588 0.31121 0.0
H556 H 0.55469 0.44498 0.29166 0.0
H557 H 0.54371 0.4011 0.23296 0.0
C558 C 0.49481 0.37637 0.21752 0.0
C559 C 0.46827 0.36553 0.21555 0.0
C560 C 0.50137 0.40262 0.24247 0.0
C561 C 0.4483 0.38166 0.23667 0.0
C562 C 0.45462 0.40798 0.2598 0.0
C563 C 0.48755 0.44419 0.29255 0.0
C564 C 0.51404 0.45358 0.30537 0.0
C565 C 0.48107 0.41852 0.26367 0.0
C566 C 0.53417 0.43815 0.28169 0.0
C567 C 0.52787 0.41299 0.24914 0.0
H568 H 0.15735 0.57599 0.1525 0.0
H569 H 0.19548 0.61608 0.34305 0.0
H570 H 0.15472 0.60816 0.41672 0.0
H571 H 0.11049 0.58466 0.431 0.0
H572 H 0.07403 0.54116 0.24322 0.0
H573 H 0.11185 0.55582 0.16358 0.0
C574 C 0.15645 0.58373 0.20941 0.0
C575 C 0.17921 0.59674 0.24242 0.0
C576 C 0.13342 0.57808 0.25198 0.0
C577 C 0.17808 0.60611 0.3167 0.0
C578 C 0.15489 0.60143 0.35877 0.0
C579 C 0.11068 0.57875 0.37232 0.0
C580 C 0.08973 0.56172 0.34286 0.0
C581 C 0.13278 0.58661 0.32773 0.0
C582 C 0.0901 0.55414 0.26697 0.0
C583 C 0.11169 0.5625 0.22158 0.0
H584 H 0.05142 0.86538 0.88981 0.0
H585 H 0.96728 0.84578 0.86952 0.0
H586 H 0.96281 0.88882 0.81306 0.0
H587 H 0.98277 0.93127 0.76579 0.0
H588 H 0.06681 0.95116 0.78343 0.0
H589 H 0.07121 0.90919 0.84793 0.0
C590 C 0.0321 0.87061 0.87354 0.0
C591 C 0.0098 0.8522 0.88297 0.0
C592 C 0.02957 0.89559 0.84193 0.0
C593 C 0.9849 0.85925 0.86111 0.0
C594 C 0.98224 0.88401 0.8297 0.0
C595 C 1.00199 0.92664 0.78499 0.0
C596 C 0.02444 0.94418 0.77019 0.0
C597 C 1.00443 0.90224 0.81956 0.0
C598 C 0.04925 0.93793 0.79474 0.0
C599 C 0.05178 0.91387 0.83088 0.0
H600 H 0.69236 0.11118 0.72879 0.0
H601 H 0.65766 0.10837 0.95069 0.0
H602 H 0.61384 0.10194 0.89713 0.0
H603 H 0.58617 0.08756 0.78965 0.0
H604 H 0.62083 0.086 0.5685 0.0
H605 H 0.66365 0.1033 0.61914 0.0
C606 C 0.6752 0.1096 0.76541 0.0
C607 C 0.67853 0.10968 0.84371 0.0
C608 C 0.64994 0.10442 0.73436 0.0
C609 C 0.65596 0.10847 0.89024 0.0
C610 C 0.63075 0.10436 0.85967 0.0
C611 C 0.60299 0.09159 0.75242 0.0
C612 C 0.60059 0.08511 0.67592 0.0
C613 C 0.62764 0.10082 0.78217 0.0
C614 C 0.62235 0.09063 0.62788 0.0
C615 C 0.64684 0.10044 0.65682 0.0
H616 H 0.51421 0.65289 0.93811 0.0
H617 H 0.59555 0.63707 0.90599 0.0
H618 H 0.58138 0.59158 0.86618 0.0
H619 H 0.54626 0.55784 0.83054 0.0
H620 H 0.46491 0.57502 0.84618 0.0
H621 H 0.4787 0.61837 0.90453 0.0
C622 C 0.52885 0.63962 0.92152 0.0
C623 C 0.55593 0.64852 0.92446 0.0
C624 C 0.52056 0.61367 0.89692 0.0
C625 C 0.57462 0.63076 0.90473 0.0
C626 C 0.56654 0.60474 0.8819 0.0
C627 C 0.53144 0.57079 0.84825 0.0
C628 C 0.50459 0.56332 0.83434 0.0
C629 C 0.5396 0.59613 0.87698 0.0
C630 C 0.48567 0.58035 0.85695 0.0
C631 C 0.49359 0.60522 0.88929 0.0
H632 H 0.8712 0.41127 0.88832 0.0
H633 H 0.83237 0.47868 0.81207 0.0
H634 H 0.87316 0.49797 0.75704 0.0
H635 H 0.91974 0.49677 0.73222 0.0
H636 H 0.95998 0.42992 0.80307 0.0
H637 H 0.91902 0.40992 0.86138 0.0
C638 C 0.87168 0.43008 0.85927 0.0
C639 C 0.84849 0.44314 0.85341 0.0
C640 C 0.89557 0.44155 0.82844 0.0
C641 C 0.84954 0.46759 0.81558 0.0
C642 C 0.87302 0.47898 0.78504 0.0
C643 C 0.91969 0.47796 0.7612 0.0
C644 C 0.94276 0.46492 0.76417 0.0
C645 C 0.89612 0.4663 0.79174 0.0
C646 C 0.94237 0.44041 0.80092 0.0
C647 C 0.91895 0.4289 0.83354 0.0
H648 H 0.04995 0.18269 0.63527 0.0
H649 H 0.00991 0.16388 0.84465 0.0
H650 H 1.00315 0.11703 0.80749 0.0
H651 H 0.00908 0.08093 0.71618 0.0
H652 H 0.0475 0.09989 0.50471 0.0
H653 H 0.05478 0.14677 0.54235 0.0
C654 C 0.03965 0.16834 0.67256 0.0
C655 C 0.03028 0.17694 0.74238 0.0
C656 C 0.03581 0.14128 0.65087 0.0
C657 C 0.01688 0.15802 0.78992 0.0
C658 C 0.01324 0.1311 0.76909 0.0
C659 C 0.01929 0.09531 0.67876 0.0
C660 C 0.02799 0.08688 0.60814 0.0
C661 C 0.02277 0.12243 0.69994 0.0
C662 C 0.04069 0.10584 0.55956 0.0
C663 C 0.0448 0.13269 0.58094 0.0
H664 H 0.37027 0.04485 0.7631 0.0
H665 H 0.37015 0.95966 0.78541 0.0
H666 H 0.41321 0.96109 0.72441 0.0
H667 H 0.45274 0.98683 0.67292 0.0
H668 H 0.45334 0.07202 0.65238 0.0
H669 H 0.40878 0.07028 0.70527 0.0
C670 C 0.37961 0.02657 0.75465 0.0
C671 C 0.36668 1.0022 0.77912 0.0
C672 C 0.40477 0.02753 0.72037 0.0
C673 C 0.37917 0.97872 0.76637 0.0
C674 C 0.40404 0.97951 0.73201 0.0
C675 C 0.44297 1.00495 0.67907 0.0
C676 C 0.45642 0.02953 0.65878 0.0
C677 C 0.41725 1.00383 0.70981 0.0
C678 C 0.4435 0.05284 0.6677 0.0
C679 C 0.41798 0.05187 0.69805 0.0
H680 H 0.49049 0.32973 0.64211 0.0
H681 H 0.43429 0.34539 0.81537 0.0
H682 H 0.43841 0.3926 0.78404 0.0
H683 H 0.45984 0.4301 0.71175 0.0
H684 H 0.51443 0.4141 0.53426 0.0
H685 H 0.50906 0.36672 0.56261 0.0
C686 C 0.47894 0.34348 0.67223 0.0
C687 C 0.46204 0.33403 0.73065 0.0
C688 C 0.48127 0.37068 0.65359 0.0
C689 C 0.44716 0.35207 0.76933 0.0
C690 C 0.44967 0.37914 0.75192 0.0
C691 C 0.47045 0.41621 0.67914 0.0
C692 C 0.48765 0.42573 0.62144 0.0
C693 C 0.46694 0.38878 0.69485 0.0
C694 C 0.50101 0.40739 0.57901 0.0
C695 C 0.49803 0.38022 0.59527 0.0
H696 H 0.15818 0.48908 0.8471 0.0
H697 H 0.20319 0.50865 0.646 0.0
H698 H 0.1624 0.50786 0.57428 0.0
H699 H 0.11381 0.50419 0.56999 0.0
H700 H 0.06904 0.48397 0.77129 0.0
H701 H 0.10986 0.48195 0.84077 0.0
C702 C 0.1592 0.49256 0.78725 0.0
C703 C 0.18391 0.49904 0.75236 0.0
C704 C 0.13562 0.49211 0.7462 0.0
C705 C 0.18456 0.50398 0.67481 0.0
C706 C 0.16119 0.50347 0.6336 0.0
C707 C 0.11291 0.49913 0.62893 0.0
C708 C 0.0882 0.49443 0.66516 0.0
C709 C 0.13657 0.49804 0.66896 0.0
C710 C 0.08763 0.48775 0.74159 0.0
C711 C 0.11104 0.48663 0.78163 0.0
H712 H 0.96213 0.84531 0.29885 0.0
H713 H 0.99283 0.81525 0.50253 0.0
H714 H 0.99901 0.86062 0.55456 0.0
H715 H 0.99813 0.90902 0.53886 0.0
H716 H 0.969 0.93888 0.33241 0.0
H717 H 0.95957 0.89337 0.28516 0.0
C718 C 0.96964 0.84859 0.3553 0.0
C719 C 0.9768 0.82685 0.39702 0.0
C720 C 0.97366 0.87475 0.38406 0.0
C721 C 0.98715 0.83161 0.46931 0.0
C722 C 0.99072 0.85755 0.49897 0.0
C723 C 0.98952 0.90563 0.48373 0.0
C724 C 0.98441 0.9275 0.43922 0.0
C725 C 0.98446 0.87933 0.45633 0.0
C726 C 0.9733 0.92256 0.36786 0.0
C727 C 0.96786 0.89649 0.34073 0.0
H728 H 0.67084 0.01749 0.39305 0.0
H729 H 0.64779 0.96909 0.19855 0.0
H730 H 0.60358 0.95991 0.25047 0.0
H731 H 0.57027 0.96747 0.34777 0.0
H732 H 0.59257 0.01705 0.53952 0.0
H733 H 0.63775 0.0246 0.49104 0.0
C734 C 0.65621 1.00503 0.36153 0.0
C735 C 0.66308 0.99404 0.29154 0.0
C736 C 0.63035 1.00039 0.39077 0.0
C737 C 0.64363 0.9775 0.253 0.0
C738 C 0.61807 0.97245 0.2823 0.0
C739 C 0.58506 0.97991 0.37891 0.0
C740 C 0.57793 0.9922 0.44644 0.0
C741 C 0.61108 0.98405 0.35062 0.0
C742 C 0.59735 1.00807 0.48639 0.0
C743 C 0.62327 0.01213 0.45898 0.0
H744 H 0.53098 0.68778 0.49148 0.0
H745 H 0.58984 0.66906 0.32898 0.0
H746 H 0.58303 0.62205 0.36129 0.0
H747 H 0.55873 0.58566 0.4311 0.0
H748 H 0.5014 0.6043 0.59826 0.0
H749 H 0.50919 0.65162 0.569 0.0
C750 C 0.54249 0.6734 0.46393 0.0
C751 C 0.56098 0.68197 0.40825 0.0
C752 C 0.53859 0.64626 0.48314 0.0
C753 C 0.57578 0.6631 0.37293 0.0
C754 C 0.57174 0.63613 0.39087 0.0
C755 C 0.54801 0.6001 0.46122 0.0
C756 C 0.52934 0.5914 0.51621 0.0
C757 C 0.55294 0.6274 0.44513 0.0
C758 C 0.5159 0.61043 0.55559 0.0
C759 C 0.52029 0.63753 0.5388 0.0
H760 H 0.87524 0.52167 0.24625 0.0
H761 H 0.83154 0.51357 0.45431 0.0
H762 H 0.87278 0.51374 0.52365 0.0
H763 H 0.92109 0.51419 0.52494 0.0
H764 H 0.96491 0.52288 0.3171 0.0
H765 H 0.9238 0.52491 0.24837 0.0
C766 C 0.87468 0.52051 0.30691 0.0
C767 C 0.85015 0.51754 0.34478 0.0
C768 C 0.89853 0.52057 0.34658 0.0
C769 C 0.85001 0.51556 0.42342 0.0
C770 C 0.87362 0.51571 0.46322 0.0
C771 C 0.92174 0.51662 0.46461 0.0
C772 C 0.94619 0.51821 0.42638 0.0
C773 C 0.89798 0.51779 0.4253 0.0
C774 C 0.94648 0.5216 0.3482 0.0
C775 C 0.92293 0.52271 0.30873 0.0
loop_
_geom_bond_atom_site_label_1
_geom_bond_atom_site_label_2
_geom_bond_distance
_geom_bond_site_symmetry_2
_ccdc_geom_bond_type
C0 C1 1.386 . S
C0 C2 1.397 . S
C0 H24 0.931 . S
C1 C0 1.386 . S
C1 C5 1.397 . S
C2 C0 1.397 . S
C2 C3 1.384 . S
C2 H25 0.930 . S
C3 C2 1.384 . S
C3 C4 1.377 . S
C3 C6 1.481 . S
C4 C3 1.377 . S
C4 C5 1.389 . S
C4 H26 0.929 . S
C5 C1 1.397 . S
C5 C4 1.389 . S
C5 H27 0.931 . S
C6 C3 1.481 . S
C6 C7 1.387 . S
C6 C11 1.390 1_556 S
C7 C6 1.387 . S
C7 C8 1.401 1_556 S
C7 H28 0.930 . S
C8 C7 1.401 1_554 S
C8 C9 1.376 . S
C8 C17 1.511 1_554 S
C9 C8 1.376 . S
C9 C10 1.392 . S
C9 H30 0.931 . S
C10 C9 1.392 . S
C10 C11 1.361 . S
C10 C12 1.500 . S
C11 C6 1.390 1_554 S
C11 C10 1.361 . S
C11 H29 0.931 . S
C12 C10 1.500 . S
C12 C13 1.371 . S
C12 C14 1.365 . S
C13 C12 1.371 . S
C13 C23 1.386 . S
C13 H31 0.931 . S
C14 C12 1.365 . S
C14 C15 1.409 . S
C14 H32 0.929 . S
C15 C14 1.409 . S
C15 C16 1.380 . S
C15 H33 0.930 . S
C16 C15 1.380 . S
C16 C23 1.357 . S
C17 C8 1.511 1_556 S
C17 C18 1.341 . S
C17 C19 1.371 1_556 S
C18 C17 1.341 . S
C18 C22 1.394 . S
C18 H34 0.930 . S
C19 C17 1.371 1_554 S
C19 C20 1.392 . S
C19 H35 0.931 . S
C20 C19 1.392 . S
C20 C21 1.331 1_554 S
C20 H38 0.932 . S
C21 C20 1.331 1_556 S
C21 C22 1.336 . S
C22 C18 1.394 . S
C22 C21 1.336 . S
C22 H37 0.929 . S
C23 C13 1.386 . S
C23 C16 1.357 . S
C23 H36 0.928 . S
H24 C0 0.931 . S
H25 C2 0.930 . S
H26 C4 0.929 . S
H27 C5 0.931 . S
H28 C7 0.930 . S
H29 C11 0.931 . S
H30 C9 0.931 . S
H31 C13 0.931 . S
H32 C14 0.929 . S
H33 C15 0.930 . S
H34 C18 0.930 . S
H35 C19 0.931 . S
H36 C23 0.928 . S
H37 C22 0.929 . S
H38 C20 0.932 . S
C39 C40 1.386 . S
C39 C41 1.397 . S
C39 H63 0.931 . S
C40 C39 1.386 . S
C40 C44 1.397 . S
C41 C39 1.397 . S
C41 C42 1.384 . S
C41 H64 0.930 . S
C42 C41 1.384 . S
C42 C43 1.377 . S
C42 C45 1.481 . S
C43 C42 1.377 . S
C43 C44 1.389 . S
C43 H65 0.929 . S
C44 C40 1.397 . S
C44 C43 1.389 . S
C44 H66 0.931 . S
C45 C42 1.481 . S
C45 C46 1.387 . S
C45 C50 1.390 1_556 S
C46 C45 1.387 . S
C46 C47 1.401 . S
C46 H67 0.930 . S
C47 C46 1.401 . S
C47 C48 1.376 1_556 S
C47 C56 1.511 . S
C48 C47 1.376 1_554 S
C48 C49 1.392 . S
C48 H69 0.931 . S
C49 C48 1.392 . S
C49 C50 1.361 . S
C49 C51 1.500 . S
C50 C45 1.390 1_554 S
C50 C49 1.361 . S
C50 H68 0.931 . S
C51 C49 1.500 . S
C51 C52 1.371 . S
C51 C53 1.365 . S
C52 C51 1.371 . S
C52 C62 1.386 . S
C52 H70 0.931 . S
C53 C51 1.365 . S
C53 C54 1.409 . S
C53 H71 0.929 . S
C54 C53 1.409 . S
C54 C55 1.380 . S
C54 H72 0.930 . S
C55 C54 1.380 . S
C55 C62 1.357 . S
C56 C47 1.511 . S
C56 C57 1.341 . S
C56 C58 1.371 1_556 S
C57 C56 1.341 . S
C57 C61 1.394 . S
C57 H73 0.930 . S
C58 C56 1.371 1_554 S
C58 C59 1.392 . S
C58 H74 0.931 . S
C59 C58 1.392 . S
C59 C60 1.331 1_554 S
C59 H77 0.932 . S
C60 C59 1.331 1_556 S
C60 C61 1.336 . S
C61 C57 1.394 . S
C61 C60 1.336 . S
C61 H76 0.929 . S
C62 C52 1.386 . S
C62 C55 1.357 . S
C62 H75 0.928 . S
H63 C39 0.931 . S
H64 C41 0.930 . S
H65 C43 0.929 . S
H66 C44 0.931 . S
H67 C46 0.930 . S
H68 C50 0.931 . S
H69 C48 0.931 . S
H70 C52 0.931 . S
H71 C53 0.929 . S
H72 C54 0.930 . S
H73 C57 0.930 . S
H74 C58 0.931 . S
H75 C62 0.928 . S
H76 C61 0.929 . S
H77 C59 0.932 . S
C78 C79 1.395 . S
C78 C80 1.397 . S
C78 H102 0.931 . S
C79 C78 1.395 . S
C79 C83 1.389 1_565 S
C80 C78 1.397 . S
C80 C81 1.389 . S
C80 H103 0.930 . S
C81 C80 1.389 . S
C81 C82 1.372 1_565 S
C81 C84 1.478 . S
C82 C81 1.372 1_545 S
C82 C83 1.389 . S
C82 H104 0.929 . S
C83 C79 1.389 1_545 S
C83 C82 1.389 . S
C83 H105 0.931 . S
C84 C81 1.478 . S
C84 C85 1.392 . S
C84 C89 1.390 1_556 S
C85 C84 1.392 . S
C85 C86 1.399 1_556 S
C85 H106 0.930 . S
C86 C85 1.399 1_554 S
C86 C87 1.376 . S
C86 C95 1.516 1_554 S
C87 C86 1.376 . S
C87 C88 1.393 . S
C87 H108 0.931 . S
C88 C87 1.393 . S
C88 C89 1.362 . S
C88 C90 1.499 1_565 S
C89 C84 1.390 1_554 S
C89 C88 1.362 . S
C89 H107 0.930 . S
C90 C88 1.499 1_545 S
C90 C91 1.360 1_545 S
C90 C92 1.377 . S
C91 C90 1.360 1_565 S
C91 C101 1.386 . S
C91 H109 0.931 . S
C92 C90 1.377 . S
C92 C93 1.409 . S
C92 H110 0.929 . S
C93 C92 1.409 . S
C93 C94 1.380 . S
C93 H111 0.930 . S
C94 C93 1.380 . S
C94 C101 1.358 1_545 S
C95 C86 1.516 1_556 S
C95 C96 1.341 . S
C95 C97 1.371 1_566 S
C96 C95 1.341 . S
C96 C100 1.394 . S
C96 H112 0.930 . S
C97 C95 1.371 1_544 S
C97 C98 1.392 . S
C97 H113 0.931 . S
C98 C97 1.392 . S
C98 C99 1.322 1_544 S
C98 H116 0.932 . S
C99 C98 1.322 1_566 S
C99 C100 1.343 . S
C100 C96 1.394 . S
C100 C99 1.343 . S
C100 H115 0.929 . S
C101 C91 1.386 . S
C101 C94 1.358 1_565 S
C101 H114 0.928 . S
H102 C78 0.931 . S
H103 C80 0.930 . S
H104 C82 0.929 . S
H105 C83 0.931 . S
H106 C85 0.930 . S
H107 C89 0.930 . S
H108 C87 0.931 . S
H109 C91 0.931 . S
H110 C92 0.929 . S
H111 C93 0.930 . S
H112 C96 0.930 . S
H113 C97 0.931 . S
H114 C101 0.928 . S
H115 C100 0.929 . S
H116 C98 0.932 . S
C117 C118 1.386 . S
C117 C119 1.397 . S
C117 H141 0.931 . S
C118 C117 1.386 . S
C118 C122 1.397 . S
C119 C117 1.397 . S
C119 C120 1.384 . S
C119 H142 0.930 . S
C120 C119 1.384 . S
C120 C121 1.377 . S
C120 C123 1.481 . S
C121 C120 1.377 . S
C121 C122 1.389 . S
C121 H143 0.929 . S
C122 C118 1.397 . S
C122 C121 1.389 . S
C122 H144 0.931 . S
C123 C120 1.481 . S
C123 C124 1.387 . S
C123 C128 1.390 . S
C124 C123 1.387 . S
C124 C125 1.401 . S
C124 H145 0.930 . S
C125 C124 1.401 . S
C125 C126 1.376 1_554 S
C125 C134 1.511 . S
C126 C125 1.376 1_556 S
C126 C127 1.392 1_556 S
C126 H147 0.931 . S
C127 C126 1.392 1_554 S
C127 C128 1.361 . S
C127 C129 1.500 1_554 S
C128 C123 1.390 . S
C128 C127 1.361 . S
C128 H146 0.931 . S
C129 C127 1.500 1_556 S
C129 C130 1.371 . S
C129 C131 1.365 . S
C130 C129 1.371 . S
C130 C140 1.386 . S
C130 H148 0.931 . S
C131 C129 1.365 . S
C131 C132 1.409 . S
C131 H149 0.929 . S
C132 C131 1.409 . S
C132 C133 1.380 . S
C132 H150 0.930 . S
C133 C132 1.380 . S
C133 C140 1.357 . S
C134 C125 1.511 . S
C134 C135 1.341 . S
C134 C136 1.371 1_554 S
C135 C134 1.341 . S
C135 C139 1.394 . S
C135 H151 0.930 . S
C136 C134 1.371 1_556 S
C136 C137 1.392 . S
C136 H152 0.931 . S
C137 C136 1.392 . S
C137 C138 1.331 . S
C137 H155 0.932 . S
C138 C137 1.331 . S
C138 C139 1.336 1_556 S
C139 C135 1.394 . S
C139 C138 1.336 1_554 S
C139 H154 0.929 . S
C140 C130 1.386 . S
C140 C133 1.357 . S
C140 H153 0.928 . S
H141 C117 0.931 . S
H142 C119 0.930 . S
H143 C121 0.929 . S
H144 C122 0.931 . S
H145 C124 0.930 . S
H146 C128 0.931 . S
H147 C126 0.931 . S
H148 C130 0.931 . S
H149 C131 0.929 . S
H150 C132 0.930 . S
H151 C135 0.930 . S
H152 C136 0.931 . S
H153 C140 0.928 . S
H154 C139 0.929 . S
H155 C137 0.932 . S
C156 C157 1.386 . S
C156 C158 1.397 . S
C156 H180 0.931 . S
C157 C156 1.386 . S
C157 C161 1.397 . S
C158 C156 1.397 . S
C158 C159 1.384 . S
C158 H181 0.930 . S
C159 C158 1.384 . S
C159 C160 1.377 . S
C159 C162 1.481 . S
C160 C159 1.377 . S
C160 C161 1.389 . S
C160 H182 0.929 . S
C161 C157 1.397 . S
C161 C160 1.389 . S
C161 H183 0.931 . S
C162 C159 1.481 . S
C162 C163 1.387 . S
C162 C167 1.390 . S
C163 C162 1.387 . S
C163 C164 1.401 . S
C163 H184 0.930 . S
C164 C163 1.401 . S
C164 C165 1.376 . S
C164 C173 1.511 . S
C165 C164 1.376 . S
C165 C166 1.392 . S
C165 H186 0.931 1_554 S
C166 C165 1.392 . S
C166 C167 1.361 . S
C166 C168 1.500 1_554 S
C167 C162 1.390 . S
C167 C166 1.361 . S
C167 H185 0.931 . S
C168 C166 1.500 1_556 S
C168 C169 1.371 . S
C168 C170 1.365 . S
C169 C168 1.371 . S
C169 C179 1.386 . S
C169 H187 0.931 . S
C170 C168 1.365 . S
C170 C171 1.409 . S
C170 H188 0.929 . S
C171 C170 1.409 . S
C171 C172 1.380 . S
C171 H189 0.930 . S
C172 C171 1.380 . S
C172 C179 1.357 . S
C173 C164 1.511 . S
C173 C174 1.341 . S
C173 C175 1.371 . S
C174 C173 1.341 . S
C174 C178 1.394 . S
C174 H190 0.930 . S
C175 C173 1.371 . S
C175 C176 1.392 . S
C175 H191 0.931 . S
C176 C175 1.392 . S
C176 C177 1.331 . S
C176 H194 0.932 . S
C177 C176 1.331 . S
C177 C178 1.336 . S
C178 C174 1.394 . S
C178 C177 1.336 . S
C178 H193 0.929 . S
C179 C169 1.386 . S
C179 C172 1.357 . S
C179 H192 0.928 . S
H180 C156 0.931 . S
H181 C158 0.930 . S
H182 C160 0.929 . S
H183 C161 0.931 . S
H184 C163 0.930 . S
H185 C167 0.931 . S
H186 C165 0.931 1_556 S
H187 C169 0.931 . S
H188 C170 0.929 . S
H189 C171 0.930 . S
H190 C174 0.930 . S
H191 C175 0.931 . S
H192 C179 0.928 . S
H193 C178 0.929 . S
H194 C176 0.932 . S
C195 C196 1.386 . S
C195 C197 1.397 . S
C195 H219 0.931 . S
C196 C195 1.386 . S
C196 C200 1.397 . S
C197 C195 1.397 . S
C197 C198 1.384 . S
C197 H220 0.930 . S
C198 C197 1.384 . S
C198 C199 1.377 . S
C198 C201 1.481 . S
C199 C198 1.377 . S
C199 C200 1.389 . S
C199 H221 0.929 . S
C200 C196 1.397 . S
C200 C199 1.389 . S
C200 H222 0.931 . S
C201 C198 1.481 . S
C201 C202 1.387 . S
C201 C206 1.390 . S
C202 C201 1.387 . S
C202 C203 1.401 . S
C202 H223 0.930 . S
C203 C202 1.401 . S
C203 C204 1.376 . S
C203 C212 1.511 . S
C204 C203 1.376 . S
C204 C205 1.392 . S
C204 H225 0.931 1_554 S
C205 C204 1.392 . S
C205 C206 1.361 . S
C205 C207 1.500 1_554 S
C206 C201 1.390 . S
C206 C205 1.361 . S
C206 H224 0.931 . S
C207 C205 1.500 1_556 S
C207 C208 1.371 . S
C207 C209 1.365 . S
C208 C207 1.371 . S
C208 C218 1.386 . S
C208 H226 0.931 . S
C209 C207 1.365 . S
C209 C210 1.409 . S
C209 H227 0.929 . S
C210 C209 1.409 . S
C210 C211 1.380 . S
C210 H228 0.930 . S
C211 C210 1.380 . S
C211 C218 1.357 . S
C212 C203 1.511 . S
C212 C213 1.341 . S
C212 C214 1.371 . S
C213 C212 1.341 . S
C213 C217 1.394 . S
C213 H229 0.930 . S
C214 C212 1.371 . S
C214 C215 1.392 . S
C214 H230 0.931 . S
C215 C214 1.392 . S
C215 C216 1.331 . S
C215 H233 0.932 . S
C216 C215 1.331 . S
C216 C217 1.336 . S
C217 C213 1.394 . S
C217 C216 1.336 . S
C217 H232 0.929 . S
C218 C208 1.386 . S
C218 C211 1.357 . S
C218 H231 0.928 . S
H219 C195 0.931 . S
H220 C197 0.930 . S
H221 C199 0.929 . S
H222 C200 0.931 . S
H223 C202 0.930 . S
H224 C206 0.931 . S
H225 C204 0.931 1_556 S
H226 C208 0.931 . S
H227 C209 0.929 . S
H228 C210 0.930 . S
H229 C213 0.930 . S
H230 C214 0.931 . S
H231 C218 0.928 . S
H232 C217 0.929 . S
H233 C215 0.932 . S
C234 C235 1.388 . S
C234 C236 1.397 . S
C234 H258 0.931 . S
C235 C234 1.388 . S
C235 C239 1.395 1_565 S
C236 C234 1.397 . S
C236 C237 1.383 . S
C236 H259 0.930 . S
C237 C236 1.383 . S
C237 C238 1.378 1_565 S
C237 C240 1.483 . S
C238 C237 1.378 1_545 S
C238 C239 1.389 . S
C238 H260 0.929 . S
C239 C235 1.395 1_545 S
C239 C238 1.389 . S
C239 H261 0.931 . S
C240 C237 1.483 . S
C240 C241 1.386 . S
C240 C245 1.390 . S
C241 C240 1.386 . S
C241 C242 1.404 . S
C241 H262 0.930 . S
C242 C241 1.404 . S
C242 C243 1.376 . S
C242 C251 1.510 . S
C243 C242 1.376 . S
C243 C244 1.395 1_564 S
C243 H264 0.930 1_554 S
C244 C243 1.395 1_546 S
C244 C245 1.361 1_546 S
C244 C246 1.500 . S
C245 C240 1.390 . S
C245 C244 1.361 1_564 S
C245 H263 0.932 . S
C246 C244 1.500 . S
C246 C247 1.359 1_545 S
C246 C248 1.378 . S
C247 C246 1.359 1_565 S
C247 C257 1.386 . S
C247 H265 0.931 . S
C248 C246 1.378 . S
C248 C249 1.409 . S
C248 H266 0.929 . S
C249 C248 1.409 . S
C249 C250 1.384 . S
C249 H267 0.930 . S
C250 C249 1.384 . S
C250 C257 1.354 1_545 S
C251 C242 1.510 . S
C251 C252 1.341 . S
C251 C253 1.371 1_565 S
C252 C251 1.341 . S
C252 C256 1.394 . S
C252 H268 0.930 . S
C253 C251 1.371 1_545 S
C253 C254 1.392 . S
C253 H269 0.931 . S
C254 C253 1.392 . S
C254 C255 1.325 1_545 S
C254 H272 0.932 . S
C255 C254 1.325 1_565 S
C255 C256 1.344 . S
C256 C252 1.394 . S
C256 C255 1.344 . S
C256 H271 0.929 . S
C257 C247 1.386 . S
C257 C250 1.354 1_565 S
C257 H270 0.928 . S
H258 C234 0.931 . S
H259 C236 0.930 . S
H260 C238 0.929 . S
H261 C239 0.931 . S
H262 C241 0.930 . S
H263 C245 0.932 . S
H264 C243 0.930 1_556 S
H265 C247 0.931 . S
H266 C248 0.929 . S
H267 C249 0.930 . S
H268 C252 0.930 . S
H269 C253 0.931 . S
H270 C257 0.928 . S
H271 C256 0.929 . S
H272 C254 0.932 . S
C273 C274 1.386 . S
C273 C275 1.397 . S
C273 H297 0.931 . S
C274 C273 1.386 . S
C274 C278 1.397 . S
C275 C273 1.397 . S
C275 C276 1.384 . S
C275 H298 0.930 . S
C276 C275 1.384 . S
C276 C277 1.377 . S
C276 C279 1.481 . S
C277 C276 1.377 . S
C277 C278 1.389 . S
C277 H299 0.929 . S
C278 C274 1.397 . S
C278 C277 1.389 . S
C278 H300 0.931 . S
C279 C276 1.481 . S
C279 C280 1.387 . S
C279 C284 1.390 1_556 S
C280 C279 1.387 . S
C280 C281 1.401 1_556 S
C280 H301 0.930 . S
C281 C280 1.401 1_554 S
C281 C282 1.376 . S
C281 C290 1.511 . S
C282 C281 1.376 . S
C282 C283 1.392 . S
C282 H303 0.931 . S
C283 C282 1.392 . S
C283 C284 1.361 . S
C283 C285 1.500 . S
C284 C279 1.390 1_554 S
C284 C283 1.361 . S
C284 H302 0.931 . S
C285 C283 1.500 . S
C285 C286 1.371 . S
C285 C287 1.365 . S
C286 C285 1.371 . S
C286 C296 1.386 . S
C286 H304 0.931 . S
C287 C285 1.365 . S
C287 C288 1.409 . S
C287 H305 0.929 . S
C288 C287 1.409 . S
C288 C289 1.380 . S
C288 H306 0.930 . S
C289 C288 1.380 . S
C289 C296 1.357 . S
C290 C281 1.511 . S
C290 C291 1.341 . S
C290 C292 1.371 . S
C291 C290 1.341 . S
C291 C295 1.394 . S
C291 H307 0.930 1_554 S
C292 C290 1.371 . S
C292 C293 1.392 . S
C292 H308 0.931 . S
C293 C292 1.392 . S
C293 C294 1.331 . S
C293 H311 0.932 . S
C294 C293 1.331 . S
C294 C295 1.336 . S
C295 C291 1.394 . S
C295 C294 1.336 . S
C295 H310 0.929 . S
C296 C286 1.386 . S
C296 C289 1.357 . S
C296 H309 0.928 . S
H297 C273 0.931 . S
H298 C275 0.930 . S
H299 C277 0.929 . S
H300 C278 0.931 . S
H301 C280 0.930 . S
H302 C284 0.931 . S
H303 C282 0.931 . S
H304 C286 0.931 . S
H305 C287 0.929 . S
H306 C288 0.930 . S
H307 C291 0.930 1_556 S
H308 C292 0.931 . S
H309 C296 0.928 . S
H310 C295 0.929 . S
H311 C293 0.932 . S
Dy312 O316 2.398 . S
Dy312 O317 2.491 1_455 S
Dy312 O318 2.403 . S
Dy312 O319 2.664 1_565 S
Dy312 O323 2.326 . S
Dy312 O327 2.310 1_455 S
Dy312 O328 2.351 1_565 S
C313 O324 1.185 1_455 S
C313 O325 1.355 . S
C314 O316 1.185 . S
C314 O317 1.355 1_455 S
Dy315 O319 2.310 1_655 S
Dy315 O322 2.351 1_545 S
Dy315 O324 2.398 . S
Dy315 O325 2.491 1_655 S
Dy315 O326 2.403 . S
Dy315 O327 2.664 1_545 S
Dy315 O329 2.326 1_655 S
O316 Dy312 2.398 . S
O316 C314 1.185 . S
O317 Dy312 2.491 1_655 S
O317 C314 1.355 1_655 S
O318 Dy312 2.403 . S
O318 C320 1.254 . S
O319 Dy312 2.664 1_545 S
O319 Dy315 2.310 1_455 S
O319 C320 1.268 1_545 S
C320 O318 1.254 . S
C320 O319 1.268 1_565 S
C321 O326 1.254 . S
C321 O327 1.268 1_545 S
O322 Dy315 2.351 1_565 S
O322 C330 1.249 . S
O323 Dy312 2.326 . S
O323 C330 1.267 1_455 S
O324 C313 1.185 1_655 S
O324 Dy315 2.398 . S
O325 C313 1.355 . S
O325 Dy315 2.491 1_455 S
O326 Dy315 2.403 . S
O326 C321 1.254 . S
O327 Dy312 2.310 1_655 S
O327 Dy315 2.664 1_565 S
O327 C321 1.268 1_565 S
O328 Dy312 2.351 1_545 S
O328 C331 1.249 . S
O329 Dy315 2.326 1_455 S
O329 C331 1.267 . S
C330 O322 1.249 . S
C330 O323 1.267 1_655 S
C331 O328 1.249 . S
C331 O329 1.267 . S
Dy332 O336 2.398 . S
Dy332 O337 2.491 . S
Dy332 O338 2.403 . S
Dy332 O339 2.664 . S
Dy332 O343 2.326 1_565 S
Dy332 O347 2.310 1_565 S
Dy332 O348 2.351 . S
C333 O344 1.185 . S
C333 O345 1.355 . S
C334 O336 1.185 . S
C334 O337 1.355 . S
Dy335 O339 2.310 1_545 S
Dy335 O342 2.351 . S
Dy335 O344 2.398 . S
Dy335 O345 2.491 . S
Dy335 O346 2.403 . S
Dy335 O347 2.664 . S
Dy335 O349 2.326 1_545 S
O336 Dy332 2.398 . S
O336 C334 1.185 . S
O337 Dy332 2.491 . S
O337 C334 1.355 . S
O338 Dy332 2.403 . S
O338 C340 1.254 . S
O339 Dy332 2.664 . S
O339 Dy335 2.310 1_565 S
O339 C340 1.268 . S
C340 O338 1.254 . S
C340 O339 1.268 . S
C341 O346 1.254 . S
C341 O347 1.268 . S
O342 Dy335 2.351 . S
O342 C350 1.249 . S
O343 Dy332 2.326 1_545 S
O343 C350 1.267 . S
O344 C333 1.185 . S
O344 Dy335 2.398 . S
O345 C333 1.355 . S
O345 Dy335 2.491 . S
O346 Dy335 2.403 . S
O346 C341 1.254 . S
O347 Dy332 2.310 1_545 S
O347 Dy335 2.664 . S
O347 C341 1.268 . S
O348 Dy332 2.351 . S
O348 C351 1.249 . S
O349 Dy335 2.326 1_565 S
O349 C351 1.267 . S
C350 O342 1.249 . S
C350 O343 1.267 . S
C351 O348 1.249 . S
C351 O349 1.267 . S
Dy352 O356 2.398 . S
Dy352 O357 2.491 . S
Dy352 O358 2.403 . S
Dy352 O359 2.664 . S
Dy352 O363 2.326 . S
Dy352 O367 2.310 . S
Dy352 O368 2.351 . S
C353 O364 1.185 . S
C353 O365 1.355 . S
C354 O356 1.185 . S
C354 O357 1.355 . S
Dy355 O359 2.310 . S
Dy355 O362 2.351 . S
Dy355 O364 2.398 . S
Dy355 O365 2.491 . S
Dy355 O366 2.403 . S
Dy355 O367 2.664 . S
Dy355 O369 2.326 . S
O356 Dy352 2.398 . S
O356 C354 1.185 . S
O357 Dy352 2.491 . S
O357 C354 1.355 . S
O358 Dy352 2.403 . S
O358 C360 1.254 . S
O359 Dy352 2.664 . S
O359 Dy355 2.310 . S
O359 C360 1.268 . S
C360 O358 1.254 . S
C360 O359 1.268 . S
C361 O366 1.254 . S
C361 O367 1.268 . S
O362 Dy355 2.351 . S
O362 C370 1.249 . S
O363 Dy352 2.326 . S
O363 C370 1.267 . S
O364 C353 1.185 . S
O364 Dy355 2.398 . S
O365 C353 1.355 . S
O365 Dy355 2.491 . S
O366 Dy355 2.403 . S
O366 C361 1.254 . S
O367 Dy352 2.310 . S
O367 Dy355 2.664 . S
O367 C361 1.268 . S
O368 Dy352 2.351 . S
O368 C371 1.249 . S
O369 Dy355 2.326 . S
O369 C371 1.267 . S
C370 O362 1.249 . S
C370 O363 1.267 . S
C371 O368 1.249 . S
C371 O369 1.267 . S
Dy372 O376 2.398 . S
Dy372 O377 2.491 . S
Dy372 O378 2.403 1_655 S
Dy372 O379 2.664 1_655 S
Dy372 O383 2.326 . S
Dy372 O387 2.310 . S
Dy372 O388 2.351 1_655 S
C373 O384 1.185 . S
C373 O385 1.355 . S
C374 O376 1.185 . S
C374 O377 1.355 . S
Dy375 O379 2.310 . S
Dy375 O382 2.351 1_455 S
Dy375 O384 2.398 . S
Dy375 O385 2.491 . S
Dy375 O386 2.403 . S
Dy375 O387 2.664 1_455 S
Dy375 O389 2.326 . S
O376 Dy372 2.398 . S
O376 C374 1.185 . S
O377 Dy372 2.491 . S
O377 C374 1.355 . S
O378 Dy372 2.403 1_455 S
O378 C380 1.254 . S
O379 Dy372 2.664 1_455 S
O379 Dy375 2.310 . S
O379 C380 1.268 . S
C380 O378 1.254 . S
C380 O379 1.268 . S
C381 O386 1.254 1_655 S
C381 O387 1.268 . S
O382 Dy375 2.351 1_655 S
O382 C390 1.249 . S
O383 Dy372 2.326 . S
O383 C390 1.267 . S
O384 C373 1.185 . S
O384 Dy375 2.398 . S
O385 C373 1.355 . S
O385 Dy375 2.491 . S
O386 Dy375 2.403 . S
O386 C381 1.254 1_455 S
O387 Dy372 2.310 . S
O387 Dy375 2.664 1_655 S
O387 C381 1.268 . S
O388 Dy372 2.351 1_455 S
O388 C391 1.249 . S
O389 Dy375 2.326 . S
O389 C391 1.267 . S
C390 O382 1.249 . S
C390 O383 1.267 . S
C391 O388 1.249 . S
C391 O389 1.267 . S
H392 C398 0.930 . S
H393 C401 0.930 . S
H394 C402 0.930 . S
H395 C403 0.930 . S
H396 C406 0.930 . S
H397 C407 0.930 . S
C398 H392 0.930 . S
C398 C399 1.355 1_565 S
C398 C400 1.415 . S
C399 C398 1.355 1_545 S
C399 C401 1.419 . S
C400 C398 1.415 . S
C400 C405 1.425 1_565 S
C400 C407 1.409 . S
C401 H393 0.930 . S
C401 C399 1.419 . S
C401 C402 1.362 . S
C402 H394 0.930 . S
C402 C401 1.362 . S
C402 C405 1.409 . S
C403 H395 0.930 . S
C403 C404 1.355 1_545 S
C403 C405 1.415 . S
C404 C403 1.355 1_565 S
C404 C406 1.419 . S
C405 C400 1.425 1_545 S
C405 C402 1.409 . S
C405 C403 1.415 . S
C406 H396 0.930 . S
C406 C404 1.419 . S
C406 C407 1.362 . S
C407 H397 0.930 . S
C407 C400 1.409 . S
C407 C406 1.362 . S
H408 C414 0.930 . S
H409 C417 0.930 . S
H410 C418 0.930 . S
H411 C419 0.930 . S
H412 C422 0.930 . S
H413 C423 0.930 . S
C414 H408 0.930 . S
C414 C415 1.355 . S
C414 C416 1.415 . S
C415 C414 1.355 . S
C415 C417 1.419 . S
C416 C414 1.415 . S
C416 C421 1.425 . S
C416 C423 1.409 . S
C417 H409 0.930 . S
C417 C415 1.419 . S
C417 C418 1.362 . S
C418 H410 0.930 . S
C418 C417 1.362 . S
C418 C421 1.409 . S
C419 H411 0.930 . S
C419 C420 1.355 . S
C419 C421 1.415 . S
C420 C419 1.355 . S
C420 C422 1.419 . S
C421 C416 1.425 . S
C421 C418 1.409 . S
C421 C419 1.415 . S
C422 H412 0.930 . S
C422 C420 1.419 . S
C422 C423 1.362 . S
C423 H413 0.930 . S
C423 C416 1.409 . S
C423 C422 1.362 . S
H424 C430 0.930 . S
H425 C433 0.930 . S
H426 C434 0.930 . S
H427 C435 0.930 . S
H428 C438 0.930 . S
H429 C439 0.930 . S
C430 H424 0.930 . S
C430 C431 1.355 . S
C430 C432 1.415 . S
C431 C430 1.355 . S
C431 C433 1.419 . S
C432 C430 1.415 . S
C432 C437 1.425 . S
C432 C439 1.409 . S
C433 H425 0.930 . S
C433 C431 1.419 . S
C433 C434 1.362 . S
C434 H426 0.930 . S
C434 C433 1.362 . S
C434 C437 1.409 . S
C435 H427 0.930 . S
C435 C436 1.355 . S
C435 C437 1.415 . S
C436 C435 1.355 . S
C436 C438 1.419 . S
C437 C432 1.425 . S
C437 C434 1.409 . S
C437 C435 1.415 . S
C438 H428 0.930 . S
C438 C436 1.419 . S
C438 C439 1.362 . S
C439 H429 0.930 . S
C439 C432 1.409 . S
C439 C438 1.362 . S
H440 C446 0.930 . S
H441 C449 0.930 . S
H442 C450 0.930 . S
H443 C451 0.930 . S
H444 C454 0.930 . S
H445 C455 0.930 . S
C446 H440 0.930 . S
C446 C447 1.355 . S
C446 C448 1.415 . S
C447 C446 1.355 . S
C447 C449 1.419 . S
C448 C446 1.415 . S
C448 C453 1.425 . S
C448 C455 1.409 . S
C449 H441 0.930 . S
C449 C447 1.419 . S
C449 C450 1.362 . S
C450 H442 0.930 . S
C450 C449 1.362 . S
C450 C453 1.409 . S
C451 H443 0.930 . S
C451 C452 1.355 . S
C451 C453 1.415 . S
C452 C451 1.355 . S
C452 C454 1.419 . S
C453 C448 1.425 . S
C453 C450 1.409 . S
C453 C451 1.415 . S
C454 H444 0.930 . S
C454 C452 1.419 . S
C454 C455 1.362 . S
C455 H445 0.930 . S
C455 C448 1.409 . S
C455 C454 1.362 . S
H456 C462 0.930 . S
H457 C465 0.930 . S
H458 C466 0.930 . S
H459 C467 0.930 . S
H460 C470 0.930 . S
H461 C471 0.930 . S
C462 H456 0.930 . S
C462 C463 1.355 1_565 S
C462 C464 1.415 . S
C463 C462 1.355 1_545 S
C463 C465 1.419 . S
C464 C462 1.415 . S
C464 C469 1.425 1_565 S
C464 C471 1.409 . S
C465 H457 0.930 . S
C465 C463 1.419 . S
C465 C466 1.362 . S
C466 H458 0.930 . S
C466 C465 1.362 . S
C466 C469 1.409 . S
C467 H459 0.930 . S
C467 C468 1.355 . S
C467 C469 1.415 . S
C468 C467 1.355 . S
C468 C470 1.419 1_545 S
C469 C464 1.425 1_545 S
C469 C466 1.409 . S
C469 C467 1.415 . S
C470 H460 0.930 . S
C470 C468 1.419 1_565 S
C470 C471 1.362 . S
C471 H461 0.930 . S
C471 C464 1.409 . S
C471 C470 1.362 . S
H472 C478 0.930 . S
H473 C481 0.930 . S
H474 C482 0.930 . S
H475 C483 0.930 . S
H476 C486 0.930 . S
H477 C487 0.930 . S
C478 H472 0.930 . S
C478 C479 1.355 . S
C478 C480 1.415 . S
C479 C478 1.355 . S
C479 C481 1.419 . S
C480 C478 1.415 . S
C480 C485 1.425 . S
C480 C487 1.409 . S
C481 H473 0.930 . S
C481 C479 1.419 . S
C481 C482 1.362 . S
C482 H474 0.930 . S
C482 C481 1.362 . S
C482 C485 1.409 . S
C483 H475 0.930 . S
C483 C484 1.355 . S
C483 C485 1.415 . S
C484 C483 1.355 . S
C484 C486 1.419 . S
C485 C480 1.425 . S
C485 C482 1.409 . S
C485 C483 1.415 . S
C486 H476 0.930 . S
C486 C484 1.419 . S
C486 C487 1.362 . S
C487 H477 0.930 . S
C487 C480 1.409 . S
C487 C486 1.362 . S
H488 C494 0.930 . S
H489 C497 0.930 . S
H490 C498 0.930 . S
H491 C499 0.930 . S
H492 C502 0.930 . S
H493 C503 0.930 . S
C494 H488 0.930 . S
C494 C495 1.355 . S
C494 C496 1.415 . S
C495 C494 1.355 . S
C495 C497 1.419 . S
C496 C494 1.415 . S
C496 C501 1.425 . S
C496 C503 1.409 . S
C497 H489 0.930 . S
C497 C495 1.419 . S
C497 C498 1.362 . S
C498 H490 0.930 . S
C498 C497 1.362 . S
C498 C501 1.409 . S
C499 H491 0.930 . S
C499 C500 1.355 . S
C499 C501 1.415 . S
C500 C499 1.355 . S
C500 C502 1.419 . S
C501 C496 1.425 . S
C501 C498 1.409 . S
C501 C499 1.415 . S
C502 H492 0.930 . S
C502 C500 1.419 . S
C502 C503 1.362 . S
C503 H493 0.930 . S
C503 C496 1.409 . S
C503 C502 1.362 . S
H504 C510 0.930 . S
H505 C513 0.930 . S
H506 C514 0.930 1_455 S
H507 C515 0.930 1_455 S
H508 C518 0.930 . S
H509 C519 0.930 . S
C510 H504 0.930 . S
C510 C511 1.355 . S
C510 C512 1.415 . S
C511 C510 1.355 . S
C511 C513 1.419 . S
C512 C510 1.415 . S
C512 C517 1.425 . S
C512 C519 1.409 . S
C513 H505 0.930 . S
C513 C511 1.419 . S
C513 C514 1.362 . S
C514 H506 0.930 1_655 S
C514 C513 1.362 . S
C514 C517 1.409 . S
C515 H507 0.930 1_655 S
C515 C516 1.355 . S
C515 C517 1.415 . S
C516 C515 1.355 . S
C516 C518 1.419 . S
C517 C512 1.425 . S
C517 C514 1.409 . S
C517 C515 1.415 . S
C518 H508 0.930 . S
C518 C516 1.419 . S
C518 C519 1.362 . S
C519 H509 0.930 . S
C519 C512 1.409 . S
C519 C518 1.362 . S
H520 C526 0.930 . S
H521 C529 0.930 . S
H522 C530 0.930 . S
H523 C531 0.930 . S
H524 C534 0.930 1_655 S
H525 C535 0.930 . S
C526 H520 0.930 . S
C526 C527 1.355 . S
C526 C528 1.415 . S
C527 C526 1.355 . S
C527 C529 1.419 . S
C528 C526 1.415 . S
C528 C533 1.425 . S
C528 C535 1.409 . S
C529 H521 0.930 . S
C529 C527 1.419 . S
C529 C530 1.362 . S
C530 H522 0.930 . S
C530 C529 1.362 . S
C530 C533 1.409 . S
C531 H523 0.930 . S
C531 C532 1.355 . S
C531 C533 1.415 . S
C532 C531 1.355 . S
C532 C534 1.419 . S
C533 C528 1.425 . S
C533 C530 1.409 . S
C533 C531 1.415 . S
C534 H524 0.930 1_455 S
C534 C532 1.419 . S
C534 C535 1.362 . S
C535 H525 0.930 . S
C535 C528 1.409 . S
C535 C534 1.362 . S
H536 C542 0.930 . S
H537 C545 0.930 . S
H538 C546 0.930 . S
H539 C547 0.930 . S
H540 C550 0.930 . S
H541 C551 0.930 . S
C542 H536 0.930 . S
C542 C543 1.355 1_565 S
C542 C544 1.415 . S
C543 C542 1.355 1_545 S
C543 C545 1.419 . S
C544 C542 1.415 . S
C544 C549 1.425 1_565 S
C544 C551 1.409 . S
C545 H537 0.930 . S
C545 C543 1.419 . S
C545 C546 1.362 . S
C546 H538 0.930 . S
C546 C545 1.362 . S
C546 C549 1.409 . S
C547 H539 0.930 . S
C547 C548 1.355 1_545 S
C547 C549 1.415 . S
C548 C547 1.355 1_565 S
C548 C550 1.419 . S
C549 C544 1.425 1_545 S
C549 C546 1.409 . S
C549 C547 1.415 . S
C550 H540 0.930 . S
C550 C548 1.419 . S
C550 C551 1.362 . S
C551 H541 0.930 . S
C551 C544 1.409 . S
C551 C550 1.362 . S
H552 C558 0.930 . S
H553 C561 0.930 . S
H554 C562 0.930 . S
H555 C563 0.930 . S
H556 C566 0.930 . S
H557 C567 0.930 . S
C558 H552 0.930 . S
C558 C559 1.355 . S
C558 C560 1.415 . S
C559 C558 1.355 . S
C559 C561 1.419 . S
C560 C558 1.415 . S
C560 C565 1.425 . S
C560 C567 1.409 . S
C561 H553 0.930 . S
C561 C559 1.419 . S
C561 C562 1.362 . S
C562 H554 0.930 . S
C562 C561 1.362 . S
C562 C565 1.409 . S
C563 H555 0.930 . S
C563 C564 1.355 . S
C563 C565 1.415 . S
C564 C563 1.355 . S
C564 C566 1.419 . S
C565 C560 1.425 . S
C565 C562 1.409 . S
C565 C563 1.415 . S
C566 H556 0.930 . S
C566 C564 1.419 . S
C566 C567 1.362 . S
C567 H557 0.930 . S
C567 C560 1.409 . S
C567 C566 1.362 . S
H568 C574 0.930 . S
H569 C577 0.930 . S
H570 C578 0.930 . S
H571 C579 0.930 . S
H572 C582 0.930 . S
H573 C583 0.930 . S
C574 H568 0.930 . S
C574 C575 1.355 . S
C574 C576 1.415 . S
C575 C574 1.355 . S
C575 C577 1.419 . S
C576 C574 1.415 . S
C576 C581 1.425 . S
C576 C583 1.409 . S
C577 H569 0.930 . S
C577 C575 1.419 . S
C577 C578 1.362 . S
C578 H570 0.930 . S
C578 C577 1.362 . S
C578 C581 1.409 . S
C579 H571 0.930 . S
C579 C580 1.355 . S
C579 C581 1.415 . S
C580 C579 1.355 . S
C580 C582 1.419 . S
C581 C576 1.425 . S
C581 C578 1.409 . S
C581 C579 1.415 . S
C582 H572 0.930 . S
C582 C580 1.419 . S
C582 C583 1.362 . S
C583 H573 0.930 . S
C583 C576 1.409 . S
C583 C582 1.362 . S
H584 C590 0.930 . S
H585 C593 0.930 . S
H586 C594 0.930 . S
H587 C595 0.930 . S
H588 C598 0.930 1_455 S
H589 C599 0.930 . S
C590 H584 0.930 . S
C590 C591 1.355 . S
C590 C592 1.415 . S
C591 C590 1.355 . S
C591 C593 1.419 . S
C592 C590 1.415 . S
C592 C597 1.425 . S
C592 C599 1.409 . S
C593 H585 0.930 . S
C593 C591 1.419 . S
C593 C594 1.362 . S
C594 H586 0.930 . S
C594 C593 1.362 . S
C594 C597 1.409 . S
C595 H587 0.930 . S
C595 C596 1.355 . S
C595 C597 1.415 . S
C596 C595 1.355 . S
C596 C598 1.419 . S
C597 C592 1.425 . S
C597 C594 1.409 . S
C597 C595 1.415 . S
C598 H588 0.930 1_655 S
C598 C596 1.419 . S
C598 C599 1.362 . S
C599 H589 0.930 . S
C599 C592 1.409 . S
C599 C598 1.362 . S
H600 C606 0.930 . S
H601 C609 0.930 . S
H602 C610 0.930 . S
H603 C611 0.930 1_565 S
H604 C614 0.930 . S
H605 C615 0.930 . S
C606 H600 0.930 . S
C606 C607 1.355 1_545 S
C606 C608 1.415 . S
C607 C606 1.355 1_565 S
C607 C609 1.419 . S
C608 C606 1.415 . S
C608 C613 1.435 . S
C608 C615 1.409 . S
C609 H601 0.930 . S
C609 C607 1.419 . S
C609 C610 1.362 . S
C610 H602 0.930 . S
C610 C609 1.362 . S
C610 C613 1.396 1_565 S
C611 H603 0.930 1_545 S
C611 C612 1.355 . S
C611 C613 1.419 . S
C612 C611 1.355 . S
C612 C614 1.419 . S
C613 C608 1.435 . S
C613 C610 1.396 1_545 S
C613 C611 1.419 . S
C614 H604 0.930 . S
C614 C612 1.419 . S
C614 C615 1.362 . S
C615 H605 0.930 . S
C615 C608 1.409 . S
C615 C614 1.362 . S
H616 C622 0.930 . S
H617 C625 0.930 . S
H618 C626 0.930 . S
H619 C627 0.930 . S
H620 C630 0.930 . S
H621 C631 0.930 . S
C622 H616 0.930 . S
C622 C623 1.355 . S
C622 C624 1.415 . S
C623 C622 1.355 . S
C623 C625 1.419 . S
C624 C622 1.415 . S
C624 C629 1.425 . S
C624 C631 1.409 . S
C625 H617 0.930 . S
C625 C623 1.419 . S
C625 C626 1.362 . S
C626 H618 0.930 . S
C626 C625 1.362 . S
C626 C629 1.409 . S
C627 H619 0.930 . S
C627 C628 1.355 . S
C627 C629 1.415 . S
C628 C627 1.355 . S
C628 C630 1.419 . S
C629 C624 1.425 . S
C629 C626 1.409 . S
C629 C627 1.415 . S
C630 H620 0.930 . S
C630 C628 1.419 . S
C630 C631 1.362 . S
C631 H621 0.930 . S
C631 C624 1.409 . S
C631 C630 1.362 . S
H632 C638 0.930 . S
H633 C641 0.930 . S
H634 C642 0.930 . S
H635 C643 0.930 . S
H636 C646 0.930 . S
H637 C647 0.930 . S
C638 H632 0.930 . S
C638 C639 1.355 . S
C638 C640 1.415 . S
C639 C638 1.355 . S
C639 C641 1.419 . S
C640 C638 1.415 . S
C640 C645 1.425 . S
C640 C647 1.409 . S
C641 H633 0.930 . S
C641 C639 1.419 . S
C641 C642 1.362 . S
C642 H634 0.930 . S
C642 C641 1.362 . S
C642 C645 1.409 . S
C643 H635 0.930 . S
C643 C644 1.355 . S
C643 C645 1.415 . S
C644 C643 1.355 . S
C644 C646 1.419 . S
C645 C640 1.425 . S
C645 C642 1.409 . S
C645 C643 1.415 . S
C646 H636 0.930 . S
C646 C644 1.419 . S
C646 C647 1.362 . S
C647 H637 0.930 . S
C647 C640 1.409 . S
C647 C646 1.362 . S
H648 C654 0.930 . S
H649 C657 0.930 . S
H650 C658 0.930 . S
H651 C659 0.930 . S
H652 C662 0.930 . S
H653 C663 0.930 . S
C654 H648 0.930 . S
C654 C655 1.355 . S
C654 C656 1.415 . S
C655 C654 1.355 . S
C655 C657 1.419 . S
C656 C654 1.415 . S
C656 C661 1.425 . S
C656 C663 1.409 . S
C657 H649 0.930 . S
C657 C655 1.419 . S
C657 C658 1.362 . S
C658 H650 0.930 . S
C658 C657 1.362 . S
C658 C661 1.409 . S
C659 H651 0.930 . S
C659 C660 1.355 . S
C659 C661 1.415 . S
C660 C659 1.355 . S
C660 C662 1.419 . S
C661 C656 1.425 . S
C661 C658 1.409 . S
C661 C659 1.415 . S
C662 H652 0.930 . S
C662 C660 1.419 . S
C662 C663 1.362 . S
C663 H653 0.930 . S
C663 C656 1.409 . S
C663 C662 1.362 . S
H664 C670 0.930 . S
H665 C673 0.930 . S
H666 C674 0.930 . S
H667 C675 0.937 . S
H668 C678 0.930 . S
H669 C679 0.930 . S
C670 H664 0.930 . S
C670 C671 1.355 1_545 S
C670 C672 1.415 . S
C671 C670 1.355 1_565 S
C671 C673 1.419 . S
C672 C670 1.415 . S
C672 C677 1.425 . S
C672 C679 1.409 . S
C673 H665 0.930 . S
C673 C671 1.419 . S
C673 C674 1.362 . S
C674 H666 0.930 . S
C674 C673 1.362 . S
C674 C677 1.409 1_565 S
C675 H667 0.937 . S
C675 C676 1.355 . S
C675 C677 1.415 . S
C676 C675 1.355 . S
C676 C678 1.419 . S
C677 C672 1.425 . S
C677 C674 1.409 1_545 S
C677 C675 1.415 . S
C678 H668 0.930 . S
C678 C676 1.419 . S
C678 C679 1.362 . S
C679 H669 0.930 . S
C679 C672 1.409 . S
C679 C678 1.362 . S
H680 C686 0.930 . S
H681 C689 0.930 . S
H682 C690 0.930 . S
H683 C691 0.930 . S
H684 C694 0.930 . S
H685 C695 0.930 . S
C686 H680 0.930 . S
C686 C687 1.355 . S
C686 C688 1.415 . S
C687 C686 1.355 . S
C687 C689 1.419 . S
C688 C686 1.415 . S
C688 C693 1.425 . S
C688 C695 1.409 . S
C689 H681 0.930 . S
C689 C687 1.419 . S
C689 C690 1.362 . S
C690 H682 0.930 . S
C690 C689 1.362 . S
C690 C693 1.409 . S
C691 H683 0.930 . S
C691 C692 1.355 . S
C691 C693 1.415 . S
C692 C691 1.355 . S
C692 C694 1.419 . S
C693 C688 1.425 . S
C693 C690 1.409 . S
C693 C691 1.415 . S
C694 H684 0.930 . S
C694 C692 1.419 . S
C694 C695 1.362 . S
C695 H685 0.930 . S
C695 C688 1.409 . S
C695 C694 1.362 . S
H696 C702 0.930 . S
H697 C705 0.930 . S
H698 C706 0.930 . S
H699 C707 0.930 . S
H700 C710 0.930 . S
H701 C711 0.930 . S
C702 H696 0.930 . S
C702 C703 1.355 . S
C702 C704 1.415 . S
C703 C702 1.355 . S
C703 C705 1.419 . S
C704 C702 1.415 . S
C704 C709 1.425 . S
C704 C711 1.409 . S
C705 H697 0.930 . S
C705 C703 1.419 . S
C705 C706 1.362 . S
C706 H698 0.930 . S
C706 C705 1.362 . S
C706 C709 1.409 . S
C707 H699 0.930 . S
C707 C708 1.355 . S
C707 C709 1.415 . S
C708 C707 1.355 . S
C708 C710 1.419 . S
C709 C704 1.425 . S
C709 C706 1.409 . S
C709 C707 1.415 . S
C710 H700 0.930 . S
C710 C708 1.419 . S
C710 C711 1.362 . S
C711 H701 0.930 . S
C711 C704 1.409 . S
C711 C710 1.362 . S
H712 C718 0.930 . S
H713 C721 0.930 . S
H714 C722 0.930 . S
H715 C723 0.930 . S
H716 C726 0.930 . S
H717 C727 0.930 . S
C718 H712 0.930 . S
C718 C719 1.355 . S
C718 C720 1.415 . S
C719 C718 1.355 . S
C719 C721 1.419 . S
C720 C718 1.415 . S
C720 C725 1.425 . S
C720 C727 1.409 . S
C721 H713 0.930 . S
C721 C719 1.419 . S
C721 C722 1.362 . S
C722 H714 0.930 . S
C722 C721 1.362 . S
C722 C725 1.409 . S
C723 H715 0.930 . S
C723 C724 1.355 . S
C723 C725 1.415 . S
C724 C723 1.355 . S
C724 C726 1.419 . S
C725 C720 1.425 . S
C725 C722 1.409 . S
C725 C723 1.415 . S
C726 H716 0.930 . S
C726 C724 1.419 . S
C726 C727 1.362 . S
C727 H717 0.930 . S
C727 C720 1.409 . S
C727 C726 1.362 . S
H728 C734 0.933 . S
H729 C737 0.930 . S
H730 C738 0.930 . S
H731 C739 0.930 . S
H732 C742 0.930 . S
H733 C743 0.930 . S
C734 H728 0.933 . S
C734 C735 1.350 1_545 S
C734 C736 1.418 1_545 S
C735 C734 1.350 1_565 S
C735 C737 1.419 . S
C736 C734 1.418 1_565 S
C736 C741 1.425 . S
C736 C743 1.409 1_565 S
C737 H729 0.930 . S
C737 C735 1.419 . S
C737 C738 1.362 . S
C738 H730 0.930 . S
C738 C737 1.362 . S
C738 C741 1.409 . S
C739 H731 0.930 . S
C739 C740 1.355 . S
C739 C741 1.415 . S
C740 C739 1.355 . S
C740 C742 1.419 1_565 S
C741 C736 1.425 . S
C741 C738 1.409 . S
C741 C739 1.415 . S
C742 H732 0.930 . S
C742 C740 1.419 1_545 S
C742 C743 1.362 . S
C743 H733 0.930 . S
C743 C736 1.409 1_545 S
C743 C742 1.362 . S
H744 C750 0.930 . S
H745 C753 0.930 . S
H746 C754 0.930 . S
H747 C755 0.930 . S
H748 C758 0.930 . S
H749 C759 0.930 . S
C750 H744 0.930 . S
C750 C751 1.355 . S
C750 C752 1.415 . S
C751 C750 1.355 . S
C751 C753 1.419 . S
C752 C750 1.415 . S
C752 C757 1.425 . S
C752 C759 1.409 . S
C753 H745 0.930 . S
C753 C751 1.419 . S
C753 C754 1.362 . S
C754 H746 0.930 . S
C754 C753 1.362 . S
C754 C757 1.409 . S
C755 H747 0.930 . S
C755 C756 1.355 . S
C755 C757 1.415 . S
C756 C755 1.355 . S
C756 C758 1.419 . S
C757 C752 1.425 . S
C757 C754 1.409 . S
C757 C755 1.415 . S
C758 H748 0.930 . S
C758 C756 1.419 . S
C758 C759 1.362 . S
C759 H749 0.930 . S
C759 C752 1.409 . S
C759 C758 1.362 . S
H760 C766 0.930 . S
H761 C769 0.930 . S
H762 C770 0.930 . S
H763 C771 0.930 . S
H764 C774 0.930 . S
H765 C775 0.930 . S
C766 H760 0.930 . S
C766 C767 1.355 . S
C766 C768 1.415 . S
C767 C766 1.355 . S
C767 C769 1.419 . S
C768 C766 1.415 . S
C768 C773 1.425 . S
C768 C775 1.409 . S
C769 H761 0.930 . S
C769 C767 1.419 . S
C769 C770 1.362 . S
C770 H762 0.930 . S
C770 C769 1.362 . S
C770 C773 1.409 . S
C771 H763 0.930 . S
C771 C772 1.355 . S
C771 C773 1.415 . S
C772 C771 1.355 . S
C772 C774 1.419 . S
C773 C768 1.425 . S
C773 C770 1.409 . S
C773 C771 1.415 . S
C774 H764 0.930 . S
C774 C772 1.419 . S
C774 C775 1.362 . S
C775 H765 0.930 . S
C775 C768 1.409 . S
C775 C774 1.362 . S
C399 C255 1.773 1_545 S
C404 C320 1.868 . S
C420 C350 2.421 . S
C415 C294 2.285 . S
C436 C360 1.984 . S
C431 C177 1.867 . S
C452 C380 1.892 . S
C447 C216 1.761 . S
C468 C321 1.888 . S
C463 C99 1.815 1_545 S
C479 C138 2.284 . S
C484 C351 2.456 . S
C495 C21 1.822 . S
C500 C361 1.962 . S
C511 C60 1.751 . S
C516 C381 1.888 . S
C532 C313 0.999 . S
C527 C196 0.997 . S
C548 C334 0.523 . S
C543 C235 0.599 1_545 S
C564 C353 1.248 . S
C559 C289 1.155 . S
C575 C157 0.736 . S
C580 C373 0.651 . S
C591 C40 0.872 . S
C596 C314 0.976 1_655 S
C612 C333 0.346 . S
C607 C79 0.381 . S
C628 C354 1.252 . S
C623 C133 1.181 . S
C639 C1 0.620 . S
C644 C374 0.684 . S
C655 C211 2.258 . S
C660 C331 2.546 . S
C671 C250 1.852 1_565 S
C676 C341 2.163 . S
C692 C371 2.758 . S
C687 C274 2.467 . S
C708 C391 2.616 . S
C703 C172 2.372 . S
C719 C55 2.258 . S
C724 C330 2.559 . S
C740 C340 2.172 . S
C735 C94 1.854 1_565 S
C756 C370 2.758 . S
C751 C118 2.459 . S
C767 C16 2.360 . S
C772 C390 2.638 . S
