# Generated by pormake.
# Topology dag, (6,3)-cn, num edge types: 1
# Building blocks:
#     Node 0, Type 0, BuildingBlock: MIDCAF_clean_sbu_0, # of connection points: 6
#     Node 1, Type 0, BuildingBlock: MIDCAF_clean_sbu_0, # of connection points: 6
#     Node 2, Type 0, BuildingBlock: MIDCAF_clean_sbu_0, # of connection points: 6
#     Node 3, Type 0, BuildingBlock: MIDCAF_clean_sbu_0, # of connection points: 6
#     Node 4, Type 1, BuildingBlock: ESEHIV_clean_linker_0, # of connection points: 3
#     Node 5, Type 1, BuildingBlock: ESEHIV_clean_linker_0, # of connection points: 3
#     Node 6, Type 1, BuildingBlock: ESEHIV_clean_linker_0, # of connection points: 3
#     Node 7, Type 1, BuildingBlock: ESEHIV_clean_linker_0, # of connection points: 3
#     Node 8, Type 1, BuildingBlock: ESEHIV_clean_linker_0, # of connection points: 3
#     Node 9, Type 1, BuildingBlock: ESEHIV_clean_linker_0, # of connection points: 3
#     Node 10, Type 1, BuildingBlock: ESEHIV_clean_linker_0, # of connection points: 3
#     Node 11, Type 1, BuildingBlock: ESEHIV_clean_linker_0, # of connection points: 3
#     Edge 12, Type (0, 1), BuildingBlock: EZIPEK_clean_linker_0, # of connection points: 2
#     Edge 13, Type (0, 1), BuildingBlock: EZIPEK_clean_linker_0, # of connection points: 2
#     Edge 14, Type (0, 1), BuildingBlock: EZIPEK_clean_linker_0, # of connection points: 2
#     Edge 15, Type (0, 1), BuildingBlock: EZIPEK_clean_linker_0, # of connection points: 2
#     Edge 16, Type (0, 1), BuildingBlock: EZIPEK_clean_linker_0, # of connection points: 2
#     Edge 17, Type (0, 1), BuildingBlock: EZIPEK_clean_linker_0, # of connection points: 2
#     Edge 18, Type (0, 1), BuildingBlock: EZIPEK_clean_linker_0, # of connection points: 2
#     Edge 19, Type (0, 1), BuildingBlock: EZIPEK_clean_linker_0, # of connection points: 2
#     Edge 20, Type (0, 1), BuildingBlock: EZIPEK_clean_linker_0, # of connection points: 2
#     Edge 21, Type (0, 1), BuildingBlock: EZIPEK_clean_linker_0, # of connection points: 2
#     Edge 22, Type (0, 1), BuildingBlock: EZIPEK_clean_linker_0, # of connection points: 2
#     Edge 23, Type (0, 1), BuildingBlock: EZIPEK_clean_linker_0, # of connection points: 2
#     Edge 24, Type (0, 1), BuildingBlock: EZIPEK_clean_linker_0, # of connection points: 2
#     Edge 25, Type (0, 1), BuildingBlock: EZIPEK_clean_linker_0, # of connection points: 2
#     Edge 26, Type (0, 1), BuildingBlock: EZIPEK_clean_linker_0, # of connection points: 2
#     Edge 27, Type (0, 1), BuildingBlock: EZIPEK_clean_linker_0, # of connection points: 2
#     Edge 28, Type (0, 1), BuildingBlock: EZIPEK_clean_linker_0, # of connection points: 2
#     Edge 29, Type (0, 1), BuildingBlock: EZIPEK_clean_linker_0, # of connection points: 2
#     Edge 30, Type (0, 1), BuildingBlock: EZIPEK_clean_linker_0, # of connection points: 2
#     Edge 31, Type (0, 1), BuildingBlock: EZIPEK_clean_linker_0, # of connection points: 2
#     Edge 32, Type (0, 1), BuildingBlock: EZIPEK_clean_linker_0, # of connection points: 2
#     Edge 33, Type (0, 1), BuildingBlock: EZIPEK_clean_linker_0, # of connection points: 2
#     Edge 34, Type (0, 1), BuildingBlock: EZIPEK_clean_linker_0, # of connection points: 2
#     Edge 35, Type (0, 1), BuildingBlock: EZIPEK_clean_linker_0, # of connection points: 2
# Relax obj value: 0.305
# Max RMSD: 0.191
# Mean RMSD: 0.180
data_MOF--net-dag--node1-MIDCAF_clean_sbu_0--node2-ESEHIV_clean_linker_0--edge1-EZIPEK_clean_linker_0
_symmetry_space_group_name_H-M    P1
_symmetry_Int_Tables_number       1
_symmetry_cell_setting            triclinic
loop_
_symmetry_equiv_pos_as_xyz
'x, y, z'
_cell_length_a     26.895787
_cell_length_b     27.453457
_cell_length_c     20.036136
_cell_angle_alpha  93.882129
_cell_angle_beta   90.470144
_cell_angle_gamma 89.197156
loop_
_atom_site_label
_atom_site_type_symbol
_atom_site_fract_x
_atom_site_fract_y
_atom_site_fract_z
_atom_type_partial_charge
Zn0 Zn 0.18948 0.8682 0.25146 0.0
Zn1 Zn 0.23981 0.94185 0.95277 0.0
Zn2 Zn 0.2196 0.9076 0.05728 0.0
C3 C 0.23299 0.02175 0.04012 0.0
C4 C 0.15246 0.89292 0.9238 0.0
O5 O 0.28298 0.86248 0.09104 0.0
O6 O 0.22733 0.86399 0.16648 0.0
C7 C 0.18584 0.97334 0.20784 0.0
O8 O 0.21832 0.98866 0.07814 0.0
O9 O 0.24849 0.00951 0.98221 0.0
O10 O 0.17875 0.92474 0.89894 0.0
O11 O 0.16231 0.88032 0.98344 0.0
O12 O 0.18491 0.9427 0.25357 0.0
O13 O 0.19712 0.96178 0.14527 0.0
O14 O 0.15252 0.86438 0.04734 0.0
O15 O 0.17299 0.86096 0.15072 0.0
C16 C 0.14121 0.85099 0.10494 0.0
O17 O 0.29054 0.87099 0.02488 0.0
O18 O 0.29978 0.90403 0.9284 0.0
C19 C 0.27043 0.85048 0.14875 0.0
C20 C 0.31328 0.87307 0.96879 0.0
Zn21 Zn 0.70385 0.5653 0.36555 0.0
Zn22 Zn 0.75051 0.56863 0.61188 0.0
Zn23 Zn 0.72298 0.57846 0.49009 0.0
C24 C 0.74083 0.47685 0.57063 0.0
C25 C 0.659 0.62143 0.61195 0.0
O26 O 0.78085 0.61531 0.43298 0.0
O27 O 0.7634 0.5905 0.32792 0.0
C28 C 0.69232 0.47537 0.40399 0.0
O29 O 0.72555 0.50187 0.52192 0.0
O30 O 0.76052 0.49823 0.6216 0.0
O31 O 0.68879 0.60005 0.64975 0.0
O32 O 0.6661 0.61938 0.54835 0.0
O33 O 0.68935 0.49543 0.3494 0.0
O34 O 0.70596 0.50055 0.45763 0.0
O35 O 0.65206 0.61814 0.47888 0.0
O36 O 0.6448 0.61004 0.36878 0.0
C37 C 0.62805 0.62626 0.42482 0.0
O38 O 0.79493 0.61862 0.50425 0.0
O39 O 0.80836 0.61001 0.61197 0.0
C40 C 0.78962 0.61523 0.36966 0.0
C41 C 0.82041 0.62819 0.55844 0.0
Zn42 Zn 0.79991 0.09909 0.88668 0.0
Zn43 Zn 0.72089 0.07331 0.09837 0.0
Zn44 Zn 0.76839 0.09476 1.00036 0.0
C45 C 0.81408 0.1188 0.139 0.0
C46 C 0.74305 0.98583 0.06084 0.0
O47 O 0.70966 0.13251 0.94013 0.0
O48 O 0.7457 0.13115 0.84118 0.0
C49 C 0.86918 0.15024 0.96475 0.0
O50 O 0.81828 0.12683 0.07672 0.0
O51 O 0.77738 0.09531 0.15839 0.0
O52 O 0.70576 0.00284 0.09256 0.0
O53 O 0.76851 0.01426 0.02525 0.0
O54 O 0.85995 0.13573 0.90503 0.0
O55 O 0.83932 0.13891 0.01145 0.0
O56 O 0.78209 0.01896 0.95502 0.0
O57 O 0.81136 0.03206 0.85533 0.0
C58 C 0.79947 0.00273 0.89781 0.0
O59 O 0.6959 0.13856 0.00899 0.0
O60 O 0.66557 0.11765 0.10499 0.0
C61 C 0.70886 0.14202 0.87776 0.0
C62 C 0.66345 0.14422 0.05635 0.0
Zn63 Zn 0.30673 0.37007 0.65104 0.0
Zn64 Zn 0.21042 0.40516 0.44867 0.0
Zn65 Zn 0.25682 0.38834 0.55645 0.0
C66 C 0.29757 0.35476 0.41078 0.0
C67 C 0.23408 0.49526 0.49563 0.0
O68 O 0.20505 0.35574 0.6297 0.0
O69 O 0.256 0.36167 0.71651 0.0
C70 C 0.35535 0.31541 0.56471 0.0
O71 O 0.29926 0.35251 0.47468 0.0
O72 O 0.26295 0.37839 0.38403 0.0
O73 O 0.19894 0.47724 0.46041 0.0
O74 O 0.25858 0.46789 0.5347 0.0
O75 O 0.35044 0.31363 0.62692 0.0
O76 O 0.32504 0.34215 0.53228 0.0
O77 O 0.27956 0.45961 0.60268 0.0
O78 O 0.33941 0.43265 0.66756 0.0
C79 C 0.31532 0.46766 0.64497 0.0
O80 O 0.18338 0.35189 0.56391 0.0
O81 O 0.15522 0.3621 0.46186 0.0
C82 C 0.2135 0.35232 0.69283 0.0
C83 C 0.15067 0.34339 0.5172 0.0
H84 H -0.0043 0.08554 0.28714 0.0
H85 H 0.11088 0.17887 0.36976 0.0
H86 H 0.95636 0.2186 0.39761 0.0
C87 C 0.00748 0.11861 0.31502 0.0
C88 C 0.97191 0.1549 0.33173 0.0
C89 C 0.05837 0.12747 0.32439 0.0
C90 C 0.07193 0.17024 0.36261 0.0
C91 C 0.0354 0.20089 0.3948 0.0
C92 C 0.9849 0.19356 0.37776 0.0
H93 H 0.46812 0.60574 0.7129 0.0
H94 H 0.35163 0.67389 0.8309 0.0
H95 H 0.48636 0.75215 0.80043 0.0
C96 C 0.45485 0.63647 0.74515 0.0
C97 C 0.48398 0.67844 0.75487 0.0
C98 C 0.40639 0.63576 0.76934 0.0
C99 C 0.38934 0.67441 0.81215 0.0
C100 C 0.41888 0.71581 0.82582 0.0
C101 C 0.46548 0.71862 0.7949 0.0
H102 H 0.91745 0.84641 0.08085 0.0
H103 H 0.95287 0.72909 0.20459 0.0
H104 H 0.80048 0.77494 0.17967 0.0
C105 C 0.90501 0.81665 0.10921 0.0
C106 C 0.85437 0.81288 0.12415 0.0
C107 C 0.94033 0.78585 0.1373 0.0
C108 C 0.92511 0.75067 0.17978 0.0
C109 C 0.87471 0.74603 0.19488 0.0
C110 C 0.83925 0.77666 0.16574 0.0
H111 H 0.59165 0.31457 0.52418 0.0
H112 H 0.53027 0.22431 0.6701 0.0
H113 H 0.68241 0.26944 0.68636 0.0
C114 C 0.59654 0.29242 0.56668 0.0
C115 C 0.64096 0.2957 0.60347 0.0
C116 C 0.5553 0.26905 0.59207 0.0
C117 C 0.56175 0.24204 0.64917 0.0
C118 C 0.60856 0.23934 0.68079 0.0
C119 C 0.64791 0.26691 0.65802 0.0
H120 H 0.50682 0.32843 0.38694 0.0
H121 H 0.62131 0.29862 0.24123 0.0
H122 H 0.46992 0.2606 0.19378 0.0
C123 C 0.51877 0.31286 0.33837 0.0
C124 C 0.48305 0.29434 0.29255 0.0
C125 C 0.56783 0.31929 0.31789 0.0
C126 C 0.58288 0.2963 0.25619 0.0
C127 C 0.54852 0.27159 0.21267 0.0
C128 C 0.49778 0.2744 0.22934 0.0
H129 H 0.08854 0.15894 1.00171 0.0
H130 H 0.06089 0.28904 0.90232 0.0
H131 H 0.20708 0.25767 0.97979 0.0
C132 C 0.10225 0.19295 0.98494 0.0
C133 C 0.15293 0.20403 0.99221 0.0
C134 C 0.06807 0.22614 0.95989 0.0
C135 C 0.08676 0.2665 0.92842 0.0
C136 C 0.13861 0.27545 0.9269 0.0
C137 C 0.16951 0.24763 0.96806 0.0
H138 H 0.40045 0.63503 0.46863 0.0
H139 H 0.43464 0.74941 0.341 0.0
H140 H 0.28308 0.70466 0.36196 0.0
C141 C 0.38784 0.6642 0.43848 0.0
C142 C 0.33721 0.66801 0.42184 0.0
C143 C 0.42321 0.69335 0.40952 0.0
C144 C 0.40734 0.72838 0.36577 0.0
C145 C 0.35671 0.73303 0.34898 0.0
C146 C 0.3217 0.70309 0.37766 0.0
H147 H 0.94755 0.88354 0.82776 0.0
H148 H 0.00454 0.76316 0.70166 0.0
H149 H 0.84613 0.78776 0.71981 0.0
C150 C 0.94099 0.8523 0.79277 0.0
C151 C 0.89211 0.83918 0.77663 0.0
C152 C 0.9814 0.82308 0.77067 0.0
C153 C 0.9733 0.78449 0.72192 0.0
C154 C 0.92431 0.77292 0.70089 0.0
C155 C 0.88393 0.79859 0.73196 0.0
C156 C 0.1109 0.02846 0.20142 0.0
C157 C 0.15952 0.0201 0.2268 0.0
C158 C 0.14109 0.07892 0.3213 0.0
C159 C 0.09587 0.09303 0.2898 0.0
N160 N 0.0482 0.09016 0.18627 0.0
N161 N 0.22417 0.04484 0.30504 0.0
C162 C 0.08404 0.07054 0.22555 0.0
C163 C 0.17592 0.04854 0.28423 0.0
N164 N 0.0894 -0.00382 0.15538 0.0
N165 N 0.14889 0.08966 0.38804 0.0
H166 H 0.25018 0.02249 0.27888 0.0
H167 H 0.23896 0.06748 0.34392 0.0
H168 H 0.1216 0.10526 0.41953 0.0
H169 H 0.17974 0.07678 0.41368 0.0
H170 H 0.05172 -0.00206 0.14294 0.0
H171 H 0.10836 0.96682 0.13128 0.0
H172 H 0.03646 0.07392 0.14049 0.0
H173 H 0.03422 0.12553 0.19614 0.0
C174 C 0.56694 0.63953 0.61522 0.0
C175 C 0.6151 0.64689 0.64273 0.0
C176 C 0.57796 0.6851 0.745 0.0
C177 C 0.53029 0.68029 0.71476 0.0
N178 N 0.48391 0.67342 0.6114 0.0
N179 N 0.66621 0.69167 0.72503 0.0
C180 C 0.52673 0.66535 0.64589 0.0
C181 C 0.62061 0.67492 0.70472 0.0
N182 N 0.55824 0.60437 0.56522 0.0
N183 N 0.58293 0.69601 0.81217 0.0
H184 H 0.69778 0.68655 0.69529 0.0
H185 H 0.67126 0.71515 0.76758 0.0
H186 H 0.55277 0.70254 0.8439 0.0
H187 H 0.61711 0.69477 0.83695 0.0
H188 H 0.52248 0.59585 0.54801 0.0
H189 H 0.58552 0.57976 0.54706 0.0
H190 H 0.47914 0.66223 0.56107 0.0
H191 H 0.45586 0.69611 0.63219 0.0
C192 C 0.7633 0.89593 0.03459 0.0
C193 C 0.76454 0.93822 0.0794 0.0
C194 C 0.81911 0.89589 0.15588 0.0
C195 C 0.81994 0.85413 0.1102 0.0
N196 N 0.78672 0.81007 0.01242 0.0
N197 N 0.77843 0.97144 0.19306 0.0
C198 C 0.78976 0.8527 0.05152 0.0
C199 C 0.78759 0.93598 0.14324 0.0
N200 N 0.73686 0.89745 0.97624 0.0
N201 N 0.8501 0.89826 0.21047 0.0
H202 H 0.75777 0.00309 0.18665 0.0
H203 H 0.78831 0.96776 0.24287 0.0
H204 H 0.87262 0.86928 0.2237 0.0
H205 H 0.85623 0.93023 0.24022 0.0
H206 H 0.73683 0.86964 0.93835 0.0
H207 H 0.71576 0.92799 0.96465 0.0
H208 H 0.76367 0.80498 0.97071 0.0
H209 H 0.80623 0.7785 0.02363 0.0
C210 C 0.41943 0.24984 0.54284 0.0
C211 C 0.40356 0.29858 0.53604 0.0
C212 C 0.48732 0.32731 0.55631 0.0
C213 C 0.5043 0.27857 0.56469 0.0
N214 N 0.48903 0.19255 0.54151 0.0
N215 N 0.42674 0.37807 0.5037 0.0
C216 C 0.47117 0.23932 0.54958 0.0
C217 C 0.43934 0.33493 0.52976 0.0
N218 N 0.38479 0.21426 0.54563 0.0
N219 N 0.51387 0.36679 0.58049 0.0
H220 H 0.39151 0.38498 0.48446 0.0
H221 H 0.45307 0.4042 0.49406 0.0
H222 H 0.54569 0.364 0.60957 0.0
H223 H 0.50047 0.40257 0.57969 0.0
H224 H 0.39343 0.17882 0.55783 0.0
H225 H 0.347 0.22142 0.53791 0.0
H226 H 0.46688 0.16305 0.52583 0.0
H227 H 0.52695 0.18419 0.54391 0.0
C228 C 0.68568 0.38426 0.38063 0.0
C229 C 0.66563 0.42895 0.40829 0.0
C230 C 0.58227 0.40128 0.38218 0.0
C231 C 0.60117 0.35491 0.3565 0.0
N232 N 0.67063 0.29793 0.35679 0.0
N233 N 0.59545 0.4694 0.46268 0.0
C234 C 0.65296 0.34477 0.36415 0.0
C235 C 0.61415 0.43302 0.41997 0.0
N236 N 0.73536 0.38 0.36837 0.0
N237 N 0.53648 0.41828 0.36405 0.0
H238 H 0.61829 0.49361 0.49059 0.0
H239 H 0.55785 0.47175 0.47511 0.0
H240 H 0.5152 0.4016 0.32568 0.0
H241 H 0.52314 0.45296 0.37983 0.0
H242 H 0.75129 0.34958 0.34239 0.0
H243 H 0.75987 0.40823 0.38179 0.0
H244 H 0.70773 0.28864 0.36533 0.0
H245 H 0.64702 0.26818 0.34934 0.0
C246 C 0.94973 0.17421 0.0277 0.0
C247 C 0.91486 0.18055 0.97544 0.0
C248 C 0.97962 0.21857 0.91198 0.0
C249 C 0.01334 0.21634 0.96652 0.0
N250 N 0.02062 0.21012 0.08616 0.0
N251 N 0.8932 0.22865 0.88226 0.0
C252 C -0.00499 0.20036 0.02791 0.0
C253 C 0.92861 0.20995 0.92284 0.0
N254 N 0.9424 0.14079 0.07376 0.0
N255 N -0.00412 0.22429 0.84868 0.0
H256 H 0.85525 0.22504 0.891 0.0
H257 H 0.90184 0.25232 0.84556 0.0
H258 H 0.03338 0.22396 0.8361 0.0
H259 H 0.97192 0.22266 0.80741 0.0
H260 H 0.96898 0.13326 0.10986 0.0
H261 H 0.91274 0.1169 0.07128 0.0
H262 H 0.00772 0.20042 0.13226 0.0
H263 H 0.05125 0.23306 0.0888 0.0
C264 C 0.25767 0.58407 0.52142 0.0
C265 C 0.25559 0.54213 0.47586 0.0
C266 C 0.30099 0.58582 0.3923 0.0
C267 C 0.30367 0.62746 0.43793 0.0
N268 N 0.27768 0.6704 0.54039 0.0
N269 N 0.26708 0.50657 0.36251 0.0
C270 C 0.27971 0.62786 0.50089 0.0
C271 C 0.27453 0.54422 0.40971 0.0
N272 N 0.2393 0.58161 0.58446 0.0
N273 N 0.326 0.58501 0.333 0.0
H274 H 0.25357 0.47264 0.37268 0.0
H275 H 0.27219 0.50957 0.3115 0.0
H276 H 0.34195 0.61577 0.31489 0.0
H277 H 0.33332 0.55329 0.30302 0.0
H278 H 0.24394 0.6087 0.62278 0.0
H279 H 0.22132 0.55085 0.59966 0.0
H280 H 0.25786 0.67495 0.58477 0.0
H281 H 0.2937 0.70252 0.52631 0.0
C282 C 0.0649 0.86136 0.91448 0.0
C283 C 0.11069 0.87049 0.88353 0.0
C284 C 0.07317 0.84536 0.77419 0.0
C285 C 0.02975 0.83119 0.80686 0.0
N286 N -0.00728 0.81011 0.90994 0.0
N287 N 0.16172 0.85767 0.7842 0.0
C288 C 0.02887 0.83355 0.87782 0.0
C289 C 0.116 0.85832 0.8134 0.0
N290 N 0.05382 0.88232 0.97643 0.0
N291 N 0.07317 0.84892 0.70657 0.0
H292 H 0.19449 0.86469 0.81086 0.0
H293 H 0.16754 0.8448 0.73469 0.0
H294 H 0.04232 0.84072 0.67628 0.0
H295 H 0.10243 0.86409 0.68162 0.0
H296 H 0.01912 0.8793 0.99847 0.0
H297 H 0.07652 0.90807 1.00162 0.0
H298 H -0.00999 0.81122 0.96176 0.0
H299 H 0.96878 0.78571 0.88421 0.0
C300 C 0.78954 0.93358 0.81352 0.0
C301 C 0.80664 0.95025 0.87814 0.0
C302 C 0.85538 0.87525 0.88219 0.0
C303 C 0.85122 0.86756 0.81175 0.0
N304 N 0.8132 0.8914 0.70869 0.0
N305 N 0.86091 0.93752 0.97263 0.0
C306 C 0.81685 0.8963 0.7768 0.0
C307 C 0.84023 0.92083 0.91313 0.0
N308 N 0.74868 0.95503 0.78653 0.0
N309 N 0.87625 0.83986 0.91828 0.0
H310 H 0.85233 0.97154 0.99608 0.0
H311 H 0.88929 0.91876 0.99619 0.0
H312 H 0.88499 0.80537 0.89598 0.0
H313 H 0.87945 0.84306 0.97018 0.0
H314 H 0.73254 0.94214 0.74138 0.0
H315 H 0.72823 0.98243 0.81314 0.0
H316 H 0.79263 0.91552 0.68103 0.0
H317 H 0.83341 0.86563 0.67927 0.0
C318 C 0.35611 0.28632 0.37307 0.0
C319 C 0.34046 0.33578 0.37046 0.0
C320 C 0.40981 0.35033 0.29653 0.0
C321 C 0.42999 0.30385 0.30859 0.0
N322 N 0.42446 0.22767 0.3606 0.0
N323 N 0.35957 0.41766 0.34191 0.0
C324 C 0.40351 0.27156 0.34709 0.0
C325 C 0.3687 0.3685 0.33456 0.0
N326 N 0.32548 0.25356 0.39977 0.0
N327 N 0.43081 0.37777 0.25011 0.0
H328 H 0.33302 0.43327 0.37452 0.0
H329 H 0.38242 0.44338 0.32221 0.0
H330 H 0.46173 0.366 0.22207 0.0
H331 H 0.41464 0.41001 0.23507 0.0
H332 H 0.33294 0.21618 0.39807 0.0
H333 H 0.29043 0.26333 0.41868 0.0
H334 H 0.40981 0.20488 0.39476 0.0
H335 H 0.45818 0.21523 0.3399 0.0
C336 C 0.25507 0.10805 0.02356 0.0
C337 C 0.22364 0.07498 0.05436 0.0
C338 C 0.16741 0.14316 0.07699 0.0
C339 C 0.18704 0.16843 0.02467 0.0
N340 N 0.25126 0.16647 0.93935 0.0
N341 N 0.13627 0.06307 0.07163 0.0
C342 C 0.23269 0.14986 0.99644 0.0
C343 C 0.17625 0.09266 0.07469 0.0
N344 N 0.30411 0.09696 0.01395 0.0
N345 N 0.13514 0.16513 0.1216 0.0
H346 H 0.13852 0.02608 0.05641 0.0
H347 H 0.10041 0.07793 0.07321 0.0
H348 H 0.12855 0.20276 0.12356 0.0
H349 H 0.12054 0.14623 0.16003 0.0
H350 H 0.32846 0.12104 0.9934 0.0
H351 H 0.3205 0.06597 0.03282 0.0
H352 H 0.28273 0.15097 0.91587 0.0
H353 H 0.23166 0.19032 0.91065 0.0
C354 C 0.5391 0.61406 0.3947 0.0
C355 C 0.57576 0.64448 0.42639 0.0
C356 C 0.51168 0.70773 0.45145 0.0
C357 C 0.47677 0.67895 0.41314 0.0
N358 N 0.46162 0.61066 0.3336 0.0
N359 N 0.59864 0.72208 0.48032 0.0
C360 C 0.49182 0.63388 0.38045 0.0
C361 C 0.56256 0.6919 0.45381 0.0
N362 N 0.54873 0.56546 0.38033 0.0
N363 N 0.49585 0.74912 0.48712 0.0
H364 H 0.63587 0.71121 0.48336 0.0
H365 H 0.59235 0.75869 0.49526 0.0
H366 H 0.4591 0.76171 0.48563 0.0
H367 H 0.51808 0.76892 0.52169 0.0
H368 H 0.52145 0.54088 0.36358 0.0
H369 H 0.58236 0.54863 0.39203 0.0
H370 H 0.47294 0.5801 0.30357 0.0
H371 H 0.42752 0.62513 0.3192 0.0
C372 C 0.34956 0.55127 0.63612 0.0
C373 C 0.32653 0.51677 0.67438 0.0
C374 C 0.35021 0.56336 0.77804 0.0
C375 C 0.37178 0.59862 0.73932 0.0
N376 N 0.37328 0.63556 0.63374 0.0
N377 N 0.29204 0.49687 0.7798 0.0
C378 C 0.36516 0.59566 0.66886 0.0
C379 C 0.3223 0.52539 0.74485 0.0
N380 N 0.35924 0.54078 0.56988 0.0
N381 N 0.35869 0.56429 0.84541 0.0
H382 H 0.27063 0.46914 0.7564 0.0
H383 H 0.28444 0.50395 0.83046 0.0
H384 H 0.37959 0.59123 0.87128 0.0
H385 H 0.34817 0.53628 0.87468 0.0
H386 H 0.38057 0.5632 0.54181 0.0
H387 H 0.34906 0.50803 0.54437 0.0
H388 H 0.36789 0.63575 0.58229 0.0
H389 H 0.37957 0.66983 0.65781 0.0
C390 C 0.07437 0.78944 0.07724 0.0
C391 C 0.09176 0.83004 0.11849 0.0
C392 C 0.0136 0.83222 0.18118 0.0
C393 C -0.00624 0.79731 0.13357 0.0
N394 N 0.0042 0.73932 0.03925 0.0
N395 N 0.07569 0.89241 0.20753 0.0
C396 C 0.024 0.77463 0.0826 0.0
C397 C 0.06109 0.85156 0.17049 0.0
N398 N 0.10658 0.76423 0.03468 0.0
N399 N 0.98735 0.84636 0.23764 0.0
H400 H 0.11031 0.90749 0.20351 0.0
H401 H 0.05202 0.9139 0.2385 0.0
H402 H 0.95193 0.83378 0.24722 0.0
H403 H 0.00247 0.86683 0.27833 0.0
H404 H 0.09771 0.73228 0.00654 0.0
H405 H 0.14404 0.77301 0.03133 0.0
H406 H 0.02218 0.72432 0.99677 0.0
H407 H 0.96806 0.72668 0.04383 0.0
C408 C 0.67485 0.42862 0.61847 0.0
C409 C 0.71802 0.42911 0.5786 0.0
C410 C 0.71201 0.34064 0.55375 0.0
C411 C 0.6713 0.34004 0.59829 0.0
N412 N 0.62231 0.38209 0.68582 0.0
N413 N 0.78211 0.38603 0.51481 0.0
C414 C 0.65551 0.38357 0.63475 0.0
C415 C 0.73807 0.38515 0.54807 0.0
N416 N 0.65068 0.47129 0.63847 0.0
N417 N 0.72502 0.29905 0.51639 0.0
H418 H 0.80105 0.41839 0.50904 0.0
H419 H 0.80117 0.35476 0.49644 0.0
H420 H 0.70728 0.2659 0.52109 0.0
H421 H 0.75136 0.29797 0.47853 0.0
H422 H 0.61567 0.47238 0.66048 0.0
H423 H 0.66286 0.50562 0.62716 0.0
H424 H 0.6147 0.41194 0.71928 0.0
H425 H 0.60493 0.35035 0.69801 0.0
C426 C 0.87329 0.17916 0.19834 0.0
C427 C 0.85364 0.13155 0.18935 0.0
C428 C 0.89711 0.10946 0.29091 0.0
C429 C 0.92423 0.1532 0.2928 0.0
N430 N 0.94439 0.22607 0.23688 0.0
N431 N 0.86123 0.0473 0.216 0.0
C432 C 0.91374 0.1876 0.24391 0.0
C433 C 0.86918 0.09554 0.23294 0.0
N434 N 0.85376 0.21618 0.16376 0.0
N435 N 0.89998 0.08011 0.34316 0.0
H436 H 0.84671 0.03518 0.16948 0.0
H437 H 0.87555 0.01953 0.24384 0.0
H438 H 0.92031 0.08982 0.38655 0.0
H439 H 0.87826 0.0491 0.34558 0.0
H440 H 0.86407 0.25247 0.1732 0.0
H441 H 0.82411 0.21129 0.13024 0.0
H442 H 0.94059 0.24932 0.19807 0.0
H443 H 0.97679 0.23164 0.26478 0.0
C444 C 0.30982 0.84446 0.26125 0.0
C445 C 0.30294 0.82382 0.19495 0.0
C446 C 0.34134 0.74705 0.22732 0.0
C447 C 0.34101 0.7654 0.29544 0.0
N448 N 0.32343 0.83075 0.37852 0.0
N449 N 0.30972 0.75458 0.1146 0.0
C450 C 0.32515 0.81406 0.31271 0.0
C451 C 0.31886 0.77511 0.17751 0.0
N452 N 0.30268 0.89357 0.27443 0.0
N453 N 0.36323 0.70276 0.21026 0.0
H454 H 0.29432 0.77394 0.07635 0.0
H455 H 0.31455 0.71754 0.10112 0.0
H456 H 0.37859 0.6805 0.24541 0.0
H457 H 0.36974 0.68969 0.16107 0.0
H458 H 0.31107 0.91196 0.32018 0.0
H459 H 0.2929 0.91687 0.23724 0.0
H460 H 0.30677 0.86375 0.39518 0.0
H461 H 0.33597 0.81008 0.41728 0.0
C462 C 0.90343 0.6505 0.6024 0.0
C463 C 0.86122 0.66424 0.56488 0.0
C464 C 0.8825 0.74965 0.59181 0.0
C465 C 0.91319 0.73541 0.64525 0.0
N466 N 0.95199 0.66972 0.70252 0.0
N467 N 0.80855 0.72939 0.52794 0.0
C468 C 0.92479 0.68512 0.64991 0.0
C469 C 0.85104 0.71459 0.55857 0.0
N470 N 0.9205 0.60343 0.59561 0.0
N471 N 0.88179 0.79705 0.57523 0.0
H472 H 0.78266 0.70501 0.50715 0.0
H473 H 0.79705 0.76584 0.52856 0.0
H474 H 0.90487 0.82326 0.59896 0.0
H475 H 0.86244 0.80863 0.53373 0.0
H476 H 0.95311 0.59173 0.61841 0.0
H477 H 0.90429 0.57775 0.56151 0.0
H478 H 0.95684 0.63298 0.71135 0.0
H479 H 0.96619 0.69335 0.74055 0.0
C480 C 0.63856 0.23243 0.07637 0.0
C481 C 0.62485 0.18329 0.06067 0.0
C482 C 0.55277 0.19448 0.13302 0.0
C483 C 0.56669 0.2438 0.15005 0.0
N484 N 0.60879 0.31368 0.11141 0.0
N485 N 0.55836 0.12613 0.04986 0.0
C486 C 0.60444 0.26429 0.1118 0.0
C487 C 0.57718 0.1683 0.07898 0.0
N488 N 0.68564 0.24749 0.06498 0.0
N489 N 0.52139 0.17026 0.17216 0.0
H490 H 0.57745 0.106 0.01177 0.0
H491 H 0.52242 0.11455 0.05895 0.0
H492 H 0.50735 0.18479 0.2175 0.0
H493 H 0.51414 0.13315 0.16353 0.0
H494 H 0.69834 0.28185 0.08211 0.0
H495 H 0.71293 0.22434 0.04341 0.0
H496 H 0.63431 0.32999 0.08128 0.0
H497 H 0.58324 0.33762 0.13571 0.0
C498 C 0.14584 0.35788 0.77852 0.0
C499 C 0.17996 0.32867 0.73892 0.0
C500 C 0.20067 0.28389 0.83495 0.0
C501 C 0.16019 0.30464 0.87215 0.0
N502 N 0.09959 0.37006 0.88286 0.0
N503 N 0.22932 0.25473 0.7265 0.0
C504 C 0.13359 0.34404 0.84443 0.0
C505 C 0.201 0.28675 0.76539 0.0
N506 N 0.12737 0.39971 0.7541 0.0
N507 N 0.24433 0.27297 0.86569 0.0
H508 H 0.23414 0.25838 0.67551 0.0
H509 H 0.24496 0.22335 0.74526 0.0
H510 H 0.25277 0.28782 0.91353 0.0
H511 H 0.27539 0.25936 0.83923 0.0
H512 H 0.10599 0.42554 0.78181 0.0
H513 H 0.13479 0.40873 0.70538 0.0
H514 H 0.07545 0.39609 0.86469 0.0
H515 H 0.0959 0.365 0.93377 0.0
C516 C 0.85828 0.633 0.29396 0.0
C517 C 0.82251 0.65091 0.34124 0.0
C518 C 0.83347 0.73296 0.30431 0.0
C519 C 0.86003 0.71329 0.2476 0.0
N520 N 0.89261 0.6418 0.18432 0.0
N521 N 0.76693 0.71726 0.37882 0.0
C522 C 0.87182 0.66253 0.2416 0.0
C523 C 0.80803 0.70091 0.34402 0.0
N524 N 0.87783 0.58713 0.29802 0.0
N525 N 0.83255 0.78204 0.32061 0.0
H526 H 0.74441 0.69456 0.40479 0.0
H527 H 0.75259 0.75258 0.37628 0.0
H528 H 0.85294 0.80652 0.29462 0.0
H529 H 0.81637 0.79724 0.36451 0.0
H530 H 0.90694 0.57335 0.26802 0.0
H531 H 0.86806 0.56504 0.33615 0.0
H532 H 0.89751 0.60423 0.17524 0.0
H533 H 0.90036 0.66147 0.14303 0.0
C534 C 0.64188 0.13652 0.79227 0.0
C535 C 0.66563 0.16469 0.84489 0.0
C536 C 0.62832 0.23846 0.80302 0.0
C537 C 0.61641 0.21192 0.74201 0.0
N538 N 0.61002 0.13439 0.67851 0.0
N539 N 0.684 0.24365 0.8984 0.0
C540 C 0.62143 0.1603 0.7371 0.0
C541 C 0.65852 0.21599 0.85089 0.0
N542 N 0.64065 0.08695 0.79442 0.0
N543 N 0.6113 0.28527 0.81439 0.0
H544 H 0.70827 0.22822 0.93201 0.0
H545 H 0.68417 0.28168 0.90068 0.0
H546 H 0.58706 0.30115 0.78098 0.0
H547 H 0.61615 0.30553 0.8598 0.0
H548 H 0.62083 0.06431 0.76027 0.0
H549 H 0.65573 0.0692 0.83459 0.0
H550 H 0.61842 0.09741 0.66938 0.0
H551 H 0.59453 0.15048 0.63739 0.0
C552 C 0.06424 0.32362 0.48899 0.0
C553 C 0.10838 0.30943 0.52162 0.0
C554 C 0.08409 0.22445 0.49889 0.0
C555 C 0.05173 0.23898 0.4472 0.0
N556 N 0.01215 0.30575 0.3924 0.0
N557 N 0.15838 0.24414 0.563 0.0
C558 C 0.04067 0.28952 0.44317 0.0
C559 C 0.11703 0.25918 0.5301 0.0
N560 N 0.04799 0.37087 0.49758 0.0
N561 N 0.08368 0.17748 0.51725 0.0
H562 H 0.18237 0.26848 0.58798 0.0
H563 H 0.16967 0.20766 0.56296 0.0
H564 H 0.05868 0.15188 0.49635 0.0
H565 H 0.10408 0.16578 0.55777 0.0
H566 H 0.01429 0.38299 0.47815 0.0
H567 H 0.06638 0.39617 0.53001 0.0
H568 H 0.00743 0.34266 0.38445 0.0
H569 H -0.00282 0.28278 0.35442 0.0
C570 C 0.38805 0.8154 0.96321 0.0
C571 C 0.34089 0.83014 0.93935 0.0
C572 C 0.35146 0.77793 0.83735 0.0
C573 C 0.39609 0.75877 0.86324 0.0
N574 N 0.45394 0.75377 0.95547 0.0
N575 N 0.27088 0.81123 0.86623 0.0
C576 C 0.41384 0.77598 0.92763 0.0
C577 C 0.32051 0.807 0.88021 0.0
N578 N 0.40827 0.83933 0.01863 0.0
N579 N 0.33889 0.76898 0.77145 0.0
H580 H 0.24602 0.8297 0.89905 0.0
H581 H 0.25378 0.79137 0.82639 0.0
H582 H 0.36195 0.74939 0.73732 0.0
H583 H 0.30833 0.78562 0.74954 0.0
H584 H 0.44461 0.83342 0.03481 0.0
H585 H 0.38928 0.86725 0.04617 0.0
H586 H 0.46555 0.76157 0.00469 0.0
H587 H 0.47355 0.72501 0.93068 0.0
loop_
_geom_bond_atom_site_label_1
_geom_bond_atom_site_label_2
_geom_bond_distance
_geom_bond_site_symmetry_2
_ccdc_geom_bond_type
Zn0 O6 1.920 . S
Zn0 O12 1.898 . S
Zn0 O15 1.905 . S
Zn1 O9 1.905 . S
Zn1 O10 1.898 . S
Zn1 O18 1.920 . S
Zn2 O5 2.080 . S
Zn2 O8 2.114 . S
Zn2 O11 2.120 1_554 S
Zn2 O13 2.120 . S
Zn2 O14 2.114 . S
Zn2 O17 2.080 . S
C3 O8 1.166 1_556 S
C3 O9 1.182 . S
C4 O10 1.167 . S
C4 O11 1.299 . S
O5 Zn2 2.080 . S
O5 C19 1.305 . S
O6 Zn0 1.920 . S
O6 C19 1.234 . S
C7 O12 1.167 . S
C7 O13 1.299 . S
O8 Zn2 2.114 . S
O8 C3 1.166 1_554 S
O9 Zn1 1.905 . S
O9 C3 1.182 . S
O10 Zn1 1.898 . S
O10 C4 1.167 . S
O11 Zn2 2.120 1_556 S
O11 C4 1.299 . S
O12 Zn0 1.898 . S
O12 C7 1.167 . S
O13 Zn2 2.120 . S
O13 C7 1.299 . S
O14 Zn2 2.114 . S
O14 C16 1.166 . S
O15 Zn0 1.905 . S
O15 C16 1.182 . S
C16 O14 1.166 . S
C16 O15 1.182 . S
O17 Zn2 2.080 . S
O17 C20 1.305 1_554 S
O18 Zn1 1.920 . S
O18 C20 1.234 . S
C19 O5 1.305 . S
C19 O6 1.234 . S
C20 O17 1.305 1_556 S
C20 O18 1.234 . S
Zn21 O27 1.920 . S
Zn21 O33 1.898 . S
Zn21 O36 1.905 . S
Zn22 O30 1.905 . S
Zn22 O31 1.898 . S
Zn22 O39 1.920 . S
Zn23 O26 2.080 . S
Zn23 O29 2.114 . S
Zn23 O32 2.120 . S
Zn23 O34 2.120 . S
Zn23 O35 2.114 . S
Zn23 O38 2.080 . S
C24 O29 1.166 . S
C24 O30 1.182 . S
C25 O31 1.167 . S
C25 O32 1.299 . S
O26 Zn23 2.080 . S
O26 C40 1.305 . S
O27 Zn21 1.920 . S
O27 C40 1.234 . S
C28 O33 1.167 . S
C28 O34 1.299 . S
O29 Zn23 2.114 . S
O29 C24 1.166 . S
O30 Zn22 1.905 . S
O30 C24 1.182 . S
O31 Zn22 1.898 . S
O31 C25 1.167 . S
O32 Zn23 2.120 . S
O32 C25 1.299 . S
O33 Zn21 1.898 . S
O33 C28 1.167 . S
O34 Zn23 2.120 . S
O34 C28 1.299 . S
O35 Zn23 2.114 . S
O35 C37 1.166 . S
O36 Zn21 1.905 . S
O36 C37 1.182 . S
C37 O35 1.166 . S
C37 O36 1.182 . S
O38 Zn23 2.080 . S
O38 C41 1.305 . S
O39 Zn22 1.920 . S
O39 C41 1.234 . S
C40 O26 1.305 . S
C40 O27 1.234 . S
C41 O38 1.305 . S
C41 O39 1.234 . S
Zn42 O48 1.920 . S
Zn42 O54 1.898 . S
Zn42 O57 1.905 . S
Zn43 O51 1.905 . S
Zn43 O52 1.898 . S
Zn43 O60 1.920 . S
Zn44 O47 2.069 1_554 S
Zn44 O50 2.125 . S
Zn44 O53 2.125 . S
Zn44 O55 2.115 1_554 S
Zn44 O56 2.107 1_554 S
Zn44 O59 2.088 . S
C45 O50 1.166 . S
C45 O51 1.182 . S
C46 O52 1.167 . S
C46 O53 1.299 . S
O47 Zn44 2.069 1_556 S
O47 C61 1.305 . S
O48 Zn42 1.920 . S
O48 C61 1.234 . S
C49 O54 1.167 . S
C49 O55 1.299 . S
O50 Zn44 2.125 . S
O50 C45 1.166 . S
O51 Zn43 1.905 . S
O51 C45 1.182 . S
O52 Zn43 1.898 . S
O52 C46 1.167 . S
O53 Zn44 2.125 . S
O53 C46 1.299 . S
O54 Zn42 1.898 . S
O54 C49 1.167 . S
O55 Zn44 2.115 1_556 S
O55 C49 1.299 . S
O56 Zn44 2.107 1_556 S
O56 C58 1.166 . S
O57 Zn42 1.905 . S
O57 C58 1.182 . S
C58 O56 1.166 . S
C58 O57 1.182 . S
O59 Zn44 2.088 . S
O59 C62 1.305 . S
O60 Zn43 1.920 . S
O60 C62 1.234 . S
C61 O47 1.305 . S
C61 O48 1.234 . S
C62 O59 1.305 . S
C62 O60 1.234 . S
Zn63 O69 1.920 . S
Zn63 O75 1.898 . S
Zn63 O78 1.905 . S
Zn64 O72 1.905 . S
Zn64 O73 1.898 . S
Zn64 O81 1.920 . S
Zn65 O68 2.080 . S
Zn65 O71 2.114 . S
Zn65 O74 2.120 . S
Zn65 O76 2.120 . S
Zn65 O77 2.114 . S
Zn65 O80 2.080 . S
C66 O71 1.166 . S
C66 O72 1.182 . S
C67 O73 1.167 . S
C67 O74 1.299 . S
O68 Zn65 2.080 . S
O68 C82 1.305 . S
O69 Zn63 1.920 . S
O69 C82 1.234 . S
C70 O75 1.167 . S
C70 O76 1.299 . S
O71 Zn65 2.114 . S
O71 C66 1.166 . S
O72 Zn64 1.905 . S
O72 C66 1.182 . S
O73 Zn64 1.898 . S
O73 C67 1.167 . S
O74 Zn65 2.120 . S
O74 C67 1.299 . S
O75 Zn63 1.898 . S
O75 C70 1.167 . S
O76 Zn65 2.120 . S
O76 C70 1.299 . S
O77 Zn65 2.114 . S
O77 C79 1.166 . S
O78 Zn63 1.905 . S
O78 C79 1.182 . S
C79 O77 1.166 . S
C79 O78 1.182 . S
O80 Zn65 2.080 . S
O80 C83 1.305 . S
O81 Zn64 1.920 . S
O81 C83 1.234 . S
C82 O68 1.305 . S
C82 O69 1.234 . S
C83 O80 1.305 . S
C83 O81 1.234 . S
H84 C87 0.931 . S
H85 C90 0.928 . S
H86 C92 0.930 . S
C87 H84 0.931 . S
C87 C88 1.413 . S
C87 C89 1.360 . S
C88 C87 1.413 . S
C88 C92 1.429 . S
C89 C87 1.360 . S
C89 C90 1.372 . S
C90 H85 0.928 . S
C90 C89 1.372 . S
C90 C91 1.404 . S
C91 C90 1.404 . S
C91 C92 1.391 . S
C92 H86 0.930 . S
C92 C88 1.429 . S
C92 C91 1.391 . S
H93 C96 0.931 . S
H94 C99 0.928 . S
H95 C101 0.930 . S
C96 H93 0.931 . S
C96 C97 1.413 . S
C96 C98 1.360 . S
C97 C96 1.413 . S
C97 C101 1.429 . S
C98 C96 1.360 . S
C98 C99 1.372 . S
C99 H94 0.928 . S
C99 C98 1.372 . S
C99 C100 1.404 . S
C100 C99 1.404 . S
C100 C101 1.391 . S
C101 H95 0.930 . S
C101 C97 1.429 . S
C101 C100 1.391 . S
H102 C105 0.931 . S
H103 C108 0.928 . S
H104 C110 0.930 . S
C105 H102 0.931 . S
C105 C106 1.413 . S
C105 C107 1.360 . S
C106 C105 1.413 . S
C106 C110 1.429 . S
C107 C105 1.360 . S
C107 C108 1.372 . S
C108 H103 0.928 . S
C108 C107 1.372 . S
C108 C109 1.404 . S
C109 C108 1.404 . S
C109 C110 1.391 . S
C110 H104 0.930 . S
C110 C106 1.429 . S
C110 C109 1.391 . S
H111 C114 0.931 . S
H112 C117 0.928 . S
H113 C119 0.930 . S
C114 H111 0.931 . S
C114 C115 1.413 . S
C114 C116 1.360 . S
C115 C114 1.413 . S
C115 C119 1.429 . S
C116 C114 1.360 . S
C116 C117 1.372 . S
C117 H112 0.928 . S
C117 C116 1.372 . S
C117 C118 1.404 . S
C118 C117 1.404 . S
C118 C119 1.391 . S
C119 H113 0.930 . S
C119 C115 1.429 . S
C119 C118 1.391 . S
H120 C123 0.931 . S
H121 C126 0.928 . S
H122 C128 0.930 . S
C123 H120 0.931 . S
C123 C124 1.413 . S
C123 C125 1.360 . S
C124 C123 1.413 . S
C124 C128 1.429 . S
C125 C123 1.360 . S
C125 C126 1.372 . S
C126 H121 0.928 . S
C126 C125 1.372 . S
C126 C127 1.404 . S
C127 C126 1.404 . S
C127 C128 1.391 . S
C128 H122 0.930 . S
C128 C124 1.429 . S
C128 C127 1.391 . S
H129 C132 0.931 . S
H130 C135 0.928 . S
H131 C137 0.930 . S
C132 H129 0.931 . S
C132 C133 1.413 . S
C132 C134 1.360 . S
C133 C132 1.413 . S
C133 C137 1.429 . S
C134 C132 1.360 . S
C134 C135 1.372 . S
C135 H130 0.928 . S
C135 C134 1.372 . S
C135 C136 1.404 . S
C136 C135 1.404 . S
C136 C137 1.391 . S
C137 H131 0.930 . S
C137 C133 1.429 . S
C137 C136 1.391 . S
H138 C141 0.931 . S
H139 C144 0.928 . S
H140 C146 0.930 . S
C141 H138 0.931 . S
C141 C142 1.413 . S
C141 C143 1.360 . S
C142 C141 1.413 . S
C142 C146 1.429 . S
C143 C141 1.360 . S
C143 C144 1.372 . S
C144 H139 0.928 . S
C144 C143 1.372 . S
C144 C145 1.404 . S
C145 C144 1.404 . S
C145 C146 1.391 . S
C146 H140 0.930 . S
C146 C142 1.429 . S
C146 C145 1.391 . S
H147 C150 0.931 . S
H148 C153 0.928 . S
H149 C155 0.930 . S
C150 H147 0.931 . S
C150 C151 1.413 . S
C150 C152 1.360 . S
C151 C150 1.413 . S
C151 C155 1.429 . S
C152 C150 1.360 . S
C152 C153 1.372 . S
C153 H148 0.928 . S
C153 C152 1.372 . S
C153 C154 1.404 . S
C154 C153 1.404 . S
C154 C155 1.391 . S
C155 H149 0.930 . S
C155 C151 1.429 . S
C155 C154 1.391 . S
C156 C157 1.363 . S
C156 C162 1.379 1_565 S
C156 N164 1.356 . S
C157 C156 1.363 . S
C157 C163 1.363 . S
C158 C159 1.363 1_565 S
C158 C163 1.379 . S
C158 N165 1.356 1_565 S
C159 C158 1.363 1_545 S
C159 C162 1.363 . S
N160 C162 1.356 . S
N160 H172 0.984 . S
N160 H173 0.985 . S
N161 C163 1.356 . S
N161 H166 0.984 . S
N161 H167 0.985 . S
C162 C156 1.379 1_545 S
C162 C159 1.363 . S
C162 N160 1.356 . S
C163 C157 1.363 . S
C163 C158 1.379 . S
C163 N161 1.356 . S
N164 C156 1.356 . S
N164 H170 0.984 . S
N164 H171 0.984 . S
N165 C158 1.356 1_545 S
N165 H168 0.984 . S
N165 H169 0.985 1_545 S
H166 N161 0.984 . S
H167 N161 0.985 . S
H168 N165 0.984 . S
H169 N165 0.985 1_565 S
H170 N164 0.984 . S
H171 N164 0.984 . S
H172 N160 0.984 . S
H173 N160 0.985 . S
C174 C175 1.363 . S
C174 C180 1.379 . S
C174 N182 1.356 . S
C175 C174 1.363 . S
C175 C181 1.363 . S
C176 C177 1.363 . S
C176 C181 1.379 . S
C176 N183 1.356 . S
C177 C176 1.363 . S
C177 C180 1.363 . S
N178 C180 1.356 . S
N178 H190 0.984 . S
N178 H191 0.985 . S
N179 C181 1.356 . S
N179 H184 0.984 . S
N179 H185 0.985 . S
C180 C174 1.379 . S
C180 C177 1.363 . S
C180 N178 1.356 . S
C181 C175 1.363 . S
C181 C176 1.379 . S
C181 N179 1.356 . S
N182 C174 1.356 . S
N182 H188 0.984 . S
N182 H189 0.984 . S
N183 C176 1.356 . S
N183 H186 0.984 . S
N183 H187 0.985 . S
H184 N179 0.984 . S
H185 N179 0.985 . S
H186 N183 0.984 . S
H187 N183 0.985 . S
H188 N182 0.984 . S
H189 N182 0.984 . S
H190 N178 0.984 . S
H191 N178 0.985 . S
C192 C193 1.363 . S
C192 C198 1.379 1_545 S
C192 N200 1.356 1_554 S
C193 C192 1.363 . S
C193 C199 1.363 . S
C194 C195 1.363 . S
C194 C199 1.379 1_565 S
C194 N201 1.356 . S
C195 C194 1.363 . S
C195 C198 1.363 . S
N196 C198 1.356 . S
N196 H208 0.984 1_554 S
N196 H209 0.985 . S
N197 C199 1.356 . S
N197 H202 0.984 . S
N197 H203 0.985 . S
C198 C192 1.379 1_565 S
C198 C195 1.363 . S
C198 N196 1.356 . S
C199 C193 1.363 . S
C199 C194 1.379 1_545 S
C199 N197 1.356 . S
N200 C192 1.356 1_556 S
N200 H206 0.984 . S
N200 H207 0.984 . S
N201 C194 1.356 . S
N201 H204 0.984 . S
N201 H205 0.985 . S
H202 N197 0.984 . S
H203 N197 0.985 . S
H204 N201 0.984 . S
H205 N201 0.985 . S
H206 N200 0.984 . S
H207 N200 0.984 . S
H208 N196 0.984 1_556 S
H209 N196 0.985 . S
C210 C211 1.363 . S
C210 C216 1.379 . S
C210 N218 1.356 . S
C211 C210 1.363 . S
C211 C217 1.363 . S
C212 C213 1.363 . S
C212 C217 1.379 . S
C212 N219 1.356 . S
C213 C212 1.363 . S
C213 C216 1.363 . S
N214 C216 1.356 . S
N214 H226 0.984 . S
N214 H227 0.985 . S
N215 C217 1.356 . S
N215 H220 0.984 . S
N215 H221 0.985 . S
C216 C210 1.379 . S
C216 C213 1.363 . S
C216 N214 1.356 . S
C217 C211 1.363 . S
C217 C212 1.379 . S
C217 N215 1.356 . S
N218 C210 1.356 . S
N218 H224 0.984 . S
N218 H225 0.984 . S
N219 C212 1.356 . S
N219 H222 0.984 . S
N219 H223 0.985 . S
H220 N215 0.984 . S
H221 N215 0.985 . S
H222 N219 0.984 . S
H223 N219 0.985 . S
H224 N218 0.984 . S
H225 N218 0.984 . S
H226 N214 0.984 . S
H227 N214 0.985 . S
C228 C229 1.363 . S
C228 C234 1.379 . S
C228 N236 1.356 . S
C229 C228 1.363 . S
C229 C235 1.363 . S
C230 C231 1.363 . S
C230 C235 1.379 . S
C230 N237 1.356 . S
C231 C230 1.363 . S
C231 C234 1.363 . S
N232 C234 1.356 . S
N232 H244 0.984 . S
N232 H245 0.985 . S
N233 C235 1.356 . S
N233 H238 0.984 . S
N233 H239 0.985 . S
C234 C228 1.379 . S
C234 C231 1.363 . S
C234 N232 1.356 . S
C235 C229 1.363 . S
C235 C230 1.379 . S
C235 N233 1.356 . S
N236 C228 1.356 . S
N236 H242 0.984 . S
N236 H243 0.984 . S
N237 C230 1.356 . S
N237 H240 0.984 . S
N237 H241 0.985 . S
H238 N233 0.984 . S
H239 N233 0.985 . S
H240 N237 0.984 . S
H241 N237 0.985 . S
H242 N236 0.984 . S
H243 N236 0.984 . S
H244 N232 0.984 . S
H245 N232 0.985 . S
C246 C247 1.363 1_454 S
C246 C252 1.379 . S
C246 N254 1.356 1_455 S
C247 C246 1.363 1_656 S
C247 C253 1.363 1_655 S
C248 C249 1.363 . S
C248 C253 1.379 . S
C248 N255 1.356 . S
C249 C248 1.363 . S
C249 C252 1.363 1_556 S
N250 C252 1.356 . S
N250 H262 0.984 . S
N250 H263 0.985 . S
N251 C253 1.356 1_655 S
N251 H256 0.984 . S
N251 H257 0.985 . S
C252 C246 1.379 . S
C252 C249 1.363 1_554 S
C252 N250 1.356 . S
C253 C247 1.363 1_455 S
C253 C248 1.379 . S
C253 N251 1.356 1_455 S
N254 C246 1.356 1_655 S
N254 H260 0.984 . S
N254 H261 0.984 . S
N255 C248 1.356 . S
N255 H258 0.984 . S
N255 H259 0.985 . S
H256 N251 0.984 . S
H257 N251 0.985 . S
H258 N255 0.984 . S
H259 N255 0.985 . S
H260 N254 0.984 . S
H261 N254 0.984 . S
H262 N250 0.984 . S
H263 N250 0.985 . S
C264 C265 1.363 . S
C264 C270 1.379 . S
C264 N272 1.356 . S
C265 C264 1.363 . S
C265 C271 1.363 . S
C266 C267 1.363 . S
C266 C271 1.379 . S
C266 N273 1.356 . S
C267 C266 1.363 . S
C267 C270 1.363 . S
N268 C270 1.356 . S
N268 H280 0.984 . S
N268 H281 0.985 . S
N269 C271 1.356 . S
N269 H274 0.984 . S
N269 H275 0.985 . S
C270 C264 1.379 . S
C270 C267 1.363 . S
C270 N268 1.356 . S
C271 C265 1.363 . S
C271 C266 1.379 . S
C271 N269 1.356 . S
N272 C264 1.356 . S
N272 H278 0.984 . S
N272 H279 0.984 . S
N273 C266 1.356 . S
N273 H276 0.984 . S
N273 H277 0.985 . S
H274 N269 0.984 . S
H275 N269 0.985 . S
H276 N273 0.984 . S
H277 N273 0.985 . S
H278 N272 0.984 . S
H279 N272 0.984 . S
H280 N268 0.984 . S
H281 N268 0.985 . S
C282 C283 1.363 . S
C282 C288 1.379 . S
C282 N290 1.356 . S
C283 C282 1.363 . S
C283 C289 1.363 . S
C284 C285 1.363 . S
C284 C289 1.379 . S
C284 N291 1.356 . S
C285 C284 1.363 . S
C285 C288 1.363 . S
N286 C288 1.356 1_655 S
N286 H298 0.984 . S
N286 H299 0.985 . S
N287 C289 1.356 . S
N287 H292 0.984 . S
N287 H293 0.985 . S
C288 C282 1.379 . S
C288 C285 1.363 . S
C288 N286 1.356 1_455 S
C289 C283 1.363 . S
C289 C284 1.379 . S
C289 N287 1.356 . S
N290 C282 1.356 . S
N290 H296 0.984 . S
N290 H297 0.984 . S
N291 C284 1.356 . S
N291 H294 0.984 . S
N291 H295 0.985 . S
H292 N287 0.984 . S
H293 N287 0.985 . S
H294 N291 0.984 . S
H295 N291 0.985 . S
H296 N290 0.984 . S
H297 N290 0.984 . S
H298 N286 0.984 . S
H299 N286 0.985 . S
C300 C301 1.363 . S
C300 C306 1.379 1_545 S
C300 N308 1.356 . S
C301 C300 1.363 . S
C301 C307 1.363 1_545 S
C302 C303 1.363 . S
C302 C307 1.379 . S
C302 N309 1.356 . S
C303 C302 1.363 . S
C303 C306 1.363 . S
N304 C306 1.356 . S
N304 H316 0.984 . S
N304 H317 0.985 . S
N305 C307 1.356 . S
N305 H310 0.984 1_565 S
N305 H311 0.985 . S
C306 C300 1.379 1_565 S
C306 C303 1.363 . S
C306 N304 1.356 . S
C307 C301 1.363 1_565 S
C307 C302 1.379 . S
C307 N305 1.356 . S
N308 C300 1.356 . S
N308 H314 0.984 . S
N308 H315 0.984 . S
N309 C302 1.356 . S
N309 H312 0.984 . S
N309 H313 0.985 . S
H310 N305 0.984 1_545 S
H311 N305 0.985 . S
H312 N309 0.984 . S
H313 N309 0.985 . S
H314 N308 0.984 . S
H315 N308 0.984 . S
H316 N304 0.984 . S
H317 N304 0.985 . S
C318 C319 1.363 . S
C318 C324 1.379 . S
C318 N326 1.356 . S
C319 C318 1.363 . S
C319 C325 1.363 . S
C320 C321 1.363 . S
C320 C325 1.379 . S
C320 N327 1.356 . S
C321 C320 1.363 . S
C321 C324 1.363 . S
N322 C324 1.356 . S
N322 H334 0.984 . S
N322 H335 0.985 . S
N323 C325 1.356 . S
N323 H328 0.984 . S
N323 H329 0.985 . S
C324 C318 1.379 . S
C324 C321 1.363 . S
C324 N322 1.356 . S
C325 C319 1.363 . S
C325 C320 1.379 . S
C325 N323 1.356 . S
N326 C318 1.356 . S
N326 H332 0.984 . S
N326 H333 0.984 . S
N327 C320 1.356 . S
N327 H330 0.984 . S
N327 H331 0.985 . S
H328 N323 0.984 . S
H329 N323 0.985 . S
H330 N327 0.984 . S
H331 N327 0.985 . S
H332 N326 0.984 . S
H333 N326 0.984 . S
H334 N322 0.984 . S
H335 N322 0.985 . S
C336 C337 1.363 1_545 S
C336 C342 1.379 . S
C336 N344 1.356 1_545 S
C337 C336 1.363 1_565 S
C337 C343 1.363 1_566 S
C338 C339 1.363 1_554 S
C338 C343 1.379 . S
C338 N345 1.356 . S
C339 C338 1.363 1_556 S
C339 C342 1.363 . S
N340 C342 1.356 . S
N340 H352 0.984 . S
N340 H353 0.985 . S
N341 C343 1.356 . S
N341 H346 0.984 1_545 S
N341 H347 0.985 . S
C342 C336 1.379 . S
C342 C339 1.363 . S
C342 N340 1.356 . S
C343 C337 1.363 1_544 S
C343 C338 1.379 . S
C343 N341 1.356 . S
N344 C336 1.356 1_565 S
N344 H350 0.984 . S
N344 H351 0.984 . S
N345 C338 1.356 . S
N345 H348 0.984 . S
N345 H349 0.985 . S
H346 N341 0.984 1_565 S
H347 N341 0.985 . S
H348 N345 0.984 . S
H349 N345 0.985 . S
H350 N344 0.984 . S
H351 N344 0.984 . S
H352 N340 0.984 . S
H353 N340 0.985 . S
C354 C355 1.363 . S
C354 C360 1.379 . S
C354 N362 1.356 . S
C355 C354 1.363 . S
C355 C361 1.363 . S
C356 C357 1.363 . S
C356 C361 1.379 . S
C356 N363 1.356 . S
C357 C356 1.363 . S
C357 C360 1.363 . S
N358 C360 1.356 . S
N358 H370 0.984 . S
N358 H371 0.985 . S
N359 C361 1.356 . S
N359 H364 0.984 . S
N359 H365 0.985 . S
C360 C354 1.379 . S
C360 C357 1.363 . S
C360 N358 1.356 . S
C361 C355 1.363 . S
C361 C356 1.379 . S
C361 N359 1.356 . S
N362 C354 1.356 . S
N362 H368 0.984 . S
N362 H369 0.984 . S
N363 C356 1.356 . S
N363 H366 0.984 . S
N363 H367 0.985 . S
H364 N359 0.984 . S
H365 N359 0.985 . S
H366 N363 0.984 . S
H367 N363 0.985 . S
H368 N362 0.984 . S
H369 N362 0.984 . S
H370 N358 0.984 . S
H371 N358 0.985 . S
C372 C373 1.363 . S
C372 C378 1.379 . S
C372 N380 1.356 . S
C373 C372 1.363 . S
C373 C379 1.363 . S
C374 C375 1.363 . S
C374 C379 1.379 . S
C374 N381 1.356 . S
C375 C374 1.363 . S
C375 C378 1.363 . S
N376 C378 1.356 . S
N376 H388 0.984 . S
N376 H389 0.985 . S
N377 C379 1.356 . S
N377 H382 0.984 . S
N377 H383 0.985 . S
C378 C372 1.379 . S
C378 C375 1.363 . S
C378 N376 1.356 . S
C379 C373 1.363 . S
C379 C374 1.379 . S
C379 N377 1.356 . S
N380 C372 1.356 . S
N380 H386 0.984 . S
N380 H387 0.984 . S
N381 C374 1.356 . S
N381 H384 0.984 . S
N381 H385 0.985 . S
H382 N377 0.984 . S
H383 N377 0.985 . S
H384 N381 0.984 . S
H385 N381 0.985 . S
H386 N380 0.984 . S
H387 N380 0.984 . S
H388 N376 0.984 . S
H389 N376 0.985 . S
C390 C391 1.363 . S
C390 C396 1.379 . S
C390 N398 1.356 . S
C391 C390 1.363 . S
C391 C397 1.363 . S
C392 C393 1.363 . S
C392 C397 1.379 . S
C392 N399 1.356 . S
C393 C392 1.363 . S
C393 C396 1.363 . S
N394 C396 1.356 . S
N394 H406 0.984 1_554 S
N394 H407 0.985 . S
N395 C397 1.356 1_455 S
N395 H400 0.984 . S
N395 H401 0.985 1_455 S
C396 C390 1.379 . S
C396 C393 1.363 . S
C396 N394 1.356 . S
C397 C391 1.363 . S
C397 C392 1.379 . S
C397 N395 1.356 1_655 S
N398 C390 1.356 . S
N398 H404 0.984 1_554 S
N398 H405 0.984 1_655 S
N399 C392 1.356 . S
N399 H402 0.984 . S
N399 H403 0.985 . S
H400 N395 0.984 . S
H401 N395 0.985 1_655 S
H402 N399 0.984 . S
H403 N399 0.985 . S
H404 N398 0.984 1_556 S
H405 N398 0.984 1_455 S
H406 N394 0.984 1_556 S
H407 N394 0.985 . S
C408 C409 1.363 . S
C408 C414 1.379 . S
C408 N416 1.356 . S
C409 C408 1.363 . S
C409 C415 1.363 . S
C410 C411 1.363 . S
C410 C415 1.379 . S
C410 N417 1.356 . S
C411 C410 1.363 . S
C411 C414 1.363 . S
N412 C414 1.356 . S
N412 H424 0.984 . S
N412 H425 0.985 . S
N413 C415 1.356 . S
N413 H418 0.984 . S
N413 H419 0.985 . S
C414 C408 1.379 . S
C414 C411 1.363 . S
C414 N412 1.356 . S
C415 C409 1.363 . S
C415 C410 1.379 . S
C415 N413 1.356 . S
N416 C408 1.356 . S
N416 H422 0.984 . S
N416 H423 0.984 . S
N417 C410 1.356 . S
N417 H420 0.984 . S
N417 H421 0.985 . S
H418 N413 0.984 . S
H419 N413 0.985 . S
H420 N417 0.984 . S
H421 N417 0.985 . S
H422 N416 0.984 . S
H423 N416 0.984 . S
H424 N412 0.984 . S
H425 N412 0.985 . S
C426 C427 1.363 . S
C426 C432 1.379 1_655 S
C426 N434 1.356 . S
C427 C426 1.363 . S
C427 C433 1.363 . S
C428 C429 1.363 1_655 S
C428 C433 1.379 . S
C428 N435 1.356 1_655 S
C429 C428 1.363 1_455 S
C429 C432 1.363 . S
N430 C432 1.356 . S
N430 H442 0.984 . S
N430 H443 0.985 . S
N431 C433 1.356 . S
N431 H436 0.984 . S
N431 H437 0.985 . S
C432 C426 1.379 1_455 S
C432 C429 1.363 . S
C432 N430 1.356 . S
C433 C427 1.363 . S
C433 C428 1.379 . S
C433 N431 1.356 . S
N434 C426 1.356 . S
N434 H440 0.984 1_655 S
N434 H441 0.984 . S
N435 C428 1.356 1_455 S
N435 H438 0.984 . S
N435 H439 0.985 1_455 S
H436 N431 0.984 . S
H437 N431 0.985 . S
H438 N435 0.984 . S
H439 N435 0.985 1_655 S
H440 N434 0.984 1_455 S
H441 N434 0.984 . S
H442 N430 0.984 . S
H443 N430 0.985 . S
C444 C445 1.363 . S
C444 C450 1.379 . S
C444 N452 1.356 . S
C445 C444 1.363 . S
C445 C451 1.363 . S
C446 C447 1.363 . S
C446 C451 1.379 . S
C446 N453 1.356 . S
C447 C446 1.363 . S
C447 C450 1.363 . S
N448 C450 1.356 . S
N448 H460 0.984 . S
N448 H461 0.985 . S
N449 C451 1.356 . S
N449 H454 0.984 . S
N449 H455 0.985 . S
C450 C444 1.379 . S
C450 C447 1.363 . S
C450 N448 1.356 . S
C451 C445 1.363 . S
C451 C446 1.379 . S
C451 N449 1.356 . S
N452 C444 1.356 . S
N452 H458 0.984 . S
N452 H459 0.984 . S
N453 C446 1.356 . S
N453 H456 0.984 . S
N453 H457 0.985 . S
H454 N449 0.984 . S
H455 N449 0.985 . S
H456 N453 0.984 . S
H457 N453 0.985 . S
H458 N452 0.984 . S
H459 N452 0.984 . S
H460 N448 0.984 . S
H461 N448 0.985 . S
C462 C463 1.363 . S
C462 C468 1.379 . S
C462 N470 1.356 . S
C463 C462 1.363 . S
C463 C469 1.363 . S
C464 C465 1.363 . S
C464 C469 1.379 . S
C464 N471 1.356 . S
C465 C464 1.363 . S
C465 C468 1.363 . S
N466 C468 1.356 . S
N466 H478 0.984 . S
N466 H479 0.985 . S
N467 C469 1.356 . S
N467 H472 0.984 . S
N467 H473 0.985 . S
C468 C462 1.379 . S
C468 C465 1.363 . S
C468 N466 1.356 . S
C469 C463 1.363 . S
C469 C464 1.379 . S
C469 N467 1.356 . S
N470 C462 1.356 . S
N470 H476 0.984 . S
N470 H477 0.984 . S
N471 C464 1.356 . S
N471 H474 0.984 . S
N471 H475 0.985 . S
H472 N467 0.984 . S
H473 N467 0.985 . S
H474 N471 0.984 . S
H475 N471 0.985 . S
H476 N470 0.984 . S
H477 N470 0.984 . S
H478 N466 0.984 . S
H479 N466 0.985 . S
C480 C481 1.363 . S
C480 C486 1.379 . S
C480 N488 1.356 . S
C481 C480 1.363 . S
C481 C487 1.363 . S
C482 C483 1.363 . S
C482 C487 1.379 . S
C482 N489 1.356 . S
C483 C482 1.363 . S
C483 C486 1.363 . S
N484 C486 1.356 . S
N484 H496 0.984 . S
N484 H497 0.985 . S
N485 C487 1.356 . S
N485 H490 0.984 . S
N485 H491 0.985 . S
C486 C480 1.379 . S
C486 C483 1.363 . S
C486 N484 1.356 . S
C487 C481 1.363 . S
C487 C482 1.379 . S
C487 N485 1.356 . S
N488 C480 1.356 . S
N488 H494 0.984 . S
N488 H495 0.984 . S
N489 C482 1.356 . S
N489 H492 0.984 . S
N489 H493 0.985 . S
H490 N485 0.984 . S
H491 N485 0.985 . S
H492 N489 0.984 . S
H493 N489 0.985 . S
H494 N488 0.984 . S
H495 N488 0.984 . S
H496 N484 0.984 . S
H497 N484 0.985 . S
C498 C499 1.363 . S
C498 C504 1.379 . S
C498 N506 1.356 . S
C499 C498 1.363 . S
C499 C505 1.363 . S
C500 C501 1.363 . S
C500 C505 1.379 . S
C500 N507 1.356 . S
C501 C500 1.363 . S
C501 C504 1.363 . S
N502 C504 1.356 . S
N502 H514 0.984 . S
N502 H515 0.985 . S
N503 C505 1.356 . S
N503 H508 0.984 . S
N503 H509 0.985 . S
C504 C498 1.379 . S
C504 C501 1.363 . S
C504 N502 1.356 . S
C505 C499 1.363 . S
C505 C500 1.379 . S
C505 N503 1.356 . S
N506 C498 1.356 . S
N506 H512 0.984 . S
N506 H513 0.984 . S
N507 C500 1.356 . S
N507 H510 0.984 . S
N507 H511 0.985 . S
H508 N503 0.984 . S
H509 N503 0.985 . S
H510 N507 0.984 . S
H511 N507 0.985 . S
H512 N506 0.984 . S
H513 N506 0.984 . S
H514 N502 0.984 . S
H515 N502 0.985 . S
C516 C517 1.363 . S
C516 C522 1.379 . S
C516 N524 1.356 . S
C517 C516 1.363 . S
C517 C523 1.363 . S
C518 C519 1.363 . S
C518 C523 1.379 . S
C518 N525 1.356 . S
C519 C518 1.363 . S
C519 C522 1.363 . S
N520 C522 1.356 . S
N520 H532 0.984 . S
N520 H533 0.985 . S
N521 C523 1.356 . S
N521 H526 0.984 . S
N521 H527 0.985 . S
C522 C516 1.379 . S
C522 C519 1.363 . S
C522 N520 1.356 . S
C523 C517 1.363 . S
C523 C518 1.379 . S
C523 N521 1.356 . S
N524 C516 1.356 . S
N524 H530 0.984 . S
N524 H531 0.984 . S
N525 C518 1.356 . S
N525 H528 0.984 . S
N525 H529 0.985 . S
H526 N521 0.984 . S
H527 N521 0.985 . S
H528 N525 0.984 . S
H529 N525 0.985 . S
H530 N524 0.984 . S
H531 N524 0.984 . S
H532 N520 0.984 . S
H533 N520 0.985 . S
C534 C535 1.363 . S
C534 C540 1.379 . S
C534 N542 1.356 . S
C535 C534 1.363 . S
C535 C541 1.363 . S
C536 C537 1.363 . S
C536 C541 1.379 . S
C536 N543 1.356 . S
C537 C536 1.363 . S
C537 C540 1.363 . S
N538 C540 1.356 . S
N538 H550 0.984 . S
N538 H551 0.985 . S
N539 C541 1.356 . S
N539 H544 0.984 . S
N539 H545 0.985 . S
C540 C534 1.379 . S
C540 C537 1.363 . S
C540 N538 1.356 . S
C541 C535 1.363 . S
C541 C536 1.379 . S
C541 N539 1.356 . S
N542 C534 1.356 . S
N542 H548 0.984 . S
N542 H549 0.984 . S
N543 C536 1.356 . S
N543 H546 0.984 . S
N543 H547 0.985 . S
H544 N539 0.984 . S
H545 N539 0.985 . S
H546 N543 0.984 . S
H547 N543 0.985 . S
H548 N542 0.984 . S
H549 N542 0.984 . S
H550 N538 0.984 . S
H551 N538 0.985 . S
C552 C553 1.363 . S
C552 C558 1.379 . S
C552 N560 1.356 . S
C553 C552 1.363 . S
C553 C559 1.363 . S
C554 C555 1.363 . S
C554 C559 1.379 . S
C554 N561 1.356 . S
C555 C554 1.363 . S
C555 C558 1.363 . S
N556 C558 1.356 . S
N556 H568 0.984 . S
N556 H569 0.985 . S
N557 C559 1.356 . S
N557 H562 0.984 . S
N557 H563 0.985 . S
C558 C552 1.379 . S
C558 C555 1.363 . S
C558 N556 1.356 . S
C559 C553 1.363 . S
C559 C554 1.379 . S
C559 N557 1.356 . S
N560 C552 1.356 . S
N560 H566 0.984 . S
N560 H567 0.984 . S
N561 C554 1.356 . S
N561 H564 0.984 . S
N561 H565 0.985 . S
H562 N557 0.984 . S
H563 N557 0.985 . S
H564 N561 0.984 . S
H565 N561 0.985 . S
H566 N560 0.984 . S
H567 N560 0.984 . S
H568 N556 0.984 . S
H569 N556 0.985 . S
C570 C571 1.363 1_554 S
C570 C576 1.379 1_554 S
C570 N578 1.356 . S
C571 C570 1.363 1_556 S
C571 C577 1.363 . S
C572 C573 1.363 . S
C572 C577 1.379 . S
C572 N579 1.356 . S
C573 C572 1.363 . S
C573 C576 1.363 . S
N574 C576 1.356 . S
N574 H586 0.984 1_556 S
N574 H587 0.985 . S
N575 C577 1.356 . S
N575 H580 0.984 . S
N575 H581 0.985 . S
C576 C570 1.379 1_556 S
C576 C573 1.363 . S
C576 N574 1.356 . S
C577 C571 1.363 . S
C577 C572 1.379 . S
C577 N575 1.356 . S
N578 C570 1.356 . S
N578 H584 0.984 . S
N578 H585 0.984 . S
N579 C572 1.356 . S
N579 H582 0.984 . S
N579 H583 0.985 . S
H580 N575 0.984 . S
H581 N575 0.985 . S
H582 N579 0.984 . S
H583 N579 0.985 . S
H584 N578 0.984 . S
H585 N578 0.984 . S
H586 N574 0.984 1_554 S
H587 N574 0.985 . S
C157 C7 0.973 . S
C159 C89 1.071 . S
C175 C25 1.011 . S
C177 C97 1.098 . S
C193 C46 1.092 . S
C195 C106 1.138 . S
C213 C116 1.137 . S
C211 C70 1.099 . S
C231 C125 1.068 . S
C229 C28 0.970 . S
C247 C49 1.099 . S
C249 C134 1.138 . S
C265 C67 1.090 . S
C267 C142 1.136 . S
C283 C4 1.011 . S
C285 C152 1.102 1_455 S
C301 C58 1.545 . S
C303 C151 1.659 . S
C321 C124 1.514 . S
C319 C66 1.450 . S
C339 C133 1.651 . S
C337 C3 1.665 . S
C355 C37 1.603 . S
C357 C143 1.670 . S
C375 C98 1.656 . S
C373 C79 1.547 . S
C391 C16 1.604 1_655 S
C393 C107 1.669 . S
C411 C115 1.649 . S
C409 C24 1.663 . S
C429 C88 1.513 . S
C427 C45 1.450 . S
C447 C145 1.496 . S
C445 C19 1.251 . S
C465 C154 1.390 . S
C463 C41 1.251 . S
C481 C62 1.185 . S
C483 C127 1.276 . S
C501 C136 1.376 . S
C499 C82 1.193 . S
C519 C109 1.496 . S
C517 C40 1.251 . S
C535 C61 1.191 . S
C537 C118 1.374 . S
C555 C91 1.278 . S
C553 C83 1.187 . S
C573 C100 1.385 . S
C571 C20 1.251 . S
