# Generated by pormake.
# Topology ptr, (4,4)-cn, num edge types: 1
# Building blocks:
#     Node 0, Type 0, BuildingBlock: GALJAG_clean_sbu_0, # of connection points: 4
#     Node 1, Type 0, BuildingBlock: GALJAG_clean_sbu_0, # of connection points: 4
#     Node 2, Type 0, BuildingBlock: GALJAG_clean_sbu_0, # of connection points: 4
#     Node 3, Type 0, BuildingBlock: GALJAG_clean_sbu_0, # of connection points: 4
#     Node 4, Type 0, BuildingBlock: GALJAG_clean_sbu_0, # of connection points: 4
#     Node 5, Type 0, BuildingBlock: GALJAG_clean_sbu_0, # of connection points: 4
#     Node 6, Type 0, BuildingBlock: GALJAG_clean_sbu_0, # of connection points: 4
#     Node 7, Type 0, BuildingBlock: GALJAG_clean_sbu_0, # of connection points: 4
#     Node 8, Type 0, BuildingBlock: GALJAG_clean_sbu_0, # of connection points: 4
#     Node 9, Type 0, BuildingBlock: GALJAG_clean_sbu_0, # of connection points: 4
#     Node 10, Type 0, BuildingBlock: GALJAG_clean_sbu_0, # of connection points: 4
#     Node 11, Type 0, BuildingBlock: GALJAG_clean_sbu_0, # of connection points: 4
#     Node 12, Type 0, BuildingBlock: GALJAG_clean_sbu_0, # of connection points: 4
#     Node 13, Type 0, BuildingBlock: GALJAG_clean_sbu_0, # of connection points: 4
#     Node 14, Type 0, BuildingBlock: GALJAG_clean_sbu_0, # of connection points: 4
#     Node 15, Type 0, BuildingBlock: GALJAG_clean_sbu_0, # of connection points: 4
#     Node 16, Type 0, BuildingBlock: GALJAG_clean_sbu_0, # of connection points: 4
#     Node 17, Type 0, BuildingBlock: GALJAG_clean_sbu_0, # of connection points: 4
#     Node 18, Type 1, BuildingBlock: NAHDIM_clean_linker_0, # of connection points: 4
#     Node 19, Type 1, BuildingBlock: NAHDIM_clean_linker_0, # of connection points: 4
#     Node 20, Type 1, BuildingBlock: NAHDIM_clean_linker_0, # of connection points: 4
#     Node 21, Type 1, BuildingBlock: NAHDIM_clean_linker_0, # of connection points: 4
#     Node 22, Type 1, BuildingBlock: NAHDIM_clean_linker_0, # of connection points: 4
#     Node 23, Type 1, BuildingBlock: NAHDIM_clean_linker_0, # of connection points: 4
#     Node 24, Type 1, BuildingBlock: NAHDIM_clean_linker_0, # of connection points: 4
#     Node 25, Type 1, BuildingBlock: NAHDIM_clean_linker_0, # of connection points: 4
#     Node 26, Type 1, BuildingBlock: NAHDIM_clean_linker_0, # of connection points: 4
#     Node 27, Type 1, BuildingBlock: NAHDIM_clean_linker_0, # of connection points: 4
#     Node 28, Type 1, BuildingBlock: NAHDIM_clean_linker_0, # of connection points: 4
#     Node 29, Type 1, BuildingBlock: NAHDIM_clean_linker_0, # of connection points: 4
#     Node 30, Type 1, BuildingBlock: NAHDIM_clean_linker_0, # of connection points: 4
#     Node 31, Type 1, BuildingBlock: NAHDIM_clean_linker_0, # of connection points: 4
#     Node 32, Type 1, BuildingBlock: NAHDIM_clean_linker_0, # of connection points: 4
#     Node 33, Type 1, BuildingBlock: NAHDIM_clean_linker_0, # of connection points: 4
#     Node 34, Type 1, BuildingBlock: NAHDIM_clean_linker_0, # of connection points: 4
#     Node 35, Type 1, BuildingBlock: NAHDIM_clean_linker_0, # of connection points: 4
#     Edge 36, Type (0, 1), BuildingBlock: MIFKUJ_clean_linker_0, # of connection points: 2
#     Edge 37, Type (0, 1), BuildingBlock: MIFKUJ_clean_linker_0, # of connection points: 2
#     Edge 38, Type (0, 1), BuildingBlock: MIFKUJ_clean_linker_0, # of connection points: 2
#     Edge 39, Type (0, 1), BuildingBlock: MIFKUJ_clean_linker_0, # of connection points: 2
#     Edge 40, Type (0, 1), BuildingBlock: MIFKUJ_clean_linker_0, # of connection points: 2
#     Edge 41, Type (0, 1), BuildingBlock: MIFKUJ_clean_linker_0, # of connection points: 2
#     Edge 42, Type (0, 1), BuildingBlock: MIFKUJ_clean_linker_0, # of connection points: 2
#     Edge 43, Type (0, 1), BuildingBlock: MIFKUJ_clean_linker_0, # of connection points: 2
#     Edge 44, Type (0, 1), BuildingBlock: MIFKUJ_clean_linker_0, # of connection points: 2
#     Edge 45, Type (0, 1), BuildingBlock: MIFKUJ_clean_linker_0, # of connection points: 2
#     Edge 46, Type (0, 1), BuildingBlock: MIFKUJ_clean_linker_0, # of connection points: 2
#     Edge 47, Type (0, 1), BuildingBlock: MIFKUJ_clean_linker_0, # of connection points: 2
#     Edge 48, Type (0, 1), BuildingBlock: MIFKUJ_clean_linker_0, # of connection points: 2
#     Edge 49, Type (0, 1), BuildingBlock: MIFKUJ_clean_linker_0, # of connection points: 2
#     Edge 50, Type (0, 1), BuildingBlock: MIFKUJ_clean_linker_0, # of connection points: 2
#     Edge 51, Type (0, 1), BuildingBlock: MIFKUJ_clean_linker_0, # of connection points: 2
#     Edge 52, Type (0, 1), BuildingBlock: MIFKUJ_clean_linker_0, # of connection points: 2
#     Edge 53, Type (0, 1), BuildingBlock: MIFKUJ_clean_linker_0, # of connection points: 2
#     Edge 54, Type (0, 1), BuildingBlock: MIFKUJ_clean_linker_0, # of connection points: 2
#     Edge 55, Type (0, 1), BuildingBlock: MIFKUJ_clean_linker_0, # of connection points: 2
#     Edge 56, Type (0, 1), BuildingBlock: MIFKUJ_clean_linker_0, # of connection points: 2
#     Edge 57, Type (0, 1), BuildingBlock: MIFKUJ_clean_linker_0, # of connection points: 2
#     Edge 58, Type (0, 1), BuildingBlock: MIFKUJ_clean_linker_0, # of connection points: 2
#     Edge 59, Type (0, 1), BuildingBlock: MIFKUJ_clean_linker_0, # of connection points: 2
#     Edge 60, Type (0, 1), BuildingBlock: MIFKUJ_clean_linker_0, # of connection points: 2
#     Edge 61, Type (0, 1), BuildingBlock: MIFKUJ_clean_linker_0, # of connection points: 2
#     Edge 62, Type (0, 1), BuildingBlock: MIFKUJ_clean_linker_0, # of connection points: 2
#     Edge 63, Type (0, 1), BuildingBlock: MIFKUJ_clean_linker_0, # of connection points: 2
#     Edge 64, Type (0, 1), BuildingBlock: MIFKUJ_clean_linker_0, # of connection points: 2
#     Edge 65, Type (0, 1), BuildingBlock: MIFKUJ_clean_linker_0, # of connection points: 2
#     Edge 66, Type (0, 1), BuildingBlock: MIFKUJ_clean_linker_0, # of connection points: 2
#     Edge 67, Type (0, 1), BuildingBlock: MIFKUJ_clean_linker_0, # of connection points: 2
#     Edge 68, Type (0, 1), BuildingBlock: MIFKUJ_clean_linker_0, # of connection points: 2
#     Edge 69, Type (0, 1), BuildingBlock: MIFKUJ_clean_linker_0, # of connection points: 2
#     Edge 70, Type (0, 1), BuildingBlock: MIFKUJ_clean_linker_0, # of connection points: 2
#     Edge 71, Type (0, 1), BuildingBlock: MIFKUJ_clean_linker_0, # of connection points: 2
#     Edge 72, Type (0, 1), BuildingBlock: MIFKUJ_clean_linker_0, # of connection points: 2
#     Edge 73, Type (0, 1), BuildingBlock: MIFKUJ_clean_linker_0, # of connection points: 2
#     Edge 74, Type (0, 1), BuildingBlock: MIFKUJ_clean_linker_0, # of connection points: 2
#     Edge 75, Type (0, 1), BuildingBlock: MIFKUJ_clean_linker_0, # of connection points: 2
#     Edge 76, Type (0, 1), BuildingBlock: MIFKUJ_clean_linker_0, # of connection points: 2
#     Edge 77, Type (0, 1), BuildingBlock: MIFKUJ_clean_linker_0, # of connection points: 2
#     Edge 78, Type (0, 1), BuildingBlock: MIFKUJ_clean_linker_0, # of connection points: 2
#     Edge 79, Type (0, 1), BuildingBlock: MIFKUJ_clean_linker_0, # of connection points: 2
#     Edge 80, Type (0, 1), BuildingBlock: MIFKUJ_clean_linker_0, # of connection points: 2
#     Edge 81, Type (0, 1), BuildingBlock: MIFKUJ_clean_linker_0, # of connection points: 2
#     Edge 82, Type (0, 1), BuildingBlock: MIFKUJ_clean_linker_0, # of connection points: 2
#     Edge 83, Type (0, 1), BuildingBlock: MIFKUJ_clean_linker_0, # of connection points: 2
#     Edge 84, Type (0, 1), BuildingBlock: MIFKUJ_clean_linker_0, # of connection points: 2
#     Edge 85, Type (0, 1), BuildingBlock: MIFKUJ_clean_linker_0, # of connection points: 2
#     Edge 86, Type (0, 1), BuildingBlock: MIFKUJ_clean_linker_0, # of connection points: 2
#     Edge 87, Type (0, 1), BuildingBlock: MIFKUJ_clean_linker_0, # of connection points: 2
#     Edge 88, Type (0, 1), BuildingBlock: MIFKUJ_clean_linker_0, # of connection points: 2
#     Edge 89, Type (0, 1), BuildingBlock: MIFKUJ_clean_linker_0, # of connection points: 2
#     Edge 90, Type (0, 1), BuildingBlock: MIFKUJ_clean_linker_0, # of connection points: 2
#     Edge 91, Type (0, 1), BuildingBlock: MIFKUJ_clean_linker_0, # of connection points: 2
#     Edge 92, Type (0, 1), BuildingBlock: MIFKUJ_clean_linker_0, # of connection points: 2
#     Edge 93, Type (0, 1), BuildingBlock: MIFKUJ_clean_linker_0, # of connection points: 2
#     Edge 94, Type (0, 1), BuildingBlock: MIFKUJ_clean_linker_0, # of connection points: 2
#     Edge 95, Type (0, 1), BuildingBlock: MIFKUJ_clean_linker_0, # of connection points: 2
#     Edge 96, Type (0, 1), BuildingBlock: MIFKUJ_clean_linker_0, # of connection points: 2
#     Edge 97, Type (0, 1), BuildingBlock: MIFKUJ_clean_linker_0, # of connection points: 2
#     Edge 98, Type (0, 1), BuildingBlock: MIFKUJ_clean_linker_0, # of connection points: 2
#     Edge 99, Type (0, 1), BuildingBlock: MIFKUJ_clean_linker_0, # of connection points: 2
#     Edge 100, Type (0, 1), BuildingBlock: MIFKUJ_clean_linker_0, # of connection points: 2
#     Edge 101, Type (0, 1), BuildingBlock: MIFKUJ_clean_linker_0, # of connection points: 2
#     Edge 102, Type (0, 1), BuildingBlock: MIFKUJ_clean_linker_0, # of connection points: 2
#     Edge 103, Type (0, 1), BuildingBlock: MIFKUJ_clean_linker_0, # of connection points: 2
#     Edge 104, Type (0, 1), BuildingBlock: MIFKUJ_clean_linker_0, # of connection points: 2
#     Edge 105, Type (0, 1), BuildingBlock: MIFKUJ_clean_linker_0, # of connection points: 2
#     Edge 106, Type (0, 1), BuildingBlock: MIFKUJ_clean_linker_0, # of connection points: 2
#     Edge 107, Type (0, 1), BuildingBlock: MIFKUJ_clean_linker_0, # of connection points: 2
# Relax obj value: 0.026
# Max RMSD: 0.103
# Mean RMSD: 0.052
data_MOF--net-ptr--node1-GALJAG_clean_sbu_0--node2-NAHDIM_clean_linker_0--edge1-MIFKUJ_clean_linker_0
_symmetry_space_group_name_H-M    P1
_symmetry_Int_Tables_number       1
_symmetry_cell_setting            triclinic
loop_
_symmetry_equiv_pos_as_xyz
'x, y, z'
_cell_length_a     112.76319
_cell_length_b     112.37176
_cell_length_c     102.56303
_cell_angle_alpha  90.716847
_cell_angle_beta   90.358444
_cell_angle_gamma 120.03268
loop_
_atom_site_label
_atom_site_type_symbol
_atom_site_fract_x
_atom_site_fract_y
_atom_site_fract_z
_atom_type_partial_charge
In0 In 0.00193 0.34831 0.00875 0.0
O1 O 0.99124 0.35054 0.02672 0.0
O2 O 0.00828 0.36853 0.01926 0.0
C3 C 0.9832 0.32284 0.0001 0.0
C4 C 0.02155 0.34471 0.01996 0.0
C5 C 0.00419 0.36277 0.98721 0.0
O6 O 0.97979 0.33084 0.00546 0.0
O7 O 0.99593 0.32755 0.99946 0.0
O8 O 0.01421 0.36197 0.99175 0.0
O9 O 0.99328 0.35637 0.99354 0.0
C10 C 0.99914 0.36339 0.02781 0.0
O11 O 0.02271 0.3493 0.00856 0.0
O12 O 0.0106 0.34204 0.02561 0.0
In13 In 0.64932 0.64763 0.01128 0.0
O14 O 0.65148 0.64037 0.03143 0.0
O15 O 0.63619 0.6257 0.01864 0.0
C16 C 0.67267 0.6528 0.99937 0.0
C17 C 0.65363 0.67139 0.02261 0.0
C18 C 0.62978 0.63851 0.99242 0.0
O19 O 0.66942 0.64719 0.01037 0.0
O20 O 0.66422 0.6558 0.99452 0.0
O21 O 0.63035 0.64643 0.00156 0.0
O22 O 0.63889 0.63516 0.99293 0.0
C23 C 0.64181 0.62821 0.02977 0.0
O24 O 0.64283 0.66006 0.02429 0.0
O25 O 0.66197 0.6708 0.01488 0.0
In26 In 0.34897 0.99806 0.0026 0.0
O27 O 0.35338 0.01998 0.99901 0.0
O28 O 0.33717 0.00346 0.98822 0.0
C29 C 0.36438 0.00195 0.02409 0.0
C30 C 0.36268 0.99406 0.98319 0.0
C31 C 0.32486 0.98051 0.01346 0.0
O32 O 0.36202 0.01115 0.01999 0.0
O33 O 0.3591 0.99103 0.01728 0.0
O34 O 0.33152 0.9763 0.00687 0.0
O35 O 0.33024 0.9934 0.01428 0.0
C36 C 0.34396 0.01624 0.99049 0.0
O37 O 0.34999 0.98609 0.98472 0.0
O38 O 0.36828 0.00374 0.99149 0.0
In39 In 0.99917 0.6507 0.00776 0.0
O40 O 0.01423 0.65093 0.99274 0.0
O41 O 0.99475 0.6328 0.99429 0.0
C42 C 0.0193 0.67495 0.01787 0.0
C43 C 0.97999 0.65583 0.99759 0.0
C44 C 0.9908 0.6318 0.02661 0.0
O45 O 0.01505 0.67371 0.00627 0.0
O46 O 0.01378 0.66395 0.02412 0.0
O47 O 0.98385 0.63728 0.02322 0.0
O48 O 0.00176 0.6358 0.02045 0.0
C49 C 0.00614 0.6388 0.98865 0.0
O50 O 0.98281 0.65716 0.00963 0.0
O51 O 0.98646 0.65153 0.99093 0.0
In52 In 0.35671 0.35716 0.99941 0.0
O53 O 0.35443 0.37265 0.98701 0.0
O54 O 0.37325 0.37262 0.98614 0.0
C55 C 0.33331 0.3477 0.01289 0.0
C56 C 0.35101 0.33418 0.98551 0.0
C57 C 0.37574 0.36943 0.01847 0.0
O58 O 0.33559 0.35482 0.0028 0.0
O59 O 0.34276 0.34539 0.01612 0.0
O60 O 0.37625 0.36131 0.01015 0.0
O61 O 0.36578 0.3715 0.01701 0.0
C62 C 0.36621 0.37777 0.98218 0.0
O63 O 0.35824 0.33771 0.99581 0.0
O64 O 0.34697 0.34231 0.9822 0.0
In65 In 0.65036 0.00036 0.00926 0.0
O66 O 0.65002 0.01353 0.02619 0.0
O67 O 0.63128 0.99561 0.02067 0.0
C68 C 0.67523 0.01823 0.99954 0.0
C69 C 0.65482 0.98216 0.02205 0.0
C70 C 0.63361 0.99432 0.98832 0.0
O71 O 0.66742 0.02216 0.00423 0.0
O72 O 0.67056 0.00546 0.9999 0.0
O73 O 0.63596 0.98552 0.9934 0.0
O74 O 0.63966 0.00602 0.99381 0.0
C75 C 0.63736 0.00593 0.02826 0.0
O76 O 0.6503 0.98 0.01044 0.0
O77 O 0.65687 0.99332 0.02714 0.0
In78 In 0.66604 0.67967 0.34016 0.0
O79 O 0.65089 0.67701 0.35627 0.0
O80 O 0.66759 0.697 0.35311 0.0
C81 C 0.65009 0.65649 0.32616 0.0
C82 C 0.68437 0.67452 0.35207 0.0
C83 C 0.67361 0.69805 0.32084 0.0
O84 O 0.64528 0.66308 0.332 0.0
O85 O 0.66283 0.66146 0.3276 0.0
O86 O 0.68198 0.69849 0.32932 0.0
O87 O 0.66145 0.68845 0.32219 0.0
C88 C 0.65705 0.68955 0.3596 0.0
O89 O 0.68756 0.68305 0.34301 0.0
O90 O 0.67191 0.6686 0.35518 0.0
In91 In 0.3163 0.98182 0.3495 0.0
O92 O 0.31444 0.97536 0.37083 0.0
O93 O 0.30297 0.95982 0.35671 0.0
C94 C 0.33907 0.98447 0.33821 0.0
C95 C 0.3225 0.00684 0.35921 0.0
C96 C 0.29733 0.97333 0.33011 0.0
O97 O 0.33261 0.97559 0.34674 0.0
O98 O 0.33419 0.99211 0.33559 0.0
O99 O 0.29533 0.97688 0.34125 0.0
O100 O 0.30881 0.97413 0.32882 0.0
C101 C 0.30608 0.96283 0.36858 0.0
O102 O 0.31195 0.99953 0.35229 0.0
O103 O 0.32992 0.00156 0.36117 0.0
In104 In 0.02269 0.3321 0.33807 0.0
O105 O 0.03248 0.35381 0.33 0.0
O106 O 0.01132 0.34029 0.32607 0.0
C107 C 0.03917 0.33991 0.35937 0.0
C108 C 0.03124 0.32152 0.31891 0.0
C109 C 0.99891 0.31589 0.35028 0.0
O110 O 0.0363 0.34796 0.35349 0.0
O111 O 0.03386 0.32796 0.35441 0.0
O112 O 0.0051 0.31105 0.34386 0.0
O113 O 0.00462 0.32883 0.35037 0.0
C114 C 0.02162 0.35206 0.32462 0.0
O115 O 0.01891 0.31849 0.31996 0.0
O116 O 0.03917 0.32966 0.32763 0.0
In117 In 0.66587 0.9752 0.34015 0.0
O118 O 0.68291 0.97306 0.33035 0.0
O119 O 0.66258 0.96062 0.32311 0.0
C120 C 0.68209 0.99946 0.35275 0.0
C121 C 0.64831 0.98054 0.32689 0.0
C122 C 0.65681 0.9566 0.35934 0.0
O123 O 0.68433 0.99711 0.34124 0.0
O124 O 0.67187 0.98957 0.35791 0.0
O125 O 0.64978 0.96147 0.35467 0.0
O126 O 0.66841 0.96102 0.35424 0.0
C127 C 0.67502 0.96407 0.32212 0.0
O128 O 0.64429 0.97046 0.33439 0.0
O129 O 0.66113 0.98789 0.3261 0.0
In130 In 0.02265 0.69441 0.34035 0.0
O131 O 0.0245 0.71309 0.32983 0.0
O132 O 0.03804 0.70589 0.3245 0.0
C133 C 0.99849 0.68618 0.35223 0.0
C134 C 0.01556 0.67106 0.32668 0.0
C135 C 0.04205 0.70518 0.35937 0.0
O136 O 0.00237 0.69429 0.34275 0.0
O137 O 0.00679 0.68237 0.35567 0.0
O138 O 0.04103 0.696 0.35148 0.0
O139 O 0.03341 0.70902 0.35756 0.0
C140 C 0.03414 0.71448 0.32261 0.0
O141 O 0.02143 0.67357 0.3377 0.0
O142 O 0.01331 0.68029 0.32258 0.0
In143 In 0.31465 0.33826 0.34031 0.0
O144 O 0.30783 0.31745 0.34992 0.0
O145 O 0.32912 0.33142 0.34809 0.0
C146 C 0.29513 0.32864 0.32145 0.0
C147 C 0.30773 0.34945 0.36039 0.0
C148 C 0.33668 0.35443 0.3258 0.0
O149 O 0.29717 0.32072 0.32859 0.0
O150 O 0.30282 0.34129 0.32397 0.0
O151 O 0.33271 0.35927 0.33487 0.0
O152 O 0.32948 0.3416 0.32406 0.0
C153 C 0.31991 0.31992 0.352 0.0
O154 O 0.31916 0.35005 0.35982 0.0
O155 O 0.29992 0.34349 0.35075 0.0
In156 In 0.33637 0.02433 0.67416 0.0
O157 O 0.35774 0.03187 0.68276 0.0
O158 O 0.34229 0.01119 0.68614 0.0
C159 C 0.34454 0.04229 0.65436 0.0
C160 C 0.32651 0.03217 0.69442 0.0
C161 C 0.31948 0.00088 0.66091 0.0
O162 O 0.35057 0.03578 0.65726 0.0
O163 O 0.3346 0.03989 0.66154 0.0
O164 O 0.31547 0.00873 0.66545 0.0
O165 O 0.33195 0.00483 0.6631 0.0
C166 C 0.35455 0.02056 0.688 0.0
O167 O 0.31931 0.02098 0.68824 0.0
O168 O 0.33854 0.03936 0.69031 0.0
In169 In 0.9825 0.31334 0.67532 0.0
O170 O 0.97553 0.32903 0.67826 0.0
O171 O 0.99146 0.33062 0.69064 0.0
C172 C 0.96587 0.30404 0.65403 0.0
C173 C 0.97278 0.29545 0.69511 0.0
C174 C 0.00681 0.31933 0.66486 0.0
O175 O 0.97449 0.31658 0.65597 0.0
O176 O 0.96563 0.29618 0.66282 0.0
O177 O 0.99722 0.30714 0.66624 0.0
O178 O 0.00421 0.32838 0.66896 0.0
C179 C 0.98381 0.33536 0.68755 0.0
O180 O 0.98476 0.3001 0.69086 0.0
O181 O 0.96576 0.29969 0.68929 0.0
In182 In 0.68504 0.66641 0.67142 0.0
O183 O 0.67612 0.68074 0.67149 0.0
O184 O 0.69087 0.68395 0.65719 0.0
C185 C 0.70353 0.679 0.69106 0.0
C186 C 0.69198 0.6539 0.65271 0.0
C187 C 0.66134 0.64525 0.68014 0.0
O188 O 0.707 0.67939 0.67934 0.0
O189 O 0.69079 0.67255 0.69281 0.0
O190 O 0.67292 0.64703 0.68345 0.0
O191 O 0.66173 0.65384 0.67211 0.0
C192 C 0.68278 0.68754 0.6618 0.0
O193 O 0.68304 0.65734 0.65093 0.0
O194 O 0.69713 0.65638 0.66406 0.0
In195 In 0.33538 0.31111 0.67234 0.0
O196 O 0.35178 0.3134 0.65798 0.0
O197 O 0.33334 0.29412 0.65849 0.0
C198 C 0.35523 0.33487 0.6834 0.0
C199 C 0.31681 0.31669 0.66153 0.0
C200 C 0.324 0.29227 0.69124 0.0
O201 O 0.34987 0.33438 0.67246 0.0
O202 O 0.35099 0.32333 0.68854 0.0
O203 O 0.31832 0.29859 0.68668 0.0
O204 O 0.33526 0.29526 0.6861 0.0
C205 C 0.34492 0.30129 0.65342 0.0
O206 O 0.32061 0.31944 0.6733 0.0
O207 O 0.32204 0.31073 0.65532 0.0
In208 In 0.69314 0.02745 0.66736 0.0
O209 O 0.69042 0.04114 0.65287 0.0
O210 O 0.71014 0.04318 0.65456 0.0
C211 C 0.66929 0.02101 0.67893 0.0
C212 C 0.68662 0.00381 0.65441 0.0
C213 C 0.71186 0.03686 0.68709 0.0
O214 O 0.67728 0.03288 0.67471 0.0
O215 O 0.67329 0.01246 0.67721 0.0
O216 O 0.71281 0.03051 0.67728 0.0
O217 O 0.70164 0.03857 0.68683 0.0
C218 C 0.70264 0.04703 0.64903 0.0
O219 O 0.69075 0.006 0.66613 0.0
O220 O 0.68609 0.01363 0.64919 0.0
In221 In 0.97541 0.66599 0.6777 0.0
O222 O 0.96819 0.64387 0.68375 0.0
O223 O 0.986 0.65995 0.69304 0.0
C224 C 0.95829 0.65798 0.65684 0.0
C225 C 0.96597 0.67592 0.69658 0.0
C226 C 0.99922 0.68216 0.66533 0.0
O227 O 0.96337 0.65099 0.6611 0.0
O228 O 0.96174 0.66896 0.66317 0.0
O229 O 0.99251 0.68696 0.67088 0.0
O230 O 0.99395 0.66933 0.66609 0.0
C231 C 0.97775 0.64722 0.692 0.0
O232 O 0.97857 0.68084 0.69449 0.0
O233 O 0.9581 0.66608 0.68907 0.0
C234 C 0.21145 0.28072 0.09874 0.0
C235 C 0.21194 0.29248 0.09085 0.0
C236 C 0.20203 0.30299 0.10508 0.0
C237 C 0.20483 0.31504 0.1118 0.0
C238 C 0.19447 0.3161 0.11831 0.0
C239 C 0.18102 0.30466 0.11833 0.0
C240 C 0.1781 0.2924 0.1116 0.0
C241 C 0.18858 0.29175 0.10491 0.0
C242 C 0.19791 0.32938 0.12526 0.0
C243 C 0.16392 0.27993 0.11155 0.0
C244 C 0.10093 0.31555 0.07271 0.0
C245 C 0.10995 0.31118 0.07923 0.0
C246 C 0.12359 0.31535 0.09909 0.0
C247 C 0.1231 0.30261 0.09892 0.0
C248 C 0.13128 0.30005 0.10749 0.0
C249 C 0.14057 0.31063 0.11609 0.0
C250 C 0.14118 0.32354 0.11622 0.0
C251 C 0.13243 0.3256 0.10791 0.0
C252 C 0.13011 0.28607 0.10706 0.0
C253 C 0.15122 0.33524 0.12494 0.0
C254 C 0.10773 0.2971 0.19791 0.0
C255 C 0.10608 0.285 0.19196 0.0
C256 C 0.1171 0.28488 0.18578 0.0
C257 C 0.12998 0.29709 0.18547 0.0
C258 C 0.13172 0.30923 0.19155 0.0
C259 C 0.12055 0.30906 0.1977 0.0
C260 C 0.11495 0.27174 0.17942 0.0
C261 C 0.14532 0.32242 0.1914 0.0
C262 C 0.21694 0.28099 0.19684 0.0
C263 C 0.21213 0.28931 0.2049 0.0
C264 C 0.18905 0.28515 0.20033 0.0
C265 C 0.17664 0.27454 0.19533 0.0
C266 C 0.16738 0.27738 0.18879 0.0
C267 C 0.17059 0.29119 0.18744 0.0
C268 C 0.18279 0.30194 0.19315 0.0
C269 C 0.19189 0.2988 0.19958 0.0
C270 C 0.15437 0.26567 0.18299 0.0
C271 C 0.18632 0.31674 0.1922 0.0
C272 C 0.17001 0.3054 0.12552 0.0
C273 C 0.16112 0.30828 0.11849 0.0
C274 C 0.15002 0.30831 0.12447 0.0
C275 C 0.14778 0.30554 0.13794 0.0
C276 C 0.13659 0.3052 0.14427 0.0
C277 C 0.13458 0.3026 0.15754 0.0
C278 C 0.14354 0.3 0.16498 0.0
C279 C 0.14154 0.29726 0.17846 0.0
C280 C 0.15054 0.29454 0.18553 0.0
C281 C 0.16155 0.29442 0.17947 0.0
C282 C 0.16374 0.29716 0.166 0.0
C283 C 0.17465 0.29701 0.15958 0.0
C284 C 0.17671 0.29969 0.14634 0.0
C285 C 0.168 0.30269 0.139 0.0
C286 C 0.15688 0.30283 0.14524 0.0
C287 C 0.15474 0.30003 0.15875 0.0
C288 C 0.07576 0.28549 0.19275 0.0
C289 C 0.08393 0.28733 0.20541 0.0
O290 O 0.21261 0.30267 0.0991 0.0
O291 O 0.19798 0.28184 0.20585 0.0
O292 O 0.09731 0.29784 0.20376 0.0
O293 O 0.11578 0.31813 0.09089 0.0
H294 H 0.20256 0.28825 0.08458 0.0
H295 H 0.20197 0.27556 0.10454 0.0
H296 H 0.22033 0.28461 0.1056 0.0
H297 H 0.21155 0.2729 0.09207 0.0
H298 H 0.21521 0.32368 0.11188 0.0
H299 H 0.18613 0.28235 0.09972 0.0
H300 H 0.19079 0.33291 0.12201 0.0
H301 H 0.2086 0.33764 0.1235 0.0
H302 H 0.19658 0.32764 0.13591 0.0
H303 H 0.16365 0.27074 0.10709 0.0
H304 H 0.15686 0.28219 0.10593 0.0
H305 H 0.16003 0.27748 0.12165 0.0
H306 H 0.11754 0.31051 0.07279 0.0
H307 H 0.08151 0.29782 0.07299 0.0
H308 H 0.10628 0.32042 0.06339 0.0
H309 H 0.10319 0.32556 0.07752 0.0
H310 H 0.1163 0.29453 0.09219 0.0
H311 H 0.13275 0.3354 0.108 0.0
H312 H 0.13854 0.28665 0.10109 0.0
H313 H 0.12025 0.27815 0.10257 0.0
H314 H 0.13102 0.28272 0.11698 0.0
H315 H 0.15177 0.34511 0.12252 0.0
H316 H 0.16161 0.33652 0.12413 0.0
H317 H 0.14806 0.33289 0.13524 0.0
H318 H 0.0837 0.27755 0.20757 0.0
H319 H 0.09624 0.27565 0.19192 0.0
H320 H 0.12174 0.31834 0.2023 0.0
H321 H 0.11668 0.27324 0.16878 0.0
H322 H 0.10447 0.26296 0.18096 0.0
H323 H 0.12252 0.2691 0.18339 0.0
H324 H 0.14502 0.33099 0.19662 0.0
H325 H 0.14839 0.32546 0.18117 0.0
H326 H 0.15333 0.32081 0.19603 0.0
H327 H 0.21552 0.299 0.19952 0.0
H328 H 0.22829 0.28667 0.19618 0.0
H329 H 0.21257 0.27929 0.1868 0.0
H330 H 0.21354 0.2708 0.2012 0.0
H331 H 0.17442 0.26402 0.1962 0.0
H332 H 0.20118 0.30702 0.20402 0.0
H333 H 0.15424 0.26682 0.17226 0.0
H334 H 0.14538 0.26596 0.18696 0.0
H335 H 0.15327 0.25548 0.18506 0.0
H336 H 0.19575 0.32383 0.19785 0.0
H337 H 0.1777 0.31791 0.19584 0.0
H338 H 0.18786 0.31981 0.18183 0.0
H339 H 0.1627 0.31026 0.10814 0.0
H340 H 0.12928 0.30699 0.13904 0.0
H341 H 0.12585 0.30259 0.16189 0.0
H342 H 0.14891 0.29242 0.19585 0.0
H343 H 0.18172 0.2948 0.16472 0.0
H344 H 0.18526 0.29938 0.14194 0.0
H345 H 0.07407 0.29433 0.1914 0.0
H346 H 0.06576 0.27576 0.19286 0.0
H347 H 0.08139 0.28485 0.18418 0.0
C348 C 0.72227 0.92379 0.10265 0.0
C349 C 0.70963 0.91229 0.09551 0.0
C350 C 0.69958 0.89284 0.11058 0.0
C351 C 0.68795 0.88449 0.11782 0.0
C352 C 0.68675 0.8732 0.12461 0.0
C353 C 0.69769 0.87044 0.12443 0.0
C354 C 0.70951 0.87882 0.1171 0.0
C355 C 0.71028 0.88984 0.11012 0.0
C356 C 0.67383 0.86427 0.13203 0.0
C357 C 0.7214 0.8762 0.11672 0.0
C358 C 0.68966 0.77466 0.08803 0.0
C359 C 0.69515 0.78801 0.09519 0.0
C360 C 0.68739 0.80146 0.10761 0.0
C361 C 0.70061 0.81161 0.11173 0.0
C362 C 0.70257 0.82274 0.11963 0.0
C363 C 0.69107 0.82364 0.1237 0.0
C364 C 0.67775 0.81336 0.11973 0.0
C365 C 0.6761 0.80242 0.11168 0.0
C366 C 0.71695 0.83361 0.12355 0.0
C367 C 0.66528 0.81399 0.12396 0.0
C368 C 0.70358 0.80607 0.20596 0.0
C369 C 0.71583 0.81663 0.2008 0.0
C370 C 0.71613 0.8278 0.19453 0.0
C371 C 0.70398 0.82848 0.19344 0.0
C372 C 0.6917 0.81803 0.19882 0.0
C373 C 0.69167 0.80693 0.20497 0.0
C374 C 0.72939 0.83878 0.18886 0.0
C375 C 0.67858 0.81849 0.19787 0.0
C376 C 0.7278 0.93629 0.20116 0.0
C377 C 0.71865 0.92267 0.20791 0.0
C378 C 0.72122 0.90248 0.20476 0.0
C379 C 0.73094 0.89914 0.20047 0.0
C380 C 0.72692 0.8862 0.19485 0.0
C381 C 0.71282 0.87631 0.19374 0.0
C382 C 0.70297 0.87932 0.19887 0.0
C383 C 0.70728 0.89239 0.20436 0.0
C384 C 0.73771 0.88326 0.18967 0.0
C385 C 0.68788 0.86886 0.19817 0.0
C386 C 0.69686 0.85889 0.13201 0.0
C387 C 0.69364 0.84673 0.12529 0.0
C388 C 0.69312 0.83561 0.13174 0.0
C389 C 0.69547 0.83642 0.14536 0.0
C390 C 0.6947 0.8253 0.1522 0.0
C391 C 0.69741 0.82634 0.16555 0.0
C392 C 0.70096 0.83854 0.17258 0.0
C393 C 0.704 0.83979 0.18611 0.0
C394 C 0.70759 0.85209 0.19279 0.0
C395 C 0.70836 0.86331 0.18628 0.0
C396 C 0.70538 0.86225 0.17275 0.0
C397 C 0.70621 0.8734 0.16587 0.0
C398 C 0.70342 0.87233 0.15255 0.0
C399 C 0.69965 0.86006 0.14557 0.0
C400 C 0.69883 0.84873 0.15229 0.0
C401 C 0.70165 0.84982 0.1659 0.0
C402 C 0.71629 0.78615 0.20226 0.0
C403 C 0.71317 0.79216 0.2144 0.0
O404 O 0.70005 0.90369 0.10438 0.0
O405 O 0.72567 0.91553 0.2091 0.0
O406 O 0.70266 0.79483 0.21177 0.0
O407 O 0.68514 0.79068 0.09972 0.0
H408 H 0.71286 0.90632 0.0892 0.0
H409 H 0.72745 0.91947 0.10855 0.0
H410 H 0.71935 0.92975 0.1093 0.0
H411 H 0.72974 0.9309 0.09548 0.0
H412 H 0.67972 0.88684 0.11807 0.0
H413 H 0.71934 0.89612 0.10452 0.0
H414 H 0.6699 0.85326 0.12957 0.0
H415 H 0.66566 0.86678 0.1299 0.0
H416 H 0.67613 0.86571 0.14265 0.0
H417 H 0.73041 0.88448 0.11171 0.0
H418 H 0.71819 0.86632 0.1115 0.0
H419 H 0.72453 0.8753 0.12678 0.0
H420 H 0.70366 0.79694 0.09019 0.0
H421 H 0.69341 0.77747 0.07776 0.0
H422 H 0.67866 0.7712 0.08543 0.0
H423 H 0.69536 0.76325 0.09995 0.0
H424 H 0.70948 0.81101 0.10875 0.0
H425 H 0.66594 0.79453 0.10851 0.0
H426 H 0.71824 0.83363 0.13429 0.0
H427 H 0.71878 0.84394 0.12088 0.0
H428 H 0.72485 0.83191 0.11885 0.0
H429 H 0.65558 0.8047 0.12083 0.0
H430 H 0.66555 0.82317 0.11974 0.0
H431 H 0.66537 0.8151 0.13474 0.0
H432 H 0.7226 0.80183 0.21743 0.0
H433 H 0.72517 0.81619 0.20144 0.0
H434 H 0.68227 0.79877 0.20898 0.0
H435 H 0.72804 0.83949 0.17822 0.0
H436 H 0.73796 0.83673 0.19044 0.0
H437 H 0.73223 0.84891 0.19337 0.0
H438 H 0.67007 0.80997 0.20319 0.0
H439 H 0.67548 0.81781 0.18746 0.0
H440 H 0.68023 0.82844 0.20188 0.0
H441 H 0.70946 0.91696 0.20143 0.0
H442 H 0.72245 0.9423 0.20032 0.0
H443 H 0.73022 0.93424 0.19119 0.0
H444 H 0.73759 0.94253 0.20665 0.0
H445 H 0.74169 0.90692 0.20107 0.0
H446 H 0.69974 0.89471 0.20824 0.0
H447 H 0.73611 0.88107 0.17901 0.0
H448 H 0.73675 0.87399 0.19437 0.0
H449 H 0.74826 0.89199 0.19143 0.0
H450 H 0.68162 0.87232 0.2036 0.0
H451 H 0.68603 0.85895 0.2022 0.0
H452 H 0.6844 0.86693 0.18782 0.0
H453 H 0.69183 0.84604 0.11483 0.0
H454 H 0.69204 0.81567 0.1473 0.0
H455 H 0.69673 0.81746 0.17028 0.0
H456 H 0.71002 0.85302 0.20314 0.0
H457 H 0.70908 0.88311 0.17069 0.0
H458 H 0.70431 0.88127 0.14779 0.0
H459 H 0.70698 0.77667 0.19872 0.0
H460 H 0.72444 0.78365 0.20453 0.0
H461 H 0.71995 0.79368 0.19427 0.0
C462 C 0.19279 0.89529 0.0784 0.0
C463 C 0.20359 0.90397 0.08887 0.0
C464 C 0.19377 0.88877 0.10762 0.0
C465 C 0.18313 0.89159 0.10995 0.0
C466 C 0.17257 0.8836 0.11856 0.0
C467 C 0.1726 0.87254 0.12496 0.0
C468 C 0.18356 0.87002 0.12306 0.0
C469 C 0.19407 0.87825 0.11448 0.0
C470 C 0.16115 0.88673 0.12055 0.0
C471 C 0.18394 0.85836 0.12981 0.0
C472 C 0.07362 0.80011 0.10134 0.0
C473 C 0.08541 0.80007 0.09399 0.0
C474 C 0.10498 0.8105 0.1095 0.0
C475 C 0.11379 0.80788 0.11698 0.0
C476 C 0.12458 0.81835 0.12433 0.0
C477 C 0.12639 0.83175 0.12443 0.0
C478 C 0.11752 0.83451 0.11689 0.0
C479 C 0.10699 0.8239 0.1094 0.0
C480 C 0.13404 0.81509 0.13199 0.0
C481 C 0.11916 0.84869 0.11674 0.0
C482 C 0.09601 0.82144 0.2055 0.0
C483 C 0.10653 0.81824 0.20446 0.0
C484 C 0.11904 0.82745 0.19871 0.0
C485 C 0.12106 0.84011 0.19399 0.0
C486 C 0.11073 0.84362 0.19563 0.0
C487 C 0.09837 0.83426 0.20148 0.0
C488 C 0.12999 0.82356 0.19742 0.0
C489 C 0.11263 0.85711 0.19087 0.0
C490 C 0.207 0.93476 0.21152 0.0
C491 C 0.20129 0.92378 0.22208 0.0
C492 C 0.18923 0.9016 0.21009 0.0
C493 C 0.18937 0.88947 0.20728 0.0
C494 C 0.17881 0.87877 0.19989 0.0
C495 C 0.16793 0.88035 0.19504 0.0
C496 C 0.16772 0.89262 0.19777 0.0
C497 C 0.17832 0.90308 0.20533 0.0
C498 C 0.17929 0.86577 0.19728 0.0
C499 C 0.15629 0.89466 0.19269 0.0
C500 C 0.16057 0.86294 0.13268 0.0
C501 C 0.14961 0.85209 0.12593 0.0
C502 C 0.13764 0.84291 0.13232 0.0
C503 C 0.13651 0.84451 0.14587 0.0
C504 C 0.1245 0.83563 0.15256 0.0
C505 C 0.12353 0.83718 0.16591 0.0
C506 C 0.13452 0.84771 0.17311 0.0
C507 C 0.13364 0.84933 0.1867 0.0
C508 C 0.14471 0.85995 0.19355 0.0
C509 C 0.1567 0.86917 0.18715 0.0
C510 C 0.15777 0.86775 0.17354 0.0
C511 C 0.16961 0.87692 0.16676 0.0
C512 C 0.17056 0.87539 0.15338 0.0
C513 C 0.15972 0.86463 0.14627 0.0
C514 C 0.14765 0.85533 0.15289 0.0
C515 C 0.14666 0.85692 0.16653 0.0
C516 C 0.06299 0.79327 0.20221 0.0
C517 C 0.07681 0.79828 0.20908 0.0
O518 O 0.20373 0.89566 0.09871 0.0
O519 O 0.19983 0.91152 0.21731 0.0
O520 O 0.08352 0.81249 0.21034 0.0
O521 O 0.09471 0.79978 0.1027 0.0
H522 H 0.20124 0.91171 0.09308 0.0
H523 H 0.18236 0.89015 0.08256 0.0
H524 H 0.19477 0.88726 0.07429 0.0
H525 H 0.19296 0.90193 0.07037 0.0
H526 H 0.18283 0.89985 0.10495 0.0
H527 H 0.20238 0.87622 0.11275 0.0
H528 H 0.15147 0.87818 0.11638 0.0
H529 H 0.16325 0.89643 0.11584 0.0
H530 H 0.15957 0.88753 0.13113 0.0
H531 H 0.19343 0.85804 0.12767 0.0
H532 H 0.17495 0.84843 0.12663 0.0
H533 H 0.18325 0.85939 0.14052 0.0
H534 H 0.09064 0.80943 0.08795 0.0
H535 H 0.06606 0.80007 0.0943 0.0
H536 H 0.07748 0.80944 0.10765 0.0
H537 H 0.06835 0.79096 0.10761 0.0
H538 H 0.11221 0.79754 0.11697 0.0
H539 H 0.10035 0.82618 0.10361 0.0
H540 H 0.13262 0.81599 0.14258 0.0
H541 H 0.14489 0.82259 0.12977 0.0
H542 H 0.13211 0.80455 0.12984 0.0
H543 H 0.1105 0.84881 0.11164 0.0
H544 H 0.12878 0.8558 0.11171 0.0
H545 H 0.11996 0.85269 0.12686 0.0
H546 H 0.08259 0.79491 0.20274 0.0
H547 H 0.10501 0.80859 0.20813 0.0
H548 H 0.09029 0.83673 0.20256 0.0
H549 H 0.13166 0.82238 0.18694 0.0
H550 H 0.12723 0.81379 0.20238 0.0
H551 H 0.13983 0.83187 0.2016 0.0
H552 H 0.10361 0.85831 0.19289 0.0
H553 H 0.11441 0.85785 0.1802 0.0
H554 H 0.12181 0.86575 0.19567 0.0
H555 H 0.19117 0.9222 0.22519 0.0
H556 H 0.20844 0.94466 0.21547 0.0
H557 H 0.19982 0.93159 0.20307 0.0
H558 H 0.21699 0.93638 0.20798 0.0
H559 H 0.19781 0.88839 0.21097 0.0
H560 H 0.17799 0.91238 0.20735 0.0
H561 H 0.18016 0.86451 0.18664 0.0
H562 H 0.16962 0.85672 0.20048 0.0
H563 H 0.18805 0.86583 0.20235 0.0
H564 H 0.15809 0.90515 0.19487 0.0
H565 H 0.14649 0.88706 0.19717 0.0
H566 H 0.15511 0.89284 0.18197 0.0
H567 H 0.15036 0.85085 0.11551 0.0
H568 H 0.1157 0.82735 0.14754 0.0
H569 H 0.11404 0.83 0.17052 0.0
H570 H 0.14395 0.86113 0.20397 0.0
H571 H 0.17828 0.88539 0.17173 0.0
H572 H 0.17992 0.88273 0.14867 0.0
H573 H 0.05734 0.78187 0.2012 0.0
H574 H 0.06465 0.79766 0.1923 0.0
H575 H 0.05661 0.79653 0.20773 0.0
C576 C 0.29458 0.10514 0.93731 0.0
C577 C 0.29915 0.09956 0.92584 0.0
C578 C 0.30526 0.11778 0.90977 0.0
C579 C 0.29177 0.1144 0.9065 0.0
C580 C 0.28924 0.12288 0.89841 0.0
C581 C 0.30038 0.135 0.89349 0.0
C582 C 0.31395 0.13824 0.89646 0.0
C583 C 0.3162 0.12953 0.9045 0.0
C584 C 0.27463 0.11905 0.89531 0.0
C585 C 0.32606 0.1511 0.89137 0.0
C586 C 0.27265 0.19065 0.94483 0.0
C587 C 0.28473 0.19614 0.93553 0.0
C588 C 0.28334 0.18715 0.91356 0.0
C589 C 0.29702 0.19059 0.9119 0.0
C590 C 0.30045 0.18349 0.90271 0.0
C591 C 0.28993 0.17253 0.89528 0.0
C592 C 0.27614 0.16927 0.89678 0.0
C593 C 0.2731 0.17691 0.9057 0.0
C594 C 0.31528 0.18749 0.90118 0.0
C595 C 0.26451 0.15742 0.88939 0.0
C596 C 0.28122 0.19145 0.81233 0.0
C597 C 0.29477 0.19451 0.8146 0.0
C598 C 0.29752 0.185 0.82068 0.0
C599 C 0.2865 0.17217 0.82448 0.0
C600 C 0.27287 0.16884 0.82168 0.0
C601 C 0.27042 0.1785 0.81552 0.0
C602 C 0.31218 0.18871 0.82318 0.0
C603 C 0.26089 0.15516 0.82542 0.0
C604 C 0.28326 0.07862 0.81347 0.0
C605 C 0.28426 0.08627 0.80088 0.0
C606 C 0.29314 0.1101 0.80889 0.0
C607 C 0.3049 0.12305 0.81002 0.0
C608 C 0.30483 0.13382 0.81703 0.0
C609 C 0.29262 0.13156 0.82298 0.0
C610 C 0.28056 0.11858 0.82163 0.0
C611 C 0.28095 0.10795 0.81464 0.0
C612 C 0.31785 0.14753 0.81829 0.0
C613 C 0.26731 0.11589 0.82772 0.0
C614 C 0.29781 0.14473 0.88602 0.0
C615 C 0.29583 0.15426 0.89312 0.0
C616 C 0.29314 0.16366 0.88689 0.0
C617 C 0.29269 0.16379 0.87311 0.0
C618 C 0.29056 0.17345 0.86649 0.0
C619 C 0.28953 0.1731 0.85294 0.0
C620 C 0.29063 0.1631 0.8455 0.0
C621 C 0.28922 0.16242 0.83175 0.0
C622 C 0.29012 0.15219 0.82468 0.0
C623 C 0.29251 0.1426 0.83098 0.0
C624 C 0.29423 0.14329 0.84469 0.0
C625 C 0.29692 0.13398 0.85131 0.0
C626 C 0.29825 0.13451 0.86483 0.0
C627 C 0.29686 0.14433 0.87226 0.0
C628 C 0.2943 0.15392 0.86579 0.0
C629 C 0.29313 0.15348 0.85198 0.0
C630 C 0.2767 0.21783 0.81913 0.0
C631 C 0.28494 0.21464 0.80927 0.0
O632 O 0.30822 0.11023 0.91807 0.0
O633 O 0.29412 0.10005 0.80228 0.0
O634 O 0.27818 0.20057 0.80685 0.0
O635 O 0.27971 0.19339 0.92282 0.0
H636 H 0.29002 0.09224 0.91992 0.0
H637 H 0.289 0.11028 0.93375 0.0
H638 H 0.30359 0.11273 0.9432 0.0
H639 H 0.28759 0.0966 0.94368 0.0
H640 H 0.28313 0.10528 0.91032 0.0
H641 H 0.32656 0.13203 0.90699 0.0
H642 H 0.27247 0.12682 0.89974 0.0
H643 H 0.26711 0.10877 0.89903 0.0
H644 H 0.27314 0.11908 0.8846 0.0
H645 H 0.33599 0.15207 0.8944 0.0
H646 H 0.32572 0.16027 0.895 0.0
H647 H 0.32552 0.15106 0.88055 0.0
H648 H 0.2904 0.1906 0.93768 0.0
H649 H 0.27635 0.19246 0.95513 0.0
H650 H 0.26592 0.17941 0.94319 0.0
H651 H 0.26651 0.19576 0.94318 0.0
H652 H 0.30498 0.1988 0.91781 0.0
H653 H 0.26259 0.17446 0.90703 0.0
H654 H 0.3178 0.18773 0.89069 0.0
H655 H 0.31712 0.17972 0.90591 0.0
H656 H 0.32232 0.1977 0.90573 0.0
H657 H 0.25434 0.15492 0.89322 0.0
H658 H 0.26551 0.14809 0.8899 0.0
H659 H 0.26485 0.16009 0.87897 0.0
H660 H 0.29513 0.21834 0.81396 0.0
H661 H 0.30323 0.20421 0.81152 0.0
H662 H 0.26001 0.17613 0.81348 0.0
H663 H 0.31412 0.18911 0.83385 0.0
H664 H 0.31961 0.19879 0.81903 0.0
H665 H 0.31402 0.18066 0.8189 0.0
H666 H 0.2509 0.15416 0.82262 0.0
H667 H 0.26109 0.15385 0.83612 0.0
H668 H 0.26173 0.14671 0.82061 0.0
H669 H 0.27415 0.08527 0.79855 0.0
H670 H 0.27549 0.06755 0.81228 0.0
H671 H 0.28011 0.08288 0.8217 0.0
H672 H 0.29331 0.07961 0.81601 0.0
H673 H 0.31424 0.12463 0.80552 0.0
H674 H 0.2717 0.09804 0.81384 0.0
H675 H 0.32063 0.15018 0.82875 0.0
H676 H 0.3162 0.15567 0.81411 0.0
H677 H 0.32657 0.14758 0.81323 0.0
H678 H 0.2586 0.10558 0.82498 0.0
H679 H 0.2648 0.12384 0.82468 0.0
H680 H 0.2685 0.11658 0.8385 0.0
H681 H 0.29613 0.15417 0.9037 0.0
H682 H 0.28958 0.18134 0.87172 0.0
H683 H 0.28773 0.18071 0.84838 0.0
H684 H 0.28881 0.15159 0.81416 0.0
H685 H 0.29799 0.12613 0.84611 0.0
H686 H 0.30024 0.12705 0.86941 0.0
H687 H 0.26601 0.21379 0.81556 0.0
H688 H 0.28166 0.22908 0.82104 0.0
H689 H 0.27628 0.2128 0.82851 0.0
C690 C 0.81361 0.1056 0.94301 0.0
C691 C 0.80184 0.10263 0.93355 0.0
C692 C 0.80979 0.10362 0.91158 0.0
C693 C 0.80639 0.11271 0.90566 0.0
C694 C 0.81447 0.12133 0.8957 0.0
C695 C 0.82618 0.12083 0.89163 0.0
C696 C 0.82906 0.11097 0.89698 0.0
C697 C 0.82068 0.10234 0.90682 0.0
C698 C 0.81089 0.13146 0.88997 0.0
C699 C 0.84143 0.11012 0.89284 0.0
C700 C 0.88939 0.1866 0.93778 0.0
C701 C 0.8988 0.19712 0.92782 0.0
C702 C 0.88363 0.18822 0.90851 0.0
C703 C 0.88594 0.17729 0.90557 0.0
C704 C 0.87741 0.16682 0.8967 0.0
C705 C 0.86625 0.16719 0.89075 0.0
C706 C 0.86419 0.17842 0.89329 0.0
C707 C 0.87304 0.18889 0.90204 0.0
C708 C 0.88003 0.1551 0.89404 0.0
C709 C 0.85236 0.17908 0.88713 0.0
C710 C 0.89006 0.18434 0.80688 0.0
C711 C 0.89345 0.17568 0.81377 0.0
C712 C 0.88337 0.16424 0.82037 0.0
C713 C 0.86971 0.16159 0.82036 0.0
C714 C 0.86622 0.17013 0.81323 0.0
C715 C 0.87644 0.18131 0.80647 0.0
C716 C 0.88738 0.15509 0.82752 0.0
C717 C 0.85176 0.16761 0.81298 0.0
C718 C 0.78809 0.05254 0.80842 0.0
C719 C 0.79233 0.06722 0.80451 0.0
C720 C 0.81451 0.08768 0.80948 0.0
C721 C 0.8278 0.09142 0.81349 0.0
C722 C 0.83635 0.10417 0.81964 0.0
C723 C 0.83153 0.11351 0.82157 0.0
C724 C 0.81832 0.11007 0.81694 0.0
C725 C 0.80991 0.09716 0.81095 0.0
C726 C 0.85043 0.10755 0.82433 0.0
C727 C 0.81305 0.11997 0.81848 0.0
C728 C 0.83644 0.13192 0.88339 0.0
C729 C 0.84588 0.14411 0.88978 0.0
C730 C 0.85603 0.15513 0.88295 0.0
C731 C 0.8567 0.15413 0.86926 0.0
C732 C 0.8666 0.16513 0.86205 0.0
C733 C 0.86726 0.16398 0.84859 0.0
C734 C 0.85826 0.15167 0.84186 0.0
C735 C 0.85919 0.15025 0.82823 0.0
C736 C 0.85019 0.13781 0.82188 0.0
C737 C 0.84019 0.12668 0.82878 0.0
C738 C 0.83899 0.12796 0.84239 0.0
C739 C 0.82898 0.11701 0.84962 0.0
C740 C 0.82798 0.11833 0.86303 0.0
C741 C 0.83711 0.13056 0.86974 0.0
C742 C 0.84727 0.14174 0.86265 0.0
C743 C 0.84814 0.14048 0.84894 0.0
C744 C 0.91808 0.21015 0.81508 0.0
C745 C 0.91364 0.2024 0.80194 0.0
O746 O 0.80308 0.09646 0.92223 0.0
O747 O 0.80651 0.0749 0.80422 0.0
O748 O 0.89949 0.19571 0.80055 0.0
O749 O 0.89111 0.19808 0.91769 0.0
H750 H 0.80271 0.11273 0.93139 0.0
H751 H 0.82353 0.11303 0.9386 0.0
H752 H 0.81383 0.09605 0.94519 0.0
H753 H 0.81252 0.11019 0.95227 0.0
H754 H 0.79763 0.1133 0.9091 0.0
H755 H 0.82307 0.09512 0.91136 0.0
H756 H 0.81845 0.14199 0.89348 0.0
H757 H 0.80049 0.12925 0.89277 0.0
H758 H 0.81144 0.1313 0.87917 0.0
H759 H 0.84187 0.10146 0.89747 0.0
H760 H 0.85089 0.11986 0.89553 0.0
H761 H 0.84131 0.10882 0.88209 0.0
H762 H 0.90596 0.19392 0.92387 0.0
H763 H 0.89553 0.18604 0.94601 0.0
H764 H 0.88356 0.1762 0.93319 0.0
H765 H 0.88198 0.18949 0.94166 0.0
H766 H 0.89424 0.1767 0.91025 0.0
H767 H 0.8714 0.19741 0.90426 0.0
H768 H 0.87179 0.1456 0.89844 0.0
H769 H 0.89003 0.15714 0.89815 0.0
H770 H 0.87984 0.15316 0.88338 0.0
H771 H 0.85234 0.18866 0.88989 0.0
H772 H 0.84255 0.17012 0.89019 0.0
H773 H 0.85283 0.17849 0.87635 0.0
H774 H 0.9172 0.1948 0.80135 0.0
H775 H 0.90389 0.17774 0.8141 0.0
H776 H 0.87389 0.18797 0.80105 0.0
H777 H 0.88708 0.15666 0.83819 0.0
H778 H 0.89785 0.15729 0.82501 0.0
H779 H 0.88 0.1441 0.82521 0.0
H780 H 0.85086 0.17561 0.80753 0.0
H781 H 0.8482 0.16736 0.82309 0.0
H782 H 0.84482 0.15744 0.80833 0.0
H783 H 0.7883 0.07134 0.81215 0.0
H784 H 0.77674 0.04616 0.80882 0.0
H785 H 0.79239 0.05266 0.81823 0.0
H786 H 0.79196 0.04775 0.80134 0.0
H787 H 0.83132 0.08412 0.81212 0.0
H788 H 0.79981 0.09453 0.8074 0.0
H789 H 0.85151 0.10988 0.83497 0.0
H790 H 0.85831 0.11688 0.81937 0.0
H791 H 0.8525 0.09901 0.8224 0.0
H792 H 0.80299 0.1162 0.81349 0.0
H793 H 0.82053 0.13012 0.81448 0.0
H794 H 0.81191 0.12155 0.829 0.0
H795 H 0.84545 0.14498 0.9003 0.0
H796 H 0.8739 0.17477 0.86674 0.0
H797 H 0.87503 0.17284 0.84355 0.0
H798 H 0.85109 0.13672 0.81147 0.0
H799 H 0.82178 0.10728 0.845 0.0
H800 H 0.82007 0.1096 0.86811 0.0
H801 H 0.92941 0.21561 0.81618 0.0
H802 H 0.91366 0.20285 0.82323 0.0
H803 H 0.91454 0.21775 0.81583 0.0
C804 C 0.79532 0.66561 0.93294 0.0
C805 C 0.79403 0.67836 0.9305 0.0
C806 C 0.80391 0.68494 0.90918 0.0
C807 C 0.81441 0.69864 0.91038 0.0
C808 C 0.82591 0.70377 0.90235 0.0
C809 C 0.82701 0.69486 0.89315 0.0
C810 C 0.81627 0.68103 0.89184 0.0
C811 C 0.8047 0.67633 0.89972 0.0
C812 C 0.837 0.71862 0.9039 0.0
C813 C 0.81716 0.67109 0.88242 0.0
C814 C 0.92734 0.7292 0.91869 0.0
C815 C 0.91536 0.71643 0.92468 0.0
C816 C 0.89686 0.70711 0.90803 0.0
C817 C 0.88885 0.69572 0.89994 0.0
C818 C 0.87789 0.6948 0.89256 0.0
C819 C 0.87512 0.70577 0.89306 0.0
C820 C 0.8833 0.71743 0.9011 0.0
C821 C 0.894 0.71794 0.90861 0.0
C822 C 0.86923 0.68208 0.88429 0.0
C823 C 0.88071 0.72936 0.9018 0.0
C824 C 0.90288 0.72706 0.80974 0.0
C825 C 0.89435 0.71334 0.81324 0.0
C826 C 0.8822 0.70939 0.82005 0.0
C827 C 0.87874 0.71948 0.82369 0.0
C828 C 0.88729 0.7333 0.81996 0.0
C829 C 0.89912 0.73683 0.81281 0.0
C830 C 0.87307 0.69446 0.82332 0.0
C831 C 0.88398 0.74438 0.82352 0.0
C832 C 0.79239 0.72768 0.81176 0.0
C833 C 0.79744 0.72229 0.8005 0.0
C834 C 0.80969 0.7118 0.81089 0.0
C835 C 0.80966 0.69947 0.81262 0.0
C836 C 0.82048 0.69918 0.81919 0.0
C837 C 0.83147 0.71154 0.82439 0.0
C838 C 0.83156 0.72407 0.82273 0.0
C839 C 0.82076 0.7241 0.81591 0.0
C840 C 0.82012 0.68566 0.82067 0.0
C841 C 0.84305 0.73743 0.82827 0.0
C842 C 0.83975 0.69974 0.88555 0.0
C843 C 0.85118 0.70072 0.89198 0.0
C844 C 0.86345 0.70488 0.88547 0.0
C845 C 0.86436 0.70795 0.87206 0.0
C846 C 0.87655 0.71216 0.86519 0.0
C847 C 0.87722 0.71478 0.85191 0.0
C848 C 0.86575 0.71332 0.84498 0.0
C849 C 0.86624 0.71564 0.83141 0.0
C850 C 0.85479 0.71464 0.82496 0.0
C851 C 0.84284 0.71144 0.83169 0.0
C852 C 0.84205 0.70875 0.84519 0.0
C853 C 0.83014 0.70538 0.85224 0.0
C854 C 0.82939 0.70253 0.86548 0.0
C855 C 0.84053 0.70299 0.87218 0.0
C856 C 0.85281 0.70685 0.86536 0.0
C857 C 0.85353 0.70961 0.85183 0.0
C858 C 0.93744 0.74074 0.81046 0.0
C859 C 0.92446 0.72759 0.80593 0.0
O860 O 0.79303 0.6798 0.9172 0.0
O861 O 0.79881 0.71129 0.80449 0.0
O862 O 0.91458 0.73109 0.80304 0.0
O863 O 0.90723 0.7072 0.91496 0.0
H864 H 0.8033 0.68756 0.93461 0.0
H865 H 0.80463 0.66672 0.92816 0.0
H866 H 0.78622 0.65623 0.92891 0.0
H867 H 0.79628 0.66431 0.94354 0.0
H868 H 0.81357 0.70528 0.91761 0.0
H869 H 0.79644 0.66576 0.89889 0.0
H870 H 0.8459 0.71916 0.90912 0.0
H871 H 0.83347 0.72473 0.90957 0.0
H872 H 0.84052 0.72336 0.89422 0.0
H873 H 0.80878 0.66034 0.88378 0.0
H874 H 0.82714 0.67147 0.88362 0.0
H875 H 0.81653 0.67405 0.87227 0.0
H876 H 0.90915 0.71961 0.93063 0.0
H877 H 0.93396 0.73647 0.92652 0.0
H878 H 0.92354 0.73462 0.91248 0.0
H879 H 0.93362 0.72631 0.91256 0.0
H880 H 0.89112 0.68743 0.89955 0.0
H881 H 0.90008 0.72685 0.91481 0.0
H882 H 0.87057 0.6848 0.87383 0.0
H883 H 0.85822 0.6778 0.88654 0.0
H884 H 0.87199 0.67399 0.88585 0.0
H885 H 0.88891 0.73832 0.90729 0.0
H886 H 0.87082 0.72607 0.90669 0.0
H887 H 0.8799 0.73265 0.89182 0.0
H888 H 0.92119 0.7202 0.81409 0.0
H889 H 0.89708 0.70569 0.81043 0.0
H890 H 0.9057 0.74735 0.80983 0.0
H891 H 0.8738 0.69311 0.83393 0.0
H892 H 0.87601 0.68767 0.818 0.0
H893 H 0.86221 0.69111 0.82093 0.0
H894 H 0.89282 0.75485 0.82201 0.0
H895 H 0.88082 0.74354 0.83386 0.0
H896 H 0.87531 0.74309 0.81731 0.0
H897 H 0.80753 0.73086 0.79739 0.0
H898 H 0.79001 0.73557 0.8082 0.0
H899 H 0.80038 0.73253 0.81951 0.0
H900 H 0.78311 0.71922 0.81626 0.0
H901 H 0.80112 0.69002 0.80873 0.0
H902 H 0.82105 0.73377 0.81469 0.0
H903 H 0.81944 0.6831 0.83116 0.0
H904 H 0.82975 0.68652 0.81696 0.0
H905 H 0.81129 0.6771 0.81537 0.0
H906 H 0.84115 0.74614 0.82697 0.0
H907 H 0.85275 0.73993 0.82338 0.0
H908 H 0.84448 0.7364 0.83884 0.0
H909 H 0.8505 0.69817 0.90222 0.0
H910 H 0.88568 0.71338 0.86999 0.0
H911 H 0.88686 0.71792 0.84715 0.0
H912 H 0.85528 0.71661 0.81459 0.0
H913 H 0.82122 0.7048 0.84759 0.0
H914 H 0.81995 0.69992 0.87039 0.0
H915 H 0.94174 0.7481 0.80232 0.0
H916 H 0.94534 0.73846 0.81417 0.0
H917 H 0.93492 0.74574 0.81855 0.0
C918 C 0.85776 0.61697 0.40637 0.0
C919 C 0.86686 0.63083 0.41325 0.0
C920 C 0.85921 0.63064 0.43511 0.0
C921 C 0.86208 0.64386 0.4387 0.0
C922 C 0.85344 0.64578 0.44719 0.0
C923 C 0.84157 0.63417 0.45194 0.0
C924 C 0.83879 0.62077 0.44843 0.0
C925 C 0.84781 0.61918 0.44018 0.0
C926 C 0.85685 0.6602 0.45086 0.0
C927 C 0.82613 0.60815 0.45309 0.0
C928 C 0.77003 0.65841 0.41016 0.0
C929 C 0.78104 0.65701 0.41674 0.0
C930 C 0.78576 0.6485 0.43648 0.0
C931 C 0.78111 0.63534 0.44128 0.0
C932 C 0.78972 0.63246 0.44891 0.0
C933 C 0.80308 0.64321 0.45223 0.0
C934 C 0.80762 0.65668 0.44779 0.0
C935 C 0.79893 0.65915 0.43986 0.0
C936 C 0.78459 0.61792 0.45324 0.0
C937 C 0.82169 0.66844 0.45133 0.0
C938 C 0.77413 0.63134 0.53526 0.0
C939 C 0.77324 0.61932 0.5299 0.0
C940 C 0.7843 0.6198 0.52325 0.0
C941 C 0.7966 0.6325 0.52206 0.0
C942 C 0.79766 0.64457 0.52766 0.0
C943 C 0.78637 0.64383 0.53412 0.0
C944 C 0.78279 0.60673 0.51735 0.0
C945 C 0.81067 0.65825 0.52664 0.0
C946 C 0.8805 0.61357 0.5282 0.0
C947 C 0.87829 0.62277 0.53787 0.0
C948 C 0.85563 0.62022 0.53474 0.0
C949 C 0.84253 0.60972 0.53113 0.0
C950 C 0.83326 0.61266 0.52477 0.0
C951 C 0.83714 0.62649 0.52226 0.0
C952 C 0.85013 0.63721 0.52654 0.0
C953 C 0.85926 0.63396 0.53274 0.0
C954 C 0.81941 0.60097 0.52054 0.0
C955 C 0.85443 0.65208 0.52437 0.0
C956 C 0.83162 0.63603 0.45989 0.0
C957 C 0.8224 0.63879 0.4533 0.0
C958 C 0.81247 0.64031 0.46 0.0
C959 C 0.81157 0.63893 0.4737 0.0
C960 C 0.80165 0.64029 0.48074 0.0
C961 C 0.8005 0.63839 0.49415 0.0
C962 C 0.80945 0.63536 0.50108 0.0
C963 C 0.80817 0.63311 0.51467 0.0
C964 C 0.81743 0.63044 0.52131 0.0
C965 C 0.82785 0.62969 0.5147 0.0
C966 C 0.82908 0.63158 0.50105 0.0
C967 C 0.83924 0.63056 0.49404 0.0
C968 C 0.8402 0.63217 0.48059 0.0
C969 C 0.83099 0.63477 0.47361 0.0
C970 C 0.82083 0.63608 0.48051 0.0
C971 C 0.81984 0.63442 0.49424 0.0
C972 C 0.7415 0.61606 0.53168 0.0
C973 C 0.75073 0.62027 0.54396 0.0
O974 O 0.86726 0.62884 0.42652 0.0
O975 O 0.86439 0.61672 0.5403 0.0
O976 O 0.76351 0.63144 0.54144 0.0
O977 O 0.7773 0.65069 0.42873 0.0
H978 H 0.86233 0.6375 0.4114 0.0
H979 H 0.84718 0.61223 0.41016 0.0
H980 H 0.86174 0.60984 0.4081 0.0
H981 H 0.85734 0.61837 0.3957 0.0
H982 H 0.87104 0.65264 0.43475 0.0
H983 H 0.84577 0.60901 0.43731 0.0
H984 H 0.84947 0.66253 0.44594 0.0
H985 H 0.86737 0.66799 0.44795 0.0
H986 H 0.85588 0.66112 0.46155 0.0
H987 H 0.82496 0.59853 0.44869 0.0
H988 H 0.81687 0.60882 0.45065 0.0
H989 H 0.82664 0.60757 0.46385 0.0
H990 H 0.79137 0.66642 0.41672 0.0
H991 H 0.76498 0.64546 0.39366 0.0
H992 H 0.77422 0.66981 0.40946 0.0
H993 H 0.7624 0.65688 0.41791 0.0
H994 H 0.77085 0.62724 0.43868 0.0
H995 H 0.80235 0.66945 0.43647 0.0
H996 H 0.78327 0.61739 0.46397 0.0
H997 H 0.79218 0.6147 0.4509 0.0
H998 H 0.77461 0.61051 0.44856 0.0
H999 H 0.82295 0.67855 0.44865 0.0
H1000 H 0.82951 0.66703 0.44613 0.0
H1001 H 0.8237 0.66855 0.46196 0.0
H1002 H 0.75174 0.61128 0.54677 0.0
H1003 H 0.76395 0.60952 0.53071 0.0
H1004 H 0.78703 0.65305 0.5383 0.0
H1005 H 0.78465 0.60796 0.50671 0.0
H1006 H 0.77247 0.5977 0.51891 0.0
H1007 H 0.79058 0.60463 0.52171 0.0
H1008 H 0.81006 0.66661 0.53194 0.0
H1009 H 0.8128 0.66103 0.51623 0.0
H1010 H 0.81944 0.6575 0.53065 0.0
H1011 H 0.88226 0.63284 0.53303 0.0
H1012 H 0.89154 0.61816 0.52591 0.0
H1013 H 0.87487 0.61257 0.51894 0.0
H1014 H 0.87653 0.6031 0.53215 0.0
H1015 H 0.83973 0.59917 0.53298 0.0
H1016 H 0.86914 0.64219 0.5361 0.0
H1017 H 0.81777 0.60159 0.50994 0.0
H1018 H 0.81129 0.60184 0.52578 0.0
H1019 H 0.81826 0.59076 0.52254 0.0
H1020 H 0.86436 0.65924 0.52927 0.0
H1021 H 0.84646 0.65427 0.52806 0.0
H1022 H 0.85544 0.65413 0.51376 0.0
H1023 H 0.82291 0.63968 0.44277 0.0
H1024 H 0.79453 0.64267 0.47594 0.0
H1025 H 0.79253 0.63935 0.49902 0.0
H1026 H 0.81637 0.62868 0.53173 0.0
H1027 H 0.84653 0.62843 0.49886 0.0
H1028 H 0.8482 0.63126 0.4757 0.0
H1029 H 0.74171 0.62513 0.52726 0.0
H1030 H 0.73079 0.60831 0.53409 0.0
H1031 H 0.74509 0.6114 0.52422 0.0
C1032 C 0.36352 0.224 0.39958 0.0
C1033 C 0.35722 0.22767 0.41103 0.0
C1034 C 0.36667 0.22561 0.4316 0.0
C1035 C 0.35472 0.21749 0.43863 0.0
C1036 C 0.35457 0.20886 0.44847 0.0
C1037 C 0.36664 0.20842 0.45132 0.0
C1038 C 0.37891 0.21726 0.4448 0.0
C1039 C 0.3788 0.22588 0.43507 0.0
C1040 C 0.34139 0.19985 0.45548 0.0
C1041 C 0.39199 0.21716 0.44774 0.0
C1042 C 0.34069 0.11102 0.41349 0.0
C1043 C 0.34144 0.12311 0.4204 0.0
C1044 C 0.35032 0.1369 0.44016 0.0
C1045 C 0.36336 0.14483 0.44574 0.0
C1046 C 0.36684 0.1569 0.45291 0.0
C1047 C 0.35676 0.16072 0.45502 0.0
C1048 C 0.34334 0.15231 0.4499 0.0
C1049 C 0.3403 0.14056 0.44241 0.0
C1050 C 0.38136 0.1657 0.45792 0.0
C1051 C 0.33223 0.15583 0.45215 0.0
C1052 C 0.36706 0.14821 0.53898 0.0
C1053 C 0.37846 0.15581 0.53105 0.0
C1054 C 0.37986 0.1671 0.52409 0.0
C1055 C 0.36944 0.17061 0.52476 0.0
C1056 C 0.3581 0.16318 0.53296 0.0
C1057 C 0.35718 0.15218 0.5401 0.0
C1058 C 0.39237 0.17512 0.51584 0.0
C1059 C 0.34682 0.16665 0.53394 0.0
C1060 C 0.40618 0.28167 0.53575 0.0
C1061 C 0.39411 0.26734 0.53834 0.0
C1062 C 0.39311 0.24549 0.53317 0.0
C1063 C 0.40164 0.24033 0.52963 0.0
C1064 C 0.39634 0.22743 0.52345 0.0
C1065 C 0.38206 0.21934 0.52105 0.0
C1066 C 0.37329 0.22429 0.52504 0.0
C1067 C 0.37891 0.23737 0.531 0.0
C1068 C 0.40603 0.22249 0.51942 0.0
C1069 C 0.35798 0.21572 0.52304 0.0
C1070 C 0.36596 0.19768 0.46004 0.0
C1071 C 0.36226 0.1849 0.45436 0.0
C1072 C 0.36045 0.17387 0.46191 0.0
C1073 C 0.36227 0.17557 0.4756 0.0
C1074 C 0.35987 0.16454 0.48358 0.0
C1075 C 0.36219 0.16644 0.49698 0.0
C1076 C 0.36706 0.17946 0.5029 0.0
C1077 C 0.37012 0.18163 0.51641 0.0
C1078 C 0.37463 0.19461 0.52204 0.0
C1079 C 0.37639 0.20565 0.5145 0.0
C1080 C 0.37358 0.20374 0.50092 0.0
C1081 C 0.37541 0.21463 0.49297 0.0
C1082 C 0.37276 0.21265 0.4796 0.0
C1083 C 0.36844 0.19977 0.47363 0.0
C1084 C 0.36655 0.18864 0.48144 0.0
C1085 C 0.36899 0.1906 0.49511 0.0
C1086 C 0.36542 0.12048 0.53095 0.0
C1087 C 0.37124 0.12912 0.5435 0.0
O1088 O 0.36664 0.23302 0.42127 0.0
O1089 O 0.39897 0.2582 0.53881 0.0
O1090 O 0.36512 0.13703 0.54568 0.0
O1091 O 0.34769 0.12581 0.43263 0.0
H1092 H 0.34793 0.21796 0.41385 0.0
H1093 H 0.36593 0.21596 0.40255 0.0
H1094 H 0.37315 0.23315 0.39643 0.0
H1095 H 0.35619 0.21992 0.39119 0.0
H1096 H 0.34547 0.21774 0.43627 0.0
H1097 H 0.38802 0.2324 0.42972 0.0
H1098 H 0.33771 0.1889 0.45294 0.0
H1099 H 0.33323 0.20222 0.45291 0.0
H1100 H 0.34322 0.20112 0.46619 0.0
H1101 H 0.40086 0.22526 0.44242 0.0
H1102 H 0.39067 0.20698 0.44496 0.0
H1103 H 0.39428 0.21871 0.45837 0.0
H1104 H 0.33175 0.12348 0.42017 0.0
H1105 H 0.35354 0.11966 0.39746 0.0
H1106 H 0.32942 0.10342 0.41235 0.0
H1107 H 0.34249 0.10491 0.42109 0.0
H1108 H 0.37098 0.14182 0.44403 0.0
H1109 H 0.33005 0.13417 0.43846 0.0
H1110 H 0.38156 0.1651 0.4687 0.0
H1111 H 0.38532 0.17663 0.45543 0.0
H1112 H 0.38835 0.16235 0.45386 0.0
H1113 H 0.32189 0.14707 0.44967 0.0
H1114 H 0.33411 0.16463 0.44597 0.0
H1115 H 0.33234 0.15897 0.46249 0.0
H1116 H 0.3825 0.13587 0.54267 0.0
H1117 H 0.38634 0.15306 0.53019 0.0
H1118 H 0.34848 0.14634 0.54633 0.0
H1119 H 0.38951 0.17251 0.50539 0.0
H1120 H 0.40059 0.17276 0.51822 0.0
H1121 H 0.39651 0.18634 0.51719 0.0
H1122 H 0.33829 0.15934 0.54014 0.0
H1123 H 0.34268 0.16656 0.52406 0.0
H1124 H 0.35103 0.17717 0.53813 0.0
H1125 H 0.38673 0.26465 0.53004 0.0
H1126 H 0.40264 0.28925 0.53484 0.0
H1127 H 0.41114 0.2815 0.52647 0.0
H1128 H 0.41392 0.28506 0.54378 0.0
H1129 H 0.41255 0.24661 0.53152 0.0
H1130 H 0.37221 0.24114 0.53412 0.0
H1131 H 0.40432 0.21926 0.50898 0.0
H1132 H 0.40397 0.21339 0.52521 0.0
H1133 H 0.41694 0.23052 0.52092 0.0
H1134 H 0.35247 0.22056 0.5276 0.0
H1135 H 0.35414 0.20538 0.52723 0.0
H1136 H 0.35551 0.21427 0.51245 0.0
H1137 H 0.36064 0.18348 0.44388 0.0
H1138 H 0.35624 0.15432 0.47955 0.0
H1139 H 0.36022 0.15757 0.50261 0.0
H1140 H 0.37711 0.19622 0.53239 0.0
H1141 H 0.37891 0.22482 0.49701 0.0
H1142 H 0.37431 0.22139 0.47396 0.0
H1143 H 0.37022 0.11406 0.52918 0.0
H1144 H 0.36759 0.12726 0.52246 0.0
H1145 H 0.35415 0.11367 0.53164 0.0
C1146 C 0.86133 0.23363 0.40527 0.0
C1147 C 0.87149 0.23844 0.41682 0.0
C1148 C 0.85917 0.21975 0.43237 0.0
C1149 C 0.84912 0.22316 0.43567 0.0
C1150 C 0.83826 0.21473 0.44383 0.0
C1151 C 0.83747 0.20272 0.44891 0.0
C1152 C 0.84772 0.19941 0.44588 0.0
C1153 C 0.85844 0.208 0.43765 0.0
C1154 C 0.8275 0.21855 0.44691 0.0
C1155 C 0.84723 0.18674 0.45123 0.0
C1156 C 0.73708 0.13118 0.42827 0.0
C1157 C 0.74847 0.12971 0.42168 0.0
C1158 C 0.76833 0.14063 0.43682 0.0
C1159 C 0.77708 0.13811 0.44449 0.0
C1160 C 0.78845 0.14885 0.45101 0.0
C1161 C 0.79083 0.16244 0.45017 0.0
C1162 C 0.78204 0.1651 0.44238 0.0
C1163 C 0.77098 0.1542 0.43565 0.0
C1164 C 0.79784 0.14563 0.45884 0.0
C1165 C 0.78425 0.17945 0.44127 0.0
C1166 C 0.76439 0.15327 0.53184 0.0
C1167 C 0.77514 0.15044 0.53055 0.0
C1168 C 0.7874 0.15981 0.52455 0.0
C1169 C 0.78899 0.17232 0.5199 0.0
C1170 C 0.77853 0.17557 0.52194 0.0
C1171 C 0.76637 0.166 0.52798 0.0
C1172 C 0.79852 0.1562 0.52286 0.0
C1173 C 0.78002 0.18893 0.51731 0.0
C1174 C 0.88357 0.26279 0.52769 0.0
C1175 C 0.8769 0.25516 0.5403 0.0
C1176 C 0.86036 0.23174 0.53222 0.0
C1177 C 0.85785 0.21826 0.53124 0.0
C1178 C 0.84614 0.20795 0.52475 0.0
C1179 C 0.83666 0.21123 0.51916 0.0
C1180 C 0.83895 0.22478 0.52033 0.0
C1181 C 0.85082 0.23493 0.52679 0.0
C1182 C 0.84399 0.19359 0.5237 0.0
C1183 C 0.82897 0.22857 0.51454 0.0
C1184 C 0.82565 0.19338 0.457 0.0
C1185 C 0.81424 0.18262 0.45066 0.0
C1186 C 0.80246 0.17382 0.45752 0.0
C1187 C 0.80193 0.17585 0.4711 0.0
C1188 C 0.79007 0.16751 0.47823 0.0
C1189 C 0.78976 0.16937 0.49163 0.0
C1190 C 0.80129 0.17969 0.49842 0.0
C1191 C 0.80114 0.1815 0.51208 0.0
C1192 C 0.81274 0.1919 0.51854 0.0
C1193 C 0.8246 0.20058 0.51169 0.0
C1194 C 0.82495 0.19892 0.49802 0.0
C1195 C 0.83672 0.20746 0.49083 0.0
C1196 C 0.83696 0.20572 0.47739 0.0
C1197 C 0.8255 0.19528 0.47064 0.0
C1198 C 0.81357 0.18651 0.4777 0.0
C1199 C 0.81326 0.18839 0.49139 0.0
C1200 C 0.73328 0.126 0.52487 0.0
C1201 C 0.74527 0.12992 0.53439 0.0
O1202 O 0.86958 0.2273 0.42409 0.0
O1203 O 0.87218 0.24125 0.53828 0.0
O1204 O 0.75206 0.144 0.53676 0.0
O1205 O 0.75744 0.12964 0.43093 0.0
H1206 H 0.86999 0.2457 0.42311 0.0
H1207 H 0.85062 0.22858 0.40873 0.0
H1208 H 0.86248 0.22615 0.39898 0.0
H1209 H 0.8631 0.24255 0.39931 0.0
H1210 H 0.84954 0.23228 0.43184 0.0
H1211 H 0.86625 0.20547 0.43514 0.0
H1212 H 0.81727 0.21014 0.44362 0.0
H1213 H 0.82953 0.22821 0.44216 0.0
H1214 H 0.82709 0.21984 0.45762 0.0
H1215 H 0.8563 0.18592 0.44843 0.0
H1216 H 0.83784 0.17743 0.44755 0.0
H1217 H 0.84668 0.18686 0.46203 0.0
H1218 H 0.7541 0.13845 0.41497 0.0
H1219 H 0.72966 0.13075 0.42082 0.0
H1220 H 0.74138 0.14117 0.4336 0.0
H1221 H 0.73152 0.12287 0.43538 0.0
H1222 H 0.77502 0.12763 0.44528 0.0
H1223 H 0.7644 0.15639 0.42966 0.0
H1224 H 0.79633 0.1466 0.4694 0.0
H1225 H 0.80872 0.15304 0.45667 0.0
H1226 H 0.79585 0.13504 0.45683 0.0
H1227 H 0.77566 0.17959 0.43606 0.0
H1228 H 0.79383 0.18592 0.43588 0.0
H1229 H 0.78546 0.18419 0.45112 0.0
H1230 H 0.75193 0.12668 0.52936 0.0
H1231 H 0.77399 0.14092 0.53418 0.0
H1232 H 0.75813 0.16822 0.52928 0.0
H1233 H 0.80008 0.15522 0.51231 0.0
H1234 H 0.79603 0.14642 0.52764 0.0
H1235 H 0.80834 0.16458 0.52701 0.0
H1236 H 0.77125 0.19023 0.52021 0.0
H1237 H 0.78076 0.18931 0.50652 0.0
H1238 H 0.78963 0.19771 0.52136 0.0
H1239 H 0.86826 0.25683 0.54282 0.0
H1240 H 0.88518 0.27338 0.52804 0.0
H1241 H 0.87682 0.25748 0.51912 0.0
H1242 H 0.89351 0.26319 0.52613 0.0
H1243 H 0.86523 0.21588 0.53547 0.0
H1244 H 0.85258 0.2453 0.52737 0.0
H1245 H 0.84317 0.19045 0.51327 0.0
H1246 H 0.83422 0.18626 0.52839 0.0
H1247 H 0.85245 0.19276 0.52838 0.0
H1248 H 0.83174 0.23932 0.51701 0.0
H1249 H 0.81849 0.22151 0.51811 0.0
H1250 H 0.8287 0.22735 0.50377 0.0
H1251 H 0.81452 0.18111 0.44022 0.0
H1252 H 0.78088 0.15942 0.47354 0.0
H1253 H 0.78036 0.16257 0.49658 0.0
H1254 H 0.81257 0.19317 0.52902 0.0
H1255 H 0.84588 0.21561 0.49551 0.0
H1256 H 0.84629 0.2126 0.47237 0.0
H1257 H 0.72684 0.13035 0.52811 0.0
H1258 H 0.72687 0.11464 0.52384 0.0
H1259 H 0.73733 0.13022 0.51511 0.0
C1260 C 0.0009 0.4629 0.27368 0.0
C1261 C 0.00046 0.45357 0.26245 0.0
C1262 C 0.00679 0.46888 0.24375 0.0
C1263 C 0.99357 0.46488 0.23899 0.0
C1264 C 0.99142 0.47305 0.23015 0.0
C1265 C 0.0027 0.48551 0.22598 0.0
C1266 C 0.01607 0.48939 0.23042 0.0
C1267 C 0.01795 0.48092 0.23916 0.0
C1268 C 0.97706 0.46841 0.22531 0.0
C1269 C 0.02832 0.50254 0.22605 0.0
C1270 C 0.95817 0.54438 0.2419 0.0
C1271 C 0.97126 0.54759 0.24946 0.0
C1272 C 0.98412 0.54033 0.23526 0.0
C1273 C 0.99649 0.54504 0.22877 0.0
C1274 C 0.99978 0.53587 0.22261 0.0
C1275 C 0.9902 0.5216 0.2226 0.0
C1276 C 0.97762 0.51673 0.22913 0.0
C1277 C 0.97478 0.52612 0.23553 0.0
C1278 C 0.01348 0.54146 0.21611 0.0
C1279 C 0.96713 0.50159 0.22932 0.0
C1280 C 0.97521 0.52813 0.13966 0.0
C1281 C 0.98927 0.53403 0.14245 0.0
C1282 C 0.99436 0.52646 0.14877 0.0
C1283 C 0.9852 0.51274 0.15232 0.0
C1284 C 0.97117 0.50653 0.1488 0.0
C1285 C 0.96637 0.5143 0.14239 0.0
C1286 C 0.00945 0.53324 0.15201 0.0
C1287 C 0.96117 0.49185 0.15226 0.0
C1288 C 0.02756 0.44263 0.14843 0.0
C1289 C 0.01594 0.44423 0.14257 0.0
C1290 C 0.01483 0.46543 0.14516 0.0
C1291 C 0.02334 0.47954 0.1473 0.0
C1292 C 0.01819 0.48763 0.15246 0.0
C1293 C 0.00411 0.48143 0.15538 0.0
C1294 C 0.99527 0.46729 0.15255 0.0
C1295 C 0.00071 0.45941 0.1474 0.0
C1296 C 0.02787 0.50274 0.15514 0.0
C1297 C 0.98015 0.46047 0.15528 0.0
C1298 C 0.0003 0.49459 0.21732 0.0
C1299 C 0.99726 0.50402 0.22318 0.0
C1300 C 0.9933 0.5118 0.2157 0.0
C1301 C 0.99222 0.51006 0.20198 0.0
C1302 C 0.9875 0.5171 0.19421 0.0
C1303 C 0.98666 0.51547 0.18071 0.0
C1304 C 0.9906 0.50681 0.17444 0.0
C1305 C 0.99005 0.50531 0.16069 0.0
C1306 C 0.99427 0.49681 0.15475 0.0
C1307 C 0.9989 0.48957 0.16222 0.0
C1308 C 0.99916 0.49065 0.17599 0.0
C1309 C 0.00337 0.48318 0.18381 0.0
C1310 C 0.00363 0.48435 0.19735 0.0
C1311 C 0.0 0.49326 0.20358 0.0
C1312 C 0.99585 0.50096 0.19589 0.0
C1313 C 0.99518 0.49945 0.1821 0.0
C1314 C 0.96347 0.54767 0.14904 0.0
C1315 C 0.97315 0.54866 0.13812 0.0
O1316 O 0.00922 0.46144 0.25265 0.0
O1317 O 0.02067 0.45811 0.14086 0.0
O1318 O 0.96987 0.53545 0.13432 0.0
O1319 O 0.98164 0.54986 0.24093 0.0
H1320 H 0.98975 0.44764 0.25873 0.0
H1321 H 0.99723 0.46983 0.27019 0.0
H1322 H 0.01152 0.46931 0.27756 0.0
H1323 H 0.99415 0.45664 0.28168 0.0
H1324 H 0.98484 0.45533 0.24194 0.0
H1325 H 0.02814 0.48385 0.24273 0.0
H1326 H 0.97406 0.47605 0.22833 0.0
H1327 H 0.96942 0.45822 0.22912 0.0
H1328 H 0.97669 0.46782 0.21449 0.0
H1329 H 0.03808 0.50403 0.23025 0.0
H1330 H 0.02713 0.51143 0.22899 0.0
H1331 H 0.0289 0.50249 0.21525 0.0
H1332 H 0.96897 0.53874 0.25579 0.0
H1333 H 0.95007 0.54314 0.24878 0.0
H1334 H 0.95422 0.53468 0.23614 0.0
H1335 H 0.96014 0.55272 0.23503 0.0
H1336 H 0.00366 0.55601 0.22864 0.0
H1337 H 0.96517 0.52224 0.24055 0.0
H1338 H 0.01197 0.54055 0.20537 0.0
H1339 H 0.01841 0.53542 0.2189 0.0
H1340 H 0.02054 0.55245 0.21872 0.0
H1341 H 0.9571 0.49967 0.23306 0.0
H1342 H 0.97094 0.49629 0.2357 0.0
H1343 H 0.96553 0.49697 0.21938 0.0
H1344 H 0.9837 0.55452 0.14228 0.0
H1345 H 0.99628 0.54451 0.13971 0.0
H1346 H 0.95559 0.50977 0.13993 0.0
H1347 H 0.01097 0.53444 0.16275 0.0
H1348 H 0.01541 0.54354 0.14758 0.0
H1349 H 0.01358 0.52665 0.14854 0.0
H1350 H 0.95068 0.48836 0.14841 0.0
H1351 H 0.96072 0.49085 0.16303 0.0
H1352 H 0.96473 0.48495 0.1483 0.0
H1353 H 0.00742 0.43976 0.14966 0.0
H1354 H 0.02404 0.43162 0.15014 0.0
H1355 H 0.03092 0.44827 0.15793 0.0
H1356 H 0.03647 0.44685 0.14181 0.0
H1357 H 0.03416 0.48413 0.14527 0.0
H1358 H 0.99392 0.44862 0.14517 0.0
H1359 H 0.02827 0.50491 0.16578 0.0
H1360 H 0.02405 0.50893 0.15019 0.0
H1361 H 0.03842 0.50612 0.15179 0.0
H1362 H 0.97451 0.44955 0.1519 0.0
H1363 H 0.97569 0.46612 0.1504 0.0
H1364 H 0.97863 0.46088 0.16593 0.0
H1365 H 0.99769 0.50511 0.23373 0.0
H1366 H 0.98436 0.52393 0.19848 0.0
H1367 H 0.98295 0.52118 0.17527 0.0
H1368 H 0.99408 0.49592 0.14419 0.0
H1369 H 0.00642 0.47627 0.17957 0.0
H1370 H 0.00688 0.47831 0.20288 0.0
H1371 H 0.95264 0.5421 0.14553 0.0
H1372 H 0.96619 0.55809 0.15273 0.0
H1373 H 0.96444 0.54194 0.15734 0.0
C1374 C 0.47648 0.42442 0.27478 0.0
C1375 C 0.46834 0.42887 0.26613 0.0
C1376 C 0.47619 0.43532 0.24406 0.0
C1377 C 0.47326 0.44586 0.24183 0.0
C1378 C 0.48096 0.45627 0.23296 0.0
C1379 C 0.49196 0.45622 0.2264 0.0
C1380 C 0.49462 0.4453 0.22837 0.0
C1381 C 0.48646 0.43481 0.237 0.0
C1382 C 0.4776 0.46753 0.2309 0.0
C1383 C 0.5064 0.44499 0.22179 0.0
C1384 C 0.58233 0.55423 0.258 0.0
C1385 C 0.57493 0.54163 0.24968 0.0
C1386 C 0.55158 0.52498 0.24254 0.0
C1387 C 0.55496 0.51629 0.23551 0.0
C1388 C 0.54504 0.50526 0.22793 0.0
C1389 C 0.5316 0.50321 0.22692 0.0
C1390 C 0.52822 0.51203 0.23389 0.0
C1391 C 0.53822 0.52267 0.24177 0.0
C1392 C 0.54896 0.49575 0.22111 0.0
C1393 C 0.51404 0.51022 0.23307 0.0
C1394 C 0.55666 0.52361 0.14449 0.0
C1395 C 0.55792 0.51281 0.14981 0.0
C1396 C 0.54681 0.50177 0.15586 0.0
C1397 C 0.53413 0.50144 0.15659 0.0
C1398 C 0.53269 0.51209 0.15098 0.0
C1399 C 0.544 0.52304 0.145 0.0
C1400 C 0.54871 0.49057 0.16173 0.0
C1401 C 0.5193 0.51203 0.15158 0.0
C1402 C 0.45083 0.39439 0.14177 0.0
C1403 C 0.45506 0.40881 0.13701 0.0
C1404 C 0.47729 0.42899 0.14261 0.0
C1405 C 0.49045 0.43232 0.14665 0.0
C1406 C 0.49907 0.44474 0.15329 0.0
C1407 C 0.49446 0.45417 0.1557 0.0
C1408 C 0.48137 0.45115 0.15108 0.0
C1409 C 0.4729 0.43857 0.14455 0.0
C1410 C 0.51304 0.44769 0.15788 0.0
C1411 C 0.4763 0.46115 0.15321 0.0
C1412 C 0.50149 0.46825 0.2186 0.0
C1413 C 0.51131 0.47993 0.22543 0.0
C1414 C 0.521 0.49156 0.21892 0.0
C1415 C 0.52093 0.49164 0.20514 0.0
C1416 C 0.5304 0.50324 0.19826 0.0
C1417 C 0.53085 0.5029 0.18472 0.0
C1418 C 0.52173 0.491 0.17753 0.0
C1419 C 0.52265 0.49029 0.16382 0.0
C1420 C 0.51334 0.47836 0.15694 0.0
C1421 C 0.50319 0.46695 0.16343 0.0
C1422 C 0.5022 0.46743 0.17716 0.0
C1423 C 0.49221 0.4561 0.18402 0.0
C1424 C 0.49173 0.45646 0.19758 0.0
C1425 C 0.50136 0.46806 0.2048 0.0
C1426 C 0.51123 0.47975 0.19806 0.0
C1427 C 0.51162 0.47945 0.18423 0.0
C1428 C 0.58836 0.543 0.15102 0.0
C1429 C 0.58074 0.53765 0.13787 0.0
O1430 O 0.46944 0.42574 0.25322 0.0
O1431 O 0.46924 0.4165 0.1368 0.0
O1432 O 0.56732 0.53481 0.13898 0.0
O1433 O 0.56079 0.53553 0.25026 0.0
H1434 H 0.47294 0.44019 0.2676 0.0
H1435 H 0.48742 0.42996 0.27195 0.0
H1436 H 0.47248 0.41319 0.27369 0.0
H1437 H 0.47585 0.42693 0.28518 0.0
H1438 H 0.46504 0.44599 0.24713 0.0
H1439 H 0.48851 0.42651 0.23877 0.0
H1440 H 0.48546 0.47706 0.23594 0.0
H1441 H 0.4674 0.46481 0.23482 0.0
H1442 H 0.47778 0.46975 0.22036 0.0
H1443 H 0.50788 0.43652 0.22535 0.0
H1444 H 0.51604 0.4549 0.2235 0.0
H1445 H 0.50448 0.4436 0.21111 0.0
H1446 H 0.57873 0.53425 0.25071 0.0
H1447 H 0.58802 0.55171 0.26551 0.0
H1448 H 0.57458 0.55397 0.26505 0.0
H1449 H 0.59235 0.57001 0.24455 0.0
H1450 H 0.56523 0.51787 0.23607 0.0
H1451 H 0.5357 0.5294 0.24725 0.0
H1452 H 0.55002 0.49789 0.21053 0.0
H1453 H 0.5409 0.48485 0.22231 0.0
H1454 H 0.55884 0.49713 0.22487 0.0
H1455 H 0.51369 0.51919 0.2373 0.0
H1456 H 0.50685 0.50094 0.23852 0.0
H1457 H 0.51039 0.50866 0.22277 0.0
H1458 H 0.58094 0.52814 0.13518 0.0
H1459 H 0.56755 0.51293 0.14948 0.0
H1460 H 0.54305 0.53135 0.14084 0.0
H1461 H 0.54743 0.49054 0.17246 0.0
H1462 H 0.55898 0.4919 0.15972 0.0
H1463 H 0.54077 0.48039 0.15781 0.0
H1464 H 0.51975 0.52094 0.14655 0.0
H1465 H 0.51656 0.51226 0.16193 0.0
H1466 H 0.51101 0.50239 0.14704 0.0
H1467 H 0.45086 0.41327 0.14411 0.0
H1468 H 0.43948 0.388 0.14209 0.0
H1469 H 0.45501 0.39507 0.15176 0.0
H1470 H 0.45482 0.38927 0.13523 0.0
H1471 H 0.49382 0.42495 0.14488 0.0
H1472 H 0.46294 0.43632 0.14094 0.0
H1473 H 0.51429 0.45001 0.16852 0.0
H1474 H 0.52103 0.45689 0.15287 0.0
H1475 H 0.51479 0.43895 0.15587 0.0
H1476 H 0.46622 0.45766 0.14836 0.0
H1477 H 0.48386 0.47138 0.14942 0.0
H1478 H 0.47531 0.46245 0.16382 0.0
H1479 H 0.51157 0.47987 0.23601 0.0
H1480 H 0.53771 0.51265 0.20328 0.0
H1481 H 0.53853 0.51206 0.17997 0.0
H1482 H 0.51429 0.47778 0.14646 0.0
H1483 H 0.48471 0.44678 0.179 0.0
H1484 H 0.48386 0.44743 0.20235 0.0
H1485 H 0.58746 0.55184 0.15473 0.0
H1486 H 0.59934 0.54611 0.15002 0.0
H1487 H 0.58393 0.53484 0.15843 0.0
C1488 C 0.44518 0.96894 0.2681 0.0
C1489 C 0.44589 0.98225 0.26373 0.0
C1490 C 0.45435 0.98604 0.24186 0.0
C1491 C 0.46395 2e-05 0.24083 0.0
C1492 C 0.47535 0.00441 0.23276 0.0
C1493 C 0.47723 0.99453 0.22579 0.0
C1494 C 0.46729 0.98039 0.22658 0.0
C1495 C 0.45582 0.97634 0.23448 0.0
C1496 C 0.48556 0.01957 0.23196 0.0
C1497 C 0.46905 0.96955 0.21948 0.0
C1498 C 0.55522 0.0273 0.27988 0.0
C1499 C 0.55402 0.01644 0.27001 0.0
C1500 C 0.54718 0.01804 0.24793 0.0
C1501 C 0.53861 0.00414 0.24458 0.0
C1502 C 0.52829 0.00017 0.23501 0.0
C1503 C 0.52645 0.01035 0.22884 0.0
C1504 C 0.53542 0.02443 0.23194 0.0
C1505 C 0.54587 0.02809 0.24128 0.0
C1506 C 0.51916 0.98511 0.23174 0.0
C1507 C 0.53365 0.03559 0.22579 0.0
C1508 C 0.55793 0.02901 0.14714 0.0
C1509 C 0.54956 0.01477 0.14869 0.0
C1510 C 0.53659 0.00935 0.15437 0.0
C1511 C 0.53198 0.01837 0.1586 0.0
C1512 C 0.54024 0.03267 0.15664 0.0
C1513 C 0.55305 0.03777 0.15078 0.0
C1514 C 0.52785 0.99402 0.15596 0.0
C1515 C 0.53561 0.0426 0.16089 0.0
C1516 C 0.43248 0.00172 0.15032 0.0
C1517 C 0.4419 0.00916 0.13893 0.0
C1518 C 0.46082 0.00452 0.14238 0.0
C1519 C 0.46372 0.99382 0.14147 0.0
C1520 C 0.47482 0.99442 0.14836 0.0
C1521 C 0.4834 0.0062 0.15608 0.0
C1522 C 0.48091 0.01735 0.15657 0.0
C1523 C 0.46958 0.01635 0.14984 0.0
C1524 C 0.4772 0.98236 0.14761 0.0
C1525 C 0.49016 0.0303 0.16433 0.0
C1526 C 0.49014 0.99889 0.21863 0.0
C1527 C 0.50179 0.00184 0.22598 0.0
C1528 C 0.51442 0.00626 0.2201 0.0
C1529 C 0.51548 0.00745 0.2064 0.0
C1530 C 0.52793 0.01146 0.20011 0.0
C1531 C 0.52899 0.01315 0.18667 0.0
C1532 C 0.51762 0.01083 0.17899 0.0
C1533 C 0.5187 0.01296 0.16537 0.0
C1534 C 0.50727 0.01089 0.1581 0.0
C1535 C 0.49471 0.00676 0.16406 0.0
C1536 C 0.49335 0.00429 0.17761 0.0
C1537 C 0.4808 0.99993 0.18388 0.0
C1538 C 0.47969 0.99809 0.19729 0.0
C1539 C 0.49107 0.00046 0.20495 0.0
C1540 C 0.50379 0.0047 0.19882 0.0
C1541 C 0.50489 0.00648 0.18511 0.0
C1542 C 0.59297 0.04154 0.14976 0.0
C1543 C 0.57989 0.03007 0.14331 0.0
O1544 O 0.44391 0.98177 0.25034 0.0
O1545 O 0.44961 0.00304 0.13583 0.0
O1546 O 0.57061 0.03468 0.14193 0.0
O1547 O 0.55665 0.02201 0.25766 0.0
H1548 H 0.45623 0.991 0.26645 0.0
H1549 H 0.45338 0.96777 0.26334 0.0
H1550 H 0.4351 0.95989 0.26539 0.0
H1551 H 0.44672 0.96915 0.27883 0.0
H1552 H 0.46259 0.00743 0.24651 0.0
H1553 H 0.44825 0.96556 0.23538 0.0
H1554 H 0.49509 0.02188 0.23729 0.0
H1555 H 0.48158 0.02598 0.23629 0.0
H1556 H 0.48827 0.02253 0.22165 0.0
H1557 H 0.46078 0.95897 0.22169 0.0
H1558 H 0.47908 0.97056 0.22219 0.0
H1559 H 0.46906 0.97103 0.2088 0.0
H1560 H 0.54334 0.00761 0.27054 0.0
H1561 H 0.55306 0.02304 0.28986 0.0
H1562 H 0.54767 0.03055 0.2774 0.0
H1563 H 0.56566 0.03649 0.2798 0.0
H1564 H 0.53995 0.99641 0.24951 0.0
H1565 H 0.55269 0.0388 0.24388 0.0
H1566 H 0.50884 0.98152 0.23583 0.0
H1567 H 0.52324 0.97873 0.23579 0.0
H1568 H 0.51793 0.98346 0.221 0.0
H1569 H 0.54058 0.04587 0.23026 0.0
H1570 H 0.5229 0.03328 0.22678 0.0
H1571 H 0.53585 0.03603 0.21523 0.0
H1572 H 0.57587 0.02109 0.14987 0.0
H1573 H 0.55304 0.00787 0.14534 0.0
H1574 H 0.5595 0.04871 0.14931 0.0
H1575 H 0.52652 0.99161 0.16649 0.0
H1576 H 0.53244 0.98831 0.15131 0.0
H1577 H 0.51752 0.99033 0.15162 0.0
H1578 H 0.54359 0.05348 0.15937 0.0
H1579 H 0.53292 0.04122 0.17137 0.0
H1580 H 0.52627 0.04041 0.15527 0.0
H1581 H 0.44865 0.02011 0.14177 0.0
H1582 H 0.42612 0.00642 0.15274 0.0
H1583 H 0.4387 0.00256 0.15909 0.0
H1584 H 0.42564 0.99065 0.14785 0.0
H1585 H 0.45702 0.9848 0.13558 0.0
H1586 H 0.46784 0.02495 0.15038 0.0
H1587 H 0.47713 0.97856 0.15757 0.0
H1588 H 0.48744 0.9857 0.14346 0.0
H1589 H 0.46932 0.97375 0.14151 0.0
H1590 H 0.4879 0.03867 0.16238 0.0
H1591 H 0.50106 0.034 0.16203 0.0
H1592 H 0.48884 0.02807 0.1749 0.0
H1593 H 0.50106 0.00093 0.23651 0.0
H1594 H 0.53702 0.01343 0.20555 0.0
H1595 H 0.53888 0.01642 0.1824 0.0
H1596 H 0.50827 0.01294 0.14774 0.0
H1597 H 0.47169 0.99796 0.17849 0.0
H1598 H 0.46983 0.99488 0.20161 0.0
H1599 H 0.60054 0.0381 0.1513 0.0
H1600 H 0.59054 0.04433 0.15942 0.0
H1601 H 0.59762 0.05084 0.14362 0.0
C1602 C 0.55562 0.97311 0.77274 0.0
C1603 C 0.55496 0.98313 0.76316 0.0
C1604 C 0.54558 0.99533 0.77574 0.0
C1605 C 0.54871 0.00809 0.78103 0.0
C1606 C 0.53876 0.00995 0.78737 0.0
C1607 C 0.52535 0.99863 0.78858 0.0
C1608 C 0.52206 0.98565 0.78325 0.0
C1609 C 0.53219 0.98413 0.77682 0.0
C1610 C 0.54257 0.02397 0.79282 0.0
C1611 C 0.50787 0.97336 0.78447 0.0
C1612 C 0.43336 0.99912 0.75205 0.0
C1613 C 0.44187 0.99499 0.75977 0.0
C1614 C 0.46488 0.0047 0.76914 0.0
C1615 C 0.46213 0.99273 0.77578 0.0
C1616 C 0.47209 0.9925 0.78384 0.0
C1617 C 0.48498 0.00459 0.78556 0.0
C1618 C 0.48778 0.01669 0.77897 0.0
C1619 C 0.4777 0.01654 0.77075 0.0
C1620 C 0.46884 0.97929 0.79044 0.0
C1621 C 0.50138 0.02975 0.78066 0.0
C1622 C 0.46452 0.01484 0.86679 0.0
C1623 C 0.46 0.00102 0.86359 0.0
C1624 C 0.46903 0.99716 0.85821 0.0
C1625 C 0.48283 0.00731 0.8561 0.0
C1626 C 0.48753 0.02112 0.85993 0.0
C1627 C 0.47831 0.02467 0.86532 0.0
C1628 C 0.46381 0.9823 0.85452 0.0
C1629 C 0.50223 0.03217 0.85801 0.0
C1630 C 0.55933 0.9796 0.86075 0.0
C1631 C 0.55757 0.98651 0.873 0.0
C1632 C 0.53541 0.98526 0.87062 0.0
C1633 C 0.52211 0.97541 0.86678 0.0
C1634 C 0.51338 0.97926 0.86073 0.0
C1635 C 0.51806 0.99334 0.85867 0.0
C1636 C 0.53116 0.00342 0.86336 0.0
C1637 C 0.53969 0.99928 0.86937 0.0
C1638 C 0.49935 0.96827 0.85606 0.0
C1639 C 0.53629 0.01854 0.86164 0.0
C1640 C 0.51482 0.00038 0.79553 0.0
C1641 C 0.50563 0.0025 0.78811 0.0
C1642 C 0.49554 0.00434 0.79406 0.0
C1643 C 0.49489 0.00464 0.80781 0.0
C1644 C 0.48542 0.00732 0.81412 0.0
C1645 C 0.48461 0.0072 0.82766 0.0
C1646 C 0.49308 0.00417 0.83539 0.0
C1647 C 0.49215 0.00373 0.84915 0.0
C1648 C 0.50041 0.00024 0.85651 0.0
C1649 C 0.50983 0.99741 0.85048 0.0
C1650 C 0.51126 0.99827 0.83677 0.0
C1651 C 0.52096 0.99592 0.83044 0.0
C1652 C 0.52225 0.99674 0.81696 0.0
C1653 C 0.51375 0.99974 0.80926 0.0
C1654 C 0.50384 0.00203 0.81542 0.0
C1655 C 0.50274 0.00152 0.82921 0.0
C1656 C 0.43967 0.02428 0.86272 0.0
C1657 C 0.44212 0.01339 0.86895 0.0
O1658 O 0.55582 0.99434 0.76983 0.0
O1659 O 0.54374 0.98088 0.87554 0.0
O1660 O 0.45604 0.01914 0.87149 0.0
O1661 O 0.45548 0.00522 0.76115 0.0
H1662 H 0.54516 0.97773 0.75748 0.0
H1663 H 0.54686 0.96909 0.7795 0.0
H1664 H 0.56526 0.9783 0.77863 0.0
H1665 H 0.55514 0.96424 0.76734 0.0
H1666 H 0.55905 0.01667 0.78015 0.0
H1667 H 0.52954 0.97414 0.77281 0.0
H1668 H 0.53531 0.02714 0.78909 0.0
H1669 H 0.55316 0.03192 0.79025 0.0
H1670 H 0.54178 0.02354 0.8036 0.0
H1671 H 0.50715 0.96378 0.7805 0.0
H1672 H 0.50039 0.97526 0.77915 0.0
H1673 H 0.50487 0.97182 0.79488 0.0
H1674 H 0.44058 0.9848 0.75689 0.0
H1675 H 0.42999 0.99222 0.74312 0.0
H1676 H 0.44076 0.00863 0.74671 0.0
H1677 H 0.41948 0.99894 0.76568 0.0
H1678 H 0.45227 0.98347 0.77467 0.0
H1679 H 0.47973 0.02573 0.76561 0.0
H1680 H 0.46805 0.98046 0.80111 0.0
H1681 H 0.47718 0.97693 0.78885 0.0
H1682 H 0.45904 0.97042 0.78684 0.0
H1683 H 0.50152 0.0386 0.77579 0.0
H1684 H 0.5096 0.02823 0.77648 0.0
H1685 H 0.50379 0.03229 0.79119 0.0
H1686 H 0.43837 0.00467 0.86182 0.0
H1687 H 0.44949 0.99321 0.86532 0.0
H1688 H 0.48174 0.03526 0.86809 0.0
H1689 H 0.46443 0.98131 0.8438 0.0
H1690 H 0.45303 0.9755 0.85749 0.0
H1691 H 0.47036 0.9787 0.85915 0.0
H1692 H 0.50436 0.04236 0.86184 0.0
H1693 H 0.50461 0.03306 0.84745 0.0
H1694 H 0.5092 0.02932 0.86299 0.0
H1695 H 0.56244 0.99762 0.87077 0.0
H1696 H 0.57032 0.98305 0.85923 0.0
H1697 H 0.55543 0.98248 0.85208 0.0
H1698 H 0.5534 0.96822 0.86146 0.0
H1699 H 0.51878 0.96464 0.86809 0.0
H1700 H 0.54966 0.00703 0.87304 0.0
H1701 H 0.49885 0.96825 0.84524 0.0
H1702 H 0.49144 0.97052 0.85979 0.0
H1703 H 0.49685 0.95786 0.85924 0.0
H1704 H 0.54636 0.02513 0.86656 0.0
H1705 H 0.52875 0.0212 0.86561 0.0
H1706 H 0.53733 0.02089 0.85109 0.0
H1707 H 0.50616 0.00241 0.77755 0.0
H1708 H 0.47856 0.00959 0.80866 0.0
H1709 H 0.47713 0.00936 0.83196 0.0
H1710 H 0.49953 0.99976 0.86704 0.0
H1711 H 0.52772 0.99346 0.83583 0.0
H1712 H 0.52989 0.99484 0.81265 0.0
H1713 H 0.44306 0.03329 0.86943 0.0
H1714 H 0.42863 0.01995 0.86031 0.0
H1715 H 0.44555 0.02783 0.85356 0.0
C1716 C 0.02057 0.55153 0.73949 0.0
C1717 C 0.00939 0.5501 0.74878 0.0
C1718 C 0.01083 0.54287 0.77063 0.0
C1719 C 0.99702 0.53391 0.7734 0.0
C1720 C 0.9933 0.52346 0.78253 0.0
C1721 C 0.00362 0.52188 0.78884 0.0
C1722 C 0.01759 0.53117 0.78626 0.0
C1723 C 0.02101 0.54175 0.77736 0.0
C1724 C 0.97833 0.51395 0.78523 0.0
C1725 C 0.0289 0.5297 0.79259 0.0
C1726 C 0.97996 0.42643 0.74838 0.0
C1727 C 0.97811 0.43692 0.75566 0.0
C1728 C 0.98435 0.4495 0.7762 0.0
C1729 C 0.99642 0.45663 0.78358 0.0
C1730 C 0.99929 0.46848 0.79082 0.0
C1731 C 0.98943 0.47278 0.79125 0.0
C1732 C 0.97688 0.46517 0.78427 0.0
C1733 C 0.97456 0.45371 0.77666 0.0
C1734 C 0.01302 0.4765 0.79771 0.0
C1735 C 0.96598 0.46921 0.78467 0.0
C1736 C 0.99521 0.45568 0.87388 0.0
C1737 C 0.00724 0.4647 0.86731 0.0
C1738 C 0.00841 0.47621 0.86096 0.0
C1739 C 0.99735 0.47879 0.8612 0.0
C1740 C 0.98546 0.47008 0.86827 0.0
C1741 C 0.9846 0.45869 0.87464 0.0
C1742 C 0.02141 0.48547 0.85377 0.0
C1743 C 0.97353 0.4726 0.86877 0.0
C1744 C 0.04134 0.58991 0.86773 0.0
C1745 C 0.02869 0.57796 0.8738 0.0
C1746 C 0.02479 0.55461 0.87084 0.0
C1747 C 0.03241 0.54832 0.86778 0.0
C1748 C 0.02623 0.53524 0.86184 0.0
C1749 C 0.01194 0.52812 0.85928 0.0
C1750 C 0.00403 0.53417 0.86297 0.0
C1751 C 0.01056 0.54742 0.86866 0.0
C1752 C 0.03503 0.52911 0.85824 0.0
C1753 C 0.98871 0.52666 0.8608 0.0
C1754 C 0.99977 0.50992 0.79735 0.0
C1755 C 0.99589 0.49728 0.79126 0.0
C1756 C 0.99249 0.48557 0.7985 0.0
C1757 C 0.99285 0.48642 0.81228 0.0
C1758 C 0.98915 0.4748 0.81989 0.0
C1759 C 0.99058 0.47594 0.83339 0.0
C1760 C 0.99559 0.48874 0.83981 0.0
C1761 C 0.99806 0.49018 0.85343 0.0
C1762 C 0.00277 0.50298 0.85956 0.0
C1763 C 0.00545 0.51456 0.85239 0.0
C1764 C 0.00332 0.51337 0.8387 0.0
C1765 C 0.0062 0.52483 0.83111 0.0
C1766 C 0.00467 0.52366 0.8176 0.0
C1767 C 0.0005 0.51105 0.81112 0.0
C1768 C 0.99716 0.49928 0.8186 0.0
C1769 C 0.99851 0.50043 0.8324 0.0
C1770 C 0.98858 0.4255 0.86515 0.0
C1771 C 0.99842 0.4357 0.87545 0.0
O1772 O 0.01457 0.55263 0.76144 0.0
O1773 O 0.03148 0.56748 0.87615 0.0
O1774 O 0.99353 0.44418 0.87978 0.0
O1775 O 0.98251 0.43876 0.76856 0.0
H1776 H 0.00065 0.53937 0.74765 0.0
H1777 H 0.02388 0.54405 0.74207 0.0
H1778 H 0.02961 0.56207 0.74017 0.0
H1779 H 0.01662 0.54936 0.72927 0.0
H1780 H 0.98919 0.53508 0.76839 0.0
H1781 H 0.03165 0.54887 0.77521 0.0
H1782 H 0.97507 0.50366 0.78087 0.0
H1783 H 0.97175 0.51776 0.78107 0.0
H1784 H 0.97663 0.51268 0.7959 0.0
H1785 H 0.0391 0.53687 0.78852 0.0
H1786 H 0.02687 0.51901 0.79129 0.0
H1787 H 0.02926 0.53182 0.80322 0.0
H1788 H 0.9679 0.43606 0.7543 0.0
H1789 H 0.99476 0.43794 0.73444 0.0
H1790 H 0.96927 0.41811 0.74561 0.0
H1791 H 0.98151 0.4201 0.75592 0.0
H1792 H 0.00385 0.45322 0.7832 0.0
H1793 H 0.96505 0.44798 0.7712 0.0
H1794 H 0.0117 0.47445 0.80831 0.0
H1795 H 0.01741 0.48772 0.79642 0.0
H1796 H 0.02048 0.47356 0.79411 0.0
H1797 H 0.95595 0.46085 0.78089 0.0
H1798 H 0.96918 0.47838 0.77858 0.0
H1799 H 0.96466 0.47194 0.79479 0.0
H1800 H 0.00858 0.44174 0.87087 0.0
H1801 H 0.01584 0.46298 0.8672 0.0
H1802 H 0.97546 0.45182 0.87993 0.0
H1803 H 0.01923 0.4844 0.84312 0.0
H1804 H 0.02962 0.48298 0.85574 0.0
H1805 H 0.02525 0.49637 0.85658 0.0
H1806 H 0.96499 0.46488 0.8747 0.0
H1807 H 0.96964 0.47231 0.85873 0.0
H1808 H 0.97698 0.48301 0.87297 0.0
H1809 H 0.02008 0.5746 0.86665 0.0
H1810 H 0.03938 0.59838 0.86529 0.0
H1811 H 0.04392 0.58635 0.85859 0.0
H1812 H 0.05027 0.59393 0.87456 0.0
H1813 H 0.04335 0.55388 0.86976 0.0
H1814 H 0.00453 0.55206 0.87154 0.0
H1815 H 0.03296 0.52526 0.84798 0.0
H1816 H 0.03245 0.52023 0.86458 0.0
H1817 H 0.04614 0.53662 0.85944 0.0
H1818 H 0.98386 0.53215 0.86538 0.0
H1819 H 0.98406 0.51616 0.86484 0.0
H1820 H 0.98638 0.52553 0.85018 0.0
H1821 H 0.99577 0.4966 0.78069 0.0
H1822 H 0.98535 0.46471 0.81547 0.0
H1823 H 0.98784 0.46668 0.83873 0.0
H1824 H 0.00493 0.50407 0.86997 0.0
H1825 H 0.00977 0.53488 0.83552 0.0
H1826 H 0.00706 0.53283 0.81226 0.0
H1827 H 0.99224 0.41846 0.86182 0.0
H1828 H 0.98804 0.43116 0.85657 0.0
H1829 H 0.97811 0.41932 0.86912 0.0
C1830 C 0.52688 0.54817 0.73921 0.0
C1831 C 0.53567 0.56092 0.74783 0.0
C1832 C 0.52724 0.55055 0.76913 0.0
C1833 C 0.51585 0.55246 0.76983 0.0
C1834 C 0.50532 0.54507 0.77868 0.0
C1835 C 0.50606 0.53539 0.78684 0.0
C1836 C 0.5177 0.53374 0.78644 0.0
C1837 C 0.52825 0.54154 0.77772 0.0
C1838 C 0.49323 0.54736 0.77907 0.0
C1839 C 0.51878 0.52343 0.7949 0.0
C1840 C 0.40627 0.45832 0.76941 0.0
C1841 C 0.41795 0.45903 0.76125 0.0
C1842 C 0.43857 0.47141 0.77532 0.0
C1843 C 0.44836 0.46995 0.78243 0.0
C1844 C 0.45919 0.48119 0.789 0.0
C1845 C 0.46014 0.49422 0.78857 0.0
C1846 C 0.45029 0.49581 0.78139 0.0
C1847 C 0.43963 0.48441 0.77478 0.0
C1848 C 0.46958 0.47914 0.79648 0.0
C1849 C 0.45099 0.50956 0.78078 0.0
C1850 C 0.43145 0.48935 0.86984 0.0
C1851 C 0.44135 0.48544 0.86792 0.0
C1852 C 0.45373 0.49426 0.86178 0.0
C1853 C 0.45615 0.50716 0.85734 0.0
C1854 C 0.44641 0.51134 0.85977 0.0
C1855 C 0.43425 0.50242 0.86618 0.0
C1856 C 0.46411 0.48969 0.8598 0.0
C1857 C 0.44872 0.52508 0.85535 0.0
C1858 C 0.54211 0.60255 0.8723 0.0
C1859 C 0.53634 0.59138 0.88267 0.0
C1860 C 0.52451 0.56915 0.87077 0.0
C1861 C 0.52462 0.55694 0.86837 0.0
C1862 C 0.51393 0.54597 0.86135 0.0
C1863 C 0.50297 0.54738 0.85641 0.0
C1864 C 0.50285 0.55977 0.85865 0.0
C1865 C 0.51357 0.5705 0.86586 0.0
C1866 C 0.51433 0.53286 0.85924 0.0
C1867 C 0.49137 0.56165 0.85341 0.0
C1868 C 0.49418 0.52632 0.79502 0.0
C1869 C 0.48316 0.51494 0.78888 0.0
C1870 C 0.47138 0.50613 0.79573 0.0
C1871 C 0.4705 0.50866 0.80912 0.0
C1872 C 0.45867 0.50017 0.81622 0.0
C1873 C 0.45794 0.50262 0.82943 0.0
C1874 C 0.46907 0.51358 0.83609 0.0
C1875 C 0.46851 0.51598 0.84959 0.0
C1876 C 0.47973 0.52698 0.8559 0.0
C1877 C 0.49152 0.53585 0.84905 0.0
C1878 C 0.49223 0.53369 0.83552 0.0
C1879 C 0.50382 0.54255 0.82827 0.0
C1880 C 0.50445 0.54024 0.81498 0.0
C1881 C 0.49357 0.52892 0.80846 0.0
C1882 C 0.4817 0.51999 0.81554 0.0
C1883 C 0.48101 0.52241 0.82907 0.0
C1884 C 0.39955 0.46594 0.86263 0.0
C1885 C 0.41079 0.46706 0.87193 0.0
O1886 O 0.53728 0.55699 0.7602 0.0
O1887 O 0.53517 0.57928 0.87775 0.0
O1888 O 0.4192 0.48082 0.87531 0.0
O1889 O 0.42832 0.45998 0.76931 0.0
H1890 H 0.53062 0.56722 0.7485 0.0
H1891 H 0.5165 0.54199 0.74335 0.0
H1892 H 0.53168 0.54163 0.73851 0.0
H1893 H 0.52567 0.55123 0.72924 0.0
H1894 H 0.51505 0.55967 0.76353 0.0
H1895 H 0.53713 0.54023 0.7772 0.0
H1896 H 0.48416 0.53831 0.77461 0.0
H1897 H 0.49515 0.55665 0.77366 0.0
H1898 H 0.49071 0.54843 0.78931 0.0
H1899 H 0.52823 0.52296 0.79301 0.0
H1900 H 0.50974 0.51304 0.79316 0.0
H1901 H 0.51878 0.52617 0.80533 0.0
H1902 H 0.42204 0.46814 0.75486 0.0
H1903 H 0.39789 0.45737 0.76293 0.0
H1904 H 0.40996 0.46778 0.7755 0.0
H1905 H 0.40209 0.44936 0.77598 0.0
H1906 H 0.44747 0.4599 0.78279 0.0
H1907 H 0.43217 0.48577 0.76934 0.0
H1908 H 0.46902 0.48111 0.80703 0.0
H1909 H 0.48009 0.48662 0.79325 0.0
H1910 H 0.4679 0.46857 0.79518 0.0
H1911 H 0.44206 0.50894 0.77549 0.0
H1912 H 0.46049 0.51699 0.77576 0.0
H1913 H 0.45145 0.51366 0.79079 0.0
H1914 H 0.41651 0.46295 0.86647 0.0
H1915 H 0.43944 0.47555 0.87127 0.0
H1916 H 0.42663 0.50542 0.86795 0.0
H1917 H 0.46456 0.48754 0.84928 0.0
H1918 H 0.46153 0.48025 0.8653 0.0
H1919 H 0.47447 0.49799 0.86292 0.0
H1920 H 0.43975 0.5264 0.85722 0.0
H1921 H 0.45092 0.52624 0.84476 0.0
H1922 H 0.45777 0.53342 0.86058 0.0
H1923 H 0.5261 0.5896 0.88561 0.0
H1924 H 0.54337 0.61233 0.87638 0.0
H1925 H 0.53503 0.59945 0.86376 0.0
H1926 H 0.55218 0.60435 0.86884 0.0
H1927 H 0.53309 0.55598 0.87216 0.0
H1928 H 0.51332 0.57989 0.86751 0.0
H1929 H 0.51491 0.53111 0.84865 0.0
H1930 H 0.50476 0.52399 0.86285 0.0
H1931 H 0.52322 0.53314 0.86427 0.0
H1932 H 0.4933 0.57227 0.85508 0.0
H1933 H 0.48167 0.55437 0.85824 0.0
H1934 H 0.48992 0.55926 0.84279 0.0
H1935 H 0.48372 0.51295 0.77858 0.0
H1936 H 0.44982 0.49152 0.81165 0.0
H1937 H 0.44855 0.49574 0.83436 0.0
H1938 H 0.47925 0.52873 0.86626 0.0
H1939 H 0.51254 0.55137 0.8328 0.0
H1940 H 0.51362 0.54739 0.8099 0.0
H1941 H 0.3928 0.46903 0.8677 0.0
H1942 H 0.39337 0.4553 0.85862 0.0
H1943 H 0.4043 0.47286 0.85426 0.0
C1944 C 0.6544 0.79219 0.60431 0.0
C1945 C 0.64679 0.77837 0.59693 0.0
C1946 C 0.64577 0.78647 0.57529 0.0
C1947 C 0.63204 0.78321 0.57456 0.0
C1948 C 0.62797 0.79035 0.56619 0.0
C1949 C 0.63787 0.80104 0.55852 0.0
C1950 C 0.65165 0.80403 0.55892 0.0
C1951 C 0.65536 0.79651 0.56717 0.0
C1952 C 0.61312 0.78663 0.56574 0.0
C1953 C 0.6625 0.81541 0.55093 0.0
C1954 C 0.60667 0.87049 0.58139 0.0
C1955 C 0.6201 0.87258 0.5874 0.0
C1956 C 0.62876 0.86182 0.57194 0.0
C1957 C 0.63972 0.86451 0.56387 0.0
C1958 C 0.6404 0.85385 0.5573 0.0
C1959 C 0.62953 0.84015 0.5585 0.0
C1960 C 0.61843 0.83731 0.56674 0.0
C1961 C 0.61824 0.84815 0.57352 0.0
C1962 C 0.65267 0.85728 0.54899 0.0
C1963 C 0.60669 0.82283 0.5683 0.0
C1964 C 0.61133 0.85106 0.47748 0.0
C1965 C 0.62466 0.85316 0.47871 0.0
C1966 C 0.627 0.84328 0.48455 0.0
C1967 C 0.61577 0.83096 0.48905 0.0
C1968 C 0.60227 0.82843 0.48706 0.0
C1969 C 0.60023 0.83852 0.48122 0.0
C1970 C 0.64152 0.84617 0.48625 0.0
C1971 C 0.59007 0.8153 0.49153 0.0
C1972 C 0.62473 0.74336 0.48043 0.0
C1973 C 0.62106 0.74798 0.46776 0.0
C1974 C 0.62629 0.77138 0.47418 0.0
C1975 C 0.63664 0.78514 0.47411 0.0
C1976 C 0.63555 0.7952 0.48137 0.0
C1977 C 0.62358 0.7914 0.48864 0.0
C1978 C 0.61285 0.77753 0.48847 0.0
C1979 C 0.61437 0.76762 0.48137 0.0
C1980 C 0.64722 0.80987 0.48128 0.0
C1981 C 0.59979 0.77318 0.49581 0.0
C1982 C 0.63398 0.80969 0.5508 0.0
C1983 C 0.63341 0.82036 0.55739 0.0
C1984 C 0.62966 0.82887 0.55092 0.0
C1985 C 0.62636 0.82673 0.53745 0.0
C1986 C 0.62233 0.83496 0.53068 0.0
C1987 C 0.61962 0.83315 0.51734 0.0
C1988 C 0.62063 0.82289 0.51028 0.0
C1989 C 0.61826 0.82124 0.49664 0.0
C1990 C 0.61903 0.81075 0.48995 0.0
C1991 C 0.62238 0.80194 0.49648 0.0
C1992 C 0.62509 0.80363 0.51008 0.0
C1993 C 0.62881 0.79519 0.51693 0.0
C1994 C 0.63155 0.79702 0.53029 0.0
C1995 C 0.6309 0.80751 0.53729 0.0
C1996 C 0.62713 0.81611 0.53059 0.0
C1997 C 0.6242 0.81415 0.51699 0.0
C1998 C 0.60953 0.87993 0.48391 0.0
C1999 C 0.61695 0.87491 0.47485 0.0
O2000 O 0.65009 0.78024 0.58381 0.0
O2001 O 0.6283 0.76221 0.46717 0.0
O2002 O 0.60881 0.86084 0.47275 0.0
O2003 O 0.62873 0.87274 0.57776 0.0
H2004 H 0.63559 0.7741 0.59812 0.0
H2005 H 0.65125 0.7994 0.60045 0.0
H2006 H 0.66565 0.79686 0.6032 0.0
H2007 H 0.65192 0.7908 0.61485 0.0
H2008 H 0.62445 0.77507 0.58045 0.0
H2009 H 0.66591 0.79882 0.56771 0.0
H2010 H 0.6121 0.79508 0.5703 0.0
H2011 H 0.60643 0.77699 0.57099 0.0
H2012 H 0.60946 0.7854 0.55547 0.0
H2013 H 0.67284 0.81678 0.55272 0.0
H2014 H 0.66282 0.82525 0.55326 0.0
H2015 H 0.65992 0.81312 0.5404 0.0
H2016 H 0.61769 0.86408 0.59425 0.0
H2017 H 0.60004 0.87091 0.58914 0.0
H2018 H 0.60095 0.86033 0.57637 0.0
H2019 H 0.60869 0.87851 0.57412 0.0
H2020 H 0.64783 0.87507 0.56277 0.0
H2021 H 0.60975 0.84583 0.57984 0.0
H2022 H 0.64967 0.85628 0.53854 0.0
H2023 H 0.65643 0.85001 0.55083 0.0
H2024 H 0.6612 0.86793 0.55087 0.0
H2025 H 0.59807 0.82253 0.57377 0.0
H2026 H 0.61036 0.81676 0.57367 0.0
H2027 H 0.60281 0.8178 0.55861 0.0
H2028 H 0.62661 0.87753 0.48015 0.0
H2029 H 0.63327 0.8625 0.47517 0.0
H2030 H 0.58996 0.83686 0.47996 0.0
H2031 H 0.64406 0.84678 0.4968 0.0
H2032 H 0.64909 0.85595 0.48168 0.0
H2033 H 0.6425 0.83763 0.48188 0.0
H2034 H 0.5802 0.81457 0.48866 0.0
H2035 H 0.59048 0.81472 0.50231 0.0
H2036 H 0.59039 0.80631 0.48733 0.0
H2037 H 0.60987 0.74417 0.46735 0.0
H2038 H 0.61895 0.73197 0.48104 0.0
H2039 H 0.62204 0.7476 0.48902 0.0
H2040 H 0.63588 0.74702 0.4809 0.0
H2041 H 0.64575 0.78795 0.46848 0.0
H2042 H 0.6062 0.75703 0.48147 0.0
H2043 H 0.64999 0.81408 0.49139 0.0
H2044 H 0.64394 0.81627 0.4759 0.0
H2045 H 0.65646 0.8108 0.47653 0.0
H2046 H 0.59179 0.76243 0.4934 0.0
H2047 H 0.59569 0.7801 0.49358 0.0
H2048 H 0.60197 0.77401 0.50645 0.0
H2049 H 0.63594 0.82207 0.56773 0.0
H2050 H 0.62133 0.84299 0.53559 0.0
H2051 H 0.61674 0.83992 0.51265 0.0
H2052 H 0.61725 0.80958 0.47948 0.0
H2053 H 0.62968 0.78707 0.51204 0.0
H2054 H 0.63432 0.79019 0.53505 0.0
H2055 H 0.59894 0.87641 0.48036 0.0
H2056 H 0.61528 0.89133 0.48476 0.0
H2057 H 0.60881 0.87569 0.49379 0.0
C2058 C 0.13969 0.76776 0.61397 0.0
C2059 C 0.12908 0.76762 0.6045 0.0
C2060 C 0.13854 0.77186 0.58284 0.0
C2061 C 0.13653 0.78251 0.57853 0.0
C2062 C 0.14536 0.79197 0.56943 0.0
C2063 C 0.15647 0.79076 0.56465 0.0
C2064 C 0.15818 0.77967 0.56862 0.0
C2065 C 0.14901 0.77021 0.57754 0.0
C2066 C 0.14304 0.80346 0.56519 0.0
C2067 C 0.16999 0.77814 0.56387 0.0
C2068 C 0.22453 0.86044 0.60972 0.0
C2069 C 0.23278 0.86951 0.59837 0.0
C2070 C 0.21596 0.85855 0.58041 0.0
C2071 C 0.21748 0.84694 0.57881 0.0
C2072 C 0.20855 0.83593 0.57061 0.0
C2073 C 0.19781 0.83648 0.56396 0.0
C2074 C 0.19641 0.84826 0.56533 0.0
C2075 C 0.20563 0.85921 0.57344 0.0
C2076 C 0.21042 0.82358 0.56923 0.0
C2077 C 0.185 0.84913 0.55848 0.0
C2078 C 0.22415 0.85158 0.48062 0.0
C2079 C 0.22437 0.83958 0.48397 0.0
C2080 C 0.21343 0.82895 0.49062 0.0
C2081 C 0.20188 0.83017 0.49376 0.0
C2082 C 0.20138 0.84197 0.48996 0.0
C2083 C 0.21259 0.85257 0.48355 0.0
C2084 C 0.2143 0.81648 0.49448 0.0
C2085 C 0.18909 0.84349 0.49286 0.0
C2086 C 0.11157 0.72521 0.48613 0.0
C2087 C 0.11793 0.73926 0.4797 0.0
C2088 C 0.14141 0.75792 0.48391 0.0
C2089 C 0.15401 0.76014 0.48861 0.0
C2090 C 0.16372 0.77289 0.49406 0.0
C2091 C 0.16077 0.78373 0.49464 0.0
C2092 C 0.14838 0.78182 0.48917 0.0
C2093 C 0.13882 0.76893 0.4838 0.0
C2094 C 0.17694 0.77463 0.49961 0.0
C2095 C 0.14509 0.79328 0.48937 0.0
C2096 C 0.16702 0.8018 0.55654 0.0
C2097 C 0.17695 0.81369 0.56301 0.0
C2098 C 0.18756 0.82438 0.55624 0.0
C2099 C 0.18839 0.82325 0.54258 0.0
C2100 C 0.19911 0.83368 0.53551 0.0
C2101 C 0.19985 0.83245 0.52206 0.0
C2102 C 0.1899 0.82074 0.51516 0.0
C2103 C 0.19061 0.81936 0.50149 0.0
C2104 C 0.1808 0.80736 0.49502 0.0
C2105 C 0.17021 0.79665 0.50184 0.0
C2106 C 0.16913 0.798 0.51545 0.0
C2107 C 0.15843 0.78754 0.52256 0.0
C2108 C 0.15761 0.78882 0.53599 0.0
C2109 C 0.16753 0.80055 0.54285 0.0
C2110 C 0.17829 0.81131 0.53585 0.0
C2111 C 0.17906 0.81005 0.52213 0.0
C2112 C 0.25687 0.8668 0.48237 0.0
C2113 C 0.24701 0.86354 0.4707 0.0
O2114 O 0.13066 0.76323 0.59227 0.0
O2115 O 0.13205 0.74505 0.47967 0.0
O2116 O 0.23481 0.86246 0.47476 0.0
O2117 O 0.22403 0.86923 0.58864 0.0
H2118 H 0.13093 0.77832 0.60412 0.0
H2119 H 0.15018 0.77503 0.61057 0.0
H2120 H 0.13854 0.75736 0.61459 0.0
H2121 H 0.1385 0.77117 0.62386 0.0
H2122 H 0.12812 0.78348 0.58239 0.0
H2123 H 0.15034 0.76182 0.58085 0.0
H2124 H 0.1512 0.81334 0.56948 0.0
H2125 H 0.13295 0.80187 0.56833 0.0
H2126 H 0.14366 0.80437 0.55441 0.0
H2127 H 0.17023 0.76932 0.56837 0.0
H2128 H 0.17983 0.78768 0.5661 0.0
H2129 H 0.1692 0.77658 0.55312 0.0
H2130 H 0.23949 0.86578 0.59435 0.0
H2131 H 0.23153 0.86087 0.61761 0.0
H2132 H 0.2182 0.84956 0.60642 0.0
H2133 H 0.21761 0.86392 0.61373 0.0
H2134 H 0.22551 0.84628 0.58397 0.0
H2135 H 0.20457 0.86823 0.57467 0.0
H2136 H 0.20171 0.8146 0.57384 0.0
H2137 H 0.2201 0.82533 0.57389 0.0
H2138 H 0.21042 0.82094 0.55876 0.0
H2139 H 0.18507 0.85884 0.56087 0.0
H2140 H 0.17495 0.84031 0.56124 0.0
H2141 H 0.18596 0.84846 0.54777 0.0
H2142 H 0.24504 0.85363 0.46623 0.0
H2143 H 0.23308 0.83844 0.48163 0.0
H2144 H 0.21242 0.86178 0.48086 0.0
H2145 H 0.21236 0.81462 0.50506 0.0
H2146 H 0.22443 0.81758 0.49229 0.0
H2147 H 0.20627 0.80729 0.48912 0.0
H2148 H 0.18959 0.85248 0.48794 0.0
H2149 H 0.1885 0.8448 0.50353 0.0
H2150 H 0.17953 0.83406 0.4897 0.0
H2151 H 0.11489 0.74554 0.4858 0.0
H2152 H 0.10022 0.72028 0.48611 0.0
H2153 H 0.11525 0.72649 0.4964 0.0
H2154 H 0.11448 0.71832 0.48094 0.0
H2155 H 0.15601 0.75165 0.48841 0.0
H2156 H 0.12934 0.76748 0.47961 0.0
H2157 H 0.17738 0.77653 0.5103 0.0
H2158 H 0.18579 0.78371 0.49528 0.0
H2159 H 0.178 0.76545 0.49778 0.0
H2160 H 0.13534 0.7904 0.48412 0.0
H2161 H 0.15352 0.80257 0.48484 0.0
H2162 H 0.14427 0.79604 0.49963 0.0
H2163 H 0.1765 0.81457 0.57352 0.0
H2164 H 0.20707 0.84291 0.5403 0.0
H2165 H 0.20838 0.8408 0.51716 0.0
H2166 H 0.18156 0.80623 0.48458 0.0
H2167 H 0.15056 0.77822 0.51783 0.0
H2168 H 0.14916 0.78046 0.54096 0.0
H2169 H 0.25756 0.87536 0.48847 0.0
H2170 H 0.26725 0.86955 0.47894 0.0
H2171 H 0.25324 0.85773 0.48869 0.0
C2172 C 0.14419 0.36678 0.60961 0.0
C2173 C 0.13415 0.36503 0.59859 0.0
C2174 C 0.14466 0.35951 0.58024 0.0
C2175 C 0.15544 0.37299 0.57825 0.0
C2176 C 0.16611 0.37552 0.56973 0.0
C2177 C 0.16612 0.36438 0.56318 0.0
C2178 C 0.15517 0.35085 0.56494 0.0
C2179 C 0.1445 0.34862 0.57336 0.0
C2180 C 0.17752 0.39012 0.5679 0.0
C2181 C 0.15489 0.33873 0.55813 0.0
C2182 C 0.26651 0.39409 0.58439 0.0
C2183 C 0.25476 0.3815 0.59084 0.0
C2184 C 0.23521 0.37237 0.57536 0.0
C2185 C 0.2265 0.36092 0.56763 0.0
C2186 C 0.21525 0.36018 0.56096 0.0
C2187 C 0.21291 0.37142 0.56177 0.0
C2188 C 0.2217 0.38309 0.56956 0.0
C2189 C 0.23268 0.38339 0.5764 0.0
C2190 C 0.2059 0.34739 0.55306 0.0
C2191 C 0.21953 0.39527 0.57064 0.0
C2192 C 0.2386 0.38937 0.47766 0.0
C2193 C 0.22999 0.37578 0.48148 0.0
C2194 C 0.21805 0.3722 0.48853 0.0
C2195 C 0.21487 0.38252 0.49203 0.0
C2196 C 0.22347 0.39619 0.48798 0.0
C2197 C 0.23512 0.39938 0.48064 0.0
C2198 C 0.20884 0.3574 0.4922 0.0
C2199 C 0.22043 0.40747 0.49148 0.0
C2200 C 0.11963 0.37668 0.48558 0.0
C2201 C 0.12723 0.37761 0.47297 0.0
C2202 C 0.144 0.37079 0.4798 0.0
C2203 C 0.14658 0.35987 0.47986 0.0
C2204 C 0.15801 0.36093 0.48647 0.0
C2205 C 0.1672 0.37336 0.49305 0.0
C2206 C 0.16485 0.38461 0.49281 0.0
C2207 C 0.1532 0.38318 0.4863 0.0
C2208 C 0.16017 0.34873 0.48657 0.0
C2209 C 0.1746 0.39811 0.49952 0.0
C2210 C 0.17797 0.36691 0.55502 0.0
C2211 C 0.18943 0.36782 0.56132 0.0
C2212 C 0.20127 0.37093 0.55446 0.0
C2213 C 0.20181 0.37331 0.54091 0.0
C2214 C 0.21376 0.37704 0.5338 0.0
C2215 C 0.21409 0.37905 0.52043 0.0
C2216 C 0.20246 0.37735 0.51362 0.0
C2217 C 0.20259 0.37905 0.49996 0.0
C2218 C 0.19094 0.37759 0.49357 0.0
C2219 C 0.17909 0.3745 0.50044 0.0
C2220 C 0.17871 0.37259 0.51407 0.0
C2221 C 0.16691 0.36935 0.52127 0.0
C2222 C 0.16668 0.3676 0.53469 0.0
C2223 C 0.17814 0.36879 0.5414 0.0
C2224 C 0.19012 0.37201 0.53433 0.0
C2225 C 0.19043 0.37398 0.52066 0.0
C2226 C 0.27227 0.40268 0.47996 0.0
C2227 C 0.26013 0.38985 0.47376 0.0
O2228 O 0.13436 0.35652 0.58877 0.0
O2229 O 0.13253 0.36883 0.47341 0.0
O2230 O 0.25005 0.39302 0.47067 0.0
O2231 O 0.24592 0.37232 0.58145 0.0
H2232 H 0.13704 0.37525 0.59456 0.0
H2233 H 0.15483 0.3717 0.60596 0.0
H2234 H 0.14153 0.35662 0.61367 0.0
H2235 H 0.14391 0.37344 0.61756 0.0
H2236 H 0.1557 0.3816 0.58333 0.0
H2237 H 0.13613 0.33828 0.57487 0.0
H2238 H 0.1872 0.39136 0.57203 0.0
H2239 H 0.17539 0.39775 0.57273 0.0
H2240 H 0.17911 0.39241 0.55735 0.0
H2241 H 0.14575 0.32882 0.56069 0.0
H2242 H 0.16425 0.33833 0.56077 0.0
H2243 H 0.15491 0.33998 0.54741 0.0
H2244 H 0.24911 0.38491 0.59733 0.0
H2245 H 0.27372 0.40128 0.59196 0.0
H2246 H 0.26251 0.39967 0.57867 0.0
H2247 H 0.27221 0.39097 0.57769 0.0
H2248 H 0.2285 0.35245 0.56692 0.0
H2249 H 0.23928 0.39233 0.58236 0.0
H2250 H 0.20728 0.34976 0.54252 0.0
H2251 H 0.19502 0.3438 0.55537 0.0
H2252 H 0.20802 0.3389 0.55487 0.0
H2253 H 0.22824 0.40423 0.57566 0.0
H2254 H 0.21009 0.39232 0.57625 0.0
H2255 H 0.21807 0.39841 0.56081 0.0
H2256 H 0.2564 0.38148 0.481 0.0
H2257 H 0.23246 0.36794 0.47872 0.0
H2258 H 0.24176 0.4098 0.47743 0.0
H2259 H 0.2095 0.35639 0.50289 0.0
H2260 H 0.21172 0.35038 0.48724 0.0
H2261 H 0.19801 0.35407 0.48969 0.0
H2262 H 0.22887 0.41779 0.48876 0.0
H2263 H 0.21867 0.40751 0.50212 0.0
H2264 H 0.21092 0.40554 0.48634 0.0
H2265 H 0.13565 0.38836 0.47168 0.0
H2266 H 0.1153 0.38365 0.48523 0.0
H2267 H 0.12675 0.3798 0.49409 0.0
H2268 H 0.11117 0.36598 0.48702 0.0
H2269 H 0.13946 0.35037 0.4748 0.0
H2270 H 0.15141 0.39177 0.48641 0.0
H2271 H 0.16101 0.34602 0.49678 0.0
H2272 H 0.16994 0.35142 0.48169 0.0
H2273 H 0.15172 0.33957 0.48152 0.0
H2274 H 0.17211 0.40627 0.49733 0.0
H2275 H 0.18527 0.40162 0.49649 0.0
H2276 H 0.17417 0.39668 0.51023 0.0
H2277 H 0.18915 0.36616 0.57174 0.0
H2278 H 0.223 0.37843 0.5385 0.0
H2279 H 0.22358 0.3819 0.51548 0.0
H2280 H 0.19111 0.37897 0.4831 0.0
H2281 H 0.15773 0.36816 0.51662 0.0
H2282 H 0.15735 0.36519 0.53973 0.0
H2283 H 0.27684 0.41113 0.47282 0.0
H2284 H 0.28028 0.40046 0.48349 0.0
H2285 H 0.26874 0.40622 0.48848 0.0
H2286 H 0.98368 0.35441 0.04979 0.0
H2287 H 0.98421 0.36838 0.06855 0.0
H2288 H 0.01321 0.40516 0.04884 0.0
H2289 H 0.01298 0.39126 0.03026 0.0
H2290 H 0.02191 0.405 0.07258 0.0
H2291 H 0.97922 0.39655 0.05352 0.0
H2292 H 0.95577 0.38222 0.04468 0.0
H2293 H 0.94265 0.36207 0.08141 0.0
H2294 H 0.96608 0.37616 0.09042 0.0
H2295 H 0.02534 0.45354 0.11782 0.0
H2296 H 0.01983 0.44003 0.0976 0.0
H2297 H 0.9916 0.40357 0.11817 0.0
H2298 H 0.9967 0.41721 0.13841 0.0
H2299 H 0.98185 0.40342 0.09404 0.0
H2300 H 0.02427 0.41095 0.11282 0.0
H2301 H 0.04766 0.42491 0.12194 0.0
H2302 H 0.06121 0.44617 0.08577 0.0
H2303 H 0.03784 0.43247 0.0765 0.0
C2304 C 0.99003 0.36549 0.04942 0.0
C2305 C 0.99834 0.37175 0.03861 0.0
C2306 C 0.99028 0.37347 0.06011 0.0
C2307 C 0.99869 0.38784 0.06008 0.0
C2308 C 0.00667 0.3941 0.0491 0.0
C2309 C 0.00651 0.38614 0.03848 0.0
C2310 C 1e-05 0.39633 0.07179 0.0
C2311 C 0.01316 0.40482 0.07712 0.0
C2312 C 0.98855 0.39575 0.07799 0.0
C2313 C 0.97444 0.38733 0.0726 0.0
C2314 C 0.97136 0.389 0.05968 0.0
C2315 C 0.95807 0.38093 0.05464 0.0
C2316 C 0.94773 0.37122 0.06246 0.0
C2317 C 0.95067 0.36959 0.07535 0.0
C2318 C 0.96395 0.37762 0.08044 0.0
C2319 C 0.01768 0.44273 0.11799 0.0
C2320 C 0.0113 0.43645 0.12968 0.0
C2321 C 0.01463 0.43499 0.10644 0.0
C2322 C 0.00546 0.42075 0.10642 0.0
C2323 C 0.99869 0.41455 0.11796 0.0
C2324 C 0.00161 0.42232 0.1295 0.0
C2325 C 0.00377 0.41222 0.09464 0.0
C2326 C 0.99058 0.40366 0.08939 0.0
C2327 C 0.01518 0.41264 0.08851 0.0
C2328 C 0.02928 0.42077 0.09401 0.0
C2329 C 0.03222 0.41866 0.10684 0.0
C2330 C 0.04547 0.42652 0.11203 0.0
C2331 C 0.05591 0.43644 0.10445 0.0
C2332 C 0.05312 0.43849 0.09164 0.0
C2333 C 0.03987 0.43068 0.08641 0.0
H2334 H 0.06616 0.44252 0.10848 0.0
H2335 H 0.93745 0.36499 0.05855 0.0
H2336 H 0.65048 0.63233 0.05516 0.0
H2337 H 0.64052 0.61633 0.0731 0.0
H2338 H 0.61167 0.58525 0.04627 0.0
H2339 H 0.6214 0.60136 0.02832 0.0
H2340 H 0.59887 0.58686 0.06699 0.0
H2341 H 0.6388 0.58324 0.05993 0.0
H2342 H 0.66341 0.59153 0.0571 0.0
H2343 H 0.67202 0.60983 0.09551 0.0
H2344 H 0.64748 0.6018 0.0985 0.0
H2345 H 0.57555 0.53169 0.1121 0.0
H2346 H 0.58597 0.54657 0.09339 0.0
H2347 H 0.61106 0.58056 0.11945 0.0
H2348 H 0.60064 0.56604 0.13812 0.0
H2349 H 0.62574 0.57672 0.09889 0.0
H2350 H 0.58566 0.58065 0.10545 0.0
H2351 H 0.56097 0.57195 0.10817 0.0
H2352 H 0.55264 0.55243 0.07032 0.0
H2353 H 0.57728 0.56085 0.06746 0.0
C2354 C 0.64213 0.62203 0.05305 0.0
C2355 C 0.63672 0.61809 0.04034 0.0
C2356 C 0.63647 0.61287 0.06331 0.0
C2357 C 0.62541 0.59953 0.06103 0.0
C2358 C 0.62019 0.59549 0.04827 0.0
C2359 C 0.6258 0.60468 0.03801 0.0
C2360 C 0.61886 0.59006 0.07204 0.0
C2361 C 0.60472 0.58446 0.07382 0.0
C2362 C 0.62653 0.58717 0.08115 0.0
C2363 C 0.64131 0.59202 0.07939 0.0
C2364 C 0.64595 0.58913 0.06773 0.0
C2365 C 0.65989 0.59376 0.06611 0.0
C2366 C 0.66927 0.60123 0.07611 0.0
C2367 C 0.66474 0.60405 0.08776 0.0
C2368 C 0.65081 0.59945 0.08943 0.0
C2369 C 0.5833 0.54234 0.11384 0.0
C2370 C 0.58739 0.54746 0.12666 0.0
C2371 C 0.58921 0.55082 0.10315 0.0
C2372 C 0.59934 0.56463 0.10507 0.0
C2373 C 0.60334 0.56988 0.11779 0.0
C2374 C 0.59732 0.56147 0.1285 0.0
C2375 C 0.60582 0.57359 0.09378 0.0
C2376 C 0.61992 0.57909 0.09198 0.0
C2377 C 0.59812 0.57632 0.08461 0.0
C2378 C 0.5833 0.57125 0.0863 0.0
C2379 C 0.57855 0.57439 0.09776 0.0
C2380 C 0.56456 0.56953 0.09932 0.0
C2381 C 0.55523 0.56161 0.08944 0.0
C2382 C 0.55987 0.55855 0.07797 0.0
C2383 C 0.57385 0.56337 0.07638 0.0
H2384 H 0.54441 0.55787 0.09066 0.0
H2385 H 0.68006 0.60481 0.07483 0.0
H2386 H 0.37064 0.98347 0.03409 0.0
H2387 H 0.38336 0.98558 0.05412 0.0
H2388 H 0.38892 0.02598 0.06135 0.0
H2389 H 0.37626 0.024 0.04111 0.0
H2390 H 0.41243 0.02524 0.0658 0.0
H2391 H 0.36565 0.99928 0.07849 0.0
H2392 H 0.34158 0.98067 0.07676 0.0
H2393 H 0.35411 0.95056 0.08081 0.0
H2394 H 0.3783 0.96899 0.08241 0.0
H2395 H 0.43626 0.02896 0.13083 0.0
H2396 H 0.4226 0.02834 0.11193 0.0
H2397 H 0.41455 0.98752 0.10192 0.0
H2398 H 0.428 0.988 0.12099 0.0
H2399 H 0.39176 0.98949 0.09956 0.0
H2400 H 0.43862 0.01555 0.08566 0.0
H2401 H 0.46269 0.03421 0.08733 0.0
H2402 H 0.44983 0.06425 0.08558 0.0
H2403 H 0.42565 0.04574 0.08407 0.0
C2404 C 0.37457 0.99282 0.03992 0.0
C2405 C 0.37241 0.00355 0.03607 0.0
C2406 C 0.38179 0.99398 0.0514 0.0
C2407 C 0.3869 0.00584 0.05932 0.0
C2408 C 0.385 0.01671 0.05539 0.0
C2409 C 0.37776 0.01556 0.04386 0.0
C2410 C 0.39428 0.00682 0.07165 0.0
C2411 C 0.40784 0.01756 0.07329 0.0
C2412 C 0.38835 0.99665 0.0813 0.0
C2413 C 0.3738 0.98553 0.08047 0.0
C2414 C 0.36329 0.98869 0.07893 0.0
C2415 C 0.34962 0.97817 0.07798 0.0
C2416 C 0.34631 0.96444 0.07863 0.0
C2417 C 0.35668 0.9612 0.08029 0.0
C2418 C 0.37037 0.97168 0.08124 0.0
C2419 C 0.43164 0.0199 0.12454 0.0
C2420 C 0.4335 0.00868 0.12716 0.0
C2421 C 0.42386 0.01955 0.11376 0.0
C2422 C 0.41778 0.00799 0.10538 0.0
C2423 C 0.41924 0.99659 0.1082 0.0
C2424 C 0.427 0.99691 0.11902 0.0
C2425 C 0.40996 0.00781 0.09363 0.0
C2426 C 0.39632 0.99721 0.09211 0.0
C2427 C 0.4158 0.01813 0.0841 0.0
C2428 C 0.43033 0.02926 0.08488 0.0
C2429 C 0.44092 0.02613 0.08572 0.0
C2430 C 0.45458 0.03668 0.08662 0.0
C2431 C 0.45778 0.05041 0.08659 0.0
C2432 C 0.44733 0.05361 0.08562 0.0
C2433 C 0.43365 0.0431 0.08473 0.0
H2434 H 0.46836 0.05857 0.0873 0.0
H2435 H 0.33572 0.95632 0.07789 0.0
H2436 H 0.35256 0.97842 0.9608 0.0
H2437 H 0.36561 0.97906 0.9415 0.0
H2438 H 0.40322 0.00772 0.96152 0.0
H2439 H 0.39027 0.00737 0.9806 0.0
H2440 H 0.4016 0.01703 0.93846 0.0
H2441 H 0.39425 0.97378 0.95494 0.0
H2442 H 0.38027 0.94995 0.96241 0.0
H2443 H 0.35941 0.9379 0.92529 0.0
H2444 H 0.37315 0.9617 0.91765 0.0
H2445 H 0.45064 0.0227 0.89431 0.0
H2446 H 0.43672 0.01652 0.91384 0.0
H2447 H 0.40116 0.98792 0.89115 0.0
H2448 H 0.41526 0.99364 0.87159 0.0
H2449 H 0.40058 0.97776 0.91477 0.0
H2450 H 0.40741 0.02038 0.89817 0.0
H2451 H 0.42087 0.0441 0.89029 0.0
H2452 H 0.44176 0.05731 0.92734 0.0
H2453 H 0.42856 0.03362 0.93538 0.0
C2454 C 0.36363 0.98468 0.96112 0.0
C2455 C 0.3704 0.99291 0.97215 0.0
C2456 C 0.37108 0.98501 0.95012 0.0
C2457 C 0.38541 0.99344 0.95007 0.0
C2458 C 0.39217 0.0012 0.9613 0.0
C2459 C 0.38476 0.00097 0.97221 0.0
C2460 C 0.39337 0.9951 0.93809 0.0
C2461 C 0.40152 0.00845 0.9334 0.0
C2462 C 0.39286 0.98386 0.9312 0.0
C2463 C 0.38464 0.96955 0.93577 0.0
C2464 C 0.38661 0.96607 0.94841 0.0
C2465 C 0.37874 0.95256 0.95266 0.0
C2466 C 0.36893 0.94242 0.94434 0.0
C2467 C 0.367 0.94576 0.93173 0.0
C2468 C 0.37483 0.95925 0.92743 0.0
C2469 C 0.43994 0.01484 0.89351 0.0
C2470 C 0.43406 0.00852 0.88142 0.0
C2471 C 0.43196 0.01141 0.90467 0.0
C2472 C 0.41784 0.00194 0.90391 0.0
C2473 C 0.41203 0.99525 0.89197 0.0
C2474 C 0.42007 0.99853 0.88081 0.0
C2475 C 0.40907 0.99973 0.91539 0.0
C2476 C 0.40068 0.98632 0.91988 0.0
C2477 C 0.40924 0.0109 0.9221 0.0
C2478 C 0.41707 0.0252 0.91734 0.0
C2479 C 0.41493 0.02833 0.90461 0.0
C2480 C 0.42251 0.04177 0.90011 0.0
C2481 C 0.43218 0.0522 0.9083 0.0
C2482 C 0.43427 0.04922 0.92101 0.0
C2483 C 0.42673 0.03579 0.92554 0.0
H2484 H 0.43805 0.0626 0.9048 0.0
H2485 H 0.36285 0.93198 0.94766 0.0
H2486 H 0.98417 0.36678 0.97719 0.0
H2487 H 0.9848 0.37897 0.95752 0.0
H2488 H 0.02623 0.38822 0.9506 0.0
H2489 H 0.02576 0.37614 0.97058 0.0
H2490 H 0.02324 0.41034 0.94636 0.0
H2491 H 0.00017 0.36336 0.93268 0.0
H2492 H 0.98326 0.33863 0.93381 0.0
H2493 H 0.95044 0.34743 0.93047 0.0
H2494 H 0.96717 0.37224 0.92952 0.0
H2495 H 0.02028 0.43239 0.88181 0.0
H2496 H 0.02258 0.41985 0.9001 0.0
H2497 H 0.98209 0.40913 0.91285 0.0
H2498 H 0.97973 0.42163 0.89453 0.0
H2499 H 0.98637 0.38713 0.91286 0.0
H2500 H 0.00996 0.43442 0.92826 0.0
H2501 H 0.02716 0.45906 0.927 0.0
H2502 H 0.05944 0.44932 0.92659 0.0
H2503 H 0.04241 0.42459 0.92767 0.0
C2504 C 0.99344 0.3714 0.97151 0.0
C2505 C 0.0049 0.37044 0.97538 0.0
C2506 C 0.99375 0.37832 0.96022 0.0
C2507 C 0.00547 0.38429 0.95247 0.0
C2508 C 0.01706 0.3836 0.95642 0.0
C2509 C 0.01677 0.3767 0.9678 0.0
C2510 C 0.00547 0.39129 0.94031 0.0
C2511 C 0.01534 0.4052 0.93891 0.0
C2512 C 0.99505 0.38461 0.93067 0.0
C2513 C 0.98494 0.36968 0.93112 0.0
C2514 C 0.98935 0.36003 0.93227 0.0
C2515 C 0.97979 0.346 0.93287 0.0
C2516 C 0.96578 0.34146 0.93223 0.0
C2517 C 0.9613 0.35096 0.93097 0.0
C2518 C 0.97082 0.36501 0.93038 0.0
C2519 C 0.01191 0.42742 0.88857 0.0
C2520 C 0.9999 0.42813 0.88687 0.0
C2521 C 0.01324 0.42028 0.899 0.0
C2522 C 0.00256 0.41369 0.9079 0.0
C2523 C 0.99046 0.41418 0.9061 0.0
C2524 C 0.98915 0.42136 0.8957 0.0
C2525 C 0.00394 0.40623 0.91908 0.0
C2526 C 0.99434 0.39222 0.92026 0.0
C2527 C 0.01466 0.41279 0.92845 0.0
C2528 C 0.02491 0.42765 0.9279 0.0
C2529 C 0.02072 0.43753 0.9278 0.0
C2530 C 0.03044 0.45151 0.92714 0.0
C2531 C 0.04438 0.45575 0.92668 0.0
C2532 C 0.04864 0.44602 0.92692 0.0
C2533 C 0.03896 0.43202 0.92757 0.0
H2534 H 0.05189 0.46658 0.92616 0.0
H2535 H 0.9584 0.33059 0.9327 0.0
H2536 H 0.63106 0.62786 0.96893 0.0
H2537 H 0.61445 0.6203 0.95088 0.0
H2538 H 0.58867 0.63053 0.97365 0.0
H2539 H 0.60547 0.63847 0.99173 0.0
H2540 H 0.57534 0.60282 0.95997 0.0
H2541 H 0.60369 0.6512 0.95255 0.0
H2542 H 0.62558 0.67283 0.9502 0.0
H2543 H 0.63582 0.65538 0.91771 0.0
H2544 H 0.61406 0.63355 0.91999 0.0
H2545 H 0.5313 0.59788 0.9072 0.0
H2546 H 0.54657 0.60573 0.92636 0.0
H2547 H 0.5777 0.6034 0.90411 0.0
H2548 H 0.56241 0.59539 0.88494 0.0
H2549 H 0.58786 0.62771 0.91814 0.0
H2550 H 0.56056 0.57954 0.92543 0.0
H2551 H 0.53931 0.55727 0.9277 0.0
H2552 H 0.52767 0.57346 0.96019 0.0
H2553 H 0.54877 0.59592 0.95799 0.0
C2554 C 0.62185 0.62849 0.97011 0.0
C2555 C 0.61954 0.63376 0.98171 0.0
C2556 C 0.6124 0.62419 0.9598 0.0
C2557 C 0.6004 0.6249 0.96096 0.0
C2558 C 0.5979 0.62992 0.97261 0.0
C2559 C 0.6075 0.63448 0.98288 0.0
C2560 C 0.59059 0.62051 0.94987 0.0
C2561 C 0.57792 0.60838 0.95089 0.0
C2562 C 0.59422 0.62758 0.93796 0.0
C2563 C 0.60731 0.64069 0.93653 0.0
C2564 C 0.61067 0.65192 0.94498 0.0
C2565 C 0.62304 0.66423 0.94365 0.0
C2566 C 0.63211 0.66546 0.93384 0.0
C2567 C 0.6288 0.6544 0.92532 0.0
C2568 C 0.61644 0.64206 0.92662 0.0
C2569 C 0.54138 0.59897 0.90642 0.0
C2570 C 0.54567 0.596 0.89459 0.0
C2571 C 0.55007 0.60344 0.91737 0.0
C2572 C 0.56323 0.60508 0.91665 0.0
C2573 C 0.56758 0.60221 0.90484 0.0
C2574 C 0.55885 0.59762 0.89393 0.0
C2575 C 0.57255 0.60999 0.92819 0.0
C2576 C 0.58517 0.6222 0.92724 0.0
C2577 C 0.56891 0.60292 0.94013 0.0
C2578 C 0.55616 0.58947 0.94144 0.0
C2579 C 0.5534 0.5784 0.93297 0.0
C2580 C 0.5414 0.56573 0.93426 0.0
C2581 C 0.53212 0.56397 0.94405 0.0
C2582 C 0.53485 0.57486 0.95259 0.0
C2583 C 0.54683 0.58756 0.95133 0.0
H2584 H 0.52285 0.55414 0.94505 0.0
H2585 H 0.64168 0.675 0.93281 0.0
H2586 H 0.02722 0.65093 0.97147 0.0
H2587 H 0.03103 0.64025 0.95217 0.0
H2588 H 0.99625 0.60119 0.96213 0.0
H2589 H 0.99215 0.61188 0.98112 0.0
H2590 H 0.03674 0.6207 0.94781 0.0
H2591 H 0.97937 0.58342 0.9351 0.0
H2592 H 0.95707 0.58225 0.93769 0.0
H2593 H 0.9772 0.62633 0.93948 0.0
H2594 H 0.99959 0.62776 0.93672 0.0
H2595 H 0.03403 0.57429 0.89956 0.0
H2596 H 0.02968 0.58377 0.91927 0.0
H2597 H 0.01228 0.60311 0.89595 0.0
H2598 H 0.01587 0.59293 0.87622 0.0
H2599 H 0.99819 0.5944 0.91655 0.0
H2600 H 0.04634 0.62077 0.90849 0.0
H2601 H 0.06946 0.62444 0.90444 0.0
H2602 H 0.06935 0.60696 0.94147 0.0
H2603 H 0.04614 0.60301 0.94566 0.0
C2604 C 0.02045 0.64005 0.96956 0.0
C2605 C 0.00931 0.63226 0.9777 0.0
C2606 C 0.02264 0.63396 0.95856 0.0
C2607 C 0.01377 0.61997 0.95557 0.0
C2608 C 0.00303 0.61206 0.96406 0.0
C2609 C 0.00074 0.61817 0.97494 0.0
C2610 C 0.01552 0.61371 0.94343 0.0
C2611 C 0.02831 0.61494 0.94097 0.0
C2612 C 0.00461 0.60644 0.93436 0.0
C2613 C 0.99116 0.60568 0.93584 0.0
C2614 C 0.97903 0.59286 0.93599 0.0
C2615 C 0.96638 0.59215 0.9375 0.0
C2616 C 0.96572 0.6042 0.93879 0.0
C2617 C 0.97772 0.617 0.93852 0.0
C2618 C 0.9904 0.61776 0.937 0.0
C2619 C 0.02903 0.58033 0.89862 0.0
C2620 C 0.02516 0.58276 0.8863 0.0
C2621 C 0.02669 0.58589 0.90991 0.0
C2622 C 0.02089 0.59439 0.90911 0.0
C2623 C 0.01677 0.59659 0.89685 0.0
C2624 C 0.01884 0.5908 0.88559 0.0
C2625 C 0.01939 0.60126 0.92096 0.0
C2626 C 0.00663 0.60013 0.92338 0.0
C2627 C 0.03045 0.609 0.92977 0.0
C2628 C 0.04446 0.61149 0.92733 0.0
C2629 C 0.05122 0.61764 0.91573 0.0
C2630 C 0.06434 0.61977 0.91342 0.0
C2631 C 0.07086 0.61591 0.92268 0.0
C2632 C 0.06428 0.60993 0.9343 0.0
C2633 C 0.05115 0.60776 0.93665 0.0
H2634 H 0.08102 0.61756 0.92087 0.0
H2635 H 0.95592 0.60363 0.93997 0.0
H2636 H 0.35083 0.38425 0.96642 0.0
H2637 H 0.35884 0.4005 0.94842 0.0
H2638 H 0.40058 0.4116 0.95734 0.0
H2639 H 0.39262 0.39506 0.97514 0.0
H2640 H 0.39388 0.43465 0.9519 0.0
H2641 H 0.39038 0.39266 0.93475 0.0
H2642 H 0.37852 0.36761 0.93075 0.0
H2643 H 0.3464 0.36954 0.90989 0.0
H2644 H 0.35798 0.3946 0.91398 0.0
H2645 H 0.4259 0.46772 0.89294 0.0
H2646 H 0.4186 0.45375 0.91249 0.0
H2647 H 0.37685 0.43303 0.89823 0.0
H2648 H 0.3839 0.44671 0.87873 0.0
H2649 H 0.3837 0.41503 0.90688 0.0
H2650 H 0.38696 0.45666 0.92291 0.0
H2651 H 0.39782 0.4816 0.92721 0.0
H2652 H 0.42918 0.48057 0.95032 0.0
H2653 H 0.41861 0.45564 0.94599 0.0
C2654 C 0.36172 0.39026 0.96462 0.0
C2655 C 0.37112 0.38839 0.97211 0.0
C2656 C 0.36626 0.3995 0.95436 0.0
C2657 C 0.38027 0.40718 0.9516 0.0
C2658 C 0.38973 0.40575 0.95938 0.0
C2659 C 0.38517 0.39629 0.96948 0.0
C2660 C 0.38491 0.41613 0.94013 0.0
C2661 C 0.39185 0.43043 0.94204 0.0
C2662 C 0.3819 0.41051 0.92733 0.0
C2663 C 0.37495 0.39547 0.92482 0.0
C2664 C 0.38071 0.38772 0.92944 0.0
C2665 C 0.37406 0.37352 0.92713 0.0
C2666 C 0.36169 0.36698 0.92011 0.0
C2667 C 0.35597 0.37462 0.91535 0.0
C2668 C 0.36257 0.38882 0.91766 0.0
C2669 C 0.41513 0.46032 0.89403 0.0
C2670 C 0.40557 0.45866 0.88426 0.0
C2671 C 0.41097 0.45235 0.90522 0.0
C2672 C 0.39715 0.44247 0.90689 0.0
C2673 C 0.38757 0.44065 0.89716 0.0
C2674 C 0.39169 0.44861 0.88597 0.0
C2675 C 0.39272 0.43368 0.91856 0.0
C2676 C 0.38579 0.41935 0.91671 0.0
C2677 C 0.39566 0.4393 0.9314 0.0
C2678 C 0.40207 0.4543 0.934 0.0
C2679 C 0.39625 0.46177 0.9288 0.0
C2680 C 0.40234 0.4759 0.93127 0.0
C2681 C 0.41421 0.48267 0.939 0.0
C2682 C 0.41999 0.47532 0.94431 0.0
C2683 C 0.41395 0.46118 0.94186 0.0
H2684 H 0.4189 0.49362 0.94091 0.0
H2685 H 0.35656 0.35599 0.91832 0.0
H2686 H 0.62254 0.0094 0.97965 0.0
H2687 H 0.60802 0.00501 0.96035 0.0
H2688 H 0.60996 0.96839 0.95153 0.0
H2689 H 0.62438 0.97262 0.97106 0.0
H2690 H 0.61563 0.98666 0.93002 0.0
H2691 H 0.58154 0.96332 0.96196 0.0
H2692 H 0.57005 0.96034 0.98302 0.0
H2693 H 0.56313 0.9937 0.97443 0.0
H2694 H 0.57478 0.99702 0.9534 0.0
H2695 H 0.56472 0.96658 0.87952 0.0
H2696 H 0.5765 0.96584 0.8992 0.0
H2697 H 0.57738 0.0023 0.91414 0.0
H2698 H 0.56581 0.00336 0.89427 0.0
H2699 H 0.56921 0.98118 0.93251 0.0
H2700 H 0.60516 0.00594 0.90182 0.0
H2701 H 0.61705 0.00948 0.88092 0.0
H2702 H 0.62072 0.97376 0.88731 0.0
H2703 H 0.60864 0.96988 0.90818 0.0
C2704 C 0.61982 0.00038 0.97365 0.0
C2705 C 0.62456 0.99134 0.97684 0.0
C2706 C 0.6115 0.99786 0.96266 0.0
C2707 C 0.60789 0.98634 0.95459 0.0
C2708 C 0.61264 0.97731 0.95769 0.0
C2709 C 0.62081 0.97971 0.96884 0.0
C2710 C 0.59943 0.98409 0.94275 0.0
C2711 C 0.60536 0.98515 0.93053 0.0
C2712 C 0.58617 0.98244 0.94349 0.0
C2713 C 0.57915 0.9805 0.95614 0.0
C2714 C 0.57769 0.97011 0.96461 0.0
C2715 C 0.57112 0.96834 0.97653 0.0
C2716 C 0.56589 0.97685 0.98008 0.0
C2717 C 0.5672 0.98712 0.97168 0.0
C2718 C 0.57377 0.98895 0.95975 0.0
C2719 C 0.56753 0.97458 0.88684 0.0
C2720 C 0.56474 0.98538 0.88508 0.0
C2721 C 0.57422 0.97407 0.89815 0.0
C2722 C 0.57794 0.9841 0.90802 0.0
C2723 C 0.57466 0.99451 0.90657 0.0
C2724 C 0.56814 0.99515 0.8952 0.0
C2725 C 0.58548 0.98393 0.9198 0.0
C2726 C 0.57939 0.98246 0.93199 0.0
C2727 C 0.59861 0.98523 0.91903 0.0
C2728 C 0.60582 0.98751 0.90647 0.0
C2729 C 0.60836 0.99875 0.8987 0.0
C2730 C 0.61517 0.00084 0.88688 0.0
C2731 C 0.61959 0.99182 0.88276 0.0
C2732 C 0.61725 0.98071 0.89049 0.0
C2733 C 0.61043 0.97856 0.90232 0.0
H2734 H 0.62488 0.99346 0.87361 0.0
H2735 H 0.5608 0.97546 0.98931 0.0
H2736 H 0.60984 0.99377 0.0321 0.0
H2737 H 0.59817 0.99775 0.05022 0.0
H2738 H 0.63729 0.02744 0.06714 0.0
H2739 H 0.64896 0.02388 0.0488 0.0
H2740 H 0.5976 0.99341 0.0747 0.0
H2741 H 0.6353 0.0517 0.08442 0.0
H2742 H 0.65048 0.07241 0.07199 0.0
H2743 H 0.62595 0.05405 0.03745 0.0
H2744 H 0.61052 0.03332 0.04971 0.0
H2745 H 0.58955 0.01258 0.13842 0.0
H2746 H 0.59739 0.00799 0.11779 0.0
H2747 H 0.58578 0.03441 0.09805 0.0
H2748 H 0.57861 0.03957 0.11877 0.0
H2749 H 0.60921 0.04005 0.09015 0.0
H2750 H 0.56728 0.99801 0.09451 0.0
H2751 H 0.54982 0.97709 0.10527 0.0
H2752 H 0.57842 0.96258 0.10854 0.0
H2753 H 0.59612 0.98351 0.09796 0.0
C2754 C 0.61593 0.00124 0.03964 0.0
C2755 C 0.6303 0.00858 0.03901 0.0
C2756 C 0.60926 0.00347 0.05001 0.0
C2757 C 0.61682 0.01301 0.06 0.0
C2758 C 0.6312 0.02026 0.05942 0.0
C2759 C 0.63787 0.01818 0.04896 0.0
C2760 C 0.60971 0.01513 0.07119 0.0
C2761 C 0.6001 0.00361 0.07804 0.0
C2762 C 0.61269 0.0284 0.0754 0.0
C2763 C 0.62183 0.04091 0.06797 0.0
C2764 C 0.63311 0.05211 0.07419 0.0
C2765 C 0.64177 0.06385 0.06717 0.0
C2766 C 0.63921 0.06453 0.05393 0.0
C2767 C 0.62795 0.05349 0.0477 0.0
C2768 C 0.61926 0.04174 0.05467 0.0
C2769 C 0.58849 0.01722 0.12962 0.0
C2770 C 0.58319 0.02618 0.13019 0.0
C2771 C 0.59292 0.01456 0.11782 0.0
C2772 C 0.59196 0.02065 0.10628 0.0
C2773 C 0.58657 0.02953 0.1068 0.0
C2774 C 0.58235 0.03237 0.11864 0.0
C2775 C 0.59727 0.01834 0.09382 0.0
C2776 C 0.6066 0.02984 0.08675 0.0
C2777 C 0.59368 0.00501 0.08917 0.0
C2778 C 0.58306 0.99239 0.09553 0.0
C2779 C 0.56988 0.99041 0.09761 0.0
C2780 C 0.55993 0.97854 0.10366 0.0
C2781 C 0.56302 0.96853 0.10761 0.0
C2782 C 0.57605 0.97035 0.10549 0.0
C2783 C 0.58604 0.98221 0.09945 0.0
H2784 H 0.5553 0.95935 0.1123 0.0
H2785 H 0.64593 0.07362 0.04851 0.0
H2786 H 0.97129 0.6258 0.04511 0.0
H2787 H 0.96623 0.61059 0.06377 0.0
H2788 H 0.99643 0.60039 0.05081 0.0
H2789 H 0.00159 0.61559 0.03227 0.0
H2790 H 0.9723 0.57755 0.05893 0.0
H2791 H 0.00502 0.62321 0.07404 0.0
H2792 H 0.0139 0.64798 0.07786 0.0
H2793 H 0.97922 0.63884 0.1016 0.0
H2794 H 0.97002 0.61399 0.09775 0.0
H2795 H 0.98796 0.55314 0.11628 0.0
H2796 H 0.9889 0.56606 0.09691 0.0
H2797 H 0.9592 0.57501 0.11365 0.0
H2798 H 0.95807 0.56218 0.13291 0.0
H2799 H 0.98124 0.59791 0.10362 0.0
H2800 H 0.94941 0.55186 0.08963 0.0
H2801 H 0.94107 0.52719 0.08587 0.0
H2802 H 0.9745 0.53707 0.0601 0.0
H2803 H 0.98316 0.56182 0.06386 0.0
C2804 C 0.97674 0.6202 0.04619 0.0
C2805 C 0.98688 0.62191 0.0373 0.0
C2806 C 0.97388 0.61157 0.05685 0.0
C2807 C 0.98103 0.60445 0.05869 0.0
C2808 C 0.9908 0.60578 0.04956 0.0
C2809 C 0.99377 0.61451 0.03901 0.0
C2810 C 0.97879 0.59603 0.07039 0.0
C2811 C 0.97433 0.582 0.0687 0.0
C2812 C 0.98123 0.60183 0.08313 0.0
C2813 C 0.98674 0.61675 0.08547 0.0
C2814 C 0.99921 0.62649 0.07997 0.0
C2815 C 0.00432 0.64054 0.08216 0.0
C2816 C 0.9971 0.64498 0.08993 0.0
C2817 C 0.98478 0.63538 0.09556 0.0
C2818 C 0.97961 0.62131 0.09338 0.0
C2819 C 0.98153 0.55776 0.11578 0.0
C2820 C 0.9729 0.55643 0.12618 0.0
C2821 C 0.98207 0.56512 0.10472 0.0
C2822 C 0.97402 0.57138 0.10381 0.0
C2823 C 0.96546 0.57021 0.11416 0.0
C2824 C 0.96484 0.56278 0.12521 0.0
C2825 C 0.9748 0.57941 0.09218 0.0
C2826 C 0.97904 0.5934 0.09387 0.0
C2827 C 0.97221 0.57358 0.07945 0.0
C2828 C 0.967 0.5587 0.07712 0.0
C2829 C 0.95505 0.54878 0.08325 0.0
C2830 C 0.95025 0.53478 0.0811 0.0
C2831 C 0.95727 0.53057 0.07278 0.0
C2832 C 0.96908 0.54035 0.06656 0.0
C2833 C 0.97393 0.55437 0.06868 0.0
H2834 H 0.95353 0.51972 0.07113 0.0
H2835 H 0.00108 0.65586 0.09162 0.0
H2836 H 0.373 0.38152 0.0405 0.0
H2837 H 0.3885 0.39036 0.05933 0.0
H2838 H 0.41642 0.38037 0.04004 0.0
H2839 H 0.40055 0.37091 0.02136 0.0
H2840 H 0.41383 0.37255 0.06374 0.0
H2841 H 0.42285 0.41467 0.04432 0.0
H2842 H 0.41717 0.43125 0.03474 0.0
H2843 H 0.39887 0.43333 0.07066 0.0
H2844 H 0.40428 0.41661 0.0804 0.0
H2845 H 0.46445 0.40532 0.11332 0.0
H2846 H 0.45321 0.40121 0.09191 0.0
H2847 H 0.42051 0.40517 0.10912 0.0
H2848 H 0.43185 0.40953 0.13051 0.0
H2849 H 0.42762 0.41745 0.08538 0.0
H2850 H 0.4172 0.37388 0.10388 0.0
H2851 H 0.42316 0.35745 0.11336 0.0
H2852 H 0.44471 0.35858 0.0786 0.0
H2853 H 0.43905 0.37518 0.06899 0.0
C2854 C 0.3825 0.38132 0.04022 0.0
C2855 C 0.3856 0.37556 0.02946 0.0
C2856 C 0.39142 0.38646 0.05097 0.0
C2857 C 0.40379 0.38629 0.05105 0.0
C2858 C 0.40696 0.38067 0.04021 0.0
C2859 C 0.39792 0.37529 0.02953 0.0
C2860 C 0.41302 0.39129 0.06272 0.0
C2861 C 0.41706 0.3825 0.06829 0.0
C2862 C 0.41706 0.40416 0.06886 0.0
C2863 C 0.41389 0.41431 0.06306 0.0
C2864 C 0.41755 0.4186 0.05016 0.0
C2865 C 0.41438 0.42803 0.0447 0.0
C2866 C 0.40764 0.43332 0.05208 0.0
C2867 C 0.40409 0.42922 0.06495 0.0
C2868 C 0.40722 0.41978 0.07045 0.0
C2869 C 0.45501 0.4056 0.11247 0.0
C2870 C 0.44909 0.4079 0.12354 0.0
C2871 C 0.44856 0.40316 0.10026 0.0
C2872 C 0.43596 0.40275 0.09895 0.0
C2873 C 0.43025 0.40548 0.10991 0.0
C2874 C 0.43672 0.40796 0.12211 0.0
C2875 C 0.42828 0.39867 0.08636 0.0
C2876 C 0.42451 0.4076 0.08067 0.0
C2877 C 0.42456 0.38598 0.08006 0.0
C2878 C 0.42782 0.37587 0.08577 0.0
C2879 C 0.42329 0.37069 0.09829 0.0
C2880 C 0.4266 0.36134 0.10368 0.0
C2881 C 0.43434 0.357 0.0966 0.0
C2882 C 0.43874 0.36197 0.08409 0.0
C2883 C 0.43547 0.37134 0.07866 0.0
H2884 H 0.4369 0.34976 0.10079 0.0
H2885 H 0.40519 0.44061 0.04783 0.0
H2886 H 0.63518 0.67549 0.37562 0.0
H2887 H 0.62837 0.68483 0.39397 0.0
H2888 H 0.66195 0.72543 0.38623 0.0
H2889 H 0.66888 0.71616 0.36803 0.0
H2890 H 0.66059 0.71961 0.41177 0.0
H2891 H 0.62906 0.71618 0.37785 0.0
H2892 H 0.61121 0.70412 0.36088 0.0
H2893 H 0.5841 0.67637 0.38943 0.0
H2894 H 0.60186 0.68817 0.40654 0.0
H2895 H 0.64362 0.76011 0.45147 0.0
H2896 H 0.64875 0.74965 0.43307 0.0
H2897 H 0.61204 0.711 0.44006 0.0
H2898 H 0.60637 0.72172 0.45807 0.0
H2899 H 0.61452 0.71475 0.41529 0.0
H2900 H 0.6454 0.71805 0.44934 0.0
H2901 H 0.66312 0.72959 0.46652 0.0
H2902 H 0.6913 0.75665 0.43822 0.0
H2903 H 0.6737 0.74539 0.42089 0.0
C2904 C 0.64106 0.68641 0.37781 0.0
C2905 C 0.65256 0.6951 0.3704 0.0
C2906 C 0.63714 0.69174 0.38826 0.0
C2907 C 0.64461 0.70585 0.3914 0.0
C2908 C 0.65606 0.71452 0.38398 0.0
C2909 C 0.65998 0.70921 0.37356 0.0
C2910 C 0.64075 0.7116 0.40261 0.0
C2911 C 0.65057 0.71869 0.41248 0.0
C2912 C 0.62754 0.71002 0.40372 0.0
C2913 C 0.61684 0.70297 0.39345 0.0
C2914 C 0.61933 0.70744 0.38049 0.0
C2915 C 0.60922 0.70066 0.37085 0.0
C2916 C 0.59654 0.68946 0.37407 0.0
C2917 C 0.59393 0.68504 0.38695 0.0
C2918 C 0.60401 0.69177 0.39662 0.0
C2919 C 0.63651 0.74944 0.44902 0.0
C2920 C 0.62443 0.74178 0.45614 0.0
C2921 C 0.63956 0.7434 0.43856 0.0
C2922 C 0.63092 0.72945 0.43529 0.0
C2923 C 0.61888 0.72178 0.44238 0.0
C2924 C 0.61566 0.72789 0.45268 0.0
C2925 C 0.63441 0.7229 0.42444 0.0
C2926 C 0.62453 0.71564 0.41464 0.0
C2927 C 0.64755 0.72422 0.42345 0.0
C2928 C 0.65819 0.73094 0.43384 0.0
C2929 C 0.65535 0.72651 0.4468 0.0
C2930 C 0.66538 0.733 0.45656 0.0
C2931 C 0.67832 0.74387 0.45347 0.0
C2932 C 0.68127 0.74824 0.4406 0.0
C2933 C 0.67128 0.7418 0.4308 0.0
H2934 H 0.68606 0.74888 0.46104 0.0
H2935 H 0.58873 0.68423 0.3666 0.0
H2936 H 0.3121 0.9669 0.39463 0.0
H2937 H 0.30199 0.95006 0.41195 0.0
H2938 H 0.27667 0.91883 0.38345 0.0
H2939 H 0.28668 0.93567 0.36609 0.0
H2940 H 0.26202 0.91823 0.40447 0.0
H2941 H 0.30416 0.91907 0.39664 0.0
H2942 H 0.32911 0.92952 0.39398 0.0
H2943 H 0.33587 0.94539 0.43329 0.0
H2944 H 0.31095 0.9352 0.43613 0.0
H2945 H 0.24386 0.8596 0.44429 0.0
H2946 H 0.25347 0.8767 0.42709 0.0
H2947 H 0.27299 0.909 0.45618 0.0
H2948 H 0.26305 0.89214 0.47341 0.0
H2949 H 0.29061 0.90897 0.43505 0.0
H2950 H 0.24807 0.90779 0.44258 0.0
H2951 H 0.22304 0.89672 0.445 0.0
H2952 H 0.21706 0.88072 0.40578 0.0
H2953 H 0.24208 0.89152 0.4032 0.0
C2954 C 0.30441 0.95644 0.39205 0.0
C2955 C 0.3002 0.95259 0.37901 0.0
C2956 C 0.29867 0.94681 0.40195 0.0
C2957 C 0.28865 0.93316 0.39898 0.0
C2958 C 0.28439 0.92931 0.38596 0.0
C2959 C 0.29015 0.93892 0.37605 0.0
C2960 C 0.28253 0.92293 0.40948 0.0
C2961 C 0.26827 0.91608 0.41104 0.0
C2962 C 0.2907 0.92032 0.41822 0.0
C2963 C 0.30569 0.9265 0.41655 0.0
C2964 C 0.31097 0.9249 0.40468 0.0
C2965 C 0.32511 0.93075 0.40315 0.0
C2966 C 0.33407 0.93815 0.41345 0.0
C2967 C 0.32891 0.93968 0.42531 0.0
C2968 C 0.31478 0.93386 0.42689 0.0
C2969 C 0.25025 0.87034 0.44702 0.0
C2970 C 0.2531 0.87438 0.46024 0.0
C2971 C 0.25568 0.88008 0.4372 0.0
C2972 C 0.26406 0.89406 0.4404 0.0
C2973 C 0.26669 0.89822 0.45354 0.0
C2974 C 0.26104 0.88851 0.46338 0.0
C2975 C 0.27017 0.90433 0.42999 0.0
C2976 C 0.28441 0.91116 0.42846 0.0
C2977 C 0.26199 0.90685 0.42123 0.0
C2978 C 0.24694 0.90032 0.42275 0.0
C2979 C 0.24142 0.90178 0.43452 0.0
C2980 C 0.22723 0.89559 0.43591 0.0
C2981 C 0.21846 0.88798 0.42557 0.0
C2982 C 0.22387 0.88659 0.4138 0.0
C2983 C 0.23805 0.89275 0.41236 0.0
H2984 H 0.20748 0.8832 0.42666 0.0
H2985 H 0.34501 0.94266 0.41224 0.0
H2986 H 0.04541 0.32389 0.37442 0.0
H2987 H 0.05969 0.33074 0.3942 0.0
H2988 H 0.06685 0.37206 0.39095 0.0
H2989 H 0.05262 0.3653 0.3711 0.0
H2990 H 0.09039 0.37155 0.39609 0.0
H2991 H 0.045 0.35115 0.4131 0.0
H2992 H 0.02087 0.33303 0.41543 0.0
H2993 H 0.03367 0.30522 0.42916 0.0
H2994 H 0.05788 0.3231 0.4267 0.0
H2995 H 0.12181 0.39459 0.45835 0.0
H2996 H 0.1061 0.3886 0.43967 0.0
H2997 H 0.09481 0.34598 0.4431 0.0
H2998 H 0.11008 0.35185 0.46207 0.0
H2999 H 0.07295 0.3478 0.43802 0.0
H3000 H 0.11808 0.36747 0.41989 0.0
H3001 H 0.14228 0.38526 0.41718 0.0
H3002 H 0.13 0.41404 0.40524 0.0
H3003 H 0.10573 0.39647 0.40804 0.0
C3004 C 0.05003 0.33443 0.37792 0.0
C3005 C 0.0479 0.34406 0.37123 0.0
C3006 C 0.05812 0.33831 0.38925 0.0
C3007 C 0.0642 0.35187 0.39411 0.0
C3008 C 0.06221 0.36154 0.38737 0.0
C3009 C 0.05408 0.35766 0.37606 0.0
C3010 C 0.07283 0.356 0.4061 0.0
C3011 C 0.08653 0.36651 0.40532 0.0
C3012 C 0.06783 0.34919 0.41804 0.0
C3013 C 0.05327 0.33844 0.41961 0.0
C3014 C 0.04267 0.34114 0.41652 0.0
C3015 C 0.02898 0.33091 0.41788 0.0
C3016 C 0.02574 0.31797 0.42242 0.0
C3017 C 0.03619 0.31524 0.42563 0.0
C3018 C 0.04991 0.32542 0.42427 0.0
C3019 C 0.11601 0.38396 0.45505 0.0
C3020 C 0.11752 0.37377 0.46139 0.0
C3021 C 0.10706 0.38055 0.44438 0.0
C3022 C 0.09952 0.36688 0.43978 0.0
C3023 C 0.10062 0.35661 0.44639 0.0
C3024 C 0.10945 0.35999 0.45716 0.0
C3025 C 0.09058 0.36329 0.428 0.0
C3026 C 0.0768 0.35288 0.42881 0.0
C3027 C 0.09551 0.37014 0.41605 0.0
C3028 C 0.1101 0.3807 0.4143 0.0
C3029 C 0.12055 0.37762 0.41677 0.0
C3030 C 0.13428 0.38766 0.4152 0.0
C3031 C 0.13768 0.40078 0.41107 0.0
C3032 C 0.12735 0.40388 0.40846 0.0
C3033 C 0.11361 0.39388 0.41002 0.0
H3034 H 0.14831 0.40854 0.40987 0.0
H3035 H 0.01513 0.31008 0.42349 0.0
H3036 H 0.05698 0.32567 0.31548 0.0
H3037 H 0.06557 0.3189 0.29664 0.0
H3038 H 0.0254 0.29982 0.2786 0.0
H3039 H 0.01666 0.30631 0.29757 0.0
H3040 H 0.03699 0.28426 0.27502 0.0
H3041 H 0.05049 0.33173 0.26966 0.0
H3042 H 0.06117 0.35617 0.27625 0.0
H3043 H 0.10027 0.35858 0.28001 0.0
H3044 H 0.08978 0.33409 0.27362 0.0
H3045 H 0.05686 0.28113 0.21027 0.0
H3046 H 0.04808 0.28629 0.22975 0.0
H3047 H 0.08815 0.30485 0.24786 0.0
H3048 H 0.09723 0.29997 0.22826 0.0
H3049 H 0.07663 0.32063 0.25144 0.0
H3050 H 0.0629 0.27298 0.25631 0.0
H3051 H 0.05197 0.24859 0.24947 0.0
H3052 H 0.01304 0.24661 0.24624 0.0
H3053 H 0.02377 0.27105 0.25289 0.0
C3054 C 0.04995 0.31994 0.30754 0.0
C3055 C 0.03617 0.31659 0.30795 0.0
C3056 C 0.05489 0.31613 0.29676 0.0
C3057 C 0.04618 0.30907 0.28611 0.0
C3058 C 0.0323 0.30531 0.28669 0.0
C3059 C 0.02734 0.30904 0.29752 0.0
C3060 C 0.05163 0.30591 0.27425 0.0
C3061 C 0.04555 0.29223 0.26977 0.0
C3062 C 0.06297 0.31629 0.26754 0.0
C3063 C 0.06932 0.33104 0.27128 0.0
C3064 C 0.06135 0.33745 0.27198 0.0
C3065 C 0.06737 0.35131 0.27567 0.0
C3066 C 0.08138 0.35891 0.27858 0.0
C3067 C 0.08941 0.35268 0.27777 0.0
C3068 C 0.08343 0.33881 0.27411 0.0
C3069 C 0.06398 0.2865 0.21822 0.0
C3070 C 0.07801 0.29064 0.21734 0.0
C3071 C 0.05883 0.28931 0.22948 0.0
C3072 C 0.06745 0.29595 0.24027 0.0
C3073 C 0.08134 0.29983 0.23959 0.0
C3074 C 0.08651 0.29707 0.22834 0.0
C3075 C 0.06202 0.29897 0.25223 0.0
C3076 C 0.06809 0.31265 0.25671 0.0
C3077 C 0.05065 0.2886 0.2589 0.0
C3078 C 0.04416 0.27388 0.25499 0.0
C3079 C 0.05202 0.26737 0.25405 0.0
C3080 C 0.04586 0.25353 0.25022 0.0
C3081 C 0.03183 0.24606 0.2474 0.0
C3082 C 0.02391 0.25241 0.24842 0.0
C3083 C 0.03002 0.26625 0.25224 0.0
H3084 H 0.02708 0.23535 0.24443 0.0
H3085 H 0.08602 0.36965 0.28143 0.0
H3086 H 0.65874 0.69598 0.29905 0.0
H3087 H 0.66569 0.71194 0.2809 0.0
H3088 H 0.70458 0.73813 0.30012 0.0
H3089 H 0.69775 0.72211 0.31827 0.0
H3090 H 0.6913 0.75218 0.29011 0.0
H3091 H 0.70437 0.71933 0.27624 0.0
H3092 H 0.70039 0.69598 0.27184 0.0
H3093 H 0.66919 0.68892 0.24357 0.0
H3094 H 0.67286 0.71218 0.24795 0.0
H3095 H 0.72729 0.79464 0.23718 0.0
H3096 H 0.72038 0.77852 0.25519 0.0
H3097 H 0.6828 0.75094 0.23458 0.0
H3098 H 0.68963 0.7671 0.21655 0.0
H3099 H 0.69523 0.73743 0.24528 0.0
H3100 H 0.68156 0.7695 0.25876 0.0
H3101 H 0.68426 0.79232 0.26337 0.0
H3102 H 0.71512 0.80033 0.29237 0.0
H3103 H 0.71276 0.77763 0.28778 0.0
C3104 C 0.66876 0.70515 0.29942 0.0
C3105 C 0.67772 0.70782 0.31005 0.0
C3106 C 0.67272 0.71422 0.28904 0.0
C3107 C 0.68566 0.72615 0.28917 0.0
C3108 C 0.69455 0.72896 0.29987 0.0
C3109 C 0.69066 0.7198 0.31018 0.0
C3110 C 0.68991 0.73566 0.2781 0.0
C3111 C 0.69238 0.74905 0.28034 0.0
C3112 C 0.69088 0.73137 0.26532 0.0
C3113 C 0.68879 0.71745 0.26252 0.0
C3114 C 0.69659 0.71276 0.26916 0.0
C3115 C 0.6944 0.69955 0.26666 0.0
C3116 C 0.68451 0.69095 0.25746 0.0
C3117 C 0.67683 0.69558 0.25071 0.0
C3118 C 0.67897 0.70879 0.25318 0.0
C3119 C 0.71755 0.78516 0.2365 0.0
C3120 C 0.70895 0.78215 0.2255 0.0
C3121 C 0.71361 0.77597 0.24679 0.0
C3122 C 0.70103 0.7636 0.24624 0.0
C3123 C 0.69254 0.76044 0.23518 0.0
C3124 C 0.69643 0.76967 0.22492 0.0
C3125 C 0.69672 0.75402 0.25729 0.0
C3126 C 0.69421 0.7406 0.25505 0.0
C3127 C 0.69559 0.75824 0.27005 0.0
C3128 C 0.69709 0.77192 0.27282 0.0
C3129 C 0.68902 0.77618 0.26603 0.0
C3130 C 0.69047 0.78908 0.26865 0.0
C3131 C 0.69989 0.79779 0.27813 0.0
C3132 C 0.70785 0.79359 0.28501 0.0
C3133 C 0.70646 0.7807 0.28241 0.0
H3134 H 0.70098 0.80777 0.28016 0.0
H3135 H 0.68282 0.68072 0.25554 0.0
H3136 H 0.29987 0.96539 0.30562 0.0
H3137 H 0.28305 0.95727 0.2878 0.0
H3138 H 0.25484 0.96223 0.31235 0.0
H3139 H 0.27164 0.97025 0.33037 0.0
H3140 H 0.24218 0.93795 0.29879 0.0
H3141 H 0.27193 0.98528 0.28897 0.0
H3142 H 0.29406 0.00631 0.28538 0.0
H3143 H 0.30201 0.98653 0.25326 0.0
H3144 H 0.28 0.96531 0.25678 0.0
H3145 H 0.19747 0.93216 0.24623 0.0
H3146 H 0.21331 0.94052 0.26499 0.0
H3147 H 0.24267 0.9349 0.24298 0.0
H3148 H 0.22684 0.92646 0.22422 0.0
H3149 H 0.25426 0.96011 0.25561 0.0
H3150 H 0.22486 0.91263 0.26587 0.0
H3151 H 0.20279 0.89155 0.26951 0.0
H3152 H 0.19417 0.91171 0.30079 0.0
H3153 H 0.21612 0.933 0.29721 0.0
C3154 C 0.2901 0.96478 0.30724 0.0
C3155 C 0.28708 0.96851 0.31937 0.0
C3156 C 0.28051 0.96018 0.29702 0.0
C3157 C 0.26776 0.95931 0.29869 0.0
C3158 C 0.26464 0.96287 0.31085 0.0
C3159 C 0.27425 0.96748 0.32111 0.0
C3160 C 0.25769 0.95455 0.28772 0.0
C3161 C 0.24473 0.94294 0.28941 0.0
C3162 C 0.26114 0.96088 0.27541 0.0
C3163 C 0.27436 0.97366 0.27322 0.0
C3164 C 0.27844 0.98538 0.28121 0.0
C3165 C 0.29095 0.99734 0.27917 0.0
C3166 C 0.29945 0.99775 0.26912 0.0
C3167 C 0.29542 0.9862 0.26105 0.0
C3168 C 0.28292 0.9742 0.26306 0.0
C3169 C 0.20726 0.93261 0.24544 0.0
C3170 C 0.21089 0.92855 0.23381 0.0
C3171 C 0.21628 0.93737 0.25615 0.0
C3172 C 0.22911 0.93823 0.25539 0.0
C3173 C 0.23281 0.9343 0.24376 0.0
C3174 C 0.22376 0.92945 0.23309 0.0
C3175 C 0.2388 0.94346 0.26666 0.0
C3176 C 0.25169 0.95518 0.26501 0.0
C3177 C 0.23527 0.93723 0.27901 0.0
C3178 C 0.22206 0.92446 0.28117 0.0
C3179 C 0.2182 0.91261 0.27344 0.0
C3180 C 0.20572 0.90062 0.27551 0.0
C3181 C 0.19706 0.9003 0.28535 0.0
C3182 C 0.20088 0.91198 0.29316 0.0
C3183 C 0.21334 0.92401 0.29112 0.0
H3184 H 0.18741 0.891 0.28694 0.0
H3185 H 0.30913 0.00702 0.26756 0.0
H3186 H 0.70128 0.96977 0.31802 0.0
H3187 H 0.7095 0.9613 0.30011 0.0
H3188 H 0.6682 0.9374 0.2849 0.0
H3189 H 0.65991 0.9456 0.30288 0.0
H3190 H 0.68111 0.92302 0.28318 0.0
H3191 H 0.69083 0.96843 0.27208 0.0
H3192 H 0.70057 0.99339 0.27542 0.0
H3193 H 0.74105 0.99888 0.27773 0.0
H3194 H 0.73152 0.9739 0.27459 0.0
H3195 H 0.69297 0.91607 0.21606 0.0
H3196 H 0.68644 0.92155 0.23706 0.0
H3197 H 0.72842 0.94057 0.25056 0.0
H3198 H 0.73497 0.93493 0.22961 0.0
H3199 H 0.71658 0.95707 0.25415 0.0
H3200 H 0.70624 0.91119 0.26298 0.0
H3201 H 0.69583 0.88628 0.25871 0.0
H3202 H 0.65569 0.88171 0.25969 0.0
H3203 H 0.66588 0.90664 0.26376 0.0
C3204 C 0.69395 0.96263 0.3109 0.0
C3205 C 0.67997 0.95841 0.31179 0.0
C3206 C 0.69866 0.95783 0.30066 0.0
C3207 C 0.68948 0.94886 0.29106 0.0
C3208 C 0.67546 0.94432 0.29218 0.0
C3209 C 0.67075 0.94906 0.30244 0.0
C3210 C 0.69449 0.94455 0.2796 0.0
C3211 C 0.68879 0.93046 0.27678 0.0
C3212 C 0.7047 0.95426 0.27137 0.0
C3213 C 0.71045 0.96928 0.27326 0.0
C3214 C 0.7018 0.97495 0.27342 0.0
C3215 C 0.70728 0.9891 0.27525 0.0
C3216 C 0.72142 0.99771 0.27683 0.0
C3217 C 0.7301 0.99219 0.27654 0.0
C3218 C 0.72467 0.97804 0.27473 0.0
C3219 C 0.70076 0.92128 0.22357 0.0
C3220 C 0.71448 0.92514 0.2212 0.0
C3221 C 0.69703 0.92437 0.23555 0.0
C3222 C 0.70695 0.93143 0.24536 0.0
C3223 C 0.72062 0.93512 0.24311 0.0
C3224 C 0.72434 0.9319 0.23117 0.0
C3225 C 0.70313 0.93556 0.25769 0.0
C3226 C 0.70902 0.94963 0.26064 0.0
C3227 C 0.69301 0.92583 0.26594 0.0
C3228 C 0.68684 0.91081 0.26356 0.0
C3229 C 0.6952 0.90489 0.26217 0.0
C3230 C 0.68934 0.89077 0.25981 0.0
C3231 C 0.67511 0.88242 0.2589 0.0
C3232 C 0.66672 0.88819 0.26039 0.0
C3233 C 0.67253 0.90232 0.26273 0.0
H3234 H 0.67059 0.87148 0.25707 0.0
H3235 H 0.72564 0.00867 0.27824 0.0
H3236 H 0.05192 0.71658 0.30373 0.0
H3237 H 0.06067 0.73291 0.28598 0.0
H3238 H 0.03864 0.75242 0.30058 0.0
H3239 H 0.02947 0.73575 0.31818 0.0
H3240 H 0.03502 0.74882 0.27548 0.0
H3241 H 0.07442 0.76774 0.30354 0.0
H3242 H 0.09233 0.76764 0.31737 0.0
H3243 H 0.10709 0.75518 0.28442 0.0
H3244 H 0.08914 0.75502 0.27041 0.0
H3245 H 0.06647 0.80378 0.23112 0.0
H3246 H 0.0609 0.79166 0.25187 0.0
H3247 H 0.07658 0.76603 0.23755 0.0
H3248 H 0.08214 0.7781 0.21678 0.0
H3249 H 0.08408 0.77458 0.26355 0.0
H3250 H 0.04342 0.75416 0.23613 0.0
H3251 H 0.02561 0.75459 0.2224 0.0
H3252 H 0.01346 0.7705 0.25474 0.0
H3253 H 0.03135 0.77037 0.26862 0.0
C3254 C 0.04902 0.72442 0.30323 0.0
C3255 C 0.04003 0.72491 0.31236 0.0
C3256 C 0.0541 0.73381 0.29311 0.0
C3257 C 0.0505 0.74406 0.29203 0.0
C3258 C 0.0416 0.74464 0.30123 0.0
C3259 C 0.03639 0.73514 0.31129 0.0
C3260 C 0.05548 0.75368 0.28094 0.0
C3261 C 0.04579 0.75466 0.27305 0.0
C3262 C 0.0695 0.76111 0.27757 0.0
C3263 C 0.08036 0.76127 0.28595 0.0
C3264 C 0.08142 0.76488 0.29926 0.0
C3265 C 0.09159 0.76489 0.30713 0.0
C3266 C 0.10082 0.76138 0.30178 0.0
C3267 C 0.09993 0.75789 0.28855 0.0
C3268 C 0.08977 0.75786 0.28063 0.0
C3269 C 0.06888 0.79568 0.23249 0.0
C3270 C 0.07474 0.79187 0.22236 0.0
C3271 C 0.06567 0.78875 0.24431 0.0
C3272 C 0.06823 0.77788 0.24619 0.0
C3273 C 0.07455 0.77441 0.23629 0.0
C3274 C 0.07769 0.78128 0.22444 0.0
C3275 C 0.06361 0.7696 0.25816 0.0
C3276 C 0.07335 0.76885 0.26614 0.0
C3277 C 0.04965 0.76243 0.26167 0.0
C3278 C 0.03882 0.7624 0.25337 0.0
C3279 C 0.03702 0.75786 0.24028 0.0
C3280 C 0.0269 0.75803 0.23248 0.0
C3281 C 0.01843 0.76261 0.23768 0.0
C3282 C 0.02004 0.76698 0.25071 0.0
C3283 C 0.03017 0.76686 0.25856 0.0
H3284 H 0.0106 0.76273 0.23162 0.0
H3285 H 0.10869 0.76139 0.30789 0.0
H3286 H 0.27628 0.302 0.31486 0.0
H3287 H 0.25996 0.29391 0.29648 0.0
H3288 H 0.27489 0.33588 0.28523 0.0
H3289 H 0.29091 0.344 0.30373 0.0
H3290 H 0.24808 0.32188 0.28289 0.0
H3291 H 0.2851 0.31486 0.26982 0.0
H3292 H 0.30095 0.30582 0.27175 0.0
H3293 H 0.2669 0.26451 0.27091 0.0
H3294 H 0.25084 0.27333 0.26915 0.0
H3295 H 0.23062 0.31454 0.21543 0.0
H3296 H 0.24233 0.31974 0.23667 0.0
H3297 H 0.22036 0.27665 0.24585 0.0
H3298 H 0.20845 0.27141 0.22463 0.0
H3299 H 0.24866 0.28921 0.25026 0.0
H3300 H 0.21184 0.297 0.26099 0.0
H3301 H 0.19671 0.30678 0.25819 0.0
H3302 H 0.23126 0.34757 0.26257 0.0
H3303 H 0.24664 0.33804 0.26519 0.0
C3304 C 0.27601 0.30948 0.3085 0.0
C3305 C 0.2849 0.32363 0.31069 0.0
C3306 C 0.26673 0.30485 0.29797 0.0
C3307 C 0.26632 0.31428 0.28936 0.0
C3308 C 0.275 0.32841 0.29173 0.0
C3309 C 0.28419 0.33304 0.30229 0.0
C3310 C 0.2571 0.30953 0.2777 0.0
C3311 C 0.24829 0.31482 0.27571 0.0
C3312 C 0.25713 0.30007 0.26846 0.0
C3313 C 0.26677 0.29476 0.26951 0.0
C3314 C 0.28099 0.30385 0.27015 0.0
C3315 C 0.29001 0.29877 0.2712 0.0
C3316 C 0.28494 0.2846 0.2715 0.0
C3317 C 0.27082 0.27549 0.27071 0.0
C3318 C 0.26175 0.28052 0.26968 0.0
C3319 C 0.22818 0.3062 0.22203 0.0
C3320 C 0.21866 0.29257 0.21837 0.0
C3321 C 0.23485 0.30918 0.23416 0.0
C3322 C 0.23216 0.29858 0.24284 0.0
C3323 C 0.22257 0.28497 0.23928 0.0
C3324 C 0.21578 0.28199 0.22719 0.0
C3325 C 0.23982 0.30173 0.25539 0.0
C3326 C 0.24834 0.29615 0.25753 0.0
C3327 C 0.23963 0.31102 0.26469 0.0
C3328 C 0.23041 0.3168 0.26318 0.0
C3329 C 0.21623 0.30806 0.26125 0.0
C3330 C 0.20761 0.31356 0.25971 0.0
C3331 C 0.21303 0.32779 0.26017 0.0
C3332 C 0.22708 0.33655 0.2622 0.0
C3333 C 0.23575 0.3311 0.26373 0.0
H3334 H 0.20634 0.33203 0.25898 0.0
H3335 H 0.29194 0.28069 0.2723 0.0
H3336 H 0.32042 0.35769 0.38422 0.0
H3337 H 0.31247 0.36471 0.40345 0.0
H3338 H 0.27757 0.35982 0.38141 0.0
H3339 H 0.28536 0.35264 0.36219 0.0
H3340 H 0.29147 0.38464 0.397 0.0
H3341 H 0.27263 0.33544 0.4008 0.0
H3342 H 0.27446 0.31449 0.40156 0.0
H3343 H 0.30132 0.33078 0.43498 0.0
H3344 H 0.2998 0.35192 0.43431 0.0
H3345 H 0.25154 0.38783 0.44775 0.0
H3346 H 0.25947 0.38073 0.4288 0.0
H3347 H 0.28715 0.37461 0.45331 0.0
H3348 H 0.2785 0.38073 0.4725 0.0
H3349 H 0.27761 0.35565 0.43631 0.0
H3350 H 0.29749 0.40434 0.43342 0.0
H3351 H 0.29788 0.42647 0.43292 0.0
H3352 H 0.27221 0.41309 0.39857 0.0
H3353 H 0.27151 0.3908 0.39896 0.0
C3354 C 0.31111 0.35821 0.38345 0.0
C3355 C 0.30349 0.35459 0.37173 0.0
C3356 C 0.30657 0.36217 0.39444 0.0
C3357 C 0.29439 0.36268 0.39385 0.0
C3358 C 0.28698 0.35947 0.38205 0.0
C3359 C 0.29143 0.35535 0.3711 0.0
C3360 C 0.28919 0.36627 0.4056 0.0
C3361 C 0.28828 0.37825 0.40557 0.0
C3362 C 0.28549 0.35813 0.41688 0.0
C3363 C 0.2862 0.34532 0.41742 0.0
C3364 C 0.279 0.3346 0.40826 0.0
C3365 C 0.27997 0.32268 0.40868 0.0
C3366 C 0.28803 0.32132 0.41829 0.0
C3367 C 0.29509 0.33185 0.42753 0.0
C3368 C 0.29417 0.3438 0.42714 0.0
C3369 C 0.25927 0.38493 0.44919 0.0
C3370 C 0.2646 0.38515 0.46171 0.0
C3371 C 0.2639 0.38097 0.43827 0.0
C3372 C 0.27424 0.37752 0.43951 0.0
C3373 C 0.27927 0.37734 0.45202 0.0
C3374 C 0.2744 0.38097 0.46299 0.0
C3375 C 0.2798 0.37411 0.42781 0.0
C3376 C 0.2808 0.36213 0.42782 0.0
C3377 C 0.28389 0.38243 0.4166 0.0
C3378 C 0.28435 0.39585 0.41629 0.0
C3379 C 0.29185 0.40609 0.42581 0.0
C3380 C 0.29214 0.41866 0.42554 0.0
C3381 C 0.28505 0.42117 0.41574 0.0
C3382 C 0.27769 0.41113 0.40616 0.0
C3383 C 0.27735 0.39852 0.40639 0.0
H3384 H 0.28529 0.43092 0.41555 0.0
H3385 H 0.28878 0.31209 0.4186 0.0
H3386 H 0.66966 0.944 0.37043 0.0
H3387 H 0.66217 0.92881 0.3892 0.0
H3388 H 0.6258 0.93222 0.39174 0.0
H3389 H 0.63326 0.94747 0.37304 0.0
H3390 H 0.6381 0.93602 0.41524 0.0
H3391 H 0.62369 0.90306 0.38029 0.0
H3392 H 0.62609 0.89237 0.3601 0.0
H3393 H 0.65635 0.88566 0.37884 0.0
H3394 H 0.65428 0.89651 0.3991 0.0
H3395 H 0.60071 0.88051 0.45837 0.0
H3396 H 0.60738 0.89349 0.4382 0.0
H3397 H 0.64732 0.89737 0.44102 0.0
H3398 H 0.64094 0.88486 0.46156 0.0
H3399 H 0.63306 0.88953 0.41485 0.0
H3400 H 0.64759 0.92334 0.44968 0.0
H3401 H 0.64447 0.93366 0.46979 0.0
H3402 H 0.613 0.9383 0.45084 0.0
H3403 H 0.61576 0.92777 0.43067 0.0
C3404 C 0.66002 0.94144 0.37494 0.0
C3405 C 0.65204 0.94691 0.37027 0.0
C3406 C 0.65573 0.93272 0.38563 0.0
C3407 C 0.64338 0.92931 0.39182 0.0
C3408 C 0.63536 0.93471 0.38711 0.0
C3409 C 0.63962 0.94339 0.3764 0.0
C3410 C 0.63904 0.9205 0.40347 0.0
C3411 C 0.63682 0.92578 0.41508 0.0
C3412 C 0.63763 0.90724 0.40334 0.0
C3413 C 0.63894 0.90074 0.39117 0.0
C3414 C 0.63095 0.89943 0.38007 0.0
C3415 C 0.63223 0.89331 0.36862 0.0
C3416 C 0.6414 0.88837 0.36817 0.0
C3417 C 0.64927 0.88951 0.37919 0.0
C3418 C 0.64804 0.89563 0.39067 0.0
C3419 C 0.61098 0.88426 0.45484 0.0
C3420 C 0.62051 0.88215 0.46188 0.0
C3421 C 0.61472 0.89157 0.44324 0.0
C3422 C 0.62788 0.89651 0.43826 0.0
C3423 C 0.63714 0.89371 0.44479 0.0
C3424 C 0.63351 0.88664 0.45654 0.0
C3425 C 0.63213 0.90509 0.42651 0.0
C3426 C 0.63434 0.89977 0.41493 0.0
C3427 C 0.63345 0.91828 0.42662 0.0
C3428 C 0.63175 0.9246 0.43873 0.0
C3429 C 0.63989 0.92641 0.44985 0.0
C3430 C 0.63821 0.93233 0.46125 0.0
C3431 C 0.62851 0.93659 0.46161 0.0
C3432 C 0.62048 0.93497 0.45056 0.0
C3433 C 0.6221 0.92902 0.43914 0.0
H3434 H 0.62724 0.94119 0.47044 0.0
H3435 H 0.64236 0.88363 0.3593 0.0
H3436 H 0.06204 0.69896 0.36492 0.0
H3437 H 0.07745 0.70652 0.38396 0.0
H3438 H 0.0598 0.73063 0.3977 0.0
H3439 H 0.04459 0.72335 0.37856 0.0
H3440 H 0.0869 0.74429 0.40174 0.0
H3441 H 0.04961 0.69877 0.40972 0.0
H3442 H 0.03421 0.67408 0.40499 0.0
H3443 H 0.06858 0.6675 0.40538 0.0
H3444 H 0.08421 0.6922 0.40994 0.0
H3445 H 0.10059 0.74765 0.47007 0.0
H3446 H 0.09036 0.74368 0.44818 0.0
H3447 H 0.11254 0.72334 0.4365 0.0
H3448 H 0.12289 0.72739 0.45838 0.0
H3449 H 0.08489 0.70821 0.43058 0.0
H3450 H 0.1219 0.75403 0.42482 0.0
H3451 H 0.13659 0.77864 0.43033 0.0
H3452 H 0.102 0.78464 0.42658 0.0
H3453 H 0.08704 0.76 0.42125 0.0
C3454 C 0.06154 0.70597 0.37194 0.0
C3455 C 0.05205 0.71049 0.37032 0.0
C3456 C 0.07032 0.71025 0.38283 0.0
C3457 C 0.06963 0.71898 0.39235 0.0
C3458 C 0.0605 0.72389 0.39049 0.0
C3459 C 0.05178 0.71968 0.37957 0.0
C3460 C 0.07795 0.7225 0.40455 0.0
C3461 C 0.08638 0.7364 0.4081 0.0
C3462 C 0.07747 0.71222 0.41273 0.0
C3463 C 0.06809 0.69736 0.41002 0.0
C3464 C 0.05389 0.69208 0.40869 0.0
C3465 C 0.04512 0.67808 0.40606 0.0
C3466 C 0.05042 0.66923 0.40485 0.0
C3467 C 0.0645 0.67436 0.4063 0.0
C3468 C 0.07332 0.68836 0.40891 0.0
C3469 C 0.10341 0.7425 0.46278 0.0
C3470 C 0.11252 0.73783 0.4659 0.0
C3471 C 0.0976 0.74027 0.45028 0.0
C3472 C 0.10075 0.73328 0.44072 0.0
C3473 C 0.11 0.72877 0.44375 0.0
C3474 C 0.1159 0.7311 0.45621 0.0
C3475 C 0.09377 0.72998 0.4278 0.0
C3476 C 0.08553 0.7161 0.42414 0.0
C3477 C 0.09435 0.74028 0.41961 0.0
C3478 C 0.10332 0.75513 0.42275 0.0
C3479 C 0.1174 0.76057 0.42528 0.0
C3480 C 0.12577 0.77453 0.42835 0.0
C3481 C 0.12022 0.7832 0.42883 0.0
C3482 C 0.10628 0.77792 0.42621 0.0
C3483 C 0.09785 0.76395 0.42316 0.0
H3484 H 0.12673 0.79401 0.43121 0.0
H3485 H 0.04361 0.6584 0.40281 0.0
H3486 H 0.30001 0.02134 0.70228 0.0
H3487 H 0.29168 0.02916 0.72069 0.0
H3488 H 0.33314 0.06051 0.73026 0.0
H3489 H 0.34151 0.05289 0.71184 0.0
H3490 H 0.3175 0.0454 0.75202 0.0
H3491 H 0.31423 0.06985 0.7149 0.0
H3492 H 0.30658 0.07147 0.69275 0.0
H3493 H 0.26459 0.04699 0.70405 0.0
H3494 H 0.27201 0.04506 0.72623 0.0
H3495 H 0.30987 0.09117 0.79387 0.0
H3496 H 0.31577 0.08049 0.77609 0.0
H3497 H 0.27297 0.05557 0.76559 0.0
H3498 H 0.26706 0.06656 0.78318 0.0
H3499 H 0.28762 0.06543 0.74441 0.0
H3500 H 0.29017 0.04201 0.78171 0.0
H3501 H 0.29716 0.03951 0.80387 0.0
H3502 H 0.33934 0.06051 0.79255 0.0
H3503 H 0.33262 0.06332 0.77037 0.0
C3504 C 0.30733 0.02988 0.70833 0.0
C3505 C 0.32139 0.03656 0.70561 0.0
C3506 C 0.30256 0.03433 0.71881 0.0
C3507 C 0.31181 0.04543 0.72677 0.0
C3508 C 0.32586 0.05192 0.72422 0.0
C3509 C 0.33061 0.0476 0.71367 0.0
C3510 C 0.30688 0.05051 0.73764 0.0
C3511 C 0.31106 0.04989 0.75039 0.0
C3512 C 0.29814 0.05596 0.73547 0.0
C3513 C 0.29367 0.05718 0.72217 0.0
C3514 C 0.30337 0.06471 0.71263 0.0
C3515 C 0.29908 0.06571 0.70008 0.0
C3516 C 0.28511 0.0593 0.69698 0.0
C3517 C 0.27541 0.05192 0.70645 0.0
C3518 C 0.27965 0.05088 0.71902 0.0
C3519 C 0.30174 0.08353 0.78768 0.0
C3520 C 0.28802 0.07991 0.78972 0.0
C3521 C 0.3051 0.07732 0.77761 0.0
C3522 C 0.2948 0.06713 0.76957 0.0
C3523 C 0.28109 0.06343 0.77164 0.0
C3524 C 0.27772 0.06971 0.78166 0.0
C3525 C 0.29839 0.06053 0.75888 0.0
C3526 C 0.29396 0.06084 0.74613 0.0
C3527 C 0.30679 0.05466 0.76107 0.0
C3528 C 0.31089 0.05298 0.7744 0.0
C3529 C 0.30094 0.0462 0.78397 0.0
C3530 C 0.30486 0.04471 0.79653 0.0
C3531 C 0.31869 0.04988 0.79962 0.0
C3532 C 0.32863 0.05652 0.79015 0.0
C3533 C 0.32477 0.05806 0.77758 0.0
H3534 H 0.3217 0.04871 0.80935 0.0
H3535 H 0.2818 0.06009 0.68726 0.0
H3536 H 0.94753 0.28469 0.70584 0.0
H3537 H 0.93867 0.26954 0.7245 0.0
H3538 H 0.97697 0.2699 0.72833 0.0
H3539 H 0.98588 0.285 0.7095 0.0
H3540 H 0.95497 0.2441 0.73042 0.0
H3541 H 0.96966 0.28873 0.7491 0.0
H3542 H 0.97103 0.31131 0.75074 0.0
H3543 H 0.92759 0.29142 0.75638 0.0
H3544 H 0.92592 0.26872 0.75458 0.0
H3545 H 0.939 0.21152 0.7917 0.0
H3546 H 0.95024 0.22808 0.77434 0.0
H3547 H 0.91463 0.2327 0.77033 0.0
H3548 H 0.90364 0.21664 0.78807 0.0
H3549 H 0.93669 0.2567 0.7688 0.0
H3550 H 0.92159 0.21229 0.7487 0.0
H3551 H 0.91977 0.18955 0.74644 0.0
H3552 H 0.96345 0.20885 0.743 0.0
H3553 H 0.96554 0.2317 0.7454 0.0
C3554 C 0.95407 0.28154 0.71063 0.0
C3555 C 0.96741 0.28605 0.70623 0.0
C3556 C 0.94902 0.27294 0.72134 0.0
C3557 C 0.95723 0.26876 0.72791 0.0
C3558 C 0.97049 0.27306 0.72342 0.0
C3559 C 0.97557 0.28168 0.71268 0.0
C3560 C 0.95186 0.25975 0.73937 0.0
C3561 C 0.95117 0.24694 0.73892 0.0
C3562 C 0.94665 0.26335 0.75031 0.0
C3563 C 0.94766 0.27701 0.7516 0.0
C3564 C 0.96039 0.28917 0.75061 0.0
C3565 C 0.96122 0.30199 0.75158 0.0
C3566 C 0.9494 0.3028 0.75363 0.0
C3567 C 0.93674 0.29078 0.75477 0.0
C3568 C 0.93584 0.27793 0.75379 0.0
C3569 C 0.93356 0.21602 0.78704 0.0
C3570 C 0.92028 0.21243 0.79096 0.0
C3571 C 0.93996 0.22546 0.77711 0.0
C3572 C 0.93315 0.23139 0.77079 0.0
C3573 C 0.92005 0.22816 0.77497 0.0
C3574 C 0.91371 0.21886 0.78502 0.0
C3575 C 0.93963 0.24094 0.75981 0.0
C3576 C 0.94054 0.25387 0.76035 0.0
C3577 C 0.94499 0.23742 0.7489 0.0
C3578 C 0.94373 0.22369 0.74735 0.0
C3579 C 0.93081 0.21168 0.74754 0.0
C3580 C 0.92973 0.19877 0.74623 0.0
C3581 C 0.94149 0.19776 0.74461 0.0
C3582 C 0.95435 0.20965 0.74427 0.0
C3583 C 0.95549 0.22258 0.74559 0.0
H3584 H 0.94063 0.18775 0.7436 0.0
H3585 H 0.95007 0.31273 0.75436 0.0
H3586 H 0.69818 0.67819 0.71701 0.0
H3587 H 0.71464 0.68643 0.73516 0.0
H3588 H 0.74796 0.70126 0.70802 0.0
H3589 H 0.73148 0.69279 0.68977 0.0
H3590 H 0.75166 0.68753 0.72697 0.0
H3591 H 0.74109 0.72355 0.72493 0.0
H3592 H 0.72642 0.73401 0.72402 0.0
H3593 H 0.70982 0.71728 0.76134 0.0
H3594 H 0.72426 0.70655 0.76239 0.0
H3595 H 0.80356 0.72926 0.77486 0.0
H3596 H 0.78791 0.72213 0.756 0.0
H3597 H 0.75378 0.69781 0.7809 0.0
H3598 H 0.76938 0.7044 0.79972 0.0
H3599 H 0.75122 0.71728 0.7629 0.0
H3600 H 0.76181 0.68071 0.76409 0.0
H3601 H 0.77721 0.67107 0.76472 0.0
H3602 H 0.79474 0.6902 0.7284 0.0
H3603 H 0.77958 0.70015 0.72767 0.0
C3604 C 0.70902 0.68331 0.7149 0.0
C3605 C 0.71355 0.68487 0.70197 0.0
C3606 C 0.71842 0.68807 0.72529 0.0
C3607 C 0.73255 0.69459 0.72296 0.0
C3608 C 0.73711 0.69627 0.71005 0.0
C3609 C 0.72769 0.69148 0.69963 0.0
C3610 C 0.74249 0.69918 0.73404 0.0
C3611 C 0.7517 0.69422 0.73471 0.0
C3612 C 0.7424 0.70771 0.74427 0.0
C3613 C 0.73367 0.71413 0.74368 0.0
C3614 C 0.73423 0.722 0.73289 0.0
C3615 C 0.72597 0.728 0.73236 0.0
C3616 C 0.71716 0.72628 0.7426 0.0
C3617 C 0.71663 0.71859 0.75341 0.0
C3618 C 0.72486 0.71255 0.75398 0.0
C3619 C 0.79272 0.72241 0.77633 0.0
C3620 C 0.78768 0.71774 0.78887 0.0
C3621 C 0.78382 0.71834 0.76555 0.0
C3622 C 0.76971 0.70958 0.76713 0.0
C3623 C 0.76463 0.70472 0.77956 0.0
C3624 C 0.77356 0.70855 0.7903 0.0
C3625 C 0.76024 0.70556 0.75579 0.0
C3626 C 0.75116 0.71064 0.7551 0.0
C3627 C 0.76055 0.69727 0.74548 0.0
C3628 C 0.76969 0.69133 0.74591 0.0
C3629 C 0.76906 0.683 0.75631 0.0
C3630 C 0.77772 0.67745 0.75667 0.0
C3631 C 0.78698 0.68006 0.74663 0.0
C3632 C 0.78758 0.68821 0.73619 0.0
C3633 C 0.77895 0.6938 0.7358 0.0
H3634 H 0.79367 0.67574 0.74692 0.0
H3635 H 0.71078 0.73094 0.74217 0.0
H3636 H 0.71103 0.64572 0.65428 0.0
H3637 H 0.7207 0.639 0.63627 0.0
H3638 H 0.69406 0.64376 0.60909 0.0
H3639 H 0.68415 0.65019 0.62708 0.0
H3640 H 0.69577 0.62181 0.60262 0.0
H3641 H 0.7276 0.66888 0.61344 0.0
H3642 H 0.74273 0.68858 0.62777 0.0
H3643 H 0.76687 0.66981 0.63653 0.0
H3644 H 0.75176 0.64988 0.62239 0.0
H3645 H 0.73403 0.63224 0.54464 0.0
H3646 H 0.72396 0.63674 0.56366 0.0
H3647 H 0.74468 0.6223 0.5888 0.0
H3648 H 0.75451 0.61724 0.5697 0.0
H3649 H 0.7461 0.64838 0.59654 0.0
H3650 H 0.7138 0.60142 0.58438 0.0
H3651 H 0.69872 0.58271 0.56908 0.0
H3652 H 0.67548 0.60276 0.56175 0.0
H3653 H 0.69058 0.62172 0.57685 0.0
C3654 C 0.70713 0.64518 0.64448 0.0
C3655 C 0.69689 0.64855 0.64207 0.0
C3656 C 0.71272 0.64141 0.63419 0.0
C3657 C 0.70828 0.64112 0.62129 0.0
C3658 C 0.69768 0.64396 0.61894 0.0
C3659 C 0.69204 0.64765 0.62923 0.0
C3660 C 0.71496 0.63826 0.61021 0.0
C3661 C 0.70676 0.62772 0.60124 0.0
C3662 C 0.72933 0.64584 0.60848 0.0
C3663 C 0.73846 0.65781 0.61697 0.0
C3664 C 0.73607 0.66889 0.61851 0.0
C3665 C 0.74465 0.68011 0.62658 0.0
C3666 C 0.75573 0.68043 0.63308 0.0
C3667 C 0.75827 0.66954 0.6315 0.0
C3668 C 0.7497 0.65828 0.62345 0.0
C3669 C 0.73634 0.62978 0.55413 0.0
C3670 C 0.74465 0.62378 0.55557 0.0
C3671 C 0.73061 0.63246 0.56502 0.0
C3672 C 0.73341 0.62963 0.57758 0.0
C3673 C 0.74229 0.6244 0.57915 0.0
C3674 C 0.74783 0.62147 0.56825 0.0
C3675 C 0.72689 0.63199 0.58903 0.0
C3676 C 0.73513 0.64245 0.59802 0.0
C3677 C 0.71255 0.62447 0.59068 0.0
C3678 C 0.70342 0.61306 0.58164 0.0
C3679 C 0.70556 0.60191 0.57941 0.0
C3680 C 0.69699 0.59125 0.57079 0.0
C3681 C 0.68617 0.59157 0.56442 0.0
C3682 C 0.68388 0.60254 0.56667 0.0
C3683 C 0.69244 0.61324 0.57527 0.0
H3684 H 0.67954 0.5833 0.55776 0.0
H3685 H 0.76237 0.68913 0.63933 0.0
H3686 H 0.3327 0.05703 0.64653 0.0
H3687 H 0.33804 0.07132 0.62729 0.0
H3688 H 0.37007 0.06257 0.61741 0.0
H3689 H 0.36486 0.04831 0.63679 0.0
H3690 H 0.37798 0.08984 0.61442 0.0
H3691 H 0.34012 0.04603 0.60136 0.0
H3692 H 0.31714 0.02565 0.6034 0.0
H3693 H 0.29894 0.05125 0.60147 0.0
H3694 H 0.32184 0.07181 0.59961 0.0
H3695 H 0.38632 0.11744 0.55099 0.0
H3696 H 0.38237 0.10195 0.5691 0.0
H3697 H 0.34653 0.10417 0.57971 0.0
H3698 H 0.35001 0.11899 0.56124 0.0
H3699 H 0.34123 0.07914 0.58169 0.0
H3700 H 0.37884 0.12303 0.59626 0.0
H3701 H 0.40173 0.14366 0.59474 0.0
H3702 H 0.42027 0.11831 0.5943 0.0
H3703 H 0.39746 0.09752 0.59566 0.0
C3704 C 0.34093 0.05819 0.64031 0.0
C3705 C 0.34833 0.0515 0.64312 0.0
C3706 C 0.34393 0.06631 0.62929 0.0
C3707 C 0.35431 0.06782 0.62083 0.0
C3708 C 0.36198 0.06148 0.6238 0.0
C3709 C 0.35898 0.05333 0.63485 0.0
C3710 C 0.35699 0.07592 0.60883 0.0
C3711 C 0.37002 0.0874 0.60715 0.0
C3712 C 0.34651 0.07285 0.59949 0.0
C3713 C 0.33271 0.06047 0.60044 0.0
C3714 C 0.33122 0.04732 0.60145 0.0
C3715 C 0.31821 0.03574 0.60256 0.0
C3716 C 0.30659 0.03716 0.60258 0.0
C3717 C 0.30795 0.05016 0.60145 0.0
C3718 C 0.32095 0.06179 0.60036 0.0
C3719 C 0.37764 0.11464 0.55725 0.0
C3720 C 0.36874 0.11977 0.55492 0.0
C3721 C 0.37542 0.10585 0.56761 0.0
C3722 C 0.36435 0.10217 0.57599 0.0
C3723 C 0.35522 0.10696 0.57346 0.0
C3724 C 0.3573 0.11555 0.56296 0.0
C3725 C 0.36218 0.09328 0.58736 0.0
C3726 C 0.34923 0.08159 0.58891 0.0
C3727 C 0.37272 0.09622 0.59662 0.0
C3728 C 0.38644 0.10872 0.59593 0.0
C3729 C 0.38779 0.12186 0.59576 0.0
C3730 C 0.40075 0.13357 0.59494 0.0
C3731 C 0.41244 0.13229 0.59439 0.0
C3732 C 0.4112 0.11929 0.59471 0.0
C3733 C 0.39826 0.10753 0.59552 0.0
H3734 H 0.42246 0.14138 0.59374 0.0
H3735 H 0.29652 0.02818 0.60346 0.0
H3736 H 0.94483 0.27801 0.64905 0.0
H3737 H 0.9297 0.2697 0.62984 0.0
H3738 H 0.9514 0.31022 0.61348 0.0
H3739 H 0.96633 0.31867 0.63283 0.0
H3740 H 0.92468 0.2997 0.61045 0.0
H3741 H 0.95642 0.28374 0.60266 0.0
H3742 H 0.96905 0.27171 0.60792 0.0
H3743 H 0.93111 0.23361 0.61081 0.0
H3744 H 0.91824 0.24545 0.60573 0.0
H3745 H 0.89886 0.28163 0.54596 0.0
H3746 H 0.91372 0.28949 0.5651 0.0
H3747 H 0.89122 0.24905 0.5814 0.0
H3748 H 0.87639 0.24087 0.56208 0.0
H3749 H 0.91827 0.25931 0.58447 0.0
H3750 H 0.88658 0.27535 0.59209 0.0
H3751 H 0.87402 0.28744 0.58679 0.0
H3752 H 0.91203 0.32551 0.58414 0.0
H3753 H 0.92483 0.31361 0.58927 0.0
C3754 C 0.94638 0.28514 0.64135 0.0
C3755 C 0.95678 0.29898 0.64241 0.0
C3756 C 0.93777 0.28037 0.63035 0.0
C3757 C 0.93953 0.28929 0.62013 0.0
C3758 C 0.94986 0.30314 0.62123 0.0
C3759 C 0.9584 0.30795 0.63227 0.0
C3760 C 0.93053 0.28424 0.60835 0.0
C3761 C 0.92342 0.29098 0.60467 0.0
C3762 C 0.92864 0.27266 0.60098 0.0
C3763 C 0.93636 0.26551 0.60393 0.0
C3764 C 0.95077 0.27281 0.6045 0.0
C3765 C 0.95797 0.26603 0.60744 0.0
C3766 C 0.95089 0.25191 0.60973 0.0
C3767 C 0.93658 0.24455 0.60905 0.0
C3768 C 0.92933 0.25128 0.60613 0.0
C3769 C 0.89712 0.27423 0.5534 0.0
C3770 C 0.88667 0.26036 0.55205 0.0
C3771 C 0.9056 0.27885 0.56448 0.0
C3772 C 0.90359 0.26987 0.57469 0.0
C3773 C 0.89305 0.25613 0.57357 0.0
C3774 C 0.88461 0.25147 0.56246 0.0
C3775 C 0.91246 0.2748 0.58656 0.0
C3776 C 0.91953 0.26803 0.59026 0.0
C3777 C 0.91434 0.28636 0.59394 0.0
C3778 C 0.90666 0.29356 0.59095 0.0
C3779 C 0.89226 0.28628 0.59029 0.0
C3780 C 0.8851 0.2931 0.58733 0.0
C3781 C 0.89223 0.30723 0.5851 0.0
C3782 C 0.90653 0.31457 0.58586 0.0
C3783 C 0.91374 0.30779 0.58881 0.0
H3784 H 0.88667 0.31249 0.5828 0.0
H3785 H 0.95648 0.24668 0.612 0.0
H3786 H 0.33344 0.27489 0.64415 0.0
H3787 H 0.34122 0.26634 0.62597 0.0
H3788 H 0.37483 0.30739 0.61991 0.0
H3789 H 0.36736 0.31587 0.63834 0.0
H3790 H 0.34297 0.271 0.60147 0.0
H3791 H 0.40202 0.30714 0.60763 0.0
H3792 H 0.41908 0.31822 0.62543 0.0
H3793 H 0.39211 0.2873 0.65188 0.0
H3794 H 0.37498 0.27593 0.6342 0.0
H3795 H 0.37603 0.27635 0.54211 0.0
H3796 H 0.36689 0.27948 0.56257 0.0
H3797 H 0.38774 0.26208 0.58355 0.0
H3798 H 0.39754 0.25969 0.56318 0.0
H3799 H 0.39139 0.28303 0.59617 0.0
H3800 H 0.35148 0.24455 0.57844 0.0
H3801 H 0.33373 0.23067 0.56191 0.0
H3802 H 0.32112 0.26092 0.56097 0.0
H3803 H 0.33892 0.27509 0.57736 0.0
C3804 C 0.34256 0.28206 0.63901 0.0
C3805 C 0.34984 0.29604 0.6427 0.0
C3806 C 0.34697 0.27717 0.62859 0.0
C3807 C 0.3587 0.28617 0.62163 0.0
C3808 C 0.36593 0.30017 0.62529 0.0
C3809 C 0.36162 0.30503 0.63579 0.0
C3810 C 0.36314 0.28106 0.61028 0.0
C3811 C 0.35355 0.27357 0.60034 0.0
C3812 C 0.37684 0.28404 0.60894 0.0
C3813 C 0.38717 0.29075 0.6196 0.0
C3814 C 0.39976 0.30266 0.61723 0.0
C3815 C 0.40943 0.309 0.6273 0.0
C3816 C 0.40666 0.30349 0.63979 0.0
C3817 C 0.39423 0.29159 0.64222 0.0
C3818 C 0.38452 0.2852 0.63217 0.0
C3819 C 0.37849 0.27302 0.55108 0.0
C3820 C 0.38729 0.26756 0.55098 0.0
C3821 C 0.37321 0.27474 0.56278 0.0
C3822 C 0.37639 0.27078 0.57464 0.0
C3823 C 0.38507 0.26516 0.57455 0.0
C3824 C 0.39057 0.26368 0.56286 0.0
C3825 C 0.3713 0.27327 0.58717 0.0
C3826 C 0.38078 0.28031 0.59733 0.0
C3827 C 0.35739 0.26944 0.5889 0.0
C3828 C 0.34661 0.26093 0.57907 0.0
C3829 C 0.34498 0.24829 0.57465 0.0
C3830 C 0.3349 0.24036 0.56531 0.0
C3831 C 0.32631 0.24492 0.56038 0.0
C3832 C 0.32778 0.2574 0.56479 0.0
C3833 C 0.33785 0.26538 0.57412 0.0
H3834 H 0.31852 0.23877 0.55315 0.0
H3835 H 0.41416 0.30842 0.64757 0.0
H3836 H 0.68798 0.05604 0.63524 0.0
H3837 H 0.6956 0.07142 0.61665 0.0
H3838 H 0.73579 0.07588 0.62001 0.0
H3839 H 0.72828 0.0606 0.63873 0.0
H3840 H 0.73743 0.10025 0.6149 0.0
H3841 H 0.71349 0.05438 0.59748 0.0
H3842 H 0.69429 0.03063 0.59479 0.0
H3843 H 0.66817 0.04579 0.58159 0.0
H3844 H 0.68718 0.06966 0.58439 0.0
H3845 H 0.75895 0.12044 0.54907 0.0
H3846 H 0.75213 0.10801 0.56961 0.0
H3847 H 0.7152 0.11048 0.56945 0.0
H3848 H 0.72213 0.12334 0.54924 0.0
H3849 H 0.71181 0.08297 0.57296 0.0
H3850 H 0.73689 0.12926 0.58994 0.0
H3851 H 0.75682 0.15265 0.59212 0.0
H3852 H 0.78167 0.13608 0.60547 0.0
H3853 H 0.76193 0.11255 0.60317 0.0
C3854 C 0.69848 0.06038 0.63208 0.0
C3855 C 0.70752 0.05706 0.63838 0.0
C3856 C 0.7028 0.06913 0.62144 0.0
C3857 C 0.71621 0.07464 0.61684 0.0
C3858 C 0.72539 0.07171 0.62338 0.0
C3859 C 0.72107 0.06295 0.63405 0.0
C3860 C 0.72049 0.08309 0.60495 0.0
C3861 C 0.73191 0.09642 0.60569 0.0
C3862 C 0.71318 0.07815 0.59299 0.0
C3863 C 0.70172 0.06381 0.59129 0.0
C3864 C 0.70362 0.05266 0.59411 0.0
C3865 C 0.69277 0.03917 0.59255 0.0
C3866 C 0.68 0.0367 0.58806 0.0
C3867 C 0.67806 0.04772 0.58509 0.0
C3868 C 0.68887 0.06123 0.58666 0.0
C3869 C 0.74937 0.11834 0.55341 0.0
C3870 C 0.74087 0.12245 0.54722 0.0
C3871 C 0.74552 0.11129 0.56515 0.0
C3872 C 0.7331 0.10823 0.57092 0.0
C3873 C 0.72475 0.11263 0.56502 0.0
C3874 C 0.72871 0.11991 0.5534 0.0
C3875 C 0.72866 0.10009 0.58295 0.0
C3876 C 0.71725 0.0868 0.58219 0.0
C3877 C 0.73607 0.105 0.59484 0.0
C3878 C 0.74796 0.11913 0.59623 0.0
C3879 C 0.74664 0.13059 0.59321 0.0
C3880 C 0.75789 0.14388 0.59449 0.0
C3881 C 0.77052 0.14585 0.59889 0.0
C3882 C 0.7719 0.13454 0.60204 0.0
C3883 C 0.76067 0.12122 0.60075 0.0
H3884 H 0.77922 0.15615 0.59989 0.0
H3885 H 0.67162 0.02625 0.58685 0.0
H3886 H 0.9423 0.66836 0.64852 0.0
H3887 H 0.92789 0.66178 0.62876 0.0
H3888 H 0.9399 0.63192 0.61889 0.0
H3889 H 0.95416 0.63829 0.63871 0.0
H3890 H 0.9421 0.64957 0.59817 0.0
H3891 H 0.90966 0.62035 0.62985 0.0
H3892 H 0.89711 0.61518 0.65051 0.0
H3893 H 0.88053 0.64079 0.63974 0.0
H3894 H 0.89315 0.64629 0.61908 0.0
H3895 H 0.89471 0.61222 0.54772 0.0
H3896 H 0.90748 0.61831 0.56816 0.0
H3897 H 0.89236 0.64565 0.5781 0.0
H3898 H 0.87947 0.63971 0.55745 0.0
H3899 H 0.89167 0.62981 0.5989 0.0
H3900 H 0.92362 0.65908 0.56746 0.0
H3901 H 0.93627 0.66491 0.54684 0.0
H3902 H 0.95406 0.64026 0.55719 0.0
H3903 H 0.94133 0.63409 0.5778 0.0
C3904 C 0.94181 0.66035 0.64216 0.0
C3905 C 0.94933 0.65381 0.64514 0.0
C3906 C 0.93357 0.65658 0.63092 0.0
C3907 C 0.93283 0.64634 0.62242 0.0
C3908 C 0.94035 0.63984 0.62535 0.0
C3909 C 0.94844 0.64345 0.63668 0.0
C3910 C 0.92442 0.6426 0.61032 0.0
C3911 C 0.93105 0.64507 0.59831 0.0
C3912 C 0.91007 0.63714 0.61057 0.0
C3913 C 0.90248 0.63386 0.62298 0.0
C3914 C 0.90345 0.625 0.63194 0.0
C3915 C 0.8963 0.62198 0.64364 0.0
C3916 C 0.88806 0.62769 0.64646 0.0
C3917 C 0.88693 0.63639 0.63756 0.0
C3918 C 0.89408 0.63946 0.62585 0.0
C3919 C 0.89399 0.61954 0.55411 0.0
C3920 C 0.88608 0.62562 0.55076 0.0
C3921 C 0.90137 0.62301 0.56587 0.0
C3922 C 0.90099 0.63254 0.57456 0.0
C3923 C 0.89282 0.6383 0.5715 0.0
C3924 C 0.88551 0.63492 0.55969 0.0
C3925 C 0.90934 0.63665 0.58674 0.0
C3926 C 0.90272 0.6343 0.59875 0.0
C3927 C 0.92372 0.64233 0.58651 0.0
C3928 C 0.9314 0.646 0.57412 0.0
C3929 C 0.93012 0.65479 0.56529 0.0
C3930 C 0.93733 0.65818 0.55361 0.0
C3931 C 0.94593 0.65293 0.55069 0.0
C3932 C 0.94737 0.6443 0.55946 0.0
C3933 C 0.94017 0.64086 0.57114 0.0
H3934 H 0.95151 0.65557 0.54164 0.0
H3935 H 0.88253 0.62533 0.65552 0.0
H3936 H 0.98012 0.69098 0.71803 0.0
H3937 H 0.97139 0.69863 0.7362 0.0
H3938 H 0.93173 0.68029 0.71728 0.0
H3939 H 0.94027 0.67223 0.69921 0.0
H3940 H 0.94572 0.71063 0.72835 0.0
H3941 H 0.93067 0.66309 0.73883 0.0
H3942 H 0.93458 0.6436 0.74203 0.0
H3943 H 0.96458 0.66653 0.77194 0.0
H3944 H 0.961 0.68625 0.76876 0.0
H3945 H 0.91181 0.72082 0.78125 0.0
H3946 H 0.91717 0.71081 0.76264 0.0
H3947 H 0.94902 0.70966 0.78517 0.0
H3948 H 0.943 0.71867 0.80415 0.0
H3949 H 0.93784 0.68827 0.77134 0.0
H3950 H 0.95489 0.73565 0.76145 0.0
H3951 H 0.95379 0.7568 0.7583 0.0
H3952 H 0.92373 0.73678 0.72772 0.0
H3953 H 0.92453 0.71545 0.73081 0.0
C3954 C 0.96955 0.68862 0.71772 0.0
C3955 C 0.96085 0.681 0.70724 0.0
C3956 C 0.9646 0.69297 0.7281 0.0
C3957 C 0.95094 0.68998 0.72803 0.0
C3958 C 0.9423 0.68267 0.71745 0.0
C3959 C 0.94718 0.67805 0.70719 0.0
C3960 C 0.9457 0.69436 0.73917 0.0
C3961 C 0.94376 0.70564 0.73772 0.0
C3962 C 0.94363 0.68809 0.75143 0.0
C3963 C 0.94566 0.67618 0.75346 0.0
C3964 C 0.93819 0.66402 0.746 0.0
C3965 C 0.94033 0.65292 0.74783 0.0
C3966 C 0.94985 0.65384 0.75716 0.0
C3967 C 0.95722 0.66584 0.7647 0.0
C3968 C 0.95513 0.67697 0.7629 0.0
C3969 C 0.91996 0.71845 0.78232 0.0
C3970 C 0.92731 0.72104 0.79417 0.0
C3971 C 0.92307 0.71278 0.77157 0.0
C3972 C 0.93381 0.70987 0.7723 0.0
C3973 C 0.94079 0.71195 0.78425 0.0
C3974 C 0.93745 0.71727 0.79508 0.0
C3975 C 0.93787 0.70473 0.76067 0.0
C3976 C 0.93966 0.69328 0.762 0.0
C3977 C 0.94014 0.7111 0.74836 0.0
C3978 C 0.93966 0.72392 0.74646 0.0
C3979 C 0.94798 0.73574 0.75411 0.0
C3980 C 0.94742 0.74776 0.75233 0.0
C3981 C 0.93867 0.74812 0.74284 0.0
C3982 C 0.93049 0.73648 0.73509 0.0
C3983 C 0.931 0.72442 0.73684 0.0
H3984 H 0.93825 0.75744 0.74147 0.0
H3985 H 0.95149 0.64524 0.75856 0.0
H3986 H 0.30298 0.2883 0.70702 0.0
H3987 H 0.29504 0.27411 0.72647 0.0
H3988 H 0.3244 0.26081 0.71991 0.0
H3989 H 0.33249 0.27508 0.7005 0.0
H3990 H 0.29815 0.23936 0.72703 0.0
H3991 H 0.33227 0.2848 0.74134 0.0
H3992 H 0.34288 0.31001 0.74307 0.0
H3993 H 0.30695 0.30561 0.76173 0.0
H3994 H 0.29602 0.28035 0.75991 0.0
H3995 H 0.3021 0.21603 0.7903 0.0
H3996 H 0.30723 0.22801 0.76953 0.0
H3997 H 0.27868 0.24182 0.77825 0.0
H3998 H 0.27333 0.22985 0.79882 0.0
H3999 H 0.30371 0.26281 0.76985 0.0
H4000 H 0.26985 0.21739 0.75631 0.0
H4001 H 0.25905 0.19218 0.75432 0.0
H4002 H 0.29421 0.19648 0.73418 0.0
H4003 H 0.30533 0.22173 0.73622 0.0
C4004 C 0.30765 0.28224 0.70964 0.0
C4005 C 0.31839 0.28283 0.70229 0.0
C4006 C 0.30313 0.27418 0.72077 0.0
C4007 C 0.30922 0.26652 0.72465 0.0
C4008 C 0.31959 0.26667 0.71705 0.0
C4009 C 0.32422 0.27485 0.70601 0.0
C4010 C 0.30517 0.25879 0.73696 0.0
C4011 C 0.29949 0.24448 0.73642 0.0
C4012 C 0.30667 0.26549 0.74914 0.0
C4013 C 0.31326 0.28068 0.75035 0.0
C4014 C 0.32658 0.2892 0.74571 0.0
C4015 C 0.33266 0.3035 0.74672 0.0
C4016 C 0.32558 0.30941 0.75247 0.0
C4017 C 0.31241 0.30102 0.75726 0.0
C4018 C 0.30627 0.28671 0.75624 0.0
C4019 C 0.29689 0.22159 0.78777 0.0
C4020 C 0.28747 0.22205 0.7964 0.0
C4021 C 0.29979 0.22839 0.7759 0.0
C4022 C 0.29332 0.23579 0.77237 0.0
C4023 C 0.28383 0.23621 0.78084 0.0
C4024 C 0.2808 0.2293 0.79267 0.0
C4025 C 0.2967 0.24334 0.75996 0.0
C4026 C 0.3023 0.25766 0.76047 0.0
C4027 C 0.29511 0.23664 0.74776 0.0
C4028 C 0.28849 0.22145 0.74655 0.0
C4029 C 0.27534 0.21296 0.75157 0.0
C4030 C 0.26915 0.19866 0.75041 0.0
C4031 C 0.27595 0.19273 0.74416 0.0
C4032 C 0.28896 0.20109 0.73904 0.0
C4033 C 0.29521 0.21539 0.74019 0.0
H4034 H 0.27113 0.18166 0.74326 0.0
H4035 H 0.33031 0.32048 0.75324 0.0
H4036 H 0.70913 0.04649 0.71068 0.0
H4037 H 0.72474 0.05357 0.72942 0.0
H4038 H 0.75242 0.04532 0.70741 0.0
H4039 H 0.73652 0.03773 0.6887 0.0
H4040 H 0.74973 0.03543 0.73074 0.0
H4041 H 0.75918 0.07891 0.71435 0.0
H4042 H 0.75363 0.09622 0.70646 0.0
H4043 H 0.73594 0.09629 0.74339 0.0
H4044 H 0.74122 0.07885 0.75145 0.0
H4045 H 0.80114 0.06467 0.78017 0.0
H4046 H 0.78958 0.0618 0.75909 0.0
H4047 H 0.75765 0.06562 0.77821 0.0
H4048 H 0.7693 0.06872 0.79926 0.0
H4049 H 0.76453 0.07913 0.75519 0.0
H4050 H 0.75349 0.03436 0.77074 0.0
H4051 H 0.75896 0.01699 0.77863 0.0
H4052 H 0.77981 0.01952 0.74298 0.0
H4053 H 0.77463 0.03707 0.73496 0.0
C4054 C 0.71859 0.04627 0.70979 0.0
C4055 C 0.72164 0.04161 0.69821 0.0
C4056 C 0.72755 0.0504 0.7205 0.0
C4057 C 0.73991 0.05024 0.71977 0.0
C4058 C 0.74298 0.04559 0.70819 0.0
C4059 C 0.73392 0.04129 0.6975 0.0
C4060 C 0.74929 0.05438 0.7313 0.0
C4061 C 0.75319 0.04511 0.73592 0.0
C4062 C 0.7536 0.0669 0.73824 0.0
C4063 C 0.75052 0.0775 0.73347 0.0
C4064 C 0.75404 0.08256 0.72076 0.0
C4065 C 0.75095 0.0924 0.71626 0.0
C4066 C 0.74441 0.09733 0.72441 0.0
C4067 C 0.741 0.09246 0.73709 0.0
C4068 C 0.74406 0.08261 0.74163 0.0
C4069 C 0.7918 0.06517 0.77981 0.0
C4070 C 0.78618 0.06707 0.79132 0.0
C4071 C 0.78516 0.06344 0.7678 0.0
C4072 C 0.77268 0.06336 0.7671 0.0
C4073 C 0.76728 0.06569 0.77852 0.0
C4074 C 0.77393 0.06745 0.79053 0.0
C4075 C 0.76484 0.06013 0.75464 0.0
C4076 C 0.76121 0.06954 0.74988 0.0
C4077 C 0.7608 0.04776 0.74754 0.0
C4078 C 0.76381 0.03713 0.75231 0.0
C4079 C 0.75933 0.03129 0.76463 0.0
C4080 C 0.76236 0.0214 0.76912 0.0
C4081 C 0.76976 0.01718 0.76133 0.0
C4082 C 0.7741 0.02282 0.74902 0.0
C4083 C 0.77112 0.03273 0.74449 0.0
H4084 H 0.7721 0.00953 0.76482 0.0
H4085 H 0.74202 0.10494 0.7209 0.0
H4086 H 0.02384 0.34028 0.04562 0.0
H4087 H 0.03957 0.33393 0.05568 0.0
H4088 H 0.05788 0.33623 0.01832 0.0
H4089 H 0.04225 0.34281 0.00818 0.0
H4090 H 0.0488 0.31107 0.03193 0.0
H4091 H 0.07627 0.35977 0.03975 0.0
H4092 H 0.08065 0.3825 0.04747 0.0
H4093 H 0.07039 0.36746 0.08644 0.0
H4094 H 0.06575 0.34457 0.07891 0.0
H4095 H 0.09916 0.28977 0.05783 0.0
H4096 H 0.0852 0.30156 0.04417 0.0
H4097 H 0.0748 0.31747 0.08625 0.0
H4098 H 0.08871 0.30616 0.10107 0.0
H4099 H 0.08155 0.33596 0.0683 0.0
H4100 H 0.05158 0.2879 0.06177 0.0
H4101 H 0.0445 0.26398 0.05548 0.0
H4102 H 0.05621 0.2762 0.01597 0.0
H4103 H 0.06352 0.30024 0.02207 0.0
C4104 C 0.03133 0.3396 0.03957 0.0
C4105 C 0.03181 0.342 0.02612 0.0
C4106 C 0.04034 0.33603 0.04534 0.0
C4107 C 0.04991 0.33468 0.03774 0.0
C4108 C 0.05058 0.33728 0.02434 0.0
C4109 C 0.04169 0.34106 0.01858 0.0
C4110 C 0.05849 0.32958 0.0437 0.0
C4111 C 0.05623 0.31664 0.03967 0.0
C4112 C 0.06769 0.33663 0.05417 0.0
C4113 C 0.07056 0.35042 0.05874 0.0
C4114 C 0.07484 0.36127 0.04994 0.0
C4115 C 0.07739 0.3742 0.05429 0.0
C4116 C 0.07577 0.37642 0.06743 0.0
C4117 C 0.07163 0.36573 0.07626 0.0
C4118 C 0.06906 0.35278 0.07196 0.0
C4119 C 0.09403 0.29424 0.06313 0.0
C4120 C 0.0975 0.2989 0.08076 0.0
C4121 C 0.08585 0.30219 0.0547 0.0
C4122 C 0.07911 0.31145 0.06361 0.0
C4123 C 0.07953 0.31242 0.08123 0.0
C4124 C 0.08753 0.30483 0.09058 0.0
C4125 C 0.07193 0.31742 0.0565 0.0
C4126 C 0.07433 0.33046 0.06041 0.0
C4127 C 0.06258 0.31032 0.0461 0.0
C4128 C 0.05828 0.2959 0.04242 0.0
C4129 C 0.05275 0.28551 0.05177 0.0
C4130 C 0.04868 0.27193 0.04823 0.0
C4131 C 0.04996 0.26858 0.03535 0.0
C4132 C 0.05526 0.27881 0.02596 0.0
C4133 C 0.05936 0.29241 0.02944 0.0
H4134 H 0.04679 0.25806 0.03263 0.0
H4135 H 0.07775 0.38643 0.07078 0.0
H4136 H 0.63848 0.67461 0.04158 0.0
H4137 H 0.6457 0.69459 0.05612 0.0
H4138 H 0.68367 0.71648 0.03537 0.0
H4139 H 0.67659 0.69654 0.02092 0.0
H4140 H 0.68795 0.71666 0.06121 0.0
H4141 H 0.65911 0.72563 0.03312 0.0
H4142 H 0.63769 0.72017 0.02156 0.0
H4143 H 0.61704 0.71323 0.05809 0.0
H4144 H 0.6383 0.71846 0.06988 0.0
H4145 H 0.72175 0.78814 0.09257 0.0
H4146 H 0.71037 0.76407 0.07573 0.0
H4147 H 0.66519 0.74377 0.09819 0.0
H4148 H 0.67541 0.7674 0.11574 0.0
H4149 H 0.66295 0.74149 0.07112 0.0
H4150 H 0.69103 0.73267 0.09925 0.0
H4151 H 0.71187 0.73734 0.11147 0.0
H4152 H 0.73325 0.74292 0.07555 0.0
H4153 H 0.71259 0.73848 0.06311 0.0
C4154 C 0.64826 0.68378 0.03998 0.0
C4155 C 0.657 0.684 0.03015 0.0
C4156 C 0.65236 0.69519 0.04827 0.0
C4157 C 0.66523 0.70703 0.04682 0.0
C4158 C 0.67372 0.70744 0.03668 0.0
C4159 C 0.66963 0.69605 0.0284 0.0
C4160 C 0.67035 0.71856 0.05645 0.0
C4161 C 0.68262 0.72226 0.06319 0.0
C4162 C 0.66306 0.72545 0.05944 0.0
C4163 C 0.65026 0.72229 0.05237 0.0
C4164 C 0.64997 0.72281 0.03869 0.0
C4165 C 0.63787 0.71979 0.03209 0.0
C4166 C 0.626 0.71632 0.03908 0.0
C4167 C 0.62623 0.7159 0.05269 0.0
C4168 C 0.63831 0.7189 0.05933 0.0
C4169 C 0.71153 0.77962 0.09408 0.0
C4170 C 0.69899 0.78138 0.1044 0.0
C4171 C 0.70413 0.76488 0.08326 0.0
C4172 C 0.68637 0.75168 0.08464 0.0
C4173 C 0.67559 0.75216 0.09736 0.0
C4174 C 0.68203 0.76648 0.10871 0.0
C4175 C 0.68072 0.73979 0.07555 0.0
C4176 C 0.66831 0.73593 0.06905 0.0
C4177 C 0.68783 0.73268 0.0728 0.0
C4178 C 0.7003 0.73539 0.08025 0.0
C4179 C 0.70021 0.73501 0.09396 0.0
C4180 C 0.71198 0.7376 0.10092 0.0
C4181 C 0.72389 0.74047 0.09429 0.0
C4182 C 0.72403 0.74072 0.08067 0.0
C4183 C 0.71228 0.73815 0.07366 0.0
H4184 H 0.73299 0.74246 0.0997 0.0
H4185 H 0.61664 0.71398 0.03396 0.0
H4186 H 0.306 0.98661 0.02264 0.0
H4187 H 0.28612 0.97231 0.03592 0.0
H4188 H 0.29555 0.93954 0.03389 0.0
H4189 H 0.31525 0.95372 0.0201 0.0
H4190 H 0.26882 0.92927 0.03221 0.0
H4191 H 0.30408 0.96107 0.06114 0.0
H4192 H 0.32219 0.98384 0.06909 0.0
H4193 H 0.29264 0.99705 0.07311 0.0
H4194 H 0.27438 0.97445 0.06495 0.0
H4195 H 0.22144 0.89454 0.08317 0.0
H4196 H 0.24304 0.90645 0.07134 0.0
H4197 H 0.23806 0.94193 0.06777 0.0
H4198 H 0.21668 0.9302 0.07982 0.0
H4199 H 0.26412 0.94945 0.07382 0.0
H4200 H 0.22944 0.91801 0.0428 0.0
H4201 H 0.21153 0.8951 0.03489 0.0
H4202 H 0.24053 0.88093 0.03545 0.0
H4203 H 0.25857 0.90371 0.04353 0.0
C4204 C 0.30376 0.97631 0.02492 0.0
C4205 C 0.3122 0.97129 0.02043 0.0
C4206 C 0.29246 0.96818 0.03259 0.0
C4207 C 0.28955 0.95499 0.03621 0.0
C4208 C 0.29766 0.94973 0.03131 0.0
C4209 C 0.30889 0.95782 0.02343 0.0
C4210 C 0.27816 0.94686 0.04526 0.0
C4211 C 0.26792 0.93359 0.04141 0.0
C4212 C 0.27693 0.95252 0.05725 0.0
C4213 C 0.28787 0.96608 0.06235 0.0
C4214 C 0.30145 0.96885 0.06365 0.0
C4215 C 0.31174 0.98173 0.0682 0.0
C4216 C 0.30857 0.99188 0.0716 0.0
C4217 C 0.29509 0.98918 0.07047 0.0
C4218 C 0.28476 0.97633 0.0659 0.0
C4219 C 0.22511 0.90498 0.08007 0.0
C4220 C 0.21752 0.91156 0.08263 0.0
C4221 C 0.23737 0.91172 0.07322 0.0
C4222 C 0.24211 0.92505 0.06859 0.0
C4223 C 0.23464 0.93168 0.0713 0.0
C4224 C 0.22244 0.92499 0.07819 0.0
C4225 C 0.25462 0.93204 0.06059 0.0
C4226 C 0.26511 0.94509 0.06467 0.0
C4227 C 0.25612 0.92614 0.04888 0.0
C4228 C 0.24531 0.91251 0.04389 0.0
C4229 C 0.23197 0.90998 0.04131 0.0
C4230 C 0.2218 0.89702 0.03679 0.0
C4231 C 0.22488 0.88656 0.0347 0.0
C4232 C 0.23815 0.88904 0.03709 0.0
C4233 C 0.24835 0.90197 0.04163 0.0
H4234 H 0.21699 0.87653 0.0312 0.0
H4235 H 0.31656 0.00185 0.07512 0.0
H4236 H 0.32154 0.01001 0.97559 0.0
H4237 H 0.31653 0.02575 0.96389 0.0
H4238 H 0.35477 0.06011 0.9777 0.0
H4239 H 0.35962 0.04433 0.98989 0.0
H4240 H 0.33536 0.0664 0.97909 0.0
H4241 H 0.3505 0.04754 0.94571 0.0
H4242 H 0.35147 0.02934 0.9329 0.0
H4243 H 0.30933 0.01245 0.92134 0.0
H4244 H 0.30804 0.03043 0.93422 0.0
H4245 H 0.32541 0.11011 0.93571 0.0
H4246 H 0.33564 0.09753 0.94566 0.0
H4247 H 0.29813 0.05927 0.93833 0.0
H4248 H 0.28796 0.07176 0.92826 0.0
H4249 H 0.32059 0.0572 0.93261 0.0
H4250 H 0.30543 0.07517 0.96813 0.0
H4251 H 0.30496 0.09371 0.98082 0.0
H4252 H 0.34831 0.11293 0.98792 0.0
H4253 H 0.34907 0.09459 0.97511 0.0
C4254 C 0.3289 0.02092 0.97614 0.0
C4255 C 0.34101 0.02594 0.98359 0.0
C4256 C 0.32607 0.02991 0.96937 0.0
C4257 C 0.33541 0.0441 0.96966 0.0
C4258 C 0.34744 0.04919 0.97727 0.0
C4259 C 0.35021 0.04018 0.98421 0.0
C4260 C 0.33238 0.05354 0.9622 0.0
C4261 C 0.3324 0.06455 0.96886 0.0
C4262 C 0.32839 0.05108 0.94887 0.0
C4263 C 0.32915 0.0403 0.941 0.0
C4264 C 0.34141 0.0399 0.9405 0.0
C4265 C 0.34203 0.02962 0.93322 0.0
C4266 C 0.33047 0.01973 0.92633 0.0
C4267 C 0.31828 0.02012 0.92668 0.0
C4268 C 0.31761 0.03036 0.93395 0.0
C4269 C 0.31946 0.09899 0.93605 0.0
C4270 C 0.30597 0.09187 0.93102 0.0
C4271 C 0.32526 0.09184 0.9418 0.0
C4272 C 0.31761 0.07748 0.94279 0.0
C4273 C 0.30424 0.07035 0.9376 0.0
C4274 C 0.29844 0.07748 0.93185 0.0
C4275 C 0.32326 0.06979 0.94959 0.0
C4276 C 0.32375 0.05914 0.94279 0.0
C4277 C 0.32782 0.07266 0.96275 0.0
C4278 C 0.32733 0.0836 0.97055 0.0
C4279 C 0.31488 0.0834 0.97232 0.0
C4280 C 0.31456 0.09387 0.97955 0.0
C4281 C 0.3266 0.10451 0.98515 0.0
C4282 C 0.33899 0.10469 0.98356 0.0
C4283 C 0.33937 0.09427 0.97633 0.0
H4284 H 0.32634 0.11261 0.99074 0.0
H4285 H 0.33096 0.01178 0.9207 0.0
H4286 H 0.95716 0.31449 0.99163 0.0
H4287 H 0.94189 0.2935 0.97916 0.0
H4288 H 0.97158 0.2801 0.98274 0.0
H4289 H 0.98709 0.30136 0.99459 0.0
H4290 H 0.96325 0.27682 0.95898 0.0
H4291 H 0.9399 0.26572 0.00032 0.0
H4292 H 0.92856 0.26964 0.01904 0.0
H4293 H 0.89864 0.27003 0.99322 0.0
H4294 H 0.9099 0.26628 0.97433 0.0
H4295 H 0.92385 0.20726 0.93959 0.0
H4296 H 0.93722 0.22887 0.95178 0.0
H4297 H 0.90608 0.23955 0.94395 0.0
H4298 H 0.89243 0.21767 0.93209 0.0
H4299 H 0.91433 0.24508 0.96864 0.0
H4300 H 0.93695 0.2549 0.92749 0.0
H4301 H 0.94819 0.25086 0.90878 0.0
H4302 H 0.97952 0.25287 0.93428 0.0
H4303 H 0.96837 0.25675 0.95317 0.0
C4304 C 0.9603 0.30695 0.98989 0.0
C4305 C 0.97327 0.3095 0.99407 0.0
C4306 C 0.95156 0.29494 0.9828 0.0
C4307 C 0.9555 0.28511 0.98009 0.0
C4308 C 0.96831 0.28753 0.98464 0.0
C4309 C 0.97714 0.29964 0.99147 0.0
C4310 C 0.94669 0.27264 0.97196 0.0
C4311 C 0.9526 0.26979 0.96123 0.0
C4312 C 0.93265 0.26371 0.97455 0.0
C4313 C 0.92582 0.26585 0.98591 0.0
C4314 C 0.93095 0.26673 0.99863 0.0
C4315 C 0.92453 0.2689 0.00927 0.0
C4316 C 0.91291 0.27012 0.00731 0.0
C4317 C 0.90765 0.26911 0.99472 0.0
C4318 C 0.91404 0.26694 0.98405 0.0
C4319 C 0.91996 0.21431 0.94032 0.0
C4320 C 0.90731 0.21097 0.93455 0.0
C4321 C 0.9276 0.22666 0.94727 0.0
C4322 C 0.9228 0.23598 0.94853 0.0
C4323 C 0.91005 0.23258 0.94298 0.0
C4324 C 0.90232 0.22014 0.93612 0.0
C4325 C 0.93101 0.24912 0.9559 0.0
C4326 C 0.92498 0.25214 0.96642 0.0
C4327 C 0.94496 0.25821 0.95314 0.0
C4328 C 0.95176 0.25602 0.94176 0.0
C4329 C 0.94619 0.2544 0.92912 0.0
C4330 C 0.95255 0.25215 0.91848 0.0
C4331 C 0.96455 0.25158 0.92034 0.0
C4332 C 0.97022 0.25331 0.93285 0.0
C4333 C 0.9639 0.25555 0.94352 0.0
H4334 H 0.96945 0.24983 0.91209 0.0
H4335 H 0.90796 0.27181 0.01556 0.0
H4336 H 0.69556 0.65372 0.00967 0.0
H4337 H 0.7166 0.65884 0.99816 0.0
H4338 H 0.69908 0.66309 0.96225 0.0
H4339 H 0.67821 0.65831 0.9737 0.0
H4340 H 0.71149 0.64549 0.9612 0.0
H4341 H 0.72081 0.69066 0.97545 0.0
H4342 H 0.72296 0.70786 0.99188 0.0
H4343 H 0.75371 0.70338 0.0125 0.0
H4344 H 0.75159 0.68598 0.99629 0.0
H4345 H 0.76844 0.67182 0.9203 0.0
H4346 H 0.74842 0.66855 0.93218 0.0
H4347 H 0.77106 0.67728 0.9685 0.0
H4348 H 0.79146 0.68149 0.95653 0.0
H4349 H 0.7559 0.68806 0.96996 0.0
H4350 H 0.74736 0.64342 0.95693 0.0
H4351 H 0.74535 0.62534 0.94167 0.0
H4352 H 0.7134 0.62725 0.92047 0.0
H4353 H 0.71535 0.64548 0.9355 0.0
C4354 C 0.69622 0.65575 0.99933 0.0
C4355 C 0.68529 0.65564 0.99257 0.0
C4356 C 0.70822 0.6587 0.99279 0.0
C4357 C 0.70935 0.66136 0.97939 0.0
C4358 C 0.69837 0.66106 0.9726 0.0
C4359 C 0.6865 0.65837 0.97916 0.0
C4360 C 0.72194 0.66439 0.97236 0.0
C4361 C 0.7212 0.65486 0.96299 0.0
C4362 C 0.73462 0.67641 0.97503 0.0
C4363 C 0.73593 0.6869 0.98474 0.0
C4364 C 0.72793 0.69324 0.98356 0.0
C4365 C 0.72916 0.70305 0.99281 0.0
C4366 C 0.73843 0.70668 0.00325 0.0
C4367 C 0.74652 0.70054 0.00443 0.0
C4368 C 0.74531 0.69071 0.99521 0.0
C4369 C 0.76927 0.67329 0.93079 0.0
C4370 C 0.78161 0.67702 0.93748 0.0
C4371 C 0.75772 0.67124 0.93761 0.0
C4372 C 0.75809 0.67235 0.95129 0.0
C4373 C 0.77047 0.67632 0.95796 0.0
C4374 C 0.78211 0.67868 0.95112 0.0
C4375 C 0.74555 0.66916 0.95866 0.0
C4376 C 0.74626 0.67866 0.96814 0.0
C4377 C 0.73287 0.65694 0.95627 0.0
C4378 C 0.73159 0.6459 0.94728 0.0
C4379 C 0.73996 0.64004 0.94897 0.0
C4380 C 0.73883 0.62976 0.94037 0.0
C4381 C 0.72928 0.62517 0.93009 0.0
C4382 C 0.72081 0.63083 0.92842 0.0
C4383 C 0.72192 0.64113 0.93699 0.0
H4384 H 0.72842 0.61722 0.92344 0.0
H4385 H 0.73937 0.71428 0.0104 0.0
H4386 H 0.9662 0.66732 0.00934 0.0
H4387 H 0.95362 0.6771 0.99845 0.0
H4388 H 0.9612 0.6643 0.9611 0.0
H4389 H 0.97368 0.65456 0.97183 0.0
H4390 H 0.96879 0.69162 0.96205 0.0
H4391 H 0.92985 0.64806 0.97348 0.0
H4392 H 0.91487 0.62984 0.98854 0.0
H4393 H 0.90722 0.65853 0.0096 0.0
H4394 H 0.92232 0.67698 0.99476 0.0
H4395 H 0.92704 0.70104 0.91753 0.0
H4396 H 0.93677 0.69058 0.93159 0.0
H4397 H 0.9261 0.70598 0.96562 0.0
H4398 H 0.91626 0.71645 0.95154 0.0
H4399 H 0.9203 0.67897 0.96835 0.0
H4400 H 0.95803 0.72218 0.95646 0.0
H4401 H 0.97296 0.74061 0.94157 0.0
H4402 H 0.98324 0.71309 0.92191 0.0
H4403 H 0.96819 0.69442 0.93655 0.0
C4404 C 0.96497 0.66641 0.99883 0.0
C4405 C 0.97096 0.66023 0.99143 0.0
C4406 C 0.9578 0.67199 0.99263 0.0
C4407 C 0.95653 0.67145 0.97897 0.0
C4408 C 0.96212 0.66488 0.97165 0.0
C4409 C 0.96921 0.65927 0.97781 0.0
C4410 C 0.95014 0.67841 0.97214 0.0
C4411 C 0.95815 0.68876 0.96333 0.0
C4412 C 0.93641 0.67501 0.97418 0.0
C4413 C 0.92735 0.66394 0.98311 0.0
C4414 C 0.92509 0.65052 0.9814 0.0
C4415 C 0.91655 0.64014 0.98988 0.0
C4416 C 0.91014 0.64303 4e-05 0.0
C4417 C 0.91222 0.65631 0.00173 0.0
C4418 C 0.92076 0.66673 0.99329 0.0
C4419 C 0.92668 0.7021 0.92801 0.0
C4420 C 0.92081 0.70948 0.93345 0.0
C4421 C 0.93227 0.69618 0.93602 0.0
C4422 C 0.93224 0.6976 0.94964 0.0
C4423 C 0.9262 0.70475 0.95513 0.0
C4424 C 0.92062 0.71073 0.9471 0.0
C4425 C 0.93888 0.6919 0.95801 0.0
C4426 C 0.93097 0.68188 0.96714 0.0
C4427 C 0.95275 0.69564 0.95634 0.0
C4428 C 0.96188 0.70686 0.94754 0.0
C4429 C 0.96339 0.72002 0.94889 0.0
C4430 C 0.97188 0.73052 0.94051 0.0
C4431 C 0.97902 0.72802 0.93078 0.0
C4432 C 0.97769 0.71501 0.92944 0.0
C4433 C 0.96919 0.70447 0.93779 0.0
H4434 H 0.9856 0.73616 0.9243 0.0
H4435 H 0.90353 0.63498 0.00659 0.0
H4436 H 0.35687 0.31396 0.99149 0.0
H4437 H 0.34772 0.29142 0.98068 0.0
H4438 H 0.32625 0.3024 0.9527 0.0
H4439 H 0.33525 0.32484 0.96347 0.0
H4440 H 0.30953 0.27797 0.96352 0.0
H4441 H 0.35375 0.29982 0.94371 0.0
H4442 H 0.37899 0.31281 0.94335 0.0
H4443 H 0.38043 0.28123 0.96525 0.0
H4444 H 0.35519 0.26814 0.9659 0.0
H4445 H 0.28312 0.2178 0.92492 0.0
H4446 H 0.29662 0.24218 0.93103 0.0
H4447 H 0.32001 0.23307 0.95849 0.0
H4448 H 0.30683 0.20873 0.95207 0.0
H4449 H 0.33626 0.25698 0.94695 0.0
H4450 H 0.29265 0.23595 0.96814 0.0
H4451 H 0.26743 0.22276 0.9691 0.0
H4452 H 0.26496 0.25278 0.94553 0.0
H4453 H 0.29018 0.26605 0.94426 0.0
C4454 C 0.35036 0.31162 0.98293 0.0
C4455 C 0.34673 0.32113 0.97835 0.0
C4456 C 0.34517 0.29877 0.97674 0.0
C4457 C 0.33634 0.29525 0.96586 0.0
C4458 C 0.33303 0.30489 0.96109 0.0
C4459 C 0.33821 0.31772 0.96724 0.0
C4460 C 0.32975 0.28122 0.95999 0.0
C4461 C 0.31539 0.27347 0.95969 0.0
C4462 C 0.33739 0.27522 0.95535 0.0
C4463 C 0.35257 0.28306 0.95496 0.0
C4464 C 0.35945 0.2957 0.94855 0.0
C4465 C 0.37376 0.30307 0.94827 0.0
C4466 C 0.38131 0.29786 0.9543 0.0
C4467 C 0.37457 0.28526 0.9606 0.0
C4468 C 0.36026 0.27785 0.96091 0.0
C4469 C 0.29137 0.22105 0.93201 0.0
C4470 C 0.29406 0.21141 0.93791 0.0
C4471 C 0.299 0.23496 0.93558 0.0
C4472 C 0.3092 0.23942 0.94535 0.0
C4473 C 0.31222 0.22987 0.95091 0.0
C4474 C 0.30469 0.21599 0.94726 0.0
C4475 C 0.31606 0.25379 0.95043 0.0
C4476 C 0.33044 0.26155 0.95067 0.0
C4477 C 0.30845 0.25981 0.95514 0.0
C4478 C 0.29329 0.25192 0.95599 0.0
C4479 C 0.28672 0.23969 0.96309 0.0
C4480 C 0.27243 0.2322 0.96369 0.0
C4481 C 0.2646 0.23691 0.95735 0.0
C4482 C 0.27105 0.24914 0.95042 0.0
C4483 C 0.28534 0.25665 0.94976 0.0
H4484 H 0.25354 0.2311 0.95783 0.0
H4485 H 0.39239 0.30358 0.95408 0.0
H4486 H 0.69518 0.0125 0.99299 0.0
H4487 H 0.71678 0.02748 0.98219 0.0
H4488 H 0.70694 0.05994 0.98165 0.0
H4489 H 0.68526 0.04499 0.99261 0.0
H4490 H 0.71566 0.05512 0.95745 0.0
H4491 H 0.73045 0.06314 0.00211 0.0
H4492 H 0.73286 0.05681 0.02449 0.0
H4493 H 0.75412 0.03667 0.01012 0.0
H4494 H 0.75166 0.04271 0.9876 0.0
H4495 H 0.78194 0.10887 0.93986 0.0
H4496 H 0.76028 0.09451 0.95089 0.0
H4497 H 0.76925 0.06147 0.9524 0.0
H4498 H 0.7909 0.07576 0.94116 0.0
H4499 H 0.76099 0.067 0.97632 0.0
H4500 H 0.74594 0.0585 0.93176 0.0
H4501 H 0.74354 0.06461 0.90929 0.0
H4502 H 0.72275 0.08536 0.92334 0.0
H4503 H 0.72521 0.07955 0.94595 0.0
C4504 C 0.69765 0.02287 0.99066 0.0
C4505 C 0.68856 0.02761 0.99365 0.0
C4506 C 0.71 0.03141 0.98452 0.0
C4507 C 0.71346 0.04482 0.98118 0.0
C4508 C 0.70443 0.04962 0.98418 0.0
C4509 C 0.69211 0.04111 0.99047 0.0
C4510 C 0.72637 0.05364 0.97425 0.0
C4511 C 0.7256 0.05793 0.96165 0.0
C4512 C 0.73926 0.05693 0.97963 0.0
C4513 C 0.74074 0.05326 0.99315 0.0
C4514 C 0.73553 0.05725 0.0037 0.0
C4515 C 0.73692 0.05374 0.01642 0.0
C4516 C 0.7436 0.04631 0.01872 0.0
C4517 C 0.74893 0.04241 0.00831 0.0
C4518 C 0.74755 0.04588 0.99557 0.0
C4519 C 0.77924 0.09851 0.94244 0.0
C4520 C 0.78812 0.09344 0.9397 0.0
C4521 C 0.76687 0.09032 0.94873 0.0
C4522 C 0.76318 0.07694 0.95243 0.0
C4523 C 0.77196 0.0718 0.94964 0.0
C4524 C 0.78428 0.07993 0.94322 0.0
C4525 C 0.75029 0.06847 0.9595 0.0
C4526 C 0.75106 0.06423 0.97214 0.0
C4527 C 0.73739 0.06519 0.95414 0.0
C4528 C 0.7359 0.06872 0.94057 0.0
C4529 C 0.74098 0.06449 0.93008 0.0
C4530 C 0.73958 0.06787 0.91731 0.0
C4531 C 0.73304 0.07541 0.91489 0.0
C4532 C 0.72784 0.07954 0.92523 0.0
C4533 C 0.72923 0.0762 0.93803 0.0
H4534 H 0.73196 0.07801 0.905 0.0
H4535 H 0.74468 0.04361 0.02858 0.0
H4536 H 0.66028 0.96299 0.01154 0.0
H4537 H 0.6688 0.94975 0.02308 0.0
H4538 H 0.66546 0.9671 0.05974 0.0
H4539 H 0.65759 0.98078 0.04818 0.0
H4540 H 0.68894 0.96897 0.0589 0.0
H4541 H 0.64306 0.93231 0.04936 0.0
H4542 H 0.62304 0.91741 0.03534 0.0
H4543 H 0.64702 0.90405 0.01395 0.0
H4544 H 0.66724 0.919 0.02774 0.0
H4545 H 0.69578 0.92537 0.10331 0.0
H4546 H 0.68583 0.93598 0.08974 0.0
H4547 H 0.69872 0.92365 0.05512 0.0
H4548 H 0.70884 0.91308 0.06869 0.0
H4549 H 0.67132 0.9189 0.05374 0.0
H4550 H 0.71692 0.95523 0.06435 0.0
H4551 H 0.73639 0.96969 0.07911 0.0
H4552 H 0.71195 0.98332 0.09928 0.0
H4553 H 0.69226 0.96877 0.08477 0.0
C4554 C 0.6612 0.9638 0.02207 0.0
C4555 C 0.65833 0.97291 0.02898 0.0
C4556 C 0.66602 0.9562 0.02867 0.0
C4557 C 0.6677 0.95735 0.04231 0.0
C4558 C 0.66433 0.9661 0.04922 0.0
C4559 C 0.65979 0.97387 0.04261 0.0
C4560 C 0.67375 0.95015 0.0494 0.0
C4561 C 0.68492 0.95798 0.05787 0.0
C4562 C 0.66884 0.93589 0.04779 0.0
C4563 C 0.6567 0.92688 0.0395 0.0
C4564 C 0.64409 0.92627 0.0416 0.0
C4565 C 0.63271 0.9178 0.03371 0.0
C4566 C 0.63377 0.90982 0.02373 0.0
C4567 C 0.64622 0.91025 0.02166 0.0
C4568 C 0.65764 0.91871 0.02952 0.0
C4569 C 0.69647 0.9249 0.09281 0.0
C4570 C 0.7031 0.91843 0.08705 0.0
C4571 C 0.69079 0.93095 0.08508 0.0
C4572 C 0.69162 0.93064 0.07145 0.0
C4573 C 0.69797 0.92396 0.06563 0.0
C4574 C 0.70377 0.91798 0.07337 0.0
C4575 C 0.68619 0.9377 0.06337 0.0
C4576 C 0.67525 0.92988 0.05469 0.0
C4577 C 0.6912 0.95195 0.06486 0.0
C4578 C 0.70307 0.96081 0.07354 0.0
C4579 C 0.71566 0.96123 0.072 0.0
C4580 C 0.72675 0.96946 0.08031 0.0
C4581 C 0.7254 0.9774 0.09015 0.0
C4582 C 0.71298 0.97715 0.09167 0.0
C4583 C 0.70185 0.96893 0.08339 0.0
H4584 H 0.734 0.98376 0.09657 0.0
H4585 H 0.62495 0.90327 0.01763 0.0
H4586 H 0.02891 0.67961 0.04288 0.0
H4587 H 0.04168 0.70173 0.05435 0.0
H4588 H 0.04353 0.72275 0.01886 0.0
H4589 H 0.03074 0.70055 0.00724 0.0
H4590 H 0.06797 0.73614 0.03392 0.0
H4591 H 0.01987 0.71804 0.0393 0.0
H4592 H 0.99622 0.70037 0.04447 0.0
H4593 H 0.00878 0.69867 0.08369 0.0
H4594 H 0.03256 0.71619 0.07869 0.0
H4595 H 0.08187 0.79855 0.06731 0.0
H4596 H 0.07203 0.778 0.0531 0.0
H4597 H 0.06613 0.7528 0.08654 0.0
H4598 H 0.07588 0.77325 0.10075 0.0
H4599 H 0.04348 0.74227 0.07114 0.0
H4600 H 0.09184 0.76016 0.06546 0.0
H4601 H 0.11543 0.77783 0.06011 0.0
H4602 H 0.1023 0.78024 0.02133 0.0
H4603 H 0.07858 0.76271 0.02651 0.0
C4604 C 0.03222 0.68893 0.03744 0.0
C4605 C 0.02873 0.68835 0.02418 0.0
C4606 C 0.03948 0.70156 0.04402 0.0
C4607 C 0.04334 0.71384 0.03749 0.0
C4608 C 0.04059 0.71336 0.02407 0.0
C4609 C 0.03328 0.70069 0.01746 0.0
C4610 C 0.04937 0.727 0.04495 0.0
C4611 C 0.06257 0.73759 0.04194 0.0
C4612 C 0.04234 0.72879 0.05549 0.0
C4613 C 0.02802 0.71833 0.05858 0.0
C4614 C 0.01761 0.71382 0.049 0.0
C4615 C 0.00418 0.70384 0.0519 0.0
C4616 C 0.00101 0.69838 0.06439 0.0
C4617 C 0.01125 0.7029 0.07401 0.0
C4618 C 0.02471 0.71286 0.07115 0.0
C4619 C 0.07858 0.78863 0.07158 0.0
C4620 C 0.07981 0.7875 0.08511 0.0
C4621 C 0.07299 0.77692 0.06347 0.0
C4622 C 0.06849 0.7639 0.06875 0.0
C4623 C 0.06959 0.76275 0.08226 0.0
C4624 C 0.0752 0.77443 0.09035 0.0
C4625 C 0.06223 0.75136 0.06032 0.0
C4626 C 0.04891 0.74088 0.0631 0.0
C4627 C 0.06914 0.74973 0.04957 0.0
C4628 C 0.08341 0.76023 0.04642 0.0
C4629 C 0.09396 0.76454 0.05583 0.0
C4630 C 0.10736 0.77452 0.05282 0.0
C4631 C 0.11036 0.78018 0.0404 0.0
C4632 C 0.09996 0.77586 0.03095 0.0
C4633 C 0.08654 0.7659 0.03392 0.0
H4634 H 0.12074 0.7879 0.03809 0.0
H4635 H 0.9906 0.69066 0.06663 0.0
H4636 H 0.32991 0.34116 0.03848 0.0
H4637 H 0.30892 0.33215 0.05102 0.0
H4638 H 0.28691 0.33265 0.01661 0.0
H4639 H 0.3082 0.34253 0.00424 0.0
H4640 H 0.27806 0.34018 0.03574 0.0
H4641 H 0.28492 0.30206 0.02919 0.0
H4642 H 0.29736 0.28921 0.02923 0.0
H4643 H 0.30221 0.29404 0.07086 0.0
H4644 H 0.28996 0.30708 0.07105 0.0
H4645 H 0.21275 0.29294 0.06402 0.0
H4646 H 0.23296 0.30268 0.05008 0.0
H4647 H 0.25925 0.31558 0.08421 0.0
H4648 H 0.23914 0.30623 0.0982 0.0
H4649 H 0.26468 0.30014 0.0642 0.0
H4650 H 0.25726 0.33896 0.06932 0.0
H4651 H 0.24332 0.35022 0.06794 0.0
H4652 H 0.23752 0.3415 0.02677 0.0
H4653 H 0.25126 0.33001 0.02794 0.0
C4654 C 0.32059 0.33937 0.03361 0.0
C4655 C 0.32061 0.34244 0.02039 0.0
C4656 C 0.30856 0.33411 0.04075 0.0
C4657 C 0.2962 0.33134 0.0347 0.0
C4658 C 0.29628 0.33462 0.02151 0.0
C4659 C 0.30842 0.34024 0.01443 0.0
C4660 C 0.28326 0.32512 0.0422 0.0
C4661 C 0.27506 0.33129 0.04179 0.0
C4662 C 0.27928 0.31354 0.05018 0.0
C4663 C 0.28662 0.30565 0.05012 0.0
C4664 C 0.28872 0.30046 0.03835 0.0
C4665 C 0.29572 0.29313 0.03833 0.0
C4666 C 0.3006 0.29083 0.05004 0.0
C4667 C 0.29844 0.29583 0.0618 0.0
C4668 C 0.29145 0.30318 0.06187 0.0
C4669 C 0.22284 0.29792 0.06854 0.0
C4670 C 0.22437 0.29872 0.0822 0.0
C4671 C 0.23435 0.30347 0.06058 0.0
C4672 C 0.24754 0.3098 0.06615 0.0
C4673 C 0.24912 0.31067 0.07976 0.0
C4674 C 0.23765 0.30532 0.08772 0.0
C4675 C 0.25976 0.31533 0.05781 0.0
C4676 C 0.26774 0.30899 0.05806 0.0
C4677 C 0.26333 0.32649 0.04946 0.0
C4678 C 0.25516 0.3335 0.04875 0.0
C4679 C 0.25291 0.33934 0.05999 0.0
C4680 C 0.24507 0.34578 0.05925 0.0
C4681 C 0.23951 0.34654 0.04728 0.0
C4682 C 0.24181 0.34089 0.03603 0.0
C4683 C 0.24964 0.33442 0.03673 0.0
H4684 H 0.23344 0.35153 0.04672 0.0
H4685 H 0.30602 0.28516 0.05 0.0
H4686 H 0.71199 0.68781 0.34867 0.0
H4687 H 0.72855 0.68259 0.35866 0.0
H4688 H 0.69594 0.64903 0.37927 0.0
H4689 H 0.67936 0.65447 0.36957 0.0
H4690 H 0.71726 0.66266 0.39491 0.0
H4691 H 0.7104 0.64347 0.35193 0.0
H4692 H 0.70898 0.64303 0.32791 0.0
H4693 H 0.75134 0.67436 0.32627 0.0
H4694 H 0.75297 0.67514 0.3503 0.0
H4695 H 0.75695 0.62658 0.41635 0.0
H4696 H 0.73727 0.63328 0.40545 0.0
H4697 H 0.77392 0.67207 0.38037 0.0
H4698 H 0.79462 0.66656 0.39064 0.0
H4699 H 0.74964 0.65611 0.36737 0.0
H4700 H 0.75495 0.67725 0.41036 0.0
H4701 H 0.75623 0.6777 0.43442 0.0
H4702 H 0.71634 0.64163 0.43558 0.0
H4703 H 0.71489 0.64097 0.41152 0.0
C4704 C 0.70835 0.67933 0.35535 0.0
C4705 C 0.69438 0.67151 0.3583 0.0
C4706 C 0.71782 0.67631 0.361 0.0
C4707 C 0.71346 0.66526 0.36954 0.0
C4708 C 0.69953 0.65757 0.37267 0.0
C4709 C 0.69007 0.66067 0.36711 0.0
C4710 C 0.72347 0.6618 0.37524 0.0
C4711 C 0.72417 0.661 0.38885 0.0
C4712 C 0.73269 0.65989 0.36739 0.0
C4713 C 0.73177 0.65945 0.35293 0.0
C4714 C 0.71938 0.65035 0.34645 0.0
C4715 C 0.71855 0.65002 0.33284 0.0
C4716 C 0.73005 0.65869 0.32557 0.0
C4717 C 0.74243 0.66767 0.33191 0.0
C4718 C 0.74332 0.66805 0.34553 0.0
C4719 C 0.75999 0.6347 0.40936 0.0
C4720 C 0.77834 0.64757 0.40648 0.0
C4721 C 0.74799 0.6394 0.40306 0.0
C4722 C 0.75363 0.654 0.39255 0.0
C4723 C 0.77111 0.66382 0.38717 0.0
C4724 C 0.78392 0.66002 0.39293 0.0
C4725 C 0.74341 0.65706 0.38696 0.0
C4726 C 0.74268 0.65776 0.37338 0.0
C4727 C 0.73406 0.6587 0.3948 0.0
C4728 C 0.73491 0.65895 0.4092 0.0
C4729 C 0.7465 0.66938 0.41577 0.0
C4730 C 0.74724 0.66969 0.42939 0.0
C4731 C 0.73639 0.65966 0.43653 0.0
C4732 C 0.72475 0.64935 0.43005 0.0
C4733 C 0.72396 0.64902 0.41642 0.0
H4734 H 0.73699 0.6599 0.44707 0.0
H4735 H 0.72938 0.65842 0.31503 0.0
H4736 H 0.34397 0.02363 0.37531 0.0
H4737 H 0.34956 0.04612 0.38437 0.0
H4738 H 0.31429 0.04321 0.36462 0.0
H4739 H 0.30869 0.02074 0.35544 0.0
H4740 H 0.33681 0.06823 0.36171 0.0
H4741 H 0.31378 0.03809 0.39704 0.0
H4742 H 0.30935 0.02022 0.41308 0.0
H4743 H 0.3496 0.04545 0.42968 0.0
H4744 H 0.35434 0.06341 0.41361 0.0
H4745 H 0.33153 0.12699 0.3943 0.0
H4746 H 0.32716 0.10128 0.38333 0.0
H4747 H 0.3666 0.10474 0.40923 0.0
H4748 H 0.37217 0.13071 0.42088 0.0
H4749 H 0.3421 0.0783 0.40932 0.0
H4750 H 0.36494 0.10853 0.3746 0.0
H4751 H 0.36972 0.12649 0.35856 0.0
H4752 H 0.33009 0.10109 0.34079 0.0
H4753 H 0.32498 0.08303 0.35685 0.0
C4754 C 0.3374 0.02778 0.3729 0.0
C4755 C 0.32588 0.02042 0.36468 0.0
C4756 C 0.34057 0.0406 0.37814 0.0
C4757 C 0.33226 0.04628 0.37528 0.0
C4758 C 0.32082 0.039 0.36697 0.0
C4759 C 0.31762 0.02616 0.36176 0.0
C4760 C 0.33563 0.05992 0.38077 0.0
C4761 C 0.33773 0.07036 0.37213 0.0
C4762 C 0.33728 0.06281 0.39435 0.0
C4763 C 0.33447 0.05203 0.40402 0.0
C4764 C 0.32173 0.03978 0.40403 0.0
C4765 C 0.31916 0.02965 0.41315 0.0
C4766 C 0.32921 0.03168 0.42237 0.0
C4767 C 0.34184 0.04388 0.42252 0.0
C4768 C 0.34447 0.05404 0.41341 0.0
C4769 C 0.33846 0.12325 0.39656 0.0
C4770 C 0.35078 0.13031 0.41053 0.0
C4771 C 0.33542 0.10694 0.39029 0.0
C4772 C 0.34586 0.09985 0.39565 0.0
C4773 C 0.36026 0.1091 0.4067 0.0
C4774 C 0.3642 0.12554 0.41353 0.0
C4775 C 0.34301 0.08645 0.39025 0.0
C4776 C 0.34112 0.07612 0.3989 0.0
C4777 C 0.34151 0.08363 0.37668 0.0
C4778 C 0.34451 0.09449 0.36703 0.0
C4779 C 0.35718 0.10682 0.36735 0.0
C4780 C 0.35997 0.11701 0.35824 0.0
C4781 C 0.3502 0.11495 0.34868 0.0
C4782 C 0.33764 0.10268 0.34821 0.0
C4783 C 0.3348 0.09245 0.35731 0.0
H4784 H 0.35238 0.12285 0.34163 0.0
H4785 H 0.32719 0.02383 0.42942 0.0
H4786 H 0.98408 0.32431 0.36456 0.0
H4787 H 0.96331 0.31009 0.37683 0.0
H4788 H 0.96426 0.27368 0.36467 0.0
H4789 H 0.98501 0.28788 0.35219 0.0
H4790 H 0.93879 0.26995 0.36263 0.0
H4791 H 0.97394 0.28647 0.39529 0.0
H4792 H 0.99424 0.30384 0.40761 0.0
H4793 H 0.97198 0.32359 0.42016 0.0
H4794 H 0.9516 0.30648 0.40771 0.0
H4795 H 0.88643 0.22746 0.40629 0.0
H4796 H 0.90901 0.23968 0.39622 0.0
H4797 H 0.91131 0.27842 0.40506 0.0
H4798 H 0.88883 0.26625 0.41528 0.0
H4799 H 0.93588 0.27958 0.4095 0.0
H4800 H 0.90143 0.26391 0.37524 0.0
H4801 H 0.88125 0.24646 0.36281 0.0
H4802 H 0.90258 0.22482 0.35345 0.0
H4803 H 0.92282 0.24205 0.366 0.0
C4804 C 0.97987 0.31327 0.36448 0.0
C4805 C 0.98618 0.3072 0.35745 0.0
C4806 C 0.96804 0.30517 0.37156 0.0
C4807 C 0.96235 0.29085 0.37182 0.0
C4808 C 0.96851 0.28472 0.36464 0.0
C4809 C 0.98036 0.29284 0.35753 0.0
C4810 C 0.94985 0.28231 0.37945 0.0
C4811 C 0.93823 0.27189 0.37293 0.0
C4812 C 0.94907 0.28499 0.39286 0.0
C4813 C 0.96127 0.29524 0.40047 0.0
C4814 C 0.9734 0.29457 0.4006 0.0
C4815 C 0.98492 0.30437 0.40762 0.0
C4816 C 0.98441 0.31482 0.41465 0.0
C4817 C 0.97236 0.31549 0.4147 0.0
C4818 C 0.96082 0.30574 0.40767 0.0
C4819 C 0.89188 0.23859 0.40629 0.0
C4820 C 0.88597 0.24592 0.41173 0.0
C4821 C 0.90472 0.24555 0.40047 0.0
C4822 C 0.91178 0.25995 0.39982 0.0
C4823 C 0.90606 0.26731 0.40551 0.0
C4824 C 0.89323 0.26036 0.41134 0.0
C4825 C 0.92481 0.26736 0.39263 0.0
C4826 C 0.93651 0.27757 0.39923 0.0
C4827 C 0.92569 0.26446 0.37932 0.0
C4828 C 0.91358 0.25418 0.37166 0.0
C4829 C 0.90178 0.25537 0.37061 0.0
C4830 C 0.89034 0.24553 0.36353 0.0
C4831 C 0.89062 0.23452 0.35737 0.0
C4832 C 0.90237 0.23334 0.35824 0.0
C4833 C 0.91383 0.24315 0.36533 0.0
H4834 H 0.88175 0.2269 0.3519 0.0
H4835 H 0.99334 0.32239 0.42008 0.0
H4836 H 0.04254 0.37796 0.31969 0.0
H4837 H 0.04125 0.39599 0.30769 0.0
H4838 H 0.99793 0.36877 0.30113 0.0
H4839 H 0.9992 0.35066 0.3129 0.0
H4840 H 0.01006 0.38232 0.27938 0.0
H4841 H 0.00995 0.39395 0.3249 0.0
H4842 H 0.01913 0.39941 0.34742 0.0
H4843 H 0.05595 0.43433 0.33396 0.0
H4844 H 0.04705 0.42896 0.31132 0.0
H4845 H 0.98374 0.42614 0.26695 0.0
H4846 H 0.98985 0.40986 0.27589 0.0
H4847 H 0.03227 0.44183 0.27835 0.0
H4848 H 0.02616 0.45827 0.2694 0.0
H4849 H 0.02364 0.42728 0.30078 0.0
H4850 H 0.02246 0.41699 0.25544 0.0
H4851 H 0.01296 0.41158 0.23304 0.0
H4852 H 0.97844 0.37418 0.24608 0.0
H4853 H 0.98763 0.37946 0.26861 0.0
C4854 C 0.03276 0.37582 0.31566 0.0
C4855 C 0.02096 0.36293 0.31727 0.0
C4856 C 0.03203 0.38614 0.30884 0.0
C4857 C 0.01947 0.38377 0.30362 0.0
C4858 C 0.00773 0.37082 0.30507 0.0
C4859 C 0.00846 0.3605 0.31184 0.0
C4860 C 0.01841 0.39477 0.29681 0.0
C4861 C 0.01294 0.39211 0.28408 0.0
C4862 C 0.02257 0.40771 0.30281 0.0
C4863 C 0.0279 0.41096 0.31641 0.0
C4864 C 0.02005 0.40273 0.32674 0.0
C4865 C 0.02519 0.40582 0.33952 0.0
C4866 C 0.03813 0.41719 0.34212 0.0
C4867 C 0.04594 0.42551 0.33193 0.0
C4868 C 0.04085 0.42246 0.31912 0.0
C4869 C 0.9944 0.42967 0.26924 0.0
C4870 C 0.00451 0.44343 0.2673 0.0
C4871 C 0.99788 0.42036 0.27432 0.0
C4872 C 0.01154 0.42459 0.27761 0.0
C4873 C 0.02168 0.43834 0.27579 0.0
C4874 C 0.0182 0.44769 0.27064 0.0
C4875 C 0.01501 0.4147 0.28345 0.0
C4876 C 0.02094 0.41756 0.29599 0.0
C4877 C 0.01125 0.40194 0.27729 0.0
C4878 C 0.0057 0.39868 0.26374 0.0
C4879 C 0.01279 0.40766 0.25355 0.0
C4880 C 0.00747 0.40461 0.24083 0.0
C4881 C 0.99509 0.39255 0.23814 0.0
C4882 C 0.98802 0.38351 0.24818 0.0
C4883 C 0.9933 0.38652 0.26092 0.0
H4884 H 0.99099 0.39021 0.22828 0.0
H4885 H 0.0421 0.41956 0.35202 0.0
H4886 H 0.65763 0.63921 0.31504 0.0
H4887 H 0.64443 0.6203 0.29959 0.0
H4888 H 0.61062 0.62795 0.30204 0.0
H4889 H 0.62368 0.64668 0.31784 0.0
H4890 H 0.60128 0.60128 0.3014 0.0
H4891 H 0.63244 0.63908 0.27602 0.0
H4892 H 0.65475 0.65842 0.26951 0.0
H4893 H 0.66979 0.63059 0.26251 0.0
H4894 H 0.64763 0.6111 0.26916 0.0
H4895 H 0.56245 0.55915 0.2395 0.0
H4896 H 0.57674 0.58099 0.25877 0.0
H4897 H 0.61675 0.57322 0.25925 0.0
H4898 H 0.60356 0.5511 0.24014 0.0
H4899 H 0.6225 0.60065 0.25934 0.0
H4900 H 0.59232 0.56415 0.289 0.0
H4901 H 0.56981 0.54506 0.29555 0.0
H4902 H 0.55264 0.57154 0.2932 0.0
H4903 H 0.57506 0.59076 0.28662 0.0
C4904 C 0.64735 0.6368 0.31236 0.0
C4905 C 0.6417 0.64446 0.31758 0.0
C4906 C 0.63984 0.62605 0.30347 0.0
C4907 C 0.62665 0.6229 0.29944 0.0
C4908 C 0.62081 0.63025 0.30496 0.0
C4909 C 0.62828 0.64094 0.31398 0.0
C4910 C 0.61906 0.61206 0.28935 0.0
C4911 C 0.60586 0.6013 0.29212 0.0
C4912 C 0.62506 0.61195 0.27727 0.0
C4913 C 0.6384 0.62364 0.27321 0.0
C4914 C 0.64054 0.63709 0.27319 0.0
C4915 C 0.65315 0.64808 0.26946 0.0
C4916 C 0.66369 0.64574 0.26563 0.0
C4917 C 0.66162 0.63239 0.2655 0.0
C4918 C 0.64903 0.62137 0.26923 0.0
C4919 C 0.5727 0.5621 0.24281 0.0
C4920 C 0.58053 0.55115 0.23959 0.0
C4921 C 0.58137 0.57517 0.25526 0.0
C4922 C 0.59779 0.57876 0.26176 0.0
C4923 C 0.60665 0.5703 0.25552 0.0
C4924 C 0.59887 0.55704 0.24313 0.0
C4925 C 0.60488 0.58993 0.2715 0.0
C4926 C 0.61797 0.60073 0.26861 0.0
C4927 C 0.59872 0.59025 0.28333 0.0
C4928 C 0.58525 0.57877 0.28716 0.0
C4929 C 0.5837 0.56585 0.28984 0.0
C4930 C 0.57098 0.55503 0.29358 0.0
C4931 C 0.55978 0.55707 0.29474 0.0
C4932 C 0.5613 0.56996 0.29225 0.0
C4933 C 0.57401 0.58082 0.28853 0.0
H4934 H 0.54994 0.54868 0.29761 0.0
H4935 H 0.67345 0.65426 0.26275 0.0
H4936 H 0.35277 0.97068 0.34335 0.0
H4937 H 0.37175 0.9715 0.33114 0.0
H4938 H 0.37058 0.00055 0.30478 0.0
H4939 H 0.35193 8e-05 0.31717 0.0
H4940 H 0.37298 0.96419 0.30728 0.0
H4941 H 0.40188 0.02147 0.29257 0.0
H4942 H 0.4065 0.04399 0.30126 0.0
H4943 H 0.40112 0.0289 0.34029 0.0
H4944 H 0.39664 0.00636 0.33185 0.0
H4945 H 0.41865 0.97207 0.25698 0.0
H4946 H 0.40113 0.97369 0.26957 0.0
H4947 H 0.43126 0.99733 0.29945 0.0
H4948 H 0.44888 0.99611 0.28668 0.0
H4949 H 0.41502 0.00753 0.29603 0.0
H4950 H 0.40893 0.96261 0.30238 0.0
H4951 H 0.40551 0.93999 0.2955 0.0
H4952 H 0.36735 0.93007 0.2769 0.0
H4953 H 0.37065 0.95273 0.28351 0.0
C4954 C 0.35667 0.97734 0.33503 0.0
C4955 C 0.35092 0.98536 0.33125 0.0
C4956 C 0.36747 0.97776 0.32803 0.0
C4957 C 0.37269 0.98618 0.3171 0.0
C4958 C 0.36693 0.99418 0.31332 0.0
C4959 C 0.35623 0.99387 0.32038 0.0
C4960 C 0.38387 0.98627 0.30943 0.0
C4961 C 0.38217 0.97368 0.30484 0.0
C4962 C 0.39596 0.99862 0.30636 0.0
C4963 C 0.39879 0.01219 0.31155 0.0
C4964 C 0.40173 0.02298 0.30301 0.0
C4965 C 0.40432 0.03574 0.30789 0.0
C4966 C 0.40406 0.03786 0.32132 0.0
C4967 C 0.40126 0.02723 0.32989 0.0
C4968 C 0.39869 0.01445 0.32506 0.0
C4969 C 0.42158 0.97785 0.2661 0.0
C4970 C 0.43519 0.98419 0.27074 0.0
C4971 C 0.41154 0.97866 0.27335 0.0
C4972 C 0.41484 0.98552 0.28553 0.0
C4973 C 0.42847 0.99204 0.29006 0.0
C4974 C 0.43852 0.99134 0.28277 0.0
C4975 C 0.40405 0.98547 0.2938 0.0
C4976 C 0.40581 0.99806 0.29847 0.0
C4977 C 0.39217 0.9731 0.29722 0.0
C4978 C 0.3901 0.95941 0.29334 0.0
C4979 C 0.39985 0.95564 0.29675 0.0
C4980 C 0.39793 0.94281 0.29291 0.0
C4981 C 0.38623 0.93361 0.28574 0.0
C4982 C 0.37641 0.93721 0.28244 0.0
C4983 C 0.3783 0.95004 0.28624 0.0
H4984 H 0.38477 0.92368 0.28277 0.0
H4985 H 0.40605 0.04775 0.32508 0.0
H4986 H 0.65477 0.00083 0.30933 0.0
H4987 H 0.63909 0.00631 0.29782 0.0
H4988 H 0.60477 0.97285 0.31681 0.0
H4989 H 0.6204 0.96715 0.32817 0.0
H4990 H 0.59916 0.97381 0.29137 0.0
H4991 H 0.61787 0.00607 0.32754 0.0
H4992 H 0.6364 0.02403 0.34124 0.0
H4993 H 0.65129 0.05071 0.30839 0.0
H4994 H 0.63295 0.03283 0.29445 0.0
H4995 H 0.54899 0.99375 0.2838 0.0
H4996 H 0.56539 0.9871 0.29148 0.0
H4997 H 0.59799 0.02201 0.2723 0.0
H4998 H 0.58163 0.02887 0.26485 0.0
H4999 H 0.60521 0.0205 0.29646 0.0
H5000 H 0.58562 0.98883 0.26053 0.0
H5001 H 0.56707 0.97093 0.24682 0.0
H5002 H 0.55383 0.94319 0.27891 0.0
H5003 H 0.57218 0.961 0.29288 0.0
C5004 C 0.64388 0.99462 0.31102 0.0
C5005 C 0.6388 0.98362 0.31971 0.0
C5006 C 0.63494 0.99778 0.30447 0.0
C5007 C 0.62078 0.9901 0.30659 0.0
C5008 C 0.61566 0.97892 0.31504 0.0
C5009 C 0.6246 0.97571 0.32156 0.0
C5010 C 0.61132 0.9939 0.30023 0.0
C5011 C 0.60039 0.98397 0.29258 0.0
C5012 C 0.61315 0.00727 0.30153 0.0
C5013 C 0.62413 0.01806 0.30992 0.0
C5014 C 0.62516 0.01573 0.32322 0.0
C5015 C 0.63561 0.0259 0.33103 0.0
C5016 C 0.64504 0.03849 0.32568 0.0
C5017 C 0.644 0.04094 0.31252 0.0
C5018 C 0.63357 0.0308 0.30466 0.0
C5019 C 0.55962 0.99985 0.28104 0.0
C5020 C 0.56399 0.01166 0.27352 0.0
C5021 C 0.56897 0.99604 0.2854 0.0
C5022 C 0.58289 0.00394 0.2823 0.0
C5023 C 0.58729 0.01571 0.27473 0.0
C5024 C 0.57793 0.01956 0.27041 0.0
C5025 C 0.59296 0.00038 0.28764 0.0
C5026 C 0.60402 0.01036 0.29514 0.0
C5027 C 0.59124 0.98706 0.28618 0.0
C5028 C 0.58021 0.9763 0.27779 0.0
C5029 C 0.57869 0.97895 0.2647 0.0
C5030 C 0.56822 0.96882 0.25687 0.0
C5031 C 0.55926 0.95594 0.262 0.0
C5032 C 0.56077 0.95317 0.27495 0.0
C5033 C 0.57121 0.96328 0.28283 0.0
H5034 H 0.55117 0.94811 0.25592 0.0
H5035 H 0.65312 0.04635 0.33175 0.0
H5036 H 0.00912 0.66634 0.30084 0.0
H5037 H 0.00188 0.6451 0.28837 0.0
H5038 H 0.00491 0.62549 0.32315 0.0
H5039 H 0.01281 0.647 0.33555 0.0
H5040 H 0.01424 0.61787 0.30388 0.0
H5041 H 0.97331 0.61968 0.31023 0.0
H5042 H 0.95834 0.62983 0.30996 0.0
H5043 H 0.96172 0.63333 0.26833 0.0
H5044 H 0.97686 0.62336 0.26837 0.0
H5045 H 0.97309 0.54979 0.27627 0.0
H5046 H 0.9809 0.57049 0.28997 0.0
H5047 H 0.98792 0.5947 0.25557 0.0
H5048 H 0.98042 0.57412 0.24181 0.0
H5049 H 0.9727 0.59898 0.27553 0.0
H5050 H 0.0143 0.597 0.27018 0.0
H5051 H 0.02833 0.58584 0.27139 0.0
H5052 H 0.02205 0.58119 0.31269 0.0
H5053 H 0.00781 0.59215 0.31169 0.0
C5054 C 0.00826 0.6575 0.30581 0.0
C5055 C 0.01144 0.65826 0.31917 0.0
C5056 C 0.00404 0.64533 0.2987 0.0
C5057 C 0.00253 0.63357 0.30487 0.0
C5058 C 0.00594 0.6344 0.31818 0.0
C5059 C 0.01042 0.64667 0.32526 0.0
C5060 C 0.99744 0.62045 0.29739 0.0
C5061 C 0.00503 0.61365 0.29785 0.0
C5062 C 0.98549 0.61495 0.2894 0.0
C5063 C 0.97632 0.62088 0.28932 0.0
C5064 C 0.97093 0.6227 0.30103 0.0
C5065 C 0.96241 0.62841 0.30092 0.0
C5066 C 0.9591 0.63225 0.28914 0.0
C5067 C 0.96429 0.63036 0.27745 0.0
C5068 C 0.97284 0.62467 0.27751 0.0
C5069 C 0.97632 0.55953 0.27164 0.0
C5070 C 0.97605 0.56033 0.25798 0.0
C5071 C 0.9808 0.57133 0.27946 0.0
C5072 C 0.98498 0.58408 0.27375 0.0
C5073 C 0.98468 0.58492 0.26014 0.0
C5074 C 0.98038 0.57317 0.25231 0.0
C5075 C 0.98958 0.59659 0.28195 0.0
C5076 C 0.98186 0.60323 0.28163 0.0
C5077 C 0.00125 0.60179 0.29023 0.0
C5078 C 0.00987 0.59526 0.29084 0.0
C5079 C 0.01581 0.59349 0.2795 0.0
C5080 C 0.02382 0.58722 0.28015 0.0
C5081 C 0.02605 0.58277 0.2921 0.0
C5082 C 0.0203 0.58462 0.30343 0.0
C5083 C 0.01227 0.59087 0.30283 0.0
H5084 H 0.03226 0.57792 0.29258 0.0
H5085 H 0.9525 0.63667 0.28907 0.0
H5086 H 0.34604 0.34599 0.30535 0.0
H5087 H 0.36747 0.35925 0.29373 0.0
H5088 H 0.3771 0.39502 0.31745 0.0
H5089 H 0.35548 0.38181 0.32905 0.0
H5090 H 0.3838 0.4015 0.29174 0.0
H5091 H 0.39123 0.37579 0.32473 0.0
H5092 H 0.38626 0.35491 0.33665 0.0
H5093 H 0.39164 0.33695 0.3016 0.0
H5094 H 0.39645 0.35766 0.28942 0.0
H5095 H 0.45585 0.43883 0.28209 0.0
H5096 H 0.43257 0.42665 0.29056 0.0
H5097 H 0.42432 0.39044 0.26821 0.0
H5098 H 0.44774 0.40254 0.25993 0.0
H5099 H 0.41653 0.38415 0.29265 0.0
H5100 H 0.40997 0.41019 0.25973 0.0
H5101 H 0.41492 0.43105 0.24778 0.0
H5102 H 0.40799 0.44841 0.28244 0.0
H5103 H 0.40319 0.42773 0.29466 0.0
C5104 C 0.35266 0.35671 0.30803 0.0
C5105 C 0.34915 0.36284 0.31818 0.0
C5106 C 0.36492 0.36426 0.3014 0.0
C5107 C 0.37398 0.37805 0.30487 0.0
C5108 C 0.37027 0.38437 0.31466 0.0
C5109 C 0.35794 0.37681 0.32129 0.0
C5110 C 0.38755 0.38564 0.29863 0.0
C5111 C 0.39104 0.39781 0.29205 0.0
C5112 C 0.39685 0.38064 0.2988 0.0
C5113 C 0.39407 0.36822 0.30614 0.0
C5114 C 0.39125 0.36735 0.31954 0.0
C5115 C 0.38848 0.35555 0.32635 0.0
C5116 C 0.3886 0.34459 0.31988 0.0
C5117 C 0.39153 0.34543 0.3066 0.0
C5118 C 0.39429 0.3572 0.29974 0.0
C5119 C 0.44898 0.42835 0.27881 0.0
C5120 C 0.45351 0.42171 0.27016 0.0
C5121 C 0.43567 0.42141 0.28363 0.0
C5122 C 0.42663 0.40769 0.27988 0.0
C5123 C 0.4311 0.40106 0.27117 0.0
C5124 C 0.44443 0.40799 0.26638 0.0
C5125 C 0.41281 0.40002 0.28567 0.0
C5126 C 0.40929 0.38783 0.29224 0.0
C5127 C 0.40351 0.40502 0.28547 0.0
C5128 C 0.40634 0.41745 0.27814 0.0
C5129 C 0.4096 0.4185 0.26483 0.0
C5130 C 0.41237 0.43029 0.25801 0.0
C5131 C 0.4118 0.44106 0.26435 0.0
C5132 C 0.40844 0.44006 0.27754 0.0
C5133 C 0.40568 0.4283 0.28442 0.0
H5134 H 0.41394 0.45018 0.25905 0.0
H5135 H 0.38644 0.33546 0.32517 0.0
H5136 H 0.30218 0.29489 0.3624 0.0
H5137 H 0.30809 0.27932 0.37356 0.0
H5138 H 0.35102 0.30791 0.36781 0.0
H5139 H 0.34521 0.32336 0.35657 0.0
H5140 H 0.34499 0.28233 0.36182 0.0
H5141 H 0.33657 0.30511 0.39732 0.0
H5142 H 0.32334 0.31304 0.41015 0.0
H5143 H 0.29185 0.27121 0.41584 0.0
H5144 H 0.3048 0.26302 0.40286 0.0
H5145 H 0.37383 0.25487 0.40495 0.0
H5146 H 0.36699 0.27076 0.39613 0.0
H5147 H 0.32447 0.23948 0.39894 0.0
H5148 H 0.33125 0.22353 0.40767 0.0
H5149 H 0.32984 0.26604 0.4067 0.0
H5150 H 0.33871 0.24357 0.37091 0.0
H5151 H 0.35251 0.23608 0.35843 0.0
H5152 H 0.38385 0.27816 0.35365 0.0
H5153 H 0.37032 0.2859 0.3663 0.0
C5154 C 0.31286 0.29782 0.36352 0.0
C5155 C 0.32323 0.31033 0.35863 0.0
C5156 C 0.31623 0.28897 0.36994 0.0
C5157 C 0.33 0.29252 0.37161 0.0
C5158 C 0.34033 0.30496 0.36663 0.0
C5159 C 0.33698 0.31379 0.36024 0.0
C5160 C 0.33375 0.28324 0.37835 0.0
C5161 C 0.3418 0.27891 0.37169 0.0
C5162 C 0.32938 0.27857 0.39115 0.0
C5163 C 0.32158 0.28346 0.39899 0.0
C5164 C 0.32676 0.2976 0.4012 0.0
C5165 C 0.31932 0.30214 0.40852 0.0
C5166 C 0.30674 0.29264 0.41377 0.0
C5167 C 0.30159 0.27856 0.41175 0.0
C5168 C 0.30897 0.27396 0.40441 0.0
C5169 C 0.36303 0.25146 0.40382 0.0
C5170 C 0.35307 0.23797 0.40694 0.0
C5171 C 0.35914 0.26052 0.39878 0.0
C5172 C 0.34523 0.25623 0.3968 0.0
C5173 C 0.33525 0.24297 0.40043 0.0
C5174 C 0.33913 0.23388 0.40537 0.0
C5175 C 0.34113 0.26527 0.39017 0.0
C5176 C 0.333 0.2695 0.39683 0.0
C5177 C 0.34548 0.26993 0.37739 0.0
C5178 C 0.35357 0.26531 0.36967 0.0
C5179 C 0.34859 0.25123 0.36729 0.0
C5180 C 0.35636 0.24694 0.36017 0.0
C5181 C 0.36907 0.25664 0.35528 0.0
C5182 C 0.37401 0.27066 0.35747 0.0
C5183 C 0.3663 0.275 0.3646 0.0
H5184 H 0.37506 0.2533 0.34977 0.0
H5185 H 0.301 0.29617 0.41944 0.0
H5186 H 0.70027 0.02403 0.34205 0.0
H5187 H 0.71239 0.04655 0.35306 0.0
H5188 H 0.69471 0.0276 0.38965 0.0
H5189 H 0.68219 0.00521 0.3786 0.0
H5190 H 0.69253 0.04915 0.3872 0.0
H5191 H 0.72948 0.03994 0.38159 0.0
H5192 H 0.74476 0.03414 0.36942 0.0
H5193 H 0.75819 0.07005 0.34616 0.0
H5194 H 0.74286 0.07597 0.35809 0.0
H5195 H 0.73549 0.10336 0.43081 0.0
H5196 H 0.72495 0.08173 0.41825 0.0
H5197 H 0.73721 0.10428 0.38247 0.0
H5198 H 0.74764 0.12602 0.39499 0.0
H5199 H 0.74237 0.08185 0.38359 0.0
H5200 H 0.70562 0.09114 0.3903 0.0
H5201 H 0.69081 0.09687 0.40335 0.0
H5202 H 0.67745 0.06029 0.42556 0.0
H5203 H 0.69235 0.05444 0.41277 0.0
C5204 C 0.69909 0.02468 0.35247 0.0
C5205 C 0.6903 0.01289 0.35948 0.0
C5206 C 0.70606 0.03755 0.35876 0.0
C5207 C 0.70458 0.03879 0.37223 0.0
C5208 C 0.696 0.02694 0.37926 0.0
C5209 C 0.68888 0.01413 0.37294 0.0
C5210 C 0.71148 0.05246 0.37896 0.0
C5211 C 0.70347 0.05619 0.38653 0.0
C5212 C 0.72569 0.06186 0.37783 0.0
C5213 C 0.73491 0.05832 0.37064 0.0
C5214 C 0.73561 0.04654 0.37381 0.0
C5215 C 0.7443 0.04324 0.36697 0.0
C5216 C 0.75241 0.0517 0.35699 0.0
C5217 C 0.75188 0.0635 0.35387 0.0
C5218 C 0.74321 0.06683 0.36067 0.0
C5219 C 0.73591 0.1037 0.42027 0.0
C5220 C 0.74232 0.11637 0.41387 0.0
C5221 C 0.72991 0.09136 0.41312 0.0
C5222 C 0.73024 0.09144 0.39945 0.0
C5223 C 0.73687 0.10404 0.39302 0.0
C5224 C 0.74277 0.11641 0.40017 0.0
C5225 C 0.72344 0.07831 0.39192 0.0
C5226 C 0.73144 0.07475 0.3842 0.0
C5227 C 0.70925 0.06898 0.393 0.0
C5228 C 0.7002 0.07242 0.40065 0.0
C5229 C 0.69961 0.08438 0.39803 0.0
C5230 C 0.69119 0.08764 0.40537 0.0
C5231 C 0.68322 0.07897 0.4153 0.0
C5232 C 0.68364 0.067 0.41788 0.0
C5233 C 0.69206 0.0637 0.41058 0.0
H5234 H 0.6767 0.08151 0.42097 0.0
H5235 H 0.75913 0.04913 0.35171 0.0
H5236 H 0.98884 0.66949 0.37318 0.0
H5237 H 0.9667 0.66079 0.38365 0.0
H5238 H 0.95585 0.68285 0.3564 0.0
H5239 H 0.97817 0.6918 0.34596 0.0
H5240 H 0.94866 0.68528 0.38105 0.0
H5241 H 0.94291 0.6485 0.35262 0.0
H5242 H 0.9488 0.63183 0.34325 0.0
H5243 H 0.94436 0.61364 0.38077 0.0
H5244 H 0.93864 0.63034 0.39041 0.0
H5245 H 0.87727 0.64969 0.39384 0.0
H5246 H 0.89977 0.65965 0.38373 0.0
H5247 H 0.91093 0.63682 0.4097 0.0
H5248 H 0.88827 0.62656 0.41961 0.0
H5249 H 0.91794 0.635 0.38546 0.0
H5250 H 0.92377 0.67187 0.41393 0.0
H5251 H 0.91792 0.68857 0.42328 0.0
H5252 H 0.92217 0.70659 0.38569 0.0
H5253 H 0.92786 0.68986 0.37608 0.0
C5254 C 0.98176 0.67252 0.36942 0.0
C5255 C 0.9852 0.68127 0.3587 0.0
C5256 C 0.96908 0.6675 0.37538 0.0
C5257 C 0.95954 0.67101 0.37069 0.0
C5258 C 0.96305 0.67998 0.36015 0.0
C5259 C 0.97578 0.68505 0.35418 0.0
C5260 C 0.94588 0.66523 0.37675 0.0
C5261 C 0.94185 0.67429 0.38186 0.0
C5262 C 0.93713 0.65088 0.37806 0.0
C5263 C 0.94046 0.64075 0.37226 0.0
C5264 C 0.94328 0.64101 0.35889 0.0
C5265 C 0.94658 0.63155 0.35353 0.0
C5266 C 0.94698 0.62171 0.36142 0.0
C5267 C 0.94406 0.62128 0.37468 0.0
C5268 C 0.94078 0.63073 0.38009 0.0
C5269 C 0.88461 0.64695 0.3975 0.0
C5270 C 0.88115 0.63763 0.40773 0.0
C5271 C 0.89746 0.65266 0.39173 0.0
C5272 C 0.90714 0.64918 0.39611 0.0
C5273 C 0.90366 0.63974 0.40624 0.0
C5274 C 0.89077 0.63397 0.41196 0.0
C5275 C 0.92073 0.65505 0.38985 0.0
C5276 C 0.92474 0.646 0.38468 0.0
C5277 C 0.92945 0.6694 0.38849 0.0
C5278 C 0.92612 0.67953 0.39427 0.0
C5279 C 0.92336 0.67933 0.40764 0.0
C5280 C 0.92009 0.68881 0.41299 0.0
C5281 C 0.91964 0.69862 0.40508 0.0
C5282 C 0.9225 0.69898 0.39181 0.0
C5283 C 0.92577 0.68951 0.38641 0.0
H5284 H 0.9171 0.70595 0.40924 0.0
H5285 H 0.94954 0.61439 0.35725 0.0
H5286 H 0.35268 0.99631 0.69442 0.0
H5287 H 0.36782 0.99275 0.70894 0.0
H5288 H 0.39289 0.03663 0.71503 0.0
H5289 H 0.37808 0.04024 0.69994 0.0
H5290 H 0.40871 0.02618 0.71375 0.0
H5291 H 0.36853 0.01512 0.73775 0.0
H5292 H 0.34379 0.00383 0.74213 0.0
H5293 H 0.34094 0.96428 0.74011 0.0
H5294 H 0.36563 0.97533 0.73554 0.0
H5295 H 0.44692 0.02151 0.77497 0.0
H5296 H 0.43122 0.02773 0.75657 0.0
H5297 H 0.39961 0.97766 0.7469 0.0
H5298 H 0.41443 0.97008 0.7649 0.0
H5299 H 0.38751 0.99285 0.74941 0.0
H5300 H 0.42729 0.00474 0.72208 0.0
H5301 H 0.45213 0.01651 0.71791 0.0
H5302 H 0.45557 0.05541 0.72766 0.0
H5303 H 0.43075 0.04382 0.73193 0.0
C5304 C 0.36147 0.00519 0.69879 0.0
C5305 C 0.36417 0.01854 0.69616 0.0
C5306 C 0.37007 0.00315 0.70716 0.0
C5307 C 0.3813 0.01441 0.71337 0.0
C5308 C 0.38425 0.02778 0.71042 0.0
C5309 C 0.37579 0.02984 0.70183 0.0
C5310 C 0.38977 0.01214 0.72308 0.0
C5311 C 0.40406 0.01906 0.72167 0.0
C5312 C 0.38377 0.00275 0.73337 0.0
C5313 C 0.36891 0.99606 0.7362 0.0
C5314 C 0.36261 0.00401 0.73816 0.0
C5315 C 0.3486 0.99766 0.74068 0.0
C5316 C 0.34079 0.98335 0.74137 0.0
C5317 C 0.34699 0.97537 0.73956 0.0
C5318 C 0.361 0.98167 0.73702 0.0
C5319 C 0.43789 0.01341 0.7701 0.0
C5320 C 0.43376 0.99511 0.77003 0.0
C5321 C 0.4285 0.01717 0.75814 0.0
C5322 C 0.4144 0.00345 0.74904 0.0
C5323 C 0.40849 0.98556 0.75211 0.0
C5324 C 0.41718 0.98071 0.7638 0.0
C5325 C 0.40632 0.0067 0.73992 0.0
C5326 C 0.39211 -1e-05 0.7415 0.0
C5327 C 0.4124 0.01644 0.72998 0.0
C5328 C 0.42727 0.02341 0.7275 0.0
C5329 C 0.43338 0.01579 0.72339 0.0
C5330 C 0.44744 0.02243 0.72099 0.0
C5331 C 0.45544 0.03669 0.72257 0.0
C5332 C 0.44938 0.04435 0.72648 0.0
C5333 C 0.43532 0.03776 0.72888 0.0
H5334 H 0.46632 0.04181 0.72073 0.0
H5335 H 0.32994 0.97844 0.74332 0.0
H5336 H 0.00035 0.3502 0.7081 0.0
H5337 H 0.00164 0.37032 0.71901 0.0
H5338 H 0.97011 0.36776 0.69312 0.0
H5339 H 0.96887 0.34774 0.68208 0.0
H5340 H 0.99116 0.39368 0.69542 0.0
H5341 H 0.96301 0.35744 0.72435 0.0
H5342 H 0.95701 0.33754 0.73829 0.0
H5343 H 0.99202 0.36242 0.76293 0.0
H5344 H 0.99836 0.38243 0.749 0.0
H5345 H 0.97108 0.44226 0.72869 0.0
H5346 H 0.97164 0.41917 0.7166 0.0
H5347 H 0.00872 0.42445 0.7473 0.0
H5348 H 0.00938 0.44789 0.76017 0.0
H5349 H 0.98513 0.39605 0.7431 0.0
H5350 H 0.01286 0.43221 0.7145 0.0
H5351 H 0.01912 0.45207 0.70045 0.0
H5352 H 0.98472 0.4271 0.67517 0.0
H5353 H 0.97813 0.40711 0.68918 0.0
C5354 C 0.99368 0.35391 0.70475 0.0
C5355 C 0.9845 0.3474 0.69425 0.0
C5356 C 0.99438 0.36536 0.71103 0.0
C5357 C 0.98588 0.37045 0.70695 0.0
C5358 C 0.97675 0.36399 0.69643 0.0
C5359 C 0.97603 0.35254 0.69016 0.0
C5360 C 0.9867 0.3827 0.71345 0.0
C5361 C 0.9896 0.3941 0.7058 0.0
C5362 C 0.98509 0.38339 0.72708 0.0
C5363 C 0.98125 0.3714 0.73554 0.0
C5364 C 0.9695 0.35865 0.73267 0.0
C5365 C 0.96602 0.34735 0.74058 0.0
C5366 C 0.97415 0.3487 0.75146 0.0
C5367 C 0.98575 0.36138 0.75448 0.0
C5368 C 0.98928 0.3727 0.74659 0.0
C5369 C 0.97852 0.43941 0.73173 0.0
C5370 C 0.98844 0.44591 0.74727 0.0
C5371 C 0.97846 0.42464 0.72472 0.0
C5372 C 0.98956 0.4188 0.73117 0.0
C5373 C 0.00182 0.42794 0.74414 0.0
C5374 C 0.00274 0.44288 0.75181 0.0
C5375 C 0.98931 0.40681 0.72499 0.0
C5376 C 0.98662 0.39555 0.7327 0.0
C5377 C 0.99102 0.40618 0.71142 0.0
C5378 C 0.99491 0.41819 0.70298 0.0
C5379 C 0.00654 0.43098 0.70601 0.0
C5380 C 0.01017 0.44226 0.69804 0.0
C5381 C 0.0023 0.44086 0.68694 0.0
C5382 C 0.9908 0.42817 0.68378 0.0
C5383 C 0.98712 0.41686 0.69173 0.0
H5384 H 0.00513 0.4496 0.68078 0.0
H5385 H 0.97145 0.33994 0.75757 0.0
H5386 H 0.65812 0.62704 0.69913 0.0
H5387 H 0.63709 0.61177 0.71075 0.0
H5388 H 0.61453 0.62489 0.68646 0.0
H5389 H 0.63551 0.64025 0.67493 0.0
H5390 H 0.6099 0.62648 0.71208 0.0
H5391 H 0.61078 0.59285 0.68284 0.0
H5392 H 0.62112 0.58021 0.67274 0.0
H5393 H 0.62496 0.56594 0.71031 0.0
H5394 H 0.6148 0.57864 0.72066 0.0
H5395 H 0.54201 0.57985 0.72891 0.0
H5396 H 0.56365 0.5933 0.71765 0.0
H5397 H 0.58202 0.57501 0.74111 0.0
H5398 H 0.56014 0.56101 0.75197 0.0
H5399 H 0.58976 0.57619 0.71717 0.0
H5400 H 0.58879 0.60887 0.74665 0.0
H5401 H 0.57913 0.62175 0.75754 0.0
H5402 H 0.57654 0.63835 0.72084 0.0
H5403 H 0.58602 0.62542 0.7097 0.0
C5404 C 0.64863 0.62651 0.69615 0.0
C5405 C 0.64845 0.63485 0.68613 0.0
C5406 C 0.63662 0.61777 0.70278 0.0
C5407 C 0.62424 0.61717 0.69945 0.0
C5408 C 0.62399 0.62522 0.68921 0.0
C5409 C 0.63597 0.63395 0.68259 0.0
C5410 C 0.61167 0.60877 0.70706 0.0
C5411 C 0.60538 0.61545 0.71305 0.0
C5412 C 0.60611 0.59449 0.70877 0.0
C5413 C 0.61215 0.5868 0.70254 0.0
C5414 C 0.61393 0.5871 0.68896 0.0
C5415 C 0.61974 0.57991 0.68319 0.0
C5416 C 0.62373 0.57231 0.69088 0.0
C5417 C 0.62188 0.57185 0.70436 0.0
C5418 C 0.61608 0.57903 0.71019 0.0
C5419 C 0.55071 0.57881 0.73175 0.0
C5420 C 0.54947 0.56968 0.74158 0.0
C5421 C 0.56309 0.58653 0.72534 0.0
C5422 C 0.5746 0.58545 0.72875 0.0
C5423 C 0.57333 0.57613 0.7384 0.0
C5424 C 0.56086 0.56823 0.74469 0.0
C5425 C 0.58781 0.59386 0.72202 0.0
C5426 C 0.59427 0.58722 0.71624 0.0
C5427 C 0.59366 0.60824 0.72064 0.0
C5428 C 0.58801 0.61609 0.72732 0.0
C5429 C 0.58607 0.6152 0.74089 0.0
C5430 C 0.58064 0.62252 0.74711 0.0
C5431 C 0.5772 0.63084 0.73989 0.0
C5432 C 0.57921 0.63189 0.72643 0.0
C5433 C 0.58462 0.62458 0.72015 0.0
H5434 H 0.57299 0.63649 0.74472 0.0
H5435 H 0.62822 0.56675 0.6864 0.0
H5436 H 0.66485 0.69584 0.66931 0.0
H5437 H 0.65949 0.71167 0.65806 0.0
H5438 H 0.68981 0.7186 0.62915 0.0
H5439 H 0.69532 0.70286 0.64043 0.0
H5440 H 0.6904 0.74246 0.63645 0.0
H5441 H 0.65664 0.69672 0.62249 0.0
H5442 H 0.63873 0.6726 0.62562 0.0
H5443 H 0.61397 0.68595 0.64563 0.0
H5444 H 0.63183 0.71016 0.64277 0.0
H5445 H 0.66772 0.77339 0.59012 0.0
H5446 H 0.67421 0.75804 0.60066 0.0
H5447 H 0.64171 0.74656 0.62831 0.0
H5448 H 0.63483 0.76144 0.61744 0.0
H5449 H 0.64257 0.72474 0.62103 0.0
H5450 H 0.67621 0.77031 0.63565 0.0
H5451 H 0.69408 0.79454 0.63295 0.0
H5452 H 0.71897 0.78177 0.61234 0.0
H5453 H 0.70116 0.75746 0.61476 0.0
C5454 C 0.67048 0.70084 0.66064 0.0
C5455 C 0.68045 0.69806 0.65571 0.0
C5456 C 0.66736 0.70983 0.65418 0.0
C5457 C 0.67411 0.71615 0.64266 0.0
C5458 C 0.68445 0.7138 0.638 0.0
C5459 C 0.68757 0.70479 0.64445 0.0
C5460 C 0.67008 0.72486 0.63526 0.0
C5461 C 0.67999 0.73856 0.63292 0.0
C5462 C 0.65643 0.71981 0.63088 0.0
C5463 C 0.64563 0.70525 0.63252 0.0
C5464 C 0.64742 0.69451 0.62764 0.0
C5465 C 0.63727 0.68082 0.62935 0.0
C5466 C 0.62523 0.67774 0.63585 0.0
C5467 C 0.62331 0.68835 0.64061 0.0
C5468 C 0.63343 0.70206 0.63893 0.0
C5469 C 0.66181 0.76741 0.5983 0.0
C5470 C 0.65056 0.76838 0.60279 0.0
C5471 C 0.66564 0.75875 0.60442 0.0
C5472 C 0.65855 0.75124 0.61538 0.0
C5473 C 0.64731 0.75219 0.61984 0.0
C5474 C 0.64337 0.76069 0.61363 0.0
C5475 C 0.66286 0.74245 0.62231 0.0
C5476 C 0.653 0.72868 0.62454 0.0
C5477 C 0.67654 0.74747 0.62665 0.0
C5478 C 0.6873 0.76208 0.62528 0.0
C5479 C 0.68546 0.77268 0.63047 0.0
C5480 C 0.69558 0.78642 0.629 0.0
C5481 C 0.70764 0.78969 0.62245 0.0
C5482 C 0.70962 0.77922 0.61739 0.0
C5483 C 0.69952 0.76546 0.61882 0.0
H5484 H 0.71546 0.80034 0.62132 0.0
H5485 H 0.61739 0.66714 0.63717 0.0
H5486 H 0.29407 0.99266 0.65064 0.0
H5487 H 0.27907 0.97128 0.63859 0.0
H5488 H 0.30915 0.95855 0.64322 0.0
H5489 H 0.32437 0.98011 0.6548 0.0
H5490 H 0.29921 0.95282 0.61954 0.0
H5491 H 0.27937 0.94594 0.66243 0.0
H5492 H 0.26949 0.95168 0.68122 0.0
H5493 H 0.23732 0.94911 0.6566 0.0
H5494 H 0.2471 0.94351 0.63763 0.0
H5495 H 0.25905 0.88124 0.60772 0.0
H5496 H 0.27341 0.90428 0.61713 0.0
H5497 H 0.24114 0.91354 0.61007 0.0
H5498 H 0.22656 0.89031 0.60107 0.0
H5499 H 0.25151 0.92188 0.63359 0.0
H5500 H 0.27049 0.9271 0.59097 0.0
H5501 H 0.28031 0.92116 0.57228 0.0
H5502 H 0.31408 0.92673 0.59634 0.0
H5503 H 0.30437 0.93254 0.61523 0.0
C5504 C 0.29746 0.98528 0.64907 0.0
C5505 C 0.31035 0.98799 0.65369 0.0
C5506 C 0.28886 0.97305 0.64224 0.0
C5507 C 0.29289 0.96319 0.64016 0.0
C5508 C 0.30582 0.96598 0.64469 0.0
C5509 C 0.31449 0.97829 0.65134 0.0
C5510 C 0.28368 0.94994 0.63332 0.0
C5511 C 0.28883 0.94599 0.6227 0.0
C5512 C 0.26999 0.94119 0.63718 0.0
C5513 C 0.26404 0.94444 0.6486 0.0
C5514 C 0.27024 0.94668 0.66101 0.0
C5515 C 0.26465 0.9499 0.6717 0.0
C5516 C 0.2528 0.95079 0.6701 0.0
C5517 C 0.2465 0.94843 0.65782 0.0
C5518 C 0.25205 0.94522 0.64711 0.0
C5519 C 0.25511 0.88828 0.60802 0.0
C5520 C 0.24185 0.88412 0.60332 0.0
C5521 C 0.26332 0.90144 0.61336 0.0
C5522 C 0.25847 0.91076 0.61404 0.0
C5523 C 0.24515 0.90657 0.60952 0.0
C5524 C 0.23688 0.89335 0.60428 0.0
C5525 C 0.26712 0.92467 0.61995 0.0
C5526 C 0.26186 0.92874 0.63037 0.0
C5527 C 0.28072 0.93353 0.61592 0.0
C5528 C 0.28664 0.93016 0.60454 0.0
C5529 C 0.27997 0.92698 0.5923 0.0
C5530 C 0.28552 0.92364 0.58167 0.0
C5531 C 0.29779 0.92354 0.58313 0.0
C5532 C 0.30457 0.92681 0.59522 0.0
C5533 C 0.29905 0.93014 0.60589 0.0
H5534 H 0.30207 0.92095 0.57489 0.0
H5535 H 0.2485 0.9533 0.67837 0.0
H5536 H 0.02865 0.34488 0.66126 0.0
H5537 H 0.04952 0.35099 0.64929 0.0
H5538 H 0.03519 0.30806 0.64152 0.0
H5539 H 0.01426 0.30183 0.65367 0.0
H5540 H 0.06248 0.32233 0.64828 0.0
H5541 H 0.03272 0.32726 0.61805 0.0
H5542 H 0.01725 0.33545 0.61062 0.0
H5543 H 0.04978 0.3773 0.61511 0.0
H5544 H 0.0654 0.36936 0.62275 0.0
H5545 H 0.11431 0.33765 0.6014 0.0
H5546 H 0.09189 0.32841 0.61158 0.0
H5547 H 0.10001 0.36968 0.61937 0.0
H5548 H 0.12219 0.37893 0.60878 0.0
H5549 H 0.07457 0.35424 0.61128 0.0
H5550 H 0.10378 0.34964 0.643 0.0
H5551 H 0.11939 0.34181 0.65092 0.0
H5552 H 0.08814 0.29979 0.64405 0.0
H5553 H 0.0724 0.30739 0.63592 0.0
C5554 C 0.02996 0.33672 0.65707 0.0
C5555 C 0.01979 0.32287 0.65834 0.0
C5556 C 0.04187 0.34024 0.65019 0.0
C5557 C 0.0438 0.32999 0.64433 0.0
C5558 C 0.03387 0.31612 0.64592 0.0
C5559 C 0.02192 0.31258 0.65284 0.0
C5560 C 0.05612 0.33386 0.6364 0.0
C5561 C 0.06503 0.32912 0.64005 0.0
C5562 C 0.05954 0.3429 0.6258 0.0
C5563 C 0.0502 0.34771 0.62106 0.0
C5564 C 0.03655 0.33821 0.61753 0.0
C5565 C 0.02776 0.34281 0.61327 0.0
C5566 C 0.03252 0.35689 0.61241 0.0
C5567 C 0.0461 0.3664 0.61578 0.0
C5568 C 0.05494 0.36185 0.62006 0.0
C5569 C 0.11119 0.34474 0.60507 0.0
C5570 C 0.11987 0.35903 0.60403 0.0
C5571 C 0.09844 0.33945 0.61101 0.0
C5572 C 0.0943 0.34835 0.61635 0.0
C5573 C 0.10293 0.3626 0.61526 0.0
C5574 C 0.11559 0.36788 0.60921 0.0
C5575 C 0.08111 0.34294 0.6233 0.0
C5576 C 0.072 0.34736 0.61944 0.0
C5577 C 0.07756 0.33366 0.63374 0.0
C5578 C 0.08697 0.32909 0.63872 0.0
C5579 C 0.10028 0.33874 0.64309 0.0
C5580 C 0.10914 0.33434 0.64764 0.0
C5581 C 0.10477 0.32031 0.64796 0.0
C5582 C 0.09152 0.31065 0.64378 0.0
C5583 C 0.08262 0.315 0.63921 0.0
H5584 H 0.11165 0.31693 0.65147 0.0
H5585 H 0.0257 0.36043 0.60912 0.0
H5586 H 0.30955 0.31422 0.63583 0.0
H5587 H 0.29766 0.32454 0.62486 0.0
H5588 H 0.2927 0.34021 0.66179 0.0
H5589 H 0.30459 0.32987 0.67287 0.0
H5590 H 0.26951 0.33022 0.64541 0.0
H5591 H 0.31787 0.36114 0.64373 0.0
H5592 H 0.34192 0.36795 0.63947 0.0
H5593 H 0.33217 0.35749 0.59889 0.0
H5594 H 0.30799 0.35041 0.60295 0.0
H5595 H 0.25702 0.38124 0.61759 0.0
H5596 H 0.26642 0.36959 0.63055 0.0
H5597 H 0.27487 0.3541 0.59521 0.0
H5598 H 0.2656 0.36578 0.58225 0.0
H5599 H 0.29638 0.36465 0.61197 0.0
H5600 H 0.24773 0.33338 0.6139 0.0
H5601 H 0.22376 0.32672 0.6184 0.0
H5602 H 0.23416 0.33825 0.65872 0.0
H5603 H 0.25826 0.34516 0.65442 0.0
C5604 C 0.30575 0.31968 0.64165 0.0
C5605 C 0.30808 0.32134 0.65519 0.0
C5606 C 0.299 0.3256 0.63536 0.0
C5607 C 0.29449 0.33329 0.64251 0.0
C5608 C 0.29615 0.33434 0.65612 0.0
C5609 C 0.30296 0.32846 0.66241 0.0
C5610 C 0.28885 0.34091 0.63563 0.0
C5611 C 0.27542 0.33787 0.63821 0.0
C5612 C 0.29655 0.3508 0.62617 0.0
C5613 C 0.31109 0.35511 0.62367 0.0
C5614 C 0.32083 0.36018 0.63392 0.0
C5615 C 0.33449 0.36411 0.63154 0.0
C5616 C 0.33856 0.36312 0.61892 0.0
C5617 C 0.32899 0.35823 0.60866 0.0
C5618 C 0.31531 0.35427 0.611 0.0
C5619 C 0.26083 0.37528 0.61262 0.0
C5620 C 0.26044 0.37427 0.59893 0.0
C5621 C 0.26615 0.36862 0.62002 0.0
C5622 C 0.27119 0.36085 0.61384 0.0
C5623 C 0.27099 0.36 0.60017 0.0
C5624 C 0.26566 0.36663 0.59279 0.0
C5625 C 0.27693 0.35379 0.62154 0.0
C5626 C 0.29045 0.357 0.61917 0.0
C5627 C 0.26931 0.34412 0.6312 0.0
C5628 C 0.25483 0.33992 0.63381 0.0
C5629 C 0.24493 0.3346 0.62371 0.0
C5630 C 0.23132 0.33076 0.62622 0.0
C5631 C 0.22745 0.3321 0.63883 0.0
C5632 C 0.23718 0.33724 0.64895 0.0
C5633 C 0.25082 0.34111 0.64649 0.0
H5634 H 0.2169 0.32912 0.64075 0.0
H5635 H 0.34914 0.36617 0.6171 0.0
H5636 H 0.68067 0.99799 0.62855 0.0
H5637 H 0.67025 0.97547 0.61768 0.0
H5638 H 0.67033 0.9568 0.65418 0.0
H5639 H 0.68119 0.97944 0.66503 0.0
H5640 H 0.67642 0.94498 0.63498 0.0
H5641 H 0.64123 0.95596 0.64249 0.0
H5642 H 0.63015 0.9701 0.64188 0.0
H5643 H 0.63036 0.96925 0.60002 0.0
H5644 H 0.64163 0.95526 0.60037 0.0
H5645 H 0.62501 0.87707 0.61388 0.0
H5646 H 0.63704 0.89914 0.62578 0.0
H5647 H 0.64352 0.92062 0.58962 0.0
H5648 H 0.63169 0.89863 0.57767 0.0
H5649 H 0.63351 0.93031 0.60964 0.0
H5650 H 0.6692 0.9191 0.60288 0.0
H5651 H 0.67949 0.90428 0.60431 0.0
H5652 H 0.67706 0.90463 0.64607 0.0
H5653 H 0.66657 0.9193 0.64487 0.0
C5654 C 0.67861 0.98911 0.63423 0.0
C5655 C 0.68164 0.99044 0.64765 0.0
C5656 C 0.67258 0.97623 0.62802 0.0
C5657 C 0.66922 0.9644 0.63518 0.0
C5658 C 0.67277 0.96578 0.64848 0.0
C5659 C 0.67896 0.97871 0.65467 0.0
C5660 C 0.66157 0.95058 0.62884 0.0
C5661 C 0.66694 0.94171 0.62959 0.0
C5662 C 0.64924 0.94632 0.62172 0.0
C5663 C 0.64239 0.95467 0.62146 0.0
C5664 C 0.639 0.95887 0.63315 0.0
C5665 C 0.63268 0.96685 0.63286 0.0
C5666 C 0.62958 0.9706 0.62092 0.0
C5667 C 0.63278 0.96635 0.60926 0.0
C5668 C 0.63913 0.95839 0.6095 0.0
C5669 C 0.62903 0.8865 0.60849 0.0
C5670 C 0.6274 0.88614 0.59485 0.0
C5671 C 0.6359 0.89908 0.61528 0.0
C5672 C 0.6412 0.91148 0.60855 0.0
C5673 C 0.63948 0.91115 0.59498 0.0
C5674 C 0.63273 0.89861 0.58818 0.0
C5675 C 0.64847 0.92486 0.61563 0.0
C5676 C 0.64298 0.93361 0.61506 0.0
C5677 C 0.66056 0.92891 0.62304 0.0
C5678 C 0.66697 0.92018 0.62377 0.0
C5679 C 0.67076 0.91592 0.61236 0.0
C5680 C 0.67664 0.90757 0.61313 0.0
C5681 C 0.67889 0.90348 0.62527 0.0
C5682 C 0.6753 0.90778 0.63667 0.0
C5683 C 0.66939 0.91613 0.63595 0.0
H5684 H 0.68345 0.89701 0.62585 0.0
H5685 H 0.62468 0.97678 0.62071 0.0
H5686 H 0.01429 0.67358 0.65168 0.0
H5687 H 0.03583 0.68773 0.64047 0.0
H5688 H 0.03513 0.72433 0.65238 0.0
H5689 H 0.01337 0.71017 0.66343 0.0
H5690 H 0.04239 0.72561 0.6273 0.0
H5691 H 0.05579 0.71455 0.66795 0.0
H5692 H 0.05527 0.69902 0.68501 0.0
H5693 H 0.0682 0.67897 0.65734 0.0
H5694 H 0.06862 0.69426 0.64006 0.0
H5695 H 0.11209 0.77489 0.6168 0.0
H5696 H 0.08958 0.75988 0.62608 0.0
H5697 H 0.09151 0.72425 0.613 0.0
H5698 H 0.11416 0.73929 0.60379 0.0
H5699 H 0.0834 0.72193 0.638 0.0
H5700 H 0.07069 0.73336 0.59749 0.0
H5701 H 0.07113 0.74876 0.58035 0.0
H5702 H 0.05691 0.76801 0.60759 0.0
H5703 H 0.05657 0.75285 0.62496 0.0
C5704 C 0.01872 0.68464 0.65192 0.0
C5705 C 0.01219 0.69078 0.65849 0.0
C5706 C 0.03106 0.69272 0.64554 0.0
C5707 C 0.03719 0.7071 0.64574 0.0
C5708 C 0.03058 0.71325 0.65213 0.0
C5709 C 0.01819 0.70516 0.65847 0.0
C5710 C 0.05053 0.71571 0.63931 0.0
C5711 C 0.05141 0.72494 0.62976 0.0
C5712 C 0.06219 0.71456 0.64227 0.0
C5713 C 0.06211 0.70546 0.65269 0.0
C5714 C 0.05844 0.70677 0.66549 0.0
C5715 C 0.05817 0.69802 0.6752 0.0
C5716 C 0.06166 0.68799 0.67225 0.0
C5717 C 0.06548 0.68673 0.6596 0.0
C5718 C 0.06575 0.69544 0.64985 0.0
C5719 C 0.10763 0.76386 0.61575 0.0
C5720 C 0.11475 0.75825 0.60937 0.0
C5721 C 0.09477 0.75529 0.62104 0.0
C5722 C 0.08878 0.74095 0.62008 0.0
C5723 C 0.09591 0.7353 0.61378 0.0
C5724 C 0.10878 0.74387 0.60847 0.0
C5725 C 0.07529 0.73188 0.62603 0.0
C5726 C 0.07438 0.72257 0.63551 0.0
C5727 C 0.0636 0.73296 0.62299 0.0
C5728 C 0.06372 0.74205 0.61256 0.0
C5729 C 0.06776 0.74095 0.59986 0.0
C5730 C 0.06797 0.74962 0.59009 0.0
C5731 C 0.06408 0.75938 0.59289 0.0
C5732 C 0.05993 0.76046 0.60544 0.0
C5733 C 0.05971 0.75182 0.61525 0.0
H5734 H 0.06426 0.76609 0.58532 0.0
H5735 H 0.06143 0.68121 0.67978 0.0
H5736 H 0.99518 0.65225 0.7125 0.0
H5737 H 0.99927 0.63571 0.72403 0.0
H5738 H 0.96882 0.60285 0.69969 0.0
H5739 H 0.96439 0.61933 0.68837 0.0
H5740 H 0.96705 0.59468 0.72425 0.0
H5741 H 0.00346 0.61779 0.69351 0.0
H5742 H 0.02247 0.638 0.6832 0.0
H5743 H 0.04443 0.65024 0.71977 0.0
H5744 H 0.02546 0.6302 0.73034 0.0
H5745 H 0.9884 0.54548 0.73222 0.0
H5746 H 0.98194 0.56194 0.72438 0.0
H5747 H 0.01346 0.59368 0.74885 0.0
H5748 H 0.02024 0.57733 0.75638 0.0
H5749 H 0.01453 0.6028 0.72531 0.0
H5750 H 0.97849 0.57874 0.75581 0.0
H5751 H 0.95941 0.55844 0.76592 0.0
H5752 H 0.93673 0.54776 0.72976 0.0
H5753 H 0.95575 0.5679 0.71938 0.0
C5754 C 0.98929 0.64148 0.70967 0.0
C5755 C 0.97955 0.63708 0.69947 0.0
C5756 C 0.99167 0.63205 0.71623 0.0
C5757 C 0.98455 0.61808 0.71256 0.0
C5758 C 0.97447 0.61359 0.70266 0.0
C5759 C 0.97197 0.62301 0.69618 0.0
C5760 C 0.98793 0.60824 0.71871 0.0
C5761 C 0.9774 0.59637 0.72438 0.0
C5762 C 0.0015 0.6106 0.71912 0.0
C5763 C 0.01299 0.62257 0.71274 0.0
C5764 C 0.01231 0.62484 0.69937 0.0
C5765 C 0.02308 0.63626 0.69348 0.0
C5766 C 0.03463 0.64542 0.70084 0.0
C5767 C 0.03547 0.64315 0.71409 0.0
C5768 C 0.02472 0.63175 0.72003 0.0
C5769 C 0.99378 0.55591 0.73609 0.0
C5770 C 0.0046 0.56003 0.74513 0.0
C5771 C 0.99006 0.56531 0.73164 0.0
C5772 C 0.99705 0.579 0.7362 0.0
C5773 C 0.00785 0.58314 0.74527 0.0
C5774 C 0.01165 0.57377 0.74964 0.0
C5775 C 0.99365 0.58919 0.73089 0.0
C5776 C 0.00419 0.60113 0.72531 0.0
C5777 C 0.98009 0.58686 0.73054 0.0
C5778 C 0.9686 0.57478 0.73679 0.0
C5779 C 0.96947 0.57201 0.74999 0.0
C5780 C 0.95866 0.56054 0.75577 0.0
C5781 C 0.94688 0.5518 0.74848 0.0
C5782 C 0.94587 0.55454 0.73539 0.0
C5783 C 0.95665 0.56599 0.72956 0.0
H5784 H 0.93853 0.54292 0.75297 0.0
H5785 H 0.04295 0.65426 0.69626 0.0
H5786 H 0.36676 0.33832 0.70762 0.0
H5787 H 0.37925 0.35978 0.72027 0.0
H5788 H 0.37666 0.38234 0.68771 0.0
H5789 H 0.3643 0.36093 0.67493 0.0
H5790 H 0.40158 0.39639 0.70048 0.0
H5791 H 0.35381 0.37321 0.71147 0.0
H5792 H 0.33204 0.35339 0.7184 0.0
H5793 H 0.35078 0.35256 0.75469 0.0
H5794 H 0.37273 0.37229 0.74791 0.0
H5795 H 0.41129 0.456 0.73513 0.0
H5796 H 0.40211 0.43514 0.72146 0.0
H5797 H 0.40301 0.41233 0.75462 0.0
H5798 H 0.41198 0.43311 0.76834 0.0
H5799 H 0.37937 0.3984 0.74144 0.0
H5800 H 0.42705 0.42214 0.73074 0.0
H5801 H 0.44886 0.44179 0.72366 0.0
H5802 H 0.43043 0.44159 0.68684 0.0
H5803 H 0.40843 0.42205 0.69377 0.0
C5804 C 0.36906 0.34788 0.70308 0.0
C5805 C 0.36446 0.34795 0.69033 0.0
C5806 C 0.37614 0.36012 0.71033 0.0
C5807 C 0.37866 0.37261 0.705 0.0
C5808 C 0.37477 0.37281 0.69202 0.0
C5809 C 0.3677 0.36056 0.68474 0.0
C5810 C 0.38452 0.38528 0.71322 0.0
C5811 C 0.39667 0.3969 0.70937 0.0
C5812 C 0.3782 0.38584 0.72492 0.0
C5813 C 0.36495 0.37414 0.72913 0.0
C5814 C 0.35331 0.36875 0.7209 0.0
C5815 C 0.34094 0.35754 0.7248 0.0
C5816 C 0.34004 0.3517 0.73696 0.0
C5817 C 0.3515 0.35709 0.74527 0.0
C5818 C 0.36391 0.3683 0.74141 0.0
C5819 C 0.40963 0.44655 0.73945 0.0
C5820 C 0.41261 0.44623 0.75273 0.0
C5821 C 0.40442 0.43466 0.73165 0.0
C5822 C 0.40209 0.42223 0.73698 0.0
C5823 C 0.40482 0.42183 0.75028 0.0
C5824 C 0.41 0.4337 0.75809 0.0
C5825 C 0.39651 0.40955 0.72876 0.0
C5826 C 0.38435 0.39791 0.73259 0.0
C5827 C 0.40283 0.409 0.71705 0.0
C5828 C 0.41606 0.42071 0.71283 0.0
C5829 C 0.42761 0.42635 0.72117 0.0
C5830 C 0.44002 0.43746 0.71718 0.0
C5831 C 0.44102 0.44296 0.70482 0.0
C5832 C 0.42963 0.43733 0.69642 0.0
C5833 C 0.41719 0.42623 0.70037 0.0
H5834 H 0.45063 0.45156 0.70175 0.0
H5835 H 0.33045 0.343 0.73996 0.0
H5836 H 0.65943 0.03807 0.68557 0.0
H5837 H 0.63957 0.03259 0.69914 0.0
H5838 H 0.63078 0.99067 0.70176 0.0
H5839 H 0.65064 0.99609 0.68837 0.0
H5840 H 0.61197 0.01419 0.69731 0.0
H5841 H 0.62184 0.98032 0.73279 0.0
H5842 H 0.64124 0.978 0.74087 0.0
H5843 H 0.66892 0.02067 0.73349 0.0
H5844 H 0.64967 0.02328 0.72556 0.0
H5845 H 0.55441 0.97504 0.73765 0.0
H5846 H 0.57363 0.98272 0.72267 0.0
H5847 H 0.60121 0.00995 0.75267 0.0
H5848 H 0.58206 0.00218 0.7677 0.0
H5849 H 0.61146 0.99585 0.74121 0.0
H5850 H 0.59173 0.02264 0.7273 0.0
H5851 H 0.5733 0.02678 0.71986 0.0
H5852 H 0.56699 0.00187 0.68557 0.0
H5853 H 0.58527 0.99742 0.6929 0.0
C5854 C 0.65318 0.02766 0.68894 0.0
C5855 C 0.65665 0.01754 0.68604 0.0
C5856 C 0.64183 0.02454 0.69665 0.0
C5857 C 0.63384 0.01128 0.70159 0.0
C5858 C 0.63695 0.00102 0.6982 0.0
C5859 C 0.64828 0.00413 0.69053 0.0
C5860 C 0.62271 0.0083 0.71085 0.0
C5861 C 0.61182 0.01017 0.70691 0.0
C5862 C 0.62271 0.00334 0.72347 0.0
C5863 C 0.63433 0.00195 0.72847 0.0
C5864 C 0.63206 0.98922 0.73295 0.0
C5865 C 0.64303 0.98785 0.7375 0.0
C5866 C 0.65631 0.99917 0.73766 0.0
C5867 C 0.65864 0.0119 0.73333 0.0
C5868 C 0.6477 0.01332 0.72879 0.0
C5869 C 0.56456 0.98275 0.74098 0.0
C5870 C 0.56672 0.98817 0.75376 0.0
C5871 C 0.57551 0.98715 0.73243 0.0
C5872 C 0.58881 0.99703 0.73651 0.0
C5873 C 0.59101 0.00236 0.7493 0.0
C5874 C 0.58008 0.99797 0.75785 0.0
C5875 C 0.60053 0.00146 0.72761 0.0
C5876 C 0.61156 0.99986 0.73162 0.0
C5877 C 0.60076 0.00691 0.71518 0.0
C5878 C 0.58979 0.00959 0.71072 0.0
C5879 C 0.58634 0.01795 0.71823 0.0
C5880 C 0.57593 0.02038 0.71402 0.0
C5881 C 0.56896 0.01457 0.70226 0.0
C5882 C 0.5724 0.00635 0.69468 0.0
C5883 C 0.58279 0.00389 0.69885 0.0
H5884 H 0.5609 0.01646 0.69902 0.0
H5885 H 0.66479 0.99809 0.74116 0.0
loop_
_geom_bond_atom_site_label_1
_geom_bond_atom_site_label_2
_geom_bond_distance
_geom_bond_site_symmetry_2
_ccdc_geom_bond_type
In0 O1 2.294 1_455 S
In0 O2 2.326 . S
In0 O6 2.265 1_455 S
In0 O7 2.326 1_454 S
In0 O8 2.266 1_554 S
In0 O9 2.326 1_454 S
In0 O11 2.294 . S
In0 O12 2.326 . S
O1 In0 2.294 1_655 S
O1 C10 1.222 1_655 S
O2 In0 2.326 . S
O2 C10 1.290 . S
C3 O6 1.257 1_556 S
C3 O7 1.260 . S
C4 O11 1.240 . S
C4 O12 1.252 . S
C5 O8 1.252 . S
C5 O9 1.260 1_455 S
O6 In0 2.265 1_655 S
O6 C3 1.257 1_554 S
O7 In0 2.326 1_656 S
O7 C3 1.260 . S
O8 In0 2.266 1_556 S
O8 C5 1.252 . S
O9 In0 2.326 1_656 S
O9 C5 1.260 1_655 S
C10 O1 1.222 1_455 S
C10 O2 1.290 . S
O11 In0 2.294 . S
O11 C4 1.240 . S
O12 In0 2.326 . S
O12 C4 1.252 . S
In13 O14 2.294 . S
In13 O15 2.326 . S
In13 O19 2.266 . S
In13 O20 2.326 1_554 S
In13 O21 2.266 1_554 S
In13 O22 2.326 1_554 S
In13 O24 2.294 . S
In13 O25 2.326 . S
O14 In13 2.294 . S
O14 C23 1.240 . S
O15 In13 2.326 . S
O15 C23 1.252 . S
C16 O19 1.252 1_556 S
C16 O20 1.260 . S
C17 O24 1.240 . S
C17 O25 1.252 . S
C18 O21 1.252 . S
C18 O22 1.260 . S
O19 In13 2.266 . S
O19 C16 1.252 1_554 S
O20 In13 2.326 1_556 S
O20 C16 1.260 . S
O21 In13 2.266 1_556 S
O21 C18 1.252 . S
O22 In13 2.326 1_556 S
O22 C18 1.260 . S
C23 O14 1.240 . S
C23 O15 1.252 . S
O24 In13 2.294 . S
O24 C17 1.240 . S
O25 In13 2.326 . S
O25 C17 1.252 . S
In26 O27 2.305 . S
In26 O28 2.326 1_554 S
In26 O32 2.266 . S
In26 O33 2.326 1_545 S
In26 O34 2.266 1_545 S
In26 O35 2.326 1_545 S
In26 O37 2.294 1_544 S
In26 O38 2.326 1_554 S
O27 In26 2.305 . S
O27 C36 1.207 1_554 S
O28 In26 2.326 1_556 S
O28 C36 1.252 . S
C29 O32 1.252 . S
C29 O33 1.260 1_545 S
C30 O37 1.244 . S
C30 O38 1.244 1_565 S
C31 O34 1.252 . S
C31 O35 1.260 . S
O32 In26 2.266 . S
O32 C29 1.252 . S
O33 In26 2.326 1_565 S
O33 C29 1.260 1_565 S
O34 In26 2.266 1_565 S
O34 C31 1.252 . S
O35 In26 2.326 1_565 S
O35 C31 1.260 . S
C36 O27 1.207 1_556 S
C36 O28 1.252 . S
O37 In26 2.294 1_566 S
O37 C30 1.244 . S
O38 In26 2.326 1_556 S
O38 C30 1.244 1_545 S
In39 O40 2.293 1_554 S
In39 O41 2.326 1_454 S
In39 O45 2.265 . S
In39 O46 2.326 . S
In39 O47 2.267 1_455 S
In39 O48 2.324 . S
In39 O50 2.296 1_455 S
In39 O51 2.327 1_454 S
O40 In39 2.293 1_556 S
O40 C49 1.240 . S
O41 In39 2.326 1_656 S
O41 C49 1.252 1_655 S
C42 O45 1.252 . S
C42 O46 1.260 . S
C43 O50 1.240 1_556 S
C43 O51 1.252 . S
C44 O47 1.252 . S
C44 O48 1.260 1_655 S
O45 In39 2.265 . S
O45 C42 1.252 . S
O46 In39 2.326 . S
O46 C42 1.260 . S
O47 In39 2.267 1_655 S
O47 C44 1.252 . S
O48 In39 2.324 . S
O48 C44 1.260 1_455 S
C49 O40 1.240 . S
C49 O41 1.252 1_455 S
O50 In39 2.296 1_655 S
O50 C43 1.240 1_554 S
O51 In39 2.327 1_656 S
O51 C43 1.252 . S
In52 O53 2.294 1_554 S
In52 O54 2.326 1_554 S
In52 O58 2.266 . S
In52 O59 2.326 . S
In52 O60 2.266 . S
In52 O61 2.326 . S
In52 O63 2.294 1_554 S
In52 O64 2.326 1_554 S
O53 In52 2.294 1_556 S
O53 C62 1.240 . S
O54 In52 2.326 1_556 S
O54 C62 1.252 . S
C55 O58 1.252 . S
C55 O59 1.260 . S
C56 O63 1.240 . S
C56 O64 1.252 . S
C57 O60 1.252 . S
C57 O61 1.260 . S
O58 In52 2.266 . S
O58 C55 1.252 . S
O59 In52 2.326 . S
O59 C55 1.260 . S
O60 In52 2.266 . S
O60 C57 1.252 . S
O61 In52 2.326 . S
O61 C57 1.260 . S
C62 O53 1.240 . S
C62 O54 1.252 . S
O63 In52 2.294 1_556 S
O63 C56 1.240 . S
O64 In52 2.326 1_556 S
O64 C56 1.252 . S
In65 O66 2.293 . S
In65 O67 2.326 1_545 S
In65 O71 2.265 . S
In65 O72 2.326 1_554 S
In65 O73 2.267 1_544 S
In65 O74 2.324 1_554 S
In65 O76 2.296 1_545 S
In65 O77 2.327 1_545 S
O66 In65 2.293 . S
O66 C75 1.240 . S
O67 In65 2.326 1_565 S
O67 C75 1.252 1_565 S
C68 O71 1.252 1_556 S
C68 O72 1.260 . S
C69 O76 1.240 . S
C69 O77 1.252 . S
C70 O73 1.252 . S
C70 O74 1.260 1_565 S
O71 In65 2.265 . S
O71 C68 1.252 1_554 S
O72 In65 2.326 1_556 S
O72 C68 1.260 . S
O73 In65 2.267 1_566 S
O73 C70 1.252 . S
O74 In65 2.324 1_556 S
O74 C70 1.260 1_545 S
C75 O66 1.240 . S
C75 O67 1.252 1_545 S
O76 In65 2.296 1_565 S
O76 C69 1.240 . S
O77 In65 2.327 1_565 S
O77 C69 1.252 . S
In78 O79 2.294 . S
In78 O80 2.326 . S
In78 O84 2.266 . S
In78 O85 2.326 . S
In78 O86 2.266 . S
In78 O87 2.326 . S
In78 O89 2.294 . S
In78 O90 2.326 . S
O79 In78 2.294 . S
O79 C88 1.240 . S
O80 In78 2.326 . S
O80 C88 1.252 . S
C81 O84 1.252 . S
C81 O85 1.260 . S
C82 O89 1.240 . S
C82 O90 1.252 . S
C83 O86 1.252 . S
C83 O87 1.260 . S
O84 In78 2.266 . S
O84 C81 1.252 . S
O85 In78 2.326 . S
O85 C81 1.260 . S
O86 In78 2.266 . S
O86 C83 1.252 . S
O87 In78 2.326 . S
O87 C83 1.260 . S
C88 O79 1.240 . S
C88 O80 1.252 . S
O89 In78 2.294 . S
O89 C82 1.240 . S
O90 In78 2.326 . S
O90 C82 1.252 . S
In91 O92 2.294 . S
In91 O93 2.326 . S
In91 O97 2.266 . S
In91 O98 2.326 . S
In91 O99 2.266 . S
In91 O100 2.326 . S
In91 O102 2.294 . S
In91 O103 2.326 . S
O92 In91 2.294 . S
O92 C101 1.240 . S
O93 In91 2.326 . S
O93 C101 1.252 . S
C94 O97 1.252 . S
C94 O98 1.260 . S
C95 O102 1.240 1_545 S
C95 O103 1.252 1_545 S
C96 O99 1.252 . S
C96 O100 1.260 . S
O97 In91 2.266 . S
O97 C94 1.252 . S
O98 In91 2.326 . S
O98 C94 1.260 . S
O99 In91 2.266 . S
O99 C96 1.252 . S
O100 In91 2.326 . S
O100 C96 1.260 . S
C101 O92 1.240 . S
C101 O93 1.252 . S
O102 In91 2.294 . S
O102 C95 1.240 1_565 S
O103 In91 2.326 . S
O103 C95 1.252 1_565 S
In104 O105 2.294 . S
In104 O106 2.326 . S
In104 O110 2.266 . S
In104 O111 2.326 . S
In104 O112 2.266 . S
In104 O113 2.326 . S
In104 O115 2.294 . S
In104 O116 2.326 . S
O105 In104 2.294 . S
O105 C114 1.240 . S
O106 In104 2.326 . S
O106 C114 1.252 . S
C107 O110 1.252 . S
C107 O111 1.260 . S
C108 O115 1.240 . S
C108 O116 1.252 . S
C109 O112 1.274 . S
C109 O113 1.263 . S
O110 In104 2.266 . S
O110 C107 1.252 . S
O111 In104 2.326 . S
O111 C107 1.260 . S
O112 In104 2.266 . S
O112 C109 1.274 . S
O113 In104 2.326 . S
O113 C109 1.263 . S
C114 O105 1.240 . S
C114 O106 1.252 . S
O115 In104 2.294 . S
O115 C108 1.240 . S
O116 In104 2.326 . S
O116 C108 1.252 . S
In117 O118 2.294 . S
In117 O119 2.326 . S
In117 O123 2.273 . S
In117 O124 2.326 . S
In117 O125 2.266 . S
In117 O126 2.326 . S
In117 O128 2.294 . S
In117 O129 2.326 . S
O118 In117 2.294 . S
O118 C127 1.240 . S
O119 In117 2.326 . S
O119 C127 1.252 . S
C120 O123 1.243 1_545 S
C120 O124 1.260 1_545 S
C121 O128 1.240 . S
C121 O129 1.252 . S
C122 O125 1.252 . S
C122 O126 1.260 . S
O123 In117 2.273 . S
O123 C120 1.243 1_565 S
O124 In117 2.326 . S
O124 C120 1.260 1_565 S
O125 In117 2.266 . S
O125 C122 1.252 . S
O126 In117 2.326 . S
O126 C122 1.260 . S
C127 O118 1.240 . S
C127 O119 1.252 . S
O128 In117 2.294 . S
O128 C121 1.240 . S
O129 In117 2.326 . S
O129 C121 1.252 . S
In130 O131 2.294 . S
In130 O132 2.326 . S
In130 O136 2.266 . S
In130 O137 2.326 . S
In130 O138 2.266 . S
In130 O139 2.326 . S
In130 O141 2.294 . S
In130 O142 2.326 . S
O131 In130 2.294 . S
O131 C140 1.240 . S
O132 In130 2.326 . S
O132 C140 1.252 . S
C133 O136 1.252 1_655 S
C133 O137 1.260 1_655 S
C134 O141 1.240 . S
C134 O142 1.252 . S
C135 O138 1.252 . S
C135 O139 1.260 . S
O136 In130 2.266 . S
O136 C133 1.252 1_455 S
O137 In130 2.326 . S
O137 C133 1.260 1_455 S
O138 In130 2.266 . S
O138 C135 1.252 . S
O139 In130 2.326 . S
O139 C135 1.260 . S
C140 O131 1.240 . S
C140 O132 1.252 . S
O141 In130 2.294 . S
O141 C134 1.240 . S
O142 In130 2.326 . S
O142 C134 1.252 . S
In143 O144 2.294 . S
In143 O145 2.326 . S
In143 O149 2.266 . S
In143 O150 2.326 . S
In143 O151 2.266 . S
In143 O152 2.326 . S
In143 O154 2.294 . S
In143 O155 2.326 . S
O144 In143 2.294 . S
O144 C153 1.240 . S
O145 In143 2.326 . S
O145 C153 1.252 . S
C146 O149 1.252 . S
C146 O150 1.260 . S
C147 O154 1.240 . S
C147 O155 1.252 . S
C148 O151 1.252 . S
C148 O152 1.260 . S
O149 In143 2.266 . S
O149 C146 1.252 . S
O150 In143 2.326 . S
O150 C146 1.260 . S
O151 In143 2.266 . S
O151 C148 1.252 . S
O152 In143 2.326 . S
O152 C148 1.260 . S
C153 O144 1.240 . S
C153 O145 1.252 . S
O154 In143 2.294 . S
O154 C147 1.240 . S
O155 In143 2.326 . S
O155 C147 1.252 . S
In156 O157 2.294 . S
In156 O158 2.326 . S
In156 O162 2.266 . S
In156 O163 2.326 . S
In156 O164 2.266 . S
In156 O165 2.326 . S
In156 O167 2.294 . S
In156 O168 2.326 . S
O157 In156 2.294 . S
O157 C166 1.240 . S
O158 In156 2.326 . S
O158 C166 1.252 . S
C159 O162 1.252 . S
C159 O163 1.260 . S
C160 O167 1.240 . S
C160 O168 1.252 . S
C161 O164 1.252 1_565 S
C161 O165 1.260 1_565 S
O162 In156 2.266 . S
O162 C159 1.252 . S
O163 In156 2.326 . S
O163 C159 1.260 . S
O164 In156 2.266 . S
O164 C161 1.252 1_545 S
O165 In156 2.326 . S
O165 C161 1.260 1_545 S
C166 O157 1.240 . S
C166 O158 1.252 . S
O167 In156 2.294 . S
O167 C160 1.240 . S
O168 In156 2.326 . S
O168 C160 1.252 . S
In169 O170 2.294 . S
In169 O171 2.326 . S
In169 O175 2.266 . S
In169 O176 2.326 . S
In169 O177 2.275 . S
In169 O178 2.326 . S
In169 O180 2.294 . S
In169 O181 2.326 . S
O170 In169 2.294 . S
O170 C179 1.240 . S
O171 In169 2.326 . S
O171 C179 1.252 . S
C172 O175 1.252 . S
C172 O176 1.260 . S
C173 O180 1.240 . S
C173 O181 1.252 . S
C174 O177 1.253 1_455 S
C174 O178 1.260 1_455 S
O175 In169 2.266 . S
O175 C172 1.252 . S
O176 In169 2.326 . S
O176 C172 1.260 . S
O177 In169 2.275 . S
O177 C174 1.253 1_655 S
O178 In169 2.326 . S
O178 C174 1.260 1_655 S
C179 O170 1.240 . S
C179 O171 1.252 . S
O180 In169 2.294 . S
O180 C173 1.240 . S
O181 In169 2.326 . S
O181 C173 1.252 . S
In182 O183 2.294 . S
In182 O184 2.326 . S
In182 O188 2.266 . S
In182 O189 2.326 . S
In182 O190 2.266 . S
In182 O191 2.326 . S
In182 O193 2.294 . S
In182 O194 2.326 . S
O183 In182 2.294 . S
O183 C192 1.240 . S
O184 In182 2.326 . S
O184 C192 1.252 . S
C185 O188 1.252 . S
C185 O189 1.260 . S
C186 O193 1.240 . S
C186 O194 1.252 . S
C187 O190 1.252 . S
C187 O191 1.260 . S
O188 In182 2.266 . S
O188 C185 1.252 . S
O189 In182 2.326 . S
O189 C185 1.260 . S
O190 In182 2.266 . S
O190 C187 1.252 . S
O191 In182 2.326 . S
O191 C187 1.260 . S
C192 O183 1.240 . S
C192 O184 1.252 . S
O193 In182 2.294 . S
O193 C186 1.240 . S
O194 In182 2.326 . S
O194 C186 1.252 . S
In195 O196 2.294 . S
In195 O197 2.326 . S
In195 O201 2.266 . S
In195 O202 2.326 . S
In195 O203 2.266 . S
In195 O204 2.326 . S
In195 O206 2.294 . S
In195 O207 2.326 . S
O196 In195 2.294 . S
O196 C205 1.240 . S
O197 In195 2.326 . S
O197 C205 1.252 . S
C198 O201 1.252 . S
C198 O202 1.260 . S
C199 O206 1.240 . S
C199 O207 1.252 . S
C200 O203 1.252 . S
C200 O204 1.260 . S
O201 In195 2.266 . S
O201 C198 1.252 . S
O202 In195 2.326 . S
O202 C198 1.260 . S
O203 In195 2.266 . S
O203 C200 1.252 . S
O204 In195 2.326 . S
O204 C200 1.260 . S
C205 O196 1.240 . S
C205 O197 1.252 . S
O206 In195 2.294 . S
O206 C199 1.240 . S
O207 In195 2.326 . S
O207 C199 1.252 . S
In208 O209 2.294 . S
In208 O210 2.326 . S
In208 O214 2.266 . S
In208 O215 2.326 . S
In208 O216 2.266 . S
In208 O217 2.326 . S
In208 O219 2.294 . S
In208 O220 2.326 . S
O209 In208 2.294 . S
O209 C218 1.240 . S
O210 In208 2.326 . S
O210 C218 1.252 . S
C211 O214 1.252 . S
C211 O215 1.260 . S
C212 O219 1.252 1_565 S
C212 O220 1.178 1_565 S
C213 O216 1.252 . S
C213 O217 1.260 . S
O214 In208 2.266 . S
O214 C211 1.252 . S
O215 In208 2.326 . S
O215 C211 1.260 . S
O216 In208 2.266 . S
O216 C213 1.252 . S
O217 In208 2.326 . S
O217 C213 1.260 . S
C218 O209 1.240 . S
C218 O210 1.252 . S
O219 In208 2.294 . S
O219 C212 1.252 1_545 S
O220 In208 2.326 . S
O220 C212 1.178 1_545 S
In221 O222 2.294 . S
In221 O223 2.326 . S
In221 O227 2.266 . S
In221 O228 2.326 . S
In221 O229 2.266 . S
In221 O230 2.326 . S
In221 O232 2.294 . S
In221 O233 2.326 . S
O222 In221 2.294 . S
O222 C231 1.240 . S
O223 In221 2.326 . S
O223 C231 1.252 . S
C224 O227 1.252 . S
C224 O228 1.260 . S
C225 O232 1.240 . S
C225 O233 1.252 . S
C226 O229 1.252 1_455 S
C226 O230 1.260 1_455 S
O227 In221 2.266 . S
O227 C224 1.252 . S
O228 In221 2.326 . S
O228 C224 1.260 . S
O229 In221 2.266 . S
O229 C226 1.252 1_655 S
O230 In221 2.326 . S
O230 C226 1.260 1_655 S
C231 O222 1.240 . S
C231 O223 1.252 . S
O232 In221 2.294 . S
O232 C225 1.240 . S
O233 In221 2.326 . S
O233 C225 1.252 . S
C234 C235 1.560 . S
C234 H295 0.959 . S
C234 H296 0.959 . S
C234 H297 0.960 . S
C235 C234 1.560 . S
C235 O290 1.426 . S
C235 H294 0.980 . S
C236 C237 1.407 . S
C236 C241 1.418 . S
C236 O290 1.334 . S
C237 C236 1.407 . S
C237 C238 1.360 . S
C237 H298 0.929 . S
C238 C237 1.360 . S
C238 C239 1.401 . S
C238 C242 1.527 . S
C239 C238 1.401 . S
C239 C240 1.405 . S
C239 C272 1.587 . S
C240 C239 1.405 . S
C240 C241 1.332 . S
C240 C243 1.496 . S
C241 C236 1.418 . S
C241 C240 1.332 . S
C241 H299 0.929 . S
C242 C238 1.527 . S
C242 H300 0.959 . S
C242 H301 0.961 . S
C242 H302 0.961 . S
C243 C240 1.496 . S
C243 H303 0.960 . S
C243 H304 0.960 . S
C243 H305 0.961 . S
C244 C245 1.517 . S
C244 H307 0.961 . S
C244 H308 0.960 . S
C244 H309 0.959 . S
C245 C244 1.517 . S
C245 O293 1.468 . S
C245 H306 0.980 . S
C246 C247 1.349 . S
C246 C251 1.367 . S
C246 O293 1.408 . S
C247 C246 1.349 . S
C247 C248 1.407 . S
C247 H310 0.930 . S
C248 C247 1.407 . S
C248 C249 1.449 . S
C248 C252 1.535 . S
C249 C248 1.449 . S
C249 C250 1.384 . S
C249 C274 1.553 . S
C250 C249 1.384 . S
C250 C251 1.364 . S
C250 C253 1.450 . S
C251 C246 1.367 . S
C251 C250 1.364 . S
C251 H311 0.931 . S
C252 C248 1.535 . S
C252 H312 0.959 . S
C252 H313 0.961 . S
C252 H314 0.959 . S
C253 C250 1.450 . S
C253 H315 0.960 . S
C253 H316 0.960 . S
C253 H317 0.960 . S
C254 C255 1.309 . S
C254 C259 1.304 . S
C254 O292 1.435 . S
C255 C254 1.309 . S
C255 C256 1.476 . S
C255 H319 0.930 . S
C256 C255 1.476 . S
C256 C257 1.400 . S
C256 C260 1.567 . S
C257 C256 1.400 . S
C257 C258 1.373 . S
C257 C279 1.432 . S
C258 C257 1.373 . S
C258 C259 1.339 . S
C258 C261 1.530 . S
C259 C254 1.304 . S
C259 C258 1.339 . S
C259 H320 0.930 . S
C260 C256 1.567 . S
C260 H321 0.961 . S
C260 H322 0.960 . S
C260 H323 0.958 . S
C261 C258 1.530 . S
C261 H324 0.961 . S
C261 H325 0.960 . S
C261 H326 0.960 . S
C262 C263 1.530 . S
C262 H328 0.961 . S
C262 H329 0.961 . S
C262 H330 0.959 . S
C263 C262 1.530 . S
C263 O291 1.412 . S
C263 H327 0.980 . S
C264 C265 1.288 . S
C264 C269 1.377 . S
C264 O291 1.393 . S
C265 C264 1.288 . S
C265 C266 1.369 . S
C265 H331 0.932 . S
C266 C265 1.369 . S
C266 C267 1.398 . S
C266 C270 1.527 . S
C267 C266 1.398 . S
C267 C268 1.380 . S
C267 C281 1.497 . S
C268 C267 1.380 . S
C268 C269 1.383 . S
C268 C271 1.603 . S
C269 C264 1.377 . S
C269 C268 1.383 . S
C269 H332 0.929 . S
C270 C266 1.527 . S
C270 H333 0.961 . S
C270 H334 0.959 . S
C270 H335 0.959 . S
C271 C268 1.603 . S
C271 H336 0.960 . S
C271 H337 0.962 . S
C271 H338 0.961 . S
C272 C239 1.587 . S
C272 C273 1.360 . S
C272 C285 1.412 . S
C273 C272 1.360 . S
C273 C274 1.365 . S
C273 H339 0.929 . S
C274 C249 1.553 . S
C274 C273 1.365 . S
C274 C275 1.404 . S
C275 C274 1.404 . S
C275 C276 1.395 . S
C275 C286 1.451 . S
C276 C275 1.395 . S
C276 C277 1.322 . S
C276 H340 0.930 . S
C277 C276 1.322 . S
C277 C278 1.459 . S
C277 H341 0.929 . S
C278 C277 1.459 . S
C278 C279 1.445 . S
C278 C287 1.395 . S
C279 C257 1.432 . S
C279 C278 1.445 . S
C279 C280 1.370 . S
C280 C279 1.370 . S
C280 C281 1.438 . S
C280 H342 0.930 . S
C281 C267 1.497 . S
C281 C280 1.438 . S
C281 C282 1.360 . S
C282 C281 1.360 . S
C282 C283 1.401 . S
C282 C287 1.446 . S
C283 C282 1.401 . S
C283 C284 1.347 . S
C283 H343 0.929 . S
C284 C283 1.347 . S
C284 C285 1.455 . S
C284 H344 0.930 . S
C285 C272 1.412 . S
C285 C284 1.455 . S
C285 C286 1.331 . S
C286 C275 1.451 . S
C286 C285 1.331 . S
C286 C287 1.497 . S
C287 C278 1.395 . S
C287 C282 1.446 . S
C287 C286 1.497 . S
C288 C289 1.582 . S
C288 H345 0.962 . S
C288 H346 0.959 . S
C288 H347 0.958 . S
C289 C288 1.582 . S
C289 O292 1.458 . S
C289 H318 0.980 . S
O290 C235 1.426 . S
O290 C236 1.334 . S
O291 C263 1.412 . S
O291 C264 1.393 . S
O292 C254 1.435 . S
O292 C289 1.458 . S
O293 C245 1.468 . S
O293 C246 1.408 . S
H294 C235 0.980 . S
H295 C234 0.959 . S
H296 C234 0.959 . S
H297 C234 0.960 . S
H298 C237 0.929 . S
H299 C241 0.929 . S
H300 C242 0.959 . S
H301 C242 0.961 . S
H302 C242 0.961 . S
H303 C243 0.960 . S
H304 C243 0.960 . S
H305 C243 0.961 . S
H306 C245 0.980 . S
H307 C244 0.961 . S
H308 C244 0.960 . S
H309 C244 0.959 . S
H310 C247 0.930 . S
H311 C251 0.931 . S
H312 C252 0.959 . S
H313 C252 0.961 . S
H314 C252 0.959 . S
H315 C253 0.960 . S
H316 C253 0.960 . S
H317 C253 0.960 . S
H318 C289 0.980 . S
H319 C255 0.930 . S
H320 C259 0.930 . S
H321 C260 0.961 . S
H322 C260 0.960 . S
H323 C260 0.958 . S
H324 C261 0.961 . S
H325 C261 0.960 . S
H326 C261 0.960 . S
H327 C263 0.980 . S
H328 C262 0.961 . S
H329 C262 0.961 . S
H330 C262 0.959 . S
H331 C265 0.932 . S
H332 C269 0.929 . S
H333 C270 0.961 . S
H334 C270 0.959 . S
H335 C270 0.959 . S
H336 C271 0.960 . S
H337 C271 0.962 . S
H338 C271 0.961 . S
H339 C273 0.929 . S
H340 C276 0.930 . S
H341 C277 0.929 . S
H342 C280 0.930 . S
H343 C283 0.929 . S
H344 C284 0.930 . S
H345 C288 0.962 . S
H346 C288 0.959 . S
H347 C288 0.958 . S
C348 C349 1.560 . S
C348 H409 0.959 . S
C348 H410 0.959 . S
C348 H411 0.960 . S
C349 C348 1.560 . S
C349 O404 1.426 . S
C349 H408 0.980 . S
C350 C351 1.407 . S
C350 C355 1.418 . S
C350 O404 1.334 . S
C351 C350 1.407 . S
C351 C352 1.360 . S
C351 H412 0.929 . S
C352 C351 1.360 . S
C352 C353 1.401 . S
C352 C356 1.527 . S
C353 C352 1.401 . S
C353 C354 1.405 . S
C353 C386 1.587 . S
C354 C353 1.405 . S
C354 C355 1.332 . S
C354 C357 1.496 . S
C355 C350 1.418 . S
C355 C354 1.332 . S
C355 H413 0.929 . S
C356 C352 1.527 . S
C356 H414 0.959 . S
C356 H415 0.961 . S
C356 H416 0.961 . S
C357 C354 1.496 . S
C357 H417 0.960 . S
C357 H418 0.960 . S
C357 H419 0.961 . S
C358 C359 1.517 . S
C358 H421 0.961 . S
C358 H422 0.960 . S
C358 H423 0.959 . S
C359 C358 1.517 . S
C359 O407 1.468 . S
C359 H420 0.980 . S
C360 C361 1.349 . S
C360 C365 1.367 . S
C360 O407 1.408 . S
C361 C360 1.349 . S
C361 C362 1.407 . S
C361 H424 0.930 . S
C362 C361 1.407 . S
C362 C363 1.449 . S
C362 C366 1.535 . S
C363 C362 1.449 . S
C363 C364 1.384 . S
C363 C388 1.553 . S
C364 C363 1.384 . S
C364 C365 1.364 . S
C364 C367 1.450 . S
C365 C360 1.367 . S
C365 C364 1.364 . S
C365 H425 0.931 . S
C366 C362 1.535 . S
C366 H426 0.959 . S
C366 H427 0.961 . S
C366 H428 0.959 . S
C367 C364 1.450 . S
C367 H429 0.960 . S
C367 H430 0.960 . S
C367 H431 0.960 . S
C368 C369 1.309 . S
C368 C373 1.304 . S
C368 O406 1.435 . S
C369 C368 1.309 . S
C369 C370 1.476 . S
C369 H433 0.930 . S
C370 C369 1.476 . S
C370 C371 1.400 . S
C370 C374 1.567 . S
C371 C370 1.400 . S
C371 C372 1.373 . S
C371 C393 1.432 . S
C372 C371 1.373 . S
C372 C373 1.339 . S
C372 C375 1.530 . S
C373 C368 1.304 . S
C373 C372 1.339 . S
C373 H434 0.930 . S
C374 C370 1.567 . S
C374 H435 0.961 . S
C374 H436 0.960 . S
C374 H437 0.958 . S
C375 C372 1.530 . S
C375 H438 0.961 . S
C375 H439 0.960 . S
C375 H440 0.960 . S
C376 C377 1.530 . S
C376 H442 0.961 . S
C376 H443 0.961 . S
C376 H444 0.959 . S
C377 C376 1.530 . S
C377 O405 1.412 . S
C377 H441 0.980 . S
C378 C379 1.288 . S
C378 C383 1.377 . S
C378 O405 1.393 . S
C379 C378 1.288 . S
C379 C380 1.369 . S
C379 H445 0.932 . S
C380 C379 1.369 . S
C380 C381 1.398 . S
C380 C384 1.527 . S
C381 C380 1.398 . S
C381 C382 1.380 . S
C381 C395 1.497 . S
C382 C381 1.380 . S
C382 C383 1.383 . S
C382 C385 1.603 . S
C383 C378 1.377 . S
C383 C382 1.383 . S
C383 H446 0.929 . S
C384 C380 1.527 . S
C384 H447 0.961 . S
C384 H448 0.959 . S
C384 H449 0.959 . S
C385 C382 1.603 . S
C385 H450 0.960 . S
C385 H451 0.962 . S
C385 H452 0.961 . S
C386 C353 1.587 . S
C386 C387 1.360 . S
C386 C399 1.412 . S
C387 C386 1.360 . S
C387 C388 1.365 . S
C387 H453 0.929 . S
C388 C363 1.553 . S
C388 C387 1.365 . S
C388 C389 1.404 . S
C389 C388 1.404 . S
C389 C390 1.395 . S
C389 C400 1.451 . S
C390 C389 1.395 . S
C390 C391 1.322 . S
C390 H454 0.930 . S
C391 C390 1.322 . S
C391 C392 1.459 . S
C391 H455 0.929 . S
C392 C391 1.459 . S
C392 C393 1.445 . S
C392 C401 1.395 . S
C393 C371 1.432 . S
C393 C392 1.445 . S
C393 C394 1.370 . S
C394 C393 1.370 . S
C394 C395 1.438 . S
C394 H456 0.930 . S
C395 C381 1.497 . S
C395 C394 1.438 . S
C395 C396 1.360 . S
C396 C395 1.360 . S
C396 C397 1.401 . S
C396 C401 1.446 . S
C397 C396 1.401 . S
C397 C398 1.347 . S
C397 H457 0.929 . S
C398 C397 1.347 . S
C398 C399 1.455 . S
C398 H458 0.930 . S
C399 C386 1.412 . S
C399 C398 1.455 . S
C399 C400 1.331 . S
C400 C389 1.451 . S
C400 C399 1.331 . S
C400 C401 1.497 . S
C401 C392 1.395 . S
C401 C396 1.446 . S
C401 C400 1.497 . S
C402 C403 1.582 . S
C402 H459 0.962 . S
C402 H460 0.959 . S
C402 H461 0.958 . S
C403 C402 1.582 . S
C403 O406 1.458 . S
C403 H432 0.980 . S
O404 C349 1.426 . S
O404 C350 1.334 . S
O405 C377 1.412 . S
O405 C378 1.393 . S
O406 C368 1.435 . S
O406 C403 1.458 . S
O407 C359 1.468 . S
O407 C360 1.408 . S
H408 C349 0.980 . S
H409 C348 0.959 . S
H410 C348 0.959 . S
H411 C348 0.960 . S
H412 C351 0.929 . S
H413 C355 0.929 . S
H414 C356 0.959 . S
H415 C356 0.961 . S
H416 C356 0.961 . S
H417 C357 0.960 . S
H418 C357 0.960 . S
H419 C357 0.961 . S
H420 C359 0.980 . S
H421 C358 0.961 . S
H422 C358 0.960 . S
H423 C358 0.959 . S
H424 C361 0.930 . S
H425 C365 0.931 . S
H426 C366 0.959 . S
H427 C366 0.961 . S
H428 C366 0.959 . S
H429 C367 0.960 . S
H430 C367 0.960 . S
H431 C367 0.960 . S
H432 C403 0.980 . S
H433 C369 0.930 . S
H434 C373 0.930 . S
H435 C374 0.961 . S
H436 C374 0.960 . S
H437 C374 0.958 . S
H438 C375 0.961 . S
H439 C375 0.960 . S
H440 C375 0.960 . S
H441 C377 0.980 . S
H442 C376 0.961 . S
H443 C376 0.961 . S
H444 C376 0.959 . S
H445 C379 0.932 . S
H446 C383 0.929 . S
H447 C384 0.961 . S
H448 C384 0.959 . S
H449 C384 0.959 . S
H450 C385 0.960 . S
H451 C385 0.962 . S
H452 C385 0.961 . S
H453 C387 0.929 . S
H454 C390 0.930 . S
H455 C391 0.929 . S
H456 C394 0.930 . S
H457 C397 0.929 . S
H458 C398 0.930 . S
H459 C402 0.962 . S
H460 C402 0.959 . S
H461 C402 0.958 . S
C462 C463 1.560 . S
C462 H523 0.959 . S
C462 H524 0.959 . S
C462 H525 0.960 . S
C463 C462 1.560 . S
C463 O518 1.426 . S
C463 H522 0.980 . S
C464 C465 1.407 . S
C464 C469 1.418 . S
C464 O518 1.334 . S
C465 C464 1.407 . S
C465 C466 1.360 . S
C465 H526 0.929 . S
C466 C465 1.360 . S
C466 C467 1.401 . S
C466 C470 1.527 . S
C467 C466 1.401 . S
C467 C468 1.405 . S
C467 C500 1.587 . S
C468 C467 1.405 . S
C468 C469 1.332 . S
C468 C471 1.496 . S
C469 C464 1.418 . S
C469 C468 1.332 . S
C469 H527 0.929 . S
C470 C466 1.527 . S
C470 H528 0.959 . S
C470 H529 0.961 . S
C470 H530 0.961 . S
C471 C468 1.496 . S
C471 H531 0.960 . S
C471 H532 0.960 . S
C471 H533 0.961 . S
C472 C473 1.517 . S
C472 H535 0.961 . S
C472 H536 0.960 . S
C472 H537 0.959 . S
C473 C472 1.517 . S
C473 O521 1.468 . S
C473 H534 0.980 . S
C474 C475 1.349 . S
C474 C479 1.367 . S
C474 O521 1.408 . S
C475 C474 1.349 . S
C475 C476 1.407 . S
C475 H538 0.930 . S
C476 C475 1.407 . S
C476 C477 1.449 . S
C476 C480 1.535 . S
C477 C476 1.449 . S
C477 C478 1.384 . S
C477 C502 1.553 . S
C478 C477 1.384 . S
C478 C479 1.364 . S
C478 C481 1.450 . S
C479 C474 1.367 . S
C479 C478 1.364 . S
C479 H539 0.931 . S
C480 C476 1.535 . S
C480 H540 0.959 . S
C480 H541 0.961 . S
C480 H542 0.959 . S
C481 C478 1.450 . S
C481 H543 0.960 . S
C481 H544 0.960 . S
C481 H545 0.960 . S
C482 C483 1.309 . S
C482 C487 1.304 . S
C482 O520 1.435 . S
C483 C482 1.309 . S
C483 C484 1.476 . S
C483 H547 0.930 . S
C484 C483 1.476 . S
C484 C485 1.400 . S
C484 C488 1.567 . S
C485 C484 1.400 . S
C485 C486 1.373 . S
C485 C507 1.432 . S
C486 C485 1.373 . S
C486 C487 1.339 . S
C486 C489 1.530 . S
C487 C482 1.304 . S
C487 C486 1.339 . S
C487 H548 0.930 . S
C488 C484 1.567 . S
C488 H549 0.961 . S
C488 H550 0.960 . S
C488 H551 0.958 . S
C489 C486 1.530 . S
C489 H552 0.961 . S
C489 H553 0.960 . S
C489 H554 0.960 . S
C490 C491 1.530 . S
C490 H556 0.961 . S
C490 H557 0.961 . S
C490 H558 0.959 . S
C491 C490 1.530 . S
C491 O519 1.412 . S
C491 H555 0.980 . S
C492 C493 1.288 . S
C492 C497 1.377 . S
C492 O519 1.393 . S
C493 C492 1.288 . S
C493 C494 1.369 . S
C493 H559 0.932 . S
C494 C493 1.369 . S
C494 C495 1.398 . S
C494 C498 1.527 . S
C495 C494 1.398 . S
C495 C496 1.380 . S
C495 C509 1.497 . S
C496 C495 1.380 . S
C496 C497 1.383 . S
C496 C499 1.603 . S
C497 C492 1.377 . S
C497 C496 1.383 . S
C497 H560 0.929 . S
C498 C494 1.527 . S
C498 H561 0.961 . S
C498 H562 0.959 . S
C498 H563 0.959 . S
C499 C496 1.603 . S
C499 H564 0.960 . S
C499 H565 0.962 . S
C499 H566 0.961 . S
C500 C467 1.587 . S
C500 C501 1.360 . S
C500 C513 1.412 . S
C501 C500 1.360 . S
C501 C502 1.365 . S
C501 H567 0.929 . S
C502 C477 1.553 . S
C502 C501 1.365 . S
C502 C503 1.404 . S
C503 C502 1.404 . S
C503 C504 1.395 . S
C503 C514 1.451 . S
C504 C503 1.395 . S
C504 C505 1.322 . S
C504 H568 0.930 . S
C505 C504 1.322 . S
C505 C506 1.459 . S
C505 H569 0.929 . S
C506 C505 1.459 . S
C506 C507 1.445 . S
C506 C515 1.395 . S
C507 C485 1.432 . S
C507 C506 1.445 . S
C507 C508 1.370 . S
C508 C507 1.370 . S
C508 C509 1.438 . S
C508 H570 0.930 . S
C509 C495 1.497 . S
C509 C508 1.438 . S
C509 C510 1.360 . S
C510 C509 1.360 . S
C510 C511 1.401 . S
C510 C515 1.446 . S
C511 C510 1.401 . S
C511 C512 1.347 . S
C511 H571 0.929 . S
C512 C511 1.347 . S
C512 C513 1.455 . S
C512 H572 0.930 . S
C513 C500 1.412 . S
C513 C512 1.455 . S
C513 C514 1.331 . S
C514 C503 1.451 . S
C514 C513 1.331 . S
C514 C515 1.497 . S
C515 C506 1.395 . S
C515 C510 1.446 . S
C515 C514 1.497 . S
C516 C517 1.582 . S
C516 H573 0.962 . S
C516 H574 0.959 . S
C516 H575 0.958 . S
C517 C516 1.582 . S
C517 O520 1.458 . S
C517 H546 0.980 . S
O518 C463 1.426 . S
O518 C464 1.334 . S
O519 C491 1.412 . S
O519 C492 1.393 . S
O520 C482 1.435 . S
O520 C517 1.458 . S
O521 C473 1.468 . S
O521 C474 1.408 . S
H522 C463 0.980 . S
H523 C462 0.959 . S
H524 C462 0.959 . S
H525 C462 0.960 . S
H526 C465 0.929 . S
H527 C469 0.929 . S
H528 C470 0.959 . S
H529 C470 0.961 . S
H530 C470 0.961 . S
H531 C471 0.960 . S
H532 C471 0.960 . S
H533 C471 0.961 . S
H534 C473 0.980 . S
H535 C472 0.961 . S
H536 C472 0.960 . S
H537 C472 0.959 . S
H538 C475 0.930 . S
H539 C479 0.931 . S
H540 C480 0.959 . S
H541 C480 0.961 . S
H542 C480 0.959 . S
H543 C481 0.960 . S
H544 C481 0.960 . S
H545 C481 0.960 . S
H546 C517 0.980 . S
H547 C483 0.930 . S
H548 C487 0.930 . S
H549 C488 0.961 . S
H550 C488 0.960 . S
H551 C488 0.958 . S
H552 C489 0.961 . S
H553 C489 0.960 . S
H554 C489 0.960 . S
H555 C491 0.980 . S
H556 C490 0.961 . S
H557 C490 0.961 . S
H558 C490 0.959 . S
H559 C493 0.932 . S
H560 C497 0.929 . S
H561 C498 0.961 . S
H562 C498 0.959 . S
H563 C498 0.959 . S
H564 C499 0.960 . S
H565 C499 0.962 . S
H566 C499 0.961 . S
H567 C501 0.929 . S
H568 C504 0.930 . S
H569 C505 0.929 . S
H570 C508 0.930 . S
H571 C511 0.929 . S
H572 C512 0.930 . S
H573 C516 0.962 . S
H574 C516 0.959 . S
H575 C516 0.958 . S
C576 C577 1.560 . S
C576 H637 0.959 . S
C576 H638 0.959 . S
C576 H639 0.960 . S
C577 C576 1.560 . S
C577 O632 1.426 . S
C577 H636 0.980 . S
C578 C579 1.407 . S
C578 C583 1.418 . S
C578 O632 1.334 . S
C579 C578 1.407 . S
C579 C580 1.360 . S
C579 H640 0.929 . S
C580 C579 1.360 . S
C580 C581 1.401 . S
C580 C584 1.527 . S
C581 C580 1.401 . S
C581 C582 1.405 . S
C581 C614 1.587 . S
C582 C581 1.405 . S
C582 C583 1.332 . S
C582 C585 1.496 . S
C583 C578 1.418 . S
C583 C582 1.332 . S
C583 H641 0.929 . S
C584 C580 1.527 . S
C584 H642 0.959 . S
C584 H643 0.961 . S
C584 H644 0.961 . S
C585 C582 1.496 . S
C585 H645 0.960 . S
C585 H646 0.960 . S
C585 H647 0.961 . S
C586 C587 1.517 . S
C586 H649 0.961 . S
C586 H650 0.960 . S
C586 H651 0.959 . S
C587 C586 1.517 . S
C587 O635 1.468 . S
C587 H648 0.980 . S
C588 C589 1.349 . S
C588 C593 1.367 . S
C588 O635 1.408 . S
C589 C588 1.349 . S
C589 C590 1.407 . S
C589 H652 0.930 . S
C590 C589 1.407 . S
C590 C591 1.449 . S
C590 C594 1.535 . S
C591 C590 1.449 . S
C591 C592 1.384 . S
C591 C616 1.553 . S
C592 C591 1.384 . S
C592 C593 1.364 . S
C592 C595 1.450 . S
C593 C588 1.367 . S
C593 C592 1.364 . S
C593 H653 0.931 . S
C594 C590 1.535 . S
C594 H654 0.959 . S
C594 H655 0.961 . S
C594 H656 0.959 . S
C595 C592 1.450 . S
C595 H657 0.960 . S
C595 H658 0.960 . S
C595 H659 0.960 . S
C596 C597 1.309 . S
C596 C601 1.304 . S
C596 O634 1.435 . S
C597 C596 1.309 . S
C597 C598 1.476 . S
C597 H661 0.930 . S
C598 C597 1.476 . S
C598 C599 1.400 . S
C598 C602 1.567 . S
C599 C598 1.400 . S
C599 C600 1.373 . S
C599 C621 1.432 . S
C600 C599 1.373 . S
C600 C601 1.339 . S
C600 C603 1.530 . S
C601 C596 1.304 . S
C601 C600 1.339 . S
C601 H662 0.930 . S
C602 C598 1.567 . S
C602 H663 0.961 . S
C602 H664 0.960 . S
C602 H665 0.958 . S
C603 C600 1.530 . S
C603 H666 0.961 . S
C603 H667 0.960 . S
C603 H668 0.960 . S
C604 C605 1.530 . S
C604 H670 0.961 . S
C604 H671 0.961 . S
C604 H672 0.959 . S
C605 C604 1.530 . S
C605 O633 1.412 . S
C605 H669 0.980 . S
C606 C607 1.288 . S
C606 C611 1.377 . S
C606 O633 1.393 . S
C607 C606 1.288 . S
C607 C608 1.369 . S
C607 H673 0.932 . S
C608 C607 1.369 . S
C608 C609 1.398 . S
C608 C612 1.527 . S
C609 C608 1.398 . S
C609 C610 1.380 . S
C609 C623 1.497 . S
C610 C609 1.380 . S
C610 C611 1.383 . S
C610 C613 1.603 . S
C611 C606 1.377 . S
C611 C610 1.383 . S
C611 H674 0.929 . S
C612 C608 1.527 . S
C612 H675 0.961 . S
C612 H676 0.959 . S
C612 H677 0.959 . S
C613 C610 1.603 . S
C613 H678 0.960 . S
C613 H679 0.962 . S
C613 H680 0.961 . S
C614 C581 1.587 . S
C614 C615 1.360 . S
C614 C627 1.412 . S
C615 C614 1.360 . S
C615 C616 1.365 . S
C615 H681 0.929 . S
C616 C591 1.553 . S
C616 C615 1.365 . S
C616 C617 1.404 . S
C617 C616 1.404 . S
C617 C618 1.395 . S
C617 C628 1.451 . S
C618 C617 1.395 . S
C618 C619 1.322 . S
C618 H682 0.930 . S
C619 C618 1.322 . S
C619 C620 1.459 . S
C619 H683 0.929 . S
C620 C619 1.459 . S
C620 C621 1.445 . S
C620 C629 1.395 . S
C621 C599 1.432 . S
C621 C620 1.445 . S
C621 C622 1.370 . S
C622 C621 1.370 . S
C622 C623 1.438 . S
C622 H684 0.930 . S
C623 C609 1.497 . S
C623 C622 1.438 . S
C623 C624 1.360 . S
C624 C623 1.360 . S
C624 C625 1.401 . S
C624 C629 1.446 . S
C625 C624 1.401 . S
C625 C626 1.347 . S
C625 H685 0.929 . S
C626 C625 1.347 . S
C626 C627 1.455 . S
C626 H686 0.930 . S
C627 C614 1.412 . S
C627 C626 1.455 . S
C627 C628 1.331 . S
C628 C617 1.451 . S
C628 C627 1.331 . S
C628 C629 1.497 . S
C629 C620 1.395 . S
C629 C624 1.446 . S
C629 C628 1.497 . S
C630 C631 1.582 . S
C630 H687 0.962 . S
C630 H688 0.959 . S
C630 H689 0.958 . S
C631 C630 1.582 . S
C631 O634 1.458 . S
C631 H660 0.980 . S
O632 C577 1.426 . S
O632 C578 1.334 . S
O633 C605 1.412 . S
O633 C606 1.393 . S
O634 C596 1.435 . S
O634 C631 1.458 . S
O635 C587 1.468 . S
O635 C588 1.408 . S
H636 C577 0.980 . S
H637 C576 0.959 . S
H638 C576 0.959 . S
H639 C576 0.960 . S
H640 C579 0.929 . S
H641 C583 0.929 . S
H642 C584 0.959 . S
H643 C584 0.961 . S
H644 C584 0.961 . S
H645 C585 0.960 . S
H646 C585 0.960 . S
H647 C585 0.961 . S
H648 C587 0.980 . S
H649 C586 0.961 . S
H650 C586 0.960 . S
H651 C586 0.959 . S
H652 C589 0.930 . S
H653 C593 0.931 . S
H654 C594 0.959 . S
H655 C594 0.961 . S
H656 C594 0.959 . S
H657 C595 0.960 . S
H658 C595 0.960 . S
H659 C595 0.960 . S
H660 C631 0.980 . S
H661 C597 0.930 . S
H662 C601 0.930 . S
H663 C602 0.961 . S
H664 C602 0.960 . S
H665 C602 0.958 . S
H666 C603 0.961 . S
H667 C603 0.960 . S
H668 C603 0.960 . S
H669 C605 0.980 . S
H670 C604 0.961 . S
H671 C604 0.961 . S
H672 C604 0.959 . S
H673 C607 0.932 . S
H674 C611 0.929 . S
H675 C612 0.961 . S
H676 C612 0.959 . S
H677 C612 0.959 . S
H678 C613 0.960 . S
H679 C613 0.962 . S
H680 C613 0.961 . S
H681 C615 0.929 . S
H682 C618 0.930 . S
H683 C619 0.929 . S
H684 C622 0.930 . S
H685 C625 0.929 . S
H686 C626 0.930 . S
H687 C630 0.962 . S
H688 C630 0.959 . S
H689 C630 0.958 . S
C690 C691 1.560 . S
C690 H751 0.959 . S
C690 H752 0.959 . S
C690 H753 0.960 . S
C691 C690 1.560 . S
C691 O746 1.426 . S
C691 H750 0.980 . S
C692 C693 1.407 . S
C692 C697 1.418 . S
C692 O746 1.334 . S
C693 C692 1.407 . S
C693 C694 1.360 . S
C693 H754 0.929 . S
C694 C693 1.360 . S
C694 C695 1.401 . S
C694 C698 1.527 . S
C695 C694 1.401 . S
C695 C696 1.405 . S
C695 C728 1.587 . S
C696 C695 1.405 . S
C696 C697 1.332 . S
C696 C699 1.496 . S
C697 C692 1.418 . S
C697 C696 1.332 . S
C697 H755 0.929 . S
C698 C694 1.527 . S
C698 H756 0.959 . S
C698 H757 0.961 . S
C698 H758 0.961 . S
C699 C696 1.496 . S
C699 H759 0.960 . S
C699 H760 0.960 . S
C699 H761 0.961 . S
C700 C701 1.517 . S
C700 H763 0.961 . S
C700 H764 0.960 . S
C700 H765 0.959 . S
C701 C700 1.517 . S
C701 O749 1.468 . S
C701 H762 0.980 . S
C702 C703 1.349 . S
C702 C707 1.367 . S
C702 O749 1.408 . S
C703 C702 1.349 . S
C703 C704 1.407 . S
C703 H766 0.930 . S
C704 C703 1.407 . S
C704 C705 1.449 . S
C704 C708 1.535 . S
C705 C704 1.449 . S
C705 C706 1.384 . S
C705 C730 1.553 . S
C706 C705 1.384 . S
C706 C707 1.364 . S
C706 C709 1.450 . S
C707 C702 1.367 . S
C707 C706 1.364 . S
C707 H767 0.931 . S
C708 C704 1.535 . S
C708 H768 0.959 . S
C708 H769 0.961 . S
C708 H770 0.959 . S
C709 C706 1.450 . S
C709 H771 0.960 . S
C709 H772 0.960 . S
C709 H773 0.960 . S
C710 C711 1.309 . S
C710 C715 1.304 . S
C710 O748 1.435 . S
C711 C710 1.309 . S
C711 C712 1.476 . S
C711 H775 0.930 . S
C712 C711 1.476 . S
C712 C713 1.400 . S
C712 C716 1.567 . S
C713 C712 1.400 . S
C713 C714 1.373 . S
C713 C735 1.432 . S
C714 C713 1.373 . S
C714 C715 1.339 . S
C714 C717 1.530 . S
C715 C710 1.304 . S
C715 C714 1.339 . S
C715 H776 0.930 . S
C716 C712 1.567 . S
C716 H777 0.961 . S
C716 H778 0.960 . S
C716 H779 0.958 . S
C717 C714 1.530 . S
C717 H780 0.961 . S
C717 H781 0.960 . S
C717 H782 0.960 . S
C718 C719 1.530 . S
C718 H784 0.961 . S
C718 H785 0.961 . S
C718 H786 0.959 . S
C719 C718 1.530 . S
C719 O747 1.412 . S
C719 H783 0.980 . S
C720 C721 1.288 . S
C720 C725 1.377 . S
C720 O747 1.393 . S
C721 C720 1.288 . S
C721 C722 1.369 . S
C721 H787 0.932 . S
C722 C721 1.369 . S
C722 C723 1.398 . S
C722 C726 1.527 . S
C723 C722 1.398 . S
C723 C724 1.380 . S
C723 C737 1.497 . S
C724 C723 1.380 . S
C724 C725 1.383 . S
C724 C727 1.603 . S
C725 C720 1.377 . S
C725 C724 1.383 . S
C725 H788 0.929 . S
C726 C722 1.527 . S
C726 H789 0.961 . S
C726 H790 0.959 . S
C726 H791 0.959 . S
C727 C724 1.603 . S
C727 H792 0.960 . S
C727 H793 0.962 . S
C727 H794 0.961 . S
C728 C695 1.587 . S
C728 C729 1.360 . S
C728 C741 1.412 . S
C729 C728 1.360 . S
C729 C730 1.365 . S
C729 H795 0.929 . S
C730 C705 1.553 . S
C730 C729 1.365 . S
C730 C731 1.404 . S
C731 C730 1.404 . S
C731 C732 1.395 . S
C731 C742 1.451 . S
C732 C731 1.395 . S
C732 C733 1.322 . S
C732 H796 0.930 . S
C733 C732 1.322 . S
C733 C734 1.459 . S
C733 H797 0.929 . S
C734 C733 1.459 . S
C734 C735 1.445 . S
C734 C743 1.395 . S
C735 C713 1.432 . S
C735 C734 1.445 . S
C735 C736 1.370 . S
C736 C735 1.370 . S
C736 C737 1.438 . S
C736 H798 0.930 . S
C737 C723 1.497 . S
C737 C736 1.438 . S
C737 C738 1.360 . S
C738 C737 1.360 . S
C738 C739 1.401 . S
C738 C743 1.446 . S
C739 C738 1.401 . S
C739 C740 1.347 . S
C739 H799 0.929 . S
C740 C739 1.347 . S
C740 C741 1.455 . S
C740 H800 0.930 . S
C741 C728 1.412 . S
C741 C740 1.455 . S
C741 C742 1.331 . S
C742 C731 1.451 . S
C742 C741 1.331 . S
C742 C743 1.497 . S
C743 C734 1.395 . S
C743 C738 1.446 . S
C743 C742 1.497 . S
C744 C745 1.582 . S
C744 H801 0.962 . S
C744 H802 0.959 . S
C744 H803 0.958 . S
C745 C744 1.582 . S
C745 O748 1.458 . S
C745 H774 0.980 . S
O746 C691 1.426 . S
O746 C692 1.334 . S
O747 C719 1.412 . S
O747 C720 1.393 . S
O748 C710 1.435 . S
O748 C745 1.458 . S
O749 C701 1.468 . S
O749 C702 1.408 . S
H750 C691 0.980 . S
H751 C690 0.959 . S
H752 C690 0.959 . S
H753 C690 0.960 . S
H754 C693 0.929 . S
H755 C697 0.929 . S
H756 C698 0.959 . S
H757 C698 0.961 . S
H758 C698 0.961 . S
H759 C699 0.960 . S
H760 C699 0.960 . S
H761 C699 0.961 . S
H762 C701 0.980 . S
H763 C700 0.961 . S
H764 C700 0.960 . S
H765 C700 0.959 . S
H766 C703 0.930 . S
H767 C707 0.931 . S
H768 C708 0.959 . S
H769 C708 0.961 . S
H770 C708 0.959 . S
H771 C709 0.960 . S
H772 C709 0.960 . S
H773 C709 0.960 . S
H774 C745 0.980 . S
H775 C711 0.930 . S
H776 C715 0.930 . S
H777 C716 0.961 . S
H778 C716 0.960 . S
H779 C716 0.958 . S
H780 C717 0.961 . S
H781 C717 0.960 . S
H782 C717 0.960 . S
H783 C719 0.980 . S
H784 C718 0.961 . S
H785 C718 0.961 . S
H786 C718 0.959 . S
H787 C721 0.932 . S
H788 C725 0.929 . S
H789 C726 0.961 . S
H790 C726 0.959 . S
H791 C726 0.959 . S
H792 C727 0.960 . S
H793 C727 0.962 . S
H794 C727 0.961 . S
H795 C729 0.929 . S
H796 C732 0.930 . S
H797 C733 0.929 . S
H798 C736 0.930 . S
H799 C739 0.929 . S
H800 C740 0.930 . S
H801 C744 0.962 . S
H802 C744 0.959 . S
H803 C744 0.958 . S
C804 C805 1.560 . S
C804 H865 0.959 . S
C804 H866 0.959 . S
C804 H867 0.960 . S
C805 C804 1.560 . S
C805 O860 1.426 . S
C805 H864 0.980 . S
C806 C807 1.407 . S
C806 C811 1.418 . S
C806 O860 1.334 . S
C807 C806 1.407 . S
C807 C808 1.360 . S
C807 H868 0.929 . S
C808 C807 1.360 . S
C808 C809 1.401 . S
C808 C812 1.527 . S
C809 C808 1.401 . S
C809 C810 1.405 . S
C809 C842 1.587 . S
C810 C809 1.405 . S
C810 C811 1.332 . S
C810 C813 1.496 . S
C811 C806 1.418 . S
C811 C810 1.332 . S
C811 H869 0.929 . S
C812 C808 1.527 . S
C812 H870 0.959 . S
C812 H871 0.961 . S
C812 H872 0.961 . S
C813 C810 1.496 . S
C813 H873 0.960 . S
C813 H874 0.960 . S
C813 H875 0.961 . S
C814 C815 1.517 . S
C814 H877 0.961 . S
C814 H878 0.960 . S
C814 H879 0.959 . S
C815 C814 1.517 . S
C815 O863 1.468 . S
C815 H876 0.980 . S
C816 C817 1.349 . S
C816 C821 1.367 . S
C816 O863 1.408 . S
C817 C816 1.349 . S
C817 C818 1.407 . S
C817 H880 0.930 . S
C818 C817 1.407 . S
C818 C819 1.449 . S
C818 C822 1.535 . S
C819 C818 1.449 . S
C819 C820 1.384 . S
C819 C844 1.553 . S
C820 C819 1.384 . S
C820 C821 1.364 . S
C820 C823 1.450 . S
C821 C816 1.367 . S
C821 C820 1.364 . S
C821 H881 0.931 . S
C822 C818 1.535 . S
C822 H882 0.959 . S
C822 H883 0.961 . S
C822 H884 0.959 . S
C823 C820 1.450 . S
C823 H885 0.960 . S
C823 H886 0.960 . S
C823 H887 0.960 . S
C824 C825 1.309 . S
C824 C829 1.304 . S
C824 O862 1.435 . S
C825 C824 1.309 . S
C825 C826 1.476 . S
C825 H889 0.930 . S
C826 C825 1.476 . S
C826 C827 1.400 . S
C826 C830 1.567 . S
C827 C826 1.400 . S
C827 C828 1.373 . S
C827 C849 1.432 . S
C828 C827 1.373 . S
C828 C829 1.339 . S
C828 C831 1.530 . S
C829 C824 1.304 . S
C829 C828 1.339 . S
C829 H890 0.930 . S
C830 C826 1.567 . S
C830 H891 0.961 . S
C830 H892 0.960 . S
C830 H893 0.958 . S
C831 C828 1.530 . S
C831 H894 0.961 . S
C831 H895 0.960 . S
C831 H896 0.960 . S
C832 C833 1.530 . S
C832 H898 0.961 . S
C832 H899 0.961 . S
C832 H900 0.959 . S
C833 C832 1.530 . S
C833 O861 1.412 . S
C833 H897 0.980 . S
C834 C835 1.288 . S
C834 C839 1.377 . S
C834 O861 1.393 . S
C835 C834 1.288 . S
C835 C836 1.369 . S
C835 H901 0.932 . S
C836 C835 1.369 . S
C836 C837 1.398 . S
C836 C840 1.527 . S
C837 C836 1.398 . S
C837 C838 1.380 . S
C837 C851 1.497 . S
C838 C837 1.380 . S
C838 C839 1.383 . S
C838 C841 1.603 . S
C839 C834 1.377 . S
C839 C838 1.383 . S
C839 H902 0.929 . S
C840 C836 1.527 . S
C840 H903 0.961 . S
C840 H904 0.959 . S
C840 H905 0.959 . S
C841 C838 1.603 . S
C841 H906 0.960 . S
C841 H907 0.962 . S
C841 H908 0.961 . S
C842 C809 1.587 . S
C842 C843 1.360 . S
C842 C855 1.412 . S
C843 C842 1.360 . S
C843 C844 1.365 . S
C843 H909 0.929 . S
C844 C819 1.553 . S
C844 C843 1.365 . S
C844 C845 1.404 . S
C845 C844 1.404 . S
C845 C846 1.395 . S
C845 C856 1.451 . S
C846 C845 1.395 . S
C846 C847 1.322 . S
C846 H910 0.930 . S
C847 C846 1.322 . S
C847 C848 1.459 . S
C847 H911 0.929 . S
C848 C847 1.459 . S
C848 C849 1.445 . S
C848 C857 1.395 . S
C849 C827 1.432 . S
C849 C848 1.445 . S
C849 C850 1.370 . S
C850 C849 1.370 . S
C850 C851 1.438 . S
C850 H912 0.930 . S
C851 C837 1.497 . S
C851 C850 1.438 . S
C851 C852 1.360 . S
C852 C851 1.360 . S
C852 C853 1.401 . S
C852 C857 1.446 . S
C853 C852 1.401 . S
C853 C854 1.347 . S
C853 H913 0.929 . S
C854 C853 1.347 . S
C854 C855 1.455 . S
C854 H914 0.930 . S
C855 C842 1.412 . S
C855 C854 1.455 . S
C855 C856 1.331 . S
C856 C845 1.451 . S
C856 C855 1.331 . S
C856 C857 1.497 . S
C857 C848 1.395 . S
C857 C852 1.446 . S
C857 C856 1.497 . S
C858 C859 1.582 . S
C858 H915 0.962 . S
C858 H916 0.959 . S
C858 H917 0.958 . S
C859 C858 1.582 . S
C859 O862 1.458 . S
C859 H888 0.980 . S
O860 C805 1.426 . S
O860 C806 1.334 . S
O861 C833 1.412 . S
O861 C834 1.393 . S
O862 C824 1.435 . S
O862 C859 1.458 . S
O863 C815 1.468 . S
O863 C816 1.408 . S
H864 C805 0.980 . S
H865 C804 0.959 . S
H866 C804 0.959 . S
H867 C804 0.960 . S
H868 C807 0.929 . S
H869 C811 0.929 . S
H870 C812 0.959 . S
H871 C812 0.961 . S
H872 C812 0.961 . S
H873 C813 0.960 . S
H874 C813 0.960 . S
H875 C813 0.961 . S
H876 C815 0.980 . S
H877 C814 0.961 . S
H878 C814 0.960 . S
H879 C814 0.959 . S
H880 C817 0.930 . S
H881 C821 0.931 . S
H882 C822 0.959 . S
H883 C822 0.961 . S
H884 C822 0.959 . S
H885 C823 0.960 . S
H886 C823 0.960 . S
H887 C823 0.960 . S
H888 C859 0.980 . S
H889 C825 0.930 . S
H890 C829 0.930 . S
H891 C830 0.961 . S
H892 C830 0.960 . S
H893 C830 0.958 . S
H894 C831 0.961 . S
H895 C831 0.960 . S
H896 C831 0.960 . S
H897 C833 0.980 . S
H898 C832 0.961 . S
H899 C832 0.961 . S
H900 C832 0.959 . S
H901 C835 0.932 . S
H902 C839 0.929 . S
H903 C840 0.961 . S
H904 C840 0.959 . S
H905 C840 0.959 . S
H906 C841 0.960 . S
H907 C841 0.962 . S
H908 C841 0.961 . S
H909 C843 0.929 . S
H910 C846 0.930 . S
H911 C847 0.929 . S
H912 C850 0.930 . S
H913 C853 0.929 . S
H914 C854 0.930 . S
H915 C858 0.962 . S
H916 C858 0.959 . S
H917 C858 0.958 . S
C918 C919 1.560 . S
C918 H979 0.959 . S
C918 H980 0.959 . S
C918 H981 0.960 . S
C919 C918 1.560 . S
C919 O974 1.426 . S
C919 H978 0.980 . S
C920 C921 1.407 . S
C920 C925 1.418 . S
C920 O974 1.334 . S
C921 C920 1.407 . S
C921 C922 1.360 . S
C921 H982 0.929 . S
C922 C921 1.360 . S
C922 C923 1.401 . S
C922 C926 1.527 . S
C923 C922 1.401 . S
C923 C924 1.405 . S
C923 C956 1.587 . S
C924 C923 1.405 . S
C924 C925 1.332 . S
C924 C927 1.496 . S
C925 C920 1.418 . S
C925 C924 1.332 . S
C925 H983 0.929 . S
C926 C922 1.527 . S
C926 H984 0.959 . S
C926 H985 0.961 . S
C926 H986 0.961 . S
C927 C924 1.496 . S
C927 H987 0.960 . S
C927 H988 0.960 . S
C927 H989 0.961 . S
C928 C929 1.517 . S
C928 H991 0.961 . S
C928 H992 0.960 . S
C928 H993 0.959 . S
C929 C928 1.517 . S
C929 O977 1.468 . S
C929 H990 0.980 . S
C930 C931 1.349 . S
C930 C935 1.367 . S
C930 O977 1.408 . S
C931 C930 1.349 . S
C931 C932 1.407 . S
C931 H994 0.930 . S
C932 C931 1.407 . S
C932 C933 1.449 . S
C932 C936 1.535 . S
C933 C932 1.449 . S
C933 C934 1.384 . S
C933 C958 1.553 . S
C934 C933 1.384 . S
C934 C935 1.364 . S
C934 C937 1.450 . S
C935 C930 1.367 . S
C935 C934 1.364 . S
C935 H995 0.931 . S
C936 C932 1.535 . S
C936 H996 0.959 . S
C936 H997 0.961 . S
C936 H998 0.959 . S
C937 C934 1.450 . S
C937 H999 0.960 . S
C937 H1000 0.960 . S
C937 H1001 0.960 . S
C938 C939 1.309 . S
C938 C943 1.304 . S
C938 O976 1.435 . S
C939 C938 1.309 . S
C939 C940 1.476 . S
C939 H1003 0.930 . S
C940 C939 1.476 . S
C940 C941 1.400 . S
C940 C944 1.567 . S
C941 C940 1.400 . S
C941 C942 1.373 . S
C941 C963 1.432 . S
C942 C941 1.373 . S
C942 C943 1.339 . S
C942 C945 1.530 . S
C943 C938 1.304 . S
C943 C942 1.339 . S
C943 H1004 0.930 . S
C944 C940 1.567 . S
C944 H1005 0.961 . S
C944 H1006 0.960 . S
C944 H1007 0.958 . S
C945 C942 1.530 . S
C945 H1008 0.961 . S
C945 H1009 0.960 . S
C945 H1010 0.960 . S
C946 C947 1.530 . S
C946 H1012 0.961 . S
C946 H1013 0.961 . S
C946 H1014 0.959 . S
C947 C946 1.530 . S
C947 O975 1.412 . S
C947 H1011 0.980 . S
C948 C949 1.288 . S
C948 C953 1.377 . S
C948 O975 1.393 . S
C949 C948 1.288 . S
C949 C950 1.369 . S
C949 H1015 0.932 . S
C950 C949 1.369 . S
C950 C951 1.398 . S
C950 C954 1.527 . S
C951 C950 1.398 . S
C951 C952 1.380 . S
C951 C965 1.497 . S
C952 C951 1.380 . S
C952 C953 1.383 . S
C952 C955 1.603 . S
C953 C948 1.377 . S
C953 C952 1.383 . S
C953 H1016 0.929 . S
C954 C950 1.527 . S
C954 H1017 0.961 . S
C954 H1018 0.959 . S
C954 H1019 0.959 . S
C955 C952 1.603 . S
C955 H1020 0.960 . S
C955 H1021 0.962 . S
C955 H1022 0.961 . S
C956 C923 1.587 . S
C956 C957 1.360 . S
C956 C969 1.412 . S
C957 C956 1.360 . S
C957 C958 1.365 . S
C957 H1023 0.929 . S
C958 C933 1.553 . S
C958 C957 1.365 . S
C958 C959 1.404 . S
C959 C958 1.404 . S
C959 C960 1.395 . S
C959 C970 1.451 . S
C960 C959 1.395 . S
C960 C961 1.322 . S
C960 H1024 0.930 . S
C961 C960 1.322 . S
C961 C962 1.459 . S
C961 H1025 0.929 . S
C962 C961 1.459 . S
C962 C963 1.445 . S
C962 C971 1.395 . S
C963 C941 1.432 . S
C963 C962 1.445 . S
C963 C964 1.370 . S
C964 C963 1.370 . S
C964 C965 1.438 . S
C964 H1026 0.930 . S
C965 C951 1.497 . S
C965 C964 1.438 . S
C965 C966 1.360 . S
C966 C965 1.360 . S
C966 C967 1.401 . S
C966 C971 1.446 . S
C967 C966 1.401 . S
C967 C968 1.347 . S
C967 H1027 0.929 . S
C968 C967 1.347 . S
C968 C969 1.455 . S
C968 H1028 0.930 . S
C969 C956 1.412 . S
C969 C968 1.455 . S
C969 C970 1.331 . S
C970 C959 1.451 . S
C970 C969 1.331 . S
C970 C971 1.497 . S
C971 C962 1.395 . S
C971 C966 1.446 . S
C971 C970 1.497 . S
C972 C973 1.582 . S
C972 H1029 0.962 . S
C972 H1030 0.959 . S
C972 H1031 0.958 . S
C973 C972 1.582 . S
C973 O976 1.458 . S
C973 H1002 0.980 . S
O974 C919 1.426 . S
O974 C920 1.334 . S
O975 C947 1.412 . S
O975 C948 1.393 . S
O976 C938 1.435 . S
O976 C973 1.458 . S
O977 C929 1.468 . S
O977 C930 1.408 . S
H978 C919 0.980 . S
H979 C918 0.959 . S
H980 C918 0.959 . S
H981 C918 0.960 . S
H982 C921 0.929 . S
H983 C925 0.929 . S
H984 C926 0.959 . S
H985 C926 0.961 . S
H986 C926 0.961 . S
H987 C927 0.960 . S
H988 C927 0.960 . S
H989 C927 0.961 . S
H990 C929 0.980 . S
H991 C928 0.961 . S
H992 C928 0.960 . S
H993 C928 0.959 . S
H994 C931 0.930 . S
H995 C935 0.931 . S
H996 C936 0.959 . S
H997 C936 0.961 . S
H998 C936 0.959 . S
H999 C937 0.960 . S
H1000 C937 0.960 . S
H1001 C937 0.960 . S
H1002 C973 0.980 . S
H1003 C939 0.930 . S
H1004 C943 0.930 . S
H1005 C944 0.961 . S
H1006 C944 0.960 . S
H1007 C944 0.958 . S
H1008 C945 0.961 . S
H1009 C945 0.960 . S
H1010 C945 0.960 . S
H1011 C947 0.980 . S
H1012 C946 0.961 . S
H1013 C946 0.961 . S
H1014 C946 0.959 . S
H1015 C949 0.932 . S
H1016 C953 0.929 . S
H1017 C954 0.961 . S
H1018 C954 0.959 . S
H1019 C954 0.959 . S
H1020 C955 0.960 . S
H1021 C955 0.962 . S
H1022 C955 0.961 . S
H1023 C957 0.929 . S
H1024 C960 0.930 . S
H1025 C961 0.929 . S
H1026 C964 0.930 . S
H1027 C967 0.929 . S
H1028 C968 0.930 . S
H1029 C972 0.962 . S
H1030 C972 0.959 . S
H1031 C972 0.958 . S
C1032 C1033 1.560 . S
C1032 H1093 0.959 . S
C1032 H1094 0.959 . S
C1032 H1095 0.960 . S
C1033 C1032 1.560 . S
C1033 O1088 1.426 . S
C1033 H1092 0.980 . S
C1034 C1035 1.407 . S
C1034 C1039 1.418 . S
C1034 O1088 1.334 . S
C1035 C1034 1.407 . S
C1035 C1036 1.360 . S
C1035 H1096 0.929 . S
C1036 C1035 1.360 . S
C1036 C1037 1.401 . S
C1036 C1040 1.527 . S
C1037 C1036 1.401 . S
C1037 C1038 1.405 . S
C1037 C1070 1.587 . S
C1038 C1037 1.405 . S
C1038 C1039 1.332 . S
C1038 C1041 1.496 . S
C1039 C1034 1.418 . S
C1039 C1038 1.332 . S
C1039 H1097 0.929 . S
C1040 C1036 1.527 . S
C1040 H1098 0.959 . S
C1040 H1099 0.961 . S
C1040 H1100 0.961 . S
C1041 C1038 1.496 . S
C1041 H1101 0.960 . S
C1041 H1102 0.960 . S
C1041 H1103 0.961 . S
C1042 C1043 1.517 . S
C1042 H1105 0.961 . S
C1042 H1106 0.960 . S
C1042 H1107 0.959 . S
C1043 C1042 1.517 . S
C1043 O1091 1.468 . S
C1043 H1104 0.980 . S
C1044 C1045 1.349 . S
C1044 C1049 1.367 . S
C1044 O1091 1.408 . S
C1045 C1044 1.349 . S
C1045 C1046 1.407 . S
C1045 H1108 0.930 . S
C1046 C1045 1.407 . S
C1046 C1047 1.449 . S
C1046 C1050 1.535 . S
C1047 C1046 1.449 . S
C1047 C1048 1.384 . S
C1047 C1072 1.553 . S
C1048 C1047 1.384 . S
C1048 C1049 1.364 . S
C1048 C1051 1.450 . S
C1049 C1044 1.367 . S
C1049 C1048 1.364 . S
C1049 H1109 0.931 . S
C1050 C1046 1.535 . S
C1050 H1110 0.959 . S
C1050 H1111 0.961 . S
C1050 H1112 0.959 . S
C1051 C1048 1.450 . S
C1051 H1113 0.960 . S
C1051 H1114 0.960 . S
C1051 H1115 0.960 . S
C1052 C1053 1.309 . S
C1052 C1057 1.304 . S
C1052 O1090 1.435 . S
C1053 C1052 1.309 . S
C1053 C1054 1.476 . S
C1053 H1117 0.930 . S
C1054 C1053 1.476 . S
C1054 C1055 1.400 . S
C1054 C1058 1.567 . S
C1055 C1054 1.400 . S
C1055 C1056 1.373 . S
C1055 C1077 1.432 . S
C1056 C1055 1.373 . S
C1056 C1057 1.339 . S
C1056 C1059 1.530 . S
C1057 C1052 1.304 . S
C1057 C1056 1.339 . S
C1057 H1118 0.930 . S
C1058 C1054 1.567 . S
C1058 H1119 0.961 . S
C1058 H1120 0.960 . S
C1058 H1121 0.958 . S
C1059 C1056 1.530 . S
C1059 H1122 0.961 . S
C1059 H1123 0.960 . S
C1059 H1124 0.960 . S
C1060 C1061 1.530 . S
C1060 H1126 0.961 . S
C1060 H1127 0.961 . S
C1060 H1128 0.959 . S
C1061 C1060 1.530 . S
C1061 O1089 1.412 . S
C1061 H1125 0.980 . S
C1062 C1063 1.288 . S
C1062 C1067 1.377 . S
C1062 O1089 1.393 . S
C1063 C1062 1.288 . S
C1063 C1064 1.369 . S
C1063 H1129 0.932 . S
C1064 C1063 1.369 . S
C1064 C1065 1.398 . S
C1064 C1068 1.527 . S
C1065 C1064 1.398 . S
C1065 C1066 1.380 . S
C1065 C1079 1.497 . S
C1066 C1065 1.380 . S
C1066 C1067 1.383 . S
C1066 C1069 1.603 . S
C1067 C1062 1.377 . S
C1067 C1066 1.383 . S
C1067 H1130 0.929 . S
C1068 C1064 1.527 . S
C1068 H1131 0.961 . S
C1068 H1132 0.959 . S
C1068 H1133 0.959 . S
C1069 C1066 1.603 . S
C1069 H1134 0.960 . S
C1069 H1135 0.962 . S
C1069 H1136 0.961 . S
C1070 C1037 1.587 . S
C1070 C1071 1.360 . S
C1070 C1083 1.412 . S
C1071 C1070 1.360 . S
C1071 C1072 1.365 . S
C1071 H1137 0.929 . S
C1072 C1047 1.553 . S
C1072 C1071 1.365 . S
C1072 C1073 1.404 . S
C1073 C1072 1.404 . S
C1073 C1074 1.395 . S
C1073 C1084 1.451 . S
C1074 C1073 1.395 . S
C1074 C1075 1.322 . S
C1074 H1138 0.930 . S
C1075 C1074 1.322 . S
C1075 C1076 1.459 . S
C1075 H1139 0.929 . S
C1076 C1075 1.459 . S
C1076 C1077 1.445 . S
C1076 C1085 1.395 . S
C1077 C1055 1.432 . S
C1077 C1076 1.445 . S
C1077 C1078 1.370 . S
C1078 C1077 1.370 . S
C1078 C1079 1.438 . S
C1078 H1140 0.930 . S
C1079 C1065 1.497 . S
C1079 C1078 1.438 . S
C1079 C1080 1.360 . S
C1080 C1079 1.360 . S
C1080 C1081 1.401 . S
C1080 C1085 1.446 . S
C1081 C1080 1.401 . S
C1081 C1082 1.347 . S
C1081 H1141 0.929 . S
C1082 C1081 1.347 . S
C1082 C1083 1.455 . S
C1082 H1142 0.930 . S
C1083 C1070 1.412 . S
C1083 C1082 1.455 . S
C1083 C1084 1.331 . S
C1084 C1073 1.451 . S
C1084 C1083 1.331 . S
C1084 C1085 1.497 . S
C1085 C1076 1.395 . S
C1085 C1080 1.446 . S
C1085 C1084 1.497 . S
C1086 C1087 1.582 . S
C1086 H1143 0.962 . S
C1086 H1144 0.959 . S
C1086 H1145 0.958 . S
C1087 C1086 1.582 . S
C1087 O1090 1.458 . S
C1087 H1116 0.980 . S
O1088 C1033 1.426 . S
O1088 C1034 1.334 . S
O1089 C1061 1.412 . S
O1089 C1062 1.393 . S
O1090 C1052 1.435 . S
O1090 C1087 1.458 . S
O1091 C1043 1.468 . S
O1091 C1044 1.408 . S
H1092 C1033 0.980 . S
H1093 C1032 0.959 . S
H1094 C1032 0.959 . S
H1095 C1032 0.960 . S
H1096 C1035 0.929 . S
H1097 C1039 0.929 . S
H1098 C1040 0.959 . S
H1099 C1040 0.961 . S
H1100 C1040 0.961 . S
H1101 C1041 0.960 . S
H1102 C1041 0.960 . S
H1103 C1041 0.961 . S
H1104 C1043 0.980 . S
H1105 C1042 0.961 . S
H1106 C1042 0.960 . S
H1107 C1042 0.959 . S
H1108 C1045 0.930 . S
H1109 C1049 0.931 . S
H1110 C1050 0.959 . S
H1111 C1050 0.961 . S
H1112 C1050 0.959 . S
H1113 C1051 0.960 . S
H1114 C1051 0.960 . S
H1115 C1051 0.960 . S
H1116 C1087 0.980 . S
H1117 C1053 0.930 . S
H1118 C1057 0.930 . S
H1119 C1058 0.961 . S
H1120 C1058 0.960 . S
H1121 C1058 0.958 . S
H1122 C1059 0.961 . S
H1123 C1059 0.960 . S
H1124 C1059 0.960 . S
H1125 C1061 0.980 . S
H1126 C1060 0.961 . S
H1127 C1060 0.961 . S
H1128 C1060 0.959 . S
H1129 C1063 0.932 . S
H1130 C1067 0.929 . S
H1131 C1068 0.961 . S
H1132 C1068 0.959 . S
H1133 C1068 0.959 . S
H1134 C1069 0.960 . S
H1135 C1069 0.962 . S
H1136 C1069 0.961 . S
H1137 C1071 0.929 . S
H1138 C1074 0.930 . S
H1139 C1075 0.929 . S
H1140 C1078 0.930 . S
H1141 C1081 0.929 . S
H1142 C1082 0.930 . S
H1143 C1086 0.962 . S
H1144 C1086 0.959 . S
H1145 C1086 0.958 . S
C1146 C1147 1.560 . S
C1146 H1207 0.959 . S
C1146 H1208 0.959 . S
C1146 H1209 0.960 . S
C1147 C1146 1.560 . S
C1147 O1202 1.426 . S
C1147 H1206 0.980 . S
C1148 C1149 1.407 . S
C1148 C1153 1.418 . S
C1148 O1202 1.334 . S
C1149 C1148 1.407 . S
C1149 C1150 1.360 . S
C1149 H1210 0.929 . S
C1150 C1149 1.360 . S
C1150 C1151 1.401 . S
C1150 C1154 1.527 . S
C1151 C1150 1.401 . S
C1151 C1152 1.405 . S
C1151 C1184 1.587 . S
C1152 C1151 1.405 . S
C1152 C1153 1.332 . S
C1152 C1155 1.496 . S
C1153 C1148 1.418 . S
C1153 C1152 1.332 . S
C1153 H1211 0.929 . S
C1154 C1150 1.527 . S
C1154 H1212 0.959 . S
C1154 H1213 0.961 . S
C1154 H1214 0.961 . S
C1155 C1152 1.496 . S
C1155 H1215 0.960 . S
C1155 H1216 0.960 . S
C1155 H1217 0.961 . S
C1156 C1157 1.517 . S
C1156 H1219 0.961 . S
C1156 H1220 0.960 . S
C1156 H1221 0.959 . S
C1157 C1156 1.517 . S
C1157 O1205 1.468 . S
C1157 H1218 0.980 . S
C1158 C1159 1.349 . S
C1158 C1163 1.367 . S
C1158 O1205 1.408 . S
C1159 C1158 1.349 . S
C1159 C1160 1.407 . S
C1159 H1222 0.930 . S
C1160 C1159 1.407 . S
C1160 C1161 1.449 . S
C1160 C1164 1.535 . S
C1161 C1160 1.449 . S
C1161 C1162 1.384 . S
C1161 C1186 1.553 . S
C1162 C1161 1.384 . S
C1162 C1163 1.364 . S
C1162 C1165 1.450 . S
C1163 C1158 1.367 . S
C1163 C1162 1.364 . S
C1163 H1223 0.931 . S
C1164 C1160 1.535 . S
C1164 H1224 0.959 . S
C1164 H1225 0.961 . S
C1164 H1226 0.959 . S
C1165 C1162 1.450 . S
C1165 H1227 0.960 . S
C1165 H1228 0.960 . S
C1165 H1229 0.960 . S
C1166 C1167 1.309 . S
C1166 C1171 1.304 . S
C1166 O1204 1.435 . S
C1167 C1166 1.309 . S
C1167 C1168 1.476 . S
C1167 H1231 0.930 . S
C1168 C1167 1.476 . S
C1168 C1169 1.400 . S
C1168 C1172 1.567 . S
C1169 C1168 1.400 . S
C1169 C1170 1.373 . S
C1169 C1191 1.432 . S
C1170 C1169 1.373 . S
C1170 C1171 1.339 . S
C1170 C1173 1.530 . S
C1171 C1166 1.304 . S
C1171 C1170 1.339 . S
C1171 H1232 0.930 . S
C1172 C1168 1.567 . S
C1172 H1233 0.961 . S
C1172 H1234 0.960 . S
C1172 H1235 0.958 . S
C1173 C1170 1.530 . S
C1173 H1236 0.961 . S
C1173 H1237 0.960 . S
C1173 H1238 0.960 . S
C1174 C1175 1.530 . S
C1174 H1240 0.961 . S
C1174 H1241 0.961 . S
C1174 H1242 0.959 . S
C1175 C1174 1.530 . S
C1175 O1203 1.412 . S
C1175 H1239 0.980 . S
C1176 C1177 1.288 . S
C1176 C1181 1.377 . S
C1176 O1203 1.393 . S
C1177 C1176 1.288 . S
C1177 C1178 1.369 . S
C1177 H1243 0.932 . S
C1178 C1177 1.369 . S
C1178 C1179 1.398 . S
C1178 C1182 1.527 . S
C1179 C1178 1.398 . S
C1179 C1180 1.380 . S
C1179 C1193 1.497 . S
C1180 C1179 1.380 . S
C1180 C1181 1.383 . S
C1180 C1183 1.603 . S
C1181 C1176 1.377 . S
C1181 C1180 1.383 . S
C1181 H1244 0.929 . S
C1182 C1178 1.527 . S
C1182 H1245 0.961 . S
C1182 H1246 0.959 . S
C1182 H1247 0.959 . S
C1183 C1180 1.603 . S
C1183 H1248 0.960 . S
C1183 H1249 0.962 . S
C1183 H1250 0.961 . S
C1184 C1151 1.587 . S
C1184 C1185 1.360 . S
C1184 C1197 1.412 . S
C1185 C1184 1.360 . S
C1185 C1186 1.365 . S
C1185 H1251 0.929 . S
C1186 C1161 1.553 . S
C1186 C1185 1.365 . S
C1186 C1187 1.404 . S
C1187 C1186 1.404 . S
C1187 C1188 1.395 . S
C1187 C1198 1.451 . S
C1188 C1187 1.395 . S
C1188 C1189 1.322 . S
C1188 H1252 0.930 . S
C1189 C1188 1.322 . S
C1189 C1190 1.459 . S
C1189 H1253 0.929 . S
C1190 C1189 1.459 . S
C1190 C1191 1.445 . S
C1190 C1199 1.395 . S
C1191 C1169 1.432 . S
C1191 C1190 1.445 . S
C1191 C1192 1.370 . S
C1192 C1191 1.370 . S
C1192 C1193 1.438 . S
C1192 H1254 0.930 . S
C1193 C1179 1.497 . S
C1193 C1192 1.438 . S
C1193 C1194 1.360 . S
C1194 C1193 1.360 . S
C1194 C1195 1.401 . S
C1194 C1199 1.446 . S
C1195 C1194 1.401 . S
C1195 C1196 1.347 . S
C1195 H1255 0.929 . S
C1196 C1195 1.347 . S
C1196 C1197 1.455 . S
C1196 H1256 0.930 . S
C1197 C1184 1.412 . S
C1197 C1196 1.455 . S
C1197 C1198 1.331 . S
C1198 C1187 1.451 . S
C1198 C1197 1.331 . S
C1198 C1199 1.497 . S
C1199 C1190 1.395 . S
C1199 C1194 1.446 . S
C1199 C1198 1.497 . S
C1200 C1201 1.582 . S
C1200 H1257 0.962 . S
C1200 H1258 0.959 . S
C1200 H1259 0.958 . S
C1201 C1200 1.582 . S
C1201 O1204 1.458 . S
C1201 H1230 0.980 . S
O1202 C1147 1.426 . S
O1202 C1148 1.334 . S
O1203 C1175 1.412 . S
O1203 C1176 1.393 . S
O1204 C1166 1.435 . S
O1204 C1201 1.458 . S
O1205 C1157 1.468 . S
O1205 C1158 1.408 . S
H1206 C1147 0.980 . S
H1207 C1146 0.959 . S
H1208 C1146 0.959 . S
H1209 C1146 0.960 . S
H1210 C1149 0.929 . S
H1211 C1153 0.929 . S
H1212 C1154 0.959 . S
H1213 C1154 0.961 . S
H1214 C1154 0.961 . S
H1215 C1155 0.960 . S
H1216 C1155 0.960 . S
H1217 C1155 0.961 . S
H1218 C1157 0.980 . S
H1219 C1156 0.961 . S
H1220 C1156 0.960 . S
H1221 C1156 0.959 . S
H1222 C1159 0.930 . S
H1223 C1163 0.931 . S
H1224 C1164 0.959 . S
H1225 C1164 0.961 . S
H1226 C1164 0.959 . S
H1227 C1165 0.960 . S
H1228 C1165 0.960 . S
H1229 C1165 0.960 . S
H1230 C1201 0.980 . S
H1231 C1167 0.930 . S
H1232 C1171 0.930 . S
H1233 C1172 0.961 . S
H1234 C1172 0.960 . S
H1235 C1172 0.958 . S
H1236 C1173 0.961 . S
H1237 C1173 0.960 . S
H1238 C1173 0.960 . S
H1239 C1175 0.980 . S
H1240 C1174 0.961 . S
H1241 C1174 0.961 . S
H1242 C1174 0.959 . S
H1243 C1177 0.932 . S
H1244 C1181 0.929 . S
H1245 C1182 0.961 . S
H1246 C1182 0.959 . S
H1247 C1182 0.959 . S
H1248 C1183 0.960 . S
H1249 C1183 0.962 . S
H1250 C1183 0.961 . S
H1251 C1185 0.929 . S
H1252 C1188 0.930 . S
H1253 C1189 0.929 . S
H1254 C1192 0.930 . S
H1255 C1195 0.929 . S
H1256 C1196 0.930 . S
H1257 C1200 0.962 . S
H1258 C1200 0.959 . S
H1259 C1200 0.958 . S
C1260 C1261 1.560 . S
C1260 H1321 0.959 . S
C1260 H1322 0.959 . S
C1260 H1323 0.960 . S
C1261 C1260 1.560 . S
C1261 O1316 1.426 . S
C1261 H1320 0.980 . S
C1262 C1263 1.407 1_455 S
C1262 C1267 1.418 . S
C1262 O1316 1.334 . S
C1263 C1262 1.407 1_655 S
C1263 C1264 1.360 . S
C1263 H1324 0.929 . S
C1264 C1263 1.360 . S
C1264 C1265 1.401 1_655 S
C1264 C1268 1.527 . S
C1265 C1264 1.401 1_455 S
C1265 C1266 1.405 . S
C1265 C1298 1.587 1_455 S
C1266 C1265 1.405 . S
C1266 C1267 1.332 . S
C1266 C1269 1.496 . S
C1267 C1262 1.418 . S
C1267 C1266 1.332 . S
C1267 H1325 0.929 . S
C1268 C1264 1.527 . S
C1268 H1326 0.959 . S
C1268 H1327 0.961 . S
C1268 H1328 0.961 . S
C1269 C1266 1.496 . S
C1269 H1329 0.960 . S
C1269 H1330 0.960 . S
C1269 H1331 0.961 . S
C1270 C1271 1.517 . S
C1270 H1333 0.956 . S
C1270 H1334 0.960 . S
C1270 H1335 0.959 . S
C1271 C1270 1.517 . S
C1271 O1319 1.468 . S
C1271 H1332 0.980 1_655 S
C1272 C1273 1.349 . S
C1272 C1277 1.367 . S
C1272 O1319 1.408 . S
C1273 C1272 1.349 . S
C1273 C1274 1.356 1_655 S
C1273 H1336 0.930 1_655 S
C1274 C1273 1.356 1_455 S
C1274 C1275 1.404 1_455 S
C1274 C1278 1.626 . S
C1275 C1274 1.404 1_655 S
C1275 C1276 1.384 . S
C1275 C1300 1.553 . S
C1276 C1275 1.384 . S
C1276 C1277 1.364 . S
C1276 C1279 1.450 . S
C1277 C1272 1.367 . S
C1277 C1276 1.364 . S
C1277 H1337 0.931 . S
C1278 C1274 1.626 . S
C1278 H1338 0.959 . S
C1278 H1339 0.961 . S
C1278 H1340 0.959 . S
C1279 C1276 1.450 . S
C1279 H1341 0.960 . S
C1279 H1342 0.960 . S
C1279 H1343 0.960 . S
C1280 C1281 1.309 . S
C1280 C1285 1.304 . S
C1280 O1318 1.435 . S
C1281 C1280 1.309 . S
C1281 C1282 1.463 1_655 S
C1281 H1345 0.930 1_655 S
C1282 C1281 1.463 1_455 S
C1282 C1283 1.392 1_455 S
C1282 C1286 1.588 . S
C1283 C1282 1.392 1_655 S
C1283 C1284 1.373 . S
C1283 C1305 1.432 . S
C1284 C1283 1.373 . S
C1284 C1285 1.339 . S
C1284 C1287 1.530 . S
C1285 C1280 1.304 . S
C1285 C1284 1.339 . S
C1285 H1346 0.930 . S
C1286 C1282 1.588 . S
C1286 H1347 0.961 . S
C1286 H1348 0.960 . S
C1286 H1349 0.958 . S
C1287 C1284 1.530 . S
C1287 H1350 0.961 . S
C1287 H1351 0.960 . S
C1287 H1352 0.960 . S
C1288 C1289 1.495 1_455 S
C1288 H1354 0.961 . S
C1288 H1355 0.961 . S
C1288 H1356 0.959 . S
C1289 C1288 1.495 1_655 S
C1289 O1317 1.404 1_655 S
C1289 H1353 0.991 . S
C1290 C1291 1.288 . S
C1290 C1295 1.377 1_455 S
C1290 O1317 1.393 . S
C1291 C1290 1.288 . S
C1291 C1292 1.369 . S
C1291 H1357 0.932 . S
C1292 C1291 1.369 . S
C1292 C1293 1.398 1_455 S
C1292 C1296 1.527 . S
C1293 C1292 1.398 1_655 S
C1293 C1294 1.380 . S
C1293 C1307 1.497 . S
C1294 C1293 1.380 . S
C1294 C1295 1.383 . S
C1294 C1297 1.603 . S
C1295 C1290 1.377 1_655 S
C1295 C1294 1.383 . S
C1295 H1358 0.929 . S
C1296 C1292 1.527 . S
C1296 H1359 0.961 . S
C1296 H1360 0.959 . S
C1296 H1361 0.959 . S
C1297 C1294 1.603 . S
C1297 H1362 0.960 . S
C1297 H1363 0.962 . S
C1297 H1364 0.961 . S
C1298 C1265 1.587 1_655 S
C1298 C1299 1.360 . S
C1298 C1311 1.412 . S
C1299 C1298 1.360 . S
C1299 C1300 1.365 . S
C1299 H1365 0.929 . S
C1300 C1275 1.553 . S
C1300 C1299 1.365 . S
C1300 C1301 1.404 . S
C1301 C1300 1.404 . S
C1301 C1302 1.395 . S
C1301 C1312 1.451 . S
C1302 C1301 1.395 . S
C1302 C1303 1.322 . S
C1302 H1366 0.930 . S
C1303 C1302 1.322 . S
C1303 C1304 1.459 . S
C1303 H1367 0.929 . S
C1304 C1303 1.459 . S
C1304 C1305 1.445 . S
C1304 C1313 1.395 . S
C1305 C1283 1.432 . S
C1305 C1304 1.445 . S
C1305 C1306 1.370 . S
C1306 C1305 1.370 . S
C1306 C1307 1.438 . S
C1306 H1368 0.930 . S
C1307 C1293 1.497 . S
C1307 C1306 1.438 . S
C1307 C1308 1.360 . S
C1308 C1307 1.360 . S
C1308 C1309 1.401 . S
C1308 C1313 1.446 . S
C1309 C1308 1.401 . S
C1309 C1310 1.347 . S
C1309 H1369 0.929 . S
C1310 C1309 1.347 . S
C1310 C1311 1.455 . S
C1310 H1370 0.930 . S
C1311 C1298 1.412 . S
C1311 C1310 1.455 . S
C1311 C1312 1.331 . S
C1312 C1301 1.451 . S
C1312 C1311 1.331 . S
C1312 C1313 1.497 . S
C1313 C1304 1.395 . S
C1313 C1308 1.446 . S
C1313 C1312 1.497 . S
C1314 C1315 1.582 . S
C1314 H1371 0.962 . S
C1314 H1372 0.959 . S
C1314 H1373 0.958 . S
C1315 C1314 1.582 . S
C1315 O1318 1.458 . S
C1315 H1344 0.980 . S
O1316 C1261 1.426 . S
O1316 C1262 1.334 . S
O1317 C1289 1.404 1_455 S
O1317 C1290 1.393 . S
O1318 C1280 1.435 . S
O1318 C1315 1.458 . S
O1319 C1271 1.468 . S
O1319 C1272 1.408 . S
H1320 C1261 0.980 . S
H1321 C1260 0.959 . S
H1322 C1260 0.959 . S
H1323 C1260 0.960 . S
H1324 C1263 0.929 . S
H1325 C1267 0.929 . S
H1326 C1268 0.959 . S
H1327 C1268 0.961 . S
H1328 C1268 0.961 . S
H1329 C1269 0.960 . S
H1330 C1269 0.960 . S
H1331 C1269 0.961 . S
H1332 C1271 0.980 1_455 S
H1333 C1270 0.956 . S
H1334 C1270 0.960 . S
H1335 C1270 0.959 . S
H1336 C1273 0.930 1_455 S
H1337 C1277 0.931 . S
H1338 C1278 0.959 . S
H1339 C1278 0.961 . S
H1340 C1278 0.959 . S
H1341 C1279 0.960 . S
H1342 C1279 0.960 . S
H1343 C1279 0.960 . S
H1344 C1315 0.980 . S
H1345 C1281 0.930 1_455 S
H1346 C1285 0.930 . S
H1347 C1286 0.961 . S
H1348 C1286 0.960 . S
H1349 C1286 0.958 . S
H1350 C1287 0.961 . S
H1351 C1287 0.960 . S
H1352 C1287 0.960 . S
H1353 C1289 0.991 . S
H1354 C1288 0.961 . S
H1355 C1288 0.961 . S
H1356 C1288 0.959 . S
H1357 C1291 0.932 . S
H1358 C1295 0.929 . S
H1359 C1296 0.961 . S
H1360 C1296 0.959 . S
H1361 C1296 0.959 . S
H1362 C1297 0.960 . S
H1363 C1297 0.962 . S
H1364 C1297 0.961 . S
H1365 C1299 0.929 . S
H1366 C1302 0.930 . S
H1367 C1303 0.929 . S
H1368 C1306 0.930 . S
H1369 C1309 0.929 . S
H1370 C1310 0.930 . S
H1371 C1314 0.962 . S
H1372 C1314 0.959 . S
H1373 C1314 0.958 . S
C1374 C1375 1.560 . S
C1374 H1435 0.959 . S
C1374 H1436 0.959 . S
C1374 H1437 0.960 . S
C1375 C1374 1.560 . S
C1375 O1430 1.426 . S
C1375 H1434 0.980 . S
C1376 C1377 1.407 . S
C1376 C1381 1.418 . S
C1376 O1430 1.334 . S
C1377 C1376 1.407 . S
C1377 C1378 1.360 . S
C1377 H1438 0.929 . S
C1378 C1377 1.360 . S
C1378 C1379 1.401 . S
C1378 C1382 1.527 . S
C1379 C1378 1.401 . S
C1379 C1380 1.405 . S
C1379 C1412 1.587 . S
C1380 C1379 1.405 . S
C1380 C1381 1.332 . S
C1380 C1383 1.496 . S
C1381 C1376 1.418 . S
C1381 C1380 1.332 . S
C1381 H1439 0.929 . S
C1382 C1378 1.527 . S
C1382 H1440 0.959 . S
C1382 H1441 0.961 . S
C1382 H1442 0.961 . S
C1383 C1380 1.496 . S
C1383 H1443 0.960 . S
C1383 H1444 0.960 . S
C1383 H1445 0.961 . S
C1384 C1385 1.517 . S
C1384 H1447 0.961 . S
C1384 H1448 0.960 . S
C1384 H1449 0.959 . S
C1385 C1384 1.517 . S
C1385 O1433 1.468 . S
C1385 H1446 0.980 . S
C1386 C1387 1.349 . S
C1386 C1391 1.367 . S
C1386 O1433 1.408 . S
C1387 C1386 1.349 . S
C1387 C1388 1.407 . S
C1387 H1450 0.930 . S
C1388 C1387 1.407 . S
C1388 C1389 1.449 . S
C1388 C1392 1.535 . S
C1389 C1388 1.449 . S
C1389 C1390 1.384 . S
C1389 C1414 1.553 . S
C1390 C1389 1.384 . S
C1390 C1391 1.364 . S
C1390 C1393 1.450 . S
C1391 C1386 1.367 . S
C1391 C1390 1.364 . S
C1391 H1451 0.931 . S
C1392 C1388 1.535 . S
C1392 H1452 0.959 . S
C1392 H1453 0.961 . S
C1392 H1454 0.959 . S
C1393 C1390 1.450 . S
C1393 H1455 0.960 . S
C1393 H1456 0.960 . S
C1393 H1457 0.960 . S
C1394 C1395 1.309 . S
C1394 C1399 1.304 . S
C1394 O1432 1.435 . S
C1395 C1394 1.309 . S
C1395 C1396 1.476 . S
C1395 H1459 0.930 . S
C1396 C1395 1.476 . S
C1396 C1397 1.400 . S
C1396 C1400 1.567 . S
C1397 C1396 1.400 . S
C1397 C1398 1.373 . S
C1397 C1419 1.432 . S
C1398 C1397 1.373 . S
C1398 C1399 1.339 . S
C1398 C1401 1.530 . S
C1399 C1394 1.304 . S
C1399 C1398 1.339 . S
C1399 H1460 0.930 . S
C1400 C1396 1.567 . S
C1400 H1461 0.961 . S
C1400 H1462 0.960 . S
C1400 H1463 0.958 . S
C1401 C1398 1.530 . S
C1401 H1464 0.961 . S
C1401 H1465 0.960 . S
C1401 H1466 0.960 . S
C1402 C1403 1.530 . S
C1402 H1468 0.961 . S
C1402 H1469 0.961 . S
C1402 H1470 0.959 . S
C1403 C1402 1.530 . S
C1403 O1431 1.412 . S
C1403 H1467 0.980 . S
C1404 C1405 1.288 . S
C1404 C1409 1.377 . S
C1404 O1431 1.393 . S
C1405 C1404 1.288 . S
C1405 C1406 1.369 . S
C1405 H1471 0.932 . S
C1406 C1405 1.369 . S
C1406 C1407 1.398 . S
C1406 C1410 1.527 . S
C1407 C1406 1.398 . S
C1407 C1408 1.380 . S
C1407 C1421 1.497 . S
C1408 C1407 1.380 . S
C1408 C1409 1.383 . S
C1408 C1411 1.603 . S
C1409 C1404 1.377 . S
C1409 C1408 1.383 . S
C1409 H1472 0.929 . S
C1410 C1406 1.527 . S
C1410 H1473 0.961 . S
C1410 H1474 0.959 . S
C1410 H1475 0.959 . S
C1411 C1408 1.603 . S
C1411 H1476 0.960 . S
C1411 H1477 0.962 . S
C1411 H1478 0.961 . S
C1412 C1379 1.587 . S
C1412 C1413 1.360 . S
C1412 C1425 1.412 . S
C1413 C1412 1.360 . S
C1413 C1414 1.365 . S
C1413 H1479 0.929 . S
C1414 C1389 1.553 . S
C1414 C1413 1.365 . S
C1414 C1415 1.404 . S
C1415 C1414 1.404 . S
C1415 C1416 1.395 . S
C1415 C1426 1.451 . S
C1416 C1415 1.395 . S
C1416 C1417 1.322 . S
C1416 H1480 0.930 . S
C1417 C1416 1.322 . S
C1417 C1418 1.459 . S
C1417 H1481 0.929 . S
C1418 C1417 1.459 . S
C1418 C1419 1.445 . S
C1418 C1427 1.395 . S
C1419 C1397 1.432 . S
C1419 C1418 1.445 . S
C1419 C1420 1.370 . S
C1420 C1419 1.370 . S
C1420 C1421 1.438 . S
C1420 H1482 0.930 . S
C1421 C1407 1.497 . S
C1421 C1420 1.438 . S
C1421 C1422 1.360 . S
C1422 C1421 1.360 . S
C1422 C1423 1.401 . S
C1422 C1427 1.446 . S
C1423 C1422 1.401 . S
C1423 C1424 1.347 . S
C1423 H1483 0.929 . S
C1424 C1423 1.347 . S
C1424 C1425 1.455 . S
C1424 H1484 0.930 . S
C1425 C1412 1.412 . S
C1425 C1424 1.455 . S
C1425 C1426 1.331 . S
C1426 C1415 1.451 . S
C1426 C1425 1.331 . S
C1426 C1427 1.497 . S
C1427 C1418 1.395 . S
C1427 C1422 1.446 . S
C1427 C1426 1.497 . S
C1428 C1429 1.582 . S
C1428 H1485 0.962 . S
C1428 H1486 0.959 . S
C1428 H1487 0.958 . S
C1429 C1428 1.582 . S
C1429 O1432 1.458 . S
C1429 H1458 0.980 . S
O1430 C1375 1.426 . S
O1430 C1376 1.334 . S
O1431 C1403 1.412 . S
O1431 C1404 1.393 . S
O1432 C1394 1.435 . S
O1432 C1429 1.458 . S
O1433 C1385 1.468 . S
O1433 C1386 1.408 . S
H1434 C1375 0.980 . S
H1435 C1374 0.959 . S
H1436 C1374 0.959 . S
H1437 C1374 0.960 . S
H1438 C1377 0.929 . S
H1439 C1381 0.929 . S
H1440 C1382 0.959 . S
H1441 C1382 0.961 . S
H1442 C1382 0.961 . S
H1443 C1383 0.960 . S
H1444 C1383 0.960 . S
H1445 C1383 0.961 . S
H1446 C1385 0.980 . S
H1447 C1384 0.961 . S
H1448 C1384 0.960 . S
H1449 C1384 0.959 . S
H1450 C1387 0.930 . S
H1451 C1391 0.931 . S
H1452 C1392 0.959 . S
H1453 C1392 0.961 . S
H1454 C1392 0.959 . S
H1455 C1393 0.960 . S
H1456 C1393 0.960 . S
H1457 C1393 0.960 . S
H1458 C1429 0.980 . S
H1459 C1395 0.930 . S
H1460 C1399 0.930 . S
H1461 C1400 0.961 . S
H1462 C1400 0.960 . S
H1463 C1400 0.958 . S
H1464 C1401 0.961 . S
H1465 C1401 0.960 . S
H1466 C1401 0.960 . S
H1467 C1403 0.980 . S
H1468 C1402 0.961 . S
H1469 C1402 0.961 . S
H1470 C1402 0.959 . S
H1471 C1405 0.932 . S
H1472 C1409 0.929 . S
H1473 C1410 0.961 . S
H1474 C1410 0.959 . S
H1475 C1410 0.959 . S
H1476 C1411 0.960 . S
H1477 C1411 0.962 . S
H1478 C1411 0.961 . S
H1479 C1413 0.929 . S
H1480 C1416 0.930 . S
H1481 C1417 0.929 . S
H1482 C1420 0.930 . S
H1483 C1423 0.929 . S
H1484 C1424 0.930 . S
H1485 C1428 0.962 . S
H1486 C1428 0.959 . S
H1487 C1428 0.958 . S
C1488 C1489 1.560 . S
C1488 H1549 0.959 . S
C1488 H1550 0.959 . S
C1488 H1551 0.960 . S
C1489 C1488 1.560 . S
C1489 O1544 1.426 . S
C1489 H1548 0.980 . S
C1490 C1491 1.407 1_565 S
C1490 C1495 1.418 . S
C1490 O1544 1.334 . S
C1491 C1490 1.407 1_545 S
C1491 C1492 1.360 . S
C1491 H1552 0.929 . S
C1492 C1491 1.360 . S
C1492 C1493 1.401 1_545 S
C1492 C1496 1.527 . S
C1493 C1492 1.401 1_565 S
C1493 C1494 1.405 . S
C1493 C1526 1.587 1_565 S
C1494 C1493 1.405 . S
C1494 C1495 1.332 . S
C1494 C1497 1.496 . S
C1495 C1490 1.418 . S
C1495 C1494 1.332 . S
C1495 H1553 0.929 . S
C1496 C1492 1.527 . S
C1496 H1554 0.959 . S
C1496 H1555 0.961 . S
C1496 H1556 0.961 . S
C1497 C1494 1.496 . S
C1497 H1557 0.960 . S
C1497 H1558 0.960 . S
C1497 H1559 0.961 . S
C1498 C1499 1.517 . S
C1498 H1561 0.910 1_545 S
C1498 H1562 0.960 . S
C1498 H1563 0.959 . S
C1499 C1498 1.517 . S
C1499 O1547 1.468 . S
C1499 H1560 0.980 1_545 S
C1500 C1501 1.402 . S
C1500 C1505 1.367 . S
C1500 O1547 1.408 . S
C1501 C1500 1.402 . S
C1501 C1502 1.438 1_545 S
C1501 H1564 0.848 1_545 S
C1502 C1501 1.438 1_565 S
C1502 C1503 1.449 1_565 S
C1502 C1506 1.535 . S
C1503 C1502 1.449 1_545 S
C1503 C1504 1.384 . S
C1503 C1528 1.553 . S
C1504 C1503 1.384 . S
C1504 C1505 1.364 . S
C1504 C1507 1.450 . S
C1505 C1500 1.367 . S
C1505 C1504 1.364 . S
C1505 H1565 0.931 . S
C1506 C1502 1.535 . S
C1506 H1566 0.959 . S
C1506 H1567 0.961 . S
C1506 H1568 0.959 . S
C1507 C1504 1.450 . S
C1507 H1569 0.960 . S
C1507 H1570 0.960 . S
C1507 H1571 0.960 . S
C1508 C1509 1.309 . S
C1508 C1513 1.304 . S
C1508 O1546 1.435 . S
C1509 C1508 1.309 . S
C1509 C1510 1.491 1_545 S
C1509 H1573 0.930 1_545 S
C1510 C1509 1.491 1_565 S
C1510 C1511 1.351 1_565 S
C1510 C1514 1.601 . S
C1511 C1510 1.351 1_545 S
C1511 C1512 1.373 . S
C1511 C1533 1.432 . S
C1512 C1511 1.373 . S
C1512 C1513 1.339 . S
C1512 C1515 1.530 . S
C1513 C1508 1.304 . S
C1513 C1512 1.339 . S
C1513 H1574 0.930 . S
C1514 C1510 1.601 . S
C1514 H1575 0.961 . S
C1514 H1576 0.960 . S
C1514 H1577 0.958 . S
C1515 C1512 1.530 . S
C1515 H1578 0.961 . S
C1515 H1579 0.960 . S
C1515 H1580 0.960 . S
C1516 C1517 1.530 1_565 S
C1516 H1582 0.961 . S
C1516 H1583 0.961 . S
C1516 H1584 0.959 . S
C1517 C1516 1.530 1_545 S
C1517 O1545 1.412 1_545 S
C1517 H1581 0.980 . S
C1518 C1519 1.288 . S
C1518 C1523 1.377 1_565 S
C1518 O1545 1.393 . S
C1519 C1518 1.288 . S
C1519 C1520 1.369 . S
C1519 H1585 0.932 . S
C1520 C1519 1.369 . S
C1520 C1521 1.398 1_565 S
C1520 C1524 1.527 . S
C1521 C1520 1.398 1_545 S
C1521 C1522 1.380 . S
C1521 C1535 1.497 . S
C1522 C1521 1.380 . S
C1522 C1523 1.383 . S
C1522 C1525 1.603 . S
C1523 C1518 1.377 1_545 S
C1523 C1522 1.383 . S
C1523 H1586 0.929 . S
C1524 C1520 1.527 . S
C1524 H1587 0.961 . S
C1524 H1588 0.959 . S
C1524 H1589 0.959 . S
C1525 C1522 1.603 . S
C1525 H1590 0.960 . S
C1525 H1591 0.962 . S
C1525 H1592 0.961 . S
C1526 C1493 1.587 1_545 S
C1526 C1527 1.360 . S
C1526 C1539 1.412 . S
C1527 C1526 1.360 . S
C1527 C1528 1.365 . S
C1527 H1593 0.929 . S
C1528 C1503 1.553 . S
C1528 C1527 1.365 . S
C1528 C1529 1.404 . S
C1529 C1528 1.404 . S
C1529 C1530 1.395 . S
C1529 C1540 1.451 . S
C1530 C1529 1.395 . S
C1530 C1531 1.322 . S
C1530 H1594 0.930 . S
C1531 C1530 1.322 . S
C1531 C1532 1.459 . S
C1531 H1595 0.929 . S
C1532 C1531 1.459 . S
C1532 C1533 1.445 . S
C1532 C1541 1.395 . S
C1533 C1511 1.432 . S
C1533 C1532 1.445 . S
C1533 C1534 1.370 . S
C1534 C1533 1.370 . S
C1534 C1535 1.438 . S
C1534 H1596 0.930 . S
C1535 C1521 1.497 . S
C1535 C1534 1.438 . S
C1535 C1536 1.360 . S
C1536 C1535 1.360 . S
C1536 C1537 1.401 . S
C1536 C1541 1.446 . S
C1537 C1536 1.401 . S
C1537 C1538 1.347 . S
C1537 H1597 0.929 . S
C1538 C1537 1.347 . S
C1538 C1539 1.455 . S
C1538 H1598 0.930 . S
C1539 C1526 1.412 . S
C1539 C1538 1.455 . S
C1539 C1540 1.331 . S
C1540 C1529 1.451 . S
C1540 C1539 1.331 . S
C1540 C1541 1.497 . S
C1541 C1532 1.395 . S
C1541 C1536 1.446 . S
C1541 C1540 1.497 . S
C1542 C1543 1.582 . S
C1542 H1599 0.962 . S
C1542 H1600 0.959 . S
C1542 H1601 0.958 . S
C1543 C1542 1.582 . S
C1543 O1546 1.458 . S
C1543 H1572 0.980 . S
O1544 C1489 1.426 . S
O1544 C1490 1.334 . S
O1545 C1517 1.412 1_565 S
O1545 C1518 1.393 . S
O1546 C1508 1.435 . S
O1546 C1543 1.458 . S
O1547 C1499 1.468 . S
O1547 C1500 1.408 . S
H1548 C1489 0.980 . S
H1549 C1488 0.959 . S
H1550 C1488 0.959 . S
H1551 C1488 0.960 . S
H1552 C1491 0.929 . S
H1553 C1495 0.929 . S
H1554 C1496 0.959 . S
H1555 C1496 0.961 . S
H1556 C1496 0.961 . S
H1557 C1497 0.960 . S
H1558 C1497 0.960 . S
H1559 C1497 0.961 . S
H1560 C1499 0.980 1_565 S
H1561 C1498 0.910 1_565 S
H1562 C1498 0.960 . S
H1563 C1498 0.959 . S
H1564 C1501 0.848 1_565 S
H1565 C1505 0.931 . S
H1566 C1506 0.959 . S
H1567 C1506 0.961 . S
H1568 C1506 0.959 . S
H1569 C1507 0.960 . S
H1570 C1507 0.960 . S
H1571 C1507 0.960 . S
H1572 C1543 0.980 . S
H1573 C1509 0.930 1_565 S
H1574 C1513 0.930 . S
H1575 C1514 0.961 . S
H1576 C1514 0.960 . S
H1577 C1514 0.958 . S
H1578 C1515 0.961 . S
H1579 C1515 0.960 . S
H1580 C1515 0.960 . S
H1581 C1517 0.980 . S
H1582 C1516 0.961 . S
H1583 C1516 0.961 . S
H1584 C1516 0.959 . S
H1585 C1519 0.932 . S
H1586 C1523 0.929 . S
H1587 C1524 0.961 . S
H1588 C1524 0.959 . S
H1589 C1524 0.959 . S
H1590 C1525 0.960 . S
H1591 C1525 0.962 . S
H1592 C1525 0.961 . S
H1593 C1527 0.929 . S
H1594 C1530 0.930 . S
H1595 C1531 0.929 . S
H1596 C1534 0.930 . S
H1597 C1537 0.929 . S
H1598 C1538 0.930 . S
H1599 C1542 0.962 . S
H1600 C1542 0.959 . S
H1601 C1542 0.958 . S
C1602 C1603 1.560 . S
C1602 H1663 0.959 . S
C1602 H1664 0.959 . S
C1602 H1665 0.960 . S
C1603 C1602 1.560 . S
C1603 O1658 1.426 . S
C1603 H1662 0.980 1_565 S
C1604 C1605 1.407 1_565 S
C1604 C1609 1.418 . S
C1604 O1658 1.334 . S
C1605 C1604 1.407 1_545 S
C1605 C1606 1.360 . S
C1605 H1666 0.929 . S
C1606 C1605 1.360 . S
C1606 C1607 1.401 . S
C1606 C1610 1.527 . S
C1607 C1606 1.401 . S
C1607 C1608 1.405 1_545 S
C1607 C1640 1.587 . S
C1608 C1607 1.405 1_565 S
C1608 C1609 1.332 . S
C1608 C1611 1.496 . S
C1609 C1604 1.418 . S
C1609 C1608 1.332 . S
C1609 H1667 0.929 . S
C1610 C1606 1.527 . S
C1610 H1668 0.959 . S
C1610 H1669 0.961 . S
C1610 H1670 0.961 . S
C1611 C1608 1.496 . S
C1611 H1671 0.960 . S
C1611 H1672 0.960 . S
C1611 H1673 0.961 . S
C1612 C1613 1.517 . S
C1612 H1675 0.961 . S
C1612 H1676 0.960 . S
C1612 H1677 0.959 . S
C1613 C1612 1.517 . S
C1613 O1661 1.468 . S
C1613 H1674 0.980 . S
C1614 C1615 1.349 . S
C1614 C1619 1.367 . S
C1614 O1661 1.408 . S
C1615 C1614 1.349 . S
C1615 C1616 1.407 . S
C1615 H1678 0.929 1_545 S
C1616 C1615 1.407 . S
C1616 C1617 1.449 . S
C1616 C1620 1.535 1_545 S
C1617 C1616 1.449 . S
C1617 C1618 1.384 . S
C1617 C1642 1.553 . S
C1618 C1617 1.384 . S
C1618 C1619 1.364 . S
C1618 C1621 1.450 . S
C1619 C1614 1.367 . S
C1619 C1618 1.364 . S
C1619 H1679 0.931 . S
C1620 C1616 1.535 1_565 S
C1620 H1680 0.959 . S
C1620 H1681 0.961 . S
C1620 H1682 0.959 . S
C1621 C1618 1.450 . S
C1621 H1683 0.960 . S
C1621 H1684 0.960 . S
C1621 H1685 0.960 . S
C1622 C1623 1.309 1_545 S
C1622 C1627 1.304 . S
C1622 O1660 1.435 . S
C1623 C1622 1.309 1_565 S
C1623 C1624 1.476 . S
C1623 H1687 0.930 . S
C1624 C1623 1.476 . S
C1624 C1625 1.400 1_565 S
C1624 C1628 1.567 . S
C1625 C1624 1.400 1_545 S
C1625 C1626 1.373 . S
C1625 C1647 1.432 . S
C1626 C1625 1.373 . S
C1626 C1627 1.339 . S
C1626 C1629 1.530 . S
C1627 C1622 1.304 . S
C1627 C1626 1.339 . S
C1627 H1688 0.930 . S
C1628 C1624 1.567 . S
C1628 H1689 0.961 . S
C1628 H1690 0.960 . S
C1628 H1691 0.958 . S
C1629 C1626 1.530 . S
C1629 H1692 0.961 . S
C1629 H1693 0.960 . S
C1629 H1694 0.960 . S
C1630 C1631 1.530 . S
C1630 H1696 0.961 . S
C1630 H1697 0.961 . S
C1630 H1698 0.959 . S
C1631 C1630 1.530 . S
C1631 O1659 1.412 . S
C1631 H1695 0.992 . S
C1632 C1633 1.288 . S
C1632 C1637 1.377 1_565 S
C1632 O1659 1.393 . S
C1633 C1632 1.288 . S
C1633 C1634 1.369 . S
C1633 H1699 0.932 . S
C1634 C1633 1.369 . S
C1634 C1635 1.398 . S
C1634 C1638 1.527 . S
C1635 C1634 1.398 . S
C1635 C1636 1.380 1_565 S
C1635 C1649 1.497 1_565 S
C1636 C1635 1.380 1_545 S
C1636 C1637 1.383 . S
C1636 C1639 1.603 . S
C1637 C1632 1.377 1_545 S
C1637 C1636 1.383 . S
C1637 H1700 0.929 . S
C1638 C1634 1.527 . S
C1638 H1701 0.961 . S
C1638 H1702 0.959 . S
C1638 H1703 0.959 . S
C1639 C1636 1.603 . S
C1639 H1704 0.960 . S
C1639 H1705 0.962 . S
C1639 H1706 0.961 . S
C1640 C1607 1.587 . S
C1640 C1641 1.360 . S
C1640 C1653 1.412 . S
C1641 C1640 1.360 . S
C1641 C1642 1.365 . S
C1641 H1707 0.929 . S
C1642 C1617 1.553 . S
C1642 C1641 1.365 . S
C1642 C1643 1.404 . S
C1643 C1642 1.404 . S
C1643 C1644 1.395 . S
C1643 C1654 1.451 . S
C1644 C1643 1.395 . S
C1644 C1645 1.322 . S
C1644 H1708 0.930 . S
C1645 C1644 1.322 . S
C1645 C1646 1.459 . S
C1645 H1709 0.929 . S
C1646 C1645 1.459 . S
C1646 C1647 1.445 . S
C1646 C1655 1.395 . S
C1647 C1625 1.432 . S
C1647 C1646 1.445 . S
C1647 C1648 1.370 . S
C1648 C1647 1.370 . S
C1648 C1649 1.438 . S
C1648 H1710 0.930 . S
C1649 C1635 1.497 1_545 S
C1649 C1648 1.438 . S
C1649 C1650 1.360 . S
C1650 C1649 1.360 . S
C1650 C1651 1.401 . S
C1650 C1655 1.446 . S
C1651 C1650 1.401 . S
C1651 C1652 1.347 . S
C1651 H1711 0.969 . S
C1652 C1651 1.347 . S
C1652 C1653 1.455 . S
C1652 H1712 0.930 . S
C1653 C1640 1.412 . S
C1653 C1652 1.455 . S
C1653 C1654 1.331 . S
C1654 C1643 1.451 . S
C1654 C1653 1.331 . S
C1654 C1655 1.497 . S
C1655 C1646 1.395 . S
C1655 C1650 1.446 . S
C1655 C1654 1.497 . S
C1656 C1657 1.623 . S
C1656 H1713 0.962 . S
C1656 H1714 0.959 . S
C1656 H1715 0.958 . S
C1657 C1656 1.623 . S
C1657 O1660 1.475 . S
C1657 H1686 0.980 1_545 S
O1658 C1603 1.426 . S
O1658 C1604 1.334 . S
O1659 C1631 1.412 . S
O1659 C1632 1.393 . S
O1660 C1622 1.435 . S
O1660 C1657 1.475 . S
O1661 C1613 1.468 . S
O1661 C1614 1.408 . S
H1662 C1603 0.980 1_545 S
H1663 C1602 0.959 . S
H1664 C1602 0.959 . S
H1665 C1602 0.960 . S
H1666 C1605 0.929 . S
H1667 C1609 0.929 . S
H1668 C1610 0.959 . S
H1669 C1610 0.961 . S
H1670 C1610 0.961 . S
H1671 C1611 0.960 . S
H1672 C1611 0.960 . S
H1673 C1611 0.961 . S
H1674 C1613 0.980 . S
H1675 C1612 0.961 . S
H1676 C1612 0.960 . S
H1677 C1612 0.959 . S
H1678 C1615 0.929 1_565 S
H1679 C1619 0.931 . S
H1680 C1620 0.959 . S
H1681 C1620 0.961 . S
H1682 C1620 0.959 . S
H1683 C1621 0.960 . S
H1684 C1621 0.960 . S
H1685 C1621 0.960 . S
H1686 C1657 0.980 1_565 S
H1687 C1623 0.930 . S
H1688 C1627 0.930 . S
H1689 C1628 0.961 . S
H1690 C1628 0.960 . S
H1691 C1628 0.958 . S
H1692 C1629 0.961 . S
H1693 C1629 0.960 . S
H1694 C1629 0.960 . S
H1695 C1631 0.992 . S
H1696 C1630 0.961 . S
H1697 C1630 0.961 . S
H1698 C1630 0.959 . S
H1699 C1633 0.932 . S
H1700 C1637 0.929 . S
H1701 C1638 0.961 . S
H1702 C1638 0.959 . S
H1703 C1638 0.959 . S
H1704 C1639 0.960 . S
H1705 C1639 0.962 . S
H1706 C1639 0.961 . S
H1707 C1641 0.929 . S
H1708 C1644 0.930 . S
H1709 C1645 0.929 . S
H1710 C1648 0.930 . S
H1711 C1651 0.969 . S
H1712 C1652 0.930 . S
H1713 C1656 0.962 . S
H1714 C1656 0.959 . S
H1715 C1656 0.958 . S
C1716 C1717 1.560 . S
C1716 H1777 0.959 . S
C1716 H1778 0.959 . S
C1716 H1779 0.960 . S
C1717 C1716 1.560 . S
C1717 O1772 1.426 . S
C1717 H1776 0.980 1_455 S
C1718 C1719 1.407 1_455 S
C1718 C1723 1.418 . S
C1718 O1772 1.334 . S
C1719 C1718 1.407 1_655 S
C1719 C1720 1.360 . S
C1719 H1780 0.929 . S
C1720 C1719 1.360 . S
C1720 C1721 1.401 . S
C1720 C1724 1.527 . S
C1721 C1720 1.401 . S
C1721 C1722 1.405 1_655 S
C1721 C1754 1.587 . S
C1722 C1721 1.405 1_455 S
C1722 C1723 1.332 . S
C1722 C1725 1.496 . S
C1723 C1718 1.418 . S
C1723 C1722 1.332 . S
C1723 H1781 0.929 . S
C1724 C1720 1.527 . S
C1724 H1782 0.959 . S
C1724 H1783 0.961 . S
C1724 H1784 0.961 . S
C1725 C1722 1.496 . S
C1725 H1785 0.960 . S
C1725 H1786 0.960 . S
C1725 H1787 0.961 . S
C1726 C1727 1.517 . S
C1726 H1789 0.961 . S
C1726 H1790 0.960 . S
C1726 H1791 0.959 . S
C1727 C1726 1.517 . S
C1727 O1775 1.468 . S
C1727 H1788 0.980 . S
C1728 C1729 1.349 . S
C1728 C1733 1.367 . S
C1728 O1775 1.408 . S
C1729 C1728 1.349 . S
C1729 C1730 1.407 . S
C1729 H1792 0.921 1_655 S
C1730 C1729 1.407 . S
C1730 C1731 1.449 . S
C1730 C1734 1.535 1_655 S
C1731 C1730 1.449 . S
C1731 C1732 1.384 . S
C1731 C1756 1.553 . S
C1732 C1731 1.384 . S
C1732 C1733 1.364 . S
C1732 C1735 1.450 . S
C1733 C1728 1.367 . S
C1733 C1732 1.364 . S
C1733 H1793 0.931 . S
C1734 C1730 1.535 1_455 S
C1734 H1794 0.959 . S
C1734 H1795 0.961 . S
C1734 H1796 0.959 . S
C1735 C1732 1.450 . S
C1735 H1797 0.960 . S
C1735 H1798 0.960 . S
C1735 H1799 0.960 . S
C1736 C1737 1.309 1_655 S
C1736 C1741 1.304 . S
C1736 O1774 1.435 . S
C1737 C1736 1.309 1_455 S
C1737 C1738 1.476 . S
C1737 H1801 0.930 . S
C1738 C1737 1.476 . S
C1738 C1739 1.400 1_455 S
C1738 C1742 1.567 . S
C1739 C1738 1.400 1_655 S
C1739 C1740 1.373 . S
C1739 C1761 1.432 . S
C1740 C1739 1.373 . S
C1740 C1741 1.339 . S
C1740 C1743 1.530 . S
C1741 C1736 1.304 . S
C1741 C1740 1.339 . S
C1741 H1802 0.930 . S
C1742 C1738 1.567 . S
C1742 H1803 0.961 . S
C1742 H1804 0.960 . S
C1742 H1805 0.958 . S
C1743 C1740 1.530 . S
C1743 H1806 0.961 . S
C1743 H1807 0.960 . S
C1743 H1808 0.960 . S
C1744 C1745 1.530 . S
C1744 H1810 0.961 . S
C1744 H1811 0.961 . S
C1744 H1812 0.959 . S
C1745 C1744 1.530 . S
C1745 O1773 1.412 . S
C1745 H1809 0.982 . S
C1746 C1747 1.288 . S
C1746 C1751 1.377 1_455 S
C1746 O1773 1.393 . S
C1747 C1746 1.288 . S
C1747 C1748 1.369 . S
C1747 H1813 0.932 . S
C1748 C1747 1.369 . S
C1748 C1749 1.398 . S
C1748 C1752 1.527 . S
C1749 C1748 1.398 . S
C1749 C1750 1.380 1_455 S
C1749 C1763 1.497 1_455 S
C1750 C1749 1.380 1_655 S
C1750 C1751 1.383 . S
C1750 C1753 1.603 . S
C1751 C1746 1.377 1_655 S
C1751 C1750 1.383 . S
C1751 H1814 0.929 . S
C1752 C1748 1.527 . S
C1752 H1815 0.961 . S
C1752 H1816 0.959 . S
C1752 H1817 0.959 . S
C1753 C1750 1.603 . S
C1753 H1818 0.960 . S
C1753 H1819 0.962 . S
C1753 H1820 0.961 . S
C1754 C1721 1.587 . S
C1754 C1755 1.360 . S
C1754 C1767 1.412 . S
C1755 C1754 1.360 . S
C1755 C1756 1.365 . S
C1755 H1821 0.929 . S
C1756 C1731 1.553 . S
C1756 C1755 1.365 . S
C1756 C1757 1.404 . S
C1757 C1756 1.404 . S
C1757 C1758 1.395 . S
C1757 C1768 1.451 . S
C1758 C1757 1.395 . S
C1758 C1759 1.322 . S
C1758 H1822 0.930 . S
C1759 C1758 1.322 . S
C1759 C1760 1.459 . S
C1759 H1823 0.929 . S
C1760 C1759 1.459 . S
C1760 C1761 1.445 . S
C1760 C1769 1.395 . S
C1761 C1739 1.432 . S
C1761 C1760 1.445 . S
C1761 C1762 1.370 . S
C1762 C1761 1.370 . S
C1762 C1763 1.438 . S
C1762 H1824 0.930 . S
C1763 C1749 1.497 1_655 S
C1763 C1762 1.438 . S
C1763 C1764 1.360 . S
C1764 C1763 1.360 . S
C1764 C1765 1.401 . S
C1764 C1769 1.446 . S
C1765 C1764 1.401 . S
C1765 C1766 1.347 . S
C1765 H1825 0.911 . S
C1766 C1765 1.347 . S
C1766 C1767 1.455 . S
C1766 H1826 0.930 . S
C1767 C1754 1.412 . S
C1767 C1766 1.455 . S
C1767 C1768 1.331 . S
C1768 C1757 1.451 . S
C1768 C1767 1.331 . S
C1768 C1769 1.497 . S
C1769 C1760 1.395 . S
C1769 C1764 1.446 . S
C1769 C1768 1.497 . S
C1770 C1771 1.581 1_655 S
C1770 H1827 0.996 . S
C1770 H1828 0.959 . S
C1770 H1829 0.958 . S
C1771 C1770 1.581 1_455 S
C1771 O1774 1.442 1_455 S
C1771 H1800 0.986 . S
O1772 C1717 1.426 . S
O1772 C1718 1.334 . S
O1773 C1745 1.412 . S
O1773 C1746 1.393 . S
O1774 C1736 1.435 . S
O1774 C1771 1.442 1_655 S
O1775 C1727 1.468 . S
O1775 C1728 1.408 . S
H1776 C1717 0.980 1_655 S
H1777 C1716 0.959 . S
H1778 C1716 0.959 . S
H1779 C1716 0.960 . S
H1780 C1719 0.929 . S
H1781 C1723 0.929 . S
H1782 C1724 0.959 . S
H1783 C1724 0.961 . S
H1784 C1724 0.961 . S
H1785 C1725 0.960 . S
H1786 C1725 0.960 . S
H1787 C1725 0.961 . S
H1788 C1727 0.980 . S
H1789 C1726 0.961 . S
H1790 C1726 0.960 . S
H1791 C1726 0.959 . S
H1792 C1729 0.921 1_455 S
H1793 C1733 0.931 . S
H1794 C1734 0.959 . S
H1795 C1734 0.961 . S
H1796 C1734 0.959 . S
H1797 C1735 0.960 . S
H1798 C1735 0.960 . S
H1799 C1735 0.960 . S
H1800 C1771 0.986 . S
H1801 C1737 0.930 . S
H1802 C1741 0.930 . S
H1803 C1742 0.961 . S
H1804 C1742 0.960 . S
H1805 C1742 0.958 . S
H1806 C1743 0.961 . S
H1807 C1743 0.960 . S
H1808 C1743 0.960 . S
H1809 C1745 0.982 . S
H1810 C1744 0.961 . S
H1811 C1744 0.961 . S
H1812 C1744 0.959 . S
H1813 C1747 0.932 . S
H1814 C1751 0.929 . S
H1815 C1752 0.961 . S
H1816 C1752 0.959 . S
H1817 C1752 0.959 . S
H1818 C1753 0.960 . S
H1819 C1753 0.962 . S
H1820 C1753 0.961 . S
H1821 C1755 0.929 . S
H1822 C1758 0.930 . S
H1823 C1759 0.929 . S
H1824 C1762 0.930 . S
H1825 C1765 0.911 . S
H1826 C1766 0.930 . S
H1827 C1770 0.996 . S
H1828 C1770 0.959 . S
H1829 C1770 0.958 . S
C1830 C1831 1.560 . S
C1830 H1891 0.959 . S
C1830 H1892 0.959 . S
C1830 H1893 0.960 . S
C1831 C1830 1.560 . S
C1831 O1886 1.426 . S
C1831 H1890 0.980 . S
C1832 C1833 1.407 . S
C1832 C1837 1.418 . S
C1832 O1886 1.334 . S
C1833 C1832 1.407 . S
C1833 C1834 1.360 . S
C1833 H1894 0.929 . S
C1834 C1833 1.360 . S
C1834 C1835 1.401 . S
C1834 C1838 1.527 . S
C1835 C1834 1.401 . S
C1835 C1836 1.405 . S
C1835 C1868 1.587 . S
C1836 C1835 1.405 . S
C1836 C1837 1.332 . S
C1836 C1839 1.496 . S
C1837 C1832 1.418 . S
C1837 C1836 1.332 . S
C1837 H1895 0.929 . S
C1838 C1834 1.527 . S
C1838 H1896 0.959 . S
C1838 H1897 0.961 . S
C1838 H1898 0.961 . S
C1839 C1836 1.496 . S
C1839 H1899 0.960 . S
C1839 H1900 0.960 . S
C1839 H1901 0.961 . S
C1840 C1841 1.517 . S
C1840 H1903 0.961 . S
C1840 H1904 0.960 . S
C1840 H1905 0.959 . S
C1841 C1840 1.517 . S
C1841 O1889 1.468 . S
C1841 H1902 0.980 . S
C1842 C1843 1.349 . S
C1842 C1847 1.367 . S
C1842 O1889 1.408 . S
C1843 C1842 1.349 . S
C1843 C1844 1.407 . S
C1843 H1906 0.930 . S
C1844 C1843 1.407 . S
C1844 C1845 1.449 . S
C1844 C1848 1.535 . S
C1845 C1844 1.449 . S
C1845 C1846 1.384 . S
C1845 C1870 1.553 . S
C1846 C1845 1.384 . S
C1846 C1847 1.364 . S
C1846 C1849 1.450 . S
C1847 C1842 1.367 . S
C1847 C1846 1.364 . S
C1847 H1907 0.931 . S
C1848 C1844 1.535 . S
C1848 H1908 0.959 . S
C1848 H1909 0.961 . S
C1848 H1910 0.959 . S
C1849 C1846 1.450 . S
C1849 H1911 0.960 . S
C1849 H1912 0.960 . S
C1849 H1913 0.960 . S
C1850 C1851 1.309 . S
C1850 C1855 1.304 . S
C1850 O1888 1.435 . S
C1851 C1850 1.309 . S
C1851 C1852 1.476 . S
C1851 H1915 0.930 . S
C1852 C1851 1.476 . S
C1852 C1853 1.400 . S
C1852 C1856 1.567 . S
C1853 C1852 1.400 . S
C1853 C1854 1.373 . S
C1853 C1875 1.432 . S
C1854 C1853 1.373 . S
C1854 C1855 1.339 . S
C1854 C1857 1.530 . S
C1855 C1850 1.304 . S
C1855 C1854 1.339 . S
C1855 H1916 0.930 . S
C1856 C1852 1.567 . S
C1856 H1917 0.961 . S
C1856 H1918 0.960 . S
C1856 H1919 0.958 . S
C1857 C1854 1.530 . S
C1857 H1920 0.961 . S
C1857 H1921 0.960 . S
C1857 H1922 0.960 . S
C1858 C1859 1.530 . S
C1858 H1924 0.961 . S
C1858 H1925 0.961 . S
C1858 H1926 0.959 . S
C1859 C1858 1.530 . S
C1859 O1887 1.412 . S
C1859 H1923 0.980 . S
C1860 C1861 1.288 . S
C1860 C1865 1.377 . S
C1860 O1887 1.393 . S
C1861 C1860 1.288 . S
C1861 C1862 1.369 . S
C1861 H1927 0.932 . S
C1862 C1861 1.369 . S
C1862 C1863 1.398 . S
C1862 C1866 1.527 . S
C1863 C1862 1.398 . S
C1863 C1864 1.380 . S
C1863 C1877 1.497 . S
C1864 C1863 1.380 . S
C1864 C1865 1.383 . S
C1864 C1867 1.603 . S
C1865 C1860 1.377 . S
C1865 C1864 1.383 . S
C1865 H1928 0.929 . S
C1866 C1862 1.527 . S
C1866 H1929 0.961 . S
C1866 H1930 0.959 . S
C1866 H1931 0.959 . S
C1867 C1864 1.603 . S
C1867 H1932 0.960 . S
C1867 H1933 0.962 . S
C1867 H1934 0.961 . S
C1868 C1835 1.587 . S
C1868 C1869 1.360 . S
C1868 C1881 1.412 . S
C1869 C1868 1.360 . S
C1869 C1870 1.365 . S
C1869 H1935 0.929 . S
C1870 C1845 1.553 . S
C1870 C1869 1.365 . S
C1870 C1871 1.404 . S
C1871 C1870 1.404 . S
C1871 C1872 1.395 . S
C1871 C1882 1.451 . S
C1872 C1871 1.395 . S
C1872 C1873 1.322 . S
C1872 H1936 0.930 . S
C1873 C1872 1.322 . S
C1873 C1874 1.459 . S
C1873 H1937 0.929 . S
C1874 C1873 1.459 . S
C1874 C1875 1.445 . S
C1874 C1883 1.395 . S
C1875 C1853 1.432 . S
C1875 C1874 1.445 . S
C1875 C1876 1.370 . S
C1876 C1875 1.370 . S
C1876 C1877 1.438 . S
C1876 H1938 0.930 . S
C1877 C1863 1.497 . S
C1877 C1876 1.438 . S
C1877 C1878 1.360 . S
C1878 C1877 1.360 . S
C1878 C1879 1.401 . S
C1878 C1883 1.446 . S
C1879 C1878 1.401 . S
C1879 C1880 1.347 . S
C1879 H1939 0.929 . S
C1880 C1879 1.347 . S
C1880 C1881 1.455 . S
C1880 H1940 0.930 . S
C1881 C1868 1.412 . S
C1881 C1880 1.455 . S
C1881 C1882 1.331 . S
C1882 C1871 1.451 . S
C1882 C1881 1.331 . S
C1882 C1883 1.497 . S
C1883 C1874 1.395 . S
C1883 C1878 1.446 . S
C1883 C1882 1.497 . S
C1884 C1885 1.582 . S
C1884 H1941 0.962 . S
C1884 H1942 0.959 . S
C1884 H1943 0.958 . S
C1885 C1884 1.582 . S
C1885 O1888 1.458 . S
C1885 H1914 0.980 . S
O1886 C1831 1.426 . S
O1886 C1832 1.334 . S
O1887 C1859 1.412 . S
O1887 C1860 1.393 . S
O1888 C1850 1.435 . S
O1888 C1885 1.458 . S
O1889 C1841 1.468 . S
O1889 C1842 1.408 . S
H1890 C1831 0.980 . S
H1891 C1830 0.959 . S
H1892 C1830 0.959 . S
H1893 C1830 0.960 . S
H1894 C1833 0.929 . S
H1895 C1837 0.929 . S
H1896 C1838 0.959 . S
H1897 C1838 0.961 . S
H1898 C1838 0.961 . S
H1899 C1839 0.960 . S
H1900 C1839 0.960 . S
H1901 C1839 0.961 . S
H1902 C1841 0.980 . S
H1903 C1840 0.961 . S
H1904 C1840 0.960 . S
H1905 C1840 0.959 . S
H1906 C1843 0.930 . S
H1907 C1847 0.931 . S
H1908 C1848 0.959 . S
H1909 C1848 0.961 . S
H1910 C1848 0.959 . S
H1911 C1849 0.960 . S
H1912 C1849 0.960 . S
H1913 C1849 0.960 . S
H1914 C1885 0.980 . S
H1915 C1851 0.930 . S
H1916 C1855 0.930 . S
H1917 C1856 0.961 . S
H1918 C1856 0.960 . S
H1919 C1856 0.958 . S
H1920 C1857 0.961 . S
H1921 C1857 0.960 . S
H1922 C1857 0.960 . S
H1923 C1859 0.980 . S
H1924 C1858 0.961 . S
H1925 C1858 0.961 . S
H1926 C1858 0.959 . S
H1927 C1861 0.932 . S
H1928 C1865 0.929 . S
H1929 C1866 0.961 . S
H1930 C1866 0.959 . S
H1931 C1866 0.959 . S
H1932 C1867 0.960 . S
H1933 C1867 0.962 . S
H1934 C1867 0.961 . S
H1935 C1869 0.929 . S
H1936 C1872 0.930 . S
H1937 C1873 0.929 . S
H1938 C1876 0.930 . S
H1939 C1879 0.929 . S
H1940 C1880 0.930 . S
H1941 C1884 0.962 . S
H1942 C1884 0.959 . S
H1943 C1884 0.958 . S
C1944 C1945 1.560 . S
C1944 H2005 0.959 . S
C1944 H2006 0.959 . S
C1944 H2007 0.960 . S
C1945 C1944 1.560 . S
C1945 O2000 1.426 . S
C1945 H2004 0.980 . S
C1946 C1947 1.407 . S
C1946 C1951 1.418 . S
C1946 O2000 1.334 . S
C1947 C1946 1.407 . S
C1947 C1948 1.360 . S
C1947 H2008 0.929 . S
C1948 C1947 1.360 . S
C1948 C1949 1.401 . S
C1948 C1952 1.527 . S
C1949 C1948 1.401 . S
C1949 C1950 1.405 . S
C1949 C1982 1.587 . S
C1950 C1949 1.405 . S
C1950 C1951 1.332 . S
C1950 C1953 1.496 . S
C1951 C1946 1.418 . S
C1951 C1950 1.332 . S
C1951 H2009 0.929 . S
C1952 C1948 1.527 . S
C1952 H2010 0.959 . S
C1952 H2011 0.961 . S
C1952 H2012 0.961 . S
C1953 C1950 1.496 . S
C1953 H2013 0.960 . S
C1953 H2014 0.960 . S
C1953 H2015 0.961 . S
C1954 C1955 1.517 . S
C1954 H2017 0.961 . S
C1954 H2018 0.960 . S
C1954 H2019 0.959 . S
C1955 C1954 1.517 . S
C1955 O2003 1.468 . S
C1955 H2016 0.980 . S
C1956 C1957 1.349 . S
C1956 C1961 1.367 . S
C1956 O2003 1.408 . S
C1957 C1956 1.349 . S
C1957 C1958 1.407 . S
C1957 H2020 0.930 . S
C1958 C1957 1.407 . S
C1958 C1959 1.449 . S
C1958 C1962 1.535 . S
C1959 C1958 1.449 . S
C1959 C1960 1.384 . S
C1959 C1984 1.553 . S
C1960 C1959 1.384 . S
C1960 C1961 1.364 . S
C1960 C1963 1.450 . S
C1961 C1956 1.367 . S
C1961 C1960 1.364 . S
C1961 H2021 0.931 . S
C1962 C1958 1.535 . S
C1962 H2022 0.959 . S
C1962 H2023 0.961 . S
C1962 H2024 0.959 . S
C1963 C1960 1.450 . S
C1963 H2025 0.960 . S
C1963 H2026 0.960 . S
C1963 H2027 0.960 . S
C1964 C1965 1.309 . S
C1964 C1969 1.304 . S
C1964 O2002 1.435 . S
C1965 C1964 1.309 . S
C1965 C1966 1.476 . S
C1965 H2029 0.930 . S
C1966 C1965 1.476 . S
C1966 C1967 1.400 . S
C1966 C1970 1.567 . S
C1967 C1966 1.400 . S
C1967 C1968 1.373 . S
C1967 C1989 1.432 . S
C1968 C1967 1.373 . S
C1968 C1969 1.339 . S
C1968 C1971 1.530 . S
C1969 C1964 1.304 . S
C1969 C1968 1.339 . S
C1969 H2030 0.930 . S
C1970 C1966 1.567 . S
C1970 H2031 0.961 . S
C1970 H2032 0.960 . S
C1970 H2033 0.958 . S
C1971 C1968 1.530 . S
C1971 H2034 0.961 . S
C1971 H2035 0.960 . S
C1971 H2036 0.960 . S
C1972 C1973 1.530 . S
C1972 H2038 0.961 . S
C1972 H2039 0.961 . S
C1972 H2040 0.959 . S
C1973 C1972 1.530 . S
C1973 O2001 1.412 . S
C1973 H2037 0.980 . S
C1974 C1975 1.288 . S
C1974 C1979 1.377 . S
C1974 O2001 1.393 . S
C1975 C1974 1.288 . S
C1975 C1976 1.369 . S
C1975 H2041 0.932 . S
C1976 C1975 1.369 . S
C1976 C1977 1.398 . S
C1976 C1980 1.527 . S
C1977 C1976 1.398 . S
C1977 C1978 1.380 . S
C1977 C1991 1.497 . S
C1978 C1977 1.380 . S
C1978 C1979 1.383 . S
C1978 C1981 1.603 . S
C1979 C1974 1.377 . S
C1979 C1978 1.383 . S
C1979 H2042 0.929 . S
C1980 C1976 1.527 . S
C1980 H2043 0.961 . S
C1980 H2044 0.959 . S
C1980 H2045 0.959 . S
C1981 C1978 1.603 . S
C1981 H2046 0.960 . S
C1981 H2047 0.962 . S
C1981 H2048 0.961 . S
C1982 C1949 1.587 . S
C1982 C1983 1.360 . S
C1982 C1995 1.412 . S
C1983 C1982 1.360 . S
C1983 C1984 1.365 . S
C1983 H2049 0.929 . S
C1984 C1959 1.553 . S
C1984 C1983 1.365 . S
C1984 C1985 1.404 . S
C1985 C1984 1.404 . S
C1985 C1986 1.395 . S
C1985 C1996 1.451 . S
C1986 C1985 1.395 . S
C1986 C1987 1.322 . S
C1986 H2050 0.930 . S
C1987 C1986 1.322 . S
C1987 C1988 1.459 . S
C1987 H2051 0.929 . S
C1988 C1987 1.459 . S
C1988 C1989 1.445 . S
C1988 C1997 1.395 . S
C1989 C1967 1.432 . S
C1989 C1988 1.445 . S
C1989 C1990 1.370 . S
C1990 C1989 1.370 . S
C1990 C1991 1.438 . S
C1990 H2052 0.930 . S
C1991 C1977 1.497 . S
C1991 C1990 1.438 . S
C1991 C1992 1.360 . S
C1992 C1991 1.360 . S
C1992 C1993 1.401 . S
C1992 C1997 1.446 . S
C1993 C1992 1.401 . S
C1993 C1994 1.347 . S
C1993 H2053 0.929 . S
C1994 C1993 1.347 . S
C1994 C1995 1.455 . S
C1994 H2054 0.930 . S
C1995 C1982 1.412 . S
C1995 C1994 1.455 . S
C1995 C1996 1.331 . S
C1996 C1985 1.451 . S
C1996 C1995 1.331 . S
C1996 C1997 1.497 . S
C1997 C1988 1.395 . S
C1997 C1992 1.446 . S
C1997 C1996 1.497 . S
C1998 C1999 1.582 . S
C1998 H2055 0.962 . S
C1998 H2056 0.959 . S
C1998 H2057 0.958 . S
C1999 C1998 1.582 . S
C1999 O2002 1.458 . S
C1999 H2028 0.980 . S
O2000 C1945 1.426 . S
O2000 C1946 1.334 . S
O2001 C1973 1.412 . S
O2001 C1974 1.393 . S
O2002 C1964 1.435 . S
O2002 C1999 1.458 . S
O2003 C1955 1.468 . S
O2003 C1956 1.408 . S
H2004 C1945 0.980 . S
H2005 C1944 0.959 . S
H2006 C1944 0.959 . S
H2007 C1944 0.960 . S
H2008 C1947 0.929 . S
H2009 C1951 0.929 . S
H2010 C1952 0.959 . S
H2011 C1952 0.961 . S
H2012 C1952 0.961 . S
H2013 C1953 0.960 . S
H2014 C1953 0.960 . S
H2015 C1953 0.961 . S
H2016 C1955 0.980 . S
H2017 C1954 0.961 . S
H2018 C1954 0.960 . S
H2019 C1954 0.959 . S
H2020 C1957 0.930 . S
H2021 C1961 0.931 . S
H2022 C1962 0.959 . S
H2023 C1962 0.961 . S
H2024 C1962 0.959 . S
H2025 C1963 0.960 . S
H2026 C1963 0.960 . S
H2027 C1963 0.960 . S
H2028 C1999 0.980 . S
H2029 C1965 0.930 . S
H2030 C1969 0.930 . S
H2031 C1970 0.961 . S
H2032 C1970 0.960 . S
H2033 C1970 0.958 . S
H2034 C1971 0.961 . S
H2035 C1971 0.960 . S
H2036 C1971 0.960 . S
H2037 C1973 0.980 . S
H2038 C1972 0.961 . S
H2039 C1972 0.961 . S
H2040 C1972 0.959 . S
H2041 C1975 0.932 . S
H2042 C1979 0.929 . S
H2043 C1980 0.961 . S
H2044 C1980 0.959 . S
H2045 C1980 0.959 . S
H2046 C1981 0.960 . S
H2047 C1981 0.962 . S
H2048 C1981 0.961 . S
H2049 C1983 0.929 . S
H2050 C1986 0.930 . S
H2051 C1987 0.929 . S
H2052 C1990 0.930 . S
H2053 C1993 0.929 . S
H2054 C1994 0.930 . S
H2055 C1998 0.962 . S
H2056 C1998 0.959 . S
H2057 C1998 0.958 . S
C2058 C2059 1.560 . S
C2058 H2119 0.959 . S
C2058 H2120 0.959 . S
C2058 H2121 0.960 . S
C2059 C2058 1.560 . S
C2059 O2114 1.426 . S
C2059 H2118 0.980 . S
C2060 C2061 1.407 . S
C2060 C2065 1.418 . S
C2060 O2114 1.334 . S
C2061 C2060 1.407 . S
C2061 C2062 1.360 . S
C2061 H2122 0.929 . S
C2062 C2061 1.360 . S
C2062 C2063 1.401 . S
C2062 C2066 1.527 . S
C2063 C2062 1.401 . S
C2063 C2064 1.405 . S
C2063 C2096 1.587 . S
C2064 C2063 1.405 . S
C2064 C2065 1.332 . S
C2064 C2067 1.496 . S
C2065 C2060 1.418 . S
C2065 C2064 1.332 . S
C2065 H2123 0.929 . S
C2066 C2062 1.527 . S
C2066 H2124 0.959 . S
C2066 H2125 0.961 . S
C2066 H2126 0.961 . S
C2067 C2064 1.496 . S
C2067 H2127 0.960 . S
C2067 H2128 0.960 . S
C2067 H2129 0.961 . S
C2068 C2069 1.517 . S
C2068 H2131 0.961 . S
C2068 H2132 0.960 . S
C2068 H2133 0.959 . S
C2069 C2068 1.517 . S
C2069 O2117 1.468 . S
C2069 H2130 0.980 . S
C2070 C2071 1.349 . S
C2070 C2075 1.367 . S
C2070 O2117 1.408 . S
C2071 C2070 1.349 . S
C2071 C2072 1.407 . S
C2071 H2134 0.930 . S
C2072 C2071 1.407 . S
C2072 C2073 1.449 . S
C2072 C2076 1.535 . S
C2073 C2072 1.449 . S
C2073 C2074 1.384 . S
C2073 C2098 1.553 . S
C2074 C2073 1.384 . S
C2074 C2075 1.364 . S
C2074 C2077 1.450 . S
C2075 C2070 1.367 . S
C2075 C2074 1.364 . S
C2075 H2135 0.931 . S
C2076 C2072 1.535 . S
C2076 H2136 0.959 . S
C2076 H2137 0.961 . S
C2076 H2138 0.959 . S
C2077 C2074 1.450 . S
C2077 H2139 0.960 . S
C2077 H2140 0.960 . S
C2077 H2141 0.960 . S
C2078 C2079 1.309 . S
C2078 C2083 1.304 . S
C2078 O2116 1.435 . S
C2079 C2078 1.309 . S
C2079 C2080 1.476 . S
C2079 H2143 0.930 . S
C2080 C2079 1.476 . S
C2080 C2081 1.400 . S
C2080 C2084 1.567 . S
C2081 C2080 1.400 . S
C2081 C2082 1.373 . S
C2081 C2103 1.432 . S
C2082 C2081 1.373 . S
C2082 C2083 1.339 . S
C2082 C2085 1.530 . S
C2083 C2078 1.304 . S
C2083 C2082 1.339 . S
C2083 H2144 0.930 . S
C2084 C2080 1.567 . S
C2084 H2145 0.961 . S
C2084 H2146 0.960 . S
C2084 H2147 0.958 . S
C2085 C2082 1.530 . S
C2085 H2148 0.961 . S
C2085 H2149 0.960 . S
C2085 H2150 0.960 . S
C2086 C2087 1.530 . S
C2086 H2152 0.961 . S
C2086 H2153 0.961 . S
C2086 H2154 0.959 . S
C2087 C2086 1.530 . S
C2087 O2115 1.412 . S
C2087 H2151 0.980 . S
C2088 C2089 1.288 . S
C2088 C2093 1.377 . S
C2088 O2115 1.393 . S
C2089 C2088 1.288 . S
C2089 C2090 1.369 . S
C2089 H2155 0.932 . S
C2090 C2089 1.369 . S
C2090 C2091 1.398 . S
C2090 C2094 1.527 . S
C2091 C2090 1.398 . S
C2091 C2092 1.380 . S
C2091 C2105 1.497 . S
C2092 C2091 1.380 . S
C2092 C2093 1.383 . S
C2092 C2095 1.603 . S
C2093 C2088 1.377 . S
C2093 C2092 1.383 . S
C2093 H2156 0.929 . S
C2094 C2090 1.527 . S
C2094 H2157 0.961 . S
C2094 H2158 0.959 . S
C2094 H2159 0.959 . S
C2095 C2092 1.603 . S
C2095 H2160 0.960 . S
C2095 H2161 0.962 . S
C2095 H2162 0.961 . S
C2096 C2063 1.587 . S
C2096 C2097 1.360 . S
C2096 C2109 1.412 . S
C2097 C2096 1.360 . S
C2097 C2098 1.365 . S
C2097 H2163 0.929 . S
C2098 C2073 1.553 . S
C2098 C2097 1.365 . S
C2098 C2099 1.404 . S
C2099 C2098 1.404 . S
C2099 C2100 1.395 . S
C2099 C2110 1.451 . S
C2100 C2099 1.395 . S
C2100 C2101 1.322 . S
C2100 H2164 0.930 . S
C2101 C2100 1.322 . S
C2101 C2102 1.459 . S
C2101 H2165 0.929 . S
C2102 C2101 1.459 . S
C2102 C2103 1.445 . S
C2102 C2111 1.395 . S
C2103 C2081 1.432 . S
C2103 C2102 1.445 . S
C2103 C2104 1.370 . S
C2104 C2103 1.370 . S
C2104 C2105 1.438 . S
C2104 H2166 0.930 . S
C2105 C2091 1.497 . S
C2105 C2104 1.438 . S
C2105 C2106 1.360 . S
C2106 C2105 1.360 . S
C2106 C2107 1.401 . S
C2106 C2111 1.446 . S
C2107 C2106 1.401 . S
C2107 C2108 1.347 . S
C2107 H2167 0.929 . S
C2108 C2107 1.347 . S
C2108 C2109 1.455 . S
C2108 H2168 0.930 . S
C2109 C2096 1.412 . S
C2109 C2108 1.455 . S
C2109 C2110 1.331 . S
C2110 C2099 1.451 . S
C2110 C2109 1.331 . S
C2110 C2111 1.497 . S
C2111 C2102 1.395 . S
C2111 C2106 1.446 . S
C2111 C2110 1.497 . S
C2112 C2113 1.582 . S
C2112 H2169 0.962 . S
C2112 H2170 0.959 . S
C2112 H2171 0.958 . S
C2113 C2112 1.582 . S
C2113 O2116 1.458 . S
C2113 H2142 0.980 . S
O2114 C2059 1.426 . S
O2114 C2060 1.334 . S
O2115 C2087 1.412 . S
O2115 C2088 1.393 . S
O2116 C2078 1.435 . S
O2116 C2113 1.458 . S
O2117 C2069 1.468 . S
O2117 C2070 1.408 . S
H2118 C2059 0.980 . S
H2119 C2058 0.959 . S
H2120 C2058 0.959 . S
H2121 C2058 0.960 . S
H2122 C2061 0.929 . S
H2123 C2065 0.929 . S
H2124 C2066 0.959 . S
H2125 C2066 0.961 . S
H2126 C2066 0.961 . S
H2127 C2067 0.960 . S
H2128 C2067 0.960 . S
H2129 C2067 0.961 . S
H2130 C2069 0.980 . S
H2131 C2068 0.961 . S
H2132 C2068 0.960 . S
H2133 C2068 0.959 . S
H2134 C2071 0.930 . S
H2135 C2075 0.931 . S
H2136 C2076 0.959 . S
H2137 C2076 0.961 . S
H2138 C2076 0.959 . S
H2139 C2077 0.960 . S
H2140 C2077 0.960 . S
H2141 C2077 0.960 . S
H2142 C2113 0.980 . S
H2143 C2079 0.930 . S
H2144 C2083 0.930 . S
H2145 C2084 0.961 . S
H2146 C2084 0.960 . S
H2147 C2084 0.958 . S
H2148 C2085 0.961 . S
H2149 C2085 0.960 . S
H2150 C2085 0.960 . S
H2151 C2087 0.980 . S
H2152 C2086 0.961 . S
H2153 C2086 0.961 . S
H2154 C2086 0.959 . S
H2155 C2089 0.932 . S
H2156 C2093 0.929 . S
H2157 C2094 0.961 . S
H2158 C2094 0.959 . S
H2159 C2094 0.959 . S
H2160 C2095 0.960 . S
H2161 C2095 0.962 . S
H2162 C2095 0.961 . S
H2163 C2097 0.929 . S
H2164 C2100 0.930 . S
H2165 C2101 0.929 . S
H2166 C2104 0.930 . S
H2167 C2107 0.929 . S
H2168 C2108 0.930 . S
H2169 C2112 0.962 . S
H2170 C2112 0.959 . S
H2171 C2112 0.958 . S
C2172 C2173 1.560 . S
C2172 H2233 0.959 . S
C2172 H2234 0.959 . S
C2172 H2235 0.960 . S
C2173 C2172 1.560 . S
C2173 O2228 1.426 . S
C2173 H2232 0.980 . S
C2174 C2175 1.407 . S
C2174 C2179 1.418 . S
C2174 O2228 1.334 . S
C2175 C2174 1.407 . S
C2175 C2176 1.360 . S
C2175 H2236 0.929 . S
C2176 C2175 1.360 . S
C2176 C2177 1.401 . S
C2176 C2180 1.527 . S
C2177 C2176 1.401 . S
C2177 C2178 1.405 . S
C2177 C2210 1.587 . S
C2178 C2177 1.405 . S
C2178 C2179 1.332 . S
C2178 C2181 1.496 . S
C2179 C2174 1.418 . S
C2179 C2178 1.332 . S
C2179 H2237 0.929 . S
C2180 C2176 1.527 . S
C2180 H2238 0.959 . S
C2180 H2239 0.961 . S
C2180 H2240 0.961 . S
C2181 C2178 1.496 . S
C2181 H2241 0.960 . S
C2181 H2242 0.960 . S
C2181 H2243 0.961 . S
C2182 C2183 1.517 . S
C2182 H2245 0.961 . S
C2182 H2246 0.960 . S
C2182 H2247 0.959 . S
C2183 C2182 1.517 . S
C2183 O2231 1.468 . S
C2183 H2244 0.980 . S
C2184 C2185 1.349 . S
C2184 C2189 1.367 . S
C2184 O2231 1.408 . S
C2185 C2184 1.349 . S
C2185 C2186 1.407 . S
C2185 H2248 0.930 . S
C2186 C2185 1.407 . S
C2186 C2187 1.449 . S
C2186 C2190 1.535 . S
C2187 C2186 1.449 . S
C2187 C2188 1.384 . S
C2187 C2212 1.553 . S
C2188 C2187 1.384 . S
C2188 C2189 1.364 . S
C2188 C2191 1.450 . S
C2189 C2184 1.367 . S
C2189 C2188 1.364 . S
C2189 H2249 0.931 . S
C2190 C2186 1.535 . S
C2190 H2250 0.959 . S
C2190 H2251 0.961 . S
C2190 H2252 0.959 . S
C2191 C2188 1.450 . S
C2191 H2253 0.960 . S
C2191 H2254 0.960 . S
C2191 H2255 0.960 . S
C2192 C2193 1.309 . S
C2192 C2197 1.304 . S
C2192 O2230 1.435 . S
C2193 C2192 1.309 . S
C2193 C2194 1.476 . S
C2193 H2257 0.930 . S
C2194 C2193 1.476 . S
C2194 C2195 1.400 . S
C2194 C2198 1.567 . S
C2195 C2194 1.400 . S
C2195 C2196 1.373 . S
C2195 C2217 1.432 . S
C2196 C2195 1.373 . S
C2196 C2197 1.339 . S
C2196 C2199 1.530 . S
C2197 C2192 1.304 . S
C2197 C2196 1.339 . S
C2197 H2258 0.930 . S
C2198 C2194 1.567 . S
C2198 H2259 0.961 . S
C2198 H2260 0.960 . S
C2198 H2261 0.958 . S
C2199 C2196 1.530 . S
C2199 H2262 0.961 . S
C2199 H2263 0.960 . S
C2199 H2264 0.960 . S
C2200 C2201 1.530 . S
C2200 H2266 0.961 . S
C2200 H2267 0.961 . S
C2200 H2268 0.959 . S
C2201 C2200 1.530 . S
C2201 O2229 1.412 . S
C2201 H2265 0.980 . S
C2202 C2203 1.288 . S
C2202 C2207 1.377 . S
C2202 O2229 1.393 . S
C2203 C2202 1.288 . S
C2203 C2204 1.369 . S
C2203 H2269 0.932 . S
C2204 C2203 1.369 . S
C2204 C2205 1.398 . S
C2204 C2208 1.527 . S
C2205 C2204 1.398 . S
C2205 C2206 1.380 . S
C2205 C2219 1.497 . S
C2206 C2205 1.380 . S
C2206 C2207 1.383 . S
C2206 C2209 1.603 . S
C2207 C2202 1.377 . S
C2207 C2206 1.383 . S
C2207 H2270 0.929 . S
C2208 C2204 1.527 . S
C2208 H2271 0.961 . S
C2208 H2272 0.959 . S
C2208 H2273 0.959 . S
C2209 C2206 1.603 . S
C2209 H2274 0.960 . S
C2209 H2275 0.962 . S
C2209 H2276 0.961 . S
C2210 C2177 1.587 . S
C2210 C2211 1.360 . S
C2210 C2223 1.412 . S
C2211 C2210 1.360 . S
C2211 C2212 1.365 . S
C2211 H2277 0.929 . S
C2212 C2187 1.553 . S
C2212 C2211 1.365 . S
C2212 C2213 1.404 . S
C2213 C2212 1.404 . S
C2213 C2214 1.395 . S
C2213 C2224 1.451 . S
C2214 C2213 1.395 . S
C2214 C2215 1.322 . S
C2214 H2278 0.930 . S
C2215 C2214 1.322 . S
C2215 C2216 1.459 . S
C2215 H2279 0.929 . S
C2216 C2215 1.459 . S
C2216 C2217 1.445 . S
C2216 C2225 1.395 . S
C2217 C2195 1.432 . S
C2217 C2216 1.445 . S
C2217 C2218 1.370 . S
C2218 C2217 1.370 . S
C2218 C2219 1.438 . S
C2218 H2280 0.930 . S
C2219 C2205 1.497 . S
C2219 C2218 1.438 . S
C2219 C2220 1.360 . S
C2220 C2219 1.360 . S
C2220 C2221 1.401 . S
C2220 C2225 1.446 . S
C2221 C2220 1.401 . S
C2221 C2222 1.347 . S
C2221 H2281 0.929 . S
C2222 C2221 1.347 . S
C2222 C2223 1.455 . S
C2222 H2282 0.930 . S
C2223 C2210 1.412 . S
C2223 C2222 1.455 . S
C2223 C2224 1.331 . S
C2224 C2213 1.451 . S
C2224 C2223 1.331 . S
C2224 C2225 1.497 . S
C2225 C2216 1.395 . S
C2225 C2220 1.446 . S
C2225 C2224 1.497 . S
C2226 C2227 1.582 . S
C2226 H2283 0.962 . S
C2226 H2284 0.959 . S
C2226 H2285 0.958 . S
C2227 C2226 1.582 . S
C2227 O2230 1.458 . S
C2227 H2256 0.980 . S
O2228 C2173 1.426 . S
O2228 C2174 1.334 . S
O2229 C2201 1.412 . S
O2229 C2202 1.393 . S
O2230 C2192 1.435 . S
O2230 C2227 1.458 . S
O2231 C2183 1.468 . S
O2231 C2184 1.408 . S
H2232 C2173 0.980 . S
H2233 C2172 0.959 . S
H2234 C2172 0.959 . S
H2235 C2172 0.960 . S
H2236 C2175 0.929 . S
H2237 C2179 0.929 . S
H2238 C2180 0.959 . S
H2239 C2180 0.961 . S
H2240 C2180 0.961 . S
H2241 C2181 0.960 . S
H2242 C2181 0.960 . S
H2243 C2181 0.961 . S
H2244 C2183 0.980 . S
H2245 C2182 0.961 . S
H2246 C2182 0.960 . S
H2247 C2182 0.959 . S
H2248 C2185 0.930 . S
H2249 C2189 0.931 . S
H2250 C2190 0.959 . S
H2251 C2190 0.961 . S
H2252 C2190 0.959 . S
H2253 C2191 0.960 . S
H2254 C2191 0.960 . S
H2255 C2191 0.960 . S
H2256 C2227 0.980 . S
H2257 C2193 0.930 . S
H2258 C2197 0.930 . S
H2259 C2198 0.961 . S
H2260 C2198 0.960 . S
H2261 C2198 0.958 . S
H2262 C2199 0.961 . S
H2263 C2199 0.960 . S
H2264 C2199 0.960 . S
H2265 C2201 0.980 . S
H2266 C2200 0.961 . S
H2267 C2200 0.961 . S
H2268 C2200 0.959 . S
H2269 C2203 0.932 . S
H2270 C2207 0.929 . S
H2271 C2208 0.961 . S
H2272 C2208 0.959 . S
H2273 C2208 0.959 . S
H2274 C2209 0.960 . S
H2275 C2209 0.962 . S
H2276 C2209 0.961 . S
H2277 C2211 0.929 . S
H2278 C2214 0.930 . S
H2279 C2215 0.929 . S
H2280 C2218 0.930 . S
H2281 C2221 0.929 . S
H2282 C2222 0.930 . S
H2283 C2226 0.962 . S
H2284 C2226 0.959 . S
H2285 C2226 0.958 . S
H2286 C2304 0.951 . S
H2287 C2306 0.951 . S
H2288 C2308 0.950 . S
H2289 C2309 0.950 . S
H2290 C2311 0.950 . S
H2291 C2314 0.950 . S
H2292 C2315 0.950 . S
H2293 C2317 0.950 . S
H2294 C2318 0.950 . S
H2295 C2319 0.968 1_455 S
H2296 C2321 0.945 1_455 S
H2297 C2323 0.950 . S
H2298 C2324 0.950 . S
H2299 C2326 0.950 . S
H2300 C2329 0.950 . S
H2301 C2330 0.950 . S
H2302 C2332 0.950 . S
H2303 C2333 0.950 . S
C2304 H2286 0.951 . S
C2304 C2305 1.375 . S
C2304 C2306 1.388 . S
C2305 C2304 1.375 . S
C2305 C2309 1.402 1_655 S
C2306 H2287 0.951 . S
C2306 C2304 1.388 . S
C2306 C2307 1.366 . S
C2307 C2306 1.366 . S
C2307 C2308 1.414 1_655 S
C2307 C2310 1.499 . S
C2308 H2288 0.950 . S
C2308 C2307 1.414 1_455 S
C2308 C2309 1.374 . S
C2309 H2289 0.950 . S
C2309 C2305 1.402 1_455 S
C2309 C2308 1.374 . S
C2310 C2307 1.499 . S
C2310 C2311 1.373 1_655 S
C2310 C2312 1.389 . S
C2311 H2290 0.950 . S
C2311 C2310 1.373 1_455 S
C2311 C2327 1.377 . S
C2312 C2310 1.389 . S
C2312 C2313 1.524 . S
C2312 C2326 1.377 . S
C2313 C2312 1.524 . S
C2313 C2314 1.397 . S
C2313 C2318 1.363 . S
C2314 H2291 0.950 . S
C2314 C2313 1.397 . S
C2314 C2315 1.334 . S
C2315 H2292 0.950 . S
C2315 C2314 1.334 . S
C2315 C2316 1.287 . S
C2316 C2315 1.287 . S
C2316 C2317 1.524 . S
C2316 H2335 0.913 . S
C2317 H2293 0.950 . S
C2317 C2316 1.524 . S
C2317 C2318 1.415 . S
C2318 H2294 0.950 . S
C2318 C2313 1.363 . S
C2318 C2317 1.415 . S
C2319 H2295 0.968 1_655 S
C2319 C2320 1.366 . S
C2319 C2321 1.417 . S
C2320 C2319 1.366 . S
C2320 C2324 1.385 . S
C2321 H2296 0.945 1_655 S
C2321 C2319 1.417 . S
C2321 C2322 1.347 . S
C2322 C2321 1.347 . S
C2322 C2323 1.414 . S
C2322 C2325 1.499 . S
C2323 H2297 0.950 . S
C2323 C2322 1.414 . S
C2323 C2324 1.374 . S
C2324 H2298 0.950 . S
C2324 C2320 1.385 . S
C2324 C2323 1.374 . S
C2325 C2322 1.499 . S
C2325 C2326 1.373 . S
C2325 C2327 1.389 1_655 S
C2326 H2299 0.950 . S
C2326 C2312 1.377 . S
C2326 C2325 1.373 . S
C2327 C2311 1.377 . S
C2327 C2325 1.389 1_455 S
C2327 C2328 1.524 . S
C2328 C2327 1.524 . S
C2328 C2329 1.397 . S
C2328 C2333 1.363 . S
C2329 H2300 0.950 . S
C2329 C2328 1.397 . S
C2329 C2330 1.334 . S
C2330 H2301 0.950 . S
C2330 C2329 1.334 . S
C2330 C2331 1.287 . S
C2331 C2330 1.287 . S
C2331 C2332 1.524 . S
C2331 H2334 0.999 . S
C2332 H2302 0.950 . S
C2332 C2331 1.524 . S
C2332 C2333 1.415 . S
C2333 H2303 0.950 . S
C2333 C2328 1.363 . S
C2333 C2332 1.415 . S
H2334 C2331 0.999 . S
H2335 C2316 0.913 . S
H2336 C2354 0.951 . S
H2337 C2356 0.951 . S
H2338 C2358 0.950 . S
H2339 C2359 0.950 . S
H2340 C2361 0.950 . S
H2341 C2364 0.950 . S
H2342 C2365 0.950 . S
H2343 C2367 0.950 . S
H2344 C2368 0.950 . S
H2345 C2369 0.951 . S
H2346 C2371 0.951 . S
H2347 C2373 0.950 . S
H2348 C2374 0.950 . S
H2349 C2376 0.950 . S
H2350 C2379 0.950 . S
H2351 C2380 0.950 . S
H2352 C2382 0.950 . S
H2353 C2383 0.950 . S
C2354 H2336 0.951 . S
C2354 C2355 1.366 . S
C2354 C2356 1.388 . S
C2355 C2354 1.366 . S
C2355 C2359 1.385 . S
C2356 H2337 0.951 . S
C2356 C2354 1.388 . S
C2356 C2357 1.366 . S
C2357 C2356 1.366 . S
C2357 C2358 1.414 . S
C2357 C2360 1.499 . S
C2358 H2338 0.950 . S
C2358 C2357 1.414 . S
C2358 C2359 1.374 . S
C2359 H2339 0.950 . S
C2359 C2355 1.385 . S
C2359 C2358 1.374 . S
C2360 C2357 1.499 . S
C2360 C2361 1.373 . S
C2360 C2362 1.389 . S
C2361 H2340 0.950 . S
C2361 C2360 1.373 . S
C2361 C2377 1.377 . S
C2362 C2360 1.389 . S
C2362 C2363 1.524 . S
C2362 C2376 1.377 . S
C2363 C2362 1.524 . S
C2363 C2364 1.397 . S
C2363 C2368 1.363 . S
C2364 H2341 0.950 . S
C2364 C2363 1.397 . S
C2364 C2365 1.334 . S
C2365 H2342 0.950 . S
C2365 C2364 1.334 . S
C2365 C2366 1.287 . S
C2366 C2365 1.287 . S
C2366 C2367 1.524 . S
C2366 H2385 0.913 . S
C2367 H2343 0.950 . S
C2367 C2366 1.524 . S
C2367 C2368 1.415 . S
C2368 H2344 0.950 . S
C2368 C2363 1.363 . S
C2368 C2367 1.415 . S
C2369 H2345 0.951 . S
C2369 C2370 1.366 . S
C2369 C2371 1.388 . S
C2370 C2369 1.366 . S
C2370 C2374 1.385 . S
C2371 H2346 0.951 . S
C2371 C2369 1.388 . S
C2371 C2372 1.366 . S
C2372 C2371 1.366 . S
C2372 C2373 1.414 . S
C2372 C2375 1.499 . S
C2373 H2347 0.950 . S
C2373 C2372 1.414 . S
C2373 C2374 1.374 . S
C2374 H2348 0.950 . S
C2374 C2370 1.385 . S
C2374 C2373 1.374 . S
C2375 C2372 1.499 . S
C2375 C2376 1.373 . S
C2375 C2377 1.389 . S
C2376 H2349 0.950 . S
C2376 C2362 1.377 . S
C2376 C2375 1.373 . S
C2377 C2361 1.377 . S
C2377 C2375 1.389 . S
C2377 C2378 1.524 . S
C2378 C2377 1.524 . S
C2378 C2379 1.397 . S
C2378 C2383 1.363 . S
C2379 H2350 0.950 . S
C2379 C2378 1.397 . S
C2379 C2380 1.334 . S
C2380 H2351 0.950 . S
C2380 C2379 1.334 . S
C2380 C2381 1.287 . S
C2381 C2380 1.287 . S
C2381 C2382 1.524 . S
C2381 H2384 0.999 . S
C2382 H2352 0.950 . S
C2382 C2381 1.524 . S
C2382 C2383 1.415 . S
C2383 H2353 0.950 . S
C2383 C2378 1.363 . S
C2383 C2382 1.415 . S
H2384 C2381 0.999 . S
H2385 C2366 0.913 . S
H2386 C2404 0.951 . S
H2387 C2406 0.951 . S
H2388 C2408 0.950 . S
H2389 C2409 0.950 . S
H2390 C2411 0.950 . S
H2391 C2414 0.950 . S
H2392 C2415 0.950 . S
H2393 C2417 0.950 . S
H2394 C2418 0.950 . S
H2395 C2419 0.951 . S
H2396 C2421 0.951 . S
H2397 C2423 0.950 . S
H2398 C2424 0.950 . S
H2399 C2426 0.950 . S
H2400 C2429 0.950 . S
H2401 C2430 0.950 . S
H2402 C2432 0.950 . S
H2403 C2433 0.950 . S
C2404 H2386 0.951 . S
C2404 C2405 1.366 1_565 S
C2404 C2406 1.388 . S
C2405 C2404 1.366 1_545 S
C2405 C2409 1.385 . S
C2406 H2387 0.951 . S
C2406 C2404 1.388 . S
C2406 C2407 1.366 1_565 S
C2407 C2406 1.366 1_545 S
C2407 C2408 1.414 . S
C2407 C2410 1.499 . S
C2408 H2388 0.950 . S
C2408 C2407 1.414 . S
C2408 C2409 1.374 . S
C2409 H2389 0.950 . S
C2409 C2405 1.385 . S
C2409 C2408 1.374 . S
C2410 C2407 1.499 . S
C2410 C2411 1.373 . S
C2410 C2412 1.389 1_545 S
C2411 H2390 0.950 . S
C2411 C2410 1.373 . S
C2411 C2427 1.377 . S
C2412 C2410 1.389 1_565 S
C2412 C2413 1.524 . S
C2412 C2426 1.377 . S
C2413 C2412 1.524 . S
C2413 C2414 1.397 . S
C2413 C2418 1.363 . S
C2414 H2391 0.950 . S
C2414 C2413 1.397 . S
C2414 C2415 1.334 . S
C2415 H2392 0.950 . S
C2415 C2414 1.334 . S
C2415 C2416 1.287 . S
C2416 C2415 1.287 . S
C2416 C2417 1.524 . S
C2416 H2435 0.913 . S
C2417 H2393 0.950 . S
C2417 C2416 1.524 . S
C2417 C2418 1.415 . S
C2418 H2394 0.950 . S
C2418 C2413 1.363 . S
C2418 C2417 1.415 . S
C2419 H2395 0.951 . S
C2419 C2420 1.366 . S
C2419 C2421 1.388 . S
C2420 C2419 1.366 . S
C2420 C2424 1.385 1_545 S
C2421 H2396 0.951 . S
C2421 C2419 1.388 . S
C2421 C2422 1.366 . S
C2422 C2421 1.366 . S
C2422 C2423 1.414 1_545 S
C2422 C2425 1.499 . S
C2423 H2397 0.950 . S
C2423 C2422 1.414 1_565 S
C2423 C2424 1.374 . S
C2424 H2398 0.950 . S
C2424 C2420 1.385 1_565 S
C2424 C2423 1.374 . S
C2425 C2422 1.499 . S
C2425 C2426 1.373 1_545 S
C2425 C2427 1.389 . S
C2426 H2399 0.950 . S
C2426 C2412 1.377 . S
C2426 C2425 1.373 1_565 S
C2427 C2411 1.377 . S
C2427 C2425 1.389 . S
C2427 C2428 1.524 . S
C2428 C2427 1.524 . S
C2428 C2429 1.397 . S
C2428 C2433 1.363 . S
C2429 H2400 0.950 . S
C2429 C2428 1.397 . S
C2429 C2430 1.334 . S
C2430 H2401 0.950 . S
C2430 C2429 1.334 . S
C2430 C2431 1.287 . S
C2431 C2430 1.287 . S
C2431 C2432 1.524 . S
C2431 H2434 0.999 . S
C2432 H2402 0.950 . S
C2432 C2431 1.524 . S
C2432 C2433 1.415 . S
C2433 H2403 0.950 . S
C2433 C2428 1.363 . S
C2433 C2432 1.415 . S
H2434 C2431 0.999 . S
H2435 C2416 0.913 . S
H2436 C2454 0.951 . S
H2437 C2456 0.951 . S
H2438 C2458 0.930 . S
H2439 C2459 0.950 . S
H2440 C2461 0.950 . S
H2441 C2464 0.950 . S
H2442 C2465 0.950 . S
H2443 C2467 0.950 . S
H2444 C2468 0.950 . S
H2445 C2469 0.954 1_545 S
H2446 C2471 0.951 1_545 S
H2447 C2473 0.950 . S
H2448 C2474 0.950 . S
H2449 C2476 0.950 . S
H2450 C2479 0.950 . S
H2451 C2480 0.950 . S
H2452 C2482 0.950 . S
H2453 C2483 0.950 . S
C2454 H2436 0.951 . S
C2454 C2455 1.366 . S
C2454 C2456 1.388 . S
C2455 C2454 1.366 . S
C2455 C2459 1.385 1_565 S
C2456 H2437 0.951 . S
C2456 C2454 1.388 . S
C2456 C2457 1.366 . S
C2457 C2456 1.366 . S
C2457 C2458 1.410 1_565 S
C2457 C2460 1.499 . S
C2458 H2438 0.930 . S
C2458 C2457 1.410 1_545 S
C2458 C2459 1.408 . S
C2459 H2439 0.950 . S
C2459 C2455 1.385 1_545 S
C2459 C2458 1.408 . S
C2460 C2457 1.499 . S
C2460 C2461 1.373 1_565 S
C2460 C2462 1.389 . S
C2461 H2440 0.950 . S
C2461 C2460 1.373 1_545 S
C2461 C2477 1.377 . S
C2462 C2460 1.389 . S
C2462 C2463 1.524 . S
C2462 C2476 1.377 . S
C2463 C2462 1.524 . S
C2463 C2464 1.397 . S
C2463 C2468 1.363 . S
C2464 H2441 0.950 . S
C2464 C2463 1.397 . S
C2464 C2465 1.334 . S
C2465 H2442 0.950 . S
C2465 C2464 1.334 . S
C2465 C2466 1.287 . S
C2466 C2465 1.287 . S
C2466 C2467 1.524 . S
C2466 H2485 0.913 . S
C2467 H2443 0.950 . S
C2467 C2466 1.524 . S
C2467 C2468 1.415 . S
C2468 H2444 0.950 . S
C2468 C2463 1.363 . S
C2468 C2467 1.415 . S
C2469 H2445 0.954 1_565 S
C2469 C2470 1.366 . S
C2469 C2471 1.388 . S
C2470 C2469 1.366 . S
C2470 C2474 1.385 . S
C2471 H2446 0.951 1_565 S
C2471 C2469 1.388 . S
C2471 C2472 1.366 . S
C2472 C2471 1.366 . S
C2472 C2473 1.414 . S
C2472 C2475 1.499 . S
C2473 H2447 0.950 . S
C2473 C2472 1.414 . S
C2473 C2474 1.374 . S
C2474 H2448 0.950 . S
C2474 C2470 1.385 . S
C2474 C2473 1.374 . S
C2475 C2472 1.499 . S
C2475 C2476 1.373 . S
C2475 C2477 1.389 1_565 S
C2476 H2449 0.950 . S
C2476 C2462 1.377 . S
C2476 C2475 1.373 . S
C2477 C2461 1.377 . S
C2477 C2475 1.389 1_545 S
C2477 C2478 1.524 . S
C2478 C2477 1.524 . S
C2478 C2479 1.397 . S
C2478 C2483 1.363 . S
C2479 H2450 0.950 . S
C2479 C2478 1.397 . S
C2479 C2480 1.334 . S
C2480 H2451 0.950 . S
C2480 C2479 1.334 . S
C2480 C2481 1.287 . S
C2481 C2480 1.287 . S
C2481 C2482 1.524 . S
C2481 H2484 0.999 . S
C2482 H2452 0.950 . S
C2482 C2481 1.524 . S
C2482 C2483 1.415 . S
C2483 H2453 0.950 . S
C2483 C2478 1.363 . S
C2483 C2482 1.415 . S
H2484 C2481 0.999 . S
H2485 C2466 0.913 . S
H2486 C2504 0.951 . S
H2487 C2506 0.951 . S
H2488 C2508 0.950 . S
H2489 C2509 0.950 . S
H2490 C2511 0.950 . S
H2491 C2514 0.950 . S
H2492 C2515 0.950 . S
H2493 C2517 0.950 . S
H2494 C2518 0.950 . S
H2495 C2519 0.951 . S
H2496 C2521 0.951 . S
H2497 C2523 0.950 . S
H2498 C2524 0.950 . S
H2499 C2526 0.950 . S
H2500 C2529 0.950 . S
H2501 C2530 0.950 . S
H2502 C2532 0.950 . S
H2503 C2533 0.950 . S
C2504 H2486 0.951 . S
C2504 C2505 1.366 1_655 S
C2504 C2506 1.388 . S
C2505 C2504 1.366 1_455 S
C2505 C2509 1.385 . S
C2506 H2487 0.951 . S
C2506 C2504 1.388 . S
C2506 C2507 1.366 1_655 S
C2507 C2506 1.366 1_455 S
C2507 C2508 1.414 . S
C2507 C2510 1.499 . S
C2508 H2488 0.950 . S
C2508 C2507 1.414 . S
C2508 C2509 1.374 . S
C2509 H2489 0.950 . S
C2509 C2505 1.385 . S
C2509 C2508 1.374 . S
C2510 C2507 1.499 . S
C2510 C2511 1.373 . S
C2510 C2512 1.389 1_455 S
C2511 H2490 0.950 . S
C2511 C2510 1.373 . S
C2511 C2527 1.377 . S
C2512 C2510 1.389 1_655 S
C2512 C2513 1.524 . S
C2512 C2526 1.377 . S
C2513 C2512 1.524 . S
C2513 C2514 1.397 . S
C2513 C2518 1.363 . S
C2514 H2491 0.950 . S
C2514 C2513 1.397 . S
C2514 C2515 1.334 . S
C2515 H2492 0.950 . S
C2515 C2514 1.334 . S
C2515 C2516 1.287 . S
C2516 C2515 1.287 . S
C2516 C2517 1.524 . S
C2516 H2535 0.913 . S
C2517 H2493 0.950 . S
C2517 C2516 1.524 . S
C2517 C2518 1.415 . S
C2518 H2494 0.950 . S
C2518 C2513 1.363 . S
C2518 C2517 1.415 . S
C2519 H2495 0.951 . S
C2519 C2520 1.366 . S
C2519 C2521 1.388 . S
C2520 C2519 1.366 . S
C2520 C2524 1.385 1_455 S
C2521 H2496 0.951 . S
C2521 C2519 1.388 . S
C2521 C2522 1.366 . S
C2522 C2521 1.366 . S
C2522 C2523 1.414 1_455 S
C2522 C2525 1.499 . S
C2523 H2497 0.950 . S
C2523 C2522 1.414 1_655 S
C2523 C2524 1.374 . S
C2524 H2498 0.950 . S
C2524 C2520 1.385 1_655 S
C2524 C2523 1.374 . S
C2525 C2522 1.499 . S
C2525 C2526 1.373 1_455 S
C2525 C2527 1.389 . S
C2526 H2499 0.950 . S
C2526 C2512 1.377 . S
C2526 C2525 1.373 1_655 S
C2527 C2511 1.377 . S
C2527 C2525 1.389 . S
C2527 C2528 1.524 . S
C2528 C2527 1.524 . S
C2528 C2529 1.397 . S
C2528 C2533 1.363 . S
C2529 H2500 0.950 . S
C2529 C2528 1.397 . S
C2529 C2530 1.334 . S
C2530 H2501 0.950 . S
C2530 C2529 1.334 . S
C2530 C2531 1.287 . S
C2531 C2530 1.287 . S
C2531 C2532 1.524 . S
C2531 H2534 0.999 . S
C2532 H2502 0.950 . S
C2532 C2531 1.524 . S
C2532 C2533 1.415 . S
C2533 H2503 0.950 . S
C2533 C2528 1.363 . S
C2533 C2532 1.415 . S
H2534 C2531 0.999 . S
H2535 C2516 0.913 . S
H2536 C2554 0.951 . S
H2537 C2556 0.951 . S
H2538 C2558 0.950 . S
H2539 C2559 0.950 . S
H2540 C2561 0.950 . S
H2541 C2564 0.950 . S
H2542 C2565 0.950 . S
H2543 C2567 0.950 . S
H2544 C2568 0.950 . S
H2545 C2569 0.951 . S
H2546 C2571 0.951 . S
H2547 C2573 0.950 . S
H2548 C2574 0.950 . S
H2549 C2576 0.950 . S
H2550 C2579 0.950 . S
H2551 C2580 0.950 . S
H2552 C2582 0.950 . S
H2553 C2583 0.950 . S
C2554 H2536 0.951 . S
C2554 C2555 1.366 . S
C2554 C2556 1.388 . S
C2555 C2554 1.366 . S
C2555 C2559 1.385 . S
C2556 H2537 0.951 . S
C2556 C2554 1.388 . S
C2556 C2557 1.366 . S
C2557 C2556 1.366 . S
C2557 C2558 1.414 . S
C2557 C2560 1.499 . S
C2558 H2538 0.950 . S
C2558 C2557 1.414 . S
C2558 C2559 1.374 . S
C2559 H2539 0.950 . S
C2559 C2555 1.385 . S
C2559 C2558 1.374 . S
C2560 C2557 1.499 . S
C2560 C2561 1.373 . S
C2560 C2562 1.389 . S
C2561 H2540 0.950 . S
C2561 C2560 1.373 . S
C2561 C2577 1.377 . S
C2562 C2560 1.389 . S
C2562 C2563 1.524 . S
C2562 C2576 1.377 . S
C2563 C2562 1.524 . S
C2563 C2564 1.397 . S
C2563 C2568 1.363 . S
C2564 H2541 0.950 . S
C2564 C2563 1.397 . S
C2564 C2565 1.334 . S
C2565 H2542 0.950 . S
C2565 C2564 1.334 . S
C2565 C2566 1.287 . S
C2566 C2565 1.287 . S
C2566 C2567 1.524 . S
C2566 H2585 0.913 . S
C2567 H2543 0.950 . S
C2567 C2566 1.524 . S
C2567 C2568 1.415 . S
C2568 H2544 0.950 . S
C2568 C2563 1.363 . S
C2568 C2567 1.415 . S
C2569 H2545 0.951 . S
C2569 C2570 1.366 . S
C2569 C2571 1.388 . S
C2570 C2569 1.366 . S
C2570 C2574 1.385 . S
C2571 H2546 0.951 . S
C2571 C2569 1.388 . S
C2571 C2572 1.366 . S
C2572 C2571 1.366 . S
C2572 C2573 1.414 . S
C2572 C2575 1.499 . S
C2573 H2547 0.950 . S
C2573 C2572 1.414 . S
C2573 C2574 1.374 . S
C2574 H2548 0.950 . S
C2574 C2570 1.385 . S
C2574 C2573 1.374 . S
C2575 C2572 1.499 . S
C2575 C2576 1.373 . S
C2575 C2577 1.389 . S
C2576 H2549 0.950 . S
C2576 C2562 1.377 . S
C2576 C2575 1.373 . S
C2577 C2561 1.377 . S
C2577 C2575 1.389 . S
C2577 C2578 1.524 . S
C2578 C2577 1.524 . S
C2578 C2579 1.397 . S
C2578 C2583 1.363 . S
C2579 H2550 0.950 . S
C2579 C2578 1.397 . S
C2579 C2580 1.334 . S
C2580 H2551 0.950 . S
C2580 C2579 1.334 . S
C2580 C2581 1.287 . S
C2581 C2580 1.287 . S
C2581 C2582 1.524 . S
C2581 H2584 0.999 . S
C2582 H2552 0.950 . S
C2582 C2581 1.524 . S
C2582 C2583 1.415 . S
C2583 H2553 0.950 . S
C2583 C2578 1.363 . S
C2583 C2582 1.415 . S
H2584 C2581 0.999 . S
H2585 C2566 0.913 . S
H2586 C2604 0.901 1_655 S
H2587 C2606 0.944 1_655 S
H2588 C2608 0.950 . S
H2589 C2609 0.950 . S
H2590 C2611 0.950 . S
H2591 C2614 0.950 . S
H2592 C2615 0.950 . S
H2593 C2617 0.950 . S
H2594 C2618 0.950 . S
H2595 C2619 0.951 . S
H2596 C2621 0.951 . S
H2597 C2623 0.951 . S
H2598 C2624 0.962 . S
H2599 C2626 0.950 . S
H2600 C2629 0.950 . S
H2601 C2630 0.950 . S
H2602 C2632 0.950 . S
H2603 C2633 0.950 . S
C2604 H2586 0.901 1_455 S
C2604 C2605 1.390 . S
C2604 C2606 1.408 . S
C2605 C2604 1.390 . S
C2605 C2609 1.385 . S
C2606 H2587 0.944 1_455 S
C2606 C2604 1.408 . S
C2606 C2607 1.380 . S
C2607 C2606 1.380 . S
C2607 C2608 1.414 . S
C2607 C2610 1.499 . S
C2608 H2588 0.950 . S
C2608 C2607 1.414 . S
C2608 C2609 1.374 . S
C2609 H2589 0.950 . S
C2609 C2605 1.385 . S
C2609 C2608 1.374 . S
C2610 C2607 1.499 . S
C2610 C2611 1.373 . S
C2610 C2612 1.389 1_455 S
C2611 H2590 0.950 . S
C2611 C2610 1.373 . S
C2611 C2627 1.377 . S
C2612 C2610 1.389 1_655 S
C2612 C2613 1.524 . S
C2612 C2626 1.377 . S
C2613 C2612 1.524 . S
C2613 C2614 1.397 . S
C2613 C2618 1.363 . S
C2614 H2591 0.950 . S
C2614 C2613 1.397 . S
C2614 C2615 1.334 . S
C2615 H2592 0.950 . S
C2615 C2614 1.334 . S
C2615 C2616 1.287 . S
C2616 C2615 1.287 . S
C2616 C2617 1.524 . S
C2616 H2635 0.913 . S
C2617 H2593 0.950 . S
C2617 C2616 1.524 . S
C2617 C2618 1.415 . S
C2618 H2594 0.950 . S
C2618 C2613 1.363 . S
C2618 C2617 1.415 . S
C2619 H2595 0.951 . S
C2619 C2620 1.366 . S
C2619 C2621 1.388 . S
C2620 C2619 1.366 . S
C2620 C2624 1.359 1_455 S
C2621 H2596 0.951 . S
C2621 C2619 1.388 . S
C2621 C2622 1.366 . S
C2622 C2621 1.366 . S
C2622 C2623 1.413 1_455 S
C2622 C2625 1.499 . S
C2623 H2597 0.951 . S
C2623 C2622 1.413 1_655 S
C2623 C2624 1.389 . S
C2624 H2598 0.962 . S
C2624 C2620 1.359 1_655 S
C2624 C2623 1.389 . S
C2625 C2622 1.499 . S
C2625 C2626 1.373 1_455 S
C2625 C2627 1.389 . S
C2626 H2599 0.950 . S
C2626 C2612 1.377 . S
C2626 C2625 1.373 1_655 S
C2627 C2611 1.377 . S
C2627 C2625 1.389 . S
C2627 C2628 1.524 . S
C2628 C2627 1.524 . S
C2628 C2629 1.397 . S
C2628 C2633 1.363 . S
C2629 H2600 0.950 . S
C2629 C2628 1.397 . S
C2629 C2630 1.334 . S
C2630 H2601 0.950 . S
C2630 C2629 1.334 . S
C2630 C2631 1.287 . S
C2631 C2630 1.287 . S
C2631 C2632 1.524 . S
C2631 H2634 0.999 . S
C2632 H2602 0.950 . S
C2632 C2631 1.524 . S
C2632 C2633 1.415 . S
C2633 H2603 0.950 . S
C2633 C2628 1.363 . S
C2633 C2632 1.415 . S
H2634 C2631 0.999 . S
H2635 C2616 0.913 . S
H2636 C2654 0.951 . S
H2637 C2656 0.951 . S
H2638 C2658 0.950 . S
H2639 C2659 0.950 . S
H2640 C2661 0.950 . S
H2641 C2664 0.950 . S
H2642 C2665 0.950 . S
H2643 C2667 0.950 . S
H2644 C2668 0.950 . S
H2645 C2669 0.951 . S
H2646 C2671 0.951 . S
H2647 C2673 0.950 . S
H2648 C2674 0.950 . S
H2649 C2676 0.950 . S
H2650 C2679 0.950 . S
H2651 C2680 0.950 . S
H2652 C2682 0.950 . S
H2653 C2683 0.950 . S
C2654 H2636 0.951 . S
C2654 C2655 1.366 . S
C2654 C2656 1.388 . S
C2655 C2654 1.366 . S
C2655 C2659 1.385 . S
C2656 H2637 0.951 . S
C2656 C2654 1.388 . S
C2656 C2657 1.366 . S
C2657 C2656 1.366 . S
C2657 C2658 1.414 . S
C2657 C2660 1.499 . S
C2658 H2638 0.950 . S
C2658 C2657 1.414 . S
C2658 C2659 1.374 . S
C2659 H2639 0.950 . S
C2659 C2655 1.385 . S
C2659 C2658 1.374 . S
C2660 C2657 1.499 . S
C2660 C2661 1.373 . S
C2660 C2662 1.389 . S
C2661 H2640 0.950 . S
C2661 C2660 1.373 . S
C2661 C2677 1.377 . S
C2662 C2660 1.389 . S
C2662 C2663 1.524 . S
C2662 C2676 1.377 . S
C2663 C2662 1.524 . S
C2663 C2664 1.397 . S
C2663 C2668 1.363 . S
C2664 H2641 0.950 . S
C2664 C2663 1.397 . S
C2664 C2665 1.334 . S
C2665 H2642 0.950 . S
C2665 C2664 1.334 . S
C2665 C2666 1.287 . S
C2666 C2665 1.287 . S
C2666 C2667 1.524 . S
C2666 H2685 0.913 . S
C2667 H2643 0.950 . S
C2667 C2666 1.524 . S
C2667 C2668 1.415 . S
C2668 H2644 0.950 . S
C2668 C2663 1.363 . S
C2668 C2667 1.415 . S
C2669 H2645 0.951 . S
C2669 C2670 1.366 . S
C2669 C2671 1.388 . S
C2670 C2669 1.366 . S
C2670 C2674 1.385 . S
C2671 H2646 0.951 . S
C2671 C2669 1.388 . S
C2671 C2672 1.366 . S
C2672 C2671 1.366 . S
C2672 C2673 1.414 . S
C2672 C2675 1.499 . S
C2673 H2647 0.950 . S
C2673 C2672 1.414 . S
C2673 C2674 1.374 . S
C2674 H2648 0.950 . S
C2674 C2670 1.385 . S
C2674 C2673 1.374 . S
C2675 C2672 1.499 . S
C2675 C2676 1.373 . S
C2675 C2677 1.389 . S
C2676 H2649 0.950 . S
C2676 C2662 1.377 . S
C2676 C2675 1.373 . S
C2677 C2661 1.377 . S
C2677 C2675 1.389 . S
C2677 C2678 1.524 . S
C2678 C2677 1.524 . S
C2678 C2679 1.397 . S
C2678 C2683 1.363 . S
C2679 H2650 0.950 . S
C2679 C2678 1.397 . S
C2679 C2680 1.334 . S
C2680 H2651 0.950 . S
C2680 C2679 1.334 . S
C2680 C2681 1.287 . S
C2681 C2680 1.287 . S
C2681 C2682 1.524 . S
C2681 H2684 0.999 . S
C2682 H2652 0.950 . S
C2682 C2681 1.524 . S
C2682 C2683 1.415 . S
C2683 H2653 0.950 . S
C2683 C2678 1.363 . S
C2683 C2682 1.415 . S
H2684 C2681 0.999 . S
H2685 C2666 0.913 . S
H2686 C2704 0.951 . S
H2687 C2706 0.951 . S
H2688 C2708 0.950 . S
H2689 C2709 0.950 . S
H2690 C2711 0.950 . S
H2691 C2714 0.950 . S
H2692 C2715 0.950 . S
H2693 C2717 0.950 . S
H2694 C2718 0.950 . S
H2695 C2719 0.951 . S
H2696 C2721 0.951 . S
H2697 C2723 0.950 . S
H2698 C2724 0.950 . S
H2699 C2726 0.950 . S
H2700 C2729 0.950 . S
H2701 C2730 0.950 . S
H2702 C2732 0.950 . S
H2703 C2733 0.950 1_565 S
C2704 H2686 0.951 . S
C2704 C2705 1.366 1_545 S
C2704 C2706 1.388 . S
C2705 C2704 1.366 1_565 S
C2705 C2709 1.385 . S
C2706 H2687 0.951 . S
C2706 C2704 1.388 . S
C2706 C2707 1.366 1_545 S
C2707 C2706 1.366 1_565 S
C2707 C2708 1.414 . S
C2707 C2710 1.499 . S
C2708 H2688 0.950 . S
C2708 C2707 1.414 . S
C2708 C2709 1.374 . S
C2709 H2689 0.950 . S
C2709 C2705 1.385 . S
C2709 C2708 1.374 . S
C2710 C2707 1.499 . S
C2710 C2711 1.373 1_565 S
C2710 C2712 1.389 . S
C2711 H2690 0.950 . S
C2711 C2710 1.373 1_545 S
C2711 C2727 1.377 . S
C2712 C2710 1.389 . S
C2712 C2713 1.524 . S
C2712 C2726 1.377 . S
C2713 C2712 1.524 . S
C2713 C2714 1.397 . S
C2713 C2718 1.363 . S
C2714 H2691 0.950 . S
C2714 C2713 1.397 . S
C2714 C2715 1.334 . S
C2715 H2692 0.950 . S
C2715 C2714 1.334 . S
C2715 C2716 1.287 . S
C2716 C2715 1.287 . S
C2716 C2717 1.524 . S
C2716 H2735 0.913 . S
C2717 H2693 0.950 . S
C2717 C2716 1.524 . S
C2717 C2718 1.415 . S
C2718 H2694 0.950 . S
C2718 C2713 1.363 . S
C2718 C2717 1.415 . S
C2719 H2695 0.951 . S
C2719 C2720 1.366 . S
C2719 C2721 1.388 . S
C2720 C2719 1.366 . S
C2720 C2724 1.385 1_565 S
C2721 H2696 0.951 . S
C2721 C2719 1.388 . S
C2721 C2722 1.403 . S
C2722 C2721 1.403 . S
C2722 C2723 1.353 1_565 S
C2722 C2725 1.499 . S
C2723 H2697 0.950 . S
C2723 C2722 1.353 1_545 S
C2723 C2724 1.374 . S
C2724 H2698 0.950 . S
C2724 C2720 1.385 1_545 S
C2724 C2723 1.374 . S
C2725 C2722 1.499 . S
C2725 C2726 1.388 . S
C2725 C2727 1.411 1_565 S
C2726 H2699 0.950 . S
C2726 C2712 1.377 . S
C2726 C2725 1.388 . S
C2727 C2711 1.377 . S
C2727 C2725 1.411 1_545 S
C2727 C2728 1.524 . S
C2728 C2727 1.524 . S
C2728 C2729 1.397 . S
C2728 C2733 1.363 . S
C2729 H2700 0.950 . S
C2729 C2728 1.397 . S
C2729 C2730 1.334 . S
C2730 H2701 0.950 . S
C2730 C2729 1.334 . S
C2730 C2731 1.287 . S
C2731 C2730 1.287 . S
C2731 C2732 1.524 . S
C2731 H2734 0.999 . S
C2732 H2702 0.950 . S
C2732 C2731 1.524 . S
C2732 C2733 1.415 . S
C2733 H2703 0.950 1_545 S
C2733 C2728 1.363 . S
C2733 C2732 1.415 . S
H2734 C2731 0.999 . S
H2735 C2716 0.913 . S
H2736 C2754 0.951 . S
H2737 C2756 0.951 . S
H2738 C2758 0.950 . S
H2739 C2759 0.950 . S
H2740 C2761 0.950 . S
H2741 C2764 0.950 . S
H2742 C2765 0.950 . S
H2743 C2767 0.950 . S
H2744 C2768 0.950 . S
H2745 C2769 0.951 . S
H2746 C2771 0.951 . S
H2747 C2773 0.950 . S
H2748 C2774 0.950 . S
H2749 C2776 0.950 . S
H2750 C2779 0.950 . S
H2751 C2780 0.950 . S
H2752 C2782 0.950 . S
H2753 C2783 0.950 . S
C2754 H2736 0.951 . S
C2754 C2755 1.366 . S
C2754 C2756 1.388 . S
C2755 C2754 1.366 . S
C2755 C2759 1.385 1_545 S
C2756 H2737 0.951 . S
C2756 C2754 1.388 . S
C2756 C2757 1.366 . S
C2757 C2756 1.366 . S
C2757 C2758 1.414 1_545 S
C2757 C2760 1.499 . S
C2758 H2738 0.950 . S
C2758 C2757 1.414 1_565 S
C2758 C2759 1.374 . S
C2759 H2739 0.950 . S
C2759 C2755 1.385 1_565 S
C2759 C2758 1.374 . S
C2760 C2757 1.499 . S
C2760 C2761 1.373 1_545 S
C2760 C2762 1.389 . S
C2761 H2740 0.950 . S
C2761 C2760 1.373 1_565 S
C2761 C2777 1.377 . S
C2762 C2760 1.389 . S
C2762 C2763 1.524 . S
C2762 C2776 1.377 . S
C2763 C2762 1.524 . S
C2763 C2764 1.397 . S
C2763 C2768 1.363 . S
C2764 H2741 0.950 . S
C2764 C2763 1.397 . S
C2764 C2765 1.334 . S
C2765 H2742 0.950 . S
C2765 C2764 1.334 . S
C2765 C2766 1.287 . S
C2766 C2765 1.287 . S
C2766 C2767 1.524 . S
C2766 H2785 0.913 . S
C2767 H2743 0.950 . S
C2767 C2766 1.524 . S
C2767 C2768 1.415 . S
C2768 H2744 0.950 . S
C2768 C2763 1.363 . S
C2768 C2767 1.415 . S
C2769 H2745 0.951 . S
C2769 C2770 1.366 1_565 S
C2769 C2771 1.388 . S
C2770 C2769 1.366 1_545 S
C2770 C2774 1.385 . S
C2771 H2746 0.951 . S
C2771 C2769 1.388 . S
C2771 C2772 1.328 1_565 S
C2772 C2771 1.328 1_545 S
C2772 C2773 1.487 . S
C2772 C2775 1.475 . S
C2773 H2747 0.950 . S
C2773 C2772 1.487 . S
C2773 C2774 1.374 . S
C2774 H2748 0.950 . S
C2774 C2770 1.385 . S
C2774 C2773 1.374 . S
C2775 C2772 1.475 . S
C2775 C2776 1.373 . S
C2775 C2777 1.389 1_545 S
C2776 H2749 0.950 . S
C2776 C2762 1.377 . S
C2776 C2775 1.373 . S
C2777 C2761 1.377 . S
C2777 C2775 1.389 1_565 S
C2777 C2778 1.524 . S
C2778 C2777 1.524 . S
C2778 C2779 1.397 . S
C2778 C2783 1.363 . S
C2779 H2750 0.950 . S
C2779 C2778 1.397 . S
C2779 C2780 1.334 . S
C2780 H2751 0.950 . S
C2780 C2779 1.334 . S
C2780 C2781 1.287 . S
C2781 C2780 1.287 . S
C2781 C2782 1.524 . S
C2781 H2784 0.999 . S
C2782 H2752 0.950 . S
C2782 C2781 1.524 . S
C2782 C2783 1.415 . S
C2783 H2753 0.950 . S
C2783 C2778 1.363 . S
C2783 C2782 1.415 . S
H2784 C2781 0.999 . S
H2785 C2766 0.913 . S
H2786 C2804 0.951 . S
H2787 C2806 0.951 . S
H2788 C2808 0.980 . S
H2789 C2809 0.951 . S
H2790 C2811 0.950 . S
H2791 C2814 0.950 . S
H2792 C2815 0.950 . S
H2793 C2817 0.950 . S
H2794 C2818 0.950 . S
H2795 C2819 1.016 . S
H2796 C2821 0.964 . S
H2797 C2823 0.950 . S
H2798 C2824 0.950 . S
H2799 C2826 0.950 . S
H2800 C2829 0.950 . S
H2801 C2830 0.950 . S
H2802 C2832 0.950 . S
H2803 C2833 0.950 . S
C2804 H2786 0.951 . S
C2804 C2805 1.366 . S
C2804 C2806 1.388 . S
C2805 C2804 1.366 . S
C2805 C2809 1.382 1_655 S
C2806 H2787 0.951 . S
C2806 C2804 1.388 . S
C2806 C2807 1.366 . S
C2807 C2806 1.366 . S
C2807 C2808 1.402 1_655 S
C2807 C2810 1.499 . S
C2808 H2788 0.980 . S
C2808 C2807 1.402 1_455 S
C2808 C2809 1.359 . S
C2809 H2789 0.951 . S
C2809 C2805 1.382 1_455 S
C2809 C2808 1.359 . S
C2810 C2807 1.499 . S
C2810 C2811 1.373 . S
C2810 C2812 1.389 1_655 S
C2811 H2790 0.950 . S
C2811 C2810 1.373 . S
C2811 C2827 1.377 . S
C2812 C2810 1.389 1_455 S
C2812 C2813 1.524 . S
C2812 C2826 1.377 . S
C2813 C2812 1.524 . S
C2813 C2814 1.397 . S
C2813 C2818 1.363 . S
C2814 H2791 0.950 . S
C2814 C2813 1.397 . S
C2814 C2815 1.334 . S
C2815 H2792 0.950 . S
C2815 C2814 1.334 . S
C2815 C2816 1.287 . S
C2816 C2815 1.287 . S
C2816 C2817 1.524 . S
C2816 H2835 0.913 . S
C2817 H2793 0.950 . S
C2817 C2816 1.524 . S
C2817 C2818 1.415 . S
C2818 H2794 0.950 . S
C2818 C2813 1.363 . S
C2818 C2817 1.415 . S
C2819 H2795 1.016 . S
C2819 C2820 1.341 1_455 S
C2819 C2821 1.369 . S
C2820 C2819 1.341 1_655 S
C2820 C2824 1.385 . S
C2821 H2796 0.964 . S
C2821 C2819 1.369 . S
C2821 C2822 1.339 1_455 S
C2822 C2821 1.339 1_655 S
C2822 C2823 1.414 . S
C2822 C2825 1.499 . S
C2823 H2797 0.950 . S
C2823 C2822 1.414 . S
C2823 C2824 1.374 . S
C2824 H2798 0.950 . S
C2824 C2820 1.385 . S
C2824 C2823 1.374 . S
C2825 C2822 1.499 . S
C2825 C2826 1.373 1_655 S
C2825 C2827 1.389 . S
C2826 H2799 0.950 . S
C2826 C2812 1.377 . S
C2826 C2825 1.373 1_455 S
C2827 C2811 1.377 . S
C2827 C2825 1.389 . S
C2827 C2828 1.524 . S
C2828 C2827 1.524 . S
C2828 C2829 1.397 . S
C2828 C2833 1.363 . S
C2829 H2800 0.950 . S
C2829 C2828 1.397 . S
C2829 C2830 1.334 . S
C2830 H2801 0.950 . S
C2830 C2829 1.334 . S
C2830 C2831 1.287 . S
C2831 C2830 1.287 . S
C2831 C2832 1.524 . S
C2831 H2834 0.999 . S
C2832 H2802 0.950 . S
C2832 C2831 1.524 . S
C2832 C2833 1.415 . S
C2833 H2803 0.950 . S
C2833 C2828 1.363 . S
C2833 C2832 1.415 . S
H2834 C2831 0.999 . S
H2835 C2816 0.913 . S
H2836 C2854 0.951 . S
H2837 C2856 0.951 . S
H2838 C2858 0.950 . S
H2839 C2859 0.950 . S
H2840 C2861 0.950 . S
H2841 C2864 0.950 . S
H2842 C2865 0.950 . S
H2843 C2867 0.950 . S
H2844 C2868 0.950 . S
H2845 C2869 0.951 . S
H2846 C2871 0.951 . S
H2847 C2873 0.950 . S
H2848 C2874 0.950 . S
H2849 C2876 0.950 . S
H2850 C2879 0.950 . S
H2851 C2880 0.950 . S
H2852 C2882 0.950 . S
H2853 C2883 0.950 . S
C2854 H2836 0.951 . S
C2854 C2855 1.366 . S
C2854 C2856 1.388 . S
C2855 C2854 1.366 . S
C2855 C2859 1.385 . S
C2856 H2837 0.951 . S
C2856 C2854 1.388 . S
C2856 C2857 1.366 . S
C2857 C2856 1.366 . S
C2857 C2858 1.414 . S
C2857 C2860 1.499 . S
C2858 H2838 0.950 . S
C2858 C2857 1.414 . S
C2858 C2859 1.374 . S
C2859 H2839 0.950 . S
C2859 C2855 1.385 . S
C2859 C2858 1.374 . S
C2860 C2857 1.499 . S
C2860 C2861 1.373 . S
C2860 C2862 1.389 . S
C2861 H2840 0.950 . S
C2861 C2860 1.373 . S
C2861 C2877 1.377 . S
C2862 C2860 1.389 . S
C2862 C2863 1.524 . S
C2862 C2876 1.377 . S
C2863 C2862 1.524 . S
C2863 C2864 1.397 . S
C2863 C2868 1.363 . S
C2864 H2841 0.950 . S
C2864 C2863 1.397 . S
C2864 C2865 1.334 . S
C2865 H2842 0.950 . S
C2865 C2864 1.334 . S
C2865 C2866 1.287 . S
C2866 C2865 1.287 . S
C2866 C2867 1.524 . S
C2866 H2885 0.913 . S
C2867 H2843 0.950 . S
C2867 C2866 1.524 . S
C2867 C2868 1.415 . S
C2868 H2844 0.950 . S
C2868 C2863 1.363 . S
C2868 C2867 1.415 . S
C2869 H2845 0.951 . S
C2869 C2870 1.366 . S
C2869 C2871 1.388 . S
C2870 C2869 1.366 . S
C2870 C2874 1.385 . S
C2871 H2846 0.951 . S
C2871 C2869 1.388 . S
C2871 C2872 1.366 . S
C2872 C2871 1.366 . S
C2872 C2873 1.414 . S
C2872 C2875 1.499 . S
C2873 H2847 0.950 . S
C2873 C2872 1.414 . S
C2873 C2874 1.374 . S
C2874 H2848 0.950 . S
C2874 C2870 1.385 . S
C2874 C2873 1.374 . S
C2875 C2872 1.499 . S
C2875 C2876 1.373 . S
C2875 C2877 1.389 . S
C2876 H2849 0.950 . S
C2876 C2862 1.377 . S
C2876 C2875 1.373 . S
C2877 C2861 1.377 . S
C2877 C2875 1.389 . S
C2877 C2878 1.524 . S
C2878 C2877 1.524 . S
C2878 C2879 1.397 . S
C2878 C2883 1.363 . S
C2879 H2850 0.950 . S
C2879 C2878 1.397 . S
C2879 C2880 1.334 . S
C2880 H2851 0.950 . S
C2880 C2879 1.334 . S
C2880 C2881 1.287 . S
C2881 C2880 1.287 . S
C2881 C2882 1.524 . S
C2881 H2884 0.999 . S
C2882 H2852 0.950 . S
C2882 C2881 1.524 . S
C2882 C2883 1.415 . S
C2883 H2853 0.950 . S
C2883 C2878 1.363 . S
C2883 C2882 1.415 . S
H2884 C2881 0.999 . S
H2885 C2866 0.913 . S
H2886 C2904 0.951 . S
H2887 C2906 0.951 . S
H2888 C2908 0.950 . S
H2889 C2909 0.950 . S
H2890 C2911 0.950 . S
H2891 C2914 0.950 . S
H2892 C2915 0.950 . S
H2893 C2917 0.950 . S
H2894 C2918 0.950 . S
H2895 C2919 0.951 . S
H2896 C2921 0.951 . S
H2897 C2923 0.950 . S
H2898 C2924 0.950 . S
H2899 C2926 0.950 . S
H2900 C2929 0.950 . S
H2901 C2930 0.950 . S
H2902 C2932 0.950 . S
H2903 C2933 0.950 . S
C2904 H2886 0.951 . S
C2904 C2905 1.366 . S
C2904 C2906 1.388 . S
C2905 C2904 1.366 . S
C2905 C2909 1.385 . S
C2906 H2887 0.951 . S
C2906 C2904 1.388 . S
C2906 C2907 1.366 . S
C2907 C2906 1.366 . S
C2907 C2908 1.414 . S
C2907 C2910 1.499 . S
C2908 H2888 0.950 . S
C2908 C2907 1.414 . S
C2908 C2909 1.374 . S
C2909 H2889 0.950 . S
C2909 C2905 1.385 . S
C2909 C2908 1.374 . S
C2910 C2907 1.499 . S
C2910 C2911 1.373 . S
C2910 C2912 1.389 . S
C2911 H2890 0.950 . S
C2911 C2910 1.373 . S
C2911 C2927 1.377 . S
C2912 C2910 1.389 . S
C2912 C2913 1.524 . S
C2912 C2926 1.377 . S
C2913 C2912 1.524 . S
C2913 C2914 1.397 . S
C2913 C2918 1.363 . S
C2914 H2891 0.950 . S
C2914 C2913 1.397 . S
C2914 C2915 1.334 . S
C2915 H2892 0.950 . S
C2915 C2914 1.334 . S
C2915 C2916 1.287 . S
C2916 C2915 1.287 . S
C2916 C2917 1.524 . S
C2916 H2935 0.913 . S
C2917 H2893 0.950 . S
C2917 C2916 1.524 . S
C2917 C2918 1.415 . S
C2918 H2894 0.950 . S
C2918 C2913 1.363 . S
C2918 C2917 1.415 . S
C2919 H2895 0.951 . S
C2919 C2920 1.366 . S
C2919 C2921 1.388 . S
C2920 C2919 1.366 . S
C2920 C2924 1.385 . S
C2921 H2896 0.951 . S
C2921 C2919 1.388 . S
C2921 C2922 1.366 . S
C2922 C2921 1.366 . S
C2922 C2923 1.414 . S
C2922 C2925 1.499 . S
C2923 H2897 0.950 . S
C2923 C2922 1.414 . S
C2923 C2924 1.374 . S
C2924 H2898 0.950 . S
C2924 C2920 1.385 . S
C2924 C2923 1.374 . S
C2925 C2922 1.499 . S
C2925 C2926 1.373 . S
C2925 C2927 1.389 . S
C2926 H2899 0.950 . S
C2926 C2912 1.377 . S
C2926 C2925 1.373 . S
C2927 C2911 1.377 . S
C2927 C2925 1.389 . S
C2927 C2928 1.524 . S
C2928 C2927 1.524 . S
C2928 C2929 1.397 . S
C2928 C2933 1.363 . S
C2929 H2900 0.950 . S
C2929 C2928 1.397 . S
C2929 C2930 1.334 . S
C2930 H2901 0.950 . S
C2930 C2929 1.334 . S
C2930 C2931 1.287 . S
C2931 C2930 1.287 . S
C2931 C2932 1.524 . S
C2931 H2934 0.999 . S
C2932 H2902 0.950 . S
C2932 C2931 1.524 . S
C2932 C2933 1.415 . S
C2933 H2903 0.950 . S
C2933 C2928 1.363 . S
C2933 C2932 1.415 . S
H2934 C2931 0.999 . S
H2935 C2916 0.913 . S
H2936 C2954 0.951 . S
H2937 C2956 0.951 . S
H2938 C2958 0.950 . S
H2939 C2959 0.950 . S
H2940 C2961 0.950 . S
H2941 C2964 0.950 . S
H2942 C2965 0.950 . S
H2943 C2967 0.950 . S
H2944 C2968 0.950 . S
H2945 C2969 0.951 . S
H2946 C2971 0.951 . S
H2947 C2973 0.950 . S
H2948 C2974 0.950 . S
H2949 C2976 0.950 . S
H2950 C2979 0.950 . S
H2951 C2980 0.950 . S
H2952 C2982 0.950 . S
H2953 C2983 0.950 . S
C2954 H2936 0.951 . S
C2954 C2955 1.366 . S
C2954 C2956 1.388 . S
C2955 C2954 1.366 . S
C2955 C2959 1.385 . S
C2956 H2937 0.951 . S
C2956 C2954 1.388 . S
C2956 C2957 1.366 . S
C2957 C2956 1.366 . S
C2957 C2958 1.414 . S
C2957 C2960 1.499 . S
C2958 H2938 0.950 . S
C2958 C2957 1.414 . S
C2958 C2959 1.374 . S
C2959 H2939 0.950 . S
C2959 C2955 1.385 . S
C2959 C2958 1.374 . S
C2960 C2957 1.499 . S
C2960 C2961 1.373 . S
C2960 C2962 1.389 . S
C2961 H2940 0.950 . S
C2961 C2960 1.373 . S
C2961 C2977 1.377 . S
C2962 C2960 1.389 . S
C2962 C2963 1.524 . S
C2962 C2976 1.377 . S
C2963 C2962 1.524 . S
C2963 C2964 1.397 . S
C2963 C2968 1.363 . S
C2964 H2941 0.950 . S
C2964 C2963 1.397 . S
C2964 C2965 1.334 . S
C2965 H2942 0.950 . S
C2965 C2964 1.334 . S
C2965 C2966 1.287 . S
C2966 C2965 1.287 . S
C2966 C2967 1.524 . S
C2966 H2985 0.913 . S
C2967 H2943 0.950 . S
C2967 C2966 1.524 . S
C2967 C2968 1.415 . S
C2968 H2944 0.950 . S
C2968 C2963 1.363 . S
C2968 C2967 1.415 . S
C2969 H2945 0.951 . S
C2969 C2970 1.366 . S
C2969 C2971 1.388 . S
C2970 C2969 1.366 . S
C2970 C2974 1.385 . S
C2971 H2946 0.951 . S
C2971 C2969 1.388 . S
C2971 C2972 1.366 . S
C2972 C2971 1.366 . S
C2972 C2973 1.414 . S
C2972 C2975 1.499 . S
C2973 H2947 0.950 . S
C2973 C2972 1.414 . S
C2973 C2974 1.374 . S
C2974 H2948 0.950 . S
C2974 C2970 1.385 . S
C2974 C2973 1.374 . S
C2975 C2972 1.499 . S
C2975 C2976 1.373 . S
C2975 C2977 1.389 . S
C2976 H2949 0.950 . S
C2976 C2962 1.377 . S
C2976 C2975 1.373 . S
C2977 C2961 1.377 . S
C2977 C2975 1.389 . S
C2977 C2978 1.524 . S
C2978 C2977 1.524 . S
C2978 C2979 1.397 . S
C2978 C2983 1.363 . S
C2979 H2950 0.950 . S
C2979 C2978 1.397 . S
C2979 C2980 1.334 . S
C2980 H2951 0.950 . S
C2980 C2979 1.334 . S
C2980 C2981 1.287 . S
C2981 C2980 1.287 . S
C2981 C2982 1.524 . S
C2981 H2984 0.999 . S
C2982 H2952 0.950 . S
C2982 C2981 1.524 . S
C2982 C2983 1.415 . S
C2983 H2953 0.950 . S
C2983 C2978 1.363 . S
C2983 C2982 1.415 . S
H2984 C2981 0.999 . S
H2985 C2966 0.913 . S
H2986 C3004 0.951 . S
H2987 C3006 0.951 . S
H2988 C3008 0.950 . S
H2989 C3009 0.950 . S
H2990 C3011 0.950 . S
H2991 C3014 0.950 . S
H2992 C3015 0.950 . S
H2993 C3017 0.950 . S
H2994 C3018 0.950 . S
H2995 C3019 0.951 . S
H2996 C3021 0.951 . S
H2997 C3023 0.950 . S
H2998 C3024 0.950 . S
H2999 C3026 0.950 . S
H3000 C3029 0.950 . S
H3001 C3030 0.950 . S
H3002 C3032 0.950 . S
H3003 C3033 0.950 . S
C3004 H2986 0.951 . S
C3004 C3005 1.366 . S
C3004 C3006 1.388 . S
C3005 C3004 1.366 . S
C3005 C3009 1.385 . S
C3006 H2987 0.951 . S
C3006 C3004 1.388 . S
C3006 C3007 1.366 . S
C3007 C3006 1.366 . S
C3007 C3008 1.414 . S
C3007 C3010 1.499 . S
C3008 H2988 0.950 . S
C3008 C3007 1.414 . S
C3008 C3009 1.374 . S
C3009 H2989 0.950 . S
C3009 C3005 1.385 . S
C3009 C3008 1.374 . S
C3010 C3007 1.499 . S
C3010 C3011 1.373 . S
C3010 C3012 1.389 . S
C3011 H2990 0.950 . S
C3011 C3010 1.373 . S
C3011 C3027 1.377 . S
C3012 C3010 1.389 . S
C3012 C3013 1.524 . S
C3012 C3026 1.377 . S
C3013 C3012 1.524 . S
C3013 C3014 1.397 . S
C3013 C3018 1.363 . S
C3014 H2991 0.950 . S
C3014 C3013 1.397 . S
C3014 C3015 1.334 . S
C3015 H2992 0.950 . S
C3015 C3014 1.334 . S
C3015 C3016 1.287 . S
C3016 C3015 1.287 . S
C3016 C3017 1.524 . S
C3016 H3035 0.913 . S
C3017 H2993 0.950 . S
C3017 C3016 1.524 . S
C3017 C3018 1.415 . S
C3018 H2994 0.950 . S
C3018 C3013 1.363 . S
C3018 C3017 1.415 . S
C3019 H2995 0.951 . S
C3019 C3020 1.366 . S
C3019 C3021 1.388 . S
C3020 C3019 1.366 . S
C3020 C3024 1.385 . S
C3021 H2996 0.951 . S
C3021 C3019 1.388 . S
C3021 C3022 1.366 . S
C3022 C3021 1.366 . S
C3022 C3023 1.414 . S
C3022 C3025 1.499 . S
C3023 H2997 0.950 . S
C3023 C3022 1.414 . S
C3023 C3024 1.374 . S
C3024 H2998 0.950 . S
C3024 C3020 1.385 . S
C3024 C3023 1.374 . S
C3025 C3022 1.499 . S
C3025 C3026 1.373 . S
C3025 C3027 1.389 . S
C3026 H2999 0.950 . S
C3026 C3012 1.377 . S
C3026 C3025 1.373 . S
C3027 C3011 1.377 . S
C3027 C3025 1.389 . S
C3027 C3028 1.524 . S
C3028 C3027 1.524 . S
C3028 C3029 1.397 . S
C3028 C3033 1.363 . S
C3029 H3000 0.950 . S
C3029 C3028 1.397 . S
C3029 C3030 1.334 . S
C3030 H3001 0.950 . S
C3030 C3029 1.334 . S
C3030 C3031 1.287 . S
C3031 C3030 1.287 . S
C3031 C3032 1.524 . S
C3031 H3034 0.999 . S
C3032 H3002 0.950 . S
C3032 C3031 1.524 . S
C3032 C3033 1.415 . S
C3033 H3003 0.950 . S
C3033 C3028 1.363 . S
C3033 C3032 1.415 . S
H3034 C3031 0.999 . S
H3035 C3016 0.913 . S
H3036 C3054 0.951 . S
H3037 C3056 0.951 . S
H3038 C3058 0.950 . S
H3039 C3059 0.950 . S
H3040 C3061 0.950 . S
H3041 C3064 0.950 . S
H3042 C3065 0.950 . S
H3043 C3067 0.950 . S
H3044 C3068 0.950 . S
H3045 C3069 0.951 . S
H3046 C3071 0.951 . S
H3047 C3073 0.950 . S
H3048 C3074 0.950 . S
H3049 C3076 0.950 . S
H3050 C3079 0.950 . S
H3051 C3080 0.950 . S
H3052 C3082 0.950 . S
H3053 C3083 0.950 . S
C3054 H3036 0.951 . S
C3054 C3055 1.366 . S
C3054 C3056 1.388 . S
C3055 C3054 1.366 . S
C3055 C3059 1.385 . S
C3056 H3037 0.951 . S
C3056 C3054 1.388 . S
C3056 C3057 1.366 . S
C3057 C3056 1.366 . S
C3057 C3058 1.414 . S
C3057 C3060 1.499 . S
C3058 H3038 0.950 . S
C3058 C3057 1.414 . S
C3058 C3059 1.374 . S
C3059 H3039 0.950 . S
C3059 C3055 1.385 . S
C3059 C3058 1.374 . S
C3060 C3057 1.499 . S
C3060 C3061 1.373 . S
C3060 C3062 1.389 . S
C3061 H3040 0.950 . S
C3061 C3060 1.373 . S
C3061 C3077 1.377 . S
C3062 C3060 1.389 . S
C3062 C3063 1.524 . S
C3062 C3076 1.377 . S
C3063 C3062 1.524 . S
C3063 C3064 1.397 . S
C3063 C3068 1.363 . S
C3064 H3041 0.950 . S
C3064 C3063 1.397 . S
C3064 C3065 1.334 . S
C3065 H3042 0.950 . S
C3065 C3064 1.334 . S
C3065 C3066 1.287 . S
C3066 C3065 1.287 . S
C3066 C3067 1.524 . S
C3066 H3085 0.913 . S
C3067 H3043 0.950 . S
C3067 C3066 1.524 . S
C3067 C3068 1.415 . S
C3068 H3044 0.950 . S
C3068 C3063 1.363 . S
C3068 C3067 1.415 . S
C3069 H3045 0.951 . S
C3069 C3070 1.366 . S
C3069 C3071 1.388 . S
C3070 C3069 1.366 . S
C3070 C3074 1.385 . S
C3071 H3046 0.951 . S
C3071 C3069 1.388 . S
C3071 C3072 1.366 . S
C3072 C3071 1.366 . S
C3072 C3073 1.414 . S
C3072 C3075 1.499 . S
C3073 H3047 0.950 . S
C3073 C3072 1.414 . S
C3073 C3074 1.374 . S
C3074 H3048 0.950 . S
C3074 C3070 1.385 . S
C3074 C3073 1.374 . S
C3075 C3072 1.499 . S
C3075 C3076 1.373 . S
C3075 C3077 1.389 . S
C3076 H3049 0.950 . S
C3076 C3062 1.377 . S
C3076 C3075 1.373 . S
C3077 C3061 1.377 . S
C3077 C3075 1.389 . S
C3077 C3078 1.524 . S
C3078 C3077 1.524 . S
C3078 C3079 1.397 . S
C3078 C3083 1.363 . S
C3079 H3050 0.950 . S
C3079 C3078 1.397 . S
C3079 C3080 1.334 . S
C3080 H3051 0.950 . S
C3080 C3079 1.334 . S
C3080 C3081 1.287 . S
C3081 C3080 1.287 . S
C3081 C3082 1.524 . S
C3081 H3084 0.999 . S
C3082 H3052 0.950 . S
C3082 C3081 1.524 . S
C3082 C3083 1.415 . S
C3083 H3053 0.950 . S
C3083 C3078 1.363 . S
C3083 C3082 1.415 . S
H3084 C3081 0.999 . S
H3085 C3066 0.913 . S
H3086 C3104 0.951 . S
H3087 C3106 0.951 . S
H3088 C3108 0.950 . S
H3089 C3109 0.950 . S
H3090 C3111 0.950 . S
H3091 C3114 0.950 . S
H3092 C3115 0.950 . S
H3093 C3117 0.950 . S
H3094 C3118 0.950 . S
H3095 C3119 0.951 . S
H3096 C3121 0.951 . S
H3097 C3123 0.950 . S
H3098 C3124 0.950 . S
H3099 C3126 0.950 . S
H3100 C3129 0.950 . S
H3101 C3130 0.950 . S
H3102 C3132 0.950 . S
H3103 C3133 0.950 . S
C3104 H3086 0.951 . S
C3104 C3105 1.366 . S
C3104 C3106 1.388 . S
C3105 C3104 1.366 . S
C3105 C3109 1.385 . S
C3106 H3087 0.951 . S
C3106 C3104 1.388 . S
C3106 C3107 1.366 . S
C3107 C3106 1.366 . S
C3107 C3108 1.414 . S
C3107 C3110 1.499 . S
C3108 H3088 0.950 . S
C3108 C3107 1.414 . S
C3108 C3109 1.374 . S
C3109 H3089 0.950 . S
C3109 C3105 1.385 . S
C3109 C3108 1.374 . S
C3110 C3107 1.499 . S
C3110 C3111 1.373 . S
C3110 C3112 1.389 . S
C3111 H3090 0.950 . S
C3111 C3110 1.373 . S
C3111 C3127 1.377 . S
C3112 C3110 1.389 . S
C3112 C3113 1.524 . S
C3112 C3126 1.377 . S
C3113 C3112 1.524 . S
C3113 C3114 1.397 . S
C3113 C3118 1.363 . S
C3114 H3091 0.950 . S
C3114 C3113 1.397 . S
C3114 C3115 1.334 . S
C3115 H3092 0.950 . S
C3115 C3114 1.334 . S
C3115 C3116 1.287 . S
C3116 C3115 1.287 . S
C3116 C3117 1.524 . S
C3116 H3135 0.913 . S
C3117 H3093 0.950 . S
C3117 C3116 1.524 . S
C3117 C3118 1.415 . S
C3118 H3094 0.950 . S
C3118 C3113 1.363 . S
C3118 C3117 1.415 . S
C3119 H3095 0.951 . S
C3119 C3120 1.366 . S
C3119 C3121 1.388 . S
C3120 C3119 1.366 . S
C3120 C3124 1.385 . S
C3121 H3096 0.951 . S
C3121 C3119 1.388 . S
C3121 C3122 1.366 . S
C3122 C3121 1.366 . S
C3122 C3123 1.414 . S
C3122 C3125 1.499 . S
C3123 H3097 0.950 . S
C3123 C3122 1.414 . S
C3123 C3124 1.374 . S
C3124 H3098 0.950 . S
C3124 C3120 1.385 . S
C3124 C3123 1.374 . S
C3125 C3122 1.499 . S
C3125 C3126 1.373 . S
C3125 C3127 1.389 . S
C3126 H3099 0.950 . S
C3126 C3112 1.377 . S
C3126 C3125 1.373 . S
C3127 C3111 1.377 . S
C3127 C3125 1.389 . S
C3127 C3128 1.524 . S
C3128 C3127 1.524 . S
C3128 C3129 1.397 . S
C3128 C3133 1.363 . S
C3129 H3100 0.950 . S
C3129 C3128 1.397 . S
C3129 C3130 1.334 . S
C3130 H3101 0.950 . S
C3130 C3129 1.334 . S
C3130 C3131 1.287 . S
C3131 C3130 1.287 . S
C3131 C3132 1.524 . S
C3131 H3134 0.999 . S
C3132 H3102 0.950 . S
C3132 C3131 1.524 . S
C3132 C3133 1.415 . S
C3133 H3103 0.950 . S
C3133 C3128 1.363 . S
C3133 C3132 1.415 . S
H3134 C3131 0.999 . S
H3135 C3116 0.913 . S
H3136 C3154 0.951 . S
H3137 C3156 0.951 . S
H3138 C3158 0.950 . S
H3139 C3159 0.950 . S
H3140 C3161 0.950 . S
H3141 C3164 0.950 . S
H3142 C3165 0.950 . S
H3143 C3167 0.950 . S
H3144 C3168 0.950 . S
H3145 C3169 0.951 . S
H3146 C3171 0.951 . S
H3147 C3173 0.950 . S
H3148 C3174 0.950 . S
H3149 C3176 0.950 . S
H3150 C3179 0.950 . S
H3151 C3180 0.950 . S
H3152 C3182 0.950 . S
H3153 C3183 0.950 . S
C3154 H3136 0.951 . S
C3154 C3155 1.366 . S
C3154 C3156 1.388 . S
C3155 C3154 1.366 . S
C3155 C3159 1.385 . S
C3156 H3137 0.951 . S
C3156 C3154 1.388 . S
C3156 C3157 1.366 . S
C3157 C3156 1.366 . S
C3157 C3158 1.414 . S
C3157 C3160 1.499 . S
C3158 H3138 0.950 . S
C3158 C3157 1.414 . S
C3158 C3159 1.374 . S
C3159 H3139 0.950 . S
C3159 C3155 1.385 . S
C3159 C3158 1.374 . S
C3160 C3157 1.499 . S
C3160 C3161 1.373 . S
C3160 C3162 1.389 . S
C3161 H3140 0.950 . S
C3161 C3160 1.373 . S
C3161 C3177 1.377 . S
C3162 C3160 1.389 . S
C3162 C3163 1.524 . S
C3162 C3176 1.377 . S
C3163 C3162 1.524 . S
C3163 C3164 1.397 . S
C3163 C3168 1.363 . S
C3164 H3141 0.950 . S
C3164 C3163 1.397 . S
C3164 C3165 1.334 . S
C3165 H3142 0.950 . S
C3165 C3164 1.334 . S
C3165 C3166 1.287 . S
C3166 C3165 1.287 . S
C3166 C3167 1.524 . S
C3166 H3185 0.913 1_565 S
C3167 H3143 0.950 . S
C3167 C3166 1.524 . S
C3167 C3168 1.415 . S
C3168 H3144 0.950 . S
C3168 C3163 1.363 . S
C3168 C3167 1.415 . S
C3169 H3145 0.951 . S
C3169 C3170 1.366 . S
C3169 C3171 1.388 . S
C3170 C3169 1.366 . S
C3170 C3174 1.385 . S
C3171 H3146 0.951 . S
C3171 C3169 1.388 . S
C3171 C3172 1.366 . S
C3172 C3171 1.366 . S
C3172 C3173 1.414 . S
C3172 C3175 1.499 . S
C3173 H3147 0.950 . S
C3173 C3172 1.414 . S
C3173 C3174 1.374 . S
C3174 H3148 0.950 . S
C3174 C3170 1.385 . S
C3174 C3173 1.374 . S
C3175 C3172 1.499 . S
C3175 C3176 1.373 . S
C3175 C3177 1.389 . S
C3176 H3149 0.950 . S
C3176 C3162 1.377 . S
C3176 C3175 1.373 . S
C3177 C3161 1.377 . S
C3177 C3175 1.389 . S
C3177 C3178 1.524 . S
C3178 C3177 1.524 . S
C3178 C3179 1.397 . S
C3178 C3183 1.363 . S
C3179 H3150 0.950 . S
C3179 C3178 1.397 . S
C3179 C3180 1.334 . S
C3180 H3151 0.950 . S
C3180 C3179 1.334 . S
C3180 C3181 1.287 . S
C3181 C3180 1.287 . S
C3181 C3182 1.524 . S
C3181 H3184 0.999 . S
C3182 H3152 0.950 . S
C3182 C3181 1.524 . S
C3182 C3183 1.415 . S
C3183 H3153 0.950 . S
C3183 C3178 1.363 . S
C3183 C3182 1.415 . S
H3184 C3181 0.999 . S
H3185 C3166 0.913 1_545 S
H3186 C3204 0.951 . S
H3187 C3206 0.951 . S
H3188 C3208 0.950 . S
H3189 C3209 0.950 . S
H3190 C3211 0.950 . S
H3191 C3214 0.950 . S
H3192 C3215 0.950 . S
H3193 C3217 0.950 . S
H3194 C3218 0.950 . S
H3195 C3219 0.951 . S
H3196 C3221 0.951 . S
H3197 C3223 0.950 . S
H3198 C3224 0.950 . S
H3199 C3226 0.950 . S
H3200 C3229 0.950 . S
H3201 C3230 0.950 . S
H3202 C3232 0.950 . S
H3203 C3233 0.950 . S
C3204 H3186 0.951 . S
C3204 C3205 1.366 . S
C3204 C3206 1.388 . S
C3205 C3204 1.366 . S
C3205 C3209 1.385 . S
C3206 H3187 0.951 . S
C3206 C3204 1.388 . S
C3206 C3207 1.366 . S
C3207 C3206 1.366 . S
C3207 C3208 1.414 . S
C3207 C3210 1.499 . S
C3208 H3188 0.950 . S
C3208 C3207 1.414 . S
C3208 C3209 1.374 . S
C3209 H3189 0.950 . S
C3209 C3205 1.385 . S
C3209 C3208 1.374 . S
C3210 C3207 1.499 . S
C3210 C3211 1.373 . S
C3210 C3212 1.389 . S
C3211 H3190 0.950 . S
C3211 C3210 1.373 . S
C3211 C3227 1.377 . S
C3212 C3210 1.389 . S
C3212 C3213 1.524 . S
C3212 C3226 1.377 . S
C3213 C3212 1.524 . S
C3213 C3214 1.397 . S
C3213 C3218 1.363 . S
C3214 H3191 0.950 . S
C3214 C3213 1.397 . S
C3214 C3215 1.334 . S
C3215 H3192 0.950 . S
C3215 C3214 1.334 . S
C3215 C3216 1.287 . S
C3216 C3215 1.287 . S
C3216 C3217 1.524 . S
C3216 H3235 0.869 1_565 S
C3217 H3193 0.950 . S
C3217 C3216 1.524 . S
C3217 C3218 1.415 . S
C3218 H3194 0.950 . S
C3218 C3213 1.363 . S
C3218 C3217 1.415 . S
C3219 H3195 0.951 . S
C3219 C3220 1.366 . S
C3219 C3221 1.388 . S
C3220 C3219 1.366 . S
C3220 C3224 1.385 . S
C3221 H3196 0.951 . S
C3221 C3219 1.388 . S
C3221 C3222 1.366 . S
C3222 C3221 1.366 . S
C3222 C3223 1.414 . S
C3222 C3225 1.499 . S
C3223 H3197 0.950 . S
C3223 C3222 1.414 . S
C3223 C3224 1.374 . S
C3224 H3198 0.950 . S
C3224 C3220 1.385 . S
C3224 C3223 1.374 . S
C3225 C3222 1.499 . S
C3225 C3226 1.373 . S
C3225 C3227 1.389 . S
C3226 H3199 0.950 . S
C3226 C3212 1.377 . S
C3226 C3225 1.373 . S
C3227 C3211 1.377 . S
C3227 C3225 1.389 . S
C3227 C3228 1.524 . S
C3228 C3227 1.524 . S
C3228 C3229 1.397 . S
C3228 C3233 1.363 . S
C3229 H3200 0.950 . S
C3229 C3228 1.397 . S
C3229 C3230 1.334 . S
C3230 H3201 0.950 . S
C3230 C3229 1.334 . S
C3230 C3231 1.287 . S
C3231 C3230 1.287 . S
C3231 C3232 1.524 . S
C3231 H3234 0.999 . S
C3232 H3202 0.950 . S
C3232 C3231 1.524 . S
C3232 C3233 1.415 . S
C3233 H3203 0.950 . S
C3233 C3228 1.363 . S
C3233 C3232 1.415 . S
H3234 C3231 0.999 . S
H3235 C3216 0.869 1_545 S
H3236 C3254 0.951 . S
H3237 C3256 0.951 . S
H3238 C3258 0.950 . S
H3239 C3259 0.950 . S
H3240 C3261 0.950 . S
H3241 C3264 0.950 . S
H3242 C3265 0.950 . S
H3243 C3267 0.950 . S
H3244 C3268 0.950 . S
H3245 C3269 0.951 . S
H3246 C3271 0.951 . S
H3247 C3273 0.950 . S
H3248 C3274 0.950 . S
H3249 C3276 0.950 . S
H3250 C3279 0.950 . S
H3251 C3280 0.950 . S
H3252 C3282 0.950 . S
H3253 C3283 0.950 . S
C3254 H3236 0.951 . S
C3254 C3255 1.366 . S
C3254 C3256 1.388 . S
C3255 C3254 1.366 . S
C3255 C3259 1.385 . S
C3256 H3237 0.951 . S
C3256 C3254 1.388 . S
C3256 C3257 1.366 . S
C3257 C3256 1.366 . S
C3257 C3258 1.414 . S
C3257 C3260 1.499 . S
C3258 H3238 0.950 . S
C3258 C3257 1.414 . S
C3258 C3259 1.374 . S
C3259 H3239 0.950 . S
C3259 C3255 1.385 . S
C3259 C3258 1.374 . S
C3260 C3257 1.499 . S
C3260 C3261 1.373 . S
C3260 C3262 1.389 . S
C3261 H3240 0.950 . S
C3261 C3260 1.373 . S
C3261 C3277 1.377 . S
C3262 C3260 1.389 . S
C3262 C3263 1.524 . S
C3262 C3276 1.377 . S
C3263 C3262 1.524 . S
C3263 C3264 1.397 . S
C3263 C3268 1.363 . S
C3264 H3241 0.950 . S
C3264 C3263 1.397 . S
C3264 C3265 1.334 . S
C3265 H3242 0.950 . S
C3265 C3264 1.334 . S
C3265 C3266 1.287 . S
C3266 C3265 1.287 . S
C3266 C3267 1.524 . S
C3266 H3285 0.913 . S
C3267 H3243 0.950 . S
C3267 C3266 1.524 . S
C3267 C3268 1.415 . S
C3268 H3244 0.950 . S
C3268 C3263 1.363 . S
C3268 C3267 1.415 . S
C3269 H3245 0.951 . S
C3269 C3270 1.366 . S
C3269 C3271 1.388 . S
C3270 C3269 1.366 . S
C3270 C3274 1.385 . S
C3271 H3246 0.951 . S
C3271 C3269 1.388 . S
C3271 C3272 1.366 . S
C3272 C3271 1.366 . S
C3272 C3273 1.414 . S
C3272 C3275 1.499 . S
C3273 H3247 0.950 . S
C3273 C3272 1.414 . S
C3273 C3274 1.374 . S
C3274 H3248 0.950 . S
C3274 C3270 1.385 . S
C3274 C3273 1.374 . S
C3275 C3272 1.499 . S
C3275 C3276 1.373 . S
C3275 C3277 1.389 . S
C3276 H3249 0.950 . S
C3276 C3262 1.377 . S
C3276 C3275 1.373 . S
C3277 C3261 1.377 . S
C3277 C3275 1.389 . S
C3277 C3278 1.524 . S
C3278 C3277 1.524 . S
C3278 C3279 1.397 . S
C3278 C3283 1.363 . S
C3279 H3250 0.950 . S
C3279 C3278 1.397 . S
C3279 C3280 1.334 . S
C3280 H3251 0.950 . S
C3280 C3279 1.334 . S
C3280 C3281 1.287 . S
C3281 C3280 1.287 . S
C3281 C3282 1.524 . S
C3281 H3284 0.999 . S
C3282 H3252 0.950 . S
C3282 C3281 1.524 . S
C3282 C3283 1.415 . S
C3283 H3253 0.950 . S
C3283 C3278 1.363 . S
C3283 C3282 1.415 . S
H3284 C3281 0.999 . S
H3285 C3266 0.913 . S
H3286 C3304 0.951 . S
H3287 C3306 0.951 . S
H3288 C3308 0.950 . S
H3289 C3309 0.950 . S
H3290 C3311 0.950 . S
H3291 C3314 0.950 . S
H3292 C3315 0.950 . S
H3293 C3317 0.950 . S
H3294 C3318 0.950 . S
H3295 C3319 0.951 . S
H3296 C3321 0.951 . S
H3297 C3323 0.950 . S
H3298 C3324 0.950 . S
H3299 C3326 0.950 . S
H3300 C3329 0.950 . S
H3301 C3330 0.950 . S
H3302 C3332 0.950 . S
H3303 C3333 0.950 . S
C3304 H3286 0.951 . S
C3304 C3305 1.366 . S
C3304 C3306 1.388 . S
C3305 C3304 1.366 . S
C3305 C3309 1.385 . S
C3306 H3287 0.951 . S
C3306 C3304 1.388 . S
C3306 C3307 1.366 . S
C3307 C3306 1.366 . S
C3307 C3308 1.414 . S
C3307 C3310 1.499 . S
C3308 H3288 0.950 . S
C3308 C3307 1.414 . S
C3308 C3309 1.374 . S
C3309 H3289 0.950 . S
C3309 C3305 1.385 . S
C3309 C3308 1.374 . S
C3310 C3307 1.499 . S
C3310 C3311 1.373 . S
C3310 C3312 1.389 . S
C3311 H3290 0.950 . S
C3311 C3310 1.373 . S
C3311 C3327 1.377 . S
C3312 C3310 1.389 . S
C3312 C3313 1.524 . S
C3312 C3326 1.377 . S
C3313 C3312 1.524 . S
C3313 C3314 1.397 . S
C3313 C3318 1.363 . S
C3314 H3291 0.950 . S
C3314 C3313 1.397 . S
C3314 C3315 1.334 . S
C3315 H3292 0.950 . S
C3315 C3314 1.334 . S
C3315 C3316 1.287 . S
C3316 C3315 1.287 . S
C3316 C3317 1.524 . S
C3316 H3335 0.913 . S
C3317 H3293 0.950 . S
C3317 C3316 1.524 . S
C3317 C3318 1.415 . S
C3318 H3294 0.950 . S
C3318 C3313 1.363 . S
C3318 C3317 1.415 . S
C3319 H3295 0.951 . S
C3319 C3320 1.366 . S
C3319 C3321 1.388 . S
C3320 C3319 1.366 . S
C3320 C3324 1.385 . S
C3321 H3296 0.951 . S
C3321 C3319 1.388 . S
C3321 C3322 1.366 . S
C3322 C3321 1.366 . S
C3322 C3323 1.414 . S
C3322 C3325 1.499 . S
C3323 H3297 0.950 . S
C3323 C3322 1.414 . S
C3323 C3324 1.374 . S
C3324 H3298 0.950 . S
C3324 C3320 1.385 . S
C3324 C3323 1.374 . S
C3325 C3322 1.499 . S
C3325 C3326 1.373 . S
C3325 C3327 1.389 . S
C3326 H3299 0.950 . S
C3326 C3312 1.377 . S
C3326 C3325 1.373 . S
C3327 C3311 1.377 . S
C3327 C3325 1.389 . S
C3327 C3328 1.524 . S
C3328 C3327 1.524 . S
C3328 C3329 1.397 . S
C3328 C3333 1.363 . S
C3329 H3300 0.950 . S
C3329 C3328 1.397 . S
C3329 C3330 1.334 . S
C3330 H3301 0.950 . S
C3330 C3329 1.334 . S
C3330 C3331 1.287 . S
C3331 C3330 1.287 . S
C3331 C3332 1.524 . S
C3331 H3334 0.999 . S
C3332 H3302 0.950 . S
C3332 C3331 1.524 . S
C3332 C3333 1.415 . S
C3333 H3303 0.950 . S
C3333 C3328 1.363 . S
C3333 C3332 1.415 . S
H3334 C3331 0.999 . S
H3335 C3316 0.913 . S
H3336 C3354 0.951 . S
H3337 C3356 0.951 . S
H3338 C3358 0.950 . S
H3339 C3359 0.950 . S
H3340 C3361 0.950 . S
H3341 C3364 0.950 . S
H3342 C3365 0.950 . S
H3343 C3367 0.950 . S
H3344 C3368 0.950 . S
H3345 C3369 0.951 . S
H3346 C3371 0.951 . S
H3347 C3373 0.950 . S
H3348 C3374 0.950 . S
H3349 C3376 0.950 . S
H3350 C3379 0.950 . S
H3351 C3380 0.950 . S
H3352 C3382 0.950 . S
H3353 C3383 0.950 . S
C3354 H3336 0.951 . S
C3354 C3355 1.366 . S
C3354 C3356 1.388 . S
C3355 C3354 1.366 . S
C3355 C3359 1.385 . S
C3356 H3337 0.951 . S
C3356 C3354 1.388 . S
C3356 C3357 1.366 . S
C3357 C3356 1.366 . S
C3357 C3358 1.414 . S
C3357 C3360 1.499 . S
C3358 H3338 0.950 . S
C3358 C3357 1.414 . S
C3358 C3359 1.374 . S
C3359 H3339 0.950 . S
C3359 C3355 1.385 . S
C3359 C3358 1.374 . S
C3360 C3357 1.499 . S
C3360 C3361 1.373 . S
C3360 C3362 1.389 . S
C3361 H3340 0.950 . S
C3361 C3360 1.373 . S
C3361 C3377 1.377 . S
C3362 C3360 1.389 . S
C3362 C3363 1.524 . S
C3362 C3376 1.377 . S
C3363 C3362 1.524 . S
C3363 C3364 1.397 . S
C3363 C3368 1.363 . S
C3364 H3341 0.950 . S
C3364 C3363 1.397 . S
C3364 C3365 1.334 . S
C3365 H3342 0.950 . S
C3365 C3364 1.334 . S
C3365 C3366 1.287 . S
C3366 C3365 1.287 . S
C3366 C3367 1.524 . S
C3366 H3385 0.913 . S
C3367 H3343 0.950 . S
C3367 C3366 1.524 . S
C3367 C3368 1.415 . S
C3368 H3344 0.950 . S
C3368 C3363 1.363 . S
C3368 C3367 1.415 . S
C3369 H3345 0.951 . S
C3369 C3370 1.366 . S
C3369 C3371 1.388 . S
C3370 C3369 1.366 . S
C3370 C3374 1.385 . S
C3371 H3346 0.951 . S
C3371 C3369 1.388 . S
C3371 C3372 1.366 . S
C3372 C3371 1.366 . S
C3372 C3373 1.414 . S
C3372 C3375 1.499 . S
C3373 H3347 0.950 . S
C3373 C3372 1.414 . S
C3373 C3374 1.374 . S
C3374 H3348 0.950 . S
C3374 C3370 1.385 . S
C3374 C3373 1.374 . S
C3375 C3372 1.499 . S
C3375 C3376 1.373 . S
C3375 C3377 1.389 . S
C3376 H3349 0.950 . S
C3376 C3362 1.377 . S
C3376 C3375 1.373 . S
C3377 C3361 1.377 . S
C3377 C3375 1.389 . S
C3377 C3378 1.524 . S
C3378 C3377 1.524 . S
C3378 C3379 1.397 . S
C3378 C3383 1.363 . S
C3379 H3350 0.950 . S
C3379 C3378 1.397 . S
C3379 C3380 1.334 . S
C3380 H3351 0.950 . S
C3380 C3379 1.334 . S
C3380 C3381 1.287 . S
C3381 C3380 1.287 . S
C3381 C3382 1.524 . S
C3381 H3384 0.999 . S
C3382 H3352 0.950 . S
C3382 C3381 1.524 . S
C3382 C3383 1.415 . S
C3383 H3353 0.950 . S
C3383 C3378 1.363 . S
C3383 C3382 1.415 . S
H3384 C3381 0.999 . S
H3385 C3366 0.913 . S
H3386 C3404 0.951 . S
H3387 C3406 0.951 . S
H3388 C3408 0.950 . S
H3389 C3409 0.950 . S
H3390 C3411 0.950 . S
H3391 C3414 0.950 . S
H3392 C3415 0.950 . S
H3393 C3417 0.950 . S
H3394 C3418 0.950 . S
H3395 C3419 0.951 . S
H3396 C3421 0.951 . S
H3397 C3423 0.950 . S
H3398 C3424 0.950 . S
H3399 C3426 0.950 . S
H3400 C3429 0.950 . S
H3401 C3430 0.950 . S
H3402 C3432 0.950 . S
H3403 C3433 0.950 . S
C3404 H3386 0.951 . S
C3404 C3405 1.366 . S
C3404 C3406 1.388 . S
C3405 C3404 1.366 . S
C3405 C3409 1.385 . S
C3406 H3387 0.951 . S
C3406 C3404 1.388 . S
C3406 C3407 1.366 . S
C3407 C3406 1.366 . S
C3407 C3408 1.414 . S
C3407 C3410 1.499 . S
C3408 H3388 0.950 . S
C3408 C3407 1.414 . S
C3408 C3409 1.374 . S
C3409 H3389 0.950 . S
C3409 C3405 1.385 . S
C3409 C3408 1.374 . S
C3410 C3407 1.499 . S
C3410 C3411 1.373 . S
C3410 C3412 1.389 . S
C3411 H3390 0.950 . S
C3411 C3410 1.373 . S
C3411 C3427 1.377 . S
C3412 C3410 1.389 . S
C3412 C3413 1.524 . S
C3412 C3426 1.377 . S
C3413 C3412 1.524 . S
C3413 C3414 1.397 . S
C3413 C3418 1.363 . S
C3414 H3391 0.950 . S
C3414 C3413 1.397 . S
C3414 C3415 1.334 . S
C3415 H3392 0.950 . S
C3415 C3414 1.334 . S
C3415 C3416 1.287 . S
C3416 C3415 1.287 . S
C3416 C3417 1.524 . S
C3416 H3435 0.913 . S
C3417 H3393 0.950 . S
C3417 C3416 1.524 . S
C3417 C3418 1.415 . S
C3418 H3394 0.950 . S
C3418 C3413 1.363 . S
C3418 C3417 1.415 . S
C3419 H3395 0.951 . S
C3419 C3420 1.366 . S
C3419 C3421 1.388 . S
C3420 C3419 1.366 . S
C3420 C3424 1.385 . S
C3421 H3396 0.951 . S
C3421 C3419 1.388 . S
C3421 C3422 1.366 . S
C3422 C3421 1.366 . S
C3422 C3423 1.414 . S
C3422 C3425 1.499 . S
C3423 H3397 0.950 . S
C3423 C3422 1.414 . S
C3423 C3424 1.374 . S
C3424 H3398 0.950 . S
C3424 C3420 1.385 . S
C3424 C3423 1.374 . S
C3425 C3422 1.499 . S
C3425 C3426 1.373 . S
C3425 C3427 1.389 . S
C3426 H3399 0.950 . S
C3426 C3412 1.377 . S
C3426 C3425 1.373 . S
C3427 C3411 1.377 . S
C3427 C3425 1.389 . S
C3427 C3428 1.524 . S
C3428 C3427 1.524 . S
C3428 C3429 1.397 . S
C3428 C3433 1.363 . S
C3429 H3400 0.950 . S
C3429 C3428 1.397 . S
C3429 C3430 1.334 . S
C3430 H3401 0.950 . S
C3430 C3429 1.334 . S
C3430 C3431 1.287 . S
C3431 C3430 1.287 . S
C3431 C3432 1.524 . S
C3431 H3434 0.999 . S
C3432 H3402 0.950 . S
C3432 C3431 1.524 . S
C3432 C3433 1.415 . S
C3433 H3403 0.950 . S
C3433 C3428 1.363 . S
C3433 C3432 1.415 . S
H3434 C3431 0.999 . S
H3435 C3416 0.913 . S
H3436 C3454 0.951 . S
H3437 C3456 0.951 . S
H3438 C3458 0.950 . S
H3439 C3459 0.950 . S
H3440 C3461 0.950 . S
H3441 C3464 0.950 . S
H3442 C3465 0.950 . S
H3443 C3467 0.950 . S
H3444 C3468 0.950 . S
H3445 C3469 0.951 . S
H3446 C3471 0.951 . S
H3447 C3473 0.950 . S
H3448 C3474 0.950 . S
H3449 C3476 0.950 . S
H3450 C3479 0.950 . S
H3451 C3480 0.950 . S
H3452 C3482 0.950 . S
H3453 C3483 0.950 . S
C3454 H3436 0.951 . S
C3454 C3455 1.366 . S
C3454 C3456 1.388 . S
C3455 C3454 1.366 . S
C3455 C3459 1.385 . S
C3456 H3437 0.951 . S
C3456 C3454 1.388 . S
C3456 C3457 1.366 . S
C3457 C3456 1.366 . S
C3457 C3458 1.414 . S
C3457 C3460 1.499 . S
C3458 H3438 0.950 . S
C3458 C3457 1.414 . S
C3458 C3459 1.374 . S
C3459 H3439 0.950 . S
C3459 C3455 1.385 . S
C3459 C3458 1.374 . S
C3460 C3457 1.499 . S
C3460 C3461 1.373 . S
C3460 C3462 1.389 . S
C3461 H3440 0.950 . S
C3461 C3460 1.373 . S
C3461 C3477 1.377 . S
C3462 C3460 1.389 . S
C3462 C3463 1.524 . S
C3462 C3476 1.377 . S
C3463 C3462 1.524 . S
C3463 C3464 1.397 . S
C3463 C3468 1.363 . S
C3464 H3441 0.950 . S
C3464 C3463 1.397 . S
C3464 C3465 1.334 . S
C3465 H3442 0.950 . S
C3465 C3464 1.334 . S
C3465 C3466 1.287 . S
C3466 C3465 1.287 . S
C3466 C3467 1.524 . S
C3466 H3485 0.913 . S
C3467 H3443 0.950 . S
C3467 C3466 1.524 . S
C3467 C3468 1.415 . S
C3468 H3444 0.950 . S
C3468 C3463 1.363 . S
C3468 C3467 1.415 . S
C3469 H3445 0.951 . S
C3469 C3470 1.366 . S
C3469 C3471 1.388 . S
C3470 C3469 1.366 . S
C3470 C3474 1.385 . S
C3471 H3446 0.951 . S
C3471 C3469 1.388 . S
C3471 C3472 1.366 . S
C3472 C3471 1.366 . S
C3472 C3473 1.414 . S
C3472 C3475 1.499 . S
C3473 H3447 0.950 . S
C3473 C3472 1.414 . S
C3473 C3474 1.374 . S
C3474 H3448 0.950 . S
C3474 C3470 1.385 . S
C3474 C3473 1.374 . S
C3475 C3472 1.499 . S
C3475 C3476 1.373 . S
C3475 C3477 1.389 . S
C3476 H3449 0.950 . S
C3476 C3462 1.377 . S
C3476 C3475 1.373 . S
C3477 C3461 1.377 . S
C3477 C3475 1.389 . S
C3477 C3478 1.524 . S
C3478 C3477 1.524 . S
C3478 C3479 1.397 . S
C3478 C3483 1.363 . S
C3479 H3450 0.950 . S
C3479 C3478 1.397 . S
C3479 C3480 1.334 . S
C3480 H3451 0.950 . S
C3480 C3479 1.334 . S
C3480 C3481 1.287 . S
C3481 C3480 1.287 . S
C3481 C3482 1.524 . S
C3481 H3484 0.999 . S
C3482 H3452 0.950 . S
C3482 C3481 1.524 . S
C3482 C3483 1.415 . S
C3483 H3453 0.950 . S
C3483 C3478 1.363 . S
C3483 C3482 1.415 . S
H3484 C3481 0.999 . S
H3485 C3466 0.913 . S
H3486 C3504 0.951 . S
H3487 C3506 0.951 . S
H3488 C3508 0.950 . S
H3489 C3509 0.950 . S
H3490 C3511 0.950 . S
H3491 C3514 0.950 . S
H3492 C3515 0.950 . S
H3493 C3517 0.950 . S
H3494 C3518 0.950 . S
H3495 C3519 0.951 . S
H3496 C3521 0.951 . S
H3497 C3523 0.950 . S
H3498 C3524 0.950 . S
H3499 C3526 0.950 . S
H3500 C3529 0.950 . S
H3501 C3530 0.950 . S
H3502 C3532 0.950 . S
H3503 C3533 0.950 . S
C3504 H3486 0.951 . S
C3504 C3505 1.366 . S
C3504 C3506 1.388 . S
C3505 C3504 1.366 . S
C3505 C3509 1.385 . S
C3506 H3487 0.951 . S
C3506 C3504 1.388 . S
C3506 C3507 1.366 . S
C3507 C3506 1.366 . S
C3507 C3508 1.414 . S
C3507 C3510 1.499 . S
C3508 H3488 0.950 . S
C3508 C3507 1.414 . S
C3508 C3509 1.374 . S
C3509 H3489 0.950 . S
C3509 C3505 1.385 . S
C3509 C3508 1.374 . S
C3510 C3507 1.499 . S
C3510 C3511 1.373 . S
C3510 C3512 1.389 . S
C3511 H3490 0.950 . S
C3511 C3510 1.373 . S
C3511 C3527 1.377 . S
C3512 C3510 1.389 . S
C3512 C3513 1.524 . S
C3512 C3526 1.377 . S
C3513 C3512 1.524 . S
C3513 C3514 1.397 . S
C3513 C3518 1.363 . S
C3514 H3491 0.950 . S
C3514 C3513 1.397 . S
C3514 C3515 1.334 . S
C3515 H3492 0.950 . S
C3515 C3514 1.334 . S
C3515 C3516 1.287 . S
C3516 C3515 1.287 . S
C3516 C3517 1.524 . S
C3516 H3535 0.913 . S
C3517 H3493 0.950 . S
C3517 C3516 1.524 . S
C3517 C3518 1.415 . S
C3518 H3494 0.950 . S
C3518 C3513 1.363 . S
C3518 C3517 1.415 . S
C3519 H3495 0.951 . S
C3519 C3520 1.366 . S
C3519 C3521 1.388 . S
C3520 C3519 1.366 . S
C3520 C3524 1.385 . S
C3521 H3496 0.951 . S
C3521 C3519 1.388 . S
C3521 C3522 1.366 . S
C3522 C3521 1.366 . S
C3522 C3523 1.414 . S
C3522 C3525 1.499 . S
C3523 H3497 0.950 . S
C3523 C3522 1.414 . S
C3523 C3524 1.374 . S
C3524 H3498 0.950 . S
C3524 C3520 1.385 . S
C3524 C3523 1.374 . S
C3525 C3522 1.499 . S
C3525 C3526 1.373 . S
C3525 C3527 1.389 . S
C3526 H3499 0.950 . S
C3526 C3512 1.377 . S
C3526 C3525 1.373 . S
C3527 C3511 1.377 . S
C3527 C3525 1.389 . S
C3527 C3528 1.524 . S
C3528 C3527 1.524 . S
C3528 C3529 1.397 . S
C3528 C3533 1.363 . S
C3529 H3500 0.950 . S
C3529 C3528 1.397 . S
C3529 C3530 1.334 . S
C3530 H3501 0.950 . S
C3530 C3529 1.334 . S
C3530 C3531 1.287 . S
C3531 C3530 1.287 . S
C3531 C3532 1.524 . S
C3531 H3534 0.999 . S
C3532 H3502 0.950 . S
C3532 C3531 1.524 . S
C3532 C3533 1.415 . S
C3533 H3503 0.950 . S
C3533 C3528 1.363 . S
C3533 C3532 1.415 . S
H3534 C3531 0.999 . S
H3535 C3516 0.913 . S
H3536 C3554 0.951 . S
H3537 C3556 0.951 . S
H3538 C3558 0.950 . S
H3539 C3559 0.950 . S
H3540 C3561 0.950 . S
H3541 C3564 0.950 . S
H3542 C3565 0.950 . S
H3543 C3567 0.950 . S
H3544 C3568 0.950 . S
H3545 C3569 0.951 . S
H3546 C3571 0.951 . S
H3547 C3573 0.950 . S
H3548 C3574 0.950 . S
H3549 C3576 0.950 . S
H3550 C3579 0.950 . S
H3551 C3580 0.950 . S
H3552 C3582 0.950 . S
H3553 C3583 0.950 . S
C3554 H3536 0.951 . S
C3554 C3555 1.366 . S
C3554 C3556 1.388 . S
C3555 C3554 1.366 . S
C3555 C3559 1.385 . S
C3556 H3537 0.951 . S
C3556 C3554 1.388 . S
C3556 C3557 1.366 . S
C3557 C3556 1.366 . S
C3557 C3558 1.414 . S
C3557 C3560 1.499 . S
C3558 H3538 0.950 . S
C3558 C3557 1.414 . S
C3558 C3559 1.374 . S
C3559 H3539 0.950 . S
C3559 C3555 1.385 . S
C3559 C3558 1.374 . S
C3560 C3557 1.499 . S
C3560 C3561 1.373 . S
C3560 C3562 1.389 . S
C3561 H3540 0.950 . S
C3561 C3560 1.373 . S
C3561 C3577 1.377 . S
C3562 C3560 1.389 . S
C3562 C3563 1.524 . S
C3562 C3576 1.377 . S
C3563 C3562 1.524 . S
C3563 C3564 1.397 . S
C3563 C3568 1.363 . S
C3564 H3541 0.950 . S
C3564 C3563 1.397 . S
C3564 C3565 1.334 . S
C3565 H3542 0.950 . S
C3565 C3564 1.334 . S
C3565 C3566 1.287 . S
C3566 C3565 1.287 . S
C3566 C3567 1.524 . S
C3566 H3585 0.913 . S
C3567 H3543 0.950 . S
C3567 C3566 1.524 . S
C3567 C3568 1.415 . S
C3568 H3544 0.950 . S
C3568 C3563 1.363 . S
C3568 C3567 1.415 . S
C3569 H3545 0.951 . S
C3569 C3570 1.366 . S
C3569 C3571 1.388 . S
C3570 C3569 1.366 . S
C3570 C3574 1.385 . S
C3571 H3546 0.951 . S
C3571 C3569 1.388 . S
C3571 C3572 1.366 . S
C3572 C3571 1.366 . S
C3572 C3573 1.414 . S
C3572 C3575 1.499 . S
C3573 H3547 0.950 . S
C3573 C3572 1.414 . S
C3573 C3574 1.374 . S
C3574 H3548 0.950 . S
C3574 C3570 1.385 . S
C3574 C3573 1.374 . S
C3575 C3572 1.499 . S
C3575 C3576 1.373 . S
C3575 C3577 1.389 . S
C3576 H3549 0.950 . S
C3576 C3562 1.377 . S
C3576 C3575 1.373 . S
C3577 C3561 1.377 . S
C3577 C3575 1.389 . S
C3577 C3578 1.524 . S
C3578 C3577 1.524 . S
C3578 C3579 1.397 . S
C3578 C3583 1.363 . S
C3579 H3550 0.950 . S
C3579 C3578 1.397 . S
C3579 C3580 1.334 . S
C3580 H3551 0.950 . S
C3580 C3579 1.334 . S
C3580 C3581 1.287 . S
C3581 C3580 1.287 . S
C3581 C3582 1.524 . S
C3581 H3584 0.999 . S
C3582 H3552 0.950 . S
C3582 C3581 1.524 . S
C3582 C3583 1.415 . S
C3583 H3553 0.950 . S
C3583 C3578 1.363 . S
C3583 C3582 1.415 . S
H3584 C3581 0.999 . S
H3585 C3566 0.913 . S
H3586 C3604 0.951 . S
H3587 C3606 0.951 . S
H3588 C3608 0.950 . S
H3589 C3609 0.950 . S
H3590 C3611 0.950 . S
H3591 C3614 0.950 . S
H3592 C3615 0.950 . S
H3593 C3617 0.950 . S
H3594 C3618 0.950 . S
H3595 C3619 0.951 . S
H3596 C3621 0.951 . S
H3597 C3623 0.950 . S
H3598 C3624 0.950 . S
H3599 C3626 0.950 . S
H3600 C3629 0.950 . S
H3601 C3630 0.950 . S
H3602 C3632 0.950 . S
H3603 C3633 0.950 . S
C3604 H3586 0.951 . S
C3604 C3605 1.366 . S
C3604 C3606 1.388 . S
C3605 C3604 1.366 . S
C3605 C3609 1.385 . S
C3606 H3587 0.951 . S
C3606 C3604 1.388 . S
C3606 C3607 1.366 . S
C3607 C3606 1.366 . S
C3607 C3608 1.414 . S
C3607 C3610 1.499 . S
C3608 H3588 0.950 . S
C3608 C3607 1.414 . S
C3608 C3609 1.374 . S
C3609 H3589 0.950 . S
C3609 C3605 1.385 . S
C3609 C3608 1.374 . S
C3610 C3607 1.499 . S
C3610 C3611 1.373 . S
C3610 C3612 1.389 . S
C3611 H3590 0.950 . S
C3611 C3610 1.373 . S
C3611 C3627 1.377 . S
C3612 C3610 1.389 . S
C3612 C3613 1.524 . S
C3612 C3626 1.377 . S
C3613 C3612 1.524 . S
C3613 C3614 1.397 . S
C3613 C3618 1.363 . S
C3614 H3591 0.950 . S
C3614 C3613 1.397 . S
C3614 C3615 1.334 . S
C3615 H3592 0.950 . S
C3615 C3614 1.334 . S
C3615 C3616 1.287 . S
C3616 C3615 1.287 . S
C3616 C3617 1.524 . S
C3616 H3635 0.913 . S
C3617 H3593 0.950 . S
C3617 C3616 1.524 . S
C3617 C3618 1.415 . S
C3618 H3594 0.950 . S
C3618 C3613 1.363 . S
C3618 C3617 1.415 . S
C3619 H3595 0.951 . S
C3619 C3620 1.366 . S
C3619 C3621 1.388 . S
C3620 C3619 1.366 . S
C3620 C3624 1.385 . S
C3621 H3596 0.951 . S
C3621 C3619 1.388 . S
C3621 C3622 1.366 . S
C3622 C3621 1.366 . S
C3622 C3623 1.414 . S
C3622 C3625 1.499 . S
C3623 H3597 0.950 . S
C3623 C3622 1.414 . S
C3623 C3624 1.374 . S
C3624 H3598 0.950 . S
C3624 C3620 1.385 . S
C3624 C3623 1.374 . S
C3625 C3622 1.499 . S
C3625 C3626 1.373 . S
C3625 C3627 1.389 . S
C3626 H3599 0.950 . S
C3626 C3612 1.377 . S
C3626 C3625 1.373 . S
C3627 C3611 1.377 . S
C3627 C3625 1.389 . S
C3627 C3628 1.524 . S
C3628 C3627 1.524 . S
C3628 C3629 1.397 . S
C3628 C3633 1.363 . S
C3629 H3600 0.950 . S
C3629 C3628 1.397 . S
C3629 C3630 1.334 . S
C3630 H3601 0.950 . S
C3630 C3629 1.334 . S
C3630 C3631 1.287 . S
C3631 C3630 1.287 . S
C3631 C3632 1.524 . S
C3631 H3634 0.999 . S
C3632 H3602 0.950 . S
C3632 C3631 1.524 . S
C3632 C3633 1.415 . S
C3633 H3603 0.950 . S
C3633 C3628 1.363 . S
C3633 C3632 1.415 . S
H3634 C3631 0.999 . S
H3635 C3616 0.913 . S
H3636 C3654 0.951 . S
H3637 C3656 0.951 . S
H3638 C3658 0.950 . S
H3639 C3659 0.950 . S
H3640 C3661 0.950 . S
H3641 C3664 0.950 . S
H3642 C3665 0.950 . S
H3643 C3667 0.950 . S
H3644 C3668 0.950 . S
H3645 C3669 0.951 . S
H3646 C3671 0.951 . S
H3647 C3673 0.950 . S
H3648 C3674 0.950 . S
H3649 C3676 0.950 . S
H3650 C3679 0.950 . S
H3651 C3680 0.950 . S
H3652 C3682 0.950 . S
H3653 C3683 0.950 . S
C3654 H3636 0.951 . S
C3654 C3655 1.366 . S
C3654 C3656 1.388 . S
C3655 C3654 1.366 . S
C3655 C3659 1.385 . S
C3656 H3637 0.951 . S
C3656 C3654 1.388 . S
C3656 C3657 1.366 . S
C3657 C3656 1.366 . S
C3657 C3658 1.414 . S
C3657 C3660 1.499 . S
C3658 H3638 0.950 . S
C3658 C3657 1.414 . S
C3658 C3659 1.374 . S
C3659 H3639 0.950 . S
C3659 C3655 1.385 . S
C3659 C3658 1.374 . S
C3660 C3657 1.499 . S
C3660 C3661 1.373 . S
C3660 C3662 1.389 . S
C3661 H3640 0.950 . S
C3661 C3660 1.373 . S
C3661 C3677 1.377 . S
C3662 C3660 1.389 . S
C3662 C3663 1.524 . S
C3662 C3676 1.377 . S
C3663 C3662 1.524 . S
C3663 C3664 1.397 . S
C3663 C3668 1.363 . S
C3664 H3641 0.950 . S
C3664 C3663 1.397 . S
C3664 C3665 1.334 . S
C3665 H3642 0.950 . S
C3665 C3664 1.334 . S
C3665 C3666 1.287 . S
C3666 C3665 1.287 . S
C3666 C3667 1.524 . S
C3666 H3685 0.913 . S
C3667 H3643 0.950 . S
C3667 C3666 1.524 . S
C3667 C3668 1.415 . S
C3668 H3644 0.950 . S
C3668 C3663 1.363 . S
C3668 C3667 1.415 . S
C3669 H3645 0.951 . S
C3669 C3670 1.366 . S
C3669 C3671 1.388 . S
C3670 C3669 1.366 . S
C3670 C3674 1.385 . S
C3671 H3646 0.951 . S
C3671 C3669 1.388 . S
C3671 C3672 1.366 . S
C3672 C3671 1.366 . S
C3672 C3673 1.414 . S
C3672 C3675 1.499 . S
C3673 H3647 0.950 . S
C3673 C3672 1.414 . S
C3673 C3674 1.374 . S
C3674 H3648 0.950 . S
C3674 C3670 1.385 . S
C3674 C3673 1.374 . S
C3675 C3672 1.499 . S
C3675 C3676 1.373 . S
C3675 C3677 1.389 . S
C3676 H3649 0.950 . S
C3676 C3662 1.377 . S
C3676 C3675 1.373 . S
C3677 C3661 1.377 . S
C3677 C3675 1.389 . S
C3677 C3678 1.524 . S
C3678 C3677 1.524 . S
C3678 C3679 1.397 . S
C3678 C3683 1.363 . S
C3679 H3650 0.950 . S
C3679 C3678 1.397 . S
C3679 C3680 1.334 . S
C3680 H3651 0.950 . S
C3680 C3679 1.334 . S
C3680 C3681 1.287 . S
C3681 C3680 1.287 . S
C3681 C3682 1.524 . S
C3681 H3684 0.999 . S
C3682 H3652 0.950 . S
C3682 C3681 1.524 . S
C3682 C3683 1.415 . S
C3683 H3653 0.950 . S
C3683 C3678 1.363 . S
C3683 C3682 1.415 . S
H3684 C3681 0.999 . S
H3685 C3666 0.913 . S
H3686 C3704 0.951 . S
H3687 C3706 0.951 . S
H3688 C3708 0.950 . S
H3689 C3709 0.950 . S
H3690 C3711 0.950 . S
H3691 C3714 0.950 . S
H3692 C3715 0.950 . S
H3693 C3717 0.950 . S
H3694 C3718 0.950 . S
H3695 C3719 0.951 . S
H3696 C3721 0.951 . S
H3697 C3723 0.950 . S
H3698 C3724 0.950 . S
H3699 C3726 0.950 . S
H3700 C3729 0.950 . S
H3701 C3730 0.950 . S
H3702 C3732 0.950 . S
H3703 C3733 0.950 . S
C3704 H3686 0.951 . S
C3704 C3705 1.366 . S
C3704 C3706 1.388 . S
C3705 C3704 1.366 . S
C3705 C3709 1.385 . S
C3706 H3687 0.951 . S
C3706 C3704 1.388 . S
C3706 C3707 1.366 . S
C3707 C3706 1.366 . S
C3707 C3708 1.414 . S
C3707 C3710 1.499 . S
C3708 H3688 0.950 . S
C3708 C3707 1.414 . S
C3708 C3709 1.374 . S
C3709 H3689 0.950 . S
C3709 C3705 1.385 . S
C3709 C3708 1.374 . S
C3710 C3707 1.499 . S
C3710 C3711 1.373 . S
C3710 C3712 1.389 . S
C3711 H3690 0.950 . S
C3711 C3710 1.373 . S
C3711 C3727 1.377 . S
C3712 C3710 1.389 . S
C3712 C3713 1.524 . S
C3712 C3726 1.377 . S
C3713 C3712 1.524 . S
C3713 C3714 1.397 . S
C3713 C3718 1.363 . S
C3714 H3691 0.950 . S
C3714 C3713 1.397 . S
C3714 C3715 1.334 . S
C3715 H3692 0.950 . S
C3715 C3714 1.334 . S
C3715 C3716 1.287 . S
C3716 C3715 1.287 . S
C3716 C3717 1.524 . S
C3716 H3735 0.913 . S
C3717 H3693 0.950 . S
C3717 C3716 1.524 . S
C3717 C3718 1.415 . S
C3718 H3694 0.950 . S
C3718 C3713 1.363 . S
C3718 C3717 1.415 . S
C3719 H3695 0.951 . S
C3719 C3720 1.366 . S
C3719 C3721 1.388 . S
C3720 C3719 1.366 . S
C3720 C3724 1.385 . S
C3721 H3696 0.951 . S
C3721 C3719 1.388 . S
C3721 C3722 1.366 . S
C3722 C3721 1.366 . S
C3722 C3723 1.414 . S
C3722 C3725 1.499 . S
C3723 H3697 0.950 . S
C3723 C3722 1.414 . S
C3723 C3724 1.374 . S
C3724 H3698 0.950 . S
C3724 C3720 1.385 . S
C3724 C3723 1.374 . S
C3725 C3722 1.499 . S
C3725 C3726 1.373 . S
C3725 C3727 1.389 . S
C3726 H3699 0.950 . S
C3726 C3712 1.377 . S
C3726 C3725 1.373 . S
C3727 C3711 1.377 . S
C3727 C3725 1.389 . S
C3727 C3728 1.524 . S
C3728 C3727 1.524 . S
C3728 C3729 1.397 . S
C3728 C3733 1.363 . S
C3729 H3700 0.950 . S
C3729 C3728 1.397 . S
C3729 C3730 1.334 . S
C3730 H3701 0.950 . S
C3730 C3729 1.334 . S
C3730 C3731 1.287 . S
C3731 C3730 1.287 . S
C3731 C3732 1.524 . S
C3731 H3734 0.999 . S
C3732 H3702 0.950 . S
C3732 C3731 1.524 . S
C3732 C3733 1.415 . S
C3733 H3703 0.950 . S
C3733 C3728 1.363 . S
C3733 C3732 1.415 . S
H3734 C3731 0.999 . S
H3735 C3716 0.913 . S
H3736 C3754 0.951 . S
H3737 C3756 0.951 . S
H3738 C3758 0.950 . S
H3739 C3759 0.950 . S
H3740 C3761 0.950 . S
H3741 C3764 0.950 . S
H3742 C3765 0.950 . S
H3743 C3767 0.950 . S
H3744 C3768 0.950 . S
H3745 C3769 0.951 . S
H3746 C3771 0.951 . S
H3747 C3773 0.950 . S
H3748 C3774 0.950 . S
H3749 C3776 0.950 . S
H3750 C3779 0.950 . S
H3751 C3780 0.950 . S
H3752 C3782 0.950 . S
H3753 C3783 0.950 . S
C3754 H3736 0.951 . S
C3754 C3755 1.366 . S
C3754 C3756 1.388 . S
C3755 C3754 1.366 . S
C3755 C3759 1.385 . S
C3756 H3737 0.951 . S
C3756 C3754 1.388 . S
C3756 C3757 1.366 . S
C3757 C3756 1.366 . S
C3757 C3758 1.414 . S
C3757 C3760 1.499 . S
C3758 H3738 0.950 . S
C3758 C3757 1.414 . S
C3758 C3759 1.374 . S
C3759 H3739 0.950 . S
C3759 C3755 1.385 . S
C3759 C3758 1.374 . S
C3760 C3757 1.499 . S
C3760 C3761 1.373 . S
C3760 C3762 1.389 . S
C3761 H3740 0.950 . S
C3761 C3760 1.373 . S
C3761 C3777 1.377 . S
C3762 C3760 1.389 . S
C3762 C3763 1.524 . S
C3762 C3776 1.377 . S
C3763 C3762 1.524 . S
C3763 C3764 1.397 . S
C3763 C3768 1.363 . S
C3764 H3741 0.950 . S
C3764 C3763 1.397 . S
C3764 C3765 1.334 . S
C3765 H3742 0.950 . S
C3765 C3764 1.334 . S
C3765 C3766 1.287 . S
C3766 C3765 1.287 . S
C3766 C3767 1.524 . S
C3766 H3785 0.913 . S
C3767 H3743 0.950 . S
C3767 C3766 1.524 . S
C3767 C3768 1.415 . S
C3768 H3744 0.950 . S
C3768 C3763 1.363 . S
C3768 C3767 1.415 . S
C3769 H3745 0.951 . S
C3769 C3770 1.366 . S
C3769 C3771 1.388 . S
C3770 C3769 1.366 . S
C3770 C3774 1.385 . S
C3771 H3746 0.951 . S
C3771 C3769 1.388 . S
C3771 C3772 1.366 . S
C3772 C3771 1.366 . S
C3772 C3773 1.414 . S
C3772 C3775 1.499 . S
C3773 H3747 0.950 . S
C3773 C3772 1.414 . S
C3773 C3774 1.374 . S
C3774 H3748 0.950 . S
C3774 C3770 1.385 . S
C3774 C3773 1.374 . S
C3775 C3772 1.499 . S
C3775 C3776 1.373 . S
C3775 C3777 1.389 . S
C3776 H3749 0.950 . S
C3776 C3762 1.377 . S
C3776 C3775 1.373 . S
C3777 C3761 1.377 . S
C3777 C3775 1.389 . S
C3777 C3778 1.524 . S
C3778 C3777 1.524 . S
C3778 C3779 1.397 . S
C3778 C3783 1.363 . S
C3779 H3750 0.950 . S
C3779 C3778 1.397 . S
C3779 C3780 1.334 . S
C3780 H3751 0.950 . S
C3780 C3779 1.334 . S
C3780 C3781 1.287 . S
C3781 C3780 1.287 . S
C3781 C3782 1.524 . S
C3781 H3784 0.999 . S
C3782 H3752 0.950 . S
C3782 C3781 1.524 . S
C3782 C3783 1.415 . S
C3783 H3753 0.950 . S
C3783 C3778 1.363 . S
C3783 C3782 1.415 . S
H3784 C3781 0.999 . S
H3785 C3766 0.913 . S
H3786 C3804 0.951 . S
H3787 C3806 0.951 . S
H3788 C3808 0.950 . S
H3789 C3809 0.950 . S
H3790 C3811 0.950 . S
H3791 C3814 0.950 . S
H3792 C3815 0.950 . S
H3793 C3817 0.950 . S
H3794 C3818 0.950 . S
H3795 C3819 0.951 . S
H3796 C3821 0.951 . S
H3797 C3823 0.950 . S
H3798 C3824 0.950 . S
H3799 C3826 0.950 . S
H3800 C3829 0.950 . S
H3801 C3830 0.950 . S
H3802 C3832 0.950 . S
H3803 C3833 0.950 . S
C3804 H3786 0.951 . S
C3804 C3805 1.366 . S
C3804 C3806 1.388 . S
C3805 C3804 1.366 . S
C3805 C3809 1.385 . S
C3806 H3787 0.951 . S
C3806 C3804 1.388 . S
C3806 C3807 1.366 . S
C3807 C3806 1.366 . S
C3807 C3808 1.414 . S
C3807 C3810 1.499 . S
C3808 H3788 0.950 . S
C3808 C3807 1.414 . S
C3808 C3809 1.374 . S
C3809 H3789 0.950 . S
C3809 C3805 1.385 . S
C3809 C3808 1.374 . S
C3810 C3807 1.499 . S
C3810 C3811 1.373 . S
C3810 C3812 1.389 . S
C3811 H3790 0.950 . S
C3811 C3810 1.373 . S
C3811 C3827 1.377 . S
C3812 C3810 1.389 . S
C3812 C3813 1.524 . S
C3812 C3826 1.377 . S
C3813 C3812 1.524 . S
C3813 C3814 1.397 . S
C3813 C3818 1.363 . S
C3814 H3791 0.950 . S
C3814 C3813 1.397 . S
C3814 C3815 1.334 . S
C3815 H3792 0.950 . S
C3815 C3814 1.334 . S
C3815 C3816 1.287 . S
C3816 C3815 1.287 . S
C3816 C3817 1.524 . S
C3816 H3835 0.913 . S
C3817 H3793 0.950 . S
C3817 C3816 1.524 . S
C3817 C3818 1.415 . S
C3818 H3794 0.950 . S
C3818 C3813 1.363 . S
C3818 C3817 1.415 . S
C3819 H3795 0.951 . S
C3819 C3820 1.366 . S
C3819 C3821 1.388 . S
C3820 C3819 1.366 . S
C3820 C3824 1.385 . S
C3821 H3796 0.951 . S
C3821 C3819 1.388 . S
C3821 C3822 1.366 . S
C3822 C3821 1.366 . S
C3822 C3823 1.414 . S
C3822 C3825 1.499 . S
C3823 H3797 0.950 . S
C3823 C3822 1.414 . S
C3823 C3824 1.374 . S
C3824 H3798 0.950 . S
C3824 C3820 1.385 . S
C3824 C3823 1.374 . S
C3825 C3822 1.499 . S
C3825 C3826 1.373 . S
C3825 C3827 1.389 . S
C3826 H3799 0.950 . S
C3826 C3812 1.377 . S
C3826 C3825 1.373 . S
C3827 C3811 1.377 . S
C3827 C3825 1.389 . S
C3827 C3828 1.524 . S
C3828 C3827 1.524 . S
C3828 C3829 1.397 . S
C3828 C3833 1.363 . S
C3829 H3800 0.950 . S
C3829 C3828 1.397 . S
C3829 C3830 1.334 . S
C3830 H3801 0.950 . S
C3830 C3829 1.334 . S
C3830 C3831 1.287 . S
C3831 C3830 1.287 . S
C3831 C3832 1.524 . S
C3831 H3834 0.999 . S
C3832 H3802 0.950 . S
C3832 C3831 1.524 . S
C3832 C3833 1.415 . S
C3833 H3803 0.950 . S
C3833 C3828 1.363 . S
C3833 C3832 1.415 . S
H3834 C3831 0.999 . S
H3835 C3816 0.913 . S
H3836 C3854 0.951 . S
H3837 C3856 0.951 . S
H3838 C3858 0.950 . S
H3839 C3859 0.950 . S
H3840 C3861 0.950 . S
H3841 C3864 0.950 . S
H3842 C3865 0.950 . S
H3843 C3867 0.950 . S
H3844 C3868 0.950 . S
H3845 C3869 0.951 . S
H3846 C3871 0.951 . S
H3847 C3873 0.950 . S
H3848 C3874 0.950 . S
H3849 C3876 0.950 . S
H3850 C3879 0.950 . S
H3851 C3880 0.950 . S
H3852 C3882 0.950 . S
H3853 C3883 0.950 . S
C3854 H3836 0.951 . S
C3854 C3855 1.366 . S
C3854 C3856 1.388 . S
C3855 C3854 1.366 . S
C3855 C3859 1.385 . S
C3856 H3837 0.951 . S
C3856 C3854 1.388 . S
C3856 C3857 1.366 . S
C3857 C3856 1.366 . S
C3857 C3858 1.414 . S
C3857 C3860 1.499 . S
C3858 H3838 0.950 . S
C3858 C3857 1.414 . S
C3858 C3859 1.374 . S
C3859 H3839 0.950 . S
C3859 C3855 1.385 . S
C3859 C3858 1.374 . S
C3860 C3857 1.499 . S
C3860 C3861 1.373 . S
C3860 C3862 1.389 . S
C3861 H3840 0.950 . S
C3861 C3860 1.373 . S
C3861 C3877 1.377 . S
C3862 C3860 1.389 . S
C3862 C3863 1.524 . S
C3862 C3876 1.377 . S
C3863 C3862 1.524 . S
C3863 C3864 1.397 . S
C3863 C3868 1.363 . S
C3864 H3841 0.950 . S
C3864 C3863 1.397 . S
C3864 C3865 1.334 . S
C3865 H3842 0.950 . S
C3865 C3864 1.334 . S
C3865 C3866 1.287 . S
C3866 C3865 1.287 . S
C3866 C3867 1.524 . S
C3866 H3885 0.913 . S
C3867 H3843 0.950 . S
C3867 C3866 1.524 . S
C3867 C3868 1.415 . S
C3868 H3844 0.950 . S
C3868 C3863 1.363 . S
C3868 C3867 1.415 . S
C3869 H3845 0.951 . S
C3869 C3870 1.366 . S
C3869 C3871 1.388 . S
C3870 C3869 1.366 . S
C3870 C3874 1.385 . S
C3871 H3846 0.951 . S
C3871 C3869 1.388 . S
C3871 C3872 1.366 . S
C3872 C3871 1.366 . S
C3872 C3873 1.414 . S
C3872 C3875 1.499 . S
C3873 H3847 0.950 . S
C3873 C3872 1.414 . S
C3873 C3874 1.374 . S
C3874 H3848 0.950 . S
C3874 C3870 1.385 . S
C3874 C3873 1.374 . S
C3875 C3872 1.499 . S
C3875 C3876 1.373 . S
C3875 C3877 1.389 . S
C3876 H3849 0.950 . S
C3876 C3862 1.377 . S
C3876 C3875 1.373 . S
C3877 C3861 1.377 . S
C3877 C3875 1.389 . S
C3877 C3878 1.524 . S
C3878 C3877 1.524 . S
C3878 C3879 1.397 . S
C3878 C3883 1.363 . S
C3879 H3850 0.950 . S
C3879 C3878 1.397 . S
C3879 C3880 1.334 . S
C3880 H3851 0.950 . S
C3880 C3879 1.334 . S
C3880 C3881 1.287 . S
C3881 C3880 1.287 . S
C3881 C3882 1.524 . S
C3881 H3884 0.999 . S
C3882 H3852 0.950 . S
C3882 C3881 1.524 . S
C3882 C3883 1.415 . S
C3883 H3853 0.950 . S
C3883 C3878 1.363 . S
C3883 C3882 1.415 . S
H3884 C3881 0.999 . S
H3885 C3866 0.913 . S
H3886 C3904 0.951 . S
H3887 C3906 0.951 . S
H3888 C3908 0.950 . S
H3889 C3909 0.950 . S
H3890 C3911 0.950 . S
H3891 C3914 0.950 . S
H3892 C3915 0.950 . S
H3893 C3917 0.950 . S
H3894 C3918 0.950 . S
H3895 C3919 0.951 . S
H3896 C3921 0.951 . S
H3897 C3923 0.950 . S
H3898 C3924 0.950 . S
H3899 C3926 0.950 . S
H3900 C3929 0.950 . S
H3901 C3930 0.950 . S
H3902 C3932 0.950 . S
H3903 C3933 0.950 . S
C3904 H3886 0.951 . S
C3904 C3905 1.366 . S
C3904 C3906 1.388 . S
C3905 C3904 1.366 . S
C3905 C3909 1.385 . S
C3906 H3887 0.951 . S
C3906 C3904 1.388 . S
C3906 C3907 1.366 . S
C3907 C3906 1.366 . S
C3907 C3908 1.414 . S
C3907 C3910 1.499 . S
C3908 H3888 0.950 . S
C3908 C3907 1.414 . S
C3908 C3909 1.374 . S
C3909 H3889 0.950 . S
C3909 C3905 1.385 . S
C3909 C3908 1.374 . S
C3910 C3907 1.499 . S
C3910 C3911 1.373 . S
C3910 C3912 1.389 . S
C3911 H3890 0.950 . S
C3911 C3910 1.373 . S
C3911 C3927 1.377 . S
C3912 C3910 1.389 . S
C3912 C3913 1.524 . S
C3912 C3926 1.377 . S
C3913 C3912 1.524 . S
C3913 C3914 1.397 . S
C3913 C3918 1.363 . S
C3914 H3891 0.950 . S
C3914 C3913 1.397 . S
C3914 C3915 1.334 . S
C3915 H3892 0.950 . S
C3915 C3914 1.334 . S
C3915 C3916 1.287 . S
C3916 C3915 1.287 . S
C3916 C3917 1.524 . S
C3916 H3935 0.913 . S
C3917 H3893 0.950 . S
C3917 C3916 1.524 . S
C3917 C3918 1.415 . S
C3918 H3894 0.950 . S
C3918 C3913 1.363 . S
C3918 C3917 1.415 . S
C3919 H3895 0.951 . S
C3919 C3920 1.366 . S
C3919 C3921 1.388 . S
C3920 C3919 1.366 . S
C3920 C3924 1.385 . S
C3921 H3896 0.951 . S
C3921 C3919 1.388 . S
C3921 C3922 1.366 . S
C3922 C3921 1.366 . S
C3922 C3923 1.414 . S
C3922 C3925 1.499 . S
C3923 H3897 0.950 . S
C3923 C3922 1.414 . S
C3923 C3924 1.374 . S
C3924 H3898 0.950 . S
C3924 C3920 1.385 . S
C3924 C3923 1.374 . S
C3925 C3922 1.499 . S
C3925 C3926 1.373 . S
C3925 C3927 1.389 . S
C3926 H3899 0.950 . S
C3926 C3912 1.377 . S
C3926 C3925 1.373 . S
C3927 C3911 1.377 . S
C3927 C3925 1.389 . S
C3927 C3928 1.524 . S
C3928 C3927 1.524 . S
C3928 C3929 1.397 . S
C3928 C3933 1.363 . S
C3929 H3900 0.950 . S
C3929 C3928 1.397 . S
C3929 C3930 1.334 . S
C3930 H3901 0.950 . S
C3930 C3929 1.334 . S
C3930 C3931 1.287 . S
C3931 C3930 1.287 . S
C3931 C3932 1.524 . S
C3931 H3934 0.999 . S
C3932 H3902 0.950 . S
C3932 C3931 1.524 . S
C3932 C3933 1.415 . S
C3933 H3903 0.950 . S
C3933 C3928 1.363 . S
C3933 C3932 1.415 . S
H3934 C3931 0.999 . S
H3935 C3916 0.913 . S
H3936 C3954 0.951 . S
H3937 C3956 0.951 . S
H3938 C3958 0.950 . S
H3939 C3959 0.950 . S
H3940 C3961 0.950 . S
H3941 C3964 0.950 . S
H3942 C3965 0.950 . S
H3943 C3967 0.950 . S
H3944 C3968 0.950 . S
H3945 C3969 0.951 . S
H3946 C3971 0.951 . S
H3947 C3973 0.950 . S
H3948 C3974 0.950 . S
H3949 C3976 0.950 . S
H3950 C3979 0.950 . S
H3951 C3980 0.950 . S
H3952 C3982 0.950 . S
H3953 C3983 0.950 . S
C3954 H3936 0.951 . S
C3954 C3955 1.366 . S
C3954 C3956 1.388 . S
C3955 C3954 1.366 . S
C3955 C3959 1.385 . S
C3956 H3937 0.951 . S
C3956 C3954 1.388 . S
C3956 C3957 1.366 . S
C3957 C3956 1.366 . S
C3957 C3958 1.414 . S
C3957 C3960 1.499 . S
C3958 H3938 0.950 . S
C3958 C3957 1.414 . S
C3958 C3959 1.374 . S
C3959 H3939 0.950 . S
C3959 C3955 1.385 . S
C3959 C3958 1.374 . S
C3960 C3957 1.499 . S
C3960 C3961 1.373 . S
C3960 C3962 1.389 . S
C3961 H3940 0.950 . S
C3961 C3960 1.373 . S
C3961 C3977 1.377 . S
C3962 C3960 1.389 . S
C3962 C3963 1.524 . S
C3962 C3976 1.377 . S
C3963 C3962 1.524 . S
C3963 C3964 1.397 . S
C3963 C3968 1.363 . S
C3964 H3941 0.950 . S
C3964 C3963 1.397 . S
C3964 C3965 1.334 . S
C3965 H3942 0.950 . S
C3965 C3964 1.334 . S
C3965 C3966 1.287 . S
C3966 C3965 1.287 . S
C3966 C3967 1.524 . S
C3966 H3985 0.913 . S
C3967 H3943 0.950 . S
C3967 C3966 1.524 . S
C3967 C3968 1.415 . S
C3968 H3944 0.950 . S
C3968 C3963 1.363 . S
C3968 C3967 1.415 . S
C3969 H3945 0.951 . S
C3969 C3970 1.366 . S
C3969 C3971 1.388 . S
C3970 C3969 1.366 . S
C3970 C3974 1.385 . S
C3971 H3946 0.951 . S
C3971 C3969 1.388 . S
C3971 C3972 1.366 . S
C3972 C3971 1.366 . S
C3972 C3973 1.414 . S
C3972 C3975 1.499 . S
C3973 H3947 0.950 . S
C3973 C3972 1.414 . S
C3973 C3974 1.374 . S
C3974 H3948 0.950 . S
C3974 C3970 1.385 . S
C3974 C3973 1.374 . S
C3975 C3972 1.499 . S
C3975 C3976 1.373 . S
C3975 C3977 1.389 . S
C3976 H3949 0.950 . S
C3976 C3962 1.377 . S
C3976 C3975 1.373 . S
C3977 C3961 1.377 . S
C3977 C3975 1.389 . S
C3977 C3978 1.524 . S
C3978 C3977 1.524 . S
C3978 C3979 1.397 . S
C3978 C3983 1.363 . S
C3979 H3950 0.950 . S
C3979 C3978 1.397 . S
C3979 C3980 1.334 . S
C3980 H3951 0.950 . S
C3980 C3979 1.334 . S
C3980 C3981 1.287 . S
C3981 C3980 1.287 . S
C3981 C3982 1.524 . S
C3981 H3984 0.999 . S
C3982 H3952 0.950 . S
C3982 C3981 1.524 . S
C3982 C3983 1.415 . S
C3983 H3953 0.950 . S
C3983 C3978 1.363 . S
C3983 C3982 1.415 . S
H3984 C3981 0.999 . S
H3985 C3966 0.913 . S
H3986 C4004 0.951 . S
H3987 C4006 0.951 . S
H3988 C4008 0.950 . S
H3989 C4009 0.950 . S
H3990 C4011 0.950 . S
H3991 C4014 0.950 . S
H3992 C4015 0.950 . S
H3993 C4017 0.950 . S
H3994 C4018 0.950 . S
H3995 C4019 0.951 . S
H3996 C4021 0.951 . S
H3997 C4023 0.950 . S
H3998 C4024 0.950 . S
H3999 C4026 0.950 . S
H4000 C4029 0.950 . S
H4001 C4030 0.950 . S
H4002 C4032 0.950 . S
H4003 C4033 0.950 . S
C4004 H3986 0.951 . S
C4004 C4005 1.366 . S
C4004 C4006 1.388 . S
C4005 C4004 1.366 . S
C4005 C4009 1.385 . S
C4006 H3987 0.951 . S
C4006 C4004 1.388 . S
C4006 C4007 1.366 . S
C4007 C4006 1.366 . S
C4007 C4008 1.414 . S
C4007 C4010 1.499 . S
C4008 H3988 0.950 . S
C4008 C4007 1.414 . S
C4008 C4009 1.374 . S
C4009 H3989 0.950 . S
C4009 C4005 1.385 . S
C4009 C4008 1.374 . S
C4010 C4007 1.499 . S
C4010 C4011 1.373 . S
C4010 C4012 1.389 . S
C4011 H3990 0.950 . S
C4011 C4010 1.373 . S
C4011 C4027 1.377 . S
C4012 C4010 1.389 . S
C4012 C4013 1.524 . S
C4012 C4026 1.377 . S
C4013 C4012 1.524 . S
C4013 C4014 1.397 . S
C4013 C4018 1.363 . S
C4014 H3991 0.950 . S
C4014 C4013 1.397 . S
C4014 C4015 1.334 . S
C4015 H3992 0.950 . S
C4015 C4014 1.334 . S
C4015 C4016 1.287 . S
C4016 C4015 1.287 . S
C4016 C4017 1.524 . S
C4016 H4035 0.913 . S
C4017 H3993 0.950 . S
C4017 C4016 1.524 . S
C4017 C4018 1.415 . S
C4018 H3994 0.950 . S
C4018 C4013 1.363 . S
C4018 C4017 1.415 . S
C4019 H3995 0.951 . S
C4019 C4020 1.366 . S
C4019 C4021 1.388 . S
C4020 C4019 1.366 . S
C4020 C4024 1.385 . S
C4021 H3996 0.951 . S
C4021 C4019 1.388 . S
C4021 C4022 1.366 . S
C4022 C4021 1.366 . S
C4022 C4023 1.414 . S
C4022 C4025 1.499 . S
C4023 H3997 0.950 . S
C4023 C4022 1.414 . S
C4023 C4024 1.374 . S
C4024 H3998 0.950 . S
C4024 C4020 1.385 . S
C4024 C4023 1.374 . S
C4025 C4022 1.499 . S
C4025 C4026 1.373 . S
C4025 C4027 1.389 . S
C4026 H3999 0.950 . S
C4026 C4012 1.377 . S
C4026 C4025 1.373 . S
C4027 C4011 1.377 . S
C4027 C4025 1.389 . S
C4027 C4028 1.524 . S
C4028 C4027 1.524 . S
C4028 C4029 1.397 . S
C4028 C4033 1.363 . S
C4029 H4000 0.950 . S
C4029 C4028 1.397 . S
C4029 C4030 1.334 . S
C4030 H4001 0.950 . S
C4030 C4029 1.334 . S
C4030 C4031 1.287 . S
C4031 C4030 1.287 . S
C4031 C4032 1.524 . S
C4031 H4034 0.999 . S
C4032 H4002 0.950 . S
C4032 C4031 1.524 . S
C4032 C4033 1.415 . S
C4033 H4003 0.950 . S
C4033 C4028 1.363 . S
C4033 C4032 1.415 . S
H4034 C4031 0.999 . S
H4035 C4016 0.913 . S
H4036 C4054 0.951 . S
H4037 C4056 0.951 . S
H4038 C4058 0.950 . S
H4039 C4059 0.950 . S
H4040 C4061 0.950 . S
H4041 C4064 0.950 . S
H4042 C4065 0.950 . S
H4043 C4067 0.950 . S
H4044 C4068 0.950 . S
H4045 C4069 0.951 . S
H4046 C4071 0.951 . S
H4047 C4073 0.950 . S
H4048 C4074 0.950 . S
H4049 C4076 0.950 . S
H4050 C4079 0.950 . S
H4051 C4080 0.950 . S
H4052 C4082 0.950 . S
H4053 C4083 0.950 . S
C4054 H4036 0.951 . S
C4054 C4055 1.366 . S
C4054 C4056 1.388 . S
C4055 C4054 1.366 . S
C4055 C4059 1.385 . S
C4056 H4037 0.951 . S
C4056 C4054 1.388 . S
C4056 C4057 1.366 . S
C4057 C4056 1.366 . S
C4057 C4058 1.414 . S
C4057 C4060 1.499 . S
C4058 H4038 0.950 . S
C4058 C4057 1.414 . S
C4058 C4059 1.374 . S
C4059 H4039 0.950 . S
C4059 C4055 1.385 . S
C4059 C4058 1.374 . S
C4060 C4057 1.499 . S
C4060 C4061 1.373 . S
C4060 C4062 1.389 . S
C4061 H4040 0.950 . S
C4061 C4060 1.373 . S
C4061 C4077 1.377 . S
C4062 C4060 1.389 . S
C4062 C4063 1.524 . S
C4062 C4076 1.377 . S
C4063 C4062 1.524 . S
C4063 C4064 1.397 . S
C4063 C4068 1.363 . S
C4064 H4041 0.950 . S
C4064 C4063 1.397 . S
C4064 C4065 1.334 . S
C4065 H4042 0.950 . S
C4065 C4064 1.334 . S
C4065 C4066 1.287 . S
C4066 C4065 1.287 . S
C4066 C4067 1.524 . S
C4066 H4085 0.913 . S
C4067 H4043 0.950 . S
C4067 C4066 1.524 . S
C4067 C4068 1.415 . S
C4068 H4044 0.950 . S
C4068 C4063 1.363 . S
C4068 C4067 1.415 . S
C4069 H4045 0.951 . S
C4069 C4070 1.366 . S
C4069 C4071 1.388 . S
C4070 C4069 1.366 . S
C4070 C4074 1.385 . S
C4071 H4046 0.951 . S
C4071 C4069 1.388 . S
C4071 C4072 1.366 . S
C4072 C4071 1.366 . S
C4072 C4073 1.414 . S
C4072 C4075 1.499 . S
C4073 H4047 0.950 . S
C4073 C4072 1.414 . S
C4073 C4074 1.374 . S
C4074 H4048 0.950 . S
C4074 C4070 1.385 . S
C4074 C4073 1.374 . S
C4075 C4072 1.499 . S
C4075 C4076 1.373 . S
C4075 C4077 1.389 . S
C4076 H4049 0.950 . S
C4076 C4062 1.377 . S
C4076 C4075 1.373 . S
C4077 C4061 1.377 . S
C4077 C4075 1.389 . S
C4077 C4078 1.524 . S
C4078 C4077 1.524 . S
C4078 C4079 1.397 . S
C4078 C4083 1.363 . S
C4079 H4050 0.950 . S
C4079 C4078 1.397 . S
C4079 C4080 1.334 . S
C4080 H4051 0.950 . S
C4080 C4079 1.334 . S
C4080 C4081 1.287 . S
C4081 C4080 1.287 . S
C4081 C4082 1.524 . S
C4081 H4084 0.999 . S
C4082 H4052 0.950 . S
C4082 C4081 1.524 . S
C4082 C4083 1.415 . S
C4083 H4053 0.950 . S
C4083 C4078 1.363 . S
C4083 C4082 1.415 . S
H4084 C4081 0.999 . S
H4085 C4066 0.913 . S
H4086 C4104 0.951 . S
H4087 C4106 0.951 . S
H4088 C4108 0.950 . S
H4089 C4109 0.950 . S
H4090 C4111 0.950 . S
H4091 C4114 0.950 . S
H4092 C4115 0.950 . S
H4093 C4117 0.950 . S
H4094 C4118 0.950 . S
H4095 C4119 0.951 . S
H4096 C4121 0.951 . S
H4097 C4123 0.950 . S
H4098 C4124 0.950 . S
H4099 C4126 0.950 . S
H4100 C4129 0.950 . S
H4101 C4130 0.950 . S
H4102 C4132 0.950 . S
H4103 C4133 0.950 . S
C4104 H4086 0.951 . S
C4104 C4105 1.366 . S
C4104 C4106 1.388 . S
C4105 C4104 1.366 . S
C4105 C4109 1.385 . S
C4106 H4087 0.951 . S
C4106 C4104 1.388 . S
C4106 C4107 1.366 . S
C4107 C4106 1.366 . S
C4107 C4108 1.414 . S
C4107 C4110 1.499 . S
C4108 H4088 0.950 . S
C4108 C4107 1.414 . S
C4108 C4109 1.374 . S
C4109 H4089 0.950 . S
C4109 C4105 1.385 . S
C4109 C4108 1.374 . S
C4110 C4107 1.499 . S
C4110 C4111 1.373 . S
C4110 C4112 1.389 . S
C4111 H4090 0.950 . S
C4111 C4110 1.373 . S
C4111 C4127 1.377 . S
C4112 C4110 1.389 . S
C4112 C4113 1.524 . S
C4112 C4126 1.377 . S
C4113 C4112 1.524 . S
C4113 C4114 1.397 . S
C4113 C4118 1.363 . S
C4114 H4091 0.950 . S
C4114 C4113 1.397 . S
C4114 C4115 1.334 . S
C4115 H4092 0.950 . S
C4115 C4114 1.334 . S
C4115 C4116 1.287 . S
C4116 C4115 1.287 . S
C4116 C4117 1.524 . S
C4116 H4135 0.913 . S
C4117 H4093 0.950 . S
C4117 C4116 1.524 . S
C4117 C4118 1.415 . S
C4118 H4094 0.950 . S
C4118 C4113 1.363 . S
C4118 C4117 1.415 . S
C4119 H4095 0.951 . S
C4119 C4120 1.366 . S
C4119 C4121 1.388 . S
C4120 C4119 1.366 . S
C4120 C4124 1.385 . S
C4121 H4096 0.951 . S
C4121 C4119 1.388 . S
C4121 C4122 1.366 . S
C4122 C4121 1.366 . S
C4122 C4123 1.414 . S
C4122 C4125 1.499 . S
C4123 H4097 0.950 . S
C4123 C4122 1.414 . S
C4123 C4124 1.374 . S
C4124 H4098 0.950 . S
C4124 C4120 1.385 . S
C4124 C4123 1.374 . S
C4125 C4122 1.499 . S
C4125 C4126 1.373 . S
C4125 C4127 1.389 . S
C4126 H4099 0.950 . S
C4126 C4112 1.377 . S
C4126 C4125 1.373 . S
C4127 C4111 1.377 . S
C4127 C4125 1.389 . S
C4127 C4128 1.524 . S
C4128 C4127 1.524 . S
C4128 C4129 1.397 . S
C4128 C4133 1.363 . S
C4129 H4100 0.950 . S
C4129 C4128 1.397 . S
C4129 C4130 1.334 . S
C4130 H4101 0.950 . S
C4130 C4129 1.334 . S
C4130 C4131 1.287 . S
C4131 C4130 1.287 . S
C4131 C4132 1.524 . S
C4131 H4134 0.999 . S
C4132 H4102 0.950 . S
C4132 C4131 1.524 . S
C4132 C4133 1.415 . S
C4133 H4103 0.950 . S
C4133 C4128 1.363 . S
C4133 C4132 1.415 . S
H4134 C4131 0.999 . S
H4135 C4116 0.913 . S
H4136 C4154 0.951 . S
H4137 C4156 0.951 . S
H4138 C4158 0.950 . S
H4139 C4159 0.950 . S
H4140 C4161 0.950 . S
H4141 C4164 0.950 . S
H4142 C4165 0.950 . S
H4143 C4167 0.950 . S
H4144 C4168 0.950 . S
H4145 C4169 0.951 . S
H4146 C4171 0.951 . S
H4147 C4173 0.950 . S
H4148 C4174 0.950 . S
H4149 C4176 0.950 . S
H4150 C4179 0.950 . S
H4151 C4180 0.950 . S
H4152 C4182 0.950 . S
H4153 C4183 0.950 . S
C4154 H4136 0.951 . S
C4154 C4155 1.366 . S
C4154 C4156 1.388 . S
C4155 C4154 1.366 . S
C4155 C4159 1.385 . S
C4156 H4137 0.951 . S
C4156 C4154 1.388 . S
C4156 C4157 1.366 . S
C4157 C4156 1.366 . S
C4157 C4158 1.414 . S
C4157 C4160 1.499 . S
C4158 H4138 0.950 . S
C4158 C4157 1.414 . S
C4158 C4159 1.374 . S
C4159 H4139 0.950 . S
C4159 C4155 1.385 . S
C4159 C4158 1.374 . S
C4160 C4157 1.499 . S
C4160 C4161 1.373 . S
C4160 C4162 1.389 . S
C4161 H4140 0.950 . S
C4161 C4160 1.373 . S
C4161 C4177 1.377 . S
C4162 C4160 1.389 . S
C4162 C4163 1.524 . S
C4162 C4176 1.377 . S
C4163 C4162 1.524 . S
C4163 C4164 1.397 . S
C4163 C4168 1.363 . S
C4164 H4141 0.950 . S
C4164 C4163 1.397 . S
C4164 C4165 1.334 . S
C4165 H4142 0.950 . S
C4165 C4164 1.334 . S
C4165 C4166 1.287 . S
C4166 C4165 1.287 . S
C4166 C4167 1.524 . S
C4166 H4185 0.913 . S
C4167 H4143 0.950 . S
C4167 C4166 1.524 . S
C4167 C4168 1.415 . S
C4168 H4144 0.950 . S
C4168 C4163 1.363 . S
C4168 C4167 1.415 . S
C4169 H4145 0.951 . S
C4169 C4170 1.366 . S
C4169 C4171 1.388 . S
C4170 C4169 1.366 . S
C4170 C4174 1.385 . S
C4171 H4146 0.951 . S
C4171 C4169 1.388 . S
C4171 C4172 1.366 . S
C4172 C4171 1.366 . S
C4172 C4173 1.414 . S
C4172 C4175 1.499 . S
C4173 H4147 0.950 . S
C4173 C4172 1.414 . S
C4173 C4174 1.374 . S
C4174 H4148 0.950 . S
C4174 C4170 1.385 . S
C4174 C4173 1.374 . S
C4175 C4172 1.499 . S
C4175 C4176 1.373 . S
C4175 C4177 1.389 . S
C4176 H4149 0.950 . S
C4176 C4162 1.377 . S
C4176 C4175 1.373 . S
C4177 C4161 1.377 . S
C4177 C4175 1.389 . S
C4177 C4178 1.524 . S
C4178 C4177 1.524 . S
C4178 C4179 1.397 . S
C4178 C4183 1.363 . S
C4179 H4150 0.950 . S
C4179 C4178 1.397 . S
C4179 C4180 1.334 . S
C4180 H4151 0.950 . S
C4180 C4179 1.334 . S
C4180 C4181 1.287 . S
C4181 C4180 1.287 . S
C4181 C4182 1.524 . S
C4181 H4184 0.999 . S
C4182 H4152 0.950 . S
C4182 C4181 1.524 . S
C4182 C4183 1.415 . S
C4183 H4153 0.950 . S
C4183 C4178 1.363 . S
C4183 C4182 1.415 . S
H4184 C4181 0.999 . S
H4185 C4166 0.913 . S
H4186 C4204 0.951 . S
H4187 C4206 0.951 . S
H4188 C4208 0.950 . S
H4189 C4209 0.950 . S
H4190 C4211 0.950 . S
H4191 C4214 0.950 . S
H4192 C4215 0.943 1_545 S
H4193 C4217 0.950 . S
H4194 C4218 0.950 . S
H4195 C4219 0.951 . S
H4196 C4221 0.951 . S
H4197 C4223 0.950 . S
H4198 C4224 0.950 . S
H4199 C4226 0.950 . S
H4200 C4229 0.950 . S
H4201 C4230 0.950 . S
H4202 C4232 0.950 . S
H4203 C4233 0.950 . S
C4204 H4186 0.951 . S
C4204 C4205 1.366 . S
C4204 C4206 1.388 . S
C4205 C4204 1.366 . S
C4205 C4209 1.385 . S
C4206 H4187 0.951 . S
C4206 C4204 1.388 . S
C4206 C4207 1.366 . S
C4207 C4206 1.366 . S
C4207 C4208 1.414 . S
C4207 C4210 1.499 . S
C4208 H4188 0.950 . S
C4208 C4207 1.414 . S
C4208 C4209 1.374 . S
C4209 H4189 0.950 . S
C4209 C4205 1.385 . S
C4209 C4208 1.374 . S
C4210 C4207 1.499 . S
C4210 C4211 1.373 . S
C4210 C4212 1.389 . S
C4211 H4190 0.950 . S
C4211 C4210 1.373 . S
C4211 C4227 1.377 . S
C4212 C4210 1.389 . S
C4212 C4213 1.524 . S
C4212 C4226 1.377 . S
C4213 C4212 1.524 . S
C4213 C4214 1.397 . S
C4213 C4218 1.363 . S
C4214 H4191 0.950 . S
C4214 C4213 1.397 . S
C4214 C4215 1.366 . S
C4215 H4192 0.943 1_565 S
C4215 C4214 1.366 . S
C4215 C4216 1.263 1_565 S
C4216 C4215 1.263 1_545 S
C4216 C4217 1.524 1_545 S
C4216 H4235 0.913 . S
C4217 H4193 0.950 . S
C4217 C4216 1.524 1_565 S
C4217 C4218 1.415 . S
C4218 H4194 0.950 . S
C4218 C4213 1.363 . S
C4218 C4217 1.415 . S
C4219 H4195 0.951 . S
C4219 C4220 1.366 . S
C4219 C4221 1.388 . S
C4220 C4219 1.366 . S
C4220 C4224 1.385 . S
C4221 H4196 0.951 . S
C4221 C4219 1.388 . S
C4221 C4222 1.366 . S
C4222 C4221 1.366 . S
C4222 C4223 1.414 . S
C4222 C4225 1.499 . S
C4223 H4197 0.950 . S
C4223 C4222 1.414 . S
C4223 C4224 1.374 . S
C4224 H4198 0.950 . S
C4224 C4220 1.385 . S
C4224 C4223 1.374 . S
C4225 C4222 1.499 . S
C4225 C4226 1.373 . S
C4225 C4227 1.389 . S
C4226 H4199 0.950 . S
C4226 C4212 1.377 . S
C4226 C4225 1.373 . S
C4227 C4211 1.377 . S
C4227 C4225 1.389 . S
C4227 C4228 1.524 . S
C4228 C4227 1.524 . S
C4228 C4229 1.397 . S
C4228 C4233 1.363 . S
C4229 H4200 0.950 . S
C4229 C4228 1.397 . S
C4229 C4230 1.334 . S
C4230 H4201 0.950 . S
C4230 C4229 1.334 . S
C4230 C4231 1.287 . S
C4231 C4230 1.287 . S
C4231 C4232 1.524 . S
C4231 H4234 0.999 . S
C4232 H4202 0.950 . S
C4232 C4231 1.524 . S
C4232 C4233 1.415 . S
C4233 H4203 0.950 . S
C4233 C4228 1.363 . S
C4233 C4232 1.415 . S
H4234 C4231 0.999 . S
H4235 C4216 0.913 . S
H4236 C4254 0.951 . S
H4237 C4256 0.951 . S
H4238 C4258 0.950 . S
H4239 C4259 0.950 . S
H4240 C4261 0.950 . S
H4241 C4264 0.950 . S
H4242 C4265 0.950 . S
H4243 C4267 0.961 . S
H4244 C4268 0.950 . S
H4245 C4269 0.951 . S
H4246 C4271 0.951 . S
H4247 C4273 0.950 . S
H4248 C4274 0.950 . S
H4249 C4276 0.950 . S
H4250 C4279 0.950 . S
H4251 C4280 0.950 . S
H4252 C4282 0.950 . S
H4253 C4283 0.950 . S
C4254 H4236 0.951 . S
C4254 C4255 1.366 . S
C4254 C4256 1.388 . S
C4255 C4254 1.366 . S
C4255 C4259 1.385 . S
C4256 H4237 0.951 . S
C4256 C4254 1.388 . S
C4256 C4257 1.366 . S
C4257 C4256 1.366 . S
C4257 C4258 1.414 . S
C4257 C4260 1.499 . S
C4258 H4238 0.950 . S
C4258 C4257 1.414 . S
C4258 C4259 1.374 . S
C4259 H4239 0.950 . S
C4259 C4255 1.385 . S
C4259 C4258 1.374 . S
C4260 C4257 1.499 . S
C4260 C4261 1.373 . S
C4260 C4262 1.389 . S
C4261 H4240 0.950 . S
C4261 C4260 1.373 . S
C4261 C4277 1.377 . S
C4262 C4260 1.389 . S
C4262 C4263 1.524 . S
C4262 C4276 1.377 . S
C4263 C4262 1.524 . S
C4263 C4264 1.397 . S
C4263 C4268 1.363 . S
C4264 H4241 0.950 . S
C4264 C4263 1.397 . S
C4264 C4265 1.334 . S
C4265 H4242 0.950 . S
C4265 C4264 1.334 . S
C4265 C4266 1.287 . S
C4266 C4265 1.287 . S
C4266 C4267 1.524 . S
C4266 H4285 0.913 1_545 S
C4267 H4243 0.961 . S
C4267 C4266 1.524 . S
C4267 C4268 1.415 . S
C4268 H4244 0.950 . S
C4268 C4263 1.363 . S
C4268 C4267 1.415 . S
C4269 H4245 0.951 . S
C4269 C4270 1.366 . S
C4269 C4271 1.388 . S
C4270 C4269 1.366 . S
C4270 C4274 1.385 . S
C4271 H4246 0.951 . S
C4271 C4269 1.388 . S
C4271 C4272 1.366 . S
C4272 C4271 1.366 . S
C4272 C4273 1.414 . S
C4272 C4275 1.499 . S
C4273 H4247 0.950 . S
C4273 C4272 1.414 . S
C4273 C4274 1.374 . S
C4274 H4248 0.950 . S
C4274 C4270 1.385 . S
C4274 C4273 1.374 . S
C4275 C4272 1.499 . S
C4275 C4276 1.373 . S
C4275 C4277 1.389 . S
C4276 H4249 0.950 . S
C4276 C4262 1.377 . S
C4276 C4275 1.373 . S
C4277 C4261 1.377 . S
C4277 C4275 1.389 . S
C4277 C4278 1.524 . S
C4278 C4277 1.524 . S
C4278 C4279 1.397 . S
C4278 C4283 1.363 . S
C4279 H4250 0.950 . S
C4279 C4278 1.397 . S
C4279 C4280 1.334 . S
C4280 H4251 0.950 . S
C4280 C4279 1.334 . S
C4280 C4281 1.287 . S
C4281 C4280 1.287 . S
C4281 C4282 1.524 . S
C4281 H4284 0.999 . S
C4282 H4252 0.950 . S
C4282 C4281 1.524 . S
C4282 C4283 1.415 . S
C4283 H4253 0.950 . S
C4283 C4278 1.363 . S
C4283 C4282 1.415 . S
H4284 C4281 0.999 . S
H4285 C4266 0.913 1_565 S
H4286 C4304 0.951 . S
H4287 C4306 0.951 . S
H4288 C4308 0.950 . S
H4289 C4309 0.950 . S
H4290 C4311 0.950 . S
H4291 C4314 0.950 . S
H4292 C4315 0.950 . S
H4293 C4317 0.950 . S
H4294 C4318 0.950 . S
H4295 C4319 0.951 . S
H4296 C4321 0.951 . S
H4297 C4323 0.950 . S
H4298 C4324 0.950 . S
H4299 C4326 0.950 . S
H4300 C4329 0.950 . S
H4301 C4330 0.950 . S
H4302 C4332 0.950 . S
H4303 C4333 0.950 . S
C4304 H4286 0.951 . S
C4304 C4305 1.366 . S
C4304 C4306 1.388 . S
C4305 C4304 1.366 . S
C4305 C4309 1.385 . S
C4306 H4287 0.951 . S
C4306 C4304 1.388 . S
C4306 C4307 1.366 . S
C4307 C4306 1.366 . S
C4307 C4308 1.414 . S
C4307 C4310 1.499 . S
C4308 H4288 0.950 . S
C4308 C4307 1.414 . S
C4308 C4309 1.374 . S
C4309 H4289 0.950 . S
C4309 C4305 1.385 . S
C4309 C4308 1.374 . S
C4310 C4307 1.499 . S
C4310 C4311 1.373 . S
C4310 C4312 1.389 . S
C4311 H4290 0.950 . S
C4311 C4310 1.373 . S
C4311 C4327 1.377 . S
C4312 C4310 1.389 . S
C4312 C4313 1.524 . S
C4312 C4326 1.377 . S
C4313 C4312 1.524 . S
C4313 C4314 1.397 . S
C4313 C4318 1.363 . S
C4314 H4291 0.950 . S
C4314 C4313 1.397 . S
C4314 C4315 1.334 . S
C4315 H4292 0.950 . S
C4315 C4314 1.334 . S
C4315 C4316 1.287 . S
C4316 C4315 1.287 . S
C4316 C4317 1.524 . S
C4316 H4335 0.913 . S
C4317 H4293 0.950 . S
C4317 C4316 1.524 . S
C4317 C4318 1.415 . S
C4318 H4294 0.950 . S
C4318 C4313 1.363 . S
C4318 C4317 1.415 . S
C4319 H4295 0.951 . S
C4319 C4320 1.366 . S
C4319 C4321 1.388 . S
C4320 C4319 1.366 . S
C4320 C4324 1.385 . S
C4321 H4296 0.951 . S
C4321 C4319 1.388 . S
C4321 C4322 1.366 . S
C4322 C4321 1.366 . S
C4322 C4323 1.414 . S
C4322 C4325 1.499 . S
C4323 H4297 0.950 . S
C4323 C4322 1.414 . S
C4323 C4324 1.374 . S
C4324 H4298 0.950 . S
C4324 C4320 1.385 . S
C4324 C4323 1.374 . S
C4325 C4322 1.499 . S
C4325 C4326 1.373 . S
C4325 C4327 1.389 . S
C4326 H4299 0.950 . S
C4326 C4312 1.377 . S
C4326 C4325 1.373 . S
C4327 C4311 1.377 . S
C4327 C4325 1.389 . S
C4327 C4328 1.524 . S
C4328 C4327 1.524 . S
C4328 C4329 1.397 . S
C4328 C4333 1.363 . S
C4329 H4300 0.950 . S
C4329 C4328 1.397 . S
C4329 C4330 1.334 . S
C4330 H4301 0.950 . S
C4330 C4329 1.334 . S
C4330 C4331 1.287 . S
C4331 C4330 1.287 . S
C4331 C4332 1.524 . S
C4331 H4334 0.999 . S
C4332 H4302 0.950 . S
C4332 C4331 1.524 . S
C4332 C4333 1.415 . S
C4333 H4303 0.950 . S
C4333 C4328 1.363 . S
C4333 C4332 1.415 . S
H4334 C4331 0.999 . S
H4335 C4316 0.913 . S
H4336 C4354 0.951 1_554 S
H4337 C4356 0.951 . S
H4338 C4358 0.950 . S
H4339 C4359 0.950 . S
H4340 C4361 0.950 . S
H4341 C4364 0.950 . S
H4342 C4365 0.950 . S
H4343 C4367 0.950 1_554 S
H4344 C4368 0.950 . S
H4345 C4369 0.951 . S
H4346 C4371 0.951 . S
H4347 C4373 0.950 . S
H4348 C4374 0.950 . S
H4349 C4376 0.950 . S
H4350 C4379 0.950 . S
H4351 C4380 0.950 . S
H4352 C4382 0.950 . S
H4353 C4383 0.950 . S
C4354 H4336 0.951 1_556 S
C4354 C4355 1.366 . S
C4354 C4356 1.388 . S
C4355 C4354 1.366 . S
C4355 C4359 1.385 . S
C4356 H4337 0.951 . S
C4356 C4354 1.388 . S
C4356 C4357 1.366 . S
C4357 C4356 1.366 . S
C4357 C4358 1.414 . S
C4357 C4360 1.499 . S
C4358 H4338 0.950 . S
C4358 C4357 1.414 . S
C4358 C4359 1.374 . S
C4359 H4339 0.950 . S
C4359 C4355 1.385 . S
C4359 C4358 1.374 . S
C4360 C4357 1.499 . S
C4360 C4361 1.373 . S
C4360 C4362 1.389 . S
C4361 H4340 0.950 . S
C4361 C4360 1.373 . S
C4361 C4377 1.377 . S
C4362 C4360 1.389 . S
C4362 C4363 1.524 . S
C4362 C4376 1.377 . S
C4363 C4362 1.524 . S
C4363 C4364 1.397 . S
C4363 C4368 1.363 . S
C4364 H4341 0.950 . S
C4364 C4363 1.397 . S
C4364 C4365 1.334 . S
C4365 H4342 0.950 . S
C4365 C4364 1.334 . S
C4365 C4366 1.287 . S
C4366 C4365 1.287 . S
C4366 C4367 1.524 . S
C4366 H4385 0.913 1_556 S
C4367 H4343 0.950 1_556 S
C4367 C4366 1.524 . S
C4367 C4368 1.415 . S
C4368 H4344 0.950 . S
C4368 C4363 1.363 . S
C4368 C4367 1.415 . S
C4369 H4345 0.951 . S
C4369 C4370 1.366 . S
C4369 C4371 1.388 . S
C4370 C4369 1.366 . S
C4370 C4374 1.385 . S
C4371 H4346 0.951 . S
C4371 C4369 1.388 . S
C4371 C4372 1.366 . S
C4372 C4371 1.366 . S
C4372 C4373 1.414 . S
C4372 C4375 1.499 . S
C4373 H4347 0.950 . S
C4373 C4372 1.414 . S
C4373 C4374 1.374 . S
C4374 H4348 0.950 . S
C4374 C4370 1.385 . S
C4374 C4373 1.374 . S
C4375 C4372 1.499 . S
C4375 C4376 1.373 . S
C4375 C4377 1.389 . S
C4376 H4349 0.950 . S
C4376 C4362 1.377 . S
C4376 C4375 1.373 . S
C4377 C4361 1.377 . S
C4377 C4375 1.389 . S
C4377 C4378 1.524 . S
C4378 C4377 1.524 . S
C4378 C4379 1.397 . S
C4378 C4383 1.363 . S
C4379 H4350 0.950 . S
C4379 C4378 1.397 . S
C4379 C4380 1.334 . S
C4380 H4351 0.950 . S
C4380 C4379 1.334 . S
C4380 C4381 1.287 . S
C4381 C4380 1.287 . S
C4381 C4382 1.524 . S
C4381 H4384 0.999 . S
C4382 H4352 0.950 . S
C4382 C4381 1.524 . S
C4382 C4383 1.415 . S
C4383 H4353 0.950 . S
C4383 C4378 1.363 . S
C4383 C4382 1.415 . S
H4384 C4381 0.999 . S
H4385 C4366 0.913 1_554 S
H4386 C4404 1.037 . S
H4387 C4406 0.951 . S
H4388 C4408 0.950 . S
H4389 C4409 0.950 . S
H4390 C4411 0.950 . S
H4391 C4414 0.950 . S
H4392 C4415 0.950 . S
H4393 C4417 0.950 . S
H4394 C4418 0.950 . S
H4395 C4419 0.951 . S
H4396 C4421 0.951 . S
H4397 C4423 0.950 . S
H4398 C4424 0.950 . S
H4399 C4426 0.950 . S
H4400 C4429 0.950 . S
H4401 C4430 0.950 . S
H4402 C4432 0.950 . S
H4403 C4433 0.950 . S
C4404 H4386 1.037 . S
C4404 C4405 1.366 . S
C4404 C4406 1.388 . S
C4405 C4404 1.366 . S
C4405 C4409 1.385 . S
C4406 H4387 0.951 . S
C4406 C4404 1.388 . S
C4406 C4407 1.366 . S
C4407 C4406 1.366 . S
C4407 C4408 1.414 . S
C4407 C4410 1.499 . S
C4408 H4388 0.950 . S
C4408 C4407 1.414 . S
C4408 C4409 1.374 . S
C4409 H4389 0.950 . S
C4409 C4405 1.385 . S
C4409 C4408 1.374 . S
C4410 C4407 1.499 . S
C4410 C4411 1.373 . S
C4410 C4412 1.389 . S
C4411 H4390 0.950 . S
C4411 C4410 1.373 . S
C4411 C4427 1.377 . S
C4412 C4410 1.389 . S
C4412 C4413 1.524 . S
C4412 C4426 1.377 . S
C4413 C4412 1.524 . S
C4413 C4414 1.397 . S
C4413 C4418 1.363 . S
C4414 H4391 0.950 . S
C4414 C4413 1.397 . S
C4414 C4415 1.334 . S
C4415 H4392 0.950 . S
C4415 C4414 1.334 . S
C4415 C4416 1.287 . S
C4416 C4415 1.287 . S
C4416 C4417 1.524 . S
C4416 H4435 0.913 . S
C4417 H4393 0.950 . S
C4417 C4416 1.524 . S
C4417 C4418 1.415 . S
C4418 H4394 0.950 . S
C4418 C4413 1.363 . S
C4418 C4417 1.415 . S
C4419 H4395 0.951 . S
C4419 C4420 1.366 . S
C4419 C4421 1.388 . S
C4420 C4419 1.366 . S
C4420 C4424 1.385 . S
C4421 H4396 0.951 . S
C4421 C4419 1.388 . S
C4421 C4422 1.366 . S
C4422 C4421 1.366 . S
C4422 C4423 1.414 . S
C4422 C4425 1.499 . S
C4423 H4397 0.950 . S
C4423 C4422 1.414 . S
C4423 C4424 1.374 . S
C4424 H4398 0.950 . S
C4424 C4420 1.385 . S
C4424 C4423 1.374 . S
C4425 C4422 1.499 . S
C4425 C4426 1.373 . S
C4425 C4427 1.389 . S
C4426 H4399 0.950 . S
C4426 C4412 1.377 . S
C4426 C4425 1.373 . S
C4427 C4411 1.377 . S
C4427 C4425 1.389 . S
C4427 C4428 1.524 . S
C4428 C4427 1.524 . S
C4428 C4429 1.397 . S
C4428 C4433 1.363 . S
C4429 H4400 0.950 . S
C4429 C4428 1.397 . S
C4429 C4430 1.334 . S
C4430 H4401 0.950 . S
C4430 C4429 1.334 . S
C4430 C4431 1.287 . S
C4431 C4430 1.287 . S
C4431 C4432 1.524 . S
C4431 H4434 0.999 . S
C4432 H4402 0.950 . S
C4432 C4431 1.524 . S
C4432 C4433 1.415 . S
C4433 H4403 0.950 . S
C4433 C4428 1.363 . S
C4433 C4432 1.415 . S
H4434 C4431 0.999 . S
H4435 C4416 0.913 . S
H4436 C4454 0.951 . S
H4437 C4456 0.951 . S
H4438 C4458 0.950 . S
H4439 C4459 0.950 . S
H4440 C4461 0.950 . S
H4441 C4464 0.950 . S
H4442 C4465 0.950 . S
H4443 C4467 0.950 . S
H4444 C4468 0.950 . S
H4445 C4469 0.951 . S
H4446 C4471 0.951 . S
H4447 C4473 0.950 . S
H4448 C4474 0.950 . S
H4449 C4476 0.950 . S
H4450 C4479 0.950 . S
H4451 C4480 0.950 . S
H4452 C4482 0.950 . S
H4453 C4483 0.950 . S
C4454 H4436 0.951 . S
C4454 C4455 1.366 . S
C4454 C4456 1.388 . S
C4455 C4454 1.366 . S
C4455 C4459 1.385 . S
C4456 H4437 0.951 . S
C4456 C4454 1.388 . S
C4456 C4457 1.366 . S
C4457 C4456 1.366 . S
C4457 C4458 1.414 . S
C4457 C4460 1.499 . S
C4458 H4438 0.950 . S
C4458 C4457 1.414 . S
C4458 C4459 1.374 . S
C4459 H4439 0.950 . S
C4459 C4455 1.385 . S
C4459 C4458 1.374 . S
C4460 C4457 1.499 . S
C4460 C4461 1.373 . S
C4460 C4462 1.389 . S
C4461 H4440 0.950 . S
C4461 C4460 1.373 . S
C4461 C4477 1.377 . S
C4462 C4460 1.389 . S
C4462 C4463 1.524 . S
C4462 C4476 1.377 . S
C4463 C4462 1.524 . S
C4463 C4464 1.397 . S
C4463 C4468 1.363 . S
C4464 H4441 0.950 . S
C4464 C4463 1.397 . S
C4464 C4465 1.334 . S
C4465 H4442 0.950 . S
C4465 C4464 1.334 . S
C4465 C4466 1.287 . S
C4466 C4465 1.287 . S
C4466 C4467 1.524 . S
C4466 H4485 0.913 . S
C4467 H4443 0.950 . S
C4467 C4466 1.524 . S
C4467 C4468 1.415 . S
C4468 H4444 0.950 . S
C4468 C4463 1.363 . S
C4468 C4467 1.415 . S
C4469 H4445 0.951 . S
C4469 C4470 1.366 . S
C4469 C4471 1.388 . S
C4470 C4469 1.366 . S
C4470 C4474 1.385 . S
C4471 H4446 0.951 . S
C4471 C4469 1.388 . S
C4471 C4472 1.366 . S
C4472 C4471 1.366 . S
C4472 C4473 1.414 . S
C4472 C4475 1.499 . S
C4473 H4447 0.950 . S
C4473 C4472 1.414 . S
C4473 C4474 1.374 . S
C4474 H4448 0.950 . S
C4474 C4470 1.385 . S
C4474 C4473 1.374 . S
C4475 C4472 1.499 . S
C4475 C4476 1.373 . S
C4475 C4477 1.389 . S
C4476 H4449 0.950 . S
C4476 C4462 1.377 . S
C4476 C4475 1.373 . S
C4477 C4461 1.377 . S
C4477 C4475 1.389 . S
C4477 C4478 1.524 . S
C4478 C4477 1.524 . S
C4478 C4479 1.397 . S
C4478 C4483 1.363 . S
C4479 H4450 0.950 . S
C4479 C4478 1.397 . S
C4479 C4480 1.334 . S
C4480 H4451 0.950 . S
C4480 C4479 1.334 . S
C4480 C4481 1.287 . S
C4481 C4480 1.287 . S
C4481 C4482 1.524 . S
C4481 H4484 0.999 . S
C4482 H4452 0.950 . S
C4482 C4481 1.524 . S
C4482 C4483 1.415 . S
C4483 H4453 0.950 . S
C4483 C4478 1.363 . S
C4483 C4482 1.415 . S
H4484 C4481 0.999 . S
H4485 C4466 0.913 . S
H4486 C4504 0.951 . S
H4487 C4506 0.951 . S
H4488 C4508 0.950 . S
H4489 C4509 0.950 . S
H4490 C4511 0.950 . S
H4491 C4514 0.950 . S
H4492 C4515 0.954 . S
H4493 C4517 0.950 . S
H4494 C4518 0.950 . S
H4495 C4519 0.951 . S
H4496 C4521 0.951 . S
H4497 C4523 0.950 . S
H4498 C4524 0.950 . S
H4499 C4526 0.950 . S
H4500 C4529 0.950 . S
H4501 C4530 0.950 . S
H4502 C4532 0.950 . S
H4503 C4533 0.950 . S
C4504 H4486 0.951 . S
C4504 C4505 1.366 . S
C4504 C4506 1.388 . S
C4505 C4504 1.366 . S
C4505 C4509 1.385 . S
C4506 H4487 0.951 . S
C4506 C4504 1.388 . S
C4506 C4507 1.366 . S
C4507 C4506 1.366 . S
C4507 C4508 1.414 . S
C4507 C4510 1.499 . S
C4508 H4488 0.950 . S
C4508 C4507 1.414 . S
C4508 C4509 1.374 . S
C4509 H4489 0.950 . S
C4509 C4505 1.385 . S
C4509 C4508 1.374 . S
C4510 C4507 1.499 . S
C4510 C4511 1.373 . S
C4510 C4512 1.389 . S
C4511 H4490 0.950 . S
C4511 C4510 1.373 . S
C4511 C4527 1.377 . S
C4512 C4510 1.389 . S
C4512 C4513 1.524 . S
C4512 C4526 1.377 . S
C4513 C4512 1.524 . S
C4513 C4514 1.397 . S
C4513 C4518 1.363 . S
C4514 H4491 0.950 . S
C4514 C4513 1.397 . S
C4514 C4515 1.324 1_556 S
C4515 H4492 0.954 . S
C4515 C4514 1.324 1_554 S
C4515 C4516 1.292 . S
C4516 C4515 1.292 . S
C4516 C4517 1.524 . S
C4516 H4535 0.913 . S
C4517 H4493 0.950 . S
C4517 C4516 1.524 . S
C4517 C4518 1.415 1_554 S
C4518 H4494 0.950 . S
C4518 C4513 1.363 . S
C4518 C4517 1.415 1_556 S
C4519 H4495 0.951 . S
C4519 C4520 1.366 . S
C4519 C4521 1.388 . S
C4520 C4519 1.366 . S
C4520 C4524 1.385 . S
C4521 H4496 0.951 . S
C4521 C4519 1.388 . S
C4521 C4522 1.366 . S
C4522 C4521 1.366 . S
C4522 C4523 1.414 . S
C4522 C4525 1.499 . S
C4523 H4497 0.950 . S
C4523 C4522 1.414 . S
C4523 C4524 1.374 . S
C4524 H4498 0.950 . S
C4524 C4520 1.385 . S
C4524 C4523 1.374 . S
C4525 C4522 1.499 . S
C4525 C4526 1.373 . S
C4525 C4527 1.389 . S
C4526 H4499 0.950 . S
C4526 C4512 1.377 . S
C4526 C4525 1.373 . S
C4527 C4511 1.377 . S
C4527 C4525 1.389 . S
C4527 C4528 1.524 . S
C4528 C4527 1.524 . S
C4528 C4529 1.397 . S
C4528 C4533 1.363 . S
C4529 H4500 0.950 . S
C4529 C4528 1.397 . S
C4529 C4530 1.334 . S
C4530 H4501 0.950 . S
C4530 C4529 1.334 . S
C4530 C4531 1.287 . S
C4531 C4530 1.287 . S
C4531 C4532 1.524 . S
C4531 H4534 0.999 . S
C4532 H4502 0.950 . S
C4532 C4531 1.524 . S
C4532 C4533 1.415 . S
C4533 H4503 0.950 . S
C4533 C4528 1.363 . S
C4533 C4532 1.415 . S
H4534 C4531 0.999 . S
H4535 C4516 0.913 . S
H4536 C4554 0.951 . S
H4537 C4556 0.951 . S
H4538 C4558 0.950 . S
H4539 C4559 0.950 . S
H4540 C4561 0.950 . S
H4541 C4564 0.950 . S
H4542 C4565 0.950 . S
H4543 C4567 0.950 . S
H4544 C4568 0.950 . S
H4545 C4569 0.951 . S
H4546 C4571 0.951 . S
H4547 C4573 0.950 . S
H4548 C4574 0.950 . S
H4549 C4576 0.950 . S
H4550 C4579 0.950 . S
H4551 C4580 0.950 . S
H4552 C4582 0.950 . S
H4553 C4583 0.950 . S
C4554 H4536 0.951 . S
C4554 C4555 1.366 . S
C4554 C4556 1.388 . S
C4555 C4554 1.366 . S
C4555 C4559 1.385 . S
C4556 H4537 0.951 . S
C4556 C4554 1.388 . S
C4556 C4557 1.366 . S
C4557 C4556 1.366 . S
C4557 C4558 1.414 . S
C4557 C4560 1.499 . S
C4558 H4538 0.950 . S
C4558 C4557 1.414 . S
C4558 C4559 1.374 . S
C4559 H4539 0.950 . S
C4559 C4555 1.385 . S
C4559 C4558 1.374 . S
C4560 C4557 1.499 . S
C4560 C4561 1.373 . S
C4560 C4562 1.389 . S
C4561 H4540 0.950 . S
C4561 C4560 1.373 . S
C4561 C4577 1.377 . S
C4562 C4560 1.389 . S
C4562 C4563 1.524 . S
C4562 C4576 1.377 . S
C4563 C4562 1.524 . S
C4563 C4564 1.397 . S
C4563 C4568 1.363 . S
C4564 H4541 0.950 . S
C4564 C4563 1.397 . S
C4564 C4565 1.334 . S
C4565 H4542 0.950 . S
C4565 C4564 1.334 . S
C4565 C4566 1.287 . S
C4566 C4565 1.287 . S
C4566 C4567 1.524 . S
C4566 H4585 0.913 . S
C4567 H4543 0.950 . S
C4567 C4566 1.524 . S
C4567 C4568 1.415 . S
C4568 H4544 0.950 . S
C4568 C4563 1.363 . S
C4568 C4567 1.415 . S
C4569 H4545 0.951 . S
C4569 C4570 1.366 . S
C4569 C4571 1.388 . S
C4570 C4569 1.366 . S
C4570 C4574 1.385 . S
C4571 H4546 0.951 . S
C4571 C4569 1.388 . S
C4571 C4572 1.366 . S
C4572 C4571 1.366 . S
C4572 C4573 1.414 . S
C4572 C4575 1.499 . S
C4573 H4547 0.950 . S
C4573 C4572 1.414 . S
C4573 C4574 1.374 . S
C4574 H4548 0.950 . S
C4574 C4570 1.385 . S
C4574 C4573 1.374 . S
C4575 C4572 1.499 . S
C4575 C4576 1.373 . S
C4575 C4577 1.389 . S
C4576 H4549 0.950 . S
C4576 C4562 1.377 . S
C4576 C4575 1.373 . S
C4577 C4561 1.377 . S
C4577 C4575 1.389 . S
C4577 C4578 1.524 . S
C4578 C4577 1.524 . S
C4578 C4579 1.397 . S
C4578 C4583 1.363 . S
C4579 H4550 0.950 . S
C4579 C4578 1.397 . S
C4579 C4580 1.334 . S
C4580 H4551 0.950 . S
C4580 C4579 1.334 . S
C4580 C4581 1.287 . S
C4581 C4580 1.287 . S
C4581 C4582 1.524 . S
C4581 H4584 0.999 . S
C4582 H4552 0.950 . S
C4582 C4581 1.524 . S
C4582 C4583 1.415 . S
C4583 H4553 0.950 . S
C4583 C4578 1.363 . S
C4583 C4582 1.415 . S
H4584 C4581 0.999 . S
H4585 C4566 0.913 . S
H4586 C4604 0.951 . S
H4587 C4606 0.951 . S
H4588 C4608 0.950 . S
H4589 C4609 0.950 . S
H4590 C4611 0.950 . S
H4591 C4614 0.950 . S
H4592 C4615 0.950 1_655 S
H4593 C4617 0.950 . S
H4594 C4618 0.950 . S
H4595 C4619 0.951 . S
H4596 C4621 0.951 . S
H4597 C4623 0.950 . S
H4598 C4624 0.950 . S
H4599 C4626 0.950 . S
H4600 C4629 0.950 . S
H4601 C4630 0.950 . S
H4602 C4632 0.950 . S
H4603 C4633 0.950 . S
C4604 H4586 0.951 . S
C4604 C4605 1.366 . S
C4604 C4606 1.388 . S
C4605 C4604 1.366 . S
C4605 C4609 1.385 . S
C4606 H4587 0.951 . S
C4606 C4604 1.388 . S
C4606 C4607 1.366 . S
C4607 C4606 1.366 . S
C4607 C4608 1.414 . S
C4607 C4610 1.499 . S
C4608 H4588 0.950 . S
C4608 C4607 1.414 . S
C4608 C4609 1.374 . S
C4609 H4589 0.950 . S
C4609 C4605 1.385 . S
C4609 C4608 1.374 . S
C4610 C4607 1.499 . S
C4610 C4611 1.373 . S
C4610 C4612 1.389 . S
C4611 H4590 0.950 . S
C4611 C4610 1.373 . S
C4611 C4627 1.377 . S
C4612 C4610 1.389 . S
C4612 C4613 1.524 . S
C4612 C4626 1.377 . S
C4613 C4612 1.524 . S
C4613 C4614 1.397 . S
C4613 C4618 1.363 . S
C4614 H4591 0.950 . S
C4614 C4613 1.397 . S
C4614 C4615 1.334 . S
C4615 H4592 0.950 1_455 S
C4615 C4614 1.334 . S
C4615 C4616 1.287 . S
C4616 C4615 1.287 . S
C4616 C4617 1.524 . S
C4616 H4635 0.913 1_455 S
C4617 H4593 0.950 . S
C4617 C4616 1.524 . S
C4617 C4618 1.415 . S
C4618 H4594 0.950 . S
C4618 C4613 1.363 . S
C4618 C4617 1.415 . S
C4619 H4595 0.951 . S
C4619 C4620 1.366 . S
C4619 C4621 1.388 . S
C4620 C4619 1.366 . S
C4620 C4624 1.385 . S
C4621 H4596 0.951 . S
C4621 C4619 1.388 . S
C4621 C4622 1.366 . S
C4622 C4621 1.366 . S
C4622 C4623 1.414 . S
C4622 C4625 1.499 . S
C4623 H4597 0.950 . S
C4623 C4622 1.414 . S
C4623 C4624 1.374 . S
C4624 H4598 0.950 . S
C4624 C4620 1.385 . S
C4624 C4623 1.374 . S
C4625 C4622 1.499 . S
C4625 C4626 1.373 . S
C4625 C4627 1.389 . S
C4626 H4599 0.950 . S
C4626 C4612 1.377 . S
C4626 C4625 1.373 . S
C4627 C4611 1.377 . S
C4627 C4625 1.389 . S
C4627 C4628 1.524 . S
C4628 C4627 1.524 . S
C4628 C4629 1.397 . S
C4628 C4633 1.363 . S
C4629 H4600 0.950 . S
C4629 C4628 1.397 . S
C4629 C4630 1.334 . S
C4630 H4601 0.950 . S
C4630 C4629 1.334 . S
C4630 C4631 1.287 . S
C4631 C4630 1.287 . S
C4631 C4632 1.524 . S
C4631 H4634 0.999 . S
C4632 H4602 0.950 . S
C4632 C4631 1.524 . S
C4632 C4633 1.415 . S
C4633 H4603 0.950 . S
C4633 C4628 1.363 . S
C4633 C4632 1.415 . S
H4634 C4631 0.999 . S
H4635 C4616 0.913 1_655 S
H4636 C4654 0.951 . S
H4637 C4656 0.951 . S
H4638 C4658 0.950 . S
H4639 C4659 0.950 . S
H4640 C4661 0.950 . S
H4641 C4664 0.950 . S
H4642 C4665 0.950 . S
H4643 C4667 0.950 . S
H4644 C4668 0.950 . S
H4645 C4669 0.951 . S
H4646 C4671 0.951 . S
H4647 C4673 0.950 . S
H4648 C4674 0.950 . S
H4649 C4676 0.950 . S
H4650 C4679 0.950 . S
H4651 C4680 0.950 . S
H4652 C4682 0.950 . S
H4653 C4683 0.950 . S
C4654 H4636 0.951 . S
C4654 C4655 1.366 . S
C4654 C4656 1.388 . S
C4655 C4654 1.366 . S
C4655 C4659 1.385 . S
C4656 H4637 0.951 . S
C4656 C4654 1.388 . S
C4656 C4657 1.366 . S
C4657 C4656 1.366 . S
C4657 C4658 1.414 . S
C4657 C4660 1.499 . S
C4658 H4638 0.950 . S
C4658 C4657 1.414 . S
C4658 C4659 1.374 . S
C4659 H4639 0.950 . S
C4659 C4655 1.385 . S
C4659 C4658 1.374 . S
C4660 C4657 1.499 . S
C4660 C4661 1.373 . S
C4660 C4662 1.389 . S
C4661 H4640 0.950 . S
C4661 C4660 1.373 . S
C4661 C4677 1.377 . S
C4662 C4660 1.389 . S
C4662 C4663 1.524 . S
C4662 C4676 1.377 . S
C4663 C4662 1.524 . S
C4663 C4664 1.397 . S
C4663 C4668 1.363 . S
C4664 H4641 0.950 . S
C4664 C4663 1.397 . S
C4664 C4665 1.334 . S
C4665 H4642 0.950 . S
C4665 C4664 1.334 . S
C4665 C4666 1.287 . S
C4666 C4665 1.287 . S
C4666 C4667 1.524 . S
C4666 H4685 0.913 . S
C4667 H4643 0.950 . S
C4667 C4666 1.524 . S
C4667 C4668 1.415 . S
C4668 H4644 0.950 . S
C4668 C4663 1.363 . S
C4668 C4667 1.415 . S
C4669 H4645 0.951 . S
C4669 C4670 1.366 . S
C4669 C4671 1.388 . S
C4670 C4669 1.366 . S
C4670 C4674 1.385 . S
C4671 H4646 0.951 . S
C4671 C4669 1.388 . S
C4671 C4672 1.366 . S
C4672 C4671 1.366 . S
C4672 C4673 1.414 . S
C4672 C4675 1.499 . S
C4673 H4647 0.950 . S
C4673 C4672 1.414 . S
C4673 C4674 1.374 . S
C4674 H4648 0.950 . S
C4674 C4670 1.385 . S
C4674 C4673 1.374 . S
C4675 C4672 1.499 . S
C4675 C4676 1.373 . S
C4675 C4677 1.389 . S
C4676 H4649 0.950 . S
C4676 C4662 1.377 . S
C4676 C4675 1.373 . S
C4677 C4661 1.377 . S
C4677 C4675 1.389 . S
C4677 C4678 1.524 . S
C4678 C4677 1.524 . S
C4678 C4679 1.397 . S
C4678 C4683 1.363 . S
C4679 H4650 0.950 . S
C4679 C4678 1.397 . S
C4679 C4680 1.334 . S
C4680 H4651 0.950 . S
C4680 C4679 1.334 . S
C4680 C4681 1.287 . S
C4681 C4680 1.287 . S
C4681 C4682 1.524 . S
C4681 H4684 0.999 . S
C4682 H4652 0.950 . S
C4682 C4681 1.524 . S
C4682 C4683 1.415 . S
C4683 H4653 0.950 . S
C4683 C4678 1.363 . S
C4683 C4682 1.415 . S
H4684 C4681 0.999 . S
H4685 C4666 0.913 . S
H4686 C4704 0.951 . S
H4687 C4706 0.951 . S
H4688 C4708 0.950 . S
H4689 C4709 0.950 . S
H4690 C4711 0.950 . S
H4691 C4714 0.950 . S
H4692 C4715 0.950 . S
H4693 C4717 0.950 . S
H4694 C4718 0.950 . S
H4695 C4719 0.951 . S
H4696 C4721 0.951 . S
H4697 C4723 0.950 . S
H4698 C4724 0.950 . S
H4699 C4726 0.950 . S
H4700 C4729 0.950 . S
H4701 C4730 0.950 . S
H4702 C4732 0.950 . S
H4703 C4733 0.950 . S
C4704 H4686 0.951 . S
C4704 C4705 1.366 . S
C4704 C4706 1.388 . S
C4705 C4704 1.366 . S
C4705 C4709 1.385 . S
C4706 H4687 0.951 . S
C4706 C4704 1.388 . S
C4706 C4707 1.366 . S
C4707 C4706 1.366 . S
C4707 C4708 1.414 . S
C4707 C4710 1.499 . S
C4708 H4688 0.950 . S
C4708 C4707 1.414 . S
C4708 C4709 1.374 . S
C4709 H4689 0.950 . S
C4709 C4705 1.385 . S
C4709 C4708 1.374 . S
C4710 C4707 1.499 . S
C4710 C4711 1.373 . S
C4710 C4712 1.389 . S
C4711 H4690 0.950 . S
C4711 C4710 1.373 . S
C4711 C4727 1.377 . S
C4712 C4710 1.389 . S
C4712 C4713 1.524 . S
C4712 C4726 1.377 . S
C4713 C4712 1.524 . S
C4713 C4714 1.397 . S
C4713 C4718 1.363 . S
C4714 H4691 0.950 . S
C4714 C4713 1.397 . S
C4714 C4715 1.334 . S
C4715 H4692 0.950 . S
C4715 C4714 1.334 . S
C4715 C4716 1.287 . S
C4716 C4715 1.287 . S
C4716 C4717 1.524 . S
C4716 H4735 0.913 . S
C4717 H4693 0.950 . S
C4717 C4716 1.524 . S
C4717 C4718 1.415 . S
C4718 H4694 0.950 . S
C4718 C4713 1.363 . S
C4718 C4717 1.415 . S
C4719 H4695 0.951 . S
C4719 C4720 1.366 . S
C4719 C4721 1.388 . S
C4720 C4719 1.366 . S
C4720 C4724 1.385 . S
C4721 H4696 0.951 . S
C4721 C4719 1.388 . S
C4721 C4722 1.366 . S
C4722 C4721 1.366 . S
C4722 C4723 1.414 . S
C4722 C4725 1.499 . S
C4723 H4697 0.950 . S
C4723 C4722 1.414 . S
C4723 C4724 1.374 . S
C4724 H4698 0.950 . S
C4724 C4720 1.385 . S
C4724 C4723 1.374 . S
C4725 C4722 1.499 . S
C4725 C4726 1.373 . S
C4725 C4727 1.389 . S
C4726 H4699 0.950 . S
C4726 C4712 1.377 . S
C4726 C4725 1.373 . S
C4727 C4711 1.377 . S
C4727 C4725 1.389 . S
C4727 C4728 1.524 . S
C4728 C4727 1.524 . S
C4728 C4729 1.397 . S
C4728 C4733 1.363 . S
C4729 H4700 0.950 . S
C4729 C4728 1.397 . S
C4729 C4730 1.334 . S
C4730 H4701 0.950 . S
C4730 C4729 1.334 . S
C4730 C4731 1.287 . S
C4731 C4730 1.287 . S
C4731 C4732 1.524 . S
C4731 H4734 0.999 . S
C4732 H4702 0.950 . S
C4732 C4731 1.524 . S
C4732 C4733 1.415 . S
C4733 H4703 0.950 . S
C4733 C4728 1.363 . S
C4733 C4732 1.415 . S
H4734 C4731 0.999 . S
H4735 C4716 0.913 . S
H4736 C4754 0.951 . S
H4737 C4756 0.951 . S
H4738 C4758 0.950 . S
H4739 C4759 0.950 . S
H4740 C4761 0.950 . S
H4741 C4764 0.950 . S
H4742 C4765 0.950 . S
H4743 C4767 0.950 . S
H4744 C4768 0.950 . S
H4745 C4769 0.951 . S
H4746 C4771 0.951 . S
H4747 C4773 0.950 . S
H4748 C4774 0.950 . S
H4749 C4776 0.950 . S
H4750 C4779 0.950 . S
H4751 C4780 0.950 . S
H4752 C4782 0.950 . S
H4753 C4783 0.950 . S
C4754 H4736 0.951 . S
C4754 C4755 1.366 . S
C4754 C4756 1.388 . S
C4755 C4754 1.366 . S
C4755 C4759 1.385 . S
C4756 H4737 0.951 . S
C4756 C4754 1.388 . S
C4756 C4757 1.366 . S
C4757 C4756 1.366 . S
C4757 C4758 1.414 . S
C4757 C4760 1.499 . S
C4758 H4738 0.950 . S
C4758 C4757 1.414 . S
C4758 C4759 1.374 . S
C4759 H4739 0.950 . S
C4759 C4755 1.385 . S
C4759 C4758 1.374 . S
C4760 C4757 1.499 . S
C4760 C4761 1.373 . S
C4760 C4762 1.389 . S
C4761 H4740 0.950 . S
C4761 C4760 1.373 . S
C4761 C4777 1.377 . S
C4762 C4760 1.389 . S
C4762 C4763 1.524 . S
C4762 C4776 1.377 . S
C4763 C4762 1.524 . S
C4763 C4764 1.397 . S
C4763 C4768 1.363 . S
C4764 H4741 0.950 . S
C4764 C4763 1.397 . S
C4764 C4765 1.334 . S
C4765 H4742 0.950 . S
C4765 C4764 1.334 . S
C4765 C4766 1.287 . S
C4766 C4765 1.287 . S
C4766 C4767 1.524 . S
C4766 H4785 0.913 . S
C4767 H4743 0.950 . S
C4767 C4766 1.524 . S
C4767 C4768 1.415 . S
C4768 H4744 0.950 . S
C4768 C4763 1.363 . S
C4768 C4767 1.415 . S
C4769 H4745 0.951 . S
C4769 C4770 1.366 . S
C4769 C4771 1.388 . S
C4770 C4769 1.366 . S
C4770 C4774 1.385 . S
C4771 H4746 0.951 . S
C4771 C4769 1.388 . S
C4771 C4772 1.366 . S
C4772 C4771 1.366 . S
C4772 C4773 1.414 . S
C4772 C4775 1.499 . S
C4773 H4747 0.950 . S
C4773 C4772 1.414 . S
C4773 C4774 1.374 . S
C4774 H4748 0.950 . S
C4774 C4770 1.385 . S
C4774 C4773 1.374 . S
C4775 C4772 1.499 . S
C4775 C4776 1.373 . S
C4775 C4777 1.389 . S
C4776 H4749 0.950 . S
C4776 C4762 1.377 . S
C4776 C4775 1.373 . S
C4777 C4761 1.377 . S
C4777 C4775 1.389 . S
C4777 C4778 1.524 . S
C4778 C4777 1.524 . S
C4778 C4779 1.397 . S
C4778 C4783 1.363 . S
C4779 H4750 0.950 . S
C4779 C4778 1.397 . S
C4779 C4780 1.334 . S
C4780 H4751 0.950 . S
C4780 C4779 1.334 . S
C4780 C4781 1.287 . S
C4781 C4780 1.287 . S
C4781 C4782 1.524 . S
C4781 H4784 0.999 . S
C4782 H4752 0.950 . S
C4782 C4781 1.524 . S
C4782 C4783 1.415 . S
C4783 H4753 0.950 . S
C4783 C4778 1.363 . S
C4783 C4782 1.415 . S
H4784 C4781 0.999 . S
H4785 C4766 0.913 . S
H4786 C4804 0.951 . S
H4787 C4806 0.951 . S
H4788 C4808 0.950 . S
H4789 C4809 0.950 . S
H4790 C4811 0.950 . S
H4791 C4814 0.950 . S
H4792 C4815 0.950 . S
H4793 C4817 0.950 . S
H4794 C4818 0.950 . S
H4795 C4819 0.951 . S
H4796 C4821 0.951 . S
H4797 C4823 0.950 . S
H4798 C4824 0.950 . S
H4799 C4826 0.950 . S
H4800 C4829 0.950 . S
H4801 C4830 0.950 . S
H4802 C4832 0.950 . S
H4803 C4833 0.950 . S
C4804 H4786 0.951 . S
C4804 C4805 1.366 . S
C4804 C4806 1.388 . S
C4805 C4804 1.366 . S
C4805 C4809 1.385 . S
C4806 H4787 0.951 . S
C4806 C4804 1.388 . S
C4806 C4807 1.366 . S
C4807 C4806 1.366 . S
C4807 C4808 1.414 . S
C4807 C4810 1.499 . S
C4808 H4788 0.950 . S
C4808 C4807 1.414 . S
C4808 C4809 1.374 . S
C4809 H4789 0.950 . S
C4809 C4805 1.385 . S
C4809 C4808 1.374 . S
C4810 C4807 1.499 . S
C4810 C4811 1.373 . S
C4810 C4812 1.389 . S
C4811 H4790 0.950 . S
C4811 C4810 1.373 . S
C4811 C4827 1.377 . S
C4812 C4810 1.389 . S
C4812 C4813 1.524 . S
C4812 C4826 1.377 . S
C4813 C4812 1.524 . S
C4813 C4814 1.397 . S
C4813 C4818 1.363 . S
C4814 H4791 0.950 . S
C4814 C4813 1.397 . S
C4814 C4815 1.334 . S
C4815 H4792 0.950 . S
C4815 C4814 1.334 . S
C4815 C4816 1.287 . S
C4816 C4815 1.287 . S
C4816 C4817 1.524 . S
C4816 H4835 0.913 . S
C4817 H4793 0.950 . S
C4817 C4816 1.524 . S
C4817 C4818 1.415 . S
C4818 H4794 0.950 . S
C4818 C4813 1.363 . S
C4818 C4817 1.415 . S
C4819 H4795 0.951 . S
C4819 C4820 1.366 . S
C4819 C4821 1.388 . S
C4820 C4819 1.366 . S
C4820 C4824 1.385 . S
C4821 H4796 0.951 . S
C4821 C4819 1.388 . S
C4821 C4822 1.366 . S
C4822 C4821 1.366 . S
C4822 C4823 1.414 . S
C4822 C4825 1.499 . S
C4823 H4797 0.950 . S
C4823 C4822 1.414 . S
C4823 C4824 1.374 . S
C4824 H4798 0.950 . S
C4824 C4820 1.385 . S
C4824 C4823 1.374 . S
C4825 C4822 1.499 . S
C4825 C4826 1.373 . S
C4825 C4827 1.389 . S
C4826 H4799 0.950 . S
C4826 C4812 1.377 . S
C4826 C4825 1.373 . S
C4827 C4811 1.377 . S
C4827 C4825 1.389 . S
C4827 C4828 1.524 . S
C4828 C4827 1.524 . S
C4828 C4829 1.397 . S
C4828 C4833 1.363 . S
C4829 H4800 0.950 . S
C4829 C4828 1.397 . S
C4829 C4830 1.334 . S
C4830 H4801 0.950 . S
C4830 C4829 1.334 . S
C4830 C4831 1.287 . S
C4831 C4830 1.287 . S
C4831 C4832 1.524 . S
C4831 H4834 0.999 . S
C4832 H4802 0.950 . S
C4832 C4831 1.524 . S
C4832 C4833 1.415 . S
C4833 H4803 0.950 . S
C4833 C4828 1.363 . S
C4833 C4832 1.415 . S
H4834 C4831 0.999 . S
H4835 C4816 0.913 . S
H4836 C4854 0.951 . S
H4837 C4856 0.951 . S
H4838 C4858 0.950 1_655 S
H4839 C4859 0.950 1_655 S
H4840 C4861 0.950 . S
H4841 C4864 0.950 . S
H4842 C4865 0.950 . S
H4843 C4867 0.950 . S
H4844 C4868 0.950 . S
H4845 C4869 0.951 . S
H4846 C4871 0.951 . S
H4847 C4873 0.950 . S
H4848 C4874 0.950 . S
H4849 C4876 0.950 . S
H4850 C4879 0.950 . S
H4851 C4880 0.950 . S
H4852 C4882 0.950 . S
H4853 C4883 0.950 . S
C4854 H4836 0.951 . S
C4854 C4855 1.366 . S
C4854 C4856 1.388 . S
C4855 C4854 1.366 . S
C4855 C4859 1.385 . S
C4856 H4837 0.951 . S
C4856 C4854 1.388 . S
C4856 C4857 1.366 . S
C4857 C4856 1.366 . S
C4857 C4858 1.414 . S
C4857 C4860 1.499 . S
C4858 H4838 0.950 1_455 S
C4858 C4857 1.414 . S
C4858 C4859 1.374 . S
C4859 H4839 0.950 1_455 S
C4859 C4855 1.385 . S
C4859 C4858 1.374 . S
C4860 C4857 1.499 . S
C4860 C4861 1.373 . S
C4860 C4862 1.389 . S
C4861 H4840 0.950 . S
C4861 C4860 1.373 . S
C4861 C4877 1.377 . S
C4862 C4860 1.389 . S
C4862 C4863 1.524 . S
C4862 C4876 1.377 . S
C4863 C4862 1.524 . S
C4863 C4864 1.397 . S
C4863 C4868 1.363 . S
C4864 H4841 0.950 . S
C4864 C4863 1.397 . S
C4864 C4865 1.334 . S
C4865 H4842 0.950 . S
C4865 C4864 1.334 . S
C4865 C4866 1.287 . S
C4866 C4865 1.287 . S
C4866 C4867 1.524 . S
C4866 H4885 0.913 . S
C4867 H4843 0.950 . S
C4867 C4866 1.524 . S
C4867 C4868 1.415 . S
C4868 H4844 0.950 . S
C4868 C4863 1.363 . S
C4868 C4867 1.415 . S
C4869 H4845 0.951 . S
C4869 C4870 1.366 1_655 S
C4869 C4871 1.388 . S
C4870 C4869 1.366 1_455 S
C4870 C4874 1.385 . S
C4871 H4846 0.951 . S
C4871 C4869 1.388 . S
C4871 C4872 1.366 1_655 S
C4872 C4871 1.366 1_455 S
C4872 C4873 1.414 . S
C4872 C4875 1.499 . S
C4873 H4847 0.950 . S
C4873 C4872 1.414 . S
C4873 C4874 1.374 . S
C4874 H4848 0.950 . S
C4874 C4870 1.385 . S
C4874 C4873 1.374 . S
C4875 C4872 1.499 . S
C4875 C4876 1.373 . S
C4875 C4877 1.389 . S
C4876 H4849 0.950 . S
C4876 C4862 1.377 . S
C4876 C4875 1.373 . S
C4877 C4861 1.377 . S
C4877 C4875 1.389 . S
C4877 C4878 1.524 . S
C4878 C4877 1.524 . S
C4878 C4879 1.397 . S
C4878 C4883 1.363 1_455 S
C4879 H4850 0.950 . S
C4879 C4878 1.397 . S
C4879 C4880 1.334 . S
C4880 H4851 0.950 . S
C4880 C4879 1.334 . S
C4880 C4881 1.287 1_455 S
C4881 C4880 1.287 1_655 S
C4881 C4882 1.524 . S
C4881 H4884 0.999 . S
C4882 H4852 0.950 . S
C4882 C4881 1.524 . S
C4882 C4883 1.415 . S
C4883 H4853 0.950 . S
C4883 C4878 1.363 1_655 S
C4883 C4882 1.415 . S
H4884 C4881 0.999 . S
H4885 C4866 0.913 . S
H4886 C4904 0.951 . S
H4887 C4906 0.951 . S
H4888 C4908 0.950 . S
H4889 C4909 0.950 . S
H4890 C4911 0.950 . S
H4891 C4914 0.950 . S
H4892 C4915 0.950 . S
H4893 C4917 0.950 . S
H4894 C4918 0.950 . S
H4895 C4919 0.951 . S
H4896 C4921 0.951 . S
H4897 C4923 0.950 . S
H4898 C4924 0.950 . S
H4899 C4926 0.950 . S
H4900 C4929 0.950 . S
H4901 C4930 0.950 . S
H4902 C4932 0.950 . S
H4903 C4933 0.950 . S
C4904 H4886 0.951 . S
C4904 C4905 1.366 . S
C4904 C4906 1.388 . S
C4905 C4904 1.366 . S
C4905 C4909 1.385 . S
C4906 H4887 0.951 . S
C4906 C4904 1.388 . S
C4906 C4907 1.366 . S
C4907 C4906 1.366 . S
C4907 C4908 1.414 . S
C4907 C4910 1.499 . S
C4908 H4888 0.950 . S
C4908 C4907 1.414 . S
C4908 C4909 1.374 . S
C4909 H4889 0.950 . S
C4909 C4905 1.385 . S
C4909 C4908 1.374 . S
C4910 C4907 1.499 . S
C4910 C4911 1.373 . S
C4910 C4912 1.389 . S
C4911 H4890 0.950 . S
C4911 C4910 1.373 . S
C4911 C4927 1.377 . S
C4912 C4910 1.389 . S
C4912 C4913 1.524 . S
C4912 C4926 1.377 . S
C4913 C4912 1.524 . S
C4913 C4914 1.397 . S
C4913 C4918 1.363 . S
C4914 H4891 0.950 . S
C4914 C4913 1.397 . S
C4914 C4915 1.334 . S
C4915 H4892 0.950 . S
C4915 C4914 1.334 . S
C4915 C4916 1.287 . S
C4916 C4915 1.287 . S
C4916 C4917 1.524 . S
C4916 H4935 0.913 . S
C4917 H4893 0.950 . S
C4917 C4916 1.524 . S
C4917 C4918 1.415 . S
C4918 H4894 0.950 . S
C4918 C4913 1.363 . S
C4918 C4917 1.415 . S
C4919 H4895 0.951 . S
C4919 C4920 1.366 . S
C4919 C4921 1.388 . S
C4920 C4919 1.366 . S
C4920 C4924 1.385 . S
C4921 H4896 0.951 . S
C4921 C4919 1.388 . S
C4921 C4922 1.366 . S
C4922 C4921 1.366 . S
C4922 C4923 1.414 . S
C4922 C4925 1.499 . S
C4923 H4897 0.950 . S
C4923 C4922 1.414 . S
C4923 C4924 1.374 . S
C4924 H4898 0.950 . S
C4924 C4920 1.385 . S
C4924 C4923 1.374 . S
C4925 C4922 1.499 . S
C4925 C4926 1.373 . S
C4925 C4927 1.389 . S
C4926 H4899 0.950 . S
C4926 C4912 1.377 . S
C4926 C4925 1.373 . S
C4927 C4911 1.377 . S
C4927 C4925 1.389 . S
C4927 C4928 1.524 . S
C4928 C4927 1.524 . S
C4928 C4929 1.397 . S
C4928 C4933 1.363 . S
C4929 H4900 0.950 . S
C4929 C4928 1.397 . S
C4929 C4930 1.334 . S
C4930 H4901 0.950 . S
C4930 C4929 1.334 . S
C4930 C4931 1.287 . S
C4931 C4930 1.287 . S
C4931 C4932 1.524 . S
C4931 H4934 0.999 . S
C4932 H4902 0.950 . S
C4932 C4931 1.524 . S
C4932 C4933 1.415 . S
C4933 H4903 0.950 . S
C4933 C4928 1.363 . S
C4933 C4932 1.415 . S
H4934 C4931 0.999 . S
H4935 C4916 0.913 . S
H4936 C4954 0.951 . S
H4937 C4956 0.954 . S
H4938 C4958 0.950 . S
H4939 C4959 0.950 . S
H4940 C4961 0.950 . S
H4941 C4964 0.950 . S
H4942 C4965 0.950 . S
H4943 C4967 0.950 . S
H4944 C4968 0.950 . S
H4945 C4969 0.951 . S
H4946 C4971 0.951 . S
H4947 C4973 0.950 1_545 S
H4948 C4974 0.951 1_545 S
H4949 C4976 0.950 . S
H4950 C4979 0.950 . S
H4951 C4980 0.950 . S
H4952 C4982 0.950 . S
H4953 C4983 0.950 . S
C4954 H4936 0.951 . S
C4954 C4955 1.366 . S
C4954 C4956 1.388 . S
C4955 C4954 1.366 . S
C4955 C4959 1.385 . S
C4956 H4937 0.954 . S
C4956 C4954 1.388 . S
C4956 C4957 1.366 . S
C4957 C4956 1.366 . S
C4957 C4958 1.414 . S
C4957 C4960 1.499 . S
C4958 H4938 0.950 . S
C4958 C4957 1.414 . S
C4958 C4959 1.374 . S
C4959 H4939 0.950 . S
C4959 C4955 1.385 . S
C4959 C4958 1.374 . S
C4960 C4957 1.499 . S
C4960 C4961 1.373 . S
C4960 C4962 1.389 1_565 S
C4961 H4940 0.950 . S
C4961 C4960 1.373 . S
C4961 C4977 1.377 . S
C4962 C4960 1.389 1_545 S
C4962 C4963 1.524 . S
C4962 C4976 1.377 . S
C4963 C4962 1.524 . S
C4963 C4964 1.397 . S
C4963 C4968 1.363 . S
C4964 H4941 0.950 . S
C4964 C4963 1.397 . S
C4964 C4965 1.334 . S
C4965 H4942 0.950 . S
C4965 C4964 1.334 . S
C4965 C4966 1.287 . S
C4966 C4965 1.287 . S
C4966 C4967 1.524 . S
C4966 H4985 0.913 . S
C4967 H4943 0.950 . S
C4967 C4966 1.524 . S
C4967 C4968 1.415 . S
C4968 H4944 0.950 . S
C4968 C4963 1.363 . S
C4968 C4967 1.415 . S
C4969 H4945 0.951 . S
C4969 C4970 1.366 . S
C4969 C4971 1.388 . S
C4970 C4969 1.366 . S
C4970 C4974 1.405 . S
C4971 H4946 0.951 . S
C4971 C4969 1.388 . S
C4971 C4972 1.366 . S
C4972 C4971 1.366 . S
C4972 C4973 1.414 . S
C4972 C4975 1.499 . S
C4973 H4947 0.950 1_565 S
C4973 C4972 1.414 . S
C4973 C4974 1.356 . S
C4974 H4948 0.951 1_565 S
C4974 C4970 1.405 . S
C4974 C4973 1.356 . S
C4975 C4972 1.499 . S
C4975 C4976 1.373 1_565 S
C4975 C4977 1.389 . S
C4976 H4949 0.950 . S
C4976 C4962 1.377 . S
C4976 C4975 1.373 1_545 S
C4977 C4961 1.377 . S
C4977 C4975 1.389 . S
C4977 C4978 1.524 . S
C4978 C4977 1.524 . S
C4978 C4979 1.397 . S
C4978 C4983 1.363 . S
C4979 H4950 0.950 . S
C4979 C4978 1.397 . S
C4979 C4980 1.334 . S
C4980 H4951 0.950 . S
C4980 C4979 1.334 . S
C4980 C4981 1.287 . S
C4981 C4980 1.287 . S
C4981 C4982 1.524 . S
C4981 H4984 0.999 . S
C4982 H4952 0.950 . S
C4982 C4981 1.524 . S
C4982 C4983 1.415 . S
C4983 H4953 0.950 . S
C4983 C4978 1.363 . S
C4983 C4982 1.415 . S
H4984 C4981 0.999 . S
H4985 C4966 0.913 . S
H4986 C5004 0.954 1_545 S
H4987 C5006 0.951 1_545 S
H4988 C5008 0.950 . S
H4989 C5009 0.950 . S
H4990 C5011 0.950 . S
H4991 C5014 0.950 . S
H4992 C5015 0.950 . S
H4993 C5017 0.950 . S
H4994 C5018 0.950 . S
H4995 C5019 0.951 . S
H4996 C5021 0.951 . S
H4997 C5023 0.950 . S
H4998 C5024 0.950 . S
H4999 C5026 0.950 . S
H5000 C5029 0.950 . S
H5001 C5030 0.950 . S
H5002 C5032 0.950 . S
H5003 C5033 0.950 . S
C5004 H4986 0.954 1_565 S
C5004 C5005 1.366 . S
C5004 C5006 1.388 . S
C5005 C5004 1.366 . S
C5005 C5009 1.385 . S
C5006 H4987 0.951 1_565 S
C5006 C5004 1.388 . S
C5006 C5007 1.366 . S
C5007 C5006 1.366 . S
C5007 C5008 1.414 . S
C5007 C5010 1.499 . S
C5008 H4988 0.950 . S
C5008 C5007 1.414 . S
C5008 C5009 1.374 . S
C5009 H4989 0.950 . S
C5009 C5005 1.385 . S
C5009 C5008 1.374 . S
C5010 C5007 1.499 . S
C5010 C5011 1.373 . S
C5010 C5012 1.389 1_565 S
C5011 H4990 0.950 . S
C5011 C5010 1.373 . S
C5011 C5027 1.377 . S
C5012 C5010 1.389 1_545 S
C5012 C5013 1.524 . S
C5012 C5026 1.377 . S
C5013 C5012 1.524 . S
C5013 C5014 1.397 . S
C5013 C5018 1.363 . S
C5014 H4991 0.950 . S
C5014 C5013 1.397 . S
C5014 C5015 1.334 . S
C5015 H4992 0.950 . S
C5015 C5014 1.334 . S
C5015 C5016 1.287 . S
C5016 C5015 1.287 . S
C5016 C5017 1.524 . S
C5016 H5035 0.913 . S
C5017 H4993 0.950 . S
C5017 C5016 1.524 . S
C5017 C5018 1.415 . S
C5018 H4994 0.950 . S
C5018 C5013 1.363 . S
C5018 C5017 1.415 . S
C5019 H4995 0.951 . S
C5019 C5020 1.366 . S
C5019 C5021 1.388 . S
C5020 C5019 1.366 . S
C5020 C5024 1.385 1_565 S
C5021 H4996 0.951 . S
C5021 C5019 1.388 . S
C5021 C5022 1.366 . S
C5022 C5021 1.366 . S
C5022 C5023 1.414 1_565 S
C5022 C5025 1.499 . S
C5023 H4997 0.950 . S
C5023 C5022 1.414 1_545 S
C5023 C5024 1.374 . S
C5024 H4998 0.950 . S
C5024 C5020 1.385 1_545 S
C5024 C5023 1.374 . S
C5025 C5022 1.499 . S
C5025 C5026 1.373 1_565 S
C5025 C5027 1.389 . S
C5026 H4999 0.950 . S
C5026 C5012 1.377 . S
C5026 C5025 1.373 1_545 S
C5027 C5011 1.377 . S
C5027 C5025 1.389 . S
C5027 C5028 1.524 . S
C5028 C5027 1.524 . S
C5028 C5029 1.397 . S
C5028 C5033 1.363 . S
C5029 H5000 0.950 . S
C5029 C5028 1.397 . S
C5029 C5030 1.334 . S
C5030 H5001 0.950 . S
C5030 C5029 1.334 . S
C5030 C5031 1.287 . S
C5031 C5030 1.287 . S
C5031 C5032 1.524 . S
C5031 H5034 0.999 . S
C5032 H5002 0.950 . S
C5032 C5031 1.524 . S
C5032 C5033 1.415 . S
C5033 H5003 0.950 . S
C5033 C5028 1.363 . S
C5033 C5032 1.415 . S
H5034 C5031 0.999 . S
H5035 C5016 0.913 . S
H5036 C5054 0.951 . S
H5037 C5056 0.951 . S
H5038 C5058 0.950 . S
H5039 C5059 0.950 . S
H5040 C5061 0.950 . S
H5041 C5064 0.950 . S
H5042 C5065 0.950 . S
H5043 C5067 0.950 . S
H5044 C5068 0.950 1_455 S
H5045 C5069 0.951 . S
H5046 C5071 0.959 . S
H5047 C5073 0.950 . S
H5048 C5074 0.950 . S
H5049 C5076 0.915 1_655 S
H5050 C5079 0.950 . S
H5051 C5080 0.950 . S
H5052 C5082 0.950 . S
H5053 C5083 0.950 . S
C5054 H5036 0.951 . S
C5054 C5055 1.366 . S
C5054 C5056 1.388 . S
C5055 C5054 1.366 . S
C5055 C5059 1.385 . S
C5056 H5037 0.951 . S
C5056 C5054 1.388 . S
C5056 C5057 1.366 . S
C5057 C5056 1.366 . S
C5057 C5058 1.414 . S
C5057 C5060 1.499 . S
C5058 H5038 0.950 . S
C5058 C5057 1.414 . S
C5058 C5059 1.374 . S
C5059 H5039 0.950 . S
C5059 C5055 1.385 . S
C5059 C5058 1.374 . S
C5060 C5057 1.499 . S
C5060 C5061 1.373 . S
C5060 C5062 1.389 . S
C5061 H5040 0.950 . S
C5061 C5060 1.373 . S
C5061 C5077 1.377 . S
C5062 C5060 1.389 . S
C5062 C5063 1.524 1_455 S
C5062 C5076 1.343 . S
C5063 C5062 1.524 1_655 S
C5063 C5064 1.397 . S
C5063 C5068 1.363 . S
C5064 H5041 0.950 . S
C5064 C5063 1.397 . S
C5064 C5065 1.334 . S
C5065 H5042 0.950 . S
C5065 C5064 1.334 . S
C5065 C5066 1.287 . S
C5066 C5065 1.287 . S
C5066 C5067 1.524 . S
C5066 H5085 0.913 . S
C5067 H5043 0.950 . S
C5067 C5066 1.524 . S
C5067 C5068 1.415 . S
C5068 H5044 0.950 1_655 S
C5068 C5063 1.363 . S
C5068 C5067 1.415 . S
C5069 H5045 0.951 . S
C5069 C5070 1.366 1_655 S
C5069 C5071 1.377 . S
C5070 C5069 1.366 1_455 S
C5070 C5074 1.385 . S
C5071 H5046 0.959 . S
C5071 C5069 1.377 . S
C5071 C5072 1.370 1_655 S
C5072 C5071 1.370 1_455 S
C5072 C5073 1.414 . S
C5072 C5075 1.499 . S
C5073 H5047 0.950 . S
C5073 C5072 1.414 . S
C5073 C5074 1.374 . S
C5074 H5048 0.950 . S
C5074 C5070 1.385 . S
C5074 C5073 1.374 . S
C5075 C5072 1.499 . S
C5075 C5076 1.451 . S
C5075 C5077 1.389 . S
C5076 H5049 0.915 1_455 S
C5076 C5062 1.343 . S
C5076 C5075 1.451 . S
C5077 C5061 1.377 . S
C5077 C5075 1.389 . S
C5077 C5078 1.524 . S
C5078 C5077 1.524 . S
C5078 C5079 1.397 . S
C5078 C5083 1.363 . S
C5079 H5050 0.950 . S
C5079 C5078 1.397 . S
C5079 C5080 1.334 . S
C5080 H5051 0.950 . S
C5080 C5079 1.334 . S
C5080 C5081 1.287 . S
C5081 C5080 1.287 . S
C5081 C5082 1.524 . S
C5081 H5084 0.999 . S
C5082 H5052 0.950 . S
C5082 C5081 1.524 . S
C5082 C5083 1.415 . S
C5083 H5053 0.950 . S
C5083 C5078 1.363 . S
C5083 C5082 1.415 . S
H5084 C5081 0.999 . S
H5085 C5066 0.913 . S
H5086 C5104 0.951 . S
H5087 C5106 0.951 . S
H5088 C5108 0.950 . S
H5089 C5109 0.950 . S
H5090 C5111 0.950 . S
H5091 C5114 0.950 . S
H5092 C5115 0.950 . S
H5093 C5117 0.950 . S
H5094 C5118 0.950 . S
H5095 C5119 0.951 . S
H5096 C5121 0.951 . S
H5097 C5123 0.950 . S
H5098 C5124 0.950 . S
H5099 C5126 0.950 . S
H5100 C5129 0.950 . S
H5101 C5130 0.950 . S
H5102 C5132 0.950 . S
H5103 C5133 0.950 . S
C5104 H5086 0.951 . S
C5104 C5105 1.366 . S
C5104 C5106 1.388 . S
C5105 C5104 1.366 . S
C5105 C5109 1.385 . S
C5106 H5087 0.951 . S
C5106 C5104 1.388 . S
C5106 C5107 1.366 . S
C5107 C5106 1.366 . S
C5107 C5108 1.414 . S
C5107 C5110 1.499 . S
C5108 H5088 0.950 . S
C5108 C5107 1.414 . S
C5108 C5109 1.374 . S
C5109 H5089 0.950 . S
C5109 C5105 1.385 . S
C5109 C5108 1.374 . S
C5110 C5107 1.499 . S
C5110 C5111 1.373 . S
C5110 C5112 1.389 . S
C5111 H5090 0.950 . S
C5111 C5110 1.373 . S
C5111 C5127 1.377 . S
C5112 C5110 1.389 . S
C5112 C5113 1.524 . S
C5112 C5126 1.377 . S
C5113 C5112 1.524 . S
C5113 C5114 1.397 . S
C5113 C5118 1.363 . S
C5114 H5091 0.950 . S
C5114 C5113 1.397 . S
C5114 C5115 1.334 . S
C5115 H5092 0.950 . S
C5115 C5114 1.334 . S
C5115 C5116 1.287 . S
C5116 C5115 1.287 . S
C5116 C5117 1.524 . S
C5116 H5135 0.913 . S
C5117 H5093 0.950 . S
C5117 C5116 1.524 . S
C5117 C5118 1.415 . S
C5118 H5094 0.950 . S
C5118 C5113 1.363 . S
C5118 C5117 1.415 . S
C5119 H5095 0.951 . S
C5119 C5120 1.366 . S
C5119 C5121 1.388 . S
C5120 C5119 1.366 . S
C5120 C5124 1.385 . S
C5121 H5096 0.951 . S
C5121 C5119 1.388 . S
C5121 C5122 1.366 . S
C5122 C5121 1.366 . S
C5122 C5123 1.414 . S
C5122 C5125 1.499 . S
C5123 H5097 0.950 . S
C5123 C5122 1.414 . S
C5123 C5124 1.374 . S
C5124 H5098 0.950 . S
C5124 C5120 1.385 . S
C5124 C5123 1.374 . S
C5125 C5122 1.499 . S
C5125 C5126 1.373 . S
C5125 C5127 1.389 . S
C5126 H5099 0.950 . S
C5126 C5112 1.377 . S
C5126 C5125 1.373 . S
C5127 C5111 1.377 . S
C5127 C5125 1.389 . S
C5127 C5128 1.524 . S
C5128 C5127 1.524 . S
C5128 C5129 1.397 . S
C5128 C5133 1.363 . S
C5129 H5100 0.950 . S
C5129 C5128 1.397 . S
C5129 C5130 1.334 . S
C5130 H5101 0.950 . S
C5130 C5129 1.334 . S
C5130 C5131 1.287 . S
C5131 C5130 1.287 . S
C5131 C5132 1.524 . S
C5131 H5134 0.999 . S
C5132 H5102 0.950 . S
C5132 C5131 1.524 . S
C5132 C5133 1.415 . S
C5133 H5103 0.950 . S
C5133 C5128 1.363 . S
C5133 C5132 1.415 . S
H5134 C5131 0.999 . S
H5135 C5116 0.913 . S
H5136 C5154 0.951 . S
H5137 C5156 0.951 . S
H5138 C5158 0.950 . S
H5139 C5159 0.950 . S
H5140 C5161 0.950 . S
H5141 C5164 0.950 . S
H5142 C5165 0.950 . S
H5143 C5167 0.950 . S
H5144 C5168 0.950 . S
H5145 C5169 0.951 . S
H5146 C5171 0.951 . S
H5147 C5173 0.950 . S
H5148 C5174 0.950 . S
H5149 C5176 0.950 . S
H5150 C5179 0.950 . S
H5151 C5180 0.950 . S
H5152 C5182 0.950 . S
H5153 C5183 0.950 . S
C5154 H5136 0.951 . S
C5154 C5155 1.366 . S
C5154 C5156 1.388 . S
C5155 C5154 1.366 . S
C5155 C5159 1.385 . S
C5156 H5137 0.951 . S
C5156 C5154 1.388 . S
C5156 C5157 1.366 . S
C5157 C5156 1.366 . S
C5157 C5158 1.414 . S
C5157 C5160 1.499 . S
C5158 H5138 0.950 . S
C5158 C5157 1.414 . S
C5158 C5159 1.374 . S
C5159 H5139 0.950 . S
C5159 C5155 1.385 . S
C5159 C5158 1.374 . S
C5160 C5157 1.499 . S
C5160 C5161 1.373 . S
C5160 C5162 1.389 . S
C5161 H5140 0.950 . S
C5161 C5160 1.373 . S
C5161 C5177 1.377 . S
C5162 C5160 1.389 . S
C5162 C5163 1.524 . S
C5162 C5176 1.377 . S
C5163 C5162 1.524 . S
C5163 C5164 1.397 . S
C5163 C5168 1.363 . S
C5164 H5141 0.950 . S
C5164 C5163 1.397 . S
C5164 C5165 1.334 . S
C5165 H5142 0.950 . S
C5165 C5164 1.334 . S
C5165 C5166 1.287 . S
C5166 C5165 1.287 . S
C5166 C5167 1.524 . S
C5166 H5185 0.913 . S
C5167 H5143 0.950 . S
C5167 C5166 1.524 . S
C5167 C5168 1.415 . S
C5168 H5144 0.950 . S
C5168 C5163 1.363 . S
C5168 C5167 1.415 . S
C5169 H5145 0.951 . S
C5169 C5170 1.366 . S
C5169 C5171 1.388 . S
C5170 C5169 1.366 . S
C5170 C5174 1.385 . S
C5171 H5146 0.951 . S
C5171 C5169 1.388 . S
C5171 C5172 1.366 . S
C5172 C5171 1.366 . S
C5172 C5173 1.414 . S
C5172 C5175 1.499 . S
C5173 H5147 0.950 . S
C5173 C5172 1.414 . S
C5173 C5174 1.374 . S
C5174 H5148 0.950 . S
C5174 C5170 1.385 . S
C5174 C5173 1.374 . S
C5175 C5172 1.499 . S
C5175 C5176 1.373 . S
C5175 C5177 1.389 . S
C5176 H5149 0.950 . S
C5176 C5162 1.377 . S
C5176 C5175 1.373 . S
C5177 C5161 1.377 . S
C5177 C5175 1.389 . S
C5177 C5178 1.524 . S
C5178 C5177 1.524 . S
C5178 C5179 1.397 . S
C5178 C5183 1.363 . S
C5179 H5150 0.950 . S
C5179 C5178 1.397 . S
C5179 C5180 1.334 . S
C5180 H5151 0.950 . S
C5180 C5179 1.334 . S
C5180 C5181 1.287 . S
C5181 C5180 1.287 . S
C5181 C5182 1.524 . S
C5181 H5184 0.999 . S
C5182 H5152 0.950 . S
C5182 C5181 1.524 . S
C5182 C5183 1.415 . S
C5183 H5153 0.950 . S
C5183 C5178 1.363 . S
C5183 C5182 1.415 . S
H5184 C5181 0.999 . S
H5185 C5166 0.913 . S
H5186 C5204 0.951 . S
H5187 C5206 0.951 . S
H5188 C5208 0.950 . S
H5189 C5209 0.950 . S
H5190 C5211 0.950 . S
H5191 C5214 0.950 . S
H5192 C5215 0.950 . S
H5193 C5217 0.950 . S
H5194 C5218 0.950 . S
H5195 C5219 0.951 . S
H5196 C5221 0.951 . S
H5197 C5223 0.950 . S
H5198 C5224 0.950 . S
H5199 C5226 0.950 . S
H5200 C5229 0.950 . S
H5201 C5230 0.950 . S
H5202 C5232 0.950 . S
H5203 C5233 0.950 . S
C5204 H5186 0.951 . S
C5204 C5205 1.366 . S
C5204 C5206 1.388 . S
C5205 C5204 1.366 . S
C5205 C5209 1.385 . S
C5206 H5187 0.951 . S
C5206 C5204 1.388 . S
C5206 C5207 1.366 . S
C5207 C5206 1.366 . S
C5207 C5208 1.414 . S
C5207 C5210 1.499 . S
C5208 H5188 0.950 . S
C5208 C5207 1.414 . S
C5208 C5209 1.374 . S
C5209 H5189 0.950 . S
C5209 C5205 1.385 . S
C5209 C5208 1.374 . S
C5210 C5207 1.499 . S
C5210 C5211 1.373 . S
C5210 C5212 1.389 . S
C5211 H5190 0.950 . S
C5211 C5210 1.373 . S
C5211 C5227 1.377 . S
C5212 C5210 1.389 . S
C5212 C5213 1.524 . S
C5212 C5226 1.377 . S
C5213 C5212 1.524 . S
C5213 C5214 1.397 . S
C5213 C5218 1.363 . S
C5214 H5191 0.950 . S
C5214 C5213 1.397 . S
C5214 C5215 1.334 . S
C5215 H5192 0.950 . S
C5215 C5214 1.334 . S
C5215 C5216 1.287 . S
C5216 C5215 1.287 . S
C5216 C5217 1.524 . S
C5216 H5235 0.913 . S
C5217 H5193 0.950 . S
C5217 C5216 1.524 . S
C5217 C5218 1.415 . S
C5218 H5194 0.950 . S
C5218 C5213 1.363 . S
C5218 C5217 1.415 . S
C5219 H5195 0.951 . S
C5219 C5220 1.366 . S
C5219 C5221 1.388 . S
C5220 C5219 1.366 . S
C5220 C5224 1.385 . S
C5221 H5196 0.951 . S
C5221 C5219 1.388 . S
C5221 C5222 1.366 . S
C5222 C5221 1.366 . S
C5222 C5223 1.414 . S
C5222 C5225 1.499 . S
C5223 H5197 0.950 . S
C5223 C5222 1.414 . S
C5223 C5224 1.374 . S
C5224 H5198 0.950 . S
C5224 C5220 1.385 . S
C5224 C5223 1.374 . S
C5225 C5222 1.499 . S
C5225 C5226 1.373 . S
C5225 C5227 1.389 . S
C5226 H5199 0.950 . S
C5226 C5212 1.377 . S
C5226 C5225 1.373 . S
C5227 C5211 1.377 . S
C5227 C5225 1.389 . S
C5227 C5228 1.524 . S
C5228 C5227 1.524 . S
C5228 C5229 1.397 . S
C5228 C5233 1.363 . S
C5229 H5200 0.950 . S
C5229 C5228 1.397 . S
C5229 C5230 1.334 . S
C5230 H5201 0.950 . S
C5230 C5229 1.334 . S
C5230 C5231 1.287 . S
C5231 C5230 1.287 . S
C5231 C5232 1.524 . S
C5231 H5234 0.999 . S
C5232 H5202 0.950 . S
C5232 C5231 1.524 . S
C5232 C5233 1.415 . S
C5233 H5203 0.950 . S
C5233 C5228 1.363 . S
C5233 C5232 1.415 . S
H5234 C5231 0.999 . S
H5235 C5216 0.913 . S
H5236 C5254 0.951 . S
H5237 C5256 0.951 . S
H5238 C5258 0.950 . S
H5239 C5259 0.950 . S
H5240 C5261 0.950 . S
H5241 C5264 0.950 . S
H5242 C5265 0.950 . S
H5243 C5267 0.950 . S
H5244 C5268 0.950 . S
H5245 C5269 0.951 . S
H5246 C5271 0.951 . S
H5247 C5273 0.950 . S
H5248 C5274 0.950 . S
H5249 C5276 0.950 . S
H5250 C5279 0.950 . S
H5251 C5280 0.950 . S
H5252 C5282 0.950 . S
H5253 C5283 0.950 . S
C5254 H5236 0.951 . S
C5254 C5255 1.366 . S
C5254 C5256 1.388 . S
C5255 C5254 1.366 . S
C5255 C5259 1.385 . S
C5256 H5237 0.951 . S
C5256 C5254 1.388 . S
C5256 C5257 1.366 . S
C5257 C5256 1.366 . S
C5257 C5258 1.414 . S
C5257 C5260 1.499 . S
C5258 H5238 0.950 . S
C5258 C5257 1.414 . S
C5258 C5259 1.374 . S
C5259 H5239 0.950 . S
C5259 C5255 1.385 . S
C5259 C5258 1.374 . S
C5260 C5257 1.499 . S
C5260 C5261 1.373 . S
C5260 C5262 1.389 . S
C5261 H5240 0.950 . S
C5261 C5260 1.373 . S
C5261 C5277 1.377 . S
C5262 C5260 1.389 . S
C5262 C5263 1.524 . S
C5262 C5276 1.377 . S
C5263 C5262 1.524 . S
C5263 C5264 1.397 . S
C5263 C5268 1.363 . S
C5264 H5241 0.950 . S
C5264 C5263 1.397 . S
C5264 C5265 1.334 . S
C5265 H5242 0.950 . S
C5265 C5264 1.334 . S
C5265 C5266 1.287 . S
C5266 C5265 1.287 . S
C5266 C5267 1.524 . S
C5266 H5285 0.913 . S
C5267 H5243 0.950 . S
C5267 C5266 1.524 . S
C5267 C5268 1.415 . S
C5268 H5244 0.950 . S
C5268 C5263 1.363 . S
C5268 C5267 1.415 . S
C5269 H5245 0.951 . S
C5269 C5270 1.366 . S
C5269 C5271 1.388 . S
C5270 C5269 1.366 . S
C5270 C5274 1.385 . S
C5271 H5246 0.951 . S
C5271 C5269 1.388 . S
C5271 C5272 1.366 . S
C5272 C5271 1.366 . S
C5272 C5273 1.414 . S
C5272 C5275 1.499 . S
C5273 H5247 0.950 . S
C5273 C5272 1.414 . S
C5273 C5274 1.374 . S
C5274 H5248 0.950 . S
C5274 C5270 1.385 . S
C5274 C5273 1.374 . S
C5275 C5272 1.499 . S
C5275 C5276 1.373 . S
C5275 C5277 1.389 . S
C5276 H5249 0.950 . S
C5276 C5262 1.377 . S
C5276 C5275 1.373 . S
C5277 C5261 1.377 . S
C5277 C5275 1.389 . S
C5277 C5278 1.524 . S
C5278 C5277 1.524 . S
C5278 C5279 1.397 . S
C5278 C5283 1.363 . S
C5279 H5250 0.950 . S
C5279 C5278 1.397 . S
C5279 C5280 1.334 . S
C5280 H5251 0.950 . S
C5280 C5279 1.334 . S
C5280 C5281 1.287 . S
C5281 C5280 1.287 . S
C5281 C5282 1.524 . S
C5281 H5284 0.999 . S
C5282 H5252 0.950 . S
C5282 C5281 1.524 . S
C5282 C5283 1.415 . S
C5283 H5253 0.950 . S
C5283 C5278 1.363 . S
C5283 C5282 1.415 . S
H5284 C5281 0.999 . S
H5285 C5266 0.913 . S
H5286 C5304 0.951 1_565 S
H5287 C5306 0.911 1_565 S
H5288 C5308 0.950 . S
H5289 C5309 0.950 . S
H5290 C5311 0.950 . S
H5291 C5314 0.950 1_545 S
H5292 C5315 0.950 . S
H5293 C5317 0.950 . S
H5294 C5318 0.950 . S
H5295 C5319 0.951 . S
H5296 C5321 0.951 . S
H5297 C5323 0.950 . S
H5298 C5324 0.950 . S
H5299 C5326 0.950 . S
H5300 C5329 0.950 . S
H5301 C5330 0.950 . S
H5302 C5332 0.950 . S
H5303 C5333 0.950 . S
C5304 H5286 0.951 1_545 S
C5304 C5305 1.366 . S
C5304 C5306 1.406 . S
C5305 C5304 1.366 . S
C5305 C5309 1.385 . S
C5306 H5287 0.911 1_545 S
C5306 C5304 1.406 . S
C5306 C5307 1.387 . S
C5307 C5306 1.387 . S
C5307 C5308 1.414 . S
C5307 C5310 1.499 . S
C5308 H5288 0.950 . S
C5308 C5307 1.414 . S
C5308 C5309 1.374 . S
C5309 H5289 0.950 . S
C5309 C5305 1.385 . S
C5309 C5308 1.374 . S
C5310 C5307 1.499 . S
C5310 C5311 1.373 . S
C5310 C5312 1.392 1_545 S
C5311 H5290 0.950 . S
C5311 C5310 1.373 . S
C5311 C5327 1.377 . S
C5312 C5310 1.392 1_565 S
C5312 C5313 1.524 . S
C5312 C5326 1.375 . S
C5313 C5312 1.524 . S
C5313 C5314 1.397 . S
C5313 C5318 1.363 . S
C5314 H5291 0.950 1_565 S
C5314 C5313 1.397 . S
C5314 C5315 1.334 . S
C5315 H5292 0.950 . S
C5315 C5314 1.334 . S
C5315 C5316 1.287 . S
C5316 C5315 1.287 . S
C5316 C5317 1.524 . S
C5316 H5335 0.913 . S
C5317 H5293 0.950 . S
C5317 C5316 1.524 . S
C5317 C5318 1.415 . S
C5318 H5294 0.950 . S
C5318 C5313 1.363 . S
C5318 C5317 1.415 . S
C5319 H5295 0.951 . S
C5319 C5320 1.366 . S
C5319 C5321 1.388 . S
C5320 C5319 1.366 . S
C5320 C5324 1.385 1_545 S
C5321 H5296 0.951 . S
C5321 C5319 1.388 . S
C5321 C5322 1.366 . S
C5322 C5321 1.366 . S
C5322 C5323 1.414 1_545 S
C5322 C5325 1.499 . S
C5323 H5297 0.950 . S
C5323 C5322 1.414 1_565 S
C5323 C5324 1.374 . S
C5324 H5298 0.950 . S
C5324 C5320 1.385 1_565 S
C5324 C5323 1.374 . S
C5325 C5322 1.499 . S
C5325 C5326 1.373 1_545 S
C5325 C5327 1.389 . S
C5326 H5299 0.950 . S
C5326 C5312 1.375 . S
C5326 C5325 1.373 1_565 S
C5327 C5311 1.377 . S
C5327 C5325 1.389 . S
C5327 C5328 1.524 . S
C5328 C5327 1.524 . S
C5328 C5329 1.397 . S
C5328 C5333 1.363 . S
C5329 H5300 0.950 . S
C5329 C5328 1.397 . S
C5329 C5330 1.334 . S
C5330 H5301 0.950 . S
C5330 C5329 1.334 . S
C5330 C5331 1.287 . S
C5331 C5330 1.287 . S
C5331 C5332 1.524 . S
C5331 H5334 0.999 . S
C5332 H5302 0.950 . S
C5332 C5331 1.524 . S
C5332 C5333 1.415 . S
C5333 H5303 0.950 . S
C5333 C5328 1.363 . S
C5333 C5332 1.415 . S
H5334 C5331 0.999 . S
H5335 C5316 0.913 . S
H5336 C5354 0.951 . S
H5337 C5356 0.975 . S
H5338 C5358 0.950 . S
H5339 C5359 0.950 . S
H5340 C5361 0.950 . S
H5341 C5364 0.950 . S
H5342 C5365 0.950 . S
H5343 C5367 0.950 . S
H5344 C5368 0.950 . S
H5345 C5369 0.951 . S
H5346 C5371 0.951 . S
H5347 C5373 0.928 1_455 S
H5348 C5374 0.951 . S
H5349 C5376 0.950 . S
H5350 C5379 0.950 . S
H5351 C5380 0.950 . S
H5352 C5382 0.944 . S
H5353 C5383 0.950 . S
C5354 H5336 0.951 . S
C5354 C5355 1.366 . S
C5354 C5356 1.388 . S
C5355 C5354 1.366 . S
C5355 C5359 1.385 . S
C5356 H5337 0.975 . S
C5356 C5354 1.388 . S
C5356 C5357 1.366 . S
C5357 C5356 1.366 . S
C5357 C5358 1.414 . S
C5357 C5360 1.499 . S
C5358 H5338 0.950 . S
C5358 C5357 1.414 . S
C5358 C5359 1.374 . S
C5359 H5339 0.950 . S
C5359 C5355 1.385 . S
C5359 C5358 1.374 . S
C5360 C5357 1.499 . S
C5360 C5361 1.373 . S
C5360 C5362 1.389 . S
C5361 H5340 0.950 . S
C5361 C5360 1.373 . S
C5361 C5377 1.377 . S
C5362 C5360 1.389 . S
C5362 C5363 1.524 . S
C5362 C5376 1.377 . S
C5363 C5362 1.524 . S
C5363 C5364 1.397 . S
C5363 C5368 1.363 . S
C5364 H5341 0.950 . S
C5364 C5363 1.397 . S
C5364 C5365 1.334 . S
C5365 H5342 0.950 . S
C5365 C5364 1.334 . S
C5365 C5366 1.287 . S
C5366 C5365 1.287 . S
C5366 C5367 1.524 . S
C5366 H5385 0.913 . S
C5367 H5343 0.950 . S
C5367 C5366 1.524 . S
C5367 C5368 1.415 . S
C5368 H5344 0.950 . S
C5368 C5363 1.363 . S
C5368 C5367 1.415 . S
C5369 H5345 0.951 . S
C5369 C5370 1.366 . S
C5369 C5371 1.388 . S
C5370 C5369 1.366 . S
C5370 C5374 1.382 1_655 S
C5371 H5346 0.951 . S
C5371 C5369 1.388 . S
C5371 C5372 1.366 . S
C5372 C5371 1.366 . S
C5372 C5373 1.426 . S
C5372 C5375 1.499 . S
C5373 H5347 0.928 1_655 S
C5373 C5372 1.426 . S
C5373 C5374 1.386 1_655 S
C5374 H5348 0.951 . S
C5374 C5370 1.382 1_455 S
C5374 C5373 1.386 1_455 S
C5375 C5372 1.499 . S
C5375 C5376 1.373 . S
C5375 C5377 1.389 . S
C5376 H5349 0.950 . S
C5376 C5362 1.377 . S
C5376 C5375 1.373 . S
C5377 C5361 1.377 . S
C5377 C5375 1.389 . S
C5377 C5378 1.524 1_655 S
C5378 C5377 1.524 1_455 S
C5378 C5379 1.397 . S
C5378 C5383 1.363 1_455 S
C5379 H5350 0.950 . S
C5379 C5378 1.397 . S
C5379 C5380 1.334 . S
C5380 H5351 0.950 . S
C5380 C5379 1.334 . S
C5380 C5381 1.287 . S
C5381 C5380 1.287 . S
C5381 C5382 1.524 . S
C5381 H5384 0.999 . S
C5382 H5352 0.944 . S
C5382 C5381 1.524 . S
C5382 C5383 1.415 1_455 S
C5383 H5353 0.950 . S
C5383 C5378 1.363 1_655 S
C5383 C5382 1.415 1_655 S
H5384 C5381 0.999 . S
H5385 C5366 0.913 . S
H5386 C5404 0.951 . S
H5387 C5406 0.951 . S
H5388 C5408 0.950 . S
H5389 C5409 0.950 . S
H5390 C5411 0.950 . S
H5391 C5414 0.950 . S
H5392 C5415 0.950 . S
H5393 C5417 0.950 . S
H5394 C5418 0.950 . S
H5395 C5419 0.951 . S
H5396 C5421 0.951 . S
H5397 C5423 0.950 . S
H5398 C5424 0.950 . S
H5399 C5426 0.950 . S
H5400 C5429 0.950 . S
H5401 C5430 0.950 . S
H5402 C5432 0.950 . S
H5403 C5433 0.950 . S
C5404 H5386 0.951 . S
C5404 C5405 1.366 . S
C5404 C5406 1.388 . S
C5405 C5404 1.366 . S
C5405 C5409 1.385 . S
C5406 H5387 0.951 . S
C5406 C5404 1.388 . S
C5406 C5407 1.366 . S
C5407 C5406 1.366 . S
C5407 C5408 1.414 . S
C5407 C5410 1.499 . S
C5408 H5388 0.950 . S
C5408 C5407 1.414 . S
C5408 C5409 1.374 . S
C5409 H5389 0.950 . S
C5409 C5405 1.385 . S
C5409 C5408 1.374 . S
C5410 C5407 1.499 . S
C5410 C5411 1.373 . S
C5410 C5412 1.389 . S
C5411 H5390 0.950 . S
C5411 C5410 1.373 . S
C5411 C5427 1.377 . S
C5412 C5410 1.389 . S
C5412 C5413 1.524 . S
C5412 C5426 1.377 . S
C5413 C5412 1.524 . S
C5413 C5414 1.397 . S
C5413 C5418 1.363 . S
C5414 H5391 0.950 . S
C5414 C5413 1.397 . S
C5414 C5415 1.334 . S
C5415 H5392 0.950 . S
C5415 C5414 1.334 . S
C5415 C5416 1.287 . S
C5416 C5415 1.287 . S
C5416 C5417 1.524 . S
C5416 H5435 0.913 . S
C5417 H5393 0.950 . S
C5417 C5416 1.524 . S
C5417 C5418 1.415 . S
C5418 H5394 0.950 . S
C5418 C5413 1.363 . S
C5418 C5417 1.415 . S
C5419 H5395 0.951 . S
C5419 C5420 1.366 . S
C5419 C5421 1.388 . S
C5420 C5419 1.366 . S
C5420 C5424 1.385 . S
C5421 H5396 0.951 . S
C5421 C5419 1.388 . S
C5421 C5422 1.366 . S
C5422 C5421 1.366 . S
C5422 C5423 1.414 . S
C5422 C5425 1.499 . S
C5423 H5397 0.950 . S
C5423 C5422 1.414 . S
C5423 C5424 1.374 . S
C5424 H5398 0.950 . S
C5424 C5420 1.385 . S
C5424 C5423 1.374 . S
C5425 C5422 1.499 . S
C5425 C5426 1.373 . S
C5425 C5427 1.389 . S
C5426 H5399 0.950 . S
C5426 C5412 1.377 . S
C5426 C5425 1.373 . S
C5427 C5411 1.377 . S
C5427 C5425 1.389 . S
C5427 C5428 1.524 . S
C5428 C5427 1.524 . S
C5428 C5429 1.397 . S
C5428 C5433 1.363 . S
C5429 H5400 0.950 . S
C5429 C5428 1.397 . S
C5429 C5430 1.334 . S
C5430 H5401 0.950 . S
C5430 C5429 1.334 . S
C5430 C5431 1.287 . S
C5431 C5430 1.287 . S
C5431 C5432 1.524 . S
C5431 H5434 0.999 . S
C5432 H5402 0.950 . S
C5432 C5431 1.524 . S
C5432 C5433 1.415 . S
C5433 H5403 0.950 . S
C5433 C5428 1.363 . S
C5433 C5432 1.415 . S
H5434 C5431 0.999 . S
H5435 C5416 0.913 . S
H5436 C5454 0.951 . S
H5437 C5456 0.951 . S
H5438 C5458 0.950 . S
H5439 C5459 0.950 . S
H5440 C5461 0.950 . S
H5441 C5464 0.950 . S
H5442 C5465 0.950 . S
H5443 C5467 0.950 . S
H5444 C5468 0.950 . S
H5445 C5469 0.951 . S
H5446 C5471 0.951 . S
H5447 C5473 0.950 . S
H5448 C5474 0.950 . S
H5449 C5476 0.950 . S
H5450 C5479 0.950 . S
H5451 C5480 0.950 . S
H5452 C5482 0.950 . S
H5453 C5483 0.950 . S
C5454 H5436 0.951 . S
C5454 C5455 1.366 . S
C5454 C5456 1.388 . S
C5455 C5454 1.366 . S
C5455 C5459 1.385 . S
C5456 H5437 0.951 . S
C5456 C5454 1.388 . S
C5456 C5457 1.366 . S
C5457 C5456 1.366 . S
C5457 C5458 1.414 . S
C5457 C5460 1.499 . S
C5458 H5438 0.950 . S
C5458 C5457 1.414 . S
C5458 C5459 1.374 . S
C5459 H5439 0.950 . S
C5459 C5455 1.385 . S
C5459 C5458 1.374 . S
C5460 C5457 1.499 . S
C5460 C5461 1.373 . S
C5460 C5462 1.389 . S
C5461 H5440 0.950 . S
C5461 C5460 1.373 . S
C5461 C5477 1.377 . S
C5462 C5460 1.389 . S
C5462 C5463 1.524 . S
C5462 C5476 1.377 . S
C5463 C5462 1.524 . S
C5463 C5464 1.397 . S
C5463 C5468 1.363 . S
C5464 H5441 0.950 . S
C5464 C5463 1.397 . S
C5464 C5465 1.334 . S
C5465 H5442 0.950 . S
C5465 C5464 1.334 . S
C5465 C5466 1.287 . S
C5466 C5465 1.287 . S
C5466 C5467 1.524 . S
C5466 H5485 0.913 . S
C5467 H5443 0.950 . S
C5467 C5466 1.524 . S
C5467 C5468 1.415 . S
C5468 H5444 0.950 . S
C5468 C5463 1.363 . S
C5468 C5467 1.415 . S
C5469 H5445 0.951 . S
C5469 C5470 1.366 . S
C5469 C5471 1.388 . S
C5470 C5469 1.366 . S
C5470 C5474 1.385 . S
C5471 H5446 0.951 . S
C5471 C5469 1.388 . S
C5471 C5472 1.366 . S
C5472 C5471 1.366 . S
C5472 C5473 1.414 . S
C5472 C5475 1.499 . S
C5473 H5447 0.950 . S
C5473 C5472 1.414 . S
C5473 C5474 1.374 . S
C5474 H5448 0.950 . S
C5474 C5470 1.385 . S
C5474 C5473 1.374 . S
C5475 C5472 1.499 . S
C5475 C5476 1.373 . S
C5475 C5477 1.389 . S
C5476 H5449 0.950 . S
C5476 C5462 1.377 . S
C5476 C5475 1.373 . S
C5477 C5461 1.377 . S
C5477 C5475 1.389 . S
C5477 C5478 1.524 . S
C5478 C5477 1.524 . S
C5478 C5479 1.397 . S
C5478 C5483 1.363 . S
C5479 H5450 0.950 . S
C5479 C5478 1.397 . S
C5479 C5480 1.334 . S
C5480 H5451 0.950 . S
C5480 C5479 1.334 . S
C5480 C5481 1.287 . S
C5481 C5480 1.287 . S
C5481 C5482 1.524 . S
C5481 H5484 0.999 . S
C5482 H5452 0.950 . S
C5482 C5481 1.524 . S
C5482 C5483 1.415 . S
C5483 H5453 0.950 . S
C5483 C5478 1.363 . S
C5483 C5482 1.415 . S
H5484 C5481 0.999 . S
H5485 C5466 0.913 . S
H5486 C5504 0.951 . S
H5487 C5506 0.951 . S
H5488 C5508 0.950 . S
H5489 C5509 0.950 . S
H5490 C5511 0.950 . S
H5491 C5514 0.950 . S
H5492 C5515 0.950 . S
H5493 C5517 0.950 . S
H5494 C5518 0.950 . S
H5495 C5519 0.951 . S
H5496 C5521 0.951 . S
H5497 C5523 0.950 . S
H5498 C5524 0.950 . S
H5499 C5526 0.950 . S
H5500 C5529 0.950 . S
H5501 C5530 0.950 . S
H5502 C5532 0.950 . S
H5503 C5533 0.950 . S
C5504 H5486 0.951 . S
C5504 C5505 1.366 . S
C5504 C5506 1.388 . S
C5505 C5504 1.366 . S
C5505 C5509 1.385 . S
C5506 H5487 0.951 . S
C5506 C5504 1.388 . S
C5506 C5507 1.366 . S
C5507 C5506 1.366 . S
C5507 C5508 1.414 . S
C5507 C5510 1.499 . S
C5508 H5488 0.950 . S
C5508 C5507 1.414 . S
C5508 C5509 1.374 . S
C5509 H5489 0.950 . S
C5509 C5505 1.385 . S
C5509 C5508 1.374 . S
C5510 C5507 1.499 . S
C5510 C5511 1.373 . S
C5510 C5512 1.389 . S
C5511 H5490 0.950 . S
C5511 C5510 1.373 . S
C5511 C5527 1.377 . S
C5512 C5510 1.389 . S
C5512 C5513 1.524 . S
C5512 C5526 1.377 . S
C5513 C5512 1.524 . S
C5513 C5514 1.397 . S
C5513 C5518 1.363 . S
C5514 H5491 0.950 . S
C5514 C5513 1.397 . S
C5514 C5515 1.334 . S
C5515 H5492 0.950 . S
C5515 C5514 1.334 . S
C5515 C5516 1.287 . S
C5516 C5515 1.287 . S
C5516 C5517 1.524 . S
C5516 H5535 0.913 . S
C5517 H5493 0.950 . S
C5517 C5516 1.524 . S
C5517 C5518 1.415 . S
C5518 H5494 0.950 . S
C5518 C5513 1.363 . S
C5518 C5517 1.415 . S
C5519 H5495 0.951 . S
C5519 C5520 1.366 . S
C5519 C5521 1.388 . S
C5520 C5519 1.366 . S
C5520 C5524 1.385 . S
C5521 H5496 0.951 . S
C5521 C5519 1.388 . S
C5521 C5522 1.366 . S
C5522 C5521 1.366 . S
C5522 C5523 1.414 . S
C5522 C5525 1.499 . S
C5523 H5497 0.950 . S
C5523 C5522 1.414 . S
C5523 C5524 1.374 . S
C5524 H5498 0.950 . S
C5524 C5520 1.385 . S
C5524 C5523 1.374 . S
C5525 C5522 1.499 . S
C5525 C5526 1.373 . S
C5525 C5527 1.389 . S
C5526 H5499 0.950 . S
C5526 C5512 1.377 . S
C5526 C5525 1.373 . S
C5527 C5511 1.377 . S
C5527 C5525 1.389 . S
C5527 C5528 1.524 . S
C5528 C5527 1.524 . S
C5528 C5529 1.397 . S
C5528 C5533 1.363 . S
C5529 H5500 0.950 . S
C5529 C5528 1.397 . S
C5529 C5530 1.334 . S
C5530 H5501 0.950 . S
C5530 C5529 1.334 . S
C5530 C5531 1.287 . S
C5531 C5530 1.287 . S
C5531 C5532 1.524 . S
C5531 H5534 0.999 . S
C5532 H5502 0.950 . S
C5532 C5531 1.524 . S
C5532 C5533 1.415 . S
C5533 H5503 0.950 . S
C5533 C5528 1.363 . S
C5533 C5532 1.415 . S
H5534 C5531 0.999 . S
H5535 C5516 0.913 . S
H5536 C5554 0.951 . S
H5537 C5556 0.951 . S
H5538 C5558 0.950 . S
H5539 C5559 0.950 . S
H5540 C5561 0.950 . S
H5541 C5564 0.950 . S
H5542 C5565 0.950 . S
H5543 C5567 0.950 . S
H5544 C5568 0.950 . S
H5545 C5569 0.951 . S
H5546 C5571 0.951 . S
H5547 C5573 0.950 . S
H5548 C5574 0.950 . S
H5549 C5576 0.950 . S
H5550 C5579 0.950 . S
H5551 C5580 0.950 . S
H5552 C5582 0.950 . S
H5553 C5583 0.950 . S
C5554 H5536 0.951 . S
C5554 C5555 1.366 . S
C5554 C5556 1.388 . S
C5555 C5554 1.366 . S
C5555 C5559 1.385 . S
C5556 H5537 0.951 . S
C5556 C5554 1.388 . S
C5556 C5557 1.366 . S
C5557 C5556 1.366 . S
C5557 C5558 1.414 . S
C5557 C5560 1.499 . S
C5558 H5538 0.950 . S
C5558 C5557 1.414 . S
C5558 C5559 1.374 . S
C5559 H5539 0.950 . S
C5559 C5555 1.385 . S
C5559 C5558 1.374 . S
C5560 C5557 1.499 . S
C5560 C5561 1.373 . S
C5560 C5562 1.389 . S
C5561 H5540 0.950 . S
C5561 C5560 1.373 . S
C5561 C5577 1.377 . S
C5562 C5560 1.389 . S
C5562 C5563 1.524 . S
C5562 C5576 1.377 . S
C5563 C5562 1.524 . S
C5563 C5564 1.397 . S
C5563 C5568 1.363 . S
C5564 H5541 0.950 . S
C5564 C5563 1.397 . S
C5564 C5565 1.334 . S
C5565 H5542 0.950 . S
C5565 C5564 1.334 . S
C5565 C5566 1.287 . S
C5566 C5565 1.287 . S
C5566 C5567 1.524 . S
C5566 H5585 0.913 . S
C5567 H5543 0.950 . S
C5567 C5566 1.524 . S
C5567 C5568 1.415 . S
C5568 H5544 0.950 . S
C5568 C5563 1.363 . S
C5568 C5567 1.415 . S
C5569 H5545 0.951 . S
C5569 C5570 1.366 . S
C5569 C5571 1.388 . S
C5570 C5569 1.366 . S
C5570 C5574 1.385 . S
C5571 H5546 0.951 . S
C5571 C5569 1.388 . S
C5571 C5572 1.366 . S
C5572 C5571 1.366 . S
C5572 C5573 1.414 . S
C5572 C5575 1.499 . S
C5573 H5547 0.950 . S
C5573 C5572 1.414 . S
C5573 C5574 1.374 . S
C5574 H5548 0.950 . S
C5574 C5570 1.385 . S
C5574 C5573 1.374 . S
C5575 C5572 1.499 . S
C5575 C5576 1.373 . S
C5575 C5577 1.389 . S
C5576 H5549 0.950 . S
C5576 C5562 1.377 . S
C5576 C5575 1.373 . S
C5577 C5561 1.377 . S
C5577 C5575 1.389 . S
C5577 C5578 1.524 . S
C5578 C5577 1.524 . S
C5578 C5579 1.397 . S
C5578 C5583 1.363 . S
C5579 H5550 0.950 . S
C5579 C5578 1.397 . S
C5579 C5580 1.334 . S
C5580 H5551 0.950 . S
C5580 C5579 1.334 . S
C5580 C5581 1.287 . S
C5581 C5580 1.287 . S
C5581 C5582 1.524 . S
C5581 H5584 0.999 . S
C5582 H5552 0.950 . S
C5582 C5581 1.524 . S
C5582 C5583 1.415 . S
C5583 H5553 0.950 . S
C5583 C5578 1.363 . S
C5583 C5582 1.415 . S
H5584 C5581 0.999 . S
H5585 C5566 0.913 . S
H5586 C5604 0.951 . S
H5587 C5606 0.951 . S
H5588 C5608 0.950 . S
H5589 C5609 0.950 . S
H5590 C5611 0.950 . S
H5591 C5614 0.950 . S
H5592 C5615 0.950 . S
H5593 C5617 0.950 . S
H5594 C5618 0.950 . S
H5595 C5619 0.951 . S
H5596 C5621 0.951 . S
H5597 C5623 0.950 . S
H5598 C5624 0.950 . S
H5599 C5626 0.950 . S
H5600 C5629 0.950 . S
H5601 C5630 0.950 . S
H5602 C5632 0.950 . S
H5603 C5633 0.950 . S
C5604 H5586 0.951 . S
C5604 C5605 1.366 . S
C5604 C5606 1.388 . S
C5605 C5604 1.366 . S
C5605 C5609 1.385 . S
C5606 H5587 0.951 . S
C5606 C5604 1.388 . S
C5606 C5607 1.366 . S
C5607 C5606 1.366 . S
C5607 C5608 1.414 . S
C5607 C5610 1.499 . S
C5608 H5588 0.950 . S
C5608 C5607 1.414 . S
C5608 C5609 1.374 . S
C5609 H5589 0.950 . S
C5609 C5605 1.385 . S
C5609 C5608 1.374 . S
C5610 C5607 1.499 . S
C5610 C5611 1.373 . S
C5610 C5612 1.389 . S
C5611 H5590 0.950 . S
C5611 C5610 1.373 . S
C5611 C5627 1.377 . S
C5612 C5610 1.389 . S
C5612 C5613 1.524 . S
C5612 C5626 1.377 . S
C5613 C5612 1.524 . S
C5613 C5614 1.397 . S
C5613 C5618 1.363 . S
C5614 H5591 0.950 . S
C5614 C5613 1.397 . S
C5614 C5615 1.334 . S
C5615 H5592 0.950 . S
C5615 C5614 1.334 . S
C5615 C5616 1.287 . S
C5616 C5615 1.287 . S
C5616 C5617 1.524 . S
C5616 H5635 0.913 . S
C5617 H5593 0.950 . S
C5617 C5616 1.524 . S
C5617 C5618 1.415 . S
C5618 H5594 0.950 . S
C5618 C5613 1.363 . S
C5618 C5617 1.415 . S
C5619 H5595 0.951 . S
C5619 C5620 1.366 . S
C5619 C5621 1.388 . S
C5620 C5619 1.366 . S
C5620 C5624 1.385 . S
C5621 H5596 0.951 . S
C5621 C5619 1.388 . S
C5621 C5622 1.366 . S
C5622 C5621 1.366 . S
C5622 C5623 1.414 . S
C5622 C5625 1.499 . S
C5623 H5597 0.950 . S
C5623 C5622 1.414 . S
C5623 C5624 1.374 . S
C5624 H5598 0.950 . S
C5624 C5620 1.385 . S
C5624 C5623 1.374 . S
C5625 C5622 1.499 . S
C5625 C5626 1.373 . S
C5625 C5627 1.389 . S
C5626 H5599 0.950 . S
C5626 C5612 1.377 . S
C5626 C5625 1.373 . S
C5627 C5611 1.377 . S
C5627 C5625 1.389 . S
C5627 C5628 1.524 . S
C5628 C5627 1.524 . S
C5628 C5629 1.397 . S
C5628 C5633 1.363 . S
C5629 H5600 0.950 . S
C5629 C5628 1.397 . S
C5629 C5630 1.334 . S
C5630 H5601 0.950 . S
C5630 C5629 1.334 . S
C5630 C5631 1.287 . S
C5631 C5630 1.287 . S
C5631 C5632 1.524 . S
C5631 H5634 0.999 . S
C5632 H5602 0.950 . S
C5632 C5631 1.524 . S
C5632 C5633 1.415 . S
C5633 H5603 0.950 . S
C5633 C5628 1.363 . S
C5633 C5632 1.415 . S
H5634 C5631 0.999 . S
H5635 C5616 0.913 . S
H5636 C5654 0.951 . S
H5637 C5656 0.951 . S
H5638 C5658 0.950 . S
H5639 C5659 0.950 . S
H5640 C5661 0.950 . S
H5641 C5664 0.950 . S
H5642 C5665 0.950 . S
H5643 C5667 0.950 . S
H5644 C5668 0.950 . S
H5645 C5669 0.951 . S
H5646 C5671 0.951 . S
H5647 C5673 0.950 . S
H5648 C5674 0.950 . S
H5649 C5676 0.950 . S
H5650 C5679 0.950 . S
H5651 C5680 0.950 . S
H5652 C5682 0.950 . S
H5653 C5683 0.950 . S
C5654 H5636 0.951 . S
C5654 C5655 1.366 . S
C5654 C5656 1.388 . S
C5655 C5654 1.366 . S
C5655 C5659 1.385 . S
C5656 H5637 0.951 . S
C5656 C5654 1.388 . S
C5656 C5657 1.366 . S
C5657 C5656 1.366 . S
C5657 C5658 1.414 . S
C5657 C5660 1.499 . S
C5658 H5638 0.950 . S
C5658 C5657 1.414 . S
C5658 C5659 1.374 . S
C5659 H5639 0.950 . S
C5659 C5655 1.385 . S
C5659 C5658 1.374 . S
C5660 C5657 1.499 . S
C5660 C5661 1.373 . S
C5660 C5662 1.389 . S
C5661 H5640 0.950 . S
C5661 C5660 1.373 . S
C5661 C5677 1.377 . S
C5662 C5660 1.389 . S
C5662 C5663 1.524 . S
C5662 C5676 1.377 . S
C5663 C5662 1.524 . S
C5663 C5664 1.397 . S
C5663 C5668 1.363 . S
C5664 H5641 0.950 . S
C5664 C5663 1.397 . S
C5664 C5665 1.334 . S
C5665 H5642 0.950 . S
C5665 C5664 1.334 . S
C5665 C5666 1.287 . S
C5666 C5665 1.287 . S
C5666 C5667 1.524 . S
C5666 H5685 0.913 . S
C5667 H5643 0.950 . S
C5667 C5666 1.524 . S
C5667 C5668 1.415 . S
C5668 H5644 0.950 . S
C5668 C5663 1.363 . S
C5668 C5667 1.415 . S
C5669 H5645 0.951 . S
C5669 C5670 1.366 . S
C5669 C5671 1.388 . S
C5670 C5669 1.366 . S
C5670 C5674 1.385 . S
C5671 H5646 0.951 . S
C5671 C5669 1.388 . S
C5671 C5672 1.366 . S
C5672 C5671 1.366 . S
C5672 C5673 1.414 . S
C5672 C5675 1.499 . S
C5673 H5647 0.950 . S
C5673 C5672 1.414 . S
C5673 C5674 1.374 . S
C5674 H5648 0.950 . S
C5674 C5670 1.385 . S
C5674 C5673 1.374 . S
C5675 C5672 1.499 . S
C5675 C5676 1.373 . S
C5675 C5677 1.389 . S
C5676 H5649 0.950 . S
C5676 C5662 1.377 . S
C5676 C5675 1.373 . S
C5677 C5661 1.377 . S
C5677 C5675 1.389 . S
C5677 C5678 1.524 . S
C5678 C5677 1.524 . S
C5678 C5679 1.397 . S
C5678 C5683 1.363 . S
C5679 H5650 0.950 . S
C5679 C5678 1.397 . S
C5679 C5680 1.334 . S
C5680 H5651 0.950 . S
C5680 C5679 1.334 . S
C5680 C5681 1.287 . S
C5681 C5680 1.287 . S
C5681 C5682 1.524 . S
C5681 H5684 0.999 . S
C5682 H5652 0.950 . S
C5682 C5681 1.524 . S
C5682 C5683 1.415 . S
C5683 H5653 0.950 . S
C5683 C5678 1.363 . S
C5683 C5682 1.415 . S
H5684 C5681 0.999 . S
H5685 C5666 0.913 . S
H5686 C5704 0.951 . S
H5687 C5706 0.951 . S
H5688 C5708 0.950 . S
H5689 C5709 0.950 . S
H5690 C5711 0.950 . S
H5691 C5714 0.950 . S
H5692 C5715 0.950 . S
H5693 C5717 0.950 . S
H5694 C5718 0.950 . S
H5695 C5719 0.951 . S
H5696 C5721 0.951 . S
H5697 C5723 0.950 . S
H5698 C5724 0.950 . S
H5699 C5726 0.950 . S
H5700 C5729 0.950 . S
H5701 C5730 0.950 . S
H5702 C5732 0.950 . S
H5703 C5733 0.950 . S
C5704 H5686 0.951 . S
C5704 C5705 1.366 . S
C5704 C5706 1.388 . S
C5705 C5704 1.366 . S
C5705 C5709 1.385 . S
C5706 H5687 0.951 . S
C5706 C5704 1.388 . S
C5706 C5707 1.366 . S
C5707 C5706 1.366 . S
C5707 C5708 1.414 . S
C5707 C5710 1.499 . S
C5708 H5688 0.950 . S
C5708 C5707 1.414 . S
C5708 C5709 1.374 . S
C5709 H5689 0.950 . S
C5709 C5705 1.385 . S
C5709 C5708 1.374 . S
C5710 C5707 1.499 . S
C5710 C5711 1.373 . S
C5710 C5712 1.389 . S
C5711 H5690 0.950 . S
C5711 C5710 1.373 . S
C5711 C5727 1.377 . S
C5712 C5710 1.389 . S
C5712 C5713 1.524 . S
C5712 C5726 1.377 . S
C5713 C5712 1.524 . S
C5713 C5714 1.397 . S
C5713 C5718 1.363 . S
C5714 H5691 0.950 . S
C5714 C5713 1.397 . S
C5714 C5715 1.334 . S
C5715 H5692 0.950 . S
C5715 C5714 1.334 . S
C5715 C5716 1.287 . S
C5716 C5715 1.287 . S
C5716 C5717 1.524 . S
C5716 H5735 0.913 . S
C5717 H5693 0.950 . S
C5717 C5716 1.524 . S
C5717 C5718 1.415 . S
C5718 H5694 0.950 . S
C5718 C5713 1.363 . S
C5718 C5717 1.415 . S
C5719 H5695 0.951 . S
C5719 C5720 1.366 . S
C5719 C5721 1.388 . S
C5720 C5719 1.366 . S
C5720 C5724 1.385 . S
C5721 H5696 0.951 . S
C5721 C5719 1.388 . S
C5721 C5722 1.366 . S
C5722 C5721 1.366 . S
C5722 C5723 1.414 . S
C5722 C5725 1.499 . S
C5723 H5697 0.950 . S
C5723 C5722 1.414 . S
C5723 C5724 1.374 . S
C5724 H5698 0.950 . S
C5724 C5720 1.385 . S
C5724 C5723 1.374 . S
C5725 C5722 1.499 . S
C5725 C5726 1.373 . S
C5725 C5727 1.389 . S
C5726 H5699 0.950 . S
C5726 C5712 1.377 . S
C5726 C5725 1.373 . S
C5727 C5711 1.377 . S
C5727 C5725 1.389 . S
C5727 C5728 1.524 . S
C5728 C5727 1.524 . S
C5728 C5729 1.397 . S
C5728 C5733 1.363 . S
C5729 H5700 0.950 . S
C5729 C5728 1.397 . S
C5729 C5730 1.334 . S
C5730 H5701 0.950 . S
C5730 C5729 1.334 . S
C5730 C5731 1.287 . S
C5731 C5730 1.287 . S
C5731 C5732 1.524 . S
C5731 H5734 0.999 . S
C5732 H5702 0.950 . S
C5732 C5731 1.524 . S
C5732 C5733 1.415 . S
C5733 H5703 0.950 . S
C5733 C5728 1.363 . S
C5733 C5732 1.415 . S
H5734 C5731 0.999 . S
H5735 C5716 0.913 . S
H5736 C5754 0.951 . S
H5737 C5756 0.951 . S
H5738 C5758 0.950 . S
H5739 C5759 0.950 . S
H5740 C5761 0.950 . S
H5741 C5764 0.950 . S
H5742 C5765 0.950 . S
H5743 C5767 0.950 . S
H5744 C5768 0.950 . S
H5745 C5769 0.951 . S
H5746 C5771 0.951 . S
H5747 C5773 0.950 . S
H5748 C5774 0.941 1_455 S
H5749 C5776 0.950 . S
H5750 C5779 0.950 . S
H5751 C5780 0.950 . S
H5752 C5782 0.950 . S
H5753 C5783 0.950 . S
C5754 H5736 0.951 . S
C5754 C5755 1.366 . S
C5754 C5756 1.388 . S
C5755 C5754 1.366 . S
C5755 C5759 1.385 . S
C5756 H5737 0.951 . S
C5756 C5754 1.388 . S
C5756 C5757 1.366 . S
C5757 C5756 1.366 . S
C5757 C5758 1.414 . S
C5757 C5760 1.499 . S
C5758 H5738 0.950 . S
C5758 C5757 1.414 . S
C5758 C5759 1.374 . S
C5759 H5739 0.950 . S
C5759 C5755 1.385 . S
C5759 C5758 1.374 . S
C5760 C5757 1.499 . S
C5760 C5761 1.373 . S
C5760 C5762 1.389 1_655 S
C5761 H5740 0.950 . S
C5761 C5760 1.373 . S
C5761 C5777 1.377 . S
C5762 C5760 1.389 1_455 S
C5762 C5763 1.524 . S
C5762 C5776 1.377 . S
C5763 C5762 1.524 . S
C5763 C5764 1.397 . S
C5763 C5768 1.363 . S
C5764 H5741 0.950 . S
C5764 C5763 1.397 . S
C5764 C5765 1.334 . S
C5765 H5742 0.950 . S
C5765 C5764 1.334 . S
C5765 C5766 1.287 . S
C5766 C5765 1.287 . S
C5766 C5767 1.524 . S
C5766 H5785 0.913 . S
C5767 H5743 0.950 . S
C5767 C5766 1.524 . S
C5767 C5768 1.415 . S
C5768 H5744 0.950 . S
C5768 C5763 1.363 . S
C5768 C5767 1.415 . S
C5769 H5745 0.951 . S
C5769 C5770 1.366 . S
C5769 C5771 1.388 . S
C5770 C5769 1.366 . S
C5770 C5774 1.354 . S
C5771 H5746 0.951 . S
C5771 C5769 1.388 . S
C5771 C5772 1.366 . S
C5772 C5771 1.366 . S
C5772 C5773 1.414 . S
C5772 C5775 1.499 . S
C5773 H5747 0.950 . S
C5773 C5772 1.414 . S
C5773 C5774 1.423 . S
C5774 H5748 0.941 1_655 S
C5774 C5770 1.354 . S
C5774 C5773 1.423 . S
C5775 C5772 1.499 . S
C5775 C5776 1.373 1_655 S
C5775 C5777 1.389 . S
C5776 H5749 0.950 . S
C5776 C5762 1.377 . S
C5776 C5775 1.373 1_455 S
C5777 C5761 1.377 . S
C5777 C5775 1.389 . S
C5777 C5778 1.524 . S
C5778 C5777 1.524 . S
C5778 C5779 1.397 . S
C5778 C5783 1.363 . S
C5779 H5750 0.950 . S
C5779 C5778 1.397 . S
C5779 C5780 1.334 . S
C5780 H5751 0.950 . S
C5780 C5779 1.334 . S
C5780 C5781 1.287 . S
C5781 C5780 1.287 . S
C5781 C5782 1.524 . S
C5781 H5784 0.999 . S
C5782 H5752 0.950 . S
C5782 C5781 1.524 . S
C5782 C5783 1.415 . S
C5783 H5753 0.950 . S
C5783 C5778 1.363 . S
C5783 C5782 1.415 . S
H5784 C5781 0.999 . S
H5785 C5766 0.913 . S
H5786 C5804 0.951 . S
H5787 C5806 0.951 . S
H5788 C5808 0.950 . S
H5789 C5809 0.950 . S
H5790 C5811 0.950 . S
H5791 C5814 0.950 . S
H5792 C5815 0.950 . S
H5793 C5817 0.950 . S
H5794 C5818 0.950 . S
H5795 C5819 0.951 . S
H5796 C5821 0.951 . S
H5797 C5823 0.950 . S
H5798 C5824 0.950 . S
H5799 C5826 0.950 . S
H5800 C5829 0.950 . S
H5801 C5830 0.950 . S
H5802 C5832 0.950 . S
H5803 C5833 0.950 . S
C5804 H5786 0.951 . S
C5804 C5805 1.366 . S
C5804 C5806 1.388 . S
C5805 C5804 1.366 . S
C5805 C5809 1.385 . S
C5806 H5787 0.951 . S
C5806 C5804 1.388 . S
C5806 C5807 1.366 . S
C5807 C5806 1.366 . S
C5807 C5808 1.414 . S
C5807 C5810 1.499 . S
C5808 H5788 0.950 . S
C5808 C5807 1.414 . S
C5808 C5809 1.374 . S
C5809 H5789 0.950 . S
C5809 C5805 1.385 . S
C5809 C5808 1.374 . S
C5810 C5807 1.499 . S
C5810 C5811 1.373 . S
C5810 C5812 1.389 . S
C5811 H5790 0.950 . S
C5811 C5810 1.373 . S
C5811 C5827 1.377 . S
C5812 C5810 1.389 . S
C5812 C5813 1.524 . S
C5812 C5826 1.377 . S
C5813 C5812 1.524 . S
C5813 C5814 1.397 . S
C5813 C5818 1.363 . S
C5814 H5791 0.950 . S
C5814 C5813 1.397 . S
C5814 C5815 1.334 . S
C5815 H5792 0.950 . S
C5815 C5814 1.334 . S
C5815 C5816 1.287 . S
C5816 C5815 1.287 . S
C5816 C5817 1.524 . S
C5816 H5835 0.913 . S
C5817 H5793 0.950 . S
C5817 C5816 1.524 . S
C5817 C5818 1.415 . S
C5818 H5794 0.950 . S
C5818 C5813 1.363 . S
C5818 C5817 1.415 . S
C5819 H5795 0.951 . S
C5819 C5820 1.366 . S
C5819 C5821 1.388 . S
C5820 C5819 1.366 . S
C5820 C5824 1.385 . S
C5821 H5796 0.951 . S
C5821 C5819 1.388 . S
C5821 C5822 1.366 . S
C5822 C5821 1.366 . S
C5822 C5823 1.414 . S
C5822 C5825 1.499 . S
C5823 H5797 0.950 . S
C5823 C5822 1.414 . S
C5823 C5824 1.374 . S
C5824 H5798 0.950 . S
C5824 C5820 1.385 . S
C5824 C5823 1.374 . S
C5825 C5822 1.499 . S
C5825 C5826 1.373 . S
C5825 C5827 1.389 . S
C5826 H5799 0.950 . S
C5826 C5812 1.377 . S
C5826 C5825 1.373 . S
C5827 C5811 1.377 . S
C5827 C5825 1.389 . S
C5827 C5828 1.524 . S
C5828 C5827 1.524 . S
C5828 C5829 1.397 . S
C5828 C5833 1.363 . S
C5829 H5800 0.950 . S
C5829 C5828 1.397 . S
C5829 C5830 1.334 . S
C5830 H5801 0.950 . S
C5830 C5829 1.334 . S
C5830 C5831 1.287 . S
C5831 C5830 1.287 . S
C5831 C5832 1.524 . S
C5831 H5834 0.999 . S
C5832 H5802 0.950 . S
C5832 C5831 1.524 . S
C5832 C5833 1.415 . S
C5833 H5803 0.950 . S
C5833 C5828 1.363 . S
C5833 C5832 1.415 . S
H5834 C5831 0.999 . S
H5835 C5816 0.913 . S
H5836 C5854 0.951 . S
H5837 C5856 0.951 . S
H5838 C5858 0.950 1_565 S
H5839 C5859 0.950 . S
H5840 C5861 0.950 . S
H5841 C5864 0.950 . S
H5842 C5865 0.950 . S
H5843 C5867 0.950 . S
H5844 C5868 0.950 . S
H5845 C5869 0.951 . S
H5846 C5871 0.951 . S
H5847 C5873 0.950 . S
H5848 C5874 0.950 . S
H5849 C5876 0.950 . S
H5850 C5879 0.950 . S
H5851 C5880 0.950 . S
H5852 C5882 0.950 . S
H5853 C5883 1.002 . S
C5854 H5836 0.951 . S
C5854 C5855 1.366 . S
C5854 C5856 1.388 . S
C5855 C5854 1.366 . S
C5855 C5859 1.385 . S
C5856 H5837 0.951 . S
C5856 C5854 1.388 . S
C5856 C5857 1.366 . S
C5857 C5856 1.366 . S
C5857 C5858 1.414 . S
C5857 C5860 1.499 . S
C5858 H5838 0.950 1_545 S
C5858 C5857 1.414 . S
C5858 C5859 1.374 . S
C5859 H5839 0.950 . S
C5859 C5855 1.385 . S
C5859 C5858 1.374 . S
C5860 C5857 1.499 . S
C5860 C5861 1.373 . S
C5860 C5862 1.389 . S
C5861 H5840 0.950 . S
C5861 C5860 1.373 . S
C5861 C5877 1.377 . S
C5862 C5860 1.389 . S
C5862 C5863 1.524 . S
C5862 C5876 1.377 . S
C5863 C5862 1.524 . S
C5863 C5864 1.397 1_545 S
C5863 C5868 1.363 . S
C5864 H5841 0.950 . S
C5864 C5863 1.397 1_565 S
C5864 C5865 1.334 . S
C5865 H5842 0.950 . S
C5865 C5864 1.334 . S
C5865 C5866 1.287 . S
C5866 C5865 1.287 . S
C5866 C5867 1.524 1_565 S
C5866 H5885 0.913 . S
C5867 H5843 0.950 . S
C5867 C5866 1.524 1_545 S
C5867 C5868 1.415 . S
C5868 H5844 0.950 . S
C5868 C5863 1.363 . S
C5868 C5867 1.415 . S
C5869 H5845 0.951 . S
C5869 C5870 1.366 1_565 S
C5869 C5871 1.388 . S
C5870 C5869 1.366 1_545 S
C5870 C5874 1.385 . S
C5871 H5846 0.951 . S
C5871 C5869 1.388 . S
C5871 C5872 1.366 1_565 S
C5872 C5871 1.366 1_545 S
C5872 C5873 1.414 . S
C5872 C5875 1.499 . S
C5873 H5847 0.950 . S
C5873 C5872 1.414 . S
C5873 C5874 1.374 . S
C5874 H5848 0.950 . S
C5874 C5870 1.385 . S
C5874 C5873 1.374 . S
C5875 C5872 1.499 . S
C5875 C5876 1.373 . S
C5875 C5877 1.389 . S
C5876 H5849 0.950 . S
C5876 C5862 1.377 . S
C5876 C5875 1.373 . S
C5877 C5861 1.377 . S
C5877 C5875 1.389 . S
C5877 C5878 1.524 . S
C5878 C5877 1.524 . S
C5878 C5879 1.397 . S
C5878 C5883 1.363 . S
C5879 H5850 0.950 . S
C5879 C5878 1.397 . S
C5879 C5880 1.334 . S
C5880 H5851 0.950 . S
C5880 C5879 1.334 . S
C5880 C5881 1.287 . S
C5881 C5880 1.287 . S
C5881 C5882 1.524 . S
C5881 H5884 0.999 . S
C5882 H5852 0.950 . S
C5882 C5881 1.524 . S
C5882 C5883 1.415 . S
C5883 H5853 1.002 . S
C5883 C5878 1.363 . S
C5883 C5882 1.415 . S
H5884 C5881 0.999 . S
H5885 C5866 0.913 . S
C2305 C10 1.345 1_655 S
C2320 C1289 1.151 . S
C2355 C23 1.686 . S
C2370 C1429 1.165 . S
C2420 C1517 1.205 . S
C2405 C29 1.452 . S
C2455 C30 1.546 . S
C2470 C1657 1.140 1_565 S
C2505 C5 1.492 . S
C2520 C1771 1.132 . S
C2555 C18 1.692 . S
C2570 C1859 1.324 . S
C2605 C49 1.358 . S
C2620 C1745 1.136 . S
C2670 C1885 1.337 . S
C2655 C62 1.616 . S
C2720 C1631 1.231 . S
C2705 C70 1.448 . S
C2755 C75 1.517 . S
C2770 C1543 1.162 . S
C2820 C1315 1.156 . S
C2805 C44 1.492 . S
C2855 C57 1.619 . S
C2870 C1403 1.444 . S
C2905 C88 1.711 . S
C2920 C1973 1.327 . S
C2955 C101 1.778 . S
C2970 C2113 1.238 . S
C3020 C2201 1.333 . S
C3005 C107 1.702 . S
C3055 C108 1.759 . S
C3070 C289 1.223 . S
C3105 C83 1.763 . S
C3120 C403 1.223 . S
C3155 C96 1.740 . S
C3170 C491 1.363 . S
C3205 C127 1.514 . S
C3220 C377 1.345 . S
C3255 C140 1.667 . S
C3270 C517 1.397 . S
C3320 C263 1.456 . S
C3305 C146 1.634 . S
C3370 C2227 1.522 . S
C3355 C147 1.810 . S
C3420 C1999 1.408 . S
C3405 C122 1.684 . S
C3470 C2087 1.541 . S
C3455 C135 1.712 . S
C3505 C160 1.593 . S
C3520 C605 1.229 . S
C3555 C173 1.738 . S
C3570 C745 1.200 . S
C3605 C185 1.706 . S
C3620 C833 1.339 . S
C3655 C186 1.876 . S
C3670 C973 1.320 . S
C3720 C1087 1.217 . S
C3705 C159 1.761 . S
C3770 C1175 1.403 . S
C3755 C172 1.786 . S
C3820 C1061 1.459 . S
C3805 C205 1.640 . S
C3870 C1201 1.431 . S
C3855 C218 1.706 . S
C3905 C224 1.624 . S
C3920 C947 1.451 . S
C3970 C859 1.412 . S
C3955 C225 1.685 . S
C4005 C200 1.693 . S
C4020 C631 1.411 . S
C4070 C719 1.500 . S
C4055 C213 1.667 . S
C4120 C245 0.992 . S
C4105 C4 1.730 . S
C4155 C17 1.526 . S
C4170 C359 0.871 . S
C4220 C463 1.185 . S
C4205 C31 1.595 . S
C4270 C577 1.144 . S
C4255 C36 1.525 . S
C4320 C701 0.958 . S
C4305 C3 1.669 . S
C4370 C805 1.140 . S
C4355 C16 1.537 . S
C4405 C43 1.805 . S
C4420 C815 1.285 . S
C4455 C56 1.593 . S
C4470 C587 1.133 . S
C4505 C68 1.661 . S
C4520 C691 1.402 . S
C4555 C69 1.606 . S
C4570 C349 1.372 . S
C4620 C473 1.244 . S
C4605 C42 1.729 . S
C4655 C55 1.605 . S
C4670 C235 1.352 . S
C4720 C929 0.979 . S
C4705 C82 1.688 . S
C4755 C95 1.682 . S
C4770 C1043 0.985 . S
C4805 C109 1.631 1_655 S
C4820 C1147 1.252 . S
C4870 C1261 1.039 . S
C4855 C114 1.286 . S
C4905 C81 1.632 . S
C4920 C1385 0.948 . S
C4955 C94 1.404 . S
C4970 C1489 1.118 . S
C5005 C121 1.523 . S
C5020 C1499 0.968 1_565 S
C5055 C134 1.415 . S
C5070 C1271 0.927 1_455 S
C5120 C1375 1.375 . S
C5105 C148 1.638 . S
C5155 C153 1.562 . S
C5170 C1033 1.330 . S
C5205 C120 1.782 . S
C5220 C1157 1.286 . S
C5270 C919 1.479 . S
C5255 C133 1.753 . S
C5320 C1613 0.952 . S
C5305 C166 1.515 . S
C5355 C179 1.397 . S
C5370 C1727 0.897 . S
C5405 C187 1.569 . S
C5420 C1831 1.172 . S
C5470 C1945 1.123 . S
C5455 C192 1.484 . S
C5520 C2069 1.020 . S
C5505 C161 1.722 . S
C5555 C174 1.687 . S
C5570 C2173 1.267 . S
C5605 C199 1.760 . S
C5620 C2183 1.245 . S
C5655 C212 1.812 . S
C5670 C1955 1.248 . S
C5720 C2059 1.455 . S
C5705 C226 1.718 . S
C5770 C1717 1.061 1_655 S
C5755 C231 1.291 . S
C5820 C1841 1.208 . S
C5805 C198 1.700 . S
C5855 C211 1.422 . S
C5870 C1603 1.147 1_545 S
