# Generated by pormake.
# Topology zzz, (3,6)-cn, num edge types: 1
# Building blocks:
#     Node 0, Type 0, BuildingBlock: ESEHIV_clean_linker_0, # of connection points: 3
#     Node 1, Type 0, BuildingBlock: ESEHIV_clean_linker_0, # of connection points: 3
#     Node 2, Type 0, BuildingBlock: ESEHIV_clean_linker_0, # of connection points: 3
#     Node 3, Type 0, BuildingBlock: ESEHIV_clean_linker_0, # of connection points: 3
#     Node 4, Type 0, BuildingBlock: ESEHIV_clean_linker_0, # of connection points: 3
#     Node 5, Type 0, BuildingBlock: ESEHIV_clean_linker_0, # of connection points: 3
#     Node 6, Type 0, BuildingBlock: ESEHIV_clean_linker_0, # of connection points: 3
#     Node 7, Type 0, BuildingBlock: ESEHIV_clean_linker_0, # of connection points: 3
#     Node 8, Type 1, BuildingBlock: CUKXOW_clean_sbu_0, # of connection points: 6
#     Node 9, Type 1, BuildingBlock: CUKXOW_clean_sbu_0, # of connection points: 6
#     Node 10, Type 1, BuildingBlock: CUKXOW_clean_sbu_0, # of connection points: 6
#     Node 11, Type 1, BuildingBlock: CUKXOW_clean_sbu_0, # of connection points: 6
#     Edge 12, Type (0, 1), BuildingBlock: XIVTED_clean_linker_0, # of connection points: 2
#     Edge 13, Type (0, 1), BuildingBlock: XIVTED_clean_linker_0, # of connection points: 2
#     Edge 14, Type (0, 1), BuildingBlock: XIVTED_clean_linker_0, # of connection points: 2
#     Edge 15, Type (0, 1), BuildingBlock: XIVTED_clean_linker_0, # of connection points: 2
#     Edge 16, Type (0, 1), BuildingBlock: XIVTED_clean_linker_0, # of connection points: 2
#     Edge 17, Type (0, 1), BuildingBlock: XIVTED_clean_linker_0, # of connection points: 2
#     Edge 18, Type (0, 1), BuildingBlock: XIVTED_clean_linker_0, # of connection points: 2
#     Edge 19, Type (0, 1), BuildingBlock: XIVTED_clean_linker_0, # of connection points: 2
#     Edge 20, Type (0, 1), BuildingBlock: XIVTED_clean_linker_0, # of connection points: 2
#     Edge 21, Type (0, 1), BuildingBlock: XIVTED_clean_linker_0, # of connection points: 2
#     Edge 22, Type (0, 1), BuildingBlock: XIVTED_clean_linker_0, # of connection points: 2
#     Edge 23, Type (0, 1), BuildingBlock: XIVTED_clean_linker_0, # of connection points: 2
#     Edge 24, Type (0, 1), BuildingBlock: XIVTED_clean_linker_0, # of connection points: 2
#     Edge 25, Type (0, 1), BuildingBlock: XIVTED_clean_linker_0, # of connection points: 2
#     Edge 26, Type (0, 1), BuildingBlock: XIVTED_clean_linker_0, # of connection points: 2
#     Edge 27, Type (0, 1), BuildingBlock: XIVTED_clean_linker_0, # of connection points: 2
#     Edge 28, Type (0, 1), BuildingBlock: XIVTED_clean_linker_0, # of connection points: 2
#     Edge 29, Type (0, 1), BuildingBlock: XIVTED_clean_linker_0, # of connection points: 2
#     Edge 30, Type (0, 1), BuildingBlock: XIVTED_clean_linker_0, # of connection points: 2
#     Edge 31, Type (0, 1), BuildingBlock: XIVTED_clean_linker_0, # of connection points: 2
#     Edge 32, Type (0, 1), BuildingBlock: XIVTED_clean_linker_0, # of connection points: 2
#     Edge 33, Type (0, 1), BuildingBlock: XIVTED_clean_linker_0, # of connection points: 2
#     Edge 34, Type (0, 1), BuildingBlock: XIVTED_clean_linker_0, # of connection points: 2
#     Edge 35, Type (0, 1), BuildingBlock: XIVTED_clean_linker_0, # of connection points: 2
# Relax obj value: 0.210
# Max RMSD: 0.227
# Mean RMSD: 0.184
data_MOF--net-zzz--node1-CUKXOW_clean_sbu_0--node2-ESEHIV_clean_linker_0--edge1-XIVTED_clean_linker_0
_symmetry_space_group_name_H-M    P1
_symmetry_Int_Tables_number       1
_symmetry_cell_setting            triclinic
loop_
_symmetry_equiv_pos_as_xyz
'x, y, z'
_cell_length_a     44.880794
_cell_length_b     44.500359
_cell_length_c     16.085543
_cell_angle_alpha  93.063435
_cell_angle_beta   88.29316
_cell_angle_gamma 95.647227
loop_
_atom_site_label
_atom_site_type_symbol
_atom_site_fract_x
_atom_site_fract_y
_atom_site_fract_z
_atom_type_partial_charge
H0 H 0.8038 0.42207 0.16776 0.0
H1 H 0.74985 0.43854 0.96368 0.0
H2 H 0.71284 0.44266 0.21448 0.0
C3 C 0.782 0.42564 0.14469 0.0
C4 C 0.75843 0.43077 0.20124 0.0
C5 C 0.77908 0.429 0.05972 0.0
C6 C 0.75173 0.43566 0.02979 0.0
C7 C 0.7273 0.43984 0.08466 0.0
C8 C 0.73084 0.4377 0.17106 0.0
H9 H 0.90962 0.81659 0.1359 0.0
H10 H 0.92487 0.75005 0.93968 0.0
H11 H 0.90568 0.72311 0.19073 0.0
C12 C 0.90962 0.79314 0.11364 0.0
C13 C 0.90526 0.77059 0.17143 0.0
C14 C 0.91725 0.78617 0.03018 0.0
C15 C 0.91874 0.75576 0.00387 0.0
C16 C 0.91426 0.7328 0.06117 0.0
C17 C 0.90799 0.74043 0.14544 0.0
H18 H 0.69791 0.05532 0.20763 0.0
H19 H 0.76061 0.03847 0.00875 0.0
H20 H 0.78332 0.02581 0.2626 0.0
C21 C 0.72007 0.04985 0.18699 0.0
C22 C 0.73995 0.04149 0.24524 0.0
C23 C 0.72719 0.04842 0.10191 0.0
C24 C 0.75506 0.03958 0.07486 0.0
C25 C 0.77576 0.03206 0.13244 0.0
C26 C 0.76802 0.03273 0.21803 0.0
H27 H 0.62554 0.69149 0.19735 0.0
H28 H 0.62114 0.78521 0.27399 0.0
H29 H 0.59954 0.75259 0.02392 0.0
C30 C 0.62359 0.71465 0.1818 0.0
C31 C 0.61281 0.71965 0.1039 0.0
C32 C 0.62697 0.73807 0.24385 0.0
C33 C 0.62081 0.76743 0.22519 0.0
C34 C 0.61153 0.77285 0.14484 0.0
C35 C 0.60853 0.74896 0.08407 0.0
H36 H 0.19362 0.55511 0.1976 0.0
H37 H 0.24644 0.55639 0.41472 0.0
H38 H 0.28942 0.56365 0.1707 0.0
C39 C 0.21546 0.55721 0.2258 0.0
C40 C 0.24119 0.55972 0.17476 0.0
C41 C 0.21728 0.55582 0.31182 0.0
C42 C 0.2454 0.55847 0.3481 0.0
C43 C 0.27192 0.56173 0.29842 0.0
C44 C 0.26956 0.56189 0.21071 0.0
H45 H 0.10841 0.1851 0.24978 0.0
H46 H 0.09049 0.25132 0.4441 0.0
H47 H 0.10792 0.27808 0.1924 0.0
C48 C 0.10749 0.20852 0.27121 0.0
C49 C 0.11084 0.23091 0.21263 0.0
C50 C 0.09957 0.21543 0.35447 0.0
C51 C 0.09681 0.24567 0.38001 0.0
C52 C 0.10005 0.26842 0.32211 0.0
C53 C 0.10659 0.26087 0.23797 0.0
H54 H 0.3286 0.95706 0.1881 0.0
H55 H 0.2646 0.97247 0.38482 0.0
H56 H 0.24161 0.98176 0.12932 0.0
C57 C 0.30612 0.96174 0.208 0.0
C58 C 0.28591 0.96859 0.14874 0.0
C59 C 0.29875 0.96343 0.2929 0.0
C60 C 0.27036 0.97114 0.31884 0.0
C61 C 0.24932 0.97709 0.26025 0.0
C62 C 0.25725 0.97611 0.17473 0.0
H63 H 0.39362 0.31997 0.30445 0.0
H64 H 0.41541 0.24451 0.14293 0.0
H65 H 0.41874 0.24011 0.40868 0.0
C66 C 0.39855 0.2966 0.29604 0.0
C67 C 0.40597 0.28164 0.36554 0.0
C68 C 0.40355 0.28432 0.21512 0.0
C69 C 0.41056 0.25416 0.20454 0.0
C70 C 0.41421 0.23757 0.27508 0.0
C71 C 0.41235 0.25162 0.3551 0.0
Tb72 Tb 0.9931 0.97447 0.63849 0.0
C73 C 0.05915 0.99493 0.58492 0.0
Tb74 Tb 0.02798 0.02548 0.74572 0.0
O75 O 0.99468 0.00383 0.53314 0.0
O76 O 0.9947 0.02188 0.65505 0.0
O77 O 0.03727 0.97253 0.5803 0.0
C78 C 0.05724 0.07764 0.79894 0.0
O79 O 0.05853 0.01858 0.63905 0.0
C80 C 0.02377 0.97129 0.80432 0.0
C81 C 0.96213 0.00471 0.80003 0.0
O82 O 0.0662 0.05106 0.8068 0.0
O83 O 0.03169 0.07472 0.76241 0.0
O84 O 0.0267 0.99611 0.85117 0.0
O85 O 0.02626 0.97808 0.7294 0.0
O86 O 0.98394 0.02716 0.80438 0.0
O87 O 0.96275 0.98107 0.74589 0.0
C88 C 0.96197 0.92362 0.5834 0.0
O89 O 0.9539 0.95067 0.57829 0.0
O90 O 0.98781 0.92524 0.61831 0.0
C91 C 0.99726 0.02861 0.5801 0.0
Tb92 Tb 0.50447 0.03419 0.65322 0.0
C93 C 0.56727 0.00989 0.61172 0.0
Tb94 Tb 0.52153 0.97677 0.74066 0.0
O95 O 0.53882 0.06433 0.71799 0.0
O96 O 0.52185 0.02378 0.76765 0.0
O97 O 0.54626 0.02639 0.58763 0.0
C98 C 0.54359 0.93888 0.83997 0.0
O99 O 0.56301 0.99038 0.67163 0.0
C100 C 0.48404 0.96546 0.61858 0.0
C101 C 0.45874 0.00147 0.78284 0.0
O102 O 0.5422 0.93527 0.75943 0.0
O103 O 0.53243 0.96373 0.86491 0.0
O104 O 0.48747 0.94647 0.67529 0.0
O105 O 0.50422 0.9872 0.62647 0.0
O106 O 0.47954 0.98449 0.80604 0.0
O107 O 0.46316 0.02124 0.72351 0.0
C108 C 0.48397 0.07196 0.55077 0.0
O109 O 0.49268 0.04572 0.52838 0.0
O110 O 0.48657 0.07688 0.63072 0.0
C111 C 0.54212 0.04546 0.77508 0.0
Tb112 Tb 0.5252 0.52603 0.62766 0.0
C113 C 0.45438 0.53048 0.61081 0.0
Tb114 Tb 0.47951 0.49234 0.74964 0.0
O115 O 0.53067 0.48337 0.55379 0.0
O116 O 0.49175 0.49024 0.62309 0.0
O117 O 0.48235 0.54004 0.5875 0.0
C118 C 0.44779 0.44616 0.81964 0.0
O119 O 0.44794 0.51016 0.66833 0.0
C120 C 0.49976 0.5475 0.79652 0.0
C121 C 0.55031 0.48814 0.76679 0.0
O122 O 0.44736 0.47446 0.84401 0.0
O123 O 0.46621 0.44397 0.75654 0.0
O124 O 0.47442 0.53447 0.82445 0.0
O125 O 0.51313 0.52823 0.75462 0.0
O126 O 0.52244 0.47667 0.78562 0.0
O127 O 0.55609 0.51 0.7135 0.0
C128 C 0.55532 0.57535 0.5692 0.0
O129 O 0.5618 0.54777 0.55129 0.0
O130 O 0.53164 0.5748 0.61738 0.0
C131 C 0.5051 0.47081 0.58211 0.0
Tb132 Tb 0.96898 0.48986 0.64818 0.0
C133 C 0.0214 0.45042 0.59846 0.0
Tb134 Tb 0.02861 0.50151 0.74551 0.0
O135 O 0.99149 0.50518 0.53362 0.0
O136 O 0.00748 0.52127 0.64926 0.0
O137 O 0.99192 0.45179 0.59784 0.0
C138 C 0.0853 0.51424 0.79315 0.0
O139 O 0.03972 0.4695 0.64418 0.0
C140 C 0.98402 0.46984 0.81944 0.0
C141 C 0.9769 0.54197 0.79254 0.0
O142 O 0.06927 0.48856 0.80091 0.0
O143 O 0.0693 0.53283 0.75933 0.0
O144 O 0.00491 0.48647 0.85947 0.0
O145 O 0.99043 0.46984 0.743 0.0
O146 O 0.00627 0.54014 0.79334 0.0
O147 O 0.95826 0.52277 0.74806 0.0
C148 C 0.91234 0.47691 0.60066 0.0
O149 O 0.92853 0.50239 0.59135 0.0
O150 O 0.9281 0.45858 0.63665 0.0
C151 C 0.01323 0.52108 0.5722 0.0
H152 H 0.23668 0.02281 0.3701 0.0
H153 H 0.06959 0.95199 0.46055 0.0
H154 H 0.19461 0.94767 0.22247 0.0
H155 H 0.10839 0.03618 0.5756 0.0
H156 H 0.11393 0.9508 0.36845 0.0
H157 H 0.18858 0.0296 0.44007 0.0
C158 C 0.21706 0.00809 0.35156 0.0
C159 C 0.21945 0.98464 0.29077 0.0
C160 C 0.1126 0.96961 0.41354 0.0
C161 C 0.16447 0.9917 0.37179 0.0
C162 C 0.08735 0.97024 0.46647 0.0
C163 C 0.08535 0.99402 0.52683 0.0
C164 C 0.1361 0.99282 0.42132 0.0
C165 C 0.10898 0.01718 0.53085 0.0
C166 C 0.18963 0.01186 0.3916 0.0
C167 C 0.19351 0.9661 0.26885 0.0
N168 N 0.13338 0.01587 0.47935 0.0
N169 N 0.16709 0.96973 0.31026 0.0
H170 H 0.38329 0.18165 0.27186 0.0
H171 H 0.49274 0.13288 0.56896 0.0
H172 H 0.47232 0.22759 0.27551 0.0
H173 H 0.45533 0.06051 0.40305 0.0
H174 H 0.47891 0.16955 0.47212 0.0
H175 H 0.40315 0.13636 0.32169 0.0
C176 C 0.40721 0.18159 0.27908 0.0
C177 C 0.42636 0.20804 0.26904 0.0
C178 C 0.47394 0.14561 0.4568 0.0
C179 C 0.44863 0.15758 0.3296 0.0
C180 C 0.4815 0.1248 0.51218 0.0
C181 C 0.47505 0.09384 0.49353 0.0
C182 C 0.45901 0.13536 0.38377 0.0
C183 C 0.46065 0.08434 0.41901 0.0
C184 C 0.41844 0.15598 0.30813 0.0
C185 C 0.45703 0.20738 0.28171 0.0
N186 N 0.45252 0.10514 0.36707 0.0
N187 N 0.46713 0.18284 0.31394 0.0
H188 H 0.28805 0.58864 0.45053 0.0
H189 H 0.4548 0.54357 0.44671 0.0
H190 H 0.32377 0.53784 0.2404 0.0
H191 H 0.39733 0.53798 0.66622 0.0
H192 H 0.412 0.55495 0.36602 0.0
H193 H 0.33361 0.58385 0.52574 0.0
C194 C 0.3054 0.57653 0.41984 0.0
C195 C 0.30152 0.56297 0.33929 0.0
C196 C 0.40895 0.55147 0.43199 0.0
C197 C 0.3543 0.55853 0.42469 0.0
C198 C 0.43329 0.54519 0.47814 0.0
C199 C 0.4295 0.53982 0.56323 0.0
C200 C 0.38091 0.55319 0.47182 0.0
C201 C 0.40112 0.54185 0.60071 0.0
C202 C 0.33146 0.574 0.46289 0.0
C203 C 0.32555 0.5487 0.30207 0.0
N204 N 0.37791 0.54857 0.55485 0.0
N205 N 0.3509 0.54676 0.34521 0.0
H206 H 0.12509 0.30429 0.44892 0.0
H207 H 0.99519 0.41274 0.47483 0.0
H208 H 0.05885 0.30168 0.25941 0.0
H209 H 0.07815 0.43352 0.60467 0.0
H210 H 0.01741 0.37157 0.39595 0.0
H211 H 0.10811 0.35175 0.50754 0.0
C212 C 0.10728 0.31408 0.41901 0.0
C213 C 0.09332 0.29926 0.34944 0.0
C214 C 0.03078 0.38536 0.44121 0.0
C215 C 0.07331 0.35295 0.41685 0.0
C216 C 0.01807 0.40873 0.48661 0.0
C217 C 0.03471 0.4264 0.54711 0.0
C218 C 0.06017 0.37941 0.45733 0.0
C219 C 0.06438 0.42039 0.55905 0.0
C220 C 0.09758 0.34109 0.45235 0.0
C221 C 0.07027 0.31265 0.31284 0.0
N222 N 0.07603 0.3972 0.51526 0.0
N223 N 0.06064 0.33858 0.34777 0.0
H224 H 0.83168 0.05667 0.17646 0.0
H225 H 0.91221 0.96421 0.80807 0.0
H226 H 0.786 0.98781 0.01491 0.0
H227 H 0.95278 0.04702 0.92659 0.0
H228 H 0.86872 0.96695 0.90158 0.0
H229 H 0.87928 0.04728 0.10468 0.0
C230 C 0.83185 0.03914 0.1271 0.0
C231 C 0.80503 0.02311 0.10092 0.0
C232 C 0.88718 0.98447 0.90731 0.0
C233 C 0.85893 0.01245 0.01849 0.0
C234 C 0.91205 0.98298 0.85378 0.0
C235 C 0.93608 0.00568 0.85849 0.0
C236 C 0.88627 0.00876 0.96642 0.0
C237 C 0.93465 0.0292 0.91991 0.0
C238 C 0.85887 0.03397 0.08576 0.0
C239 C 0.80625 0.00081 0.03629 0.0
N240 N 0.91008 0.03022 0.97123 0.0
N241 N 0.83272 0.99626 -0.00305 0.0
H242 H 0.55587 0.7793 0.09444 0.0
H243 H 0.56593 0.95004 -0.00366 0.0
H244 H 0.64014 0.83075 0.14914 0.0
H245 H 0.5464 0.87894 0.8074 0.0
H246 H 0.58286 0.91241 0.08759 0.0
H247 H 0.53955 0.82282 0.02836 0.0
C248 C 0.57065 0.80009 0.09423 0.0
C249 C 0.59959 0.80141 0.12566 0.0
C250 C 0.57494 0.90532 0.02599 0.0
C251 C 0.58087 0.8511 0.05134 0.0
C252 C 0.56523 0.92655 0.97432 0.0
C253 C 0.55478 0.91735 0.89467 0.0
C254 C 0.57311 0.87485 -0.00186 0.0
C255 C 0.55438 0.88685 0.86836 0.0
C256 C 0.56135 0.82473 0.05641 0.0
C257 C 0.61774 0.82894 0.12501 0.0
N258 N 0.563 0.86656 0.92052 0.0
N259 N 0.60819 0.85286 0.08718 0.0
H260 H 0.66905 0.41566 0.11191 0.0
H261 H 0.60942 0.50785 0.74695 0.0
H262 H 0.72209 0.48417 0.97772 0.0
H263 H 0.54955 0.44935 0.89609 0.0
H264 H 0.65081 0.49735 0.83053 0.0
H265 H 0.62458 0.42681 0.03697 0.0
C266 C 0.67122 0.4333 0.06764 0.0
C267 C 0.69932 0.44876 0.05012 0.0
C268 C 0.62868 0.48673 0.84535 0.0
C269 C 0.64898 0.4613 0.96382 0.0
C270 C 0.6049 0.49263 0.79714 0.0
C271 C 0.57578 0.47955 0.81437 0.0
C272 C 0.62362 0.46746 0.91171 0.0
C273 C 0.57161 0.45994 0.88042 0.0
C274 C 0.64595 0.4395 0.02454 0.0
C275 C 0.70097 0.47132 0.99206 0.0
N276 N 0.59529 0.45449 0.92682 0.0
N277 N 0.6763 0.47671 0.95079 0.0
H278 H 0.95027 0.69547 0.13043 0.0
H279 H 0.92209 0.56297 0.77807 0.0
H280 H 0.88999 0.69934 0.92826 0.0
H281 H 0.00314 0.57792 0.91883 0.0
H282 H 0.90331 0.60678 0.85313 0.0
H283 H 0.96281 0.64589 0.07381 0.0
C284 C 0.93929 0.68558 0.07497 0.0
C285 C 0.91918 0.70143 0.0336 0.0
C286 C 0.92512 0.60031 0.86781 0.0
C287 C 0.93344 0.64508 0.96863 0.0
C288 C 0.93584 0.57528 0.82524 0.0
C289 C 0.9644 0.56701 0.84153 0.0
C290 C 0.94291 0.61691 0.92781 0.0
C291 C 0.98117 0.58375 0.9035 0.0
C292 C 0.94661 0.65748 0.04243 0.0
C293 C 0.9058 0.68786 0.96147 0.0
N294 N 0.97019 0.60797 0.94433 0.0
N295 N 0.91322 0.66045 0.93107 0.0
H296 H 0.12434 0.16195 0.36857 0.0
H297 H 0.99061 0.08524 0.64632 0.0
H298 H 0.05135 0.21132 0.46366 0.0
H299 H 0.03821 0.03696 0.4536 0.0
H300 H 0.01928 0.13263 0.60717 0.0
H301 H 0.10036 0.11666 0.4317 0.0
C302 C 0.10355 0.16343 0.40384 0.0
C303 C 0.08956 0.19037 0.40935 0.0
C304 C 0.02336 0.11161 0.57363 0.0
C305 C 0.06226 0.13876 0.48208 0.0
C306 C 0.00705 0.08473 0.59567 0.0
C307 C 0.01216 0.0574 0.55291 0.0
C308 C 0.04513 0.11085 0.50927 0.0
C309 C 0.03351 0.05769 0.48761 0.0
C310 C 0.08988 0.13758 0.43958 0.0
C311 C 0.063 0.19113 0.45772 0.0
N312 N 0.04942 0.08401 0.46813 0.0
N313 N 0.05001 0.16557 0.49155 0.0
H314 H 0.31664 0.00302 0.42048 0.0
H315 H 0.45287 0.91502 0.55229 0.0
H316 H 0.33483 0.91764 0.29976 0.0
H317 H 0.4523 0.01172 0.57603 0.0
H318 H 0.40507 0.91182 0.48001 0.0
H319 H 0.36139 0.00227 0.50353 0.0
C320 C 0.32971 0.98379 0.41299 0.0
C321 C 0.32222 0.96038 0.35338 0.0
C322 C 0.4157 0.93376 0.5005 0.0
C323 C 0.37339 0.95957 0.44676 0.0
C324 C 0.44293 0.93563 0.54125 0.0
C325 C 0.45702 0.96386 0.56814 0.0
C326 C 0.40221 0.9603 0.4889 0.0
C327 C 0.44302 0.98976 0.55379 0.0
C328 C 0.35537 0.98354 0.45951 0.0
C329 C 0.34007 0.93616 0.34502 0.0
N330 N 0.41629 0.98739 0.51569 0.0
N331 N 0.36498 0.93639 0.39109 0.0
H332 H 0.37667 0.32268 0.46179 0.0
H333 H 0.53254 0.41966 0.53431 0.0
H334 H 0.4616 0.2855 0.42831 0.0
H335 H 0.44633 0.45182 0.59146 0.0
H336 H 0.50754 0.36819 0.51155 0.0
H337 H 0.40179 0.36705 0.5354 0.0
C338 C 0.40041 0.32335 0.47311 0.0
C339 C 0.41713 0.30065 0.43828 0.0
C340 C 0.49419 0.38653 0.52998 0.0
C341 C 0.44633 0.35182 0.51831 0.0
C342 C 0.50843 0.41584 0.54189 0.0
C343 C 0.49142 0.43983 0.56446 0.0
C344 C 0.46282 0.38154 0.54007 0.0
C345 C 0.46028 0.43386 0.57423 0.0
C346 C 0.41489 0.34885 0.51398 0.0
C347 C 0.44789 0.30259 0.45418 0.0
N348 N 0.44701 0.40539 0.56175 0.0
N349 N 0.46169 0.32818 0.49101 0.0
H350 H 0.19785 0.58597 0.45398 0.0
H351 H 0.03555 0.49431 0.43215 0.0
H352 H 0.17339 0.51075 0.28119 0.0
H353 H 0.05896 0.56173 0.62789 0.0
H354 H 0.08647 0.50139 0.37584 0.0
H355 H 0.14811 0.57768 0.52247 0.0
C356 C 0.18214 0.56752 0.43135 0.0
C357 C 0.18938 0.54928 0.36133 0.0
C358 C 0.08065 0.51468 0.43126 0.0
C359 C 0.13287 0.53992 0.43784 0.0
C360 C 0.05147 0.51081 0.46292 0.0
C361 C 0.0433 0.52731 0.53504 0.0
C362 C 0.1018 0.53546 0.47148 0.0
C363 C 0.06476 0.54823 0.57294 0.0
C364 C 0.1538 0.56291 0.46992 0.0
C365 C 0.1684 0.52567 0.3341 0.0
N366 N 0.09318 0.55178 0.54064 0.0
N367 N 0.14107 0.52184 0.37197 0.0
H368 H 0.89433 0.84068 0.01787 0.0
H369 H 0.02822 0.91451 0.73575 0.0
H370 H 0.96533 0.78908 0.92018 0.0
H371 H 0.9839 0.96353 0.93367 0.0
H372 H 0.99871 0.86764 0.77563 0.0
H373 H 0.91949 0.88551 0.95518 0.0
C374 C 0.91494 0.83863 0.98216 0.0
C375 C 0.92802 0.81117 0.97577 0.0
C376 C 0.99554 0.8887 0.81015 0.0
C377 C 0.95667 0.86228 0.90344 0.0
C378 C 0.01233 0.91529 0.78767 0.0
C379 C 0.0084 0.94269 0.83171 0.0
C380 C 0.97444 0.88985 0.87613 0.0
C381 C 0.98771 0.94274 0.89863 0.0
C382 C 0.92928 0.86422 0.94667 0.0
C383 C 0.95437 0.80971 0.92682 0.0
N384 N 0.97129 0.91673 0.91842 0.0
N385 N 0.96803 0.83504 0.89316 0.0
H386 H 0.69222 0.0953 0.09695 0.0
H387 H 0.57219 -0.00129 0.82102 0.0
H388 H 0.70799 0.00952 0.97448 0.0
H389 H 0.57502 0.0957 0.83765 0.0
H390 H 0.61905 0.00164 0.89339 0.0
H391 H 0.64736 0.09629 0.01359 0.0
C392 C 0.68649 0.077 0.05134 0.0
C393 C 0.70371 0.05231 0.04218 0.0
C394 C 0.60938 0.02234 0.8817 0.0
C395 C 0.65242 0.05291 0.9491 0.0
C396 C 0.58216 0.02056 0.84188 0.0
C397 C 0.5692 0.04681 0.82517 0.0
C398 C 0.62369 0.05072 0.90593 0.0
C399 C 0.58421 0.07485 0.8502 0.0
C400 C 0.66098 0.07756 0.00411 0.0
C401 C 0.69542 0.02907 0.98274 0.0
N402 N 0.61064 0.07613 0.89012 0.0
N403 N 0.67007 0.02971 0.93929 0.0
H404 H 0.56844 0.67984 0.15813 0.0
H405 H 0.55633 0.5716 0.75922 0.0
H406 H 0.62151 0.70276 0.93843 0.0
H407 H 0.47898 0.58662 0.91621 0.0
H408 H 0.58377 0.61575 0.82727 0.0
H409 H 0.53925 0.64026 0.07635 0.0
C410 C 0.57421 0.67612 0.09272 0.0
C411 C 0.59766 0.69407 0.05484 0.0
C412 C 0.56065 0.60965 0.8457 0.0
C413 C 0.56412 0.64934 0.96114 0.0
C414 C 0.54487 0.58461 0.80668 0.0
C415 C 0.51519 0.57575 0.83151 0.0
C416 C 0.54692 0.62526 0.91172 0.0
C417 C 0.50178 0.59282 0.89514 0.0
C418 C 0.5573 0.65391 0.04605 0.0
C419 C 0.60378 0.68902 0.96963 0.0
N420 N 0.51794 0.6166 0.93409 0.0
N421 N 0.58722 0.66676 0.92539 0.0
H422 H 0.81541 0.38513 0.00927 0.0
H423 H 0.95479 0.50002 0.9426 0.0
H424 H 0.80533 0.48007 -0.00378 0.0
H425 H 0.94475 0.42187 0.77169 0.0
H426 H 0.90267 0.48877 0.99034 0.0
H427 H 0.8657 0.39367 0.94322 0.0
C428 C 0.8236 0.40755 0.99064 0.0
C429 C 0.80637 0.43192 0.0067 0.0
C430 C 0.91202 0.47406 0.94265 0.0
C431 C 0.86353 0.44193 0.93589 0.0
C432 C 0.94168 0.48026 0.91611 0.0
C433 C 0.95381 0.46174 0.85345 0.0
C434 C 0.89482 0.44872 0.90797 0.0
C435 C 0.93594 0.4366 0.82019 0.0
C436 C 0.85211 0.41241 0.95356 0.0
C437 C 0.81794 0.46072 0.98346 0.0
N438 N 0.90723 0.43055 0.84851 0.0
N439 N 0.8461 0.46508 0.95054 0.0
H440 H 0.1536 0.19827 0.13942 0.0
H441 H 0.03808 0.13379 0.79534 0.0
H442 H 0.07355 0.23915 0.08696 0.0
H443 H 0.11016 0.08673 0.87983 0.0
H444 H 0.05926 0.17995 0.87042 0.0
H445 H 0.14732 0.16637 0.01148 0.0
C446 C 0.13533 0.20129 0.09906 0.0
C447 C 0.1138 0.22095 0.12398 0.0
C448 C 0.07073 0.15967 0.87136 0.0
C449 C 0.10587 0.18396 0.97948 0.0
C450 C 0.05863 0.13334 0.82876 0.0
C451 C 0.0721 0.10637 0.83322 0.0
C452 C 0.09643 0.1589 0.91865 0.0
C453 C 0.09885 0.107 0.87615 0.0
C454 C 0.13157 0.1829 0.02655 0.0
C455 C 0.09055 0.22413 0.06986 0.0
N456 N 0.10993 0.13276 0.91823 0.0
N457 N 0.08674 0.20523 0.00098 0.0
H458 H 0.3037 0.92369 0.04388 0.0
H459 H 0.41434 0.04006 0.79261 0.0
H460 H 0.29743 0.01976 0.06321 0.0
H461 H 0.43376 0.95138 0.85837 0.0
H462 H 0.36415 0.03071 0.85711 0.0
H463 H 0.34217 0.93107 0.93406 0.0
C464 C 0.30947 0.94619 0.02203 0.0
C465 C 0.29755 0.97117 0.06244 0.0
C466 C 0.37941 0.0133 0.85669 0.0
C467 C 0.3423 0.97997 0.9398 0.0
C468 C 0.40805 0.01864 0.82038 0.0
C469 C 0.42846 0.99668 0.82161 0.0
C470 C 0.37102 0.98559 0.89275 0.0
C471 C 0.41902 0.96921 0.85754 0.0
C472 C 0.33177 0.95048 0.96049 0.0
C473 C 0.30605 -5e-05 0.03303 0.0
N474 N 0.39104 0.96448 0.89165 0.0
N475 N 0.32847 0.0037 0.97452 0.0
H476 H 0.43392 0.34004 0.22278 0.0
H477 H 0.4453 0.386 0.77181 0.0
H478 H 0.38493 0.27707 0.05071 0.0
H479 H 0.41867 0.44776 0.96985 0.0
H480 H 0.42969 0.3434 0.86029 0.0
H481 H 0.43776 0.3777 0.11912 0.0
C482 C 0.42355 0.33417 0.16336 0.0
C483 C 0.40786 0.30566 0.14678 0.0
C484 C 0.42662 0.36626 0.88307 0.0
C485 C 0.41354 0.34873 0.02615 0.0
C486 C 0.43561 0.39051 0.83318 0.0
C487 C 0.43364 0.42035 0.86451 0.0
C488 C 0.41631 0.37226 0.96475 0.0
C489 C 0.42083 0.42511 0.94384 0.0
C490 C 0.42593 0.35574 0.10419 0.0
C491 C 0.39666 0.29897 0.0665 0.0
N492 N 0.41326 0.40132 0.99201 0.0
N493 N 0.39975 0.32048 0.00847 0.0
H494 H 0.24242 0.509 0.07477 0.0
H495 H 0.11816 0.56938 0.80013 0.0
H496 H 0.22488 0.60234 0.07467 0.0
H497 H 0.12233 0.47609 0.8546 0.0
H498 H 0.16688 0.58219 0.86502 0.0
H499 H 0.21009 0.49771 0.95492 0.0
C500 C 0.23312 0.52743 0.04639 0.0
C501 C 0.23634 0.55664 0.08425 0.0
C502 C 0.15734 0.55885 0.86161 0.0
C503 C 0.19828 0.54376 0.94995 0.0
C504 C 0.12954 0.55155 0.82478 0.0
C505 C 0.11604 0.52173 0.82341 0.0
C506 C 0.17179 0.53612 0.89678 0.0
C507 C 0.13181 0.49944 0.85549 0.0
C508 C 0.21415 0.52089 0.97908 0.0
C509 C 0.22311 0.57958 0.04662 0.0
N510 N 0.15871 0.50712 0.89155 0.0
N511 N 0.20409 0.57256 0.98265 0.0
H512 H 0.86009 0.79812 0.25074 0.0
H513 H 0.9085 0.91806 0.5063 0.0
H514 H 0.9462 0.76713 0.29028 0.0
H515 H 0.97854 0.86614 0.58026 0.0
H516 H 0.88548 0.8737 0.43025 0.0
H517 H 0.8652 0.83011 0.37844 0.0
C518 C 0.87971 0.79751 0.28804 0.0
C519 C 0.90291 0.78036 0.26008 0.0
C520 C 0.90531 0.87136 0.46486 0.0
C521 C 0.91026 0.81871 0.40215 0.0
C522 C 0.91865 0.89699 0.5078 0.0
C523 C 0.94567 0.89579 0.54814 0.0
C524 C 0.91921 0.84428 0.46208 0.0
C525 C 0.95787 0.86802 0.54876 0.0
C526 C 0.88303 0.81632 0.36 0.0
C527 C 0.92788 0.78017 0.31005 0.0
N528 N 0.94482 0.84346 0.50503 0.0
N529 N 0.93125 0.79969 0.37773 0.0
H530 H 0.72876 0.98975 0.32843 0.0
H531 H 0.59172 0.06094 0.54085 0.0
H532 H 0.7221 0.08571 0.35267 0.0
H533 H 0.61208 0.97173 0.59882 0.0
H534 H 0.64153 0.07034 0.47828 0.0
H535 H 0.69035 0.98243 0.43914 0.0
C536 C 0.72027 0.00938 0.36005 0.0
C537 C 0.72835 0.03835 0.33143 0.0
C538 C 0.63531 0.04875 0.50521 0.0
C539 C 0.68375 0.03014 0.4548 0.0
C540 C 0.60667 0.04322 0.54001 0.0
C541 C 0.59755 0.01529 0.57365 0.0
C542 C 0.65494 0.026 0.50233 0.0
C543 C 0.61816 0.99346 0.57266 0.0
C544 C 0.69805 0.00519 0.42238 0.0
C545 C 0.71632 0.06302 0.37311 0.0
N546 N 0.6458 -0.00092 0.53621 0.0
N547 N 0.69409 0.05831 0.43129 0.0
H548 H 0.58747 0.74698 0.37213 0.0
H549 H 0.60826 0.58163 0.47925 0.0
H550 H 0.6682 0.70507 0.30865 0.0
H551 H 0.54118 0.63284 0.60072 0.0
H552 H 0.63431 0.62884 0.43115 0.0
H553 H 0.57522 0.71015 0.4778 0.0
C554 C 0.60346 0.73102 0.38347 0.0
C555 C 0.62852 0.72857 0.3303 0.0
C556 C 0.61412 0.62981 0.46936 0.0
C557 C 0.61393 0.68541 0.44796 0.0
C558 C 0.59914 0.60284 0.49605 0.0
C559 C 0.5723 0.60338 0.54248 0.0
C560 C 0.60189 0.65738 0.48845 0.0
C561 C 0.56161 0.63144 0.56379 0.0
C562 C 0.59617 0.70955 0.44288 0.0
C563 C 0.64837 0.70732 0.34762 0.0
N564 N 0.57618 0.65727 0.5356 0.0
N565 N 0.64012 0.6858 0.40286 0.0
H566 H 0.75887 0.48186 0.3017 0.0
H567 H 0.88008 0.4214 0.58836 0.0
H568 H 0.77805 0.38888 0.29916 0.0
H569 H 0.87586 0.51497 0.53705 0.0
H570 H 0.83282 0.40845 0.51579 0.0
H571 H 0.79027 0.49298 0.42368 0.0
C572 C 0.76854 0.4635 0.32932 0.0
C573 C 0.76597 0.43444 0.29042 0.0
C574 C 0.842 0.43187 0.52161 0.0
C575 C 0.80268 0.44711 0.42783 0.0
C576 C 0.86894 0.43926 0.56296 0.0
C577 C 0.88205 0.46922 0.56742 0.0
C578 C 0.82804 0.45467 0.48509 0.0
C579 C 0.86666 0.49153 0.53396 0.0
C580 C 0.78687 0.46993 0.39807 0.0
C581 C 0.7795 0.41157 0.32761 0.0
N582 N 0.84062 0.48378 0.49357 0.0
N583 N 0.79774 0.41848 0.39333 0.0
loop_
_geom_bond_atom_site_label_1
_geom_bond_atom_site_label_2
_geom_bond_distance
_geom_bond_site_symmetry_2
_ccdc_geom_bond_type
H0 C3 0.931 . S
H1 C6 0.928 . S
H2 C8 0.930 . S
C3 H0 0.931 . S
C3 C4 1.413 . S
C3 C5 1.360 1_554 S
C4 C3 1.413 . S
C4 C8 1.429 . S
C5 C3 1.360 1_556 S
C5 C6 1.372 . S
C6 H1 0.928 . S
C6 C5 1.372 . S
C6 C7 1.404 1_556 S
C7 C6 1.404 1_554 S
C7 C8 1.391 . S
C8 H2 0.930 . S
C8 C4 1.429 . S
C8 C7 1.391 . S
H9 C12 0.931 . S
H10 C15 0.928 . S
H11 C17 0.930 . S
C12 H9 0.931 . S
C12 C13 1.413 . S
C12 C14 1.360 1_554 S
C13 C12 1.413 . S
C13 C17 1.429 . S
C14 C12 1.360 1_556 S
C14 C15 1.372 . S
C15 H10 0.928 . S
C15 C14 1.372 . S
C15 C16 1.404 1_556 S
C16 C15 1.404 1_554 S
C16 C17 1.391 . S
C17 H11 0.930 . S
C17 C13 1.429 . S
C17 C16 1.391 . S
H18 C21 0.931 . S
H19 C24 0.928 1_556 S
H20 C26 0.933 . S
C21 H18 0.931 . S
C21 C22 1.414 . S
C21 C23 1.360 . S
C22 C21 1.414 . S
C22 C26 1.430 1_565 S
C23 C21 1.360 . S
C23 C24 1.374 . S
C24 H19 0.928 1_554 S
C24 C23 1.374 . S
C24 C25 1.403 . S
C25 C24 1.403 . S
C25 C26 1.391 1_565 S
C26 H20 0.933 . S
C26 C22 1.430 1_545 S
C26 C25 1.391 1_545 S
H27 C30 0.931 . S
H28 C33 0.928 . S
H29 C35 0.930 . S
C30 H27 0.931 . S
C30 C31 1.413 . S
C30 C32 1.360 . S
C31 C30 1.413 . S
C31 C35 1.429 1_554 S
C32 C30 1.360 . S
C32 C33 1.372 . S
C33 H28 0.928 . S
C33 C32 1.372 . S
C33 C34 1.404 . S
C34 C33 1.404 . S
C34 C35 1.391 1_554 S
C35 H29 0.930 . S
C35 C31 1.429 1_556 S
C35 C34 1.391 1_556 S
H36 C39 0.931 . S
H37 C42 0.928 . S
H38 C44 0.930 . S
C39 H36 0.931 . S
C39 C40 1.413 . S
C39 C41 1.360 . S
C40 C39 1.413 . S
C40 C44 1.429 . S
C41 C39 1.360 . S
C41 C42 1.372 . S
C42 H37 0.928 . S
C42 C41 1.372 . S
C42 C43 1.404 . S
C43 C42 1.404 . S
C43 C44 1.391 . S
C44 H38 0.930 . S
C44 C40 1.429 . S
C44 C43 1.391 . S
H45 C48 0.931 . S
H46 C51 0.928 . S
H47 C53 0.930 . S
C48 H45 0.931 . S
C48 C49 1.413 . S
C48 C50 1.360 . S
C49 C48 1.413 . S
C49 C53 1.429 . S
C50 C48 1.360 . S
C50 C51 1.372 . S
C51 H46 0.928 . S
C51 C50 1.372 . S
C51 C52 1.404 . S
C52 C51 1.404 . S
C52 C53 1.391 . S
C53 H47 0.930 . S
C53 C49 1.429 . S
C53 C52 1.391 . S
H54 C57 0.931 . S
H55 C60 0.928 . S
H56 C62 0.930 . S
C57 H54 0.931 . S
C57 C58 1.413 . S
C57 C59 1.360 . S
C58 C57 1.413 . S
C58 C62 1.429 . S
C59 C57 1.360 . S
C59 C60 1.372 . S
C60 H55 0.928 . S
C60 C59 1.372 . S
C60 C61 1.404 . S
C61 C60 1.404 . S
C61 C62 1.391 . S
C62 H56 0.930 . S
C62 C58 1.429 . S
C62 C61 1.391 . S
H63 C66 0.931 . S
H64 C69 0.928 . S
H65 C71 0.930 . S
C66 H63 0.931 . S
C66 C67 1.413 . S
C66 C68 1.360 . S
C67 C66 1.413 . S
C67 C71 1.429 . S
C68 C66 1.360 . S
C68 C69 1.372 . S
C69 H64 0.928 . S
C69 C68 1.372 . S
C69 C70 1.404 . S
C70 C69 1.404 . S
C70 C71 1.391 . S
C71 H65 0.930 . S
C71 C67 1.429 . S
C71 C70 1.391 . S
Tb72 O75 2.453 1_665 S
Tb72 O76 2.596 1_665 S
Tb72 O77 2.374 1_655 S
Tb72 O85 2.343 . S
Tb72 O87 2.353 1_565 S
Tb72 O89 2.427 . S
Tb72 O90 2.513 . S
C73 O77 1.251 . S
C73 O79 1.263 . S
Tb74 O76 2.343 . S
Tb74 O79 2.353 1_545 S
Tb74 O82 2.427 . S
Tb74 O83 2.513 . S
Tb74 O84 2.453 1_545 S
Tb74 O85 2.596 1_445 S
Tb74 O86 2.374 1_455 S
O75 Tb72 2.453 1_445 S
O75 C91 1.245 . S
O76 Tb72 2.596 1_445 S
O76 Tb74 2.343 . S
O76 C91 1.259 . S
O77 Tb72 2.374 1_455 S
O77 C73 1.251 . S
C78 O82 1.275 . S
C78 O83 1.246 . S
O79 C73 1.263 . S
O79 Tb74 2.353 1_565 S
C80 O84 1.245 1_655 S
C80 O85 1.259 . S
C81 O86 1.250 . S
C81 O87 1.263 . S
O82 Tb74 2.427 . S
O82 C78 1.275 . S
O83 Tb74 2.513 . S
O83 C78 1.246 . S
O84 Tb74 2.453 1_565 S
O84 C80 1.245 1_455 S
O85 Tb72 2.343 . S
O85 Tb74 2.596 1_665 S
O85 C80 1.259 . S
O86 Tb74 2.374 1_655 S
O86 C81 1.250 . S
O87 Tb72 2.353 1_545 S
O87 C81 1.263 . S
C88 O89 1.275 . S
C88 O90 1.246 . S
O89 Tb72 2.427 . S
O89 C88 1.275 . S
O90 Tb72 2.513 . S
O90 C88 1.246 . S
C91 O75 1.245 . S
C91 O76 1.259 . S
Tb92 O95 2.453 . S
Tb92 O96 2.596 1_545 S
Tb92 O97 2.374 . S
Tb92 O105 2.343 . S
Tb92 O107 2.353 . S
Tb92 O109 2.427 . S
Tb92 O110 2.513 . S
C93 O97 1.251 . S
C93 O99 1.263 1_545 S
Tb94 O96 2.343 . S
Tb94 O99 2.353 . S
Tb94 O102 2.427 . S
Tb94 O103 2.513 . S
Tb94 O104 2.453 . S
Tb94 O105 2.596 1_565 S
Tb94 O106 2.374 . S
O95 Tb92 2.453 . S
O95 C111 1.245 . S
O96 Tb92 2.596 1_565 S
O96 Tb94 2.343 . S
O96 C111 1.259 1_565 S
O97 Tb92 2.374 . S
O97 C93 1.251 . S
C98 O102 1.275 . S
C98 O103 1.246 . S
O99 C93 1.263 1_565 S
O99 Tb94 2.353 . S
C100 O104 1.245 . S
C100 O105 1.259 1_565 S
C101 O106 1.250 1_545 S
C101 O107 1.263 . S
O102 Tb94 2.427 . S
O102 C98 1.275 . S
O103 Tb94 2.513 . S
O103 C98 1.246 . S
O104 Tb94 2.453 . S
O104 C100 1.245 . S
O105 Tb92 2.343 . S
O105 Tb94 2.596 1_545 S
O105 C100 1.259 1_545 S
O106 Tb94 2.374 . S
O106 C101 1.250 1_565 S
O107 Tb92 2.353 . S
O107 C101 1.263 . S
C108 O109 1.275 . S
C108 O110 1.246 . S
O109 Tb92 2.427 . S
O109 C108 1.275 . S
O110 Tb92 2.513 . S
O110 C108 1.246 . S
C111 O95 1.245 . S
C111 O96 1.259 1_545 S
Tb112 O115 2.453 . S
Tb112 O116 2.596 . S
Tb112 O117 2.374 . S
Tb112 O125 2.343 . S
Tb112 O127 2.353 . S
Tb112 O129 2.427 . S
Tb112 O130 2.513 . S
C113 O117 1.251 . S
C113 O119 1.263 . S
Tb114 O116 2.343 . S
Tb114 O119 2.353 . S
Tb114 O122 2.427 . S
Tb114 O123 2.513 . S
Tb114 O124 2.453 . S
Tb114 O125 2.596 . S
Tb114 O126 2.374 . S
O115 Tb112 2.453 . S
O115 C131 1.245 . S
O116 Tb112 2.596 . S
O116 Tb114 2.343 . S
O116 C131 1.259 . S
O117 Tb112 2.374 . S
O117 C113 1.251 . S
C118 O122 1.275 . S
C118 O123 1.246 . S
O119 C113 1.263 . S
O119 Tb114 2.353 . S
C120 O124 1.245 . S
C120 O125 1.259 . S
C121 O126 1.250 . S
C121 O127 1.263 . S
O122 Tb114 2.427 . S
O122 C118 1.275 . S
O123 Tb114 2.513 . S
O123 C118 1.246 . S
O124 Tb114 2.453 . S
O124 C120 1.245 . S
O125 Tb112 2.343 . S
O125 Tb114 2.596 . S
O125 C120 1.259 . S
O126 Tb114 2.374 . S
O126 C121 1.250 . S
O127 Tb112 2.353 . S
O127 C121 1.263 . S
C128 O129 1.275 . S
C128 O130 1.246 . S
O129 Tb112 2.427 . S
O129 C128 1.275 . S
O130 Tb112 2.513 . S
O130 C128 1.246 . S
C131 O115 1.245 . S
C131 O116 1.259 . S
Tb132 O135 2.453 1_655 S
Tb132 O136 2.596 1_655 S
Tb132 O137 2.374 1_655 S
Tb132 O145 2.343 . S
Tb132 O147 2.353 . S
Tb132 O149 2.427 . S
Tb132 O150 2.513 . S
C133 O137 1.251 . S
C133 O139 1.263 . S
Tb134 O136 2.343 . S
Tb134 O139 2.353 . S
Tb134 O142 2.427 . S
Tb134 O143 2.513 . S
Tb134 O144 2.453 1_455 S
Tb134 O145 2.596 1_455 S
Tb134 O146 2.385 . S
O135 Tb132 2.453 1_455 S
O135 C151 1.245 . S
O136 Tb132 2.596 1_455 S
O136 Tb134 2.343 . S
O136 C151 1.259 . S
O137 Tb132 2.374 1_455 S
O137 C133 1.251 . S
C138 O142 1.275 . S
C138 O143 1.246 . S
O139 C133 1.263 . S
O139 Tb134 2.353 . S
C140 O144 1.245 . S
C140 O145 1.259 . S
C141 O146 1.236 1_655 S
C141 O147 1.263 . S
O142 Tb134 2.427 . S
O142 C138 1.275 . S
O143 Tb134 2.513 . S
O143 C138 1.246 . S
O144 Tb134 2.453 1_655 S
O144 C140 1.245 . S
O145 Tb132 2.343 . S
O145 Tb134 2.596 1_655 S
O145 C140 1.259 . S
O146 Tb134 2.385 . S
O146 C141 1.236 1_455 S
O147 Tb132 2.353 . S
O147 C141 1.263 . S
C148 O149 1.275 . S
C148 O150 1.246 . S
O149 Tb132 2.427 . S
O149 C148 1.275 . S
O150 Tb132 2.513 . S
O150 C148 1.246 . S
C151 O135 1.245 . S
C151 O136 1.259 . S
H152 C158 0.930 . S
H153 C162 0.930 . S
H154 C167 0.929 . S
H155 C165 0.929 . S
H156 C160 0.929 . S
H157 C166 0.929 . S
C158 H152 0.930 . S
C158 C159 1.367 . S
C158 C166 1.378 . S
C159 C158 1.367 . S
C159 C167 1.433 1_545 S
C160 H156 0.929 . S
C160 C162 1.378 . S
C160 C164 1.350 1_565 S
C161 C164 1.463 . S
C161 C166 1.350 . S
C161 N169 1.427 1_545 S
C162 H153 0.930 . S
C162 C160 1.378 . S
C162 C163 1.367 . S
C163 C162 1.367 . S
C163 C165 1.433 1_565 S
C164 C160 1.350 1_545 S
C164 C161 1.463 . S
C164 N168 1.427 . S
C165 H155 0.929 . S
C165 C163 1.433 1_545 S
C165 N168 1.384 . S
C166 H157 0.929 . S
C166 C158 1.378 . S
C166 C161 1.350 . S
C167 H154 0.929 . S
C167 C159 1.433 1_565 S
C167 N169 1.384 . S
N168 C164 1.427 . S
N168 C165 1.384 . S
N169 C161 1.427 1_565 S
N169 C167 1.384 . S
H170 C176 0.930 . S
H171 C180 0.930 . S
H172 C185 0.929 . S
H173 C183 0.929 . S
H174 C178 0.929 . S
H175 C184 0.929 . S
C176 H170 0.930 . S
C176 C177 1.367 . S
C176 C184 1.378 . S
C177 C176 1.367 . S
C177 C185 1.433 . S
C178 H174 0.929 . S
C178 C180 1.378 . S
C178 C182 1.350 . S
C179 C182 1.463 . S
C179 C184 1.350 . S
C179 N187 1.427 . S
C180 H171 0.930 . S
C180 C178 1.378 . S
C180 C181 1.367 . S
C181 C180 1.367 . S
C181 C183 1.433 . S
C182 C178 1.350 . S
C182 C179 1.463 . S
C182 N186 1.427 . S
C183 H173 0.929 . S
C183 C181 1.433 . S
C183 N186 1.384 . S
C184 H175 0.929 . S
C184 C176 1.378 . S
C184 C179 1.350 . S
C185 H172 0.929 . S
C185 C177 1.433 . S
C185 N187 1.384 . S
N186 C182 1.427 . S
N186 C183 1.384 . S
N187 C179 1.427 . S
N187 C185 1.384 . S
H188 C194 0.930 . S
H189 C198 0.930 . S
H190 C203 0.929 . S
H191 C201 0.929 . S
H192 C196 0.929 . S
H193 C202 0.929 . S
C194 H188 0.930 . S
C194 C195 1.367 . S
C194 C202 1.378 . S
C195 C194 1.367 . S
C195 C203 1.433 . S
C196 H192 0.929 . S
C196 C198 1.378 . S
C196 C200 1.350 . S
C197 C200 1.463 . S
C197 C202 1.350 . S
C197 N205 1.427 . S
C198 H189 0.930 . S
C198 C196 1.378 . S
C198 C199 1.367 . S
C199 C198 1.367 . S
C199 C201 1.433 . S
C200 C196 1.350 . S
C200 C197 1.463 . S
C200 N204 1.427 . S
C201 H191 0.929 . S
C201 C199 1.433 . S
C201 N204 1.384 . S
C202 H193 0.929 . S
C202 C194 1.378 . S
C202 C197 1.350 . S
C203 H190 0.929 . S
C203 C195 1.433 . S
C203 N205 1.384 . S
N204 C200 1.427 . S
N204 C201 1.384 . S
N205 C197 1.427 . S
N205 C203 1.384 . S
H206 C212 0.930 . S
H207 C216 0.930 . S
H208 C221 0.929 . S
H209 C219 0.929 . S
H210 C214 0.929 . S
H211 C220 0.929 . S
C212 H206 0.930 . S
C212 C213 1.367 . S
C212 C220 1.378 . S
C213 C212 1.367 . S
C213 C221 1.433 . S
C214 H210 0.929 . S
C214 C216 1.378 . S
C214 C218 1.350 . S
C215 C218 1.463 . S
C215 C220 1.350 . S
C215 N223 1.427 . S
C216 H207 0.930 . S
C216 C214 1.378 . S
C216 C217 1.367 . S
C217 C216 1.367 . S
C217 C219 1.433 . S
C218 C214 1.350 . S
C218 C215 1.463 . S
C218 N222 1.427 . S
C219 H209 0.929 . S
C219 C217 1.433 . S
C219 N222 1.384 . S
C220 H211 0.929 . S
C220 C212 1.378 . S
C220 C215 1.350 . S
C221 H208 0.929 . S
C221 C213 1.433 . S
C221 N223 1.384 . S
N222 C218 1.427 . S
N222 C219 1.384 . S
N223 C215 1.427 . S
N223 C221 1.384 . S
H224 C230 0.930 . S
H225 C234 0.930 . S
H226 C239 0.929 . S
H227 C237 0.929 . S
H228 C232 0.929 . S
H229 C238 0.929 . S
C230 H224 0.930 . S
C230 C231 1.367 . S
C230 C238 1.378 . S
C231 C230 1.367 . S
C231 C239 1.433 1_544 S
C232 H228 0.929 . S
C232 C234 1.378 . S
C232 C236 1.350 1_565 S
C233 C236 1.463 . S
C233 C238 1.350 1_556 S
C233 N241 1.427 1_545 S
C234 H225 0.930 . S
C234 C232 1.378 . S
C234 C235 1.367 1_565 S
C235 C234 1.367 1_545 S
C235 C237 1.433 . S
C236 C232 1.350 1_545 S
C236 C233 1.463 . S
C236 N240 1.427 . S
C237 H227 0.929 . S
C237 C235 1.433 . S
C237 N240 1.384 . S
C238 H229 0.929 . S
C238 C230 1.378 . S
C238 C233 1.350 1_554 S
C239 H226 0.929 . S
C239 C231 1.433 1_566 S
C239 N241 1.384 . S
N240 C236 1.427 . S
N240 C237 1.384 . S
N241 C233 1.427 1_565 S
N241 C239 1.384 . S
H242 C248 0.930 . S
H243 C252 0.930 . S
H244 C257 0.929 . S
H245 C255 0.929 . S
H246 C250 0.929 1_554 S
H247 C256 0.929 . S
C248 H242 0.930 . S
C248 C249 1.367 1_556 S
C248 C256 1.378 . S
C249 C248 1.367 1_554 S
C249 C257 1.433 . S
C250 H246 0.929 1_556 S
C250 C252 1.378 . S
C250 C254 1.350 . S
C251 C254 1.463 . S
C251 C256 1.350 . S
C251 N259 1.427 1_556 S
C252 H243 0.930 . S
C252 C250 1.378 . S
C252 C253 1.367 . S
C253 C252 1.367 . S
C253 C255 1.433 . S
C254 C250 1.350 . S
C254 C251 1.463 . S
C254 N258 1.427 . S
C255 H245 0.929 . S
C255 C253 1.433 . S
C255 N258 1.384 . S
C256 H247 0.929 . S
C256 C248 1.378 . S
C256 C251 1.350 . S
C257 H244 0.929 . S
C257 C249 1.433 . S
C257 N259 1.384 . S
N258 C254 1.427 . S
N258 C255 1.384 . S
N259 C251 1.427 1_554 S
N259 C257 1.384 . S
H260 C266 0.930 . S
H261 C270 0.930 . S
H262 C275 0.929 . S
H263 C273 0.929 . S
H264 C268 0.929 . S
H265 C274 0.929 . S
C266 H260 0.930 . S
C266 C267 1.367 1_556 S
C266 C274 1.378 . S
C267 C266 1.367 1_554 S
C267 C275 1.433 . S
C268 H264 0.929 . S
C268 C270 1.378 . S
C268 C272 1.350 . S
C269 C272 1.463 . S
C269 C274 1.350 . S
C269 N277 1.427 . S
C270 H261 0.930 . S
C270 C268 1.378 . S
C270 C271 1.367 . S
C271 C270 1.367 . S
C271 C273 1.433 . S
C272 C268 1.350 . S
C272 C269 1.463 . S
C272 N276 1.427 . S
C273 H263 0.929 . S
C273 C271 1.433 . S
C273 N276 1.384 . S
C274 H265 0.929 . S
C274 C266 1.378 . S
C274 C269 1.350 . S
C275 H262 0.929 . S
C275 C267 1.433 . S
C275 N277 1.384 1_554 S
N276 C272 1.427 . S
N276 C273 1.384 . S
N277 C269 1.427 . S
N277 C275 1.384 1_556 S
H278 C284 0.930 1_554 S
H279 C288 0.930 . S
H280 C293 0.929 . S
H281 C291 0.929 1_455 S
H282 C286 0.929 . S
H283 C292 0.929 . S
C284 H278 0.930 1_556 S
C284 C285 1.367 . S
C284 C292 1.378 . S
C285 C284 1.367 . S
C285 C293 1.433 . S
C286 H282 0.929 . S
C286 C288 1.378 . S
C286 C290 1.350 . S
C287 C290 1.463 . S
C287 C292 1.350 . S
C287 N295 1.427 . S
C288 H279 0.930 . S
C288 C286 1.378 . S
C288 C289 1.367 . S
C289 C288 1.367 . S
C289 C291 1.433 . S
C290 C286 1.350 . S
C290 C287 1.463 . S
C290 N294 1.427 . S
C291 H281 0.929 1_655 S
C291 C289 1.433 . S
C291 N294 1.384 . S
C292 H283 0.929 . S
C292 C284 1.378 . S
C292 C287 1.350 . S
C293 H280 0.929 . S
C293 C285 1.433 . S
C293 N295 1.384 . S
N294 C290 1.427 . S
N294 C291 1.384 . S
N295 C287 1.427 . S
N295 C293 1.384 . S
H296 C302 0.930 . S
H297 C306 0.930 . S
H298 C311 0.929 . S
H299 C309 0.929 . S
H300 C304 0.929 . S
H301 C310 0.929 . S
C302 H296 0.930 . S
C302 C303 1.367 . S
C302 C310 1.378 . S
C303 C302 1.367 . S
C303 C311 1.433 . S
C304 H300 0.929 . S
C304 C306 1.378 . S
C304 C308 1.350 . S
C305 C308 1.463 . S
C305 C310 1.350 . S
C305 N313 1.427 . S
C306 H297 0.930 . S
C306 C304 1.378 . S
C306 C307 1.367 . S
C307 C306 1.367 . S
C307 C309 1.433 . S
C308 C304 1.350 . S
C308 C305 1.463 . S
C308 N312 1.427 . S
C309 H299 0.929 . S
C309 C307 1.433 . S
C309 N312 1.384 . S
C310 H301 0.929 . S
C310 C302 1.378 . S
C310 C305 1.350 . S
C311 H298 0.929 . S
C311 C303 1.433 . S
C311 N313 1.384 . S
N312 C308 1.427 . S
N312 C309 1.384 . S
N313 C305 1.427 . S
N313 C311 1.384 . S
H314 C320 0.930 . S
H315 C324 0.930 . S
H316 C329 0.929 . S
H317 C327 0.929 . S
H318 C322 0.929 . S
H319 C328 0.929 . S
C320 H314 0.930 . S
C320 C321 1.367 . S
C320 C328 1.378 . S
C321 C320 1.367 . S
C321 C329 1.433 1_545 S
C322 H318 0.929 . S
C322 C324 1.378 . S
C322 C326 1.350 1_565 S
C323 C326 1.463 . S
C323 C328 1.350 . S
C323 N331 1.427 1_545 S
C324 H315 0.930 . S
C324 C322 1.378 . S
C324 C325 1.367 1_565 S
C325 C324 1.367 1_545 S
C325 C327 1.433 . S
C326 C322 1.350 1_545 S
C326 C323 1.463 . S
C326 N330 1.427 . S
C327 H317 0.929 . S
C327 C325 1.433 . S
C327 N330 1.384 . S
C328 H319 0.929 . S
C328 C320 1.378 . S
C328 C323 1.350 . S
C329 H316 0.929 . S
C329 C321 1.433 1_565 S
C329 N331 1.384 . S
N330 C326 1.427 . S
N330 C327 1.384 . S
N331 C323 1.427 1_565 S
N331 C329 1.384 . S
H332 C338 0.930 . S
H333 C342 0.930 . S
H334 C347 0.929 . S
H335 C345 0.929 . S
H336 C340 0.929 . S
H337 C346 0.929 . S
C338 H332 0.930 . S
C338 C339 1.367 . S
C338 C346 1.378 . S
C339 C338 1.367 . S
C339 C347 1.433 . S
C340 H336 0.929 . S
C340 C342 1.378 . S
C340 C344 1.350 . S
C341 C344 1.463 . S
C341 C346 1.350 . S
C341 N349 1.427 . S
C342 H333 0.930 . S
C342 C340 1.378 . S
C342 C343 1.367 . S
C343 C342 1.367 . S
C343 C345 1.433 . S
C344 C340 1.350 . S
C344 C341 1.463 . S
C344 N348 1.427 . S
C345 H335 0.929 . S
C345 C343 1.433 . S
C345 N348 1.384 . S
C346 H337 0.929 . S
C346 C338 1.378 . S
C346 C341 1.350 . S
C347 H334 0.929 . S
C347 C339 1.433 . S
C347 N349 1.384 . S
N348 C344 1.427 . S
N348 C345 1.384 . S
N349 C341 1.427 . S
N349 C347 1.384 . S
H350 C356 0.930 . S
H351 C360 0.930 . S
H352 C365 0.929 . S
H353 C363 0.929 . S
H354 C358 0.929 . S
H355 C364 0.929 . S
C356 H350 0.930 . S
C356 C357 1.367 . S
C356 C364 1.378 . S
C357 C356 1.367 . S
C357 C365 1.433 . S
C358 H354 0.929 . S
C358 C360 1.378 . S
C358 C362 1.350 . S
C359 C362 1.463 . S
C359 C364 1.350 . S
C359 N367 1.427 . S
C360 H351 0.930 . S
C360 C358 1.378 . S
C360 C361 1.367 . S
C361 C360 1.367 . S
C361 C363 1.433 . S
C362 C358 1.350 . S
C362 C359 1.463 . S
C362 N366 1.427 . S
C363 H353 0.929 . S
C363 C361 1.433 . S
C363 N366 1.384 . S
C364 H355 0.929 . S
C364 C356 1.378 . S
C364 C359 1.350 . S
C365 H352 0.929 . S
C365 C357 1.433 . S
C365 N367 1.384 . S
N366 C362 1.427 . S
N366 C363 1.384 . S
N367 C359 1.427 . S
N367 C365 1.384 . S
H368 C374 0.930 . S
H369 C378 0.930 1_455 S
H370 C383 0.929 . S
H371 C381 0.929 . S
H372 C376 0.929 . S
H373 C382 0.929 . S
C374 H368 0.930 . S
C374 C375 1.367 . S
C374 C382 1.378 . S
C375 C374 1.367 . S
C375 C383 1.433 . S
C376 H372 0.929 . S
C376 C378 1.378 . S
C376 C380 1.350 . S
C377 C380 1.463 . S
C377 C382 1.350 . S
C377 N385 1.427 . S
C378 H369 0.930 1_655 S
C378 C376 1.378 . S
C378 C379 1.367 . S
C379 C378 1.367 . S
C379 C381 1.433 . S
C380 C376 1.350 . S
C380 C377 1.463 . S
C380 N384 1.427 . S
C381 H371 0.929 . S
C381 C379 1.433 . S
C381 N384 1.384 . S
C382 H373 0.929 . S
C382 C374 1.378 . S
C382 C377 1.350 . S
C383 H370 0.929 . S
C383 C375 1.433 . S
C383 N385 1.384 . S
N384 C380 1.427 . S
N384 C381 1.384 . S
N385 C377 1.427 . S
N385 C383 1.384 . S
H386 C392 0.930 . S
H387 C396 0.930 . S
H388 C401 0.929 . S
H389 C399 0.929 . S
H390 C394 0.929 . S
H391 C400 0.929 . S
C392 H386 0.930 . S
C392 C393 1.385 . S
C392 C400 1.378 1_554 S
C393 C392 1.385 . S
C393 C401 1.418 1_544 S
C394 H390 0.929 . S
C394 C396 1.378 . S
C394 C398 1.350 1_565 S
C395 C398 1.463 . S
C395 C400 1.350 . S
C395 N403 1.427 1_545 S
C396 H387 0.930 . S
C396 C394 1.378 . S
C396 C397 1.367 1_565 S
C397 C396 1.367 1_545 S
C397 C399 1.433 . S
C398 C394 1.350 1_545 S
C398 C395 1.463 . S
C398 N402 1.427 . S
C399 H389 0.929 . S
C399 C397 1.433 . S
C399 N402 1.384 . S
C400 H391 0.929 . S
C400 C392 1.378 1_556 S
C400 C395 1.350 . S
C401 H388 0.929 . S
C401 C393 1.418 1_566 S
C401 N403 1.384 . S
N402 C398 1.427 . S
N402 C399 1.384 . S
N403 C395 1.427 1_565 S
N403 C401 1.384 . S
H404 C410 0.930 . S
H405 C414 0.930 . S
H406 C419 0.929 . S
H407 C417 0.929 . S
H408 C412 0.929 . S
H409 C418 0.929 1_554 S
C410 H404 0.930 . S
C410 C411 1.367 1_554 S
C410 C418 1.378 1_554 S
C411 C410 1.367 1_556 S
C411 C419 1.433 . S
C412 H408 0.929 . S
C412 C414 1.378 . S
C412 C416 1.350 . S
C413 C416 1.463 . S
C413 C418 1.350 . S
C413 N421 1.427 . S
C414 H405 0.930 . S
C414 C412 1.378 . S
C414 C415 1.367 . S
C415 C414 1.367 . S
C415 C417 1.433 . S
C416 C412 1.350 . S
C416 C413 1.463 . S
C416 N420 1.427 . S
C417 H407 0.929 . S
C417 C415 1.433 . S
C417 N420 1.384 . S
C418 H409 0.929 1_556 S
C418 C410 1.378 1_556 S
C418 C413 1.350 . S
C419 H406 0.929 . S
C419 C411 1.433 . S
C419 N421 1.384 . S
N420 C416 1.427 . S
N420 C417 1.384 . S
N421 C413 1.427 . S
N421 C419 1.384 . S
H422 C428 0.930 . S
H423 C432 0.930 . S
H424 C437 0.929 . S
H425 C435 0.929 . S
H426 C430 0.929 . S
H427 C436 0.929 . S
C428 H422 0.930 . S
C428 C429 1.367 . S
C428 C436 1.378 . S
C429 C428 1.367 . S
C429 C437 1.433 . S
C430 H426 0.929 . S
C430 C432 1.378 . S
C430 C434 1.350 . S
C431 C434 1.463 . S
C431 C436 1.350 . S
C431 N439 1.427 . S
C432 H423 0.930 . S
C432 C430 1.378 . S
C432 C433 1.367 . S
C433 C432 1.367 . S
C433 C435 1.433 . S
C434 C430 1.350 . S
C434 C431 1.463 . S
C434 N438 1.427 . S
C435 H425 0.929 . S
C435 C433 1.433 . S
C435 N438 1.384 . S
C436 H427 0.929 . S
C436 C428 1.378 . S
C436 C431 1.350 . S
C437 H424 0.929 . S
C437 C429 1.433 . S
C437 N439 1.384 . S
N438 C434 1.427 . S
N438 C435 1.384 . S
N439 C431 1.427 . S
N439 C437 1.384 . S
H440 C446 0.930 . S
H441 C450 0.930 . S
H442 C455 0.929 . S
H443 C453 0.929 . S
H444 C448 0.929 . S
H445 C454 0.929 . S
C446 H440 0.930 . S
C446 C447 1.367 . S
C446 C454 1.378 . S
C447 C446 1.367 . S
C447 C455 1.433 . S
C448 H444 0.929 . S
C448 C450 1.378 . S
C448 C452 1.350 . S
C449 C452 1.463 . S
C449 C454 1.350 . S
C449 N457 1.427 . S
C450 H441 0.930 . S
C450 C448 1.378 . S
C450 C451 1.367 1_554 S
C451 C450 1.367 1_556 S
C451 C453 1.433 . S
C452 C448 1.350 . S
C452 C449 1.463 . S
C452 N456 1.427 1_554 S
C453 H443 0.929 . S
C453 C451 1.433 . S
C453 N456 1.384 . S
C454 H445 0.929 . S
C454 C446 1.378 . S
C454 C449 1.350 . S
C455 H442 0.929 . S
C455 C447 1.433 . S
C455 N457 1.384 . S
N456 C452 1.427 1_556 S
N456 C453 1.384 . S
N457 C449 1.427 . S
N457 C455 1.384 . S
H458 C464 0.930 . S
H459 C468 0.930 . S
H460 C473 0.929 . S
H461 C471 0.929 . S
H462 C466 0.929 . S
H463 C472 0.929 . S
C464 H458 0.930 . S
C464 C465 1.367 . S
C464 C472 1.378 . S
C465 C464 1.367 . S
C465 C473 1.433 . S
C466 H462 0.929 . S
C466 C468 1.378 . S
C466 C470 1.350 . S
C467 C470 1.463 1_554 S
C467 C472 1.350 . S
C467 N475 1.427 . S
C468 H459 0.930 . S
C468 C466 1.378 . S
C468 C469 1.367 . S
C469 C468 1.367 . S
C469 C471 1.433 . S
C470 C466 1.350 . S
C470 C467 1.463 1_556 S
C470 N474 1.427 1_556 S
C471 H461 0.929 . S
C471 C469 1.433 . S
C471 N474 1.384 1_556 S
C472 H463 0.929 . S
C472 C464 1.378 . S
C472 C467 1.350 . S
C473 H460 0.929 . S
C473 C465 1.433 . S
C473 N475 1.384 . S
N474 C470 1.427 1_554 S
N474 C471 1.384 1_554 S
N475 C467 1.427 . S
N475 C473 1.384 . S
H476 C482 0.930 . S
H477 C486 0.930 . S
H478 C491 0.929 . S
H479 C489 0.929 1_554 S
H480 C484 0.929 . S
H481 C490 0.929 . S
C482 H476 0.930 . S
C482 C483 1.367 . S
C482 C490 1.378 . S
C483 C482 1.367 . S
C483 C491 1.433 . S
C484 H480 0.929 . S
C484 C486 1.378 . S
C484 C488 1.350 1_556 S
C485 C488 1.463 . S
C485 C490 1.350 . S
C485 N493 1.427 . S
C486 H477 0.930 . S
C486 C484 1.378 . S
C486 C487 1.367 . S
C487 C486 1.367 . S
C487 C489 1.433 . S
C488 C484 1.350 1_554 S
C488 C485 1.463 . S
C488 N492 1.427 . S
C489 H479 0.929 1_556 S
C489 C487 1.433 . S
C489 N492 1.384 1_556 S
C490 H481 0.929 . S
C490 C482 1.378 . S
C490 C485 1.350 . S
C491 H478 0.929 . S
C491 C483 1.433 . S
C491 N493 1.384 . S
N492 C488 1.427 . S
N492 C489 1.384 1_554 S
N493 C485 1.427 . S
N493 C491 1.384 . S
H494 C500 0.930 . S
H495 C504 0.930 . S
H496 C509 0.929 . S
H497 C507 0.929 . S
H498 C502 0.929 . S
H499 C508 0.929 . S
C500 H494 0.930 . S
C500 C501 1.367 . S
C500 C508 1.378 . S
C501 C500 1.367 . S
C501 C509 1.433 . S
C502 H498 0.929 . S
C502 C504 1.378 . S
C502 C506 1.350 1_556 S
C503 C506 1.463 . S
C503 C508 1.350 . S
C503 N511 1.427 . S
C504 H495 0.930 . S
C504 C502 1.378 . S
C504 C505 1.367 . S
C505 C504 1.367 . S
C505 C507 1.433 . S
C506 C502 1.350 1_554 S
C506 C503 1.463 . S
C506 N510 1.427 . S
C507 H497 0.929 . S
C507 C505 1.433 . S
C507 N510 1.384 1_556 S
C508 H499 0.929 . S
C508 C500 1.378 . S
C508 C503 1.350 . S
C509 H496 0.929 . S
C509 C501 1.433 . S
C509 N511 1.384 . S
N510 C506 1.427 . S
N510 C507 1.384 1_554 S
N511 C503 1.427 . S
N511 C509 1.384 . S
H512 C518 0.930 . S
H513 C522 0.930 . S
H514 C527 0.929 . S
H515 C525 0.929 . S
H516 C520 0.929 . S
H517 C526 0.929 . S
C518 H512 0.930 . S
C518 C519 1.367 . S
C518 C526 1.378 . S
C519 C518 1.367 . S
C519 C527 1.433 . S
C520 H516 0.929 . S
C520 C522 1.378 . S
C520 C524 1.350 . S
C521 C524 1.463 . S
C521 C526 1.350 . S
C521 N529 1.427 . S
C522 H513 0.930 . S
C522 C520 1.378 . S
C522 C523 1.367 . S
C523 C522 1.367 . S
C523 C525 1.433 . S
C524 C520 1.350 . S
C524 C521 1.463 . S
C524 N528 1.427 . S
C525 H515 0.929 . S
C525 C523 1.433 . S
C525 N528 1.384 . S
C526 H517 0.929 . S
C526 C518 1.378 . S
C526 C521 1.350 . S
C527 H514 0.929 . S
C527 C519 1.433 . S
C527 N529 1.384 . S
N528 C524 1.427 . S
N528 C525 1.384 . S
N529 C521 1.427 . S
N529 C527 1.384 . S
H530 C536 0.930 . S
H531 C540 0.930 . S
H532 C545 0.929 . S
H533 C543 0.929 . S
H534 C538 0.929 . S
H535 C544 0.929 . S
C536 H530 0.930 . S
C536 C537 1.369 . S
C536 C544 1.378 . S
C537 C536 1.369 . S
C537 C545 1.430 1_565 S
C538 H534 0.929 . S
C538 C540 1.378 . S
C538 C542 1.350 . S
C539 C542 1.463 . S
C539 C544 1.349 1_545 S
C539 N547 1.428 . S
C540 H531 0.930 . S
C540 C538 1.378 . S
C540 C541 1.367 . S
C541 C540 1.367 . S
C541 C543 1.433 1_545 S
C542 C538 1.350 . S
C542 C539 1.463 . S
C542 N546 1.427 1_545 S
C543 H533 0.929 . S
C543 C541 1.433 1_565 S
C543 N546 1.384 . S
C544 H535 0.929 . S
C544 C536 1.378 . S
C544 C539 1.349 1_565 S
C545 H532 0.929 . S
C545 C537 1.430 1_545 S
C545 N547 1.384 . S
N546 C542 1.427 1_565 S
N546 C543 1.384 . S
N547 C539 1.428 . S
N547 C545 1.384 . S
H548 C554 0.930 . S
H549 C558 0.930 . S
H550 C563 0.929 . S
H551 C561 0.929 . S
H552 C556 0.929 . S
H553 C562 0.929 . S
C554 H548 0.930 . S
C554 C555 1.367 . S
C554 C562 1.378 . S
C555 C554 1.367 . S
C555 C563 1.433 . S
C556 H552 0.929 . S
C556 C558 1.378 . S
C556 C560 1.350 . S
C557 C560 1.463 . S
C557 C562 1.350 . S
C557 N565 1.427 . S
C558 H549 0.930 . S
C558 C556 1.378 . S
C558 C559 1.367 . S
C559 C558 1.367 . S
C559 C561 1.433 . S
C560 C556 1.350 . S
C560 C557 1.463 . S
C560 N564 1.427 . S
C561 H551 0.929 . S
C561 C559 1.433 . S
C561 N564 1.384 . S
C562 H553 0.929 . S
C562 C554 1.378 . S
C562 C557 1.350 . S
C563 H550 0.929 . S
C563 C555 1.433 . S
C563 N565 1.384 . S
N564 C560 1.427 . S
N564 C561 1.384 . S
N565 C557 1.427 . S
N565 C563 1.384 . S
H566 C572 0.930 . S
H567 C576 0.930 . S
H568 C581 0.929 . S
H569 C579 0.929 . S
H570 C574 0.929 . S
H571 C580 0.929 . S
C572 H566 0.930 . S
C572 C573 1.367 . S
C572 C580 1.378 . S
C573 C572 1.367 . S
C573 C581 1.433 . S
C574 H570 0.929 . S
C574 C576 1.378 . S
C574 C578 1.350 . S
C575 C578 1.463 . S
C575 C580 1.350 . S
C575 N583 1.427 . S
C576 H567 0.930 . S
C576 C574 1.378 . S
C576 C577 1.367 . S
C577 C576 1.367 . S
C577 C579 1.433 . S
C578 C574 1.350 . S
C578 C575 1.463 . S
C578 N582 1.427 . S
C579 H569 0.929 . S
C579 C577 1.433 . S
C579 N582 1.384 . S
C580 H571 0.929 . S
C580 C572 1.378 . S
C580 C575 1.350 . S
C581 H568 0.929 . S
C581 C573 1.433 . S
C581 N583 1.384 . S
N582 C578 1.427 . S
N582 C579 1.384 . S
N583 C575 1.427 . S
N583 C581 1.384 . S
C159 C61 1.437 . S
C163 C73 1.449 . S
C181 C108 1.736 . S
C177 C70 1.679 . S
C199 C113 1.292 . S
C195 C43 1.282 . S
C217 C133 1.605 . S
C213 C52 1.546 . S
C235 C81 1.453 . S
C231 C25 1.441 1_545 S
C249 C34 1.660 . S
C253 C98 1.739 . S
C267 C7 1.287 . S
C271 C121 1.298 . S
C285 C16 1.551 1_556 S
C289 C141 1.608 . S
C307 C91 1.139 . S
C303 C50 1.104 . S
C325 C100 0.767 1_545 S
C321 C59 0.784 . S
C343 C131 1.213 . S
C339 C67 1.200 . S
C357 C41 0.852 . S
C361 C151 0.856 . S
C375 C14 1.115 . S
C379 C80 1.137 . S
C397 C111 0.786 . S
C393 C23 0.767 1_545 S
C415 C120 1.229 . S
C411 C31 1.175 1_556 S
C429 C5 0.859 . S
C433 C140 0.848 . S
C447 C49 1.625 . S
C451 C78 1.648 . S
C465 C58 1.397 . S
C469 C101 1.470 . S
C487 C118 1.695 . S
C483 C68 1.630 . S
C505 C138 1.589 . S
C501 C40 1.554 . S
C519 C13 1.629 . S
C523 C88 1.648 . S
C541 C93 1.466 . S
C537 C22 1.413 . S
C559 C128 1.694 . S
C555 C32 1.619 . S
C573 C4 1.559 . S
C577 C148 1.583 . S
