# Generated by pormake.
# Topology zzz, (3,6)-cn, num edge types: 1
# Building blocks:
#     Node 0, Type 0, BuildingBlock: CUQRIR_clean_linker_1, # of connection points: 3
#     Node 1, Type 0, BuildingBlock: CUQRIR_clean_linker_1, # of connection points: 3
#     Node 2, Type 0, BuildingBlock: CUQRIR_clean_linker_1, # of connection points: 3
#     Node 3, Type 0, BuildingBlock: CUQRIR_clean_linker_1, # of connection points: 3
#     Node 4, Type 0, BuildingBlock: CUQRIR_clean_linker_1, # of connection points: 3
#     Node 5, Type 0, BuildingBlock: CUQRIR_clean_linker_1, # of connection points: 3
#     Node 6, Type 0, BuildingBlock: CUQRIR_clean_linker_1, # of connection points: 3
#     Node 7, Type 0, BuildingBlock: CUQRIR_clean_linker_1, # of connection points: 3
#     Node 8, Type 1, BuildingBlock: PAMTOO_clean_sbu_0, # of connection points: 6
#     Node 9, Type 1, BuildingBlock: PAMTOO_clean_sbu_0, # of connection points: 6
#     Node 10, Type 1, BuildingBlock: PAMTOO_clean_sbu_0, # of connection points: 6
#     Node 11, Type 1, BuildingBlock: PAMTOO_clean_sbu_0, # of connection points: 6
#     Edge 12, Type (0, 1), BuildingBlock: KIFKEQ_clean_linker_1, # of connection points: 2
#     Edge 13, Type (0, 1), BuildingBlock: KIFKEQ_clean_linker_1, # of connection points: 2
#     Edge 14, Type (0, 1), BuildingBlock: KIFKEQ_clean_linker_1, # of connection points: 2
#     Edge 15, Type (0, 1), BuildingBlock: KIFKEQ_clean_linker_1, # of connection points: 2
#     Edge 16, Type (0, 1), BuildingBlock: KIFKEQ_clean_linker_1, # of connection points: 2
#     Edge 17, Type (0, 1), BuildingBlock: KIFKEQ_clean_linker_1, # of connection points: 2
#     Edge 18, Type (0, 1), BuildingBlock: KIFKEQ_clean_linker_1, # of connection points: 2
#     Edge 19, Type (0, 1), BuildingBlock: KIFKEQ_clean_linker_1, # of connection points: 2
#     Edge 20, Type (0, 1), BuildingBlock: KIFKEQ_clean_linker_1, # of connection points: 2
#     Edge 21, Type (0, 1), BuildingBlock: KIFKEQ_clean_linker_1, # of connection points: 2
#     Edge 22, Type (0, 1), BuildingBlock: KIFKEQ_clean_linker_1, # of connection points: 2
#     Edge 23, Type (0, 1), BuildingBlock: KIFKEQ_clean_linker_1, # of connection points: 2
#     Edge 24, Type (0, 1), BuildingBlock: KIFKEQ_clean_linker_1, # of connection points: 2
#     Edge 25, Type (0, 1), BuildingBlock: KIFKEQ_clean_linker_1, # of connection points: 2
#     Edge 26, Type (0, 1), BuildingBlock: KIFKEQ_clean_linker_1, # of connection points: 2
#     Edge 27, Type (0, 1), BuildingBlock: KIFKEQ_clean_linker_1, # of connection points: 2
#     Edge 28, Type (0, 1), BuildingBlock: KIFKEQ_clean_linker_1, # of connection points: 2
#     Edge 29, Type (0, 1), BuildingBlock: KIFKEQ_clean_linker_1, # of connection points: 2
#     Edge 30, Type (0, 1), BuildingBlock: KIFKEQ_clean_linker_1, # of connection points: 2
#     Edge 31, Type (0, 1), BuildingBlock: KIFKEQ_clean_linker_1, # of connection points: 2
#     Edge 32, Type (0, 1), BuildingBlock: KIFKEQ_clean_linker_1, # of connection points: 2
#     Edge 33, Type (0, 1), BuildingBlock: KIFKEQ_clean_linker_1, # of connection points: 2
#     Edge 34, Type (0, 1), BuildingBlock: KIFKEQ_clean_linker_1, # of connection points: 2
#     Edge 35, Type (0, 1), BuildingBlock: KIFKEQ_clean_linker_1, # of connection points: 2
# Relax obj value: 0.255
# Max RMSD: 0.251
# Mean RMSD: 0.130
data_MOF--net-zzz--node1-PAMTOO_clean_sbu_0--node2-CUQRIR_clean_linker_1--edge1-KIFKEQ_clean_linker_1
_symmetry_space_group_name_H-M    P1
_symmetry_Int_Tables_number       1
_symmetry_cell_setting            triclinic
loop_
_symmetry_equiv_pos_as_xyz
'x, y, z'
_cell_length_a     53.908171
_cell_length_b     46.376089
_cell_length_c     14.244037
_cell_angle_alpha  92.664767
_cell_angle_beta   78.215609
_cell_angle_gamma 86.475929
loop_
_atom_site_label
_atom_site_type_symbol
_atom_site_fract_x
_atom_site_fract_y
_atom_site_fract_z
_atom_type_partial_charge
C0 C 0.79868 0.53249 0.58381 0.0
N1 N 0.81893 0.5155 0.59743 0.0
N2 N 0.78574 0.51825 0.5258 0.0
C3 C 0.79142 0.56265 0.62742 0.0
C4 C 0.7991 0.49231 0.50334 0.0
N5 N 0.81901 0.49046 0.54773 0.0
C6 C 0.79453 0.47034 0.42833 0.0
H7 H 0.79704 0.56525 0.69789 0.0
H8 H 0.77068 0.56794 0.63625 0.0
H9 H 0.80157 0.57809 0.57879 0.0
H10 H 0.81273 0.45988 0.38634 0.0
H11 H 0.78399 0.4804 0.37756 0.0
H12 H 0.78318 0.45335 0.4646 0.0
C13 C 1.01264 0.72549 0.54924 0.0
N14 N 0.02785 0.74758 0.55255 0.0
N15 N 1.02489 0.70347 0.48762 0.0
C16 C 0.98524 0.72653 0.59901 0.0
C17 C 0.04796 0.71328 0.45292 0.0
N18 N 0.0497 0.74017 0.49138 0.0
C19 C 0.06783 0.69767 0.37416 0.0
H20 H 0.97873 0.70437 0.60714 0.0
H21 H 0.97364 0.73844 0.55533 0.0
H22 H 0.98236 0.7383 0.67048 0.0
H23 H 0.06126 0.69842 0.30532 0.0
H24 H 0.07054 0.6746 0.38923 0.0
H25 H 0.08633 0.70751 0.36655 0.0
C26 C 0.78676 1.00559 0.43676 0.0
N27 N 0.7616 0.01118 0.43775 0.0
N28 N 0.80133 0.01308 0.35254 0.0
C29 C 0.79719 0.99425 0.51873 0.0
C30 C 0.78406 0.02324 0.30281 0.0
N31 N 0.76023 0.02205 0.35425 0.0
C32 C 0.79043 0.03342 0.20255 0.0
H33 H 0.81373 1.00627 0.5287 0.0
H34 H 0.80395 0.97117 0.50116 0.0
H35 H 0.78251 0.99597 0.58622 0.0
H36 H 0.8083 0.02201 0.16121 0.0
H37 H 0.79305 0.05695 0.20665 0.0
H38 H 0.77482 0.02988 0.16411 0.0
C39 C 0.53639 0.76478 0.35813 0.0
N40 N 0.52856 0.73754 0.36413 0.0
N41 N 0.52953 0.77755 0.28243 0.0
C42 C 0.55112 0.77859 0.42463 0.0
C43 C 0.51723 0.75706 0.24284 0.0
N44 N 0.51646 0.73289 0.29285 0.0
C45 C 0.50658 0.76028 0.15375 0.0
H46 H 0.54475 0.77166 0.49871 0.0
H47 H 0.54903 0.80253 0.42467 0.0
H48 H 0.57152 0.77138 0.4001 0.0
H49 H 0.51386 0.77883 0.11298 0.0
H50 H 0.48561 0.76383 0.17485 0.0
H51 H 0.51113 0.74015 0.10643 0.0
C52 C 0.27197 0.4907 0.0612 0.0
N53 N 0.25219 0.50897 0.05077 0.0
N54 N 0.2882 0.50486 0.10525 0.0
C55 C 0.27431 0.45879 0.03565 0.0
C56 C 0.27731 0.5322 0.12215 0.0
N57 N 0.25533 0.53466 0.09023 0.0
C58 C 0.2869 0.55574 0.17898 0.0
H59 H 0.29434 0.44997 0.02595 0.0
H60 H 0.26713 0.45424 0.96918 0.0
H61 H 0.26253 0.44784 0.09476 0.0
H62 H 0.3072 0.55829 0.14838 0.0
H63 H 0.28542 0.54953 0.25414 0.0
H64 H 0.27613 0.57688 0.17863 0.0
C65 C 0.03871 0.29882 0.14146 0.0
N66 N 0.02857 0.27306 0.13127 0.0
N67 N 0.02869 0.31205 0.2297 0.0
C68 C 0.05843 0.31076 0.06632 0.0
C69 C 1.01259 0.29299 0.27286 0.0
N70 N 1.01237 0.26966 0.21291 0.0
C71 C 0.99902 0.29584 0.37671 0.0
H72 H 0.07754 0.30351 0.07766 0.0
H73 H 0.0565 0.33478 0.07188 0.0
H74 H 0.05682 0.30263 0.99344 0.0
H75 H 0.9811 0.30959 0.38324 0.0
H76 H 1.01085 0.30635 0.4217 0.0
H77 H 0.99411 0.27453 0.40459 0.0
C78 C 0.26594 0.01893 0.23545 0.0
N79 N 0.29106 0.01487 0.23773 0.0
N80 N 0.25122 0.01878 0.32573 0.0
C81 C 0.25584 0.02213 0.1458 0.0
C82 C 0.26831 0.01432 0.38217 0.0
N83 N 0.29219 0.01209 0.3291 0.0
C84 C 0.26154 0.01194 0.48926 0.0
H85 H 0.26879 0.03427 0.09365 0.0
H86 H 0.2365 0.03328 0.16235 0.0
H87 H 0.25481 1.00029 0.11222 0.0
H88 H 0.24443 0.99958 0.50886 0.0
H89 H 0.257 0.034 0.52466 0.0
H90 H 0.2774 1.00142 0.51696 0.0
C91 C 0.51779 0.25607 0.32323 0.0
N92 N 0.52414 0.28398 0.32507 0.0
N93 N 0.5223 0.24301 0.4023 0.0
C94 C 0.50744 0.24159 0.24463 0.0
C95 C 0.53157 0.26393 0.45196 0.0
N96 N 0.53281 0.28862 0.405 0.0
C97 C 0.53881 0.26049 0.54765 0.0
H98 H 0.48661 0.24682 0.25837 0.0
H99 H 0.51111 0.21774 0.24254 0.0
H100 H 0.51595 0.24977 0.17412 0.0
H101 H 0.55974 0.25637 0.53593 0.0
H102 H 0.52986 0.24211 0.5849 0.0
H103 H 0.53329 0.28064 0.59439 0.0
Dy104 Dy 1.01214 0.01771 0.76174 0.0
Dy105 Dy 0.04256 1.00518 0.93174 0.0
C106 C 0.0732 0.01574 0.71878 0.0
O107 O 1.00621 0.97239 0.80271 0.0
O108 O 0.0433 0.96217 0.85045 0.0
O109 O 1.00392 1.00151 0.62781 0.0
O110 O 0.98287 0.03988 0.70365 0.0
O111 O 1.00168 0.9971 0.99393 0.0
O112 O 0.98352 0.02671 0.89938 0.0
O113 O 0.03352 0.05325 0.94271 0.0
O114 O 0.02663 0.06105 0.7914 0.0
O115 O 0.04342 1.00501 0.08323 0.0
O116 O 0.0774 0.99276 0.97552 0.0
C117 C 1.02415 0.95351 0.81503 0.0
O118 O 0.05308 1.00958 0.68481 0.0
O119 O 0.07161 0.02049 0.8116 0.0
C120 C 0.98842 0.0365 0.53647 0.0
C121 C 0.98806 0.07191 0.38274 0.0
C122 C 1.0101 0.06774 0.42073 0.0
C123 C 1.01023 0.05021 0.49733 0.0
C124 C 0.96716 0.0386 0.49414 0.0
C125 C 0.96697 0.05621 0.41741 0.0
C126 C 0.98674 0.02245 0.62673 0.0
C127 C 0.98167 0.01203 0.97678 0.0
C128 C 0.03136 0.07076 0.87406 0.0
C129 C 0.07238 0.96918 0.11921 0.0
C130 C 0.08503 0.92062 0.21557 0.0
C131 C 0.07761 0.91717 0.12687 0.0
C132 C 0.07124 0.94123 0.07931 0.0
C133 C 0.07946 0.97284 0.20822 0.0
C134 C 0.08562 0.94867 0.25653 0.0
C135 C 0.06697 0.99446 0.06672 0.0
H136 H 1.02655 0.07984 0.39677 0.0
H137 H 0.02679 0.0487 0.52956 0.0
H138 H 0.95024 0.02788 0.52365 0.0
H139 H 0.94985 0.05888 0.38897 0.0
H140 H 0.07638 0.8958 0.09479 0.0
H141 H 0.06559 0.938 1.01102 0.0
H142 H 0.08037 0.99434 0.23994 0.0
H143 H 0.09113 0.95188 0.32506 0.0
Dy144 Dy 0.52548 0.9883 0.74701 0.0
Dy145 Dy 0.52727 0.03093 0.93218 0.0
C146 C 0.51904 0.05689 0.73632 0.0
O147 O 0.56657 0.98526 0.75594 0.0
O148 O 0.56732 0.02786 0.84277 0.0
O149 O 0.53987 0.97488 0.5976 0.0
O150 O 0.51067 0.95169 0.68381 0.0
O151 O 0.54133 0.98767 0.97324 0.0
O152 O 0.52468 0.95937 0.86846 0.0
O153 O 0.48832 0.01435 0.95988 0.0
O154 O 0.48457 1.00541 0.80461 0.0
O155 O 0.51547 0.0429 0.08368 0.0
O156 O 0.53838 0.07091 0.99006 0.0
C157 C 0.57922 1.00612 0.78467 0.0
O158 O 0.52939 0.03244 0.69117 0.0
O159 O 0.51136 0.05871 0.83023 0.0
C160 C 0.5075 0.95811 0.52567 0.0
C161 C 0.46681 0.96408 0.43198 0.0
C162 C 0.47911 0.9885 0.45442 0.0
C163 C 0.49923 0.98556 0.50163 0.0
C164 C 0.49698 0.93344 0.49457 0.0
C165 C 0.47667 0.9364 0.44795 0.0
C166 C 0.52325 0.95562 0.59755 0.0
C167 C 0.53465 0.96242 0.9448 0.0
C168 C 0.47413 1.00978 0.89671 0.0
C169 C 0.54682 0.06679 0.14381 0.0
C170 C 0.58729 0.06885 0.24006 0.0
C171 C 0.57723 0.04236 0.22257 0.0
C172 C 0.55727 0.04131 0.17437 0.0
C173 C 0.55568 0.09349 0.16672 0.0
C174 C 0.57587 0.09453 0.21437 0.0
C175 C 0.52904 0.0653 0.07857 0.0
H176 H 0.47173 1.01008 0.44356 0.0
H177 H 0.50698 1.00492 0.52572 0.0
H178 H 0.50317 0.91213 0.51276 0.0
H179 H 0.46757 0.91727 0.43037 0.0
H180 H 0.58589 0.02218 0.24026 0.0
H181 H 0.55093 0.02039 0.15679 0.0
H182 H 0.54783 0.11336 0.14356 0.0
H183 H 0.58323 0.11522 0.2276 0.0
Dy184 Dy 0.55511 0.51829 0.89446 0.0
Dy185 Dy 0.50244 0.50683 0.80607 0.0
C186 C 0.52039 0.46439 0.95818 0.0
O187 O 0.56273 0.47881 0.79477 0.0
O188 O 0.53873 0.4983 0.69869 0.0
O189 O 0.59616 0.51975 0.88197 0.0
O190 O 0.56957 0.52854 0.02121 0.0
O191 O 0.51387 0.5502 0.76049 0.0
O192 O 0.55536 0.55099 0.78107 0.0
O193 O 0.48803 0.52909 0.95202 0.0
O194 O 0.52457 0.55168 0.96028 0.0
O195 O 0.46528 0.51935 0.77742 0.0
O196 O 0.48683 0.47975 0.70739 0.0
C197 C 0.55545 0.47824 0.71265 0.0
O198 O 0.53546 0.4838 0.98053 0.0
O199 O 0.50792 0.46756 0.8883 0.0
C200 C 0.61425 0.53151 0.02375 0.0
C201 C 0.6528 0.53656 0.13104 0.0
C202 C 0.62868 0.55108 0.16362 0.0
C203 C 0.60958 0.54841 0.11094 0.0
C204 C 0.63863 0.51796 0.98895 0.0
C205 C 0.65766 0.52029 0.04239 0.0
C206 C 0.59314 0.52617 0.97432 0.0
C207 C 0.53591 0.56181 0.74698 0.0
C208 C 0.50021 0.54889 0.98968 0.0
C209 C 0.44602 0.49175 0.66292 0.0
C210 C 0.41077 0.48624 0.54096 0.0
C211 C 0.43138 0.46557 0.53406 0.0
C212 C 0.44886 0.46835 0.59409 0.0
C213 C 0.42478 0.51164 0.67281 0.0
C214 C 0.4074 0.50894 0.61256 0.0
C215 C 0.46658 0.49736 0.71542 0.0
H216 H 0.62424 0.56357 0.23187 0.0
H217 H 0.59095 0.5591 0.13961 0.0
H218 H 0.64272 0.5047 0.92222 0.0
H219 H 0.67611 0.50902 0.01499 0.0
H220 H 0.43466 0.44794 0.47936 0.0
H221 H 0.46514 0.45277 0.58396 0.0
H222 H 0.42204 0.52994 0.72486 0.0
H223 H 0.39153 0.52501 0.62085 0.0
Dy224 Dy 0.03756 0.54085 0.77828 0.0
Dy225 Dy 0.02728 0.48329 0.90127 0.0
C226 C 0.04699 0.47767 0.67664 0.0
O227 O 0.99525 0.54106 0.82616 0.0
O228 O 0.99261 0.49245 0.84051 0.0
O229 O 0.02795 0.56815 0.6706 0.0
O230 O 0.05599 0.58059 0.7511 0.0
O231 O 1.00997 0.52007 1.00917 0.0
O232 O 0.03081 0.55678 0.93114 0.0
O233 O 0.06474 0.49649 0.92274 0.0
O234 O 0.07664 0.5221 0.78875 0.0
O235 O 1.02594 0.45832 0.02629 0.0
O236 O 1.01997 0.43816 0.89348 0.0
C237 C 0.98226 0.51798 0.82791 0.0
O238 O 0.03719 0.50398 0.67152 0.0
O239 O 0.05198 0.46938 0.75796 0.0
C240 C 0.06086 0.59552 0.59355 0.0
C241 C 0.0953 0.61183 0.43151 0.0
C242 C 0.08433 0.58501 0.43033 0.0
C243 C 0.06727 0.57696 0.5105 0.0
C244 C 0.07087 0.62266 0.59424 0.0
C245 C 0.08772 0.63091 0.51361 0.0
C246 C 0.04461 0.58658 0.68127 0.0
C247 C 1.0169 0.54689 1.00778 0.0
C248 C 0.08225 0.5083 0.86167 0.0
C249 C 0.99822 0.42106 0.03676 0.0
C250 C 0.9574 0.39748 0.15538 0.0
C251 C 0.95341 0.42279 0.1082 0.0
C252 C 0.97371 0.43451 0.04926 0.0
C253 C 1.00204 0.39476 0.07831 0.0
C254 C 0.98163 0.38294 0.13716 0.0
C255 C 1.01989 0.43503 0.98387 0.0
H256 H 0.09002 0.56932 0.36991 0.0
H257 H 0.05986 0.55579 0.50867 0.0
H258 H 0.06587 0.63737 0.65765 0.0
H259 H 0.09532 0.65192 0.51679 0.0
H260 H 0.93493 0.4346 0.12218 0.0
H261 H 0.9705 0.45474 0.01691 0.0
H262 H 1.02088 0.38394 0.06798 0.0
H263 H 0.98487 0.3631 0.1711 0.0
H264 H 0.2167 0.98155 0.2921 0.0
H265 H 0.22443 0.06228 0.4407 0.0
H266 H 0.17236 0.98166 0.38023 0.0
H267 H 0.18034 0.0629 0.52816 0.0
H268 H 0.11723 0.03363 0.76231 0.0
H269 H 0.15848 0.03594 0.65649 0.0
H270 H 0.12827 1.00433 0.41604 0.0
H271 H 0.08667 1.00179 0.52296 0.0
C272 C 0.20858 0.99979 0.34129 0.0
C273 C 0.22388 0.02204 0.35905 0.0
C274 C 0.18323 0.99984 0.39235 0.0
C275 C 0.17269 0.02208 0.4629 0.0
C276 C 0.18778 0.04509 0.47618 0.0
C277 C 0.21296 0.04501 0.42519 0.0
C278 C 0.1192 0.02724 0.6869 0.0
C279 C 0.09837 0.01759 0.65173 0.0
C280 C 0.14297 0.02877 0.62568 0.0
C281 C 0.14689 0.02059 0.52694 0.0
C282 C 0.12612 0.01073 0.49153 0.0
C283 C 0.10216 1.00942 0.55293 0.0
H284 H 0.48174 0.22563 0.52339 0.0
H285 H 0.5547 0.19584 0.35112 0.0
H286 H 0.47858 0.17909 0.59854 0.0
H287 H 0.55211 0.14927 0.42621 0.0
H288 H 0.53343 0.0613 0.54126 0.0
H289 H 0.53171 0.10444 0.45041 0.0
H290 H 0.49844 0.15508 0.71312 0.0
H291 H 0.49979 0.11191 0.80367 0.0
C292 C 0.49676 0.20867 0.5 0.0
C293 C 0.51825 0.21395 0.43071 0.0
C294 C 0.49521 0.18219 0.54384 0.0
C295 C 0.51522 0.16036 0.51951 0.0
C296 C 0.53621 0.16532 0.44645 0.0
C297 C 0.53774 0.1919 0.403 0.0
C298 C 0.52556 0.08159 0.57975 0.0
C299 C 0.51678 0.08301 0.68021 0.0
C300 C 0.5247 0.10642 0.52748 0.0
C301 C 0.51492 0.13342 0.57402 0.0
C302 C 0.50573 0.13468 0.67426 0.0
C303 C 0.50666 0.10987 0.72654 0.0
H304 H 0.2849 0.46782 0.24739 0.0
H305 H 0.33694 0.51773 0.0625 0.0
H306 H 0.31645 0.45936 0.34764 0.0
H307 H 0.36839 0.50986 0.16262 0.0
H308 H 0.39391 0.53119 0.44785 0.0
H309 H 0.36637 0.53033 0.33193 0.0
H310 H 0.36166 0.43831 0.35568 0.0
H311 H 0.38936 0.43915 0.47288 0.0
C312 C 0.30347 0.47605 0.22645 0.0
C313 C 0.30861 0.4934 0.14747 0.0
C314 C 0.32146 0.47142 0.284 0.0
C315 C 0.34476 0.48438 0.26402 0.0
C316 C 0.35048 0.49997 0.18084 0.0
C317 C 0.33264 0.50427 0.12304 0.0
C318 C 0.38693 0.51076 0.42897 0.0
C319 C 0.39374 0.48528 0.47032 0.0
C320 C 0.37137 0.5102 0.36154 0.0
C321 C 0.36196 0.48421 0.33395 0.0
C322 C 0.36859 0.45867 0.3755 0.0
C323 C 0.38453 0.45915 0.44226 0.0
H324 H 0.075 0.32836 0.24936 0.0
H325 H 0.99522 0.35529 0.31571 0.0
H326 H 0.08347 0.37092 0.34486 0.0
H327 H 1.00348 0.39799 0.40763 0.0
H328 H 0.02762 0.48266 0.51429 0.0
H329 H 1.02632 0.44476 0.39078 0.0
H330 H 0.07063 0.38569 0.52775 0.0
H331 H 0.07176 0.42347 0.65217 0.0
C332 C 0.05943 0.34388 0.28163 0.0
C333 C 0.0345 0.33893 0.27322 0.0
C334 C 0.0642 0.36805 0.33691 0.0
C335 C 0.04415 0.38796 0.3832 0.0
C336 C 1.0194 0.38343 0.37155 0.0
C337 C 1.01465 0.35906 0.31841 0.0
C338 C 0.03751 0.46178 0.5173 0.0
C339 C 0.04965 0.4561 0.59376 0.0
C340 C 0.03667 0.44003 0.4466 0.0
C341 C 0.04828 0.41218 0.44968 0.0
C342 C 0.06167 0.40697 0.52291 0.0
C343 C 0.0622 0.42861 0.59451 0.0
H344 H 0.82856 0.05912 0.31099 0.0
H345 H 0.83572 0.96648 0.32107 0.0
H346 H 0.87317 0.05884 0.23025 0.0
H347 H 0.88067 0.96581 0.23889 0.0
H348 H 0.9671 0.98 0.1361 0.0
H349 H 0.92469 0.97996 0.24016 0.0
H350 H 0.89616 0.04379 0.07006 0.0
H351 H 0.93804 0.04405 0.96786 0.0
C352 C 0.83994 0.03871 0.29728 0.0
C353 C 0.82871 0.01286 0.32229 0.0
C354 C 0.86546 0.03845 0.25014 0.0
C355 C 0.8806 0.01224 0.22616 0.0
C356 C 0.86972 0.98642 0.25627 0.0
C357 C 0.84401 0.98674 0.30366 0.0
C358 C 0.95179 0.99413 0.12135 0.0
C359 C 0.9562 0.01209 0.0433 0.0
C360 C 0.9274 0.99399 0.18079 0.0
C361 C 0.90686 0.01203 0.16439 0.0
C362 C 0.91145 0.02998 0.08654 0.0
C363 C 0.93561 0.02998 0.02715 0.0
H364 H 0.56374 0.78834 0.12516 0.0
H365 H 0.50719 0.82951 0.35792 0.0
H366 H 0.56842 0.83453 0.04863 0.0
H367 H 0.5116 0.87606 0.28201 0.0
H368 H 0.53846 0.95963 0.13477 0.0
H369 H 0.54037 0.91596 0.22536 0.0
H370 H 0.53941 0.86293 0.96904 0.0
H371 H 0.53741 0.90605 0.87964 0.0
C372 C 0.55274 0.80757 0.16066 0.0
C373 C 0.53514 0.80556 0.24697 0.0
C374 C 0.55521 0.83393 0.11681 0.0
C375 C 0.54016 0.85899 0.15855 0.0
C376 C 0.52357 0.85727 0.24811 0.0
C377 C 0.52101 0.83073 0.29163 0.0
C378 C 0.53895 0.9386 0.09777 0.0
C379 C 0.53777 0.93638 0.99987 0.0
C380 C 0.53989 0.9136 0.14976 0.0
C381 C 0.54019 0.88588 0.1044 0.0
C382 C 0.53958 0.88382 1.00612 0.0
C383 C 0.53826 0.90865 0.95487 0.0
H384 H 0.7418 0.4929 0.55206 0.0
H385 H 0.78026 0.56334 0.41566 0.0
H386 H 0.70842 0.49991 0.46018 0.0
H387 H 0.74663 0.57081 0.32343 0.0
H388 H 0.66745 0.58314 0.22792 0.0
H389 H 0.6979 0.58276 0.33487 0.0
H390 H 0.71182 0.49026 0.28046 0.0
H391 H 0.68163 0.49062 0.17409 0.0
C392 C 0.74258 0.51049 0.50436 0.0
C393 C 0.76346 0.5276 0.49079 0.0
C394 C 0.7237 0.51433 0.45103 0.0
C395 C 0.72513 0.53558 0.38332 0.0
C396 C 0.74501 0.55426 0.37509 0.0
C397 C 0.76413 0.55018 0.42816 0.0
C398 C 0.67709 0.56276 0.2388 0.0
C399 C 0.67217 0.5369 0.1923 0.0
C400 C 0.69457 0.56258 0.29967 0.0
C401 C 0.70708 0.53646 0.31679 0.0
C402 C 0.70225 0.5107 0.26972 0.0
C403 C 0.68515 0.51094 0.20793 0.0
H404 H 0.03752 0.64725 0.50037 0.0
H405 H 0.98955 0.7053 0.37822 0.0
H406 H 0.0294 0.60697 0.39623 0.0
H407 H 0.97985 0.66516 0.27694 0.0
H408 H 1.00901 0.60484 1.00611 0.0
H409 H 1.00449 0.64076 0.13776 0.0
H410 H 1.00342 0.57298 0.33657 0.0
H411 H 1.00866 0.53646 0.20164 0.0
C412 C 1.02458 0.65097 0.45306 0.0
C413 C 1.01447 0.67917 0.44627 0.0
C414 C 1.01969 0.62797 0.39369 0.0
C415 C 1.00429 0.63273 0.3263 0.0
C416 C 0.99231 0.66068 0.32609 0.0
C417 C 0.9975 0.68367 0.38495 0.0
C418 C 1.00743 0.59744 0.07802 0.0
C419 C 1.00944 0.56771 0.09308 0.0
C420 C 1.00455 0.6182 0.15422 0.0
C421 C 1.00356 0.61001 0.24862 0.0
C422 C 1.00433 0.58016 0.26477 0.0
C423 C 1.00709 0.55919 0.18773 0.0
H424 H 0.96849 0.24784 0.19212 0.0
H425 H 0.03828 0.22944 0.28722 0.0
H426 H 0.95868 0.19675 0.20728 0.0
H427 H 0.02893 0.17878 0.30234 0.0
H428 H 1.02326 0.08837 0.23176 0.0
H429 H 1.02592 0.13762 0.18044 0.0
H430 H 0.95048 0.16095 0.34625 0.0
H431 H 0.94803 0.11208 0.40116 0.0
C432 C 0.98128 0.23285 0.21861 0.0
C433 C 1.00385 0.24207 0.24018 0.0
C434 C 0.97592 0.2038 0.22601 0.0
C435 C 0.99337 0.18387 0.25365 0.0
C436 C 1.01547 0.1936 0.27855 0.0
C437 C 1.02061 0.22249 0.272 0.0
C438 C 1.00691 0.10372 0.25465 0.0
C439 C 0.98576 0.09664 0.32255 0.0
C440 C 1.00841 0.13184 0.22493 0.0
C441 C 0.98862 0.15304 0.26098 0.0
C442 C 0.96601 0.14494 0.31782 0.0
C443 C 0.96461 0.11686 0.34874 0.0
H444 H 0.32778 0.049 0.34059 0.0
H445 H 0.3085 0.9613 0.38375 0.0
H446 H 0.37055 0.03654 0.36661 0.0
H447 H 0.35145 0.94793 0.40521 0.0
H448 H 0.4243 0.9401 0.51902 0.0
H449 H 0.38093 0.95263 0.50448 0.0
H450 H 0.40831 0.01074 0.28358 0.0
H451 H 0.45182 0.99847 0.30001 0.0
C452 C 0.3328 0.02717 0.35764 0.0
C453 C 0.31521 1.00609 0.36192 0.0
C454 C 0.35726 0.01984 0.37073 0.0
C455 C 0.36456 0.99112 0.38665 0.0
C456 C 0.34643 0.97031 0.3943 0.0
C457 C 0.32188 0.97783 0.38253 0.0
C458 C 0.42107 0.95496 0.46552 0.0
C459 C 0.44135 0.96811 0.4098 0.0
C460 C 0.39619 0.96227 0.45751 0.0
C461 C 0.39109 0.98273 0.39298 0.0
C462 C 0.41153 0.99519 0.33497 0.0
C463 C 0.43644 0.98801 0.34352 0.0
H464 H 0.57737 0.30081 0.45033 0.0
H465 H 0.50309 0.33802 0.43693 0.0
H466 H 0.58836 0.34783 0.51067 0.0
H467 H 0.51377 0.38494 0.49624 0.0
H468 H 0.5433 0.47021 0.5372 0.0
H469 H 0.54161 0.42413 0.45029 0.0
H470 H 0.57489 0.37959 0.65946 0.0
H471 H 0.57699 0.42571 0.74572 0.0
C472 C 0.56348 0.31916 0.46062 0.0
C473 C 0.53944 0.31611 0.43957 0.0
C474 C 0.56972 0.34596 0.49461 0.0
C475 C 0.55201 0.37012 0.5074 0.0
C476 C 0.52803 0.36692 0.48525 0.0
C477 C 0.52181 0.34015 0.45191 0.0
C478 C 0.55083 0.45066 0.56343 0.0
C479 C 0.55994 0.45155 0.64909 0.0
C480 C 0.54969 0.42427 0.51397 0.0
C481 C 0.55764 0.39823 0.54918 0.0
C482 C 0.56867 0.3993 0.63046 0.0
C483 C 0.56984 0.42575 0.67995 0.0
H484 H 0.22906 0.56645 0.98303 0.0
H485 H 0.23472 0.55012 0.27343 0.0
H486 H 0.19024 0.59835 0.04442 0.0
H487 H 0.19707 0.58208 0.33478 0.0
H488 H 0.13734 0.64 0.45145 0.0
H489 H 0.17866 0.63301 0.34594 0.0
H490 H 0.14641 0.58682 0.1351 0.0
H491 H 0.10431 0.59576 0.23769 0.0
C492 C 0.22231 0.57039 0.05978 0.0
C493 C 0.23493 0.55646 0.12395 0.0
C494 C 0.2003 0.58856 0.09476 0.0
C495 C 0.19099 0.59324 0.19431 0.0
C496 C 0.20422 0.57981 0.25779 0.0
C497 C 0.22577 0.56147 0.22296 0.0
C498 C 0.13852 0.62977 0.38069 0.0
C499 C 0.11755 0.61719 0.35515 0.0
C500 C 0.16242 0.6256 0.32031 0.0
C501 C 0.16584 0.60833 0.23448 0.0
C502 C 0.14438 0.59984 0.20174 0.0
C503 C 0.1203 0.60455 0.26142 0.0
H504 H 0.07681 0.77473 0.58416 0.0
H505 H 0.05966 0.75381 0.3075 0.0
H506 H 0.09484 0.81939 0.5239 0.0
H507 H 0.07868 0.79699 0.24588 0.0
H508 H 0.11547 0.87264 0.14017 0.0
H509 H 0.11735 0.8259 0.21146 0.0
H510 H 0.06942 0.86321 0.4751 0.0
H511 H 0.06759 0.91 0.4038 0.0
C512 C 0.07788 0.77914 0.50955 0.0
C513 C 0.06691 0.76096 0.45029 0.0
C514 C 0.08813 0.80457 0.47521 0.0
C515 C 0.08816 0.8116 0.38029 0.0
C516 C 0.07933 0.79193 0.31888 0.0
C517 C 0.06859 0.76704 0.35383 0.0
C518 C 0.10585 0.87098 0.21412 0.0
C519 C 0.09093 0.89468 0.26588 0.0
C520 C 0.10704 0.84432 0.25496 0.0
C521 C 0.09331 0.84091 0.34823 0.0
C522 C 0.0804 0.8653 0.40331 0.0
C523 C 0.07924 0.89205 0.36238 0.0
H524 H 0.74415 0.07601 0.32215 0.0
H525 H 0.72391 0.98768 0.32863 0.0
H526 H 0.70112 0.09196 0.30398 0.0
H527 H 0.68106 1.00311 0.31037 0.0
H528 H 0.60092 0.03982 0.38624 0.0
H529 H 0.64392 0.03084 0.41354 0.0
H530 H 0.67194 0.08756 0.18966 0.0
H531 H 0.62896 0.09665 0.16284 0.0
C532 C 0.73053 0.06008 0.3173 0.0
C533 C 0.73694 0.03076 0.32645 0.0
C534 C 0.70599 0.06909 0.30779 0.0
C535 C 0.68765 0.04881 0.30779 0.0
C536 C 0.69461 0.0193 0.31266 0.0
C537 C 0.71908 1.01039 0.32178 0.0
C538 C 0.61622 0.05078 0.34431 0.0
C539 C 0.61171 0.0687 0.27192 0.0
C540 C 0.6408 0.04552 0.35938 0.0
C541 C 0.66129 0.05802 0.30212 0.0
C542 C 0.65649 0.07767 0.2348 0.0
C543 C 0.63187 0.08297 0.21982 0.0
H544 H 0.5438 0.68175 0.26112 0.0
H545 H 0.46961 0.72236 0.26341 0.0
H546 H 0.53002 0.63528 0.21287 0.0
H547 H 0.45584 0.67575 0.21044 0.0
H548 H 0.47249 0.59682 0.959 0.0
H549 H 0.47012 0.6427 0.05353 0.0
H550 H 0.49889 0.59797 0.27267 0.0
H551 H 0.50142 0.55233 0.17747 0.0
C552 C 0.52439 0.68053 0.25265 0.0
C553 C 0.50773 0.70548 0.2663 0.0
C554 C 0.51643 0.65397 0.2252 0.0
C555 C 0.49171 0.65181 0.20909 0.0
C556 C 0.47495 0.6768 0.22278 0.0
C557 C 0.48284 0.7034 0.25215 0.0
C558 C 0.4767 0.59662 0.03019 0.0
C559 C 0.48685 0.57113 0.06176 0.0
C560 C 0.4756 0.62291 0.08395 0.0
C561 C 0.48484 0.62394 0.16944 0.0
C562 C 0.49196 0.59783 0.20639 0.0
C563 C 0.49304 0.57164 0.15273 0.0
H564 H 0.86859 0.49793 0.48656 0.0
H565 H 0.81536 0.43274 0.559 0.0
H566 H 0.90239 0.46054 0.42744 0.0
H567 H 0.84911 0.39484 0.49067 0.0
H568 H 0.96147 0.39668 0.34063 0.0
H569 H 0.92619 0.40892 0.47631 0.0
H570 H 0.87317 0.39736 0.29059 0.0
H571 H 0.90853 0.38567 0.15423 0.0
C572 C 0.86437 0.47554 0.49348 0.0
C573 C 0.83949 0.46817 0.52814 0.0
C574 C 0.88368 0.45409 0.45918 0.0
C575 C 0.8783 0.42488 0.45565 0.0
C576 C 0.85368 0.41723 0.49417 0.0
C577 C 0.83447 0.4388 0.53208 0.0
C578 C 0.94228 0.39483 0.33008 0.0
C579 C 0.93758 0.39063 0.23719 0.0
C580 C 0.92211 0.40188 0.40779 0.0
C581 C 0.89714 0.40435 0.39315 0.0
C582 C 0.89232 0.39538 0.30349 0.0
C583 C 0.91251 0.3888 0.22541 0.0
H584 H 0.0719 0.23833 0.08836 0.0
H585 H 0.99935 0.25461 0.01289 0.0
H586 H 0.07642 0.19008 1.00635 0.0
H587 H 1.00296 0.20625 0.93406 0.0
H588 H 1.01663 0.11742 0.77898 0.0
H589 H 1.02063 0.16886 0.81562 0.0
H590 H 0.05831 0.14644 0.04501 0.0
H591 H 0.05404 0.09555 1.00934 0.0
C592 C 0.05747 0.232 0.05023 0.0
C593 C 0.03549 0.25036 0.05544 0.0
C594 C 0.05967 0.20406 1.00515 0.0
C595 C 0.03981 0.19371 0.96472 0.0
C596 C 1.01881 0.2132 0.96314 0.0
C597 C 1.01675 0.24111 1.00772 0.0
C598 C 1.02585 0.12352 0.837 0.0
C599 C 0.03471 0.10221 0.89183 0.0
C600 C 0.02808 0.1531 0.85838 0.0
C601 C 0.03961 0.16218 0.93422 0.0
C602 C 0.04938 0.14063 0.98601 0.0
C603 C 0.04673 0.11124 0.96593 0.0
H604 H 0.31237 0.05732 0.1302 0.0
H605 H 0.32171 0.96675 0.17723 0.0
H606 H 0.35618 0.05519 0.03475 0.0
H607 H 0.36558 0.96464 0.08573 0.0
H608 H 0.44978 0.98927 0.06455 0.0
H609 H 0.40418 0.9888 0.12874 0.0
H610 H 0.3886 0.02948 0.87896 0.0
H611 H 0.43463 0.02861 0.8117 0.0
C612 C 0.32346 0.03672 0.11688 0.0
C613 C 0.3134 0.01208 0.15985 0.0
C614 C 0.34866 0.03552 0.06317 0.0
C615 C 0.3646 1.00978 0.05303 0.0
C616 C 0.35402 0.98487 0.09226 0.0
C617 C 0.32877 0.98597 0.14385 0.0
C618 C 0.4367 0.99791 0.02261 0.0
C619 C 0.44601 1.00888 0.93258 0.0
C620 C 0.41049 0.99765 0.05961 0.0
C621 C 0.39258 1.00925 1.00959 0.0
C622 C 0.4018 0.02046 0.91968 0.0
C623 C 0.42818 0.01982 0.88089 0.0
H624 H 0.56339 0.31144 0.23225 0.0
H625 H 0.48281 0.3057 0.26291 0.0
H626 H 0.56138 0.35434 0.14003 0.0
H627 H 0.48047 0.34892 0.17012 0.0
H628 H 0.49317 0.41703 0.93272 0.0
H629 H 0.49354 0.37124 1.0119 0.0
H630 H 0.54439 0.40427 0.18212 0.0
H631 H 0.54423 0.4496 0.10336 0.0
C632 C 0.54531 0.31913 0.2172 0.0
C633 C 0.5233 0.30527 0.25431 0.0
C634 C 0.54404 0.34389 0.16539 0.0
C635 C 0.52068 0.35551 0.14888 0.0
C636 C 0.4988 0.34059 0.18119 0.0
C637 C 0.5001 0.31574 0.2337 0.0
C638 C 0.50428 0.41462 0.98755 0.0
C639 C 0.51873 0.43718 1.01106 0.0
C640 C 0.50446 0.38832 0.03306 0.0
C641 C 0.51927 0.38381 0.1026 0.0
C642 C 0.53319 0.40664 0.1275 0.0
C643 C 0.53291 0.43286 0.08263 0.0
H644 H 0.20748 0.49647 0.1577 0.0
H645 H 0.24587 0.50878 0.86841 0.0
H646 H 0.16701 0.49496 0.10558 0.0
H647 H 0.20553 0.5068 0.81409 0.0
H648 H 0.12351 0.5389 0.78563 0.0
H649 H 0.16566 0.53589 0.82629 0.0
H650 H 0.14295 0.46764 0.01478 0.0
H651 H 0.10115 0.47106 0.97629 0.0
C652 C 0.20723 0.49786 0.08221 0.0
C653 C 0.2297 0.50208 0.01654 0.0
C654 C 0.18409 0.49717 0.05205 0.0
C655 C 0.18284 0.5008 0.95526 0.0
C656 C 0.20562 0.50423 0.88917 0.0
C657 C 0.22879 0.50486 0.91963 0.0
C658 C 0.12764 0.52313 0.8351 0.0
C659 C 0.10875 0.50548 0.87823 0.0
C660 C 0.15185 0.5213 0.85828 0.0
C661 C 0.15776 0.50168 0.9248 0.0
C662 C 0.13906 0.48345 0.96509 0.0
C663 C 0.11499 0.48536 0.94243 0.0
H664 H 1.01293 0.79588 0.47546 0.0
H665 H 0.03018 0.76337 0.73432 0.0
H666 H 1.01115 0.84564 0.54389 0.0
H667 H 0.02818 0.8131 0.80466 0.0
H668 H 0.05569 0.90606 0.83658 0.0
H669 H 0.05376 0.85575 0.77917 0.0
H670 H 0.98721 0.88046 0.66862 0.0
H671 H 0.9892 0.9304 0.72475 0.0
C672 C 1.01543 0.79952 0.5485 0.0
C673 C 1.02115 0.77596 0.60063 0.0
C674 C 1.01461 0.82796 0.58767 0.0
C675 C 1.01961 0.8335 0.67995 0.0
C676 C 1.0245 0.80971 0.73318 0.0
C677 C 1.0252 0.78126 0.69391 0.0
C678 C 0.04057 0.90072 0.80056 0.0
C679 C 1.02263 0.92243 0.7855 0.0
C680 C 0.03937 0.87182 0.768 0.0
C681 C 1.02033 0.86396 0.71895 0.0
C682 C 1.0023 0.88567 0.705 0.0
C683 C 1.00338 0.91439 0.73796 0.0
H684 H 0.7401 0.96259 0.5023 0.0
H685 H 0.73173 0.05542 0.53735 0.0
H686 H 0.69682 0.96007 0.59674 0.0
H687 H 0.68837 0.05349 0.62865 0.0
H688 H 0.61357 0.0429 0.83407 0.0
H689 H 0.65906 0.0428 0.76701 0.0
H690 H 0.65437 0.96849 0.57885 0.0
H691 H 0.60923 0.96809 0.6479 0.0
C692 C 0.72926 0.9824 0.53332 0.0
C693 C 0.7395 1.00916 0.51437 0.0
C694 C 0.70419 0.98111 0.58573 0.0
C695 C 0.68861 1.00661 0.62036 0.0
C696 C 0.69954 0.0333 0.60513 0.0
C697 C 0.72454 0.03449 0.55311 0.0
C698 C 0.62226 0.02636 0.779 0.0
C699 C 0.60746 1.00548 0.74703 0.0
C700 C 0.64848 0.02639 0.7398 0.0
C701 C 0.66082 1.00561 0.6669 0.0
C702 C 0.64598 0.98455 0.63588 0.0
C703 C 0.61984 0.98445 0.67534 0.0
H704 H 0.57239 0.71269 0.39896 0.0
H705 H 0.49099 0.71517 0.48536 0.0
H706 H 0.5764 0.6707 0.49581 0.0
H707 H 0.49461 0.67407 0.58396 0.0
H708 H 0.5056 0.57962 0.62732 0.0
H709 H 0.50555 0.62379 0.54402 0.0
H710 H 0.5702 0.64935 0.65525 0.0
H711 H 0.57059 0.60405 0.73862 0.0
C712 C 0.55544 0.70475 0.44134 0.0
C713 C 0.53137 0.71701 0.43517 0.0
C714 C 0.55766 0.68068 0.49647 0.0
C715 C 0.53581 0.66855 0.54644 0.0
C716 C 0.51186 0.68225 0.54464 0.0
C717 C 0.5097 0.70601 0.48926 0.0
C718 C 0.5199 0.59452 0.63458 0.0
C719 C 0.53793 0.58829 0.69102 0.0
C720 C 0.51973 0.62012 0.58701 0.0
C721 C 0.53746 0.64064 0.59456 0.0
C722 C 0.55619 0.6341 0.6481 0.0
C723 C 0.55643 0.60814 0.69587 0.0
H724 H 0.82968 0.4865 0.7443 0.0
H725 H 0.85135 0.55812 0.5719 0.0
H726 H 0.86718 0.48984 0.81459 0.0
H727 H 0.88969 0.56105 0.6384 0.0
H728 H 0.95304 0.56714 0.80605 0.0
H729 H 0.91099 0.57028 0.76624 0.0
H730 H 0.91058 0.47708 0.76287 0.0
H731 H 0.95188 0.47411 0.80585 0.0
C732 C 0.84232 0.50341 0.7233 0.0
C733 C 0.83765 0.52212 0.65334 0.0
C734 C 0.86405 0.50509 0.76218 0.0
C735 C 0.88199 0.52531 0.7309 0.0
C736 C 0.87638 0.5453 0.66504 0.0
C737 C 0.85436 0.5438 0.62708 0.0
C738 C 0.94381 0.54735 0.79792 0.0
C739 C 0.95594 0.52036 0.80953 0.0
C740 C 0.91971 0.54913 0.77436 0.0
C741 C 0.9071 0.52397 0.76139 0.0
C742 C 0.91922 0.49706 0.77421 0.0
C743 C 0.94315 0.49531 0.79832 0.0
loop_
_geom_bond_atom_site_label_1
_geom_bond_atom_site_label_2
_geom_bond_distance
_geom_bond_site_symmetry_2
_ccdc_geom_bond_type
C0 N1 1.317 . S
C0 N2 1.348 . S
C0 C3 1.485 . S
N1 C0 1.317 . S
N1 N5 1.370 . S
N2 C0 1.348 . S
N2 C4 1.346 . S
C3 C0 1.485 . S
C3 H7 0.960 . S
C3 H8 0.961 . S
C3 H9 0.960 . S
C4 N2 1.346 . S
C4 N5 1.307 . S
C4 C6 1.486 . S
N5 N1 1.370 . S
N5 C4 1.307 . S
C6 C4 1.486 . S
C6 H10 0.960 . S
C6 H11 0.960 . S
C6 H12 0.959 . S
H7 C3 0.960 . S
H8 C3 0.961 . S
H9 C3 0.960 . S
H10 C6 0.960 . S
H11 C6 0.960 . S
H12 C6 0.959 . S
C13 N14 1.317 . S
C13 N15 1.348 . S
C13 C16 1.485 . S
N14 C13 1.317 . S
N14 N18 1.370 . S
N15 C13 1.348 . S
N15 C17 1.346 . S
C16 C13 1.485 . S
C16 H20 0.960 1_655 S
C16 H21 0.961 . S
C16 H22 0.960 . S
C17 N15 1.346 . S
C17 N18 1.307 . S
C17 C19 1.486 . S
N18 N14 1.370 . S
N18 C17 1.307 . S
C19 C17 1.486 . S
C19 H23 0.960 . S
C19 H24 0.960 1_655 S
C19 H25 0.959 1_655 S
H20 C16 0.960 1_455 S
H21 C16 0.961 . S
H22 C16 0.960 . S
H23 C19 0.960 . S
H24 C19 0.960 1_455 S
H25 C19 0.959 1_455 S
C26 N27 1.317 . S
C26 N28 1.354 . S
C26 C29 1.485 . S
N27 C26 1.317 . S
N27 N31 1.371 . S
N28 C26 1.354 . S
N28 C30 1.346 1_565 S
C29 C26 1.485 . S
C29 H33 0.960 1_565 S
C29 H34 0.961 . S
C29 H35 0.960 . S
C30 N28 1.346 1_545 S
C30 N31 1.305 1_545 S
C30 C32 1.486 . S
N31 N27 1.371 . S
N31 C30 1.305 1_565 S
C32 C30 1.486 . S
C32 H36 0.960 1_545 S
C32 H37 0.960 . S
C32 H38 0.959 . S
H33 C29 0.960 1_545 S
H34 C29 0.961 . S
H35 C29 0.960 . S
H36 C32 0.960 1_565 S
H37 C32 0.960 . S
H38 C32 0.959 . S
C39 N40 1.317 . S
C39 N41 1.348 . S
C39 C42 1.485 . S
N40 C39 1.317 . S
N40 N44 1.370 . S
N41 C39 1.348 . S
N41 C43 1.346 . S
C42 C39 1.485 . S
C42 H46 0.960 . S
C42 H47 0.961 . S
C42 H48 0.960 . S
C43 N41 1.346 . S
C43 N44 1.307 . S
C43 C45 1.486 . S
N44 N40 1.370 . S
N44 C43 1.307 . S
C45 C43 1.486 . S
C45 H49 0.960 . S
C45 H50 0.960 . S
C45 H51 0.959 . S
H46 C42 0.960 . S
H47 C42 0.961 . S
H48 C42 0.960 . S
H49 C45 0.960 . S
H50 C45 0.960 . S
H51 C45 0.959 . S
C52 N53 1.317 . S
C52 N54 1.348 1_556 S
C52 C55 1.485 . S
N53 C52 1.317 . S
N53 N57 1.370 1_556 S
N54 C52 1.348 1_554 S
N54 C56 1.346 . S
C55 C52 1.485 . S
C55 H59 0.960 . S
C55 H60 0.961 . S
C55 H61 0.960 . S
C56 N54 1.346 . S
C56 N57 1.307 . S
C56 C58 1.486 . S
N57 N53 1.370 1_554 S
N57 C56 1.307 . S
C58 C56 1.486 . S
C58 H62 0.960 . S
C58 H63 0.960 . S
C58 H64 0.959 . S
H59 C55 0.960 . S
H60 C55 0.961 . S
H61 C55 0.960 . S
H62 C58 0.960 . S
H63 C58 0.960 . S
H64 C58 0.959 . S
C65 N66 1.317 . S
C65 N67 1.348 . S
C65 C68 1.485 1_554 S
N66 C65 1.317 . S
N66 N70 1.370 . S
N67 C65 1.348 . S
N67 C69 1.346 . S
C68 C65 1.485 1_556 S
C68 H72 0.960 . S
C68 H73 0.961 1_456 S
C68 H74 0.960 1_455 S
C69 N67 1.346 . S
C69 N70 1.307 . S
C69 C71 1.486 . S
N70 N66 1.370 . S
N70 C69 1.307 . S
C71 C69 1.486 . S
C71 H75 0.960 1_455 S
C71 H76 0.960 . S
C71 H77 0.959 . S
H72 C68 0.960 . S
H73 C68 0.961 1_654 S
H74 C68 0.960 1_655 S
H75 C71 0.960 1_655 S
H76 C71 0.960 . S
H77 C71 0.959 . S
C78 N79 1.317 . S
C78 N80 1.347 . S
C78 C81 1.485 . S
N79 C78 1.317 . S
N79 N83 1.370 . S
N80 C78 1.347 . S
N80 C82 1.344 1_565 S
C81 C78 1.485 . S
C81 H85 0.960 1_565 S
C81 H86 0.961 . S
C81 H87 0.960 . S
C82 N80 1.344 1_545 S
C82 N83 1.308 1_545 S
C82 C84 1.486 . S
N83 N79 1.370 . S
N83 C82 1.308 1_565 S
C84 C82 1.486 . S
C84 H88 0.960 1_545 S
C84 H89 0.960 . S
C84 H90 0.959 . S
H85 C81 0.960 1_545 S
H86 C81 0.961 . S
H87 C81 0.960 . S
H88 C84 0.960 1_565 S
H89 C84 0.960 . S
H90 C84 0.959 . S
C91 N92 1.317 . S
C91 N93 1.348 . S
C91 C94 1.485 . S
N92 C91 1.317 . S
N92 N96 1.370 . S
N93 C91 1.348 . S
N93 C95 1.346 . S
C94 C91 1.485 . S
C94 H98 0.960 . S
C94 H99 0.961 . S
C94 H100 0.960 . S
C95 N93 1.346 . S
C95 N96 1.307 . S
C95 C97 1.486 . S
N96 N92 1.370 . S
N96 C95 1.307 . S
C97 C95 1.486 . S
C97 H101 0.960 . S
C97 H102 0.960 . S
C97 H103 0.959 . S
H98 C94 0.960 . S
H99 C94 0.961 . S
H100 C94 0.960 . S
H101 C97 0.960 . S
H102 C97 0.960 . S
H103 C97 0.959 . S
Dy104 O107 2.307 1_545 S
Dy104 O109 2.395 1_655 S
Dy104 O110 2.379 . S
Dy104 O112 2.339 . S
Dy104 O114 2.298 . S
Dy104 O118 2.275 1_655 S
Dy104 C126 2.738 . S
Dy105 O108 2.298 . S
Dy105 O111 2.275 1_455 S
Dy105 O113 2.307 1_565 S
Dy105 O115 2.395 1_456 S
Dy105 O116 2.379 . S
Dy105 O119 2.339 . S
Dy105 C135 2.738 1_556 S
C106 O118 1.254 1_565 S
C106 O119 1.257 . S
O107 Dy104 2.307 1_565 S
O107 C117 1.266 . S
O108 Dy105 2.298 . S
O108 C117 1.236 1_455 S
O109 Dy104 2.395 1_455 S
O109 C126 1.255 1_455 S
O110 Dy104 2.379 . S
O110 C126 1.249 . S
O111 Dy105 2.275 1_655 S
O111 C127 1.254 1_565 S
O112 Dy104 2.339 . S
O112 C127 1.257 . S
O113 Dy105 2.307 1_545 S
O113 C128 1.266 . S
O114 Dy104 2.298 . S
O114 C128 1.236 1_655 S
O115 Dy105 2.395 1_654 S
O115 C135 1.255 1_655 S
O116 Dy105 2.379 . S
O116 C135 1.249 1_556 S
C117 O107 1.266 . S
C117 O108 1.236 1_655 S
O118 Dy104 2.275 1_455 S
O118 C106 1.254 1_545 S
O119 Dy105 2.339 . S
O119 C106 1.257 . S
C120 C123 1.344 1_655 S
C120 C124 1.328 . S
C120 C126 1.516 . S
C121 C122 1.304 1_655 S
C121 C125 1.323 . S
C122 C121 1.304 1_455 S
C122 C123 1.371 . S
C122 H136 0.930 . S
C123 C120 1.344 1_455 S
C123 C122 1.371 . S
C123 H137 0.931 . S
C124 C120 1.328 . S
C124 C125 1.433 . S
C124 H138 0.931 . S
C125 C121 1.323 . S
C125 C124 1.433 . S
C125 H139 0.933 . S
C126 Dy104 2.738 . S
C126 O109 1.255 1_655 S
C126 O110 1.249 . S
C126 C120 1.516 . S
C127 O111 1.254 1_545 S
C127 O112 1.257 . S
C128 O113 1.266 . S
C128 O114 1.236 1_455 S
C129 C132 1.344 1_455 S
C129 C133 1.328 . S
C129 C135 1.516 . S
C130 C131 1.304 1_455 S
C130 C134 1.323 . S
C131 C130 1.304 1_655 S
C131 C132 1.371 . S
C131 H140 0.930 . S
C132 C129 1.344 1_655 S
C132 C131 1.371 . S
C132 H141 0.931 . S
C133 C129 1.328 . S
C133 C134 1.433 . S
C133 H142 0.931 . S
C134 C130 1.323 . S
C134 C133 1.433 . S
C134 H143 0.933 . S
C135 Dy105 2.738 1_554 S
C135 O115 1.255 1_455 S
C135 O116 1.249 1_554 S
C135 C129 1.516 . S
H136 C122 0.930 . S
H137 C123 0.931 . S
H138 C124 0.931 . S
H139 C125 0.933 . S
H140 C131 0.930 . S
H141 C132 0.931 . S
H142 C133 0.931 . S
H143 C134 0.933 . S
Dy144 O147 2.307 . S
Dy144 O149 2.395 1_565 S
Dy144 O150 2.379 . S
Dy144 O152 2.339 . S
Dy144 O154 2.298 . S
Dy144 O158 2.275 1_565 S
Dy144 C166 2.738 . S
Dy145 O148 2.298 . S
Dy145 O151 2.275 1_545 S
Dy145 O153 2.307 . S
Dy145 O155 2.395 1_545 S
Dy145 O156 2.379 . S
Dy145 O159 2.339 . S
Dy145 C175 2.738 1_556 S
C146 O158 1.254 . S
C146 O159 1.257 . S
O147 Dy144 2.307 . S
O147 C157 1.266 . S
O148 Dy145 2.298 . S
O148 C157 1.236 1_545 S
O149 Dy144 2.395 1_545 S
O149 C166 1.255 1_545 S
O150 Dy144 2.379 . S
O150 C166 1.249 . S
O151 Dy145 2.275 1_565 S
O151 C167 1.254 . S
O152 Dy144 2.339 . S
O152 C167 1.257 . S
O153 Dy145 2.307 . S
O153 C168 1.266 . S
O154 Dy144 2.298 . S
O154 C168 1.236 1_565 S
O155 Dy145 2.395 1_565 S
O155 C175 1.255 1_566 S
O156 Dy145 2.379 . S
O156 C175 1.249 1_556 S
C157 O147 1.266 . S
C157 O148 1.236 1_565 S
O158 Dy144 2.275 1_545 S
O158 C146 1.254 . S
O159 Dy145 2.339 . S
O159 C146 1.257 . S
C160 C163 1.344 1_565 S
C160 C164 1.328 . S
C160 C166 1.516 . S
C161 C162 1.290 1_565 S
C161 C165 1.323 . S
C162 C161 1.290 1_545 S
C162 C163 1.372 . S
C162 H176 0.944 . S
C163 C160 1.344 1_545 S
C163 C162 1.372 . S
C163 H177 0.931 . S
C164 C160 1.328 . S
C164 C165 1.433 . S
C164 H178 0.931 . S
C165 C161 1.323 . S
C165 C164 1.433 . S
C165 H179 0.933 . S
C166 Dy144 2.738 . S
C166 O149 1.255 1_565 S
C166 O150 1.249 . S
C166 C160 1.516 . S
C167 O151 1.254 . S
C167 O152 1.257 . S
C168 O153 1.266 . S
C168 O154 1.236 1_545 S
C169 C172 1.344 1_545 S
C169 C173 1.328 . S
C169 C175 1.516 . S
C170 C171 1.298 1_545 S
C170 C174 1.323 . S
C171 C170 1.298 1_565 S
C171 C172 1.371 . S
C171 H180 0.936 . S
C172 C169 1.344 1_565 S
C172 C171 1.371 . S
C172 H181 0.931 . S
C173 C169 1.328 . S
C173 C174 1.433 . S
C173 H182 0.931 . S
C174 C170 1.323 . S
C174 C173 1.433 . S
C174 H183 0.933 . S
C175 Dy145 2.738 1_554 S
C175 O155 1.255 1_544 S
C175 O156 1.249 1_554 S
C175 C169 1.516 . S
H176 C162 0.944 . S
H177 C163 0.931 . S
H178 C164 0.931 . S
H179 C165 0.933 . S
H180 C171 0.936 . S
H181 C172 0.931 . S
H182 C173 0.931 . S
H183 C174 0.933 . S
Dy184 O187 2.307 . S
Dy184 O189 2.395 . S
Dy184 O190 2.379 . S
Dy184 O192 2.339 . S
Dy184 O194 2.298 . S
Dy184 O198 2.275 . S
Dy184 C206 2.738 . S
Dy185 O188 2.298 . S
Dy185 O191 2.275 . S
Dy185 O193 2.307 . S
Dy185 O195 2.395 . S
Dy185 O196 2.379 . S
Dy185 O199 2.339 . S
Dy185 C215 2.738 . S
C186 O198 1.254 . S
C186 O199 1.257 . S
O187 Dy184 2.307 . S
O187 C197 1.266 . S
O188 Dy185 2.298 . S
O188 C197 1.236 . S
O189 Dy184 2.395 . S
O189 C206 1.255 . S
O190 Dy184 2.379 . S
O190 C206 1.249 . S
O191 Dy185 2.275 . S
O191 C207 1.254 . S
O192 Dy184 2.339 . S
O192 C207 1.257 . S
O193 Dy185 2.307 . S
O193 C208 1.266 . S
O194 Dy184 2.298 . S
O194 C208 1.236 . S
O195 Dy185 2.395 . S
O195 C215 1.255 . S
O196 Dy185 2.379 . S
O196 C215 1.249 . S
C197 O187 1.266 . S
C197 O188 1.236 . S
O198 Dy184 2.275 . S
O198 C186 1.254 . S
O199 Dy185 2.339 . S
O199 C186 1.257 . S
C200 C203 1.344 1_556 S
C200 C204 1.328 . S
C200 C206 1.516 . S
C201 C202 1.304 . S
C201 C205 1.323 1_554 S
C202 C201 1.304 . S
C202 C203 1.371 . S
C202 H216 0.930 . S
C203 C200 1.344 1_554 S
C203 C202 1.371 . S
C203 H217 0.931 . S
C204 C200 1.328 . S
C204 C205 1.433 . S
C204 H218 0.931 . S
C205 C201 1.323 1_556 S
C205 C204 1.433 . S
C205 H219 0.933 . S
C206 Dy184 2.738 . S
C206 O189 1.255 . S
C206 O190 1.249 . S
C206 C200 1.516 . S
C207 O191 1.254 . S
C207 O192 1.257 . S
C208 O193 1.266 . S
C208 O194 1.236 . S
C209 C212 1.344 . S
C209 C213 1.328 . S
C209 C215 1.516 . S
C210 C211 1.304 . S
C210 C214 1.323 . S
C211 C210 1.304 . S
C211 C212 1.371 . S
C211 H220 0.930 . S
C212 C209 1.344 . S
C212 C211 1.371 . S
C212 H221 0.931 . S
C213 C209 1.328 . S
C213 C214 1.433 . S
C213 H222 0.931 . S
C214 C210 1.323 . S
C214 C213 1.433 . S
C214 H223 0.933 . S
C215 Dy185 2.738 . S
C215 O195 1.255 . S
C215 O196 1.249 . S
C215 C209 1.516 . S
H216 C202 0.930 . S
H217 C203 0.931 . S
H218 C204 0.931 . S
H219 C205 0.933 . S
H220 C211 0.930 . S
H221 C212 0.931 . S
H222 C213 0.931 . S
H223 C214 0.933 . S
Dy224 O227 2.307 1_455 S
Dy224 O229 2.395 . S
Dy224 O230 2.379 . S
Dy224 O232 2.339 . S
Dy224 O234 2.298 . S
Dy224 O238 2.275 . S
Dy224 C246 2.738 . S
Dy225 O228 2.298 . S
Dy225 O231 2.275 . S
Dy225 O233 2.307 1_655 S
Dy225 O235 2.395 1_556 S
Dy225 O236 2.379 . S
Dy225 O239 2.339 . S
Dy225 C255 2.738 1_556 S
C226 O238 1.254 . S
C226 O239 1.257 1_455 S
O227 Dy224 2.307 1_655 S
O227 C237 1.266 . S
O228 Dy225 2.298 . S
O228 C237 1.236 . S
O229 Dy224 2.395 . S
O229 C246 1.255 . S
O230 Dy224 2.379 . S
O230 C246 1.249 . S
O231 Dy225 2.275 . S
O231 C247 1.254 1_655 S
O232 Dy224 2.339 . S
O232 C247 1.257 . S
O233 Dy225 2.307 1_455 S
O233 C248 1.266 . S
O234 Dy224 2.298 . S
O234 C248 1.236 . S
O235 Dy225 2.395 1_554 S
O235 C255 1.255 . S
O236 Dy225 2.379 . S
O236 C255 1.249 1_556 S
C237 O227 1.266 . S
C237 O228 1.236 . S
O238 Dy224 2.275 . S
O238 C226 1.254 . S
O239 Dy225 2.339 . S
O239 C226 1.257 1_655 S
C240 C243 1.344 . S
C240 C244 1.328 . S
C240 C246 1.516 . S
C241 C242 1.304 . S
C241 C245 1.323 . S
C242 C241 1.304 . S
C242 C243 1.371 . S
C242 H256 0.930 . S
C243 C240 1.344 . S
C243 C242 1.371 . S
C243 H257 0.931 . S
C244 C240 1.328 . S
C244 C245 1.433 . S
C244 H258 0.931 . S
C245 C241 1.323 . S
C245 C244 1.433 . S
C245 H259 0.933 . S
C246 Dy224 2.738 . S
C246 O229 1.255 . S
C246 O230 1.249 . S
C246 C240 1.516 . S
C247 O231 1.254 1_455 S
C247 O232 1.257 . S
C248 O233 1.266 . S
C248 O234 1.236 . S
C249 C252 1.344 . S
C249 C253 1.328 . S
C249 C255 1.516 . S
C250 C251 1.304 . S
C250 C254 1.323 . S
C251 C250 1.304 . S
C251 C252 1.371 . S
C251 H260 0.930 . S
C252 C249 1.344 . S
C252 C251 1.371 . S
C252 H261 0.931 . S
C253 C249 1.328 . S
C253 C254 1.433 . S
C253 H262 0.931 . S
C254 C250 1.323 . S
C254 C253 1.433 . S
C254 H263 0.933 . S
C255 Dy225 2.738 1_554 S
C255 O235 1.255 . S
C255 O236 1.249 1_554 S
C255 C249 1.516 . S
H256 C242 0.930 . S
H257 C243 0.931 . S
H258 C244 0.931 . S
H259 C245 0.933 . S
H260 C251 0.930 . S
H261 C252 0.931 . S
H262 C253 0.931 . S
H263 C254 0.933 . S
H264 C272 0.950 . S
H265 C277 0.950 . S
H266 C274 0.950 . S
H267 C276 0.950 . S
H268 C278 0.950 . S
H269 C280 0.950 . S
H270 C282 0.950 . S
H271 C283 0.950 . S
C272 H264 0.950 . S
C272 C273 1.388 . S
C272 C274 1.391 . S
C273 C272 1.388 . S
C273 C277 1.391 1_565 S
C274 H266 0.950 . S
C274 C272 1.391 . S
C274 C275 1.391 1_565 S
C275 C274 1.391 1_545 S
C275 C276 1.409 . S
C275 C281 1.490 . S
C276 H267 0.950 . S
C276 C275 1.409 . S
C276 C277 1.391 . S
C277 H265 0.950 . S
C277 C273 1.391 1_545 S
C277 C276 1.391 . S
C278 H268 0.950 . S
C278 C279 1.386 . S
C278 C280 1.391 . S
C279 C278 1.386 . S
C279 C283 1.393 1_545 S
C280 H269 0.950 . S
C280 C278 1.391 . S
C280 C281 1.400 . S
C281 C275 1.490 . S
C281 C280 1.400 . S
C281 C282 1.398 1_545 S
C282 H270 0.950 . S
C282 C281 1.398 1_565 S
C282 C283 1.391 . S
C283 H271 0.950 . S
C283 C279 1.393 1_565 S
C283 C282 1.391 . S
H284 C292 0.950 . S
H285 C297 0.950 . S
H286 C294 0.950 . S
H287 C296 0.950 . S
H288 C298 0.950 . S
H289 C300 0.950 . S
H290 C302 0.950 . S
H291 C303 0.950 . S
C292 H284 0.950 . S
C292 C293 1.386 . S
C292 C294 1.391 . S
C293 C292 1.386 . S
C293 C297 1.393 . S
C294 H286 0.950 . S
C294 C292 1.391 . S
C294 C295 1.400 . S
C295 C294 1.400 . S
C295 C296 1.398 . S
C295 C301 1.491 . S
C296 H287 0.950 . S
C296 C295 1.398 . S
C296 C297 1.391 . S
C297 H285 0.950 . S
C297 C293 1.393 . S
C297 C296 1.391 . S
C298 H288 0.950 . S
C298 C299 1.386 . S
C298 C300 1.391 . S
C299 C298 1.386 . S
C299 C303 1.393 . S
C300 H289 0.950 . S
C300 C298 1.391 . S
C300 C301 1.400 . S
C301 C295 1.491 . S
C301 C300 1.400 . S
C301 C302 1.398 . S
C302 H290 0.950 . S
C302 C301 1.398 . S
C302 C303 1.391 . S
C303 H291 0.950 . S
C303 C299 1.393 . S
C303 C302 1.391 . S
H304 C312 0.950 . S
H305 C317 0.950 . S
H306 C314 0.950 . S
H307 C316 0.950 . S
H308 C318 0.950 . S
H309 C320 0.950 . S
H310 C322 0.950 . S
H311 C323 0.950 . S
C312 H304 0.950 . S
C312 C313 1.386 . S
C312 C314 1.391 . S
C313 C312 1.386 . S
C313 C317 1.393 . S
C314 H306 0.950 . S
C314 C312 1.391 . S
C314 C315 1.400 . S
C315 C314 1.400 . S
C315 C316 1.398 . S
C315 C321 1.491 . S
C316 H307 0.950 . S
C316 C315 1.398 . S
C316 C317 1.391 . S
C317 H305 0.950 . S
C317 C313 1.393 . S
C317 C316 1.391 . S
C318 H308 0.950 . S
C318 C319 1.386 . S
C318 C320 1.391 . S
C319 C318 1.386 . S
C319 C323 1.393 . S
C320 H309 0.950 . S
C320 C318 1.391 . S
C320 C321 1.400 . S
C321 C315 1.491 . S
C321 C320 1.400 . S
C321 C322 1.398 . S
C322 H310 0.950 . S
C322 C321 1.398 . S
C322 C323 1.391 . S
C323 H311 0.950 . S
C323 C319 1.393 . S
C323 C322 1.391 . S
H324 C332 0.950 . S
H325 C337 0.950 . S
H326 C334 0.950 . S
H327 C336 0.950 . S
H328 C338 0.950 . S
H329 C340 0.950 . S
H330 C342 0.950 . S
H331 C343 0.950 . S
C332 H324 0.950 . S
C332 C333 1.386 . S
C332 C334 1.391 . S
C333 C332 1.386 . S
C333 C337 1.393 1_455 S
C334 H326 0.950 . S
C334 C332 1.391 . S
C334 C335 1.400 . S
C335 C334 1.400 . S
C335 C336 1.398 1_455 S
C335 C341 1.491 . S
C336 H327 0.950 . S
C336 C335 1.398 1_655 S
C336 C337 1.391 . S
C337 H325 0.950 . S
C337 C333 1.393 1_655 S
C337 C336 1.391 . S
C338 H328 0.950 . S
C338 C339 1.386 1_655 S
C338 C340 1.391 . S
C339 C338 1.386 1_455 S
C339 C343 1.393 . S
C340 H329 0.950 . S
C340 C338 1.391 . S
C340 C341 1.400 1_655 S
C341 C335 1.491 . S
C341 C340 1.400 1_455 S
C341 C342 1.398 . S
C342 H330 0.950 . S
C342 C341 1.398 . S
C342 C343 1.391 . S
C343 H331 0.950 . S
C343 C339 1.393 . S
C343 C342 1.391 . S
H344 C352 0.950 . S
H345 C357 0.950 . S
H346 C354 0.950 . S
H347 C356 0.950 . S
H348 C358 0.950 . S
H349 C360 0.950 . S
H350 C362 0.950 . S
H351 C363 0.950 . S
C352 H344 0.950 . S
C352 C353 1.400 . S
C352 C354 1.391 . S
C353 C352 1.400 . S
C353 C357 1.382 1_545 S
C354 H346 0.950 . S
C354 C352 1.391 . S
C354 C355 1.402 1_545 S
C355 C354 1.402 1_565 S
C355 C356 1.396 . S
C355 C361 1.491 . S
C356 H347 0.950 . S
C356 C355 1.396 . S
C356 C357 1.391 . S
C357 H345 0.950 . S
C357 C353 1.382 1_565 S
C357 C356 1.391 . S
C358 H348 0.950 . S
C358 C359 1.386 1_554 S
C358 C360 1.391 . S
C359 C358 1.386 1_556 S
C359 C363 1.393 1_565 S
C360 H349 0.950 . S
C360 C358 1.391 . S
C360 C361 1.400 . S
C361 C355 1.491 . S
C361 C360 1.400 . S
C361 C362 1.398 1_565 S
C362 H350 0.950 . S
C362 C361 1.398 1_545 S
C362 C363 1.391 1_554 S
C363 H351 0.950 . S
C363 C359 1.393 1_545 S
C363 C362 1.391 1_556 S
H364 C372 0.950 . S
H365 C377 0.950 . S
H366 C374 0.950 1_556 S
H367 C376 0.950 . S
H368 C378 0.950 1_554 S
H369 C380 0.950 . S
H370 C382 0.950 . S
H371 C383 0.950 . S
C372 H364 0.950 . S
C372 C373 1.386 . S
C372 C374 1.391 . S
C373 C372 1.386 . S
C373 C377 1.393 . S
C374 H366 0.950 1_554 S
C374 C372 1.391 . S
C374 C375 1.400 . S
C375 C374 1.400 . S
C375 C376 1.398 . S
C375 C381 1.491 . S
C376 H367 0.950 . S
C376 C375 1.398 . S
C376 C377 1.391 . S
C377 H365 0.950 . S
C377 C373 1.393 . S
C377 C376 1.391 . S
C378 H368 0.950 1_556 S
C378 C379 1.386 . S
C378 C380 1.391 1_556 S
C379 C378 1.386 . S
C379 C383 1.393 . S
C380 H369 0.950 . S
C380 C378 1.391 1_554 S
C380 C381 1.400 . S
C381 C375 1.491 . S
C381 C380 1.400 . S
C381 C382 1.398 1_554 S
C382 H370 0.950 . S
C382 C381 1.398 1_556 S
C382 C383 1.391 . S
C383 H371 0.950 . S
C383 C379 1.393 . S
C383 C382 1.391 . S
H384 C392 0.950 . S
H385 C397 0.950 . S
H386 C394 0.950 . S
H387 C396 0.950 . S
H388 C398 0.950 . S
H389 C400 0.950 . S
H390 C402 0.950 . S
H391 C403 0.950 . S
C392 H384 0.950 . S
C392 C393 1.386 . S
C392 C394 1.391 . S
C393 C392 1.386 . S
C393 C397 1.393 . S
C394 H386 0.950 . S
C394 C392 1.391 . S
C394 C395 1.400 . S
C395 C394 1.400 . S
C395 C396 1.398 . S
C395 C401 1.491 . S
C396 H387 0.950 . S
C396 C395 1.398 . S
C396 C397 1.391 . S
C397 H385 0.950 . S
C397 C393 1.393 . S
C397 C396 1.391 . S
C398 H388 0.950 . S
C398 C399 1.386 . S
C398 C400 1.391 . S
C399 C398 1.386 . S
C399 C403 1.393 . S
C400 H389 0.950 . S
C400 C398 1.391 . S
C400 C401 1.400 . S
C401 C395 1.491 . S
C401 C400 1.400 . S
C401 C402 1.398 . S
C402 H390 0.950 . S
C402 C401 1.398 . S
C402 C403 1.391 . S
C403 H391 0.950 . S
C403 C399 1.393 . S
C403 C402 1.391 . S
H404 C412 0.949 . S
H405 C417 0.950 . S
H406 C414 0.952 . S
H407 C416 0.950 . S
H408 C418 0.950 . S
H409 C420 0.950 . S
H410 C422 0.950 . S
H411 C423 0.950 . S
C412 H404 0.949 . S
C412 C413 1.386 1_455 S
C412 C414 1.397 . S
C413 C412 1.386 1_655 S
C413 C417 1.393 . S
C414 H406 0.952 . S
C414 C412 1.397 . S
C414 C415 1.393 1_455 S
C415 C414 1.393 1_655 S
C415 C416 1.398 . S
C415 C421 1.485 . S
C416 H407 0.950 . S
C416 C415 1.398 . S
C416 C417 1.391 . S
C417 H405 0.950 . S
C417 C413 1.393 . S
C417 C416 1.391 . S
C418 H408 0.950 . S
C418 C419 1.386 1_655 S
C418 C420 1.391 1_556 S
C419 C418 1.386 1_455 S
C419 C423 1.393 1_556 S
C420 H409 0.950 . S
C420 C418 1.391 1_554 S
C420 C421 1.410 . S
C421 C415 1.485 . S
C421 C420 1.410 . S
C421 C422 1.396 1_655 S
C422 H410 0.950 . S
C422 C421 1.396 1_455 S
C422 C423 1.391 . S
C423 H411 0.950 . S
C423 C419 1.393 1_554 S
C423 C422 1.391 . S
H424 C432 0.950 . S
H425 C437 0.950 . S
H426 C434 0.950 . S
H427 C436 0.950 . S
H428 C438 0.950 . S
H429 C440 0.950 . S
H430 C442 0.950 . S
H431 C443 0.950 . S
C432 H424 0.950 . S
C432 C433 1.386 1_655 S
C432 C434 1.391 . S
C433 C432 1.386 1_455 S
C433 C437 1.393 . S
C434 H426 0.950 . S
C434 C432 1.391 . S
C434 C435 1.400 . S
C435 C434 1.400 . S
C435 C436 1.398 1_655 S
C435 C441 1.491 . S
C436 H427 0.950 . S
C436 C435 1.398 1_455 S
C436 C437 1.391 . S
C437 H425 0.950 . S
C437 C433 1.393 . S
C437 C436 1.391 . S
C438 H428 0.950 . S
C438 C439 1.386 1_455 S
C438 C440 1.391 . S
C439 C438 1.386 1_655 S
C439 C443 1.393 . S
C440 H429 0.950 . S
C440 C438 1.391 . S
C440 C441 1.400 1_455 S
C441 C435 1.491 . S
C441 C440 1.400 1_655 S
C441 C442 1.398 . S
C442 H430 0.950 . S
C442 C441 1.398 . S
C442 C443 1.391 . S
C443 H431 0.950 . S
C443 C439 1.393 . S
C443 C442 1.391 . S
H444 C452 0.959 . S
H445 C457 0.950 . S
H446 C454 0.950 . S
H447 C456 0.950 . S
H448 C458 0.950 . S
H449 C460 0.950 . S
H450 C462 0.950 . S
H451 C463 0.950 . S
C452 H444 0.959 . S
C452 C453 1.383 . S
C452 C454 1.386 1_545 S
C453 C452 1.383 . S
C453 C457 1.393 1_545 S
C454 H446 0.950 . S
C454 C452 1.386 1_565 S
C454 C455 1.400 . S
C455 C454 1.400 . S
C455 C456 1.398 . S
C455 C461 1.491 . S
C456 H447 0.950 . S
C456 C455 1.398 . S
C456 C457 1.391 . S
C457 H445 0.950 . S
C457 C453 1.393 1_565 S
C457 C456 1.391 . S
C458 H448 0.950 . S
C458 C459 1.386 . S
C458 C460 1.391 . S
C459 C458 1.386 . S
C459 C463 1.393 . S
C460 H449 0.950 . S
C460 C458 1.391 . S
C460 C461 1.400 . S
C461 C455 1.491 . S
C461 C460 1.400 . S
C461 C462 1.398 . S
C462 H450 0.950 . S
C462 C461 1.398 . S
C462 C463 1.391 . S
C463 H451 0.950 . S
C463 C459 1.393 . S
C463 C462 1.391 . S
H464 C472 0.950 . S
H465 C477 0.950 . S
H466 C474 0.950 . S
H467 C476 0.950 . S
H468 C478 0.950 . S
H469 C480 0.950 . S
H470 C482 0.950 . S
H471 C483 0.950 . S
C472 H464 0.950 . S
C472 C473 1.386 . S
C472 C474 1.391 . S
C473 C472 1.386 . S
C473 C477 1.393 . S
C474 H466 0.950 . S
C474 C472 1.391 . S
C474 C475 1.400 . S
C475 C474 1.400 . S
C475 C476 1.398 . S
C475 C481 1.491 . S
C476 H467 0.950 . S
C476 C475 1.398 . S
C476 C477 1.391 . S
C477 H465 0.950 . S
C477 C473 1.393 . S
C477 C476 1.391 . S
C478 H468 0.950 . S
C478 C479 1.386 . S
C478 C480 1.391 . S
C479 C478 1.386 . S
C479 C483 1.393 . S
C480 H469 0.950 . S
C480 C478 1.391 . S
C480 C481 1.400 . S
C481 C475 1.491 . S
C481 C480 1.400 . S
C481 C482 1.398 . S
C482 H470 0.950 . S
C482 C481 1.398 . S
C482 C483 1.391 . S
C483 H471 0.950 . S
C483 C479 1.393 . S
C483 C482 1.391 . S
H484 C492 0.950 1_556 S
H485 C497 0.950 . S
H486 C494 0.950 . S
H487 C496 0.950 . S
H488 C498 0.950 . S
H489 C500 0.950 . S
H490 C502 0.950 . S
H491 C503 0.950 . S
C492 H484 0.950 1_554 S
C492 C493 1.386 . S
C492 C494 1.391 . S
C493 C492 1.386 . S
C493 C497 1.393 . S
C494 H486 0.950 . S
C494 C492 1.391 . S
C494 C495 1.400 . S
C495 C494 1.400 . S
C495 C496 1.398 . S
C495 C501 1.491 . S
C496 H487 0.950 . S
C496 C495 1.398 . S
C496 C497 1.391 . S
C497 H485 0.950 . S
C497 C493 1.393 . S
C497 C496 1.391 . S
C498 H488 0.950 . S
C498 C499 1.386 . S
C498 C500 1.391 . S
C499 C498 1.386 . S
C499 C503 1.393 . S
C500 H489 0.950 . S
C500 C498 1.391 . S
C500 C501 1.400 . S
C501 C495 1.491 . S
C501 C500 1.400 . S
C501 C502 1.398 . S
C502 H490 0.950 . S
C502 C501 1.398 . S
C502 C503 1.391 . S
C503 H491 0.950 . S
C503 C499 1.393 . S
C503 C502 1.391 . S
H504 C512 0.950 . S
H505 C517 0.950 . S
H506 C514 0.950 . S
H507 C516 0.950 . S
H508 C518 0.950 . S
H509 C520 0.950 . S
H510 C522 0.950 . S
H511 C523 0.950 . S
C512 H504 0.950 . S
C512 C513 1.386 1_455 S
C512 C514 1.391 . S
C513 C512 1.386 1_655 S
C513 C517 1.393 . S
C514 H506 0.950 . S
C514 C512 1.391 . S
C514 C515 1.400 . S
C515 C514 1.400 . S
C515 C516 1.398 1_455 S
C515 C521 1.491 . S
C516 H507 0.950 . S
C516 C515 1.398 1_655 S
C516 C517 1.391 . S
C517 H505 0.950 . S
C517 C513 1.393 . S
C517 C516 1.391 . S
C518 H508 0.950 . S
C518 C519 1.386 1_655 S
C518 C520 1.391 . S
C519 C518 1.386 1_455 S
C519 C523 1.393 . S
C520 H509 0.950 . S
C520 C518 1.391 . S
C520 C521 1.400 1_655 S
C521 C515 1.491 . S
C521 C520 1.400 1_455 S
C521 C522 1.398 . S
C522 H510 0.950 . S
C522 C521 1.398 . S
C522 C523 1.391 . S
C523 H511 0.950 . S
C523 C519 1.393 . S
C523 C522 1.391 . S
H524 C532 0.950 . S
H525 C537 0.950 . S
H526 C534 0.950 . S
H527 C536 0.950 . S
H528 C538 0.950 1_565 S
H529 C540 0.950 . S
H530 C542 0.950 . S
H531 C543 0.950 . S
C532 H524 0.950 . S
C532 C533 1.361 1_545 S
C532 C534 1.391 . S
C533 C532 1.361 1_565 S
C533 C537 1.414 . S
C534 H526 0.950 . S
C534 C532 1.391 . S
C534 C535 1.400 . S
C535 C534 1.400 . S
C535 C536 1.398 1_545 S
C535 C541 1.491 . S
C536 H527 0.950 . S
C536 C535 1.398 1_565 S
C536 C537 1.391 . S
C537 H525 0.950 . S
C537 C533 1.414 . S
C537 C536 1.391 . S
C538 H528 0.950 1_545 S
C538 C539 1.386 . S
C538 C540 1.391 1_545 S
C539 C538 1.386 . S
C539 C543 1.393 . S
C540 H529 0.950 . S
C540 C538 1.391 1_565 S
C540 C541 1.400 1_565 S
C541 C535 1.491 . S
C541 C540 1.400 1_545 S
C541 C542 1.398 . S
C542 H530 0.950 . S
C542 C541 1.398 . S
C542 C543 1.391 . S
C543 H531 0.950 . S
C543 C539 1.393 . S
C543 C542 1.391 . S
H544 C552 0.950 . S
H545 C557 0.950 . S
H546 C554 0.950 . S
H547 C556 0.950 . S
H548 C558 0.950 . S
H549 C560 0.950 . S
H550 C562 0.950 . S
H551 C563 0.950 . S
C552 H544 0.950 . S
C552 C553 1.386 . S
C552 C554 1.391 . S
C553 C552 1.386 . S
C553 C557 1.393 . S
C554 H546 0.950 . S
C554 C552 1.391 . S
C554 C555 1.400 . S
C555 C554 1.400 . S
C555 C556 1.398 . S
C555 C561 1.491 . S
C556 H547 0.950 . S
C556 C555 1.398 . S
C556 C557 1.391 . S
C557 H545 0.950 . S
C557 C553 1.393 . S
C557 C556 1.391 . S
C558 H548 0.950 . S
C558 C559 1.386 . S
C558 C560 1.391 1_556 S
C559 C558 1.386 . S
C559 C563 1.393 1_556 S
C560 H549 0.950 . S
C560 C558 1.391 1_554 S
C560 C561 1.400 . S
C561 C555 1.491 . S
C561 C560 1.400 . S
C561 C562 1.398 . S
C562 H550 0.950 . S
C562 C561 1.398 . S
C562 C563 1.391 . S
C563 H551 0.950 . S
C563 C559 1.393 1_554 S
C563 C562 1.391 . S
H564 C572 0.950 . S
H565 C577 0.950 . S
H566 C574 0.950 . S
H567 C576 0.950 . S
H568 C578 0.950 . S
H569 C580 0.950 . S
H570 C582 0.950 . S
H571 C583 0.950 . S
C572 H564 0.950 . S
C572 C573 1.386 . S
C572 C574 1.391 . S
C573 C572 1.386 . S
C573 C577 1.393 . S
C574 H566 0.950 . S
C574 C572 1.391 . S
C574 C575 1.400 . S
C575 C574 1.400 . S
C575 C576 1.398 . S
C575 C581 1.491 . S
C576 H567 0.950 . S
C576 C575 1.398 . S
C576 C577 1.391 . S
C577 H565 0.950 . S
C577 C573 1.393 . S
C577 C576 1.391 . S
C578 H568 0.950 . S
C578 C579 1.386 . S
C578 C580 1.391 . S
C579 C578 1.386 . S
C579 C583 1.393 . S
C580 H569 0.950 . S
C580 C578 1.391 . S
C580 C581 1.400 . S
C581 C575 1.491 . S
C581 C580 1.400 . S
C581 C582 1.398 . S
C582 H570 0.950 . S
C582 C581 1.398 . S
C582 C583 1.391 . S
C583 H571 0.950 . S
C583 C579 1.393 . S
C583 C582 1.391 . S
H584 C592 0.950 . S
H585 C597 0.950 . S
H586 C594 0.950 . S
H587 C596 0.950 . S
H588 C598 0.950 . S
H589 C600 0.950 1_554 S
H590 C602 0.950 . S
H591 C603 0.950 . S
C592 H584 0.950 . S
C592 C593 1.386 1_556 S
C592 C594 1.391 . S
C593 C592 1.386 1_554 S
C593 C597 1.393 1_455 S
C594 H586 0.950 . S
C594 C592 1.391 . S
C594 C595 1.400 . S
C595 C594 1.400 . S
C595 C596 1.398 1_456 S
C595 C601 1.491 . S
C596 H587 0.950 . S
C596 C595 1.398 1_654 S
C596 C597 1.391 . S
C597 H585 0.950 . S
C597 C593 1.393 1_655 S
C597 C596 1.391 . S
C598 H588 0.950 . S
C598 C599 1.386 1_655 S
C598 C600 1.391 . S
C599 C598 1.386 1_455 S
C599 C603 1.393 . S
C600 H589 0.950 1_556 S
C600 C598 1.391 . S
C600 C601 1.400 1_655 S
C601 C595 1.491 . S
C601 C600 1.400 1_455 S
C601 C602 1.398 . S
C602 H590 0.950 . S
C602 C601 1.398 . S
C602 C603 1.391 . S
C603 H591 0.950 . S
C603 C599 1.393 . S
C603 C602 1.391 . S
H604 C612 0.950 . S
H605 C617 0.950 . S
H606 C614 0.950 1_556 S
H607 C616 0.950 . S
H608 C618 0.950 . S
H609 C620 0.950 . S
H610 C622 0.950 . S
H611 C623 0.950 . S
C612 H604 0.950 . S
C612 C613 1.386 . S
C612 C614 1.391 . S
C613 C612 1.386 . S
C613 C617 1.393 1_545 S
C614 H606 0.950 1_554 S
C614 C612 1.391 . S
C614 C615 1.400 . S
C615 C614 1.400 . S
C615 C616 1.398 1_545 S
C615 C621 1.491 . S
C616 H607 0.950 . S
C616 C615 1.398 1_565 S
C616 C617 1.391 . S
C617 H605 0.950 . S
C617 C613 1.393 1_565 S
C617 C616 1.391 . S
C618 H608 0.950 . S
C618 C619 1.386 1_564 S
C618 C620 1.391 . S
C619 C618 1.386 1_546 S
C619 C623 1.393 . S
C620 H609 0.950 . S
C620 C618 1.391 . S
C620 C621 1.400 1_565 S
C621 C615 1.491 . S
C621 C620 1.400 1_545 S
C621 C622 1.398 1_554 S
C622 H610 0.950 . S
C622 C621 1.398 1_556 S
C622 C623 1.391 . S
C623 H611 0.950 . S
C623 C619 1.393 . S
C623 C622 1.391 . S
H624 C632 0.950 . S
H625 C637 0.950 . S
H626 C634 0.950 . S
H627 C636 0.950 . S
H628 C638 0.950 1_556 S
H629 C640 0.950 . S
H630 C642 0.950 . S
H631 C643 0.950 . S
C632 H624 0.950 . S
C632 C633 1.386 . S
C632 C634 1.391 . S
C633 C632 1.386 . S
C633 C637 1.393 . S
C634 H626 0.950 . S
C634 C632 1.391 . S
C634 C635 1.400 . S
C635 C634 1.400 . S
C635 C636 1.398 . S
C635 C641 1.491 . S
C636 H627 0.950 . S
C636 C635 1.398 . S
C636 C637 1.391 . S
C637 H625 0.950 . S
C637 C633 1.393 . S
C637 C636 1.391 . S
C638 H628 0.950 1_554 S
C638 C639 1.386 . S
C638 C640 1.391 . S
C639 C638 1.386 . S
C639 C643 1.393 . S
C640 H629 0.950 . S
C640 C638 1.391 . S
C640 C641 1.400 . S
C641 C635 1.491 . S
C641 C640 1.400 . S
C641 C642 1.398 . S
C642 H630 0.950 . S
C642 C641 1.398 . S
C642 C643 1.391 . S
C643 H631 0.950 . S
C643 C639 1.393 . S
C643 C642 1.391 . S
H644 C652 0.950 . S
H645 C657 0.950 1_554 S
H646 C654 0.950 . S
H647 C656 0.950 1_554 S
H648 C658 0.950 . S
H649 C660 0.950 . S
H650 C662 0.950 . S
H651 C663 0.950 . S
C652 H644 0.950 . S
C652 C653 1.386 . S
C652 C654 1.391 . S
C653 C652 1.386 . S
C653 C657 1.393 . S
C654 H646 0.950 . S
C654 C652 1.391 . S
C654 C655 1.400 . S
C655 C654 1.400 . S
C655 C656 1.398 . S
C655 C661 1.491 . S
C656 H647 0.950 1_556 S
C656 C655 1.398 . S
C656 C657 1.391 . S
C657 H645 0.950 1_556 S
C657 C653 1.393 . S
C657 C656 1.391 . S
C658 H648 0.950 . S
C658 C659 1.386 . S
C658 C660 1.391 . S
C659 C658 1.386 . S
C659 C663 1.393 . S
C660 H649 0.950 . S
C660 C658 1.391 . S
C660 C661 1.400 . S
C661 C655 1.491 . S
C661 C660 1.400 . S
C661 C662 1.398 . S
C662 H650 0.950 . S
C662 C661 1.398 . S
C662 C663 1.391 . S
C663 H651 0.950 . S
C663 C659 1.393 . S
C663 C662 1.391 . S
H664 C672 0.950 . S
H665 C677 0.950 . S
H666 C674 0.950 . S
H667 C676 0.950 . S
H668 C678 0.950 . S
H669 C680 0.950 . S
H670 C682 0.950 . S
H671 C683 0.950 . S
C672 H664 0.950 . S
C672 C673 1.386 . S
C672 C674 1.391 . S
C673 C672 1.386 . S
C673 C677 1.393 1_655 S
C674 H666 0.950 . S
C674 C672 1.391 . S
C674 C675 1.400 . S
C675 C674 1.400 . S
C675 C676 1.398 1_655 S
C675 C681 1.491 . S
C676 H667 0.950 . S
C676 C675 1.398 1_455 S
C676 C677 1.391 . S
C677 H665 0.950 . S
C677 C673 1.393 1_455 S
C677 C676 1.391 . S
C678 H668 0.950 . S
C678 C679 1.386 1_455 S
C678 C680 1.391 . S
C679 C678 1.386 1_655 S
C679 C683 1.393 . S
C680 H669 0.950 . S
C680 C678 1.391 . S
C680 C681 1.400 1_455 S
C681 C675 1.491 . S
C681 C680 1.400 1_655 S
C681 C682 1.398 . S
C682 H670 0.950 . S
C682 C681 1.398 . S
C682 C683 1.391 . S
C683 H671 0.950 . S
C683 C679 1.393 . S
C683 C682 1.391 . S
H684 C692 0.950 . S
H685 C697 0.950 . S
H686 C694 0.950 . S
H687 C696 0.950 . S
H688 C698 0.950 . S
H689 C700 0.950 . S
H690 C702 0.950 . S
H691 C703 0.950 . S
C692 H684 0.950 . S
C692 C693 1.413 . S
C692 C694 1.391 . S
C693 C692 1.413 . S
C693 C697 1.371 1_565 S
C694 H686 0.950 . S
C694 C692 1.391 . S
C694 C695 1.400 . S
C695 C694 1.400 . S
C695 C696 1.398 1_565 S
C695 C701 1.491 . S
C696 H687 0.950 . S
C696 C695 1.398 1_545 S
C696 C697 1.391 . S
C697 H685 0.950 . S
C697 C693 1.371 1_545 S
C697 C696 1.391 . S
C698 H688 0.950 . S
C698 C699 1.386 1_545 S
C698 C700 1.391 . S
C699 C698 1.386 1_565 S
C699 C703 1.393 . S
C700 H689 0.950 . S
C700 C698 1.391 . S
C700 C701 1.400 1_545 S
C701 C695 1.491 . S
C701 C700 1.400 1_565 S
C701 C702 1.398 . S
C702 H690 0.950 . S
C702 C701 1.398 . S
C702 C703 1.391 . S
C703 H691 0.950 . S
C703 C699 1.393 . S
C703 C702 1.391 . S
H704 C712 0.950 . S
H705 C717 0.950 . S
H706 C714 0.950 . S
H707 C716 0.950 . S
H708 C718 0.950 . S
H709 C720 0.950 . S
H710 C722 0.950 . S
H711 C723 0.950 . S
C712 H704 0.950 . S
C712 C713 1.386 . S
C712 C714 1.391 . S
C713 C712 1.386 . S
C713 C717 1.393 . S
C714 H706 0.950 . S
C714 C712 1.391 . S
C714 C715 1.400 . S
C715 C714 1.400 . S
C715 C716 1.398 . S
C715 C721 1.491 . S
C716 H707 0.950 . S
C716 C715 1.398 . S
C716 C717 1.391 . S
C717 H705 0.950 . S
C717 C713 1.393 . S
C717 C716 1.391 . S
C718 H708 0.950 . S
C718 C719 1.386 . S
C718 C720 1.391 . S
C719 C718 1.386 . S
C719 C723 1.393 . S
C720 H709 0.950 . S
C720 C718 1.391 . S
C720 C721 1.400 . S
C721 C715 1.491 . S
C721 C720 1.400 . S
C721 C722 1.398 . S
C722 H710 0.950 . S
C722 C721 1.398 . S
C722 C723 1.391 . S
C723 H711 0.950 . S
C723 C719 1.393 . S
C723 C722 1.391 . S
H724 C732 0.950 . S
H725 C737 0.950 . S
H726 C734 0.950 . S
H727 C736 0.950 . S
H728 C738 0.950 . S
H729 C740 0.950 . S
H730 C742 0.950 . S
H731 C743 0.950 . S
C732 H724 0.950 . S
C732 C733 1.386 . S
C732 C734 1.391 . S
C733 C732 1.386 . S
C733 C737 1.393 . S
C734 H726 0.950 . S
C734 C732 1.391 . S
C734 C735 1.400 . S
C735 C734 1.400 . S
C735 C736 1.398 . S
C735 C741 1.491 . S
C736 H727 0.950 . S
C736 C735 1.398 . S
C736 C737 1.391 . S
C737 H725 0.950 . S
C737 C733 1.393 . S
C737 C736 1.391 . S
C738 H728 0.950 . S
C738 C739 1.386 . S
C738 C740 1.391 . S
C739 C738 1.386 . S
C739 C743 1.393 . S
C740 H729 0.950 . S
C740 C738 1.391 . S
C740 C741 1.400 . S
C741 C735 1.491 . S
C741 C740 1.400 . S
C741 C742 1.398 . S
C742 H730 0.950 . S
C742 C741 1.398 . S
C742 C743 1.391 . S
C743 H731 0.950 . S
C743 C739 1.393 . S
C743 C742 1.391 . S
C273 N80 2.081 . S
C279 C106 2.111 1_545 S
C299 C146 2.068 . S
C293 N93 2.068 . S
C319 C210 1.819 . S
C313 N54 1.761 . S
C339 C226 1.593 . S
C333 N67 1.517 . S
C359 C127 2.110 1_565 S
C353 N28 2.083 1_545 S
C373 N41 2.068 . S
C379 C167 2.081 . S
C393 N2 1.778 . S
C399 C201 1.825 . S
C413 N15 1.503 . S
C419 C247 1.588 . S
C439 C121 0.393 . S
C433 N70 0.373 . S
C459 C161 0.706 . S
C453 N83 0.686 1_545 S
C479 C197 0.691 . S
C473 N96 0.710 . S
C493 N57 0.566 . S
C499 C241 0.601 . S
C513 N18 0.345 . S
C519 C130 0.422 . S
C539 C170 0.702 . S
C533 N31 0.679 . S
C559 C208 0.687 . S
C553 N44 0.699 . S
C573 N5 0.559 . S
C579 C250 0.598 . S
C593 N66 1.871 . S
C599 C128 1.953 . S
C613 N79 2.002 1_545 S
C619 C168 2.049 . S
C639 C186 1.651 1_554 S
C633 N92 1.682 . S
C659 C248 2.359 . S
C653 N53 2.265 . S
C673 N14 1.891 . S
C679 C117 1.967 . S
C699 C157 2.058 . S
C693 N27 2.008 . S
C719 C207 1.658 . S
C713 N40 1.695 . S
C733 N1 2.268 . S
C739 C237 2.360 . S
