# Generated by pormake.
# Topology ctn, (3,4)-cn, num edge types: 1
# Building blocks:
#     Node 0, Type 0, BuildingBlock: KAKCAD_clean_linker_0, # of connection points: 3
#     Node 1, Type 0, BuildingBlock: KAKCAD_clean_linker_0, # of connection points: 3
#     Node 2, Type 0, BuildingBlock: KAKCAD_clean_linker_0, # of connection points: 3
#     Node 3, Type 0, BuildingBlock: KAKCAD_clean_linker_0, # of connection points: 3
#     Node 4, Type 0, BuildingBlock: KAKCAD_clean_linker_0, # of connection points: 3
#     Node 5, Type 0, BuildingBlock: KAKCAD_clean_linker_0, # of connection points: 3
#     Node 6, Type 0, BuildingBlock: KAKCAD_clean_linker_0, # of connection points: 3
#     Node 7, Type 0, BuildingBlock: KAKCAD_clean_linker_0, # of connection points: 3
#     Node 8, Type 0, BuildingBlock: KAKCAD_clean_linker_0, # of connection points: 3
#     Node 9, Type 0, BuildingBlock: KAKCAD_clean_linker_0, # of connection points: 3
#     Node 10, Type 0, BuildingBlock: KAKCAD_clean_linker_0, # of connection points: 3
#     Node 11, Type 0, BuildingBlock: KAKCAD_clean_linker_0, # of connection points: 3
#     Node 12, Type 0, BuildingBlock: KAKCAD_clean_linker_0, # of connection points: 3
#     Node 13, Type 0, BuildingBlock: KAKCAD_clean_linker_0, # of connection points: 3
#     Node 14, Type 0, BuildingBlock: KAKCAD_clean_linker_0, # of connection points: 3
#     Node 15, Type 0, BuildingBlock: KAKCAD_clean_linker_0, # of connection points: 3
#     Node 16, Type 1, BuildingBlock: AZAVOO_clean_sbu_0, # of connection points: 4
#     Node 17, Type 1, BuildingBlock: AZAVOO_clean_sbu_0, # of connection points: 4
#     Node 18, Type 1, BuildingBlock: AZAVOO_clean_sbu_0, # of connection points: 4
#     Node 19, Type 1, BuildingBlock: AZAVOO_clean_sbu_0, # of connection points: 4
#     Node 20, Type 1, BuildingBlock: AZAVOO_clean_sbu_0, # of connection points: 4
#     Node 21, Type 1, BuildingBlock: AZAVOO_clean_sbu_0, # of connection points: 4
#     Node 22, Type 1, BuildingBlock: AZAVOO_clean_sbu_0, # of connection points: 4
#     Node 23, Type 1, BuildingBlock: AZAVOO_clean_sbu_0, # of connection points: 4
#     Node 24, Type 1, BuildingBlock: AZAVOO_clean_sbu_0, # of connection points: 4
#     Node 25, Type 1, BuildingBlock: AZAVOO_clean_sbu_0, # of connection points: 4
#     Node 26, Type 1, BuildingBlock: AZAVOO_clean_sbu_0, # of connection points: 4
#     Node 27, Type 1, BuildingBlock: AZAVOO_clean_sbu_0, # of connection points: 4
#     Edge 28, Type (0, 1), BuildingBlock: UVAHIK_clean_linker_0, # of connection points: 2
#     Edge 29, Type (0, 1), BuildingBlock: UVAHIK_clean_linker_0, # of connection points: 2
#     Edge 30, Type (0, 1), BuildingBlock: UVAHIK_clean_linker_0, # of connection points: 2
#     Edge 31, Type (0, 1), BuildingBlock: UVAHIK_clean_linker_0, # of connection points: 2
#     Edge 32, Type (0, 1), BuildingBlock: UVAHIK_clean_linker_0, # of connection points: 2
#     Edge 33, Type (0, 1), BuildingBlock: UVAHIK_clean_linker_0, # of connection points: 2
#     Edge 34, Type (0, 1), BuildingBlock: UVAHIK_clean_linker_0, # of connection points: 2
#     Edge 35, Type (0, 1), BuildingBlock: UVAHIK_clean_linker_0, # of connection points: 2
#     Edge 36, Type (0, 1), BuildingBlock: UVAHIK_clean_linker_0, # of connection points: 2
#     Edge 37, Type (0, 1), BuildingBlock: UVAHIK_clean_linker_0, # of connection points: 2
#     Edge 38, Type (0, 1), BuildingBlock: UVAHIK_clean_linker_0, # of connection points: 2
#     Edge 39, Type (0, 1), BuildingBlock: UVAHIK_clean_linker_0, # of connection points: 2
#     Edge 40, Type (0, 1), BuildingBlock: UVAHIK_clean_linker_0, # of connection points: 2
#     Edge 41, Type (0, 1), BuildingBlock: UVAHIK_clean_linker_0, # of connection points: 2
#     Edge 42, Type (0, 1), BuildingBlock: UVAHIK_clean_linker_0, # of connection points: 2
#     Edge 43, Type (0, 1), BuildingBlock: UVAHIK_clean_linker_0, # of connection points: 2
#     Edge 44, Type (0, 1), BuildingBlock: UVAHIK_clean_linker_0, # of connection points: 2
#     Edge 45, Type (0, 1), BuildingBlock: UVAHIK_clean_linker_0, # of connection points: 2
#     Edge 46, Type (0, 1), BuildingBlock: UVAHIK_clean_linker_0, # of connection points: 2
#     Edge 47, Type (0, 1), BuildingBlock: UVAHIK_clean_linker_0, # of connection points: 2
#     Edge 48, Type (0, 1), BuildingBlock: UVAHIK_clean_linker_0, # of connection points: 2
#     Edge 49, Type (0, 1), BuildingBlock: UVAHIK_clean_linker_0, # of connection points: 2
#     Edge 50, Type (0, 1), BuildingBlock: UVAHIK_clean_linker_0, # of connection points: 2
#     Edge 51, Type (0, 1), BuildingBlock: UVAHIK_clean_linker_0, # of connection points: 2
#     Edge 52, Type (0, 1), BuildingBlock: UVAHIK_clean_linker_0, # of connection points: 2
#     Edge 53, Type (0, 1), BuildingBlock: UVAHIK_clean_linker_0, # of connection points: 2
#     Edge 54, Type (0, 1), BuildingBlock: UVAHIK_clean_linker_0, # of connection points: 2
#     Edge 55, Type (0, 1), BuildingBlock: UVAHIK_clean_linker_0, # of connection points: 2
#     Edge 56, Type (0, 1), BuildingBlock: UVAHIK_clean_linker_0, # of connection points: 2
#     Edge 57, Type (0, 1), BuildingBlock: UVAHIK_clean_linker_0, # of connection points: 2
#     Edge 58, Type (0, 1), BuildingBlock: UVAHIK_clean_linker_0, # of connection points: 2
#     Edge 59, Type (0, 1), BuildingBlock: UVAHIK_clean_linker_0, # of connection points: 2
#     Edge 60, Type (0, 1), BuildingBlock: UVAHIK_clean_linker_0, # of connection points: 2
#     Edge 61, Type (0, 1), BuildingBlock: UVAHIK_clean_linker_0, # of connection points: 2
#     Edge 62, Type (0, 1), BuildingBlock: UVAHIK_clean_linker_0, # of connection points: 2
#     Edge 63, Type (0, 1), BuildingBlock: UVAHIK_clean_linker_0, # of connection points: 2
#     Edge 64, Type (0, 1), BuildingBlock: UVAHIK_clean_linker_0, # of connection points: 2
#     Edge 65, Type (0, 1), BuildingBlock: UVAHIK_clean_linker_0, # of connection points: 2
#     Edge 66, Type (0, 1), BuildingBlock: UVAHIK_clean_linker_0, # of connection points: 2
#     Edge 67, Type (0, 1), BuildingBlock: UVAHIK_clean_linker_0, # of connection points: 2
#     Edge 68, Type (0, 1), BuildingBlock: UVAHIK_clean_linker_0, # of connection points: 2
#     Edge 69, Type (0, 1), BuildingBlock: UVAHIK_clean_linker_0, # of connection points: 2
#     Edge 70, Type (0, 1), BuildingBlock: UVAHIK_clean_linker_0, # of connection points: 2
#     Edge 71, Type (0, 1), BuildingBlock: UVAHIK_clean_linker_0, # of connection points: 2
#     Edge 72, Type (0, 1), BuildingBlock: UVAHIK_clean_linker_0, # of connection points: 2
#     Edge 73, Type (0, 1), BuildingBlock: UVAHIK_clean_linker_0, # of connection points: 2
#     Edge 74, Type (0, 1), BuildingBlock: UVAHIK_clean_linker_0, # of connection points: 2
#     Edge 75, Type (0, 1), BuildingBlock: UVAHIK_clean_linker_0, # of connection points: 2
# Relax obj value: 0.001
# Max RMSD: 0.043
# Mean RMSD: 0.022
data_MOF--net-ctn--node1-AZAVOO_clean_sbu_0--node2-KAKCAD_clean_linker_0--edge1-UVAHIK_clean_linker_0
_symmetry_space_group_name_H-M    P1
_symmetry_Int_Tables_number       1
_symmetry_cell_setting            triclinic
loop_
_symmetry_equiv_pos_as_xyz
'x, y, z'
_cell_length_a     82.94819
_cell_length_b     84.02528
_cell_length_c     83.935721
_cell_angle_alpha  90.176794
_cell_angle_beta   92.767013
_cell_angle_gamma 92.918078
loop_
_atom_site_label
_atom_site_type_symbol
_atom_site_fract_x
_atom_site_fract_y
_atom_site_fract_z
_atom_type_partial_charge
C0 C 0.03537 0.06176 0.9711 0.0
C1 C 0.03609 0.07622 0.97962 0.0
C2 C 0.03459 0.04722 0.97919 0.0
C3 C 0.03425 0.04693 0.99591 0.0
C4 C 0.03482 0.06141 0.00438 0.0
C5 C 0.03579 0.07589 0.99633 0.0
C6 C 0.03354 0.03165 0.00468 0.0
C7 C 0.04424 0.01978 0.00149 0.0
C8 C 0.04449 0.00578 0.01063 0.0
C9 C 0.03376 0.00381 0.02308 0.0
C10 C 0.02298 0.01562 0.02646 0.0
C11 C 0.02282 0.02937 0.01697 0.0
C12 C 0.01239 0.01409 0.04031 0.0
C13 C 0.00536 0.99922 0.04468 0.0
C14 C 0.00936 0.02763 0.0494 0.0
C15 C 0.99936 0.02642 0.06226 0.0
C16 C 0.99236 0.01162 0.06658 0.0
C17 C 0.05654 0.99368 0.00766 0.0
C18 C 0.06075 0.99017 0.99203 0.0
C19 C 0.06432 0.98591 0.02048 0.0
C20 C 0.07602 0.97497 0.01773 0.0
C21 C 0.08036 0.97168 0.00214 0.0
C22 C 0.07261 0.97937 0.98931 0.0
C23 C 0.99554 0.99798 0.05779 0.0
H24 H 0.03565 0.0617 0.95821 0.0
H25 H 0.03411 0.03621 0.9724 0.0
H26 H 0.03473 0.06153 0.01729 0.0
H27 H 0.03617 0.08686 0.00319 0.0
H28 H 0.05288 0.02182 0.99234 0.0
H29 H 0.01433 0.03843 0.01913 0.0
H30 H 0.03404 0.99319 0.03033 0.0
H31 H 0.00725 0.98856 0.03789 0.0
H32 H 0.0149 0.0392 0.04675 0.0
H33 H 0.99732 0.03707 0.06904 0.0
H34 H 0.05484 0.99573 0.98186 0.0
H35 H 0.06168 0.98853 0.03269 0.0
H36 H 0.99022 0.98643 0.0609 0.0
H37 H 0.07561 0.97691 0.97716 0.0
H38 H 0.08196 0.96935 0.02786 0.0
C39 C 0.3584 0.74839 0.27212 0.0
C40 C 0.36549 0.73468 0.27821 0.0
C41 C 0.34462 0.74709 0.26185 0.0
C42 C 0.33764 0.73205 0.25734 0.0
C43 C 0.34473 0.71834 0.26343 0.0
C44 C 0.35844 0.71964 0.27378 0.0
C45 C 0.32315 0.73064 0.24617 0.0
C46 C 0.32176 0.74087 0.23301 0.0
C47 C 0.30832 0.73938 0.22217 0.0
C48 C 0.29619 0.72747 0.22459 0.0
C49 C 0.29739 0.71707 0.2376 0.0
C50 C 0.31085 0.71883 0.2484 0.0
C51 C 0.2849 0.70399 0.23952 0.0
C52 C 0.2684 0.7066 0.23665 0.0
C53 C 0.28947 0.68861 0.24369 0.0
C54 C 0.27785 0.67608 0.2447 0.0
C55 C 0.26138 0.67861 0.24153 0.0
C56 C 0.30714 0.75 0.20809 0.0
C57 C 0.31128 0.76639 0.20953 0.0
C58 C 0.30182 0.74378 0.19308 0.0
C59 C 0.30048 0.75373 0.17986 0.0
C60 C 0.30451 0.77015 0.18129 0.0
C61 C 0.30996 0.77637 0.19628 0.0
C62 C 0.25676 0.69405 0.23766 0.0
H63 H 0.3636 0.76016 0.27513 0.0
H64 H 0.33938 0.7579 0.25753 0.0
H65 H 0.33981 0.70656 0.26006 0.0
H66 H 0.36343 0.70883 0.2784 0.0
H67 H 0.33141 0.74966 0.23087 0.0
H68 H 0.31163 0.71109 0.25868 0.0
H69 H 0.28587 0.72617 0.21618 0.0
H70 H 0.26447 0.71834 0.23358 0.0
H71 H 0.30208 0.68615 0.24583 0.0
H72 H 0.28179 0.66438 0.24795 0.0
H73 H 0.31532 0.77156 0.22097 0.0
H74 H 0.29874 0.73117 0.19151 0.0
H75 H 0.24419 0.69638 0.23505 0.0
H76 H 0.31328 0.78894 0.19776 0.0
H77 H 0.29604 0.74858 0.16854 0.0
C78 C 0.00521 0.48686 0.10443 0.0
C79 C 0.02201 0.48849 0.10264 0.0
C80 C 0.99447 0.48561 0.09107 0.0
C81 C 0.00027 0.48573 0.07564 0.0
C82 C 0.017 0.48737 0.07378 0.0
C83 C 0.02773 0.48887 0.08711 0.0
C84 C 0.98894 0.48391 0.06148 0.0
C85 C 0.97549 0.49336 0.05982 0.0
C86 C 0.9647 0.4917 0.0464 0.0
C87 C 0.96744 0.48026 0.0347 0.0
C88 C 0.98076 0.47059 0.03625 0.0
C89 C 0.99152 0.47261 0.04964 0.0
C90 C 0.98318 0.45803 0.02419 0.0
C91 C 0.96996 0.44853 0.01783 0.0
C92 C 0.99874 0.45512 0.0193 0.0
C93 C 0.00107 0.44277 0.00858 0.0
C94 C 0.98788 0.43306 0.00249 0.0
C95 C 0.95065 0.50197 0.04456 0.0
C96 C 0.9416 0.50549 0.05775 0.0
C97 C 0.94628 0.50847 0.02964 0.0
C98 C 0.93328 0.51838 0.02799 0.0
C99 C 0.92438 0.52206 0.04122 0.0
C100 C 0.92863 0.51543 0.0561 0.0
C101 C 0.97228 0.43622 0.00709 0.0
H102 H 0.00032 0.48624 0.11616 0.0
H103 H 0.98161 0.4842 0.09281 0.0
H104 H 0.02176 0.48768 0.06199 0.0
H105 H 0.04052 0.49047 0.0852 0.0
H106 H 0.97369 0.5023 0.06881 0.0
H107 H 0.00165 0.46501 0.05117 0.0
H108 H 0.95911 0.47882 0.02439 0.0
H109 H 0.95783 0.45034 0.02145 0.0
H110 H 0.00916 0.46234 0.02382 0.0
H111 H 0.01326 0.44059 0.00539 0.0
H112 H 0.94447 0.50046 0.06935 0.0
H113 H 0.95314 0.50619 0.01929 0.0
H114 H 0.96183 0.4291 0.00247 0.0
H115 H 0.92186 0.51785 0.06648 0.0
H116 H 0.93045 0.52348 0.01642 0.0
C117 C 0.70271 0.78775 0.16736 0.0
C118 C 0.71781 0.78084 0.16728 0.0
C119 C 0.69983 0.79944 0.17863 0.0
C120 C 0.71202 0.80455 0.18998 0.0
C121 C 0.72701 0.7975 0.19005 0.0
C122 C 0.72986 0.78575 0.17889 0.0
C123 C 0.70925 0.81732 0.20162 0.0
C124 C 0.69507 0.81699 0.21012 0.0
C125 C 0.69272 0.82876 0.22163 0.0
C126 C 0.7046 0.84116 0.22428 0.0
C127 C 0.71881 0.84166 0.21583 0.0
C128 C 0.72104 0.82969 0.20456 0.0
C129 C 0.73156 0.85445 0.21892 0.0
C130 C 0.72772 0.87053 0.21924 0.0
C131 C 0.74778 0.85059 0.22121 0.0
C132 C 0.75995 0.86257 0.22352 0.0
C133 C 0.75624 0.87873 0.22341 0.0
C134 C 0.67836 0.82747 0.23153 0.0
C135 C 0.66297 0.82327 0.22461 0.0
C136 C 0.68014 0.8296 0.24814 0.0
C137 C 0.66691 0.82714 0.25768 0.0
C138 C 0.65156 0.82254 0.25082 0.0
C139 C 0.6497 0.82088 0.23414 0.0
C140 C 0.73994 0.88256 0.22139 0.0
H141 H 0.69323 0.7844 0.15848 0.0
H142 H 0.68819 0.80476 0.17824 0.0
H143 H 0.73653 0.801 0.19884 0.0
H144 H 0.7415 0.78045 0.17943 0.0
H145 H 0.68617 0.80718 0.20827 0.0
H146 H 0.73192 0.83014 0.19788 0.0
H147 H 0.70291 0.85028 0.23312 0.0
H148 H 0.71531 0.87381 0.21739 0.0
H149 H 0.75104 0.83827 0.22129 0.0
H150 H 0.77229 0.85913 0.22545 0.0
H151 H 0.6612 0.82174 0.21181 0.0
H152 H 0.69189 0.8326 0.25386 0.0
H153 H 0.73664 0.89486 0.22106 0.0
H154 H 0.638 0.81762 0.22844 0.0
H155 H 0.66886 0.82826 0.27049 0.0
C156 C 0.99736 0.98968 0.43861 0.0
C157 C 0.00299 0.99734 0.42497 0.0
C158 C 0.00787 0.98736 0.45185 0.0
C159 C 0.02433 0.99237 0.4516 0.0
C160 C 0.02984 0.00017 0.43792 0.0
C161 C 0.01926 0.00275 0.42482 0.0
C162 C 0.0358 0.98904 0.46531 0.0
C163 C 0.034 0.97483 0.47401 0.0
C164 C 0.045 0.97135 0.48663 0.0
C165 C 0.05821 0.98209 0.49027 0.0
C166 C 0.06034 0.99633 0.4817 0.0
C167 C 0.04889 -0.00019 0.46946 0.0
C168 C 0.07469 0.0074 0.48527 0.0
C169 C 0.08089 0.00992 0.50105 0.0
C170 C 0.08247 0.01539 0.47284 0.0
C171 C 0.09594 0.02575 0.4761 0.0
C172 C 0.10211 0.02821 0.49184 0.0
C173 C 0.04276 0.95637 0.49585 0.0
C174 C 0.02729 0.95103 0.50032 0.0
C175 C 0.05603 0.94729 0.50023 0.0
C176 C 0.05387 0.93318 0.50882 0.0
C177 C 0.03838 0.92779 0.51321 0.0
C178 C 0.02513 0.93691 0.50889 0.0
C179 C 0.09452 0.02013 0.50427 0.0
H180 H 0.98482 0.98551 0.43904 0.0
H181 H 0.00305 0.98162 0.46225 0.0
H182 H 0.04245 0.00393 0.43708 0.0
H183 H 0.02393 0.00852 0.41435 0.0
H184 H 0.0243 0.96617 0.47067 0.0
H185 H 0.05009 0.01105 0.46324 0.0
H186 H 0.06689 0.97929 0.49977 0.0
H187 H 0.0751 0.00419 0.51095 0.0
H188 H 0.0783 0.0135 0.46053 0.0
H189 H 0.10169 0.03169 0.46627 0.0
H190 H 0.01684 0.95783 0.49728 0.0
H191 H 0.06808 0.95097 0.49684 0.0
H192 H 0.09892 0.02196 0.51653 0.0
H193 H 0.01301 0.93302 0.51191 0.0
H194 H 0.06437 0.92654 0.51209 0.0
C195 C 0.15595 0.69844 0.7338 0.0
C196 C 0.15302 0.7138 0.72816 0.0
C197 C 0.16889 0.69606 0.7447 0.0
C198 C 0.17891 0.70904 0.75035 0.0
C199 C 0.17594 0.7244 0.74474 0.0
C200 C 0.16319 0.72674 0.73364 0.0
C201 C 0.19226 0.70668 0.76232 0.0
C202 C 0.20369 0.69526 0.75979 0.0
C203 C 0.21662 0.69335 0.77096 0.0
C204 C 0.21766 0.70263 0.78496 0.0
C205 C 0.2062 0.71393 0.78776 0.0
C206 C 0.19364 0.71602 0.77627 0.0
C207 C 0.20745 0.72346 0.80272 0.0
C208 C 0.21111 0.7161 0.81736 0.0
C209 C 0.20534 0.73996 0.80248 0.0
C210 C 0.20725 0.74896 0.81656 0.0
C211 C 0.21129 0.74163 0.83115 0.0
C212 C 0.22931 0.68199 0.768 0.0
C213 C 0.22525 0.66651 0.76221 0.0
C214 C 0.24567 0.68654 0.77131 0.0
C215 C 0.25768 0.67581 0.76914 0.0
C216 C 0.25366 0.66025 0.76357 0.0
C217 C 0.23731 0.65573 0.76008 0.0
C218 C 0.21299 0.72507 0.8314 0.0
H219 H 0.14832 0.68826 0.72966 0.0
H220 H 0.17091 0.68412 0.74892 0.0
H221 H 0.18355 0.73459 0.74888 0.0
H222 H 0.16113 0.73871 0.72953 0.0
H223 H 0.20283 0.68829 0.74886 0.0
H224 H 0.18466 0.72462 0.77838 0.0
H225 H 0.2275 0.70111 0.7937 0.0
H226 H 0.21249 0.70336 0.81798 0.0
H227 H 0.20263 0.74597 0.79135 0.0
H228 H 0.20599 0.76171 0.81595 0.0
H229 H 0.21274 0.66264 0.75963 0.0
H230 H 0.24922 0.69844 0.77559 0.0
H231 H 0.21575 0.71899 0.84249 0.0
H232 H 0.23383 0.64387 0.75563 0.0
H233 H 0.27013 0.67965 0.77211 0.0
C234 C 0.9785 0.57053 0.4829 0.0
C235 C 0.97832 0.56879 0.49956 0.0
C236 C 0.97563 0.55734 0.4728 0.0
C237 C 0.97235 0.54212 0.47912 0.0
C238 C 0.9722 0.54033 0.49574 0.0
C239 C 0.97523 0.5535 0.50586 0.0
C240 C 0.96897 0.52818 0.46838 0.0
C241 C 0.97878 0.52568 0.45554 0.0
C242 C 0.97563 0.51257 0.44524 0.0
C243 C 0.96251 0.50183 0.44798 0.0
C244 C 0.9524 0.50424 0.46068 0.0
C245 C 0.9558 0.51748 0.47082 0.0
C246 C 0.93812 0.4932 0.46321 0.0
C247 C 0.92878 0.48659 0.45014 0.0
C248 C 0.93353 0.4894 0.47873 0.0
C249 C 0.91989 0.4794 0.48111 0.0
C250 C 0.91066 0.47278 0.46805 0.0
C251 C 0.98597 0.51028 0.43152 0.0
C252 C 0.99077 0.52336 0.42216 0.0
C253 C 0.99125 0.49514 0.42777 0.0
C254 C 0.00133 0.49319 0.41507 0.0
C255 C 0.00631 0.50634 0.40586 0.0
C256 C 0.00079 0.52141 0.40949 0.0
C257 C 0.91527 0.47641 0.45255 0.0
H258 H 0.98054 0.58215 0.4776 0.0
H259 H 0.97562 0.55909 0.46002 0.0
H260 H 0.96991 0.52869 0.50094 0.0
H261 H 0.97526 0.55166 0.51862 0.0
H262 H 0.98909 0.53382 0.45375 0.0
H263 H 0.9479 0.51978 0.48038 0.0
H264 H 0.96011 0.49166 0.4401 0.0
H265 H 0.93172 0.48948 0.43803 0.0
H266 H 0.94057 0.494 0.48909 0.0
H267 H 0.91672 0.4766 0.4932 0.0
H268 H 0.98666 0.53513 0.42456 0.0
H269 H 0.98789 0.48486 0.43486 0.0
H270 H 0.90827 0.47155 0.44226 0.0
H271 H 0.00412 0.53173 0.40244 0.0
H272 H 0.00549 0.48145 0.4127 0.0
C273 C 0.80537 0.73889 0.82738 0.0
C274 C 0.78977 0.73458 0.83217 0.0
C275 C 0.8075 0.74919 0.81449 0.0
C276 C 0.79406 0.7552 0.80605 0.0
C277 C 0.77846 0.75002 0.81032 0.0
C278 C 0.77635 0.73995 0.82333 0.0
C279 C 0.7962 0.76765 0.79363 0.0
C280 C 0.80888 0.7673 0.78308 0.0
C281 C 0.81122 0.77949 0.7718 0.0
C282 C 0.80073 0.79214 0.77126 0.0
C283 C 0.78784 0.79243 0.78142 0.0
C284 C 0.78568 0.78025 0.79257 0.0
C285 C 0.7764 0.80535 0.78025 0.0
C286 C 0.78199 0.82135 0.78186 0.0
C287 C 0.7598 0.80169 0.77745 0.0
C288 C 0.74896 0.81386 0.77602 0.0
C289 C 0.75453 0.82986 0.77774 0.0
C290 C 0.82432 0.77886 0.76031 0.0
C291 C 0.83959 0.77347 0.76504 0.0
C292 C 0.82158 0.78367 0.74441 0.0
C293 C 0.83378 0.78318 0.73357 0.0
C294 C 0.84902 0.77768 0.73823 0.0
C295 C 0.85179 0.77286 0.75413 0.0
C296 C 0.7711 0.83351 0.78078 0.0
H297 H 0.81589 0.73494 0.8341 0.0
H298 H 0.81968 0.753 0.81162 0.0
H299 H 0.76782 0.75402 0.80384 0.0
H300 H 0.7642 0.7366 0.82669 0.0
H301 H 0.81667 0.75734 0.7834 0.0
H302 H 0.77599 0.78091 0.80072 0.0
H303 H 0.80244 0.80174 0.76282 0.0
H304 H 0.79475 0.82441 0.78407 0.0
H305 H 0.75526 0.78941 0.77612 0.0
H306 H 0.73622 0.81079 0.7737 0.0
H307 H 0.84219 0.76984 0.77722 0.0
H308 H 0.80991 0.78767 0.74024 0.0
H309 H 0.77565 0.84579 0.78204 0.0
H310 H 0.86331 0.76841 0.75811 0.0
H311 H 0.83125 0.78722 0.72151 0.0
C312 C 0.30609 0.23987 0.32461 0.0
C313 C 0.29054 0.23655 0.33004 0.0
C314 C 0.30843 0.25043 0.31197 0.0
C315 C 0.29522 0.25773 0.30442 0.0
C316 C 0.27959 0.25375 0.30943 0.0
C317 C 0.2773 0.24338 0.32217 0.0
C318 C 0.29771 0.26999 0.29186 0.0
C319 C 0.30949 0.26841 0.28053 0.0
C320 C 0.31201 0.28016 0.26888 0.0
C321 C 0.30246 0.29353 0.2686 0.0
C322 C 0.29054 0.29525 0.27971 0.0
C323 C 0.28837 0.28351 0.29136 0.0
C324 C 0.28032 0.3093 0.27911 0.0
C325 C 0.28713 0.32458 0.27603 0.0
C326 C 0.26363 0.3075 0.28135 0.0
C327 C 0.25394 0.32064 0.28032 0.0
C328 C 0.26073 0.33585 0.27697 0.0
C329 C 0.32458 0.27856 0.25697 0.0
C330 C 0.33972 0.27271 0.26146 0.0
C331 C 0.32164 0.28322 0.24106 0.0
C332 C 0.33359 0.28229 0.22999 0.0
C333 C 0.34877 0.27652 0.23446 0.0
C334 C 0.35166 0.27167 0.25033 0.0
C335 C 0.27745 0.33769 0.27495 0.0
H336 H 0.31651 0.23481 0.33057 0.0
H337 H 0.32065 0.25332 0.30853 0.0
H338 H 0.26909 0.2588 0.30364 0.0
H339 H 0.26515 0.24083 0.326 0.0
H340 H 0.31646 0.25785 0.28055 0.0
H341 H 0.27962 0.28513 0.30033 0.0
H342 H 0.30429 0.30264 0.25967 0.0
H343 H 0.29999 0.32643 0.27454 0.0
H344 H 0.25797 0.29586 0.28355 0.0
H345 H 0.24108 0.31882 0.28177 0.0
H346 H 0.34246 0.26916 0.27364 0.0
H347 H 0.31006 0.28756 0.23711 0.0
H348 H 0.28309 0.34931 0.27264 0.0
H349 H 0.36312 0.26697 0.25416 0.0
H350 H 0.33097 0.28634 0.21795 0.0
C351 C 0.50278 0.98452 0.60416 0.0
C352 C 0.51949 0.98626 0.60189 0.0
C353 C 0.49171 0.98259 0.5911 0.0
C354 C 0.4971 0.98214 0.57552 0.0
C355 C 0.51373 0.98397 0.57319 0.0
C356 C 0.52478 0.98614 0.5862 0.0
C357 C 0.48547 0.97944 0.5617 0.0
C358 C 0.47183 0.98859 0.55982 0.0
C359 C 0.46081 0.98613 0.54666 0.0
C360 C 0.4635 0.97416 0.53548 0.0
C361 C 0.47704 0.9648 0.53727 0.0
C362 C 0.48802 0.96763 0.55037 0.0
C363 C 0.47953 0.95174 0.52579 0.0
C364 C 0.46648 0.94152 0.52031 0.0
C365 C 0.49507 0.94899 0.52073 0.0
C366 C 0.49757 0.93606 0.51078 0.0
C367 C 0.48459 0.92558 0.50566 0.0
C368 C 0.44664 0.99621 0.54451 0.0
C369 C 0.43781 0.00037 0.55765 0.0
C370 C 0.44204 0.00203 0.52936 0.0
C371 C 0.42908 0.01197 0.52744 0.0
C372 C 0.42045 0.01637 0.54063 0.0
C373 C 0.42488 0.01033 0.55574 0.0
C374 C 0.46898 0.9286 0.51036 0.0
H375 H 0.49823 0.9843 0.61603 0.0
H376 H 0.47894 0.98107 0.59321 0.0
H377 H 0.51818 0.98386 0.56127 0.0
H378 H 0.53748 0.98783 0.5839 0.0
H379 H 0.47007 0.99794 0.56839 0.0
H380 H 0.49833 0.96028 0.55208 0.0
H381 H 0.45501 0.97209 0.52538 0.0
H382 H 0.45438 0.94322 0.52407 0.0
H383 H 0.50535 0.95676 0.52458 0.0
H384 H 0.50976 0.93402 0.5075 0.0
H385 H 0.44085 0.99586 0.56944 0.0
H386 H 0.44872 0.99924 0.51902 0.0
H387 H 0.45868 0.92087 0.50647 0.0
H388 H 0.41831 0.01329 0.5661 0.0
H389 H 0.42612 0.01659 0.51568 0.0
C390 C 0.20205 0.28661 0.66243 0.0
C391 C 0.21701 0.27966 0.66128 0.0
C392 C 0.19996 0.29807 0.67417 0.0
C393 C 0.21284 0.30292 0.68487 0.0
C394 C 0.2278 0.29598 0.68368 0.0
C395 C 0.22984 0.28444 0.67205 0.0
C396 C 0.21072 0.31504 0.69739 0.0
C397 C 0.19711 0.31404 0.70672 0.0
C398 C 0.19543 0.32499 0.71914 0.0
C399 C 0.20752 0.33713 0.72209 0.0
C400 C 0.22117 0.33842 0.71277 0.0
C401 C 0.22258 0.32733 0.70039 0.0
C402 C 0.23411 0.35111 0.71609 0.0
C403 C 0.23029 0.36658 0.72054 0.0
C404 C 0.25045 0.34783 0.71478 0.0
C405 C 0.26263 0.35972 0.71765 0.0
C406 C 0.25884 0.37519 0.72211 0.0
C407 C 0.18136 0.3233 0.7294 0.0
C408 C 0.16575 0.31967 0.72267 0.0
C409 C 0.18352 0.32478 0.74606 0.0
C410 C 0.17042 0.32237 0.75579 0.0
C411 C 0.15485 0.31845 0.74909 0.0
C412 C 0.15265 0.31729 0.7324 0.0
C413 C 0.2425 0.37845 0.72357 0.0
H414 H 0.19191 0.28308 0.65434 0.0
H415 H 0.18832 0.30327 0.67477 0.0
H416 H 0.2379 0.29936 0.69187 0.0
H417 H 0.24156 0.27941 0.67135 0.0
H418 H 0.18813 0.30432 0.7047 0.0
H419 H 0.23285 0.32836 0.69289 0.0
H420 H 0.20637 0.34548 0.73178 0.0
H421 H 0.21783 0.36959 0.72151 0.0
H422 H 0.25389 0.33601 0.71163 0.0
H423 H 0.27502 0.35678 0.71615 0.0
H424 H 0.16367 0.31868 0.70986 0.0
H425 H 0.19542 0.32732 0.75163 0.0
H426 H 0.23912 0.39016 0.72715 0.0
H427 H 0.14077 0.31452 0.72684 0.0
H428 H 0.1726 0.3231 0.7686 0.0
C429 C 0.85787 0.24308 0.77435 0.0
C430 C 0.86791 0.23046 0.7779 0.0
C431 C 0.84482 0.24097 0.76325 0.0
C432 C 0.84141 0.22612 0.75577 0.0
C433 C 0.85135 0.21347 0.75944 0.0
C434 C 0.86459 0.21566 0.77031 0.0
C435 C 0.8276 0.22386 0.74403 0.0
C436 C 0.82595 0.23433 0.73113 0.0
C437 C 0.81323 0.23192 0.71959 0.0
C438 C 0.80188 0.21913 0.72133 0.0
C439 C 0.80324 0.20865 0.73428 0.0
C440 C 0.81625 0.21104 0.74552 0.0
C441 C 0.79116 0.19514 0.73589 0.0
C442 C 0.77462 0.19723 0.73258 0.0
C443 C 0.79608 0.17999 0.74048 0.0
C444 C 0.78474 0.16721 0.7416 0.0
C445 C 0.76822 0.16926 0.73813 0.0
C446 C 0.81208 0.24237 0.70539 0.0
C447 C 0.81457 0.25899 0.70687 0.0
C448 C 0.80847 0.23569 0.6902 0.0
C449 C 0.80722 0.24539 0.6768 0.0
C450 C 0.80958 0.26202 0.67824 0.0
C451 C 0.81328 0.26874 0.69342 0.0
C452 C 0.76329 0.18444 0.73367 0.0
H453 H 0.86026 0.25461 0.78002 0.0
H454 H 0.83728 0.25088 0.76063 0.0
H455 H 0.84901 0.20194 0.75374 0.0
H456 H 0.87211 0.20574 0.77294 0.0
H457 H 0.83494 0.24399 0.72977 0.0
H458 H 0.81741 0.20313 0.75565 0.0
H459 H 0.79202 0.21724 0.71247 0.0
H460 H 0.7704 0.20879 0.72919 0.0
H461 H 0.80873 0.17794 0.74298 0.0
H462 H 0.78893 0.15572 0.74527 0.0
H463 H 0.81728 0.26449 0.71844 0.0
H464 H 0.8067 0.2229 0.68863 0.0
H465 H 0.75069 0.18642 0.73077 0.0
H466 H 0.81526 0.28151 0.6949 0.0
H467 H 0.80413 0.23985 0.66531 0.0
C468 C 0.53141 0.55492 0.46717 0.0
C469 C 0.52981 0.56992 0.47426 0.0
C470 C 0.53247 0.54125 0.47658 0.0
C471 C 0.53183 0.5423 0.49325 0.0
C472 C 0.5303 0.55728 0.50032 0.0
C473 C 0.52935 0.57091 0.49096 0.0
C474 C 0.53297 0.52795 0.50341 0.0
C475 C 0.54491 0.51704 0.5011 0.0
C476 C 0.54678 0.50407 0.51146 0.0
C477 C 0.53644 0.50211 0.52421 0.0
C478 C 0.52439 0.51292 0.52669 0.0
C479 C 0.52264 0.52565 0.51604 0.0
C480 C 0.51408 0.5114 0.54074 0.0
C481 C 0.50867 0.49636 0.54632 0.0
C482 C 0.50973 0.52512 0.54882 0.0
C483 C 0.50006 0.52387 0.56195 0.0
C484 C 0.4947 0.50889 0.56751 0.0
C485 C 0.55996 0.49299 0.50935 0.0
C486 C 0.56391 0.48812 0.49402 0.0
C487 C 0.56887 0.48735 0.52267 0.0
C488 C 0.58128 0.477 0.52072 0.0
C489 C 0.58519 0.47214 0.50541 0.0
C490 C 0.57643 0.47786 0.49207 0.0
C491 C 0.49917 0.49512 0.55965 0.0
H492 H 0.53165 0.5537 0.45434 0.0
H493 H 0.53356 0.52983 0.47082 0.0
H494 H 0.5301 0.55852 0.51316 0.0
H495 H 0.52853 0.58229 0.49688 0.0
H496 H 0.55321 0.51907 0.49164 0.0
H497 H 0.51316 0.53387 0.51754 0.0
H498 H 0.53796 0.49228 0.53237 0.0
H499 H 0.5116 0.48554 0.54031 0.0
H500 H 0.514 0.53688 0.54519 0.0
H501 H 0.49703 0.53467 0.56796 0.0
H502 H 0.55717 0.49208 0.48352 0.0
H503 H 0.56643 0.49112 0.53462 0.0
H504 H 0.49511 0.48342 0.56368 0.0
H505 H 0.57907 0.47417 0.48014 0.0
H506 H 0.588 0.47298 0.53121 0.0
C507 C 0.50175 0.48939 0.93778 0.0
C508 C 0.50707 0.49785 0.92447 0.0
C509 C 0.51249 0.48653 0.95069 0.0
C510 C 0.52889 0.49175 0.95041 0.0
C511 C 0.53411 0.50028 0.93702 0.0
C512 C 0.52329 0.50342 0.92428 0.0
C513 C 0.54058 0.48801 0.96382 0.0
C514 C 0.53898 0.47351 0.97206 0.0
C515 C 0.55008 0.46974 0.98448 0.0
C516 C 0.56324 0.48048 0.98835 0.0
C517 C 0.56518 0.49501 0.98024 0.0
C518 C 0.55361 0.49877 0.96821 0.0
C519 C 0.57937 0.50618 0.98416 0.0
C520 C 0.58552 0.50827 0.0 0.0
C521 C 0.58698 0.51478 0.97201 0.0
C522 C 0.60023 0.52533 0.97561 0.0
C523 C 0.60632 0.52738 0.99142 0.0
C524 C 0.5479 0.45458 0.9934 0.0
C525 C 0.53248 0.44923 0.99798 0.0
C526 C 0.56118 0.4454 0.99748 0.0
C527 C 0.55907 0.43119 0.00594 0.0
C528 C 0.54364 0.42584 0.0105 0.0
C529 C 0.53037 0.43504 0.00643 0.0
C530 C 0.59892 0.51868 0.00357 0.0
H531 H 0.48924 0.48509 0.93823 0.0
H532 H 0.50788 0.48024 0.96088 0.0
H533 H 0.54666 0.50423 0.93615 0.0
H534 H 0.5277 0.50981 0.91404 0.0
H535 H 0.52931 0.46488 0.96856 0.0
H536 H 0.55464 0.51024 0.9624 0.0
H537 H 0.572 0.47747 0.99771 0.0
H538 H 0.57985 0.50207 0.00971 0.0
H539 H 0.58284 0.51324 0.95964 0.0
H540 H 0.60583 0.53176 0.96599 0.0
H541 H 0.52203 0.45611 0.99517 0.0
H542 H 0.5732 0.4491 0.994 0.0
H543 H 0.60328 0.52019 0.01589 0.0
H544 H 0.51829 0.43117 0.00959 0.0
H545 H 0.56957 0.42447 0.00901 0.0
C546 C 0.65682 0.19899 0.22884 0.0
C547 C 0.65058 0.21403 0.22596 0.0
C548 C 0.66996 0.19732 0.23967 0.0
C549 C 0.67724 0.21066 0.24784 0.0
C550 C 0.6711 0.22571 0.24485 0.0
C551 C 0.65791 0.22737 0.2341 0.0
C552 C 0.69105 0.20889 0.2596 0.0
C553 C 0.70323 0.19832 0.25666 0.0
C554 C 0.7163 0.1967 0.26773 0.0
C555 C 0.71704 0.20571 0.28189 0.0
C556 C 0.70501 0.21628 0.28506 0.0
C557 C 0.69207 0.2178 0.27387 0.0
C558 C 0.70609 0.2257 0.30009 0.0
C559 C 0.71057 0.21848 0.3146 0.0
C560 C 0.70321 0.24205 0.3 0.0
C561 C 0.70525 0.25107 0.31406 0.0
C562 C 0.71021 0.24391 0.32848 0.0
C563 C 0.72925 0.18565 0.26468 0.0
C564 C 0.72545 0.17014 0.25884 0.0
C565 C 0.74553 0.19037 0.2682 0.0
C566 C 0.75771 0.17975 0.2663 0.0
C567 C 0.75392 0.16412 0.2608 0.0
C568 C 0.73766 0.15947 0.25696 0.0
C569 C 0.71259 0.22747 0.32861 0.0
H570 H 0.65163 0.18849 0.22264 0.0
H571 H 0.67426 0.18552 0.2418 0.0
H572 H 0.67653 0.23628 0.25076 0.0
H573 H 0.65334 0.23911 0.23233 0.0
H574 H 0.70279 0.19166 0.24556 0.0
H575 H 0.68257 0.22565 0.2765 0.0
H576 H 0.72706 0.2045 0.2905 0.0
H577 H 0.71257 0.20584 0.31511 0.0
H578 H 0.69985 0.24796 0.28897 0.0
H579 H 0.70343 0.26374 0.31354 0.0
H580 H 0.71301 0.16612 0.2561 0.0
H581 H 0.74888 0.2023 0.27253 0.0
H582 H 0.71606 0.22152 0.33959 0.0
H583 H 0.73435 0.14757 0.25253 0.0
H584 H 0.77007 0.18369 0.26952 0.0
C585 C 0.46957 0.07148 0.97579 0.0
C586 C 0.46991 0.07007 0.99247 0.0
C587 C 0.46721 0.05796 0.96606 0.0
C588 C 0.46493 0.04279 0.97283 0.0
C589 C 0.46528 0.04138 0.98952 0.0
C590 C 0.46785 0.05488 0.99925 0.0
C591 C 0.46205 0.0285 0.96249 0.0
C592 C 0.47189 0.02605 0.94968 0.0
C593 C 0.46919 0.01259 0.93974 0.0
C594 C 0.45648 0.00149 0.94283 0.0
C595 C 0.44634 0.00385 0.95552 0.0
C596 C 0.44929 0.01742 0.96529 0.0
C597 C 0.43245 0.99242 0.95841 0.0
C598 C 0.42328 0.98516 0.94557 0.0
C599 C 0.42801 0.98897 0.97406 0.0
C600 C 0.41461 0.97877 0.97678 0.0
C601 C 0.4055 0.97157 0.96394 0.0
C602 C 0.47962 0.01033 0.92608 0.0
C603 C 0.48412 0.02334 0.91649 0.0
C604 C 0.48533 0.99528 0.92264 0.0
C605 C 0.49555 0.99337 0.91005 0.0
C606 C 0.50026 0.00647 0.90065 0.0
C607 C 0.49431 0.02144 0.90394 0.0
C608 C 0.41003 0.97475 0.94832 0.0
H609 H 0.47124 0.08304 0.97026 0.0
H610 H 0.46689 0.05939 0.95322 0.0
H611 H 0.46366 0.0298 0.99503 0.0
H612 H 0.46795 0.05348 0.01208 0.0
H613 H 0.48188 0.0345 0.94765 0.0
H614 H 0.44135 0.01969 0.97483 0.0
H615 H 0.45442 0.99107 0.93523 0.0
H616 H 0.42612 0.98773 0.93336 0.0
H617 H 0.43494 0.99406 0.98426 0.0
H618 H 0.41149 0.97632 0.98895 0.0
H619 H 0.47967 0.03502 0.91862 0.0
H620 H 0.48222 0.98506 0.9299 0.0
H621 H 0.40311 0.96942 0.93821 0.0
H622 H 0.49744 0.0317 0.89673 0.0
H623 H 0.50005 0.98172 0.90792 0.0
Mg624 Mg 0.23894 0.84781 0.00968 0.0
O625 O 0.26204 0.86214 0.00277 0.0
O626 O 0.28174 0.84483 0.00412 0.0
Mg627 Mg 0.27206 0.82071 0.01292 0.0
C628 C 0.27674 0.8587 0.00118 0.0
C629 C 0.20793 0.86354 0.00411 0.0
O630 O 0.2049 0.85039 0.01211 0.0
O631 O 0.23769 0.83491 0.98566 0.0
O632 O 0.25716 0.81765 0.98921 0.0
O633 O 0.24383 0.8544 0.03527 0.0
O634 O 0.25275 0.83303 0.02393 0.0
C635 C 0.24566 0.82341 0.98073 0.0
C636 C 0.25238 0.84195 0.0364 0.0
O637 O 0.22235 0.86675 0.0002 0.0
Mg638 Mg 0.15381 0.50839 0.27055 0.0
O639 O 0.13933 0.50605 0.24649 0.0
O640 O 0.15684 0.50902 0.22716 0.0
Mg641 Mg 0.18211 0.51421 0.23862 0.0
C642 C 0.14249 0.50645 0.23175 0.0
C643 C 0.11869 0.50512 0.28148 0.0
O644 O 0.11758 0.51634 0.27066 0.0
O645 O 0.16357 0.48362 0.26719 0.0
O646 O 0.18152 0.48882 0.24861 0.0
O647 O 0.15127 0.53476 0.27078 0.0
O648 O 0.17139 0.523 0.26016 0.0
C649 C 0.1746 0.47923 0.25825 0.0
C650 C 0.16436 0.53595 0.26299 0.0
O651 O 0.1321 0.49861 0.28384 0.0
Mg652 Mg 0.77444 0.65878 0.02306 0.0
O653 O 0.75039 0.64363 0.01991 0.0
O654 O 0.73098 0.66089 0.0157 0.0
Mg655 Mg 0.74199 0.68623 0.016 0.0
C656 C 0.73554 0.64667 0.01723 0.0
C657 C 0.80099 0.63669 0.03151 0.0
O658 O 0.80274 0.64844 0.04193 0.0
O659 O 0.77438 0.66323 0.99626 0.0
O660 O 0.75445 0.68012 0.993 0.0
O661 O 0.7711 0.66107 0.04914 0.0
O662 O 0.76218 0.67805 0.03117 0.0
C663 C 0.76551 0.67194 0.98745 0.0
C664 C 0.76315 0.6736 0.04585 0.0
O665 O 0.78941 0.63687 0.02103 0.0
Mg666 Mg 0.90565 0.03199 0.24197 0.0
O667 O 0.88884 0.00937 0.23915 0.0
O668 O 0.90419 0.98913 0.23367 0.0
Mg669 Mg 0.93051 0.99837 0.23397 0.0
C670 C 0.89043 0.99467 0.23594 0.0
C671 C 0.8858 0.0605 0.24819 0.0
O672 O 0.89824 0.06639 0.24062 0.0
O673 O 0.91429 0.0241 0.26677 0.0
O674 O 0.92951 0.00384 0.26086 0.0
O675 O 0.90338 0.03621 0.21586 0.0
O676 O 0.92234 0.02207 0.22743 0.0
C677 C 0.92351 0.01297 0.27098 0.0
C678 C 0.9155 0.02728 0.21449 0.0
O679 O 0.88514 0.04574 0.2515 0.0
Mg680 Mg 0.27374 0.1561 0.518 0.0
O681 O 0.24939 0.14136 0.51535 0.0
O682 O 0.2304 0.1589 0.51032 0.0
Mg683 Mg 0.24189 0.184 0.50968 0.0
C684 C 0.23464 0.14463 0.51246 0.0
C685 C 0.29973 0.13361 0.52746 0.0
O686 O 0.30175 0.14564 0.53752 0.0
O687 O 0.27387 0.15951 0.49101 0.0
O688 O 0.25436 0.17675 0.48709 0.0
O689 O 0.27039 0.15965 0.54398 0.0
O690 O 0.26187 0.17599 0.52523 0.0
C691 C 0.26523 0.16813 0.48188 0.0
C692 C 0.26272 0.1722 0.54009 0.0
O693 O 0.28822 0.13376 0.51691 0.0
Mg694 Mg 0.40658 0.52953 0.7422 0.0
O695 O 0.39031 0.50654 0.74009 0.0
O696 O 0.40631 0.48631 0.73664 0.0
Mg697 Mg 0.4324 0.49623 0.73607 0.0
C698 C 0.39235 0.4917 0.73816 0.0
C699 C 0.38595 0.55779 0.74741 0.0
O700 O 0.39822 0.56376 0.73963 0.0
O701 O 0.4153 0.52289 0.76738 0.0
O702 O 0.43146 0.50306 0.76263 0.0
O703 O 0.40435 0.53266 0.71597 0.0
O704 O 0.42359 0.51938 0.72824 0.0
C705 C 0.42502 0.51242 0.77223 0.0
C706 C 0.41672 0.52396 0.71505 0.0
O707 O 0.38568 0.54313 0.75113 0.0
Mg708 Mg 0.744 0.34658 0.50845 0.0
O709 O 0.76698 0.36152 0.50223 0.0
O710 O 0.78662 0.34421 0.50173 0.0
Mg711 Mg 0.77713 0.31944 0.50879 0.0
C712 C 0.78161 0.35826 0.50003 0.0
C713 C 0.71426 0.3648 0.50833 0.0
O714 O 0.71249 0.35296 0.5184 0.0
O715 O 0.74221 0.33556 0.48344 0.0
O716 O 0.76171 0.31818 0.48535 0.0
O717 O 0.74931 0.35099 0.53449 0.0
O718 O 0.75802 0.33071 0.52117 0.0
C719 C 0.75008 0.32446 0.47753 0.0
C720 C 0.7578 0.33848 0.5344 0.0
O721 O 0.72732 0.36623 0.50101 0.0
Mg722 Mg 0.65209 0.00367 0.76932 0.0
O723 O 0.63786 0.002 0.74501 0.0
O724 O 0.65585 0.00318 0.72601 0.0
Mg725 Mg 0.68118 0.00595 0.7378 0.0
C726 C 0.6413 0.00193 0.73034 0.0
C727 C 0.61658 0.00324 0.77972 0.0
O728 O 0.61627 0.01436 0.76875 0.0
O729 O 0.65962 0.97807 0.76675 0.0
O730 O 0.67766 0.98061 0.74779 0.0
O731 O 0.65189 0.03019 0.76888 0.0
O732 O 0.67106 0.01638 0.75898 0.0
C733 C 0.6698 0.97218 0.75774 0.0
C734 C 0.66514 0.03002 0.76135 0.0
O735 O 0.62951 0.99597 0.78236 0.0
Mg736 Mg 0.03868 0.26241 0.90365 0.0
O737 O 0.01399 0.25599 0.891 0.0
O738 O 0.99716 0.24717 0.90943 0.0
Mg739 Mg 0.01112 0.24734 0.93356 0.0
C740 C 8e-05 0.25067 0.89503 0.0
C741 C 0.04596 0.26844 0.8682 0.0
O742 O 0.03906 0.25402 0.86729 0.0
O743 O 0.02867 0.28487 0.9139 0.0
O744 O 0.01289 0.27472 0.93258 0.0
O745 O 0.04617 0.23763 0.9001 0.0
O746 O 0.03376 0.24558 0.92119 0.0
C747 C 0.01912 0.28662 0.92519 0.0
C748 C 0.0395 0.23411 0.91335 0.0
O749 O 0.04716 0.27557 0.88162 0.0
Mg750 Mg 0.53778 0.7567 0.40403 0.0
O751 O 0.51317 0.75145 0.39081 0.0
O752 O 0.49627 0.74012 0.4079 0.0
Mg753 Mg 0.50975 0.73891 0.43219 0.0
C754 C 0.49934 0.74522 0.394 0.0
C755 C 0.54505 0.76537 0.36924 0.0
O756 O 0.53807 0.75105 0.36747 0.0
O757 O 0.52771 0.77821 0.41606 0.0
O758 O 0.51146 0.76633 0.4334 0.0
O759 O 0.54517 0.73224 0.3984 0.0
O760 O 0.53263 0.73835 0.42004 0.0
C761 C 0.51786 0.77889 0.42726 0.0
C762 C 0.53831 0.72757 0.41122 0.0
O763 O 0.54641 0.77159 0.3831 0.0
Mg764 Mg 0.98815 0.74461 0.59719 0.0
O765 O 0.01147 0.74016 0.61217 0.0
O766 O 0.03013 0.73444 0.59493 0.0
Mg767 Mg 0.01872 0.73395 0.56961 0.0
C768 C 0.02585 0.73673 0.60913 0.0
C769 C 0.96144 0.75639 0.61634 0.0
O770 O 0.95458 0.75147 0.60264 0.0
O771 O 0.999 0.7686 0.58912 0.0
O772 O 0.01635 0.76107 0.57134 0.0
O773 O 0.9803 0.71897 0.59866 0.0
O774 O 0.99497 0.72915 0.57956 0.0
C775 C 0.00937 0.77193 0.5787 0.0
C776 C 0.98828 0.71676 0.58603 0.0
O777 O 0.97668 0.75575 0.61839 0.0
Mg778 Mg 0.48733 0.2443 0.09294 0.0
O779 O 0.51 0.23818 0.10818 0.0
O780 O 0.52817 0.23049 0.09127 0.0
Mg781 Mg 0.51755 0.23191 0.06574 0.0
C782 C 0.52392 0.23321 0.10541 0.0
C783 C 0.46101 0.25662 0.11206 0.0
O784 O 0.45414 0.25188 0.0983 0.0
O785 O 0.49989 0.26767 0.08556 0.0
O786 O 0.51719 0.25925 0.06815 0.0
O787 O 0.47774 0.21912 0.09376 0.0
O788 O 0.49334 0.22865 0.07508 0.0
C789 C 0.51076 0.27047 0.07553 0.0
C790 C 0.48571 0.21659 0.08119 0.0
O791 O 0.47621 0.25572 0.11417 0.0
C792 C 0.22696 0.74781 0.85686 0.0
C793 C 0.21411 0.75115 0.84606 0.0
C794 C 0.22944 0.7563 0.87113 0.0
C795 C 0.22076 0.79356 0.89145 0.0
H796 H 0.23146 0.76937 0.92944 0.0
C797 C 0.22832 0.82136 0.95524 0.0
C798 C 0.24143 0.81622 0.96482 0.0
C799 C 0.22413 0.81401 0.94051 0.0
C800 C 0.22862 0.77632 0.91893 0.0
H801 H 0.19395 0.76626 0.84168 0.0
H802 H 0.19835 0.78121 0.86672 0.0
H803 H 0.22572 0.75552 0.90416 0.0
H804 H 0.26065 0.79958 0.96615 0.0
H805 H 0.25344 0.78698 0.94059 0.0
H806 H 0.22383 0.81441 0.90632 0.0
C807 C 0.20652 0.77202 0.86404 0.0
C808 C 0.22533 0.76838 0.90444 0.0
C809 C 0.20401 0.76347 0.84971 0.0
C810 C 0.2504 0.80379 0.9592 0.0
C811 C 0.24621 0.79647 0.94455 0.0
C812 C 0.22408 0.80154 0.906 0.0
C813 C 0.21916 0.76839 0.87498 0.0
C814 C 0.22162 0.77691 0.89048 0.0
C815 C 0.23293 0.80136 0.93512 0.0
C816 C 0.22831 0.793 0.91984 0.0
H817 H 0.23519 0.73866 0.85424 0.0
H818 H 0.2395 0.75346 0.87914 0.0
H819 H 0.21802 0.80046 0.88087 0.0
H820 H 0.22116 0.83091 0.9592 0.0
H821 H 0.21379 0.81799 0.93353 0.0
C822 C 0.01546 0.49133 0.38217 0.0
C823 C 0.01737 0.50448 0.39262 0.0
C824 C 0.02563 0.48996 0.36945 0.0
C825 C 0.05225 0.51442 0.34425 0.0
H826 H 0.07018 0.47428 0.33339 0.0
C827 C 0.0906 0.50933 0.28964 0.0
C828 C 0.10524 0.5018 0.29217 0.0
C829 C 0.07867 0.50798 0.30081 0.0
C830 C 0.06527 0.48557 0.33629 0.0
H831 H 0.03189 0.52615 0.39827 0.0
H832 H 0.0495 0.5238 0.37611 0.0
H833 H 0.05215 0.47547 0.35554 0.0
H834 H 0.11846 0.48621 0.30803 0.0
H835 H 0.09768 0.48397 0.32762 0.0
H836 H 0.06562 0.52466 0.32538 0.0
C837 C 0.03996 0.5147 0.37754 0.0
C838 C 0.05484 0.48622 0.34889 0.0
C839 C 0.02985 0.51605 0.39024 0.0
C840 C 0.10733 0.49219 0.30573 0.0
C841 C 0.09538 0.49085 0.31693 0.0
C842 C 0.06259 0.51376 0.33167 0.0
C843 C 0.03788 0.50173 0.36691 0.0
C844 C 0.04837 0.50071 0.35312 0.0
C845 C 0.0811 0.49908 0.3148 0.0
C846 C 0.06933 0.49937 0.3276 0.0
H847 H 0.00587 0.48228 0.38359 0.0
H848 H 0.02364 0.47988 0.36139 0.0
H849 H 0.0473 0.52572 0.34706 0.0
H850 H 0.08852 0.5167 0.27924 0.0
H851 H 0.06766 0.5142 0.29865 0.0
C852 C 0.77817 0.7321 0.85887 0.0
C853 C 0.78741 0.72567 0.84711 0.0
C854 C 0.77591 0.72404 0.87314 0.0
C855 C 0.7918 0.69158 0.89863 0.0
H856 H 0.75177 0.6973 0.91935 0.0
C857 C 0.78395 0.6763 0.96505 0.0
C858 C 0.76832 0.67326 0.97032 0.0
C859 C 0.78626 0.68006 0.94906 0.0
C860 C 0.76291 0.69519 0.91369 0.0
H861 H 0.80156 0.70583 0.84092 0.0
H862 H 0.79704 0.69125 0.86567 0.0
H863 H 0.75537 0.70835 0.89325 0.0
H864 H 0.74297 0.67043 0.96301 0.0
H865 H 0.74697 0.67577 0.93497 0.0
H866 H 0.79899 0.67771 0.91883 0.0
C867 C 0.79187 0.70273 0.86408 0.0
C868 C 0.76514 0.7019 0.89874 0.0
C869 C 0.79439 0.711 0.84987 0.0
C870 C 0.75513 0.67295 0.95922 0.0
C871 C 0.75746 0.6762 0.94317 0.0
C872 C 0.78943 0.68453 0.91349 0.0
C873 C 0.78254 0.70915 0.87591 0.0
C874 C 0.77976 0.70058 0.89116 0.0
C875 C 0.77298 0.68046 0.93795 0.0
C876 C 0.77507 0.68651 0.9214 0.0
H877 H 0.77291 0.74354 0.85712 0.0
H878 H 0.7691 0.72967 0.88208 0.0
H879 H 0.80327 0.69032 0.89324 0.0
H880 H 0.79429 0.67669 0.97347 0.0
H881 H 0.79838 0.68342 0.94567 0.0
C882 C 0.99099 0.01393 0.4031 0.0
C883 C 0.99213 0.99909 0.41063 0.0
C884 C 0.98145 0.01532 0.38901 0.0
C885 C 0.96792 0.99298 0.35382 0.0
H886 H 0.93541 0.02419 0.34735 0.0
C887 C 0.93197 0.99589 0.29386 0.0
C888 C 0.92815 0.01095 0.28805 0.0
C889 C 0.93783 0.9941 0.3096 0.0
C890 C 0.94459 0.01555 0.34884 0.0
H891 H 0.98421 0.97413 0.40948 0.0
H892 H 0.96786 0.97649 0.38458 0.0
H893 H 0.9496 0.02212 0.3734 0.0
H894 H 0.92714 0.03591 0.29419 0.0
H895 H 0.93812 0.03301 0.32142 0.0
H896 H 0.96378 0.98687 0.32926 0.0
C897 C 0.97416 0.98705 0.38971 0.0
C898 C 0.95262 0.01432 0.36381 0.0
C899 C 0.98343 0.98572 0.40395 0.0
C900 C 0.92989 0.02414 0.2984 0.0
C901 C 0.93613 0.02242 0.31407 0.0
C902 C 0.96016 0.99441 0.3388 0.0
C903 C 0.97318 0.00184 0.38206 0.0
C904 C 0.96432 0.003 0.36641 0.0
C905 C 0.94044 0.0074 0.31982 0.0
C906 C 0.94835 0.00569 0.33606 0.0
H907 H 0.99756 0.02441 0.40806 0.0
H908 H 0.98095 0.02683 0.38327 0.0
H909 H 0.97707 0.98431 0.35549 0.0
H910 H 0.93054 0.98547 0.28618 0.0
H911 H 0.94048 0.98225 0.31365 0.0
C912 C 0.22759 0.25377 0.65251 0.0
C913 C 0.21935 0.26759 0.64877 0.0
C914 C 0.23042 0.24273 0.64061 0.0
C915 C 0.23514 0.23994 0.59761 0.0
H916 H 0.23002 0.19436 0.60431 0.0
C917 C 0.24693 0.19543 0.54783 0.0
C918 C 0.2553 0.18189 0.55227 0.0
C919 C 0.24091 0.2052 0.5594 0.0
C920 C 0.23166 0.20705 0.6023 0.0
H921 H 0.20749 0.2806 0.62968 0.0
H922 H 0.21245 0.26129 0.60887 0.0
H923 H 0.22256 0.21273 0.62499 0.0
H924 H 0.2637 0.16785 0.57236 0.0
H925 H 0.25356 0.1851 0.59257 0.0
H926 H 0.24465 0.23439 0.57517 0.0
C927 C 0.21674 0.25903 0.62101 0.0
C928 C 0.22735 0.21756 0.61414 0.0
C929 C 0.21378 0.27001 0.63293 0.0
C930 C 0.25725 0.17816 0.56853 0.0
C931 C 0.25134 0.18802 0.58013 0.0
C932 C 0.23956 0.22946 0.58584 0.0
C933 C 0.2252 0.24534 0.6247 0.0
C934 C 0.22911 0.23412 0.61193 0.0
C935 C 0.24327 0.20178 0.57571 0.0
C936 C 0.23794 0.21287 0.58805 0.0
H937 H 0.23188 0.25151 0.66464 0.0
H938 H 0.23708 0.23235 0.6438 0.0
H939 H 0.23688 0.25264 0.59567 0.0
H940 H 0.24525 0.19869 0.53543 0.0
H941 H 0.23451 0.21554 0.55554 0.0
C942 C 0.4713 0.51728 0.58263 0.0
C943 C 0.48467 0.5078 0.58163 0.0
C944 C 0.46255 0.5173 0.59642 0.0
C945 C 0.45605 0.49582 0.6346 0.0
H946 H 0.44237 0.53704 0.64797 0.0
C947 C 0.43623 0.51026 0.69833 0.0
C948 C 0.42276 0.51965 0.69938 0.0
C949 C 0.44262 0.50731 0.68354 0.0
C950 C 0.44594 0.52541 0.64431 0.0
H951 H 0.49918 0.49062 0.59406 0.0
H952 H 0.48419 0.49094 0.6184 0.0
H953 H 0.4557 0.5347 0.623 0.0
H954 H 0.40515 0.53291 0.68566 0.0
H955 H 0.41639 0.52786 0.65994 0.0
H956 H 0.44665 0.48674 0.65635 0.0
C957 C 0.48021 0.49812 0.60842 0.0
C958 C 0.45354 0.52403 0.62994 0.0
C959 C 0.48884 0.49796 0.59451 0.0
C960 C 0.41557 0.52567 0.68529 0.0
C961 C 0.42203 0.52284 0.67055 0.0
C962 C 0.44856 0.49725 0.6491 0.0
C963 C 0.46711 0.508 0.60965 0.0
C964 C 0.45869 0.50923 0.62486 0.0
C965 C 0.43576 0.51384 0.66955 0.0
C966 C 0.44341 0.51206 0.65407 0.0
H967 H 0.46769 0.5248 0.57275 0.0
H968 H 0.45229 0.52474 0.59675 0.0
H969 H 0.45966 0.4842 0.63099 0.0
H970 H 0.44209 0.5055 0.70894 0.0
H971 H 0.45328 0.50043 0.68313 0.0
C972 C 0.79926 0.28626 0.66444 0.0
C973 C 0.80776 0.27222 0.66392 0.0
C974 C 0.79622 0.29498 0.65054 0.0
C975 C 0.79114 0.28881 0.60746 0.0
H976 H 0.79313 0.33495 0.60511 0.0
C977 C 0.77635 0.31996 0.54845 0.0
C978 C 0.76658 0.33309 0.549 0.0
C979 C 0.78339 0.31387 0.56242 0.0
C980 C 0.79239 0.32206 0.60562 0.0
H981 H 0.82065 0.25693 0.64863 0.0
H982 H 0.81525 0.27207 0.6244 0.0
H983 H 0.80184 0.32192 0.62987 0.0
H984 H 0.75693 0.35046 0.56465 0.0
H985 H 0.76886 0.33955 0.58913 0.0
H986 H 0.78129 0.28879 0.58351 0.0
C987 C 0.8107 0.27617 0.63549 0.0
C988 C 0.79741 0.31462 0.61978 0.0
C989 C 0.81376 0.26749 0.64936 0.0
C990 C 0.76443 0.34034 0.56381 0.0
C991 C 0.77135 0.33413 0.57785 0.0
C992 C 0.78605 0.29622 0.59339 0.0
C993 C 0.8016 0.28981 0.63587 0.0
C994 C 0.79683 0.29791 0.62082 0.0
C995 C 0.78064 0.32062 0.57733 0.0
C996 C 0.7866 0.31293 0.59227 0.0
H997 H 0.79437 0.29015 0.67545 0.0
H998 H 0.78906 0.30538 0.65117 0.0
H999 H 0.79022 0.27592 0.60799 0.0
H1000 H 0.77831 0.31409 0.53728 0.0
H1001 H 0.79077 0.30367 0.56153 0.0
C1002 C 0.54655 0.98125 0.6153 0.0
C1003 C 0.53139 0.98801 0.61577 0.0
C1004 C 0.5579 0.98317 0.62809 0.0
C1005 C 0.56261 0.99032 0.67089 0.0
H1006 H 0.60617 0.0053 0.66183 0.0
C1007 C 0.61216 0.00375 0.72105 0.0
C1008 C 0.62809 0.00031 0.71782 0.0
C1009 C 0.59992 0.00265 0.70894 0.0
C1010 C 0.59415 0.00086 0.66459 0.0
H1011 H 0.51637 0.00203 0.63033 0.0
H1012 H 0.53607 0.00486 0.65288 0.0
H1013 H 0.58566 0.00228 0.64016 0.0
H1014 H 0.64353 0.99247 0.69951 0.0
H1015 H 0.62223 0.98999 0.67869 0.0
H1016 H 0.57116 0.98837 0.69524 0.0
C1017 C 0.53908 0.99816 0.64249 0.0
C1018 C 0.58238 0.99923 0.65216 0.0
C1019 C 0.52779 0.99646 0.62958 0.0
C1020 C 0.63144 0.99543 0.70235 0.0
C1021 C 0.6192 0.99411 0.69035 0.0
C1022 C 0.57446 0.99172 0.68334 0.0
C1023 C 0.55429 0.99166 0.64178 0.0
C1024 C 0.56654 0.99386 0.65516 0.0
C1025 C 0.6033 0.99789 0.6934 0.0
C1026 C 0.59044 0.9969 0.68033 0.0
H1027 H 0.54966 0.97432 0.6051 0.0
H1028 H 0.56946 0.97784 0.62735 0.0
H1029 H 0.55047 0.98606 0.67349 0.0
H1030 H 0.60921 0.00759 0.73284 0.0
H1031 H 0.58788 0.00584 0.71172 0.0
C1032 C 0.89726 0.22848 0.78564 0.0
C1033 C 0.88177 0.2327 0.78959 0.0
C1034 C 0.91033 0.23054 0.79673 0.0
C1035 C 0.92046 0.23188 0.83921 0.0
H1036 H 0.95973 0.25555 0.82836 0.0
C1037 C 0.97065 0.24821 0.88698 0.0
C1038 C 0.98681 0.24861 0.88266 0.0
C1039 C 0.95804 0.24632 0.87539 0.0
C1040 C 0.94899 0.24866 0.83154 0.0
H1041 H 0.86769 0.24221 0.80815 0.0
H1042 H 0.89053 0.24547 0.82771 0.0
H1043 H 0.93741 0.25188 0.80844 0.0
H1044 H 0.00246 0.24716 0.86281 0.0
H1045 H 0.98049 0.24318 0.84262 0.0
H1046 H 0.93202 0.22812 0.86206 0.0
C1047 C 0.89255 0.24072 0.816 0.0
C1048 C 0.93619 0.24666 0.82013 0.0
C1049 C 0.87954 0.23894 0.80482 0.0
C1050 C 0.99011 0.247 0.86649 0.0
C1051 C 0.97749 0.24482 0.85491 0.0
C1052 C 0.93334 0.23363 0.85052 0.0
C1053 C 0.90805 0.23657 0.81203 0.0
C1054 C 0.92177 0.23837 0.82393 0.0
C1055 C 0.96127 0.24447 0.8592 0.0
C1056 C 0.94774 0.24219 0.84691 0.0
H1057 H 0.89926 0.22371 0.77394 0.0
H1058 H 0.92217 0.22719 0.79344 0.0
H1059 H 0.90953 0.22526 0.84234 0.0
H1060 H 0.9677 0.24961 0.89932 0.0
H1061 H 0.94576 0.24651 0.87917 0.0
C1062 C 0.47954 0.89645 0.49968 0.0
C1063 C 0.48744 0.91112 0.49615 0.0
C1064 C 0.48278 0.88264 0.49137 0.0
C1065 C 0.49974 0.86784 0.45455 0.0
H1066 H 0.5046 0.82944 0.47945 0.0
C1067 C 0.52181 0.80881 0.4287 0.0
C1068 C 0.51395 0.7946 0.43376 0.0
C1069 C 0.51861 0.82345 0.43558 0.0
C1070 C 0.5031 0.84001 0.47228 0.0
H1071 H 0.50462 0.92284 0.48079 0.0
H1072 H 0.51045 0.89862 0.46642 0.0
H1073 H 0.49889 0.85414 0.49273 0.0
H1074 H 0.49612 0.78481 0.44966 0.0
H1075 H 0.49047 0.81022 0.46143 0.0
H1076 H 0.50398 0.85359 0.43408 0.0
C1077 C 0.50168 0.89785 0.47557 0.0
C1078 C 0.49983 0.85418 0.4799 0.0
C1079 C 0.49845 0.9117 0.4839 0.0
C1080 C 0.50254 0.79545 0.44555 0.0
C1081 C 0.49935 0.81004 0.45239 0.0
C1082 C 0.50302 0.85361 0.4469 0.0
C1083 C 0.49401 0.88314 0.47935 0.0
C1084 C 0.49794 0.86823 0.47113 0.0
C1085 C 0.50749 0.82418 0.44767 0.0
C1086 C 0.50458 0.8395 0.45568 0.0
H1087 H 0.47113 0.89553 0.50914 0.0
H1088 H 0.47649 0.87154 0.49443 0.0
H1089 H 0.49824 0.87845 0.44744 0.0
H1090 H 0.53066 0.8086 0.41963 0.0
H1091 H 0.52514 0.83414 0.43174 0.0
C1092 C 0.13005 0.30205 0.75603 0.0
C1093 C 0.14115 0.31494 0.75952 0.0
C1094 C 0.11779 0.29807 0.76637 0.0
C1095 C 0.09561 0.3132 0.80017 0.0
H1096 H 0.08911 0.26832 0.80988 0.0
C1097 C 0.0632 0.28986 0.85563 0.0
C1098 C 0.05379 0.27549 0.8542 0.0
C1099 C 0.072 0.29558 0.84286 0.0
C1100 C 0.09054 0.28088 0.80712 0.0
H1101 H 0.14765 0.33414 0.77632 0.0
H1102 H 0.12646 0.32699 0.79454 0.0
H1103 H 0.10791 0.27662 0.78982 0.0
H1104 H 0.04554 0.25632 0.83795 0.0
H1105 H 0.06072 0.2664 0.81565 0.0
H1106 H 0.07841 0.31744 0.81775 0.0
C1107 C 0.12716 0.32004 0.78373 0.0
C1108 C 0.10135 0.28565 0.7956 0.0
C1109 C 0.13942 0.32402 0.77338 0.0
C1110 C 0.05279 0.26735 0.8395 0.0
C1111 C 0.06157 0.27308 0.82674 0.0
C1112 C 0.08478 0.30843 0.81172 0.0
C1113 C 0.11634 0.30687 0.78046 0.0
C1114 C 0.10412 0.30187 0.79208 0.0
C1115 C 0.07155 0.28707 0.82838 0.0
C1116 C 0.08222 0.29221 0.81542 0.0
H1117 H 0.13111 0.29472 0.74554 0.0
H1118 H 0.10953 0.28798 0.76341 0.0
H1119 H 0.09732 0.32578 0.79758 0.0
H1120 H 0.06422 0.29644 0.86678 0.0
H1121 H 0.07967 0.30633 0.84457 0.0
C1122 C 0.53852 0.58699 0.45128 0.0
C1123 C 0.52883 0.58459 0.46445 0.0
C1124 C 0.53838 0.60132 0.44284 0.0
C1125 C 0.5155 0.63823 0.43736 0.0
H1126 H 0.55701 0.65697 0.42587 0.0
C1127 C 0.52794 0.70548 0.42856 0.0
C1128 C 0.53633 0.71044 0.41515 0.0
C1129 C 0.52613 0.68935 0.43233 0.0
C1130 C 0.54531 0.65178 0.42881 0.0
H1131 H 0.51081 0.59509 0.47852 0.0
H1132 H 0.51106 0.62017 0.46432 0.0
H1133 H 0.55529 0.62994 0.43638 0.0
H1134 H 0.5496 0.70229 0.39527 0.0
H1135 H 0.54674 0.67403 0.40215 0.0
H1136 H 0.50572 0.66045 0.43047 0.0
C1137 C 0.5186 0.61097 0.4603 0.0
C1138 C 0.54428 0.63627 0.43478 0.0
C1139 C 0.51865 0.59663 0.46864 0.0
C1140 C 0.54301 0.69887 0.40566 0.0
C1141 C 0.54142 0.68271 0.40958 0.0
C1142 C 0.51657 0.6538 0.43158 0.0
C1143 C 0.52861 0.6136 0.44741 0.0
C1144 C 0.52941 0.6294 0.43943 0.0
C1145 C 0.53291 0.67781 0.42293 0.0
C1146 C 0.53153 0.66081 0.42751 0.0
H1147 H 0.54658 0.57801 0.44778 0.0
H1148 H 0.54608 0.60284 0.43284 0.0
H1149 H 0.50378 0.63322 0.44045 0.0
H1150 H 0.52287 0.71403 0.43629 0.0
H1151 H 0.51974 0.68591 0.44284 0.0
C1152 C 0.85778 0.77243 0.71055 0.0
C1153 C 0.86184 0.77689 0.72646 0.0
C1154 C 0.86963 0.77207 0.69933 0.0
C1155 C 0.91283 0.76794 0.69489 0.0
H1156 H 0.90382 0.78582 0.65305 0.0
C1157 C 0.95819 0.76575 0.64448 0.0
C1158 C 0.95134 0.76147 0.62933 0.0
C1159 C 0.94831 0.76958 0.65688 0.0
C1160 C 0.90649 0.78067 0.66463 0.0
H1161 H 0.88173 0.78437 0.74301 0.0
H1162 H 0.90253 0.78335 0.7234 0.0
H1163 H 0.88454 0.78839 0.67379 0.0
H1164 H 0.92876 0.75812 0.61525 0.0
H1165 H 0.91167 0.7645 0.63675 0.0
H1166 H 0.93454 0.75975 0.68558 0.0
C1167 C 0.89008 0.78018 0.71969 0.0
C1168 C 0.89545 0.78218 0.67651 0.0
C1169 C 0.87817 0.7807 0.73092 0.0
C1170 C 0.93447 0.7614 0.62675 0.0
C1171 C 0.92464 0.76519 0.63909 0.0
C1172 C 0.92385 0.76632 0.68294 0.0
C1173 C 0.8859 0.776 0.70375 0.0
C1174 C 0.89835 0.77557 0.69167 0.0
C1175 C 0.93139 0.76922 0.65434 0.0
C1176 C 0.92064 0.77239 0.66757 0.0
H1177 H 0.84541 0.76904 0.70674 0.0
H1178 H 0.86609 0.76849 0.6872 0.0
H1179 H 0.91533 0.76266 0.70644 0.0
H1180 H 0.97115 0.76594 0.64684 0.0
H1181 H 0.95391 0.77279 0.66844 0.0
C1182 C 0.04457 0.89921 0.51803 0.0
C1183 C 0.03603 0.91257 0.52201 0.0
C1184 C 0.04217 0.88481 0.52605 0.0
C1185 C 0.01253 0.86217 0.54943 0.0
H1186 H 0.04885 0.83628 0.56017 0.0
C1187 C 0.00479 0.80123 0.58106 0.0
C1188 C 0.01323 0.78882 0.5746 0.0
C1189 C 0.00801 0.81703 0.57645 0.0
C1190 C 0.03857 0.84333 0.55717 0.0
H1191 H 0.01848 0.92133 0.53781 0.0
H1192 H 0.01422 0.89611 0.55175 0.0
H1193 H 0.05362 0.86259 0.54864 0.0
H1194 H 0.03192 0.78341 0.55845 0.0
H1195 H 0.03737 0.81078 0.55038 0.0
H1196 H 0.99746 0.84277 0.55768 0.0
C1197 C 0.02265 0.89676 0.54229 0.0
C1198 C 0.04131 0.8584 0.55056 0.0
C1199 C 0.02508 0.9112 0.53428 0.0
C1200 C 0.02516 0.79263 0.56369 0.0
C1201 C 0.02839 0.80837 0.55913 0.0
C1202 C 0.00979 0.84707 0.55603 0.0
C1203 C 0.03115 0.8834 0.53824 0.0
C1204 C 0.02831 0.86789 0.54637 0.0
C1205 C 0.01978 0.82076 0.56535 0.0
C1206 C 0.02276 0.83737 0.55973 0.0
H1207 H 0.05288 0.89976 0.50845 0.0
H1208 H 0.0487 0.87466 0.52244 0.0
H1209 H 0.00225 0.86913 0.54619 0.0
H1210 H 0.99554 0.79874 0.58952 0.0
H1211 H 0.00127 0.82633 0.58157 0.0
C1212 C 0.14189 0.72518 0.70268 0.0
C1213 C 0.13937 0.71639 0.7166 0.0
C1214 C 0.12901 0.72777 0.69181 0.0
C1215 C 0.08683 0.71317 0.68036 0.0
H1216 H 0.08688 0.75259 0.65644 0.0
C1217 C 0.03349 0.73164 0.63792 0.0
C1218 C 0.03808 0.73538 0.62241 0.0
C1219 C 0.04523 0.72979 0.65024 0.0
C1220 C 0.08674 0.74154 0.66306 0.0
H1221 H 0.12146 0.70361 0.73026 0.0
H1222 H 0.0988 0.70859 0.71161 0.0
H1223 H 0.10841 0.74853 0.67659 0.0
H1224 H 0.05853 0.74055 0.60775 0.0
H1225 H 0.07894 0.73771 0.62934 0.0
H1226 H 0.06487 0.70644 0.66692 0.0
C1227 C 0.11077 0.7131 0.70877 0.0
C1228 C 0.09913 0.73912 0.67452 0.0
C1229 C 0.12372 0.71029 0.71951 0.0
C1230 C 0.05461 0.73758 0.61955 0.0
C1231 C 0.06629 0.73605 0.63191 0.0
C1232 C 0.07428 0.71572 0.66907 0.0
C1233 C 0.11324 0.72188 0.69474 0.0
C1234 C 0.09951 0.72479 0.68315 0.0
C1235 C 0.06172 0.73201 0.64732 0.0
C1236 C 0.07427 0.72982 0.66016 0.0
H1237 H 0.15388 0.72986 0.70008 0.0
H1238 H 0.13152 0.73424 0.681 0.0
H1239 H 0.08678 0.70189 0.68655 0.0
H1240 H 0.02085 0.72983 0.64046 0.0
H1241 H 0.04143 0.72671 0.66206 0.0
C1242 C 0.97207 0.58433 0.52397 0.0
C1243 C 0.98102 0.58294 0.51027 0.0
C1244 C 0.97411 0.5979 0.53367 0.0
C1245 C 0.00153 0.63368 0.54238 0.0
H1246 H 0.9629 0.65074 0.55856 0.0
C1247 C 0.99823 0.69829 0.56557 0.0
C1248 C 0.98953 0.70061 0.57928 0.0
C1249 C 0.9984 0.6832 0.55856 0.0
C1250 C 0.97383 0.64601 0.55431 0.0
H1251 H 0.99954 0.59459 0.49636 0.0
H1252 H 0.00263 0.61848 0.51287 0.0
H1253 H 0.96084 0.6258 0.54361 0.0
H1254 H 0.9745 0.6888 0.59659 0.0
H1255 H 0.97472 0.66248 0.58426 0.0
H1256 H 0.01438 0.65427 0.55272 0.0
C1257 C 0.9942 0.60897 0.5163 0.0
C1258 C 0.97267 0.63168 0.54576 0.0
C1259 C 0.99225 0.59535 0.50667 0.0
C1260 C 0.9813 0.68743 0.58602 0.0
C1261 C 0.98136 0.67237 0.57893 0.0
C1262 C 0.00266 0.6481 0.55083 0.0
C1263 C 0.98505 0.61049 0.52985 0.0
C1264 C 0.98648 0.62537 0.53959 0.0
C1265 C 0.98975 0.67014 0.56502 0.0
C1266 C 0.9888 0.65445 0.55679 0.0
H1267 H 0.96319 0.5751 0.52705 0.0
H1268 H 0.96703 0.59854 0.54413 0.0
H1269 H 0.01246 0.62905 0.53805 0.0
H1270 H 0.00461 0.70818 0.56 0.0
H1271 H 0.00484 0.68186 0.54775 0.0
C1272 C 0.76737 0.9055 0.23379 0.0
C1273 C 0.7694 0.89145 0.22509 0.0
C1274 C 0.77991 0.91726 0.23548 0.0
C1275 C 0.82399 0.92256 0.23484 0.0
H1276 H 0.81673 0.96712 0.22682 0.0
C1277 C 0.87699 0.96819 0.22847 0.0
C1278 C 0.87595 0.98355 0.23489 0.0
C1279 C 0.86358 0.95746 0.22775 0.0
C1280 C 0.81893 0.95477 0.22935 0.0
H1281 H 0.7861 0.87911 0.21087 0.0
H1282 H 0.80799 0.89939 0.21416 0.0
H1283 H 0.79394 0.94746 0.22494 0.0
H1284 H 0.85988 -0.00029 0.24551 0.0
H1285 H 0.83648 0.98081 0.24456 0.0
H1286 H 0.84885 0.92972 0.23943 0.0
C1287 C 0.79676 0.90121 0.21981 0.0
C1288 C 0.80588 0.94352 0.22823 0.0
C1289 C 0.78421 0.88956 0.21799 0.0
C1290 C 0.86109 0.98798 0.24045 0.0
C1291 C 0.84765 0.97717 0.23984 0.0
C1292 C 0.83698 0.93379 0.2361 0.0
C1293 C 0.79478 0.91514 0.22863 0.0
C1294 C 0.80834 0.92728 0.23073 0.0
C1295 C 0.84877 0.96173 0.23358 0.0
C1296 C 0.83468 0.95 0.23312 0.0
H1297 H 0.7562 0.90729 0.23957 0.0
H1298 H 0.77811 0.92785 0.24243 0.0
H1299 H 0.82618 0.91016 0.23711 0.0
H1300 H 0.88819 0.96441 0.22391 0.0
H1301 H 0.86481 0.94583 0.2225 0.0
C1302 C 0.78197 0.15775 0.25377 0.0
C1303 C 0.76692 0.15269 0.25949 0.0
C1304 C 0.79452 0.1473 0.25339 0.0
C1305 C 0.80336 0.1047 0.25369 0.0
H1306 H 0.84653 0.12096 0.267 0.0
C1307 C 0.85805 0.06434 0.25796 0.0
C1308 C 0.87235 0.07074 0.25161 0.0
C1309 C 0.84504 0.07398 0.26015 0.0
C1310 C 0.83457 0.11625 0.26314 0.0
H1311 H 0.75322 0.13258 0.26916 0.0
H1312 H 0.77514 0.1143 0.26839 0.0
H1313 H 0.82397 0.13834 0.26792 0.0
H1314 H 0.88427 0.09236 0.24287 0.0
H1315 H 0.86165 0.10903 0.24656 0.0
H1316 H 0.81403 0.08265 0.24873 0.0
C1317 C 0.77717 0.12634 0.26409 0.0
C1318 C 0.82164 0.12623 0.26364 0.0
C1319 C 0.7646 0.13681 0.2645 0.0
C1320 C 0.87346 0.08703 0.24782 0.0
C1321 C 0.8605 0.09664 0.25002 0.0
C1322 C 0.81632 0.09471 0.25316 0.0
C1323 C 0.79233 0.13152 0.2587 0.0
C1324 C 0.80592 0.12064 0.25874 0.0
C1325 C 0.84608 0.09022 0.25609 0.0
C1326 C 0.83211 0.10043 0.2577 0.0
H1327 H 0.78407 0.1698 0.24954 0.0
H1328 H 0.80594 0.15158 0.24885 0.0
H1329 H 0.79141 0.10007 0.24971 0.0
H1330 H 0.85681 0.05184 0.26102 0.0
H1331 H 0.83416 0.06871 0.26501 0.0
C1332 C 0.38979 0.94557 0.95957 0.0
C1333 C 0.39137 0.96066 0.96687 0.0
C1334 C 0.37678 0.93504 0.96279 0.0
C1335 C 0.33546 0.93257 0.97592 0.0
H1336 H 0.34539 0.88997 0.98949 0.0
C1337 C 0.28681 0.88729 0.99903 0.0
C1338 C 0.2886 0.87106 0.99589 0.0
C1339 C 0.29885 0.89869 0.99506 0.0
C1340 C 0.34231 0.90171 0.98544 0.0
H1341 H 0.38043 0.97679 0.98287 0.0
H1342 H 0.35746 0.95842 0.98828 0.0
H1343 H 0.36719 0.90892 0.98296 0.0
H1344 H 0.30389 0.85414 0.98534 0.0
H1345 H 0.3244 0.87393 0.97779 0.0
H1346 H 0.31054 0.92529 0.97797 0.0
C1347 C 0.36636 0.95474 0.98018 0.0
C1348 C 0.35485 0.91258 0.98179 0.0
C1349 C 0.37953 0.96517 0.97718 0.0
C1350 C 0.30229 0.86653 0.98815 0.0
C1351 C 0.31413 0.87791 0.98393 0.0
C1352 C 0.32284 0.9216 0.97933 0.0
C1353 C 0.36498 0.93951 0.97315 0.0
C1354 C 0.35155 0.92809 0.97698 0.0
C1355 C 0.31279 0.89411 0.98763 0.0
C1356 C 0.3261 0.90598 0.98409 0.0
H1357 H 0.3988 0.94179 0.95164 0.0
H1358 H 0.37593 0.92339 0.95716 0.0
H1359 H 0.33262 0.94447 0.97216 0.0
H1360 H 0.2764 0.89111 0.00505 0.0
H1361 H 0.29743 0.91102 0.99824 0.0
C1362 C 0.23824 0.35226 0.28593 0.0
C1363 C 0.25042 0.34975 0.27525 0.0
C1364 C 0.22887 0.36562 0.28444 0.0
C1365 C 0.22988 0.40593 0.26697 0.0
H1366 H 0.18368 0.40372 0.27265 0.0
C1367 C 0.19135 0.45764 0.24859 0.0
C1368 C 0.1805 0.4629 0.25961 0.0
C1369 C 0.19859 0.44315 0.2507 0.0
C1370 C 0.1966 0.40451 0.27118 0.0
H1371 H 0.26186 0.35893 0.25424 0.0
H1372 H 0.24554 0.3821 0.25158 0.0
H1373 H 0.19901 0.37968 0.27608 0.0
H1374 H 0.16812 0.45656 0.28106 0.0
H1375 H 0.18091 0.43108 0.28475 0.0
H1376 H 0.22755 0.43063 0.26196 0.0
C1377 C 0.24345 0.37399 0.26135 0.0
C1378 C 0.20538 0.39078 0.27316 0.0
C1379 C 0.25281 0.3607 0.26287 0.0
C1380 C 0.17645 0.45288 0.27237 0.0
C1381 C 0.18375 0.43829 0.27448 0.0
C1382 C 0.22114 0.41956 0.26495 0.0
C1383 C 0.23149 0.37672 0.27222 0.0
C1384 C 0.2221 0.39131 0.27086 0.0
C1385 C 0.19522 0.43351 0.26388 0.0
C1386 C 0.20438 0.41899 0.26681 0.0
H1387 H 0.23619 0.34408 0.29567 0.0
H1388 H 0.21985 0.36745 0.29308 0.0
H1389 H 0.2428 0.40686 0.26552 0.0
H1390 H 0.1946 0.4649 0.23848 0.0
H1391 H 0.2071 0.43961 0.24212 0.0
C1392 C 0.12934 0.03498 0.50522 0.0
C1393 C 0.11624 0.03941 0.49524 0.0
C1394 C 0.1427 0.0456 0.50826 0.0
C1395 C 0.15435 0.08813 0.50927 0.0
H1396 H 0.19793 0.07555 0.50289 0.0
C1397 C 0.20646 0.13476 0.50465 0.0
C1398 C 0.22184 0.13165 0.51134 0.0
C1399 C 0.19411 0.12287 0.50375 0.0
C1400 C 0.18588 0.07919 0.505 0.0
H1401 H 0.10672 0.05843 0.48079 0.0
H1402 H 0.12993 0.07703 0.48626 0.0
H1403 H 0.17524 0.05585 0.49964 0.0
H1404 H 0.23631 0.11345 0.5222 0.0
H1405 H 0.21452 0.09264 0.52094 0.0
H1406 H 0.16479 0.11135 0.51479 0.0
C1407 C 0.12991 0.06534 0.49166 0.0
C1408 C 0.1729 0.06792 0.50309 0.0
C1409 C 0.1167 0.05467 0.48845 0.0
C1410 C 0.22461 0.11623 0.51697 0.0
C1411 C 0.21213 0.1043 0.51619 0.0
C1412 C 0.16729 0.09933 0.51136 0.0
C1413 C 0.14305 0.06092 0.50158 0.0
C1414 C 0.15699 0.07239 0.50489 0.0
C1415 C 0.19669 0.10753 0.50967 0.0
C1416 C 0.18319 0.09512 0.50888 0.0
H1417 H 0.12932 0.02324 0.51052 0.0
H1418 H 0.15266 0.04193 0.51598 0.0
H1419 H 0.14223 0.09182 0.51102 0.0
H1420 H 0.20392 0.14642 0.49999 0.0
H1421 H 0.18254 0.12572 0.49825 0.0
C1422 C 0.74106 0.15761 0.74544 0.0
C1423 C 0.75619 0.1556 0.73906 0.0
C1424 C 0.72982 0.14472 0.7464 0.0
C1425 C 0.71967 0.10404 0.7304 0.0
H1426 H 0.6964 0.09879 0.76917 0.0
C1427 C 0.68822 0.04454 0.74861 0.0
C1428 C 0.67344 0.04495 0.75607 0.0
C1429 C 0.69685 0.05866 0.74496 0.0
C1430 C 0.7026 0.10021 0.75816 0.0
H1431 H 0.77122 0.13848 0.7284 0.0
H1432 H 0.75183 0.11594 0.73048 0.0
H1433 H 0.71441 0.12226 0.76602 0.0
H1434 H 0.65587 0.06052 0.7651 0.0
H1435 H 0.67096 0.08521 0.7587 0.0
H1436 H 0.70811 0.08176 0.72273 0.0
C1437 C 0.74854 0.12753 0.73456 0.0
C1438 C 0.71294 0.11367 0.75635 0.0
C1439 C 0.75977 0.14041 0.73357 0.0
C1440 C 0.66724 0.0598 0.75938 0.0
C1441 C 0.67592 0.07394 0.7558 0.0
C1442 C 0.70937 0.09055 0.73224 0.0
C1443 C 0.73345 0.12951 0.74103 0.0
C1444 C 0.72174 0.11566 0.74253 0.0
C1445 C 0.69093 0.07351 0.74876 0.0
C1446 C 0.70087 0.0884 0.74622 0.0
H1447 H 0.73796 0.16911 0.74991 0.0
H1448 H 0.71824 0.1467 0.75132 0.0
H1449 H 0.72604 0.10535 0.71948 0.0
H1450 H 0.69342 0.03333 0.746 0.0
H1451 H 0.70847 0.05792 0.73972 0.0
C1452 C 0.396 0.02642 0.52568 0.0
C1453 C 0.40726 0.02764 0.53876 0.0
C1454 C 0.38389 0.03737 0.52377 0.0
C1455 C 0.37454 0.07805 0.53547 0.0
H1456 H 0.33014 0.06459 0.52364 0.0
C1457 C 0.3232 0.12053 0.54058 0.0
C1458 C 0.31113 0.12059 0.52826 0.0
C1459 C 0.3345 0.10879 0.54119 0.0
C1460 C 0.34252 0.06855 0.52675 0.0
H1461 H 0.41466 0.04135 0.56004 0.0
H1462 H 0.39347 0.06027 0.55683 0.0
H1463 H 0.35074 0.04478 0.52592 0.0
H1464 H 0.30126 0.10811 0.50703 0.0
H1465 H 0.32119 0.08757 0.50802 0.0
H1466 H 0.36645 0.10175 0.53632 0.0
C1467 C 0.39405 0.05093 0.54798 0.0
C1468 C 0.35431 0.05721 0.52807 0.0
C1469 C 0.40608 0.03997 0.54993 0.0
C1470 C 0.31042 0.1084 0.51668 0.0
C1471 C 0.32179 0.0966 0.51728 0.0
C1472 C 0.3628 0.08935 0.53412 0.0
C1473 C 0.38288 0.04983 0.53484 0.0
C1474 C 0.37041 0.06182 0.53266 0.0
C1475 C 0.33408 0.09679 0.52946 0.0
C1476 C 0.34661 0.08473 0.52997 0.0
H1477 H 0.39651 0.01697 0.51694 0.0
H1478 H 0.37552 0.03626 0.51347 0.0
H1479 H 0.38689 0.08203 0.53868 0.0
H1480 H 0.32403 0.12965 0.54978 0.0
H1481 H 0.34357 0.1091 0.55093 0.0
C1482 C 0.60989 0.46385 0.49197 0.0
C1483 C 0.59829 0.46102 0.50345 0.0
C1484 C 0.62243 0.4535 0.49046 0.0
C1485 C 0.63365 0.41251 0.49938 0.0
H1486 H 0.6779 0.42962 0.49836 0.0
C1487 C 0.68717 0.3741 0.51449 0.0
C1488 C 0.70119 0.37602 0.5058 0.0
C1489 C 0.67469 0.38449 0.51234 0.0
C1490 C 0.6656 0.42465 0.49836 0.0
H1491 H 0.59052 0.44498 0.52207 0.0
H1492 H 0.61238 0.42695 0.51946 0.0
H1493 H 0.65575 0.44776 0.49786 0.0
H1494 H 0.7131 0.39042 0.488 0.0
H1495 H 0.6911 0.40862 0.48414 0.0
H1496 H 0.64338 0.38945 0.50002 0.0
C1497 C 0.61178 0.43714 0.51162 0.0
C1498 C 0.65292 0.43504 0.49809 0.0
C1499 C 0.59936 0.44754 0.51322 0.0
C1500 C 0.70245 0.38863 0.49488 0.0
C1501 C 0.68989 0.39908 0.49272 0.0
C1502 C 0.64627 0.40215 0.49956 0.0
C1503 C 0.62348 0.44003 0.50026 0.0
C1504 C 0.63684 0.42907 0.49896 0.0
C1505 C 0.67583 0.39707 0.5014 0.0
C1506 C 0.66242 0.4081 0.49944 0.0
H1507 H 0.60942 0.47421 0.48435 0.0
H1508 H 0.63124 0.45597 0.48156 0.0
H1509 H 0.62135 0.40755 0.49973 0.0
H1510 H 0.68582 0.36458 0.52307 0.0
H1511 H 0.66421 0.38278 0.51948 0.0
C1512 C 0.70307 0.26543 0.3475 0.0
C1513 C 0.71343 0.25354 0.34327 0.0
C1514 C 0.70603 0.27407 0.36173 0.0
C1515 C 0.72722 0.27103 0.40111 0.0
H1516 H 0.72412 0.31688 0.40354 0.0
C1517 C 0.75467 0.30654 0.45457 0.0
C1518 C 0.74542 0.31813 0.46136 0.0
C1519 C 0.74989 0.29958 0.43991 0.0
C1520 C 0.72484 0.30405 0.40306 0.0
H1521 H 0.73543 0.24194 0.35026 0.0
H1522 H 0.74054 0.25689 0.37497 0.0
H1523 H 0.71723 0.30288 0.37826 0.0
H1524 H 0.72413 0.3319 0.45768 0.0
H1525 H 0.71573 0.31959 0.4319 0.0
H1526 H 0.73494 0.27211 0.42575 0.0
C1527 C 0.72992 0.25932 0.36752 0.0
C1528 C 0.7209 0.29605 0.38862 0.0
C1529 C 0.72699 0.25074 0.35336 0.0
C1530 C 0.73151 0.32298 0.45281 0.0
C1531 C 0.72672 0.31598 0.43804 0.0
C1532 C 0.73114 0.27899 0.41547 0.0
C1533 C 0.71939 0.27095 0.37198 0.0
C1534 C 0.72235 0.27948 0.38744 0.0
C1535 C 0.73572 0.30398 0.43161 0.0
C1536 C 0.73031 0.29562 0.41654 0.0
H1537 H 0.69247 0.26781 0.34 0.0
H1538 H 0.69765 0.28291 0.36489 0.0
H1539 H 0.72808 0.25822 0.4007 0.0
H1540 H 0.76556 0.30262 0.46068 0.0
H1541 H 0.75728 0.29062 0.4351 0.0
C1542 C 0.51001 0.99145 0.87726 0.0
C1543 C 0.51156 0.00469 0.88761 0.0
C1544 C 0.52046 0.99008 0.86478 0.0
C1545 C 0.54799 0.01447 0.84022 0.0
H1546 H 0.56581 0.97409 0.83008 0.0
C1547 C 0.58853 0.00876 0.78717 0.0
C1548 C 0.60276 0.00064 0.79011 0.0
C1549 C 0.57619 0.0078 0.79794 0.0
C1550 C 0.56096 0.98545 0.83279 0.0
H1551 H 0.52568 0.02658 0.8933 0.0
H1552 H 0.54388 0.0242 0.87164 0.0
H1553 H 0.54706 0.97552 0.85157 0.0
H1554 H 0.61487 0.98453 0.80632 0.0
H1555 H 0.59344 0.98304 0.82521 0.0
H1556 H 0.56221 0.02455 0.82188 0.0
C1557 C 0.53437 0.01503 0.87291 0.0
C1558 C 0.5501 0.98624 0.845 0.0
C1559 C 0.52394 0.01639 0.88535 0.0
C1560 C 0.60406 0.99096 0.8037 0.0
C1561 C 0.59173 0.99004 0.8145 0.0
C1562 C 0.55881 0.01368 0.82805 0.0
C1563 C 0.53269 0.00194 0.8624 0.0
C1564 C 0.54364 0.00081 0.84897 0.0
C1565 C 0.57781 0.99874 0.81193 0.0
C1566 C 0.56554 0.9992 0.82426 0.0
H1567 H 0.5005 0.9823 0.8786 0.0
H1568 H 0.51876 0.97992 0.8568 0.0
H1569 H 0.54306 0.02583 0.84281 0.0
H1570 H 0.58706 0.0162 0.77674 0.0
H1571 H 0.56549 0.0144 0.79543 0.0
C1572 C 0.27923 0.23277 0.3568 0.0
C1573 C 0.28813 0.22685 0.3445 0.0
C1574 C 0.27686 0.22387 0.37055 0.0
C1575 C 0.2921 0.18972 0.39387 0.0
H1576 H 0.25203 0.19446 0.41485 0.0
C1577 C 0.28392 0.17219 0.45967 0.0
C1578 C 0.26824 0.16904 0.46477 0.0
C1579 C 0.28635 0.17619 0.44375 0.0
C1580 C 0.26318 0.19261 0.40908 0.0
H1581 H 0.30158 0.20701 0.33686 0.0
H1582 H 0.29696 0.19106 0.36074 0.0
H1583 H 0.25585 0.207 0.38943 0.0
H1584 H 0.24296 0.16614 0.45723 0.0
H1585 H 0.24718 0.17192 0.4293 0.0
H1586 H 0.29913 0.17478 0.41333 0.0
C1587 C 0.2921 0.20276 0.35993 0.0
C1588 C 0.26551 0.20016 0.39455 0.0
C1589 C 0.2947 0.21183 0.34623 0.0
C1590 C 0.25516 0.16871 0.45355 0.0
C1591 C 0.2576 0.17222 0.43758 0.0
C1592 C 0.28964 0.18189 0.40833 0.0
C1593 C 0.28308 0.20865 0.37226 0.0
C1594 C 0.28016 0.1992 0.38694 0.0
C1595 C 0.27314 0.17676 0.43258 0.0
C1596 C 0.27526 0.1835 0.41632 0.0
H1597 H 0.27431 0.24445 0.35589 0.0
H1598 H 0.27029 0.22907 0.37994 0.0
H1599 H 0.30356 0.18872 0.3884 0.0
H1600 H 0.29418 0.17262 0.46818 0.0
H1601 H 0.29848 0.17972 0.4405 0.0
C1602 C 0.48735 0.48737 0.90304 0.0
C1603 C 0.4959 0.50038 0.91052 0.0
C1604 C 0.47763 0.48955 0.88923 0.0
C1605 C 0.47111 0.51879 0.8565 0.0
H1606 H 0.43405 0.49012 0.84569 0.0
C1607 C 0.43008 0.52511 0.7992 0.0
C1608 C 0.42968 0.51147 0.78941 0.0
C1609 C 0.43621 0.52452 0.81501 0.0
C1610 C 0.44433 0.49824 0.84863 0.0
H1611 H 0.50058 0.52593 0.90994 0.0
H1612 H 0.48301 0.52996 0.88629 0.0
H1613 H 0.4482 0.4881 0.87172 0.0
H1614 H 0.43458 0.48638 0.78869 0.0
H1615 H 0.44479 0.48527 0.81646 0.0
H1616 H 0.46693 0.52905 0.83341 0.0
C1617 C 0.48421 0.51795 0.89063 0.0
C1618 C 0.45256 0.49702 0.86348 0.0
C1619 C 0.4942 0.51569 0.90426 0.0
C1620 C 0.43481 0.49709 0.79594 0.0
C1621 C 0.44057 0.49643 0.81182 0.0
C1622 C 0.46267 0.5202 0.8418 0.0
C1623 C 0.47598 0.50487 0.88275 0.0
C1624 C 0.46629 0.50706 0.86751 0.0
C1625 C 0.44164 0.5102 0.8214 0.0
C1626 C 0.4494 0.50975 0.83762 0.0
H1627 H 0.48862 0.47541 0.90757 0.0
H1628 H 0.47182 0.47912 0.88341 0.0
H1629 H 0.48176 0.52656 0.85893 0.0
H1630 H 0.42628 0.53637 0.79447 0.0
H1631 H 0.4369 0.53528 0.8222 0.0
C1632 C 0.73641 0.76879 0.14837 0.0
C1633 C 0.72116 0.76875 0.15502 0.0
C1634 C 0.73972 0.75739 0.13702 0.0
C1635 C 0.7206 0.72999 0.10688 0.0
H1636 H 0.76172 0.70994 0.11032 0.0
C1637 C 0.7575 0.67786 0.07453 0.0
C1638 C 0.75572 0.6826 0.05852 0.0
C1639 C 0.7518 0.68713 0.0867 0.0
C1640 C 0.75011 0.7153 0.10928 0.0
H1641 H 0.69743 0.75659 0.15486 0.0
H1642 H 0.70318 0.73682 0.13478 0.0
H1643 H 0.7548 0.72855 0.13096 0.0
H1644 H 0.74615 0.70059 0.04273 0.0
H1645 H 0.73613 0.7167 0.06394 0.0
H1646 H 0.71601 0.71682 0.08507 0.0
C1647 C 0.71253 0.74575 0.13839 0.0
C1648 C 0.74623 0.72608 0.12101 0.0
C1649 C 0.70924 0.75711 0.14986 0.0
C1650 C 0.74763 0.69653 0.05491 0.0
C1651 C 0.74184 0.70576 0.06707 0.0
C1652 C 0.72454 0.71928 0.09506 0.0
C1653 C 0.72784 0.74573 0.13193 0.0
C1654 C 0.73151 0.73366 0.11986 0.0
C1655 C 0.74413 0.70131 0.08311 0.0
C1656 C 0.7394 0.71192 0.09608 0.0
H1657 H 0.74577 0.77778 0.15177 0.0
H1658 H 0.75154 0.75785 0.13204 0.0
H1659 H 0.7092 0.73572 0.10564 0.0
H1660 H 0.76364 0.66717 0.07773 0.0
H1661 H 0.75357 0.68331 0.09894 0.0
C1662 C 0.98513 -6e-05 0.09289 0.0
C1663 C 0.98196 0.01058 0.08042 0.0
C1664 C 0.97636 0.00023 0.10671 0.0
C1665 C 0.9516 0.02748 0.12896 0.0
H1666 H 0.94217 0.98995 0.15431 0.0
C1667 C 0.91423 0.03001 0.18479 0.0
C1668 C 0.9212 0.02323 0.1986 0.0
C1669 C 0.92034 0.02722 0.16987 0.0
C1670 C 0.94478 0.00052 0.14734 0.0
H1671 H 0.96657 0.02919 0.07208 0.0
H1672 H 0.95084 0.02935 0.09585 0.0
H1673 H 0.95484 0.98717 0.12881 0.0
H1674 H 0.93982 0.00785 0.20748 0.0
H1675 H 0.95032 0.0028 0.18137 0.0
H1676 H 0.94143 0.04079 0.14742 0.0
C1677 C 0.96046 0.02115 0.09533 0.0
C1678 C 0.95209 0.99896 0.13277 0.0
C1679 C 0.96939 0.02101 0.08165 0.0
C1680 C 0.9341 0.01319 0.19709 0.0
C1681 C 0.9401 0.01025 0.18213 0.0
C1682 C 0.94414 0.029 0.14339 0.0
C1683 C 0.96409 0.01106 0.10822 0.0
C1684 C 0.95568 0.01245 0.12342 0.0
C1685 C 0.93345 0.01746 0.16842 0.0
C1686 C 0.94074 0.01557 0.15278 0.0
H1687 H 0.99485 0.99186 0.09224 0.0
H1688 H 0.97963 0.9924 0.11642 0.0
H1689 H 0.95452 0.0382 0.12234 0.0
H1690 H 0.90426 0.03778 0.18552 0.0
H1691 H 0.91489 0.03281 0.15947 0.0
C1692 C 0.3068 0.77557 0.15209 0.0
C1693 C 0.30264 0.78071 0.16723 0.0
C1694 C 0.30389 0.78493 0.13865 0.0
C1695 C 0.27741 0.81606 0.1241 0.0
H1696 H 0.30519 0.81664 0.08822 0.0
C1697 C 0.26013 0.84749 0.06518 0.0
C1698 C 0.26124 0.83803 0.05147 0.0
C1699 C 0.26732 0.84297 0.07977 0.0
C1700 C 0.29732 0.81659 0.09816 0.0
H1701 H 0.2926 0.79998 0.18018 0.0
H1702 H 0.28788 0.81649 0.15673 0.0
H1703 H 0.31411 0.80435 0.11323 0.0
H1704 H 0.27114 0.81661 0.04229 0.0
H1705 H 0.28372 0.80883 0.06763 0.0
H1706 H 0.2605 0.82801 0.10893 0.0
C1707 C 0.29317 0.80509 0.15524 0.0
C1708 C 0.3024 0.80953 0.11246 0.0
C1709 C 0.29604 0.7957 0.1687 0.0
C1710 C 0.27015 0.82426 0.05255 0.0
C1711 C 0.27742 0.81981 0.06709 0.0
C1712 C 0.27237 0.82319 0.10983 0.0
C1713 C 0.29681 0.79969 0.14002 0.0
C1714 C 0.29234 0.80885 0.12548 0.0
C1715 C 0.27585 0.82896 0.08091 0.0
C1716 C 0.28211 0.82321 0.09659 0.0
H1717 H 0.31213 0.7642 0.15058 0.0
H1718 H 0.3067 0.7803 0.1271 0.0
H1719 H 0.26925 0.81557 0.1338 0.0
H1720 H 0.25337 0.85819 0.06474 0.0
H1721 H 0.26602 0.85032 0.09021 0.0
C1722 C 0.04861 0.48273 0.11662 0.0
C1723 C 0.03353 0.48965 0.11686 0.0
C1724 C 0.05954 0.48401 0.1298 0.0
C1725 C 0.06882 0.50746 0.16714 0.0
H1726 H 0.09747 0.47327 0.17646 0.0
C1727 C 0.11308 0.50626 0.22302 0.0
C1728 C 0.12918 0.50378 0.2195 0.0
C1729 C 0.10064 0.50409 0.21122 0.0
C1730 C 0.08953 0.48291 0.17397 0.0
H1731 H 0.01822 0.50335 0.1314 0.0
H1732 H 0.03691 0.50487 0.15462 0.0
H1733 H 0.07691 0.47009 0.15478 0.0
H1734 H 0.14477 0.49675 0.20095 0.0
H1735 H 0.123 0.49265 0.18053 0.0
H1736 H 0.08138 0.52007 0.18665 0.0
C1737 C 0.04048 0.49878 0.14407 0.0
C1738 C 0.07782 0.48116 0.16148 0.0
C1739 C 0.02961 0.49769 0.13078 0.0
C1740 C 0.13252 0.49884 0.20403 0.0
C1741 C 0.12006 0.49639 0.19236 0.0
C1742 C 0.08038 0.50908 0.17981 0.0
C1743 C 0.05564 0.49203 0.14373 0.0
C1744 C 0.06746 0.49352 0.1577 0.0
C1745 C 0.10403 0.49909 0.1958 0.0
C1746 C 0.091 0.49692 0.18317 0.0
H1747 H 0.052 0.4762 0.10627 0.0
H1748 H 0.07117 0.47887 0.12893 0.0
H1749 H 0.06127 0.51735 0.1645 0.0
H1750 H 0.11014 0.51011 0.23481 0.0
H1751 H 0.08835 0.5062 0.21416 0.0
C1752 C 0.38187 0.74808 0.30091 0.0
C1753 C 0.38013 0.73603 0.28919 0.0
C1754 C 0.39551 0.74919 0.31138 0.0
C1755 C 0.42705 0.72519 0.32944 0.0
H1756 H 0.44897 0.76607 0.33978 0.0
C1757 C 0.47199 0.73482 0.38357 0.0
C1758 C 0.48638 0.7439 0.38121 0.0
C1759 C 0.45967 0.73367 0.37164 0.0
C1760 C 0.44304 0.75456 0.33691 0.0
H1761 H 0.39164 0.71595 0.27907 0.0
H1762 H 0.41527 0.71774 0.29756 0.0
H1763 H 0.4263 0.76461 0.32001 0.0
H1764 H 0.49909 0.75888 0.36437 0.0
H1765 H 0.47744 0.75696 0.34356 0.0
H1766 H 0.4437 0.71516 0.34643 0.0
C1767 C 0.40599 0.72624 0.29868 0.0
C1768 C 0.42999 0.75375 0.32572 0.0
C1769 C 0.39242 0.72519 0.28814 0.0
C1770 C 0.48817 0.75178 0.36659 0.0
C1771 C 0.47575 0.75076 0.3547 0.0
C1772 C 0.44 0.72603 0.34074 0.0
C1773 C 0.40765 0.73822 0.31043 0.0
C1774 C 0.42182 0.73906 0.32193 0.0
C1775 C 0.46138 0.74169 0.35711 0.0
C1776 C 0.44807 0.74073 0.34465 0.0
H1777 H 0.37254 0.75647 0.30225 0.0
H1778 H 0.39636 0.75842 0.32046 0.0
H1779 H 0.42091 0.71373 0.32684 0.0
H1780 H 0.47021 0.72856 0.39466 0.0
H1781 H 0.44865 0.72673 0.37389 0.0
C1782 C 0.98173 0.40469 0.99392 0.0
C1783 C 0.99043 0.41928 0.99189 0.0
C1784 C 0.98438 0.39155 0.98436 0.0
C1785 C 0.01489 0.37459 0.95992 0.0
H1786 H 0.97898 0.34577 0.94582 0.0
C1787 C 0.02358 0.31648 0.92444 0.0
C1788 C 0.01519 0.30287 0.93017 0.0
C1789 C 0.02021 0.3317 0.92983 0.0
C1790 C 0.98914 0.35368 0.94971 0.0
H1791 H 0.00854 0.43156 0.97796 0.0
H1792 H 0.01323 0.40851 0.96129 0.0
H1793 H 0.97373 0.37064 0.95918 0.0
H1794 H 0.99639 0.29466 0.94579 0.0
H1795 H 0.99061 0.32103 0.95514 0.0
H1796 H 0.03031 0.35742 0.95072 0.0
C1797 C 0.00446 0.40725 0.9704 0.0
C1798 C 0.98613 0.36792 0.95738 0.0
C1799 C 0.00178 0.42044 0.97997 0.0
C1800 C 0.00313 0.30485 0.94113 0.0
C1801 C 0.99971 0.32 0.94641 0.0
C1802 C 0.0179 0.36032 0.95223 0.0
C1803 C 0.99581 0.39264 0.97253 0.0
C1804 C 0.99898 0.37837 0.9629 0.0
C1805 C 0.00827 0.3336 0.94093 0.0
C1806 C 0.00507 0.34955 0.94736 0.0
H1807 H 0.97314 0.40328 0.00319 0.0
H1808 H 0.97775 0.38039 0.98654 0.0
H1809 H 0.02506 0.38232 0.96415 0.0
H1810 H 0.03293 0.31539 0.91598 0.0
H1811 H 0.02693 0.34197 0.92531 0.0
C1812 C 0.63576 0.82752 0.27507 0.0
C1813 C 0.63782 0.81863 0.26114 0.0
C1814 C 0.62373 0.82294 0.28548 0.0
C1815 C 0.59945 0.78725 0.29703 0.0
H1816 H 0.57594 0.81746 0.3207 0.0
C1817 C 0.55164 0.76598 0.34047 0.0
C1818 C 0.5527 0.77331 0.35558 0.0
C1819 C 0.5602 0.77252 0.32793 0.0
C1820 C 0.58248 0.8089 0.31422 0.0
H1821 H 0.62847 0.79819 0.24708 0.0
H1822 H 0.60723 0.79051 0.26495 0.0
H1823 H 0.59419 0.82709 0.30041 0.0
H1824 H 0.563 0.79369 0.36917 0.0
H1825 H 0.57806 0.80505 0.34728 0.0
H1826 H 0.58796 0.76909 0.31091 0.0
C1827 C 0.61511 0.80087 0.26798 0.0
C1828 C 0.59294 0.8144 0.30261 0.0
C1829 C 0.62717 0.8054 0.2576 0.0
C1830 C 0.56195 0.78772 0.35768 0.0
C1831 C 0.57052 0.79428 0.34511 0.0
C1832 C 0.58899 0.78177 0.30856 0.0
C1833 C 0.61344 0.80939 0.2822 0.0
C1834 C 0.60164 0.80364 0.29395 0.0
C1835 C 0.57002 0.78655 0.3302 0.0
C1836 C 0.58045 0.79251 0.31737 0.0
H1837 H 0.64361 0.83791 0.27805 0.0
H1838 H 0.62287 0.82972 0.29637 0.0
H1839 H 0.6062 0.77864 0.29084 0.0
H1840 H 0.5445 0.75495 0.33839 0.0
H1841 H 0.55933 0.76644 0.3165 0.0
C1842 C 0.04827 0.10384 0.97681 0.0
C1843 C 0.03712 0.09171 0.97125 0.0
C1844 C 0.04865 0.1188 0.96964 0.0
C1845 C 0.03492 0.14066 0.93348 0.0
H1846 H 0.04162 0.17717 0.96182 0.0
C1847 C 0.04477 0.20517 0.91047 0.0
C1848 C 0.03817 0.21747 0.91904 0.0
C1849 C 0.04418 0.18956 0.91623 0.0
C1850 C 0.03955 0.16713 0.95373 0.0
H1851 H 0.01783 0.08559 0.95365 0.0
H1852 H 0.01823 0.11188 0.94126 0.0
H1853 H 0.04147 0.15049 0.97281 0.0
H1854 H 0.02558 0.22293 0.94029 0.0
H1855 H 0.0241 0.19574 0.95004 0.0
H1856 H 0.03248 0.15741 0.91445 0.0
C1857 C 0.02689 0.10976 0.95099 0.0
C1858 C 0.03972 0.15179 0.96002 0.0
C1859 C 0.02662 0.09471 0.9581 0.0
C1860 C 0.03073 0.21377 0.93334 0.0
C1861 C 0.03003 0.19817 0.93903 0.0
C1862 C 0.03465 0.15605 0.92719 0.0
C1863 C 0.03777 0.12205 0.95683 0.0
C1864 C 0.03749 0.13835 0.94998 0.0
C1865 C 0.03693 0.18589 0.93066 0.0
C1866 C 0.03698 0.16948 0.93725 0.0
H1867 H 0.05669 0.10175 0.98676 0.0
H1868 H 0.05746 0.12785 0.97419 0.0
H1869 H 0.03329 0.13058 0.92539 0.0
H1870 H 0.05064 0.20763 0.89943 0.0
H1871 H 0.0498 0.18046 0.90957 0.0
C1872 C 0.3573 0.27141 0.20665 0.0
C1873 C 0.36149 0.27567 0.22259 0.0
C1874 C 0.36908 0.2711 0.19535 0.0
C1875 C 0.41225 0.26689 0.19063 0.0
H1876 H 0.40327 0.28557 0.14916 0.0
C1877 C 0.45771 0.26562 0.1403 0.0
C1878 C 0.4509 0.26164 0.12506 0.0
C1879 C 0.44779 0.26926 0.15273 0.0
C1880 C 0.40594 0.28019 0.16063 0.0
H1881 H 0.38152 0.28288 0.23909 0.0
H1882 H 0.40216 0.28194 0.21935 0.0
H1883 H 0.38397 0.28772 0.16994 0.0
H1884 H 0.42837 0.25869 0.11085 0.0
H1885 H 0.41122 0.26473 0.1324 0.0
H1886 H 0.43396 0.25889 0.18117 0.0
C1887 C 0.38969 0.27887 0.21568 0.0
C1888 C 0.39488 0.28146 0.17254 0.0
C1889 C 0.37786 0.27934 0.22698 0.0
C1890 C 0.43405 0.26173 0.12243 0.0
C1891 C 0.42418 0.26532 0.1348 0.0
C1892 C 0.42327 0.26551 0.17866 0.0
C1893 C 0.38539 0.27489 0.19972 0.0
C1894 C 0.39778 0.27458 0.18757 0.0
C1895 C 0.43089 0.26901 0.15014 0.0
C1896 C 0.4201 0.27189 0.16341 0.0
H1897 H 0.34489 0.26816 0.20289 0.0
H1898 H 0.36545 0.26769 0.18319 0.0
H1899 H 0.41475 0.26141 0.20209 0.0
H1900 H 0.47066 0.26568 0.14271 0.0
H1901 H 0.45337 0.27222 0.16437 0.0
C1902 C 0.53062 0.40935 0.03179 0.0
C1903 C 0.54132 0.41062 0.0193 0.0
C1904 C 0.52811 0.3949 0.03974 0.0
C1905 C 0.54589 0.35593 0.04724 0.0
H1906 H 0.50184 0.34158 0.05515 0.0
C1907 C 0.52767 0.29052 0.06075 0.0
C1908 C 0.51564 0.28721 0.07169 0.0
C1909 C 0.53156 0.30617 0.05622 0.0
C1910 C 0.51424 0.34552 0.05329 0.0
H1911 H 0.55774 0.39764 0.00538 0.0
H1912 H 0.55338 0.37248 0.01925 0.0
H1913 H 0.50719 0.36783 0.04369 0.0
H1914 H 0.4986 0.29792 0.08681 0.0
H1915 H 0.50551 0.32528 0.07895 0.0
H1916 H 0.55292 0.33353 0.05661 0.0
C1917 C 0.54711 0.38272 0.02306 0.0
C1918 C 0.51731 0.36056 0.0467 0.0
C1919 C 0.5496 0.39715 0.0151 0.0
C1920 C 0.50789 0.30001 0.07831 0.0
C1921 C 0.51177 0.31569 0.07374 0.0
C1922 C 0.54283 0.3409 0.05384 0.0
C1923 C 0.53626 0.3814 0.03541 0.0
C1924 C 0.53314 0.36585 0.04339 0.0
C1925 C 0.52353 0.31893 0.0625 0.0
C1926 C 0.52694 0.33542 0.05674 0.0
H1927 H 0.52425 0.41956 0.0355 0.0
H1928 H 0.51984 0.39433 0.04935 0.0
H1929 H 0.55826 0.35978 0.0451 0.0
H1930 H 0.53392 0.281 0.0554 0.0
H1931 H 0.54052 0.3082 0.04738 0.0
C1932 C 0.62363 0.20424 0.21358 0.0
C1933 C 0.63651 0.21583 0.21453 0.0
C1934 C 0.61049 0.20588 0.20275 0.0
C1935 C 0.58895 0.23547 0.17871 0.0
H1936 H 0.57396 0.19909 0.15249 0.0
C1937 C 0.53323 0.23651 0.13426 0.0
C1938 C 0.53564 0.23056 0.11892 0.0
C1939 C 0.54466 0.23438 0.14679 0.0
C1940 C 0.57801 0.20934 0.15974 0.0
H1941 H 0.64563 0.23818 0.20465 0.0
H1942 H 0.62259 0.24112 0.18595 0.0
H1943 H 0.59572 0.19624 0.17277 0.0
H1944 H 0.55185 0.21743 0.10484 0.0
H1945 H 0.57164 0.21367 0.12667 0.0
H1946 H 0.5714 0.24864 0.16547 0.0
C1947 C 0.62262 0.23085 0.19372 0.0
C1948 C 0.59037 0.20768 0.17143 0.0
C1949 C 0.63582 0.22916 0.20446 0.0
C1950 C 0.5496 0.22222 0.11648 0.0
C1951 C 0.56091 0.21996 0.12901 0.0
C1952 C 0.57648 0.23709 0.16711 0.0
C1953 C 0.60985 0.2192 0.1927 0.0
C1954 C 0.59611 0.22078 0.1809 0.0
C1955 C 0.55862 0.22609 0.14428 0.0
C1956 C 0.57103 0.2241 0.15736 0.0
H1957 H 0.6236 0.19397 0.22134 0.0
H1958 H 0.60073 0.1968 0.20235 0.0
H1959 H 0.59303 0.24573 0.18594 0.0
H1960 H 0.52262 0.243 0.13655 0.0
H1961 H 0.54254 0.23914 0.15847 0.0
C1962 C 0.48324 0.08491 0.01595 0.0
C1963 C 0.47212 0.08445 0.00276 0.0
C1964 C 0.48535 0.09856 0.02556 0.0
C1965 C 0.46482 0.13387 0.03772 0.0
H1966 H 0.5079 0.15228 0.0481 0.0
C1967 C 0.49501 0.19768 0.06078 0.0
C1968 C 0.48588 0.20046 0.0741 0.0
C1969 C 0.49423 0.18269 0.05342 0.0
C1970 C 0.49581 0.14723 0.04531 0.0
H1971 H 0.45433 0.09775 0.98941 0.0
H1972 H 0.45793 0.12154 0.00627 0.0
H1973 H 0.50451 0.12759 0.03245 0.0
H1974 H 0.46902 0.18958 0.09033 0.0
H1975 H 0.46753 0.16348 0.07733 0.0
H1976 H 0.45609 0.15356 0.05041 0.0
C1977 C 0.46503 0.11138 0.00914 0.0
C1978 C 0.49388 0.13308 0.03646 0.0
C1979 C 0.46307 0.09783 -0.00057 0.0
C1980 C 0.4762 0.18784 0.08009 0.0
C1981 C 0.47529 0.17291 0.07262 0.0
C1982 C 0.46675 0.1479 0.04672 0.0
C1983 C 0.47621 0.11189 0.02227 0.0
C1984 C 0.47835 0.12638 0.03241 0.0
C1985 C 0.48415 0.17025 0.05911 0.0
C1986 C 0.48226 0.15482 0.05046 0.0
H1987 H 0.49043 0.07479 0.01872 0.0
H1988 H 0.494 0.09863 0.03565 0.0
H1989 H 0.45272 0.12889 0.03486 0.0
H1990 H 0.50249 0.20713 0.05578 0.0
H1991 H 0.50107 0.18101 0.04293 0.0
C1992 C 0.26969 0.40367 0.72028 0.0
C1993 C 0.27191 0.38784 0.72502 0.0
C1994 C 0.28224 0.41535 0.72243 0.0
C1995 C 0.3262 0.41993 0.72545 0.0
H1996 H 0.32003 0.46128 0.7442 0.0
C1997 C 0.38016 0.46396 0.73991 0.0
C1998 C 0.37812 0.48029 0.73753 0.0
C1999 C 0.36689 0.45304 0.73892 0.0
C2000 C 0.32192 0.44988 0.73872 0.0
H2001 H 0.28897 0.37213 0.73637 0.0
H2002 H 0.31093 0.39242 0.73965 0.0
H2003 H 0.29728 0.44166 0.74137 0.0
H2004 H 0.3605 0.49798 0.73233 0.0
H2005 H 0.33736 0.47886 0.73008 0.0
H2006 H 0.35061 0.4281 0.72233 0.0
C2007 C 0.29949 0.39571 0.73418 0.0
C2008 C 0.3089 0.43864 0.73717 0.0
C2009 C 0.28691 0.38408 0.73221 0.0
C2010 C 0.36246 0.48548 0.73429 0.0
C2011 C 0.34918 0.47451 0.73309 0.0
C2012 C 0.33914 0.4312 0.72679 0.0
C2013 C 0.29732 0.41142 0.72919 0.0
C2014 C 0.31096 0.42351 0.73064 0.0
C2015 C 0.35124 0.45812 0.73529 0.0
C2016 C 0.33724 0.44629 0.73358 0.0
H2017 H 0.2584 0.40698 0.7145 0.0
H2018 H 0.28031 0.42736 0.71837 0.0
H2019 H 0.32805 0.40844 0.72012 0.0
H2020 H 0.39203 0.45957 0.74263 0.0
H2021 H 0.36894 0.44059 0.7411 0.0
C2022 C 0.28136 0.65394 0.75548 0.0
C2023 C 0.26656 0.64883 0.76172 0.0
C2024 C 0.2939 0.64354 0.75464 0.0
C2025 C 0.30305 0.60102 0.75467 0.0
H2026 H 0.34642 0.6177 0.7666 0.0
C2027 C 0.35833 0.56131 0.75762 0.0
C2028 C 0.37235 0.56783 0.75083 0.0
C2029 C 0.34524 0.57078 0.76001 0.0
C2030 C 0.33441 0.61288 0.76312 0.0
H2031 H 0.25327 0.62866 0.77175 0.0
H2032 H 0.27519 0.61045 0.7702 0.0
H2033 H 0.32377 0.63486 0.76825 0.0
H2034 H 0.38367 0.58946 0.74146 0.0
H2035 H 0.36091 0.60585 0.74553 0.0
H2036 H 0.31377 0.57906 0.74938 0.0
C2037 C 0.27703 0.6225 0.76587 0.0
C2038 C 0.32142 0.62272 0.76404 0.0
C2039 C 0.26446 0.63293 0.76673 0.0
C2040 C 0.37308 0.58405 0.74675 0.0
C2041 C 0.36005 0.59349 0.74917 0.0
C2042 C 0.31607 0.59115 0.75373 0.0
C2043 C 0.29197 0.62776 0.76 0.0
C2044 C 0.30561 0.61698 0.75963 0.0
C2045 C 0.34593 0.58697 0.75574 0.0
C2046 C 0.33193 0.59704 0.75775 0.0
H2047 H 0.28327 0.66601 0.75123 0.0
H2048 H 0.30513 0.64787 0.74972 0.0
H2049 H 0.29103 0.59627 0.75107 0.0
H2050 H 0.35739 0.54886 0.7609 0.0
H2051 H 0.33459 0.56544 0.76525 0.0
C2052 C 0.89459 0.44716 0.46263 0.0
C2053 C 0.89641 0.4619 0.47061 0.0
C2054 C 0.88152 0.4366 0.46549 0.0
C2055 C 0.84035 0.43374 0.47911 0.0
H2056 H 0.85011 0.39035 0.48995 0.0
C2057 C 0.79171 0.38698 0.49981 0.0
C2058 C 0.79341 0.37102 0.49546 0.0
C2059 C 0.80373 0.39867 0.4965 0.0
C2060 C 0.84708 0.40233 0.48667 0.0
H2061 H 0.8858 0.47738 0.48748 0.0
H2062 H 0.86271 0.45893 0.49231 0.0
H2063 H 0.87196 0.40959 0.48433 0.0
H2064 H 0.80851 0.35493 0.48344 0.0
H2065 H 0.82899 0.37524 0.47709 0.0
H2066 H 0.81542 0.42641 0.48103 0.0
C2067 C 0.87148 0.45556 0.48393 0.0
C2068 C 0.85965 0.41336 0.48354 0.0
C2069 C 0.88472 0.46603 0.48125 0.0
C2070 C 0.80698 0.36709 0.48719 0.0
C2071 C 0.81881 0.37875 0.48365 0.0
C2072 C 0.8277 0.42261 0.48201 0.0
C2073 C 0.86988 0.44067 0.47621 0.0
C2074 C 0.85642 0.42914 0.47967 0.0
C2075 C 0.81757 0.39464 0.48857 0.0
C2076 C 0.8309 0.40672 0.48574 0.0
H2077 H 0.90348 0.44366 0.45443 0.0
H2078 H 0.88049 0.42522 0.45932 0.0
H2079 H 0.83756 0.44585 0.47608 0.0
H2080 H 0.78138 0.39034 0.50624 0.0
H2081 H 0.8024 0.41074 0.50058 0.0
C2082 C 0.74233 0.85424 0.78807 0.0
C2083 C 0.74312 0.84275 0.77599 0.0
C2084 C 0.73187 0.86671 0.78616 0.0
C2085 C 0.71504 0.89196 0.75633 0.0
H2086 H 0.68265 0.90169 0.7862 0.0
C2087 C 0.67725 0.94646 0.74605 0.0
C2088 C 0.67366 0.95533 0.75948 0.0
C2089 C 0.68315 0.93126 0.74777 0.0
C2090 C 0.69177 0.8993 0.77783 0.0
H2091 H 0.73371 0.83514 0.75253 0.0
H2092 H 0.7158 0.85735 0.74894 0.0
H2093 H 0.69843 0.87811 0.79025 0.0
H2094 H 0.6729 0.95521 0.78521 0.0
H2095 H 0.68403 0.92907 0.78841 0.0
H2096 H 0.7094 0.91345 0.74441 0.0
C2097 C 0.72305 0.85651 0.75996 0.0
C2098 C 0.7007 0.88573 0.78013 0.0
C2099 C 0.73323 0.84384 0.76202 0.0
C2100 C 0.67546 0.94852 0.77465 0.0
C2101 C 0.6818 0.93347 0.77644 0.0
C2102 C 0.70642 0.9057 0.75423 0.0
C2103 C 0.72234 0.86805 0.772 0.0
C2104 C 0.7124 0.88199 0.76939 0.0
C2105 C 0.68611 0.92478 0.76303 0.0
C2106 C 0.69465 0.90962 0.76495 0.0
H2107 H 0.74982 0.85357 0.79896 0.0
H2108 H 0.73158 0.87557 0.79553 0.0
H2109 H 0.72417 0.8894 0.74801 0.0
H2110 H 0.67578 0.95141 0.73419 0.0
H2111 H 0.68573 0.92478 0.7371 0.0
C2112 C 0.63337 0.53445 0.00506 0.0
C2113 C 0.62016 0.53885 0.99522 0.0
C2114 C 0.64642 0.54534 0.00852 0.0
C2115 C 0.65673 0.58807 0.01127 0.0
H2116 H 0.70079 0.57721 0.00455 0.0
C2117 C 0.70757 0.63643 0.00906 0.0
C2118 C 0.72304 0.63343 0.01558 0.0
C2119 C 0.69554 0.62425 0.00759 0.0
C2120 C 0.6886 0.58036 0.00676 0.0
H2121 H 0.61009 0.55807 0.98147 0.0
H2122 H 0.63274 0.57715 0.98769 0.0
H2123 H 0.6787 0.55698 0.00037 0.0
H2124 H 0.73802 0.61518 0.02559 0.0
H2125 H 0.71678 0.59387 0.02335 0.0
H2126 H 0.66643 0.61131 0.01783 0.0
C2127 C 0.63306 0.56527 0.99264 0.0
C2128 C 0.67596 0.56878 0.00431 0.0
C2129 C 0.62017 0.55434 0.989 0.0
C2130 C 0.72623 0.61787 0.02049 0.0
C2131 C 0.71407 0.60565 0.01915 0.0
C2132 C 0.66933 0.59955 0.0139 0.0
C2133 C 0.64631 0.56089 0.00243 0.0
C2134 C 0.65989 0.57265 0.00624 0.0
C2135 C 0.69853 0.60874 0.01276 0.0
C2136 C 0.6854 0.59598 0.01133 0.0
H2137 H 0.63369 0.52253 0.00992 0.0
H2138 H 0.65647 0.54169 0.01613 0.0
H2139 H 0.64447 0.59127 0.01311 0.0
H2140 H 0.70472 0.64821 0.00494 0.0
H2141 H 0.68389 0.62702 0.00221 0.0
C2142 C 0.25241 0.65016 0.23563 0.0
C2143 C 0.24914 0.66509 0.24198 0.0
C2144 C 0.24111 0.63732 0.23626 0.0
C2145 C 0.20641 0.62237 0.25857 0.0
H2146 H 0.20119 0.59165 0.22389 0.0
C2147 C 0.16408 0.56576 0.2619 0.0
C2148 C 0.17123 0.55158 0.25784 0.0
C2149 C 0.1715 0.58058 0.25836 0.0
C2150 C 0.20253 0.60012 0.23367 0.0
H2151 H 0.23132 0.67825 0.25385 0.0
H2152 H 0.21143 0.65585 0.25473 0.0
H2153 H 0.2181 0.61595 0.22078 0.0
H2154 H 0.1916 0.54189 0.24654 0.0
H2155 H 0.2044 0.56759 0.24028 0.0
H2156 H 0.19107 0.60638 0.27157 0.0
C2157 C 0.22284 0.65406 0.2494 0.0
C2158 C 0.21224 0.61402 0.23192 0.0
C2159 C 0.23417 0.66693 0.24877 0.0
C2160 C 0.18566 0.55253 0.24971 0.0
C2161 C 0.193 0.5673 0.24607 0.0
C2162 C 0.19665 0.60849 0.26031 0.0
C2163 C 0.22622 0.63908 0.24321 0.0
C2164 C 0.21459 0.62514 0.24447 0.0
C2165 C 0.18615 0.58149 0.25058 0.0
C2166 C 0.19489 0.59706 0.248 0.0
H2167 H 0.26372 0.64839 0.23011 0.0
H2168 H 0.24421 0.62591 0.23157 0.0
H2169 H 0.20808 0.6306 0.26854 0.0
H2170 H 0.15297 0.56544 0.26818 0.0
H2171 H 0.16588 0.59132 0.26186 0.0
C2172 C 0.8999 0.5322 0.0264 0.0
C2173 C 0.911 0.53315 0.03962 0.0
C2174 C 0.88757 0.54293 0.02479 0.0
C2175 C 0.87717 0.58283 0.03786 0.0
H2176 H 0.83311 0.56875 0.02535 0.0
C2177 C 0.82476 0.62378 0.04422 0.0
C2178 C 0.81271 0.62397 0.03188 0.0
C2179 C 0.83635 0.61233 0.04445 0.0
C2180 C 0.84539 0.57289 0.02865 0.0
H2181 H 0.91789 0.54614 0.06147 0.0
H2182 H 0.89631 0.56471 0.05875 0.0
H2183 H 0.85418 0.5494 0.02705 0.0
H2184 H 0.80321 0.61203 0.01021 0.0
H2185 H 0.82366 0.59201 0.01054 0.0
H2186 H 0.86851 0.60627 0.03948 0.0
C2187 C 0.89719 0.55574 0.04957 0.0
C2188 C 0.85745 0.56182 0.02964 0.0
C2189 C 0.90944 0.54499 0.05122 0.0
C2190 C 0.81234 0.61221 0.01989 0.0
C2191 C 0.82401 0.60071 0.02011 0.0
C2192 C 0.86517 0.59388 0.03683 0.0
C2193 C 0.88617 0.5549 0.0363 0.0
C2194 C 0.87343 0.56665 0.03447 0.0
C2195 C 0.83626 0.60077 0.03231 0.0
C2196 C 0.84909 0.58902 0.03245 0.0
H2197 H 0.90071 0.52311 0.01733 0.0
H2198 H 0.87931 0.54203 0.01439 0.0
H2199 H 0.88943 0.58699 0.04128 0.0
H2200 H 0.82533 0.63257 0.05373 0.0
H2201 H 0.84538 0.61252 0.05422 0.0
C2202 C 0.09296 0.94559 0.00707 0.0
C2203 C 0.09311 0.9604 0.99935 0.0
C2204 C 0.10523 0.93514 0.00488 0.0
C2205 C 0.14755 0.93425 0.99534 0.0
H2206 H 0.13749 0.88905 0.98888 0.0
C2207 C 0.19764 0.88876 0.99213 0.0
C2208 C 0.19486 0.87454 0.00058 0.0
C2209 C 0.18522 0.8993 0.98954 0.0
C2210 C 0.14053 0.90162 0.99079 0.0
H2211 H 0.10617 0.9759 0.98329 0.0
H2212 H 0.1278 0.95762 0.97958 0.0
H2213 H 0.11565 0.90738 0.98911 0.0
H2214 H 0.17682 0.86019 0.01278 0.0
H2215 H 0.15548 0.87855 0.00858 0.0
H2216 H 0.17239 0.92846 0.99767 0.0
C2217 C 0.11812 0.95412 0.98726 0.0
C2218 C 0.12801 0.91211 0.99087 0.0
C2219 C 0.10572 0.9645 0.98929 0.0
C2220 C 0.17939 0.871 0.00617 0.0
C2221 C 0.16707 0.8815 0.00364 0.0
C2222 C 0.1601 0.92373 0.99541 0.0
C2223 C 0.118 0.93935 0.99506 0.0
C2224 C 0.13137 0.92848 0.99344 0.0
C2225 C 0.16981 0.89582 0.99535 0.0
C2226 C 0.15671 0.90724 0.99347 0.0
H2227 H 0.08333 0.9421 0.01481 0.0
H2228 H 0.10491 0.92389 0.01116 0.0
H2229 H 0.15048 0.94681 0.99745 0.0
H2230 H 0.20942 0.8918 0.98764 0.0
H2231 H 0.1877 0.91015 0.98297 0.0
loop_
_geom_bond_atom_site_label_1
_geom_bond_atom_site_label_2
_geom_bond_distance
_geom_bond_site_symmetry_2
_ccdc_geom_bond_type
C0 C1 1.386 . S
C0 C2 1.397 . S
C0 H24 0.931 . S
C1 C0 1.386 . S
C1 C5 1.397 1_556 S
C2 C0 1.397 . S
C2 C3 1.384 1_556 S
C2 H25 0.930 . S
C3 C2 1.384 1_554 S
C3 C4 1.377 . S
C3 C6 1.481 . S
C4 C3 1.377 . S
C4 C5 1.389 . S
C4 H26 0.929 . S
C5 C1 1.397 1_554 S
C5 C4 1.389 . S
C5 H27 0.931 . S
C6 C3 1.481 . S
C6 C7 1.387 . S
C6 C11 1.390 . S
C7 C6 1.387 . S
C7 C8 1.401 . S
C7 H28 0.930 . S
C8 C7 1.401 . S
C8 C9 1.376 . S
C8 C17 1.511 . S
C9 C8 1.376 . S
C9 C10 1.392 . S
C9 H30 0.931 . S
C10 C9 1.392 . S
C10 C11 1.361 . S
C10 C12 1.500 . S
C11 C6 1.390 . S
C11 C10 1.361 . S
C11 H29 0.931 . S
C12 C10 1.500 . S
C12 C13 1.371 . S
C12 C14 1.365 . S
C13 C12 1.371 . S
C13 C23 1.405 . S
C13 H31 0.931 . S
C14 C12 1.365 . S
C14 C15 1.409 1_455 S
C14 H32 0.929 . S
C15 C14 1.409 1_655 S
C15 C16 1.380 . S
C15 H33 0.930 . S
C16 C15 1.380 . S
C16 C23 1.345 1_655 S
C17 C8 1.511 . S
C17 C18 1.341 . S
C17 C19 1.371 . S
C18 C17 1.341 . S
C18 C22 1.394 . S
C18 H34 0.965 . S
C19 C17 1.371 . S
C19 C20 1.392 1_545 S
C19 H35 0.931 . S
C20 C19 1.392 1_565 S
C20 C21 1.331 . S
C20 H38 0.932 . S
C21 C20 1.331 . S
C21 C22 1.336 1_565 S
C22 C18 1.394 . S
C22 C21 1.336 1_545 S
C22 H37 0.929 1_554 S
C23 C13 1.405 . S
C23 C16 1.345 1_455 S
C23 H36 0.922 1_455 S
H24 C0 0.931 . S
H25 C2 0.930 . S
H26 C4 0.929 . S
H27 C5 0.931 . S
H28 C7 0.930 . S
H29 C11 0.931 . S
H30 C9 0.931 . S
H31 C13 0.931 . S
H32 C14 0.929 . S
H33 C15 0.930 . S
H34 C18 0.965 . S
H35 C19 0.931 . S
H36 C23 0.922 1_655 S
H37 C22 0.929 1_556 S
H38 C20 0.932 . S
C39 C40 1.386 . S
C39 C41 1.397 . S
C39 H63 0.931 . S
C40 C39 1.386 . S
C40 C44 1.397 . S
C41 C39 1.397 . S
C41 C42 1.384 . S
C41 H64 0.930 . S
C42 C41 1.384 . S
C42 C43 1.377 . S
C42 C45 1.481 . S
C43 C42 1.377 . S
C43 C44 1.389 . S
C43 H65 0.929 . S
C44 C40 1.397 . S
C44 C43 1.389 . S
C44 H66 0.931 . S
C45 C42 1.481 . S
C45 C46 1.387 . S
C45 C50 1.390 . S
C46 C45 1.387 . S
C46 C47 1.401 . S
C46 H67 0.930 . S
C47 C46 1.401 . S
C47 C48 1.376 . S
C47 C56 1.511 . S
C48 C47 1.376 . S
C48 C49 1.392 . S
C48 H69 0.931 . S
C49 C48 1.392 . S
C49 C50 1.361 . S
C49 C51 1.500 . S
C50 C45 1.390 . S
C50 C49 1.361 . S
C50 H68 0.931 . S
C51 C49 1.500 . S
C51 C52 1.371 . S
C51 C53 1.365 . S
C52 C51 1.371 . S
C52 C62 1.386 . S
C52 H70 0.931 . S
C53 C51 1.365 . S
C53 C54 1.409 . S
C53 H71 0.929 . S
C54 C53 1.409 . S
C54 C55 1.380 . S
C54 H72 0.930 . S
C55 C54 1.380 . S
C55 C62 1.357 . S
C56 C47 1.511 . S
C56 C57 1.341 . S
C56 C58 1.371 . S
C57 C56 1.341 . S
C57 C61 1.394 . S
C57 H73 0.930 . S
C58 C56 1.371 . S
C58 C59 1.392 . S
C58 H74 0.931 . S
C59 C58 1.392 . S
C59 C60 1.331 . S
C59 H77 0.932 . S
C60 C59 1.331 . S
C60 C61 1.336 . S
C61 C57 1.394 . S
C61 C60 1.336 . S
C61 H76 0.929 . S
C62 C52 1.386 . S
C62 C55 1.357 . S
C62 H75 0.928 . S
H63 C39 0.931 . S
H64 C41 0.930 . S
H65 C43 0.929 . S
H66 C44 0.931 . S
H67 C46 0.930 . S
H68 C50 0.931 . S
H69 C48 0.931 . S
H70 C52 0.931 . S
H71 C53 0.929 . S
H72 C54 0.930 . S
H73 C57 0.930 . S
H74 C58 0.931 . S
H75 C62 0.928 . S
H76 C61 0.929 . S
H77 C59 0.932 . S
C78 C79 1.386 . S
C78 C80 1.397 1_455 S
C78 H102 0.917 1_455 S
C79 C78 1.386 . S
C79 C83 1.397 . S
C80 C78 1.397 1_655 S
C80 C81 1.409 . S
C80 H103 0.930 . S
C81 C80 1.409 . S
C81 C82 1.319 1_655 S
C81 C84 1.514 . S
C82 C81 1.319 1_455 S
C82 C83 1.389 . S
C82 H104 0.929 . S
C83 C79 1.397 . S
C83 C82 1.389 . S
C83 H105 0.931 . S
C84 C81 1.514 . S
C84 C85 1.387 . S
C84 C89 1.390 . S
C85 C84 1.387 . S
C85 C86 1.401 . S
C85 H106 0.930 . S
C86 C85 1.401 . S
C86 C87 1.376 . S
C86 C95 1.511 . S
C87 C86 1.376 . S
C87 C88 1.392 . S
C87 H108 0.931 . S
C88 C87 1.392 . S
C88 C89 1.361 . S
C88 C90 1.500 . S
C89 C84 1.390 . S
C89 C88 1.361 . S
C89 H107 0.931 . S
C90 C88 1.500 . S
C90 C91 1.371 . S
C90 C92 1.428 . S
C91 C90 1.371 . S
C91 C101 1.386 . S
C91 H109 0.931 . S
C92 C90 1.428 . S
C92 C93 1.395 1_655 S
C92 H110 0.882 1_655 S
C93 C92 1.395 1_455 S
C93 C94 1.380 1_455 S
C93 H111 0.930 . S
C94 C93 1.380 1_655 S
C94 C101 1.357 . S
C95 C86 1.511 . S
C95 C96 1.341 . S
C95 C97 1.371 . S
C96 C95 1.341 . S
C96 C100 1.394 . S
C96 H112 0.930 . S
C97 C95 1.371 . S
C97 C98 1.392 . S
C97 H113 0.931 . S
C98 C97 1.392 . S
C98 C99 1.331 . S
C98 H116 0.932 . S
C99 C98 1.331 . S
C99 C100 1.336 . S
C100 C96 1.394 . S
C100 C99 1.336 . S
C100 H115 0.929 . S
C101 C91 1.386 . S
C101 C94 1.357 . S
C101 H114 0.918 1_554 S
H102 C78 0.917 1_655 S
H103 C80 0.930 . S
H104 C82 0.929 . S
H105 C83 0.931 . S
H106 C85 0.930 . S
H107 C89 0.931 . S
H108 C87 0.931 . S
H109 C91 0.931 . S
H110 C92 0.882 1_455 S
H111 C93 0.930 . S
H112 C96 0.930 . S
H113 C97 0.931 . S
H114 C101 0.918 1_556 S
H115 C100 0.929 . S
H116 C98 0.932 . S
C117 C118 1.386 . S
C117 C119 1.397 . S
C117 H141 0.931 . S
C118 C117 1.386 . S
C118 C122 1.397 . S
C119 C117 1.397 . S
C119 C120 1.384 . S
C119 H142 0.930 . S
C120 C119 1.384 . S
C120 C121 1.377 . S
C120 C123 1.481 . S
C121 C120 1.377 . S
C121 C122 1.389 . S
C121 H143 0.929 . S
C122 C118 1.397 . S
C122 C121 1.389 . S
C122 H144 0.931 . S
C123 C120 1.481 . S
C123 C124 1.387 . S
C123 C128 1.390 . S
C124 C123 1.387 . S
C124 C125 1.401 . S
C124 H145 0.930 . S
C125 C124 1.401 . S
C125 C126 1.376 . S
C125 C134 1.511 . S
C126 C125 1.376 . S
C126 C127 1.392 . S
C126 H147 0.931 . S
C127 C126 1.392 . S
C127 C128 1.361 . S
C127 C129 1.500 . S
C128 C123 1.390 . S
C128 C127 1.361 . S
C128 H146 0.931 . S
C129 C127 1.500 . S
C129 C130 1.371 . S
C129 C131 1.365 . S
C130 C129 1.371 . S
C130 C140 1.386 . S
C130 H148 0.931 . S
C131 C129 1.365 . S
C131 C132 1.409 . S
C131 H149 0.929 . S
C132 C131 1.409 . S
C132 C133 1.380 . S
C132 H150 0.930 . S
C133 C132 1.380 . S
C133 C140 1.357 . S
C134 C125 1.511 . S
C134 C135 1.341 . S
C134 C136 1.371 . S
C135 C134 1.341 . S
C135 C139 1.394 . S
C135 H151 0.930 . S
C136 C134 1.371 . S
C136 C137 1.392 . S
C136 H152 0.931 . S
C137 C136 1.392 . S
C137 C138 1.331 . S
C137 H155 0.932 . S
C138 C137 1.331 . S
C138 C139 1.336 . S
C139 C135 1.394 . S
C139 C138 1.336 . S
C139 H154 0.929 . S
C140 C130 1.386 . S
C140 C133 1.357 . S
C140 H153 0.928 . S
H141 C117 0.931 . S
H142 C119 0.930 . S
H143 C121 0.929 . S
H144 C122 0.931 . S
H145 C124 0.930 . S
H146 C128 0.931 . S
H147 C126 0.931 . S
H148 C130 0.931 . S
H149 C131 0.929 . S
H150 C132 0.930 . S
H151 C135 0.930 . S
H152 C136 0.931 . S
H153 C140 0.928 . S
H154 C139 0.929 . S
H155 C137 0.932 . S
C156 C157 1.386 . S
C156 C158 1.397 . S
C156 H180 0.931 1_455 S
C157 C156 1.386 . S
C157 C161 1.397 . S
C158 C156 1.397 . S
C158 C159 1.384 . S
C158 H181 0.930 . S
C159 C158 1.384 . S
C159 C160 1.377 . S
C159 C162 1.481 . S
C160 C159 1.377 . S
C160 C161 1.389 . S
C160 H182 0.929 . S
C161 C157 1.397 . S
C161 C160 1.389 . S
C161 H183 0.931 . S
C162 C159 1.481 . S
C162 C163 1.387 . S
C162 C167 1.390 . S
C163 C162 1.387 . S
C163 C164 1.401 . S
C163 H184 0.930 . S
C164 C163 1.401 . S
C164 C165 1.376 . S
C164 C173 1.511 . S
C165 C164 1.376 . S
C165 C166 1.392 . S
C165 H186 0.931 . S
C166 C165 1.392 . S
C166 C167 1.361 . S
C166 C168 1.500 . S
C167 C162 1.390 . S
C167 C166 1.361 . S
C167 H185 0.931 . S
C168 C166 1.500 . S
C168 C169 1.371 . S
C168 C170 1.358 1_565 S
C169 C168 1.371 . S
C169 C179 1.386 1_565 S
C169 H187 0.931 . S
C170 C168 1.358 1_545 S
C170 C171 1.419 . S
C170 H188 0.926 1_545 S
C171 C170 1.419 . S
C171 C172 1.380 . S
C171 H189 0.930 . S
C172 C171 1.380 . S
C172 C179 1.357 . S
C173 C164 1.511 . S
C173 C174 1.341 . S
C173 C175 1.371 . S
C174 C173 1.341 . S
C174 C178 1.394 . S
C174 H190 0.930 . S
C175 C173 1.371 . S
C175 C176 1.392 . S
C175 H191 0.931 . S
C176 C175 1.392 . S
C176 C177 1.331 . S
C176 H194 0.932 . S
C177 C176 1.331 . S
C177 C178 1.336 . S
C178 C174 1.394 . S
C178 C177 1.336 . S
C178 H193 0.929 . S
C179 C169 1.386 1_545 S
C179 C172 1.357 . S
C179 H192 0.928 . S
H180 C156 0.931 1_655 S
H181 C158 0.930 . S
H182 C160 0.929 . S
H183 C161 0.931 . S
H184 C163 0.930 . S
H185 C167 0.931 . S
H186 C165 0.931 . S
H187 C169 0.931 . S
H188 C170 0.926 1_565 S
H189 C171 0.930 . S
H190 C174 0.930 . S
H191 C175 0.931 . S
H192 C179 0.928 . S
H193 C178 0.929 . S
H194 C176 0.932 . S
C195 C196 1.386 . S
C195 C197 1.397 . S
C195 H219 0.931 . S
C196 C195 1.386 . S
C196 C200 1.397 . S
C197 C195 1.397 . S
C197 C198 1.384 . S
C197 H220 0.930 . S
C198 C197 1.384 . S
C198 C199 1.377 . S
C198 C201 1.481 . S
C199 C198 1.377 . S
C199 C200 1.389 . S
C199 H221 0.929 . S
C200 C196 1.397 . S
C200 C199 1.389 . S
C200 H222 0.931 . S
C201 C198 1.481 . S
C201 C202 1.387 . S
C201 C206 1.390 . S
C202 C201 1.387 . S
C202 C203 1.401 . S
C202 H223 0.930 . S
C203 C202 1.401 . S
C203 C204 1.376 . S
C203 C212 1.511 . S
C204 C203 1.376 . S
C204 C205 1.392 . S
C204 H225 0.931 . S
C205 C204 1.392 . S
C205 C206 1.361 . S
C205 C207 1.500 . S
C206 C201 1.390 . S
C206 C205 1.361 . S
C206 H224 0.931 . S
C207 C205 1.500 . S
C207 C208 1.371 . S
C207 C209 1.365 . S
C208 C207 1.371 . S
C208 C218 1.386 . S
C208 H226 0.931 . S
C209 C207 1.365 . S
C209 C210 1.409 . S
C209 H227 0.929 . S
C210 C209 1.409 . S
C210 C211 1.380 . S
C210 H228 0.930 . S
C211 C210 1.380 . S
C211 C218 1.357 . S
C212 C203 1.511 . S
C212 C213 1.341 . S
C212 C214 1.371 . S
C213 C212 1.341 . S
C213 C217 1.394 . S
C213 H229 0.930 . S
C214 C212 1.371 . S
C214 C215 1.392 . S
C214 H230 0.931 . S
C215 C214 1.392 . S
C215 C216 1.331 . S
C215 H233 0.932 . S
C216 C215 1.331 . S
C216 C217 1.336 . S
C217 C213 1.394 . S
C217 C216 1.336 . S
C217 H232 0.929 . S
C218 C208 1.386 . S
C218 C211 1.357 . S
C218 H231 0.928 . S
H219 C195 0.931 . S
H220 C197 0.930 . S
H221 C199 0.929 . S
H222 C200 0.931 . S
H223 C202 0.930 . S
H224 C206 0.931 . S
H225 C204 0.931 . S
H226 C208 0.931 . S
H227 C209 0.929 . S
H228 C210 0.930 . S
H229 C213 0.930 . S
H230 C214 0.931 . S
H231 C218 0.928 . S
H232 C217 0.929 . S
H233 C215 0.932 . S
C234 C235 1.386 . S
C234 C236 1.397 . S
C234 H258 0.931 . S
C235 C234 1.386 . S
C235 C239 1.397 . S
C236 C234 1.397 . S
C236 C237 1.384 . S
C236 H259 0.930 . S
C237 C236 1.384 . S
C237 C238 1.377 . S
C237 C240 1.481 . S
C238 C237 1.377 . S
C238 C239 1.389 . S
C238 H260 0.929 . S
C239 C235 1.397 . S
C239 C238 1.389 . S
C239 H261 0.931 . S
C240 C237 1.481 . S
C240 C241 1.387 . S
C240 C245 1.390 . S
C241 C240 1.387 . S
C241 C242 1.401 . S
C241 H262 0.930 . S
C242 C241 1.401 . S
C242 C243 1.376 . S
C242 C251 1.511 . S
C243 C242 1.376 . S
C243 C244 1.392 . S
C243 H264 0.931 . S
C244 C243 1.392 . S
C244 C245 1.361 . S
C244 C246 1.500 . S
C245 C240 1.390 . S
C245 C244 1.361 . S
C245 H263 0.931 . S
C246 C244 1.500 . S
C246 C247 1.371 . S
C246 C248 1.365 . S
C247 C246 1.371 . S
C247 C257 1.386 . S
C247 H265 0.931 . S
C248 C246 1.365 . S
C248 C249 1.409 . S
C248 H266 0.929 . S
C249 C248 1.409 . S
C249 C250 1.380 . S
C249 H267 0.930 . S
C250 C249 1.380 . S
C250 C257 1.357 . S
C251 C242 1.511 . S
C251 C252 1.359 . S
C251 C253 1.371 . S
C252 C251 1.359 . S
C252 C256 1.373 1_655 S
C252 H268 0.927 . S
C253 C251 1.371 . S
C253 C254 1.392 1_655 S
C253 H269 0.931 . S
C254 C253 1.392 1_455 S
C254 C255 1.331 . S
C254 H272 0.932 . S
C255 C254 1.331 . S
C255 C256 1.336 . S
C256 C252 1.373 1_455 S
C256 C255 1.336 . S
C256 H271 0.929 . S
C257 C247 1.386 . S
C257 C250 1.357 . S
C257 H270 0.928 . S
H258 C234 0.931 . S
H259 C236 0.930 . S
H260 C238 0.929 . S
H261 C239 0.931 . S
H262 C241 0.930 . S
H263 C245 0.931 . S
H264 C243 0.931 . S
H265 C247 0.931 . S
H266 C248 0.929 . S
H267 C249 0.930 . S
H268 C252 0.927 . S
H269 C253 0.931 . S
H270 C257 0.928 . S
H271 C256 0.929 . S
H272 C254 0.932 . S
C273 C274 1.386 . S
C273 C275 1.397 . S
C273 H297 0.931 . S
C274 C273 1.386 . S
C274 C278 1.397 . S
C275 C273 1.397 . S
C275 C276 1.384 . S
C275 H298 0.930 . S
C276 C275 1.384 . S
C276 C277 1.377 . S
C276 C279 1.481 . S
C277 C276 1.377 . S
C277 C278 1.389 . S
C277 H299 0.929 . S
C278 C274 1.397 . S
C278 C277 1.389 . S
C278 H300 0.931 . S
C279 C276 1.481 . S
C279 C280 1.387 . S
C279 C284 1.390 . S
C280 C279 1.387 . S
C280 C281 1.401 . S
C280 H301 0.930 . S
C281 C280 1.401 . S
C281 C282 1.376 . S
C281 C290 1.511 . S
C282 C281 1.376 . S
C282 C283 1.392 . S
C282 H303 0.931 . S
C283 C282 1.392 . S
C283 C284 1.361 . S
C283 C285 1.500 . S
C284 C279 1.390 . S
C284 C283 1.361 . S
C284 H302 0.931 . S
C285 C283 1.500 . S
C285 C286 1.371 . S
C285 C287 1.365 . S
C286 C285 1.371 . S
C286 C296 1.386 . S
C286 H304 0.931 . S
C287 C285 1.365 . S
C287 C288 1.409 . S
C287 H305 0.929 . S
C288 C287 1.409 . S
C288 C289 1.380 . S
C288 H306 0.930 . S
C289 C288 1.380 . S
C289 C296 1.357 . S
C290 C281 1.511 . S
C290 C291 1.341 . S
C290 C292 1.371 . S
C291 C290 1.341 . S
C291 C295 1.394 . S
C291 H307 0.930 . S
C292 C290 1.371 . S
C292 C293 1.392 . S
C292 H308 0.931 . S
C293 C292 1.392 . S
C293 C294 1.331 . S
C293 H311 0.932 . S
C294 C293 1.331 . S
C294 C295 1.336 . S
C295 C291 1.394 . S
C295 C294 1.336 . S
C295 H310 0.929 . S
C296 C286 1.386 . S
C296 C289 1.357 . S
C296 H309 0.928 . S
H297 C273 0.931 . S
H298 C275 0.930 . S
H299 C277 0.929 . S
H300 C278 0.931 . S
H301 C280 0.930 . S
H302 C284 0.931 . S
H303 C282 0.931 . S
H304 C286 0.931 . S
H305 C287 0.929 . S
H306 C288 0.930 . S
H307 C291 0.930 . S
H308 C292 0.931 . S
H309 C296 0.928 . S
H310 C295 0.929 . S
H311 C293 0.932 . S
C312 C313 1.386 . S
C312 C314 1.397 . S
C312 H336 0.931 . S
C313 C312 1.386 . S
C313 C317 1.397 . S
C314 C312 1.397 . S
C314 C315 1.384 . S
C314 H337 0.930 . S
C315 C314 1.384 . S
C315 C316 1.377 . S
C315 C318 1.481 . S
C316 C315 1.377 . S
C316 C317 1.389 . S
C316 H338 0.929 . S
C317 C313 1.397 . S
C317 C316 1.389 . S
C317 H339 0.931 . S
C318 C315 1.481 . S
C318 C319 1.387 . S
C318 C323 1.390 . S
C319 C318 1.387 . S
C319 C320 1.401 . S
C319 H340 0.930 . S
C320 C319 1.401 . S
C320 C321 1.376 . S
C320 C329 1.511 . S
C321 C320 1.376 . S
C321 C322 1.392 . S
C321 H342 0.931 . S
C322 C321 1.392 . S
C322 C323 1.361 . S
C322 C324 1.500 . S
C323 C318 1.390 . S
C323 C322 1.361 . S
C323 H341 0.931 . S
C324 C322 1.500 . S
C324 C325 1.371 . S
C324 C326 1.365 . S
C325 C324 1.371 . S
C325 C335 1.386 . S
C325 H343 0.931 . S
C326 C324 1.365 . S
C326 C327 1.409 . S
C326 H344 0.929 . S
C327 C326 1.409 . S
C327 C328 1.380 . S
C327 H345 0.930 . S
C328 C327 1.380 . S
C328 C335 1.357 . S
C329 C320 1.511 . S
C329 C330 1.341 . S
C329 C331 1.371 . S
C330 C329 1.341 . S
C330 C334 1.394 . S
C330 H346 0.930 . S
C331 C329 1.371 . S
C331 C332 1.392 . S
C331 H347 0.931 . S
C332 C331 1.392 . S
C332 C333 1.331 . S
C332 H350 0.932 . S
C333 C332 1.331 . S
C333 C334 1.336 . S
C334 C330 1.394 . S
C334 C333 1.336 . S
C334 H349 0.929 . S
C335 C325 1.386 . S
C335 C328 1.357 . S
C335 H348 0.928 . S
H336 C312 0.931 . S
H337 C314 0.930 . S
H338 C316 0.929 . S
H339 C317 0.931 . S
H340 C319 0.930 . S
H341 C323 0.931 . S
H342 C321 0.931 . S
H343 C325 0.931 . S
H344 C326 0.929 . S
H345 C327 0.930 . S
H346 C330 0.930 . S
H347 C331 0.931 . S
H348 C335 0.928 . S
H349 C334 0.929 . S
H350 C332 0.932 . S
C351 C352 1.386 . S
C351 C353 1.397 . S
C351 H375 0.931 . S
C352 C351 1.386 . S
C352 C356 1.397 . S
C353 C351 1.397 . S
C353 C354 1.384 . S
C353 H376 0.930 . S
C354 C353 1.384 . S
C354 C355 1.377 . S
C354 C357 1.481 . S
C355 C354 1.377 . S
C355 C356 1.389 . S
C355 H377 0.929 . S
C356 C352 1.397 . S
C356 C355 1.389 . S
C356 H378 0.931 . S
C357 C354 1.481 . S
C357 C358 1.387 . S
C357 C362 1.390 . S
C358 C357 1.387 . S
C358 C359 1.401 . S
C358 H379 0.930 . S
C359 C358 1.401 . S
C359 C360 1.376 . S
C359 C368 1.511 . S
C360 C359 1.376 . S
C360 C361 1.392 . S
C360 H381 0.931 . S
C361 C360 1.392 . S
C361 C362 1.361 . S
C361 C363 1.500 . S
C362 C357 1.390 . S
C362 C361 1.361 . S
C362 H380 0.931 . S
C363 C361 1.500 . S
C363 C364 1.371 . S
C363 C365 1.365 . S
C364 C363 1.371 . S
C364 C374 1.386 . S
C364 H382 0.931 . S
C365 C363 1.365 . S
C365 C366 1.409 . S
C365 H383 0.929 . S
C366 C365 1.409 . S
C366 C367 1.380 . S
C366 H384 0.930 . S
C367 C366 1.380 . S
C367 C374 1.357 . S
C368 C359 1.511 . S
C368 C369 1.341 . S
C368 C370 1.371 . S
C369 C368 1.341 . S
C369 C373 1.394 1_565 S
C369 H385 0.930 . S
C370 C368 1.371 . S
C370 C371 1.397 . S
C370 H386 0.931 . S
C371 C370 1.397 . S
C371 C372 1.327 1_565 S
C371 H389 0.925 1_565 S
C372 C371 1.327 1_545 S
C372 C373 1.336 . S
C373 C369 1.394 1_545 S
C373 C372 1.336 . S
C373 H388 0.929 . S
C374 C364 1.386 . S
C374 C367 1.357 . S
C374 H387 0.928 . S
H375 C351 0.931 . S
H376 C353 0.930 . S
H377 C355 0.929 . S
H378 C356 0.931 . S
H379 C358 0.930 . S
H380 C362 0.931 . S
H381 C360 0.931 . S
H382 C364 0.931 . S
H383 C365 0.929 . S
H384 C366 0.930 . S
H385 C369 0.930 . S
H386 C370 0.931 . S
H387 C374 0.928 . S
H388 C373 0.929 . S
H389 C371 0.925 1_545 S
C390 C391 1.386 . S
C390 C392 1.397 . S
C390 H414 0.931 . S
C391 C390 1.386 . S
C391 C395 1.397 . S
C392 C390 1.397 . S
C392 C393 1.384 . S
C392 H415 0.930 . S
C393 C392 1.384 . S
C393 C394 1.377 . S
C393 C396 1.481 . S
C394 C393 1.377 . S
C394 C395 1.389 . S
C394 H416 0.929 . S
C395 C391 1.397 . S
C395 C394 1.389 . S
C395 H417 0.931 . S
C396 C393 1.481 . S
C396 C397 1.387 . S
C396 C401 1.390 . S
C397 C396 1.387 . S
C397 C398 1.401 . S
C397 H418 0.930 . S
C398 C397 1.401 . S
C398 C399 1.376 . S
C398 C407 1.511 . S
C399 C398 1.376 . S
C399 C400 1.392 . S
C399 H420 0.931 . S
C400 C399 1.392 . S
C400 C401 1.361 . S
C400 C402 1.500 . S
C401 C396 1.390 . S
C401 C400 1.361 . S
C401 H419 0.931 . S
C402 C400 1.500 . S
C402 C403 1.371 . S
C402 C404 1.365 . S
C403 C402 1.371 . S
C403 C413 1.386 . S
C403 H421 0.931 . S
C404 C402 1.365 . S
C404 C405 1.409 . S
C404 H422 0.929 . S
C405 C404 1.409 . S
C405 C406 1.380 . S
C405 H423 0.930 . S
C406 C405 1.380 . S
C406 C413 1.357 . S
C407 C398 1.511 . S
C407 C408 1.341 . S
C407 C409 1.371 . S
C408 C407 1.341 . S
C408 C412 1.394 . S
C408 H424 0.930 . S
C409 C407 1.371 . S
C409 C410 1.392 . S
C409 H425 0.931 . S
C410 C409 1.392 . S
C410 C411 1.331 . S
C410 H428 0.932 . S
C411 C410 1.331 . S
C411 C412 1.336 . S
C412 C408 1.394 . S
C412 C411 1.336 . S
C412 H427 0.929 . S
C413 C403 1.386 . S
C413 C406 1.357 . S
C413 H426 0.928 . S
H414 C390 0.931 . S
H415 C392 0.930 . S
H416 C394 0.929 . S
H417 C395 0.931 . S
H418 C397 0.930 . S
H419 C401 0.931 . S
H420 C399 0.931 . S
H421 C403 0.931 . S
H422 C404 0.929 . S
H423 C405 0.930 . S
H424 C408 0.930 . S
H425 C409 0.931 . S
H426 C413 0.928 . S
H427 C412 0.929 . S
H428 C410 0.932 . S
C429 C430 1.386 . S
C429 C431 1.397 . S
C429 H453 0.931 . S
C430 C429 1.386 . S
C430 C434 1.397 . S
C431 C429 1.397 . S
C431 C432 1.384 . S
C431 H454 0.930 . S
C432 C431 1.384 . S
C432 C433 1.377 . S
C432 C435 1.481 . S
C433 C432 1.377 . S
C433 C434 1.389 . S
C433 H455 0.929 . S
C434 C430 1.397 . S
C434 C433 1.389 . S
C434 H456 0.931 . S
C435 C432 1.481 . S
C435 C436 1.387 . S
C435 C440 1.390 . S
C436 C435 1.387 . S
C436 C437 1.401 . S
C436 H457 0.930 . S
C437 C436 1.401 . S
C437 C438 1.376 . S
C437 C446 1.511 . S
C438 C437 1.376 . S
C438 C439 1.392 . S
C438 H459 0.931 . S
C439 C438 1.392 . S
C439 C440 1.361 . S
C439 C441 1.500 . S
C440 C435 1.390 . S
C440 C439 1.361 . S
C440 H458 0.931 . S
C441 C439 1.500 . S
C441 C442 1.371 . S
C441 C443 1.365 . S
C442 C441 1.371 . S
C442 C452 1.386 . S
C442 H460 0.931 . S
C443 C441 1.365 . S
C443 C444 1.409 . S
C443 H461 0.929 . S
C444 C443 1.409 . S
C444 C445 1.380 . S
C444 H462 0.930 . S
C445 C444 1.380 . S
C445 C452 1.357 . S
C446 C437 1.511 . S
C446 C447 1.341 . S
C446 C448 1.371 . S
C447 C446 1.341 . S
C447 C451 1.394 . S
C447 H463 0.930 . S
C448 C446 1.371 . S
C448 C449 1.392 . S
C448 H464 0.931 . S
C449 C448 1.392 . S
C449 C450 1.331 . S
C449 H467 0.932 . S
C450 C449 1.331 . S
C450 C451 1.336 . S
C451 C447 1.394 . S
C451 C450 1.336 . S
C451 H466 0.929 . S
C452 C442 1.386 . S
C452 C445 1.357 . S
C452 H465 0.928 . S
H453 C429 0.931 . S
H454 C431 0.930 . S
H455 C433 0.929 . S
H456 C434 0.931 . S
H457 C436 0.930 . S
H458 C440 0.931 . S
H459 C438 0.931 . S
H460 C442 0.931 . S
H461 C443 0.929 . S
H462 C444 0.930 . S
H463 C447 0.930 . S
H464 C448 0.931 . S
H465 C452 0.928 . S
H466 C451 0.929 . S
H467 C449 0.932 . S
C468 C469 1.386 . S
C468 C470 1.397 . S
C468 H492 0.931 . S
C469 C468 1.386 . S
C469 C473 1.397 . S
C470 C468 1.397 . S
C470 C471 1.384 . S
C470 H493 0.930 . S
C471 C470 1.384 . S
C471 C472 1.377 . S
C471 C474 1.481 . S
C472 C471 1.377 . S
C472 C473 1.389 . S
C472 H494 0.929 . S
C473 C469 1.397 . S
C473 C472 1.389 . S
C473 H495 0.931 . S
C474 C471 1.481 . S
C474 C475 1.387 . S
C474 C479 1.390 . S
C475 C474 1.387 . S
C475 C476 1.401 . S
C475 H496 0.930 . S
C476 C475 1.401 . S
C476 C477 1.376 . S
C476 C485 1.511 . S
C477 C476 1.376 . S
C477 C478 1.392 . S
C477 H498 0.931 . S
C478 C477 1.392 . S
C478 C479 1.361 . S
C478 C480 1.500 . S
C479 C474 1.390 . S
C479 C478 1.361 . S
C479 H497 0.931 . S
C480 C478 1.500 . S
C480 C481 1.371 . S
C480 C482 1.365 . S
C481 C480 1.371 . S
C481 C491 1.386 . S
C481 H499 0.931 . S
C482 C480 1.365 . S
C482 C483 1.409 . S
C482 H500 0.929 . S
C483 C482 1.409 . S
C483 C484 1.380 . S
C483 H501 0.930 . S
C484 C483 1.380 . S
C484 C491 1.357 . S
C485 C476 1.511 . S
C485 C486 1.341 . S
C485 C487 1.371 . S
C486 C485 1.341 . S
C486 C490 1.394 . S
C486 H502 0.930 . S
C487 C485 1.371 . S
C487 C488 1.392 . S
C487 H503 0.931 . S
C488 C487 1.392 . S
C488 C489 1.331 . S
C488 H506 0.932 . S
C489 C488 1.331 . S
C489 C490 1.336 . S
C490 C486 1.394 . S
C490 C489 1.336 . S
C490 H505 0.929 . S
C491 C481 1.386 . S
C491 C484 1.357 . S
C491 H504 0.928 . S
H492 C468 0.931 . S
H493 C470 0.930 . S
H494 C472 0.929 . S
H495 C473 0.931 . S
H496 C475 0.930 . S
H497 C479 0.931 . S
H498 C477 0.931 . S
H499 C481 0.931 . S
H500 C482 0.929 . S
H501 C483 0.930 . S
H502 C486 0.930 . S
H503 C487 0.931 . S
H504 C491 0.928 . S
H505 C490 0.929 . S
H506 C488 0.932 . S
C507 C508 1.386 . S
C507 C509 1.397 . S
C507 H531 0.931 . S
C508 C507 1.386 . S
C508 C512 1.397 . S
C509 C507 1.397 . S
C509 C510 1.384 . S
C509 H532 0.930 . S
C510 C509 1.384 . S
C510 C511 1.377 . S
C510 C513 1.481 . S
C511 C510 1.377 . S
C511 C512 1.389 . S
C511 H533 0.929 . S
C512 C508 1.397 . S
C512 C511 1.389 . S
C512 H534 0.931 . S
C513 C510 1.481 . S
C513 C514 1.387 . S
C513 C518 1.390 . S
C514 C513 1.387 . S
C514 C515 1.401 . S
C514 H535 0.930 . S
C515 C514 1.401 . S
C515 C516 1.376 . S
C515 C524 1.511 . S
C516 C515 1.376 . S
C516 C517 1.392 . S
C516 H537 0.931 . S
C517 C516 1.392 . S
C517 C518 1.361 . S
C517 C519 1.500 . S
C518 C513 1.390 . S
C518 C517 1.361 . S
C518 H536 0.931 . S
C519 C517 1.500 . S
C519 C520 1.371 . S
C519 C521 1.365 . S
C520 C519 1.371 . S
C520 C530 1.386 . S
C520 H538 0.931 . S
C521 C519 1.365 . S
C521 C522 1.409 . S
C521 H539 0.929 . S
C522 C521 1.409 . S
C522 C523 1.380 . S
C522 H540 0.930 . S
C523 C522 1.380 . S
C523 C530 1.357 . S
C524 C515 1.511 . S
C524 C525 1.341 . S
C524 C526 1.371 . S
C525 C524 1.341 . S
C525 C529 1.394 . S
C525 H541 0.930 . S
C526 C524 1.371 . S
C526 C527 1.392 1_556 S
C526 H542 0.931 . S
C527 C526 1.392 1_554 S
C527 C528 1.331 . S
C527 H545 0.932 . S
C528 C527 1.331 . S
C528 C529 1.336 1_554 S
C529 C525 1.394 . S
C529 C528 1.336 1_556 S
C529 H544 0.929 . S
C530 C520 1.386 . S
C530 C523 1.357 . S
C530 H543 0.928 . S
H531 C507 0.931 . S
H532 C509 0.930 . S
H533 C511 0.929 . S
H534 C512 0.931 . S
H535 C514 0.930 . S
H536 C518 0.931 . S
H537 C516 0.931 . S
H538 C520 0.931 . S
H539 C521 0.929 . S
H540 C522 0.930 . S
H541 C525 0.930 . S
H542 C526 0.931 . S
H543 C530 0.928 . S
H544 C529 0.929 . S
H545 C527 0.932 . S
C546 C547 1.386 . S
C546 C548 1.397 . S
C546 H570 0.931 . S
C547 C546 1.386 . S
C547 C551 1.397 . S
C548 C546 1.397 . S
C548 C549 1.384 . S
C548 H571 0.930 . S
C549 C548 1.384 . S
C549 C550 1.377 . S
C549 C552 1.481 . S
C550 C549 1.377 . S
C550 C551 1.389 . S
C550 H572 0.929 . S
C551 C547 1.397 . S
C551 C550 1.389 . S
C551 H573 0.931 . S
C552 C549 1.481 . S
C552 C553 1.387 . S
C552 C557 1.390 . S
C553 C552 1.387 . S
C553 C554 1.401 . S
C553 H574 0.930 . S
C554 C553 1.401 . S
C554 C555 1.376 . S
C554 C563 1.511 . S
C555 C554 1.376 . S
C555 C556 1.392 . S
C555 H576 0.931 . S
C556 C555 1.392 . S
C556 C557 1.361 . S
C556 C558 1.500 . S
C557 C552 1.390 . S
C557 C556 1.361 . S
C557 H575 0.931 . S
C558 C556 1.500 . S
C558 C559 1.371 . S
C558 C560 1.365 . S
C559 C558 1.371 . S
C559 C569 1.386 . S
C559 H577 0.931 . S
C560 C558 1.365 . S
C560 C561 1.409 . S
C560 H578 0.929 . S
C561 C560 1.409 . S
C561 C562 1.380 . S
C561 H579 0.930 . S
C562 C561 1.380 . S
C562 C569 1.357 . S
C563 C554 1.511 . S
C563 C564 1.341 . S
C563 C565 1.371 . S
C564 C563 1.341 . S
C564 C568 1.394 . S
C564 H580 0.930 . S
C565 C563 1.371 . S
C565 C566 1.392 . S
C565 H581 0.931 . S
C566 C565 1.392 . S
C566 C567 1.331 . S
C566 H584 0.932 . S
C567 C566 1.331 . S
C567 C568 1.336 . S
C568 C564 1.394 . S
C568 C567 1.336 . S
C568 H583 0.929 . S
C569 C559 1.386 . S
C569 C562 1.357 . S
C569 H582 0.928 . S
H570 C546 0.931 . S
H571 C548 0.930 . S
H572 C550 0.929 . S
H573 C551 0.931 . S
H574 C553 0.930 . S
H575 C557 0.931 . S
H576 C555 0.931 . S
H577 C559 0.931 . S
H578 C560 0.929 . S
H579 C561 0.930 . S
H580 C564 0.930 . S
H581 C565 0.931 . S
H582 C569 0.928 . S
H583 C568 0.929 . S
H584 C566 0.932 . S
C585 C586 1.386 1_556 S
C585 C587 1.397 . S
C585 H609 0.931 . S
C586 C585 1.386 1_554 S
C586 C590 1.397 . S
C587 C585 1.397 . S
C587 C588 1.384 . S
C587 H610 0.930 . S
C588 C587 1.384 . S
C588 C589 1.377 1_556 S
C588 C591 1.481 . S
C589 C588 1.377 1_554 S
C589 C590 1.389 . S
C589 H611 0.929 . S
C590 C586 1.397 . S
C590 C589 1.389 . S
C590 H612 0.931 . S
C591 C588 1.481 . S
C591 C592 1.387 . S
C591 C596 1.390 . S
C592 C591 1.387 . S
C592 C593 1.401 . S
C592 H613 0.930 . S
C593 C592 1.401 . S
C593 C594 1.376 . S
C593 C602 1.511 . S
C594 C593 1.376 . S
C594 C595 1.392 . S
C594 H615 0.931 . S
C595 C594 1.392 . S
C595 C596 1.361 . S
C595 C597 1.500 . S
C596 C591 1.390 . S
C596 C595 1.361 . S
C596 H614 0.931 . S
C597 C595 1.500 . S
C597 C598 1.371 . S
C597 C599 1.365 . S
C598 C597 1.371 . S
C598 C608 1.386 1_545 S
C598 H616 0.931 . S
C599 C597 1.365 . S
C599 C600 1.409 1_545 S
C599 H617 0.924 1_556 S
C600 C599 1.409 1_565 S
C600 C601 1.380 . S
C600 H618 0.930 1_556 S
C601 C600 1.380 . S
C601 C608 1.357 . S
C602 C593 1.511 . S
C602 C603 1.341 . S
C602 C604 1.371 . S
C603 C602 1.341 . S
C603 C607 1.394 . S
C603 H619 0.930 . S
C604 C602 1.371 . S
C604 C605 1.392 . S
C604 H620 0.931 . S
C605 C604 1.392 . S
C605 C606 1.331 . S
C605 H623 0.890 1_545 S
C606 C605 1.331 . S
C606 C607 1.336 . S
C607 C603 1.394 . S
C607 C606 1.336 . S
C607 H622 0.929 . S
C608 C598 1.386 1_565 S
C608 C601 1.357 . S
C608 H621 0.928 . S
H609 C585 0.931 . S
H610 C587 0.930 . S
H611 C589 0.929 . S
H612 C590 0.931 . S
H613 C592 0.930 . S
H614 C596 0.931 . S
H615 C594 0.931 . S
H616 C598 0.931 . S
H617 C599 0.924 1_554 S
H618 C600 0.930 1_554 S
H619 C603 0.930 . S
H620 C604 0.931 . S
H621 C608 0.928 . S
H622 C607 0.929 . S
H623 C605 0.890 1_565 S
Mg624 O625 2.036 . S
Mg624 O631 1.986 1_554 S
Mg624 O633 2.114 . S
Mg624 O634 2.251 . S
Mg624 O637 2.010 . S
O625 Mg624 2.036 . S
O625 C628 1.244 1_554 S
O626 Mg627 2.028 . S
O626 C628 1.248 . S
Mg627 O626 2.028 . S
Mg627 O632 2.032 . S
Mg627 O634 2.079 1_556 S
C628 O625 1.244 1_556 S
C628 O626 1.248 . S
C629 O630 1.264 . S
C629 O637 1.249 . S
O630 C629 1.264 . S
O631 Mg624 1.986 1_556 S
O631 C635 1.246 . S
O632 Mg627 2.032 . S
O632 C635 1.259 . S
O633 Mg624 2.114 . S
O633 C636 1.252 . S
O634 Mg624 2.251 . S
O634 Mg627 2.079 1_554 S
O634 C636 1.273 . S
C635 O631 1.246 . S
C635 O632 1.259 . S
C636 O633 1.252 . S
C636 O634 1.273 . S
O637 Mg624 2.010 . S
O637 C629 1.249 . S
Mg638 O639 2.028 . S
Mg638 O645 1.986 . S
Mg638 O647 2.114 . S
Mg638 O648 2.251 . S
Mg638 O651 2.010 . S
O639 Mg638 2.028 . S
O639 C642 1.250 . S
O640 Mg641 2.028 . S
O640 C642 1.248 . S
Mg641 O640 2.028 . S
Mg641 O646 2.032 . S
Mg641 O648 2.079 . S
C642 O639 1.250 . S
C642 O640 1.248 . S
C643 O644 1.264 . S
C643 O651 1.249 . S
O644 C643 1.264 . S
O645 Mg638 1.986 . S
O645 C649 1.246 . S
O646 Mg641 2.032 . S
O646 C649 1.259 . S
O647 Mg638 2.114 . S
O647 C650 1.252 . S
O648 Mg638 2.251 . S
O648 Mg641 2.079 . S
O648 C650 1.273 . S
C649 O645 1.246 . S
C649 O646 1.259 . S
C650 O647 1.252 . S
C650 O648 1.273 . S
O651 Mg638 2.010 . S
O651 C643 1.249 . S
Mg652 O653 2.028 . S
Mg652 O659 1.986 1_554 S
Mg652 O661 2.114 . S
Mg652 O662 2.251 . S
Mg652 O665 2.010 . S
O653 Mg652 2.028 . S
O653 C656 1.250 . S
O654 Mg655 2.029 . S
O654 C656 1.246 1_556 S
Mg655 O654 2.029 . S
Mg655 O660 2.032 . S
Mg655 O662 2.079 1_556 S
C656 O653 1.250 . S
C656 O654 1.246 1_554 S
C657 O658 1.264 . S
C657 O665 1.249 . S
O658 C657 1.264 . S
O659 Mg652 1.986 1_556 S
O659 C663 1.246 . S
O660 Mg655 2.032 . S
O660 C663 1.259 . S
O661 Mg652 2.114 . S
O661 C664 1.252 . S
O662 Mg652 2.251 . S
O662 Mg655 2.079 1_554 S
O662 C664 1.273 . S
C663 O659 1.246 . S
C663 O660 1.259 . S
C664 O661 1.252 . S
C664 O662 1.273 . S
O665 Mg652 2.010 . S
O665 C657 1.249 . S
Mg666 O667 2.028 . S
Mg666 O673 1.986 . S
Mg666 O675 2.114 . S
Mg666 O676 2.251 . S
Mg666 O679 2.010 . S
O667 Mg666 2.028 . S
O667 C670 1.250 1_545 S
O668 Mg669 2.028 . S
O668 C670 1.248 . S
Mg669 O668 2.028 . S
Mg669 O674 2.032 . S
Mg669 O676 2.079 1_565 S
C670 O667 1.250 1_565 S
C670 O668 1.248 . S
C671 O672 1.264 . S
C671 O679 1.249 . S
O672 C671 1.264 . S
O673 Mg666 1.986 . S
O673 C677 1.246 . S
O674 Mg669 2.032 . S
O674 C677 1.259 1_565 S
O675 Mg666 2.114 . S
O675 C678 1.252 . S
O676 Mg666 2.251 . S
O676 Mg669 2.079 1_545 S
O676 C678 1.273 . S
C677 O673 1.246 . S
C677 O674 1.259 1_545 S
C678 O675 1.252 . S
C678 O676 1.273 . S
O679 Mg666 2.010 . S
O679 C671 1.249 . S
Mg680 O681 2.028 . S
Mg680 O687 1.986 . S
Mg680 O689 2.114 . S
Mg680 O690 2.251 . S
Mg680 O693 2.010 . S
O681 Mg680 2.028 . S
O681 C684 1.250 . S
O682 Mg683 2.028 . S
O682 C684 1.248 . S
Mg683 O682 2.028 . S
Mg683 O688 2.032 . S
Mg683 O690 2.079 . S
C684 O681 1.250 . S
C684 O682 1.248 . S
C685 O686 1.264 . S
C685 O693 1.249 . S
O686 C685 1.264 . S
O687 Mg680 1.986 . S
O687 C691 1.246 . S
O688 Mg683 2.032 . S
O688 C691 1.259 . S
O689 Mg680 2.114 . S
O689 C692 1.252 . S
O690 Mg680 2.251 . S
O690 Mg683 2.079 . S
O690 C692 1.273 . S
C691 O687 1.246 . S
C691 O688 1.259 . S
C692 O689 1.252 . S
C692 O690 1.273 . S
O693 Mg680 2.010 . S
O693 C685 1.249 . S
Mg694 O695 2.028 . S
Mg694 O701 1.986 . S
Mg694 O703 2.114 . S
Mg694 O704 2.251 . S
Mg694 O707 2.010 . S
O695 Mg694 2.028 . S
O695 C698 1.250 . S
O696 Mg697 2.028 . S
O696 C698 1.248 . S
Mg697 O696 2.028 . S
Mg697 O702 2.032 . S
Mg697 O704 2.079 . S
C698 O695 1.250 . S
C698 O696 1.248 . S
C699 O700 1.264 . S
C699 O707 1.249 . S
O700 C699 1.264 . S
O701 Mg694 1.986 . S
O701 C705 1.246 . S
O702 Mg697 2.032 . S
O702 C705 1.259 . S
O703 Mg694 2.114 . S
O703 C706 1.252 . S
O704 Mg694 2.251 . S
O704 Mg697 2.079 . S
O704 C706 1.273 . S
C705 O701 1.246 . S
C705 O702 1.259 . S
C706 O703 1.252 . S
C706 O704 1.273 . S
O707 Mg694 2.010 . S
O707 C699 1.249 . S
Mg708 O709 2.028 . S
Mg708 O715 1.986 . S
Mg708 O717 2.114 . S
Mg708 O718 2.251 . S
Mg708 O721 2.010 . S
O709 Mg708 2.028 . S
O709 C712 1.250 . S
O710 Mg711 2.028 . S
O710 C712 1.248 . S
Mg711 O710 2.028 . S
Mg711 O716 2.032 . S
Mg711 O718 2.079 . S
C712 O709 1.250 . S
C712 O710 1.248 . S
C713 O714 1.264 . S
C713 O721 1.249 . S
O714 C713 1.264 . S
O715 Mg708 1.986 . S
O715 C719 1.246 . S
O716 Mg711 2.032 . S
O716 C719 1.259 . S
O717 Mg708 2.114 . S
O717 C720 1.252 . S
O718 Mg708 2.251 . S
O718 Mg711 2.079 . S
O718 C720 1.273 . S
C719 O715 1.246 . S
C719 O716 1.259 . S
C720 O717 1.252 . S
C720 O718 1.273 . S
O721 Mg708 2.010 . S
O721 C713 1.249 . S
Mg722 O723 2.028 1_545 S
Mg722 O729 1.986 1_545 S
Mg722 O731 2.114 . S
Mg722 O732 2.251 . S
Mg722 O735 2.010 . S
O723 Mg722 2.028 1_565 S
O723 C726 1.250 . S
O724 Mg725 2.028 . S
O724 C726 1.248 . S
Mg725 O724 2.028 . S
Mg725 O730 2.032 . S
Mg725 O732 2.079 1_565 S
C726 O723 1.250 . S
C726 O724 1.248 . S
C727 O728 1.264 . S
C727 O735 1.249 . S
O728 C727 1.264 . S
O729 Mg722 1.986 1_565 S
O729 C733 1.246 . S
O730 Mg725 2.032 . S
O730 C733 1.259 . S
O731 Mg722 2.114 . S
O731 C734 1.252 . S
O732 Mg722 2.251 . S
O732 Mg725 2.079 1_545 S
O732 C734 1.273 . S
C733 O729 1.246 . S
C733 O730 1.259 . S
C734 O731 1.252 . S
C734 O732 1.273 . S
O735 Mg722 2.010 . S
O735 C727 1.249 . S
Mg736 O737 2.028 . S
Mg736 O743 1.986 . S
Mg736 O745 2.114 . S
Mg736 O746 2.251 . S
Mg736 O749 2.010 . S
O737 Mg736 2.028 . S
O737 C740 1.250 1_455 S
O738 Mg739 2.028 . S
O738 C740 1.248 . S
Mg739 O738 2.028 . S
Mg739 O744 2.032 . S
Mg739 O746 2.079 1_655 S
C740 O737 1.250 1_655 S
C740 O738 1.248 . S
C741 O742 1.264 . S
C741 O749 1.249 . S
O742 C741 1.264 . S
O743 Mg736 1.986 . S
O743 C747 1.246 . S
O744 Mg739 2.032 . S
O744 C747 1.259 1_655 S
O745 Mg736 2.114 . S
O745 C748 1.252 . S
O746 Mg736 2.251 . S
O746 Mg739 2.079 1_455 S
O746 C748 1.273 . S
C747 O743 1.246 . S
C747 O744 1.259 1_455 S
C748 O745 1.252 . S
C748 O746 1.273 . S
O749 Mg736 2.010 . S
O749 C741 1.249 . S
Mg750 O751 2.028 . S
Mg750 O757 1.986 . S
Mg750 O759 2.114 . S
Mg750 O760 2.251 . S
Mg750 O763 2.010 . S
O751 Mg750 2.028 . S
O751 C754 1.250 . S
O752 Mg753 2.028 . S
O752 C754 1.248 . S
Mg753 O752 2.028 . S
Mg753 O758 2.032 . S
Mg753 O760 2.079 . S
C754 O751 1.250 . S
C754 O752 1.248 . S
C755 O756 1.264 . S
C755 O763 1.249 . S
O756 C755 1.264 . S
O757 Mg750 1.986 . S
O757 C761 1.246 . S
O758 Mg753 2.032 . S
O758 C761 1.259 . S
O759 Mg750 2.114 . S
O759 C762 1.252 . S
O760 Mg750 2.251 . S
O760 Mg753 2.079 . S
O760 C762 1.273 . S
C761 O757 1.246 . S
C761 O758 1.259 . S
C762 O759 1.252 . S
C762 O760 1.273 . S
O763 Mg750 2.010 . S
O763 C755 1.249 . S
Mg764 O765 2.028 1_655 S
Mg764 O771 2.001 . S
Mg764 O773 2.114 . S
Mg764 O774 2.251 1_655 S
Mg764 O777 2.010 . S
O765 Mg764 2.028 1_455 S
O765 C768 1.250 . S
O766 Mg767 2.028 . S
O766 C768 1.248 . S
Mg767 O766 2.028 . S
Mg767 O772 2.032 . S
Mg767 O774 2.079 . S
C768 O765 1.250 . S
C768 O766 1.248 . S
C769 O770 1.264 . S
C769 O777 1.249 . S
O770 C769 1.264 . S
O771 Mg764 2.001 . S
O771 C775 1.206 1_655 S
O772 Mg767 2.032 . S
O772 C775 1.259 . S
O773 Mg764 2.114 . S
O773 C776 1.252 . S
O774 Mg764 2.251 1_455 S
O774 Mg767 2.079 . S
O774 C776 1.273 1_455 S
C775 O771 1.206 1_455 S
C775 O772 1.259 . S
C776 O773 1.252 . S
C776 O774 1.273 1_655 S
O777 Mg764 2.010 . S
O777 C769 1.249 . S
Mg778 O779 2.028 . S
Mg778 O785 1.986 . S
Mg778 O787 2.114 . S
Mg778 O788 2.251 . S
Mg778 O791 2.010 . S
O779 Mg778 2.028 . S
O779 C782 1.250 . S
O780 Mg781 2.028 . S
O780 C782 1.248 . S
Mg781 O780 2.028 . S
Mg781 O786 2.032 . S
Mg781 O788 2.079 . S
C782 O779 1.250 . S
C782 O780 1.248 . S
C783 O784 1.264 . S
C783 O791 1.249 . S
O784 C783 1.264 . S
O785 Mg778 1.986 . S
O785 C789 1.246 . S
O786 Mg781 2.032 . S
O786 C789 1.259 . S
O787 Mg778 2.114 . S
O787 C790 1.252 . S
O788 Mg778 2.251 . S
O788 Mg781 2.079 . S
O788 C790 1.273 . S
C789 O785 1.246 . S
C789 O786 1.259 . S
C790 O787 1.252 . S
C790 O788 1.273 . S
O791 Mg778 2.010 . S
O791 C783 1.249 . S
C792 C793 1.349 . S
C792 C794 1.327 . S
C792 H817 0.950 . S
C793 C792 1.349 . S
C793 C809 1.349 . S
C794 C792 1.327 . S
C794 C813 1.429 . S
C794 H818 0.950 . S
C795 C812 1.574 . S
C795 C814 1.368 . S
C795 H819 0.949 . S
H796 C800 0.949 . S
C797 C798 1.349 . S
C797 C799 1.327 . S
C797 H820 0.950 . S
C798 C797 1.349 . S
C798 C810 1.349 . S
C799 C797 1.327 . S
C799 C815 1.429 . S
C799 H821 0.950 . S
C800 H796 0.949 . S
C800 C808 1.574 . S
C800 C816 1.368 . S
H801 C809 0.950 . S
H802 C807 0.950 . S
H803 C808 0.949 . S
H804 C810 0.950 . S
H805 C811 0.950 . S
H806 C812 0.949 . S
C807 H802 0.950 . S
C807 C809 1.327 . S
C807 C813 1.429 . S
C808 C800 1.574 . S
C808 H803 0.949 . S
C808 C814 1.368 . S
C809 C793 1.349 . S
C809 H801 0.950 . S
C809 C807 1.327 . S
C810 C798 1.349 . S
C810 H804 0.950 . S
C810 C811 1.327 . S
C811 H805 0.950 . S
C811 C810 1.327 . S
C811 C815 1.429 . S
C812 C795 1.574 . S
C812 H806 0.949 . S
C812 C816 1.368 . S
C813 C794 1.429 . S
C813 C807 1.429 . S
C813 C814 1.523 . S
C814 C795 1.368 . S
C814 C808 1.368 . S
C814 C813 1.523 . S
C815 C799 1.429 . S
C815 C811 1.429 . S
C815 C816 1.523 . S
C816 C800 1.368 . S
C816 C812 1.368 . S
C816 C815 1.523 . S
H817 C792 0.950 . S
H818 C794 0.950 . S
H819 C795 0.949 . S
H820 C797 0.950 . S
H821 C799 0.950 . S
C822 C823 1.349 . S
C822 C824 1.327 . S
C822 H847 0.950 . S
C823 C822 1.349 . S
C823 C839 1.349 . S
C824 C822 1.327 . S
C824 C843 1.429 . S
C824 H848 0.950 . S
C825 C842 1.574 . S
C825 C844 1.368 . S
C825 H849 0.949 . S
H826 C830 0.949 . S
C827 C828 1.349 . S
C827 C829 1.327 . S
C827 H850 0.950 . S
C828 C827 1.349 . S
C828 C840 1.349 . S
C829 C827 1.327 . S
C829 C845 1.429 . S
C829 H851 0.950 . S
C830 H826 0.949 . S
C830 C838 1.574 . S
C830 C846 1.368 . S
H831 C839 0.950 . S
H832 C837 0.950 . S
H833 C838 0.949 . S
H834 C840 0.950 . S
H835 C841 0.950 . S
H836 C842 0.949 . S
C837 H832 0.950 . S
C837 C839 1.327 . S
C837 C843 1.429 . S
C838 C830 1.574 . S
C838 H833 0.949 . S
C838 C844 1.368 . S
C839 C823 1.349 . S
C839 H831 0.950 . S
C839 C837 1.327 . S
C840 C828 1.349 . S
C840 H834 0.950 . S
C840 C841 1.327 . S
C841 H835 0.950 . S
C841 C840 1.327 . S
C841 C845 1.429 . S
C842 C825 1.574 . S
C842 H836 0.949 . S
C842 C846 1.368 . S
C843 C824 1.429 . S
C843 C837 1.429 . S
C843 C844 1.523 . S
C844 C825 1.368 . S
C844 C838 1.368 . S
C844 C843 1.523 . S
C845 C829 1.429 . S
C845 C841 1.429 . S
C845 C846 1.523 . S
C846 C830 1.368 . S
C846 C842 1.368 . S
C846 C845 1.523 . S
H847 C822 0.950 . S
H848 C824 0.950 . S
H849 C825 0.949 . S
H850 C827 0.950 . S
H851 C829 0.950 . S
C852 C853 1.349 . S
C852 C854 1.327 . S
C852 H877 0.950 . S
C853 C852 1.349 . S
C853 C869 1.349 . S
C854 C852 1.327 . S
C854 C873 1.429 . S
C854 H878 0.950 . S
C855 C872 1.574 . S
C855 C874 1.368 . S
C855 H879 0.949 . S
H856 C860 0.949 . S
C857 C858 1.349 . S
C857 C859 1.327 . S
C857 H880 0.950 . S
C858 C857 1.349 . S
C858 C870 1.349 . S
C859 C857 1.327 . S
C859 C875 1.429 . S
C859 H881 0.950 . S
C860 H856 0.949 . S
C860 C868 1.574 . S
C860 C876 1.368 . S
H861 C869 0.950 . S
H862 C867 0.950 . S
H863 C868 0.949 . S
H864 C870 0.950 . S
H865 C871 0.950 . S
H866 C872 0.949 . S
C867 H862 0.950 . S
C867 C869 1.327 . S
C867 C873 1.429 . S
C868 C860 1.574 . S
C868 H863 0.949 . S
C868 C874 1.368 . S
C869 C853 1.349 . S
C869 H861 0.950 . S
C869 C867 1.327 . S
C870 C858 1.349 . S
C870 H864 0.950 . S
C870 C871 1.327 . S
C871 H865 0.950 . S
C871 C870 1.327 . S
C871 C875 1.429 . S
C872 C855 1.574 . S
C872 H866 0.949 . S
C872 C876 1.368 . S
C873 C854 1.429 . S
C873 C867 1.429 . S
C873 C874 1.523 . S
C874 C855 1.368 . S
C874 C868 1.368 . S
C874 C873 1.523 . S
C875 C859 1.429 . S
C875 C871 1.429 . S
C875 C876 1.523 . S
C876 C860 1.368 . S
C876 C872 1.368 . S
C876 C875 1.523 . S
H877 C852 0.950 . S
H878 C854 0.950 . S
H879 C855 0.949 . S
H880 C857 0.950 . S
H881 C859 0.950 . S
C882 C883 1.349 1_445 S
C882 C884 1.330 1_455 S
C882 H907 0.947 . S
C883 C882 1.349 1_665 S
C883 C899 1.349 . S
C884 C882 1.330 1_655 S
C884 C903 1.429 1_545 S
C884 H908 0.950 . S
C885 C902 1.574 . S
C885 C904 1.368 . S
C885 H909 0.949 . S
H886 C890 0.949 . S
C887 C888 1.349 1_565 S
C887 C889 1.327 . S
C887 H910 0.950 . S
C888 C887 1.349 1_545 S
C888 C900 1.349 . S
C889 C887 1.327 . S
C889 C905 1.429 1_565 S
C889 H911 0.950 . S
C890 H886 0.949 . S
C890 C898 1.574 . S
C890 C906 1.387 . S
H891 C899 0.950 . S
H892 C897 0.950 . S
H893 C898 0.949 . S
H894 C900 0.950 . S
H895 C901 0.950 . S
H896 C902 0.949 . S
C897 H892 0.950 . S
C897 C899 1.327 . S
C897 C903 1.429 . S
C898 C890 1.574 . S
C898 H893 0.949 . S
C898 C904 1.368 1_545 S
C899 C883 1.349 . S
C899 H891 0.950 . S
C899 C897 1.327 . S
C900 C888 1.349 . S
C900 H894 0.950 . S
C900 C901 1.327 . S
C901 H895 0.950 . S
C901 C900 1.327 . S
C901 C905 1.429 . S
C902 C885 1.574 . S
C902 H896 0.949 . S
C902 C906 1.347 1_565 S
C903 C884 1.429 1_565 S
C903 C897 1.429 . S
C903 C904 1.523 . S
C904 C885 1.368 . S
C904 C898 1.368 1_565 S
C904 C903 1.523 . S
C905 C889 1.429 1_545 S
C905 C901 1.429 . S
C905 C906 1.528 . S
C906 C890 1.387 . S
C906 C902 1.347 1_545 S
C906 C905 1.528 . S
H907 C882 0.947 . S
H908 C884 0.950 . S
H909 C885 0.949 . S
H910 C887 0.950 . S
H911 C889 0.950 . S
C912 C913 1.349 . S
C912 C914 1.327 . S
C912 H937 0.950 . S
C913 C912 1.349 . S
C913 C929 1.349 . S
C914 C912 1.327 . S
C914 C933 1.429 . S
C914 H938 0.950 . S
C915 C932 1.574 . S
C915 C934 1.368 . S
C915 H939 0.949 . S
H916 C920 0.949 . S
C917 C918 1.349 . S
C917 C919 1.327 . S
C917 H940 0.950 . S
C918 C917 1.349 . S
C918 C930 1.349 . S
C919 C917 1.327 . S
C919 C935 1.429 . S
C919 H941 0.950 . S
C920 H916 0.949 . S
C920 C928 1.574 . S
C920 C936 1.368 . S
H921 C929 0.950 . S
H922 C927 0.950 . S
H923 C928 0.949 . S
H924 C930 0.950 . S
H925 C931 0.950 . S
H926 C932 0.949 . S
C927 H922 0.950 . S
C927 C929 1.327 . S
C927 C933 1.429 . S
C928 C920 1.574 . S
C928 H923 0.949 . S
C928 C934 1.368 . S
C929 C913 1.349 . S
C929 H921 0.950 . S
C929 C927 1.327 . S
C930 C918 1.349 . S
C930 H924 0.950 . S
C930 C931 1.327 . S
C931 H925 0.950 . S
C931 C930 1.327 . S
C931 C935 1.429 . S
C932 C915 1.574 . S
C932 H926 0.949 . S
C932 C936 1.368 . S
C933 C914 1.429 . S
C933 C927 1.429 . S
C933 C934 1.523 . S
C934 C915 1.368 . S
C934 C928 1.368 . S
C934 C933 1.523 . S
C935 C919 1.429 . S
C935 C931 1.429 . S
C935 C936 1.523 . S
C936 C920 1.368 . S
C936 C932 1.368 . S
C936 C935 1.523 . S
H937 C912 0.950 . S
H938 C914 0.950 . S
H939 C915 0.949 . S
H940 C917 0.950 . S
H941 C919 0.950 . S
C942 C943 1.349 . S
C942 C944 1.327 . S
C942 H967 0.950 . S
C943 C942 1.349 . S
C943 C959 1.349 . S
C944 C942 1.327 . S
C944 C963 1.429 . S
C944 H968 0.950 . S
C945 C962 1.574 . S
C945 C964 1.368 . S
C945 H969 0.949 . S
H946 C950 0.949 . S
C947 C948 1.349 . S
C947 C949 1.327 . S
C947 H970 0.950 . S
C948 C947 1.349 . S
C948 C960 1.349 . S
C949 C947 1.327 . S
C949 C965 1.429 . S
C949 H971 0.950 . S
C950 H946 0.949 . S
C950 C958 1.574 . S
C950 C966 1.368 . S
H951 C959 0.950 . S
H952 C957 0.950 . S
H953 C958 0.949 . S
H954 C960 0.950 . S
H955 C961 0.950 . S
H956 C962 0.949 . S
C957 H952 0.950 . S
C957 C959 1.327 . S
C957 C963 1.429 . S
C958 C950 1.574 . S
C958 H953 0.949 . S
C958 C964 1.368 . S
C959 C943 1.349 . S
C959 H951 0.950 . S
C959 C957 1.327 . S
C960 C948 1.349 . S
C960 H954 0.950 . S
C960 C961 1.327 . S
C961 H955 0.950 . S
C961 C960 1.327 . S
C961 C965 1.429 . S
C962 C945 1.574 . S
C962 H956 0.949 . S
C962 C966 1.368 . S
C963 C944 1.429 . S
C963 C957 1.429 . S
C963 C964 1.523 . S
C964 C945 1.368 . S
C964 C958 1.368 . S
C964 C963 1.523 . S
C965 C949 1.429 . S
C965 C961 1.429 . S
C965 C966 1.523 . S
C966 C950 1.368 . S
C966 C962 1.368 . S
C966 C965 1.523 . S
H967 C942 0.950 . S
H968 C944 0.950 . S
H969 C945 0.949 . S
H970 C947 0.950 . S
H971 C949 0.950 . S
C972 C973 1.349 . S
C972 C974 1.327 . S
C972 H997 0.950 . S
C973 C972 1.349 . S
C973 C989 1.349 . S
C974 C972 1.327 . S
C974 C993 1.429 . S
C974 H998 0.950 . S
C975 C992 1.574 . S
C975 C994 1.368 . S
C975 H999 0.949 . S
H976 C980 0.949 . S
C977 C978 1.349 . S
C977 C979 1.327 . S
C977 H1000 0.950 . S
C978 C977 1.349 . S
C978 C990 1.349 . S
C979 C977 1.327 . S
C979 C995 1.429 . S
C979 H1001 0.950 . S
C980 H976 0.949 . S
C980 C988 1.574 . S
C980 C996 1.368 . S
H981 C989 0.950 . S
H982 C987 0.950 . S
H983 C988 0.949 . S
H984 C990 0.950 . S
H985 C991 0.950 . S
H986 C992 0.949 . S
C987 H982 0.950 . S
C987 C989 1.327 . S
C987 C993 1.429 . S
C988 C980 1.574 . S
C988 H983 0.949 . S
C988 C994 1.368 . S
C989 C973 1.349 . S
C989 H981 0.950 . S
C989 C987 1.327 . S
C990 C978 1.349 . S
C990 H984 0.950 . S
C990 C991 1.327 . S
C991 H985 0.950 . S
C991 C990 1.327 . S
C991 C995 1.429 . S
C992 C975 1.574 . S
C992 H986 0.949 . S
C992 C996 1.368 . S
C993 C974 1.429 . S
C993 C987 1.429 . S
C993 C994 1.523 . S
C994 C975 1.368 . S
C994 C988 1.368 . S
C994 C993 1.523 . S
C995 C979 1.429 . S
C995 C991 1.429 . S
C995 C996 1.523 . S
C996 C980 1.368 . S
C996 C992 1.368 . S
C996 C995 1.523 . S
H997 C972 0.950 . S
H998 C974 0.950 . S
H999 C975 0.949 . S
H1000 C977 0.950 . S
H1001 C979 0.950 . S
C1002 C1003 1.349 . S
C1002 C1004 1.327 . S
C1002 H1027 0.950 . S
C1003 C1002 1.349 . S
C1003 C1019 1.349 . S
C1004 C1002 1.327 . S
C1004 C1023 1.429 . S
C1004 H1028 0.950 . S
C1005 C1022 1.571 1_565 S
C1005 C1024 1.368 . S
C1005 H1029 0.949 1_565 S
H1006 C1010 0.949 . S
C1007 C1008 1.349 1_545 S
C1007 C1009 1.327 . S
C1007 H1030 0.950 . S
C1008 C1007 1.349 1_565 S
C1008 C1020 1.349 . S
C1009 C1007 1.327 . S
C1009 C1025 1.429 1_545 S
C1009 H1031 0.950 . S
C1010 H1006 0.949 . S
C1010 C1018 1.574 . S
C1010 C1026 1.368 . S
H1011 C1019 0.950 . S
H1012 C1017 0.950 1_545 S
H1013 C1018 0.949 . S
H1014 C1020 0.950 . S
H1015 C1021 0.950 . S
H1016 C1022 0.979 . S
C1017 H1012 0.950 1_565 S
C1017 C1019 1.327 . S
C1017 C1023 1.429 . S
C1018 C1010 1.574 . S
C1018 H1013 0.949 . S
C1018 C1024 1.368 . S
C1019 C1003 1.349 . S
C1019 H1011 0.950 . S
C1019 C1017 1.327 . S
C1020 C1008 1.349 . S
C1020 H1014 0.950 . S
C1020 C1021 1.327 . S
C1021 H1015 0.950 . S
C1021 C1020 1.327 . S
C1021 C1025 1.429 . S
C1022 C1005 1.571 1_545 S
C1022 H1016 0.979 . S
C1022 C1026 1.339 1_545 S
C1023 C1004 1.429 . S
C1023 C1017 1.429 . S
C1023 C1024 1.523 . S
C1024 C1005 1.368 . S
C1024 C1018 1.368 . S
C1024 C1023 1.523 . S
C1025 C1009 1.429 1_565 S
C1025 C1021 1.429 . S
C1025 C1026 1.523 . S
C1026 C1010 1.368 . S
C1026 C1022 1.339 1_565 S
C1026 C1025 1.523 . S
H1027 C1002 0.950 . S
H1028 C1004 0.950 . S
H1029 C1005 0.949 1_545 S
H1030 C1007 0.950 . S
H1031 C1009 0.950 . S
C1032 C1033 1.349 . S
C1032 C1034 1.327 . S
C1032 H1057 0.950 . S
C1033 C1032 1.349 . S
C1033 C1049 1.349 . S
C1034 C1032 1.327 . S
C1034 C1053 1.429 . S
C1034 H1058 0.950 . S
C1035 C1052 1.574 . S
C1035 C1054 1.368 . S
C1035 H1059 0.949 . S
H1036 C1040 0.949 . S
C1037 C1038 1.349 . S
C1037 C1039 1.327 . S
C1037 H1060 0.950 . S
C1038 C1037 1.349 . S
C1038 C1050 1.349 . S
C1039 C1037 1.327 . S
C1039 C1055 1.429 . S
C1039 H1061 0.950 . S
C1040 H1036 0.949 . S
C1040 C1048 1.574 . S
C1040 C1056 1.368 . S
H1041 C1049 0.950 . S
H1042 C1047 0.950 . S
H1043 C1048 0.949 . S
H1044 C1050 0.950 . S
H1045 C1051 0.950 . S
H1046 C1052 0.949 . S
C1047 H1042 0.950 . S
C1047 C1049 1.327 . S
C1047 C1053 1.429 . S
C1048 C1040 1.574 . S
C1048 H1043 0.949 . S
C1048 C1054 1.368 . S
C1049 C1033 1.349 . S
C1049 H1041 0.950 . S
C1049 C1047 1.327 . S
C1050 C1038 1.349 . S
C1050 H1044 0.950 . S
C1050 C1051 1.327 . S
C1051 H1045 0.950 . S
C1051 C1050 1.327 . S
C1051 C1055 1.429 . S
C1052 C1035 1.574 . S
C1052 H1046 0.949 . S
C1052 C1056 1.368 . S
C1053 C1034 1.429 . S
C1053 C1047 1.429 . S
C1053 C1054 1.523 . S
C1054 C1035 1.368 . S
C1054 C1048 1.368 . S
C1054 C1053 1.523 . S
C1055 C1039 1.429 . S
C1055 C1051 1.429 . S
C1055 C1056 1.523 . S
C1056 C1040 1.368 . S
C1056 C1052 1.368 . S
C1056 C1055 1.523 . S
H1057 C1032 0.950 . S
H1058 C1034 0.950 . S
H1059 C1035 0.949 . S
H1060 C1037 0.950 . S
H1061 C1039 0.950 . S
C1062 C1063 1.349 . S
C1062 C1064 1.327 . S
C1062 H1087 0.950 . S
C1063 C1062 1.349 . S
C1063 C1079 1.349 . S
C1064 C1062 1.327 . S
C1064 C1083 1.429 . S
C1064 H1088 0.950 . S
C1065 C1082 1.574 . S
C1065 C1084 1.368 . S
C1065 H1089 0.949 . S
H1066 C1070 0.949 . S
C1067 C1068 1.349 . S
C1067 C1069 1.327 . S
C1067 H1090 0.950 . S
C1068 C1067 1.349 . S
C1068 C1080 1.349 . S
C1069 C1067 1.327 . S
C1069 C1085 1.429 . S
C1069 H1091 0.950 . S
C1070 H1066 0.949 . S
C1070 C1078 1.574 . S
C1070 C1086 1.368 . S
H1071 C1079 0.950 . S
H1072 C1077 0.950 . S
H1073 C1078 0.949 . S
H1074 C1080 0.950 . S
H1075 C1081 0.950 . S
H1076 C1082 0.949 . S
C1077 H1072 0.950 . S
C1077 C1079 1.327 . S
C1077 C1083 1.429 . S
C1078 C1070 1.574 . S
C1078 H1073 0.949 . S
C1078 C1084 1.368 . S
C1079 C1063 1.349 . S
C1079 H1071 0.950 . S
C1079 C1077 1.327 . S
C1080 C1068 1.349 . S
C1080 H1074 0.950 . S
C1080 C1081 1.327 . S
C1081 H1075 0.950 . S
C1081 C1080 1.327 . S
C1081 C1085 1.429 . S
C1082 C1065 1.574 . S
C1082 H1076 0.949 . S
C1082 C1086 1.368 . S
C1083 C1064 1.429 . S
C1083 C1077 1.429 . S
C1083 C1084 1.523 . S
C1084 C1065 1.368 . S
C1084 C1078 1.368 . S
C1084 C1083 1.523 . S
C1085 C1069 1.429 . S
C1085 C1081 1.429 . S
C1085 C1086 1.523 . S
C1086 C1070 1.368 . S
C1086 C1082 1.368 . S
C1086 C1085 1.523 . S
H1087 C1062 0.950 . S
H1088 C1064 0.950 . S
H1089 C1065 0.949 . S
H1090 C1067 0.950 . S
H1091 C1069 0.950 . S
C1092 C1093 1.349 . S
C1092 C1094 1.327 . S
C1092 H1117 0.950 . S
C1093 C1092 1.349 . S
C1093 C1109 1.349 . S
C1094 C1092 1.327 . S
C1094 C1113 1.429 . S
C1094 H1118 0.950 . S
C1095 C1112 1.574 . S
C1095 C1114 1.368 . S
C1095 H1119 0.949 . S
H1096 C1100 0.949 . S
C1097 C1098 1.349 . S
C1097 C1099 1.327 . S
C1097 H1120 0.950 . S
C1098 C1097 1.349 . S
C1098 C1110 1.349 . S
C1099 C1097 1.327 . S
C1099 C1115 1.429 . S
C1099 H1121 0.950 . S
C1100 H1096 0.949 . S
C1100 C1108 1.574 . S
C1100 C1116 1.368 . S
H1101 C1109 0.950 . S
H1102 C1107 0.950 . S
H1103 C1108 0.949 . S
H1104 C1110 0.950 . S
H1105 C1111 0.950 . S
H1106 C1112 0.949 . S
C1107 H1102 0.950 . S
C1107 C1109 1.327 . S
C1107 C1113 1.429 . S
C1108 C1100 1.574 . S
C1108 H1103 0.949 . S
C1108 C1114 1.368 . S
C1109 C1093 1.349 . S
C1109 H1101 0.950 . S
C1109 C1107 1.327 . S
C1110 C1098 1.349 . S
C1110 H1104 0.950 . S
C1110 C1111 1.327 . S
C1111 H1105 0.950 . S
C1111 C1110 1.327 . S
C1111 C1115 1.429 . S
C1112 C1095 1.574 . S
C1112 H1106 0.949 . S
C1112 C1116 1.368 . S
C1113 C1094 1.429 . S
C1113 C1107 1.429 . S
C1113 C1114 1.523 . S
C1114 C1095 1.368 . S
C1114 C1108 1.368 . S
C1114 C1113 1.523 . S
C1115 C1099 1.429 . S
C1115 C1111 1.429 . S
C1115 C1116 1.523 . S
C1116 C1100 1.368 . S
C1116 C1112 1.368 . S
C1116 C1115 1.523 . S
H1117 C1092 0.950 . S
H1118 C1094 0.950 . S
H1119 C1095 0.949 . S
H1120 C1097 0.950 . S
H1121 C1099 0.950 . S
C1122 C1123 1.349 . S
C1122 C1124 1.327 . S
C1122 H1147 0.950 . S
C1123 C1122 1.349 . S
C1123 C1139 1.349 . S
C1124 C1122 1.327 . S
C1124 C1143 1.429 . S
C1124 H1148 0.950 . S
C1125 C1142 1.574 . S
C1125 C1144 1.368 . S
C1125 H1149 0.949 . S
H1126 C1130 0.949 . S
C1127 C1128 1.349 . S
C1127 C1129 1.327 . S
C1127 H1150 0.950 . S
C1128 C1127 1.349 . S
C1128 C1140 1.349 . S
C1129 C1127 1.327 . S
C1129 C1145 1.429 . S
C1129 H1151 0.950 . S
C1130 H1126 0.949 . S
C1130 C1138 1.574 . S
C1130 C1146 1.368 . S
H1131 C1139 0.950 . S
H1132 C1137 0.950 . S
H1133 C1138 0.949 . S
H1134 C1140 0.950 . S
H1135 C1141 0.950 . S
H1136 C1142 0.949 . S
C1137 H1132 0.950 . S
C1137 C1139 1.327 . S
C1137 C1143 1.429 . S
C1138 C1130 1.574 . S
C1138 H1133 0.949 . S
C1138 C1144 1.368 . S
C1139 C1123 1.349 . S
C1139 H1131 0.950 . S
C1139 C1137 1.327 . S
C1140 C1128 1.349 . S
C1140 H1134 0.950 . S
C1140 C1141 1.327 . S
C1141 H1135 0.950 . S
C1141 C1140 1.327 . S
C1141 C1145 1.429 . S
C1142 C1125 1.574 . S
C1142 H1136 0.949 . S
C1142 C1146 1.368 . S
C1143 C1124 1.429 . S
C1143 C1137 1.429 . S
C1143 C1144 1.523 . S
C1144 C1125 1.368 . S
C1144 C1138 1.368 . S
C1144 C1143 1.523 . S
C1145 C1129 1.429 . S
C1145 C1141 1.429 . S
C1145 C1146 1.523 . S
C1146 C1130 1.368 . S
C1146 C1142 1.368 . S
C1146 C1145 1.523 . S
H1147 C1122 0.950 . S
H1148 C1124 0.950 . S
H1149 C1125 0.949 . S
H1150 C1127 0.950 . S
H1151 C1129 0.950 . S
C1152 C1153 1.349 . S
C1152 C1154 1.327 . S
C1152 H1177 0.950 . S
C1153 C1152 1.349 . S
C1153 C1169 1.349 . S
C1154 C1152 1.327 . S
C1154 C1173 1.429 . S
C1154 H1178 0.950 . S
C1155 C1172 1.574 . S
C1155 C1174 1.368 . S
C1155 H1179 0.949 . S
H1156 C1160 0.949 . S
C1157 C1158 1.349 . S
C1157 C1159 1.327 . S
C1157 H1180 0.950 . S
C1158 C1157 1.349 . S
C1158 C1170 1.349 . S
C1159 C1157 1.327 . S
C1159 C1175 1.429 . S
C1159 H1181 0.950 . S
C1160 H1156 0.949 . S
C1160 C1168 1.574 . S
C1160 C1176 1.368 . S
H1161 C1169 0.950 . S
H1162 C1167 0.950 . S
H1163 C1168 0.949 . S
H1164 C1170 0.950 . S
H1165 C1171 0.950 . S
H1166 C1172 0.949 . S
C1167 H1162 0.950 . S
C1167 C1169 1.327 . S
C1167 C1173 1.429 . S
C1168 C1160 1.574 . S
C1168 H1163 0.949 . S
C1168 C1174 1.368 . S
C1169 C1153 1.349 . S
C1169 H1161 0.950 . S
C1169 C1167 1.327 . S
C1170 C1158 1.349 . S
C1170 H1164 0.950 . S
C1170 C1171 1.327 . S
C1171 H1165 0.950 . S
C1171 C1170 1.327 . S
C1171 C1175 1.429 . S
C1172 C1155 1.574 . S
C1172 H1166 0.949 . S
C1172 C1176 1.368 . S
C1173 C1154 1.429 . S
C1173 C1167 1.429 . S
C1173 C1174 1.523 . S
C1174 C1155 1.368 . S
C1174 C1168 1.368 . S
C1174 C1173 1.523 . S
C1175 C1159 1.429 . S
C1175 C1171 1.429 . S
C1175 C1176 1.523 . S
C1176 C1160 1.368 . S
C1176 C1172 1.368 . S
C1176 C1175 1.523 . S
H1177 C1152 0.950 . S
H1178 C1154 0.950 . S
H1179 C1155 0.949 . S
H1180 C1157 0.950 . S
H1181 C1159 0.950 . S
C1182 C1183 1.349 . S
C1182 C1184 1.327 . S
C1182 H1207 0.950 . S
C1183 C1182 1.349 . S
C1183 C1199 1.349 . S
C1184 C1182 1.327 . S
C1184 C1203 1.429 . S
C1184 H1208 0.950 . S
C1185 C1202 1.574 . S
C1185 C1204 1.368 . S
C1185 H1209 0.949 . S
H1186 C1190 0.949 . S
C1187 C1188 1.349 . S
C1187 C1189 1.327 . S
C1187 H1210 0.950 1_455 S
C1188 C1187 1.349 . S
C1188 C1200 1.349 . S
C1189 C1187 1.327 . S
C1189 C1205 1.429 . S
C1189 H1211 0.950 . S
C1190 H1186 0.949 . S
C1190 C1198 1.574 . S
C1190 C1206 1.368 . S
H1191 C1199 0.950 . S
H1192 C1197 0.950 . S
H1193 C1198 0.949 . S
H1194 C1200 0.950 . S
H1195 C1201 0.950 . S
H1196 C1202 0.949 . S
C1197 H1192 0.950 . S
C1197 C1199 1.327 . S
C1197 C1203 1.429 . S
C1198 C1190 1.574 . S
C1198 H1193 0.949 . S
C1198 C1204 1.368 . S
C1199 C1183 1.349 . S
C1199 H1191 0.950 . S
C1199 C1197 1.327 . S
C1200 C1188 1.349 . S
C1200 H1194 0.950 . S
C1200 C1201 1.327 . S
C1201 H1195 0.950 . S
C1201 C1200 1.327 . S
C1201 C1205 1.429 . S
C1202 C1185 1.574 . S
C1202 H1196 0.949 . S
C1202 C1206 1.368 . S
C1203 C1184 1.429 . S
C1203 C1197 1.429 . S
C1203 C1204 1.523 . S
C1204 C1185 1.368 . S
C1204 C1198 1.368 . S
C1204 C1203 1.523 . S
C1205 C1189 1.429 . S
C1205 C1201 1.429 . S
C1205 C1206 1.523 . S
C1206 C1190 1.368 . S
C1206 C1202 1.368 . S
C1206 C1205 1.523 . S
H1207 C1182 0.950 . S
H1208 C1184 0.950 . S
H1209 C1185 0.949 . S
H1210 C1187 0.950 1_655 S
H1211 C1189 0.950 . S
C1212 C1213 1.349 . S
C1212 C1214 1.327 . S
C1212 H1237 0.950 . S
C1213 C1212 1.349 . S
C1213 C1229 1.349 . S
C1214 C1212 1.327 . S
C1214 C1233 1.429 . S
C1214 H1238 0.950 . S
C1215 C1232 1.574 . S
C1215 C1234 1.368 . S
C1215 H1239 0.949 . S
H1216 C1220 0.949 . S
C1217 C1218 1.349 . S
C1217 C1219 1.327 . S
C1217 H1240 0.950 . S
C1218 C1217 1.349 . S
C1218 C1230 1.349 . S
C1219 C1217 1.327 . S
C1219 C1235 1.429 . S
C1219 H1241 0.950 . S
C1220 H1216 0.949 . S
C1220 C1228 1.574 . S
C1220 C1236 1.368 . S
H1221 C1229 0.950 . S
H1222 C1227 0.950 . S
H1223 C1228 0.949 . S
H1224 C1230 0.950 . S
H1225 C1231 0.950 . S
H1226 C1232 0.949 . S
C1227 H1222 0.950 . S
C1227 C1229 1.327 . S
C1227 C1233 1.429 . S
C1228 C1220 1.574 . S
C1228 H1223 0.949 . S
C1228 C1234 1.368 . S
C1229 C1213 1.349 . S
C1229 H1221 0.950 . S
C1229 C1227 1.327 . S
C1230 C1218 1.349 . S
C1230 H1224 0.950 . S
C1230 C1231 1.327 . S
C1231 H1225 0.950 . S
C1231 C1230 1.327 . S
C1231 C1235 1.429 . S
C1232 C1215 1.574 . S
C1232 H1226 0.949 . S
C1232 C1236 1.368 . S
C1233 C1214 1.429 . S
C1233 C1227 1.429 . S
C1233 C1234 1.523 . S
C1234 C1215 1.368 . S
C1234 C1228 1.368 . S
C1234 C1233 1.523 . S
C1235 C1219 1.429 . S
C1235 C1231 1.429 . S
C1235 C1236 1.523 . S
C1236 C1220 1.368 . S
C1236 C1232 1.368 . S
C1236 C1235 1.523 . S
H1237 C1212 0.950 . S
H1238 C1214 0.950 . S
H1239 C1215 0.949 . S
H1240 C1217 0.950 . S
H1241 C1219 0.950 . S
C1242 C1243 1.349 . S
C1242 C1244 1.327 . S
C1242 H1267 0.950 . S
C1243 C1242 1.349 . S
C1243 C1259 1.349 . S
C1244 C1242 1.327 . S
C1244 C1263 1.429 . S
C1244 H1268 0.950 . S
C1245 C1262 1.573 1_655 S
C1245 C1264 1.391 . S
C1245 H1269 0.930 1_655 S
H1246 C1250 0.949 . S
C1247 C1248 1.349 1_455 S
C1247 C1249 1.327 . S
C1247 H1270 0.950 . S
C1248 C1247 1.349 1_655 S
C1248 C1260 1.349 . S
C1249 C1247 1.327 . S
C1249 C1265 1.429 1_455 S
C1249 H1271 0.950 . S
C1250 H1246 0.949 . S
C1250 C1258 1.574 . S
C1250 C1266 1.368 . S
H1251 C1259 0.906 1_455 S
H1252 C1257 0.950 1_455 S
H1253 C1258 0.949 . S
H1254 C1260 0.950 . S
H1255 C1261 0.950 . S
H1256 C1262 0.949 . S
C1257 H1252 0.950 1_655 S
C1257 C1259 1.327 . S
C1257 C1263 1.429 . S
C1258 C1250 1.574 . S
C1258 H1253 0.949 . S
C1258 C1264 1.368 . S
C1259 C1243 1.349 . S
C1259 H1251 0.906 1_655 S
C1259 C1257 1.327 . S
C1260 C1248 1.349 . S
C1260 H1254 0.950 . S
C1260 C1261 1.327 . S
C1261 H1255 0.950 . S
C1261 C1260 1.327 . S
C1261 C1265 1.429 . S
C1262 C1245 1.573 1_455 S
C1262 H1256 0.949 . S
C1262 C1266 1.368 1_455 S
C1263 C1244 1.429 . S
C1263 C1257 1.429 . S
C1263 C1264 1.523 . S
C1264 C1245 1.391 . S
C1264 C1258 1.368 . S
C1264 C1263 1.523 . S
C1265 C1249 1.429 1_655 S
C1265 C1261 1.429 . S
C1265 C1266 1.523 . S
C1266 C1250 1.368 . S
C1266 C1262 1.368 1_655 S
C1266 C1265 1.523 . S
H1267 C1242 0.950 . S
H1268 C1244 0.950 . S
H1269 C1245 0.930 1_455 S
H1270 C1247 0.950 . S
H1271 C1249 0.950 . S
C1272 C1273 1.349 . S
C1272 C1274 1.327 . S
C1272 H1297 0.950 . S
C1273 C1272 1.349 . S
C1273 C1289 1.349 . S
C1274 C1272 1.327 . S
C1274 C1293 1.429 . S
C1274 H1298 0.950 . S
C1275 C1292 1.574 . S
C1275 C1294 1.368 . S
C1275 H1299 0.949 . S
H1276 C1280 0.949 . S
C1277 C1278 1.349 . S
C1277 C1279 1.327 . S
C1277 H1300 0.950 . S
C1278 C1277 1.349 . S
C1278 C1290 1.349 . S
C1279 C1277 1.327 . S
C1279 C1295 1.429 . S
C1279 H1301 0.950 . S
C1280 H1276 0.949 . S
C1280 C1288 1.574 . S
C1280 C1296 1.368 . S
H1281 C1289 0.950 . S
H1282 C1287 0.950 . S
H1283 C1288 0.949 . S
H1284 C1290 0.950 . S
H1285 C1291 0.950 . S
H1286 C1292 0.949 . S
C1287 H1282 0.950 . S
C1287 C1289 1.327 . S
C1287 C1293 1.429 . S
C1288 C1280 1.574 . S
C1288 H1283 0.949 . S
C1288 C1294 1.368 . S
C1289 C1273 1.349 . S
C1289 H1281 0.950 . S
C1289 C1287 1.327 . S
C1290 C1278 1.349 . S
C1290 H1284 0.950 . S
C1290 C1291 1.327 . S
C1291 H1285 0.950 . S
C1291 C1290 1.327 . S
C1291 C1295 1.429 . S
C1292 C1275 1.574 . S
C1292 H1286 0.949 . S
C1292 C1296 1.368 . S
C1293 C1274 1.429 . S
C1293 C1287 1.429 . S
C1293 C1294 1.523 . S
C1294 C1275 1.368 . S
C1294 C1288 1.368 . S
C1294 C1293 1.523 . S
C1295 C1279 1.429 . S
C1295 C1291 1.429 . S
C1295 C1296 1.523 . S
C1296 C1280 1.368 . S
C1296 C1292 1.368 . S
C1296 C1295 1.523 . S
H1297 C1272 0.950 . S
H1298 C1274 0.950 . S
H1299 C1275 0.949 . S
H1300 C1277 0.950 . S
H1301 C1279 0.950 . S
C1302 C1303 1.349 . S
C1302 C1304 1.327 . S
C1302 H1327 0.950 . S
C1303 C1302 1.349 . S
C1303 C1319 1.349 . S
C1304 C1302 1.327 . S
C1304 C1323 1.429 . S
C1304 H1328 0.950 . S
C1305 C1322 1.574 . S
C1305 C1324 1.368 . S
C1305 H1329 0.949 . S
H1306 C1310 0.949 . S
C1307 C1308 1.349 . S
C1307 C1309 1.327 . S
C1307 H1330 0.950 . S
C1308 C1307 1.349 . S
C1308 C1320 1.349 . S
C1309 C1307 1.327 . S
C1309 C1325 1.429 . S
C1309 H1331 0.950 . S
C1310 H1306 0.949 . S
C1310 C1318 1.574 . S
C1310 C1326 1.368 . S
H1311 C1319 0.950 . S
H1312 C1317 0.950 . S
H1313 C1318 0.949 . S
H1314 C1320 0.950 . S
H1315 C1321 0.950 . S
H1316 C1322 0.949 . S
C1317 H1312 0.950 . S
C1317 C1319 1.327 . S
C1317 C1323 1.429 . S
C1318 C1310 1.574 . S
C1318 H1313 0.949 . S
C1318 C1324 1.368 . S
C1319 C1303 1.349 . S
C1319 H1311 0.950 . S
C1319 C1317 1.327 . S
C1320 C1308 1.349 . S
C1320 H1314 0.950 . S
C1320 C1321 1.327 . S
C1321 H1315 0.950 . S
C1321 C1320 1.327 . S
C1321 C1325 1.429 . S
C1322 C1305 1.574 . S
C1322 H1316 0.949 . S
C1322 C1326 1.368 . S
C1323 C1304 1.429 . S
C1323 C1317 1.429 . S
C1323 C1324 1.523 . S
C1324 C1305 1.368 . S
C1324 C1318 1.368 . S
C1324 C1323 1.523 . S
C1325 C1309 1.429 . S
C1325 C1321 1.429 . S
C1325 C1326 1.523 . S
C1326 C1310 1.368 . S
C1326 C1322 1.368 . S
C1326 C1325 1.523 . S
H1327 C1302 0.950 . S
H1328 C1304 0.950 . S
H1329 C1305 0.949 . S
H1330 C1307 0.950 . S
H1331 C1309 0.950 . S
C1332 C1333 1.349 . S
C1332 C1334 1.327 . S
C1332 H1357 0.950 . S
C1333 C1332 1.349 . S
C1333 C1349 1.349 . S
C1334 C1332 1.327 . S
C1334 C1353 1.429 . S
C1334 H1358 0.950 . S
C1335 C1352 1.566 1_556 S
C1335 C1354 1.409 . S
C1335 H1359 0.922 1_556 S
H1336 C1340 0.949 . S
C1337 C1338 1.349 1_554 S
C1337 C1339 1.327 . S
C1337 H1360 0.950 . S
C1338 C1337 1.349 1_556 S
C1338 C1350 1.349 . S
C1339 C1337 1.327 . S
C1339 C1355 1.429 1_554 S
C1339 H1361 0.950 . S
C1340 H1336 0.949 . S
C1340 C1348 1.574 . S
C1340 C1356 1.368 . S
H1341 C1349 0.985 . S
H1342 C1347 0.950 1_554 S
H1343 C1348 0.949 . S
H1344 C1350 0.950 . S
H1345 C1351 0.950 . S
H1346 C1352 0.949 . S
C1347 H1342 0.950 1_556 S
C1347 C1349 1.327 . S
C1347 C1353 1.429 . S
C1348 C1340 1.574 . S
C1348 H1343 0.949 . S
C1348 C1354 1.368 . S
C1349 C1333 1.349 . S
C1349 H1341 0.985 . S
C1349 C1347 1.327 . S
C1350 C1338 1.349 . S
C1350 H1344 0.950 . S
C1350 C1351 1.327 . S
C1351 H1345 0.950 . S
C1351 C1350 1.327 . S
C1351 C1355 1.429 . S
C1352 C1335 1.566 1_554 S
C1352 H1346 0.949 . S
C1352 C1356 1.368 1_554 S
C1353 C1334 1.429 . S
C1353 C1347 1.429 . S
C1353 C1354 1.523 . S
C1354 C1335 1.409 . S
C1354 C1348 1.368 . S
C1354 C1353 1.523 . S
C1355 C1339 1.429 1_556 S
C1355 C1351 1.429 . S
C1355 C1356 1.523 . S
C1356 C1340 1.368 . S
C1356 C1352 1.368 1_556 S
C1356 C1355 1.523 . S
H1357 C1332 0.950 . S
H1358 C1334 0.950 . S
H1359 C1335 0.922 1_554 S
H1360 C1337 0.950 . S
H1361 C1339 0.950 . S
C1362 C1363 1.349 . S
C1362 C1364 1.327 . S
C1362 H1387 0.950 . S
C1363 C1362 1.349 . S
C1363 C1379 1.349 . S
C1364 C1362 1.327 . S
C1364 C1383 1.429 . S
C1364 H1388 0.950 . S
C1365 C1382 1.574 . S
C1365 C1384 1.368 . S
C1365 H1389 0.949 . S
H1366 C1370 0.949 . S
C1367 C1368 1.349 . S
C1367 C1369 1.327 . S
C1367 H1390 0.950 . S
C1368 C1367 1.349 . S
C1368 C1380 1.349 . S
C1369 C1367 1.327 . S
C1369 C1385 1.429 . S
C1369 H1391 0.950 . S
C1370 H1366 0.949 . S
C1370 C1378 1.574 . S
C1370 C1386 1.368 . S
H1371 C1379 0.950 . S
H1372 C1377 0.950 . S
H1373 C1378 0.949 . S
H1374 C1380 0.950 . S
H1375 C1381 0.950 . S
H1376 C1382 0.949 . S
C1377 H1372 0.950 . S
C1377 C1379 1.327 . S
C1377 C1383 1.429 . S
C1378 C1370 1.574 . S
C1378 H1373 0.949 . S
C1378 C1384 1.368 . S
C1379 C1363 1.349 . S
C1379 H1371 0.950 . S
C1379 C1377 1.327 . S
C1380 C1368 1.349 . S
C1380 H1374 0.950 . S
C1380 C1381 1.327 . S
C1381 H1375 0.950 . S
C1381 C1380 1.327 . S
C1381 C1385 1.429 . S
C1382 C1365 1.574 . S
C1382 H1376 0.949 . S
C1382 C1386 1.368 . S
C1383 C1364 1.429 . S
C1383 C1377 1.429 . S
C1383 C1384 1.523 . S
C1384 C1365 1.368 . S
C1384 C1378 1.368 . S
C1384 C1383 1.523 . S
C1385 C1369 1.429 . S
C1385 C1381 1.429 . S
C1385 C1386 1.523 . S
C1386 C1370 1.368 . S
C1386 C1382 1.368 . S
C1386 C1385 1.523 . S
H1387 C1362 0.950 . S
H1388 C1364 0.950 . S
H1389 C1365 0.949 . S
H1390 C1367 0.950 . S
H1391 C1369 0.950 . S
C1392 C1393 1.349 . S
C1392 C1394 1.327 . S
C1392 H1417 0.950 . S
C1393 C1392 1.349 . S
C1393 C1409 1.349 . S
C1394 C1392 1.327 . S
C1394 C1413 1.429 . S
C1394 H1418 0.950 . S
C1395 C1412 1.574 . S
C1395 C1414 1.368 . S
C1395 H1419 0.949 . S
H1396 C1400 0.949 . S
C1397 C1398 1.349 . S
C1397 C1399 1.327 . S
C1397 H1420 0.950 . S
C1398 C1397 1.349 . S
C1398 C1410 1.349 . S
C1399 C1397 1.327 . S
C1399 C1415 1.429 . S
C1399 H1421 0.950 . S
C1400 H1396 0.949 . S
C1400 C1408 1.574 . S
C1400 C1416 1.368 . S
H1401 C1409 0.950 . S
H1402 C1407 0.950 . S
H1403 C1408 0.949 . S
H1404 C1410 0.950 . S
H1405 C1411 0.950 . S
H1406 C1412 0.949 . S
C1407 H1402 0.950 . S
C1407 C1409 1.327 . S
C1407 C1413 1.429 . S
C1408 C1400 1.574 . S
C1408 H1403 0.949 . S
C1408 C1414 1.368 . S
C1409 C1393 1.349 . S
C1409 H1401 0.950 . S
C1409 C1407 1.327 . S
C1410 C1398 1.349 . S
C1410 H1404 0.950 . S
C1410 C1411 1.327 . S
C1411 H1405 0.950 . S
C1411 C1410 1.327 . S
C1411 C1415 1.429 . S
C1412 C1395 1.574 . S
C1412 H1406 0.949 . S
C1412 C1416 1.368 . S
C1413 C1394 1.429 . S
C1413 C1407 1.429 . S
C1413 C1414 1.523 . S
C1414 C1395 1.368 . S
C1414 C1408 1.368 . S
C1414 C1413 1.523 . S
C1415 C1399 1.429 . S
C1415 C1411 1.429 . S
C1415 C1416 1.523 . S
C1416 C1400 1.368 . S
C1416 C1412 1.368 . S
C1416 C1415 1.523 . S
H1417 C1392 0.950 . S
H1418 C1394 0.950 . S
H1419 C1395 0.949 . S
H1420 C1397 0.950 . S
H1421 C1399 0.950 . S
C1422 C1423 1.349 . S
C1422 C1424 1.327 . S
C1422 H1447 0.950 . S
C1423 C1422 1.349 . S
C1423 C1439 1.349 . S
C1424 C1422 1.327 . S
C1424 C1443 1.429 . S
C1424 H1448 0.950 . S
C1425 C1442 1.574 . S
C1425 C1444 1.368 . S
C1425 H1449 0.949 . S
H1426 C1430 0.949 . S
C1427 C1428 1.349 . S
C1427 C1429 1.327 . S
C1427 H1450 0.950 . S
C1428 C1427 1.349 . S
C1428 C1440 1.349 . S
C1429 C1427 1.327 . S
C1429 C1445 1.429 . S
C1429 H1451 0.950 . S
C1430 H1426 0.949 . S
C1430 C1438 1.574 . S
C1430 C1446 1.368 . S
H1431 C1439 0.950 . S
H1432 C1437 0.950 . S
H1433 C1438 0.949 . S
H1434 C1440 0.950 . S
H1435 C1441 0.950 . S
H1436 C1442 0.949 . S
C1437 H1432 0.950 . S
C1437 C1439 1.327 . S
C1437 C1443 1.429 . S
C1438 C1430 1.574 . S
C1438 H1433 0.949 . S
C1438 C1444 1.368 . S
C1439 C1423 1.349 . S
C1439 H1431 0.950 . S
C1439 C1437 1.327 . S
C1440 C1428 1.349 . S
C1440 H1434 0.950 . S
C1440 C1441 1.327 . S
C1441 H1435 0.950 . S
C1441 C1440 1.327 . S
C1441 C1445 1.429 . S
C1442 C1425 1.574 . S
C1442 H1436 0.949 . S
C1442 C1446 1.368 . S
C1443 C1424 1.429 . S
C1443 C1437 1.429 . S
C1443 C1444 1.523 . S
C1444 C1425 1.368 . S
C1444 C1438 1.368 . S
C1444 C1443 1.523 . S
C1445 C1429 1.429 . S
C1445 C1441 1.429 . S
C1445 C1446 1.523 . S
C1446 C1430 1.368 . S
C1446 C1442 1.368 . S
C1446 C1445 1.523 . S
H1447 C1422 0.950 . S
H1448 C1424 0.950 . S
H1449 C1425 0.949 . S
H1450 C1427 0.950 . S
H1451 C1429 0.950 . S
C1452 C1453 1.349 . S
C1452 C1454 1.327 . S
C1452 H1477 0.950 . S
C1453 C1452 1.349 . S
C1453 C1469 1.349 . S
C1454 C1452 1.327 . S
C1454 C1473 1.429 . S
C1454 H1478 0.950 . S
C1455 C1472 1.574 . S
C1455 C1474 1.368 . S
C1455 H1479 0.949 . S
H1456 C1460 0.949 . S
C1457 C1458 1.349 . S
C1457 C1459 1.327 . S
C1457 H1480 0.950 . S
C1458 C1457 1.349 . S
C1458 C1470 1.349 . S
C1459 C1457 1.327 . S
C1459 C1475 1.429 . S
C1459 H1481 0.950 . S
C1460 H1456 0.949 . S
C1460 C1468 1.574 . S
C1460 C1476 1.368 . S
H1461 C1469 0.950 . S
H1462 C1467 0.950 . S
H1463 C1468 0.949 . S
H1464 C1470 0.950 . S
H1465 C1471 0.950 . S
H1466 C1472 0.949 . S
C1467 H1462 0.950 . S
C1467 C1469 1.327 . S
C1467 C1473 1.429 . S
C1468 C1460 1.574 . S
C1468 H1463 0.949 . S
C1468 C1474 1.368 . S
C1469 C1453 1.349 . S
C1469 H1461 0.950 . S
C1469 C1467 1.327 . S
C1470 C1458 1.349 . S
C1470 H1464 0.950 . S
C1470 C1471 1.327 . S
C1471 H1465 0.950 . S
C1471 C1470 1.327 . S
C1471 C1475 1.429 . S
C1472 C1455 1.574 . S
C1472 H1466 0.949 . S
C1472 C1476 1.368 . S
C1473 C1454 1.429 . S
C1473 C1467 1.429 . S
C1473 C1474 1.523 . S
C1474 C1455 1.368 . S
C1474 C1468 1.368 . S
C1474 C1473 1.523 . S
C1475 C1459 1.429 . S
C1475 C1471 1.429 . S
C1475 C1476 1.523 . S
C1476 C1460 1.368 . S
C1476 C1472 1.368 . S
C1476 C1475 1.523 . S
H1477 C1452 0.950 . S
H1478 C1454 0.950 . S
H1479 C1455 0.949 . S
H1480 C1457 0.950 . S
H1481 C1459 0.950 . S
C1482 C1483 1.349 . S
C1482 C1484 1.327 . S
C1482 H1507 0.950 . S
C1483 C1482 1.349 . S
C1483 C1499 1.349 . S
C1484 C1482 1.327 . S
C1484 C1503 1.429 . S
C1484 H1508 0.950 . S
C1485 C1502 1.574 . S
C1485 C1504 1.368 . S
C1485 H1509 0.949 . S
H1486 C1490 0.949 . S
C1487 C1488 1.349 . S
C1487 C1489 1.327 . S
C1487 H1510 0.950 . S
C1488 C1487 1.349 . S
C1488 C1500 1.349 . S
C1489 C1487 1.327 . S
C1489 C1505 1.429 . S
C1489 H1511 0.950 . S
C1490 H1486 0.949 . S
C1490 C1498 1.574 . S
C1490 C1506 1.368 . S
H1491 C1499 0.950 . S
H1492 C1497 0.950 . S
H1493 C1498 0.949 . S
H1494 C1500 0.950 . S
H1495 C1501 0.950 . S
H1496 C1502 0.949 . S
C1497 H1492 0.950 . S
C1497 C1499 1.327 . S
C1497 C1503 1.429 . S
C1498 C1490 1.574 . S
C1498 H1493 0.949 . S
C1498 C1504 1.368 . S
C1499 C1483 1.349 . S
C1499 H1491 0.950 . S
C1499 C1497 1.327 . S
C1500 C1488 1.349 . S
C1500 H1494 0.950 . S
C1500 C1501 1.327 . S
C1501 H1495 0.950 . S
C1501 C1500 1.327 . S
C1501 C1505 1.429 . S
C1502 C1485 1.574 . S
C1502 H1496 0.949 . S
C1502 C1506 1.368 . S
C1503 C1484 1.429 . S
C1503 C1497 1.429 . S
C1503 C1504 1.523 . S
C1504 C1485 1.368 . S
C1504 C1498 1.368 . S
C1504 C1503 1.523 . S
C1505 C1489 1.429 . S
C1505 C1501 1.429 . S
C1505 C1506 1.523 . S
C1506 C1490 1.368 . S
C1506 C1502 1.368 . S
C1506 C1505 1.523 . S
H1507 C1482 0.950 . S
H1508 C1484 0.950 . S
H1509 C1485 0.949 . S
H1510 C1487 0.950 . S
H1511 C1489 0.950 . S
C1512 C1513 1.349 . S
C1512 C1514 1.327 . S
C1512 H1537 0.950 . S
C1513 C1512 1.349 . S
C1513 C1529 1.349 . S
C1514 C1512 1.327 . S
C1514 C1533 1.429 . S
C1514 H1538 0.950 . S
C1515 C1532 1.574 . S
C1515 C1534 1.368 . S
C1515 H1539 0.949 . S
H1516 C1520 0.949 . S
C1517 C1518 1.349 . S
C1517 C1519 1.327 . S
C1517 H1540 0.950 . S
C1518 C1517 1.349 . S
C1518 C1530 1.349 . S
C1519 C1517 1.327 . S
C1519 C1535 1.429 . S
C1519 H1541 0.950 . S
C1520 H1516 0.949 . S
C1520 C1528 1.574 . S
C1520 C1536 1.368 . S
H1521 C1529 0.950 . S
H1522 C1527 0.950 . S
H1523 C1528 0.949 . S
H1524 C1530 0.950 . S
H1525 C1531 0.950 . S
H1526 C1532 0.949 . S
C1527 H1522 0.950 . S
C1527 C1529 1.327 . S
C1527 C1533 1.429 . S
C1528 C1520 1.574 . S
C1528 H1523 0.949 . S
C1528 C1534 1.368 . S
C1529 C1513 1.349 . S
C1529 H1521 0.950 . S
C1529 C1527 1.327 . S
C1530 C1518 1.349 . S
C1530 H1524 0.950 . S
C1530 C1531 1.327 . S
C1531 H1525 0.950 . S
C1531 C1530 1.327 . S
C1531 C1535 1.429 . S
C1532 C1515 1.574 . S
C1532 H1526 0.949 . S
C1532 C1536 1.368 . S
C1533 C1514 1.429 . S
C1533 C1527 1.429 . S
C1533 C1534 1.523 . S
C1534 C1515 1.368 . S
C1534 C1528 1.368 . S
C1534 C1533 1.523 . S
C1535 C1519 1.429 . S
C1535 C1531 1.429 . S
C1535 C1536 1.523 . S
C1536 C1520 1.368 . S
C1536 C1532 1.368 . S
C1536 C1535 1.523 . S
H1537 C1512 0.950 . S
H1538 C1514 0.950 . S
H1539 C1515 0.949 . S
H1540 C1517 0.950 . S
H1541 C1519 0.950 . S
C1542 C1543 1.349 . S
C1542 C1544 1.327 . S
C1542 H1567 0.950 1_545 S
C1543 C1542 1.349 . S
C1543 C1559 1.349 . S
C1544 C1542 1.327 . S
C1544 C1563 1.429 . S
C1544 H1568 0.950 1_545 S
C1545 C1562 1.574 . S
C1545 C1564 1.368 . S
C1545 H1569 0.949 . S
H1546 C1550 0.949 . S
C1547 C1548 1.349 . S
C1547 C1549 1.327 . S
C1547 H1570 0.950 . S
C1548 C1547 1.349 . S
C1548 C1560 1.349 1_545 S
C1549 C1547 1.327 . S
C1549 C1565 1.429 . S
C1549 H1571 0.950 . S
C1550 H1546 0.949 . S
C1550 C1558 1.568 1_565 S
C1550 C1566 1.368 1_565 S
H1551 C1559 0.950 . S
H1552 C1557 0.950 . S
H1553 C1558 0.916 1_565 S
H1554 C1560 0.950 . S
H1555 C1561 0.950 . S
H1556 C1562 0.949 . S
C1557 H1552 0.950 . S
C1557 C1559 1.327 . S
C1557 C1563 1.429 . S
C1558 C1550 1.568 1_545 S
C1558 H1553 0.916 1_545 S
C1558 C1564 1.413 . S
C1559 C1543 1.349 . S
C1559 H1551 0.950 . S
C1559 C1557 1.327 . S
C1560 C1548 1.349 1_565 S
C1560 H1554 0.950 . S
C1560 C1561 1.327 . S
C1561 H1555 0.950 . S
C1561 C1560 1.327 . S
C1561 C1565 1.429 1_565 S
C1562 C1545 1.574 . S
C1562 H1556 0.949 . S
C1562 C1566 1.368 . S
C1563 C1544 1.429 . S
C1563 C1557 1.429 . S
C1563 C1564 1.523 . S
C1564 C1545 1.368 . S
C1564 C1558 1.413 . S
C1564 C1563 1.523 . S
C1565 C1549 1.429 . S
C1565 C1561 1.429 1_545 S
C1565 C1566 1.523 . S
C1566 C1550 1.368 1_545 S
C1566 C1562 1.368 . S
C1566 C1565 1.523 . S
H1567 C1542 0.950 1_565 S
H1568 C1544 0.950 1_565 S
H1569 C1545 0.949 . S
H1570 C1547 0.950 . S
H1571 C1549 0.950 . S
C1572 C1573 1.349 . S
C1572 C1574 1.327 . S
C1572 H1597 0.950 . S
C1573 C1572 1.349 . S
C1573 C1589 1.349 . S
C1574 C1572 1.327 . S
C1574 C1593 1.429 . S
C1574 H1598 0.950 . S
C1575 C1592 1.574 . S
C1575 C1594 1.368 . S
C1575 H1599 0.949 . S
H1576 C1580 0.949 . S
C1577 C1578 1.349 . S
C1577 C1579 1.327 . S
C1577 H1600 0.950 . S
C1578 C1577 1.349 . S
C1578 C1590 1.349 . S
C1579 C1577 1.327 . S
C1579 C1595 1.429 . S
C1579 H1601 0.950 . S
C1580 H1576 0.949 . S
C1580 C1588 1.574 . S
C1580 C1596 1.368 . S
H1581 C1589 0.950 . S
H1582 C1587 0.950 . S
H1583 C1588 0.949 . S
H1584 C1590 0.950 . S
H1585 C1591 0.950 . S
H1586 C1592 0.949 . S
C1587 H1582 0.950 . S
C1587 C1589 1.327 . S
C1587 C1593 1.429 . S
C1588 C1580 1.574 . S
C1588 H1583 0.949 . S
C1588 C1594 1.368 . S
C1589 C1573 1.349 . S
C1589 H1581 0.950 . S
C1589 C1587 1.327 . S
C1590 C1578 1.349 . S
C1590 H1584 0.950 . S
C1590 C1591 1.327 . S
C1591 H1585 0.950 . S
C1591 C1590 1.327 . S
C1591 C1595 1.429 . S
C1592 C1575 1.574 . S
C1592 H1586 0.949 . S
C1592 C1596 1.368 . S
C1593 C1574 1.429 . S
C1593 C1587 1.429 . S
C1593 C1594 1.523 . S
C1594 C1575 1.368 . S
C1594 C1588 1.368 . S
C1594 C1593 1.523 . S
C1595 C1579 1.429 . S
C1595 C1591 1.429 . S
C1595 C1596 1.523 . S
C1596 C1580 1.368 . S
C1596 C1592 1.368 . S
C1596 C1595 1.523 . S
H1597 C1572 0.950 . S
H1598 C1574 0.950 . S
H1599 C1575 0.949 . S
H1600 C1577 0.950 . S
H1601 C1579 0.950 . S
C1602 C1603 1.349 . S
C1602 C1604 1.327 . S
C1602 H1627 0.950 . S
C1603 C1602 1.349 . S
C1603 C1619 1.349 . S
C1604 C1602 1.327 . S
C1604 C1623 1.429 . S
C1604 H1628 0.950 . S
C1605 C1622 1.574 . S
C1605 C1624 1.368 . S
C1605 H1629 0.949 . S
H1606 C1610 0.949 . S
C1607 C1608 1.349 . S
C1607 C1609 1.327 . S
C1607 H1630 0.950 . S
C1608 C1607 1.349 . S
C1608 C1620 1.349 . S
C1609 C1607 1.327 . S
C1609 C1625 1.429 . S
C1609 H1631 0.950 . S
C1610 H1606 0.949 . S
C1610 C1618 1.574 . S
C1610 C1626 1.368 . S
H1611 C1619 0.950 . S
H1612 C1617 0.950 . S
H1613 C1618 0.949 . S
H1614 C1620 0.950 . S
H1615 C1621 0.950 . S
H1616 C1622 0.949 . S
C1617 H1612 0.950 . S
C1617 C1619 1.327 . S
C1617 C1623 1.429 . S
C1618 C1610 1.574 . S
C1618 H1613 0.949 . S
C1618 C1624 1.368 . S
C1619 C1603 1.349 . S
C1619 H1611 0.950 . S
C1619 C1617 1.327 . S
C1620 C1608 1.349 . S
C1620 H1614 0.950 . S
C1620 C1621 1.327 . S
C1621 H1615 0.950 . S
C1621 C1620 1.327 . S
C1621 C1625 1.429 . S
C1622 C1605 1.574 . S
C1622 H1616 0.949 . S
C1622 C1626 1.368 . S
C1623 C1604 1.429 . S
C1623 C1617 1.429 . S
C1623 C1624 1.523 . S
C1624 C1605 1.368 . S
C1624 C1618 1.368 . S
C1624 C1623 1.523 . S
C1625 C1609 1.429 . S
C1625 C1621 1.429 . S
C1625 C1626 1.523 . S
C1626 C1610 1.368 . S
C1626 C1622 1.368 . S
C1626 C1625 1.523 . S
H1627 C1602 0.950 . S
H1628 C1604 0.950 . S
H1629 C1605 0.949 . S
H1630 C1607 0.950 . S
H1631 C1609 0.950 . S
C1632 C1633 1.349 . S
C1632 C1634 1.327 . S
C1632 H1657 0.950 . S
C1633 C1632 1.349 . S
C1633 C1649 1.349 . S
C1634 C1632 1.327 . S
C1634 C1653 1.429 . S
C1634 H1658 0.950 . S
C1635 C1652 1.574 . S
C1635 C1654 1.368 . S
C1635 H1659 0.949 . S
H1636 C1640 0.949 . S
C1637 C1638 1.349 . S
C1637 C1639 1.327 . S
C1637 H1660 0.950 . S
C1638 C1637 1.349 . S
C1638 C1650 1.349 . S
C1639 C1637 1.327 . S
C1639 C1655 1.429 . S
C1639 H1661 0.950 . S
C1640 H1636 0.949 . S
C1640 C1648 1.574 . S
C1640 C1656 1.368 . S
H1641 C1649 0.950 . S
H1642 C1647 0.950 . S
H1643 C1648 0.949 . S
H1644 C1650 0.950 . S
H1645 C1651 0.950 . S
H1646 C1652 0.949 . S
C1647 H1642 0.950 . S
C1647 C1649 1.327 . S
C1647 C1653 1.429 . S
C1648 C1640 1.574 . S
C1648 H1643 0.949 . S
C1648 C1654 1.368 . S
C1649 C1633 1.349 . S
C1649 H1641 0.950 . S
C1649 C1647 1.327 . S
C1650 C1638 1.349 . S
C1650 H1644 0.950 . S
C1650 C1651 1.327 . S
C1651 H1645 0.950 . S
C1651 C1650 1.327 . S
C1651 C1655 1.429 . S
C1652 C1635 1.574 . S
C1652 H1646 0.949 . S
C1652 C1656 1.368 . S
C1653 C1634 1.429 . S
C1653 C1647 1.429 . S
C1653 C1654 1.523 . S
C1654 C1635 1.368 . S
C1654 C1648 1.368 . S
C1654 C1653 1.523 . S
C1655 C1639 1.429 . S
C1655 C1651 1.429 . S
C1655 C1656 1.523 . S
C1656 C1640 1.368 . S
C1656 C1652 1.368 . S
C1656 C1655 1.523 . S
H1657 C1632 0.950 . S
H1658 C1634 0.950 . S
H1659 C1635 0.949 . S
H1660 C1637 0.950 . S
H1661 C1639 0.950 . S
C1662 C1663 1.349 . S
C1662 C1664 1.327 . S
C1662 H1687 0.950 . S
C1663 C1662 1.349 . S
C1663 C1679 1.349 . S
C1664 C1662 1.327 . S
C1664 C1683 1.429 . S
C1664 H1688 0.950 . S
C1665 C1682 1.574 . S
C1665 C1684 1.368 . S
C1665 H1689 0.949 . S
H1666 C1670 1.000 . S
C1667 C1668 1.349 . S
C1667 C1669 1.327 . S
C1667 H1690 0.950 . S
C1668 C1667 1.349 . S
C1668 C1680 1.349 . S
C1669 C1667 1.327 . S
C1669 C1685 1.429 . S
C1669 H1691 0.950 . S
C1670 H1666 1.000 . S
C1670 C1678 1.574 . S
C1670 C1686 1.368 . S
H1671 C1679 0.950 . S
H1672 C1677 0.950 . S
H1673 C1678 0.949 . S
H1674 C1680 0.950 1_565 S
H1675 C1681 0.936 1_565 S
H1676 C1682 0.949 . S
C1677 H1672 0.950 . S
C1677 C1679 1.327 . S
C1677 C1683 1.429 . S
C1678 C1670 1.574 . S
C1678 H1673 0.949 . S
C1678 C1684 1.368 . S
C1679 C1663 1.349 . S
C1679 H1671 0.950 . S
C1679 C1677 1.327 . S
C1680 C1668 1.349 . S
C1680 H1674 0.950 1_545 S
C1680 C1681 1.327 . S
C1681 H1675 0.936 1_545 S
C1681 C1680 1.327 . S
C1681 C1685 1.429 . S
C1682 C1665 1.574 . S
C1682 H1676 0.949 . S
C1682 C1686 1.368 . S
C1683 C1664 1.429 . S
C1683 C1677 1.429 . S
C1683 C1684 1.523 . S
C1684 C1665 1.368 . S
C1684 C1678 1.368 . S
C1684 C1683 1.523 . S
C1685 C1669 1.429 . S
C1685 C1681 1.429 . S
C1685 C1686 1.523 . S
C1686 C1670 1.368 . S
C1686 C1682 1.368 . S
C1686 C1685 1.523 . S
H1687 C1662 0.950 . S
H1688 C1664 0.950 . S
H1689 C1665 0.949 . S
H1690 C1667 0.950 . S
H1691 C1669 0.950 . S
C1692 C1693 1.349 . S
C1692 C1694 1.327 . S
C1692 H1717 0.950 . S
C1693 C1692 1.349 . S
C1693 C1709 1.349 . S
C1694 C1692 1.327 . S
C1694 C1713 1.429 . S
C1694 H1718 0.950 . S
C1695 C1712 1.574 . S
C1695 C1714 1.368 . S
C1695 H1719 0.949 . S
H1696 C1700 0.949 . S
C1697 C1698 1.349 . S
C1697 C1699 1.327 . S
C1697 H1720 0.950 . S
C1698 C1697 1.349 . S
C1698 C1710 1.349 . S
C1699 C1697 1.327 . S
C1699 C1715 1.429 . S
C1699 H1721 0.950 . S
C1700 H1696 0.949 . S
C1700 C1708 1.574 . S
C1700 C1716 1.368 . S
H1701 C1709 0.950 . S
H1702 C1707 0.950 . S
H1703 C1708 0.949 . S
H1704 C1710 0.950 . S
H1705 C1711 0.950 . S
H1706 C1712 0.949 . S
C1707 H1702 0.950 . S
C1707 C1709 1.327 . S
C1707 C1713 1.429 . S
C1708 C1700 1.574 . S
C1708 H1703 0.949 . S
C1708 C1714 1.368 . S
C1709 C1693 1.349 . S
C1709 H1701 0.950 . S
C1709 C1707 1.327 . S
C1710 C1698 1.349 . S
C1710 H1704 0.950 . S
C1710 C1711 1.327 . S
C1711 H1705 0.950 . S
C1711 C1710 1.327 . S
C1711 C1715 1.429 . S
C1712 C1695 1.574 . S
C1712 H1706 0.949 . S
C1712 C1716 1.368 . S
C1713 C1694 1.429 . S
C1713 C1707 1.429 . S
C1713 C1714 1.523 . S
C1714 C1695 1.368 . S
C1714 C1708 1.368 . S
C1714 C1713 1.523 . S
C1715 C1699 1.429 . S
C1715 C1711 1.429 . S
C1715 C1716 1.523 . S
C1716 C1700 1.368 . S
C1716 C1712 1.368 . S
C1716 C1715 1.523 . S
H1717 C1692 0.950 . S
H1718 C1694 0.950 . S
H1719 C1695 0.949 . S
H1720 C1697 0.950 . S
H1721 C1699 0.950 . S
C1722 C1723 1.349 . S
C1722 C1724 1.327 . S
C1722 H1747 0.950 . S
C1723 C1722 1.349 . S
C1723 C1739 1.349 . S
C1724 C1722 1.327 . S
C1724 C1743 1.429 . S
C1724 H1748 0.950 . S
C1725 C1742 1.574 . S
C1725 C1744 1.368 . S
C1725 H1749 0.949 . S
H1726 C1730 0.949 . S
C1727 C1728 1.349 . S
C1727 C1729 1.327 . S
C1727 H1750 0.950 . S
C1728 C1727 1.349 . S
C1728 C1740 1.349 . S
C1729 C1727 1.327 . S
C1729 C1745 1.429 . S
C1729 H1751 0.950 . S
C1730 H1726 0.949 . S
C1730 C1738 1.574 . S
C1730 C1746 1.368 . S
H1731 C1739 0.950 . S
H1732 C1737 0.950 . S
H1733 C1738 0.949 . S
H1734 C1740 0.950 . S
H1735 C1741 0.950 . S
H1736 C1742 0.949 . S
C1737 H1732 0.950 . S
C1737 C1739 1.327 . S
C1737 C1743 1.429 . S
C1738 C1730 1.574 . S
C1738 H1733 0.949 . S
C1738 C1744 1.368 . S
C1739 C1723 1.349 . S
C1739 H1731 0.950 . S
C1739 C1737 1.327 . S
C1740 C1728 1.349 . S
C1740 H1734 0.950 . S
C1740 C1741 1.327 . S
C1741 H1735 0.950 . S
C1741 C1740 1.327 . S
C1741 C1745 1.429 . S
C1742 C1725 1.574 . S
C1742 H1736 0.949 . S
C1742 C1746 1.368 . S
C1743 C1724 1.429 . S
C1743 C1737 1.429 . S
C1743 C1744 1.523 . S
C1744 C1725 1.368 . S
C1744 C1738 1.368 . S
C1744 C1743 1.523 . S
C1745 C1729 1.429 . S
C1745 C1741 1.429 . S
C1745 C1746 1.523 . S
C1746 C1730 1.368 . S
C1746 C1742 1.368 . S
C1746 C1745 1.523 . S
H1747 C1722 0.950 . S
H1748 C1724 0.950 . S
H1749 C1725 0.949 . S
H1750 C1727 0.950 . S
H1751 C1729 0.950 . S
C1752 C1753 1.349 . S
C1752 C1754 1.327 . S
C1752 H1777 0.950 . S
C1753 C1752 1.349 . S
C1753 C1769 1.349 . S
C1754 C1752 1.327 . S
C1754 C1773 1.429 . S
C1754 H1778 0.950 . S
C1755 C1772 1.574 . S
C1755 C1774 1.368 . S
C1755 H1779 0.949 . S
H1756 C1760 0.949 . S
C1757 C1758 1.349 . S
C1757 C1759 1.327 . S
C1757 H1780 0.950 . S
C1758 C1757 1.349 . S
C1758 C1770 1.349 . S
C1759 C1757 1.327 . S
C1759 C1775 1.429 . S
C1759 H1781 0.950 . S
C1760 H1756 0.949 . S
C1760 C1768 1.574 . S
C1760 C1776 1.368 . S
H1761 C1769 0.950 . S
H1762 C1767 0.950 . S
H1763 C1768 0.949 . S
H1764 C1770 0.950 . S
H1765 C1771 0.950 . S
H1766 C1772 0.949 . S
C1767 H1762 0.950 . S
C1767 C1769 1.327 . S
C1767 C1773 1.429 . S
C1768 C1760 1.574 . S
C1768 H1763 0.949 . S
C1768 C1774 1.368 . S
C1769 C1753 1.349 . S
C1769 H1761 0.950 . S
C1769 C1767 1.327 . S
C1770 C1758 1.349 . S
C1770 H1764 0.950 . S
C1770 C1771 1.327 . S
C1771 H1765 0.950 . S
C1771 C1770 1.327 . S
C1771 C1775 1.429 . S
C1772 C1755 1.574 . S
C1772 H1766 0.949 . S
C1772 C1776 1.368 . S
C1773 C1754 1.429 . S
C1773 C1767 1.429 . S
C1773 C1774 1.523 . S
C1774 C1755 1.368 . S
C1774 C1768 1.368 . S
C1774 C1773 1.523 . S
C1775 C1759 1.429 . S
C1775 C1771 1.429 . S
C1775 C1776 1.523 . S
C1776 C1760 1.368 . S
C1776 C1772 1.368 . S
C1776 C1775 1.523 . S
H1777 C1752 0.950 . S
H1778 C1754 0.950 . S
H1779 C1755 0.949 . S
H1780 C1757 0.950 . S
H1781 C1759 0.950 . S
C1782 C1783 1.349 . S
C1782 C1784 1.327 . S
C1782 H1807 0.950 1_556 S
C1783 C1782 1.349 . S
C1783 C1799 1.349 . S
C1784 C1782 1.327 . S
C1784 C1803 1.429 . S
C1784 H1808 0.950 . S
C1785 C1802 1.574 . S
C1785 C1804 1.368 1_455 S
C1785 H1809 0.949 . S
H1786 C1790 0.949 . S
C1787 C1788 1.349 . S
C1787 C1789 1.327 . S
C1787 H1810 0.950 . S
C1788 C1787 1.349 . S
C1788 C1800 1.349 . S
C1789 C1787 1.327 . S
C1789 C1805 1.429 . S
C1789 H1811 0.950 . S
C1790 H1786 0.949 . S
C1790 C1798 1.574 . S
C1790 C1806 1.368 1_655 S
H1791 C1799 0.938 1_455 S
H1792 C1797 0.956 . S
H1793 C1798 0.949 . S
H1794 C1800 0.958 . S
H1795 C1801 0.950 1_655 S
H1796 C1802 0.949 . S
C1797 H1792 0.956 . S
C1797 C1799 1.324 1_455 S
C1797 C1803 1.426 1_455 S
C1798 C1790 1.574 . S
C1798 H1793 0.949 . S
C1798 C1804 1.368 . S
C1799 C1783 1.349 . S
C1799 H1791 0.938 1_655 S
C1799 C1797 1.324 1_655 S
C1800 C1788 1.349 . S
C1800 H1794 0.958 . S
C1800 C1801 1.327 . S
C1801 H1795 0.950 1_455 S
C1801 C1800 1.327 . S
C1801 C1805 1.429 . S
C1802 C1785 1.574 . S
C1802 H1796 0.949 . S
C1802 C1806 1.368 . S
C1803 C1784 1.429 . S
C1803 C1797 1.426 1_655 S
C1803 C1804 1.523 . S
C1804 C1785 1.368 1_655 S
C1804 C1798 1.368 . S
C1804 C1803 1.523 . S
C1805 C1789 1.429 . S
C1805 C1801 1.429 . S
C1805 C1806 1.523 . S
C1806 C1790 1.368 1_455 S
C1806 C1802 1.368 . S
C1806 C1805 1.523 . S
H1807 C1782 0.950 1_554 S
H1808 C1784 0.950 . S
H1809 C1785 0.949 . S
H1810 C1787 0.950 . S
H1811 C1789 0.950 . S
C1812 C1813 1.349 . S
C1812 C1814 1.327 . S
C1812 H1837 0.950 . S
C1813 C1812 1.349 . S
C1813 C1829 1.349 . S
C1814 C1812 1.327 . S
C1814 C1833 1.429 . S
C1814 H1838 0.950 . S
C1815 C1832 1.574 . S
C1815 C1834 1.368 . S
C1815 H1839 0.949 . S
H1816 C1820 0.949 . S
C1817 C1818 1.349 . S
C1817 C1819 1.327 . S
C1817 H1840 0.950 . S
C1818 C1817 1.349 . S
C1818 C1830 1.349 . S
C1819 C1817 1.327 . S
C1819 C1835 1.429 . S
C1819 H1841 0.950 . S
C1820 H1816 0.949 . S
C1820 C1828 1.574 . S
C1820 C1836 1.368 . S
H1821 C1829 0.950 . S
H1822 C1827 0.950 . S
H1823 C1828 0.949 . S
H1824 C1830 0.950 . S
H1825 C1831 0.950 . S
H1826 C1832 0.949 . S
C1827 H1822 0.950 . S
C1827 C1829 1.327 . S
C1827 C1833 1.429 . S
C1828 C1820 1.574 . S
C1828 H1823 0.949 . S
C1828 C1834 1.368 . S
C1829 C1813 1.349 . S
C1829 H1821 0.950 . S
C1829 C1827 1.327 . S
C1830 C1818 1.349 . S
C1830 H1824 0.950 . S
C1830 C1831 1.327 . S
C1831 H1825 0.950 . S
C1831 C1830 1.327 . S
C1831 C1835 1.429 . S
C1832 C1815 1.574 . S
C1832 H1826 0.949 . S
C1832 C1836 1.368 . S
C1833 C1814 1.429 . S
C1833 C1827 1.429 . S
C1833 C1834 1.523 . S
C1834 C1815 1.368 . S
C1834 C1828 1.368 . S
C1834 C1833 1.523 . S
C1835 C1819 1.429 . S
C1835 C1831 1.429 . S
C1835 C1836 1.523 . S
C1836 C1820 1.368 . S
C1836 C1832 1.368 . S
C1836 C1835 1.523 . S
H1837 C1812 0.950 . S
H1838 C1814 0.950 . S
H1839 C1815 0.949 . S
H1840 C1817 0.950 . S
H1841 C1819 0.950 . S
C1842 C1843 1.349 . S
C1842 C1844 1.327 . S
C1842 H1867 0.950 . S
C1843 C1842 1.349 . S
C1843 C1859 1.349 . S
C1844 C1842 1.327 . S
C1844 C1863 1.429 . S
C1844 H1868 0.950 . S
C1845 C1862 1.574 . S
C1845 C1864 1.368 . S
C1845 H1869 0.949 . S
H1846 C1850 0.949 . S
C1847 C1848 1.349 . S
C1847 C1849 1.327 . S
C1847 H1870 0.950 . S
C1848 C1847 1.349 . S
C1848 C1860 1.349 . S
C1849 C1847 1.327 . S
C1849 C1865 1.429 . S
C1849 H1871 0.950 . S
C1850 H1846 0.949 . S
C1850 C1858 1.574 . S
C1850 C1866 1.368 . S
H1851 C1859 0.950 . S
H1852 C1857 0.950 . S
H1853 C1858 0.949 . S
H1854 C1860 0.950 . S
H1855 C1861 0.950 . S
H1856 C1862 0.949 . S
C1857 H1852 0.950 . S
C1857 C1859 1.327 . S
C1857 C1863 1.429 . S
C1858 C1850 1.574 . S
C1858 H1853 0.949 . S
C1858 C1864 1.368 . S
C1859 C1843 1.349 . S
C1859 H1851 0.950 . S
C1859 C1857 1.327 . S
C1860 C1848 1.349 . S
C1860 H1854 0.950 . S
C1860 C1861 1.327 . S
C1861 H1855 0.950 . S
C1861 C1860 1.327 . S
C1861 C1865 1.429 . S
C1862 C1845 1.574 . S
C1862 H1856 0.949 . S
C1862 C1866 1.368 . S
C1863 C1844 1.429 . S
C1863 C1857 1.429 . S
C1863 C1864 1.523 . S
C1864 C1845 1.368 . S
C1864 C1858 1.368 . S
C1864 C1863 1.523 . S
C1865 C1849 1.429 . S
C1865 C1861 1.429 . S
C1865 C1866 1.523 . S
C1866 C1850 1.368 . S
C1866 C1862 1.368 . S
C1866 C1865 1.523 . S
H1867 C1842 0.950 . S
H1868 C1844 0.950 . S
H1869 C1845 0.949 . S
H1870 C1847 0.950 . S
H1871 C1849 0.950 . S
C1872 C1873 1.349 . S
C1872 C1874 1.327 . S
C1872 H1897 0.950 . S
C1873 C1872 1.349 . S
C1873 C1889 1.349 . S
C1874 C1872 1.327 . S
C1874 C1893 1.429 . S
C1874 H1898 0.950 . S
C1875 C1892 1.574 . S
C1875 C1894 1.368 . S
C1875 H1899 0.949 . S
H1876 C1880 0.949 . S
C1877 C1878 1.349 . S
C1877 C1879 1.327 . S
C1877 H1900 0.950 . S
C1878 C1877 1.349 . S
C1878 C1890 1.349 . S
C1879 C1877 1.327 . S
C1879 C1895 1.429 . S
C1879 H1901 0.950 . S
C1880 H1876 0.949 . S
C1880 C1888 1.574 . S
C1880 C1896 1.368 . S
H1881 C1889 0.950 . S
H1882 C1887 0.950 . S
H1883 C1888 0.949 . S
H1884 C1890 0.950 . S
H1885 C1891 0.950 . S
H1886 C1892 0.949 . S
C1887 H1882 0.950 . S
C1887 C1889 1.327 . S
C1887 C1893 1.429 . S
C1888 C1880 1.574 . S
C1888 H1883 0.949 . S
C1888 C1894 1.368 . S
C1889 C1873 1.349 . S
C1889 H1881 0.950 . S
C1889 C1887 1.327 . S
C1890 C1878 1.349 . S
C1890 H1884 0.950 . S
C1890 C1891 1.327 . S
C1891 H1885 0.950 . S
C1891 C1890 1.327 . S
C1891 C1895 1.429 . S
C1892 C1875 1.574 . S
C1892 H1886 0.949 . S
C1892 C1896 1.368 . S
C1893 C1874 1.429 . S
C1893 C1887 1.429 . S
C1893 C1894 1.523 . S
C1894 C1875 1.368 . S
C1894 C1888 1.368 . S
C1894 C1893 1.523 . S
C1895 C1879 1.429 . S
C1895 C1891 1.429 . S
C1895 C1896 1.523 . S
C1896 C1880 1.368 . S
C1896 C1892 1.368 . S
C1896 C1895 1.523 . S
H1897 C1872 0.950 . S
H1898 C1874 0.950 . S
H1899 C1875 0.949 . S
H1900 C1877 0.950 . S
H1901 C1879 0.950 . S
C1902 C1903 1.349 . S
C1902 C1904 1.327 . S
C1902 H1927 0.950 . S
C1903 C1902 1.349 . S
C1903 C1919 1.349 . S
C1904 C1902 1.327 . S
C1904 C1923 1.429 . S
C1904 H1928 0.950 . S
C1905 C1922 1.574 . S
C1905 C1924 1.368 . S
C1905 H1929 0.949 . S
H1906 C1910 0.949 . S
C1907 C1908 1.349 . S
C1907 C1909 1.327 . S
C1907 H1930 0.950 . S
C1908 C1907 1.349 . S
C1908 C1920 1.349 . S
C1909 C1907 1.327 . S
C1909 C1925 1.429 . S
C1909 H1931 0.950 . S
C1910 H1906 0.949 . S
C1910 C1918 1.574 . S
C1910 C1926 1.368 . S
H1911 C1919 0.950 1_556 S
H1912 C1917 0.950 . S
H1913 C1918 0.949 . S
H1914 C1920 0.950 . S
H1915 C1921 0.950 . S
H1916 C1922 0.949 . S
C1917 H1912 0.950 . S
C1917 C1919 1.327 . S
C1917 C1923 1.429 . S
C1918 C1910 1.574 . S
C1918 H1913 0.949 . S
C1918 C1924 1.368 . S
C1919 C1903 1.349 . S
C1919 H1911 0.950 1_554 S
C1919 C1917 1.327 . S
C1920 C1908 1.349 . S
C1920 H1914 0.950 . S
C1920 C1921 1.327 . S
C1921 H1915 0.950 . S
C1921 C1920 1.327 . S
C1921 C1925 1.429 . S
C1922 C1905 1.574 . S
C1922 H1916 0.949 . S
C1922 C1926 1.368 . S
C1923 C1904 1.429 . S
C1923 C1917 1.429 . S
C1923 C1924 1.523 . S
C1924 C1905 1.368 . S
C1924 C1918 1.368 . S
C1924 C1923 1.523 . S
C1925 C1909 1.429 . S
C1925 C1921 1.429 . S
C1925 C1926 1.523 . S
C1926 C1910 1.368 . S
C1926 C1922 1.368 . S
C1926 C1925 1.523 . S
H1927 C1902 0.950 . S
H1928 C1904 0.950 . S
H1929 C1905 0.949 . S
H1930 C1907 0.950 . S
H1931 C1909 0.950 . S
C1932 C1933 1.349 . S
C1932 C1934 1.327 . S
C1932 H1957 0.950 . S
C1933 C1932 1.349 . S
C1933 C1949 1.349 . S
C1934 C1932 1.327 . S
C1934 C1953 1.429 . S
C1934 H1958 0.950 . S
C1935 C1952 1.574 . S
C1935 C1954 1.368 . S
C1935 H1959 0.949 . S
H1936 C1940 0.949 . S
C1937 C1938 1.349 . S
C1937 C1939 1.327 . S
C1937 H1960 0.950 . S
C1938 C1937 1.349 . S
C1938 C1950 1.349 . S
C1939 C1937 1.327 . S
C1939 C1955 1.429 . S
C1939 H1961 0.950 . S
C1940 H1936 0.949 . S
C1940 C1948 1.574 . S
C1940 C1956 1.368 . S
H1941 C1949 0.950 . S
H1942 C1947 0.950 . S
H1943 C1948 0.949 . S
H1944 C1950 0.950 . S
H1945 C1951 0.950 . S
H1946 C1952 0.949 . S
C1947 H1942 0.950 . S
C1947 C1949 1.327 . S
C1947 C1953 1.429 . S
C1948 C1940 1.574 . S
C1948 H1943 0.949 . S
C1948 C1954 1.368 . S
C1949 C1933 1.349 . S
C1949 H1941 0.950 . S
C1949 C1947 1.327 . S
C1950 C1938 1.349 . S
C1950 H1944 0.950 . S
C1950 C1951 1.327 . S
C1951 H1945 0.950 . S
C1951 C1950 1.327 . S
C1951 C1955 1.429 . S
C1952 C1935 1.574 . S
C1952 H1946 0.949 . S
C1952 C1956 1.368 . S
C1953 C1934 1.429 . S
C1953 C1947 1.429 . S
C1953 C1954 1.523 . S
C1954 C1935 1.368 . S
C1954 C1948 1.368 . S
C1954 C1953 1.523 . S
C1955 C1939 1.429 . S
C1955 C1951 1.429 . S
C1955 C1956 1.523 . S
C1956 C1940 1.368 . S
C1956 C1952 1.368 . S
C1956 C1955 1.523 . S
H1957 C1932 0.950 . S
H1958 C1934 0.950 . S
H1959 C1935 0.949 . S
H1960 C1937 0.950 . S
H1961 C1939 0.950 . S
C1962 C1963 1.349 . S
C1962 C1964 1.327 . S
C1962 H1987 0.950 . S
C1963 C1962 1.349 . S
C1963 C1979 1.349 . S
C1964 C1962 1.327 . S
C1964 C1983 1.429 . S
C1964 H1988 0.950 . S
C1965 C1982 1.574 . S
C1965 C1984 1.368 . S
C1965 H1989 0.949 . S
H1966 C1970 0.949 . S
C1967 C1968 1.349 . S
C1967 C1969 1.327 . S
C1967 H1990 0.950 . S
C1968 C1967 1.349 . S
C1968 C1980 1.349 . S
C1969 C1967 1.327 . S
C1969 C1985 1.429 . S
C1969 H1991 0.950 . S
C1970 H1966 0.949 . S
C1970 C1978 1.574 . S
C1970 C1986 1.368 . S
H1971 C1979 0.950 . S
H1972 C1977 0.950 . S
H1973 C1978 0.949 . S
H1974 C1980 0.950 . S
H1975 C1981 0.950 . S
H1976 C1982 0.949 . S
C1977 H1972 0.950 . S
C1977 C1979 1.327 . S
C1977 C1983 1.429 . S
C1978 C1970 1.574 . S
C1978 H1973 0.949 . S
C1978 C1984 1.368 . S
C1979 C1963 1.349 . S
C1979 H1971 0.950 . S
C1979 C1977 1.327 . S
C1980 C1968 1.349 . S
C1980 H1974 0.950 . S
C1980 C1981 1.327 . S
C1981 H1975 0.950 . S
C1981 C1980 1.327 . S
C1981 C1985 1.429 . S
C1982 C1965 1.574 . S
C1982 H1976 0.949 . S
C1982 C1986 1.368 . S
C1983 C1964 1.429 . S
C1983 C1977 1.429 . S
C1983 C1984 1.523 . S
C1984 C1965 1.368 . S
C1984 C1978 1.368 . S
C1984 C1983 1.523 . S
C1985 C1969 1.429 . S
C1985 C1981 1.429 . S
C1985 C1986 1.523 . S
C1986 C1970 1.368 . S
C1986 C1982 1.368 . S
C1986 C1985 1.523 . S
H1987 C1962 0.950 . S
H1988 C1964 0.950 . S
H1989 C1965 0.949 . S
H1990 C1967 0.950 . S
H1991 C1969 0.950 . S
C1992 C1993 1.349 . S
C1992 C1994 1.327 . S
C1992 H2017 0.950 . S
C1993 C1992 1.349 . S
C1993 C2009 1.349 . S
C1994 C1992 1.327 . S
C1994 C2013 1.429 . S
C1994 H2018 0.950 . S
C1995 C2012 1.574 . S
C1995 C2014 1.368 . S
C1995 H2019 0.949 . S
H1996 C2000 0.949 . S
C1997 C1998 1.349 . S
C1997 C1999 1.327 . S
C1997 H2020 0.950 . S
C1998 C1997 1.349 . S
C1998 C2010 1.349 . S
C1999 C1997 1.327 . S
C1999 C2015 1.429 . S
C1999 H2021 0.950 . S
C2000 H1996 0.949 . S
C2000 C2008 1.574 . S
C2000 C2016 1.368 . S
H2001 C2009 0.950 . S
H2002 C2007 0.950 . S
H2003 C2008 0.949 . S
H2004 C2010 0.950 . S
H2005 C2011 0.950 . S
H2006 C2012 0.949 . S
C2007 H2002 0.950 . S
C2007 C2009 1.327 . S
C2007 C2013 1.429 . S
C2008 C2000 1.574 . S
C2008 H2003 0.949 . S
C2008 C2014 1.368 . S
C2009 C1993 1.349 . S
C2009 H2001 0.950 . S
C2009 C2007 1.327 . S
C2010 C1998 1.349 . S
C2010 H2004 0.950 . S
C2010 C2011 1.327 . S
C2011 H2005 0.950 . S
C2011 C2010 1.327 . S
C2011 C2015 1.429 . S
C2012 C1995 1.574 . S
C2012 H2006 0.949 . S
C2012 C2016 1.368 . S
C2013 C1994 1.429 . S
C2013 C2007 1.429 . S
C2013 C2014 1.523 . S
C2014 C1995 1.368 . S
C2014 C2008 1.368 . S
C2014 C2013 1.523 . S
C2015 C1999 1.429 . S
C2015 C2011 1.429 . S
C2015 C2016 1.523 . S
C2016 C2000 1.368 . S
C2016 C2012 1.368 . S
C2016 C2015 1.523 . S
H2017 C1992 0.950 . S
H2018 C1994 0.950 . S
H2019 C1995 0.949 . S
H2020 C1997 0.950 . S
H2021 C1999 0.950 . S
C2022 C2023 1.349 . S
C2022 C2024 1.327 . S
C2022 H2047 0.950 . S
C2023 C2022 1.349 . S
C2023 C2039 1.349 . S
C2024 C2022 1.327 . S
C2024 C2043 1.429 . S
C2024 H2048 0.950 . S
C2025 C2042 1.574 . S
C2025 C2044 1.368 . S
C2025 H2049 0.949 . S
H2026 C2030 0.949 . S
C2027 C2028 1.349 . S
C2027 C2029 1.327 . S
C2027 H2050 0.950 . S
C2028 C2027 1.349 . S
C2028 C2040 1.349 . S
C2029 C2027 1.327 . S
C2029 C2045 1.429 . S
C2029 H2051 0.950 . S
C2030 H2026 0.949 . S
C2030 C2038 1.574 . S
C2030 C2046 1.368 . S
H2031 C2039 0.950 . S
H2032 C2037 0.950 . S
H2033 C2038 0.949 . S
H2034 C2040 0.950 . S
H2035 C2041 0.950 . S
H2036 C2042 0.949 . S
C2037 H2032 0.950 . S
C2037 C2039 1.327 . S
C2037 C2043 1.429 . S
C2038 C2030 1.574 . S
C2038 H2033 0.949 . S
C2038 C2044 1.368 . S
C2039 C2023 1.349 . S
C2039 H2031 0.950 . S
C2039 C2037 1.327 . S
C2040 C2028 1.349 . S
C2040 H2034 0.950 . S
C2040 C2041 1.327 . S
C2041 H2035 0.950 . S
C2041 C2040 1.327 . S
C2041 C2045 1.429 . S
C2042 C2025 1.574 . S
C2042 H2036 0.949 . S
C2042 C2046 1.368 . S
C2043 C2024 1.429 . S
C2043 C2037 1.429 . S
C2043 C2044 1.523 . S
C2044 C2025 1.368 . S
C2044 C2038 1.368 . S
C2044 C2043 1.523 . S
C2045 C2029 1.429 . S
C2045 C2041 1.429 . S
C2045 C2046 1.523 . S
C2046 C2030 1.368 . S
C2046 C2042 1.368 . S
C2046 C2045 1.523 . S
H2047 C2022 0.950 . S
H2048 C2024 0.950 . S
H2049 C2025 0.949 . S
H2050 C2027 0.950 . S
H2051 C2029 0.950 . S
C2052 C2053 1.349 . S
C2052 C2054 1.327 . S
C2052 H2077 0.950 . S
C2053 C2052 1.349 . S
C2053 C2069 1.349 . S
C2054 C2052 1.327 . S
C2054 C2073 1.429 . S
C2054 H2078 0.950 . S
C2055 C2072 1.574 . S
C2055 C2074 1.368 . S
C2055 H2079 0.949 . S
H2056 C2060 0.949 . S
C2057 C2058 1.349 . S
C2057 C2059 1.327 . S
C2057 H2080 0.950 . S
C2058 C2057 1.349 . S
C2058 C2070 1.349 . S
C2059 C2057 1.327 . S
C2059 C2075 1.429 . S
C2059 H2081 0.950 . S
C2060 H2056 0.949 . S
C2060 C2068 1.574 . S
C2060 C2076 1.368 . S
H2061 C2069 0.950 . S
H2062 C2067 0.950 . S
H2063 C2068 0.949 . S
H2064 C2070 0.950 . S
H2065 C2071 0.950 . S
H2066 C2072 0.949 . S
C2067 H2062 0.950 . S
C2067 C2069 1.327 . S
C2067 C2073 1.429 . S
C2068 C2060 1.574 . S
C2068 H2063 0.949 . S
C2068 C2074 1.368 . S
C2069 C2053 1.349 . S
C2069 H2061 0.950 . S
C2069 C2067 1.327 . S
C2070 C2058 1.349 . S
C2070 H2064 0.950 . S
C2070 C2071 1.327 . S
C2071 H2065 0.950 . S
C2071 C2070 1.327 . S
C2071 C2075 1.429 . S
C2072 C2055 1.574 . S
C2072 H2066 0.949 . S
C2072 C2076 1.368 . S
C2073 C2054 1.429 . S
C2073 C2067 1.429 . S
C2073 C2074 1.523 . S
C2074 C2055 1.368 . S
C2074 C2068 1.368 . S
C2074 C2073 1.523 . S
C2075 C2059 1.429 . S
C2075 C2071 1.429 . S
C2075 C2076 1.523 . S
C2076 C2060 1.368 . S
C2076 C2072 1.368 . S
C2076 C2075 1.523 . S
H2077 C2052 0.950 . S
H2078 C2054 0.950 . S
H2079 C2055 0.949 . S
H2080 C2057 0.950 . S
H2081 C2059 0.950 . S
C2082 C2083 1.349 . S
C2082 C2084 1.327 . S
C2082 H2107 0.950 . S
C2083 C2082 1.349 . S
C2083 C2099 1.349 . S
C2084 C2082 1.327 . S
C2084 C2103 1.429 . S
C2084 H2108 0.950 . S
C2085 C2102 1.574 . S
C2085 C2104 1.368 . S
C2085 H2109 0.949 . S
H2086 C2090 0.949 . S
C2087 C2088 1.349 . S
C2087 C2089 1.327 . S
C2087 H2110 0.950 . S
C2088 C2087 1.349 . S
C2088 C2100 1.349 . S
C2089 C2087 1.327 . S
C2089 C2105 1.429 . S
C2089 H2111 0.950 . S
C2090 H2086 0.949 . S
C2090 C2098 1.574 . S
C2090 C2106 1.368 . S
H2091 C2099 0.950 . S
H2092 C2097 0.950 . S
H2093 C2098 0.949 . S
H2094 C2100 0.950 . S
H2095 C2101 0.950 . S
H2096 C2102 0.949 . S
C2097 H2092 0.950 . S
C2097 C2099 1.327 . S
C2097 C2103 1.429 . S
C2098 C2090 1.574 . S
C2098 H2093 0.949 . S
C2098 C2104 1.368 . S
C2099 C2083 1.349 . S
C2099 H2091 0.950 . S
C2099 C2097 1.327 . S
C2100 C2088 1.349 . S
C2100 H2094 0.950 . S
C2100 C2101 1.327 . S
C2101 H2095 0.950 . S
C2101 C2100 1.327 . S
C2101 C2105 1.429 . S
C2102 C2085 1.574 . S
C2102 H2096 0.949 . S
C2102 C2106 1.368 . S
C2103 C2084 1.429 . S
C2103 C2097 1.429 . S
C2103 C2104 1.523 . S
C2104 C2085 1.368 . S
C2104 C2098 1.368 . S
C2104 C2103 1.523 . S
C2105 C2089 1.429 . S
C2105 C2101 1.429 . S
C2105 C2106 1.523 . S
C2106 C2090 1.368 . S
C2106 C2102 1.368 . S
C2106 C2105 1.523 . S
H2107 C2082 0.950 . S
H2108 C2084 0.950 . S
H2109 C2085 0.949 . S
H2110 C2087 0.950 . S
H2111 C2089 0.950 . S
C2112 C2113 1.349 . S
C2112 C2114 1.327 . S
C2112 H2137 0.950 . S
C2113 C2112 1.349 . S
C2113 C2129 1.349 . S
C2114 C2112 1.327 . S
C2114 C2133 1.429 . S
C2114 H2138 0.920 1_556 S
C2115 C2132 1.574 . S
C2115 C2134 1.368 . S
C2115 H2139 0.949 . S
H2116 C2120 0.949 . S
C2117 C2118 1.379 . S
C2117 C2119 1.327 . S
C2117 H2140 0.950 . S
C2118 C2117 1.379 . S
C2118 C2130 1.325 1_556 S
C2119 C2117 1.327 . S
C2119 C2135 1.429 . S
C2119 H2141 0.950 . S
C2120 H2116 0.949 . S
C2120 C2128 1.574 1_554 S
C2120 C2136 1.368 1_554 S
H2121 C2129 0.950 . S
H2122 C2127 0.950 . S
H2123 C2128 0.949 1_554 S
H2124 C2130 0.950 . S
H2125 C2131 0.950 . S
H2126 C2132 0.949 . S
C2127 H2122 0.950 . S
C2127 C2129 1.327 . S
C2127 C2133 1.429 . S
C2128 C2120 1.574 1_556 S
C2128 H2123 0.949 1_556 S
C2128 C2134 1.368 . S
C2129 C2113 1.349 . S
C2129 H2121 0.950 . S
C2129 C2127 1.327 . S
C2130 C2118 1.325 1_554 S
C2130 H2124 0.950 . S
C2130 C2131 1.327 . S
C2131 H2125 0.950 . S
C2131 C2130 1.327 . S
C2131 C2135 1.429 1_554 S
C2132 C2115 1.574 . S
C2132 H2126 0.949 . S
C2132 C2136 1.368 . S
C2133 C2114 1.429 . S
C2133 C2127 1.429 . S
C2133 C2134 1.523 . S
C2134 C2115 1.368 . S
C2134 C2128 1.368 . S
C2134 C2133 1.523 . S
C2135 C2119 1.429 . S
C2135 C2131 1.429 1_556 S
C2135 C2136 1.523 . S
C2136 C2120 1.368 1_556 S
C2136 C2132 1.368 . S
C2136 C2135 1.523 . S
H2137 C2112 0.950 . S
H2138 C2114 0.920 1_554 S
H2139 C2115 0.949 . S
H2140 C2117 0.950 . S
H2141 C2119 0.950 . S
C2142 C2143 1.349 . S
C2142 C2144 1.327 . S
C2142 H2167 0.950 . S
C2143 C2142 1.349 . S
C2143 C2159 1.349 . S
C2144 C2142 1.327 . S
C2144 C2163 1.429 . S
C2144 H2168 0.950 . S
C2145 C2162 1.574 . S
C2145 C2164 1.368 . S
C2145 H2169 0.949 . S
H2146 C2150 0.949 . S
C2147 C2148 1.349 . S
C2147 C2149 1.327 . S
C2147 H2170 0.950 . S
C2148 C2147 1.349 . S
C2148 C2160 1.349 . S
C2149 C2147 1.327 . S
C2149 C2165 1.429 . S
C2149 H2171 0.950 . S
C2150 H2146 0.949 . S
C2150 C2158 1.574 . S
C2150 C2166 1.368 . S
H2151 C2159 0.950 . S
H2152 C2157 0.950 . S
H2153 C2158 0.949 . S
H2154 C2160 0.950 . S
H2155 C2161 0.950 . S
H2156 C2162 0.949 . S
C2157 H2152 0.950 . S
C2157 C2159 1.327 . S
C2157 C2163 1.429 . S
C2158 C2150 1.574 . S
C2158 H2153 0.949 . S
C2158 C2164 1.368 . S
C2159 C2143 1.349 . S
C2159 H2151 0.950 . S
C2159 C2157 1.327 . S
C2160 C2148 1.349 . S
C2160 H2154 0.950 . S
C2160 C2161 1.327 . S
C2161 H2155 0.950 . S
C2161 C2160 1.327 . S
C2161 C2165 1.429 . S
C2162 C2145 1.574 . S
C2162 H2156 0.949 . S
C2162 C2166 1.368 . S
C2163 C2144 1.429 . S
C2163 C2157 1.429 . S
C2163 C2164 1.523 . S
C2164 C2145 1.368 . S
C2164 C2158 1.368 . S
C2164 C2163 1.523 . S
C2165 C2149 1.429 . S
C2165 C2161 1.429 . S
C2165 C2166 1.523 . S
C2166 C2150 1.368 . S
C2166 C2162 1.368 . S
C2166 C2165 1.523 . S
H2167 C2142 0.950 . S
H2168 C2144 0.950 . S
H2169 C2145 0.949 . S
H2170 C2147 0.950 . S
H2171 C2149 0.950 . S
C2172 C2173 1.349 . S
C2172 C2174 1.327 . S
C2172 H2197 0.950 . S
C2173 C2172 1.349 . S
C2173 C2189 1.349 . S
C2174 C2172 1.327 . S
C2174 C2193 1.429 . S
C2174 H2198 0.950 . S
C2175 C2192 1.574 . S
C2175 C2194 1.368 . S
C2175 H2199 0.949 . S
H2176 C2180 0.949 . S
C2177 C2178 1.349 . S
C2177 C2179 1.327 . S
C2177 H2200 0.950 . S
C2178 C2177 1.349 . S
C2178 C2190 1.349 . S
C2179 C2177 1.327 . S
C2179 C2195 1.429 . S
C2179 H2201 0.950 . S
C2180 H2176 0.949 . S
C2180 C2188 1.574 . S
C2180 C2196 1.368 . S
H2181 C2189 0.950 . S
H2182 C2187 0.950 . S
H2183 C2188 0.949 . S
H2184 C2190 0.950 1_556 S
H2185 C2191 0.939 1_556 S
H2186 C2192 0.949 . S
C2187 H2182 0.950 . S
C2187 C2189 1.327 . S
C2187 C2193 1.429 . S
C2188 C2180 1.574 . S
C2188 H2183 0.949 . S
C2188 C2194 1.368 . S
C2189 C2173 1.349 . S
C2189 H2181 0.950 . S
C2189 C2187 1.327 . S
C2190 C2178 1.349 . S
C2190 H2184 0.950 1_554 S
C2190 C2191 1.327 . S
C2191 H2185 0.939 1_554 S
C2191 C2190 1.327 . S
C2191 C2195 1.429 . S
C2192 C2175 1.574 . S
C2192 H2186 0.949 . S
C2192 C2196 1.368 . S
C2193 C2174 1.429 . S
C2193 C2187 1.429 . S
C2193 C2194 1.523 . S
C2194 C2175 1.368 . S
C2194 C2188 1.368 . S
C2194 C2193 1.523 . S
C2195 C2179 1.429 . S
C2195 C2191 1.429 . S
C2195 C2196 1.523 . S
C2196 C2180 1.368 . S
C2196 C2192 1.368 . S
C2196 C2195 1.523 . S
H2197 C2172 0.950 . S
H2198 C2174 0.950 . S
H2199 C2175 0.949 . S
H2200 C2177 0.950 . S
H2201 C2179 0.950 . S
C2202 C2203 1.349 . S
C2202 C2204 1.327 . S
C2202 H2227 0.950 . S
C2203 C2202 1.349 . S
C2203 C2219 1.349 . S
C2204 C2202 1.327 . S
C2204 C2223 1.429 . S
C2204 H2228 0.950 . S
C2205 C2222 1.574 . S
C2205 C2224 1.368 . S
C2205 H2229 0.942 1_554 S
H2206 C2210 0.949 . S
C2207 C2208 1.351 . S
C2207 C2209 1.328 . S
C2207 H2230 0.947 1_554 S
C2208 C2207 1.351 . S
C2208 C2220 1.349 . S
C2209 C2207 1.328 . S
C2209 C2225 1.429 . S
C2209 H2231 0.950 1_554 S
C2210 H2206 0.949 . S
C2210 C2218 1.574 . S
C2210 C2226 1.368 . S
H2211 C2219 1.014 . S
H2212 C2217 0.950 . S
H2213 C2218 0.949 . S
H2214 C2220 0.950 . S
H2215 C2221 0.950 . S
H2216 C2222 0.949 1_556 S
C2217 H2212 0.950 . S
C2217 C2219 1.327 . S
C2217 C2223 1.429 . S
C2218 C2210 1.574 . S
C2218 H2213 0.949 . S
C2218 C2224 1.368 . S
C2219 C2203 1.349 . S
C2219 H2211 1.014 . S
C2219 C2217 1.327 . S
C2220 C2208 1.349 . S
C2220 H2214 0.950 . S
C2220 C2221 1.327 . S
C2221 H2215 0.950 . S
C2221 C2220 1.327 . S
C2221 C2225 1.429 . S
C2222 C2205 1.574 . S
C2222 H2216 0.949 1_554 S
C2222 C2226 1.368 . S
C2223 C2204 1.429 . S
C2223 C2217 1.429 . S
C2223 C2224 1.523 . S
C2224 C2205 1.368 . S
C2224 C2218 1.368 . S
C2224 C2223 1.523 . S
C2225 C2209 1.429 . S
C2225 C2221 1.429 . S
C2225 C2226 1.523 . S
C2226 C2210 1.368 . S
C2226 C2222 1.368 . S
C2226 C2225 1.523 . S
H2227 C2202 0.950 . S
H2228 C2204 0.950 . S
H2229 C2205 0.942 1_556 S
H2230 C2207 0.947 1_556 S
H2231 C2209 0.950 1_556 S
C798 C635 1.428 . S
C793 C211 1.450 . S
C828 C643 1.289 . S
C823 C255 1.544 . S
C853 C274 1.426 . S
C858 C663 1.404 . S
C888 C677 1.509 . S
C883 C157 1.532 1_655 S
C918 C692 1.544 . S
C913 C391 1.544 . S
C948 C706 1.513 . S
C943 C484 1.510 . S
C973 C450 1.572 . S
C978 C720 1.572 . S
C1008 C726 1.443 . S
C1003 C352 1.484 . S
C1033 C430 1.522 . S
C1038 C740 1.484 . S
C1068 C761 1.553 . S
C1063 C367 1.578 . S
C1093 C411 1.478 . S
C1098 C741 1.246 . S
C1128 C762 1.540 . S
C1123 C469 1.538 . S
C1153 C294 1.470 . S
C1158 C769 1.222 . S
C1183 C177 1.518 . S
C1188 C775 1.497 . S
C1213 C196 1.507 . S
C1218 C768 1.466 . S
C1243 C235 1.470 . S
C1248 C776 1.472 . S
C1273 C133 1.500 . S
C1278 C670 1.460 . S
C1303 C567 1.486 . S
C1308 C671 1.249 . S
C1338 C628 1.521 . S
C1333 C601 1.566 . S
C1368 C649 1.430 . S
C1363 C328 1.455 . S
C1393 C172 1.489 . S
C1398 C684 1.451 . S
C1428 C734 1.535 . S
C1423 C445 1.535 . S
C1458 C685 1.226 . S
C1453 C372 1.460 . S
C1488 C713 1.280 . S
C1483 C489 1.550 . S
C1518 C719 1.428 . S
C1513 C562 1.450 . S
C1543 C606 1.544 . S
C1548 C727 1.289 . S
C1573 C313 1.426 . S
C1578 C691 1.404 . S
C1608 C705 1.509 . S
C1603 C508 1.532 . S
C1633 C118 1.544 . S
C1638 C664 1.544 . S
C1668 C678 1.513 . S
C1663 C16 1.510 . S
C1698 C636 1.572 . S
C1693 C60 1.572 . S
C1728 C642 1.443 . S
C1723 C79 1.484 . S
C1753 C40 1.522 . S
C1758 C754 1.484 . S
C1783 C94 1.578 1_556 S
C1788 C747 1.553 . S
C1813 C138 1.478 . S
C1818 C755 1.246 . S
C1843 C1 1.538 . S
C1848 C748 1.540 . S
C1878 C783 1.222 . S
C1873 C333 1.470 . S
C1908 C789 1.497 . S
C1903 C528 1.518 . S
C1938 C782 1.466 . S
C1933 C547 1.507 . S
C1963 C586 1.470 . S
C1968 C790 1.472 . S
C1993 C406 1.500 . S
C1998 C698 1.460 . S
C2028 C699 1.249 . S
C2023 C216 1.486 . S
C2058 C712 1.520 . S
C2053 C250 1.566 . S
C2088 C733 1.430 . S
C2083 C289 1.455 . S
C2113 C523 1.489 . S
C2118 C656 1.448 1_556 S
C2148 C650 1.535 . S
C2143 C55 1.535 . S
C2173 C99 1.460 . S
C2178 C657 1.226 . S
C2208 C629 1.280 . S
C2203 C21 1.550 . S
