# Generated by pormake.
# Topology ctn, (3,4)-cn, num edge types: 1
# Building blocks:
#     Node 0, Type 0, BuildingBlock: ESEHIV_clean_linker_0, # of connection points: 3
#     Node 1, Type 0, BuildingBlock: ESEHIV_clean_linker_0, # of connection points: 3
#     Node 2, Type 0, BuildingBlock: ESEHIV_clean_linker_0, # of connection points: 3
#     Node 3, Type 0, BuildingBlock: ESEHIV_clean_linker_0, # of connection points: 3
#     Node 4, Type 0, BuildingBlock: ESEHIV_clean_linker_0, # of connection points: 3
#     Node 5, Type 0, BuildingBlock: ESEHIV_clean_linker_0, # of connection points: 3
#     Node 6, Type 0, BuildingBlock: ESEHIV_clean_linker_0, # of connection points: 3
#     Node 7, Type 0, BuildingBlock: ESEHIV_clean_linker_0, # of connection points: 3
#     Node 8, Type 0, BuildingBlock: ESEHIV_clean_linker_0, # of connection points: 3
#     Node 9, Type 0, BuildingBlock: ESEHIV_clean_linker_0, # of connection points: 3
#     Node 10, Type 0, BuildingBlock: ESEHIV_clean_linker_0, # of connection points: 3
#     Node 11, Type 0, BuildingBlock: ESEHIV_clean_linker_0, # of connection points: 3
#     Node 12, Type 0, BuildingBlock: ESEHIV_clean_linker_0, # of connection points: 3
#     Node 13, Type 0, BuildingBlock: ESEHIV_clean_linker_0, # of connection points: 3
#     Node 14, Type 0, BuildingBlock: ESEHIV_clean_linker_0, # of connection points: 3
#     Node 15, Type 0, BuildingBlock: ESEHIV_clean_linker_0, # of connection points: 3
#     Node 16, Type 1, BuildingBlock: AZAVOO_clean_sbu_0, # of connection points: 4
#     Node 17, Type 1, BuildingBlock: AZAVOO_clean_sbu_0, # of connection points: 4
#     Node 18, Type 1, BuildingBlock: AZAVOO_clean_sbu_0, # of connection points: 4
#     Node 19, Type 1, BuildingBlock: AZAVOO_clean_sbu_0, # of connection points: 4
#     Node 20, Type 1, BuildingBlock: AZAVOO_clean_sbu_0, # of connection points: 4
#     Node 21, Type 1, BuildingBlock: AZAVOO_clean_sbu_0, # of connection points: 4
#     Node 22, Type 1, BuildingBlock: AZAVOO_clean_sbu_0, # of connection points: 4
#     Node 23, Type 1, BuildingBlock: AZAVOO_clean_sbu_0, # of connection points: 4
#     Node 24, Type 1, BuildingBlock: AZAVOO_clean_sbu_0, # of connection points: 4
#     Node 25, Type 1, BuildingBlock: AZAVOO_clean_sbu_0, # of connection points: 4
#     Node 26, Type 1, BuildingBlock: AZAVOO_clean_sbu_0, # of connection points: 4
#     Node 27, Type 1, BuildingBlock: AZAVOO_clean_sbu_0, # of connection points: 4
#     Edge 28, Type (0, 1), BuildingBlock: KIFKEQ_clean_linker_1, # of connection points: 2
#     Edge 29, Type (0, 1), BuildingBlock: KIFKEQ_clean_linker_1, # of connection points: 2
#     Edge 30, Type (0, 1), BuildingBlock: KIFKEQ_clean_linker_1, # of connection points: 2
#     Edge 31, Type (0, 1), BuildingBlock: KIFKEQ_clean_linker_1, # of connection points: 2
#     Edge 32, Type (0, 1), BuildingBlock: KIFKEQ_clean_linker_1, # of connection points: 2
#     Edge 33, Type (0, 1), BuildingBlock: KIFKEQ_clean_linker_1, # of connection points: 2
#     Edge 34, Type (0, 1), BuildingBlock: KIFKEQ_clean_linker_1, # of connection points: 2
#     Edge 35, Type (0, 1), BuildingBlock: KIFKEQ_clean_linker_1, # of connection points: 2
#     Edge 36, Type (0, 1), BuildingBlock: KIFKEQ_clean_linker_1, # of connection points: 2
#     Edge 37, Type (0, 1), BuildingBlock: KIFKEQ_clean_linker_1, # of connection points: 2
#     Edge 38, Type (0, 1), BuildingBlock: KIFKEQ_clean_linker_1, # of connection points: 2
#     Edge 39, Type (0, 1), BuildingBlock: KIFKEQ_clean_linker_1, # of connection points: 2
#     Edge 40, Type (0, 1), BuildingBlock: KIFKEQ_clean_linker_1, # of connection points: 2
#     Edge 41, Type (0, 1), BuildingBlock: KIFKEQ_clean_linker_1, # of connection points: 2
#     Edge 42, Type (0, 1), BuildingBlock: KIFKEQ_clean_linker_1, # of connection points: 2
#     Edge 43, Type (0, 1), BuildingBlock: KIFKEQ_clean_linker_1, # of connection points: 2
#     Edge 44, Type (0, 1), BuildingBlock: KIFKEQ_clean_linker_1, # of connection points: 2
#     Edge 45, Type (0, 1), BuildingBlock: KIFKEQ_clean_linker_1, # of connection points: 2
#     Edge 46, Type (0, 1), BuildingBlock: KIFKEQ_clean_linker_1, # of connection points: 2
#     Edge 47, Type (0, 1), BuildingBlock: KIFKEQ_clean_linker_1, # of connection points: 2
#     Edge 48, Type (0, 1), BuildingBlock: KIFKEQ_clean_linker_1, # of connection points: 2
#     Edge 49, Type (0, 1), BuildingBlock: KIFKEQ_clean_linker_1, # of connection points: 2
#     Edge 50, Type (0, 1), BuildingBlock: KIFKEQ_clean_linker_1, # of connection points: 2
#     Edge 51, Type (0, 1), BuildingBlock: KIFKEQ_clean_linker_1, # of connection points: 2
#     Edge 52, Type (0, 1), BuildingBlock: KIFKEQ_clean_linker_1, # of connection points: 2
#     Edge 53, Type (0, 1), BuildingBlock: KIFKEQ_clean_linker_1, # of connection points: 2
#     Edge 54, Type (0, 1), BuildingBlock: KIFKEQ_clean_linker_1, # of connection points: 2
#     Edge 55, Type (0, 1), BuildingBlock: KIFKEQ_clean_linker_1, # of connection points: 2
#     Edge 56, Type (0, 1), BuildingBlock: KIFKEQ_clean_linker_1, # of connection points: 2
#     Edge 57, Type (0, 1), BuildingBlock: KIFKEQ_clean_linker_1, # of connection points: 2
#     Edge 58, Type (0, 1), BuildingBlock: KIFKEQ_clean_linker_1, # of connection points: 2
#     Edge 59, Type (0, 1), BuildingBlock: KIFKEQ_clean_linker_1, # of connection points: 2
#     Edge 60, Type (0, 1), BuildingBlock: KIFKEQ_clean_linker_1, # of connection points: 2
#     Edge 61, Type (0, 1), BuildingBlock: KIFKEQ_clean_linker_1, # of connection points: 2
#     Edge 62, Type (0, 1), BuildingBlock: KIFKEQ_clean_linker_1, # of connection points: 2
#     Edge 63, Type (0, 1), BuildingBlock: KIFKEQ_clean_linker_1, # of connection points: 2
#     Edge 64, Type (0, 1), BuildingBlock: KIFKEQ_clean_linker_1, # of connection points: 2
#     Edge 65, Type (0, 1), BuildingBlock: KIFKEQ_clean_linker_1, # of connection points: 2
#     Edge 66, Type (0, 1), BuildingBlock: KIFKEQ_clean_linker_1, # of connection points: 2
#     Edge 67, Type (0, 1), BuildingBlock: KIFKEQ_clean_linker_1, # of connection points: 2
#     Edge 68, Type (0, 1), BuildingBlock: KIFKEQ_clean_linker_1, # of connection points: 2
#     Edge 69, Type (0, 1), BuildingBlock: KIFKEQ_clean_linker_1, # of connection points: 2
#     Edge 70, Type (0, 1), BuildingBlock: KIFKEQ_clean_linker_1, # of connection points: 2
#     Edge 71, Type (0, 1), BuildingBlock: KIFKEQ_clean_linker_1, # of connection points: 2
#     Edge 72, Type (0, 1), BuildingBlock: KIFKEQ_clean_linker_1, # of connection points: 2
#     Edge 73, Type (0, 1), BuildingBlock: KIFKEQ_clean_linker_1, # of connection points: 2
#     Edge 74, Type (0, 1), BuildingBlock: KIFKEQ_clean_linker_1, # of connection points: 2
#     Edge 75, Type (0, 1), BuildingBlock: KIFKEQ_clean_linker_1, # of connection points: 2
# Relax obj value: 0.002
# Max RMSD: 0.042
# Mean RMSD: 0.022
data_MOF--net-ctn--node1-AZAVOO_clean_sbu_0--node2-ESEHIV_clean_linker_0--edge1-KIFKEQ_clean_linker_1
_symmetry_space_group_name_H-M    P1
_symmetry_Int_Tables_number       1
_symmetry_cell_setting            triclinic
loop_
_symmetry_equiv_pos_as_xyz
'x, y, z'
_cell_length_a     51.77565
_cell_length_b     52.789153
_cell_length_c     52.625999
_cell_angle_alpha  89.987598
_cell_angle_beta   93.02925
_cell_angle_gamma 93.199884
loop_
_atom_site_label
_atom_site_type_symbol
_atom_site_fract_x
_atom_site_fract_y
_atom_site_fract_z
_atom_type_partial_charge
H0 H 0.01007 0.05752 0.0205 0.0
H1 H 0.04685 0.98823 0.03734 0.0
H2 H 0.06713 0.03178 0.97136 0.0
C3 C 0.02325 0.04338 0.01525 0.0
C4 C 0.03831 0.04737 0.99401 0.0
C5 C 0.02611 0.02203 0.03078 0.0
C6 C 0.04424 0.0044 0.02496 0.0
C7 C 0.05922 0.00776 0.00354 0.0
C8 C 0.05597 0.02923 0.98811 0.0
H9 H 0.31125 0.70148 0.27095 0.0
H10 H 0.33825 0.76634 0.22834 0.0
H11 H 0.26867 0.72327 0.20283 0.0
C12 C 0.30885 0.71415 0.25488 0.0
C13 C 0.28779 0.70982 0.23723 0.0
C14 C 0.32713 0.73443 0.25182 0.0
C15 C 0.32424 0.75061 0.2308 0.0
C16 C 0.30279 0.74701 0.21342 0.0
C17 C 0.28467 0.72661 0.21677 0.0
H18 H 0.96386 0.5186 0.08574 0.0
H19 H 0.00681 0.45617 0.06158 0.0
H20 H 0.9375 0.47498 0.01926 0.0
C21 C 0.96663 0.50351 0.07237 0.0
C22 C 0.94845 0.49903 0.05175 0.0
C23 C 0.98764 0.48791 0.0764 0.0
C24 C 0.99039 0.46797 0.05923 0.0
C25 C 0.97231 0.46305 0.03882 0.0
C26 C 0.95152 0.47878 0.03502 0.0
H27 H 0.68501 0.79101 0.22334 0.0
H28 H 0.75753 0.8218 0.19727 0.0
H29 H 0.71921 0.86135 0.2545 0.0
C30 C 0.70027 0.80595 0.22378 0.0
C31 C 0.69949 0.82644 0.24077 0.0
C32 C 0.72132 0.80398 0.20826 0.0
C33 C 0.74146 0.82295 0.20954 0.0
C34 C 0.74073 0.84378 0.22598 0.0
C35 C 0.71968 0.84544 0.24153 0.0
H36 H 0.0161 0.94858 0.4622 0.0
H37 H 0.05266 0.02235 0.45139 0.0
H38 H 0.07659 0.97688 0.51568 0.0
C39 C 0.03021 0.96349 0.46859 0.0
C40 C 0.04606 0.96004 0.49067 0.0
C41 C 0.03221 0.98611 0.45472 0.0
C42 C 0.0505 0.00539 0.46287 0.0
C43 C 0.06692 0.00226 0.48473 0.0
C44 C 0.06422 0.97959 0.49876 0.0
H45 H 0.17591 0.74024 0.77784 0.0
H46 H 0.24693 0.70719 0.8026 0.0
H47 H 0.20537 0.68009 0.73425 0.0
C48 C 0.19024 0.72637 0.77534 0.0
C49 C 0.18784 0.71003 0.75411 0.0
C50 C 0.21185 0.72579 0.79259 0.0
C51 C 0.23062 0.70816 0.7889 0.0
C52 C 0.22851 0.69159 0.76799 0.0
C53 C 0.207 0.69259 0.75066 0.0
H54 H 0.9371 0.52181 0.49491 0.0
H55 H 0.00329 0.54746 0.454 0.0
H56 H 0.96242 0.4766 0.43402 0.0
C57 C 0.95002 0.51928 0.4797 0.0
C58 C 0.94672 0.49738 0.46442 0.0
C59 C 0.97036 0.53751 0.47618 0.0
C60 C 0.98789 0.53329 0.4573 0.0
C61 C 0.98545 0.51118 0.44224 0.0
C62 C 0.96458 0.49353 0.44572 0.0
H63 H 0.76584 0.79349 0.81293 0.0
H64 H 0.80867 0.80855 0.74632 0.0
H65 H 0.83376 0.75279 0.80053 0.0
C66 C 0.78181 0.78962 0.80128 0.0
C67 C 0.79916 0.7713 0.80931 0.0
C68 C 0.78512 0.80337 0.77874 0.0
C69 C 0.80615 0.79842 0.76401 0.0
C70 C 0.82379 0.7802 0.77164 0.0
C71 C 0.81998 0.76649 0.79422 0.0
H72 H 0.26209 0.28751 0.3053 0.0
H73 H 0.30819 0.31153 0.24313 0.0
H74 H 0.32802 0.24623 0.28754 0.0
C75 C 0.27802 0.28474 0.29322 0.0
C76 C 0.29422 0.2647 0.29847 0.0
C77 C 0.28287 0.30186 0.27337 0.0
C78 C 0.30428 0.2985 0.25853 0.0
C79 C 0.32089 0.27865 0.26355 0.0
C80 C 0.3157 0.26187 0.28368 0.0
H81 H 0.47063 0.01727 0.57666 0.0
H82 H 0.50947 0.95227 0.55268 0.0
H83 H 0.44052 0.97407 0.5112 0.0
C84 C 0.47168 0.00131 0.5639 0.0
C85 C 0.45272 0.99735 0.54388 0.0
C86 C 0.49244 0.98535 0.56707 0.0
C87 C 0.49408 0.96524 0.54986 0.0
C88 C 0.47565 0.96115 0.5295 0.0
C89 C 0.45495 0.97725 0.52671 0.0
H90 H 0.18237 0.284 0.71106 0.0
H91 H 0.25565 0.32032 0.69411 0.0
H92 H 0.21189 0.35057 0.75308 0.0
C93 C 0.19719 0.29906 0.71473 0.0
C94 C 0.19432 0.31701 0.73403 0.0
C95 C 0.21936 0.29993 0.70048 0.0
C96 C 0.2386 0.31933 0.70526 0.0
C97 C 0.23581 0.33786 0.72388 0.0
C98 C 0.21358 0.33673 0.73814 0.0
H99 H 0.81702 0.19668 0.76939 0.0
H100 H 0.84738 0.25633 0.7217 0.0
H101 H 0.77611 0.21451 0.69927 0.0
C102 C 0.81564 0.2079 0.75217 0.0
C103 C 0.79453 0.20311 0.7347 0.0
C104 C 0.83486 0.22704 0.74774 0.0
C105 C 0.83239 0.24194 0.72566 0.0
C106 C 0.81123 0.2375 0.70805 0.0
C107 C 0.79234 0.21818 0.71286 0.0
H108 H 0.50814 0.55531 0.52347 0.0
H109 H 0.54733 0.49005 0.55024 0.0
H110 H 0.57215 0.52956 0.48357 0.0
C111 C 0.52293 0.54187 0.52138 0.0
C112 C 0.53971 0.54482 0.5013 0.0
C113 C 0.52551 0.52226 0.53925 0.0
C114 C 0.54499 0.50512 0.53648 0.0
C115 C 0.56191 0.50756 0.51644 0.0
C116 C 0.55901 0.52739 0.49886 0.0
H117 H 0.5196 0.44846 0.963 0.0
H118 H 0.55403 0.52388 0.95512 0.0
H119 H 0.5853 0.47336 0.01154 0.0
C120 C 0.53386 0.46333 0.96901 0.0
C121 C 0.55155 0.45869 0.98945 0.0
C122 C 0.53474 0.48668 0.95612 0.0
C123 C 0.55376 0.50546 0.96417 0.0
C124 C 0.57253 0.5008 0.98371 0.0
C125 C 0.57091 0.47745 0.99662 0.0
H126 H 0.6794 0.24228 0.27271 0.0
H127 H 0.75174 0.21235 0.29829 0.0
H128 H 0.70926 0.17972 0.23283 0.0
C129 C 0.69402 0.22859 0.2708 0.0
C130 C 0.69161 0.21091 0.25066 0.0
C131 C 0.71592 0.22947 0.28775 0.0
C132 C 0.73512 0.21213 0.28483 0.0
C133 C 0.73283 0.19404 0.26525 0.0
C134 C 0.711 0.19349 0.24819 0.0
H135 H 0.43567 0.01949 0.99362 0.0
H136 H 0.50298 0.04515 0.95439 0.0
H137 H 0.46012 0.97664 0.93039 0.0
C138 C 0.44862 0.01731 0.97836 0.0
C139 C 0.44487 0.99612 0.96206 0.0
C140 C 0.46941 0.03525 0.97577 0.0
C141 C 0.48703 0.03136 0.95692 0.0
C142 C 0.48399 0.01011 0.94075 0.0
C143 C 0.46264 0.99282 0.94311 0.0
Mg144 Mg 0.23888 0.84992 0.00815 0.0
O145 O 0.27784 0.87126 1.00036 0.0
O146 O 0.30824 0.84279 0.00402 0.0
Mg147 Mg 0.28927 0.80398 0.01295 0.0
C148 C 0.30144 0.86536 0.99983 0.0
C149 C 0.19281 0.87847 0.98571 0.0
O150 O 0.18453 0.85465 0.9824 0.0
O151 O 0.23746 0.8323 0.96854 0.0
O152 O 0.26754 0.80369 0.97357 0.0
O153 O 0.24514 0.85686 0.04982 0.0
O154 O 0.25808 0.82325 0.0302 0.0
C155 C 0.2501 0.81437 0.95994 0.0
C156 C 0.25718 0.83601 0.05096 0.0
O157 O 0.21587 0.88332 0.99459 0.0
Mg158 Mg 0.15527 0.5074 0.27147 0.0
O159 O 0.12952 0.50721 0.23439 0.0
O160 O 0.15586 0.51083 0.20211 0.0
Mg161 Mg 0.19773 0.5156 0.2181 0.0
C162 C 0.13321 0.50833 0.21059 0.0
C163 C 0.12432 0.48971 0.31755 0.0
O164 O 0.1483 0.4897 0.32709 0.0
O165 O 0.16747 0.46682 0.26382 0.0
O166 O 0.195 0.4749 0.23309 0.0
O167 O 0.15531 0.54981 0.27376 0.0
O168 O 0.18435 0.52905 0.25429 0.0
C169 C 0.184 0.45955 0.24847 0.0
C170 C 0.17563 0.55043 0.26041 0.0
O171 O 0.12043 0.49447 0.29402 0.0
Mg172 Mg 0.77141 0.66336 0.03064 0.0
O173 O 0.73403 0.63759 0.02386 0.0
O174 O 0.70167 0.66383 0.01881 0.0
Mg175 Mg 0.71711 0.7049 0.02467 0.0
C176 C 0.71004 0.64152 0.01945 0.0
C177 C 0.79662 0.61089 0.03686 0.0
O178 O 0.77879 0.60796 0.05365 0.0
O179 O 0.77024 0.67531 0.98868 0.0
O180 O 0.73871 0.70258 0.9878 0.0
O181 O 0.76718 0.66298 0.07282 0.0
O182 O 0.75051 0.69121 0.04685 0.0
C183 C 0.75652 0.69148 0.97697 0.0
C184 C 0.7535 0.68263 0.06964 0.0
O185 O 0.79746 0.63089 0.0234 0.0
Mg186 Mg 0.9128 0.03544 0.23552 0.0
O187 O 0.88741 0.99841 0.23075 0.0
O188 O 0.91287 0.96679 0.22307 0.0
Mg189 Mg 0.95466 0.98315 0.22469 0.0
C190 C 0.89054 0.97507 0.2261 0.0
C191 C 0.87983 0.0762 0.26061 0.0
O192 O 0.90302 0.08533 0.26842 0.0
O193 O 0.92597 0.0237 0.27587 0.0
O194 O 0.95147 0.99221 0.2672 0.0
O195 O 0.9109 0.04188 0.19365 0.0
O196 O 0.9413 0.02068 0.21376 0.0
C197 C 0.94112 0.00643 0.28301 0.0
C198 C 0.93122 0.02878 0.19259 0.0
O199 O 0.87765 0.05545 0.24825 0.0
Mg200 Mg 0.27178 0.15982 0.52 0.0
O201 O 0.23313 0.13547 0.5161 0.0
O202 O 0.20164 0.16287 0.51352 0.0
Mg203 Mg 0.21919 0.2035 0.51448 0.0
C204 C 0.20913 0.14023 0.5142 0.0
C205 C 0.31627 0.12686 0.52935 0.0
O206 O 0.32023 0.14681 0.54429 0.0
O207 O 0.26905 0.16917 0.47747 0.0
O208 O 0.23811 0.1971 0.47656 0.0
O209 O 0.26936 0.16197 0.5623 0.0
O210 O 0.25316 0.18982 0.53559 0.0
C211 C 0.25491 0.18482 0.46547 0.0
C212 C 0.2566 0.18216 0.55866 0.0
O213 O 0.296 0.12545 0.51453 0.0
Mg214 Mg 0.40747 0.53044 0.74076 0.0
O215 O 0.38117 0.49378 0.73704 0.0
O216 O 0.4066 0.46205 0.72955 0.0
Mg217 Mg 0.44857 0.47771 0.72981 0.0
C218 C 0.3843 0.47035 0.73273 0.0
C219 C 0.37372 0.57459 0.74525 0.0
O220 O 0.39265 0.58239 0.73097 0.0
O221 O 0.42149 0.51918 0.7809 0.0
O222 O 0.44695 0.48765 0.77239 0.0
O223 O 0.40453 0.53642 0.69887 0.0
O224 O 0.43507 0.515 0.71846 0.0
C225 C 0.43693 0.5022 0.78813 0.0
C226 C 0.42466 0.52313 0.69744 0.0
O227 O 0.37393 0.55229 0.75439 0.0
Mg228 Mg 0.74236 0.34615 0.50667 0.0
O229 O 0.78047 0.36965 0.49984 0.0
O230 O 0.81168 0.34188 0.50105 0.0
Mg231 Mg 0.79429 0.30184 0.50666 0.0
C232 C 0.80426 0.36448 0.49876 0.0
C233 C 0.69744 0.37774 0.51051 0.0
O234 O 0.69485 0.3584 0.52607 0.0
O235 O 0.7406 0.33194 0.46561 0.0
O236 O 0.7719 0.3044 0.4679 0.0
O237 O 0.74948 0.34984 0.54875 0.0
O238 O 0.76301 0.31861 0.52598 0.0
C239 C 0.75388 0.31539 0.45539 0.0
C240 C 0.76229 0.32954 0.54778 0.0
O241 O 0.71713 0.37927 0.49701 0.0
Mg242 Mg 0.65481 0.00499 0.76805 0.0
O243 O 0.62952 0.00449 0.73043 0.0
O244 O 0.65698 0.00953 0.69919 0.0
Mg245 Mg 0.69864 0.01256 0.71565 0.0
C246 C 0.63401 0.00663 0.70683 0.0
C247 C 0.62194 0.00514 0.81246 0.0
O248 O 0.64254 0.02042 0.81724 0.0
O249 O 0.66646 0.96426 0.76091 0.0
O250 O 0.69438 0.97176 0.73039 0.0
O251 O 0.65561 0.04757 0.76999 0.0
O252 O 0.68456 0.02609 0.75131 0.0
C253 C 0.68289 0.95664 0.74565 0.0
C254 C 0.67629 0.0477 0.75723 0.0
O255 O 0.62013 0.99299 0.79149 0.0
Mg256 Mg 0.03536 0.26929 0.90791 0.0
O257 O 0.99772 0.25985 0.88365 0.0
O258 O 0.96901 0.24134 0.90904 0.0
Mg259 Mg 0.98733 0.24009 0.94935 0.0
C260 C 0.97536 0.24939 0.88723 0.0
C261 C 0.05246 0.28125 0.85399 0.0
O262 O 0.04024 0.25885 0.85122 0.0
O263 O 0.01691 0.30343 0.92484 0.0
O264 O 0.98945 0.28365 0.95067 0.0
O265 O 0.04892 0.2305 0.9013 0.0
O266 O 0.02557 0.2403 0.93336 0.0
C267 C 0.99983 0.30396 0.94149 0.0
C268 C 0.03654 0.22321 0.92097 0.0
O269 O 0.05265 0.29229 0.87548 0.0
Mg270 Mg 0.53537 0.76141 0.4041 0.0
O271 O 0.4969 0.75277 0.38111 0.0
O272 O 0.46838 0.73634 0.40791 0.0
Mg273 Mg 0.48806 0.73507 0.4477 0.0
C274 C 0.47429 0.74353 0.38568 0.0
C275 C 0.56841 0.80134 0.37329 0.0
O276 O 0.57459 0.81007 0.39632 0.0
O277 O 0.51865 0.79658 0.42083 0.0
O278 O 0.49154 0.77873 0.44819 0.0
O279 O 0.54752 0.72211 0.39786 0.0
O280 O 0.52564 0.73331 0.43051 0.0
C281 C 0.50231 0.79834 0.43804 0.0
C282 C 0.53574 0.71562 0.41814 0.0
O283 O 0.55169 0.78288 0.37043 0.0
Mg284 Mg 0.98581 0.74415 0.59802 0.0
O285 O 0.02286 0.7351 0.62205 0.0
O286 O 0.0518 0.72397 0.59461 0.0
Mg287 Mg 0.03446 0.72654 0.55399 0.0
C288 C 0.04524 0.72776 0.61729 0.0
C289 C 0.96444 0.74682 0.65208 0.0
O290 O 0.97435 0.72444 0.65276 0.0
O291 O 0.00477 0.78252 0.58642 0.0
O292 O 0.03231 0.76972 0.55838 0.0
O293 O 0.97139 0.70334 0.59798 0.0
O294 O 0.99586 0.72028 0.56875 0.0
C295 C 0.02184 0.78736 0.57012 0.0
C296 C 0.98396 0.70044 0.57768 0.0
O297 O 0.96744 0.76071 0.63257 0.0
Mg298 Mg 0.48845 0.243 0.09543 0.0
O299 O 0.52532 0.23363 0.11966 0.0
O300 O 0.55389 0.2215 0.09227 0.0
Mg301 Mg 0.53654 0.22367 0.05161 0.0
C302 C 0.54751 0.22577 0.11492 0.0
C303 C 0.46603 0.24679 0.14887 0.0
O304 O 0.47497 0.22398 0.1497 0.0
O305 O 0.50817 0.28079 0.08321 0.0
O306 O 0.53523 0.26704 0.05519 0.0
O307 O 0.47317 0.20245 0.09612 0.0
O308 O 0.49798 0.21831 0.06663 0.0
C309 C 0.52518 0.28508 0.06672 0.0
C310 C 0.48569 0.19887 0.07592 0.0
O311 O 0.47021 0.26063 0.12954 0.0
H312 H 0.25567 0.75394 0.80715 0.0
H313 H 0.17655 0.73815 0.82702 0.0
H314 H 0.26419 0.77886 0.84593 0.0
H315 H 0.18513 0.76314 0.86614 0.0
H316 H 0.20825 0.82407 0.92771 0.0
H317 H 0.19775 0.80628 0.88517 0.0
H318 H 0.26774 0.76534 0.89064 0.0
H319 H 0.27833 0.78306 0.93267 0.0
C320 C 0.24005 0.75596 0.81978 0.0
C321 C 0.21558 0.74374 0.81433 0.0
C322 C 0.24493 0.77022 0.84197 0.0
C323 C 0.22546 0.7726 0.85928 0.0
C324 C 0.2005 0.76169 0.85311 0.0
C325 C 0.19558 0.74738 0.83077 0.0
C326 C 0.22149 0.81146 0.91969 0.0
C327 C 0.24412 0.80497 0.93363 0.0
C328 C 0.21539 0.80118 0.89542 0.0
C329 C 0.23196 0.7845 0.88453 0.0
C330 C 0.25475 0.77842 0.89833 0.0
C331 C 0.26073 0.78847 0.92255 0.0
H332 H 0.9775 0.491 0.39406 0.0
H333 H 0.03798 0.52008 0.44772 0.0
H334 H 0.01001 0.48221 0.3638 0.0
H335 H 0.07023 0.51256 0.4171 0.0
H336 H 0.12567 0.47654 0.36775 0.0
H337 H 0.09138 0.47936 0.39738 0.0
H338 H 0.03956 0.50362 0.3362 0.0
H339 H 0.07367 0.50003 0.30641 0.0
C340 C 0.99771 0.49551 0.39943 0.0
C341 C 0.00508 0.50629 0.42336 0.0
C342 C 0.01635 0.4907 0.38196 0.0
C343 C 0.04281 0.49657 0.38798 0.0
C344 C 0.05011 0.50738 0.41191 0.0
C345 C 0.03153 0.51209 0.42936 0.0
C346 C 0.10685 0.48214 0.36054 0.0
C347 C 0.10249 0.48824 0.33474 0.0
C348 C 0.08723 0.48397 0.37759 0.0
C349 C 0.06278 0.49212 0.36931 0.0
C350 C 0.05807 0.49713 0.34326 0.0
C351 C 0.07767 0.49513 0.32615 0.0
H352 H 0.80322 0.72057 0.82003 0.0
H353 H 0.78743 0.79202 0.85437 0.0
H354 H 0.79346 0.69867 0.85987 0.0
H355 H 0.77745 0.77026 0.89366 0.0
H356 H 0.72919 0.72267 0.94576 0.0
H357 H 0.74097 0.74001 0.90503 0.0
H358 H 0.80883 0.69599 0.90731 0.0
H359 H 0.79701 0.6783 0.94849 0.0
C360 C 0.79795 0.73161 0.83612 0.0
C361 C 0.79563 0.75796 0.8339 0.0
C362 C 0.79234 0.71908 0.85887 0.0
C363 C 0.78422 0.73271 0.87968 0.0
C364 C 0.78302 0.75915 0.87773 0.0
C365 C 0.78871 0.77162 0.85519 0.0
C366 C 0.74654 0.71642 0.93762 0.0
C367 C 0.76233 0.6993 0.95066 0.0
C368 C 0.75334 0.72649 0.91427 0.0
C369 C 0.77606 0.71971 0.90321 0.0
C370 C 0.79122 0.70158 0.91545 0.0
C371 C 0.78445 0.69149 0.93902 0.0
H372 H 0.02961 0.95547 0.41325 0.0
H373 H 0.99911 0.02329 0.4425 0.0
H374 H 0.00492 0.96058 0.37321 0.0
H375 H 0.97276 0.02778 0.40299 0.0
H376 H 0.95305 0.04381 0.31817 0.0
H377 H 0.97334 0.03897 0.36066 0.0
H378 H 0.96535 0.95732 0.35189 0.0
H379 H 0.94699 0.96252 0.30884 0.0
C380 C 0.01717 0.97126 0.41115 0.0
C381 C 0.0162 0.98898 0.43085 0.0
C382 C 0.00274 0.97413 0.38826 0.0
C383 C 0.98644 0.99451 0.38467 0.0
C384 C 0.98529 0.01206 0.40472 0.0
C385 C 1.00024 0.00946 0.42745 0.0
C386 C 0.95535 0.02488 0.3256 0.0
C387 C 0.94869 0.00355 0.31024 0.0
C388 C 0.96695 0.02202 0.35003 0.0
C389 C 0.97157 0.9977 0.3598 0.0
C390 C 0.96309 0.97638 0.34487 0.0
C391 C 0.95222 0.97929 0.32026 0.0
H392 H 0.26224 0.2736 0.69334 0.0
H393 H 0.18397 0.28219 0.66337 0.0
H394 H 0.26853 0.2428 0.65994 0.0
H395 H 0.19015 0.25106 0.63008 0.0
H396 H 0.22831 0.22442 0.55662 0.0
H397 H 0.21709 0.25064 0.59196 0.0
H398 H 0.25317 0.19923 0.64496 0.0
H399 H 0.26437 0.17279 0.60951 0.0
C400 C 0.24637 0.26882 0.67963 0.0
C401 C 0.22267 0.2804 0.68083 0.0
C402 C 0.24987 0.25099 0.66069 0.0
C403 C 0.22982 0.2445 0.64242 0.0
C404 C 0.20598 0.25581 0.64383 0.0
C405 C 0.2024 0.27348 0.66295 0.0
C406 C 0.23344 0.21838 0.57578 0.0
C407 C 0.24724 0.19647 0.58021 0.0
C408 C 0.22696 0.23342 0.59606 0.0
C409 C 0.23435 0.22705 0.62121 0.0
C410 C 0.24745 0.20474 0.62573 0.0
C411 C 0.25373 0.18954 0.60544 0.0
H412 H 0.505 0.47931 0.5623 0.0
H413 H 0.50813 0.56125 0.56697 0.0
H414 H 0.47876 0.47692 0.59964 0.0
H415 H 0.48101 0.55865 0.60328 0.0
H416 H 0.46425 0.49281 0.68724 0.0
H417 H 0.48659 0.49047 0.64761 0.0
H418 H 0.43423 0.54249 0.61241 0.0
H419 H 0.41161 0.54461 0.6518 0.0
C420 C 0.50014 0.49679 0.57118 0.0
C421 C 0.50868 0.52049 0.56143 0.0
C422 C 0.48499 0.49537 0.59246 0.0
C423 C 0.47771 0.51759 0.60415 0.0
C424 C 0.48597 0.54121 0.59433 0.0
C425 C 0.50143 0.54266 0.57339 0.0
C426 C 0.45717 0.50336 0.67094 0.0
C427 C 0.43619 0.51897 0.67273 0.0
C428 C 0.46995 0.50197 0.64824 0.0
C429 C 0.46223 0.51645 0.62707 0.0
C430 C 0.4407 0.53131 0.62856 0.0
C431 C 0.42769 0.53241 0.65109 0.0
H432 H 0.7981 0.21953 0.66033 0.0
H433 H 0.8194 0.28887 0.7017 0.0
H434 H 0.79013 0.24367 0.62177 0.0
H435 H 0.81256 0.3132 0.66255 0.0
H436 H 0.76019 0.34593 0.59683 0.0
H437 H 0.77616 0.32508 0.63539 0.0
H438 H 0.80961 0.26866 0.58967 0.0
H439 H 0.79271 0.28881 0.55129 0.0
C440 C 0.80127 0.23998 0.66112 0.0
C441 C 0.809 0.25233 0.68414 0.0
C442 C 0.79708 0.25383 0.63889 0.0
C443 C 0.8007 0.28042 0.63901 0.0
C444 C 0.80931 0.29276 0.66187 0.0
C445 C 0.81347 0.27884 0.68422 0.0
C446 C 0.77122 0.32925 0.59501 0.0
C447 C 0.77497 0.31892 0.57095 0.0
C448 C 0.78055 0.31738 0.61714 0.0
C449 C 0.79395 0.29502 0.61566 0.0
C450 C 0.7989 0.28555 0.59153 0.0
C451 C 0.78938 0.29726 0.56945 0.0
H452 H 0.5447 0.98089 0.56534 0.0
H453 H 0.48601 0.99959 0.61655 0.0
H454 H 0.57761 0.9863 0.59972 0.0
H455 H 0.51935 0.0065 0.6508 0.0
H456 H 0.58359 0.9889 0.71208 0.0
H457 H 0.54883 0.98453 0.6788 0.0
H458 H 0.60027 0.01836 0.62462 0.0
H459 H 0.63498 0.02187 0.65743 0.0
C460 C 0.53878 0.98619 0.58395 0.0
C461 C 0.51262 0.98967 0.58814 0.0
C462 C 0.55777 0.98967 0.60365 0.0
C463 C 0.55124 0.99702 0.62809 0.0
C464 C 0.52508 0.00063 0.63231 0.0
C465 C 0.506 0.99698 0.61257 0.0
C466 C 0.58738 0.99549 0.69307 0.0
C467 C 0.61216 0.00546 0.68738 0.0
C468 C 0.56743 0.99309 0.674 0.0
C469 C 0.57178 0.00081 0.64889 0.0
C470 C 0.59634 0.01159 0.64353 0.0
C471 C 0.61626 0.01374 0.66245 0.0
H472 H 0.85951 0.27193 0.76448 0.0
H473 H 0.86217 0.19057 0.77214 0.0
H474 H 0.89521 0.27762 0.79675 0.0
H475 H 0.89718 0.19636 0.80469 0.0
H476 H 0.93083 0.21921 0.88473 0.0
H477 H 0.89861 0.21434 0.84947 0.0
H478 H 0.94344 0.26786 0.80522 0.0
H479 H 0.97604 0.27277 0.84062 0.0
C480 C 0.86786 0.25529 0.7728 0.0
C481 C 0.85769 0.2308 0.766 0.0
C482 C 0.88826 0.25856 0.79128 0.0
C483 C 0.89871 0.23742 0.80339 0.0
C484 C 0.88915 0.21299 0.79598 0.0
C485 C 0.86901 0.20971 0.77742 0.0
C486 C 0.93392 0.22996 0.86752 0.0
C487 C 0.95603 0.24639 0.86551 0.0
C488 C 0.9155 0.22704 0.84727 0.0
C489 C 0.91859 0.24066 0.82461 0.0
C490 C 0.94057 0.25724 0.82255 0.0
C491 C 0.95925 0.25992 0.84275 0.0
H492 H 0.4371 0.92789 0.50993 0.0
H493 H 0.51949 0.94566 0.50877 0.0
H494 H 0.44167 0.89047 0.4837 0.0
H495 H 0.52424 0.9077 0.48355 0.0
H496 H 0.52355 0.84515 0.42483 0.0
H497 H 0.51527 0.88632 0.44303 0.0
H498 H 0.45942 0.84981 0.49125 0.0
H499 H 0.46714 0.80904 0.47282 0.0
C500 C 0.45614 0.92398 0.50384 0.0
C501 C 0.47796 0.93962 0.51167 0.0
C502 C 0.45881 0.90238 0.48902 0.0
C503 C 0.48337 0.89591 0.48172 0.0
C504 C 0.50502 0.91217 0.48865 0.0
C505 C 0.50234 0.93376 0.50341 0.0
C506 C 0.50929 0.84597 0.4391 0.0
C507 C 0.49616 0.82371 0.44745 0.0
C508 C 0.50464 0.86955 0.44963 0.0
C509 C 0.48672 0.87139 0.46867 0.0
C510 C 0.47307 0.84921 0.47639 0.0
C511 C 0.4777 0.82572 0.46593 0.0
H512 H 0.17281 0.27314 0.75311 0.0
H513 H 0.16541 0.3543 0.75312 0.0
H514 H 0.13606 0.26771 0.77969 0.0
H515 H 0.12866 0.34875 0.78051 0.0
H516 H 0.0873 0.32255 0.85602 0.0
H517 H 0.1201 0.3336 0.82546 0.0
H518 H 0.08851 0.27301 0.77604 0.0
H519 H 0.05598 0.26184 0.80644 0.0
C520 C 0.16313 0.28984 0.75847 0.0
C521 C 0.17191 0.31415 0.75062 0.0
C522 C 0.14205 0.28671 0.77379 0.0
C523 C 0.12925 0.30778 0.78192 0.0
C524 C 0.13819 0.33217 0.77453 0.0
C525 C 0.15926 0.33533 0.75893 0.0
C526 C 0.08705 0.31191 0.8384 0.0
C527 C 0.06927 0.29106 0.83385 0.0
C528 C 0.1058 0.31829 0.82089 0.0
C529 C 0.10712 0.30388 0.79858 0.0
C530 C 0.08828 0.28413 0.79332 0.0
C531 C 0.06956 0.27781 0.81072 0.0
H532 H 0.49604 0.56635 0.48132 0.0
H533 H 0.57968 0.57431 0.48265 0.0
H534 H 0.4936 0.60636 0.45828 0.0
H535 H 0.57705 0.61375 0.45882 0.0
H536 H 0.56042 0.67564 0.39961 0.0
H537 H 0.56029 0.63229 0.41605 0.0
H538 H 0.50736 0.6519 0.47261 0.0
H539 H 0.50779 0.69516 0.45664 0.0
C540 C 0.5139 0.57647 0.47654 0.0
C541 C 0.53807 0.56719 0.48415 0.0
C542 C 0.51246 0.5993 0.46325 0.0
C543 C 0.53513 0.61317 0.45692 0.0
C544 C 0.55926 0.60331 0.46327 0.0
C545 C 0.56073 0.58063 0.47686 0.0
C546 C 0.54855 0.67065 0.41539 0.0
C547 C 0.53405 0.6889 0.42677 0.0
C548 C 0.54856 0.64586 0.42481 0.0
C549 C 0.53376 0.63876 0.44553 0.0
C550 C 0.51869 0.65678 0.4564 0.0
C551 C 0.51899 0.68162 0.44726 0.0
H552 H 0.8424 0.73496 0.75769 0.0
H553 H 0.85634 0.81597 0.75063 0.0
H554 H 0.87819 0.72818 0.73057 0.0
H555 H 0.89243 0.80932 0.72393 0.0
H556 H 0.93292 0.78683 0.65203 0.0
H557 H 0.90038 0.79531 0.68221 0.0
H558 H 0.9241 0.73172 0.7278 0.0
H559 H 0.95609 0.72279 0.69717 0.0
C560 C 0.85335 0.75132 0.75061 0.0
C561 C 0.84641 0.77598 0.75615 0.0
C562 C 0.87395 0.74747 0.73512 0.0
C563 C 0.88825 0.76821 0.72493 0.0
C564 C 0.8816 0.79289 0.73099 0.0
C565 C 0.86092 0.79671 0.74634 0.0
C566 C 0.93141 0.77484 0.66865 0.0
C567 C 0.94702 0.75403 0.67207 0.0
C568 C 0.91277 0.77975 0.68605 0.0
C569 C 0.90938 0.76407 0.70741 0.0
C570 C 0.92575 0.74387 0.71132 0.0
C571 C 0.94427 0.73888 0.69384 0.0
H572 H 0.04445 0.91259 0.47035 0.0
H573 H 0.04364 0.95208 0.54211 0.0
H574 H 0.04035 0.87208 0.4923 0.0
H575 H 0.03982 0.91122 0.5643 0.0
H576 H 0.05955 0.80432 0.53897 0.0
H577 H 0.06706 0.84676 0.52214 0.0
H578 H 0.00688 0.87369 0.56719 0.0
H579 H 0.99927 0.83093 0.58436 0.0
C580 C 0.04338 0.91258 0.49085 0.0
C581 C 0.04427 0.93551 0.5045 0.0
C582 C 0.04128 0.88937 0.50347 0.0
C583 C 0.03989 0.88844 0.53006 0.0
C584 C 0.04075 0.91135 0.54379 0.0
C585 C 0.04313 0.93469 0.53113 0.0
C586 C 0.04801 0.81924 0.54558 0.0
C587 C 0.02852 0.81404 0.5628 0.0
C588 C 0.0523 0.84359 0.53581 0.0
C589 C 0.0373 0.86347 0.54302 0.0
C590 C 0.01878 0.85873 0.56131 0.0
C591 C 0.01439 0.83422 0.57109 0.0
H592 H 0.13606 0.71203 0.76186 0.0
H593 H 0.19076 0.71315 0.70274 0.0
H594 H 0.10052 0.71515 0.72969 0.0
H595 H 0.15567 0.71717 0.67071 0.0
H596 H 0.08762 0.69953 0.61656 0.0
H597 H 0.1207 0.6942 0.65022 0.0
H598 H 0.08054 0.74237 0.69956 0.0
H599 H 0.04665 0.74676 0.66599 0.0
C600 C 0.14046 0.71312 0.74197 0.0
C601 C 0.16613 0.71209 0.73476 0.0
C602 C 0.12013 0.71502 0.72353 0.0
C603 C 0.12509 0.71623 0.69749 0.0
C604 C 0.15091 0.71561 0.69046 0.0
C605 C 0.17111 0.71339 0.70883 0.0
C606 C 0.08575 0.70893 0.63462 0.0
C607 C 0.06458 0.72374 0.63851 0.0
C608 C 0.10487 0.70601 0.65393 0.0
C609 C 0.10363 0.71816 0.6776 0.0
C610 C 0.0821 0.73254 0.6817 0.0
C611 C 0.0627 0.73517 0.66241 0.0
H612 H 0.93199 0.56579 0.4936 0.0
H613 H 0.01533 0.5623 0.49542 0.0
H614 H 0.93669 0.60374 0.52014 0.0
H615 H 0.01987 0.60089 0.5212 0.0
H616 H 0.01199 0.68758 0.53733 0.0
H617 H 0.00975 0.64741 0.51434 0.0
H618 H 0.95337 0.61666 0.56524 0.0
H619 H 0.95584 0.65681 0.58862 0.0
C620 C 0.95131 0.57291 0.4998 0.0
C621 C 0.97327 0.56085 0.49231 0.0
C622 C 0.95397 0.59472 0.51498 0.0
C623 C 0.97864 0.60521 0.52276 0.0
C624 C 1.00062 0.5933 0.51528 0.0
C625 C 0.99798 0.57127 0.50038 0.0
C626 C 0.99943 0.67219 0.54395 0.0
C627 C 0.98418 0.67543 0.56492 0.0
C628 C 0.99817 0.64915 0.53075 0.0
C629 C 0.98133 0.62896 0.53796 0.0
C630 C 0.96637 0.632 0.55916 0.0
C631 C 0.96791 0.65494 0.5726 0.0
H632 H 0.7924 0.83694 0.23136 0.0
H633 H 0.73738 0.89516 0.22263 0.0
H634 H 0.82799 0.86911 0.23154 0.0
H635 H 0.77296 0.92751 0.22173 0.0
H636 H 0.84305 0.9808 0.24526 0.0
H637 H 0.8067 0.94946 0.24602 0.0
H638 H 0.84993 0.89698 0.20437 0.0
H639 H 0.88655 0.92785 0.20468 0.0
C640 C 0.78799 0.85669 0.22929 0.0
C641 C 0.76219 0.86359 0.22691 0.0
C642 C 0.80836 0.87515 0.22921 0.0
C643 C 0.80346 0.90099 0.22636 0.0
C644 C 0.77754 0.90788 0.22427 0.0
C645 C 0.75713 0.88937 0.22471 0.0
C646 C 0.84472 0.96259 0.23618 0.0
C647 C 0.86776 0.95676 0.22505 0.0
C648 C 0.82381 0.94462 0.23652 0.0
C649 C 0.82535 0.92052 0.22543 0.0
C650 C 0.8482 0.91505 0.21368 0.0
C651 C 0.86918 0.93285 0.21367 0.0
H652 H 0.78478 0.20506 0.26537 0.0
H653 H 0.72763 0.14235 0.26025 0.0
H654 H 0.81929 0.17564 0.26489 0.0
H655 H 0.76221 0.11258 0.26059 0.0
H656 H 0.8317 0.06876 0.23679 0.0
H657 H 0.79578 0.09662 0.23718 0.0
H658 H 0.83996 0.1458 0.29113 0.0
H659 H 0.87622 0.11846 0.2899 0.0
C660 C 0.77965 0.1849 0.26422 0.0
C661 C 0.75355 0.17597 0.26293 0.0
C662 C 0.79943 0.16798 0.26416 0.0
C663 C 0.79365 0.14162 0.2631 0.0
C664 C 0.76745 0.13272 0.26123 0.0
C665 C 0.7476 0.14973 0.26102 0.0
C666 C 0.83366 0.08541 0.24891 0.0
C667 C 0.85693 0.09149 0.26318 0.0
C668 C 0.81298 0.10138 0.2492 0.0
C669 C 0.81498 0.1237 0.26394 0.0
C670 C 0.83791 0.12916 0.27901 0.0
C671 C 0.85866 0.11334 0.27852 0.0
H672 H 0.39533 0.00485 0.97469 0.0
H673 H 0.44449 0.9443 0.95738 0.0
H674 H 0.36064 0.97376 0.98384 0.0
H675 H 0.40922 0.91332 0.96468 0.0
H676 H 0.35365 0.8634 0.00867 0.0
H677 H 0.38734 0.89507 0.99869 0.0
H678 H 0.32927 0.94336 0.96668 0.0
H679 H 0.29535 0.91191 0.9777 0.0
C680 C 0.39873 0.98491 0.97268 0.0
C681 C 0.42289 0.97715 0.96553 0.0
C682 C 0.37865 0.96705 0.97758 0.0
C683 C 0.38207 0.94093 0.97518 0.0
C684 C 0.40597 0.93322 0.96724 0.0
C685 C 0.42614 0.95106 0.96262 0.0
C686 C 0.34801 0.88078 0.99952 0.0
C687 C 0.32177 0.88509 0.99396 0.0
C688 C 0.36741 0.89892 0.99358 0.0
C689 C 0.36116 0.92177 0.98162 0.0
C690 C 0.33485 0.92614 0.97615 0.0
C691 C 0.31538 0.90807 0.98238 0.0
H692 H 0.22996 0.30291 0.27661 0.0
H693 H 0.29764 0.3505 0.25997 0.0
H694 H 0.20292 0.33913 0.26994 0.0
H695 H 0.2705 0.38615 0.25249 0.0
H696 H 0.17575 0.42313 0.28528 0.0
H697 H 0.19762 0.38325 0.29047 0.0
H698 H 0.23507 0.39732 0.2201 0.0
H699 H 0.21341 0.43671 0.21476 0.0
C700 C 0.23913 0.32103 0.27161 0.0
C701 C 0.26606 0.32365 0.2687 0.0
C702 C 0.22358 0.34172 0.26772 0.0
C703 C 0.23457 0.36537 0.2605 0.0
C704 C 0.26141 0.36801 0.2576 0.0
C705 C 0.27697 0.34749 0.26177 0.0
C706 C 0.18821 0.41743 0.27067 0.0
C707 C 0.19309 0.43335 0.24981 0.0
C708 C 0.20074 0.39462 0.27365 0.0
C709 C 0.21842 0.38747 0.25592 0.0
C710 C 0.22198 0.40261 0.23434 0.0
C711 C 0.20944 0.42518 0.23128 0.0
H712 H 0.11669 0.99573 0.50357 0.0
H713 H 0.0644 0.05397 0.48196 0.0
H714 H 0.15103 0.0282 0.51335 0.0
H715 H 0.09911 0.08619 0.4899 0.0
H716 H 0.15857 0.14163 0.52566 0.0
H717 H 0.12475 0.10795 0.5214 0.0
H718 H 0.17992 0.05737 0.49373 0.0
H719 H 0.21413 0.09098 0.4992 0.0
C720 C 0.11241 0.01545 0.50105 0.0
C721 C 0.08766 0.02214 0.49194 0.0
C722 C 0.13229 0.03409 0.50627 0.0
C723 C 0.12803 0.05993 0.50235 0.0
C724 C 0.10316 0.06659 0.49355 0.0
C725 C 0.08325 0.048 0.4886 0.0
C726 C 0.16354 0.12328 0.51877 0.0
C727 C 0.18903 0.11905 0.51259 0.0
C728 C 0.14406 0.10395 0.51616 0.0
C729 C 0.14938 0.0799 0.50688 0.0
C730 C 0.17506 0.0755 0.5012 0.0
C731 C 0.1947 0.09481 0.5042 0.0
H732 H 0.80498 0.1554 0.75034 0.0
H733 H 0.74154 0.20153 0.7272 0.0
H734 H 0.7747 0.11897 0.75468 0.0
H735 H 0.71116 0.16462 0.73073 0.0
H736 H 0.66514 0.09648 0.76861 0.0
H737 H 0.69265 0.13508 0.76288 0.0
H738 H 0.74779 0.09118 0.72582 0.0
H739 H 0.7209 0.05283 0.73203 0.0
C740 C 0.78453 0.15782 0.74637 0.0
C741 C 0.77567 0.18136 0.73844 0.0
C742 C 0.7672 0.13684 0.74852 0.0
C743 C 0.74057 0.13885 0.74274 0.0
C744 C 0.73157 0.16251 0.73535 0.0
C745 C 0.74897 0.18356 0.73314 0.0
C746 C 0.68298 0.09517 0.75895 0.0
C747 C 0.69085 0.07155 0.75085 0.0
C748 C 0.69869 0.11727 0.75563 0.0
C749 C 0.72256 0.11609 0.74423 0.0
C750 C 0.72977 0.09264 0.73514 0.0
C751 C 0.71416 0.07065 0.73847 0.0
H752 H 0.43118 0.01714 0.49985 0.0
H753 H 0.42438 0.01598 0.58132 0.0
H754 H 0.39663 0.04684 0.49564 0.0
H755 H 0.39016 0.04577 0.5771 0.0
H756 H 0.3577 0.12344 0.56279 0.0
H757 H 0.38898 0.09089 0.5655 0.0
H758 H 0.34912 0.0516 0.50164 0.0
H759 H 0.31752 0.0846 0.49874 0.0
C760 C 0.42212 0.02295 0.51682 0.0
C761 C 0.43076 0.01437 0.54096 0.0
C762 C 0.40231 0.03995 0.51439 0.0
C763 C 0.39083 0.04882 0.53605 0.0
C764 C 0.39895 0.03966 0.56008 0.0
C765 C 0.41863 0.02263 0.5625 0.0
C766 C 0.35547 0.1079 0.54928 0.0
C767 C 0.33505 0.10664 0.53055 0.0
C768 C 0.37336 0.08911 0.55097 0.0
C769 C 0.37143 0.06856 0.53393 0.0
C770 C 0.35115 0.06729 0.51499 0.0
C771 C 0.33302 0.0861 0.51339 0.0
H772 H 0.59336 0.48987 0.55503 0.0
H773 H 0.57888 0.48557 0.47347 0.0
H774 H 0.62677 0.45947 0.55243 0.0
H775 H 0.61283 0.45534 0.47089 0.0
H776 H 0.69363 0.41876 0.47835 0.0
H777 H 0.66167 0.45139 0.47879 0.0
H778 H 0.62585 0.41346 0.5417 0.0
H779 H 0.65741 0.3812 0.54138 0.0
C780 C 0.5972 0.48234 0.53654 0.0
C781 C 0.58315 0.48989 0.5145 0.0
C782 C 0.61644 0.46501 0.53505 0.0
C783 C 0.62226 0.45488 0.51148 0.0
C784 C 0.60886 0.46298 0.48929 0.0
C785 C 0.58943 0.48027 0.4908 0.0
C786 C 0.67889 0.41744 0.49222 0.0
C787 C 0.67813 0.39744 0.50988 0.0
C788 C 0.66057 0.43603 0.49241 0.0
C789 C 0.64141 0.43506 0.51043 0.0
C790 C 0.64061 0.41494 0.52785 0.0
C791 C 0.65866 0.39635 0.52754 0.0
H792 H 0.68087 0.2407 0.32268 0.0
H793 H 0.75844 0.26034 0.30029 0.0
H794 H 0.68929 0.26618 0.36144 0.0
H795 H 0.76677 0.28602 0.33864 0.0
H796 H 0.78362 0.28851 0.42528 0.0
H797 H 0.77292 0.27248 0.38268 0.0
H798 H 0.70006 0.30866 0.3815 0.0
H799 H 0.7107 0.32465 0.42474 0.0
C800 C 0.69946 0.251 0.32576 0.0
C801 C 0.71916 0.24823 0.30878 0.0
C802 C 0.70429 0.26562 0.34789 0.0
C803 C 0.72885 0.27776 0.35329 0.0
C804 C 0.74785 0.27643 0.3353 0.0
C805 C 0.74308 0.26178 0.31334 0.0
C806 C 0.76538 0.29329 0.41596 0.0
C807 C 0.74796 0.30777 0.42852 0.0
C808 C 0.75934 0.28425 0.39138 0.0
C809 C 0.73567 0.28937 0.37864 0.0
C810 C 0.71839 0.30431 0.3909 0.0
C811 C 0.72455 0.31357 0.41558 0.0
H812 H 0.53621 0.01131 0.9492 0.0
H813 H 0.47608 0.99927 0.88982 0.0
H814 H 0.56905 0.00715 0.91831 0.0
H815 H 0.50906 0.99589 0.85844 0.0
H816 H 0.57744 0.97364 0.81145 0.0
H817 H 0.5437 0.97206 0.84254 0.0
H818 H 0.58575 0.03242 0.88534 0.0
H819 H 0.61938 0.0334 0.85517 0.0
C820 C 0.53006 0.00787 0.92945 0.0
C821 C 0.50363 0.00594 0.92185 0.0
C822 C 0.54886 0.00556 0.91168 0.0
C823 C 0.54177 0.00161 0.88574 0.0
C824 C 0.51525 0.99877 0.87825 0.0
C825 C 0.49635 0.00081 0.89617 0.0
C826 C 0.57946 0.98642 0.82762 0.0
C827 C 0.60121 0.00351 0.8309 0.0
C828 C 0.56008 0.98563 0.84535 0.0
C829 C 0.56208 0.00194 0.86664 0.0
C830 C 0.58378 0.01911 0.86962 0.0
C831 C 0.60307 0.01979 0.85211 0.0
H832 H 0.24796 0.24115 0.30949 0.0
H833 H 0.32831 0.24916 0.33603 0.0
H834 H 0.23789 0.21665 0.34733 0.0
H835 H 0.31822 0.22512 0.37427 0.0
H836 H 0.29457 0.1707 0.43653 0.0
H837 H 0.30397 0.18527 0.39368 0.0
H838 H 0.23492 0.22775 0.39097 0.0
H839 H 0.22525 0.21285 0.4331 0.0
C840 C 0.26349 0.23754 0.3234 0.0
C841 C 0.28885 0.24731 0.31998 0.0
C842 C 0.25773 0.22355 0.34511 0.0
C843 C 0.27717 0.21919 0.36406 0.0
C844 C 0.30281 0.22789 0.35999 0.0
C845 C 0.3086 0.24175 0.33813 0.0
C846 C 0.28117 0.18278 0.42657 0.0
C847 C 0.25924 0.19073 0.43838 0.0
C848 C 0.28667 0.19128 0.40209 0.0
C849 C 0.27029 0.20779 0.38888 0.0
C850 C 0.24783 0.2148 0.40035 0.0
C851 C 0.24237 0.20637 0.4247 0.0
H852 H 0.484 0.46822 0.947 0.0
H853 H 0.54464 0.51465 0.91321 0.0
H854 H 0.45659 0.47228 0.9081 0.0
H855 H 0.51634 0.52003 0.87547 0.0
H856 H 0.44451 0.54066 0.82288 0.0
H857 H 0.46535 0.53836 0.86576 0.0
H858 H 0.46919 0.4574 0.8575 0.0
H859 H 0.44922 0.45971 0.81438 0.0
C860 C 0.49153 0.4794 0.93152 0.0
C861 C 0.51679 0.49097 0.93346 0.0
C862 C 0.47565 0.48191 0.90939 0.0
C863 C 0.48438 0.49661 0.88903 0.0
C864 C 0.5091 0.5089 0.89115 0.0
C865 C 0.52522 0.5059 0.91294 0.0
C866 C 0.44933 0.52233 0.83043 0.0
C867 C 0.44534 0.50037 0.81531 0.0
C868 C 0.4613 0.52105 0.85485 0.0
C869 C 0.46876 0.49771 0.86477 0.0
C870 C 0.46342 0.47557 0.85026 0.0
C871 C 0.4521 0.47693 0.82562 0.0
H872 H 0.76239 0.77497 0.20173 0.0
H873 H 0.68314 0.78391 0.17504 0.0
H874 H 0.76615 0.74198 0.16992 0.0
H875 H 0.68677 0.75055 0.14329 0.0
H876 H 0.72281 0.72317 0.06838 0.0
H877 H 0.71161 0.74889 0.10405 0.0
H878 H 0.75036 0.69845 0.15616 0.0
H879 H 0.76164 0.67255 0.12033 0.0
C880 C 0.74569 0.76967 0.1892 0.0
C881 C 0.72256 0.78217 0.19067 0.0
C882 C 0.74775 0.75059 0.17116 0.0
C883 C 0.72676 0.74369 0.15407 0.0
C884 C 0.70331 0.75559 0.15611 0.0
C885 C 0.70119 0.77455 0.17435 0.0
C886 C 0.72848 0.71717 0.08743 0.0
C887 C 0.74325 0.69585 0.09146 0.0
C888 C 0.72196 0.73192 0.10792 0.0
C889 C 0.73025 0.7258 0.13291 0.0
C890 C 0.74394 0.70378 0.13707 0.0
C891 C 0.75028 0.68889 0.11656 0.0
H892 H 0.04438 0.01402 0.07945 0.0
H893 H 0.97388 0.02372 0.03398 0.0
H894 H 0.02016 0.01321 0.11792 0.0
H895 H 0.94921 0.02168 0.07224 0.0
H896 H 0.91963 0.05054 0.14674 0.0
H897 H 0.94161 0.04647 0.10743 0.0
H898 H 0.99057 0.9915 0.14321 0.0
H899 H 0.96949 0.99676 0.1829 0.0
C900 C 0.02357 0.01542 0.07771 0.0
C901 C 0.01099 0.01903 0.05383 0.0
C902 C 0.00959 0.01484 0.09974 0.0
C903 C 0.98262 0.01748 0.09835 0.0
C904 C 0.96999 0.02016 0.07421 0.0
C905 C 0.98405 0.02115 0.05224 0.0
C906 C 0.93493 0.03741 0.14615 0.0
C907 C 0.94282 0.02403 0.16802 0.0
C908 C 0.94749 0.03493 0.12349 0.0
C909 C 0.96803 0.01869 0.122 0.0
C910 C 0.97523 0.00458 0.14369 0.0
C911 C 0.96293 0.00739 0.16647 0.0
H912 H 0.25952 0.77117 0.19869 0.0
H913 H 0.33798 0.76101 0.17844 0.0
H914 H 0.25203 0.79615 0.16018 0.0
H915 H 0.33048 0.78601 0.13971 0.0
H916 H 0.28671 0.79499 0.05893 0.0
H917 H 0.30104 0.77705 0.09958 0.0
H918 H 0.26704 0.83752 0.13911 0.0
H919 H 0.25289 0.85574 0.09839 0.0
C920 C 0.27522 0.77454 0.18607 0.0
C921 C 0.29927 0.76412 0.1914 0.0
C922 C 0.27102 0.78897 0.16418 0.0
C923 C 0.29069 0.79299 0.14699 0.0
C924 C 0.31498 0.7831 0.15262 0.0
C925 C 0.31931 0.76896 0.17478 0.0
C926 C 0.28271 0.80479 0.07621 0.0
C927 C 0.26857 0.82677 0.07538 0.0
C928 C 0.29102 0.79453 0.09951 0.0
C929 C 0.28505 0.80585 0.12246 0.0
C930 C 0.27173 0.82832 0.12167 0.0
C931 C 0.26372 0.83877 0.09835 0.0
H932 H 0.00739 0.53304 0.09792 0.0
H933 H 0.01093 0.45167 0.10547 0.0
H934 H 0.04106 0.53891 0.13231 0.0
H935 H 0.04537 0.45786 0.13863 0.0
H936 H 0.13245 0.49263 0.16126 0.0
H937 H 0.09532 0.48862 0.13059 0.0
H938 H 0.04592 0.51601 0.18675 0.0
H939 H 0.08301 0.5195 0.21797 0.0
C940 C 0.01505 0.51644 0.107 0.0
C941 C 0.00664 0.49187 0.09856 0.0
C942 C 0.03435 0.51985 0.12658 0.0
C943 C 0.04573 0.4988 0.13782 0.0
C944 C 0.03692 0.47433 0.13003 0.0
C945 C 0.01738 0.47088 0.11085 0.0
C946 C 0.11372 0.49788 0.16713 0.0
C947 C 0.11064 0.50634 0.19206 0.0
C948 C 0.09254 0.49554 0.14958 0.0
C949 C 0.06798 0.50211 0.15643 0.0
C950 C 0.0648 0.51096 0.18114 0.0
C951 C 0.08594 0.51281 0.19894 0.0
H952 H 0.37867 0.7404 0.24294 0.0
H953 H 0.32525 0.73692 0.30321 0.0
H954 H 0.41514 0.74252 0.27454 0.0
H955 H 0.36138 0.73993 0.33478 0.0
H956 H 0.42846 0.7154 0.38463 0.0
H957 H 0.39383 0.7141 0.35164 0.0
H958 H 0.43861 0.76745 0.30692 0.0
H959 H 0.47381 0.76799 0.33969 0.0
C960 C 0.37479 0.74053 0.26297 0.0
C961 C 0.34922 0.73828 0.2707 0.0
C962 C 0.39563 0.74178 0.28108 0.0
C963 C 0.39125 0.74105 0.30726 0.0
C964 C 0.36555 0.73982 0.31483 0.0
C965 C 0.34481 0.73828 0.29678 0.0
C966 C 0.431 0.72679 0.36773 0.0
C967 C 0.45386 0.74189 0.36487 0.0
C968 C 0.41102 0.72621 0.34885 0.0
C969 C 0.4132 0.74096 0.32672 0.0
C970 C 0.43631 0.7557 0.3236 0.0
C971 C 0.45647 0.75607 0.34243 0.0
H972 H 0.97012 0.46045 0.98662 0.0
H973 H 0.97972 0.41492 0.05427 0.0
H974 H 0.97488 0.42276 0.96016 0.0
H975 H 0.98449 0.37761 0.02809 0.0
H976 H 0.96372 0.31169 0.97613 0.0
H977 H 0.95534 0.351 0.99731 0.0
H978 H 0.01118 0.39166 0.95223 0.0
H979 H 0.01978 0.35206 0.93072 0.0
C980 C 0.97312 0.44239 0.99576 0.0
C981 C 0.97463 0.44054 0.02245 0.0
C982 C 0.976 0.42094 0.98069 0.0
C983 C 0.97993 0.39729 0.9921 0.0
C984 C 0.9812 0.39553 0.01877 0.0
C985 C 0.97867 0.41691 0.03375 0.0
C986 C 0.97412 0.32897 0.97044 0.0
C987 C 0.99274 0.32859 0.95193 0.0
C988 C 0.96931 0.35149 0.98267 0.0
C989 C 0.98285 0.37427 0.97664 0.0
C990 C 1.00044 0.37432 0.95719 0.0
C991 C 0.00541 0.35164 0.94497 0.0
H992 H 0.70414 0.83588 0.29174 0.0
H993 H 0.64732 0.8183 0.23041 0.0
H994 H 0.67024 0.83352 0.32205 0.0
H995 H 0.61305 0.81665 0.26064 0.0
H996 H 0.56793 0.78005 0.32595 0.0
H997 H 0.59796 0.78943 0.29289 0.0
H998 H 0.63361 0.85164 0.33801 0.0
H999 H 0.60411 0.8415 0.37164 0.0
C1000 C 0.68427 0.83205 0.28469 0.0
C1001 C 0.67838 0.82718 0.25873 0.0
C1002 C 0.66475 0.8308 0.30206 0.0
C1003 C 0.6388 0.82485 0.29388 0.0
C1004 C 0.63284 0.82083 0.26772 0.0
C1005 C 0.65243 0.82184 0.25037 0.0
C1006 C 0.58192 0.79597 0.3287 0.0
C1007 C 0.58382 0.80983 0.3516 0.0
C1008 C 0.59912 0.80147 0.30961 0.0
C1009 C 0.61849 0.82115 0.31281 0.0
C1010 C 0.61936 0.83597 0.33512 0.0
C1011 C 0.6023 0.8303 0.35434 0.0
H1012 H 0.078 0.07621 0.97417 0.0
H1013 H 0.99492 0.07282 0.98024 0.0
H1014 H 0.07587 0.11731 0.95334 0.0
H1015 H 0.99302 0.11433 0.95999 0.0
H1016 H 0.05886 0.18326 0.89939 0.0
H1017 H 0.05791 0.13919 0.91383 0.0
H1018 H 0.00945 0.15823 0.97453 0.0
H1019 H 0.01063 0.20212 0.96045 0.0
C1020 C 0.05922 0.08396 0.97065 0.0
C1021 C 0.03664 0.07122 0.97906 0.0
C1022 C 0.05804 0.10756 0.95876 0.0
C1023 C 0.03431 0.11907 0.95521 0.0
C1024 C 0.01162 0.10603 0.96281 0.0
C1025 C 0.01275 0.08231 0.97448 0.0
C1026 C 0.04783 0.178 0.91569 0.0
C1027 C 0.03471 0.19623 0.92868 0.0
C1028 C 0.04736 0.1528 0.92397 0.0
C1029 C 0.03353 0.14529 0.94523 0.0
C1030 C 0.01995 0.16338 0.95785 0.0
C1031 C 0.02067 0.18859 0.94977 0.0
H1032 H 0.32336 0.28405 0.2119 0.0
H1033 H 0.36996 0.26618 0.27937 0.0
H1034 H 0.36036 0.2789 0.18603 0.0
H1035 H 0.40695 0.26075 0.25337 0.0
H1036 H 0.45391 0.22194 0.19258 0.0
H1037 H 0.42015 0.23118 0.22119 0.0
H1038 H 0.40335 0.2981 0.1775 0.0
H1039 H 0.43697 0.2887 0.14862 0.0
C1040 C 0.34157 0.2793 0.22128 0.0
C1041 C 0.34361 0.27553 0.24776 0.0
C1042 C 0.36282 0.27637 0.20643 0.0
C1043 C 0.38667 0.26949 0.21762 0.0
C1044 C 0.38879 0.2658 0.2441 0.0
C1045 C 0.36754 0.26883 0.25899 0.0
C1046 C 0.44327 0.23882 0.18923 0.0
C1047 C 0.44805 0.25447 0.16817 0.0
C1048 C 0.42395 0.24417 0.20573 0.0
C1049 C 0.40886 0.26525 0.20152 0.0
C1050 C 0.41435 0.28148 0.18104 0.0
C1051 C 0.43377 0.2762 0.1646 0.0
H1052 H 0.54726 0.41171 0.96772 0.0
H1053 H 0.55268 0.44941 0.04074 0.0
H1054 H 0.54284 0.37071 0.98879 0.0
H1055 H 0.54849 0.4081 0.06202 0.0
H1056 H 0.56109 0.30078 0.03307 0.0
H1057 H 0.56952 0.34318 0.01646 0.0
H1058 H 0.51401 0.37221 0.0658 0.0
H1059 H 0.50548 0.32952 0.08272 0.0
C1060 C 0.54755 0.4112 0.98831 0.0
C1061 C 0.55021 0.43376 0.00258 0.0
C1062 C 0.54524 0.3877 1.00041 0.0
C1063 C 0.54538 0.38616 0.02709 0.0
C1064 C 0.54818 0.40871 0.04143 0.0
C1065 C 0.55078 0.43229 0.02929 0.0
C1066 C 0.55078 0.31615 0.04066 0.0
C1067 C 0.53234 0.31157 0.05908 0.0
C1068 C 0.55558 0.34048 0.03101 0.0
C1069 C 0.54219 0.36097 0.03955 0.0
C1070 C 0.52469 0.35678 0.05888 0.0
C1071 C 0.51975 0.3323 0.06851 0.0
H1072 H 0.63999 0.21343 0.25898 0.0
H1073 H 0.69353 0.21034 0.19909 0.0
H1074 H 0.60399 0.21542 0.22719 0.0
H1075 H 0.65798 0.21325 0.16736 0.0
H1076 H 0.58878 0.19603 0.11465 0.0
H1077 H 0.62209 0.19075 0.14811 0.0
H1078 H 0.58424 0.24189 0.19638 0.0
H1079 H 0.5501 0.24621 0.16306 0.0
C1080 C 0.64403 0.21329 0.23899 0.0
C1081 C 0.66953 0.21153 0.2315 0.0
C1082 C 0.62344 0.21456 0.22075 0.0
C1083 C 0.62793 0.21441 0.19459 0.0
C1084 C 0.65356 0.21279 0.18724 0.0
C1085 C 0.67403 0.2112 0.20544 0.0
C1086 C 0.58747 0.20607 0.13245 0.0
C1087 C 0.56688 0.22171 0.1361 0.0
C1088 C 0.60672 0.20318 0.15164 0.0
C1089 C 0.60621 0.21618 0.17493 0.0
C1090 C 0.58523 0.23137 0.17883 0.0
C1091 C 0.56568 0.23397 0.15968 0.0
H1092 H 0.43147 0.06377 0.99367 0.0
H1093 H 0.51465 0.05869 0.9961 0.0
H1094 H 0.43674 0.10172 0.02019 0.0
H1095 H 0.51977 0.09725 0.02185 0.0
H1096 H 0.45656 0.15608 0.08757 0.0
H1097 H 0.45337 0.11541 0.06508 0.0
H1098 H 0.51069 0.1438 0.01399 0.0
H1099 H 0.51365 0.18447 0.03609 0.0
C1100 C 0.45087 0.07051 1.00005 0.0
C1101 C 0.47263 0.05808 0.9926 0.0
C1102 C 0.45385 0.09232 0.01522 0.0
C1103 C 0.47866 0.10244 0.02305 0.0
C1104 C 0.50042 0.09 0.01586 0.0
C1105 C 0.49745 0.06798 0.00097 0.0
C1106 C 0.46868 0.15358 0.0717 0.0
C1107 C 0.48542 0.17356 0.06369 0.0
C1108 C 0.46674 0.13033 0.05876 0.0
C1109 C 0.48177 0.12648 0.03779 0.0
C1110 C 0.49906 0.14616 0.03026 0.0
C1111 C 0.50072 0.1695 0.04294 0.0
H1112 H 0.23152 0.38924 0.72367 0.0
H1113 H 0.28694 0.33161 0.73413 0.0
H1114 H 0.26681 0.42215 0.72622 0.0
H1115 H 0.32209 0.36421 0.73784 0.0
H1116 H 0.38077 0.42308 0.71172 0.0
H1117 H 0.34435 0.39211 0.71096 0.0
H1118 H 0.30006 0.4444 0.75167 0.0
H1119 H 0.33642 0.47595 0.75145 0.0
C1120 C 0.25125 0.38372 0.72702 0.0
C1121 C 0.25662 0.35797 0.72846 0.0
C1122 C 0.27148 0.40252 0.72854 0.0
C1123 C 0.29743 0.39589 0.73184 0.0
C1124 C 0.30249 0.37007 0.73452 0.0
C1125 C 0.28236 0.35136 0.73262 0.0
C1126 C 0.36327 0.42803 0.72049 0.0
C1127 C 0.36157 0.45196 0.73175 0.0
C1128 C 0.34238 0.41015 0.72024 0.0
C1129 C 0.31928 0.41552 0.7316 0.0
C1130 C 0.31743 0.43963 0.74257 0.0
C1131 C 0.33831 0.45771 0.74253 0.0
H1132 H 0.28063 0.70218 0.77273 0.0
H1133 H 0.22356 0.64119 0.75458 0.0
H1134 H 0.31514 0.67334 0.76826 0.0
H1135 H 0.25835 0.61228 0.74935 0.0
H1136 H 0.32879 0.56356 0.76972 0.0
H1137 H 0.2931 0.59137 0.77498 0.0
H1138 H 0.3342 0.65072 0.73434 0.0
H1139 H 0.36976 0.62333 0.72943 0.0
C1140 C 0.27546 0.68257 0.76779 0.0
C1141 C 0.24935 0.67394 0.76411 0.0
C1142 C 0.29526 0.66608 0.765 0.0
C1143 C 0.28951 0.64051 0.75842 0.0
C1144 C 0.26339 0.63182 0.75467 0.0
C1145 C 0.2435 0.64841 0.75737 0.0
C1146 C 0.33021 0.58259 0.76204 0.0
C1147 C 0.35218 0.59126 0.74927 0.0
C1148 C 0.30969 0.59844 0.76487 0.0
C1149 C 0.31085 0.62328 0.75512 0.0
C1150 C 0.33284 0.63184 0.74238 0.0
C1151 C 0.35321 0.61605 0.73949 0.0
H1152 H 0.94723 0.44546 0.4619 0.0
H1153 H 0.89689 0.50589 0.47635 0.0
H1154 H 0.91212 0.41438 0.46909 0.0
H1155 H 0.86228 0.47467 0.4855 0.0
H1156 H 0.79781 0.41132 0.47732 0.0
H1157 H 0.83163 0.44364 0.468 0.0
H1158 H 0.88942 0.39651 0.50254 0.0
H1159 H 0.85594 0.36403 0.51072 0.0
C1160 C 0.92867 0.45218 0.46654 0.0
C1161 C 0.92502 0.47828 0.46854 0.0
C1162 C 0.90857 0.43428 0.47112 0.0
C1163 C 0.88434 0.44192 0.47821 0.0
C1164 C 0.88056 0.46802 0.47991 0.0
C1165 C 0.90059 0.48596 0.47502 0.0
C1166 C 0.81776 0.40798 0.48296 0.0
C1167 C 0.82422 0.38503 0.49454 0.0
C1168 C 0.83717 0.42653 0.47771 0.0
C1169 C 0.8634 0.42264 0.48424 0.0
C1170 C 0.8696 0.39996 0.49654 0.0
C1171 C 0.85033 0.38135 0.50143 0.0
H1172 H 0.73228 0.80318 0.78297 0.0
H1173 H 0.79746 0.84974 0.75801 0.0
H1174 H 0.70378 0.83769 0.7732 0.0
H1175 H 0.7689 0.88369 0.74766 0.0
H1176 H 0.71013 0.93219 0.71122 0.0
H1177 H 0.73208 0.89298 0.71726 0.0
H1178 H 0.69808 0.88219 0.7899 0.0
H1179 H 0.67584 0.92167 0.78388 0.0
C1180 C 0.74056 0.82071 0.77539 0.0
C1181 C 0.76725 0.82362 0.77129 0.0
C1182 C 0.72418 0.84041 0.76974 0.0
C1183 C 0.73406 0.86332 0.75955 0.0
C1184 C 0.7606 0.86608 0.75507 0.0
C1185 C 0.77699 0.84654 0.76094 0.0
C1186 C 0.70692 0.92132 0.72834 0.0
C1187 C 0.69152 0.93032 0.74727 0.0
C1188 C 0.71963 0.89888 0.73181 0.0
C1189 C 0.71722 0.88479 0.75426 0.0
C1190 C 0.7003 0.89268 0.77239 0.0
C1191 C 0.68755 0.91528 0.76893 0.0
H1192 H 0.59822 0.53147 0.95023 0.0
H1193 H 0.5969 0.51349 0.03037 0.0
H1194 H 0.63206 0.56445 0.95952 0.0
H1195 H 0.63188 0.54597 0.03933 0.0
H1196 H 0.71392 0.59181 0.03419 0.0
H1197 H 0.68153 0.55643 0.02646 0.0
H1198 H 0.6313 0.60686 0.98581 0.0
H1199 H 0.66311 0.6421 0.99379 0.0
C1200 C 0.60498 0.53456 0.96987 0.0
C1201 C 0.59433 0.52002 0.9896 0.0
C1202 C 0.62458 0.55335 0.9751 0.0
C1203 C 0.63445 0.5578 1.00013 0.0
C1204 C 0.62465 0.54277 0.01984 0.0
C1205 C 0.60466 0.52416 0.01466 0.0
C1206 C 0.69596 0.59528 0.02359 0.0
C1207 C 0.69108 0.61975 0.0146 0.0
C1208 C 0.67742 0.57511 0.01933 0.0
C1209 C 0.654 0.57898 0.00552 0.0
C1210 C 0.64927 0.60335 0.99639 0.0
C1211 C 0.66747 0.62353 0.00105 0.0
H1212 H 0.23473 0.70649 0.23036 0.0
H1213 H 0.30038 0.66167 0.24908 0.0
H1214 H 0.20569 0.66849 0.23328 0.0
H1215 H 0.27149 0.62415 0.25289 0.0
H1216 H 0.21877 0.55684 0.23304 0.0
H1217 H 0.24404 0.59593 0.22548 0.0
H1218 H 0.18952 0.63808 0.26539 0.0
H1219 H 0.16361 0.59877 0.27237 0.0
C1220 C 0.24294 0.68855 0.2351 0.0
C1221 C 0.26985 0.68709 0.23955 0.0
C1222 C 0.22631 0.66687 0.23697 0.0
C1223 C 0.2363 0.64329 0.24316 0.0
C1224 C 0.26319 0.64193 0.24769 0.0
C1225 C 0.27974 0.66352 0.24586 0.0
C1226 C 0.21181 0.57442 0.23982 0.0
C1227 C 0.18917 0.57463 0.25338 0.0
C1228 C 0.22649 0.59685 0.23569 0.0
C1229 C 0.21901 0.62005 0.24517 0.0
C1230 C 0.19574 0.6205 0.25776 0.0
C1231 C 0.18095 0.59798 0.26183 0.0
H1232 H 0.94788 0.55074 0.05371 0.0
H1233 H 0.89778 0.48317 0.04176 0.0
H1234 H 0.91043 0.57684 0.04821 0.0
H1235 H 0.86039 0.50926 0.03594 0.0
H1236 H 0.79929 0.56495 0.06064 0.0
H1237 H 0.83569 0.53743 0.06293 0.0
H1238 H 0.8778 0.5886 0.01391 0.0
H1239 H 0.84147 0.61619 0.01161 0.0
C1240 C 0.92887 0.5415 0.04991 0.0
C1241 C 0.92577 0.51494 0.04815 0.0
C1242 C 0.90747 0.55642 0.04652 0.0
C1243 C 0.88248 0.54509 0.04156 0.0
C1244 C 0.87938 0.51852 0.03986 0.0
C1245 C 0.9008 0.50362 0.043 0.0
C1246 C 0.81619 0.57021 0.05012 0.0
C1247 C 0.81749 0.59283 0.03603 0.0
C1248 C 0.83701 0.55439 0.05138 0.0
C1249 C 0.85968 0.56096 0.03876 0.0
C1250 C 0.86072 0.58322 0.02411 0.0
C1251 C 0.83981 0.59891 0.02265 0.0
H1252 H 0.10817 0.01766 0.9872 0.0
H1253 H 0.05457 0.95593 0.00677 0.0
H1254 H 0.14048 0.98739 0.97856 0.0
H1255 H 0.08729 0.92579 0.9994 0.0
H1256 H 0.14288 0.87472 0.96598 0.0
H1257 H 0.1107 0.9066 0.96704 0.0
H1258 H 0.1684 0.95987 0.00189 0.0
H1259 H 0.20072 0.92824 1.00014 0.0
C1260 C 0.1032 0.99762 0.98951 0.0
C1261 C 0.07875 0.98924 0.99771 0.0
C1262 C 0.12185 0.98028 0.98483 0.0
C1263 C 0.11655 0.95414 0.98831 0.0
C1264 C 0.09197 0.94575 0.99618 0.0
C1265 C 0.0733 0.96307 1.00077 0.0
C1266 C 0.1488 0.89336 0.97351 0.0
C1267 C 0.17433 0.89886 0.98316 0.0
C1268 C 0.13029 0.91159 0.97431 0.0
C1269 C 0.13683 0.93571 0.98488 0.0
C1270 C 0.16268 0.94157 0.99343 0.0
C1271 C 0.18124 0.92338 0.99251 0.0
loop_
_geom_bond_atom_site_label_1
_geom_bond_atom_site_label_2
_geom_bond_distance
_geom_bond_site_symmetry_2
_ccdc_geom_bond_type
H0 C3 0.931 . S
H1 C6 0.928 . S
H2 C8 0.930 1_556 S
C3 H0 0.931 . S
C3 C4 1.413 . S
C3 C5 1.360 . S
C4 C3 1.413 . S
C4 C8 1.429 . S
C5 C3 1.360 . S
C5 C6 1.372 . S
C6 H1 0.928 . S
C6 C5 1.372 . S
C6 C7 1.404 . S
C7 C6 1.404 . S
C7 C8 1.391 . S
C8 H2 0.930 1_554 S
C8 C4 1.429 . S
C8 C7 1.391 . S
H9 C12 0.931 . S
H10 C15 0.928 . S
H11 C17 0.930 . S
C12 H9 0.931 . S
C12 C13 1.413 . S
C12 C14 1.360 . S
C13 C12 1.413 . S
C13 C17 1.429 . S
C14 C12 1.360 . S
C14 C15 1.372 . S
C15 H10 0.928 . S
C15 C14 1.372 . S
C15 C16 1.404 . S
C16 C15 1.404 . S
C16 C17 1.391 . S
C17 H11 0.930 . S
C17 C13 1.429 . S
C17 C16 1.391 . S
H18 C21 0.931 . S
H19 C24 0.960 . S
H20 C26 0.930 . S
C21 H18 0.931 . S
C21 C22 1.413 . S
C21 C23 1.360 . S
C22 C21 1.413 . S
C22 C26 1.429 . S
C23 C21 1.360 . S
C23 C24 1.362 1_655 S
C24 H19 0.960 . S
C24 C23 1.362 1_455 S
C24 C25 1.382 1_455 S
C25 C24 1.382 1_655 S
C25 C26 1.391 . S
C26 H20 0.930 . S
C26 C22 1.429 . S
C26 C25 1.391 . S
H27 C30 0.931 . S
H28 C33 0.928 . S
H29 C35 0.930 . S
C30 H27 0.931 . S
C30 C31 1.413 . S
C30 C32 1.360 . S
C31 C30 1.413 . S
C31 C35 1.429 . S
C32 C30 1.360 . S
C32 C33 1.372 . S
C33 H28 0.928 . S
C33 C32 1.372 . S
C33 C34 1.404 . S
C34 C33 1.404 . S
C34 C35 1.391 . S
C35 H29 0.930 . S
C35 C31 1.429 . S
C35 C34 1.391 . S
H36 C39 0.931 . S
H37 C42 0.928 1_545 S
H38 C44 0.930 . S
C39 H36 0.931 . S
C39 C40 1.413 . S
C39 C41 1.360 . S
C40 C39 1.413 . S
C40 C44 1.429 . S
C41 C39 1.360 . S
C41 C42 1.372 . S
C42 H37 0.928 1_565 S
C42 C41 1.372 . S
C42 C43 1.404 . S
C43 C42 1.404 . S
C43 C44 1.391 . S
C44 H38 0.930 . S
C44 C40 1.429 . S
C44 C43 1.391 . S
H45 C48 0.931 . S
H46 C51 0.928 . S
H47 C53 0.930 . S
C48 H45 0.931 . S
C48 C49 1.413 . S
C48 C50 1.360 . S
C49 C48 1.413 . S
C49 C53 1.429 . S
C50 C48 1.360 . S
C50 C51 1.372 . S
C51 H46 0.928 . S
C51 C50 1.372 . S
C51 C52 1.404 . S
C52 C51 1.404 . S
C52 C53 1.391 . S
C53 H47 0.930 . S
C53 C49 1.429 . S
C53 C52 1.391 . S
H54 C57 0.931 . S
H55 C60 0.958 . S
H56 C62 0.930 . S
C57 H54 0.931 . S
C57 C58 1.413 . S
C57 C59 1.360 . S
C58 C57 1.413 . S
C58 C62 1.429 . S
C59 C57 1.360 . S
C59 C60 1.372 . S
C60 H55 0.958 . S
C60 C59 1.372 . S
C60 C61 1.404 . S
C61 C60 1.404 . S
C61 C62 1.391 . S
C62 H56 0.930 . S
C62 C58 1.429 . S
C62 C61 1.391 . S
H63 C66 0.931 . S
H64 C69 0.928 . S
H65 C71 0.930 . S
C66 H63 0.931 . S
C66 C67 1.413 . S
C66 C68 1.360 . S
C67 C66 1.413 . S
C67 C71 1.429 . S
C68 C66 1.360 . S
C68 C69 1.372 . S
C69 H64 0.928 . S
C69 C68 1.372 . S
C69 C70 1.404 . S
C70 C69 1.404 . S
C70 C71 1.391 . S
C71 H65 0.930 . S
C71 C67 1.429 . S
C71 C70 1.391 . S
H72 C75 0.931 . S
H73 C78 0.928 . S
H74 C80 0.930 . S
C75 H72 0.931 . S
C75 C76 1.413 . S
C75 C77 1.360 . S
C76 C75 1.413 . S
C76 C80 1.429 . S
C77 C75 1.360 . S
C77 C78 1.372 . S
C78 H73 0.928 . S
C78 C77 1.372 . S
C78 C79 1.404 . S
C79 C78 1.404 . S
C79 C80 1.391 . S
C80 H74 0.930 . S
C80 C76 1.429 . S
C80 C79 1.391 . S
H81 C84 0.931 . S
H82 C87 0.928 . S
H83 C89 0.930 . S
C84 H81 0.931 . S
C84 C85 1.413 . S
C84 C86 1.360 . S
C85 C84 1.413 . S
C85 C89 1.429 . S
C86 C84 1.360 . S
C86 C87 1.372 . S
C87 H82 0.928 . S
C87 C86 1.372 . S
C87 C88 1.404 . S
C88 C87 1.404 . S
C88 C89 1.391 . S
C89 H83 0.930 . S
C89 C85 1.429 . S
C89 C88 1.391 . S
H90 C93 0.931 . S
H91 C96 0.928 . S
H92 C98 0.930 . S
C93 H90 0.931 . S
C93 C94 1.413 . S
C93 C95 1.360 . S
C94 C93 1.413 . S
C94 C98 1.429 . S
C95 C93 1.360 . S
C95 C96 1.372 . S
C96 H91 0.928 . S
C96 C95 1.372 . S
C96 C97 1.404 . S
C97 C96 1.404 . S
C97 C98 1.391 . S
C98 H92 0.930 . S
C98 C94 1.429 . S
C98 C97 1.391 . S
H99 C102 0.931 . S
H100 C105 0.928 . S
H101 C107 0.930 . S
C102 H99 0.931 . S
C102 C103 1.413 . S
C102 C104 1.360 . S
C103 C102 1.413 . S
C103 C107 1.429 . S
C104 C102 1.360 . S
C104 C105 1.372 . S
C105 H100 0.928 . S
C105 C104 1.372 . S
C105 C106 1.404 . S
C106 C105 1.404 . S
C106 C107 1.391 . S
C107 H101 0.930 . S
C107 C103 1.429 . S
C107 C106 1.391 . S
H108 C111 0.931 . S
H109 C114 0.928 . S
H110 C116 0.930 . S
C111 H108 0.931 . S
C111 C112 1.413 . S
C111 C113 1.360 . S
C112 C111 1.413 . S
C112 C116 1.429 . S
C113 C111 1.360 . S
C113 C114 1.372 . S
C114 H109 0.928 . S
C114 C113 1.372 . S
C114 C115 1.404 . S
C115 C114 1.404 . S
C115 C116 1.391 . S
C116 H110 0.930 . S
C116 C112 1.429 . S
C116 C115 1.391 . S
H117 C120 0.931 . S
H118 C123 0.928 . S
H119 C125 0.928 . S
C120 H117 0.931 . S
C120 C121 1.413 . S
C120 C122 1.360 . S
C121 C120 1.413 . S
C121 C125 1.429 . S
C122 C120 1.360 . S
C122 C123 1.372 . S
C123 H118 0.928 . S
C123 C122 1.372 . S
C123 C124 1.404 . S
C124 C123 1.404 . S
C124 C125 1.391 . S
C125 H119 0.928 . S
C125 C121 1.429 . S
C125 C124 1.391 . S
H126 C129 0.931 . S
H127 C132 0.928 . S
H128 C134 0.930 . S
C129 H126 0.931 . S
C129 C130 1.413 . S
C129 C131 1.360 . S
C130 C129 1.413 . S
C130 C134 1.429 . S
C131 C129 1.360 . S
C131 C132 1.372 . S
C132 H127 0.928 . S
C132 C131 1.372 . S
C132 C133 1.404 . S
C133 C132 1.404 . S
C133 C134 1.391 . S
C134 H128 0.930 . S
C134 C130 1.429 . S
C134 C133 1.391 . S
H135 C138 0.931 1_554 S
H136 C141 0.928 . S
H137 C143 0.930 1_565 S
C138 H135 0.931 1_556 S
C138 C139 1.413 . S
C138 C140 1.360 . S
C139 C138 1.413 . S
C139 C143 1.429 . S
C140 C138 1.360 . S
C140 C141 1.372 . S
C141 H136 0.928 . S
C141 C140 1.372 . S
C141 C142 1.404 . S
C142 C141 1.404 . S
C142 C143 1.391 . S
C143 H137 0.930 1_545 S
C143 C139 1.429 . S
C143 C142 1.391 . S
Mg144 O145 2.027 1_554 S
Mg144 O151 1.986 1_554 S
Mg144 O153 2.114 . S
Mg144 O154 2.251 . S
Mg144 O157 2.010 . S
O145 Mg144 2.027 1_556 S
O145 C148 1.252 . S
O146 Mg147 2.028 . S
O146 C148 1.248 . S
Mg147 O146 2.028 . S
Mg147 O152 2.032 . S
Mg147 O154 2.079 1_556 S
C148 O145 1.252 . S
C148 O146 1.248 . S
C149 O150 1.264 . S
C149 O157 1.249 . S
O150 C149 1.264 . S
O151 Mg144 1.986 1_556 S
O151 C155 1.246 . S
O152 Mg147 2.032 . S
O152 C155 1.259 . S
O153 Mg144 2.114 . S
O153 C156 1.252 . S
O154 Mg144 2.251 . S
O154 Mg147 2.079 1_554 S
O154 C156 1.273 . S
C155 O151 1.246 . S
C155 O152 1.259 . S
C156 O153 1.252 . S
C156 O154 1.273 . S
O157 Mg144 2.010 . S
O157 C149 1.249 . S
Mg158 O159 2.028 . S
Mg158 O165 1.986 . S
Mg158 O167 2.114 . S
Mg158 O168 2.251 . S
Mg158 O171 2.010 . S
O159 Mg158 2.028 . S
O159 C162 1.250 . S
O160 Mg161 2.028 . S
O160 C162 1.248 . S
Mg161 O160 2.028 . S
Mg161 O166 2.032 . S
Mg161 O168 2.079 . S
C162 O159 1.250 . S
C162 O160 1.248 . S
C163 O164 1.264 . S
C163 O171 1.249 . S
O164 C163 1.264 . S
O165 Mg158 1.986 . S
O165 C169 1.246 . S
O166 Mg161 2.032 . S
O166 C169 1.259 . S
O167 Mg158 2.114 . S
O167 C170 1.252 . S
O168 Mg158 2.251 . S
O168 Mg161 2.079 . S
O168 C170 1.273 . S
C169 O165 1.246 . S
C169 O166 1.259 . S
C170 O167 1.252 . S
C170 O168 1.273 . S
O171 Mg158 2.010 . S
O171 C163 1.249 . S
Mg172 O173 2.028 . S
Mg172 O179 1.986 1_554 S
Mg172 O181 2.114 . S
Mg172 O182 2.251 . S
Mg172 O185 2.010 . S
O173 Mg172 2.028 . S
O173 C176 1.250 . S
O174 Mg175 2.028 . S
O174 C176 1.248 1_556 S
Mg175 O174 2.028 . S
Mg175 O180 2.032 . S
Mg175 O182 2.079 1_556 S
C176 O173 1.250 . S
C176 O174 1.248 1_554 S
C177 O178 1.264 . S
C177 O185 1.249 . S
O178 C177 1.264 . S
O179 Mg172 1.986 1_556 S
O179 C183 1.246 . S
O180 Mg175 2.032 . S
O180 C183 1.259 . S
O181 Mg172 2.114 . S
O181 C184 1.252 . S
O182 Mg172 2.251 . S
O182 Mg175 2.079 1_554 S
O182 C184 1.273 . S
C183 O179 1.246 . S
C183 O180 1.259 . S
C184 O181 1.252 . S
C184 O182 1.273 . S
O185 Mg172 2.010 . S
O185 C177 1.249 . S
Mg186 O187 2.029 . S
Mg186 O193 1.986 . S
Mg186 O195 2.114 . S
Mg186 O196 2.251 . S
Mg186 O199 2.010 . S
O187 Mg186 2.029 . S
O187 C190 1.249 1_545 S
O188 Mg189 2.028 . S
O188 C190 1.248 . S
Mg189 O188 2.028 . S
Mg189 O194 2.032 . S
Mg189 O196 2.079 1_565 S
C190 O187 1.249 1_565 S
C190 O188 1.248 . S
C191 O192 1.264 . S
C191 O199 1.249 . S
O192 C191 1.264 . S
O193 Mg186 1.986 . S
O193 C197 1.246 . S
O194 Mg189 2.032 . S
O194 C197 1.259 1_565 S
O195 Mg186 2.114 . S
O195 C198 1.252 . S
O196 Mg186 2.251 . S
O196 Mg189 2.079 1_545 S
O196 C198 1.273 . S
C197 O193 1.246 . S
C197 O194 1.259 1_545 S
C198 O195 1.252 . S
C198 O196 1.273 . S
O199 Mg186 2.010 . S
O199 C191 1.249 . S
Mg200 O201 2.028 . S
Mg200 O207 1.986 . S
Mg200 O209 2.114 . S
Mg200 O210 2.251 . S
Mg200 O213 2.010 . S
O201 Mg200 2.028 . S
O201 C204 1.250 . S
O202 Mg203 2.028 . S
O202 C204 1.248 . S
Mg203 O202 2.028 . S
Mg203 O208 2.032 . S
Mg203 O210 2.079 . S
C204 O201 1.250 . S
C204 O202 1.248 . S
C205 O206 1.264 . S
C205 O213 1.249 . S
O206 C205 1.264 . S
O207 Mg200 1.986 . S
O207 C211 1.246 . S
O208 Mg203 2.032 . S
O208 C211 1.259 . S
O209 Mg200 2.114 . S
O209 C212 1.252 . S
O210 Mg200 2.251 . S
O210 Mg203 2.079 . S
O210 C212 1.273 . S
C211 O207 1.246 . S
C211 O208 1.259 . S
C212 O209 1.252 . S
C212 O210 1.273 . S
O213 Mg200 2.010 . S
O213 C205 1.249 . S
Mg214 O215 2.028 . S
Mg214 O221 1.986 . S
Mg214 O223 2.114 . S
Mg214 O224 2.251 . S
Mg214 O227 2.010 . S
O215 Mg214 2.028 . S
O215 C218 1.250 . S
O216 Mg217 2.028 . S
O216 C218 1.248 . S
Mg217 O216 2.028 . S
Mg217 O222 2.032 . S
Mg217 O224 2.079 . S
C218 O215 1.250 . S
C218 O216 1.248 . S
C219 O220 1.264 . S
C219 O227 1.249 . S
O220 C219 1.264 . S
O221 Mg214 1.986 . S
O221 C225 1.246 . S
O222 Mg217 2.032 . S
O222 C225 1.259 . S
O223 Mg214 2.114 . S
O223 C226 1.252 . S
O224 Mg214 2.251 . S
O224 Mg217 2.079 . S
O224 C226 1.273 . S
C225 O221 1.246 . S
C225 O222 1.259 . S
C226 O223 1.252 . S
C226 O224 1.273 . S
O227 Mg214 2.010 . S
O227 C219 1.249 . S
Mg228 O229 2.028 . S
Mg228 O235 1.986 . S
Mg228 O237 2.114 . S
Mg228 O238 2.251 . S
Mg228 O241 2.010 . S
O229 Mg228 2.028 . S
O229 C232 1.250 . S
O230 Mg231 2.028 . S
O230 C232 1.248 . S
Mg231 O230 2.028 . S
Mg231 O236 2.032 . S
Mg231 O238 2.079 . S
C232 O229 1.250 . S
C232 O230 1.248 . S
C233 O234 1.264 . S
C233 O241 1.249 . S
O234 C233 1.264 . S
O235 Mg228 1.986 . S
O235 C239 1.246 . S
O236 Mg231 2.032 . S
O236 C239 1.259 . S
O237 Mg228 2.114 . S
O237 C240 1.252 . S
O238 Mg228 2.251 . S
O238 Mg231 2.079 . S
O238 C240 1.273 . S
C239 O235 1.246 . S
C239 O236 1.259 . S
C240 O237 1.252 . S
C240 O238 1.273 . S
O241 Mg228 2.010 . S
O241 C233 1.249 . S
Mg242 O243 2.028 1_545 S
Mg242 O249 1.986 1_545 S
Mg242 O251 2.114 . S
Mg242 O252 2.251 . S
Mg242 O255 2.010 . S
O243 Mg242 2.028 1_565 S
O243 C246 1.250 . S
O244 Mg245 2.028 . S
O244 C246 1.248 . S
Mg245 O244 2.028 . S
Mg245 O250 2.032 . S
Mg245 O252 2.079 1_565 S
C246 O243 1.250 . S
C246 O244 1.248 . S
C247 O248 1.264 . S
C247 O255 1.249 . S
O248 C247 1.264 . S
O249 Mg242 1.986 1_565 S
O249 C253 1.246 . S
O250 Mg245 2.032 . S
O250 C253 1.259 . S
O251 Mg242 2.114 . S
O251 C254 1.252 . S
O252 Mg242 2.251 . S
O252 Mg245 2.079 1_545 S
O252 C254 1.273 . S
C253 O249 1.246 . S
C253 O250 1.259 . S
C254 O251 1.252 . S
C254 O252 1.273 . S
O255 Mg242 2.010 . S
O255 C247 1.249 . S
Mg256 O257 2.059 . S
Mg256 O263 1.986 . S
Mg256 O265 2.114 . S
Mg256 O266 2.251 . S
Mg256 O269 2.010 . S
O257 Mg256 2.059 . S
O257 C260 1.207 1_455 S
O258 Mg259 2.028 . S
O258 C260 1.248 . S
Mg259 O258 2.028 . S
Mg259 O264 2.032 . S
Mg259 O266 2.079 1_655 S
C260 O257 1.207 1_655 S
C260 O258 1.248 . S
C261 O262 1.264 . S
C261 O269 1.249 . S
O262 C261 1.264 . S
O263 Mg256 1.986 . S
O263 C267 1.246 . S
O264 Mg259 2.032 . S
O264 C267 1.259 1_655 S
O265 Mg256 2.114 . S
O265 C268 1.252 . S
O266 Mg256 2.251 . S
O266 Mg259 2.079 1_455 S
O266 C268 1.273 . S
C267 O263 1.246 . S
C267 O264 1.259 1_455 S
C268 O265 1.252 . S
C268 O266 1.273 . S
O269 Mg256 2.010 . S
O269 C261 1.249 . S
Mg270 O271 2.028 . S
Mg270 O277 1.986 . S
Mg270 O279 2.114 . S
Mg270 O280 2.251 . S
Mg270 O283 2.010 . S
O271 Mg270 2.028 . S
O271 C274 1.250 . S
O272 Mg273 2.028 . S
O272 C274 1.248 . S
Mg273 O272 2.028 . S
Mg273 O278 2.032 . S
Mg273 O280 2.079 . S
C274 O271 1.250 . S
C274 O272 1.248 . S
C275 O276 1.264 . S
C275 O283 1.249 . S
O276 C275 1.264 . S
O277 Mg270 1.986 . S
O277 C281 1.246 . S
O278 Mg273 2.032 . S
O278 C281 1.259 . S
O279 Mg270 2.114 . S
O279 C282 1.252 . S
O280 Mg270 2.251 . S
O280 Mg273 2.079 . S
O280 C282 1.273 . S
C281 O277 1.246 . S
C281 O278 1.259 . S
C282 O279 1.252 . S
C282 O280 1.273 . S
O283 Mg270 2.010 . S
O283 C275 1.249 . S
Mg284 O285 2.028 1_655 S
Mg284 O291 1.986 . S
Mg284 O293 2.114 . S
Mg284 O294 2.251 1_655 S
Mg284 O297 2.010 . S
O285 Mg284 2.028 1_455 S
O285 C288 1.250 . S
O286 Mg287 2.028 . S
O286 C288 1.248 . S
Mg287 O286 2.028 . S
Mg287 O292 2.032 . S
Mg287 O294 2.079 . S
C288 O285 1.250 . S
C288 O286 1.248 . S
C289 O290 1.264 . S
C289 O297 1.249 . S
O290 C289 1.264 . S
O291 Mg284 1.986 . S
O291 C295 1.246 1_655 S
O292 Mg287 2.032 . S
O292 C295 1.259 . S
O293 Mg284 2.114 . S
O293 C296 1.252 . S
O294 Mg284 2.251 1_455 S
O294 Mg287 2.079 . S
O294 C296 1.273 1_455 S
C295 O291 1.246 1_455 S
C295 O292 1.259 . S
C296 O293 1.252 . S
C296 O294 1.273 1_655 S
O297 Mg284 2.010 . S
O297 C289 1.249 . S
Mg298 O299 2.028 . S
Mg298 O305 1.986 . S
Mg298 O307 2.114 . S
Mg298 O308 2.251 . S
Mg298 O311 2.010 . S
O299 Mg298 2.028 . S
O299 C302 1.250 . S
O300 Mg301 2.028 . S
O300 C302 1.248 . S
Mg301 O300 2.028 . S
Mg301 O306 2.032 . S
Mg301 O308 2.079 . S
C302 O299 1.250 . S
C302 O300 1.248 . S
C303 O304 1.264 . S
C303 O311 1.249 . S
O304 C303 1.264 . S
O305 Mg298 1.986 . S
O305 C309 1.246 . S
O306 Mg301 2.032 . S
O306 C309 1.259 . S
O307 Mg298 2.114 . S
O307 C310 1.252 . S
O308 Mg298 2.251 . S
O308 Mg301 2.079 . S
O308 C310 1.273 . S
C309 O305 1.246 . S
C309 O306 1.259 . S
C310 O307 1.252 . S
C310 O308 1.273 . S
O311 Mg298 2.010 . S
O311 C303 1.249 . S
H312 C320 0.950 . S
H313 C325 0.950 . S
H314 C322 0.950 . S
H315 C324 0.950 . S
H316 C326 0.950 . S
H317 C328 0.950 . S
H318 C330 0.950 . S
H319 C331 0.950 . S
C320 H312 0.950 . S
C320 C321 1.386 . S
C320 C322 1.391 . S
C321 C320 1.386 . S
C321 C325 1.393 . S
C322 H314 0.950 . S
C322 C320 1.391 . S
C322 C323 1.400 . S
C323 C322 1.400 . S
C323 C324 1.398 . S
C323 C329 1.491 . S
C324 H315 0.950 . S
C324 C323 1.398 . S
C324 C325 1.391 . S
C325 H313 0.950 . S
C325 C321 1.393 . S
C325 C324 1.391 . S
C326 H316 0.950 . S
C326 C327 1.386 . S
C326 C328 1.391 . S
C327 C326 1.386 . S
C327 C331 1.393 . S
C328 H317 0.950 . S
C328 C326 1.391 . S
C328 C329 1.400 . S
C329 C323 1.491 . S
C329 C328 1.400 . S
C329 C330 1.398 . S
C330 H318 0.950 . S
C330 C329 1.398 . S
C330 C331 1.391 . S
C331 H319 0.950 . S
C331 C327 1.393 . S
C331 C330 1.391 . S
H332 C340 0.950 . S
H333 C345 0.950 . S
H334 C342 0.950 . S
H335 C344 0.950 . S
H336 C346 0.950 . S
H337 C348 0.950 . S
H338 C350 0.950 . S
H339 C351 0.950 . S
C340 H332 0.950 . S
C340 C341 1.386 1_655 S
C340 C342 1.391 1_655 S
C341 C340 1.386 1_455 S
C341 C345 1.393 . S
C342 H334 0.950 . S
C342 C340 1.391 1_455 S
C342 C343 1.400 . S
C343 C342 1.400 . S
C343 C344 1.398 . S
C343 C349 1.491 . S
C344 H335 0.950 . S
C344 C343 1.398 . S
C344 C345 1.391 . S
C345 H333 0.950 . S
C345 C341 1.393 . S
C345 C344 1.391 . S
C346 H336 0.950 . S
C346 C347 1.386 . S
C346 C348 1.391 . S
C347 C346 1.386 . S
C347 C351 1.393 . S
C348 H337 0.950 . S
C348 C346 1.391 . S
C348 C349 1.400 . S
C349 C343 1.491 . S
C349 C348 1.400 . S
C349 C350 1.398 . S
C350 H338 0.950 . S
C350 C349 1.398 . S
C350 C351 1.391 . S
C351 H339 0.950 . S
C351 C347 1.393 . S
C351 C350 1.391 . S
H352 C360 0.950 . S
H353 C365 0.950 . S
H354 C362 0.950 . S
H355 C364 0.950 . S
H356 C366 0.950 . S
H357 C368 0.950 . S
H358 C370 0.950 . S
H359 C371 0.950 . S
C360 H352 0.950 . S
C360 C361 1.386 . S
C360 C362 1.391 . S
C361 C360 1.386 . S
C361 C365 1.393 . S
C362 H354 0.950 . S
C362 C360 1.391 . S
C362 C363 1.400 . S
C363 C362 1.400 . S
C363 C364 1.398 . S
C363 C369 1.491 . S
C364 H355 0.950 . S
C364 C363 1.398 . S
C364 C365 1.391 . S
C365 H353 0.950 . S
C365 C361 1.393 . S
C365 C364 1.391 . S
C366 H356 0.950 . S
C366 C367 1.386 . S
C366 C368 1.391 . S
C367 C366 1.386 . S
C367 C371 1.393 . S
C368 H357 0.950 . S
C368 C366 1.391 . S
C368 C369 1.400 . S
C369 C363 1.491 . S
C369 C368 1.400 . S
C369 C370 1.398 . S
C370 H358 0.950 . S
C370 C369 1.398 . S
C370 C371 1.391 . S
C371 H359 0.950 . S
C371 C367 1.393 . S
C371 C370 1.391 . S
H372 C380 0.950 . S
H373 C385 0.950 . S
H374 C382 0.950 . S
H375 C384 0.950 . S
H376 C386 0.950 . S
H377 C388 0.950 . S
H378 C390 0.950 . S
H379 C391 0.950 . S
C380 H372 0.950 . S
C380 C381 1.386 1_655 S
C380 C382 1.391 . S
C381 C380 1.386 1_455 S
C381 C385 1.393 1_565 S
C382 H374 0.950 . S
C382 C380 1.391 . S
C382 C383 1.400 . S
C383 C382 1.400 . S
C383 C384 1.398 1_665 S
C383 C389 1.491 . S
C384 H375 0.950 . S
C384 C383 1.398 1_445 S
C384 C385 1.391 . S
C385 H373 0.950 . S
C385 C381 1.393 1_545 S
C385 C384 1.391 . S
C386 H376 0.950 . S
C386 C387 1.386 . S
C386 C388 1.391 . S
C387 C386 1.386 . S
C387 C391 1.393 1_545 S
C388 H377 0.950 . S
C388 C386 1.391 . S
C388 C389 1.400 1_545 S
C389 C383 1.491 . S
C389 C388 1.400 1_565 S
C389 C390 1.398 . S
C390 H378 0.950 . S
C390 C389 1.398 . S
C390 C391 1.391 . S
C391 H379 0.950 . S
C391 C387 1.393 1_565 S
C391 C390 1.391 . S
H392 C400 0.950 . S
H393 C405 0.950 . S
H394 C402 0.950 . S
H395 C404 0.950 . S
H396 C406 0.950 . S
H397 C408 0.950 . S
H398 C410 0.950 . S
H399 C411 0.950 . S
C400 H392 0.950 . S
C400 C401 1.386 . S
C400 C402 1.391 . S
C401 C400 1.386 . S
C401 C405 1.393 . S
C402 H394 0.950 . S
C402 C400 1.391 . S
C402 C403 1.400 . S
C403 C402 1.400 . S
C403 C404 1.398 . S
C403 C409 1.491 . S
C404 H395 0.950 . S
C404 C403 1.398 . S
C404 C405 1.391 . S
C405 H393 0.950 . S
C405 C401 1.393 . S
C405 C404 1.391 . S
C406 H396 0.950 . S
C406 C407 1.386 . S
C406 C408 1.391 . S
C407 C406 1.386 . S
C407 C411 1.393 . S
C408 H397 0.950 . S
C408 C406 1.391 . S
C408 C409 1.400 . S
C409 C403 1.491 . S
C409 C408 1.400 . S
C409 C410 1.398 . S
C410 H398 0.950 . S
C410 C409 1.398 . S
C410 C411 1.391 . S
C411 H399 0.950 . S
C411 C407 1.393 . S
C411 C410 1.391 . S
H412 C420 0.950 . S
H413 C425 0.950 . S
H414 C422 0.950 . S
H415 C424 0.950 . S
H416 C426 0.950 . S
H417 C428 0.950 . S
H418 C430 0.950 . S
H419 C431 0.950 . S
C420 H412 0.950 . S
C420 C421 1.386 . S
C420 C422 1.391 . S
C421 C420 1.386 . S
C421 C425 1.393 . S
C422 H414 0.950 . S
C422 C420 1.391 . S
C422 C423 1.400 . S
C423 C422 1.400 . S
C423 C424 1.398 . S
C423 C429 1.491 . S
C424 H415 0.950 . S
C424 C423 1.398 . S
C424 C425 1.391 . S
C425 H413 0.950 . S
C425 C421 1.393 . S
C425 C424 1.391 . S
C426 H416 0.950 . S
C426 C427 1.386 . S
C426 C428 1.391 . S
C427 C426 1.386 . S
C427 C431 1.393 . S
C428 H417 0.950 . S
C428 C426 1.391 . S
C428 C429 1.400 . S
C429 C423 1.491 . S
C429 C428 1.400 . S
C429 C430 1.398 . S
C430 H418 0.950 . S
C430 C429 1.398 . S
C430 C431 1.391 . S
C431 H419 0.950 . S
C431 C427 1.393 . S
C431 C430 1.391 . S
H432 C440 0.950 . S
H433 C445 0.950 . S
H434 C442 0.950 . S
H435 C444 0.950 . S
H436 C446 0.950 . S
H437 C448 0.950 . S
H438 C450 0.950 . S
H439 C451 0.950 . S
C440 H432 0.950 . S
C440 C441 1.386 . S
C440 C442 1.391 . S
C441 C440 1.386 . S
C441 C445 1.393 . S
C442 H434 0.950 . S
C442 C440 1.391 . S
C442 C443 1.400 . S
C443 C442 1.400 . S
C443 C444 1.398 . S
C443 C449 1.491 . S
C444 H435 0.950 . S
C444 C443 1.398 . S
C444 C445 1.391 . S
C445 H433 0.950 . S
C445 C441 1.393 . S
C445 C444 1.391 . S
C446 H436 0.950 . S
C446 C447 1.386 . S
C446 C448 1.391 . S
C447 C446 1.386 . S
C447 C451 1.393 . S
C448 H437 0.950 . S
C448 C446 1.391 . S
C448 C449 1.400 . S
C449 C443 1.491 . S
C449 C448 1.400 . S
C449 C450 1.398 . S
C450 H438 0.950 . S
C450 C449 1.398 . S
C450 C451 1.391 . S
C451 H439 0.950 . S
C451 C447 1.393 . S
C451 C450 1.391 . S
H452 C460 0.950 . S
H453 C465 0.950 . S
H454 C462 0.950 1_545 S
H455 C464 0.950 . S
H456 C466 0.950 . S
H457 C468 0.950 . S
H458 C470 0.936 1_545 S
H459 C471 0.950 . S
C460 H452 0.950 . S
C460 C461 1.386 . S
C460 C462 1.391 . S
C461 C460 1.386 . S
C461 C465 1.393 . S
C462 H454 0.950 1_565 S
C462 C460 1.391 . S
C462 C463 1.400 . S
C463 C462 1.400 . S
C463 C464 1.398 . S
C463 C469 1.491 . S
C464 H455 0.950 . S
C464 C463 1.398 . S
C464 C465 1.391 . S
C465 H453 0.950 . S
C465 C461 1.393 . S
C465 C464 1.391 . S
C466 H456 0.950 . S
C466 C467 1.386 . S
C466 C468 1.391 . S
C467 C466 1.386 . S
C467 C471 1.393 1_565 S
C468 H457 0.950 . S
C468 C466 1.391 . S
C468 C469 1.400 . S
C469 C463 1.491 . S
C469 C468 1.400 . S
C469 C470 1.417 . S
C470 H458 0.936 1_565 S
C470 C469 1.417 . S
C470 C471 1.387 1_565 S
C471 H459 0.950 . S
C471 C467 1.393 1_545 S
C471 C470 1.387 1_545 S
H472 C480 0.950 . S
H473 C485 0.950 . S
H474 C482 0.950 . S
H475 C484 0.950 . S
H476 C486 0.950 . S
H477 C488 0.950 . S
H478 C490 0.950 . S
H479 C491 0.950 . S
C480 H472 0.950 . S
C480 C481 1.386 . S
C480 C482 1.391 . S
C481 C480 1.386 . S
C481 C485 1.393 . S
C482 H474 0.950 . S
C482 C480 1.391 . S
C482 C483 1.400 . S
C483 C482 1.400 . S
C483 C484 1.398 . S
C483 C489 1.491 . S
C484 H475 0.950 . S
C484 C483 1.398 . S
C484 C485 1.391 . S
C485 H473 0.950 . S
C485 C481 1.393 . S
C485 C484 1.391 . S
C486 H476 0.950 . S
C486 C487 1.386 . S
C486 C488 1.391 . S
C487 C486 1.386 . S
C487 C491 1.393 . S
C488 H477 0.950 . S
C488 C486 1.391 . S
C488 C489 1.400 . S
C489 C483 1.491 . S
C489 C488 1.400 . S
C489 C490 1.398 . S
C490 H478 0.950 . S
C490 C489 1.398 . S
C490 C491 1.391 . S
C491 H479 0.950 . S
C491 C487 1.393 . S
C491 C490 1.391 . S
H492 C500 0.950 . S
H493 C505 0.950 . S
H494 C502 0.950 . S
H495 C504 0.950 . S
H496 C506 0.950 . S
H497 C508 0.950 . S
H498 C510 0.950 . S
H499 C511 0.950 . S
C500 H492 0.950 . S
C500 C501 1.386 . S
C500 C502 1.391 . S
C501 C500 1.386 . S
C501 C505 1.393 . S
C502 H494 0.950 . S
C502 C500 1.391 . S
C502 C503 1.400 . S
C503 C502 1.400 . S
C503 C504 1.398 . S
C503 C509 1.491 . S
C504 H495 0.950 . S
C504 C503 1.398 . S
C504 C505 1.391 . S
C505 H493 0.950 . S
C505 C501 1.393 . S
C505 C504 1.391 . S
C506 H496 0.950 . S
C506 C507 1.386 . S
C506 C508 1.391 . S
C507 C506 1.386 . S
C507 C511 1.393 . S
C508 H497 0.950 . S
C508 C506 1.391 . S
C508 C509 1.400 . S
C509 C503 1.491 . S
C509 C508 1.400 . S
C509 C510 1.398 . S
C510 H498 0.950 . S
C510 C509 1.398 . S
C510 C511 1.391 . S
C511 H499 0.950 . S
C511 C507 1.393 . S
C511 C510 1.391 . S
H512 C520 0.950 . S
H513 C525 0.950 . S
H514 C522 0.950 . S
H515 C524 0.950 . S
H516 C526 0.950 . S
H517 C528 0.950 . S
H518 C530 0.950 . S
H519 C531 0.950 . S
C520 H512 0.950 . S
C520 C521 1.386 . S
C520 C522 1.391 . S
C521 C520 1.386 . S
C521 C525 1.393 . S
C522 H514 0.950 . S
C522 C520 1.391 . S
C522 C523 1.400 . S
C523 C522 1.400 . S
C523 C524 1.398 . S
C523 C529 1.491 . S
C524 H515 0.950 . S
C524 C523 1.398 . S
C524 C525 1.391 . S
C525 H513 0.950 . S
C525 C521 1.393 . S
C525 C524 1.391 . S
C526 H516 0.950 . S
C526 C527 1.386 . S
C526 C528 1.391 . S
C527 C526 1.386 . S
C527 C531 1.393 . S
C528 H517 0.950 . S
C528 C526 1.391 . S
C528 C529 1.400 . S
C529 C523 1.491 . S
C529 C528 1.400 . S
C529 C530 1.398 . S
C530 H518 0.950 . S
C530 C529 1.398 . S
C530 C531 1.391 . S
C531 H519 0.950 . S
C531 C527 1.393 . S
C531 C530 1.391 . S
H532 C540 0.950 . S
H533 C545 0.950 . S
H534 C542 0.950 . S
H535 C544 0.950 . S
H536 C546 0.950 . S
H537 C548 0.950 . S
H538 C550 0.950 . S
H539 C551 0.950 . S
C540 H532 0.950 . S
C540 C541 1.386 . S
C540 C542 1.391 . S
C541 C540 1.386 . S
C541 C545 1.393 . S
C542 H534 0.950 . S
C542 C540 1.391 . S
C542 C543 1.400 . S
C543 C542 1.400 . S
C543 C544 1.398 . S
C543 C549 1.491 . S
C544 H535 0.950 . S
C544 C543 1.398 . S
C544 C545 1.391 . S
C545 H533 0.950 . S
C545 C541 1.393 . S
C545 C544 1.391 . S
C546 H536 0.950 . S
C546 C547 1.386 . S
C546 C548 1.391 . S
C547 C546 1.386 . S
C547 C551 1.393 . S
C548 H537 0.950 . S
C548 C546 1.391 . S
C548 C549 1.400 . S
C549 C543 1.491 . S
C549 C548 1.400 . S
C549 C550 1.398 . S
C550 H538 0.950 . S
C550 C549 1.398 . S
C550 C551 1.391 . S
C551 H539 0.950 . S
C551 C547 1.393 . S
C551 C550 1.391 . S
H552 C560 0.950 . S
H553 C565 0.950 . S
H554 C562 0.950 . S
H555 C564 0.950 . S
H556 C566 0.950 . S
H557 C568 0.950 . S
H558 C570 0.950 . S
H559 C571 0.950 . S
C560 H552 0.950 . S
C560 C561 1.386 . S
C560 C562 1.391 . S
C561 C560 1.386 . S
C561 C565 1.393 . S
C562 H554 0.950 . S
C562 C560 1.391 . S
C562 C563 1.400 . S
C563 C562 1.400 . S
C563 C564 1.398 . S
C563 C569 1.491 . S
C564 H555 0.950 . S
C564 C563 1.398 . S
C564 C565 1.391 . S
C565 H553 0.950 . S
C565 C561 1.393 . S
C565 C564 1.391 . S
C566 H556 0.950 . S
C566 C567 1.386 . S
C566 C568 1.391 . S
C567 C566 1.386 . S
C567 C571 1.393 . S
C568 H557 0.950 . S
C568 C566 1.391 . S
C568 C569 1.400 . S
C569 C563 1.491 . S
C569 C568 1.400 . S
C569 C570 1.398 . S
C570 H558 0.950 . S
C570 C569 1.398 . S
C570 C571 1.391 . S
C571 H559 0.950 . S
C571 C567 1.393 . S
C571 C570 1.391 . S
H572 C580 0.950 . S
H573 C585 0.950 . S
H574 C582 0.950 . S
H575 C584 0.950 . S
H576 C586 0.950 . S
H577 C588 0.950 . S
H578 C590 0.950 1_655 S
H579 C591 0.947 . S
C580 H572 0.950 . S
C580 C581 1.386 . S
C580 C582 1.391 . S
C581 C580 1.386 . S
C581 C585 1.393 . S
C582 H574 0.950 . S
C582 C580 1.391 . S
C582 C583 1.400 . S
C583 C582 1.400 . S
C583 C584 1.398 . S
C583 C589 1.491 . S
C584 H575 0.950 . S
C584 C583 1.398 . S
C584 C585 1.391 . S
C585 H573 0.950 . S
C585 C581 1.393 . S
C585 C584 1.391 . S
C586 H576 0.950 . S
C586 C587 1.386 . S
C586 C588 1.391 . S
C587 C586 1.386 . S
C587 C591 1.395 1_455 S
C588 H577 0.950 . S
C588 C586 1.391 . S
C588 C589 1.400 . S
C589 C583 1.491 . S
C589 C588 1.400 . S
C589 C590 1.398 . S
C590 H578 0.950 1_455 S
C590 C589 1.398 . S
C590 C591 1.391 1_455 S
C591 H579 0.947 . S
C591 C587 1.395 1_655 S
C591 C590 1.391 1_655 S
H592 C600 0.950 . S
H593 C605 0.950 . S
H594 C602 0.950 . S
H595 C604 0.950 . S
H596 C606 0.950 . S
H597 C608 0.950 . S
H598 C610 0.950 . S
H599 C611 0.950 . S
C600 H592 0.950 . S
C600 C601 1.386 . S
C600 C602 1.391 . S
C601 C600 1.386 . S
C601 C605 1.393 . S
C602 H594 0.950 . S
C602 C600 1.391 . S
C602 C603 1.400 . S
C603 C602 1.400 . S
C603 C604 1.398 . S
C603 C609 1.491 . S
C604 H595 0.950 . S
C604 C603 1.398 . S
C604 C605 1.391 . S
C605 H593 0.950 . S
C605 C601 1.393 . S
C605 C604 1.391 . S
C606 H596 0.950 . S
C606 C607 1.386 . S
C606 C608 1.391 . S
C607 C606 1.386 . S
C607 C611 1.393 . S
C608 H597 0.950 . S
C608 C606 1.391 . S
C608 C609 1.400 . S
C609 C603 1.491 . S
C609 C608 1.400 . S
C609 C610 1.398 . S
C610 H598 0.950 . S
C610 C609 1.398 . S
C610 C611 1.391 . S
C611 H599 0.950 . S
C611 C607 1.393 . S
C611 C610 1.391 . S
H612 C620 0.950 . S
H613 C625 0.950 1_455 S
H614 C622 0.950 . S
H615 C624 0.950 . S
H616 C626 0.950 . S
H617 C628 0.950 . S
H618 C630 0.950 . S
H619 C631 0.950 . S
C620 H612 0.950 . S
C620 C621 1.386 . S
C620 C622 1.391 . S
C621 C620 1.386 . S
C621 C625 1.393 . S
C622 H614 0.950 . S
C622 C620 1.391 . S
C622 C623 1.400 . S
C623 C622 1.400 . S
C623 C624 1.398 1_655 S
C623 C629 1.491 . S
C624 H615 0.950 . S
C624 C623 1.398 1_455 S
C624 C625 1.391 1_455 S
C625 H613 0.950 1_655 S
C625 C621 1.393 . S
C625 C624 1.391 1_655 S
C626 H616 0.950 . S
C626 C627 1.386 1_455 S
C626 C628 1.391 . S
C627 C626 1.386 1_655 S
C627 C631 1.393 . S
C628 H617 0.950 . S
C628 C626 1.391 . S
C628 C629 1.400 1_455 S
C629 C623 1.491 . S
C629 C628 1.400 1_655 S
C629 C630 1.398 . S
C630 H618 0.950 . S
C630 C629 1.398 . S
C630 C631 1.391 . S
C631 H619 0.950 . S
C631 C627 1.393 . S
C631 C630 1.391 . S
H632 C640 0.950 . S
H633 C645 0.950 . S
H634 C642 0.950 . S
H635 C644 0.950 . S
H636 C646 0.950 . S
H637 C648 0.950 . S
H638 C650 0.950 . S
H639 C651 0.950 . S
C640 H632 0.950 . S
C640 C641 1.386 . S
C640 C642 1.391 . S
C641 C640 1.386 . S
C641 C645 1.393 . S
C642 H634 0.950 . S
C642 C640 1.391 . S
C642 C643 1.400 . S
C643 C642 1.400 . S
C643 C644 1.398 . S
C643 C649 1.491 . S
C644 H635 0.950 . S
C644 C643 1.398 . S
C644 C645 1.391 . S
C645 H633 0.950 . S
C645 C641 1.393 . S
C645 C644 1.391 . S
C646 H636 0.950 . S
C646 C647 1.386 . S
C646 C648 1.391 . S
C647 C646 1.386 . S
C647 C651 1.393 . S
C648 H637 0.950 . S
C648 C646 1.391 . S
C648 C649 1.400 . S
C649 C643 1.491 . S
C649 C648 1.400 . S
C649 C650 1.398 . S
C650 H638 0.950 . S
C650 C649 1.398 . S
C650 C651 1.391 . S
C651 H639 0.950 . S
C651 C647 1.393 . S
C651 C650 1.391 . S
H652 C660 0.950 . S
H653 C665 0.950 . S
H654 C662 0.950 . S
H655 C664 0.950 . S
H656 C666 0.950 . S
H657 C668 0.950 . S
H658 C670 0.950 . S
H659 C671 0.950 . S
C660 H652 0.950 . S
C660 C661 1.386 . S
C660 C662 1.391 . S
C661 C660 1.386 . S
C661 C665 1.393 . S
C662 H654 0.950 . S
C662 C660 1.391 . S
C662 C663 1.400 . S
C663 C662 1.400 . S
C663 C664 1.398 . S
C663 C669 1.491 . S
C664 H655 0.950 . S
C664 C663 1.398 . S
C664 C665 1.391 . S
C665 H653 0.950 . S
C665 C661 1.393 . S
C665 C664 1.391 . S
C666 H656 0.950 . S
C666 C667 1.386 . S
C666 C668 1.391 . S
C667 C666 1.386 . S
C667 C671 1.393 . S
C668 H657 0.950 . S
C668 C666 1.391 . S
C668 C669 1.400 . S
C669 C663 1.491 . S
C669 C668 1.400 . S
C669 C670 1.398 . S
C670 H658 0.950 . S
C670 C669 1.398 . S
C670 C671 1.391 . S
C671 H659 0.950 . S
C671 C667 1.393 . S
C671 C670 1.391 . S
H672 C680 0.950 . S
H673 C685 0.950 . S
H674 C682 0.950 . S
H675 C684 0.950 . S
H676 C686 0.950 1_554 S
H677 C688 0.950 . S
H678 C690 0.950 . S
H679 C691 0.950 . S
C680 H672 0.950 . S
C680 C681 1.386 1_545 S
C680 C682 1.391 1_545 S
C681 C680 1.386 1_565 S
C681 C685 1.393 . S
C682 H674 0.950 . S
C682 C680 1.391 1_565 S
C682 C683 1.400 . S
C683 C682 1.400 . S
C683 C684 1.398 . S
C683 C689 1.491 . S
C684 H675 0.950 . S
C684 C683 1.398 . S
C684 C685 1.391 . S
C685 H673 0.950 . S
C685 C681 1.393 . S
C685 C684 1.391 . S
C686 H676 0.950 1_556 S
C686 C687 1.386 . S
C686 C688 1.391 . S
C687 C686 1.386 . S
C687 C691 1.393 . S
C688 H677 0.950 . S
C688 C686 1.391 . S
C688 C689 1.400 . S
C689 C683 1.491 . S
C689 C688 1.400 . S
C689 C690 1.398 . S
C690 H678 0.950 . S
C690 C689 1.398 . S
C690 C691 1.391 . S
C691 H679 0.950 . S
C691 C687 1.393 . S
C691 C690 1.391 . S
H692 C700 0.950 . S
H693 C705 0.950 . S
H694 C702 0.950 . S
H695 C704 0.950 . S
H696 C706 0.950 . S
H697 C708 0.950 . S
H698 C710 0.950 . S
H699 C711 0.950 . S
C700 H692 0.950 . S
C700 C701 1.386 . S
C700 C702 1.391 . S
C701 C700 1.386 . S
C701 C705 1.393 . S
C702 H694 0.950 . S
C702 C700 1.391 . S
C702 C703 1.400 . S
C703 C702 1.400 . S
C703 C704 1.398 . S
C703 C709 1.491 . S
C704 H695 0.950 . S
C704 C703 1.398 . S
C704 C705 1.391 . S
C705 H693 0.950 . S
C705 C701 1.393 . S
C705 C704 1.391 . S
C706 H696 0.950 . S
C706 C707 1.386 . S
C706 C708 1.391 . S
C707 C706 1.386 . S
C707 C711 1.393 . S
C708 H697 0.950 . S
C708 C706 1.391 . S
C708 C709 1.400 . S
C709 C703 1.491 . S
C709 C708 1.400 . S
C709 C710 1.398 . S
C710 H698 0.950 . S
C710 C709 1.398 . S
C710 C711 1.391 . S
C711 H699 0.950 . S
C711 C707 1.393 . S
C711 C710 1.391 . S
H712 C720 0.950 . S
H713 C725 0.950 . S
H714 C722 0.950 . S
H715 C724 0.950 . S
H716 C726 0.950 . S
H717 C728 0.950 . S
H718 C730 0.950 . S
H719 C731 0.950 . S
C720 H712 0.950 . S
C720 C721 1.386 1_565 S
C720 C722 1.391 1_565 S
C721 C720 1.386 1_545 S
C721 C725 1.393 . S
C722 H714 0.950 . S
C722 C720 1.391 1_545 S
C722 C723 1.400 . S
C723 C722 1.400 . S
C723 C724 1.398 . S
C723 C729 1.491 . S
C724 H715 0.950 . S
C724 C723 1.398 . S
C724 C725 1.391 . S
C725 H713 0.950 . S
C725 C721 1.393 . S
C725 C724 1.391 . S
C726 H716 0.950 . S
C726 C727 1.386 . S
C726 C728 1.391 . S
C727 C726 1.386 . S
C727 C731 1.393 . S
C728 H717 0.950 . S
C728 C726 1.391 . S
C728 C729 1.400 . S
C729 C723 1.491 . S
C729 C728 1.400 . S
C729 C730 1.398 . S
C730 H718 0.950 . S
C730 C729 1.398 . S
C730 C731 1.391 . S
C731 H719 0.950 . S
C731 C727 1.393 . S
C731 C730 1.391 . S
H732 C740 0.950 . S
H733 C745 0.950 . S
H734 C742 0.950 . S
H735 C744 0.950 . S
H736 C746 0.950 . S
H737 C748 0.950 . S
H738 C750 0.950 . S
H739 C751 0.950 . S
C740 H732 0.950 . S
C740 C741 1.386 . S
C740 C742 1.391 . S
C741 C740 1.386 . S
C741 C745 1.393 . S
C742 H734 0.950 . S
C742 C740 1.391 . S
C742 C743 1.400 . S
C743 C742 1.400 . S
C743 C744 1.398 . S
C743 C749 1.491 . S
C744 H735 0.950 . S
C744 C743 1.398 . S
C744 C745 1.391 . S
C745 H733 0.950 . S
C745 C741 1.393 . S
C745 C744 1.391 . S
C746 H736 0.950 . S
C746 C747 1.386 . S
C746 C748 1.391 . S
C747 C746 1.386 . S
C747 C751 1.393 . S
C748 H737 0.950 . S
C748 C746 1.391 . S
C748 C749 1.400 . S
C749 C743 1.491 . S
C749 C748 1.400 . S
C749 C750 1.398 . S
C750 H738 0.950 . S
C750 C749 1.398 . S
C750 C751 1.391 . S
C751 H739 0.950 . S
C751 C747 1.393 . S
C751 C750 1.391 . S
H752 C760 0.950 . S
H753 C765 0.950 1_565 S
H754 C762 0.950 . S
H755 C764 0.950 . S
H756 C766 0.950 . S
H757 C768 0.950 . S
H758 C770 0.950 . S
H759 C771 0.950 . S
C760 H752 0.950 . S
C760 C761 1.386 1_545 S
C760 C762 1.391 . S
C761 C760 1.386 1_565 S
C761 C765 1.393 1_565 S
C762 H754 0.950 . S
C762 C760 1.391 . S
C762 C763 1.400 . S
C763 C762 1.400 . S
C763 C764 1.398 . S
C763 C769 1.491 . S
C764 H755 0.950 . S
C764 C763 1.398 . S
C764 C765 1.391 . S
C765 H753 0.950 1_545 S
C765 C761 1.393 1_545 S
C765 C764 1.391 . S
C766 H756 0.950 . S
C766 C767 1.386 . S
C766 C768 1.391 . S
C767 C766 1.386 . S
C767 C771 1.393 . S
C768 H757 0.950 . S
C768 C766 1.391 . S
C768 C769 1.400 . S
C769 C763 1.491 . S
C769 C768 1.400 . S
C769 C770 1.398 . S
C770 H758 0.950 . S
C770 C769 1.398 . S
C770 C771 1.391 . S
C771 H759 0.950 . S
C771 C767 1.393 . S
C771 C770 1.391 . S
H772 C780 0.950 . S
H773 C785 0.950 . S
H774 C782 0.950 . S
H775 C784 0.950 . S
H776 C786 0.950 . S
H777 C788 0.950 . S
H778 C790 0.950 . S
H779 C791 0.950 . S
C780 H772 0.950 . S
C780 C781 1.386 . S
C780 C782 1.391 . S
C781 C780 1.386 . S
C781 C785 1.393 . S
C782 H774 0.950 . S
C782 C780 1.391 . S
C782 C783 1.400 . S
C783 C782 1.400 . S
C783 C784 1.398 . S
C783 C789 1.491 . S
C784 H775 0.950 . S
C784 C783 1.398 . S
C784 C785 1.391 . S
C785 H773 0.950 . S
C785 C781 1.393 . S
C785 C784 1.391 . S
C786 H776 0.950 . S
C786 C787 1.386 . S
C786 C788 1.391 . S
C787 C786 1.386 . S
C787 C791 1.393 . S
C788 H777 0.950 . S
C788 C786 1.391 . S
C788 C789 1.400 . S
C789 C783 1.491 . S
C789 C788 1.400 . S
C789 C790 1.398 . S
C790 H778 0.950 . S
C790 C789 1.398 . S
C790 C791 1.391 . S
C791 H779 0.950 . S
C791 C787 1.393 . S
C791 C790 1.391 . S
H792 C800 0.950 . S
H793 C805 0.950 . S
H794 C802 0.950 . S
H795 C804 0.950 . S
H796 C806 0.950 . S
H797 C808 0.950 . S
H798 C810 0.950 . S
H799 C811 0.950 . S
C800 H792 0.950 . S
C800 C801 1.386 . S
C800 C802 1.391 . S
C801 C800 1.386 . S
C801 C805 1.393 . S
C802 H794 0.950 . S
C802 C800 1.391 . S
C802 C803 1.400 . S
C803 C802 1.400 . S
C803 C804 1.398 . S
C803 C809 1.491 . S
C804 H795 0.950 . S
C804 C803 1.398 . S
C804 C805 1.391 . S
C805 H793 0.950 . S
C805 C801 1.393 . S
C805 C804 1.391 . S
C806 H796 0.950 . S
C806 C807 1.386 . S
C806 C808 1.391 . S
C807 C806 1.386 . S
C807 C811 1.393 . S
C808 H797 0.950 . S
C808 C806 1.391 . S
C808 C809 1.400 . S
C809 C803 1.491 . S
C809 C808 1.400 . S
C809 C810 1.398 . S
C810 H798 0.950 . S
C810 C809 1.398 . S
C810 C811 1.391 . S
C811 H799 0.950 . S
C811 C807 1.393 . S
C811 C810 1.391 . S
H812 C820 0.950 . S
H813 C825 0.950 . S
H814 C822 0.950 . S
H815 C824 0.950 . S
H816 C826 0.950 . S
H817 C828 0.950 . S
H818 C830 0.950 . S
H819 C831 0.950 . S
C820 H812 0.950 . S
C820 C821 1.386 . S
C820 C822 1.391 . S
C821 C820 1.386 . S
C821 C825 1.393 . S
C822 H814 0.950 . S
C822 C820 1.391 . S
C822 C823 1.400 . S
C823 C822 1.400 . S
C823 C824 1.398 . S
C823 C829 1.491 . S
C824 H815 0.950 . S
C824 C823 1.398 . S
C824 C825 1.391 . S
C825 H813 0.950 . S
C825 C821 1.393 . S
C825 C824 1.391 . S
C826 H816 0.950 . S
C826 C827 1.386 . S
C826 C828 1.391 . S
C827 C826 1.386 . S
C827 C831 1.393 . S
C828 H817 0.950 . S
C828 C826 1.391 . S
C828 C829 1.400 . S
C829 C823 1.491 . S
C829 C828 1.400 . S
C829 C830 1.398 . S
C830 H818 0.950 . S
C830 C829 1.398 . S
C830 C831 1.391 . S
C831 H819 0.950 . S
C831 C827 1.393 . S
C831 C830 1.391 . S
H832 C840 0.950 . S
H833 C845 0.950 . S
H834 C842 0.950 . S
H835 C844 0.950 . S
H836 C846 0.950 . S
H837 C848 0.950 . S
H838 C850 0.950 . S
H839 C851 0.950 . S
C840 H832 0.950 . S
C840 C841 1.386 . S
C840 C842 1.391 . S
C841 C840 1.386 . S
C841 C845 1.393 . S
C842 H834 0.950 . S
C842 C840 1.391 . S
C842 C843 1.400 . S
C843 C842 1.400 . S
C843 C844 1.398 . S
C843 C849 1.491 . S
C844 H835 0.950 . S
C844 C843 1.398 . S
C844 C845 1.391 . S
C845 H833 0.950 . S
C845 C841 1.393 . S
C845 C844 1.391 . S
C846 H836 0.950 . S
C846 C847 1.386 . S
C846 C848 1.391 . S
C847 C846 1.386 . S
C847 C851 1.393 . S
C848 H837 0.950 . S
C848 C846 1.391 . S
C848 C849 1.400 . S
C849 C843 1.491 . S
C849 C848 1.400 . S
C849 C850 1.398 . S
C850 H838 0.950 . S
C850 C849 1.398 . S
C850 C851 1.391 . S
C851 H839 0.950 . S
C851 C847 1.393 . S
C851 C850 1.391 . S
H852 C860 0.950 . S
H853 C865 0.950 . S
H854 C862 0.950 . S
H855 C864 0.950 . S
H856 C866 0.950 . S
H857 C868 0.950 . S
H858 C870 0.950 . S
H859 C871 0.950 . S
C860 H852 0.950 . S
C860 C861 1.386 . S
C860 C862 1.391 . S
C861 C860 1.386 . S
C861 C865 1.393 . S
C862 H854 0.950 . S
C862 C860 1.391 . S
C862 C863 1.400 . S
C863 C862 1.400 . S
C863 C864 1.398 . S
C863 C869 1.491 . S
C864 H855 0.950 . S
C864 C863 1.398 . S
C864 C865 1.391 . S
C865 H853 0.950 . S
C865 C861 1.393 . S
C865 C864 1.391 . S
C866 H856 0.950 . S
C866 C867 1.386 . S
C866 C868 1.391 . S
C867 C866 1.386 . S
C867 C871 1.393 . S
C868 H857 0.950 . S
C868 C866 1.391 . S
C868 C869 1.400 . S
C869 C863 1.491 . S
C869 C868 1.400 . S
C869 C870 1.398 . S
C870 H858 0.950 . S
C870 C869 1.398 . S
C870 C871 1.391 . S
C871 H859 0.950 . S
C871 C867 1.393 . S
C871 C870 1.391 . S
H872 C880 0.950 . S
H873 C885 0.950 . S
H874 C882 0.950 . S
H875 C884 0.950 . S
H876 C886 0.950 . S
H877 C888 0.950 . S
H878 C890 0.950 . S
H879 C891 0.950 . S
C880 H872 0.950 . S
C880 C881 1.386 . S
C880 C882 1.391 . S
C881 C880 1.386 . S
C881 C885 1.393 . S
C882 H874 0.950 . S
C882 C880 1.391 . S
C882 C883 1.400 . S
C883 C882 1.400 . S
C883 C884 1.398 . S
C883 C889 1.491 . S
C884 H875 0.950 . S
C884 C883 1.398 . S
C884 C885 1.391 . S
C885 H873 0.950 . S
C885 C881 1.393 . S
C885 C884 1.391 . S
C886 H876 0.950 . S
C886 C887 1.386 . S
C886 C888 1.391 . S
C887 C886 1.386 . S
C887 C891 1.393 . S
C888 H877 0.950 . S
C888 C886 1.391 . S
C888 C889 1.400 . S
C889 C883 1.491 . S
C889 C888 1.400 . S
C889 C890 1.398 . S
C890 H878 0.950 . S
C890 C889 1.398 . S
C890 C891 1.391 . S
C891 H879 0.950 . S
C891 C887 1.393 . S
C891 C890 1.391 . S
H892 C900 0.950 . S
H893 C905 0.950 . S
H894 C902 0.950 1_455 S
H895 C904 0.950 . S
H896 C906 0.950 . S
H897 C908 0.950 . S
H898 C910 0.950 . S
H899 C911 0.950 . S
C900 H892 0.950 . S
C900 C901 1.386 . S
C900 C902 1.391 1_455 S
C901 C900 1.386 . S
C901 C905 1.393 1_455 S
C902 H894 0.950 1_655 S
C902 C900 1.391 1_655 S
C902 C903 1.400 . S
C903 C902 1.400 . S
C903 C904 1.398 . S
C903 C909 1.491 . S
C904 H895 0.950 . S
C904 C903 1.398 . S
C904 C905 1.391 . S
C905 H893 0.950 . S
C905 C901 1.393 1_655 S
C905 C904 1.391 . S
C906 H896 0.950 . S
C906 C907 1.386 . S
C906 C908 1.391 . S
C907 C906 1.386 . S
C907 C911 1.393 . S
C908 H897 0.950 . S
C908 C906 1.391 . S
C908 C909 1.400 . S
C909 C903 1.491 . S
C909 C908 1.400 . S
C909 C910 1.398 . S
C910 H898 0.950 . S
C910 C909 1.398 . S
C910 C911 1.391 . S
C911 H899 0.950 . S
C911 C907 1.393 . S
C911 C910 1.391 . S
H912 C920 0.950 . S
H913 C925 0.950 . S
H914 C922 0.950 . S
H915 C924 0.950 . S
H916 C926 0.950 . S
H917 C928 0.950 . S
H918 C930 0.950 . S
H919 C931 0.950 . S
C920 H912 0.950 . S
C920 C921 1.386 . S
C920 C922 1.391 . S
C921 C920 1.386 . S
C921 C925 1.393 . S
C922 H914 0.950 . S
C922 C920 1.391 . S
C922 C923 1.400 . S
C923 C922 1.400 . S
C923 C924 1.398 . S
C923 C929 1.491 . S
C924 H915 0.950 . S
C924 C923 1.398 . S
C924 C925 1.391 . S
C925 H913 0.950 . S
C925 C921 1.393 . S
C925 C924 1.391 . S
C926 H916 0.950 . S
C926 C927 1.386 . S
C926 C928 1.391 . S
C927 C926 1.386 . S
C927 C931 1.393 . S
C928 H917 0.950 . S
C928 C926 1.391 . S
C928 C929 1.400 . S
C929 C923 1.491 . S
C929 C928 1.400 . S
C929 C930 1.398 . S
C930 H918 0.950 . S
C930 C929 1.398 . S
C930 C931 1.391 . S
C931 H919 0.950 . S
C931 C927 1.393 . S
C931 C930 1.391 . S
H932 C940 0.950 . S
H933 C945 0.950 . S
H934 C942 0.950 . S
H935 C944 0.950 . S
H936 C946 0.950 . S
H937 C948 0.950 . S
H938 C950 0.950 . S
H939 C951 0.950 . S
C940 H932 0.950 . S
C940 C941 1.386 . S
C940 C942 1.391 . S
C941 C940 1.386 . S
C941 C945 1.393 . S
C942 H934 0.950 . S
C942 C940 1.391 . S
C942 C943 1.400 . S
C943 C942 1.400 . S
C943 C944 1.398 . S
C943 C949 1.491 . S
C944 H935 0.950 . S
C944 C943 1.398 . S
C944 C945 1.391 . S
C945 H933 0.950 . S
C945 C941 1.393 . S
C945 C944 1.391 . S
C946 H936 0.950 . S
C946 C947 1.386 . S
C946 C948 1.391 . S
C947 C946 1.386 . S
C947 C951 1.393 . S
C948 H937 0.950 . S
C948 C946 1.391 . S
C948 C949 1.400 . S
C949 C943 1.491 . S
C949 C948 1.400 . S
C949 C950 1.398 . S
C950 H938 0.950 . S
C950 C949 1.398 . S
C950 C951 1.391 . S
C951 H939 0.950 . S
C951 C947 1.393 . S
C951 C950 1.391 . S
H952 C960 0.950 . S
H953 C965 0.950 . S
H954 C962 0.950 . S
H955 C964 0.950 . S
H956 C966 0.950 . S
H957 C968 0.950 . S
H958 C970 0.950 . S
H959 C971 0.950 . S
C960 H952 0.950 . S
C960 C961 1.386 . S
C960 C962 1.391 . S
C961 C960 1.386 . S
C961 C965 1.393 . S
C962 H954 0.950 . S
C962 C960 1.391 . S
C962 C963 1.400 . S
C963 C962 1.400 . S
C963 C964 1.398 . S
C963 C969 1.491 . S
C964 H955 0.950 . S
C964 C963 1.398 . S
C964 C965 1.391 . S
C965 H953 0.950 . S
C965 C961 1.393 . S
C965 C964 1.391 . S
C966 H956 0.950 . S
C966 C967 1.386 . S
C966 C968 1.391 . S
C967 C966 1.386 . S
C967 C971 1.393 . S
C968 H957 0.950 . S
C968 C966 1.391 . S
C968 C969 1.400 . S
C969 C963 1.491 . S
C969 C968 1.400 . S
C969 C970 1.398 . S
C970 H958 0.950 . S
C970 C969 1.398 . S
C970 C971 1.391 . S
C971 H959 0.950 . S
C971 C967 1.393 . S
C971 C970 1.391 . S
H972 C980 0.950 . S
H973 C985 0.950 . S
H974 C982 0.950 . S
H975 C984 0.946 1_554 S
H976 C986 0.950 . S
H977 C988 0.950 . S
H978 C990 0.950 . S
H979 C991 0.950 . S
C980 H972 0.950 . S
C980 C981 1.386 1_456 S
C980 C982 1.391 . S
C981 C980 1.386 1_654 S
C981 C985 1.393 . S
C982 H974 0.950 . S
C982 C980 1.391 . S
C982 C983 1.400 1_455 S
C983 C982 1.400 1_655 S
C983 C984 1.398 . S
C983 C989 1.491 . S
C984 H975 0.946 1_556 S
C984 C983 1.398 . S
C984 C985 1.391 1_556 S
C985 H973 0.950 . S
C985 C981 1.393 . S
C985 C984 1.391 1_554 S
C986 H976 0.950 . S
C986 C987 1.386 1_655 S
C986 C988 1.391 . S
C987 C986 1.386 1_455 S
C987 C991 1.393 . S
C988 H977 0.950 . S
C988 C986 1.391 . S
C988 C989 1.400 . S
C989 C983 1.491 . S
C989 C988 1.400 . S
C989 C990 1.398 1_655 S
C990 H978 0.950 . S
C990 C989 1.398 1_455 S
C990 C991 1.391 . S
C991 H979 0.950 . S
C991 C987 1.393 . S
C991 C990 1.391 . S
H992 C1000 0.950 . S
H993 C1005 0.950 . S
H994 C1002 0.950 . S
H995 C1004 0.950 . S
H996 C1006 0.950 . S
H997 C1008 0.950 . S
H998 C1010 0.950 . S
H999 C1011 0.950 . S
C1000 H992 0.950 . S
C1000 C1001 1.386 . S
C1000 C1002 1.391 . S
C1001 C1000 1.386 . S
C1001 C1005 1.393 . S
C1002 H994 0.950 . S
C1002 C1000 1.391 . S
C1002 C1003 1.400 . S
C1003 C1002 1.400 . S
C1003 C1004 1.398 . S
C1003 C1009 1.491 . S
C1004 H995 0.950 . S
C1004 C1003 1.398 . S
C1004 C1005 1.391 . S
C1005 H993 0.950 . S
C1005 C1001 1.393 . S
C1005 C1004 1.391 . S
C1006 H996 0.950 . S
C1006 C1007 1.386 . S
C1006 C1008 1.391 . S
C1007 C1006 1.386 . S
C1007 C1011 1.393 . S
C1008 H997 0.950 . S
C1008 C1006 1.391 . S
C1008 C1009 1.400 . S
C1009 C1003 1.491 . S
C1009 C1008 1.400 . S
C1009 C1010 1.398 . S
C1010 H998 0.950 . S
C1010 C1009 1.398 . S
C1010 C1011 1.391 . S
C1011 H999 0.950 . S
C1011 C1007 1.393 . S
C1011 C1010 1.391 . S
H1012 C1020 0.950 . S
H1013 C1025 0.950 . S
H1014 C1022 0.950 . S
H1015 C1024 0.950 . S
H1016 C1026 0.950 1_655 S
H1017 C1028 0.950 1_655 S
H1018 C1030 0.950 . S
H1019 C1031 0.950 . S
C1020 H1012 0.950 . S
C1020 C1021 1.386 1_554 S
C1020 C1022 1.391 1_554 S
C1021 C1020 1.386 1_556 S
C1021 C1025 1.393 . S
C1022 H1014 0.950 . S
C1022 C1020 1.391 1_556 S
C1022 C1023 1.400 . S
C1023 C1022 1.400 . S
C1023 C1024 1.398 . S
C1023 C1029 1.491 . S
C1024 H1015 0.950 . S
C1024 C1023 1.398 . S
C1024 C1025 1.391 . S
C1025 H1013 0.950 . S
C1025 C1021 1.393 . S
C1025 C1024 1.391 . S
C1026 H1016 0.950 1_455 S
C1026 C1027 1.386 . S
C1026 C1028 1.391 . S
C1027 C1026 1.386 . S
C1027 C1031 1.393 . S
C1028 H1017 0.950 1_455 S
C1028 C1026 1.391 . S
C1028 C1029 1.400 . S
C1029 C1023 1.491 . S
C1029 C1028 1.400 . S
C1029 C1030 1.398 . S
C1030 H1018 0.950 . S
C1030 C1029 1.398 . S
C1030 C1031 1.391 . S
C1031 H1019 0.950 . S
C1031 C1027 1.393 . S
C1031 C1030 1.391 . S
H1032 C1040 0.950 . S
H1033 C1045 0.950 . S
H1034 C1042 0.950 . S
H1035 C1044 0.950 . S
H1036 C1046 0.950 . S
H1037 C1048 0.950 . S
H1038 C1050 0.950 . S
H1039 C1051 0.950 . S
C1040 H1032 0.950 . S
C1040 C1041 1.386 . S
C1040 C1042 1.391 . S
C1041 C1040 1.386 . S
C1041 C1045 1.393 . S
C1042 H1034 0.950 . S
C1042 C1040 1.391 . S
C1042 C1043 1.400 . S
C1043 C1042 1.400 . S
C1043 C1044 1.398 . S
C1043 C1049 1.491 . S
C1044 H1035 0.950 . S
C1044 C1043 1.398 . S
C1044 C1045 1.391 . S
C1045 H1033 0.950 . S
C1045 C1041 1.393 . S
C1045 C1044 1.391 . S
C1046 H1036 0.950 . S
C1046 C1047 1.386 . S
C1046 C1048 1.391 . S
C1047 C1046 1.386 . S
C1047 C1051 1.393 . S
C1048 H1037 0.950 . S
C1048 C1046 1.391 . S
C1048 C1049 1.400 . S
C1049 C1043 1.491 . S
C1049 C1048 1.400 . S
C1049 C1050 1.398 . S
C1050 H1038 0.950 . S
C1050 C1049 1.398 . S
C1050 C1051 1.391 . S
C1051 H1039 0.950 . S
C1051 C1047 1.393 . S
C1051 C1050 1.391 . S
H1052 C1060 0.950 . S
H1053 C1065 0.950 . S
H1054 C1062 0.940 1_556 S
H1055 C1064 0.950 . S
H1056 C1066 0.950 . S
H1057 C1068 0.950 . S
H1058 C1070 0.950 . S
H1059 C1071 0.950 . S
C1060 H1052 0.950 . S
C1060 C1061 1.386 . S
C1060 C1062 1.377 1_556 S
C1061 C1060 1.386 . S
C1061 C1065 1.393 1_556 S
C1062 H1054 0.940 1_554 S
C1062 C1060 1.377 1_554 S
C1062 C1063 1.425 . S
C1063 C1062 1.425 . S
C1063 C1064 1.398 . S
C1063 C1069 1.491 . S
C1064 H1055 0.950 . S
C1064 C1063 1.398 . S
C1064 C1065 1.391 . S
C1065 H1053 0.950 . S
C1065 C1061 1.393 1_554 S
C1065 C1064 1.391 . S
C1066 H1056 0.950 . S
C1066 C1067 1.386 . S
C1066 C1068 1.391 . S
C1067 C1066 1.386 . S
C1067 C1071 1.393 . S
C1068 H1057 0.950 . S
C1068 C1066 1.391 . S
C1068 C1069 1.400 . S
C1069 C1063 1.491 . S
C1069 C1068 1.400 . S
C1069 C1070 1.398 . S
C1070 H1058 0.950 . S
C1070 C1069 1.398 . S
C1070 C1071 1.391 . S
C1071 H1059 0.950 . S
C1071 C1067 1.393 . S
C1071 C1070 1.391 . S
H1072 C1080 0.950 . S
H1073 C1085 0.950 . S
H1074 C1082 0.950 . S
H1075 C1084 0.950 . S
H1076 C1086 0.950 . S
H1077 C1088 0.950 . S
H1078 C1090 0.950 . S
H1079 C1091 0.950 . S
C1080 H1072 0.950 . S
C1080 C1081 1.386 . S
C1080 C1082 1.391 . S
C1081 C1080 1.386 . S
C1081 C1085 1.393 . S
C1082 H1074 0.950 . S
C1082 C1080 1.391 . S
C1082 C1083 1.400 . S
C1083 C1082 1.400 . S
C1083 C1084 1.398 . S
C1083 C1089 1.491 . S
C1084 H1075 0.950 . S
C1084 C1083 1.398 . S
C1084 C1085 1.391 . S
C1085 H1073 0.950 . S
C1085 C1081 1.393 . S
C1085 C1084 1.391 . S
C1086 H1076 0.950 . S
C1086 C1087 1.386 . S
C1086 C1088 1.391 . S
C1087 C1086 1.386 . S
C1087 C1091 1.393 . S
C1088 H1077 0.950 . S
C1088 C1086 1.391 . S
C1088 C1089 1.400 . S
C1089 C1083 1.491 . S
C1089 C1088 1.400 . S
C1089 C1090 1.398 . S
C1090 H1078 0.950 . S
C1090 C1089 1.398 . S
C1090 C1091 1.391 . S
C1091 H1079 0.950 . S
C1091 C1087 1.393 . S
C1091 C1090 1.391 . S
H1092 C1100 0.950 . S
H1093 C1105 0.950 . S
H1094 C1102 0.950 . S
H1095 C1104 0.950 . S
H1096 C1106 0.950 . S
H1097 C1108 0.950 . S
H1098 C1110 0.950 . S
H1099 C1111 0.950 . S
C1100 H1092 0.950 . S
C1100 C1101 1.386 1_556 S
C1100 C1102 1.391 1_556 S
C1101 C1100 1.386 1_554 S
C1101 C1105 1.393 . S
C1102 H1094 0.950 . S
C1102 C1100 1.391 1_554 S
C1102 C1103 1.400 . S
C1103 C1102 1.400 . S
C1103 C1104 1.398 . S
C1103 C1109 1.491 . S
C1104 H1095 0.950 . S
C1104 C1103 1.398 . S
C1104 C1105 1.391 . S
C1105 H1093 0.950 . S
C1105 C1101 1.393 . S
C1105 C1104 1.391 . S
C1106 H1096 0.950 . S
C1106 C1107 1.386 . S
C1106 C1108 1.391 . S
C1107 C1106 1.386 . S
C1107 C1111 1.393 . S
C1108 H1097 0.950 . S
C1108 C1106 1.391 . S
C1108 C1109 1.400 . S
C1109 C1103 1.491 . S
C1109 C1108 1.400 . S
C1109 C1110 1.398 . S
C1110 H1098 0.950 . S
C1110 C1109 1.398 . S
C1110 C1111 1.391 . S
C1111 H1099 0.950 . S
C1111 C1107 1.393 . S
C1111 C1110 1.391 . S
H1112 C1120 0.950 . S
H1113 C1125 0.950 . S
H1114 C1122 0.950 . S
H1115 C1124 0.950 . S
H1116 C1126 0.950 . S
H1117 C1128 0.950 . S
H1118 C1130 0.950 . S
H1119 C1131 0.950 . S
C1120 H1112 0.950 . S
C1120 C1121 1.386 . S
C1120 C1122 1.391 . S
C1121 C1120 1.386 . S
C1121 C1125 1.393 . S
C1122 H1114 0.950 . S
C1122 C1120 1.391 . S
C1122 C1123 1.400 . S
C1123 C1122 1.400 . S
C1123 C1124 1.398 . S
C1123 C1129 1.491 . S
C1124 H1115 0.950 . S
C1124 C1123 1.398 . S
C1124 C1125 1.391 . S
C1125 H1113 0.950 . S
C1125 C1121 1.393 . S
C1125 C1124 1.391 . S
C1126 H1116 0.950 . S
C1126 C1127 1.386 . S
C1126 C1128 1.391 . S
C1127 C1126 1.386 . S
C1127 C1131 1.393 . S
C1128 H1117 0.950 . S
C1128 C1126 1.391 . S
C1128 C1129 1.400 . S
C1129 C1123 1.491 . S
C1129 C1128 1.400 . S
C1129 C1130 1.398 . S
C1130 H1118 0.950 . S
C1130 C1129 1.398 . S
C1130 C1131 1.391 . S
C1131 H1119 0.950 . S
C1131 C1127 1.393 . S
C1131 C1130 1.391 . S
H1132 C1140 0.950 . S
H1133 C1145 0.950 . S
H1134 C1142 0.950 . S
H1135 C1144 0.950 . S
H1136 C1146 0.950 . S
H1137 C1148 0.950 . S
H1138 C1150 0.950 . S
H1139 C1151 0.950 . S
C1140 H1132 0.950 . S
C1140 C1141 1.386 . S
C1140 C1142 1.391 . S
C1141 C1140 1.386 . S
C1141 C1145 1.393 . S
C1142 H1134 0.950 . S
C1142 C1140 1.391 . S
C1142 C1143 1.400 . S
C1143 C1142 1.400 . S
C1143 C1144 1.398 . S
C1143 C1149 1.491 . S
C1144 H1135 0.950 . S
C1144 C1143 1.398 . S
C1144 C1145 1.391 . S
C1145 H1133 0.950 . S
C1145 C1141 1.393 . S
C1145 C1144 1.391 . S
C1146 H1136 0.950 . S
C1146 C1147 1.386 . S
C1146 C1148 1.391 . S
C1147 C1146 1.386 . S
C1147 C1151 1.393 . S
C1148 H1137 0.950 . S
C1148 C1146 1.391 . S
C1148 C1149 1.400 . S
C1149 C1143 1.491 . S
C1149 C1148 1.400 . S
C1149 C1150 1.398 . S
C1150 H1138 0.950 . S
C1150 C1149 1.398 . S
C1150 C1151 1.391 . S
C1151 H1139 0.950 . S
C1151 C1147 1.393 . S
C1151 C1150 1.391 . S
H1152 C1160 0.950 . S
H1153 C1165 0.950 . S
H1154 C1162 0.950 . S
H1155 C1164 0.950 . S
H1156 C1166 0.950 . S
H1157 C1168 0.950 . S
H1158 C1170 0.950 . S
H1159 C1171 0.950 . S
C1160 H1152 0.950 . S
C1160 C1161 1.386 . S
C1160 C1162 1.391 . S
C1161 C1160 1.386 . S
C1161 C1165 1.393 . S
C1162 H1154 0.950 . S
C1162 C1160 1.391 . S
C1162 C1163 1.400 . S
C1163 C1162 1.400 . S
C1163 C1164 1.398 . S
C1163 C1169 1.491 . S
C1164 H1155 0.950 . S
C1164 C1163 1.398 . S
C1164 C1165 1.391 . S
C1165 H1153 0.950 . S
C1165 C1161 1.393 . S
C1165 C1164 1.391 . S
C1166 H1156 0.950 . S
C1166 C1167 1.386 . S
C1166 C1168 1.391 . S
C1167 C1166 1.386 . S
C1167 C1171 1.393 . S
C1168 H1157 0.950 . S
C1168 C1166 1.391 . S
C1168 C1169 1.400 . S
C1169 C1163 1.491 . S
C1169 C1168 1.400 . S
C1169 C1170 1.398 . S
C1170 H1158 0.950 . S
C1170 C1169 1.398 . S
C1170 C1171 1.391 . S
C1171 H1159 0.950 . S
C1171 C1167 1.393 . S
C1171 C1170 1.391 . S
H1172 C1180 0.950 . S
H1173 C1185 0.950 . S
H1174 C1182 0.950 . S
H1175 C1184 0.950 . S
H1176 C1186 0.950 . S
H1177 C1188 0.950 . S
H1178 C1190 0.950 . S
H1179 C1191 0.950 . S
C1180 H1172 0.950 . S
C1180 C1181 1.386 . S
C1180 C1182 1.391 . S
C1181 C1180 1.386 . S
C1181 C1185 1.393 . S
C1182 H1174 0.950 . S
C1182 C1180 1.391 . S
C1182 C1183 1.400 . S
C1183 C1182 1.400 . S
C1183 C1184 1.398 . S
C1183 C1189 1.491 . S
C1184 H1175 0.950 . S
C1184 C1183 1.398 . S
C1184 C1185 1.391 . S
C1185 H1173 0.950 . S
C1185 C1181 1.393 . S
C1185 C1184 1.391 . S
C1186 H1176 0.950 . S
C1186 C1187 1.386 . S
C1186 C1188 1.391 . S
C1187 C1186 1.386 . S
C1187 C1191 1.393 . S
C1188 H1177 0.950 . S
C1188 C1186 1.391 . S
C1188 C1189 1.400 . S
C1189 C1183 1.491 . S
C1189 C1188 1.400 . S
C1189 C1190 1.398 . S
C1190 H1178 0.950 . S
C1190 C1189 1.398 . S
C1190 C1191 1.391 . S
C1191 H1179 0.950 . S
C1191 C1187 1.393 . S
C1191 C1190 1.391 . S
H1192 C1200 0.950 . S
H1193 C1205 0.950 1_554 S
H1194 C1202 0.950 . S
H1195 C1204 0.966 . S
H1196 C1206 0.950 . S
H1197 C1208 0.950 . S
H1198 C1210 0.950 . S
H1199 C1211 0.950 . S
C1200 H1192 0.950 . S
C1200 C1201 1.386 . S
C1200 C1202 1.391 . S
C1201 C1200 1.386 . S
C1201 C1205 1.393 . S
C1202 H1194 0.950 . S
C1202 C1200 1.391 . S
C1202 C1203 1.400 . S
C1203 C1202 1.400 . S
C1203 C1204 1.385 1_556 S
C1203 C1209 1.491 . S
C1204 H1195 0.966 . S
C1204 C1203 1.385 1_554 S
C1204 C1205 1.388 1_554 S
C1205 H1193 0.950 1_556 S
C1205 C1201 1.393 . S
C1205 C1204 1.388 1_556 S
C1206 H1196 0.950 . S
C1206 C1207 1.386 1_554 S
C1206 C1208 1.391 . S
C1207 C1206 1.386 1_556 S
C1207 C1211 1.393 . S
C1208 H1197 0.950 . S
C1208 C1206 1.391 . S
C1208 C1209 1.400 1_554 S
C1209 C1203 1.491 . S
C1209 C1208 1.400 1_556 S
C1209 C1210 1.398 . S
C1210 H1198 0.950 . S
C1210 C1209 1.398 . S
C1210 C1211 1.391 . S
C1211 H1199 0.950 . S
C1211 C1207 1.393 . S
C1211 C1210 1.391 . S
H1212 C1220 0.950 . S
H1213 C1225 0.950 . S
H1214 C1222 0.950 . S
H1215 C1224 0.950 . S
H1216 C1226 0.950 . S
H1217 C1228 0.950 . S
H1218 C1230 0.950 . S
H1219 C1231 0.950 . S
C1220 H1212 0.950 . S
C1220 C1221 1.386 . S
C1220 C1222 1.391 . S
C1221 C1220 1.386 . S
C1221 C1225 1.393 . S
C1222 H1214 0.950 . S
C1222 C1220 1.391 . S
C1222 C1223 1.400 . S
C1223 C1222 1.400 . S
C1223 C1224 1.398 . S
C1223 C1229 1.491 . S
C1224 H1215 0.950 . S
C1224 C1223 1.398 . S
C1224 C1225 1.391 . S
C1225 H1213 0.950 . S
C1225 C1221 1.393 . S
C1225 C1224 1.391 . S
C1226 H1216 0.950 . S
C1226 C1227 1.386 . S
C1226 C1228 1.391 . S
C1227 C1226 1.386 . S
C1227 C1231 1.393 . S
C1228 H1217 0.950 . S
C1228 C1226 1.391 . S
C1228 C1229 1.400 . S
C1229 C1223 1.491 . S
C1229 C1228 1.400 . S
C1229 C1230 1.398 . S
C1230 H1218 0.950 . S
C1230 C1229 1.398 . S
C1230 C1231 1.391 . S
C1231 H1219 0.950 . S
C1231 C1227 1.393 . S
C1231 C1230 1.391 . S
H1232 C1240 0.950 . S
H1233 C1245 0.950 . S
H1234 C1242 0.950 . S
H1235 C1244 0.950 . S
H1236 C1246 0.950 . S
H1237 C1248 0.950 . S
H1238 C1250 0.950 . S
H1239 C1251 0.950 . S
C1240 H1232 0.950 . S
C1240 C1241 1.386 . S
C1240 C1242 1.391 . S
C1241 C1240 1.386 . S
C1241 C1245 1.393 . S
C1242 H1234 0.950 . S
C1242 C1240 1.391 . S
C1242 C1243 1.400 . S
C1243 C1242 1.400 . S
C1243 C1244 1.398 . S
C1243 C1249 1.491 . S
C1244 H1235 0.950 . S
C1244 C1243 1.398 . S
C1244 C1245 1.391 . S
C1245 H1233 0.950 . S
C1245 C1241 1.393 . S
C1245 C1244 1.391 . S
C1246 H1236 0.950 . S
C1246 C1247 1.386 . S
C1246 C1248 1.391 . S
C1247 C1246 1.386 . S
C1247 C1251 1.393 . S
C1248 H1237 0.950 . S
C1248 C1246 1.391 . S
C1248 C1249 1.400 . S
C1249 C1243 1.491 . S
C1249 C1248 1.400 . S
C1249 C1250 1.398 . S
C1250 H1238 0.950 . S
C1250 C1249 1.398 . S
C1250 C1251 1.391 . S
C1251 H1239 0.950 . S
C1251 C1247 1.393 . S
C1251 C1250 1.391 . S
H1252 C1260 0.950 . S
H1253 C1265 0.950 . S
H1254 C1262 0.950 1_545 S
H1255 C1264 0.950 . S
H1256 C1266 0.950 1_556 S
H1257 C1268 0.940 1_556 S
H1258 C1270 0.950 . S
H1259 C1271 0.950 . S
C1260 H1252 0.950 . S
C1260 C1261 1.386 . S
C1260 C1262 1.391 1_545 S
C1261 C1260 1.386 . S
C1261 C1265 1.393 1_545 S
C1262 H1254 0.950 1_565 S
C1262 C1260 1.391 1_565 S
C1262 C1263 1.400 . S
C1263 C1262 1.400 . S
C1263 C1264 1.398 . S
C1263 C1269 1.491 . S
C1264 H1255 0.950 . S
C1264 C1263 1.398 . S
C1264 C1265 1.391 . S
C1265 H1253 0.950 . S
C1265 C1261 1.393 1_565 S
C1265 C1264 1.391 . S
C1266 H1256 0.950 1_554 S
C1266 C1267 1.386 . S
C1266 C1268 1.391 . S
C1267 C1266 1.386 . S
C1267 C1271 1.393 . S
C1268 H1257 0.940 1_554 S
C1268 C1266 1.391 . S
C1268 C1269 1.400 . S
C1269 C1263 1.491 . S
C1269 C1268 1.400 . S
C1269 C1270 1.398 . S
C1270 H1258 0.950 . S
C1270 C1269 1.398 . S
C1270 C1271 1.391 . S
C1271 H1259 0.950 . S
C1271 C1267 1.393 . S
C1271 C1270 1.391 . S
C327 C155 1.455 . S
C321 C50 1.477 . S
C347 C163 1.287 . S
C341 C61 1.521 1_455 S
C361 C67 1.446 . S
C367 C183 1.420 . S
C387 C197 1.483 . S
C381 C41 1.515 . S
C407 C212 1.517 . S
C401 C95 1.520 . S
C427 C226 1.509 . S
C421 C113 1.505 . S
C441 C106 1.547 . S
C447 C240 1.547 . S
C467 C246 1.439 . S
C461 C86 1.489 . S
C481 C104 1.514 . S
C487 C260 1.487 . S
C507 C281 1.525 . S
C501 C88 1.547 . S
C521 C94 1.482 . S
C527 C261 1.271 . S
C547 C282 1.516 . S
C541 C112 1.513 . S
C561 C70 1.475 . S
C567 C289 1.255 . S
C581 C40 1.509 . S
C587 C295 1.498 . S
C601 C49 1.511 . S
C607 C288 1.478 . S
C621 C59 1.486 . S
C627 C296 1.486 . S
C641 C34 1.492 . S
C647 C190 1.445 . S
C661 C133 1.491 . S
C667 C191 1.240 . S
C687 C148 1.512 . S
C681 C139 1.549 1_565 S
C707 C169 1.436 . S
C701 C77 1.470 . S
C721 C43 1.480 1_545 S
C727 C204 1.449 . S
C747 C254 1.525 . S
C741 C103 1.525 . S
C767 C205 1.206 . S
C761 C85 1.470 . S
C787 C233 1.290 . S
C781 C115 1.524 . S
C807 C239 1.455 . S
C801 C131 1.476 . S
C821 C142 1.525 . S
C827 C247 1.273 . S
C841 C76 1.449 . S
C847 C211 1.422 . S
C867 C225 1.485 . S
C861 C122 1.514 . S
C881 C32 1.520 . S
C887 C184 1.517 . S
C907 C198 1.510 . S
C901 C5 1.506 . S
C927 C156 1.545 . S
C921 C16 1.546 . S
C947 C162 1.438 . S
C941 C23 1.489 1_455 S
C961 C14 1.514 . S
C967 C274 1.480 . S
C981 C25 1.546 . S
C987 C267 1.521 . S
C1001 C31 1.482 . S
C1007 C275 1.232 . S
C1021 C4 1.514 1_556 S
C1027 C268 1.516 . S
C1047 C303 1.205 . S
C1041 C79 1.472 . S
C1067 C309 1.498 . S
C1061 C121 1.509 . S
C1087 C302 1.477 . S
C1081 C130 1.510 . S
C1101 C140 1.485 1_554 S
C1107 C310 1.486 . S
C1121 C97 1.493 . S
C1127 C218 1.460 . S
C1147 C219 1.264 . S
C1141 C52 1.490 . S
C1167 C232 1.501 . S
C1161 C58 1.549 . S
C1187 C253 1.445 . S
C1181 C68 1.469 . S
C1201 C124 1.481 . S
C1207 C176 1.455 1_556 S
C1227 C170 1.524 . S
C1221 C13 1.525 . S
C1241 C22 1.471 . S
C1247 C177 1.214 . S
C1267 C149 1.278 . S
C1261 C7 1.522 . S
