# Generated by pormake.
# Topology nom, (4,4)-cn, num edge types: 1
# Building blocks:
#     Node 0, Type 0, BuildingBlock: NAWXER_clean_linker_0, # of connection points: 4
#     Node 1, Type 0, BuildingBlock: NAWXER_clean_linker_0, # of connection points: 4
#     Node 2, Type 0, BuildingBlock: NAWXER_clean_linker_0, # of connection points: 4
#     Node 3, Type 0, BuildingBlock: NAWXER_clean_linker_0, # of connection points: 4
#     Node 4, Type 0, BuildingBlock: NAWXER_clean_linker_0, # of connection points: 4
#     Node 5, Type 0, BuildingBlock: NAWXER_clean_linker_0, # of connection points: 4
#     Node 6, Type 1, BuildingBlock: NAHDIM_clean_sbu_0, # of connection points: 4
#     Node 7, Type 1, BuildingBlock: NAHDIM_clean_sbu_0, # of connection points: 4
#     Node 8, Type 1, BuildingBlock: NAHDIM_clean_sbu_0, # of connection points: 4
#     Node 9, Type 1, BuildingBlock: NAHDIM_clean_sbu_0, # of connection points: 4
#     Node 10, Type 1, BuildingBlock: NAHDIM_clean_sbu_0, # of connection points: 4
#     Node 11, Type 1, BuildingBlock: NAHDIM_clean_sbu_0, # of connection points: 4
#     Edge 12, Type (0, 1), BuildingBlock: UVAHIK_clean_linker_0, # of connection points: 2
#     Edge 13, Type (0, 1), BuildingBlock: UVAHIK_clean_linker_0, # of connection points: 2
#     Edge 14, Type (0, 1), BuildingBlock: UVAHIK_clean_linker_0, # of connection points: 2
#     Edge 15, Type (0, 1), BuildingBlock: UVAHIK_clean_linker_0, # of connection points: 2
#     Edge 16, Type (0, 1), BuildingBlock: UVAHIK_clean_linker_0, # of connection points: 2
#     Edge 17, Type (0, 1), BuildingBlock: UVAHIK_clean_linker_0, # of connection points: 2
#     Edge 18, Type (0, 1), BuildingBlock: UVAHIK_clean_linker_0, # of connection points: 2
#     Edge 19, Type (0, 1), BuildingBlock: UVAHIK_clean_linker_0, # of connection points: 2
#     Edge 20, Type (0, 1), BuildingBlock: UVAHIK_clean_linker_0, # of connection points: 2
#     Edge 21, Type (0, 1), BuildingBlock: UVAHIK_clean_linker_0, # of connection points: 2
#     Edge 22, Type (0, 1), BuildingBlock: UVAHIK_clean_linker_0, # of connection points: 2
#     Edge 23, Type (0, 1), BuildingBlock: UVAHIK_clean_linker_0, # of connection points: 2
#     Edge 24, Type (0, 1), BuildingBlock: UVAHIK_clean_linker_0, # of connection points: 2
#     Edge 25, Type (0, 1), BuildingBlock: UVAHIK_clean_linker_0, # of connection points: 2
#     Edge 26, Type (0, 1), BuildingBlock: UVAHIK_clean_linker_0, # of connection points: 2
#     Edge 27, Type (0, 1), BuildingBlock: UVAHIK_clean_linker_0, # of connection points: 2
#     Edge 28, Type (0, 1), BuildingBlock: UVAHIK_clean_linker_0, # of connection points: 2
#     Edge 29, Type (0, 1), BuildingBlock: UVAHIK_clean_linker_0, # of connection points: 2
#     Edge 30, Type (0, 1), BuildingBlock: UVAHIK_clean_linker_0, # of connection points: 2
#     Edge 31, Type (0, 1), BuildingBlock: UVAHIK_clean_linker_0, # of connection points: 2
#     Edge 32, Type (0, 1), BuildingBlock: UVAHIK_clean_linker_0, # of connection points: 2
#     Edge 33, Type (0, 1), BuildingBlock: UVAHIK_clean_linker_0, # of connection points: 2
#     Edge 34, Type (0, 1), BuildingBlock: UVAHIK_clean_linker_0, # of connection points: 2
#     Edge 35, Type (0, 1), BuildingBlock: UVAHIK_clean_linker_0, # of connection points: 2
# Relax obj value: 0.024
# Max RMSD: 0.118
# Mean RMSD: 0.109
data_MOF--net-nom--node1-NAHDIM_clean_sbu_0--node2-NAWXER_clean_linker_0--edge1-UVAHIK_clean_linker_0
_symmetry_space_group_name_H-M    P1
_symmetry_Int_Tables_number       1
_symmetry_cell_setting            triclinic
loop_
_symmetry_equiv_pos_as_xyz
'x, y, z'
_cell_length_a     64.246088
_cell_length_b     66.065485
_cell_length_c     71.959651
_cell_angle_alpha  89.906506
_cell_angle_beta   90.645511
_cell_angle_gamma 120.96706
loop_
_atom_site_label
_atom_site_type_symbol
_atom_site_fract_x
_atom_site_fract_y
_atom_site_fract_z
_atom_type_partial_charge
C0 C 0.9149 0.48328 0.3231 0.0
C1 C 0.90357 0.4657 0.33669 0.0
C2 C 0.93869 0.49121 0.31786 0.0
C3 C 0.95171 0.48168 0.32601 0.0
C4 C 0.91672 0.45627 0.34493 0.0
C5 C 0.94066 0.46433 0.33973 0.0
C6 C 0.97734 0.4911 0.32106 0.0
C7 C 0.93343 0.45108 0.27119 0.0
C8 C 0.93633 0.46513 0.25561 0.0
C9 C 0.94925 0.46052 0.28643 0.0
C10 C 0.96821 0.48424 0.28644 0.0
C11 C 0.95555 0.48875 0.25554 0.0
C12 C 0.97142 0.49816 0.27076 0.0
C13 C 0.98517 0.49439 0.30248 0.0
C14 C 0.09479 0.54422 0.30949 0.0
C15 C 0.1005 0.56257 0.29681 0.0
C16 C 0.07069 0.52877 0.31464 0.0
C17 C 0.05199 0.5317 0.30742 0.0
C18 C 0.08155 0.56472 0.28907 0.0
C19 C 0.05761 0.54948 0.29432 0.0
C20 C 0.02639 0.51642 0.31295 0.0
C21 C 0.06897 0.55185 0.36549 0.0
C22 C 0.06554 0.53602 0.37992 0.0
C23 C 0.05372 0.54423 0.34981 0.0
C24 C 0.0352 0.52047 0.34794 0.0
C25 C 0.04641 0.51242 0.37822 0.0
C26 C 0.03148 0.50477 0.36242 0.0
C27 C 0.01857 0.51185 0.33162 0.0
H28 H 0.90561 0.49141 0.31681 0.0
H29 H 0.94712 0.5052 0.30771 0.0
H30 H 0.90849 0.4426 0.35535 0.0
H31 H 0.95051 0.45696 0.34634 0.0
H32 H 0.91874 0.43285 0.27168 0.0
H33 H 0.94675 0.44924 0.29817 0.0
H34 H 0.95846 0.49991 0.24362 0.0
H35 H 0.98608 0.51642 0.27038 0.0
H36 H 0.10895 0.54206 0.3157 0.0
H37 H 0.06671 0.51475 0.32437 0.0
H38 H 0.08516 0.5782 0.27888 0.0
H39 H 0.04346 0.55185 0.28833 0.0
H40 H 0.08353 0.57012 0.36621 0.0
H41 H 0.05641 0.55696 0.33919 0.0
H42 H 0.04268 0.49983 0.38922 0.0
H43 H 0.01697 0.48646 0.3615 0.0
N44 N 0.99431 0.49949 0.33491 0.0
N45 N 0.00934 0.5073 0.29915 0.0
C46 C 0.46105 0.9298 0.49742 0.0
C47 C 0.46867 0.92078 0.51192 0.0
C48 C 0.47525 0.95336 0.49217 0.0
C49 C 0.49773 0.96828 0.50098 0.0
C50 C 0.49093 0.93576 0.52098 0.0
C51 C 0.50535 0.95933 0.51555 0.0
C52 C 0.51199 0.99367 0.49626 0.0
C53 C 0.50846 0.95393 0.44487 0.0
C54 C 0.4956 0.95643 0.42998 0.0
C55 C 0.51543 0.96896 0.46031 0.0
C56 C 0.5094 0.98659 0.46125 0.0
C57 C 0.49043 0.97468 0.43068 0.0
C58 C 0.49732 0.98961 0.44612 0.0
C59 C 0.51564 0.00208 0.4778 0.0
C60 C 0.56497 0.10839 0.48789 0.0
C61 C 0.55119 0.11226 0.47455 0.0
C62 C 0.55886 0.08542 0.49257 0.0
C63 C 0.53856 0.06589 0.48428 0.0
C64 C 0.53142 0.09263 0.46585 0.0
C65 C 0.52519 0.06977 0.47068 0.0
C66 C 0.53101 0.04127 0.48915 0.0
C67 C 0.52743 0.07473 0.54299 0.0
C68 C 0.54354 0.07541 0.55673 0.0
C69 C 0.52273 0.06119 0.52688 0.0
C70 C 0.53424 0.04825 0.52413 0.0
C71 C 0.55492 0.06231 0.55392 0.0
C72 C 0.55016 0.04873 0.53784 0.0
C73 C 0.5287 0.03304 0.5076 0.0
H74 H 0.44369 0.91881 0.4905 0.0
H75 H 0.46831 0.96002 0.48153 0.0
H76 H 0.49718 0.92923 0.53224 0.0
H77 H 0.52238 0.97063 0.52279 0.0
H78 H 0.51271 0.94005 0.44478 0.0
H79 H 0.52534 0.96666 0.47158 0.0
H80 H 0.48103 0.97743 0.41928 0.0
H81 H 0.49273 0.00327 0.44639 0.0
H82 H 0.58031 0.12308 0.49488 0.0
H83 H 0.56999 0.08297 0.50266 0.0
H84 H 0.52079 0.09488 0.45516 0.0
H85 H 0.50965 0.05503 0.46387 0.0
H86 H 0.51801 0.08425 0.54486 0.0
H87 H 0.50987 0.06055 0.51669 0.0
H88 H 0.56764 0.06264 0.56409 0.0
H89 H 0.55905 0.03869 0.53603 0.0
N90 N 0.51918 0.00956 0.51041 0.0
N91 N 0.5246 0.02546 0.47502 0.0
C92 C 0.56909 0.5106 0.59728 0.0
C93 C 0.55247 0.49524 0.58382 0.0
C94 C 0.56096 0.51752 0.6126 0.0
C95 C 0.53614 0.50938 0.61452 0.0
C96 C 0.52766 0.48704 0.58584 0.0
C97 C 0.51961 0.49428 0.60095 0.0
C98 C 0.52736 0.51736 0.63013 0.0
C99 C 0.54564 0.46639 0.65475 0.0
C100 C 0.56298 0.47496 0.66921 0.0
C101 C 0.53628 0.47992 0.64799 0.0
C102 C 0.54449 0.5026 0.65518 0.0
C103 C 0.571 0.4975 0.67664 0.0
C104 C 0.56182 0.51121 0.66967 0.0
C105 C 0.53316 0.51617 0.64894 0.0
C106 C 0.47205 0.54482 0.69103 0.0
C107 C 0.48952 0.56206 0.70312 0.0
C108 C 0.47913 0.53583 0.67642 0.0
C109 C 0.50382 0.54421 0.67347 0.0
C110 C 0.51418 0.56994 0.70037 0.0
C111 C 0.52123 0.56101 0.68573 0.0
C112 C 0.51174 0.53522 0.65795 0.0
C113 C 0.47452 0.57133 0.63281 0.0
C114 C 0.45528 0.55676 0.62057 0.0
C115 C 0.49095 0.56468 0.6388 0.0
C116 C 0.48809 0.54308 0.63301 0.0
C117 C 0.45311 0.5356 0.6143 0.0
C118 C 0.46927 0.52885 0.62048 0.0
C119 C 0.50478 0.53513 0.63921 0.0
H120 H 0.58831 0.51713 0.596 0.0
H121 H 0.57406 0.52949 0.62278 0.0
H122 H 0.51454 0.47537 0.57553 0.0
H123 H 0.50041 0.48794 0.60211 0.0
H124 H 0.53863 0.44883 0.64911 0.0
H125 H 0.52201 0.47221 0.63753 0.0
H126 H 0.58431 0.50449 0.68783 0.0
H127 H 0.5681 0.52846 0.6757 0.0
H128 H 0.45289 0.53805 0.693 0.0
H129 H 0.46533 0.52236 0.66744 0.0
H130 H 0.52808 0.58332 0.70935 0.0
H131 H 0.54036 0.56754 0.68379 0.0
H132 H 0.47675 0.58773 0.63796 0.0
H133 H 0.50581 0.5764 0.64796 0.0
H134 H 0.43898 0.52424 0.60449 0.0
H135 H 0.4669 0.51229 0.61555 0.0
N136 N 0.51307 0.52637 0.62607 0.0
N137 N 0.52555 0.52562 0.66208 0.0
C138 C 0.91046 0.41904 0.80828 0.0
C139 C 0.90034 0.42577 0.79389 0.0
C140 C 0.9343 0.43422 0.81432 0.0
C141 C 0.94841 0.4566 0.80627 0.0
C142 C 0.91466 0.44799 0.78558 0.0
C143 C 0.93852 0.46322 0.79168 0.0
C144 C 0.97388 0.47252 0.81235 0.0
C145 C 0.92838 0.46688 0.86116 0.0
C146 C 0.93178 0.45634 0.87699 0.0
C147 C 0.94426 0.47348 0.84622 0.0
C148 C 0.9637 0.46943 0.84673 0.0
C149 C 0.95143 0.45258 0.87753 0.0
C150 C 0.96728 0.45917 0.86259 0.0
C151 C 0.98108 0.47693 0.83124 0.0
C152 C 0.08955 0.5444 0.82765 0.0
C153 C 0.097 0.53367 0.84089 0.0
C154 C 0.0653 0.53321 0.82174 0.0
C155 C 0.04825 0.51086 0.82867 0.0
C156 C 0.07972 0.51169 0.84824 0.0
C157 C 0.05558 0.50044 0.84222 0.0
C158 C 0.02263 0.49818 0.8223 0.0
C159 C 0.06827 0.50805 0.77225 0.0
C160 C 0.06525 0.5208 0.75789 0.0
C161 C 0.05196 0.49922 0.78697 0.0
C162 C 0.0327 0.50348 0.78781 0.0
C163 C 0.04556 0.52443 0.7585 0.0
C164 C 0.02942 0.51581 0.7733 0.0
C165 C 0.0154 0.49464 0.80337 0.0
H166 H 0.90009 0.40183 0.81467 0.0
H167 H 0.9418 0.4283 0.82512 0.0
H168 H 0.90732 0.45371 0.77451 0.0
H169 H 0.94919 0.48029 0.78512 0.0
H170 H 0.91338 0.46994 0.86028 0.0
H171 H 0.94148 0.48197 0.83436 0.0
H172 H 0.95481 0.44489 0.88964 0.0
H173 H 0.98234 0.45617 0.8634 0.0
H174 H 0.10244 0.56151 0.82197 0.0
H175 H 0.05992 0.54197 0.81173 0.0
H176 H 0.08496 0.50292 0.85836 0.0
H177 H 0.0427 0.4833 0.84788 0.0
H178 H 0.08303 0.50461 0.77196 0.0
H179 H 0.05439 0.48904 0.79767 0.0
H180 H 0.04284 0.53428 0.74766 0.0
H181 H 0.01454 0.51909 0.77355 0.0
N182 N 0.99129 0.48189 0.79915 0.0
N183 N 0.00517 0.48925 0.83546 0.0
C184 C 0.45974 0.92345 0.98455 0.0
C185 C 0.44265 0.91342 0.96997 0.0
C186 C 0.46712 0.946 0.99116 0.0
C187 C 0.45718 0.95888 0.98363 0.0
C188 C 0.43309 0.92648 0.96212 0.0
C189 C 0.44034 0.94905 0.96889 0.0
C190 C 0.46582 0.98322 0.99019 0.0
C191 C 0.42887 0.93674 0.03928 0.0
C192 C 0.44455 0.93998 0.05426 0.0
C193 C 0.43688 0.95274 0.02454 0.0
C194 C 0.46073 0.97221 0.02449 0.0
C195 C 0.46832 0.95962 0.05425 0.0
C196 C 0.47626 0.97564 0.03958 0.0
C197 C 0.4694 0.9896 0.0092 0.0
C198 C 0.51314 0.09572 0.0078 0.0
C199 C 0.53195 0.10176 0.02083 0.0
C200 C 0.49882 0.07243 0.00145 0.0
C201 C 0.50353 0.05498 0.00768 0.0
C202 C 0.53605 0.08411 0.02747 0.0
C203 C 0.52199 0.06098 0.02097 0.0
C204 C 0.48934 0.03028 0.00092 0.0
C205 C 0.52417 0.07565 0.9507 0.0
C206 C 0.50707 0.07443 0.93766 0.0
C207 C 0.51701 0.05913 0.96501 0.0
C208 C 0.49255 0.04127 0.96671 0.0
C209 C 0.48269 0.05617 0.93918 0.0
C210 C 0.47555 0.03969 0.95351 0.0
C211 C 0.48456 0.02387 0.98192 0.0
H212 H 0.46791 0.91407 0.99055 0.0
H213 H 0.48098 0.95353 0.00194 0.0
H214 H 0.4199 0.91918 0.95085 0.0
H215 H 0.43275 0.95882 0.96265 0.0
H216 H 0.41048 0.92174 0.03888 0.0
H217 H 0.42438 0.94999 0.01326 0.0
H218 H 0.48069 0.96279 0.06573 0.0
H219 H 0.49465 0.99066 0.03994 0.0
H220 H 0.5094 0.10896 0.00266 0.0
H221 H 0.48416 0.06811 0.99169 0.0
H222 H 0.55055 0.08829 0.03738 0.0
H223 H 0.52587 0.04781 0.02609 0.0
H224 H 0.54317 0.08919 0.94971 0.0
H225 H 0.53056 0.06029 0.97476 0.0
H226 H 0.46903 0.05483 0.92947 0.0
H227 H 0.45663 0.02592 0.95449 0.0
N228 N 0.47307 0.00058 0.97729 0.0
N229 N 0.48139 0.01286 0.01377 0.0
C230 C 0.45614 0.55521 0.15227 0.0
C231 C 0.43863 0.54838 0.16618 0.0
C232 C 0.46346 0.53981 0.14627 0.0
C233 C 0.45307 0.51702 0.15375 0.0
C234 C 0.42849 0.52571 0.17391 0.0
C235 C 0.4357 0.51018 0.16776 0.0
C236 C 0.46199 0.50129 0.14812 0.0
C237 C 0.42724 0.51046 0.09679 0.0
C238 C 0.44382 0.52345 0.08273 0.0
C239 C 0.43445 0.50227 0.11204 0.0
C240 C 0.45835 0.50691 0.11346 0.0
C241 C 0.46763 0.52784 0.0841 0.0
C242 C 0.47476 0.51948 0.09924 0.0
C243 C 0.46631 0.49826 0.1294 0.0
C244 C 0.51253 0.4382 0.1356 0.0
C245 C 0.53227 0.45149 0.12378 0.0
C246 C 0.49709 0.4464 0.14039 0.0
C247 C 0.50148 0.46826 0.13375 0.0
C248 C 0.536 0.47288 0.11661 0.0
C249 C 0.52073 0.48113 0.12151 0.0
C250 C 0.4865 0.47825 0.13935 0.0
C251 C 0.52175 0.47115 0.19126 0.0
C252 C 0.5049 0.45546 0.20421 0.0
C253 C 0.51415 0.47944 0.17636 0.0
C254 C 0.48949 0.47192 0.17393 0.0
C255 C 0.48031 0.4485 0.20201 0.0
C256 C 0.47271 0.45674 0.18705 0.0
C257 C 0.48112 0.48022 0.15802 0.0
H258 H 0.46476 0.57277 0.1464 0.0
H259 H 0.47773 0.54601 0.13609 0.0
H260 H 0.41497 0.52 0.18467 0.0
H261 H 0.42777 0.49284 0.17396 0.0
H262 H 0.40879 0.50686 0.0961 0.0
H263 H 0.42133 0.49221 0.12267 0.0
H264 H 0.48069 0.5375 0.07334 0.0
H265 H 0.49323 0.5231 0.09997 0.0
H266 H 0.50903 0.42148 0.14111 0.0
H267 H 0.4819 0.43579 0.14941 0.0
H268 H 0.55119 0.48364 0.10764 0.0
H269 H 0.5244 0.49797 0.11613 0.0
H270 H 0.54089 0.47724 0.19278 0.0
H271 H 0.52754 0.49173 0.16672 0.0
H272 H 0.46686 0.43635 0.21168 0.0
H273 H 0.45363 0.45093 0.18553 0.0
N274 N 0.46914 0.49173 0.16169 0.0
N275 N 0.47873 0.48723 0.12579 0.0
C276 C 0.61298 0.34347 0.41156 0.0
O277 O 0.63401 0.36166 0.41672 0.0
O278 O 0.64702 0.39363 0.38663 0.0
Zn279 Zn 0.61233 0.38091 0.39418 0.0
O280 O 0.60981 0.39718 0.41687 0.0
C281 C 0.59855 0.38237 0.35622 0.0
O282 O 0.61551 0.37739 0.35294 0.0
O283 O 0.59899 0.34692 0.40113 0.0
C284 C 0.61283 0.41775 0.41715 0.0
O285 O 0.61881 0.43025 0.40182 0.0
C286 C 0.66575 0.4128 0.39182 0.0
O287 O 0.66342 0.42727 0.4029 0.0
O288 O 0.59357 0.3842 0.37295 0.0
C289 C 0.28338 0.68329 0.55395 0.0
O290 O 0.27917 0.66741 0.54116 0.0
O291 O 0.27632 0.63043 0.57217 0.0
Zn292 Zn 0.25208 0.64115 0.57159 0.0
O293 O 0.2298 0.62865 0.54912 0.0
C294 C 0.22763 0.61214 0.603 0.0
O295 O 0.23571 0.59934 0.59564 0.0
O296 O 0.27252 0.67642 0.56939 0.0
C297 C 0.21202 0.60762 0.54735 0.0
O298 O 0.20733 0.59237 0.56074 0.0
C299 C 0.27427 0.61175 0.56536 0.0
O300 O 0.25413 0.5964 0.55671 0.0
O301 O 0.23255 0.63138 0.59521 0.0
C302 C 0.59537 0.28545 0.72647 0.0
O303 O 0.60225 0.27627 0.71347 0.0
O304 O 0.63483 0.26647 0.7528 0.0
Zn305 Zn 0.59905 0.25099 0.74749 0.0
O306 O 0.59038 0.23032 0.72479 0.0
C307 C 0.58826 0.23901 0.78593 0.0
O308 O 0.6067 0.26065 0.78814 0.0
O309 O 0.59186 0.27694 0.74278 0.0
C310 C 0.59058 0.21119 0.72505 0.0
O311 O 0.59617 0.20454 0.7406 0.0
C312 C 0.65043 0.27333 0.73996 0.0
O313 O 0.64303 0.26954 0.72254 0.0
O314 O 0.58101 0.23113 0.76956 0.0
C315 C 0.4069 0.68906 0.9141 0.0
O316 O 0.40027 0.67309 0.92719 0.0
O317 O 0.36192 0.63269 0.88536 0.0
Zn318 Zn 0.3975 0.64941 0.89188 0.0
O319 O 0.40317 0.63453 0.91436 0.0
C320 C 0.40848 0.64688 0.85364 0.0
O321 O 0.39024 0.65024 0.85083 0.0
O322 O 0.40807 0.68334 0.89744 0.0
C323 C 0.39079 0.61248 0.91744 0.0
O324 O 0.37385 0.59858 0.90544 0.0
C325 C 0.34578 0.6276 0.89752 0.0
O326 O 0.35231 0.63257 0.91506 0.0
O327 O 0.41543 0.64663 0.87021 0.0
C328 C 0.72095 0.40157 0.08683 0.0
O329 O 0.72841 0.39348 0.10043 0.0
O330 O 0.72548 0.35233 0.06245 0.0
Zn331 Zn 0.74864 0.38708 0.06643 0.0
O332 O 0.77041 0.39389 0.08882 0.0
C333 C 0.77765 0.38784 0.03706 0.0
O334 O 0.77238 0.36805 0.04534 0.0
O335 O 0.7281 0.40162 0.07041 0.0
C336 C 0.77795 0.38077 0.09508 0.0
O337 O 0.77154 0.36077 0.08661 0.0
C338 C 0.71344 0.3378 0.07523 0.0
O339 O 0.71678 0.34516 0.09256 0.0
O340 O 0.76928 0.40004 0.04364 0.0
C341 C 0.40641 0.73919 0.22134 0.0
O342 O 0.39997 0.74873 0.20816 0.0
O343 O 0.35839 0.7454 0.25029 0.0
Zn344 Zn 0.39357 0.76658 0.24391 0.0
O345 O 0.39772 0.78683 0.2216 0.0
C346 C 0.40038 0.79727 0.27356 0.0
O347 O 0.37928 0.79272 0.26686 0.0
O348 O 0.40628 0.74502 0.23816 0.0
C349 C 0.38285 0.79302 0.21637 0.0
O350 O 0.36312 0.78633 0.22602 0.0
C351 C 0.34266 0.7318 0.23836 0.0
O352 O 0.3492 0.73236 0.22105 0.0
O353 O 0.41095 0.78771 0.26589 0.0
C354 C 0.14268 0.57217 0.28872 0.0
C355 C 0.12604 0.57964 0.29163 0.0
C356 C 0.16635 0.58825 0.28305 0.0
C357 C 0.20186 0.64473 0.25896 0.0
H358 H 0.25773 0.6472 0.28249 0.0
C359 C 0.29944 0.70119 0.23091 0.0
C360 C 0.31762 0.71462 0.24418 0.0
C361 C 0.276 0.68437 0.2365 0.0
C362 C 0.24228 0.64672 0.27583 0.0
H363 H 0.12165 0.61011 0.29166 0.0
H364 H 0.16269 0.63792 0.28146 0.0
H365 H 0.21687 0.61825 0.29293 0.0
H366 H 0.32545 0.721 0.27373 0.0
H367 H 0.28457 0.69157 0.28344 0.0
H368 H 0.22722 0.67327 0.24193 0.0
C369 C 0.15731 0.61958 0.2833 0.0
C370 C 0.21893 0.63005 0.28169 0.0
C371 C 0.13378 0.60361 0.2891 0.0
C372 C 0.31185 0.71096 0.26315 0.0
C373 C 0.2885 0.69399 0.26873 0.0
C374 C 0.22517 0.66122 0.25297 0.0
C375 C 0.17377 0.61205 0.28006 0.0
C376 C 0.19851 0.62905 0.27343 0.0
C377 C 0.27037 0.6805 0.25547 0.0
C378 C 0.24562 0.66251 0.26145 0.0
H379 H 0.13726 0.55381 0.29036 0.0
H380 H 0.17867 0.58196 0.28055 0.0
H381 H 0.18641 0.6442 0.25223 0.0
H382 H 0.30332 0.70359 0.21619 0.0
H383 H 0.26239 0.67411 0.22599 0.0
C384 C 0.5388 0.14135 0.46549 0.0
C385 C 0.55733 0.13656 0.4695 0.0
C386 C 0.54442 0.16378 0.45975 0.0
C387 C 0.59193 0.22611 0.4609 0.0
H388 H 0.5601 0.23095 0.41643 0.0
C389 C 0.62354 0.3155 0.42598 0.0
C390 C 0.60597 0.31956 0.41799 0.0
C391 C 0.61718 0.29314 0.43242 0.0
C392 C 0.56888 0.22995 0.42904 0.0
H393 H 0.5964 0.1519 0.47089 0.0
H394 H 0.60615 0.19129 0.46135 0.0
H395 H 0.54973 0.19216 0.42795 0.0
H396 H 0.5679 0.30336 0.4105 0.0
H397 H 0.55656 0.26436 0.42225 0.0
H398 H 0.61074 0.26377 0.46231 0.0
C399 C 0.58727 0.17753 0.46262 0.0
C400 C 0.56299 0.20772 0.43558 0.0
C401 C 0.58166 0.15499 0.46815 0.0
C402 C 0.58186 0.30073 0.41651 0.0
C403 C 0.57541 0.27835 0.42317 0.0
C404 C 0.59761 0.24834 0.45451 0.0
C405 C 0.56869 0.18204 0.45815 0.0
C406 C 0.57458 0.20561 0.4515 0.0
C407 C 0.593 0.27429 0.43125 0.0
C408 C 0.58631 0.25056 0.43839 0.0
H409 H 0.51987 0.12777 0.4668 0.0
H410 H 0.52976 0.1669 0.45667 0.0
H411 H 0.60089 0.22495 0.47335 0.0
H412 H 0.64234 0.3296 0.42716 0.0
H413 H 0.63133 0.2906 0.43814 0.0
C414 C 0.44482 0.58706 0.61054 0.0
C415 C 0.43745 0.5634 0.61429 0.0
C416 C 0.42801 0.59306 0.60428 0.0
C417 C 0.36962 0.56891 0.58004 0.0
H418 H 0.36545 0.61878 0.60474 0.0
C419 C 0.28948 0.5837 0.56739 0.0
C420 C 0.29401 0.60684 0.56842 0.0
C421 C 0.30782 0.57898 0.57179 0.0
C422 C 0.36662 0.6051 0.59742 0.0
H423 H 0.40636 0.52762 0.61485 0.0
H424 H 0.37732 0.53808 0.60343 0.0
H425 H 0.39622 0.60987 0.61468 0.0
H426 H 0.32154 0.64335 0.57395 0.0
H427 H 0.35371 0.63531 0.58092 0.0
H428 H 0.34033 0.56429 0.56257 0.0
C429 C 0.39615 0.5519 0.60522 0.0
C430 C 0.38421 0.59996 0.6032 0.0
C431 C 0.41285 0.54594 0.6117 0.0
C432 C 0.31743 0.62528 0.57326 0.0
C433 C 0.33584 0.62063 0.57738 0.0
C434 C 0.35222 0.57425 0.57408 0.0
C435 C 0.40357 0.57549 0.60142 0.0
C436 C 0.3857 0.58167 0.5947 0.0
C437 C 0.33118 0.59737 0.57706 0.0
C438 C 0.35034 0.59228 0.58281 0.0
H439 H 0.46365 0.60093 0.61211 0.0
H440 H 0.43418 0.61137 0.60134 0.0
H441 H 0.3706 0.55488 0.57312 0.0
H442 H 0.27156 0.56912 0.56379 0.0
H443 H 0.30343 0.56081 0.57161 0.0
C444 C 0.8566 0.39684 0.80052 0.0
C445 C 0.87498 0.40953 0.78754 0.0
C446 C 0.83279 0.38121 0.79462 0.0
C447 C 0.79093 0.3671 0.75472 0.0
H448 H 0.75284 0.30747 0.78027 0.0
C449 C 0.69404 0.29677 0.73056 0.0
C450 C 0.67664 0.28674 0.74463 0.0
C451 C 0.71873 0.31062 0.73508 0.0
C452 C 0.76321 0.32412 0.77307 0.0
H453 H 0.88283 0.41564 0.75815 0.0
H454 H 0.84119 0.38827 0.7478 0.0
H455 H 0.79506 0.33411 0.78947 0.0
H456 H 0.67155 0.28295 0.77448 0.0
H457 H 0.71454 0.30714 0.78232 0.0
H458 H 0.75898 0.35714 0.73841 0.0
C459 C 0.84516 0.39066 0.76257 0.0
C460 C 0.78737 0.3394 0.77836 0.0
C461 C 0.86899 0.40634 0.76849 0.0
C462 C 0.68448 0.29041 0.76329 0.0
C463 C 0.70914 0.30417 0.76779 0.0
C464 C 0.76676 0.35178 0.74941 0.0
C465 C 0.8268 0.37786 0.77558 0.0
C466 C 0.80144 0.36118 0.76938 0.0
C467 C 0.72652 0.31462 0.75375 0.0
C468 C 0.75257 0.33024 0.75866 0.0
H469 H 0.86057 0.3992 0.8153 0.0
H470 H 0.819 0.37198 0.805 0.0
H471 H 0.80117 0.38387 0.74767 0.0
H472 H 0.68861 0.29423 0.71605 0.0
H473 H 0.73173 0.31822 0.72395 0.0
C474 C 0.43056 0.87132 0.97523 0.0
C475 C 0.43548 0.88964 0.9628 0.0
C476 C 0.42555 0.84939 0.96864 0.0
C477 C 0.43654 0.82174 0.92885 0.0
H478 H 0.38773 0.76364 0.95193 0.0
C479 C 0.41501 0.72905 0.9045 0.0
C480 C 0.41096 0.71269 0.91859 0.0
C481 C 0.41721 0.75072 0.90882 0.0
C482 C 0.40159 0.77973 0.94545 0.0
H483 H 0.43857 0.89923 0.93371 0.0
H484 H 0.42964 0.86071 0.92215 0.0
H485 H 0.39188 0.80101 0.96122 0.0
H486 H 0.40673 0.70654 0.94831 0.0
H487 H 0.41093 0.74434 0.95583 0.0
H488 H 0.44652 0.80046 0.9133 0.0
C489 C 0.42982 0.86344 0.937 0.0
C490 C 0.40391 0.80112 0.95074 0.0
C491 C 0.4347 0.88538 0.9436 0.0
C492 C 0.40969 0.71866 0.9371 0.0
C493 C 0.41191 0.74028 0.94141 0.0
C494 C 0.43425 0.80031 0.92357 0.0
C495 C 0.42543 0.84528 0.94947 0.0
C496 C 0.42164 0.8224 0.9427 0.0
C497 C 0.4154 0.75645 0.92731 0.0
C498 C 0.41699 0.7791 0.93203 0.0
H499 H 0.43082 0.87404 0.99009 0.0
H500 H 0.42246 0.83585 0.97862 0.0
H501 H 0.45056 0.83788 0.92254 0.0
H502 H 0.41602 0.72495 0.89009 0.0
H503 H 0.41976 0.76275 0.89763 0.0
C504 C 0.55868 0.43563 0.13363 0.0
C505 C 0.54964 0.44377 0.11945 0.0
C506 C 0.57678 0.4305 0.12989 0.0
C507 C 0.60642 0.41747 0.09194 0.0
H508 H 0.66066 0.44162 0.1267 0.0
C509 C 0.69323 0.41553 0.07587 0.0
C510 C 0.70284 0.40851 0.09045 0.0
C511 C 0.67486 0.42042 0.07925 0.0
C512 C 0.64554 0.43455 0.11695 0.0
H513 H 0.55167 0.45192 0.09009 0.0
H514 H 0.5834 0.44314 0.08358 0.0
H515 H 0.62693 0.44748 0.13299 0.0
H516 H 0.70104 0.40158 0.12006 0.0
H517 H 0.66895 0.40987 0.12588 0.0
H518 H 0.62499 0.40445 0.07594 0.0
C519 C 0.57648 0.44069 0.09757 0.0
C520 C 0.62619 0.43787 0.12057 0.0
C521 C 0.55847 0.4459 0.10133 0.0
C522 C 0.69408 0.40699 0.10851 0.0
C523 C 0.67574 0.41186 0.11188 0.0
C524 C 0.62575 0.4141 0.08834 0.0
C525 C 0.58611 0.4333 0.11187 0.0
C526 C 0.60641 0.42934 0.10813 0.0
C527 C 0.66575 0.41841 0.09727 0.0
C528 C 0.64552 0.42257 0.10082 0.0
H529 H 0.55235 0.43398 0.14776 0.0
H530 H 0.58363 0.42455 0.14114 0.0
H531 H 0.5913 0.41049 0.08219 0.0
H532 H 0.69963 0.41692 0.0618 0.0
H533 H 0.66779 0.42577 0.06774 0.0
C534 C 0.44169 0.87786 0.50463 0.0
C535 C 0.45277 0.89603 0.51791 0.0
C536 C 0.42507 0.8548 0.51004 0.0
C537 C 0.3815 0.82173 0.54642 0.0
H538 H 0.38078 0.76798 0.52416 0.0
C539 C 0.31093 0.72471 0.56556 0.0
C540 C 0.30204 0.7083 0.55084 0.0
C541 C 0.33007 0.74783 0.56272 0.0
C542 C 0.38057 0.7828 0.53037 0.0
H543 H 0.45556 0.90434 0.54729 0.0
H544 H 0.42637 0.86386 0.5568 0.0
H545 H 0.4138 0.80777 0.51729 0.0
H546 H 0.30558 0.70352 0.52146 0.0
H547 H 0.3384 0.74381 0.51643 0.0
H548 H 0.34794 0.79679 0.55914 0.0
C549 C 0.43055 0.86753 0.5422 0.0
C550 C 0.39955 0.80557 0.52648 0.0
C551 C 0.44739 0.89061 0.53679 0.0
C552 C 0.31215 0.71566 0.53314 0.0
C553 C 0.33113 0.73873 0.53028 0.0
C554 C 0.3624 0.79892 0.55024 0.0
C555 C 0.41905 0.84946 0.52884 0.0
C556 C 0.40004 0.82528 0.53426 0.0
C557 C 0.3406 0.75499 0.54508 0.0
C558 C 0.36153 0.77921 0.54201 0.0
H559 H 0.44565 0.88155 0.49 0.0
H560 H 0.41635 0.84128 0.49942 0.0
H561 H 0.38128 0.83663 0.55246 0.0
H562 H 0.30356 0.71953 0.57938 0.0
H563 H 0.33702 0.75989 0.57443 0.0
C564 C 0.57186 0.45642 0.69624 0.0
C565 C 0.57159 0.4597 0.67696 0.0
C566 C 0.57731 0.43994 0.70336 0.0
C567 C 0.60486 0.40444 0.69137 0.0
H568 H 0.55955 0.35976 0.72696 0.0
C569 C 0.59655 0.31487 0.70401 0.0
C570 C 0.59317 0.30621 0.72225 0.0
C571 C 0.59557 0.33502 0.69996 0.0
C572 C 0.57261 0.37229 0.71726 0.0
H573 H 0.57796 0.44926 0.65009 0.0
H574 H 0.58745 0.42053 0.66247 0.0
H575 H 0.55621 0.39347 0.71751 0.0
H576 H 0.58593 0.31184 0.75056 0.0
H577 H 0.58437 0.34724 0.74347 0.0
H578 H 0.62108 0.38317 0.69091 0.0
C579 C 0.58348 0.43064 0.67211 0.0
C580 C 0.5707 0.39162 0.71186 0.0
C581 C 0.57786 0.44695 0.665 0.0
C582 C 0.58852 0.31803 0.73634 0.0
C583 C 0.58758 0.33827 0.73228 0.0
C584 C 0.60682 0.38519 0.69681 0.0
C585 C 0.58283 0.42663 0.69134 0.0
C586 C 0.58652 0.40765 0.69859 0.0
C587 C 0.59127 0.34709 0.71405 0.0
C588 C 0.59041 0.36861 0.70953 0.0
H589 H 0.56694 0.46591 0.70577 0.0
H590 H 0.57688 0.43736 0.71826 0.0
H591 H 0.61755 0.41671 0.68135 0.0
H592 H 0.60004 0.30614 0.6928 0.0
H593 H 0.59798 0.34103 0.6857 0.0
C594 C 0.14132 0.55449 0.83358 0.0
C595 C 0.12279 0.545 0.84681 0.0
C596 C 0.16552 0.56386 0.83907 0.0
C597 C 0.20713 0.58802 0.87932 0.0
H598 H 0.2462 0.56954 0.85162 0.0
C599 C 0.30187 0.61003 0.90519 0.0
C600 C 0.32008 0.61719 0.89181 0.0
C601 C 0.27771 0.60099 0.89974 0.0
C602 C 0.23565 0.57512 0.85937 0.0
H603 H 0.11505 0.53854 0.87619 0.0
H604 H 0.15733 0.5549 0.88578 0.0
H605 H 0.20442 0.55521 0.84183 0.0
H606 H 0.32721 0.62036 0.86222 0.0
H607 H 0.28521 0.60503 0.85275 0.0
H608 H 0.23837 0.60812 0.89677 0.0
C609 C 0.15316 0.55509 0.87118 0.0
C610 C 0.21171 0.56689 0.85376 0.0
C611 C 0.12896 0.54556 0.86568 0.0
C612 C 0.31359 0.6149 0.87288 0.0
C613 C 0.28947 0.60599 0.86744 0.0
C614 C 0.23112 0.59637 0.88488 0.0
C615 C 0.17166 0.5641 0.85791 0.0
C616 C 0.1972 0.57323 0.86369 0.0
C617 C 0.27125 0.59902 0.88081 0.0
C618 C 0.24566 0.58999 0.87498 0.0
H619 H 0.13706 0.55412 0.81893 0.0
H620 H 0.17944 0.57089 0.82856 0.0
H621 H 0.19644 0.5934 0.88712 0.0
H622 H 0.30626 0.61146 0.91988 0.0
H623 H 0.26407 0.59543 0.91039 0.0
C624 C 0.55391 0.13152 0.04612 0.0
C625 C 0.54781 0.12647 0.0272 0.0
C626 C 0.57045 0.15454 0.05199 0.0
C627 C 0.60165 0.21716 0.03696 0.0
H628 H 0.64913 0.22511 0.07451 0.0
C629 C 0.68861 0.30655 0.05163 0.0
C630 C 0.69468 0.31325 0.07036 0.0
C631 C 0.67005 0.28377 0.04693 0.0
C632 C 0.63584 0.22315 0.06416 0.0
H633 H 0.55388 0.14153 -0.00037 0.0
H634 H 0.58308 0.18171 0.00979 0.0
H635 H 0.61735 0.18549 0.06523 0.0
H636 H 0.68634 0.30112 0.09883 0.0
H637 H 0.65399 0.26115 0.09056 0.0
H638 H 0.62059 0.25489 0.03563 0.0
C639 C 0.57477 0.168 0.02017 0.0
C640 C 0.61756 0.20046 0.05886 0.0
C641 C 0.55807 0.14499 0.01432 0.0
C642 C 0.68209 0.29651 0.08428 0.0
C643 C 0.66363 0.27362 0.07956 0.0
C644 C 0.62004 0.23983 0.04216 0.0
C645 C 0.58141 0.173 0.03906 0.0
C646 C 0.6003 0.19717 0.04514 0.0
C647 C 0.65729 0.26711 0.06083 0.0
C648 C 0.63739 0.24305 0.05573 0.0
H649 H 0.546 0.11761 0.05638 0.0
H650 H 0.57473 0.15783 0.06668 0.0
H651 H 0.58843 0.2153 0.02659 0.0
H652 H 0.69796 0.319 0.04055 0.0
H653 H 0.66578 0.27914 0.03238 0.0
C654 C 0.42792 0.57929 0.16024 0.0
C655 C 0.43183 0.56537 0.17294 0.0
C656 C 0.42356 0.59673 0.16653 0.0
C657 C 0.43476 0.63534 0.20665 0.0
H658 H 0.38839 0.64725 0.1816 0.0
C659 C 0.41428 0.7071 0.23079 0.0
C660 C 0.41111 0.7201 0.21672 0.0
C661 C 0.41651 0.68771 0.22629 0.0
C662 C 0.40158 0.6443 0.18863 0.0
H663 H 0.43371 0.55842 0.20217 0.0
H664 H 0.42581 0.58882 0.2132 0.0
H665 H 0.39138 0.61337 0.17243 0.0
H666 H 0.40869 0.72347 0.18688 0.0
H667 H 0.41294 0.68999 0.17907 0.0
H668 H 0.44517 0.66648 0.2227 0.0
C669 C 0.42634 0.58634 0.19838 0.0
C670 C 0.40324 0.62485 0.1834 0.0
C671 C 0.4306 0.56879 0.19207 0.0
C672 C 0.41095 0.71375 0.19807 0.0
C673 C 0.41318 0.69442 0.19359 0.0
C674 C 0.43312 0.65484 0.21188 0.0
C675 C 0.42306 0.60067 0.18566 0.0
C676 C 0.42005 0.62031 0.19219 0.0
C677 C 0.4156 0.68095 0.20764 0.0
C678 C 0.41673 0.65971 0.20275 0.0
H679 H 0.42855 0.5769 0.14541 0.0
H680 H 0.42131 0.6076 0.15638 0.0
H681 H 0.4481 0.63247 0.21354 0.0
H682 H 0.41442 0.71151 0.2453 0.0
H683 H 0.41823 0.67761 0.23744 0.0
C684 C 0.87184 0.45354 0.36129 0.0
C685 C 0.87841 0.45788 0.34249 0.0
C686 C 0.84857 0.44759 0.36681 0.0
C687 C 0.78631 0.4264 0.34851 0.0
H688 H 0.77984 0.45343 0.39429 0.0
C689 C 0.69272 0.40032 0.3776 0.0
C690 C 0.69003 0.41796 0.38611 0.0
C691 C 0.71561 0.4048 0.37256 0.0
C692 C 0.78134 0.44593 0.38137 0.0
H693 H 0.8653 0.45848 0.31469 0.0
H694 H 0.82518 0.449 0.32436 0.0
H695 H 0.81972 0.4617 0.38486 0.0
H696 H 0.70925 0.45424 0.39583 0.0
H697 H 0.74922 0.46233 0.38653 0.0
H698 H 0.74813 0.41141 0.34461 0.0
C699 C 0.83783 0.44985 0.33485 0.0
C700 C 0.80419 0.45037 0.3761 0.0
C701 C 0.86099 0.45562 0.32932 0.0
C702 C 0.71074 0.44026 0.38936 0.0
C703 C 0.73367 0.44482 0.38414 0.0
C704 C 0.76353 0.42212 0.35369 0.0
C705 C 0.83137 0.44595 0.35369 0.0
C706 C 0.80697 0.44069 0.35958 0.0
C707 C 0.73639 0.42712 0.37572 0.0
C708 C 0.76073 0.43182 0.37019 0.0
H709 H 0.88484 0.45532 0.37183 0.0
H710 H 0.84411 0.44435 0.3814 0.0
H711 H 0.78769 0.4184 0.33581 0.0
H712 H 0.67715 0.38286 0.37506 0.0
H713 H 0.71703 0.3906 0.36644 0.0
C714 C 0.08754 0.52873 0.40582 0.0
C715 C 0.08153 0.54401 0.39679 0.0
C716 C 0.10172 0.53581 0.42203 0.0
C717 C 0.14781 0.58704 0.44751 0.0
H718 H 0.12362 0.54717 0.49105 0.0
C719 C 0.19707 0.61746 0.51848 0.0
C720 C 0.19696 0.6004 0.53022 0.0
C721 C 0.18285 0.61069 0.50228 0.0
C722 C 0.13091 0.55836 0.47897 0.0
H723 H 0.08608 0.57894 0.3979 0.0
H724 H 0.11168 0.59153 0.42581 0.0
H725 H 0.09967 0.53514 0.46235 0.0
H726 H 0.18219 0.56292 0.53409 0.0
H727 H 0.15818 0.55111 0.50547 0.0
H728 H 0.1794 0.6099 0.46374 0.0
C729 C 0.10516 0.574 0.42028 0.0
C730 C 0.11707 0.55149 0.46257 0.0
C731 C 0.09061 0.56679 0.40422 0.0
C732 C 0.18247 0.57646 0.52538 0.0
C733 C 0.16857 0.5697 0.509 0.0
C734 C 0.16187 0.59373 0.46381 0.0
C735 C 0.11062 0.55848 0.42941 0.0
C736 C 0.12537 0.5658 0.44673 0.0
C737 C 0.1685 0.58672 0.49724 0.0
C738 C 0.15358 0.57952 0.4798 0.0
H739 H 0.08142 0.51127 0.40032 0.0
H740 H 0.10597 0.52364 0.42871 0.0
H741 H 0.15468 0.59825 0.4354 0.0
H742 H 0.20791 0.63606 0.52193 0.0
H743 H 0.18293 0.62431 0.49384 0.0
C744 C 0.55023 0.08044 0.59129 0.0
C745 C 0.54818 0.0894 0.57407 0.0
C746 C 0.55461 0.09354 0.6076 0.0
C747 C 0.57783 0.15438 0.62464 0.0
H748 H 0.54508 0.12266 0.66995 0.0
C749 C 0.58135 0.2052 0.6909 0.0
C750 C 0.58513 0.19694 0.70788 0.0
C751 C 0.57665 0.192 0.67461 0.0
C752 C 0.55453 0.13173 0.65745 0.0
H753 H 0.5493 0.11929 0.56052 0.0
H754 H 0.5563 0.14189 0.58903 0.0
H755 H 0.53712 0.09985 0.6414 0.0
H756 H 0.58677 0.16823 0.72106 0.0
H757 H 0.57855 0.14517 0.69258 0.0
H758 H 0.59511 0.18629 0.6407 0.0
C759 C 0.55486 0.12484 0.58989 0.0
C760 C 0.55 0.11867 0.64109 0.0
C761 C 0.55054 0.11176 0.57357 0.0
C762 C 0.58392 0.17509 0.70822 0.0
C763 C 0.57909 0.16182 0.69193 0.0
C764 C 0.58228 0.16745 0.64098 0.0
C765 C 0.55696 0.1159 0.60711 0.0
C766 C 0.56163 0.12983 0.62449 0.0
C767 C 0.5755 0.17018 0.67493 0.0
C768 C 0.5707 0.15627 0.65757 0.0
H769 H 0.54821 0.06315 0.59223 0.0
H770 H 0.5564 0.08622 0.62058 0.0
H771 H 0.58741 0.16349 0.61219 0.0
H772 H 0.58214 0.22196 0.69015 0.0
H773 H 0.57367 0.19878 0.66177 0.0
C774 C 0.46403 0.57754 0.71573 0.0
C775 C 0.48209 0.57181 0.71855 0.0
C776 C 0.4572 0.58691 0.73021 0.0
C777 C 0.45775 0.591 0.78132 0.0
H778 H 0.44627 0.64231 0.77199 0.0
C779 C 0.43826 0.63685 0.84089 0.0
C780 C 0.41937 0.64136 0.83786 0.0
C781 C 0.44726 0.62988 0.8262 0.0
C782 C 0.44921 0.62785 0.77479 0.0
H783 H 0.50693 0.5712 0.73888 0.0
H784 H 0.49525 0.58783 0.76408 0.0
H785 H 0.459 0.6268 0.74661 0.0
H786 H 0.39556 0.64269 0.8169 0.0
H787 H 0.41108 0.63031 0.79133 0.0
H788 H 0.44776 0.59186 0.80943 0.0
C789 C 0.48626 0.58494 0.75069 0.0
C790 C 0.45648 0.61895 0.76025 0.0
C791 C 0.49313 0.57563 0.7362 0.0
C792 C 0.41014 0.63938 0.81972 0.0
C793 C 0.41912 0.63238 0.80503 0.0
C794 C 0.45046 0.59987 0.79585 0.0
C795 C 0.46822 0.59069 0.74787 0.0
C796 C 0.46078 0.60038 0.76334 0.0
C797 C 0.43756 0.62724 0.80814 0.0
C798 C 0.44604 0.61836 0.79275 0.0
H799 H 0.45535 0.57503 0.70224 0.0
H800 H 0.44307 0.59093 0.72764 0.0
H801 H 0.46055 0.57645 0.78411 0.0
H802 H 0.44587 0.63833 0.85468 0.0
H803 H 0.46175 0.62644 0.82901 0.0
C804 C 0.90753 0.42825 0.90239 0.0
C805 C 0.91515 0.44957 0.89301 0.0
C806 C 0.89249 0.42217 0.91781 0.0
C807 C 0.84952 0.43457 0.94142 0.0
H808 H 0.86388 0.40755 0.98401 0.0
C809 C 0.79957 0.41704 0.01159 0.0
C810 C 0.79319 0.39565 0.02043 0.0
C811 C 0.81449 0.42431 0.99599 0.0
C812 C 0.85947 0.41486 0.97216 0.0
H813 H 0.9129 0.48123 0.89247 0.0
H814 H 0.88656 0.47055 0.9194 0.0
H815 H 0.88957 0.41872 0.95676 0.0
H816 H 0.79726 0.36502 0.0197 0.0
H817 H 0.82296 0.37755 0.9925 0.0
H818 H 0.81932 0.43058 0.95686 0.0
C819 C 0.89203 0.45843 0.91468 0.0
C820 C 0.87419 0.42125 0.95655 0.0
C821 C 0.9071 0.46453 0.89925 0.0
C822 C 0.80191 0.38166 0.01329 0.0
C823 C 0.81679 0.38891 -0.00225 0.0
C824 C 0.83476 0.42814 0.95707 0.0
C825 C 0.88471 0.43726 0.92422 0.0
C826 C 0.86929 0.43101 0.94094 0.0
C827 C 0.82335 0.41036 0.98895 0.0
C828 C 0.83946 0.41804 0.97256 0.0
H829 H 0.91305 0.41614 0.89774 0.0
H830 H 0.8868 0.40553 0.92465 0.0
H831 H 0.84514 0.44184 0.92954 0.0
H832 H 0.79316 0.42824 0.01676 0.0
H833 H 0.8194 0.44103 0.98962 0.0
C834 C 0.45134 0.91552 0.07743 0.0
C835 C 0.4362 0.9231 0.06997 0.0
C836 C 0.44387 0.9002 0.09257 0.0
C837 C 0.40272 0.88058 0.13234 0.0
H838 H 0.41584 0.8295 0.13405 0.0
C839 C 0.371 0.81358 0.19289 0.0
C840 C 0.38764 0.80728 0.19933 0.0
C841 C 0.37554 0.82684 0.17666 0.0
C842 C 0.41225 0.84382 0.13387 0.0
H843 H 0.40131 0.92051 0.0725 0.0
H844 H 0.38816 0.89356 0.09893 0.0
H845 H 0.42613 0.854 0.10638 0.0
H846 H 0.42218 0.8101 0.1938 0.0
H847 H 0.43022 0.83342 0.16574 0.0
H848 H 0.38918 0.87064 0.15996 0.0
C849 C 0.40587 0.8996 0.0931 0.0
C850 C 0.41812 0.85783 0.118 0.0
C851 C 0.4133 0.91483 0.07786 0.0
C852 C 0.40892 0.81457 0.18921 0.0
C853 C 0.41347 0.82781 0.17303 0.0
C854 C 0.39691 0.8666 0.14826 0.0
C855 C 0.42112 0.89218 0.10065 0.0
C856 C 0.41365 0.87652 0.11713 0.0
C857 C 0.39682 0.83406 0.16651 0.0
C858 C 0.40185 0.84821 0.14928 0.0
H859 H 0.46898 0.9214 0.07153 0.0
H860 H 0.45614 0.895 0.09818 0.0
H861 H 0.39931 0.89502 0.13217 0.0
H862 H 0.35439 0.80819 0.20033 0.0
H863 H 0.36224 0.83116 0.17192 0.0
C864 C 0.53 0.43945 0.21713 0.0
C865 C 0.51297 0.44644 0.21993 0.0
C866 C 0.53776 0.43113 0.23193 0.0
C867 C 0.54287 0.43289 0.28301 0.0
H868 H 0.55163 0.37954 0.27618 0.0
C869 C 0.5687 0.39306 0.3441 0.0
C870 C 0.58649 0.38723 0.34065 0.0
C871 C 0.55827 0.39888 0.32945 0.0
C872 C 0.54949 0.39459 0.27827 0.0
H873 H 0.49081 0.45025 0.24052 0.0
H874 H 0.50414 0.43546 0.26632 0.0
H875 H 0.53632 0.39251 0.25045 0.0
H876 H 0.60697 0.38255 0.31906 0.0
H877 H 0.58902 0.39296 0.29357 0.0
H878 H 0.55629 0.43518 0.31074 0.0
C879 C 0.51162 0.43657 0.25269 0.0
C880 C 0.54071 0.40202 0.26353 0.0
C881 C 0.50379 0.44482 0.23787 0.0
C882 C 0.59328 0.38691 0.32221 0.0
C883 C 0.58288 0.39276 0.30757 0.0
C884 C 0.55169 0.4255 0.29774 0.0
C885 C 0.52872 0.42967 0.24989 0.0
C886 C 0.53742 0.42133 0.2657 0.0
C887 C 0.56541 0.39902 0.31103 0.0
C888 C 0.55522 0.40632 0.29553 0.0
H889 H 0.53722 0.44024 0.20344 0.0
H890 H 0.55113 0.42618 0.22934 0.0
H891 H 0.54088 0.44805 0.28506 0.0
H892 H 0.56297 0.39337 0.35814 0.0
H893 H 0.5446 0.40327 0.33258 0.0
C894 C 0.50199 0.93226 0.40619 0.0
C895 C 0.48713 0.93989 0.41389 0.0
C896 C 0.49397 0.91701 0.39083 0.0
C897 C 0.4503 0.89739 0.35168 0.0
H898 H 0.45878 0.8434 0.34963 0.0
C899 C 0.39907 0.82317 0.29819 0.0
C900 C 0.41155 0.81349 0.2896 0.0
C901 C 0.40952 0.83881 0.31311 0.0
C902 C 0.45657 0.85858 0.34988 0.0
H903 H 0.45186 0.93675 0.41187 0.0
H904 H 0.43802 0.91038 0.38509 0.0
H905 H 0.47495 0.87041 0.3762 0.0
H906 H 0.4448 0.81253 0.29007 0.0
H907 H 0.46322 0.84013 0.31612 0.0
H908 H 0.43192 0.88567 0.32547 0.0
C909 C 0.45603 0.91652 0.39069 0.0
C910 C 0.46581 0.87403 0.3651 0.0
C911 C 0.46399 0.93166 0.40604 0.0
C912 C 0.4347 0.81967 0.2964 0.0
C913 C 0.4452 0.83539 0.31137 0.0
C914 C 0.44114 0.88203 0.33649 0.0
C915 C 0.47097 0.90915 0.38283 0.0
C916 C 0.46246 0.89341 0.36627 0.0
C917 C 0.43277 0.84525 0.31981 0.0
C918 C 0.44385 0.86225 0.33552 0.0
H919 H 0.52 0.93844 0.4118 0.0
H920 H 0.50596 0.91176 0.38498 0.0
H921 H 0.44787 0.91244 0.35199 0.0
H922 H 0.38114 0.81868 0.29339 0.0
H923 H 0.39925 0.84571 0.31951 0.0
C924 C 0.54969 0.46406 0.56259 0.0
C925 C 0.56086 0.48799 0.56746 0.0
C926 C 0.55663 0.4572 0.54661 0.0
C927 C 0.60496 0.47868 0.51085 0.0
H928 H 0.55441 0.42564 0.48287 0.0
C929 C 0.6165 0.45103 0.43653 0.0
C930 C 0.60855 0.42695 0.4345 0.0
C931 C 0.61182 0.45939 0.45287 0.0
C932 C 0.56871 0.44042 0.4906 0.0
H933 H 0.58808 0.52357 0.55965 0.0
H934 H 0.59974 0.51175 0.53133 0.0
H935 H 0.54408 0.43861 0.51109 0.0
H936 H 0.58957 0.39278 0.44801 0.0
H937 H 0.58103 0.40734 0.47628 0.0
H938 H 0.6294 0.4807 0.48982 0.0
C939 C 0.58606 0.49815 0.54006 0.0
C940 C 0.56287 0.44778 0.50686 0.0
C941 C 0.57935 0.50496 0.55623 0.0
C942 C 0.59596 0.41144 0.44914 0.0
C943 C 0.59096 0.41973 0.46529 0.0
C944 C 0.61073 0.4715 0.49439 0.0
C945 C 0.57462 0.47417 0.53494 0.0
C946 C 0.58095 0.46683 0.51735 0.0
C947 C 0.59875 0.44373 0.46728 0.0
C948 C 0.59269 0.45214 0.48426 0.0
H949 H 0.53558 0.45063 0.57117 0.0
H950 H 0.54785 0.43855 0.54343 0.0
H951 H 0.61943 0.49321 0.51864 0.0
H952 H 0.62631 0.4634 0.42551 0.0
H953 H 0.61793 0.47798 0.45408 0.0
C954 C 0.10767 0.54208 0.7456 0.0
C955 C 0.0825 0.53022 0.74225 0.0
C956 C 0.1239 0.55135 0.73085 0.0
C957 C 0.12825 0.54474 0.68067 0.0
H958 H 0.18434 0.60821 0.68372 0.0
C959 C 0.20432 0.5809 0.62658 0.0
C960 C 0.21219 0.60361 0.61966 0.0
C961 C 0.18905 0.57233 0.64189 0.0
C962 C 0.1687 0.5905 0.68266 0.0
H963 H 0.05456 0.51845 0.72086 0.0
H964 H 0.0829 0.53461 0.6951 0.0
H965 H 0.15633 0.59232 0.70981 0.0
H966 H 0.21057 0.63531 0.62364 0.0
H967 H 0.18391 0.6203 0.65053 0.0
H968 H 0.14049 0.54291 0.65353 0.0
C969 C 0.09008 0.53673 0.70912 0.0
C970 C 0.15281 0.58134 0.69764 0.0
C971 C 0.07387 0.52766 0.72386 0.0
C972 C 0.20479 0.61773 0.62862 0.0
C973 C 0.18964 0.60919 0.64406 0.0
C974 C 0.14423 0.55381 0.66579 0.0
C975 C 0.11525 0.54873 0.71246 0.0
C976 C 0.13238 0.55839 0.69675 0.0
C977 C 0.18144 0.58632 0.65073 0.0
C978 C 0.16459 0.57679 0.66661 0.0
H979 H 0.11481 0.54446 0.75965 0.0
H980 H 0.14321 0.56036 0.73381 0.0
H981 H 0.11276 0.52693 0.67966 0.0
H982 H 0.20971 0.56957 0.62004 0.0
H983 H 0.18326 0.55474 0.64686 0.0
C984 C 0.50509 0.0851 0.90442 0.0
C985 C 0.5146 0.0921 0.92252 0.0
C986 C 0.51212 0.10171 0.8902 0.0
C987 C 0.56109 0.16118 0.87684 0.0
H988 H 0.51361 0.15691 0.84082 0.0
C989 C 0.58636 0.2317 0.82022 0.0
C990 C 0.57754 0.22334 0.80218 0.0
C991 C 0.57761 0.21646 0.83542 0.0
C992 C 0.52712 0.15823 0.85068 0.0
H993 H 0.53868 0.12216 0.93991 0.0
H994 H 0.55102 0.15114 0.91505 0.0
H995 H 0.50062 0.12877 0.86635 0.0
H996 H 0.55212 0.19251 0.78602 0.0
H997 H 0.53702 0.16591 0.8125 0.0
H998 H 0.58764 0.19046 0.86109 0.0
C999 C 0.53835 0.13274 0.91182 0.0
C1000 C 0.51968 0.1421 0.8653 0.0
C1001 C 0.5313 0.11613 0.92606 0.0
C1002 C 0.55929 0.19954 0.79974 0.0
C1003 C 0.55054 0.1843 0.81494 0.0
C1004 C 0.56853 0.17729 0.86222 0.0
C1005 C 0.52885 0.12572 0.89372 0.0
C1006 C 0.53661 0.1433 0.87849 0.0
C1007 C 0.55983 0.1925 0.83293 0.0
C1008 C 0.55167 0.17594 0.8489 0.0
H1009 H 0.49248 0.0667 0.90116 0.0
H1010 H 0.50477 0.09566 0.87634 0.0
H1011 H 0.57465 0.16239 0.88659 0.0
H1012 H 0.60034 0.24995 0.82261 0.0
H1013 H 0.58487 0.22342 0.84913 0.0
C1014 C 0.45156 0.55558 0.06033 0.0
C1015 C 0.43641 0.53236 0.06657 0.0
C1016 C 0.44505 0.56383 0.04476 0.0
C1017 C 0.40865 0.54355 0.00191 0.0
H1018 H 0.41731 0.60613 0.00182 0.0
C1019 C 0.37963 0.57891 0.93932 0.0
C1020 C 0.39508 0.60273 0.93462 0.0
C1021 C 0.38348 0.56988 0.95574 0.0
C1022 C 0.41504 0.58872 0.00153 0.0
H1023 H 0.40252 0.49958 0.06146 0.0
H1024 H 0.39112 0.51402 0.03415 0.0
H1025 H 0.42603 0.59125 0.03005 0.0
H1026 H 0.42686 0.6357 0.94336 0.0
H1027 H 0.4339 0.61987 0.9717 0.0
H1028 H 0.39818 0.54116 0.9733 0.0
C1029 C 0.40806 0.5258 0.04132 0.0
C1030 C 0.41997 0.58018 0.01773 0.0
C1031 C 0.41447 0.51761 0.05702 0.0
C1032 C 0.41454 0.61728 0.94662 0.0
C1033 C 0.41847 0.60824 0.96295 0.0
C1034 C 0.40388 0.55215 0.98566 0.0
C1035 C 0.42333 0.54898 0.035 0.0
C1036 C 0.41699 0.55758 0.01806 0.0
C1037 C 0.40294 0.58444 0.96777 0.0
C1038 C 0.40719 0.57492 0.98522 0.0
H1039 H 0.46848 0.5674 0.06752 0.0
H1040 H 0.45729 0.58171 0.04013 0.0
H1041 H 0.40647 0.52617 0.00169 0.0
H1042 H 0.36438 0.56726 0.93043 0.0
H1043 H 0.37098 0.55155 0.95912 0.0
C1044 C 0.91038 0.46834 0.23091 0.0
C1045 C 0.91936 0.4552 0.2395 0.0
C1046 C 0.89438 0.45905 0.21576 0.0
C1047 C 0.8744 0.41503 0.17818 0.0
H1048 H 0.81913 0.42364 0.17526 0.0
C1049 C 0.80172 0.37364 0.11945 0.0
C1050 C 0.79364 0.38808 0.11192 0.0
C1051 C 0.81646 0.38069 0.13543 0.0
C1052 C 0.83461 0.42128 0.17578 0.0
H1053 H 0.91877 0.4221 0.23884 0.0
H1054 H 0.89061 0.40577 0.21243 0.0
H1055 H 0.84602 0.43814 0.20238 0.0
H1056 H 0.7948 0.42132 0.11521 0.0
H1057 H 0.82066 0.43368 0.1428 0.0
H1058 H 0.86315 0.39842 0.15145 0.0
C1059 C 0.89607 0.42331 0.21738 0.0
C1060 C 0.85 0.42957 0.19132 0.0
C1061 C 0.912 0.43256 0.2326 0.0
C1062 C 0.80062 0.40971 0.12067 0.0
C1063 C 0.81533 0.41674 0.13659 0.0
C1064 C 0.85903 0.40677 0.16259 0.0
C1065 C 0.88706 0.43644 0.20882 0.0
C1066 C 0.87019 0.42674 0.19262 0.0
C1067 C 0.82338 0.40231 0.1442 0.0
C1068 C 0.83909 0.41002 0.16113 0.0
H1069 H 0.91554 0.48575 0.23601 0.0
H1070 H 0.88796 0.46971 0.20933 0.0
H1071 H 0.88996 0.4128 0.1787 0.0
H1072 H 0.79661 0.35685 0.11306 0.0
H1073 H 0.82217 0.36908 0.14104 0.0
loop_
_geom_bond_atom_site_label_1
_geom_bond_atom_site_label_2
_geom_bond_distance
_geom_bond_site_symmetry_2
_ccdc_geom_bond_type
C0 C1 1.384 . S
C0 C2 1.384 . S
C0 H28 0.931 . S
C1 C0 1.384 . S
C1 C4 1.382 . S
C2 C0 1.384 . S
C2 C3 1.381 . S
C2 H29 0.930 . S
C3 C2 1.381 . S
C3 C5 1.381 . S
C3 C6 1.487 . S
C4 C1 1.382 . S
C4 C5 1.387 . S
C4 H30 0.930 . S
C5 C3 1.381 . S
C5 C4 1.387 . S
C5 H31 0.931 . S
C6 C3 1.487 . S
C6 C13 1.399 . S
C6 N44 1.343 . S
C7 C8 1.384 . S
C7 C9 1.384 . S
C7 H32 0.931 . S
C8 C7 1.384 . S
C8 C11 1.382 . S
C9 C7 1.384 . S
C9 C10 1.381 . S
C9 H33 0.930 . S
C10 C9 1.381 . S
C10 C12 1.381 . S
C10 C13 1.487 . S
C11 C8 1.382 . S
C11 C12 1.387 . S
C11 H34 0.930 . S
C12 C10 1.381 . S
C12 C11 1.387 . S
C12 H35 0.931 . S
C13 C6 1.399 . S
C13 C10 1.487 . S
C13 N45 1.343 1_655 S
C14 C15 1.384 . S
C14 C16 1.384 . S
C14 H36 0.931 . S
C15 C14 1.384 . S
C15 C18 1.382 . S
C16 C14 1.384 . S
C16 C17 1.381 . S
C16 H37 0.930 . S
C17 C16 1.381 . S
C17 C19 1.381 . S
C17 C20 1.487 . S
C18 C15 1.382 . S
C18 C19 1.387 . S
C18 H38 0.930 . S
C19 C17 1.381 . S
C19 C18 1.387 . S
C19 H39 0.931 . S
C20 C17 1.487 . S
C20 C27 1.399 . S
C20 N45 1.343 . S
C21 C22 1.384 . S
C21 C23 1.384 . S
C21 H40 0.931 . S
C22 C21 1.384 . S
C22 C25 1.382 . S
C23 C21 1.384 . S
C23 C24 1.381 . S
C23 H41 0.930 . S
C24 C23 1.381 . S
C24 C26 1.381 . S
C24 C27 1.487 . S
C25 C22 1.382 . S
C25 C26 1.387 . S
C25 H42 0.930 . S
C26 C24 1.381 . S
C26 C25 1.387 . S
C26 H43 0.931 . S
C27 C20 1.399 . S
C27 C24 1.487 . S
C27 N44 1.343 1_455 S
H28 C0 0.931 . S
H29 C2 0.930 . S
H30 C4 0.930 . S
H31 C5 0.931 . S
H32 C7 0.931 . S
H33 C9 0.930 . S
H34 C11 0.930 . S
H35 C12 0.931 . S
H36 C14 0.931 . S
H37 C16 0.930 . S
H38 C18 0.930 . S
H39 C19 0.931 . S
H40 C21 0.931 . S
H41 C23 0.930 . S
H42 C25 0.930 . S
H43 C26 0.931 . S
N44 C6 1.343 . S
N44 C27 1.343 1_655 S
N45 C13 1.343 1_455 S
N45 C20 1.343 . S
C46 C47 1.384 . S
C46 C48 1.384 . S
C46 H74 0.931 . S
C47 C46 1.384 . S
C47 C50 1.382 . S
C48 C46 1.384 . S
C48 C49 1.381 . S
C48 H75 0.930 . S
C49 C48 1.381 . S
C49 C51 1.381 . S
C49 C52 1.487 . S
C50 C47 1.382 . S
C50 C51 1.387 . S
C50 H76 0.930 . S
C51 C49 1.381 . S
C51 C50 1.387 . S
C51 H77 0.931 . S
C52 C49 1.487 . S
C52 C59 1.399 . S
C52 N90 1.343 1_565 S
C53 C54 1.384 . S
C53 C55 1.384 . S
C53 H78 0.931 . S
C54 C53 1.384 . S
C54 C57 1.382 . S
C55 C53 1.384 . S
C55 C56 1.381 . S
C55 H79 0.930 . S
C56 C55 1.381 . S
C56 C58 1.381 . S
C56 C59 1.487 . S
C57 C54 1.382 . S
C57 C58 1.387 . S
C57 H80 0.930 . S
C58 C56 1.381 . S
C58 C57 1.387 . S
C58 H81 0.931 . S
C59 C52 1.399 . S
C59 C56 1.487 . S
C59 N91 1.343 1_565 S
C60 C61 1.384 . S
C60 C62 1.384 . S
C60 H82 0.931 . S
C61 C60 1.384 . S
C61 C64 1.382 . S
C62 C60 1.384 . S
C62 C63 1.381 . S
C62 H83 0.930 . S
C63 C62 1.381 . S
C63 C65 1.381 . S
C63 C66 1.487 . S
C64 C61 1.382 . S
C64 C65 1.387 . S
C64 H84 0.930 . S
C65 C63 1.381 . S
C65 C64 1.387 . S
C65 H85 0.931 . S
C66 C63 1.487 . S
C66 C73 1.399 . S
C66 N91 1.343 . S
C67 C68 1.384 . S
C67 C69 1.384 . S
C67 H86 0.931 . S
C68 C67 1.384 . S
C68 C71 1.382 . S
C69 C67 1.384 . S
C69 C70 1.381 . S
C69 H87 0.930 . S
C70 C69 1.381 . S
C70 C72 1.381 . S
C70 C73 1.487 . S
C71 C68 1.382 . S
C71 C72 1.387 . S
C71 H88 0.930 . S
C72 C70 1.381 . S
C72 C71 1.387 . S
C72 H89 0.931 . S
C73 C66 1.399 . S
C73 C70 1.487 . S
C73 N90 1.343 . S
H74 C46 0.931 . S
H75 C48 0.930 . S
H76 C50 0.930 . S
H77 C51 0.931 . S
H78 C53 0.931 . S
H79 C55 0.930 . S
H80 C57 0.930 . S
H81 C58 0.931 . S
H82 C60 0.931 . S
H83 C62 0.930 . S
H84 C64 0.930 . S
H85 C65 0.931 . S
H86 C67 0.931 . S
H87 C69 0.930 . S
H88 C71 0.930 . S
H89 C72 0.931 . S
N90 C52 1.343 1_545 S
N90 C73 1.343 . S
N91 C59 1.343 1_545 S
N91 C66 1.343 . S
C92 C93 1.384 . S
C92 C94 1.384 . S
C92 H120 0.931 . S
C93 C92 1.384 . S
C93 C96 1.382 . S
C94 C92 1.384 . S
C94 C95 1.381 . S
C94 H121 0.930 . S
C95 C94 1.381 . S
C95 C97 1.381 . S
C95 C98 1.487 . S
C96 C93 1.382 . S
C96 C97 1.387 . S
C96 H122 0.930 . S
C97 C95 1.381 . S
C97 C96 1.387 . S
C97 H123 0.931 . S
C98 C95 1.487 . S
C98 C105 1.399 . S
C98 N136 1.343 . S
C99 C100 1.384 . S
C99 C101 1.384 . S
C99 H124 0.931 . S
C100 C99 1.384 . S
C100 C103 1.382 . S
C101 C99 1.384 . S
C101 C102 1.381 . S
C101 H125 0.930 . S
C102 C101 1.381 . S
C102 C104 1.381 . S
C102 C105 1.487 . S
C103 C100 1.382 . S
C103 C104 1.387 . S
C103 H126 0.930 . S
C104 C102 1.381 . S
C104 C103 1.387 . S
C104 H127 0.931 . S
C105 C98 1.399 . S
C105 C102 1.487 . S
C105 N137 1.343 . S
C106 C107 1.384 . S
C106 C108 1.384 . S
C106 H128 0.931 . S
C107 C106 1.384 . S
C107 C110 1.382 . S
C108 C106 1.384 . S
C108 C109 1.381 . S
C108 H129 0.930 . S
C109 C108 1.381 . S
C109 C111 1.381 . S
C109 C112 1.487 . S
C110 C107 1.382 . S
C110 C111 1.387 . S
C110 H130 0.930 . S
C111 C109 1.381 . S
C111 C110 1.387 . S
C111 H131 0.931 . S
C112 C109 1.487 . S
C112 C119 1.399 . S
C112 N137 1.343 . S
C113 C114 1.384 . S
C113 C115 1.384 . S
C113 H132 0.931 . S
C114 C113 1.384 . S
C114 C117 1.382 . S
C115 C113 1.384 . S
C115 C116 1.381 . S
C115 H133 0.930 . S
C116 C115 1.381 . S
C116 C118 1.381 . S
C116 C119 1.487 . S
C117 C114 1.382 . S
C117 C118 1.387 . S
C117 H134 0.930 . S
C118 C116 1.381 . S
C118 C117 1.387 . S
C118 H135 0.931 . S
C119 C112 1.399 . S
C119 C116 1.487 . S
C119 N136 1.343 . S
H120 C92 0.931 . S
H121 C94 0.930 . S
H122 C96 0.930 . S
H123 C97 0.931 . S
H124 C99 0.931 . S
H125 C101 0.930 . S
H126 C103 0.930 . S
H127 C104 0.931 . S
H128 C106 0.931 . S
H129 C108 0.930 . S
H130 C110 0.930 . S
H131 C111 0.931 . S
H132 C113 0.931 . S
H133 C115 0.930 . S
H134 C117 0.930 . S
H135 C118 0.931 . S
N136 C98 1.343 . S
N136 C119 1.343 . S
N137 C105 1.343 . S
N137 C112 1.343 . S
C138 C139 1.384 . S
C138 C140 1.384 . S
C138 H166 0.931 . S
C139 C138 1.384 . S
C139 C142 1.382 . S
C140 C138 1.384 . S
C140 C141 1.381 . S
C140 H167 0.930 . S
C141 C140 1.381 . S
C141 C143 1.381 . S
C141 C144 1.487 . S
C142 C139 1.382 . S
C142 C143 1.387 . S
C142 H168 0.930 . S
C143 C141 1.381 . S
C143 C142 1.387 . S
C143 H169 0.931 . S
C144 C141 1.487 . S
C144 C151 1.399 . S
C144 N182 1.343 . S
C145 C146 1.384 . S
C145 C147 1.384 . S
C145 H170 0.931 . S
C146 C145 1.384 . S
C146 C149 1.382 . S
C147 C145 1.384 . S
C147 C148 1.381 . S
C147 H171 0.930 . S
C148 C147 1.381 . S
C148 C150 1.381 . S
C148 C151 1.487 . S
C149 C146 1.382 . S
C149 C150 1.387 . S
C149 H172 0.930 . S
C150 C148 1.381 . S
C150 C149 1.387 . S
C150 H173 0.931 . S
C151 C144 1.399 . S
C151 C148 1.487 . S
C151 N183 1.343 1_655 S
C152 C153 1.384 . S
C152 C154 1.384 . S
C152 H174 0.931 . S
C153 C152 1.384 . S
C153 C156 1.382 . S
C154 C152 1.384 . S
C154 C155 1.381 . S
C154 H175 0.930 . S
C155 C154 1.381 . S
C155 C157 1.381 . S
C155 C158 1.487 . S
C156 C153 1.382 . S
C156 C157 1.387 . S
C156 H176 0.930 . S
C157 C155 1.381 . S
C157 C156 1.387 . S
C157 H177 0.931 . S
C158 C155 1.487 . S
C158 C165 1.399 . S
C158 N183 1.343 . S
C159 C160 1.384 . S
C159 C161 1.384 . S
C159 H178 0.931 . S
C160 C159 1.384 . S
C160 C163 1.382 . S
C161 C159 1.384 . S
C161 C162 1.381 . S
C161 H179 0.930 . S
C162 C161 1.381 . S
C162 C164 1.381 . S
C162 C165 1.487 . S
C163 C160 1.382 . S
C163 C164 1.387 . S
C163 H180 0.930 . S
C164 C162 1.381 . S
C164 C163 1.387 . S
C164 H181 0.931 . S
C165 C158 1.399 . S
C165 C162 1.487 . S
C165 N182 1.343 1_455 S
H166 C138 0.931 . S
H167 C140 0.930 . S
H168 C142 0.930 . S
H169 C143 0.931 . S
H170 C145 0.931 . S
H171 C147 0.930 . S
H172 C149 0.930 . S
H173 C150 0.931 . S
H174 C152 0.931 . S
H175 C154 0.930 . S
H176 C156 0.930 . S
H177 C157 0.931 . S
H178 C159 0.931 . S
H179 C161 0.930 . S
H180 C163 0.930 . S
H181 C164 0.931 . S
N182 C144 1.343 . S
N182 C165 1.343 1_655 S
N183 C151 1.343 1_455 S
N183 C158 1.343 . S
C184 C185 1.384 . S
C184 C186 1.384 . S
C184 H212 0.931 . S
C185 C184 1.384 . S
C185 C188 1.382 . S
C186 C184 1.384 . S
C186 C187 1.381 . S
C186 H213 0.975 . S
C187 C186 1.381 . S
C187 C189 1.381 . S
C187 C190 1.487 . S
C188 C185 1.382 . S
C188 C189 1.387 . S
C188 H214 0.930 . S
C189 C187 1.381 . S
C189 C188 1.387 . S
C189 H215 0.931 . S
C190 C187 1.487 . S
C190 C197 1.399 1_556 S
C190 N228 1.343 1_565 S
C191 C192 1.384 . S
C191 C193 1.384 . S
C191 H216 0.931 . S
C192 C191 1.384 . S
C192 C195 1.382 . S
C193 C191 1.384 . S
C193 C194 1.381 . S
C193 H217 0.930 . S
C194 C193 1.381 . S
C194 C196 1.381 . S
C194 C197 1.487 . S
C195 C192 1.382 . S
C195 C196 1.387 . S
C195 H218 0.930 . S
C196 C194 1.381 . S
C196 C195 1.387 . S
C196 H219 0.931 . S
C197 C190 1.399 1_554 S
C197 C194 1.487 . S
C197 N229 1.343 1_565 S
C198 C199 1.384 . S
C198 C200 1.384 1_554 S
C198 H220 0.931 1_554 S
C199 C198 1.384 . S
C199 C202 1.382 . S
C200 C198 1.384 1_556 S
C200 C201 1.381 1_556 S
C200 H221 0.930 . S
C201 C200 1.381 1_554 S
C201 C203 1.381 . S
C201 C204 1.487 1_554 S
C202 C199 1.382 . S
C202 C203 1.387 . S
C202 H222 0.930 . S
C203 C201 1.381 . S
C203 C202 1.387 . S
C203 H223 0.931 . S
C204 C201 1.487 1_556 S
C204 C211 1.399 . S
C204 N229 1.343 1_556 S
C205 C206 1.384 . S
C205 C207 1.384 . S
C205 H224 0.931 . S
C206 C205 1.384 . S
C206 C209 1.382 . S
C207 C205 1.384 . S
C207 C208 1.381 . S
C207 H225 0.930 . S
C208 C207 1.381 . S
C208 C210 1.381 . S
C208 C211 1.487 . S
C209 C206 1.382 . S
C209 C210 1.387 . S
C209 H226 0.930 . S
C210 C208 1.381 . S
C210 C209 1.387 . S
C210 H227 0.931 . S
C211 C204 1.399 . S
C211 C208 1.487 . S
C211 N228 1.343 . S
H212 C184 0.931 . S
H213 C186 0.975 . S
H214 C188 0.930 . S
H215 C189 0.931 . S
H216 C191 0.931 . S
H217 C193 0.930 . S
H218 C195 0.930 . S
H219 C196 0.931 . S
H220 C198 0.931 1_556 S
H221 C200 0.930 . S
H222 C202 0.930 . S
H223 C203 0.931 . S
H224 C205 0.931 . S
H225 C207 0.930 . S
H226 C209 0.930 . S
H227 C210 0.931 . S
N228 C190 1.343 1_545 S
N228 C211 1.343 . S
N229 C197 1.343 1_545 S
N229 C204 1.343 1_554 S
C230 C231 1.384 . S
C230 C232 1.384 . S
C230 H258 0.931 . S
C231 C230 1.384 . S
C231 C234 1.382 . S
C232 C230 1.384 . S
C232 C233 1.381 . S
C232 H259 0.930 . S
C233 C232 1.381 . S
C233 C235 1.381 . S
C233 C236 1.487 . S
C234 C231 1.382 . S
C234 C235 1.387 . S
C234 H260 0.930 . S
C235 C233 1.381 . S
C235 C234 1.387 . S
C235 H261 0.931 . S
C236 C233 1.487 . S
C236 C243 1.399 . S
C236 N274 1.343 . S
C237 C238 1.384 . S
C237 C239 1.384 . S
C237 H262 0.931 . S
C238 C237 1.384 . S
C238 C241 1.382 . S
C239 C237 1.384 . S
C239 C240 1.381 . S
C239 H263 0.930 . S
C240 C239 1.381 . S
C240 C242 1.381 . S
C240 C243 1.487 . S
C241 C238 1.382 . S
C241 C242 1.387 . S
C241 H264 0.930 . S
C242 C240 1.381 . S
C242 C241 1.387 . S
C242 H265 0.931 . S
C243 C236 1.399 . S
C243 C240 1.487 . S
C243 N275 1.343 . S
C244 C245 1.384 . S
C244 C246 1.384 . S
C244 H266 0.931 . S
C245 C244 1.384 . S
C245 C248 1.382 . S
C246 C244 1.384 . S
C246 C247 1.381 . S
C246 H267 0.930 . S
C247 C246 1.381 . S
C247 C249 1.381 . S
C247 C250 1.487 . S
C248 C245 1.382 . S
C248 C249 1.387 . S
C248 H268 0.930 . S
C249 C247 1.381 . S
C249 C248 1.387 . S
C249 H269 0.931 . S
C250 C247 1.487 . S
C250 C257 1.399 . S
C250 N275 1.343 . S
C251 C252 1.384 . S
C251 C253 1.384 . S
C251 H270 0.931 . S
C252 C251 1.384 . S
C252 C255 1.382 . S
C253 C251 1.384 . S
C253 C254 1.381 . S
C253 H271 0.930 . S
C254 C253 1.381 . S
C254 C256 1.381 . S
C254 C257 1.487 . S
C255 C252 1.382 . S
C255 C256 1.387 . S
C255 H272 0.930 . S
C256 C254 1.381 . S
C256 C255 1.387 . S
C256 H273 0.931 . S
C257 C250 1.399 . S
C257 C254 1.487 . S
C257 N274 1.343 . S
H258 C230 0.931 . S
H259 C232 0.930 . S
H260 C234 0.930 . S
H261 C235 0.931 . S
H262 C237 0.931 . S
H263 C239 0.930 . S
H264 C241 0.930 . S
H265 C242 0.931 . S
H266 C244 0.931 . S
H267 C246 0.930 . S
H268 C248 0.930 . S
H269 C249 0.931 . S
H270 C251 0.931 . S
H271 C253 0.930 . S
H272 C255 0.930 . S
H273 C256 0.931 . S
N274 C236 1.343 . S
N274 C257 1.343 . S
N275 C243 1.343 . S
N275 C250 1.343 . S
C276 O277 1.160 . S
C276 O283 1.185 . S
O277 C276 1.160 . S
O278 Zn279 1.899 . S
O278 C286 1.284 . S
Zn279 O278 1.899 . S
Zn279 O280 2.032 . S
Zn279 O283 2.086 . S
Zn279 O288 1.977 . S
O280 Zn279 2.032 . S
O280 C284 1.278 . S
C281 O282 1.203 . S
C281 O288 1.267 . S
O282 C281 1.203 . S
O283 C276 1.185 . S
O283 Zn279 2.086 . S
C284 O280 1.278 . S
C284 O285 1.211 . S
O285 C284 1.211 . S
C286 O278 1.284 . S
C286 O287 1.273 . S
O287 C286 1.273 . S
O288 Zn279 1.977 . S
O288 C281 1.267 . S
C289 O290 1.160 . S
C289 O296 1.185 . S
O290 C289 1.160 . S
O291 Zn292 1.899 . S
O291 C299 1.284 . S
Zn292 O291 1.899 . S
Zn292 O293 2.032 . S
Zn292 O296 2.086 . S
Zn292 O301 1.977 . S
O293 Zn292 2.032 . S
O293 C297 1.278 . S
C294 O295 1.203 . S
C294 O301 1.267 . S
O295 C294 1.203 . S
O296 C289 1.185 . S
O296 Zn292 2.086 . S
C297 O293 1.278 . S
C297 O298 1.211 . S
O298 C297 1.211 . S
C299 O291 1.284 . S
C299 O300 1.273 . S
O300 C299 1.273 . S
O301 Zn292 1.977 . S
O301 C294 1.267 . S
C302 O303 1.160 . S
C302 O309 1.185 . S
O303 C302 1.160 . S
O304 Zn305 1.899 . S
O304 C312 1.284 . S
Zn305 O304 1.899 . S
Zn305 O306 2.032 . S
Zn305 O309 2.086 . S
Zn305 O314 1.977 . S
O306 Zn305 2.032 . S
O306 C310 1.278 . S
C307 O308 1.203 . S
C307 O314 1.267 . S
O308 C307 1.203 . S
O309 C302 1.185 . S
O309 Zn305 2.086 . S
C310 O306 1.278 . S
C310 O311 1.211 . S
O311 C310 1.211 . S
C312 O304 1.284 . S
C312 O313 1.273 . S
O313 C312 1.273 . S
O314 Zn305 1.977 . S
O314 C307 1.267 . S
C315 O316 1.160 . S
C315 O322 1.185 . S
O316 C315 1.160 . S
O317 Zn318 1.899 . S
O317 C325 1.284 . S
Zn318 O317 1.899 . S
Zn318 O319 2.032 . S
Zn318 O322 2.086 . S
Zn318 O327 1.977 . S
O319 Zn318 2.032 . S
O319 C323 1.278 . S
C320 O321 1.203 . S
C320 O327 1.267 . S
O321 C320 1.203 . S
O322 C315 1.185 . S
O322 Zn318 2.086 . S
C323 O319 1.278 . S
C323 O324 1.211 . S
O324 C323 1.211 . S
C325 O317 1.284 . S
C325 O326 1.273 . S
O326 C325 1.273 . S
O327 Zn318 1.977 . S
O327 C320 1.267 . S
C328 O329 1.160 . S
C328 O335 1.185 . S
O329 C328 1.160 . S
O330 Zn331 1.899 . S
O330 C338 1.284 . S
Zn331 O330 1.899 . S
Zn331 O332 2.032 . S
Zn331 O335 2.086 . S
Zn331 O340 1.977 . S
O332 Zn331 2.032 . S
O332 C336 1.278 . S
C333 O334 1.203 . S
C333 O340 1.267 . S
O334 C333 1.203 . S
O335 C328 1.185 . S
O335 Zn331 2.086 . S
C336 O332 1.278 . S
C336 O337 1.211 . S
O337 C336 1.211 . S
C338 O330 1.284 . S
C338 O339 1.273 . S
O339 C338 1.273 . S
O340 Zn331 1.977 . S
O340 C333 1.267 . S
C341 O342 1.160 . S
C341 O348 1.185 . S
O342 C341 1.160 . S
O343 Zn344 1.899 . S
O343 C351 1.284 . S
Zn344 O343 1.899 . S
Zn344 O345 2.032 . S
Zn344 O348 2.086 . S
Zn344 O353 1.977 . S
O345 Zn344 2.032 . S
O345 C349 1.278 . S
C346 O347 1.203 . S
C346 O353 1.267 . S
O347 C346 1.203 . S
O348 C341 1.185 . S
O348 Zn344 2.086 . S
C349 O345 1.278 . S
C349 O350 1.211 . S
O350 C349 1.211 . S
C351 O343 1.284 . S
C351 O352 1.273 . S
O352 C351 1.273 . S
O353 Zn344 1.977 . S
O353 C346 1.267 . S
C354 C355 1.349 . S
C354 C356 1.327 . S
C354 H379 0.950 . S
C355 C354 1.349 . S
C355 C371 1.349 . S
C356 C354 1.327 . S
C356 C375 1.429 . S
C356 H380 0.950 . S
C357 C374 1.574 . S
C357 C376 1.368 . S
C357 H381 0.949 . S
H358 C362 0.949 . S
C359 C360 1.349 . S
C359 C361 1.327 . S
C359 H382 0.950 . S
C360 C359 1.349 . S
C360 C372 1.349 . S
C361 C359 1.327 . S
C361 C377 1.429 . S
C361 H383 0.950 . S
C362 H358 0.949 . S
C362 C370 1.574 . S
C362 C378 1.368 . S
H363 C371 0.950 . S
H364 C369 0.950 . S
H365 C370 0.949 . S
H366 C372 0.950 . S
H367 C373 0.950 . S
H368 C374 0.949 . S
C369 H364 0.950 . S
C369 C371 1.327 . S
C369 C375 1.429 . S
C370 C362 1.574 . S
C370 H365 0.949 . S
C370 C376 1.368 . S
C371 C355 1.349 . S
C371 H363 0.950 . S
C371 C369 1.327 . S
C372 C360 1.349 . S
C372 H366 0.950 . S
C372 C373 1.327 . S
C373 H367 0.950 . S
C373 C372 1.327 . S
C373 C377 1.429 . S
C374 C357 1.574 . S
C374 H368 0.949 . S
C374 C378 1.368 . S
C375 C356 1.429 . S
C375 C369 1.429 . S
C375 C376 1.523 . S
C376 C357 1.368 . S
C376 C370 1.368 . S
C376 C375 1.523 . S
C377 C361 1.429 . S
C377 C373 1.429 . S
C377 C378 1.523 . S
C378 C362 1.368 . S
C378 C374 1.368 . S
C378 C377 1.523 . S
H379 C354 0.950 . S
H380 C356 0.950 . S
H381 C357 0.949 . S
H382 C359 0.950 . S
H383 C361 0.950 . S
C384 C385 1.349 . S
C384 C386 1.327 . S
C384 H409 0.950 . S
C385 C384 1.349 . S
C385 C401 1.349 . S
C386 C384 1.327 . S
C386 C405 1.429 . S
C386 H410 0.950 . S
C387 C404 1.574 . S
C387 C406 1.368 . S
C387 H411 0.949 . S
H388 C392 0.949 . S
C389 C390 1.349 . S
C389 C391 1.327 . S
C389 H412 0.950 . S
C390 C389 1.349 . S
C390 C402 1.349 . S
C391 C389 1.327 . S
C391 C407 1.429 . S
C391 H413 0.950 . S
C392 H388 0.949 . S
C392 C400 1.574 . S
C392 C408 1.368 . S
H393 C401 0.950 . S
H394 C399 0.950 . S
H395 C400 0.949 . S
H396 C402 0.950 . S
H397 C403 0.950 . S
H398 C404 0.949 . S
C399 H394 0.950 . S
C399 C401 1.327 . S
C399 C405 1.429 . S
C400 C392 1.574 . S
C400 H395 0.949 . S
C400 C406 1.368 . S
C401 C385 1.349 . S
C401 H393 0.950 . S
C401 C399 1.327 . S
C402 C390 1.349 . S
C402 H396 0.950 . S
C402 C403 1.327 . S
C403 H397 0.950 . S
C403 C402 1.327 . S
C403 C407 1.429 . S
C404 C387 1.574 . S
C404 H398 0.949 . S
C404 C408 1.368 . S
C405 C386 1.429 . S
C405 C399 1.429 . S
C405 C406 1.523 . S
C406 C387 1.368 . S
C406 C400 1.368 . S
C406 C405 1.523 . S
C407 C391 1.429 . S
C407 C403 1.429 . S
C407 C408 1.523 . S
C408 C392 1.368 . S
C408 C404 1.368 . S
C408 C407 1.523 . S
H409 C384 0.950 . S
H410 C386 0.950 . S
H411 C387 0.949 . S
H412 C389 0.950 . S
H413 C391 0.950 . S
C414 C415 1.349 . S
C414 C416 1.327 . S
C414 H439 0.950 . S
C415 C414 1.349 . S
C415 C431 1.349 . S
C416 C414 1.327 . S
C416 C435 1.429 . S
C416 H440 0.950 . S
C417 C434 1.574 . S
C417 C436 1.368 . S
C417 H441 0.949 . S
H418 C422 0.949 . S
C419 C420 1.349 . S
C419 C421 1.327 . S
C419 H442 0.950 . S
C420 C419 1.349 . S
C420 C432 1.349 . S
C421 C419 1.327 . S
C421 C437 1.429 . S
C421 H443 0.950 . S
C422 H418 0.949 . S
C422 C430 1.574 . S
C422 C438 1.368 . S
H423 C431 0.950 . S
H424 C429 0.950 . S
H425 C430 0.949 . S
H426 C432 0.950 . S
H427 C433 0.950 . S
H428 C434 0.949 . S
C429 H424 0.950 . S
C429 C431 1.327 . S
C429 C435 1.429 . S
C430 C422 1.574 . S
C430 H425 0.949 . S
C430 C436 1.368 . S
C431 C415 1.349 . S
C431 H423 0.950 . S
C431 C429 1.327 . S
C432 C420 1.349 . S
C432 H426 0.950 . S
C432 C433 1.327 . S
C433 H427 0.950 . S
C433 C432 1.327 . S
C433 C437 1.429 . S
C434 C417 1.574 . S
C434 H428 0.949 . S
C434 C438 1.368 . S
C435 C416 1.429 . S
C435 C429 1.429 . S
C435 C436 1.523 . S
C436 C417 1.368 . S
C436 C430 1.368 . S
C436 C435 1.523 . S
C437 C421 1.429 . S
C437 C433 1.429 . S
C437 C438 1.523 . S
C438 C422 1.368 . S
C438 C434 1.368 . S
C438 C437 1.523 . S
H439 C414 0.950 . S
H440 C416 0.950 . S
H441 C417 0.949 . S
H442 C419 0.950 . S
H443 C421 0.950 . S
C444 C445 1.349 . S
C444 C446 1.327 . S
C444 H469 0.950 . S
C445 C444 1.349 . S
C445 C461 1.349 . S
C446 C444 1.327 . S
C446 C465 1.429 . S
C446 H470 0.950 . S
C447 C464 1.574 . S
C447 C466 1.368 . S
C447 H471 0.949 . S
H448 C452 0.949 . S
C449 C450 1.349 . S
C449 C451 1.327 . S
C449 H472 0.950 . S
C450 C449 1.349 . S
C450 C462 1.349 . S
C451 C449 1.327 . S
C451 C467 1.429 . S
C451 H473 0.950 . S
C452 H448 0.949 . S
C452 C460 1.574 . S
C452 C468 1.368 . S
H453 C461 0.950 . S
H454 C459 0.950 . S
H455 C460 0.949 . S
H456 C462 0.950 . S
H457 C463 0.950 . S
H458 C464 0.949 . S
C459 H454 0.950 . S
C459 C461 1.327 . S
C459 C465 1.429 . S
C460 C452 1.574 . S
C460 H455 0.949 . S
C460 C466 1.368 . S
C461 C445 1.349 . S
C461 H453 0.950 . S
C461 C459 1.327 . S
C462 C450 1.349 . S
C462 H456 0.950 . S
C462 C463 1.327 . S
C463 H457 0.950 . S
C463 C462 1.327 . S
C463 C467 1.429 . S
C464 C447 1.574 . S
C464 H458 0.949 . S
C464 C468 1.368 . S
C465 C446 1.429 . S
C465 C459 1.429 . S
C465 C466 1.523 . S
C466 C447 1.368 . S
C466 C460 1.368 . S
C466 C465 1.523 . S
C467 C451 1.429 . S
C467 C463 1.429 . S
C467 C468 1.523 . S
C468 C452 1.368 . S
C468 C464 1.368 . S
C468 C467 1.523 . S
H469 C444 0.950 . S
H470 C446 0.950 . S
H471 C447 0.949 . S
H472 C449 0.950 . S
H473 C451 0.950 . S
C474 C475 1.349 . S
C474 C476 1.327 . S
C474 H499 0.950 . S
C475 C474 1.349 . S
C475 C491 1.349 . S
C476 C474 1.327 . S
C476 C495 1.429 . S
C476 H500 0.950 . S
C477 C494 1.574 . S
C477 C496 1.368 . S
C477 H501 0.949 . S
H478 C482 0.949 . S
C479 C480 1.349 . S
C479 C481 1.327 . S
C479 H502 0.950 . S
C480 C479 1.349 . S
C480 C492 1.349 . S
C481 C479 1.327 . S
C481 C497 1.429 . S
C481 H503 0.950 . S
C482 H478 0.949 . S
C482 C490 1.574 . S
C482 C498 1.368 . S
H483 C491 0.950 . S
H484 C489 0.950 . S
H485 C490 0.949 . S
H486 C492 0.950 . S
H487 C493 0.950 . S
H488 C494 0.949 . S
C489 H484 0.950 . S
C489 C491 1.327 . S
C489 C495 1.429 . S
C490 C482 1.574 . S
C490 H485 0.949 . S
C490 C496 1.368 . S
C491 C475 1.349 . S
C491 H483 0.950 . S
C491 C489 1.327 . S
C492 C480 1.349 . S
C492 H486 0.950 . S
C492 C493 1.327 . S
C493 H487 0.950 . S
C493 C492 1.327 . S
C493 C497 1.429 . S
C494 C477 1.574 . S
C494 H488 0.949 . S
C494 C498 1.368 . S
C495 C476 1.429 . S
C495 C489 1.429 . S
C495 C496 1.523 . S
C496 C477 1.368 . S
C496 C490 1.368 . S
C496 C495 1.523 . S
C497 C481 1.429 . S
C497 C493 1.429 . S
C497 C498 1.523 . S
C498 C482 1.368 . S
C498 C494 1.368 . S
C498 C497 1.523 . S
H499 C474 0.950 . S
H500 C476 0.950 . S
H501 C477 0.949 . S
H502 C479 0.950 . S
H503 C481 0.950 . S
C504 C505 1.349 . S
C504 C506 1.327 . S
C504 H529 0.950 . S
C505 C504 1.349 . S
C505 C521 1.349 . S
C506 C504 1.327 . S
C506 C525 1.429 . S
C506 H530 0.950 . S
C507 C524 1.574 . S
C507 C526 1.368 . S
C507 H531 0.949 . S
H508 C512 0.949 . S
C509 C510 1.349 . S
C509 C511 1.327 . S
C509 H532 0.950 . S
C510 C509 1.349 . S
C510 C522 1.349 . S
C511 C509 1.327 . S
C511 C527 1.429 . S
C511 H533 0.950 . S
C512 H508 0.949 . S
C512 C520 1.574 . S
C512 C528 1.368 . S
H513 C521 0.950 . S
H514 C519 0.950 . S
H515 C520 0.949 . S
H516 C522 0.950 . S
H517 C523 0.950 . S
H518 C524 0.949 . S
C519 H514 0.950 . S
C519 C521 1.327 . S
C519 C525 1.429 . S
C520 C512 1.574 . S
C520 H515 0.949 . S
C520 C526 1.368 . S
C521 C505 1.349 . S
C521 H513 0.950 . S
C521 C519 1.327 . S
C522 C510 1.349 . S
C522 H516 0.950 . S
C522 C523 1.327 . S
C523 H517 0.950 . S
C523 C522 1.327 . S
C523 C527 1.429 . S
C524 C507 1.574 . S
C524 H518 0.949 . S
C524 C528 1.368 . S
C525 C506 1.429 . S
C525 C519 1.429 . S
C525 C526 1.523 . S
C526 C507 1.368 . S
C526 C520 1.368 . S
C526 C525 1.523 . S
C527 C511 1.429 . S
C527 C523 1.429 . S
C527 C528 1.523 . S
C528 C512 1.368 . S
C528 C524 1.368 . S
C528 C527 1.523 . S
H529 C504 0.950 . S
H530 C506 0.950 . S
H531 C507 0.949 . S
H532 C509 0.950 . S
H533 C511 0.950 . S
C534 C535 1.349 . S
C534 C536 1.327 . S
C534 H559 0.950 . S
C535 C534 1.349 . S
C535 C551 1.349 . S
C536 C534 1.327 . S
C536 C555 1.429 . S
C536 H560 0.950 . S
C537 C554 1.574 . S
C537 C556 1.368 . S
C537 H561 0.949 . S
H538 C542 0.949 . S
C539 C540 1.349 . S
C539 C541 1.327 . S
C539 H562 0.950 . S
C540 C539 1.349 . S
C540 C552 1.349 . S
C541 C539 1.327 . S
C541 C557 1.429 . S
C541 H563 0.950 . S
C542 H538 0.949 . S
C542 C550 1.574 . S
C542 C558 1.368 . S
H543 C551 0.950 . S
H544 C549 0.950 . S
H545 C550 0.949 . S
H546 C552 0.950 . S
H547 C553 0.950 . S
H548 C554 0.949 . S
C549 H544 0.950 . S
C549 C551 1.327 . S
C549 C555 1.429 . S
C550 C542 1.574 . S
C550 H545 0.949 . S
C550 C556 1.368 . S
C551 C535 1.349 . S
C551 H543 0.950 . S
C551 C549 1.327 . S
C552 C540 1.349 . S
C552 H546 0.950 . S
C552 C553 1.327 . S
C553 H547 0.950 . S
C553 C552 1.327 . S
C553 C557 1.429 . S
C554 C537 1.574 . S
C554 H548 0.949 . S
C554 C558 1.368 . S
C555 C536 1.429 . S
C555 C549 1.429 . S
C555 C556 1.523 . S
C556 C537 1.368 . S
C556 C550 1.368 . S
C556 C555 1.523 . S
C557 C541 1.429 . S
C557 C553 1.429 . S
C557 C558 1.523 . S
C558 C542 1.368 . S
C558 C554 1.368 . S
C558 C557 1.523 . S
H559 C534 0.950 . S
H560 C536 0.950 . S
H561 C537 0.949 . S
H562 C539 0.950 . S
H563 C541 0.950 . S
C564 C565 1.349 . S
C564 C566 1.327 . S
C564 H589 0.950 . S
C565 C564 1.349 . S
C565 C581 1.349 . S
C566 C564 1.327 . S
C566 C585 1.429 . S
C566 H590 0.950 . S
C567 C584 1.574 . S
C567 C586 1.368 . S
C567 H591 0.949 . S
H568 C572 0.949 . S
C569 C570 1.349 . S
C569 C571 1.327 . S
C569 H592 0.950 . S
C570 C569 1.349 . S
C570 C582 1.349 . S
C571 C569 1.327 . S
C571 C587 1.429 . S
C571 H593 0.950 . S
C572 H568 0.949 . S
C572 C580 1.574 . S
C572 C588 1.368 . S
H573 C581 0.950 . S
H574 C579 0.950 . S
H575 C580 0.949 . S
H576 C582 0.950 . S
H577 C583 0.950 . S
H578 C584 0.949 . S
C579 H574 0.950 . S
C579 C581 1.327 . S
C579 C585 1.429 . S
C580 C572 1.574 . S
C580 H575 0.949 . S
C580 C586 1.368 . S
C581 C565 1.349 . S
C581 H573 0.950 . S
C581 C579 1.327 . S
C582 C570 1.349 . S
C582 H576 0.950 . S
C582 C583 1.327 . S
C583 H577 0.950 . S
C583 C582 1.327 . S
C583 C587 1.429 . S
C584 C567 1.574 . S
C584 H578 0.949 . S
C584 C588 1.368 . S
C585 C566 1.429 . S
C585 C579 1.429 . S
C585 C586 1.523 . S
C586 C567 1.368 . S
C586 C580 1.368 . S
C586 C585 1.523 . S
C587 C571 1.429 . S
C587 C583 1.429 . S
C587 C588 1.523 . S
C588 C572 1.368 . S
C588 C584 1.368 . S
C588 C587 1.523 . S
H589 C564 0.950 . S
H590 C566 0.950 . S
H591 C567 0.949 . S
H592 C569 0.950 . S
H593 C571 0.950 . S
C594 C595 1.349 . S
C594 C596 1.327 . S
C594 H619 0.950 . S
C595 C594 1.349 . S
C595 C611 1.349 . S
C596 C594 1.327 . S
C596 C615 1.429 . S
C596 H620 0.950 . S
C597 C614 1.574 . S
C597 C616 1.368 . S
C597 H621 0.949 . S
H598 C602 0.949 . S
C599 C600 1.349 . S
C599 C601 1.327 . S
C599 H622 0.950 . S
C600 C599 1.349 . S
C600 C612 1.349 . S
C601 C599 1.327 . S
C601 C617 1.429 . S
C601 H623 0.950 . S
C602 H598 0.949 . S
C602 C610 1.574 . S
C602 C618 1.368 . S
H603 C611 0.950 . S
H604 C609 0.950 . S
H605 C610 0.949 . S
H606 C612 0.950 . S
H607 C613 0.950 . S
H608 C614 0.949 . S
C609 H604 0.950 . S
C609 C611 1.327 . S
C609 C615 1.429 . S
C610 C602 1.574 . S
C610 H605 0.949 . S
C610 C616 1.368 . S
C611 C595 1.349 . S
C611 H603 0.950 . S
C611 C609 1.327 . S
C612 C600 1.349 . S
C612 H606 0.950 . S
C612 C613 1.327 . S
C613 H607 0.950 . S
C613 C612 1.327 . S
C613 C617 1.429 . S
C614 C597 1.574 . S
C614 H608 0.949 . S
C614 C618 1.368 . S
C615 C596 1.429 . S
C615 C609 1.429 . S
C615 C616 1.523 . S
C616 C597 1.368 . S
C616 C610 1.368 . S
C616 C615 1.523 . S
C617 C601 1.429 . S
C617 C613 1.429 . S
C617 C618 1.523 . S
C618 C602 1.368 . S
C618 C614 1.368 . S
C618 C617 1.523 . S
H619 C594 0.950 . S
H620 C596 0.950 . S
H621 C597 0.949 . S
H622 C599 0.950 . S
H623 C601 0.950 . S
C624 C625 1.349 . S
C624 C626 1.327 . S
C624 H649 0.950 . S
C625 C624 1.349 . S
C625 C641 1.349 . S
C626 C624 1.327 . S
C626 C645 1.429 . S
C626 H650 0.950 . S
C627 C644 1.574 . S
C627 C646 1.368 . S
C627 H651 0.949 . S
H628 C632 0.949 . S
C629 C630 1.349 . S
C629 C631 1.327 . S
C629 H652 0.950 . S
C630 C629 1.349 . S
C630 C642 1.349 . S
C631 C629 1.327 . S
C631 C647 1.429 . S
C631 H653 0.950 . S
C632 H628 0.949 . S
C632 C640 1.574 . S
C632 C648 1.368 . S
H633 C641 0.950 . S
H634 C639 0.950 . S
H635 C640 0.949 . S
H636 C642 0.950 . S
H637 C643 0.950 . S
H638 C644 0.949 . S
C639 H634 0.950 . S
C639 C641 1.327 . S
C639 C645 1.429 . S
C640 C632 1.574 . S
C640 H635 0.949 . S
C640 C646 1.368 . S
C641 C625 1.349 . S
C641 H633 0.950 . S
C641 C639 1.327 . S
C642 C630 1.349 . S
C642 H636 0.950 . S
C642 C643 1.327 . S
C643 H637 0.950 . S
C643 C642 1.327 . S
C643 C647 1.429 . S
C644 C627 1.574 . S
C644 H638 0.949 . S
C644 C648 1.368 . S
C645 C626 1.429 . S
C645 C639 1.429 . S
C645 C646 1.523 . S
C646 C627 1.368 . S
C646 C640 1.368 . S
C646 C645 1.523 . S
C647 C631 1.429 . S
C647 C643 1.429 . S
C647 C648 1.523 . S
C648 C632 1.368 . S
C648 C644 1.368 . S
C648 C647 1.523 . S
H649 C624 0.950 . S
H650 C626 0.950 . S
H651 C627 0.949 . S
H652 C629 0.950 . S
H653 C631 0.950 . S
C654 C655 1.349 . S
C654 C656 1.327 . S
C654 H679 0.950 . S
C655 C654 1.349 . S
C655 C671 1.349 . S
C656 C654 1.327 . S
C656 C675 1.429 . S
C656 H680 0.950 . S
C657 C674 1.574 . S
C657 C676 1.368 . S
C657 H681 0.949 . S
H658 C662 0.949 . S
C659 C660 1.349 . S
C659 C661 1.327 . S
C659 H682 0.950 . S
C660 C659 1.349 . S
C660 C672 1.349 . S
C661 C659 1.327 . S
C661 C677 1.429 . S
C661 H683 0.950 . S
C662 H658 0.949 . S
C662 C670 1.574 . S
C662 C678 1.368 . S
H663 C671 0.950 . S
H664 C669 0.950 . S
H665 C670 0.949 . S
H666 C672 0.950 . S
H667 C673 0.950 . S
H668 C674 0.949 . S
C669 H664 0.950 . S
C669 C671 1.327 . S
C669 C675 1.429 . S
C670 C662 1.574 . S
C670 H665 0.949 . S
C670 C676 1.368 . S
C671 C655 1.349 . S
C671 H663 0.950 . S
C671 C669 1.327 . S
C672 C660 1.349 . S
C672 H666 0.950 . S
C672 C673 1.327 . S
C673 H667 0.950 . S
C673 C672 1.327 . S
C673 C677 1.429 . S
C674 C657 1.574 . S
C674 H668 0.949 . S
C674 C678 1.368 . S
C675 C656 1.429 . S
C675 C669 1.429 . S
C675 C676 1.523 . S
C676 C657 1.368 . S
C676 C670 1.368 . S
C676 C675 1.523 . S
C677 C661 1.429 . S
C677 C673 1.429 . S
C677 C678 1.523 . S
C678 C662 1.368 . S
C678 C674 1.368 . S
C678 C677 1.523 . S
H679 C654 0.950 . S
H680 C656 0.950 . S
H681 C657 0.949 . S
H682 C659 0.950 . S
H683 C661 0.950 . S
C684 C685 1.349 . S
C684 C686 1.327 . S
C684 H709 0.950 . S
C685 C684 1.349 . S
C685 C701 1.349 . S
C686 C684 1.327 . S
C686 C705 1.429 . S
C686 H710 0.950 . S
C687 C704 1.574 . S
C687 C706 1.368 . S
C687 H711 0.949 . S
H688 C692 0.949 . S
C689 C690 1.349 . S
C689 C691 1.327 . S
C689 H712 0.950 . S
C690 C689 1.349 . S
C690 C702 1.349 . S
C691 C689 1.327 . S
C691 C707 1.429 . S
C691 H713 0.950 . S
C692 H688 0.949 . S
C692 C700 1.574 . S
C692 C708 1.368 . S
H693 C701 0.950 . S
H694 C699 0.950 . S
H695 C700 0.949 . S
H696 C702 0.950 . S
H697 C703 0.950 . S
H698 C704 0.949 . S
C699 H694 0.950 . S
C699 C701 1.327 . S
C699 C705 1.429 . S
C700 C692 1.574 . S
C700 H695 0.949 . S
C700 C706 1.368 . S
C701 C685 1.349 . S
C701 H693 0.950 . S
C701 C699 1.327 . S
C702 C690 1.349 . S
C702 H696 0.950 . S
C702 C703 1.327 . S
C703 H697 0.950 . S
C703 C702 1.327 . S
C703 C707 1.429 . S
C704 C687 1.574 . S
C704 H698 0.949 . S
C704 C708 1.368 . S
C705 C686 1.429 . S
C705 C699 1.429 . S
C705 C706 1.523 . S
C706 C687 1.368 . S
C706 C700 1.368 . S
C706 C705 1.523 . S
C707 C691 1.429 . S
C707 C703 1.429 . S
C707 C708 1.523 . S
C708 C692 1.368 . S
C708 C704 1.368 . S
C708 C707 1.523 . S
H709 C684 0.950 . S
H710 C686 0.950 . S
H711 C687 0.949 . S
H712 C689 0.950 . S
H713 C691 0.950 . S
C714 C715 1.349 . S
C714 C716 1.327 . S
C714 H739 0.950 . S
C715 C714 1.349 . S
C715 C731 1.349 . S
C716 C714 1.327 . S
C716 C735 1.429 . S
C716 H740 0.950 . S
C717 C734 1.574 . S
C717 C736 1.368 . S
C717 H741 0.949 . S
H718 C722 0.949 . S
C719 C720 1.349 . S
C719 C721 1.327 . S
C719 H742 0.950 . S
C720 C719 1.349 . S
C720 C732 1.349 . S
C721 C719 1.327 . S
C721 C737 1.429 . S
C721 H743 0.950 . S
C722 H718 0.949 . S
C722 C730 1.574 . S
C722 C738 1.368 . S
H723 C731 0.950 . S
H724 C729 0.950 . S
H725 C730 0.949 . S
H726 C732 0.950 . S
H727 C733 0.950 . S
H728 C734 0.949 . S
C729 H724 0.950 . S
C729 C731 1.327 . S
C729 C735 1.429 . S
C730 C722 1.574 . S
C730 H725 0.949 . S
C730 C736 1.368 . S
C731 C715 1.349 . S
C731 H723 0.950 . S
C731 C729 1.327 . S
C732 C720 1.349 . S
C732 H726 0.950 . S
C732 C733 1.327 . S
C733 H727 0.950 . S
C733 C732 1.327 . S
C733 C737 1.429 . S
C734 C717 1.574 . S
C734 H728 0.949 . S
C734 C738 1.368 . S
C735 C716 1.429 . S
C735 C729 1.429 . S
C735 C736 1.523 . S
C736 C717 1.368 . S
C736 C730 1.368 . S
C736 C735 1.523 . S
C737 C721 1.429 . S
C737 C733 1.429 . S
C737 C738 1.523 . S
C738 C722 1.368 . S
C738 C734 1.368 . S
C738 C737 1.523 . S
H739 C714 0.950 . S
H740 C716 0.950 . S
H741 C717 0.949 . S
H742 C719 0.950 . S
H743 C721 0.950 . S
C744 C745 1.349 . S
C744 C746 1.327 . S
C744 H769 0.950 . S
C745 C744 1.349 . S
C745 C761 1.349 . S
C746 C744 1.327 . S
C746 C765 1.429 . S
C746 H770 0.950 . S
C747 C764 1.574 . S
C747 C766 1.368 . S
C747 H771 0.949 . S
H748 C752 0.949 . S
C749 C750 1.349 . S
C749 C751 1.327 . S
C749 H772 0.950 . S
C750 C749 1.349 . S
C750 C762 1.349 . S
C751 C749 1.327 . S
C751 C767 1.429 . S
C751 H773 0.950 . S
C752 H748 0.949 . S
C752 C760 1.574 . S
C752 C768 1.368 . S
H753 C761 0.950 . S
H754 C759 0.950 . S
H755 C760 0.949 . S
H756 C762 0.950 . S
H757 C763 0.950 . S
H758 C764 0.949 . S
C759 H754 0.950 . S
C759 C761 1.327 . S
C759 C765 1.429 . S
C760 C752 1.574 . S
C760 H755 0.949 . S
C760 C766 1.368 . S
C761 C745 1.349 . S
C761 H753 0.950 . S
C761 C759 1.327 . S
C762 C750 1.349 . S
C762 H756 0.950 . S
C762 C763 1.327 . S
C763 H757 0.950 . S
C763 C762 1.327 . S
C763 C767 1.429 . S
C764 C747 1.574 . S
C764 H758 0.949 . S
C764 C768 1.368 . S
C765 C746 1.429 . S
C765 C759 1.429 . S
C765 C766 1.523 . S
C766 C747 1.368 . S
C766 C760 1.368 . S
C766 C765 1.523 . S
C767 C751 1.429 . S
C767 C763 1.429 . S
C767 C768 1.523 . S
C768 C752 1.368 . S
C768 C764 1.368 . S
C768 C767 1.523 . S
H769 C744 0.950 . S
H770 C746 0.950 . S
H771 C747 0.949 . S
H772 C749 0.950 . S
H773 C751 0.950 . S
C774 C775 1.349 . S
C774 C776 1.327 . S
C774 H799 0.950 . S
C775 C774 1.349 . S
C775 C791 1.349 . S
C776 C774 1.327 . S
C776 C795 1.429 . S
C776 H800 0.950 . S
C777 C794 1.574 . S
C777 C796 1.368 . S
C777 H801 0.949 . S
H778 C782 0.949 . S
C779 C780 1.349 . S
C779 C781 1.327 . S
C779 H802 0.950 . S
C780 C779 1.349 . S
C780 C792 1.349 . S
C781 C779 1.327 . S
C781 C797 1.429 . S
C781 H803 0.950 . S
C782 H778 0.949 . S
C782 C790 1.574 . S
C782 C798 1.368 . S
H783 C791 0.950 . S
H784 C789 0.950 . S
H785 C790 0.949 . S
H786 C792 0.950 . S
H787 C793 0.950 . S
H788 C794 0.949 . S
C789 H784 0.950 . S
C789 C791 1.327 . S
C789 C795 1.429 . S
C790 C782 1.574 . S
C790 H785 0.949 . S
C790 C796 1.368 . S
C791 C775 1.349 . S
C791 H783 0.950 . S
C791 C789 1.327 . S
C792 C780 1.349 . S
C792 H786 0.950 . S
C792 C793 1.327 . S
C793 H787 0.950 . S
C793 C792 1.327 . S
C793 C797 1.429 . S
C794 C777 1.574 . S
C794 H788 0.949 . S
C794 C798 1.368 . S
C795 C776 1.429 . S
C795 C789 1.429 . S
C795 C796 1.523 . S
C796 C777 1.368 . S
C796 C790 1.368 . S
C796 C795 1.523 . S
C797 C781 1.429 . S
C797 C793 1.429 . S
C797 C798 1.523 . S
C798 C782 1.368 . S
C798 C794 1.368 . S
C798 C797 1.523 . S
H799 C774 0.950 . S
H800 C776 0.950 . S
H801 C777 0.949 . S
H802 C779 0.950 . S
H803 C781 0.950 . S
C804 C805 1.349 . S
C804 C806 1.327 . S
C804 H829 0.950 . S
C805 C804 1.349 . S
C805 C821 1.349 . S
C806 C804 1.327 . S
C806 C825 1.429 . S
C806 H830 0.950 . S
C807 C824 1.574 . S
C807 C826 1.368 . S
C807 H831 0.949 . S
H808 C812 0.949 . S
C809 C810 1.349 . S
C809 C811 1.310 1_554 S
C809 H832 0.950 . S
C810 C809 1.349 . S
C810 C822 1.349 . S
C811 C809 1.310 1_556 S
C811 C827 1.435 . S
C811 H833 0.961 . S
C812 H808 0.949 . S
C812 C820 1.574 . S
C812 C828 1.368 . S
H813 C821 0.950 . S
H814 C819 0.950 . S
H815 C820 0.949 . S
H816 C822 0.950 . S
H817 C823 0.950 . S
H818 C824 0.949 . S
C819 H814 0.950 . S
C819 C821 1.327 . S
C819 C825 1.429 . S
C820 C812 1.574 . S
C820 H815 0.949 . S
C820 C826 1.368 . S
C821 C805 1.349 . S
C821 H813 0.950 . S
C821 C819 1.327 . S
C822 C810 1.349 . S
C822 H816 0.950 . S
C822 C823 1.327 . S
C823 H817 0.950 . S
C823 C822 1.327 . S
C823 C827 1.429 1_554 S
C824 C807 1.574 . S
C824 H818 0.949 . S
C824 C828 1.368 . S
C825 C806 1.429 . S
C825 C819 1.429 . S
C825 C826 1.523 . S
C826 C807 1.368 . S
C826 C820 1.368 . S
C826 C825 1.523 . S
C827 C811 1.435 . S
C827 C823 1.429 1_556 S
C827 C828 1.523 . S
C828 C812 1.368 . S
C828 C824 1.368 . S
C828 C827 1.523 . S
H829 C804 0.950 . S
H830 C806 0.950 . S
H831 C807 0.949 . S
H832 C809 0.950 . S
H833 C811 0.961 . S
C834 C835 1.349 . S
C834 C836 1.327 . S
C834 H859 0.950 . S
C835 C834 1.349 . S
C835 C851 1.349 . S
C836 C834 1.327 . S
C836 C855 1.429 . S
C836 H860 0.950 . S
C837 C854 1.574 . S
C837 C856 1.368 . S
C837 H861 0.949 . S
H838 C842 0.949 . S
C839 C840 1.349 . S
C839 C841 1.327 . S
C839 H862 0.950 . S
C840 C839 1.349 . S
C840 C852 1.349 . S
C841 C839 1.327 . S
C841 C857 1.429 . S
C841 H863 0.950 . S
C842 H838 0.949 . S
C842 C850 1.574 . S
C842 C858 1.368 . S
H843 C851 0.950 . S
H844 C849 0.950 . S
H845 C850 0.949 . S
H846 C852 0.950 . S
H847 C853 0.950 . S
H848 C854 0.949 . S
C849 H844 0.950 . S
C849 C851 1.327 . S
C849 C855 1.429 . S
C850 C842 1.574 . S
C850 H845 0.949 . S
C850 C856 1.368 . S
C851 C835 1.349 . S
C851 H843 0.950 . S
C851 C849 1.327 . S
C852 C840 1.349 . S
C852 H846 0.950 . S
C852 C853 1.327 . S
C853 H847 0.950 . S
C853 C852 1.327 . S
C853 C857 1.429 . S
C854 C837 1.574 . S
C854 H848 0.949 . S
C854 C858 1.368 . S
C855 C836 1.429 . S
C855 C849 1.429 . S
C855 C856 1.523 . S
C856 C837 1.368 . S
C856 C850 1.368 . S
C856 C855 1.523 . S
C857 C841 1.429 . S
C857 C853 1.429 . S
C857 C858 1.523 . S
C858 C842 1.368 . S
C858 C854 1.368 . S
C858 C857 1.523 . S
H859 C834 0.950 . S
H860 C836 0.950 . S
H861 C837 0.949 . S
H862 C839 0.950 . S
H863 C841 0.950 . S
C864 C865 1.349 . S
C864 C866 1.327 . S
C864 H889 0.950 . S
C865 C864 1.349 . S
C865 C881 1.349 . S
C866 C864 1.327 . S
C866 C885 1.429 . S
C866 H890 0.950 . S
C867 C884 1.574 . S
C867 C886 1.368 . S
C867 H891 0.949 . S
H868 C872 0.949 . S
C869 C870 1.349 . S
C869 C871 1.327 . S
C869 H892 0.950 . S
C870 C869 1.349 . S
C870 C882 1.349 . S
C871 C869 1.327 . S
C871 C887 1.429 . S
C871 H893 0.950 . S
C872 H868 0.949 . S
C872 C880 1.574 . S
C872 C888 1.368 . S
H873 C881 0.950 . S
H874 C879 0.950 . S
H875 C880 0.949 . S
H876 C882 0.950 . S
H877 C883 0.950 . S
H878 C884 0.949 . S
C879 H874 0.950 . S
C879 C881 1.327 . S
C879 C885 1.429 . S
C880 C872 1.574 . S
C880 H875 0.949 . S
C880 C886 1.368 . S
C881 C865 1.349 . S
C881 H873 0.950 . S
C881 C879 1.327 . S
C882 C870 1.349 . S
C882 H876 0.950 . S
C882 C883 1.327 . S
C883 H877 0.950 . S
C883 C882 1.327 . S
C883 C887 1.429 . S
C884 C867 1.574 . S
C884 H878 0.949 . S
C884 C888 1.368 . S
C885 C866 1.429 . S
C885 C879 1.429 . S
C885 C886 1.523 . S
C886 C867 1.368 . S
C886 C880 1.368 . S
C886 C885 1.523 . S
C887 C871 1.429 . S
C887 C883 1.429 . S
C887 C888 1.523 . S
C888 C872 1.368 . S
C888 C884 1.368 . S
C888 C887 1.523 . S
H889 C864 0.950 . S
H890 C866 0.950 . S
H891 C867 0.949 . S
H892 C869 0.950 . S
H893 C871 0.950 . S
C894 C895 1.349 . S
C894 C896 1.327 . S
C894 H919 0.950 . S
C895 C894 1.349 . S
C895 C911 1.349 . S
C896 C894 1.327 . S
C896 C915 1.429 . S
C896 H920 0.950 . S
C897 C914 1.574 . S
C897 C916 1.368 . S
C897 H921 0.949 . S
H898 C902 0.949 . S
C899 C900 1.349 . S
C899 C901 1.327 . S
C899 H922 0.950 . S
C900 C899 1.349 . S
C900 C912 1.349 . S
C901 C899 1.327 . S
C901 C917 1.429 . S
C901 H923 0.950 . S
C902 H898 0.949 . S
C902 C910 1.574 . S
C902 C918 1.368 . S
H903 C911 0.950 . S
H904 C909 0.950 . S
H905 C910 0.949 . S
H906 C912 0.950 . S
H907 C913 0.950 . S
H908 C914 0.949 . S
C909 H904 0.950 . S
C909 C911 1.327 . S
C909 C915 1.429 . S
C910 C902 1.574 . S
C910 H905 0.949 . S
C910 C916 1.368 . S
C911 C895 1.349 . S
C911 H903 0.950 . S
C911 C909 1.327 . S
C912 C900 1.349 . S
C912 H906 0.950 . S
C912 C913 1.327 . S
C913 H907 0.950 . S
C913 C912 1.327 . S
C913 C917 1.429 . S
C914 C897 1.574 . S
C914 H908 0.949 . S
C914 C918 1.368 . S
C915 C896 1.429 . S
C915 C909 1.429 . S
C915 C916 1.523 . S
C916 C897 1.368 . S
C916 C910 1.368 . S
C916 C915 1.523 . S
C917 C901 1.429 . S
C917 C913 1.429 . S
C917 C918 1.523 . S
C918 C902 1.368 . S
C918 C914 1.368 . S
C918 C917 1.523 . S
H919 C894 0.950 . S
H920 C896 0.950 . S
H921 C897 0.949 . S
H922 C899 0.950 . S
H923 C901 0.950 . S
C924 C925 1.349 . S
C924 C926 1.327 . S
C924 H949 0.950 . S
C925 C924 1.349 . S
C925 C941 1.349 . S
C926 C924 1.327 . S
C926 C945 1.429 . S
C926 H950 0.950 . S
C927 C944 1.574 . S
C927 C946 1.368 . S
C927 H951 0.949 . S
H928 C932 0.949 . S
C929 C930 1.349 . S
C929 C931 1.327 . S
C929 H952 0.950 . S
C930 C929 1.349 . S
C930 C942 1.349 . S
C931 C929 1.327 . S
C931 C947 1.429 . S
C931 H953 0.950 . S
C932 H928 0.949 . S
C932 C940 1.574 . S
C932 C948 1.368 . S
H933 C941 0.950 . S
H934 C939 0.950 . S
H935 C940 0.949 . S
H936 C942 0.950 . S
H937 C943 0.950 . S
H938 C944 0.949 . S
C939 H934 0.950 . S
C939 C941 1.327 . S
C939 C945 1.429 . S
C940 C932 1.574 . S
C940 H935 0.949 . S
C940 C946 1.368 . S
C941 C925 1.349 . S
C941 H933 0.950 . S
C941 C939 1.327 . S
C942 C930 1.349 . S
C942 H936 0.950 . S
C942 C943 1.327 . S
C943 H937 0.950 . S
C943 C942 1.327 . S
C943 C947 1.429 . S
C944 C927 1.574 . S
C944 H938 0.949 . S
C944 C948 1.368 . S
C945 C926 1.429 . S
C945 C939 1.429 . S
C945 C946 1.523 . S
C946 C927 1.368 . S
C946 C940 1.368 . S
C946 C945 1.523 . S
C947 C931 1.429 . S
C947 C943 1.429 . S
C947 C948 1.523 . S
C948 C932 1.368 . S
C948 C944 1.368 . S
C948 C947 1.523 . S
H949 C924 0.950 . S
H950 C926 0.950 . S
H951 C927 0.949 . S
H952 C929 0.950 . S
H953 C931 0.950 . S
C954 C955 1.349 . S
C954 C956 1.327 . S
C954 H979 0.950 . S
C955 C954 1.349 . S
C955 C971 1.349 . S
C956 C954 1.327 . S
C956 C975 1.429 . S
C956 H980 0.950 . S
C957 C974 1.574 . S
C957 C976 1.368 . S
C957 H981 0.949 . S
H958 C962 0.949 . S
C959 C960 1.349 . S
C959 C961 1.327 . S
C959 H982 0.950 . S
C960 C959 1.349 . S
C960 C972 1.349 . S
C961 C959 1.327 . S
C961 C977 1.429 . S
C961 H983 0.950 . S
C962 H958 0.949 . S
C962 C970 1.574 . S
C962 C978 1.368 . S
H963 C971 0.950 . S
H964 C969 0.950 . S
H965 C970 0.949 . S
H966 C972 0.950 . S
H967 C973 0.950 . S
H968 C974 0.949 . S
C969 H964 0.950 . S
C969 C971 1.327 . S
C969 C975 1.429 . S
C970 C962 1.574 . S
C970 H965 0.949 . S
C970 C976 1.368 . S
C971 C955 1.349 . S
C971 H963 0.950 . S
C971 C969 1.327 . S
C972 C960 1.349 . S
C972 H966 0.950 . S
C972 C973 1.327 . S
C973 H967 0.950 . S
C973 C972 1.327 . S
C973 C977 1.429 . S
C974 C957 1.574 . S
C974 H968 0.949 . S
C974 C978 1.368 . S
C975 C956 1.429 . S
C975 C969 1.429 . S
C975 C976 1.523 . S
C976 C957 1.368 . S
C976 C970 1.368 . S
C976 C975 1.523 . S
C977 C961 1.429 . S
C977 C973 1.429 . S
C977 C978 1.523 . S
C978 C962 1.368 . S
C978 C974 1.368 . S
C978 C977 1.523 . S
H979 C954 0.950 . S
H980 C956 0.950 . S
H981 C957 0.949 . S
H982 C959 0.950 . S
H983 C961 0.950 . S
C984 C985 1.349 . S
C984 C986 1.327 . S
C984 H1009 0.950 . S
C985 C984 1.349 . S
C985 C1001 1.349 . S
C986 C984 1.327 . S
C986 C1005 1.429 . S
C986 H1010 0.950 . S
C987 C1004 1.574 . S
C987 C1006 1.368 . S
C987 H1011 0.949 . S
H988 C992 0.949 . S
C989 C990 1.349 . S
C989 C991 1.327 . S
C989 H1012 0.950 . S
C990 C989 1.349 . S
C990 C1002 1.349 . S
C991 C989 1.327 . S
C991 C1007 1.429 . S
C991 H1013 0.950 . S
C992 H988 0.949 . S
C992 C1000 1.574 . S
C992 C1008 1.368 . S
H993 C1001 0.950 . S
H994 C999 0.950 . S
H995 C1000 0.949 . S
H996 C1002 0.950 . S
H997 C1003 0.950 . S
H998 C1004 0.949 . S
C999 H994 0.950 . S
C999 C1001 1.327 . S
C999 C1005 1.429 . S
C1000 C992 1.574 . S
C1000 H995 0.949 . S
C1000 C1006 1.368 . S
C1001 C985 1.349 . S
C1001 H993 0.950 . S
C1001 C999 1.327 . S
C1002 C990 1.349 . S
C1002 H996 0.950 . S
C1002 C1003 1.327 . S
C1003 H997 0.950 . S
C1003 C1002 1.327 . S
C1003 C1007 1.429 . S
C1004 C987 1.574 . S
C1004 H998 0.949 . S
C1004 C1008 1.368 . S
C1005 C986 1.429 . S
C1005 C999 1.429 . S
C1005 C1006 1.523 . S
C1006 C987 1.368 . S
C1006 C1000 1.368 . S
C1006 C1005 1.523 . S
C1007 C991 1.429 . S
C1007 C1003 1.429 . S
C1007 C1008 1.523 . S
C1008 C992 1.368 . S
C1008 C1004 1.368 . S
C1008 C1007 1.523 . S
H1009 C984 0.950 . S
H1010 C986 0.950 . S
H1011 C987 0.949 . S
H1012 C989 0.950 . S
H1013 C991 0.950 . S
C1014 C1015 1.349 . S
C1014 C1016 1.327 . S
C1014 H1039 0.950 . S
C1015 C1014 1.349 . S
C1015 C1031 1.349 . S
C1016 C1014 1.327 . S
C1016 C1035 1.429 . S
C1016 H1040 0.950 . S
C1017 C1034 1.574 1_554 S
C1017 C1036 1.368 . S
C1017 H1041 0.949 . S
H1018 C1022 0.949 . S
C1019 C1020 1.349 . S
C1019 C1021 1.327 . S
C1019 H1042 0.950 . S
C1020 C1019 1.349 . S
C1020 C1032 1.349 . S
C1021 C1019 1.327 . S
C1021 C1037 1.429 . S
C1021 H1043 0.950 . S
C1022 H1018 0.949 . S
C1022 C1030 1.574 . S
C1022 C1038 1.368 1_554 S
H1023 C1031 0.950 . S
H1024 C1029 0.950 . S
H1025 C1030 0.949 . S
H1026 C1032 0.950 . S
H1027 C1033 0.950 . S
H1028 C1034 0.949 . S
C1029 H1024 0.950 . S
C1029 C1031 1.327 . S
C1029 C1035 1.429 . S
C1030 C1022 1.574 . S
C1030 H1025 0.949 . S
C1030 C1036 1.368 . S
C1031 C1015 1.349 . S
C1031 H1023 0.950 . S
C1031 C1029 1.327 . S
C1032 C1020 1.349 . S
C1032 H1026 0.950 . S
C1032 C1033 1.327 . S
C1033 H1027 0.950 . S
C1033 C1032 1.327 . S
C1033 C1037 1.429 . S
C1034 C1017 1.574 1_556 S
C1034 H1028 0.949 . S
C1034 C1038 1.368 . S
C1035 C1016 1.429 . S
C1035 C1029 1.429 . S
C1035 C1036 1.523 . S
C1036 C1017 1.368 . S
C1036 C1030 1.368 . S
C1036 C1035 1.523 . S
C1037 C1021 1.429 . S
C1037 C1033 1.429 . S
C1037 C1038 1.523 . S
C1038 C1022 1.368 1_556 S
C1038 C1034 1.368 . S
C1038 C1037 1.523 . S
H1039 C1014 0.950 . S
H1040 C1016 0.950 . S
H1041 C1017 0.949 . S
H1042 C1019 0.950 . S
H1043 C1021 0.950 . S
C1044 C1045 1.349 . S
C1044 C1046 1.327 . S
C1044 H1069 0.950 . S
C1045 C1044 1.349 . S
C1045 C1061 1.349 . S
C1046 C1044 1.327 . S
C1046 C1065 1.429 . S
C1046 H1070 0.950 . S
C1047 C1064 1.574 . S
C1047 C1066 1.368 . S
C1047 H1071 0.949 . S
H1048 C1052 0.949 . S
C1049 C1050 1.349 . S
C1049 C1051 1.327 . S
C1049 H1072 0.950 . S
C1050 C1049 1.349 . S
C1050 C1062 1.349 . S
C1051 C1049 1.327 . S
C1051 C1067 1.429 . S
C1051 H1073 0.950 . S
C1052 H1048 0.949 . S
C1052 C1060 1.574 . S
C1052 C1068 1.368 . S
H1053 C1061 0.950 . S
H1054 C1059 0.950 . S
H1055 C1060 0.949 . S
H1056 C1062 0.950 . S
H1057 C1063 0.950 . S
H1058 C1064 0.949 . S
C1059 H1054 0.950 . S
C1059 C1061 1.327 . S
C1059 C1065 1.429 . S
C1060 C1052 1.574 . S
C1060 H1055 0.949 . S
C1060 C1066 1.368 . S
C1061 C1045 1.349 . S
C1061 H1053 0.950 . S
C1061 C1059 1.327 . S
C1062 C1050 1.349 . S
C1062 H1056 0.950 . S
C1062 C1063 1.327 . S
C1063 H1057 0.950 . S
C1063 C1062 1.327 . S
C1063 C1067 1.429 . S
C1064 C1047 1.574 . S
C1064 H1058 0.949 . S
C1064 C1068 1.368 . S
C1065 C1046 1.429 . S
C1065 C1059 1.429 . S
C1065 C1066 1.523 . S
C1066 C1047 1.368 . S
C1066 C1060 1.368 . S
C1066 C1065 1.523 . S
C1067 C1051 1.429 . S
C1067 C1063 1.429 . S
C1067 C1068 1.523 . S
C1068 C1052 1.368 . S
C1068 C1064 1.368 . S
C1068 C1067 1.523 . S
H1069 C1044 0.950 . S
H1070 C1046 0.950 . S
H1071 C1047 0.949 . S
H1072 C1049 0.950 . S
H1073 C1051 0.950 . S
C360 C351 1.566 . S
C355 C15 1.543 . S
C385 C61 1.511 . S
C390 C276 1.466 . S
C415 C114 1.561 . S
C420 C299 1.589 . S
C445 C139 1.410 . S
C450 C312 1.414 . S
C480 C315 1.520 . S
C475 C185 1.575 . S
C505 C245 1.433 . S
C510 C328 1.397 . S
C535 C47 1.444 . S
C540 C289 1.397 . S
C565 C100 1.574 . S
C570 C302 1.519 . S
C595 C153 1.402 . S
C600 C325 1.414 . S
C630 C338 1.590 . S
C625 C199 1.561 . S
C660 C341 1.466 . S
C655 C231 1.522 . S
C690 C286 1.566 . S
C685 C1 1.554 . S
C715 C22 1.436 . S
C720 C297 1.409 . S
C745 C68 1.427 . S
C750 C310 1.400 . S
C780 C320 1.431 . S
C775 C107 1.473 . S
C805 C146 1.431 . S
C810 C333 1.388 . S
C840 C349 1.448 . S
C835 C192 1.479 . S
C870 C281 1.390 . S
C865 C252 1.429 . S
C900 C346 1.390 . S
C895 C54 1.430 . S
C925 C93 1.480 . S
C930 C284 1.448 . S
C960 C294 1.388 . S
C955 C160 1.427 . S
C985 C206 1.473 . S
C990 C307 1.431 . S
C1015 C238 1.428 . S
C1020 C323 1.400 . S
C1045 C8 1.439 . S
C1050 C336 1.409 . S
