# Generated by pormake.
# Topology hwx, (6,3)-cn, num edge types: 1
# Building blocks:
#     Node 0, Type 0, BuildingBlock: OJICUG_clean_sbu_0, # of connection points: 6
#     Node 1, Type 0, BuildingBlock: OJICUG_clean_sbu_0, # of connection points: 6
#     Node 2, Type 0, BuildingBlock: OJICUG_clean_sbu_0, # of connection points: 6
#     Node 3, Type 0, BuildingBlock: OJICUG_clean_sbu_0, # of connection points: 6
#     Node 4, Type 1, BuildingBlock: CUQRIR_clean_linker_1, # of connection points: 3
#     Node 5, Type 1, BuildingBlock: CUQRIR_clean_linker_1, # of connection points: 3
#     Node 6, Type 1, BuildingBlock: CUQRIR_clean_linker_1, # of connection points: 3
#     Node 7, Type 1, BuildingBlock: CUQRIR_clean_linker_1, # of connection points: 3
#     Node 8, Type 1, BuildingBlock: CUQRIR_clean_linker_1, # of connection points: 3
#     Node 9, Type 1, BuildingBlock: CUQRIR_clean_linker_1, # of connection points: 3
#     Node 10, Type 1, BuildingBlock: CUQRIR_clean_linker_1, # of connection points: 3
#     Node 11, Type 1, BuildingBlock: CUQRIR_clean_linker_1, # of connection points: 3
#     Edge 12, Type (0, 1), BuildingBlock: KIFKEQ_clean_linker_1, # of connection points: 2
#     Edge 13, Type (0, 1), BuildingBlock: KIFKEQ_clean_linker_1, # of connection points: 2
#     Edge 14, Type (0, 1), BuildingBlock: KIFKEQ_clean_linker_1, # of connection points: 2
#     Edge 15, Type (0, 1), BuildingBlock: KIFKEQ_clean_linker_1, # of connection points: 2
#     Edge 16, Type (0, 1), BuildingBlock: KIFKEQ_clean_linker_1, # of connection points: 2
#     Edge 17, Type (0, 1), BuildingBlock: KIFKEQ_clean_linker_1, # of connection points: 2
#     Edge 18, Type (0, 1), BuildingBlock: KIFKEQ_clean_linker_1, # of connection points: 2
#     Edge 19, Type (0, 1), BuildingBlock: KIFKEQ_clean_linker_1, # of connection points: 2
#     Edge 20, Type (0, 1), BuildingBlock: KIFKEQ_clean_linker_1, # of connection points: 2
#     Edge 21, Type (0, 1), BuildingBlock: KIFKEQ_clean_linker_1, # of connection points: 2
#     Edge 22, Type (0, 1), BuildingBlock: KIFKEQ_clean_linker_1, # of connection points: 2
#     Edge 23, Type (0, 1), BuildingBlock: KIFKEQ_clean_linker_1, # of connection points: 2
#     Edge 24, Type (0, 1), BuildingBlock: KIFKEQ_clean_linker_1, # of connection points: 2
#     Edge 25, Type (0, 1), BuildingBlock: KIFKEQ_clean_linker_1, # of connection points: 2
#     Edge 26, Type (0, 1), BuildingBlock: KIFKEQ_clean_linker_1, # of connection points: 2
#     Edge 27, Type (0, 1), BuildingBlock: KIFKEQ_clean_linker_1, # of connection points: 2
#     Edge 28, Type (0, 1), BuildingBlock: KIFKEQ_clean_linker_1, # of connection points: 2
#     Edge 29, Type (0, 1), BuildingBlock: KIFKEQ_clean_linker_1, # of connection points: 2
#     Edge 30, Type (0, 1), BuildingBlock: KIFKEQ_clean_linker_1, # of connection points: 2
#     Edge 31, Type (0, 1), BuildingBlock: KIFKEQ_clean_linker_1, # of connection points: 2
#     Edge 32, Type (0, 1), BuildingBlock: KIFKEQ_clean_linker_1, # of connection points: 2
#     Edge 33, Type (0, 1), BuildingBlock: KIFKEQ_clean_linker_1, # of connection points: 2
#     Edge 34, Type (0, 1), BuildingBlock: KIFKEQ_clean_linker_1, # of connection points: 2
#     Edge 35, Type (0, 1), BuildingBlock: KIFKEQ_clean_linker_1, # of connection points: 2
# Relax obj value: 0.003
# Max RMSD: 0.055
# Mean RMSD: 0.044
data_MOF--net-hwx--node1-OJICUG_clean_sbu_0--node2-CUQRIR_clean_linker_1--edge1-KIFKEQ_clean_linker_1
_symmetry_space_group_name_H-M    P1
_symmetry_Int_Tables_number       1
_symmetry_cell_setting            triclinic
loop_
_symmetry_equiv_pos_as_xyz
'x, y, z'
_cell_length_a     50.638871
_cell_length_b     50.568345
_cell_length_c     18.932374
_cell_angle_alpha  90.075664
_cell_angle_beta   90.0651
_cell_angle_gamma 90.013151
loop_
_atom_site_label
_atom_site_type_symbol
_atom_site_fract_x
_atom_site_fract_y
_atom_site_fract_z
_atom_type_partial_charge
Sc0 Sc 0.2225 0.22201 0.0966 0.0
Sc1 Sc 0.1797 0.17926 0.00379 0.0
Sc2 Sc 0.22196 0.22218 0.9102 0.0
O3 O 0.20804 0.20779 0.00351 0.0
C4 C 0.21845 0.27456 0.00411 0.0
C5 C 0.16126 0.21598 0.13238 0.0
C6 C 0.16066 0.21592 0.87583 0.0
C7 C 0.21685 0.16062 0.13136 0.0
C8 C 0.27465 0.2189 1.0025 0.0
C9 C 0.21623 0.16076 0.87509 0.0
O10 O 0.21957 0.26247 0.06282 0.0
O11 O 0.15659 0.19925 0.08361 0.0
O12 O 0.18327 0.22598 0.865 0.0
O13 O 0.22688 0.18332 0.14179 0.0
O14 O 0.26253 0.21963 0.94372 0.0
O15 O 0.1997 0.15601 0.92408 0.0
O16 O 0.2628 0.21961 0.0616 0.0
O17 O 0.19986 0.15609 0.08321 0.0
O18 O 0.22598 0.18355 0.86416 0.0
O19 O 0.18398 0.22588 0.14295 0.0
O20 O 0.21906 0.26267 0.94492 0.0
O21 O 0.15617 0.19916 0.92448 0.0
Sc22 Sc 0.26921 0.72071 0.40879 0.0
Sc23 Sc 0.3128 0.67842 0.50033 0.0
Sc24 Sc 0.27042 0.72106 0.5949 0.0
O25 O 0.28418 0.70671 0.50136 0.0
C26 C 0.27349 0.77339 0.50136 0.0
C27 C 0.33044 0.71514 0.37132 0.0
C28 C 0.33188 0.71504 0.62839 0.0
C29 C 0.27505 0.65924 0.37434 0.0
C30 C 0.21738 0.71766 0.50393 0.0
C31 C 0.27655 0.65968 0.62955 0.0
O32 O 0.272 0.76127 0.4426 0.0
O33 O 0.3354 0.69854 0.42003 0.0
O34 O 0.30916 0.72471 0.63999 0.0
O35 O 0.26472 0.68185 0.36477 0.0
O36 O 0.22976 0.71882 0.56224 0.0
O37 O 0.29337 0.65516 0.58103 0.0
O38 O 0.22898 0.71797 0.44449 0.0
O39 O 0.29262 0.65493 0.42111 0.0
O40 O 0.26634 0.68232 0.63978 0.0
O41 O 0.30758 0.7248 0.36116 0.0
O42 O 0.27337 0.76152 0.56052 0.0
O43 O 0.33648 0.69859 0.57898 0.0
Sc44 Sc 0.76946 0.77308 0.91351 0.0
Sc45 Sc 0.8147 0.81271 0.00836 0.0
Sc46 Sc 0.76994 0.77161 0.09954 0.0
O47 O 0.78471 0.78584 0.00713 0.0
C48 C 0.71736 0.77675 0.00705 0.0
C49 C 0.77849 0.83424 0.88199 0.0
C50 C 0.77787 0.83271 0.13559 0.0
C51 C 0.83115 0.77605 0.87826 0.0
C52 C 0.77208 0.7197 0.00376 0.0
C53 C 0.83139 0.77526 0.13634 0.0
O54 O 0.72918 0.77684 0.94796 0.0
O55 O 0.79642 0.83726 0.92852 0.0
O56 O 0.7664 0.81055 0.14407 0.0
O57 O 0.80782 0.76791 0.86637 0.0
O58 O 0.7723 0.73122 0.06357 0.0
O59 O 0.83699 0.79132 0.08698 0.0
O60 O 0.7708 0.73221 0.94556 0.0
O61 O 0.83679 0.79179 0.92855 0.0
O62 O 0.80816 0.76678 0.14729 0.0
O63 O 0.76649 0.81249 0.87191 0.0
O64 O 0.72952 0.77473 0.06548 0.0
O65 O 0.79575 0.83646 0.08928 0.0
Sc66 Sc 0.72268 0.27182 0.59431 0.0
Sc67 Sc 0.67877 0.31353 0.50226 0.0
Sc68 Sc 0.72207 0.27174 0.40819 0.0
O69 O 0.70782 0.28573 0.50156 0.0
C70 C 0.77472 0.27558 0.49933 0.0
C71 C 0.71625 0.33301 0.62912 0.0
C72 C 0.71464 0.33319 0.37389 0.0
C73 C 0.66125 0.27697 0.63078 0.0
C74 C 0.71929 0.21921 0.50198 0.0
C75 C 0.66073 0.27631 0.37377 0.0
O76 O 0.76295 0.27367 0.55833 0.0
O77 O 0.69793 0.33671 0.58398 0.0
O78 O 0.72449 0.31049 0.36209 0.0
O79 O 0.68445 0.26859 0.64304 0.0
O80 O 0.721 0.23127 0.44326 0.0
O81 O 0.65614 0.2936 0.42113 0.0
O82 O 0.71894 0.23117 0.56113 0.0
O83 O 0.65576 0.29242 0.57989 0.0
O84 O 0.6834 0.2662 0.36412 0.0
O85 O 0.72775 0.31087 0.63694 0.0
O86 O 0.76254 0.2758 0.44067 0.0
O87 O 0.69848 0.33764 0.42402 0.0
C88 C 0.22664 0.48793 0.94561 0.0
N89 N 0.2306 0.51323 0.96623 0.0
N90 N 0.22006 0.47272 1.0017 0.0
C91 C 0.23091 0.47778 0.87176 0.0
C92 C 0.2201 0.48973 0.05702 0.0
N93 N 0.22624 0.51443 0.03529 0.0
C94 C 0.21621 0.48185 0.13287 0.0
H95 H 0.21837 0.46034 0.86048 0.0
H96 H 0.25187 0.47174 0.86607 0.0
H97 H 0.22666 0.4934 0.83226 0.0
H98 H 0.23571 0.48131 0.15961 0.0
H99 H 0.20677 0.46211 0.13716 0.0
H100 H 0.20379 0.49661 0.16064 0.0
C101 C 0.00327 0.72811 0.56339 0.0
N102 N 0.97814 0.73216 0.54185 0.0
N103 N 0.01945 0.72488 0.50723 0.0
C104 C 0.01181 0.72621 0.63937 0.0
C105 C 0.00323 0.72707 0.45057 0.0
N106 N 0.97798 0.73129 0.47164 0.0
C107 C 0.01258 0.7282 0.37516 0.0
H108 H 0.01677 0.74628 0.65909 0.0
H109 H 0.02951 0.71345 0.64476 0.0
H110 H -0.00436 0.71816 0.67254 0.0
H111 H 0.01191 0.708 0.35228 0.0
H112 H 0.0332 0.73551 0.37208 0.0
H113 H -0.00023 0.74129 0.34296 0.0
C114 C 0.76019 0.50613 0.057 0.0
N115 N 0.7565 0.48077 0.03644 0.0
N116 N 0.76648 0.52142 1.00082 0.0
C117 C 0.75615 0.51616 0.13106 0.0
C118 C 0.76656 0.50442 0.94549 0.0
N119 N 0.76076 0.47963 0.96731 0.0
C120 C 0.77044 0.5123 0.86964 0.0
H121 H 0.735 0.52123 0.13813 0.0
H122 H 0.76798 0.53415 0.14159 0.0
H123 H 0.76143 0.50074 0.17025 0.0
H124 H 0.7835 0.49796 0.84246 0.0
H125 H 0.77915 0.53235 0.86519 0.0
H126 H 0.75103 0.51202 0.84235 0.0
C127 C 0.98861 0.26073 0.44727 0.0
N128 N 0.01355 0.25627 0.46971 0.0
N129 N 0.97222 0.26419 0.50287 0.0
C130 C 0.98054 0.26289 0.37098 0.0
C131 C 0.98811 0.26171 0.5601 0.0
N132 N 0.01339 0.25712 0.53992 0.0
C133 C 0.97837 0.26074 0.63517 0.0
H134 H 0.96303 0.2759 0.365 0.0
H135 H 0.97546 0.24292 0.35078 0.0
H136 H -0.00301 0.27079 0.33858 0.0
H137 H 0.95764 0.25369 0.6375 0.0
H138 H 0.97916 0.28094 0.65802 0.0
H139 H 0.99085 0.24751 0.66786 0.0
C140 C 0.72934 0.00583 0.56161 0.0
N141 N 0.73476 0.98064 0.54172 0.0
N142 N 0.72385 0.02096 0.50449 0.0
C143 C 0.73012 0.01596 0.63641 0.0
C144 C 0.72586 0.00408 0.44923 0.0
N145 N 0.7322 0.97955 0.47187 0.0
C146 C 0.72343 0.01192 0.37288 0.0
H147 H 0.71586 0.03228 0.64434 0.0
H148 H 0.75016 0.02377 0.64774 0.0
H149 H 0.72557 -3e-05 0.67456 0.0
H150 H 0.74334 0.01173 0.34842 0.0
H151 H 0.71467 0.03189 0.36701 0.0
H152 H 0.71101 -0.00255 0.34393 0.0
C153 C 0.48866 0.23021 0.94281 0.0
N154 N 0.51389 0.23435 0.96426 0.0
N155 N 0.47237 0.22806 0.99922 0.0
C156 C 0.47941 0.23133 0.86726 0.0
C157 C 0.48848 0.23123 0.05563 0.0
N158 N 0.51363 0.23522 0.03446 0.0
C159 C 0.47987 0.22935 0.13151 0.0
H160 H 0.49227 0.24441 0.83525 0.0
H161 H 0.45879 0.23863 0.86387 0.0
H162 H 0.48009 0.21113 0.8444 0.0
H163 H 0.46208 0.21669 0.13669 0.0
H164 H 0.47504 0.24945 0.15122 0.0
H165 H 0.49596 0.22121 0.16485 0.0
C166 C 0.25979 0.9876 0.44795 0.0
N167 N 0.25576 0.01273 0.46978 0.0
N168 N 0.26311 0.97135 0.50393 0.0
C169 C 0.26167 0.97918 0.37186 0.0
C170 C 0.26098 0.98751 0.56076 0.0
N171 N 0.25673 0.01281 0.53998 0.0
C172 C 0.26004 0.97804 0.63609 0.0
H173 H 0.24161 0.97428 0.35213 0.0
H174 H 0.2744 0.96145 0.36616 0.0
H175 H 0.2697 0.99542 0.33885 0.0
H176 H 0.28025 0.97874 0.65869 0.0
H177 H 0.25281 0.95736 0.63905 0.0
H178 H 0.24699 0.99079 0.66859 0.0
C179 C 0.5033 0.76101 0.05842 0.0
N180 N 0.47843 0.75638 0.0356 0.0
N181 N 0.51978 0.76463 0.00308 0.0
C182 C 0.51124 0.76314 0.13483 0.0
C183 C 0.50401 0.76205 0.94562 0.0
N184 N 0.47873 0.75726 0.9654 0.0
C185 C 0.51391 0.7612 0.87068 0.0
H186 H 0.52865 0.77626 0.14119 0.0
H187 H 0.51644 0.74319 0.15477 0.0
H188 H 0.49469 0.77088 0.16717 0.0
H189 H 0.5347 0.75436 0.86857 0.0
H190 H 0.51297 0.7814 0.84801 0.0
H191 H 0.50162 0.74786 0.8377 0.0
H192 H 0.16562 0.239 0.26252 0.0
H193 H 0.10804 0.20954 0.11325 0.0
H194 H 0.13055 0.24854 0.34635 0.0
H195 H 0.0728 0.22012 0.19593 0.0
H196 H 0.01846 0.21445 0.38423 0.0
H197 H 0.05469 0.20505 0.30297 0.0
H198 H 0.0943 0.27633 0.37256 0.0
H199 H 0.05818 0.28475 0.45592 0.0
C200 C 0.14542 0.2349 0.24715 0.0
C201 C 0.13965 0.22338 0.18124 0.0
C202 C 0.12526 0.2405 0.29523 0.0
C203 C 0.09879 0.23498 0.2783 0.0
C204 C 0.09299 0.22408 0.21156 0.0
C205 C 0.11319 0.21818 0.16382 0.0
C206 C 0.0351 0.22788 0.38198 0.0
C207 C 0.03578 0.25027 0.42551 0.0
C208 C 0.05571 0.22272 0.3352 0.0
C209 C 0.07733 0.24011 0.3303 0.0
C210 C 0.07813 0.26236 0.37524 0.0
C211 C 0.05755 0.2673 0.42275 0.0
H212 H 0.25167 0.66411 0.75683 0.0
H213 H 0.28541 0.60643 0.61447 0.0
H214 H 0.24167 0.62933 0.84082 0.0
H215 H 0.27441 0.57134 0.69761 0.0
H216 H 0.27519 0.51775 0.8901 0.0
H217 H 0.28669 0.55359 0.80896 0.0
H218 H 0.21345 0.59308 0.86109 0.0
H219 H 0.20282 0.55749 0.9438 0.0
C220 C 0.25666 0.64393 0.74296 0.0
C221 C 0.26934 0.63808 0.67875 0.0
C222 C 0.25081 0.62393 0.79118 0.0
C223 C 0.2572 0.59746 0.77621 0.0
C224 C 0.26962 0.59155 0.71157 0.0
C225 C 0.27575 0.61164 0.66356 0.0
C226 C 0.26179 0.53427 0.88401 0.0
C227 C 0.23813 0.53507 0.92224 0.0
C228 C 0.26818 0.55467 0.83735 0.0
C229 C 0.25089 0.57617 0.82776 0.0
C230 C 0.22741 0.57705 0.86757 0.0
C231 C 0.22121 0.55675 0.91472 0.0
H232 H 0.82622 0.76184 0.27485 0.0
H233 H 0.88422 0.77043 0.10919 0.0
H234 H 0.86131 0.7503 0.35838 0.0
H235 H 0.91918 0.75805 0.19277 0.0
H236 H 0.96172 0.70115 0.36258 0.0
H237 H 0.92584 0.71104 0.27931 0.0
H238 H 0.90709 0.78151 0.39759 0.0
H239 H 0.94399 0.77252 0.47804 0.0
C240 C 0.84641 0.76095 0.25611 0.0
C241 C 0.85252 0.76702 0.1855 0.0
C242 C 0.8664 0.75447 0.30394 0.0
C243 C 0.89275 0.75332 0.2816 0.0
C244 C 0.8989 0.75878 0.21083 0.0
C245 C 0.87897 0.76591 0.1633 0.0
C246 C 0.94995 0.71877 0.37036 0.0
C247 C 0.95551 0.73604 0.42663 0.0
C248 C 0.92951 0.72437 0.32308 0.0
C249 C 0.91389 0.74698 0.33245 0.0
C250 C 0.91887 0.76386 0.38984 0.0
C251 C 0.93974 0.7586 0.43609 0.0
H252 H 0.75855 0.33529 0.71908 0.0
H253 H 0.69105 0.3805 0.64842 0.0
H254 H 0.76956 0.37013 0.80306 0.0
H255 H 0.70232 0.41544 0.73224 0.0
H256 H 0.79544 0.45229 0.88845 0.0
H257 H 0.78521 0.41663 0.80462 0.0
H258 H 0.70286 0.4215 0.86294 0.0
H259 H 0.7134 0.45734 0.94588 0.0
C260 C 0.74612 0.3527 0.72109 0.0
C261 C 0.72384 0.35502 0.67698 0.0
C262 C 0.75253 0.37272 0.7691 0.0
C263 C 0.73673 0.39545 0.77454 0.0
C264 C 0.71467 0.39797 0.72991 0.0
C265 C 0.70835 0.37803 0.68147 0.0
C266 C 0.77526 0.44548 0.88314 0.0
C267 C 0.75512 0.45735 0.9227 0.0
C268 C 0.76938 0.42511 0.83565 0.0
C269 C 0.74318 0.41641 0.82679 0.0
C270 C 0.72315 0.42805 0.86781 0.0
C271 C 0.72912 0.44828 0.91558 0.0
H272 H 0.60752 0.28291 0.39222 0.0
H273 H 0.6651 0.25227 0.24504 0.0
H274 H 0.5723 0.27189 0.30964 0.0
H275 H 0.63007 0.24231 0.16125 0.0
H276 H 0.55784 0.20629 0.05086 0.0
H277 H 0.5937 0.21467 0.13528 0.0
H278 H 0.55447 0.28653 0.20181 0.0
H279 H 0.51849 0.27717 0.11955 0.0
C280 C 0.61267 0.2739 0.34214 0.0
C281 C 0.63912 0.26852 0.32524 0.0
C282 C 0.59249 0.26775 0.29446 0.0
C283 C 0.5983 0.25642 0.22827 0.0
C284 C 0.62476 0.25068 0.21195 0.0
C285 C 0.6449 0.25652 0.25999 0.0
C286 C 0.55722 0.22384 0.08367 0.0
C287 C 0.53564 0.24106 0.07972 0.0
C288 C 0.57766 0.22875 0.13177 0.0
C289 C 0.5769 0.25118 0.17607 0.0
C290 C 0.55545 0.26872 0.1701 0.0
C291 C 0.53497 0.26358 0.12276 0.0
H292 H 0.21834 0.10763 0.90216 0.0
H293 H 0.23032 0.1653 0.73699 0.0
H294 H 0.22957 0.07211 0.81882 0.0
H295 H 0.2407 0.12971 0.65378 0.0
H296 H 0.21591 0.04728 0.53399 0.0
H297 H 0.20738 0.08429 0.61474 0.0
H298 H 0.27762 0.06468 0.73252 0.0
H299 H 0.28707 0.0287 0.64901 0.0
C300 C 0.22333 0.11268 0.84822 0.0
C301 C 0.22355 0.1392 0.8261 0.0
C302 C 0.22979 0.09244 0.80083 0.0
C303 C 0.2359 0.09839 0.73032 0.0
C304 C 0.236 0.12479 0.70802 0.0
C305 C 0.23019 0.14506 0.75569 0.0
C306 C 0.22986 0.05135 0.57595 0.0
C307 C 0.25223 0.03531 0.58521 0.0
C308 C 0.22486 0.07227 0.62238 0.0
C309 C 0.24181 0.07703 0.67969 0.0
C310 C 0.26423 0.06114 0.68886 0.0
C311 C 0.26957 0.04065 0.64143 0.0
H312 H 0.3259 0.73794 0.24091 0.0
H313 H 0.38367 0.70943 0.39069 0.0
H314 H 0.36099 0.74772 0.15719 0.0
H315 H 0.41886 0.72022 0.30827 0.0
H316 H 0.47361 0.71465 0.1212 0.0
H317 H 0.43723 0.70502 0.20166 0.0
H318 H 0.39714 0.77578 0.13089 0.0
H319 H 0.43346 0.78445 0.04834 0.0
C320 C 0.34613 0.7341 0.25639 0.0
C321 C 0.35196 0.72275 0.3224 0.0
C322 C 0.3663 0.73982 0.2084 0.0
C323 C 0.39282 0.7346 0.22554 0.0
C324 C 0.39864 0.72392 0.29242 0.0
C325 C 0.37847 0.7179 0.34002 0.0
C326 C 0.45685 0.72792 0.12303 0.0
C327 C 0.45612 0.75025 0.07943 0.0
C328 C 0.43613 0.72263 0.16935 0.0
C329 C 0.41433 0.73982 0.17373 0.0
C330 C 0.41346 0.76198 0.12865 0.0
C331 C 0.43416 0.76706 0.08161 0.0
H332 H 0.73098 0.84613 0.82235 0.0
H333 H 0.81205 0.87209 0.83309 0.0
H334 H 0.72104 0.88146 0.73936 0.0
H335 H 0.80284 0.90628 0.74629 0.0
H336 H 0.7736 0.98082 0.63938 0.0
H337 H 0.78366 0.94624 0.7243 0.0
H338 H 0.72544 0.89568 0.62477 0.0
H339 H 0.71375 0.93165 0.54488 0.0
C340 C 0.74671 0.85938 0.8065 0.0
C341 C 0.77223 0.85652 0.83446 0.0
C342 C 0.74113 0.87949 0.75817 0.0
C343 C 0.76113 0.89682 0.7351 0.0
C344 C 0.78671 0.89381 0.76344 0.0
C345 C 0.79209 0.87412 0.81317 0.0
C346 C 0.76275 0.9624 0.63666 0.0
C347 C 0.74253 0.95903 0.58678 0.0
C348 C 0.76879 0.94232 0.68457 0.0
C349 C 0.75527 0.91799 0.68234 0.0
C350 C 0.73584 0.91429 0.62981 0.0
C351 C 0.72939 0.93469 0.58304 0.0
H352 H 0.8845 0.77979 0.89872 0.0
H353 H 0.82614 0.75347 0.74742 0.0
H354 H 0.91949 0.76806 0.81654 0.0
H355 H 0.86111 0.74265 0.66411 0.0
H356 H 0.974 0.77374 0.62852 0.0
H357 H 0.9379 0.78363 0.70967 0.0
H358 H 0.89685 0.71343 0.63837 0.0
H359 H 0.93299 0.70437 0.55539 0.0
C360 C 0.87912 0.77158 0.84783 0.0
C361 C 0.8525 0.76769 0.82963 0.0
C362 C 0.89919 0.765 0.80041 0.0
C363 C 0.89316 0.75467 0.73322 0.0
C364 C 0.86653 0.75029 0.71557 0.0
C365 C 0.84645 0.75662 0.76332 0.0
C366 C 0.95715 0.76058 0.63054 0.0
C367 C 0.9561 0.73828 0.58669 0.0
C368 C 0.93657 0.76605 0.67717 0.0
C369 C 0.91457 0.74912 0.68146 0.0
C370 C 0.91338 0.72699 0.6362 0.0
C371 C 0.93397 0.7217 0.58895 0.0
H372 H 0.73884 0.32928 0.24544 0.0
H373 H 0.70553 0.38637 0.39023 0.0
H374 H 0.74796 0.36434 0.1615 0.0
H375 H 0.7156 0.42171 0.30706 0.0
H376 H 0.71256 0.47549 0.11493 0.0
H377 H 0.7022 0.43942 0.19646 0.0
H378 H 0.77559 0.40104 0.14015 0.0
H379 H 0.78511 0.43689 0.05722 0.0
C380 C 0.73376 0.34938 0.25985 0.0
C381 C 0.72143 0.35498 0.32474 0.0
C382 C 0.7391 0.36955 0.21164 0.0
C383 C 0.73252 0.39592 0.22726 0.0
C384 C 0.72051 0.40158 0.29261 0.0
C385 C 0.71491 0.38133 0.34063 0.0
C386 C 0.72626 0.45918 0.12023 0.0
C387 C 0.74963 0.45877 0.08072 0.0
C388 C 0.72052 0.43864 0.16708 0.0
C389 C 0.73818 0.41738 0.17559 0.0
C390 C 0.76137 0.41688 0.13454 0.0
C391 C 0.76693 0.43734 0.08725 0.0
H392 H 0.16511 0.23099 0.73851 0.0
H393 H 0.10749 0.21675 0.90238 0.0
H394 H 0.12953 0.24133 0.65546 0.0
H395 H 0.07195 0.22793 0.81914 0.0
H396 H 0.02928 0.28726 0.64936 0.0
H397 H 0.06492 0.27741 0.7334 0.0
H398 H 0.08394 0.20682 0.616 0.0
H399 H 0.04726 0.21578 0.53465 0.0
C400 C 0.14487 0.23035 0.75698 0.0
C401 C 0.13904 0.22311 0.82698 0.0
C402 C 0.12462 0.23613 0.70938 0.0
C403 C 0.09823 0.23538 0.73134 0.0
C404 C 0.09228 0.22863 0.80143 0.0
C405 C 0.11253 0.22221 0.84875 0.0
C406 C 0.04101 0.26959 0.642 0.0
C407 C 0.03563 0.25229 0.58566 0.0
C408 C 0.06131 0.26401 0.68974 0.0
C409 C 0.07693 0.24138 0.6808 0.0
C410 C 0.07209 0.22443 0.62349 0.0
C411 C 0.05137 0.22969 0.57671 0.0
H412 H 0.29854 0.61079 0.35643 0.0
H413 H 0.23303 0.65838 0.28354 0.0
H414 H 0.28625 0.57615 0.27257 0.0
H415 H 0.22102 0.62388 0.19966 0.0
H416 H 0.2743 0.53493 0.0578 0.0
H417 H 0.28593 0.57019 0.14149 0.0
H418 H 0.20365 0.57797 0.19828 0.0
H419 H 0.19236 0.54286 0.11377 0.0
C420 C 0.28146 0.61383 0.32292 0.0
C421 C 0.26684 0.63742 0.3267 0.0
C422 C 0.27456 0.59408 0.27448 0.0
C423 C 0.25276 0.59739 0.22926 0.0
C424 C 0.23782 0.62069 0.23408 0.0
C425 C 0.24481 0.64051 0.28203 0.0
C426 C 0.25885 0.54452 0.08791 0.0
C427 C 0.23255 0.53646 0.08011 0.0
C428 C 0.26543 0.56441 0.13611 0.0
C429 C 0.24572 0.57668 0.17689 0.0
C430 C 0.21925 0.56897 0.16742 0.0
C431 C 0.21275 0.54895 0.1195 0.0
H432 H 0.32747 0.72892 0.76666 0.0
H433 H 0.38498 0.7172 0.60104 0.0
H434 H 0.36299 0.73942 0.84975 0.0
H435 H 0.42047 0.72857 0.68437 0.0
H436 H 0.46283 0.78717 0.85569 0.0
H437 H 0.42738 0.77699 0.77125 0.0
H438 H 0.40866 0.70636 0.88839 0.0
H439 H 0.44516 0.71564 0.97009 0.0
C440 C 0.34766 0.72886 0.74783 0.0
C441 C 0.35348 0.72229 0.67731 0.0
C442 C 0.3679 0.73474 0.79546 0.0
C443 C 0.39425 0.73477 0.77305 0.0
C444 C 0.40017 0.72868 0.70245 0.0
C445 C 0.37995 0.72215 0.65507 0.0
C446 C 0.45121 0.7694 0.86288 0.0
C447 C 0.45662 0.75221 0.91928 0.0
C448 C 0.43103 0.76364 0.8149 0.0
C449 C 0.41553 0.74091 0.82366 0.0
C450 C 0.42041 0.72405 0.88101 0.0
C451 C 0.44102 0.72948 0.928 0.0
H452 H 0.73596 0.835 0.22634 0.0
H453 H 0.80345 0.88006 0.15521 0.0
H454 H 0.72516 0.86983 0.31024 0.0
H455 H 0.79237 0.91507 0.23915 0.0
H456 H 0.6984 0.9518 0.39178 0.0
H457 H 0.70933 0.91612 0.30901 0.0
H458 H 0.79137 0.9219 0.37031 0.0
H459 H 0.78008 0.95783 0.45255 0.0
C460 C 0.74846 0.85237 0.22828 0.0
C461 C 0.77061 0.85468 0.18389 0.0
C462 C 0.74217 0.87239 0.27628 0.0
C463 C 0.75796 0.89514 0.28148 0.0
C464 C 0.78002 0.8976 0.23692 0.0
C465 C 0.78621 0.87764 0.1884 0.0
C466 C 0.71868 0.94519 0.3874 0.0
C467 C 0.73848 0.95731 0.42771 0.0
C468 C 0.72496 0.92481 0.3405 0.0
C469 C 0.75125 0.91631 0.33288 0.0
C470 C 0.77101 0.92827 0.37437 0.0
C471 C 0.76462 0.94855 0.42169 0.0
H472 H 0.60855 0.27147 0.60233 0.0
H473 H 0.66599 0.26522 0.77049 0.0
H474 H 0.57341 0.25952 0.68557 0.0
H475 H 0.63072 0.25409 0.85362 0.0
H476 H 0.54817 0.27534 0.97146 0.0
H477 H 0.58522 0.28417 0.89162 0.0
H478 H 0.56615 0.21389 0.77269 0.0
H479 H 0.5301 0.20417 0.85534 0.0
C480 C 0.61364 0.26758 0.65694 0.0
C481 C 0.63998 0.2692 0.67994 0.0
C482 C 0.59361 0.26068 0.70429 0.0
C483 C 0.59954 0.25596 0.77562 0.0
C484 C 0.62578 0.25769 0.79877 0.0
C485 C 0.64588 0.26393 0.75116 0.0
C486 C 0.55238 0.26143 0.9295 0.0
C487 C 0.53647 0.23898 0.91966 0.0
C488 C 0.57335 0.26659 0.88358 0.0
C489 C 0.57828 0.24974 0.82615 0.0
C490 C 0.56251 0.22722 0.81645 0.0
C491 C 0.54198 0.22172 0.86339 0.0
H492 H 0.2404 0.1648 0.26082 0.0
H493 H 0.20996 0.10737 0.11235 0.0
H494 H 0.24973 0.12964 0.34463 0.0
H495 H 0.22034 0.07202 0.195 0.0
H496 H 0.21406 0.01802 0.38419 0.0
H497 H 0.20518 0.05422 0.30233 0.0
H498 H 0.27697 0.09301 0.37101 0.0
H499 H 0.28488 0.05693 0.45496 0.0
C500 C 0.23606 0.14461 0.24558 0.0
C501 C 0.2243 0.13892 0.17994 0.0
C502 C 0.24153 0.12439 0.29366 0.0
C503 C 0.23566 0.09794 0.277 0.0
C504 C 0.22457 0.09221 0.21044 0.0
C505 C 0.21879 0.11246 0.16271 0.0
C506 C 0.22773 0.03446 0.38159 0.0
C507 C 0.2501 0.03493 0.42506 0.0
C508 C 0.22287 0.05507 0.33445 0.0
C509 C 0.24054 0.07645 0.32916 0.0
C510 C 0.26279 0.07702 0.37399 0.0
C511 C 0.26744 0.05646 0.42184 0.0
H512 H 0.20936 0.30779 0.89243 0.0
H513 H 0.22399 0.30764 0.11761 0.0
H514 H 0.20848 0.35602 0.89355 0.0
H515 H 0.22291 0.35578 0.11837 0.0
H516 H 0.25342 0.44008 0.06845 0.0
H517 H 0.25167 0.39166 0.07063 0.0
H518 H 0.18125 0.39355 0.9415 0.0
H519 H 0.18317 0.4421 0.94028 0.0
C520 C 0.21228 0.31798 0.94218 0.0
C521 C 0.21688 0.3038 0.00486 0.0
C522 C 0.2116 0.3456 0.94282 0.0
C523 C 0.21571 0.3596 0.006 0.0
C524 C 0.21997 0.34547 0.06878 0.0
C525 C 0.22045 0.31788 0.06829 0.0
C526 C 0.23754 0.42997 0.04118 0.0
C527 C 0.21848 0.44443 0.00401 0.0
C528 C 0.23645 0.40241 0.04246 0.0
C529 C 0.21632 0.38887 0.00616 0.0
C530 C 0.19713 0.40347 0.96928 0.0
C531 C 0.19815 0.43108 0.96857 0.0
H532 H 0.18362 0.70954 0.39273 0.0
H533 H 0.18484 0.72333 0.61827 0.0
H534 H 0.13547 0.70999 0.39449 0.0
H535 H 0.13675 0.72353 0.6197 0.0
H536 H 0.05378 0.75716 0.5729 0.0
H537 H 0.10193 0.75368 0.57362 0.0
H538 H 0.09699 0.68421 0.4411 0.0
H539 H 0.04862 0.68773 0.44149 0.0
C540 C 0.17367 0.71252 0.44272 0.0
C541 C 0.18814 0.71657 0.5053 0.0
C542 C 0.14608 0.7126 0.44371 0.0
C543 C 0.13239 0.71691 0.50717 0.0
C544 C 0.14681 0.72049 0.56988 0.0
C545 C 0.17437 0.72023 0.56903 0.0
C546 C 0.06308 0.74099 0.54486 0.0
C547 C 0.04773 0.72258 0.50764 0.0
C548 C 0.09055 0.73898 0.54516 0.0
C549 C 0.10319 0.71859 0.50768 0.0
C550 C 0.08777 0.70022 0.47002 0.0
C551 C 0.06023 0.70217 0.47021 0.0
H552 H 0.78114 0.68566 0.11362 0.0
H553 H 0.76481 0.68731 0.88935 0.0
H554 H 0.78088 0.63746 0.11081 0.0
H555 H 0.76479 0.63913 0.88684 0.0
H556 H 0.7335 0.55482 0.93517 0.0
H557 H 0.73607 0.60324 0.93387 0.0
H558 H 0.80688 0.59977 0.0612 0.0
H559 H 0.80409 0.55128 0.06167 0.0
C560 C 0.7776 0.67579 0.06368 0.0
C561 C 0.77288 0.69041 1.00177 0.0
C562 C 0.77763 0.64817 0.06206 0.0
C563 C 0.77276 0.63456 0.99864 0.0
C564 C 0.76832 0.64911 0.93663 0.0
C565 C 0.76848 0.67672 0.93809 0.0
C566 C 0.74962 0.5646 0.96228 0.0
C567 C 0.76852 0.54971 0.99883 0.0
C568 C 0.75119 0.59216 0.96146 0.0
C569 C 0.77166 0.60527 0.99757 0.0
C570 C 0.79072 0.59021 0.03364 0.0
C571 C 0.78922 0.56262 0.03391 0.0
H572 H 0.80764 0.27112 0.38548 0.0
H573 H 0.80802 0.28235 0.61204 0.0
H574 H 0.85574 0.27012 0.38561 0.0
H575 H 0.85617 0.28117 0.61179 0.0
H576 H 0.94377 0.30192 0.56849 0.0
H577 H 0.89552 0.30683 0.56713 0.0
H578 H 0.88934 0.23812 0.43219 0.0
H579 H 0.93735 0.23317 0.43491 0.0
C580 C 0.81794 0.27355 0.43525 0.0
C581 C 0.80394 0.27663 0.49883 0.0
C582 C 0.84548 0.27284 0.43528 0.0
C583 C 0.85963 0.27541 0.49874 0.0
C584 C 0.84574 0.2793 0.56204 0.0
C585 C 0.81816 0.2798 0.56216 0.0
C586 C 0.93192 0.28793 0.53892 0.0
C587 C 0.94403 0.2673 0.50144 0.0
C588 C 0.90446 0.29069 0.53805 0.0
C589 C 0.88875 0.27295 0.49918 0.0
C590 C 0.90099 0.25235 0.46159 0.0
C591 C 0.92837 0.2495 0.46303 0.0
H592 H 0.72841 0.18618 0.39019 0.0
H593 H 0.70771 0.18585 0.61179 0.0
H594 H 0.7281 0.13802 0.3894 0.0
H595 H 0.70752 0.13756 0.61063 0.0
H596 H 0.68454 0.05095 0.55701 0.0
H597 H 0.68202 0.0995 0.55604 0.0
H598 H 0.75624 0.10266 0.44395 0.0
H599 H 0.75865 0.05426 0.44614 0.0
C600 C 0.72369 0.17588 0.4387 0.0
C601 C 0.7182 0.18993 0.50118 0.0
C602 C 0.72364 0.14828 0.43822 0.0
C603 C 0.71788 0.13409 0.49998 0.0
C604 C 0.71185 0.14803 0.56212 0.0
C605 C 0.71213 0.17568 0.56283 0.0
C606 C 0.70024 0.06224 0.5326 0.0
C607 C 0.72184 0.04925 0.50203 0.0
C608 C 0.69887 0.08985 0.53202 0.0
C609 C 0.71895 0.10481 0.49995 0.0
C610 C 0.74035 0.09164 0.46839 0.0
C611 C 0.74181 0.06409 0.46968 0.0
H612 H 0.30753 0.21157 0.88922 0.0
H613 H 0.30803 0.22424 0.11526 0.0
H614 H 0.35571 0.21258 0.88851 0.0
H615 H 0.35609 0.22505 0.11418 0.0
H616 H 0.43798 0.26024 0.06461 0.0
H617 H 0.38987 0.25628 0.06627 0.0
H618 H 0.39497 0.18689 0.93354 0.0
H619 H 0.44332 0.19085 0.93311 0.0
C620 C 0.31786 0.21442 0.93877 0.0
C621 C 0.30387 0.21801 1.00224 0.0
C622 C 0.34545 0.21483 0.93834 0.0
C623 C 0.35958 0.21904 1.00122 0.0
C624 C 0.34566 0.2221 0.06479 0.0
C625 C 0.31812 0.2215 0.06537 0.0
C626 C 0.42872 0.24401 0.03665 0.0
C627 C 0.44411 0.22569 0.9993 0.0
C628 C 0.40129 0.24172 0.03748 0.0
C629 C 0.38873 0.22118 1.00038 0.0
C630 C 0.40416 0.203 0.96224 0.0
C631 C 0.43167 0.20521 0.96194 0.0
H632 H 0.2677 0.80642 0.38804 0.0
H633 H 0.28146 0.80676 0.61361 0.0
H634 H 0.26677 0.85455 0.38828 0.0
H635 H 0.28028 0.85497 0.61351 0.0
H636 H 0.30074 0.94264 0.56898 0.0
H637 H 0.30523 0.89429 0.56803 0.0
H638 H 0.23582 0.88845 0.43593 0.0
H639 H 0.23137 0.93658 0.43799 0.0
C640 C 0.27067 0.8167 0.43763 0.0
C641 C 0.27449 0.80267 0.5009 0.0
C642 C 0.26999 0.84429 0.43774 0.0
C643 C 0.27328 0.85847 0.50097 0.0
C644 C 0.27785 0.84454 0.56392 0.0
C645 C 0.27837 0.81691 0.56395 0.0
C646 C 0.2865 0.93084 0.54013 0.0
C647 C 0.26585 0.94308 0.50317 0.0
C648 C 0.28902 0.90331 0.53953 0.0
C649 C 0.27096 0.88766 0.50151 0.0
C650 C 0.25029 0.90003 0.46462 0.0
C651 C 0.24771 0.92748 0.46572 0.0
H652 H 0.68446 0.77112 0.12062 0.0
H653 H 0.68393 0.78494 0.89517 0.0
H654 H 0.6364 0.77005 0.12064 0.0
H655 H 0.6358 0.78361 0.89551 0.0
H656 H 0.54806 0.80278 0.93885 0.0
H657 H 0.59626 0.80802 0.94065 0.0
H658 H 0.60278 0.73886 0.07335 0.0
H659 H 0.55479 0.73367 0.07047 0.0
C660 C 0.67415 0.77409 0.07111 0.0
C661 C 0.68812 0.77792 0.00778 0.0
C662 C 0.6466 0.77333 0.07116 0.0
C663 C 0.63238 0.77656 0.00802 0.0
C664 C 0.64625 0.78123 0.94505 0.0
C665 C 0.67383 0.78183 0.94487 0.0
C666 C 0.55997 0.78878 0.96809 0.0
C667 C 0.54796 0.76795 0.00489 0.0
C668 C 0.58742 0.79172 0.96917 0.0
C669 C 0.60324 0.77393 0.0075 0.0
C670 C 0.59108 0.75314 0.04441 0.0
C671 C 0.5637 0.75014 0.04286 0.0
loop_
_geom_bond_atom_site_label_1
_geom_bond_atom_site_label_2
_geom_bond_distance
_geom_bond_site_symmetry_2
_ccdc_geom_bond_type
Sc0 O3 2.026 . S
Sc0 O10 2.105 . S
Sc0 O13 2.105 . S
Sc0 O16 2.105 . S
Sc0 O19 2.105 . S
Sc1 O3 2.025 . S
Sc1 O11 2.105 . S
Sc1 O15 2.105 1_554 S
Sc1 O17 2.105 . S
Sc1 O21 2.105 1_554 S
Sc2 O3 2.024 1_556 S
Sc2 O12 2.105 . S
Sc2 O14 2.105 . S
Sc2 O18 2.105 . S
Sc2 O20 2.105 . S
O3 Sc0 2.026 . S
O3 Sc1 2.025 . S
O3 Sc2 2.024 1_554 S
C4 O10 1.270 . S
C4 O20 1.266 1_554 S
C5 O11 1.268 . S
C5 O19 1.268 . S
C6 O12 1.268 . S
C6 O21 1.268 . S
C7 O13 1.268 . S
C7 O17 1.268 . S
C8 O14 1.266 1_554 S
C8 O16 1.270 . S
C9 O15 1.268 . S
C9 O18 1.268 . S
O10 Sc0 2.105 . S
O10 C4 1.270 . S
O11 Sc1 2.105 . S
O11 C5 1.268 . S
O12 Sc2 2.105 . S
O12 C6 1.268 . S
O13 Sc0 2.105 . S
O13 C7 1.268 . S
O14 Sc2 2.105 . S
O14 C8 1.266 1_556 S
O15 Sc1 2.105 1_556 S
O15 C9 1.268 . S
O16 Sc0 2.105 . S
O16 C8 1.270 . S
O17 Sc1 2.105 . S
O17 C7 1.268 . S
O18 Sc2 2.105 . S
O18 C9 1.268 . S
O19 Sc0 2.105 . S
O19 C5 1.268 . S
O20 Sc2 2.105 . S
O20 C4 1.266 1_556 S
O21 Sc1 2.105 1_556 S
O21 C6 1.268 . S
Sc22 O25 2.025 . S
Sc22 O32 2.105 . S
Sc22 O35 2.105 . S
Sc22 O38 2.105 . S
Sc22 O41 2.105 . S
Sc23 O25 2.025 . S
Sc23 O33 2.105 . S
Sc23 O37 2.105 . S
Sc23 O39 2.105 . S
Sc23 O43 2.105 . S
Sc24 O25 2.025 . S
Sc24 O34 2.105 . S
Sc24 O36 2.105 . S
Sc24 O40 2.105 . S
Sc24 O42 2.105 . S
O25 Sc22 2.025 . S
O25 Sc23 2.025 . S
O25 Sc24 2.025 . S
C26 O32 1.268 . S
C26 O42 1.268 . S
C27 O33 1.268 . S
C27 O41 1.268 . S
C28 O34 1.268 . S
C28 O43 1.268 . S
C29 O35 1.268 . S
C29 O39 1.268 . S
C30 O36 1.268 . S
C30 O38 1.268 . S
C31 O37 1.268 . S
C31 O40 1.268 . S
O32 Sc22 2.105 . S
O32 C26 1.268 . S
O33 Sc23 2.105 . S
O33 C27 1.268 . S
O34 Sc24 2.105 . S
O34 C28 1.268 . S
O35 Sc22 2.105 . S
O35 C29 1.268 . S
O36 Sc24 2.105 . S
O36 C30 1.268 . S
O37 Sc23 2.105 . S
O37 C31 1.268 . S
O38 Sc22 2.105 . S
O38 C30 1.268 . S
O39 Sc23 2.105 . S
O39 C29 1.268 . S
O40 Sc24 2.105 . S
O40 C31 1.268 . S
O41 Sc22 2.105 . S
O41 C27 1.268 . S
O42 Sc24 2.105 . S
O42 C26 1.268 . S
O43 Sc23 2.105 . S
O43 C28 1.268 . S
Sc44 O47 2.020 1_556 S
Sc44 O54 2.105 . S
Sc44 O57 2.105 . S
Sc44 O60 2.105 . S
Sc44 O63 2.105 . S
Sc45 O47 2.025 . S
Sc45 O55 2.100 1_554 S
Sc45 O59 2.110 . S
Sc45 O61 2.100 1_554 S
Sc45 O65 2.110 . S
Sc46 O47 2.031 . S
Sc46 O56 2.105 . S
Sc46 O58 2.105 . S
Sc46 O62 2.105 . S
Sc46 O64 2.105 . S
O47 Sc44 2.020 1_554 S
O47 Sc45 2.025 . S
O47 Sc46 2.031 . S
C48 O54 1.264 1_554 S
C48 O64 1.272 . S
C49 O55 1.268 . S
C49 O63 1.268 . S
C50 O56 1.268 . S
C50 O65 1.268 . S
C51 O57 1.268 . S
C51 O61 1.268 . S
C52 O58 1.272 . S
C52 O60 1.264 1_554 S
C53 O59 1.268 . S
C53 O62 1.268 . S
O54 Sc44 2.105 . S
O54 C48 1.264 1_556 S
O55 Sc45 2.100 1_556 S
O55 C49 1.268 . S
O56 Sc46 2.105 . S
O56 C50 1.268 . S
O57 Sc44 2.105 . S
O57 C51 1.268 . S
O58 Sc46 2.105 . S
O58 C52 1.272 . S
O59 Sc45 2.110 . S
O59 C53 1.268 . S
O60 Sc44 2.105 . S
O60 C52 1.264 1_556 S
O61 Sc45 2.100 1_556 S
O61 C51 1.268 . S
O62 Sc46 2.105 . S
O62 C53 1.268 . S
O63 Sc44 2.105 . S
O63 C49 1.268 . S
O64 Sc46 2.105 . S
O64 C48 1.272 . S
O65 Sc45 2.110 . S
O65 C50 1.268 . S
Sc66 O69 2.025 . S
Sc66 O76 2.105 . S
Sc66 O79 2.105 . S
Sc66 O82 2.105 . S
Sc66 O85 2.105 . S
Sc67 O69 2.025 . S
Sc67 O77 2.105 . S
Sc67 O81 2.105 . S
Sc67 O83 2.105 . S
Sc67 O87 2.105 . S
Sc68 O69 2.025 . S
Sc68 O78 2.105 . S
Sc68 O80 2.105 . S
Sc68 O84 2.105 . S
Sc68 O86 2.105 . S
O69 Sc66 2.025 . S
O69 Sc67 2.025 . S
O69 Sc68 2.025 . S
C70 O76 1.268 . S
C70 O86 1.268 . S
C71 O77 1.268 . S
C71 O85 1.268 . S
C72 O78 1.268 . S
C72 O87 1.268 . S
C73 O79 1.268 . S
C73 O83 1.268 . S
C74 O80 1.268 . S
C74 O82 1.268 . S
C75 O81 1.268 . S
C75 O84 1.268 . S
O76 Sc66 2.105 . S
O76 C70 1.268 . S
O77 Sc67 2.105 . S
O77 C71 1.268 . S
O78 Sc68 2.105 . S
O78 C72 1.268 . S
O79 Sc66 2.105 . S
O79 C73 1.268 . S
O80 Sc68 2.105 . S
O80 C74 1.268 . S
O81 Sc67 2.105 . S
O81 C75 1.268 . S
O82 Sc66 2.105 . S
O82 C74 1.268 . S
O83 Sc67 2.105 . S
O83 C73 1.268 . S
O84 Sc68 2.105 . S
O84 C75 1.268 . S
O85 Sc66 2.105 . S
O85 C71 1.268 . S
O86 Sc68 2.105 . S
O86 C70 1.268 . S
O87 Sc67 2.105 . S
O87 C72 1.268 . S
C88 N89 1.317 . S
C88 N90 1.361 . S
C88 C91 1.485 . S
N89 C88 1.317 . S
N89 N93 1.370 1_556 S
N90 C88 1.361 . S
N90 C92 1.334 1_556 S
C91 C88 1.485 . S
C91 H95 0.960 . S
C91 H96 0.961 . S
C91 H97 0.960 . S
C92 N90 1.334 1_554 S
C92 N93 1.307 . S
C92 C94 1.486 . S
N93 N89 1.370 1_554 S
N93 C92 1.307 . S
C94 C92 1.486 . S
C94 H98 0.960 . S
C94 H99 0.960 . S
C94 H100 0.959 . S
H95 C91 0.960 . S
H96 C91 0.961 . S
H97 C91 0.960 . S
H98 C94 0.960 . S
H99 C94 0.960 . S
H100 C94 0.959 . S
C101 N102 1.317 1_455 S
C101 N103 1.348 . S
C101 C104 1.485 . S
N102 C101 1.317 1_655 S
N102 N106 1.370 . S
N103 C101 1.348 . S
N103 C105 1.346 . S
C104 C101 1.485 . S
C104 H108 0.960 . S
C104 H109 0.961 . S
C104 H110 0.960 1_455 S
C105 N103 1.346 . S
C105 N106 1.307 1_455 S
C105 C107 1.486 . S
N106 N102 1.370 . S
N106 C105 1.307 1_655 S
C107 C105 1.486 . S
C107 H111 0.960 . S
C107 H112 0.960 . S
C107 H113 0.959 1_455 S
H108 C104 0.960 . S
H109 C104 0.961 . S
H110 C104 0.960 1_655 S
H111 C107 0.960 . S
H112 C107 0.960 . S
H113 C107 0.959 1_655 S
C114 N115 1.317 . S
C114 N116 1.348 . S
C114 C117 1.485 . S
N115 C114 1.317 . S
N115 N119 1.370 1_554 S
N116 C114 1.348 . S
N116 C118 1.346 1_554 S
C117 C114 1.485 . S
C117 H121 0.960 . S
C117 H122 0.961 . S
C117 H123 0.960 . S
C118 N116 1.346 1_556 S
C118 N119 1.307 . S
C118 C120 1.486 . S
N119 N115 1.370 1_556 S
N119 C118 1.307 . S
C120 C118 1.486 . S
C120 H124 0.960 . S
C120 H125 0.960 . S
C120 H126 0.959 . S
H121 C117 0.960 . S
H122 C117 0.961 . S
H123 C117 0.960 . S
H124 C120 0.960 . S
H125 C120 0.960 . S
H126 C120 0.959 . S
C127 N128 1.317 1_655 S
C127 N129 1.348 . S
C127 C130 1.485 . S
N128 C127 1.317 1_455 S
N128 N132 1.370 . S
N129 C127 1.348 . S
N129 C131 1.346 . S
C130 C127 1.485 . S
C130 H134 0.960 . S
C130 H135 0.961 . S
C130 H136 0.944 1_655 S
C131 N129 1.346 . S
C131 N132 1.307 1_655 S
C131 C133 1.486 . S
N132 N128 1.370 . S
N132 C131 1.307 1_455 S
C133 C131 1.486 . S
C133 H137 0.960 . S
C133 H138 0.960 . S
C133 H139 0.959 1_655 S
H134 C130 0.960 . S
H135 C130 0.961 . S
H136 C130 0.944 1_455 S
H137 C133 0.960 . S
H138 C133 0.960 . S
H139 C133 0.959 1_455 S
C140 N141 1.317 1_545 S
C140 N142 1.348 . S
C140 C143 1.485 . S
N141 C140 1.317 1_565 S
N141 N145 1.370 . S
N142 C140 1.348 . S
N142 C144 1.346 . S
C143 C140 1.485 . S
C143 H147 0.960 . S
C143 H148 0.961 . S
C143 H149 0.944 1_545 S
C144 N142 1.346 . S
C144 N145 1.307 1_545 S
C144 C146 1.486 . S
N145 N141 1.370 . S
N145 C144 1.307 1_565 S
C146 C144 1.486 . S
C146 H150 0.960 . S
C146 H151 0.960 . S
C146 H152 0.959 1_545 S
H147 C143 0.960 . S
H148 C143 0.961 . S
H149 C143 0.944 1_565 S
H150 C146 0.960 . S
H151 C146 0.960 . S
H152 C146 0.959 1_565 S
C153 N154 1.317 . S
C153 N155 1.361 . S
C153 C156 1.485 . S
N154 C153 1.317 . S
N154 N158 1.370 1_556 S
N155 C153 1.361 . S
N155 C157 1.334 1_556 S
C156 C153 1.485 . S
C156 H160 0.960 . S
C156 H161 0.961 . S
C156 H162 0.960 . S
C157 N155 1.334 1_554 S
C157 N158 1.307 . S
C157 C159 1.486 . S
N158 N154 1.370 1_554 S
N158 C157 1.307 . S
C159 C157 1.486 . S
C159 H163 0.960 . S
C159 H164 0.960 . S
C159 H165 0.959 . S
H160 C156 0.960 . S
H161 C156 0.961 . S
H162 C156 0.960 . S
H163 C159 0.960 . S
H164 C159 0.960 . S
H165 C159 0.959 . S
C166 N167 1.317 1_565 S
C166 N168 1.348 . S
C166 C169 1.485 . S
N167 C166 1.317 1_545 S
N167 N171 1.370 . S
N168 C166 1.348 . S
N168 C170 1.346 . S
C169 C166 1.485 . S
C169 H173 0.960 . S
C169 H174 0.961 . S
C169 H175 0.960 1_565 S
C170 N168 1.346 . S
C170 N171 1.307 1_565 S
C170 C172 1.486 . S
N171 N167 1.370 . S
N171 C170 1.307 1_545 S
C172 C170 1.486 . S
C172 H176 0.960 . S
C172 H177 0.960 . S
C172 H178 0.959 1_565 S
H173 C169 0.960 . S
H174 C169 0.961 . S
H175 C169 0.960 1_545 S
H176 C172 0.960 . S
H177 C172 0.960 . S
H178 C172 0.959 1_545 S
C179 N180 1.317 . S
C179 N181 1.348 . S
C179 C182 1.485 . S
N180 C179 1.317 . S
N180 N184 1.370 1_554 S
N181 C179 1.348 . S
N181 C183 1.346 1_554 S
C182 C179 1.485 . S
C182 H186 0.960 . S
C182 H187 0.961 . S
C182 H188 0.960 . S
C183 N181 1.346 1_556 S
C183 N184 1.307 . S
C183 C185 1.486 . S
N184 N180 1.370 1_556 S
N184 C183 1.307 . S
C185 C183 1.486 . S
C185 H189 0.960 . S
C185 H190 0.960 . S
C185 H191 0.959 . S
H186 C182 0.960 . S
H187 C182 0.961 . S
H188 C182 0.960 . S
H189 C185 0.960 . S
H190 C185 0.960 . S
H191 C185 0.959 . S
H192 C200 0.950 . S
H193 C205 0.950 . S
H194 C202 0.950 . S
H195 C204 0.950 . S
H196 C206 0.950 . S
H197 C208 0.950 . S
H198 C210 0.950 . S
H199 C211 0.950 . S
C200 H192 0.950 . S
C200 C201 1.386 . S
C200 C202 1.391 . S
C201 C200 1.386 . S
C201 C205 1.393 . S
C202 H194 0.950 . S
C202 C200 1.391 . S
C202 C203 1.400 . S
C203 C202 1.400 . S
C203 C204 1.398 . S
C203 C209 1.491 . S
C204 H195 0.950 . S
C204 C203 1.398 . S
C204 C205 1.391 . S
C205 H193 0.950 . S
C205 C201 1.393 . S
C205 C204 1.391 . S
C206 H196 0.950 . S
C206 C207 1.386 . S
C206 C208 1.391 . S
C207 C206 1.386 . S
C207 C211 1.393 . S
C208 H197 0.950 . S
C208 C206 1.391 . S
C208 C209 1.400 . S
C209 C203 1.491 . S
C209 C208 1.400 . S
C209 C210 1.398 . S
C210 H198 0.950 . S
C210 C209 1.398 . S
C210 C211 1.391 . S
C211 H199 0.950 . S
C211 C207 1.393 . S
C211 C210 1.391 . S
H212 C220 0.950 . S
H213 C225 0.950 . S
H214 C222 0.950 . S
H215 C224 0.950 . S
H216 C226 0.950 . S
H217 C228 0.950 . S
H218 C230 0.950 . S
H219 C231 0.950 . S
C220 H212 0.950 . S
C220 C221 1.386 . S
C220 C222 1.391 . S
C221 C220 1.386 . S
C221 C225 1.393 . S
C222 H214 0.950 . S
C222 C220 1.391 . S
C222 C223 1.400 . S
C223 C222 1.400 . S
C223 C224 1.398 . S
C223 C229 1.491 . S
C224 H215 0.950 . S
C224 C223 1.398 . S
C224 C225 1.391 . S
C225 H213 0.950 . S
C225 C221 1.393 . S
C225 C224 1.391 . S
C226 H216 0.950 . S
C226 C227 1.386 . S
C226 C228 1.391 . S
C227 C226 1.386 . S
C227 C231 1.393 . S
C228 H217 0.950 . S
C228 C226 1.391 . S
C228 C229 1.400 . S
C229 C223 1.491 . S
C229 C228 1.400 . S
C229 C230 1.398 . S
C230 H218 0.950 . S
C230 C229 1.398 . S
C230 C231 1.391 . S
C231 H219 0.950 . S
C231 C227 1.393 . S
C231 C230 1.391 . S
H232 C240 0.950 . S
H233 C245 0.950 . S
H234 C242 0.950 . S
H235 C244 0.950 . S
H236 C246 0.950 . S
H237 C248 0.950 . S
H238 C250 0.950 . S
H239 C251 0.950 . S
C240 H232 0.950 . S
C240 C241 1.386 . S
C240 C242 1.391 . S
C241 C240 1.386 . S
C241 C245 1.393 . S
C242 H234 0.950 . S
C242 C240 1.391 . S
C242 C243 1.400 . S
C243 C242 1.400 . S
C243 C244 1.398 . S
C243 C249 1.491 . S
C244 H235 0.950 . S
C244 C243 1.398 . S
C244 C245 1.391 . S
C245 H233 0.950 . S
C245 C241 1.393 . S
C245 C244 1.391 . S
C246 H236 0.950 . S
C246 C247 1.386 . S
C246 C248 1.391 . S
C247 C246 1.386 . S
C247 C251 1.393 . S
C248 H237 0.950 . S
C248 C246 1.391 . S
C248 C249 1.400 . S
C249 C243 1.491 . S
C249 C248 1.400 . S
C249 C250 1.398 . S
C250 H238 0.950 . S
C250 C249 1.398 . S
C250 C251 1.391 . S
C251 H239 0.950 . S
C251 C247 1.393 . S
C251 C250 1.391 . S
H252 C260 0.950 . S
H253 C265 0.950 . S
H254 C262 0.950 . S
H255 C264 0.950 . S
H256 C266 0.950 . S
H257 C268 0.950 . S
H258 C270 0.950 . S
H259 C271 0.950 . S
C260 H252 0.950 . S
C260 C261 1.386 . S
C260 C262 1.391 . S
C261 C260 1.386 . S
C261 C265 1.393 . S
C262 H254 0.950 . S
C262 C260 1.391 . S
C262 C263 1.400 . S
C263 C262 1.400 . S
C263 C264 1.398 . S
C263 C269 1.491 . S
C264 H255 0.950 . S
C264 C263 1.398 . S
C264 C265 1.391 . S
C265 H253 0.950 . S
C265 C261 1.393 . S
C265 C264 1.391 . S
C266 H256 0.950 . S
C266 C267 1.386 . S
C266 C268 1.391 . S
C267 C266 1.386 . S
C267 C271 1.393 . S
C268 H257 0.950 . S
C268 C266 1.391 . S
C268 C269 1.400 . S
C269 C263 1.491 . S
C269 C268 1.400 . S
C269 C270 1.398 . S
C270 H258 0.950 . S
C270 C269 1.398 . S
C270 C271 1.391 . S
C271 H259 0.950 . S
C271 C267 1.393 . S
C271 C270 1.391 . S
H272 C280 0.950 . S
H273 C285 0.950 . S
H274 C282 0.950 . S
H275 C284 0.950 . S
H276 C286 0.950 . S
H277 C288 0.950 . S
H278 C290 0.950 . S
H279 C291 0.950 . S
C280 H272 0.950 . S
C280 C281 1.386 . S
C280 C282 1.391 . S
C281 C280 1.386 . S
C281 C285 1.393 . S
C282 H274 0.950 . S
C282 C280 1.391 . S
C282 C283 1.400 . S
C283 C282 1.400 . S
C283 C284 1.398 . S
C283 C289 1.491 . S
C284 H275 0.950 . S
C284 C283 1.398 . S
C284 C285 1.391 . S
C285 H273 0.950 . S
C285 C281 1.393 . S
C285 C284 1.391 . S
C286 H276 0.950 . S
C286 C287 1.386 . S
C286 C288 1.391 . S
C287 C286 1.386 . S
C287 C291 1.393 . S
C288 H277 0.950 . S
C288 C286 1.391 . S
C288 C289 1.400 . S
C289 C283 1.491 . S
C289 C288 1.400 . S
C289 C290 1.398 . S
C290 H278 0.950 . S
C290 C289 1.398 . S
C290 C291 1.391 . S
C291 H279 0.950 . S
C291 C287 1.393 . S
C291 C290 1.391 . S
H292 C300 0.950 . S
H293 C305 0.950 . S
H294 C302 0.950 . S
H295 C304 0.950 . S
H296 C306 0.950 . S
H297 C308 0.950 . S
H298 C310 0.950 . S
H299 C311 0.950 . S
C300 H292 0.950 . S
C300 C301 1.386 . S
C300 C302 1.391 . S
C301 C300 1.386 . S
C301 C305 1.393 . S
C302 H294 0.950 . S
C302 C300 1.391 . S
C302 C303 1.400 . S
C303 C302 1.400 . S
C303 C304 1.398 . S
C303 C309 1.491 . S
C304 H295 0.950 . S
C304 C303 1.398 . S
C304 C305 1.391 . S
C305 H293 0.950 . S
C305 C301 1.393 . S
C305 C304 1.391 . S
C306 H296 0.950 . S
C306 C307 1.386 . S
C306 C308 1.391 . S
C307 C306 1.386 . S
C307 C311 1.393 . S
C308 H297 0.950 . S
C308 C306 1.391 . S
C308 C309 1.400 . S
C309 C303 1.491 . S
C309 C308 1.400 . S
C309 C310 1.398 . S
C310 H298 0.950 . S
C310 C309 1.398 . S
C310 C311 1.391 . S
C311 H299 0.950 . S
C311 C307 1.393 . S
C311 C310 1.391 . S
H312 C320 0.950 . S
H313 C325 0.950 . S
H314 C322 0.950 . S
H315 C324 0.950 . S
H316 C326 0.950 . S
H317 C328 0.950 . S
H318 C330 0.950 . S
H319 C331 0.950 . S
C320 H312 0.950 . S
C320 C321 1.386 . S
C320 C322 1.391 . S
C321 C320 1.386 . S
C321 C325 1.393 . S
C322 H314 0.950 . S
C322 C320 1.391 . S
C322 C323 1.400 . S
C323 C322 1.400 . S
C323 C324 1.398 . S
C323 C329 1.491 . S
C324 H315 0.950 . S
C324 C323 1.398 . S
C324 C325 1.391 . S
C325 H313 0.950 . S
C325 C321 1.393 . S
C325 C324 1.391 . S
C326 H316 0.950 . S
C326 C327 1.386 . S
C326 C328 1.391 . S
C327 C326 1.386 . S
C327 C331 1.393 . S
C328 H317 0.950 . S
C328 C326 1.391 . S
C328 C329 1.400 . S
C329 C323 1.491 . S
C329 C328 1.400 . S
C329 C330 1.398 . S
C330 H318 0.950 . S
C330 C329 1.398 . S
C330 C331 1.391 . S
C331 H319 0.950 . S
C331 C327 1.393 . S
C331 C330 1.391 . S
H332 C340 0.950 . S
H333 C345 0.950 . S
H334 C342 0.950 . S
H335 C344 0.950 . S
H336 C346 0.950 . S
H337 C348 0.950 . S
H338 C350 0.950 . S
H339 C351 0.950 . S
C340 H332 0.950 . S
C340 C341 1.386 . S
C340 C342 1.391 . S
C341 C340 1.386 . S
C341 C345 1.393 . S
C342 H334 0.950 . S
C342 C340 1.391 . S
C342 C343 1.400 . S
C343 C342 1.400 . S
C343 C344 1.398 . S
C343 C349 1.491 . S
C344 H335 0.950 . S
C344 C343 1.398 . S
C344 C345 1.391 . S
C345 H333 0.950 . S
C345 C341 1.393 . S
C345 C344 1.391 . S
C346 H336 0.950 . S
C346 C347 1.386 . S
C346 C348 1.391 . S
C347 C346 1.386 . S
C347 C351 1.393 . S
C348 H337 0.950 . S
C348 C346 1.391 . S
C348 C349 1.400 . S
C349 C343 1.491 . S
C349 C348 1.400 . S
C349 C350 1.398 . S
C350 H338 0.950 . S
C350 C349 1.398 . S
C350 C351 1.391 . S
C351 H339 0.950 . S
C351 C347 1.393 . S
C351 C350 1.391 . S
H352 C360 0.950 . S
H353 C365 0.950 . S
H354 C362 0.950 . S
H355 C364 0.950 . S
H356 C366 0.950 . S
H357 C368 0.950 . S
H358 C370 0.950 . S
H359 C371 0.950 . S
C360 H352 0.950 . S
C360 C361 1.386 . S
C360 C362 1.391 . S
C361 C360 1.386 . S
C361 C365 1.393 . S
C362 H354 0.950 . S
C362 C360 1.391 . S
C362 C363 1.400 . S
C363 C362 1.400 . S
C363 C364 1.398 . S
C363 C369 1.491 . S
C364 H355 0.950 . S
C364 C363 1.398 . S
C364 C365 1.391 . S
C365 H353 0.950 . S
C365 C361 1.393 . S
C365 C364 1.391 . S
C366 H356 0.950 . S
C366 C367 1.386 . S
C366 C368 1.391 . S
C367 C366 1.386 . S
C367 C371 1.393 . S
C368 H357 0.950 . S
C368 C366 1.391 . S
C368 C369 1.400 . S
C369 C363 1.491 . S
C369 C368 1.400 . S
C369 C370 1.398 . S
C370 H358 0.950 . S
C370 C369 1.398 . S
C370 C371 1.391 . S
C371 H359 0.950 . S
C371 C367 1.393 . S
C371 C370 1.391 . S
H372 C380 0.950 . S
H373 C385 0.950 . S
H374 C382 0.950 . S
H375 C384 0.950 . S
H376 C386 0.950 . S
H377 C388 0.950 . S
H378 C390 0.950 . S
H379 C391 0.950 . S
C380 H372 0.950 . S
C380 C381 1.386 . S
C380 C382 1.391 . S
C381 C380 1.386 . S
C381 C385 1.393 . S
C382 H374 0.950 . S
C382 C380 1.391 . S
C382 C383 1.400 . S
C383 C382 1.400 . S
C383 C384 1.398 . S
C383 C389 1.491 . S
C384 H375 0.950 . S
C384 C383 1.398 . S
C384 C385 1.391 . S
C385 H373 0.950 . S
C385 C381 1.393 . S
C385 C384 1.391 . S
C386 H376 0.950 . S
C386 C387 1.386 . S
C386 C388 1.391 . S
C387 C386 1.386 . S
C387 C391 1.393 . S
C388 H377 0.950 . S
C388 C386 1.391 . S
C388 C389 1.400 . S
C389 C383 1.491 . S
C389 C388 1.400 . S
C389 C390 1.398 . S
C390 H378 0.950 . S
C390 C389 1.398 . S
C390 C391 1.391 . S
C391 H379 0.950 . S
C391 C387 1.393 . S
C391 C390 1.391 . S
H392 C400 0.950 . S
H393 C405 0.950 . S
H394 C402 0.950 . S
H395 C404 0.950 . S
H396 C406 0.950 . S
H397 C408 0.950 . S
H398 C410 0.950 . S
H399 C411 0.950 . S
C400 H392 0.950 . S
C400 C401 1.386 . S
C400 C402 1.391 . S
C401 C400 1.386 . S
C401 C405 1.393 . S
C402 H394 0.950 . S
C402 C400 1.391 . S
C402 C403 1.400 . S
C403 C402 1.400 . S
C403 C404 1.398 . S
C403 C409 1.491 . S
C404 H395 0.950 . S
C404 C403 1.398 . S
C404 C405 1.391 . S
C405 H393 0.950 . S
C405 C401 1.393 . S
C405 C404 1.391 . S
C406 H396 0.950 . S
C406 C407 1.386 . S
C406 C408 1.391 . S
C407 C406 1.386 . S
C407 C411 1.393 . S
C408 H397 0.950 . S
C408 C406 1.391 . S
C408 C409 1.400 . S
C409 C403 1.491 . S
C409 C408 1.400 . S
C409 C410 1.398 . S
C410 H398 0.950 . S
C410 C409 1.398 . S
C410 C411 1.391 . S
C411 H399 0.950 . S
C411 C407 1.393 . S
C411 C410 1.391 . S
H412 C420 0.950 . S
H413 C425 0.950 . S
H414 C422 0.950 . S
H415 C424 0.950 . S
H416 C426 0.950 . S
H417 C428 0.950 . S
H418 C430 0.950 . S
H419 C431 0.950 . S
C420 H412 0.950 . S
C420 C421 1.386 . S
C420 C422 1.391 . S
C421 C420 1.386 . S
C421 C425 1.393 . S
C422 H414 0.950 . S
C422 C420 1.391 . S
C422 C423 1.400 . S
C423 C422 1.400 . S
C423 C424 1.398 . S
C423 C429 1.491 . S
C424 H415 0.950 . S
C424 C423 1.398 . S
C424 C425 1.391 . S
C425 H413 0.950 . S
C425 C421 1.393 . S
C425 C424 1.391 . S
C426 H416 0.950 . S
C426 C427 1.386 . S
C426 C428 1.391 . S
C427 C426 1.386 . S
C427 C431 1.393 . S
C428 H417 0.950 . S
C428 C426 1.391 . S
C428 C429 1.400 . S
C429 C423 1.491 . S
C429 C428 1.400 . S
C429 C430 1.398 . S
C430 H418 0.950 . S
C430 C429 1.398 . S
C430 C431 1.391 . S
C431 H419 0.950 . S
C431 C427 1.393 . S
C431 C430 1.391 . S
H432 C440 0.950 . S
H433 C445 0.950 . S
H434 C442 0.950 . S
H435 C444 0.950 . S
H436 C446 0.950 . S
H437 C448 0.950 . S
H438 C450 0.950 . S
H439 C451 0.950 . S
C440 H432 0.950 . S
C440 C441 1.386 . S
C440 C442 1.391 . S
C441 C440 1.386 . S
C441 C445 1.393 . S
C442 H434 0.950 . S
C442 C440 1.391 . S
C442 C443 1.400 . S
C443 C442 1.400 . S
C443 C444 1.398 . S
C443 C449 1.491 . S
C444 H435 0.950 . S
C444 C443 1.398 . S
C444 C445 1.391 . S
C445 H433 0.950 . S
C445 C441 1.393 . S
C445 C444 1.391 . S
C446 H436 0.950 . S
C446 C447 1.386 . S
C446 C448 1.391 . S
C447 C446 1.386 . S
C447 C451 1.393 . S
C448 H437 0.950 . S
C448 C446 1.391 . S
C448 C449 1.400 . S
C449 C443 1.491 . S
C449 C448 1.400 . S
C449 C450 1.398 . S
C450 H438 0.950 . S
C450 C449 1.398 . S
C450 C451 1.391 . S
C451 H439 0.950 . S
C451 C447 1.393 . S
C451 C450 1.391 . S
H452 C460 0.950 . S
H453 C465 0.950 . S
H454 C462 0.950 . S
H455 C464 0.950 . S
H456 C466 0.950 . S
H457 C468 0.950 . S
H458 C470 0.950 . S
H459 C471 0.950 . S
C460 H452 0.950 . S
C460 C461 1.386 . S
C460 C462 1.391 . S
C461 C460 1.386 . S
C461 C465 1.393 . S
C462 H454 0.950 . S
C462 C460 1.391 . S
C462 C463 1.400 . S
C463 C462 1.400 . S
C463 C464 1.398 . S
C463 C469 1.491 . S
C464 H455 0.950 . S
C464 C463 1.398 . S
C464 C465 1.391 . S
C465 H453 0.950 . S
C465 C461 1.393 . S
C465 C464 1.391 . S
C466 H456 0.950 . S
C466 C467 1.386 . S
C466 C468 1.391 . S
C467 C466 1.386 . S
C467 C471 1.393 . S
C468 H457 0.950 . S
C468 C466 1.391 . S
C468 C469 1.400 . S
C469 C463 1.491 . S
C469 C468 1.400 . S
C469 C470 1.398 . S
C470 H458 0.950 . S
C470 C469 1.398 . S
C470 C471 1.391 . S
C471 H459 0.950 . S
C471 C467 1.393 . S
C471 C470 1.391 . S
H472 C480 0.950 . S
H473 C485 0.950 . S
H474 C482 0.950 . S
H475 C484 0.950 . S
H476 C486 0.950 . S
H477 C488 0.950 . S
H478 C490 0.950 . S
H479 C491 0.950 . S
C480 H472 0.950 . S
C480 C481 1.386 . S
C480 C482 1.391 . S
C481 C480 1.386 . S
C481 C485 1.393 . S
C482 H474 0.950 . S
C482 C480 1.391 . S
C482 C483 1.400 . S
C483 C482 1.400 . S
C483 C484 1.398 . S
C483 C489 1.491 . S
C484 H475 0.950 . S
C484 C483 1.398 . S
C484 C485 1.391 . S
C485 H473 0.950 . S
C485 C481 1.393 . S
C485 C484 1.391 . S
C486 H476 0.950 . S
C486 C487 1.386 . S
C486 C488 1.391 . S
C487 C486 1.386 . S
C487 C491 1.393 . S
C488 H477 0.950 . S
C488 C486 1.391 . S
C488 C489 1.400 . S
C489 C483 1.491 . S
C489 C488 1.400 . S
C489 C490 1.398 . S
C490 H478 0.950 . S
C490 C489 1.398 . S
C490 C491 1.391 . S
C491 H479 0.950 . S
C491 C487 1.393 . S
C491 C490 1.391 . S
H492 C500 0.950 . S
H493 C505 0.950 . S
H494 C502 0.950 . S
H495 C504 0.950 . S
H496 C506 0.950 . S
H497 C508 0.950 . S
H498 C510 0.950 . S
H499 C511 0.950 . S
C500 H492 0.950 . S
C500 C501 1.386 . S
C500 C502 1.391 . S
C501 C500 1.386 . S
C501 C505 1.393 . S
C502 H494 0.950 . S
C502 C500 1.391 . S
C502 C503 1.400 . S
C503 C502 1.400 . S
C503 C504 1.398 . S
C503 C509 1.491 . S
C504 H495 0.950 . S
C504 C503 1.398 . S
C504 C505 1.391 . S
C505 H493 0.950 . S
C505 C501 1.393 . S
C505 C504 1.391 . S
C506 H496 0.950 . S
C506 C507 1.386 . S
C506 C508 1.391 . S
C507 C506 1.386 . S
C507 C511 1.393 . S
C508 H497 0.950 . S
C508 C506 1.391 . S
C508 C509 1.400 . S
C509 C503 1.491 . S
C509 C508 1.400 . S
C509 C510 1.398 . S
C510 H498 0.950 . S
C510 C509 1.398 . S
C510 C511 1.391 . S
C511 H499 0.950 . S
C511 C507 1.393 . S
C511 C510 1.391 . S
H512 C520 0.950 . S
H513 C525 0.950 . S
H514 C522 0.950 . S
H515 C524 0.950 . S
H516 C526 0.950 . S
H517 C528 0.950 . S
H518 C530 0.950 . S
H519 C531 0.950 . S
C520 H512 0.950 . S
C520 C521 1.386 1_556 S
C520 C522 1.391 . S
C521 C520 1.386 1_554 S
C521 C525 1.393 . S
C522 H514 0.950 . S
C522 C520 1.391 . S
C522 C523 1.390 1_556 S
C523 C522 1.390 1_554 S
C523 C524 1.408 . S
C523 C529 1.490 1_554 S
C524 H515 0.950 . S
C524 C523 1.408 . S
C524 C525 1.391 . S
C525 H513 0.950 . S
C525 C521 1.393 . S
C525 C524 1.391 . S
C526 H516 0.950 . S
C526 C527 1.375 1_554 S
C526 C528 1.391 . S
C527 C526 1.375 1_556 S
C527 C531 1.403 . S
C528 H517 0.950 . S
C528 C526 1.391 . S
C528 C529 1.398 1_554 S
C529 C523 1.490 1_556 S
C529 C528 1.398 1_556 S
C529 C530 1.401 . S
C530 H518 0.950 . S
C530 C529 1.401 . S
C530 C531 1.391 . S
C531 H519 0.950 . S
C531 C527 1.403 . S
C531 C530 1.391 . S
H532 C540 0.950 . S
H533 C545 0.950 . S
H534 C542 0.950 . S
H535 C544 0.950 . S
H536 C546 0.950 . S
H537 C548 0.950 . S
H538 C550 0.950 . S
H539 C551 0.950 . S
C540 H532 0.950 . S
C540 C541 1.386 . S
C540 C542 1.391 . S
C541 C540 1.386 . S
C541 C545 1.393 . S
C542 H534 0.950 . S
C542 C540 1.391 . S
C542 C543 1.400 . S
C543 C542 1.400 . S
C543 C544 1.398 . S
C543 C549 1.491 . S
C544 H535 0.950 . S
C544 C543 1.398 . S
C544 C545 1.391 . S
C545 H533 0.950 . S
C545 C541 1.393 . S
C545 C544 1.391 . S
C546 H536 0.950 . S
C546 C547 1.386 . S
C546 C548 1.391 . S
C547 C546 1.386 . S
C547 C551 1.393 . S
C548 H537 0.950 . S
C548 C546 1.391 . S
C548 C549 1.400 . S
C549 C543 1.491 . S
C549 C548 1.400 . S
C549 C550 1.398 . S
C550 H538 0.950 . S
C550 C549 1.398 . S
C550 C551 1.391 . S
C551 H539 0.950 . S
C551 C547 1.393 . S
C551 C550 1.391 . S
H552 C560 0.950 . S
H553 C565 0.950 . S
H554 C562 0.950 . S
H555 C564 0.950 . S
H556 C566 0.950 . S
H557 C568 0.950 . S
H558 C570 0.950 . S
H559 C571 0.950 . S
C560 H552 0.950 . S
C560 C561 1.386 . S
C560 C562 1.391 . S
C561 C560 1.386 . S
C561 C565 1.393 1_554 S
C562 H554 0.950 . S
C562 C560 1.391 . S
C562 C563 1.400 . S
C563 C562 1.400 . S
C563 C564 1.398 1_554 S
C563 C569 1.491 1_554 S
C564 H555 0.950 . S
C564 C563 1.398 1_556 S
C564 C565 1.391 . S
C565 H553 0.950 . S
C565 C561 1.393 1_556 S
C565 C564 1.391 . S
C566 H556 0.950 . S
C566 C567 1.395 . S
C566 C568 1.391 . S
C567 C566 1.395 . S
C567 C571 1.384 1_556 S
C568 H557 0.950 . S
C568 C566 1.391 . S
C568 C569 1.402 . S
C569 C563 1.491 1_556 S
C569 C568 1.402 . S
C569 C570 1.396 1_556 S
C570 H558 0.950 . S
C570 C569 1.396 1_554 S
C570 C571 1.391 . S
C571 H559 0.950 . S
C571 C567 1.384 1_554 S
C571 C570 1.391 . S
H572 C580 0.950 . S
H573 C585 0.950 . S
H574 C582 0.950 . S
H575 C584 0.950 . S
H576 C586 0.950 . S
H577 C588 0.950 . S
H578 C590 0.950 . S
H579 C591 0.950 . S
C580 H572 0.950 . S
C580 C581 1.386 . S
C580 C582 1.391 . S
C581 C580 1.386 . S
C581 C585 1.393 . S
C582 H574 0.950 . S
C582 C580 1.391 . S
C582 C583 1.400 . S
C583 C582 1.400 . S
C583 C584 1.398 . S
C583 C589 1.491 . S
C584 H575 0.950 . S
C584 C583 1.398 . S
C584 C585 1.391 . S
C585 H573 0.950 . S
C585 C581 1.393 . S
C585 C584 1.391 . S
C586 H576 0.950 . S
C586 C587 1.386 . S
C586 C588 1.391 . S
C587 C586 1.386 . S
C587 C591 1.393 . S
C588 H577 0.950 . S
C588 C586 1.391 . S
C588 C589 1.400 . S
C589 C583 1.491 . S
C589 C588 1.400 . S
C589 C590 1.398 . S
C590 H578 0.950 . S
C590 C589 1.398 . S
C590 C591 1.391 . S
C591 H579 0.950 . S
C591 C587 1.393 . S
C591 C590 1.391 . S
H592 C600 0.950 . S
H593 C605 0.950 . S
H594 C602 0.950 . S
H595 C604 0.950 . S
H596 C606 0.950 . S
H597 C608 0.950 . S
H598 C610 0.950 . S
H599 C611 0.950 . S
C600 H592 0.950 . S
C600 C601 1.386 . S
C600 C602 1.391 . S
C601 C600 1.386 . S
C601 C605 1.393 . S
C602 H594 0.950 . S
C602 C600 1.391 . S
C602 C603 1.400 . S
C603 C602 1.400 . S
C603 C604 1.398 . S
C603 C609 1.491 . S
C604 H595 0.950 . S
C604 C603 1.398 . S
C604 C605 1.391 . S
C605 H593 0.950 . S
C605 C601 1.393 . S
C605 C604 1.391 . S
C606 H596 0.950 . S
C606 C607 1.386 . S
C606 C608 1.391 . S
C607 C606 1.386 . S
C607 C611 1.393 . S
C608 H597 0.950 . S
C608 C606 1.391 . S
C608 C609 1.400 . S
C609 C603 1.491 . S
C609 C608 1.400 . S
C609 C610 1.398 . S
C610 H598 0.950 . S
C610 C609 1.398 . S
C610 C611 1.391 . S
C611 H599 0.950 . S
C611 C607 1.393 . S
C611 C610 1.391 . S
H612 C620 0.950 . S
H613 C625 0.950 1_554 S
H614 C622 0.950 . S
H615 C624 0.950 . S
H616 C626 0.950 . S
H617 C628 0.950 . S
H618 C630 0.950 . S
H619 C631 0.949 1_556 S
C620 H612 0.950 . S
C620 C621 1.386 . S
C620 C622 1.391 . S
C621 C620 1.386 . S
C621 C625 1.393 . S
C622 H614 0.950 . S
C622 C620 1.391 . S
C622 C623 1.400 . S
C623 C622 1.400 . S
C623 C624 1.398 . S
C623 C629 1.491 1_556 S
C624 H615 0.950 . S
C624 C623 1.398 . S
C624 C625 1.391 . S
C625 H613 0.950 1_556 S
C625 C621 1.393 . S
C625 C624 1.391 . S
C626 H616 0.950 . S
C626 C627 1.386 . S
C626 C628 1.391 . S
C627 C626 1.386 . S
C627 C631 1.393 . S
C628 H617 0.950 . S
C628 C626 1.391 . S
C628 C629 1.400 . S
C629 C623 1.491 1_554 S
C629 C628 1.400 . S
C629 C630 1.398 . S
C630 H618 0.950 . S
C630 C629 1.398 . S
C630 C631 1.391 . S
C631 H619 0.949 1_554 S
C631 C627 1.393 . S
C631 C630 1.391 . S
H632 C640 0.950 . S
H633 C645 0.950 . S
H634 C642 0.950 . S
H635 C644 0.950 . S
H636 C646 0.950 . S
H637 C648 0.950 . S
H638 C650 0.950 . S
H639 C651 0.950 . S
C640 H632 0.950 . S
C640 C641 1.386 . S
C640 C642 1.391 . S
C641 C640 1.386 . S
C641 C645 1.393 . S
C642 H634 0.950 . S
C642 C640 1.391 . S
C642 C643 1.400 . S
C643 C642 1.400 . S
C643 C644 1.398 . S
C643 C649 1.491 . S
C644 H635 0.950 . S
C644 C643 1.398 . S
C644 C645 1.391 . S
C645 H633 0.950 . S
C645 C641 1.393 . S
C645 C644 1.391 . S
C646 H636 0.950 . S
C646 C647 1.386 . S
C646 C648 1.391 . S
C647 C646 1.386 . S
C647 C651 1.393 . S
C648 H637 0.950 . S
C648 C646 1.391 . S
C648 C649 1.400 . S
C649 C643 1.491 . S
C649 C648 1.400 . S
C649 C650 1.398 . S
C650 H638 0.950 . S
C650 C649 1.398 . S
C650 C651 1.391 . S
C651 H639 0.950 . S
C651 C647 1.393 . S
C651 C650 1.391 . S
H652 C660 0.950 . S
H653 C665 0.950 . S
H654 C662 0.950 . S
H655 C664 0.950 . S
H656 C666 0.950 . S
H657 C668 0.950 . S
H658 C670 0.950 . S
H659 C671 0.950 . S
C660 H652 0.950 . S
C660 C661 1.386 . S
C660 C662 1.391 . S
C661 C660 1.386 . S
C661 C665 1.393 1_554 S
C662 H654 0.950 . S
C662 C660 1.391 . S
C662 C663 1.411 . S
C663 C662 1.411 . S
C663 C664 1.388 1_554 S
C663 C669 1.491 1_554 S
C664 H655 0.950 . S
C664 C663 1.388 1_556 S
C664 C665 1.391 . S
C665 H653 0.950 . S
C665 C661 1.393 1_556 S
C665 C664 1.391 . S
C666 H656 0.950 . S
C666 C667 1.389 . S
C666 C668 1.391 . S
C667 C666 1.389 . S
C667 C671 1.390 1_556 S
C668 H657 0.950 . S
C668 C666 1.391 . S
C668 C669 1.399 . S
C669 C663 1.491 1_556 S
C669 C668 1.399 . S
C669 C670 1.399 1_556 S
C670 H658 0.950 . S
C670 C669 1.399 1_554 S
C670 C671 1.391 . S
C671 H659 0.950 . S
C671 C667 1.390 1_554 S
C671 C670 1.391 . S
C201 C5 1.477 . S
C207 N128 1.477 . S
C221 C31 1.476 . S
C227 N89 1.483 . S
C247 N106 1.483 . S
C241 C53 1.471 . S
C261 C71 1.473 . S
C267 N119 1.483 . S
C287 N158 1.488 . S
C281 C75 1.462 . S
C307 N171 1.489 . S
C301 C9 1.465 . S
C327 N180 1.483 . S
C321 C27 1.475 . S
C347 N141 1.485 . S
C341 C49 1.468 . S
C361 C51 1.469 . S
C367 N102 1.486 . S
C381 C72 1.461 . S
C387 N115 1.486 . S
C401 C6 1.470 . S
C407 N132 1.489 . S
C427 N93 1.481 . S
C421 C29 1.467 . S
C441 C28 1.467 . S
C447 N184 1.489 . S
C467 N145 1.489 . S
C461 C50 1.467 . S
C487 N154 1.487 . S
C481 C73 1.473 . S
C501 C7 1.461 . S
C507 N167 1.486 . S
C527 N90 1.504 . S
C521 C4 1.503 . S
C547 N103 1.513 . S
C541 C30 1.497 . S
C561 C52 1.490 . S
C567 N116 1.514 1_556 S
C581 C70 1.501 . S
C587 N129 1.506 . S
C607 N142 1.510 . S
C601 C74 1.493 . S
C621 C8 1.495 1_556 S
C627 N155 1.513 1_554 S
C641 C26 1.489 . S
C647 N168 1.514 . S
C661 C48 1.503 . S
C667 N181 1.504 1_556 S
