# Generated by pormake.
# Topology zzz, (3,6)-cn, num edge types: 1
# Building blocks:
#     Node 0, Type 0, BuildingBlock: PAMTOO_clean_linker_0, # of connection points: 3
#     Node 1, Type 0, BuildingBlock: PAMTOO_clean_linker_0, # of connection points: 3
#     Node 2, Type 0, BuildingBlock: PAMTOO_clean_linker_0, # of connection points: 3
#     Node 3, Type 0, BuildingBlock: PAMTOO_clean_linker_0, # of connection points: 3
#     Node 4, Type 0, BuildingBlock: PAMTOO_clean_linker_0, # of connection points: 3
#     Node 5, Type 0, BuildingBlock: PAMTOO_clean_linker_0, # of connection points: 3
#     Node 6, Type 0, BuildingBlock: PAMTOO_clean_linker_0, # of connection points: 3
#     Node 7, Type 0, BuildingBlock: PAMTOO_clean_linker_0, # of connection points: 3
#     Node 8, Type 1, BuildingBlock: BETFAJ_clean_sbu_0, # of connection points: 6
#     Node 9, Type 1, BuildingBlock: BETFAJ_clean_sbu_0, # of connection points: 6
#     Node 10, Type 1, BuildingBlock: BETFAJ_clean_sbu_0, # of connection points: 6
#     Node 11, Type 1, BuildingBlock: BETFAJ_clean_sbu_0, # of connection points: 6
#     Edge 12, Type (0, 1), None
#     Edge 13, Type (0, 1), None
#     Edge 14, Type (0, 1), None
#     Edge 15, Type (0, 1), None
#     Edge 16, Type (0, 1), None
#     Edge 17, Type (0, 1), None
#     Edge 18, Type (0, 1), None
#     Edge 19, Type (0, 1), None
#     Edge 20, Type (0, 1), None
#     Edge 21, Type (0, 1), None
#     Edge 22, Type (0, 1), None
#     Edge 23, Type (0, 1), None
#     Edge 24, Type (0, 1), None
#     Edge 25, Type (0, 1), None
#     Edge 26, Type (0, 1), None
#     Edge 27, Type (0, 1), None
#     Edge 28, Type (0, 1), None
#     Edge 29, Type (0, 1), None
#     Edge 30, Type (0, 1), None
#     Edge 31, Type (0, 1), None
#     Edge 32, Type (0, 1), None
#     Edge 33, Type (0, 1), None
#     Edge 34, Type (0, 1), None
#     Edge 35, Type (0, 1), None
# Relax obj value: 0.658
# Max RMSD: 0.257
# Mean RMSD: 0.149
data_MOF--net-zzz--node1-BETFAJ_clean_sbu_0--node2-PAMTOO_clean_linker_0--edge1-none
_symmetry_space_group_name_H-M    P1
_symmetry_Int_Tables_number       1
_symmetry_cell_setting            triclinic
loop_
_symmetry_equiv_pos_as_xyz
'x, y, z'
_cell_length_a     22.511676
_cell_length_b     22.629635
_cell_length_c     6.9375641
_cell_angle_alpha  89.413697
_cell_angle_beta   90.497448
_cell_angle_gamma 90.009662
loop_
_atom_site_label
_atom_site_type_symbol
_atom_site_fract_x
_atom_site_fract_y
_atom_site_fract_z
_atom_type_partial_charge
H0 H 0.92208 0.47175 0.44119 0.0
H1 H 0.75801 0.51358 0.15304 0.0
H2 H 0.83196 0.63469 0.56845 0.0
H3 H 0.66481 0.65026 0.38731 0.0
C4 C 0.68028 0.60774 0.32813 0.0
O5 O 0.74178 0.6148 0.29519 0.0
H6 H 0.67293 0.57316 0.43825 0.0
C7 C 0.88449 0.50122 0.42451 0.0
C8 C 0.88387 0.55336 0.53127 0.0
C9 C 0.83932 0.48711 0.29047 0.0
C10 C 0.79148 0.52467 0.25993 0.0
C11 C 0.78681 0.57746 0.35808 0.0
C12 C 0.83366 0.59264 0.49586 0.0
H13 H 0.08897 0.88688 0.46327 0.0
H14 H 0.09447 0.75573 0.12436 0.0
H15 H 0.9748 0.82678 0.54907 0.0
H16 H 0.95904 0.66226 0.37026 0.0
C17 C 1.00158 0.67721 0.30748 0.0
O18 O 0.99489 0.7387 0.27239 0.0
H19 H 1.03672 0.66942 0.41636 0.0
C20 C 0.11785 0.88051 0.38812 0.0
C21 C 0.06001 0.88171 0.51029 0.0
C22 C 0.12605 0.83435 0.25698 0.0
C23 C 0.08517 0.78873 0.23217 0.0
C24 C 1.0323 0.78363 0.33452 0.0
C25 C 1.0168 0.82891 0.47476 0.0
H26 H 0.7252 0.09055 0.47785 0.0
H27 H 0.85628 0.097 0.13753 0.0
H28 H 0.78146 0.97345 0.54876 0.0
H29 H 0.9397 1.03439 0.418 0.0
C30 C 0.93148 0.99969 0.31017 0.0
O31 O 0.86976 0.99511 0.27494 0.0
H32 H 0.9457 0.95657 0.37168 0.0
C33 C 0.73221 0.12017 0.40616 0.0
C34 C 0.72961 0.06056 0.5213 0.0
C35 C 0.77859 0.12907 0.27519 0.0
C36 C 0.82314 0.08738 0.24576 0.0
C37 C 0.82629 1.03287 0.34125 0.0
C38 C 0.78073 1.01653 0.47981 0.0
H39 H 0.52028 0.72008 0.48066 0.0
H40 H 0.51461 0.85197 0.13824 0.0
H41 H 0.63573 0.77837 0.56505 0.0
H42 H 0.65279 0.94238 0.3841 0.0
C43 C 0.60992 0.92822 0.32021 0.0
O44 O 0.61548 0.86693 0.28695 0.0
H45 H 0.57491 0.93638 0.42674 0.0
C46 C 0.49113 0.72671 0.40578 0.0
C47 C 0.54972 0.72486 0.52772 0.0
C48 C 0.48257 0.77333 0.27375 0.0
C49 C 0.52389 0.81868 0.2478 0.0
C50 C 0.5775 0.82271 0.34989 0.0
C51 C 0.59326 0.77704 0.49108 0.0
H52 H 0.19093 0.63401 0.31211 0.0
H53 H 0.3517 0.59185 0.61955 0.0
H54 H 0.27805 0.46744 0.21423 0.0
H55 H 0.44537 0.45335 0.39871 0.0
C56 C 0.42977 0.49601 0.45633 0.0
O57 O 0.36801 0.48958 0.48715 0.0
H58 H 0.43737 0.53073 0.3464 0.0
C59 C 0.22754 0.60382 0.33632 0.0
C60 C 0.22719 0.54999 0.23828 0.0
C61 C 0.27185 0.61844 0.47323 0.0
C62 C 0.31882 0.58036 0.51113 0.0
C63 C 0.32332 0.52656 0.41887 0.0
C64 C 0.27664 0.51033 0.28146 0.0
H65 H 1.02694 0.22023 0.29354 0.0
H66 H 1.01058 0.36073 0.58524 0.0
H67 H 0.1216 0.29575 0.12603 0.0
H68 H 0.16477 0.44388 0.39911 0.0
C69 C 0.13049 0.42087 0.48453 0.0
O70 O 0.09034 0.39267 0.35718 0.0
H71 H 0.15591 0.38603 0.56386 0.0
C72 C 1.00069 0.2245 0.37957 0.0
C73 C 1.05219 0.22819 0.23102 0.0
C74 C 0.98975 0.27311 0.49803 0.0
C75 C 1.02348 0.32478 0.49247 0.0
C76 C 0.07013 0.33461 0.36447 0.0
C77 C 0.0867 0.28809 0.22951 0.0
H78 H 0.38843 1.01871 0.28571 0.0
H79 H 0.2572 1.01447 0.62549 0.0
H80 H 0.33069 0.13418 0.19959 0.0
H81 H 0.17262 0.07385 0.3311 0.0
C82 C 0.18074 0.10849 0.43895 0.0
O83 O 0.24232 0.11454 0.47416 0.0
H84 H 0.16587 0.15124 0.37625 0.0
C85 C 0.38166 0.98977 0.36029 0.0
C86 C 0.38373 1.04815 0.23866 0.0
C87 C 0.33526 0.98176 0.49162 0.0
C88 C 0.29037 1.02336 0.51672 0.0
C89 C 0.28648 0.07663 0.41395 0.0
C90 C 0.33193 0.09193 0.27384 0.0
H91 H 0.63809 0.41741 0.32288 0.0
H92 H 0.59662 0.25537 0.61769 0.0
H93 H 0.47262 0.32879 0.20141 0.0
H94 H 0.45785 0.16262 0.3801 0.0
C95 C 0.50057 0.17803 0.44187 0.0
O96 O 0.49409 0.23923 0.4744 0.0
H97 H 0.53575 0.17084 0.33485 0.0
C98 C 0.60838 0.38021 0.34108 0.0
C99 C 0.55498 0.37987 0.2361 0.0
C100 C 0.62318 0.33562 0.47684 0.0
C101 C 0.58522 0.28833 0.50912 0.0
C102 C 0.53148 0.28379 0.41115 0.0
C103 C 0.51544 0.3303 0.27317 0.0
Sm104 Sm 0.10171 1.04001 0.9491 0.0
Sm105 Sm 1.01034 0.06865 0.80086 0.0
C106 C 0.20108 0.98918 0.0708 0.0
C107 C 0.23075 0.93721 0.99007 0.0
C108 C 0.2611 0.90438 0.12885 0.0
C109 C 0.23199 0.85607 0.2094 0.0
C110 C 0.17734 0.83891 0.12833 0.0
C111 C 0.16538 0.85594 0.93643 0.0
C112 C 0.19586 0.90475 0.86077 0.0
C113 C 0.14081 0.09614 0.6171 0.0
C114 C 1.04372 0.93825 0.66056 0.0
C115 C 0.90997 0.11965 0.68957 0.0
C116 C 0.88255 0.17245 0.77321 0.0
C117 C 0.85253 0.20622 0.63643 0.0
C118 C 0.88367 0.25227 0.55048 0.0
C119 C 0.93914 0.26826 0.6291 0.0
C120 C 0.95142 0.25143 0.82039 0.0
C121 C 0.91958 0.20389 0.89927 0.0
C122 C 0.97159 1.01258 0.13252 0.0
C123 C 0.06885 0.17114 0.0828 0.0
O124 O 0.14924 0.9789 0.1476 0.0
O125 O 0.20083 1.03644 0.9644 0.0
O126 O 0.09704 0.0596 0.62255 0.0
O127 O 0.15482 0.11274 0.78903 0.0
O128 O 0.07277 0.94518 0.82535 0.0
O129 O 1.02181 0.98807 0.59263 0.0
O130 O 0.96069 0.12861 0.60411 0.0
O131 O 0.91114 0.07291 0.79809 0.0
O132 O 1.01496 1.04957 0.12695 0.0
O133 O 0.95896 0.99454 0.96104 0.0
O134 O 1.04157 0.164 0.91518 0.0
O135 O 0.08872 0.12096 0.15499 0.0
H136 H 0.2967 0.9246 0.20564 0.0
H137 H 0.2451 0.84204 0.35232 0.0
H138 H 0.12584 0.84044 0.86276 0.0
H139 H 0.1798 0.92547 0.72914 0.0
H140 H 0.81516 0.1876 0.56376 0.0
H141 H 0.8701 0.26554 0.40762 0.0
H142 H 0.99132 0.2668 0.89194 0.0
H143 H 0.93544 0.18306 0.03099 0.0
Sm144 Sm 0.57082 0.09971 0.95501 0.0
Sm145 Sm 0.54243 1.00733 0.80569 0.0
C146 C 0.62083 0.19876 0.07419 0.0
C147 C 0.67283 0.22938 0.99439 0.0
C148 C 0.70429 0.26085 0.13179 0.0
C149 C 0.75361 0.23383 0.21642 0.0
C150 C 0.77264 0.17956 0.14182 0.0
C151 C 0.7559 0.166 0.95136 0.0
C152 C 0.70683 0.19513 0.87008 0.0
C153 C 0.51425 0.13848 0.62192 0.0
C154 C 0.67306 1.04286 0.66965 0.0
C155 C 0.49142 0.90848 0.6887 0.0
C156 C 0.43914 0.87869 0.7702 0.0
C157 C 0.40655 0.84806 0.63326 0.0
C158 C 0.35811 0.87668 0.54928 0.0
C159 C 0.34047 0.93124 0.62494 0.0
C160 C 0.35769 0.94413 0.81526 0.0
C161 C 0.40616 0.91367 0.89552 0.0
C162 C 0.59857 0.96882 0.14056 0.0
C163 C 0.44045 0.0651 0.09039 0.0
O164 O 0.63162 0.14703 0.15281 0.0
O165 O 0.57379 0.19822 0.96584 0.0
O166 O 0.55129 0.09516 0.62882 0.0
O167 O 0.4969 0.15157 0.79303 0.0
O168 O 0.66568 0.07161 0.83259 0.0
O169 O 0.62384 1.01993 0.60083 0.0
O170 O 0.48114 0.96016 0.60917 0.0
O171 O 0.53867 0.90877 0.79613 0.0
O172 O 0.56131 1.01192 0.13165 0.0
O173 O 0.61586 0.95525 0.96973 0.0
O174 O 0.44764 1.03658 0.92691 0.0
O175 O 0.48994 0.08695 0.16035 0.0
H176 H 0.68266 0.29605 0.20365 0.0
H177 H 0.7672 0.24837 0.35747 0.0
H178 H 0.77187 0.12627 0.88324 0.0
H179 H 0.68684 0.1781 0.73971 0.0
H180 H 0.42687 0.81227 0.56003 0.0
H181 H 0.34463 0.86317 0.4073 0.0
H182 H 0.34243 0.98399 0.88424 0.0
H183 H 0.42673 0.93005 0.02591 0.0
Sm184 Sm 0.50897 0.56551 0.96632 0.0
Sm185 Sm 0.60152 0.53791 0.81935 0.0
C186 C 0.40979 0.61672 0.07984 0.0
C187 C 0.38048 0.66935 0.9971 0.0
C188 C 0.34925 0.70098 0.13257 0.0
C189 C 0.37721 0.74939 0.21571 0.0
C190 C 0.43203 0.7678 0.1401 0.0
C191 C 0.44565 0.75114 0.95077 0.0
C192 C 0.41577 0.70274 0.87182 0.0
C193 C 0.46937 0.50987 0.63623 0.0
C194 C 0.56691 0.66807 0.6783 0.0
C195 C 0.70117 0.48862 0.70055 0.0
C196 C 0.7316 0.43516 0.77213 0.0
C197 C 0.76072 0.40621 0.62585 0.0
C198 C 0.72901 0.36324 0.52659 0.0
C199 C 0.67485 0.34368 0.6043 0.0
C200 C 0.66364 0.35507 0.79966 0.0
C201 C 0.69652 0.39939 0.89052 0.0
C202 C 0.64002 0.59474 0.14935 0.0
C203 C 0.54383 0.43475 0.10494 0.0
O204 O 0.46154 0.62606 0.16116 0.0
O205 O 0.40997 0.5703 0.97276 0.0
O206 O 0.51323 0.54648 0.64096 0.0
O207 O 0.45632 0.49241 0.80838 0.0
O208 O 0.53805 0.66031 0.84168 0.0
O209 O 0.5892 0.61905 0.61075 0.0
O210 O 0.64934 0.47982 0.61926 0.0
O211 O 0.7006 0.53318 0.81562 0.0
O212 O 0.59709 0.55714 0.14413 0.0
O213 O 0.65342 0.61166 0.97688 0.0
O214 O 0.57374 0.4429 0.9438 0.0
O215 O 0.52022 0.48328 0.1723 0.0
H216 H 0.31384 0.67952 0.20552 0.0
H217 H 0.36304 0.76256 0.35702 0.0
H218 H 0.48574 0.76685 0.88196 0.0
H219 H 0.43251 0.68282 0.74217 0.0
H220 H 0.79744 0.42763 0.55992 0.0
H221 H 0.74146 0.35412 0.38011 0.0
H222 H 0.62398 0.33839 0.86871 0.0
H223 H 0.68193 0.41603 0.02719 0.0
Sm224 Sm 1.04252 0.50617 0.94954 0.0
Sm225 Sm 0.07001 0.59568 0.80357 0.0
C226 C 0.99222 0.40543 0.05843 0.0
C227 C 0.93643 0.37785 0.99585 0.0
C228 C 0.90803 0.34943 0.14637 0.0
C229 C 0.86586 0.38175 0.24587 0.0
C230 C 0.84651 0.43579 0.16566 0.0
C231 C 0.85701 0.44685 0.96918 0.0
C232 C 0.90084 0.41386 0.87817 0.0
C233 C 0.106 0.46492 0.63898 0.0
C234 C 0.93922 0.56366 0.66187 0.0
C235 C 0.11973 0.6952 0.68195 0.0
C236 C 0.17191 0.72706 0.75721 0.0
C237 C 0.2016 0.75614 0.61055 0.0
C238 C 0.24442 0.72405 0.51315 0.0
C239 C 0.26409 0.67041 0.59574 0.0
C240 C 0.253 0.66024 0.79285 0.0
C241 C 0.20797 0.69295 0.87984 0.0
C242 C 1.01347 0.63634 0.13082 0.0
C243 C 0.1724 0.53941 0.10413 0.0
O244 O 0.9873 0.45468 0.15401 0.0
O245 O 1.03325 0.40837 0.93027 0.0
O246 O 0.06778 0.50745 0.6249 0.0
O247 O 0.12079 0.45705 0.81752 0.0
O248 O 0.94677 0.53508 0.82705 0.0
O249 O 0.98883 0.58489 0.59243 0.0
O250 O 0.13043 0.64345 0.60789 0.0
O251 O 0.07329 0.6944 0.78996 0.0
O252 O 1.05019 0.5927 0.12893 0.0
O253 O 0.99627 0.64891 0.95713 0.0
O254 O 0.16466 0.57086 0.94397 0.0
O255 O 0.12367 0.51331 0.16503 0.0
H256 H 0.92997 0.31289 0.21428 0.0
H257 H 0.85736 0.36995 0.39403 0.0
H258 H 0.84024 0.48646 0.89871 0.0
H259 H 0.91726 0.42842 0.74021 0.0
H260 H 0.1806 0.79297 0.54241 0.0
H261 H 0.25314 0.73585 0.36526 0.0
H262 H 0.27012 0.62131 0.86644 0.0
H263 H 0.19125 0.67906 0.01813 0.0
loop_
_geom_bond_atom_site_label_1
_geom_bond_atom_site_label_2
_geom_bond_distance
_geom_bond_site_symmetry_2
_ccdc_geom_bond_type
H0 C7 0.929 . S
H1 C10 0.930 . S
H2 C12 0.929 . S
H3 C4 0.969 . S
C4 H3 0.969 . S
C4 O5 1.550 . S
C4 H6 0.973 . S
O5 C4 1.550 . S
O5 C11 1.412 . S
H6 C4 0.973 . S
C7 H0 0.929 . S
C7 C8 1.400 . S
C7 C9 1.364 . S
C8 C7 1.400 . S
C8 C12 1.377 . S
C9 C7 1.364 . S
C9 C10 1.374 . S
C10 H1 0.930 . S
C10 C9 1.374 . S
C10 C11 1.383 . S
C11 O5 1.412 . S
C11 C10 1.383 . S
C11 C12 1.394 . S
C12 H2 0.929 . S
C12 C8 1.377 . S
C12 C11 1.394 . S
H13 C20 0.928 1_655 S
H14 C23 0.931 . S
H15 C25 0.929 1_655 S
H16 C17 0.969 . S
C17 H16 0.969 . S
C17 O18 1.550 1_455 S
C17 H19 0.973 1_455 S
O18 C17 1.550 1_655 S
O18 C24 1.412 1_655 S
H19 C17 0.973 1_655 S
C20 H13 0.928 1_455 S
C20 C21 1.399 . S
C20 C22 1.364 . S
C21 C20 1.399 . S
C21 C25 1.377 . S
C22 C20 1.364 . S
C22 C23 1.374 1_455 S
C23 H14 0.931 . S
C23 C22 1.374 1_655 S
C23 C24 1.383 1_655 S
C24 O18 1.412 1_455 S
C24 C23 1.383 1_455 S
C24 C25 1.394 . S
C25 H15 0.929 1_455 S
C25 C21 1.377 . S
C25 C24 1.394 . S
H26 C33 0.928 1_565 S
H27 C36 0.931 . S
H28 C38 0.929 1_565 S
H29 C30 0.969 . S
C30 H29 0.969 . S
C30 O31 1.550 1_545 S
C30 H32 0.973 1_545 S
O31 C30 1.550 1_565 S
O31 C37 1.412 1_565 S
H32 C30 0.973 1_565 S
C33 H26 0.928 1_545 S
C33 C34 1.399 . S
C33 C35 1.364 . S
C34 C33 1.399 . S
C34 C38 1.377 . S
C35 C33 1.364 . S
C35 C36 1.374 1_545 S
C36 H27 0.931 . S
C36 C35 1.374 1_565 S
C36 C37 1.383 1_565 S
C37 O31 1.412 1_545 S
C37 C36 1.383 1_545 S
C37 C38 1.394 . S
C38 H28 0.929 1_545 S
C38 C34 1.377 . S
C38 C37 1.394 . S
H39 C46 0.929 . S
H40 C49 0.930 . S
H41 C51 0.929 . S
H42 C43 0.969 . S
C43 H42 0.969 . S
C43 O44 1.550 . S
C43 H45 0.973 . S
O44 C43 1.550 . S
O44 C50 1.412 . S
H45 C43 0.973 . S
C46 H39 0.929 . S
C46 C47 1.400 . S
C46 C48 1.364 . S
C47 C46 1.400 . S
C47 C51 1.377 . S
C48 C46 1.364 . S
C48 C49 1.374 . S
C49 H40 0.930 . S
C49 C48 1.374 . S
C49 C50 1.383 . S
C50 O44 1.412 . S
C50 C49 1.383 . S
C50 C51 1.394 . S
C51 H41 0.929 . S
C51 C47 1.377 . S
C51 C50 1.394 . S
H52 C59 0.929 . S
H53 C62 0.930 . S
H54 C64 0.929 . S
H55 C56 0.969 . S
C56 H55 0.969 . S
C56 O57 1.550 . S
C56 H58 0.973 . S
O57 C56 1.550 . S
O57 C63 1.412 . S
H58 C56 0.973 . S
C59 H52 0.929 . S
C59 C60 1.400 . S
C59 C61 1.364 1_556 S
C60 C59 1.400 . S
C60 C64 1.377 . S
C61 C59 1.364 1_554 S
C61 C62 1.374 . S
C62 H53 0.930 . S
C62 C61 1.374 . S
C62 C63 1.383 . S
C63 O57 1.412 . S
C63 C62 1.383 . S
C63 C64 1.394 1_554 S
C64 H54 0.929 . S
C64 C60 1.377 . S
C64 C63 1.394 1_556 S
H65 C72 0.928 1_656 S
H66 C75 0.931 . S
H67 C77 0.928 1_655 S
H68 C69 0.969 . S
C69 H68 0.969 . S
C69 O70 1.550 1_455 S
C69 H71 0.973 1_455 S
O70 C69 1.550 1_655 S
O70 C76 1.412 1_655 S
H71 C69 0.973 1_655 S
C72 H65 0.928 1_454 S
C72 C73 1.400 1_554 S
C72 C74 1.364 . S
C73 C72 1.400 1_556 S
C73 C77 1.377 . S
C74 C72 1.364 . S
C74 C75 1.374 1_455 S
C75 H66 0.931 . S
C75 C74 1.374 1_655 S
C75 C76 1.383 1_655 S
C76 O70 1.412 1_455 S
C76 C75 1.383 1_455 S
C76 C77 1.395 1_554 S
C77 H67 0.928 1_455 S
C77 C73 1.377 . S
C77 C76 1.395 1_556 S
H78 C85 0.928 1_565 S
H79 C88 0.931 . S
H80 C90 0.928 1_565 S
H81 C82 0.969 . S
C82 H81 0.969 . S
C82 O83 1.550 1_545 S
C82 H84 0.973 1_545 S
O83 C82 1.550 1_565 S
O83 C89 1.412 1_565 S
H84 C82 0.973 1_565 S
C85 H78 0.928 1_545 S
C85 C86 1.400 . S
C85 C87 1.364 1_556 S
C86 C85 1.400 . S
C86 C90 1.377 . S
C87 C85 1.364 1_554 S
C87 C88 1.374 1_545 S
C88 H79 0.931 . S
C88 C87 1.374 1_565 S
C88 C89 1.383 1_565 S
C89 O83 1.412 1_545 S
C89 C88 1.383 1_545 S
C89 C90 1.395 1_554 S
C90 H80 0.928 1_545 S
C90 C86 1.377 . S
C90 C89 1.395 1_556 S
H91 C98 0.929 . S
H92 C101 0.930 . S
H93 C103 0.929 . S
H94 C95 0.969 . S
C95 H94 0.969 . S
C95 O96 1.550 . S
C95 H97 0.973 . S
O96 C95 1.550 . S
O96 C102 1.412 . S
H97 C95 0.973 . S
C98 H91 0.929 . S
C98 C99 1.400 . S
C98 C100 1.364 1_556 S
C99 C98 1.400 . S
C99 C103 1.377 . S
C100 C98 1.364 1_554 S
C100 C101 1.374 . S
C101 H92 0.930 . S
C101 C100 1.374 . S
C101 C102 1.383 . S
C102 O96 1.412 . S
C102 C101 1.383 . S
C102 C103 1.394 1_554 S
C103 H93 0.929 . S
C103 C99 1.377 . S
C103 C102 1.394 1_556 S
Sm104 C106 2.846 . S
Sm104 O124 2.543 . S
Sm104 O125 2.450 . S
Sm104 O126 2.681 1_564 S
Sm104 O127 2.464 1_554 S
Sm104 O128 2.396 1_554 S
Sm104 O132 2.386 1_455 S
Sm104 O135 2.408 1_565 S
Sm105 C115 2.846 . S
Sm105 O126 2.386 1_655 S
Sm105 O129 2.408 1_545 S
Sm105 O130 2.543 . S
Sm105 O131 2.450 . S
Sm105 O132 2.681 1_546 S
Sm105 O133 2.464 . S
Sm105 O134 2.396 . S
C106 Sm104 2.846 . S
C106 C107 1.506 . S
C106 O124 1.261 . S
C106 O125 1.242 . S
C107 C106 1.506 . S
C107 C108 1.358 . S
C107 C112 1.382 . S
C108 C107 1.358 . S
C108 C109 1.385 . S
C108 H136 0.930 . S
C109 C108 1.385 . S
C109 C110 1.395 . S
C109 H137 0.929 . S
C110 C109 1.395 . S
C110 C111 1.335 . S
C111 C110 1.335 . S
C111 C112 1.398 . S
C111 H138 0.930 . S
C112 C107 1.382 . S
C112 C111 1.398 . S
C112 H139 0.929 . S
C113 O126 1.271 1_565 S
C113 O127 1.251 . S
C114 O128 1.252 1_655 S
C114 O129 1.272 . S
C115 Sm105 2.846 . S
C115 C116 1.506 . S
C115 O130 1.261 . S
C115 O131 1.242 . S
C116 C115 1.506 . S
C116 C117 1.358 . S
C116 C121 1.382 . S
C117 C116 1.358 . S
C117 C118 1.385 . S
C117 H140 0.930 . S
C118 C117 1.385 . S
C118 C119 1.395 . S
C118 H141 0.929 . S
C119 C118 1.395 . S
C119 C120 1.335 . S
C120 C119 1.335 . S
C120 C121 1.398 . S
C120 H142 0.930 . S
C121 C116 1.382 . S
C121 C120 1.398 . S
C121 H143 0.929 . S
C122 O132 1.271 1_545 S
C122 O133 1.251 1_554 S
C123 O134 1.252 1_455 S
C123 O135 1.272 1_556 S
O124 Sm104 2.543 . S
O124 C106 1.261 . S
O125 Sm104 2.450 . S
O125 C106 1.242 . S
O126 Sm104 2.681 1_546 S
O126 Sm105 2.386 1_455 S
O126 C113 1.271 1_545 S
O127 Sm104 2.464 1_556 S
O127 C113 1.251 . S
O128 Sm104 2.396 1_556 S
O128 C114 1.252 1_455 S
O129 Sm105 2.408 1_565 S
O129 C114 1.272 . S
O130 Sm105 2.543 . S
O130 C115 1.261 . S
O131 Sm105 2.450 . S
O131 C115 1.242 . S
O132 Sm104 2.386 1_655 S
O132 Sm105 2.681 1_564 S
O132 C122 1.271 1_565 S
O133 Sm105 2.464 . S
O133 C122 1.251 1_556 S
O134 Sm105 2.396 . S
O134 C123 1.252 1_655 S
O135 Sm104 2.408 1_545 S
O135 C123 1.272 1_554 S
H136 C108 0.930 . S
H137 C109 0.929 . S
H138 C111 0.930 . S
H139 C112 0.929 . S
H140 C117 0.930 . S
H141 C118 0.929 . S
H142 C120 0.930 . S
H143 C121 0.929 . S
Sm144 C146 2.846 . S
Sm144 O164 2.543 . S
Sm144 O165 2.450 . S
Sm144 O166 2.681 1_554 S
Sm144 O167 2.464 1_554 S
Sm144 O168 2.396 1_554 S
Sm144 O172 2.386 1_545 S
Sm144 O175 2.408 . S
Sm145 C155 2.846 . S
Sm145 O166 2.386 1_565 S
Sm145 O169 2.408 . S
Sm145 O170 2.543 . S
Sm145 O171 2.450 . S
Sm145 O172 2.681 1_556 S
Sm145 O173 2.464 . S
Sm145 O174 2.396 . S
C146 Sm144 2.846 . S
C146 C147 1.506 . S
C146 O164 1.261 . S
C146 O165 1.242 . S
C147 C146 1.506 . S
C147 C148 1.358 . S
C147 C152 1.382 . S
C148 C147 1.358 . S
C148 C149 1.385 . S
C148 H176 0.922 1_545 S
C149 C148 1.385 . S
C149 C150 1.395 . S
C149 H177 0.929 . S
C150 C149 1.395 . S
C150 C151 1.335 . S
C151 C150 1.335 . S
C151 C152 1.398 . S
C151 H178 0.930 . S
C152 C147 1.382 . S
C152 C151 1.398 . S
C152 H179 0.929 . S
C153 O166 1.271 . S
C153 O167 1.251 . S
C154 O168 1.252 1_565 S
C154 O169 1.272 . S
C155 Sm145 2.846 . S
C155 C156 1.506 . S
C155 O170 1.261 . S
C155 O171 1.242 . S
C156 C155 1.506 . S
C156 C157 1.358 . S
C156 C161 1.382 . S
C157 C156 1.358 . S
C157 C158 1.385 . S
C157 H180 0.917 1_565 S
C158 C157 1.385 . S
C158 C159 1.395 . S
C158 H181 0.929 . S
C159 C158 1.395 . S
C159 C160 1.335 . S
C160 C159 1.335 . S
C160 C161 1.398 . S
C160 H182 0.930 . S
C161 C156 1.382 . S
C161 C160 1.398 . S
C161 H183 0.929 . S
C162 O172 1.271 . S
C162 O173 1.251 1_554 S
C163 O174 1.252 1_545 S
C163 O175 1.272 1_556 S
O164 Sm144 2.543 . S
O164 C146 1.261 . S
O165 Sm144 2.450 . S
O165 C146 1.242 . S
O166 Sm144 2.681 1_556 S
O166 Sm145 2.386 1_545 S
O166 C153 1.271 . S
O167 Sm144 2.464 1_556 S
O167 C153 1.251 . S
O168 Sm144 2.396 1_556 S
O168 C154 1.252 1_545 S
O169 Sm145 2.408 . S
O169 C154 1.272 . S
O170 Sm145 2.543 . S
O170 C155 1.261 . S
O171 Sm145 2.450 . S
O171 C155 1.242 . S
O172 Sm144 2.386 1_565 S
O172 Sm145 2.681 1_554 S
O172 C162 1.271 . S
O173 Sm145 2.464 . S
O173 C162 1.251 1_556 S
O174 Sm145 2.396 . S
O174 C163 1.252 1_565 S
O175 Sm144 2.408 . S
O175 C163 1.272 1_554 S
H176 C148 0.922 1_565 S
H177 C149 0.929 . S
H178 C151 0.930 . S
H179 C152 0.929 . S
H180 C157 0.917 1_545 S
H181 C158 0.929 . S
H182 C160 0.930 . S
H183 C161 0.929 . S
Sm184 C186 2.846 . S
Sm184 O204 2.543 . S
Sm184 O205 2.450 . S
Sm184 O206 2.681 1_554 S
Sm184 O207 2.464 1_554 S
Sm184 O208 2.396 1_554 S
Sm184 O212 2.386 . S
Sm184 O215 2.408 . S
Sm185 C195 2.846 . S
Sm185 O206 2.386 . S
Sm185 O209 2.408 . S
Sm185 O210 2.543 . S
Sm185 O211 2.450 . S
Sm185 O212 2.681 1_556 S
Sm185 O213 2.464 . S
Sm185 O214 2.396 . S
C186 Sm184 2.846 . S
C186 C187 1.506 . S
C186 O204 1.261 . S
C186 O205 1.242 . S
C187 C186 1.506 . S
C187 C188 1.358 . S
C187 C192 1.382 . S
C188 C187 1.358 . S
C188 C189 1.385 . S
C188 H216 0.930 . S
C189 C188 1.385 . S
C189 C190 1.395 . S
C189 H217 0.929 . S
C190 C189 1.395 . S
C190 C191 1.335 . S
C191 C190 1.335 . S
C191 C192 1.398 . S
C191 H218 0.930 . S
C192 C187 1.382 . S
C192 C191 1.398 . S
C192 H219 0.929 . S
C193 O206 1.271 . S
C193 O207 1.251 . S
C194 O208 1.252 . S
C194 O209 1.272 . S
C195 Sm185 2.846 . S
C195 C196 1.506 . S
C195 O210 1.261 . S
C195 O211 1.242 . S
C196 C195 1.506 . S
C196 C197 1.358 . S
C196 C201 1.382 . S
C197 C196 1.358 . S
C197 C198 1.385 . S
C197 H220 0.930 . S
C198 C197 1.385 . S
C198 C199 1.395 . S
C198 H221 0.929 . S
C199 C198 1.395 . S
C199 C200 1.335 . S
C200 C199 1.335 . S
C200 C201 1.398 . S
C200 H222 0.930 . S
C201 C196 1.382 . S
C201 C200 1.398 . S
C201 H223 0.929 . S
C202 O212 1.271 . S
C202 O213 1.251 1_554 S
C203 O214 1.252 . S
C203 O215 1.272 1_556 S
O204 Sm184 2.543 . S
O204 C186 1.261 . S
O205 Sm184 2.450 . S
O205 C186 1.242 . S
O206 Sm184 2.681 1_556 S
O206 Sm185 2.386 . S
O206 C193 1.271 . S
O207 Sm184 2.464 1_556 S
O207 C193 1.251 . S
O208 Sm184 2.396 1_556 S
O208 C194 1.252 . S
O209 Sm185 2.408 . S
O209 C194 1.272 . S
O210 Sm185 2.543 . S
O210 C195 1.261 . S
O211 Sm185 2.450 . S
O211 C195 1.242 . S
O212 Sm184 2.386 . S
O212 Sm185 2.681 1_554 S
O212 C202 1.271 . S
O213 Sm185 2.464 . S
O213 C202 1.251 1_556 S
O214 Sm185 2.396 . S
O214 C203 1.252 . S
O215 Sm184 2.408 . S
O215 C203 1.272 1_554 S
H216 C188 0.930 . S
H217 C189 0.929 . S
H218 C191 0.930 . S
H219 C192 0.929 . S
H220 C197 0.930 . S
H221 C198 0.929 . S
H222 C200 0.930 . S
H223 C201 0.929 . S
Sm224 C226 2.846 . S
Sm224 O244 2.543 . S
Sm224 O245 2.450 . S
Sm224 O246 2.681 1_654 S
Sm224 O247 2.464 1_554 S
Sm224 O248 2.396 1_554 S
Sm224 O252 2.386 . S
Sm224 O255 2.408 1_655 S
Sm225 C235 2.846 . S
Sm225 O246 2.386 . S
Sm225 O249 2.408 1_455 S
Sm225 O250 2.543 . S
Sm225 O251 2.450 . S
Sm225 O252 2.681 1_456 S
Sm225 O253 2.464 . S
Sm225 O254 2.396 . S
C226 Sm224 2.846 . S
C226 C227 1.506 . S
C226 O244 1.261 . S
C226 O245 1.242 . S
C227 C226 1.506 . S
C227 C228 1.358 . S
C227 C232 1.382 . S
C228 C227 1.358 . S
C228 C229 1.385 . S
C228 H256 0.930 . S
C229 C228 1.385 . S
C229 C230 1.395 . S
C229 H257 0.929 . S
C230 C229 1.395 . S
C230 C231 1.335 . S
C231 C230 1.335 . S
C231 C232 1.398 . S
C231 H258 0.930 . S
C232 C227 1.382 . S
C232 C231 1.398 . S
C232 H259 0.929 . S
C233 O246 1.269 1_655 S
C233 O247 1.255 . S
C234 O248 1.252 . S
C234 O249 1.272 . S
C235 Sm225 2.846 . S
C235 C236 1.506 . S
C235 O250 1.261 . S
C235 O251 1.242 . S
C236 C235 1.506 . S
C236 C237 1.358 . S
C236 C241 1.382 . S
C237 C236 1.358 . S
C237 C238 1.385 . S
C237 H260 0.930 . S
C238 C237 1.385 . S
C238 C239 1.395 . S
C238 H261 0.929 . S
C239 C238 1.395 . S
C239 C240 1.335 . S
C240 C239 1.335 . S
C240 C241 1.398 . S
C240 H262 0.930 . S
C241 C236 1.382 . S
C241 C240 1.398 . S
C241 H263 0.929 . S
C242 O252 1.268 1_455 S
C242 O253 1.257 1_554 S
C243 O254 1.252 . S
C243 O255 1.272 1_556 S
O244 Sm224 2.543 . S
O244 C226 1.261 . S
O245 Sm224 2.450 . S
O245 C226 1.242 . S
O246 Sm224 2.681 1_456 S
O246 Sm225 2.386 . S
O246 C233 1.269 1_455 S
O247 Sm224 2.464 1_556 S
O247 C233 1.255 . S
O248 Sm224 2.396 1_556 S
O248 C234 1.252 . S
O249 Sm225 2.408 1_655 S
O249 C234 1.272 . S
O250 Sm225 2.543 . S
O250 C235 1.261 . S
O251 Sm225 2.450 . S
O251 C235 1.242 . S
O252 Sm224 2.386 . S
O252 Sm225 2.681 1_654 S
O252 C242 1.268 1_655 S
O253 Sm225 2.464 . S
O253 C242 1.257 1_556 S
O254 Sm225 2.396 . S
O254 C243 1.252 . S
O255 Sm224 2.408 1_455 S
O255 C243 1.272 1_554 S
H256 C228 0.930 . S
H257 C229 0.929 . S
H258 C231 0.930 . S
H259 C232 0.929 . S
H260 C237 0.930 . S
H261 C238 0.929 . S
H262 C240 0.930 . S
H263 C241 0.929 . S
C82 C113 3.392 1_545 S
C153 C95 3.390 . S
C193 C56 3.412 . S
C233 C69 3.400 1_655 S
C122 C30 3.375 . S
C43 C162 3.439 . S
C4 C202 3.476 . S
C17 C242 3.400 . S
C119 C74 2.586 1_655 S
C159 C87 2.418 1_565 S
C199 C100 2.288 . S
C61 C239 2.429 . S
C22 C110 2.585 . S
C150 C35 2.418 . S
C190 C48 2.267 . S
C9 C230 2.407 . S
C73 C123 3.996 . S
C86 C163 3.917 . S
C203 C99 3.918 . S
C243 C60 3.994 . S
C21 C114 4.000 1_455 S
C154 C34 3.916 1_565 S
C194 C47 3.931 . S
C8 C234 4.010 . S
