# Generated by pormake.
# Topology anh, (6,3)-cn, num edge types: 1
# Building blocks:
#     Node 0, Type 0, BuildingBlock: BETDIP_clean_sbu_0, # of connection points: 6
#     Node 1, Type 0, BuildingBlock: BETDIP_clean_sbu_0, # of connection points: 6
#     Node 2, Type 0, BuildingBlock: BETDIP_clean_sbu_0, # of connection points: 6
#     Node 3, Type 1, BuildingBlock: BELTOD_clean_linker_0, # of connection points: 3
#     Node 4, Type 1, BuildingBlock: BELTOD_clean_linker_0, # of connection points: 3
#     Node 5, Type 1, BuildingBlock: BELTOD_clean_linker_0, # of connection points: 3
#     Node 6, Type 1, BuildingBlock: BELTOD_clean_linker_0, # of connection points: 3
#     Node 7, Type 1, BuildingBlock: BELTOD_clean_linker_0, # of connection points: 3
#     Node 8, Type 1, BuildingBlock: BELTOD_clean_linker_0, # of connection points: 3
#     Edge 9, Type (0, 1), BuildingBlock: UVAHIK_clean_linker_0, # of connection points: 2
#     Edge 10, Type (0, 1), BuildingBlock: UVAHIK_clean_linker_0, # of connection points: 2
#     Edge 11, Type (0, 1), BuildingBlock: UVAHIK_clean_linker_0, # of connection points: 2
#     Edge 12, Type (0, 1), BuildingBlock: UVAHIK_clean_linker_0, # of connection points: 2
#     Edge 13, Type (0, 1), BuildingBlock: UVAHIK_clean_linker_0, # of connection points: 2
#     Edge 14, Type (0, 1), BuildingBlock: UVAHIK_clean_linker_0, # of connection points: 2
#     Edge 15, Type (0, 1), BuildingBlock: UVAHIK_clean_linker_0, # of connection points: 2
#     Edge 16, Type (0, 1), BuildingBlock: UVAHIK_clean_linker_0, # of connection points: 2
#     Edge 17, Type (0, 1), BuildingBlock: UVAHIK_clean_linker_0, # of connection points: 2
#     Edge 18, Type (0, 1), BuildingBlock: UVAHIK_clean_linker_0, # of connection points: 2
#     Edge 19, Type (0, 1), BuildingBlock: UVAHIK_clean_linker_0, # of connection points: 2
#     Edge 20, Type (0, 1), BuildingBlock: UVAHIK_clean_linker_0, # of connection points: 2
#     Edge 21, Type (0, 1), BuildingBlock: UVAHIK_clean_linker_0, # of connection points: 2
#     Edge 22, Type (0, 1), BuildingBlock: UVAHIK_clean_linker_0, # of connection points: 2
#     Edge 23, Type (0, 1), BuildingBlock: UVAHIK_clean_linker_0, # of connection points: 2
#     Edge 24, Type (0, 1), BuildingBlock: UVAHIK_clean_linker_0, # of connection points: 2
#     Edge 25, Type (0, 1), BuildingBlock: UVAHIK_clean_linker_0, # of connection points: 2
#     Edge 26, Type (0, 1), BuildingBlock: UVAHIK_clean_linker_0, # of connection points: 2
# Relax obj value: 0.206
# Max RMSD: 0.174
# Mean RMSD: 0.142
data_MOF--net-anh--node1-BETDIP_clean_sbu_0--node2-BELTOD_clean_linker_0--edge1-UVAHIK_clean_linker_0
_symmetry_space_group_name_H-M    P1
_symmetry_Int_Tables_number       1
_symmetry_cell_setting            triclinic
loop_
_symmetry_equiv_pos_as_xyz
'x, y, z'
_cell_length_a     43.868907
_cell_length_b     43.960645
_cell_length_c     75.685466
_cell_angle_alpha  90.090909
_cell_angle_beta   89.738028
_cell_angle_gamma 119.93398
loop_
_atom_site_label
_atom_site_type_symbol
_atom_site_fract_x
_atom_site_fract_y
_atom_site_fract_z
_atom_type_partial_charge
Tb0 Tb 0.08162 0.58547 0.17426 0.0
Tb1 Tb 1.0464 0.51117 0.16322 0.0
C2 C 0.12 0.64205 0.19001 0.0
C3 C 0.15827 0.66646 0.18941 0.0
C4 C 0.1823 0.65529 0.19365 0.0
C5 C 0.21834 0.67768 0.19113 0.0
C6 C 0.23107 0.71162 0.18424 0.0
C7 C 0.20697 0.72294 0.18037 0.0
C8 C 0.17098 0.70064 0.18301 0.0
C9 C 0.07235 0.57583 0.14015 0.0
C10 C 0.12878 0.54786 0.16592 0.0
C11 C 1.0078 0.45442 0.14748 0.0
C12 C 0.97178 0.43901 0.14064 0.0
C13 C 0.96251 0.41968 0.12488 0.0
C14 C 0.92832 0.40527 0.11828 0.0
C15 C 0.90308 0.41038 0.12726 0.0
C16 C 0.91283 0.43055 0.14278 0.0
C17 C 0.94677 0.44458 0.14945 0.0
C18 C 0.05585 0.52145 0.19767 0.0
C19 C 1.00093 0.55056 0.16747 0.0
O20 O 0.1093 0.61116 0.19716 0.0
O21 O 0.10336 0.64 0.17537 0.0
O22 O 0.08092 0.55917 0.15057 0.0
O23 O 0.07136 0.601 0.14854 0.0
O24 O 0.12707 0.57542 0.17222 0.0
O25 O 0.09985 0.51956 0.1604 0.0
O26 O 1.03116 0.48292 0.13943 0.0
O27 O 1.01105 0.45708 0.16468 0.0
O28 O 1.04659 0.53765 0.18719 0.0
O29 O 0.05829 0.49728 0.189 0.0
O30 O 1.00479 0.52556 0.15967 0.0
O31 O 1.02719 0.57517 0.17686 0.0
H32 H 0.17333 0.62903 0.19858 0.0
H33 H 0.23619 0.66834 0.19456 0.0
H34 H 0.21579 0.74875 0.17486 0.0
H35 H 0.15294 0.70975 0.17956 0.0
H36 H 0.9816 0.41545 0.1178 0.0
H37 H 0.92145 0.38975 0.1063 0.0
H38 H 0.89382 0.43436 0.15021 0.0
H39 H 0.95327 0.45943 0.16163 0.0
Tb40 Tb 0.57568 1.02653 0.50798 0.0
Tb41 Tb 0.53549 0.06143 0.49793 0.0
C42 C 0.59633 0.99102 0.52472 0.0
C43 C 0.58487 0.95375 0.52684 0.0
C44 C 0.59992 0.94358 0.54014 0.0
C45 C 0.59154 0.90864 0.54156 0.0
C46 C 0.56783 0.88321 0.5297 0.0
C47 C 0.55189 0.8934 0.51669 0.0
C48 C 0.56037 0.92848 0.51527 0.0
C49 C 0.575 0.03698 0.47414 0.0
C50 C 0.49108 0.97893 0.49978 0.0
C51 C 0.5159 0.10021 0.48356 0.0
C52 C 0.53479 0.13836 0.48086 0.0
C53 C 0.52683 0.15329 0.46651 0.0
C54 C 0.54656 0.18954 0.46348 0.0
C55 C 0.57481 0.211 0.47461 0.0
C56 C 0.58243 0.19585 0.48901 0.0
C57 C 0.56254 0.15995 0.49215 0.0
C58 C 0.53912 0.05229 0.53224 0.0
C59 C 0.62075 0.10783 0.50138 0.0
O60 O 0.57563 1.00149 0.53155 0.0
O61 O 0.60779 1.004 0.50895 0.0
O62 O 0.54954 1.02777 0.48464 0.0
O63 O 0.60125 0.03747 0.4822 0.0
O64 O 0.52039 0.98069 0.50609 0.0
O65 O 0.4916 1.00784 0.49429 0.0
O66 O 0.52857 0.08335 0.47473 0.0
O67 O 0.50888 0.08978 0.5 0.0
O68 O 0.56356 0.06178 0.52109 0.0
O69 O 0.51143 0.04895 0.52439 0.0
O70 O 0.59113 0.10472 0.49495 0.0
O71 O 0.62011 0.08083 0.5096 0.0
H72 H 0.61895 0.96285 0.54913 0.0
H73 H 0.60484 0.90189 0.55152 0.0
H74 H 0.53337 0.87441 0.50745 0.0
H75 H 0.54851 0.93601 0.5049 0.0
H76 H 0.5056 0.13692 0.45761 0.0
H77 H 0.54008 0.20073 0.45236 0.0
H78 H 0.60356 0.21189 0.49803 0.0
H79 H 0.56908 0.14903 0.50335 0.0
Tb80 Tb 0.53703 0.53176 0.83884 0.0
Tb81 Tb 0.61387 0.57164 0.83183 0.0
C82 C 0.47759 0.51335 0.85168 0.0
C83 C 0.4565 0.53076 0.85133 0.0
C84 C 0.43202 0.52448 0.86476 0.0
C85 C 0.41307 0.54229 0.8648 0.0
C86 C 0.41848 0.56673 0.85142 0.0
C87 C 0.44317 0.57295 0.83801 0.0
C88 C 0.46198 0.55511 0.83796 0.0
C89 C 0.5552 0.53648 0.80548 0.0
C90 C 0.57693 0.61726 0.83275 0.0
C91 C 0.67289 0.58977 0.81843 0.0
C92 C 0.688 0.56839 0.81202 0.0
C93 C 0.69931 0.57129 0.79438 0.0
C94 C 0.71065 0.54881 0.78776 0.0
C95 C 0.71043 0.52285 0.79866 0.0
C96 C 0.69947 0.52032 0.81632 0.0
C97 C 0.68835 0.54278 0.82293 0.0
C98 C 0.59634 0.56822 0.86543 0.0
C99 C 0.57273 0.48605 0.83438 0.0
O100 O 0.5067 0.52963 0.86082 0.0
O101 O 0.4823 0.50239 0.83636 0.0
O102 O 0.56871 0.55983 0.81707 0.0
O103 O 0.52851 0.50886 0.81218 0.0
O104 O 0.54831 0.58764 0.8379 0.0
O105 O 0.60612 0.61693 0.82841 0.0
O106 O 0.64619 0.58647 0.80932 0.0
O107 O 0.66758 0.58959 0.83549 0.0
O108 O 0.58214 0.54358 0.85429 0.0
O109 O 0.62253 0.5953 0.85799 0.0
O110 O 0.60028 0.51569 0.82856 0.0
O111 O 0.54539 0.48669 0.84156 0.0
H112 H 0.42765 0.50591 0.87522 0.0
H113 H 0.39389 0.53662 0.87518 0.0
H114 H 0.44827 0.59194 0.82767 0.0
H115 H 0.48101 0.56054 0.82753 0.0
H116 H 0.69889 0.59062 0.78567 0.0
H117 H 0.71925 0.55147 0.77413 0.0
H118 H 0.69979 0.5011 0.82515 0.0
H119 H 0.67946 0.53956 0.83653 0.0
P120 P 0.65558 0.07846 0.23126 0.0
H121 H 0.6601 0.03615 0.20256 0.0
H122 H 0.61614 0.98047 0.18905 0.0
H123 H 0.53709 0.9764 0.2247 0.0
H124 H 0.58042 1.03211 0.23769 0.0
H125 H 0.71267 0.14802 0.22206 0.0
H126 H 0.71524 0.19562 0.20445 0.0
H127 H 0.60311 0.13456 0.19577 0.0
H128 H 0.60076 0.0868 0.21345 0.0
H129 H 0.62875 1.02621 0.25939 0.0
H130 H 0.66013 0.13565 0.2535 0.0
O131 O 0.695 0.08144 0.23055 0.0
H132 H 0.61144 1.02762 0.29003 0.0
H133 H 0.6439 0.13734 0.28438 0.0
C134 C 0.62375 0.0375 0.22154 0.0
C135 C 0.63334 1.02306 0.20752 0.0
C136 C 0.60833 0.99146 0.19979 0.0
C137 C 0.57358 0.97398 0.20614 0.0
C138 C 0.56397 0.989 0.2199 0.0
C139 C 0.58874 1.02074 0.22736 0.0
C140 C 0.65674 0.11364 0.21869 0.0
C141 C 0.68864 0.14486 0.21639 0.0
C142 C 0.68996 0.17219 0.20647 0.0
C143 C 0.6593 0.16883 0.19874 0.0
C144 C 0.62715 0.13774 0.20144 0.0
C145 C 0.62584 0.11045 0.2115 0.0
C146 C 0.64463 0.08049 0.254 0.0
C147 C 0.63174 0.05047 0.26465 0.0
C148 C 0.62187 0.05127 0.28211 0.0
C149 C 0.6259 0.08245 0.28937 0.0
C150 C 0.64031 0.11295 0.27896 0.0
C151 C 0.64949 0.11193 0.26134 0.0
P152 P 0.77978 0.63479 0.58393 0.0
H153 H 0.81588 0.6269 0.55326 0.0
H154 H 0.80173 0.57672 0.53401 0.0
H155 H 0.71454 0.5103 0.56835 0.0
H156 H 0.72919 0.55999 0.58747 0.0
H157 H 0.78739 0.70454 0.58115 0.0
H158 H 0.74847 0.72479 0.56948 0.0
H159 H 0.67673 0.62 0.55102 0.0
H160 H 0.71489 0.59972 0.56296 0.0
H161 H 0.78712 0.59047 0.61055 0.0
H162 H 0.73976 0.65594 0.60725 0.0
O163 O 0.82219 0.66566 0.58394 0.0
H164 H 0.76406 0.57352 0.64074 0.0
H165 H 0.71715 0.6394 0.63712 0.0
C166 C 0.77424 0.59694 0.57205 0.0
C167 C 0.79443 0.60123 0.55688 0.0
C168 C 0.78606 0.57265 0.5458 0.0
C169 C 0.7571 0.53944 0.54967 0.0
C170 C 0.73756 0.53523 0.56517 0.0
C171 C 0.74599 0.5637 0.57621 0.0
C172 C 0.75441 0.65077 0.57273 0.0
C173 C 0.76364 0.68611 0.57429 0.0
C174 C 0.74134 0.69757 0.56774 0.0
C175 C 0.70972 0.67387 0.55936 0.0
C176 C 0.70115 0.63881 0.55726 0.0
C177 C 0.72309 0.62725 0.56409 0.0
C178 C 0.76455 0.62384 0.60645 0.0
C179 C 0.77181 0.60118 0.61628 0.0
C180 C 0.75859 0.59146 0.63347 0.0
C181 C 0.7387 0.60504 0.64122 0.0
C182 C 0.73257 0.62867 0.63153 0.0
C183 C 0.74539 0.638 0.61434 0.0
P184 P 1.03313 0.59869 0.89689 0.0
H185 H 0.10127 0.65926 0.90524 0.0
H186 H 0.1611 0.67862 0.89452 0.0
H187 H 0.11974 0.59037 0.85873 0.0
H188 H 0.06062 0.57129 0.86937 0.0
H189 H 0.99631 0.60687 0.86721 0.0
H190 H 0.95589 0.566 0.84552 0.0
H191 H 0.96138 0.48088 0.87103 0.0
H192 H 1.00123 0.52224 0.89319 0.0
H193 H 0.07963 0.58411 0.91904 0.0
H194 H 0.97591 0.5719 0.92233 0.0
O195 O 1.02679 0.63296 0.89872 0.0
H196 H 0.07509 0.56547 0.94969 0.0
H197 H 0.97065 0.55205 0.95294 0.0
C198 C 0.07648 0.61407 0.88801 0.0
C199 C 0.10515 0.64442 0.89491 0.0
C200 C 0.13923 0.65539 0.88883 0.0
C201 C 0.14498 0.63619 0.87567 0.0
C202 C 0.11605 0.60612 0.86861 0.0
C203 C 0.08214 0.59504 0.8748 0.0
C204 C 1.001 0.5674 0.882 0.0
C205 C 0.98847 0.57935 0.86828 0.0
C206 C 0.96582 0.55596 0.85568 0.0
C207 C 0.95571 0.52013 0.85636 0.0
C208 C 0.96846 0.50822 0.87018 0.0
C209 C 0.99106 0.53176 0.88288 0.0
C210 C 1.02828 0.57996 0.91852 0.0
C211 C 0.05565 0.57698 0.92626 0.0
C212 C 0.05288 0.56596 0.9438 0.0
C213 C 1.02263 0.55759 0.95384 0.0
C214 C 0.99457 0.55893 0.94568 0.0
C215 C 0.99744 0.57009 0.92817 0.0
P216 P 0.06897 0.52918 0.45136 0.0
H217 H 0.09219 0.56787 0.48611 0.0
H218 H 0.14248 0.62534 0.49422 0.0
H219 H 0.16944 0.64759 0.43901 0.0
H220 H 0.1198 0.59189 0.43123 0.0
H221 H 1.04382 0.48455 0.48359 0.0
H222 H 0.98695 0.43462 0.49212 0.0
H223 H 0.93863 0.45507 0.44759 0.0
H224 H 0.99494 0.50532 0.43964 0.0
H225 H 0.08642 0.49402 0.4231 0.0
H226 H 1.04255 0.56238 0.42651 0.0
O227 O 0.0914 0.50867 0.45586 0.0
H228 H 0.08372 0.49477 0.39109 0.0
H229 H 1.03771 0.56168 0.3943 0.0
C230 C 0.10026 0.57523 0.45791 0.0
C231 C 0.10815 0.58568 0.47571 0.0
C232 C 0.13767 0.61866 0.48036 0.0
C233 C 0.1608 0.6423 0.46737 0.0
C234 C 0.15244 0.63154 0.44962 0.0
C235 C 0.1232 0.59895 0.44505 0.0
C236 C 1.02464 0.49964 0.46089 0.0
C237 C 1.02086 0.47906 0.47591 0.0
C238 C 0.98798 0.4497 0.48062 0.0
C239 C 0.9573 0.43947 0.47047 0.0
C240 C 0.96089 0.46141 0.456 0.0
C241 C 0.99373 0.49077 0.45136 0.0
C242 C 0.06454 0.52803 0.42737 0.0
C243 C 0.07571 0.50889 0.417 0.0
C244 C 0.07384 0.50911 0.39852 0.0
C245 C 0.06028 0.52813 0.38981 0.0
C246 C 1.0488 0.54708 0.40032 0.0
C247 C 1.05113 0.54718 0.41884 0.0
P248 P 0.58833 0.05805 0.78425 0.0
H249 H 0.58605 0.08844 0.81956 0.0
H250 H 0.58211 0.14047 0.82803 0.0
H251 H 0.55967 0.15252 0.77388 0.0
H252 H 0.56571 0.10317 0.76555 0.0
H253 H 0.60779 0.03408 0.81692 0.0
H254 H 0.6021 0.9779 0.82564 0.0
H255 H 0.53606 0.9287 0.78031 0.0
H256 H 0.54049 0.98412 0.77235 0.0
H257 H 0.63548 0.06475 0.75482 0.0
H258 H 0.52679 0.03628 0.76106 0.0
O259 O 0.6318 0.08017 0.78725 0.0
H260 H 0.62827 0.0592 0.72295 0.0
H261 H 0.51969 1.03287 0.72899 0.0
C262 C 0.57482 0.08989 0.7919 0.0
C263 C 0.57928 0.10165 0.80957 0.0
C264 C 0.57723 0.13192 0.81441 0.0
C265 C 0.57098 0.15187 0.8017 0.0
C266 C 0.56535 0.13913 0.78421 0.0
C267 C 0.56782 0.10945 0.77942 0.0
C268 C 0.57448 1.01422 0.79394 0.0
C269 C 0.59108 1.011 0.80915 0.0
C270 C 0.58835 0.97853 0.81394 0.0
C271 C 0.56908 0.9478 0.80363 0.0
C272 C 0.55102 0.95091 0.78891 0.0
C273 C 0.55357 0.98326 0.78424 0.0
C274 C 0.58197 0.05204 0.76042 0.0
C275 C 0.61006 0.05772 0.74934 0.0
C276 C 0.60591 0.0548 0.73095 0.0
C277 C 0.57355 0.04635 0.72306 0.0
C278 C 0.54503 0.03928 0.73434 0.0
C279 C 0.54909 0.04155 0.75277 0.0
P280 P 0.55613 0.53054 0.1182 0.0
H281 H 0.57955 0.50769 0.14974 0.0
H282 H 0.63605 0.51378 0.15825 0.0
H283 H 0.68664 0.58719 0.11549 0.0
H284 H 0.63045 0.58177 0.10751 0.0
H285 H 0.52868 0.53798 0.15338 0.0
H286 H 0.47826 0.54496 0.16196 0.0
H287 H 0.46115 0.55829 0.10714 0.0
H288 H 0.51031 0.55118 0.09883 0.0
H289 H 0.54619 0.48055 0.0898 0.0
H290 H 0.57985 0.59066 0.09375 0.0
O291 O 0.53306 0.48743 0.12208 0.0
H292 H 0.55166 0.48551 0.05778 0.0
H293 H 0.58435 0.59574 0.0615 0.0
C294 C 0.59988 0.54423 0.12791 0.0
C295 C 0.60289 0.52593 0.14246 0.0
C296 C 0.63554 0.52899 0.14714 0.0
C297 C 0.66672 0.55052 0.13745 0.0
C298 C 0.66388 0.57036 0.1235 0.0
C299 C 0.63122 0.5673 0.11886 0.0
C300 C 0.52533 0.54566 0.12542 0.0
C301 C 0.51489 0.54365 0.14324 0.0
C302 C 0.48538 0.54707 0.14812 0.0
C303 C 0.46505 0.55252 0.13533 0.0
C304 C 0.47607 0.55507 0.11759 0.0
C305 C 0.50509 0.55131 0.11277 0.0
C306 C 0.5619 0.53508 0.09428 0.0
C307 C 0.55453 0.50585 0.0838 0.0
C308 C 0.55748 0.50869 0.06535 0.0
C309 C 0.56795 0.54093 0.05683 0.0
C310 C 0.57639 0.57048 0.06746 0.0
C311 C 0.57363 0.56761 0.08595 0.0
C312 C 0.16597 0.51991 0.15784 0.0
C313 C 0.16406 0.54929 0.16397 0.0
C314 C 0.19853 0.52101 0.1556 0.0
C315 C 0.29679 0.58354 0.15121 0.0
H316 H 0.3023 0.4992 0.15845 0.0
C317 C 0.42209 0.57543 0.13036 0.0
C318 C 0.4319 0.55417 0.14005 0.0
C319 C 0.39051 0.57563 0.13395 0.0
C320 C 0.30166 0.52324 0.15646 0.0
H321 H 0.19638 0.60321 0.17246 0.0
H322 H 0.25279 0.60515 0.16871 0.0
H323 H 0.24695 0.49821 0.16364 0.0
H324 H 0.41464 0.51645 0.16148 0.0
H325 H 0.36032 0.51714 0.16785 0.0
H326 H 0.35165 0.60869 0.14426 0.0
C327 C 0.22897 0.58106 0.16545 0.0
C328 C 0.26937 0.52256 0.15925 0.0
C329 C 0.19629 0.5799 0.16777 0.0
C330 C 0.40873 0.53349 0.1537 0.0
C331 C 0.37698 0.53355 0.15723 0.0
C332 C 0.32905 0.58418 0.14834 0.0
C333 C 0.23089 0.5516 0.1593 0.0
C334 C 0.26606 0.55265 0.15663 0.0
C335 C 0.36698 0.55449 0.14737 0.0
C336 C 0.33228 0.55402 0.15084 0.0
H337 H 0.14212 0.49579 0.15465 0.0
H338 H 0.1982 0.49778 0.15058 0.0
H339 H 0.29592 0.60736 0.14883 0.0
H340 H 0.43894 0.5922 0.11988 0.0
H341 H 0.38426 0.59199 0.12582 0.0
C342 C 0.68761 0.14673 0.50509 0.0
C343 C 0.65525 0.14228 0.499 0.0
C344 C 0.71971 0.17852 0.50237 0.0
C345 C 0.7607 0.2639 0.47568 0.0
H346 H 0.83785 0.29247 0.50841 0.0
C347 C 0.88945 0.40234 0.4701 0.0
C348 C 0.92237 0.40581 0.47451 0.0
C349 C 0.85735 0.37084 0.47327 0.0
C350 C 0.81689 0.28497 0.49893 0.0
H351 H 0.63254 0.16914 0.48504 0.0
H352 H 0.68737 0.22414 0.48085 0.0
H353 H 0.78269 0.23816 0.51354 0.0
H354 H 0.94559 0.37671 0.48578 0.0
H355 H 0.89038 0.32279 0.49141 0.0
H356 H 0.7949 0.31093 0.46118 0.0
C357 C 0.68846 0.20294 0.48749 0.0
C358 C 0.78479 0.25333 0.50189 0.0
C359 C 0.65647 0.17111 0.49012 0.0
C360 C 0.92138 0.37615 0.48241 0.0
C361 C 0.88926 0.34472 0.48565 0.0
C362 C 0.79272 0.29561 0.47278 0.0
C363 C 0.72103 0.2075 0.49346 0.0
C364 C 0.75582 0.24188 0.49033 0.0
C365 C 0.85641 0.34118 0.48108 0.0
C366 C 0.82168 0.30695 0.48431 0.0
H367 H 0.6883 0.1254 0.51186 0.0
H368 H 0.74367 0.17996 0.50703 0.0
H369 H 0.73994 0.25644 0.4661 0.0
H370 H 0.8882 0.42419 0.46434 0.0
H371 H 0.83307 0.37005 0.46977 0.0
C372 C 0.54653 0.65402 0.83636 0.0
C373 C 0.5756 0.65104 0.8306 0.0
C374 C 0.54542 0.68547 0.83401 0.0
C375 C 0.60328 0.78257 0.82161 0.0
H376 H 0.51383 0.77949 0.81809 0.0
C377 C 0.59709 0.91309 0.81647 0.0
C378 C 0.56881 0.91339 0.8077 0.0
C379 C 0.59743 0.88151 0.8197 0.0
C380 C 0.53928 0.78126 0.81881 0.0
H381 H 0.62619 0.67992 0.8175 0.0
H382 H 0.62399 0.73352 0.813 0.0
H383 H 0.51527 0.72544 0.82214 0.0
H384 H 0.51804 0.87838 0.79591 0.0
H385 H 0.51932 0.82452 0.80076 0.0
H386 H 0.62734 0.83812 0.81755 0.0
C387 C 0.60216 0.71208 0.81984 0.0
C388 C 0.54011 0.74976 0.82147 0.0
C389 C 0.60338 0.68082 0.82233 0.0
C390 C 0.5408 0.88027 0.80244 0.0
C391 C 0.54128 0.84873 0.80553 0.0
C392 C 0.60246 0.81399 0.8188 0.0
C393 C 0.57321 0.71538 0.82564 0.0
C394 C 0.57215 0.74952 0.82293 0.0
C395 C 0.56966 0.84845 0.8142 0.0
C396 C 0.57045 0.81427 0.81733 0.0
H397 H 0.52453 0.63202 0.84283 0.0
H398 H 0.5227 0.68626 0.83902 0.0
H399 H 0.62875 0.78454 0.8229 0.0
H400 H 0.61964 0.93743 0.82067 0.0
H401 H 0.61972 0.8833 0.82668 0.0
C402 C 0.95918 0.57425 0.17444 0.0
C403 C 0.96667 0.55093 0.16508 0.0
C404 C 0.92726 0.57445 0.17189 0.0
C405 C 0.83549 0.5207 0.15212 0.0
H406 H 0.83276 0.60686 0.15775 0.0
C407 C 0.70188 0.52148 0.14809 0.0
C408 C 0.70138 0.55126 0.14139 0.0
C409 C 0.73377 0.52169 0.15126 0.0
C410 C 0.83275 0.58244 0.15593 0.0
H411 H 0.94561 0.51008 0.14518 0.0
H412 H 0.89091 0.51041 0.14073 0.0
H413 H 0.88773 0.60691 0.16226 0.0
H414 H 0.73603 0.60512 0.13316 0.0
H415 H 0.79086 0.60522 0.13821 0.0
H416 H 0.7808 0.49641 0.14533 0.0
C417 C 0.90916 0.52821 0.15043 0.0
C418 C 0.86462 0.58237 0.1588 0.0
C419 C 0.94098 0.52804 0.15298 0.0
C420 C 0.73452 0.58133 0.13811 0.0
C421 C 0.76644 0.58153 0.14127 0.0
C422 C 0.80366 0.52078 0.14925 0.0
C423 C 0.9014 0.55139 0.15981 0.0
C424 C 0.86685 0.5515 0.15693 0.0
C425 C 0.76691 0.55167 0.14787 0.0
C426 C 0.80143 0.55165 0.15106 0.0
H427 H 0.97798 0.59239 0.18387 0.0
H428 H 0.92276 0.59254 0.17966 0.0
H429 H 0.83522 0.49607 0.1507 0.0
H430 H 0.67747 0.49744 0.15066 0.0
H431 H 0.73223 0.49811 0.15655 0.0
C432 C 0.45622 0.91131 0.49942 0.0
C433 C 0.45727 0.94381 0.49774 0.0
C434 C 0.42462 0.87895 0.49677 0.0
C435 C 0.33134 0.84112 0.47829 0.0
H436 H 0.31671 0.75516 0.49995 0.0
C437 C 0.20787 0.70597 0.46005 0.0
C438 C 0.19389 0.67726 0.47193 0.0
C439 C 0.23937 0.7376 0.46357 0.0
C440 C 0.3198 0.77878 0.49387 0.0
H441 H 0.42444 0.9666 0.49233 0.0
H442 H 0.37014 0.9114 0.48842 0.0
H443 H 0.37073 0.81006 0.50564 0.0
H444 H 0.20381 0.66134 0.49738 0.0
H445 H 0.25736 0.71643 0.50382 0.0
H446 H 0.28003 0.81041 0.4671 0.0
C447 C 0.39374 0.91031 0.49117 0.0
C448 C 0.35155 0.81071 0.49695 0.0
C449 C 0.42529 0.9425 0.49362 0.0
C450 C 0.21285 0.68231 0.48778 0.0
C451 C 0.24435 0.71421 0.49139 0.0
C452 C 0.29956 0.80937 0.47534 0.0
C453 C 0.39251 0.8776 0.49247 0.0
C454 C 0.35822 0.8428 0.48923 0.0
C455 C 0.25858 0.74268 0.47932 0.0
C456 C 0.29291 0.77722 0.48295 0.0
H457 H 0.48003 0.91078 0.5025 0.0
H458 H 0.42576 0.855 0.49777 0.0
H459 H 0.33475 0.8644 0.47166 0.0
H460 H 0.19444 0.7043 0.44782 0.0
H461 H 0.24882 0.75791 0.4536 0.0
C462 C 0.60295 0.45076 0.82685 0.0
C463 C 0.57253 0.45147 0.8323 0.0
C464 C 0.60297 0.41886 0.82445 0.0
C465 C 0.54888 0.31982 0.83282 0.0
H466 H 0.61509 0.31813 0.79943 0.0
C467 C 0.56137 0.19274 0.82285 0.0
C468 C 0.57159 0.18627 0.80614 0.0
C469 C 0.56157 0.22454 0.82655 0.0
C470 C 0.59595 0.31754 0.8087 0.0
H471 H 0.51777 0.41767 0.83932 0.0
H472 H 0.51729 0.3624 0.83463 0.0
H473 H 0.61413 0.37208 0.80423 0.0
H474 H 0.59134 0.21063 0.78053 0.0
H475 H 0.59032 0.26408 0.78659 0.0
H476 H 0.52989 0.26477 0.83674 0.0
C477 C 0.5418 0.38663 0.83262 0.0
C478 C 0.59581 0.34923 0.81174 0.0
C479 C 0.54196 0.41869 0.83524 0.0
C480 C 0.5824 0.21339 0.79346 0.0
C481 C 0.58245 0.24494 0.7971 0.0
C482 C 0.54888 0.28799 0.82969 0.0
C483 C 0.57232 0.38586 0.82708 0.0
C484 C 0.57229 0.35131 0.82388 0.0
C485 C 0.57208 0.25148 0.81373 0.0
C486 C 0.57236 0.28597 0.81749 0.0
H487 H 0.62709 0.47506 0.82446 0.0
H488 H 0.62747 0.42034 0.82069 0.0
H489 H 0.5305 0.31959 0.84247 0.0
H490 H 0.55268 0.17301 0.83312 0.0
H491 H 0.55376 0.22802 0.83963 0.0
C492 C 0.56141 0.83108 0.54628 0.0
C493 C 0.56261 0.84717 0.53008 0.0
C494 C 0.56429 0.80092 0.5468 0.0
C495 C 0.60603 0.7619 0.5204 0.0
H496 H 0.57739 0.69828 0.56035 0.0
C497 C 0.67048 0.67809 0.53672 0.0
C498 C 0.68461 0.6851 0.55385 0.0
C499 C 0.64676 0.68893 0.53166 0.0
C500 C 0.58526 0.71562 0.54901 0.0
H501 H 0.56413 0.84217 0.5016 0.0
H502 H 0.56783 0.78873 0.50248 0.0
H503 H 0.54731 0.73135 0.55462 0.0
H504 H 0.68423 0.70754 0.57929 0.0
H505 H 0.6426 0.72624 0.5705 0.0
H506 H 0.64458 0.74674 0.51512 0.0
C507 C 0.56577 0.80006 0.51483 0.0
C508 C 0.56819 0.73465 0.54576 0.0
C509 C 0.56322 0.8305 0.51432 0.0
C510 C 0.674 0.70224 0.56595 0.0
C511 C 0.64988 0.71249 0.561 0.0
C512 C 0.62273 0.74248 0.52352 0.0
C513 C 0.56805 0.78589 0.53109 0.0
C514 C 0.57953 0.75931 0.53192 0.0
C515 C 0.63628 0.70621 0.54378 0.0
C516 C 0.61354 0.72041 0.5383 0.0
H517 H 0.56016 0.84288 0.55864 0.0
H518 H 0.56608 0.79098 0.5596 0.0
H519 H 0.61581 0.78083 0.50972 0.0
H520 H 0.67829 0.66481 0.52719 0.0
H521 H 0.6367 0.68395 0.51829 0.0
C522 C 0.75753 0.51491 0.78454 0.0
C523 C 0.72413 0.5 0.79241 0.0
C524 C 0.77499 0.4957 0.78342 0.0
C525 C 0.81055 0.45185 0.78483 0.0
H526 H 0.80769 0.42984 0.83454 0.0
C527 C 0.9319 0.50668 0.82558 0.0
C528 C 0.93054 0.49556 0.8431 0.0
C529 C 0.90365 0.4879 0.81424 0.0
C530 C 0.80868 0.43454 0.82047 0.0
H531 H 0.6805 0.45193 0.80269 0.0
H532 H 0.71101 0.41833 0.80083 0.0
H533 H 0.7587 0.43136 0.82157 0.0
H534 H 0.90088 0.45298 0.86154 0.0
H535 H 0.85235 0.41918 0.84144 0.0
H536 H 0.86158 0.45679 0.78406 0.0
C537 C 0.72403 0.44499 0.79583 0.0
C538 C 0.78023 0.43546 0.81296 0.0
C539 C 0.70665 0.46424 0.79698 0.0
C540 C 0.90255 0.46266 0.84822 0.0
C541 C 0.87448 0.44343 0.83672 0.0
C542 C 0.8389 0.45035 0.79229 0.0
C543 C 0.75926 0.46129 0.79018 0.0
C544 C 0.78205 0.44683 0.79545 0.0
C545 C 0.87352 0.45712 0.82004 0.0
C546 C 0.83953 0.44465 0.81058 0.0
H547 H 0.77157 0.54239 0.78085 0.0
H548 H 0.80215 0.50916 0.77905 0.0
H549 H 0.81228 0.45984 0.77116 0.0
H550 H 0.95378 0.53128 0.82099 0.0
H551 H 0.9044 0.49952 0.80154 0.0
C552 C 0.29044 0.72178 0.17465 0.0
C553 C 0.2693 0.73515 0.1811 0.0
C554 C 0.32658 0.74393 0.17218 0.0
C555 C 0.39487 0.83717 0.16767 0.0
H556 H 0.45559 0.81014 0.19175 0.0
C557 C 0.53939 0.93791 0.18022 0.0
C558 C 0.54671 0.94048 0.19837 0.0
C559 C 0.50984 0.90822 0.17352 0.0
C560 C 0.43903 0.81783 0.18473 0.0
H561 H 0.2697 0.78234 0.18994 0.0
H562 H 0.33243 0.82088 0.1854 0.0
H563 H 0.39319 0.76736 0.18824 0.0
H564 H 0.53107 0.91342 0.2235 0.0
H565 H 0.47967 0.86164 0.21189 0.0
H566 H 0.44012 0.88823 0.16513 0.0
C567 C 0.32098 0.79336 0.18204 0.0
C568 C 0.4034 0.79333 0.18263 0.0
C569 C 0.28501 0.77124 0.18467 0.0
C570 C 0.52572 0.91202 0.20947 0.0
C571 C 0.49652 0.88228 0.20277 0.0
C572 C 0.4305 0.8616 0.16967 0.0
C573 C 0.34218 0.77992 0.17591 0.0
C574 C 0.38074 0.80326 0.17476 0.0
C575 C 0.48756 0.88058 0.18485 0.0
C576 C 0.4526 0.85258 0.17889 0.0
H577 H 0.27907 0.6942 0.17147 0.0
H578 H 0.34234 0.73295 0.16738 0.0
H579 H 0.37801 0.84532 0.16133 0.0
H580 H 0.55525 0.95965 0.17144 0.0
H581 H 0.50357 0.90748 0.15964 0.0
C582 C 0.63226 0.26698 0.47358 0.0
C583 C 0.59544 0.24945 0.47217 0.0
C584 C 0.65133 0.30335 0.47557 0.0
C585 C 0.63687 0.36734 0.49755 0.0
H586 H 0.73339 0.43252 0.48392 0.0
C587 C 0.73108 0.47529 0.54344 0.0
C588 C 0.74522 0.50976 0.53708 0.0
C589 C 0.71468 0.44684 0.53197 0.0
C590 C 0.70632 0.41466 0.48766 0.0
H591 H 0.54997 0.25622 0.46996 0.0
H592 H 0.58337 0.32002 0.47347 0.0
H593 H 0.69949 0.37728 0.46755 0.0
H594 H 0.75511 0.54138 0.51344 0.0
H595 H 0.72726 0.49123 0.49327 0.0
H596 H 0.64418 0.40365 0.51818 0.0
C597 C 0.59742 0.30557 0.47315 0.0
C598 C 0.68699 0.38319 0.47835 0.0
C599 C 0.57834 0.26915 0.47105 0.0
C600 C 0.74473 0.51518 0.51876 0.0
C601 C 0.72866 0.48658 0.50722 0.0
C602 C 0.65626 0.39841 0.50694 0.0
C603 C 0.63384 0.32276 0.47629 0.0
C604 C 0.65232 0.35888 0.4835 0.0
C605 C 0.71255 0.45225 0.51387 0.0
C606 C 0.69137 0.42182 0.50238 0.0
H607 H 0.64604 0.2523 0.47425 0.0
H608 H 0.67933 0.3158 0.47803 0.0
H609 H 0.61044 0.34898 0.50202 0.0
H610 H 0.73174 0.47022 0.55739 0.0
H611 H 0.70287 0.42048 0.53731 0.0
C612 C 0.39157 0.59802 0.86702 0.0
C613 C 0.39799 0.5852 0.85126 0.0
C614 C 0.37054 0.61358 0.86701 0.0
C615 C 0.29791 0.61048 0.84235 0.0
H616 H 0.31288 0.68694 0.87341 0.0
C617 C 0.18892 0.64369 0.85239 0.0
C618 C 0.18103 0.6454 0.87024 0.0
C619 C 0.22089 0.64626 0.84759 0.0
C620 C 0.30839 0.66563 0.86464 0.0
H621 H 0.38824 0.57953 0.82304 0.0
H622 H 0.35183 0.60705 0.823 0.0
H623 H 0.35944 0.6723 0.86957 0.0
H624 H 0.20114 0.65332 0.89696 0.0
H625 H 0.2567 0.65737 0.88867 0.0
H626 H 0.24647 0.6026 0.83798 0.0
C627 C 0.36286 0.60484 0.83538 0.0
C628 C 0.33501 0.65724 0.86245 0.0
C629 C 0.38392 0.58931 0.83539 0.0
C630 C 0.20664 0.65217 0.88309 0.0
C631 C 0.23853 0.65456 0.87831 0.0
C632 C 0.27134 0.61879 0.84455 0.0
C633 C 0.35546 0.61658 0.85123 0.0
C634 C 0.32965 0.62898 0.85165 0.0
C635 C 0.24547 0.65038 0.86058 0.0
C636 C 0.27591 0.64584 0.85608 0.0
H637 H 0.4025 0.59569 0.87941 0.0
H638 H 0.36503 0.62203 0.87947 0.0
H639 H 0.29276 0.58825 0.83411 0.0
H640 H 0.16983 0.63906 0.8422 0.0
H641 H 0.22577 0.64364 0.83379 0.0
C642 C 0.84907 0.35505 0.11881 0.0
C643 C 0.8656 0.39125 0.122 0.0
C644 C 0.81249 0.33483 0.1187 0.0
C645 C 0.74125 0.33853 0.14177 0.0
H646 H 0.69547 0.24066 0.12819 0.0
C647 C 0.68377 0.23234 0.19184 0.0
C648 C 0.66183 0.19712 0.18713 0.0
C649 C 0.69275 0.25896 0.17948 0.0
C650 C 0.70688 0.26797 0.13189 0.0
H651 H 0.85716 0.43552 0.12507 0.0
H652 H 0.79305 0.4003 0.1244 0.0
H653 H 0.74278 0.2841 0.11012 0.0
H654 H 0.62874 0.16234 0.16642 0.0
H655 H 0.64377 0.20902 0.14484 0.0
H656 H 0.70555 0.32234 0.16363 0.0
C657 C 0.80825 0.38724 0.12263 0.0
C658 C 0.73455 0.29296 0.1216 0.0
C659 C 0.84496 0.40746 0.12296 0.0
C660 C 0.64597 0.1893 0.17038 0.0
C661 C 0.65482 0.21604 0.15798 0.0
C662 C 0.71297 0.31369 0.15179 0.0
C663 C 0.79154 0.3504 0.12164 0.0
C664 C 0.75425 0.32793 0.1274 0.0
C665 C 0.67982 0.25102 0.16208 0.0
C666 C 0.69779 0.27774 0.14793 0.0
H667 H 0.86425 0.34178 0.11809 0.0
H668 H 0.80101 0.30662 0.11803 0.0
H669 H 0.75509 0.36526 0.14659 0.0
H670 H 0.69575 0.2392 0.20479 0.0
H671 H 0.71222 0.28537 0.18327 0.0
C672 C 1.04697 0.58247 0.11211 0.0
C673 C 0.0641 0.5677 0.12133 0.0
C674 C 1.03888 0.57485 0.09426 0.0
C675 C 0.06655 0.54776 0.05446 0.0
H676 H 0.9776 0.53249 0.03608 0.0
C677 C 1.03581 0.53024 0.97977 0.0
C678 C 1.02152 0.55024 0.97306 0.0
C679 C 1.03744 0.52613 0.99801 0.0
C680 C 1.0026 0.53682 0.041 0.0
H681 H 0.08649 0.53367 0.11928 0.0
H682 H 0.07238 0.52033 0.08793 0.0
H683 H 0.98758 0.53734 0.0679 0.0
H684 H 0.99749 0.58132 0.98028 0.0
H685 H 1.00026 0.57414 0.01192 0.0
H686 H 0.08203 0.54838 0.02756 0.0
C687 C 0.06518 0.53774 0.09452 0.0
C688 C 1.0083 0.53958 0.05921 0.0
C689 C 0.07308 0.54521 0.11244 0.0
C690 C 1.00805 0.56519 0.98496 0.0
C691 C 1.00965 0.56108 0.00314 0.0
C692 C 0.0609 0.54512 0.03622 0.0
C693 C 1.04798 0.5525 0.08525 0.0
C694 C 1.0406 0.54584 0.06611 0.0
C695 C 1.02479 0.54191 0.0099 0.0
C696 C 1.02914 0.54039 0.02927 0.0
H697 H 1.03975 0.59987 0.1187 0.0
H698 H 1.0261 0.58704 0.08742 0.0
H699 H 0.09182 0.55287 0.05938 0.0
H700 H 1.04601 0.51801 0.97093 0.0
H701 H 1.04886 0.51083 0.0028 0.0
C702 C 0.60762 0.06633 0.44674 0.0
C703 C 0.57536 0.04609 0.45546 0.0
C704 C 0.60849 0.07424 0.42885 0.0
C705 C 0.56191 0.03792 0.38869 0.0
H706 H 0.62003 0.13134 0.36937 0.0
C707 C 0.58146 0.05871 0.31369 0.0
C708 C 0.61549 0.08298 0.30788 0.0
C709 C 0.57226 0.05742 0.33147 0.0
C710 C 0.60393 0.10503 0.37451 0.0
H711 H 0.51869 1.01868 0.45263 0.0
H712 H 0.52024 1.03149 0.42093 0.0
H713 H 0.61209 0.1233 0.40131 0.0
H714 H 0.66646 0.12531 0.31578 0.0
H715 H 0.65118 0.12217 0.34698 0.0
H716 H 0.55549 1.01904 0.36223 0.0
C717 C 0.54475 0.04158 0.42808 0.0
C718 C 0.59919 0.10054 0.39278 0.0
C719 C 0.54387 0.03429 0.44611 0.0
C720 C 0.63997 0.10654 0.32 0.0
C721 C 0.63103 0.10482 0.33785 0.0
C722 C 0.56715 0.04227 0.37045 0.0
C723 C 0.5771 0.06147 0.41931 0.0
C724 C 0.57859 0.06689 0.40001 0.0
C725 C 0.59718 0.07989 0.34388 0.0
C726 C 0.58875 0.07583 0.36312 0.0
H727 H 0.63223 0.07593 0.45375 0.0
H728 H 0.63374 0.08934 0.42232 0.0
H729 H 0.54625 1.01165 0.394 0.0
H730 H 0.56205 0.04056 0.30447 0.0
H731 H 0.54572 0.03846 0.33549 0.0
C732 C 0.59416 0.57216 0.78097 0.0
C733 C 0.57135 0.53893 0.78809 0.0
C734 C 0.6131 0.57547 0.76558 0.0
C735 C 0.61581 0.52942 0.72578 0.0
H736 H 0.71355 0.60351 0.72494 0.0
C737 C 0.70527 0.55876 0.66412 0.0
C738 C 0.72369 0.59436 0.65923 0.0
C739 C 0.68849 0.54865 0.68058 0.0
C740 C 0.6863 0.58275 0.72496 0.0
H741 H 0.54906 0.48294 0.78447 0.0
H742 H 0.58212 0.48866 0.75719 0.0
H743 H 0.67938 0.59148 0.75212 0.0
H744 H 0.74025 0.64733 0.66793 0.0
H745 H 0.71103 0.62978 0.69659 0.0
H746 H 0.62264 0.52125 0.69846 0.0
C747 C 0.58544 0.51215 0.76362 0.0
C748 C 0.66672 0.57589 0.7405 0.0
C749 C 0.56648 0.50885 0.77914 0.0
C750 C 0.72601 0.61969 0.67131 0.0
C751 C 0.70954 0.60964 0.68777 0.0
C752 C 0.63547 0.53627 0.71019 0.0
C753 C 0.60948 0.54557 0.7569 0.0
C754 C 0.63102 0.54981 0.74095 0.0
C755 C 0.69021 0.574 0.69251 0.0
C756 C 0.67067 0.56362 0.70952 0.0
H757 H 0.59801 0.59572 0.78755 0.0
H758 H 0.63075 0.60153 0.7605 0.0
H759 H 0.58833 0.50924 0.72572 0.0
H760 H 0.70288 0.53868 0.655 0.0
H761 H 0.67395 0.52101 0.68393 0.0
C762 C 0.57613 0.06376 0.5594 0.0
C763 C 0.54276 0.04992 0.55163 0.0
C764 C 0.57952 0.06269 0.57779 0.0
C765 C 0.53271 1.01563 0.61815 0.0
H766 H 0.5978 0.10121 0.64251 0.0
C767 C 0.53774 1.02301 0.69491 0.0
C768 C 0.56993 0.04566 0.70325 0.0
C769 C 0.53438 1.02311 0.67647 0.0
C770 C 0.57993 0.07679 0.63601 0.0
H771 H 0.48679 1.0234 0.55699 0.0
H772 H 0.49266 1.02073 0.58907 0.0
H773 H 0.59278 0.10145 0.6105 0.0
H774 H 0.62385 0.0865 0.69814 0.0
H775 H 0.61863 0.08505 0.66632 0.0
H776 H 0.52051 0.99052 0.64345 0.0
C777 C 0.5162 1.03269 0.58096 0.0
C778 C 0.57695 0.07706 0.61757 0.0
C779 C 0.51285 0.03434 0.5626 0.0
C780 C 0.5987 0.06812 0.69242 0.0
C781 C 0.59549 0.0678 0.67399 0.0
C782 C 0.53612 1.01516 0.63657 0.0
C783 C 0.5496 0.04715 0.5888 0.0
C784 C 0.5532 0.04655 0.60841 0.0
C785 C 0.56321 0.04549 0.66565 0.0
C786 C 0.5597 0.04579 0.64587 0.0
H787 H 0.59967 0.0759 0.55129 0.0
H788 H 0.60559 0.07381 0.5834 0.0
H789 H 0.5144 0.99158 0.61147 0.0
H790 H 0.51497 1.00489 0.70257 0.0
H791 H 0.50887 1.00582 0.67076 0.0
C792 C 0.61148 0.59308 0.89598 0.0
C793 C 0.59035 0.56466 0.88487 0.0
C794 C 0.60739 0.58998 0.91436 0.0
C795 C 0.57039 0.52376 0.95067 0.0
H796 H 0.58564 0.60425 0.97852 0.0
C797 C 0.54497 0.51554 0.02651 0.0
C798 C 0.56963 0.54346 0.03702 0.0
C799 C 0.54651 0.5177 0.00801 0.0
C800 C 0.58162 0.58159 0.97098 0.0
H801 H 0.54791 0.51071 0.88439 0.0
H802 H 0.54011 0.50538 0.91654 0.0
H803 H 0.58885 0.60844 0.94641 0.0
H804 H 0.61559 0.59556 0.03588 0.0
H805 H 0.61793 0.59946 0.00371 0.0
H806 H 0.56288 0.49689 0.97534 0.0
C807 C 0.56039 0.53 0.91106 0.0
C808 C 0.5835 0.58398 0.95249 0.0
C809 C 0.56462 0.53309 0.8926 0.0
C810 C 0.59576 0.57371 0.02837 0.0
C811 C 0.59715 0.57594 0.00985 0.0
C812 C 0.5683 0.52132 0.96918 0.0
C813 C 0.58185 0.5584 0.92225 0.0
C814 C 0.57822 0.55521 0.94201 0.0
C815 C 0.57259 0.54794 0.99939 0.0
C816 C 0.57415 0.55028 0.97962 0.0
H817 H 0.63166 0.61775 0.89047 0.0
H818 H 0.6249 0.61229 0.9224 0.0
H819 H 0.56668 0.50116 0.94318 0.0
H820 H 0.52399 0.49207 0.03257 0.0
H821 H 0.5268 0.49583 1.00044 0.0
C822 C 0.0598 0.49932 0.22758 0.0
C823 C 0.05649 0.52411 0.21729 0.0
C824 C 0.05939 0.50069 0.24607 0.0
C825 C 0.076 0.55945 0.28393 0.0
H826 H 1.01696 0.47331 0.30963 0.0
C827 C 0.06299 0.558 0.36063 0.0
C828 C 0.05842 0.52825 0.36995 0.0
C829 C 0.06176 0.55813 0.34208 0.0
C830 C 1.03413 0.4976 0.30278 0.0
H831 H 1.05051 0.57009 0.21842 0.0
H832 H 1.05074 0.57309 0.25084 0.0
H833 H 1.01765 0.47275 0.27748 0.0
H834 H 1.04822 0.47491 0.36653 0.0
H835 H 1.04799 0.4758 0.33456 0.0
H836 H 0.09348 0.58419 0.30914 0.0
C837 C 0.05346 0.55244 0.24453 0.0
C838 C 1.03431 0.49725 0.28426 0.0
C839 C 0.05328 0.5507 0.22596 0.0
C840 C 0.0525 0.49864 0.36003 0.0
C841 C 1.05172 0.49893 0.34152 0.0
C842 C 0.07626 0.55973 0.3025 0.0
C843 C 0.05617 0.52722 0.25481 0.0
C844 C 0.05534 0.52811 0.27457 0.0
C845 C 0.05626 0.52863 0.33217 0.0
C846 C 0.05543 0.52874 0.31227 0.0
H847 H 0.06237 0.47852 0.22133 0.0
H848 H 0.06191 0.48109 0.25356 0.0
H849 H 0.09274 0.58363 0.27688 0.0
H850 H 0.06807 0.58157 0.36761 0.0
H851 H 0.0649 0.58141 0.33555 0.0
loop_
_geom_bond_atom_site_label_1
_geom_bond_atom_site_label_2
_geom_bond_distance
_geom_bond_site_symmetry_2
_ccdc_geom_bond_type
Tb0 C2 2.809 . S
Tb0 O20 2.484 . S
Tb0 O21 2.440 . S
Tb0 O22 2.658 . S
Tb0 O23 2.409 . S
Tb0 O24 2.378 . S
Tb0 O28 2.325 . S
Tb0 O31 2.341 1_455 S
Tb1 C11 2.809 1_455 S
Tb1 O22 2.325 . S
Tb1 O25 2.341 . S
Tb1 O26 2.484 1_455 S
Tb1 O27 2.440 1_455 S
Tb1 O28 2.658 . S
Tb1 O29 2.409 . S
Tb1 O30 2.378 1_455 S
C2 Tb0 2.809 . S
C2 C3 1.514 . S
C2 O20 1.248 . S
C2 O21 1.266 . S
C3 C2 1.514 . S
C3 C4 1.359 . S
C3 C8 1.348 . S
C4 C3 1.359 . S
C4 C5 1.380 . S
C4 H32 0.929 . S
C5 C4 1.380 . S
C5 C6 1.347 . S
C5 H33 0.931 . S
C6 C5 1.347 . S
C6 C7 1.369 . S
C7 C6 1.369 . S
C7 C8 1.408 . S
C7 H34 0.930 . S
C8 C3 1.348 . S
C8 C7 1.408 . S
C8 H35 0.930 . S
C9 O22 1.281 . S
C9 O23 1.254 . S
C10 O24 1.236 . S
C10 O25 1.266 . S
C11 Tb1 2.809 1_655 S
C11 C12 1.514 . S
C11 O26 1.248 . S
C11 O27 1.266 . S
C12 C11 1.514 . S
C12 C13 1.359 . S
C12 C17 1.348 . S
C13 C12 1.359 . S
C13 C14 1.380 . S
C13 H36 0.929 . S
C14 C13 1.380 . S
C14 C15 1.347 . S
C14 H37 0.931 . S
C15 C14 1.347 . S
C15 C16 1.369 . S
C16 C15 1.369 . S
C16 C17 1.408 . S
C16 H38 0.930 . S
C17 C12 1.348 . S
C17 C16 1.408 . S
C17 H39 0.930 . S
C18 O28 1.281 . S
C18 O29 1.254 . S
C19 O30 1.236 . S
C19 O31 1.266 . S
O20 Tb0 2.484 . S
O20 C2 1.248 . S
O21 Tb0 2.440 . S
O21 C2 1.266 . S
O22 Tb0 2.658 . S
O22 Tb1 2.325 . S
O22 C9 1.281 . S
O23 Tb0 2.409 . S
O23 C9 1.254 . S
O24 Tb0 2.378 . S
O24 C10 1.236 . S
O25 Tb1 2.341 . S
O25 C10 1.266 . S
O26 Tb1 2.484 1_655 S
O26 C11 1.248 . S
O27 Tb1 2.440 1_655 S
O27 C11 1.266 . S
O28 Tb0 2.325 . S
O28 Tb1 2.658 . S
O28 C18 1.281 . S
O29 Tb1 2.409 . S
O29 C18 1.254 . S
O30 Tb1 2.378 1_655 S
O30 C19 1.236 . S
O31 Tb0 2.341 1_655 S
O31 C19 1.266 . S
H32 C4 0.929 . S
H33 C5 0.931 . S
H34 C7 0.930 . S
H35 C8 0.930 . S
H36 C13 0.929 . S
H37 C14 0.931 . S
H38 C16 0.930 . S
H39 C17 0.930 . S
Tb40 C42 2.809 1_545 S
Tb40 O60 2.484 1_545 S
Tb40 O61 2.440 1_545 S
Tb40 O62 2.658 . S
Tb40 O63 2.409 . S
Tb40 O64 2.378 1_545 S
Tb40 O68 2.325 . S
Tb40 O71 2.341 . S
Tb41 C51 2.809 . S
Tb41 O62 2.325 . S
Tb41 O65 2.341 1_545 S
Tb41 O66 2.484 . S
Tb41 O67 2.440 . S
Tb41 O68 2.658 . S
Tb41 O69 2.409 . S
Tb41 O70 2.378 . S
C42 Tb40 2.809 1_565 S
C42 C43 1.514 . S
C42 O60 1.248 . S
C42 O61 1.266 . S
C43 C42 1.514 . S
C43 C44 1.359 . S
C43 C48 1.348 . S
C44 C43 1.359 . S
C44 C45 1.380 . S
C44 H72 0.929 . S
C45 C44 1.380 . S
C45 C46 1.347 . S
C45 H73 0.931 . S
C46 C45 1.347 . S
C46 C47 1.369 . S
C47 C46 1.369 . S
C47 C48 1.408 . S
C47 H74 0.930 . S
C48 C43 1.348 . S
C48 C47 1.408 . S
C48 H75 0.930 . S
C49 O62 1.281 . S
C49 O63 1.254 . S
C50 O64 1.236 . S
C50 O65 1.266 . S
C51 Tb41 2.809 . S
C51 C52 1.514 . S
C51 O66 1.248 . S
C51 O67 1.266 . S
C52 C51 1.514 . S
C52 C53 1.359 . S
C52 C57 1.348 . S
C53 C52 1.359 . S
C53 C54 1.380 . S
C53 H76 0.929 . S
C54 C53 1.380 . S
C54 C55 1.347 . S
C54 H77 0.931 . S
C55 C54 1.347 . S
C55 C56 1.369 . S
C56 C55 1.369 . S
C56 C57 1.408 . S
C56 H78 0.930 . S
C57 C52 1.348 . S
C57 C56 1.408 . S
C57 H79 0.930 . S
C58 O68 1.281 . S
C58 O69 1.254 . S
C59 O70 1.236 . S
C59 O71 1.266 . S
O60 Tb40 2.484 1_565 S
O60 C42 1.248 . S
O61 Tb40 2.440 1_565 S
O61 C42 1.266 . S
O62 Tb40 2.658 . S
O62 Tb41 2.325 . S
O62 C49 1.281 . S
O63 Tb40 2.409 . S
O63 C49 1.254 . S
O64 Tb40 2.378 1_565 S
O64 C50 1.236 . S
O65 Tb41 2.341 1_565 S
O65 C50 1.266 . S
O66 Tb41 2.484 . S
O66 C51 1.248 . S
O67 Tb41 2.440 . S
O67 C51 1.266 . S
O68 Tb40 2.325 . S
O68 Tb41 2.658 . S
O68 C58 1.281 . S
O69 Tb41 2.409 . S
O69 C58 1.254 . S
O70 Tb41 2.378 . S
O70 C59 1.236 . S
O71 Tb40 2.341 . S
O71 C59 1.266 . S
H72 C44 0.929 . S
H73 C45 0.931 . S
H74 C47 0.930 . S
H75 C48 0.930 . S
H76 C53 0.929 . S
H77 C54 0.931 . S
H78 C56 0.930 . S
H79 C57 0.930 . S
Tb80 C82 2.809 . S
Tb80 O100 2.484 . S
Tb80 O101 2.440 . S
Tb80 O102 2.658 . S
Tb80 O103 2.409 . S
Tb80 O104 2.378 . S
Tb80 O108 2.325 . S
Tb80 O111 2.341 . S
Tb81 C91 2.809 . S
Tb81 O102 2.325 . S
Tb81 O105 2.341 . S
Tb81 O106 2.484 . S
Tb81 O107 2.440 . S
Tb81 O108 2.658 . S
Tb81 O109 2.409 . S
Tb81 O110 2.378 . S
C82 Tb80 2.809 . S
C82 C83 1.514 . S
C82 O100 1.248 . S
C82 O101 1.266 . S
C83 C82 1.514 . S
C83 C84 1.359 . S
C83 C88 1.348 . S
C84 C83 1.359 . S
C84 C85 1.380 . S
C84 H112 0.929 . S
C85 C84 1.380 . S
C85 C86 1.347 . S
C85 H113 0.931 . S
C86 C85 1.347 . S
C86 C87 1.369 . S
C87 C86 1.369 . S
C87 C88 1.408 . S
C87 H114 0.930 . S
C88 C83 1.348 . S
C88 C87 1.408 . S
C88 H115 0.930 . S
C89 O102 1.281 . S
C89 O103 1.254 . S
C90 O104 1.236 . S
C90 O105 1.266 . S
C91 Tb81 2.809 . S
C91 C92 1.514 . S
C91 O106 1.248 . S
C91 O107 1.266 . S
C92 C91 1.514 . S
C92 C93 1.359 . S
C92 C97 1.348 . S
C93 C92 1.359 . S
C93 C94 1.380 . S
C93 H116 0.929 . S
C94 C93 1.380 . S
C94 C95 1.347 . S
C94 H117 0.931 . S
C95 C94 1.347 . S
C95 C96 1.369 . S
C96 C95 1.369 . S
C96 C97 1.408 . S
C96 H118 0.930 . S
C97 C92 1.348 . S
C97 C96 1.408 . S
C97 H119 0.930 . S
C98 O108 1.281 . S
C98 O109 1.254 . S
C99 O110 1.236 . S
C99 O111 1.266 . S
O100 Tb80 2.484 . S
O100 C82 1.248 . S
O101 Tb80 2.440 . S
O101 C82 1.266 . S
O102 Tb80 2.658 . S
O102 Tb81 2.325 . S
O102 C89 1.281 . S
O103 Tb80 2.409 . S
O103 C89 1.254 . S
O104 Tb80 2.378 . S
O104 C90 1.236 . S
O105 Tb81 2.341 . S
O105 C90 1.266 . S
O106 Tb81 2.484 . S
O106 C91 1.248 . S
O107 Tb81 2.440 . S
O107 C91 1.266 . S
O108 Tb80 2.325 . S
O108 Tb81 2.658 . S
O108 C98 1.281 . S
O109 Tb81 2.409 . S
O109 C98 1.254 . S
O110 Tb81 2.378 . S
O110 C99 1.236 . S
O111 Tb80 2.341 . S
O111 C99 1.266 . S
H112 C84 0.929 . S
H113 C85 0.931 . S
H114 C87 0.930 . S
H115 C88 0.930 . S
H116 C93 0.929 . S
H117 C94 0.931 . S
H118 C96 0.930 . S
H119 C97 0.930 . S
P120 O131 1.490 . S
P120 C134 1.812 . S
P120 C140 1.803 . S
P120 C146 1.819 . S
H121 C135 0.941 . S
H122 C136 0.939 . S
H123 C138 0.940 . S
H124 C139 0.940 . S
H125 C141 0.939 . S
H126 C142 0.942 . S
H127 C144 0.940 . S
H128 C145 0.939 . S
H129 C147 0.941 1_565 S
H130 C151 0.939 . S
O131 P120 1.490 . S
H132 C148 0.939 1_565 S
H133 C150 0.940 . S
C134 P120 1.812 . S
C134 C135 1.389 1_545 S
C134 C139 1.391 . S
C135 H121 0.941 . S
C135 C134 1.389 1_565 S
C135 C136 1.397 . S
C136 H122 0.939 . S
C136 C135 1.397 . S
C136 C137 1.378 . S
C137 C136 1.378 . S
C137 C138 1.378 . S
C138 H123 0.940 . S
C138 C137 1.378 . S
C138 C139 1.396 1_565 S
C139 H124 0.940 . S
C139 C134 1.391 . S
C139 C138 1.396 1_545 S
C140 P120 1.803 . S
C140 C141 1.378 . S
C140 C145 1.400 . S
C141 H125 0.939 . S
C141 C140 1.378 . S
C141 C142 1.361 . S
C142 H126 0.942 . S
C142 C141 1.361 . S
C142 C143 1.369 . S
C143 C142 1.369 . S
C143 C144 1.404 . S
C144 H127 0.940 . S
C144 C143 1.404 . S
C144 C145 1.389 . S
C145 H128 0.939 . S
C145 C140 1.400 . S
C145 C144 1.389 . S
C146 P120 1.819 . S
C146 C147 1.391 . S
C146 C151 1.391 . S
C147 H129 0.941 1_545 S
C147 C146 1.391 . S
C147 C148 1.396 . S
C148 H132 0.939 1_545 S
C148 C147 1.396 . S
C148 C149 1.397 . S
C149 C148 1.397 . S
C149 C150 1.385 . S
C150 H133 0.940 . S
C150 C149 1.385 . S
C150 C151 1.388 . S
C151 H130 0.939 . S
C151 C146 1.391 . S
C151 C150 1.388 . S
P152 O163 1.490 . S
P152 C166 1.812 . S
P152 C172 1.803 . S
P152 C178 1.819 . S
H153 C167 0.941 . S
H154 C168 0.939 . S
H155 C170 0.940 . S
H156 C171 0.940 . S
H157 C173 0.939 . S
H158 C174 0.942 . S
H159 C176 0.940 . S
H160 C177 0.939 . S
H161 C179 0.941 . S
H162 C183 0.939 . S
O163 P152 1.490 . S
H164 C180 0.939 . S
H165 C182 0.940 . S
C166 P152 1.812 . S
C166 C167 1.389 . S
C166 C171 1.391 . S
C167 H153 0.941 . S
C167 C166 1.389 . S
C167 C168 1.397 . S
C168 H154 0.939 . S
C168 C167 1.397 . S
C168 C169 1.378 . S
C169 C168 1.378 . S
C169 C170 1.378 . S
C170 H155 0.940 . S
C170 C169 1.378 . S
C170 C171 1.396 . S
C171 H156 0.940 . S
C171 C166 1.391 . S
C171 C170 1.396 . S
C172 P152 1.803 . S
C172 C173 1.378 . S
C172 C177 1.400 . S
C173 H157 0.939 . S
C173 C172 1.378 . S
C173 C174 1.361 . S
C174 H158 0.942 . S
C174 C173 1.361 . S
C174 C175 1.369 . S
C175 C174 1.369 . S
C175 C176 1.404 . S
C176 H159 0.940 . S
C176 C175 1.404 . S
C176 C177 1.389 . S
C177 H160 0.939 . S
C177 C172 1.400 . S
C177 C176 1.389 . S
C178 P152 1.819 . S
C178 C179 1.391 . S
C178 C183 1.391 . S
C179 H161 0.941 . S
C179 C178 1.391 . S
C179 C180 1.396 . S
C180 H164 0.939 . S
C180 C179 1.396 . S
C180 C181 1.397 . S
C181 C180 1.397 . S
C181 C182 1.385 . S
C182 H165 0.940 . S
C182 C181 1.385 . S
C182 C183 1.388 . S
C183 H162 0.939 . S
C183 C178 1.391 . S
C183 C182 1.388 . S
P184 O195 1.490 . S
P184 C198 1.812 . S
P184 C204 1.803 1_455 S
P184 C210 1.819 . S
H185 C199 0.941 . S
H186 C200 0.939 . S
H187 C202 0.940 . S
H188 C203 0.940 . S
H189 C205 0.939 . S
H190 C206 0.942 . S
H191 C208 0.940 . S
H192 C209 0.939 . S
H193 C211 0.941 . S
H194 C215 0.939 . S
O195 P184 1.490 . S
H196 C212 0.939 . S
H197 C214 0.940 . S
C198 P184 1.812 . S
C198 C199 1.389 . S
C198 C203 1.391 . S
C199 H185 0.941 . S
C199 C198 1.389 . S
C199 C200 1.397 . S
C200 H186 0.939 . S
C200 C199 1.397 . S
C200 C201 1.378 . S
C201 C200 1.378 . S
C201 C202 1.378 . S
C202 H187 0.940 . S
C202 C201 1.378 . S
C202 C203 1.396 . S
C203 H188 0.940 . S
C203 C198 1.391 . S
C203 C202 1.396 . S
C204 P184 1.803 1_655 S
C204 C205 1.378 . S
C204 C209 1.400 . S
C205 H189 0.939 . S
C205 C204 1.378 . S
C205 C206 1.361 . S
C206 H190 0.942 . S
C206 C205 1.361 . S
C206 C207 1.369 . S
C207 C206 1.369 . S
C207 C208 1.404 . S
C208 H191 0.940 . S
C208 C207 1.404 . S
C208 C209 1.389 . S
C209 H192 0.939 . S
C209 C204 1.400 . S
C209 C208 1.389 . S
C210 P184 1.819 . S
C210 C211 1.391 . S
C210 C215 1.391 1_455 S
C211 H193 0.941 . S
C211 C210 1.391 . S
C211 C212 1.396 . S
C212 H196 0.939 . S
C212 C211 1.396 . S
C212 C213 1.397 . S
C213 C212 1.397 . S
C213 C214 1.385 1_455 S
C214 H197 0.940 . S
C214 C213 1.385 1_655 S
C214 C215 1.388 . S
C215 H194 0.939 . S
C215 C210 1.391 1_655 S
C215 C214 1.388 . S
P216 O227 1.490 . S
P216 C230 1.812 . S
P216 C236 1.803 . S
P216 C242 1.819 . S
H217 C231 0.941 . S
H218 C232 0.939 . S
H219 C234 0.940 . S
H220 C235 0.940 . S
H221 C237 0.939 . S
H222 C238 0.942 . S
H223 C240 0.940 . S
H224 C241 0.939 . S
H225 C243 0.941 . S
H226 C247 0.939 . S
O227 P216 1.490 . S
H228 C244 0.939 . S
H229 C246 0.940 1_655 S
C230 P216 1.812 . S
C230 C231 1.389 . S
C230 C235 1.391 . S
C231 H217 0.941 . S
C231 C230 1.389 . S
C231 C232 1.397 . S
C232 H218 0.939 . S
C232 C231 1.397 . S
C232 C233 1.378 . S
C233 C232 1.378 . S
C233 C234 1.378 . S
C234 H219 0.940 . S
C234 C233 1.378 . S
C234 C235 1.396 . S
C235 H220 0.940 . S
C235 C230 1.391 . S
C235 C234 1.396 . S
C236 P216 1.803 . S
C236 C237 1.378 . S
C236 C241 1.400 . S
C237 H221 0.939 . S
C237 C236 1.378 . S
C237 C238 1.361 1_455 S
C238 H222 0.942 . S
C238 C237 1.361 1_655 S
C238 C239 1.369 . S
C239 C238 1.369 . S
C239 C240 1.404 . S
C240 H223 0.940 . S
C240 C239 1.404 . S
C240 C241 1.389 1_655 S
C241 H224 0.939 . S
C241 C236 1.400 . S
C241 C240 1.389 1_455 S
C242 P216 1.819 . S
C242 C243 1.391 . S
C242 C247 1.391 . S
C243 H225 0.941 . S
C243 C242 1.391 . S
C243 C244 1.396 . S
C244 H228 0.939 . S
C244 C243 1.396 . S
C244 C245 1.397 . S
C245 C244 1.397 . S
C245 C246 1.385 . S
C246 H229 0.940 1_455 S
C246 C245 1.385 . S
C246 C247 1.388 . S
C247 H226 0.939 . S
C247 C242 1.391 . S
C247 C246 1.388 . S
P248 O259 1.490 . S
P248 C262 1.812 . S
P248 C268 1.803 1_545 S
P248 C274 1.819 . S
H249 C263 0.941 . S
H250 C264 0.939 . S
H251 C266 0.940 . S
H252 C267 0.940 . S
H253 C269 0.939 . S
H254 C270 0.942 . S
H255 C272 0.940 . S
H256 C273 0.939 . S
H257 C275 0.941 . S
H258 C279 0.939 . S
O259 P248 1.490 . S
H260 C276 0.939 . S
H261 C278 0.940 . S
C262 P248 1.812 . S
C262 C263 1.389 . S
C262 C267 1.391 . S
C263 H249 0.941 . S
C263 C262 1.389 . S
C263 C264 1.397 . S
C264 H250 0.939 . S
C264 C263 1.397 . S
C264 C265 1.378 . S
C265 C264 1.378 . S
C265 C266 1.378 . S
C266 H251 0.940 . S
C266 C265 1.378 . S
C266 C267 1.396 . S
C267 H252 0.940 . S
C267 C262 1.391 . S
C267 C266 1.396 . S
C268 P248 1.803 1_565 S
C268 C269 1.378 . S
C268 C273 1.400 . S
C269 H253 0.939 . S
C269 C268 1.378 . S
C269 C270 1.361 . S
C270 H254 0.942 . S
C270 C269 1.361 . S
C270 C271 1.369 . S
C271 C270 1.369 . S
C271 C272 1.404 . S
C272 H255 0.940 . S
C272 C271 1.404 . S
C272 C273 1.389 . S
C273 H256 0.939 . S
C273 C268 1.400 . S
C273 C272 1.389 . S
C274 P248 1.819 . S
C274 C275 1.391 . S
C274 C279 1.391 1_545 S
C275 H257 0.941 . S
C275 C274 1.391 . S
C275 C276 1.396 . S
C276 H260 0.939 . S
C276 C275 1.396 . S
C276 C277 1.397 . S
C277 C276 1.397 . S
C277 C278 1.385 1_545 S
C278 H261 0.940 . S
C278 C277 1.385 1_565 S
C278 C279 1.388 . S
C279 H258 0.939 . S
C279 C274 1.391 1_565 S
C279 C278 1.388 . S
P280 O291 1.490 . S
P280 C294 1.812 . S
P280 C300 1.803 . S
P280 C306 1.819 . S
H281 C295 0.941 . S
H282 C296 0.939 . S
H283 C298 0.940 . S
H284 C299 0.940 . S
H285 C301 0.939 . S
H286 C302 0.942 . S
H287 C304 0.940 . S
H288 C305 0.939 . S
H289 C307 0.941 . S
H290 C311 0.939 . S
O291 P280 1.490 . S
H292 C308 0.939 . S
H293 C310 0.940 . S
C294 P280 1.812 . S
C294 C295 1.389 . S
C294 C299 1.391 . S
C295 H281 0.941 . S
C295 C294 1.389 . S
C295 C296 1.397 . S
C296 H282 0.939 . S
C296 C295 1.397 . S
C296 C297 1.378 . S
C297 C296 1.378 . S
C297 C298 1.378 . S
C298 H283 0.940 . S
C298 C297 1.378 . S
C298 C299 1.396 . S
C299 H284 0.940 . S
C299 C294 1.391 . S
C299 C298 1.396 . S
C300 P280 1.803 . S
C300 C301 1.378 . S
C300 C305 1.400 . S
C301 H285 0.939 . S
C301 C300 1.378 . S
C301 C302 1.361 . S
C302 H286 0.942 . S
C302 C301 1.361 . S
C302 C303 1.369 . S
C303 C302 1.369 . S
C303 C304 1.404 . S
C304 H287 0.940 . S
C304 C303 1.404 . S
C304 C305 1.389 . S
C305 H288 0.939 . S
C305 C300 1.400 . S
C305 C304 1.389 . S
C306 P280 1.819 . S
C306 C307 1.391 . S
C306 C311 1.391 . S
C307 H289 0.941 . S
C307 C306 1.391 . S
C307 C308 1.396 . S
C308 H292 0.939 . S
C308 C307 1.396 . S
C308 C309 1.397 . S
C309 C308 1.397 . S
C309 C310 1.385 . S
C310 H293 0.940 . S
C310 C309 1.385 . S
C310 C311 1.388 . S
C311 H290 0.939 . S
C311 C306 1.391 . S
C311 C310 1.388 . S
C312 C313 1.349 . S
C312 C314 1.327 . S
C312 H337 0.950 . S
C313 C312 1.349 . S
C313 C329 1.349 . S
C314 C312 1.327 . S
C314 C333 1.429 . S
C314 H338 0.950 . S
C315 C332 1.574 . S
C315 C334 1.368 . S
C315 H339 0.949 . S
H316 C320 0.949 . S
C317 C318 1.349 . S
C317 C319 1.327 . S
C317 H340 0.950 . S
C318 C317 1.349 . S
C318 C330 1.349 . S
C319 C317 1.327 . S
C319 C335 1.429 . S
C319 H341 0.950 . S
C320 H316 0.949 . S
C320 C328 1.574 . S
C320 C336 1.368 . S
H321 C329 0.950 . S
H322 C327 0.950 . S
H323 C328 0.949 . S
H324 C330 0.950 . S
H325 C331 0.950 . S
H326 C332 0.949 . S
C327 H322 0.950 . S
C327 C329 1.327 . S
C327 C333 1.429 . S
C328 C320 1.574 . S
C328 H323 0.949 . S
C328 C334 1.368 . S
C329 C313 1.349 . S
C329 H321 0.950 . S
C329 C327 1.327 . S
C330 C318 1.349 . S
C330 H324 0.950 . S
C330 C331 1.327 . S
C331 H325 0.950 . S
C331 C330 1.327 . S
C331 C335 1.429 . S
C332 C315 1.574 . S
C332 H326 0.949 . S
C332 C336 1.368 . S
C333 C314 1.429 . S
C333 C327 1.429 . S
C333 C334 1.523 . S
C334 C315 1.368 . S
C334 C328 1.368 . S
C334 C333 1.523 . S
C335 C319 1.429 . S
C335 C331 1.429 . S
C335 C336 1.523 . S
C336 C320 1.368 . S
C336 C332 1.368 . S
C336 C335 1.523 . S
H337 C312 0.950 . S
H338 C314 0.950 . S
H339 C315 0.949 . S
H340 C317 0.950 . S
H341 C319 0.950 . S
C342 C343 1.349 . S
C342 C344 1.327 . S
C342 H367 0.950 . S
C343 C342 1.349 . S
C343 C359 1.349 . S
C344 C342 1.327 . S
C344 C363 1.429 . S
C344 H368 0.950 . S
C345 C362 1.574 . S
C345 C364 1.368 . S
C345 H369 0.949 . S
H346 C350 0.949 . S
C347 C348 1.349 . S
C347 C349 1.327 . S
C347 H370 0.950 . S
C348 C347 1.349 . S
C348 C360 1.349 . S
C349 C347 1.327 . S
C349 C365 1.429 . S
C349 H371 0.950 . S
C350 H346 0.949 . S
C350 C358 1.574 . S
C350 C366 1.368 . S
H351 C359 0.950 . S
H352 C357 0.950 . S
H353 C358 0.949 . S
H354 C360 0.950 . S
H355 C361 0.950 . S
H356 C362 0.949 . S
C357 H352 0.950 . S
C357 C359 1.327 . S
C357 C363 1.429 . S
C358 C350 1.574 . S
C358 H353 0.949 . S
C358 C364 1.368 . S
C359 C343 1.349 . S
C359 H351 0.950 . S
C359 C357 1.327 . S
C360 C348 1.349 . S
C360 H354 0.950 . S
C360 C361 1.327 . S
C361 H355 0.950 . S
C361 C360 1.327 . S
C361 C365 1.429 . S
C362 C345 1.574 . S
C362 H356 0.949 . S
C362 C366 1.368 . S
C363 C344 1.429 . S
C363 C357 1.429 . S
C363 C364 1.523 . S
C364 C345 1.368 . S
C364 C358 1.368 . S
C364 C363 1.523 . S
C365 C349 1.429 . S
C365 C361 1.429 . S
C365 C366 1.523 . S
C366 C350 1.368 . S
C366 C362 1.368 . S
C366 C365 1.523 . S
H367 C342 0.950 . S
H368 C344 0.950 . S
H369 C345 0.949 . S
H370 C347 0.950 . S
H371 C349 0.950 . S
C372 C373 1.349 . S
C372 C374 1.327 . S
C372 H397 0.950 . S
C373 C372 1.349 . S
C373 C389 1.349 . S
C374 C372 1.327 . S
C374 C393 1.429 . S
C374 H398 0.950 . S
C375 C392 1.574 . S
C375 C394 1.368 . S
C375 H399 0.949 . S
H376 C380 0.949 . S
C377 C378 1.349 . S
C377 C379 1.327 . S
C377 H400 0.950 . S
C378 C377 1.349 . S
C378 C390 1.349 . S
C379 C377 1.327 . S
C379 C395 1.429 . S
C379 H401 0.950 . S
C380 H376 0.949 . S
C380 C388 1.574 . S
C380 C396 1.368 . S
H381 C389 0.950 . S
H382 C387 0.950 . S
H383 C388 0.949 . S
H384 C390 0.950 . S
H385 C391 0.950 . S
H386 C392 0.949 . S
C387 H382 0.950 . S
C387 C389 1.327 . S
C387 C393 1.429 . S
C388 C380 1.574 . S
C388 H383 0.949 . S
C388 C394 1.368 . S
C389 C373 1.349 . S
C389 H381 0.950 . S
C389 C387 1.327 . S
C390 C378 1.349 . S
C390 H384 0.950 . S
C390 C391 1.327 . S
C391 H385 0.950 . S
C391 C390 1.327 . S
C391 C395 1.429 . S
C392 C375 1.574 . S
C392 H386 0.949 . S
C392 C396 1.368 . S
C393 C374 1.429 . S
C393 C387 1.429 . S
C393 C394 1.523 . S
C394 C375 1.368 . S
C394 C388 1.368 . S
C394 C393 1.523 . S
C395 C379 1.429 . S
C395 C391 1.429 . S
C395 C396 1.523 . S
C396 C380 1.368 . S
C396 C392 1.368 . S
C396 C395 1.523 . S
H397 C372 0.950 . S
H398 C374 0.950 . S
H399 C375 0.949 . S
H400 C377 0.950 . S
H401 C379 0.950 . S
C402 C403 1.349 . S
C402 C404 1.327 . S
C402 H427 0.950 . S
C403 C402 1.349 . S
C403 C419 1.349 . S
C404 C402 1.327 . S
C404 C423 1.429 . S
C404 H428 0.950 . S
C405 C422 1.574 . S
C405 C424 1.368 . S
C405 H429 0.949 . S
H406 C410 0.949 . S
C407 C408 1.349 . S
C407 C409 1.327 . S
C407 H430 0.950 . S
C408 C407 1.349 . S
C408 C420 1.349 . S
C409 C407 1.327 . S
C409 C425 1.429 . S
C409 H431 0.950 . S
C410 H406 0.949 . S
C410 C418 1.574 . S
C410 C426 1.368 . S
H411 C419 0.950 . S
H412 C417 0.950 . S
H413 C418 0.949 . S
H414 C420 0.950 . S
H415 C421 0.950 . S
H416 C422 0.949 . S
C417 H412 0.950 . S
C417 C419 1.327 . S
C417 C423 1.429 . S
C418 C410 1.574 . S
C418 H413 0.949 . S
C418 C424 1.368 . S
C419 C403 1.349 . S
C419 H411 0.950 . S
C419 C417 1.327 . S
C420 C408 1.349 . S
C420 H414 0.950 . S
C420 C421 1.327 . S
C421 H415 0.950 . S
C421 C420 1.327 . S
C421 C425 1.429 . S
C422 C405 1.574 . S
C422 H416 0.949 . S
C422 C426 1.368 . S
C423 C404 1.429 . S
C423 C417 1.429 . S
C423 C424 1.523 . S
C424 C405 1.368 . S
C424 C418 1.368 . S
C424 C423 1.523 . S
C425 C409 1.429 . S
C425 C421 1.429 . S
C425 C426 1.523 . S
C426 C410 1.368 . S
C426 C422 1.368 . S
C426 C425 1.523 . S
H427 C402 0.950 . S
H428 C404 0.950 . S
H429 C405 0.949 . S
H430 C407 0.950 . S
H431 C409 0.950 . S
C432 C433 1.349 . S
C432 C434 1.327 . S
C432 H457 0.950 . S
C433 C432 1.349 . S
C433 C449 1.349 . S
C434 C432 1.327 . S
C434 C453 1.429 . S
C434 H458 0.950 . S
C435 C452 1.574 . S
C435 C454 1.368 . S
C435 H459 0.949 . S
H436 C440 0.949 . S
C437 C438 1.349 . S
C437 C439 1.327 . S
C437 H460 0.950 . S
C438 C437 1.349 . S
C438 C450 1.349 . S
C439 C437 1.327 . S
C439 C455 1.429 . S
C439 H461 0.950 . S
C440 H436 0.949 . S
C440 C448 1.574 . S
C440 C456 1.368 . S
H441 C449 0.950 . S
H442 C447 0.950 . S
H443 C448 0.949 . S
H444 C450 0.950 . S
H445 C451 0.950 . S
H446 C452 0.949 . S
C447 H442 0.950 . S
C447 C449 1.327 . S
C447 C453 1.429 . S
C448 C440 1.574 . S
C448 H443 0.949 . S
C448 C454 1.368 . S
C449 C433 1.349 . S
C449 H441 0.950 . S
C449 C447 1.327 . S
C450 C438 1.349 . S
C450 H444 0.950 . S
C450 C451 1.327 . S
C451 H445 0.950 . S
C451 C450 1.327 . S
C451 C455 1.429 . S
C452 C435 1.574 . S
C452 H446 0.949 . S
C452 C456 1.368 . S
C453 C434 1.429 . S
C453 C447 1.429 . S
C453 C454 1.523 . S
C454 C435 1.368 . S
C454 C448 1.368 . S
C454 C453 1.523 . S
C455 C439 1.429 . S
C455 C451 1.429 . S
C455 C456 1.523 . S
C456 C440 1.368 . S
C456 C452 1.368 . S
C456 C455 1.523 . S
H457 C432 0.950 . S
H458 C434 0.950 . S
H459 C435 0.949 . S
H460 C437 0.950 . S
H461 C439 0.950 . S
C462 C463 1.349 . S
C462 C464 1.327 . S
C462 H487 0.950 . S
C463 C462 1.349 . S
C463 C479 1.349 . S
C464 C462 1.327 . S
C464 C483 1.429 . S
C464 H488 0.950 . S
C465 C482 1.574 . S
C465 C484 1.368 . S
C465 H489 0.949 . S
H466 C470 0.949 . S
C467 C468 1.349 . S
C467 C469 1.327 . S
C467 H490 0.950 . S
C468 C467 1.349 . S
C468 C480 1.349 . S
C469 C467 1.327 . S
C469 C485 1.429 . S
C469 H491 0.950 . S
C470 H466 0.949 . S
C470 C478 1.574 . S
C470 C486 1.368 . S
H471 C479 0.950 . S
H472 C477 0.950 . S
H473 C478 0.949 . S
H474 C480 0.950 . S
H475 C481 0.950 . S
H476 C482 0.949 . S
C477 H472 0.950 . S
C477 C479 1.327 . S
C477 C483 1.429 . S
C478 C470 1.574 . S
C478 H473 0.949 . S
C478 C484 1.368 . S
C479 C463 1.349 . S
C479 H471 0.950 . S
C479 C477 1.327 . S
C480 C468 1.349 . S
C480 H474 0.950 . S
C480 C481 1.327 . S
C481 H475 0.950 . S
C481 C480 1.327 . S
C481 C485 1.429 . S
C482 C465 1.574 . S
C482 H476 0.949 . S
C482 C486 1.368 . S
C483 C464 1.429 . S
C483 C477 1.429 . S
C483 C484 1.523 . S
C484 C465 1.368 . S
C484 C478 1.368 . S
C484 C483 1.523 . S
C485 C469 1.429 . S
C485 C481 1.429 . S
C485 C486 1.523 . S
C486 C470 1.368 . S
C486 C482 1.368 . S
C486 C485 1.523 . S
H487 C462 0.950 . S
H488 C464 0.950 . S
H489 C465 0.949 . S
H490 C467 0.950 . S
H491 C469 0.950 . S
C492 C493 1.349 . S
C492 C494 1.327 . S
C492 H517 0.950 . S
C493 C492 1.349 . S
C493 C509 1.349 . S
C494 C492 1.327 . S
C494 C513 1.429 . S
C494 H518 0.950 . S
C495 C512 1.574 . S
C495 C514 1.368 . S
C495 H519 0.949 . S
H496 C500 0.949 . S
C497 C498 1.349 . S
C497 C499 1.327 . S
C497 H520 0.950 . S
C498 C497 1.349 . S
C498 C510 1.349 . S
C499 C497 1.327 . S
C499 C515 1.429 . S
C499 H521 0.950 . S
C500 H496 0.949 . S
C500 C508 1.574 . S
C500 C516 1.368 . S
H501 C509 0.950 . S
H502 C507 0.950 . S
H503 C508 0.949 . S
H504 C510 0.950 . S
H505 C511 0.950 . S
H506 C512 0.949 . S
C507 H502 0.950 . S
C507 C509 1.327 . S
C507 C513 1.429 . S
C508 C500 1.574 . S
C508 H503 0.949 . S
C508 C514 1.368 . S
C509 C493 1.349 . S
C509 H501 0.950 . S
C509 C507 1.327 . S
C510 C498 1.349 . S
C510 H504 0.950 . S
C510 C511 1.327 . S
C511 H505 0.950 . S
C511 C510 1.327 . S
C511 C515 1.429 . S
C512 C495 1.574 . S
C512 H506 0.949 . S
C512 C516 1.368 . S
C513 C494 1.429 . S
C513 C507 1.429 . S
C513 C514 1.523 . S
C514 C495 1.368 . S
C514 C508 1.368 . S
C514 C513 1.523 . S
C515 C499 1.429 . S
C515 C511 1.429 . S
C515 C516 1.523 . S
C516 C500 1.368 . S
C516 C512 1.368 . S
C516 C515 1.523 . S
H517 C492 0.950 . S
H518 C494 0.950 . S
H519 C495 0.949 . S
H520 C497 0.950 . S
H521 C499 0.950 . S
C522 C523 1.349 . S
C522 C524 1.327 . S
C522 H547 0.950 . S
C523 C522 1.349 . S
C523 C539 1.349 . S
C524 C522 1.327 . S
C524 C543 1.429 . S
C524 H548 0.950 . S
C525 C542 1.574 . S
C525 C544 1.368 . S
C525 H549 0.949 . S
H526 C530 0.949 . S
C527 C528 1.349 . S
C527 C529 1.327 . S
C527 H550 0.950 . S
C528 C527 1.349 . S
C528 C540 1.349 . S
C529 C527 1.327 . S
C529 C545 1.429 . S
C529 H551 0.950 . S
C530 H526 0.949 . S
C530 C538 1.574 . S
C530 C546 1.368 . S
H531 C539 0.950 . S
H532 C537 0.950 . S
H533 C538 0.949 . S
H534 C540 0.950 . S
H535 C541 0.950 . S
H536 C542 0.949 . S
C537 H532 0.950 . S
C537 C539 1.327 . S
C537 C543 1.429 . S
C538 C530 1.574 . S
C538 H533 0.949 . S
C538 C544 1.368 . S
C539 C523 1.349 . S
C539 H531 0.950 . S
C539 C537 1.327 . S
C540 C528 1.349 . S
C540 H534 0.950 . S
C540 C541 1.327 . S
C541 H535 0.950 . S
C541 C540 1.327 . S
C541 C545 1.429 . S
C542 C525 1.574 . S
C542 H536 0.949 . S
C542 C546 1.368 . S
C543 C524 1.429 . S
C543 C537 1.429 . S
C543 C544 1.523 . S
C544 C525 1.368 . S
C544 C538 1.368 . S
C544 C543 1.523 . S
C545 C529 1.429 . S
C545 C541 1.429 . S
C545 C546 1.523 . S
C546 C530 1.368 . S
C546 C542 1.368 . S
C546 C545 1.523 . S
H547 C522 0.950 . S
H548 C524 0.950 . S
H549 C525 0.949 . S
H550 C527 0.950 . S
H551 C529 0.950 . S
C552 C553 1.349 . S
C552 C554 1.327 . S
C552 H577 0.950 . S
C553 C552 1.349 . S
C553 C569 1.349 . S
C554 C552 1.327 . S
C554 C573 1.429 . S
C554 H578 0.950 . S
C555 C572 1.574 . S
C555 C574 1.368 . S
C555 H579 0.949 . S
H556 C560 0.949 . S
C557 C558 1.349 . S
C557 C559 1.327 . S
C557 H580 0.950 . S
C558 C557 1.349 . S
C558 C570 1.349 . S
C559 C557 1.327 . S
C559 C575 1.429 . S
C559 H581 0.950 . S
C560 H556 0.949 . S
C560 C568 1.574 . S
C560 C576 1.368 . S
H561 C569 0.950 . S
H562 C567 0.950 . S
H563 C568 0.949 . S
H564 C570 0.950 . S
H565 C571 0.950 . S
H566 C572 0.949 . S
C567 H562 0.950 . S
C567 C569 1.327 . S
C567 C573 1.429 . S
C568 C560 1.574 . S
C568 H563 0.949 . S
C568 C574 1.368 . S
C569 C553 1.349 . S
C569 H561 0.950 . S
C569 C567 1.327 . S
C570 C558 1.349 . S
C570 H564 0.950 . S
C570 C571 1.327 . S
C571 H565 0.950 . S
C571 C570 1.327 . S
C571 C575 1.429 . S
C572 C555 1.574 . S
C572 H566 0.949 . S
C572 C576 1.368 . S
C573 C554 1.429 . S
C573 C567 1.429 . S
C573 C574 1.523 . S
C574 C555 1.368 . S
C574 C568 1.368 . S
C574 C573 1.523 . S
C575 C559 1.429 . S
C575 C571 1.429 . S
C575 C576 1.523 . S
C576 C560 1.368 . S
C576 C572 1.368 . S
C576 C575 1.523 . S
H577 C552 0.950 . S
H578 C554 0.950 . S
H579 C555 0.949 . S
H580 C557 0.950 . S
H581 C559 0.950 . S
C582 C583 1.349 . S
C582 C584 1.327 . S
C582 H607 0.950 . S
C583 C582 1.349 . S
C583 C599 1.349 . S
C584 C582 1.327 . S
C584 C603 1.429 . S
C584 H608 0.950 . S
C585 C602 1.574 . S
C585 C604 1.368 . S
C585 H609 0.949 . S
H586 C590 0.949 . S
C587 C588 1.349 . S
C587 C589 1.327 . S
C587 H610 0.950 . S
C588 C587 1.349 . S
C588 C600 1.349 . S
C589 C587 1.327 . S
C589 C605 1.429 . S
C589 H611 0.950 . S
C590 H586 0.949 . S
C590 C598 1.574 . S
C590 C606 1.368 . S
H591 C599 0.950 . S
H592 C597 0.950 . S
H593 C598 0.949 . S
H594 C600 0.950 . S
H595 C601 0.950 . S
H596 C602 0.949 . S
C597 H592 0.950 . S
C597 C599 1.327 . S
C597 C603 1.429 . S
C598 C590 1.574 . S
C598 H593 0.949 . S
C598 C604 1.368 . S
C599 C583 1.349 . S
C599 H591 0.950 . S
C599 C597 1.327 . S
C600 C588 1.349 . S
C600 H594 0.950 . S
C600 C601 1.327 . S
C601 H595 0.950 . S
C601 C600 1.327 . S
C601 C605 1.429 . S
C602 C585 1.574 . S
C602 H596 0.949 . S
C602 C606 1.368 . S
C603 C584 1.429 . S
C603 C597 1.429 . S
C603 C604 1.523 . S
C604 C585 1.368 . S
C604 C598 1.368 . S
C604 C603 1.523 . S
C605 C589 1.429 . S
C605 C601 1.429 . S
C605 C606 1.523 . S
C606 C590 1.368 . S
C606 C602 1.368 . S
C606 C605 1.523 . S
H607 C582 0.950 . S
H608 C584 0.950 . S
H609 C585 0.949 . S
H610 C587 0.950 . S
H611 C589 0.950 . S
C612 C613 1.349 . S
C612 C614 1.327 . S
C612 H637 0.950 . S
C613 C612 1.349 . S
C613 C629 1.349 . S
C614 C612 1.327 . S
C614 C633 1.429 . S
C614 H638 0.950 . S
C615 C632 1.574 . S
C615 C634 1.368 . S
C615 H639 0.949 . S
H616 C620 0.949 . S
C617 C618 1.349 . S
C617 C619 1.327 . S
C617 H640 0.950 . S
C618 C617 1.349 . S
C618 C630 1.349 . S
C619 C617 1.327 . S
C619 C635 1.429 . S
C619 H641 0.950 . S
C620 H616 0.949 . S
C620 C628 1.574 . S
C620 C636 1.368 . S
H621 C629 0.950 . S
H622 C627 0.950 . S
H623 C628 0.949 . S
H624 C630 0.950 . S
H625 C631 0.950 . S
H626 C632 0.949 . S
C627 H622 0.950 . S
C627 C629 1.327 . S
C627 C633 1.429 . S
C628 C620 1.574 . S
C628 H623 0.949 . S
C628 C634 1.368 . S
C629 C613 1.349 . S
C629 H621 0.950 . S
C629 C627 1.327 . S
C630 C618 1.349 . S
C630 H624 0.950 . S
C630 C631 1.327 . S
C631 H625 0.950 . S
C631 C630 1.327 . S
C631 C635 1.429 . S
C632 C615 1.574 . S
C632 H626 0.949 . S
C632 C636 1.368 . S
C633 C614 1.429 . S
C633 C627 1.429 . S
C633 C634 1.523 . S
C634 C615 1.368 . S
C634 C628 1.368 . S
C634 C633 1.523 . S
C635 C619 1.429 . S
C635 C631 1.429 . S
C635 C636 1.523 . S
C636 C620 1.368 . S
C636 C632 1.368 . S
C636 C635 1.523 . S
H637 C612 0.950 . S
H638 C614 0.950 . S
H639 C615 0.949 . S
H640 C617 0.950 . S
H641 C619 0.950 . S
C642 C643 1.349 . S
C642 C644 1.327 . S
C642 H667 0.950 . S
C643 C642 1.349 . S
C643 C659 1.349 . S
C644 C642 1.327 . S
C644 C663 1.429 . S
C644 H668 0.950 . S
C645 C662 1.574 . S
C645 C664 1.368 . S
C645 H669 0.949 . S
H646 C650 0.949 . S
C647 C648 1.349 . S
C647 C649 1.327 . S
C647 H670 0.950 . S
C648 C647 1.349 . S
C648 C660 1.349 . S
C649 C647 1.327 . S
C649 C665 1.429 . S
C649 H671 0.950 . S
C650 H646 0.949 . S
C650 C658 1.574 . S
C650 C666 1.368 . S
H651 C659 0.950 . S
H652 C657 0.950 . S
H653 C658 0.949 . S
H654 C660 0.950 . S
H655 C661 0.950 . S
H656 C662 0.949 . S
C657 H652 0.950 . S
C657 C659 1.327 . S
C657 C663 1.429 . S
C658 C650 1.574 . S
C658 H653 0.949 . S
C658 C664 1.368 . S
C659 C643 1.349 . S
C659 H651 0.950 . S
C659 C657 1.327 . S
C660 C648 1.349 . S
C660 H654 0.950 . S
C660 C661 1.327 . S
C661 H655 0.950 . S
C661 C660 1.327 . S
C661 C665 1.429 . S
C662 C645 1.574 . S
C662 H656 0.949 . S
C662 C666 1.368 . S
C663 C644 1.429 . S
C663 C657 1.429 . S
C663 C664 1.523 . S
C664 C645 1.368 . S
C664 C658 1.368 . S
C664 C663 1.523 . S
C665 C649 1.429 . S
C665 C661 1.429 . S
C665 C666 1.523 . S
C666 C650 1.368 . S
C666 C662 1.368 . S
C666 C665 1.523 . S
H667 C642 0.950 . S
H668 C644 0.950 . S
H669 C645 0.949 . S
H670 C647 0.950 . S
H671 C649 0.950 . S
C672 C673 1.349 1_655 S
C672 C674 1.327 . S
C672 H697 0.950 . S
C673 C672 1.349 1_455 S
C673 C689 1.349 . S
C674 C672 1.327 . S
C674 C693 1.429 1_655 S
C674 H698 0.950 . S
C675 C692 1.574 . S
C675 C694 1.368 . S
C675 H699 0.949 . S
H676 C680 0.949 . S
C677 C678 1.349 . S
C677 C679 1.327 . S
C677 H700 0.950 . S
C678 C677 1.349 . S
C678 C690 1.349 1_455 S
C679 C677 1.327 . S
C679 C695 1.429 1_556 S
C679 H701 0.950 . S
C680 H676 0.949 . S
C680 C688 1.574 . S
C680 C696 1.368 1_655 S
H681 C689 0.950 . S
H682 C687 0.950 . S
H683 C688 0.949 . S
H684 C690 0.950 . S
H685 C691 0.950 1_554 S
H686 C692 0.949 . S
C687 H682 0.950 . S
C687 C689 1.327 . S
C687 C693 1.429 . S
C688 C680 1.574 . S
C688 H683 0.949 . S
C688 C694 1.368 1_655 S
C689 C673 1.349 . S
C689 H681 0.950 . S
C689 C687 1.327 . S
C690 C678 1.349 1_655 S
C690 H684 0.950 . S
C690 C691 1.327 . S
C691 H685 0.950 1_556 S
C691 C690 1.327 . S
C691 C695 1.429 1_656 S
C692 C675 1.574 . S
C692 H686 0.949 . S
C692 C696 1.368 . S
C693 C674 1.429 1_455 S
C693 C687 1.429 . S
C693 C694 1.523 . S
C694 C675 1.368 . S
C694 C688 1.368 1_455 S
C694 C693 1.523 . S
C695 C679 1.429 1_554 S
C695 C691 1.429 1_454 S
C695 C696 1.523 . S
C696 C680 1.368 1_455 S
C696 C692 1.368 . S
C696 C695 1.523 . S
H697 C672 0.950 . S
H698 C674 0.950 . S
H699 C675 0.949 . S
H700 C677 0.950 . S
H701 C679 0.950 . S
C702 C703 1.349 . S
C702 C704 1.327 . S
C702 H727 0.950 . S
C703 C702 1.349 . S
C703 C719 1.349 . S
C704 C702 1.327 . S
C704 C723 1.429 . S
C704 H728 0.950 . S
C705 C722 1.574 . S
C705 C724 1.368 . S
C705 H729 0.949 1_545 S
H706 C710 0.949 . S
C707 C708 1.349 . S
C707 C709 1.327 . S
C707 H730 0.950 . S
C708 C707 1.349 . S
C708 C720 1.349 . S
C709 C707 1.327 . S
C709 C725 1.429 . S
C709 H731 0.950 1_545 S
C710 H706 0.949 . S
C710 C718 1.574 . S
C710 C726 1.368 . S
H711 C719 0.950 1_565 S
H712 C717 0.950 1_565 S
H713 C718 0.949 . S
H714 C720 0.950 . S
H715 C721 0.950 . S
H716 C722 0.949 1_565 S
C717 H712 0.950 1_545 S
C717 C719 1.327 . S
C717 C723 1.429 . S
C718 C710 1.574 . S
C718 H713 0.949 . S
C718 C724 1.368 . S
C719 C703 1.349 . S
C719 H711 0.950 1_545 S
C719 C717 1.327 . S
C720 C708 1.349 . S
C720 H714 0.950 . S
C720 C721 1.327 . S
C721 H715 0.950 . S
C721 C720 1.327 . S
C721 C725 1.429 . S
C722 C705 1.574 . S
C722 H716 0.949 1_545 S
C722 C726 1.368 . S
C723 C704 1.429 . S
C723 C717 1.429 . S
C723 C724 1.523 . S
C724 C705 1.368 . S
C724 C718 1.368 . S
C724 C723 1.523 . S
C725 C709 1.429 . S
C725 C721 1.429 . S
C725 C726 1.523 . S
C726 C710 1.368 . S
C726 C722 1.368 . S
C726 C725 1.523 . S
H727 C702 0.950 . S
H728 C704 0.950 . S
H729 C705 0.949 1_565 S
H730 C707 0.950 . S
H731 C709 0.950 1_565 S
C732 C733 1.349 . S
C732 C734 1.327 . S
C732 H757 0.950 . S
C733 C732 1.349 . S
C733 C749 1.349 . S
C734 C732 1.327 . S
C734 C753 1.429 . S
C734 H758 0.950 . S
C735 C752 1.574 . S
C735 C754 1.368 . S
C735 H759 0.949 . S
H736 C740 0.949 . S
C737 C738 1.349 . S
C737 C739 1.327 . S
C737 H760 0.950 . S
C738 C737 1.349 . S
C738 C750 1.349 . S
C739 C737 1.327 . S
C739 C755 1.429 . S
C739 H761 0.950 . S
C740 H736 0.949 . S
C740 C748 1.574 . S
C740 C756 1.368 . S
H741 C749 0.950 . S
H742 C747 0.950 . S
H743 C748 0.949 . S
H744 C750 0.950 . S
H745 C751 0.950 . S
H746 C752 0.949 . S
C747 H742 0.950 . S
C747 C749 1.327 . S
C747 C753 1.429 . S
C748 C740 1.574 . S
C748 H743 0.949 . S
C748 C754 1.368 . S
C749 C733 1.349 . S
C749 H741 0.950 . S
C749 C747 1.327 . S
C750 C738 1.349 . S
C750 H744 0.950 . S
C750 C751 1.327 . S
C751 H745 0.950 . S
C751 C750 1.327 . S
C751 C755 1.429 . S
C752 C735 1.574 . S
C752 H746 0.949 . S
C752 C756 1.368 . S
C753 C734 1.429 . S
C753 C747 1.429 . S
C753 C754 1.523 . S
C754 C735 1.368 . S
C754 C748 1.368 . S
C754 C753 1.523 . S
C755 C739 1.429 . S
C755 C751 1.429 . S
C755 C756 1.523 . S
C756 C740 1.368 . S
C756 C752 1.368 . S
C756 C755 1.523 . S
H757 C732 0.950 . S
H758 C734 0.950 . S
H759 C735 0.949 . S
H760 C737 0.950 . S
H761 C739 0.950 . S
C762 C763 1.349 . S
C762 C764 1.327 . S
C762 H787 0.950 . S
C763 C762 1.349 . S
C763 C779 1.349 1_545 S
C764 C762 1.327 . S
C764 C783 1.429 . S
C764 H788 0.950 . S
C765 C782 1.574 . S
C765 C784 1.368 1_565 S
C765 H789 0.949 . S
H766 C770 0.949 . S
C767 C768 1.349 1_565 S
C767 C769 1.327 . S
C767 H790 0.950 . S
C768 C767 1.349 1_545 S
C768 C780 1.349 . S
C769 C767 1.327 . S
C769 C785 1.429 1_565 S
C769 H791 0.950 . S
C770 H766 0.949 . S
C770 C778 1.574 . S
C770 C786 1.368 . S
H771 C779 0.950 . S
H772 C777 0.950 . S
H773 C778 0.949 . S
H774 C780 0.950 . S
H775 C781 0.950 . S
H776 C782 0.949 . S
C777 H772 0.950 . S
C777 C779 1.327 . S
C777 C783 1.429 1_565 S
C778 C770 1.574 . S
C778 H773 0.949 . S
C778 C784 1.368 . S
C779 C763 1.349 1_565 S
C779 H771 0.950 . S
C779 C777 1.327 . S
C780 C768 1.349 . S
C780 H774 0.950 . S
C780 C781 1.327 . S
C781 H775 0.950 . S
C781 C780 1.327 . S
C781 C785 1.429 . S
C782 C765 1.574 . S
C782 H776 0.949 . S
C782 C786 1.368 1_565 S
C783 C764 1.429 . S
C783 C777 1.429 1_545 S
C783 C784 1.523 . S
C784 C765 1.368 1_545 S
C784 C778 1.368 . S
C784 C783 1.523 . S
C785 C769 1.429 1_545 S
C785 C781 1.429 . S
C785 C786 1.523 . S
C786 C770 1.368 . S
C786 C782 1.368 1_545 S
C786 C785 1.523 . S
H787 C762 0.950 . S
H788 C764 0.950 . S
H789 C765 0.949 . S
H790 C767 0.950 . S
H791 C769 0.950 . S
C792 C793 1.349 . S
C792 C794 1.327 . S
C792 H817 0.950 . S
C793 C792 1.349 . S
C793 C809 1.349 . S
C794 C792 1.327 . S
C794 C813 1.429 . S
C794 H818 0.950 . S
C795 C812 1.574 . S
C795 C814 1.368 . S
C795 H819 0.949 . S
H796 C800 0.949 . S
C797 C798 1.349 . S
C797 C799 1.327 . S
C797 H820 0.950 . S
C798 C797 1.349 . S
C798 C810 1.349 . S
C799 C797 1.327 . S
C799 C815 1.429 1_554 S
C799 H821 0.950 . S
C800 H796 0.949 . S
C800 C808 1.574 . S
C800 C816 1.368 . S
H801 C809 0.950 . S
H802 C807 0.950 . S
H803 C808 0.949 . S
H804 C810 0.950 . S
H805 C811 0.950 1_556 S
H806 C812 0.949 . S
C807 H802 0.950 . S
C807 C809 1.327 . S
C807 C813 1.429 . S
C808 C800 1.574 . S
C808 H803 0.949 . S
C808 C814 1.368 . S
C809 C793 1.349 . S
C809 H801 0.950 . S
C809 C807 1.327 . S
C810 C798 1.349 . S
C810 H804 0.950 . S
C810 C811 1.327 . S
C811 H805 0.950 1_554 S
C811 C810 1.327 . S
C811 C815 1.429 1_554 S
C812 C795 1.574 . S
C812 H806 0.949 . S
C812 C816 1.368 . S
C813 C794 1.429 . S
C813 C807 1.429 . S
C813 C814 1.523 . S
C814 C795 1.368 . S
C814 C808 1.368 . S
C814 C813 1.523 . S
C815 C799 1.429 1_556 S
C815 C811 1.429 1_556 S
C815 C816 1.523 . S
C816 C800 1.368 . S
C816 C812 1.368 . S
C816 C815 1.523 . S
H817 C792 0.950 . S
H818 C794 0.950 . S
H819 C795 0.949 . S
H820 C797 0.950 . S
H821 C799 0.950 . S
C822 C823 1.349 . S
C822 C824 1.327 . S
C822 H847 0.950 . S
C823 C822 1.349 . S
C823 C839 1.349 . S
C824 C822 1.327 . S
C824 C843 1.429 . S
C824 H848 0.950 . S
C825 C842 1.574 . S
C825 C844 1.368 . S
C825 H849 0.949 . S
H826 C830 0.949 . S
C827 C828 1.349 . S
C827 C829 1.327 . S
C827 H850 0.950 . S
C828 C827 1.349 . S
C828 C840 1.349 . S
C829 C827 1.327 . S
C829 C845 1.429 . S
C829 H851 0.950 . S
C830 H826 0.949 . S
C830 C838 1.574 . S
C830 C846 1.368 . S
H831 C839 0.950 . S
H832 C837 0.950 . S
H833 C838 0.949 . S
H834 C840 0.950 . S
H835 C841 0.950 . S
H836 C842 0.949 . S
C837 H832 0.950 . S
C837 C839 1.327 . S
C837 C843 1.429 . S
C838 C830 1.574 . S
C838 H833 0.949 . S
C838 C844 1.368 . S
C839 C823 1.349 . S
C839 H831 0.950 . S
C839 C837 1.327 . S
C840 C828 1.349 . S
C840 H834 0.950 . S
C840 C841 1.327 . S
C841 H835 0.950 . S
C841 C840 1.327 . S
C841 C845 1.429 . S
C842 C825 1.574 . S
C842 H836 0.949 . S
C842 C846 1.368 . S
C843 C824 1.429 . S
C843 C837 1.429 . S
C843 C844 1.523 . S
C844 C825 1.368 . S
C844 C838 1.368 . S
C844 C843 1.523 . S
C845 C829 1.429 . S
C845 C841 1.429 . S
C845 C846 1.523 . S
C846 C830 1.368 . S
C846 C842 1.368 . S
C846 C845 1.523 . S
H847 C822 0.950 . S
H848 C824 0.950 . S
H849 C825 0.949 . S
H850 C827 0.950 . S
H851 C829 0.950 . S
C313 C10 2.891 . S
C318 C303 2.858 . S
C343 C59 3.019 . S
C348 C239 2.957 . S
C373 C90 2.923 . S
C378 C271 2.891 . S
C403 C19 3.030 . S
C408 C297 2.979 . S
C438 C233 2.871 . S
C433 C50 2.901 . S
C468 C265 2.946 . S
C463 C99 2.998 . S
C493 C46 0.364 . S
C498 C175 0.349 . S
C523 C95 0.310 . S
C528 C207 0.331 . S
C553 C6 0.333 . S
C558 C137 0.401 . S
C588 C169 0.279 . S
C583 C55 0.313 . S
C618 C201 0.419 . S
C613 C86 0.359 . S
C643 C15 0.327 . S
C648 C143 0.339 . S
C678 C213 1.087 . S
C673 C9 1.091 . S
C703 C49 1.083 . S
C708 C149 1.082 . S
C733 C89 1.090 . S
C738 C181 1.101 . S
C768 C277 1.737 . S
C763 C58 1.697 . S
C798 C309 1.740 . S
C793 C98 1.697 . S
C823 C18 1.698 . S
C828 C245 1.743 . S
