# Generated by pormake.
# Topology pth, (4,4)-cn, num edge types: 1
# Building blocks:
#     Node 0, Type 0, BuildingBlock: QUQFOY_clean_sbu_1, # of connection points: 4
#     Node 1, Type 0, BuildingBlock: QUQFOY_clean_sbu_1, # of connection points: 4
#     Node 2, Type 0, BuildingBlock: QUQFOY_clean_sbu_1, # of connection points: 4
#     Node 3, Type 1, BuildingBlock: MUDLON_clean_linker_0, # of connection points: 4
#     Node 4, Type 1, BuildingBlock: MUDLON_clean_linker_0, # of connection points: 4
#     Node 5, Type 1, BuildingBlock: MUDLON_clean_linker_0, # of connection points: 4
#     Edge 6, Type (0, 1), BuildingBlock: UVAHIK_clean_linker_0, # of connection points: 2
#     Edge 7, Type (0, 1), BuildingBlock: UVAHIK_clean_linker_0, # of connection points: 2
#     Edge 8, Type (0, 1), BuildingBlock: UVAHIK_clean_linker_0, # of connection points: 2
#     Edge 9, Type (0, 1), BuildingBlock: UVAHIK_clean_linker_0, # of connection points: 2
#     Edge 10, Type (0, 1), BuildingBlock: UVAHIK_clean_linker_0, # of connection points: 2
#     Edge 11, Type (0, 1), BuildingBlock: UVAHIK_clean_linker_0, # of connection points: 2
#     Edge 12, Type (0, 1), BuildingBlock: UVAHIK_clean_linker_0, # of connection points: 2
#     Edge 13, Type (0, 1), BuildingBlock: UVAHIK_clean_linker_0, # of connection points: 2
#     Edge 14, Type (0, 1), BuildingBlock: UVAHIK_clean_linker_0, # of connection points: 2
#     Edge 15, Type (0, 1), BuildingBlock: UVAHIK_clean_linker_0, # of connection points: 2
#     Edge 16, Type (0, 1), BuildingBlock: UVAHIK_clean_linker_0, # of connection points: 2
#     Edge 17, Type (0, 1), BuildingBlock: UVAHIK_clean_linker_0, # of connection points: 2
# Relax obj value: 0.048
# Max RMSD: 0.151
# Mean RMSD: 0.117
data_MOF--net-pth--node1-QUQFOY_clean_sbu_1--node2-MUDLON_clean_linker_0--edge1-UVAHIK_clean_linker_0
_symmetry_space_group_name_H-M    P1
_symmetry_Int_Tables_number       1
_symmetry_cell_setting            triclinic
loop_
_symmetry_equiv_pos_as_xyz
'x, y, z'
_cell_length_a     39.682809
_cell_length_b     42.580427
_cell_length_c     85.930905
_cell_angle_alpha  90.012999
_cell_angle_beta   89.977581
_cell_angle_gamma 119.99809
loop_
_atom_site_label
_atom_site_type_symbol
_atom_site_fract_x
_atom_site_fract_y
_atom_site_fract_z
_atom_type_partial_charge
O0 O 0.03433 0.05373 0.01389 0.0
Cd1 Cd 0.98773 0.02058 0.02789 0.0
Cd2 Cd 0.02522 0.98218 0.02822 0.0
O3 O 0.07015 0.02841 0.0183 0.0
O4 O 0.96454 0.05116 0.0333 0.0
O5 O 0.99132 0.0322 0.05076 0.0
C6 C 0.97475 0.05093 0.04752 0.0
C7 C 0.03623 0.95427 0.04936 0.0
C8 C 0.0661 0.05359 0.0123 0.0
C9 C 0.94666 0.94804 0.01278 0.0
O10 O 0.97829 0.94772 0.01453 0.0
O11 O 0.94308 0.97388 0.01833 0.0
O12 O 0.04751 0.95205 0.03553 0.0
O13 O 0.02001 0.97383 0.05131 0.0
O14 O 0.97437 0.03079 0.37047 0.0
Cd15 Cd 0.02328 0.04461 0.35734 0.0
Cd16 Cd 0.99192 0.97036 0.35752 0.0
O17 O 0.94518 0.97144 0.36758 0.0
O18 O 0.04323 0.09645 0.35206 0.0
O19 O 0.02156 0.05303 0.33434 0.0
C20 C 0.03535 0.08686 0.3377 0.0
C21 C 0.98093 0.9278 0.33817 0.0
C22 C 0.94517 0.99944 0.3727 0.0
C23 C 0.06937 0.01609 0.37337 0.0
O24 O 0.04052 0.9846 0.37101 0.0
O25 O 0.0693 0.04392 0.36808 0.0
O26 O 0.97223 0.91842 0.35251 0.0
O27 O 0.99491 0.96158 0.33465 0.0
O28 O 0.9457 0.9768 0.68299 0.0
Cd29 Cd 0.98418 0.96823 0.69579 0.0
Cd30 Cd 0.02363 0.04211 0.69614 0.0
O31 O 0.97412 0.03616 0.68544 0.0
O32 O 0.95288 0.91636 0.70186 0.0
O33 O 0.97625 0.96123 0.71895 0.0
C34 C 0.95561 0.9269 0.7161 0.0
C35 C 0.05184 0.0829 0.71666 0.0
C36 C 0.94608 0.00638 0.68051 0.0
C37 C 0.06153 0.00443 0.68011 0.0
O38 O 0.06228 0.03402 0.68307 0.0
O39 O 0.03325 0.9744 0.68471 0.0
O40 O 0.05406 0.09385 0.70252 0.0
O41 O 0.03221 0.0484 0.71928 0.0
H42 H 0.89874 0.58851 0.21237 0.0
N43 N 0.95254 0.5963 0.19193 0.0
H44 H 0.90725 0.62838 0.23437 0.0
H45 H 0.02232 0.64752 0.20401 0.0
H46 H 0.0312 0.68741 0.22597 0.0
H47 H 0.02176 0.63289 0.17641 0.0
H48 H 0.03834 0.68075 0.15699 0.0
H49 H 0.90357 0.61132 0.1774 0.0
H50 H 0.91948 0.6584 0.15783 0.0
H51 H 0.89693 0.5314 0.18319 0.0
H52 H 0.01607 0.58934 0.19863 0.0
H53 H 0.89863 0.47485 0.18287 0.0
H54 H 0.01783 0.53259 0.19891 0.0
H55 H 0.90556 0.30677 0.21268 0.0
H56 H 0.92573 0.28105 0.23368 0.0
H57 H 0.04528 0.36504 0.22674 0.0
H58 H 0.02457 0.39048 0.20567 0.0
H59 H 0.01641 0.37137 0.17881 0.0
H60 H 0.01861 0.33417 0.15767 0.0
H61 H 0.89292 0.27567 0.15573 0.0
H62 H 0.89116 0.31252 0.17726 0.0
H63 H 0.89673 0.37581 0.2026 0.0
H64 H 0.89935 0.43431 0.20184 0.0
H65 H 0.01601 0.48395 0.18314 0.0
N66 N 0.95098 0.36083 0.19391 0.0
H67 H 0.01332 0.42518 0.18443 0.0
C68 C 0.95972 0.61502 0.20657 0.0
C69 C 0.92781 0.60939 0.2156 0.0
C70 C 0.93277 0.63221 0.22814 0.0
C71 C 0.96988 0.6613 0.23179 0.0
C72 C 0.0022 0.66554 0.22329 0.0
C73 C 0.9972 0.64253 0.21081 0.0
C74 C 0.9614 0.61878 0.17835 0.0
C75 C 0.99919 0.63786 0.17215 0.0
C76 C 0.00859 0.66515 0.16106 0.0
C77 C 0.98035 0.67374 0.1561 0.0
C78 C 0.94205 0.65291 0.16165 0.0
C79 C 0.93277 0.62577 0.17267 0.0
C80 C 0.95604 0.56433 0.19109 0.0
C81 C 0.92347 0.53179 0.18651 0.0
C82 C 0.92447 0.49951 0.18647 0.0
C83 C 0.95817 0.49899 0.19114 0.0
C84 C 0.99143 0.532 0.19522 0.0
C85 C 0.99042 0.56447 0.19516 0.0
C86 C 0.96347 0.35033 0.20766 0.0
C87 C 0.93597 0.32002 0.21596 0.0
C88 C 0.9476 0.30544 0.22795 0.0
C89 C 0.98717 0.32091 0.23184 0.0
C90 C 0.01464 0.35226 0.22389 0.0
C91 C 0.00287 0.36696 0.21191 0.0
C92 C 0.95348 0.34455 0.17962 0.0
C93 C 0.98938 0.35111 0.17362 0.0
C94 C 0.99057 0.32978 0.16149 0.0
C95 C 0.95591 0.30157 0.15514 0.0
C96 C 0.92013 0.29666 0.16057 0.0
C97 C 0.91902 0.31791 0.17272 0.0
C98 C 0.95452 0.3961 0.19347 0.0
C99 C 0.92284 0.39939 0.19838 0.0
C100 C 0.92436 0.4328 0.19781 0.0
C101 C 0.95771 0.46384 0.19221 0.0
C102 C 0.98994 0.46066 0.18756 0.0
C103 C 0.98838 0.42703 0.1882 0.0
H104 H 0.67197 0.01737 0.53268 0.0
N105 N 0.59975 0.95929 0.52653 0.0
H106 H 0.71126 0.02635 0.55579 0.0
H107 H 0.58039 0.91694 0.55154 0.0
H108 H 0.61904 0.92638 0.57512 0.0
H109 H 0.60966 0.90786 0.5136 0.0
H110 H 0.64748 0.9125 0.49038 0.0
H111 H 0.63703 0.01859 0.50748 0.0
H112 H 0.67353 0.02315 0.48387 0.0
H113 H 0.60737 0.01898 0.54268 0.0
H114 H 0.53552 0.93585 0.5096 0.0
H115 H 0.56236 0.04137 0.54257 0.0
H116 H 0.49182 0.96044 0.5083 0.0
H117 H 0.40156 0.10453 0.54141 0.0
H118 H 0.36045 0.09547 0.56407 0.0
H119 H 0.34127 0.98672 0.56917 0.0
H120 H 0.38034 0.99525 0.54627 0.0
H121 H 0.34375 0.9994 0.52016 0.0
H122 H 0.30516 0.99469 0.4973 0.0
H123 H 0.39882 0.09709 0.4805 0.0
H124 H 0.43663 0.10216 0.50382 0.0
H125 H 0.49205 0.09453 0.53141 0.0
H126 H 0.53859 0.07305 0.52981 0.0
H127 H 0.44365 0.96432 0.52102 0.0
N128 N 0.41554 0.05648 0.52763 0.0
H129 H 0.39838 0.98693 0.5212 0.0
C130 C 0.62333 0.96604 0.54029 0.0
C131 C 0.66029 0.9972 0.5418 0.0
C132 C 0.68256 0.00255 0.55515 0.0
C133 C 0.66835 0.97706 0.56732 0.0
C134 C 0.63111 0.94627 0.56588 0.0
C135 C 0.6089 0.94088 0.55248 0.0
C136 C 0.6203 0.96263 0.51221 0.0
C137 C 0.62337 0.93297 0.50706 0.0
C138 C 0.64478 0.93566 0.49373 0.0
C139 C 0.66351 0.96819 0.48519 0.0
C140 C 0.65992 0.99783 0.49026 0.0
C141 C 0.63874 0.99518 0.50368 0.0
C142 C 0.57471 0.97501 0.52626 0.0
C143 C 0.58218 0.00557 0.53522 0.0
C144 C 0.55638 0.01888 0.53498 0.0
C145 C 0.52308 0.00285 0.52545 0.0
C146 C 0.51643 0.97306 0.51613 0.0
C147 C 0.54164 0.95912 0.51672 0.0
C148 C 0.39451 0.05095 0.54205 0.0
C149 C 0.38877 0.07891 0.54755 0.0
C150 C 0.3654 0.07368 0.56056 0.0
C151 C 0.34737 0.04027 0.56847 0.0
C152 C 0.35408 0.01258 0.56323 0.0
C153 C 0.37705 0.01768 0.55011 0.0
C154 C 0.39297 0.05151 0.51376 0.0
C155 C 0.35604 0.02079 0.51155 0.0
C156 C 0.33409 0.018 0.49838 0.0
C157 C 0.34875 0.04563 0.48707 0.0
C158 C 0.38629 0.07566 0.4891 0.0
C159 C 0.40806 0.07854 0.50234 0.0
C160 C 0.4418 0.04237 0.52674 0.0
C161 C 0.48154 0.06612 0.52907 0.0
C162 C 0.50801 0.0536 0.52829 0.0
C163 C 0.49512 0.01669 0.52548 0.0
C164 C 0.45508 0.99299 0.52298 0.0
C165 C 0.42884 0.00579 0.52333 0.0
H166 H 0.6101 0.70316 0.87686 0.0
N167 N 0.59931 0.64028 0.86627 0.0
H168 H 0.64575 0.73578 0.90015 0.0
H169 H 0.62485 0.61283 0.88971 0.0
H170 H 0.65888 0.64442 0.91316 0.0
H171 H 0.67248 0.6484 0.86572 0.0
H172 H 0.72178 0.67926 0.84559 0.0
H173 H 0.59025 0.66413 0.8389 0.0
H174 H 0.63939 0.69433 0.81847 0.0
H175 H 0.5224 0.60914 0.86662 0.0
H176 H 0.61535 0.58474 0.86433 0.0
H177 H 0.47457 0.54444 0.86571 0.0
H178 H 0.56815 0.5201 0.86438 0.0
H179 H 0.34358 0.37297 0.87908 0.0
H180 H 0.30785 0.34 0.90199 0.0
H181 H 0.38694 0.29869 0.90791 0.0
H182 H 0.42451 0.33449 0.8855 0.0
H183 H 0.39846 0.31726 0.84972 0.0
H184 H 0.35208 0.28608 0.82867 0.0
H185 H 0.3137 0.36467 0.8316 0.0
H186 H 0.36023 0.39561 0.85272 0.0
H187 H 0.4004 0.42792 0.88097 0.0
H188 H 0.44756 0.49188 0.88066 0.0
H189 H 0.52087 0.47155 0.84991 0.0
N190 N 0.40708 0.37324 0.86632 0.0
H191 H 0.47409 0.40662 0.85108 0.0
C192 C 0.61459 0.65559 0.88141 0.0
C193 C 0.62004 0.68997 0.88492 0.0
C194 C 0.64032 0.70849 0.89828 0.0
C195 C 0.65551 0.69285 0.90849 0.0
C196 C 0.64821 0.65755 0.9054 0.0
C197 C 0.62822 0.63919 0.89198 0.0
C198 C 0.62768 0.65444 0.85389 0.0
C199 C 0.66483 0.65812 0.85544 0.0
C200 C 0.69305 0.6758 0.84395 0.0
C201 C 0.68441 0.68936 0.83056 0.0
C202 C 0.64672 0.684 0.82866 0.0
C203 C 0.61871 0.66685 0.84028 0.0
C204 C 0.57229 0.6018 0.86569 0.0
C205 C 0.5324 0.58971 0.86606 0.0
C206 C 0.50517 0.55267 0.86567 0.0
C207 C 0.51733 0.52677 0.8651 0.0
C208 C 0.55752 0.53908 0.86459 0.0
C209 C 0.5847 0.57617 0.86472 0.0
C210 C 0.38737 0.35679 0.88071 0.0
C211 C 0.35404 0.35776 0.88554 0.0
C212 C 0.33309 0.33822 0.89857 0.0
C213 C 0.34403 0.31612 0.90679 0.0
C214 C 0.37783 0.31574 0.90208 0.0
C215 C 0.39932 0.33605 0.88923 0.0
C216 C 0.38278 0.35858 0.85276 0.0
C217 C 0.38046 0.32803 0.84561 0.0
C218 C 0.35401 0.31035 0.83359 0.0
C219 C 0.32912 0.32286 0.8285 0.0
C220 C 0.33218 0.35416 0.8354 0.0
C221 C 0.35888 0.37198 0.8474 0.0
C222 C 0.43381 0.41191 0.8662 0.0
C223 C 0.42653 0.43672 0.87424 0.0
C224 C 0.45362 0.4738 0.87391 0.0
C225 C 0.48828 0.48719 0.86528 0.0
C226 C 0.49501 0.46236 0.85697 0.0
C227 C 0.46817 0.42521 0.85751 0.0
C228 C 0.95007 0.0922 0.05553 0.0
C229 C 0.96952 0.0733 0.0594 0.0
C230 C 0.9479 0.11593 0.06615 0.0
C231 C 0.95805 0.14077 0.10781 0.0
H232 H 0.97355 0.23216 0.09168 0.0
C233 C 0.98512 0.28785 0.13189 0.0
C234 C 0.95694 0.27574 0.14374 0.0
C235 C 0.98688 0.26312 0.12167 0.0
C236 C 0.96949 0.20692 0.0964 0.0
H237 H 0.00111 0.0638 0.07764 0.0
H238 H 0.99756 0.10554 0.09621 0.0
H239 H 0.97626 0.1887 0.07404 0.0
H240 H 0.90878 0.22798 0.15422 0.0
H241 H 0.91122 0.18511 0.1362 0.0
H242 H 0.95202 0.15935 0.13022 0.0
C243 C 0.9837 0.10174 0.08497 0.0
C244 C 0.97055 0.18178 0.08626 0.0
C245 C 0.98582 0.07788 0.07432 0.0
C246 C 0.93048 0.23835 0.14508 0.0
C247 C 0.93224 0.21367 0.13488 0.0
C248 C 0.95697 0.16594 0.11796 0.0
C249 C 0.96522 0.12146 0.08091 0.0
C250 C 0.96463 0.14831 0.09182 0.0
C251 C 0.96056 0.2257 0.1231 0.0
C252 C 0.96251 0.19925 0.11236 0.0
H253 H 0.93697 0.08914 0.04417 0.0
H254 H 0.93274 0.13008 0.06276 0.0
H255 H 0.95315 0.11518 0.11246 0.0
H256 H 0.00579 0.31647 0.13049 0.0
H257 H 0.00927 0.27328 0.1128 0.0
C258 C 0.91427 0.02571 0.38973 0.0
C259 C 0.91172 0.99563 0.38188 0.0
C260 C 0.88379 0.02193 0.39915 0.0
C261 C 0.79886 0.95276 0.42108 0.0
H262 H 0.7757 0.03072 0.42529 0.0
C263 C 0.67667 0.94196 0.46123 0.0
C264 C 0.68779 0.97145 0.4714 0.0
C265 C 0.70078 0.94429 0.44889 0.0
C266 C 0.78193 0.00877 0.42424 0.0
H267 H 0.87448 0.93816 0.37738 0.0
H268 H 0.82085 0.93172 0.39354 0.0
H269 H 0.82303 0.03547 0.40593 0.0
H270 H 0.73297 0.02672 0.47636 0.0
H271 H 0.77451 0.03093 0.45465 0.0
H272 H 0.75768 0.92614 0.43942 0.0
C273 C 0.84684 0.95811 0.39269 0.0
C274 C 0.80912 0.0115 0.4132 0.0
C275 C 0.87751 0.96183 0.38335 0.0
C276 C 0.72311 0.00367 0.46864 0.0
C277 C 0.74701 0.00609 0.45622 0.0
C278 C 0.7714 0.9499 0.43202 0.0
C279 C 0.8498 0.98804 0.40086 0.0
C280 C 0.81844 0.9838 0.41166 0.0
C281 C 0.73634 0.97627 0.44635 0.0
C282 C 0.76312 0.97813 0.43388 0.0
H283 H 0.94025 0.05213 0.38892 0.0
H284 H 0.88745 0.04546 0.40545 0.0
H285 H 0.80567 0.93115 0.42041 0.0
H286 H 0.64935 0.91698 0.46281 0.0
H287 H 0.69162 0.92104 0.44134 0.0
C288 C 0.90488 0.86484 0.72445 0.0
C289 C 0.93318 0.90045 0.72848 0.0
C290 C 0.88047 0.84069 0.73577 0.0
C291 C 0.86849 0.8197 0.77727 0.0
H292 H 0.75818 0.77501 0.76839 0.0
C293 C 0.75094 0.73995 0.82385 0.0
C294 C 0.71513 0.71077 0.819 0.0
C295 C 0.77901 0.76188 0.81292 0.0
C296 C 0.78881 0.78659 0.77099 0.0
H297 H 0.9592 0.93811 0.74767 0.0
H298 H 0.91675 0.89536 0.76759 0.0
H299 H 0.80531 0.81504 0.74928 0.0
H300 H 0.68104 0.68067 0.79904 0.0
H301 H 0.73051 0.7179 0.77993 0.0
H302 H 0.8522 0.79068 0.79882 0.0
C303 C 0.91347 0.88644 0.7556 0.0
C304 C 0.81582 0.80974 0.76004 0.0
C305 C 0.93764 0.91088 0.74421 0.0
C306 C 0.7083 0.70326 0.80305 0.0
C307 C 0.7366 0.7248 0.79212 0.0
C308 C 0.84146 0.79604 0.78815 0.0
C309 C 0.88411 0.8514 0.75141 0.0
C310 C 0.85588 0.82659 0.76308 0.0
C311 C 0.77212 0.7548 0.79688 0.0
C312 C 0.8012 0.77924 0.78518 0.0
H313 H 0.90066 0.85589 0.71245 0.0
H314 H 0.85832 0.8137 0.73226 0.0
H315 H 0.89927 0.83219 0.77982 0.0
H316 H 0.75672 0.74657 0.83609 0.0
H317 H 0.80561 0.785 0.81707 0.0
C318 C 0.05662 0.91136 0.05968 0.0
C319 C 0.03903 0.93255 0.06221 0.0
C320 C 0.05495 0.88717 0.07104 0.0
C321 C 0.99327 0.83337 0.10352 0.0
H322 H 0.07686 0.8135 0.11189 0.0
C323 C 0.97705 0.72945 0.14976 0.0
C324 C 0.99097 0.70579 0.14609 0.0
C325 C 0.98599 0.75929 0.14035 0.0
C326 C 0.05313 0.81852 0.10957 0.0
H327 H 0.00764 0.9463 0.07899 0.0
H328 H 0.00497 0.9042 0.0989 0.0
H329 H 0.08818 0.8632 0.09445 0.0
H330 H 0.02595 0.69537 0.12982 0.0
H331 H 0.04123 0.74744 0.11313 0.0
H332 H 0.95795 0.78844 0.11832 0.0
C333 C 0.01957 0.90596 0.08801 0.0
C334 C 0.05966 0.84705 0.09962 0.0
C335 C 0.02133 0.93026 0.07665 0.0
C336 C 0.01487 0.71317 0.13295 0.0
C337 C 0.0237 0.74305 0.12344 0.0
C338 C 0.98673 0.80486 0.11341 0.0
C339 C 0.03558 0.88354 0.08519 0.0
C340 C 0.02973 0.85472 0.09645 0.0
C341 C 0.00899 0.76624 0.12696 0.0
C342 C 0.01651 0.797 0.11654 0.0
H343 H 0.07057 0.91251 0.04869 0.0
H344 H 0.06733 0.87013 0.06845 0.0
H345 H 0.96934 0.83802 0.10107 0.0
H346 H 0.95938 0.72503 0.16003 0.0
H347 H 0.97493 0.77702 0.14362 0.0
C348 C 0.13192 0.05506 0.38757 0.0
C349 C 0.10246 0.02041 0.38294 0.0
C350 C 0.16163 0.05896 0.39751 0.0
C351 C 0.21154 0.01203 0.41285 0.0
H352 H 0.23364 0.0759 0.44825 0.0
C353 C 0.29964 0.01069 0.46618 0.0
C354 C 0.32436 0.04386 0.47359 0.0
C355 C 0.27512 0.00885 0.45411 0.0
C356 C 0.22837 0.05841 0.43831 0.0
H357 H 0.08194 0.96276 0.38469 0.0
H358 H 0.13386 0.96967 0.40202 0.0
H359 H 0.18693 0.07121 0.42875 0.0
H360 H 0.34289 0.10123 0.47393 0.0
H361 H 0.30125 0.09824 0.45258 0.0
H362 H 0.25298 0.99918 0.42243 0.0
C363 C 0.13397 0.99378 0.39793 0.0
C364 C 0.20153 0.0557 0.42714 0.0
C365 C 0.1041 0.98984 0.38807 0.0
C366 C 0.3246 0.07528 0.46839 0.0
C367 C 0.30027 0.07348 0.45627 0.0
C368 C 0.23862 0.0149 0.42399 0.0
C369 C 0.16271 0.02835 0.40293 0.0
C370 C 0.19263 0.03232 0.41435 0.0
C371 C 0.27484 0.04018 0.44912 0.0
C372 C 0.24718 0.03797 0.43691 0.0
H373 H 0.13162 0.07919 0.3838 0.0
H374 H 0.18367 0.08597 0.40103 0.0
H375 H 0.20553 0.99406 0.40302 0.0
H376 H 0.29907 0.98604 0.46975 0.0
H377 H 0.25568 0.98269 0.44896 0.0
C378 C 0.07743 0.09742 0.744 0.0
C379 C 0.07362 0.10921 0.72917 0.0
C380 C 0.10197 0.12243 0.75513 0.0
C381 C 0.18873 0.2133 0.75735 0.0
H382 H 0.16652 0.20422 0.80158 0.0
C383 C 0.26068 0.29518 0.81846 0.0
C384 C 0.29904 0.30222 0.81653 0.0
C385 C 0.23172 0.27347 0.80777 0.0
C386 C 0.173 0.20735 0.78925 0.0
H387 H 0.09084 0.15662 0.7147 0.0
H388 H 0.13303 0.20008 0.73413 0.0
H389 H 0.11681 0.1628 0.78337 0.0
H390 H 0.3373 0.29294 0.80163 0.0
H391 H 0.28679 0.25485 0.78308 0.0
H392 H 0.2448 0.25781 0.76317 0.0
C393 C 0.11779 0.17152 0.73707 0.0
C394 C 0.14467 0.18338 0.77884 0.0
C395 C 0.0934 0.14658 0.72596 0.0
C396 C 0.30797 0.28777 0.8035 0.0
C397 C 0.27908 0.26621 0.7928 0.0
C398 C 0.21703 0.23715 0.76774 0.0
C399 C 0.12311 0.1597 0.75165 0.0
C400 C 0.15231 0.18597 0.76277 0.0
C401 C 0.24054 0.25851 0.79489 0.0
C402 C 0.20964 0.23428 0.78382 0.0
H403 H 0.06262 0.0688 0.74682 0.0
H404 H 0.1056 0.11241 0.76622 0.0
H405 H 0.19579 0.21579 0.74507 0.0
H406 H 0.2528 0.30562 0.82846 0.0
H407 H 0.20238 0.26833 0.80962 0.0
C408 C 0.91467 0.03825 0.66758 0.0
C409 C 0.91416 0.0059 0.67138 0.0
C410 C 0.88543 0.03755 0.65822 0.0
C411 C 0.78627 0.97578 0.64279 0.0
H412 H 0.81872 0.04519 0.60897 0.0
C413 C 0.69392 0.95239 0.58781 0.0
C414 C 0.69283 0.98209 0.58123 0.0
C415 C 0.71842 0.95729 0.60036 0.0
C416 C 0.80906 0.02598 0.61849 0.0
H417 H 0.88198 0.94736 0.6686 0.0
H418 H 0.83162 0.94626 0.65221 0.0
H419 H 0.86621 0.05047 0.6283 0.0
H420 H 0.71568 0.04011 0.5831 0.0
H421 H 0.75884 0.04868 0.60493 0.0
H422 H 0.72936 0.95068 0.63269 0.0
C423 C 0.85421 0.97215 0.6566 0.0
C424 C 0.83627 0.02903 0.6296 0.0
C425 C 0.88334 0.97284 0.66592 0.0
C426 C 0.71631 0.01674 0.58771 0.0
C427 C 0.74096 0.02166 0.60023 0.0
C428 C 0.75912 0.97267 0.63166 0.0
C429 C 0.85507 0.00449 0.65251 0.0
C430 C 0.82535 0.00355 0.6417 0.0
C431 C 0.74251 0.99203 0.60661 0.0
C432 C 0.77038 0.99734 0.61924 0.0
H433 H 0.9379 0.06417 0.67164 0.0
H434 H 0.8867 0.06292 0.65541 0.0
H435 H 0.77675 0.95612 0.65214 0.0
H436 H 0.67673 0.92544 0.58297 0.0
H437 H 0.7194 0.934 0.60486 0.0
C438 C 0.9185 0.89068 0.99718 0.0
C439 C 0.91427 0.91866 0.00386 0.0
C440 C 0.88873 0.86388 0.98816 0.0
C441 C 0.78379 0.821 0.97917 0.0
H442 H 0.81439 0.79643 0.94023 0.0
C443 C 0.67461 0.73871 0.93009 0.0
C444 C 0.6816 0.71442 0.92149 0.0
C445 C 0.70131 0.76137 0.94129 0.0
C446 C 0.80531 0.8025 0.95117 0.0
H447 H 0.87492 0.93982 0.00661 0.0
H448 H 0.82307 0.89311 0.99077 0.0
H449 H 0.86403 0.83996 0.95766 0.0
H450 H 0.72192 0.6945 0.91824 0.0
H451 H 0.76757 0.73299 0.93803 0.0
H452 H 0.72494 0.78358 0.97258 0.0
C453 C 0.84935 0.89181 0.99262 0.0
C454 C 0.83381 0.82752 0.96116 0.0
C455 C 0.87918 0.9187 0.00162 0.0
C456 C 0.71526 0.71251 0.92474 0.0
C457 C 0.7418 0.73501 0.93595 0.0
C458 C 0.7552 0.79583 0.96917 0.0
C459 C 0.854 0.86436 0.98563 0.0
C460 C 0.82342 0.83711 0.97526 0.0
C461 C 0.73557 0.76022 0.94415 0.0
C462 C 0.76566 0.78631 0.95505 0.0
H463 H 0.94501 0.88965 -0.00126 0.0
H464 H 0.89296 0.84278 0.98313 0.0
H465 H 0.7749 0.82759 0.99004 0.0
H466 H 0.64876 0.7406 0.92802 0.0
H467 H 0.6957 0.78061 0.94734 0.0
C468 C 0.9573 0.86366 0.33027 0.0
C469 C 0.97691 0.9007 0.32643 0.0
C470 C 0.95628 0.83806 0.31984 0.0
C471 C 0.9726 0.82392 0.27852 0.0
H472 H 0.98437 0.74577 0.2958 0.0
C473 C 0.99699 0.72603 0.23994 0.0
C474 C 0.97418 0.68889 0.24341 0.0
C475 C 0.99836 0.75217 0.25016 0.0
C476 C 0.98075 0.76727 0.29081 0.0
H477 H 0.01008 0.93986 0.30848 0.0
H478 H 0.00891 0.89519 0.29032 0.0
H479 H 0.98383 0.79088 0.31309 0.0
H480 H 0.93585 0.65013 0.26056 0.0
H481 H 0.9383 0.69585 0.27846 0.0
H482 H 0.96998 0.80037 0.2562 0.0
C483 C 0.99382 0.88584 0.30133 0.0
C484 C 0.98031 0.79309 0.30072 0.0
C485 C 0.99459 0.91149 0.31174 0.0
C486 C 0.95355 0.67852 0.25753 0.0
C487 C 0.95515 0.7047 0.26782 0.0
C488 C 0.97329 0.7982 0.2686 0.0
C489 C 0.97513 0.84885 0.30535 0.0
C490 C 0.97599 0.82164 0.29471 0.0
C491 C 0.97714 0.74179 0.26413 0.0
C492 C 0.97723 0.76951 0.27465 0.0
H493 H 0.9431 0.8544 0.34144 0.0
H494 H 0.94083 0.80975 0.3232 0.0
H495 H 0.96871 0.84522 0.2735 0.0
H496 H 0.01284 0.7349 0.22906 0.0
H497 H 0.01589 0.78054 0.24708 0.0
C498 C 0.0887 0.97319 0.66394 0.0
C499 C 0.0932 0.00509 0.67075 0.0
C500 C 0.11755 0.97444 0.65418 0.0
C501 C 0.22097 0.02961 0.64351 0.0
H502 H 0.18711 0.98395 0.60311 0.0
C503 C 0.32752 0.0616 0.59229 0.0
C504 C 0.32032 0.03378 0.58167 0.0
C505 C 0.30091 0.05598 0.60413 0.0
C506 C 0.19714 0.9963 0.61443 0.0
H507 H 0.13216 0.06308 0.67312 0.0
H508 H 0.18255 0.06511 0.65621 0.0
H509 H 0.13893 0.9772 0.62236 0.0
H510 H 0.27941 0.97795 0.57541 0.0
H511 H 0.23408 0.96773 0.5964 0.0
H512 H 0.27919 0.04865 0.63566 0.0
C513 C 0.1567 0.03919 0.6584 0.0
C514 C 0.16946 0.99247 0.62545 0.0
C515 C 0.1277 0.03803 0.66801 0.0
C516 C 0.28628 0.99992 0.58346 0.0
C517 C 0.25988 0.9942 0.59538 0.0
C518 C 0.2487 0.03314 0.63255 0.0
C519 C 0.15167 0.00751 0.65121 0.0
C520 C 0.18109 0.00944 0.64002 0.0
C521 C 0.26656 0.02229 0.60574 0.0
C522 C 0.23715 0.0169 0.61779 0.0
H523 H 0.06247 0.94738 0.66582 0.0
H524 H 0.11308 0.94957 0.64886 0.0
H525 H 0.23071 0.04267 0.65474 0.0
H526 H 0.35366 0.08787 0.59142 0.0
H527 H 0.30688 0.0784 0.61177 0.0
C528 C 0.09045 0.10475 0.99333 0.0
C529 C 0.09808 0.08276 0.0032 0.0
C530 C 0.12018 0.13207 0.98453 0.0
C531 C 0.21923 0.16248 0.96917 0.0
H532 H 0.21499 0.24957 0.95983 0.0
C533 C 0.33524 0.28393 0.93248 0.0
C534 C 0.31903 0.29216 0.91961 0.0
C535 C 0.31128 0.26034 0.94413 0.0
C536 C 0.21656 0.22543 0.96241 0.0
H537 H 0.14309 0.07253 0.01175 0.0
H538 H 0.19545 0.12112 0.99674 0.0
H539 H 0.16817 0.20515 0.97794 0.0
H540 H 0.26446 0.28112 0.90894 0.0
H541 H 0.22328 0.24161 0.92957 0.0
H542 H 0.26816 0.18345 0.95366 0.0
C543 C 0.16623 0.11667 0.99551 0.0
C544 C 0.18959 0.1998 0.97268 0.0
C545 C 0.13626 0.08891 0.00418 0.0
C546 C 0.27829 0.27644 0.91882 0.0
C547 C 0.25454 0.25352 0.93059 0.0
C548 C 0.24666 0.1885 0.95908 0.0
C549 C 0.15853 0.13857 0.98553 0.0
C550 C 0.18988 0.16751 0.97588 0.0
C551 C 0.27076 0.24511 0.94329 0.0
C552 C 0.24493 0.21974 0.95535 0.0
H553 H 0.06127 0.10051 0.99218 0.0
H554 H 0.11281 0.14766 0.97671 0.0
H555 H 0.22019 0.13785 0.9712 0.0
H556 H 0.36643 0.29582 0.93363 0.0
H557 H 0.32439 0.25428 0.95388 0.0
C558 C 0.05806 0.15074 0.32963 0.0
C559 C 0.03971 0.11373 0.32578 0.0
C560 C 0.05841 0.17591 0.31913 0.0
C561 C 0.0407 0.18966 0.27791 0.0
H562 H 0.01675 0.25981 0.29589 0.0
C563 C 0.97774 0.28789 0.25709 0.0
C564 C 0.99954 0.30284 0.24346 0.0
C565 C 0.98699 0.26775 0.26727 0.0
C566 C 0.02336 0.24036 0.29067 0.0
H567 H 0.00871 0.07431 0.30763 0.0
H568 H 0.0088 0.11825 0.28933 0.0
H569 H 0.02486 0.21828 0.3128 0.0
H570 H 0.04873 0.30898 0.23001 0.0
H571 H 0.06538 0.27437 0.24796 0.0
H572 H 0.03772 0.21098 0.25571 0.0
C573 C 0.02333 0.12788 0.30042 0.0
C574 C 0.0285 0.2168 0.30038 0.0
C575 C 0.02314 0.10265 0.31093 0.0
C576 C 0.03158 0.29811 0.24048 0.0
C577 C 0.04081 0.27788 0.25066 0.0
C578 C 0.03555 0.21327 0.26817 0.0
C579 C 0.04022 0.1647 0.30455 0.0
C580 C 0.0369 0.19094 0.29413 0.0
C581 C 0.0183 0.26206 0.26407 0.0
C582 C 0.02639 0.23863 0.27444 0.0
H583 H 0.07144 0.16024 0.34093 0.0
H584 H 0.07243 0.20415 0.32256 0.0
H585 H 0.0475 0.17031 0.27272 0.0
H586 H 0.9531 0.29131 0.25979 0.0
H587 H 0.96882 0.2557 0.27741 0.0
loop_
_geom_bond_atom_site_label_1
_geom_bond_atom_site_label_2
_geom_bond_distance
_geom_bond_site_symmetry_2
_ccdc_geom_bond_type
O0 Cd1 2.223 1_455 S
O0 C8 1.315 . S
Cd1 O0 2.223 1_655 S
Cd1 O4 2.297 . S
Cd1 O5 2.439 . S
Cd1 O11 2.240 1_545 S
Cd2 O3 2.240 1_565 S
Cd2 O10 2.223 1_455 S
Cd2 O12 2.297 . S
Cd2 O13 2.439 . S
O3 Cd2 2.240 1_545 S
O3 C8 1.279 . S
O4 Cd1 2.297 . S
O4 C6 1.247 . S
O5 Cd1 2.439 . S
O5 C6 1.208 . S
C6 O4 1.247 . S
C6 O5 1.208 . S
C7 O12 1.247 . S
C7 O13 1.208 . S
C8 O0 1.315 . S
C8 O3 1.279 . S
C9 O10 1.315 . S
C9 O11 1.279 . S
O10 Cd2 2.223 1_655 S
O10 C9 1.315 . S
O11 Cd1 2.240 1_565 S
O11 C9 1.279 . S
O12 Cd2 2.297 . S
O12 C7 1.247 . S
O13 Cd2 2.439 . S
O13 C7 1.208 . S
O14 Cd15 2.223 1_655 S
O14 C22 1.315 . S
Cd15 O14 2.223 1_455 S
Cd15 O18 2.297 . S
Cd15 O19 2.439 . S
Cd15 O25 2.240 . S
Cd16 O17 2.240 . S
Cd16 O24 2.223 1_655 S
Cd16 O26 2.297 . S
Cd16 O27 2.453 . S
O17 Cd16 2.240 . S
O17 C22 1.279 1_565 S
O18 Cd15 2.297 . S
O18 C20 1.247 . S
O19 Cd15 2.439 . S
O19 C20 1.208 . S
C20 O18 1.247 . S
C20 O19 1.208 . S
C21 O26 1.247 . S
C21 O27 1.193 . S
C22 O14 1.315 . S
C22 O17 1.279 1_545 S
C23 O24 1.315 . S
C23 O25 1.279 1_565 S
O24 Cd16 2.223 1_455 S
O24 C23 1.315 . S
O25 Cd15 2.240 . S
O25 C23 1.279 1_545 S
O26 Cd16 2.297 . S
O26 C21 1.247 . S
O27 Cd16 2.453 . S
O27 C21 1.193 . S
O28 Cd29 2.223 . S
O28 C36 1.315 . S
Cd29 O28 2.223 . S
Cd29 O32 2.297 . S
Cd29 O33 2.439 . S
Cd29 O39 2.240 1_655 S
Cd30 O31 2.240 1_455 S
Cd30 O38 2.223 . S
Cd30 O40 2.297 . S
Cd30 O41 2.439 . S
O31 Cd30 2.240 1_655 S
O31 C36 1.279 1_545 S
O32 Cd29 2.297 . S
O32 C34 1.247 . S
O33 Cd29 2.439 . S
O33 C34 1.208 . S
C34 O32 1.247 . S
C34 O33 1.208 . S
C35 O40 1.247 . S
C35 O41 1.208 . S
C36 O28 1.315 . S
C36 O31 1.279 1_565 S
C37 O38 1.315 . S
C37 O39 1.279 1_545 S
O38 Cd30 2.223 . S
O38 C37 1.315 . S
O39 Cd29 2.240 1_455 S
O39 C37 1.279 1_565 S
O40 Cd30 2.297 . S
O40 C35 1.247 . S
O41 Cd30 2.439 . S
O41 C35 1.208 . S
H42 C69 0.929 . S
N43 C68 1.433 . S
N43 C74 1.435 . S
N43 C80 1.423 . S
H44 C70 0.930 . S
H45 C73 0.931 . S
H46 C72 0.929 . S
H47 C75 0.930 . S
H48 C76 0.932 . S
H49 C79 0.929 . S
H50 C78 0.931 . S
H51 C81 0.929 . S
H52 C85 0.932 1_455 S
H53 C82 0.931 . S
H54 C84 0.929 1_455 S
H55 C87 0.929 . S
H56 C88 0.930 . S
H57 C90 0.929 . S
H58 C91 0.931 . S
H59 C93 0.930 . S
H60 C94 0.932 . S
H61 C96 0.931 . S
H62 C97 0.929 . S
H63 C99 0.929 . S
H64 C100 0.931 . S
H65 C102 0.929 1_455 S
N66 C86 1.433 . S
N66 C92 1.435 . S
N66 C98 1.423 . S
H67 C103 0.932 1_455 S
C68 N43 1.433 . S
C68 C69 1.363 . S
C68 C73 1.370 1_655 S
C69 H42 0.929 . S
C69 C68 1.363 . S
C69 C70 1.385 . S
C70 H44 0.930 . S
C70 C69 1.385 . S
C70 C71 1.357 . S
C71 C70 1.357 . S
C71 C72 1.406 1_655 S
C72 H46 0.929 . S
C72 C71 1.406 1_455 S
C72 C73 1.391 . S
C73 H45 0.931 . S
C73 C68 1.370 1_455 S
C73 C72 1.391 . S
C74 N43 1.435 . S
C74 C75 1.358 1_655 S
C74 C79 1.371 . S
C75 H47 0.930 . S
C75 C74 1.358 1_455 S
C75 C76 1.405 . S
C76 H48 0.932 . S
C76 C75 1.405 . S
C76 C77 1.383 1_455 S
C77 C76 1.383 1_655 S
C77 C78 1.393 . S
C78 H50 0.931 . S
C78 C77 1.393 . S
C78 C79 1.382 . S
C79 H49 0.929 . S
C79 C74 1.371 . S
C79 C78 1.382 . S
C80 N43 1.423 . S
C80 C81 1.362 . S
C80 C85 1.388 . S
C81 H51 0.929 . S
C81 C80 1.362 . S
C81 C82 1.376 . S
C82 H53 0.931 . S
C82 C81 1.376 . S
C82 C83 1.396 . S
C83 C82 1.396 . S
C83 C84 1.348 . S
C83 C101 1.472 . S
C84 H54 0.929 1_655 S
C84 C83 1.348 . S
C84 C85 1.443 . S
C85 H52 0.932 1_655 S
C85 C80 1.388 . S
C85 C84 1.443 . S
C86 N66 1.433 . S
C86 C87 1.363 . S
C86 C91 1.370 1_655 S
C87 H55 0.929 . S
C87 C86 1.363 . S
C87 C88 1.385 . S
C88 H56 0.930 . S
C88 C87 1.385 . S
C88 C89 1.357 . S
C89 C88 1.357 . S
C89 C90 1.406 1_655 S
C90 H57 0.929 . S
C90 C89 1.406 1_455 S
C90 C91 1.391 . S
C91 H58 0.931 . S
C91 C86 1.370 1_455 S
C91 C90 1.391 . S
C92 N66 1.435 . S
C92 C93 1.358 1_655 S
C92 C97 1.371 . S
C93 H59 0.930 . S
C93 C92 1.358 1_455 S
C93 C94 1.405 . S
C94 H60 0.932 . S
C94 C93 1.405 . S
C94 C95 1.383 1_455 S
C95 C94 1.383 1_655 S
C95 C96 1.393 . S
C96 H61 0.931 . S
C96 C95 1.393 . S
C96 C97 1.382 . S
C97 H62 0.929 . S
C97 C92 1.371 . S
C97 C96 1.382 . S
C98 N66 1.423 . S
C98 C99 1.362 . S
C98 C103 1.388 . S
C99 H63 0.929 . S
C99 C98 1.362 . S
C99 C100 1.376 . S
C100 H64 0.931 . S
C100 C99 1.376 . S
C100 C101 1.396 . S
C101 C83 1.472 . S
C101 C100 1.396 . S
C101 C102 1.348 . S
C102 H65 0.929 1_655 S
C102 C101 1.348 . S
C102 C103 1.443 . S
C103 H67 0.932 1_655 S
C103 C98 1.388 . S
C103 C102 1.443 . S
H104 C131 0.929 . S
N105 C130 1.433 . S
N105 C136 1.435 . S
N105 C142 1.423 . S
H106 C132 0.930 . S
H107 C135 0.931 . S
H108 C134 0.929 . S
H109 C137 0.930 . S
H110 C138 0.932 . S
H111 C141 0.929 . S
H112 C140 0.931 . S
H113 C143 0.929 . S
H114 C147 0.932 1_565 S
H115 C144 0.931 . S
H116 C146 0.929 1_565 S
H117 C149 0.929 . S
H118 C150 0.930 . S
H119 C152 0.929 . S
H120 C153 0.931 . S
H121 C155 0.930 . S
H122 C156 0.932 . S
H123 C158 0.931 . S
H124 C159 0.929 . S
H125 C161 0.929 . S
H126 C162 0.931 . S
H127 C164 0.929 1_565 S
N128 C148 1.433 . S
N128 C154 1.435 . S
N128 C160 1.423 . S
H129 C165 0.932 1_565 S
C130 N105 1.433 . S
C130 C131 1.363 . S
C130 C135 1.370 1_545 S
C131 H104 0.929 . S
C131 C130 1.363 . S
C131 C132 1.385 . S
C132 H106 0.930 . S
C132 C131 1.385 . S
C132 C133 1.357 . S
C133 C132 1.357 . S
C133 C134 1.406 1_545 S
C134 H108 0.929 . S
C134 C133 1.406 1_565 S
C134 C135 1.391 . S
C135 H107 0.931 . S
C135 C130 1.370 1_565 S
C135 C134 1.391 . S
C136 N105 1.435 . S
C136 C137 1.358 1_545 S
C136 C141 1.371 . S
C137 H109 0.930 . S
C137 C136 1.358 1_565 S
C137 C138 1.405 . S
C138 H110 0.932 . S
C138 C137 1.405 . S
C138 C139 1.383 1_565 S
C139 C138 1.383 1_545 S
C139 C140 1.393 . S
C140 H112 0.931 . S
C140 C139 1.393 . S
C140 C141 1.382 . S
C141 H111 0.929 . S
C141 C136 1.371 . S
C141 C140 1.382 . S
C142 N105 1.423 . S
C142 C143 1.362 . S
C142 C147 1.388 . S
C143 H113 0.929 . S
C143 C142 1.362 . S
C143 C144 1.376 . S
C144 H115 0.931 . S
C144 C143 1.376 . S
C144 C145 1.396 . S
C145 C144 1.396 . S
C145 C146 1.348 . S
C145 C163 1.472 . S
C146 H116 0.929 1_545 S
C146 C145 1.348 . S
C146 C147 1.443 . S
C147 H114 0.932 1_545 S
C147 C142 1.388 . S
C147 C146 1.443 . S
C148 N128 1.433 . S
C148 C149 1.363 . S
C148 C153 1.370 1_545 S
C149 H117 0.929 . S
C149 C148 1.363 . S
C149 C150 1.385 . S
C150 H118 0.930 . S
C150 C149 1.385 . S
C150 C151 1.357 . S
C151 C150 1.357 . S
C151 C152 1.406 1_545 S
C152 H119 0.929 . S
C152 C151 1.406 1_565 S
C152 C153 1.391 . S
C153 H120 0.931 . S
C153 C148 1.370 1_565 S
C153 C152 1.391 . S
C154 N128 1.435 . S
C154 C155 1.358 1_545 S
C154 C159 1.371 . S
C155 H121 0.930 . S
C155 C154 1.358 1_565 S
C155 C156 1.405 . S
C156 H122 0.932 . S
C156 C155 1.405 . S
C156 C157 1.383 1_565 S
C157 C156 1.383 1_545 S
C157 C158 1.393 . S
C158 H123 0.931 . S
C158 C157 1.393 . S
C158 C159 1.382 . S
C159 H124 0.929 . S
C159 C154 1.371 . S
C159 C158 1.382 . S
C160 N128 1.423 . S
C160 C161 1.362 . S
C160 C165 1.388 . S
C161 H125 0.929 . S
C161 C160 1.362 . S
C161 C162 1.376 . S
C162 H126 0.931 . S
C162 C161 1.376 . S
C162 C163 1.396 . S
C163 C145 1.472 . S
C163 C162 1.396 . S
C163 C164 1.348 . S
C164 H127 0.929 1_545 S
C164 C163 1.348 . S
C164 C165 1.443 . S
C165 H129 0.932 1_545 S
C165 C160 1.388 . S
C165 C164 1.443 . S
H166 C193 0.929 . S
N167 C192 1.433 . S
N167 C198 1.435 . S
N167 C204 1.423 . S
H168 C194 0.930 . S
H169 C197 0.931 . S
H170 C196 0.929 . S
H171 C199 0.930 . S
H172 C200 0.932 . S
H173 C203 0.929 . S
H174 C202 0.931 . S
H175 C205 0.929 . S
H176 C209 0.932 . S
H177 C206 0.931 . S
H178 C208 0.929 . S
H179 C211 0.929 . S
H180 C212 0.930 . S
H181 C214 0.929 . S
H182 C215 0.931 . S
H183 C217 0.930 . S
H184 C218 0.932 . S
H185 C220 0.931 . S
H186 C221 0.929 . S
H187 C223 0.929 . S
H188 C224 0.931 . S
H189 C226 0.929 . S
N190 C210 1.433 . S
N190 C216 1.435 . S
N190 C222 1.423 . S
H191 C227 0.932 . S
C192 N167 1.433 . S
C192 C193 1.363 . S
C192 C197 1.370 . S
C193 H166 0.929 . S
C193 C192 1.363 . S
C193 C194 1.385 . S
C194 H168 0.930 . S
C194 C193 1.385 . S
C194 C195 1.357 . S
C195 C194 1.357 . S
C195 C196 1.406 . S
C196 H170 0.929 . S
C196 C195 1.406 . S
C196 C197 1.391 . S
C197 H169 0.931 . S
C197 C192 1.370 . S
C197 C196 1.391 . S
C198 N167 1.435 . S
C198 C199 1.358 . S
C198 C203 1.371 . S
C199 H171 0.930 . S
C199 C198 1.358 . S
C199 C200 1.405 . S
C200 H172 0.932 . S
C200 C199 1.405 . S
C200 C201 1.383 . S
C201 C200 1.383 . S
C201 C202 1.393 . S
C202 H174 0.931 . S
C202 C201 1.393 . S
C202 C203 1.382 . S
C203 H173 0.929 . S
C203 C198 1.371 . S
C203 C202 1.382 . S
C204 N167 1.423 . S
C204 C205 1.362 . S
C204 C209 1.388 . S
C205 H175 0.929 . S
C205 C204 1.362 . S
C205 C206 1.376 . S
C206 H177 0.931 . S
C206 C205 1.376 . S
C206 C207 1.396 . S
C207 C206 1.396 . S
C207 C208 1.348 . S
C207 C225 1.472 . S
C208 H178 0.929 . S
C208 C207 1.348 . S
C208 C209 1.443 . S
C209 H176 0.932 . S
C209 C204 1.388 . S
C209 C208 1.443 . S
C210 N190 1.433 . S
C210 C211 1.363 . S
C210 C215 1.370 . S
C211 H179 0.929 . S
C211 C210 1.363 . S
C211 C212 1.385 . S
C212 H180 0.930 . S
C212 C211 1.385 . S
C212 C213 1.357 . S
C213 C212 1.357 . S
C213 C214 1.406 . S
C214 H181 0.929 . S
C214 C213 1.406 . S
C214 C215 1.391 . S
C215 H182 0.931 . S
C215 C210 1.370 . S
C215 C214 1.391 . S
C216 N190 1.435 . S
C216 C217 1.358 . S
C216 C221 1.371 . S
C217 H183 0.930 . S
C217 C216 1.358 . S
C217 C218 1.405 . S
C218 H184 0.932 . S
C218 C217 1.405 . S
C218 C219 1.383 . S
C219 C218 1.383 . S
C219 C220 1.393 . S
C220 H185 0.931 . S
C220 C219 1.393 . S
C220 C221 1.382 . S
C221 H186 0.929 . S
C221 C216 1.371 . S
C221 C220 1.382 . S
C222 N190 1.423 . S
C222 C223 1.362 . S
C222 C227 1.388 . S
C223 H187 0.929 . S
C223 C222 1.362 . S
C223 C224 1.376 . S
C224 H188 0.931 . S
C224 C223 1.376 . S
C224 C225 1.396 . S
C225 C207 1.472 . S
C225 C224 1.396 . S
C225 C226 1.348 . S
C226 H189 0.929 . S
C226 C225 1.348 . S
C226 C227 1.443 . S
C227 H191 0.932 . S
C227 C222 1.388 . S
C227 C226 1.443 . S
C228 C229 1.349 1_655 S
C228 C230 1.327 . S
C228 H253 0.950 . S
C229 C228 1.349 1_455 S
C229 C245 1.349 . S
C230 C228 1.327 . S
C230 C249 1.413 1_655 S
C230 H254 0.950 . S
C231 C248 1.574 . S
C231 C250 1.385 . S
C231 H255 0.949 . S
H232 C236 0.949 . S
C233 C234 1.351 . S
C233 C235 1.327 . S
C233 H256 0.950 . S
C234 C233 1.351 . S
C234 C246 1.348 1_455 S
C235 C233 1.327 . S
C235 C251 1.434 . S
C235 H257 0.950 . S
C236 H232 0.949 . S
C236 C244 1.574 . S
C236 C252 1.358 1_655 S
H237 C245 0.950 . S
H238 C243 0.950 . S
H239 C244 0.949 . S
H240 C246 0.950 . S
H241 C247 0.950 . S
H242 C248 0.949 . S
C243 H238 0.950 . S
C243 C245 1.327 . S
C243 C249 1.457 . S
C244 C236 1.574 . S
C244 H239 0.949 . S
C244 C250 1.345 1_655 S
C245 C229 1.349 . S
C245 H237 0.950 . S
C245 C243 1.327 . S
C246 C234 1.348 1_655 S
C246 H240 0.950 . S
C246 C247 1.327 . S
C247 H241 0.950 . S
C247 C246 1.327 . S
C247 C251 1.418 1_655 S
C248 C231 1.574 . S
C248 H242 0.949 . S
C248 C252 1.384 . S
C249 C230 1.413 1_455 S
C249 C243 1.457 . S
C249 C250 1.521 . S
C250 C231 1.385 . S
C250 C244 1.345 1_455 S
C250 C249 1.521 . S
C251 C235 1.434 . S
C251 C247 1.418 1_455 S
C251 C252 1.521 . S
C252 C236 1.358 1_455 S
C252 C248 1.384 . S
C252 C251 1.521 . S
H253 C228 0.950 . S
H254 C230 0.950 . S
H255 C231 0.949 . S
H256 C233 0.950 . S
H257 C235 0.950 . S
C258 C259 1.349 . S
C258 C260 1.327 . S
C258 H283 0.950 . S
C259 C258 1.349 . S
C259 C275 1.349 1_545 S
C260 C258 1.327 . S
C260 C279 1.429 . S
C260 H284 0.950 . S
C261 C278 1.574 . S
C261 C280 1.368 1_565 S
C261 H285 0.949 . S
H262 C266 0.949 . S
C263 C264 1.342 1_565 S
C263 C265 1.327 . S
C263 H286 0.950 . S
C264 C263 1.342 1_545 S
C264 C276 1.353 . S
C265 C263 1.327 . S
C265 C281 1.410 1_565 S
C265 H287 0.950 . S
C266 H262 0.949 . S
C266 C274 1.574 . S
C266 C282 1.368 . S
H267 C275 0.950 . S
H268 C273 0.950 . S
H269 C274 0.949 . S
H270 C276 0.950 . S
H271 C277 0.950 . S
H272 C278 0.949 . S
C273 H268 0.950 . S
C273 C275 1.327 . S
C273 C279 1.429 1_565 S
C274 C266 1.574 . S
C274 H269 0.949 . S
C274 C280 1.368 . S
C275 C259 1.349 1_565 S
C275 H267 0.950 . S
C275 C273 1.327 . S
C276 C264 1.353 . S
C276 H270 0.950 . S
C276 C277 1.327 . S
C277 H271 0.950 . S
C277 C276 1.327 . S
C277 C281 1.461 . S
C278 C261 1.574 . S
C278 H272 0.949 . S
C278 C282 1.368 1_565 S
C279 C260 1.429 . S
C279 C273 1.429 1_545 S
C279 C280 1.523 . S
C280 C261 1.368 1_545 S
C280 C274 1.368 . S
C280 C279 1.523 . S
C281 C265 1.410 1_545 S
C281 C277 1.461 . S
C281 C282 1.511 . S
C282 C266 1.368 . S
C282 C278 1.368 1_545 S
C282 C281 1.511 . S
H283 C258 0.950 . S
H284 C260 0.950 . S
H285 C261 0.949 . S
H286 C263 0.950 . S
H287 C265 0.950 . S
C288 C289 1.349 . S
C288 C290 1.327 . S
C288 H313 0.950 . S
C289 C288 1.349 . S
C289 C305 1.349 . S
C290 C288 1.327 . S
C290 C309 1.429 . S
C290 H314 0.950 . S
C291 C308 1.574 . S
C291 C310 1.368 . S
C291 H315 0.949 . S
H292 C296 0.949 . S
C293 C294 1.349 . S
C293 C295 1.327 . S
C293 H316 0.950 . S
C294 C293 1.349 . S
C294 C306 1.349 . S
C295 C293 1.327 . S
C295 C311 1.429 . S
C295 H317 0.950 . S
C296 H292 0.949 . S
C296 C304 1.574 . S
C296 C312 1.368 . S
H297 C305 0.950 . S
H298 C303 0.950 . S
H299 C304 0.949 . S
H300 C306 0.950 . S
H301 C307 0.950 . S
H302 C308 0.949 . S
C303 H298 0.950 . S
C303 C305 1.327 . S
C303 C309 1.429 . S
C304 C296 1.574 . S
C304 H299 0.949 . S
C304 C310 1.368 . S
C305 C289 1.349 . S
C305 H297 0.950 . S
C305 C303 1.327 . S
C306 C294 1.349 . S
C306 H300 0.950 . S
C306 C307 1.327 . S
C307 H301 0.950 . S
C307 C306 1.327 . S
C307 C311 1.429 . S
C308 C291 1.574 . S
C308 H302 0.949 . S
C308 C312 1.368 . S
C309 C290 1.429 . S
C309 C303 1.429 . S
C309 C310 1.523 . S
C310 C291 1.368 . S
C310 C304 1.368 . S
C310 C309 1.523 . S
C311 C295 1.429 . S
C311 C307 1.429 . S
C311 C312 1.523 . S
C312 C296 1.368 . S
C312 C308 1.368 . S
C312 C311 1.523 . S
H313 C288 0.950 . S
H314 C290 0.950 . S
H315 C291 0.949 . S
H316 C293 0.950 . S
H317 C295 0.950 . S
C318 C319 1.323 1_455 S
C318 C320 1.327 . S
C318 H343 0.950 . S
C319 C318 1.323 1_655 S
C319 C335 1.363 . S
C320 C318 1.327 . S
C320 C339 1.420 1_455 S
C320 H344 0.950 . S
C321 C338 1.574 . S
C321 C340 1.377 . S
C321 H345 0.949 . S
H322 C326 0.949 . S
C323 C324 1.351 1_655 S
C323 C325 1.327 . S
C323 H346 0.950 . S
C324 C323 1.351 1_455 S
C324 C336 1.348 . S
C325 C323 1.327 . S
C325 C341 1.430 . S
C325 H347 0.950 . S
C326 H322 0.949 . S
C326 C334 1.574 . S
C326 C342 1.364 1_455 S
H327 C335 0.950 . S
H328 C333 0.950 . S
H329 C334 0.949 . S
H330 C336 0.950 . S
H331 C337 0.950 . S
H332 C338 0.949 . S
C333 H328 0.950 . S
C333 C335 1.327 . S
C333 C339 1.447 . S
C334 C326 1.574 . S
C334 H329 0.949 . S
C334 C340 1.354 1_455 S
C335 C319 1.363 . S
C335 H327 0.950 . S
C335 C333 1.327 . S
C336 C324 1.348 . S
C336 H330 0.950 . S
C336 C337 1.327 . S
C337 H331 0.950 . S
C337 C336 1.327 . S
C337 C341 1.426 1_455 S
C338 C321 1.574 . S
C338 H332 0.949 . S
C338 C342 1.375 . S
C339 C320 1.420 1_655 S
C339 C333 1.447 . S
C339 C340 1.521 . S
C340 C321 1.377 . S
C340 C334 1.354 1_655 S
C340 C339 1.521 . S
C341 C325 1.430 . S
C341 C337 1.426 1_655 S
C341 C342 1.521 . S
C342 C326 1.364 1_655 S
C342 C338 1.375 . S
C342 C341 1.521 . S
H343 C318 0.950 . S
H344 C320 0.950 . S
H345 C321 0.949 . S
H346 C323 0.950 . S
H347 C325 0.950 . S
C348 C349 1.349 1_545 S
C348 C350 1.327 . S
C348 H373 0.950 . S
C349 C348 1.349 1_565 S
C349 C365 1.349 . S
C350 C348 1.327 . S
C350 C369 1.429 1_545 S
C350 H374 0.950 . S
C351 C368 1.574 . S
C351 C370 1.368 . S
C351 H375 0.949 . S
H352 C356 0.949 . S
C353 C354 1.348 . S
C353 C355 1.327 . S
C353 H376 0.950 . S
C354 C353 1.348 . S
C354 C366 1.350 1_565 S
C355 C353 1.327 . S
C355 C371 1.452 . S
C355 H377 0.950 . S
C356 H352 0.949 . S
C356 C364 1.574 . S
C356 C372 1.368 1_545 S
H357 C365 0.950 . S
H358 C363 0.950 . S
H359 C364 0.949 . S
H360 C366 0.950 . S
H361 C367 0.950 . S
H362 C368 0.949 . S
C363 H358 0.950 . S
C363 C365 1.327 . S
C363 C369 1.429 . S
C364 C356 1.574 . S
C364 H359 0.949 . S
C364 C370 1.368 1_545 S
C365 C349 1.349 . S
C365 H357 0.950 . S
C365 C363 1.327 . S
C366 C354 1.350 1_545 S
C366 H360 0.950 . S
C366 C367 1.327 . S
C367 H361 0.950 . S
C367 C366 1.327 . S
C367 C371 1.415 1_545 S
C368 C351 1.574 . S
C368 H362 0.949 . S
C368 C372 1.368 . S
C369 C350 1.429 1_565 S
C369 C363 1.429 . S
C369 C370 1.523 . S
C370 C351 1.368 . S
C370 C364 1.368 1_565 S
C370 C369 1.523 . S
C371 C355 1.452 . S
C371 C367 1.415 1_565 S
C371 C372 1.514 . S
C372 C356 1.368 1_565 S
C372 C368 1.368 . S
C372 C371 1.514 . S
H373 C348 0.950 . S
H374 C350 0.950 . S
H375 C351 0.949 . S
H376 C353 0.950 . S
H377 C355 0.950 . S
C378 C379 1.349 . S
C378 C380 1.327 . S
C378 H403 0.950 . S
C379 C378 1.349 . S
C379 C395 1.349 . S
C380 C378 1.327 . S
C380 C399 1.429 . S
C380 H404 0.950 . S
C381 C398 1.574 . S
C381 C400 1.368 . S
C381 H405 0.949 . S
H382 C386 0.949 . S
C383 C384 1.349 . S
C383 C385 1.327 . S
C383 H406 0.950 . S
C384 C383 1.349 . S
C384 C396 1.349 . S
C385 C383 1.327 . S
C385 C401 1.429 . S
C385 H407 0.950 . S
C386 H382 0.949 . S
C386 C394 1.574 . S
C386 C402 1.368 . S
H387 C395 0.950 . S
H388 C393 0.950 . S
H389 C394 0.949 . S
H390 C396 0.950 . S
H391 C397 0.950 . S
H392 C398 0.949 . S
C393 H388 0.950 . S
C393 C395 1.327 . S
C393 C399 1.429 . S
C394 C386 1.574 . S
C394 H389 0.949 . S
C394 C400 1.368 . S
C395 C379 1.349 . S
C395 H387 0.950 . S
C395 C393 1.327 . S
C396 C384 1.349 . S
C396 H390 0.950 . S
C396 C397 1.327 . S
C397 H391 0.950 . S
C397 C396 1.327 . S
C397 C401 1.429 . S
C398 C381 1.574 . S
C398 H392 0.949 . S
C398 C402 1.368 . S
C399 C380 1.429 . S
C399 C393 1.429 . S
C399 C400 1.523 . S
C400 C381 1.368 . S
C400 C394 1.368 . S
C400 C399 1.523 . S
C401 C385 1.429 . S
C401 C397 1.429 . S
C401 C402 1.523 . S
C402 C386 1.368 . S
C402 C398 1.368 . S
C402 C401 1.523 . S
H403 C378 0.950 . S
H404 C380 0.950 . S
H405 C381 0.949 . S
H406 C383 0.950 . S
H407 C385 0.950 . S
C408 C409 1.349 1_545 S
C408 C410 1.327 . S
C408 H433 0.950 . S
C409 C408 1.349 1_565 S
C409 C425 1.349 . S
C410 C408 1.327 . S
C410 C429 1.429 1_545 S
C410 H434 0.950 . S
C411 C428 1.574 . S
C411 C430 1.368 . S
C411 H435 0.949 . S
H412 C416 0.949 . S
C413 C414 1.355 . S
C413 C415 1.327 . S
C413 H436 0.950 . S
C414 C413 1.355 . S
C414 C426 1.346 1_565 S
C415 C413 1.327 . S
C415 C431 1.429 . S
C415 H437 0.950 . S
C416 H412 0.949 . S
C416 C424 1.574 . S
C416 C432 1.368 1_545 S
H417 C425 0.950 . S
H418 C423 0.950 . S
H419 C424 0.949 . S
H420 C426 0.950 . S
H421 C427 0.950 . S
H422 C428 0.949 . S
C423 H418 0.950 . S
C423 C425 1.327 . S
C423 C429 1.429 . S
C424 C416 1.574 . S
C424 H419 0.949 . S
C424 C430 1.368 1_545 S
C425 C409 1.349 . S
C425 H417 0.950 . S
C425 C423 1.327 . S
C426 C414 1.346 1_545 S
C426 H420 0.950 . S
C426 C427 1.327 . S
C427 H421 0.950 . S
C427 C426 1.327 . S
C427 C431 1.429 1_545 S
C428 C411 1.574 . S
C428 H422 0.949 . S
C428 C432 1.368 . S
C429 C410 1.429 1_565 S
C429 C423 1.429 . S
C429 C430 1.523 . S
C430 C411 1.368 . S
C430 C424 1.368 1_565 S
C430 C429 1.523 . S
C431 C415 1.429 . S
C431 C427 1.429 1_565 S
C431 C432 1.523 . S
C432 C416 1.368 1_565 S
C432 C428 1.368 . S
C432 C431 1.523 . S
H433 C408 0.950 . S
H434 C410 0.950 . S
H435 C411 0.949 . S
H436 C413 0.950 . S
H437 C415 0.950 . S
C438 C439 1.349 . S
C438 C440 1.327 . S
C438 H463 0.950 . S
C439 C438 1.349 . S
C439 C455 1.349 . S
C440 C438 1.327 . S
C440 C459 1.429 . S
C440 H464 0.950 . S
C441 C458 1.574 . S
C441 C460 1.368 . S
C441 H465 0.949 . S
H442 C446 0.949 . S
C443 C444 1.349 . S
C443 C445 1.327 . S
C443 H466 0.950 . S
C444 C443 1.349 . S
C444 C456 1.349 . S
C445 C443 1.327 . S
C445 C461 1.429 . S
C445 H467 0.950 . S
C446 H442 0.949 . S
C446 C454 1.574 . S
C446 C462 1.368 . S
H447 C455 0.950 1_554 S
H448 C453 0.950 . S
H449 C454 0.949 . S
H450 C456 0.950 . S
H451 C457 0.950 . S
H452 C458 0.949 . S
C453 H448 0.950 . S
C453 C455 1.327 . S
C453 C459 1.429 . S
C454 C446 1.574 . S
C454 H449 0.949 . S
C454 C460 1.368 . S
C455 C439 1.349 . S
C455 H447 0.950 1_556 S
C455 C453 1.327 . S
C456 C444 1.349 . S
C456 H450 0.950 . S
C456 C457 1.327 . S
C457 H451 0.950 . S
C457 C456 1.327 . S
C457 C461 1.429 . S
C458 C441 1.574 . S
C458 H452 0.949 . S
C458 C462 1.368 . S
C459 C440 1.429 . S
C459 C453 1.429 . S
C459 C460 1.523 . S
C460 C441 1.368 . S
C460 C454 1.368 . S
C460 C459 1.523 . S
C461 C445 1.429 . S
C461 C457 1.429 . S
C461 C462 1.523 . S
C462 C446 1.368 . S
C462 C458 1.368 . S
C462 C461 1.523 . S
H463 C438 0.950 . S
H464 C440 0.950 . S
H465 C441 0.949 . S
H466 C443 0.950 . S
H467 C445 0.950 . S
C468 C469 1.349 1_655 S
C468 C470 1.327 . S
C468 H493 0.950 . S
C469 C468 1.349 1_455 S
C469 C485 1.349 . S
C470 C468 1.327 . S
C470 C489 1.429 1_655 S
C470 H494 0.950 . S
C471 C488 1.574 . S
C471 C490 1.368 . S
C471 H495 0.949 . S
H472 C476 0.949 . S
C473 C474 1.347 . S
C473 C475 1.327 . S
C473 H496 0.950 . S
C474 C473 1.347 . S
C474 C486 1.347 1_455 S
C475 C473 1.327 . S
C475 C491 1.429 . S
C475 H497 0.950 . S
C476 H472 0.949 . S
C476 C484 1.574 . S
C476 C492 1.368 1_655 S
H477 C485 0.950 . S
H478 C483 0.950 . S
H479 C484 0.949 . S
H480 C486 0.950 . S
H481 C487 0.950 . S
H482 C488 0.949 . S
C483 H478 0.950 . S
C483 C485 1.327 . S
C483 C489 1.429 . S
C484 C476 1.574 . S
C484 H479 0.949 . S
C484 C490 1.368 1_655 S
C485 C469 1.349 . S
C485 H477 0.950 . S
C485 C483 1.327 . S
C486 C474 1.347 1_655 S
C486 H480 0.950 . S
C486 C487 1.327 . S
C487 H481 0.950 . S
C487 C486 1.327 . S
C487 C491 1.429 1_655 S
C488 C471 1.574 . S
C488 H482 0.949 . S
C488 C492 1.368 . S
C489 C470 1.429 1_455 S
C489 C483 1.429 . S
C489 C490 1.523 . S
C490 C471 1.368 . S
C490 C484 1.368 1_455 S
C490 C489 1.523 . S
C491 C475 1.429 . S
C491 C487 1.429 1_455 S
C491 C492 1.523 . S
C492 C476 1.368 1_455 S
C492 C488 1.368 . S
C492 C491 1.523 . S
H493 C468 0.950 . S
H494 C470 0.950 . S
H495 C471 0.949 . S
H496 C473 0.950 . S
H497 C475 0.950 . S
C498 C499 1.349 1_565 S
C498 C500 1.327 . S
C498 H523 0.950 . S
C499 C498 1.349 1_545 S
C499 C515 1.349 . S
C500 C498 1.327 . S
C500 C519 1.429 1_565 S
C500 H524 0.950 . S
C501 C518 1.574 . S
C501 C520 1.368 . S
C501 H525 0.949 . S
H502 C506 0.949 . S
C503 C504 1.361 . S
C503 C505 1.327 . S
C503 H526 0.950 . S
C504 C503 1.361 . S
C504 C516 1.344 1_545 S
C505 C503 1.327 . S
C505 C521 1.429 . S
C505 H527 0.950 . S
C506 H502 0.949 . S
C506 C514 1.574 . S
C506 C522 1.368 1_565 S
H507 C515 0.950 . S
H508 C513 0.950 . S
H509 C514 0.949 . S
H510 C516 0.950 . S
H511 C517 0.950 . S
H512 C518 0.949 . S
C513 H508 0.950 . S
C513 C515 1.327 . S
C513 C519 1.429 . S
C514 C506 1.574 . S
C514 H509 0.949 . S
C514 C520 1.368 1_565 S
C515 C499 1.349 . S
C515 H507 0.950 . S
C515 C513 1.327 . S
C516 C504 1.344 1_565 S
C516 H510 0.950 . S
C516 C517 1.327 . S
C517 H511 0.950 . S
C517 C516 1.327 . S
C517 C521 1.429 1_565 S
C518 C501 1.574 . S
C518 H512 0.949 . S
C518 C522 1.368 . S
C519 C500 1.429 1_545 S
C519 C513 1.429 . S
C519 C520 1.523 . S
C520 C501 1.368 . S
C520 C514 1.368 1_545 S
C520 C519 1.523 . S
C521 C505 1.429 . S
C521 C517 1.429 1_545 S
C521 C522 1.523 . S
C522 C506 1.368 1_545 S
C522 C518 1.368 . S
C522 C521 1.523 . S
H523 C498 0.950 . S
H524 C500 0.950 . S
H525 C501 0.949 . S
H526 C503 0.950 . S
H527 C505 0.950 . S
C528 C529 1.349 . S
C528 C530 1.327 . S
C528 H553 0.950 . S
C529 C528 1.349 . S
C529 C545 1.349 1_556 S
C530 C528 1.327 . S
C530 C549 1.429 . S
C530 H554 0.950 . S
C531 C548 1.574 . S
C531 C550 1.368 . S
C531 H555 0.949 . S
H532 C536 0.949 . S
C533 C534 1.349 . S
C533 C535 1.327 . S
C533 H556 0.950 . S
C534 C533 1.349 . S
C534 C546 1.349 . S
C535 C533 1.327 . S
C535 C551 1.429 . S
C535 H557 0.950 . S
C536 H532 0.949 . S
C536 C544 1.574 . S
C536 C552 1.368 . S
H537 C545 0.950 . S
H538 C543 0.950 1_554 S
H539 C544 0.949 . S
H540 C546 0.950 . S
H541 C547 0.950 . S
H542 C548 0.949 . S
C543 H538 0.950 1_556 S
C543 C545 1.327 1_556 S
C543 C549 1.429 . S
C544 C536 1.574 . S
C544 H539 0.949 . S
C544 C550 1.368 . S
C545 C529 1.349 1_554 S
C545 H537 0.950 . S
C545 C543 1.327 1_554 S
C546 C534 1.349 . S
C546 H540 0.950 . S
C546 C547 1.327 . S
C547 H541 0.950 . S
C547 C546 1.327 . S
C547 C551 1.429 . S
C548 C531 1.574 . S
C548 H542 0.949 . S
C548 C552 1.368 . S
C549 C530 1.429 . S
C549 C543 1.429 . S
C549 C550 1.523 . S
C550 C531 1.368 . S
C550 C544 1.368 . S
C550 C549 1.523 . S
C551 C535 1.429 . S
C551 C547 1.429 . S
C551 C552 1.523 . S
C552 C536 1.368 . S
C552 C548 1.368 . S
C552 C551 1.523 . S
H553 C528 0.950 . S
H554 C530 0.950 . S
H555 C531 0.949 . S
H556 C533 0.950 . S
H557 C535 0.950 . S
C558 C559 1.349 1_455 S
C558 C560 1.327 . S
C558 H583 0.950 . S
C559 C558 1.349 1_655 S
C559 C575 1.349 . S
C560 C558 1.327 . S
C560 C579 1.429 1_455 S
C560 H584 0.950 . S
C561 C578 1.574 . S
C561 C580 1.368 . S
C561 H585 0.949 . S
H562 C566 0.949 . S
C563 C564 1.350 . S
C563 C565 1.327 . S
C563 H586 0.950 . S
C564 C563 1.350 . S
C564 C576 1.346 1_655 S
C565 C563 1.327 . S
C565 C581 1.429 . S
C565 H587 0.950 . S
C566 H562 0.949 . S
C566 C574 1.574 . S
C566 C582 1.368 1_455 S
H567 C575 0.950 . S
H568 C573 0.950 . S
H569 C574 0.949 . S
H570 C576 0.950 . S
H571 C577 0.950 . S
H572 C578 0.949 . S
C573 H568 0.950 . S
C573 C575 1.327 . S
C573 C579 1.429 . S
C574 C566 1.574 . S
C574 H569 0.949 . S
C574 C580 1.368 1_455 S
C575 C559 1.349 . S
C575 H567 0.950 . S
C575 C573 1.327 . S
C576 C564 1.346 1_455 S
C576 H570 0.950 . S
C576 C577 1.327 . S
C577 H571 0.950 . S
C577 C576 1.327 . S
C577 C581 1.429 1_455 S
C578 C561 1.574 . S
C578 H572 0.949 . S
C578 C582 1.368 . S
C579 C560 1.429 1_655 S
C579 C573 1.429 . S
C579 C580 1.523 . S
C580 C561 1.368 . S
C580 C574 1.368 1_655 S
C580 C579 1.523 . S
C581 C565 1.429 . S
C581 C577 1.429 1_655 S
C581 C582 1.523 . S
C582 C566 1.368 1_655 S
C582 C578 1.368 . S
C582 C581 1.523 . S
H583 C558 0.950 . S
H584 C560 0.950 . S
H585 C561 0.949 . S
H586 C563 0.950 . S
H587 C565 0.950 . S
C234 C95 1.337 1_455 S
C229 C6 1.331 1_455 S
C259 C22 1.536 . S
C264 C139 1.552 . S
C289 C34 1.090 . S
C294 C201 1.100 . S
C319 C7 1.341 1_655 S
C324 C77 1.340 1_455 S
C354 C157 1.547 1_565 S
C349 C23 1.533 . S
C379 C35 1.090 . S
C384 C219 1.095 . S
C414 C133 1.760 1_565 S
C409 C36 1.838 . S
C439 C9 2.120 1_556 S
C444 C195 2.047 . S
C474 C71 1.629 1_455 S
C469 C21 1.700 1_455 S
C504 C151 1.757 . S
C499 C37 1.832 . S
C534 C213 2.044 . S
C529 C8 2.117 1_556 S
C559 C20 1.697 1_655 S
C564 C89 1.623 . S
