# Generated by pormake.
# Topology hwx, (6,3)-cn, num edge types: 1
# Building blocks:
#     Node 0, Type 0, BuildingBlock: OJICUG_clean_sbu_0, # of connection points: 6
#     Node 1, Type 0, BuildingBlock: OJICUG_clean_sbu_0, # of connection points: 6
#     Node 2, Type 0, BuildingBlock: OJICUG_clean_sbu_0, # of connection points: 6
#     Node 3, Type 0, BuildingBlock: OJICUG_clean_sbu_0, # of connection points: 6
#     Node 4, Type 1, BuildingBlock: PAMTOO_clean_linker_0, # of connection points: 3
#     Node 5, Type 1, BuildingBlock: PAMTOO_clean_linker_0, # of connection points: 3
#     Node 6, Type 1, BuildingBlock: PAMTOO_clean_linker_0, # of connection points: 3
#     Node 7, Type 1, BuildingBlock: PAMTOO_clean_linker_0, # of connection points: 3
#     Node 8, Type 1, BuildingBlock: PAMTOO_clean_linker_0, # of connection points: 3
#     Node 9, Type 1, BuildingBlock: PAMTOO_clean_linker_0, # of connection points: 3
#     Node 10, Type 1, BuildingBlock: PAMTOO_clean_linker_0, # of connection points: 3
#     Node 11, Type 1, BuildingBlock: PAMTOO_clean_linker_0, # of connection points: 3
#     Edge 12, Type (0, 1), BuildingBlock: CIFDUS_clean_linker_0, # of connection points: 2
#     Edge 13, Type (0, 1), BuildingBlock: CIFDUS_clean_linker_0, # of connection points: 2
#     Edge 14, Type (0, 1), BuildingBlock: CIFDUS_clean_linker_0, # of connection points: 2
#     Edge 15, Type (0, 1), BuildingBlock: CIFDUS_clean_linker_0, # of connection points: 2
#     Edge 16, Type (0, 1), BuildingBlock: CIFDUS_clean_linker_0, # of connection points: 2
#     Edge 17, Type (0, 1), BuildingBlock: CIFDUS_clean_linker_0, # of connection points: 2
#     Edge 18, Type (0, 1), BuildingBlock: CIFDUS_clean_linker_0, # of connection points: 2
#     Edge 19, Type (0, 1), BuildingBlock: CIFDUS_clean_linker_0, # of connection points: 2
#     Edge 20, Type (0, 1), BuildingBlock: CIFDUS_clean_linker_0, # of connection points: 2
#     Edge 21, Type (0, 1), BuildingBlock: CIFDUS_clean_linker_0, # of connection points: 2
#     Edge 22, Type (0, 1), BuildingBlock: CIFDUS_clean_linker_0, # of connection points: 2
#     Edge 23, Type (0, 1), BuildingBlock: CIFDUS_clean_linker_0, # of connection points: 2
#     Edge 24, Type (0, 1), BuildingBlock: CIFDUS_clean_linker_0, # of connection points: 2
#     Edge 25, Type (0, 1), BuildingBlock: CIFDUS_clean_linker_0, # of connection points: 2
#     Edge 26, Type (0, 1), BuildingBlock: CIFDUS_clean_linker_0, # of connection points: 2
#     Edge 27, Type (0, 1), BuildingBlock: CIFDUS_clean_linker_0, # of connection points: 2
#     Edge 28, Type (0, 1), BuildingBlock: CIFDUS_clean_linker_0, # of connection points: 2
#     Edge 29, Type (0, 1), BuildingBlock: CIFDUS_clean_linker_0, # of connection points: 2
#     Edge 30, Type (0, 1), BuildingBlock: CIFDUS_clean_linker_0, # of connection points: 2
#     Edge 31, Type (0, 1), BuildingBlock: CIFDUS_clean_linker_0, # of connection points: 2
#     Edge 32, Type (0, 1), BuildingBlock: CIFDUS_clean_linker_0, # of connection points: 2
#     Edge 33, Type (0, 1), BuildingBlock: CIFDUS_clean_linker_0, # of connection points: 2
#     Edge 34, Type (0, 1), BuildingBlock: CIFDUS_clean_linker_0, # of connection points: 2
#     Edge 35, Type (0, 1), BuildingBlock: CIFDUS_clean_linker_0, # of connection points: 2
# Relax obj value: 0.008
# Max RMSD: 0.045
# Mean RMSD: 0.042
data_MOF--net-hwx--node1-OJICUG_clean_sbu_0--node2-PAMTOO_clean_linker_0--edge1-CIFDUS_clean_linker_0
_symmetry_space_group_name_H-M    P1
_symmetry_Int_Tables_number       1
_symmetry_cell_setting            triclinic
loop_
_symmetry_equiv_pos_as_xyz
'x, y, z'
_cell_length_a     46.293307
_cell_length_b     46.209832
_cell_length_c     17.875874
_cell_angle_alpha  88.496612
_cell_angle_beta   91.651586
_cell_angle_gamma 89.909421
loop_
_atom_site_label
_atom_site_type_symbol
_atom_site_fract_x
_atom_site_fract_y
_atom_site_fract_z
_atom_type_partial_charge
Sc0 Sc 0.23196 0.23613 0.10571 0.0
Sc1 Sc 0.18026 0.19437 0.00848 0.0
Sc2 Sc 0.23491 0.23094 0.91056 0.0
O3 O 0.21565 0.22043 0.00829 0.0
C4 C 0.23612 0.29106 0.993 0.0
C5 C 0.16393 0.24195 0.12752 0.0
C6 C 0.16827 0.23028 0.85808 0.0
C7 C 0.21401 0.17205 0.15594 0.0
C8 C 0.28994 0.22321 0.0222 0.0
C9 C 0.2217 0.16384 0.89224 0.0
O10 O 0.23762 0.27872 0.0574 0.0
O11 O 0.15716 0.22159 0.08369 0.0
O12 O 0.19483 0.23527 0.84774 0.0
O13 O 0.22735 0.19566 0.16618 0.0
O14 O 0.2779 0.22715 0.95805 0.0
O15 O 0.19966 0.16436 0.93339 0.0
O16 O 0.27593 0.2239 0.08234 0.0
O17 O 0.197 0.16776 0.10045 0.0
O18 O 0.23769 0.1859 0.8812 0.0
O19 O 0.18992 0.24998 0.13917 0.0
O20 O 0.23358 0.27698 0.93271 0.0
O21 O 0.15905 0.21761 0.91646 0.0
Sc22 Sc 0.2722 0.73035 0.43368 0.0
Sc23 Sc 0.3185 0.68099 0.53424 0.0
Sc24 Sc 0.27867 0.73225 0.63017 0.0
O25 O 0.28965 0.71443 0.53255 0.0
C26 C 0.28276 0.7885 0.5236 0.0
C27 C 0.33832 0.71925 0.39406 0.0
C28 C 0.34636 0.72253 0.65623 0.0
C29 C 0.27282 0.66172 0.40787 0.0
C30 C 0.21794 0.73167 0.54096 0.0
C31 C 0.28221 0.6652 0.67699 0.0
O32 O 0.27956 0.77548 0.46194 0.0
O33 O 0.34303 0.70062 0.44649 0.0
O34 O 0.32302 0.73608 0.66714 0.0
O35 O 0.26268 0.68704 0.39356 0.0
O36 O 0.23313 0.73091 0.60153 0.0
O37 O 0.29724 0.65754 0.62263 0.0
O38 O 0.22901 0.73182 0.47652 0.0
O39 O 0.293 0.65687 0.45616 0.0
O40 O 0.27474 0.69118 0.68736 0.0
O41 O 0.31383 0.73132 0.38176 0.0
O42 O 0.28221 0.77544 0.58673 0.0
O43 O 0.3478 0.70134 0.61261 0.0
Sc44 Sc 0.76417 0.77265 0.87965 0.0
Sc45 Sc 0.81405 0.81321 0.98617 0.0
Sc46 Sc 0.76805 0.76288 0.07476 0.0
O47 O 0.78217 0.78291 0.98027 0.0
C48 C 0.70875 0.77099 0.98281 0.0
C49 C 0.7699 0.84061 0.86136 0.0
C50 C 0.77595 0.82852 0.12556 0.0
C51 C 0.83083 0.78129 0.83954 0.0
C52 C 0.77093 0.71085 0.95982 0.0
C53 C 0.83584 0.7661 0.10999 0.0
O54 O 0.72068 0.771 0.91972 0.0
O55 O 0.79201 0.84221 0.90531 0.0
O56 O 0.76598 0.803 0.13371 0.0
O57 O 0.80493 0.77392 0.82419 0.0
O58 O 0.76891 0.72063 0.02544 0.0
O59 O 0.84005 0.788 0.06703 0.0
O60 O 0.77055 0.72711 0.90128 0.0
O61 O 0.83838 0.7939 0.89924 0.0
O62 O 0.81119 0.75443 0.1166 0.0
O63 O 0.75646 0.81711 0.85011 0.0
O64 O 0.72316 0.76922 0.04427 0.0
O65 O 0.79305 0.83567 0.07379 0.0
Sc66 Sc 0.72858 0.27585 0.58417 0.0
Sc67 Sc 0.67694 0.31646 0.47489 0.0
Sc68 Sc 0.7281 0.27323 0.38807 0.0
O69 O 0.71116 0.28847 0.48259 0.0
C70 C 0.78485 0.2858 0.48572 0.0
C71 C 0.71618 0.3433 0.60481 0.0
C72 C 0.7145 0.33916 0.34003 0.0
C73 C 0.66045 0.27598 0.61439 0.0
C74 C 0.73262 0.21704 0.49642 0.0
C75 C 0.66051 0.2699 0.35207 0.0
O76 O 0.77286 0.2828 0.54885 0.0
O77 O 0.69635 0.34548 0.55429 0.0
O78 O 0.72716 0.31507 0.33231 0.0
O79 O 0.68618 0.26746 0.63046 0.0
O80 O 0.73222 0.22964 0.43235 0.0
O81 O 0.65368 0.29029 0.39474 0.0
O82 O 0.73061 0.23075 0.55679 0.0
O83 O 0.65445 0.29359 0.56055 0.0
O84 O 0.68638 0.2616 0.34439 0.0
O85 O 0.72918 0.31967 0.62171 0.0
O86 O 0.77114 0.28333 0.42377 0.0
O87 O 0.69559 0.34299 0.38872 0.0
H88 H 0.21831 0.58946 0.0341 0.0
H89 H 0.22836 0.50759 0.92888 0.0
H90 H 0.21425 0.51036 0.16531 0.0
H91 H 0.25847 0.46746 0.1108 0.0
C92 C 0.24722 0.46187 0.05724 0.0
O93 O 0.22113 0.47636 0.05069 0.0
H94 H 0.26141 0.46873 0.01077 0.0
C95 C 0.21822 0.56599 0.03743 0.0
C96 C 0.21499 0.55203 0.1071 0.0
C97 C 0.22421 0.55038 0.97343 0.0
C98 C 0.22378 0.52006 0.97768 0.0
C99 C 0.21979 0.50561 0.04664 0.0
C100 C 0.21597 0.52159 0.11166 0.0
H101 H 0.91964 0.74759 0.47378 0.0
H102 H 0.00336 0.74441 0.37728 0.0
H103 H 0.99652 0.75043 0.6154 0.0
H104 H 0.04618 0.78098 0.55862 0.0
C105 C 0.04912 0.76927 0.50577 0.0
O106 O 0.03211 0.74481 0.5057 0.0
H107 H 0.04252 0.7842 0.45834 0.0
C108 C 0.94295 0.74749 0.48103 0.0
C109 C 0.95563 0.74992 0.55302 0.0
C110 C 0.95981 0.74609 0.41732 0.0
C111 C 0.98999 0.74549 0.42591 0.0
C112 C 0.00303 0.74625 0.49762 0.0
C113 C 0.98596 0.7487 0.56087 0.0
H114 H 0.77483 0.41239 0.96604 0.0
H115 H 0.77307 0.4903 0.09212 0.0
H116 H 0.77447 0.49537 0.85148 0.0
H117 H 0.81365 0.537 0.92807 0.0
C118 C 0.80119 0.54016 0.97958 0.0
O119 O 0.77545 0.5253 0.9746 0.0
H120 H 0.81455 0.53168 0.02818 0.0
C121 C 0.77548 0.43584 0.96788 0.0
C122 C 0.7752 0.45218 0.90087 0.0
C123 C 0.77439 0.44929 0.03692 0.0
C124 C 0.77396 0.47959 0.03902 0.0
C125 C 0.77481 0.49616 0.97221 0.0
C126 C 0.77477 0.48248 0.903 0.0
H127 H 0.08184 0.27037 0.47256 0.0
H128 H 0.00545 0.2682 0.60464 0.0
H129 H 0.9978 0.27776 0.36551 0.0
H130 H 0.96105 0.31938 0.46177 0.0
C131 C 0.95704 0.30328 0.5077 0.0
O132 O 0.96973 0.27721 0.4917 0.0
H133 H 0.96676 0.31185 0.56032 0.0
C134 C 0.05857 0.27123 0.47674 0.0
C135 C 0.04154 0.27372 0.41069 0.0
C136 C 0.04608 0.26855 0.54733 0.0
C137 C 0.01587 0.27033 0.55133 0.0
C138 C 0.99865 0.27459 0.48619 0.0
C139 C 0.01137 0.27562 0.41576 0.0
H140 H 0.76467 0.92147 0.49169 0.0
H141 H 0.75832 0.00566 0.58626 0.0
H142 H 0.75716 0.99747 0.34731 0.0
H143 H 0.79166 0.0463 0.40489 0.0
C144 C 0.77865 0.05151 0.45422 0.0
O145 O 0.75485 0.03371 0.45699 0.0
H146 H 0.79262 0.048 0.50542 0.0
C147 C 0.76206 0.9447 0.48386 0.0
C148 C 0.7608 0.95709 0.41127 0.0
C149 C 0.76118 0.96199 0.547 0.0
C150 C 0.75899 0.99208 0.53782 0.0
C151 C 0.75745 0.00473 0.46571 0.0
C152 C 0.7584 0.98734 0.40266 0.0
H153 H 0.58446 0.22726 0.00094 0.0
H154 H 0.49845 0.22737 0.08522 0.0
H155 H 0.51147 0.21517 0.8508 0.0
H156 H 0.46523 0.18138 0.01908 0.0
C157 C 0.45834 0.19229 0.96516 0.0
O158 O 0.47286 0.21812 0.95577 0.0
H159 H 0.46364 0.1776 0.91914 0.0
C160 C 0.56139 0.22439 0.99169 0.0
C161 C 0.55047 0.22031 0.91891 0.0
C162 C 0.54292 0.22703 0.05191 0.0
C163 C 0.513 0.22514 0.0393 0.0
C164 C 0.50175 0.22014 0.96714 0.0
C165 C 0.5204 0.21812 0.90676 0.0
H166 H 0.25455 0.08703 0.53088 0.0
H167 H 0.24987 0.00752 0.41053 0.0
H168 H 0.26912 0.00566 0.64747 0.0
H169 H 0.3068 0.96648 0.54725 0.0
C170 C 0.28945 0.96193 0.50479 0.0
O171 O 0.2639 0.97433 0.52604 0.0
H172 H 0.29615 0.97157 0.45027 0.0
C173 C 0.25581 0.0636 0.5298 0.0
C174 C 0.26187 0.04817 0.59679 0.0
C175 C 0.25093 0.04934 0.46226 0.0
C176 C 0.25345 0.01907 0.46193 0.0
C177 C 0.26064 1.00339 0.52816 0.0
C178 C 0.26431 0.01788 0.59606 0.0
H179 H 0.41333 0.78119 0.01648 0.0
H180 H 0.49762 0.77819 0.92224 0.0
H181 H 0.48902 0.77518 0.16135 0.0
H182 H 0.53686 0.8122 0.11182 0.0
C183 C 0.54191 0.80151 0.05866 0.0
O184 O 0.52572 0.77664 0.05206 0.0
H185 H 0.53639 0.81701 0.01163 0.0
C186 C 0.43668 0.78101 0.02405 0.0
C187 C 0.44897 0.77874 0.09641 0.0
C188 C 0.45393 0.78058 0.96108 0.0
C189 C 0.48405 0.77879 0.97056 0.0
C190 C 0.49668 0.77765 0.04291 0.0
C191 C 0.47914 0.77703 0.10573 0.0
H192 H 0.1073 0.22559 0.13972 0.0
H193 H 0.16883 0.28991 0.21292 0.0
H194 H 0.1338 0.30896 0.29782 0.0
H195 H 0.08842 0.3033 0.3635 0.0
H196 H 0.0277 0.23763 0.29659 0.0
H197 H 0.05911 0.22395 0.19536 0.0
C198 C 0.11292 0.24406 0.17333 0.0
C199 C 0.14097 0.25585 0.17077 0.0
C200 C 0.09273 0.25476 0.22323 0.0
C201 C 0.14767 0.27998 0.21444 0.0
C202 C 0.12759 0.291 0.26306 0.0
C203 C 0.08181 0.28641 0.32563 0.0
C204 C 0.05598 0.27127 0.33796 0.0
C205 C 0.10047 0.27795 0.2697 0.0
C206 C 0.04742 0.2497 0.28805 0.0
C207 C 0.06559 0.24162 0.2308 0.0
H208 H 0.25134 0.61512 0.66652 0.0
H209 H 0.29956 0.66837 0.82016 0.0
H210 H 0.28808 0.63556 0.92414 0.0
H211 H 0.26265 0.59374 0.97204 0.0
H212 H 0.20987 0.54216 0.82438 0.0
H213 H 0.22538 0.57177 0.71654 0.0
C214 C 0.25941 0.61919 0.72283 0.0
C215 C 0.27617 0.64393 0.73649 0.0
C216 C 0.2519 0.60067 0.7829 0.0
C217 C 0.28649 0.64942 0.80916 0.0
C218 C 0.27997 0.63072 0.86836 0.0
C219 C 0.25418 0.58912 0.9164 0.0
C220 C 0.23456 0.5663 0.90632 0.0
C221 C 0.26232 0.60665 0.85601 0.0
C222 C 0.22482 0.55981 0.83352 0.0
C223 C 0.23357 0.5768 0.77208 0.0
H224 H 0.89019 0.78866 0.13027 0.0
H225 H 0.83595 0.71733 0.19935 0.0
H226 H 0.87224 0.70199 0.29305 0.0
H227 H 0.91612 0.71251 0.36675 0.0
H228 H 0.96991 0.78442 0.30245 0.0
H229 H 0.93759 0.7953 0.19433 0.0
C230 C 0.88648 0.7695 0.16497 0.0
C231 C 0.86001 0.75461 0.15859 0.0
C232 C 0.90741 0.76086 0.21977 0.0
C233 C 0.85582 0.72961 0.20366 0.0
C234 C 0.87661 0.72072 0.25737 0.0
C235 C 0.92106 0.73014 0.32795 0.0
C236 C 0.9451 0.74782 0.34265 0.0
C237 C 0.90199 0.73673 0.26759 0.0
C238 C 0.95155 0.77045 0.29191 0.0
C239 C 0.93289 0.77687 0.23067 0.0
H240 H 0.76801 0.35358 0.6721 0.0
H241 H 0.68385 0.3917 0.62865 0.0
H242 H 0.69697 0.43249 0.70729 0.0
H243 H 0.73023 0.45373 0.80139 0.0
H244 H 0.81349 0.41431 0.8469 0.0
H245 H 0.80325 0.37795 0.75286 0.0
C246 C 0.75258 0.3709 0.67947 0.0
C247 C 0.7248 0.36934 0.64607 0.0
C248 C 0.76025 0.39414 0.72462 0.0
C249 C 0.70529 0.39228 0.65448 0.0
C250 C 0.71278 0.4156 0.6994 0.0
C251 C 0.74644 0.43777 0.78847 0.0
C252 C 0.77258 0.43658 0.83025 0.0
C253 C 0.73993 0.41635 0.73633 0.0
C254 C 0.79334 0.41559 0.81461 0.0
C255 C 0.78734 0.39467 0.76163 0.0
H256 H 0.60588 0.28919 0.3156 0.0
H257 H 0.66389 0.21695 0.29078 0.0
H258 H 0.62928 0.19444 0.2058 0.0
H259 H 0.586 0.1984 0.12547 0.0
H260 H 0.5291 0.27166 0.14169 0.0
H261 H 0.55915 0.29014 0.24502 0.0
C262 C 0.61071 0.26834 0.29244 0.0
C263 C 0.63769 0.25512 0.30816 0.0
C264 C 0.59087 0.25565 0.24221 0.0
C265 C 0.64356 0.22795 0.27824 0.0
C266 C 0.62374 0.21494 0.22988 0.0
C267 C 0.57989 0.21807 0.15294 0.0
C268 C 0.55574 0.23388 0.12589 0.0
C269 C 0.59784 0.22907 0.20954 0.0
C270 C 0.54765 0.25914 0.162 0.0
C271 C 0.56502 0.26987 0.22031 0.0
H272 H 0.27009 0.15065 0.81573 0.0
H273 H 0.18762 0.11575 0.87952 0.0
H274 H 0.19539 0.07361 0.80333 0.0
H275 H 0.22269 0.04977 0.7056 0.0
H276 H 0.30399 0.08558 0.63832 0.0
H277 H 0.30002 0.12375 0.7299 0.0
C278 C 0.25392 0.13372 0.81366 0.0
C279 C 0.22808 0.13675 0.85251 0.0
C280 C 0.25842 0.10952 0.76925 0.0
C281 C 0.20761 0.11426 0.84985 0.0
C282 C 0.21202 0.09007 0.80618 0.0
C283 C 0.23999 0.06532 0.71329 0.0
C284 C 0.26377 0.06477 0.66633 0.0
C285 C 0.23697 0.08782 0.76409 0.0
C286 C 0.28575 0.08543 0.67496 0.0
C287 C 0.28327 0.10744 0.72656 0.0
H288 H 0.34323 0.76794 0.30658 0.0
H289 H 0.3887 0.6897 0.37629 0.0
H290 H 0.42889 0.70318 0.29731 0.0
H291 H 0.44961 0.7355 0.20143 0.0
H292 H 0.4039 0.81328 0.13075 0.0
H293 H 0.36559 0.802 0.21818 0.0
C294 C 0.36191 0.75381 0.30443 0.0
C295 C 0.36274 0.72767 0.34652 0.0
C296 C 0.38504 0.76175 0.25926 0.0
C297 C 0.38738 0.70988 0.34413 0.0
C298 C 0.41043 0.71758 0.29909 0.0
C299 C 0.43163 0.75032 0.20682 0.0
C300 C 0.4295 0.77517 0.1601 0.0
C301 C 0.40937 0.74331 0.25581 0.0
C302 C 0.4059 0.79402 0.16643 0.0
C303 C 0.38393 0.78747 0.2159 0.0
H304 H 0.79997 0.89063 0.83447 0.0
H305 H 0.71895 0.84813 0.78355 0.0
H306 H 0.70731 0.8849 0.68771 0.0
H307 H 0.72327 0.9246 0.60573 0.0
H308 H 0.80412 0.96717 0.65316 0.0
H309 H 0.81256 0.93527 0.76369 0.0
C310 C 0.77949 0.88978 0.8036 0.0
C311 C 0.76071 0.86624 0.81513 0.0
C312 C 0.77301 0.91087 0.74743 0.0
C313 C 0.73413 0.86564 0.77492 0.0
C314 C 0.72739 0.88667 0.71995 0.0
C315 C 0.74235 0.92727 0.6416 0.0
C316 C 0.76315 0.94786 0.62182 0.0
C317 C 0.74716 0.90866 0.70378 0.0
C318 C 0.78783 0.9514 0.66805 0.0
C319 C 0.79272 0.93305 0.73069 0.0
H320 H 0.88418 0.75585 0.85108 0.0
H321 H 0.82491 0.80038 0.69703 0.0
H322 H 0.8595 0.79694 0.59717 0.0
H323 H 0.90583 0.7812 0.55368 0.0
H324 H 0.96318 0.73047 0.70014 0.0
H325 H 0.93067 0.73738 0.80382 0.0
C326 C 0.87902 0.76471 0.7955 0.0
C327 C 0.85216 0.77829 0.78089 0.0
C328 C 0.89869 0.76178 0.73746 0.0
C329 C 0.84542 0.78963 0.70896 0.0
C330 C 0.8652 0.78777 0.65208 0.0
C331 C 0.91112 0.77094 0.60757 0.0
C332 C 0.93684 0.75484 0.61812 0.0
C333 C 0.89175 0.77371 0.66557 0.0
C334 C 0.94368 0.74309 0.68995 0.0
C335 C 0.92494 0.74681 0.74925 0.0
H336 H 0.76431 0.34567 0.26572 0.0
H337 H 0.68391 0.3889 0.30816 0.0
H338 H 0.6975 0.42935 0.2257 0.0
H339 H 0.73043 0.4503 0.13286 0.0
H340 H 0.81003 0.40625 0.0889 0.0
H341 H 0.79891 0.3685 0.18208 0.0
C342 C 0.74972 0.36392 0.2569 0.0
C343 C 0.72291 0.36403 0.29186 0.0
C344 C 0.75769 0.38708 0.20981 0.0
C345 C 0.70457 0.38816 0.28129 0.0
C346 C 0.71234 0.41133 0.2343 0.0
C347 C 0.74564 0.43285 0.14551 0.0
C348 C 0.771 0.43093 0.10473 0.0
C349 C 0.73865 0.41081 0.19738 0.0
C350 C 0.79043 0.40805 0.1202 0.0
C351 C 0.78396 0.3864 0.17281 0.0
H352 H 0.11598 0.25766 0.85807 0.0
H353 H 0.17532 0.21421 0.71685 0.0
H354 H 0.14162 0.2201 0.61016 0.0
H355 H 0.09566 0.23686 0.55789 0.0
H356 H 0.03861 0.28693 0.69155 0.0
H357 H 0.07046 0.27814 0.80126 0.0
C358 C 0.1214 0.24969 0.80368 0.0
C359 C 0.14796 0.23563 0.79472 0.0
C360 C 0.10227 0.25398 0.74179 0.0
C361 C 0.15505 0.22538 0.72439 0.0
C362 C 0.13576 0.22858 0.66364 0.0
C363 C 0.09034 0.24665 0.61019 0.0
C364 C 0.0648 0.26293 0.61551 0.0
C365 C 0.10941 0.24292 0.6717 0.0
C366 C 0.05791 0.27407 0.68541 0.0
C367 C 0.07629 0.26931 0.74818 0.0
H368 H 0.22448 0.65849 0.31531 0.0
H369 H 0.29653 0.60775 0.40514 0.0
H370 H 0.28176 0.56721 0.32947 0.0
H371 H 0.25199 0.54794 0.22672 0.0
H372 H 0.18041 0.59822 0.13461 0.0
H373 H 0.19087 0.63658 0.22316 0.0
C374 C 0.23682 0.63851 0.31875 0.0
C375 C 0.26187 0.63656 0.36519 0.0
C376 C 0.22819 0.61496 0.27483 0.0
C377 C 0.27728 0.61019 0.36961 0.0
C378 C 0.26885 0.58682 0.32631 0.0
C379 C 0.23806 0.56681 0.22797 0.0
C380 C 0.2155 0.57027 0.17428 0.0
C381 C 0.24475 0.58915 0.27747 0.0
C382 C 0.19789 0.5951 0.17563 0.0
C383 C 0.20407 0.61717 0.22568 0.0
H384 H 0.35737 0.77496 0.71467 0.0
H385 H 0.39473 0.6902 0.69066 0.0
H386 H 0.43543 0.70319 0.77322 0.0
H387 H 0.45624 0.7361 0.86679 0.0
H388 H 0.41745 0.81982 0.89405 0.0
H389 H 0.38186 0.81017 0.7941 0.0
C390 C 0.37455 0.75941 0.72695 0.0
C391 C 0.37272 0.73145 0.69807 0.0
C392 C 0.3977 0.76694 0.77472 0.0
C393 C 0.39549 0.71178 0.71289 0.0
C394 C 0.41875 0.71917 0.76014 0.0
C395 C 0.44065 0.75257 0.84861 0.0
C396 C 0.43932 0.77861 0.88709 0.0
C397 C 0.4196 0.74636 0.79324 0.0
C398 C 0.41881 0.79971 0.86448 0.0
C399 C 0.39831 0.79405 0.80811 0.0
H400 H 0.79474 0.88445 0.13294 0.0
H401 H 0.73853 0.82256 0.24062 0.0
H402 H 0.72705 0.85783 0.33423 0.0
H403 H 0.73484 0.90515 0.38964 0.0
H404 H 0.79244 0.96647 0.2858 0.0
H405 H 0.8008 0.93277 0.18544 0.0
C406 C 0.77985 0.87866 0.17658 0.0
C407 C 0.76779 0.85068 0.17986 0.0
C408 C 0.77345 0.899 0.23082 0.0
C409 C 0.74838 0.84377 0.23678 0.0
C410 C 0.74174 0.86396 0.29043 0.0
C411 C 0.74924 0.91116 0.34505 0.0
C412 C 0.76321 0.93818 0.34569 0.0
C413 C 0.75448 0.89145 0.28865 0.0
C414 C 0.78125 0.9459 0.2865 0.0
C415 C 0.78626 0.92652 0.22945 0.0
H416 H 0.66009 0.23216 0.72125 0.0
H417 H 0.60527 0.29671 0.60988 0.0
H418 H 0.56521 0.28223 0.68694 0.0
H419 H 0.54662 0.25442 0.79365 0.0
H420 H 0.60093 0.19037 0.90716 0.0
H421 H 0.63987 0.20104 0.82102 0.0
C422 C 0.63937 0.24297 0.71365 0.0
C423 C 0.63601 0.26575 0.66027 0.0
C424 C 0.61612 0.23453 0.75838 0.0
C425 C 0.60876 0.27922 0.65069 0.0
C426 C 0.58566 0.27095 0.69474 0.0
C427 C 0.56667 0.24222 0.79803 0.0
C428 C 0.57093 0.2217 0.85657 0.0
C429 C 0.58919 0.24897 0.74955 0.0
C430 C 0.59722 0.20635 0.86245 0.0
C431 C 0.61955 0.21258 0.81359 0.0
H432 H 0.24079 0.11976 0.15414 0.0
H433 H 0.1913 0.17562 0.29138 0.0
H434 H 0.19541 0.14056 0.396 0.0
H435 H 0.21511 0.09568 0.44993 0.0
H436 H 0.26936 0.04169 0.31906 0.0
H437 H 0.26055 0.07371 0.20943 0.0
C438 C 0.23082 0.12394 0.20699 0.0
C439 C 0.21582 0.14997 0.21597 0.0
C440 C 0.23402 0.10403 0.26752 0.0
C441 C 0.20302 0.15561 0.28414 0.0
C442 C 0.20533 0.13562 0.34363 0.0
C443 C 0.22526 0.09097 0.39766 0.0
C444 C 0.24327 0.06659 0.39317 0.0
C445 C 0.22117 0.11004 0.33628 0.0
C446 C 0.25533 0.06027 0.32412 0.0
C447 C 0.25053 0.07872 0.2616 0.0
H448 H 0.22975 0.3273 0.1083 0.0
H449 H 0.24446 0.3274 0.87086 0.0
H450 H 0.24805 0.38031 0.8691 0.0
H451 H 0.24882 0.42653 0.93667 0.0
H452 H 0.23401 0.42553 0.17363 0.0
H453 H 0.22843 0.37286 0.17392 0.0
C454 C 0.23379 0.33877 0.05594 0.0
C455 C 0.23715 0.32324 0.98989 0.0
C456 C 0.23583 0.36905 0.0554 0.0
C457 C 0.24188 0.3387 0.92257 0.0
C458 C 0.24398 0.36897 0.92157 0.0
C459 C 0.24433 0.41466 0.98817 0.0
C460 C 0.24236 0.42966 0.05543 0.0
C461 C 0.24127 0.38435 0.98783 0.0
C462 C 0.23601 0.41428 0.12161 0.0
C463 C 0.23285 0.38424 0.12171 0.0
H464 H 0.17839 0.74111 0.42655 0.0
H465 H 0.18561 0.72912 0.66689 0.0
H466 H 0.13408 0.73863 0.67667 0.0
H467 H 0.08726 0.753 0.6178 0.0
H468 H 0.08007 0.76543 0.37835 0.0
H469 H 0.13121 0.75298 0.36728 0.0
C470 C 0.16872 0.74028 0.48109 0.0
C471 C 0.18607 0.73458 0.54587 0.0
C472 C 0.13906 0.74612 0.48655 0.0
C473 C 0.17296 0.7336 0.61599 0.0
C474 C 0.14343 0.73909 0.62176 0.0
C475 C 0.09702 0.75296 0.56336 0.0
C476 C 0.0803 0.76076 0.49914 0.0
C477 C 0.12638 0.74587 0.5576 0.0
C478 C 0.09281 0.76003 0.42859 0.0
C479 C 0.12197 0.75286 0.4223 0.0
H480 H 0.77709 0.6692 0.07022 0.0
H481 H 0.77379 0.68129 0.82958 0.0
H482 H 0.78242 0.62977 0.81483 0.0
H483 H 0.79203 0.58126 0.87001 0.0
H484 H 0.7955 0.56905 0.10981 0.0
H485 H 0.78553 0.62061 0.12524 0.0
C486 C 0.77811 0.66061 0.01448 0.0
C487 C 0.77485 0.67925 0.9512 0.0
C488 C 0.78326 0.63093 0.00623 0.0
C489 C 0.77627 0.66758 0.87943 0.0
C490 C 0.78123 0.63807 0.87081 0.0
C491 C 0.79071 0.59005 0.9255 0.0
C492 C 0.79509 0.57176 0.98874 0.0
C493 C 0.78499 0.6196 0.93376 0.0
C494 C 0.79271 0.58301 0.06049 0.0
C495 C 0.78695 0.61239 0.06923 0.0
H496 H 0.82747 0.27613 0.59355 0.0
H497 H 0.81249 0.31051 0.36869 0.0
H498 H 0.86391 0.31899 0.35607 0.0
H499 H 0.9135 0.31549 0.40655 0.0
H500 H 0.92966 0.28089 0.62983 0.0
H501 H 0.87765 0.27345 0.64534 0.0
C502 C 0.83548 0.2857 0.54215 0.0
C503 C 0.8161 0.29248 0.48214 0.0
C504 C 0.86535 0.29032 0.5347 0.0
C505 C 0.82688 0.30475 0.41564 0.0
C506 C 0.85634 0.30968 0.40821 0.0
C507 C 0.90554 0.30649 0.45868 0.0
C508 C 0.92514 0.29906 0.51732 0.0
C509 C 0.87579 0.30229 0.46696 0.0
C510 C 0.91475 0.28701 0.5843 0.0
C511 C 0.8851 0.28277 0.5931 0.0
H512 H 0.74156 0.18107 0.38107 0.0
H513 H 0.73543 0.18149 0.62178 0.0
H514 H 0.74835 0.13025 0.62949 0.0
H515 H 0.76378 0.08578 0.56829 0.0
H516 H 0.77033 0.08574 0.32838 0.0
H517 H 0.75479 0.13643 0.31982 0.0
C518 C 0.74281 0.17 0.43532 0.0
C519 C 0.73769 0.18531 0.50076 0.0
C520 C 0.75059 0.14064 0.43951 0.0
C521 C 0.73934 0.17039 0.57042 0.0
C522 C 0.74681 0.14106 0.57497 0.0
C523 C 0.76183 0.09703 0.51434 0.0
C524 C 0.76881 0.0825 0.4492 0.0
C525 C 0.75294 0.12611 0.51001 0.0
C526 C 0.76561 0.09684 0.37926 0.0
C527 C 0.75666 0.12571 0.37442 0.0
H528 H 0.32552 0.218 0.90503 0.0
H529 H 0.3257 0.21525 0.14679 0.0
H530 H 0.3777 0.20558 0.15053 0.0
H531 H 0.42327 0.19787 0.08459 0.0
H532 H 0.42236 0.20057 0.84339 0.0
H533 H 0.37037 0.21052 0.8399 0.0
C534 C 0.3368 0.21534 0.95879 0.0
C535 C 0.32155 0.21739 0.02559 0.0
C536 C 0.36659 0.20974 0.96052 0.0
C537 C 0.33677 0.21379 0.09447 0.0
C538 C 0.36654 0.20826 0.09666 0.0
C539 C 0.41154 0.20049 0.03144 0.0
C540 C 0.42634 0.19802 0.96422 0.0
C541 C 0.38166 0.20616 0.03002 0.0
C542 C 0.41119 0.20198 0.89561 0.0
C543 C 0.38156 0.2077 0.8937 0.0
H544 H 0.26272 0.83105 0.42472 0.0
H545 H 0.31508 0.81679 0.6261 0.0
H546 H 0.32167 0.86866 0.6381 0.0
H547 H 0.31147 0.91831 0.59464 0.0
H548 H 0.25874 0.93395 0.39533 0.0
H549 H 0.25309 0.88159 0.37955 0.0
C550 C 0.2758 0.83938 0.47059 0.0
C551 C 0.28827 0.82007 0.52452 0.0
C552 C 0.27918 0.86953 0.47808 0.0
C553 C 0.305 0.83118 0.58414 0.0
C554 C 0.3088 0.86087 0.5912 0.0
C555 C 0.29879 0.91021 0.54775 0.0
C556 C 0.28561 0.92979 0.49606 0.0
C557 C 0.29573 0.88025 0.53916 0.0
C558 C 0.2691 0.91911 0.43567 0.0
C559 C 0.26595 0.88924 0.42661 0.0
H560 H 0.67528 0.77404 0.10562 0.0
H561 H 0.67033 0.776 0.86378 0.0
H562 H 0.61843 0.7847 0.86623 0.0
H563 H 0.57451 0.7936 0.93688 0.0
H564 H 0.57942 0.7919 0.17794 0.0
H565 H 0.63122 0.78109 0.17606 0.0
C566 C 0.66289 0.77619 0.05334 0.0
C567 C 0.67688 0.77447 0.98464 0.0
C568 C 0.63302 0.7814 0.05501 0.0
C569 C 0.66029 0.77728 0.91757 0.0
C570 C 0.63055 0.78231 0.91882 0.0
C571 C 0.58706 0.79086 0.9888 0.0
C572 C 0.57352 0.7941 0.05738 0.0
C573 C 0.61675 0.78473 0.98715 0.0
C574 C 0.58964 0.78996 0.12454 0.0
C575 C 0.61917 0.78376 0.12342 0.0
loop_
_geom_bond_atom_site_label_1
_geom_bond_atom_site_label_2
_geom_bond_distance
_geom_bond_site_symmetry_2
_ccdc_geom_bond_type
Sc0 O3 2.025 . S
Sc0 O10 2.105 . S
Sc0 O13 2.105 . S
Sc0 O16 2.105 . S
Sc0 O19 2.105 . S
Sc1 O3 2.025 . S
Sc1 O11 2.105 . S
Sc1 O15 2.105 1_554 S
Sc1 O17 2.105 . S
Sc1 O21 2.105 1_554 S
Sc2 O3 2.025 1_556 S
Sc2 O12 2.105 . S
Sc2 O14 2.105 . S
Sc2 O18 2.105 . S
Sc2 O20 2.105 . S
O3 Sc0 2.025 . S
O3 Sc1 2.025 . S
O3 Sc2 2.025 1_554 S
C4 O10 1.268 . S
C4 O20 1.268 1_554 S
C5 O11 1.268 . S
C5 O19 1.268 . S
C6 O12 1.268 . S
C6 O21 1.268 . S
C7 O13 1.268 . S
C7 O17 1.268 . S
C8 O14 1.268 1_554 S
C8 O16 1.268 . S
C9 O15 1.268 . S
C9 O18 1.268 . S
O10 Sc0 2.105 . S
O10 C4 1.268 . S
O11 Sc1 2.105 . S
O11 C5 1.268 . S
O12 Sc2 2.105 . S
O12 C6 1.268 . S
O13 Sc0 2.105 . S
O13 C7 1.268 . S
O14 Sc2 2.105 . S
O14 C8 1.268 1_556 S
O15 Sc1 2.105 1_556 S
O15 C9 1.268 . S
O16 Sc0 2.105 . S
O16 C8 1.268 . S
O17 Sc1 2.105 . S
O17 C7 1.268 . S
O18 Sc2 2.105 . S
O18 C9 1.268 . S
O19 Sc0 2.105 . S
O19 C5 1.268 . S
O20 Sc2 2.105 . S
O20 C4 1.268 1_556 S
O21 Sc1 2.105 1_556 S
O21 C6 1.268 . S
Sc22 O25 2.025 . S
Sc22 O32 2.105 . S
Sc22 O35 2.105 . S
Sc22 O38 2.105 . S
Sc22 O41 2.105 . S
Sc23 O25 2.025 . S
Sc23 O33 2.105 . S
Sc23 O37 2.105 . S
Sc23 O39 2.105 . S
Sc23 O43 2.105 . S
Sc24 O25 2.025 . S
Sc24 O34 2.105 . S
Sc24 O36 2.105 . S
Sc24 O40 2.105 . S
Sc24 O42 2.105 . S
O25 Sc22 2.025 . S
O25 Sc23 2.025 . S
O25 Sc24 2.025 . S
C26 O32 1.268 . S
C26 O42 1.268 . S
C27 O33 1.268 . S
C27 O41 1.268 . S
C28 O34 1.268 . S
C28 O43 1.268 . S
C29 O35 1.268 . S
C29 O39 1.268 . S
C30 O36 1.268 . S
C30 O38 1.268 . S
C31 O37 1.268 . S
C31 O40 1.268 . S
O32 Sc22 2.105 . S
O32 C26 1.268 . S
O33 Sc23 2.105 . S
O33 C27 1.268 . S
O34 Sc24 2.105 . S
O34 C28 1.268 . S
O35 Sc22 2.105 . S
O35 C29 1.268 . S
O36 Sc24 2.105 . S
O36 C30 1.268 . S
O37 Sc23 2.105 . S
O37 C31 1.268 . S
O38 Sc22 2.105 . S
O38 C30 1.268 . S
O39 Sc23 2.105 . S
O39 C29 1.268 . S
O40 Sc24 2.105 . S
O40 C31 1.268 . S
O41 Sc22 2.105 . S
O41 C27 1.268 . S
O42 Sc24 2.105 . S
O42 C26 1.268 . S
O43 Sc23 2.105 . S
O43 C28 1.268 . S
Sc44 O47 2.025 1_556 S
Sc44 O54 2.105 . S
Sc44 O57 2.105 . S
Sc44 O60 2.105 . S
Sc44 O63 2.105 . S
Sc45 O47 2.025 . S
Sc45 O55 2.105 1_554 S
Sc45 O59 2.105 . S
Sc45 O61 2.105 1_554 S
Sc45 O65 2.105 . S
Sc46 O47 2.025 . S
Sc46 O56 2.105 . S
Sc46 O58 2.105 . S
Sc46 O62 2.105 . S
Sc46 O64 2.105 . S
O47 Sc44 2.025 1_554 S
O47 Sc45 2.025 . S
O47 Sc46 2.025 . S
C48 O54 1.268 1_554 S
C48 O64 1.268 . S
C49 O55 1.268 . S
C49 O63 1.268 . S
C50 O56 1.268 . S
C50 O65 1.268 . S
C51 O57 1.268 . S
C51 O61 1.268 . S
C52 O58 1.268 . S
C52 O60 1.268 1_554 S
C53 O59 1.268 . S
C53 O62 1.268 . S
O54 Sc44 2.105 . S
O54 C48 1.268 1_556 S
O55 Sc45 2.105 1_556 S
O55 C49 1.268 . S
O56 Sc46 2.105 . S
O56 C50 1.268 . S
O57 Sc44 2.105 . S
O57 C51 1.268 . S
O58 Sc46 2.105 . S
O58 C52 1.268 . S
O59 Sc45 2.105 . S
O59 C53 1.268 . S
O60 Sc44 2.105 . S
O60 C52 1.268 1_556 S
O61 Sc45 2.105 1_556 S
O61 C51 1.268 . S
O62 Sc46 2.105 . S
O62 C53 1.268 . S
O63 Sc44 2.105 . S
O63 C49 1.268 . S
O64 Sc46 2.105 . S
O64 C48 1.268 . S
O65 Sc45 2.105 . S
O65 C50 1.268 . S
Sc66 O69 2.025 . S
Sc66 O76 2.105 . S
Sc66 O79 2.105 . S
Sc66 O82 2.105 . S
Sc66 O85 2.105 . S
Sc67 O69 2.025 . S
Sc67 O77 2.105 . S
Sc67 O81 2.105 . S
Sc67 O83 2.105 . S
Sc67 O87 2.105 . S
Sc68 O69 2.025 . S
Sc68 O78 2.105 . S
Sc68 O80 2.105 . S
Sc68 O84 2.105 . S
Sc68 O86 2.105 . S
O69 Sc66 2.025 . S
O69 Sc67 2.025 . S
O69 Sc68 2.025 . S
C70 O76 1.268 . S
C70 O86 1.268 . S
C71 O77 1.268 . S
C71 O85 1.268 . S
C72 O78 1.268 . S
C72 O87 1.268 . S
C73 O79 1.268 . S
C73 O83 1.268 . S
C74 O80 1.268 . S
C74 O82 1.268 . S
C75 O81 1.268 . S
C75 O84 1.268 . S
O76 Sc66 2.105 . S
O76 C70 1.268 . S
O77 Sc67 2.105 . S
O77 C71 1.268 . S
O78 Sc68 2.105 . S
O78 C72 1.268 . S
O79 Sc66 2.105 . S
O79 C73 1.268 . S
O80 Sc68 2.105 . S
O80 C74 1.268 . S
O81 Sc67 2.105 . S
O81 C75 1.268 . S
O82 Sc66 2.105 . S
O82 C74 1.268 . S
O83 Sc67 2.105 . S
O83 C73 1.268 . S
O84 Sc68 2.105 . S
O84 C75 1.268 . S
O85 Sc66 2.105 . S
O85 C71 1.268 . S
O86 Sc68 2.105 . S
O86 C70 1.268 . S
O87 Sc67 2.105 . S
O87 C72 1.268 . S
H88 C95 0.929 . S
H89 C98 0.930 . S
H90 C100 0.929 . S
H91 C92 0.969 . S
C92 H91 0.969 . S
C92 O93 1.550 1_556 S
C92 H94 0.973 . S
O93 C92 1.550 1_554 S
O93 C99 1.412 . S
H94 C92 0.973 . S
C95 H88 0.929 . S
C95 C96 1.400 . S
C95 C97 1.364 1_554 S
C96 C95 1.400 . S
C96 C100 1.377 . S
C97 C95 1.364 1_556 S
C97 C98 1.374 . S
C98 H89 0.930 . S
C98 C97 1.374 . S
C98 C99 1.383 1_556 S
C99 O93 1.412 . S
C99 C98 1.383 1_554 S
C99 C100 1.394 . S
C100 H90 0.929 . S
C100 C96 1.377 . S
C100 C99 1.394 . S
H101 C108 0.929 . S
H102 C111 0.930 . S
H103 C113 0.929 . S
H104 C105 0.969 . S
C105 H104 0.969 . S
C105 O106 1.550 . S
C105 H107 0.973 . S
O106 C105 1.550 . S
O106 C112 1.388 1_455 S
H107 C105 0.973 . S
C108 H101 0.929 . S
C108 C109 1.400 . S
C108 C110 1.364 . S
C109 C108 1.400 . S
C109 C113 1.377 . S
C110 C108 1.364 . S
C110 C111 1.374 . S
C111 H102 0.930 . S
C111 C110 1.374 . S
C111 C112 1.394 . S
C112 O106 1.388 1_655 S
C112 C111 1.394 . S
C112 C113 1.411 . S
C113 H103 0.929 . S
C113 C109 1.377 . S
C113 C112 1.411 . S
H114 C121 0.928 1_554 S
H115 C124 0.930 . S
H116 C126 0.929 . S
H117 C118 0.969 . S
C118 H117 0.969 . S
C118 O119 1.550 1_554 S
C118 H120 0.973 . S
O119 C118 1.550 1_556 S
O119 C125 1.412 . S
H120 C118 0.973 . S
C121 H114 0.928 1_556 S
C121 C122 1.400 . S
C121 C123 1.364 1_556 S
C122 C121 1.400 . S
C122 C126 1.377 . S
C123 C121 1.364 1_554 S
C123 C124 1.374 . S
C124 H115 0.930 . S
C124 C123 1.374 . S
C124 C125 1.383 1_554 S
C125 O119 1.412 . S
C125 C124 1.383 1_556 S
C125 C126 1.394 . S
C126 H116 0.929 . S
C126 C122 1.377 . S
C126 C125 1.394 . S
H127 C134 0.929 . S
H128 C137 0.930 . S
H129 C139 0.929 . S
H130 C131 0.969 . S
C131 H130 0.969 . S
C131 O132 1.550 . S
C131 H133 0.973 . S
O132 C131 1.550 . S
O132 C138 1.377 1_655 S
H133 C131 0.973 . S
C134 H127 0.929 . S
C134 C135 1.400 . S
C134 C136 1.364 . S
C135 C134 1.400 . S
C135 C139 1.377 . S
C136 C134 1.364 . S
C136 C137 1.374 . S
C137 H128 0.930 . S
C137 C136 1.374 . S
C137 C138 1.397 . S
C138 O132 1.377 1_455 S
C138 C137 1.397 . S
C138 C139 1.416 . S
C139 H129 0.929 . S
C139 C135 1.377 . S
C139 C138 1.416 . S
H140 C147 0.929 . S
H141 C150 0.930 . S
H142 C152 0.929 . S
H143 C144 0.969 . S
C144 H143 0.969 . S
C144 O145 1.550 . S
C144 H146 0.973 . S
O145 C144 1.550 . S
O145 C151 1.390 1_545 S
H146 C144 0.973 . S
C147 H140 0.929 . S
C147 C148 1.400 . S
C147 C149 1.364 . S
C148 C147 1.400 . S
C148 C152 1.377 . S
C149 C147 1.364 . S
C149 C150 1.374 . S
C150 H141 0.930 . S
C150 C149 1.374 . S
C150 C151 1.393 . S
C151 O145 1.390 1_565 S
C151 C150 1.393 . S
C151 C152 1.410 . S
C152 H142 0.929 . S
C152 C148 1.377 . S
C152 C151 1.410 . S
H153 C160 0.928 1_554 S
H154 C163 0.930 . S
H155 C165 0.929 . S
H156 C157 0.969 . S
C157 H156 0.969 . S
C157 O158 1.550 1_554 S
C157 H159 0.973 . S
O158 C157 1.550 1_556 S
O158 C164 1.412 . S
H159 C157 0.973 . S
C160 H153 0.928 1_556 S
C160 C161 1.400 . S
C160 C162 1.363 1_556 S
C161 C160 1.400 . S
C161 C165 1.377 . S
C162 C160 1.363 1_554 S
C162 C163 1.374 . S
C163 H154 0.930 . S
C163 C162 1.374 . S
C163 C164 1.383 1_554 S
C164 O158 1.412 . S
C164 C163 1.383 1_556 S
C164 C165 1.394 . S
C165 H155 0.929 . S
C165 C161 1.377 . S
C165 C164 1.394 . S
H166 C173 0.929 . S
H167 C176 0.930 . S
H168 C178 0.929 . S
H169 C170 0.969 . S
C170 H169 0.969 . S
C170 O171 1.550 . S
C170 H172 0.973 . S
O171 C170 1.550 . S
O171 C177 1.375 1_565 S
H172 C170 0.973 . S
C173 H166 0.929 . S
C173 C174 1.400 . S
C173 C175 1.364 . S
C174 C173 1.400 . S
C174 C178 1.377 . S
C175 C173 1.364 . S
C175 C176 1.374 . S
C176 H167 0.930 . S
C176 C175 1.374 . S
C176 C177 1.398 . S
C177 O171 1.375 1_545 S
C177 C176 1.398 . S
C177 C178 1.417 . S
C178 H168 0.929 . S
C178 C174 1.377 . S
C178 C177 1.417 . S
H179 C186 0.929 . S
H180 C189 0.930 . S
H181 C191 0.929 . S
H182 C183 0.969 . S
C183 H182 0.969 . S
C183 O184 1.550 1_556 S
C183 H185 0.973 . S
O184 C183 1.550 1_554 S
O184 C190 1.412 . S
H185 C183 0.973 . S
C186 H179 0.929 . S
C186 C187 1.400 . S
C186 C188 1.364 1_554 S
C187 C186 1.400 . S
C187 C191 1.377 . S
C188 C186 1.364 1_556 S
C188 C189 1.374 . S
C189 H180 0.930 . S
C189 C188 1.374 . S
C189 C190 1.383 1_556 S
C190 O184 1.412 . S
C190 C189 1.383 1_554 S
C190 C191 1.394 . S
C191 H181 0.929 . S
C191 C187 1.377 . S
C191 C190 1.394 . S
H192 C198 0.930 . S
H193 C201 0.930 . S
H194 C202 0.930 . S
H195 C203 0.930 . S
H196 C206 0.930 . S
H197 C207 0.930 . S
C198 H192 0.930 . S
C198 C199 1.355 . S
C198 C200 1.415 . S
C199 C198 1.355 . S
C199 C201 1.419 . S
C200 C198 1.415 . S
C200 C205 1.425 . S
C200 C207 1.409 . S
C201 H193 0.930 . S
C201 C199 1.419 . S
C201 C202 1.362 . S
C202 H194 0.930 . S
C202 C201 1.362 . S
C202 C205 1.409 . S
C203 H195 0.930 . S
C203 C204 1.355 . S
C203 C205 1.415 . S
C204 C203 1.355 . S
C204 C206 1.419 . S
C205 C200 1.425 . S
C205 C202 1.409 . S
C205 C203 1.415 . S
C206 H196 0.930 . S
C206 C204 1.419 . S
C206 C207 1.362 . S
C207 H197 0.930 . S
C207 C200 1.409 . S
C207 C206 1.362 . S
H208 C214 0.930 . S
H209 C217 0.930 . S
H210 C218 0.930 . S
H211 C219 0.930 . S
H212 C222 0.930 . S
H213 C223 0.930 . S
C214 H208 0.930 . S
C214 C215 1.355 . S
C214 C216 1.415 . S
C215 C214 1.355 . S
C215 C217 1.419 . S
C216 C214 1.415 . S
C216 C221 1.425 . S
C216 C223 1.409 . S
C217 H209 0.930 . S
C217 C215 1.419 . S
C217 C218 1.362 . S
C218 H210 0.930 . S
C218 C217 1.362 . S
C218 C221 1.409 . S
C219 H211 0.930 . S
C219 C220 1.355 . S
C219 C221 1.415 . S
C220 C219 1.355 . S
C220 C222 1.419 . S
C221 C216 1.425 . S
C221 C218 1.409 . S
C221 C219 1.415 . S
C222 H212 0.930 . S
C222 C220 1.419 . S
C222 C223 1.362 . S
C223 H213 0.930 . S
C223 C216 1.409 . S
C223 C222 1.362 . S
H224 C230 0.930 . S
H225 C233 0.930 . S
H226 C234 0.930 . S
H227 C235 0.930 . S
H228 C238 0.930 . S
H229 C239 0.930 . S
C230 H224 0.930 . S
C230 C231 1.355 . S
C230 C232 1.415 . S
C231 C230 1.355 . S
C231 C233 1.419 . S
C232 C230 1.415 . S
C232 C237 1.425 . S
C232 C239 1.409 . S
C233 H225 0.930 . S
C233 C231 1.419 . S
C233 C234 1.362 . S
C234 H226 0.930 . S
C234 C233 1.362 . S
C234 C237 1.409 . S
C235 H227 0.930 . S
C235 C236 1.355 . S
C235 C237 1.415 . S
C236 C235 1.355 . S
C236 C238 1.419 . S
C237 C232 1.425 . S
C237 C234 1.409 . S
C237 C235 1.415 . S
C238 H228 0.930 . S
C238 C236 1.419 . S
C238 C239 1.362 . S
C239 H229 0.930 . S
C239 C232 1.409 . S
C239 C238 1.362 . S
H240 C246 0.930 . S
H241 C249 0.930 . S
H242 C250 0.930 . S
H243 C251 0.930 . S
H244 C254 0.930 . S
H245 C255 0.930 . S
C246 H240 0.930 . S
C246 C247 1.355 . S
C246 C248 1.415 . S
C247 C246 1.355 . S
C247 C249 1.419 . S
C248 C246 1.415 . S
C248 C253 1.425 . S
C248 C255 1.409 . S
C249 H241 0.930 . S
C249 C247 1.419 . S
C249 C250 1.362 . S
C250 H242 0.930 . S
C250 C249 1.362 . S
C250 C253 1.409 . S
C251 H243 0.930 . S
C251 C252 1.355 . S
C251 C253 1.415 . S
C252 C251 1.355 . S
C252 C254 1.419 . S
C253 C248 1.425 . S
C253 C250 1.409 . S
C253 C251 1.415 . S
C254 H244 0.930 . S
C254 C252 1.419 . S
C254 C255 1.362 . S
C255 H245 0.930 . S
C255 C248 1.409 . S
C255 C254 1.362 . S
H256 C262 0.930 . S
H257 C265 0.930 . S
H258 C266 0.930 . S
H259 C267 0.930 . S
H260 C270 0.930 . S
H261 C271 0.930 . S
C262 H256 0.930 . S
C262 C263 1.355 . S
C262 C264 1.415 . S
C263 C262 1.355 . S
C263 C265 1.419 . S
C264 C262 1.415 . S
C264 C269 1.425 . S
C264 C271 1.409 . S
C265 H257 0.930 . S
C265 C263 1.419 . S
C265 C266 1.362 . S
C266 H258 0.930 . S
C266 C265 1.362 . S
C266 C269 1.409 . S
C267 H259 0.930 . S
C267 C268 1.355 . S
C267 C269 1.415 . S
C268 C267 1.355 . S
C268 C270 1.419 . S
C269 C264 1.425 . S
C269 C266 1.409 . S
C269 C267 1.415 . S
C270 H260 0.930 . S
C270 C268 1.419 . S
C270 C271 1.362 . S
C271 H261 0.930 . S
C271 C264 1.409 . S
C271 C270 1.362 . S
H272 C278 0.930 . S
H273 C281 0.930 . S
H274 C282 0.930 . S
H275 C283 0.930 . S
H276 C286 0.930 . S
H277 C287 0.930 . S
C278 H272 0.930 . S
C278 C279 1.355 . S
C278 C280 1.415 . S
C279 C278 1.355 . S
C279 C281 1.419 . S
C280 C278 1.415 . S
C280 C285 1.425 . S
C280 C287 1.409 . S
C281 H273 0.930 . S
C281 C279 1.419 . S
C281 C282 1.362 . S
C282 H274 0.930 . S
C282 C281 1.362 . S
C282 C285 1.409 . S
C283 H275 0.930 . S
C283 C284 1.355 . S
C283 C285 1.415 . S
C284 C283 1.355 . S
C284 C286 1.419 . S
C285 C280 1.425 . S
C285 C282 1.409 . S
C285 C283 1.415 . S
C286 H276 0.930 . S
C286 C284 1.419 . S
C286 C287 1.362 . S
C287 H277 0.930 . S
C287 C280 1.409 . S
C287 C286 1.362 . S
H288 C294 0.930 . S
H289 C297 0.930 . S
H290 C298 0.930 . S
H291 C299 0.930 . S
H292 C302 0.930 . S
H293 C303 0.930 . S
C294 H288 0.930 . S
C294 C295 1.355 . S
C294 C296 1.415 . S
C295 C294 1.355 . S
C295 C297 1.419 . S
C296 C294 1.415 . S
C296 C301 1.425 . S
C296 C303 1.409 . S
C297 H289 0.930 . S
C297 C295 1.419 . S
C297 C298 1.362 . S
C298 H290 0.930 . S
C298 C297 1.362 . S
C298 C301 1.409 . S
C299 H291 0.930 . S
C299 C300 1.355 . S
C299 C301 1.415 . S
C300 C299 1.355 . S
C300 C302 1.419 . S
C301 C296 1.425 . S
C301 C298 1.409 . S
C301 C299 1.415 . S
C302 H292 0.930 . S
C302 C300 1.419 . S
C302 C303 1.362 . S
C303 H293 0.930 . S
C303 C296 1.409 . S
C303 C302 1.362 . S
H304 C310 0.930 . S
H305 C313 0.930 . S
H306 C314 0.930 . S
H307 C315 0.930 . S
H308 C318 0.930 . S
H309 C319 0.930 . S
C310 H304 0.930 . S
C310 C311 1.355 . S
C310 C312 1.415 . S
C311 C310 1.355 . S
C311 C313 1.419 . S
C312 C310 1.415 . S
C312 C317 1.425 . S
C312 C319 1.409 . S
C313 H305 0.930 . S
C313 C311 1.419 . S
C313 C314 1.362 . S
C314 H306 0.930 . S
C314 C313 1.362 . S
C314 C317 1.409 . S
C315 H307 0.930 . S
C315 C316 1.355 . S
C315 C317 1.415 . S
C316 C315 1.355 . S
C316 C318 1.419 . S
C317 C312 1.425 . S
C317 C314 1.409 . S
C317 C315 1.415 . S
C318 H308 0.930 . S
C318 C316 1.419 . S
C318 C319 1.362 . S
C319 H309 0.930 . S
C319 C312 1.409 . S
C319 C318 1.362 . S
H320 C326 0.930 . S
H321 C329 0.930 . S
H322 C330 0.930 . S
H323 C331 0.930 . S
H324 C334 0.930 . S
H325 C335 0.930 . S
C326 H320 0.930 . S
C326 C327 1.355 . S
C326 C328 1.415 . S
C327 C326 1.355 . S
C327 C329 1.419 . S
C328 C326 1.415 . S
C328 C333 1.425 . S
C328 C335 1.409 . S
C329 H321 0.930 . S
C329 C327 1.419 . S
C329 C330 1.362 . S
C330 H322 0.930 . S
C330 C329 1.362 . S
C330 C333 1.409 . S
C331 H323 0.930 . S
C331 C332 1.355 . S
C331 C333 1.415 . S
C332 C331 1.355 . S
C332 C334 1.419 . S
C333 C328 1.425 . S
C333 C330 1.409 . S
C333 C331 1.415 . S
C334 H324 0.930 . S
C334 C332 1.419 . S
C334 C335 1.362 . S
C335 H325 0.930 . S
C335 C328 1.409 . S
C335 C334 1.362 . S
H336 C342 0.930 . S
H337 C345 0.930 . S
H338 C346 0.930 . S
H339 C347 0.930 . S
H340 C350 0.930 . S
H341 C351 0.930 . S
C342 H336 0.930 . S
C342 C343 1.355 . S
C342 C344 1.415 . S
C343 C342 1.355 . S
C343 C345 1.419 . S
C344 C342 1.415 . S
C344 C349 1.425 . S
C344 C351 1.409 . S
C345 H337 0.930 . S
C345 C343 1.419 . S
C345 C346 1.362 . S
C346 H338 0.930 . S
C346 C345 1.362 . S
C346 C349 1.409 . S
C347 H339 0.930 . S
C347 C348 1.355 . S
C347 C349 1.415 . S
C348 C347 1.355 . S
C348 C350 1.419 . S
C349 C344 1.425 . S
C349 C346 1.409 . S
C349 C347 1.415 . S
C350 H340 0.930 . S
C350 C348 1.419 . S
C350 C351 1.362 . S
C351 H341 0.930 . S
C351 C344 1.409 . S
C351 C350 1.362 . S
H352 C358 0.930 . S
H353 C361 0.930 . S
H354 C362 0.930 . S
H355 C363 0.930 . S
H356 C366 0.930 . S
H357 C367 0.930 . S
C358 H352 0.930 . S
C358 C359 1.355 . S
C358 C360 1.415 . S
C359 C358 1.355 . S
C359 C361 1.419 . S
C360 C358 1.415 . S
C360 C365 1.425 . S
C360 C367 1.409 . S
C361 H353 0.930 . S
C361 C359 1.419 . S
C361 C362 1.362 . S
C362 H354 0.930 . S
C362 C361 1.362 . S
C362 C365 1.409 . S
C363 H355 0.930 . S
C363 C364 1.355 . S
C363 C365 1.415 . S
C364 C363 1.355 . S
C364 C366 1.419 . S
C365 C360 1.425 . S
C365 C362 1.409 . S
C365 C363 1.415 . S
C366 H356 0.930 . S
C366 C364 1.419 . S
C366 C367 1.362 . S
C367 H357 0.930 . S
C367 C360 1.409 . S
C367 C366 1.362 . S
H368 C374 0.930 . S
H369 C377 0.930 . S
H370 C378 0.930 . S
H371 C379 0.930 . S
H372 C382 0.930 . S
H373 C383 0.930 . S
C374 H368 0.930 . S
C374 C375 1.355 . S
C374 C376 1.415 . S
C375 C374 1.355 . S
C375 C377 1.419 . S
C376 C374 1.415 . S
C376 C381 1.425 . S
C376 C383 1.409 . S
C377 H369 0.930 . S
C377 C375 1.419 . S
C377 C378 1.362 . S
C378 H370 0.930 . S
C378 C377 1.362 . S
C378 C381 1.409 . S
C379 H371 0.930 . S
C379 C380 1.355 . S
C379 C381 1.415 . S
C380 C379 1.355 . S
C380 C382 1.419 . S
C381 C376 1.425 . S
C381 C378 1.409 . S
C381 C379 1.415 . S
C382 H372 0.930 . S
C382 C380 1.419 . S
C382 C383 1.362 . S
C383 H373 0.930 . S
C383 C376 1.409 . S
C383 C382 1.362 . S
H384 C390 0.930 . S
H385 C393 0.930 . S
H386 C394 0.930 . S
H387 C395 0.930 . S
H388 C398 0.930 . S
H389 C399 0.930 . S
C390 H384 0.930 . S
C390 C391 1.355 . S
C390 C392 1.415 . S
C391 C390 1.355 . S
C391 C393 1.419 . S
C392 C390 1.415 . S
C392 C397 1.425 . S
C392 C399 1.409 . S
C393 H385 0.930 . S
C393 C391 1.419 . S
C393 C394 1.362 . S
C394 H386 0.930 . S
C394 C393 1.362 . S
C394 C397 1.409 . S
C395 H387 0.930 . S
C395 C396 1.355 . S
C395 C397 1.415 . S
C396 C395 1.355 . S
C396 C398 1.419 . S
C397 C392 1.425 . S
C397 C394 1.409 . S
C397 C395 1.415 . S
C398 H388 0.930 . S
C398 C396 1.419 . S
C398 C399 1.362 . S
C399 H389 0.930 . S
C399 C392 1.409 . S
C399 C398 1.362 . S
H400 C406 0.930 . S
H401 C409 0.930 . S
H402 C410 0.930 . S
H403 C411 0.930 . S
H404 C414 0.930 . S
H405 C415 0.930 . S
C406 H400 0.930 . S
C406 C407 1.355 . S
C406 C408 1.415 . S
C407 C406 1.355 . S
C407 C409 1.419 . S
C408 C406 1.415 . S
C408 C413 1.425 . S
C408 C415 1.409 . S
C409 H401 0.930 . S
C409 C407 1.419 . S
C409 C410 1.362 . S
C410 H402 0.930 . S
C410 C409 1.362 . S
C410 C413 1.409 . S
C411 H403 0.930 . S
C411 C412 1.355 . S
C411 C413 1.415 . S
C412 C411 1.355 . S
C412 C414 1.419 . S
C413 C408 1.425 . S
C413 C410 1.409 . S
C413 C411 1.415 . S
C414 H404 0.930 . S
C414 C412 1.419 . S
C414 C415 1.362 . S
C415 H405 0.930 . S
C415 C408 1.409 . S
C415 C414 1.362 . S
H416 C422 0.930 . S
H417 C425 0.930 . S
H418 C426 0.930 . S
H419 C427 0.930 . S
H420 C430 0.930 . S
H421 C431 0.930 . S
C422 H416 0.930 . S
C422 C423 1.355 . S
C422 C424 1.415 . S
C423 C422 1.355 . S
C423 C425 1.419 . S
C424 C422 1.415 . S
C424 C429 1.425 . S
C424 C431 1.409 . S
C425 H417 0.930 . S
C425 C423 1.419 . S
C425 C426 1.362 . S
C426 H418 0.930 . S
C426 C425 1.362 . S
C426 C429 1.409 . S
C427 H419 0.930 . S
C427 C428 1.355 . S
C427 C429 1.415 . S
C428 C427 1.355 . S
C428 C430 1.419 . S
C429 C424 1.425 . S
C429 C426 1.409 . S
C429 C427 1.415 . S
C430 H420 0.930 . S
C430 C428 1.419 . S
C430 C431 1.362 . S
C431 H421 0.930 . S
C431 C424 1.409 . S
C431 C430 1.362 . S
H432 C438 0.930 . S
H433 C441 0.930 . S
H434 C442 0.930 . S
H435 C443 0.930 . S
H436 C446 0.930 . S
H437 C447 0.930 . S
C438 H432 0.930 . S
C438 C439 1.355 . S
C438 C440 1.415 . S
C439 C438 1.355 . S
C439 C441 1.419 . S
C440 C438 1.415 . S
C440 C445 1.425 . S
C440 C447 1.409 . S
C441 H433 0.930 . S
C441 C439 1.419 . S
C441 C442 1.362 . S
C442 H434 0.930 . S
C442 C441 1.362 . S
C442 C445 1.409 . S
C443 H435 0.930 . S
C443 C444 1.355 . S
C443 C445 1.415 . S
C444 C443 1.355 . S
C444 C446 1.419 . S
C445 C440 1.425 . S
C445 C442 1.409 . S
C445 C443 1.415 . S
C446 H436 0.930 . S
C446 C444 1.419 . S
C446 C447 1.362 . S
C447 H437 0.930 . S
C447 C440 1.409 . S
C447 C446 1.362 . S
H448 C454 0.930 . S
H449 C457 0.930 . S
H450 C458 0.930 . S
H451 C459 0.930 . S
H452 C462 0.930 . S
H453 C463 0.930 . S
C454 H448 0.930 . S
C454 C455 1.355 1_554 S
C454 C456 1.415 . S
C455 C454 1.355 1_556 S
C455 C457 1.419 . S
C456 C454 1.415 . S
C456 C461 1.425 1_554 S
C456 C463 1.409 . S
C457 H449 0.930 . S
C457 C455 1.419 . S
C457 C458 1.362 . S
C458 H450 0.930 . S
C458 C457 1.362 . S
C458 C461 1.409 . S
C459 H451 0.930 . S
C459 C460 1.355 1_556 S
C459 C461 1.415 . S
C460 C459 1.355 1_554 S
C460 C462 1.419 . S
C461 C456 1.425 1_556 S
C461 C458 1.409 . S
C461 C459 1.415 . S
C462 H452 0.930 . S
C462 C460 1.419 . S
C462 C463 1.362 . S
C463 H453 0.930 . S
C463 C456 1.409 . S
C463 C462 1.362 . S
H464 C470 0.930 . S
H465 C473 0.930 . S
H466 C474 0.930 . S
H467 C475 0.930 . S
H468 C478 0.930 . S
H469 C479 0.930 . S
C470 H464 0.930 . S
C470 C471 1.355 . S
C470 C472 1.415 . S
C471 C470 1.355 . S
C471 C473 1.419 . S
C472 C470 1.415 . S
C472 C477 1.425 . S
C472 C479 1.409 . S
C473 H465 0.930 . S
C473 C471 1.419 . S
C473 C474 1.362 . S
C474 H466 0.930 . S
C474 C473 1.362 . S
C474 C477 1.409 . S
C475 H467 0.930 . S
C475 C476 1.355 . S
C475 C477 1.415 . S
C476 C475 1.355 . S
C476 C478 1.419 . S
C477 C472 1.425 . S
C477 C474 1.409 . S
C477 C475 1.415 . S
C478 H468 0.930 . S
C478 C476 1.419 . S
C478 C479 1.362 . S
C479 H469 0.930 . S
C479 C472 1.409 . S
C479 C478 1.362 . S
H480 C486 0.930 . S
H481 C489 0.930 . S
H482 C490 0.930 . S
H483 C491 0.930 . S
H484 C494 0.930 . S
H485 C495 0.930 . S
C486 H480 0.930 . S
C486 C487 1.355 . S
C486 C488 1.415 . S
C487 C486 1.355 . S
C487 C489 1.419 1_554 S
C488 C486 1.415 . S
C488 C493 1.425 1_554 S
C488 C495 1.409 . S
C489 H481 0.930 . S
C489 C487 1.419 1_556 S
C489 C490 1.362 . S
C490 H482 0.930 . S
C490 C489 1.362 . S
C490 C493 1.409 . S
C491 H483 0.930 . S
C491 C492 1.355 1_556 S
C491 C493 1.415 . S
C492 C491 1.355 1_554 S
C492 C494 1.419 . S
C493 C488 1.425 1_556 S
C493 C490 1.409 . S
C493 C491 1.415 . S
C494 H484 0.930 . S
C494 C492 1.419 . S
C494 C495 1.362 . S
C495 H485 0.930 . S
C495 C488 1.409 . S
C495 C494 1.362 . S
H496 C502 0.930 . S
H497 C505 0.930 . S
H498 C506 0.930 . S
H499 C507 0.930 . S
H500 C510 0.930 . S
H501 C511 0.930 . S
C502 H496 0.930 . S
C502 C503 1.355 . S
C502 C504 1.415 . S
C503 C502 1.355 . S
C503 C505 1.419 . S
C504 C502 1.415 . S
C504 C509 1.425 . S
C504 C511 1.409 . S
C505 H497 0.930 . S
C505 C503 1.419 . S
C505 C506 1.362 . S
C506 H498 0.930 . S
C506 C505 1.362 . S
C506 C509 1.409 . S
C507 H499 0.930 . S
C507 C508 1.355 . S
C507 C509 1.415 . S
C508 C507 1.355 . S
C508 C510 1.419 . S
C509 C504 1.425 . S
C509 C506 1.409 . S
C509 C507 1.415 . S
C510 H500 0.930 . S
C510 C508 1.419 . S
C510 C511 1.362 . S
C511 H501 0.930 . S
C511 C504 1.409 . S
C511 C510 1.362 . S
H512 C518 0.930 . S
H513 C521 0.930 . S
H514 C522 0.930 . S
H515 C523 0.930 . S
H516 C526 0.930 . S
H517 C527 0.930 . S
C518 H512 0.930 . S
C518 C519 1.355 . S
C518 C520 1.415 . S
C519 C518 1.355 . S
C519 C521 1.419 . S
C520 C518 1.415 . S
C520 C525 1.425 . S
C520 C527 1.409 . S
C521 H513 0.930 . S
C521 C519 1.419 . S
C521 C522 1.362 . S
C522 H514 0.930 . S
C522 C521 1.362 . S
C522 C525 1.409 . S
C523 H515 0.930 . S
C523 C524 1.355 . S
C523 C525 1.415 . S
C524 C523 1.355 . S
C524 C526 1.419 . S
C525 C520 1.425 . S
C525 C522 1.409 . S
C525 C523 1.415 . S
C526 H516 0.930 . S
C526 C524 1.419 . S
C526 C527 1.362 . S
C527 H517 0.930 . S
C527 C520 1.409 . S
C527 C526 1.362 . S
H528 C534 0.930 . S
H529 C537 0.930 . S
H530 C538 0.930 . S
H531 C539 0.930 . S
H532 C542 0.930 . S
H533 C543 0.930 . S
C534 H528 0.930 . S
C534 C535 1.355 1_556 S
C534 C536 1.415 . S
C535 C534 1.355 1_554 S
C535 C537 1.419 . S
C536 C534 1.415 . S
C536 C541 1.425 1_556 S
C536 C543 1.409 . S
C537 H529 0.930 . S
C537 C535 1.419 . S
C537 C538 1.362 . S
C538 H530 0.930 . S
C538 C537 1.362 . S
C538 C541 1.409 . S
C539 H531 0.930 . S
C539 C540 1.355 . S
C539 C541 1.415 . S
C540 C539 1.355 . S
C540 C542 1.419 1_554 S
C541 C536 1.425 1_554 S
C541 C538 1.409 . S
C541 C539 1.415 . S
C542 H532 0.930 . S
C542 C540 1.419 1_556 S
C542 C543 1.362 . S
C543 H533 0.930 . S
C543 C536 1.409 . S
C543 C542 1.362 . S
H544 C550 0.930 . S
H545 C553 0.930 . S
H546 C554 0.930 . S
H547 C555 0.930 . S
H548 C558 0.930 . S
H549 C559 0.930 . S
C550 H544 0.930 . S
C550 C551 1.355 . S
C550 C552 1.415 . S
C551 C550 1.355 . S
C551 C553 1.419 . S
C552 C550 1.415 . S
C552 C557 1.425 . S
C552 C559 1.409 . S
C553 H545 0.930 . S
C553 C551 1.419 . S
C553 C554 1.362 . S
C554 H546 0.930 . S
C554 C553 1.362 . S
C554 C557 1.409 . S
C555 H547 0.930 . S
C555 C556 1.355 . S
C555 C557 1.415 . S
C556 C555 1.355 . S
C556 C558 1.419 . S
C557 C552 1.425 . S
C557 C554 1.409 . S
C557 C555 1.415 . S
C558 H548 0.930 . S
C558 C556 1.419 . S
C558 C559 1.362 . S
C559 H549 0.930 . S
C559 C552 1.409 . S
C559 C558 1.362 . S
H560 C566 0.930 . S
H561 C569 0.930 . S
H562 C570 0.930 . S
H563 C571 0.930 . S
H564 C574 0.930 . S
H565 C575 0.930 . S
C566 H560 0.930 . S
C566 C567 1.355 1_554 S
C566 C568 1.415 . S
C567 C566 1.355 1_556 S
C567 C569 1.419 . S
C568 C566 1.415 . S
C568 C573 1.425 1_554 S
C568 C575 1.409 . S
C569 H561 0.930 . S
C569 C567 1.419 . S
C569 C570 1.362 . S
C570 H562 0.930 . S
C570 C569 1.362 . S
C570 C573 1.409 . S
C571 H563 0.930 . S
C571 C572 1.355 1_556 S
C571 C573 1.415 . S
C572 C571 1.355 1_554 S
C572 C574 1.419 . S
C573 C568 1.425 1_556 S
C573 C570 1.409 . S
C573 C571 1.415 . S
C574 H564 0.930 . S
C574 C572 1.419 . S
C574 C575 1.362 . S
C575 H565 0.930 . S
C575 C568 1.409 . S
C575 C574 1.362 . S
C199 C5 1.472 . S
C204 C135 1.462 . S
C215 C31 1.468 . S
C220 C97 1.498 . S
C236 C110 1.435 . S
C231 C53 1.491 . S
C247 C71 1.442 . S
C252 C122 1.454 . S
C268 C162 1.449 . S
C263 C75 1.501 . S
C284 C174 1.479 . S
C279 C9 1.449 . S
C300 C187 1.457 . S
C295 C27 1.437 . S
C316 C149 1.432 . S
C311 C49 1.492 . S
C327 C51 1.439 . S
C332 C109 1.484 . S
C343 C72 1.506 . S
C348 C123 1.446 . S
C359 C6 1.446 . S
C364 C136 1.487 . S
C380 C96 1.461 . S
C375 C29 1.433 . S
C391 C28 1.504 . S
C396 C188 1.447 . S
C412 C148 1.448 . S
C407 C50 1.482 . S
C428 C161 1.437 . S
C423 C73 1.464 . S
C439 C7 1.446 . S
C444 C175 1.486 . S
C460 C92 1.468 1_554 S
C455 C4 1.501 1_556 S
C476 C105 1.458 . S
C471 C30 1.481 . S
C487 C52 1.512 . S
C492 C118 1.464 . S
C503 C70 1.516 . S
C508 C131 1.484 . S
C524 C144 1.419 . S
C519 C74 1.516 . S
C535 C8 1.510 . S
C540 C157 1.447 . S
C551 C26 1.516 . S
C556 C170 1.481 . S
C567 C48 1.489 1_556 S
C572 C183 1.491 1_554 S
