# Generated by pormake.
# Topology wbl, (4,4)-cn, num edge types: 1
# Building blocks:
#     Node 0, Type 0, BuildingBlock: NAWXER_clean_linker_0, # of connection points: 4
#     Node 1, Type 0, BuildingBlock: NAWXER_clean_linker_0, # of connection points: 4
#     Node 2, Type 0, BuildingBlock: NAWXER_clean_linker_0, # of connection points: 4
#     Node 3, Type 0, BuildingBlock: NAWXER_clean_linker_0, # of connection points: 4
#     Node 4, Type 0, BuildingBlock: NAWXER_clean_linker_0, # of connection points: 4
#     Node 5, Type 0, BuildingBlock: NAWXER_clean_linker_0, # of connection points: 4
#     Node 6, Type 0, BuildingBlock: NAWXER_clean_linker_0, # of connection points: 4
#     Node 7, Type 0, BuildingBlock: NAWXER_clean_linker_0, # of connection points: 4
#     Node 8, Type 1, BuildingBlock: NAHDIM_clean_sbu_0, # of connection points: 4
#     Node 9, Type 1, BuildingBlock: NAHDIM_clean_sbu_0, # of connection points: 4
#     Node 10, Type 1, BuildingBlock: NAHDIM_clean_sbu_0, # of connection points: 4
#     Node 11, Type 1, BuildingBlock: NAHDIM_clean_sbu_0, # of connection points: 4
#     Node 12, Type 1, BuildingBlock: NAHDIM_clean_sbu_0, # of connection points: 4
#     Node 13, Type 1, BuildingBlock: NAHDIM_clean_sbu_0, # of connection points: 4
#     Node 14, Type 1, BuildingBlock: NAHDIM_clean_sbu_0, # of connection points: 4
#     Node 15, Type 1, BuildingBlock: NAHDIM_clean_sbu_0, # of connection points: 4
#     Edge 16, Type (0, 1), BuildingBlock: KIFKEQ_clean_linker_1, # of connection points: 2
#     Edge 17, Type (0, 1), BuildingBlock: KIFKEQ_clean_linker_1, # of connection points: 2
#     Edge 18, Type (0, 1), BuildingBlock: KIFKEQ_clean_linker_1, # of connection points: 2
#     Edge 19, Type (0, 1), BuildingBlock: KIFKEQ_clean_linker_1, # of connection points: 2
#     Edge 20, Type (0, 1), BuildingBlock: KIFKEQ_clean_linker_1, # of connection points: 2
#     Edge 21, Type (0, 1), BuildingBlock: KIFKEQ_clean_linker_1, # of connection points: 2
#     Edge 22, Type (0, 1), BuildingBlock: KIFKEQ_clean_linker_1, # of connection points: 2
#     Edge 23, Type (0, 1), BuildingBlock: KIFKEQ_clean_linker_1, # of connection points: 2
#     Edge 24, Type (0, 1), BuildingBlock: KIFKEQ_clean_linker_1, # of connection points: 2
#     Edge 25, Type (0, 1), BuildingBlock: KIFKEQ_clean_linker_1, # of connection points: 2
#     Edge 26, Type (0, 1), BuildingBlock: KIFKEQ_clean_linker_1, # of connection points: 2
#     Edge 27, Type (0, 1), BuildingBlock: KIFKEQ_clean_linker_1, # of connection points: 2
#     Edge 28, Type (0, 1), BuildingBlock: KIFKEQ_clean_linker_1, # of connection points: 2
#     Edge 29, Type (0, 1), BuildingBlock: KIFKEQ_clean_linker_1, # of connection points: 2
#     Edge 30, Type (0, 1), BuildingBlock: KIFKEQ_clean_linker_1, # of connection points: 2
#     Edge 31, Type (0, 1), BuildingBlock: KIFKEQ_clean_linker_1, # of connection points: 2
#     Edge 32, Type (0, 1), BuildingBlock: KIFKEQ_clean_linker_1, # of connection points: 2
#     Edge 33, Type (0, 1), BuildingBlock: KIFKEQ_clean_linker_1, # of connection points: 2
#     Edge 34, Type (0, 1), BuildingBlock: KIFKEQ_clean_linker_1, # of connection points: 2
#     Edge 35, Type (0, 1), BuildingBlock: KIFKEQ_clean_linker_1, # of connection points: 2
#     Edge 36, Type (0, 1), BuildingBlock: KIFKEQ_clean_linker_1, # of connection points: 2
#     Edge 37, Type (0, 1), BuildingBlock: KIFKEQ_clean_linker_1, # of connection points: 2
#     Edge 38, Type (0, 1), BuildingBlock: KIFKEQ_clean_linker_1, # of connection points: 2
#     Edge 39, Type (0, 1), BuildingBlock: KIFKEQ_clean_linker_1, # of connection points: 2
#     Edge 40, Type (0, 1), BuildingBlock: KIFKEQ_clean_linker_1, # of connection points: 2
#     Edge 41, Type (0, 1), BuildingBlock: KIFKEQ_clean_linker_1, # of connection points: 2
#     Edge 42, Type (0, 1), BuildingBlock: KIFKEQ_clean_linker_1, # of connection points: 2
#     Edge 43, Type (0, 1), BuildingBlock: KIFKEQ_clean_linker_1, # of connection points: 2
#     Edge 44, Type (0, 1), BuildingBlock: KIFKEQ_clean_linker_1, # of connection points: 2
#     Edge 45, Type (0, 1), BuildingBlock: KIFKEQ_clean_linker_1, # of connection points: 2
#     Edge 46, Type (0, 1), BuildingBlock: KIFKEQ_clean_linker_1, # of connection points: 2
#     Edge 47, Type (0, 1), BuildingBlock: KIFKEQ_clean_linker_1, # of connection points: 2
# Relax obj value: 0.156
# Max RMSD: 0.154
# Mean RMSD: 0.137
data_MOF--net-wbl--node1-NAHDIM_clean_sbu_0--node2-NAWXER_clean_linker_0--edge1-KIFKEQ_clean_linker_1
_symmetry_space_group_name_H-M    P1
_symmetry_Int_Tables_number       1
_symmetry_cell_setting            triclinic
loop_
_symmetry_equiv_pos_as_xyz
'x, y, z'
_cell_length_a     46.977896
_cell_length_b     45.494243
_cell_length_c     77.48034
_cell_angle_alpha  90.001514
_cell_angle_beta   89.984243
_cell_angle_gamma 89.957698
loop_
_atom_site_label
_atom_site_type_symbol
_atom_site_fract_x
_atom_site_fract_y
_atom_site_fract_z
_atom_type_partial_charge
C0 C 0.05908 0.90978 0.36654 0.0
C1 C 0.07136 0.92067 0.38182 0.0
C2 C 0.04161 0.92761 0.35637 0.0
C3 C 0.03687 0.95717 0.36082 0.0
C4 C 0.06619 0.95017 0.38638 0.0
C5 C 0.04931 0.96818 0.37596 0.0
C6 C 0.01727 0.97616 0.35068 0.0
C7 C 0.08566 0.95252 0.31301 0.0
C8 C 0.07716 0.92992 0.30181 0.0
C9 C 0.06558 0.96747 0.32293 0.0
C10 C 0.03663 0.9603 0.32165 0.0
C11 C 0.04816 0.92286 0.3004 0.0
C12 C 0.02793 0.93834 0.31008 0.0
C13 C 0.01566 0.97584 0.33245 0.0
C14 C 0.93757 0.07751 0.31737 0.0
C15 C 0.91837 0.06474 0.30566 0.0
C16 C 0.95726 0.06011 0.32619 0.0
C17 C 0.95792 0.02956 0.32362 0.0
C18 C 0.91977 0.03425 0.30268 0.0
C19 C 0.93948 0.01687 0.31153 0.0
C20 C 0.97794 0.01081 0.33338 0.0
C21 C 0.91517 0.04484 0.373 0.0
C22 C 0.92764 0.0668 0.38325 0.0
C23 C 0.93215 0.02703 0.36248 0.0
C24 C 0.96182 0.03067 0.36233 0.0
C25 C 0.9573 0.07049 0.38298 0.0
C26 C 0.9743 0.05229 0.37276 0.0
C27 C 0.98007 0.01178 0.35153 0.0
H28 H 0.06266 0.88734 0.36244 0.0
H29 H 0.0313 0.91788 0.34528 0.0
H30 H 0.07453 0.95931 0.39824 0.0
H31 H 0.04567 0.99072 0.37991 0.0
H32 H 0.10796 0.95817 0.31434 0.0
H33 H 0.07262 0.98457 0.33167 0.0
H34 H 0.04122 0.90552 0.2918 0.0
H35 H 0.00562 0.93267 0.30889 0.0
H36 H 0.93742 0.10099 0.3197 0.0
H37 H 0.97196 0.07054 0.33505 0.0
H38 H 0.90512 0.02368 0.29386 0.0
H39 H 0.93983 0.99337 0.30925 0.0
H40 H 0.89232 0.04164 0.37306 0.0
H41 H 0.92221 0.01027 0.3546 0.0
H42 H 0.96734 0.08713 0.39091 0.0
H43 H -0.00282 0.0553 0.37283 0.0
N44 N -0.00044 0.99443 0.35949 0.0
N45 N 0.99584 0.99287 0.32448 0.0
C46 C 0.91258 0.44171 0.62157 0.0
C47 C 0.9223 0.42409 0.63526 0.0
C48 C 0.93189 0.45606 0.61078 0.0
C49 C 0.96136 0.45282 0.6133 0.0
C50 C 0.95179 0.42046 0.63758 0.0
C51 C 0.97111 0.43482 0.62677 0.0
C52 C 0.98187 0.47047 0.60314 0.0
C53 C 0.9464 0.40769 0.56479 0.0
C54 C 0.92689 0.42028 0.55327 0.0
C55 C 0.9632 0.42549 0.57527 0.0
C56 C 0.96089 0.4562 0.57431 0.0
C57 C 0.92439 0.45096 0.55228 0.0
C58 C 0.94164 0.46888 0.56261 0.0
C59 C 0.97944 0.47471 0.58516 0.0
C60 C 0.07979 0.55351 0.56914 0.0
C61 C 0.0657 0.57674 0.56077 0.0
C62 C 0.06417 0.53101 0.57699 0.0
C63 C 0.03427 0.53151 0.5766 0.0
C64 C 0.03583 0.57633 0.5597 0.0
C65 C 0.02029 0.55383 0.56746 0.0
C66 C 0.01716 0.50963 0.58609 0.0
C67 C 0.06411 0.56296 0.62639 0.0
C68 C 0.08209 0.54582 0.63687 0.0
C69 C 0.04428 0.54957 0.61549 0.0
C70 C 0.04237 0.51879 0.61469 0.0
C71 C 0.08013 0.51502 0.63597 0.0
C72 C 0.06036 0.50168 0.62506 0.0
C73 C 0.0207 0.5041 0.6039 0.0
H74 H 0.89001 0.44483 0.61938 0.0
H75 H 0.92371 0.47052 0.60085 0.0
H76 H 0.95998 0.40738 0.64816 0.0
H77 H 0.99371 0.43227 0.62912 0.0
H78 H 0.94859 0.38403 0.56567 0.0
H79 H 0.97828 0.41527 0.58398 0.0
H80 H 0.90945 0.46096 0.54339 0.0
H81 H 0.93975 0.49256 0.56162 0.0
H82 H 0.10278 0.55328 0.57014 0.0
H83 H 0.07538 0.5136 0.58368 0.0
H84 H 0.02446 0.59368 0.55306 0.0
H85 H -0.00275 0.55442 0.56684 0.0
H86 H 0.06476 0.58674 0.62702 0.0
H87 H 0.03007 0.56324 0.60795 0.0
H88 H 0.09385 0.50121 0.64374 0.0
H89 H 0.05911 0.4779 0.62471 0.0
N90 N 0.00277 0.48491 0.61176 0.0
N91 N -0.00322 0.49454 0.57733 0.0
C92 C 0.53733 0.41587 0.87787 0.0
C93 C 0.55286 0.42974 0.89107 0.0
C94 C 0.52422 0.43251 0.86493 0.0
C95 C 0.52669 0.46329 0.86487 0.0
C96 C 0.55563 0.4605 0.89079 0.0
C97 C 0.54255 0.47708 0.87789 0.0
C98 C 0.51072 0.48155 0.85237 0.0
C99 C 0.57495 0.43275 0.82104 0.0
C100 C 0.56363 0.41326 0.80874 0.0
C101 C 0.55745 0.45293 0.82946 0.0
C102 C 0.52817 0.45387 0.82593 0.0
C103 C 0.53435 0.41447 0.80505 0.0
C104 C 0.51679 0.43469 0.81353 0.0
C105 C 0.50977 0.47593 0.83443 0.0
C106 C 0.44515 0.5813 0.8082 0.0
C107 C 0.42299 0.56816 0.79881 0.0
C108 C 0.4633 0.56407 0.81828 0.0
C109 C 0.45966 0.53346 0.81901 0.0
C110 C 0.42016 0.53741 0.799 0.0
C111 C 0.43857 0.52016 0.8089 0.0
C112 C 0.47694 0.51547 0.83088 0.0
C113 C 0.41457 0.56305 0.86584 0.0
C114 C 0.42755 0.58219 0.87774 0.0
C115 C 0.43109 0.54407 0.85578 0.0
C116 C 0.46085 0.54398 0.85738 0.0
C117 C 0.45745 0.58283 0.87874 0.0
C118 C 0.47389 0.56372 0.86878 0.0
C119 C 0.47827 0.52131 0.84873 0.0
H120 H 0.53448 0.39225 0.87786 0.0
H121 H 0.51142 0.42139 0.85532 0.0
H122 H 0.56781 0.47182 0.90062 0.0
H123 H 0.54463 0.5008 0.87815 0.0
H124 H 0.59754 0.43296 0.82384 0.0
H125 H 0.56696 0.4682 0.83849 0.0
H126 H 0.525 0.39972 0.79566 0.0
H127 H 0.49429 0.43527 0.81047 0.0
H128 H 0.44767 0.60496 0.80833 0.0
H129 H 0.47975 0.57469 0.82583 0.0
H130 H 0.40334 0.52679 0.79176 0.0
H131 H 0.43558 0.49655 0.80923 0.0
H132 H 0.39161 0.56166 0.86491 0.0
H133 H 0.42051 0.52853 0.84735 0.0
H134 H 0.46815 0.59765 0.88754 0.0
H135 H 0.49683 0.56393 0.87023 0.0
N136 N 0.4951 0.50416 0.85876 0.0
N137 N 0.49267 0.49296 0.82436 0.0
C138 C 0.4605 0.88905 0.06955 0.0
C139 C 0.4425 0.90006 0.05656 0.0
C140 C 0.47723 0.90807 0.07938 0.0
C141 C 0.476 0.93852 0.07657 0.0
C142 C 0.44165 0.93053 0.0536 0.0
C143 C 0.45839 0.94956 0.06345 0.0
C144 C 0.49367 0.95888 0.08686 0.0
C145 C 0.43156 0.91974 0.12521 0.0
C146 C 0.4442 0.90578 0.1395 0.0
C147 C 0.4481 0.93606 0.11366 0.0
C148 C 0.47769 0.93829 0.11599 0.0
C149 C 0.47386 0.90791 0.14167 0.0
C150 C 0.49036 0.92399 0.13007 0.0
C151 C 0.4953 0.95781 0.10505 0.0
C152 C 0.55798 0.0676 0.12394 0.0
C153 C 0.5741 0.05681 0.13789 0.0
C154 C 0.54368 0.04829 0.11292 0.0
C155 C 0.54575 0.01776 0.11537 0.0
C156 C 0.57604 0.02623 0.14029 0.0
C157 C 0.562 0.00696 0.12917 0.0
C158 C 0.52907 -0.00305 0.10474 0.0
C159 C 0.58786 0.04594 0.07024 0.0
C160 C 0.57375 0.06314 0.0578 0.0
C161 C 0.57335 0.02375 0.07906 0.0
C162 C 0.54428 0.01882 0.07592 0.0
C163 C 0.5453 0.05643 0.05371 0.0
C164 C 0.53073 0.03453 0.0627 0.0
C165 C 0.5276 -0.00206 0.08651 0.0
H166 H 0.4615 0.86571 0.07224 0.0
H167 H 0.49119 0.89895 0.08913 0.0
H168 H 0.42831 0.93963 0.04352 0.0
H169 H 0.4574 0.97297 0.06094 0.0
H170 H 0.40882 0.91842 0.12308 0.0
H171 H 0.43761 0.94761 0.10323 0.0
H172 H 0.4843 0.89803 0.15269 0.0
H173 H 0.51307 0.92574 0.13229 0.0
H174 H 0.55615 0.091 0.12163 0.0
H175 H 0.53056 0.05726 0.10271 0.0
H176 H 0.5877 0.01709 0.15108 0.0
H177 H 0.56351 0.98352 0.1315 0.0
H178 H 0.60974 0.05042 0.07374 0.0
H179 H 0.58462 0.01112 0.08874 0.0
H180 H 0.53401 0.06867 0.04387 0.0
H181 H 0.50849 0.03066 0.05976 0.0
N182 N 0.50976 0.97901 0.07831 0.0
N183 N 0.51304 0.97679 0.1132 0.0
C184 C 0.05795 0.56978 0.887 0.0
C185 C 0.07298 0.55711 0.87321 0.0
C186 C 0.04153 0.55224 0.89796 0.0
C187 C 0.04049 0.52161 0.8956 0.0
C188 C 0.07183 0.52653 0.87081 0.0
C189 C 0.05574 0.50897 0.8819 0.0
C190 C 0.02179 0.5028 0.90634 0.0
C191 C 0.08568 0.54269 0.94153 0.0
C192 C 0.07406 0.56335 0.95305 0.0
C193 C 0.06808 0.52335 0.93255 0.0
C194 C 0.03846 0.52444 0.93478 0.0
C195 C 0.04446 0.5636 0.9558 0.0
C196 C 0.02682 0.54419 0.94677 0.0
C197 C 0.01964 0.50521 0.92451 0.0
C198 C 0.9427 0.40292 0.94117 0.0
C199 C 0.92051 0.41658 0.9503 0.0
C200 C 0.96392 0.41981 0.93338 0.0
C201 C 0.9633 0.45059 0.93466 0.0
C202 C 0.9208 0.4473 0.95232 0.0
C203 C 0.94221 0.46416 0.94468 0.0
C204 C 0.98331 0.46871 0.92457 0.0
C205 C 0.91986 0.43183 0.88671 0.0
C206 C 0.93187 0.41275 0.87442 0.0
C207 C 0.93727 0.44888 0.89735 0.0
C208 C 0.96703 0.44694 0.89603 0.0
C209 C 0.9617 0.41076 0.87322 0.0
C210 C 0.97908 0.42784 0.88385 0.0
C211 C 0.98566 0.46612 0.90648 0.0
H212 H 0.05811 0.59336 0.88895 0.0
H213 H 0.02911 0.56276 0.90798 0.0
H214 H 0.08333 0.51621 0.86031 0.0
H215 H 0.05505 0.48546 0.87969 0.0
H216 H 0.10846 0.54141 0.93947 0.0
H217 H 0.07759 0.50768 0.92373 0.0
H218 H 0.03489 0.57927 0.96458 0.0
H219 H 0.00401 0.54518 0.94878 0.0
H220 H 0.94291 0.37931 0.93936 0.0
H221 H 0.98028 0.40894 0.92586 0.0
H222 H 0.90407 0.4583 0.95946 0.0
H223 H 0.94151 0.48788 0.94588 0.0
H224 H 0.897 0.43433 0.88774 0.0
H225 H 0.92747 0.46412 0.90629 0.0
H226 H 0.97163 0.39605 0.86402 0.0
H227 H 0.00199 0.42616 0.88255 0.0
N228 N 0.00486 0.48316 0.89808 0.0
N229 N 0.00026 0.48826 0.93295 0.0
C230 C 0.41502 0.54069 0.13214 0.0
C231 C 0.42528 0.55898 0.11892 0.0
C232 C 0.43378 0.52846 0.14418 0.0
C233 C 0.46304 0.53483 0.14341 0.0
C234 C 0.45449 0.56549 0.11827 0.0
C235 C 0.47317 0.55348 0.13036 0.0
C236 C 0.4836 0.52014 0.15506 0.0
C237 C 0.42929 0.57608 0.18849 0.0
C238 C 0.41387 0.56152 0.20143 0.0
C239 C 0.45063 0.56149 0.17941 0.0
C240 C 0.45642 0.53169 0.18265 0.0
C241 C 0.42019 0.53202 0.20514 0.0
C242 C 0.44126 0.51717 0.19577 0.0
C243 C 0.47922 0.51627 0.173 0.0
C244 C 0.58719 0.45285 0.1941 0.0
C245 C 0.57604 0.42667 0.20091 0.0
C246 C 0.56921 0.47323 0.1861 0.0
C247 C 0.53986 0.46773 0.18492 0.0
C248 C 0.54648 0.42202 0.20051 0.0
C249 C 0.5285 0.44254 0.19271 0.0
C250 C 0.52119 0.48676 0.17444 0.0
C251 C 0.57642 0.43722 0.13601 0.0
C252 C 0.59254 0.45563 0.12517 0.0
C253 C 0.55547 0.44902 0.14679 0.0
C254 C 0.55054 0.47946 0.1471 0.0
C255 C 0.58801 0.48614 0.12585 0.0
C256 C 0.56711 0.4979 0.13664 0.0
C257 C 0.52632 0.49204 0.15676 0.0
H258 H 0.39267 0.53498 0.1328 0.0
H259 H 0.4255 0.51339 0.15376 0.0
H260 H 0.46294 0.57974 0.10831 0.0
H261 H 0.49565 0.55856 0.12943 0.0
H262 H 0.42544 0.5991 0.18575 0.0
H263 H 0.46287 0.57373 0.17 0.0
H264 H 0.40879 0.52049 0.21523 0.0
H265 H 0.44567 0.49435 0.19873 0.0
H266 H 0.60991 0.4569 0.19422 0.0
H267 H 0.57832 0.49275 0.18031 0.0
H268 H 0.53737 0.40212 0.20584 0.0
H269 H 0.50589 0.43801 0.19199 0.0
H270 H 0.57904 0.41358 0.13556 0.0
H271 H 0.54238 0.43423 0.15434 0.0
H272 H 0.60026 0.5009 0.11779 0.0
H273 H 0.56351 0.52143 0.1366 0.0
N274 N 0.50724 0.50833 0.14778 0.0
N275 N 0.49791 0.49918 0.18195 0.0
C276 C 0.43768 0.91785 0.3931 0.0
C277 C 0.42318 0.92692 0.37812 0.0
C278 C 0.4522 0.93819 0.40333 0.0
C279 C 0.45161 0.9683 0.39926 0.0
C280 C 0.42336 0.95701 0.37382 0.0
C281 C 0.43728 0.97741 0.38431 0.0
C282 C 0.46744 0.99018 0.40975 0.0
C283 C 0.40458 0.94863 0.445 0.0
C284 C 0.41684 0.93069 0.45777 0.0
C285 C 0.42129 0.96822 0.43559 0.0
C286 C 0.45069 0.97003 0.4386 0.0
C287 C 0.44609 0.93341 0.46128 0.0
C288 C 0.46286 0.95303 0.45179 0.0
C289 C 0.46867 0.98962 0.42799 0.0
C290 C 0.53963 0.09731 0.44441 0.0
C291 C 0.5581 0.08492 0.45668 0.0
C292 C 0.52077 0.07951 0.43517 0.0
C293 C 0.52049 0.04894 0.43779 0.0
C294 C 0.5569 0.0545 0.45978 0.0
C295 C 0.53824 0.03673 0.45046 0.0
C296 C 0.50177 0.02936 0.42762 0.0
C297 C 0.56052 0.07049 0.38772 0.0
C298 C 0.54588 0.08954 0.37645 0.0
C299 C 0.54554 0.05179 0.39879 0.0
C300 C 0.51569 0.05171 0.39875 0.0
C301 C 0.51591 0.08968 0.37677 0.0
C302 C 0.50101 0.0707 0.38765 0.0
C303 C 0.49954 0.03075 0.40947 0.0
H304 H 0.43794 0.89501 0.39699 0.0
H305 H 0.46414 0.93018 0.41431 0.0
H306 H 0.41321 0.96488 0.36216 0.0
H307 H 0.43696 0.0004 0.38064 0.0
H308 H 0.38198 0.94763 0.44231 0.0
H309 H 0.41128 0.9818 0.42583 0.0
H310 H 0.45611 0.9199 0.47105 0.0
H311 H 0.48547 0.95434 0.45444 0.0
H312 H 0.5398 0.12075 0.44195 0.0
H313 H 0.50651 0.08966 0.42594 0.0
H314 H 0.57106 0.04426 0.46903 0.0
H315 H 0.53822 0.01325 0.45282 0.0
H316 H 0.58354 0.06936 0.38765 0.0
H317 H 0.55725 0.03689 0.40709 0.0
H318 H 0.50388 0.10439 0.36856 0.0
H319 H 0.47795 0.0709 0.38745 0.0
N320 N 0.48259 0.01108 0.40125 0.0
N321 N 0.48616 0.00887 0.4362 0.0
C322 C 0.06728 0.94326 0.63463 0.0
C323 C 0.05564 0.93252 0.61919 0.0
C324 C 0.04965 0.95582 0.64718 0.0
C325 C 0.01999 0.95702 0.64469 0.0
C326 C 0.02605 0.93339 0.61679 0.0
C327 C 0.00841 0.94544 0.62943 0.0
C328 C 0.00119 0.97336 0.65672 0.0
C329 C 0.0375 0.90112 0.6889 0.0
C330 C 0.05434 0.9101 0.70294 0.0
C331 C 0.02132 0.9215 0.6797 0.0
C332 C 0.02199 0.9514 0.68415 0.0
C333 C 0.05492 0.94003 0.70743 0.0
C334 C 0.03873 0.96047 0.69818 0.0
C335 C 0.00393 0.97286 0.67489 0.0
C336 C 0.90799 0.05333 0.69758 0.0
C337 C 0.92297 0.07142 0.70915 0.0
C338 C 0.92248 0.03274 0.68748 0.0
C339 C 0.95222 0.03014 0.68862 0.0
C340 C 0.95254 0.06765 0.7109 0.0
C341 C 0.96699 0.04713 0.70077 0.0
C342 C 0.96828 0.0101 0.6772 0.0
C343 C 0.93015 0.07684 0.6396 0.0
C344 C 0.91115 0.06394 0.62779 0.0
C345 C 0.94669 0.05923 0.65049 0.0
C346 C 0.9445 0.0285 0.64969 0.0
C347 C 0.90829 0.0332 0.62752 0.0
C348 C 0.925 0.01566 0.63826 0.0
C349 C 0.96454 0.00943 0.65914 0.0
H350 H 0.0901 0.94312 0.63665 0.0
H351 H 0.05938 0.96558 0.65847 0.0
H352 H 0.0166 0.92507 0.60501 0.0
H353 H 0.98569 0.94629 0.62709 0.0
H354 H 0.03678 0.87828 0.68499 0.0
H355 H 0.00797 0.91376 0.66926 0.0
H356 H 0.06739 0.94757 0.71832 0.0
H357 H 0.03926 0.98338 0.70198 0.0
H358 H 0.88522 0.05572 0.69592 0.0
H359 H 0.91048 0.0192 0.67858 0.0
H360 H 0.96459 0.08085 0.71994 0.0
H361 H 0.98988 0.04516 0.70206 0.0
H362 H 0.93273 0.10048 0.64008 0.0
H363 H 0.96197 0.06955 0.65903 0.0
H364 H 0.89416 0.02262 0.61839 0.0
H365 H 0.92325 0.99196 0.63734 0.0
N366 N 0.98126 0.99129 0.64965 0.0
N367 N 0.98773 0.99164 0.6844 0.0
C368 C 0.23047 0.67569 0.00905 0.0
O369 O 0.24145 0.66483 0.02327 0.0
O370 O 0.30136 0.67235 0.02379 0.0
Zn371 Zn 0.2885 0.69418 0.00257 0.0
O372 O 0.30768 0.67535 0.98214 0.0
C373 C 0.32756 0.74127 0.00095 0.0
O374 O 0.34285 0.72006 0.99414 0.0
O375 O 0.24622 0.69055 0.99895 0.0
C376 C 0.30664 0.68528 0.96683 0.0
O377 O 0.29218 0.70941 0.96366 0.0
C378 C 0.30742 0.64515 0.02314 0.0
O379 O 0.30379 0.63084 0.00858 0.0
O380 O 0.30194 0.73601 0.00526 0.0
C381 C 0.25315 0.82698 0.26187 0.0
O382 O 0.27656 0.84277 0.26226 0.0
O383 O 0.31522 0.80654 0.23947 0.0
Zn384 Zn 0.29628 0.78639 0.25977 0.0
O385 O 0.3135 0.80123 0.28217 0.0
C386 C 0.32606 0.73397 0.25303 0.0
O387 O 0.34623 0.75368 0.25126 0.0
O388 O 0.25531 0.79926 0.26025 0.0
C389 C 0.33396 0.7905 0.29087 0.0
O390 O 0.34636 0.76615 0.28578 0.0
C391 C 0.33967 0.81834 0.24065 0.0
O392 O 0.353 0.818 0.25555 0.0
O393 O 0.30102 0.74239 0.25684 0.0
C394 C 0.26018 0.821 0.51393 0.0
O395 O 0.24678 0.83458 0.52649 0.0
O396 O 0.18797 0.82773 0.52377 0.0
Zn397 Zn 0.20361 0.80039 0.5054 0.0
O398 O 0.18848 0.81332 0.4821 0.0
C399 C 0.16401 0.75727 0.51497 0.0
O400 O 0.14804 0.7809 0.51392 0.0
O401 O 0.2463 0.8038 0.50411 0.0
C402 C 0.17059 0.79967 0.47275 0.0
O403 O 0.16097 0.77394 0.47769 0.0
C404 C 0.16664 0.8442 0.52082 0.0
O405 O 0.15535 0.84448 0.50532 0.0
O406 O 0.1904 0.75935 0.5115 0.0
C407 C 0.26308 0.68497 0.7482 0.0
O408 O 0.25707 0.68264 0.73169 0.0
O409 O 0.19262 0.67559 0.73066 0.0
Zn410 Zn 0.20204 0.69554 0.75304 0.0
O411 O 0.18137 0.67348 0.77172 0.0
C412 C 0.16193 0.74187 0.75449 0.0
O413 O 0.1459 0.71967 0.75929 0.0
O414 O 0.24352 0.69202 0.75874 0.0
C415 C 0.17853 0.68294 0.78705 0.0
O416 O 0.18875 0.7089 0.79113 0.0
C417 C 0.19534 0.64795 0.72905 0.0
O418 O 0.20612 0.63273 0.7419 0.0
O419 O 0.18817 0.73737 0.75146 0.0
C420 C 0.73761 0.16877 0.50359 0.0
O421 O 0.75512 0.14835 0.50918 0.0
O422 O 0.80327 0.17633 0.52366 0.0
Zn423 Zn 0.79004 0.19796 0.50222 0.0
O424 O 0.80738 0.17891 0.48105 0.0
C425 C 0.82909 0.24308 0.50838 0.0
O426 O 0.84497 0.21939 0.50951 0.0
O427 O 0.74754 0.19402 0.49998 0.0
C428 C 0.82349 0.19162 0.47019 0.0
O429 O 0.82953 0.2196 0.47209 0.0
C430 C 0.82479 0.15937 0.52328 0.0
O431 O 0.83812 0.1551 0.50858 0.0
O432 O 0.80285 0.24018 0.50473 0.0
C433 C 0.72642 0.31612 0.74988 0.0
O434 O 0.73724 0.32971 0.73644 0.0
O435 O 0.79668 0.31444 0.73223 0.0
Zn436 Zn 0.78442 0.29564 0.75456 0.0
O437 O 0.80492 0.31636 0.77381 0.0
C438 C 0.82352 0.24887 0.7562 0.0
O439 O 0.84 0.27122 0.7601 0.0
O440 O 0.7423 0.29947 0.75887 0.0
C441 C 0.80589 0.30676 0.7892 0.0
O442 O 0.79263 0.28221 0.79307 0.0
C443 C 0.80313 0.34154 0.73159 0.0
O444 O 0.7998 0.35782 0.74545 0.0
O445 O 0.79718 0.25347 0.75356 0.0
C446 C 0.74551 0.30466 0.985 0.0
O447 O 0.72589 0.29953 0.97331 0.0
O448 O 0.69028 0.3234 0.0286 0.0
Zn449 Zn 0.69755 0.29901 0.00743 0.0
O450 O 0.67342 0.31464 0.98796 0.0
C451 C 0.66539 0.25411 0.02282 0.0
O452 O 0.65337 0.27781 0.0292 0.0
O453 O 0.73874 0.30366 0.00087 0.0
C454 C 0.64845 0.32482 0.99001 0.0
O455 O 0.63716 0.32503 0.00552 0.0
C456 C 0.6934 0.3511 0.02912 0.0
O457 O 0.70285 0.36496 0.01539 0.0
O458 O 0.68628 0.257 0.01251 0.0
C459 C 0.74486 0.16487 0.25879 0.0
O460 O 0.72469 0.14681 0.25376 0.0
O461 O 0.68191 0.18005 0.23749 0.0
Zn462 Zn 0.69731 0.20205 0.2581 0.0
O463 O 0.67644 0.18843 0.27935 0.0
C464 C 0.69411 0.25477 0.23873 0.0
O465 O 0.70462 0.237 0.22697 0.0
O466 O 0.73867 0.19175 0.26128 0.0
C467 C 0.65416 0.20071 0.28524 0.0
O468 O 0.64392 0.22408 0.27746 0.0
C469 C 0.65548 0.18044 0.23405 0.0
O470 O 0.63816 0.19531 0.2441 0.0
O471 O 0.69059 0.24517 0.25399 0.0
H472 H 0.08752 0.87111 0.30282 0.0
H473 H 0.11594 0.95181 0.27931 0.0
H474 H 0.12841 0.84522 0.29056 0.0
H475 H 0.15601 0.92593 0.26625 0.0
H476 H 0.24369 0.88411 0.27016 0.0
H477 H 0.19899 0.90763 0.27708 0.0
H478 H 0.15427 0.82657 0.26644 0.0
H479 H 0.19969 0.8025 0.26013 0.0
C480 C 0.10217 0.88304 0.2946 0.0
C481 C 0.09893 0.9134 0.2921 0.0
C482 C 0.12553 0.86826 0.28751 0.0
C483 C 0.14583 0.88356 0.27761 0.0
C484 C 0.14129 0.9136 0.27419 0.0
C485 C 0.11827 0.92842 0.28153 0.0
C486 C 0.22435 0.87126 0.26914 0.0
C487 C 0.22529 0.84137 0.26466 0.0
C488 C 0.19856 0.88488 0.27297 0.0
C489 C 0.17286 0.86911 0.27224 0.0
C490 C 0.17367 0.83932 0.26733 0.0
C491 C 0.19966 0.82555 0.26362 0.0
H492 H 0.11416 0.57638 0.54097 0.0
H493 H 0.05368 0.6345 0.56543 0.0
H494 H 0.13924 0.61897 0.52897 0.0
H495 H 0.07876 0.67679 0.55383 0.0
H496 H 0.10777 0.7442 0.51597 0.0
H497 H 0.08538 0.69953 0.52628 0.0
H498 H 0.16814 0.66192 0.53664 0.0
H499 H 0.19076 0.70674 0.52573 0.0
C500 C 0.1064 0.59826 0.54387 0.0
C501 C 0.08175 0.60218 0.5539 0.0
C502 C 0.12075 0.62261 0.53705 0.0
C503 C 0.11076 0.65126 0.54024 0.0
C504 C 0.08659 0.65502 0.55071 0.0
C505 C 0.07222 0.6308 0.5574 0.0
C506 C 0.12127 0.7264 0.52037 0.0
C507 C 0.15103 0.7291 0.52021 0.0
C508 C 0.1084 0.70081 0.52638 0.0
C509 C 0.12495 0.67734 0.53258 0.0
C510 C 0.15481 0.67958 0.5319 0.0
C511 C 0.16775 0.70525 0.52572 0.0
H512 H 0.43181 0.6138 0.77634 0.0
H513 H 0.36571 0.56444 0.80199 0.0
H514 H 0.39549 0.64591 0.76337 0.0
H515 H 0.32972 0.59649 0.78926 0.0
H516 H 0.27862 0.67955 0.78193 0.0
H517 H 0.31945 0.65309 0.7934 0.0
H518 H 0.35057 0.63837 0.74173 0.0
H519 H 0.30931 0.66468 0.73002 0.0
C520 C 0.40955 0.60981 0.77913 0.0
C521 C 0.40146 0.58664 0.79008 0.0
C522 C 0.38888 0.62806 0.7717 0.0
C523 C 0.35996 0.62373 0.77548 0.0
C524 C 0.35195 0.60041 0.7863 0.0
C525 C 0.37247 0.58195 0.79345 0.0
C526 C 0.29433 0.67116 0.77295 0.0
C527 C 0.29048 0.67387 0.75502 0.0
C528 C 0.31764 0.65592 0.77956 0.0
C529 C 0.33781 0.64341 0.76841 0.0
C530 C 0.3352 0.64784 0.75055 0.0
C531 C 0.3116 0.66285 0.74389 0.0
H532 H 0.45819 0.84712 0.04303 0.0
H533 H 0.38695 0.90694 0.04648 0.0
H534 H 0.42872 0.81215 0.02751 0.0
H535 H 0.35761 0.87232 0.03021 0.0
H536 H 0.30851 0.78329 0.0235 0.0
H537 H 0.33561 0.82462 0.035 0.0
H538 H 0.40503 0.80384 0.00047 0.0
H539 H 0.37831 0.76212 0.98936 0.0
C540 C 0.43625 0.85286 0.04039 0.0
C541 C 0.42485 0.87968 0.04612 0.0
C542 C 0.41943 0.83299 0.03125 0.0
C543 C 0.39081 0.83948 0.02754 0.0
C544 C 0.37952 0.86658 0.03297 0.0
C545 C 0.3964 0.88651 0.04214 0.0
C546 C 0.32934 0.78789 0.01816 0.0
C547 C 0.34148 0.76921 0.00573 0.0
C548 C 0.34485 0.81164 0.02471 0.0
C549 C 0.37268 0.81722 0.01885 0.0
C550 C 0.38393 0.79969 0.00556 0.0
C551 C 0.36855 0.77588 0.99913 0.0
H552 H 0.0722 0.58102 0.9869 0.0
H553 H 0.11845 0.59393 0.9393 0.0
H554 H 0.10521 0.61396 0.00173 0.0
H555 H 0.15197 0.62566 0.95418 0.0
H556 H 0.20085 0.69469 0.9808 0.0
H557 H 0.1586 0.67225 0.9682 0.0
H558 H 0.15437 0.61134 0.01092 0.0
H559 H 0.19604 0.63429 0.02375 0.0
C560 C 0.08924 0.5911 0.97958 0.0
C561 C 0.09291 0.58464 0.96197 0.0
C562 C 0.10827 0.60977 0.9881 0.0
C563 C 0.13128 0.62242 0.97916 0.0
C564 C 0.13431 0.61665 0.96143 0.0
C565 C 0.11534 0.59806 0.95294 0.0
C566 C 0.19054 0.67691 0.98768 0.0
C567 C 0.20206 0.66597 0.00314 0.0
C568 C 0.16643 0.66393 0.98041 0.0
C569 C 0.15343 0.63964 0.98838 0.0
C570 C 0.16375 0.63009 0.00447 0.0
C571 C 0.18777 0.64319 0.0118 0.0
H572 H 0.41092 0.56668 0.23641 0.0
H573 H 0.36995 0.59461 0.18934 0.0
H574 H 0.38317 0.60292 0.25266 0.0
H575 H 0.34223 0.63073 0.20551 0.0
H576 H 0.29147 0.69116 0.23964 0.0
H577 H 0.30634 0.64209 0.22987 0.0
H578 H 0.39085 0.65819 0.24965 0.0
H579 H 0.37623 0.70693 0.25906 0.0
C580 C 0.39529 0.57988 0.22966 0.0
C581 C 0.39274 0.5782 0.21164 0.0
C582 C 0.37952 0.60065 0.23892 0.0
C583 C 0.36073 0.61973 0.23031 0.0
C584 C 0.35637 0.61616 0.21251 0.0
C585 C 0.37238 0.59569 0.20323 0.0
C586 C 0.31299 0.68381 0.24224 0.0
C587 C 0.33284 0.70282 0.24991 0.0
C588 C 0.32148 0.65585 0.23664 0.0
C589 C 0.34972 0.64638 0.23903 0.0
C590 C 0.36887 0.66472 0.24782 0.0
C591 C 0.36058 0.69273 0.25307 0.0
H592 H 0.41679 0.91867 0.49247 0.0
H593 H 0.37652 0.89421 0.44447 0.0
H594 H 0.38439 0.88616 0.50815 0.0
H595 H 0.34361 0.8628 0.46007 0.0
H596 H 0.29435 0.79737 0.48892 0.0
H597 H 0.33752 0.81886 0.4769 0.0
H598 H 0.33419 0.88784 0.51519 0.0
H599 H 0.2916 0.86592 0.5275 0.0
C600 C 0.40125 0.9061 0.48526 0.0
C601 C 0.39894 0.90926 0.46727 0.0
C602 C 0.38258 0.88765 0.49424 0.0
C603 C 0.36134 0.87194 0.48538 0.0
C604 C 0.3599 0.87424 0.46731 0.0
C605 C 0.3785 0.89262 0.45837 0.0
C606 C 0.30321 0.81673 0.49502 0.0
C607 C 0.28925 0.83024 0.50897 0.0
C608 C 0.32786 0.82914 0.48807 0.0
C609 C 0.33898 0.8554 0.49486 0.0
C610 C 0.3263 0.86755 0.50967 0.0
C611 C 0.30173 0.85504 0.51669 0.0
H612 H 0.10877 0.91466 0.71553 0.0
H613 H 0.03683 0.85571 0.71313 0.0
H614 H 0.136 0.87727 0.73108 0.0
H615 H 0.06425 0.8181 0.72784 0.0
H616 H 0.10984 0.76122 0.76477 0.0
H617 H 0.08474 0.80495 0.75497 0.0
H618 H 0.15823 0.83033 0.7249 0.0
H619 H 0.1837 0.787 0.7352 0.0
C620 C 0.09872 0.89381 0.71842 0.0
C621 C 0.07072 0.88805 0.71299 0.0
C622 C 0.1144 0.87231 0.72718 0.0
C623 C 0.10233 0.84468 0.73072 0.0
C624 C 0.07412 0.83925 0.72558 0.0
C625 C 0.0585 0.86068 0.71689 0.0
C626 C 0.1208 0.77638 0.75628 0.0
C627 C 0.14859 0.77049 0.75057 0.0
C628 C 0.10636 0.80136 0.75059 0.0
C629 C 0.11927 0.82085 0.73889 0.0
C630 C 0.1477 0.81586 0.73397 0.0
C631 C 0.16227 0.79096 0.73983 0.0
H632 H 0.60711 0.38055 0.82207 0.0
H633 H 0.56354 0.39968 0.77428 0.0
H634 H 0.6425 0.35222 0.80636 0.0
H635 H 0.59833 0.3701 0.75857 0.0
H636 H 0.69702 0.29129 0.77664 0.0
H637 H 0.65313 0.30916 0.78975 0.0
H638 H 0.64748 0.37696 0.75082 0.0
H639 H 0.69078 0.35858 0.73745 0.0
C640 C 0.60489 0.37836 0.80822 0.0
C641 C 0.58276 0.39272 0.7994 0.0
C642 C 0.62497 0.36175 0.79922 0.0
C643 C 0.62336 0.35897 0.78117 0.0
C644 C 0.60039 0.37211 0.77244 0.0
C645 C 0.58029 0.38881 0.78146 0.0
C646 C 0.6861 0.30966 0.77069 0.0
C647 C 0.6976 0.32378 0.75614 0.0
C648 C 0.66103 0.32 0.77826 0.0
C649 C 0.647 0.34477 0.77151 0.0
C650 C 0.65756 0.3577 0.75631 0.0
C651 C 0.68254 0.34725 0.74868 0.0
H652 H 0.54956 0.11644 0.05115 0.0
H653 H 0.62967 0.06993 0.04777 0.0
H654 H 0.57257 0.16099 0.04126 0.0
H655 H 0.65313 0.11536 0.03871 0.0
H656 H 0.67864 0.20032 0.00867 0.0
H657 H 0.65689 0.15278 0.0156 0.0
H658 H 0.60521 0.19483 0.05459 0.0
H659 H 0.6262 0.24191 0.04748 0.0
C660 C 0.57203 0.11555 0.04807 0.0
C661 C 0.58773 0.08952 0.0503 0.0
C662 C 0.58533 0.14129 0.04265 0.0
C663 C 0.61477 0.14184 0.03948 0.0
C664 C 0.6304 0.11562 0.04104 0.0
C665 C 0.61701 0.0897 0.04641 0.0
C666 C 0.66268 0.19928 0.01874 0.0
C667 C 0.65392 0.2249 0.0274 0.0
C668 C 0.6503 0.17209 0.02274 0.0
C669 C 0.62902 0.17013 0.03546 0.0
C670 C 0.62099 0.19568 0.04441 0.0
C671 C 0.63319 0.22269 0.0404 0.0
H672 H 0.88608 0.10843 0.31991 0.0
H673 H 0.90046 0.06196 0.27205 0.0
H674 H 0.84714 0.13553 0.30658 0.0
H675 H 0.86136 0.08907 0.25872 0.0
H676 H 0.76508 0.10982 0.25253 0.0
H677 H 0.80966 0.08847 0.26231 0.0
H678 H 0.8341 0.17191 0.2844 0.0
H679 H 0.78905 0.19333 0.27479 0.0
C680 C 0.88129 0.1044 0.30644 0.0
C681 C 0.89624 0.08289 0.29707 0.0
C682 C 0.85899 0.11998 0.2988 0.0
C683 C 0.8511 0.11436 0.28161 0.0
C684 C 0.86668 0.09357 0.27206 0.0
C685 C 0.88901 0.07801 0.27971 0.0
C686 C 0.78006 0.12376 0.2593 0.0
C687 C 0.77341 0.15321 0.26302 0.0
C688 C 0.80574 0.11155 0.2648 0.0
C689 C 0.82537 0.12846 0.27419 0.0
C690 C 0.81922 0.15824 0.27736 0.0
C691 C 0.79352 0.17054 0.27178 0.0
H692 H 0.94498 0.3882 0.5261 0.0
H693 H 0.87057 0.40794 0.55652 0.0
H694 H 0.91926 0.34868 0.51156 0.0
H695 H 0.84488 0.36759 0.54254 0.0
H696 H 0.80261 0.29705 0.50957 0.0
H697 H 0.82436 0.34442 0.51686 0.0
H698 H 0.90595 0.30149 0.52243 0.0
H699 H 0.88464 0.25491 0.51486 0.0
C700 C 0.92287 0.38433 0.52936 0.0
C701 C 0.90961 0.40083 0.54234 0.0
C702 C 0.9082 0.36162 0.52119 0.0
C703 C 0.88018 0.35462 0.52612 0.0
C704 C 0.86635 0.37251 0.53835 0.0
C705 C 0.88099 0.39552 0.54639 0.0
C706 C 0.82525 0.29792 0.51216 0.0
C707 C 0.84188 0.27222 0.5117 0.0
C708 C 0.83767 0.32499 0.51639 0.0
C709 C 0.86692 0.32679 0.52014 0.0
C710 C 0.8835 0.30111 0.51928 0.0
C711 C 0.87117 0.27424 0.51509 0.0
H712 H 0.5725 0.08405 0.49086 0.0
H713 H 0.59273 0.12663 0.44258 0.0
H714 H 0.61247 0.10902 0.50462 0.0
H715 H 0.63283 0.15134 0.45624 0.0
H716 H 0.69749 0.20217 0.48688 0.0
H717 H 0.65008 0.1866 0.47761 0.0
H718 H 0.66334 0.10228 0.502 0.0
H719 H 0.71015 0.11792 0.51149 0.0
C720 C 0.58536 0.09895 0.48324 0.0
C721 C 0.57971 0.10315 0.46561 0.0
C722 C 0.60823 0.11324 0.49111 0.0
C723 C 0.62602 0.13191 0.48148 0.0
C724 C 0.61938 0.13736 0.46408 0.0
C725 C 0.59642 0.12315 0.45623 0.0
C726 C 0.69003 0.18051 0.4905 0.0
C727 C 0.70767 0.16117 0.49977 0.0
C728 C 0.66296 0.17155 0.48512 0.0
C729 C 0.65299 0.14315 0.48899 0.0
C730 C 0.67016 0.12442 0.49897 0.0
C731 C 0.69716 0.13332 0.5043 0.0
H732 H 0.87093 0.06956 0.7253 0.0
H733 H 0.94133 0.12752 0.71401 0.0
H734 H 0.84589 0.11012 0.73945 0.0
H735 H 0.91648 0.16778 0.728 0.0
H736 H 0.79909 0.20132 0.74037 0.0
H737 H 0.82287 0.15625 0.73118 0.0
H738 H 0.90047 0.1854 0.75572 0.0
H739 H 0.87697 0.23069 0.76449 0.0
C740 C 0.88106 0.09092 0.72587 0.0
C741 C 0.90816 0.09532 0.7186 0.0
C742 C 0.86674 0.11411 0.73397 0.0
C743 C 0.87925 0.14213 0.73494 0.0
C744 C 0.90648 0.14633 0.72784 0.0
C745 C 0.92075 0.12323 0.71979 0.0
C746 C 0.8211 0.19787 0.74402 0.0
C747 C 0.8363 0.21973 0.75291 0.0
C748 C 0.83469 0.17199 0.73882 0.0
C749 C 0.86368 0.16745 0.7425 0.0
C750 C 0.8783 0.18855 0.75233 0.0
C751 C 0.86479 0.21444 0.75743 0.0
H752 H 0.86446 0.42843 0.94543 0.0
H753 H 0.92127 0.36505 0.96859 0.0
H754 H 0.82369 0.39845 0.95382 0.0
H755 H 0.88024 0.3349 0.97702 0.0
H756 H 0.79223 0.31451 0.00537 0.0
H757 H 0.83604 0.34011 0.99725 0.0
H758 H 0.80565 0.34742 0.94486 0.0
H759 H 0.76207 0.32177 0.95282 0.0
C760 C 0.86817 0.40823 0.95249 0.0
C761 C 0.89597 0.39908 0.95644 0.0
C762 C 0.84489 0.39094 0.95712 0.0
C763 C 0.8489 0.36429 0.96593 0.0
C764 C 0.87664 0.35539 0.97024 0.0
C765 C 0.90003 0.37253 0.96539 0.0
C766 C 0.79511 0.32117 0.99206 0.0
C767 C 0.7736 0.3163 0.97976 0.0
C768 C 0.82018 0.33575 0.98743 0.0
C769 C 0.82399 0.346 0.97049 0.0
C770 C 0.80303 0.34006 0.95806 0.0
C771 C 0.77817 0.3252 0.96262 0.0
H772 H 0.57561 0.36935 0.19145 0.0
H773 H 0.62003 0.43116 0.22401 0.0
H774 H 0.60772 0.3303 0.20078 0.0
H775 H 0.65226 0.39175 0.23352 0.0
H776 H 0.67254 0.29801 0.25966 0.0
H777 H 0.6463 0.34193 0.25068 0.0
H778 H 0.66151 0.31993 0.19729 0.0
H779 H 0.68787 0.27631 0.20613 0.0
C780 C 0.59215 0.37448 0.20071 0.0
C781 C 0.59528 0.40317 0.20711 0.0
C782 C 0.61067 0.35224 0.20591 0.0
C783 C 0.63253 0.35811 0.21777 0.0
C784 C 0.63554 0.38672 0.22436 0.0
C785 C 0.61722 0.40918 0.21891 0.0
C786 C 0.67073 0.30284 0.24602 0.0
C787 C 0.68206 0.28352 0.2336 0.0
C788 C 0.65579 0.328 0.2409 0.0
C789 C 0.65166 0.33404 0.22331 0.0
C790 C 0.66414 0.31553 0.21094 0.0
C791 C 0.67934 0.29064 0.21603 0.0
H792 H 0.06455 0.86139 0.38772 0.0
H793 H 0.1171 0.93539 0.40226 0.0
H794 H 0.09122 0.83014 0.40713 0.0
H795 H 0.14163 0.9049 0.42306 0.0
H796 H 0.1954 0.84132 0.45243 0.0
H797 H 0.17389 0.86816 0.42856 0.0
H798 H 0.09565 0.81952 0.43593 0.0
H799 H 0.11801 0.79148 0.4589 0.0
C800 C 0.08185 0.8711 0.39496 0.0
C801 C 0.08845 0.90115 0.39335 0.0
C802 C 0.09687 0.85317 0.40643 0.0
C803 C 0.11849 0.86487 0.41694 0.0
C804 C 0.12543 0.8948 0.4151 0.0
C805 C 0.11087 0.91257 0.40334 0.0
C806 C 0.17373 0.83617 0.44872 0.0
C807 C 0.15835 0.81436 0.45748 0.0
C808 C 0.16124 0.85174 0.43513 0.0
C809 C 0.1328 0.84639 0.4303 0.0
C810 C 0.11771 0.82404 0.43895 0.0
C811 C 0.13046 0.808 0.45224 0.0
H812 H 0.1163 0.5938 0.63159 0.0
H813 H 0.09247 0.52992 0.67022 0.0
H814 H 0.14746 0.61793 0.65248 0.0
H815 H 0.12336 0.55398 0.69104 0.0
H816 H 0.19659 0.58917 0.72173 0.0
H817 H 0.17258 0.56382 0.69815 0.0
H818 H 0.1425 0.64714 0.67852 0.0
H819 H 0.16703 0.67252 0.70181 0.0
C820 C 0.1177 0.58494 0.64453 0.0
C821 C 0.10194 0.55994 0.64925 0.0
C822 C 0.13555 0.59873 0.65649 0.0
C823 C 0.13797 0.58784 0.67342 0.0
C824 C 0.12246 0.56261 0.67802 0.0
C825 C 0.10469 0.54883 0.66609 0.0
C826 C 0.18517 0.60211 0.71226 0.0
C827 C 0.18351 0.63284 0.71375 0.0
C828 C 0.17127 0.58756 0.6988 0.0
C829 C 0.15536 0.60342 0.68656 0.0
C830 C 0.15475 0.63426 0.68763 0.0
C831 C 0.1687 0.64881 0.70106 0.0
H832 H 0.37736 0.61157 0.87155 0.0
H833 H 0.43783 0.59165 0.91193 0.0
H834 H 0.34707 0.63663 0.89259 0.0
H835 H 0.40843 0.61775 0.93262 0.0
H836 H 0.31509 0.70365 0.93349 0.0
H837 H 0.34433 0.68002 0.91136 0.0
H838 H 0.36356 0.60943 0.94681 0.0
H839 H 0.33507 0.63321 0.96893 0.0
C840 C 0.38429 0.61271 0.88486 0.0
C841 C 0.41002 0.59956 0.89004 0.0
C842 C 0.36708 0.6273 0.89687 0.0
C843 C 0.37523 0.62897 0.91431 0.0
C844 C 0.40128 0.61645 0.91935 0.0
C845 C 0.41838 0.60185 0.90741 0.0
C846 C 0.3255 0.68304 0.93651 0.0
C847 C 0.32293 0.67043 0.95301 0.0
C848 C 0.34215 0.66945 0.92382 0.0
C849 C 0.35651 0.64301 0.92739 0.0
C850 C 0.3533 0.63011 0.94375 0.0
C851 C 0.3368 0.64368 0.95641 0.0
H852 H 0.39181 0.92195 0.152 0.0
H853 H 0.45675 0.85509 0.15707 0.0
H854 H 0.3652 0.89945 0.1756 0.0
H855 H 0.43049 0.83331 0.18101 0.0
H856 H 0.39563 0.83268 0.23697 0.0
H857 H 0.41936 0.85199 0.21139 0.0
H858 H 0.33953 0.85134 0.18381 0.0
H859 H 0.31563 0.83176 0.20943 0.0
C860 C 0.40021 0.9022 0.15791 0.0
C861 C 0.42659 0.89049 0.1527 0.0
C862 C 0.38499 0.88942 0.17148 0.0
C863 C 0.39596 0.86487 0.18022 0.0
C864 C 0.4218 0.85255 0.17466 0.0
C865 C 0.43685 0.86509 0.16099 0.0
C866 C 0.38308 0.83668 0.22548 0.0
C867 C 0.35375 0.8307 0.22522 0.0
C868 C 0.39673 0.84752 0.2108 0.0
C869 C 0.38129 0.85297 0.19562 0.0
C870 C 0.35189 0.84738 0.19538 0.0
C871 C 0.33827 0.83612 0.21001 0.0
H872 H 0.11082 0.60101 0.88047 0.0
H873 H 0.07052 0.5555 0.83817 0.0
H874 H 0.13717 0.63144 0.85998 0.0
H875 H 0.09589 0.5864 0.81768 0.0
H876 H 0.16587 0.62466 0.78495 0.0
H877 H 0.1415 0.59441 0.80613 0.0
H878 H 0.13233 0.67001 0.83951 0.0
H879 H 0.15791 0.70002 0.81853 0.0
C880 C 0.10747 0.59773 0.86678 0.0
C881 C 0.08884 0.57581 0.86088 0.0
C882 C 0.12243 0.61521 0.85502 0.0
C883 C 0.11879 0.61134 0.83713 0.0
C884 C 0.09979 0.58959 0.83132 0.0
C885 C 0.08514 0.57192 0.84305 0.0
C886 C 0.15868 0.63483 0.79682 0.0
C887 C 0.16373 0.66475 0.80005 0.0
C888 C 0.14453 0.61751 0.80895 0.0
C889 C 0.1347 0.62976 0.82452 0.0
C890 C 0.13991 0.65971 0.82778 0.0
C891 C 0.15442 0.67699 0.81571 0.0
H892 H 0.43403 0.55894 0.08421 0.0
H893 H 0.37277 0.58421 0.12305 0.0
H894 H 0.40289 0.57824 0.06175 0.0
H895 H 0.34125 0.60323 0.10045 0.0
H896 H 0.31576 0.66751 0.05553 0.0
H897 H 0.34217 0.64509 0.07925 0.0
H898 H 0.35588 0.56734 0.04837 0.0
H899 H 0.32966 0.58973 0.02459 0.0
C900 C 0.41389 0.56867 0.08793 0.0
C901 C 0.40589 0.57026 0.10537 0.0
C902 C 0.39592 0.5794 0.07506 0.0
C903 C 0.3696 0.59213 0.07935 0.0
C904 C 0.36149 0.59364 0.0968 0.0
C905 C 0.3794 0.58262 0.10969 0.0
C906 C 0.32415 0.64551 0.05386 0.0
C907 C 0.32083 0.6305 0.03812 0.0
C908 C 0.33914 0.63263 0.06748 0.0
C909 C 0.35126 0.60457 0.0656 0.0
C910 C 0.34708 0.58916 0.05009 0.0
C911 C 0.33194 0.60194 0.03651 0.0
H912 H 0.37452 0.93445 0.35888 0.0
H913 H 0.43862 0.8696 0.37147 0.0
H914 H 0.35303 0.90041 0.33878 0.0
H915 H 0.41525 0.83446 0.3528 0.0
H916 H 0.38865 0.79082 0.3024 0.0
H917 H 0.40928 0.82265 0.32424 0.0
H918 H 0.32589 0.85906 0.33476 0.0
H919 H 0.30585 0.82856 0.31198 0.0
C920 C 0.384 0.91289 0.35749 0.0
C921 C 0.40862 0.9051 0.36677 0.0
C922 C 0.37123 0.89301 0.34616 0.0
C923 C 0.38228 0.86446 0.34405 0.0
C924 C 0.40635 0.85635 0.35375 0.0
C925 C 0.41951 0.87647 0.36479 0.0
C926 C 0.37476 0.80548 0.30951 0.0
C927 C 0.34571 0.80736 0.30547 0.0
C928 C 0.38653 0.82368 0.32215 0.0
C929 C 0.36938 0.84373 0.33133 0.0
C930 C 0.34 0.84457 0.32771 0.0
C931 C 0.32839 0.82688 0.31477 0.0
H932 H 0.05613 0.95077 0.5859 0.0
H933 H 0.09709 0.8905 0.62098 0.0
H934 H 0.08535 0.93243 0.56229 0.0
H935 H 0.12558 0.87089 0.5972 0.0
H936 H 0.18746 0.85529 0.5532 0.0
H937 H 0.16273 0.87907 0.57716 0.0
H938 H 0.08864 0.8909 0.54476 0.0
H939 H 0.11374 0.86852 0.52079 0.0
C940 C 0.07133 0.93338 0.58848 0.0
C941 C 0.07425 0.9218 0.60516 0.0
C942 C 0.088 0.92275 0.57495 0.0
C943 C 0.10765 0.89987 0.57773 0.0
C944 C 0.11095 0.88873 0.59458 0.0
C945 C 0.09455 0.89978 0.60819 0.0
C946 C 0.16599 0.86329 0.5512 0.0
C947 C 0.15257 0.86009 0.53511 0.0
C948 C 0.15172 0.87672 0.56496 0.0
C949 C 0.12361 0.88691 0.56296 0.0
C950 C 0.11043 0.88392 0.54675 0.0
C951 C 0.1248 0.87089 0.53298 0.0
H952 H 0.58111 0.37705 0.88927 0.0
H953 H 0.55274 0.44322 0.9254 0.0
H954 H 0.60228 0.34924 0.91301 0.0
H955 H 0.57477 0.41613 0.94894 0.0
H956 H 0.59484 0.34827 0.98976 0.0
H957 H 0.57016 0.37133 0.96561 0.0
H958 H 0.64247 0.35384 0.93269 0.0
H959 H 0.6669 0.33025 0.9567 0.0
C960 C 0.57931 0.38559 0.90227 0.0
C961 C 0.56541 0.41243 0.90544 0.0
C962 C 0.59166 0.36982 0.91585 0.0
C963 C 0.59027 0.3805 0.93286 0.0
C964 C 0.57598 0.4071 0.93602 0.0
C965 C 0.56368 0.42285 0.92248 0.0
C966 C 0.6054 0.34917 0.97735 0.0
C967 C 0.63289 0.33756 0.97519 0.0
C968 C 0.59131 0.36251 0.96353 0.0
C969 C 0.60441 0.36457 0.94725 0.0
C970 C 0.63164 0.35234 0.945 0.0
C971 C 0.64572 0.33898 0.95881 0.0
H972 H 0.55308 0.10892 0.15032 0.0
H973 H 0.62573 0.05091 0.15406 0.0
H974 H 0.57384 0.14076 0.17212 0.0
H975 H 0.64556 0.08169 0.1767 0.0
H976 H 0.68563 0.15501 0.2078 0.0
H977 H 0.66701 0.12753 0.18327 0.0
H978 H 0.58139 0.14045 0.20233 0.0
H979 H 0.59995 0.16882 0.22642 0.0
C980 C 0.57359 0.10304 0.15567 0.0
C981 C 0.58765 0.07722 0.15044 0.0
C982 C 0.58531 0.1211 0.16839 0.0
C983 C 0.61125 0.11368 0.17634 0.0
C984 C 0.62567 0.08827 0.17079 0.0
C985 C 0.61408 0.07036 0.15795 0.0
C986 C 0.66282 0.15207 0.20669 0.0
C987 C 0.64426 0.16405 0.21905 0.0
C988 C 0.65214 0.13618 0.19267 0.0
C989 C 0.62267 0.1317 0.1908 0.0
C990 C 0.60416 0.14388 0.20315 0.0
C991 C 0.61482 0.15999 0.21706 0.0
H992 H 0.92447 0.12645 0.38351 0.0
H993 H 0.89142 0.04897 0.40848 0.0
H994 H 0.89691 0.15747 0.40303 0.0
H995 H 0.86517 0.07965 0.42879 0.0
H996 H 0.80457 0.14036 0.456 0.0
H997 H 0.82731 0.11116 0.43355 0.0
H998 H 0.89619 0.17415 0.43119 0.0
H999 H 0.87242 0.20407 0.45282 0.0
C1000 C 0.91131 0.11616 0.39329 0.0
C1001 C 0.90995 0.08545 0.39457 0.0
C1002 C 0.89569 0.13386 0.40458 0.0
C1003 C 0.87887 0.12121 0.41768 0.0
C1004 C 0.87738 0.09032 0.41873 0.0
C1005 C 0.89254 0.07266 0.40719 0.0
C1006 C 0.82446 0.14802 0.45053 0.0
C1007 C 0.83673 0.17447 0.45614 0.0
C1008 C 0.83766 0.13117 0.43774 0.0
C1009 C 0.86379 0.14006 0.43052 0.0
C1010 C 0.87586 0.16675 0.43611 0.0
C1011 C 0.86233 0.18389 0.44863 0.0
H1012 H 0.9235 0.36898 0.64948 0.0
H1013 H 0.87507 0.44976 0.64932 0.0
H1014 H 0.89207 0.34911 0.67167 0.0
H1015 H 0.84309 0.42951 0.67104 0.0
H1016 H 0.82022 0.39817 0.72619 0.0
H1017 H 0.8467 0.41749 0.70168 0.0
H1018 H 0.84323 0.33238 0.67704 0.0
H1019 H 0.81708 0.31285 0.70171 0.0
C1020 C 0.90602 0.38239 0.65409 0.0
C1021 C 0.90186 0.41098 0.64769 0.0
C1022 C 0.88782 0.3709 0.66665 0.0
C1023 C 0.86511 0.38777 0.67314 0.0
C1024 C 0.86056 0.41608 0.66643 0.0
C1025 C 0.87871 0.42754 0.65384 0.0
C1026 C 0.82484 0.38362 0.71548 0.0
C1027 C 0.81668 0.35393 0.71596 0.0
C1028 C 0.83991 0.39475 0.70138 0.0
C1029 C 0.84718 0.37642 0.68744 0.0
C1030 C 0.83828 0.34694 0.68769 0.0
C1031 C 0.82314 0.33582 0.70178 0.0
H1032 H 0.59689 0.11817 0.38118 0.0
H1033 H 0.5309 0.10336 0.34323 0.0
H1034 H 0.6235 0.14708 0.36007 0.0
H1035 H 0.55701 0.13317 0.32255 0.0
H1036 H 0.59961 0.21141 0.29577 0.0
H1037 H 0.57339 0.18665 0.31882 0.0
H1038 H 0.648 0.13531 0.33109 0.0
H1039 H 0.67422 0.15982 0.30799 0.0
C1040 C 0.58801 0.12103 0.36839 0.0
C1041 C 0.56168 0.10835 0.36397 0.0
C1042 C 0.60321 0.13772 0.35636 0.0
C1043 C 0.59221 0.14245 0.33974 0.0
C1044 C 0.56575 0.13026 0.33538 0.0
C1045 C 0.55076 0.11325 0.34729 0.0
C1046 C 0.6105 0.19505 0.30349 0.0
C1047 C 0.63893 0.18745 0.30001 0.0
C1048 C 0.59546 0.18081 0.31661 0.0
C1049 C 0.60868 0.15904 0.32668 0.0
C1050 C 0.63737 0.15216 0.3236 0.0
C1051 C 0.6523 0.16608 0.31032 0.0
H1052 H 0.93398 0.10711 0.6078 0.0
H1053 H 0.85541 0.06079 0.61764 0.0
H1054 H 0.91187 0.13207 0.58335 0.0
H1055 H 0.83334 0.08563 0.59301 0.0
H1056 H 0.79919 0.15697 0.55505 0.0
H1057 H 0.8189 0.13651 0.58174 0.0
H1058 H 0.89556 0.11225 0.55447 0.0
H1059 H 0.87602 0.13247 0.52789 0.0
C1060 C 0.91181 0.10272 0.60496 0.0
C1061 C 0.89642 0.08195 0.61459 0.0
C1062 C 0.89926 0.11677 0.59086 0.0
C1063 C 0.87101 0.11053 0.5862 0.0
C1064 C 0.85514 0.09089 0.59635 0.0
C1065 C 0.86779 0.07659 0.61036 0.0
C1066 C 0.82023 0.14723 0.55477 0.0
C1067 C 0.83606 0.14633 0.53936 0.0
C1068 C 0.83145 0.13549 0.57002 0.0
C1069 C 0.85883 0.12305 0.57017 0.0
C1070 C 0.87456 0.12211 0.55477 0.0
C1071 C 0.86326 0.13348 0.53952 0.0
H1072 H 0.88176 0.38433 0.88159 0.0
H1073 H 0.94003 0.40355 0.83994 0.0
H1074 H 0.85037 0.35901 0.86136 0.0
H1075 H 0.90939 0.37723 0.81994 0.0
H1076 H 0.83374 0.35894 0.78544 0.0
H1077 H 0.86353 0.38402 0.80643 0.0
H1078 H 0.84749 0.31493 0.84343 0.0
H1079 H 0.81705 0.29003 0.82249 0.0
C1080 C 0.88791 0.38307 0.86814 0.0
C1081 C 0.91338 0.39601 0.86238 0.0
C1082 C 0.87007 0.36831 0.85659 0.0
C1083 C 0.87731 0.36622 0.83902 0.0
C1084 C 0.90297 0.3788 0.83333 0.0
C1085 C 0.92075 0.39355 0.84486 0.0
C1086 C 0.83645 0.3491 0.79807 0.0
C1087 C 0.82309 0.32241 0.80227 0.0
C1088 C 0.8537 0.36341 0.81007 0.0
C1089 C 0.8581 0.35135 0.82655 0.0
C1090 C 0.84435 0.32491 0.83088 0.0
C1091 C 0.82701 0.31058 0.81886 0.0
H1092 H 0.63058 0.41051 0.12955 0.0
H1093 H 0.59869 0.47154 0.09146 0.0
H1094 H 0.65966 0.38675 0.10742 0.0
H1095 H 0.62743 0.44779 0.0694 0.0
H1096 H 0.69468 0.41063 0.03444 0.0
H1097 H 0.67495 0.43774 0.05888 0.0
H1098 H 0.65007 0.35584 0.08275 0.0
H1099 H 0.6703 0.32883 0.05865 0.0
C1100 C 0.6299 0.41892 0.11648 0.0
C1101 C 0.61229 0.44284 0.11224 0.0
C1102 C 0.64652 0.40533 0.10381 0.0
C1103 C 0.64579 0.41531 0.08662 0.0
C1104 C 0.62889 0.43984 0.08255 0.0
C1105 C 0.61236 0.45345 0.09521 0.0
C1106 C 0.68532 0.39843 0.04502 0.0
C1107 C 0.68388 0.36759 0.04454 0.0
C1108 C 0.6739 0.41396 0.05898 0.0
C1109 C 0.66079 0.39897 0.07273 0.0
C1110 C 0.66032 0.36809 0.0725 0.0
C1111 C 0.67176 0.35259 0.05859 0.0
loop_
_geom_bond_atom_site_label_1
_geom_bond_atom_site_label_2
_geom_bond_distance
_geom_bond_site_symmetry_2
_ccdc_geom_bond_type
C0 C1 1.384 . S
C0 C2 1.384 . S
C0 H28 0.931 . S
C1 C0 1.384 . S
C1 C4 1.382 . S
C2 C0 1.384 . S
C2 C3 1.381 . S
C2 H29 0.930 . S
C3 C2 1.381 . S
C3 C5 1.381 . S
C3 C6 1.487 . S
C4 C1 1.382 . S
C4 C5 1.387 . S
C4 H30 0.930 . S
C5 C3 1.381 . S
C5 C4 1.387 . S
C5 H31 0.931 1_565 S
C6 C3 1.487 . S
C6 C13 1.399 . S
C6 N44 1.343 1_565 S
C7 C8 1.384 . S
C7 C9 1.384 . S
C7 H32 0.931 . S
C8 C7 1.384 . S
C8 C11 1.382 . S
C9 C7 1.384 . S
C9 C10 1.381 . S
C9 H33 0.930 . S
C10 C9 1.381 . S
C10 C12 1.381 . S
C10 C13 1.487 . S
C11 C8 1.382 . S
C11 C12 1.387 . S
C11 H34 0.930 . S
C12 C10 1.381 . S
C12 C11 1.387 . S
C12 H35 0.931 . S
C13 C6 1.399 . S
C13 C10 1.487 . S
C13 N45 1.343 1_455 S
C14 C15 1.384 . S
C14 C16 1.384 . S
C14 H36 0.931 . S
C15 C14 1.384 . S
C15 C18 1.382 . S
C16 C14 1.384 . S
C16 C17 1.381 . S
C16 H37 0.930 . S
C17 C16 1.381 . S
C17 C19 1.381 . S
C17 C20 1.487 . S
C18 C15 1.382 . S
C18 C19 1.387 . S
C18 H38 0.930 . S
C19 C17 1.381 . S
C19 C18 1.387 . S
C19 H39 0.931 1_545 S
C20 C17 1.487 . S
C20 C27 1.399 . S
C20 N45 1.343 1_545 S
C21 C22 1.384 . S
C21 C23 1.384 . S
C21 H40 0.931 . S
C22 C21 1.384 . S
C22 C25 1.382 . S
C23 C21 1.384 . S
C23 C24 1.381 . S
C23 H41 0.930 . S
C24 C23 1.381 . S
C24 C26 1.381 . S
C24 C27 1.487 . S
C25 C22 1.382 . S
C25 C26 1.387 . S
C25 H42 0.930 . S
C26 C24 1.381 . S
C26 C25 1.387 . S
C26 H43 0.931 . S
C27 C20 1.399 . S
C27 C24 1.487 . S
C27 N44 1.343 1_655 S
H28 C0 0.931 . S
H29 C2 0.930 . S
H30 C4 0.930 . S
H31 C5 0.931 1_545 S
H32 C7 0.931 . S
H33 C9 0.930 . S
H34 C11 0.930 . S
H35 C12 0.931 . S
H36 C14 0.931 . S
H37 C16 0.930 . S
H38 C18 0.930 . S
H39 C19 0.931 1_565 S
H40 C21 0.931 . S
H41 C23 0.930 . S
H42 C25 0.930 . S
H43 C26 0.931 . S
N44 C6 1.343 1_545 S
N44 C27 1.343 1_455 S
N45 C13 1.343 1_655 S
N45 C20 1.343 1_565 S
C46 C47 1.384 . S
C46 C48 1.384 . S
C46 H74 0.931 . S
C47 C46 1.384 . S
C47 C50 1.382 . S
C48 C46 1.384 . S
C48 C49 1.381 . S
C48 H75 0.930 . S
C49 C48 1.381 . S
C49 C51 1.381 . S
C49 C52 1.487 . S
C50 C47 1.382 . S
C50 C51 1.387 . S
C50 H76 0.930 . S
C51 C49 1.381 . S
C51 C50 1.387 . S
C51 H77 0.931 1_655 S
C52 C49 1.487 . S
C52 C59 1.399 . S
C52 N90 1.343 1_655 S
C53 C54 1.384 . S
C53 C55 1.384 . S
C53 H78 0.931 . S
C54 C53 1.384 . S
C54 C57 1.382 . S
C55 C53 1.384 . S
C55 C56 1.381 . S
C55 H79 0.930 . S
C56 C55 1.381 . S
C56 C58 1.381 . S
C56 C59 1.487 . S
C57 C54 1.382 . S
C57 C58 1.387 . S
C57 H80 0.930 . S
C58 C56 1.381 . S
C58 C57 1.387 . S
C58 H81 0.931 . S
C59 C52 1.399 . S
C59 C56 1.487 . S
C59 N91 1.343 . S
C60 C61 1.384 . S
C60 C62 1.384 . S
C60 H82 0.931 . S
C61 C60 1.384 . S
C61 C64 1.382 . S
C62 C60 1.384 . S
C62 C63 1.381 . S
C62 H83 0.930 . S
C63 C62 1.381 . S
C63 C65 1.381 . S
C63 C66 1.487 . S
C64 C61 1.382 . S
C64 C65 1.387 . S
C64 H84 0.930 . S
C65 C63 1.381 . S
C65 C64 1.387 . S
C65 H85 0.931 1_455 S
C66 C63 1.487 . S
C66 C73 1.399 . S
C66 N91 1.343 1_455 S
C67 C68 1.384 . S
C67 C69 1.384 . S
C67 H86 0.931 . S
C68 C67 1.384 . S
C68 C71 1.382 . S
C69 C67 1.384 . S
C69 C70 1.381 . S
C69 H87 0.930 . S
C70 C69 1.381 . S
C70 C72 1.381 . S
C70 C73 1.487 . S
C71 C68 1.382 . S
C71 C72 1.387 . S
C71 H88 0.930 . S
C72 C70 1.381 . S
C72 C71 1.387 . S
C72 H89 0.931 . S
C73 C66 1.399 . S
C73 C70 1.487 . S
C73 N90 1.343 . S
H74 C46 0.931 . S
H75 C48 0.930 . S
H76 C50 0.930 . S
H77 C51 0.931 1_455 S
H78 C53 0.931 . S
H79 C55 0.930 . S
H80 C57 0.930 . S
H81 C58 0.931 . S
H82 C60 0.931 . S
H83 C62 0.930 . S
H84 C64 0.930 . S
H85 C65 0.931 1_655 S
H86 C67 0.931 . S
H87 C69 0.930 . S
H88 C71 0.930 . S
H89 C72 0.931 . S
N90 C52 1.343 1_455 S
N90 C73 1.343 . S
N91 C59 1.343 . S
N91 C66 1.343 1_655 S
C92 C93 1.384 . S
C92 C94 1.384 . S
C92 H120 0.931 . S
C93 C92 1.384 . S
C93 C96 1.382 . S
C94 C92 1.384 . S
C94 C95 1.381 . S
C94 H121 0.930 . S
C95 C94 1.381 . S
C95 C97 1.381 . S
C95 C98 1.487 . S
C96 C93 1.382 . S
C96 C97 1.387 . S
C96 H122 0.930 . S
C97 C95 1.381 . S
C97 C96 1.387 . S
C97 H123 0.931 . S
C98 C95 1.487 . S
C98 C105 1.399 . S
C98 N136 1.343 . S
C99 C100 1.384 . S
C99 C101 1.384 . S
C99 H124 0.931 . S
C100 C99 1.384 . S
C100 C103 1.382 . S
C101 C99 1.384 . S
C101 C102 1.381 . S
C101 H125 0.930 . S
C102 C101 1.381 . S
C102 C104 1.381 . S
C102 C105 1.487 . S
C103 C100 1.382 . S
C103 C104 1.387 . S
C103 H126 0.930 . S
C104 C102 1.381 . S
C104 C103 1.387 . S
C104 H127 0.931 . S
C105 C98 1.399 . S
C105 C102 1.487 . S
C105 N137 1.343 . S
C106 C107 1.384 . S
C106 C108 1.384 . S
C106 H128 0.931 . S
C107 C106 1.384 . S
C107 C110 1.382 . S
C108 C106 1.384 . S
C108 C109 1.381 . S
C108 H129 0.930 . S
C109 C108 1.381 . S
C109 C111 1.381 . S
C109 C112 1.487 . S
C110 C107 1.382 . S
C110 C111 1.387 . S
C110 H130 0.930 . S
C111 C109 1.381 . S
C111 C110 1.387 . S
C111 H131 0.931 . S
C112 C109 1.487 . S
C112 C119 1.399 . S
C112 N137 1.343 . S
C113 C114 1.384 . S
C113 C115 1.384 . S
C113 H132 0.931 . S
C114 C113 1.384 . S
C114 C117 1.382 . S
C115 C113 1.384 . S
C115 C116 1.381 . S
C115 H133 0.930 . S
C116 C115 1.381 . S
C116 C118 1.381 . S
C116 C119 1.487 . S
C117 C114 1.382 . S
C117 C118 1.387 . S
C117 H134 0.930 . S
C118 C116 1.381 . S
C118 C117 1.387 . S
C118 H135 0.931 . S
C119 C112 1.399 . S
C119 C116 1.487 . S
C119 N136 1.343 . S
H120 C92 0.931 . S
H121 C94 0.930 . S
H122 C96 0.930 . S
H123 C97 0.931 . S
H124 C99 0.931 . S
H125 C101 0.930 . S
H126 C103 0.930 . S
H127 C104 0.931 . S
H128 C106 0.931 . S
H129 C108 0.930 . S
H130 C110 0.930 . S
H131 C111 0.931 . S
H132 C113 0.931 . S
H133 C115 0.930 . S
H134 C117 0.930 . S
H135 C118 0.931 . S
N136 C98 1.343 . S
N136 C119 1.343 . S
N137 C105 1.343 . S
N137 C112 1.343 . S
C138 C139 1.384 . S
C138 C140 1.384 . S
C138 H166 0.931 . S
C139 C138 1.384 . S
C139 C142 1.382 . S
C140 C138 1.384 . S
C140 C141 1.381 . S
C140 H167 0.930 . S
C141 C140 1.381 . S
C141 C143 1.381 . S
C141 C144 1.487 . S
C142 C139 1.382 . S
C142 C143 1.387 . S
C142 H168 0.930 . S
C143 C141 1.381 . S
C143 C142 1.387 . S
C143 H169 0.931 . S
C144 C141 1.487 . S
C144 C151 1.399 . S
C144 N182 1.343 1_565 S
C145 C146 1.384 . S
C145 C147 1.384 . S
C145 H170 0.931 . S
C146 C145 1.384 . S
C146 C149 1.382 . S
C147 C145 1.384 . S
C147 C148 1.381 . S
C147 H171 0.930 . S
C148 C147 1.381 . S
C148 C150 1.381 . S
C148 C151 1.487 . S
C149 C146 1.382 . S
C149 C150 1.387 . S
C149 H172 0.930 . S
C150 C148 1.381 . S
C150 C149 1.387 . S
C150 H173 0.931 . S
C151 C144 1.399 . S
C151 C148 1.487 . S
C151 N183 1.343 . S
C152 C153 1.384 . S
C152 C154 1.384 . S
C152 H174 0.931 . S
C153 C152 1.384 . S
C153 C156 1.382 . S
C154 C152 1.384 . S
C154 C155 1.381 . S
C154 H175 0.930 . S
C155 C154 1.381 . S
C155 C157 1.381 . S
C155 C158 1.487 . S
C156 C153 1.382 . S
C156 C157 1.387 . S
C156 H176 0.930 . S
C157 C155 1.381 . S
C157 C156 1.387 . S
C157 H177 0.931 . S
C158 C155 1.487 . S
C158 C165 1.399 . S
C158 N183 1.343 1_545 S
C159 C160 1.384 . S
C159 C161 1.384 . S
C159 H178 0.931 . S
C160 C159 1.384 . S
C160 C163 1.382 . S
C161 C159 1.384 . S
C161 C162 1.381 . S
C161 H179 0.930 . S
C162 C161 1.381 . S
C162 C164 1.381 . S
C162 C165 1.487 . S
C163 C160 1.382 . S
C163 C164 1.387 . S
C163 H180 0.930 . S
C164 C162 1.381 . S
C164 C163 1.387 . S
C164 H181 0.931 . S
C165 C158 1.399 . S
C165 C162 1.487 . S
C165 N182 1.343 . S
H166 C138 0.931 . S
H167 C140 0.930 . S
H168 C142 0.930 . S
H169 C143 0.931 . S
H170 C145 0.931 . S
H171 C147 0.930 . S
H172 C149 0.930 . S
H173 C150 0.931 . S
H174 C152 0.931 . S
H175 C154 0.930 . S
H176 C156 0.930 . S
H177 C157 0.931 . S
H178 C159 0.931 . S
H179 C161 0.930 . S
H180 C163 0.930 . S
H181 C164 0.931 . S
N182 C144 1.343 1_545 S
N182 C165 1.343 . S
N183 C151 1.343 . S
N183 C158 1.343 1_565 S
C184 C185 1.384 . S
C184 C186 1.384 . S
C184 H212 0.931 . S
C185 C184 1.384 . S
C185 C188 1.382 . S
C186 C184 1.384 . S
C186 C187 1.381 . S
C186 H213 0.930 . S
C187 C186 1.381 . S
C187 C189 1.381 . S
C187 C190 1.487 . S
C188 C185 1.382 . S
C188 C189 1.387 . S
C188 H214 0.930 . S
C189 C187 1.381 . S
C189 C188 1.387 . S
C189 H215 0.931 . S
C190 C187 1.487 . S
C190 C197 1.399 . S
C190 N228 1.343 . S
C191 C192 1.384 . S
C191 C193 1.384 . S
C191 H216 0.931 . S
C192 C191 1.384 . S
C192 C195 1.382 . S
C193 C191 1.384 . S
C193 C194 1.381 . S
C193 H217 0.930 . S
C194 C193 1.381 . S
C194 C196 1.381 . S
C194 C197 1.487 . S
C195 C192 1.382 . S
C195 C196 1.387 . S
C195 H218 0.930 . S
C196 C194 1.381 . S
C196 C195 1.387 . S
C196 H219 0.931 . S
C197 C190 1.399 . S
C197 C194 1.487 . S
C197 N229 1.343 1_455 S
C198 C199 1.384 . S
C198 C200 1.384 . S
C198 H220 0.931 . S
C199 C198 1.384 . S
C199 C202 1.382 . S
C200 C198 1.384 . S
C200 C201 1.381 . S
C200 H221 0.930 . S
C201 C200 1.381 . S
C201 C203 1.381 . S
C201 C204 1.487 . S
C202 C199 1.382 . S
C202 C203 1.387 . S
C202 H222 0.930 . S
C203 C201 1.381 . S
C203 C202 1.387 . S
C203 H223 0.931 . S
C204 C201 1.487 . S
C204 C211 1.399 . S
C204 N229 1.343 . S
C205 C206 1.384 . S
C205 C207 1.384 . S
C205 H224 0.931 . S
C206 C205 1.384 . S
C206 C209 1.382 . S
C207 C205 1.384 . S
C207 C208 1.381 . S
C207 H225 0.930 . S
C208 C207 1.381 . S
C208 C210 1.381 . S
C208 C211 1.487 . S
C209 C206 1.382 . S
C209 C210 1.387 . S
C209 H226 0.930 . S
C210 C208 1.381 . S
C210 C209 1.387 . S
C210 H227 0.931 . S
C211 C204 1.399 . S
C211 C208 1.487 . S
C211 N228 1.343 1_655 S
H212 C184 0.931 . S
H213 C186 0.930 . S
H214 C188 0.930 . S
H215 C189 0.931 . S
H216 C191 0.931 . S
H217 C193 0.930 . S
H218 C195 0.930 . S
H219 C196 0.931 . S
H220 C198 0.931 . S
H221 C200 0.930 . S
H222 C202 0.930 . S
H223 C203 0.931 . S
H224 C205 0.931 . S
H225 C207 0.930 . S
H226 C209 0.930 . S
H227 C210 0.931 . S
N228 C190 1.343 . S
N228 C211 1.343 1_455 S
N229 C197 1.343 1_655 S
N229 C204 1.343 . S
C230 C231 1.384 . S
C230 C232 1.384 . S
C230 H258 0.931 . S
C231 C230 1.384 . S
C231 C234 1.382 . S
C232 C230 1.384 . S
C232 C233 1.381 . S
C232 H259 0.930 . S
C233 C232 1.381 . S
C233 C235 1.381 . S
C233 C236 1.487 . S
C234 C231 1.382 . S
C234 C235 1.387 . S
C234 H260 0.930 . S
C235 C233 1.381 . S
C235 C234 1.387 . S
C235 H261 0.931 . S
C236 C233 1.487 . S
C236 C243 1.399 . S
C236 N274 1.343 . S
C237 C238 1.384 . S
C237 C239 1.384 . S
C237 H262 0.931 . S
C238 C237 1.384 . S
C238 C241 1.382 . S
C239 C237 1.384 . S
C239 C240 1.381 . S
C239 H263 0.930 . S
C240 C239 1.381 . S
C240 C242 1.381 . S
C240 C243 1.487 . S
C241 C238 1.382 . S
C241 C242 1.387 . S
C241 H264 0.930 . S
C242 C240 1.381 . S
C242 C241 1.387 . S
C242 H265 0.931 . S
C243 C236 1.399 . S
C243 C240 1.487 . S
C243 N275 1.343 . S
C244 C245 1.384 . S
C244 C246 1.384 . S
C244 H266 0.931 . S
C245 C244 1.384 . S
C245 C248 1.382 . S
C246 C244 1.384 . S
C246 C247 1.381 . S
C246 H267 0.930 . S
C247 C246 1.381 . S
C247 C249 1.381 . S
C247 C250 1.487 . S
C248 C245 1.382 . S
C248 C249 1.387 . S
C248 H268 0.930 . S
C249 C247 1.381 . S
C249 C248 1.387 . S
C249 H269 0.931 . S
C250 C247 1.487 . S
C250 C257 1.399 . S
C250 N275 1.343 . S
C251 C252 1.384 . S
C251 C253 1.384 . S
C251 H270 0.931 . S
C252 C251 1.384 . S
C252 C255 1.382 . S
C253 C251 1.384 . S
C253 C254 1.381 . S
C253 H271 0.930 . S
C254 C253 1.381 . S
C254 C256 1.381 . S
C254 C257 1.487 . S
C255 C252 1.382 . S
C255 C256 1.387 . S
C255 H272 0.930 . S
C256 C254 1.381 . S
C256 C255 1.387 . S
C256 H273 0.931 . S
C257 C250 1.399 . S
C257 C254 1.487 . S
C257 N274 1.343 . S
H258 C230 0.931 . S
H259 C232 0.930 . S
H260 C234 0.930 . S
H261 C235 0.931 . S
H262 C237 0.931 . S
H263 C239 0.930 . S
H264 C241 0.930 . S
H265 C242 0.931 . S
H266 C244 0.931 . S
H267 C246 0.930 . S
H268 C248 0.930 . S
H269 C249 0.931 . S
H270 C251 0.931 . S
H271 C253 0.930 . S
H272 C255 0.930 . S
H273 C256 0.931 . S
N274 C236 1.343 . S
N274 C257 1.343 . S
N275 C243 1.343 . S
N275 C250 1.343 . S
C276 C277 1.384 . S
C276 C278 1.384 . S
C276 H304 0.931 . S
C277 C276 1.384 . S
C277 C280 1.382 . S
C278 C276 1.384 . S
C278 C279 1.381 . S
C278 H305 0.930 . S
C279 C278 1.381 . S
C279 C281 1.381 . S
C279 C282 1.487 . S
C280 C277 1.382 . S
C280 C281 1.387 . S
C280 H306 0.930 . S
C281 C279 1.381 . S
C281 C280 1.387 . S
C281 H307 0.931 1_565 S
C282 C279 1.487 . S
C282 C289 1.399 . S
C282 N320 1.343 1_565 S
C283 C284 1.384 . S
C283 C285 1.384 . S
C283 H308 0.931 . S
C284 C283 1.384 . S
C284 C287 1.382 . S
C285 C283 1.384 . S
C285 C286 1.381 . S
C285 H309 0.930 . S
C286 C285 1.381 . S
C286 C288 1.381 . S
C286 C289 1.487 . S
C287 C284 1.382 . S
C287 C288 1.387 . S
C287 H310 0.930 . S
C288 C286 1.381 . S
C288 C287 1.387 . S
C288 H311 0.931 . S
C289 C282 1.399 . S
C289 C286 1.487 . S
C289 N321 1.343 . S
C290 C291 1.384 . S
C290 C292 1.384 . S
C290 H312 0.931 . S
C291 C290 1.384 . S
C291 C294 1.382 . S
C292 C290 1.384 . S
C292 C293 1.381 . S
C292 H313 0.930 . S
C293 C292 1.381 . S
C293 C295 1.381 . S
C293 C296 1.487 . S
C294 C291 1.382 . S
C294 C295 1.387 . S
C294 H314 0.930 . S
C295 C293 1.381 . S
C295 C294 1.387 . S
C295 H315 0.931 1_545 S
C296 C293 1.487 . S
C296 C303 1.399 . S
C296 N321 1.343 1_545 S
C297 C298 1.384 . S
C297 C299 1.384 . S
C297 H316 0.931 . S
C298 C297 1.384 . S
C298 C301 1.382 . S
C299 C297 1.384 . S
C299 C300 1.381 . S
C299 H317 0.930 . S
C300 C299 1.381 . S
C300 C302 1.381 . S
C300 C303 1.487 . S
C301 C298 1.382 . S
C301 C302 1.387 . S
C301 H318 0.930 . S
C302 C300 1.381 . S
C302 C301 1.387 . S
C302 H319 0.931 . S
C303 C296 1.399 . S
C303 C300 1.487 . S
C303 N320 1.343 . S
H304 C276 0.931 . S
H305 C278 0.930 . S
H306 C280 0.930 . S
H307 C281 0.931 1_545 S
H308 C283 0.931 . S
H309 C285 0.930 . S
H310 C287 0.930 . S
H311 C288 0.931 . S
H312 C290 0.931 . S
H313 C292 0.930 . S
H314 C294 0.930 . S
H315 C295 0.931 1_565 S
H316 C297 0.931 . S
H317 C299 0.930 . S
H318 C301 0.930 . S
H319 C302 0.931 . S
N320 C282 1.343 1_545 S
N320 C303 1.343 . S
N321 C289 1.343 . S
N321 C296 1.343 1_565 S
C322 C323 1.384 . S
C322 C324 1.384 . S
C322 H350 0.931 . S
C323 C322 1.384 . S
C323 C326 1.382 . S
C324 C322 1.384 . S
C324 C325 1.381 . S
C324 H351 0.930 . S
C325 C324 1.381 . S
C325 C327 1.381 . S
C325 C328 1.487 . S
C326 C323 1.382 . S
C326 C327 1.387 . S
C326 H352 0.930 . S
C327 C325 1.381 . S
C327 C326 1.387 . S
C327 H353 0.931 1_455 S
C328 C325 1.487 . S
C328 C335 1.399 . S
C328 N366 1.343 1_455 S
C329 C330 1.384 . S
C329 C331 1.384 . S
C329 H354 0.931 . S
C330 C329 1.384 . S
C330 C333 1.382 . S
C331 C329 1.384 . S
C331 C332 1.381 . S
C331 H355 0.930 . S
C332 C331 1.381 . S
C332 C334 1.381 . S
C332 C335 1.487 . S
C333 C330 1.382 . S
C333 C334 1.387 . S
C333 H356 0.930 . S
C334 C332 1.381 . S
C334 C333 1.387 . S
C334 H357 0.931 . S
C335 C328 1.399 . S
C335 C332 1.487 . S
C335 N367 1.343 1_565 S
C336 C337 1.384 . S
C336 C338 1.384 . S
C336 H358 0.931 . S
C337 C336 1.384 . S
C337 C340 1.382 . S
C338 C336 1.384 . S
C338 C339 1.381 . S
C338 H359 0.930 . S
C339 C338 1.381 . S
C339 C341 1.381 . S
C339 C342 1.487 . S
C340 C337 1.382 . S
C340 C341 1.387 . S
C340 H360 0.930 . S
C341 C339 1.381 . S
C341 C340 1.387 . S
C341 H361 0.931 1_655 S
C342 C339 1.487 . S
C342 C349 1.399 . S
C342 N367 1.343 1_655 S
C343 C344 1.384 . S
C343 C345 1.384 . S
C343 H362 0.931 . S
C344 C343 1.384 . S
C344 C347 1.382 . S
C345 C343 1.384 . S
C345 C346 1.381 . S
C345 H363 0.930 . S
C346 C345 1.381 . S
C346 C348 1.381 . S
C346 C349 1.487 . S
C347 C344 1.382 . S
C347 C348 1.387 . S
C347 H364 0.930 . S
C348 C346 1.381 . S
C348 C347 1.387 . S
C348 H365 0.931 . S
C349 C342 1.399 . S
C349 C346 1.487 . S
C349 N366 1.343 1_545 S
H350 C322 0.931 . S
H351 C324 0.930 . S
H352 C326 0.930 . S
H353 C327 0.931 1_655 S
H354 C329 0.931 . S
H355 C331 0.930 . S
H356 C333 0.930 . S
H357 C334 0.931 . S
H358 C336 0.931 . S
H359 C338 0.930 . S
H360 C340 0.930 . S
H361 C341 0.931 1_455 S
H362 C343 0.931 . S
H363 C345 0.930 . S
H364 C347 0.930 . S
H365 C348 0.931 . S
N366 C328 1.343 1_655 S
N366 C349 1.343 1_565 S
N367 C335 1.343 1_545 S
N367 C342 1.343 1_455 S
C368 O369 1.184 . S
C368 O375 1.181 1_554 S
O369 C368 1.184 . S
O370 Zn371 1.899 . S
O370 C378 1.284 . S
Zn371 O370 1.899 . S
Zn371 O372 2.032 1_554 S
Zn371 O375 2.078 1_554 S
Zn371 O380 1.977 . S
O372 Zn371 2.032 1_556 S
O372 C376 1.278 . S
C373 O374 1.203 . S
C373 O380 1.267 . S
O374 C373 1.203 . S
O375 C368 1.181 1_556 S
O375 Zn371 2.078 1_556 S
C376 O372 1.278 . S
C376 O377 1.211 . S
O377 C376 1.211 . S
C378 O370 1.284 . S
C378 O379 1.273 . S
O379 C378 1.273 . S
O380 Zn371 1.977 . S
O380 C373 1.267 . S
C381 O382 1.160 . S
C381 O388 1.185 . S
O382 C381 1.160 . S
O383 Zn384 1.899 . S
O383 C391 1.284 . S
Zn384 O383 1.899 . S
Zn384 O385 2.032 . S
Zn384 O388 2.086 . S
Zn384 O393 1.977 . S
O385 Zn384 2.032 . S
O385 C389 1.278 . S
C386 O387 1.203 . S
C386 O393 1.267 . S
O387 C386 1.203 . S
O388 C381 1.185 . S
O388 Zn384 2.086 . S
C389 O385 1.278 . S
C389 O390 1.211 . S
O390 C389 1.211 . S
C391 O383 1.284 . S
C391 O392 1.273 . S
O392 C391 1.273 . S
O393 Zn384 1.977 . S
O393 C386 1.267 . S
C394 O395 1.160 . S
C394 O401 1.185 . S
O395 C394 1.160 . S
O396 Zn397 1.899 . S
O396 C404 1.284 . S
Zn397 O396 1.899 . S
Zn397 O398 2.032 . S
Zn397 O401 2.086 . S
Zn397 O406 1.977 . S
O398 Zn397 2.032 . S
O398 C402 1.278 . S
C399 O400 1.203 . S
C399 O406 1.267 . S
O400 C399 1.203 . S
O401 C394 1.185 . S
O401 Zn397 2.086 . S
C402 O398 1.278 . S
C402 O403 1.211 . S
O403 C402 1.211 . S
C404 O396 1.284 . S
C404 O405 1.273 . S
O405 C404 1.273 . S
O406 Zn397 1.977 . S
O406 C399 1.267 . S
C407 O408 1.160 . S
C407 O414 1.185 . S
O408 C407 1.160 . S
O409 Zn410 1.899 . S
O409 C417 1.284 . S
Zn410 O409 1.899 . S
Zn410 O411 2.032 . S
Zn410 O414 2.086 . S
Zn410 O419 1.977 . S
O411 Zn410 2.032 . S
O411 C415 1.278 . S
C412 O413 1.203 . S
C412 O419 1.267 . S
O413 C412 1.203 . S
O414 C407 1.185 . S
O414 Zn410 2.086 . S
C415 O411 1.278 . S
C415 O416 1.211 . S
O416 C415 1.211 . S
C417 O409 1.284 . S
C417 O418 1.273 . S
O418 C417 1.273 . S
O419 Zn410 1.977 . S
O419 C412 1.267 . S
C420 O421 1.160 . S
C420 O427 1.185 . S
O421 C420 1.160 . S
O422 Zn423 1.899 . S
O422 C430 1.284 . S
Zn423 O422 1.899 . S
Zn423 O424 2.032 . S
Zn423 O427 2.086 . S
Zn423 O432 1.977 . S
O424 Zn423 2.032 . S
O424 C428 1.278 . S
C425 O426 1.203 . S
C425 O432 1.267 . S
O426 C425 1.203 . S
O427 C420 1.185 . S
O427 Zn423 2.086 . S
C428 O424 1.278 . S
C428 O429 1.211 . S
O429 C428 1.211 . S
C430 O422 1.284 . S
C430 O431 1.273 . S
O431 C430 1.273 . S
O432 Zn423 1.977 . S
O432 C425 1.267 . S
C433 O434 1.160 . S
C433 O440 1.185 . S
O434 C433 1.160 . S
O435 Zn436 1.899 . S
O435 C443 1.284 . S
Zn436 O435 1.899 . S
Zn436 O437 2.032 . S
Zn436 O440 2.086 . S
Zn436 O445 1.977 . S
O437 Zn436 2.032 . S
O437 C441 1.278 . S
C438 O439 1.203 . S
C438 O445 1.267 . S
O439 C438 1.203 . S
O440 C433 1.185 . S
O440 Zn436 2.086 . S
C441 O437 1.278 . S
C441 O442 1.211 . S
O442 C441 1.211 . S
C443 O435 1.284 . S
C443 O444 1.273 . S
O444 C443 1.273 . S
O445 Zn436 1.977 . S
O445 C438 1.267 . S
C446 O447 1.184 . S
C446 O453 1.181 1_554 S
O447 C446 1.184 . S
O448 Zn449 1.899 . S
O448 C456 1.284 . S
Zn449 O448 1.899 . S
Zn449 O450 2.032 1_554 S
Zn449 O453 2.078 1_554 S
Zn449 O458 1.977 . S
O450 Zn449 2.032 1_556 S
O450 C454 1.278 . S
C451 O452 1.203 . S
C451 O458 1.267 . S
O452 C451 1.203 . S
O453 C446 1.181 1_556 S
O453 Zn449 2.078 1_556 S
C454 O450 1.278 . S
C454 O455 1.211 . S
O455 C454 1.211 . S
C456 O448 1.284 . S
C456 O457 1.273 . S
O457 C456 1.273 . S
O458 Zn449 1.977 . S
O458 C451 1.267 . S
C459 O460 1.160 . S
C459 O466 1.185 . S
O460 C459 1.160 . S
O461 Zn462 1.899 . S
O461 C469 1.284 . S
Zn462 O461 1.899 . S
Zn462 O463 2.032 . S
Zn462 O466 2.086 . S
Zn462 O471 1.977 . S
O463 Zn462 2.032 . S
O463 C467 1.278 . S
C464 O465 1.203 . S
C464 O471 1.267 . S
O465 C464 1.203 . S
O466 C459 1.185 . S
O466 Zn462 2.086 . S
C467 O463 1.278 . S
C467 O468 1.211 . S
O468 C467 1.211 . S
C469 O461 1.284 . S
C469 O470 1.273 . S
O470 C469 1.273 . S
O471 Zn462 1.977 . S
O471 C464 1.267 . S
H472 C480 0.950 . S
H473 C485 0.950 . S
H474 C482 0.950 . S
H475 C484 0.950 . S
H476 C486 0.950 . S
H477 C488 0.950 . S
H478 C490 0.950 . S
H479 C491 0.950 . S
C480 H472 0.950 . S
C480 C481 1.386 . S
C480 C482 1.391 . S
C481 C480 1.386 . S
C481 C485 1.393 . S
C482 H474 0.950 . S
C482 C480 1.391 . S
C482 C483 1.400 . S
C483 C482 1.400 . S
C483 C484 1.398 . S
C483 C489 1.491 . S
C484 H475 0.950 . S
C484 C483 1.398 . S
C484 C485 1.391 . S
C485 H473 0.950 . S
C485 C481 1.393 . S
C485 C484 1.391 . S
C486 H476 0.950 . S
C486 C487 1.386 . S
C486 C488 1.391 . S
C487 C486 1.386 . S
C487 C491 1.393 . S
C488 H477 0.950 . S
C488 C486 1.391 . S
C488 C489 1.400 . S
C489 C483 1.491 . S
C489 C488 1.400 . S
C489 C490 1.398 . S
C490 H478 0.950 . S
C490 C489 1.398 . S
C490 C491 1.391 . S
C491 H479 0.950 . S
C491 C487 1.393 . S
C491 C490 1.391 . S
H492 C500 0.950 . S
H493 C505 0.950 . S
H494 C502 0.950 . S
H495 C504 0.950 . S
H496 C506 0.950 . S
H497 C508 0.950 . S
H498 C510 0.950 . S
H499 C511 0.950 . S
C500 H492 0.950 . S
C500 C501 1.386 . S
C500 C502 1.391 . S
C501 C500 1.386 . S
C501 C505 1.393 . S
C502 H494 0.950 . S
C502 C500 1.391 . S
C502 C503 1.400 . S
C503 C502 1.400 . S
C503 C504 1.398 . S
C503 C509 1.491 . S
C504 H495 0.950 . S
C504 C503 1.398 . S
C504 C505 1.391 . S
C505 H493 0.950 . S
C505 C501 1.393 . S
C505 C504 1.391 . S
C506 H496 0.950 . S
C506 C507 1.386 . S
C506 C508 1.391 . S
C507 C506 1.386 . S
C507 C511 1.393 . S
C508 H497 0.950 . S
C508 C506 1.391 . S
C508 C509 1.400 . S
C509 C503 1.491 . S
C509 C508 1.400 . S
C509 C510 1.398 . S
C510 H498 0.950 . S
C510 C509 1.398 . S
C510 C511 1.391 . S
C511 H499 0.950 . S
C511 C507 1.393 . S
C511 C510 1.391 . S
H512 C520 0.950 . S
H513 C525 0.950 . S
H514 C522 0.950 . S
H515 C524 0.950 . S
H516 C526 0.950 . S
H517 C528 0.950 . S
H518 C530 0.950 . S
H519 C531 0.950 . S
C520 H512 0.950 . S
C520 C521 1.386 . S
C520 C522 1.391 . S
C521 C520 1.386 . S
C521 C525 1.393 . S
C522 H514 0.950 . S
C522 C520 1.391 . S
C522 C523 1.400 . S
C523 C522 1.400 . S
C523 C524 1.398 . S
C523 C529 1.491 . S
C524 H515 0.950 . S
C524 C523 1.398 . S
C524 C525 1.391 . S
C525 H513 0.950 . S
C525 C521 1.393 . S
C525 C524 1.391 . S
C526 H516 0.950 . S
C526 C527 1.386 . S
C526 C528 1.391 . S
C527 C526 1.386 . S
C527 C531 1.393 . S
C528 H517 0.950 . S
C528 C526 1.391 . S
C528 C529 1.400 . S
C529 C523 1.491 . S
C529 C528 1.400 . S
C529 C530 1.398 . S
C530 H518 0.950 . S
C530 C529 1.398 . S
C530 C531 1.391 . S
C531 H519 0.950 . S
C531 C527 1.393 . S
C531 C530 1.391 . S
H532 C540 0.950 . S
H533 C545 0.950 . S
H534 C542 0.950 . S
H535 C544 0.950 . S
H536 C546 0.950 . S
H537 C548 0.950 . S
H538 C550 0.950 . S
H539 C551 0.950 . S
C540 H532 0.950 . S
C540 C541 1.386 . S
C540 C542 1.391 . S
C541 C540 1.386 . S
C541 C545 1.393 . S
C542 H534 0.950 . S
C542 C540 1.391 . S
C542 C543 1.400 . S
C543 C542 1.400 . S
C543 C544 1.398 . S
C543 C549 1.491 . S
C544 H535 0.950 . S
C544 C543 1.398 . S
C544 C545 1.391 . S
C545 H533 0.950 . S
C545 C541 1.393 . S
C545 C544 1.391 . S
C546 H536 0.950 . S
C546 C547 1.386 . S
C546 C548 1.391 . S
C547 C546 1.386 . S
C547 C551 1.393 . S
C548 H537 0.950 . S
C548 C546 1.391 . S
C548 C549 1.400 . S
C549 C543 1.491 . S
C549 C548 1.400 . S
C549 C550 1.398 . S
C550 H538 0.950 . S
C550 C549 1.398 . S
C550 C551 1.391 . S
C551 H539 0.950 . S
C551 C547 1.393 . S
C551 C550 1.391 . S
H552 C560 0.950 . S
H553 C565 0.950 . S
H554 C562 0.950 . S
H555 C564 0.950 . S
H556 C566 0.950 . S
H557 C568 0.950 1_554 S
H558 C570 0.950 . S
H559 C571 0.950 . S
C560 H552 0.950 . S
C560 C561 1.386 . S
C560 C562 1.391 . S
C561 C560 1.386 . S
C561 C565 1.393 . S
C562 H554 0.950 . S
C562 C560 1.391 . S
C562 C563 1.400 . S
C563 C562 1.400 . S
C563 C564 1.398 . S
C563 C569 1.491 . S
C564 H555 0.950 . S
C564 C563 1.398 . S
C564 C565 1.391 . S
C565 H553 0.950 . S
C565 C561 1.393 . S
C565 C564 1.391 . S
C566 H556 0.950 . S
C566 C567 1.386 1_554 S
C566 C568 1.391 1_554 S
C567 C566 1.386 1_556 S
C567 C571 1.393 . S
C568 H557 0.950 1_556 S
C568 C566 1.391 1_556 S
C568 C569 1.400 . S
C569 C563 1.491 . S
C569 C568 1.400 . S
C569 C570 1.398 . S
C570 H558 0.950 . S
C570 C569 1.398 . S
C570 C571 1.391 . S
C571 H559 0.950 . S
C571 C567 1.393 . S
C571 C570 1.391 . S
H572 C580 0.950 . S
H573 C585 0.950 . S
H574 C582 0.950 . S
H575 C584 0.950 . S
H576 C586 0.950 . S
H577 C588 0.950 . S
H578 C590 0.950 . S
H579 C591 0.950 . S
C580 H572 0.950 . S
C580 C581 1.386 . S
C580 C582 1.391 . S
C581 C580 1.386 . S
C581 C585 1.393 . S
C582 H574 0.950 . S
C582 C580 1.391 . S
C582 C583 1.400 . S
C583 C582 1.400 . S
C583 C584 1.398 . S
C583 C589 1.491 . S
C584 H575 0.950 . S
C584 C583 1.398 . S
C584 C585 1.391 . S
C585 H573 0.950 . S
C585 C581 1.393 . S
C585 C584 1.391 . S
C586 H576 0.950 . S
C586 C587 1.386 . S
C586 C588 1.391 . S
C587 C586 1.386 . S
C587 C591 1.393 . S
C588 H577 0.950 . S
C588 C586 1.391 . S
C588 C589 1.400 . S
C589 C583 1.491 . S
C589 C588 1.400 . S
C589 C590 1.398 . S
C590 H578 0.950 . S
C590 C589 1.398 . S
C590 C591 1.391 . S
C591 H579 0.950 . S
C591 C587 1.393 . S
C591 C590 1.391 . S
H592 C600 0.950 . S
H593 C605 0.950 . S
H594 C602 0.950 . S
H595 C604 0.950 . S
H596 C606 0.950 . S
H597 C608 0.950 . S
H598 C610 0.950 . S
H599 C611 0.950 . S
C600 H592 0.950 . S
C600 C601 1.386 . S
C600 C602 1.391 . S
C601 C600 1.386 . S
C601 C605 1.393 . S
C602 H594 0.950 . S
C602 C600 1.391 . S
C602 C603 1.400 . S
C603 C602 1.400 . S
C603 C604 1.398 . S
C603 C609 1.491 . S
C604 H595 0.950 . S
C604 C603 1.398 . S
C604 C605 1.391 . S
C605 H593 0.950 . S
C605 C601 1.393 . S
C605 C604 1.391 . S
C606 H596 0.950 . S
C606 C607 1.386 . S
C606 C608 1.391 . S
C607 C606 1.386 . S
C607 C611 1.393 . S
C608 H597 0.950 . S
C608 C606 1.391 . S
C608 C609 1.400 . S
C609 C603 1.491 . S
C609 C608 1.400 . S
C609 C610 1.398 . S
C610 H598 0.950 . S
C610 C609 1.398 . S
C610 C611 1.391 . S
C611 H599 0.950 . S
C611 C607 1.393 . S
C611 C610 1.391 . S
H612 C620 0.950 . S
H613 C625 0.950 . S
H614 C622 0.950 . S
H615 C624 0.950 . S
H616 C626 0.950 . S
H617 C628 0.950 . S
H618 C630 0.950 . S
H619 C631 0.950 . S
C620 H612 0.950 . S
C620 C621 1.386 . S
C620 C622 1.391 . S
C621 C620 1.386 . S
C621 C625 1.393 . S
C622 H614 0.950 . S
C622 C620 1.391 . S
C622 C623 1.400 . S
C623 C622 1.400 . S
C623 C624 1.398 . S
C623 C629 1.491 . S
C624 H615 0.950 . S
C624 C623 1.398 . S
C624 C625 1.391 . S
C625 H613 0.950 . S
C625 C621 1.393 . S
C625 C624 1.391 . S
C626 H616 0.950 . S
C626 C627 1.386 . S
C626 C628 1.391 . S
C627 C626 1.386 . S
C627 C631 1.393 . S
C628 H617 0.950 . S
C628 C626 1.391 . S
C628 C629 1.400 . S
C629 C623 1.491 . S
C629 C628 1.400 . S
C629 C630 1.398 . S
C630 H618 0.950 . S
C630 C629 1.398 . S
C630 C631 1.391 . S
C631 H619 0.950 . S
C631 C627 1.393 . S
C631 C630 1.391 . S
H632 C640 0.950 . S
H633 C645 0.950 . S
H634 C642 0.950 . S
H635 C644 0.950 . S
H636 C646 0.950 . S
H637 C648 0.950 . S
H638 C650 0.950 . S
H639 C651 0.950 . S
C640 H632 0.950 . S
C640 C641 1.386 . S
C640 C642 1.391 . S
C641 C640 1.386 . S
C641 C645 1.393 . S
C642 H634 0.950 . S
C642 C640 1.391 . S
C642 C643 1.400 . S
C643 C642 1.400 . S
C643 C644 1.398 . S
C643 C649 1.491 . S
C644 H635 0.950 . S
C644 C643 1.398 . S
C644 C645 1.391 . S
C645 H633 0.950 . S
C645 C641 1.393 . S
C645 C644 1.391 . S
C646 H636 0.950 . S
C646 C647 1.386 . S
C646 C648 1.391 . S
C647 C646 1.386 . S
C647 C651 1.393 . S
C648 H637 0.950 . S
C648 C646 1.391 . S
C648 C649 1.400 . S
C649 C643 1.491 . S
C649 C648 1.400 . S
C649 C650 1.398 . S
C650 H638 0.950 . S
C650 C649 1.398 . S
C650 C651 1.391 . S
C651 H639 0.950 . S
C651 C647 1.393 . S
C651 C650 1.391 . S
H652 C660 0.950 . S
H653 C665 0.950 . S
H654 C662 0.950 . S
H655 C664 0.950 . S
H656 C666 0.950 1_556 S
H657 C668 0.950 . S
H658 C670 0.950 . S
H659 C671 0.950 . S
C660 H652 0.950 . S
C660 C661 1.386 . S
C660 C662 1.391 . S
C661 C660 1.386 . S
C661 C665 1.393 . S
C662 H654 0.950 . S
C662 C660 1.391 . S
C662 C663 1.400 . S
C663 C662 1.400 . S
C663 C664 1.398 . S
C663 C669 1.491 . S
C664 H655 0.950 . S
C664 C663 1.398 . S
C664 C665 1.391 . S
C665 H653 0.950 . S
C665 C661 1.393 . S
C665 C664 1.391 . S
C666 H656 0.950 1_554 S
C666 C667 1.386 . S
C666 C668 1.391 . S
C667 C666 1.386 . S
C667 C671 1.393 . S
C668 H657 0.950 . S
C668 C666 1.391 . S
C668 C669 1.400 . S
C669 C663 1.491 . S
C669 C668 1.400 . S
C669 C670 1.398 . S
C670 H658 0.950 . S
C670 C669 1.398 . S
C670 C671 1.391 . S
C671 H659 0.950 . S
C671 C667 1.393 . S
C671 C670 1.391 . S
H672 C680 0.950 . S
H673 C685 0.950 . S
H674 C682 0.950 . S
H675 C684 0.950 . S
H676 C686 0.950 . S
H677 C688 0.950 . S
H678 C690 0.950 . S
H679 C691 0.950 . S
C680 H672 0.950 . S
C680 C681 1.386 . S
C680 C682 1.391 . S
C681 C680 1.386 . S
C681 C685 1.393 . S
C682 H674 0.950 . S
C682 C680 1.391 . S
C682 C683 1.400 . S
C683 C682 1.400 . S
C683 C684 1.398 . S
C683 C689 1.491 . S
C684 H675 0.950 . S
C684 C683 1.398 . S
C684 C685 1.391 . S
C685 H673 0.950 . S
C685 C681 1.393 . S
C685 C684 1.391 . S
C686 H676 0.950 . S
C686 C687 1.386 . S
C686 C688 1.391 . S
C687 C686 1.386 . S
C687 C691 1.393 . S
C688 H677 0.950 . S
C688 C686 1.391 . S
C688 C689 1.400 . S
C689 C683 1.491 . S
C689 C688 1.400 . S
C689 C690 1.398 . S
C690 H678 0.950 . S
C690 C689 1.398 . S
C690 C691 1.391 . S
C691 H679 0.950 . S
C691 C687 1.393 . S
C691 C690 1.391 . S
H692 C700 0.950 . S
H693 C705 0.950 . S
H694 C702 0.950 . S
H695 C704 0.950 . S
H696 C706 0.950 . S
H697 C708 0.950 . S
H698 C710 0.950 . S
H699 C711 0.950 . S
C700 H692 0.950 . S
C700 C701 1.386 . S
C700 C702 1.391 . S
C701 C700 1.386 . S
C701 C705 1.393 . S
C702 H694 0.950 . S
C702 C700 1.391 . S
C702 C703 1.400 . S
C703 C702 1.400 . S
C703 C704 1.398 . S
C703 C709 1.491 . S
C704 H695 0.950 . S
C704 C703 1.398 . S
C704 C705 1.391 . S
C705 H693 0.950 . S
C705 C701 1.393 . S
C705 C704 1.391 . S
C706 H696 0.950 . S
C706 C707 1.386 . S
C706 C708 1.391 . S
C707 C706 1.386 . S
C707 C711 1.393 . S
C708 H697 0.950 . S
C708 C706 1.391 . S
C708 C709 1.400 . S
C709 C703 1.491 . S
C709 C708 1.400 . S
C709 C710 1.398 . S
C710 H698 0.950 . S
C710 C709 1.398 . S
C710 C711 1.391 . S
C711 H699 0.950 . S
C711 C707 1.393 . S
C711 C710 1.391 . S
H712 C720 0.950 . S
H713 C725 0.950 . S
H714 C722 0.950 . S
H715 C724 0.950 . S
H716 C726 0.950 . S
H717 C728 0.950 . S
H718 C730 0.950 . S
H719 C731 0.950 . S
C720 H712 0.950 . S
C720 C721 1.386 . S
C720 C722 1.391 . S
C721 C720 1.386 . S
C721 C725 1.393 . S
C722 H714 0.950 . S
C722 C720 1.391 . S
C722 C723 1.400 . S
C723 C722 1.400 . S
C723 C724 1.398 . S
C723 C729 1.491 . S
C724 H715 0.950 . S
C724 C723 1.398 . S
C724 C725 1.391 . S
C725 H713 0.950 . S
C725 C721 1.393 . S
C725 C724 1.391 . S
C726 H716 0.950 . S
C726 C727 1.386 . S
C726 C728 1.391 . S
C727 C726 1.386 . S
C727 C731 1.393 . S
C728 H717 0.950 . S
C728 C726 1.391 . S
C728 C729 1.400 . S
C729 C723 1.491 . S
C729 C728 1.400 . S
C729 C730 1.398 . S
C730 H718 0.950 . S
C730 C729 1.398 . S
C730 C731 1.391 . S
C731 H719 0.950 . S
C731 C727 1.393 . S
C731 C730 1.391 . S
H732 C740 0.950 . S
H733 C745 0.950 . S
H734 C742 0.950 . S
H735 C744 0.950 . S
H736 C746 0.950 . S
H737 C748 0.950 . S
H738 C750 0.950 . S
H739 C751 0.950 . S
C740 H732 0.950 . S
C740 C741 1.386 . S
C740 C742 1.391 . S
C741 C740 1.386 . S
C741 C745 1.393 . S
C742 H734 0.950 . S
C742 C740 1.391 . S
C742 C743 1.400 . S
C743 C742 1.400 . S
C743 C744 1.398 . S
C743 C749 1.491 . S
C744 H735 0.950 . S
C744 C743 1.398 . S
C744 C745 1.391 . S
C745 H733 0.950 . S
C745 C741 1.393 . S
C745 C744 1.391 . S
C746 H736 0.950 . S
C746 C747 1.386 . S
C746 C748 1.391 . S
C747 C746 1.386 . S
C747 C751 1.393 . S
C748 H737 0.950 . S
C748 C746 1.391 . S
C748 C749 1.400 . S
C749 C743 1.491 . S
C749 C748 1.400 . S
C749 C750 1.398 . S
C750 H738 0.950 . S
C750 C749 1.398 . S
C750 C751 1.391 . S
C751 H739 0.950 . S
C751 C747 1.393 . S
C751 C750 1.391 . S
H752 C760 0.950 . S
H753 C765 0.950 . S
H754 C762 0.950 . S
H755 C764 0.950 . S
H756 C766 0.950 . S
H757 C768 0.950 1_554 S
H758 C770 0.950 . S
H759 C771 0.950 . S
C760 H752 0.950 . S
C760 C761 1.386 . S
C760 C762 1.391 . S
C761 C760 1.386 . S
C761 C765 1.393 . S
C762 H754 0.950 . S
C762 C760 1.391 . S
C762 C763 1.400 . S
C763 C762 1.400 . S
C763 C764 1.398 . S
C763 C769 1.491 . S
C764 H755 0.950 . S
C764 C763 1.398 . S
C764 C765 1.391 . S
C765 H753 0.950 . S
C765 C761 1.393 . S
C765 C764 1.391 . S
C766 H756 0.950 . S
C766 C767 1.386 1_554 S
C766 C768 1.391 1_554 S
C767 C766 1.386 1_556 S
C767 C771 1.393 . S
C768 H757 0.950 1_556 S
C768 C766 1.391 1_556 S
C768 C769 1.400 . S
C769 C763 1.491 . S
C769 C768 1.400 . S
C769 C770 1.398 . S
C770 H758 0.950 . S
C770 C769 1.398 . S
C770 C771 1.391 . S
C771 H759 0.950 . S
C771 C767 1.393 . S
C771 C770 1.391 . S
H772 C780 0.950 . S
H773 C785 0.950 . S
H774 C782 0.950 . S
H775 C784 0.950 . S
H776 C786 0.950 . S
H777 C788 0.950 . S
H778 C790 0.950 . S
H779 C791 0.950 . S
C780 H772 0.950 . S
C780 C781 1.386 . S
C780 C782 1.391 . S
C781 C780 1.386 . S
C781 C785 1.393 . S
C782 H774 0.950 . S
C782 C780 1.391 . S
C782 C783 1.400 . S
C783 C782 1.400 . S
C783 C784 1.398 . S
C783 C789 1.491 . S
C784 H775 0.950 . S
C784 C783 1.398 . S
C784 C785 1.391 . S
C785 H773 0.950 . S
C785 C781 1.393 . S
C785 C784 1.391 . S
C786 H776 0.950 . S
C786 C787 1.386 . S
C786 C788 1.391 . S
C787 C786 1.386 . S
C787 C791 1.393 . S
C788 H777 0.950 . S
C788 C786 1.391 . S
C788 C789 1.400 . S
C789 C783 1.491 . S
C789 C788 1.400 . S
C789 C790 1.398 . S
C790 H778 0.950 . S
C790 C789 1.398 . S
C790 C791 1.391 . S
C791 H779 0.950 . S
C791 C787 1.393 . S
C791 C790 1.391 . S
H792 C800 0.950 . S
H793 C805 0.950 . S
H794 C802 0.950 . S
H795 C804 0.950 . S
H796 C806 0.950 . S
H797 C808 0.950 . S
H798 C810 0.950 . S
H799 C811 0.950 . S
C800 H792 0.950 . S
C800 C801 1.386 . S
C800 C802 1.391 . S
C801 C800 1.386 . S
C801 C805 1.393 . S
C802 H794 0.950 . S
C802 C800 1.391 . S
C802 C803 1.400 . S
C803 C802 1.400 . S
C803 C804 1.398 . S
C803 C809 1.491 . S
C804 H795 0.950 . S
C804 C803 1.398 . S
C804 C805 1.391 . S
C805 H793 0.950 . S
C805 C801 1.393 . S
C805 C804 1.391 . S
C806 H796 0.950 . S
C806 C807 1.386 . S
C806 C808 1.391 . S
C807 C806 1.386 . S
C807 C811 1.393 . S
C808 H797 0.950 . S
C808 C806 1.391 . S
C808 C809 1.400 . S
C809 C803 1.491 . S
C809 C808 1.400 . S
C809 C810 1.398 . S
C810 H798 0.950 . S
C810 C809 1.398 . S
C810 C811 1.391 . S
C811 H799 0.950 . S
C811 C807 1.393 . S
C811 C810 1.391 . S
H812 C820 0.950 . S
H813 C825 0.950 . S
H814 C822 0.950 . S
H815 C824 0.950 . S
H816 C826 0.950 . S
H817 C828 0.950 . S
H818 C830 0.950 . S
H819 C831 0.950 . S
C820 H812 0.950 . S
C820 C821 1.386 . S
C820 C822 1.391 . S
C821 C820 1.386 . S
C821 C825 1.393 . S
C822 H814 0.950 . S
C822 C820 1.391 . S
C822 C823 1.400 . S
C823 C822 1.400 . S
C823 C824 1.398 . S
C823 C829 1.491 . S
C824 H815 0.950 . S
C824 C823 1.398 . S
C824 C825 1.391 . S
C825 H813 0.950 . S
C825 C821 1.393 . S
C825 C824 1.391 . S
C826 H816 0.950 . S
C826 C827 1.386 . S
C826 C828 1.391 . S
C827 C826 1.386 . S
C827 C831 1.393 . S
C828 H817 0.950 . S
C828 C826 1.391 . S
C828 C829 1.400 . S
C829 C823 1.491 . S
C829 C828 1.400 . S
C829 C830 1.398 . S
C830 H818 0.950 . S
C830 C829 1.398 . S
C830 C831 1.391 . S
C831 H819 0.950 . S
C831 C827 1.393 . S
C831 C830 1.391 . S
H832 C840 0.950 . S
H833 C845 0.950 . S
H834 C842 0.950 . S
H835 C844 0.950 . S
H836 C846 0.950 . S
H837 C848 0.950 . S
H838 C850 0.950 . S
H839 C851 0.950 . S
C840 H832 0.950 . S
C840 C841 1.386 . S
C840 C842 1.391 . S
C841 C840 1.386 . S
C841 C845 1.393 . S
C842 H834 0.950 . S
C842 C840 1.391 . S
C842 C843 1.400 . S
C843 C842 1.400 . S
C843 C844 1.398 . S
C843 C849 1.491 . S
C844 H835 0.950 . S
C844 C843 1.398 . S
C844 C845 1.391 . S
C845 H833 0.950 . S
C845 C841 1.393 . S
C845 C844 1.391 . S
C846 H836 0.950 . S
C846 C847 1.386 . S
C846 C848 1.391 . S
C847 C846 1.386 . S
C847 C851 1.393 . S
C848 H837 0.950 . S
C848 C846 1.391 . S
C848 C849 1.400 . S
C849 C843 1.491 . S
C849 C848 1.400 . S
C849 C850 1.398 . S
C850 H838 0.950 . S
C850 C849 1.398 . S
C850 C851 1.391 . S
C851 H839 0.950 . S
C851 C847 1.393 . S
C851 C850 1.391 . S
H852 C860 0.950 . S
H853 C865 0.950 . S
H854 C862 0.950 . S
H855 C864 0.950 . S
H856 C866 0.950 . S
H857 C868 0.950 . S
H858 C870 0.950 . S
H859 C871 0.950 . S
C860 H852 0.950 . S
C860 C861 1.386 . S
C860 C862 1.391 . S
C861 C860 1.386 . S
C861 C865 1.393 . S
C862 H854 0.950 . S
C862 C860 1.391 . S
C862 C863 1.400 . S
C863 C862 1.400 . S
C863 C864 1.398 . S
C863 C869 1.491 . S
C864 H855 0.950 . S
C864 C863 1.398 . S
C864 C865 1.391 . S
C865 H853 0.950 . S
C865 C861 1.393 . S
C865 C864 1.391 . S
C866 H856 0.950 . S
C866 C867 1.386 . S
C866 C868 1.391 . S
C867 C866 1.386 . S
C867 C871 1.393 . S
C868 H857 0.950 . S
C868 C866 1.391 . S
C868 C869 1.400 . S
C869 C863 1.491 . S
C869 C868 1.400 . S
C869 C870 1.398 . S
C870 H858 0.950 . S
C870 C869 1.398 . S
C870 C871 1.391 . S
C871 H859 0.950 . S
C871 C867 1.393 . S
C871 C870 1.391 . S
H872 C880 0.950 . S
H873 C885 0.950 . S
H874 C882 0.950 . S
H875 C884 0.950 . S
H876 C886 0.950 . S
H877 C888 0.950 . S
H878 C890 0.950 . S
H879 C891 0.950 . S
C880 H872 0.950 . S
C880 C881 1.386 . S
C880 C882 1.391 . S
C881 C880 1.386 . S
C881 C885 1.393 . S
C882 H874 0.950 . S
C882 C880 1.391 . S
C882 C883 1.400 . S
C883 C882 1.400 . S
C883 C884 1.398 . S
C883 C889 1.491 . S
C884 H875 0.950 . S
C884 C883 1.398 . S
C884 C885 1.391 . S
C885 H873 0.950 . S
C885 C881 1.393 . S
C885 C884 1.391 . S
C886 H876 0.950 . S
C886 C887 1.386 . S
C886 C888 1.391 . S
C887 C886 1.386 . S
C887 C891 1.393 . S
C888 H877 0.950 . S
C888 C886 1.391 . S
C888 C889 1.400 . S
C889 C883 1.491 . S
C889 C888 1.400 . S
C889 C890 1.398 . S
C890 H878 0.950 . S
C890 C889 1.398 . S
C890 C891 1.391 . S
C891 H879 0.950 . S
C891 C887 1.393 . S
C891 C890 1.391 . S
H892 C900 0.950 . S
H893 C905 0.950 . S
H894 C902 0.950 . S
H895 C904 0.950 . S
H896 C906 0.950 . S
H897 C908 0.950 . S
H898 C910 0.950 . S
H899 C911 0.950 . S
C900 H892 0.950 . S
C900 C901 1.386 . S
C900 C902 1.391 . S
C901 C900 1.386 . S
C901 C905 1.393 . S
C902 H894 0.950 . S
C902 C900 1.391 . S
C902 C903 1.400 . S
C903 C902 1.400 . S
C903 C904 1.398 . S
C903 C909 1.491 . S
C904 H895 0.950 . S
C904 C903 1.398 . S
C904 C905 1.391 . S
C905 H893 0.950 . S
C905 C901 1.393 . S
C905 C904 1.391 . S
C906 H896 0.950 . S
C906 C907 1.386 . S
C906 C908 1.391 . S
C907 C906 1.386 . S
C907 C911 1.393 . S
C908 H897 0.950 . S
C908 C906 1.391 . S
C908 C909 1.400 . S
C909 C903 1.491 . S
C909 C908 1.400 . S
C909 C910 1.398 . S
C910 H898 0.950 . S
C910 C909 1.398 . S
C910 C911 1.391 . S
C911 H899 0.950 . S
C911 C907 1.393 . S
C911 C910 1.391 . S
H912 C920 0.950 . S
H913 C925 0.950 . S
H914 C922 0.950 . S
H915 C924 0.950 . S
H916 C926 0.950 . S
H917 C928 0.950 . S
H918 C930 0.950 . S
H919 C931 0.950 . S
C920 H912 0.950 . S
C920 C921 1.386 . S
C920 C922 1.391 . S
C921 C920 1.386 . S
C921 C925 1.393 . S
C922 H914 0.950 . S
C922 C920 1.391 . S
C922 C923 1.400 . S
C923 C922 1.400 . S
C923 C924 1.398 . S
C923 C929 1.491 . S
C924 H915 0.950 . S
C924 C923 1.398 . S
C924 C925 1.391 . S
C925 H913 0.950 . S
C925 C921 1.393 . S
C925 C924 1.391 . S
C926 H916 0.950 . S
C926 C927 1.386 . S
C926 C928 1.391 . S
C927 C926 1.386 . S
C927 C931 1.393 . S
C928 H917 0.950 . S
C928 C926 1.391 . S
C928 C929 1.400 . S
C929 C923 1.491 . S
C929 C928 1.400 . S
C929 C930 1.398 . S
C930 H918 0.950 . S
C930 C929 1.398 . S
C930 C931 1.391 . S
C931 H919 0.950 . S
C931 C927 1.393 . S
C931 C930 1.391 . S
H932 C940 0.950 . S
H933 C945 0.950 . S
H934 C942 0.950 . S
H935 C944 0.950 . S
H936 C946 0.950 . S
H937 C948 0.950 . S
H938 C950 0.950 . S
H939 C951 0.950 . S
C940 H932 0.950 . S
C940 C941 1.386 . S
C940 C942 1.391 . S
C941 C940 1.386 . S
C941 C945 1.393 . S
C942 H934 0.950 . S
C942 C940 1.391 . S
C942 C943 1.400 . S
C943 C942 1.400 . S
C943 C944 1.398 . S
C943 C949 1.491 . S
C944 H935 0.950 . S
C944 C943 1.398 . S
C944 C945 1.391 . S
C945 H933 0.950 . S
C945 C941 1.393 . S
C945 C944 1.391 . S
C946 H936 0.950 . S
C946 C947 1.386 . S
C946 C948 1.391 . S
C947 C946 1.386 . S
C947 C951 1.393 . S
C948 H937 0.950 . S
C948 C946 1.391 . S
C948 C949 1.400 . S
C949 C943 1.491 . S
C949 C948 1.400 . S
C949 C950 1.398 . S
C950 H938 0.950 . S
C950 C949 1.398 . S
C950 C951 1.391 . S
C951 H939 0.950 . S
C951 C947 1.393 . S
C951 C950 1.391 . S
H952 C960 0.950 . S
H953 C965 0.950 . S
H954 C962 0.950 . S
H955 C964 0.950 . S
H956 C966 0.950 . S
H957 C968 0.950 . S
H958 C970 0.950 . S
H959 C971 0.950 . S
C960 H952 0.950 . S
C960 C961 1.386 . S
C960 C962 1.391 . S
C961 C960 1.386 . S
C961 C965 1.393 . S
C962 H954 0.950 . S
C962 C960 1.391 . S
C962 C963 1.400 . S
C963 C962 1.400 . S
C963 C964 1.398 . S
C963 C969 1.491 . S
C964 H955 0.950 . S
C964 C963 1.398 . S
C964 C965 1.391 . S
C965 H953 0.950 . S
C965 C961 1.393 . S
C965 C964 1.391 . S
C966 H956 0.950 . S
C966 C967 1.386 . S
C966 C968 1.391 . S
C967 C966 1.386 . S
C967 C971 1.393 . S
C968 H957 0.950 . S
C968 C966 1.391 . S
C968 C969 1.400 . S
C969 C963 1.491 . S
C969 C968 1.400 . S
C969 C970 1.398 . S
C970 H958 0.950 . S
C970 C969 1.398 . S
C970 C971 1.391 . S
C971 H959 0.950 . S
C971 C967 1.393 . S
C971 C970 1.391 . S
H972 C980 0.950 . S
H973 C985 0.950 . S
H974 C982 0.950 . S
H975 C984 0.950 . S
H976 C986 0.950 . S
H977 C988 0.950 . S
H978 C990 0.950 . S
H979 C991 0.950 . S
C980 H972 0.950 . S
C980 C981 1.386 . S
C980 C982 1.391 . S
C981 C980 1.386 . S
C981 C985 1.393 . S
C982 H974 0.950 . S
C982 C980 1.391 . S
C982 C983 1.400 . S
C983 C982 1.400 . S
C983 C984 1.398 . S
C983 C989 1.491 . S
C984 H975 0.950 . S
C984 C983 1.398 . S
C984 C985 1.391 . S
C985 H973 0.950 . S
C985 C981 1.393 . S
C985 C984 1.391 . S
C986 H976 0.950 . S
C986 C987 1.386 . S
C986 C988 1.391 . S
C987 C986 1.386 . S
C987 C991 1.393 . S
C988 H977 0.950 . S
C988 C986 1.391 . S
C988 C989 1.400 . S
C989 C983 1.491 . S
C989 C988 1.400 . S
C989 C990 1.398 . S
C990 H978 0.950 . S
C990 C989 1.398 . S
C990 C991 1.391 . S
C991 H979 0.950 . S
C991 C987 1.393 . S
C991 C990 1.391 . S
H992 C1000 0.950 . S
H993 C1005 0.950 . S
H994 C1002 0.950 . S
H995 C1004 0.950 . S
H996 C1006 0.950 . S
H997 C1008 0.950 . S
H998 C1010 0.950 . S
H999 C1011 0.950 . S
C1000 H992 0.950 . S
C1000 C1001 1.386 . S
C1000 C1002 1.391 . S
C1001 C1000 1.386 . S
C1001 C1005 1.393 . S
C1002 H994 0.950 . S
C1002 C1000 1.391 . S
C1002 C1003 1.400 . S
C1003 C1002 1.400 . S
C1003 C1004 1.398 . S
C1003 C1009 1.491 . S
C1004 H995 0.950 . S
C1004 C1003 1.398 . S
C1004 C1005 1.391 . S
C1005 H993 0.950 . S
C1005 C1001 1.393 . S
C1005 C1004 1.391 . S
C1006 H996 0.950 . S
C1006 C1007 1.386 . S
C1006 C1008 1.391 . S
C1007 C1006 1.386 . S
C1007 C1011 1.393 . S
C1008 H997 0.950 . S
C1008 C1006 1.391 . S
C1008 C1009 1.400 . S
C1009 C1003 1.491 . S
C1009 C1008 1.400 . S
C1009 C1010 1.398 . S
C1010 H998 0.950 . S
C1010 C1009 1.398 . S
C1010 C1011 1.391 . S
C1011 H999 0.950 . S
C1011 C1007 1.393 . S
C1011 C1010 1.391 . S
H1012 C1020 0.950 . S
H1013 C1025 0.950 . S
H1014 C1022 0.950 . S
H1015 C1024 0.950 . S
H1016 C1026 0.950 . S
H1017 C1028 0.950 . S
H1018 C1030 0.950 . S
H1019 C1031 0.950 . S
C1020 H1012 0.950 . S
C1020 C1021 1.386 . S
C1020 C1022 1.391 . S
C1021 C1020 1.386 . S
C1021 C1025 1.393 . S
C1022 H1014 0.950 . S
C1022 C1020 1.391 . S
C1022 C1023 1.400 . S
C1023 C1022 1.400 . S
C1023 C1024 1.398 . S
C1023 C1029 1.491 . S
C1024 H1015 0.950 . S
C1024 C1023 1.398 . S
C1024 C1025 1.391 . S
C1025 H1013 0.950 . S
C1025 C1021 1.393 . S
C1025 C1024 1.391 . S
C1026 H1016 0.950 . S
C1026 C1027 1.386 . S
C1026 C1028 1.391 . S
C1027 C1026 1.386 . S
C1027 C1031 1.393 . S
C1028 H1017 0.950 . S
C1028 C1026 1.391 . S
C1028 C1029 1.400 . S
C1029 C1023 1.491 . S
C1029 C1028 1.400 . S
C1029 C1030 1.398 . S
C1030 H1018 0.950 . S
C1030 C1029 1.398 . S
C1030 C1031 1.391 . S
C1031 H1019 0.950 . S
C1031 C1027 1.393 . S
C1031 C1030 1.391 . S
H1032 C1040 0.950 . S
H1033 C1045 0.950 . S
H1034 C1042 0.950 . S
H1035 C1044 0.950 . S
H1036 C1046 0.950 . S
H1037 C1048 0.950 . S
H1038 C1050 0.950 . S
H1039 C1051 0.950 . S
C1040 H1032 0.950 . S
C1040 C1041 1.386 . S
C1040 C1042 1.391 . S
C1041 C1040 1.386 . S
C1041 C1045 1.393 . S
C1042 H1034 0.950 . S
C1042 C1040 1.391 . S
C1042 C1043 1.400 . S
C1043 C1042 1.400 . S
C1043 C1044 1.398 . S
C1043 C1049 1.491 . S
C1044 H1035 0.950 . S
C1044 C1043 1.398 . S
C1044 C1045 1.391 . S
C1045 H1033 0.950 . S
C1045 C1041 1.393 . S
C1045 C1044 1.391 . S
C1046 H1036 0.950 . S
C1046 C1047 1.386 . S
C1046 C1048 1.391 . S
C1047 C1046 1.386 . S
C1047 C1051 1.393 . S
C1048 H1037 0.950 . S
C1048 C1046 1.391 . S
C1048 C1049 1.400 . S
C1049 C1043 1.491 . S
C1049 C1048 1.400 . S
C1049 C1050 1.398 . S
C1050 H1038 0.950 . S
C1050 C1049 1.398 . S
C1050 C1051 1.391 . S
C1051 H1039 0.950 . S
C1051 C1047 1.393 . S
C1051 C1050 1.391 . S
H1052 C1060 0.950 . S
H1053 C1065 0.950 . S
H1054 C1062 0.950 . S
H1055 C1064 0.950 . S
H1056 C1066 0.950 . S
H1057 C1068 0.950 . S
H1058 C1070 0.950 . S
H1059 C1071 0.950 . S
C1060 H1052 0.950 . S
C1060 C1061 1.386 . S
C1060 C1062 1.391 . S
C1061 C1060 1.386 . S
C1061 C1065 1.393 . S
C1062 H1054 0.950 . S
C1062 C1060 1.391 . S
C1062 C1063 1.400 . S
C1063 C1062 1.400 . S
C1063 C1064 1.398 . S
C1063 C1069 1.491 . S
C1064 H1055 0.950 . S
C1064 C1063 1.398 . S
C1064 C1065 1.391 . S
C1065 H1053 0.950 . S
C1065 C1061 1.393 . S
C1065 C1064 1.391 . S
C1066 H1056 0.950 . S
C1066 C1067 1.386 . S
C1066 C1068 1.391 . S
C1067 C1066 1.386 . S
C1067 C1071 1.393 . S
C1068 H1057 0.950 . S
C1068 C1066 1.391 . S
C1068 C1069 1.400 . S
C1069 C1063 1.491 . S
C1069 C1068 1.400 . S
C1069 C1070 1.398 . S
C1070 H1058 0.950 . S
C1070 C1069 1.398 . S
C1070 C1071 1.391 . S
C1071 H1059 0.950 . S
C1071 C1067 1.393 . S
C1071 C1070 1.391 . S
H1072 C1080 0.950 . S
H1073 C1085 0.950 . S
H1074 C1082 0.950 . S
H1075 C1084 0.950 . S
H1076 C1086 0.950 . S
H1077 C1088 0.950 . S
H1078 C1090 0.950 . S
H1079 C1091 0.950 . S
C1080 H1072 0.950 . S
C1080 C1081 1.386 . S
C1080 C1082 1.391 . S
C1081 C1080 1.386 . S
C1081 C1085 1.393 . S
C1082 H1074 0.950 . S
C1082 C1080 1.391 . S
C1082 C1083 1.400 . S
C1083 C1082 1.400 . S
C1083 C1084 1.398 . S
C1083 C1089 1.491 . S
C1084 H1075 0.950 . S
C1084 C1083 1.398 . S
C1084 C1085 1.391 . S
C1085 H1073 0.950 . S
C1085 C1081 1.393 . S
C1085 C1084 1.391 . S
C1086 H1076 0.950 . S
C1086 C1087 1.386 . S
C1086 C1088 1.391 . S
C1087 C1086 1.386 . S
C1087 C1091 1.393 . S
C1088 H1077 0.950 . S
C1088 C1086 1.391 . S
C1088 C1089 1.400 . S
C1089 C1083 1.491 . S
C1089 C1088 1.400 . S
C1089 C1090 1.398 . S
C1090 H1078 0.950 . S
C1090 C1089 1.398 . S
C1090 C1091 1.391 . S
C1091 H1079 0.950 . S
C1091 C1087 1.393 . S
C1091 C1090 1.391 . S
H1092 C1100 0.950 . S
H1093 C1105 0.950 . S
H1094 C1102 0.950 . S
H1095 C1104 0.950 . S
H1096 C1106 0.950 . S
H1097 C1108 0.950 . S
H1098 C1110 0.950 . S
H1099 C1111 0.950 . S
C1100 H1092 0.950 . S
C1100 C1101 1.386 . S
C1100 C1102 1.391 . S
C1101 C1100 1.386 . S
C1101 C1105 1.393 . S
C1102 H1094 0.950 . S
C1102 C1100 1.391 . S
C1102 C1103 1.400 . S
C1103 C1102 1.400 . S
C1103 C1104 1.398 . S
C1103 C1109 1.491 . S
C1104 H1095 0.950 . S
C1104 C1103 1.398 . S
C1104 C1105 1.391 . S
C1105 H1093 0.950 . S
C1105 C1101 1.393 . S
C1105 C1104 1.391 . S
C1106 H1096 0.950 . S
C1106 C1107 1.386 . S
C1106 C1108 1.391 . S
C1107 C1106 1.386 . S
C1107 C1111 1.393 . S
C1108 H1097 0.950 . S
C1108 C1106 1.391 . S
C1108 C1109 1.400 . S
C1109 C1103 1.491 . S
C1109 C1108 1.400 . S
C1109 C1110 1.398 . S
C1110 H1098 0.950 . S
C1110 C1109 1.398 . S
C1110 C1111 1.391 . S
C1111 H1099 0.950 . S
C1111 C1107 1.393 . S
C1111 C1110 1.391 . S
C487 C381 1.320 . S
C481 C8 1.351 . S
C507 C399 1.289 . S
C501 C61 1.346 . S
C527 C407 1.322 . S
C521 C107 1.341 . S
C541 C139 1.325 . S
C547 C373 1.302 . S
C561 C192 1.332 . S
C567 C368 1.264 1_556 S
C581 C238 1.325 . S
C587 C386 1.292 . S
C607 C394 1.301 . S
C601 C284 1.332 . S
C627 C412 1.277 . S
C621 C330 1.350 . S
C641 C100 1.337 . S
C647 C433 1.289 . S
C667 C451 1.278 . S
C661 C160 1.328 . S
C681 C15 1.342 . S
C687 C459 1.294 . S
C707 C425 1.292 . S
C701 C54 1.328 . S
C721 C291 1.337 . S
C727 C420 1.319 . S
C741 C337 1.335 . S
C747 C438 1.304 . S
C767 C446 1.267 1_556 S
C761 C199 1.336 . S
C781 C245 1.333 . S
C787 C464 1.276 . S
C807 C402 1.493 . S
C801 C1 1.487 . S
C827 C417 1.469 . S
C821 C68 1.482 . S
C841 C114 1.476 . S
C847 C376 1.492 . S
C861 C146 1.493 . S
C867 C391 1.460 . S
C881 C185 1.490 . S
C887 C415 1.488 . S
C907 C378 1.449 . S
C901 C231 1.485 . S
C927 C389 1.492 . S
C921 C277 1.483 . S
C947 C404 1.453 . S
C941 C323 1.482 . S
C967 C454 1.492 . S
C961 C93 1.483 . S
C987 C469 1.454 . S
C981 C153 1.471 . S
C1001 C22 1.482 . S
C1007 C428 1.491 . S
C1027 C443 1.470 . S
C1021 C47 1.487 . S
C1047 C467 1.490 . S
C1041 C298 1.478 . S
C1061 C344 1.472 . S
C1067 C430 1.457 . S
C1087 C441 1.490 . S
C1081 C206 1.487 . S
C1107 C456 1.468 . S
C1101 C252 1.485 . S
