# Generated by pormake.
# Topology pyr, (3,6)-cn, num edge types: 1
# Building blocks:
#     Node 0, Type 0, BuildingBlock: VETTIZ_charged_linker_0, # of connection points: 3
#     Node 1, Type 0, BuildingBlock: VETTIZ_charged_linker_0, # of connection points: 3
#     Node 2, Type 0, BuildingBlock: VETTIZ_charged_linker_0, # of connection points: 3
#     Node 3, Type 0, BuildingBlock: VETTIZ_charged_linker_0, # of connection points: 3
#     Node 4, Type 0, BuildingBlock: VETTIZ_charged_linker_0, # of connection points: 3
#     Node 5, Type 0, BuildingBlock: VETTIZ_charged_linker_0, # of connection points: 3
#     Node 6, Type 0, BuildingBlock: VETTIZ_charged_linker_0, # of connection points: 3
#     Node 7, Type 0, BuildingBlock: VETTIZ_charged_linker_0, # of connection points: 3
#     Node 8, Type 1, BuildingBlock: MIFKUJ_clean_sbu_0, # of connection points: 6
#     Node 9, Type 1, BuildingBlock: MIFKUJ_clean_sbu_0, # of connection points: 6
#     Node 10, Type 1, BuildingBlock: MIFKUJ_clean_sbu_0, # of connection points: 6
#     Node 11, Type 1, BuildingBlock: MIFKUJ_clean_sbu_0, # of connection points: 6
#     Edge 12, Type (0, 1), BuildingBlock: EZIPEK_clean_linker_0, # of connection points: 2
#     Edge 13, Type (0, 1), BuildingBlock: EZIPEK_clean_linker_0, # of connection points: 2
#     Edge 14, Type (0, 1), BuildingBlock: EZIPEK_clean_linker_0, # of connection points: 2
#     Edge 15, Type (0, 1), BuildingBlock: EZIPEK_clean_linker_0, # of connection points: 2
#     Edge 16, Type (0, 1), BuildingBlock: EZIPEK_clean_linker_0, # of connection points: 2
#     Edge 17, Type (0, 1), BuildingBlock: EZIPEK_clean_linker_0, # of connection points: 2
#     Edge 18, Type (0, 1), BuildingBlock: EZIPEK_clean_linker_0, # of connection points: 2
#     Edge 19, Type (0, 1), BuildingBlock: EZIPEK_clean_linker_0, # of connection points: 2
#     Edge 20, Type (0, 1), BuildingBlock: EZIPEK_clean_linker_0, # of connection points: 2
#     Edge 21, Type (0, 1), BuildingBlock: EZIPEK_clean_linker_0, # of connection points: 2
#     Edge 22, Type (0, 1), BuildingBlock: EZIPEK_clean_linker_0, # of connection points: 2
#     Edge 23, Type (0, 1), BuildingBlock: EZIPEK_clean_linker_0, # of connection points: 2
#     Edge 24, Type (0, 1), BuildingBlock: EZIPEK_clean_linker_0, # of connection points: 2
#     Edge 25, Type (0, 1), BuildingBlock: EZIPEK_clean_linker_0, # of connection points: 2
#     Edge 26, Type (0, 1), BuildingBlock: EZIPEK_clean_linker_0, # of connection points: 2
#     Edge 27, Type (0, 1), BuildingBlock: EZIPEK_clean_linker_0, # of connection points: 2
#     Edge 28, Type (0, 1), BuildingBlock: EZIPEK_clean_linker_0, # of connection points: 2
#     Edge 29, Type (0, 1), BuildingBlock: EZIPEK_clean_linker_0, # of connection points: 2
#     Edge 30, Type (0, 1), BuildingBlock: EZIPEK_clean_linker_0, # of connection points: 2
#     Edge 31, Type (0, 1), BuildingBlock: EZIPEK_clean_linker_0, # of connection points: 2
#     Edge 32, Type (0, 1), BuildingBlock: EZIPEK_clean_linker_0, # of connection points: 2
#     Edge 33, Type (0, 1), BuildingBlock: EZIPEK_clean_linker_0, # of connection points: 2
#     Edge 34, Type (0, 1), BuildingBlock: EZIPEK_clean_linker_0, # of connection points: 2
#     Edge 35, Type (0, 1), BuildingBlock: EZIPEK_clean_linker_0, # of connection points: 2
# Relax obj value: 0.030
# Max RMSD: 0.083
# Mean RMSD: 0.049
data_MOF--net-pyr--node1-MIFKUJ_clean_sbu_0--node2-VETTIZ_charged_linker_0--edge1-EZIPEK_clean_linker_0
_symmetry_space_group_name_H-M    P1
_symmetry_Int_Tables_number       1
_symmetry_cell_setting            triclinic
loop_
_symmetry_equiv_pos_as_xyz
'x, y, z'
_cell_length_a     37.975688
_cell_length_b     34.031905
_cell_length_c     36.347039
_cell_angle_alpha  85.330167
_cell_angle_beta   87.740991
_cell_angle_gamma 96.23056
loop_
_atom_site_label
_atom_site_type_symbol
_atom_site_fract_x
_atom_site_fract_y
_atom_site_fract_z
_atom_type_partial_charge
C0 C 0.16309 0.11061 0.32954 0.0
C1 C 0.13387 0.12387 0.34771 0.0
C2 C 0.123 0.1609 0.33619 0.0
C3 C 0.16732 0.16889 0.28581 0.0
C4 C 0.17941 0.13362 0.29857 0.0
C5 C 0.20897 0.12278 0.2739 0.0
H6 H 0.31325 0.16431 0.11673 0.0
C7 C 0.18682 0.18319 0.25064 0.0
C8 C 0.21158 0.15659 0.24359 0.0
H9 H 0.31048 0.06295 0.1968 0.0
H10 H 0.26575 0.08882 0.23417 0.0
H11 H 0.29825 0.23619 0.17264 0.0
H12 H 0.23647 0.1544 0.11068 0.0
H13 H 0.20897 0.19177 0.1169 0.0
H14 H 0.25104 0.20371 0.0912 0.0
H15 H 0.29972 0.23567 0.12317 0.0
H16 H 0.26784 0.26146 0.14655 0.0
C17 C 0.24286 0.12357 0.29623 0.0
C18 C 0.19705 0.08212 0.25924 0.0
C19 C 0.14486 0.29684 0.17093 0.0
C20 C 0.15166 0.30924 0.13327 0.0
C21 C 0.17919 0.29416 0.11357 0.0
C22 C 0.19945 0.26693 0.13089 0.0
C23 C 0.19108 0.25298 0.16787 0.0
C24 C 0.16408 0.2677 0.18728 0.0
C25 C 0.15584 0.24541 0.2246 0.0
C26 C 0.18233 0.21496 0.22411 0.0
C27 C 0.20334 0.22024 0.19115 0.0
C28 C 0.16387 0.27467 0.25445 0.0
C29 C 0.11678 0.22601 0.22576 0.0
C30 C 0.30331 0.14817 0.14264 0.0
C31 C 0.31546 0.11184 0.15412 0.0
C32 C 0.30149 0.0911 0.18759 0.0
C33 C 0.27548 0.1061 0.20912 0.0
C34 C 0.26251 0.14166 0.19653 0.0
C35 C 0.27616 0.16182 0.1636 0.0
C36 C 0.25584 0.19583 0.15189 0.0
C37 C 0.22957 0.19463 0.18465 0.0
C38 C 0.23362 0.1629 0.21071 0.0
C39 C 0.28166 0.2345 0.14814 0.0
C40 C 0.23722 0.18628 0.11577 0.0
H41 H 0.12977 0.21119 0.29738 0.0
H42 H 0.17187 0.08222 0.33825 0.0
H43 H 0.16789 0.07814 0.25605 0.0
H44 H 0.20866 0.07913 0.2314 0.0
H45 H 0.20367 0.05721 0.27848 0.0
H46 H 0.24514 0.14938 0.31325 0.0
H47 H 0.24232 0.09623 0.31526 0.0
H48 H 0.26748 0.12705 0.27854 0.0
H49 H 0.12363 0.30774 0.18657 0.0
H50 H 0.18487 0.30336 0.0845 0.0
H51 H 0.22025 0.25709 0.11448 0.0
H52 H 0.18808 0.29547 0.24621 0.0
H53 H 0.14159 0.29273 0.25855 0.0
H54 H 0.16958 0.25963 0.2813 0.0
H55 H 0.10848 0.21923 0.19773 0.0
H56 H 0.11247 0.19704 0.2422 0.0
H57 H 0.09828 0.24596 0.23657 0.0
H58 H 0.10068 0.17151 0.35031 0.0
C59 C 0.13976 0.18366 0.30545 0.0
C60 C 0.22195 0.87065 0.62577 0.0
C61 C 0.20312 0.89923 0.64085 0.0
C62 C 0.21498 0.91658 0.67262 0.0
C63 C 0.2645 0.87747 0.67359 0.0
C64 C 0.25282 0.86068 0.64223 0.0
C65 C 0.27771 0.83334 0.62802 0.0
H66 H 0.41034 0.72212 0.66179 0.0
C67 C 0.29758 0.86117 0.68352 0.0
C68 C 0.30573 0.83569 0.6567 0.0
H69 H 0.35192 0.73259 0.56254 0.0
H70 H 0.32255 0.78562 0.58621 0.0
H71 H 0.43284 0.81037 0.65749 0.0
H72 H 0.35077 0.74009 0.72538 0.0
H73 H 0.37757 0.77137 0.75243 0.0
H74 H 0.39762 0.73643 0.72643 0.0
H75 H 0.44076 0.79246 0.70369 0.0
H76 H 0.42452 0.83999 0.69364 0.0
C77 C 0.29281 0.85043 0.58895 0.0
C78 C 0.25727 0.79136 0.62902 0.0
C79 C 0.35788 0.8978 0.80042 0.0
C80 C 0.39063 0.88975 0.81423 0.0
C81 C 0.41066 0.8636 0.79659 0.0
C82 C 0.39848 0.84586 0.7655 0.0
C83 C 0.36637 0.85514 0.75122 0.0
C84 C 0.34684 0.88114 0.76822 0.0
C85 C 0.31532 0.89054 0.74667 0.0
C86 C 0.31927 0.86572 0.71415 0.0
C87 C 0.34879 0.8445 0.71755 0.0
C88 C 0.31971 0.93564 0.73445 0.0
C89 C 0.28143 0.87592 0.77115 0.0
C90 C 0.39115 0.73592 0.64531 0.0
C91 C 0.38233 0.72253 0.61098 0.0
C92 C 0.3584 0.74209 0.58944 0.0
C93 C 0.34134 0.77261 0.60324 0.0
C94 C 0.34909 0.78433 0.63843 0.0
C95 C 0.37496 0.76755 0.65796 0.0
C96 C 0.38372 0.78823 0.69196 0.0
C97 C 0.35655 0.81793 0.69111 0.0
C98 C 0.33578 0.8146 0.66024 0.0
C99 C 0.42242 0.80871 0.68669 0.0
C100 C 0.37724 0.75752 0.72601 0.0
H101 H 0.25344 0.92016 0.71318 0.0
H102 H 0.21337 0.85738 0.60106 0.0
H103 H 0.24393 0.78261 0.65673 0.0
H104 H 0.27452 0.76824 0.62359 0.0
H105 H 0.23657 0.79055 0.60824 0.0
H106 H 0.28896 0.88227 0.58324 0.0
H107 H 0.27975 0.83413 0.567 0.0
H108 H 0.32188 0.8497 0.58578 0.0
H109 H 0.34211 0.91798 0.81343 0.0
H110 H 0.43596 0.85702 0.8069 0.0
H111 H 0.41472 0.82595 0.75359 0.0
H112 H 0.34819 0.94773 0.73109 0.0
H113 H 0.30692 0.95255 0.75512 0.0
H114 H 0.30902 0.94246 0.70708 0.0
H115 H 0.28359 0.84616 0.78543 0.0
H116 H 0.25731 0.87226 0.75529 0.0
H117 H 0.2773 0.89656 0.79269 0.0
H118 H 0.20062 0.93876 0.68441 0.0
C119 C 0.24556 0.90578 0.68916 0.0
C120 C 0.61881 0.20765 0.86868 0.0
C121 C 0.58365 0.19229 0.86361 0.0
C122 C 0.56465 0.21098 0.8359 0.0
C123 C 0.61528 0.26017 0.8199 0.0
C124 C 0.63358 0.24214 0.84749 0.0
C125 C 0.66835 0.26571 0.85359 0.0
H126 H 0.773 0.43963 0.82857 0.0
C127 C 0.63719 0.29703 0.80482 0.0
C128 C 0.66784 0.30093 0.82517 0.0
H129 H 0.79115 0.33339 0.89524 0.0
H130 H 0.73912 0.29801 0.8722 0.0
H131 H 0.68603 0.43336 0.83478 0.0
H132 H 0.75853 0.38974 0.75765 0.0
H133 H 0.72296 0.40479 0.73274 0.0
H134 H 0.75094 0.44098 0.7552 0.0
H135 H 0.7161 0.46531 0.80319 0.0
H136 H 0.67347 0.4449 0.78923 0.0
C137 C 0.66683 0.27797 0.89374 0.0
C138 C 0.69874 0.2404 0.84485 0.0
C139 C 0.59912 0.37884 0.69284 0.0
C140 C 0.61145 0.41668 0.67558 0.0
C141 C 0.64055 0.43865 0.69009 0.0
C142 C 0.65749 0.42293 0.72074 0.0
C143 C 0.64477 0.38513 0.73771 0.0
C144 C 0.61557 0.36409 0.72415 0.0
C145 C 0.60319 0.32657 0.74823 0.0
C146 C 0.63193 0.32656 0.77618 0.0
C147 C 0.65615 0.36102 0.77001 0.0
C148 C 0.56632 0.33103 0.76651 0.0
C149 C 0.60314 0.29087 0.72454 0.0
C150 C 0.76526 0.40892 0.83855 0.0
C151 C 0.78535 0.38949 0.86469 0.0
C152 C 0.77549 0.34909 0.87589 0.0
C153 C 0.74535 0.32867 0.86248 0.0
C154 C 0.72489 0.3487 0.83734 0.0
C155 C 0.73573 0.38764 0.82454 0.0
C156 C 0.71349 0.40195 0.79376 0.0
C157 C 0.68603 0.36611 0.79229 0.0
C158 C 0.69247 0.33551 0.81863 0.0
C159 C 0.6964 0.43849 0.80553 0.0
C160 C 0.73752 0.41013 0.75788 0.0
H161 H 0.56488 0.25712 0.79281 0.0
H162 H 0.63387 0.1941 0.88999 0.0
H163 H 0.69066 0.21809 0.82515 0.0
H164 H 0.7223 0.2585 0.83103 0.0
H165 H 0.70681 0.22403 0.87028 0.0
H166 H 0.64084 0.28862 0.90045 0.0
H167 H 0.67001 0.2524 0.91389 0.0
H168 H 0.68692 0.30254 0.89871 0.0
H169 H 0.57627 0.36172 0.68288 0.0
H170 H 0.65008 0.46809 0.67766 0.0
H171 H 0.6795 0.44107 0.73048 0.0
H172 H 0.56071 0.36253 0.76523 0.0
H173 H 0.54461 0.3143 0.75269 0.0
H174 H 0.56453 0.32109 0.7964 0.0
H175 H 0.62899 0.29185 0.70881 0.0
H176 H 0.59911 0.26211 0.74139 0.0
H177 H 0.58192 0.29124 0.70437 0.0
H178 H 0.53747 0.19968 0.83163 0.0
C179 C 0.58048 0.2444 0.81364 0.0
C180 C 0.90155 0.77681 0.31187 0.0
C181 C 0.88639 0.79924 0.33788 0.0
C182 C 0.84962 0.79328 0.34609 0.0
C183 C 0.84401 0.73962 0.30641 0.0
C184 C 0.87959 0.74761 0.29589 0.0
C185 C 0.89027 0.72142 0.26683 0.0
H186 H 0.84504 0.56766 0.1648 0.0
C187 C 0.82935 0.70474 0.28827 0.0
C188 C 0.85594 0.69433 0.26425 0.0
H189 H 0.94293 0.64633 0.15819 0.0
H190 H 0.92167 0.67945 0.20818 0.0
H191 H 0.84277 0.55589 0.25006 0.0
H192 H 0.78768 0.63353 0.17872 0.0
H193 H 0.75775 0.60551 0.21212 0.0
H194 H 0.78193 0.58031 0.17965 0.0
H195 H 0.80268 0.53816 0.22932 0.0
H196 H 0.80196 0.56041 0.2728 0.0
C197 C 0.92044 0.69823 0.2815 0.0
C198 C 0.90038 0.74813 0.23055 0.0
C199 C 0.71093 0.63357 0.33749 0.0
C200 C 0.69428 0.5954 0.33378 0.0
C201 C 0.70749 0.57291 0.3065 0.0
C202 C 0.73795 0.5877 0.2843 0.0
C203 C 0.75567 0.62505 0.28992 0.0
C204 C 0.74195 0.64729 0.31614 0.0
C205 C 0.76607 0.68406 0.32156 0.0
C206 C 0.79668 0.68022 0.29442 0.0
C207 C 0.79034 0.64598 0.27549 0.0
C208 C 0.77716 0.68092 0.36227 0.0
C209 C 0.74653 0.7207 0.31053 0.0
C210 C 0.86112 0.59402 0.17113 0.0
C211 C 0.89366 0.60833 0.15139 0.0
C212 C 0.91573 0.63778 0.16794 0.0
C213 C 0.90365 0.65681 0.198 0.0
C214 C 0.86946 0.64545 0.21363 0.0
C215 C 0.84916 0.61368 0.20103 0.0
C216 C 0.81458 0.60348 0.2235 0.0
C217 C 0.81632 0.63671 0.24919 0.0
C218 C 0.84889 0.66082 0.24363 0.0
C219 C 0.81518 0.56228 0.24494 0.0
C220 C 0.78366 0.60559 0.19726 0.0
H221 H 0.80063 0.76 0.33839 0.0
H222 H 0.92972 0.78154 0.30468 0.0
H223 H 0.88413 0.77346 0.2281 0.0
H224 H 0.89516 0.7325 0.20555 0.0
H225 H 0.92868 0.7607 0.22955 0.0
H226 H 0.91508 0.68796 0.31124 0.0
H227 H 0.94629 0.71719 0.2788 0.0
H228 H 0.92311 0.6711 0.26742 0.0
H229 H 0.70134 0.6512 0.35847 0.0
H230 H 0.69481 0.54341 0.3032 0.0
H231 H 0.74713 0.56908 0.26436 0.0
H232 H 0.78308 0.65028 0.37087 0.0
H233 H 0.75558 0.68804 0.38129 0.0
H234 H 0.80146 0.70012 0.36711 0.0
H235 H 0.72554 0.71367 0.2908 0.0
H236 H 0.76447 0.74534 0.29582 0.0
H237 H 0.73357 0.73162 0.33505 0.0
H238 H 0.83758 0.81079 0.3657 0.0
C239 C 0.82832 0.76373 0.33037 0.0
C240 C 0.83497 0.70573 0.86578 0.0
C241 C 0.86791 0.69439 0.85446 0.0
C242 C 0.88386 0.70938 0.81993 0.0
C243 C 0.83503 0.74806 0.80885 0.0
C244 C 0.81915 0.73298 0.84263 0.0
C245 C 0.78543 0.75085 0.85105 0.0
H246 H 0.68869 0.90314 0.815 0.0
C247 C 0.81325 0.77743 0.79245 0.0
C248 C 0.78407 0.77943 0.81678 0.0
H249 H 0.67071 0.8099 0.90377 0.0
H250 H 0.71621 0.77501 0.87634 0.0
H251 H 0.6907 0.84342 0.75321 0.0
H252 H 0.77575 0.90951 0.80451 0.0
H253 H 0.78146 0.9165 0.75572 0.0
H254 H 0.74268 0.93112 0.7779 0.0
H255 H 0.70693 0.89321 0.73605 0.0
H256 H 0.72665 0.85107 0.72049 0.0
C257 C 0.75405 0.71746 0.85412 0.0
C258 C 0.79057 0.77265 0.88654 0.0
C259 C 0.8605 0.85904 0.67547 0.0
C260 C 0.84829 0.89046 0.65428 0.0
C261 C 0.81489 0.90248 0.66325 0.0
C262 C 0.79476 0.88456 0.69458 0.0
C263 C 0.80824 0.85431 0.71666 0.0
C264 C 0.83998 0.84119 0.7061 0.0
C265 C 0.84985 0.80802 0.7318 0.0
C266 C 0.8189 0.80343 0.7599 0.0
C267 C 0.79501 0.83108 0.75144 0.0
C268 C 0.85071 0.7708 0.70991 0.0
C269 C 0.88547 0.82238 0.74876 0.0
C270 C 0.69482 0.87529 0.82847 0.0
C271 C 0.67724 0.85968 0.86206 0.0
C272 C 0.68469 0.82269 0.8783 0.0
C273 C 0.7111 0.80273 0.8625 0.0
C274 C 0.73006 0.81995 0.83015 0.0
C275 C 0.72066 0.85464 0.81272 0.0
C276 C 0.74123 0.86635 0.77658 0.0
C277 C 0.76619 0.8344 0.77657 0.0
C278 C 0.76011 0.8079 0.80851 0.0
C279 C 0.7152 0.86369 0.74481 0.0
C280 C 0.76136 0.90814 0.77849 0.0
H281 H 0.88095 0.74613 0.77091 0.0
H282 H 0.8223 0.69419 0.89227 0.0
H283 H 0.81663 0.79129 0.88479 0.0
H284 H 0.77056 0.79295 0.8914 0.0
H285 H 0.79 0.75108 0.91126 0.0
H286 H 0.75924 0.69346 0.83626 0.0
H287 H 0.74938 0.70383 0.88296 0.0
H288 H 0.72923 0.72803 0.84433 0.0
H289 H 0.88599 0.84913 0.66876 0.0
H290 H 0.80508 0.92652 0.64671 0.0
H291 H 0.76997 0.89548 0.70091 0.0
H292 H 0.83057 0.77016 0.68846 0.0
H293 H 0.87704 0.77036 0.69563 0.0
H294 H 0.84387 0.7427 0.72748 0.0
H295 H 0.88869 0.85513 0.7501 0.0
H296 H 0.88725 0.8104 0.77772 0.0
H297 H 0.90852 0.81481 0.73207 0.0
H298 H 0.90913 0.70053 0.81086 0.0
C299 C 0.86738 0.73576 0.79686 0.0
C300 C 0.77926 0.13107 0.37483 0.0
C301 C 0.80005 0.10536 0.35776 0.0
C302 C 0.79066 0.09204 0.32344 0.0
C303 C 0.73948 0.12849 0.32417 0.0
C304 C 0.74942 0.14273 0.35724 0.0
C305 C 0.72525 0.17156 0.37025 0.0
H306 H 0.57958 0.26725 0.34422 0.0
C307 C 0.70665 0.14506 0.31378 0.0
C308 C 0.69839 0.17077 0.34035 0.0
H309 H 0.65594 0.28231 0.42818 0.0
H310 H 0.68901 0.23243 0.40363 0.0
H311 H 0.57191 0.17669 0.34941 0.0
H312 H 0.63769 0.26166 0.27578 0.0
H313 H 0.61684 0.22524 0.24956 0.0
H314 H 0.59012 0.25424 0.27612 0.0
H315 H 0.55561 0.19729 0.30732 0.0
H316 H 0.5776 0.15272 0.30898 0.0
C317 C 0.70802 0.15473 0.40838 0.0
C318 C 0.74711 0.21283 0.37035 0.0
C319 C 0.64203 0.09899 0.2023 0.0
C320 C 0.60881 0.1058 0.18903 0.0
C321 C 0.58818 0.13125 0.20682 0.0
C322 C 0.6004 0.14991 0.23741 0.0
C323 C 0.63349 0.14274 0.25068 0.0
C324 C 0.65349 0.11717 0.23363 0.0
C325 C 0.6868 0.11115 0.2534 0.0
C326 C 0.68365 0.13788 0.28462 0.0
C327 C 0.65259 0.15659 0.28249 0.0
C328 C 0.68454 0.0668 0.26788 0.0
C329 C 0.71913 0.12582 0.22652 0.0
C330 C 0.60347 0.25961 0.35709 0.0
C331 C 0.61555 0.27829 0.38786 0.0
C332 C 0.64652 0.26794 0.40433 0.0
C333 C 0.66557 0.23917 0.39002 0.0
C334 C 0.6534 0.22071 0.35898 0.0
C335 C 0.62283 0.23102 0.34307 0.0
C336 C 0.61392 0.20843 0.31025 0.0
C337 C 0.64473 0.18362 0.3085 0.0
C338 C 0.66761 0.19078 0.33719 0.0
C339 C 0.57785 0.18256 0.31911 0.0
C340 C 0.61441 0.23875 0.27598 0.0
H341 H 0.75454 0.09198 0.28063 0.0
H342 H 0.78627 0.14196 0.40107 0.0
H343 H 0.7707 0.2159 0.35074 0.0
H344 H 0.7319 0.23743 0.36097 0.0
H345 H 0.75684 0.21784 0.39819 0.0
H346 H 0.69913 0.12249 0.40829 0.0
H347 H 0.7272 0.15844 0.43048 0.0
H348 H 0.68412 0.1686 0.416 0.0
H349 H 0.65829 0.07949 0.18897 0.0
H350 H 0.56254 0.13683 0.19676 0.0
H351 H 0.58354 0.16913 0.24955 0.0
H352 H 0.65718 0.05565 0.27881 0.0
H353 H 0.69142 0.0483 0.24541 0.0
H354 H 0.70162 0.06123 0.29115 0.0
H355 H 0.71306 0.15043 0.20653 0.0
H356 H 0.74233 0.13846 0.24084 0.0
H357 H 0.72695 0.10159 0.21032 0.0
H358 H 0.80659 0.07235 0.30993 0.0
C359 C 0.76044 0.10336 0.30661 0.0
C360 C 0.40476 0.61607 0.30755 0.0
C361 C 0.38936 0.58144 0.32839 0.0
C362 C 0.35657 0.56288 0.31845 0.0
C363 C 0.3554 0.61265 0.26671 0.0
C364 C 0.38733 0.63118 0.27701 0.0
C365 C 0.40006 0.66769 0.25177 0.0
H366 H 0.37653 0.79104 0.1004 0.0
C367 C 0.34489 0.6352 0.23297 0.0
C368 C 0.37106 0.66752 0.22412 0.0
H369 H 0.46193 0.80077 0.17511 0.0
H370 H 0.43569 0.74113 0.21154 0.0
H371 H 0.31218 0.76403 0.16457 0.0
H372 H 0.37532 0.70232 0.09295 0.0
H373 H 0.33442 0.67269 0.09965 0.0
H374 H 0.33621 0.72242 0.07751 0.0
H375 H 0.30948 0.76635 0.11524 0.0
H376 H 0.28376 0.72793 0.1449 0.0
C377 C 0.40092 0.7041 0.2748 0.0
C378 C 0.43636 0.66162 0.23343 0.0
C379 C 0.23146 0.58913 0.17024 0.0
C380 C 0.21699 0.60251 0.13702 0.0
C381 C 0.23488 0.63529 0.11528 0.0
C382 C 0.26637 0.65498 0.12664 0.0
C383 C 0.28053 0.64153 0.15993 0.0
C384 C 0.26346 0.60875 0.18089 0.0
C385 C 0.28386 0.59729 0.21415 0.0
C386 C 0.31553 0.62912 0.21005 0.0
C387 C 0.31307 0.65517 0.17845 0.0
C388 C 0.26037 0.60054 0.2493 0.0
C389 C 0.29496 0.5553 0.21019 0.0
C390 C 0.38929 0.78031 0.12479 0.0
C391 C 0.4211 0.80041 0.13523 0.0
C392 C 0.4373 0.78562 0.16685 0.0
C393 C 0.42202 0.75105 0.18784 0.0
C394 C 0.39022 0.73098 0.17701 0.0
C395 C 0.37442 0.74577 0.14594 0.0
C396 C 0.34114 0.72033 0.1381 0.0
C397 C 0.33921 0.68812 0.16985 0.0
C398 C 0.368 0.69439 0.19258 0.0
C399 C 0.30983 0.74579 0.14055 0.0
C400 C 0.34673 0.70366 0.10004 0.0
H401 H 0.3147 0.56266 0.28142 0.0
H402 H 0.42991 0.63089 0.31482 0.0
H403 H 0.43682 0.63029 0.22691 0.0
H404 H 0.44222 0.67943 0.20671 0.0
H405 H 0.45825 0.66865 0.25204 0.0
H406 H 0.37845 0.70043 0.29584 0.0
H407 H 0.4259 0.70812 0.28965 0.0
H408 H 0.39774 0.73189 0.258 0.0
H409 H 0.2184 0.56362 0.18716 0.0
H410 H 0.22426 0.64573 0.0895 0.0
H411 H 0.27853 0.67988 0.10893 0.0
H412 H 0.24614 0.62743 0.24621 0.0
H413 H 0.24015 0.57433 0.25454 0.0
H414 H 0.2758 0.60379 0.27418 0.0
H415 H 0.30102 0.55087 0.18071 0.0
H416 H 0.3195 0.55017 0.22425 0.0
H417 H 0.27343 0.53194 0.22084 0.0
H418 H 0.34438 0.53621 0.33432 0.0
C419 C 0.33952 0.57825 0.28773 0.0
C420 C 0.0982 0.21228 0.69973 0.0
C421 C 0.11042 0.19391 0.66911 0.0
C422 C 0.14537 0.2041 0.65475 0.0
C423 C 0.15448 0.25374 0.69832 0.0
C424 C 0.12098 0.24192 0.71423 0.0
C425 C 0.1134 0.26465 0.74712 0.0
H426 H 0.14622 0.43301 0.83156 0.0
C427 C 0.17005 0.28807 0.71664 0.0
C428 C 0.14664 0.29449 0.74571 0.0
H429 H 0.07195 0.33031 0.86747 0.0
H430 H 0.09565 0.29414 0.81938 0.0
H431 H 0.15086 0.42726 0.74102 0.0
H432 H 0.21139 0.37502 0.82689 0.0
H433 H 0.23984 0.39193 0.78821 0.0
H434 H 0.21796 0.4272 0.81277 0.0
H435 H 0.1789 0.45656 0.76961 0.0
H436 H 0.19692 0.4366 0.72964 0.0
C437 C 0.07963 0.28528 0.74046 0.0
C438 C 0.11031 0.23547 0.78253 0.0
C439 C 0.27997 0.36697 0.65545 0.0
C440 C 0.29937 0.40285 0.66169 0.0
C441 C 0.28898 0.42375 0.69153 0.0
C442 C 0.25894 0.40902 0.71454 0.0
C443 C 0.23941 0.37298 0.70764 0.0
C444 C 0.2505 0.35258 0.67867 0.0
C445 C 0.22706 0.31514 0.67471 0.0
C446 C 0.20015 0.31569 0.70646 0.0
C447 C 0.20702 0.34975 0.72561 0.0
C448 C 0.21036 0.3196 0.63644 0.0
C449 C 0.2495 0.27976 0.68034 0.0
C450 C 0.13513 0.40271 0.82907 0.0
C451 C 0.10615 0.38506 0.85249 0.0
C452 C 0.09347 0.34498 0.84919 0.0
C453 C 0.10709 0.32403 0.82128 0.0
C454 C 0.13458 0.34268 0.79703 0.0
C455 C 0.14964 0.38047 0.8024 0.0
C456 C 0.18266 0.39238 0.77768 0.0
C457 C 0.18337 0.35644 0.75532 0.0
C458 C 0.15424 0.32809 0.76612 0.0
C459 C 0.17735 0.43034 0.75317 0.0
C460 C 0.2148 0.39724 0.80244 0.0
H461 H 0.19355 0.24074 0.65646 0.0
H462 H 0.07154 0.2041 0.71155 0.0
H463 H 0.11928 0.20627 0.77735 0.0
H464 H 0.12735 0.24684 0.80432 0.0
H465 H 0.08248 0.22952 0.79391 0.0
H466 H 0.0824 0.30368 0.71356 0.0
H467 H 0.05603 0.26302 0.73988 0.0
H468 H 0.07411 0.30503 0.76207 0.0
H469 H 0.28753 0.3505 0.63265 0.0
H470 H 0.30385 0.45162 0.6966 0.0
H471 H 0.25183 0.42635 0.7365 0.0
H472 H 0.20482 0.35071 0.62943 0.0
H473 H 0.22852 0.31174 0.61416 0.0
H474 H 0.18445 0.30187 0.63524 0.0
H475 H 0.27218 0.28683 0.69808 0.0
H476 H 0.23422 0.25312 0.69504 0.0
H477 H 0.26063 0.27182 0.65357 0.0
H478 H 0.15518 0.18979 0.63144 0.0
C479 C 0.1675 0.23374 0.66928 0.0
Zn480 Zn 0.03101 0.00603 0.54424 0.0
Zn481 Zn 0.96203 0.98873 0.45999 0.0
C482 C 0.05905 0.07741 0.57681 0.0
O483 O 0.08637 0.07592 0.55386 0.0
C484 C 0.93427 0.92025 0.42833 0.0
O485 O 0.9058 0.92845 0.44658 0.0
O486 O 0.06669 0.96861 0.5591 0.0
O487 O 0.98309 0.97728 0.55663 0.0
O488 O 0.9462 0.96901 0.51133 0.0
C489 C 0.0849 0.97291 0.58731 0.0
O490 O 0.07934 0.00089 0.60883 0.0
O491 O 0.03244 0.05148 0.57681 0.0
C492 C 0.925 0.04363 0.41399 0.0
O493 O 0.95571 0.05342 0.39586 0.0
O494 O 0.92235 0.01796 0.44157 0.0
O495 O 0.00802 0.02215 0.448 0.0
O496 O 0.04618 0.0285 0.49247 0.0
O497 O 0.96348 0.94137 0.4311 0.0
C498 C 0.95335 0.96467 0.54498 0.0
C499 C 0.038 0.03492 0.45915 0.0
Zn500 Zn 0.52237 0.97124 0.98035 0.0
Zn501 Zn 0.47619 0.02297 0.02221 0.0
C502 C 0.47689 0.95955 0.92072 0.0
O503 O 0.50681 0.97137 0.90196 0.0
C504 C 0.51819 0.04797 0.08202 0.0
O505 O 0.48741 0.05585 0.09514 0.0
O506 O 0.5578 0.93975 0.95608 0.0
O507 O 0.54075 0.02942 0.96895 0.0
O508 O 0.48791 0.05034 0.97045 0.0
C509 C 0.58052 0.95509 0.93086 0.0
O510 O 0.58235 0.99308 0.92019 0.0
O511 O 0.47611 0.958 0.9557 0.0
C512 C 0.41294 0.0329 0.06737 0.0
O513 O 0.41031 0.99412 0.07308 0.0
O514 O 0.43765 0.0513 0.04582 0.0
O515 O 0.45996 0.96393 0.03121 0.0
O516 O 0.51437 0.94779 0.03324 0.0
O517 O 0.52057 0.03383 0.05087 0.0
C518 C 0.52023 0.05488 0.95872 0.0
C519 C 0.48177 0.9409 0.04358 0.0
Zn520 Zn 0.52003 0.47161 0.46835 0.0
Zn521 Zn 0.47249 0.52419 0.52907 0.0
C522 C 0.58602 0.51228 0.43662 0.0
O523 O 0.59835 0.48279 0.45567 0.0
C524 C 0.4226 0.46845 0.57307 0.0
O525 O 0.44506 0.47868 0.59807 0.0
O526 O 0.52945 0.42239 0.44435 0.0
O527 O 0.53618 0.46387 0.5209 0.0
O528 O 0.51329 0.50444 0.55762 0.0
C529 C 0.55233 0.4009 0.45692 0.0
O530 O 0.56779 0.4088 0.48755 0.0
O531 O 0.55301 0.51581 0.43935 0.0
C532 C 0.43514 0.57839 0.57196 0.0
O533 O 0.41633 0.54647 0.58754 0.0
O534 O 0.46027 0.57551 0.54853 0.0
O535 O 0.47816 0.54074 0.4739 0.0
O536 O 0.46911 0.48035 0.45739 0.0
O537 O 0.4292 0.48279 0.53976 0.0
C538 C 0.53427 0.47859 0.55183 0.0
C539 C 0.46435 0.51668 0.45228 0.0
Zn540 Zn 0.96259 0.51247 0.96401 0.0
Zn541 Zn 0.03698 0.48397 0.04389 0.0
C542 C 0.91468 0.46398 0.92211 0.0
O543 O 0.94451 0.46126 0.90353 0.0
C544 C 0.08636 0.52434 0.087 0.0
O545 O 0.06367 0.50589 0.11255 0.0
O546 O 0.96247 0.56682 0.93975 0.0
O547 O 0.9667 0.51671 0.01856 0.0
O548 O 0.99517 0.50577 0.06906 0.0
C549 C 0.93359 0.58098 0.94642 0.0
O550 O 0.91065 0.56228 0.97161 0.0
O551 O 0.91555 0.48301 0.95091 0.0
C552 C 0.07361 0.42062 0.05158 0.0
O553 O 0.08804 0.44401 0.02336 0.0
O554 O 0.04712 0.43185 0.06865 0.0
O555 O 0.03424 0.47489 0.98888 0.0
O556 O 0.00223 0.48686 0.94081 0.0
O557 O 0.08064 0.52089 0.05308 0.0
C558 C 0.96938 0.51932 0.05299 0.0
C559 C 0.02854 0.47225 0.95481 0.0
C560 C 0.09025 0.0647 0.36811 0.0
C561 C 0.11271 0.09821 0.3772 0.0
C562 C 0.0853 0.09159 0.43959 0.0
C563 C 0.06494 0.056 0.43162 0.0
N564 N 0.05646 0.00285 0.39125 0.0
N565 N 0.138 0.13754 0.42379 0.0
C566 C 0.06989 0.04074 0.39673 0.0
C567 C 0.11241 0.10958 0.41377 0.0
N568 N 0.08721 0.05651 0.3321 0.0
N569 N 0.0772 0.10986 0.47039 0.0
H570 H 0.15833 0.15117 0.40539 0.0
H571 H 0.14099 0.14415 0.45107 0.0
H572 H 0.0556 0.09949 0.48839 0.0
H573 H 0.08931 0.13766 0.47568 0.0
H574 H 0.06812 0.03507 0.32384 0.0
H575 H 0.1015 0.07337 0.31009 0.0
H576 H 0.06194 0.98945 0.36721 0.0
H577 H 0.04346 0.98316 0.41218 0.0
C578 C 0.41521 0.8838 0.87691 0.0
C579 C 0.40498 0.90854 0.8468 0.0
C580 C 0.42904 0.96656 0.87686 0.0
C581 C 0.44674 0.94173 0.90111 0.0
N582 N 0.45944 0.87577 0.92197 0.0
N583 N 0.4065 0.97478 0.81599 0.0
C584 C 0.4402 0.89996 0.90104 0.0
C585 C 0.4125 0.95044 0.84633 0.0
N586 N 0.40134 0.84491 0.88214 0.0
N587 N 0.42786 0.00533 0.88324 0.0
H588 H 0.39645 0.96443 0.79189 0.0
H589 H 0.41487 0.00512 0.81348 0.0
H590 H 0.43761 0.0166 0.90716 0.0
H591 H 0.41329 0.02427 0.86762 0.0
H592 H 0.40598 0.82643 0.90533 0.0
H593 H 0.38223 0.83252 0.8653 0.0
H594 H 0.45817 0.8453 0.91983 0.0
H595 H 0.47894 0.88661 0.93904 0.0
C596 C 0.5556 0.43624 0.64741 0.0
C597 C 0.59261 0.43388 0.64362 0.0
C598 C 0.59251 0.46494 0.57994 0.0
C599 C 0.55493 0.4627 0.58282 0.0
N600 N 0.5015 0.4312 0.61506 0.0
N601 N 0.64489 0.438 0.60266 0.0
C602 C 0.53663 0.44425 0.61544 0.0
C603 C 0.61081 0.44608 0.60883 0.0
N604 N 0.53844 0.43166 0.68147 0.0
N605 N 0.61078 0.48561 0.55011 0.0
H606 H 0.65868 0.42278 0.62244 0.0
H607 H 0.65814 0.44281 0.57677 0.0
H608 H 0.59817 0.49998 0.52881 0.0
H609 H 0.63833 0.49139 0.54822 0.0
H610 H 0.51186 0.43616 0.68535 0.0
H611 H 0.55159 0.42784 0.70595 0.0
H612 H 0.48738 0.41488 0.63749 0.0
H613 H 0.48834 0.43173 0.59047 0.0
C614 C 0.89022 0.55569 0.10321 0.0
C615 C 0.90698 0.59079 0.11655 0.0
C616 C 0.95999 0.58437 0.07766 0.0
C617 C 0.94672 0.54456 0.07284 0.0
N618 N 0.89768 0.49274 0.07892 0.0
N619 N 0.94402 0.64893 0.09026 0.0
C620 C 0.91127 0.53037 0.08478 0.0
C621 C 0.93814 0.60859 0.0962 0.0
N622 N 0.85426 0.5506 0.10146 0.0
N623 N 0.99356 0.59912 0.06498 0.0
H624 H 0.92542 0.66705 0.09908 0.0
H625 H 0.96448 0.6637 0.07274 0.0
H626 H 0.01 0.5831 0.04976 0.0
H627 H 0.0057 0.62644 0.0716 0.0
H628 H 0.8407 0.52708 0.08933 0.0
H629 H 0.839 0.5736 0.10615 0.0
H630 H 0.87312 0.47981 0.09039 0.0
H631 H 0.91198 0.47376 0.06466 0.0
C632 C 0.37358 0.084 0.14581 0.0
C633 C 0.34171 0.09442 0.1306 0.0
C634 C 0.36037 0.07115 0.0715 0.0
C635 C 0.38912 0.05519 0.08869 0.0
N636 N 0.41892 0.03957 0.14474 0.0
N637 N 0.30141 0.09024 0.08067 0.0
C638 C 0.39453 0.05955 0.12661 0.0
C639 C 0.33422 0.08625 0.09374 0.0
N640 N 0.38445 0.09843 0.17799 0.0
N641 N 0.35768 0.07139 0.03411 0.0
H642 H 0.28056 0.09857 0.09669 0.0
H643 H 0.29369 0.08112 0.05524 0.0
H644 H 0.37566 0.05926 0.01709 0.0
H645 H 0.33933 0.08653 0.01976 0.0
H646 H 0.40915 0.09463 0.18839 0.0
H647 H 0.3705 0.11785 0.19208 0.0
H648 H 0.42131 0.03888 0.17325 0.0
H649 H 0.43427 0.0205 0.13204 0.0
C650 C 0.13772 0.90255 0.64228 0.0
C651 C 0.17125 0.91195 0.62326 0.0
C652 C 0.14432 0.9505 0.57419 0.0
C653 C 0.11244 0.94683 0.5965 0.0
N654 N 0.07763 0.91906 0.65121 0.0
N655 N 0.20766 0.94667 0.5722 0.0
C656 C 0.10872 0.92247 0.63029 0.0
C657 C 0.17481 0.93579 0.5891 0.0
N658 N 0.13362 0.87405 0.67138 0.0
N659 N 0.14569 0.96868 0.53912 0.0
H660 H 0.23084 0.93707 0.58234 0.0
H661 H 0.21248 0.9677 0.54962 0.0
H662 H 0.12449 0.98154 0.52773 0.0
H663 H 0.16686 0.96813 0.52013 0.0
H664 H 0.10921 0.86319 0.68442 0.0
H665 H 0.15437 0.85859 0.68046 0.0
H666 H 0.07467 0.90614 0.67827 0.0
H667 H 0.05494 0.93074 0.64194 0.0
C668 C 0.84629 0.42742 0.85513 0.0
C669 C 0.81756 0.4106 0.8795 0.0
C670 C 0.85344 0.4257 0.93237 0.0
C671 C 0.88049 0.44679 0.90797 0.0
N672 N 0.89697 0.47671 0.84594 0.0
N673 N 0.79089 0.40264 0.94148 0.0
C674 C 0.87525 0.45037 0.86929 0.0
C675 C 0.82022 0.41252 0.91822 0.0
N676 N 0.84696 0.4201 0.8187 0.0
N677 N 0.85985 0.41609 0.96854 0.0
H678 H 0.76584 0.39413 0.93206 0.0
H679 H 0.79078 0.40699 0.96954 0.0
H680 H 0.88438 0.42285 0.97975 0.0
H681 H 0.84199 0.39745 0.98634 0.0
H682 H 0.86907 0.42862 0.80079 0.0
H683 H 0.82718 0.40186 0.80729 0.0
H684 H 0.89172 0.48316 0.81829 0.0
H685 H 0.91782 0.49539 0.85481 0.0
C686 C 0.67155 0.57097 0.3986 0.0
C687 C 0.66495 0.57776 0.36051 0.0
C688 C 0.60485 0.54364 0.37224 0.0
C689 C 0.61074 0.53922 0.41071 0.0
N690 N 0.64601 0.55904 0.4611 0.0
N691 N 0.62251 0.57976 0.31298 0.0
C692 C 0.64295 0.55626 0.42405 0.0
C693 C 0.63064 0.56709 0.34794 0.0
N694 N 0.70535 0.57646 0.41035 0.0
N695 N 0.57598 0.52346 0.35837 0.0
H696 H 0.64069 0.59728 0.29459 0.0
H697 H 0.59687 0.57619 0.30363 0.0
H698 H 0.55714 0.50468 0.37476 0.0
H699 H 0.57254 0.52235 0.33016 0.0
H700 H 0.71188 0.5681 0.43723 0.0
H701 H 0.72746 0.58556 0.39257 0.0
H702 H 0.66776 0.5745 0.47214 0.0
H703 H 0.62506 0.54976 0.48036 0.0
C704 C 0.14768 0.37056 0.09202 0.0
C705 C 0.12994 0.33717 0.1134 0.0
C706 C 0.07323 0.35521 0.09074 0.0
C707 C 0.09198 0.38688 0.06735 0.0
N708 N 0.14819 0.40746 0.03305 0.0
N709 N 0.07623 0.29187 0.12549 0.0
C710 C 0.12956 0.38955 0.06393 0.0
C711 C 0.09268 0.32781 0.11092 0.0
N712 N 0.18187 0.38423 0.09831 0.0
N713 N 0.03702 0.35014 0.09247 0.0
H714 H 0.08967 0.26996 0.1385 0.0
H715 H 0.04982 0.2821 0.12148 0.0
H716 H 0.02194 0.36471 0.07349 0.0
H717 H 0.02208 0.33162 0.11295 0.0
H718 H 0.19484 0.41019 0.08449 0.0
H719 H 0.19563 0.37219 0.12001 0.0
H720 H 0.17567 0.40817 0.02969 0.0
H721 H 0.13632 0.41449 0.00842 0.0
C722 C 0.55196 0.12269 0.87251 0.0
C723 C 0.56648 0.15744 0.88807 0.0
C724 C 0.55332 0.12351 0.95012 0.0
C725 C 0.53483 0.09089 0.93456 0.0
N726 N 0.51022 0.06355 0.8809 0.0
N727 N 0.57295 0.19383 0.94234 0.0
C728 C 0.53212 0.09182 0.89572 0.0
C729 C 0.56491 0.15872 0.92712 0.0
N730 N 0.55854 0.11811 0.83596 0.0
N731 N 0.56047 0.12073 0.98668 0.0
H732 H 0.57967 0.22075 0.92651 0.0
H733 H 0.56918 0.19689 0.97047 0.0
H734 H 0.55237 0.09541 0.00434 0.0
H735 H 0.57715 0.14208 0.99852 0.0
H736 H 0.5514 0.09166 0.82417 0.0
H737 H 0.57446 0.13907 0.81832 0.0
H738 H 0.50458 0.06478 0.85302 0.0
H739 H 0.49487 0.04129 0.89738 0.0
C740 C 0.91023 0.81745 0.3977 0.0
C741 C 0.90837 0.82714 0.35921 0.0
C742 C 0.93667 0.89424 0.36571 0.0
C743 C 0.9316 0.88678 0.4047 0.0
N744 N 0.91598 0.8411 0.4585 0.0
N745 N 0.91979 0.87421 0.30574 0.0
C746 C 0.91946 0.84813 0.4209 0.0
C747 C 0.9224 0.86511 0.34279 0.0
N748 N 0.90322 0.77875 0.41179 0.0
N749 N 0.95433 0.92932 0.35052 0.0
H750 H 0.90991 0.85353 0.28802 0.0
H751 H 0.9254 0.90276 0.2928 0.0
H752 H 0.96364 0.95234 0.36601 0.0
H753 H 0.96237 0.93448 0.32267 0.0
H754 H 0.90675 0.76899 0.43914 0.0
H755 H 0.89688 0.75566 0.39514 0.0
H756 H 0.90291 0.81522 0.47217 0.0
H757 H 0.92524 0.86209 0.4762 0.0
C758 C 0.37308 0.6538 0.59047 0.0
C759 C 0.39675 0.68686 0.59845 0.0
C760 C 0.44695 0.64854 0.58948 0.0
C761 C 0.42331 0.6173 0.57793 0.0
N762 N 0.36581 0.59661 0.55546 0.0
N763 N 0.45691 0.71891 0.59656 0.0
C764 C 0.38694 0.62192 0.57466 0.0
C765 C 0.43399 0.68528 0.5952 0.0
N766 N 0.33764 0.65163 0.59969 0.0
N767 N 0.48114 0.64277 0.59662 0.0
H768 H 0.44835 0.74669 0.59924 0.0
H769 H 0.48416 0.71987 0.59116 0.0
H770 H 0.49149 0.61605 0.59337 0.0
H771 H 0.49823 0.66337 0.60888 0.0
H772 H 0.32016 0.62627 0.59715 0.0
H773 H 0.32638 0.67305 0.61375 0.0
H774 H 0.33968 0.60083 0.54993 0.0
H775 H 0.37578 0.57455 0.54117 0.0
C776 C 0.88777 0.95061 0.62733 0.0
C777 C 0.87189 0.91143 0.62394 0.0
C778 C 0.91157 0.90619 0.57039 0.0
C779 C 0.92517 0.94641 0.57187 0.0
N780 N 0.921 0.00961 0.59653 0.0
N781 N 0.86333 0.8548 0.5881 0.0
C782 C 0.91167 0.96951 0.59875 0.0
C783 C 0.88209 0.89013 0.59405 0.0
N784 N 0.88171 0.96902 0.65867 0.0
N785 N 0.92789 0.88282 0.54775 0.0
H786 H 0.84115 0.84252 0.60466 0.0
H787 H 0.86764 0.83972 0.5648 0.0
H788 H 0.95006 0.89345 0.53049 0.0
H789 H 0.92151 0.85219 0.54861 0.0
H790 H 0.8958 0.99575 0.66416 0.0
H791 H 0.86501 0.95609 0.68082 0.0
H792 H 0.90896 0.02838 0.61313 0.0
H793 H 0.93838 0.02468 0.57585 0.0
C794 C 0.58281 0.04684 0.1572 0.0
C795 C 0.5951 0.08791 0.15584 0.0
C796 C 0.56274 0.10109 0.10034 0.0
C797 C 0.54993 0.06029 0.10197 0.0
N798 N 0.55528 0.99289 0.12457 0.0
N799 N 0.60689 0.1509 0.11989 0.0
C800 C 0.56286 0.03259 0.12776 0.0
C801 C 0.58864 0.11386 0.12502 0.0
N802 N 0.58784 0.02209 0.18761 0.0
N803 N 0.54857 0.12795 0.0769 0.0
H804 H 0.62631 0.16075 0.13762 0.0
H805 H 0.60539 0.17004 0.09627 0.0
H806 H 0.52927 0.11972 0.0585 0.0
H807 H 0.55407 0.15854 0.07755 0.0
H808 H 0.57594 0.99295 0.19189 0.0
H809 H 0.60203 0.03135 0.20989 0.0
H810 H 0.56636 0.97117 0.14073 0.0
H811 H 0.54054 0.98196 0.10324 0.0
C812 C 0.40101 0.5752 0.39632 0.0
C813 C 0.40792 0.56405 0.36021 0.0
C814 C 0.45269 0.52272 0.38387 0.0
C815 C 0.44399 0.53155 0.42056 0.0
N816 N 0.40433 0.55951 0.46225 0.0
N817 N 0.43592 0.52242 0.32012 0.0
C818 C 0.41665 0.55606 0.42693 0.0
C819 C 0.43237 0.53627 0.3542 0.0
N820 N 0.3799 0.6046 0.40133 0.0
N821 N 0.48155 0.50326 0.37688 0.0
H822 H 0.42248 0.53264 0.29739 0.0
H823 H 0.44997 0.49865 0.31502 0.0
H824 H 0.4975 0.49309 0.39739 0.0
H825 H 0.49168 0.50018 0.35036 0.0
H826 H 0.37719 0.61737 0.42622 0.0
H827 H 0.36716 0.61845 0.37978 0.0
H828 H 0.38208 0.57354 0.46852 0.0
H829 H 0.41404 0.54488 0.48538 0.0
C830 C 0.10612 0.42938 0.90619 0.0
C831 C 0.08752 0.40822 0.87929 0.0
C832 C 0.03164 0.42116 0.90924 0.0
C833 C 0.04988 0.44831 0.93142 0.0
N834 N 0.10578 0.48313 0.94607 0.0
N835 N 0.03188 0.39489 0.84977 0.0
C836 C 0.08758 0.45381 0.92864 0.0
C837 C 0.05005 0.40737 0.87916 0.0
N838 N 0.14089 0.42498 0.91156 0.0
N839 N 0.99707 0.40688 0.91782 0.0
H840 H 0.04446 0.38746 0.82569 0.0
H841 H 0.00477 0.39667 0.84775 0.0
H842 H 0.9835 0.41356 0.94165 0.0
H843 H 0.9836 0.38473 0.90382 0.0
H844 H 0.15458 0.43701 0.93307 0.0
H845 H 0.15487 0.40586 0.89718 0.0
H846 H 0.13309 0.4906 0.94202 0.0
H847 H 0.09324 0.50225 0.96187 0.0
C848 C 0.62089 0.892 0.86236 0.0
C849 C 0.65168 0.88271 0.88052 0.0
C850 C 0.63352 0.91729 0.93355 0.0
C851 C 0.60498 0.93023 0.91355 0.0
N852 N 0.57551 0.9363 0.85597 0.0
N853 N 0.69124 0.8935 0.93011 0.0
C854 C 0.59989 0.91959 0.87702 0.0
C855 C 0.65905 0.89707 0.91536 0.0
N856 N 0.61101 0.87343 0.8318 0.0
N857 N 0.63649 0.92456 0.9698 0.0
H858 H 0.7113 0.88029 0.91709 0.0
H859 H 0.69944 0.90708 0.95347 0.0
H860 H 0.61947 0.94114 0.98362 0.0
H861 H 0.65429 0.91175 0.98688 0.0
H862 H 0.58691 0.87609 0.81961 0.0
H863 H 0.6252 0.85218 0.8208 0.0
H864 H 0.57343 0.93281 0.8279 0.0
H865 H 0.55962 0.9567 0.86555 0.0
C866 C 0.83061 0.04954 0.3855 0.0
C867 C 0.83108 0.09079 0.37586 0.0
C868 C 0.8915 0.10177 0.39716 0.0
C869 C 0.89278 0.06013 0.40099 0.0
N870 N 0.86556 0.99445 0.3913 0.0
N871 N 0.8637 0.1562 0.36801 0.0
C872 C 0.86281 0.03394 0.39331 0.0
C873 C 0.86194 0.11706 0.38063 0.0
N874 N 0.79929 0.02534 0.38775 0.0
N875 N 0.91787 0.12662 0.41034 0.0
H876 H 0.84287 0.16855 0.35526 0.0
H877 H 0.88691 0.17567 0.36734 0.0
H878 H 0.93966 0.11644 0.42316 0.0
H879 H 0.9164 0.15685 0.41176 0.0
H880 H 0.7971 0.99564 0.39805 0.0
H881 H 0.77495 0.03597 0.38309 0.0
H882 H 0.84528 0.9748 0.38245 0.0
H883 H 0.88937 0.98218 0.39426 0.0
C884 C 0.15304 0.60316 0.12091 0.0
C885 C 0.18335 0.58221 0.12439 0.0
C886 C 0.14911 0.52261 0.10521 0.0
C887 C 0.12017 0.54474 0.09818 0.0
N888 N 0.09584 0.6073 0.09413 0.0
N889 N 0.21225 0.52424 0.11295 0.0
C890 C 0.12256 0.58547 0.10435 0.0
C891 C 0.18195 0.54248 0.1147 0.0
N892 N 0.15278 0.63919 0.13497 0.0
N893 N 0.14504 0.48239 0.10366 0.0
H894 H 0.23704 0.538 0.11881 0.0
H895 H 0.21342 0.49685 0.10234 0.0
H896 H 0.1217 0.46685 0.09594 0.0
H897 H 0.16371 0.46414 0.11302 0.0
H898 H 0.1303 0.6541 0.13656 0.0
H899 H 0.17413 0.65257 0.14834 0.0
H900 H 0.09767 0.63805 0.09423 0.0
H901 H 0.07287 0.59501 0.08262 0.0
C902 C 0.36124 0.39898 0.63677 0.0
C903 C 0.32998 0.41834 0.63591 0.0
C904 C 0.3559 0.46389 0.58335 0.0
C905 C 0.38796 0.44598 0.58619 0.0
N906 N 0.41611 0.38838 0.60462 0.0
N907 N 0.29499 0.46583 0.60666 0.0
C908 C 0.38898 0.41094 0.60961 0.0
C909 C 0.32648 0.44974 0.60845 0.0
N910 N 0.36502 0.37032 0.66452 0.0
N911 N 0.3536 0.49393 0.55652 0.0
H912 H 0.27278 0.45534 0.62386 0.0
H913 H 0.29008 0.48935 0.58827 0.0
H914 H 0.37333 0.50266 0.53597 0.0
H915 H 0.33176 0.50949 0.55299 0.0
H916 H 0.38863 0.3581 0.66886 0.0
H917 H 0.34542 0.36099 0.68525 0.0
H918 H 0.41739 0.36071 0.61869 0.0
H919 H 0.4351 0.39543 0.58287 0.0
C920 C 0.89075 0.62876 0.86566 0.0
C921 C 0.88594 0.66623 0.87815 0.0
C922 C 0.91544 0.64916 0.93505 0.0
C923 C 0.92212 0.61276 0.92129 0.0
N924 N 0.92439 0.57265 0.86939 0.0
N925 N 0.89993 0.71579 0.92082 0.0
C926 C 0.91262 0.60417 0.88522 0.0
C927 C 0.90007 0.67759 0.91179 0.0
N928 N 0.87293 0.61569 0.8362 0.0
N929 N 0.92361 0.65639 0.97035 0.0
H930 H 0.88926 0.73755 0.90422 0.0
H931 H 0.91299 0.72683 0.9431 0.0
H932 H 0.93698 0.63727 0.98725 0.0
H933 H 0.9156 0.68024 0.98348 0.0
H934 H 0.87246 0.5868 0.82852 0.0
H935 H 0.85562 0.6323 0.82172 0.0
H936 H 0.92176 0.56841 0.84151 0.0
H937 H 0.93975 0.55292 0.88275 0.0
C938 C 0.45484 0.8322 0.07752 0.0
C939 C 0.43797 0.83636 0.11234 0.0
C940 C 0.45494 0.90837 0.10419 0.0
C941 C 0.46857 0.90465 0.06789 0.0
N942 N 0.4784 0.86382 0.01815 0.0
N943 N 0.41745 0.87856 0.15689 0.0
C944 C 0.46781 0.86673 0.05409 0.0
C945 C 0.43689 0.87451 0.12524 0.0
N946 N 0.45938 0.7952 0.06733 0.0
N947 N 0.46029 0.94406 0.11899 0.0
H948 H 0.40389 0.85449 0.17307 0.0
H949 H 0.41233 0.9059 0.16554 0.0
H950 H 0.47341 0.96942 0.10434 0.0
H951 H 0.45454 0.9478 0.14665 0.0
H952 H 0.47469 0.79019 0.04414 0.0
H953 H 0.45024 0.76921 0.0837 0.0
H954 H 0.47415 0.83785 0.00489 0.0
H955 H 0.48947 0.88819 1.0007 0.0
C956 C 0.07693 0.17802 0.6137 0.0
C957 C 0.08685 0.16573 0.64967 0.0
C958 C 0.06249 0.09759 0.64169 0.0
C959 C 0.06046 0.10838 0.60333 0.0
N960 N 0.06046 0.15909 0.55326 0.0
N961 N 0.08948 0.11403 0.69859 0.0
C962 C 0.06575 0.14885 0.58956 0.0
C963 C 0.07908 0.12569 0.6642 0.0
N964 N 0.07828 0.21763 0.60294 0.0
N965 N 0.04855 0.06083 0.65665 0.0
H966 H 0.10109 0.1339 0.71616 0.0
H967 H 0.08868 0.08443 0.70878 0.0
H968 H 0.03487 0.04006 0.64143 0.0
H969 H 0.04677 0.05258 0.68495 0.0
H970 H 0.06908 0.22891 0.5781 0.0
H971 H 0.08598 0.23948 0.62048 0.0
H972 H 0.06825 0.18708 0.53989 0.0
H973 H 0.04843 0.13886 0.5363 0.0
C974 C 0.60195 0.34864 0.38671 0.0
C975 C 0.59591 0.30902 0.40291 0.0
C976 C 0.55779 0.32909 0.45225 0.0
C977 C 0.5638 0.36875 0.4361 0.0
N978 N 0.58619 0.41585 0.38492 0.0
N979 N 0.56318 0.25949 0.44599 0.0
C980 C 0.58394 0.37834 0.40216 0.0
C981 C 0.57226 0.29861 0.43417 0.0
N982 N 0.62622 0.3581 0.35762 0.0
N983 N 0.53873 0.32077 0.48521 0.0
H984 H 0.57359 0.23645 0.43348 0.0
H985 H 0.54341 0.24949 0.46626 0.0
H986 H 0.52554 0.34179 0.4979 0.0
H987 H 0.53715 0.2936 0.5009 0.0
H988 H 0.63515 0.38702 0.34727 0.0
H989 H 0.63937 0.33699 0.34504 0.0
H990 H 0.59693 0.42357 0.3582 0.0
H991 H 0.57512 0.4391 0.3962 0.0
loop_
_geom_bond_atom_site_label_1
_geom_bond_atom_site_label_2
_geom_bond_distance
_geom_bond_site_symmetry_2
_ccdc_geom_bond_type
C0 C1 1.391 . S
C0 C4 1.391 . S
C0 H42 0.948 . S
C1 C0 1.391 . S
C1 C2 1.391 . S
C2 C1 1.391 . S
C2 H58 0.947 . S
C2 C59 1.392 . S
C3 C4 1.391 . S
C3 C7 1.397 . S
C3 C59 1.419 . S
C4 C0 1.391 . S
C4 C3 1.391 . S
C4 C5 1.399 . S
C5 C4 1.399 . S
C5 C8 1.396 . S
C5 C17 1.453 . S
C5 C18 1.684 . S
H6 C30 0.948 . S
C7 C3 1.397 . S
C7 C8 1.394 . S
C7 C26 1.723 . S
C8 C5 1.396 . S
C8 C7 1.394 . S
C8 C38 1.723 . S
H9 C32 0.947 . S
H10 C33 0.948 . S
H11 C39 0.982 . S
H12 C40 0.979 . S
H13 C40 0.980 . S
H14 C40 0.983 . S
H15 C39 0.979 . S
H16 C39 0.977 . S
C17 C5 1.453 . S
C17 H46 0.982 . S
C17 H47 0.979 . S
C17 H48 0.977 . S
C18 C5 1.684 . S
C18 H43 0.979 . S
C18 H44 0.980 . S
C18 H45 0.983 . S
C19 C20 1.391 . S
C19 C24 1.391 . S
C19 H49 0.948 . S
C20 C19 1.391 . S
C20 C21 1.391 . S
C21 C20 1.391 . S
C21 C22 1.392 . S
C21 H50 0.947 . S
C22 C21 1.392 . S
C22 C23 1.419 . S
C22 H51 0.948 . S
C23 C22 1.419 . S
C23 C24 1.391 . S
C23 C27 1.397 . S
C24 C19 1.391 . S
C24 C23 1.391 . S
C24 C25 1.399 . S
C25 C24 1.399 . S
C25 C26 1.396 . S
C25 C28 1.453 . S
C25 C29 1.684 . S
C26 C7 1.723 . S
C26 C25 1.396 . S
C26 C27 1.394 . S
C27 C23 1.397 . S
C27 C26 1.394 . S
C27 C37 1.723 . S
C28 C25 1.453 . S
C28 H52 0.982 . S
C28 H53 0.979 . S
C28 H54 0.977 . S
C29 C25 1.684 . S
C29 H55 0.979 . S
C29 H56 0.980 . S
C29 H57 0.983 . S
C30 H6 0.948 . S
C30 C31 1.391 . S
C30 C35 1.391 . S
C31 C30 1.391 . S
C31 C32 1.391 . S
C32 H9 0.947 . S
C32 C31 1.391 . S
C32 C33 1.392 . S
C33 H10 0.948 . S
C33 C32 1.392 . S
C33 C34 1.419 . S
C34 C33 1.419 . S
C34 C35 1.391 . S
C34 C38 1.397 . S
C35 C30 1.391 . S
C35 C34 1.391 . S
C35 C36 1.399 . S
C36 C35 1.399 . S
C36 C37 1.396 . S
C36 C39 1.453 . S
C36 C40 1.684 . S
C37 C27 1.723 . S
C37 C36 1.396 . S
C37 C38 1.394 . S
C38 C8 1.723 . S
C38 C34 1.397 . S
C38 C37 1.394 . S
C39 H11 0.982 . S
C39 H15 0.979 . S
C39 H16 0.977 . S
C39 C36 1.453 . S
C40 H12 0.979 . S
C40 H13 0.980 . S
C40 H14 0.983 . S
C40 C36 1.684 . S
H41 C59 0.948 . S
H42 C0 0.948 . S
H43 C18 0.979 . S
H44 C18 0.980 . S
H45 C18 0.983 . S
H46 C17 0.982 . S
H47 C17 0.979 . S
H48 C17 0.977 . S
H49 C19 0.948 . S
H50 C21 0.947 . S
H51 C22 0.948 . S
H52 C28 0.982 . S
H53 C28 0.979 . S
H54 C28 0.977 . S
H55 C29 0.979 . S
H56 C29 0.980 . S
H57 C29 0.983 . S
H58 C2 0.947 . S
C59 C2 1.392 . S
C59 C3 1.419 . S
C59 H41 0.948 . S
C60 C61 1.391 . S
C60 C64 1.391 . S
C60 H102 0.948 . S
C61 C60 1.391 . S
C61 C62 1.391 . S
C62 C61 1.391 . S
C62 H118 0.947 . S
C62 C119 1.392 . S
C63 C64 1.391 . S
C63 C67 1.397 . S
C63 C119 1.419 . S
C64 C60 1.391 . S
C64 C63 1.391 . S
C64 C65 1.399 . S
C65 C64 1.399 . S
C65 C68 1.396 . S
C65 C77 1.453 . S
C65 C78 1.684 . S
H66 C90 0.948 . S
C67 C63 1.397 . S
C67 C68 1.394 . S
C67 C86 1.723 . S
C68 C65 1.396 . S
C68 C67 1.394 . S
C68 C98 1.723 . S
H69 C92 0.947 . S
H70 C93 0.948 . S
H71 C99 0.982 . S
H72 C100 0.979 . S
H73 C100 0.980 . S
H74 C100 0.983 . S
H75 C99 0.979 . S
H76 C99 0.977 . S
C77 C65 1.453 . S
C77 H106 0.982 . S
C77 H107 0.979 . S
C77 H108 0.977 . S
C78 C65 1.684 . S
C78 H103 0.979 . S
C78 H104 0.980 . S
C78 H105 0.983 . S
C79 C80 1.391 . S
C79 C84 1.391 . S
C79 H109 0.948 . S
C80 C79 1.391 . S
C80 C81 1.391 . S
C81 C80 1.391 . S
C81 C82 1.392 . S
C81 H110 0.947 . S
C82 C81 1.392 . S
C82 C83 1.419 . S
C82 H111 0.948 . S
C83 C82 1.419 . S
C83 C84 1.391 . S
C83 C87 1.397 . S
C84 C79 1.391 . S
C84 C83 1.391 . S
C84 C85 1.399 . S
C85 C84 1.399 . S
C85 C86 1.396 . S
C85 C88 1.453 . S
C85 C89 1.684 . S
C86 C67 1.723 . S
C86 C85 1.396 . S
C86 C87 1.394 . S
C87 C83 1.397 . S
C87 C86 1.394 . S
C87 C97 1.723 . S
C88 C85 1.453 . S
C88 H112 0.982 . S
C88 H113 0.979 . S
C88 H114 0.977 . S
C89 C85 1.684 . S
C89 H115 0.979 . S
C89 H116 0.980 . S
C89 H117 0.983 . S
C90 H66 0.948 . S
C90 C91 1.391 . S
C90 C95 1.391 . S
C91 C90 1.391 . S
C91 C92 1.391 . S
C92 H69 0.947 . S
C92 C91 1.391 . S
C92 C93 1.392 . S
C93 H70 0.948 . S
C93 C92 1.392 . S
C93 C94 1.419 . S
C94 C93 1.419 . S
C94 C95 1.391 . S
C94 C98 1.397 . S
C95 C90 1.391 . S
C95 C94 1.391 . S
C95 C96 1.399 . S
C96 C95 1.399 . S
C96 C97 1.396 . S
C96 C99 1.453 . S
C96 C100 1.684 . S
C97 C87 1.723 . S
C97 C96 1.396 . S
C97 C98 1.394 . S
C98 C68 1.723 . S
C98 C94 1.397 . S
C98 C97 1.394 . S
C99 H71 0.982 . S
C99 H75 0.979 . S
C99 H76 0.977 . S
C99 C96 1.453 . S
C100 H72 0.979 . S
C100 H73 0.980 . S
C100 H74 0.983 . S
C100 C96 1.684 . S
H101 C119 0.948 . S
H102 C60 0.948 . S
H103 C78 0.979 . S
H104 C78 0.980 . S
H105 C78 0.983 . S
H106 C77 0.982 . S
H107 C77 0.979 . S
H108 C77 0.977 . S
H109 C79 0.948 . S
H110 C81 0.947 . S
H111 C82 0.948 . S
H112 C88 0.982 . S
H113 C88 0.979 . S
H114 C88 0.977 . S
H115 C89 0.979 . S
H116 C89 0.980 . S
H117 C89 0.983 . S
H118 C62 0.947 . S
C119 C62 1.392 . S
C119 C63 1.419 . S
C119 H101 0.948 . S
C120 C121 1.391 . S
C120 C124 1.391 . S
C120 H162 0.948 . S
C121 C120 1.391 . S
C121 C122 1.391 . S
C122 C121 1.391 . S
C122 H178 0.947 . S
C122 C179 1.392 . S
C123 C124 1.391 . S
C123 C127 1.397 . S
C123 C179 1.419 . S
C124 C120 1.391 . S
C124 C123 1.391 . S
C124 C125 1.399 . S
C125 C124 1.399 . S
C125 C128 1.396 . S
C125 C137 1.453 . S
C125 C138 1.684 . S
H126 C150 0.948 . S
C127 C123 1.397 . S
C127 C128 1.394 . S
C127 C146 1.723 . S
C128 C125 1.396 . S
C128 C127 1.394 . S
C128 C158 1.723 . S
H129 C152 0.947 . S
H130 C153 0.948 . S
H131 C159 0.982 . S
H132 C160 0.979 . S
H133 C160 0.980 . S
H134 C160 0.983 . S
H135 C159 0.979 . S
H136 C159 0.977 . S
C137 C125 1.453 . S
C137 H166 0.982 . S
C137 H167 0.979 . S
C137 H168 0.977 . S
C138 C125 1.684 . S
C138 H163 0.979 . S
C138 H164 0.980 . S
C138 H165 0.983 . S
C139 C140 1.391 . S
C139 C144 1.391 . S
C139 H169 0.948 . S
C140 C139 1.391 . S
C140 C141 1.391 . S
C141 C140 1.391 . S
C141 C142 1.392 . S
C141 H170 0.947 . S
C142 C141 1.392 . S
C142 C143 1.419 . S
C142 H171 0.948 . S
C143 C142 1.419 . S
C143 C144 1.391 . S
C143 C147 1.397 . S
C144 C139 1.391 . S
C144 C143 1.391 . S
C144 C145 1.399 . S
C145 C144 1.399 . S
C145 C146 1.396 . S
C145 C148 1.453 . S
C145 C149 1.684 . S
C146 C127 1.723 . S
C146 C145 1.396 . S
C146 C147 1.394 . S
C147 C143 1.397 . S
C147 C146 1.394 . S
C147 C157 1.723 . S
C148 C145 1.453 . S
C148 H172 0.982 . S
C148 H173 0.979 . S
C148 H174 0.977 . S
C149 C145 1.684 . S
C149 H175 0.979 . S
C149 H176 0.980 . S
C149 H177 0.983 . S
C150 H126 0.948 . S
C150 C151 1.391 . S
C150 C155 1.391 . S
C151 C150 1.391 . S
C151 C152 1.391 . S
C152 H129 0.947 . S
C152 C151 1.391 . S
C152 C153 1.392 . S
C153 H130 0.948 . S
C153 C152 1.392 . S
C153 C154 1.419 . S
C154 C153 1.419 . S
C154 C155 1.391 . S
C154 C158 1.397 . S
C155 C150 1.391 . S
C155 C154 1.391 . S
C155 C156 1.399 . S
C156 C155 1.399 . S
C156 C157 1.396 . S
C156 C159 1.453 . S
C156 C160 1.684 . S
C157 C147 1.723 . S
C157 C156 1.396 . S
C157 C158 1.394 . S
C158 C128 1.723 . S
C158 C154 1.397 . S
C158 C157 1.394 . S
C159 H131 0.982 . S
C159 H135 0.979 . S
C159 H136 0.977 . S
C159 C156 1.453 . S
C160 H132 0.979 . S
C160 H133 0.980 . S
C160 H134 0.983 . S
C160 C156 1.684 . S
H161 C179 0.948 . S
H162 C120 0.948 . S
H163 C138 0.979 . S
H164 C138 0.980 . S
H165 C138 0.983 . S
H166 C137 0.982 . S
H167 C137 0.979 . S
H168 C137 0.977 . S
H169 C139 0.948 . S
H170 C141 0.947 . S
H171 C142 0.948 . S
H172 C148 0.982 . S
H173 C148 0.979 . S
H174 C148 0.977 . S
H175 C149 0.979 . S
H176 C149 0.980 . S
H177 C149 0.983 . S
H178 C122 0.947 . S
C179 C122 1.392 . S
C179 C123 1.419 . S
C179 H161 0.948 . S
C180 C181 1.391 . S
C180 C184 1.391 . S
C180 H222 0.948 . S
C181 C180 1.391 . S
C181 C182 1.391 . S
C182 C181 1.391 . S
C182 H238 0.947 . S
C182 C239 1.392 . S
C183 C184 1.391 . S
C183 C187 1.397 . S
C183 C239 1.419 . S
C184 C180 1.391 . S
C184 C183 1.391 . S
C184 C185 1.399 . S
C185 C184 1.399 . S
C185 C188 1.396 . S
C185 C197 1.453 . S
C185 C198 1.684 . S
H186 C210 0.948 . S
C187 C183 1.397 . S
C187 C188 1.394 . S
C187 C206 1.723 . S
C188 C185 1.396 . S
C188 C187 1.394 . S
C188 C218 1.723 . S
H189 C212 0.947 . S
H190 C213 0.948 . S
H191 C219 0.982 . S
H192 C220 0.979 . S
H193 C220 0.980 . S
H194 C220 0.983 . S
H195 C219 0.979 . S
H196 C219 0.977 . S
C197 C185 1.453 . S
C197 H226 0.982 . S
C197 H227 0.979 . S
C197 H228 0.977 . S
C198 C185 1.684 . S
C198 H223 0.979 . S
C198 H224 0.980 . S
C198 H225 0.983 . S
C199 C200 1.391 . S
C199 C204 1.391 . S
C199 H229 0.948 . S
C200 C199 1.391 . S
C200 C201 1.391 . S
C201 C200 1.391 . S
C201 C202 1.392 . S
C201 H230 0.947 . S
C202 C201 1.392 . S
C202 C203 1.419 . S
C202 H231 0.948 . S
C203 C202 1.419 . S
C203 C204 1.391 . S
C203 C207 1.397 . S
C204 C199 1.391 . S
C204 C203 1.391 . S
C204 C205 1.399 . S
C205 C204 1.399 . S
C205 C206 1.396 . S
C205 C208 1.453 . S
C205 C209 1.684 . S
C206 C187 1.723 . S
C206 C205 1.396 . S
C206 C207 1.394 . S
C207 C203 1.397 . S
C207 C206 1.394 . S
C207 C217 1.723 . S
C208 C205 1.453 . S
C208 H232 0.982 . S
C208 H233 0.979 . S
C208 H234 0.977 . S
C209 C205 1.684 . S
C209 H235 0.979 . S
C209 H236 0.980 . S
C209 H237 0.983 . S
C210 H186 0.948 . S
C210 C211 1.391 . S
C210 C215 1.391 . S
C211 C210 1.391 . S
C211 C212 1.391 . S
C212 H189 0.947 . S
C212 C211 1.391 . S
C212 C213 1.392 . S
C213 H190 0.948 . S
C213 C212 1.392 . S
C213 C214 1.419 . S
C214 C213 1.419 . S
C214 C215 1.391 . S
C214 C218 1.397 . S
C215 C210 1.391 . S
C215 C214 1.391 . S
C215 C216 1.399 . S
C216 C215 1.399 . S
C216 C217 1.396 . S
C216 C219 1.453 . S
C216 C220 1.684 . S
C217 C207 1.723 . S
C217 C216 1.396 . S
C217 C218 1.394 . S
C218 C188 1.723 . S
C218 C214 1.397 . S
C218 C217 1.394 . S
C219 H191 0.982 . S
C219 H195 0.979 . S
C219 H196 0.977 . S
C219 C216 1.453 . S
C220 H192 0.979 . S
C220 H193 0.980 . S
C220 H194 0.983 . S
C220 C216 1.684 . S
H221 C239 0.948 . S
H222 C180 0.948 . S
H223 C198 0.979 . S
H224 C198 0.980 . S
H225 C198 0.983 . S
H226 C197 0.982 . S
H227 C197 0.979 . S
H228 C197 0.977 . S
H229 C199 0.948 . S
H230 C201 0.947 . S
H231 C202 0.948 . S
H232 C208 0.982 . S
H233 C208 0.979 . S
H234 C208 0.977 . S
H235 C209 0.979 . S
H236 C209 0.980 . S
H237 C209 0.983 . S
H238 C182 0.947 . S
C239 C182 1.392 . S
C239 C183 1.419 . S
C239 H221 0.948 . S
C240 C241 1.391 . S
C240 C244 1.391 . S
C240 H282 0.948 . S
C241 C240 1.391 . S
C241 C242 1.391 . S
C242 C241 1.391 . S
C242 H298 0.947 . S
C242 C299 1.392 . S
C243 C244 1.391 . S
C243 C247 1.397 . S
C243 C299 1.419 . S
C244 C240 1.391 . S
C244 C243 1.391 . S
C244 C245 1.399 . S
C245 C244 1.399 . S
C245 C248 1.396 . S
C245 C257 1.453 . S
C245 C258 1.684 . S
H246 C270 0.948 . S
C247 C243 1.397 . S
C247 C248 1.394 . S
C247 C266 1.723 . S
C248 C245 1.396 . S
C248 C247 1.394 . S
C248 C278 1.723 . S
H249 C272 0.947 . S
H250 C273 0.948 . S
H251 C279 0.982 . S
H252 C280 0.979 . S
H253 C280 0.980 . S
H254 C280 0.983 . S
H255 C279 0.979 . S
H256 C279 0.977 . S
C257 C245 1.453 . S
C257 H286 0.982 . S
C257 H287 0.979 . S
C257 H288 0.977 . S
C258 C245 1.684 . S
C258 H283 0.979 . S
C258 H284 0.980 . S
C258 H285 0.983 . S
C259 C260 1.391 . S
C259 C264 1.391 . S
C259 H289 0.948 . S
C260 C259 1.391 . S
C260 C261 1.391 . S
C261 C260 1.391 . S
C261 C262 1.392 . S
C261 H290 0.947 . S
C262 C261 1.392 . S
C262 C263 1.419 . S
C262 H291 0.948 . S
C263 C262 1.419 . S
C263 C264 1.391 . S
C263 C267 1.397 . S
C264 C259 1.391 . S
C264 C263 1.391 . S
C264 C265 1.399 . S
C265 C264 1.399 . S
C265 C266 1.396 . S
C265 C268 1.453 . S
C265 C269 1.684 . S
C266 C247 1.723 . S
C266 C265 1.396 . S
C266 C267 1.394 . S
C267 C263 1.397 . S
C267 C266 1.394 . S
C267 C277 1.723 . S
C268 C265 1.453 . S
C268 H292 0.982 . S
C268 H293 0.979 . S
C268 H294 0.977 . S
C269 C265 1.684 . S
C269 H295 0.979 . S
C269 H296 0.980 . S
C269 H297 0.983 . S
C270 H246 0.948 . S
C270 C271 1.391 . S
C270 C275 1.391 . S
C271 C270 1.391 . S
C271 C272 1.391 . S
C272 H249 0.947 . S
C272 C271 1.391 . S
C272 C273 1.392 . S
C273 H250 0.948 . S
C273 C272 1.392 . S
C273 C274 1.419 . S
C274 C273 1.419 . S
C274 C275 1.391 . S
C274 C278 1.397 . S
C275 C270 1.391 . S
C275 C274 1.391 . S
C275 C276 1.399 . S
C276 C275 1.399 . S
C276 C277 1.396 . S
C276 C279 1.453 . S
C276 C280 1.684 . S
C277 C267 1.723 . S
C277 C276 1.396 . S
C277 C278 1.394 . S
C278 C248 1.723 . S
C278 C274 1.397 . S
C278 C277 1.394 . S
C279 H251 0.982 . S
C279 H255 0.979 . S
C279 H256 0.977 . S
C279 C276 1.453 . S
C280 H252 0.979 . S
C280 H253 0.980 . S
C280 H254 0.983 . S
C280 C276 1.684 . S
H281 C299 0.948 . S
H282 C240 0.948 . S
H283 C258 0.979 . S
H284 C258 0.980 . S
H285 C258 0.983 . S
H286 C257 0.982 . S
H287 C257 0.979 . S
H288 C257 0.977 . S
H289 C259 0.948 . S
H290 C261 0.947 . S
H291 C262 0.948 . S
H292 C268 0.982 . S
H293 C268 0.979 . S
H294 C268 0.977 . S
H295 C269 0.979 . S
H296 C269 0.980 . S
H297 C269 0.983 . S
H298 C242 0.947 . S
C299 C242 1.392 . S
C299 C243 1.419 . S
C299 H281 0.948 . S
C300 C301 1.391 . S
C300 C304 1.391 . S
C300 H342 0.948 . S
C301 C300 1.391 . S
C301 C302 1.391 . S
C302 C301 1.391 . S
C302 H358 0.947 . S
C302 C359 1.392 . S
C303 C304 1.391 . S
C303 C307 1.397 . S
C303 C359 1.419 . S
C304 C300 1.391 . S
C304 C303 1.391 . S
C304 C305 1.399 . S
C305 C304 1.399 . S
C305 C308 1.396 . S
C305 C317 1.453 . S
C305 C318 1.684 . S
H306 C330 0.948 . S
C307 C303 1.397 . S
C307 C308 1.394 . S
C307 C326 1.723 . S
C308 C305 1.396 . S
C308 C307 1.394 . S
C308 C338 1.723 . S
H309 C332 0.947 . S
H310 C333 0.948 . S
H311 C339 0.982 . S
H312 C340 0.979 . S
H313 C340 0.980 . S
H314 C340 0.983 . S
H315 C339 0.979 . S
H316 C339 0.977 . S
C317 C305 1.453 . S
C317 H346 0.982 . S
C317 H347 0.979 . S
C317 H348 0.977 . S
C318 C305 1.684 . S
C318 H343 0.979 . S
C318 H344 0.980 . S
C318 H345 0.983 . S
C319 C320 1.391 . S
C319 C324 1.391 . S
C319 H349 0.948 . S
C320 C319 1.391 . S
C320 C321 1.391 . S
C321 C320 1.391 . S
C321 C322 1.392 . S
C321 H350 0.947 . S
C322 C321 1.392 . S
C322 C323 1.419 . S
C322 H351 0.948 . S
C323 C322 1.419 . S
C323 C324 1.391 . S
C323 C327 1.397 . S
C324 C319 1.391 . S
C324 C323 1.391 . S
C324 C325 1.399 . S
C325 C324 1.399 . S
C325 C326 1.396 . S
C325 C328 1.453 . S
C325 C329 1.684 . S
C326 C307 1.723 . S
C326 C325 1.396 . S
C326 C327 1.394 . S
C327 C323 1.397 . S
C327 C326 1.394 . S
C327 C337 1.723 . S
C328 C325 1.453 . S
C328 H352 0.982 . S
C328 H353 0.979 . S
C328 H354 0.977 . S
C329 C325 1.684 . S
C329 H355 0.979 . S
C329 H356 0.980 . S
C329 H357 0.983 . S
C330 H306 0.948 . S
C330 C331 1.391 . S
C330 C335 1.391 . S
C331 C330 1.391 . S
C331 C332 1.391 . S
C332 H309 0.947 . S
C332 C331 1.391 . S
C332 C333 1.392 . S
C333 H310 0.948 . S
C333 C332 1.392 . S
C333 C334 1.419 . S
C334 C333 1.419 . S
C334 C335 1.391 . S
C334 C338 1.397 . S
C335 C330 1.391 . S
C335 C334 1.391 . S
C335 C336 1.399 . S
C336 C335 1.399 . S
C336 C337 1.396 . S
C336 C339 1.453 . S
C336 C340 1.684 . S
C337 C327 1.723 . S
C337 C336 1.396 . S
C337 C338 1.394 . S
C338 C308 1.723 . S
C338 C334 1.397 . S
C338 C337 1.394 . S
C339 H311 0.982 . S
C339 H315 0.979 . S
C339 H316 0.977 . S
C339 C336 1.453 . S
C340 H312 0.979 . S
C340 H313 0.980 . S
C340 H314 0.983 . S
C340 C336 1.684 . S
H341 C359 0.948 . S
H342 C300 0.948 . S
H343 C318 0.979 . S
H344 C318 0.980 . S
H345 C318 0.983 . S
H346 C317 0.982 . S
H347 C317 0.979 . S
H348 C317 0.977 . S
H349 C319 0.948 . S
H350 C321 0.947 . S
H351 C322 0.948 . S
H352 C328 0.982 . S
H353 C328 0.979 . S
H354 C328 0.977 . S
H355 C329 0.979 . S
H356 C329 0.980 . S
H357 C329 0.983 . S
H358 C302 0.947 . S
C359 C302 1.392 . S
C359 C303 1.419 . S
C359 H341 0.948 . S
C360 C361 1.391 . S
C360 C364 1.391 . S
C360 H402 0.948 . S
C361 C360 1.391 . S
C361 C362 1.391 . S
C362 C361 1.391 . S
C362 H418 0.947 . S
C362 C419 1.392 . S
C363 C364 1.391 . S
C363 C367 1.397 . S
C363 C419 1.419 . S
C364 C360 1.391 . S
C364 C363 1.391 . S
C364 C365 1.399 . S
C365 C364 1.399 . S
C365 C368 1.396 . S
C365 C377 1.453 . S
C365 C378 1.684 . S
H366 C390 0.948 . S
C367 C363 1.397 . S
C367 C368 1.394 . S
C367 C386 1.723 . S
C368 C365 1.396 . S
C368 C367 1.394 . S
C368 C398 1.723 . S
H369 C392 0.947 . S
H370 C393 0.948 . S
H371 C399 0.982 . S
H372 C400 0.979 . S
H373 C400 0.980 . S
H374 C400 0.983 . S
H375 C399 0.979 . S
H376 C399 0.977 . S
C377 C365 1.453 . S
C377 H406 0.982 . S
C377 H407 0.979 . S
C377 H408 0.977 . S
C378 C365 1.684 . S
C378 H403 0.979 . S
C378 H404 0.980 . S
C378 H405 0.983 . S
C379 C380 1.391 . S
C379 C384 1.391 . S
C379 H409 0.948 . S
C380 C379 1.391 . S
C380 C381 1.391 . S
C381 C380 1.391 . S
C381 C382 1.392 . S
C381 H410 0.947 . S
C382 C381 1.392 . S
C382 C383 1.419 . S
C382 H411 0.948 . S
C383 C382 1.419 . S
C383 C384 1.391 . S
C383 C387 1.397 . S
C384 C379 1.391 . S
C384 C383 1.391 . S
C384 C385 1.399 . S
C385 C384 1.399 . S
C385 C386 1.396 . S
C385 C388 1.453 . S
C385 C389 1.684 . S
C386 C367 1.723 . S
C386 C385 1.396 . S
C386 C387 1.394 . S
C387 C383 1.397 . S
C387 C386 1.394 . S
C387 C397 1.723 . S
C388 C385 1.453 . S
C388 H412 0.982 . S
C388 H413 0.979 . S
C388 H414 0.977 . S
C389 C385 1.684 . S
C389 H415 0.979 . S
C389 H416 0.980 . S
C389 H417 0.983 . S
C390 H366 0.948 . S
C390 C391 1.391 . S
C390 C395 1.391 . S
C391 C390 1.391 . S
C391 C392 1.391 . S
C392 H369 0.947 . S
C392 C391 1.391 . S
C392 C393 1.392 . S
C393 H370 0.948 . S
C393 C392 1.392 . S
C393 C394 1.419 . S
C394 C393 1.419 . S
C394 C395 1.391 . S
C394 C398 1.397 . S
C395 C390 1.391 . S
C395 C394 1.391 . S
C395 C396 1.399 . S
C396 C395 1.399 . S
C396 C397 1.396 . S
C396 C399 1.453 . S
C396 C400 1.684 . S
C397 C387 1.723 . S
C397 C396 1.396 . S
C397 C398 1.394 . S
C398 C368 1.723 . S
C398 C394 1.397 . S
C398 C397 1.394 . S
C399 H371 0.982 . S
C399 H375 0.979 . S
C399 H376 0.977 . S
C399 C396 1.453 . S
C400 H372 0.979 . S
C400 H373 0.980 . S
C400 H374 0.983 . S
C400 C396 1.684 . S
H401 C419 0.948 . S
H402 C360 0.948 . S
H403 C378 0.979 . S
H404 C378 0.980 . S
H405 C378 0.983 . S
H406 C377 0.982 . S
H407 C377 0.979 . S
H408 C377 0.977 . S
H409 C379 0.948 . S
H410 C381 0.947 . S
H411 C382 0.948 . S
H412 C388 0.982 . S
H413 C388 0.979 . S
H414 C388 0.977 . S
H415 C389 0.979 . S
H416 C389 0.980 . S
H417 C389 0.983 . S
H418 C362 0.947 . S
C419 C362 1.392 . S
C419 C363 1.419 . S
C419 H401 0.948 . S
C420 C421 1.391 . S
C420 C424 1.391 . S
C420 H462 0.948 . S
C421 C420 1.391 . S
C421 C422 1.391 . S
C422 C421 1.391 . S
C422 H478 0.947 . S
C422 C479 1.392 . S
C423 C424 1.391 . S
C423 C427 1.397 . S
C423 C479 1.419 . S
C424 C420 1.391 . S
C424 C423 1.391 . S
C424 C425 1.399 . S
C425 C424 1.399 . S
C425 C428 1.396 . S
C425 C437 1.453 . S
C425 C438 1.684 . S
H426 C450 0.948 . S
C427 C423 1.397 . S
C427 C428 1.394 . S
C427 C446 1.723 . S
C428 C425 1.396 . S
C428 C427 1.394 . S
C428 C458 1.723 . S
H429 C452 0.947 . S
H430 C453 0.948 . S
H431 C459 0.982 . S
H432 C460 0.979 . S
H433 C460 0.980 . S
H434 C460 0.983 . S
H435 C459 0.979 . S
H436 C459 0.977 . S
C437 C425 1.453 . S
C437 H466 0.982 . S
C437 H467 0.979 . S
C437 H468 0.977 . S
C438 C425 1.684 . S
C438 H463 0.979 . S
C438 H464 0.980 . S
C438 H465 0.983 . S
C439 C440 1.391 . S
C439 C444 1.391 . S
C439 H469 0.948 . S
C440 C439 1.391 . S
C440 C441 1.391 . S
C441 C440 1.391 . S
C441 C442 1.392 . S
C441 H470 0.947 . S
C442 C441 1.392 . S
C442 C443 1.419 . S
C442 H471 0.948 . S
C443 C442 1.419 . S
C443 C444 1.391 . S
C443 C447 1.397 . S
C444 C439 1.391 . S
C444 C443 1.391 . S
C444 C445 1.399 . S
C445 C444 1.399 . S
C445 C446 1.396 . S
C445 C448 1.453 . S
C445 C449 1.684 . S
C446 C427 1.723 . S
C446 C445 1.396 . S
C446 C447 1.394 . S
C447 C443 1.397 . S
C447 C446 1.394 . S
C447 C457 1.723 . S
C448 C445 1.453 . S
C448 H472 0.982 . S
C448 H473 0.979 . S
C448 H474 0.977 . S
C449 C445 1.684 . S
C449 H475 0.979 . S
C449 H476 0.980 . S
C449 H477 0.983 . S
C450 H426 0.948 . S
C450 C451 1.391 . S
C450 C455 1.391 . S
C451 C450 1.391 . S
C451 C452 1.391 . S
C452 H429 0.947 . S
C452 C451 1.391 . S
C452 C453 1.392 . S
C453 H430 0.948 . S
C453 C452 1.392 . S
C453 C454 1.419 . S
C454 C453 1.419 . S
C454 C455 1.391 . S
C454 C458 1.397 . S
C455 C450 1.391 . S
C455 C454 1.391 . S
C455 C456 1.399 . S
C456 C455 1.399 . S
C456 C457 1.396 . S
C456 C459 1.453 . S
C456 C460 1.684 . S
C457 C447 1.723 . S
C457 C456 1.396 . S
C457 C458 1.394 . S
C458 C428 1.723 . S
C458 C454 1.397 . S
C458 C457 1.394 . S
C459 H431 0.982 . S
C459 H435 0.979 . S
C459 H436 0.977 . S
C459 C456 1.453 . S
C460 H432 0.979 . S
C460 H433 0.980 . S
C460 H434 0.983 . S
C460 C456 1.684 . S
H461 C479 0.948 . S
H462 C420 0.948 . S
H463 C438 0.979 . S
H464 C438 0.980 . S
H465 C438 0.983 . S
H466 C437 0.982 . S
H467 C437 0.979 . S
H468 C437 0.977 . S
H469 C439 0.948 . S
H470 C441 0.947 . S
H471 C442 0.948 . S
H472 C448 0.982 . S
H473 C448 0.979 . S
H474 C448 0.977 . S
H475 C449 0.979 . S
H476 C449 0.980 . S
H477 C449 0.983 . S
H478 C422 0.947 . S
C479 C422 1.392 . S
C479 C423 1.419 . S
C479 H461 0.948 . S
Zn480 O486 1.969 1_545 S
Zn480 O487 1.965 1_545 S
Zn480 O491 2.024 . S
Zn480 O496 1.969 . S
Zn481 O488 1.969 . S
Zn481 O494 1.969 1_565 S
Zn481 O495 1.965 1_565 S
Zn481 O497 2.024 . S
C482 O483 1.229 . S
C482 O491 1.058 . S
O483 C482 1.229 . S
C484 O485 1.229 . S
C484 O497 1.058 . S
O485 C484 1.229 . S
O486 Zn480 1.969 1_565 S
O486 C489 1.267 . S
O487 Zn480 1.965 1_565 S
O487 C498 1.260 1_455 S
O488 Zn481 1.969 . S
O488 C498 1.258 . S
C489 O486 1.267 . S
C489 O490 1.228 . S
O490 C489 1.228 . S
O491 Zn480 2.024 . S
O491 C482 1.058 . S
C492 O493 1.228 . S
C492 O494 1.267 . S
O493 C492 1.228 . S
O494 Zn481 1.969 1_545 S
O494 C492 1.267 . S
O495 Zn481 1.965 1_545 S
O495 C499 1.260 1_655 S
O496 Zn480 1.969 . S
O496 C499 1.258 . S
O497 Zn481 2.024 . S
O497 C484 1.058 . S
C498 O487 1.260 1_655 S
C498 O488 1.258 . S
C499 O495 1.260 1_455 S
C499 O496 1.258 . S
Zn500 O506 1.969 . S
Zn500 O507 1.965 1_565 S
Zn500 O511 2.024 . S
Zn500 O516 1.969 . S
Zn501 O508 1.969 . S
Zn501 O514 1.969 . S
Zn501 O515 1.965 1_545 S
Zn501 O517 2.024 . S
C502 O503 1.229 . S
C502 O511 1.058 . S
O503 C502 1.229 . S
C504 O505 1.229 . S
C504 O517 1.058 . S
O505 C504 1.229 . S
O506 Zn500 1.969 . S
O506 C509 1.267 . S
O507 Zn500 1.965 1_545 S
O507 C518 1.260 . S
O508 Zn501 1.969 . S
O508 C518 1.258 1_554 S
C509 O506 1.267 . S
C509 O510 1.228 . S
O510 C509 1.228 . S
O511 Zn500 2.024 . S
O511 C502 1.058 . S
C512 O513 1.228 . S
C512 O514 1.267 . S
O513 C512 1.228 . S
O514 Zn501 1.969 . S
O514 C512 1.267 . S
O515 Zn501 1.965 1_565 S
O515 C519 1.260 . S
O516 Zn500 1.969 . S
O516 C519 1.258 1_556 S
O517 Zn501 2.024 . S
O517 C504 1.058 . S
C518 O507 1.260 . S
C518 O508 1.258 1_556 S
C519 O515 1.260 . S
C519 O516 1.258 1_554 S
Zn520 O526 1.969 . S
Zn520 O527 1.965 . S
Zn520 O531 2.024 . S
Zn520 O536 1.969 . S
Zn521 O528 1.969 . S
Zn521 O534 1.969 . S
Zn521 O535 1.965 . S
Zn521 O537 2.024 . S
C522 O523 1.229 . S
C522 O531 1.058 . S
O523 C522 1.229 . S
C524 O525 1.229 . S
C524 O537 1.058 . S
O525 C524 1.229 . S
O526 Zn520 1.969 . S
O526 C529 1.267 . S
O527 Zn520 1.965 . S
O527 C538 1.260 . S
O528 Zn521 1.969 . S
O528 C538 1.258 . S
C529 O526 1.267 . S
C529 O530 1.228 . S
O530 C529 1.228 . S
O531 Zn520 2.024 . S
O531 C522 1.058 . S
C532 O533 1.228 . S
C532 O534 1.267 . S
O533 C532 1.228 . S
O534 Zn521 1.969 . S
O534 C532 1.267 . S
O535 Zn521 1.965 . S
O535 C539 1.260 . S
O536 Zn520 1.969 . S
O536 C539 1.258 . S
O537 Zn521 2.024 . S
O537 C524 1.058 . S
C538 O527 1.260 . S
C538 O528 1.258 . S
C539 O535 1.260 . S
C539 O536 1.258 . S
Zn540 O546 1.969 . S
Zn540 O547 1.965 1_556 S
Zn540 O551 2.024 . S
Zn540 O556 1.978 . S
Zn541 O548 1.995 . S
Zn541 O554 1.969 . S
Zn541 O555 1.965 1_554 S
Zn541 O557 2.024 . S
C542 O543 1.229 . S
C542 O551 1.058 . S
O543 C542 1.229 . S
C544 O545 1.229 . S
C544 O557 1.058 . S
O545 C544 1.229 . S
O546 Zn540 1.969 . S
O546 C549 1.267 . S
O547 Zn540 1.965 1_554 S
O547 C558 1.260 . S
O548 Zn541 1.995 . S
O548 C558 1.233 1_455 S
C549 O546 1.267 . S
C549 O550 1.228 . S
O550 C549 1.228 . S
O551 Zn540 2.024 . S
O551 C542 1.058 . S
C552 O553 1.228 . S
C552 O554 1.267 . S
O553 C552 1.228 . S
O554 Zn541 1.969 . S
O554 C552 1.267 . S
O555 Zn541 1.965 1_556 S
O555 C559 1.260 . S
O556 Zn540 1.978 . S
O556 C559 1.249 1_655 S
O557 Zn541 2.024 . S
O557 C544 1.058 . S
C558 O547 1.260 . S
C558 O548 1.233 1_655 S
C559 O555 1.260 . S
C559 O556 1.249 1_455 S
C560 C561 1.363 . S
C560 C566 1.379 . S
C560 N568 1.356 . S
C561 C560 1.363 . S
C561 C567 1.363 . S
C562 C563 1.363 . S
C562 C567 1.379 . S
C562 N569 1.356 . S
C563 C562 1.363 . S
C563 C566 1.363 . S
N564 C566 1.356 . S
N564 H576 0.984 . S
N564 H577 0.985 . S
N565 C567 1.356 . S
N565 H570 0.984 . S
N565 H571 0.985 . S
C566 C560 1.379 . S
C566 C563 1.363 . S
C566 N564 1.356 . S
C567 C561 1.363 . S
C567 C562 1.379 . S
C567 N565 1.356 . S
N568 C560 1.356 . S
N568 H574 0.984 . S
N568 H575 0.984 . S
N569 C562 1.356 . S
N569 H572 0.984 . S
N569 H573 0.985 . S
H570 N565 0.984 . S
H571 N565 0.985 . S
H572 N569 0.984 . S
H573 N569 0.985 . S
H574 N568 0.984 . S
H575 N568 0.984 . S
H576 N564 0.984 . S
H577 N564 0.985 . S
C578 C579 1.363 . S
C578 C584 1.379 . S
C578 N586 1.356 . S
C579 C578 1.363 . S
C579 C585 1.363 . S
C580 C581 1.363 . S
C580 C585 1.379 . S
C580 N587 1.358 1_565 S
C581 C580 1.363 . S
C581 C584 1.363 . S
N582 C584 1.356 . S
N582 H594 0.984 . S
N582 H595 0.985 . S
N583 C585 1.356 . S
N583 H588 0.984 . S
N583 H589 0.985 . S
C584 C578 1.379 . S
C584 C581 1.363 . S
C584 N582 1.356 . S
C585 C579 1.363 . S
C585 C580 1.379 . S
C585 N583 1.356 . S
N586 C578 1.356 . S
N586 H592 0.984 . S
N586 H593 0.984 . S
N587 C580 1.358 1_545 S
N587 H590 0.984 . S
N587 H591 0.983 . S
H588 N583 0.984 . S
H589 N583 0.985 . S
H590 N587 0.984 . S
H591 N587 0.983 . S
H592 N586 0.984 . S
H593 N586 0.984 . S
H594 N582 0.984 . S
H595 N582 0.985 . S
C596 C597 1.363 . S
C596 C602 1.379 . S
C596 N604 1.356 . S
C597 C596 1.363 . S
C597 C603 1.363 . S
C598 C599 1.363 . S
C598 C603 1.379 . S
C598 N605 1.356 . S
C599 C598 1.363 . S
C599 C602 1.363 . S
N600 C602 1.356 . S
N600 H612 0.984 . S
N600 H613 0.985 . S
N601 C603 1.356 . S
N601 H606 0.984 . S
N601 H607 0.985 . S
C602 C596 1.379 . S
C602 C599 1.363 . S
C602 N600 1.356 . S
C603 C597 1.363 . S
C603 C598 1.379 . S
C603 N601 1.356 . S
N604 C596 1.356 . S
N604 H610 0.984 . S
N604 H611 0.984 . S
N605 C598 1.356 . S
N605 H608 0.984 . S
N605 H609 0.985 . S
H606 N601 0.984 . S
H607 N601 0.985 . S
H608 N605 0.984 . S
H609 N605 0.985 . S
H610 N604 0.984 . S
H611 N604 0.984 . S
H612 N600 0.984 . S
H613 N600 0.985 . S
C614 C615 1.363 . S
C614 C620 1.379 . S
C614 N622 1.356 . S
C615 C614 1.363 . S
C615 C621 1.363 . S
C616 C617 1.363 . S
C616 C621 1.379 . S
C616 N623 1.356 . S
C617 C616 1.363 . S
C617 C620 1.363 . S
N618 C620 1.356 . S
N618 H630 0.984 . S
N618 H631 0.985 . S
N619 C621 1.356 . S
N619 H624 0.984 . S
N619 H625 0.985 . S
C620 C614 1.379 . S
C620 C617 1.363 . S
C620 N618 1.356 . S
C621 C615 1.363 . S
C621 C616 1.379 . S
C621 N619 1.356 . S
N622 C614 1.356 . S
N622 H628 0.984 . S
N622 H629 0.984 . S
N623 C616 1.356 . S
N623 H626 0.984 1_655 S
N623 H627 0.985 1_655 S
H624 N619 0.984 . S
H625 N619 0.985 . S
H626 N623 0.984 1_455 S
H627 N623 0.985 1_455 S
H628 N622 0.984 . S
H629 N622 0.984 . S
H630 N618 0.984 . S
H631 N618 0.985 . S
C632 C633 1.363 . S
C632 C638 1.379 . S
C632 N640 1.356 . S
C633 C632 1.363 . S
C633 C639 1.363 . S
C634 C635 1.363 . S
C634 C639 1.379 . S
C634 N641 1.356 . S
C635 C634 1.363 . S
C635 C638 1.363 . S
N636 C638 1.356 . S
N636 H648 0.984 . S
N636 H649 0.985 . S
N637 C639 1.356 . S
N637 H642 0.984 . S
N637 H643 0.985 . S
C638 C632 1.379 . S
C638 C635 1.363 . S
C638 N636 1.356 . S
C639 C633 1.363 . S
C639 C634 1.379 . S
C639 N637 1.356 . S
N640 C632 1.356 . S
N640 H646 0.984 . S
N640 H647 0.984 . S
N641 C634 1.356 . S
N641 H644 0.984 . S
N641 H645 0.985 . S
H642 N637 0.984 . S
H643 N637 0.985 . S
H644 N641 0.984 . S
H645 N641 0.985 . S
H646 N640 0.984 . S
H647 N640 0.984 . S
H648 N636 0.984 . S
H649 N636 0.985 . S
C650 C651 1.363 . S
C650 C656 1.379 . S
C650 N658 1.356 . S
C651 C650 1.363 . S
C651 C657 1.363 . S
C652 C653 1.363 . S
C652 C657 1.379 . S
C652 N659 1.356 . S
C653 C652 1.363 . S
C653 C656 1.363 . S
N654 C656 1.356 . S
N654 H666 0.984 . S
N654 H667 0.985 . S
N655 C657 1.356 . S
N655 H660 0.984 . S
N655 H661 0.985 . S
C656 C650 1.379 . S
C656 C653 1.363 . S
C656 N654 1.356 . S
C657 C651 1.363 . S
C657 C652 1.379 . S
C657 N655 1.356 . S
N658 C650 1.356 . S
N658 H664 0.984 . S
N658 H665 0.984 . S
N659 C652 1.356 . S
N659 H662 0.984 . S
N659 H663 0.985 . S
H660 N655 0.984 . S
H661 N655 0.985 . S
H662 N659 0.984 . S
H663 N659 0.985 . S
H664 N658 0.984 . S
H665 N658 0.984 . S
H666 N654 0.984 . S
H667 N654 0.985 . S
C668 C669 1.363 . S
C668 C674 1.379 . S
C668 N676 1.356 . S
C669 C668 1.363 . S
C669 C675 1.363 . S
C670 C671 1.363 . S
C670 C675 1.379 . S
C670 N677 1.356 . S
C671 C670 1.363 . S
C671 C674 1.363 . S
N672 C674 1.356 . S
N672 H684 0.984 . S
N672 H685 0.985 . S
N673 C675 1.356 . S
N673 H678 0.984 . S
N673 H679 0.985 . S
C674 C668 1.379 . S
C674 C671 1.363 . S
C674 N672 1.356 . S
C675 C669 1.363 . S
C675 C670 1.379 . S
C675 N673 1.356 . S
N676 C668 1.356 . S
N676 H682 0.984 . S
N676 H683 0.984 . S
N677 C670 1.356 . S
N677 H680 0.984 . S
N677 H681 0.985 . S
H678 N673 0.984 . S
H679 N673 0.985 . S
H680 N677 0.984 . S
H681 N677 0.985 . S
H682 N676 0.984 . S
H683 N676 0.984 . S
H684 N672 0.984 . S
H685 N672 0.985 . S
C686 C687 1.363 . S
C686 C692 1.379 . S
C686 N694 1.356 . S
C687 C686 1.363 . S
C687 C693 1.363 . S
C688 C689 1.363 . S
C688 C693 1.379 . S
C688 N695 1.356 . S
C689 C688 1.363 . S
C689 C692 1.363 . S
N690 C692 1.356 . S
N690 H702 0.984 . S
N690 H703 0.985 . S
N691 C693 1.356 . S
N691 H696 0.984 . S
N691 H697 0.985 . S
C692 C686 1.379 . S
C692 C689 1.363 . S
C692 N690 1.356 . S
C693 C687 1.363 . S
C693 C688 1.379 . S
C693 N691 1.356 . S
N694 C686 1.356 . S
N694 H700 0.984 . S
N694 H701 0.984 . S
N695 C688 1.356 . S
N695 H698 0.984 . S
N695 H699 0.985 . S
H696 N691 0.984 . S
H697 N691 0.985 . S
H698 N695 0.984 . S
H699 N695 0.985 . S
H700 N694 0.984 . S
H701 N694 0.984 . S
H702 N690 0.984 . S
H703 N690 0.985 . S
C704 C705 1.363 . S
C704 C710 1.379 . S
C704 N712 1.356 . S
C705 C704 1.363 . S
C705 C711 1.363 . S
C706 C707 1.363 . S
C706 C711 1.379 . S
C706 N713 1.356 . S
C707 C706 1.363 . S
C707 C710 1.363 . S
N708 C710 1.356 . S
N708 H720 0.984 . S
N708 H721 0.985 . S
N709 C711 1.356 . S
N709 H714 0.984 . S
N709 H715 0.985 . S
C710 C704 1.379 . S
C710 C707 1.363 . S
C710 N708 1.356 . S
C711 C705 1.363 . S
C711 C706 1.379 . S
C711 N709 1.356 . S
N712 C704 1.356 . S
N712 H718 0.984 . S
N712 H719 0.984 . S
N713 C706 1.356 . S
N713 H716 0.984 . S
N713 H717 0.985 . S
H714 N709 0.984 . S
H715 N709 0.985 . S
H716 N713 0.984 . S
H717 N713 0.985 . S
H718 N712 0.984 . S
H719 N712 0.984 . S
H720 N708 0.984 . S
H721 N708 0.985 . S
C722 C723 1.363 . S
C722 C728 1.379 . S
C722 N730 1.356 . S
C723 C722 1.363 . S
C723 C729 1.363 . S
C724 C725 1.363 . S
C724 C729 1.379 . S
C724 N731 1.356 . S
C725 C724 1.363 . S
C725 C728 1.363 . S
N726 C728 1.356 . S
N726 H738 0.984 . S
N726 H739 0.985 . S
N727 C729 1.356 . S
N727 H732 0.984 . S
N727 H733 0.985 . S
C728 C722 1.379 . S
C728 C725 1.363 . S
C728 N726 1.356 . S
C729 C723 1.363 . S
C729 C724 1.379 . S
C729 N727 1.356 . S
N730 C722 1.356 . S
N730 H736 0.984 . S
N730 H737 0.984 . S
N731 C724 1.356 . S
N731 H734 0.984 1_556 S
N731 H735 0.985 1_556 S
H732 N727 0.984 . S
H733 N727 0.985 . S
H734 N731 0.984 1_554 S
H735 N731 0.985 1_554 S
H736 N730 0.984 . S
H737 N730 0.984 . S
H738 N726 0.984 . S
H739 N726 0.985 . S
C740 C741 1.363 . S
C740 C746 1.379 . S
C740 N748 1.356 . S
C741 C740 1.363 . S
C741 C747 1.363 . S
C742 C743 1.363 . S
C742 C747 1.379 . S
C742 N749 1.356 . S
C743 C742 1.363 . S
C743 C746 1.363 . S
N744 C746 1.356 . S
N744 H756 0.984 . S
N744 H757 0.985 . S
N745 C747 1.356 . S
N745 H750 0.984 . S
N745 H751 0.985 . S
C746 C740 1.379 . S
C746 C743 1.363 . S
C746 N744 1.356 . S
C747 C741 1.363 . S
C747 C742 1.379 . S
C747 N745 1.356 . S
N748 C740 1.356 . S
N748 H754 0.984 . S
N748 H755 0.984 . S
N749 C742 1.356 . S
N749 H752 0.984 . S
N749 H753 0.985 . S
H750 N745 0.984 . S
H751 N745 0.985 . S
H752 N749 0.984 . S
H753 N749 0.985 . S
H754 N748 0.984 . S
H755 N748 0.984 . S
H756 N744 0.984 . S
H757 N744 0.985 . S
C758 C759 1.363 . S
C758 C764 1.379 . S
C758 N766 1.356 . S
C759 C758 1.363 . S
C759 C765 1.363 . S
C760 C761 1.363 . S
C760 C765 1.379 . S
C760 N767 1.356 . S
C761 C760 1.363 . S
C761 C764 1.363 . S
N762 C764 1.356 . S
N762 H774 0.984 . S
N762 H775 0.985 . S
N763 C765 1.356 . S
N763 H768 0.984 . S
N763 H769 0.985 . S
C764 C758 1.379 . S
C764 C761 1.363 . S
C764 N762 1.356 . S
C765 C759 1.363 . S
C765 C760 1.379 . S
C765 N763 1.356 . S
N766 C758 1.356 . S
N766 H772 0.984 . S
N766 H773 0.984 . S
N767 C760 1.356 . S
N767 H770 0.984 . S
N767 H771 0.985 . S
H768 N763 0.984 . S
H769 N763 0.985 . S
H770 N767 0.984 . S
H771 N767 0.985 . S
H772 N766 0.984 . S
H773 N766 0.984 . S
H774 N762 0.984 . S
H775 N762 0.985 . S
C776 C777 1.363 . S
C776 C782 1.379 . S
C776 N784 1.356 . S
C777 C776 1.363 . S
C777 C783 1.363 . S
C778 C779 1.363 . S
C778 C783 1.379 . S
C778 N785 1.356 . S
C779 C778 1.363 . S
C779 C782 1.363 . S
N780 C782 1.356 1_545 S
N780 H792 0.984 . S
N780 H793 0.985 . S
N781 C783 1.356 . S
N781 H786 0.984 . S
N781 H787 0.985 . S
C782 C776 1.379 . S
C782 C779 1.363 . S
C782 N780 1.356 1_565 S
C783 C777 1.363 . S
C783 C778 1.379 . S
C783 N781 1.356 . S
N784 C776 1.356 . S
N784 H790 0.984 . S
N784 H791 0.984 . S
N785 C778 1.356 . S
N785 H788 0.984 . S
N785 H789 0.985 . S
H786 N781 0.984 . S
H787 N781 0.985 . S
H788 N785 0.984 . S
H789 N785 0.985 . S
H790 N784 0.984 . S
H791 N784 0.984 . S
H792 N780 0.984 . S
H793 N780 0.985 . S
C794 C795 1.363 . S
C794 C800 1.379 . S
C794 N802 1.356 . S
C795 C794 1.363 . S
C795 C801 1.363 . S
C796 C797 1.363 . S
C796 C801 1.379 . S
C796 N803 1.356 . S
C797 C796 1.363 . S
C797 C800 1.363 . S
N798 C800 1.346 1_565 S
N798 H810 0.994 . S
N798 H811 0.986 . S
N799 C801 1.356 . S
N799 H804 0.984 . S
N799 H805 0.985 . S
C800 C794 1.379 . S
C800 C797 1.363 . S
C800 N798 1.346 1_545 S
C801 C795 1.363 . S
C801 C796 1.379 . S
C801 N799 1.356 . S
N802 C794 1.356 . S
N802 H808 0.984 . S
N802 H809 0.984 . S
N803 C796 1.356 . S
N803 H806 0.984 . S
N803 H807 0.985 . S
H804 N799 0.984 . S
H805 N799 0.985 . S
H806 N803 0.984 . S
H807 N803 0.985 . S
H808 N802 0.984 . S
H809 N802 0.984 . S
H810 N798 0.994 . S
H811 N798 0.986 . S
C812 C813 1.363 . S
C812 C818 1.379 . S
C812 N820 1.356 . S
C813 C812 1.363 . S
C813 C819 1.363 . S
C814 C815 1.363 . S
C814 C819 1.379 . S
C814 N821 1.356 . S
C815 C814 1.363 . S
C815 C818 1.363 . S
N816 C818 1.356 . S
N816 H828 0.984 . S
N816 H829 0.985 . S
N817 C819 1.356 . S
N817 H822 0.984 . S
N817 H823 0.985 . S
C818 C812 1.379 . S
C818 C815 1.363 . S
C818 N816 1.356 . S
C819 C813 1.363 . S
C819 C814 1.379 . S
C819 N817 1.356 . S
N820 C812 1.356 . S
N820 H826 0.984 . S
N820 H827 0.984 . S
N821 C814 1.356 . S
N821 H824 0.984 . S
N821 H825 0.985 . S
H822 N817 0.984 . S
H823 N817 0.985 . S
H824 N821 0.984 . S
H825 N821 0.985 . S
H826 N820 0.984 . S
H827 N820 0.984 . S
H828 N816 0.984 . S
H829 N816 0.985 . S
C830 C831 1.363 . S
C830 C836 1.379 . S
C830 N838 1.356 . S
C831 C830 1.363 . S
C831 C837 1.363 . S
C832 C833 1.363 . S
C832 C837 1.379 . S
C832 N839 1.356 . S
C833 C832 1.363 . S
C833 C836 1.363 . S
N834 C836 1.356 . S
N834 H846 0.984 . S
N834 H847 0.985 . S
N835 C837 1.356 . S
N835 H840 0.984 . S
N835 H841 0.985 . S
C836 C830 1.379 . S
C836 C833 1.363 . S
C836 N834 1.356 . S
C837 C831 1.363 . S
C837 C832 1.379 . S
C837 N835 1.356 . S
N838 C830 1.356 . S
N838 H844 0.984 . S
N838 H845 0.984 . S
N839 C832 1.356 . S
N839 H842 0.984 1_455 S
N839 H843 0.985 1_455 S
H840 N835 0.984 . S
H841 N835 0.985 . S
H842 N839 0.984 1_655 S
H843 N839 0.985 1_655 S
H844 N838 0.984 . S
H845 N838 0.984 . S
H846 N834 0.984 . S
H847 N834 0.985 . S
C848 C849 1.363 . S
C848 C854 1.379 . S
C848 N856 1.356 . S
C849 C848 1.363 . S
C849 C855 1.363 . S
C850 C851 1.363 . S
C850 C855 1.379 . S
C850 N857 1.356 . S
C851 C850 1.363 . S
C851 C854 1.363 . S
N852 C854 1.356 . S
N852 H864 0.984 . S
N852 H865 0.985 . S
N853 C855 1.356 . S
N853 H858 0.984 . S
N853 H859 0.985 . S
C854 C848 1.379 . S
C854 C851 1.363 . S
C854 N852 1.356 . S
C855 C849 1.363 . S
C855 C850 1.379 . S
C855 N853 1.356 . S
N856 C848 1.356 . S
N856 H862 0.984 . S
N856 H863 0.984 . S
N857 C850 1.356 . S
N857 H860 0.984 . S
N857 H861 0.985 . S
H858 N853 0.984 . S
H859 N853 0.985 . S
H860 N857 0.984 . S
H861 N857 0.985 . S
H862 N856 0.984 . S
H863 N856 0.984 . S
H864 N852 0.984 . S
H865 N852 0.985 . S
C866 C867 1.363 . S
C866 C872 1.379 . S
C866 N874 1.356 . S
C867 C866 1.363 . S
C867 C873 1.363 . S
C868 C869 1.363 . S
C868 C873 1.379 . S
C868 N875 1.356 . S
C869 C868 1.363 . S
C869 C872 1.363 . S
N870 C872 1.346 1_565 S
N870 H882 0.993 . S
N870 H883 0.986 . S
N871 C873 1.356 . S
N871 H876 0.984 . S
N871 H877 0.985 . S
C872 C866 1.379 . S
C872 C869 1.363 . S
C872 N870 1.346 1_545 S
C873 C867 1.363 . S
C873 C868 1.379 . S
C873 N871 1.356 . S
N874 C866 1.356 . S
N874 H880 0.984 . S
N874 H881 0.984 . S
N875 C868 1.356 . S
N875 H878 0.984 . S
N875 H879 0.985 . S
H876 N871 0.984 . S
H877 N871 0.985 . S
H878 N875 0.984 . S
H879 N875 0.985 . S
H880 N874 0.984 . S
H881 N874 0.984 . S
H882 N870 0.993 . S
H883 N870 0.986 . S
C884 C885 1.363 . S
C884 C890 1.379 . S
C884 N892 1.356 . S
C885 C884 1.363 . S
C885 C891 1.363 . S
C886 C887 1.363 . S
C886 C891 1.379 . S
C886 N893 1.356 . S
C887 C886 1.363 . S
C887 C890 1.363 . S
N888 C890 1.356 . S
N888 H900 0.984 . S
N888 H901 0.985 . S
N889 C891 1.356 . S
N889 H894 0.984 . S
N889 H895 0.985 . S
C890 C884 1.379 . S
C890 C887 1.363 . S
C890 N888 1.356 . S
C891 C885 1.363 . S
C891 C886 1.379 . S
C891 N889 1.356 . S
N892 C884 1.356 . S
N892 H898 0.984 . S
N892 H899 0.984 . S
N893 C886 1.356 . S
N893 H896 0.984 . S
N893 H897 0.985 . S
H894 N889 0.984 . S
H895 N889 0.985 . S
H896 N893 0.984 . S
H897 N893 0.985 . S
H898 N892 0.984 . S
H899 N892 0.984 . S
H900 N888 0.984 . S
H901 N888 0.985 . S
C902 C903 1.363 . S
C902 C908 1.379 . S
C902 N910 1.356 . S
C903 C902 1.363 . S
C903 C909 1.363 . S
C904 C905 1.363 . S
C904 C909 1.379 . S
C904 N911 1.356 . S
C905 C904 1.363 . S
C905 C908 1.363 . S
N906 C908 1.356 . S
N906 H918 0.984 . S
N906 H919 0.985 . S
N907 C909 1.356 . S
N907 H912 0.984 . S
N907 H913 0.985 . S
C908 C902 1.379 . S
C908 C905 1.363 . S
C908 N906 1.356 . S
C909 C903 1.363 . S
C909 C904 1.379 . S
C909 N907 1.356 . S
N910 C902 1.356 . S
N910 H916 0.984 . S
N910 H917 0.984 . S
N911 C904 1.356 . S
N911 H914 0.984 . S
N911 H915 0.985 . S
H912 N907 0.984 . S
H913 N907 0.985 . S
H914 N911 0.984 . S
H915 N911 0.985 . S
H916 N910 0.984 . S
H917 N910 0.984 . S
H918 N906 0.984 . S
H919 N906 0.985 . S
C920 C921 1.363 . S
C920 C926 1.379 . S
C920 N928 1.356 . S
C921 C920 1.363 . S
C921 C927 1.363 . S
C922 C923 1.363 . S
C922 C927 1.379 . S
C922 N929 1.356 . S
C923 C922 1.363 . S
C923 C926 1.363 . S
N924 C926 1.356 . S
N924 H936 0.984 . S
N924 H937 0.985 . S
N925 C927 1.356 . S
N925 H930 0.984 . S
N925 H931 0.985 . S
C926 C920 1.379 . S
C926 C923 1.363 . S
C926 N924 1.356 . S
C927 C921 1.363 . S
C927 C922 1.379 . S
C927 N925 1.356 . S
N928 C920 1.356 . S
N928 H934 0.984 . S
N928 H935 0.984 . S
N929 C922 1.356 . S
N929 H932 0.984 . S
N929 H933 0.985 . S
H930 N925 0.984 . S
H931 N925 0.985 . S
H932 N929 0.984 . S
H933 N929 0.985 . S
H934 N928 0.984 . S
H935 N928 0.984 . S
H936 N924 0.984 . S
H937 N924 0.985 . S
C938 C939 1.363 . S
C938 C944 1.379 . S
C938 N946 1.356 . S
C939 C938 1.363 . S
C939 C945 1.363 . S
C940 C941 1.363 . S
C940 C945 1.379 . S
C940 N947 1.356 . S
C941 C940 1.363 . S
C941 C944 1.363 . S
N942 C944 1.356 . S
N942 H954 0.984 1_554 S
N942 H955 0.985 . S
N943 C945 1.356 . S
N943 H948 0.984 . S
N943 H949 0.985 . S
C944 C938 1.379 . S
C944 C941 1.363 . S
C944 N942 1.356 . S
C945 C939 1.363 . S
C945 C940 1.379 . S
C945 N943 1.356 . S
N946 C938 1.356 . S
N946 H952 0.984 . S
N946 H953 0.984 . S
N947 C940 1.356 . S
N947 H950 0.984 . S
N947 H951 0.985 . S
H948 N943 0.984 . S
H949 N943 0.985 . S
H950 N947 0.984 . S
H951 N947 0.985 . S
H952 N946 0.984 . S
H953 N946 0.984 . S
H954 N942 0.984 1_556 S
H955 N942 0.985 . S
C956 C957 1.363 . S
C956 C962 1.379 . S
C956 N964 1.356 . S
C957 C956 1.363 . S
C957 C963 1.363 . S
C958 C959 1.363 . S
C958 C963 1.379 . S
C958 N965 1.356 . S
C959 C958 1.363 . S
C959 C962 1.363 . S
N960 C962 1.356 . S
N960 H972 0.984 . S
N960 H973 0.985 . S
N961 C963 1.356 . S
N961 H966 0.984 . S
N961 H967 0.985 . S
C962 C956 1.379 . S
C962 C959 1.363 . S
C962 N960 1.356 . S
C963 C957 1.363 . S
C963 C958 1.379 . S
C963 N961 1.356 . S
N964 C956 1.356 . S
N964 H970 0.984 . S
N964 H971 0.984 . S
N965 C958 1.356 . S
N965 H968 0.984 . S
N965 H969 0.985 . S
H966 N961 0.984 . S
H967 N961 0.985 . S
H968 N965 0.984 . S
H969 N965 0.985 . S
H970 N964 0.984 . S
H971 N964 0.984 . S
H972 N960 0.984 . S
H973 N960 0.985 . S
C974 C975 1.363 . S
C974 C980 1.379 . S
C974 N982 1.356 . S
C975 C974 1.363 . S
C975 C981 1.363 . S
C976 C977 1.363 . S
C976 C981 1.379 . S
C976 N983 1.356 . S
C977 C976 1.363 . S
C977 C980 1.363 . S
N978 C980 1.356 . S
N978 H990 0.984 . S
N978 H991 0.985 . S
N979 C981 1.356 . S
N979 H984 0.984 . S
N979 H985 0.985 . S
C980 C974 1.379 . S
C980 C977 1.363 . S
C980 N978 1.356 . S
C981 C975 1.363 . S
C981 C976 1.379 . S
C981 N979 1.356 . S
N982 C974 1.356 . S
N982 H988 0.984 . S
N982 H989 0.984 . S
N983 C976 1.356 . S
N983 H986 0.984 . S
N983 H987 0.985 . S
H984 N979 0.984 . S
H985 N979 0.985 . S
H986 N983 0.984 . S
H987 N983 0.985 . S
H988 N982 0.984 . S
H989 N982 0.984 . S
H990 N978 0.984 . S
H991 N978 0.985 . S
C561 C1 1.454 . S
C563 C499 1.493 . S
C579 C80 1.267 . S
C581 C502 1.259 . S
C599 C538 1.792 . S
C597 C140 1.807 . S
C615 C211 1.703 . S
C617 C558 1.692 . S
C635 C512 1.639 . S
C633 C31 1.639 . S
C653 C489 1.473 . S
C651 C61 1.467 . S
C671 C542 1.568 . S
C669 C151 1.662 . S
C689 C522 1.423 . S
C687 C200 1.561 . S
C705 C20 1.362 . S
C707 C552 1.328 . S
C725 C518 1.657 . S
C723 C121 1.666 . S
C741 C181 1.614 . S
C743 C484 1.619 . S
C759 C91 1.315 . S
C761 C532 1.301 . S
C779 C498 1.493 . S
C777 C260 1.502 . S
C795 C320 1.267 . S
C797 C504 1.259 . S
C813 C361 1.793 . S
C815 C539 1.792 . S
C831 C451 1.703 . S
C833 C559 1.692 . S
C849 C271 1.623 . S
C851 C509 1.639 . S
C869 C492 1.473 . S
C867 C301 1.467 . S
C887 C544 1.568 . S
C885 C380 1.637 . S
C905 C524 1.423 . S
C903 C440 1.561 . S
C921 C241 1.339 . S
C923 C549 1.328 . S
C941 C519 1.657 . S
C939 C391 1.652 . S
C959 C482 1.619 . S
C957 C421 1.614 . S
C975 C331 1.315 . S
C977 C529 1.301 . S
