# Generated by pormake.
# Topology ctn, (3,4)-cn, num edge types: 1
# Building blocks:
#     Node 0, Type 0, BuildingBlock: CUQRIR_clean_linker_1, # of connection points: 3
#     Node 1, Type 0, BuildingBlock: CUQRIR_clean_linker_1, # of connection points: 3
#     Node 2, Type 0, BuildingBlock: CUQRIR_clean_linker_1, # of connection points: 3
#     Node 3, Type 0, BuildingBlock: CUQRIR_clean_linker_1, # of connection points: 3
#     Node 4, Type 0, BuildingBlock: CUQRIR_clean_linker_1, # of connection points: 3
#     Node 5, Type 0, BuildingBlock: CUQRIR_clean_linker_1, # of connection points: 3
#     Node 6, Type 0, BuildingBlock: CUQRIR_clean_linker_1, # of connection points: 3
#     Node 7, Type 0, BuildingBlock: CUQRIR_clean_linker_1, # of connection points: 3
#     Node 8, Type 0, BuildingBlock: CUQRIR_clean_linker_1, # of connection points: 3
#     Node 9, Type 0, BuildingBlock: CUQRIR_clean_linker_1, # of connection points: 3
#     Node 10, Type 0, BuildingBlock: CUQRIR_clean_linker_1, # of connection points: 3
#     Node 11, Type 0, BuildingBlock: CUQRIR_clean_linker_1, # of connection points: 3
#     Node 12, Type 0, BuildingBlock: CUQRIR_clean_linker_1, # of connection points: 3
#     Node 13, Type 0, BuildingBlock: CUQRIR_clean_linker_1, # of connection points: 3
#     Node 14, Type 0, BuildingBlock: CUQRIR_clean_linker_1, # of connection points: 3
#     Node 15, Type 0, BuildingBlock: CUQRIR_clean_linker_1, # of connection points: 3
#     Node 16, Type 1, BuildingBlock: AZAVOO_clean_sbu_0, # of connection points: 4
#     Node 17, Type 1, BuildingBlock: AZAVOO_clean_sbu_0, # of connection points: 4
#     Node 18, Type 1, BuildingBlock: AZAVOO_clean_sbu_0, # of connection points: 4
#     Node 19, Type 1, BuildingBlock: AZAVOO_clean_sbu_0, # of connection points: 4
#     Node 20, Type 1, BuildingBlock: AZAVOO_clean_sbu_0, # of connection points: 4
#     Node 21, Type 1, BuildingBlock: AZAVOO_clean_sbu_0, # of connection points: 4
#     Node 22, Type 1, BuildingBlock: AZAVOO_clean_sbu_0, # of connection points: 4
#     Node 23, Type 1, BuildingBlock: AZAVOO_clean_sbu_0, # of connection points: 4
#     Node 24, Type 1, BuildingBlock: AZAVOO_clean_sbu_0, # of connection points: 4
#     Node 25, Type 1, BuildingBlock: AZAVOO_clean_sbu_0, # of connection points: 4
#     Node 26, Type 1, BuildingBlock: AZAVOO_clean_sbu_0, # of connection points: 4
#     Node 27, Type 1, BuildingBlock: AZAVOO_clean_sbu_0, # of connection points: 4
#     Edge 28, Type (0, 1), BuildingBlock: CIFDUS_clean_linker_0, # of connection points: 2
#     Edge 29, Type (0, 1), BuildingBlock: CIFDUS_clean_linker_0, # of connection points: 2
#     Edge 30, Type (0, 1), BuildingBlock: CIFDUS_clean_linker_0, # of connection points: 2
#     Edge 31, Type (0, 1), BuildingBlock: CIFDUS_clean_linker_0, # of connection points: 2
#     Edge 32, Type (0, 1), BuildingBlock: CIFDUS_clean_linker_0, # of connection points: 2
#     Edge 33, Type (0, 1), BuildingBlock: CIFDUS_clean_linker_0, # of connection points: 2
#     Edge 34, Type (0, 1), BuildingBlock: CIFDUS_clean_linker_0, # of connection points: 2
#     Edge 35, Type (0, 1), BuildingBlock: CIFDUS_clean_linker_0, # of connection points: 2
#     Edge 36, Type (0, 1), BuildingBlock: CIFDUS_clean_linker_0, # of connection points: 2
#     Edge 37, Type (0, 1), BuildingBlock: CIFDUS_clean_linker_0, # of connection points: 2
#     Edge 38, Type (0, 1), BuildingBlock: CIFDUS_clean_linker_0, # of connection points: 2
#     Edge 39, Type (0, 1), BuildingBlock: CIFDUS_clean_linker_0, # of connection points: 2
#     Edge 40, Type (0, 1), BuildingBlock: CIFDUS_clean_linker_0, # of connection points: 2
#     Edge 41, Type (0, 1), BuildingBlock: CIFDUS_clean_linker_0, # of connection points: 2
#     Edge 42, Type (0, 1), BuildingBlock: CIFDUS_clean_linker_0, # of connection points: 2
#     Edge 43, Type (0, 1), BuildingBlock: CIFDUS_clean_linker_0, # of connection points: 2
#     Edge 44, Type (0, 1), BuildingBlock: CIFDUS_clean_linker_0, # of connection points: 2
#     Edge 45, Type (0, 1), BuildingBlock: CIFDUS_clean_linker_0, # of connection points: 2
#     Edge 46, Type (0, 1), BuildingBlock: CIFDUS_clean_linker_0, # of connection points: 2
#     Edge 47, Type (0, 1), BuildingBlock: CIFDUS_clean_linker_0, # of connection points: 2
#     Edge 48, Type (0, 1), BuildingBlock: CIFDUS_clean_linker_0, # of connection points: 2
#     Edge 49, Type (0, 1), BuildingBlock: CIFDUS_clean_linker_0, # of connection points: 2
#     Edge 50, Type (0, 1), BuildingBlock: CIFDUS_clean_linker_0, # of connection points: 2
#     Edge 51, Type (0, 1), BuildingBlock: CIFDUS_clean_linker_0, # of connection points: 2
#     Edge 52, Type (0, 1), BuildingBlock: CIFDUS_clean_linker_0, # of connection points: 2
#     Edge 53, Type (0, 1), BuildingBlock: CIFDUS_clean_linker_0, # of connection points: 2
#     Edge 54, Type (0, 1), BuildingBlock: CIFDUS_clean_linker_0, # of connection points: 2
#     Edge 55, Type (0, 1), BuildingBlock: CIFDUS_clean_linker_0, # of connection points: 2
#     Edge 56, Type (0, 1), BuildingBlock: CIFDUS_clean_linker_0, # of connection points: 2
#     Edge 57, Type (0, 1), BuildingBlock: CIFDUS_clean_linker_0, # of connection points: 2
#     Edge 58, Type (0, 1), BuildingBlock: CIFDUS_clean_linker_0, # of connection points: 2
#     Edge 59, Type (0, 1), BuildingBlock: CIFDUS_clean_linker_0, # of connection points: 2
#     Edge 60, Type (0, 1), BuildingBlock: CIFDUS_clean_linker_0, # of connection points: 2
#     Edge 61, Type (0, 1), BuildingBlock: CIFDUS_clean_linker_0, # of connection points: 2
#     Edge 62, Type (0, 1), BuildingBlock: CIFDUS_clean_linker_0, # of connection points: 2
#     Edge 63, Type (0, 1), BuildingBlock: CIFDUS_clean_linker_0, # of connection points: 2
#     Edge 64, Type (0, 1), BuildingBlock: CIFDUS_clean_linker_0, # of connection points: 2
#     Edge 65, Type (0, 1), BuildingBlock: CIFDUS_clean_linker_0, # of connection points: 2
#     Edge 66, Type (0, 1), BuildingBlock: CIFDUS_clean_linker_0, # of connection points: 2
#     Edge 67, Type (0, 1), BuildingBlock: CIFDUS_clean_linker_0, # of connection points: 2
#     Edge 68, Type (0, 1), BuildingBlock: CIFDUS_clean_linker_0, # of connection points: 2
#     Edge 69, Type (0, 1), BuildingBlock: CIFDUS_clean_linker_0, # of connection points: 2
#     Edge 70, Type (0, 1), BuildingBlock: CIFDUS_clean_linker_0, # of connection points: 2
#     Edge 71, Type (0, 1), BuildingBlock: CIFDUS_clean_linker_0, # of connection points: 2
#     Edge 72, Type (0, 1), BuildingBlock: CIFDUS_clean_linker_0, # of connection points: 2
#     Edge 73, Type (0, 1), BuildingBlock: CIFDUS_clean_linker_0, # of connection points: 2
#     Edge 74, Type (0, 1), BuildingBlock: CIFDUS_clean_linker_0, # of connection points: 2
#     Edge 75, Type (0, 1), BuildingBlock: CIFDUS_clean_linker_0, # of connection points: 2
# Relax obj value: 0.082
# Max RMSD: 0.207
# Mean RMSD: 0.132
data_MOF--net-ctn--node1-AZAVOO_clean_sbu_0--node2-CUQRIR_clean_linker_1--edge1-CIFDUS_clean_linker_0
_symmetry_space_group_name_H-M    P1
_symmetry_Int_Tables_number       1
_symmetry_cell_setting            triclinic
loop_
_symmetry_equiv_pos_as_xyz
'x, y, z'
_cell_length_a     43.876993
_cell_length_b     41.695181
_cell_length_c     42.909772
_cell_angle_alpha  97.105166
_cell_angle_beta   92.003293
_cell_angle_gamma 96.13928
loop_
_atom_site_label
_atom_site_type_symbol
_atom_site_fract_x
_atom_site_fract_y
_atom_site_fract_z
_atom_type_partial_charge
C0 C 0.01184 0.96886 0.02943 0.0
N1 N 0.0298 0.98619 0.01091 0.0
N2 N 0.98477 0.98135 0.03391 0.0
C3 C 0.02237 0.94228 0.04653 0.0
C4 C 0.98671 0.00647 0.01664 0.0
N5 N 0.01428 0.01006 1.00341 0.0
C6 C 0.96262 0.02957 0.01541 0.0
H7 H 1.00337 0.93033 0.05888 0.0
H8 H 0.04136 0.95267 0.06381 0.0
H9 H 0.03137 0.92369 0.02961 0.0
H10 H 0.96445 0.0467 0.03753 0.0
H11 H 0.93936 0.01602 0.01332 0.0
H12 H 0.96526 0.04358 0.99513 0.0
C13 C 0.30559 0.75017 0.23762 0.0
N14 N 0.31858 0.73468 0.25975 0.0
N15 N 0.32532 0.77491 0.23017 0.0
C16 C 0.27492 0.73889 0.22059 0.0
C17 C 0.35112 0.77354 0.248 0.0
N18 N 0.34716 0.7489 0.26603 0.0
C19 C 0.3795 0.79729 0.24865 0.0
H20 H 0.26988 0.71204 0.21843 0.0
H21 H 0.27407 0.74633 0.19667 0.0
H22 H 0.25671 0.74992 0.23411 0.0
H23 H 0.37377 0.8207 0.24149 0.0
H24 H 0.39565 0.78711 0.23178 0.0
H25 H 0.39102 0.80176 0.27246 0.0
C26 C 0.99783 0.51741 0.09828 0.0
N27 N 0.01662 0.49353 0.09514 0.0
N28 N 0.9743 0.51121 0.07635 0.0
C29 C 1.00345 0.5479 0.12141 0.0
C30 C 0.97954 0.48285 0.05951 0.0
N31 N 1.00552 0.47231 0.07059 0.0
C32 C 0.95754 0.46372 0.0345 0.0
H33 H 0.99304 0.54333 0.14386 0.0
H34 H 0.99288 0.56819 0.11244 0.0
H35 H 0.02841 0.55518 0.12619 0.0
H36 H 0.96491 0.46932 0.01111 0.0
H37 H 0.93381 0.47008 0.0374 0.0
H38 H 0.95748 0.43718 0.03508 0.0
C39 C 0.69524 0.77718 0.23279 0.0
N40 N 0.71648 0.79234 0.21595 0.0
N41 N 0.68671 0.79806 0.25673 0.0
C42 C 0.68384 0.74155 0.22676 0.0
C43 C 0.70365 0.82657 0.25389 0.0
N44 N 0.72166 0.82318 0.22891 0.0
C45 C 0.70569 0.85647 0.2778 0.0
H46 H 0.68256 0.73294 0.20117 0.0
H47 H 0.66092 0.73667 0.23645 0.0
H48 H 0.70017 0.72767 0.23836 0.0
H49 H 0.73007 0.86608 0.28363 0.0
H50 H 0.69443 0.85159 0.29972 0.0
H51 H 0.69435 0.87557 0.26757 0.0
C52 C 0.0398 0.97024 0.48339 0.0
N53 N 0.06687 0.97746 0.50036 0.0
N54 N 0.03748 0.9905 0.46133 0.0
C55 C 0.01648 0.94181 0.48696 0.0
C56 C 0.0643 0.01016 0.46516 0.0
N57 N 0.08234 1.00228 0.48878 0.0
C58 C 0.0739 0.03541 0.44412 0.0
H59 H 0.027 0.91883 0.48161 0.0
H60 H 0.99567 0.94114 0.47138 0.0
H61 H 1.00941 0.94332 0.5116 0.0
H62 H 0.06658 0.05901 0.45422 0.0
H63 H 0.06293 0.02884 0.42018 0.0
H64 H 0.0992 0.03854 0.44241 0.0
C65 C 0.174 0.70533 0.80495 0.0
N66 N 0.19914 0.69525 0.8184 0.0
N67 N 0.16711 0.68864 0.7761 0.0
C68 C 0.15598 0.73153 0.81976 0.0
C69 C 0.1887 0.66777 0.77246 0.0
N70 N 0.20789 0.67135 0.79841 0.0
C71 C 0.19191 0.64489 0.7431 0.0
H72 H 0.15781 0.73351 0.84579 0.0
H73 H 0.13141 0.72659 0.81195 0.0
H74 H 0.16498 0.75516 0.81234 0.0
H75 H 0.17798 0.65067 0.7229 0.0
H76 H 0.18408 0.6197 0.74741 0.0
H77 H 0.21638 0.64575 0.73716 0.0
C78 C 0.97318 0.48955 0.46418 0.0
N79 N 0.99241 0.51762 0.46695 0.0
N80 N 0.94984 0.49246 0.48384 0.0
C81 C 0.97776 0.45895 0.44309 0.0
C82 C 0.95568 0.52306 0.49896 0.0
N83 N 0.98169 0.53825 0.48897 0.0
C84 C 0.93672 0.53767 0.52451 0.0
H85 H 0.96972 0.46125 0.41876 0.0
H86 H 0.96455 0.43715 0.45025 0.0
H87 H 1.00246 0.45537 0.4429 0.0
H88 H 0.94603 0.53271 0.54759 0.0
H89 H 0.91242 0.52702 0.5217 0.0
H90 H 0.93767 0.56439 0.52471 0.0
C91 C 0.78711 0.79423 0.80248 0.0
N92 N 0.81106 0.776 0.80174 0.0
N93 N 0.79533 0.82328 0.79244 0.0
C94 C 0.75558 0.78331 0.81273 0.0
C95 C 0.82518 0.82233 0.7861 0.0
N96 N 0.8349 0.79357 0.79136 0.0
C97 C 0.84525 0.85003 0.77527 0.0
H98 H 0.74556 0.76139 0.79691 0.0
H99 H 0.73963 0.80207 0.81211 0.0
H100 H 0.75734 0.77659 0.83691 0.0
H101 H 0.83828 0.87372 0.78562 0.0
H102 H 0.84276 0.84859 0.7493 0.0
H103 H 0.86974 0.84884 0.78196 0.0
C104 C 0.29151 0.28921 0.32028 0.0
N105 N 0.31514 0.27108 0.31467 0.0
N106 N 0.29519 0.31636 0.30595 0.0
C107 C 0.26513 0.2806 0.34036 0.0
C108 C 0.32207 0.31444 0.29176 0.0
N109 N 0.33429 0.28683 0.29678 0.0
C110 C 0.33768 0.34105 0.27519 0.0
H111 H 0.25707 0.25428 0.33556 0.0
H112 H 0.24552 0.29446 0.33612 0.0
H113 H 0.27305 0.28604 0.36549 0.0
H114 H 0.33234 0.36524 0.28606 0.0
H115 H 0.3292 0.33762 0.25022 0.0
H116 H 0.36294 0.34061 0.27609 0.0
C117 C 0.50295 0.01113 0.59192 0.0
N118 N 0.51704 0.98409 0.59432 0.0
N119 N 0.48065 1.00544 0.56861 0.0
C120 C 0.50986 0.04256 0.61355 0.0
C121 C 0.48157 0.97388 0.55701 0.0
N122 N 0.50339 0.96073 0.57287 0.0
C123 C 0.46304 0.9567 0.52839 0.0
H124 H 0.51728 0.03797 0.63744 0.0
H125 H 0.4895 0.05623 0.61525 0.0
H126 H 0.52884 0.05776 0.60419 0.0
H127 H 0.45608 0.97424 0.5128 0.0
H128 H 0.44205 0.94317 0.53606 0.0
H129 H 0.47626 0.93901 0.51477 0.0
C130 C 0.18154 0.29304 0.71761 0.0
N131 N 0.208 0.30457 0.70545 0.0
N132 N 0.17516 0.31304 0.74324 0.0
C133 C 0.16273 0.26131 0.7057 0.0
C134 C 0.19869 0.3372 0.74629 0.0
N135 N 0.2185 0.33232 0.72308 0.0
C136 C 0.20389 0.36386 0.77366 0.0
H137 H 0.1654 0.25457 0.68018 0.0
H138 H 0.13811 0.26277 0.70997 0.0
H139 H 0.17052 0.24193 0.71857 0.0
H140 H 0.22755 0.36485 0.78406 0.0
H141 H 0.18715 0.3606 0.79208 0.0
H142 H 0.20153 0.38759 0.76521 0.0
C143 C 0.79699 0.26148 0.75392 0.0
N144 N 0.81077 0.2446 0.7744 0.0
N145 N 0.81686 0.28571 0.74576 0.0
C146 C 0.76499 0.25221 0.73924 0.0
C147 C 0.84352 0.28262 0.76133 0.0
N148 N 0.83995 0.25749 0.77877 0.0
C149 C 0.87283 0.30427 0.7593 0.0
H150 H 0.76058 0.22547 0.73277 0.0
H151 H 0.76107 0.26418 0.718 0.0
H152 H 0.74809 0.25973 0.75654 0.0
H153 H 0.8864 0.30793 0.78202 0.0
H154 H 0.86798 0.32821 0.75274 0.0
H155 H 0.8867 0.29268 0.74088 0.0
C156 C 0.53179 0.48481 0.55256 0.0
N157 N 0.54835 0.49685 0.52968 0.0
N158 N 0.50789 0.50215 0.55931 0.0
C159 C 0.53954 0.45655 0.56882 0.0
C160 C 0.51062 0.52533 0.53981 0.0
N161 N 0.53489 0.52188 0.52146 0.0
C162 C 0.49218 0.55404 0.54173 0.0
H163 H 0.54776 0.43753 0.55176 0.0
H164 H 0.51938 0.44579 0.58038 0.0
H165 H 0.55836 0.4651 0.58684 0.0
H166 H 0.48464 0.56041 0.56589 0.0
H167 H 0.4715 0.54775 0.52561 0.0
H168 H 0.50563 0.57585 0.53477 0.0
C169 C 0.52587 0.49494 0.00739 0.0
N170 N 0.5546 0.49603 0.02074 0.0
N171 N 0.52512 0.51611 0.9859 0.0
C172 C 0.49893 0.47125 0.01349 0.0
C173 C 0.5545 0.53004 0.98639 0.0
N174 N 0.5725 0.51757 0.00714 0.0
C175 C 0.56618 0.55439 0.96518 0.0
H176 H 0.50478 0.44597 0.00807 0.0
H177 H 0.47791 0.47417 0.99955 0.0
H178 H 0.49367 0.47519 0.03865 0.0
H179 H 0.54761 0.56687 0.95564 0.0
H180 H 0.5772 0.54155 0.94514 0.0
H181 H 0.58367 0.57298 0.97804 0.0
C182 C 0.66709 0.20546 0.29496 0.0
N183 N 0.69364 0.19828 0.30819 0.0
N184 N 0.66195 0.1895 0.26556 0.0
C185 C 0.6461 0.22833 0.31042 0.0
C186 C 0.68609 0.17198 0.2614 0.0
N187 N 0.7051 0.17682 0.28752 0.0
C188 C 0.69215 0.15171 0.23122 0.0
H189 H 0.64829 0.22993 0.33641 0.0
H190 H 0.62183 0.22026 0.30276 0.0
H191 H 0.65201 0.25288 0.30337 0.0
H192 H 0.67569 0.15449 0.2118 0.0
H193 H 0.69018 0.12572 0.23489 0.0
H194 H 0.71594 0.15855 0.22449 0.0
C195 C 0.44951 1.00163 0.94144 0.0
N196 N 0.46968 0.02879 0.94322 0.0
N197 N 0.43009 1.00389 0.96526 0.0
C198 C 0.45012 0.97204 0.91769 0.0
C199 C 0.4394 0.0333 0.98181 0.0
N200 N 0.46378 0.04827 0.96866 0.0
C201 C 0.42567 0.04666 0.01174 0.0
H202 H 0.45523 0.97927 0.89424 0.0
H203 H 0.42793 0.95628 0.916 0.0
H204 H 0.46864 0.95796 0.92493 0.0
H205 H 0.43805 0.03891 0.03203 0.0
H206 H 0.40112 0.03746 0.01238 0.0
H207 H 0.42785 0.07362 0.01447 0.0
Mg208 Mg 0.22623 0.85535 0.038 0.0
O209 O 0.26887 0.88814 0.02659 0.0
O210 O 0.30811 0.85816 0.02931 0.0
Mg211 Mg 0.29227 0.80914 0.04576 0.0
C212 C 0.29724 0.88427 0.02375 0.0
C213 C 0.18662 0.9149 0.02706 0.0
O214 O 0.20297 0.93076 0.0515 0.0
O215 O 0.2294 0.82554 0.99025 0.0
O216 O 0.26646 0.79381 0.99768 0.0
O217 O 0.23196 0.87304 0.08998 0.0
O218 O 0.25381 0.83213 0.06638 0.0
C219 C 0.24538 0.80276 0.98053 0.0
C220 C 0.25021 0.85083 0.09182 0.0
O221 O 0.19216 0.88624 0.01666 0.0
Mg222 Mg 0.17888 0.52942 0.30303 0.0
O223 O 0.14847 0.52231 0.25743 0.0
O224 O 0.17744 0.52422 0.21599 0.0
Mg225 Mg 0.22738 0.53459 0.23596 0.0
C226 C 0.15119 0.52047 0.22776 0.0
C227 C 0.13479 0.52626 0.35756 0.0
O228 O 0.15848 0.54518 0.37154 0.0
O229 O 0.1925 0.47795 0.29254 0.0
O230 O 0.22343 0.48394 0.25267 0.0
O231 O 0.17973 0.58315 0.30732 0.0
O232 O 0.21446 0.55613 0.28285 0.0
C233 C 0.2106 0.4667 0.27226 0.0
C234 C 0.20464 0.58363 0.29198 0.0
O235 O 0.13651 0.51389 0.32915 0.0
Mg236 Mg 0.79838 0.66449 0.01723 0.0
O237 O 0.75493 0.62654 0.00916 0.0
O238 O 0.71587 0.6548 0.9993 0.0
Mg239 Mg 0.7334 0.70881 1.00054 0.0
C240 C 0.7264 0.62814 1.00321 0.0
C241 C 0.83658 0.61162 0.03826 0.0
O242 O 0.8224 0.61998 0.06397 0.0
O243 O 0.80178 0.67044 0.96506 0.0
O244 O 0.76378 0.7008 0.95757 0.0
O245 O 0.78991 0.6743 0.0683 0.0
O246 O 0.77186 0.70206 0.03269 0.0
C247 C 0.78676 0.68668 0.94774 0.0
C248 C 0.77398 0.69716 0.0617 0.0
O249 O 0.83039 0.62433 0.01365 0.0
Mg250 Mg 0.89307 0.0249 0.25442 0.0
O251 O 0.86735 0.97329 0.24493 0.0
O252 O 0.90162 0.93789 0.23464 0.0
Mg253 Mg 0.94934 0.96647 0.23727 0.0
C254 C 0.87401 0.94426 0.23791 0.0
C255 C 0.84851 0.07579 0.27713 0.0
O256 O 0.87375 0.09499 0.27427 0.0
O257 O 0.91059 0.01614 0.30387 0.0
O258 O 0.94512 0.98194 0.28965 0.0
O259 O 0.89115 0.02779 0.20215 0.0
O260 O 0.92904 0.01018 0.22799 0.0
C261 C 0.93155 0.99863 0.31077 0.0
C262 C 0.91708 0.0156 0.20174 0.0
O263 O 0.84915 0.04513 0.27193 0.0
Mg264 Mg 0.30076 0.15547 0.52811 0.0
O265 O 0.25132 0.1282 0.51799 0.0
O266 O 0.22186 0.16837 0.51521 0.0
Mg267 Mg 0.24992 0.21845 0.52168 0.0
C268 C 0.22489 0.13818 0.51488 0.0
C269 C 0.35284 0.1144 0.52205 0.0
O270 O 0.36522 0.14478 0.52434 0.0
O271 O 0.30618 0.16659 0.47709 0.0
O272 O 0.27785 0.20813 0.47752 0.0
O273 O 0.29286 0.15976 0.57943 0.0
O274 O 0.28334 0.19733 0.54967 0.0
C275 C 0.29602 0.18947 0.46395 0.0
C276 C 0.28225 0.18712 0.57676 0.0
O277 O 0.32371 0.10874 0.52014 0.0
Mg278 Mg 0.40155 0.53564 0.77305 0.0
O279 O 0.36675 0.49097 0.75756 0.0
O280 O 0.39143 0.44737 0.74533 0.0
Mg281 Mg 0.44289 0.4642 0.75304 0.0
C282 C 0.36664 0.46071 0.74805 0.0
C283 C 0.36593 0.5952 0.79413 0.0
O284 O 0.39326 0.60999 0.79027 0.0
O285 O 0.41131 0.51868 0.82126 0.0
O286 O 0.43762 0.47684 0.80575 0.0
O287 O 0.40623 0.54368 0.7223 0.0
O288 O 0.43538 0.51442 0.7476 0.0
C289 C 0.42659 0.49549 0.82736 0.0
C290 C 0.42836 0.52545 0.72203 0.0
O291 O 0.36199 0.56424 0.79002 0.0
Mg292 Mg 0.73227 0.35179 0.53573 0.0
O293 O 0.77733 0.38124 0.52481 0.0
O294 O 0.81322 0.34673 0.52305 0.0
Mg295 Mg 0.79284 0.29672 0.53333 0.0
C296 C 0.80493 0.37485 0.52082 0.0
C297 C 0.67822 0.38249 0.50498 0.0
O298 O 0.67265 0.35172 0.49316 0.0
O299 O 0.72968 0.32615 0.48502 0.0
O300 O 0.7641 0.29034 0.48704 0.0
O301 O 0.74332 0.36272 0.58836 0.0
O302 O 0.75725 0.32071 0.55835 0.0
C303 C 0.74324 0.3025 0.47236 0.0
C304 C 0.75796 0.33723 0.58573 0.0
O305 O 0.70226 0.3914 0.52283 0.0
Mg306 Mg 0.66659 0.03706 0.80273 0.0
O307 O 0.64345 0.0268 0.75212 0.0
O308 O 0.68167 0.03088 0.71925 0.0
Mg309 Mg 0.72777 0.0424 0.74725 0.0
C310 C 0.65317 0.0256 0.72425 0.0
C311 C 0.62493 0.0214 0.85483 0.0
O312 O 0.65281 0.02501 0.86796 0.0
O313 O 0.6822 0.98627 0.79809 0.0
O314 O 0.7208 0.99265 0.76577 0.0
O315 O 0.66684 0.09078 0.80494 0.0
O316 O 0.70518 0.06434 0.78812 0.0
C317 C 0.70437 0.97547 0.783 0.0
C318 C 0.69418 0.09167 0.79447 0.0
O319 O 0.62179 0.0223 0.82537 0.0
Mg320 Mg 0.03549 0.23919 0.92875 0.0
O321 O 0.98669 0.23393 0.90502 0.0
O322 O 0.95434 0.22816 0.94349 0.0
Mg323 Mg 0.98185 0.22398 0.98944 0.0
C324 C 0.95942 0.23102 0.91474 0.0
C325 C 0.08636 0.25926 0.88954 0.0
O326 O 0.09816 0.24899 0.91457 0.0
O327 O 0.02895 0.28998 0.95305 0.0
O328 O 1.00075 0.27833 0.99352 0.0
O329 O 0.03918 0.18543 0.91996 0.0
O330 O 0.02122 0.21036 0.96257 0.0
C331 C 0.01639 0.29873 0.97872 0.0
C332 C 0.0282 0.18375 0.9474 0.0
O333 O 0.05742 0.25932 0.88695 0.0
Mg334 Mg 0.52979 0.73538 0.43479 0.0
O335 O 0.48318 0.72992 0.40653 0.0
O336 O 0.44741 0.71006 0.43688 0.0
Mg337 Mg 0.4716 0.69972 0.4825 0.0
C338 C 0.45518 0.72069 0.41131 0.0
C339 C 0.57885 0.76039 0.39506 0.0
O340 O 0.5907 0.73991 0.41168 0.0
O341 O 0.51694 0.77926 0.46754 0.0
O342 O 0.48349 0.75499 0.4978 0.0
O343 O 0.53895 0.68529 0.4153 0.0
O344 O 0.51575 0.6968 0.45959 0.0
C345 C 0.49942 0.78041 0.49076 0.0
C346 C 0.52572 0.67537 0.43937 0.0
O347 O 0.55153 0.76651 0.39983 0.0
Mg348 Mg 1.00544 0.76678 0.61451 0.0
O349 O 0.04789 0.75828 0.64446 0.0
O350 O 0.08402 0.74775 0.61013 0.0
Mg351 Mg 0.06542 0.74814 0.55994 0.0
C352 C 0.07493 0.75141 0.63816 0.0
C353 C 0.97372 0.77065 0.68049 0.0
O354 O 0.98864 0.74561 0.68425 0.0
O355 O 0.0278 0.81743 0.60553 0.0
O356 O 0.06175 0.80318 0.57023 0.0
O357 O 0.99022 0.71429 0.61118 0.0
O358 O 0.01937 0.73582 0.57638 0.0
C359 C 0.04856 0.82495 0.58659 0.0
C360 C 1.00653 0.71022 0.58678 0.0
O361 O 0.97913 0.78614 0.65706 0.0
Mg362 Mg 0.49562 0.26645 0.10883 0.0
O363 O 0.53875 0.25711 0.13699 0.0
O364 O 0.5751 0.25107 0.10195 0.0
Mg365 Mg 0.55582 0.25499 0.05267 0.0
C366 C 0.56607 0.25195 0.12998 0.0
C367 C 0.46649 0.26639 0.17711 0.0
O368 O 0.48394 0.24333 0.18087 0.0
O369 O 0.51654 0.31883 0.10383 0.0
O370 O 0.55076 0.30926 0.06741 0.0
O371 O 0.48207 0.2134 0.10121 0.0
O372 O 0.5101 0.23936 0.06832 0.0
C373 C 0.53697 0.32901 0.08563 0.0
C374 C 0.49809 0.21222 0.07645 0.0
O375 O 0.46922 0.28143 0.153 0.0
H376 H 0.21696 0.75822 0.83619 0.0
H377 H 0.21535 0.66368 0.86683 0.0
H378 H 0.23319 0.6889 0.92007 0.0
H379 H 0.24322 0.73842 0.95907 0.0
H380 H 0.23608 0.83237 0.92897 0.0
H381 H 0.22659 0.80711 0.8745 0.0
C382 C 0.22049 0.74324 0.85463 0.0
C383 C 0.21441 0.70931 0.84797 0.0
C384 C 0.22849 0.75794 0.88533 0.0
C385 C 0.21995 0.6899 0.87157 0.0
C386 C 0.22975 0.70434 0.902 0.0
C387 C 0.23974 0.75323 0.94046 0.0
C388 C 0.24017 0.78711 0.94783 0.0
C389 C 0.23311 0.73838 0.90937 0.0
C390 C 0.23548 0.80621 0.92374 0.0
C391 C 0.23024 0.79181 0.89266 0.0
H392 H 1.00012 0.50762 0.4049 0.0
H393 H 0.04837 0.5395 0.49427 0.0
H394 H 0.09704 0.54581 0.46821 0.0
H395 H 0.12597 0.5402 0.42002 0.0
H396 H 0.07786 0.50355 0.33116 0.0
H397 H 0.02916 0.49988 0.35705 0.0
C398 C 0.02138 0.5156 0.4186 0.0
C399 C 0.02075 0.52311 0.45138 0.0
C400 C 0.04929 0.51779 0.40359 0.0
C401 C 0.04829 0.53413 0.46894 0.0
C402 C 0.07611 0.53735 0.45408 0.0
C403 C 0.10484 0.53131 0.40634 0.0
C404 C 0.10559 0.52215 0.3737 0.0
C405 C 0.07692 0.52894 0.42143 0.0
C406 C 0.078 0.51055 0.35633 0.0
C407 C 0.0501 0.50862 0.37109 0.0
H408 H 0.84597 0.77378 0.85344 0.0
H409 H 0.77711 0.71745 0.7896 0.0
H410 H 0.76403 0.68133 0.82928 0.0
H411 H 0.76631 0.67266 0.88577 0.0
H412 H 0.83891 0.72621 0.94741 0.0
H413 H 0.85713 0.75605 0.90489 0.0
C414 C 0.82945 0.75245 0.84756 0.0
C415 C 0.81237 0.74839 0.81879 0.0
C416 C 0.82229 0.73175 0.87045 0.0
C417 C 0.79035 0.72114 0.81178 0.0
C418 C 0.78268 0.70071 0.83458 0.0
C419 C 0.78669 0.69009 0.88946 0.0
C420 C 0.8012 0.69743 0.91963 0.0
C421 C 0.79748 0.70681 0.8646 0.0
C422 C 0.82753 0.72011 0.92428 0.0
C423 C 0.83785 0.73731 0.90003 0.0
H424 H 0.99832 0.03204 0.44545 0.0
H425 H 0.02962 0.93895 0.41715 0.0
H426 H 0.99587 0.93133 0.36961 0.0
H427 H 0.96082 0.95285 0.33449 0.0
H428 H 0.92989 0.04679 0.36065 0.0
H429 H 0.95929 0.05215 0.41113 0.0
C430 C 0.99732 0.01009 0.42886 0.0
C431 C 0.01614 0.98595 0.43452 0.0
C432 C 0.97791 0.00604 0.40146 0.0
C433 C 0.01504 0.95756 0.4131 0.0
C434 C 0.99584 0.95328 0.38603 0.0
C435 C 0.96013 0.97437 0.35138 0.0
C436 C 0.94343 0.99953 0.34368 0.0
C437 C 0.97757 0.97755 0.37976 0.0
C438 C 0.94247 0.02702 0.36602 0.0
C439 C 0.95955 0.03022 0.39474 0.0
H440 H 0.22585 0.245 0.70208 0.0
H441 H 0.22499 0.32834 0.65237 0.0
H442 H 0.2481 0.29927 0.60733 0.0
H443 H 0.26688 0.24918 0.58178 0.0
H444 H 0.26746 0.16593 0.63238 0.0
H445 H 0.24563 0.1956 0.67725 0.0
C446 C 0.23065 0.25657 0.68123 0.0
C447 C 0.22344 0.28839 0.68003 0.0
C448 C 0.24358 0.23963 0.65563 0.0
C449 C 0.23036 0.30374 0.65346 0.0
C450 C 0.24337 0.28708 0.6278 0.0
C451 C 0.26209 0.2375 0.60258 0.0
C452 C 0.26858 0.20528 0.60362 0.0
C453 C 0.24975 0.25484 0.62849 0.0
C454 C 0.26262 0.19065 0.6309 0.0
C455 C 0.25017 0.20761 0.65662 0.0
H456 H 0.52525 0.50179 0.61966 0.0
H457 H 0.44633 0.50157 0.55724 0.0
H458 H 0.41376 0.50916 0.60234 0.0
H459 H 0.40881 0.51915 0.66007 0.0
H460 H 0.48771 0.51454 0.72155 0.0
H461 H 0.51919 0.50497 0.6764 0.0
C462 C 0.50077 0.50237 0.61597 0.0
C463 C 0.4881 0.50115 0.58535 0.0
C464 C 0.48231 0.50622 0.64187 0.0
C465 C 0.45645 0.50264 0.58077 0.0
C466 C 0.43793 0.50707 0.60649 0.0
C467 C 0.43284 0.51589 0.66342 0.0
C468 C 0.44604 0.51791 0.69399 0.0
C469 C 0.45075 0.50956 0.63723 0.0
C470 C 0.47707 0.51313 0.69817 0.0
C471 C 0.49512 0.5077 0.6724 0.0
H472 H 0.8255 0.26717 0.68577 0.0
H473 H 0.79519 0.34394 0.74913 0.0
H474 H 0.77623 0.36929 0.70444 0.0
H475 H 0.76348 0.36574 0.64721 0.0
H476 H 0.79004 0.28475 0.58534 0.0
H477 H 0.8154 0.26516 0.62903 0.0
C478 C 0.81557 0.28999 0.68948 0.0
C479 C 0.81211 0.30418 0.72026 0.0
C480 C 0.80367 0.30337 0.66385 0.0
C481 C 0.79846 0.33316 0.72537 0.0
C482 C 0.78738 0.34733 0.69989 0.0
C483 C 0.77516 0.34406 0.64326 0.0
C484 C 0.77506 0.3271 0.61272 0.0
C485 C 0.78906 0.3321 0.66897 0.0
C486 C 0.79009 0.29882 0.60821 0.0
C487 C 0.80453 0.28733 0.63335 0.0
H488 H 0.57404 0.01378 0.59637 0.0
H489 H 0.51328 0.95083 0.64424 0.0
H490 H 0.55012 0.95804 0.68984 0.0
H491 H 0.59817 0.98641 0.71762 0.0
H492 H 0.6591 0.0483 0.66801 0.0
H493 H 0.62383 0.03776 0.62181 0.0
C494 C 0.56947 1.00096 0.6165 0.0
C495 C 0.54137 0.98152 0.61702 0.0
C496 C 0.5905 1.00573 0.64258 0.0
C497 C 0.53512 0.96538 0.64328 0.0
C498 C 0.55598 0.96993 0.66943 0.0
C499 C 0.60364 0.99756 0.69668 0.0
C500 C 0.63111 0.01848 0.69648 0.0
C501 C 0.58344 0.99079 0.6697 0.0
C502 C 0.63813 0.03224 0.66891 0.0
C503 C 0.61799 0.02618 0.6424 0.0
H504 H 0.83661 0.25042 0.84005 0.0
H505 H 0.89551 0.2412 0.76214 0.0
H506 H 0.93779 0.23113 0.79713 0.0
H507 H 0.95899 0.22858 0.85058 0.0
H508 H 0.89966 0.23687 0.92867 0.0
H509 H 0.85675 0.24329 0.89313 0.0
C510 C 0.8586 0.24565 0.83082 0.0
C511 C 0.86321 0.24707 0.79875 0.0
C512 C 0.88283 0.23996 0.85119 0.0
C513 C 0.89173 0.24085 0.7869 0.0
C514 C 0.91585 0.23506 0.80689 0.0
C515 C 0.93666 0.2316 0.85986 0.0
C516 C 0.93284 0.23251 0.89244 0.0
C517 C 0.91189 0.23526 0.83923 0.0
C518 C 0.9035 0.23614 0.90381 0.0
C519 C 0.87884 0.23987 0.88347 0.0
H520 H 0.46782 0.9057 0.57662 0.0
H521 H 0.55633 0.94388 0.54935 0.0
H522 H 0.56375 0.89037 0.52131 0.0
H523 H 0.54198 0.8343 0.49972 0.0
H524 H 0.45269 0.79702 0.52726 0.0
H525 H 0.44833 0.84849 0.55964 0.0
C526 C 0.48911 0.90179 0.56538 0.0
C527 C 0.51165 0.9283 0.56515 0.0
C528 C 0.49258 0.87139 0.54859 0.0
C529 C 0.53901 0.9235 0.55019 0.0
C530 C 0.54293 0.89311 0.53376 0.0
C531 C 0.5216 0.83747 0.51283 0.0
C532 C 0.4975 0.81191 0.51064 0.0
C533 C 0.51937 0.86716 0.53187 0.0
C534 C 0.4715 0.81625 0.5283 0.0
C535 C 0.469 0.84568 0.54693 0.0
H536 H 0.19065 0.29406 0.79779 0.0
H537 H 0.11376 0.31344 0.74109 0.0
H538 H 0.07855 0.29868 0.78178 0.0
H539 H 0.07023 0.27993 0.83369 0.0
H540 H 0.1484 0.26118 0.88997 0.0
H541 H 0.18261 0.27622 0.84952 0.0
C542 C 0.16615 0.2951 0.79466 0.0
C543 C 0.15451 0.30482 0.76696 0.0
C544 C 0.14643 0.28677 0.81805 0.0
C545 C 0.12288 0.30601 0.76251 0.0
C546 C 0.10293 0.29762 0.7857 0.0
C547 C 0.09475 0.27924 0.8371 0.0
C548 C 0.10667 0.26939 0.86485 0.0
C549 C 0.11447 0.28793 0.81362 0.0
C550 C 0.13852 0.26862 0.86889 0.0
C551 C 0.15818 0.27719 0.84575 0.0
H552 H 0.50208 0.53225 0.47127 0.0
H553 H 0.58772 0.56194 0.52387 0.0
H554 H 0.59429 0.61188 0.49905 0.0
H555 H 0.57055 0.65144 0.47027 0.0
H556 H 0.48169 0.6244 0.42294 0.0
H557 H 0.48077 0.56939 0.43809 0.0
C558 C 0.52276 0.54915 0.47613 0.0
C559 C 0.54455 0.54342 0.49906 0.0
C560 C 0.525 0.57883 0.46364 0.0
C561 C 0.57104 0.56551 0.50583 0.0
C562 C 0.57437 0.59441 0.49216 0.0
C563 C 0.55126 0.63321 0.46296 0.0
C564 C 0.52609 0.64162 0.44579 0.0
C565 C 0.55072 0.60204 0.47236 0.0
C566 C 0.50113 0.61821 0.43632 0.0
C567 C 0.50071 0.58686 0.44491 0.0
H568 H 0.84253 0.78912 0.73007 0.0
H569 H 0.88525 0.77113 0.81699 0.0
H570 H 0.93237 0.7606 0.78996 0.0
H571 H 0.96288 0.76141 0.74174 0.0
H572 H 0.921 0.78933 0.65811 0.0
H573 H 0.87268 0.79251 0.68382 0.0
C574 C 0.86213 0.78257 0.74301 0.0
C575 C 0.86032 0.78069 0.77539 0.0
C576 C 0.88967 0.77941 0.72797 0.0
C577 C 0.88576 0.77215 0.79197 0.0
C578 C 0.9129 0.76673 0.77657 0.0
C579 C 0.94318 0.76842 0.72934 0.0
C580 C 0.94567 0.77538 0.69808 0.0
C581 C 0.91541 0.77119 0.74469 0.0
C582 C 0.91995 0.78438 0.68227 0.0
C583 C 0.89216 0.78585 0.69684 0.0
H584 H 0.04748 0.96946 0.55758 0.0
H585 H 0.10778 0.93512 0.48729 0.0
H586 H 0.11204 0.88632 0.51231 0.0
H587 H 0.09005 0.8487 0.54701 0.0
H588 H 0.02352 0.87922 0.61301 0.0
H589 H 0.02978 0.93371 0.59688 0.0
C590 C 0.06268 0.95189 0.54883 0.0
C591 C 0.07828 0.95651 0.5213 0.0
C592 C 0.06272 0.92246 0.56183 0.0
C593 C 0.097 0.9331 0.50933 0.0
C594 C 0.09859 0.90463 0.52314 0.0
C595 C 0.07722 0.86732 0.55836 0.0
C596 C 0.05591 0.85948 0.58089 0.0
C597 C 0.08028 0.89832 0.54834 0.0
C598 C 0.03984 0.88427 0.5954 0.0
C599 C 0.0434 0.91551 0.58615 0.0
H600 H 0.18194 0.71988 0.72742 0.0
H601 H 0.10562 0.67649 0.77355 0.0
H602 H 0.06946 0.69467 0.73614 0.0
H603 H 0.06004 0.72263 0.68982 0.0
H604 H 0.13701 0.76376 0.64234 0.0
H605 H 0.17262 0.74728 0.68084 0.0
C606 C 0.15736 0.71425 0.72884 0.0
C607 C 0.14614 0.69681 0.7527 0.0
C608 C 0.13701 0.72475 0.70733 0.0
C609 C 0.11441 0.68973 0.755 0.0
C610 C 0.09391 0.70027 0.73381 0.0
C611 C 0.0846 0.72838 0.68827 0.0
C612 C 0.09594 0.74464 0.66353 0.0
C613 C 0.10495 0.71793 0.70992 0.0
C614 C 0.1278 0.75137 0.6613 0.0
C615 C 0.14816 0.74183 0.68318 0.0
H616 H 1.00042 0.55998 0.54816 0.0
H617 H 0.99264 0.58881 0.45576 0.0
H618 H 1.00504 0.64627 0.47781 0.0
H619 H 0.00992 0.68828 0.52464 0.0
H620 H 0.01161 0.658 0.61716 0.0
H621 H 0.0098 0.60125 0.59421 0.0
C622 C 1.00195 0.57898 0.53298 0.0
C623 C 0.99525 0.57065 0.50064 0.0
C624 C 1.00756 0.61165 0.54602 0.0
C625 C 0.99769 0.59501 0.48079 0.0
C626 C 1.00448 0.62773 0.49346 0.0
C627 C 0.01056 0.66921 0.53963 0.0
C628 C 0.01066 0.67709 0.57247 0.0
C629 C 1.00824 0.63642 0.5262 0.0
C630 C 0.01123 0.65234 0.5918 0.0
C631 C 0.01019 0.61993 0.57871 0.0
H632 H 0.78163 0.81646 0.23273 0.0
H633 H 0.71698 0.88272 0.21303 0.0
H634 H 0.75889 0.92669 0.2132 0.0
H635 H 0.81352 0.947 0.22339 0.0
H636 H 0.8784 0.88015 0.2423 0.0
H637 H 0.83698 0.83553 0.23771 0.0
C638 C 0.77698 0.84026 0.22742 0.0
C639 C 0.7465 0.84651 0.22255 0.0
C640 C 0.80116 0.86534 0.22798 0.0
C641 C 0.74043 0.8776 0.2166 0.0
C642 C 0.76432 0.90266 0.21695 0.0
C643 C 0.81861 0.92265 0.22641 0.0
C644 C 0.84897 0.91703 0.23358 0.0
C645 C 0.79471 0.89701 0.22344 0.0
C646 C 0.85523 0.8852 0.23689 0.0
C647 C 0.83155 0.85964 0.23428 0.0
H648 H 0.71306 0.11394 0.28565 0.0
H649 H 0.76137 0.21025 0.29659 0.0
H650 H 0.81075 0.18746 0.29663 0.0
H651 H 0.83978 0.13985 0.28951 0.0
H652 H 0.791 0.04322 0.27767 0.0
H653 H 0.74221 0.06624 0.28201 0.0
C654 C 0.73452 0.12975 0.2882 0.0
C655 C 0.73388 0.16359 0.29092 0.0
C656 C 0.7626 0.11639 0.28782 0.0
C657 C 0.76157 0.18413 0.29461 0.0
C658 C 0.78967 0.17107 0.29444 0.0
C659 C 0.81852 0.12378 0.28815 0.0
C660 C 0.81915 0.08979 0.283 0.0
C661 C 0.79046 0.1372 0.29047 0.0
C662 C 0.79129 0.06942 0.28152 0.0
C663 C 0.76332 0.08257 0.28392 0.0
H664 H 0.36932 1.00372 0.96988 0.0
H665 H 0.4445 0.94752 0.98231 0.0
H666 H 0.40982 0.90508 1.00166 0.0
H667 H 0.35856 0.88497 0.01617 0.0
H668 H 0.28307 0.94189 0.00538 0.0
H669 H 0.31748 0.98347 0.98487 0.0
C670 C 0.37786 0.9821 0.97692 0.0
C671 C 0.40918 0.97846 0.97487 0.0
C672 C 0.35788 0.95828 0.98857 0.0
C673 C 0.42033 0.95044 0.98364 0.0
C674 C 0.40059 0.92642 0.99484 0.0
C675 C 0.34952 0.90646 0.00942 0.0
C676 C 0.3182 0.91022 0.0124 0.0
C677 C 0.36937 0.93022 0.99764 0.0
C678 C 0.30706 0.93833 1.00348 0.0
C679 C 0.3267 0.9621 0.99163 0.0
H680 H 0.27151 0.33649 0.25465 0.0
H681 H 0.27479 0.35274 0.35572 0.0
H682 H 0.24423 0.3986 0.35427 0.0
H683 H 0.22108 0.4372 0.32391 0.0
H684 H 0.22251 0.42357 0.22272 0.0
H685 H 0.24651 0.37348 0.22428 0.0
C686 C 0.26533 0.35011 0.27625 0.0
C687 C 0.27525 0.34153 0.30522 0.0
C688 C 0.24867 0.37686 0.27511 0.0
C689 C 0.26707 0.35894 0.33321 0.0
C690 C 0.24979 0.38516 0.33233 0.0
C691 C 0.22602 0.4228 0.30223 0.0
C692 C 0.21996 0.43387 0.27323 0.0
C693 C 0.24097 0.39474 0.30339 0.0
C694 C 0.22698 0.41542 0.24529 0.0
C695 C 0.24081 0.3869 0.24618 0.0
H696 H 0.09148 0.06368 0.51494 0.0
H697 H 0.1389 0.98144 0.48403 0.0
H698 H 0.18819 0.01568 0.49146 0.0
H699 H 0.2174 0.07094 0.50157 0.0
H700 H 0.16753 0.15352 0.52685 0.0
H701 H 0.12008 0.11778 0.52618 0.0
C702 C 0.1128 0.05321 0.5108 0.0
C703 C 0.1116 0.01987 0.50008 0.0
C704 C 0.14071 0.07351 0.51314 0.0
C705 C 0.13918 0.00663 0.49368 0.0
C706 C 0.16738 0.02648 0.49725 0.0
C707 C 0.19617 0.08106 0.507 0.0
C708 C 0.19628 0.11509 0.5139 0.0
C709 C 0.16838 0.06021 0.50614 0.0
C710 C 0.16838 0.12762 0.52094 0.0
C711 C 0.14108 0.10714 0.52083 0.0
H712 H 0.75846 0.23555 0.80356 0.0
H713 H 0.83233 0.18605 0.76488 0.0
H714 H 0.80274 0.13324 0.76818 0.0
H715 H 0.75347 0.1016 0.77695 0.0
H716 H 0.67791 0.15246 0.81057 0.0
H717 H 0.70987 0.20431 0.81303 0.0
C718 C 0.76811 0.21308 0.79631 0.0
C719 C 0.79735 0.21449 0.78396 0.0
C720 C 0.75019 0.18316 0.7963 0.0
C721 C 0.80999 0.18544 0.77487 0.0
C722 C 0.79282 0.15534 0.7762 0.0
C723 C 0.74393 0.12403 0.78459 0.0
C724 C 0.71317 0.12308 0.79323 0.0
C725 C 0.76246 0.15394 0.78585 0.0
C726 C 0.70134 0.15241 0.80343 0.0
C727 C 0.71969 0.18211 0.80513 0.0
H728 H 0.41921 0.99662 0.55994 0.0
H729 H 0.49884 0.06461 0.55253 0.0
H730 H 0.46619 0.1039 0.53547 0.0
H731 H 0.41501 0.11944 0.52454 0.0
H732 H 0.33495 0.05117 0.53082 0.0
H733 H 0.36773 0.01097 0.54547 0.0
C734 C 0.42927 0.01994 0.55425 0.0
C735 C 0.46126 0.02802 0.55778 0.0
C736 C 0.41033 0.04214 0.54404 0.0
C737 C 0.47421 0.05827 0.55051 0.0
C738 C 0.45558 0.08055 0.54056 0.0
C739 C 0.40467 0.09566 0.52881 0.0
C740 C 0.37252 0.08844 0.52676 0.0
C741 C 0.4236 0.07285 0.53752 0.0
C742 C 0.3596 0.0574 0.53219 0.0
C743 C 0.37834 0.03446 0.54076 0.0
H744 H 0.55764 0.44888 0.48495 0.0
H745 H 0.60342 0.5204 0.55672 0.0
H746 H 0.65028 0.49323 0.55295 0.0
H747 H 0.67528 0.44433 0.53475 0.0
H748 H 0.62774 0.37107 0.46476 0.0
H749 H 0.5849 0.40342 0.46207 0.0
C750 C 0.5784 0.4591 0.49868 0.0
C751 C 0.57754 0.48701 0.52042 0.0
C752 C 0.60472 0.44245 0.49727 0.0
C753 C 0.60405 0.49954 0.53911 0.0
C754 C 0.6306 0.48364 0.53732 0.0
C755 C 0.65582 0.43573 0.51849 0.0
C756 C 0.6547 0.405 0.50033 0.0
C757 C 0.63083 0.45435 0.51732 0.0
C758 C 0.62921 0.39437 0.47934 0.0
C759 C 0.60459 0.4129 0.47773 0.0
H760 H 0.70346 0.26194 0.32917 0.0
H761 H 0.71568 0.16716 0.35427 0.0
H762 H 0.73461 0.19169 0.40728 0.0
H763 H 0.74345 0.23971 0.44747 0.0
H764 H 0.72395 0.33338 0.42407 0.0
H765 H 0.71072 0.30962 0.36956 0.0
C766 C 0.70998 0.2467 0.34642 0.0
C767 C 0.70779 0.21282 0.33816 0.0
C768 C 0.71891 0.26075 0.37717 0.0
C769 C 0.71731 0.19331 0.3602 0.0
C770 C 0.72777 0.2073 0.39051 0.0
C771 C 0.7364 0.25492 0.43037 0.0
C772 C 0.73469 0.28824 0.43964 0.0
C773 C 0.72799 0.24091 0.39943 0.0
C774 C 0.72522 0.30764 0.41745 0.0
C775 C 0.71783 0.29411 0.38632 0.0
H776 H 0.52673 0.01874 0.95922 0.0
H777 H 0.47042 0.0458 0.88504 0.0
H778 H 0.51351 0.04484 0.84994 0.0
H779 H 0.56689 0.0345 0.84024 0.0
H780 H 0.62318 0.00724 0.91498 0.0
H781 H 0.58053 0.00955 0.94992 0.0
C782 C 0.52435 0.02497 0.93553 0.0
C783 C 0.49598 0.03279 0.92455 0.0
C784 C 0.549 0.0237 0.91553 0.0
C785 C 0.49245 0.04022 0.89377 0.0
C786 C 0.51691 0.03935 0.87376 0.0
C787 C 0.56972 0.02879 0.86408 0.0
C788 C 0.59812 0.02047 0.87489 0.0
C789 C 0.54521 0.03068 0.88426 0.0
C790 C 0.60154 0.0136 0.90601 0.0
C791 C 0.57721 0.01505 0.92608 0.0
H792 H 0.35067 0.27588 0.36669 0.0
H793 H 0.28965 0.20889 0.30317 0.0
H794 H 0.28071 0.1732 0.3441 0.0
H795 H 0.28204 0.16783 0.40137 0.0
H796 H 0.34239 0.23661 0.46464 0.0
H797 H 0.36014 0.26468 0.42083 0.0
C798 C 0.33686 0.25252 0.36143 0.0
C799 C 0.32105 0.24478 0.33202 0.0
C800 C 0.33098 0.233 0.38551 0.0
C801 C 0.30245 0.21494 0.32554 0.0
C802 C 0.29688 0.19493 0.34918 0.0
C803 C 0.29979 0.18829 0.40524 0.0
C804 C 0.31093 0.20026 0.43609 0.0
C805 C 0.30969 0.20465 0.3798 0.0
C806 C 0.33363 0.22701 0.44102 0.0
C807 C 0.34371 0.24313 0.416 0.0
H808 H 0.50205 0.46607 0.94408 0.0
H809 H 0.49526 0.56717 0.9742 0.0
H810 H 0.45955 0.5692 0.92918 0.0
H811 H 0.43516 0.54304 0.87796 0.0
H812 H 0.44131 0.44097 0.84987 0.0
H813 H 0.4712 0.438 0.89807 0.0
C814 C 0.49215 0.48829 0.94104 0.0
C815 C 0.50145 0.51655 0.96187 0.0
C816 C 0.47139 0.48897 0.91562 0.0
C817 C 0.48865 0.54532 0.95795 0.0
C818 C 0.46821 0.54638 0.93237 0.0
C819 C 0.4422 0.51995 0.88289 0.0
C820 C 0.43638 0.49238 0.86012 0.0
C821 C 0.46 0.51849 0.91056 0.0
C822 C 0.44579 0.46265 0.86683 0.0
C823 C 0.46308 0.46093 0.8943 0.0
H824 H 0.70952 0.79657 0.15442 0.0
H825 H 0.75861 0.75168 0.22256 0.0
H826 H 0.78068 0.71752 0.18046 0.0
H827 H 0.78382 0.69874 0.1245 0.0
H828 H 0.73453 0.74308 0.05553 0.0
H829 H 0.7143 0.77888 0.09749 0.0
C830 C 0.72558 0.77973 0.15972 0.0
C831 C 0.73297 0.77668 0.1912 0.0
C832 C 0.73752 0.75972 0.13533 0.0
C833 C 0.75316 0.75445 0.1983 0.0
C834 C 0.76547 0.73483 0.17431 0.0
C835 C 0.76852 0.7161 0.11858 0.0
C836 C 0.76042 0.71792 0.0869 0.0
C837 C 0.75736 0.73685 0.14276 0.0
C838 C 0.74091 0.74091 0.07971 0.0
C839 C 0.72946 0.76153 0.1037 0.0
H840 H 1.00752 0.9946 0.09284 0.0
H841 H 0.92315 0.96828 0.0371 0.0
H842 H 0.89361 0.97738 0.08448 0.0
H843 H 0.89243 0.99581 0.1419 0.0
H844 H 0.97808 0.01797 0.1968 0.0
H845 H 1.00662 0.00711 0.14975 0.0
C846 C 0.98269 0.98991 0.09127 0.0
C847 C 0.96742 0.98074 0.06175 0.0
C848 C 0.96618 0.99483 0.11841 0.0
C849 C 0.93524 0.97548 0.05973 0.0
C850 C 0.91845 0.98076 0.08673 0.0
C851 C 0.91731 0.99818 0.14339 0.0
C852 C 0.93318 0.00802 0.17263 0.0
C853 C 0.93371 0.99108 0.11619 0.0
C854 C 0.96539 0.0105 0.1745 0.0
C855 C 0.98175 1.00429 0.14764 0.0
H856 H 0.28318 0.81636 0.22675 0.0
H857 H 0.35641 0.77534 0.17743 0.0
H858 H 0.34146 0.79852 0.13006 0.0
H859 H 0.30355 0.8246 0.10129 0.0
H860 H 0.22998 0.86566 0.15055 0.0
H861 H 0.2492 0.84895 0.19958 0.0
C862 C 0.29622 0.81338 0.20578 0.0
C863 C 0.32077 0.79432 0.20527 0.0
C864 C 0.28715 0.82639 0.17866 0.0
C865 C 0.33762 0.79024 0.17818 0.0
C866 C 0.32886 0.80319 0.15112 0.0
C867 C 0.29186 0.83012 0.12276 0.0
C868 C 0.26501 0.84575 0.12213 0.0
C869 C 0.30302 0.82036 0.1508 0.0
C870 C 0.25063 0.85354 0.15039 0.0
C871 C 0.26152 0.84384 0.1784 0.0
H872 H 0.01979 0.49625 0.15778 0.0
H873 H 0.07406 0.48774 0.07629 0.0
H874 H 0.12125 0.49437 0.11022 0.0
H875 H 0.14695 0.50706 0.16332 0.0
H876 H 0.09159 0.51704 0.24455 0.0
H877 H 0.04507 0.50602 0.2106 0.0
C878 C 0.04202 0.49562 0.1476 0.0
C879 C 0.04367 0.49184 0.11473 0.0
C880 C 0.06883 0.50031 0.16723 0.0
C881 C 0.07239 0.49049 0.10158 0.0
C882 C 0.09929 0.49463 0.12098 0.0
C883 C 0.12474 0.50681 0.17363 0.0
C884 C 0.12298 0.51324 0.20658 0.0
C885 C 0.09783 0.50037 0.15388 0.0
C886 C 0.09385 0.51241 0.21938 0.0
C887 C 0.06712 0.50602 0.19996 0.0
H888 H 0.33872 0.73962 0.32635 0.0
H889 H 0.4056 0.73789 0.25533 0.0
H890 H 0.44525 0.7291 0.29394 0.0
H891 H 0.46144 0.72427 0.34859 0.0
H892 H 0.39386 0.72297 0.41923 0.0
H893 H 0.35404 0.73009 0.38025 0.0
C894 C 0.36188 0.73681 0.31935 0.0
C895 C 0.36942 0.74005 0.28822 0.0
C896 C 0.38449 0.73135 0.34169 0.0
C897 C 0.3995 0.73632 0.27936 0.0
C898 C 0.42212 0.73116 0.3014 0.0
C899 C 0.43799 0.72547 0.35546 0.0
C900 C 0.43083 0.72337 0.38695 0.0
C901 C 0.41503 0.72918 0.33279 0.0
C902 C 0.40015 0.72452 0.39523 0.0
C903 C 0.37731 0.72867 0.37294 0.0
H904 H 0.02282 0.45111 0.01332 0.0
H905 H 1.00885 0.4234 0.10542 0.0
H906 H 0.01265 0.36633 0.08522 0.0
H907 H 0.01374 0.32395 0.03996 0.0
H908 H 0.02763 0.35177 0.94748 0.0
H909 H 0.02991 0.40918 0.96898 0.0
C910 C 0.02151 0.43252 0.02896 0.0
C911 C 0.01566 0.4411 0.06071 0.0
C912 C 0.02295 0.39984 0.01692 0.0
C913 C 0.01375 0.41716 0.08099 0.0
C914 C 0.01548 0.38458 0.06932 0.0
C915 C 0.01741 0.34259 0.02452 0.0
C916 C 0.01996 0.33357 0.99205 0.0
C917 C 0.019 0.37553 0.0371 0.0
C918 C 0.02537 0.35803 0.97249 0.0
C919 C 0.02669 0.39086 0.98478 0.0
H920 H 0.63399 0.8185 0.27677 0.0
H921 H 0.7046 0.75897 0.29699 0.0
H922 H 0.67797 0.74323 0.3429 0.0
H923 H 0.63419 0.74533 0.37612 0.0
H924 H 0.56215 0.80366 0.35597 0.0
H925 H 0.58977 0.82135 0.31134 0.0
C926 C 0.6433 0.80215 0.29144 0.0
C927 C 0.67085 0.78952 0.28372 0.0
C928 C 0.62773 0.79317 0.31767 0.0
C929 C 0.68316 0.76848 0.3026 0.0
C930 C 0.66804 0.75966 0.32878 0.0
C931 C 0.62453 0.76209 0.36215 0.0
C932 C 0.59613 0.77312 0.36937 0.0
C933 C 0.64023 0.77169 0.3364 0.0
C934 C 0.58399 0.79479 0.35091 0.0
C935 C 0.59973 0.80485 0.32535 0.0
H936 H 0.02092 0.07059 0.03247 0.0
H937 H 0.03308 0.01322 0.94446 0.0
H938 H 0.03979 0.06288 0.91853 0.0
H939 H 0.03619 0.12223 0.92036 0.0
H940 H 0.01763 0.17735 0.00833 0.0
H941 H 0.01817 0.12899 0.03465 0.0
C942 C 0.02562 0.06923 0.00772 0.0
C943 C 0.02637 0.03861 0.9902 0.0
C944 C 0.02717 0.09737 0.99286 0.0
C945 C 0.03261 0.03671 0.95826 0.0
C946 C 0.0359 0.065 0.94346 0.0
C947 C 0.03214 0.12357 0.94525 0.0
C948 C 0.02653 0.15338 0.96223 0.0
C949 C 0.03207 0.09537 0.96032 0.0
C950 C 0.02154 0.15473 0.99453 0.0
C951 C 0.02215 0.12713 0.00973 0.0
H952 H 0.33767 0.27992 0.23479 0.0
H953 H 0.38711 0.26712 0.31983 0.0
H954 H 0.43291 0.2576 0.28989 0.0
H955 H 0.46017 0.25832 0.23951 0.0
H956 H 0.41097 0.28065 0.15741 0.0
H957 H 0.36431 0.28245 0.18624 0.0
C958 C 0.35848 0.27481 0.2467 0.0
C959 C 0.35905 0.27426 0.27941 0.0
C960 C 0.38507 0.2721 0.22988 0.0
C961 C 0.38594 0.26724 0.29462 0.0
C962 C 0.41225 0.26239 0.27753 0.0
C963 C 0.43923 0.26374 0.22809 0.0
C964 C 0.4392 0.26963 0.19635 0.0
C965 C 0.41237 0.26573 0.24523 0.0
C966 C 0.41187 0.27656 0.18186 0.0
C967 C 0.38503 0.27727 0.19824 0.0
H968 H 0.53481 0.47863 0.07564 0.0
H969 H 0.59592 0.45545 1.00204 0.0
H970 H 0.59934 0.40194 0.01902 0.0
H971 H 0.57721 0.35859 0.04805 0.0
H972 H 0.51144 0.37978 0.11816 0.0
H973 H 0.51695 0.43676 0.10896 0.0
C974 C 0.54936 0.462 0.06386 0.0
C975 C 0.56474 0.47068 0.03735 0.0
C976 C 0.54951 0.43052 0.0725 0.0
C977 C 0.58405 0.44936 0.0226 0.0
C978 C 0.58551 0.41855 0.03196 0.0
C979 C 0.56433 0.37566 0.06172 0.0
C980 C 0.54349 0.36454 0.08345 0.0
C981 C 0.56708 0.40828 0.0558 0.0
C982 C 0.52737 0.38736 0.10106 0.0
C983 C 0.53053 0.42004 0.09581 0.0
H984 H 0.67529 0.22287 0.2179 0.0
H985 H 0.60086 0.17303 0.26174 0.0
H986 H 0.56365 0.19007 0.22468 0.0
H987 H 0.55274 0.21939 0.1797 0.0
H988 H 0.62795 0.2668 0.13425 0.0
H989 H 0.66458 0.25085 0.17207 0.0
C990 C 0.6509 0.21554 0.21887 0.0
C991 C 0.64051 0.19676 0.2421 0.0
C992 C 0.62995 0.22533 0.19751 0.0
C993 C 0.60903 0.18745 0.24377 0.0
C994 C 0.58791 0.1973 0.22275 0.0
C995 C 0.57713 0.22652 0.17838 0.0
C996 C 0.58768 0.24451 0.15449 0.0
C997 C 0.59811 0.21644 0.19964 0.0
C998 C 0.61935 0.25305 0.15255 0.0
C999 C 0.64028 0.24385 0.17406 0.0
H1000 H 0.49166 0.06465 0.02549 0.0
H1001 H 0.47203 0.10133 0.93858 0.0
H1002 H 0.48708 0.15731 0.96368 0.0
H1003 H 0.49623 0.19569 0.01299 0.0
H1004 H 0.50863 0.15764 0.10095 0.0
H1005 H 0.50602 0.10251 0.07331 0.0
C1006 C 0.49139 0.085 0.01205 0.0
C1007 C 0.48039 0.07928 0.98055 0.0
C1008 C 0.49821 0.11688 0.02714 0.0
C1009 C 0.48045 0.10544 0.96292 0.0
C1010 C 0.48867 0.13736 0.9774 0.0
C1011 C 0.49914 0.17533 0.02587 0.0
C1012 C 0.50245 0.1805 0.05888 0.0
C1013 C 0.49614 0.14345 0.00988 0.0
C1014 C 0.50584 0.15406 0.07552 0.0
C1015 C 0.50432 0.12257 0.05974 0.0
H1016 H 0.22993 0.39606 0.71984 0.0
H1017 H 0.27353 0.30905 0.72446 0.0
H1018 H 0.32409 0.34105 0.73021 0.0
H1019 H 0.35529 0.39442 0.73887 0.0
H1020 H 0.31066 0.48186 0.73874 0.0
H1021 H 0.26112 0.44929 0.72711 0.0
C1022 C 0.25061 0.38427 0.72198 0.0
C1023 C 0.2482 0.35041 0.72172 0.0
C1024 C 0.27932 0.40298 0.72668 0.0
C1025 C 0.27499 0.33508 0.72409 0.0
C1026 C 0.3038 0.35342 0.72778 0.0
C1027 C 0.33477 0.40637 0.73609 0.0
C1028 C 0.33677 0.4406 0.7399 0.0
C1029 C 0.30618 0.38749 0.72987 0.0
C1030 C 0.30986 0.45561 0.73625 0.0
C1031 C 0.28148 0.437 0.72948 0.0
H1032 H 0.26724 0.69575 0.80616 0.0
H1033 H 0.20621 0.6071 0.7995 0.0
H1034 H 0.25002 0.57523 0.79977 0.0
H1035 H 0.3056 0.5725 0.79786 0.0
H1036 H 0.36696 0.66136 0.80345 0.0
H1037 H 0.32341 0.69322 0.80802 0.0
C1038 C 0.26379 0.66952 0.80536 0.0
C1039 C 0.2338 0.65358 0.80269 0.0
C1040 C 0.28913 0.65143 0.8051 0.0
C1041 C 0.22926 0.61962 0.80135 0.0
C1042 C 0.25425 0.60149 0.80148 0.0
C1043 C 0.30952 0.59884 0.80041 0.0
C1044 C 0.33958 0.61441 0.80005 0.0
C1045 C 0.28431 0.61708 0.80268 0.0
C1046 C 0.34411 0.64863 0.80346 0.0
C1047 C 0.31919 0.66694 0.80605 0.0
H1048 H 0.889 0.49094 0.47449 0.0
H1049 H 0.95958 0.43909 0.50995 0.0
H1050 H 0.92066 0.39746 0.52437 0.0
H1051 H 0.86671 0.37669 0.52763 0.0
H1052 H 0.79551 0.43038 0.4955 0.0
H1053 H 0.8344 0.47099 0.47963 0.0
C1054 C 0.8956 0.47041 0.48535 0.0
C1055 C 0.92684 0.46756 0.49092 0.0
C1056 C 0.87307 0.4473 0.49443 0.0
C1057 C 0.93553 0.4412 0.50514 0.0
C1058 C 0.91335 0.41767 0.51351 0.0
C1059 C 0.85965 0.39725 0.51713 0.0
C1060 C 0.82824 0.40041 0.51262 0.0
C1061 C 0.88206 0.42057 0.50838 0.0
C1062 C 0.81952 0.42744 0.49934 0.0
C1063 C 0.84174 0.45057 0.49012 0.0
H1064 H 0.76102 0.85765 0.83219 0.0
H1065 H 0.78692 0.84315 0.73608 0.0
H1066 H 0.75896 0.88807 0.72373 0.0
H1067 H 0.73022 0.93374 0.74134 0.0
H1068 H 0.70095 0.94634 0.83653 0.0
H1069 H 0.72605 0.89912 0.84803 0.0
C1070 C 0.7599 0.86403 0.80847 0.0
C1071 C 0.77618 0.84756 0.78509 0.0
C1072 C 0.74306 0.88932 0.80141 0.0
C1073 C 0.77492 0.85602 0.75446 0.0
C1074 C 0.75882 0.8815 0.74739 0.0
C1075 C 0.72891 0.92579 0.76445 0.0
C1076 C 0.71403 0.94358 0.78812 0.0
C1077 C 0.74328 0.89868 0.77082 0.0
C1078 C 0.71218 0.9329 0.81787 0.0
C1079 C 0.72677 0.9061 0.82454 0.0
H1080 H 0.62005 0.51448 0.96943 0.0
H1081 H 0.59541 0.54867 0.06279 0.0
H1082 H 0.64405 0.58423 0.0716 0.0
H1083 H 0.6891 0.61235 0.04904 0.0
H1084 H 0.71293 0.57939 0.95488 0.0
H1085 H 0.66924 0.53676 0.9497 0.0
C1086 C 0.62597 0.52896 0.99202 0.0
C1087 C 0.60428 0.5292 0.01546 0.0
C1088 C 0.65348 0.55012 0.99634 0.0
C1089 C 0.61195 0.54798 0.04463 0.0
C1090 C 0.63952 0.56864 0.04941 0.0
C1091 C 0.68508 0.59522 0.02773 0.0
C1092 C 0.70408 0.59881 1.00235 0.0
C1093 C 0.65979 0.57099 0.02493 0.0
C1094 C 0.69867 0.57682 0.97473 0.0
C1095 C 0.67364 0.55258 0.97176 0.0
H1096 H 0.26503 0.72711 0.28682 0.0
H1097 H 0.34086 0.6765 0.25514 0.0
H1098 H 0.312 0.62428 0.26222 0.0
H1099 H 0.26332 0.59305 0.27324 0.0
H1100 H 0.1867 0.6444 0.30262 0.0
H1101 H 0.21723 0.69629 0.29962 0.0
C1102 C 0.27527 0.70457 0.28206 0.0
C1103 C 0.30488 0.70538 0.27059 0.0
C1104 C 0.25804 0.67484 0.28483 0.0
C1105 C 0.31822 0.6763 0.26441 0.0
C1106 C 0.30152 0.64652 0.26796 0.0
C1107 C 0.25324 0.61559 0.27875 0.0
C1108 C 0.22262 0.61481 0.28778 0.0
C1109 C 0.27106 0.64545 0.27729 0.0
C1110 C 0.21008 0.64426 0.29534 0.0
C1111 C 0.22759 0.67398 0.29385 0.0
H1112 H 0.95237 0.5333 0.02477 0.0
H1113 H 0.93686 0.52746 0.12248 0.0
H1114 H 0.89185 0.55709 0.11903 0.0
H1115 H 0.8576 0.58527 0.08845 0.0
H1116 H 0.87257 0.59124 0.99033 0.0
H1117 H 0.91671 0.56036 0.99342 0.0
C1118 C 0.93893 0.53851 0.04514 0.0
C1119 C 0.94788 0.52865 0.07392 0.0
C1120 C 0.91297 0.5553 0.04282 0.0
C1121 C 0.93053 0.53541 0.1003 0.0
C1122 C 0.90476 0.55209 0.09824 0.0
C1123 C 0.87034 0.57967 0.06763 0.0
C1124 C 0.86177 0.59066 0.03922 0.0
C1125 C 0.89584 0.56226 0.06966 0.0
C1126 C 0.87862 0.58311 0.01252 0.0
C1127 C 0.90395 0.56554 0.01429 0.0
H1128 H 0.05553 0.93937 0.97677 0.0
H1129 H 0.07588 0.02696 0.04136 0.0
H1130 H 0.12874 0.01443 0.04984 0.0
H1131 H 0.16625 0.97407 0.04483 0.0
H1132 H 0.14463 0.88529 0.98108 0.0
H1133 H 0.09548 0.90265 0.96614 0.0
C1134 C 0.07204 0.95617 0.99174 0.0
C1135 C 0.06218 0.98413 0.00822 0.0
C1136 C 0.10192 0.94813 0.9972 0.0
C1137 C 0.08332 1.00562 0.02807 0.0
C1138 C 0.11333 0.99815 0.03324 0.0
C1139 C 0.15104 0.95874 0.02728 0.0
C1140 C 0.15907 0.92811 0.01455 0.0
C1141 C 0.1225 0.96878 0.0189 0.0
C1142 C 0.13907 0.9088 0.99159 0.0
C1143 C 0.11085 0.9187 0.98299 0.0
loop_
_geom_bond_atom_site_label_1
_geom_bond_atom_site_label_2
_geom_bond_distance
_geom_bond_site_symmetry_2
_ccdc_geom_bond_type
C0 N1 1.317 . S
C0 N2 1.348 1_465 S
C0 C3 1.485 . S
N1 C0 1.317 . S
N1 N5 1.370 1_565 S
N2 C0 1.348 1_645 S
N2 C4 1.346 . S
C3 C0 1.485 . S
C3 H7 0.960 . S
C3 H8 0.961 . S
C3 H9 0.960 . S
C4 N2 1.346 . S
C4 N5 1.307 1_655 S
C4 C6 1.486 . S
N5 N1 1.370 1_545 S
N5 C4 1.307 1_455 S
C6 C4 1.486 . S
C6 H10 0.960 . S
C6 H11 0.960 . S
C6 H12 0.959 . S
H7 C3 0.960 . S
H8 C3 0.961 . S
H9 C3 0.960 . S
H10 C6 0.960 . S
H11 C6 0.960 . S
H12 C6 0.959 . S
C13 N14 1.317 . S
C13 N15 1.348 . S
C13 C16 1.485 . S
N14 C13 1.317 . S
N14 N18 1.370 . S
N15 C13 1.348 . S
N15 C17 1.346 . S
C16 C13 1.485 . S
C16 H20 0.960 . S
C16 H21 0.961 . S
C16 H22 0.960 . S
C17 N15 1.346 . S
C17 N18 1.307 . S
C17 C19 1.486 . S
N18 N14 1.370 . S
N18 C17 1.307 . S
C19 C17 1.486 . S
C19 H23 0.960 . S
C19 H24 0.960 . S
C19 H25 0.959 . S
H20 C16 0.960 . S
H21 C16 0.961 . S
H22 C16 0.960 . S
H23 C19 0.960 . S
H24 C19 0.960 . S
H25 C19 0.959 . S
C26 N27 1.317 . S
C26 N28 1.348 . S
C26 C29 1.485 . S
N27 C26 1.317 . S
N27 N31 1.370 . S
N28 C26 1.348 . S
N28 C30 1.346 . S
C29 C26 1.485 . S
C29 H33 0.960 . S
C29 H34 0.961 . S
C29 H35 0.960 1_655 S
C30 N28 1.346 . S
C30 N31 1.307 . S
C30 C32 1.486 . S
N31 N27 1.370 . S
N31 C30 1.307 . S
C32 C30 1.486 . S
C32 H36 0.969 . S
C32 H37 0.960 . S
C32 H38 0.959 . S
H33 C29 0.960 . S
H34 C29 0.961 . S
H35 C29 0.960 1_455 S
H36 C32 0.969 . S
H37 C32 0.960 . S
H38 C32 0.959 . S
C39 N40 1.317 . S
C39 N41 1.348 . S
C39 C42 1.485 . S
N40 C39 1.317 . S
N40 N44 1.370 . S
N41 C39 1.348 . S
N41 C43 1.346 . S
C42 C39 1.485 . S
C42 H46 0.960 . S
C42 H47 0.961 . S
C42 H48 0.960 . S
C43 N41 1.346 . S
C43 N44 1.307 . S
C43 C45 1.486 . S
N44 N40 1.370 . S
N44 C43 1.307 . S
C45 C43 1.486 . S
C45 H49 0.960 . S
C45 H50 0.960 . S
C45 H51 0.959 . S
H46 C42 0.960 . S
H47 C42 0.961 . S
H48 C42 0.960 . S
H49 C45 0.960 . S
H50 C45 0.960 . S
H51 C45 0.959 . S
C52 N53 1.317 . S
C52 N54 1.348 . S
C52 C55 1.485 . S
N53 C52 1.317 . S
N53 N57 1.370 . S
N54 C52 1.348 . S
N54 C56 1.346 1_565 S
C55 C52 1.485 . S
C55 H59 0.960 . S
C55 H60 0.961 1_455 S
C55 H61 0.960 . S
C56 N54 1.346 1_545 S
C56 N57 1.307 1_545 S
C56 C58 1.486 . S
N57 N53 1.370 . S
N57 C56 1.307 1_565 S
C58 C56 1.486 . S
C58 H62 0.960 . S
C58 H63 0.960 . S
C58 H64 0.959 . S
H59 C55 0.960 . S
H60 C55 0.961 1_655 S
H61 C55 0.960 . S
H62 C58 0.960 . S
H63 C58 0.960 . S
H64 C58 0.959 . S
C65 N66 1.317 . S
C65 N67 1.348 . S
C65 C68 1.485 . S
N66 C65 1.317 . S
N66 N70 1.370 . S
N67 C65 1.348 . S
N67 C69 1.346 . S
C68 C65 1.485 . S
C68 H72 0.960 . S
C68 H73 0.961 . S
C68 H74 0.960 . S
C69 N67 1.346 . S
C69 N70 1.307 . S
C69 C71 1.486 . S
N70 N66 1.370 . S
N70 C69 1.307 . S
C71 C69 1.486 . S
C71 H75 0.960 . S
C71 H76 0.960 . S
C71 H77 0.959 . S
H72 C68 0.960 . S
H73 C68 0.961 . S
H74 C68 0.960 . S
H75 C71 0.960 . S
H76 C71 0.960 . S
H77 C71 0.959 . S
C78 N79 1.317 . S
C78 N80 1.348 . S
C78 C81 1.485 . S
N79 C78 1.317 . S
N79 N83 1.370 . S
N80 C78 1.348 . S
N80 C82 1.346 . S
C81 C78 1.485 . S
C81 H85 0.960 . S
C81 H86 0.961 . S
C81 H87 0.960 . S
C82 N80 1.346 . S
C82 N83 1.307 . S
C82 C84 1.486 . S
N83 N79 1.370 . S
N83 C82 1.307 . S
C84 C82 1.486 . S
C84 H88 0.960 . S
C84 H89 0.960 . S
C84 H90 0.959 . S
H85 C81 0.960 . S
H86 C81 0.961 . S
H87 C81 0.960 . S
H88 C84 0.960 . S
H89 C84 0.960 . S
H90 C84 0.959 . S
C91 N92 1.317 . S
C91 N93 1.348 . S
C91 C94 1.485 . S
N92 C91 1.317 . S
N92 N96 1.370 . S
N93 C91 1.348 . S
N93 C95 1.346 . S
C94 C91 1.485 . S
C94 H98 0.960 . S
C94 H99 0.961 . S
C94 H100 0.960 . S
C95 N93 1.346 . S
C95 N96 1.307 . S
C95 C97 1.486 . S
N96 N92 1.370 . S
N96 C95 1.307 . S
C97 C95 1.486 . S
C97 H101 0.960 . S
C97 H102 0.960 . S
C97 H103 0.959 . S
H98 C94 0.960 . S
H99 C94 0.961 . S
H100 C94 0.960 . S
H101 C97 0.960 . S
H102 C97 0.960 . S
H103 C97 0.959 . S
C104 N105 1.317 . S
C104 N106 1.348 . S
C104 C107 1.485 . S
N105 C104 1.317 . S
N105 N109 1.370 . S
N106 C104 1.348 . S
N106 C108 1.346 . S
C107 C104 1.485 . S
C107 H111 0.960 . S
C107 H112 0.961 . S
C107 H113 0.960 . S
C108 N106 1.346 . S
C108 N109 1.307 . S
C108 C110 1.486 . S
N109 N105 1.370 . S
N109 C108 1.307 . S
C110 C108 1.486 . S
C110 H114 0.960 . S
C110 H115 0.960 . S
C110 H116 0.959 . S
H111 C107 0.960 . S
H112 C107 0.961 . S
H113 C107 0.960 . S
H114 C110 0.960 . S
H115 C110 0.960 . S
H116 C110 0.959 . S
C117 N118 1.317 . S
C117 N119 1.348 . S
C117 C120 1.485 1_565 S
N118 C117 1.317 . S
N118 N122 1.370 . S
N119 C117 1.348 . S
N119 C121 1.346 . S
C120 C117 1.485 1_545 S
C120 H124 0.960 . S
C120 H125 0.961 . S
C120 H126 0.960 . S
C121 N119 1.346 . S
C121 N122 1.307 . S
C121 C123 1.486 . S
N122 N118 1.370 . S
N122 C121 1.307 . S
C123 C121 1.486 . S
C123 H127 0.960 . S
C123 H128 0.960 . S
C123 H129 0.959 . S
H124 C120 0.960 . S
H125 C120 0.961 . S
H126 C120 0.960 . S
H127 C123 0.960 . S
H128 C123 0.960 . S
H129 C123 0.959 . S
C130 N131 1.317 . S
C130 N132 1.348 . S
C130 C133 1.485 . S
N131 C130 1.317 . S
N131 N135 1.370 . S
N132 C130 1.348 . S
N132 C134 1.346 . S
C133 C130 1.485 . S
C133 H137 0.960 . S
C133 H138 0.961 . S
C133 H139 0.960 . S
C134 N132 1.346 . S
C134 N135 1.307 . S
C134 C136 1.486 . S
N135 N131 1.370 . S
N135 C134 1.307 . S
C136 C134 1.486 . S
C136 H140 0.960 . S
C136 H141 0.960 . S
C136 H142 0.959 . S
H137 C133 0.960 . S
H138 C133 0.961 . S
H139 C133 0.960 . S
H140 C136 0.960 . S
H141 C136 0.960 . S
H142 C136 0.959 . S
C143 N144 1.317 . S
C143 N145 1.348 . S
C143 C146 1.485 . S
N144 C143 1.317 . S
N144 N148 1.370 . S
N145 C143 1.348 . S
N145 C147 1.346 . S
C146 C143 1.485 . S
C146 H150 0.960 . S
C146 H151 0.961 . S
C146 H152 0.960 . S
C147 N145 1.346 . S
C147 N148 1.307 . S
C147 C149 1.486 . S
N148 N144 1.370 . S
N148 C147 1.307 . S
C149 C147 1.486 . S
C149 H153 0.960 . S
C149 H154 0.960 . S
C149 H155 0.959 . S
H150 C146 0.960 . S
H151 C146 0.961 . S
H152 C146 0.960 . S
H153 C149 0.960 . S
H154 C149 0.960 . S
H155 C149 0.959 . S
C156 N157 1.317 . S
C156 N158 1.348 . S
C156 C159 1.485 . S
N157 C156 1.317 . S
N157 N161 1.370 . S
N158 C156 1.348 . S
N158 C160 1.346 . S
C159 C156 1.485 . S
C159 H163 0.960 . S
C159 H164 0.961 . S
C159 H165 0.960 . S
C160 N158 1.346 . S
C160 N161 1.307 . S
C160 C162 1.486 . S
N161 N157 1.370 . S
N161 C160 1.307 . S
C162 C160 1.486 . S
C162 H166 0.960 . S
C162 H167 0.960 . S
C162 H168 0.959 . S
H163 C159 0.960 . S
H164 C159 0.961 . S
H165 C159 0.960 . S
H166 C162 0.960 . S
H167 C162 0.960 . S
H168 C162 0.959 . S
C169 N170 1.317 . S
C169 N171 1.348 . S
C169 C172 1.485 . S
N170 C169 1.317 . S
N170 N174 1.370 . S
N171 C169 1.348 . S
N171 C173 1.346 . S
C172 C169 1.485 . S
C172 H176 0.960 . S
C172 H177 0.961 . S
C172 H178 0.960 . S
C173 N171 1.346 . S
C173 N174 1.307 . S
C173 C175 1.486 . S
N174 N170 1.370 . S
N174 C173 1.307 . S
C175 C173 1.486 . S
C175 H179 0.960 . S
C175 H180 0.960 . S
C175 H181 0.959 . S
H176 C172 0.960 . S
H177 C172 0.961 . S
H178 C172 0.960 . S
H179 C175 0.960 . S
H180 C175 0.960 . S
H181 C175 0.959 . S
C182 N183 1.317 . S
C182 N184 1.348 . S
C182 C185 1.485 . S
N183 C182 1.317 . S
N183 N187 1.370 . S
N184 C182 1.348 . S
N184 C186 1.346 . S
C185 C182 1.485 . S
C185 H189 0.960 . S
C185 H190 0.961 . S
C185 H191 0.960 . S
C186 N184 1.346 . S
C186 N187 1.307 . S
C186 C188 1.486 . S
N187 N183 1.370 . S
N187 C186 1.307 . S
C188 C186 1.486 . S
C188 H192 0.960 . S
C188 H193 0.960 . S
C188 H194 0.959 . S
H189 C185 0.960 . S
H190 C185 0.961 . S
H191 C185 0.960 . S
H192 C188 0.960 . S
H193 C188 0.960 . S
H194 C188 0.959 . S
C195 N196 1.317 . S
C195 N197 1.348 . S
C195 C198 1.485 1_545 S
N196 C195 1.317 . S
N196 N200 1.370 . S
N197 C195 1.348 . S
N197 C199 1.345 1_556 S
C198 C195 1.485 1_565 S
C198 H202 0.960 . S
C198 H203 0.961 . S
C198 H204 0.960 . S
C199 N197 1.345 1_554 S
C199 N200 1.306 1_554 S
C199 C201 1.489 . S
N200 N196 1.370 . S
N200 C199 1.306 1_556 S
C201 C199 1.489 . S
C201 H205 0.960 . S
C201 H206 0.960 . S
C201 H207 0.959 . S
H202 C198 0.960 . S
H203 C198 0.961 . S
H204 C198 0.960 . S
H205 C201 0.960 . S
H206 C201 0.960 . S
H207 C201 0.959 . S
Mg208 O209 2.028 . S
Mg208 O215 1.986 1_554 S
Mg208 O217 2.114 . S
Mg208 O218 2.251 . S
Mg208 O221 2.010 . S
O209 Mg208 2.028 . S
O209 C212 1.250 . S
O210 Mg211 2.028 1_554 S
O210 C212 1.248 . S
Mg211 O210 2.028 1_556 S
Mg211 O216 2.032 . S
Mg211 O218 2.079 1_556 S
C212 O209 1.250 . S
C212 O210 1.248 . S
C213 O214 1.264 . S
C213 O221 1.249 . S
O214 C213 1.264 . S
O215 Mg208 1.986 1_556 S
O215 C219 1.246 . S
O216 Mg211 2.032 . S
O216 C219 1.259 . S
O217 Mg208 2.114 . S
O217 C220 1.252 . S
O218 Mg208 2.251 . S
O218 Mg211 2.079 1_554 S
O218 C220 1.273 . S
C219 O215 1.246 . S
C219 O216 1.259 . S
C220 O217 1.252 . S
C220 O218 1.273 . S
O221 Mg208 2.010 . S
O221 C213 1.249 . S
Mg222 O223 2.028 . S
Mg222 O229 1.986 . S
Mg222 O231 2.114 . S
Mg222 O232 2.251 . S
Mg222 O235 2.010 . S
O223 Mg222 2.028 . S
O223 C226 1.250 . S
O224 Mg225 2.028 . S
O224 C226 1.248 . S
Mg225 O224 2.028 . S
Mg225 O230 2.032 . S
Mg225 O232 2.079 . S
C226 O223 1.250 . S
C226 O224 1.248 . S
C227 O228 1.264 . S
C227 O235 1.249 . S
O228 C227 1.264 . S
O229 Mg222 1.986 . S
O229 C233 1.246 . S
O230 Mg225 2.032 . S
O230 C233 1.259 . S
O231 Mg222 2.114 . S
O231 C234 1.252 . S
O232 Mg222 2.251 . S
O232 Mg225 2.079 . S
O232 C234 1.273 . S
C233 O229 1.246 . S
C233 O230 1.259 . S
C234 O231 1.252 . S
C234 O232 1.273 . S
O235 Mg222 2.010 . S
O235 C227 1.249 . S
Mg236 O237 2.028 . S
Mg236 O243 1.986 1_554 S
Mg236 O245 2.114 . S
Mg236 O246 2.251 . S
Mg236 O249 2.010 . S
O237 Mg236 2.028 . S
O237 C240 1.250 . S
O238 Mg239 2.027 . S
O238 C240 1.252 . S
Mg239 O238 2.027 . S
Mg239 O244 2.032 1_554 S
Mg239 O246 2.079 . S
C240 O237 1.250 . S
C240 O238 1.252 . S
C241 O242 1.264 . S
C241 O249 1.249 . S
O242 C241 1.264 . S
O243 Mg236 1.986 1_556 S
O243 C247 1.246 . S
O244 Mg239 2.032 1_556 S
O244 C247 1.259 . S
O245 Mg236 2.114 . S
O245 C248 1.252 . S
O246 Mg236 2.251 . S
O246 Mg239 2.079 . S
O246 C248 1.273 . S
C247 O243 1.246 . S
C247 O244 1.259 . S
C248 O245 1.252 . S
C248 O246 1.273 . S
O249 Mg236 2.010 . S
O249 C241 1.249 . S
Mg250 O251 2.028 1_545 S
Mg250 O257 1.986 . S
Mg250 O259 2.114 . S
Mg250 O260 2.251 1_545 S
Mg250 O263 2.010 . S
O251 Mg250 2.028 1_565 S
O251 C254 1.250 . S
O252 Mg253 2.028 . S
O252 C254 1.248 . S
Mg253 O252 2.028 . S
Mg253 O258 2.032 . S
Mg253 O260 2.079 . S
C254 O251 1.250 . S
C254 O252 1.248 . S
C255 O256 1.264 . S
C255 O263 1.249 . S
O256 C255 1.264 . S
O257 Mg250 1.986 . S
O257 C261 1.246 . S
O258 Mg253 2.032 . S
O258 C261 1.259 1_565 S
O259 Mg250 2.114 . S
O259 C262 1.252 . S
O260 Mg250 2.251 1_565 S
O260 Mg253 2.079 . S
O260 C262 1.273 1_565 S
C261 O257 1.246 . S
C261 O258 1.259 1_545 S
C262 O259 1.252 . S
C262 O260 1.273 1_545 S
O263 Mg250 2.010 . S
O263 C255 1.249 . S
Mg264 O265 2.028 . S
Mg264 O271 1.986 . S
Mg264 O273 2.114 . S
Mg264 O274 2.251 . S
Mg264 O277 2.010 . S
O265 Mg264 2.028 . S
O265 C268 1.250 . S
O266 Mg267 2.028 . S
O266 C268 1.248 . S
Mg267 O266 2.028 . S
Mg267 O272 2.032 . S
Mg267 O274 2.079 . S
C268 O265 1.250 . S
C268 O266 1.248 . S
C269 O270 1.264 . S
C269 O277 1.249 . S
O270 C269 1.264 . S
O271 Mg264 1.986 . S
O271 C275 1.246 . S
O272 Mg267 2.032 . S
O272 C275 1.259 . S
O273 Mg264 2.114 . S
O273 C276 1.252 . S
O274 Mg264 2.251 . S
O274 Mg267 2.079 . S
O274 C276 1.273 . S
C275 O271 1.246 . S
C275 O272 1.259 . S
C276 O273 1.252 . S
C276 O274 1.273 . S
O277 Mg264 2.010 . S
O277 C269 1.249 . S
Mg278 O279 2.028 . S
Mg278 O285 1.986 . S
Mg278 O287 2.114 . S
Mg278 O288 2.251 . S
Mg278 O291 2.010 . S
O279 Mg278 2.028 . S
O279 C282 1.250 . S
O280 Mg281 2.028 . S
O280 C282 1.248 . S
Mg281 O280 2.028 . S
Mg281 O286 2.032 . S
Mg281 O288 2.079 . S
C282 O279 1.250 . S
C282 O280 1.248 . S
C283 O284 1.264 . S
C283 O291 1.249 . S
O284 C283 1.264 . S
O285 Mg278 1.986 . S
O285 C289 1.246 . S
O286 Mg281 2.032 . S
O286 C289 1.259 . S
O287 Mg278 2.114 . S
O287 C290 1.252 . S
O288 Mg278 2.251 . S
O288 Mg281 2.079 . S
O288 C290 1.273 . S
C289 O285 1.246 . S
C289 O286 1.259 . S
C290 O287 1.252 . S
C290 O288 1.273 . S
O291 Mg278 2.010 . S
O291 C283 1.249 . S
Mg292 O293 2.028 . S
Mg292 O299 1.986 . S
Mg292 O301 2.114 . S
Mg292 O302 2.251 . S
Mg292 O305 2.010 . S
O293 Mg292 2.028 . S
O293 C296 1.250 . S
O294 Mg295 2.028 . S
O294 C296 1.248 . S
Mg295 O294 2.028 . S
Mg295 O300 2.032 . S
Mg295 O302 2.079 . S
C296 O293 1.250 . S
C296 O294 1.248 . S
C297 O298 1.264 . S
C297 O305 1.249 . S
O298 C297 1.264 . S
O299 Mg292 1.986 . S
O299 C303 1.246 . S
O300 Mg295 2.032 . S
O300 C303 1.259 . S
O301 Mg292 2.114 . S
O301 C304 1.252 . S
O302 Mg292 2.251 . S
O302 Mg295 2.079 . S
O302 C304 1.273 . S
C303 O299 1.246 . S
C303 O300 1.259 . S
C304 O301 1.252 . S
C304 O302 1.273 . S
O305 Mg292 2.010 . S
O305 C297 1.249 . S
Mg306 O307 2.028 . S
Mg306 O313 1.986 1_545 S
Mg306 O315 2.114 . S
Mg306 O316 2.251 . S
Mg306 O319 2.010 . S
O307 Mg306 2.028 . S
O307 C310 1.250 1_545 S
O308 Mg309 2.027 . S
O308 C310 1.248 . S
Mg309 O308 2.027 . S
Mg309 O314 2.049 . S
Mg309 O316 2.065 1_565 S
C310 O307 1.250 1_565 S
C310 O308 1.248 . S
C311 O312 1.264 . S
C311 O319 1.249 . S
O312 C311 1.264 . S
O313 Mg306 1.986 1_565 S
O313 C317 1.246 . S
O314 Mg309 2.049 . S
O314 C317 1.259 . S
O315 Mg306 2.114 . S
O315 C318 1.252 . S
O316 Mg306 2.251 . S
O316 Mg309 2.065 1_545 S
O316 C318 1.273 . S
C317 O313 1.246 . S
C317 O314 1.259 . S
C318 O315 1.252 . S
C318 O316 1.273 . S
O319 Mg306 2.010 . S
O319 C311 1.249 . S
Mg320 O321 2.028 1_455 S
Mg320 O327 1.986 . S
Mg320 O329 2.114 . S
Mg320 O330 2.251 1_455 S
Mg320 O333 2.010 . S
O321 Mg320 2.028 1_655 S
O321 C324 1.250 . S
O322 Mg323 2.028 . S
O322 C324 1.248 . S
Mg323 O322 2.028 . S
Mg323 O328 2.032 . S
Mg323 O330 2.079 . S
C324 O321 1.250 . S
C324 O322 1.248 . S
C325 O326 1.264 . S
C325 O333 1.249 . S
O326 C325 1.264 . S
O327 Mg320 1.986 . S
O327 C331 1.262 . S
O328 Mg323 2.032 . S
O328 C331 1.241 1_655 S
O329 Mg320 2.114 . S
O329 C332 1.252 . S
O330 Mg320 2.251 1_655 S
O330 Mg323 2.079 . S
O330 C332 1.273 1_655 S
C331 O327 1.262 . S
C331 O328 1.241 1_455 S
C332 O329 1.252 . S
C332 O330 1.273 1_455 S
O333 Mg320 2.010 . S
O333 C325 1.249 . S
Mg334 O335 2.028 . S
Mg334 O341 1.986 . S
Mg334 O343 2.114 . S
Mg334 O344 2.251 . S
Mg334 O347 2.010 . S
O335 Mg334 2.028 . S
O335 C338 1.250 . S
O336 Mg337 2.028 . S
O336 C338 1.248 . S
Mg337 O336 2.028 . S
Mg337 O342 2.032 . S
Mg337 O344 2.079 . S
C338 O335 1.250 . S
C338 O336 1.248 . S
C339 O340 1.264 . S
C339 O347 1.249 . S
O340 C339 1.264 . S
O341 Mg334 1.986 . S
O341 C345 1.246 . S
O342 Mg337 2.032 . S
O342 C345 1.259 . S
O343 Mg334 2.114 . S
O343 C346 1.252 . S
O344 Mg334 2.251 . S
O344 Mg337 2.079 . S
O344 C346 1.273 . S
C345 O341 1.246 . S
C345 O342 1.259 . S
C346 O343 1.252 . S
C346 O344 1.273 . S
O347 Mg334 2.010 . S
O347 C339 1.249 . S
Mg348 O349 2.028 . S
Mg348 O355 1.986 . S
Mg348 O357 2.114 1_455 S
Mg348 O358 2.251 . S
Mg348 O361 2.010 1_455 S
O349 Mg348 2.028 . S
O349 C352 1.250 . S
O350 Mg351 2.028 . S
O350 C352 1.248 . S
Mg351 O350 2.028 . S
Mg351 O356 2.032 . S
Mg351 O358 2.079 . S
C352 O349 1.250 . S
C352 O350 1.248 . S
C353 O354 1.264 . S
C353 O361 1.249 . S
O354 C353 1.264 . S
O355 Mg348 1.986 . S
O355 C359 1.246 . S
O356 Mg351 2.032 . S
O356 C359 1.259 . S
O357 Mg348 2.114 1_655 S
O357 C360 1.252 1_655 S
O358 Mg348 2.251 . S
O358 Mg351 2.079 . S
O358 C360 1.273 . S
C359 O355 1.246 . S
C359 O356 1.259 . S
C360 O357 1.252 1_455 S
C360 O358 1.273 . S
O361 Mg348 2.010 1_655 S
O361 C353 1.249 . S
Mg362 O363 2.028 . S
Mg362 O369 1.986 . S
Mg362 O371 2.114 . S
Mg362 O372 2.251 . S
Mg362 O375 2.010 . S
O363 Mg362 2.028 . S
O363 C366 1.250 . S
O364 Mg365 2.028 . S
O364 C366 1.248 . S
Mg365 O364 2.028 . S
Mg365 O370 2.032 . S
Mg365 O372 2.079 . S
C366 O363 1.250 . S
C366 O364 1.248 . S
C367 O368 1.264 . S
C367 O375 1.249 . S
O368 C367 1.264 . S
O369 Mg362 1.986 . S
O369 C373 1.246 . S
O370 Mg365 2.032 . S
O370 C373 1.259 . S
O371 Mg362 2.114 . S
O371 C374 1.252 . S
O372 Mg362 2.251 . S
O372 Mg365 2.079 . S
O372 C374 1.273 . S
C373 O369 1.246 . S
C373 O370 1.259 . S
C374 O371 1.252 . S
C374 O372 1.273 . S
O375 Mg362 2.010 . S
O375 C367 1.249 . S
H376 C382 0.930 . S
H377 C385 0.930 . S
H378 C386 0.930 . S
H379 C387 0.930 . S
H380 C390 0.930 . S
H381 C391 0.930 . S
C382 H376 0.930 . S
C382 C383 1.355 . S
C382 C384 1.415 . S
C383 C382 1.355 . S
C383 C385 1.419 . S
C384 C382 1.415 . S
C384 C389 1.425 . S
C384 C391 1.409 . S
C385 H377 0.930 . S
C385 C383 1.419 . S
C385 C386 1.362 . S
C386 H378 0.930 . S
C386 C385 1.362 . S
C386 C389 1.409 . S
C387 H379 0.930 . S
C387 C388 1.355 . S
C387 C389 1.415 . S
C388 C387 1.355 . S
C388 C390 1.419 . S
C389 C384 1.425 . S
C389 C386 1.409 . S
C389 C387 1.415 . S
C390 H380 0.930 . S
C390 C388 1.419 . S
C390 C391 1.362 . S
C391 H381 0.930 . S
C391 C384 1.409 . S
C391 C390 1.362 . S
H392 C398 0.930 . S
H393 C401 0.930 . S
H394 C402 0.930 . S
H395 C403 0.930 . S
H396 C406 0.930 . S
H397 C407 0.930 . S
C398 H392 0.930 . S
C398 C399 1.355 . S
C398 C400 1.415 1_655 S
C399 C398 1.355 . S
C399 C401 1.419 1_655 S
C400 C398 1.415 1_455 S
C400 C405 1.425 . S
C400 C407 1.409 . S
C401 H393 0.930 . S
C401 C399 1.419 1_455 S
C401 C402 1.362 . S
C402 H394 0.930 . S
C402 C401 1.362 . S
C402 C405 1.409 . S
C403 H395 0.930 . S
C403 C404 1.355 . S
C403 C405 1.415 . S
C404 C403 1.355 . S
C404 C406 1.419 . S
C405 C400 1.425 . S
C405 C402 1.409 . S
C405 C403 1.415 . S
C406 H396 0.930 . S
C406 C404 1.419 . S
C406 C407 1.362 . S
C407 H397 0.930 . S
C407 C400 1.409 . S
C407 C406 1.362 . S
H408 C414 0.930 . S
H409 C417 0.930 . S
H410 C418 0.930 . S
H411 C419 0.930 . S
H412 C422 0.930 . S
H413 C423 0.930 . S
C414 H408 0.930 . S
C414 C415 1.355 . S
C414 C416 1.415 . S
C415 C414 1.355 . S
C415 C417 1.419 . S
C416 C414 1.415 . S
C416 C421 1.425 . S
C416 C423 1.409 . S
C417 H409 0.930 . S
C417 C415 1.419 . S
C417 C418 1.362 . S
C418 H410 0.930 . S
C418 C417 1.362 . S
C418 C421 1.409 . S
C419 H411 0.930 . S
C419 C420 1.355 . S
C419 C421 1.415 . S
C420 C419 1.355 . S
C420 C422 1.419 . S
C421 C416 1.425 . S
C421 C418 1.409 . S
C421 C419 1.415 . S
C422 H412 0.930 . S
C422 C420 1.419 . S
C422 C423 1.362 . S
C423 H413 0.930 . S
C423 C416 1.409 . S
C423 C422 1.362 . S
H424 C430 0.930 1_545 S
H425 C433 0.930 . S
H426 C434 0.930 . S
H427 C435 0.930 . S
H428 C438 0.930 . S
H429 C439 0.930 . S
C430 H424 0.930 1_565 S
C430 C431 1.355 1_655 S
C430 C432 1.415 1_565 S
C431 C430 1.355 1_455 S
C431 C433 1.419 . S
C432 C430 1.415 1_545 S
C432 C437 1.425 1_545 S
C432 C439 1.409 . S
C433 H425 0.930 . S
C433 C431 1.419 . S
C433 C434 1.362 . S
C434 H426 0.930 . S
C434 C433 1.362 . S
C434 C437 1.409 1_455 S
C435 H427 0.930 . S
C435 C436 1.355 1_565 S
C435 C437 1.415 . S
C436 C435 1.355 1_545 S
C436 C438 1.419 . S
C437 C432 1.425 1_565 S
C437 C434 1.409 1_655 S
C437 C435 1.415 . S
C438 H428 0.930 . S
C438 C436 1.419 . S
C438 C439 1.362 . S
C439 H429 0.930 . S
C439 C432 1.409 . S
C439 C438 1.362 . S
H440 C446 0.930 . S
H441 C449 0.930 . S
H442 C450 0.930 . S
H443 C451 0.930 . S
H444 C454 0.930 . S
H445 C455 0.930 . S
C446 H440 0.930 . S
C446 C447 1.355 . S
C446 C448 1.415 . S
C447 C446 1.355 . S
C447 C449 1.419 . S
C448 C446 1.415 . S
C448 C453 1.425 . S
C448 C455 1.409 . S
C449 H441 0.930 . S
C449 C447 1.419 . S
C449 C450 1.362 . S
C450 H442 0.930 . S
C450 C449 1.362 . S
C450 C453 1.409 . S
C451 H443 0.930 . S
C451 C452 1.355 . S
C451 C453 1.415 . S
C452 C451 1.355 . S
C452 C454 1.419 . S
C453 C448 1.425 . S
C453 C450 1.409 . S
C453 C451 1.415 . S
C454 H444 0.930 . S
C454 C452 1.419 . S
C454 C455 1.362 . S
C455 H445 0.930 . S
C455 C448 1.409 . S
C455 C454 1.362 . S
H456 C462 0.930 . S
H457 C465 0.930 . S
H458 C466 0.930 . S
H459 C467 0.930 . S
H460 C470 0.930 . S
H461 C471 0.930 . S
C462 H456 0.930 . S
C462 C463 1.355 . S
C462 C464 1.415 . S
C463 C462 1.355 . S
C463 C465 1.419 . S
C464 C462 1.415 . S
C464 C469 1.425 . S
C464 C471 1.409 . S
C465 H457 0.930 . S
C465 C463 1.419 . S
C465 C466 1.362 . S
C466 H458 0.930 . S
C466 C465 1.362 . S
C466 C469 1.409 . S
C467 H459 0.930 . S
C467 C468 1.355 . S
C467 C469 1.415 . S
C468 C467 1.355 . S
C468 C470 1.419 . S
C469 C464 1.425 . S
C469 C466 1.409 . S
C469 C467 1.415 . S
C470 H460 0.930 . S
C470 C468 1.419 . S
C470 C471 1.362 . S
C471 H461 0.930 . S
C471 C464 1.409 . S
C471 C470 1.362 . S
H472 C478 0.930 . S
H473 C481 0.930 . S
H474 C482 0.930 . S
H475 C483 0.930 . S
H476 C486 0.930 . S
H477 C487 0.930 . S
C478 H472 0.930 . S
C478 C479 1.355 . S
C478 C480 1.415 . S
C479 C478 1.355 . S
C479 C481 1.419 . S
C480 C478 1.415 . S
C480 C485 1.425 . S
C480 C487 1.409 . S
C481 H473 0.930 . S
C481 C479 1.419 . S
C481 C482 1.362 . S
C482 H474 0.930 . S
C482 C481 1.362 . S
C482 C485 1.409 . S
C483 H475 0.930 . S
C483 C484 1.355 . S
C483 C485 1.415 . S
C484 C483 1.355 . S
C484 C486 1.419 . S
C485 C480 1.425 . S
C485 C482 1.409 . S
C485 C483 1.415 . S
C486 H476 0.930 . S
C486 C484 1.419 . S
C486 C487 1.362 . S
C487 H477 0.930 . S
C487 C480 1.409 . S
C487 C486 1.362 . S
H488 C494 0.930 . S
H489 C497 0.930 . S
H490 C498 0.930 . S
H491 C499 0.930 . S
H492 C502 0.930 . S
H493 C503 0.930 . S
C494 H488 0.930 . S
C494 C495 1.355 . S
C494 C496 1.415 . S
C495 C494 1.355 . S
C495 C497 1.419 . S
C496 C494 1.415 . S
C496 C501 1.425 . S
C496 C503 1.409 . S
C497 H489 0.930 . S
C497 C495 1.419 . S
C497 C498 1.362 . S
C498 H490 0.930 . S
C498 C497 1.362 . S
C498 C501 1.409 . S
C499 H491 0.930 . S
C499 C500 1.355 . S
C499 C501 1.415 . S
C500 C499 1.355 . S
C500 C502 1.419 . S
C501 C496 1.425 . S
C501 C498 1.409 . S
C501 C499 1.415 . S
C502 H492 0.930 . S
C502 C500 1.419 . S
C502 C503 1.362 . S
C503 H493 0.930 . S
C503 C496 1.409 . S
C503 C502 1.362 . S
H504 C510 0.930 . S
H505 C513 0.930 . S
H506 C514 0.930 . S
H507 C515 0.930 . S
H508 C518 0.930 . S
H509 C519 0.930 . S
C510 H504 0.930 . S
C510 C511 1.355 . S
C510 C512 1.415 . S
C511 C510 1.355 . S
C511 C513 1.419 . S
C512 C510 1.415 . S
C512 C517 1.425 . S
C512 C519 1.409 . S
C513 H505 0.930 . S
C513 C511 1.419 . S
C513 C514 1.362 . S
C514 H506 0.930 . S
C514 C513 1.362 . S
C514 C517 1.409 . S
C515 H507 0.930 . S
C515 C516 1.355 . S
C515 C517 1.415 . S
C516 C515 1.355 . S
C516 C518 1.419 . S
C517 C512 1.425 . S
C517 C514 1.409 . S
C517 C515 1.415 . S
C518 H508 0.930 . S
C518 C516 1.419 . S
C518 C519 1.362 . S
C519 H509 0.930 . S
C519 C512 1.409 . S
C519 C518 1.362 . S
H520 C526 0.930 . S
H521 C529 0.930 . S
H522 C530 0.930 . S
H523 C531 0.930 . S
H524 C534 0.930 . S
H525 C535 0.930 . S
C526 H520 0.930 . S
C526 C527 1.355 . S
C526 C528 1.415 . S
C527 C526 1.355 . S
C527 C529 1.419 . S
C528 C526 1.415 . S
C528 C533 1.425 . S
C528 C535 1.409 . S
C529 H521 0.930 . S
C529 C527 1.419 . S
C529 C530 1.362 . S
C530 H522 0.930 . S
C530 C529 1.362 . S
C530 C533 1.409 . S
C531 H523 0.930 . S
C531 C532 1.355 . S
C531 C533 1.415 . S
C532 C531 1.355 . S
C532 C534 1.419 . S
C533 C528 1.425 . S
C533 C530 1.409 . S
C533 C531 1.415 . S
C534 H524 0.930 . S
C534 C532 1.419 . S
C534 C535 1.362 . S
C535 H525 0.930 . S
C535 C528 1.409 . S
C535 C534 1.362 . S
H536 C542 0.930 . S
H537 C545 0.930 . S
H538 C546 0.930 . S
H539 C547 0.930 . S
H540 C550 0.930 . S
H541 C551 0.930 . S
C542 H536 0.930 . S
C542 C543 1.355 . S
C542 C544 1.415 . S
C543 C542 1.355 . S
C543 C545 1.419 . S
C544 C542 1.415 . S
C544 C549 1.425 . S
C544 C551 1.409 . S
C545 H537 0.930 . S
C545 C543 1.419 . S
C545 C546 1.362 . S
C546 H538 0.930 . S
C546 C545 1.362 . S
C546 C549 1.409 . S
C547 H539 0.930 . S
C547 C548 1.355 . S
C547 C549 1.415 . S
C548 C547 1.355 . S
C548 C550 1.419 . S
C549 C544 1.425 . S
C549 C546 1.409 . S
C549 C547 1.415 . S
C550 H540 0.930 . S
C550 C548 1.419 . S
C550 C551 1.362 . S
C551 H541 0.930 . S
C551 C544 1.409 . S
C551 C550 1.362 . S
H552 C558 0.930 . S
H553 C561 0.930 . S
H554 C562 0.930 . S
H555 C563 0.930 . S
H556 C566 0.930 . S
H557 C567 0.930 . S
C558 H552 0.930 . S
C558 C559 1.355 . S
C558 C560 1.415 . S
C559 C558 1.355 . S
C559 C561 1.419 . S
C560 C558 1.415 . S
C560 C565 1.425 . S
C560 C567 1.409 . S
C561 H553 0.930 . S
C561 C559 1.419 . S
C561 C562 1.362 . S
C562 H554 0.930 . S
C562 C561 1.362 . S
C562 C565 1.409 . S
C563 H555 0.930 . S
C563 C564 1.355 . S
C563 C565 1.415 . S
C564 C563 1.355 . S
C564 C566 1.419 . S
C565 C560 1.425 . S
C565 C562 1.409 . S
C565 C563 1.415 . S
C566 H556 0.930 . S
C566 C564 1.419 . S
C566 C567 1.362 . S
C567 H557 0.930 . S
C567 C560 1.409 . S
C567 C566 1.362 . S
H568 C574 0.930 . S
H569 C577 0.930 . S
H570 C578 0.930 . S
H571 C579 0.930 . S
H572 C582 0.930 . S
H573 C583 0.930 . S
C574 H568 0.930 . S
C574 C575 1.355 . S
C574 C576 1.415 . S
C575 C574 1.355 . S
C575 C577 1.419 . S
C576 C574 1.415 . S
C576 C581 1.425 . S
C576 C583 1.409 . S
C577 H569 0.930 . S
C577 C575 1.419 . S
C577 C578 1.362 . S
C578 H570 0.930 . S
C578 C577 1.362 . S
C578 C581 1.409 . S
C579 H571 0.930 . S
C579 C580 1.355 . S
C579 C581 1.415 . S
C580 C579 1.355 . S
C580 C582 1.419 . S
C581 C576 1.425 . S
C581 C578 1.409 . S
C581 C579 1.415 . S
C582 H572 0.930 . S
C582 C580 1.419 . S
C582 C583 1.362 . S
C583 H573 0.930 . S
C583 C576 1.409 . S
C583 C582 1.362 . S
H584 C590 0.930 . S
H585 C593 0.930 . S
H586 C594 0.930 . S
H587 C595 0.930 . S
H588 C598 0.930 . S
H589 C599 0.930 . S
C590 H584 0.930 . S
C590 C591 1.355 . S
C590 C592 1.415 . S
C591 C590 1.355 . S
C591 C593 1.419 . S
C592 C590 1.415 . S
C592 C597 1.425 . S
C592 C599 1.409 . S
C593 H585 0.930 . S
C593 C591 1.419 . S
C593 C594 1.362 . S
C594 H586 0.930 . S
C594 C593 1.362 . S
C594 C597 1.409 . S
C595 H587 0.930 . S
C595 C596 1.355 . S
C595 C597 1.415 . S
C596 C595 1.355 . S
C596 C598 1.419 . S
C597 C592 1.425 . S
C597 C594 1.409 . S
C597 C595 1.415 . S
C598 H588 0.930 . S
C598 C596 1.419 . S
C598 C599 1.362 . S
C599 H589 0.930 . S
C599 C592 1.409 . S
C599 C598 1.362 . S
H600 C606 0.930 . S
H601 C609 0.930 . S
H602 C610 0.930 . S
H603 C611 0.930 . S
H604 C614 0.930 . S
H605 C615 0.930 . S
C606 H600 0.930 . S
C606 C607 1.355 . S
C606 C608 1.415 . S
C607 C606 1.355 . S
C607 C609 1.419 . S
C608 C606 1.415 . S
C608 C613 1.425 . S
C608 C615 1.409 . S
C609 H601 0.930 . S
C609 C607 1.419 . S
C609 C610 1.362 . S
C610 H602 0.930 . S
C610 C609 1.362 . S
C610 C613 1.409 . S
C611 H603 0.930 . S
C611 C612 1.355 . S
C611 C613 1.415 . S
C612 C611 1.355 . S
C612 C614 1.419 . S
C613 C608 1.425 . S
C613 C610 1.409 . S
C613 C611 1.415 . S
C614 H604 0.930 . S
C614 C612 1.419 . S
C614 C615 1.362 . S
C615 H605 0.930 . S
C615 C608 1.409 . S
C615 C614 1.362 . S
H616 C622 0.930 . S
H617 C625 0.930 . S
H618 C626 0.930 1_455 S
H619 C627 0.930 . S
H620 C630 0.930 . S
H621 C631 0.930 . S
C622 H616 0.930 . S
C622 C623 1.355 . S
C622 C624 1.415 . S
C623 C622 1.355 . S
C623 C625 1.419 . S
C624 C622 1.415 . S
C624 C629 1.425 . S
C624 C631 1.409 . S
C625 H617 0.930 . S
C625 C623 1.419 . S
C625 C626 1.362 . S
C626 H618 0.930 1_655 S
C626 C625 1.362 . S
C626 C629 1.409 . S
C627 H619 0.930 . S
C627 C628 1.350 1_455 S
C627 C629 1.415 1_455 S
C628 C627 1.350 1_655 S
C628 C630 1.429 . S
C629 C624 1.425 . S
C629 C626 1.409 . S
C629 C627 1.415 1_655 S
C630 H620 0.930 . S
C630 C628 1.429 . S
C630 C631 1.362 . S
C631 H621 0.930 . S
C631 C624 1.409 . S
C631 C630 1.362 . S
H632 C638 0.930 . S
H633 C641 0.930 . S
H634 C642 0.930 . S
H635 C643 0.930 . S
H636 C646 0.930 . S
H637 C647 0.930 . S
C638 H632 0.930 . S
C638 C639 1.355 . S
C638 C640 1.415 . S
C639 C638 1.355 . S
C639 C641 1.419 . S
C640 C638 1.415 . S
C640 C645 1.425 . S
C640 C647 1.409 . S
C641 H633 0.930 . S
C641 C639 1.419 . S
C641 C642 1.362 . S
C642 H634 0.930 . S
C642 C641 1.362 . S
C642 C645 1.409 . S
C643 H635 0.930 . S
C643 C644 1.355 . S
C643 C645 1.415 . S
C644 C643 1.355 . S
C644 C646 1.419 . S
C645 C640 1.425 . S
C645 C642 1.409 . S
C645 C643 1.415 . S
C646 H636 0.930 . S
C646 C644 1.419 . S
C646 C647 1.362 . S
C647 H637 0.930 . S
C647 C640 1.409 . S
C647 C646 1.362 . S
H648 C654 0.930 . S
H649 C657 0.930 . S
H650 C658 0.930 . S
H651 C659 0.930 . S
H652 C662 0.930 . S
H653 C663 0.930 . S
C654 H648 0.930 . S
C654 C655 1.355 . S
C654 C656 1.415 . S
C655 C654 1.355 . S
C655 C657 1.419 . S
C656 C654 1.415 . S
C656 C661 1.425 . S
C656 C663 1.409 . S
C657 H649 0.930 . S
C657 C655 1.419 . S
C657 C658 1.362 . S
C658 H650 0.930 . S
C658 C657 1.362 . S
C658 C661 1.409 . S
C659 H651 0.930 . S
C659 C660 1.355 . S
C659 C661 1.415 . S
C660 C659 1.355 . S
C660 C662 1.419 . S
C661 C656 1.425 . S
C661 C658 1.409 . S
C661 C659 1.415 . S
C662 H652 0.930 . S
C662 C660 1.419 . S
C662 C663 1.362 . S
C663 H653 0.930 . S
C663 C656 1.409 . S
C663 C662 1.362 . S
H664 C670 0.930 . S
H665 C673 0.930 1_545 S
H666 C674 0.930 . S
H667 C675 0.930 . S
H668 C678 0.930 . S
H669 C679 0.930 . S
C670 H664 0.930 . S
C670 C671 1.355 . S
C670 C672 1.415 . S
C671 C670 1.355 . S
C671 C673 1.419 1_556 S
C672 C670 1.415 . S
C672 C677 1.425 1_556 S
C672 C679 1.409 . S
C673 H665 0.930 1_565 S
C673 C671 1.419 1_554 S
C673 C674 1.362 . S
C674 H666 0.930 . S
C674 C673 1.362 . S
C674 C677 1.409 . S
C675 H667 0.930 . S
C675 C676 1.355 . S
C675 C677 1.415 . S
C676 C675 1.355 . S
C676 C678 1.419 1_554 S
C677 C672 1.425 1_554 S
C677 C674 1.409 . S
C677 C675 1.415 . S
C678 H668 0.930 . S
C678 C676 1.419 1_556 S
C678 C679 1.362 . S
C679 H669 0.930 . S
C679 C672 1.409 . S
C679 C678 1.362 . S
H680 C686 0.930 . S
H681 C689 0.930 . S
H682 C690 0.930 . S
H683 C691 0.930 . S
H684 C694 0.930 . S
H685 C695 0.930 . S
C686 H680 0.930 . S
C686 C687 1.355 . S
C686 C688 1.415 . S
C687 C686 1.355 . S
C687 C689 1.419 . S
C688 C686 1.415 . S
C688 C693 1.425 . S
C688 C695 1.409 . S
C689 H681 0.930 . S
C689 C687 1.419 . S
C689 C690 1.362 . S
C690 H682 0.930 . S
C690 C689 1.362 . S
C690 C693 1.409 . S
C691 H683 0.930 . S
C691 C692 1.355 . S
C691 C693 1.415 . S
C692 C691 1.355 . S
C692 C694 1.419 . S
C693 C688 1.425 . S
C693 C690 1.409 . S
C693 C691 1.415 . S
C694 H684 0.930 . S
C694 C692 1.419 . S
C694 C695 1.362 . S
C695 H685 0.930 . S
C695 C688 1.409 . S
C695 C694 1.362 . S
H696 C702 0.930 . S
H697 C705 0.930 . S
H698 C706 0.930 1_565 S
H699 C707 0.930 . S
H700 C710 0.930 . S
H701 C711 0.930 . S
C702 H696 0.930 . S
C702 C703 1.355 . S
C702 C704 1.415 . S
C703 C702 1.355 . S
C703 C705 1.419 1_545 S
C704 C702 1.415 . S
C704 C709 1.425 . S
C704 C711 1.409 . S
C705 H697 0.930 . S
C705 C703 1.419 1_565 S
C705 C706 1.362 1_565 S
C706 H698 0.930 1_545 S
C706 C705 1.362 1_545 S
C706 C709 1.409 . S
C707 H699 0.930 . S
C707 C708 1.355 . S
C707 C709 1.415 . S
C708 C707 1.355 . S
C708 C710 1.419 . S
C709 C704 1.425 . S
C709 C706 1.409 . S
C709 C707 1.415 . S
C710 H700 0.930 . S
C710 C708 1.419 . S
C710 C711 1.362 . S
C711 H701 0.930 . S
C711 C704 1.409 . S
C711 C710 1.362 . S
H712 C718 0.930 . S
H713 C721 0.930 . S
H714 C722 0.930 . S
H715 C723 0.930 . S
H716 C726 0.930 . S
H717 C727 0.930 . S
C718 H712 0.930 . S
C718 C719 1.355 . S
C718 C720 1.415 . S
C719 C718 1.355 . S
C719 C721 1.419 . S
C720 C718 1.415 . S
C720 C725 1.425 . S
C720 C727 1.409 . S
C721 H713 0.930 . S
C721 C719 1.419 . S
C721 C722 1.362 . S
C722 H714 0.930 . S
C722 C721 1.362 . S
C722 C725 1.409 . S
C723 H715 0.930 . S
C723 C724 1.355 . S
C723 C725 1.415 . S
C724 C723 1.355 . S
C724 C726 1.419 . S
C725 C720 1.425 . S
C725 C722 1.409 . S
C725 C723 1.415 . S
C726 H716 0.930 . S
C726 C724 1.419 . S
C726 C727 1.362 . S
C727 H717 0.930 . S
C727 C720 1.409 . S
C727 C726 1.362 . S
H728 C734 0.930 . S
H729 C737 0.930 . S
H730 C738 0.930 . S
H731 C739 0.930 . S
H732 C742 0.930 . S
H733 C743 0.930 . S
C734 H728 0.930 . S
C734 C735 1.355 . S
C734 C736 1.415 . S
C735 C734 1.355 . S
C735 C737 1.419 . S
C736 C734 1.415 . S
C736 C741 1.425 . S
C736 C743 1.409 . S
C737 H729 0.930 . S
C737 C735 1.419 . S
C737 C738 1.362 . S
C738 H730 0.930 . S
C738 C737 1.362 . S
C738 C741 1.409 . S
C739 H731 0.930 . S
C739 C740 1.355 . S
C739 C741 1.415 . S
C740 C739 1.355 . S
C740 C742 1.419 . S
C741 C736 1.425 . S
C741 C738 1.409 . S
C741 C739 1.415 . S
C742 H732 0.930 . S
C742 C740 1.419 . S
C742 C743 1.362 . S
C743 H733 0.930 . S
C743 C736 1.409 . S
C743 C742 1.362 . S
H744 C750 0.930 . S
H745 C753 0.930 . S
H746 C754 0.930 . S
H747 C755 0.930 . S
H748 C758 0.930 . S
H749 C759 0.930 . S
C750 H744 0.930 . S
C750 C751 1.355 . S
C750 C752 1.415 . S
C751 C750 1.355 . S
C751 C753 1.419 . S
C752 C750 1.415 . S
C752 C757 1.425 . S
C752 C759 1.409 . S
C753 H745 0.930 . S
C753 C751 1.419 . S
C753 C754 1.362 . S
C754 H746 0.930 . S
C754 C753 1.362 . S
C754 C757 1.409 . S
C755 H747 0.930 . S
C755 C756 1.355 . S
C755 C757 1.415 . S
C756 C755 1.355 . S
C756 C758 1.419 . S
C757 C752 1.425 . S
C757 C754 1.409 . S
C757 C755 1.415 . S
C758 H748 0.930 . S
C758 C756 1.419 . S
C758 C759 1.362 . S
C759 H749 0.930 . S
C759 C752 1.409 . S
C759 C758 1.362 . S
H760 C766 0.930 . S
H761 C769 0.930 . S
H762 C770 0.930 . S
H763 C771 0.930 . S
H764 C774 0.930 . S
H765 C775 0.930 . S
C766 H760 0.930 . S
C766 C767 1.355 . S
C766 C768 1.415 . S
C767 C766 1.355 . S
C767 C769 1.419 . S
C768 C766 1.415 . S
C768 C773 1.425 . S
C768 C775 1.409 . S
C769 H761 0.930 . S
C769 C767 1.419 . S
C769 C770 1.362 . S
C770 H762 0.930 . S
C770 C769 1.362 . S
C770 C773 1.409 . S
C771 H763 0.930 . S
C771 C772 1.355 . S
C771 C773 1.415 . S
C772 C771 1.355 . S
C772 C774 1.419 . S
C773 C768 1.425 . S
C773 C770 1.409 . S
C773 C771 1.415 . S
C774 H764 0.930 . S
C774 C772 1.419 . S
C774 C775 1.362 . S
C775 H765 0.930 . S
C775 C768 1.409 . S
C775 C774 1.362 . S
H776 C782 0.930 . S
H777 C785 0.930 . S
H778 C786 0.930 1_565 S
H779 C787 0.930 1_565 S
H780 C790 0.930 . S
H781 C791 0.930 . S
C782 H776 0.930 . S
C782 C783 1.355 . S
C782 C784 1.415 . S
C783 C782 1.355 . S
C783 C785 1.419 . S
C784 C782 1.415 . S
C784 C789 1.425 . S
C784 C791 1.409 . S
C785 H777 0.930 . S
C785 C783 1.419 . S
C785 C786 1.362 . S
C786 H778 0.930 1_545 S
C786 C785 1.362 . S
C786 C789 1.409 . S
C787 H779 0.930 1_545 S
C787 C788 1.355 . S
C787 C789 1.415 . S
C788 C787 1.355 . S
C788 C790 1.419 . S
C789 C784 1.425 . S
C789 C786 1.409 . S
C789 C787 1.415 . S
C790 H780 0.930 . S
C790 C788 1.419 . S
C790 C791 1.362 . S
C791 H781 0.930 . S
C791 C784 1.409 . S
C791 C790 1.362 . S
H792 C798 0.930 . S
H793 C801 0.930 . S
H794 C802 0.930 . S
H795 C803 0.930 . S
H796 C806 0.930 . S
H797 C807 0.930 . S
C798 H792 0.930 . S
C798 C799 1.355 . S
C798 C800 1.415 . S
C799 C798 1.355 . S
C799 C801 1.419 . S
C800 C798 1.415 . S
C800 C805 1.425 . S
C800 C807 1.409 . S
C801 H793 0.930 . S
C801 C799 1.419 . S
C801 C802 1.362 . S
C802 H794 0.930 . S
C802 C801 1.362 . S
C802 C805 1.409 . S
C803 H795 0.930 . S
C803 C804 1.355 . S
C803 C805 1.415 . S
C804 C803 1.355 . S
C804 C806 1.419 . S
C805 C800 1.425 . S
C805 C802 1.409 . S
C805 C803 1.415 . S
C806 H796 0.930 . S
C806 C804 1.419 . S
C806 C807 1.362 . S
C807 H797 0.930 . S
C807 C800 1.409 . S
C807 C806 1.362 . S
H808 C814 0.930 . S
H809 C817 0.930 . S
H810 C818 0.930 . S
H811 C819 0.930 . S
H812 C822 0.930 . S
H813 C823 0.930 . S
C814 H808 0.930 . S
C814 C815 1.355 . S
C814 C816 1.415 . S
C815 C814 1.355 . S
C815 C817 1.419 . S
C816 C814 1.415 . S
C816 C821 1.425 . S
C816 C823 1.409 . S
C817 H809 0.930 . S
C817 C815 1.419 . S
C817 C818 1.362 . S
C818 H810 0.930 . S
C818 C817 1.362 . S
C818 C821 1.409 . S
C819 H811 0.930 . S
C819 C820 1.355 . S
C819 C821 1.415 . S
C820 C819 1.355 . S
C820 C822 1.419 . S
C821 C816 1.425 . S
C821 C818 1.409 . S
C821 C819 1.415 . S
C822 H812 0.930 . S
C822 C820 1.419 . S
C822 C823 1.362 . S
C823 H813 0.930 . S
C823 C816 1.409 . S
C823 C822 1.362 . S
H824 C830 0.930 . S
H825 C833 0.930 . S
H826 C834 0.930 . S
H827 C835 0.930 . S
H828 C838 0.930 . S
H829 C839 0.930 . S
C830 H824 0.930 . S
C830 C831 1.355 . S
C830 C832 1.415 . S
C831 C830 1.355 . S
C831 C833 1.419 . S
C832 C830 1.415 . S
C832 C837 1.425 . S
C832 C839 1.409 . S
C833 H825 0.930 . S
C833 C831 1.419 . S
C833 C834 1.362 . S
C834 H826 0.930 . S
C834 C833 1.362 . S
C834 C837 1.409 . S
C835 H827 0.930 . S
C835 C836 1.355 . S
C835 C837 1.415 . S
C836 C835 1.355 . S
C836 C838 1.419 . S
C837 C832 1.425 . S
C837 C834 1.409 . S
C837 C835 1.415 . S
C838 H828 0.930 . S
C838 C836 1.419 . S
C838 C839 1.362 . S
C839 H829 0.930 . S
C839 C832 1.409 . S
C839 C838 1.362 . S
H840 C846 0.930 . S
H841 C849 0.930 . S
H842 C850 0.930 . S
H843 C851 0.930 . S
H844 C854 0.930 . S
H845 C855 0.930 . S
C846 H840 0.930 . S
C846 C847 1.361 . S
C846 C848 1.415 . S
C847 C846 1.361 . S
C847 C849 1.411 1_565 S
C848 C846 1.415 . S
C848 C853 1.425 1_565 S
C848 C855 1.409 . S
C849 H841 0.930 . S
C849 C847 1.411 1_545 S
C849 C850 1.362 . S
C850 H842 0.930 . S
C850 C849 1.362 . S
C850 C853 1.409 . S
C851 H843 0.930 . S
C851 C852 1.355 . S
C851 C853 1.415 . S
C852 C851 1.355 . S
C852 C854 1.419 1_545 S
C853 C848 1.425 1_545 S
C853 C850 1.409 . S
C853 C851 1.415 . S
C854 H844 0.930 . S
C854 C852 1.419 1_565 S
C854 C855 1.362 . S
C855 H845 0.930 . S
C855 C848 1.409 . S
C855 C854 1.362 . S
H856 C862 0.930 . S
H857 C865 0.930 . S
H858 C866 0.930 . S
H859 C867 0.930 . S
H860 C870 0.930 . S
H861 C871 0.930 . S
C862 H856 0.930 . S
C862 C863 1.355 . S
C862 C864 1.415 . S
C863 C862 1.355 . S
C863 C865 1.419 . S
C864 C862 1.415 . S
C864 C869 1.425 . S
C864 C871 1.409 . S
C865 H857 0.930 . S
C865 C863 1.419 . S
C865 C866 1.362 . S
C866 H858 0.930 . S
C866 C865 1.362 . S
C866 C869 1.409 . S
C867 H859 0.930 . S
C867 C868 1.355 . S
C867 C869 1.415 . S
C868 C867 1.355 . S
C868 C870 1.419 . S
C869 C864 1.425 . S
C869 C866 1.409 . S
C869 C867 1.415 . S
C870 H860 0.930 . S
C870 C868 1.419 . S
C870 C871 1.362 . S
C871 H861 0.930 . S
C871 C864 1.409 . S
C871 C870 1.362 . S
H872 C878 0.930 1_655 S
H873 C881 0.930 . S
H874 C882 0.930 . S
H875 C883 0.930 . S
H876 C886 0.930 . S
H877 C887 0.930 . S
C878 H872 0.930 1_455 S
C878 C879 1.355 . S
C878 C880 1.415 . S
C879 C878 1.355 . S
C879 C881 1.419 . S
C880 C878 1.415 . S
C880 C885 1.425 . S
C880 C887 1.409 . S
C881 H873 0.930 . S
C881 C879 1.419 . S
C881 C882 1.362 . S
C882 H874 0.930 . S
C882 C881 1.362 . S
C882 C885 1.409 . S
C883 H875 0.930 . S
C883 C884 1.355 . S
C883 C885 1.415 . S
C884 C883 1.355 . S
C884 C886 1.419 . S
C885 C880 1.425 . S
C885 C882 1.409 . S
C885 C883 1.415 . S
C886 H876 0.930 . S
C886 C884 1.419 . S
C886 C887 1.362 . S
C887 H877 0.930 . S
C887 C880 1.409 . S
C887 C886 1.362 . S
H888 C894 0.930 . S
H889 C897 0.930 . S
H890 C898 0.930 . S
H891 C899 0.930 . S
H892 C902 0.930 . S
H893 C903 0.930 . S
C894 H888 0.930 . S
C894 C895 1.355 . S
C894 C896 1.415 . S
C895 C894 1.355 . S
C895 C897 1.419 . S
C896 C894 1.415 . S
C896 C901 1.425 . S
C896 C903 1.409 . S
C897 H889 0.930 . S
C897 C895 1.419 . S
C897 C898 1.362 . S
C898 H890 0.930 . S
C898 C897 1.362 . S
C898 C901 1.409 . S
C899 H891 0.930 . S
C899 C900 1.355 . S
C899 C901 1.415 . S
C900 C899 1.355 . S
C900 C902 1.419 . S
C901 C896 1.425 . S
C901 C898 1.409 . S
C901 C899 1.415 . S
C902 H892 0.930 . S
C902 C900 1.419 . S
C902 C903 1.362 . S
C903 H893 0.930 . S
C903 C896 1.409 . S
C903 C902 1.362 . S
H904 C910 0.930 . S
H905 C913 0.930 . S
H906 C914 0.930 . S
H907 C915 0.930 1_554 S
H908 C918 0.930 . S
H909 C919 0.930 . S
C910 H904 0.930 . S
C910 C911 1.355 1_455 S
C910 C912 1.415 . S
C911 C910 1.355 1_655 S
C911 C913 1.419 . S
C912 C910 1.415 . S
C912 C917 1.425 1_455 S
C912 C919 1.409 1_554 S
C913 H905 0.930 . S
C913 C911 1.419 . S
C913 C914 1.362 . S
C914 H906 0.930 . S
C914 C913 1.362 . S
C914 C917 1.409 . S
C915 H907 0.930 1_556 S
C915 C916 1.355 1_655 S
C915 C917 1.415 1_556 S
C916 C915 1.355 1_455 S
C916 C918 1.419 . S
C917 C912 1.425 1_655 S
C917 C914 1.409 . S
C917 C915 1.415 1_554 S
C918 H908 0.930 . S
C918 C916 1.419 . S
C918 C919 1.362 . S
C919 H909 0.930 . S
C919 C912 1.409 1_556 S
C919 C918 1.362 . S
H920 C926 0.930 . S
H921 C929 0.930 . S
H922 C930 0.930 . S
H923 C931 0.930 . S
H924 C934 0.930 . S
H925 C935 0.930 . S
C926 H920 0.930 . S
C926 C927 1.355 . S
C926 C928 1.415 . S
C927 C926 1.355 . S
C927 C929 1.419 . S
C928 C926 1.415 . S
C928 C933 1.425 . S
C928 C935 1.409 . S
C929 H921 0.930 . S
C929 C927 1.419 . S
C929 C930 1.362 . S
C930 H922 0.930 . S
C930 C929 1.362 . S
C930 C933 1.409 . S
C931 H923 0.930 . S
C931 C932 1.355 . S
C931 C933 1.415 . S
C932 C931 1.355 . S
C932 C934 1.419 . S
C933 C928 1.425 . S
C933 C930 1.409 . S
C933 C931 1.415 . S
C934 H924 0.930 . S
C934 C932 1.419 . S
C934 C935 1.362 . S
C935 H925 0.930 . S
C935 C928 1.409 . S
C935 C934 1.362 . S
H936 C942 0.930 . S
H937 C945 0.930 . S
H938 C946 0.930 . S
H939 C947 0.930 . S
H940 C950 0.930 . S
H941 C951 0.915 1_554 S
C942 H936 0.930 . S
C942 C943 1.355 . S
C942 C944 1.415 1_554 S
C943 C942 1.355 . S
C943 C945 1.419 1_454 S
C944 C942 1.415 1_556 S
C944 C949 1.425 . S
C944 C951 1.410 . S
C945 H937 0.930 . S
C945 C943 1.419 1_656 S
C945 C946 1.362 . S
C946 H938 0.930 . S
C946 C945 1.362 . S
C946 C949 1.409 1_655 S
C947 H939 0.930 . S
C947 C948 1.355 1_655 S
C947 C949 1.415 1_655 S
C948 C947 1.355 1_455 S
C948 C950 1.419 . S
C949 C944 1.425 . S
C949 C946 1.409 1_455 S
C949 C947 1.415 1_455 S
C950 H940 0.930 . S
C950 C948 1.419 . S
C950 C951 1.377 . S
C951 H941 0.915 1_556 S
C951 C944 1.410 . S
C951 C950 1.377 . S
H952 C958 0.930 . S
H953 C961 0.930 . S
H954 C962 0.930 . S
H955 C963 0.930 . S
H956 C966 0.930 . S
H957 C967 0.930 . S
C958 H952 0.930 . S
C958 C959 1.355 . S
C958 C960 1.415 . S
C959 C958 1.355 . S
C959 C961 1.419 . S
C960 C958 1.415 . S
C960 C965 1.425 . S
C960 C967 1.409 . S
C961 H953 0.930 . S
C961 C959 1.419 . S
C961 C962 1.362 . S
C962 H954 0.930 . S
C962 C961 1.362 . S
C962 C965 1.409 . S
C963 H955 0.930 . S
C963 C964 1.355 . S
C963 C965 1.415 . S
C964 C963 1.355 . S
C964 C966 1.419 . S
C965 C960 1.425 . S
C965 C962 1.409 . S
C965 C963 1.415 . S
C966 H956 0.930 . S
C966 C964 1.419 . S
C966 C967 1.362 . S
C967 H957 0.930 . S
C967 C960 1.409 . S
C967 C966 1.362 . S
H968 C974 0.930 . S
H969 C977 0.948 . S
H970 C978 0.930 . S
H971 C979 0.930 . S
H972 C982 0.930 . S
H973 C983 0.930 . S
C974 H968 0.930 . S
C974 C975 1.355 . S
C974 C976 1.415 . S
C975 C974 1.355 . S
C975 C977 1.415 1_554 S
C976 C974 1.415 . S
C976 C981 1.425 . S
C976 C983 1.409 . S
C977 H969 0.948 . S
C977 C975 1.415 1_556 S
C977 C978 1.349 1_556 S
C978 H970 0.930 . S
C978 C977 1.349 1_554 S
C978 C981 1.409 . S
C979 H971 0.930 . S
C979 C980 1.355 . S
C979 C981 1.415 . S
C980 C979 1.355 . S
C980 C982 1.419 . S
C981 C976 1.425 . S
C981 C978 1.409 . S
C981 C979 1.415 . S
C982 H972 0.930 . S
C982 C980 1.419 . S
C982 C983 1.362 . S
C983 H973 0.930 . S
C983 C976 1.409 . S
C983 C982 1.362 . S
H984 C990 0.930 . S
H985 C993 0.930 . S
H986 C994 0.930 . S
H987 C995 0.930 . S
H988 C998 0.930 . S
H989 C999 0.930 . S
C990 H984 0.930 . S
C990 C991 1.355 . S
C990 C992 1.415 . S
C991 C990 1.355 . S
C991 C993 1.419 . S
C992 C990 1.415 . S
C992 C997 1.425 . S
C992 C999 1.409 . S
C993 H985 0.930 . S
C993 C991 1.419 . S
C993 C994 1.362 . S
C994 H986 0.930 . S
C994 C993 1.362 . S
C994 C997 1.409 . S
C995 H987 0.930 . S
C995 C996 1.355 . S
C995 C997 1.415 . S
C996 C995 1.355 . S
C996 C998 1.419 . S
C997 C992 1.425 . S
C997 C994 1.409 . S
C997 C995 1.415 . S
C998 H988 0.930 . S
C998 C996 1.419 . S
C998 C999 1.362 . S
C999 H989 0.930 . S
C999 C992 1.409 . S
C999 C998 1.362 . S
H1000 C1006 0.930 . S
H1001 C1009 0.930 . S
H1002 C1010 0.930 1_556 S
H1003 C1011 0.930 . S
H1004 C1014 0.930 . S
H1005 C1015 0.930 . S
C1006 H1000 0.930 . S
C1006 C1007 1.355 . S
C1006 C1008 1.415 . S
C1007 C1006 1.355 . S
C1007 C1009 1.419 1_554 S
C1008 C1006 1.415 . S
C1008 C1013 1.425 . S
C1008 C1015 1.409 . S
C1009 H1001 0.930 . S
C1009 C1007 1.419 1_556 S
C1009 C1010 1.362 1_556 S
C1010 H1002 0.930 1_554 S
C1010 C1009 1.362 1_554 S
C1010 C1013 1.409 . S
C1011 H1003 0.930 . S
C1011 C1012 1.355 . S
C1011 C1013 1.415 . S
C1012 C1011 1.355 . S
C1012 C1014 1.419 . S
C1013 C1008 1.425 . S
C1013 C1010 1.409 . S
C1013 C1011 1.415 . S
C1014 H1004 0.930 . S
C1014 C1012 1.419 . S
C1014 C1015 1.362 . S
C1015 H1005 0.930 . S
C1015 C1008 1.409 . S
C1015 C1014 1.362 . S
H1016 C1022 0.930 . S
H1017 C1025 0.930 . S
H1018 C1026 0.930 . S
H1019 C1027 0.930 . S
H1020 C1030 0.930 . S
H1021 C1031 0.930 . S
C1022 H1016 0.930 . S
C1022 C1023 1.355 . S
C1022 C1024 1.415 . S
C1023 C1022 1.355 . S
C1023 C1025 1.419 . S
C1024 C1022 1.415 . S
C1024 C1029 1.425 . S
C1024 C1031 1.409 . S
C1025 H1017 0.930 . S
C1025 C1023 1.419 . S
C1025 C1026 1.362 . S
C1026 H1018 0.930 . S
C1026 C1025 1.362 . S
C1026 C1029 1.409 . S
C1027 H1019 0.930 . S
C1027 C1028 1.355 . S
C1027 C1029 1.415 . S
C1028 C1027 1.355 . S
C1028 C1030 1.419 . S
C1029 C1024 1.425 . S
C1029 C1026 1.409 . S
C1029 C1027 1.415 . S
C1030 H1020 0.930 . S
C1030 C1028 1.419 . S
C1030 C1031 1.362 . S
C1031 H1021 0.930 . S
C1031 C1024 1.409 . S
C1031 C1030 1.362 . S
H1032 C1038 0.930 . S
H1033 C1041 0.930 . S
H1034 C1042 0.930 . S
H1035 C1043 0.930 . S
H1036 C1046 0.930 . S
H1037 C1047 0.930 . S
C1038 H1032 0.930 . S
C1038 C1039 1.355 . S
C1038 C1040 1.415 . S
C1039 C1038 1.355 . S
C1039 C1041 1.419 . S
C1040 C1038 1.415 . S
C1040 C1045 1.425 . S
C1040 C1047 1.409 . S
C1041 H1033 0.930 . S
C1041 C1039 1.419 . S
C1041 C1042 1.362 . S
C1042 H1034 0.930 . S
C1042 C1041 1.362 . S
C1042 C1045 1.409 . S
C1043 H1035 0.930 . S
C1043 C1044 1.355 . S
C1043 C1045 1.415 . S
C1044 C1043 1.355 . S
C1044 C1046 1.419 . S
C1045 C1040 1.425 . S
C1045 C1042 1.409 . S
C1045 C1043 1.415 . S
C1046 H1036 0.930 . S
C1046 C1044 1.419 . S
C1046 C1047 1.362 . S
C1047 H1037 0.930 . S
C1047 C1040 1.409 . S
C1047 C1046 1.362 . S
H1048 C1054 0.930 . S
H1049 C1057 0.930 . S
H1050 C1058 0.930 . S
H1051 C1059 0.930 . S
H1052 C1062 0.930 . S
H1053 C1063 0.930 . S
C1054 H1048 0.930 . S
C1054 C1055 1.355 . S
C1054 C1056 1.415 . S
C1055 C1054 1.355 . S
C1055 C1057 1.419 . S
C1056 C1054 1.415 . S
C1056 C1061 1.425 . S
C1056 C1063 1.409 . S
C1057 H1049 0.930 . S
C1057 C1055 1.419 . S
C1057 C1058 1.362 . S
C1058 H1050 0.930 . S
C1058 C1057 1.362 . S
C1058 C1061 1.409 . S
C1059 H1051 0.930 . S
C1059 C1060 1.355 . S
C1059 C1061 1.415 . S
C1060 C1059 1.355 . S
C1060 C1062 1.419 . S
C1061 C1056 1.425 . S
C1061 C1058 1.409 . S
C1061 C1059 1.415 . S
C1062 H1052 0.930 . S
C1062 C1060 1.419 . S
C1062 C1063 1.362 . S
C1063 H1053 0.930 . S
C1063 C1056 1.409 . S
C1063 C1062 1.362 . S
H1064 C1070 0.930 . S
H1065 C1073 0.930 . S
H1066 C1074 0.930 . S
H1067 C1075 0.930 . S
H1068 C1078 0.930 . S
H1069 C1079 0.930 . S
C1070 H1064 0.930 . S
C1070 C1071 1.355 . S
C1070 C1072 1.415 . S
C1071 C1070 1.355 . S
C1071 C1073 1.419 . S
C1072 C1070 1.415 . S
C1072 C1077 1.425 . S
C1072 C1079 1.409 . S
C1073 H1065 0.930 . S
C1073 C1071 1.419 . S
C1073 C1074 1.362 . S
C1074 H1066 0.930 . S
C1074 C1073 1.362 . S
C1074 C1077 1.409 . S
C1075 H1067 0.930 . S
C1075 C1076 1.355 . S
C1075 C1077 1.415 . S
C1076 C1075 1.355 . S
C1076 C1078 1.419 . S
C1077 C1072 1.425 . S
C1077 C1074 1.409 . S
C1077 C1075 1.415 . S
C1078 H1068 0.930 . S
C1078 C1076 1.419 . S
C1078 C1079 1.362 . S
C1079 H1069 0.930 . S
C1079 C1072 1.409 . S
C1079 C1078 1.362 . S
H1080 C1086 0.930 . S
H1081 C1089 0.930 . S
H1082 C1090 0.930 . S
H1083 C1091 0.930 . S
H1084 C1094 0.930 . S
H1085 C1095 0.930 . S
C1086 H1080 0.930 . S
C1086 C1087 1.355 . S
C1086 C1088 1.415 . S
C1087 C1086 1.355 . S
C1087 C1089 1.419 1_556 S
C1088 C1086 1.415 . S
C1088 C1093 1.425 1_556 S
C1088 C1095 1.409 . S
C1089 H1081 0.930 . S
C1089 C1087 1.419 1_554 S
C1089 C1090 1.362 . S
C1090 H1082 0.930 . S
C1090 C1089 1.362 . S
C1090 C1093 1.409 . S
C1091 H1083 0.930 . S
C1091 C1092 1.355 1_554 S
C1091 C1093 1.415 . S
C1092 C1091 1.355 1_556 S
C1092 C1094 1.419 . S
C1093 C1088 1.425 1_554 S
C1093 C1090 1.409 . S
C1093 C1091 1.415 . S
C1094 H1084 0.930 . S
C1094 C1092 1.419 . S
C1094 C1095 1.362 . S
C1095 H1085 0.930 . S
C1095 C1088 1.409 . S
C1095 C1094 1.362 . S
H1096 C1102 0.930 . S
H1097 C1105 0.930 . S
H1098 C1106 0.930 . S
H1099 C1107 0.930 . S
H1100 C1110 0.930 . S
H1101 C1111 0.930 . S
C1102 H1096 0.930 . S
C1102 C1103 1.355 . S
C1102 C1104 1.415 . S
C1103 C1102 1.355 . S
C1103 C1105 1.419 . S
C1104 C1102 1.415 . S
C1104 C1109 1.425 . S
C1104 C1111 1.409 . S
C1105 H1097 0.930 . S
C1105 C1103 1.419 . S
C1105 C1106 1.362 . S
C1106 H1098 0.930 . S
C1106 C1105 1.362 . S
C1106 C1109 1.409 . S
C1107 H1099 0.930 . S
C1107 C1108 1.355 . S
C1107 C1109 1.415 . S
C1108 C1107 1.355 . S
C1108 C1110 1.419 . S
C1109 C1104 1.425 . S
C1109 C1106 1.409 . S
C1109 C1107 1.415 . S
C1110 H1100 0.930 . S
C1110 C1108 1.419 . S
C1110 C1111 1.362 . S
C1111 H1101 0.930 . S
C1111 C1104 1.409 . S
C1111 C1110 1.362 . S
H1112 C1118 0.930 . S
H1113 C1121 0.930 . S
H1114 C1122 0.930 . S
H1115 C1123 0.930 . S
H1116 C1126 0.930 1_556 S
H1117 C1127 0.930 1_556 S
C1118 H1112 0.930 . S
C1118 C1119 1.355 . S
C1118 C1120 1.415 . S
C1119 C1118 1.355 . S
C1119 C1121 1.419 . S
C1120 C1118 1.415 . S
C1120 C1125 1.425 . S
C1120 C1127 1.409 . S
C1121 H1113 0.930 . S
C1121 C1119 1.419 . S
C1121 C1122 1.362 . S
C1122 H1114 0.930 . S
C1122 C1121 1.362 . S
C1122 C1125 1.409 . S
C1123 H1115 0.930 . S
C1123 C1124 1.355 . S
C1123 C1125 1.415 . S
C1124 C1123 1.355 . S
C1124 C1126 1.419 . S
C1125 C1120 1.425 . S
C1125 C1122 1.409 . S
C1125 C1123 1.415 . S
C1126 H1116 0.930 1_554 S
C1126 C1124 1.419 . S
C1126 C1127 1.362 . S
C1127 H1117 0.930 1_554 S
C1127 C1120 1.409 . S
C1127 C1126 1.362 . S
H1128 C1134 0.931 . S
H1129 C1137 0.930 1_545 S
H1130 C1138 0.930 . S
H1131 C1139 0.930 . S
H1132 C1142 0.923 1_556 S
H1133 C1143 0.930 . S
C1134 H1128 0.931 . S
C1134 C1135 1.355 . S
C1134 C1136 1.415 . S
C1135 C1134 1.355 . S
C1135 C1137 1.419 . S
C1136 C1134 1.415 . S
C1136 C1141 1.425 . S
C1136 C1143 1.409 1_554 S
C1137 H1129 0.930 1_565 S
C1137 C1135 1.419 . S
C1137 C1138 1.362 . S
C1138 H1130 0.930 . S
C1138 C1137 1.362 . S
C1138 C1141 1.409 . S
C1139 H1131 0.930 . S
C1139 C1140 1.355 . S
C1139 C1141 1.415 . S
C1140 C1139 1.355 . S
C1140 C1142 1.428 . S
C1141 C1136 1.425 . S
C1141 C1138 1.409 . S
C1141 C1139 1.415 . S
C1142 H1132 0.923 1_554 S
C1142 C1140 1.428 . S
C1142 C1143 1.361 1_554 S
C1143 H1133 0.930 . S
C1143 C1136 1.409 1_556 S
C1143 C1142 1.361 1_556 S
C388 C219 1.258 . S
C383 N66 1.260 . S
C404 C227 1.391 . S
C399 N79 1.543 . S
C415 N92 1.636 . S
C420 C247 1.680 . S
C436 C261 1.375 . S
C431 N54 1.388 . S
C452 C276 1.512 . S
C447 N131 1.523 . S
C468 C290 1.263 . S
C463 N158 1.275 . S
C479 N145 1.582 . S
C484 C304 1.577 . S
C500 C310 1.665 . S
C495 N118 1.696 . S
C511 N148 1.897 . S
C516 C324 1.837 . S
C532 C345 1.566 . S
C527 N122 1.594 . S
C543 N132 1.272 . S
C548 C325 1.005 . S
C564 C346 1.522 . S
C559 N161 1.456 . S
C575 N96 1.796 . S
C580 C353 1.453 . S
C591 N53 1.681 . S
C596 C359 1.701 . S
C607 N67 1.095 . S
C612 C352 1.053 . S
C623 N83 1.373 . S
C628 C360 1.368 1_655 S
C639 N44 1.457 . S
C644 C254 1.410 . S
C655 N187 1.497 . S
C660 C255 1.306 . S
C676 C212 1.188 . S
C671 N197 1.252 1_565 S
C692 C233 1.268 . S
C687 N106 1.302 . S
C703 N57 1.741 1_545 S
C708 C268 1.672 . S
C724 C318 1.456 . S
C719 N144 1.415 . S
C740 C269 1.127 . S
C735 N119 1.354 1_545 S
C756 C297 1.388 . S
C751 N157 1.752 . S
C772 C303 1.254 . S
C767 N183 1.246 . S
C783 N196 1.550 . S
C788 C311 1.306 . S
C799 N105 1.647 . S
C804 C275 1.676 . S
C820 C289 1.303 . S
C815 N171 1.375 . S
C831 N40 1.521 . S
C836 C248 1.513 . S
C852 C262 1.263 . S
C847 N2 1.269 1_565 S
C868 C220 1.578 . S
C863 N15 1.564 . S
C884 C226 1.712 . S
C879 N27 1.695 1_455 S
C895 N18 1.893 . S
C900 C338 1.834 . S
C911 N31 1.567 . S
C916 C331 1.603 . S
C927 N41 1.269 . S
C932 C339 1.117 . S
C943 N5 1.484 . S
C948 C332 1.517 . S
C964 C367 1.461 . S
C959 N109 1.797 . S
C980 C373 1.698 . S
C975 N170 1.690 1_554 S
C996 C366 1.049 . S
C991 N184 1.100 . S
C1007 N200 1.359 1_554 S
C1012 C374 1.375 . S
C1023 N135 1.425 . S
C1028 C282 1.407 . S
C1044 C283 1.189 . S
C1039 N70 1.463 . S
C1060 C296 1.253 . S
C1055 N80 1.259 . S
C1076 C317 1.251 . S
C1071 N93 1.304 . S
C1087 N174 1.758 . S
C1092 C240 1.696 1_556 S
C1108 C234 1.462 . S
C1103 N14 1.457 . S
C1119 N28 1.363 . S
C1124 C241 1.132 . S
C1140 C213 1.431 . S
C1135 N1 1.718 . S
