# Generated by pormake.
# Topology nom, (4,4)-cn, num edge types: 1
# Building blocks:
#     Node 0, Type 0, BuildingBlock: MUDLON_clean_linker_0, # of connection points: 4
#     Node 1, Type 0, BuildingBlock: MUDLON_clean_linker_0, # of connection points: 4
#     Node 2, Type 0, BuildingBlock: MUDLON_clean_linker_0, # of connection points: 4
#     Node 3, Type 0, BuildingBlock: MUDLON_clean_linker_0, # of connection points: 4
#     Node 4, Type 0, BuildingBlock: MUDLON_clean_linker_0, # of connection points: 4
#     Node 5, Type 0, BuildingBlock: MUDLON_clean_linker_0, # of connection points: 4
#     Node 6, Type 1, BuildingBlock: QUQFOY_clean_sbu_1, # of connection points: 4
#     Node 7, Type 1, BuildingBlock: QUQFOY_clean_sbu_1, # of connection points: 4
#     Node 8, Type 1, BuildingBlock: QUQFOY_clean_sbu_1, # of connection points: 4
#     Node 9, Type 1, BuildingBlock: QUQFOY_clean_sbu_1, # of connection points: 4
#     Node 10, Type 1, BuildingBlock: QUQFOY_clean_sbu_1, # of connection points: 4
#     Node 11, Type 1, BuildingBlock: QUQFOY_clean_sbu_1, # of connection points: 4
#     Edge 12, Type (0, 1), BuildingBlock: OJICUG_clean_linker_0, # of connection points: 2
#     Edge 13, Type (0, 1), BuildingBlock: OJICUG_clean_linker_0, # of connection points: 2
#     Edge 14, Type (0, 1), BuildingBlock: OJICUG_clean_linker_0, # of connection points: 2
#     Edge 15, Type (0, 1), BuildingBlock: OJICUG_clean_linker_0, # of connection points: 2
#     Edge 16, Type (0, 1), BuildingBlock: OJICUG_clean_linker_0, # of connection points: 2
#     Edge 17, Type (0, 1), BuildingBlock: OJICUG_clean_linker_0, # of connection points: 2
#     Edge 18, Type (0, 1), BuildingBlock: OJICUG_clean_linker_0, # of connection points: 2
#     Edge 19, Type (0, 1), BuildingBlock: OJICUG_clean_linker_0, # of connection points: 2
#     Edge 20, Type (0, 1), BuildingBlock: OJICUG_clean_linker_0, # of connection points: 2
#     Edge 21, Type (0, 1), BuildingBlock: OJICUG_clean_linker_0, # of connection points: 2
#     Edge 22, Type (0, 1), BuildingBlock: OJICUG_clean_linker_0, # of connection points: 2
#     Edge 23, Type (0, 1), BuildingBlock: OJICUG_clean_linker_0, # of connection points: 2
#     Edge 24, Type (0, 1), BuildingBlock: OJICUG_clean_linker_0, # of connection points: 2
#     Edge 25, Type (0, 1), BuildingBlock: OJICUG_clean_linker_0, # of connection points: 2
#     Edge 26, Type (0, 1), BuildingBlock: OJICUG_clean_linker_0, # of connection points: 2
#     Edge 27, Type (0, 1), BuildingBlock: OJICUG_clean_linker_0, # of connection points: 2
#     Edge 28, Type (0, 1), BuildingBlock: OJICUG_clean_linker_0, # of connection points: 2
#     Edge 29, Type (0, 1), BuildingBlock: OJICUG_clean_linker_0, # of connection points: 2
#     Edge 30, Type (0, 1), BuildingBlock: OJICUG_clean_linker_0, # of connection points: 2
#     Edge 31, Type (0, 1), BuildingBlock: OJICUG_clean_linker_0, # of connection points: 2
#     Edge 32, Type (0, 1), BuildingBlock: OJICUG_clean_linker_0, # of connection points: 2
#     Edge 33, Type (0, 1), BuildingBlock: OJICUG_clean_linker_0, # of connection points: 2
#     Edge 34, Type (0, 1), BuildingBlock: OJICUG_clean_linker_0, # of connection points: 2
#     Edge 35, Type (0, 1), BuildingBlock: OJICUG_clean_linker_0, # of connection points: 2
# Relax obj value: 0.010
# Max RMSD: 0.111
# Mean RMSD: 0.097
data_MOF--net-nom--node1-QUQFOY_clean_sbu_1--node2-MUDLON_clean_linker_0--edge1-OJICUG_clean_linker_0
_symmetry_space_group_name_H-M    P1
_symmetry_Int_Tables_number       1
_symmetry_cell_setting            triclinic
loop_
_symmetry_equiv_pos_as_xyz
'x, y, z'
_cell_length_a     50.700454
_cell_length_b     51.464702
_cell_length_c     45.75133
_cell_angle_alpha  90.427176
_cell_angle_beta   89.768982
_cell_angle_gamma 120.53507
loop_
_atom_site_label
_atom_site_type_symbol
_atom_site_fract_x
_atom_site_fract_y
_atom_site_fract_z
_atom_type_partial_charge
H0 H 0.14848 0.58179 0.29488 0.0
N1 N 0.12277 0.61285 0.31819 0.0
H2 H 0.1898 0.60127 0.25886 0.0
H3 H 0.14195 0.66154 0.28585 0.0
H4 H 0.18394 0.68192 0.25088 0.0
H5 H 0.15388 0.66057 0.35239 0.0
H6 H 0.18129 0.66394 0.39735 0.0
H7 H 0.12387 0.5661 0.34467 0.0
H8 H 0.15051 0.56885 0.39025 0.0
H9 H 0.09374 0.55614 0.29373 0.0
H10 H 0.07913 0.62254 0.33679 0.0
H11 H 0.0382 0.52252 0.28893 0.0
H12 H 0.02373 0.58903 0.33246 0.0
H13 H 0.88959 0.44665 0.26551 0.0
H14 H 0.86532 0.42357 0.2187 0.0
H15 H 0.85239 0.49902 0.202 0.0
H16 H 0.87782 0.52223 0.24799 0.0
H17 H 0.87153 0.52788 0.3102 0.0
H18 H 0.82733 0.50687 0.34267 0.0
H19 H 0.82996 0.42439 0.34871 0.0
H20 H 0.87456 0.44598 0.31589 0.0
H21 H 0.94274 0.50341 0.25006 0.0
H22 H 0.99675 0.52581 0.26013 0.0
H23 H 0.9812 0.53895 0.35034 0.0
N24 N 0.89872 0.50013 0.28771 0.0
H25 H 0.92684 0.5163 0.34073 0.0
C26 C 0.14216 0.62033 0.29291 0.0
C27 C 0.15536 0.60312 0.2845 0.0
C28 C 0.17927 0.61449 0.26413 0.0
C29 C 0.19059 0.64338 0.25211 0.0
C30 C 0.17572 0.65944 0.25919 0.0
C31 C 0.15173 0.64794 0.27931 0.0
C32 C 0.13678 0.61317 0.3455 0.0
C33 C 0.15293 0.64048 0.36076 0.0
C34 C 0.16844 0.64227 0.38646 0.0
C35 C 0.16797 0.61661 0.3975 0.0
C36 C 0.15156 0.58908 0.38217 0.0
C37 C 0.13613 0.58738 0.3563 0.0
C38 C 0.09046 0.59207 0.31525 0.0
C39 C 0.07864 0.56349 0.30216 0.0
C40 C 0.04692 0.54426 0.29953 0.0
C41 C 0.02668 0.5531 0.31048 0.0
C42 C 0.03872 0.58139 0.32421 0.0
C43 C 0.07028 0.60065 0.32646 0.0
C44 C 0.8858 0.48637 0.25986 0.0
C45 C 0.88169 0.45819 0.25154 0.0
C46 C 0.86765 0.44498 0.22487 0.0
C47 C 0.85706 0.4595 0.20637 0.0
C48 C 0.86095 0.48751 0.21518 0.0
C49 C 0.87531 0.50079 0.24153 0.0
C50 C 0.87603 0.48846 0.31054 0.0
C51 C 0.86296 0.50556 0.31911 0.0
C52 C 0.8378 0.49349 0.33779 0.0
C53 C 0.82505 0.46388 0.34831 0.0
C54 C 0.83909 0.44716 0.34076 0.0
C55 C 0.86454 0.45943 0.32209 0.0
C56 C 0.9295 0.50673 0.29476 0.0
C57 C 0.95019 0.50964 0.27244 0.0
C58 C 0.98146 0.52273 0.27811 0.0
C59 C 0.99316 0.53413 0.30598 0.0
C60 C 0.97275 0.53036 0.32859 0.0
C61 C 0.94143 0.51701 0.32305 0.0
H62 H 0.42527 0.8676 0.46442 0.0
N63 N 0.40008 0.90297 0.45346 0.0
H64 H 0.40518 0.8261 0.49833 0.0
H65 H 0.36433 0.89548 0.49919 0.0
H66 H 0.34629 0.85581 0.53582 0.0
H67 H 0.35084 0.86743 0.42153 0.0
H68 H 0.34858 0.84159 0.37562 0.0
H69 H 0.449 0.90784 0.42307 0.0
H70 H 0.44714 0.88298 0.37688 0.0
H71 H 0.45605 0.9289 0.48075 0.0
H72 H 0.3959 0.94789 0.43095 0.0
H73 H 0.49454 0.98254 0.48178 0.0
H74 H 0.43489 0.00124 0.43 0.0
H75 H 0.61516 0.15435 0.48731 0.0
H76 H 0.62801 0.1742 0.53729 0.0
H77 H 0.53165 0.12863 0.55869 0.0
H78 H 0.51907 0.11 0.50896 0.0
H79 H 0.52429 0.14803 0.47184 0.0
H80 H 0.52996 0.19199 0.44689 0.0
H81 H 0.6007 0.19413 0.39223 0.0
H82 H 0.59469 0.14947 0.41746 0.0
H83 H 0.56912 0.07635 0.45696 0.0
H84 H 0.53071 0.02267 0.45357 0.0
H85 H 0.45908 0.04481 0.45775 0.0
N86 N 0.55979 0.12227 0.46374 0.0
H87 H 0.49728 0.09784 0.45914 0.0
C88 C 0.39518 0.88387 0.47833 0.0
C89 C 0.4081 0.86533 0.47994 0.0
C90 C 0.39677 0.84161 0.49989 0.0
C91 C 0.37307 0.83656 0.51941 0.0
C92 C 0.36337 0.85786 0.52027 0.0
C93 C 0.37398 0.88092 0.49963 0.0
C94 C 0.39995 0.88967 0.42555 0.0
C95 C 0.37189 0.87101 0.41169 0.0
C96 C 0.37071 0.85642 0.38547 0.0
C97 C 0.39771 0.86027 0.3726 0.0
C98 C 0.42591 0.87927 0.3864 0.0
C99 C 0.42704 0.89377 0.41266 0.0
C100 C 0.42278 0.93452 0.45624 0.0
C101 C 0.45105 0.94466 0.47019 0.0
C102 C 0.47328 0.97537 0.4703 0.0
C103 C 0.46798 0.99644 0.45593 0.0
C104 C 0.43969 0.98599 0.44187 0.0
C105 C 0.41735 0.95546 0.44227 0.0
C106 C 0.56631 0.13055 0.49421 0.0
C107 C 0.59691 0.14838 0.50297 0.0
C108 C 0.60416 0.1596 0.53152 0.0
C109 C 0.58081 0.15311 0.55193 0.0
C110 C 0.55016 0.13445 0.54338 0.0
C111 C 0.54294 0.12344 0.51484 0.0
C112 C 0.55892 0.14509 0.4463 0.0
C113 C 0.54032 0.15714 0.45389 0.0
C114 C 0.54364 0.18247 0.43957 0.0
C115 C 0.56581 0.19658 0.41759 0.0
C116 C 0.58355 0.18385 0.40921 0.0
C117 C 0.58 0.15826 0.42341 0.0
C118 C 0.53637 0.09129 0.45832 0.0
C119 C 0.54508 0.0695 0.45652 0.0
C120 C 0.52305 0.0388 0.45504 0.0
C121 C 0.49163 0.02918 0.45576 0.0
C122 C 0.48296 0.05118 0.45674 0.0
C123 C 0.50501 0.08184 0.45768 0.0
H124 H 0.44029 0.57211 0.63885 0.0
N125 N 0.40674 0.5135 0.65722 0.0
H126 H 0.42324 0.59638 0.60422 0.0
H127 H 0.35913 0.48639 0.62168 0.0
H128 H 0.34098 0.51045 0.58821 0.0
H129 H 0.35744 0.49857 0.68918 0.0
H130 H 0.35443 0.52154 0.735 0.0
H131 H 0.4552 0.55851 0.68717 0.0
H132 H 0.45278 0.58089 0.73374 0.0
H133 H 0.46273 0.54192 0.62925 0.0
H134 H 0.401 0.46364 0.67952 0.0
H135 H 0.49921 0.52455 0.62695 0.0
H136 H 0.43817 0.44688 0.67889 0.0
H137 H 0.61448 0.46474 0.61884 0.0
H138 H 0.6267 0.4553 0.56967 0.0
H139 H 0.53073 0.41093 0.54679 0.0
H140 H 0.51866 0.41901 0.59611 0.0
H141 H 0.52243 0.38407 0.63434 0.0
H142 H 0.52868 0.34543 0.65781 0.0
H143 H 0.60131 0.41352 0.71134 0.0
H144 H 0.5949 0.45246 0.68738 0.0
H145 H 0.57129 0.50115 0.64942 0.0
H146 H 0.53469 0.51853 0.65434 0.0
H147 H 0.46015 0.42601 0.64927 0.0
N148 N 0.55947 0.44517 0.64173 0.0
H149 H 0.49673 0.40902 0.64613 0.0
C150 C 0.40096 0.52727 0.63266 0.0
C151 C 0.41919 0.55833 0.62699 0.0
C152 C 0.40915 0.57228 0.60744 0.0
C153 C 0.38048 0.55556 0.59358 0.0
C154 C 0.36336 0.52415 0.598 0.0
C155 C 0.37361 0.51024 0.61723 0.0
C156 C 0.40643 0.52658 0.68503 0.0
C157 C 0.37829 0.51642 0.69898 0.0
C158 C 0.37671 0.52949 0.72522 0.0
C159 C 0.40341 0.55295 0.73824 0.0
C160 C 0.43174 0.56309 0.72421 0.0
C161 C 0.43323 0.55013 0.69773 0.0
C162 C 0.42873 0.50374 0.65422 0.0
C163 C 0.4569 0.52096 0.63979 0.0
C164 C 0.47806 0.51114 0.63884 0.0
C165 C 0.4718 0.48425 0.65277 0.0
C166 C 0.44367 0.46733 0.66739 0.0
C167 C 0.4224 0.47692 0.6679 0.0
C168 C 0.56584 0.44296 0.61131 0.0
C169 C 0.59621 0.45341 0.60301 0.0
C170 C 0.6031 0.44803 0.57485 0.0
C171 C 0.57966 0.43222 0.55421 0.0
C172 C 0.5493 0.4227 0.56224 0.0
C173 C 0.54239 0.42775 0.59052 0.0
C174 C 0.55808 0.42134 0.65931 0.0
C175 C 0.53894 0.39074 0.65183 0.0
C176 C 0.54264 0.36854 0.66527 0.0
C177 C 0.56564 0.37639 0.68635 0.0
C178 C 0.58362 0.40679 0.69494 0.0
C179 C 0.57978 0.429 0.68154 0.0
C180 C 0.537 0.4539 0.64739 0.0
C181 C 0.54703 0.48469 0.6499 0.0
C182 C 0.52601 0.49455 0.6523 0.0
C183 C 0.49432 0.47374 0.65186 0.0
C184 C 0.48431 0.44276 0.65007 0.0
C185 C 0.50537 0.43292 0.64812 0.0
H186 H 0.14237 0.57474 0.80364 0.0
N187 N 0.11437 0.51625 0.78389 0.0
H188 H 0.18424 0.59778 0.83883 0.0
H189 H 0.13325 0.48798 0.81831 0.0
H190 H 0.176 0.51083 0.85236 0.0
H191 H 0.14403 0.49715 0.75058 0.0
H192 H 0.1723 0.51983 0.70554 0.0
H193 H 0.11646 0.56367 0.75505 0.0
H194 H 0.14372 0.58593 0.70957 0.0
H195 H 0.08919 0.54992 0.80224 0.0
H196 H 0.06785 0.4616 0.7728 0.0
H197 H 0.03464 0.53252 0.80594 0.0
H198 H 0.01312 0.44404 0.77597 0.0
H199 H 0.88398 0.48318 0.83892 0.0
H200 H 0.85993 0.47151 0.88695 0.0
H201 H 0.85133 0.3834 0.88259 0.0
H202 H 0.87207 0.39425 0.83346 0.0
H203 H 0.88892 0.39796 0.77425 0.0
H204 H 0.84534 0.35934 0.74736 0.0
H205 H 0.79805 0.40873 0.76058 0.0
H206 H 0.8428 0.44837 0.78555 0.0
H207 H 0.93444 0.49798 0.77974 0.0
H208 H 0.98926 0.51593 0.77461 0.0
H209 H 0.9747 0.43332 0.81328 0.0
N210 N 0.89147 0.44666 0.80316 0.0
H211 H 0.92053 0.41547 0.81771 0.0
C212 C 0.13454 0.52946 0.80852 0.0
C213 C 0.14876 0.56045 0.81506 0.0
C214 C 0.17308 0.57371 0.83494 0.0
C215 C 0.1839 0.55634 0.8483 0.0
C216 C 0.1682 0.525 0.84299 0.0
C217 C 0.14375 0.51179 0.8234 0.0
C218 C 0.12804 0.52852 0.756 0.0
C219 C 0.14365 0.51632 0.74146 0.0
C220 C 0.15967 0.52926 0.71571 0.0
C221 C 0.16029 0.55473 0.70393 0.0
C222 C 0.14405 0.56658 0.71827 0.0
C223 C 0.12817 0.55369 0.74415 0.0
C224 C 0.08256 0.50686 0.78744 0.0
C225 C 0.07283 0.52678 0.79663 0.0
C226 C 0.04157 0.51685 0.79849 0.0
C227 C 0.01954 0.48689 0.79125 0.0
C228 C 0.02947 0.46713 0.78208 0.0
C229 C 0.06065 0.47708 0.7802 0.0
C230 C 0.8806 0.44005 0.83288 0.0
C231 C 0.87713 0.46151 0.84861 0.0
C232 C 0.86353 0.45475 0.87622 0.0
C233 C 0.85367 0.42645 0.88909 0.0
C234 C 0.85804 0.40524 0.87347 0.0
C235 C 0.87076 0.41172 0.84548 0.0
C236 C 0.86922 0.4263 0.78217 0.0
C237 C 0.86969 0.4011 0.77069 0.0
C238 C 0.84435 0.37863 0.75551 0.0
C239 C 0.81764 0.38033 0.75225 0.0
C240 C 0.8181 0.40649 0.76221 0.0
C241 C 0.84369 0.42926 0.77668 0.0
C242 C 0.92318 0.45544 0.799 0.0
C243 C 0.94314 0.48371 0.78683 0.0
C244 C 0.97443 0.494 0.78417 0.0
C245 C 0.98632 0.47605 0.79361 0.0
C246 C 0.96623 0.44756 0.8055 0.0
C247 C 0.93505 0.43737 0.80822 0.0
H248 H 0.54344 0.14536 0.00874 0.0
N249 N 0.55666 0.117 0.96744 0.0
H250 H 0.57958 0.19084 0.03625 0.0
H251 H 0.61935 0.14286 0.96889 0.0
H252 H 0.65504 0.18776 0.99573 0.0
H253 H 0.59619 0.11546 0.92761 0.0
H254 H 0.60696 0.13696 0.87899 0.0
H255 H 0.52663 0.13913 0.93929 0.0
H256 H 0.53487 0.15804 0.8893 0.0
H257 H 0.5054 0.0679 0.95094 0.0
H258 H 0.59227 0.09578 0.99239 0.0
H259 H 0.49357 0.01567 0.95132 0.0
H260 H 0.58007 0.04399 0.9939 0.0
H261 H 0.45141 0.86894 0.99357 0.0
H262 H 0.42778 0.84358 0.03888 0.0
H263 H 0.51681 0.88616 0.08022 0.0
H264 H 0.54057 0.91041 0.03384 0.0
H265 H 0.54026 0.87384 0.97027 0.0
H266 H 0.52056 0.82902 0.93946 0.0
H267 H 0.44635 0.84152 0.91176 0.0
H268 H 0.46639 0.88653 0.94295 0.0
H269 H 0.47002 0.92212 0.98383 0.0
H270 H 0.48039 0.97367 0.98087 0.0
H271 H 0.57584 0.00488 0.96357 0.0
N272 N 0.51298 0.90463 0.98289 0.0
H273 H 0.56536 0.9532 0.96827 0.0
C274 C 0.57838 0.1403 0.98692 0.0
C275 C 0.56779 0.15411 0.00646 0.0
C276 C 0.58844 0.18022 0.02192 0.0
C277 C 0.6202 0.19292 0.0182 0.0
C278 C 0.63077 0.17835 -0.00049 0.0
C279 C 0.61019 0.15255 0.98394 0.0
C280 C 0.56112 0.12649 0.93735 0.0
C281 C 0.58307 0.12516 0.91956 0.0
C282 C 0.58877 0.13702 0.89139 0.0
C283 C 0.57199 0.1496 0.87996 0.0
C284 C 0.54896 0.14943 0.89745 0.0
C285 C 0.54389 0.13831 0.92593 0.0
C286 C 0.54977 0.08623 0.97126 0.0
C287 C 0.52175 0.06279 0.96048 0.0
C288 C 0.51499 0.03288 0.96079 0.0
C289 C 0.53598 0.0255 0.97236 0.0
C290 C 0.56367 0.04884 0.98405 0.0
C291 C 0.57061 0.07883 0.98337 0.0
C292 C 0.49798 0.89136 0.01018 0.0
C293 C 0.46597 0.87289 0.01224 0.0
C294 C 0.45237 0.85855 0.03842 0.0
C295 C 0.47035 0.86268 0.06327 0.0
C296 C 0.50229 0.88199 0.06138 0.0
C297 C 0.51591 0.89608 0.03504 0.0
C298 C 0.50479 0.88338 0.95912 0.0
C299 C 0.52035 0.86748 0.95677 0.0
C300 C 0.50899 0.84184 0.93909 0.0
C301 C 0.48164 0.83145 0.92331 0.0
C302 C 0.46723 0.84871 0.92396 0.0
C303 C 0.4788 0.87459 0.94161 0.0
C304 C 0.51712 0.93386 0.97663 0.0
C305 C 0.49313 0.93996 0.97923 0.0
C306 C 0.49912 0.96959 0.97736 0.0
C307 C 0.5291 0.99367 0.97242 0.0
C308 C 0.55264 0.98712 0.96823 0.0
C309 C 0.54668 0.95756 0.97047 0.0
H310 H 0.57615 0.44537 0.13141 0.0
N311 N 0.60705 0.50319 0.1528 0.0
H312 H 0.59659 0.42341 0.09717 0.0
H313 H 0.65697 0.53268 0.12059 0.0
H314 H 0.67853 0.51092 0.08775 0.0
H315 H 0.65457 0.51873 0.1874 0.0
H316 H 0.65546 0.49562 0.23348 0.0
H317 H 0.55762 0.45639 0.17963 0.0
H318 H 0.55782 0.43384 0.2265 0.0
H319 H 0.55251 0.47426 0.12247 0.0
H320 H 0.6107 0.55222 0.17552 0.0
H321 H 0.51499 0.4903 0.11937 0.0
H322 H 0.57251 0.56761 0.17407 0.0
H323 H 0.39478 0.5474 0.11781 0.0
H324 H 0.38169 0.55931 0.07045 0.0
H325 H 0.47742 0.60608 0.0462 0.0
H326 H 0.49034 0.59564 0.0939 0.0
H327 H 0.48615 0.6277 0.13651 0.0
H328 H 0.48009 0.66399 0.16556 0.0
H329 H 0.40766 0.59132 0.21479 0.0
H330 H 0.41437 0.55473 0.18572 0.0
H331 H 0.43999 0.51044 0.14315 0.0
H332 H 0.47778 0.49442 0.14646 0.0
H333 H 0.55046 0.58787 0.14438 0.0
N334 N 0.45013 0.56616 0.13922 0.0
H335 H 0.51281 0.60345 0.14283 0.0
C336 C 0.61506 0.49083 0.12833 0.0
C337 C 0.59794 0.46 0.121 0.0
C338 C 0.60992 0.44738 0.10171 0.0
C339 C 0.63947 0.4652 0.08986 0.0
C340 C 0.65555 0.49641 0.09592 0.0
C341 C 0.64335 0.509 0.11482 0.0
C342 C 0.60612 0.48954 0.18039 0.0
C343 C 0.63341 0.50027 0.19597 0.0
C344 C 0.63377 0.48713 0.22236 0.0
C345 C 0.60662 0.46304 0.23392 0.0
C346 C 0.57917 0.45218 0.21814 0.0
C347 C 0.57894 0.4652 0.19149 0.0
C348 C 0.58479 0.5124 0.14892 0.0
C349 C 0.55735 0.49489 0.1334 0.0
C350 C 0.53561 0.50394 0.13197 0.0
C351 C 0.54058 0.5303 0.14649 0.0
C352 C 0.56805 0.54757 0.16207 0.0
C353 C 0.58989 0.53877 0.16306 0.0
C354 C 0.44336 0.5702 0.10954 0.0
C355 C 0.41283 0.55985 0.10205 0.0
C356 C 0.40543 0.56665 0.07491 0.0
C357 C 0.42852 0.58377 0.05442 0.0
C358 C 0.45908 0.59334 0.06159 0.0
C359 C 0.46649 0.58691 0.08892 0.0
C360 C 0.45097 0.58833 0.15926 0.0
C361 C 0.46986 0.61946 0.1543 0.0
C362 C 0.46625 0.64029 0.1709 0.0
C363 C 0.44339 0.63049 0.19246 0.0
C364 C 0.4254 0.59947 0.19825 0.0
C365 C 0.42932 0.57862 0.18186 0.0
C366 C 0.4733 0.55802 0.14279 0.0
C367 C 0.46412 0.52738 0.14379 0.0
C368 C 0.48579 0.5183 0.14531 0.0
C369 C 0.51731 0.53981 0.1455 0.0
C370 C 0.52646 0.5706 0.14477 0.0
C371 C 0.50476 0.57963 0.14372 0.0
O372 O 0.58968 0.3797 0.42674 0.0
Cd373 Cd 0.59733 0.36382 0.38784 0.0
Cd374 Cd 0.65387 0.41281 0.39337 0.0
O375 O 0.63742 0.41632 0.43325 0.0
O376 O 0.56685 0.3199 0.38571 0.0
O377 O 0.61683 0.33842 0.38975 0.0
C378 C 0.58944 0.31522 0.38827 0.0
C379 C 0.70383 0.42192 0.3904 0.0
C380 C 0.60993 0.40126 0.44211 0.0
C381 C 0.61592 0.41036 0.34177 0.0
O382 O 0.63964 0.42597 0.35731 0.0
O383 O 0.59618 0.38359 0.34911 0.0
O384 O 0.69823 0.4432 0.39604 0.0
O385 O 0.68083 0.39487 0.38718 0.0
O386 O 0.23696 0.59558 0.58186 0.0
Cd387 Cd 0.26636 0.61091 0.54654 0.0
Cd388 Cd 0.26536 0.66227 0.55943 0.0
O389 O 0.24581 0.63989 0.59769 0.0
O390 O 0.27983 0.58102 0.54116 0.0
O391 O 0.31116 0.62832 0.55497 0.0
C392 C 0.30672 0.6017 0.54953 0.0
C393 C 0.29976 0.71427 0.5599 0.0
C394 C 0.23353 0.61159 0.60109 0.0
C395 C 0.23645 0.62923 0.50288 0.0
O396 O 0.23873 0.64809 0.52222 0.0
O397 O 0.24882 0.61341 0.50685 0.0
O398 O 0.27103 0.70314 0.56509 0.0
O399 O 0.30952 0.69569 0.55601 0.0
O400 O 0.62988 0.21072 0.75496 0.0
Cd401 Cd 0.65079 0.23565 0.71829 0.0
Cd402 Cd 0.60046 0.24202 0.7167 0.0
O403 O 0.59254 0.2209 0.75669 0.0
O404 O 0.69519 0.25045 0.72229 0.0
O405 O 0.67597 0.2807 0.7206 0.0
C406 C 0.69952 0.27742 0.72297 0.0
C407 C 0.59159 0.28224 0.71359 0.0
C408 C 0.60662 0.20873 0.76763 0.0
C409 C 0.61156 0.20978 0.66616 0.0
O410 O 0.59424 0.21797 0.67821 0.0
O411 O 0.63627 0.2152 0.67842 0.0
O412 O 0.56936 0.25469 0.71462 0.0
O413 O 0.6192 0.2871 0.71465 0.0
O414 O 0.41776 0.63864 0.92973 0.0
Cd415 Cd 0.41157 0.65525 0.89084 0.0
Cd416 Cd 0.3536 0.60608 0.89633 0.0
O417 O 0.36969 0.60278 0.93627 0.0
O418 O 0.44743 0.69688 0.88774 0.0
O419 O 0.39988 0.68723 0.89295 0.0
C420 C 0.42877 0.70679 0.89068 0.0
C421 C 0.3043 0.59844 0.89272 0.0
C422 C 0.39723 0.61746 0.94507 0.0
C423 C 0.39107 0.60706 0.8449 0.0
O424 O 0.36742 0.59172 0.86053 0.0
O425 O 0.41091 0.63392 0.85214 0.0
O426 O 0.30894 0.57674 0.899 0.0
O427 O 0.32787 0.62509 0.88937 0.0
O428 O 0.78216 0.37504 0.01368 0.0
Cd429 Cd 0.75763 0.36113 0.0525 0.0
Cd430 Cd 0.75879 0.41401 0.04657 0.0
O431 O 0.77969 0.4163 0.00763 0.0
O432 O 0.74258 0.31717 0.05514 0.0
O433 O 0.71178 0.33551 0.04974 0.0
C434 C 0.71521 0.31236 0.05172 0.0
C435 C 0.71836 0.42314 0.04907 0.0
C436 C 0.78813 0.39821 -0.00113 0.0
C437 C 0.79063 0.40819 0.09882 0.0
O438 O 0.78587 0.42556 0.08298 0.0
O439 O 0.77975 0.38068 0.09162 0.0
O440 O 0.74593 0.44452 0.04379 0.0
O441 O 0.71346 0.39609 0.05206 0.0
O442 O 0.42797 0.79104 0.18703 0.0
Cd443 Cd 0.41211 0.76537 0.22438 0.0
Cd444 Cd 0.36062 0.76498 0.21012 0.0
O445 O 0.38384 0.78504 0.1723 0.0
O446 O 0.44091 0.75054 0.23147 0.0
O447 O 0.39204 0.7205 0.22016 0.0
C448 C 0.41857 0.72378 0.22556 0.0
C449 C 0.31152 0.72298 0.20988 0.0
C450 C 0.41224 0.79531 0.16819 0.0
C451 C 0.39103 0.79574 0.26621 0.0
O452 O 0.3712 0.79153 0.24699 0.0
O453 O 0.40887 0.78543 0.26233 0.0
O454 O 0.3164 0.74924 0.20264 0.0
O455 O 0.33489 0.72027 0.21585 0.0
C456 C 0.22534 0.67996 0.21404 0.0
C457 C 0.22012 0.65867 0.23578 0.0
H458 H 0.25854 0.71707 0.18862 0.0
C459 C 0.2448 0.65539 0.24479 0.0
H460 H 0.20678 0.68258 0.20596 0.0
C461 C 0.27437 0.67473 0.23429 0.0
C462 C 0.27992 0.69799 0.21491 0.0
H463 H 0.24185 0.63946 0.26163 0.0
H464 H 0.29316 0.67293 0.24315 0.0
C465 C 0.25498 0.69961 0.20393 0.0
C466 C 0.60231 0.25025 0.40347 0.0
C467 C 0.57207 0.22592 0.40562 0.0
H468 H 0.63159 0.29763 0.39625 0.0
C469 C 0.54784 0.23073 0.39907 0.0
H470 H 0.62148 0.24733 0.40863 0.0
C471 C 0.55361 0.25953 0.39208 0.0
C472 C 0.58376 0.2842 0.39158 0.0
H473 H 0.52431 0.21234 0.40018 0.0
H474 H 0.53433 0.26261 0.38812 0.0
C475 C 0.6081 0.27912 0.39656 0.0
C476 C 0.37058 0.59854 0.58811 0.0
C477 C 0.36656 0.5709 0.5777 0.0
H478 H 0.35512 0.63029 0.58689 0.0
C479 C 0.34604 0.55633 0.55445 0.0
H480 H 0.38589 0.61037 0.60615 0.0
C481 C 0.3279 0.56748 0.54391 0.0
C482 C 0.33033 0.5938 0.55592 0.0
H483 H 0.34293 0.5355 0.54527 0.0
H484 H 0.31101 0.55475 0.52721 0.0
C485 C 0.35281 0.60997 0.57715 0.0
C486 C 0.76628 0.35771 0.72698 0.0
C487 C 0.78855 0.35387 0.74146 0.0
H488 H 0.7205 0.3366 0.7101 0.0
C489 C 0.78163 0.32434 0.74789 0.0
H490 H 0.77086 0.37994 0.72102 0.0
C491 C 0.75311 0.29955 0.74084 0.0
C492 C 0.73049 0.30361 0.72777 0.0
H493 H 0.79768 0.32024 0.75956 0.0
H494 H 0.74836 0.27723 0.7468 0.0
C495 C 0.73743 0.33287 0.72054 0.0
C496 C 0.48455 0.79067 0.8956 0.0
C497 C 0.46675 0.80102 0.90938 0.0
H498 H 0.48643 0.75279 0.87871 0.0
C499 C 0.43521 0.78072 0.91322 0.0
H500 H 0.50877 0.80582 0.8918 0.0
C501 C 0.4223 0.75028 0.90542 0.0
C502 C 0.44072 0.73956 0.89382 0.0
H503 H 0.42085 0.78784 0.92398 0.0
H504 H 0.39832 0.73489 0.9101 0.0
C505 C 0.47171 0.76027 0.88803 0.0
C506 C 0.65094 0.42322 0.08393 0.0
C507 C 0.65521 0.45114 0.07453 0.0
H508 H 0.66731 0.39218 0.08273 0.0
C509 C 0.67753 0.46715 0.05305 0.0
H510 H 0.63428 0.41029 0.10063 0.0
C511 C 0.697 0.45707 0.04342 0.0
C512 C 0.69408 0.43037 0.05449 0.0
H513 H 0.68094 0.48825 0.04461 0.0
H514 H 0.71513 0.47082 0.02817 0.0
C515 C 0.67001 0.41283 0.07379 0.0
C516 C 0.32401 0.79425 0.54005 0.0
C517 C 0.35574 0.8073 0.53542 0.0
H518 H 0.28187 0.75519 0.55195 0.0
C519 C 0.36949 0.79031 0.54288 0.0
H520 H 0.31211 0.80594 0.53423 0.0
C521 C 0.35162 0.76038 0.55223 0.0
C522 C 0.31975 0.74706 0.55506 0.0
H523 H 0.39391 0.79966 0.54052 0.0
H524 H 0.36261 0.74739 0.55631 0.0
C525 C 0.30639 0.76474 0.55003 0.0
C526 C 0.54862 0.32384 0.70312 0.0
C527 C 0.57248 0.35325 0.6971 0.0
H528 H 0.53595 0.27847 0.71323 0.0
C529 C 0.60292 0.35966 0.69888 0.0
H530 H 0.52496 0.31826 0.70234 0.0
C531 C 0.60928 0.33684 0.70523 0.0
C532 C 0.58532 0.30715 0.70991 0.0
H533 H 0.62184 0.38201 0.69404 0.0
H534 H 0.63291 0.34227 0.70549 0.0
C535 C 0.55496 0.30105 0.70944 0.0
C536 C 0.23848 0.59834 0.85476 0.0
C537 C 0.21348 0.57091 0.86456 0.0
H538 H 0.28696 0.62893 0.85651 0.0
C539 C 0.21829 0.55563 0.88741 0.0
H540 H 0.23587 0.61069 0.83705 0.0
C541 C 0.24776 0.56578 0.898 0.0
C542 C 0.27295 0.59181 0.88649 0.0
H543 H 0.1995 0.53494 0.89613 0.0
H544 H 0.25099 0.55247 0.91429 0.0
C545 C 0.2679 0.60881 0.86582 0.0
C546 C 0.67057 0.22755 0.04244 0.0
C547 C 0.64247 0.22252 0.03154 0.0
H548 H 0.71542 0.25977 0.05766 0.0
C549 C 0.63724 0.24686 0.03062 0.0
H550 H 0.67512 0.20919 0.04389 0.0
C551 C 0.66035 0.27594 0.03867 0.0
C552 C 0.68913 0.28122 0.04775 0.0
H553 H 0.61592 0.2438 0.02214 0.0
H554 H 0.65613 0.29445 0.03642 0.0
C555 C 0.69364 0.25655 0.05042 0.0
C556 C 0.46015 0.68076 0.21566 0.0
C557 C 0.43638 0.65246 0.20624 0.0
H558 H 0.47307 0.72539 0.22969 0.0
C559 C 0.40612 0.64664 0.20676 0.0
H560 H 0.48364 0.68574 0.21575 0.0
C561 C 0.40003 0.66938 0.21461 0.0
C562 C 0.42406 0.6983 0.22225 0.0
H563 H 0.38736 0.62509 0.19939 0.0
H564 H 0.37667 0.66469 0.21338 0.0
C565 C 0.45404 0.70342 0.22371 0.0
C566 C 0.77155 0.42095 0.35703 0.0
C567 C 0.79554 0.45003 0.36447 0.0
H568 H 0.72341 0.38897 0.35976 0.0
C569 C 0.78973 0.46739 0.38446 0.0
H570 H 0.77522 0.40705 0.34158 0.0
C571 C 0.76006 0.45723 0.39447 0.0
C572 C 0.73563 0.42931 0.38503 0.0
H573 H 0.80786 0.48958 0.39116 0.0
H574 H 0.75603 0.47192 0.4085 0.0
C575 C 0.74182 0.41062 0.36734 0.0
C576 C 0.18501 0.63678 0.44822 0.0
C577 C 0.18482 0.61889 0.42478 0.0
H578 H 0.20144 0.65416 0.49099 0.0
C579 C 0.20148 0.60396 0.42738 0.0
H580 H 0.172 0.64816 0.44717 0.0
C581 C 0.21822 0.60717 0.45275 0.0
C582 C 0.21873 0.62547 0.47597 0.0
H583 H 0.2021 0.59028 0.40959 0.0
H584 H 0.231 0.59558 0.45403 0.0
C585 C 0.20183 0.64013 0.47343 0.0
C586 C 0.61342 0.16955 0.59717 0.0
C587 C 0.58826 0.16678 0.58162 0.0
H588 H 0.64045 0.18516 0.63609 0.0
C589 C 0.57053 0.17778 0.59438 0.0
H590 H 0.62731 0.16098 0.5881 0.0
C591 C 0.57785 0.19136 0.62196 0.0
C592 C 0.6032 0.19443 0.63738 0.0
H593 H 0.55131 0.17648 0.58279 0.0
H594 H 0.56387 0.19986 0.63099 0.0
C595 C 0.62084 0.18327 0.62474 0.0
C596 C 0.38049 0.54898 0.78787 0.0
C597 C 0.40143 0.56688 0.76612 0.0
H598 H 0.36076 0.54759 0.82958 0.0
C599 C 0.41974 0.59816 0.77097 0.0
H600 H 0.36649 0.52475 0.7852 0.0
C601 C 0.41679 0.61125 0.79675 0.0
C602 C 0.39526 0.59336 0.81807 0.0
H603 H 0.43584 0.61268 0.75455 0.0
H604 H 0.4309 0.63544 0.79967 0.0
C605 C 0.3773 0.56207 0.81342 0.0
C606 C 0.84467 0.4414 0.93909 0.0
C607 C 0.83787 0.41874 0.91804 0.0
H608 H 0.83378 0.45261 0.98085 0.0
C609 C 0.81511 0.38882 0.92463 0.0
H610 H 0.86256 0.46452 0.93544 0.0
C611 C 0.79956 0.3819 0.95133 0.0
C612 C 0.80571 0.40485 0.97157 0.0
H613 H 0.80858 0.37072 0.90895 0.0
H614 H 0.78195 0.3588 0.95571 0.0
C615 C 0.8284 0.4346 0.9653 0.0
C616 C 0.47034 0.83455 0.10794 0.0
C617 C 0.45584 0.84616 0.09068 0.0
H618 H 0.46797 0.80942 0.1459 0.0
C619 C 0.42693 0.84104 0.09936 0.0
H620 H 0.49234 0.83756 0.10167 0.0
C621 C 0.41269 0.82434 0.12439 0.0
C622 C 0.4272 0.81274 0.14155 0.0
H623 H 0.41531 0.85007 0.08692 0.0
H624 H 0.39043 0.82081 0.13045 0.0
C625 C 0.45626 0.81819 0.13319 0.0
C626 C 0.62656 0.4677 0.2849 0.0
C627 C 0.6073 0.44939 0.26222 0.0
H628 H 0.64437 0.46975 0.3276 0.0
C629 C 0.5896 0.41803 0.26656 0.0
H630 H 0.63993 0.49199 0.28265 0.0
C631 C 0.59173 0.40527 0.2927 0.0
C632 C 0.61186 0.42361 0.31485 0.0
H633 H 0.57475 0.40321 0.24946 0.0
H634 H 0.5783 0.38102 0.29521 0.0
C635 C 0.62897 0.45496 0.31078 0.0
C636 C 0.37641 0.84127 0.32251 0.0
C637 C 0.39638 0.84413 0.34514 0.0
H638 H 0.3591 0.82386 0.27988 0.0
C639 C 0.41482 0.83118 0.3415 0.0
H640 H 0.36221 0.85135 0.32447 0.0
C641 C 0.41324 0.81561 0.31582 0.0
C642 C 0.39311 0.81258 0.29327 0.0
H643 H 0.43012 0.83261 0.3587 0.0
H644 H 0.42761 0.80573 0.31378 0.0
C645 C 0.37476 0.82564 0.29688 0.0
C646 C 0.61395 0.44507 0.51034 0.0
C647 C 0.58678 0.42468 0.52489 0.0
H648 H 0.64257 0.4536 0.47297 0.0
C649 C 0.56691 0.39663 0.51158 0.0
H650 H 0.6295 0.46707 0.51963 0.0
C651 C 0.57417 0.38911 0.48451 0.0
C652 C 0.60163 0.4093 0.47036 0.0
H653 H 0.54604 0.38014 0.52235 0.0
H654 H 0.55855 0.36725 0.47497 0.0
C655 C 0.62138 0.43739 0.4835 0.0
C656 C 0.1797 0.55176 0.65415 0.0
C657 C 0.17857 0.56931 0.67728 0.0
H658 H 0.19796 0.55128 0.61209 0.0
C659 C 0.19563 0.60093 0.67507 0.0
H660 H 0.16651 0.52736 0.65497 0.0
C661 C 0.21344 0.61466 0.65033 0.0
C662 C 0.21474 0.59709 0.62733 0.0
H663 H 0.19568 0.61513 0.69268 0.0
H664 H 0.2264 0.63907 0.64939 0.0
C665 C 0.19766 0.56549 0.62951 0.0
C666 C 0.57582 0.18869 0.84452 0.0
C667 C 0.57924 0.16371 0.85042 0.0
H668 H 0.58133 0.22213 0.81355 0.0
C669 C 0.59074 0.15313 0.82813 0.0
H670 H 0.56773 0.19806 0.86113 0.0
C671 C 0.59962 0.16777 0.80123 0.0
C672 C 0.59632 0.19272 0.79564 0.0
H673 H 0.59298 0.13353 0.83135 0.0
H674 H 0.60885 0.1594 0.78468 0.0
C675 C 0.58386 0.20274 0.81729 0.0
C676 C 0.44043 0.62079 0.01369 0.0
C677 C 0.42081 0.59232 0.02608 0.0
H678 H 0.44845 0.65104 0.97836 0.0
C679 C 0.39347 0.57233 0.01144 0.0
H680 H 0.46139 0.63703 0.02458 0.0
C681 C 0.38576 0.58068 0.98533 0.0
C682 C 0.40541 0.60906 0.97296 0.0
H683 H 0.37807 0.55004 0.01997 0.0
H684 H 0.36454 0.56468 0.97462 0.0
C685 C 0.43292 0.62896 0.9873 0.0
C686 C 0.82159 0.41428 0.17543 0.0
C687 C 0.84163 0.44564 0.17815 0.0
H688 H 0.78981 0.3777 0.14804 0.0
C689 C 0.84594 0.46402 0.1539 0.0
H690 H 0.81749 0.39944 0.19371 0.0
C691 C 0.8296 0.45166 0.12814 0.0
C692 C 0.80899 0.42052 0.1257 0.0
H693 H 0.86181 0.48811 0.15482 0.0
H694 H 0.83311 0.4666 0.11009 0.0
C695 C 0.80559 0.40181 0.14934 0.0
loop_
_geom_bond_atom_site_label_1
_geom_bond_atom_site_label_2
_geom_bond_distance
_geom_bond_site_symmetry_2
_ccdc_geom_bond_type
H0 C27 0.929 . S
N1 C26 1.433 . S
N1 C32 1.435 . S
N1 C38 1.423 . S
H2 C28 0.930 . S
H3 C31 0.931 . S
H4 C30 0.929 . S
H5 C33 0.930 . S
H6 C34 0.932 . S
H7 C37 0.929 . S
H8 C36 0.931 . S
H9 C39 0.929 . S
H10 C43 0.932 . S
H11 C40 0.931 . S
H12 C42 0.929 . S
H13 C45 0.929 . S
H14 C46 0.930 . S
H15 C48 0.929 . S
H16 C49 0.931 . S
H17 C51 0.930 . S
H18 C52 0.932 . S
H19 C54 0.931 . S
H20 C55 0.929 . S
H21 C57 0.929 . S
H22 C58 0.931 . S
H23 C60 0.929 . S
N24 C44 1.433 . S
N24 C50 1.435 . S
N24 C56 1.423 . S
H25 C61 0.932 . S
C26 N1 1.433 . S
C26 C27 1.363 . S
C26 C31 1.370 . S
C27 H0 0.929 . S
C27 C26 1.363 . S
C27 C28 1.385 . S
C28 H2 0.930 . S
C28 C27 1.385 . S
C28 C29 1.357 . S
C29 C28 1.357 . S
C29 C30 1.406 . S
C30 H4 0.929 . S
C30 C29 1.406 . S
C30 C31 1.391 . S
C31 H3 0.931 . S
C31 C26 1.370 . S
C31 C30 1.391 . S
C32 N1 1.435 . S
C32 C33 1.358 . S
C32 C37 1.371 . S
C33 H5 0.930 . S
C33 C32 1.358 . S
C33 C34 1.405 . S
C34 H6 0.932 . S
C34 C33 1.405 . S
C34 C35 1.383 . S
C35 C34 1.383 . S
C35 C36 1.393 . S
C36 H8 0.931 . S
C36 C35 1.393 . S
C36 C37 1.382 . S
C37 H7 0.929 . S
C37 C32 1.371 . S
C37 C36 1.382 . S
C38 N1 1.423 . S
C38 C39 1.362 . S
C38 C43 1.388 . S
C39 H9 0.929 . S
C39 C38 1.362 . S
C39 C40 1.376 . S
C40 H11 0.931 . S
C40 C39 1.376 . S
C40 C41 1.396 . S
C41 C40 1.396 . S
C41 C42 1.348 . S
C41 C59 1.472 1_455 S
C42 H12 0.929 . S
C42 C41 1.348 . S
C42 C43 1.443 . S
C43 H10 0.932 . S
C43 C38 1.388 . S
C43 C42 1.443 . S
C44 N24 1.433 . S
C44 C45 1.363 . S
C44 C49 1.370 . S
C45 H13 0.929 . S
C45 C44 1.363 . S
C45 C46 1.385 . S
C46 H14 0.930 . S
C46 C45 1.385 . S
C46 C47 1.357 . S
C47 C46 1.357 . S
C47 C48 1.406 . S
C48 H15 0.929 . S
C48 C47 1.406 . S
C48 C49 1.391 . S
C49 H16 0.931 . S
C49 C44 1.370 . S
C49 C48 1.391 . S
C50 N24 1.435 . S
C50 C51 1.358 . S
C50 C55 1.371 . S
C51 H17 0.930 . S
C51 C50 1.358 . S
C51 C52 1.405 . S
C52 H18 0.932 . S
C52 C51 1.405 . S
C52 C53 1.383 . S
C53 C52 1.383 . S
C53 C54 1.393 . S
C54 H19 0.931 . S
C54 C53 1.393 . S
C54 C55 1.382 . S
C55 H20 0.929 . S
C55 C50 1.371 . S
C55 C54 1.382 . S
C56 N24 1.423 . S
C56 C57 1.362 . S
C56 C61 1.388 . S
C57 H21 0.929 . S
C57 C56 1.362 . S
C57 C58 1.376 . S
C58 H22 0.931 . S
C58 C57 1.376 . S
C58 C59 1.396 . S
C59 C41 1.472 1_655 S
C59 C58 1.396 . S
C59 C60 1.348 . S
C60 H23 0.929 . S
C60 C59 1.348 . S
C60 C61 1.443 . S
C61 H25 0.932 . S
C61 C56 1.388 . S
C61 C60 1.443 . S
H62 C89 0.929 . S
N63 C88 1.433 . S
N63 C94 1.435 . S
N63 C100 1.423 . S
H64 C90 0.930 . S
H65 C93 0.931 . S
H66 C92 0.929 . S
H67 C95 0.930 . S
H68 C96 0.932 . S
H69 C99 0.929 . S
H70 C98 0.931 . S
H71 C101 0.929 . S
H72 C105 0.932 . S
H73 C102 0.931 . S
H74 C104 0.924 1_545 S
H75 C107 0.929 . S
H76 C108 0.930 . S
H77 C110 0.929 . S
H78 C111 0.931 . S
H79 C113 0.930 . S
H80 C114 0.932 . S
H81 C116 0.931 . S
H82 C117 0.929 . S
H83 C119 0.929 . S
H84 C120 0.931 . S
H85 C122 0.929 . S
N86 C106 1.433 . S
N86 C112 1.435 . S
N86 C118 1.423 . S
H87 C123 0.932 . S
C88 N63 1.433 . S
C88 C89 1.363 . S
C88 C93 1.370 . S
C89 H62 0.929 . S
C89 C88 1.363 . S
C89 C90 1.385 . S
C90 H64 0.930 . S
C90 C89 1.385 . S
C90 C91 1.357 . S
C91 C90 1.357 . S
C91 C92 1.406 . S
C92 H66 0.929 . S
C92 C91 1.406 . S
C92 C93 1.391 . S
C93 H65 0.931 . S
C93 C88 1.370 . S
C93 C92 1.391 . S
C94 N63 1.435 . S
C94 C95 1.358 . S
C94 C99 1.371 . S
C95 H67 0.930 . S
C95 C94 1.358 . S
C95 C96 1.405 . S
C96 H68 0.932 . S
C96 C95 1.405 . S
C96 C97 1.383 . S
C97 C96 1.383 . S
C97 C98 1.393 . S
C98 H70 0.931 . S
C98 C97 1.393 . S
C98 C99 1.382 . S
C99 H69 0.929 . S
C99 C94 1.371 . S
C99 C98 1.382 . S
C100 N63 1.423 . S
C100 C101 1.362 . S
C100 C105 1.388 . S
C101 H71 0.929 . S
C101 C100 1.362 . S
C101 C102 1.376 . S
C102 H73 0.931 . S
C102 C101 1.376 . S
C102 C103 1.396 . S
C103 C102 1.396 . S
C103 C104 1.348 . S
C103 C121 1.472 1_565 S
C104 H74 0.924 1_565 S
C104 C103 1.348 . S
C104 C105 1.443 . S
C105 H72 0.932 . S
C105 C100 1.388 . S
C105 C104 1.443 . S
C106 N86 1.433 . S
C106 C107 1.363 . S
C106 C111 1.370 . S
C107 H75 0.929 . S
C107 C106 1.363 . S
C107 C108 1.385 . S
C108 H76 0.930 . S
C108 C107 1.385 . S
C108 C109 1.357 . S
C109 C108 1.357 . S
C109 C110 1.406 . S
C110 H77 0.929 . S
C110 C109 1.406 . S
C110 C111 1.391 . S
C111 H78 0.931 . S
C111 C106 1.370 . S
C111 C110 1.391 . S
C112 N86 1.435 . S
C112 C113 1.358 . S
C112 C117 1.371 . S
C113 H79 0.930 . S
C113 C112 1.358 . S
C113 C114 1.405 . S
C114 H80 0.932 . S
C114 C113 1.405 . S
C114 C115 1.383 . S
C115 C114 1.383 . S
C115 C116 1.393 . S
C116 H81 0.931 . S
C116 C115 1.393 . S
C116 C117 1.382 . S
C117 H82 0.929 . S
C117 C112 1.371 . S
C117 C116 1.382 . S
C118 N86 1.423 . S
C118 C119 1.362 . S
C118 C123 1.388 . S
C119 H83 0.929 . S
C119 C118 1.362 . S
C119 C120 1.376 . S
C120 H84 0.931 . S
C120 C119 1.376 . S
C120 C121 1.396 . S
C121 C103 1.472 1_545 S
C121 C120 1.396 . S
C121 C122 1.348 . S
C122 H85 0.929 . S
C122 C121 1.348 . S
C122 C123 1.443 . S
C123 H87 0.932 . S
C123 C118 1.388 . S
C123 C122 1.443 . S
H124 C151 0.929 . S
N125 C150 1.433 . S
N125 C156 1.435 . S
N125 C162 1.423 . S
H126 C152 0.930 . S
H127 C155 0.931 . S
H128 C154 0.929 . S
H129 C157 0.930 . S
H130 C158 0.932 . S
H131 C161 0.929 . S
H132 C160 0.931 . S
H133 C163 0.929 . S
H134 C167 0.932 . S
H135 C164 0.931 . S
H136 C166 0.929 . S
H137 C169 0.929 . S
H138 C170 0.930 . S
H139 C172 0.929 . S
H140 C173 0.931 . S
H141 C175 0.930 . S
H142 C176 0.932 . S
H143 C178 0.931 . S
H144 C179 0.929 . S
H145 C181 0.929 . S
H146 C182 0.931 . S
H147 C184 0.929 . S
N148 C168 1.433 . S
N148 C174 1.435 . S
N148 C180 1.423 . S
H149 C185 0.932 . S
C150 N125 1.433 . S
C150 C151 1.363 . S
C150 C155 1.370 . S
C151 H124 0.929 . S
C151 C150 1.363 . S
C151 C152 1.385 . S
C152 H126 0.930 . S
C152 C151 1.385 . S
C152 C153 1.357 . S
C153 C152 1.357 . S
C153 C154 1.406 . S
C154 H128 0.929 . S
C154 C153 1.406 . S
C154 C155 1.391 . S
C155 H127 0.931 . S
C155 C150 1.370 . S
C155 C154 1.391 . S
C156 N125 1.435 . S
C156 C157 1.358 . S
C156 C161 1.371 . S
C157 H129 0.930 . S
C157 C156 1.358 . S
C157 C158 1.405 . S
C158 H130 0.932 . S
C158 C157 1.405 . S
C158 C159 1.383 . S
C159 C158 1.383 . S
C159 C160 1.393 . S
C160 H132 0.931 . S
C160 C159 1.393 . S
C160 C161 1.382 . S
C161 H131 0.929 . S
C161 C156 1.371 . S
C161 C160 1.382 . S
C162 N125 1.423 . S
C162 C163 1.362 . S
C162 C167 1.388 . S
C163 H133 0.929 . S
C163 C162 1.362 . S
C163 C164 1.376 . S
C164 H135 0.931 . S
C164 C163 1.376 . S
C164 C165 1.396 . S
C165 C164 1.396 . S
C165 C166 1.348 . S
C165 C183 1.472 . S
C166 H136 0.929 . S
C166 C165 1.348 . S
C166 C167 1.443 . S
C167 H134 0.932 . S
C167 C162 1.388 . S
C167 C166 1.443 . S
C168 N148 1.433 . S
C168 C169 1.363 . S
C168 C173 1.370 . S
C169 H137 0.929 . S
C169 C168 1.363 . S
C169 C170 1.385 . S
C170 H138 0.930 . S
C170 C169 1.385 . S
C170 C171 1.357 . S
C171 C170 1.357 . S
C171 C172 1.406 . S
C172 H139 0.929 . S
C172 C171 1.406 . S
C172 C173 1.391 . S
C173 H140 0.931 . S
C173 C168 1.370 . S
C173 C172 1.391 . S
C174 N148 1.435 . S
C174 C175 1.358 . S
C174 C179 1.371 . S
C175 H141 0.930 . S
C175 C174 1.358 . S
C175 C176 1.405 . S
C176 H142 0.932 . S
C176 C175 1.405 . S
C176 C177 1.383 . S
C177 C176 1.383 . S
C177 C178 1.393 . S
C178 H143 0.931 . S
C178 C177 1.393 . S
C178 C179 1.382 . S
C179 H144 0.929 . S
C179 C174 1.371 . S
C179 C178 1.382 . S
C180 N148 1.423 . S
C180 C181 1.362 . S
C180 C185 1.388 . S
C181 H145 0.929 . S
C181 C180 1.362 . S
C181 C182 1.376 . S
C182 H146 0.931 . S
C182 C181 1.376 . S
C182 C183 1.396 . S
C183 C165 1.472 . S
C183 C182 1.396 . S
C183 C184 1.348 . S
C184 H147 0.929 . S
C184 C183 1.348 . S
C184 C185 1.443 . S
C185 H149 0.932 . S
C185 C180 1.388 . S
C185 C184 1.443 . S
H186 C213 0.929 . S
N187 C212 1.433 . S
N187 C218 1.435 . S
N187 C224 1.423 . S
H188 C214 0.930 . S
H189 C217 0.931 . S
H190 C216 0.929 . S
H191 C219 0.930 . S
H192 C220 0.932 . S
H193 C223 0.929 . S
H194 C222 0.931 . S
H195 C225 0.929 . S
H196 C229 0.932 . S
H197 C226 0.931 . S
H198 C228 0.929 . S
H199 C231 0.929 . S
H200 C232 0.930 . S
H201 C234 0.929 . S
H202 C235 0.931 . S
H203 C237 0.930 . S
H204 C238 0.932 . S
H205 C240 0.931 . S
H206 C241 0.929 . S
H207 C243 0.929 . S
H208 C244 0.931 . S
H209 C246 0.929 . S
N210 C230 1.433 . S
N210 C236 1.435 . S
N210 C242 1.423 . S
H211 C247 0.932 . S
C212 N187 1.433 . S
C212 C213 1.363 . S
C212 C217 1.370 . S
C213 H186 0.929 . S
C213 C212 1.363 . S
C213 C214 1.385 . S
C214 H188 0.930 . S
C214 C213 1.385 . S
C214 C215 1.357 . S
C215 C214 1.357 . S
C215 C216 1.406 . S
C216 H190 0.929 . S
C216 C215 1.406 . S
C216 C217 1.391 . S
C217 H189 0.931 . S
C217 C212 1.370 . S
C217 C216 1.391 . S
C218 N187 1.435 . S
C218 C219 1.358 . S
C218 C223 1.371 . S
C219 H191 0.930 . S
C219 C218 1.358 . S
C219 C220 1.405 . S
C220 H192 0.932 . S
C220 C219 1.405 . S
C220 C221 1.383 . S
C221 C220 1.383 . S
C221 C222 1.393 . S
C222 H194 0.931 . S
C222 C221 1.393 . S
C222 C223 1.382 . S
C223 H193 0.929 . S
C223 C218 1.371 . S
C223 C222 1.382 . S
C224 N187 1.423 . S
C224 C225 1.362 . S
C224 C229 1.388 . S
C225 H195 0.929 . S
C225 C224 1.362 . S
C225 C226 1.376 . S
C226 H197 0.931 . S
C226 C225 1.376 . S
C226 C227 1.396 . S
C227 C226 1.396 . S
C227 C228 1.348 . S
C227 C245 1.472 1_455 S
C228 H198 0.929 . S
C228 C227 1.348 . S
C228 C229 1.443 . S
C229 H196 0.932 . S
C229 C224 1.388 . S
C229 C228 1.443 . S
C230 N210 1.433 . S
C230 C231 1.363 . S
C230 C235 1.370 . S
C231 H199 0.929 . S
C231 C230 1.363 . S
C231 C232 1.385 . S
C232 H200 0.930 . S
C232 C231 1.385 . S
C232 C233 1.357 . S
C233 C232 1.357 . S
C233 C234 1.406 . S
C234 H201 0.929 . S
C234 C233 1.406 . S
C234 C235 1.391 . S
C235 H202 0.931 . S
C235 C230 1.370 . S
C235 C234 1.391 . S
C236 N210 1.435 . S
C236 C237 1.358 . S
C236 C241 1.371 . S
C237 H203 0.930 . S
C237 C236 1.358 . S
C237 C238 1.405 . S
C238 H204 0.932 . S
C238 C237 1.405 . S
C238 C239 1.383 . S
C239 C238 1.383 . S
C239 C240 1.393 . S
C240 H205 0.931 . S
C240 C239 1.393 . S
C240 C241 1.382 . S
C241 H206 0.929 . S
C241 C236 1.371 . S
C241 C240 1.382 . S
C242 N210 1.423 . S
C242 C243 1.362 . S
C242 C247 1.388 . S
C243 H207 0.929 . S
C243 C242 1.362 . S
C243 C244 1.376 . S
C244 H208 0.931 . S
C244 C243 1.376 . S
C244 C245 1.396 . S
C245 C227 1.472 1_655 S
C245 C244 1.396 . S
C245 C246 1.348 . S
C246 H209 0.929 . S
C246 C245 1.348 . S
C246 C247 1.443 . S
C247 H211 0.932 . S
C247 C242 1.388 . S
C247 C246 1.443 . S
H248 C275 0.929 . S
N249 C274 1.433 . S
N249 C280 1.435 . S
N249 C286 1.423 . S
H250 C276 0.930 . S
H251 C279 0.931 . S
H252 C278 0.929 . S
H253 C281 0.930 . S
H254 C282 0.932 . S
H255 C285 0.929 . S
H256 C284 0.931 . S
H257 C287 0.929 . S
H258 C291 0.932 . S
H259 C288 0.931 . S
H260 C290 0.929 . S
H261 C293 0.929 . S
H262 C294 0.930 . S
H263 C296 0.929 . S
H264 C297 0.931 . S
H265 C299 0.930 1_554 S
H266 C300 0.932 . S
H267 C302 0.931 . S
H268 C303 0.929 . S
H269 C305 0.929 . S
H270 C306 0.931 1_554 S
H271 C308 0.929 . S
N272 C292 1.433 . S
N272 C298 1.435 1_554 S
N272 C304 1.423 1_554 S
H273 C309 0.932 . S
C274 N249 1.433 . S
C274 C275 1.363 . S
C274 C279 1.370 . S
C275 H248 0.929 . S
C275 C274 1.363 . S
C275 C276 1.385 . S
C276 H250 0.930 . S
C276 C275 1.385 . S
C276 C277 1.357 1_556 S
C277 C276 1.357 1_554 S
C277 C278 1.406 . S
C278 H252 0.929 . S
C278 C277 1.406 . S
C278 C279 1.391 1_554 S
C279 H251 0.931 . S
C279 C274 1.370 . S
C279 C278 1.391 1_556 S
C280 N249 1.435 . S
C280 C281 1.358 . S
C280 C285 1.371 . S
C281 H253 0.930 . S
C281 C280 1.358 . S
C281 C282 1.405 . S
C282 H254 0.932 . S
C282 C281 1.405 . S
C282 C283 1.383 . S
C283 C282 1.383 . S
C283 C284 1.393 . S
C284 H256 0.931 . S
C284 C283 1.393 . S
C284 C285 1.382 . S
C285 H255 0.929 . S
C285 C280 1.371 . S
C285 C284 1.382 . S
C286 N249 1.423 . S
C286 C287 1.362 . S
C286 C291 1.388 . S
C287 H257 0.929 . S
C287 C286 1.362 . S
C287 C288 1.376 . S
C288 H259 0.931 . S
C288 C287 1.376 . S
C288 C289 1.396 . S
C289 C288 1.396 . S
C289 C290 1.348 . S
C289 C307 1.472 1_545 S
C290 H260 0.929 . S
C290 C289 1.348 . S
C290 C291 1.443 . S
C291 H258 0.932 . S
C291 C286 1.388 . S
C291 C290 1.443 . S
C292 N272 1.433 . S
C292 C293 1.363 . S
C292 C297 1.370 . S
C293 H261 0.929 . S
C293 C292 1.363 . S
C293 C294 1.385 . S
C294 H262 0.930 . S
C294 C293 1.385 . S
C294 C295 1.357 . S
C295 C294 1.357 . S
C295 C296 1.406 . S
C296 H263 0.929 . S
C296 C295 1.406 . S
C296 C297 1.391 . S
C297 H264 0.931 . S
C297 C292 1.370 . S
C297 C296 1.391 . S
C298 N272 1.435 1_556 S
C298 C299 1.358 . S
C298 C303 1.371 . S
C299 H265 0.930 1_556 S
C299 C298 1.358 . S
C299 C300 1.405 . S
C300 H266 0.932 . S
C300 C299 1.405 . S
C300 C301 1.383 . S
C301 C300 1.383 . S
C301 C302 1.393 . S
C302 H267 0.931 . S
C302 C301 1.393 . S
C302 C303 1.382 . S
C303 H268 0.929 . S
C303 C298 1.371 . S
C303 C302 1.382 . S
C304 N272 1.423 1_556 S
C304 C305 1.362 1_556 S
C304 C309 1.388 . S
C305 H269 0.929 . S
C305 C304 1.362 1_554 S
C305 C306 1.376 1_554 S
C306 H270 0.931 1_556 S
C306 C305 1.376 1_556 S
C306 C307 1.396 . S
C307 C289 1.472 1_565 S
C307 C306 1.396 . S
C307 C308 1.348 . S
C308 H271 0.929 . S
C308 C307 1.348 . S
C308 C309 1.443 . S
C309 H273 0.932 . S
C309 C304 1.388 . S
C309 C308 1.443 . S
H310 C337 0.929 . S
N311 C336 1.433 . S
N311 C342 1.435 . S
N311 C348 1.423 . S
H312 C338 0.930 . S
H313 C341 0.931 . S
H314 C340 0.929 . S
H315 C343 0.930 . S
H316 C344 0.932 . S
H317 C347 0.929 . S
H318 C346 0.931 . S
H319 C349 0.929 . S
H320 C353 0.932 . S
H321 C350 0.931 . S
H322 C352 0.929 . S
H323 C355 0.929 . S
H324 C356 0.930 . S
H325 C358 0.929 . S
H326 C359 0.931 . S
H327 C361 0.930 . S
H328 C362 0.932 . S
H329 C364 0.931 . S
H330 C365 0.929 . S
H331 C367 0.929 . S
H332 C368 0.931 . S
H333 C370 0.929 . S
N334 C354 1.433 . S
N334 C360 1.435 . S
N334 C366 1.423 . S
H335 C371 0.932 . S
C336 N311 1.433 . S
C336 C337 1.363 . S
C336 C341 1.370 . S
C337 H310 0.929 . S
C337 C336 1.363 . S
C337 C338 1.385 . S
C338 H312 0.930 . S
C338 C337 1.385 . S
C338 C339 1.357 . S
C339 C338 1.357 . S
C339 C340 1.406 . S
C340 H314 0.929 . S
C340 C339 1.406 . S
C340 C341 1.391 . S
C341 H313 0.931 . S
C341 C336 1.370 . S
C341 C340 1.391 . S
C342 N311 1.435 . S
C342 C343 1.358 . S
C342 C347 1.371 . S
C343 H315 0.930 . S
C343 C342 1.358 . S
C343 C344 1.405 . S
C344 H316 0.932 . S
C344 C343 1.405 . S
C344 C345 1.383 . S
C345 C344 1.383 . S
C345 C346 1.393 . S
C346 H318 0.931 . S
C346 C345 1.393 . S
C346 C347 1.382 . S
C347 H317 0.929 . S
C347 C342 1.371 . S
C347 C346 1.382 . S
C348 N311 1.423 . S
C348 C349 1.362 . S
C348 C353 1.388 . S
C349 H319 0.929 . S
C349 C348 1.362 . S
C349 C350 1.376 . S
C350 H321 0.931 . S
C350 C349 1.376 . S
C350 C351 1.396 . S
C351 C350 1.396 . S
C351 C352 1.348 . S
C351 C369 1.472 . S
C352 H322 0.929 . S
C352 C351 1.348 . S
C352 C353 1.443 . S
C353 H320 0.932 . S
C353 C348 1.388 . S
C353 C352 1.443 . S
C354 N334 1.433 . S
C354 C355 1.363 . S
C354 C359 1.370 . S
C355 H323 0.929 . S
C355 C354 1.363 . S
C355 C356 1.385 . S
C356 H324 0.930 . S
C356 C355 1.385 . S
C356 C357 1.357 . S
C357 C356 1.357 . S
C357 C358 1.406 . S
C358 H325 0.929 . S
C358 C357 1.406 . S
C358 C359 1.391 . S
C359 H326 0.931 . S
C359 C354 1.370 . S
C359 C358 1.391 . S
C360 N334 1.435 . S
C360 C361 1.358 . S
C360 C365 1.371 . S
C361 H327 0.930 . S
C361 C360 1.358 . S
C361 C362 1.405 . S
C362 H328 0.932 . S
C362 C361 1.405 . S
C362 C363 1.383 . S
C363 C362 1.383 . S
C363 C364 1.393 . S
C364 H329 0.931 . S
C364 C363 1.393 . S
C364 C365 1.382 . S
C365 H330 0.929 . S
C365 C360 1.371 . S
C365 C364 1.382 . S
C366 N334 1.423 . S
C366 C367 1.362 . S
C366 C371 1.388 . S
C367 H331 0.929 . S
C367 C366 1.362 . S
C367 C368 1.376 . S
C368 H332 0.931 . S
C368 C367 1.376 . S
C368 C369 1.396 . S
C369 C351 1.472 . S
C369 C368 1.396 . S
C369 C370 1.348 . S
C370 H333 0.929 . S
C370 C369 1.348 . S
C370 C371 1.443 . S
C371 H335 0.932 . S
C371 C366 1.388 . S
C371 C370 1.443 . S
O372 Cd373 2.223 . S
O372 C380 1.315 . S
Cd373 O372 2.223 . S
Cd373 O376 2.297 . S
Cd373 O377 2.439 . S
Cd373 O383 2.240 . S
Cd374 O375 2.240 . S
Cd374 O382 2.223 . S
Cd374 O384 2.297 . S
Cd374 O385 2.439 . S
O375 Cd374 2.240 . S
O375 C380 1.279 . S
O376 Cd373 2.297 . S
O376 C378 1.247 . S
O377 Cd373 2.439 . S
O377 C378 1.208 . S
C378 O376 1.247 . S
C378 O377 1.208 . S
C379 O384 1.247 . S
C379 O385 1.208 . S
C380 O372 1.315 . S
C380 O375 1.279 . S
C381 O382 1.315 . S
C381 O383 1.279 . S
O382 Cd374 2.223 . S
O382 C381 1.315 . S
O383 Cd373 2.240 . S
O383 C381 1.279 . S
O384 Cd374 2.297 . S
O384 C379 1.247 . S
O385 Cd374 2.439 . S
O385 C379 1.208 . S
O386 Cd387 2.223 . S
O386 C394 1.315 . S
Cd387 O386 2.223 . S
Cd387 O390 2.297 . S
Cd387 O391 2.439 . S
Cd387 O397 2.240 . S
Cd388 O389 2.240 . S
Cd388 O396 2.223 . S
Cd388 O398 2.297 . S
Cd388 O399 2.439 . S
O389 Cd388 2.240 . S
O389 C394 1.279 . S
O390 Cd387 2.297 . S
O390 C392 1.247 . S
O391 Cd387 2.439 . S
O391 C392 1.208 . S
C392 O390 1.247 . S
C392 O391 1.208 . S
C393 O398 1.247 . S
C393 O399 1.208 . S
C394 O386 1.315 . S
C394 O389 1.279 . S
C395 O396 1.315 . S
C395 O397 1.279 . S
O396 Cd388 2.223 . S
O396 C395 1.315 . S
O397 Cd387 2.240 . S
O397 C395 1.279 . S
O398 Cd388 2.297 . S
O398 C393 1.247 . S
O399 Cd388 2.439 . S
O399 C393 1.208 . S
O400 Cd401 2.223 . S
O400 C408 1.315 . S
Cd401 O400 2.223 . S
Cd401 O404 2.297 . S
Cd401 O405 2.439 . S
Cd401 O411 2.240 . S
Cd402 O403 2.240 . S
Cd402 O410 2.223 . S
Cd402 O412 2.297 . S
Cd402 O413 2.439 . S
O403 Cd402 2.240 . S
O403 C408 1.279 . S
O404 Cd401 2.297 . S
O404 C406 1.247 . S
O405 Cd401 2.439 . S
O405 C406 1.208 . S
C406 O404 1.247 . S
C406 O405 1.208 . S
C407 O412 1.247 . S
C407 O413 1.208 . S
C408 O400 1.315 . S
C408 O403 1.279 . S
C409 O410 1.315 . S
C409 O411 1.279 . S
O410 Cd402 2.223 . S
O410 C409 1.315 . S
O411 Cd401 2.240 . S
O411 C409 1.279 . S
O412 Cd402 2.297 . S
O412 C407 1.247 . S
O413 Cd402 2.439 . S
O413 C407 1.208 . S
O414 Cd415 2.223 . S
O414 C422 1.315 . S
Cd415 O414 2.223 . S
Cd415 O418 2.297 . S
Cd415 O419 2.439 . S
Cd415 O425 2.240 . S
Cd416 O417 2.240 . S
Cd416 O424 2.223 . S
Cd416 O426 2.297 . S
Cd416 O427 2.439 . S
O417 Cd416 2.240 . S
O417 C422 1.279 . S
O418 Cd415 2.297 . S
O418 C420 1.247 . S
O419 Cd415 2.439 . S
O419 C420 1.208 . S
C420 O418 1.247 . S
C420 O419 1.208 . S
C421 O426 1.247 . S
C421 O427 1.208 . S
C422 O414 1.315 . S
C422 O417 1.279 . S
C423 O424 1.315 . S
C423 O425 1.279 . S
O424 Cd416 2.223 . S
O424 C423 1.315 . S
O425 Cd415 2.240 . S
O425 C423 1.279 . S
O426 Cd416 2.297 . S
O426 C421 1.247 . S
O427 Cd416 2.439 . S
O427 C421 1.208 . S
O428 Cd429 2.223 . S
O428 C436 1.315 . S
Cd429 O428 2.223 . S
Cd429 O432 2.297 . S
Cd429 O433 2.439 . S
Cd429 O439 2.240 . S
Cd430 O431 2.240 . S
Cd430 O438 2.223 . S
Cd430 O440 2.297 . S
Cd430 O441 2.439 . S
O431 Cd430 2.240 . S
O431 C436 1.279 . S
O432 Cd429 2.297 . S
O432 C434 1.247 . S
O433 Cd429 2.439 . S
O433 C434 1.208 . S
C434 O432 1.247 . S
C434 O433 1.208 . S
C435 O440 1.247 . S
C435 O441 1.208 . S
C436 O428 1.315 . S
C436 O431 1.279 . S
C437 O438 1.315 . S
C437 O439 1.279 . S
O438 Cd430 2.223 . S
O438 C437 1.315 . S
O439 Cd429 2.240 . S
O439 C437 1.279 . S
O440 Cd430 2.297 . S
O440 C435 1.247 . S
O441 Cd430 2.439 . S
O441 C435 1.208 . S
O442 Cd443 2.223 . S
O442 C450 1.315 . S
Cd443 O442 2.223 . S
Cd443 O446 2.297 . S
Cd443 O447 2.439 . S
Cd443 O453 2.240 . S
Cd444 O445 2.240 . S
Cd444 O452 2.223 . S
Cd444 O454 2.297 . S
Cd444 O455 2.439 . S
O445 Cd444 2.240 . S
O445 C450 1.279 . S
O446 Cd443 2.297 . S
O446 C448 1.247 . S
O447 Cd443 2.439 . S
O447 C448 1.208 . S
C448 O446 1.247 . S
C448 O447 1.208 . S
C449 O454 1.247 . S
C449 O455 1.208 . S
C450 O442 1.315 . S
C450 O445 1.279 . S
C451 O452 1.315 . S
C451 O453 1.279 . S
O452 Cd444 2.223 . S
O452 C451 1.315 . S
O453 Cd443 2.240 . S
O453 C451 1.279 . S
O454 Cd444 2.297 . S
O454 C449 1.247 . S
O455 Cd444 2.439 . S
O455 C449 1.208 . S
C456 C457 1.387 . S
C456 H460 0.950 . S
C456 C465 1.390 . S
C457 C456 1.387 . S
C457 C459 1.387 . S
H458 C465 0.950 . S
C459 C457 1.387 . S
C459 C461 1.390 . S
C459 H463 0.950 . S
H460 C456 0.950 . S
C461 C459 1.390 . S
C461 C462 1.387 . S
C461 H464 0.950 . S
C462 C461 1.387 . S
C462 C465 1.387 . S
H463 C459 0.950 . S
H464 C461 0.950 . S
C465 C456 1.390 . S
C465 H458 0.950 . S
C465 C462 1.387 . S
C466 C467 1.387 . S
C466 H470 0.950 . S
C466 C475 1.390 . S
C467 C466 1.387 . S
C467 C469 1.387 . S
H468 C475 0.950 . S
C469 C467 1.387 . S
C469 C471 1.390 . S
C469 H473 0.950 . S
H470 C466 0.950 . S
C471 C469 1.390 . S
C471 C472 1.387 . S
C471 H474 0.950 . S
C472 C471 1.387 . S
C472 C475 1.387 . S
H473 C469 0.950 . S
H474 C471 0.950 . S
C475 C466 1.390 . S
C475 H468 0.950 . S
C475 C472 1.387 . S
C476 C477 1.387 . S
C476 H480 0.950 . S
C476 C485 1.390 . S
C477 C476 1.387 . S
C477 C479 1.387 . S
H478 C485 0.950 . S
C479 C477 1.387 . S
C479 C481 1.390 . S
C479 H483 0.950 . S
H480 C476 0.950 . S
C481 C479 1.390 . S
C481 C482 1.387 . S
C481 H484 0.950 . S
C482 C481 1.387 . S
C482 C485 1.387 . S
H483 C479 0.950 . S
H484 C481 0.950 . S
C485 C476 1.390 . S
C485 H478 0.950 . S
C485 C482 1.387 . S
C486 C487 1.387 . S
C486 H490 0.950 . S
C486 C495 1.390 . S
C487 C486 1.387 . S
C487 C489 1.387 . S
H488 C495 0.950 . S
C489 C487 1.387 . S
C489 C491 1.390 . S
C489 H493 0.950 . S
H490 C486 0.950 . S
C491 C489 1.390 . S
C491 C492 1.387 . S
C491 H494 0.950 . S
C492 C491 1.387 . S
C492 C495 1.387 . S
H493 C489 0.950 . S
H494 C491 0.950 . S
C495 C486 1.390 . S
C495 H488 0.950 . S
C495 C492 1.387 . S
C496 C497 1.387 . S
C496 H500 0.950 . S
C496 C505 1.390 . S
C497 C496 1.387 . S
C497 C499 1.387 . S
H498 C505 0.950 . S
C499 C497 1.387 . S
C499 C501 1.390 . S
C499 H503 0.950 . S
H500 C496 0.950 . S
C501 C499 1.390 . S
C501 C502 1.387 . S
C501 H504 0.950 . S
C502 C501 1.387 . S
C502 C505 1.387 . S
H503 C499 0.950 . S
H504 C501 0.950 . S
C505 C496 1.390 . S
C505 H498 0.950 . S
C505 C502 1.387 . S
C506 C507 1.387 . S
C506 H510 0.950 . S
C506 C515 1.390 . S
C507 C506 1.387 . S
C507 C509 1.387 . S
H508 C515 0.950 . S
C509 C507 1.387 . S
C509 C511 1.390 . S
C509 H513 0.950 . S
H510 C506 0.950 . S
C511 C509 1.390 . S
C511 C512 1.387 . S
C511 H514 0.950 . S
C512 C511 1.387 . S
C512 C515 1.387 . S
H513 C509 0.950 . S
H514 C511 0.950 . S
C515 C506 1.390 . S
C515 H508 0.950 . S
C515 C512 1.387 . S
C516 C517 1.387 . S
C516 H520 0.950 . S
C516 C525 1.390 . S
C517 C516 1.387 . S
C517 C519 1.387 . S
H518 C525 0.950 . S
C519 C517 1.387 . S
C519 C521 1.390 . S
C519 H523 0.950 . S
H520 C516 0.950 . S
C521 C519 1.390 . S
C521 C522 1.387 . S
C521 H524 0.950 . S
C522 C521 1.387 . S
C522 C525 1.387 . S
H523 C519 0.950 . S
H524 C521 0.950 . S
C525 C516 1.390 . S
C525 H518 0.950 . S
C525 C522 1.387 . S
C526 C527 1.387 . S
C526 H530 0.950 . S
C526 C535 1.390 . S
C527 C526 1.387 . S
C527 C529 1.387 . S
H528 C535 0.950 . S
C529 C527 1.387 . S
C529 C531 1.390 . S
C529 H533 0.950 . S
H530 C526 0.950 . S
C531 C529 1.390 . S
C531 C532 1.387 . S
C531 H534 0.950 . S
C532 C531 1.387 . S
C532 C535 1.387 . S
H533 C529 0.950 . S
H534 C531 0.950 . S
C535 C526 1.390 . S
C535 H528 0.950 . S
C535 C532 1.387 . S
C536 C537 1.387 . S
C536 H540 0.950 . S
C536 C545 1.390 . S
C537 C536 1.387 . S
C537 C539 1.387 . S
H538 C545 0.950 . S
C539 C537 1.387 . S
C539 C541 1.390 . S
C539 H543 0.950 . S
H540 C536 0.950 . S
C541 C539 1.390 . S
C541 C542 1.387 . S
C541 H544 0.950 . S
C542 C541 1.387 . S
C542 C545 1.387 . S
H543 C539 0.950 . S
H544 C541 0.950 . S
C545 C536 1.390 . S
C545 H538 0.950 . S
C545 C542 1.387 . S
C546 C547 1.387 . S
C546 H550 0.950 . S
C546 C555 1.390 . S
C547 C546 1.387 . S
C547 C549 1.387 . S
H548 C555 0.950 . S
C549 C547 1.387 . S
C549 C551 1.390 . S
C549 H553 0.950 1_554 S
H550 C546 0.950 . S
C551 C549 1.390 . S
C551 C552 1.387 . S
C551 H554 0.950 1_554 S
C552 C551 1.387 . S
C552 C555 1.387 . S
H553 C549 0.950 1_556 S
H554 C551 0.950 1_556 S
C555 C546 1.390 . S
C555 H548 0.950 . S
C555 C552 1.387 . S
C556 C557 1.387 . S
C556 H560 0.950 . S
C556 C565 1.390 . S
C557 C556 1.387 . S
C557 C559 1.387 . S
H558 C565 0.950 . S
C559 C557 1.387 . S
C559 C561 1.390 . S
C559 H563 0.950 . S
H560 C556 0.950 . S
C561 C559 1.390 . S
C561 C562 1.387 . S
C561 H564 0.950 . S
C562 C561 1.387 . S
C562 C565 1.387 . S
H563 C559 0.950 . S
H564 C561 0.950 . S
C565 C556 1.390 . S
C565 H558 0.950 . S
C565 C562 1.387 . S
C566 C567 1.387 . S
C566 H570 0.950 . S
C566 C575 1.390 . S
C567 C566 1.387 . S
C567 C569 1.387 . S
H568 C575 0.950 . S
C569 C567 1.387 . S
C569 C571 1.390 . S
C569 H573 0.950 . S
H570 C566 0.950 . S
C571 C569 1.390 . S
C571 C572 1.387 . S
C571 H574 0.950 . S
C572 C571 1.387 . S
C572 C575 1.387 . S
H573 C569 0.950 . S
H574 C571 0.950 . S
C575 C566 1.390 . S
C575 H568 0.950 . S
C575 C572 1.387 . S
C576 C577 1.387 . S
C576 H580 0.950 . S
C576 C585 1.390 . S
C577 C576 1.387 . S
C577 C579 1.387 . S
H578 C585 0.950 . S
C579 C577 1.387 . S
C579 C581 1.390 . S
C579 H583 0.950 . S
H580 C576 0.950 . S
C581 C579 1.390 . S
C581 C582 1.387 . S
C581 H584 0.950 . S
C582 C581 1.387 . S
C582 C585 1.387 . S
H583 C579 0.950 . S
H584 C581 0.950 . S
C585 C576 1.390 . S
C585 H578 0.950 . S
C585 C582 1.387 . S
C586 C587 1.387 . S
C586 H590 0.950 . S
C586 C595 1.390 . S
C587 C586 1.387 . S
C587 C589 1.387 . S
H588 C595 0.950 . S
C589 C587 1.387 . S
C589 C591 1.390 . S
C589 H593 0.950 . S
H590 C586 0.950 . S
C591 C589 1.390 . S
C591 C592 1.387 . S
C591 H594 0.950 . S
C592 C591 1.387 . S
C592 C595 1.387 . S
H593 C589 0.950 . S
H594 C591 0.950 . S
C595 C586 1.390 . S
C595 H588 0.950 . S
C595 C592 1.387 . S
C596 C597 1.387 . S
C596 H600 0.950 . S
C596 C605 1.390 . S
C597 C596 1.387 . S
C597 C599 1.387 . S
H598 C605 0.950 . S
C599 C597 1.387 . S
C599 C601 1.390 . S
C599 H603 0.950 . S
H600 C596 0.950 . S
C601 C599 1.390 . S
C601 C602 1.387 . S
C601 H604 0.950 . S
C602 C601 1.387 . S
C602 C605 1.387 . S
H603 C599 0.950 . S
H604 C601 0.950 . S
C605 C596 1.390 . S
C605 H598 0.950 . S
C605 C602 1.387 . S
C606 C607 1.387 . S
C606 H610 0.950 . S
C606 C615 1.390 . S
C607 C606 1.387 . S
C607 C609 1.387 . S
H608 C615 0.950 . S
C609 C607 1.387 . S
C609 C611 1.390 . S
C609 H613 0.950 . S
H610 C606 0.950 . S
C611 C609 1.390 . S
C611 C612 1.387 . S
C611 H614 0.950 . S
C612 C611 1.387 . S
C612 C615 1.387 . S
H613 C609 0.950 . S
H614 C611 0.950 . S
C615 C606 1.390 . S
C615 H608 0.950 . S
C615 C612 1.387 . S
C616 C617 1.387 . S
C616 H620 0.950 . S
C616 C625 1.390 . S
C617 C616 1.387 . S
C617 C619 1.387 . S
H618 C625 0.950 . S
C619 C617 1.387 . S
C619 C621 1.390 . S
C619 H623 0.950 . S
H620 C616 0.950 . S
C621 C619 1.390 . S
C621 C622 1.387 . S
C621 H624 0.950 . S
C622 C621 1.387 . S
C622 C625 1.387 . S
H623 C619 0.950 . S
H624 C621 0.950 . S
C625 C616 1.390 . S
C625 H618 0.950 . S
C625 C622 1.387 . S
C626 C627 1.387 . S
C626 H630 0.950 . S
C626 C635 1.390 . S
C627 C626 1.387 . S
C627 C629 1.387 . S
H628 C635 0.950 . S
C629 C627 1.387 . S
C629 C631 1.390 . S
C629 H633 0.950 . S
H630 C626 0.950 . S
C631 C629 1.390 . S
C631 C632 1.387 . S
C631 H634 0.950 . S
C632 C631 1.387 . S
C632 C635 1.387 . S
H633 C629 0.950 . S
H634 C631 0.950 . S
C635 C626 1.390 . S
C635 H628 0.950 . S
C635 C632 1.387 . S
C636 C637 1.387 . S
C636 H640 0.950 . S
C636 C645 1.390 . S
C637 C636 1.387 . S
C637 C639 1.387 . S
H638 C645 0.950 . S
C639 C637 1.387 . S
C639 C641 1.390 . S
C639 H643 0.950 . S
H640 C636 0.950 . S
C641 C639 1.390 . S
C641 C642 1.387 . S
C641 H644 0.950 . S
C642 C641 1.387 . S
C642 C645 1.387 . S
H643 C639 0.950 . S
H644 C641 0.950 . S
C645 C636 1.390 . S
C645 H638 0.950 . S
C645 C642 1.387 . S
C646 C647 1.387 . S
C646 H650 0.950 . S
C646 C655 1.390 . S
C647 C646 1.387 . S
C647 C649 1.387 . S
H648 C655 0.950 . S
C649 C647 1.387 . S
C649 C651 1.390 . S
C649 H653 0.950 . S
H650 C646 0.950 . S
C651 C649 1.390 . S
C651 C652 1.387 . S
C651 H654 0.950 . S
C652 C651 1.387 . S
C652 C655 1.387 . S
H653 C649 0.950 . S
H654 C651 0.950 . S
C655 C646 1.390 . S
C655 H648 0.950 . S
C655 C652 1.387 . S
C656 C657 1.387 . S
C656 H660 0.950 . S
C656 C665 1.390 . S
C657 C656 1.387 . S
C657 C659 1.387 . S
H658 C665 0.950 . S
C659 C657 1.387 . S
C659 C661 1.390 . S
C659 H663 0.950 . S
H660 C656 0.950 . S
C661 C659 1.390 . S
C661 C662 1.387 . S
C661 H664 0.950 . S
C662 C661 1.387 . S
C662 C665 1.387 . S
H663 C659 0.950 . S
H664 C661 0.950 . S
C665 C656 1.390 . S
C665 H658 0.950 . S
C665 C662 1.387 . S
C666 C667 1.387 . S
C666 H670 0.950 . S
C666 C675 1.390 . S
C667 C666 1.387 . S
C667 C669 1.387 . S
H668 C675 0.950 . S
C669 C667 1.387 . S
C669 C671 1.390 . S
C669 H673 0.950 . S
H670 C666 0.950 . S
C671 C669 1.390 . S
C671 C672 1.387 . S
C671 H674 0.950 . S
C672 C671 1.387 . S
C672 C675 1.387 . S
H673 C669 0.950 . S
H674 C671 0.950 . S
C675 C666 1.390 . S
C675 H668 0.950 . S
C675 C672 1.387 . S
C676 C677 1.387 . S
C676 H680 0.950 . S
C676 C685 1.390 . S
C677 C676 1.387 . S
C677 C679 1.387 . S
H678 C685 0.950 . S
C679 C677 1.387 . S
C679 C681 1.390 . S
C679 H683 0.950 . S
H680 C676 0.950 . S
C681 C679 1.390 . S
C681 C682 1.387 . S
C681 H684 0.950 . S
C682 C681 1.387 . S
C682 C685 1.387 . S
H683 C679 0.950 . S
H684 C681 0.950 . S
C685 C676 1.390 . S
C685 H678 0.950 . S
C685 C682 1.387 . S
C686 C687 1.387 . S
C686 H690 0.950 . S
C686 C695 1.390 . S
C687 C686 1.387 . S
C687 C689 1.387 . S
H688 C695 0.950 . S
C689 C687 1.387 . S
C689 C691 1.390 . S
C689 H693 0.950 . S
H690 C686 0.950 . S
C691 C689 1.390 . S
C691 C692 1.387 . S
C691 H694 0.950 . S
C692 C691 1.387 . S
C692 C695 1.387 . S
H693 C689 0.950 . S
H694 C691 0.950 . S
C695 C686 1.390 . S
C695 H688 0.950 . S
C695 C692 1.387 . S
C462 C449 1.533 . S
C457 C29 1.424 . S
C467 C115 1.414 . S
C472 C378 1.422 . S
C477 C153 1.423 . S
C482 C392 1.523 . S
C487 C239 1.382 . S
C492 C406 1.394 . S
C502 C420 1.471 . S
C497 C301 1.461 . S
C507 C339 1.643 . S
C512 C435 1.778 . S
C517 C91 1.426 . S
C522 C393 1.523 . S
C527 C177 1.413 . S
C532 C407 1.420 . S
C537 C215 1.424 . S
C542 C421 1.534 . S
C552 C434 1.776 . S
C547 C277 1.642 . S
C562 C448 1.469 . S
C557 C363 1.459 . S
C572 C379 1.395 . S
C567 C53 1.382 . S
C577 C35 1.624 . S
C582 C395 1.632 . S
C587 C109 1.418 . S
C592 C409 1.554 . S
C602 C423 1.516 . S
C597 C159 1.523 . S
C607 C233 1.643 . S
C612 C436 1.778 1_556 S
C622 C450 1.629 . S
C617 C295 1.448 . S
C632 C381 1.504 . S
C627 C345 1.523 . S
C642 C451 1.515 . S
C637 C97 1.522 . S
C647 C171 1.419 . S
C652 C380 1.556 . S
C662 C394 1.634 . S
C657 C221 1.626 . S
C667 C283 1.522 . S
C672 C408 1.501 . S
C677 C357 1.447 1_556 S
C682 C422 1.629 . S
C687 C47 1.640 . S
C692 C437 1.776 . S
